# Generated by pormake.
# Topology lcy-a, (4)-cn, num edge types: 1
# Building blocks:
#     Node 0, Type 0, BuildingBlock: QUQFOY_clean_sbu_1, # of connection points: 4
#     Node 1, Type 0, BuildingBlock: QUQFOY_clean_sbu_1, # of connection points: 4
#     Node 2, Type 0, BuildingBlock: QUQFOY_clean_sbu_1, # of connection points: 4
#     Node 3, Type 0, BuildingBlock: QUQFOY_clean_sbu_1, # of connection points: 4
#     Node 4, Type 0, BuildingBlock: QUQFOY_clean_sbu_1, # of connection points: 4
#     Node 5, Type 0, BuildingBlock: QUQFOY_clean_sbu_1, # of connection points: 4
#     Node 6, Type 0, BuildingBlock: QUQFOY_clean_sbu_1, # of connection points: 4
#     Node 7, Type 0, BuildingBlock: QUQFOY_clean_sbu_1, # of connection points: 4
#     Node 8, Type 0, BuildingBlock: QUQFOY_clean_sbu_1, # of connection points: 4
#     Node 9, Type 0, BuildingBlock: QUQFOY_clean_sbu_1, # of connection points: 4
#     Node 10, Type 0, BuildingBlock: QUQFOY_clean_sbu_1, # of connection points: 4
#     Node 11, Type 0, BuildingBlock: QUQFOY_clean_sbu_1, # of connection points: 4
#     Node 12, Type 0, BuildingBlock: QUQFOY_clean_sbu_1, # of connection points: 4
#     Node 13, Type 0, BuildingBlock: QUQFOY_clean_sbu_1, # of connection points: 4
#     Node 14, Type 0, BuildingBlock: QUQFOY_clean_sbu_1, # of connection points: 4
#     Node 15, Type 0, BuildingBlock: QUQFOY_clean_sbu_1, # of connection points: 4
#     Node 16, Type 0, BuildingBlock: QUQFOY_clean_sbu_1, # of connection points: 4
#     Node 17, Type 0, BuildingBlock: QUQFOY_clean_sbu_1, # of connection points: 4
#     Node 18, Type 0, BuildingBlock: QUQFOY_clean_sbu_1, # of connection points: 4
#     Node 19, Type 0, BuildingBlock: QUQFOY_clean_sbu_1, # of connection points: 4
#     Node 20, Type 0, BuildingBlock: QUQFOY_clean_sbu_1, # of connection points: 4
#     Node 21, Type 0, BuildingBlock: QUQFOY_clean_sbu_1, # of connection points: 4
#     Node 22, Type 0, BuildingBlock: QUQFOY_clean_sbu_1, # of connection points: 4
#     Node 23, Type 0, BuildingBlock: QUQFOY_clean_sbu_1, # of connection points: 4
#     Edge 24, Type (0, 0), BuildingBlock: TEMPAE_clean_linker_10, # of connection points: 2
#     Edge 25, Type (0, 0), BuildingBlock: TEMPAE_clean_linker_10, # of connection points: 2
#     Edge 26, Type (0, 0), BuildingBlock: TEMPAE_clean_linker_10, # of connection points: 2
#     Edge 27, Type (0, 0), BuildingBlock: TEMPAE_clean_linker_10, # of connection points: 2
#     Edge 28, Type (0, 0), BuildingBlock: TEMPAE_clean_linker_10, # of connection points: 2
#     Edge 29, Type (0, 0), BuildingBlock: TEMPAE_clean_linker_10, # of connection points: 2
#     Edge 30, Type (0, 0), BuildingBlock: TEMPAE_clean_linker_10, # of connection points: 2
#     Edge 31, Type (0, 0), BuildingBlock: TEMPAE_clean_linker_10, # of connection points: 2
#     Edge 32, Type (0, 0), BuildingBlock: TEMPAE_clean_linker_10, # of connection points: 2
#     Edge 33, Type (0, 0), BuildingBlock: TEMPAE_clean_linker_10, # of connection points: 2
#     Edge 34, Type (0, 0), BuildingBlock: TEMPAE_clean_linker_10, # of connection points: 2
#     Edge 35, Type (0, 0), BuildingBlock: TEMPAE_clean_linker_10, # of connection points: 2
#     Edge 36, Type (0, 0), BuildingBlock: TEMPAE_clean_linker_10, # of connection points: 2
#     Edge 37, Type (0, 0), BuildingBlock: TEMPAE_clean_linker_10, # of connection points: 2
#     Edge 38, Type (0, 0), BuildingBlock: TEMPAE_clean_linker_10, # of connection points: 2
#     Edge 39, Type (0, 0), BuildingBlock: TEMPAE_clean_linker_10, # of connection points: 2
#     Edge 40, Type (0, 0), BuildingBlock: TEMPAE_clean_linker_10, # of connection points: 2
#     Edge 41, Type (0, 0), BuildingBlock: TEMPAE_clean_linker_10, # of connection points: 2
#     Edge 42, Type (0, 0), BuildingBlock: TEMPAE_clean_linker_10, # of connection points: 2
#     Edge 43, Type (0, 0), BuildingBlock: TEMPAE_clean_linker_10, # of connection points: 2
#     Edge 44, Type (0, 0), BuildingBlock: TEMPAE_clean_linker_10, # of connection points: 2
#     Edge 45, Type (0, 0), BuildingBlock: TEMPAE_clean_linker_10, # of connection points: 2
#     Edge 46, Type (0, 0), BuildingBlock: TEMPAE_clean_linker_10, # of connection points: 2
#     Edge 47, Type (0, 0), BuildingBlock: TEMPAE_clean_linker_10, # of connection points: 2
#     Edge 48, Type (0, 0), BuildingBlock: TEMPAE_clean_linker_10, # of connection points: 2
#     Edge 49, Type (0, 0), BuildingBlock: TEMPAE_clean_linker_10, # of connection points: 2
#     Edge 50, Type (0, 0), BuildingBlock: TEMPAE_clean_linker_10, # of connection points: 2
#     Edge 51, Type (0, 0), BuildingBlock: TEMPAE_clean_linker_10, # of connection points: 2
#     Edge 52, Type (0, 0), BuildingBlock: TEMPAE_clean_linker_10, # of connection points: 2
#     Edge 53, Type (0, 0), BuildingBlock: TEMPAE_clean_linker_10, # of connection points: 2
#     Edge 54, Type (0, 0), BuildingBlock: TEMPAE_clean_linker_10, # of connection points: 2
#     Edge 55, Type (0, 0), BuildingBlock: TEMPAE_clean_linker_10, # of connection points: 2
#     Edge 56, Type (0, 0), BuildingBlock: TEMPAE_clean_linker_10, # of connection points: 2
#     Edge 57, Type (0, 0), BuildingBlock: TEMPAE_clean_linker_10, # of connection points: 2
#     Edge 58, Type (0, 0), BuildingBlock: TEMPAE_clean_linker_10, # of connection points: 2
#     Edge 59, Type (0, 0), BuildingBlock: TEMPAE_clean_linker_10, # of connection points: 2
#     Edge 60, Type (0, 0), BuildingBlock: TEMPAE_clean_linker_10, # of connection points: 2
#     Edge 61, Type (0, 0), BuildingBlock: TEMPAE_clean_linker_10, # of connection points: 2
#     Edge 62, Type (0, 0), BuildingBlock: TEMPAE_clean_linker_10, # of connection points: 2
#     Edge 63, Type (0, 0), BuildingBlock: TEMPAE_clean_linker_10, # of connection points: 2
#     Edge 64, Type (0, 0), BuildingBlock: TEMPAE_clean_linker_10, # of connection points: 2
#     Edge 65, Type (0, 0), BuildingBlock: TEMPAE_clean_linker_10, # of connection points: 2
#     Edge 66, Type (0, 0), BuildingBlock: TEMPAE_clean_linker_10, # of connection points: 2
#     Edge 67, Type (0, 0), BuildingBlock: TEMPAE_clean_linker_10, # of connection points: 2
#     Edge 68, Type (0, 0), BuildingBlock: TEMPAE_clean_linker_10, # of connection points: 2
#     Edge 69, Type (0, 0), BuildingBlock: TEMPAE_clean_linker_10, # of connection points: 2
#     Edge 70, Type (0, 0), BuildingBlock: TEMPAE_clean_linker_10, # of connection points: 2
#     Edge 71, Type (0, 0), BuildingBlock: TEMPAE_clean_linker_10, # of connection points: 2
# Relax obj value: 0.381
# Max RMSD: 0.177
# Mean RMSD: 0.177
data_MOF--net-lcy-a--node1-QUQFOY_clean_sbu_1--edge1-TEMPAE_clean_linker_10
_symmetry_space_group_name_H-M    P1
_symmetry_Int_Tables_number       1
_symmetry_cell_setting            triclinic
loop_
_symmetry_equiv_pos_as_xyz
'x, y, z'
_cell_length_a     60.013131
_cell_length_b     59.987472
_cell_length_c     60.003345
_cell_angle_alpha  89.990064
_cell_angle_beta   89.983546
_cell_angle_gamma 89.984532
loop_
_atom_site_label
_atom_site_type_symbol
_atom_site_fract_x
_atom_site_fract_y
_atom_site_fract_z
_atom_type_partial_charge
O0 O 0.20079 0.2468 0.37118 0.0
Cd1 Cd 0.17882 0.27164 0.3802 0.0
Cd2 Cd 0.21408 0.28901 0.39967 0.0
O3 O 0.22441 0.25618 0.39764 0.0
O4 O 0.14966 0.25946 0.39009 0.0
O5 O 0.17441 0.27514 0.41269 0.0
C6 C 0.15571 0.26483 0.41009 0.0
C7 C 0.22603 0.3102 0.43017 0.0
C8 C 0.21808 0.24262 0.38266 0.0
C9 C 0.19548 0.31041 0.35745 0.0
O10 O 0.21194 0.30727 0.37045 0.0
O11 O 0.17776 0.29911 0.35989 0.0
O12 O 0.2397 0.30324 0.41519 0.0
O13 O 0.20537 0.30464 0.42832 0.0
O14 O 0.99476 0.95824 0.62556 0.0
Cd15 Cd 0.97097 0.93497 0.63395 0.0
Cd16 Cd 0.95138 0.96846 0.6536 0.0
O17 O 0.98327 0.98125 0.65168 0.0
O18 O 0.98491 0.90608 0.64176 0.0
O19 O 0.96822 0.92837 0.66621 0.0
C20 C 0.97958 0.91051 0.66218 0.0
C21 C 0.93015 0.9792 0.68451 0.0
C22 C 0.99751 0.97585 0.63698 0.0
C23 C 0.93174 0.94974 0.61067 0.0
O24 O 0.93342 0.966 0.62419 0.0
O25 O 0.94412 0.93273 0.61299 0.0
O26 O 0.93595 0.99318 0.66934 0.0
O27 O 0.93658 0.9588 0.68242 0.0
O28 O 0.28592 0.74214 0.8764 0.0
Cd29 Cd 0.3094 0.71896 0.88585 0.0
Cd30 Cd 0.27573 0.69879 0.90375 0.0
O31 O 0.26253 0.73053 0.90209 0.0
O32 O 0.33754 0.73397 0.89407 0.0
O33 O 0.31526 0.71705 0.91837 0.0
C34 C 0.33277 0.729 0.91451 0.0
C35 C 0.26436 0.67657 0.93369 0.0
C36 C 0.26804 0.74476 0.88741 0.0
C37 C 0.29644 0.67988 0.86152 0.0
O38 O 0.27944 0.68147 0.87409 0.0
O39 O 0.31331 0.69216 0.865 0.0
O40 O 0.25078 0.6826 0.91826 0.0
O41 O 0.28469 0.68343 0.93248 0.0
O42 O 0.50495 0.03919 0.13069 0.0
Cd43 Cd 0.52704 0.06362 0.13965 0.0
Cd44 Cd 0.55097 0.03133 0.15772 0.0
O45 O 0.52149 0.01424 0.15191 0.0
O46 O 0.51106 0.09129 0.14783 0.0
O47 O 0.52948 0.07013 0.17204 0.0
C48 C 0.51683 0.08716 0.16819 0.0
C49 C 0.5713 0.01961 0.18886 0.0
C50 C 0.50559 0.01978 0.13906 0.0
C51 C 0.56874 0.05495 0.11636 0.0
O52 O 0.5705 0.03905 0.13028 0.0
O53 O 0.55263 0.0686 0.11766 0.0
O54 O 0.56829 0.00693 0.17187 0.0
O55 O 0.56266 0.03928 0.18849 0.0
O56 O 0.70462 0.24461 0.62541 0.0
Cd57 Cd 0.6823 0.2205 0.6154 0.0
Cd58 Cd 0.71723 0.20245 0.59669 0.0
O59 O 0.72884 0.23469 0.59975 0.0
O60 O 0.6535 0.23387 0.60613 0.0
O61 O 0.6777 0.2184 0.58275 0.0
C62 C 0.65936 0.22923 0.58589 0.0
C63 C 0.7295 0.18207 0.56577 0.0
C64 C 0.72252 0.24826 0.61472 0.0
C65 C 0.6975 0.18121 0.63837 0.0
O66 O 0.71425 0.18386 0.62563 0.0
O67 O 0.6801 0.19292 0.63554 0.0
O68 O 0.74287 0.18803 0.58142 0.0
O69 O 0.70889 0.18792 0.56736 0.0
O70 O 0.00362 0.46161 0.86892 0.0
Cd71 Cd 0.02682 0.43732 0.86161 0.0
Cd72 Cd 0.0516 0.46992 0.84543 0.0
O73 O 0.0232 0.48785 0.85219 0.0
O74 O 0.01116 0.40933 0.85415 0.0
O75 O 0.03002 0.42959 0.82952 0.0
C76 C 0.01732 0.41269 0.83377 0.0
C77 C 0.07175 0.48083 0.81388 0.0
C78 C 0.00584 0.48167 0.86259 0.0
C79 C 0.06827 0.44569 0.88642 0.0
O80 O 0.07057 0.4617 0.87274 0.0
O81 O 0.05207 0.43221 0.88442 0.0
O82 O 0.06968 0.49356 0.83098 0.0
O83 O 0.06228 0.46155 0.81443 0.0
O84 O 0.79353 0.75972 0.1217 0.0
Cd85 Cd 0.82112 0.77942 0.11766 0.0
Cd86 Cd 0.79366 0.81202 0.10669 0.0
O87 O 0.77064 0.78781 0.11555 0.0
O88 O 0.84635 0.76071 0.1078 0.0
O89 O 0.82989 0.78604 0.08634 0.0
C90 C 0.8444 0.77026 0.08858 0.0
C91 C 0.78274 0.83463 0.07681 0.0
C92 C 0.7739 0.76746 0.12056 0.0
C93 C 0.82322 0.81927 0.14653 0.0
O94 O 0.81022 0.82787 0.13223 0.0
O95 O 0.82971 0.79923 0.14436 0.0
O96 O 0.77414 0.83667 0.09633 0.0
O97 O 0.79793 0.81968 0.07402 0.0
O98 O 0.50173 0.54399 0.37006 0.0
Cd99 Cd 0.48003 0.56991 0.36491 0.0
Cd100 Cd 0.44966 0.53993 0.35243 0.0
O101 O 0.47609 0.51934 0.36087 0.0
O102 O 0.49628 0.59644 0.35406 0.0
O103 O 0.47281 0.57676 0.33325 0.0
C104 C 0.48697 0.59291 0.33495 0.0
C105 C 0.4276 0.52714 0.32294 0.0
C106 C 0.4957 0.5239 0.36748 0.0
C107 C 0.43898 0.56906 0.3921 0.0
O108 O 0.43223 0.55471 0.37808 0.0
O109 O 0.45838 0.57735 0.39055 0.0
O110 O 0.42834 0.51696 0.34176 0.0
O111 O 0.43942 0.54493 0.32056 0.0
O112 O 0.37644 0.21231 0.26192 0.0
Cd113 Cd 0.38353 0.18546 0.28211 0.0
Cd114 Cd 0.40183 0.21534 0.30863 0.0
O115 O 0.39847 0.23501 0.28057 0.0
O116 O 0.39162 0.15911 0.26397 0.0
O117 O 0.41558 0.17763 0.2853 0.0
C118 C 0.41179 0.16194 0.27102 0.0
C119 C 0.43192 0.22435 0.33179 0.0
C120 C 0.3859 0.23114 0.26398 0.0
C121 C 0.3586 0.19198 0.32274 0.0
O122 O 0.37284 0.20742 0.32549 0.0
O123 O 0.36057 0.17855 0.30653 0.0
O124 O 0.41449 0.2367 0.33047 0.0
O125 O 0.43266 0.2066 0.3197 0.0
O126 O 0.03968 0.12857 0.50659 0.0
Cd127 Cd 0.06231 0.13818 0.53052 0.0
Cd128 Cd 0.02805 0.15697 0.54904 0.0
O129 O 0.01619 0.15475 0.51682 0.0
O130 O 0.09102 0.14646 0.51659 0.0
O131 O 0.06787 0.17071 0.53238 0.0
C132 C 0.08585 0.1669 0.52115 0.0
C133 C 0.01612 0.18756 0.57006 0.0
C134 C 0.02206 0.13975 0.50308 0.0
C135 C 0.04752 0.11483 0.56952 0.0
O136 O 0.03078 0.12763 0.56709 0.0
O137 O 0.06487 0.11781 0.5578 0.0
O138 O 0.00261 0.17215 0.56382 0.0
O139 O 0.03671 0.18593 0.56414 0.0
O140 O 0.12001 0.78659 0.75152 0.0
Cd141 Cd 0.10963 0.80917 0.77521 0.0
Cd142 Cd 0.09007 0.77472 0.7931 0.0
O143 O 0.09422 0.76241 0.76122 0.0
O144 O 0.10171 0.83816 0.76148 0.0
O145 O 0.07711 0.81481 0.77638 0.0
C146 C 0.08118 0.83306 0.76569 0.0
C147 C 0.05811 0.76357 0.81247 0.0
C148 C 0.10949 0.76858 0.74792 0.0
C149 C 0.13121 0.79422 0.81539 0.0
O150 O 0.11836 0.77756 0.81268 0.0
O151 O 0.12898 0.81141 0.80325 0.0
O152 O 0.07361 0.74969 0.8073 0.0
O153 O 0.06045 0.78406 0.80644 0.0
O154 O 0.45064 0.87578 0.99363 0.0
Cd155 Cd 0.43082 0.86586 0.01989 0.0
Cd156 Cd 0.46731 0.84588 0.03305 0.0
O157 O 0.47445 0.84848 -0.00058 0.0
O158 O 0.40048 0.85701 0.00985 0.0
O159 O 0.42608 0.83331 0.02221 0.0
C160 C 0.40663 0.83668 0.01369 0.0
C161 C 0.47947 0.81438 0.05262 0.0
C162 C 0.46724 0.86426 0.98726 0.0
C163 C 0.45169 0.88757 0.05719 0.0
O164 O 0.46782 0.87491 0.05175 0.0
O165 O 0.43271 0.88502 0.04817 0.0
O166 O 0.49328 0.82872 0.04465 0.0
O167 O 0.45853 0.81747 0.049 0.0
O168 O 0.87348 0.28774 0.75091 0.0
Cd169 Cd 0.88236 0.31106 0.72728 0.0
Cd170 Cd 0.90126 0.27722 0.70732 0.0
O171 O 0.89862 0.26389 0.73894 0.0
O172 O 0.89102 0.33977 0.74117 0.0
O173 O 0.91476 0.31691 0.72428 0.0
C174 C 0.91127 0.33493 0.73555 0.0
C175 C 0.93216 0.26625 0.68618 0.0
C176 C 0.88416 0.26962 0.7533 0.0
C177 C 0.85889 0.29721 0.68771 0.0
O178 O 0.87212 0.28068 0.68914 0.0
O179 O 0.86142 0.31392 0.70044 0.0
O180 O 0.91666 0.25247 0.69157 0.0
O181 O 0.93042 0.28656 0.693 0.0
O182 O 0.95468 0.62497 0.9935 0.0
Cd183 Cd 0.92923 0.63359 0.97243 0.0
Cd184 Cd 0.96032 0.6504 0.94565 0.0
O185 O 0.9788 0.64498 0.97437 0.0
O186 O 0.90285 0.64417 0.98916 0.0
O187 O 0.92425 0.66607 0.96828 0.0
C188 C 0.90771 0.6639 0.98191 0.0
C189 C 0.97267 0.68044 0.92404 0.0
C190 C 0.9741 0.63303 0.99123 0.0
C191 C 0.93425 0.60922 0.93076 0.0
O192 O 0.95008 0.62291 0.92734 0.0
O193 O 0.92216 0.61089 0.94803 0.0
O194 O 0.98439 0.6627 0.92658 0.0
O195 O 0.95351 0.68138 0.93373 0.0
O196 O 0.61424 0.71721 0.24001 0.0
Cd197 Cd 0.60925 0.69257 0.21684 0.0
Cd198 Cd 0.59581 0.72405 0.18908 0.0
O199 O 0.60255 0.74325 0.21688 0.0
O200 O 0.60162 0.66469 0.23259 0.0
O201 O 0.57773 0.68353 0.21146 0.0
C202 C 0.58165 0.66714 0.22491 0.0
C203 C 0.56558 0.73562 0.16738 0.0
C204 C 0.6102 0.73752 0.23578 0.0
C205 C 0.6373 0.69868 0.17668 0.0
O206 O 0.62313 0.71345 0.17127 0.0
O207 O 0.63491 0.68758 0.19455 0.0
O208 O 0.58331 0.74746 0.16934 0.0
O209 O 0.56473 0.71686 0.17785 0.0
O210 O 0.54239 0.37264 0.49031 0.0
Cd211 Cd 0.56966 0.36607 0.47092 0.0
Cd212 Cd 0.54124 0.34916 0.4414 0.0
O213 O 0.51981 0.35393 0.46816 0.0
O214 O 0.59509 0.3567 0.48963 0.0
O215 O 0.57705 0.33407 0.46649 0.0
C216 C 0.59213 0.3369 0.48162 0.0
C217 C 0.53163 0.31931 0.41814 0.0
C218 C 0.52324 0.36478 0.48604 0.0
C219 C 0.56702 0.39175 0.42987 0.0
O220 O 0.55257 0.37718 0.4246 0.0
O221 O 0.57748 0.39025 0.44818 0.0
O222 O 0.52059 0.33766 0.41826 0.0
O223 O 0.54843 0.31756 0.43141 0.0
O224 O 0.2554 0.38324 0.2121 0.0
Cd225 Cd 0.28093 0.39364 0.1917 0.0
Cd226 Cd 0.29475 0.41322 0.2274 0.0
O227 O 0.26176 0.40976 0.23654 0.0
O228 O 0.26937 0.40014 0.16145 0.0
O229 O 0.2815 0.42601 0.185 0.0
C230 C 0.27225 0.42098 0.16622 0.0
C231 C 0.31413 0.44522 0.23828 0.0
C232 C 0.24958 0.39398 0.2294 0.0
C233 C 0.31866 0.37171 0.2114 0.0
O234 O 0.3137 0.38441 0.22765 0.0
O235 O 0.30926 0.37443 0.19263 0.0
O236 O 0.30707 0.43091 0.25261 0.0
O237 O 0.30975 0.44178 0.21753 0.0
O238 O 0.75016 0.1168 0.79223 0.0
Cd239 Cd 0.77417 0.10716 0.81483 0.0
Cd240 Cd 0.79312 0.08905 0.78026 0.0
O241 O 0.76119 0.09182 0.7678 0.0
O242 O 0.76059 0.09859 0.84369 0.0
O243 O 0.77652 0.0746 0.82039 0.0
C244 C 0.76556 0.07823 0.83858 0.0
C245 C 0.81414 0.0585 0.76814 0.0
C246 C 0.74716 0.10639 0.77405 0.0
C247 C 0.81329 0.13099 0.80044 0.0
O248 O 0.81127 0.11824 0.78362 0.0
O249 O 0.80123 0.1279 0.81755 0.0
O250 O 0.80823 0.0742 0.75481 0.0
O251 O 0.8079 0.05982 0.78866 0.0
O252 O 0.12592 0.49571 0.04069 0.0
Cd253 Cd 0.13521 0.52156 0.0613 0.0
Cd254 Cd 0.15429 0.53655 0.02531 0.0
O255 O 0.15247 0.50329 0.01658 0.0
O256 O 0.14385 0.51058 0.09132 0.0
O257 O 0.16766 0.52441 0.06658 0.0
C258 C 0.16417 0.51507 0.08566 0.0
C259 C 0.18514 0.55734 0.01359 0.0
C260 C 0.13721 0.49039 0.02358 0.0
C261 C 0.11191 0.5587 0.04197 0.0
O262 O 0.1247 0.55433 0.02562 0.0
O263 O 0.11494 0.54916 0.06062 0.0
O264 O 0.17071 0.54975 -0.00033 0.0
O265 O 0.18248 0.55268 0.03439 0.0
O266 O 0.75096 0.87889 0.29271 0.0
Cd267 Cd 0.72702 0.88504 0.31629 0.0
Cd268 Cd 0.70137 0.90086 0.28343 0.0
O269 O 0.72996 0.89263 0.26585 0.0
O270 O 0.7411 0.89476 0.34446 0.0
O271 O 0.72114 0.91698 0.32255 0.0
C272 C 0.73357 0.91446 0.33996 0.0
C273 C 0.68193 0.93235 0.27102 0.0
C274 C 0.74807 0.88372 0.27234 0.0
C275 C 0.68508 0.86046 0.30901 0.0
O276 O 0.68139 0.87496 0.29402 0.0
O277 O 0.70285 0.86106 0.32048 0.0
O278 O 0.68342 0.91457 0.25916 0.0
O279 O 0.69164 0.93256 0.29017 0.0
O280 O 0.3645 0.49611 0.52715 0.0
Cd281 Cd 0.35676 0.47053 0.54881 0.0
Cd282 Cd 0.33879 0.45167 0.51389 0.0
O283 O 0.34333 0.48276 0.50025 0.0
O284 O 0.3503 0.48305 0.57865 0.0
O285 O 0.32475 0.46764 0.55676 0.0
C286 C 0.32965 0.47816 0.57491 0.0
C287 C 0.3072 0.43111 0.50395 0.0
C288 C 0.35599 0.49793 0.50785 0.0
C289 C 0.3809 0.43151 0.53272 0.0
O290 O 0.36735 0.43297 0.51653 0.0
O291 O 0.37859 0.44394 0.54971 0.0
O292 O 0.32233 0.43621 0.48965 0.0
O293 O 0.30956 0.43819 0.5241 0.0
O294 O 0.24835 0.61954 0.70502 0.0
Cd295 Cd 0.22441 0.61041 0.68218 0.0
Cd296 Cd 0.2056 0.59093 0.7162 0.0
O297 O 0.23755 0.59368 0.72865 0.0
O298 O 0.23793 0.60232 0.65314 0.0
O299 O 0.22195 0.57799 0.67605 0.0
C300 C 0.23285 0.5819 0.65789 0.0
C301 C 0.18502 0.55983 0.72762 0.0
C302 C 0.25144 0.60858 0.72287 0.0
C303 C 0.18496 0.63327 0.69727 0.0
O304 O 0.18707 0.61997 0.71366 0.0
O305 O 0.19716 0.63096 0.68014 0.0
O306 O 0.19089 0.57519 0.74135 0.0
O307 O 0.19103 0.5618 0.70708 0.0
O308 O 0.62893 0.98712 0.96585 0.0
Cd309 Cd 0.6342 0.96596 0.9393 0.0
Cd310 Cd 0.64776 0.93669 0.96946 0.0
O311 O 0.64005 0.96246 0.99079 0.0
O312 O 0.64245 0.9839 0.91293 0.0
O313 O 0.66585 0.96115 0.93042 0.0
C314 C 0.66231 0.97582 0.91504 0.0
C315 C 0.67842 0.91486 0.97983 0.0
C316 C 0.63256 0.98167 0.98597 0.0
C317 C 0.60689 0.92523 0.94215 0.0
O318 O 0.62095 0.91961 0.95693 0.0
O319 O 0.60913 0.94354 0.93176 0.0
O320 O 0.65972 0.91386 0.99022 0.0
O321 O 0.67999 0.92844 0.96324 0.0
O322 O 0.87204 0.0061 0.45652 0.0
Cd323 Cd 0.86253 0.03057 0.43438 0.0
Cd324 Cd 0.84352 0.04838 0.46917 0.0
O325 O 0.84617 0.016 0.48052 0.0
O326 O 0.8538 0.01759 0.40531 0.0
O327 O 0.83001 0.03305 0.42913 0.0
C328 C 0.83348 0.02238 0.41075 0.0
C329 C 0.81271 0.06889 0.48145 0.0
C330 C 0.86109 0.00235 0.47425 0.0
C331 C 0.88561 0.06946 0.45013 0.0
O332 O 0.87262 0.06678 0.46668 0.0
O333 O 0.88295 0.05789 0.43262 0.0
O334 O 0.82821 0.06262 0.49486 0.0
O335 O 0.81438 0.06328 0.46078 0.0
C336 C 0.08993 0.20722 0.51161 0.0
C337 C 0.09855 0.18547 0.51119 0.0
C338 C 0.09908 0.22399 0.49812 0.0
C339 C 0.11722 0.21879 0.484 0.0
C340 C 0.12716 0.19741 0.485 0.0
C341 C 0.11769 0.18099 0.49861 0.0
C342 C 0.08827 0.24671 0.49777 0.0
C343 C 0.14676 0.19131 0.47042 0.0
C344 C 0.12395 0.24391 0.42676 0.0
C345 C 0.14303 0.25703 0.42967 0.0
C346 C 0.11438 0.23257 0.44478 0.0
C347 C 0.12415 0.23445 0.46618 0.0
C348 C 0.14224 0.24915 0.46958 0.0
C349 C 0.15151 0.26029 0.45123 0.0
C350 C 0.09487 0.21724 0.44054 0.0
C351 C 0.15287 0.25185 0.49221 0.0
H352 H 0.0752 0.21085 0.52142 0.0
H353 H 0.1246 0.16429 0.49843 0.0
H354 H 0.10102 0.26009 0.49731 0.0
H355 H 0.07797 0.24834 0.4825 0.0
H356 H 0.07733 0.24936 0.51248 0.0
H357 H 0.15389 0.17478 0.47481 0.0
H358 H 0.14138 0.19083 0.45273 0.0
H359 H 0.16007 0.20405 0.47182 0.0
H360 H 0.11717 0.24151 0.41019 0.0
H361 H 0.16615 0.27059 0.45366 0.0
H362 H 0.08148 0.22025 0.45293 0.0
H363 H 0.10031 0.19966 0.4424 0.0
H364 H 0.08782 0.21942 0.42356 0.0
H365 H 0.14001 0.25323 0.50542 0.0
H366 H 0.16382 0.26677 0.49294 0.0
H367 H 0.16313 0.23693 0.49597 0.0
C368 C 0.00108 0.8778 0.67601 0.0
C369 C 0.98849 0.8969 0.68065 0.0
C370 C 0.01327 0.86713 0.6928 0.0
C371 C 0.01285 0.87583 0.71473 0.0
C372 C -0.00117 0.89407 0.71988 0.0
C373 C 0.98677 0.90442 0.70273 0.0
C374 C 0.02782 0.8475 0.68671 0.0
C375 C 0.99776 0.90364 0.74312 0.0
C376 C 0.0408 0.83847 0.75717 0.0
C377 C 0.06277 0.84645 0.75635 0.0
C378 C 0.02385 0.84875 0.74478 0.0
C379 C 0.02908 0.8674 0.73134 0.0
C380 C 0.05083 0.87653 0.73183 0.0
C381 C 0.06744 0.86592 0.74433 0.0
C382 C 0.00079 0.83872 0.74488 0.0
C383 C 0.05699 0.8966 0.71792 0.0
H384 H 0.0023 0.87177 0.65902 0.0
H385 H 0.97695 0.91912 0.70647 0.0
H386 H 0.04562 0.85239 0.68793 0.0
H387 H 0.02509 0.83352 0.6985 0.0
H388 H 0.02459 0.84145 0.66951 0.0
H389 H 0.98341 0.91516 0.74521 0.0
H390 H 0.99648 0.89016 0.75573 0.0
H391 H 0.0133 0.91302 0.7466 0.0
H392 H 0.03703 0.8235 0.76656 0.0
H393 H 0.08432 0.87231 0.74382 0.0
H394 H 0.998 0.82964 0.72901 0.0
H395 H 0.98789 0.85191 0.74607 0.0
H396 H 0.99848 0.82681 0.75888 0.0
H397 H 0.05647 0.89209 0.7 0.0
H398 H 0.07393 0.90293 0.72187 0.0
H399 H 0.04482 0.91027 0.72056 0.0
C400 C 0.36438 0.75193 0.92845 0.0
C401 C 0.3455 0.73901 0.93303 0.0
C402 C 0.37415 0.76514 0.945 0.0
C403 C 0.36479 0.7654 0.96667 0.0
C404 C 0.34677 0.75111 0.97186 0.0
C405 C 0.3373 0.73804 0.95492 0.0
C406 C 0.39357 0.77995 0.93888 0.0
C407 C 0.33656 0.7507 0.99484 0.0
C408 C 0.40121 0.79581 0.00806 0.0
C409 C 0.39307 0.81765 0.00595 0.0
C410 C 0.39109 0.77808 0.99667 0.0
C411 C 0.37249 0.78239 0.98288 0.0
C412 C 0.36305 0.80403 0.98227 0.0
C413 C 0.37346 0.82142 0.99386 0.0
C414 C 0.40139 0.75516 0.99804 0.0
C415 C 0.34302 0.80923 0.96795 0.0
H416 H 0.37094 0.75258 0.91162 0.0
H417 H 0.32275 0.72799 0.95862 0.0
H418 H 0.3883 0.79767 0.93953 0.0
H419 H 0.40736 0.77781 0.951 0.0
H420 H 0.40004 0.77639 0.9219 0.0
H421 H 0.32548 0.73606 0.99722 0.0
H422 H 0.34967 0.75043 0.00786 0.0
H423 H 0.32655 0.76604 0.99736 0.0
H424 H 0.41623 0.7927 0.01759 0.0
H425 H 0.36695 0.83821 0.99235 0.0
H426 H 0.41095 0.75182 0.98257 0.0
H427 H 0.38834 0.74214 -0.00056 0.0
H428 H 0.41293 0.75364 0.01244 0.0
H429 H 0.34781 0.80826 0.9501 0.0
H430 H 0.33625 0.82615 0.97127 0.0
H431 H 0.32963 0.79683 0.9708 0.0
C432 C 0.50751 0.09174 0.20852 0.0
C433 C 0.50716 0.10017 0.18671 0.0
C434 C 0.49475 0.10168 0.22542 0.0
C435 C 0.48152 0.12054 0.22034 0.0
C436 C 0.48251 0.13011 0.19879 0.0
C437 C 0.49526 0.11975 0.1822 0.0
C438 C 0.4942 0.09106 0.24822 0.0
C439 C 0.46892 0.15045 0.1928 0.0
C440 C 0.4257 0.13057 0.24765 0.0
C441 C 0.4303 0.14897 0.26126 0.0
C442 C 0.4426 0.12028 0.23528 0.0
C443 C 0.4646 0.12873 0.23643 0.0
C444 C 0.46963 0.1464 0.25121 0.0
C445 C 0.45239 0.15629 0.26355 0.0
C446 C 0.43662 0.10122 0.21995 0.0
C447 C 0.4929 0.15579 0.25293 0.0
H448 H 0.51673 0.07662 0.21213 0.0
H449 H 0.49513 0.12649 0.16543 0.0
H450 H 0.49532 0.10391 0.26147 0.0
H451 H 0.47812 0.0822 0.25046 0.0
H452 H 0.50794 0.07887 0.25052 0.0
H453 H 0.47342 0.15722 0.17616 0.0
H454 H 0.45096 0.14605 0.19266 0.0
H455 H 0.47127 0.16375 0.20543 0.0
H456 H 0.40869 0.1247 0.246 0.0
H457 H 0.45606 0.1705 0.27408 0.0
H458 H 0.44821 0.08704 0.22247 0.0
H459 H 0.43827 0.10669 0.20236 0.0
H460 H 0.4193 0.09526 0.22263 0.0
H461 H 0.50537 0.14221 0.25425 0.0
H462 H 0.49476 0.16707 0.2675 0.0
H463 H 0.49678 0.16539 0.2376 0.0
C464 C 0.65634 0.23818 0.54536 0.0
C465 C 0.64694 0.23856 0.56679 0.0
C466 C 0.6473 0.25108 0.52808 0.0
C467 C 0.62841 0.26452 0.53238 0.0
C468 C 0.61772 0.26337 0.5534 0.0
C469 C 0.62716 0.25043 0.57039 0.0
C470 C 0.65903 0.25169 0.50583 0.0
C471 C 0.59731 0.27718 0.55852 0.0
C472 C 0.62179 0.32131 0.50605 0.0
C473 C 0.60405 0.31769 0.49133 0.0
C474 C 0.63076 0.30375 0.51853 0.0
C475 C 0.62166 0.28209 0.51633 0.0
C476 C 0.60475 0.27803 0.50042 0.0
C477 C 0.59615 0.29592 0.48802 0.0
C478 C 0.64908 0.30871 0.53508 0.0
C479 C 0.59473 0.25513 0.49752 0.0
H480 H 0.67156 0.22891 0.5424 0.0
H481 H 0.61967 0.25057 0.58683 0.0
H482 H 0.64684 0.25132 0.49194 0.0
H483 H 0.6686 0.26745 0.5044 0.0
H484 H 0.67079 0.23752 0.50385 0.0
H485 H 0.58947 0.27236 0.57459 0.0
H486 H 0.60203 0.29505 0.55945 0.0
H487 H 0.58477 0.27545 0.54506 0.0
H488 H 0.62811 0.33806 0.50849 0.0
H489 H 0.58244 0.29301 0.47664 0.0
H490 H 0.66307 0.2968 0.53295 0.0
H491 H 0.64261 0.30664 0.55228 0.0
H492 H 0.65565 0.32593 0.53332 0.0
H493 H 0.60793 0.2422 0.49694 0.0
H494 H 0.58453 0.25396 0.48212 0.0
H495 H 0.58389 0.25132 0.512 0.0
C496 C 0.92609 0.36786 0.75604 0.0
C497 C 0.93014 0.34837 0.74384 0.0
C498 C 0.94335 0.37858 0.76751 0.0
C499 C 0.96514 0.36954 0.76677 0.0
C500 C 0.96966 0.35087 0.7531 0.0
C501 C 0.95206 0.34049 0.74174 0.0
C502 C 0.93792 0.39867 0.78168 0.0
C503 C 0.99271 0.3409 0.75172 0.0
C504 C 0.0087 0.40657 0.79349 0.0
C505 C 0.0079 0.39904 0.81562 0.0
C506 C 0.99592 0.39621 0.77686 0.0
C507 C 0.98219 0.37792 0.78259 0.0
C508 C 0.98278 0.36917 0.80449 0.0
C509 C 0.99561 0.37987 0.82076 0.0
C510 C 0.9959 0.40585 0.75363 0.0
C511 C 0.96861 0.34945 0.81119 0.0
H512 H 0.90924 0.37419 0.75752 0.0
H513 H 0.95534 0.3255 0.7322 0.0
H514 H 0.93934 0.39416 0.79957 0.0
H515 H 0.94994 0.41233 0.77842 0.0
H516 H 0.9208 0.405 0.77859 0.0
H517 H 0.99431 0.32911 0.73753 0.0
H518 H 0.0055 0.35413 0.74995 0.0
H519 H 0.99635 0.33171 0.76735 0.0
H520 H 0.01825 0.42135 0.78939 0.0
H521 H 0.99515 0.37382 0.83778 0.0
H522 H 0.98028 0.41539 0.75098 0.0
H523 H 0.99643 0.39242 0.74093 0.0
H524 H 0.01022 0.41726 0.75087 0.0
H525 H 0.95076 0.35429 0.81086 0.0
H526 H 0.9727 0.34333 0.82818 0.0
H527 H 0.97083 0.33554 0.79922 0.0
C528 C 0.87465 0.74697 0.07253 0.0
C529 C 0.85658 0.76135 0.06918 0.0
C530 C 0.88345 0.7345 0.05489 0.0
C531 C 0.87377 0.73633 0.03345 0.0
C532 C 0.85672 0.75217 0.02957 0.0
C533 C 0.84836 0.76461 0.04754 0.0
C534 C 0.90197 0.71811 0.05963 0.0
C535 C 0.8461 0.75471 0.00692 0.0
C536 C 0.90603 0.70483 0.98935 0.0
C537 C 0.89625 0.68365 0.99106 0.0
C538 C 0.89789 0.72283 0.00188 0.0
C539 C 0.87951 0.7195 0.01626 0.0
C540 C 0.8684 0.69867 0.01648 0.0
C541 C 0.87697 0.68096 0.00393 0.0
C542 C 0.91006 0.74483 0.00106 0.0
C543 C 0.84845 0.69456 0.03128 0.0
H544 H 0.88123 0.74462 0.08919 0.0
H545 H 0.83438 0.77576 0.04487 0.0
H546 H 0.89536 0.70086 0.05862 0.0
H547 H 0.91538 0.71967 0.04701 0.0
H548 H 0.90933 0.72056 0.07644 0.0
H549 H 0.83639 0.77043 0.0056 0.0
H550 H 0.85886 0.75442 0.99355 0.0
H551 H 0.83462 0.74052 0.00396 0.0
H552 H 0.9209 0.70704 0.97932 0.0
H553 H 0.86917 0.6647 0.00507 0.0
H554 H 0.92058 0.74654 0.01617 0.0
H555 H 0.89817 0.75898 0.00093 0.0
H556 H 0.92102 0.74608 0.98618 0.0
H557 H 0.85384 0.69437 0.04898 0.0
H558 H 0.84019 0.67842 0.02754 0.0
H559 H 0.83606 0.70815 0.02938 0.0
C560 C 0.5684 0.63382 0.24565 0.0
C561 C 0.56337 0.65326 0.23375 0.0
C562 C 0.5522 0.62325 0.2587 0.0
C563 C 0.53053 0.6325 0.25998 0.0
C564 C 0.5248 0.65088 0.24636 0.0
C565 C 0.54134 0.66105 0.23329 0.0
C566 C 0.55889 0.60337 0.27263 0.0
C567 C 0.5018 0.66104 0.24707 0.0
C568 C 0.49035 0.59727 0.29364 0.0
C569 C 0.49419 0.60561 0.31515 0.0
C570 C 0.50089 0.6068 0.27504 0.0
C571 C 0.51544 0.6251 0.27814 0.0
C572 C 0.51785 0.63468 0.29958 0.0
C573 C 0.50725 0.62475 0.31784 0.0
C574 C 0.49774 0.59626 0.25243 0.0
C575 C 0.53292 0.65445 0.30355 0.0
H576 H 0.58535 0.62755 0.24578 0.0
H577 H 0.53733 0.67604 0.22402 0.0
H578 H 0.55985 0.60837 0.29041 0.0
H579 H 0.54626 0.58995 0.27129 0.0
H580 H 0.57535 0.59654 0.26759 0.0
H581 H 0.4987 0.672 0.23247 0.0
H582 H 0.48879 0.64793 0.24761 0.0
H583 H 0.5001 0.67122 0.26242 0.0
H584 H 0.48018 0.58249 0.29146 0.0
H585 H 0.51001 0.63144 0.33439 0.0
H586 H 0.51254 0.58593 0.2484 0.0
H587 H 0.49619 0.60915 0.23927 0.0
H588 H 0.48277 0.58537 0.25196 0.0
H589 H 0.55054 0.64935 0.30113 0.0
H590 H 0.53112 0.6613 0.32066 0.0
H591 H 0.52929 0.6679 0.2914 0.0
C592 C 0.25094 0.43271 0.13257 0.0
C593 C 0.26254 0.43856 0.15196 0.0
C594 C 0.23761 0.44831 0.12144 0.0
C595 C 0.23592 0.47029 0.1299 0.0
C596 C 0.24904 0.47679 0.14836 0.0
C597 C 0.26222 0.46081 0.15922 0.0
C598 C 0.22405 0.4408 0.10161 0.0
C599 C 0.24795 0.50015 0.15764 0.0
C600 C 0.20504 0.50986 0.09166 0.0
C601 C 0.1831 0.50738 0.09939 0.0
C602 C 0.22281 0.499 0.10229 0.0
C603 C 0.21845 0.48536 0.121 0.0
C604 C 0.19659 0.48415 0.12984 0.0
C605 C 0.17917 0.49522 0.11893 0.0
C606 C 0.24594 0.50095 0.09259 0.0
C607 C 0.19131 0.46992 0.14994 0.0
H608 H 0.25127 0.41561 0.12674 0.0
H609 H 0.27129 0.4655 0.17412 0.0
H610 H 0.20612 0.44051 0.10615 0.0
H611 H 0.22603 0.45265 0.08756 0.0
H612 H 0.22889 0.42388 0.09582 0.0
H613 H 0.26185 0.50357 0.16937 0.0
H614 H 0.2484 0.51266 0.14403 0.0
H615 H 0.232 0.5024 0.16672 0.0
H616 H 0.20825 0.51939 0.07664 0.0
H617 H 0.1623 0.49338 0.12511 0.0
H618 H 0.25022 0.48529 0.08373 0.0
H619 H 0.25848 0.50335 0.10596 0.0
H620 H 0.24725 0.51499 0.08058 0.0
H621 H 0.19354 0.45207 0.14563 0.0
H622 H 0.17395 0.47239 0.1559 0.0
H623 H 0.20291 0.47377 0.16379 0.0
C624 C 0.67616 0.99871 0.88336 0.0
C625 C 0.68082 0.98499 0.90167 0.0
C626 C 0.69308 0.01089 0.87289 0.0
C627 C 0.71517 0.00941 0.88104 0.0
C628 C 0.72026 0.9944 0.89852 0.0
C629 C 0.70297 0.98228 0.90862 0.0
C630 C 0.68701 0.02645 0.85404 0.0
C631 C 0.74363 0.99227 0.90754 0.0
C632 C 0.75702 0.03773 0.84331 0.0
C633 C 0.75672 0.0595 0.85189 0.0
C634 C 0.74478 0.02063 0.85355 0.0
C635 C 0.73209 0.02547 0.87281 0.0
C636 C 0.73327 0.04693 0.88258 0.0
C637 C 0.74554 0.06371 0.87195 0.0
C638 C 0.7441 0.99791 0.84277 0.0
C639 C 0.72023 0.05267 0.90333 0.0
H640 H 0.6591 0.00066 0.87776 0.0
H641 H 0.70668 0.97166 0.92277 0.0
H642 H 0.68896 0.04398 0.85961 0.0
H643 H 0.69834 0.02389 0.83967 0.0
H644 H 0.66957 0.02405 0.84832 0.0
H645 H 0.74554 0.97735 0.91834 0.0
H646 H 0.75593 0.99129 0.89377 0.0
H647 H 0.74771 0.00727 0.91755 0.0
H648 H 0.76575 0.03431 0.82786 0.0
H649 H 0.74547 0.08043 0.87882 0.0
H650 H 0.72798 0.99581 0.83397 0.0
H651 H 0.74526 0.98454 0.85549 0.0
H652 H 0.75777 0.99568 0.83048 0.0
H653 H 0.70217 0.05299 0.89936 0.0
H654 H 0.72498 0.06918 0.91023 0.0
H655 H 0.72283 0.03982 0.91637 0.0
C656 C 0.73822 0.95561 0.34443 0.0
C657 C 0.74138 0.93397 0.35275 0.0
C658 C 0.74966 0.97379 0.3537 0.0
C659 C 0.76448 0.97012 0.37164 0.0
C660 C 0.76618 0.94864 0.3813 0.0
C661 C 0.7546 0.93081 0.37172 0.0
C662 C 0.74714 0.9965 0.34318 0.0
C663 C 0.78159 0.9441 0.4007 0.0
C664 C 0.81868 0.00111 0.37834 0.0
C665 C 0.81462 0.01335 0.3978 0.0
C666 C 0.80184 0.98825 0.36858 0.0
C667 C 0.78046 0.98766 0.37856 0.0
C668 C 0.7757 0.00157 0.39698 0.0
C669 C 0.79289 0.0143 0.40642 0.0
C670 C 0.80749 0.97388 0.34869 0.0
C671 C 0.75301 0.00167 0.40783 0.0
H672 H 0.7279 0.95819 0.32984 0.0
H673 H 0.75687 0.91418 0.3784 0.0
H674 H 0.74635 0.00972 0.35609 0.0
H675 H 0.76187 -3e-05 0.33255 0.0
H676 H 0.73199 0.99755 0.33261 0.0
H677 H 0.77928 0.92709 0.40765 0.0
H678 H 0.79915 0.9458 0.39515 0.0
H679 H 0.77879 0.95643 0.41419 0.0
H680 H 0.83536 0.00053 0.37143 0.0
H681 H 0.78956 0.02389 0.42136 0.0
H682 H 0.79463 0.97568 0.33554 0.0
H683 H 0.80777 0.9561 0.35382 0.0
H684 H 0.82399 0.97814 0.34145 0.0
H685 H 0.7396 0.0016 0.39512 0.0
H686 H 0.75073 0.01637 0.41886 0.0
H687 H 0.75107 0.98638 0.41807 0.0
C688 C 0.23944 0.54123 0.65156 0.0
C689 C 0.24131 0.56334 0.6441 0.0
C690 C 0.25077 0.52389 0.64068 0.0
C691 C 0.26422 0.52886 0.62196 0.0
C692 C 0.26486 0.55088 0.61345 0.0
C693 C 0.2534 0.56785 0.62464 0.0
C694 C 0.24948 0.50059 0.65007 0.0
C695 C 0.27882 0.5568 0.59336 0.0
C696 C 0.31764 0.49828 0.60917 0.0
C697 C 0.31193 0.4869 0.5896 0.0
C698 C 0.30174 0.51077 0.62083 0.0
C699 C 0.27963 0.5119 0.61268 0.0
C700 C 0.27334 0.49894 0.59402 0.0
C701 C 0.2896 0.48654 0.58267 0.0
C702 C 0.30906 0.52412 0.64088 0.0
C703 C 0.24986 0.49949 0.58502 0.0
H704 H 0.23002 0.53759 0.66654 0.0
H705 H 0.25473 0.58485 0.61866 0.0
H706 H 0.24736 0.48816 0.63655 0.0
H707 H 0.26529 0.49662 0.6588 0.0
H708 H 0.23555 0.49875 0.66213 0.0
H709 H 0.27593 0.5742 0.58768 0.0
H710 H 0.29675 0.55491 0.59751 0.0
H711 H 0.27515 0.54533 0.57934 0.0
H712 H 0.33482 0.49841 0.61476 0.0
H713 H 0.28503 0.47765 0.56762 0.0
H714 H 0.29733 0.52163 0.65495 0.0
H715 H 0.30894 0.54213 0.63667 0.0
H716 H 0.32609 0.51953 0.64649 0.0
H717 H 0.23752 0.49849 0.59876 0.0
H718 H 0.24671 0.48566 0.57312 0.0
H719 H 0.24706 0.51551 0.5762 0.0
C720 C 0.2797 0.4011 0.5129 0.0
C721 C 0.28891 0.41605 0.49748 0.0
C722 C 0.26583 0.38362 0.50576 0.0
C723 C 0.26095 0.38138 0.48277 0.0
C724 C 0.26861 0.39769 0.46752 0.0
C725 C 0.28267 0.4147 0.47505 0.0
C726 C 0.25796 0.3666 0.52252 0.0
C727 C 0.26342 0.39623 0.44293 0.0
C728 C 0.25648 0.32623 0.4531 0.0
C729 C 0.23381 0.32563 0.44764 0.0
C730 C 0.26518 0.34338 0.46629 0.0
C731 C 0.25089 0.36056 0.47389 0.0
C732 C 0.22769 0.35913 0.46987 0.0
C733 C 0.21936 0.34152 0.45685 0.0
C734 C 0.28998 0.34399 0.47059 0.0
C735 C 0.21192 0.37708 0.47773 0.0
H736 H 0.28454 0.40212 0.53028 0.0
H737 H 0.28956 0.42645 0.46315 0.0
H738 H 0.24045 0.36169 0.51924 0.0
H739 H 0.26837 0.35138 0.52109 0.0
H740 H 0.25927 0.37294 0.53986 0.0
H741 H 0.26823 0.41163 0.43385 0.0
H742 H 0.27261 0.38198 0.43553 0.0
H743 H 0.24538 0.39321 0.44029 0.0
H744 H 0.26764 0.31377 0.44624 0.0
H745 H 0.20179 0.34108 0.45266 0.0
H746 H 0.29338 0.3476 0.4884 0.0
H747 H 0.29763 0.35754 0.46059 0.0
H748 H 0.29824 0.32804 0.46609 0.0
H749 H 0.21599 0.38239 0.49496 0.0
H750 H 0.19429 0.37145 0.47719 0.0
H751 H 0.21363 0.3919 0.46679 0.0
C752 C 0.90004 0.97179 0.71241 0.0
C753 C 0.91547 0.98648 0.70282 0.0
C754 C 0.88325 0.97978 0.7267 0.0
C755 C 0.88223 0.00286 0.73161 0.0
C756 C 0.89902 0.01731 0.72347 0.0
C757 C 0.91529 0.00897 0.70901 0.0
C758 C 0.86569 0.96386 0.73505 0.0
C759 C 0.89885 0.04196 0.72865 0.0
C760 C 0.82868 0.0351 0.73737 0.0
C761 C 0.82881 0.04053 0.76005 0.0
C762 C 0.845 0.02113 0.72828 0.0
C763 C 0.86212 0.01274 0.74217 0.0
C764 C 0.86142 0.01685 0.76541 0.0
C765 C 0.84459 0.03063 0.77415 0.0
C766 C 0.84483 0.0168 0.70347 0.0
C767 C 0.87936 0.00821 0.78075 0.0
H768 H 0.90017 0.95436 0.70764 0.0
H769 H 0.92744 0.02028 0.70185 0.0
H770 H 0.8615 0.96731 0.75273 0.0
H771 H 0.85024 0.9661 0.72514 0.0
H772 H 0.87109 0.94621 0.73349 0.0
H773 H 0.91454 0.0503 0.72343 0.0
H774 H 0.88475 0.05004 0.71981 0.0
H775 H 0.89641 0.04476 0.74676 0.0
H776 H 0.81628 0.0425 0.7265 0.0
H777 H 0.84469 0.03483 0.79172 0.0
H778 H 0.84752 0.99884 0.70001 0.0
H779 H 0.85864 0.02616 0.69549 0.0
H780 H 0.82892 0.02204 0.69559 0.0
H781 H 0.88377 0.99073 0.7766 0.0
H782 H 0.87421 0.00905 0.79851 0.0
H783 H 0.89462 0.01844 0.77863 0.0
C784 C 0.23407 0.66024 0.95655 0.0
C785 C 0.25677 0.66114 0.95125 0.0
C786 C 0.22561 0.64337 0.97025 0.0
C787 C 0.24018 0.62676 0.97855 0.0
C788 C 0.26337 0.62841 0.97447 0.0
C789 C 0.27146 0.64576 0.96092 0.0
C790 C 0.20082 0.64252 0.97456 0.0
C791 C 0.2794 0.61102 0.98299 0.0
C792 C 0.21213 0.58841 0.0202 0.0
C793 C 0.20296 0.57241 0.00584 0.0
C794 C 0.22576 0.60554 0.01185 0.0
C795 C 0.23046 0.60638 0.98874 0.0
C796 C 0.22282 0.5891 0.9746 0.0
C797 C 0.20901 0.57243 0.9833 0.0
C798 C 0.2336 0.62364 0.02745 0.0
C799 C 0.2278 0.58911 0.94992 0.0
H800 H 0.22274 0.67231 0.94931 0.0
H801 H 0.28904 0.64644 0.95681 0.0
H802 H 0.19345 0.62826 0.96537 0.0
H803 H 0.19746 0.63988 0.99255 0.0
H804 H 0.19224 0.65802 0.96915 0.0
H805 H 0.29698 0.61674 0.98192 0.0
H806 H 0.2756 0.60658 0.00053 0.0
H807 H 0.27767 0.59563 0.97288 0.0
H808 H 0.2075 0.58841 0.03766 0.0
H809 H 0.20219 0.55988 0.97223 0.0
H810 H 0.22324 0.63875 0.02495 0.0
H811 H 0.25113 0.62828 0.02389 0.0
H812 H 0.23223 0.6185 0.04519 0.0
H813 H 0.21831 0.60272 0.94173 0.0
H814 H 0.22316 0.5731 0.94187 0.0
H815 H 0.24576 0.59226 0.94693 0.0
C816 C 0.5835 0.98939 0.21403 0.0
C817 C 0.58516 0.01168 0.20744 0.0
C818 C 0.59927 0.97993 0.22837 0.0
C819 C 0.61754 0.99295 0.23569 0.0
C820 C 0.61844 0.01594 0.2303 0.0
C821 C 0.602 0.02515 0.21635 0.0
C822 C 0.5973 0.95551 0.23418 0.0
C823 C 0.63772 0.03032 0.23759 0.0
C824 C 0.65451 0.96303 0.27741 0.0
C825 C 0.66855 0.95125 0.26294 0.0
C826 C 0.63853 0.97798 0.26897 0.0
C827 C 0.63708 0.98144 0.24566 0.0
C828 C 0.65264 0.97101 0.23129 0.0
C829 C 0.66795 0.95578 0.24009 0.0
C830 C 0.62213 0.98859 0.2848 0.0
C831 C 0.6521 0.97466 0.20638 0.0
H832 H 0.57031 0.97907 0.20723 0.0
H833 H 0.6033 0.04239 0.21108 0.0
H834 H 0.61001 0.94589 0.2248 0.0
H835 H 0.60043 0.95284 0.25221 0.0
H836 H 0.5806 0.9487 0.22999 0.0
H837 H 0.63386 0.04835 0.2359 0.0
H838 H 0.64237 0.02679 0.25512 0.0
H839 H 0.65244 0.02651 0.22706 0.0
H840 H 0.65495 0.95943 0.29511 0.0
H841 H 0.67903 0.94682 0.22895 0.0
H842 H 0.60594 0.97973 0.2836 0.0
H843 H 0.61912 0.00628 0.28036 0.0
H844 H 0.62795 0.98771 0.30235 0.0
H845 H 0.63721 0.96633 0.19925 0.0
H846 H 0.66715 0.96785 0.19801 0.0
H847 H 0.65081 0.9927 0.20249 0.0
C848 C 0.72358 0.15223 0.53727 0.0
C849 C 0.73766 0.16781 0.54751 0.0
C850 C 0.73232 0.13586 0.52295 0.0
C851 C 0.75552 0.13542 0.51865 0.0
C852 C 0.76939 0.15233 0.52749 0.0
C853 C 0.76032 0.16818 0.54199 0.0
C854 C 0.71701 0.1181 0.51388 0.0
C855 C 0.79415 0.15277 0.52296 0.0
C856 C 0.78879 0.08253 0.51225 0.0
C857 C 0.79455 0.08324 0.48966 0.0
C858 C 0.77447 0.09846 0.52148 0.0
C859 C 0.76606 0.11578 0.50784 0.0
C860 C 0.77058 0.1157 0.48467 0.0
C861 C 0.7847 0.09924 0.47577 0.0
C862 C 0.7697 0.09764 0.5462 0.0
C863 C 0.76196 0.1339 0.46961 0.0
H864 H 0.70603 0.15194 0.54154 0.0
H865 H 0.77116 0.18043 0.54967 0.0
H866 H 0.72089 0.11446 0.49617 0.0
H867 H 0.71949 0.10245 0.52343 0.0
H868 H 0.69921 0.123 0.51525 0.0
H869 H 0.80202 0.16851 0.52872 0.0
H870 H 0.80228 0.13864 0.53173 0.0
H871 H 0.79748 0.15076 0.50489 0.0
H872 H 0.79617 0.06996 0.52294 0.0
H873 H 0.78916 0.0998 0.45827 0.0
H874 H 0.75164 0.09993 0.54939 0.0
H875 H 0.77866 0.11143 0.55466 0.0
H876 H 0.77509 0.08164 0.55382 0.0
H877 H 0.7443 0.13781 0.47341 0.0
H878 H 0.76338 0.12929 0.45173 0.0
H879 H 0.77179 0.14931 0.47243 0.0
C880 C 0.15372 0.533 0.72166 0.0
C881 C 0.17062 0.54152 0.73534 0.0
C882 C 0.13699 0.51922 0.73058 0.0
C883 C 0.13757 0.51367 0.75353 0.0
C884 C 0.15587 0.5205 0.76676 0.0
C885 C 0.17202 0.53457 0.75755 0.0
C886 C 0.11778 0.51229 0.71594 0.0
C887 C 0.15744 0.51454 0.79117 0.0
C888 C 0.08659 0.51097 0.78999 0.0
C889 C 0.08545 0.4882 0.79491 0.0
C890 C 0.1023 0.51919 0.77486 0.0
C891 C 0.11762 0.5043 0.76482 0.0
C892 C 0.11553 0.48106 0.76853 0.0
C893 C 0.09924 0.47322 0.78347 0.0
C894 C 0.10356 0.54405 0.77099 0.0
C895 C 0.13155 0.46468 0.75819 0.0
H896 H 0.15264 0.53841 0.70445 0.0
H897 H 0.18529 0.54093 0.76804 0.0
H898 H 0.11269 0.49487 0.71947 0.0
H899 H 0.10324 0.52317 0.71945 0.0
H900 H 0.12196 0.51381 0.69797 0.0
H901 H 0.17413 0.51839 0.7982 0.0
H902 H 0.14478 0.52412 0.80067 0.0
H903 H 0.15394 0.49657 0.79372 0.0
H904 H 0.07569 0.52251 0.79864 0.0
H905 H 0.09835 0.45559 0.78733 0.0
H906 H 0.10503 0.54774 0.75293 0.0
H907 H 0.11862 0.55083 0.77932 0.0
H908 H 0.08874 0.55291 0.77766 0.0
H909 H 0.13502 0.46903 0.74056 0.0
H910 H 0.12509 0.44734 0.75896 0.0
H911 H 0.14761 0.46529 0.76734 0.0
C912 C 0.69333 0.88243 0.00063 0.0
C913 C 0.69745 0.90141 0.98768 0.0
C914 C 0.71071 0.87116 0.01132 0.0
C915 C 0.73277 0.87925 0.00925 0.0
C916 C 0.73727 0.89748 0.99491 0.0
C917 C 0.71948 0.90834 0.98415 0.0
C918 C 0.70517 0.85157 0.02616 0.0
C919 C 0.76057 0.9065 0.99218 0.0
C920 C 0.76318 0.86831 0.06299 0.0
C921 C 0.77415 0.84826 0.05824 0.0
C922 C 0.75128 0.8797 0.04649 0.0
C923 C 0.75006 0.87063 0.02475 0.0
C924 C 0.76257 0.85133 0.01939 0.0
C925 C 0.77462 0.84037 0.03626 0.0
C926 C 0.7385 0.90045 0.05287 0.0
C927 C 0.76181 0.84124 0.99638 0.0
H928 H 0.67633 0.8768 0.00308 0.0
H929 H 0.7227 0.92298 0.97407 0.0
H930 H 0.71651 0.83739 0.02268 0.0
H931 H 0.7075 0.85638 0.04386 0.0
H932 H 0.6877 0.84584 0.02394 0.0
H933 H 0.76198 0.91752 0.97737 0.0
H934 H 0.7651 0.91632 0.00717 0.0
H935 H 0.77283 0.89274 0.99061 0.0
H936 H 0.76311 0.87465 0.07991 0.0
H937 H 0.78317 0.82489 0.03253 0.0
H938 H 0.72041 0.89663 0.05332 0.0
H939 H 0.74109 0.91379 0.04034 0.0
H940 H 0.7435 0.90689 0.06949 0.0
H941 H 0.74585 0.83216 0.99423 0.0
H942 H 0.77569 0.82928 0.99366 0.0
H943 H 0.76255 0.85437 0.98337 0.0
C944 C 0.34673 0.47037 0.23269 0.0
C945 C 0.32845 0.46374 0.24561 0.0
C946 C 0.36335 0.48416 0.24175 0.0
C947 C 0.36124 0.49176 0.264 0.0
C948 C 0.34163 0.4869 0.27621 0.0
C949 C 0.32562 0.47266 0.26697 0.0
C950 C 0.38406 0.4888 0.22825 0.0
C951 C 0.3384 0.49517 0.29976 0.0
C952 C 0.41036 0.49547 0.30302 0.0
C953 C 0.41319 0.51852 0.30508 0.0
C954 C 0.39455 0.48659 0.28839 0.0
C955 C 0.38075 0.50119 0.27598 0.0
C956 C 0.38426 0.52451 0.27718 0.0
C957 C 0.40071 0.53294 0.29161 0.0
C958 C 0.39179 0.46158 0.2872 0.0
C959 C 0.36971 0.54059 0.26445 0.0
H960 H 0.34894 0.4634 0.21616 0.0
H961 H 0.31132 0.46771 0.27686 0.0
H962 H 0.38958 0.50631 0.23039 0.0
H963 H 0.39775 0.47787 0.23419 0.0
H964 H 0.3814 0.48551 0.21022 0.0
H965 H 0.32094 0.49301 0.30553 0.0
H966 H 0.34949 0.48574 0.31116 0.0
H967 H 0.34291 0.51305 0.30106 0.0
H968 H 0.42022 0.48434 0.3133 0.0
H969 H 0.40287 0.5508 0.29333 0.0
H970 H 0.39126 0.45598 0.26959 0.0
H971 H 0.37578 0.45673 0.29509 0.0
H972 H 0.40548 0.45261 0.29585 0.0
H973 H 0.3672 0.53487 0.24706 0.0
H974 H 0.37687 0.55767 0.26418 0.0
H975 H 0.35306 0.54138 0.27247 0.0
C976 C 0.52534 0.2787 0.41091 0.0
C977 C 0.52426 0.30089 0.4037 0.0
C978 C 0.51404 0.26182 0.3992 0.0
C979 C 0.50179 0.26739 0.37979 0.0
C980 C 0.50258 0.28944 0.37138 0.0
C981 C 0.51361 0.30594 0.38358 0.0
C982 C 0.51366 0.23852 0.40865 0.0
C983 C 0.49016 0.29607 0.35051 0.0
C984 C 0.47268 0.22773 0.34007 0.0
C985 C 0.45046 0.23113 0.34636 0.0
C986 C 0.4901 0.2381 0.35187 0.0
C987 C 0.48499 0.25179 0.37043 0.0
C988 C 0.46268 0.25345 0.37795 0.0
C989 C 0.44569 0.24331 0.36567 0.0
C990 C 0.51365 0.23588 0.34337 0.0
C991 C 0.45648 0.26747 0.39794 0.0
H992 H 0.53363 0.2748 0.42648 0.0
H993 H 0.51309 0.32308 0.37784 0.0
H994 H 0.4977 0.23585 0.41759 0.0
H995 H 0.51471 0.22588 0.3952 0.0
H996 H 0.52753 0.23576 0.42059 0.0
H997 H 0.49499 0.31294 0.34459 0.0
H998 H 0.49329 0.28392 0.33694 0.0
H999 H 0.47198 0.2961 0.35392 0.0
H1000 H 0.47635 0.21826 0.32512 0.0
H1001 H 0.42849 0.24562 0.37073 0.0
H1002 H 0.52562 0.23429 0.35736 0.0
H1003 H 0.51815 0.25109 0.33386 0.0
H1004 H 0.51553 0.22126 0.33216 0.0
H1005 H 0.46768 0.26379 0.41217 0.0
H1006 H 0.43899 0.26463 0.40329 0.0
H1007 H 0.45844 0.28539 0.39375 0.0
C1008 C 0.0221 0.21488 0.60096 0.0
C1009 C 0.00812 0.20553 0.58477 0.0
C1010 C 0.0133 0.22856 0.61785 0.0
C1011 C 0.99014 0.2331 0.61819 0.0
C1012 C 0.97643 0.22531 0.60065 0.0
C1013 C 0.98556 0.21143 0.58428 0.0
C1014 C 0.02845 0.23656 0.63624 0.0
C1015 C 0.95172 0.23013 0.60008 0.0
C1016 C 0.95618 0.23631 0.6709 0.0
C1017 C 0.95046 0.25892 0.67152 0.0
C1018 C 0.9707 0.22805 0.65464 0.0
C1019 C 0.97938 0.24272 0.63832 0.0
C1020 C 0.9749 0.26586 0.63978 0.0
C1021 C 0.96054 0.27375 0.65655 0.0
C1022 C 0.97541 0.20331 0.65399 0.0
C1023 C 0.98382 0.28201 0.6227 0.0
H1024 H 0.03957 0.21032 0.60134 0.0
H1025 H 0.9748 0.20445 0.57155 0.0
H1026 H 0.02454 0.25402 0.6409 0.0
H1027 H 0.02585 0.22608 0.65126 0.0
H1028 H 0.04629 0.23548 0.6314 0.0
H1029 H 0.94407 0.22541 0.5839 0.0
H1030 H 0.94328 0.22062 0.61351 0.0
H1031 H 0.94854 0.24809 0.60311 0.0
H1032 H 0.94863 0.22487 0.68269 0.0
H1033 H 0.95612 0.29127 0.65703 0.0
H1034 H 0.9935 0.20021 0.65182 0.0
H1035 H 0.96668 0.19575 0.63955 0.0
H1036 H 0.96974 0.19471 0.66938 0.0
H1037 H 0.00148 0.27831 0.61869 0.0
H1038 H 0.98251 0.29956 0.62847 0.0
H1039 H 0.97411 0.28031 0.60706 0.0
C1040 C 0.0041 0.70264 0.90937 0.0
C1041 C 0.98115 0.6986 0.90992 0.0
C1042 C 0.01334 0.71716 0.89367 0.0
C1043 C -0.00068 0.72745 0.87771 0.0
C1044 C 0.97593 0.7245 0.87904 0.0
C1045 C 0.96705 0.7102 0.89538 0.0
C1046 C 0.03833 0.72025 0.89322 0.0
C1047 C 0.96047 0.73503 0.86226 0.0
C1048 C 0.03025 0.76997 0.84273 0.0
C1049 C 0.0392 0.75611 0.8262 0.0
C1050 C 0.01567 0.76133 0.85892 0.0
C1051 C 0.00972 0.73849 0.85814 0.0
C1052 C 0.01706 0.72509 0.84014 0.0
C1053 C 0.03195 0.734 0.82456 0.0
C1054 C 0.00831 0.77612 0.87788 0.0
C1055 C 0.01068 0.7008 0.83833 0.0
H1056 H 0.01496 0.69384 0.92084 0.0
H1057 H 0.94927 0.70698 0.89581 0.0
H1058 H 0.04537 0.71162 0.87846 0.0
H1059 H 0.04261 0.73819 0.89178 0.0
H1060 H 0.04647 0.71342 0.90839 0.0
H1061 H 0.94285 0.73464 0.86794 0.0
H1062 H 0.96529 0.75256 0.85889 0.0
H1063 H 0.96164 0.72578 0.84628 0.0
H1064 H 0.0359 0.78709 0.844 0.0
H1065 H 0.03867 0.72338 0.81157 0.0
H1066 H 0.01839 0.77221 0.89289 0.0
H1067 H 0.99058 0.77309 0.88214 0.0
H1068 H 0.01054 0.79406 0.87386 0.0
H1069 H 0.01964 0.6911 0.85129 0.0
H1070 H 0.01496 0.69371 0.82177 0.0
H1071 H 0.99256 0.69861 0.84123 0.0
C1072 C 0.54377 0.76635 0.15068 0.0
C1073 C 0.5474 0.74341 0.15288 0.0
C1074 C 0.5291 0.77469 0.1346 0.0
C1075 C 0.51821 0.75971 0.11997 0.0
C1076 C 0.52086 0.73642 0.12292 0.0
C1077 C 0.53534 0.72849 0.13958 0.0
C1078 C 0.52636 0.79963 0.13242 0.0
C1079 C 0.50969 0.71996 0.10755 0.0
C1080 C 0.47442 0.78858 0.08488 0.0
C1081 C 0.48754 0.79629 0.06716 0.0
C1082 C 0.4837 0.77505 0.10161 0.0
C1083 C 0.50643 0.76887 0.10021 0.0
C1084 C 0.51903 0.77486 0.08117 0.0
C1085 C 0.50951 0.78874 0.06501 0.0
C1086 C 0.46974 0.76912 0.12167 0.0
C1087 C 0.54317 0.76815 0.07874 0.0
H1088 H 0.55294 0.77786 0.16117 0.0
H1089 H 0.53825 0.71074 0.14126 0.0
H1090 H 0.53446 0.80542 0.11683 0.0
H1091 H 0.50845 0.8041 0.13139 0.0
H1092 H 0.53391 0.80877 0.14665 0.0
H1093 H 0.5102 0.70274 0.11434 0.0
H1094 H 0.49209 0.72468 0.1045 0.0
H1095 H 0.51836 0.72004 0.09122 0.0
H1096 H 0.45741 0.79443 0.08657 0.0
H1097 H 0.51958 0.79446 0.05113 0.0
H1098 H 0.47448 0.78004 0.13582 0.0
H1099 H 0.47274 0.75164 0.12689 0.0
H1100 H 0.45166 0.77139 0.11839 0.0
H1101 H 0.55348 0.77792 0.09058 0.0
H1102 H 0.54953 0.77118 0.06161 0.0
H1103 H 0.5454 0.75026 0.08282 0.0
C1104 C 0.21932 0.33329 0.33248 0.0
C1105 C 0.19798 0.3259 0.33842 0.0
C1106 C 0.22272 0.34621 0.31339 0.0
C1107 C 0.20425 0.35237 0.30006 0.0
C1108 C 0.18249 0.34589 0.30647 0.0
C1109 C 0.17962 0.33243 0.32547 0.0
C1110 C 0.24629 0.35259 0.30711 0.0
C1111 C 0.16233 0.35257 0.29301 0.0
C1112 C 0.22388 0.39795 0.26193 0.0
C1113 C 0.23156 0.38531 0.24382 0.0
C1114 C 0.2121 0.38785 0.27941 0.0
C1115 C 0.20844 0.36455 0.27891 0.0
C1116 C 0.21374 0.35232 0.25944 0.0
C1117 C 0.22507 0.36293 0.24198 0.0
C1118 C 0.20577 0.40165 0.29946 0.0
C1119 C 0.21004 0.32746 0.25815 0.0
H1120 H 0.23361 0.32832 0.34234 0.0
H1121 H 0.16305 0.32687 0.33004 0.0
H1122 H 0.25045 0.3457 0.29045 0.0
H1123 H 0.24782 0.37098 0.30606 0.0
H1124 H 0.25878 0.34638 0.31928 0.0
H1125 H 0.1467 0.35082 0.30278 0.0
H1126 H 0.16376 0.37004 0.28711 0.0
H1127 H 0.16104 0.34171 0.27811 0.0
H1128 H 0.22842 0.4154 0.26321 0.0
H1129 H 0.2307 0.35309 0.22791 0.0
H1130 H 0.21841 0.39929 0.31275 0.0
H1131 H 0.18941 0.39632 0.30623 0.0
H1132 H 0.205 0.41969 0.29534 0.0
H1133 H 0.22257 0.31887 0.26871 0.0
H1134 H 0.21169 0.32111 0.24083 0.0
H1135 H 0.19331 0.32297 0.26456 0.0
C1136 C 0.89097 0.979 0.49096 0.0
C1137 C 0.86839 0.98487 0.48995 0.0
C1138 C 0.89962 0.96813 0.50975 0.0
C1139 C 0.8852 0.96257 0.52759 0.0
C1140 C 0.86196 0.96574 0.52523 0.0
C1141 C 0.85383 0.97721 0.50655 0.0
C1142 C 0.92453 0.9651 0.51159 0.0
C1143 C 0.84592 0.95908 0.54342 0.0
C1144 C 0.91264 0.93373 0.57699 0.0
C1145 C 0.91735 0.95203 0.59078 0.0
C1146 C 0.90108 0.93658 0.55679 0.0
C1147 C 0.89477 0.95829 0.55003 0.0
C1148 C 0.89887 0.97667 0.56427 0.0
C1149 C 0.90982 0.97325 0.58455 0.0
C1150 C 0.89638 0.91649 0.54242 0.0
C1151 C 0.89263 0.00019 0.55766 0.0
H1152 H 0.90228 0.98481 0.47812 0.0
H1153 H 0.83627 0.98139 0.50562 0.0
H1154 H 0.93133 0.9776 0.52341 0.0
H1155 H 0.92863 0.94835 0.51822 0.0
H1156 H 0.93301 0.96727 0.49527 0.0
H1157 H 0.82856 0.95795 0.53712 0.0
H1158 H 0.85072 0.9428 0.55079 0.0
H1159 H 0.84635 0.97171 0.55692 0.0
H1160 H 0.91829 0.91725 0.58178 0.0
H1161 H 0.91341 0.9875 0.59506 0.0
H1162 H 0.90881 0.91565 0.52877 0.0
H1163 H 0.87962 0.91764 0.53469 0.0
H1164 H 0.89743 0.90074 0.55212 0.0
H1165 H 0.90131 0.00482 0.542 0.0
H1166 H 0.89703 0.0126 0.57068 0.0
H1167 H 0.87446 0.0013 0.55448 0.0
C1168 C 0.27425 0.63849 0.74025 0.0
C1169 C 0.26825 0.61594 0.73926 0.0
C1170 C 0.28412 0.64736 0.75949 0.0
C1171 C 0.28853 0.63316 0.77783 0.0
C1172 C 0.28535 0.6099 0.77562 0.0
C1173 C 0.27492 0.60156 0.75644 0.0
C1174 C 0.28722 0.67228 0.76113 0.0
C1175 C 0.29079 0.59409 0.79441 0.0
C1176 C 0.31437 0.66081 0.82877 0.0
C1177 C 0.29528 0.66568 0.84139 0.0
C1178 C 0.31272 0.64922 0.80845 0.0
C1179 C 0.29144 0.64304 0.80036 0.0
C1180 C 0.27223 0.6474 0.81338 0.0
C1181 C 0.27444 0.65838 0.83381 0.0
C1182 C 0.33363 0.64427 0.79539 0.0
C1183 C 0.24914 0.64131 0.80533 0.0
H1184 H 0.26923 0.64967 0.72696 0.0
H1185 H 0.27065 0.58402 0.75555 0.0
H1186 H 0.27396 0.67936 0.77192 0.0
H1187 H 0.30348 0.67638 0.76886 0.0
H1188 H 0.28626 0.68049 0.74456 0.0
H1189 H 0.29219 0.57662 0.78844 0.0
H1190 H 0.30662 0.5989 0.80268 0.0
H1191 H 0.27736 0.5948 0.80711 0.0
H1192 H 0.33056 0.66631 0.8346 0.0
H1193 H 0.25959 0.6621 0.8434 0.0
H1194 H 0.33529 0.65645 0.78159 0.0
H1195 H 0.33293 0.62737 0.7879 0.0
H1196 H 0.34876 0.64548 0.80599 0.0
H1197 H 0.24562 0.64984 0.7893 0.0
H1198 H 0.23596 0.64599 0.81746 0.0
H1199 H 0.24806 0.62311 0.8023 0.0
C1200 C 0.60465 0.04654 0.09735 0.0
C1201 C 0.5827 0.05436 0.09619 0.0
C1202 C 0.61588 0.03961 0.07805 0.0
C1203 C 0.60444 0.03958 0.05741 0.0
C1204 C 0.58306 0.04946 0.05589 0.0
C1205 C 0.57258 0.05712 0.07533 0.0
C1206 C 0.63912 0.03025 0.08015 0.0
C1207 C 0.57004 0.04936 0.03438 0.0
C1208 C 0.63119 0.01957 0.0034 0.0
C1209 C 0.62613 0.99679 0.00415 0.0
C1210 C 0.62497 0.03377 0.021 0.0
C1211 C 0.6125 0.02504 0.03905 0.0
C1212 C 0.60713 0.00204 0.03958 0.0
C1213 C 0.61443 0.98815 0.02235 0.0
C1214 C 0.63172 0.05799 0.02027 0.0
C1215 C 0.59332 0.99208 0.05816 0.0
H1216 H 0.61254 0.0446 0.11349 0.0
H1217 H 0.55554 0.06306 0.07443 0.0
H1218 H 0.63831 0.01178 0.0806 0.0
H1219 H 0.6495 0.03508 0.06562 0.0
H1220 H 0.64742 0.03604 0.09566 0.0
H1221 H 0.55544 0.06074 0.03508 0.0
H1222 H 0.5807 0.05426 0.02012 0.0
H1223 H 0.5639 0.03221 0.0311 0.0
H1224 H 0.64038 0.02615 0.98929 0.0
H1225 H 0.61038 0.97053 0.02275 0.0
H1226 H 0.63865 0.06327 0.03658 0.0
H1227 H 0.61691 0.0685 0.0169 0.0
H1228 H 0.6443 0.06128 0.00708 0.0
H1229 H 0.60231 0.99364 0.07423 0.0
H1230 H 0.58955 0.97417 0.05533 0.0
H1231 H 0.57734 0.00125 0.05982 0.0
C1232 C 0.72079 0.15944 0.66483 0.0
C1233 C 0.69956 0.16639 0.658 0.0
C1234 C 0.72383 0.14787 0.68483 0.0
C1235 C 0.7051 0.14254 0.69817 0.0
C1236 C 0.68345 0.14838 0.69081 0.0
C1237 C 0.68095 0.16056 0.67092 0.0
C1238 C 0.74728 0.14218 0.69211 0.0
C1239 C 0.66304 0.14241 0.70422 0.0
C1240 C 0.72357 0.10006 0.74041 0.0
C1241 C 0.73014 0.114 0.75798 0.0
C1242 C 0.71264 0.10878 0.72167 0.0
C1243 C 0.70884 0.13202 0.72028 0.0
C1244 C 0.71329 0.14571 0.739 0.0
C1245 C 0.72367 0.13645 0.75778 0.0
C1246 C 0.70726 0.09347 0.70246 0.0
C1247 C 0.70959 0.17059 0.73822 0.0
H1248 H 0.73529 0.16389 0.65502 0.0
H1249 H 0.66447 0.16577 0.66567 0.0
H1250 H 0.75098 0.15032 0.7083 0.0
H1251 H 0.74894 0.12393 0.69456 0.0
H1252 H 0.76002 0.14759 0.6798 0.0
H1253 H 0.64755 0.1439 0.69418 0.0
H1254 H 0.66427 0.12515 0.71078 0.0
H1255 H 0.66164 0.1538 0.71871 0.0
H1256 H 0.72821 0.08259 0.74067 0.0
H1257 H 0.72863 0.14729 0.77136 0.0
H1258 H 0.72042 0.09496 0.68955 0.0
H1259 H 0.69116 0.09812 0.69465 0.0
H1260 H 0.70645 0.07577 0.70786 0.0
H1261 H 0.72246 0.17832 0.72739 0.0
H1262 H 0.71071 0.1783 0.75502 0.0
H1263 H 0.69309 0.17457 0.73095 0.0
C1264 C 0.14422 0.46241 0.99362 0.0
C1265 C 0.12949 0.47231 0.00882 0.0
C1266 C 0.13611 0.45078 0.97502 0.0
C1267 C 0.11287 0.45006 0.97115 0.0
C1268 C 0.09803 0.45759 0.98789 0.0
C1269 C 0.10658 0.46836 0.00677 0.0
C1270 C 0.15242 0.44143 0.95833 0.0
C1271 C 0.0731 0.45701 0.98454 0.0
C1272 C 0.09353 0.46458 0.9131 0.0
C1273 C 0.08261 0.44504 0.90646 0.0
C1274 C 0.10404 0.46604 0.93382 0.0
C1275 C 0.10442 0.44718 0.94804 0.0
C1276 C 0.09497 0.42682 0.94073 0.0
C1277 C 0.08373 0.4261 0.92016 0.0
C1278 C 0.11354 0.48828 0.94097 0.0
C1279 C 0.09582 0.40602 0.95483 0.0
H1280 H 0.162 0.46503 0.99544 0.0
H1281 H 0.09514 0.47583 0.0186 0.0
H1282 H 0.14599 0.42572 0.95097 0.0
H1283 H 0.15483 0.45357 0.94459 0.0
H1284 H 0.16891 0.43816 0.96609 0.0
H1285 H 0.06389 0.4612 4e-05 0.0
H1286 H 0.06839 0.46921 0.97145 0.0
H1287 H 0.06774 0.44029 0.97881 0.0
H1288 H 0.09274 0.47931 0.90266 0.0
H1289 H 0.07548 0.41087 0.91503 0.0
H1290 H 0.13158 0.48662 0.9446 0.0
H1291 H 0.10523 0.494 0.95648 0.0
H1292 H 0.11142 0.50139 0.92806 0.0
H1293 H 0.11064 0.40578 0.96589 0.0
H1294 H 0.09607 0.39085 0.94421 0.0
H1295 H 0.08067 0.40518 0.96538 0.0
C1296 C 0.75774 0.87019 0.23456 0.0
C1297 C 0.76486 0.87714 0.25564 0.0
C1298 C 0.7729 0.86206 0.21884 0.0
C1299 C 0.79597 0.86168 0.22399 0.0
C1300 C 0.8034 0.86962 0.24494 0.0
C1301 C 0.78765 0.87678 0.26077 0.0
C1302 C 0.76407 0.8533 0.19692 0.0
C1303 C 0.82781 0.87023 0.25091 0.0
C1304 C 0.82295 0.81841 0.18776 0.0
C1305 C 0.82562 0.83076 0.16812 0.0
C1306 C 0.81562 0.82877 0.2074 0.0
C1307 C 0.81165 0.85204 0.20739 0.0
C1308 C 0.81804 0.86494 0.1887 0.0
C1309 C 0.82453 0.85408 0.16904 0.0
C1310 C 0.80918 0.81439 0.22701 0.0
C1311 C 0.81546 0.88994 0.18859 0.0
H1312 H 0.74009 0.87026 0.23066 0.0
H1313 H 0.79318 0.88227 0.27707 0.0
H1314 H 0.77083 0.86332 0.18293 0.0
H1315 H 0.76955 0.83581 0.19441 0.0
H1316 H 0.74559 0.85383 0.19603 0.0
H1317 H 0.83125 0.88317 0.2637 0.0
H1318 H 0.83278 0.85388 0.25798 0.0
H1319 H 0.83839 0.87354 0.2361 0.0
H1320 H 0.82385 0.80037 0.18714 0.0
H1321 H 0.82694 0.8637 0.15392 0.0
H1322 H 0.79074 0.81316 0.22787 0.0
H1323 H 0.81502 0.82193 0.24282 0.0
H1324 H 0.81614 0.79728 0.22564 0.0
H1325 H 0.79777 0.89429 0.18538 0.0
H1326 H 0.82582 0.89778 0.17539 0.0
H1327 H 0.82016 0.89709 0.20499 0.0
C1328 C 0.37011 0.50883 0.47088 0.0
C1329 C 0.36421 0.51521 0.4925 0.0
C1330 C 0.38122 0.52353 0.45665 0.0
C1331 C 0.38554 0.54564 0.4638 0.0
C1332 C 0.37829 0.55265 0.48518 0.0
C1333 C 0.36826 0.53708 0.49959 0.0
C1334 C 0.38934 0.51489 0.43439 0.0
C1335 C 0.38155 0.57622 0.49329 0.0
C1336 C 0.43583 0.56617 0.43294 0.0
C1337 C 0.42593 0.57189 0.41262 0.0
C1338 C 0.42265 0.55993 0.45121 0.0
C1339 C 0.39914 0.56029 0.44914 0.0
C1340 C 0.3893 0.5697 0.42989 0.0
C1341 C 0.40281 0.57473 0.41147 0.0
C1342 C 0.43387 0.55018 0.4715 0.0
C1343 C 0.36437 0.57216 0.42787 0.0
H1344 H 0.36724 0.49179 0.46554 0.0
H1345 H 0.36364 0.542 0.51635 0.0
H1346 H 0.38101 0.52399 0.42064 0.0
H1347 H 0.40755 0.51769 0.43271 0.0
H1348 H 0.38601 0.4968 0.43218 0.0
H1349 H 0.36714 0.58154 0.50363 0.0
H1350 H 0.39656 0.57693 0.50404 0.0
H1351 H 0.38363 0.58824 0.47939 0.0
H1352 H 0.45376 0.56398 0.43375 0.0
H1353 H 0.39519 0.57943 0.39577 0.0
H1354 H 0.43045 0.53201 0.47232 0.0
H1355 H 0.4271 0.55785 0.48687 0.0
H1356 H 0.45221 0.5527 0.47122 0.0
H1357 H 0.35693 0.55597 0.42295 0.0
H1358 H 0.35986 0.58472 0.41503 0.0
H1359 H 0.35696 0.57714 0.44408 0.0
C1360 C 0.23731 0.22106 0.35313 0.0
C1361 C 0.23348 0.22473 0.37586 0.0
C1362 C 0.25651 0.20984 0.34596 0.0
C1363 C 0.27172 0.20149 0.36198 0.0
C1364 C 0.26613 0.20231 0.38487 0.0
C1365 C 0.24731 0.21445 0.39162 0.0
C1366 C 0.26181 0.2094 0.32136 0.0
C1367 C 0.28114 0.19224 0.40234 0.0
C1368 C 0.32301 0.17435 0.33632 0.0
C1369 C 0.33789 0.19239 0.33615 0.0
C1370 C 0.30183 0.17636 0.34621 0.0
C1371 C 0.29517 0.19716 0.3552 0.0
C1372 C 0.31054 0.21507 0.35589 0.0
C1373 C 0.33179 0.21229 0.34678 0.0
C1374 C 0.28641 0.15651 0.34606 0.0
C1375 C 0.30413 0.23773 0.36492 0.0
H1376 H 0.22658 0.22897 0.34092 0.0
H1377 H 0.24413 0.21697 0.40924 0.0
H1378 H 0.27585 0.22094 0.3179 0.0
H1379 H 0.26709 0.19248 0.31618 0.0
H1380 H 0.24733 0.21452 0.31101 0.0
H1381 H 0.27207 0.18935 0.41823 0.0
H1382 H 0.28824 0.1762 0.39644 0.0
H1383 H 0.29521 0.20374 0.40576 0.0
H1384 H 0.32769 0.15885 0.3283 0.0
H1385 H 0.34314 0.22635 0.34672 0.0
H1386 H 0.27635 0.15671 0.33056 0.0
H1387 H 0.27483 0.15673 0.36048 0.0
H1388 H 0.29599 0.14066 0.34633 0.0
H1389 H 0.28973 0.24444 0.35545 0.0
H1390 H 0.31799 0.24996 0.36386 0.0
H1391 H 0.299 0.23633 0.38261 0.0
C1392 C 0.0211 0.00898 0.64559 0.0
C1393 C 0.01458 0.99235 0.63052 0.0
C1394 C 0.03215 0.02819 0.63815 0.0
C1395 C 0.03608 0.03103 0.61507 0.0
C1396 C 0.03169 0.01322 0.6002 0.0
C1397 C 0.02121 0.99392 0.60818 0.0
C1398 C 0.03757 0.04635 0.65467 0.0
C1399 C 0.03556 0.01556 0.57544 0.0
C1400 C 0.02424 0.08786 0.59066 0.0
C1401 C 0.04546 0.09486 0.58386 0.0
C1402 C 0.02118 0.06738 0.60136 0.0
C1403 C 0.03989 0.05374 0.60597 0.0
C1404 C 0.06155 0.06132 0.60049 0.0
C1405 C 0.06407 0.0817 0.58916 0.0
C1406 C 0.99772 0.0599 0.60672 0.0
C1407 C 0.08196 0.04762 0.60578 0.0
H1408 H 0.01634 0.00762 0.66297 0.0
H1409 H 0.0163 0.98106 0.59648 0.0
H1410 H 0.05371 0.05438 0.65057 0.0
H1411 H 0.02447 0.05938 0.654 0.0
H1412 H 0.03833 0.0398 0.67198 0.0
H1413 H 0.03423 -0.00068 0.56665 0.0
H1414 H 0.02295 0.0271 0.56836 0.0
H1415 H 0.05222 0.02278 0.57207 0.0
H1416 H 0.00977 0.09789 0.58664 0.0
H1417 H 0.08055 0.08709 0.58409 0.0
H1418 H 0.99611 0.05641 0.6248 0.0
H1419 H 0.99392 0.04421 0.59768 0.0
H1420 H 0.98502 0.07255 0.60207 0.0
H1421 H 0.08045 0.03959 0.62238 0.0
H1422 H 0.09734 0.05791 0.60548 0.0
H1423 H 0.08378 0.0342 0.59321 0.0
C1424 C 0.25049 0.76824 0.85813 0.0
C1425 C 0.2515 0.76161 0.8805 0.0
C1426 C 0.23136 0.77861 0.84963 0.0
C1427 C 0.21314 0.7829 0.86402 0.0
C1428 C 0.21536 0.77896 0.88716 0.0
C1429 C 0.23442 0.768 0.89511 0.0
C1430 C 0.22969 0.78249 0.82482 0.0
C1431 C 0.19675 0.78432 0.9032 0.0
C1432 C 0.16341 0.81084 0.83639 0.0
C1433 C 0.15049 0.79221 0.83062 0.0
C1434 C 0.18332 0.80835 0.84851 0.0
C1435 C 0.1907 0.7867 0.8543 0.0
C1436 C 0.17725 0.76797 0.84925 0.0
C1437 C 0.1572 0.77101 0.83777 0.0
C1438 C 0.19678 0.82879 0.85428 0.0
C1439 C 0.18455 0.74451 0.8549 0.0
H1440 H 0.26371 0.76344 0.84678 0.0
H1441 H 0.23534 0.76325 0.91253 0.0
H1442 H 0.21828 0.76994 0.81744 0.0
H1443 H 0.22265 0.7992 0.82128 0.0
H1444 H 0.24614 0.78107 0.81644 0.0
H1445 H 0.20281 0.7851 0.92067 0.0
H1446 H 0.18878 0.80045 0.89888 0.0
H1447 H 0.18378 0.77118 0.90217 0.0
H1448 H 0.15822 0.82731 0.83106 0.0
H1449 H 0.14735 0.75651 0.83339 0.0
H1450 H 0.21049 0.83076 0.84204 0.0
H1451 H 0.20439 0.82723 0.87106 0.0
H1452 H 0.18642 0.84413 0.8538 0.0
H1453 H 0.2005 0.74068 0.84635 0.0
H1454 H 0.17205 0.7318 0.8499 0.0
H1455 H 0.18748 0.74295 0.87308 0.0
C1456 C 0.48738 0.98256 0.14324 0.0
C1457 C 0.49 0.00241 0.13118 0.0
C1458 C 0.47683 0.96402 0.13367 0.0
C1459 C 0.4693 0.96524 0.11135 0.0
C1460 C 0.47023 0.98581 0.0998 0.0
C1461 C 0.48036 0.00425 0.10998 0.0
C1462 C 0.47549 0.9426 0.1468 0.0
C1463 C 0.46266 0.98779 0.07588 0.0
C1464 C 0.47773 0.91385 0.07581 0.0
C1465 C 0.45583 0.90645 0.07249 0.0
C1466 C 0.48222 0.93281 0.08862 0.0
C1467 C 0.46441 0.94442 0.09885 0.0
C1468 C 0.4423 0.9366 0.09631 0.0
C1469 C 0.43822 0.91781 0.08287 0.0
C1470 C 0.50604 0.94077 0.09061 0.0
C1471 C 0.423 0.94824 0.10746 0.0
H1472 H 0.49454 0.98116 0.15977 0.0
H1473 H 0.48231 0.01955 0.10056 0.0
H1474 H 0.45923 0.93423 0.14409 0.0
H1475 H 0.48875 0.93104 0.14107 0.0
H1476 H 0.47777 0.94551 0.16494 0.0
H1477 H 0.46156 0.00544 0.07038 0.0
H1478 H 0.47471 0.979 0.06493 0.0
H1479 H 0.44618 0.97979 0.07352 0.0
H1480 H 0.49142 0.90526 0.06774 0.0
H1481 H 0.42127 0.91208 0.08045 0.0
H1482 H 0.51109 0.94128 0.10838 0.0
H1483 H 0.50751 0.95796 0.08393 0.0
H1484 H 0.51792 0.92989 0.08146 0.0
H1485 H 0.42652 0.95067 0.12545 0.0
H1486 H 0.40719 0.93877 0.1057 0.0
H1487 H 0.42067 0.965 0.10002 0.0
C1488 C 0.75526 0.27301 0.60818 0.0
C1489 C 0.73835 0.26545 0.62242 0.0
C1490 C 0.77402 0.28405 0.6167 0.0
C1491 C 0.77611 0.28689 0.64002 0.0
C1492 C 0.75797 0.28149 0.65412 0.0
C1493 C 0.73912 0.27106 0.64507 0.0
C1494 C 0.79255 0.29058 0.601 0.0
C1495 C 0.7595 0.2842 0.67909 0.0
C1496 C 0.83249 0.27459 0.66521 0.0
C1497 C 0.83909 0.29556 0.67311 0.0
C1498 C 0.81228 0.27179 0.65397 0.0
C1499 C 0.7985 0.29053 0.64995 0.0
C1500 C 0.80564 0.312 0.65666 0.0
C1501 C 0.82575 0.31423 0.66851 0.0
C1502 C 0.80525 0.24851 0.64732 0.0
C1503 C 0.79179 0.33248 0.65205 0.0
H1504 H 0.75453 0.26905 0.59056 0.0
H1505 H 0.72603 0.26534 0.65614 0.0
H1506 H 0.80015 0.30664 0.60612 0.0
H1507 H 0.80579 0.27767 0.60144 0.0
H1508 H 0.7865 0.29207 0.58357 0.0
H1509 H 0.74303 0.28224 0.68731 0.0
H1510 H 0.77098 0.27139 0.68591 0.0
H1511 H 0.76638 0.30077 0.68347 0.0
H1512 H 0.84265 0.26006 0.66872 0.0
H1513 H 0.83083 0.33052 0.67444 0.0
H1514 H 0.80233 0.24772 0.62909 0.0
H1515 H 0.78936 0.24411 0.6557 0.0
H1516 H 0.81792 0.23574 0.65174 0.0
H1517 H 0.78412 0.33168 0.63524 0.0
H1518 H 0.80186 0.34796 0.65329 0.0
H1519 H 0.7781 0.33354 0.66443 0.0
C1520 C 0.99851 0.51775 0.88065 0.0
C1521 C 0.99005 0.4988 0.87009 0.0
C1522 C 0.98428 0.53424 0.88887 0.0
C1523 C 0.96098 0.53221 0.88556 0.0
C1524 C 0.95234 0.51331 0.8743 0.0
C1525 C 0.96703 0.49644 0.86719 0.0
C1526 C 0.99428 0.55372 0.90137 0.0
C1527 C 0.92774 0.51073 0.86982 0.0
C1528 C 0.93174 0.56816 0.92766 0.0
C1529 C 0.93328 0.58891 0.91705 0.0
C1530 C 0.93851 0.54866 0.91669 0.0
C1531 C 0.94623 0.55002 0.89443 0.0
C1532 C 0.94451 0.57044 0.88271 0.0
C1533 C 0.93859 0.58983 0.89435 0.0
C1534 C 0.94014 0.52727 0.92983 0.0
C1535 C 0.95124 0.57223 0.85856 0.0
H1536 H 0.01635 0.51935 0.88305 0.0
H1537 H 0.96058 0.48171 0.85895 0.0
H1538 H 0.99129 0.56939 0.89204 0.0
H1539 H 0.98626 0.55546 0.91794 0.0
H1540 H 0.01253 0.55185 0.90387 0.0
H1541 H 0.9247 0.49973 0.85524 0.0
H1542 H 0.91964 0.50297 0.88451 0.0
H1543 H 0.91963 0.52707 0.86675 0.0
H1544 H 0.92763 0.56745 0.94524 0.0
H1545 H 0.93948 0.60588 0.88606 0.0
H1546 H 0.95792 0.52375 0.93357 0.0
H1547 H 0.9336 0.51307 0.92002 0.0
H1548 H 0.93087 0.52823 0.94583 0.0
H1549 H 0.96966 0.5731 0.85734 0.0
H1550 H 0.9442 0.58743 0.85065 0.0
H1551 H 0.94563 0.55736 0.84909 0.0
C1552 C 0.65956 0.70465 0.14218 0.0
C1553 C 0.6587 0.69821 0.16461 0.0
C1554 C 0.67975 0.71124 0.13241 0.0
C1555 C 0.69924 0.71209 0.14566 0.0
C1556 C 0.69884 0.7034 0.16761 0.0
C1557 C 0.67855 0.69623 0.17673 0.0
C1558 C 0.67966 0.71948 0.10864 0.0
C1559 C 0.71913 0.70428 0.18245 0.0
C1560 C 0.75534 0.7301 0.12214 0.0
C1561 C 0.75473 0.75313 0.12614 0.0
C1562 C 0.73715 0.71645 0.1278 0.0
C1563 C 0.71836 0.72604 0.13837 0.0
C1564 C 0.7178 0.74929 0.14253 0.0
C1565 C 0.73584 0.76258 0.13603 0.0
C1566 C 0.73798 0.69189 0.12244 0.0
C1567 C 0.6983 0.76016 0.15421 0.0
H1568 H 0.64423 0.70598 0.13272 0.0
H1569 H 0.67793 0.69133 0.19411 0.0
H1570 H 0.67906 0.73796 0.10856 0.0
H1571 H 0.69507 0.71431 0.09981 0.0
H1572 H 0.66498 0.71317 0.09929 0.0
H1573 H 0.71722 0.69351 0.1974 0.0
H1574 H 0.73431 0.6991 0.1733 0.0
H1575 H 0.72172 0.7217 0.18813 0.0
H1576 H 0.76991 0.72282 0.11432 0.0
H1577 H 0.73543 0.78035 0.1393 0.0
H1578 H 0.72322 0.68712 0.11239 0.0
H1579 H 0.73738 0.68199 0.13804 0.0
H1580 H 0.75329 0.68727 0.1131 0.0
H1581 H 0.68292 0.75793 0.1442 0.0
H1582 H 0.70091 0.77829 0.15694 0.0
H1583 H 0.69546 0.75209 0.17061 0.0
C1584 C 0.50176 0.48636 0.38359 0.0
C1585 C 0.51075 0.50553 0.37383 0.0
C1586 C 0.51553 0.46905 0.39099 0.0
C1587 C 0.53888 0.47059 0.38783 0.0
C1588 C 0.54805 0.48964 0.37732 0.0
C1589 C 0.53386 0.50716 0.37082 0.0
C1590 C 0.50503 0.44931 0.40263 0.0
C1591 C 0.57274 0.49147 0.37293 0.0
C1592 C 0.56836 0.43304 0.42861 0.0
C1593 C 0.56752 0.41274 0.41708 0.0
C1594 C 0.56097 0.45281 0.41854 0.0
C1595 C 0.55332 0.45227 0.39622 0.0
C1596 C 0.55542 0.43241 0.38365 0.0
C1597 C 0.56211 0.41272 0.39437 0.0
C1598 C 0.55864 0.47346 0.43274 0.0
C1599 C 0.54837 0.43136 0.35954 0.0
H1600 H 0.4839 0.48519 0.38611 0.0
H1601 H 0.54078 0.52198 0.36312 0.0
H1602 H 0.50827 0.43386 0.39301 0.0
H1603 H 0.51255 0.44709 0.41938 0.0
H1604 H 0.48673 0.45121 0.40463 0.0
H1605 H 0.57699 0.50656 0.36307 0.0
H1606 H 0.58195 0.49212 0.38893 0.0
H1607 H 0.57868 0.47651 0.36381 0.0
H1608 H 0.57243 0.43311 0.44622 0.0
H1609 H 0.56165 0.39705 0.38536 0.0
H1610 H 0.54091 0.47551 0.43759 0.0
H1611 H 0.56363 0.48859 0.42339 0.0
H1612 H 0.5688 0.47238 0.44818 0.0
H1613 H 0.52997 0.42993 0.35858 0.0
H1614 H 0.55576 0.41672 0.35092 0.0
H1615 H 0.55331 0.44674 0.35053 0.0
C1616 C 0.3946 0.26779 0.24631 0.0
C1617 C 0.38005 0.2497 0.24892 0.0
C1618 C 0.38751 0.28749 0.23589 0.0
C1619 C 0.36515 0.28931 0.22862 0.0
C1620 C 0.35094 0.27048 0.22968 0.0
C1621 C 0.35868 0.25077 0.23958 0.0
C1622 C 0.40342 0.30691 0.23428 0.0
C1623 C 0.32688 0.27179 0.22244 0.0
C1624 C 0.33629 0.34465 0.23734 0.0
C1625 C 0.33303 0.35207 0.21542 0.0
C1626 C 0.34713 0.32449 0.24176 0.0
C1627 C 0.3555 0.31162 0.22384 0.0
C1628 C 0.35342 0.31958 0.20172 0.0
C1629 C 0.34188 0.3396 0.19772 0.0
C1630 C 0.34868 0.31649 0.26561 0.0
C1631 C 0.36278 0.30666 0.18227 0.0
H1632 H 0.41126 0.26689 0.25326 0.0
H1633 H 0.34738 0.23681 0.24159 0.0
H1634 H 0.40162 0.31554 0.21802 0.0
H1635 H 0.39954 0.31916 0.24757 0.0
H1636 H 0.42102 0.30153 0.2363 0.0
H1637 H 0.31887 0.25511 0.22182 0.0
H1638 H 0.31747 0.28235 0.23437 0.0
H1639 H 0.32548 0.27966 0.20579 0.0
H1640 H 0.32943 0.35411 0.25113 0.0
H1641 H 0.33951 0.34532 0.18074 0.0
H1642 H 0.36634 0.31368 0.27024 0.0
H1643 H 0.33985 0.30033 0.26739 0.0
H1644 H 0.34133 0.32854 0.2776 0.0
H1645 H 0.38001 0.30104 0.18591 0.0
H1646 H 0.36291 0.3167 0.16671 0.0
H1647 H 0.35254 0.29155 0.17937 0.0
C1648 C 0.83289 0.16385 0.8176 0.0
C1649 C 0.82771 0.15095 0.79878 0.0
C1650 C 0.84452 0.18411 0.81545 0.0
C1651 C 0.85045 0.19184 0.79396 0.0
C1652 C 0.84584 0.17851 0.77503 0.0
C1653 C 0.83483 0.15814 0.77773 0.0
C1654 C 0.84977 0.19749 0.83608 0.0
C1655 C 0.85165 0.18617 0.75173 0.0
C1656 C 0.85451 0.2519 0.77619 0.0
C1657 C 0.877 0.25302 0.77 0.0
C1658 C 0.84584 0.23263 0.78618 0.0
C1659 C 0.86017 0.21437 0.79055 0.0
C1660 C 0.88338 0.21667 0.78706 0.0
C1661 C 0.8915 0.23587 0.77646 0.0
C1662 C 0.82097 0.23086 0.78953 0.0
C1663 C 0.89934 0.198 0.79245 0.0
H1664 H 0.82755 0.15832 0.83395 0.0
H1665 H 0.83088 0.14833 0.76308 0.0
H1666 H 0.86671 0.20483 0.83505 0.0
H1667 H 0.83772 0.21142 0.83761 0.0
H1668 H 0.84863 0.18717 0.85142 0.0
H1669 H 0.84686 0.1738 0.73882 0.0
H1670 H 0.84302 0.20212 0.74803 0.0
H1671 H 0.86982 0.18925 0.75038 0.0
H1672 H 0.84324 0.26515 0.77128 0.0
H1673 H 0.90899 0.23685 0.77202 0.0
H1674 H 0.81708 0.22339 0.80597 0.0
H1675 H 0.81385 0.21978 0.77654 0.0
H1676 H 0.81262 0.24735 0.78836 0.0
H1677 H 0.89478 0.18984 0.80841 0.0
H1678 H 0.91679 0.20406 0.79356 0.0
H1679 H 0.89852 0.18518 0.77914 0.0
C1680 C 0.01149 0.63918 0.00832 0.0
C1681 C 0.99227 0.62606 0.00628 0.0
C1682 C 0.03075 0.6307 0.0185 0.0
C1683 C 0.03093 0.60839 0.02616 0.0
C1684 C 0.01102 0.59572 0.02574 0.0
C1685 C 0.9918 0.60484 0.01604 0.0
C1686 C 0.05142 0.64501 0.01933 0.0
C1687 C 0.01055 0.57175 0.03341 0.0
C1688 C 0.08412 0.57592 0.01657 0.0
C1689 C 0.09218 0.57302 0.0383 0.0
C1690 C 0.06433 0.58755 0.01252 0.0
C1691 C 0.05252 0.59708 0.03059 0.0
C1692 C 0.061 0.59501 0.05252 0.0
C1693 C 0.08062 0.58268 0.05618 0.0
C1694 C 0.05571 0.58902 0.98888 0.0
C1695 C 0.04919 0.60551 0.07209 0.0
H1696 H 0.0118 0.65573 0.00104 0.0
H1697 H 0.97698 0.59463 0.01447 0.0
H1698 H 0.06026 0.64283 0.03543 0.0
H1699 H 0.06299 0.63989 0.00585 0.0
H1700 H 0.04744 0.66296 0.01706 0.0
H1701 H 0.99327 0.56526 0.03489 0.0
H1702 H 0.01969 0.56126 0.0212 0.0
H1703 H 0.019 0.56989 0.04973 0.0
H1704 H 0.09286 0.56836 0.00268 0.0
H1705 H 0.08686 0.58056 0.073 0.0
H1706 H 0.05415 0.60673 0.98378 0.0
H1707 H 0.03887 0.58145 0.98785 0.0
H1708 H 0.06677 0.58041 0.97678 0.0
H1709 H 0.04556 0.62331 0.06858 0.0
H1710 H 0.05915 0.60441 0.08766 0.0
H1711 H 0.033 0.59706 0.07488 0.0
C1712 C 0.64768 0.84285 0.30623 0.0
C1713 C 0.67065 0.84065 0.30964 0.0
C1714 C 0.63478 0.82442 0.29987 0.0
C1715 C 0.64541 0.80376 0.29577 0.0
C1716 C 0.66815 0.801 0.30147 0.0
C1717 C 0.68045 0.81949 0.30875 0.0
C1718 C 0.61027 0.82764 0.29532 0.0
C1719 C 0.68022 0.77934 0.29717 0.0
C1720 C 0.61558 0.75185 0.27467 0.0
C1721 C 0.61718 0.75495 0.25157 0.0
C1722 C 0.62364 0.76812 0.2895 0.0
C1723 C 0.63454 0.78723 0.28089 0.0
C1724 C 0.63607 0.79034 0.25752 0.0
C1725 C 0.62694 0.77439 0.24321 0.0
C1726 C 0.62085 0.76455 0.31423 0.0
C1727 C 0.64806 0.81013 0.24752 0.0
H1728 H 0.64007 0.85922 0.30718 0.0
H1729 H 0.69826 0.81784 0.31133 0.0
H1730 H 0.60762 0.82996 0.27717 0.0
H1731 H 0.60063 0.81276 0.3006 0.0
H1732 H 0.60362 0.84255 0.30408 0.0
H1733 H 0.69698 0.77905 0.30501 0.0
H1734 H 0.67044 0.76504 0.30356 0.0
H1735 H 0.68226 0.77701 0.27893 0.0
H1736 H 0.60795 0.73679 0.28112 0.0
H1737 H 0.62841 0.77665 0.22533 0.0
H1738 H 0.61809 0.78056 0.32309 0.0
H1739 H 0.63617 0.7568 0.32107 0.0
H1740 H 0.60667 0.75321 0.31785 0.0
H1741 H 0.6396 0.82581 0.25243 0.0
H1742 H 0.64867 0.80942 0.22903 0.0
H1743 H 0.6654 0.81092 0.25391 0.0
C1744 C 0.41278 0.40928 0.54841 0.0
C1745 C 0.40103 0.41763 0.53002 0.0
C1746 C 0.43291 0.39761 0.54543 0.0
C1747 C 0.4418 0.39519 0.52368 0.0
C1748 C 0.42977 0.40337 0.50512 0.0
C1749 C 0.40939 0.41411 0.50851 0.0
C1750 C 0.44485 0.38835 0.56553 0.0
C1751 C 0.43883 0.40167 0.48165 0.0
C1752 C 0.50303 0.39173 0.51011 0.0
C1753 C 0.50417 0.37054 0.50039 0.0
C1754 C 0.48311 0.39947 0.51956 0.0
C1755 C 0.4642 0.38536 0.5199 0.0
C1756 C 0.46608 0.36308 0.51235 0.0
C1757 C 0.48595 0.35605 0.50221 0.0
C1758 C 0.48173 0.42349 0.52696 0.0
C1759 C 0.4466 0.34721 0.51338 0.0
H1760 H 0.40628 0.41192 0.56506 0.0
H1761 H 0.40049 0.42073 0.49424 0.0
H1762 H 0.45131 0.37136 0.56206 0.0
H1763 H 0.45931 0.39909 0.56962 0.0
H1764 H 0.43379 0.38763 0.58037 0.0
H1765 H 0.42757 0.40938 0.46914 0.0
H1766 H 0.45529 0.41004 0.48063 0.0
H1767 H 0.44133 0.38393 0.47708 0.0
H1768 H 0.51712 0.40295 0.50868 0.0
H1769 H 0.48696 0.33951 0.49499 0.0
H1770 H 0.47339 0.42481 0.54339 0.0
H1771 H 0.47157 0.43306 0.5148 0.0
H1772 H 0.49842 0.4314 0.52813 0.0
H1773 H 0.43751 0.34903 0.52939 0.0
H1774 H 0.452 0.3296 0.51149 0.0
H1775 H 0.43476 0.35112 0.49973 0.0
C1776 C 0.16242 0.65902 0.72066 0.0
C1777 C 0.17012 0.65287 0.69948 0.0
C1778 C 0.15085 0.67899 0.72396 0.0
C1779 C 0.14633 0.693 0.70551 0.0
C1780 C 0.1529 0.68634 0.68385 0.0
C1781 C 0.16504 0.66645 0.68111 0.0
C1782 C 0.14435 0.68552 0.74742 0.0
C1783 C 0.1478 0.70049 0.66369 0.0
C1784 C 0.10372 0.73536 0.72356 0.0
C1785 C 0.11761 0.7526 0.73104 0.0
C1786 C 0.11262 0.71674 0.71255 0.0
C1787 C 0.13596 0.71513 0.70961 0.0
C1788 C 0.14971 0.73352 0.71507 0.0
C1789 C 0.14029 0.7522 0.7255 0.0
C1790 C 0.09728 0.6979 0.70605 0.0
C1791 C 0.1747 0.73247 0.71234 0.0
H1792 H 0.16628 0.64868 0.73497 0.0
H1793 H 0.17083 0.66173 0.66466 0.0
H1794 H 0.15255 0.70146 0.75199 0.0
H1795 H 0.1261 0.68818 0.74846 0.0
H1796 H 0.14911 0.6727 0.75991 0.0
H1797 H 0.14977 0.69096 0.64794 0.0
H1798 H 0.13058 0.70718 0.66453 0.0
H1799 H 0.15935 0.71491 0.6632 0.0
H1800 H 0.08609 0.73578 0.7275 0.0
H1801 H 0.1511 0.76552 0.73118 0.0
H1802 H 0.09814 0.68459 0.71886 0.0
H1803 H 0.10242 0.69051 0.6899 0.0
H1804 H 0.0797 0.70356 0.70476 0.0
H1805 H 0.18175 0.72105 0.72509 0.0
H1806 H 0.18261 0.74909 0.71437 0.0
H1807 H 0.17922 0.72574 0.69575 0.0
C1808 C 0.49458 0.8571 0.95676 0.0
C1809 C 0.48141 0.87217 0.96882 0.0
C1810 C 0.51304 0.86459 0.94448 0.0
C1811 C 0.51902 0.88739 0.94546 0.0
C1812 C 0.50416 0.9029 0.95527 0.0
C1813 C 0.48525 0.89508 0.96655 0.0
C1814 C 0.52746 0.84783 0.93253 0.0
C1815 C 0.50973 0.92741 0.95652 0.0
C1816 C 0.57919 0.8996 0.95882 0.0
C1817 C 0.58593 0.91236 0.94045 0.0
C1818 C 0.55769 0.89082 0.96018 0.0
C1819 C 0.5427 0.89392 0.9422 0.0
C1820 C 0.55001 0.9051 0.9227 0.0
C1821 C 0.57142 0.9147 0.92226 0.0
C1822 C 0.55064 0.87953 0.98162 0.0
C1823 C 0.53513 0.90784 0.90263 0.0
H1824 H 0.49134 0.83937 0.9581 0.0
H1825 H 0.47497 0.90678 0.97572 0.0
H1826 H 0.53463 0.85515 0.91712 0.0
H1827 H 0.54146 0.84278 0.94349 0.0
H1828 H 0.51786 0.83262 0.92812 0.0
H1829 H 0.49555 0.93748 0.96287 0.0
H1830 H 0.52417 0.92986 0.96782 0.0
H1831 H 0.5145 0.93378 0.93986 0.0
H1832 H 0.59024 0.89773 0.97299 0.0
H1833 H 0.57659 0.92439 0.90791 0.0
H1834 H 0.54571 0.86204 0.97829 0.0
H1835 H 0.53597 0.88821 0.98883 0.0
H1836 H 0.56411 0.87938 0.99432 0.0
H1837 H 0.522 0.89485 0.90185 0.0
H1838 H 0.54509 0.9072 0.88704 0.0
H1839 H 0.52699 0.92443 0.90328 0.0
C1840 C 0.9189 0.08938 0.43425 0.0
C1841 C 0.90536 0.08403 0.45257 0.0
C1842 C 0.93903 0.10103 0.43719 0.0
C1843 C 0.94597 0.10679 0.45899 0.0
C1844 C 0.93196 0.10209 0.4774 0.0
C1845 C 0.91175 0.09105 0.47391 0.0
C1846 C 0.95316 0.10638 0.41709 0.0
C1847 C 0.93876 0.10775 0.501 0.0
C1848 C 0.00517 0.11034 0.47926 0.0
C1849 C 0.00612 0.13277 0.4857 0.0
C1850 C 0.98634 0.10188 0.46832 0.0
C1851 C 0.96839 0.11637 0.46329 0.0
C1852 C 0.97065 0.13954 0.46706 0.0
C1853 C 0.98939 0.14746 0.47855 0.0
C1854 C 0.98461 0.07705 0.46462 0.0
C1855 C 0.95232 0.15565 0.46099 0.0
H1856 H 0.91399 0.08414 0.41768 0.0
H1857 H 0.90143 0.08699 0.48817 0.0
H1858 H 0.9608 0.12315 0.41862 0.0
H1859 H 0.96687 0.09405 0.41577 0.0
H1860 H 0.9433 0.10571 0.40143 0.0
H1861 H 0.92589 0.10297 0.51342 0.0
H1862 H 0.9545 0.09902 0.50525 0.0
H1863 H 0.94187 0.12591 0.50254 0.0
H1864 H 0.01811 0.09894 0.48464 0.0
H1865 H 0.99028 0.16492 0.48315 0.0
H1866 H 0.97785 0.07338 0.44783 0.0
H1867 H 0.97294 0.06984 0.47704 0.0
H1868 H 0.00099 0.0686 0.46642 0.0
H1869 H 0.94483 0.15126 0.44467 0.0
H1870 H 0.95853 0.17309 0.46026 0.0
H1871 H 0.93895 0.15481 0.47374 0.0
loop_
_geom_bond_atom_site_label_1
_geom_bond_atom_site_label_2
_geom_bond_distance
_geom_bond_site_symmetry_2
_ccdc_geom_bond_type
O0 Cd1 2.223 . S
O0 C8 1.315 . S
Cd1 O0 2.223 . S
Cd1 O4 2.297 . S
Cd1 O5 2.439 . S
Cd1 O11 2.240 . S
Cd2 O3 2.240 . S
Cd2 O10 2.223 . S
Cd2 O12 2.297 . S
Cd2 O13 2.439 . S
O3 Cd2 2.240 . S
O3 C8 1.279 . S
O4 Cd1 2.297 . S
O4 C6 1.247 . S
O5 Cd1 2.439 . S
O5 C6 1.208 . S
C6 O4 1.247 . S
C6 O5 1.208 . S
C7 O12 1.247 . S
C7 O13 1.208 . S
C8 O0 1.315 . S
C8 O3 1.279 . S
C9 O10 1.315 . S
C9 O11 1.279 . S
O10 Cd2 2.223 . S
O10 C9 1.315 . S
O11 Cd1 2.240 . S
O11 C9 1.279 . S
O12 Cd2 2.297 . S
O12 C7 1.247 . S
O13 Cd2 2.439 . S
O13 C7 1.208 . S
O14 Cd15 2.223 . S
O14 C22 1.315 . S
Cd15 O14 2.223 . S
Cd15 O18 2.297 . S
Cd15 O19 2.439 . S
Cd15 O25 2.240 . S
Cd16 O17 2.240 . S
Cd16 O24 2.223 . S
Cd16 O26 2.297 . S
Cd16 O27 2.439 . S
O17 Cd16 2.240 . S
O17 C22 1.279 . S
O18 Cd15 2.297 . S
O18 C20 1.247 . S
O19 Cd15 2.439 . S
O19 C20 1.208 . S
C20 O18 1.247 . S
C20 O19 1.208 . S
C21 O26 1.247 . S
C21 O27 1.208 . S
C22 O14 1.315 . S
C22 O17 1.279 . S
C23 O24 1.315 . S
C23 O25 1.279 . S
O24 Cd16 2.223 . S
O24 C23 1.315 . S
O25 Cd15 2.240 . S
O25 C23 1.279 . S
O26 Cd16 2.297 . S
O26 C21 1.247 . S
O27 Cd16 2.439 . S
O27 C21 1.208 . S
O28 Cd29 2.223 . S
O28 C36 1.315 . S
Cd29 O28 2.223 . S
Cd29 O32 2.297 . S
Cd29 O33 2.439 . S
Cd29 O39 2.240 . S
Cd30 O31 2.240 . S
Cd30 O38 2.223 . S
Cd30 O40 2.297 . S
Cd30 O41 2.439 . S
O31 Cd30 2.240 . S
O31 C36 1.279 . S
O32 Cd29 2.297 . S
O32 C34 1.247 . S
O33 Cd29 2.439 . S
O33 C34 1.208 . S
C34 O32 1.247 . S
C34 O33 1.208 . S
C35 O40 1.247 . S
C35 O41 1.208 . S
C36 O28 1.315 . S
C36 O31 1.279 . S
C37 O38 1.315 . S
C37 O39 1.279 . S
O38 Cd30 2.223 . S
O38 C37 1.315 . S
O39 Cd29 2.240 . S
O39 C37 1.279 . S
O40 Cd30 2.297 . S
O40 C35 1.247 . S
O41 Cd30 2.439 . S
O41 C35 1.208 . S
O42 Cd43 2.223 . S
O42 C50 1.315 . S
Cd43 O42 2.223 . S
Cd43 O46 2.297 . S
Cd43 O47 2.439 . S
Cd43 O53 2.240 . S
Cd44 O45 2.240 . S
Cd44 O52 2.223 . S
Cd44 O54 2.297 . S
Cd44 O55 2.439 . S
O45 Cd44 2.240 . S
O45 C50 1.279 . S
O46 Cd43 2.297 . S
O46 C48 1.247 . S
O47 Cd43 2.439 . S
O47 C48 1.208 . S
C48 O46 1.247 . S
C48 O47 1.208 . S
C49 O54 1.247 . S
C49 O55 1.208 . S
C50 O42 1.315 . S
C50 O45 1.279 . S
C51 O52 1.315 . S
C51 O53 1.279 . S
O52 Cd44 2.223 . S
O52 C51 1.315 . S
O53 Cd43 2.240 . S
O53 C51 1.279 . S
O54 Cd44 2.297 . S
O54 C49 1.247 . S
O55 Cd44 2.439 . S
O55 C49 1.208 . S
O56 Cd57 2.223 . S
O56 C64 1.315 . S
Cd57 O56 2.223 . S
Cd57 O60 2.297 . S
Cd57 O61 2.439 . S
Cd57 O67 2.240 . S
Cd58 O59 2.240 . S
Cd58 O66 2.223 . S
Cd58 O68 2.297 . S
Cd58 O69 2.439 . S
O59 Cd58 2.240 . S
O59 C64 1.279 . S
O60 Cd57 2.297 . S
O60 C62 1.247 . S
O61 Cd57 2.439 . S
O61 C62 1.208 . S
C62 O60 1.247 . S
C62 O61 1.208 . S
C63 O68 1.247 . S
C63 O69 1.208 . S
C64 O56 1.315 . S
C64 O59 1.279 . S
C65 O66 1.315 . S
C65 O67 1.279 . S
O66 Cd58 2.223 . S
O66 C65 1.315 . S
O67 Cd57 2.240 . S
O67 C65 1.279 . S
O68 Cd58 2.297 . S
O68 C63 1.247 . S
O69 Cd58 2.439 . S
O69 C63 1.208 . S
O70 Cd71 2.223 . S
O70 C78 1.315 . S
Cd71 O70 2.223 . S
Cd71 O74 2.297 . S
Cd71 O75 2.439 . S
Cd71 O81 2.240 . S
Cd72 O73 2.240 . S
Cd72 O80 2.223 . S
Cd72 O82 2.297 . S
Cd72 O83 2.439 . S
O73 Cd72 2.240 . S
O73 C78 1.279 . S
O74 Cd71 2.297 . S
O74 C76 1.247 . S
O75 Cd71 2.439 . S
O75 C76 1.208 . S
C76 O74 1.247 . S
C76 O75 1.208 . S
C77 O82 1.247 . S
C77 O83 1.208 . S
C78 O70 1.315 . S
C78 O73 1.279 . S
C79 O80 1.315 . S
C79 O81 1.279 . S
O80 Cd72 2.223 . S
O80 C79 1.315 . S
O81 Cd71 2.240 . S
O81 C79 1.279 . S
O82 Cd72 2.297 . S
O82 C77 1.247 . S
O83 Cd72 2.439 . S
O83 C77 1.208 . S
O84 Cd85 2.223 . S
O84 C92 1.315 . S
Cd85 O84 2.223 . S
Cd85 O88 2.297 . S
Cd85 O89 2.439 . S
Cd85 O95 2.240 . S
Cd86 O87 2.240 . S
Cd86 O94 2.223 . S
Cd86 O96 2.297 . S
Cd86 O97 2.439 . S
O87 Cd86 2.240 . S
O87 C92 1.279 . S
O88 Cd85 2.297 . S
O88 C90 1.247 . S
O89 Cd85 2.439 . S
O89 C90 1.208 . S
C90 O88 1.247 . S
C90 O89 1.208 . S
C91 O96 1.247 . S
C91 O97 1.208 . S
C92 O84 1.315 . S
C92 O87 1.279 . S
C93 O94 1.315 . S
C93 O95 1.279 . S
O94 Cd86 2.223 . S
O94 C93 1.315 . S
O95 Cd85 2.240 . S
O95 C93 1.279 . S
O96 Cd86 2.297 . S
O96 C91 1.247 . S
O97 Cd86 2.439 . S
O97 C91 1.208 . S
O98 Cd99 2.223 . S
O98 C106 1.315 . S
Cd99 O98 2.223 . S
Cd99 O102 2.297 . S
Cd99 O103 2.439 . S
Cd99 O109 2.240 . S
Cd100 O101 2.240 . S
Cd100 O108 2.223 . S
Cd100 O110 2.297 . S
Cd100 O111 2.439 . S
O101 Cd100 2.240 . S
O101 C106 1.279 . S
O102 Cd99 2.297 . S
O102 C104 1.247 . S
O103 Cd99 2.439 . S
O103 C104 1.208 . S
C104 O102 1.247 . S
C104 O103 1.208 . S
C105 O110 1.247 . S
C105 O111 1.208 . S
C106 O98 1.315 . S
C106 O101 1.279 . S
C107 O108 1.315 . S
C107 O109 1.279 . S
O108 Cd100 2.223 . S
O108 C107 1.315 . S
O109 Cd99 2.240 . S
O109 C107 1.279 . S
O110 Cd100 2.297 . S
O110 C105 1.247 . S
O111 Cd100 2.439 . S
O111 C105 1.208 . S
O112 Cd113 2.223 . S
O112 C120 1.315 . S
Cd113 O112 2.223 . S
Cd113 O116 2.297 . S
Cd113 O117 2.439 . S
Cd113 O123 2.240 . S
Cd114 O115 2.240 . S
Cd114 O122 2.223 . S
Cd114 O124 2.297 . S
Cd114 O125 2.439 . S
O115 Cd114 2.240 . S
O115 C120 1.279 . S
O116 Cd113 2.297 . S
O116 C118 1.247 . S
O117 Cd113 2.439 . S
O117 C118 1.208 . S
C118 O116 1.247 . S
C118 O117 1.208 . S
C119 O124 1.247 . S
C119 O125 1.208 . S
C120 O112 1.315 . S
C120 O115 1.279 . S
C121 O122 1.315 . S
C121 O123 1.279 . S
O122 Cd114 2.223 . S
O122 C121 1.315 . S
O123 Cd113 2.240 . S
O123 C121 1.279 . S
O124 Cd114 2.297 . S
O124 C119 1.247 . S
O125 Cd114 2.439 . S
O125 C119 1.208 . S
O126 Cd127 2.223 . S
O126 C134 1.315 . S
Cd127 O126 2.223 . S
Cd127 O130 2.297 . S
Cd127 O131 2.439 . S
Cd127 O137 2.240 . S
Cd128 O129 2.240 . S
Cd128 O136 2.223 . S
Cd128 O138 2.297 . S
Cd128 O139 2.439 . S
O129 Cd128 2.240 . S
O129 C134 1.279 . S
O130 Cd127 2.297 . S
O130 C132 1.247 . S
O131 Cd127 2.439 . S
O131 C132 1.208 . S
C132 O130 1.247 . S
C132 O131 1.208 . S
C133 O138 1.247 . S
C133 O139 1.208 . S
C134 O126 1.315 . S
C134 O129 1.279 . S
C135 O136 1.315 . S
C135 O137 1.279 . S
O136 Cd128 2.223 . S
O136 C135 1.315 . S
O137 Cd127 2.240 . S
O137 C135 1.279 . S
O138 Cd128 2.297 . S
O138 C133 1.247 . S
O139 Cd128 2.439 . S
O139 C133 1.208 . S
O140 Cd141 2.223 . S
O140 C148 1.315 . S
Cd141 O140 2.223 . S
Cd141 O144 2.297 . S
Cd141 O145 2.439 . S
Cd141 O151 2.240 . S
Cd142 O143 2.240 . S
Cd142 O150 2.223 . S
Cd142 O152 2.297 . S
Cd142 O153 2.439 . S
O143 Cd142 2.240 . S
O143 C148 1.279 . S
O144 Cd141 2.297 . S
O144 C146 1.247 . S
O145 Cd141 2.439 . S
O145 C146 1.208 . S
C146 O144 1.247 . S
C146 O145 1.208 . S
C147 O152 1.247 . S
C147 O153 1.208 . S
C148 O140 1.315 . S
C148 O143 1.279 . S
C149 O150 1.315 . S
C149 O151 1.279 . S
O150 Cd142 2.223 . S
O150 C149 1.315 . S
O151 Cd141 2.240 . S
O151 C149 1.279 . S
O152 Cd142 2.297 . S
O152 C147 1.247 . S
O153 Cd142 2.439 . S
O153 C147 1.208 . S
O154 Cd155 2.223 . S
O154 C162 1.315 . S
Cd155 O154 2.223 . S
Cd155 O158 2.297 . S
Cd155 O159 2.439 . S
Cd155 O165 2.240 . S
Cd156 O157 2.240 . S
Cd156 O164 2.223 . S
Cd156 O166 2.297 . S
Cd156 O167 2.439 . S
O157 Cd156 2.240 . S
O157 C162 1.279 . S
O158 Cd155 2.297 . S
O158 C160 1.247 . S
O159 Cd155 2.439 . S
O159 C160 1.208 . S
C160 O158 1.247 . S
C160 O159 1.208 . S
C161 O166 1.247 . S
C161 O167 1.208 . S
C162 O154 1.315 . S
C162 O157 1.279 . S
C163 O164 1.315 . S
C163 O165 1.279 . S
O164 Cd156 2.223 . S
O164 C163 1.315 . S
O165 Cd155 2.240 . S
O165 C163 1.279 . S
O166 Cd156 2.297 . S
O166 C161 1.247 . S
O167 Cd156 2.439 . S
O167 C161 1.208 . S
O168 Cd169 2.223 . S
O168 C176 1.315 . S
Cd169 O168 2.223 . S
Cd169 O172 2.297 . S
Cd169 O173 2.439 . S
Cd169 O179 2.240 . S
Cd170 O171 2.240 . S
Cd170 O178 2.223 . S
Cd170 O180 2.297 . S
Cd170 O181 2.439 . S
O171 Cd170 2.240 . S
O171 C176 1.279 . S
O172 Cd169 2.297 . S
O172 C174 1.247 . S
O173 Cd169 2.439 . S
O173 C174 1.208 . S
C174 O172 1.247 . S
C174 O173 1.208 . S
C175 O180 1.247 . S
C175 O181 1.208 . S
C176 O168 1.315 . S
C176 O171 1.279 . S
C177 O178 1.315 . S
C177 O179 1.279 . S
O178 Cd170 2.223 . S
O178 C177 1.315 . S
O179 Cd169 2.240 . S
O179 C177 1.279 . S
O180 Cd170 2.297 . S
O180 C175 1.247 . S
O181 Cd170 2.439 . S
O181 C175 1.208 . S
O182 Cd183 2.223 . S
O182 C190 1.315 . S
Cd183 O182 2.223 . S
Cd183 O186 2.297 . S
Cd183 O187 2.439 . S
Cd183 O193 2.240 . S
Cd184 O185 2.240 . S
Cd184 O192 2.223 . S
Cd184 O194 2.297 . S
Cd184 O195 2.439 . S
O185 Cd184 2.240 . S
O185 C190 1.279 . S
O186 Cd183 2.297 . S
O186 C188 1.247 . S
O187 Cd183 2.439 . S
O187 C188 1.208 . S
C188 O186 1.247 . S
C188 O187 1.208 . S
C189 O194 1.247 . S
C189 O195 1.208 . S
C190 O182 1.315 . S
C190 O185 1.279 . S
C191 O192 1.315 . S
C191 O193 1.279 . S
O192 Cd184 2.223 . S
O192 C191 1.315 . S
O193 Cd183 2.240 . S
O193 C191 1.279 . S
O194 Cd184 2.297 . S
O194 C189 1.247 . S
O195 Cd184 2.439 . S
O195 C189 1.208 . S
O196 Cd197 2.223 . S
O196 C204 1.315 . S
Cd197 O196 2.223 . S
Cd197 O200 2.297 . S
Cd197 O201 2.439 . S
Cd197 O207 2.240 . S
Cd198 O199 2.240 . S
Cd198 O206 2.223 . S
Cd198 O208 2.297 . S
Cd198 O209 2.439 . S
O199 Cd198 2.240 . S
O199 C204 1.279 . S
O200 Cd197 2.297 . S
O200 C202 1.247 . S
O201 Cd197 2.439 . S
O201 C202 1.208 . S
C202 O200 1.247 . S
C202 O201 1.208 . S
C203 O208 1.247 . S
C203 O209 1.208 . S
C204 O196 1.315 . S
C204 O199 1.279 . S
C205 O206 1.315 . S
C205 O207 1.279 . S
O206 Cd198 2.223 . S
O206 C205 1.315 . S
O207 Cd197 2.240 . S
O207 C205 1.279 . S
O208 Cd198 2.297 . S
O208 C203 1.247 . S
O209 Cd198 2.439 . S
O209 C203 1.208 . S
O210 Cd211 2.223 . S
O210 C218 1.315 . S
Cd211 O210 2.223 . S
Cd211 O214 2.297 . S
Cd211 O215 2.439 . S
Cd211 O221 2.240 . S
Cd212 O213 2.240 . S
Cd212 O220 2.223 . S
Cd212 O222 2.297 . S
Cd212 O223 2.439 . S
O213 Cd212 2.240 . S
O213 C218 1.279 . S
O214 Cd211 2.297 . S
O214 C216 1.247 . S
O215 Cd211 2.439 . S
O215 C216 1.208 . S
C216 O214 1.247 . S
C216 O215 1.208 . S
C217 O222 1.247 . S
C217 O223 1.208 . S
C218 O210 1.315 . S
C218 O213 1.279 . S
C219 O220 1.315 . S
C219 O221 1.279 . S
O220 Cd212 2.223 . S
O220 C219 1.315 . S
O221 Cd211 2.240 . S
O221 C219 1.279 . S
O222 Cd212 2.297 . S
O222 C217 1.247 . S
O223 Cd212 2.439 . S
O223 C217 1.208 . S
O224 Cd225 2.223 . S
O224 C232 1.315 . S
Cd225 O224 2.223 . S
Cd225 O228 2.297 . S
Cd225 O229 2.439 . S
Cd225 O235 2.240 . S
Cd226 O227 2.240 . S
Cd226 O234 2.223 . S
Cd226 O236 2.297 . S
Cd226 O237 2.439 . S
O227 Cd226 2.240 . S
O227 C232 1.279 . S
O228 Cd225 2.297 . S
O228 C230 1.247 . S
O229 Cd225 2.439 . S
O229 C230 1.208 . S
C230 O228 1.247 . S
C230 O229 1.208 . S
C231 O236 1.247 . S
C231 O237 1.208 . S
C232 O224 1.315 . S
C232 O227 1.279 . S
C233 O234 1.315 . S
C233 O235 1.279 . S
O234 Cd226 2.223 . S
O234 C233 1.315 . S
O235 Cd225 2.240 . S
O235 C233 1.279 . S
O236 Cd226 2.297 . S
O236 C231 1.247 . S
O237 Cd226 2.439 . S
O237 C231 1.208 . S
O238 Cd239 2.223 . S
O238 C246 1.315 . S
Cd239 O238 2.223 . S
Cd239 O242 2.297 . S
Cd239 O243 2.439 . S
Cd239 O249 2.240 . S
Cd240 O241 2.240 . S
Cd240 O248 2.223 . S
Cd240 O250 2.297 . S
Cd240 O251 2.439 . S
O241 Cd240 2.240 . S
O241 C246 1.279 . S
O242 Cd239 2.297 . S
O242 C244 1.247 . S
O243 Cd239 2.439 . S
O243 C244 1.208 . S
C244 O242 1.247 . S
C244 O243 1.208 . S
C245 O250 1.247 . S
C245 O251 1.208 . S
C246 O238 1.315 . S
C246 O241 1.279 . S
C247 O248 1.315 . S
C247 O249 1.279 . S
O248 Cd240 2.223 . S
O248 C247 1.315 . S
O249 Cd239 2.240 . S
O249 C247 1.279 . S
O250 Cd240 2.297 . S
O250 C245 1.247 . S
O251 Cd240 2.439 . S
O251 C245 1.208 . S
O252 Cd253 2.223 . S
O252 C260 1.315 . S
Cd253 O252 2.223 . S
Cd253 O256 2.297 . S
Cd253 O257 2.439 . S
Cd253 O263 2.240 . S
Cd254 O255 2.240 . S
Cd254 O262 2.223 . S
Cd254 O264 2.297 . S
Cd254 O265 2.439 . S
O255 Cd254 2.240 . S
O255 C260 1.279 . S
O256 Cd253 2.297 . S
O256 C258 1.247 . S
O257 Cd253 2.439 . S
O257 C258 1.208 . S
C258 O256 1.247 . S
C258 O257 1.208 . S
C259 O264 1.247 . S
C259 O265 1.208 . S
C260 O252 1.315 . S
C260 O255 1.279 . S
C261 O262 1.315 . S
C261 O263 1.279 . S
O262 Cd254 2.223 . S
O262 C261 1.315 . S
O263 Cd253 2.240 . S
O263 C261 1.279 . S
O264 Cd254 2.297 . S
O264 C259 1.247 . S
O265 Cd254 2.439 . S
O265 C259 1.208 . S
O266 Cd267 2.223 . S
O266 C274 1.315 . S
Cd267 O266 2.223 . S
Cd267 O270 2.297 . S
Cd267 O271 2.439 . S
Cd267 O277 2.240 . S
Cd268 O269 2.240 . S
Cd268 O276 2.223 . S
Cd268 O278 2.297 . S
Cd268 O279 2.439 . S
O269 Cd268 2.240 . S
O269 C274 1.279 . S
O270 Cd267 2.297 . S
O270 C272 1.247 . S
O271 Cd267 2.439 . S
O271 C272 1.208 . S
C272 O270 1.247 . S
C272 O271 1.208 . S
C273 O278 1.247 . S
C273 O279 1.208 . S
C274 O266 1.315 . S
C274 O269 1.279 . S
C275 O276 1.315 . S
C275 O277 1.279 . S
O276 Cd268 2.223 . S
O276 C275 1.315 . S
O277 Cd267 2.240 . S
O277 C275 1.279 . S
O278 Cd268 2.297 . S
O278 C273 1.247 . S
O279 Cd268 2.439 . S
O279 C273 1.208 . S
O280 Cd281 2.223 . S
O280 C288 1.315 . S
Cd281 O280 2.223 . S
Cd281 O284 2.297 . S
Cd281 O285 2.439 . S
Cd281 O291 2.240 . S
Cd282 O283 2.240 . S
Cd282 O290 2.223 . S
Cd282 O292 2.297 . S
Cd282 O293 2.439 . S
O283 Cd282 2.240 . S
O283 C288 1.279 . S
O284 Cd281 2.297 . S
O284 C286 1.247 . S
O285 Cd281 2.439 . S
O285 C286 1.208 . S
C286 O284 1.247 . S
C286 O285 1.208 . S
C287 O292 1.247 . S
C287 O293 1.208 . S
C288 O280 1.315 . S
C288 O283 1.279 . S
C289 O290 1.315 . S
C289 O291 1.279 . S
O290 Cd282 2.223 . S
O290 C289 1.315 . S
O291 Cd281 2.240 . S
O291 C289 1.279 . S
O292 Cd282 2.297 . S
O292 C287 1.247 . S
O293 Cd282 2.439 . S
O293 C287 1.208 . S
O294 Cd295 2.223 . S
O294 C302 1.315 . S
Cd295 O294 2.223 . S
Cd295 O298 2.297 . S
Cd295 O299 2.439 . S
Cd295 O305 2.240 . S
Cd296 O297 2.240 . S
Cd296 O304 2.223 . S
Cd296 O306 2.297 . S
Cd296 O307 2.439 . S
O297 Cd296 2.240 . S
O297 C302 1.279 . S
O298 Cd295 2.297 . S
O298 C300 1.247 . S
O299 Cd295 2.439 . S
O299 C300 1.208 . S
C300 O298 1.247 . S
C300 O299 1.208 . S
C301 O306 1.247 . S
C301 O307 1.208 . S
C302 O294 1.315 . S
C302 O297 1.279 . S
C303 O304 1.315 . S
C303 O305 1.279 . S
O304 Cd296 2.223 . S
O304 C303 1.315 . S
O305 Cd295 2.240 . S
O305 C303 1.279 . S
O306 Cd296 2.297 . S
O306 C301 1.247 . S
O307 Cd296 2.439 . S
O307 C301 1.208 . S
O308 Cd309 2.223 . S
O308 C316 1.315 . S
Cd309 O308 2.223 . S
Cd309 O312 2.297 . S
Cd309 O313 2.439 . S
Cd309 O319 2.240 . S
Cd310 O311 2.240 . S
Cd310 O318 2.223 . S
Cd310 O320 2.297 . S
Cd310 O321 2.439 . S
O311 Cd310 2.240 . S
O311 C316 1.279 . S
O312 Cd309 2.297 . S
O312 C314 1.247 . S
O313 Cd309 2.439 . S
O313 C314 1.208 . S
C314 O312 1.247 . S
C314 O313 1.208 . S
C315 O320 1.247 . S
C315 O321 1.208 . S
C316 O308 1.315 . S
C316 O311 1.279 . S
C317 O318 1.315 . S
C317 O319 1.279 . S
O318 Cd310 2.223 . S
O318 C317 1.315 . S
O319 Cd309 2.240 . S
O319 C317 1.279 . S
O320 Cd310 2.297 . S
O320 C315 1.247 . S
O321 Cd310 2.439 . S
O321 C315 1.208 . S
O322 Cd323 2.223 . S
O322 C330 1.315 . S
Cd323 O322 2.223 . S
Cd323 O326 2.297 . S
Cd323 O327 2.439 . S
Cd323 O333 2.240 . S
Cd324 O325 2.240 . S
Cd324 O332 2.223 . S
Cd324 O334 2.297 . S
Cd324 O335 2.439 . S
O325 Cd324 2.240 . S
O325 C330 1.279 . S
O326 Cd323 2.297 . S
O326 C328 1.247 . S
O327 Cd323 2.439 . S
O327 C328 1.208 . S
C328 O326 1.247 . S
C328 O327 1.208 . S
C329 O334 1.247 . S
C329 O335 1.208 . S
C330 O322 1.315 . S
C330 O325 1.279 . S
C331 O332 1.315 . S
C331 O333 1.279 . S
O332 Cd324 2.223 . S
O332 C331 1.315 . S
O333 Cd323 2.240 . S
O333 C331 1.279 . S
O334 Cd324 2.297 . S
O334 C329 1.247 . S
O335 Cd324 2.439 . S
O335 C329 1.208 . S
C336 C337 1.391 . S
C336 C338 1.394 . S
C336 H352 0.931 . S
C337 C336 1.391 . S
C337 C341 1.376 . S
C338 C336 1.394 . S
C338 C339 1.369 . S
C338 C342 1.531 . S
C339 C338 1.369 . S
C339 C340 1.410 . S
C339 C347 1.503 . S
C340 C339 1.410 . S
C340 C341 1.392 . S
C340 C343 1.511 . S
C341 C337 1.376 . S
C341 C340 1.392 . S
C341 H353 0.929 . S
C342 C338 1.531 . S
C342 H354 0.960 . S
C342 H355 0.962 . S
C342 H356 0.960 . S
C343 C340 1.511 . S
C343 H357 0.961 . S
C343 H358 0.961 . S
C343 H359 0.961 . S
C344 C345 1.370 . S
C344 C346 1.363 . S
C344 H360 0.931 . S
C345 C344 1.370 . S
C345 C349 1.408 . S
C346 C344 1.363 . S
C346 C347 1.370 . S
C346 C350 1.524 . S
C347 C339 1.503 . S
C347 C346 1.370 . S
C347 C348 1.403 . S
C348 C347 1.403 . S
C348 C349 1.404 . S
C348 C351 1.539 . S
C349 C345 1.408 . S
C349 C348 1.404 . S
C349 H361 0.930 . S
C350 C346 1.524 . S
C350 H362 0.956 . S
C350 H363 0.961 . S
C350 H364 0.961 . S
C351 C348 1.539 . S
C351 H365 0.958 . S
C351 H366 0.961 . S
C351 H367 0.960 . S
H352 C336 0.931 . S
H353 C341 0.929 . S
H354 C342 0.960 . S
H355 C342 0.962 . S
H356 C342 0.960 . S
H357 C343 0.961 . S
H358 C343 0.961 . S
H359 C343 0.961 . S
H360 C344 0.931 . S
H361 C349 0.930 . S
H362 C350 0.956 . S
H363 C350 0.961 . S
H364 C350 0.961 . S
H365 C351 0.958 . S
H366 C351 0.961 . S
H367 C351 0.960 . S
C368 C369 1.391 . S
C368 C370 1.394 . S
C368 H384 0.931 . S
C369 C368 1.391 . S
C369 C373 1.369 1_455 S
C370 C368 1.394 . S
C370 C371 1.369 . S
C370 C374 1.531 . S
C371 C370 1.369 . S
C371 C372 1.410 . S
C371 C379 1.503 . S
C372 C371 1.410 . S
C372 C373 1.374 1_455 S
C372 C375 1.511 . S
C373 C369 1.369 1_655 S
C373 C372 1.374 1_655 S
C373 H385 0.955 . S
C374 C370 1.531 . S
C374 H386 0.960 . S
C374 H387 0.962 . S
C374 H388 0.960 . S
C375 C372 1.511 . S
C375 H389 0.961 1_455 S
C375 H390 0.961 . S
C375 H391 0.961 . S
C376 C377 1.370 . S
C376 C378 1.363 . S
C376 H392 0.931 . S
C377 C376 1.370 . S
C377 C381 1.408 . S
C378 C376 1.363 . S
C378 C379 1.370 . S
C378 C382 1.524 . S
C379 C371 1.503 . S
C379 C378 1.370 . S
C379 C380 1.403 . S
C380 C379 1.403 . S
C380 C381 1.404 . S
C380 C383 1.539 . S
C381 C377 1.408 . S
C381 C380 1.404 . S
C381 H393 0.930 . S
C382 C378 1.524 . S
C382 H394 0.956 . S
C382 H395 0.961 . S
C382 H396 0.961 . S
C383 C380 1.539 . S
C383 H397 0.958 . S
C383 H398 0.961 . S
C383 H399 0.960 . S
H384 C368 0.931 . S
H385 C373 0.955 . S
H386 C374 0.960 . S
H387 C374 0.962 . S
H388 C374 0.960 . S
H389 C375 0.961 1_655 S
H390 C375 0.961 . S
H391 C375 0.961 . S
H392 C376 0.931 . S
H393 C381 0.930 . S
H394 C382 0.956 . S
H395 C382 0.961 . S
H396 C382 0.961 . S
H397 C383 0.958 . S
H398 C383 0.961 . S
H399 C383 0.960 . S
C400 C401 1.391 . S
C400 C402 1.394 . S
C400 H416 0.931 . S
C401 C400 1.391 . S
C401 C405 1.376 . S
C402 C400 1.394 . S
C402 C403 1.369 . S
C402 C406 1.531 . S
C403 C402 1.369 . S
C403 C404 1.410 . S
C403 C411 1.503 . S
C404 C403 1.410 . S
C404 C405 1.392 . S
C404 C407 1.511 . S
C405 C401 1.376 . S
C405 C404 1.392 . S
C405 H417 0.929 . S
C406 C402 1.531 . S
C406 H418 0.960 . S
C406 H419 0.962 . S
C406 H420 0.960 . S
C407 C404 1.511 . S
C407 H421 0.961 . S
C407 H422 0.961 . S
C407 H423 0.961 . S
C408 C409 1.364 1_554 S
C408 C410 1.345 1_554 S
C408 H424 0.957 . S
C409 C408 1.364 1_556 S
C409 C413 1.408 . S
C410 C408 1.345 1_556 S
C410 C411 1.370 . S
C410 C414 1.524 . S
C411 C403 1.503 . S
C411 C410 1.370 . S
C411 C412 1.403 . S
C412 C411 1.403 . S
C412 C413 1.404 . S
C412 C415 1.539 . S
C413 C409 1.408 . S
C413 C412 1.404 . S
C413 H425 0.930 . S
C414 C410 1.524 . S
C414 H426 0.956 . S
C414 H427 0.961 . S
C414 H428 0.961 1_556 S
C415 C412 1.539 . S
C415 H429 0.958 . S
C415 H430 0.961 . S
C415 H431 0.960 . S
H416 C400 0.931 . S
H417 C405 0.929 . S
H418 C406 0.960 . S
H419 C406 0.962 . S
H420 C406 0.960 . S
H421 C407 0.961 . S
H422 C407 0.961 . S
H423 C407 0.961 . S
H424 C408 0.957 . S
H425 C413 0.930 . S
H426 C414 0.956 . S
H427 C414 0.961 . S
H428 C414 0.961 1_554 S
H429 C415 0.958 . S
H430 C415 0.961 . S
H431 C415 0.960 . S
C432 C433 1.391 . S
C432 C434 1.394 . S
C432 H448 0.931 . S
C433 C432 1.391 . S
C433 C437 1.376 . S
C434 C432 1.394 . S
C434 C435 1.369 . S
C434 C438 1.531 . S
C435 C434 1.369 . S
C435 C436 1.410 . S
C435 C443 1.503 . S
C436 C435 1.410 . S
C436 C437 1.392 . S
C436 C439 1.511 . S
C437 C433 1.376 . S
C437 C436 1.392 . S
C437 H449 0.929 . S
C438 C434 1.531 . S
C438 H450 0.960 . S
C438 H451 0.962 . S
C438 H452 0.960 . S
C439 C436 1.511 . S
C439 H453 0.961 . S
C439 H454 0.961 . S
C439 H455 0.961 . S
C440 C441 1.370 . S
C440 C442 1.363 . S
C440 H456 0.931 . S
C441 C440 1.370 . S
C441 C445 1.408 . S
C442 C440 1.363 . S
C442 C443 1.370 . S
C442 C446 1.524 . S
C443 C435 1.503 . S
C443 C442 1.370 . S
C443 C444 1.403 . S
C444 C443 1.403 . S
C444 C445 1.404 . S
C444 C447 1.539 . S
C445 C441 1.408 . S
C445 C444 1.404 . S
C445 H457 0.930 . S
C446 C442 1.524 . S
C446 H458 0.956 . S
C446 H459 0.961 . S
C446 H460 0.961 . S
C447 C444 1.539 . S
C447 H461 0.958 . S
C447 H462 0.961 . S
C447 H463 0.960 . S
H448 C432 0.931 . S
H449 C437 0.929 . S
H450 C438 0.960 . S
H451 C438 0.962 . S
H452 C438 0.960 . S
H453 C439 0.961 . S
H454 C439 0.961 . S
H455 C439 0.961 . S
H456 C440 0.931 . S
H457 C445 0.930 . S
H458 C446 0.956 . S
H459 C446 0.961 . S
H460 C446 0.961 . S
H461 C447 0.958 . S
H462 C447 0.961 . S
H463 C447 0.960 . S
C464 C465 1.391 . S
C464 C466 1.394 . S
C464 H480 0.931 . S
C465 C464 1.391 . S
C465 C469 1.376 . S
C466 C464 1.394 . S
C466 C467 1.369 . S
C466 C470 1.531 . S
C467 C466 1.369 . S
C467 C468 1.410 . S
C467 C475 1.503 . S
C468 C467 1.410 . S
C468 C469 1.392 . S
C468 C471 1.511 . S
C469 C465 1.376 . S
C469 C468 1.392 . S
C469 H481 0.929 . S
C470 C466 1.531 . S
C470 H482 0.960 . S
C470 H483 0.962 . S
C470 H484 0.960 . S
C471 C468 1.511 . S
C471 H485 0.961 . S
C471 H486 0.961 . S
C471 H487 0.961 . S
C472 C473 1.370 . S
C472 C474 1.363 . S
C472 H488 0.931 . S
C473 C472 1.370 . S
C473 C477 1.408 . S
C474 C472 1.363 . S
C474 C475 1.370 . S
C474 C478 1.524 . S
C475 C467 1.503 . S
C475 C474 1.370 . S
C475 C476 1.403 . S
C476 C475 1.403 . S
C476 C477 1.404 . S
C476 C479 1.539 . S
C477 C473 1.408 . S
C477 C476 1.404 . S
C477 H489 0.930 . S
C478 C474 1.524 . S
C478 H490 0.956 . S
C478 H491 0.961 . S
C478 H492 0.961 . S
C479 C476 1.539 . S
C479 H493 0.958 . S
C479 H494 0.961 . S
C479 H495 0.960 . S
H480 C464 0.931 . S
H481 C469 0.929 . S
H482 C470 0.960 . S
H483 C470 0.962 . S
H484 C470 0.960 . S
H485 C471 0.961 . S
H486 C471 0.961 . S
H487 C471 0.961 . S
H488 C472 0.931 . S
H489 C477 0.930 . S
H490 C478 0.956 . S
H491 C478 0.961 . S
H492 C478 0.961 . S
H493 C479 0.958 . S
H494 C479 0.961 . S
H495 C479 0.960 . S
C496 C497 1.391 . S
C496 C498 1.394 . S
C496 H512 0.931 . S
C497 C496 1.391 . S
C497 C501 1.376 . S
C498 C496 1.394 . S
C498 C499 1.369 . S
C498 C502 1.531 . S
C499 C498 1.369 . S
C499 C500 1.410 . S
C499 C507 1.503 . S
C500 C499 1.410 . S
C500 C501 1.392 . S
C500 C503 1.511 . S
C501 C497 1.376 . S
C501 C500 1.392 . S
C501 H513 0.929 . S
C502 C498 1.531 . S
C502 H514 0.960 . S
C502 H515 0.962 . S
C502 H516 0.960 . S
C503 C500 1.511 . S
C503 H517 0.961 . S
C503 H518 0.961 . S
C503 H519 0.961 . S
C504 C505 1.370 . S
C504 C506 1.363 . S
C504 H520 0.931 . S
C505 C504 1.370 . S
C505 C509 1.408 . S
C506 C504 1.363 . S
C506 C507 1.370 . S
C506 C510 1.524 . S
C507 C499 1.503 . S
C507 C506 1.370 . S
C507 C508 1.403 . S
C508 C507 1.403 . S
C508 C509 1.404 . S
C508 C511 1.539 . S
C509 C505 1.408 . S
C509 C508 1.404 . S
C509 H521 0.930 . S
C510 C506 1.524 . S
C510 H522 0.956 . S
C510 H523 0.961 . S
C510 H524 0.961 . S
C511 C508 1.539 . S
C511 H525 0.958 . S
C511 H526 0.961 . S
C511 H527 0.960 . S
H512 C496 0.931 . S
H513 C501 0.929 . S
H514 C502 0.960 . S
H515 C502 0.962 . S
H516 C502 0.960 . S
H517 C503 0.961 . S
H518 C503 0.961 . S
H519 C503 0.961 . S
H520 C504 0.931 . S
H521 C509 0.930 . S
H522 C510 0.956 . S
H523 C510 0.961 . S
H524 C510 0.961 . S
H525 C511 0.958 . S
H526 C511 0.961 . S
H527 C511 0.960 . S
C528 C529 1.391 . S
C528 C530 1.394 . S
C528 H544 0.931 . S
C529 C528 1.391 . S
C529 C533 1.376 . S
C530 C528 1.394 . S
C530 C531 1.369 . S
C530 C534 1.531 . S
C531 C530 1.369 . S
C531 C532 1.410 . S
C531 C539 1.503 . S
C532 C531 1.410 . S
C532 C533 1.392 . S
C532 C535 1.511 . S
C533 C529 1.376 . S
C533 C532 1.392 . S
C533 H545 0.929 . S
C534 C530 1.531 . S
C534 H546 0.960 . S
C534 H547 0.962 . S
C534 H548 0.960 . S
C535 C532 1.511 . S
C535 H549 0.961 . S
C535 H550 0.961 . S
C535 H551 0.961 . S
C536 C537 1.370 . S
C536 C538 1.363 . S
C536 H552 0.931 1_554 S
C537 C536 1.370 . S
C537 C541 1.408 . S
C538 C536 1.363 . S
C538 C539 1.370 . S
C538 C542 1.524 . S
C539 C531 1.503 . S
C539 C538 1.370 . S
C539 C540 1.403 . S
C540 C539 1.403 . S
C540 C541 1.404 . S
C540 C543 1.539 . S
C541 C537 1.408 . S
C541 C540 1.404 . S
C541 H553 0.930 . S
C542 C538 1.524 . S
C542 H554 0.956 . S
C542 H555 0.961 . S
C542 H556 0.961 1_554 S
C543 C540 1.539 . S
C543 H557 0.958 . S
C543 H558 0.961 . S
C543 H559 0.960 . S
H544 C528 0.931 . S
H545 C533 0.929 . S
H546 C534 0.960 . S
H547 C534 0.962 . S
H548 C534 0.960 . S
H549 C535 0.961 . S
H550 C535 0.961 . S
H551 C535 0.961 . S
H552 C536 0.931 1_556 S
H553 C541 0.930 . S
H554 C542 0.956 . S
H555 C542 0.961 . S
H556 C542 0.961 1_556 S
H557 C543 0.958 . S
H558 C543 0.961 . S
H559 C543 0.960 . S
C560 C561 1.391 . S
C560 C562 1.394 . S
C560 H576 0.931 . S
C561 C560 1.391 . S
C561 C565 1.376 . S
C562 C560 1.394 . S
C562 C563 1.369 . S
C562 C566 1.531 . S
C563 C562 1.369 . S
C563 C564 1.410 . S
C563 C571 1.503 . S
C564 C563 1.410 . S
C564 C565 1.392 . S
C564 C567 1.511 . S
C565 C561 1.376 . S
C565 C564 1.392 . S
C565 H577 0.929 . S
C566 C562 1.531 . S
C566 H578 0.960 . S
C566 H579 0.962 . S
C566 H580 0.960 . S
C567 C564 1.511 . S
C567 H581 0.961 . S
C567 H582 0.961 . S
C567 H583 0.961 . S
C568 C569 1.370 . S
C568 C570 1.363 . S
C568 H584 0.931 . S
C569 C568 1.370 . S
C569 C573 1.408 . S
C570 C568 1.363 . S
C570 C571 1.370 . S
C570 C574 1.524 . S
C571 C563 1.503 . S
C571 C570 1.370 . S
C571 C572 1.403 . S
C572 C571 1.403 . S
C572 C573 1.404 . S
C572 C575 1.539 . S
C573 C569 1.408 . S
C573 C572 1.404 . S
C573 H585 0.930 . S
C574 C570 1.524 . S
C574 H586 0.956 . S
C574 H587 0.961 . S
C574 H588 0.961 . S
C575 C572 1.539 . S
C575 H589 0.958 . S
C575 H590 0.961 . S
C575 H591 0.960 . S
H576 C560 0.931 . S
H577 C565 0.929 . S
H578 C566 0.960 . S
H579 C566 0.962 . S
H580 C566 0.960 . S
H581 C567 0.961 . S
H582 C567 0.961 . S
H583 C567 0.961 . S
H584 C568 0.931 . S
H585 C573 0.930 . S
H586 C574 0.956 . S
H587 C574 0.961 . S
H588 C574 0.961 . S
H589 C575 0.958 . S
H590 C575 0.961 . S
H591 C575 0.960 . S
C592 C593 1.391 . S
C592 C594 1.394 . S
C592 H608 0.931 . S
C593 C592 1.391 . S
C593 C597 1.376 . S
C594 C592 1.394 . S
C594 C595 1.369 . S
C594 C598 1.531 . S
C595 C594 1.369 . S
C595 C596 1.410 . S
C595 C603 1.503 . S
C596 C595 1.410 . S
C596 C597 1.392 . S
C596 C599 1.511 . S
C597 C593 1.376 . S
C597 C596 1.392 . S
C597 H609 0.929 . S
C598 C594 1.531 . S
C598 H610 0.960 . S
C598 H611 0.962 . S
C598 H612 0.960 . S
C599 C596 1.511 . S
C599 H613 0.961 . S
C599 H614 0.961 . S
C599 H615 0.961 . S
C600 C601 1.370 . S
C600 C602 1.363 . S
C600 H616 0.931 . S
C601 C600 1.370 . S
C601 C605 1.408 . S
C602 C600 1.363 . S
C602 C603 1.370 . S
C602 C606 1.524 . S
C603 C595 1.503 . S
C603 C602 1.370 . S
C603 C604 1.403 . S
C604 C603 1.403 . S
C604 C605 1.404 . S
C604 C607 1.539 . S
C605 C601 1.408 . S
C605 C604 1.404 . S
C605 H617 0.930 . S
C606 C602 1.524 . S
C606 H618 0.956 . S
C606 H619 0.961 . S
C606 H620 0.961 . S
C607 C604 1.539 . S
C607 H621 0.958 . S
C607 H622 0.961 . S
C607 H623 0.960 . S
H608 C592 0.931 . S
H609 C597 0.929 . S
H610 C598 0.960 . S
H611 C598 0.962 . S
H612 C598 0.960 . S
H613 C599 0.961 . S
H614 C599 0.961 . S
H615 C599 0.961 . S
H616 C600 0.931 . S
H617 C605 0.930 . S
H618 C606 0.956 . S
H619 C606 0.961 . S
H620 C606 0.961 . S
H621 C607 0.958 . S
H622 C607 0.961 . S
H623 C607 0.960 . S
C624 C625 1.391 . S
C624 C626 1.394 . S
C624 H640 0.931 . S
C625 C624 1.391 . S
C625 C629 1.376 1_545 S
C626 C624 1.394 . S
C626 C627 1.369 . S
C626 C630 1.531 . S
C627 C626 1.369 . S
C627 C628 1.410 . S
C627 C635 1.503 . S
C628 C627 1.410 . S
C628 C629 1.392 1_545 S
C628 C631 1.511 . S
C629 C625 1.376 1_565 S
C629 C628 1.392 1_565 S
C629 H641 0.929 . S
C630 C626 1.531 . S
C630 H642 0.960 . S
C630 H643 0.962 . S
C630 H644 0.960 . S
C631 C628 1.511 . S
C631 H645 0.961 1_545 S
C631 H646 0.961 . S
C631 H647 0.957 1_545 S
C632 C633 1.370 . S
C632 C634 1.363 . S
C632 H648 0.931 . S
C633 C632 1.370 . S
C633 C637 1.408 . S
C634 C632 1.363 . S
C634 C635 1.370 . S
C634 C638 1.524 . S
C635 C627 1.503 . S
C635 C634 1.370 . S
C635 C636 1.403 . S
C636 C635 1.403 . S
C636 C637 1.404 . S
C636 C639 1.539 . S
C637 C633 1.408 . S
C637 C636 1.404 . S
C637 H649 0.930 . S
C638 C634 1.524 . S
C638 H650 0.956 . S
C638 H651 0.961 . S
C638 H652 0.961 . S
C639 C636 1.539 . S
C639 H653 0.958 . S
C639 H654 0.961 . S
C639 H655 0.960 . S
H640 C624 0.931 . S
H641 C629 0.929 . S
H642 C630 0.960 . S
H643 C630 0.962 . S
H644 C630 0.960 . S
H645 C631 0.961 1_565 S
H646 C631 0.961 . S
H647 C631 0.957 1_565 S
H648 C632 0.931 . S
H649 C637 0.930 . S
H650 C638 0.956 . S
H651 C638 0.961 . S
H652 C638 0.961 . S
H653 C639 0.958 . S
H654 C639 0.961 . S
H655 C639 0.960 . S
C656 C657 1.391 . S
C656 C658 1.394 . S
C656 H672 0.931 . S
C657 C656 1.391 . S
C657 C661 1.376 . S
C658 C656 1.394 . S
C658 C659 1.369 . S
C658 C662 1.531 . S
C659 C658 1.369 . S
C659 C660 1.410 . S
C659 C667 1.503 . S
C660 C659 1.410 . S
C660 C661 1.392 . S
C660 C663 1.511 . S
C661 C657 1.376 . S
C661 C660 1.392 . S
C661 H673 0.929 . S
C662 C658 1.531 . S
C662 H674 0.960 . S
C662 H675 0.962 . S
C662 H676 0.960 . S
C663 C660 1.511 . S
C663 H677 0.961 . S
C663 H678 0.961 . S
C663 H679 0.961 . S
C664 C665 1.370 . S
C664 C666 1.363 . S
C664 H680 0.931 . S
C665 C664 1.370 . S
C665 C669 1.408 . S
C666 C664 1.363 . S
C666 C667 1.370 . S
C666 C670 1.524 . S
C667 C659 1.503 . S
C667 C666 1.370 . S
C667 C668 1.403 . S
C668 C667 1.403 . S
C668 C669 1.404 . S
C668 C671 1.539 . S
C669 C665 1.408 . S
C669 C668 1.404 . S
C669 H681 0.930 1_565 S
C670 C666 1.524 . S
C670 H682 0.956 . S
C670 H683 0.961 . S
C670 H684 0.961 . S
C671 C668 1.539 . S
C671 H685 0.958 . S
C671 H686 0.961 . S
C671 H687 0.960 . S
H672 C656 0.931 . S
H673 C661 0.929 . S
H674 C662 0.960 . S
H675 C662 0.962 . S
H676 C662 0.960 . S
H677 C663 0.961 . S
H678 C663 0.961 . S
H679 C663 0.961 . S
H680 C664 0.931 . S
H681 C669 0.930 1_545 S
H682 C670 0.956 . S
H683 C670 0.961 . S
H684 C670 0.961 . S
H685 C671 0.958 . S
H686 C671 0.961 . S
H687 C671 0.960 . S
C688 C689 1.391 . S
C688 C690 1.394 . S
C688 H704 0.931 . S
C689 C688 1.391 . S
C689 C693 1.376 . S
C690 C688 1.394 . S
C690 C691 1.369 . S
C690 C694 1.531 . S
C691 C690 1.369 . S
C691 C692 1.410 . S
C691 C699 1.503 . S
C692 C691 1.410 . S
C692 C693 1.392 . S
C692 C695 1.511 . S
C693 C689 1.376 . S
C693 C692 1.392 . S
C693 H705 0.929 . S
C694 C690 1.531 . S
C694 H706 0.960 . S
C694 H707 0.962 . S
C694 H708 0.960 . S
C695 C692 1.511 . S
C695 H709 0.961 . S
C695 H710 0.961 . S
C695 H711 0.961 . S
C696 C697 1.370 . S
C696 C698 1.363 . S
C696 H712 0.931 . S
C697 C696 1.370 . S
C697 C701 1.408 . S
C698 C696 1.363 . S
C698 C699 1.370 . S
C698 C702 1.524 . S
C699 C691 1.503 . S
C699 C698 1.370 . S
C699 C700 1.403 . S
C700 C699 1.403 . S
C700 C701 1.404 . S
C700 C703 1.539 . S
C701 C697 1.408 . S
C701 C700 1.404 . S
C701 H713 0.930 . S
C702 C698 1.524 . S
C702 H714 0.956 . S
C702 H715 0.961 . S
C702 H716 0.961 . S
C703 C700 1.539 . S
C703 H717 0.958 . S
C703 H718 0.961 . S
C703 H719 0.960 . S
H704 C688 0.931 . S
H705 C693 0.929 . S
H706 C694 0.960 . S
H707 C694 0.962 . S
H708 C694 0.960 . S
H709 C695 0.961 . S
H710 C695 0.961 . S
H711 C695 0.961 . S
H712 C696 0.931 . S
H713 C701 0.930 . S
H714 C702 0.956 . S
H715 C702 0.961 . S
H716 C702 0.961 . S
H717 C703 0.958 . S
H718 C703 0.961 . S
H719 C703 0.960 . S
C720 C721 1.391 . S
C720 C722 1.394 . S
C720 H736 0.931 . S
C721 C720 1.391 . S
C721 C725 1.376 . S
C722 C720 1.394 . S
C722 C723 1.369 . S
C722 C726 1.531 . S
C723 C722 1.369 . S
C723 C724 1.410 . S
C723 C731 1.503 . S
C724 C723 1.410 . S
C724 C725 1.392 . S
C724 C727 1.511 . S
C725 C721 1.376 . S
C725 C724 1.392 . S
C725 H737 0.929 . S
C726 C722 1.531 . S
C726 H738 0.960 . S
C726 H739 0.962 . S
C726 H740 0.960 . S
C727 C724 1.511 . S
C727 H741 0.961 . S
C727 H742 0.961 . S
C727 H743 0.961 . S
C728 C729 1.370 . S
C728 C730 1.363 . S
C728 H744 0.931 . S
C729 C728 1.370 . S
C729 C733 1.408 . S
C730 C728 1.363 . S
C730 C731 1.370 . S
C730 C734 1.524 . S
C731 C723 1.503 . S
C731 C730 1.370 . S
C731 C732 1.403 . S
C732 C731 1.403 . S
C732 C733 1.404 . S
C732 C735 1.539 . S
C733 C729 1.408 . S
C733 C732 1.404 . S
C733 H745 0.930 . S
C734 C730 1.524 . S
C734 H746 0.956 . S
C734 H747 0.961 . S
C734 H748 0.961 . S
C735 C732 1.539 . S
C735 H749 0.958 . S
C735 H750 0.961 . S
C735 H751 0.960 . S
H736 C720 0.931 . S
H737 C725 0.929 . S
H738 C726 0.960 . S
H739 C726 0.962 . S
H740 C726 0.960 . S
H741 C727 0.961 . S
H742 C727 0.961 . S
H743 C727 0.961 . S
H744 C728 0.931 . S
H745 C733 0.930 . S
H746 C734 0.956 . S
H747 C734 0.961 . S
H748 C734 0.961 . S
H749 C735 0.958 . S
H750 C735 0.961 . S
H751 C735 0.960 . S
C752 C753 1.391 . S
C752 C754 1.394 . S
C752 H768 0.931 . S
C753 C752 1.391 . S
C753 C757 1.376 . S
C754 C752 1.394 . S
C754 C755 1.369 1_565 S
C754 C758 1.531 . S
C755 C754 1.369 1_545 S
C755 C756 1.410 . S
C755 C763 1.503 . S
C756 C755 1.410 . S
C756 C757 1.392 1_545 S
C756 C759 1.511 . S
C757 C753 1.376 . S
C757 C756 1.392 1_565 S
C757 H769 0.925 1_565 S
C758 C754 1.531 . S
C758 H770 0.960 . S
C758 H771 0.962 . S
C758 H772 0.960 . S
C759 C756 1.511 . S
C759 H773 0.961 . S
C759 H774 0.961 . S
C759 H775 0.961 . S
C760 C761 1.370 . S
C760 C762 1.363 . S
C760 H776 0.931 . S
C761 C760 1.370 . S
C761 C765 1.408 . S
C762 C760 1.363 . S
C762 C763 1.370 . S
C762 C766 1.524 . S
C763 C755 1.503 . S
C763 C762 1.370 . S
C763 C764 1.403 . S
C764 C763 1.403 . S
C764 C765 1.404 . S
C764 C767 1.539 . S
C765 C761 1.408 . S
C765 C764 1.404 . S
C765 H777 0.930 . S
C766 C762 1.524 . S
C766 H778 0.956 . S
C766 H779 0.961 . S
C766 H780 0.961 . S
C767 C764 1.539 . S
C767 H781 0.958 1_545 S
C767 H782 0.961 . S
C767 H783 0.960 . S
H768 C752 0.931 . S
H769 C757 0.925 1_545 S
H770 C758 0.960 . S
H771 C758 0.962 . S
H772 C758 0.960 . S
H773 C759 0.961 . S
H774 C759 0.961 . S
H775 C759 0.961 . S
H776 C760 0.931 . S
H777 C765 0.930 . S
H778 C766 0.956 . S
H779 C766 0.961 . S
H780 C766 0.961 . S
H781 C767 0.958 1_565 S
H782 C767 0.961 . S
H783 C767 0.960 . S
C784 C785 1.391 . S
C784 C786 1.394 . S
C784 H800 0.931 . S
C785 C784 1.391 . S
C785 C789 1.376 . S
C786 C784 1.394 . S
C786 C787 1.369 . S
C786 C790 1.531 . S
C787 C786 1.369 . S
C787 C788 1.410 . S
C787 C795 1.503 . S
C788 C787 1.410 . S
C788 C789 1.392 . S
C788 C791 1.511 . S
C789 C785 1.376 . S
C789 C788 1.392 . S
C789 H801 0.929 . S
C790 C786 1.531 . S
C790 H802 0.960 . S
C790 H803 0.962 . S
C790 H804 0.960 . S
C791 C788 1.511 . S
C791 H805 0.961 . S
C791 H806 0.961 . S
C791 H807 0.961 . S
C792 C793 1.370 . S
C792 C794 1.363 . S
C792 H808 0.931 . S
C793 C792 1.370 . S
C793 C797 1.408 1_554 S
C794 C792 1.363 . S
C794 C795 1.370 1_554 S
C794 C798 1.524 . S
C795 C787 1.503 . S
C795 C794 1.370 1_556 S
C795 C796 1.403 . S
C796 C795 1.403 . S
C796 C797 1.404 . S
C796 C799 1.539 . S
C797 C793 1.408 1_556 S
C797 C796 1.404 . S
C797 H809 0.930 . S
C798 C794 1.524 . S
C798 H810 0.956 . S
C798 H811 0.961 . S
C798 H812 0.961 . S
C799 C796 1.539 . S
C799 H813 0.958 . S
C799 H814 0.961 . S
C799 H815 0.960 . S
H800 C784 0.931 . S
H801 C789 0.929 . S
H802 C790 0.960 . S
H803 C790 0.962 . S
H804 C790 0.960 . S
H805 C791 0.961 . S
H806 C791 0.961 . S
H807 C791 0.961 . S
H808 C792 0.931 . S
H809 C797 0.930 . S
H810 C798 0.956 . S
H811 C798 0.961 . S
H812 C798 0.961 . S
H813 C799 0.958 . S
H814 C799 0.961 . S
H815 C799 0.960 . S
C816 C817 1.391 1_565 S
C816 C818 1.394 . S
C816 H832 0.931 . S
C817 C816 1.391 1_545 S
C817 C821 1.376 . S
C818 C816 1.394 . S
C818 C819 1.369 . S
C818 C822 1.531 . S
C819 C818 1.369 . S
C819 C820 1.410 1_565 S
C819 C827 1.503 . S
C820 C819 1.410 1_545 S
C820 C821 1.392 . S
C820 C823 1.511 . S
C821 C817 1.376 . S
C821 C820 1.392 . S
C821 H833 0.929 . S
C822 C818 1.531 . S
C822 H834 0.960 . S
C822 H835 0.962 . S
C822 H836 0.960 . S
C823 C820 1.511 . S
C823 H837 0.961 . S
C823 H838 0.961 . S
C823 H839 0.961 . S
C824 C825 1.370 . S
C824 C826 1.363 . S
C824 H840 0.931 . S
C825 C824 1.370 . S
C825 C829 1.408 . S
C826 C824 1.363 . S
C826 C827 1.370 . S
C826 C830 1.524 . S
C827 C819 1.503 . S
C827 C826 1.370 . S
C827 C828 1.403 . S
C828 C827 1.403 . S
C828 C829 1.404 . S
C828 C831 1.539 . S
C829 C825 1.408 . S
C829 C828 1.404 . S
C829 H841 0.930 . S
C830 C826 1.524 . S
C830 H842 0.956 . S
C830 H843 0.961 . S
C830 H844 0.961 . S
C831 C828 1.539 . S
C831 H845 0.958 . S
C831 H846 0.961 . S
C831 H847 0.960 . S
H832 C816 0.931 . S
H833 C821 0.929 . S
H834 C822 0.960 . S
H835 C822 0.962 . S
H836 C822 0.960 . S
H837 C823 0.961 . S
H838 C823 0.961 . S
H839 C823 0.961 . S
H840 C824 0.931 . S
H841 C829 0.930 . S
H842 C830 0.956 . S
H843 C830 0.961 . S
H844 C830 0.961 . S
H845 C831 0.958 . S
H846 C831 0.961 . S
H847 C831 0.960 . S
C848 C849 1.391 . S
C848 C850 1.394 . S
C848 H864 0.931 . S
C849 C848 1.391 . S
C849 C853 1.376 . S
C850 C848 1.394 . S
C850 C851 1.369 . S
C850 C854 1.531 . S
C851 C850 1.369 . S
C851 C852 1.410 . S
C851 C859 1.503 . S
C852 C851 1.410 . S
C852 C853 1.392 . S
C852 C855 1.511 . S
C853 C849 1.376 . S
C853 C852 1.392 . S
C853 H865 0.929 . S
C854 C850 1.531 . S
C854 H866 0.960 . S
C854 H867 0.962 . S
C854 H868 0.960 . S
C855 C852 1.511 . S
C855 H869 0.961 . S
C855 H870 0.961 . S
C855 H871 0.961 . S
C856 C857 1.370 . S
C856 C858 1.363 . S
C856 H872 0.931 . S
C857 C856 1.370 . S
C857 C861 1.408 . S
C858 C856 1.363 . S
C858 C859 1.370 . S
C858 C862 1.524 . S
C859 C851 1.503 . S
C859 C858 1.370 . S
C859 C860 1.403 . S
C860 C859 1.403 . S
C860 C861 1.404 . S
C860 C863 1.539 . S
C861 C857 1.408 . S
C861 C860 1.404 . S
C861 H873 0.930 . S
C862 C858 1.524 . S
C862 H874 0.956 . S
C862 H875 0.961 . S
C862 H876 0.961 . S
C863 C860 1.539 . S
C863 H877 0.958 . S
C863 H878 0.961 . S
C863 H879 0.960 . S
H864 C848 0.931 . S
H865 C853 0.929 . S
H866 C854 0.960 . S
H867 C854 0.962 . S
H868 C854 0.960 . S
H869 C855 0.961 . S
H870 C855 0.961 . S
H871 C855 0.961 . S
H872 C856 0.931 . S
H873 C861 0.930 . S
H874 C862 0.956 . S
H875 C862 0.961 . S
H876 C862 0.961 . S
H877 C863 0.958 . S
H878 C863 0.961 . S
H879 C863 0.960 . S
C880 C881 1.391 . S
C880 C882 1.394 . S
C880 H896 0.931 . S
C881 C880 1.391 . S
C881 C885 1.376 . S
C882 C880 1.394 . S
C882 C883 1.369 . S
C882 C886 1.531 . S
C883 C882 1.369 . S
C883 C884 1.410 . S
C883 C891 1.503 . S
C884 C883 1.410 . S
C884 C885 1.392 . S
C884 C887 1.511 . S
C885 C881 1.376 . S
C885 C884 1.392 . S
C885 H897 0.929 . S
C886 C882 1.531 . S
C886 H898 0.960 . S
C886 H899 0.962 . S
C886 H900 0.960 . S
C887 C884 1.511 . S
C887 H901 0.961 . S
C887 H902 0.961 . S
C887 H903 0.961 . S
C888 C889 1.370 . S
C888 C890 1.363 . S
C888 H904 0.931 . S
C889 C888 1.370 . S
C889 C893 1.408 . S
C890 C888 1.363 . S
C890 C891 1.370 . S
C890 C894 1.524 . S
C891 C883 1.503 . S
C891 C890 1.370 . S
C891 C892 1.403 . S
C892 C891 1.403 . S
C892 C893 1.404 . S
C892 C895 1.539 . S
C893 C889 1.408 . S
C893 C892 1.404 . S
C893 H905 0.930 . S
C894 C890 1.524 . S
C894 H906 0.956 . S
C894 H907 0.961 . S
C894 H908 0.961 . S
C895 C892 1.539 . S
C895 H909 0.958 . S
C895 H910 0.961 . S
C895 H911 0.960 . S
H896 C880 0.931 . S
H897 C885 0.929 . S
H898 C886 0.960 . S
H899 C886 0.962 . S
H900 C886 0.960 . S
H901 C887 0.961 . S
H902 C887 0.961 . S
H903 C887 0.961 . S
H904 C888 0.931 . S
H905 C893 0.930 . S
H906 C894 0.956 . S
H907 C894 0.961 . S
H908 C894 0.961 . S
H909 C895 0.958 . S
H910 C895 0.961 . S
H911 C895 0.960 . S
C912 C913 1.391 1_554 S
C912 C914 1.394 . S
C912 H928 0.931 . S
C913 C912 1.391 1_556 S
C913 C917 1.376 . S
C914 C912 1.394 . S
C914 C915 1.369 . S
C914 C918 1.531 . S
C915 C914 1.369 . S
C915 C916 1.410 1_554 S
C915 C923 1.503 . S
C916 C915 1.410 1_556 S
C916 C917 1.392 . S
C916 C919 1.511 . S
C917 C913 1.376 . S
C917 C916 1.392 . S
C917 H929 0.929 . S
C918 C914 1.531 . S
C918 H930 0.960 . S
C918 H931 0.962 . S
C918 H932 0.960 . S
C919 C916 1.511 . S
C919 H933 0.961 . S
C919 H934 0.961 . S
C919 H935 0.961 . S
C920 C921 1.370 . S
C920 C922 1.363 . S
C920 H936 0.931 . S
C921 C920 1.370 . S
C921 C925 1.408 . S
C922 C920 1.363 . S
C922 C923 1.370 . S
C922 C926 1.524 . S
C923 C915 1.503 . S
C923 C922 1.370 . S
C923 C924 1.403 . S
C924 C923 1.403 . S
C924 C925 1.404 . S
C924 C927 1.539 . S
C925 C921 1.408 . S
C925 C924 1.404 . S
C925 H937 0.930 . S
C926 C922 1.524 . S
C926 H938 0.956 . S
C926 H939 0.961 . S
C926 H940 0.961 . S
C927 C924 1.539 . S
C927 H941 0.958 . S
C927 H942 0.961 . S
C927 H943 0.960 . S
H928 C912 0.931 . S
H929 C917 0.929 . S
H930 C918 0.960 . S
H931 C918 0.962 . S
H932 C918 0.960 . S
H933 C919 0.961 . S
H934 C919 0.961 . S
H935 C919 0.961 . S
H936 C920 0.931 . S
H937 C925 0.930 . S
H938 C926 0.956 . S
H939 C926 0.961 . S
H940 C926 0.961 . S
H941 C927 0.958 . S
H942 C927 0.961 . S
H943 C927 0.960 . S
C944 C945 1.391 . S
C944 C946 1.394 . S
C944 H960 0.931 . S
C945 C944 1.391 . S
C945 C949 1.376 . S
C946 C944 1.394 . S
C946 C947 1.369 . S
C946 C950 1.531 . S
C947 C946 1.369 . S
C947 C948 1.410 . S
C947 C955 1.503 . S
C948 C947 1.410 . S
C948 C949 1.392 . S
C948 C951 1.511 . S
C949 C945 1.376 . S
C949 C948 1.392 . S
C949 H961 0.929 . S
C950 C946 1.531 . S
C950 H962 0.960 . S
C950 H963 0.962 . S
C950 H964 0.960 . S
C951 C948 1.511 . S
C951 H965 0.961 . S
C951 H966 0.961 . S
C951 H967 0.961 . S
C952 C953 1.370 . S
C952 C954 1.363 . S
C952 H968 0.931 . S
C953 C952 1.370 . S
C953 C957 1.408 . S
C954 C952 1.363 . S
C954 C955 1.370 . S
C954 C958 1.524 . S
C955 C947 1.503 . S
C955 C954 1.370 . S
C955 C956 1.403 . S
C956 C955 1.403 . S
C956 C957 1.404 . S
C956 C959 1.539 . S
C957 C953 1.408 . S
C957 C956 1.404 . S
C957 H969 0.930 . S
C958 C954 1.524 . S
C958 H970 0.956 . S
C958 H971 0.961 . S
C958 H972 0.961 . S
C959 C956 1.539 . S
C959 H973 0.958 . S
C959 H974 0.961 . S
C959 H975 0.960 . S
H960 C944 0.931 . S
H961 C949 0.929 . S
H962 C950 0.960 . S
H963 C950 0.962 . S
H964 C950 0.960 . S
H965 C951 0.961 . S
H966 C951 0.961 . S
H967 C951 0.961 . S
H968 C952 0.931 . S
H969 C957 0.930 . S
H970 C958 0.956 . S
H971 C958 0.961 . S
H972 C958 0.961 . S
H973 C959 0.958 . S
H974 C959 0.961 . S
H975 C959 0.960 . S
C976 C977 1.391 . S
C976 C978 1.394 . S
C976 H992 0.931 . S
C977 C976 1.391 . S
C977 C981 1.376 . S
C978 C976 1.394 . S
C978 C979 1.369 . S
C978 C982 1.531 . S
C979 C978 1.369 . S
C979 C980 1.410 . S
C979 C987 1.503 . S
C980 C979 1.410 . S
C980 C981 1.392 . S
C980 C983 1.511 . S
C981 C977 1.376 . S
C981 C980 1.392 . S
C981 H993 0.929 . S
C982 C978 1.531 . S
C982 H994 0.960 . S
C982 H995 0.962 . S
C982 H996 0.960 . S
C983 C980 1.511 . S
C983 H997 0.961 . S
C983 H998 0.961 . S
C983 H999 0.961 . S
C984 C985 1.370 . S
C984 C986 1.363 . S
C984 H1000 0.931 . S
C985 C984 1.370 . S
C985 C989 1.408 . S
C986 C984 1.363 . S
C986 C987 1.370 . S
C986 C990 1.524 . S
C987 C979 1.503 . S
C987 C986 1.370 . S
C987 C988 1.403 . S
C988 C987 1.403 . S
C988 C989 1.404 . S
C988 C991 1.539 . S
C989 C985 1.408 . S
C989 C988 1.404 . S
C989 H1001 0.930 . S
C990 C986 1.524 . S
C990 H1002 0.956 . S
C990 H1003 0.961 . S
C990 H1004 0.961 . S
C991 C988 1.539 . S
C991 H1005 0.958 . S
C991 H1006 0.961 . S
C991 H1007 0.960 . S
H992 C976 0.931 . S
H993 C981 0.929 . S
H994 C982 0.960 . S
H995 C982 0.962 . S
H996 C982 0.960 . S
H997 C983 0.961 . S
H998 C983 0.961 . S
H999 C983 0.961 . S
H1000 C984 0.931 . S
H1001 C989 0.930 . S
H1002 C990 0.956 . S
H1003 C990 0.961 . S
H1004 C990 0.961 . S
H1005 C991 0.958 . S
H1006 C991 0.961 . S
H1007 C991 0.960 . S
C1008 C1009 1.391 . S
C1008 C1010 1.394 . S
C1008 H1024 0.931 . S
C1009 C1008 1.391 . S
C1009 C1013 1.376 1_455 S
C1010 C1008 1.394 . S
C1010 C1011 1.369 1_455 S
C1010 C1014 1.531 . S
C1011 C1010 1.369 1_655 S
C1011 C1012 1.410 . S
C1011 C1019 1.503 . S
C1012 C1011 1.410 . S
C1012 C1013 1.392 . S
C1012 C1015 1.511 . S
C1013 C1009 1.376 1_655 S
C1013 C1012 1.392 . S
C1013 H1025 0.929 . S
C1014 C1010 1.531 . S
C1014 H1026 0.960 . S
C1014 H1027 0.962 . S
C1014 H1028 0.960 . S
C1015 C1012 1.511 . S
C1015 H1029 0.961 . S
C1015 H1030 0.961 . S
C1015 H1031 0.961 . S
C1016 C1017 1.370 . S
C1016 C1018 1.363 . S
C1016 H1032 0.931 . S
C1017 C1016 1.370 . S
C1017 C1021 1.408 . S
C1018 C1016 1.363 . S
C1018 C1019 1.370 . S
C1018 C1022 1.524 . S
C1019 C1011 1.503 . S
C1019 C1018 1.370 . S
C1019 C1020 1.403 . S
C1020 C1019 1.403 . S
C1020 C1021 1.404 . S
C1020 C1023 1.539 . S
C1021 C1017 1.408 . S
C1021 C1020 1.404 . S
C1021 H1033 0.930 . S
C1022 C1018 1.524 . S
C1022 H1034 0.956 . S
C1022 H1035 0.961 . S
C1022 H1036 0.961 . S
C1023 C1020 1.539 . S
C1023 H1037 0.958 . S
C1023 H1038 0.961 . S
C1023 H1039 0.960 . S
H1024 C1008 0.931 . S
H1025 C1013 0.929 . S
H1026 C1014 0.960 . S
H1027 C1014 0.962 . S
H1028 C1014 0.960 . S
H1029 C1015 0.961 . S
H1030 C1015 0.961 . S
H1031 C1015 0.961 . S
H1032 C1016 0.931 . S
H1033 C1021 0.930 . S
H1034 C1022 0.956 . S
H1035 C1022 0.961 . S
H1036 C1022 0.961 . S
H1037 C1023 0.958 . S
H1038 C1023 0.961 . S
H1039 C1023 0.960 . S
C1040 C1041 1.391 1_455 S
C1040 C1042 1.394 . S
C1040 H1056 0.931 . S
C1041 C1040 1.391 1_655 S
C1041 C1045 1.376 . S
C1042 C1040 1.394 . S
C1042 C1043 1.369 . S
C1042 C1046 1.531 . S
C1043 C1042 1.369 . S
C1043 C1044 1.410 1_455 S
C1043 C1051 1.503 . S
C1044 C1043 1.410 1_655 S
C1044 C1045 1.392 . S
C1044 C1047 1.511 . S
C1045 C1041 1.376 . S
C1045 C1044 1.392 . S
C1045 H1057 0.929 . S
C1046 C1042 1.531 . S
C1046 H1058 0.960 . S
C1046 H1059 0.962 . S
C1046 H1060 0.960 . S
C1047 C1044 1.511 . S
C1047 H1061 0.961 . S
C1047 H1062 0.961 . S
C1047 H1063 0.961 . S
C1048 C1049 1.370 . S
C1048 C1050 1.363 . S
C1048 H1064 0.931 . S
C1049 C1048 1.370 . S
C1049 C1053 1.408 . S
C1050 C1048 1.363 . S
C1050 C1051 1.370 . S
C1050 C1054 1.524 . S
C1051 C1043 1.503 . S
C1051 C1050 1.370 . S
C1051 C1052 1.403 . S
C1052 C1051 1.403 . S
C1052 C1053 1.404 . S
C1052 C1055 1.539 . S
C1053 C1049 1.408 . S
C1053 C1052 1.404 . S
C1053 H1065 0.930 . S
C1054 C1050 1.524 . S
C1054 H1066 0.956 . S
C1054 H1067 0.961 . S
C1054 H1068 0.961 . S
C1055 C1052 1.539 . S
C1055 H1069 0.958 . S
C1055 H1070 0.961 . S
C1055 H1071 0.960 . S
H1056 C1040 0.931 . S
H1057 C1045 0.929 . S
H1058 C1046 0.960 . S
H1059 C1046 0.962 . S
H1060 C1046 0.960 . S
H1061 C1047 0.961 . S
H1062 C1047 0.961 . S
H1063 C1047 0.961 . S
H1064 C1048 0.931 . S
H1065 C1053 0.930 . S
H1066 C1054 0.956 . S
H1067 C1054 0.961 . S
H1068 C1054 0.961 . S
H1069 C1055 0.958 . S
H1070 C1055 0.961 . S
H1071 C1055 0.960 . S
C1072 C1073 1.391 . S
C1072 C1074 1.394 . S
C1072 H1088 0.931 . S
C1073 C1072 1.391 . S
C1073 C1077 1.376 . S
C1074 C1072 1.394 . S
C1074 C1075 1.369 . S
C1074 C1078 1.531 . S
C1075 C1074 1.369 . S
C1075 C1076 1.410 . S
C1075 C1083 1.503 . S
C1076 C1075 1.410 . S
C1076 C1077 1.392 . S
C1076 C1079 1.511 . S
C1077 C1073 1.376 . S
C1077 C1076 1.392 . S
C1077 H1089 0.929 . S
C1078 C1074 1.531 . S
C1078 H1090 0.960 . S
C1078 H1091 0.962 . S
C1078 H1092 0.960 . S
C1079 C1076 1.511 . S
C1079 H1093 0.961 . S
C1079 H1094 0.961 . S
C1079 H1095 0.961 . S
C1080 C1081 1.370 . S
C1080 C1082 1.363 . S
C1080 H1096 0.931 . S
C1081 C1080 1.370 . S
C1081 C1085 1.408 . S
C1082 C1080 1.363 . S
C1082 C1083 1.370 . S
C1082 C1086 1.524 . S
C1083 C1075 1.503 . S
C1083 C1082 1.370 . S
C1083 C1084 1.403 . S
C1084 C1083 1.403 . S
C1084 C1085 1.404 . S
C1084 C1087 1.539 . S
C1085 C1081 1.408 . S
C1085 C1084 1.404 . S
C1085 H1097 0.930 . S
C1086 C1082 1.524 . S
C1086 H1098 0.956 . S
C1086 H1099 0.961 . S
C1086 H1100 0.961 . S
C1087 C1084 1.539 . S
C1087 H1101 0.958 . S
C1087 H1102 0.961 . S
C1087 H1103 0.960 . S
H1088 C1072 0.931 . S
H1089 C1077 0.929 . S
H1090 C1078 0.960 . S
H1091 C1078 0.962 . S
H1092 C1078 0.960 . S
H1093 C1079 0.961 . S
H1094 C1079 0.961 . S
H1095 C1079 0.961 . S
H1096 C1080 0.931 . S
H1097 C1085 0.930 . S
H1098 C1086 0.956 . S
H1099 C1086 0.961 . S
H1100 C1086 0.961 . S
H1101 C1087 0.958 . S
H1102 C1087 0.961 . S
H1103 C1087 0.960 . S
C1104 C1105 1.391 . S
C1104 C1106 1.394 . S
C1104 H1120 0.931 . S
C1105 C1104 1.391 . S
C1105 C1109 1.376 . S
C1106 C1104 1.394 . S
C1106 C1107 1.369 . S
C1106 C1110 1.531 . S
C1107 C1106 1.369 . S
C1107 C1108 1.410 . S
C1107 C1115 1.503 . S
C1108 C1107 1.410 . S
C1108 C1109 1.392 . S
C1108 C1111 1.511 . S
C1109 C1105 1.376 . S
C1109 C1108 1.392 . S
C1109 H1121 0.929 . S
C1110 C1106 1.531 . S
C1110 H1122 0.960 . S
C1110 H1123 0.962 . S
C1110 H1124 0.960 . S
C1111 C1108 1.511 . S
C1111 H1125 0.961 . S
C1111 H1126 0.961 . S
C1111 H1127 0.961 . S
C1112 C1113 1.370 . S
C1112 C1114 1.363 . S
C1112 H1128 0.931 . S
C1113 C1112 1.370 . S
C1113 C1117 1.408 . S
C1114 C1112 1.363 . S
C1114 C1115 1.370 . S
C1114 C1118 1.524 . S
C1115 C1107 1.503 . S
C1115 C1114 1.370 . S
C1115 C1116 1.403 . S
C1116 C1115 1.403 . S
C1116 C1117 1.404 . S
C1116 C1119 1.539 . S
C1117 C1113 1.408 . S
C1117 C1116 1.404 . S
C1117 H1129 0.930 . S
C1118 C1114 1.524 . S
C1118 H1130 0.956 . S
C1118 H1131 0.961 . S
C1118 H1132 0.961 . S
C1119 C1116 1.539 . S
C1119 H1133 0.958 . S
C1119 H1134 0.961 . S
C1119 H1135 0.960 . S
H1120 C1104 0.931 . S
H1121 C1109 0.929 . S
H1122 C1110 0.960 . S
H1123 C1110 0.962 . S
H1124 C1110 0.960 . S
H1125 C1111 0.961 . S
H1126 C1111 0.961 . S
H1127 C1111 0.961 . S
H1128 C1112 0.931 . S
H1129 C1117 0.930 . S
H1130 C1118 0.956 . S
H1131 C1118 0.961 . S
H1132 C1118 0.961 . S
H1133 C1119 0.958 . S
H1134 C1119 0.961 . S
H1135 C1119 0.960 . S
C1136 C1137 1.391 . S
C1136 C1138 1.394 . S
C1136 H1152 0.931 . S
C1137 C1136 1.391 . S
C1137 C1141 1.376 1_545 S
C1138 C1136 1.394 . S
C1138 C1139 1.369 1_545 S
C1138 C1142 1.531 . S
C1139 C1138 1.369 1_565 S
C1139 C1140 1.410 . S
C1139 C1147 1.503 . S
C1140 C1139 1.410 . S
C1140 C1141 1.392 . S
C1140 C1143 1.511 . S
C1141 C1137 1.376 1_565 S
C1141 C1140 1.392 . S
C1141 H1153 0.929 . S
C1142 C1138 1.531 . S
C1142 H1154 0.960 . S
C1142 H1155 0.962 . S
C1142 H1156 0.960 . S
C1143 C1140 1.511 . S
C1143 H1157 0.961 . S
C1143 H1158 0.961 . S
C1143 H1159 0.961 . S
C1144 C1145 1.370 . S
C1144 C1146 1.363 . S
C1144 H1160 0.931 . S
C1145 C1144 1.370 . S
C1145 C1149 1.408 . S
C1146 C1144 1.363 . S
C1146 C1147 1.370 . S
C1146 C1150 1.524 . S
C1147 C1139 1.503 . S
C1147 C1146 1.370 . S
C1147 C1148 1.403 . S
C1148 C1147 1.403 . S
C1148 C1149 1.404 . S
C1148 C1151 1.539 1_565 S
C1149 C1145 1.408 . S
C1149 C1148 1.404 . S
C1149 H1161 0.930 . S
C1150 C1146 1.524 . S
C1150 H1162 0.956 . S
C1150 H1163 0.961 . S
C1150 H1164 0.961 . S
C1151 C1148 1.539 1_545 S
C1151 H1165 0.958 . S
C1151 H1166 0.969 . S
C1151 H1167 0.960 . S
H1152 C1136 0.931 . S
H1153 C1141 0.929 . S
H1154 C1142 0.960 . S
H1155 C1142 0.962 . S
H1156 C1142 0.960 . S
H1157 C1143 0.961 . S
H1158 C1143 0.961 . S
H1159 C1143 0.961 . S
H1160 C1144 0.931 . S
H1161 C1149 0.930 . S
H1162 C1150 0.956 . S
H1163 C1150 0.961 . S
H1164 C1150 0.961 . S
H1165 C1151 0.958 . S
H1166 C1151 0.969 . S
H1167 C1151 0.960 . S
C1168 C1169 1.391 . S
C1168 C1170 1.394 . S
C1168 H1184 0.931 . S
C1169 C1168 1.391 . S
C1169 C1173 1.376 . S
C1170 C1168 1.394 . S
C1170 C1171 1.369 . S
C1170 C1174 1.531 . S
C1171 C1170 1.369 . S
C1171 C1172 1.410 . S
C1171 C1179 1.503 . S
C1172 C1171 1.410 . S
C1172 C1173 1.392 . S
C1172 C1175 1.511 . S
C1173 C1169 1.376 . S
C1173 C1172 1.392 . S
C1173 H1185 0.929 . S
C1174 C1170 1.531 . S
C1174 H1186 0.960 . S
C1174 H1187 0.962 . S
C1174 H1188 0.960 . S
C1175 C1172 1.511 . S
C1175 H1189 0.961 . S
C1175 H1190 0.961 . S
C1175 H1191 0.961 . S
C1176 C1177 1.370 . S
C1176 C1178 1.363 . S
C1176 H1192 0.931 . S
C1177 C1176 1.370 . S
C1177 C1181 1.408 . S
C1178 C1176 1.363 . S
C1178 C1179 1.370 . S
C1178 C1182 1.524 . S
C1179 C1171 1.503 . S
C1179 C1178 1.370 . S
C1179 C1180 1.403 . S
C1180 C1179 1.403 . S
C1180 C1181 1.404 . S
C1180 C1183 1.539 . S
C1181 C1177 1.408 . S
C1181 C1180 1.404 . S
C1181 H1193 0.930 . S
C1182 C1178 1.524 . S
C1182 H1194 0.956 . S
C1182 H1195 0.961 . S
C1182 H1196 0.961 . S
C1183 C1180 1.539 . S
C1183 H1197 0.958 . S
C1183 H1198 0.961 . S
C1183 H1199 0.960 . S
H1184 C1168 0.931 . S
H1185 C1173 0.929 . S
H1186 C1174 0.960 . S
H1187 C1174 0.962 . S
H1188 C1174 0.960 . S
H1189 C1175 0.961 . S
H1190 C1175 0.961 . S
H1191 C1175 0.961 . S
H1192 C1176 0.931 . S
H1193 C1181 0.930 . S
H1194 C1182 0.956 . S
H1195 C1182 0.961 . S
H1196 C1182 0.961 . S
H1197 C1183 0.958 . S
H1198 C1183 0.961 . S
H1199 C1183 0.960 . S
C1200 C1201 1.391 . S
C1200 C1202 1.394 . S
C1200 H1216 0.931 . S
C1201 C1200 1.391 . S
C1201 C1205 1.376 . S
C1202 C1200 1.394 . S
C1202 C1203 1.369 . S
C1202 C1206 1.531 . S
C1203 C1202 1.369 . S
C1203 C1204 1.410 . S
C1203 C1211 1.503 . S
C1204 C1203 1.410 . S
C1204 C1205 1.392 . S
C1204 C1207 1.511 . S
C1205 C1201 1.376 . S
C1205 C1204 1.392 . S
C1205 H1217 0.929 . S
C1206 C1202 1.531 . S
C1206 H1218 0.960 . S
C1206 H1219 0.962 . S
C1206 H1220 0.960 . S
C1207 C1204 1.511 . S
C1207 H1221 0.961 . S
C1207 H1222 0.961 . S
C1207 H1223 0.961 . S
C1208 C1209 1.370 1_545 S
C1208 C1210 1.363 1_556 S
C1208 H1224 0.931 . S
C1209 C1208 1.370 1_565 S
C1209 C1213 1.408 . S
C1210 C1208 1.363 1_554 S
C1210 C1211 1.370 . S
C1210 C1214 1.524 . S
C1211 C1203 1.503 . S
C1211 C1210 1.370 . S
C1211 C1212 1.403 1_545 S
C1212 C1211 1.403 1_565 S
C1212 C1213 1.404 1_554 S
C1212 C1215 1.539 . S
C1213 C1209 1.408 . S
C1213 C1212 1.404 1_556 S
C1213 H1225 0.930 . S
C1214 C1210 1.524 . S
C1214 H1226 0.956 . S
C1214 H1227 0.961 . S
C1214 H1228 0.961 1_554 S
C1215 C1212 1.539 . S
C1215 H1229 0.958 . S
C1215 H1230 0.961 . S
C1215 H1231 0.960 . S
H1216 C1200 0.931 . S
H1217 C1205 0.929 . S
H1218 C1206 0.960 . S
H1219 C1206 0.962 . S
H1220 C1206 0.960 . S
H1221 C1207 0.961 . S
H1222 C1207 0.961 . S
H1223 C1207 0.961 . S
H1224 C1208 0.931 . S
H1225 C1213 0.930 . S
H1226 C1214 0.956 . S
H1227 C1214 0.961 . S
H1228 C1214 0.961 1_556 S
H1229 C1215 0.958 . S
H1230 C1215 0.961 . S
H1231 C1215 0.960 . S
C1232 C1233 1.391 . S
C1232 C1234 1.394 . S
C1232 H1248 0.931 . S
C1233 C1232 1.391 . S
C1233 C1237 1.376 . S
C1234 C1232 1.394 . S
C1234 C1235 1.369 . S
C1234 C1238 1.531 . S
C1235 C1234 1.369 . S
C1235 C1236 1.410 . S
C1235 C1243 1.503 . S
C1236 C1235 1.410 . S
C1236 C1237 1.392 . S
C1236 C1239 1.511 . S
C1237 C1233 1.376 . S
C1237 C1236 1.392 . S
C1237 H1249 0.929 . S
C1238 C1234 1.531 . S
C1238 H1250 0.960 . S
C1238 H1251 0.962 . S
C1238 H1252 0.960 . S
C1239 C1236 1.511 . S
C1239 H1253 0.961 . S
C1239 H1254 0.961 . S
C1239 H1255 0.961 . S
C1240 C1241 1.370 . S
C1240 C1242 1.363 . S
C1240 H1256 0.931 . S
C1241 C1240 1.370 . S
C1241 C1245 1.408 . S
C1242 C1240 1.363 . S
C1242 C1243 1.370 . S
C1242 C1246 1.524 . S
C1243 C1235 1.503 . S
C1243 C1242 1.370 . S
C1243 C1244 1.403 . S
C1244 C1243 1.403 . S
C1244 C1245 1.404 . S
C1244 C1247 1.539 . S
C1245 C1241 1.408 . S
C1245 C1244 1.404 . S
C1245 H1257 0.930 . S
C1246 C1242 1.524 . S
C1246 H1258 0.956 . S
C1246 H1259 0.961 . S
C1246 H1260 0.961 . S
C1247 C1244 1.539 . S
C1247 H1261 0.958 . S
C1247 H1262 0.961 . S
C1247 H1263 0.960 . S
H1248 C1232 0.931 . S
H1249 C1237 0.929 . S
H1250 C1238 0.960 . S
H1251 C1238 0.962 . S
H1252 C1238 0.960 . S
H1253 C1239 0.961 . S
H1254 C1239 0.961 . S
H1255 C1239 0.961 . S
H1256 C1240 0.931 . S
H1257 C1245 0.930 . S
H1258 C1246 0.956 . S
H1259 C1246 0.961 . S
H1260 C1246 0.961 . S
H1261 C1247 0.958 . S
H1262 C1247 0.961 . S
H1263 C1247 0.960 . S
C1264 C1265 1.391 . S
C1264 C1266 1.394 1_554 S
C1264 H1280 0.931 . S
C1265 C1264 1.391 . S
C1265 C1269 1.376 . S
C1266 C1264 1.394 1_556 S
C1266 C1267 1.369 . S
C1266 C1270 1.531 . S
C1267 C1266 1.369 . S
C1267 C1268 1.410 . S
C1267 C1275 1.503 . S
C1268 C1267 1.410 . S
C1268 C1269 1.392 1_556 S
C1268 C1271 1.511 . S
C1269 C1265 1.376 . S
C1269 C1268 1.392 1_554 S
C1269 H1281 0.929 . S
C1270 C1266 1.531 . S
C1270 H1282 0.960 . S
C1270 H1283 0.962 . S
C1270 H1284 0.960 . S
C1271 C1268 1.511 . S
C1271 H1285 0.961 . S
C1271 H1286 0.961 . S
C1271 H1287 0.961 . S
C1272 C1273 1.370 . S
C1272 C1274 1.363 . S
C1272 H1288 0.931 . S
C1273 C1272 1.370 . S
C1273 C1277 1.408 . S
C1274 C1272 1.363 . S
C1274 C1275 1.370 . S
C1274 C1278 1.524 . S
C1275 C1267 1.503 . S
C1275 C1274 1.370 . S
C1275 C1276 1.403 . S
C1276 C1275 1.403 . S
C1276 C1277 1.404 . S
C1276 C1279 1.539 . S
C1277 C1273 1.408 . S
C1277 C1276 1.404 . S
C1277 H1289 0.930 . S
C1278 C1274 1.524 . S
C1278 H1290 0.956 . S
C1278 H1291 0.961 . S
C1278 H1292 0.961 . S
C1279 C1276 1.539 . S
C1279 H1293 0.958 . S
C1279 H1294 0.961 . S
C1279 H1295 0.960 . S
H1280 C1264 0.931 . S
H1281 C1269 0.929 . S
H1282 C1270 0.960 . S
H1283 C1270 0.962 . S
H1284 C1270 0.960 . S
H1285 C1271 0.961 . S
H1286 C1271 0.961 . S
H1287 C1271 0.961 . S
H1288 C1272 0.931 . S
H1289 C1277 0.930 . S
H1290 C1278 0.956 . S
H1291 C1278 0.961 . S
H1292 C1278 0.961 . S
H1293 C1279 0.958 . S
H1294 C1279 0.961 . S
H1295 C1279 0.960 . S
C1296 C1297 1.391 . S
C1296 C1298 1.394 . S
C1296 H1312 0.931 . S
C1297 C1296 1.391 . S
C1297 C1301 1.376 . S
C1298 C1296 1.394 . S
C1298 C1299 1.369 . S
C1298 C1302 1.531 . S
C1299 C1298 1.369 . S
C1299 C1300 1.410 . S
C1299 C1307 1.503 . S
C1300 C1299 1.410 . S
C1300 C1301 1.392 . S
C1300 C1303 1.511 . S
C1301 C1297 1.376 . S
C1301 C1300 1.392 . S
C1301 H1313 0.929 . S
C1302 C1298 1.531 . S
C1302 H1314 0.960 . S
C1302 H1315 0.962 . S
C1302 H1316 0.960 . S
C1303 C1300 1.511 . S
C1303 H1317 0.961 . S
C1303 H1318 0.961 . S
C1303 H1319 0.961 . S
C1304 C1305 1.370 . S
C1304 C1306 1.363 . S
C1304 H1320 0.931 . S
C1305 C1304 1.370 . S
C1305 C1309 1.408 . S
C1306 C1304 1.363 . S
C1306 C1307 1.370 . S
C1306 C1310 1.524 . S
C1307 C1299 1.503 . S
C1307 C1306 1.370 . S
C1307 C1308 1.403 . S
C1308 C1307 1.403 . S
C1308 C1309 1.404 . S
C1308 C1311 1.539 . S
C1309 C1305 1.408 . S
C1309 C1308 1.404 . S
C1309 H1321 0.930 . S
C1310 C1306 1.524 . S
C1310 H1322 0.956 . S
C1310 H1323 0.961 . S
C1310 H1324 0.961 . S
C1311 C1308 1.539 . S
C1311 H1325 0.958 . S
C1311 H1326 0.961 . S
C1311 H1327 0.960 . S
H1312 C1296 0.931 . S
H1313 C1301 0.929 . S
H1314 C1302 0.960 . S
H1315 C1302 0.962 . S
H1316 C1302 0.960 . S
H1317 C1303 0.961 . S
H1318 C1303 0.961 . S
H1319 C1303 0.961 . S
H1320 C1304 0.931 . S
H1321 C1309 0.930 . S
H1322 C1310 0.956 . S
H1323 C1310 0.961 . S
H1324 C1310 0.961 . S
H1325 C1311 0.958 . S
H1326 C1311 0.961 . S
H1327 C1311 0.960 . S
C1328 C1329 1.391 . S
C1328 C1330 1.394 . S
C1328 H1344 0.931 . S
C1329 C1328 1.391 . S
C1329 C1333 1.376 . S
C1330 C1328 1.394 . S
C1330 C1331 1.369 . S
C1330 C1334 1.531 . S
C1331 C1330 1.369 . S
C1331 C1332 1.410 . S
C1331 C1339 1.503 . S
C1332 C1331 1.410 . S
C1332 C1333 1.392 . S
C1332 C1335 1.511 . S
C1333 C1329 1.376 . S
C1333 C1332 1.392 . S
C1333 H1345 0.929 . S
C1334 C1330 1.531 . S
C1334 H1346 0.960 . S
C1334 H1347 0.962 . S
C1334 H1348 0.960 . S
C1335 C1332 1.511 . S
C1335 H1349 0.961 . S
C1335 H1350 0.961 . S
C1335 H1351 0.961 . S
C1336 C1337 1.370 . S
C1336 C1338 1.363 . S
C1336 H1352 0.931 . S
C1337 C1336 1.370 . S
C1337 C1341 1.408 . S
C1338 C1336 1.363 . S
C1338 C1339 1.370 . S
C1338 C1342 1.524 . S
C1339 C1331 1.503 . S
C1339 C1338 1.370 . S
C1339 C1340 1.403 . S
C1340 C1339 1.403 . S
C1340 C1341 1.404 . S
C1340 C1343 1.539 . S
C1341 C1337 1.408 . S
C1341 C1340 1.404 . S
C1341 H1353 0.930 . S
C1342 C1338 1.524 . S
C1342 H1354 0.956 . S
C1342 H1355 0.961 . S
C1342 H1356 0.961 . S
C1343 C1340 1.539 . S
C1343 H1357 0.958 . S
C1343 H1358 0.961 . S
C1343 H1359 0.960 . S
H1344 C1328 0.931 . S
H1345 C1333 0.929 . S
H1346 C1334 0.960 . S
H1347 C1334 0.962 . S
H1348 C1334 0.960 . S
H1349 C1335 0.961 . S
H1350 C1335 0.961 . S
H1351 C1335 0.961 . S
H1352 C1336 0.931 . S
H1353 C1341 0.930 . S
H1354 C1342 0.956 . S
H1355 C1342 0.961 . S
H1356 C1342 0.961 . S
H1357 C1343 0.958 . S
H1358 C1343 0.961 . S
H1359 C1343 0.960 . S
C1360 C1361 1.391 . S
C1360 C1362 1.394 . S
C1360 H1376 0.931 . S
C1361 C1360 1.391 . S
C1361 C1365 1.376 . S
C1362 C1360 1.394 . S
C1362 C1363 1.369 . S
C1362 C1366 1.531 . S
C1363 C1362 1.369 . S
C1363 C1364 1.410 . S
C1363 C1371 1.503 . S
C1364 C1363 1.410 . S
C1364 C1365 1.392 . S
C1364 C1367 1.511 . S
C1365 C1361 1.376 . S
C1365 C1364 1.392 . S
C1365 H1377 0.929 . S
C1366 C1362 1.531 . S
C1366 H1378 0.960 . S
C1366 H1379 0.962 . S
C1366 H1380 0.960 . S
C1367 C1364 1.511 . S
C1367 H1381 0.961 . S
C1367 H1382 0.961 . S
C1367 H1383 0.961 . S
C1368 C1369 1.370 . S
C1368 C1370 1.363 . S
C1368 H1384 0.931 . S
C1369 C1368 1.370 . S
C1369 C1373 1.408 . S
C1370 C1368 1.363 . S
C1370 C1371 1.370 . S
C1370 C1374 1.524 . S
C1371 C1363 1.503 . S
C1371 C1370 1.370 . S
C1371 C1372 1.403 . S
C1372 C1371 1.403 . S
C1372 C1373 1.404 . S
C1372 C1375 1.539 . S
C1373 C1369 1.408 . S
C1373 C1372 1.404 . S
C1373 H1385 0.930 . S
C1374 C1370 1.524 . S
C1374 H1386 0.956 . S
C1374 H1387 0.961 . S
C1374 H1388 0.961 . S
C1375 C1372 1.539 . S
C1375 H1389 0.958 . S
C1375 H1390 0.961 . S
C1375 H1391 0.960 . S
H1376 C1360 0.931 . S
H1377 C1365 0.929 . S
H1378 C1366 0.960 . S
H1379 C1366 0.962 . S
H1380 C1366 0.960 . S
H1381 C1367 0.961 . S
H1382 C1367 0.961 . S
H1383 C1367 0.961 . S
H1384 C1368 0.931 . S
H1385 C1373 0.930 . S
H1386 C1374 0.956 . S
H1387 C1374 0.961 . S
H1388 C1374 0.961 . S
H1389 C1375 0.958 . S
H1390 C1375 0.961 . S
H1391 C1375 0.960 . S
C1392 C1393 1.402 . S
C1392 C1394 1.394 1_665 S
C1392 H1408 0.931 . S
C1393 C1392 1.402 . S
C1393 C1397 1.352 1_655 S
C1394 C1392 1.394 1_445 S
C1394 C1395 1.369 . S
C1394 C1398 1.531 1_455 S
C1395 C1394 1.369 . S
C1395 C1396 1.432 . S
C1395 C1403 1.503 . S
C1396 C1395 1.432 . S
C1396 C1397 1.369 1_545 S
C1396 C1399 1.511 . S
C1397 C1393 1.352 1_455 S
C1397 C1396 1.369 1_565 S
C1397 H1409 0.929 . S
C1398 C1394 1.531 1_655 S
C1398 H1410 0.960 1_655 S
C1398 H1411 0.962 . S
C1398 H1412 0.960 . S
C1399 C1396 1.511 . S
C1399 H1413 0.929 1_545 S
C1399 H1414 0.995 . S
C1399 H1415 0.959 . S
C1400 C1401 1.370 . S
C1400 C1402 1.363 . S
C1400 H1416 0.931 . S
C1401 C1400 1.370 . S
C1401 C1405 1.408 . S
C1402 C1400 1.363 . S
C1402 C1403 1.370 . S
C1402 C1406 1.524 . S
C1403 C1395 1.503 . S
C1403 C1402 1.370 . S
C1403 C1404 1.403 . S
C1404 C1403 1.403 . S
C1404 C1405 1.404 . S
C1404 C1407 1.539 . S
C1405 C1401 1.408 . S
C1405 C1404 1.404 . S
C1405 H1417 0.930 . S
C1406 C1402 1.524 . S
C1406 H1418 0.956 1_455 S
C1406 H1419 0.961 . S
C1406 H1420 0.961 1_455 S
C1407 C1404 1.539 . S
C1407 H1421 0.958 . S
C1407 H1422 0.961 . S
C1407 H1423 0.960 . S
H1408 C1392 0.931 . S
H1409 C1397 0.929 . S
H1410 C1398 0.960 1_455 S
H1411 C1398 0.962 . S
H1412 C1398 0.960 . S
H1413 C1399 0.929 1_565 S
H1414 C1399 0.995 . S
H1415 C1399 0.959 . S
H1416 C1400 0.931 . S
H1417 C1405 0.930 . S
H1418 C1406 0.956 1_655 S
H1419 C1406 0.961 . S
H1420 C1406 0.961 1_655 S
H1421 C1407 0.958 . S
H1422 C1407 0.961 . S
H1423 C1407 0.960 . S
C1424 C1425 1.391 . S
C1424 C1426 1.394 . S
C1424 H1440 0.931 . S
C1425 C1424 1.391 . S
C1425 C1429 1.376 . S
C1426 C1424 1.394 . S
C1426 C1427 1.369 . S
C1426 C1430 1.531 . S
C1427 C1426 1.369 . S
C1427 C1428 1.410 . S
C1427 C1435 1.503 . S
C1428 C1427 1.410 . S
C1428 C1429 1.392 . S
C1428 C1431 1.511 . S
C1429 C1425 1.376 . S
C1429 C1428 1.392 . S
C1429 H1441 0.929 . S
C1430 C1426 1.531 . S
C1430 H1442 0.960 . S
C1430 H1443 0.962 . S
C1430 H1444 0.960 . S
C1431 C1428 1.511 . S
C1431 H1445 0.961 . S
C1431 H1446 0.961 . S
C1431 H1447 0.961 . S
C1432 C1433 1.370 . S
C1432 C1434 1.363 . S
C1432 H1448 0.931 . S
C1433 C1432 1.370 . S
C1433 C1437 1.408 . S
C1434 C1432 1.363 . S
C1434 C1435 1.370 . S
C1434 C1438 1.524 . S
C1435 C1427 1.503 . S
C1435 C1434 1.370 . S
C1435 C1436 1.403 . S
C1436 C1435 1.403 . S
C1436 C1437 1.404 . S
C1436 C1439 1.539 . S
C1437 C1433 1.408 . S
C1437 C1436 1.404 . S
C1437 H1449 0.930 . S
C1438 C1434 1.524 . S
C1438 H1450 0.956 . S
C1438 H1451 0.961 . S
C1438 H1452 0.961 . S
C1439 C1436 1.539 . S
C1439 H1453 0.958 . S
C1439 H1454 0.961 . S
C1439 H1455 0.960 . S
H1440 C1424 0.931 . S
H1441 C1429 0.929 . S
H1442 C1430 0.960 . S
H1443 C1430 0.962 . S
H1444 C1430 0.960 . S
H1445 C1431 0.961 . S
H1446 C1431 0.961 . S
H1447 C1431 0.961 . S
H1448 C1432 0.931 . S
H1449 C1437 0.930 . S
H1450 C1438 0.956 . S
H1451 C1438 0.961 . S
H1452 C1438 0.961 . S
H1453 C1439 0.958 . S
H1454 C1439 0.961 . S
H1455 C1439 0.960 . S
C1456 C1457 1.391 . S
C1456 C1458 1.394 1_545 S
C1456 H1472 0.931 . S
C1457 C1456 1.391 . S
C1457 C1461 1.376 . S
C1458 C1456 1.394 1_565 S
C1458 C1459 1.369 . S
C1458 C1462 1.531 . S
C1459 C1458 1.369 . S
C1459 C1460 1.410 . S
C1459 C1467 1.503 . S
C1460 C1459 1.410 . S
C1460 C1461 1.392 1_565 S
C1460 C1463 1.511 . S
C1461 C1457 1.376 . S
C1461 C1460 1.392 1_545 S
C1461 H1473 0.929 . S
C1462 C1458 1.531 . S
C1462 H1474 0.960 . S
C1462 H1475 0.962 . S
C1462 H1476 0.960 . S
C1463 C1460 1.511 . S
C1463 H1477 0.961 1_565 S
C1463 H1478 0.961 . S
C1463 H1479 0.956 1_565 S
C1464 C1465 1.370 . S
C1464 C1466 1.363 . S
C1464 H1480 0.931 . S
C1465 C1464 1.370 . S
C1465 C1469 1.408 . S
C1466 C1464 1.363 . S
C1466 C1467 1.370 . S
C1466 C1470 1.524 . S
C1467 C1459 1.503 . S
C1467 C1466 1.370 . S
C1467 C1468 1.403 . S
C1468 C1467 1.403 . S
C1468 C1469 1.404 . S
C1468 C1471 1.539 . S
C1469 C1465 1.408 . S
C1469 C1468 1.404 . S
C1469 H1481 0.930 . S
C1470 C1466 1.524 . S
C1470 H1482 0.956 . S
C1470 H1483 0.961 . S
C1470 H1484 0.961 . S
C1471 C1468 1.539 . S
C1471 H1485 0.958 . S
C1471 H1486 0.961 . S
C1471 H1487 0.960 . S
H1472 C1456 0.931 . S
H1473 C1461 0.929 . S
H1474 C1462 0.960 . S
H1475 C1462 0.962 . S
H1476 C1462 0.960 . S
H1477 C1463 0.961 1_545 S
H1478 C1463 0.961 . S
H1479 C1463 0.956 1_545 S
H1480 C1464 0.931 . S
H1481 C1469 0.930 . S
H1482 C1470 0.956 . S
H1483 C1470 0.961 . S
H1484 C1470 0.961 . S
H1485 C1471 0.958 . S
H1486 C1471 0.961 . S
H1487 C1471 0.960 . S
C1488 C1489 1.391 . S
C1488 C1490 1.394 . S
C1488 H1504 0.931 . S
C1489 C1488 1.391 . S
C1489 C1493 1.376 . S
C1490 C1488 1.394 . S
C1490 C1491 1.369 . S
C1490 C1494 1.531 . S
C1491 C1490 1.369 . S
C1491 C1492 1.410 . S
C1491 C1499 1.503 . S
C1492 C1491 1.410 . S
C1492 C1493 1.392 . S
C1492 C1495 1.511 . S
C1493 C1489 1.376 . S
C1493 C1492 1.392 . S
C1493 H1505 0.929 . S
C1494 C1490 1.531 . S
C1494 H1506 0.960 . S
C1494 H1507 0.962 . S
C1494 H1508 0.960 . S
C1495 C1492 1.511 . S
C1495 H1509 0.961 . S
C1495 H1510 0.961 . S
C1495 H1511 0.961 . S
C1496 C1497 1.370 . S
C1496 C1498 1.363 . S
C1496 H1512 0.931 . S
C1497 C1496 1.370 . S
C1497 C1501 1.408 . S
C1498 C1496 1.363 . S
C1498 C1499 1.370 . S
C1498 C1502 1.524 . S
C1499 C1491 1.503 . S
C1499 C1498 1.370 . S
C1499 C1500 1.403 . S
C1500 C1499 1.403 . S
C1500 C1501 1.404 . S
C1500 C1503 1.539 . S
C1501 C1497 1.408 . S
C1501 C1500 1.404 . S
C1501 H1513 0.930 . S
C1502 C1498 1.524 . S
C1502 H1514 0.956 . S
C1502 H1515 0.961 . S
C1502 H1516 0.961 . S
C1503 C1500 1.539 . S
C1503 H1517 0.958 . S
C1503 H1518 0.961 . S
C1503 H1519 0.960 . S
H1504 C1488 0.931 . S
H1505 C1493 0.929 . S
H1506 C1494 0.960 . S
H1507 C1494 0.962 . S
H1508 C1494 0.960 . S
H1509 C1495 0.961 . S
H1510 C1495 0.961 . S
H1511 C1495 0.961 . S
H1512 C1496 0.931 . S
H1513 C1501 0.930 . S
H1514 C1502 0.956 . S
H1515 C1502 0.961 . S
H1516 C1502 0.961 . S
H1517 C1503 0.958 . S
H1518 C1503 0.961 . S
H1519 C1503 0.960 . S
C1520 C1521 1.391 . S
C1520 C1522 1.394 . S
C1520 H1536 0.931 . S
C1521 C1520 1.391 . S
C1521 C1525 1.376 1_455 S
C1522 C1520 1.394 . S
C1522 C1523 1.369 1_455 S
C1522 C1526 1.531 . S
C1523 C1522 1.369 1_655 S
C1523 C1524 1.410 . S
C1523 C1531 1.503 . S
C1524 C1523 1.410 . S
C1524 C1525 1.392 . S
C1524 C1527 1.511 . S
C1525 C1521 1.376 1_655 S
C1525 C1524 1.392 . S
C1525 H1537 0.929 . S
C1526 C1522 1.531 . S
C1526 H1538 0.960 . S
C1526 H1539 0.962 . S
C1526 H1540 0.960 . S
C1527 C1524 1.511 . S
C1527 H1541 0.961 . S
C1527 H1542 0.961 . S
C1527 H1543 0.961 . S
C1528 C1529 1.370 . S
C1528 C1530 1.363 . S
C1528 H1544 0.931 . S
C1529 C1528 1.370 . S
C1529 C1533 1.408 . S
C1530 C1528 1.363 . S
C1530 C1531 1.370 . S
C1530 C1534 1.524 . S
C1531 C1523 1.503 . S
C1531 C1530 1.370 . S
C1531 C1532 1.403 . S
C1532 C1531 1.403 . S
C1532 C1533 1.404 . S
C1532 C1535 1.539 . S
C1533 C1529 1.408 . S
C1533 C1532 1.404 . S
C1533 H1545 0.930 . S
C1534 C1530 1.524 . S
C1534 H1546 0.956 1_655 S
C1534 H1547 0.961 . S
C1534 H1548 0.961 . S
C1535 C1532 1.539 . S
C1535 H1549 0.958 . S
C1535 H1550 0.961 . S
C1535 H1551 0.960 . S
H1536 C1520 0.931 . S
H1537 C1525 0.929 . S
H1538 C1526 0.960 . S
H1539 C1526 0.962 . S
H1540 C1526 0.960 . S
H1541 C1527 0.961 . S
H1542 C1527 0.961 . S
H1543 C1527 0.961 . S
H1544 C1528 0.931 . S
H1545 C1533 0.930 . S
H1546 C1534 0.956 1_455 S
H1547 C1534 0.961 . S
H1548 C1534 0.961 . S
H1549 C1535 0.958 . S
H1550 C1535 0.961 . S
H1551 C1535 0.960 . S
C1552 C1553 1.391 . S
C1552 C1554 1.394 . S
C1552 H1568 0.931 . S
C1553 C1552 1.391 . S
C1553 C1557 1.376 . S
C1554 C1552 1.394 . S
C1554 C1555 1.369 . S
C1554 C1558 1.531 . S
C1555 C1554 1.369 . S
C1555 C1556 1.410 . S
C1555 C1563 1.503 . S
C1556 C1555 1.410 . S
C1556 C1557 1.392 . S
C1556 C1559 1.511 . S
C1557 C1553 1.376 . S
C1557 C1556 1.392 . S
C1557 H1569 0.929 . S
C1558 C1554 1.531 . S
C1558 H1570 0.960 . S
C1558 H1571 0.962 . S
C1558 H1572 0.960 . S
C1559 C1556 1.511 . S
C1559 H1573 0.961 . S
C1559 H1574 0.961 . S
C1559 H1575 0.961 . S
C1560 C1561 1.370 . S
C1560 C1562 1.363 . S
C1560 H1576 0.931 . S
C1561 C1560 1.370 . S
C1561 C1565 1.408 . S
C1562 C1560 1.363 . S
C1562 C1563 1.370 . S
C1562 C1566 1.524 . S
C1563 C1555 1.503 . S
C1563 C1562 1.370 . S
C1563 C1564 1.403 . S
C1564 C1563 1.403 . S
C1564 C1565 1.404 . S
C1564 C1567 1.539 . S
C1565 C1561 1.408 . S
C1565 C1564 1.404 . S
C1565 H1577 0.930 . S
C1566 C1562 1.524 . S
C1566 H1578 0.956 . S
C1566 H1579 0.961 . S
C1566 H1580 0.961 . S
C1567 C1564 1.539 . S
C1567 H1581 0.958 . S
C1567 H1582 0.961 . S
C1567 H1583 0.960 . S
H1568 C1552 0.931 . S
H1569 C1557 0.929 . S
H1570 C1558 0.960 . S
H1571 C1558 0.962 . S
H1572 C1558 0.960 . S
H1573 C1559 0.961 . S
H1574 C1559 0.961 . S
H1575 C1559 0.961 . S
H1576 C1560 0.931 . S
H1577 C1565 0.930 . S
H1578 C1566 0.956 . S
H1579 C1566 0.961 . S
H1580 C1566 0.961 . S
H1581 C1567 0.958 . S
H1582 C1567 0.961 . S
H1583 C1567 0.960 . S
C1584 C1585 1.391 . S
C1584 C1586 1.394 . S
C1584 H1600 0.931 . S
C1585 C1584 1.391 . S
C1585 C1589 1.376 . S
C1586 C1584 1.394 . S
C1586 C1587 1.369 . S
C1586 C1590 1.531 . S
C1587 C1586 1.369 . S
C1587 C1588 1.410 . S
C1587 C1595 1.503 . S
C1588 C1587 1.410 . S
C1588 C1589 1.392 . S
C1588 C1591 1.511 . S
C1589 C1585 1.376 . S
C1589 C1588 1.392 . S
C1589 H1601 0.929 . S
C1590 C1586 1.531 . S
C1590 H1602 0.960 . S
C1590 H1603 0.962 . S
C1590 H1604 0.960 . S
C1591 C1588 1.511 . S
C1591 H1605 0.961 . S
C1591 H1606 0.961 . S
C1591 H1607 0.961 . S
C1592 C1593 1.370 . S
C1592 C1594 1.363 . S
C1592 H1608 0.931 . S
C1593 C1592 1.370 . S
C1593 C1597 1.408 . S
C1594 C1592 1.363 . S
C1594 C1595 1.370 . S
C1594 C1598 1.524 . S
C1595 C1587 1.503 . S
C1595 C1594 1.370 . S
C1595 C1596 1.403 . S
C1596 C1595 1.403 . S
C1596 C1597 1.404 . S
C1596 C1599 1.539 . S
C1597 C1593 1.408 . S
C1597 C1596 1.404 . S
C1597 H1609 0.930 . S
C1598 C1594 1.524 . S
C1598 H1610 0.956 . S
C1598 H1611 0.961 . S
C1598 H1612 0.961 . S
C1599 C1596 1.539 . S
C1599 H1613 0.958 . S
C1599 H1614 0.961 . S
C1599 H1615 0.960 . S
H1600 C1584 0.931 . S
H1601 C1589 0.929 . S
H1602 C1590 0.960 . S
H1603 C1590 0.962 . S
H1604 C1590 0.960 . S
H1605 C1591 0.961 . S
H1606 C1591 0.961 . S
H1607 C1591 0.961 . S
H1608 C1592 0.931 . S
H1609 C1597 0.930 . S
H1610 C1598 0.956 . S
H1611 C1598 0.961 . S
H1612 C1598 0.961 . S
H1613 C1599 0.958 . S
H1614 C1599 0.961 . S
H1615 C1599 0.960 . S
C1616 C1617 1.391 . S
C1616 C1618 1.394 . S
C1616 H1632 0.931 . S
C1617 C1616 1.391 . S
C1617 C1621 1.376 . S
C1618 C1616 1.394 . S
C1618 C1619 1.369 . S
C1618 C1622 1.531 . S
C1619 C1618 1.369 . S
C1619 C1620 1.410 . S
C1619 C1627 1.503 . S
C1620 C1619 1.410 . S
C1620 C1621 1.392 . S
C1620 C1623 1.511 . S
C1621 C1617 1.376 . S
C1621 C1620 1.392 . S
C1621 H1633 0.929 . S
C1622 C1618 1.531 . S
C1622 H1634 0.960 . S
C1622 H1635 0.962 . S
C1622 H1636 0.960 . S
C1623 C1620 1.511 . S
C1623 H1637 0.961 . S
C1623 H1638 0.961 . S
C1623 H1639 0.961 . S
C1624 C1625 1.370 . S
C1624 C1626 1.363 . S
C1624 H1640 0.931 . S
C1625 C1624 1.370 . S
C1625 C1629 1.408 . S
C1626 C1624 1.363 . S
C1626 C1627 1.370 . S
C1626 C1630 1.524 . S
C1627 C1619 1.503 . S
C1627 C1626 1.370 . S
C1627 C1628 1.403 . S
C1628 C1627 1.403 . S
C1628 C1629 1.404 . S
C1628 C1631 1.539 . S
C1629 C1625 1.408 . S
C1629 C1628 1.404 . S
C1629 H1641 0.930 . S
C1630 C1626 1.524 . S
C1630 H1642 0.956 . S
C1630 H1643 0.961 . S
C1630 H1644 0.961 . S
C1631 C1628 1.539 . S
C1631 H1645 0.958 . S
C1631 H1646 0.961 . S
C1631 H1647 0.960 . S
H1632 C1616 0.931 . S
H1633 C1621 0.929 . S
H1634 C1622 0.960 . S
H1635 C1622 0.962 . S
H1636 C1622 0.960 . S
H1637 C1623 0.961 . S
H1638 C1623 0.961 . S
H1639 C1623 0.961 . S
H1640 C1624 0.931 . S
H1641 C1629 0.930 . S
H1642 C1630 0.956 . S
H1643 C1630 0.961 . S
H1644 C1630 0.961 . S
H1645 C1631 0.958 . S
H1646 C1631 0.961 . S
H1647 C1631 0.960 . S
C1648 C1649 1.391 . S
C1648 C1650 1.394 . S
C1648 H1664 0.931 . S
C1649 C1648 1.391 . S
C1649 C1653 1.376 . S
C1650 C1648 1.394 . S
C1650 C1651 1.369 . S
C1650 C1654 1.531 . S
C1651 C1650 1.369 . S
C1651 C1652 1.410 . S
C1651 C1659 1.503 . S
C1652 C1651 1.410 . S
C1652 C1653 1.392 . S
C1652 C1655 1.511 . S
C1653 C1649 1.376 . S
C1653 C1652 1.392 . S
C1653 H1665 0.929 . S
C1654 C1650 1.531 . S
C1654 H1666 0.960 . S
C1654 H1667 0.962 . S
C1654 H1668 0.960 . S
C1655 C1652 1.511 . S
C1655 H1669 0.961 . S
C1655 H1670 0.961 . S
C1655 H1671 0.961 . S
C1656 C1657 1.370 . S
C1656 C1658 1.363 . S
C1656 H1672 0.931 . S
C1657 C1656 1.370 . S
C1657 C1661 1.408 . S
C1658 C1656 1.363 . S
C1658 C1659 1.370 . S
C1658 C1662 1.524 . S
C1659 C1651 1.503 . S
C1659 C1658 1.370 . S
C1659 C1660 1.403 . S
C1660 C1659 1.403 . S
C1660 C1661 1.404 . S
C1660 C1663 1.539 . S
C1661 C1657 1.408 . S
C1661 C1660 1.404 . S
C1661 H1673 0.930 . S
C1662 C1658 1.524 . S
C1662 H1674 0.956 . S
C1662 H1675 0.961 . S
C1662 H1676 0.961 . S
C1663 C1660 1.539 . S
C1663 H1677 0.958 . S
C1663 H1678 0.961 . S
C1663 H1679 0.960 . S
H1664 C1648 0.931 . S
H1665 C1653 0.929 . S
H1666 C1654 0.960 . S
H1667 C1654 0.962 . S
H1668 C1654 0.960 . S
H1669 C1655 0.961 . S
H1670 C1655 0.961 . S
H1671 C1655 0.961 . S
H1672 C1656 0.931 . S
H1673 C1661 0.930 . S
H1674 C1662 0.956 . S
H1675 C1662 0.961 . S
H1676 C1662 0.961 . S
H1677 C1663 0.958 . S
H1678 C1663 0.961 . S
H1679 C1663 0.960 . S
C1680 C1681 1.391 . S
C1680 C1682 1.394 1_656 S
C1680 H1696 0.931 . S
C1681 C1680 1.391 . S
C1681 C1685 1.375 1_556 S
C1682 C1680 1.394 1_454 S
C1682 C1683 1.369 . S
C1682 C1686 1.531 . S
C1683 C1682 1.369 . S
C1683 C1684 1.410 . S
C1683 C1691 1.503 . S
C1684 C1683 1.410 . S
C1684 C1685 1.392 1_455 S
C1684 C1687 1.511 . S
C1685 C1681 1.375 1_554 S
C1685 C1684 1.392 1_655 S
C1685 H1697 0.929 . S
C1686 C1682 1.531 . S
C1686 H1698 0.960 . S
C1686 H1699 0.962 1_554 S
C1686 H1700 0.960 . S
C1687 C1684 1.511 . S
C1687 H1701 0.961 1_455 S
C1687 H1702 0.961 . S
C1687 H1703 0.961 1_455 S
C1688 C1689 1.370 . S
C1688 C1690 1.363 . S
C1688 H1704 0.931 . S
C1689 C1688 1.370 . S
C1689 C1693 1.408 . S
C1690 C1688 1.363 . S
C1690 C1691 1.370 . S
C1690 C1694 1.524 1_554 S
C1691 C1683 1.503 . S
C1691 C1690 1.370 . S
C1691 C1692 1.403 . S
C1692 C1691 1.403 . S
C1692 C1693 1.404 . S
C1692 C1695 1.539 . S
C1693 C1689 1.408 . S
C1693 C1692 1.404 . S
C1693 H1705 0.930 . S
C1694 C1690 1.524 1_556 S
C1694 H1706 0.956 . S
C1694 H1707 0.961 . S
C1694 H1708 0.961 . S
C1695 C1692 1.539 . S
C1695 H1709 0.958 . S
C1695 H1710 0.961 . S
C1695 H1711 0.960 . S
H1696 C1680 0.931 . S
H1697 C1685 0.929 . S
H1698 C1686 0.960 . S
H1699 C1686 0.962 1_556 S
H1700 C1686 0.960 . S
H1701 C1687 0.961 1_655 S
H1702 C1687 0.961 . S
H1703 C1687 0.961 1_655 S
H1704 C1688 0.931 . S
H1705 C1693 0.930 . S
H1706 C1694 0.956 . S
H1707 C1694 0.961 . S
H1708 C1694 0.961 . S
H1709 C1695 0.958 . S
H1710 C1695 0.961 . S
H1711 C1695 0.960 . S
C1712 C1713 1.391 . S
C1712 C1714 1.394 . S
C1712 H1728 0.931 . S
C1713 C1712 1.391 . S
C1713 C1717 1.376 . S
C1714 C1712 1.394 . S
C1714 C1715 1.369 . S
C1714 C1718 1.531 . S
C1715 C1714 1.369 . S
C1715 C1716 1.410 . S
C1715 C1723 1.503 . S
C1716 C1715 1.410 . S
C1716 C1717 1.392 . S
C1716 C1719 1.511 . S
C1717 C1713 1.376 . S
C1717 C1716 1.392 . S
C1717 H1729 0.929 . S
C1718 C1714 1.531 . S
C1718 H1730 0.960 . S
C1718 H1731 0.962 . S
C1718 H1732 0.960 . S
C1719 C1716 1.511 . S
C1719 H1733 0.961 . S
C1719 H1734 0.961 . S
C1719 H1735 0.961 . S
C1720 C1721 1.370 . S
C1720 C1722 1.363 . S
C1720 H1736 0.931 . S
C1721 C1720 1.370 . S
C1721 C1725 1.408 . S
C1722 C1720 1.363 . S
C1722 C1723 1.370 . S
C1722 C1726 1.524 . S
C1723 C1715 1.503 . S
C1723 C1722 1.370 . S
C1723 C1724 1.403 . S
C1724 C1723 1.403 . S
C1724 C1725 1.404 . S
C1724 C1727 1.539 . S
C1725 C1721 1.408 . S
C1725 C1724 1.404 . S
C1725 H1737 0.930 . S
C1726 C1722 1.524 . S
C1726 H1738 0.956 . S
C1726 H1739 0.961 . S
C1726 H1740 0.961 . S
C1727 C1724 1.539 . S
C1727 H1741 0.958 . S
C1727 H1742 0.961 . S
C1727 H1743 0.960 . S
H1728 C1712 0.931 . S
H1729 C1717 0.929 . S
H1730 C1718 0.960 . S
H1731 C1718 0.962 . S
H1732 C1718 0.960 . S
H1733 C1719 0.961 . S
H1734 C1719 0.961 . S
H1735 C1719 0.961 . S
H1736 C1720 0.931 . S
H1737 C1725 0.930 . S
H1738 C1726 0.956 . S
H1739 C1726 0.961 . S
H1740 C1726 0.961 . S
H1741 C1727 0.958 . S
H1742 C1727 0.961 . S
H1743 C1727 0.960 . S
C1744 C1745 1.391 . S
C1744 C1746 1.394 . S
C1744 H1760 0.931 . S
C1745 C1744 1.391 . S
C1745 C1749 1.376 . S
C1746 C1744 1.394 . S
C1746 C1747 1.369 . S
C1746 C1750 1.531 . S
C1747 C1746 1.369 . S
C1747 C1748 1.410 . S
C1747 C1755 1.503 . S
C1748 C1747 1.410 . S
C1748 C1749 1.392 . S
C1748 C1751 1.511 . S
C1749 C1745 1.376 . S
C1749 C1748 1.392 . S
C1749 H1761 0.929 . S
C1750 C1746 1.531 . S
C1750 H1762 0.960 . S
C1750 H1763 0.962 . S
C1750 H1764 0.960 . S
C1751 C1748 1.511 . S
C1751 H1765 0.961 . S
C1751 H1766 0.961 . S
C1751 H1767 0.961 . S
C1752 C1753 1.370 . S
C1752 C1754 1.363 . S
C1752 H1768 0.931 . S
C1753 C1752 1.370 . S
C1753 C1757 1.408 . S
C1754 C1752 1.363 . S
C1754 C1755 1.370 . S
C1754 C1758 1.524 . S
C1755 C1747 1.503 . S
C1755 C1754 1.370 . S
C1755 C1756 1.403 . S
C1756 C1755 1.403 . S
C1756 C1757 1.404 . S
C1756 C1759 1.539 . S
C1757 C1753 1.408 . S
C1757 C1756 1.404 . S
C1757 H1769 0.930 . S
C1758 C1754 1.524 . S
C1758 H1770 0.956 . S
C1758 H1771 0.961 . S
C1758 H1772 0.961 . S
C1759 C1756 1.539 . S
C1759 H1773 0.958 . S
C1759 H1774 0.961 . S
C1759 H1775 0.960 . S
H1760 C1744 0.931 . S
H1761 C1749 0.929 . S
H1762 C1750 0.960 . S
H1763 C1750 0.962 . S
H1764 C1750 0.960 . S
H1765 C1751 0.961 . S
H1766 C1751 0.961 . S
H1767 C1751 0.961 . S
H1768 C1752 0.931 . S
H1769 C1757 0.930 . S
H1770 C1758 0.956 . S
H1771 C1758 0.961 . S
H1772 C1758 0.961 . S
H1773 C1759 0.958 . S
H1774 C1759 0.961 . S
H1775 C1759 0.960 . S
C1776 C1777 1.391 . S
C1776 C1778 1.394 . S
C1776 H1792 0.931 . S
C1777 C1776 1.391 . S
C1777 C1781 1.376 . S
C1778 C1776 1.394 . S
C1778 C1779 1.369 . S
C1778 C1782 1.531 . S
C1779 C1778 1.369 . S
C1779 C1780 1.410 . S
C1779 C1787 1.503 . S
C1780 C1779 1.410 . S
C1780 C1781 1.392 . S
C1780 C1783 1.511 . S
C1781 C1777 1.376 . S
C1781 C1780 1.392 . S
C1781 H1793 0.929 . S
C1782 C1778 1.531 . S
C1782 H1794 0.960 . S
C1782 H1795 0.962 . S
C1782 H1796 0.960 . S
C1783 C1780 1.511 . S
C1783 H1797 0.961 . S
C1783 H1798 0.961 . S
C1783 H1799 0.961 . S
C1784 C1785 1.370 . S
C1784 C1786 1.363 . S
C1784 H1800 0.931 . S
C1785 C1784 1.370 . S
C1785 C1789 1.408 . S
C1786 C1784 1.363 . S
C1786 C1787 1.370 . S
C1786 C1790 1.524 . S
C1787 C1779 1.503 . S
C1787 C1786 1.370 . S
C1787 C1788 1.403 . S
C1788 C1787 1.403 . S
C1788 C1789 1.404 . S
C1788 C1791 1.539 . S
C1789 C1785 1.408 . S
C1789 C1788 1.404 . S
C1789 H1801 0.930 . S
C1790 C1786 1.524 . S
C1790 H1802 0.956 . S
C1790 H1803 0.961 . S
C1790 H1804 0.961 . S
C1791 C1788 1.539 . S
C1791 H1805 0.958 . S
C1791 H1806 0.961 . S
C1791 H1807 0.960 . S
H1792 C1776 0.931 . S
H1793 C1781 0.929 . S
H1794 C1782 0.960 . S
H1795 C1782 0.962 . S
H1796 C1782 0.960 . S
H1797 C1783 0.961 . S
H1798 C1783 0.961 . S
H1799 C1783 0.961 . S
H1800 C1784 0.931 . S
H1801 C1789 0.930 . S
H1802 C1790 0.956 . S
H1803 C1790 0.961 . S
H1804 C1790 0.961 . S
H1805 C1791 0.958 . S
H1806 C1791 0.961 . S
H1807 C1791 0.960 . S
C1808 C1809 1.392 . S
C1808 C1810 1.394 1_554 S
C1808 H1824 0.931 . S
C1809 C1808 1.392 . S
C1809 C1813 1.370 1_554 S
C1810 C1808 1.394 1_556 S
C1810 C1811 1.369 . S
C1810 C1814 1.531 . S
C1811 C1810 1.369 . S
C1811 C1812 1.410 . S
C1811 C1819 1.503 . S
C1812 C1811 1.410 . S
C1812 C1813 1.392 . S
C1812 C1815 1.511 . S
C1813 C1809 1.370 1_556 S
C1813 C1812 1.392 . S
C1813 H1825 0.929 . S
C1814 C1810 1.531 . S
C1814 H1826 0.960 . S
C1814 H1827 0.962 1_556 S
C1814 H1828 0.960 1_556 S
C1815 C1812 1.511 . S
C1815 H1829 0.961 . S
C1815 H1830 0.961 . S
C1815 H1831 0.961 . S
C1816 C1817 1.370 . S
C1816 C1818 1.363 . S
C1816 H1832 0.931 . S
C1817 C1816 1.370 . S
C1817 C1821 1.408 . S
C1818 C1816 1.363 . S
C1818 C1819 1.370 . S
C1818 C1822 1.524 1_556 S
C1819 C1811 1.503 . S
C1819 C1818 1.370 . S
C1819 C1820 1.403 . S
C1820 C1819 1.403 . S
C1820 C1821 1.404 . S
C1820 C1823 1.539 . S
C1821 C1817 1.408 . S
C1821 C1820 1.404 . S
C1821 H1833 0.930 . S
C1822 C1818 1.524 1_554 S
C1822 H1834 0.956 . S
C1822 H1835 0.961 . S
C1822 H1836 0.961 . S
C1823 C1820 1.539 . S
C1823 H1837 0.958 . S
C1823 H1838 0.961 . S
C1823 H1839 0.960 . S
H1824 C1808 0.931 . S
H1825 C1813 0.929 . S
H1826 C1814 0.960 . S
H1827 C1814 0.962 1_554 S
H1828 C1814 0.960 1_554 S
H1829 C1815 0.961 . S
H1830 C1815 0.961 . S
H1831 C1815 0.961 . S
H1832 C1816 0.931 . S
H1833 C1821 0.930 . S
H1834 C1822 0.956 . S
H1835 C1822 0.961 . S
H1836 C1822 0.961 . S
H1837 C1823 0.958 . S
H1838 C1823 0.961 . S
H1839 C1823 0.960 . S
C1840 C1841 1.391 . S
C1840 C1842 1.394 . S
C1840 H1856 0.931 . S
C1841 C1840 1.391 . S
C1841 C1845 1.376 . S
C1842 C1840 1.394 . S
C1842 C1843 1.369 . S
C1842 C1846 1.531 . S
C1843 C1842 1.369 . S
C1843 C1844 1.410 . S
C1843 C1851 1.503 . S
C1844 C1843 1.410 . S
C1844 C1845 1.392 . S
C1844 C1847 1.511 . S
C1845 C1841 1.376 . S
C1845 C1844 1.392 . S
C1845 H1857 0.929 . S
C1846 C1842 1.531 . S
C1846 H1858 0.960 . S
C1846 H1859 0.962 . S
C1846 H1860 0.960 . S
C1847 C1844 1.511 . S
C1847 H1861 0.961 . S
C1847 H1862 0.961 . S
C1847 H1863 0.961 . S
C1848 C1849 1.370 . S
C1848 C1850 1.363 1_455 S
C1848 H1864 0.931 . S
C1849 C1848 1.370 . S
C1849 C1853 1.408 . S
C1850 C1848 1.363 1_655 S
C1850 C1851 1.370 . S
C1850 C1854 1.524 . S
C1851 C1843 1.503 . S
C1851 C1850 1.370 . S
C1851 C1852 1.403 . S
C1852 C1851 1.403 . S
C1852 C1853 1.404 1_655 S
C1852 C1855 1.539 . S
C1853 C1849 1.408 . S
C1853 C1852 1.404 1_455 S
C1853 H1865 0.930 . S
C1854 C1850 1.524 . S
C1854 H1866 0.956 . S
C1854 H1867 0.961 . S
C1854 H1868 0.961 1_655 S
C1855 C1852 1.539 . S
C1855 H1869 0.958 . S
C1855 H1870 0.961 . S
C1855 H1871 0.960 . S
H1856 C1840 0.931 . S
H1857 C1845 0.929 . S
H1858 C1846 0.960 . S
H1859 C1846 0.962 . S
H1860 C1846 0.960 . S
H1861 C1847 0.961 . S
H1862 C1847 0.961 . S
H1863 C1847 0.961 . S
H1864 C1848 0.931 . S
H1865 C1853 0.930 . S
H1866 C1854 0.956 . S
H1867 C1854 0.961 . S
H1868 C1854 0.961 1_455 S
H1869 C1855 0.958 . S
H1870 C1855 0.961 . S
H1871 C1855 0.960 . S
C337 C132 1.267 . S
C345 C6 1.261 . S
C369 C20 1.251 1_455 S
C377 C146 1.262 . S
C401 C34 1.251 . S
C409 C160 1.255 1_556 S
C433 C48 1.261 . S
C441 C118 1.264 . S
C465 C62 1.265 . S
C473 C216 1.263 . S
C497 C174 1.247 . S
C505 C76 1.259 1_655 S
C529 C90 1.246 . S
C537 C188 1.256 1_554 S
C561 C202 1.249 . S
C569 C104 1.255 . S
C593 C230 1.256 . S
C601 C258 1.263 . S
C625 C314 1.257 1_545 S
C633 C244 1.263 . S
C657 C272 1.266 . S
C665 C328 1.260 1_565 S
C689 C300 1.260 . S
C697 C286 1.257 . S
C721 C287 1.866 . S
C729 C7 1.862 . S
C753 C21 1.857 . S
C761 C245 1.863 . S
C785 C35 1.843 . S
C793 C259 1.833 . S
C817 C49 1.853 . S
C825 C273 1.834 . S
C849 C63 1.829 . S
C857 C329 1.860 . S
C881 C301 1.844 . S
C889 C77 1.863 . S
C913 C315 1.869 . S
C921 C91 1.840 . S
C945 C231 1.846 . S
C953 C105 1.863 . S
C977 C217 1.809 . S
C985 C119 1.850 . S
C1009 C133 1.830 . S
C1017 C175 1.860 . S
C1041 C189 1.855 . S
C1049 C147 1.835 . S
C1073 C203 1.865 . S
C1081 C161 1.838 . S
C1105 C9 1.153 . S
C1113 C232 1.209 . S
C1137 C330 1.181 . S
C1145 C23 1.139 . S
C1169 C302 1.198 . S
C1177 C37 1.129 . S
C1201 C51 1.097 . S
C1209 C316 1.198 . S
C1233 C65 1.176 . S
C1241 C246 1.209 . S
C1265 C260 1.217 . S
C1273 C79 1.157 . S
C1297 C274 1.191 . S
C1305 C93 1.159 . S
C1329 C288 1.190 . S
C1337 C107 1.158 . S
C1361 C8 1.181 . S
C1369 C121 1.136 . S
C1393 C22 1.216 . S
C1401 C135 1.165 . S
C1425 C36 1.194 . S
C1433 C149 1.128 . S
C1457 C50 1.210 . S
C1465 C163 1.167 . S
C1489 C64 1.216 . S
C1497 C177 1.152 . S
C1521 C78 1.192 . S
C1529 C191 1.160 . S
C1553 C205 1.105 . S
C1561 C92 1.195 . S
C1585 C106 1.199 . S
C1593 C219 1.165 . S
C1617 C120 1.202 . S
C1625 C233 1.166 . S
C1649 C247 1.184 . S
C1657 C176 1.201 . S
C1681 C190 1.208 . S
C1689 C261 1.168 . S
C1713 C275 1.098 . S
C1721 C204 1.200 . S
C1745 C289 1.124 . S
C1753 C218 1.195 . S
C1777 C303 1.098 . S
C1785 C148 1.200 . S
C1809 C162 1.210 . S
C1817 C317 1.167 . S
C1841 C331 1.130 . S
C1849 C134 1.195 . S
