# Generated by pormake.
# Topology wkf, (6)-cn, num edge types: 1
# Building blocks:
#     Node 0, Type 0, BuildingBlock: KUMBOL_clean_sbu_1, # of connection points: 6
#     Node 1, Type 0, BuildingBlock: KUMBOL_clean_sbu_1, # of connection points: 6
#     Node 2, Type 0, BuildingBlock: KUMBOL_clean_sbu_1, # of connection points: 6
#     Node 3, Type 0, BuildingBlock: KUMBOL_clean_sbu_1, # of connection points: 6
#     Node 4, Type 0, BuildingBlock: KUMBOL_clean_sbu_1, # of connection points: 6
#     Node 5, Type 0, BuildingBlock: KUMBOL_clean_sbu_1, # of connection points: 6
#     Node 6, Type 0, BuildingBlock: KUMBOL_clean_sbu_1, # of connection points: 6
#     Node 7, Type 0, BuildingBlock: KUMBOL_clean_sbu_1, # of connection points: 6
#     Node 8, Type 0, BuildingBlock: KUMBOL_clean_sbu_1, # of connection points: 6
#     Node 9, Type 0, BuildingBlock: KUMBOL_clean_sbu_1, # of connection points: 6
#     Node 10, Type 0, BuildingBlock: KUMBOL_clean_sbu_1, # of connection points: 6
#     Node 11, Type 0, BuildingBlock: KUMBOL_clean_sbu_1, # of connection points: 6
#     Edge 12, Type (0, 0), BuildingBlock: KIFKEQ_clean_linker_1, # of connection points: 2
#     Edge 13, Type (0, 0), BuildingBlock: KIFKEQ_clean_linker_1, # of connection points: 2
#     Edge 14, Type (0, 0), BuildingBlock: KIFKEQ_clean_linker_1, # of connection points: 2
#     Edge 15, Type (0, 0), BuildingBlock: KIFKEQ_clean_linker_1, # of connection points: 2
#     Edge 16, Type (0, 0), BuildingBlock: KIFKEQ_clean_linker_1, # of connection points: 2
#     Edge 17, Type (0, 0), BuildingBlock: KIFKEQ_clean_linker_1, # of connection points: 2
#     Edge 18, Type (0, 0), BuildingBlock: KIFKEQ_clean_linker_1, # of connection points: 2
#     Edge 19, Type (0, 0), BuildingBlock: KIFKEQ_clean_linker_1, # of connection points: 2
#     Edge 20, Type (0, 0), BuildingBlock: KIFKEQ_clean_linker_1, # of connection points: 2
#     Edge 21, Type (0, 0), BuildingBlock: KIFKEQ_clean_linker_1, # of connection points: 2
#     Edge 22, Type (0, 0), BuildingBlock: KIFKEQ_clean_linker_1, # of connection points: 2
#     Edge 23, Type (0, 0), BuildingBlock: KIFKEQ_clean_linker_1, # of connection points: 2
#     Edge 24, Type (0, 0), BuildingBlock: KIFKEQ_clean_linker_1, # of connection points: 2
#     Edge 25, Type (0, 0), BuildingBlock: KIFKEQ_clean_linker_1, # of connection points: 2
#     Edge 26, Type (0, 0), BuildingBlock: KIFKEQ_clean_linker_1, # of connection points: 2
#     Edge 27, Type (0, 0), BuildingBlock: KIFKEQ_clean_linker_1, # of connection points: 2
#     Edge 28, Type (0, 0), BuildingBlock: KIFKEQ_clean_linker_1, # of connection points: 2
#     Edge 29, Type (0, 0), BuildingBlock: KIFKEQ_clean_linker_1, # of connection points: 2
#     Edge 30, Type (0, 0), BuildingBlock: KIFKEQ_clean_linker_1, # of connection points: 2
#     Edge 31, Type (0, 0), BuildingBlock: KIFKEQ_clean_linker_1, # of connection points: 2
#     Edge 32, Type (0, 0), BuildingBlock: KIFKEQ_clean_linker_1, # of connection points: 2
#     Edge 33, Type (0, 0), BuildingBlock: KIFKEQ_clean_linker_1, # of connection points: 2
#     Edge 34, Type (0, 0), BuildingBlock: KIFKEQ_clean_linker_1, # of connection points: 2
#     Edge 35, Type (0, 0), BuildingBlock: KIFKEQ_clean_linker_1, # of connection points: 2
#     Edge 36, Type (0, 0), BuildingBlock: KIFKEQ_clean_linker_1, # of connection points: 2
#     Edge 37, Type (0, 0), BuildingBlock: KIFKEQ_clean_linker_1, # of connection points: 2
#     Edge 38, Type (0, 0), BuildingBlock: KIFKEQ_clean_linker_1, # of connection points: 2
#     Edge 39, Type (0, 0), BuildingBlock: KIFKEQ_clean_linker_1, # of connection points: 2
#     Edge 40, Type (0, 0), BuildingBlock: KIFKEQ_clean_linker_1, # of connection points: 2
#     Edge 41, Type (0, 0), BuildingBlock: KIFKEQ_clean_linker_1, # of connection points: 2
#     Edge 42, Type (0, 0), BuildingBlock: KIFKEQ_clean_linker_1, # of connection points: 2
#     Edge 43, Type (0, 0), BuildingBlock: KIFKEQ_clean_linker_1, # of connection points: 2
#     Edge 44, Type (0, 0), BuildingBlock: KIFKEQ_clean_linker_1, # of connection points: 2
#     Edge 45, Type (0, 0), BuildingBlock: KIFKEQ_clean_linker_1, # of connection points: 2
#     Edge 46, Type (0, 0), BuildingBlock: KIFKEQ_clean_linker_1, # of connection points: 2
#     Edge 47, Type (0, 0), BuildingBlock: KIFKEQ_clean_linker_1, # of connection points: 2
# Relax obj value: 0.232
# Max RMSD: 0.284
# Mean RMSD: 0.277
data_MOF--net-wkf--node1-KUMBOL_clean_sbu_1--edge1-KIFKEQ_clean_linker_1
_symmetry_space_group_name_H-M    P1
_symmetry_Int_Tables_number       1
_symmetry_cell_setting            triclinic
loop_
_symmetry_equiv_pos_as_xyz
'x, y, z'
_cell_length_a     30.222527
_cell_length_b     30.252994
_cell_length_c     88.501822
_cell_angle_alpha  90.157626
_cell_angle_beta   89.895679
_cell_angle_gamma 119.55217
loop_
_atom_site_label
_atom_site_type_symbol
_atom_site_fract_x
_atom_site_fract_y
_atom_site_fract_z
_atom_type_partial_charge
C0 C 0.60543 0.94372 0.36719 0.0
C1 C 0.64279 0.98074 0.34307 0.0
C2 C 0.61163 0.97678 0.35553 0.0
C3 C 0.66451 0.9491 0.34214 0.0
C4 C 0.629 0.9134 0.36662 0.0
C5 C 0.65765 0.91552 0.35389 0.0
N6 N 0.57645 0.94122 0.37918 0.0
C7 C 0.57086 0.91096 0.39127 0.0
C8 C 0.62306 0.88181 0.37889 0.0
C9 C 0.59416 0.8809 0.39133 0.0
Gd10 Gd 0.4245 0.95181 0.35043 0.0
Gd11 Gd 0.53616 0.99014 0.3785 0.0
N12 N 0.58974 1.00685 0.35675 0.0
C13 C 0.65303 1.01777 0.33217 0.0
C14 C 0.60411 0.04613 0.34672 0.0
C15 C 0.63484 0.05149 0.33426 0.0
H16 H 0.59355 0.07469 0.34795 0.0
H17 H 0.64467 0.08201 0.32628 0.0
H18 H 0.34015 0.98975 0.35906 0.0
H19 H 0.54737 0.90915 0.40073 0.0
H20 H 0.30379 0.03832 0.34695 0.0
H21 H 0.67686 1.02214 0.32249 0.0
H22 H 0.68787 0.95132 0.33255 0.0
H23 H 0.52869 0.97486 0.32885 0.0
H24 H 0.64054 0.85798 0.37886 0.0
H25 H 0.58921 0.85653 0.40086 0.0
H26 H 0.39221 0.09228 0.29968 0.0
H27 H 0.67537 0.89198 0.35315 0.0
H28 H 0.52876 0.05878 0.2903 0.0
H29 H 0.56582 1.01527 0.30476 0.0
N30 N 0.47073 0.99575 0.32872 0.0
C31 C 0.44909 1.01885 0.32073 0.0
C32 C 0.51197 0.99411 0.32303 0.0
C33 C 0.51198 0.04108 0.301 0.0
C34 C 0.53318 1.0168 0.30918 0.0
C35 C 0.46969 0.04266 0.30677 0.0
H36 H 0.46338 0.08632 0.28836 0.0
N37 N 0.39006 1.00018 0.34076 0.0
C38 C 0.40797 1.02147 0.32698 0.0
C39 C 0.34957 0.05446 0.32686 0.0
C40 C 0.38782 0.04894 0.31962 0.0
C41 C 0.35395 1.00679 0.34811 0.0
C42 C 0.33297 1.03377 0.34122 0.0
O43 O 0.49516 0.90721 0.37083 0.0
O44 O 0.47734 0.9172 0.34676 0.0
O45 O 0.34803 0.91625 0.34021 0.0
O46 O 0.39147 0.87832 0.33897 0.0
O47 O 0.54132 0.06335 0.36837 0.0
O48 O 0.47818 0.03919 0.35017 0.0
O49 O 0.40913 0.98135 0.37291 0.0
O50 O 0.48884 1.0263 0.38445 0.0
O51 O 0.60833 0.03874 0.38962 0.0
O52 O 0.54204 0.99072 0.40289 0.0
O53 O 0.39447 0.90911 0.3731 0.0
O54 O 0.46317 0.9283 0.38906 0.0
C55 C 0.4892 0.89223 0.3567 0.0
C56 C 0.51742 0.07502 0.35776 0.0
C57 C 0.34318 0.87286 0.31704 0.0
C58 C 0.28893 0.84171 0.29411 0.0
C59 C 0.38111 0.89121 0.29192 0.0
C60 C 0.38604 0.89437 0.30756 0.0
C61 C 0.33326 0.8655 0.28527 0.0
C62 C 0.29403 0.84545 0.3102 0.0
C63 C 0.35168 0.87954 0.33385 0.0
C64 C 0.4075 0.07138 0.30555 0.0
C65 C 0.44814 0.06808 0.29912 0.0
H66 H 0.33328 0.07544 0.32158 0.0
C67 C 0.44096 1.01453 0.38303 0.0
C68 C 0.41389 0.9033 0.38599 0.0
C69 C 0.59874 0.06952 0.41346 0.0
C70 C 0.63739 0.16035 0.41872 0.0
C71 C 0.59456 0.0984 0.43872 0.0
C72 C 0.58379 0.05893 0.42863 0.0
C73 C 0.62182 0.14879 0.43391 0.0
C74 C 0.62364 0.12005 0.40846 0.0
C75 C 0.58864 1.02745 0.4031 0.0
H76 H 0.41479 0.90848 0.28488 0.0
H77 H 0.42388 0.91339 0.31224 0.0
H78 H 0.33094 0.86324 0.27304 0.0
H79 H 0.26038 0.82768 0.31725 0.0
H80 H 0.58321 0.08999 0.45044 0.0
H81 H 0.56405 1.02011 0.43268 0.0
H82 H 0.63238 0.1784 0.4423 0.0
H83 H 0.63348 0.12794 0.39663 0.0
C84 C 0.68134 0.60236 0.5351 0.0
C85 C 0.67343 0.64011 0.51188 0.0
C86 C 0.65096 0.60347 0.5235 0.0
C87 C 0.72593 0.67436 0.51201 0.0
C88 C 0.73433 0.63651 0.53514 0.0
C89 C 0.75632 0.67243 0.52356 0.0
N90 N 0.65951 0.56725 0.54619 0.0
C91 C 0.68842 0.56413 0.55759 0.0
C92 C 0.76394 0.63356 0.5468 0.0
C93 C 0.74087 0.59714 0.55806 0.0
Gd94 Gd 0.50295 0.39975 0.51721 0.0
Gd95 Gd 0.57062 0.51541 0.54533 0.0
N96 N 0.60008 0.5689 0.52344 0.0
C97 C 0.64267 0.64161 0.50041 0.0
C98 C 0.5706 0.57027 0.51189 0.0
C99 C 0.59107 0.60663 0.50045 0.0
H100 H 0.53178 0.54246 0.51054 0.0
H101 H 0.56703 0.60661 0.49139 0.0
H102 H 0.37695 0.33959 0.51571 0.0
H103 H 0.67131 0.53502 0.56614 0.0
H104 H 0.30984 0.32506 0.49711 0.0
H105 H 0.65847 0.66918 0.49136 0.0
H106 H 0.74349 0.70245 0.50316 0.0
H107 H 0.61594 0.50399 0.50311 0.0
H108 H 0.80468 0.65901 0.54715 0.0
H109 H 0.7635 0.59414 0.56704 0.0
H110 H 0.40152 0.43217 0.4554 0.0
H111 H 0.79684 0.69893 0.52344 0.0
H112 H 0.58142 0.53656 0.45967 0.0
H113 H 0.64351 0.54977 0.47963 0.0
N114 N 0.53743 0.45917 0.49694 0.0
C115 C 0.50251 0.45185 0.48598 0.0
C116 C 0.58758 0.49432 0.49462 0.0
C117 C 0.56863 0.5146 0.46999 0.0
C118 C 0.60378 0.52193 0.48119 0.0
C119 C 0.51734 0.47967 0.47232 0.0
H120 H 0.49164 0.49297 0.45083 0.0
N121 N 0.43719 0.39113 0.50164 0.0
C122 C 0.45127 0.41689 0.48838 0.0
C123 C 0.363 0.37599 0.48063 0.0
C124 C 0.41429 0.40982 0.47747 0.0
C125 C 0.38726 0.35893 0.50495 0.0
C126 C 0.3494 0.35081 0.49449 0.0
O127 O 0.62716 0.49225 0.53624 0.0
O128 O 0.59042 0.43109 0.51742 0.0
O129 O 0.45989 0.31689 0.51741 0.0
O130 O 0.5067 0.35379 0.49836 0.0
O131 O 0.49991 0.51493 0.53544 0.0
O132 O 0.45959 0.44573 0.51915 0.0
O133 O 0.44949 0.38658 0.53737 0.0
O134 O 0.49446 0.45492 0.55379 0.0
O135 O 0.56688 0.57821 0.55653 0.0
O136 O 0.59072 0.5327 0.56882 0.0
O137 O 0.52784 0.37656 0.53895 0.0
O138 O 0.5632 0.4442 0.55602 0.0
C139 C 0.6306 0.46369 0.52551 0.0
C140 C 0.46184 0.48584 0.5262 0.0
C141 C 0.43354 0.2714 0.49382 0.0
C142 C 0.40621 0.21067 0.47224 0.0
C143 C 0.34364 0.21581 0.48849 0.0
C144 C 0.38203 0.25185 0.49757 0.0
C145 C 0.35544 0.19584 0.47595 0.0
C146 C 0.4456 0.25011 0.48105 0.0
C147 C 0.4737 0.31045 0.50404 0.0
C148 C 0.42936 0.43722 0.46392 0.0
C149 C 0.48068 0.47193 0.46134 0.0
H150 H 0.33357 0.36967 0.47254 0.0
C151 C 0.45419 0.41161 0.55018 0.0
C152 C 0.54748 0.39638 0.55234 0.0
C153 C 0.53884 0.55686 0.58192 0.0
C154 C 0.4966 0.58857 0.59864 0.0
C155 C 0.47827 0.50136 0.60077 0.0
C156 C 0.51205 0.50905 0.58899 0.0
C157 C 0.47003 0.54067 0.60549 0.0
C158 C 0.53087 0.59638 0.58681 0.0
C159 C 0.57596 0.56601 0.56978 0.0
H160 H 0.30423 0.20235 0.49141 0.0
H161 H 0.37092 0.26374 0.50771 0.0
H162 H 0.32425 0.16761 0.46927 0.0
H163 H 0.48502 0.26267 0.47839 0.0
H164 H 0.45892 0.46504 0.60643 0.0
H165 H 0.51752 0.47769 0.58556 0.0
H166 H 0.44396 0.53405 0.61474 0.0
H167 H 0.55139 0.63324 0.5814 0.0
C168 C 0.10871 0.66888 0.70947 0.0
C169 C 0.07089 0.66861 0.68546 0.0
C170 C 0.08558 0.64419 0.69632 0.0
C171 C 0.07754 0.71711 0.68854 0.0
C172 C 0.11811 0.71868 0.71233 0.0
C173 C 0.10121 0.74217 0.70196 0.0
N174 N 0.12539 0.64547 0.71899 0.0
C175 C 0.15444 0.67068 0.73123 0.0
C176 C 0.14574 0.74389 0.72526 0.0
C177 C 0.16458 0.71998 0.73465 0.0
Gd178 Gd 0.14291 0.49053 0.68479 0.0
Gd179 Gd 0.1046 0.56125 0.71377 0.0
N180 N 0.08139 0.59806 0.69364 0.0
C181 C 1.05207 0.64455 0.67159 0.0
C182 C 0.06667 0.57674 0.67968 0.0
C183 C 1.05085 0.59875 0.66859 0.0
H184 H 0.06821 0.54349 0.6769 0.0
H185 H 1.03859 0.58075 0.65764 0.0
H186 H 0.12526 0.3779 0.69726 0.0
H187 H 0.16965 0.65259 0.73842 0.0
H188 H 0.07895 0.28802 0.68934 0.0
H189 H 1.04047 0.66197 0.66292 0.0
H190 H 0.06607 0.73622 0.68039 0.0
H191 H 0.12278 0.55606 0.65724 0.0
H192 H 0.15388 0.78221 0.72785 0.0
H193 H 0.18706 0.73954 0.74448 0.0
H194 H 1.00279 0.29019 0.64206 0.0
H195 H 0.10761 0.78021 0.70401 0.0
H196 H 1.0304 0.4501 0.62327 0.0
H197 H 0.07783 0.5382 0.63292 0.0
N198 N 0.09849 0.47848 0.66195 0.0
C199 C 0.07483 0.42997 0.65644 0.0
C200 C 0.10097 0.51722 0.65345 0.0
C201 C 1.04968 0.4576 0.63406 0.0
C202 C 0.07614 0.50733 0.63951 0.0
C203 C 1.04898 0.41819 0.64248 0.0
H204 H 1.0029 0.35789 0.62673 0.0
N205 N 0.10117 0.40401 0.67835 0.0
C206 C 0.07518 0.3916 0.66505 0.0
C207 C 1.05023 0.30322 0.6689 0.0
C208 C 1.04914 0.34078 0.65996 0.0
C209 C 0.103 0.36761 0.68701 0.0
C210 C 0.07736 0.31673 0.68246 0.0
O211 O 0.18359 0.61166 0.7043 0.0
O212 O 0.17412 0.57843 0.68058 0.0
O213 O 0.18145 0.45503 0.67286 0.0
O214 O 0.22003 0.53548 0.67594 0.0
O215 O 1.03041 0.49715 0.70225 0.0
O216 O 0.0552 0.46037 0.68328 0.0
O217 O 0.11618 0.44772 0.70773 0.0
O218 O 0.06374 0.4771 0.71673 0.0
O219 O 0.0577 0.56996 0.73105 0.0
O220 O 0.11808 0.55463 0.7373 0.0
O221 O 0.18052 0.49717 0.70781 0.0
O222 O 0.18138 0.5671 0.7186 0.0
C223 C 0.19716 0.6181 0.69002 0.0
C224 C 1.01873 0.46331 0.69099 0.0
C225 C 0.22982 0.50502 0.65191 0.0
C226 C 0.25814 0.48772 0.62727 0.0
C227 C 0.2187 0.54128 0.62871 0.0
C228 C 0.21559 0.53675 0.64432 0.0
C229 C 0.23872 0.51649 0.62029 0.0
C230 C 0.25186 0.48062 0.64329 0.0
C231 C 0.21974 0.4978 0.66861 0.0
C232 C 1.02302 0.32903 0.64613 0.0
C233 C 1.0231 0.36761 0.6374 0.0
H234 H 1.03063 0.26376 0.66538 0.0
C235 C 0.07947 0.44391 0.71687 0.0
C236 C 0.19626 0.53282 0.71839 0.0
C237 C 1.04612 0.51988 0.75319 0.0
C238 C 0.97013 0.48388 0.76903 0.0
C239 C 1.03204 0.45556 0.77196 0.0
C240 C 0.0619 0.4888 0.76056 0.0
C241 C 0.98648 0.45319 0.77625 0.0
C242 C 1.00004 0.51675 0.75741 0.0
C243 C 0.07908 0.55809 0.74194 0.0
H244 H 0.20569 0.56452 0.62308 0.0
H245 H 0.20142 0.55807 0.65047 0.0
H246 H 0.23948 0.52065 0.60813 0.0
H247 H 0.26478 0.45746 0.649 0.0
H248 H 1.0446 0.43203 0.77763 0.0
H249 H 0.09758 0.49052 0.7577 0.0
H250 H 0.96454 0.42802 0.78536 0.0
H251 H 0.98763 0.54033 0.75166 0.0
C252 C 0.48285 0.0964 0.8741 0.0
C253 C 0.4355 0.04519 0.85266 0.0
C254 C 0.47628 0.06109 0.86302 0.0
C255 C 0.40364 0.0667 0.8532 0.0
C256 C 0.4501 0.11725 0.87488 0.0
C257 C 0.41101 0.10273 0.86425 0.0
N258 N 0.52084 0.11005 0.88428 0.0
C259 C 0.52734 0.14299 0.89579 0.0
C260 C 0.45711 0.15169 0.88646 0.0
C261 C 0.49566 0.16429 0.89703 0.0
Gd262 Gd 0.68324 0.11844 0.85176 0.0
Gd263 Gd 0.57263 0.07299 0.88191 0.0
N264 N 0.50825 0.04115 0.86264 0.0
C265 C 0.42685 1.00715 0.84223 0.0
C266 C 0.49833 1.00277 0.85254 0.0
C267 C 0.45794 0.98543 0.84233 0.0
H268 H 0.52099 0.98496 0.85161 0.0
H269 H 0.45136 0.95564 0.83434 0.0
H270 H 0.75341 0.06163 0.84706 0.0
H271 H 0.55811 0.15424 0.90375 0.0
H272 H 0.76371 1.0073 0.82804 0.0
H273 H 0.39589 0.99384 0.83418 0.0
H274 H 0.37261 0.05509 0.84525 0.0
H275 H 0.56842 0.11423 0.84243 0.0
H276 H 0.43276 0.16847 0.88739 0.0
H277 H 0.50143 0.19088 0.90604 0.0
H278 H 0.62975 0.96742 0.79248 0.0
H279 H 0.38571 0.11853 0.86463 0.0
H280 H 0.51652 1.03207 0.80146 0.0
H281 H 0.51014 0.08573 0.82138 0.0
N282 N 0.61324 0.08195 0.83461 0.0
C283 C 0.61727 0.05227 0.82358 0.0
C284 C 0.57474 0.09334 0.83381 0.0
C285 C 0.54379 0.04574 0.81064 0.0
C286 C 0.54023 0.07617 0.82181 0.0
C287 C 0.58236 1.03316 0.81143 0.0
H288 H 0.56079 0.98793 0.79093 0.0
N289 N 0.69051 0.06015 0.83584 0.0
C290 C 0.65691 0.04119 0.82419 0.0
C291 C 0.70087 0.99854 0.81442 0.0
C292 C 0.66158 1.01018 0.81308 0.0
C293 C 0.72786 0.04749 0.8375 0.0
C294 C 0.73376 1.01679 0.82678 0.0
O295 O 0.5928 0.15112 0.87217 0.0
O296 O 0.64922 0.17235 0.85217 0.0
O297 O 0.76223 0.14878 0.84354 0.0
O298 O 0.71936 0.18318 0.83647 0.0
O299 O 0.57436 1.00364 0.87175 0.0
O300 O 0.63992 1.03014 0.85418 0.0
O301 O 0.70638 0.09014 0.87295 0.0
O302 O 0.63258 0.05244 0.88778 0.0
O303 O 0.51169 1.01284 0.89524 0.0
O304 O 0.56974 0.07982 0.90614 0.0
O305 O 0.71279 0.16276 0.87412 0.0
O306 O 0.64424 0.14155 0.89039 0.0
C307 C 0.61883 0.18155 0.8609 0.0
C308 C 0.60109 0.9935 0.86175 0.0
C309 C 0.77657 0.18255 0.81818 0.0
C310 C 0.83668 0.21776 0.79662 0.0
C311 C 0.75041 0.14896 0.7927 0.0
C312 C 0.73918 0.15055 0.80786 0.0
C313 C 0.79871 0.18191 0.78715 0.0
C314 C 0.82584 0.21756 0.81237 0.0
C315 C 0.76113 0.18175 0.83442 0.0
C316 C 0.62669 0.9912 0.80112 0.0
C317 C 0.58731 1.00275 0.80029 0.0
H318 H 0.70558 0.97476 0.80612 0.0
C319 C 0.67901 0.06205 0.88461 0.0
C320 C 0.69303 0.16838 0.88696 0.0
C321 C 0.54193 1.00296 0.91908 0.0
C322 C 0.50921 0.92637 0.93446 0.0
C323 C 0.59825 0.99052 0.93601 0.0
C324 C 0.59055 1.01996 0.92533 0.0
C325 C 0.55797 0.94376 0.94049 0.0
C326 C 0.5016 0.95611 0.92368 0.0
C327 C 0.53266 1.03406 0.90802 0.0
H328 H 0.72086 0.12325 0.78507 0.0
H329 H 0.70036 0.12804 0.81139 0.0
H330 H 0.80578 0.18113 0.77516 0.0
H331 H 0.85456 0.24517 0.81984 0.0
H332 H 0.63539 1.00427 0.94101 0.0
H333 H 0.62262 0.05612 0.9221 0.0
H334 H 0.56466 0.92185 0.94893 0.0
H335 H 0.46421 0.94282 0.91882 0.0
C336 C 0.41886 0.47364 0.0346 0.0
C337 C 0.42705 0.43752 1.01101 0.0
C338 C 0.44947 0.47303 0.02295 0.0
C339 C 0.37436 0.40413 1.01083 0.0
C340 C 0.36572 0.44022 0.03436 0.0
C341 C 0.34377 0.40563 0.02243 0.0
N342 N 0.44067 0.50741 0.04606 0.0
C343 C 0.41167 0.50976 0.05761 0.0
C344 C 0.33597 0.44252 0.04614 0.0
C345 C 0.35907 0.47747 0.05781 0.0
Gd346 Gd 0.59892 0.67468 0.01791 0.0
Gd347 Gd 0.52959 0.55848 0.0455 0.0
N348 N 0.50055 0.5068 0.0232 0.0
C349 C 0.45808 0.43617 0.99956 0.0
C350 C 0.53037 0.50549 1.0117 0.0
C351 C 0.50993 0.47014 0.99996 0.0
H352 H 0.56954 0.53258 1.01066 0.0
H353 H 0.53423 0.47019 0.99094 0.0
H354 H 0.72485 0.73213 0.01631 0.0
H355 H 0.42886 0.53776 0.06648 0.0
H356 H 0.79136 0.74522 0.9976 0.0
H357 H 0.44233 0.40942 0.99027 0.0
H358 H 0.35684 0.37695 1.00172 0.0
H359 H 0.4842 0.57302 1.0035 0.0
H360 H 0.29512 0.41763 0.04629 0.0
H361 H 0.33634 0.47991 0.06689 0.0
H362 H 0.69791 0.63899 0.95587 0.0
H363 H 0.30312 0.37973 0.02208 0.0
H364 H 0.51753 0.53929 0.95998 0.0
H365 H 0.45583 0.52802 0.9799 0.0
N366 N 0.56308 0.61573 0.99749 0.0
C367 C 0.59778 0.622 0.98653 0.0
C368 C 0.51257 0.58195 0.99506 0.0
C369 C 0.53076 0.56096 0.97037 0.0
C370 C 0.49583 0.55474 0.98154 0.0
C371 C 0.58237 0.59446 0.97279 0.0
H372 H 0.60732 0.58027 0.95124 0.0
N373 N 0.66397 0.6815 1.00225 0.0
C374 C 0.64932 0.65576 0.98897 0.0
C375 C 0.73749 0.69487 0.98114 0.0
C376 C 0.68596 0.66191 0.97801 0.0
C377 C 0.71411 0.71295 1.00551 0.0
C378 C 0.75163 0.72015 0.99501 0.0
O379 O 0.47403 0.58345 0.03686 0.0
O380 O 0.5116 0.64517 0.01828 0.0
O381 O 0.64255 0.75745 0.01866 0.0
O382 O 0.59835 0.72212 0.99906 0.0
O383 O 0.60011 0.55836 0.0358 0.0
O384 O 0.64171 0.6282 0.01991 0.0
O385 O 0.65175 0.68671 0.03812 0.0
O386 O 0.6058 0.61811 0.05431 0.0
O387 O 0.53089 0.49391 0.05616 0.0
O388 O 0.50996 0.54089 0.06903 0.0
O389 O 0.57418 0.69775 0.03972 0.0
O390 O 0.53776 0.62956 0.0565 0.0
C391 C 0.47115 0.61281 0.02635 0.0
C392 C 0.63877 0.58769 0.02682 0.0
C393 C 0.67331 0.80384 0.99543 0.0
C394 C 0.70558 0.86497 0.97401 0.0
C395 C 0.76426 0.85713 0.99124 0.0
C396 C 0.72396 0.82194 0.99991 0.0
C397 C 0.75532 0.87785 0.97839 0.0
C398 C 0.66418 0.8262 0.98241 0.0
C399 C 0.63105 0.76494 1.00513 0.0
C400 C 0.67033 0.63465 0.96442 0.0
C401 C 0.61874 0.60113 0.9618 0.0
H402 H 0.76665 0.70047 0.97301 0.0
C403 C 0.64643 0.66135 0.05087 0.0
C404 C 0.55423 0.6776 0.05304 0.0
C405 C 0.56179 0.51484 0.08126 0.0
C406 C 0.60729 0.48244 0.09616 0.0
C407 C 0.62449 0.56878 0.09993 0.0
C408 C 0.58889 0.56184 0.08882 0.0
C409 C 0.63414 0.52951 0.1035 0.0
C410 C 0.57131 0.47542 0.08499 0.0
C411 C 0.52361 0.50666 0.06958 0.0
H412 H 0.80295 0.86922 0.99467 0.0
H413 H 0.7329 0.80934 1.01028 0.0
H414 H 0.78802 0.90506 0.972 0.0
H415 H 0.62544 0.81486 0.97922 0.0
H416 H 0.64416 0.60445 0.10597 0.0
H417 H 0.58244 0.59319 0.08626 0.0
H418 H 0.6614 0.53538 0.1123 0.0
H419 H 0.55055 0.43916 0.07922 0.0
C420 C 0.96734 0.39583 0.19561 0.0
C421 C 1.01275 0.40693 0.1722 0.0
C422 C 1.0036 0.42774 0.18538 0.0
C423 C 0.98159 0.35514 0.16882 0.0
C424 C 0.93824 0.34312 0.1928 0.0
C425 C 0.94432 0.32327 0.17911 0.0
N426 N 0.96204 0.41601 0.20868 0.0
C427 C 0.93074 0.38563 0.21987 0.0
C428 C 0.90477 0.31181 0.20401 0.0
C429 C 0.90161 0.3331 0.21771 0.0
Gd430 Gd 0.96842 0.57898 0.18372 0.0
Gd431 Gd 1.0071 0.50453 0.21127 0.0
N432 N 1.03339 0.47776 0.18909 0.0
C433 C 0.05502 0.43785 0.16332 0.0
C434 C 0.07834 0.50551 0.18144 0.0
C435 C 0.08895 0.48674 0.16829 0.0
H436 H 0.10813 0.5411 0.18549 0.0
H437 H 0.12392 0.50978 0.16214 0.0
H438 H 1.01172 0.70255 0.19117 0.0
H439 H 0.92701 0.40226 0.23028 0.0
H440 H 0.06229 0.78497 0.17818 0.0
H441 H 0.0636 0.4233 0.15319 0.0
H442 H 0.98756 0.33891 0.15861 0.0
H443 H 0.99093 0.49362 0.16384 0.0
H444 H 0.88176 0.27118 0.20228 0.0
H445 H 0.87611 0.30923 0.22649 0.0
H446 H 0.1115 0.7413 0.13137 0.0
H447 H 0.92171 0.28306 0.17663 0.0
H448 H 0.07272 0.56923 0.12413 0.0
H449 H 1.02868 0.49169 0.13961 0.0
N450 N 1.01225 0.57209 0.16248 0.0
C451 C 1.03581 0.61527 0.1539 0.0
C452 C 1.00976 0.52817 0.15745 0.0
C453 C 0.0558 0.57054 0.13481 0.0
C454 C 1.03122 0.52675 0.14357 0.0
C455 C 0.05885 0.61564 0.13998 0.0
H456 H 0.10259 0.66186 0.12103 0.0
N457 N 1.01908 0.65961 0.17326 0.0
C458 C 1.03973 0.66029 0.15953 0.0
C459 C 0.07574 0.75151 0.15841 0.0
C460 C 0.06826 0.70638 0.15167 0.0
C461 C 1.0279 0.70364 0.18018 0.0
C462 C 0.05605 0.75018 0.17281 0.0
O463 O 0.92373 0.46197 0.20374 0.0
O464 O 0.92977 0.49148 0.17989 0.0
O465 O 0.93528 0.62245 0.17343 0.0
O466 O 0.89455 0.54177 0.17243 0.0
O467 O 0.07978 0.57742 0.20315 0.0
O468 O 0.05591 0.61234 0.18367 0.0
O469 O 0.99852 0.6245 0.20614 0.0
O470 O 1.0376 0.58514 0.21889 0.0
O471 O 0.05659 0.48208 0.22269 0.0
O472 O 1.0019 0.49236 0.23548 0.0
O473 O 0.92631 0.56678 0.20646 0.0
O474 O 0.94207 0.51228 0.22128 0.0
C475 C 0.90653 0.45435 0.18981 0.0
C476 C 0.09158 0.61183 0.19224 0.0
C477 C 0.89151 0.58475 0.15031 0.0
C478 C 0.85722 0.60241 0.127 0.0
C479 C 0.91254 0.56517 0.12552 0.0
C480 C 0.9149 0.5642 0.14116 0.0
C481 C 0.88446 0.58429 0.11852 0.0
C482 C 0.86208 0.60399 0.14311 0.0
C483 C 0.89753 0.58328 0.16715 0.0
C484 C 0.0899 0.70632 0.13764 0.0
C485 C 0.08495 0.66107 0.13177 0.0
H486 H 0.09762 0.78768 0.15275 0.0
C487 C 1.02795 0.62273 0.21712 0.0
C488 C 0.91869 0.53878 0.2188 0.0
C489 C 0.08053 0.51988 0.24702 0.0
C490 C 0.16947 0.57803 0.25333 0.0
C491 C 0.1035 0.55228 0.27257 0.0
C492 C 0.0667 0.52169 0.26205 0.0
C493 C 0.15463 0.57956 0.26836 0.0
C494 C 0.13139 0.55013 0.2426 0.0
C495 C 1.04153 0.48672 0.23607 0.0
H496 H 0.93186 0.54999 0.11875 0.0
H497 H 0.93461 0.54636 0.14611 0.0
H498 H 0.88319 0.58387 0.10628 0.0
H499 H 0.84206 0.61831 0.14992 0.0
H500 H 0.09263 0.55337 0.28416 0.0
H501 H 1.02745 0.49936 0.26564 0.0
H502 H 0.18236 0.59973 0.27711 0.0
H503 H 0.1414 0.55055 0.23084 0.0
C504 C 0.13132 0.47824 0.49137 0.0
C505 C 0.0867 0.44124 0.51465 0.0
C506 C 0.09544 0.47291 0.50196 0.0
C507 C 0.11749 0.4192 0.5171 0.0
C508 C 0.16019 0.45348 0.49327 0.0
C509 C 0.15418 0.42528 0.50641 0.0
N510 N 0.13697 0.50642 0.47891 0.0
C511 C 0.16937 0.50977 0.46759 0.0
C512 C 0.19376 0.45721 0.4818 0.0
C513 C 0.1979 0.485 0.46881 0.0
Gd514 Gd 0.1342 0.66412 0.50704 0.0
Gd515 Gd 0.0922 0.55172 0.47797 0.0
N516 N 0.06594 0.49451 0.49914 0.0
C517 C 1.04534 0.43002 0.52401 0.0
C518 C 1.02173 0.47767 0.50726 0.0
C519 C 1.0117 0.4468 0.51997 0.0
H520 H 0.99205 0.48513 0.504 0.0
H521 H 0.97739 0.43523 0.52649 0.0
H522 H 0.0926 0.7471 0.50126 0.0
H523 H 0.17495 0.53324 0.45782 0.0
H524 H 1.04432 0.78033 0.51536 0.0
H525 H 1.0372 0.40575 0.5338 0.0
H526 H 0.11178 0.3956 0.52691 0.0
H527 H 0.10731 0.55205 0.52492 0.0
H528 H 0.21651 0.43871 0.48284 0.0
H529 H 0.22396 0.48839 0.4599 0.0
H530 H 0.9935 0.68237 0.56099 0.0
H531 H 0.17665 0.40679 0.50819 0.0
H532 H 1.02611 0.54349 0.56518 0.0
H533 H 0.0682 0.50963 0.54863 0.0
N534 N 0.08922 0.61152 0.52773 0.0
C535 C 0.06609 0.63085 0.53681 0.0
C536 C 0.08975 0.56827 0.53186 0.0
C537 C 1.04371 0.56298 0.55475 0.0
C538 C 0.06728 0.54364 0.5454 0.0
C539 C 1.04239 0.60673 0.55046 0.0
H540 H 0.99938 0.60853 0.56984 0.0
N541 N 0.08439 0.69451 0.51841 0.0
C542 C 0.06372 0.67357 0.532 0.0
C543 C 1.03012 0.73108 0.53446 0.0
C544 C 1.03633 0.69168 0.54046 0.0
C545 C 0.07655 0.73133 0.51218 0.0
C546 C 1.04969 0.75047 0.52017 0.0
O547 O 0.17504 0.58877 0.48606 0.0
O548 O 0.17057 0.61285 0.51012 0.0
O549 O 0.17081 0.74215 0.51615 0.0
O550 O 0.20439 0.69582 0.52019 0.0
O551 O 1.02151 0.55204 0.48796 0.0
O552 O 1.04648 0.61312 0.50683 0.0
O553 O 0.10567 0.68269 0.485 0.0
O554 O 0.06246 0.60481 0.4723 0.0
O555 O 1.0328 0.48766 0.46524 0.0
O556 O 0.10068 0.54256 0.45413 0.0
O557 O 0.17857 0.69276 0.48454 0.0
O558 O 0.15428 0.6249 0.46775 0.0
C559 C 0.19166 0.59654 0.50008 0.0
C560 C 1.0104 0.57515 0.49895 0.0
C561 C 0.20894 0.75 0.54046 0.0
C562 C 0.24118 0.80889 0.56236 0.0
C563 C 0.18205 0.71894 0.56608 0.0
C564 C 0.1819 0.71001 0.55064 0.0
C565 C 0.21097 0.76782 0.57187 0.0
C566 C 0.23989 0.79992 0.54646 0.0
C567 C 0.20488 0.73777 0.52386 0.0
C568 C 1.01425 0.66864 0.55427 0.0
C569 C 1.01744 0.62644 0.55928 0.0
H570 H 1.00916 0.74589 0.5406 0.0
C571 C 0.07355 0.65222 0.47446 0.0
C572 C 0.18208 0.67356 0.4713 0.0
C573 C 1.02481 0.51646 0.44097 0.0
C574 C 0.94957 0.48604 0.42505 0.0
C575 C 1.01392 0.57508 0.42463 0.0
C576 C 1.04228 0.56591 0.43532 0.0
C577 C 0.96756 0.53551 0.41958 0.0
C578 C 0.97841 0.47683 0.43578 0.0
C579 C 0.05451 0.50639 0.45235 0.0
H580 H 0.16028 0.6875 0.57366 0.0
H581 H 0.16108 0.67128 0.54671 0.0
H582 H 0.2112 0.77329 0.58398 0.0
H583 H 0.26276 0.83116 0.53893 0.0
H584 H 1.02805 0.6129 0.42015 0.0
H585 H 0.0779 0.59762 0.43912 0.0
H586 H 0.94627 0.54338 0.41121 0.0
H587 H 0.96453 0.43891 0.44026 0.0
C588 C 0.70041 0.1254 0.66024 0.0
C589 C 0.69454 0.085 0.68424 0.0
C590 C 0.67077 0.09133 0.67131 0.0
C591 C 0.74709 0.11637 0.68641 0.0
C592 C 0.75369 0.15486 0.66193 0.0
C593 C 0.77662 0.1513 0.67528 0.0
N594 N 0.67738 0.12852 0.64753 0.0
C595 C 0.70518 0.15809 0.63569 0.0
C596 C 0.78246 0.18633 0.65001 0.0
C597 C 0.75812 0.18742 0.63674 0.0
Gd598 Gd 0.5134 0.1217 0.6735 0.0
Gd599 Gd 0.58857 0.0824 0.64659 0.0
N600 N 0.6198 0.06136 0.6688 0.0
C601 C 0.66553 0.04541 0.69417 0.0
C602 C 0.59317 1.0193 0.67774 0.0
C603 C 0.61515 1.01141 0.69061 0.0
H604 H 0.55547 0.9901 0.67522 0.0
H605 H 0.59308 0.97872 0.69774 0.0
H606 H 0.38882 0.07489 0.66692 0.0
H607 H 0.68626 0.16021 0.62559 0.0
H608 H 0.30772 1.02532 0.68075 0.0
H609 H 0.68237 0.03906 0.70415 0.0
H610 H 0.76559 0.11249 0.6964 0.0
H611 H 0.60257 0.10488 0.69352 0.0
H612 H 0.82343 0.2095 0.65089 0.0
H613 H 0.77998 0.21144 0.62744 0.0
H614 H 0.35708 0.98427 0.72782 0.0
H615 H 0.81735 0.1742 0.6769 0.0
H616 H 0.53079 1.02738 0.73407 0.0
H617 H 0.60717 0.0711 0.71804 0.0
N618 N 0.52341 0.08143 0.6951 0.0
C619 C 0.48086 0.05804 0.70399 0.0
C620 C 0.56833 0.08612 0.70009 0.0
C621 C 0.5282 0.04246 0.72322 0.0
C622 C 0.57134 0.0669 0.71416 0.0
C623 C 0.48217 0.03738 0.71816 0.0
H624 H 0.43807 0.99607 0.73773 0.0
N625 N 0.43396 0.07117 0.68473 0.0
C626 C 0.43496 0.05262 0.69864 0.0
C627 C 0.34362 1.01562 0.70051 0.0
C628 C 0.38967 1.02477 0.70697 0.0
C629 C 0.38901 0.06051 0.67807 0.0
C630 C 0.34323 1.03293 0.68592 0.0
O631 O 0.63124 0.16637 0.65338 0.0
O632 O 0.60156 0.16261 0.67713 0.0
O633 O 0.46892 0.15453 0.68346 0.0
O634 O 0.54964 0.19657 0.68419 0.0
O635 O 0.5178 1.00899 0.65587 0.0
O636 O 0.47768 1.0337 0.67364 0.0
O637 O 0.46717 0.08945 0.65118 0.0
O638 O 0.50721 0.04883 0.63984 0.0
O639 O 0.61152 1.03268 0.63547 0.0
O640 O 0.59687 0.08356 0.62225 0.0
O641 O 0.52446 0.16177 0.65058 0.0
O642 O 0.5791 0.14563 0.63586 0.0
C643 C 0.63909 0.18462 0.66719 0.0
C644 C 0.48106 0.99739 0.66613 0.0
C645 C 0.5067 0.2005 0.70631 0.0
C646 C 0.4836 0.23165 0.72935 0.0
C647 C 0.52936 0.18455 0.73133 0.0
C648 C 0.53028 0.1808 0.71568 0.0
C649 C 0.50608 0.20934 0.73809 0.0
C650 C 0.48386 0.22709 0.71326 0.0
C651 C 0.50787 0.1931 0.68951 0.0
C652 C 0.39141 1.00534 0.72119 0.0
C653 C 0.43753 1.01188 0.7268 0.0
H654 H 0.30804 0.99418 0.70654 0.0
C655 C 0.4687 0.05733 0.64105 0.0
C656 C 0.55224 0.16882 0.6382 0.0
C657 C 0.56937 1.00331 0.61192 0.0
C658 C 0.50991 0.91338 0.6075 0.0
C659 C 0.53257 0.97469 0.58706 0.0
C660 C 0.56508 1.0137 0.59673 0.0
C661 C 0.5058 0.92475 0.59229 0.0
C662 C 0.53979 0.95369 0.61738 0.0
C663 C 0.60389 0.04475 0.62201 0.0
H664 H 0.54741 0.16856 0.73827 0.0
H665 H 0.55027 0.16283 0.7109 0.0
H666 H 0.50677 0.21221 0.75031 0.0
H667 H 0.46647 0.24373 0.70631 0.0
H668 H 0.52952 0.9829 0.57534 0.0
H669 H 0.58685 0.05199 0.59236 0.0
H670 H 0.48398 0.89511 0.58417 0.0
H671 H 0.54141 0.94629 0.62926 0.0
C672 C 0.60837 0.67692 0.82748 0.0
C673 C 0.64191 0.67279 0.85188 0.0
C674 C 0.61243 0.64808 0.83896 0.0
C675 C 0.66382 0.7257 0.85346 0.0
C676 C 0.63239 0.73037 0.82868 0.0
C677 C 0.6591 0.75443 0.84188 0.0
N678 N 0.58127 0.6528 0.815 0.0
C679 C 0.5782 0.67952 0.80303 0.0
C680 C 0.62897 0.75811 0.81654 0.0
C681 C 0.6021 0.73255 0.8036 0.0
Gd682 Gd 0.42443 0.49113 0.84155 0.0
Gd683 Gd 0.53958 0.56406 0.81473 0.0
N684 N 0.59055 0.59667 0.83709 0.0
C685 C 0.65061 0.64409 0.86254 0.0
C686 C 0.60396 0.57003 0.84681 0.0
C687 C 0.63293 0.59286 0.85974 0.0
H688 H 0.59421 0.53151 0.84494 0.0
H689 H 0.64194 0.57081 0.86749 0.0
H690 H 0.33712 0.37215 0.83184 0.0
H691 H 0.55616 0.65975 0.79318 0.0
H692 H 0.29706 0.2864 0.84321 0.0
H693 H 0.67314 0.6616 0.87256 0.0
H694 H 0.68586 0.74495 0.86341 0.0
H695 H 0.52703 0.56595 0.86419 0.0
H696 H 0.64688 0.79916 0.81705 0.0
H697 H 0.5991 0.75359 0.79416 0.0
H698 H 0.38062 0.31184 0.89106 0.0
H699 H 0.67707 0.79533 0.84311 0.0
H700 H 0.51993 0.47672 0.90224 0.0
H701 H 0.56094 0.55821 0.88847 0.0
N702 N 0.46713 0.48888 0.8636 0.0
C703 C 0.44331 0.44369 0.8712 0.0
C704 C 0.50876 0.52968 0.86972 0.0
C705 C 0.50459 0.47966 0.89147 0.0
C706 C 0.52804 0.52564 0.88368 0.0
C707 C 0.46199 0.43787 0.88522 0.0
H708 H 0.45213 0.38539 0.90323 0.0
N709 N 0.38593 0.40776 0.85059 0.0
C710 C 0.40207 0.40194 0.86442 0.0
C711 C 0.34127 0.31202 0.86367 0.0
C712 C 0.37978 0.35379 0.87136 0.0
C713 C 0.34951 0.36698 0.84282 0.0
C714 C 0.32645 0.31858 0.84928 0.0
O715 O 0.49841 0.60662 0.82215 0.0
O716 O 0.47861 0.57715 0.84598 0.0
O717 O 0.34827 0.45305 0.85202 0.0
O718 O 0.39121 0.53389 0.85174 0.0
O719 O 0.54154 0.49381 0.82444 0.0
O720 O 0.4773 0.45602 0.84232 0.0
O721 O 0.41105 0.44699 0.81896 0.0
O722 O 0.49142 0.48267 0.8077 0.0
O723 O 0.61266 0.58511 0.80441 0.0
O724 O 0.54941 0.57287 0.79049 0.0
O725 O 0.3973 0.5057 0.81866 0.0
O726 O 0.46814 0.55559 0.80351 0.0
C727 C 0.49095 0.61453 0.83626 0.0
C728 C 0.51641 0.45824 0.83485 0.0
C729 C 0.3449 0.49636 0.8743 0.0
C730 C 0.29351 0.48349 0.89747 0.0
C731 C 0.38561 0.52132 0.89896 0.0
C732 C 0.38872 0.51839 0.88336 0.0
C733 C 0.33874 0.50407 0.90593 0.0
C734 C 0.29659 0.47853 0.88148 0.0
C735 C 0.35193 0.49446 0.85753 0.0
C736 C 0.39755 0.34847 0.88551 0.0
C737 C 0.43836 0.39038 0.89243 0.0
H738 H 0.32336 0.27442 0.86862 0.0
C739 C 0.44355 0.44694 0.80871 0.0
C740 C 0.41849 0.53181 0.80607 0.0
C741 C 0.60347 0.54488 0.78059 0.0
C742 C 0.65003 0.50024 0.77439 0.0
C743 C 0.58536 0.49655 0.75726 0.0
C744 C 0.57642 0.52772 0.76695 0.0
C745 C 0.62228 0.48331 0.76082 0.0
C746 C 0.63908 0.52982 0.78438 0.0
C747 C 0.59481 0.57872 0.79073 0.0
H748 H 0.42 0.53795 0.90568 0.0
H749 H 0.42597 0.53436 0.87835 0.0
H750 H 0.33793 0.50752 0.91811 0.0
H751 H 0.2623 0.46255 0.87471 0.0
H752 H 0.56446 0.48361 0.74676 0.0
H753 H 0.54845 0.5385 0.76376 0.0
H754 H 0.63005 0.46126 0.75268 0.0
H755 H 0.65874 0.54175 0.7951 0.0
C756 C 0.95863 0.59257 0.99022 0.0
C757 C 0.99362 0.631 1.01444 0.0
C758 C 0.99068 0.59929 1.00225 0.0
C759 C 0.9625 0.6534 1.01462 0.0
C760 C 0.92837 0.61624 0.99014 0.0
C761 C 0.92993 0.64602 1.00251 0.0
N762 N 0.95664 0.56255 0.97858 0.0
C763 C 0.92653 0.5555 0.96631 0.0
C764 C 0.89716 0.60905 0.97764 0.0
C765 C 0.89647 0.57873 0.96563 0.0
Gd766 Gd 0.96809 0.41107 1.00833 0.0
Gd767 Gd 1.00608 0.52299 0.98023 0.0
N768 N 1.02 0.57642 1.00182 0.0
C769 C 1.0287 0.64053 0.02593 0.0
C770 C 0.05663 0.58889 1.01267 0.0
C771 C 0.06104 0.62031 0.02486 0.0
H772 H 0.08322 0.57554 1.01245 0.0
H773 H 0.08958 0.62882 0.03346 0.0
H774 H 1.00531 0.32632 0.99948 0.0
H775 H 0.92487 0.53097 0.95717 0.0
H776 H 0.05447 0.29016 1.01129 0.0
H777 H 1.03221 0.66472 0.03544 0.0
H778 H 0.96401 0.67729 0.02398 0.0
H779 H 0.98921 0.51306 0.03062 0.0
H780 H 0.87335 0.62652 0.97719 0.0
H781 H 0.87229 0.5727 0.95595 0.0
H782 H 0.10992 0.37825 0.05859 0.0
H783 H 0.90651 0.66396 1.00274 0.0
H784 H 0.07511 0.5134 0.06873 0.0
H785 H 1.0302 0.54987 0.05469 0.0
N786 N 1.01166 0.4563 0.03023 0.0
C787 C 1.03529 0.43482 0.03803 0.0
C788 C 1.00934 0.49683 0.0362 0.0
C789 C 0.05728 0.49687 0.05801 0.0
C790 C 1.03224 0.51776 0.05007 0.0
C791 C 0.05929 0.45511 0.05201 0.0
H792 H 0.10366 0.44878 0.07022 0.0
N793 N 1.01648 0.37633 0.01782 0.0
C794 C 1.03814 0.39409 0.03158 0.0
C795 C 0.07137 0.33591 0.03142 0.0
C796 C 0.06596 0.374 0.03878 0.0
C797 C 1.0228 0.3402 1.01038 0.0
C798 C 1.05011 0.3193 0.0171 0.0
O799 O 0.92322 0.4816 0.9878 0.0
O800 O 0.93373 0.46426 1.01188 0.0
O801 O 0.93245 0.33468 0.01854 0.0
O802 O 0.89427 0.37786 0.01964 0.0
O803 O 0.07934 0.52962 0.99088 0.0
O804 O 0.05547 0.46548 1.00871 0.0
O805 O 0.99903 0.39627 0.98601 0.0
O806 O 1.04268 0.47614 0.97461 0.0
O807 O 0.05641 0.59466 0.96912 0.0
O808 O 1.0074 0.52871 0.95584 0.0
O809 O 0.92581 0.38111 0.98558 0.0
O810 O 0.94535 0.44968 0.96956 0.0
C811 C 0.90858 0.47599 1.00194 0.0
C812 C 0.09117 0.50542 1.00134 0.0
C813 C 0.88821 0.32937 0.04158 0.0
C814 C 0.85642 0.27492 0.06445 0.0
C815 C 0.90559 0.36702 0.06676 0.0
C816 C 0.90927 0.37208 0.05113 0.0
C817 C 0.8798 0.31915 0.07335 0.0
C818 C 0.8607 0.28016 0.04836 0.0
C819 C 0.89544 0.33812 0.02478 0.0
C820 C 0.08872 0.39347 0.05285 0.0
C821 C 0.08524 0.43374 0.05946 0.0
H822 H 0.09259 0.31966 0.03657 0.0
C823 C 1.03187 0.42864 0.97594 0.0
C824 C 0.92046 0.40047 0.97262 0.0
C825 C 0.088 0.58206 0.94578 0.0
C826 C 0.17902 0.61692 0.94122 0.0
C827 C 0.11753 0.57127 0.92128 0.0
C828 C 0.07787 0.56404 0.93086 0.0
C829 C 0.16776 0.59812 0.92629 0.0
C830 C 0.13833 0.60655 0.95105 0.0
C831 C 1.04556 0.57454 0.95567 0.0
H832 H 0.92253 0.40061 0.07384 0.0
H833 H 0.92833 0.40992 0.0465 0.0
H834 H 0.87716 0.31675 0.08556 0.0
H835 H 0.84325 0.2466 0.04127 0.0
H836 H 0.10942 0.55741 0.90976 0.0
H837 H 1.03923 0.54443 0.92661 0.0
H838 H 0.19755 0.60578 0.9182 0.0
H839 H 0.14575 0.61851 0.96274 0.0
C840 C 0.41055 0.95222 0.16325 0.0
C841 C 0.42195 0.99762 0.18669 0.0
C842 C 0.44261 0.98851 0.17346 0.0
C843 C 0.37019 0.96637 0.19011 0.0
C844 C 0.35785 0.92305 0.1661 0.0
C845 C 0.33817 0.92907 0.17983 0.0
N846 N 0.43057 0.94697 0.15014 0.0
C847 C 0.40002 0.91562 0.13896 0.0
C848 C 0.32636 0.88953 0.15491 0.0
C849 C 0.34748 0.88641 0.14118 0.0
Gd850 Gd 0.59433 0.95392 0.1749 0.0
Gd851 Gd 0.51915 0.99216 0.14746 0.0
N852 N 0.49259 1.01839 0.16969 0.0
C853 C 0.45296 0.03992 0.19555 0.0
C854 C 0.52036 0.06338 0.17733 0.0
C855 C 0.50175 0.07394 0.19053 0.0
H856 H 0.55582 0.09323 0.17323 0.0
H857 H 0.52483 0.10894 0.19666 0.0
H858 H 0.71789 0.99704 0.16734 0.0
H859 H 0.41651 0.9119 0.12852 0.0
H860 H 0.80062 0.04764 0.18024 0.0
H861 H 0.43853 0.04846 0.20571 0.0
H862 H 0.35408 0.9723 0.20035 0.0
H863 H 0.50921 0.97636 0.19492 0.0
H864 H 0.28573 0.86647 0.15668 0.0
H865 H 0.32347 0.86088 0.13241 0.0
H866 H 0.75769 0.09714 0.22713 0.0
H867 H 0.29797 0.90639 0.18236 0.0
H868 H 0.58553 0.05835 0.23458 0.0
H869 H 0.50765 1.01422 0.21918 0.0
N870 N 0.5878 0.99776 0.19619 0.0
C871 C 0.63116 1.02135 0.20473 0.0
C872 C 0.54389 0.99526 0.20128 0.0
C873 C 0.58668 0.04139 0.22389 0.0
C874 C 0.54269 1.01676 0.21517 0.0
C875 C 0.63175 0.04443 0.21866 0.0
H876 H 0.67833 0.08826 0.23757 0.0
N877 N 0.67521 1.00454 0.1853 0.0
C878 C 0.67613 1.02526 0.19904 0.0
C879 C 0.76746 0.06124 0.20006 0.0
C880 C 0.7224 0.05381 0.20685 0.0
C881 C 0.71917 1.01329 0.17833 0.0
C882 C 0.76589 0.04146 0.18566 0.0
O883 O 0.4769 0.90887 0.15495 0.0
O884 O 0.50672 0.91515 0.17879 0.0
O885 O 0.63795 0.92085 0.18516 0.0
O886 O 0.55721 0.88009 0.18615 0.0
O887 O 0.59212 0.06486 0.15556 0.0
O888 O 0.62726 0.04121 0.17504 0.0
O889 O 0.63975 0.98442 0.15246 0.0
O890 O 0.59974 1.0229 0.13974 0.0
O891 O 0.49647 0.04154 0.1361 0.0
O892 O 0.50642 0.98673 0.12328 0.0
O893 O 0.5822 0.91207 0.15214 0.0
O894 O 0.52713 0.92737 0.1374 0.0
C895 C 0.46945 0.89176 0.16888 0.0
C896 C 0.62662 0.07675 0.16647 0.0
C897 C 0.60035 0.87692 0.20825 0.0
C898 C 0.61775 0.84224 0.23153 0.0
C899 C 0.58119 0.89811 0.23308 0.0
C900 C 0.58014 0.90054 0.21744 0.0
C901 C 0.60002 0.86974 0.24004 0.0
C902 C 0.61928 0.84716 0.21542 0.0
C903 C 0.5988 0.88306 0.19141 0.0
C904 C 0.72257 0.07551 0.2209 0.0
C905 C 0.67736 0.07058 0.22682 0.0
H906 H 0.80376 0.08314 0.20568 0.0
C907 C 0.63764 1.01364 0.14148 0.0
C908 C 0.55397 0.9043 0.13982 0.0
C909 C 0.53393 0.06524 0.11173 0.0
C910 C 0.59157 0.15408 0.1053 0.0
C911 C 0.56685 0.08775 0.08623 0.0
C912 C 0.53626 0.05112 0.09676 0.0
C913 C 0.59363 0.13895 0.09034 0.0
C914 C 0.56363 0.11623 0.11606 0.0
C915 C 0.50086 1.02638 0.1227 0.0
H916 H 0.56627 0.91762 0.23988 0.0
H917 H 0.56247 0.92045 0.21253 0.0
H918 H 0.59965 0.86844 0.25228 0.0
H919 H 0.6333 0.82694 0.20858 0.0
H920 H 0.56835 0.07664 0.07468 0.0
H921 H 0.51435 1.01178 0.09323 0.0
H922 H 0.61387 0.1665 0.08158 0.0
H923 H 0.56364 0.12654 0.12778 0.0
C924 C 0.48575 0.40266 0.32345 0.0
C925 C 0.44928 0.41068 0.347 0.0
C926 C 0.48512 0.43311 0.33515 0.0
C927 C 0.41548 0.35811 0.34703 0.0
C928 C 0.45198 0.34964 0.32355 0.0
C929 C 0.41698 0.32766 0.33538 0.0
N930 N 0.51994 0.42449 0.31211 0.0
C931 C 0.52244 0.39561 0.30055 0.0
C932 C 0.45436 0.32001 0.31175 0.0
C933 C 0.48979 0.34313 0.30021 0.0
Gd934 Gd 0.68761 0.58222 0.34063 0.0
Gd935 Gd 0.57144 0.51325 0.31287 0.0
N936 N 0.51927 0.48406 0.33505 0.0
C937 C 0.44805 0.44155 0.35852 0.0
C938 C 0.51811 0.51371 0.34662 0.0
C939 C 0.48248 0.49326 0.35828 0.0
H940 H 0.54558 0.5527 0.34779 0.0
H941 H 0.48265 0.51742 0.36736 0.0
H942 H 0.74523 0.70812 0.34212 0.0
H943 H 0.5508 0.4128 0.29178 0.0
H944 H 0.75839 0.77483 0.36076 0.0
H945 H 0.42106 0.42578 0.36774 0.0
H946 H 0.38803 0.34058 0.35606 0.0
H947 H 0.58556 0.46804 0.35501 0.0
H948 H 0.4292 0.27925 0.31149 0.0
H949 H 0.49232 0.32049 0.29111 0.0
H950 H 0.65255 0.68208 0.40258 0.0
H951 H 0.39079 0.28711 0.33561 0.0
H952 H 0.55212 0.50189 0.39851 0.0
H953 H 0.54045 0.44002 0.37859 0.0
N954 N 0.6286 0.54685 0.36103 0.0
C955 C 0.63511 0.58163 0.37198 0.0
C956 C 0.59462 0.49646 0.36345 0.0
C957 C 0.57382 0.51495 0.38813 0.0
C958 C 0.56736 0.47993 0.37695 0.0
C959 C 0.60756 0.56644 0.38571 0.0
H960 H 0.59359 0.59168 0.40724 0.0
N961 N 0.69467 0.64749 0.35623 0.0
C962 C 0.66904 0.63307 0.36952 0.0
C963 C 0.70824 0.72125 0.37728 0.0
C964 C 0.67531 0.66983 0.38045 0.0
C965 C 0.72605 0.69754 0.35292 0.0
C966 C 0.73334 0.73518 0.36339 0.0
O967 O 0.59583 0.45738 0.32161 0.0
O968 O 0.65763 0.4949 0.34021 0.0
O969 O 0.77052 0.62614 0.34019 0.0
O970 O 0.73456 0.58013 0.35941 0.0
O971 O 0.57129 0.58366 0.32265 0.0
O972 O 0.64093 0.62488 0.33869 0.0
O973 O 0.70009 0.63508 0.32041 0.0
O974 O 0.63116 0.58959 0.30424 0.0
O975 O 0.50712 0.51485 0.30207 0.0
O976 O 0.55435 0.49401 0.28929 0.0
O977 O 0.71088 0.55789 0.31877 0.0
O978 O 0.64262 0.52116 0.30197 0.0
C979 C 0.62509 0.45444 0.33217 0.0
C980 C 0.60052 0.62212 0.33172 0.0
C981 C 0.81625 0.65454 0.36365 0.0
C982 C 0.87691 0.68463 0.38527 0.0
C983 C 0.86847 0.74487 0.36892 0.0
C984 C 0.83396 0.70556 0.3598 0.0
C985 C 0.88903 0.73465 0.38157 0.0
C986 C 0.83866 0.64413 0.37643 0.0
C987 C 0.77761 0.61333 0.35359 0.0
C988 C 0.64811 0.65441 0.39405 0.0
C989 C 0.61444 0.60292 0.39668 0.0
H990 H 0.71392 0.75051 0.38538 0.0
C991 C 0.67457 0.63003 0.30769 0.0
C992 C 0.69074 0.53782 0.30545 0.0
C993 C 0.52872 0.54608 0.27703 0.0
C994 C 0.49698 0.59218 0.26215 0.0
C995 C 0.5832 0.60871 0.25846 0.0
C996 C 0.57587 0.57294 0.26953 0.0
C997 C 0.54418 0.61879 0.25487 0.0
C998 C 0.48954 0.55599 0.27327 0.0
C999 C 0.52017 0.50775 0.28867 0.0
H1000 H 0.88012 0.78383 0.36599 0.0
H1001 H 0.82158 0.71558 0.34958 0.0
H1002 H 0.9155 0.76666 0.38835 0.0
H1003 H 0.8277 0.60515 0.37911 0.0
H1004 H 0.61898 0.62819 0.25247 0.0
H1005 H 0.60705 0.56619 0.2721 0.0
H1006 H 0.55036 0.6462 0.24611 0.0
H1007 H 0.45316 0.53541 0.27898 0.0
H1008 H 1.01217 0.61154 0.24725 0.0
H1009 H 0.10391 0.72203 0.21378 0.0
H1010 H 0.06853 0.66572 0.26721 0.0
H1011 H 0.1615 0.77644 0.23369 0.0
H1012 H 0.24968 0.87813 0.27289 0.0
H1013 H 0.18074 0.83009 0.25505 0.0
H1014 H 0.14972 0.69078 0.27729 0.0
H1015 H 0.21812 0.73956 0.29537 0.0
C1016 C 1.04348 0.64851 0.24422 0.0
C1017 C 1.05238 0.6631 0.22892 0.0
C1018 C 0.07664 0.67928 0.25568 0.0
C1019 C 0.12047 0.72577 0.25228 0.0
C1020 C 0.12804 0.74149 0.23697 0.0
C1021 C 0.0946 0.71053 0.22547 0.0
C1022 C 0.22712 0.83732 0.27424 0.0
C1023 C 0.23917 0.81294 0.28578 0.0
C1024 C 0.18789 0.80951 0.26381 0.0
C1025 C 0.15929 0.75605 0.26442 0.0
C1026 C 0.16996 0.7318 0.27641 0.0
C1027 C 0.2092 0.75981 0.28692 0.0
H1028 H 0.47769 0.24696 0.44882 0.0
H1029 H 0.35421 0.10846 0.46674 0.0
H1030 H 0.48303 0.19919 0.42705 0.0
H1031 H 0.35686 0.06195 0.44491 0.0
H1032 H 0.39822 0.97687 0.41034 0.0
H1033 H 0.39455 1.02453 0.43204 0.0
H1034 H 0.44761 0.1583 0.40412 0.0
H1035 H 0.45346 0.11028 0.38261 0.0
C1036 C 0.45187 0.20641 0.4482 0.0
C1037 C 0.41515 0.18209 0.4596 0.0
C1038 C 0.45425 0.17888 0.43553 0.0
C1039 C 0.41997 0.12611 0.43385 0.0
C1040 C 0.3845 0.10199 0.44556 0.0
C1041 C 0.38253 0.12917 0.45816 0.0
C1042 C 0.40719 1.01591 0.40872 0.0
C1043 C 0.4239 0.039 0.39454 0.0
C1044 C 0.40557 0.04379 0.42127 0.0
C1045 C 0.42062 0.096 0.42013 0.0
C1046 C 0.43623 0.11866 0.40574 0.0
C1047 C 0.43837 0.09075 0.39322 0.0
H1048 H 0.26108 0.39622 0.6287 0.0
H1049 H 0.31889 0.53461 0.60286 0.0
H1050 H 0.29941 0.36375 0.61014 0.0
H1051 H 0.35484 0.50203 0.58453 0.0
H1052 H 0.3704 0.42066 0.5452 0.0
H1053 H 0.31967 0.43233 0.56469 0.0
H1054 H 0.3888 0.38439 0.59873 0.0
H1055 H 0.44244 0.37636 0.57922 0.0
C1056 C 0.28196 0.4199 0.61922 0.0
C1057 C 0.28549 0.46787 0.61728 0.0
C1058 C 0.30367 0.4011 0.60849 0.0
C1059 C 0.3289 0.42952 0.59549 0.0
C1060 C 0.33417 0.47807 0.59401 0.0
C1061 C 0.31339 0.49687 0.60468 0.0
C1062 C 0.37359 0.41088 0.55675 0.0
C1063 C 0.4102 0.39703 0.56056 0.0
C1064 C 0.34485 0.41814 0.568 0.0
C1065 C 0.35096 0.41062 0.58343 0.0
C1066 C 0.38342 0.39118 0.58705 0.0
C1067 C 0.41367 0.38579 0.57582 0.0
H1068 H 0.97806 0.38257 0.71731 0.0
H1069 H 0.11368 0.41005 0.74096 0.0
H1070 H 0.92586 0.33067 0.7381 0.0
H1071 H 0.06083 0.35683 0.76208 0.0
H1072 H 0.92626 0.21732 0.79068 0.0
H1073 H 0.98964 0.26776 0.77123 0.0
H1074 H 0.91167 0.3526 0.76359 0.0
H1075 H 0.85001 0.30364 0.78319 0.0
C1076 C 0.99674 0.37607 0.72678 0.0
C1077 C 1.05015 0.39997 0.72726 0.0
C1078 C 0.96672 0.34683 0.73888 0.0
C1079 C 0.98885 0.34019 0.75204 0.0
C1080 C 1.04227 0.36098 0.75216 0.0
C1081 C 0.07265 0.39097 0.73996 0.0
C1082 C 0.92426 0.24846 0.78534 0.0
C1083 C 0.88382 0.25742 0.78888 0.0
C1084 C 0.96025 0.277 0.77403 0.0
C1085 C 0.95572 0.31413 0.76562 0.0
C1086 C 0.91645 0.32427 0.76968 0.0
C1087 C 0.88141 0.29669 0.78113 0.0
H1088 H 0.73105 0.10221 0.91067 0.0
H1089 H 0.6629 0.96529 0.88408 0.0
H1090 H 0.7352 0.05503 0.9323 0.0
H1091 H 0.66809 0.91739 0.90553 0.0
H1092 H 0.63383 0.83194 0.95063 0.0
H1093 H 0.63262 0.88047 0.92862 0.0
H1094 H 0.7662 1.01309 0.94564 0.0
H1095 H 0.76446 0.96648 0.96784 0.0
C1096 C 0.71948 0.06238 0.90922 0.0
C1097 C 0.69864 0.03812 0.89541 0.0
C1098 C 0.72128 1.03473 0.92175 0.0
C1099 C 0.70166 0.9815 0.92101 0.0
C1100 C 0.68275 0.9578 0.90689 0.0
C1101 C 0.68095 0.98558 0.89437 0.0
C1102 C 0.6623 0.8717 0.94978 0.0
C1103 C 0.69979 0.89451 0.96106 0.0
C1104 C 0.66231 0.8996 0.93694 0.0
C1105 C 0.69999 0.9512 0.9349 0.0
C1106 C 0.73618 0.97399 0.9465 0.0
C1107 C 0.73564 0.94658 0.95932 0.0
H1108 H 0.78907 0.54668 0.10519 0.0
H1109 H 0.84871 0.69039 0.12836 0.0
H1110 H 0.747 0.57341 0.08695 0.0
H1111 H 0.80456 0.71695 0.11006 0.0
H1112 H 0.65763 0.69746 0.07984 0.0
H1113 H 0.71157 0.69115 0.09953 0.0
H1114 H 0.78077 0.64097 0.06598 0.0
H1115 H 0.72974 0.65096 0.04629 0.0
C1116 C 0.7927 0.58393 0.10654 0.0
C1117 C 0.82306 0.61648 0.11825 0.0
C1118 C 0.76881 0.59946 0.09594 0.0
C1119 C 0.77338 0.64794 0.0967 0.0
C1120 C 0.80066 0.67952 0.109 0.0
C1121 C 0.82556 0.66413 0.1196 0.0
C1122 C 0.68641 0.68783 0.07657 0.0
C1123 C 0.68997 0.67566 0.06139 0.0
C1124 C 0.71688 0.6835 0.08791 0.0
C1125 C 0.74966 0.66419 0.08447 0.0
C1126 C 0.75542 0.65518 0.06913 0.0
C1127 C 0.7265 0.66144 0.05777 0.0
H1128 H 0.40558 0.0805 0.62325 0.0
H1129 H 0.43683 0.95963 0.63411 0.0
H1130 H 0.3508 1.02832 0.6021 0.0
H1131 H 0.38494 0.90967 0.61318 0.0
H1132 H 0.34451 0.8561 0.56548 0.0
H1133 H 0.3961 0.92072 0.58429 0.0
H1134 H 0.26636 0.93623 0.59665 0.0
H1135 H 0.21457 0.87078 0.57795 0.0
C1136 C 0.39987 0.04262 0.62144 0.0
C1137 C 0.42571 1.02451 0.63055 0.0
C1138 C 0.36908 1.01294 0.60919 0.0
C1139 C 0.36442 0.96513 0.60565 0.0
C1140 C 0.38836 0.94656 0.61524 0.0
C1141 C 0.41786 0.97532 0.62745 0.0
C1142 C 0.32752 0.87477 0.57174 0.0
C1143 C 0.27557 0.8588 0.56994 0.0
C1144 C 0.3569 0.91143 0.5827 0.0
C1145 C 0.33541 0.93367 0.59213 0.0
C1146 C 0.28439 0.92041 0.58957 0.0
C1147 C 0.25476 0.88306 0.57876 0.0
H1148 H 0.51477 0.33391 0.72871 0.0
H1149 H 0.40748 0.19436 0.75036 0.0
H1150 H 0.49563 0.38211 0.74732 0.0
H1151 H 0.38685 0.24187 0.76872 0.0
H1152 H 0.41808 0.34633 0.81094 0.0
H1153 H 0.42027 0.29292 0.7904 0.0
H1154 H 0.44214 0.40893 0.75814 0.0
H1155 H 0.44124 0.4621 0.77874 0.0
C1156 C 0.48554 0.31337 0.73707 0.0
C1157 C 0.46214 0.26011 0.73782 0.0
C1158 C 0.47459 0.34106 0.7479 0.0
C1159 C 0.43975 0.31637 0.75984 0.0
C1160 C 0.41455 0.26281 0.76003 0.0
C1161 C 0.42574 0.2353 0.74928 0.0
C1162 C 0.42109 0.35932 0.79939 0.0
C1163 C 0.42775 0.40787 0.79649 0.0
C1164 C 0.42292 0.32888 0.78752 0.0
C1165 C 0.43184 0.34625 0.77237 0.0
C1166 C 0.43604 0.394 0.76952 0.0
C1167 C 0.43438 0.42427 0.78135 0.0
H1168 H 0.12984 0.45183 0.97889 0.0
H1169 H 1.00308 0.38218 0.94823 0.0
H1170 H 0.18793 0.46142 0.95834 0.0
H1171 H 0.06139 0.39075 0.92751 0.0
H1172 H 0.20235 0.39167 0.89891 0.0
H1173 H 0.13383 0.36761 0.91778 0.0
H1174 H 0.20988 0.52079 0.93513 0.0
H1175 H 0.27681 0.54478 0.91632 0.0
C1176 C 0.11403 0.43614 0.96791 0.0
C1177 C 0.06147 0.41462 0.9654 0.0
C1178 C 0.14749 0.44247 0.95602 0.0
C1179 C 0.12958 0.42733 0.94116 0.0
C1180 C 0.07658 0.40253 0.93879 0.0
C1181 C 1.043 0.39687 0.95073 0.0
C1182 C 0.2035 0.42047 0.90645 0.0
C1183 C 0.24539 0.47018 0.90607 0.0
C1184 C 0.16447 0.40659 0.91737 0.0
C1185 C 0.16689 0.44195 0.92826 0.0
C1186 C 0.2072 0.4922 0.9272 0.0
C1187 C 0.24545 0.50608 0.91629 0.0
H1188 H 0.62595 0.99852 0.11131 0.0
H1189 H 0.73726 0.08951 0.14476 0.0
H1190 H 0.67991 0.05497 0.09138 0.0
H1191 H 0.79149 0.1472 0.12488 0.0
H1192 H 0.8929 0.23559 0.08564 0.0
H1193 H 0.84489 0.16682 0.10349 0.0
H1194 H 0.70532 0.13598 0.0813 0.0
H1195 H 0.75408 0.20421 0.06322 0.0
C1196 C 0.66304 1.0297 0.11435 0.0
C1197 C 0.67791 0.0383 0.12964 0.0
C1198 C 0.69371 0.06293 0.10289 0.0
C1199 C 0.74041 0.10659 0.10629 0.0
C1200 C 0.75638 0.11389 0.12159 0.0
C1201 C 0.72552 0.08038 0.13308 0.0
C1202 C 0.85203 0.21309 0.0843 0.0
C1203 C 0.82762 0.22513 0.07275 0.0
C1204 C 0.82422 0.17396 0.09474 0.0
C1205 C 0.77069 0.14542 0.09415 0.0
C1206 C 0.74639 0.15613 0.08217 0.0
C1207 C 0.7744 0.19528 0.07165 0.0
H1208 H 0.66372 0.71299 0.31226 0.0
H1209 H 0.71145 0.6417 0.27879 0.0
H1210 H 0.65418 0.76424 0.29258 0.0
H1211 H 0.70554 0.69584 0.25912 0.0
H1212 H 0.70545 0.83298 0.23028 0.0
H1213 H 0.73137 0.78841 0.24861 0.0
H1214 H 0.5875 0.73161 0.27149 0.0
H1215 H 0.56139 0.77411 0.25322 0.0
C1216 C 0.67455 0.70996 0.30081 0.0
C1217 C 0.68905 0.67363 0.29721 0.0
C1218 C 0.66854 0.73901 0.28944 0.0
C1219 C 0.67803 0.73357 0.27412 0.0
C1220 C 0.69753 0.70093 0.27072 0.0
C1221 C 0.70163 0.67034 0.28205 0.0
C1222 C 0.67896 0.8099 0.23899 0.0
C1223 C 0.6314 0.80773 0.24027 0.0
C1224 C 0.694 0.78474 0.24961 0.0
C1225 C 0.66215 0.75754 0.26186 0.0
C1226 C 0.61375 0.75333 0.26254 0.0
C1227 C 0.59858 0.77746 0.25192 0.0
H1228 H 0.9735 0.62484 0.47362 0.0
H1229 H 0.11408 0.71198 0.44955 0.0
H1230 H 0.92616 0.6314 0.45228 0.0
H1231 H 0.0675 0.71698 0.42784 0.0
H1232 H 0.97757 0.74568 0.39263 0.0
H1233 H 1.02314 0.74463 0.41471 0.0
H1234 H 0.89301 0.60345 0.42872 0.0
H1235 H 0.84503 0.60765 0.40702 0.0
C1236 C 0.99447 0.64697 0.46389 0.0
C1237 C 1.04785 0.66976 0.46358 0.0
C1238 C 0.96713 0.64968 0.45139 0.0
C1239 C 0.99211 0.67436 0.43792 0.0
C1240 C 1.046 0.69852 0.43789 0.0
C1241 C 0.07327 0.69614 0.45048 0.0
C1242 C 0.95782 0.71465 0.4005 0.0
C1243 C 0.90643 0.67761 0.39805 0.0
C1244 C 0.9848 0.71353 0.41324 0.0
C1245 C 0.96247 0.67432 0.42399 0.0
C1246 C 0.91178 0.63546 0.42114 0.0
C1247 C 0.88418 0.63722 0.40844 0.0
H1248 H 0.54283 0.65116 0.31408 0.0
H1249 H 0.62095 0.68587 0.35672 0.0
H1250 H 0.51622 0.71444 0.31925 0.0
H1251 H 0.59461 0.74891 0.36196 0.0
H1252 H 0.495 0.82087 0.37476 0.0
H1253 H 0.52254 0.75945 0.36866 0.0
H1254 H 0.54031 0.80522 0.32199 0.0
H1255 H 0.51374 0.86812 0.32827 0.0
C1256 C 0.55458 0.67216 0.32461 0.0
C1257 C 0.58472 0.66256 0.3349 0.0
C1258 C 0.53941 0.70914 0.32757 0.0
C1259 C 0.5526 0.73779 0.34115 0.0
C1260 C 0.5827 0.72804 0.35143 0.0
C1261 C 0.59856 0.69175 0.34833 0.0
C1262 C 0.50498 0.81839 0.36316 0.0
C1263 C 0.50227 0.8508 0.35214 0.0
C1264 C 0.52111 0.78271 0.35962 0.0
C1265 C 0.53458 0.77652 0.34476 0.0
C1266 C 0.53037 0.80787 0.33358 0.0
C1267 C 0.51485 0.84428 0.33719 0.0
H1268 H 0.71592 0.50029 0.54377 0.0
H1269 H 0.67008 0.45132 0.49801 0.0
H1270 H 0.8037 0.52636 0.53737 0.0
H1271 H 0.75855 0.47706 0.49143 0.0
H1272 H 0.92177 0.49793 0.4856 0.0
H1273 H 0.83247 0.46915 0.49158 0.0
H1274 H 0.87987 0.58392 0.52629 0.0
H1275 H 0.96835 0.61173 0.5204 0.0
C1276 C 0.72437 0.49542 0.53223 0.0
C1277 C 0.68456 0.47401 0.5215 0.0
C1278 C 0.77563 0.5106 0.52846 0.0
C1279 C 0.79042 0.5051 0.51368 0.0
C1280 C 0.75022 0.48221 0.50298 0.0
C1281 C 0.69869 0.4671 0.50679 0.0
C1282 C 0.91342 0.51717 0.49455 0.0
C1283 C 0.95401 0.55745 0.50252 0.0
C1284 C 0.8614 0.50062 0.49799 0.0
C1285 C 0.84689 0.52329 0.50964 0.0
C1286 C 0.88769 0.56389 0.51747 0.0
C1287 C 0.93952 0.58043 0.514 0.0
H1288 H 0.39761 0.95701 0.68566 0.0
H1289 H 0.46817 0.90627 0.65294 0.0
H1290 H 0.332 0.86994 0.69017 0.0
H1291 H 0.40216 0.81772 0.65757 0.0
H1292 H 0.25223 0.65672 0.66235 0.0
H1293 H 0.31866 0.74436 0.65625 0.0
H1294 H 0.30382 0.79235 0.70096 0.0
H1295 H 0.23828 0.70669 0.70679 0.0
C1296 C 0.39992 0.92749 0.67945 0.0
C1297 C 0.44009 0.94083 0.669 0.0
C1298 C 0.36149 0.87619 0.68213 0.0
C1299 C 0.36019 0.83414 0.6745 0.0
C1300 C 0.40014 0.84742 0.66383 0.0
C1301 C 0.43892 0.8991 0.6612 0.0
C1302 C 0.26281 0.68593 0.67088 0.0
C1303 C 0.2383 0.67269 0.68518 0.0
C1304 C 0.30179 0.73701 0.6674 0.0
C1305 C 0.31819 0.77794 0.67794 0.0
C1306 C 0.29323 0.76411 0.69214 0.0
C1307 C 0.25493 0.71358 0.69561 0.0
H1308 H 0.59439 0.44528 0.82207 0.0
H1309 H 0.47724 0.37947 0.85591 0.0
H1310 H 0.62055 0.38234 0.82795 0.0
H1311 H 0.50239 0.31651 0.86166 0.0
H1312 H 0.58074 0.22993 0.87913 0.0
H1313 H 0.55726 0.29392 0.87293 0.0
H1314 H 0.60994 0.2995 0.82729 0.0
H1315 H 0.633 0.23449 0.83366 0.0
C1316 C 0.57391 0.41757 0.83079 0.0
C1317 C 0.53339 0.41887 0.83849 0.0
C1318 C 0.5889 0.38066 0.83416 0.0
C1319 C 0.56436 0.34305 0.84548 0.0
C1320 C 0.52373 0.34448 0.85309 0.0
C1321 C 0.50874 0.38114 0.84968 0.0
C1322 C 0.58673 0.24392 0.86768 0.0
C1323 C 0.60829 0.22522 0.85698 0.0
C1324 C 0.57314 0.28141 0.86403 0.0
C1325 C 0.58056 0.30297 0.8494 0.0
C1326 C 0.60339 0.28514 0.83873 0.0
C1327 C 0.61684 0.2473 0.84241 0.0
H1328 H 0.17969 0.58333 0.988 0.0
H1329 H 0.13376 0.46968 0.02269 0.0
H1330 H 0.26917 0.61149 0.99359 0.0
H1331 H 0.22223 0.4967 0.02813 0.0
H1332 H 0.38656 0.57722 0.04489 0.0
H1333 H 0.299 0.55296 0.03894 0.0
H1334 H 0.34296 0.60302 0.99303 0.0
H1335 H 0.43134 0.62704 0.99917 0.0
C1336 C 0.1882 0.56413 0.99689 0.0
C1337 C 0.14774 0.52397 1.00491 0.0
C1338 C 0.24034 0.58024 1.00007 0.0
C1339 C 0.25506 0.55728 1.01153 0.0
C1340 C 0.21434 0.51696 0.01945 0.0
C1341 C 0.16247 0.50085 0.01623 0.0
C1342 C 0.37792 0.5827 0.03344 0.0
C1343 C 0.41742 0.60378 0.02259 0.0
C1344 C 0.32674 0.56853 0.02993 0.0
C1345 C 0.31161 0.57471 0.0153 0.0
C1346 C 0.35153 0.59734 1.00448 0.0
C1347 C 0.40302 0.61146 1.00804 0.0
H1348 H 0.87682 0.40593 0.16134 0.0
H1349 H 0.83585 0.37903 0.20834 0.0
H1350 H 0.81098 0.31806 0.15541 0.0
H1351 H 0.77119 0.29195 0.20258 0.0
H1352 H 0.6894 0.12113 0.19149 0.0
H1353 H 0.75386 0.20903 0.19619 0.0
H1354 H 0.72171 0.25189 0.15293 0.0
H1355 H 0.65695 0.16291 0.14819 0.0
C1356 C 0.85372 0.38174 0.17046 0.0
C1357 C 0.86304 0.4009 0.18544 0.0
C1358 C 0.81549 0.33063 0.16704 0.0
C1359 C 0.78476 0.29583 0.17843 0.0
C1360 C 0.79371 0.31573 0.19332 0.0
C1361 C 0.83133 0.36661 0.19668 0.0
C1362 C 0.69574 0.14876 0.18286 0.0
C1363 C 0.66672 0.13309 0.16938 0.0
C1364 C 0.73309 0.20028 0.18565 0.0
C1365 C 0.74426 0.23961 0.17508 0.0
C1366 C 0.71555 0.22394 0.16149 0.0
C1367 C 0.6776 0.17224 0.15877 0.0
H1368 H 0.26161 0.58747 0.48188 0.0
H1369 H 0.21751 0.57541 0.52859 0.0
H1370 H 0.32309 0.56015 0.48819 0.0
H1371 H 0.28037 0.54921 0.53508 0.0
H1372 H 0.43317 0.54535 0.54331 0.0
H1373 H 0.37019 0.57196 0.53773 0.0
H1374 H 0.33498 0.48988 0.4956 0.0
H1375 H 0.39769 0.46355 0.50125 0.0
C1376 C 0.26467 0.57886 0.49356 0.0
C1377 C 0.23309 0.58336 0.50457 0.0
C1378 C 0.30045 0.56295 0.49724 0.0
C1379 C 0.30761 0.55153 0.51225 0.0
C1380 C 0.27706 0.55752 0.52338 0.0
C1381 C 0.24061 0.57282 0.51964 0.0
C1382 C 0.41208 0.53277 0.53282 0.0
C1383 C 0.42145 0.50163 0.52281 0.0
C1384 C 0.37525 0.54797 0.52963 0.0
C1385 C 0.34644 0.53377 0.51608 0.0
C1386 C 0.35597 0.50266 0.50609 0.0
C1387 C 0.39211 0.48681 0.50942 0.0
H1388 H 0.71635 0.25184 0.64834 0.0
H1389 H 0.6869 0.21833 0.69568 0.0
H1390 H 0.8039 0.31603 0.65395 0.0
H1391 H 0.77499 0.28418 0.70146 0.0
H1392 H 0.93048 0.43858 0.70778 0.0
H1393 H 0.84154 0.37424 0.70287 0.0
H1394 H 0.88719 0.33334 0.6614 0.0
H1395 H 0.97553 0.39705 0.6664 0.0
C1396 C 0.72827 0.25781 0.66004 0.0
C1397 C 0.69303 0.22816 0.67142 0.0
C1398 C 0.77943 0.29529 0.66332 0.0
C1399 C 0.79871 0.30652 0.67827 0.0
C1400 C 0.76301 0.27792 0.68976 0.0
C1401 C 0.71171 0.23966 0.68643 0.0
C1402 C 0.92187 0.41629 0.69752 0.0
C1403 C 0.96206 0.42464 0.68751 0.0
C1404 C 0.8701 0.37846 0.69472 0.0
C1405 C 0.85512 0.34724 0.6816 0.0
C1406 C 0.89537 0.35604 0.67156 0.0
C1407 C 0.94709 0.39317 0.67449 0.0
H1408 H 0.53541 0.90648 0.87817 0.0
H1409 H 0.63068 0.9502 0.83871 0.0
H1410 H 0.5088 0.81687 0.87307 0.0
H1411 H 0.60331 0.86126 0.83333 0.0
H1412 H 0.50022 0.69321 0.81835 0.0
H1413 H 0.52762 0.78147 0.82481 0.0
H1414 H 0.53612 0.74907 0.87173 0.0
H1415 H 0.51032 0.66029 0.86509 0.0
C1416 C 0.55086 0.89749 0.86833 0.0
C1417 C 0.58544 0.93728 0.85881 0.0
C1418 C 0.53556 0.84547 0.86542 0.0
C1419 C 0.55312 0.83032 0.85262 0.0
C1420 C 0.58784 0.87013 0.84318 0.0
C1421 C 0.60392 0.92202 0.8463 0.0
C1422 C 0.50822 0.70452 0.83008 0.0
C1423 C 0.50341 0.66845 0.84105 0.0
C1424 C 0.52415 0.75586 0.83383 0.0
C1425 C 0.53498 0.77401 0.84886 0.0
C1426 C 0.52835 0.73753 0.86 0.0
C1427 C 0.51327 0.68606 0.85618 0.0
H1428 H 0.66721 0.52945 0.04438 0.0
H1429 H 0.70323 0.60886 1.002 0.0
H1430 H 0.73058 0.5029 0.03925 0.0
H1431 H 0.76642 0.58265 0.9968 0.0
H1432 H 0.83803 0.48308 0.98383 0.0
H1433 H 0.77681 0.51085 0.98992 0.0
H1434 H 0.82141 0.52675 0.03671 0.0
H1435 H 0.88419 0.49997 0.03043 0.0
C1436 C 0.68853 0.54151 0.03392 0.0
C1437 C 0.67927 0.57196 0.02368 0.0
C1438 C 0.72557 0.52638 0.03099 0.0
C1439 C 0.7546 0.53997 0.01749 0.0
C1440 C 0.74521 0.57043 1.00727 0.0
C1441 C 0.70886 0.58621 1.01034 0.0
C1442 C 0.83538 0.49275 0.99545 0.0
C1443 C 0.86741 0.48942 1.0065 0.0
C1444 C 0.79981 0.50899 0.99899 0.0
C1445 C 0.79331 0.52195 1.01389 0.0
C1446 C 0.82431 0.5172 0.02509 0.0
C1447 C 0.86065 0.50158 0.02148 0.0
H1448 H 0.42112 0.86221 0.19737 0.0
H1449 H 0.39398 0.82091 0.15038 0.0
H1450 H 0.33321 0.79639 0.2033 0.0
H1451 H 0.30687 0.75627 0.15614 0.0
H1452 H 0.13588 0.67441 0.16722 0.0
H1453 H 0.22383 0.73885 0.16251 0.0
H1454 H 0.26697 0.70719 0.2058 0.0
H1455 H 0.17795 0.64244 0.21054 0.0
C1456 C 0.39687 0.83903 0.18825 0.0
C1457 C 0.41599 0.84826 0.17327 0.0
C1458 C 0.34573 0.80082 0.19167 0.0
C1459 C 0.31085 0.77 0.18028 0.0
C1460 C 0.3307 0.77886 0.1654 0.0
C1461 C 0.38162 0.81646 0.16204 0.0
C1462 C 0.16358 0.68085 0.17585 0.0
C1463 C 0.14797 0.65196 0.18933 0.0
C1464 C 0.21514 0.7182 0.17306 0.0
C1465 C 0.25457 0.7295 0.18364 0.0
C1466 C 0.23895 0.70092 0.19723 0.0
C1467 C 0.18722 0.66298 0.19995 0.0
H1468 H 0.64012 0.41526 0.35934 0.0
H1469 H 0.58804 0.36916 0.31383 0.0
H1470 H 0.61594 0.32709 0.36565 0.0
H1471 H 0.56361 0.28179 0.31994 0.0
H1472 H 0.48079 0.11715 0.33653 0.0
H1473 H 0.5078 0.20541 0.33093 0.0
H1474 H 0.62385 0.25309 0.36519 0.0
H1475 H 0.59571 0.16382 0.37093 0.0
C1476 C 0.62399 0.38669 0.35055 0.0
C1477 C 0.61577 0.4007 0.336 0.0
C1478 C 0.60977 0.3353 0.3542 0.0
C1479 C 0.58648 0.29506 0.3435 0.0
C1480 C 0.57971 0.30978 0.32887 0.0
C1481 C 0.59398 0.36086 0.32526 0.0
C1482 C 0.51221 0.14597 0.3429 0.0
C1483 C 0.53565 0.1315 0.35419 0.0
C1484 C 0.52833 0.19773 0.33959 0.0
C1485 C 0.56901 0.23861 0.34738 0.0
C1486 C 0.59229 0.22414 0.35881 0.0
C1487 C 0.57615 0.17212 0.3621 0.0
H1488 H 0.18258 0.65262 0.44103 0.0
H1489 H 0.25866 0.77465 0.47321 0.0
H1490 H 0.23623 0.70759 0.42088 0.0
H1491 H 0.31271 0.83005 0.45287 0.0
H1492 H 0.43728 0.8965 0.41566 0.0
H1493 H 0.38197 0.84359 0.43589 0.0
H1494 H 0.25455 0.78075 0.40522 0.0
H1495 H 0.31022 0.83399 0.38482 0.0
C1496 C 0.21084 0.69122 0.4439 0.0
C1497 C 0.21607 0.70862 0.45898 0.0
C1498 C 0.24155 0.72313 0.43219 0.0
C1499 C 0.2793 0.77376 0.43504 0.0
C1500 C 0.28462 0.7913 0.45012 0.0
C1501 C 0.25334 0.75945 0.46185 0.0
C1502 C 0.3975 0.87141 0.4131 0.0
C1503 C 0.37875 0.86976 0.39837 0.0
C1504 C 0.36545 0.84115 0.42487 0.0
C1505 C 0.3133 0.80742 0.4224 0.0
C1506 C 0.29444 0.80565 0.40766 0.0
C1507 C 0.32648 0.83648 0.3959 0.0
H1508 H 0.53241 0.29807 0.55028 0.0
H1509 H 0.56475 0.41686 0.58276 0.0
H1510 H 0.53267 0.24349 0.57069 0.0
H1511 H 0.56506 0.36267 0.60299 0.0
H1512 H 0.51256 0.23435 0.63841 0.0
H1513 H 0.51084 0.2875 0.61785 0.0
H1514 H 0.58765 0.23237 0.58869 0.0
H1515 H 0.58935 0.1794 0.60915 0.0
C1516 C 0.53979 0.3128 0.56171 0.0
C1517 C 0.54889 0.36244 0.56466 0.0
C1518 C 0.54012 0.28141 0.57349 0.0
C1519 C 0.5488 0.29819 0.58869 0.0
C1520 C 0.55762 0.34772 0.59159 0.0
C1521 C 0.55791 0.37922 0.57984 0.0
C1522 C 0.5292 0.23351 0.62764 0.0
C1523 C 0.5513 0.20231 0.62566 0.0
C1524 C 0.52841 0.26434 0.61578 0.0
C1525 C 0.54912 0.2647 0.60141 0.0
C1526 C 0.57078 0.23311 0.59942 0.0
C1527 C 0.57209 0.2028 0.6113 0.0
H1528 H 0.31911 0.5137 0.80721 0.0
H1529 H 0.44143 0.54859 0.77585 0.0
H1530 H 0.26593 0.5138 0.78623 0.0
H1531 H 0.38804 0.54733 0.75499 0.0
H1532 H 0.25421 0.48503 0.71982 0.0
H1533 H 0.3066 0.48408 0.74085 0.0
H1534 H 0.26498 0.57811 0.76716 0.0
H1535 H 0.21404 0.58042 0.74609 0.0
C1536 C 0.33471 0.5212 0.79589 0.0
C1537 C 0.38494 0.53135 0.79338 0.0
C1538 C 0.3042 0.52142 0.78382 0.0
C1539 C 0.32244 0.53047 0.76881 0.0
C1540 C 0.37235 0.53983 0.76631 0.0
C1541 C 0.40318 0.54084 0.77837 0.0
C1542 C 0.25641 0.5058 0.73003 0.0
C1543 C 0.22976 0.53301 0.73106 0.0
C1544 C 0.28657 0.50528 0.74213 0.0
C1545 C 0.29009 0.53086 0.75583 0.0
C1546 C 0.26302 0.55758 0.75691 0.0
C1547 C 0.2339 0.55912 0.7447 0.0
H1548 H 0.67027 0.17236 0.91686 0.0
H1549 H 0.79509 0.24309 0.88533 0.0
H1550 H 0.72486 0.22607 0.93707 0.0
H1551 H 0.85013 0.29731 0.90576 0.0
H1552 H 0.91697 0.42334 0.94271 0.0
H1553 H 0.8646 0.36822 0.92233 0.0
H1554 H 0.79651 0.242 0.95328 0.0
H1555 H 0.84923 0.29746 0.97382 0.0
C1556 C 0.70938 0.19954 0.91413 0.0
C1557 C 0.72769 0.20321 0.89921 0.0
C1558 C 0.74106 0.23025 0.92589 0.0
C1559 C 0.79238 0.26644 0.92326 0.0
C1560 C 0.81082 0.27039 0.90833 0.0
C1561 C 0.77917 0.23906 0.89655 0.0
C1562 C 0.89085 0.38385 0.9453 0.0
C1563 C 0.88753 0.36537 0.96015 0.0
C1564 C 0.86091 0.35192 0.93345 0.0
C1565 C 0.82586 0.30021 0.93596 0.0
C1566 C 0.82249 0.28159 0.95081 0.0
C1567 C 0.85302 0.31348 0.96266 0.0
H1568 H 0.59209 0.83737 0.13991 0.0
H1569 H 0.51781 0.89519 0.11085 0.0
H1570 H 0.59313 0.78421 0.11909 0.0
H1571 H 0.51874 0.84234 0.09024 0.0
H1572 H 0.57246 0.77692 0.05153 0.0
H1573 H 0.57392 0.83142 0.07229 0.0
H1574 H 0.53727 0.7098 0.10389 0.0
H1575 H 0.53593 0.65566 0.0833 0.0
C1576 C 0.57587 0.8388 0.12915 0.0
C1577 C 0.5546 0.8707 0.12727 0.0
C1578 C 0.57627 0.80805 0.11715 0.0
C1579 C 0.55603 0.80864 0.10281 0.0
C1580 C 0.53524 0.84093 0.10095 0.0
C1581 C 0.53432 0.87112 0.11293 0.0
C1582 C 0.56448 0.76165 0.06288 0.0
C1583 C 0.55366 0.71138 0.06554 0.0
C1584 C 0.56518 0.79298 0.07485 0.0
C1585 C 0.55578 0.77539 0.08994 0.0
C1586 C 0.5453 0.72525 0.09256 0.0
C1587 C 0.54402 0.69383 0.08061 0.0
H1588 H 0.79038 0.55664 0.307 0.0
H1589 H 0.66883 0.51928 0.27517 0.0
H1590 H 0.84512 0.55843 0.28627 0.0
H1591 H 0.72322 0.52094 0.25461 0.0
H1592 H 0.85105 0.57615 0.21863 0.0
H1593 H 0.79755 0.57686 0.2394 0.0
H1594 H 0.85664 0.50365 0.26836 0.0
H1595 H 0.9098 0.50304 0.2478 0.0
C1596 C 0.77509 0.54855 0.29564 0.0
C1597 C 0.72466 0.53739 0.29296 0.0
C1598 C 0.80656 0.54943 0.28369 0.0
C1599 C 0.78899 0.53989 0.26859 0.0
C1600 C 0.73868 0.52908 0.26594 0.0
C1601 C 0.70712 0.52762 0.27787 0.0
C1602 C 0.85262 0.56013 0.2294 0.0
C1603 C 0.88489 0.53927 0.23132 0.0
C1604 C 0.82167 0.56033 0.24137 0.0
C1605 C 0.82242 0.54033 0.25573 0.0
C1606 C 0.85508 0.51997 0.25763 0.0
C1607 C 0.88546 0.51924 0.24568 0.0
H1608 H 0.85889 0.48445 0.42105 0.0
H1609 H 0.93094 0.39225 0.4166 0.0
H1610 H 0.77694 0.41101 0.41433 0.0
H1611 H 0.84972 0.31902 0.41067 0.0
H1612 H 0.71251 0.19305 0.39711 0.0
H1613 H 0.78191 0.27788 0.39348 0.0
H1614 H 0.71822 0.33403 0.42718 0.0
H1615 H 0.64502 0.24953 0.42967 0.0
C1616 C 0.85726 0.44867 0.41843 0.0
C1617 C 0.90098 0.44366 0.41955 0.0
C1618 C 0.81039 0.40665 0.41469 0.0
C1619 C 0.80668 0.35912 0.41197 0.0
C1620 C 0.85109 0.35511 0.41241 0.0
C1621 C 0.89766 0.39691 0.41608 0.0
C1622 C 0.71142 0.22339 0.40329 0.0
C1623 C 0.6734 0.21361 0.41409 0.0
C1624 C 0.75205 0.27227 0.40134 0.0
C1625 C 0.75669 0.31229 0.41048 0.0
C1626 C 0.71615 0.3039 0.42006 0.0
C1627 C 0.67458 0.25509 0.42172 0.0
H1628 H 0.54997 0.87804 0.62915 0.0
H1629 H 0.4257 0.82578 0.59713 0.0
H1630 H 0.53411 0.79264 0.63204 0.0
H1631 H 0.4137 0.74029 0.599 0.0
H1632 H 0.40799 0.58864 0.6045 0.0
H1633 H 0.39782 0.66123 0.61202 0.0
H1634 H 0.56149 0.75643 0.61219 0.0
H1635 H 0.57102 0.68411 0.60516 0.0
C1636 C 0.51819 0.84857 0.623 0.0
C1637 C 0.49044 0.8598 0.61239 0.0
C1638 C 0.50964 0.79929 0.62456 0.0
C1639 C 0.47434 0.76038 0.61525 0.0
C1640 C 0.44189 0.76983 0.60615 0.0
C1641 C 0.4495 0.81915 0.60487 0.0
C1642 C 0.44146 0.62499 0.60645 0.0
C1643 C 0.49013 0.63108 0.60412 0.0
C1644 C 0.43573 0.66643 0.61069 0.0
C1645 C 0.4788 0.7144 0.61281 0.0
C1646 C 0.52747 0.71978 0.61096 0.0
C1647 C 0.53305 0.67859 0.60669 0.0
H1648 H 0.7385 0.5624 0.7896 0.0
H1649 H 0.66033 0.4174 0.76647 0.0
H1650 H 0.81172 0.55195 0.79287 0.0
H1651 H 0.73681 0.41023 0.76813 0.0
H1652 H 0.95441 0.56453 0.77206 0.0
H1653 H 0.87483 0.56316 0.77606 0.0
H1654 H 0.7985 0.39999 0.78186 0.0
H1655 H 0.8784 0.40118 0.77666 0.0
C1656 C 0.73629 0.5278 0.78536 0.0
C1657 C 0.6931 0.49096 0.7776 0.0
C1658 C 0.77908 0.52236 0.78699 0.0
C1659 C 0.78085 0.48104 0.78039 0.0
C1660 C 0.73687 0.44265 0.77337 0.0
C1661 C 0.69326 0.44731 0.77213 0.0
C1662 C 0.92066 0.52825 0.77409 0.0
C1663 C 0.92251 0.48283 0.77364 0.0
C1664 C 0.87497 0.5275 0.7767 0.0
C1665 C 0.82999 0.48138 0.77929 0.0
C1666 C 0.83228 0.43608 0.77967 0.0
C1667 C 0.87815 0.4368 0.77684 0.0
H1668 H 0.50535 0.83478 0.93898 0.0
H1669 H 0.41496 0.90922 0.94178 0.0
H1670 H 0.43051 0.75382 0.94567 0.0
H1671 H 0.34048 0.82907 0.94761 0.0
H1672 H 0.21288 0.69512 0.96192 0.0
H1673 H 0.29813 0.76374 0.96525 0.0
H1674 H 0.35309 0.69388 0.93325 0.0
H1675 H 0.26806 0.62124 0.93122 0.0
C1676 C 0.46964 0.83388 0.94118 0.0
C1677 C 0.46565 0.87804 0.93965 0.0
C1678 C 0.42681 0.78757 0.94491 0.0
C1679 C 0.37947 0.78484 0.9472 0.0
C1680 C 0.37637 0.82965 0.94623 0.0
C1681 C 0.41893 0.87562 0.94259 0.0
C1682 C 0.24291 0.69244 0.95607 0.0
C1683 C 0.23255 0.65274 0.94583 0.0
C1684 C 0.29212 0.73273 0.95783 0.0
C1685 C 0.33202 0.73547 0.94901 0.0
C1686 C 0.32307 0.69339 0.94007 0.0
C1687 C 0.27389 0.65208 0.93867 0.0
H1688 H 0.55504 0.19428 0.12667 0.0
H1689 H 0.67319 0.23938 0.09274 0.0
H1690 H 0.57238 0.28036 0.12862 0.0
H1691 H 0.68626 0.32552 0.09367 0.0
H1692 H 0.69655 0.48099 0.09987 0.0
H1693 H 0.70625 0.40737 0.10648 0.0
H1694 H 0.54256 0.31435 0.10886 0.0
H1695 H 0.53335 0.38734 0.10276 0.0
C1696 C 0.58577 0.22231 0.11987 0.0
C1697 C 0.61145 0.20873 0.10911 0.0
C1698 C 0.59514 0.27199 0.12089 0.0
C1699 C 0.62902 0.30903 0.11086 0.0
C1700 C 0.65924 0.29741 0.1014 0.0
C1701 C 0.65093 0.24769 0.10066 0.0
C1702 C 0.66296 0.44482 0.10207 0.0
C1703 C 0.61422 0.43947 0.10072 0.0
C1704 C 0.66846 0.40285 0.10578 0.0
C1705 C 0.62524 0.35532 0.10835 0.0
C1706 C 0.57671 0.35067 0.10729 0.0
C1707 C 0.5713 0.39225 0.10356 0.0
H1708 H 0.49629 0.68181 0.25873 0.0
H1709 H 0.40173 0.519 0.25524 0.0
H1710 H 0.42309 0.69236 0.25213 0.0
H1711 H 0.32914 0.52902 0.24912 0.0
H1712 H 0.25496 0.65932 0.26601 0.0
H1713 H 0.34112 0.6723 0.26494 0.0
H1714 H 0.29574 0.56007 0.22948 0.0
H1715 H 0.20962 0.54276 0.23154 0.0
C1716 C 0.46002 0.64849 0.25639 0.0
C1717 C 0.45428 0.59961 0.25758 0.0
C1718 C 0.41828 0.65447 0.25268 0.0
C1719 C 0.37061 0.6116 0.24994 0.0
C1720 C 0.36559 0.56293 0.25082 0.0
C1721 C 0.40694 0.55704 0.25456 0.0
C1722 C 0.26322 0.63741 0.25794 0.0
C1723 C 0.22415 0.59829 0.2494 0.0
C1724 C 0.31297 0.64569 0.25713 0.0
C1725 C 0.32449 0.61582 0.24748 0.0
C1726 C 0.28741 0.58251 0.23735 0.0
C1727 C 0.2377 0.57316 0.23844 0.0
loop_
_geom_bond_atom_site_label_1
_geom_bond_atom_site_label_2
_geom_bond_distance
_geom_bond_site_symmetry_2
_ccdc_geom_bond_type
C0 C2 1.422 . S
C0 C4 1.415 . S
C0 N6 1.369 . S
C1 C2 1.421 . S
C1 C3 1.417 . S
C1 C13 1.422 1_565 S
C2 C0 1.422 . S
C2 C1 1.421 . S
C2 N12 1.359 1_565 S
C3 C1 1.417 . S
C3 C5 1.329 . S
C3 H22 0.930 . S
C4 C0 1.415 . S
C4 C5 1.437 . S
C4 C8 1.413 . S
C5 C3 1.329 . S
C5 C4 1.437 . S
C5 H27 0.929 . S
N6 C0 1.369 . S
N6 C7 1.338 . S
N6 Gd11 2.622 1_565 S
C7 N6 1.338 . S
C7 C9 1.378 . S
C7 H19 0.929 . S
C8 C4 1.413 . S
C8 C9 1.348 . S
C8 H24 0.931 . S
C9 C7 1.378 . S
C9 C8 1.348 . S
C9 H25 0.930 . S
Gd10 N30 2.622 1_565 S
Gd10 N37 2.570 . S
Gd10 O44 2.353 . S
Gd10 O45 2.468 . S
Gd10 O46 2.427 . S
Gd10 O48 2.388 1_565 S
Gd10 O49 2.386 1_565 S
Gd10 O53 2.307 . S
Gd10 C63 2.805 . S
Gd11 N6 2.622 1_545 S
Gd11 N12 2.570 . S
Gd11 O43 2.386 1_545 S
Gd11 O47 2.307 . S
Gd11 O50 2.353 . S
Gd11 O51 2.468 . S
Gd11 O52 2.427 . S
Gd11 O54 2.388 1_545 S
Gd11 C75 2.805 . S
N12 C2 1.359 1_545 S
N12 Gd11 2.570 . S
N12 C14 1.343 . S
C13 C1 1.422 1_545 S
C13 C15 1.321 . S
C13 H21 0.931 . S
C14 N12 1.343 . S
C14 C15 1.390 . S
C14 H16 0.931 . S
C15 C13 1.321 . S
C15 C14 1.390 . S
C15 H17 0.930 . S
H16 C14 0.931 . S
H17 C15 0.930 . S
H18 C41 0.931 . S
H19 C7 0.929 . S
H20 C42 0.930 . S
H21 C13 0.931 . S
H22 C3 0.930 . S
H23 C32 0.929 . S
H24 C8 0.931 . S
H25 C9 0.930 . S
H26 C64 0.930 . S
H27 C5 0.929 . S
H28 C33 0.931 . S
H29 C34 0.930 . S
N30 Gd10 2.622 1_545 S
N30 C31 1.369 . S
N30 C32 1.338 . S
C31 N30 1.369 . S
C31 C35 1.415 . S
C31 C38 1.422 . S
C32 H23 0.929 . S
C32 N30 1.338 . S
C32 C34 1.378 . S
C33 H28 0.931 . S
C33 C34 1.348 . S
C33 C35 1.413 . S
C34 H29 0.930 . S
C34 C32 1.378 . S
C34 C33 1.348 . S
C35 C31 1.415 . S
C35 C33 1.413 . S
C35 C65 1.437 . S
H36 C65 0.929 . S
N37 Gd10 2.570 . S
N37 C38 1.359 1_565 S
N37 C41 1.343 . S
C38 C31 1.422 . S
C38 N37 1.359 1_545 S
C38 C40 1.421 . S
C39 C40 1.422 1_565 S
C39 C42 1.321 . S
C39 H66 0.931 . S
C40 C38 1.421 . S
C40 C39 1.422 1_545 S
C40 C64 1.417 . S
C41 H18 0.931 . S
C41 N37 1.343 . S
C41 C42 1.390 . S
C42 H20 0.930 . S
C42 C39 1.321 . S
C42 C41 1.390 . S
O43 Gd11 2.386 1_565 S
O43 C55 1.265 . S
O44 Gd10 2.353 . S
O44 C55 1.242 . S
O45 Gd10 2.468 . S
O45 C63 1.263 . S
O46 Gd10 2.427 . S
O46 C63 1.252 . S
O47 Gd11 2.307 . S
O47 C56 1.261 . S
O48 Gd10 2.388 1_545 S
O48 C56 1.252 . S
O49 Gd10 2.386 1_545 S
O49 C67 1.265 . S
O50 Gd11 2.353 . S
O50 C67 1.242 . S
O51 Gd11 2.468 . S
O51 C75 1.263 . S
O52 Gd11 2.427 . S
O52 C75 1.252 . S
O53 Gd10 2.307 . S
O53 C68 1.261 . S
O54 Gd11 2.388 1_565 S
O54 C68 1.252 . S
C55 O43 1.265 . S
C55 O44 1.242 . S
C56 O47 1.261 . S
C56 O48 1.252 . S
C57 C60 1.394 . S
C57 C62 1.370 . S
C57 C63 1.500 . S
C58 C61 1.383 . S
C58 C62 1.395 . S
C59 C60 1.396 . S
C59 C61 1.365 . S
C59 H76 0.929 . S
C60 C57 1.394 . S
C60 C59 1.396 . S
C60 H77 0.930 . S
C61 C58 1.383 . S
C61 C59 1.365 . S
C61 H78 0.931 . S
C62 C57 1.370 . S
C62 C58 1.395 . S
C62 H79 0.930 . S
C63 Gd10 2.805 . S
C63 O45 1.263 . S
C63 O46 1.252 . S
C63 C57 1.500 . S
C64 H26 0.930 . S
C64 C40 1.417 . S
C64 C65 1.329 . S
C65 C35 1.437 . S
C65 H36 0.929 . S
C65 C64 1.329 . S
H66 C39 0.931 . S
C67 O49 1.265 . S
C67 O50 1.242 . S
C68 O53 1.261 . S
C68 O54 1.252 . S
C69 C72 1.394 . S
C69 C74 1.370 . S
C69 C75 1.500 . S
C70 C73 1.383 . S
C70 C74 1.395 . S
C71 C72 1.396 . S
C71 C73 1.365 . S
C71 H80 0.929 . S
C72 C69 1.394 . S
C72 C71 1.396 . S
C72 H81 0.930 . S
C73 C70 1.383 . S
C73 C71 1.365 . S
C73 H82 0.931 . S
C74 C69 1.370 . S
C74 C70 1.395 . S
C74 H83 0.930 . S
C75 Gd11 2.805 . S
C75 O51 1.263 . S
C75 O52 1.252 . S
C75 C69 1.500 . S
H76 C59 0.929 . S
H77 C60 0.930 . S
H78 C61 0.931 . S
H79 C62 0.930 . S
H80 C71 0.929 . S
H81 C72 0.930 . S
H82 C73 0.931 . S
H83 C74 0.930 . S
C84 C86 1.422 . S
C84 C88 1.415 . S
C84 N90 1.369 . S
C85 C86 1.421 . S
C85 C87 1.417 . S
C85 C97 1.422 . S
C86 C84 1.422 . S
C86 C85 1.421 . S
C86 N96 1.359 . S
C87 C85 1.417 . S
C87 C89 1.329 . S
C87 H106 0.930 . S
C88 C84 1.415 . S
C88 C89 1.437 . S
C88 C92 1.413 . S
C89 C87 1.329 . S
C89 C88 1.437 . S
C89 H111 0.929 . S
N90 C84 1.369 . S
N90 C91 1.338 . S
N90 Gd95 2.622 . S
C91 N90 1.338 . S
C91 C93 1.378 . S
C91 H103 0.929 . S
C92 C88 1.413 . S
C92 C93 1.348 . S
C92 H108 0.931 . S
C93 C91 1.378 . S
C93 C92 1.348 . S
C93 H109 0.930 . S
Gd94 N114 2.622 . S
Gd94 N121 2.570 . S
Gd94 O128 2.353 . S
Gd94 O129 2.468 . S
Gd94 O130 2.427 . S
Gd94 O132 2.388 . S
Gd94 O133 2.386 . S
Gd94 O137 2.307 . S
Gd94 C147 2.805 . S
Gd95 N90 2.622 . S
Gd95 N96 2.570 . S
Gd95 O127 2.386 . S
Gd95 O131 2.307 . S
Gd95 O134 2.353 . S
Gd95 O135 2.468 . S
Gd95 O136 2.427 . S
Gd95 O138 2.388 . S
Gd95 C159 2.805 . S
N96 C86 1.359 . S
N96 Gd95 2.570 . S
N96 C98 1.343 . S
C97 C85 1.422 . S
C97 C99 1.321 . S
C97 H105 0.931 . S
C98 N96 1.343 . S
C98 C99 1.390 . S
C98 H100 0.931 . S
C99 C97 1.321 . S
C99 C98 1.390 . S
C99 H101 0.930 . S
H100 C98 0.931 . S
H101 C99 0.930 . S
H102 C125 0.931 . S
H103 C91 0.929 . S
H104 C126 0.930 . S
H105 C97 0.931 . S
H106 C87 0.930 . S
H107 C116 0.929 . S
H108 C92 0.931 . S
H109 C93 0.930 . S
H110 C148 0.930 . S
H111 C89 0.929 . S
H112 C117 0.931 . S
H113 C118 0.930 . S
N114 Gd94 2.622 . S
N114 C115 1.369 . S
N114 C116 1.338 . S
C115 N114 1.369 . S
C115 C119 1.415 . S
C115 C122 1.422 . S
C116 H107 0.929 . S
C116 N114 1.338 . S
C116 C118 1.378 . S
C117 H112 0.931 . S
C117 C118 1.348 . S
C117 C119 1.413 . S
C118 H113 0.930 . S
C118 C116 1.378 . S
C118 C117 1.348 . S
C119 C115 1.415 . S
C119 C117 1.413 . S
C119 C149 1.437 . S
H120 C149 0.929 . S
N121 Gd94 2.570 . S
N121 C122 1.359 . S
N121 C125 1.343 . S
C122 C115 1.422 . S
C122 N121 1.359 . S
C122 C124 1.421 . S
C123 C124 1.422 . S
C123 C126 1.321 . S
C123 H150 0.931 . S
C124 C122 1.421 . S
C124 C123 1.422 . S
C124 C148 1.417 . S
C125 H102 0.931 . S
C125 N121 1.343 . S
C125 C126 1.390 . S
C126 H104 0.930 . S
C126 C123 1.321 . S
C126 C125 1.390 . S
O127 Gd95 2.386 . S
O127 C139 1.265 . S
O128 Gd94 2.353 . S
O128 C139 1.242 . S
O129 Gd94 2.468 . S
O129 C147 1.263 . S
O130 Gd94 2.427 . S
O130 C147 1.252 . S
O131 Gd95 2.307 . S
O131 C140 1.261 . S
O132 Gd94 2.388 . S
O132 C140 1.252 . S
O133 Gd94 2.386 . S
O133 C151 1.265 . S
O134 Gd95 2.353 . S
O134 C151 1.242 . S
O135 Gd95 2.468 . S
O135 C159 1.263 . S
O136 Gd95 2.427 . S
O136 C159 1.252 . S
O137 Gd94 2.307 . S
O137 C152 1.261 . S
O138 Gd95 2.388 . S
O138 C152 1.252 . S
C139 O127 1.265 . S
C139 O128 1.242 . S
C140 O131 1.261 . S
C140 O132 1.252 . S
C141 C144 1.394 . S
C141 C146 1.370 . S
C141 C147 1.500 . S
C142 C145 1.383 . S
C142 C146 1.395 . S
C143 C144 1.396 . S
C143 C145 1.365 . S
C143 H160 0.929 . S
C144 C141 1.394 . S
C144 C143 1.396 . S
C144 H161 0.930 . S
C145 C142 1.383 . S
C145 C143 1.365 . S
C145 H162 0.931 . S
C146 C141 1.370 . S
C146 C142 1.395 . S
C146 H163 0.930 . S
C147 Gd94 2.805 . S
C147 O129 1.263 . S
C147 O130 1.252 . S
C147 C141 1.500 . S
C148 H110 0.930 . S
C148 C124 1.417 . S
C148 C149 1.329 . S
C149 C119 1.437 . S
C149 H120 0.929 . S
C149 C148 1.329 . S
H150 C123 0.931 . S
C151 O133 1.265 . S
C151 O134 1.242 . S
C152 O137 1.261 . S
C152 O138 1.252 . S
C153 C156 1.394 . S
C153 C158 1.370 . S
C153 C159 1.500 . S
C154 C157 1.383 . S
C154 C158 1.395 . S
C155 C156 1.396 . S
C155 C157 1.365 . S
C155 H164 0.929 . S
C156 C153 1.394 . S
C156 C155 1.396 . S
C156 H165 0.930 . S
C157 C154 1.383 . S
C157 C155 1.365 . S
C157 H166 0.931 . S
C158 C153 1.370 . S
C158 C154 1.395 . S
C158 H167 0.930 . S
C159 Gd95 2.805 . S
C159 O135 1.263 . S
C159 O136 1.252 . S
C159 C153 1.500 . S
H160 C143 0.929 . S
H161 C144 0.930 . S
H162 C145 0.931 . S
H163 C146 0.930 . S
H164 C155 0.929 . S
H165 C156 0.930 . S
H166 C157 0.931 . S
H167 C158 0.930 . S
C168 C170 1.422 . S
C168 C172 1.415 . S
C168 N174 1.369 . S
C169 C170 1.421 . S
C169 C171 1.417 . S
C169 C181 1.422 1_455 S
C170 C168 1.422 . S
C170 C169 1.421 . S
C170 N180 1.359 1_455 S
C171 C169 1.417 . S
C171 C173 1.329 . S
C171 H190 0.930 . S
C172 C168 1.415 . S
C172 C173 1.437 . S
C172 C176 1.413 . S
C173 C171 1.329 . S
C173 C172 1.437 . S
C173 H195 0.929 . S
N174 C168 1.369 . S
N174 C175 1.338 . S
N174 Gd179 2.622 1_455 S
C175 N174 1.338 . S
C175 C177 1.378 . S
C175 H187 0.929 . S
C176 C172 1.413 . S
C176 C177 1.348 . S
C176 H192 0.931 . S
C177 C175 1.378 . S
C177 C176 1.348 . S
C177 H193 0.930 . S
Gd178 N198 2.622 1_455 S
Gd178 N205 2.570 . S
Gd178 O212 2.353 . S
Gd178 O213 2.468 . S
Gd178 O214 2.427 . S
Gd178 O216 2.388 1_455 S
Gd178 O217 2.386 1_455 S
Gd178 O221 2.307 . S
Gd178 C231 2.805 . S
Gd179 N174 2.622 1_655 S
Gd179 N180 2.570 . S
Gd179 O211 2.386 1_655 S
Gd179 O215 2.307 . S
Gd179 O218 2.353 . S
Gd179 O219 2.468 . S
Gd179 O220 2.427 . S
Gd179 O222 2.388 1_655 S
Gd179 C243 2.805 . S
N180 C170 1.359 1_655 S
N180 Gd179 2.570 . S
N180 C182 1.343 . S
C181 C169 1.422 1_655 S
C181 C183 1.321 . S
C181 H189 0.931 . S
C182 N180 1.343 . S
C182 C183 1.390 . S
C182 H184 0.931 . S
C183 C181 1.321 . S
C183 C182 1.390 . S
C183 H185 0.930 . S
H184 C182 0.931 . S
H185 C183 0.930 . S
H186 C209 0.931 . S
H187 C175 0.929 . S
H188 C210 0.930 . S
H189 C181 0.931 . S
H190 C171 0.930 . S
H191 C200 0.929 . S
H192 C176 0.931 . S
H193 C177 0.930 . S
H194 C232 0.930 . S
H195 C173 0.929 . S
H196 C201 0.931 . S
H197 C202 0.930 . S
N198 Gd178 2.622 1_655 S
N198 C199 1.369 . S
N198 C200 1.338 . S
C199 N198 1.369 . S
C199 C203 1.415 . S
C199 C206 1.422 . S
C200 H191 0.929 . S
C200 N198 1.338 . S
C200 C202 1.378 . S
C201 H196 0.931 . S
C201 C202 1.348 . S
C201 C203 1.413 . S
C202 H197 0.930 . S
C202 C200 1.378 . S
C202 C201 1.348 . S
C203 C199 1.415 . S
C203 C201 1.413 . S
C203 C233 1.437 . S
H204 C233 0.929 . S
N205 Gd178 2.570 . S
N205 C206 1.359 1_455 S
N205 C209 1.343 . S
C206 C199 1.422 . S
C206 N205 1.359 1_655 S
C206 C208 1.421 . S
C207 C208 1.422 1_455 S
C207 C210 1.321 . S
C207 H234 0.931 . S
C208 C206 1.421 . S
C208 C207 1.422 1_655 S
C208 C232 1.417 . S
C209 H186 0.931 . S
C209 N205 1.343 . S
C209 C210 1.390 . S
C210 H188 0.930 . S
C210 C207 1.321 . S
C210 C209 1.390 . S
O211 Gd179 2.386 1_455 S
O211 C223 1.265 . S
O212 Gd178 2.353 . S
O212 C223 1.242 . S
O213 Gd178 2.468 . S
O213 C231 1.263 . S
O214 Gd178 2.427 . S
O214 C231 1.252 . S
O215 Gd179 2.307 . S
O215 C224 1.261 . S
O216 Gd178 2.388 1_655 S
O216 C224 1.252 . S
O217 Gd178 2.386 1_655 S
O217 C235 1.265 . S
O218 Gd179 2.353 . S
O218 C235 1.242 . S
O219 Gd179 2.468 . S
O219 C243 1.263 . S
O220 Gd179 2.427 . S
O220 C243 1.252 . S
O221 Gd178 2.307 . S
O221 C236 1.261 . S
O222 Gd179 2.388 1_455 S
O222 C236 1.252 . S
C223 O211 1.265 . S
C223 O212 1.242 . S
C224 O215 1.261 . S
C224 O216 1.252 . S
C225 C228 1.394 . S
C225 C230 1.370 . S
C225 C231 1.500 . S
C226 C229 1.383 . S
C226 C230 1.395 . S
C227 C228 1.396 . S
C227 C229 1.365 . S
C227 H244 0.929 . S
C228 C225 1.394 . S
C228 C227 1.396 . S
C228 H245 0.930 . S
C229 C226 1.383 . S
C229 C227 1.365 . S
C229 H246 0.931 . S
C230 C225 1.370 . S
C230 C226 1.395 . S
C230 H247 0.930 . S
C231 Gd178 2.805 . S
C231 O213 1.263 . S
C231 O214 1.252 . S
C231 C225 1.500 . S
C232 H194 0.930 . S
C232 C208 1.417 . S
C232 C233 1.329 . S
C233 C203 1.437 . S
C233 H204 0.929 . S
C233 C232 1.329 . S
H234 C207 0.931 . S
C235 O217 1.265 . S
C235 O218 1.242 . S
C236 O221 1.261 . S
C236 O222 1.252 . S
C237 C240 1.394 . S
C237 C242 1.370 . S
C237 C243 1.500 . S
C238 C241 1.383 . S
C238 C242 1.395 . S
C239 C240 1.396 . S
C239 C241 1.365 . S
C239 H248 0.929 . S
C240 C237 1.394 . S
C240 C239 1.396 . S
C240 H249 0.930 . S
C241 C238 1.383 . S
C241 C239 1.365 . S
C241 H250 0.931 . S
C242 C237 1.370 . S
C242 C238 1.395 . S
C242 H251 0.930 . S
C243 Gd179 2.805 . S
C243 O219 1.263 . S
C243 O220 1.252 . S
C243 C237 1.500 . S
H244 C227 0.929 . S
H245 C228 0.930 . S
H246 C229 0.931 . S
H247 C230 0.930 . S
H248 C239 0.929 . S
H249 C240 0.930 . S
H250 C241 0.931 . S
H251 C242 0.930 . S
C252 C254 1.422 . S
C252 C256 1.415 . S
C252 N258 1.369 . S
C253 C254 1.421 . S
C253 C255 1.417 . S
C253 C265 1.422 1_545 S
C254 C252 1.422 . S
C254 C253 1.421 . S
C254 N264 1.359 1_545 S
C255 C253 1.417 . S
C255 C257 1.329 . S
C255 H274 0.930 . S
C256 C252 1.415 . S
C256 C257 1.437 . S
C256 C260 1.413 . S
C257 C255 1.329 . S
C257 C256 1.437 . S
C257 H279 0.929 . S
N258 C252 1.369 . S
N258 C259 1.338 . S
N258 Gd263 2.622 1_545 S
C259 N258 1.338 . S
C259 C261 1.378 . S
C259 H271 0.929 . S
C260 C256 1.413 . S
C260 C261 1.348 . S
C260 H276 0.931 . S
C261 C259 1.378 . S
C261 C260 1.348 . S
C261 H277 0.930 . S
Gd262 N282 2.622 1_545 S
Gd262 N289 2.570 . S
Gd262 O296 2.353 . S
Gd262 O297 2.468 . S
Gd262 O298 2.427 . S
Gd262 O300 2.388 1_545 S
Gd262 O301 2.386 1_545 S
Gd262 O305 2.307 . S
Gd262 C315 2.805 . S
Gd263 N258 2.622 1_565 S
Gd263 N264 2.570 . S
Gd263 O295 2.386 1_565 S
Gd263 O299 2.307 . S
Gd263 O302 2.353 . S
Gd263 O303 2.468 . S
Gd263 O304 2.427 . S
Gd263 O306 2.388 1_565 S
Gd263 C327 2.805 . S
N264 C254 1.359 1_565 S
N264 Gd263 2.570 . S
N264 C266 1.343 . S
C265 C253 1.422 1_565 S
C265 C267 1.321 . S
C265 H273 0.931 . S
C266 N264 1.343 . S
C266 C267 1.390 . S
C266 H268 0.931 . S
C267 C265 1.321 . S
C267 C266 1.390 . S
C267 H269 0.930 . S
H268 C266 0.931 . S
H269 C267 0.930 . S
H270 C293 0.931 . S
H271 C259 0.929 . S
H272 C294 0.930 . S
H273 C265 0.931 . S
H274 C255 0.930 . S
H275 C284 0.929 . S
H276 C260 0.931 . S
H277 C261 0.930 . S
H278 C316 0.930 . S
H279 C257 0.929 . S
H280 C285 0.931 . S
H281 C286 0.930 . S
N282 Gd262 2.622 1_565 S
N282 C283 1.369 . S
N282 C284 1.338 . S
C283 N282 1.369 . S
C283 C287 1.415 . S
C283 C290 1.422 . S
C284 H275 0.929 . S
C284 N282 1.338 . S
C284 C286 1.378 . S
C285 H280 0.931 . S
C285 C286 1.348 . S
C285 C287 1.413 . S
C286 H281 0.930 . S
C286 C284 1.378 . S
C286 C285 1.348 . S
C287 C283 1.415 . S
C287 C285 1.413 . S
C287 C317 1.437 . S
H288 C317 0.929 . S
N289 Gd262 2.570 . S
N289 C290 1.359 1_545 S
N289 C293 1.343 . S
C290 C283 1.422 . S
C290 N289 1.359 1_565 S
C290 C292 1.421 . S
C291 C292 1.422 1_545 S
C291 C294 1.321 . S
C291 H318 0.931 . S
C292 C290 1.421 . S
C292 C291 1.422 1_565 S
C292 C316 1.417 . S
C293 H270 0.931 . S
C293 N289 1.343 . S
C293 C294 1.390 . S
C294 H272 0.930 . S
C294 C291 1.321 . S
C294 C293 1.390 . S
O295 Gd263 2.386 1_545 S
O295 C307 1.265 . S
O296 Gd262 2.353 . S
O296 C307 1.242 . S
O297 Gd262 2.468 . S
O297 C315 1.263 . S
O298 Gd262 2.427 . S
O298 C315 1.252 . S
O299 Gd263 2.307 . S
O299 C308 1.261 . S
O300 Gd262 2.388 1_565 S
O300 C308 1.252 . S
O301 Gd262 2.386 1_565 S
O301 C319 1.265 . S
O302 Gd263 2.353 . S
O302 C319 1.242 . S
O303 Gd263 2.468 . S
O303 C327 1.263 . S
O304 Gd263 2.427 . S
O304 C327 1.252 . S
O305 Gd262 2.307 . S
O305 C320 1.261 . S
O306 Gd263 2.388 1_545 S
O306 C320 1.252 . S
C307 O295 1.265 . S
C307 O296 1.242 . S
C308 O299 1.261 . S
C308 O300 1.252 . S
C309 C312 1.394 . S
C309 C314 1.370 . S
C309 C315 1.500 . S
C310 C313 1.383 . S
C310 C314 1.395 . S
C311 C312 1.396 . S
C311 C313 1.365 . S
C311 H328 0.929 . S
C312 C309 1.394 . S
C312 C311 1.396 . S
C312 H329 0.930 . S
C313 C310 1.383 . S
C313 C311 1.365 . S
C313 H330 0.931 . S
C314 C309 1.370 . S
C314 C310 1.395 . S
C314 H331 0.930 . S
C315 Gd262 2.805 . S
C315 O297 1.263 . S
C315 O298 1.252 . S
C315 C309 1.500 . S
C316 H278 0.930 . S
C316 C292 1.417 . S
C316 C317 1.329 . S
C317 C287 1.437 . S
C317 H288 0.929 . S
C317 C316 1.329 . S
H318 C291 0.931 . S
C319 O301 1.265 . S
C319 O302 1.242 . S
C320 O305 1.261 . S
C320 O306 1.252 . S
C321 C324 1.394 . S
C321 C326 1.370 . S
C321 C327 1.500 . S
C322 C325 1.383 . S
C322 C326 1.395 . S
C323 C324 1.396 . S
C323 C325 1.365 . S
C323 H332 0.929 . S
C324 C321 1.394 . S
C324 C323 1.396 . S
C324 H333 0.930 . S
C325 C322 1.383 . S
C325 C323 1.365 . S
C325 H334 0.931 . S
C326 C321 1.370 . S
C326 C322 1.395 . S
C326 H335 0.930 . S
C327 Gd263 2.805 . S
C327 O303 1.263 . S
C327 O304 1.252 . S
C327 C321 1.500 . S
H328 C311 0.929 . S
H329 C312 0.930 . S
H330 C313 0.931 . S
H331 C314 0.930 . S
H332 C323 0.929 . S
H333 C324 0.930 . S
H334 C325 0.931 . S
H335 C326 0.930 . S
C336 C338 1.422 . S
C336 C340 1.415 . S
C336 N342 1.369 . S
C337 C338 1.421 . S
C337 C339 1.417 . S
C337 C349 1.422 . S
C338 C336 1.422 . S
C338 C337 1.421 . S
C338 N348 1.359 . S
C339 C337 1.417 . S
C339 C341 1.329 . S
C339 H358 0.930 . S
C340 C336 1.415 . S
C340 C341 1.437 . S
C340 C344 1.413 . S
C341 C339 1.329 . S
C341 C340 1.437 . S
C341 H363 0.929 . S
N342 C336 1.369 . S
N342 C343 1.338 . S
N342 Gd347 2.622 . S
C343 N342 1.338 . S
C343 C345 1.378 . S
C343 H355 0.929 . S
C344 C340 1.413 . S
C344 C345 1.348 . S
C344 H360 0.931 . S
C345 C343 1.378 . S
C345 C344 1.348 . S
C345 H361 0.930 . S
Gd346 N366 2.622 . S
Gd346 N373 2.570 . S
Gd346 O380 2.353 . S
Gd346 O381 2.468 . S
Gd346 O382 2.427 1_554 S
Gd346 O384 2.388 . S
Gd346 O385 2.386 . S
Gd346 O389 2.307 . S
Gd346 C399 2.805 1_554 S
Gd347 N342 2.622 . S
Gd347 N348 2.570 . S
Gd347 O379 2.386 . S
Gd347 O383 2.307 . S
Gd347 O386 2.353 . S
Gd347 O387 2.468 . S
Gd347 O388 2.427 . S
Gd347 O390 2.388 . S
Gd347 C411 2.805 . S
N348 C338 1.359 . S
N348 Gd347 2.570 . S
N348 C350 1.343 . S
C349 C337 1.422 . S
C349 C351 1.321 . S
C349 H357 0.931 . S
C350 N348 1.343 . S
C350 C351 1.390 . S
C350 H352 0.931 . S
C351 C349 1.321 . S
C351 C350 1.390 . S
C351 H353 0.930 . S
H352 C350 0.931 . S
H353 C351 0.930 . S
H354 C377 0.931 . S
H355 C343 0.929 . S
H356 C378 0.930 . S
H357 C349 0.931 . S
H358 C339 0.930 . S
H359 C368 0.949 . S
H360 C344 0.931 . S
H361 C345 0.930 . S
H362 C400 0.930 . S
H363 C341 0.929 . S
H364 C369 0.928 1_556 S
H365 C370 0.930 . S
N366 Gd346 2.622 . S
N366 C367 1.369 . S
N366 C368 1.308 1_554 S
C367 N366 1.369 . S
C367 C371 1.415 . S
C367 C374 1.422 . S
C368 H359 0.949 . S
C368 N366 1.308 1_556 S
C368 C370 1.390 . S
C369 H364 0.928 1_554 S
C369 C370 1.348 1_554 S
C369 C371 1.413 . S
C370 H365 0.930 . S
C370 C368 1.390 . S
C370 C369 1.348 1_556 S
C371 C367 1.415 . S
C371 C369 1.413 . S
C371 C401 1.437 . S
H372 C401 0.929 . S
N373 Gd346 2.570 . S
N373 C374 1.359 . S
N373 C377 1.343 . S
C374 C367 1.422 . S
C374 N373 1.359 . S
C374 C376 1.421 . S
C375 C376 1.422 . S
C375 C378 1.321 . S
C375 H402 0.931 . S
C376 C374 1.421 . S
C376 C375 1.422 . S
C376 C400 1.417 . S
C377 H354 0.931 . S
C377 N373 1.343 . S
C377 C378 1.390 . S
C378 H356 0.930 . S
C378 C375 1.321 . S
C378 C377 1.390 . S
O379 Gd347 2.386 . S
O379 C391 1.265 . S
O380 Gd346 2.353 . S
O380 C391 1.242 . S
O381 Gd346 2.468 . S
O381 C399 1.263 1_554 S
O382 Gd346 2.427 1_556 S
O382 C399 1.252 . S
O383 Gd347 2.307 . S
O383 C392 1.261 . S
O384 Gd346 2.388 . S
O384 C392 1.252 . S
O385 Gd346 2.386 . S
O385 C403 1.265 . S
O386 Gd347 2.353 . S
O386 C403 1.242 . S
O387 Gd347 2.468 . S
O387 C411 1.263 . S
O388 Gd347 2.427 . S
O388 C411 1.252 . S
O389 Gd346 2.307 . S
O389 C404 1.261 . S
O390 Gd347 2.388 . S
O390 C404 1.252 . S
C391 O379 1.265 . S
C391 O380 1.242 . S
C392 O383 1.261 . S
C392 O384 1.252 . S
C393 C396 1.394 . S
C393 C398 1.370 . S
C393 C399 1.500 . S
C394 C397 1.383 . S
C394 C398 1.395 . S
C395 C396 1.396 . S
C395 C397 1.365 . S
C395 H412 0.929 . S
C396 C393 1.394 . S
C396 C395 1.396 . S
C396 H413 0.930 . S
C397 C394 1.383 . S
C397 C395 1.365 . S
C397 H414 0.931 . S
C398 C393 1.370 . S
C398 C394 1.395 . S
C398 H415 0.937 1_556 S
C399 Gd346 2.805 1_556 S
C399 O381 1.263 1_556 S
C399 O382 1.252 . S
C399 C393 1.500 . S
C400 H362 0.930 . S
C400 C376 1.417 . S
C400 C401 1.329 . S
C401 C371 1.437 . S
C401 H372 0.929 . S
C401 C400 1.329 . S
H402 C375 0.931 . S
C403 O385 1.265 . S
C403 O386 1.242 . S
C404 O389 1.261 . S
C404 O390 1.252 . S
C405 C408 1.394 . S
C405 C410 1.370 . S
C405 C411 1.500 . S
C406 C409 1.383 . S
C406 C410 1.395 . S
C407 C408 1.396 . S
C407 C409 1.365 . S
C407 H416 0.929 . S
C408 C405 1.394 . S
C408 C407 1.396 . S
C408 H417 0.930 . S
C409 C406 1.383 . S
C409 C407 1.365 . S
C409 H418 0.931 . S
C410 C405 1.370 . S
C410 C406 1.395 . S
C410 H419 0.930 . S
C411 Gd347 2.805 . S
C411 O387 1.263 . S
C411 O388 1.252 . S
C411 C405 1.500 . S
H412 C395 0.929 . S
H413 C396 0.930 . S
H414 C397 0.931 . S
H415 C398 0.937 1_554 S
H416 C407 0.929 . S
H417 C408 0.930 . S
H418 C409 0.931 . S
H419 C410 0.930 . S
C420 C422 1.422 . S
C420 C424 1.415 . S
C420 N426 1.369 . S
C421 C422 1.421 . S
C421 C423 1.417 . S
C421 C433 1.422 1_655 S
C422 C420 1.422 . S
C422 C421 1.421 . S
C422 N432 1.359 1_655 S
C423 C421 1.417 . S
C423 C425 1.329 . S
C423 H442 0.930 . S
C424 C420 1.415 . S
C424 C425 1.437 . S
C424 C428 1.413 . S
C425 C423 1.329 . S
C425 C424 1.437 . S
C425 H447 0.929 . S
N426 C420 1.369 . S
N426 C427 1.338 . S
N426 Gd431 2.622 1_655 S
C427 N426 1.338 . S
C427 C429 1.378 . S
C427 H439 0.929 . S
C428 C424 1.413 . S
C428 C429 1.348 . S
C428 H444 0.931 . S
C429 C427 1.378 . S
C429 C428 1.348 . S
C429 H445 0.930 . S
Gd430 N450 2.622 1_655 S
Gd430 N457 2.570 . S
Gd430 O464 2.353 . S
Gd430 O465 2.468 . S
Gd430 O466 2.427 . S
Gd430 O468 2.388 1_655 S
Gd430 O469 2.386 1_655 S
Gd430 O473 2.307 . S
Gd430 C483 2.805 . S
Gd431 N426 2.622 1_455 S
Gd431 N432 2.570 . S
Gd431 O463 2.386 1_455 S
Gd431 O467 2.307 . S
Gd431 O470 2.353 . S
Gd431 O471 2.468 . S
Gd431 O472 2.427 . S
Gd431 O474 2.388 1_455 S
Gd431 C495 2.805 . S
N432 C422 1.359 1_455 S
N432 Gd431 2.570 . S
N432 C434 1.343 . S
C433 C421 1.422 1_455 S
C433 C435 1.321 . S
C433 H441 0.931 . S
C434 N432 1.343 . S
C434 C435 1.390 . S
C434 H436 0.931 . S
C435 C433 1.321 . S
C435 C434 1.390 . S
C435 H437 0.930 . S
H436 C434 0.931 . S
H437 C435 0.930 . S
H438 C461 0.931 . S
H439 C427 0.929 . S
H440 C462 0.930 . S
H441 C433 0.931 . S
H442 C423 0.930 . S
H443 C452 0.929 . S
H444 C428 0.931 . S
H445 C429 0.930 . S
H446 C484 0.930 . S
H447 C425 0.929 . S
H448 C453 0.931 . S
H449 C454 0.930 . S
N450 Gd430 2.622 1_455 S
N450 C451 1.369 . S
N450 C452 1.338 . S
C451 N450 1.369 . S
C451 C455 1.415 . S
C451 C458 1.422 . S
C452 H443 0.929 . S
C452 N450 1.338 . S
C452 C454 1.378 . S
C453 H448 0.931 . S
C453 C454 1.348 . S
C453 C455 1.413 . S
C454 H449 0.930 . S
C454 C452 1.378 . S
C454 C453 1.348 . S
C455 C451 1.415 . S
C455 C453 1.413 . S
C455 C485 1.437 . S
H456 C485 0.929 . S
N457 Gd430 2.570 . S
N457 C458 1.359 1_655 S
N457 C461 1.343 . S
C458 C451 1.422 . S
C458 N457 1.359 1_455 S
C458 C460 1.421 . S
C459 C460 1.422 1_655 S
C459 C462 1.321 . S
C459 H486 0.931 . S
C460 C458 1.421 . S
C460 C459 1.422 1_455 S
C460 C484 1.417 . S
C461 H438 0.931 . S
C461 N457 1.343 . S
C461 C462 1.390 . S
C462 H440 0.930 . S
C462 C459 1.321 . S
C462 C461 1.390 . S
O463 Gd431 2.386 1_655 S
O463 C475 1.265 . S
O464 Gd430 2.353 . S
O464 C475 1.242 . S
O465 Gd430 2.468 . S
O465 C483 1.263 . S
O466 Gd430 2.427 . S
O466 C483 1.252 . S
O467 Gd431 2.307 . S
O467 C476 1.261 . S
O468 Gd430 2.388 1_455 S
O468 C476 1.252 . S
O469 Gd430 2.386 1_455 S
O469 C487 1.265 . S
O470 Gd431 2.353 . S
O470 C487 1.242 . S
O471 Gd431 2.468 . S
O471 C495 1.263 . S
O472 Gd431 2.427 . S
O472 C495 1.252 . S
O473 Gd430 2.307 . S
O473 C488 1.261 . S
O474 Gd431 2.388 1_655 S
O474 C488 1.252 . S
C475 O463 1.265 . S
C475 O464 1.242 . S
C476 O467 1.261 . S
C476 O468 1.252 . S
C477 C480 1.394 . S
C477 C482 1.370 . S
C477 C483 1.500 . S
C478 C481 1.383 . S
C478 C482 1.395 . S
C479 C480 1.396 . S
C479 C481 1.365 . S
C479 H496 0.929 . S
C480 C477 1.394 . S
C480 C479 1.396 . S
C480 H497 0.930 . S
C481 C478 1.383 . S
C481 C479 1.365 . S
C481 H498 0.931 . S
C482 C477 1.370 . S
C482 C478 1.395 . S
C482 H499 0.930 . S
C483 Gd430 2.805 . S
C483 O465 1.263 . S
C483 O466 1.252 . S
C483 C477 1.500 . S
C484 H446 0.930 . S
C484 C460 1.417 . S
C484 C485 1.329 . S
C485 C455 1.437 . S
C485 H456 0.929 . S
C485 C484 1.329 . S
H486 C459 0.931 . S
C487 O469 1.265 . S
C487 O470 1.242 . S
C488 O473 1.261 . S
C488 O474 1.252 . S
C489 C492 1.394 . S
C489 C494 1.370 . S
C489 C495 1.500 . S
C490 C493 1.383 . S
C490 C494 1.395 . S
C491 C492 1.396 . S
C491 C493 1.365 . S
C491 H500 0.929 . S
C492 C489 1.394 . S
C492 C491 1.396 . S
C492 H501 0.930 . S
C493 C490 1.383 . S
C493 C491 1.365 . S
C493 H502 0.931 . S
C494 C489 1.370 . S
C494 C490 1.395 . S
C494 H503 0.930 . S
C495 Gd431 2.805 . S
C495 O471 1.263 . S
C495 O472 1.252 . S
C495 C489 1.500 . S
H496 C479 0.929 . S
H497 C480 0.930 . S
H498 C481 0.931 . S
H499 C482 0.930 . S
H500 C491 0.929 . S
H501 C492 0.930 . S
H502 C493 0.931 . S
H503 C494 0.930 . S
C504 C506 1.422 . S
C504 C508 1.415 . S
C504 N510 1.369 . S
C505 C506 1.421 . S
C505 C507 1.417 . S
C505 C517 1.422 1_455 S
C506 C504 1.422 . S
C506 C505 1.421 . S
C506 N516 1.359 1_455 S
C507 C505 1.417 . S
C507 C509 1.329 . S
C507 H526 0.930 . S
C508 C504 1.415 . S
C508 C509 1.437 . S
C508 C512 1.413 . S
C509 C507 1.329 . S
C509 C508 1.437 . S
C509 H531 0.929 . S
N510 C504 1.369 . S
N510 C511 1.338 . S
N510 Gd515 2.622 1_455 S
C511 N510 1.338 . S
C511 C513 1.378 . S
C511 H523 0.929 . S
C512 C508 1.413 . S
C512 C513 1.348 . S
C512 H528 0.931 . S
C513 C511 1.378 . S
C513 C512 1.348 . S
C513 H529 0.930 . S
Gd514 N534 2.622 1_455 S
Gd514 N541 2.570 . S
Gd514 O548 2.353 . S
Gd514 O549 2.468 . S
Gd514 O550 2.427 . S
Gd514 O552 2.388 1_455 S
Gd514 O553 2.386 1_455 S
Gd514 O557 2.307 . S
Gd514 C567 2.805 . S
Gd515 N510 2.622 1_655 S
Gd515 N516 2.570 . S
Gd515 O547 2.386 1_655 S
Gd515 O551 2.307 . S
Gd515 O554 2.353 . S
Gd515 O555 2.468 . S
Gd515 O556 2.427 . S
Gd515 O558 2.388 1_655 S
Gd515 C579 2.805 . S
N516 C506 1.359 1_655 S
N516 Gd515 2.570 . S
N516 C518 1.343 . S
C517 C505 1.422 1_655 S
C517 C519 1.321 . S
C517 H525 0.931 . S
C518 N516 1.343 . S
C518 C519 1.390 . S
C518 H520 0.931 . S
C519 C517 1.321 . S
C519 C518 1.390 . S
C519 H521 0.930 . S
H520 C518 0.931 . S
H521 C519 0.930 . S
H522 C545 0.931 . S
H523 C511 0.929 . S
H524 C546 0.930 . S
H525 C517 0.931 . S
H526 C507 0.930 . S
H527 C536 0.929 . S
H528 C512 0.931 . S
H529 C513 0.930 . S
H530 C568 0.930 . S
H531 C509 0.929 . S
H532 C537 0.931 . S
H533 C538 0.930 . S
N534 Gd514 2.622 1_655 S
N534 C535 1.369 . S
N534 C536 1.338 . S
C535 N534 1.369 . S
C535 C539 1.415 . S
C535 C542 1.422 . S
C536 H527 0.929 . S
C536 N534 1.338 . S
C536 C538 1.378 . S
C537 H532 0.931 . S
C537 C538 1.348 . S
C537 C539 1.413 . S
C538 H533 0.930 . S
C538 C536 1.378 . S
C538 C537 1.348 . S
C539 C535 1.415 . S
C539 C537 1.413 . S
C539 C569 1.437 . S
H540 C569 0.929 . S
N541 Gd514 2.570 . S
N541 C542 1.359 1_455 S
N541 C545 1.343 . S
C542 C535 1.422 . S
C542 N541 1.359 1_655 S
C542 C544 1.421 . S
C543 C544 1.422 1_455 S
C543 C546 1.321 . S
C543 H570 0.931 . S
C544 C542 1.421 . S
C544 C543 1.422 1_655 S
C544 C568 1.417 . S
C545 H522 0.931 . S
C545 N541 1.343 . S
C545 C546 1.390 . S
C546 H524 0.930 . S
C546 C543 1.321 . S
C546 C545 1.390 . S
O547 Gd515 2.386 1_455 S
O547 C559 1.265 . S
O548 Gd514 2.353 . S
O548 C559 1.242 . S
O549 Gd514 2.468 . S
O549 C567 1.263 . S
O550 Gd514 2.427 . S
O550 C567 1.252 . S
O551 Gd515 2.307 . S
O551 C560 1.261 . S
O552 Gd514 2.388 1_655 S
O552 C560 1.252 . S
O553 Gd514 2.386 1_655 S
O553 C571 1.265 . S
O554 Gd515 2.353 . S
O554 C571 1.242 . S
O555 Gd515 2.468 . S
O555 C579 1.263 . S
O556 Gd515 2.427 . S
O556 C579 1.252 . S
O557 Gd514 2.307 . S
O557 C572 1.261 . S
O558 Gd515 2.388 1_455 S
O558 C572 1.252 . S
C559 O547 1.265 . S
C559 O548 1.242 . S
C560 O551 1.261 . S
C560 O552 1.252 . S
C561 C564 1.394 . S
C561 C566 1.370 . S
C561 C567 1.500 . S
C562 C565 1.383 . S
C562 C566 1.395 . S
C563 C564 1.396 . S
C563 C565 1.365 . S
C563 H580 0.929 . S
C564 C561 1.394 . S
C564 C563 1.396 . S
C564 H581 0.930 . S
C565 C562 1.383 . S
C565 C563 1.365 . S
C565 H582 0.931 . S
C566 C561 1.370 . S
C566 C562 1.395 . S
C566 H583 0.930 . S
C567 Gd514 2.805 . S
C567 O549 1.263 . S
C567 O550 1.252 . S
C567 C561 1.500 . S
C568 H530 0.930 . S
C568 C544 1.417 . S
C568 C569 1.329 . S
C569 C539 1.437 . S
C569 H540 0.929 . S
C569 C568 1.329 . S
H570 C543 0.931 . S
C571 O553 1.265 . S
C571 O554 1.242 . S
C572 O557 1.261 . S
C572 O558 1.252 . S
C573 C576 1.394 . S
C573 C578 1.370 . S
C573 C579 1.500 . S
C574 C577 1.383 . S
C574 C578 1.395 . S
C575 C576 1.396 . S
C575 C577 1.365 . S
C575 H584 0.929 . S
C576 C573 1.394 . S
C576 C575 1.396 . S
C576 H585 0.930 . S
C577 C574 1.383 . S
C577 C575 1.365 . S
C577 H586 0.931 . S
C578 C573 1.370 . S
C578 C574 1.395 . S
C578 H587 0.930 . S
C579 Gd515 2.805 . S
C579 O555 1.263 . S
C579 O556 1.252 . S
C579 C573 1.500 . S
H580 C563 0.929 . S
H581 C564 0.930 . S
H582 C565 0.931 . S
H583 C566 0.930 . S
H584 C575 0.929 . S
H585 C576 0.930 . S
H586 C577 0.931 . S
H587 C578 0.930 . S
C588 C590 1.422 . S
C588 C592 1.415 . S
C588 N594 1.369 . S
C589 C590 1.421 . S
C589 C591 1.417 . S
C589 C601 1.422 1_545 S
C590 C588 1.422 . S
C590 C589 1.421 . S
C590 N600 1.359 1_545 S
C591 C589 1.417 . S
C591 C593 1.329 . S
C591 H610 0.930 . S
C592 C588 1.415 . S
C592 C593 1.437 . S
C592 C596 1.413 . S
C593 C591 1.329 . S
C593 C592 1.437 . S
C593 H615 0.929 . S
N594 C588 1.369 . S
N594 C595 1.338 . S
N594 Gd599 2.622 1_545 S
C595 N594 1.338 . S
C595 C597 1.378 . S
C595 H607 0.929 . S
C596 C592 1.413 . S
C596 C597 1.348 . S
C596 H612 0.931 . S
C597 C595 1.378 . S
C597 C596 1.348 . S
C597 H613 0.930 . S
Gd598 N618 2.622 1_545 S
Gd598 N625 2.570 . S
Gd598 O632 2.353 . S
Gd598 O633 2.468 . S
Gd598 O634 2.427 . S
Gd598 O636 2.388 1_545 S
Gd598 O637 2.386 1_545 S
Gd598 O641 2.307 . S
Gd598 C651 2.805 . S
Gd599 N594 2.622 1_565 S
Gd599 N600 2.570 . S
Gd599 O631 2.386 1_565 S
Gd599 O635 2.307 . S
Gd599 O638 2.353 . S
Gd599 O639 2.468 . S
Gd599 O640 2.427 . S
Gd599 O642 2.388 1_565 S
Gd599 C663 2.805 . S
N600 C590 1.359 1_565 S
N600 Gd599 2.570 . S
N600 C602 1.343 . S
C601 C589 1.422 1_565 S
C601 C603 1.321 . S
C601 H609 0.931 . S
C602 N600 1.343 . S
C602 C603 1.390 . S
C602 H604 0.931 . S
C603 C601 1.321 . S
C603 C602 1.390 . S
C603 H605 0.930 . S
H604 C602 0.931 . S
H605 C603 0.930 . S
H606 C629 0.931 . S
H607 C595 0.929 . S
H608 C630 0.930 . S
H609 C601 0.931 . S
H610 C591 0.930 . S
H611 C620 0.929 . S
H612 C596 0.931 . S
H613 C597 0.930 . S
H614 C652 0.930 . S
H615 C593 0.929 . S
H616 C621 0.931 . S
H617 C622 0.930 . S
N618 Gd598 2.622 1_565 S
N618 C619 1.369 . S
N618 C620 1.338 . S
C619 N618 1.369 . S
C619 C623 1.415 . S
C619 C626 1.422 . S
C620 H611 0.929 . S
C620 N618 1.338 . S
C620 C622 1.378 . S
C621 H616 0.931 . S
C621 C622 1.348 . S
C621 C623 1.413 . S
C622 H617 0.930 . S
C622 C620 1.378 . S
C622 C621 1.348 . S
C623 C619 1.415 . S
C623 C621 1.413 . S
C623 C653 1.437 . S
H624 C653 0.929 . S
N625 Gd598 2.570 . S
N625 C626 1.359 1_545 S
N625 C629 1.343 . S
C626 C619 1.422 . S
C626 N625 1.359 1_565 S
C626 C628 1.421 . S
C627 C628 1.422 1_545 S
C627 C630 1.321 . S
C627 H654 0.931 . S
C628 C626 1.421 . S
C628 C627 1.422 1_565 S
C628 C652 1.417 . S
C629 H606 0.931 . S
C629 N625 1.343 . S
C629 C630 1.390 . S
C630 H608 0.930 . S
C630 C627 1.321 . S
C630 C629 1.390 . S
O631 Gd599 2.386 1_545 S
O631 C643 1.265 . S
O632 Gd598 2.353 . S
O632 C643 1.242 . S
O633 Gd598 2.468 . S
O633 C651 1.263 . S
O634 Gd598 2.427 . S
O634 C651 1.252 . S
O635 Gd599 2.307 . S
O635 C644 1.261 . S
O636 Gd598 2.388 1_565 S
O636 C644 1.252 . S
O637 Gd598 2.386 1_565 S
O637 C655 1.265 . S
O638 Gd599 2.353 . S
O638 C655 1.242 . S
O639 Gd599 2.468 . S
O639 C663 1.263 . S
O640 Gd599 2.427 . S
O640 C663 1.252 . S
O641 Gd598 2.307 . S
O641 C656 1.261 . S
O642 Gd599 2.388 1_545 S
O642 C656 1.252 . S
C643 O631 1.265 . S
C643 O632 1.242 . S
C644 O635 1.261 . S
C644 O636 1.252 . S
C645 C648 1.394 . S
C645 C650 1.370 . S
C645 C651 1.500 . S
C646 C649 1.383 . S
C646 C650 1.395 . S
C647 C648 1.396 . S
C647 C649 1.365 . S
C647 H664 0.929 . S
C648 C645 1.394 . S
C648 C647 1.396 . S
C648 H665 0.930 . S
C649 C646 1.383 . S
C649 C647 1.365 . S
C649 H666 0.931 . S
C650 C645 1.370 . S
C650 C646 1.395 . S
C650 H667 0.930 . S
C651 Gd598 2.805 . S
C651 O633 1.263 . S
C651 O634 1.252 . S
C651 C645 1.500 . S
C652 H614 0.930 . S
C652 C628 1.417 . S
C652 C653 1.329 . S
C653 C623 1.437 . S
C653 H624 0.929 . S
C653 C652 1.329 . S
H654 C627 0.931 . S
C655 O637 1.265 . S
C655 O638 1.242 . S
C656 O641 1.261 . S
C656 O642 1.252 . S
C657 C660 1.394 . S
C657 C662 1.370 . S
C657 C663 1.500 . S
C658 C661 1.383 . S
C658 C662 1.395 . S
C659 C660 1.396 . S
C659 C661 1.365 . S
C659 H668 0.929 . S
C660 C657 1.394 . S
C660 C659 1.396 . S
C660 H669 0.930 . S
C661 C658 1.383 . S
C661 C659 1.365 . S
C661 H670 0.931 . S
C662 C657 1.370 . S
C662 C658 1.395 . S
C662 H671 0.930 . S
C663 Gd599 2.805 . S
C663 O639 1.263 . S
C663 O640 1.252 . S
C663 C657 1.500 . S
H664 C647 0.929 . S
H665 C648 0.930 . S
H666 C649 0.931 . S
H667 C650 0.930 . S
H668 C659 0.929 . S
H669 C660 0.930 . S
H670 C661 0.931 . S
H671 C662 0.930 . S
C672 C674 1.422 . S
C672 C676 1.415 . S
C672 N678 1.369 . S
C673 C674 1.421 . S
C673 C675 1.417 . S
C673 C685 1.422 . S
C674 C672 1.422 . S
C674 C673 1.421 . S
C674 N684 1.359 . S
C675 C673 1.417 . S
C675 C677 1.329 . S
C675 H694 0.930 . S
C676 C672 1.415 . S
C676 C677 1.437 . S
C676 C680 1.413 . S
C677 C675 1.329 . S
C677 C676 1.437 . S
C677 H699 0.929 . S
N678 C672 1.369 . S
N678 C679 1.338 . S
N678 Gd683 2.622 . S
C679 N678 1.338 . S
C679 C681 1.378 . S
C679 H691 0.929 . S
C680 C676 1.413 . S
C680 C681 1.348 . S
C680 H696 0.931 . S
C681 C679 1.378 . S
C681 C680 1.348 . S
C681 H697 0.930 . S
Gd682 N702 2.622 . S
Gd682 N709 2.570 . S
Gd682 O716 2.353 . S
Gd682 O717 2.468 . S
Gd682 O718 2.427 . S
Gd682 O720 2.388 . S
Gd682 O721 2.386 . S
Gd682 O725 2.307 . S
Gd682 C735 2.805 . S
Gd683 N678 2.622 . S
Gd683 N684 2.570 . S
Gd683 O715 2.386 . S
Gd683 O719 2.307 . S
Gd683 O722 2.353 . S
Gd683 O723 2.468 . S
Gd683 O724 2.427 . S
Gd683 O726 2.388 . S
Gd683 C747 2.805 . S
N684 C674 1.359 . S
N684 Gd683 2.570 . S
N684 C686 1.343 . S
C685 C673 1.422 . S
C685 C687 1.321 . S
C685 H693 0.931 . S
C686 N684 1.343 . S
C686 C687 1.390 . S
C686 H688 0.931 . S
C687 C685 1.321 . S
C687 C686 1.390 . S
C687 H689 0.930 . S
H688 C686 0.931 . S
H689 C687 0.930 . S
H690 C713 0.931 . S
H691 C679 0.929 . S
H692 C714 0.930 . S
H693 C685 0.931 . S
H694 C675 0.930 . S
H695 C704 0.929 . S
H696 C680 0.931 . S
H697 C681 0.930 . S
H698 C736 0.930 . S
H699 C677 0.929 . S
H700 C705 0.931 . S
H701 C706 0.930 . S
N702 Gd682 2.622 . S
N702 C703 1.369 . S
N702 C704 1.338 . S
C703 N702 1.369 . S
C703 C707 1.415 . S
C703 C710 1.422 . S
C704 H695 0.929 . S
C704 N702 1.338 . S
C704 C706 1.378 . S
C705 H700 0.931 . S
C705 C706 1.348 . S
C705 C707 1.413 . S
C706 H701 0.930 . S
C706 C704 1.378 . S
C706 C705 1.348 . S
C707 C703 1.415 . S
C707 C705 1.413 . S
C707 C737 1.437 . S
H708 C737 0.929 . S
N709 Gd682 2.570 . S
N709 C710 1.359 . S
N709 C713 1.343 . S
C710 C703 1.422 . S
C710 N709 1.359 . S
C710 C712 1.421 . S
C711 C712 1.422 . S
C711 C714 1.321 . S
C711 H738 0.931 . S
C712 C710 1.421 . S
C712 C711 1.422 . S
C712 C736 1.417 . S
C713 H690 0.931 . S
C713 N709 1.343 . S
C713 C714 1.390 . S
C714 H692 0.930 . S
C714 C711 1.321 . S
C714 C713 1.390 . S
O715 Gd683 2.386 . S
O715 C727 1.265 . S
O716 Gd682 2.353 . S
O716 C727 1.242 . S
O717 Gd682 2.468 . S
O717 C735 1.263 . S
O718 Gd682 2.427 . S
O718 C735 1.252 . S
O719 Gd683 2.307 . S
O719 C728 1.261 . S
O720 Gd682 2.388 . S
O720 C728 1.252 . S
O721 Gd682 2.386 . S
O721 C739 1.265 . S
O722 Gd683 2.353 . S
O722 C739 1.242 . S
O723 Gd683 2.468 . S
O723 C747 1.263 . S
O724 Gd683 2.427 . S
O724 C747 1.252 . S
O725 Gd682 2.307 . S
O725 C740 1.261 . S
O726 Gd683 2.388 . S
O726 C740 1.252 . S
C727 O715 1.265 . S
C727 O716 1.242 . S
C728 O719 1.261 . S
C728 O720 1.252 . S
C729 C732 1.394 . S
C729 C734 1.370 . S
C729 C735 1.500 . S
C730 C733 1.383 . S
C730 C734 1.395 . S
C731 C732 1.396 . S
C731 C733 1.365 . S
C731 H748 0.929 . S
C732 C729 1.394 . S
C732 C731 1.396 . S
C732 H749 0.930 . S
C733 C730 1.383 . S
C733 C731 1.365 . S
C733 H750 0.931 . S
C734 C729 1.370 . S
C734 C730 1.395 . S
C734 H751 0.930 . S
C735 Gd682 2.805 . S
C735 O717 1.263 . S
C735 O718 1.252 . S
C735 C729 1.500 . S
C736 H698 0.930 . S
C736 C712 1.417 . S
C736 C737 1.329 . S
C737 C707 1.437 . S
C737 H708 0.929 . S
C737 C736 1.329 . S
H738 C711 0.931 . S
C739 O721 1.265 . S
C739 O722 1.242 . S
C740 O725 1.261 . S
C740 O726 1.252 . S
C741 C744 1.394 . S
C741 C746 1.370 . S
C741 C747 1.500 . S
C742 C745 1.383 . S
C742 C746 1.395 . S
C743 C744 1.396 . S
C743 C745 1.365 . S
C743 H752 0.929 . S
C744 C741 1.394 . S
C744 C743 1.396 . S
C744 H753 0.930 . S
C745 C742 1.383 . S
C745 C743 1.365 . S
C745 H754 0.931 . S
C746 C741 1.370 . S
C746 C742 1.395 . S
C746 H755 0.930 . S
C747 Gd683 2.805 . S
C747 O723 1.263 . S
C747 O724 1.252 . S
C747 C741 1.500 . S
H748 C731 0.929 . S
H749 C732 0.930 . S
H750 C733 0.931 . S
H751 C734 0.930 . S
H752 C743 0.929 . S
H753 C744 0.930 . S
H754 C745 0.931 . S
H755 C746 0.930 . S
C756 C758 1.422 . S
C756 C760 1.415 . S
C756 N762 1.369 . S
C757 C758 1.421 . S
C757 C759 1.417 . S
C757 C769 1.422 1_655 S
C758 C756 1.422 . S
C758 C757 1.421 . S
C758 N768 1.359 1_655 S
C759 C757 1.417 . S
C759 C761 1.329 . S
C759 H778 0.930 . S
C760 C756 1.415 . S
C760 C761 1.437 . S
C760 C764 1.413 . S
C761 C759 1.329 . S
C761 C760 1.437 . S
C761 H783 0.929 . S
N762 C756 1.369 . S
N762 C763 1.338 . S
N762 Gd767 2.622 1_655 S
C763 N762 1.338 . S
C763 C765 1.378 . S
C763 H775 0.929 . S
C764 C760 1.413 . S
C764 C765 1.348 . S
C764 H780 0.931 . S
C765 C763 1.378 . S
C765 C764 1.348 . S
C765 H781 0.930 . S
Gd766 N786 2.622 1_655 S
Gd766 N793 2.570 . S
Gd766 O800 2.353 . S
Gd766 O801 2.468 . S
Gd766 O802 2.427 1_556 S
Gd766 O804 2.388 1_655 S
Gd766 O805 2.386 1_655 S
Gd766 O809 2.307 . S
Gd766 C819 2.805 1_556 S
Gd767 N762 2.622 1_455 S
Gd767 N768 2.570 . S
Gd767 O799 2.386 1_455 S
Gd767 O803 2.307 . S
Gd767 O806 2.353 . S
Gd767 O807 2.468 . S
Gd767 O808 2.427 . S
Gd767 O810 2.388 1_455 S
Gd767 C831 2.805 . S
N768 C758 1.359 1_455 S
N768 Gd767 2.570 . S
N768 C770 1.343 . S
C769 C757 1.422 1_455 S
C769 C771 1.321 . S
C769 H777 0.931 . S
C770 N768 1.343 . S
C770 C771 1.390 . S
C770 H772 0.931 . S
C771 C769 1.321 . S
C771 C770 1.390 . S
C771 H773 0.930 . S
H772 C770 0.931 . S
H773 C771 0.930 . S
H774 C797 0.931 . S
H775 C763 0.929 . S
H776 C798 0.930 . S
H777 C769 0.931 . S
H778 C759 0.930 . S
H779 C788 0.929 . S
H780 C764 0.931 . S
H781 C765 0.930 . S
H782 C820 0.930 . S
H783 C761 0.929 . S
H784 C789 0.920 1_554 S
H785 C790 0.930 . S
N786 Gd766 2.622 1_455 S
N786 C787 1.369 . S
N786 C788 1.338 1_556 S
C787 N786 1.369 . S
C787 C791 1.415 . S
C787 C794 1.422 . S
C788 H779 0.929 . S
C788 N786 1.338 1_554 S
C788 C790 1.378 . S
C789 H784 0.920 1_556 S
C789 C790 1.322 1_556 S
C789 C791 1.454 . S
C790 H785 0.930 . S
C790 C788 1.378 . S
C790 C789 1.322 1_554 S
C791 C787 1.415 . S
C791 C789 1.454 . S
C791 C821 1.437 . S
H792 C821 0.929 . S
N793 Gd766 2.570 . S
N793 C794 1.359 1_655 S
N793 C797 1.343 . S
C794 C787 1.422 . S
C794 N793 1.359 1_455 S
C794 C796 1.421 . S
C795 C796 1.422 1_655 S
C795 C798 1.321 . S
C795 H822 0.931 . S
C796 C794 1.421 . S
C796 C795 1.422 1_455 S
C796 C820 1.417 . S
C797 H774 0.931 . S
C797 N793 1.343 . S
C797 C798 1.390 . S
C798 H776 0.930 . S
C798 C795 1.321 . S
C798 C797 1.390 . S
O799 Gd767 2.386 1_655 S
O799 C811 1.265 . S
O800 Gd766 2.353 . S
O800 C811 1.242 . S
O801 Gd766 2.468 . S
O801 C819 1.263 1_556 S
O802 Gd766 2.427 1_554 S
O802 C819 1.252 . S
O803 Gd767 2.307 . S
O803 C812 1.261 . S
O804 Gd766 2.388 1_455 S
O804 C812 1.252 . S
O805 Gd766 2.386 1_455 S
O805 C823 1.265 . S
O806 Gd767 2.353 . S
O806 C823 1.242 . S
O807 Gd767 2.468 . S
O807 C831 1.263 . S
O808 Gd767 2.427 . S
O808 C831 1.252 . S
O809 Gd766 2.307 . S
O809 C824 1.261 . S
O810 Gd767 2.388 1_655 S
O810 C824 1.252 . S
C811 O799 1.265 . S
C811 O800 1.242 . S
C812 O803 1.261 . S
C812 O804 1.252 . S
C813 C816 1.394 . S
C813 C818 1.370 . S
C813 C819 1.500 . S
C814 C817 1.383 . S
C814 C818 1.395 . S
C815 C816 1.396 . S
C815 C817 1.365 . S
C815 H832 0.929 . S
C816 C813 1.394 . S
C816 C815 1.396 . S
C816 H833 0.930 . S
C817 C814 1.383 . S
C817 C815 1.365 . S
C817 H834 0.931 . S
C818 C813 1.370 . S
C818 C814 1.395 . S
C818 H835 0.930 . S
C819 Gd766 2.805 1_554 S
C819 O801 1.263 1_554 S
C819 O802 1.252 . S
C819 C813 1.500 . S
C820 H782 0.930 . S
C820 C796 1.417 . S
C820 C821 1.329 . S
C821 C791 1.437 . S
C821 H792 0.929 . S
C821 C820 1.329 . S
H822 C795 0.931 . S
C823 O805 1.265 . S
C823 O806 1.242 . S
C824 O809 1.261 . S
C824 O810 1.252 . S
C825 C828 1.394 . S
C825 C830 1.370 . S
C825 C831 1.500 . S
C826 C829 1.383 . S
C826 C830 1.395 . S
C827 C828 1.396 . S
C827 C829 1.365 . S
C827 H836 0.929 . S
C828 C825 1.394 . S
C828 C827 1.396 . S
C828 H837 0.930 . S
C829 C826 1.383 . S
C829 C827 1.365 . S
C829 H838 0.931 . S
C830 C825 1.370 . S
C830 C826 1.395 . S
C830 H839 0.930 . S
C831 Gd767 2.805 . S
C831 O807 1.263 . S
C831 O808 1.252 . S
C831 C825 1.500 . S
H832 C815 0.929 . S
H833 C816 0.930 . S
H834 C817 0.931 . S
H835 C818 0.930 . S
H836 C827 0.929 . S
H837 C828 0.930 . S
H838 C829 0.931 . S
H839 C830 0.930 . S
C840 C842 1.422 . S
C840 C844 1.415 . S
C840 N846 1.369 . S
C841 C842 1.421 . S
C841 C843 1.417 . S
C841 C853 1.422 1_565 S
C842 C840 1.422 . S
C842 C841 1.421 . S
C842 N852 1.359 1_565 S
C843 C841 1.417 . S
C843 C845 1.329 . S
C843 H862 0.930 . S
C844 C840 1.415 . S
C844 C845 1.437 . S
C844 C848 1.413 . S
C845 C843 1.329 . S
C845 C844 1.437 . S
C845 H867 0.929 . S
N846 C840 1.369 . S
N846 C847 1.338 . S
N846 Gd851 2.622 1_565 S
C847 N846 1.338 . S
C847 C849 1.378 . S
C847 H859 0.929 . S
C848 C844 1.413 . S
C848 C849 1.348 . S
C848 H864 0.931 . S
C849 C847 1.378 . S
C849 C848 1.348 . S
C849 H865 0.930 . S
Gd850 N870 2.622 1_565 S
Gd850 N877 2.570 . S
Gd850 O884 2.353 . S
Gd850 O885 2.468 . S
Gd850 O886 2.427 . S
Gd850 O888 2.388 1_565 S
Gd850 O889 2.386 1_565 S
Gd850 O893 2.307 . S
Gd850 C903 2.805 . S
Gd851 N846 2.622 1_545 S
Gd851 N852 2.570 . S
Gd851 O883 2.386 1_545 S
Gd851 O887 2.307 . S
Gd851 O890 2.353 . S
Gd851 O891 2.468 . S
Gd851 O892 2.427 . S
Gd851 O894 2.388 1_545 S
Gd851 C915 2.805 . S
N852 C842 1.359 1_545 S
N852 Gd851 2.570 . S
N852 C854 1.343 . S
C853 C841 1.422 1_545 S
C853 C855 1.321 . S
C853 H861 0.931 . S
C854 N852 1.343 . S
C854 C855 1.390 . S
C854 H856 0.931 . S
C855 C853 1.321 . S
C855 C854 1.390 . S
C855 H857 0.930 . S
H856 C854 0.931 . S
H857 C855 0.930 . S
H858 C881 0.931 . S
H859 C847 0.929 . S
H860 C882 0.930 . S
H861 C853 0.931 . S
H862 C843 0.930 . S
H863 C872 0.929 . S
H864 C848 0.931 . S
H865 C849 0.930 . S
H866 C904 0.930 . S
H867 C845 0.929 . S
H868 C873 0.931 . S
H869 C874 0.930 . S
N870 Gd850 2.622 1_545 S
N870 C871 1.369 . S
N870 C872 1.338 . S
C871 N870 1.369 . S
C871 C875 1.415 . S
C871 C878 1.422 . S
C872 H863 0.929 . S
C872 N870 1.338 . S
C872 C874 1.378 . S
C873 H868 0.931 . S
C873 C874 1.348 . S
C873 C875 1.413 . S
C874 H869 0.930 . S
C874 C872 1.378 . S
C874 C873 1.348 . S
C875 C871 1.415 . S
C875 C873 1.413 . S
C875 C905 1.437 . S
H876 C905 0.929 . S
N877 Gd850 2.570 . S
N877 C878 1.359 1_565 S
N877 C881 1.343 . S
C878 C871 1.422 . S
C878 N877 1.359 1_545 S
C878 C880 1.421 . S
C879 C880 1.422 1_565 S
C879 C882 1.321 . S
C879 H906 0.931 . S
C880 C878 1.421 . S
C880 C879 1.422 1_545 S
C880 C904 1.417 . S
C881 H858 0.931 . S
C881 N877 1.343 . S
C881 C882 1.390 . S
C882 H860 0.930 . S
C882 C879 1.321 . S
C882 C881 1.390 . S
O883 Gd851 2.386 1_565 S
O883 C895 1.265 . S
O884 Gd850 2.353 . S
O884 C895 1.242 . S
O885 Gd850 2.468 . S
O885 C903 1.263 . S
O886 Gd850 2.427 . S
O886 C903 1.252 . S
O887 Gd851 2.307 . S
O887 C896 1.261 . S
O888 Gd850 2.388 1_545 S
O888 C896 1.252 . S
O889 Gd850 2.386 1_545 S
O889 C907 1.265 . S
O890 Gd851 2.353 . S
O890 C907 1.242 . S
O891 Gd851 2.468 . S
O891 C915 1.263 . S
O892 Gd851 2.427 . S
O892 C915 1.252 . S
O893 Gd850 2.307 . S
O893 C908 1.261 . S
O894 Gd851 2.388 1_565 S
O894 C908 1.252 . S
C895 O883 1.265 . S
C895 O884 1.242 . S
C896 O887 1.261 . S
C896 O888 1.252 . S
C897 C900 1.394 . S
C897 C902 1.370 . S
C897 C903 1.500 . S
C898 C901 1.383 . S
C898 C902 1.395 . S
C899 C900 1.396 . S
C899 C901 1.365 . S
C899 H916 0.929 . S
C900 C897 1.394 . S
C900 C899 1.396 . S
C900 H917 0.930 . S
C901 C898 1.383 . S
C901 C899 1.365 . S
C901 H918 0.931 . S
C902 C897 1.370 . S
C902 C898 1.395 . S
C902 H919 0.930 . S
C903 Gd850 2.805 . S
C903 O885 1.263 . S
C903 O886 1.252 . S
C903 C897 1.500 . S
C904 H866 0.930 . S
C904 C880 1.417 . S
C904 C905 1.329 . S
C905 C875 1.437 . S
C905 H876 0.929 . S
C905 C904 1.329 . S
H906 C879 0.931 . S
C907 O889 1.265 . S
C907 O890 1.242 . S
C908 O893 1.261 . S
C908 O894 1.252 . S
C909 C912 1.394 . S
C909 C914 1.370 . S
C909 C915 1.500 . S
C910 C913 1.383 . S
C910 C914 1.395 . S
C911 C912 1.396 . S
C911 C913 1.365 . S
C911 H920 0.929 . S
C912 C909 1.394 . S
C912 C911 1.396 . S
C912 H921 0.930 . S
C913 C910 1.383 . S
C913 C911 1.365 . S
C913 H922 0.931 . S
C914 C909 1.370 . S
C914 C910 1.395 . S
C914 H923 0.930 . S
C915 Gd851 2.805 . S
C915 O891 1.263 . S
C915 O892 1.252 . S
C915 C909 1.500 . S
H916 C899 0.929 . S
H917 C900 0.930 . S
H918 C901 0.931 . S
H919 C902 0.930 . S
H920 C911 0.929 . S
H921 C912 0.930 . S
H922 C913 0.931 . S
H923 C914 0.930 . S
C924 C926 1.422 . S
C924 C928 1.415 . S
C924 N930 1.369 . S
C925 C926 1.421 . S
C925 C927 1.417 . S
C925 C937 1.422 . S
C926 C924 1.422 . S
C926 C925 1.421 . S
C926 N936 1.359 . S
C927 C925 1.417 . S
C927 C929 1.329 . S
C927 H946 0.930 . S
C928 C924 1.415 . S
C928 C929 1.437 . S
C928 C932 1.413 . S
C929 C927 1.329 . S
C929 C928 1.437 . S
C929 H951 0.929 . S
N930 C924 1.369 . S
N930 C931 1.338 . S
N930 Gd935 2.622 . S
C931 N930 1.338 . S
C931 C933 1.378 . S
C931 H943 0.929 . S
C932 C928 1.413 . S
C932 C933 1.348 . S
C932 H948 0.931 . S
C933 C931 1.378 . S
C933 C932 1.348 . S
C933 H949 0.930 . S
Gd934 N954 2.622 . S
Gd934 N961 2.570 . S
Gd934 O968 2.353 . S
Gd934 O969 2.468 . S
Gd934 O970 2.427 . S
Gd934 O972 2.388 . S
Gd934 O973 2.386 . S
Gd934 O977 2.307 . S
Gd934 C987 2.805 . S
Gd935 N930 2.622 . S
Gd935 N936 2.570 . S
Gd935 O967 2.386 . S
Gd935 O971 2.307 . S
Gd935 O974 2.353 . S
Gd935 O975 2.468 . S
Gd935 O976 2.427 . S
Gd935 O978 2.388 . S
Gd935 C999 2.805 . S
N936 C926 1.359 . S
N936 Gd935 2.570 . S
N936 C938 1.343 . S
C937 C925 1.422 . S
C937 C939 1.321 . S
C937 H945 0.931 . S
C938 N936 1.343 . S
C938 C939 1.390 . S
C938 H940 0.931 . S
C939 C937 1.321 . S
C939 C938 1.390 . S
C939 H941 0.930 . S
H940 C938 0.931 . S
H941 C939 0.930 . S
H942 C965 0.931 . S
H943 C931 0.929 . S
H944 C966 0.930 . S
H945 C937 0.931 . S
H946 C927 0.930 . S
H947 C956 0.929 . S
H948 C932 0.931 . S
H949 C933 0.930 . S
H950 C988 0.930 . S
H951 C929 0.929 . S
H952 C957 0.931 . S
H953 C958 0.930 . S
N954 Gd934 2.622 . S
N954 C955 1.369 . S
N954 C956 1.338 . S
C955 N954 1.369 . S
C955 C959 1.415 . S
C955 C962 1.422 . S
C956 H947 0.929 . S
C956 N954 1.338 . S
C956 C958 1.378 . S
C957 H952 0.931 . S
C957 C958 1.348 . S
C957 C959 1.413 . S
C958 H953 0.930 . S
C958 C956 1.378 . S
C958 C957 1.348 . S
C959 C955 1.415 . S
C959 C957 1.413 . S
C959 C989 1.437 . S
H960 C989 0.929 . S
N961 Gd934 2.570 . S
N961 C962 1.359 . S
N961 C965 1.343 . S
C962 C955 1.422 . S
C962 N961 1.359 . S
C962 C964 1.421 . S
C963 C964 1.422 . S
C963 C966 1.321 . S
C963 H990 0.931 . S
C964 C962 1.421 . S
C964 C963 1.422 . S
C964 C988 1.417 . S
C965 H942 0.931 . S
C965 N961 1.343 . S
C965 C966 1.390 . S
C966 H944 0.930 . S
C966 C963 1.321 . S
C966 C965 1.390 . S
O967 Gd935 2.386 . S
O967 C979 1.265 . S
O968 Gd934 2.353 . S
O968 C979 1.242 . S
O969 Gd934 2.468 . S
O969 C987 1.263 . S
O970 Gd934 2.427 . S
O970 C987 1.252 . S
O971 Gd935 2.307 . S
O971 C980 1.261 . S
O972 Gd934 2.388 . S
O972 C980 1.252 . S
O973 Gd934 2.386 . S
O973 C991 1.265 . S
O974 Gd935 2.353 . S
O974 C991 1.242 . S
O975 Gd935 2.468 . S
O975 C999 1.263 . S
O976 Gd935 2.427 . S
O976 C999 1.252 . S
O977 Gd934 2.307 . S
O977 C992 1.261 . S
O978 Gd935 2.388 . S
O978 C992 1.252 . S
C979 O967 1.265 . S
C979 O968 1.242 . S
C980 O971 1.261 . S
C980 O972 1.252 . S
C981 C984 1.394 . S
C981 C986 1.370 . S
C981 C987 1.500 . S
C982 C985 1.383 . S
C982 C986 1.395 . S
C983 C984 1.396 . S
C983 C985 1.365 . S
C983 H1000 0.929 . S
C984 C981 1.394 . S
C984 C983 1.396 . S
C984 H1001 0.930 . S
C985 C982 1.383 . S
C985 C983 1.365 . S
C985 H1002 0.931 . S
C986 C981 1.370 . S
C986 C982 1.395 . S
C986 H1003 0.930 . S
C987 Gd934 2.805 . S
C987 O969 1.263 . S
C987 O970 1.252 . S
C987 C981 1.500 . S
C988 H950 0.930 . S
C988 C964 1.417 . S
C988 C989 1.329 . S
C989 C959 1.437 . S
C989 H960 0.929 . S
C989 C988 1.329 . S
H990 C963 0.931 . S
C991 O973 1.265 . S
C991 O974 1.242 . S
C992 O977 1.261 . S
C992 O978 1.252 . S
C993 C996 1.394 . S
C993 C998 1.370 . S
C993 C999 1.500 . S
C994 C997 1.383 . S
C994 C998 1.395 . S
C995 C996 1.396 . S
C995 C997 1.365 . S
C995 H1004 0.929 . S
C996 C993 1.394 . S
C996 C995 1.396 . S
C996 H1005 0.930 . S
C997 C994 1.383 . S
C997 C995 1.365 . S
C997 H1006 0.931 . S
C998 C993 1.370 . S
C998 C994 1.395 . S
C998 H1007 0.930 . S
C999 Gd935 2.805 . S
C999 O975 1.263 . S
C999 O976 1.252 . S
C999 C993 1.500 . S
H1000 C983 0.929 . S
H1001 C984 0.930 . S
H1002 C985 0.931 . S
H1003 C986 0.930 . S
H1004 C995 0.929 . S
H1005 C996 0.930 . S
H1006 C997 0.931 . S
H1007 C998 0.930 . S
H1008 C1016 0.950 . S
H1009 C1021 0.950 . S
H1010 C1018 0.950 . S
H1011 C1020 0.950 . S
H1012 C1022 0.950 . S
H1013 C1024 0.950 . S
H1014 C1026 0.950 . S
H1015 C1027 0.950 . S
C1016 H1008 0.950 . S
C1016 C1017 1.386 . S
C1016 C1018 1.391 . S
C1017 C1016 1.386 . S
C1017 C1021 1.393 . S
C1018 H1010 0.950 . S
C1018 C1016 1.391 . S
C1018 C1019 1.400 . S
C1019 C1018 1.400 . S
C1019 C1020 1.398 . S
C1019 C1025 1.491 . S
C1020 H1011 0.950 . S
C1020 C1019 1.398 . S
C1020 C1021 1.391 . S
C1021 H1009 0.950 . S
C1021 C1017 1.393 . S
C1021 C1020 1.391 . S
C1022 H1012 0.950 . S
C1022 C1023 1.386 . S
C1022 C1024 1.391 . S
C1023 C1022 1.386 . S
C1023 C1027 1.393 . S
C1024 H1013 0.950 . S
C1024 C1022 1.391 . S
C1024 C1025 1.400 . S
C1025 C1019 1.491 . S
C1025 C1024 1.400 . S
C1025 C1026 1.398 . S
C1026 H1014 0.950 . S
C1026 C1025 1.398 . S
C1026 C1027 1.391 . S
C1027 H1015 0.950 . S
C1027 C1023 1.393 . S
C1027 C1026 1.391 . S
H1028 C1036 0.950 . S
H1029 C1041 0.950 . S
H1030 C1038 0.950 . S
H1031 C1040 0.950 . S
H1032 C1042 0.950 . S
H1033 C1044 0.950 . S
H1034 C1046 0.950 . S
H1035 C1047 0.950 . S
C1036 H1028 0.950 . S
C1036 C1037 1.386 . S
C1036 C1038 1.391 . S
C1037 C1036 1.386 . S
C1037 C1041 1.393 . S
C1038 H1030 0.950 . S
C1038 C1036 1.391 . S
C1038 C1039 1.400 . S
C1039 C1038 1.400 . S
C1039 C1040 1.398 . S
C1039 C1045 1.491 . S
C1040 H1031 0.950 . S
C1040 C1039 1.398 . S
C1040 C1041 1.391 . S
C1041 H1029 0.950 . S
C1041 C1037 1.393 . S
C1041 C1040 1.391 . S
C1042 H1032 0.950 . S
C1042 C1043 1.386 . S
C1042 C1044 1.391 . S
C1043 C1042 1.386 . S
C1043 C1047 1.393 . S
C1044 H1033 0.950 . S
C1044 C1042 1.391 . S
C1044 C1045 1.400 . S
C1045 C1039 1.491 . S
C1045 C1044 1.400 . S
C1045 C1046 1.398 . S
C1046 H1034 0.950 . S
C1046 C1045 1.398 . S
C1046 C1047 1.391 . S
C1047 H1035 0.950 . S
C1047 C1043 1.393 . S
C1047 C1046 1.391 . S
H1048 C1056 0.950 . S
H1049 C1061 0.950 . S
H1050 C1058 0.950 . S
H1051 C1060 0.950 . S
H1052 C1062 0.950 . S
H1053 C1064 0.950 . S
H1054 C1066 0.950 . S
H1055 C1067 0.950 . S
C1056 H1048 0.950 . S
C1056 C1057 1.386 . S
C1056 C1058 1.391 . S
C1057 C1056 1.386 . S
C1057 C1061 1.393 . S
C1058 H1050 0.950 . S
C1058 C1056 1.391 . S
C1058 C1059 1.400 . S
C1059 C1058 1.400 . S
C1059 C1060 1.398 . S
C1059 C1065 1.491 . S
C1060 H1051 0.950 . S
C1060 C1059 1.398 . S
C1060 C1061 1.391 . S
C1061 H1049 0.950 . S
C1061 C1057 1.393 . S
C1061 C1060 1.391 . S
C1062 H1052 0.950 . S
C1062 C1063 1.386 . S
C1062 C1064 1.391 . S
C1063 C1062 1.386 . S
C1063 C1067 1.393 . S
C1064 H1053 0.950 . S
C1064 C1062 1.391 . S
C1064 C1065 1.400 . S
C1065 C1059 1.491 . S
C1065 C1064 1.400 . S
C1065 C1066 1.398 . S
C1066 H1054 0.950 . S
C1066 C1065 1.398 . S
C1066 C1067 1.391 . S
C1067 H1055 0.950 . S
C1067 C1063 1.393 . S
C1067 C1066 1.391 . S
H1068 C1076 0.950 . S
H1069 C1081 0.950 . S
H1070 C1078 0.950 . S
H1071 C1080 0.950 . S
H1072 C1082 0.950 . S
H1073 C1084 0.950 . S
H1074 C1086 0.950 . S
H1075 C1087 0.950 . S
C1076 H1068 0.950 . S
C1076 C1077 1.386 . S
C1076 C1078 1.391 . S
C1077 C1076 1.386 . S
C1077 C1081 1.393 . S
C1078 H1070 0.950 . S
C1078 C1076 1.391 . S
C1078 C1079 1.400 . S
C1079 C1078 1.400 . S
C1079 C1080 1.398 . S
C1079 C1085 1.491 . S
C1080 H1071 0.950 . S
C1080 C1079 1.398 . S
C1080 C1081 1.391 . S
C1081 H1069 0.950 . S
C1081 C1077 1.393 . S
C1081 C1080 1.391 . S
C1082 H1072 0.950 . S
C1082 C1083 1.386 . S
C1082 C1084 1.391 . S
C1083 C1082 1.386 . S
C1083 C1087 1.393 . S
C1084 H1073 0.950 . S
C1084 C1082 1.391 . S
C1084 C1085 1.400 . S
C1085 C1079 1.491 . S
C1085 C1084 1.400 . S
C1085 C1086 1.398 . S
C1086 H1074 0.950 . S
C1086 C1085 1.398 . S
C1086 C1087 1.391 . S
C1087 H1075 0.950 . S
C1087 C1083 1.393 . S
C1087 C1086 1.391 . S
H1088 C1096 0.950 . S
H1089 C1101 0.950 . S
H1090 C1098 0.950 . S
H1091 C1100 0.950 . S
H1092 C1102 0.950 . S
H1093 C1104 0.950 . S
H1094 C1106 0.950 . S
H1095 C1107 0.950 . S
C1096 H1088 0.950 . S
C1096 C1097 1.386 . S
C1096 C1098 1.391 . S
C1097 C1096 1.386 . S
C1097 C1101 1.393 . S
C1098 H1090 0.950 . S
C1098 C1096 1.391 . S
C1098 C1099 1.400 . S
C1099 C1098 1.400 . S
C1099 C1100 1.398 . S
C1099 C1105 1.491 . S
C1100 H1091 0.950 . S
C1100 C1099 1.398 . S
C1100 C1101 1.391 . S
C1101 H1089 0.950 . S
C1101 C1097 1.393 . S
C1101 C1100 1.391 . S
C1102 H1092 0.950 . S
C1102 C1103 1.386 . S
C1102 C1104 1.391 . S
C1103 C1102 1.386 . S
C1103 C1107 1.393 . S
C1104 H1093 0.950 . S
C1104 C1102 1.391 . S
C1104 C1105 1.400 . S
C1105 C1099 1.491 . S
C1105 C1104 1.400 . S
C1105 C1106 1.398 . S
C1106 H1094 0.950 . S
C1106 C1105 1.398 . S
C1106 C1107 1.391 . S
C1107 H1095 0.950 . S
C1107 C1103 1.393 . S
C1107 C1106 1.391 . S
H1108 C1116 0.950 . S
H1109 C1121 0.950 . S
H1110 C1118 0.950 . S
H1111 C1120 0.950 . S
H1112 C1122 0.950 . S
H1113 C1124 0.950 . S
H1114 C1126 0.950 . S
H1115 C1127 0.950 . S
C1116 H1108 0.950 . S
C1116 C1117 1.386 . S
C1116 C1118 1.391 . S
C1117 C1116 1.386 . S
C1117 C1121 1.393 . S
C1118 H1110 0.950 . S
C1118 C1116 1.391 . S
C1118 C1119 1.400 . S
C1119 C1118 1.400 . S
C1119 C1120 1.398 . S
C1119 C1125 1.491 . S
C1120 H1111 0.950 . S
C1120 C1119 1.398 . S
C1120 C1121 1.391 . S
C1121 H1109 0.950 . S
C1121 C1117 1.393 . S
C1121 C1120 1.391 . S
C1122 H1112 0.950 . S
C1122 C1123 1.386 . S
C1122 C1124 1.391 . S
C1123 C1122 1.386 . S
C1123 C1127 1.393 . S
C1124 H1113 0.950 . S
C1124 C1122 1.391 . S
C1124 C1125 1.400 . S
C1125 C1119 1.491 . S
C1125 C1124 1.400 . S
C1125 C1126 1.398 . S
C1126 H1114 0.950 . S
C1126 C1125 1.398 . S
C1126 C1127 1.391 . S
C1127 H1115 0.950 . S
C1127 C1123 1.393 . S
C1127 C1126 1.391 . S
H1128 C1136 0.950 . S
H1129 C1141 0.950 . S
H1130 C1138 0.950 . S
H1131 C1140 0.950 . S
H1132 C1142 0.950 . S
H1133 C1144 0.950 . S
H1134 C1146 0.950 . S
H1135 C1147 0.950 . S
C1136 H1128 0.950 . S
C1136 C1137 1.386 . S
C1136 C1138 1.391 . S
C1137 C1136 1.386 . S
C1137 C1141 1.393 . S
C1138 H1130 0.950 . S
C1138 C1136 1.391 . S
C1138 C1139 1.400 . S
C1139 C1138 1.400 . S
C1139 C1140 1.398 . S
C1139 C1145 1.491 . S
C1140 H1131 0.950 . S
C1140 C1139 1.398 . S
C1140 C1141 1.391 . S
C1141 H1129 0.950 . S
C1141 C1137 1.393 . S
C1141 C1140 1.391 . S
C1142 H1132 0.950 . S
C1142 C1143 1.386 . S
C1142 C1144 1.391 . S
C1143 C1142 1.386 . S
C1143 C1147 1.393 . S
C1144 H1133 0.950 . S
C1144 C1142 1.391 . S
C1144 C1145 1.400 . S
C1145 C1139 1.491 . S
C1145 C1144 1.400 . S
C1145 C1146 1.398 . S
C1146 H1134 0.950 . S
C1146 C1145 1.398 . S
C1146 C1147 1.391 . S
C1147 H1135 0.950 . S
C1147 C1143 1.393 . S
C1147 C1146 1.391 . S
H1148 C1156 0.950 . S
H1149 C1161 0.950 . S
H1150 C1158 0.950 . S
H1151 C1160 0.950 . S
H1152 C1162 0.950 . S
H1153 C1164 0.950 . S
H1154 C1166 0.950 . S
H1155 C1167 0.950 . S
C1156 H1148 0.950 . S
C1156 C1157 1.386 . S
C1156 C1158 1.391 . S
C1157 C1156 1.386 . S
C1157 C1161 1.393 . S
C1158 H1150 0.950 . S
C1158 C1156 1.391 . S
C1158 C1159 1.400 . S
C1159 C1158 1.400 . S
C1159 C1160 1.398 . S
C1159 C1165 1.491 . S
C1160 H1151 0.950 . S
C1160 C1159 1.398 . S
C1160 C1161 1.391 . S
C1161 H1149 0.950 . S
C1161 C1157 1.393 . S
C1161 C1160 1.391 . S
C1162 H1152 0.950 . S
C1162 C1163 1.386 . S
C1162 C1164 1.391 . S
C1163 C1162 1.386 . S
C1163 C1167 1.393 . S
C1164 H1153 0.950 . S
C1164 C1162 1.391 . S
C1164 C1165 1.400 . S
C1165 C1159 1.491 . S
C1165 C1164 1.400 . S
C1165 C1166 1.398 . S
C1166 H1154 0.950 . S
C1166 C1165 1.398 . S
C1166 C1167 1.391 . S
C1167 H1155 0.950 . S
C1167 C1163 1.393 . S
C1167 C1166 1.391 . S
H1168 C1176 0.950 . S
H1169 C1181 0.950 . S
H1170 C1178 0.950 . S
H1171 C1180 0.950 . S
H1172 C1182 0.950 . S
H1173 C1184 0.950 . S
H1174 C1186 0.950 . S
H1175 C1187 0.950 . S
C1176 H1168 0.950 . S
C1176 C1177 1.386 . S
C1176 C1178 1.391 . S
C1177 C1176 1.386 . S
C1177 C1181 1.393 . S
C1178 H1170 0.950 . S
C1178 C1176 1.391 . S
C1178 C1179 1.400 . S
C1179 C1178 1.400 . S
C1179 C1180 1.398 . S
C1179 C1185 1.491 . S
C1180 H1171 0.950 . S
C1180 C1179 1.398 . S
C1180 C1181 1.391 . S
C1181 H1169 0.950 . S
C1181 C1177 1.393 . S
C1181 C1180 1.391 . S
C1182 H1172 0.950 . S
C1182 C1183 1.386 . S
C1182 C1184 1.391 . S
C1183 C1182 1.386 . S
C1183 C1187 1.393 . S
C1184 H1173 0.950 . S
C1184 C1182 1.391 . S
C1184 C1185 1.400 . S
C1185 C1179 1.491 . S
C1185 C1184 1.400 . S
C1185 C1186 1.398 . S
C1186 H1174 0.950 . S
C1186 C1185 1.398 . S
C1186 C1187 1.391 . S
C1187 H1175 0.950 . S
C1187 C1183 1.393 . S
C1187 C1186 1.391 . S
H1188 C1196 0.950 . S
H1189 C1201 0.950 . S
H1190 C1198 0.950 . S
H1191 C1200 0.950 . S
H1192 C1202 0.950 . S
H1193 C1204 0.950 . S
H1194 C1206 0.950 . S
H1195 C1207 0.950 . S
C1196 H1188 0.950 . S
C1196 C1197 1.386 . S
C1196 C1198 1.391 . S
C1197 C1196 1.386 . S
C1197 C1201 1.393 . S
C1198 H1190 0.950 . S
C1198 C1196 1.391 . S
C1198 C1199 1.400 . S
C1199 C1198 1.400 . S
C1199 C1200 1.398 . S
C1199 C1205 1.491 . S
C1200 H1191 0.950 . S
C1200 C1199 1.398 . S
C1200 C1201 1.391 . S
C1201 H1189 0.950 . S
C1201 C1197 1.393 . S
C1201 C1200 1.391 . S
C1202 H1192 0.950 . S
C1202 C1203 1.386 . S
C1202 C1204 1.391 . S
C1203 C1202 1.386 . S
C1203 C1207 1.393 . S
C1204 H1193 0.950 . S
C1204 C1202 1.391 . S
C1204 C1205 1.400 . S
C1205 C1199 1.491 . S
C1205 C1204 1.400 . S
C1205 C1206 1.398 . S
C1206 H1194 0.950 . S
C1206 C1205 1.398 . S
C1206 C1207 1.391 . S
C1207 H1195 0.950 . S
C1207 C1203 1.393 . S
C1207 C1206 1.391 . S
H1208 C1216 0.950 . S
H1209 C1221 0.950 . S
H1210 C1218 0.950 . S
H1211 C1220 0.950 . S
H1212 C1222 0.950 . S
H1213 C1224 0.950 . S
H1214 C1226 0.950 . S
H1215 C1227 0.950 . S
C1216 H1208 0.950 . S
C1216 C1217 1.386 . S
C1216 C1218 1.391 . S
C1217 C1216 1.386 . S
C1217 C1221 1.393 . S
C1218 H1210 0.950 . S
C1218 C1216 1.391 . S
C1218 C1219 1.400 . S
C1219 C1218 1.400 . S
C1219 C1220 1.398 . S
C1219 C1225 1.491 . S
C1220 H1211 0.950 . S
C1220 C1219 1.398 . S
C1220 C1221 1.391 . S
C1221 H1209 0.950 . S
C1221 C1217 1.393 . S
C1221 C1220 1.391 . S
C1222 H1212 0.950 . S
C1222 C1223 1.386 . S
C1222 C1224 1.391 . S
C1223 C1222 1.386 . S
C1223 C1227 1.393 . S
C1224 H1213 0.950 . S
C1224 C1222 1.391 . S
C1224 C1225 1.400 . S
C1225 C1219 1.491 . S
C1225 C1224 1.400 . S
C1225 C1226 1.398 . S
C1226 H1214 0.950 . S
C1226 C1225 1.398 . S
C1226 C1227 1.391 . S
C1227 H1215 0.950 . S
C1227 C1223 1.393 . S
C1227 C1226 1.391 . S
H1228 C1236 0.950 . S
H1229 C1241 0.950 . S
H1230 C1238 0.950 . S
H1231 C1240 0.950 . S
H1232 C1242 0.950 . S
H1233 C1244 0.950 . S
H1234 C1246 0.950 . S
H1235 C1247 0.950 . S
C1236 H1228 0.950 . S
C1236 C1237 1.386 . S
C1236 C1238 1.391 . S
C1237 C1236 1.386 . S
C1237 C1241 1.393 . S
C1238 H1230 0.950 . S
C1238 C1236 1.391 . S
C1238 C1239 1.400 . S
C1239 C1238 1.400 . S
C1239 C1240 1.398 . S
C1239 C1245 1.491 . S
C1240 H1231 0.950 . S
C1240 C1239 1.398 . S
C1240 C1241 1.391 . S
C1241 H1229 0.950 . S
C1241 C1237 1.393 . S
C1241 C1240 1.391 . S
C1242 H1232 0.950 . S
C1242 C1243 1.386 . S
C1242 C1244 1.391 . S
C1243 C1242 1.386 . S
C1243 C1247 1.393 . S
C1244 H1233 0.950 . S
C1244 C1242 1.391 . S
C1244 C1245 1.400 . S
C1245 C1239 1.491 . S
C1245 C1244 1.400 . S
C1245 C1246 1.398 . S
C1246 H1234 0.950 . S
C1246 C1245 1.398 . S
C1246 C1247 1.391 . S
C1247 H1235 0.950 . S
C1247 C1243 1.393 . S
C1247 C1246 1.391 . S
H1248 C1256 0.950 . S
H1249 C1261 0.950 . S
H1250 C1258 0.950 . S
H1251 C1260 0.950 . S
H1252 C1262 0.950 . S
H1253 C1264 0.950 . S
H1254 C1266 0.950 . S
H1255 C1267 0.950 . S
C1256 H1248 0.950 . S
C1256 C1257 1.386 . S
C1256 C1258 1.391 . S
C1257 C1256 1.386 . S
C1257 C1261 1.393 . S
C1258 H1250 0.950 . S
C1258 C1256 1.391 . S
C1258 C1259 1.400 . S
C1259 C1258 1.400 . S
C1259 C1260 1.398 . S
C1259 C1265 1.491 . S
C1260 H1251 0.950 . S
C1260 C1259 1.398 . S
C1260 C1261 1.391 . S
C1261 H1249 0.950 . S
C1261 C1257 1.393 . S
C1261 C1260 1.391 . S
C1262 H1252 0.950 . S
C1262 C1263 1.386 . S
C1262 C1264 1.391 . S
C1263 C1262 1.386 . S
C1263 C1267 1.393 . S
C1264 H1253 0.950 . S
C1264 C1262 1.391 . S
C1264 C1265 1.400 . S
C1265 C1259 1.491 . S
C1265 C1264 1.400 . S
C1265 C1266 1.398 . S
C1266 H1254 0.950 . S
C1266 C1265 1.398 . S
C1266 C1267 1.391 . S
C1267 H1255 0.950 . S
C1267 C1263 1.393 . S
C1267 C1266 1.391 . S
H1268 C1276 0.950 . S
H1269 C1281 0.950 . S
H1270 C1278 0.950 . S
H1271 C1280 0.950 . S
H1272 C1282 0.950 . S
H1273 C1284 0.950 . S
H1274 C1286 0.950 . S
H1275 C1287 0.950 . S
C1276 H1268 0.950 . S
C1276 C1277 1.386 . S
C1276 C1278 1.391 . S
C1277 C1276 1.386 . S
C1277 C1281 1.393 . S
C1278 H1270 0.950 . S
C1278 C1276 1.391 . S
C1278 C1279 1.400 . S
C1279 C1278 1.400 . S
C1279 C1280 1.398 . S
C1279 C1285 1.491 . S
C1280 H1271 0.950 . S
C1280 C1279 1.398 . S
C1280 C1281 1.391 . S
C1281 H1269 0.950 . S
C1281 C1277 1.393 . S
C1281 C1280 1.391 . S
C1282 H1272 0.950 . S
C1282 C1283 1.386 . S
C1282 C1284 1.391 . S
C1283 C1282 1.386 . S
C1283 C1287 1.393 . S
C1284 H1273 0.950 . S
C1284 C1282 1.391 . S
C1284 C1285 1.400 . S
C1285 C1279 1.491 . S
C1285 C1284 1.400 . S
C1285 C1286 1.398 . S
C1286 H1274 0.950 . S
C1286 C1285 1.398 . S
C1286 C1287 1.391 . S
C1287 H1275 0.950 . S
C1287 C1283 1.393 . S
C1287 C1286 1.391 . S
H1288 C1296 0.950 . S
H1289 C1301 0.950 . S
H1290 C1298 0.950 . S
H1291 C1300 0.950 . S
H1292 C1302 0.950 . S
H1293 C1304 0.950 . S
H1294 C1306 0.950 . S
H1295 C1307 0.950 . S
C1296 H1288 0.950 . S
C1296 C1297 1.386 . S
C1296 C1298 1.391 . S
C1297 C1296 1.386 . S
C1297 C1301 1.393 . S
C1298 H1290 0.950 . S
C1298 C1296 1.391 . S
C1298 C1299 1.400 . S
C1299 C1298 1.400 . S
C1299 C1300 1.398 . S
C1299 C1305 1.491 . S
C1300 H1291 0.950 . S
C1300 C1299 1.398 . S
C1300 C1301 1.391 . S
C1301 H1289 0.950 . S
C1301 C1297 1.393 . S
C1301 C1300 1.391 . S
C1302 H1292 0.950 . S
C1302 C1303 1.386 . S
C1302 C1304 1.391 . S
C1303 C1302 1.386 . S
C1303 C1307 1.393 . S
C1304 H1293 0.950 . S
C1304 C1302 1.391 . S
C1304 C1305 1.400 . S
C1305 C1299 1.491 . S
C1305 C1304 1.400 . S
C1305 C1306 1.398 . S
C1306 H1294 0.950 . S
C1306 C1305 1.398 . S
C1306 C1307 1.391 . S
C1307 H1295 0.950 . S
C1307 C1303 1.393 . S
C1307 C1306 1.391 . S
H1308 C1316 0.950 . S
H1309 C1321 0.950 . S
H1310 C1318 0.950 . S
H1311 C1320 0.950 . S
H1312 C1322 0.950 . S
H1313 C1324 0.950 . S
H1314 C1326 0.950 . S
H1315 C1327 0.950 . S
C1316 H1308 0.950 . S
C1316 C1317 1.386 . S
C1316 C1318 1.391 . S
C1317 C1316 1.386 . S
C1317 C1321 1.393 . S
C1318 H1310 0.950 . S
C1318 C1316 1.391 . S
C1318 C1319 1.400 . S
C1319 C1318 1.400 . S
C1319 C1320 1.398 . S
C1319 C1325 1.491 . S
C1320 H1311 0.950 . S
C1320 C1319 1.398 . S
C1320 C1321 1.391 . S
C1321 H1309 0.950 . S
C1321 C1317 1.393 . S
C1321 C1320 1.391 . S
C1322 H1312 0.950 . S
C1322 C1323 1.386 . S
C1322 C1324 1.391 . S
C1323 C1322 1.386 . S
C1323 C1327 1.393 . S
C1324 H1313 0.950 . S
C1324 C1322 1.391 . S
C1324 C1325 1.400 . S
C1325 C1319 1.491 . S
C1325 C1324 1.400 . S
C1325 C1326 1.398 . S
C1326 H1314 0.950 . S
C1326 C1325 1.398 . S
C1326 C1327 1.391 . S
C1327 H1315 0.950 . S
C1327 C1323 1.393 . S
C1327 C1326 1.391 . S
H1328 C1336 0.950 . S
H1329 C1341 0.950 . S
H1330 C1338 0.950 . S
H1331 C1340 0.950 . S
H1332 C1342 0.950 . S
H1333 C1344 0.950 . S
H1334 C1346 0.950 . S
H1335 C1347 0.950 . S
C1336 H1328 0.950 . S
C1336 C1337 1.386 . S
C1336 C1338 1.391 . S
C1337 C1336 1.386 . S
C1337 C1341 1.393 1_556 S
C1338 H1330 0.950 . S
C1338 C1336 1.391 . S
C1338 C1339 1.400 . S
C1339 C1338 1.400 . S
C1339 C1340 1.398 1_556 S
C1339 C1345 1.497 . S
C1340 H1331 0.950 . S
C1340 C1339 1.398 1_554 S
C1340 C1341 1.391 . S
C1341 H1329 0.950 . S
C1341 C1337 1.393 1_554 S
C1341 C1340 1.391 . S
C1342 H1332 0.950 . S
C1342 C1343 1.386 . S
C1342 C1344 1.391 . S
C1343 C1342 1.386 . S
C1343 C1347 1.393 1_554 S
C1344 H1333 0.950 . S
C1344 C1342 1.391 . S
C1344 C1345 1.370 1_554 S
C1345 C1339 1.497 . S
C1345 C1344 1.370 1_556 S
C1345 C1346 1.422 . S
C1346 H1334 0.950 . S
C1346 C1345 1.422 . S
C1346 C1347 1.391 . S
C1347 H1335 0.950 . S
C1347 C1343 1.393 1_556 S
C1347 C1346 1.391 . S
H1348 C1356 0.950 . S
H1349 C1361 0.950 . S
H1350 C1358 0.950 . S
H1351 C1360 0.950 . S
H1352 C1362 0.950 . S
H1353 C1364 0.950 . S
H1354 C1366 0.950 . S
H1355 C1367 0.950 . S
C1356 H1348 0.950 . S
C1356 C1357 1.386 . S
C1356 C1358 1.391 . S
C1357 C1356 1.386 . S
C1357 C1361 1.393 . S
C1358 H1350 0.950 . S
C1358 C1356 1.391 . S
C1358 C1359 1.400 . S
C1359 C1358 1.400 . S
C1359 C1360 1.398 . S
C1359 C1365 1.491 . S
C1360 H1351 0.950 . S
C1360 C1359 1.398 . S
C1360 C1361 1.391 . S
C1361 H1349 0.950 . S
C1361 C1357 1.393 . S
C1361 C1360 1.391 . S
C1362 H1352 0.950 . S
C1362 C1363 1.386 . S
C1362 C1364 1.391 . S
C1363 C1362 1.386 . S
C1363 C1367 1.393 . S
C1364 H1353 0.950 . S
C1364 C1362 1.391 . S
C1364 C1365 1.400 . S
C1365 C1359 1.491 . S
C1365 C1364 1.400 . S
C1365 C1366 1.398 . S
C1366 H1354 0.950 . S
C1366 C1365 1.398 . S
C1366 C1367 1.391 . S
C1367 H1355 0.950 . S
C1367 C1363 1.393 . S
C1367 C1366 1.391 . S
H1368 C1376 0.950 . S
H1369 C1381 0.950 . S
H1370 C1378 0.950 . S
H1371 C1380 0.950 . S
H1372 C1382 0.950 . S
H1373 C1384 0.950 . S
H1374 C1386 0.950 . S
H1375 C1387 0.950 . S
C1376 H1368 0.950 . S
C1376 C1377 1.386 . S
C1376 C1378 1.391 . S
C1377 C1376 1.386 . S
C1377 C1381 1.393 . S
C1378 H1370 0.950 . S
C1378 C1376 1.391 . S
C1378 C1379 1.400 . S
C1379 C1378 1.400 . S
C1379 C1380 1.398 . S
C1379 C1385 1.491 . S
C1380 H1371 0.950 . S
C1380 C1379 1.398 . S
C1380 C1381 1.391 . S
C1381 H1369 0.950 . S
C1381 C1377 1.393 . S
C1381 C1380 1.391 . S
C1382 H1372 0.950 . S
C1382 C1383 1.386 . S
C1382 C1384 1.391 . S
C1383 C1382 1.386 . S
C1383 C1387 1.393 . S
C1384 H1373 0.950 . S
C1384 C1382 1.391 . S
C1384 C1385 1.400 . S
C1385 C1379 1.491 . S
C1385 C1384 1.400 . S
C1385 C1386 1.398 . S
C1386 H1374 0.950 . S
C1386 C1385 1.398 . S
C1386 C1387 1.391 . S
C1387 H1375 0.950 . S
C1387 C1383 1.393 . S
C1387 C1386 1.391 . S
H1388 C1396 0.950 . S
H1389 C1401 0.950 . S
H1390 C1398 0.950 . S
H1391 C1400 0.950 . S
H1392 C1402 0.950 . S
H1393 C1404 0.950 . S
H1394 C1406 0.950 . S
H1395 C1407 0.950 . S
C1396 H1388 0.950 . S
C1396 C1397 1.386 . S
C1396 C1398 1.391 . S
C1397 C1396 1.386 . S
C1397 C1401 1.393 . S
C1398 H1390 0.950 . S
C1398 C1396 1.391 . S
C1398 C1399 1.400 . S
C1399 C1398 1.400 . S
C1399 C1400 1.398 . S
C1399 C1405 1.491 . S
C1400 H1391 0.950 . S
C1400 C1399 1.398 . S
C1400 C1401 1.391 . S
C1401 H1389 0.950 . S
C1401 C1397 1.393 . S
C1401 C1400 1.391 . S
C1402 H1392 0.950 . S
C1402 C1403 1.386 . S
C1402 C1404 1.391 . S
C1403 C1402 1.386 . S
C1403 C1407 1.393 . S
C1404 H1393 0.950 . S
C1404 C1402 1.391 . S
C1404 C1405 1.400 . S
C1405 C1399 1.491 . S
C1405 C1404 1.400 . S
C1405 C1406 1.398 . S
C1406 H1394 0.950 . S
C1406 C1405 1.398 . S
C1406 C1407 1.391 . S
C1407 H1395 0.950 . S
C1407 C1403 1.393 . S
C1407 C1406 1.391 . S
H1408 C1416 0.950 . S
H1409 C1421 0.950 . S
H1410 C1418 0.950 . S
H1411 C1420 0.950 . S
H1412 C1422 0.950 . S
H1413 C1424 0.950 . S
H1414 C1426 0.950 . S
H1415 C1427 0.950 . S
C1416 H1408 0.950 . S
C1416 C1417 1.386 . S
C1416 C1418 1.391 . S
C1417 C1416 1.386 . S
C1417 C1421 1.393 . S
C1418 H1410 0.950 . S
C1418 C1416 1.391 . S
C1418 C1419 1.400 . S
C1419 C1418 1.400 . S
C1419 C1420 1.398 . S
C1419 C1425 1.491 . S
C1420 H1411 0.950 . S
C1420 C1419 1.398 . S
C1420 C1421 1.391 . S
C1421 H1409 0.950 . S
C1421 C1417 1.393 . S
C1421 C1420 1.391 . S
C1422 H1412 0.950 . S
C1422 C1423 1.386 . S
C1422 C1424 1.391 . S
C1423 C1422 1.386 . S
C1423 C1427 1.393 . S
C1424 H1413 0.950 . S
C1424 C1422 1.391 . S
C1424 C1425 1.400 . S
C1425 C1419 1.491 . S
C1425 C1424 1.400 . S
C1425 C1426 1.398 . S
C1426 H1414 0.950 . S
C1426 C1425 1.398 . S
C1426 C1427 1.391 . S
C1427 H1415 0.950 . S
C1427 C1423 1.393 . S
C1427 C1426 1.391 . S
H1428 C1436 0.950 . S
H1429 C1441 0.950 . S
H1430 C1438 0.950 . S
H1431 C1440 0.950 . S
H1432 C1442 0.950 . S
H1433 C1444 0.950 . S
H1434 C1446 0.950 . S
H1435 C1447 0.950 . S
C1436 H1428 0.950 . S
C1436 C1437 1.386 . S
C1436 C1438 1.391 . S
C1437 C1436 1.386 . S
C1437 C1441 1.393 1_554 S
C1438 H1430 0.950 . S
C1438 C1436 1.391 . S
C1438 C1439 1.400 . S
C1439 C1438 1.400 . S
C1439 C1440 1.398 1_554 S
C1439 C1445 1.491 . S
C1440 H1431 0.950 . S
C1440 C1439 1.398 1_556 S
C1440 C1441 1.391 . S
C1441 H1429 0.950 . S
C1441 C1437 1.393 1_556 S
C1441 C1440 1.391 . S
C1442 H1432 0.950 . S
C1442 C1443 1.386 . S
C1442 C1444 1.391 . S
C1443 C1442 1.386 . S
C1443 C1447 1.393 1_556 S
C1444 H1433 0.950 . S
C1444 C1442 1.391 . S
C1444 C1445 1.400 1_556 S
C1445 C1439 1.491 . S
C1445 C1444 1.400 1_554 S
C1445 C1446 1.398 . S
C1446 H1434 0.950 . S
C1446 C1445 1.398 . S
C1446 C1447 1.391 . S
C1447 H1435 0.950 . S
C1447 C1443 1.393 1_554 S
C1447 C1446 1.391 . S
H1448 C1456 0.950 . S
H1449 C1461 0.950 . S
H1450 C1458 0.950 . S
H1451 C1460 0.950 . S
H1452 C1462 0.950 . S
H1453 C1464 0.950 . S
H1454 C1466 0.950 . S
H1455 C1467 0.950 . S
C1456 H1448 0.950 . S
C1456 C1457 1.386 . S
C1456 C1458 1.391 . S
C1457 C1456 1.386 . S
C1457 C1461 1.393 . S
C1458 H1450 0.950 . S
C1458 C1456 1.391 . S
C1458 C1459 1.400 . S
C1459 C1458 1.400 . S
C1459 C1460 1.398 . S
C1459 C1465 1.491 . S
C1460 H1451 0.950 . S
C1460 C1459 1.398 . S
C1460 C1461 1.391 . S
C1461 H1449 0.950 . S
C1461 C1457 1.393 . S
C1461 C1460 1.391 . S
C1462 H1452 0.950 . S
C1462 C1463 1.386 . S
C1462 C1464 1.391 . S
C1463 C1462 1.386 . S
C1463 C1467 1.393 . S
C1464 H1453 0.950 . S
C1464 C1462 1.391 . S
C1464 C1465 1.400 . S
C1465 C1459 1.491 . S
C1465 C1464 1.400 . S
C1465 C1466 1.398 . S
C1466 H1454 0.950 . S
C1466 C1465 1.398 . S
C1466 C1467 1.391 . S
C1467 H1455 0.950 . S
C1467 C1463 1.393 . S
C1467 C1466 1.391 . S
H1468 C1476 0.950 . S
H1469 C1481 0.950 . S
H1470 C1478 0.950 . S
H1471 C1480 0.950 . S
H1472 C1482 0.950 . S
H1473 C1484 0.950 . S
H1474 C1486 0.950 . S
H1475 C1487 0.950 . S
C1476 H1468 0.950 . S
C1476 C1477 1.386 . S
C1476 C1478 1.391 . S
C1477 C1476 1.386 . S
C1477 C1481 1.393 . S
C1478 H1470 0.950 . S
C1478 C1476 1.391 . S
C1478 C1479 1.400 . S
C1479 C1478 1.400 . S
C1479 C1480 1.398 . S
C1479 C1485 1.491 . S
C1480 H1471 0.950 . S
C1480 C1479 1.398 . S
C1480 C1481 1.391 . S
C1481 H1469 0.950 . S
C1481 C1477 1.393 . S
C1481 C1480 1.391 . S
C1482 H1472 0.950 . S
C1482 C1483 1.386 . S
C1482 C1484 1.391 . S
C1483 C1482 1.386 . S
C1483 C1487 1.393 . S
C1484 H1473 0.950 . S
C1484 C1482 1.391 . S
C1484 C1485 1.400 . S
C1485 C1479 1.491 . S
C1485 C1484 1.400 . S
C1485 C1486 1.398 . S
C1486 H1474 0.950 . S
C1486 C1485 1.398 . S
C1486 C1487 1.391 . S
C1487 H1475 0.950 . S
C1487 C1483 1.393 . S
C1487 C1486 1.391 . S
H1488 C1496 0.950 . S
H1489 C1501 0.950 . S
H1490 C1498 0.950 . S
H1491 C1500 0.950 . S
H1492 C1502 0.950 . S
H1493 C1504 0.950 . S
H1494 C1506 0.950 . S
H1495 C1507 0.950 . S
C1496 H1488 0.950 . S
C1496 C1497 1.386 . S
C1496 C1498 1.391 . S
C1497 C1496 1.386 . S
C1497 C1501 1.393 . S
C1498 H1490 0.950 . S
C1498 C1496 1.391 . S
C1498 C1499 1.400 . S
C1499 C1498 1.400 . S
C1499 C1500 1.398 . S
C1499 C1505 1.491 . S
C1500 H1491 0.950 . S
C1500 C1499 1.398 . S
C1500 C1501 1.391 . S
C1501 H1489 0.950 . S
C1501 C1497 1.393 . S
C1501 C1500 1.391 . S
C1502 H1492 0.950 . S
C1502 C1503 1.386 . S
C1502 C1504 1.391 . S
C1503 C1502 1.386 . S
C1503 C1507 1.393 . S
C1504 H1493 0.950 . S
C1504 C1502 1.391 . S
C1504 C1505 1.400 . S
C1505 C1499 1.491 . S
C1505 C1504 1.400 . S
C1505 C1506 1.398 . S
C1506 H1494 0.950 . S
C1506 C1505 1.398 . S
C1506 C1507 1.391 . S
C1507 H1495 0.950 . S
C1507 C1503 1.393 . S
C1507 C1506 1.391 . S
H1508 C1516 0.950 . S
H1509 C1521 0.950 . S
H1510 C1518 0.950 . S
H1511 C1520 0.950 . S
H1512 C1522 0.950 . S
H1513 C1524 0.950 . S
H1514 C1526 0.950 . S
H1515 C1527 0.950 . S
C1516 H1508 0.950 . S
C1516 C1517 1.386 . S
C1516 C1518 1.391 . S
C1517 C1516 1.386 . S
C1517 C1521 1.393 . S
C1518 H1510 0.950 . S
C1518 C1516 1.391 . S
C1518 C1519 1.400 . S
C1519 C1518 1.400 . S
C1519 C1520 1.398 . S
C1519 C1525 1.491 . S
C1520 H1511 0.950 . S
C1520 C1519 1.398 . S
C1520 C1521 1.391 . S
C1521 H1509 0.950 . S
C1521 C1517 1.393 . S
C1521 C1520 1.391 . S
C1522 H1512 0.950 . S
C1522 C1523 1.386 . S
C1522 C1524 1.391 . S
C1523 C1522 1.386 . S
C1523 C1527 1.393 . S
C1524 H1513 0.950 . S
C1524 C1522 1.391 . S
C1524 C1525 1.400 . S
C1525 C1519 1.491 . S
C1525 C1524 1.400 . S
C1525 C1526 1.398 . S
C1526 H1514 0.950 . S
C1526 C1525 1.398 . S
C1526 C1527 1.391 . S
C1527 H1515 0.950 . S
C1527 C1523 1.393 . S
C1527 C1526 1.391 . S
H1528 C1536 0.950 . S
H1529 C1541 0.950 . S
H1530 C1538 0.950 . S
H1531 C1540 0.950 . S
H1532 C1542 0.950 . S
H1533 C1544 0.950 . S
H1534 C1546 0.950 . S
H1535 C1547 0.950 . S
C1536 H1528 0.950 . S
C1536 C1537 1.386 . S
C1536 C1538 1.391 . S
C1537 C1536 1.386 . S
C1537 C1541 1.393 . S
C1538 H1530 0.950 . S
C1538 C1536 1.391 . S
C1538 C1539 1.400 . S
C1539 C1538 1.400 . S
C1539 C1540 1.398 . S
C1539 C1545 1.491 . S
C1540 H1531 0.950 . S
C1540 C1539 1.398 . S
C1540 C1541 1.391 . S
C1541 H1529 0.950 . S
C1541 C1537 1.393 . S
C1541 C1540 1.391 . S
C1542 H1532 0.950 . S
C1542 C1543 1.386 . S
C1542 C1544 1.391 . S
C1543 C1542 1.386 . S
C1543 C1547 1.393 . S
C1544 H1533 0.950 . S
C1544 C1542 1.391 . S
C1544 C1545 1.400 . S
C1545 C1539 1.491 . S
C1545 C1544 1.400 . S
C1545 C1546 1.398 . S
C1546 H1534 0.950 . S
C1546 C1545 1.398 . S
C1546 C1547 1.391 . S
C1547 H1535 0.950 . S
C1547 C1543 1.393 . S
C1547 C1546 1.391 . S
H1548 C1556 0.950 . S
H1549 C1561 0.950 . S
H1550 C1558 0.950 . S
H1551 C1560 0.950 . S
H1552 C1562 0.950 . S
H1553 C1564 0.950 . S
H1554 C1566 0.950 . S
H1555 C1567 0.950 . S
C1556 H1548 0.950 . S
C1556 C1557 1.386 . S
C1556 C1558 1.391 . S
C1557 C1556 1.386 . S
C1557 C1561 1.393 . S
C1558 H1550 0.950 . S
C1558 C1556 1.391 . S
C1558 C1559 1.400 . S
C1559 C1558 1.400 . S
C1559 C1560 1.398 . S
C1559 C1565 1.491 . S
C1560 H1551 0.950 . S
C1560 C1559 1.398 . S
C1560 C1561 1.391 . S
C1561 H1549 0.950 . S
C1561 C1557 1.393 . S
C1561 C1560 1.391 . S
C1562 H1552 0.950 . S
C1562 C1563 1.386 . S
C1562 C1564 1.391 . S
C1563 C1562 1.386 . S
C1563 C1567 1.393 . S
C1564 H1553 0.950 . S
C1564 C1562 1.391 . S
C1564 C1565 1.400 . S
C1565 C1559 1.491 . S
C1565 C1564 1.400 . S
C1565 C1566 1.398 . S
C1566 H1554 0.950 . S
C1566 C1565 1.398 . S
C1566 C1567 1.391 . S
C1567 H1555 0.950 . S
C1567 C1563 1.393 . S
C1567 C1566 1.391 . S
H1568 C1576 0.950 . S
H1569 C1581 0.950 . S
H1570 C1578 0.950 . S
H1571 C1580 0.950 . S
H1572 C1582 0.950 . S
H1573 C1584 0.950 . S
H1574 C1586 0.950 . S
H1575 C1587 0.950 . S
C1576 H1568 0.950 . S
C1576 C1577 1.386 . S
C1576 C1578 1.391 . S
C1577 C1576 1.386 . S
C1577 C1581 1.393 . S
C1578 H1570 0.950 . S
C1578 C1576 1.391 . S
C1578 C1579 1.400 . S
C1579 C1578 1.400 . S
C1579 C1580 1.398 . S
C1579 C1585 1.491 . S
C1580 H1571 0.950 . S
C1580 C1579 1.398 . S
C1580 C1581 1.391 . S
C1581 H1569 0.950 . S
C1581 C1577 1.393 . S
C1581 C1580 1.391 . S
C1582 H1572 0.950 . S
C1582 C1583 1.386 . S
C1582 C1584 1.391 . S
C1583 C1582 1.386 . S
C1583 C1587 1.393 . S
C1584 H1573 0.950 . S
C1584 C1582 1.391 . S
C1584 C1585 1.400 . S
C1585 C1579 1.491 . S
C1585 C1584 1.400 . S
C1585 C1586 1.398 . S
C1586 H1574 0.950 . S
C1586 C1585 1.398 . S
C1586 C1587 1.391 . S
C1587 H1575 0.950 . S
C1587 C1583 1.393 . S
C1587 C1586 1.391 . S
H1588 C1596 0.950 . S
H1589 C1601 0.950 . S
H1590 C1598 0.950 . S
H1591 C1600 0.950 . S
H1592 C1602 0.950 . S
H1593 C1604 0.950 . S
H1594 C1606 0.950 . S
H1595 C1607 0.950 . S
C1596 H1588 0.950 . S
C1596 C1597 1.386 . S
C1596 C1598 1.391 . S
C1597 C1596 1.386 . S
C1597 C1601 1.393 . S
C1598 H1590 0.950 . S
C1598 C1596 1.391 . S
C1598 C1599 1.400 . S
C1599 C1598 1.400 . S
C1599 C1600 1.398 . S
C1599 C1605 1.491 . S
C1600 H1591 0.950 . S
C1600 C1599 1.398 . S
C1600 C1601 1.391 . S
C1601 H1589 0.950 . S
C1601 C1597 1.393 . S
C1601 C1600 1.391 . S
C1602 H1592 0.950 . S
C1602 C1603 1.386 . S
C1602 C1604 1.391 . S
C1603 C1602 1.386 . S
C1603 C1607 1.393 . S
C1604 H1593 0.950 . S
C1604 C1602 1.391 . S
C1604 C1605 1.400 . S
C1605 C1599 1.491 . S
C1605 C1604 1.400 . S
C1605 C1606 1.398 . S
C1606 H1594 0.950 . S
C1606 C1605 1.398 . S
C1606 C1607 1.391 . S
C1607 H1595 0.950 . S
C1607 C1603 1.393 . S
C1607 C1606 1.391 . S
H1608 C1616 0.950 . S
H1609 C1621 0.950 . S
H1610 C1618 0.950 . S
H1611 C1620 0.950 . S
H1612 C1622 0.950 . S
H1613 C1624 0.950 . S
H1614 C1626 0.950 . S
H1615 C1627 0.950 . S
C1616 H1608 0.950 . S
C1616 C1617 1.386 . S
C1616 C1618 1.391 . S
C1617 C1616 1.386 . S
C1617 C1621 1.393 . S
C1618 H1610 0.950 . S
C1618 C1616 1.391 . S
C1618 C1619 1.400 . S
C1619 C1618 1.400 . S
C1619 C1620 1.398 . S
C1619 C1625 1.491 . S
C1620 H1611 0.950 . S
C1620 C1619 1.398 . S
C1620 C1621 1.391 . S
C1621 H1609 0.950 . S
C1621 C1617 1.393 . S
C1621 C1620 1.391 . S
C1622 H1612 0.950 . S
C1622 C1623 1.386 . S
C1622 C1624 1.391 . S
C1623 C1622 1.386 . S
C1623 C1627 1.393 . S
C1624 H1613 0.950 . S
C1624 C1622 1.391 . S
C1624 C1625 1.400 . S
C1625 C1619 1.491 . S
C1625 C1624 1.400 . S
C1625 C1626 1.398 . S
C1626 H1614 0.950 . S
C1626 C1625 1.398 . S
C1626 C1627 1.391 . S
C1627 H1615 0.950 . S
C1627 C1623 1.393 . S
C1627 C1626 1.391 . S
H1628 C1636 0.950 . S
H1629 C1641 0.950 . S
H1630 C1638 0.950 . S
H1631 C1640 0.950 . S
H1632 C1642 0.950 . S
H1633 C1644 0.950 . S
H1634 C1646 0.950 . S
H1635 C1647 0.950 . S
C1636 H1628 0.950 . S
C1636 C1637 1.386 . S
C1636 C1638 1.391 . S
C1637 C1636 1.386 . S
C1637 C1641 1.393 . S
C1638 H1630 0.950 . S
C1638 C1636 1.391 . S
C1638 C1639 1.400 . S
C1639 C1638 1.400 . S
C1639 C1640 1.398 . S
C1639 C1645 1.491 . S
C1640 H1631 0.950 . S
C1640 C1639 1.398 . S
C1640 C1641 1.391 . S
C1641 H1629 0.950 . S
C1641 C1637 1.393 . S
C1641 C1640 1.391 . S
C1642 H1632 0.950 . S
C1642 C1643 1.386 . S
C1642 C1644 1.391 . S
C1643 C1642 1.386 . S
C1643 C1647 1.393 . S
C1644 H1633 0.950 . S
C1644 C1642 1.391 . S
C1644 C1645 1.400 . S
C1645 C1639 1.491 . S
C1645 C1644 1.400 . S
C1645 C1646 1.398 . S
C1646 H1634 0.950 . S
C1646 C1645 1.398 . S
C1646 C1647 1.391 . S
C1647 H1635 0.950 . S
C1647 C1643 1.393 . S
C1647 C1646 1.391 . S
H1648 C1656 0.950 . S
H1649 C1661 0.950 . S
H1650 C1658 0.950 . S
H1651 C1660 0.950 . S
H1652 C1662 0.950 . S
H1653 C1664 0.950 . S
H1654 C1666 0.950 . S
H1655 C1667 0.950 . S
C1656 H1648 0.950 . S
C1656 C1657 1.386 . S
C1656 C1658 1.391 . S
C1657 C1656 1.386 . S
C1657 C1661 1.393 . S
C1658 H1650 0.950 . S
C1658 C1656 1.391 . S
C1658 C1659 1.400 . S
C1659 C1658 1.400 . S
C1659 C1660 1.398 . S
C1659 C1665 1.491 . S
C1660 H1651 0.950 . S
C1660 C1659 1.398 . S
C1660 C1661 1.391 . S
C1661 H1649 0.950 . S
C1661 C1657 1.393 . S
C1661 C1660 1.391 . S
C1662 H1652 0.950 . S
C1662 C1663 1.386 . S
C1662 C1664 1.391 . S
C1663 C1662 1.386 . S
C1663 C1667 1.393 . S
C1664 H1653 0.950 . S
C1664 C1662 1.391 . S
C1664 C1665 1.400 . S
C1665 C1659 1.491 . S
C1665 C1664 1.400 . S
C1665 C1666 1.398 . S
C1666 H1654 0.950 . S
C1666 C1665 1.398 . S
C1666 C1667 1.391 . S
C1667 H1655 0.950 . S
C1667 C1663 1.393 . S
C1667 C1666 1.391 . S
H1668 C1676 0.950 . S
H1669 C1681 0.950 . S
H1670 C1678 0.950 . S
H1671 C1680 0.950 . S
H1672 C1682 0.950 . S
H1673 C1684 0.950 . S
H1674 C1686 0.950 . S
H1675 C1687 0.950 . S
C1676 H1668 0.950 . S
C1676 C1677 1.386 . S
C1676 C1678 1.391 . S
C1677 C1676 1.386 . S
C1677 C1681 1.393 . S
C1678 H1670 0.950 . S
C1678 C1676 1.391 . S
C1678 C1679 1.400 . S
C1679 C1678 1.400 . S
C1679 C1680 1.398 . S
C1679 C1685 1.491 . S
C1680 H1671 0.950 . S
C1680 C1679 1.398 . S
C1680 C1681 1.391 . S
C1681 H1669 0.950 . S
C1681 C1677 1.393 . S
C1681 C1680 1.391 . S
C1682 H1672 0.950 . S
C1682 C1683 1.386 . S
C1682 C1684 1.391 . S
C1683 C1682 1.386 . S
C1683 C1687 1.393 . S
C1684 H1673 0.950 . S
C1684 C1682 1.391 . S
C1684 C1685 1.400 . S
C1685 C1679 1.491 . S
C1685 C1684 1.400 . S
C1685 C1686 1.398 . S
C1686 H1674 0.950 . S
C1686 C1685 1.398 . S
C1686 C1687 1.391 . S
C1687 H1675 0.950 . S
C1687 C1683 1.393 . S
C1687 C1686 1.391 . S
H1688 C1696 0.950 . S
H1689 C1701 0.950 . S
H1690 C1698 0.950 . S
H1691 C1700 0.950 . S
H1692 C1702 0.950 . S
H1693 C1704 0.950 . S
H1694 C1706 0.950 . S
H1695 C1707 0.950 . S
C1696 H1688 0.950 . S
C1696 C1697 1.386 . S
C1696 C1698 1.391 . S
C1697 C1696 1.386 . S
C1697 C1701 1.393 . S
C1698 H1690 0.950 . S
C1698 C1696 1.391 . S
C1698 C1699 1.400 . S
C1699 C1698 1.400 . S
C1699 C1700 1.398 . S
C1699 C1705 1.491 . S
C1700 H1691 0.950 . S
C1700 C1699 1.398 . S
C1700 C1701 1.391 . S
C1701 H1689 0.950 . S
C1701 C1697 1.393 . S
C1701 C1700 1.391 . S
C1702 H1692 0.950 . S
C1702 C1703 1.386 . S
C1702 C1704 1.391 . S
C1703 C1702 1.386 . S
C1703 C1707 1.393 . S
C1704 H1693 0.950 . S
C1704 C1702 1.391 . S
C1704 C1705 1.400 . S
C1705 C1699 1.491 . S
C1705 C1704 1.400 . S
C1705 C1706 1.398 . S
C1706 H1694 0.950 . S
C1706 C1705 1.398 . S
C1706 C1707 1.391 . S
C1707 H1695 0.950 . S
C1707 C1703 1.393 . S
C1707 C1706 1.391 . S
H1708 C1716 0.950 . S
H1709 C1721 0.950 . S
H1710 C1718 0.950 . S
H1711 C1720 0.950 . S
H1712 C1722 0.950 . S
H1713 C1724 0.950 . S
H1714 C1726 0.950 . S
H1715 C1727 0.950 . S
C1716 H1708 0.950 . S
C1716 C1717 1.386 . S
C1716 C1718 1.391 . S
C1717 C1716 1.386 . S
C1717 C1721 1.393 . S
C1718 H1710 0.950 . S
C1718 C1716 1.391 . S
C1718 C1719 1.400 . S
C1719 C1718 1.400 . S
C1719 C1720 1.398 . S
C1719 C1725 1.491 . S
C1720 H1711 0.950 . S
C1720 C1719 1.398 . S
C1720 C1721 1.391 . S
C1721 H1709 0.950 . S
C1721 C1717 1.393 . S
C1721 C1720 1.391 . S
C1722 H1712 0.950 . S
C1722 C1723 1.386 . S
C1722 C1724 1.391 . S
C1723 C1722 1.386 . S
C1723 C1727 1.393 . S
C1724 H1713 0.950 . S
C1724 C1722 1.391 . S
C1724 C1725 1.400 . S
C1725 C1719 1.491 . S
C1725 C1724 1.400 . S
C1725 C1726 1.398 . S
C1726 H1714 0.950 . S
C1726 C1725 1.398 . S
C1726 C1727 1.391 . S
C1727 H1715 0.950 . S
C1727 C1723 1.393 . S
C1727 C1726 1.391 . S
C1017 C487 1.594 . S
C1023 C58 1.260 . S
C1037 C142 1.298 . S
C1043 C67 1.707 . S
C1057 C226 1.296 . S
C1063 C151 1.686 . S
C1077 C235 1.604 . S
C1083 C310 1.272 . S
C1097 C319 1.685 . S
C1103 C394 1.238 . S
C1117 C478 1.349 . S
C1123 C403 1.707 . S
C1137 C655 1.590 . S
C1143 C562 1.221 . S
C1157 C646 1.335 . S
C1163 C739 1.693 . S
C1177 C823 1.704 . S
C1183 C730 1.291 . S
C1197 C907 1.595 . S
C1203 C814 1.263 . S
C1217 C991 1.705 . S
C1223 C898 1.347 . S
C1237 C571 1.703 . S
C1243 C982 1.269 . S
C1257 C980 3.453 . S
C1263 C55 3.409 . S
C1277 C139 2.957 . S
C1283 C560 2.995 . S
C1297 C644 3.242 . S
C1303 C223 3.176 . S
C1317 C728 3.451 . S
C1323 C307 3.407 . S
C1337 C812 3.006 . S
C1343 C391 2.951 . S
C1357 C475 3.189 . S
C1363 C896 3.243 . S
C1377 C559 3.396 . S
C1383 C140 3.453 . S
C1397 C643 3.177 . S
C1403 C224 3.235 . S
C1417 C308 2.999 . S
C1423 C727 2.955 . S
C1437 C392 3.459 . S
C1443 C811 3.405 . S
C1457 C895 3.190 . S
C1463 C476 3.242 . S
C1477 C979 2.960 . S
C1483 C56 3.001 . S
C1497 C572 2.186 . S
C1503 C68 2.199 . S
C1517 C152 1.468 . S
C1523 C656 1.472 . S
C1537 C740 1.473 . S
C1543 C236 1.474 . S
C1557 C320 2.196 . S
C1563 C824 2.202 . S
C1577 C908 1.487 . S
C1583 C404 1.462 . S
C1597 C992 1.473 . S
C1603 C488 1.474 . S
C1617 C574 0.474 . S
C1623 C70 0.516 . S
C1637 C658 0.373 . S
C1643 C154 0.308 . S
C1657 C742 0.340 . S
C1663 C238 0.284 . S
C1677 C322 0.475 . S
C1683 C826 0.504 . S
C1697 C910 0.374 . S
C1703 C406 0.306 . S
C1717 C994 0.261 . S
C1723 C490 0.364 . S
