# Generated by pormake.
# Topology zfm, (5)-cn, num edge types: 1
# Building blocks:
#     Node 0, Type 0, BuildingBlock: BEQFEK_clean_sbu_0, # of connection points: 5
#     Node 1, Type 0, BuildingBlock: BEQFEK_clean_sbu_0, # of connection points: 5
#     Node 2, Type 0, BuildingBlock: BEQFEK_clean_sbu_0, # of connection points: 5
#     Node 3, Type 0, BuildingBlock: BEQFEK_clean_sbu_0, # of connection points: 5
#     Node 4, Type 0, BuildingBlock: BEQFEK_clean_sbu_0, # of connection points: 5
#     Node 5, Type 0, BuildingBlock: BEQFEK_clean_sbu_0, # of connection points: 5
#     Node 6, Type 0, BuildingBlock: BEQFEK_clean_sbu_0, # of connection points: 5
#     Node 7, Type 0, BuildingBlock: BEQFEK_clean_sbu_0, # of connection points: 5
#     Node 8, Type 0, BuildingBlock: BEQFEK_clean_sbu_0, # of connection points: 5
#     Node 9, Type 0, BuildingBlock: BEQFEK_clean_sbu_0, # of connection points: 5
#     Node 10, Type 0, BuildingBlock: BEQFEK_clean_sbu_0, # of connection points: 5
#     Node 11, Type 0, BuildingBlock: BEQFEK_clean_sbu_0, # of connection points: 5
#     Node 12, Type 0, BuildingBlock: BEQFEK_clean_sbu_0, # of connection points: 5
#     Node 13, Type 0, BuildingBlock: BEQFEK_clean_sbu_0, # of connection points: 5
#     Node 14, Type 0, BuildingBlock: BEQFEK_clean_sbu_0, # of connection points: 5
#     Node 15, Type 0, BuildingBlock: BEQFEK_clean_sbu_0, # of connection points: 5
#     Edge 16, Type (0, 0), BuildingBlock: AJUNOK_clean_linker_0, # of connection points: 2
#     Edge 17, Type (0, 0), BuildingBlock: AJUNOK_clean_linker_0, # of connection points: 2
#     Edge 18, Type (0, 0), BuildingBlock: AJUNOK_clean_linker_0, # of connection points: 2
#     Edge 19, Type (0, 0), BuildingBlock: AJUNOK_clean_linker_0, # of connection points: 2
#     Edge 20, Type (0, 0), BuildingBlock: AJUNOK_clean_linker_0, # of connection points: 2
#     Edge 21, Type (0, 0), BuildingBlock: AJUNOK_clean_linker_0, # of connection points: 2
#     Edge 22, Type (0, 0), BuildingBlock: AJUNOK_clean_linker_0, # of connection points: 2
#     Edge 23, Type (0, 0), BuildingBlock: AJUNOK_clean_linker_0, # of connection points: 2
#     Edge 24, Type (0, 0), BuildingBlock: AJUNOK_clean_linker_0, # of connection points: 2
#     Edge 25, Type (0, 0), BuildingBlock: AJUNOK_clean_linker_0, # of connection points: 2
#     Edge 26, Type (0, 0), BuildingBlock: AJUNOK_clean_linker_0, # of connection points: 2
#     Edge 27, Type (0, 0), BuildingBlock: AJUNOK_clean_linker_0, # of connection points: 2
#     Edge 28, Type (0, 0), BuildingBlock: AJUNOK_clean_linker_0, # of connection points: 2
#     Edge 29, Type (0, 0), BuildingBlock: AJUNOK_clean_linker_0, # of connection points: 2
#     Edge 30, Type (0, 0), BuildingBlock: AJUNOK_clean_linker_0, # of connection points: 2
#     Edge 31, Type (0, 0), BuildingBlock: AJUNOK_clean_linker_0, # of connection points: 2
#     Edge 32, Type (0, 0), BuildingBlock: AJUNOK_clean_linker_0, # of connection points: 2
#     Edge 33, Type (0, 0), BuildingBlock: AJUNOK_clean_linker_0, # of connection points: 2
#     Edge 34, Type (0, 0), BuildingBlock: AJUNOK_clean_linker_0, # of connection points: 2
#     Edge 35, Type (0, 0), BuildingBlock: AJUNOK_clean_linker_0, # of connection points: 2
#     Edge 36, Type (0, 0), BuildingBlock: AJUNOK_clean_linker_0, # of connection points: 2
#     Edge 37, Type (0, 0), BuildingBlock: AJUNOK_clean_linker_0, # of connection points: 2
#     Edge 38, Type (0, 0), BuildingBlock: AJUNOK_clean_linker_0, # of connection points: 2
#     Edge 39, Type (0, 0), BuildingBlock: AJUNOK_clean_linker_0, # of connection points: 2
#     Edge 40, Type (0, 0), BuildingBlock: AJUNOK_clean_linker_0, # of connection points: 2
#     Edge 41, Type (0, 0), BuildingBlock: AJUNOK_clean_linker_0, # of connection points: 2
#     Edge 42, Type (0, 0), BuildingBlock: AJUNOK_clean_linker_0, # of connection points: 2
#     Edge 43, Type (0, 0), BuildingBlock: AJUNOK_clean_linker_0, # of connection points: 2
#     Edge 44, Type (0, 0), BuildingBlock: AJUNOK_clean_linker_0, # of connection points: 2
#     Edge 45, Type (0, 0), BuildingBlock: AJUNOK_clean_linker_0, # of connection points: 2
#     Edge 46, Type (0, 0), BuildingBlock: AJUNOK_clean_linker_0, # of connection points: 2
#     Edge 47, Type (0, 0), BuildingBlock: AJUNOK_clean_linker_0, # of connection points: 2
#     Edge 48, Type (0, 0), BuildingBlock: AJUNOK_clean_linker_0, # of connection points: 2
#     Edge 49, Type (0, 0), BuildingBlock: AJUNOK_clean_linker_0, # of connection points: 2
#     Edge 50, Type (0, 0), BuildingBlock: AJUNOK_clean_linker_0, # of connection points: 2
#     Edge 51, Type (0, 0), BuildingBlock: AJUNOK_clean_linker_0, # of connection points: 2
#     Edge 52, Type (0, 0), BuildingBlock: AJUNOK_clean_linker_0, # of connection points: 2
#     Edge 53, Type (0, 0), BuildingBlock: AJUNOK_clean_linker_0, # of connection points: 2
#     Edge 54, Type (0, 0), BuildingBlock: AJUNOK_clean_linker_0, # of connection points: 2
#     Edge 55, Type (0, 0), BuildingBlock: AJUNOK_clean_linker_0, # of connection points: 2
# Relax obj value: 0.119
# Max RMSD: 0.191
# Mean RMSD: 0.191
data_MOF--net-zfm--node1-BEQFEK_clean_sbu_0--edge1-AJUNOK_clean_linker_0
_symmetry_space_group_name_H-M    P1
_symmetry_Int_Tables_number       1
_symmetry_cell_setting            triclinic
loop_
_symmetry_equiv_pos_as_xyz
'x, y, z'
_cell_length_a     21.503166
_cell_length_b     21.47031
_cell_length_c     60.864453
_cell_angle_alpha  90.061654
_cell_angle_beta   89.950704
_cell_angle_gamma 89.995833
loop_
_atom_site_label
_atom_site_type_symbol
_atom_site_fract_x
_atom_site_fract_y
_atom_site_fract_z
_atom_type_partial_charge
Co0 Co 0.43174 0.0868 0.16213 0.0
Co1 Co 0.43462 0.09947 0.11042 0.0
C2 C 0.36414 0.99712 0.13467 0.0
O3 O 0.3844 0.0118 0.15363 0.0
O4 O 0.3817 0.02633 0.11749 0.0
C5 C 0.42155 0.04952 0.20801 0.0
O6 O 0.39419 -0.00032 0.20006 0.0
C7 C 0.46192 0.05521 0.06583 0.0
C8 C 0.46209 0.14275 0.04678 0.0
C9 C 0.47108 0.07906 0.04488 0.0
N10 N 0.44855 0.10262 0.07946 0.0
N11 N 0.44817 0.15477 0.06794 0.0
C12 C 0.47048 0.9894 0.07328 0.0
H13 H 0.48307 0.98822 0.09097 0.0
H14 H 0.50699 0.9658 0.06341 0.0
H15 H 0.42609 0.96378 0.07111 0.0
C16 C 0.56893 0.0855 0.15444 0.0
N17 N 0.5098 0.09194 0.1474 0.0
N18 N 0.5103 0.10124 0.12605 0.0
C19 C 0.56954 0.10376 0.119 0.0
C20 C 0.60893 0.09251 0.1366 0.0
C21 C 0.58578 0.0668 0.17735 0.0
H22 H 0.55262 0.03107 0.18337 0.0
H23 H 0.63394 0.04846 0.17827 0.0
H24 H 0.58175 0.10805 0.18826 0.0
O25 O 0.37428 0.15654 0.15414 0.0
O26 O 0.38232 0.16971 0.11811 0.0
H27 H 0.63869 0.12764 0.09457 0.0
H28 H 0.5787 0.07487 0.08547 0.0
C29 C 0.5884 0.11639 0.09574 0.0
H30 H 0.56108 0.15601 0.0892 0.0
H31 H 0.43941 0.19872 0.0746 0.0
O32 O 0.44233 0.09038 0.19475 0.0
C33 C 0.35808 0.18403 0.13646 0.0
Co34 Co 0.40597 0.43462 0.66564 0.0
Co35 Co 0.41282 0.42728 0.61383 0.0
C36 C 0.5044 0.36074 0.64242 0.0
O37 O 0.47853 0.38169 0.65972 0.0
O38 O 0.48647 0.37748 0.62336 0.0
C39 C 0.44655 0.44052 0.71068 0.0
O40 O 0.50049 0.42687 0.70177 0.0
C41 C 0.4641 0.44905 0.56998 0.0
C42 C 0.38078 0.44029 0.54895 0.0
C43 C 0.44403 0.45236 0.54835 0.0
N44 N 0.41496 0.43543 0.58272 0.0
N45 N 0.3654 0.42966 0.57005 0.0
C46 C 0.5274 0.46342 0.57882 0.0
H47 H 0.52351 0.48405 0.59551 0.0
H48 H 0.55285 0.49567 0.56777 0.0
H49 H 0.55421 0.41946 0.58027 0.0
C50 C 0.40954 0.57044 0.65526 0.0
N51 N 0.4076 0.50996 0.64925 0.0
N52 N 0.40529 0.50638 0.6277 0.0
C53 C 0.40189 0.56434 0.61936 0.0
C54 C 0.40541 0.60738 0.63645 0.0
C55 C 0.42248 0.59139 0.67827 0.0
H56 H 0.45229 0.55683 0.68673 0.0
H57 H 0.44607 0.63733 0.67853 0.0
H58 H 0.37793 0.59491 0.6874 0.0
O59 O 0.33493 0.38007 0.65709 0.0
O60 O 0.34191 0.37438 0.62075 0.0
H61 H 0.37579 0.62649 0.59295 0.0
H62 H 0.43755 0.57227 0.58665 0.0
C63 C 0.3928 0.57823 0.59547 0.0
H64 H 0.35843 0.54545 0.5884 0.0
H65 H 0.32085 0.41967 0.57587 0.0
O66 O 0.39986 0.44874 0.69814 0.0
C67 C 0.31659 0.35812 0.6387 0.0
Co68 Co 0.06001 0.41797 0.16596 0.0
Co69 Co 0.04847 0.42274 0.11462 0.0
C70 C 0.12328 0.51571 0.13763 0.0
O71 O 0.11199 0.48962 0.15599 0.0
O72 O 0.09523 0.4992 0.12021 0.0
C73 C 0.03937 0.46882 0.20908 0.0
O74 O 0.01904 0.51795 0.19842 0.0
C75 C 0.02513 0.46437 0.06954 0.0
C76 C 0.01617 0.37532 0.05157 0.0
C77 C 0.0155 0.43932 0.04884 0.0
N78 N 0.03092 0.41731 0.08394 0.0
N79 N 0.02547 0.36418 0.0731 0.0
C80 C 0.03354 0.53156 0.07545 0.0
H81 H 0.08384 0.54075 0.07792 0.0
H82 H 0.00934 0.54184 0.09115 0.0
H83 H 0.01636 0.56309 0.0624 0.0
C84 C 0.92314 0.40269 0.16165 0.0
N85 N 0.98006 0.41139 0.15296 0.0
N86 N 0.97489 0.41714 0.13156 0.0
C87 C 0.91425 0.4156 0.12601 0.0
C88 C 0.879 0.40524 0.1449 0.0
C89 C 0.91174 0.39038 0.18552 0.0
H90 H 0.94961 0.36101 0.19227 0.0
H91 H 0.9116 0.43521 0.1946 0.0
H92 H 0.86639 0.36675 0.18807 0.0
O93 O 0.11112 0.34646 0.15806 0.0
O94 O 0.10874 0.35528 0.12176 0.0
H95 H 0.8938 0.39007 0.09283 0.0
H96 H 0.84234 0.44893 0.10394 0.0
C97 C 0.89094 0.43181 0.10355 0.0
H98 H 0.92038 0.46875 0.09632 0.0
H99 H 0.02883 0.32032 0.08038 0.0
O100 O 0.05628 0.421 0.19834 0.0
C101 C 0.13016 0.33006 0.13914 0.0
Co102 Co 0.08647 0.05684 0.66627 0.0
Co103 Co 0.06799 0.05477 0.61503 0.0
C104 C 0.98028 0.12351 0.64238 0.0
O105 O 0.01257 0.10687 0.65889 0.0
O106 O 0.99208 0.10235 0.62324 0.0
C107 C 0.03964 0.03039 0.70907 0.0
O108 O 0.99091 0.01031 0.69816 0.0
C109 C 0.02712 0.03831 0.56874 0.0
C110 C 0.11521 0.00914 0.55306 0.0
C111 C 0.0528 0.01929 0.54884 0.0
N112 N 0.07221 0.03814 0.58407 0.0
N113 N 0.12474 0.02103 0.57452 0.0
C114 C 0.9621 0.05999 0.573 0.0
H115 H 0.96358 0.10581 0.58138 0.0
H116 H 0.93856 0.02662 0.58416 0.0
H117 H 0.93509 0.06482 0.55758 0.0
C118 C 0.09933 0.92189 0.65927 0.0
N119 N 0.08966 0.97994 0.65178 0.0
N120 N 0.0768 0.97792 0.6307 0.0
C121 C 0.07477 0.91772 0.6243 0.0
C122 C 0.08989 0.87988 0.64217 0.0
C123 C 0.11849 0.90747 0.68235 0.0
H124 H 0.14956 0.94465 0.68865 0.0
H125 H 0.07662 0.90583 0.69299 0.0
H126 H 0.1427 0.86187 0.68324 0.0
O127 O 0.15531 0.10958 0.65764 0.0
O128 O 0.13677 0.11496 0.62183 0.0
H129 H 0.09037 0.89684 0.5904 0.0
H130 H 0.0307 0.84986 0.60307 0.0
C131 C 0.05125 0.89718 0.6023 0.0
H132 H 0.01544 0.93015 0.5963 0.0
H133 H 0.16708 0.01674 0.58275 0.0
O134 O 0.08715 0.04904 0.69855 0.0
C135 C 0.16642 0.13291 0.63886 0.0
Co136 Co 0.4369 0.4114 0.85134 0.0
Co137 Co 0.43609 0.3931 0.90284 0.0
C138 C 0.36712 0.49775 0.87904 0.0
O139 O 0.38924 0.48548 0.86014 0.0
O140 O 0.38326 0.46648 0.89592 0.0
C141 C 0.40909 0.43279 0.80583 0.0
O142 O 0.35408 0.44691 0.81384 0.0
C143 C 0.46334 0.43762 0.94723 0.0
C144 C 0.45296 0.35267 0.96736 0.0
C145 C 0.46676 0.41565 0.96869 0.0
N146 N 0.4477 0.39004 0.93398 0.0
N147 N 0.44133 0.33941 0.94611 0.0
C148 C 0.47977 0.50108 0.93889 0.0
H149 H 0.50053 0.49751 0.92222 0.0
H150 H 0.51265 0.52493 0.95015 0.0
H151 H 0.43676 0.52933 0.93747 0.0
C152 C 0.57338 0.41137 0.86024 0.0
N153 N 0.51372 0.40499 0.86672 0.0
N154 N 0.51269 0.39241 0.88784 0.0
C155 C 0.57137 0.38699 0.89522 0.0
C156 C 0.61212 0.40031 0.87814 0.0
C157 C 0.59225 0.43358 0.83791 0.0
H158 H 0.55652 0.46559 0.83122 0.0
H159 H 0.63779 0.45782 0.83838 0.0
H160 H 0.59616 0.39283 0.82677 0.0
O161 O 0.37885 0.34044 0.85786 0.0
O162 O 0.38488 0.32319 0.89384 0.0
H163 H 0.63737 0.35184 0.91896 0.0
H164 H 0.58088 0.40619 0.92962 0.0
C165 C 0.58808 0.36701 0.91804 0.0
H166 H 0.55743 0.32814 0.92321 0.0
H167 H 0.42952 0.29571 0.93985 0.0
O168 O 0.45163 0.41541 0.819 0.0
C169 C 0.36216 0.31067 0.87507 0.0
Co170 Co 0.10163 0.44497 0.34683 0.0
Co171 Co 0.07537 0.44516 0.39762 0.0
C172 C 0.99294 0.37618 0.36946 0.0
O173 O 0.02864 0.39305 0.35389 0.0
O174 O -0.00015 0.39848 0.38873 0.0
C175 C 0.05438 0.47392 0.30447 0.0
O176 O 0.00574 0.49247 0.3158 0.0
C177 C 0.03448 0.46067 0.4443 0.0
C178 C 0.12429 0.48313 0.46004 0.0
C179 C 0.06156 0.47551 0.46442 0.0
N180 N 0.07927 0.46007 0.42879 0.0
N181 N 0.13275 0.4734 0.4384 0.0
C182 C 0.96789 0.44454 0.43997 0.0
H183 H 0.96532 0.40341 0.429 0.0
H184 H 0.945 0.4841 0.4315 0.0
H185 H 0.94251 0.43413 0.45541 0.0
C186 C 0.11068 0.57923 0.35423 0.0
N187 N 0.102 0.52101 0.36164 0.0
N188 N 0.0845 0.5226 0.3823 0.0
C189 C 0.07787 0.58273 0.38838 0.0
C190 C 0.09405 0.62095 0.37071 0.0
C191 C 0.13818 0.59382 0.33221 0.0
H192 H 0.1759 0.56015 0.32844 0.0
H193 H 0.10229 0.58861 0.31929 0.0
H194 H 0.15687 0.64201 0.33175 0.0
O195 O 0.1709 0.39354 0.35546 0.0
O196 O 0.14365 0.38389 0.39047 0.0
H197 H 0.08917 0.60686 0.42216 0.0
H198 H 0.02702 0.64814 0.40863 0.0
C199 C 0.05106 0.6026 0.40997 0.0
H200 H 0.01763 0.56719 0.41595 0.0
H201 H 0.17515 0.47617 0.4301 0.0
O202 O 0.10234 0.45482 0.31461 0.0
C203 C 0.17688 0.36735 0.37405 0.0
Co204 Co 0.05451 0.093 0.84695 0.0
Co205 Co 0.05372 0.07091 0.89791 0.0
C206 C 0.12666 0.9893 0.8704 0.0
O207 O 0.10887 0.02182 0.85411 0.0
O208 O 0.10271 0.99673 0.88935 0.0
C209 C 0.02894 0.04461 0.8044 0.0
O210 O 0.01243 0.99495 0.81557 0.0
C211 C 0.03671 0.02352 0.94298 0.0
C212 C 0.02323 0.11083 0.96164 0.0
C213 C 0.02584 0.04668 0.96401 0.0
N214 N 0.04078 0.07187 0.92901 0.0
N215 N 0.03303 0.12388 0.9403 0.0
C216 C 0.03775 0.95686 0.93572 0.0
H217 H 0.01959 0.95259 0.91873 0.0
H218 H 0.00987 0.92719 0.94694 0.0
H219 H 0.08652 0.94001 0.93559 0.0
C220 C 0.91951 0.10164 0.85432 0.0
N221 N 0.97776 0.09295 0.86169 0.0
N222 N 0.97623 0.07956 0.88274 0.0
C223 C 0.91624 0.07683 0.88927 0.0
C224 C 0.87795 0.09136 0.87146 0.0
C225 C 0.90439 0.12058 0.83127 0.0
H226 H 0.9404 0.15304 0.82501 0.0
H227 H 0.90419 0.07873 0.82057 0.0
H228 H 0.85805 0.14324 0.83042 0.0
O229 O 0.10543 0.16376 0.85553 0.0
O230 O 0.11315 0.13985 0.89091 0.0
H231 H 0.89885 0.09356 0.92333 0.0
H232 H 0.84831 0.03562 0.91122 0.0
C233 C 0.89633 0.05438 0.91146 0.0
H234 H 0.92802 0.01722 0.91716 0.0
H235 H 0.03359 0.1683 0.93335 0.0
O236 O 0.04548 0.09332 0.81471 0.0
C237 C 0.13037 0.17161 0.87426 0.0
Co238 Co 0.40985 0.05857 0.34838 0.0
Co239 Co 0.4087 0.06656 0.40015 0.0
C240 C 0.50262 0.13481 0.37196 0.0
O241 O 0.48385 0.10946 0.35428 0.0
O242 O 0.47893 0.12088 0.3905 0.0
C243 C 0.42077 0.08698 0.30324 0.0
O244 O 0.43278 0.14166 0.31192 0.0
C245 C 0.45863 0.04257 0.44426 0.0
C246 C 0.37632 0.06017 0.46511 0.0
C247 C 0.43836 0.04282 0.46595 0.0
N248 N 0.41066 0.05864 0.43131 0.0
N249 N 0.36166 0.06923 0.44388 0.0
C250 C 0.52282 0.02952 0.43589 0.0
H251 H 0.53001 0.05121 0.41959 0.0
H252 H 0.529 0.97851 0.43399 0.0
H253 H 0.55825 0.04691 0.44765 0.0
C254 C 0.41159 0.92304 0.35909 0.0
N255 N 0.40929 0.9836 0.36495 0.0
N256 N 0.40423 0.98745 0.38643 0.0
C257 C 0.39923 0.92968 0.39481 0.0
C258 C 0.40468 0.88642 0.37788 0.0
C259 C 0.42698 0.90166 0.3363 0.0
H260 H 0.38336 0.8973 0.3267 0.0
H261 H 0.45714 0.93638 0.32803 0.0
H262 H 0.45105 0.85596 0.33649 0.0
O263 O 0.33923 0.11551 0.35631 0.0
O264 O 0.33624 0.11606 0.3928 0.0
H265 H 0.3522 0.95048 0.42503 0.0
H266 H 0.36668 0.86865 0.42062 0.0
C267 C 0.38603 0.91619 0.4185 0.0
H268 H 0.42962 0.91997 0.4281 0.0
H269 H 0.31811 0.08248 0.43795 0.0
O270 O 0.40762 0.042 0.31604 0.0
C271 C 0.31603 0.13507 0.3744 0.0
Co272 Co 0.55706 0.90071 0.84723 0.0
Co273 Co 0.55838 0.91772 0.89863 0.0
C274 C 0.62436 0.00698 0.87041 0.0
O275 O 0.60695 0.97607 0.85363 0.0
O276 O 0.60478 0.99323 0.88956 0.0
C277 C 0.57444 0.92621 0.80143 0.0
O278 O 0.61722 0.9644 0.80888 0.0
C279 C 0.53842 0.96746 0.94307 0.0
C280 C 0.53687 0.88154 0.96303 0.0
C281 C 0.53179 0.94576 0.96447 0.0
N282 N 0.54746 0.9183 0.92974 0.0
N283 N 0.54687 0.86714 0.94178 0.0
C284 C 0.53167 0.03291 0.93495 0.0
H285 H 0.51365 0.03311 0.91788 0.0
H286 H 0.50027 0.06019 0.94579 0.0
H287 H 0.57807 0.05546 0.93471 0.0
C288 C 0.42255 0.89385 0.85529 0.0
N289 N 0.48123 0.89828 0.86271 0.0
N290 N 0.48046 0.90763 0.88405 0.0
C291 C 0.42066 0.91035 0.89084 0.0
C292 C 0.38182 0.90202 0.87278 0.0
C293 C 0.40596 0.88523 0.8316 0.0
H294 H 0.43178 0.8447 0.8249 0.0
H295 H 0.42036 0.92704 0.82218 0.0
H296 H 0.3553 0.87748 0.82943 0.0
O297 O 0.61223 0.83248 0.85566 0.0
O298 O 0.61739 0.84918 0.89159 0.0
H299 H 0.42356 0.895 0.92555 0.0
H300 H 0.35002 0.92469 0.91581 0.0
C301 C 0.40117 0.9271 0.9137 0.0
H302 H 0.41684 0.97508 0.91748 0.0
H303 H 0.55249 0.82231 0.93544 0.0
O304 O 0.54264 0.89466 0.81506 0.0
C305 C 0.63562 0.82059 0.87438 0.0
Co306 Co 0.58172 0.57055 0.35185 0.0
Co307 Co 0.59209 0.56046 0.40334 0.0
C308 C 0.49003 0.63285 0.38101 0.0
O309 O 0.50655 0.61586 0.36183 0.0
O310 O 0.51809 0.6131 0.39808 0.0
C311 C 0.54273 0.59221 0.30705 0.0
O312 O 0.50014 0.62772 0.31613 0.0
C313 C 0.55133 0.53066 0.44798 0.0
C314 C 0.6405 0.52289 0.46578 0.0
C315 C 0.57666 0.518 0.4685 0.0
N316 N 0.59799 0.54219 0.43388 0.0
N317 N 0.65118 0.53788 0.44463 0.0
C318 C 0.48441 0.5277 0.4413 0.0
H319 H 0.48045 0.51731 0.42349 0.0
H320 H 0.45925 0.49171 0.4509 0.0
H321 H 0.46235 0.57359 0.44441 0.0
C322 C 0.58901 0.43386 0.35587 0.0
N323 N 0.59011 0.4911 0.36485 0.0
N324 N 0.59264 0.48606 0.38635 0.0
C325 C 0.59216 0.42509 0.39176 0.0
C326 C 0.58946 0.38976 0.3726 0.0
C327 C 0.58583 0.42204 0.33165 0.0
H328 H 0.62375 0.44794 0.32333 0.0
H329 H 0.54101 0.43988 0.32518 0.0
H330 H 0.59034 0.37171 0.32777 0.0
O331 O 0.65082 0.62614 0.35982 0.0
O332 O 0.66172 0.61665 0.3959 0.0
H333 H 0.62614 0.42083 0.42476 0.0
H334 H 0.58856 0.35016 0.41576 0.0
C335 C 0.58735 0.40165 0.41486 0.0
H336 H 0.54304 0.41795 0.42217 0.0
H337 H 0.69478 0.54449 0.43747 0.0
O338 O 0.58115 0.56361 0.3193 0.0
C339 C 0.67714 0.64167 0.37775 0.0
Co340 Co 0.93545 0.57405 0.84999 0.0
Co341 Co 0.94033 0.5931 0.90147 0.0
C342 C 0.86522 0.49113 0.87873 0.0
O343 O 0.88549 0.50127 0.8594 0.0
O344 O 0.88526 0.52225 0.89503 0.0
C345 C 0.94852 0.521 0.80649 0.0
O346 O 0.94958 0.46808 0.8173 0.0
C347 C 0.96723 0.54822 0.94599 0.0
C348 C 0.96175 0.63482 0.96557 0.0
C349 C 0.97308 0.57148 0.96718 0.0
N350 N 0.95435 0.59591 0.93244 0.0
N351 N 0.95095 0.6475 0.94425 0.0
C352 C 0.96927 0.48154 0.93877 0.0
H353 H 0.92735 0.4706 0.92895 0.0
H354 H 0.01044 0.47429 0.92806 0.0
H355 H 0.97106 0.44906 0.9529 0.0
C356 C 0.07422 0.5737 0.85759 0.0
N357 N 0.01473 0.57952 0.8645 0.0
N358 N 0.01515 0.59218 0.88564 0.0
C359 C 0.07412 0.59796 0.89261 0.0
C360 C 0.11404 0.58556 0.87525 0.0
C361 C 0.09173 0.55053 0.83523 0.0
H362 H 0.08571 0.58873 0.82314 0.0
H363 H 0.06043 0.51189 0.83045 0.0
H364 H 0.1404 0.53361 0.83466 0.0
O365 O 0.87936 0.64613 0.85757 0.0
O366 O 0.89024 0.66399 0.89331 0.0
H367 H 0.06083 0.65403 0.92139 0.0
H368 H 0.14071 0.63292 0.91626 0.0
C369 C 0.09188 0.61632 0.91551 0.0
H370 H 0.08659 0.57567 0.92658 0.0
H371 H 0.9409 0.69133 0.93777 0.0
O372 O 0.94407 0.57184 0.81717 0.0
C373 C 0.86497 0.67632 0.87497 0.0
Co374 Co 0.90028 0.94399 0.34567 0.0
Co375 Co 0.92499 0.94701 0.39679 0.0
C376 C 0.00747 0.8754 0.36901 0.0
O377 O 0.97325 0.89212 0.353 0.0
O378 O -0.00078 0.89817 0.38815 0.0
C379 C 0.94341 0.9733 0.30217 0.0
O380 O 0.99134 0.99676 0.31268 0.0
C381 C 0.96581 0.96424 0.44336 0.0
C382 C 0.87569 0.98663 0.45897 0.0
C383 C 0.93835 0.97911 0.46341 0.0
N384 N 0.92126 0.9635 0.4278 0.0
N385 N 0.86761 0.97682 0.43733 0.0
C386 C 0.03249 0.94811 0.43917 0.0
H387 H 0.0354 0.90753 0.42797 0.0
H388 H 0.05578 0.98804 0.43105 0.0
H389 H 0.0573 0.93696 0.45465 0.0
C390 C 0.89237 0.07943 0.35252 0.0
N391 N 0.90077 0.02125 0.36007 0.0
N392 N 0.91718 0.02338 0.38084 0.0
C393 C 0.92338 0.08355 0.38685 0.0
C394 C 0.90789 0.12147 0.36906 0.0
C395 C 0.86535 0.09371 0.33041 0.0
H396 H 0.82867 0.05916 0.32639 0.0
H397 H 0.90187 0.0898 0.31764 0.0
H398 H 0.84549 0.14143 0.33 0.0
O399 O 0.83076 0.89334 0.35525 0.0
O400 O 0.85519 0.88757 0.39061 0.0
H401 H 0.91064 0.10749 0.42061 0.0
H402 H 0.97284 0.1495 0.40732 0.0
C403 C 0.94919 0.10373 0.40855 0.0
H404 H 0.98288 0.06875 0.41463 0.0
H405 H 0.82529 0.97925 0.42899 0.0
O406 O 0.89809 0.95114 0.31309 0.0
C407 C 0.82254 0.87007 0.37424 0.0
Co408 Co 0.55318 0.58567 0.16655 0.0
Co409 Co 0.56252 0.57358 0.11492 0.0
C410 C 0.62428 0.48227 0.14475 0.0
O411 O 0.60292 0.51032 0.16158 0.0
O412 O 0.6092 0.49885 0.12534 0.0
C413 C 0.57667 0.57788 0.21213 0.0
O414 O 0.63108 0.55967 0.2047 0.0
C415 C 0.54062 0.52419 0.07028 0.0
C416 C 0.54969 0.60936 0.0502 0.0
C417 C 0.53604 0.54639 0.04889 0.0
N418 N 0.55557 0.57202 0.08356 0.0
N419 N 0.56167 0.6226 0.07139 0.0
C420 C 0.52592 0.46008 0.07835 0.0
H421 H 0.51311 0.46138 0.09602 0.0
H422 H 0.4875 0.43929 0.06863 0.0
H423 H 0.56771 0.43024 0.07644 0.0
C424 C 0.41897 0.58584 0.15578 0.0
N425 N 0.47931 0.58557 0.14978 0.0
N426 N 0.48317 0.5841 0.12823 0.0
C427 C 0.42534 0.58653 0.11979 0.0
C428 C 0.38244 0.58637 0.13693 0.0
C429 C 0.39751 0.57939 0.17907 0.0
H430 H 0.42731 0.54533 0.18781 0.0
H431 H 0.34843 0.56387 0.1801 0.0
H432 H 0.40222 0.62505 0.18747 0.0
O433 O 0.61054 0.6547 0.15862 0.0
O434 O 0.61772 0.64283 0.12249 0.0
H435 H 0.44193 0.62701 0.08819 0.0
H436 H 0.36211 0.60466 0.09288 0.0
C437 C 0.41134 0.59145 0.09575 0.0
H438 H 0.42066 0.54617 0.08766 0.0
H439 H 0.57236 0.66657 0.07765 0.0
O440 O 0.53454 0.59223 0.19841 0.0
C441 C 0.63419 0.66981 0.14017 0.0
Co442 Co 0.90735 0.55661 0.66753 0.0
Co443 Co 0.92736 0.55347 0.61586 0.0
C444 C 0.01373 0.62332 0.64352 0.0
O445 O 0.98161 0.60684 0.66014 0.0
O446 O 0.00221 0.60164 0.62444 0.0
C447 C 0.95047 0.52376 0.71066 0.0
O448 O -0.00196 0.50176 0.69954 0.0
C449 C 0.97024 0.53638 0.56964 0.0
C450 C 0.88276 0.50691 0.55369 0.0
C451 C 0.94529 0.51709 0.54966 0.0
N452 N 0.92463 0.53629 0.58483 0.0
N453 N 0.87247 0.51902 0.57509 0.0
C454 C 0.03502 0.55834 0.5741 0.0
H455 H 0.03308 0.60391 0.58264 0.0
H456 H 0.05856 0.5248 0.58518 0.0
H457 H 0.06228 0.56374 0.55874 0.0
C458 C 0.89377 0.42115 0.66008 0.0
N459 N 0.90452 0.47933 0.65281 0.0
N460 N 0.91812 0.47735 0.63177 0.0
C461 C 0.91974 0.41731 0.62523 0.0
C462 C 0.90328 0.37935 0.6429 0.0
C463 C 0.87296 0.40629 0.68296 0.0
H464 H 0.84312 0.44434 0.68939 0.0
H465 H 0.91418 0.40211 0.69379 0.0
H466 H 0.84692 0.36166 0.68337 0.0
O467 O 0.83903 0.60979 0.65802 0.0
O468 O 0.85794 0.61285 0.62213 0.0
H469 H 0.90591 0.39684 0.5912 0.0
H470 H 0.96467 0.34948 0.60417 0.0
C471 C 0.94435 0.39689 0.60334 0.0
H472 H 0.98072 0.42968 0.59763 0.0
H473 H 0.82984 0.51478 0.58317 0.0
O474 O 0.90531 0.54815 0.70026 0.0
C475 C 0.82796 0.63165 0.63898 0.0
Co476 Co 0.93307 0.91862 0.16285 0.0
Co477 Co 0.9375 0.89987 0.11142 0.0
C478 C 0.86264 0.00187 0.13408 0.0
O479 O 0.88334 0.991 0.15328 0.0
O480 O 0.8826 0.97195 0.11741 0.0
C481 C 0.94389 0.97152 0.2065 0.0
O482 O 0.94532 0.025 0.19604 0.0
C483 C 0.96352 0.94141 0.06648 0.0
C484 C 0.96536 0.85284 0.04799 0.0
C485 C 0.9728 0.91659 0.04568 0.0
N486 N 0.95152 0.89453 0.08046 0.0
N487 N 0.95208 0.84173 0.06927 0.0
C488 C 0.96982 0.00798 0.07337 0.0
H489 H 0.9834 0.01084 0.09094 0.0
H490 H 0.00467 0.0324 0.06303 0.0
H491 H 0.92427 0.03158 0.07136 0.0
C492 C 0.07151 0.91858 0.15534 0.0
N493 N 0.01215 0.91278 0.14835 0.0
N494 N 0.01271 0.90068 0.12717 0.0
C495 C 0.07183 0.89527 0.12024 0.0
C496 C 0.11157 0.90729 0.13769 0.0
C497 C 0.08866 0.94143 0.17776 0.0
H498 H 0.08426 0.90253 0.18965 0.0
H499 H 0.05619 0.97878 0.18285 0.0
H500 H 0.13677 0.95993 0.17826 0.0
O501 O 0.87636 0.84698 0.15585 0.0
O502 O 0.88655 0.82976 0.12006 0.0
H503 H 0.06014 0.83889 0.0915 0.0
H504 H 0.13926 0.86254 0.09642 0.0
C505 C 0.08996 0.87762 0.0973 0.0
H506 H 0.08314 0.9181 0.08626 0.0
H507 H 0.94431 0.798 0.07622 0.0
O508 O 0.94133 0.92112 0.19552 0.0
C509 C 0.8612 0.81756 0.13841 0.0
Co510 Co 0.58267 0.92679 0.66193 0.0
Co511 Co 0.58816 0.93578 0.61048 0.0
C512 C 0.4895 0.86226 0.63345 0.0
O513 O 0.5079 0.87927 0.65241 0.0
O514 O 0.51507 0.88292 0.61604 0.0
C515 C 0.55215 0.89701 0.70658 0.0
O516 O 0.52291 0.84976 0.69757 0.0
C517 C 0.54678 0.96066 0.5656 0.0
C518 C 0.63533 0.97987 0.5484 0.0
C519 C 0.57157 0.97753 0.54547 0.0
N520 N 0.5937 0.95424 0.57996 0.0
N521 N 0.64658 0.96527 0.56956 0.0
C522 C 0.47995 0.94871 0.57111 0.0
H523 H 0.47381 0.89831 0.57448 0.0
H524 H 0.46716 0.97433 0.5863 0.0
H525 H 0.4484 0.96198 0.5575 0.0
C526 C 0.59441 0.06331 0.65752 0.0
N527 N 0.59077 0.00596 0.6487 0.0
N528 N 0.58838 0.01061 0.62722 0.0
C529 C 0.58723 0.07147 0.62167 0.0
C530 C 0.59187 0.10732 0.64074 0.0
C531 C 0.60064 0.07519 0.68167 0.0
H532 H 0.63531 0.04266 0.68875 0.0
H533 H 0.55532 0.06627 0.68982 0.0
H534 H 0.61555 0.12374 0.68505 0.0
O535 O 0.6526 0.8726 0.6542 0.0
O536 O 0.65878 0.88009 0.6179 0.0
H537 H 0.61571 0.09062 0.58868 0.0
H538 H 0.55614 0.14279 0.59885 0.0
C539 C 0.57317 0.0941 0.59894 0.0
H540 H 0.53677 0.0645 0.59149 0.0
H541 H 0.69027 0.96371 0.57699 0.0
O542 O 0.5806 0.93542 0.69428 0.0
C543 C 0.677 0.85655 0.63599 0.0
C544 C 0.40452 0.01232 0.24667 0.0
C545 C 0.42448 0.05954 0.23222 0.0
C546 C 0.40395 0.02133 0.26953 0.0
C547 C 0.42296 0.07812 0.27896 0.0
H548 H 0.38873 0.96792 0.24032 0.0
H549 H 0.38786 0.98354 0.27985 0.0
S550 S 0.48106 0.21648 0.24849 0.0
N551 N 0.46513 0.16498 0.22917 0.0
N552 N 0.4638 0.18204 0.27194 0.0
C553 C 0.44375 0.12556 0.26472 0.0
C554 C 0.44464 0.11625 0.24145 0.0
C555 C 0.37102 0.44849 0.76726 0.0
C556 C 0.42072 0.43661 0.78173 0.0
C557 C 0.38002 0.45092 0.74443 0.0
C558 C 0.43919 0.44175 0.73503 0.0
H559 H 0.32435 0.45523 0.77354 0.0
H560 H 0.33992 0.45923 0.73409 0.0
S561 S 0.58579 0.41277 0.76573 0.0
N562 N 0.53195 0.41807 0.78497 0.0
N563 N 0.549 0.42285 0.74222 0.0
C564 C 0.48965 0.43124 0.74935 0.0
C565 C 0.4804 0.42858 0.77261 0.0
C566 C 0.01146 0.51246 0.26879 0.0
C567 C 0.05232 0.47282 0.28018 0.0
C568 C 0.00786 0.51127 0.24577 0.0
C569 C 0.0441 0.46952 0.23335 0.0
H570 H 0.9823 0.545 0.2777 0.0
H571 H 0.97586 0.54276 0.2377 0.0
S572 S 0.15803 0.35548 0.25534 0.0
N573 N 0.12979 0.39062 0.27732 0.0
N574 N 0.12247 0.38772 0.2342 0.0
C575 C 0.08499 0.42944 0.24457 0.0
C576 C 0.0893 0.43132 0.26795 0.0
C577 C 0.99623 -0.00161 0.76846 0.0
C578 C 0.03147 0.04269 0.7801 0.0
C579 C -0.00106 0.99481 0.74546 0.0
C580 C 0.03798 0.0345 0.73332 0.0
H581 H 0.96595 0.96648 0.77715 0.0
H582 H 0.97076 0.96021 0.73717 0.0
S583 S 0.13974 0.15869 0.75591 0.0
N584 N 0.10632 0.12746 0.77769 0.0
N585 N 0.11212 0.12003 0.73459 0.0
C586 C 0.07364 0.07886 0.74476 0.0
C587 C 0.07013 0.08319 0.76811 0.0
C588 C 0.59905 0.95696 0.76283 0.0
C589 C 0.56532 0.91891 0.7774 0.0
C590 C 0.59365 0.95004 0.74006 0.0
C591 C 0.5545 0.90453 0.73081 0.0
H592 H 0.63044 0.99232 0.76901 0.0
H593 H 0.62122 0.98027 0.72966 0.0
S594 S 0.45368 0.79457 0.76166 0.0
N595 N 0.48954 0.83521 0.78088 0.0
N596 N 0.4795 0.82208 0.73804 0.0
C597 C 0.51953 0.86678 0.74514 0.0
C598 C 0.52487 0.87401 0.76841 0.0
C599 C 0.60007 0.55723 0.27347 0.0
C600 C 0.54839 0.58771 0.28277 0.0
C601 C 0.60843 0.55425 0.25069 0.0
C602 C 0.56525 0.58112 0.23615 0.0
H603 H 0.63504 0.53602 0.28385 0.0
H604 H 0.6493 0.53056 0.24446 0.0
S605 S 0.42071 0.66471 0.25193 0.0
N606 N 0.45242 0.64432 0.27554 0.0
N607 N 0.46802 0.63829 0.23269 0.0
C608 C 0.51271 0.61087 0.24515 0.0
C609 C 0.50435 0.6143 0.26844 0.0
C610 C 0.91906 0.5681 0.74715 0.0
C611 C 0.95025 0.52171 0.73504 0.0
C612 C 0.91987 0.56829 0.77023 0.0
C613 C 0.95057 0.52123 0.78211 0.0
H614 H 0.89458 0.60515 0.73873 0.0
H615 H 0.8953 0.60502 0.77884 0.0
S616 S 0.03864 0.3887 0.75825 0.0
N617 N 0.01296 0.4276 0.7367 0.0
N618 N 0.01304 0.42701 0.77999 0.0
C619 C 0.98149 0.47429 0.77021 0.0
C620 C 0.98175 0.47481 0.74671 0.0
C621 C 0.97231 0.01933 0.26581 0.0
C622 C 0.94273 0.97192 0.27785 0.0
C623 C 0.97225 0.01896 0.24274 0.0
C624 C 0.94406 0.97028 0.23086 0.0
H625 H 0.99492 0.05753 0.27428 0.0
H626 H 0.99504 0.0568 0.23416 0.0
S627 S 0.86194 0.83404 0.25468 0.0
N628 N 0.88496 0.87471 0.27622 0.0
N629 N 0.88624 0.87308 0.23294 0.0
C630 C 0.91512 0.92209 0.24273 0.0
C631 C 0.91403 0.9232 0.2662 0.0
C632 C 0.45769 0.98969 0.01888 0.0
C633 C 0.48812 0.04535 0.02453 0.0
C634 C 0.47231 0.95798 0.9994 0.0
C635 C 0.51763 0.98095 0.98482 0.0
H636 H 0.42149 0.97106 0.02935 0.0
H637 H 0.44726 0.91556 0.99557 0.0
S638 S 0.61505 0.12152 0.99325 0.0
N639 N 0.56785 0.12046 0.01467 0.0
N640 N 0.59658 0.05989 0.97837 0.0
C641 C 0.54941 0.0358 0.99054 0.0
C642 C 0.53418 0.06834 0.0103 0.0
C643 C 0.48807 0.53071 0.49491 0.0
C644 C 0.54407 0.50108 0.4891 0.0
C645 C 0.4562 0.5146 0.51416 0.0
C646 C 0.47977 0.46918 0.52851 0.0
H647 H 0.46895 0.56718 0.48469 0.0
H648 H 0.41308 0.53841 0.51798 0.0
S649 S 0.6234 0.37639 0.52061 0.0
N650 N 0.62117 0.42325 0.49912 0.0
N651 N 0.56113 0.39321 0.53537 0.0
C652 C 0.53578 0.43939 0.52303 0.0
C653 C 0.56811 0.45551 0.50336 0.0
C654 C 0.94746 0.54807 1.00623 0.0
C655 C 0.98534 0.53725 0.98777 0.0
C656 C 0.95747 0.5161 0.02597 0.0
C657 C 0.00605 0.47273 0.02795 0.0
H658 H 0.90923 0.58083 1.00529 0.0
H659 H 0.92665 0.5249 0.03972 0.0
S660 S 0.12187 0.43191 0.98522 0.0
N661 N 0.07616 0.4836 0.97327 0.0
N662 N 0.0939 0.42229 0.01028 0.0
C663 C 0.04472 0.462 0.00976 0.0
C664 C 0.03483 0.49484 0.9897 0.0
C665 C 0.04962 0.03274 0.50811 0.0
C666 C 0.02212 0.00915 0.52736 0.0
C667 C 0.02267 0.02247 0.48742 0.0
C668 C 0.96773 0.98749 0.48524 0.0
H669 H 0.09191 0.06003 0.50908 0.0
H670 H 0.04447 0.04296 0.4731 0.0
S671 S 0.88089 0.91039 0.53033 0.0
N672 N 0.93952 0.9454 0.54275 0.0
N673 N 0.88825 0.92701 0.50396 0.0
C674 C 0.94029 0.96292 0.50433 0.0
C675 C 0.96778 0.97326 0.52537 0.0
C676 C 0.54105 0.45375 0.02372 0.0
C677 C 0.51663 0.51285 0.02872 0.0
C678 C 0.52449 0.42268 1.00427 0.0
C679 C 0.48323 0.44974 0.98908 0.0
H680 H 0.57416 0.43189 0.03467 0.0
H681 H 0.54493 0.37752 1.00092 0.0
S682 S 0.40081 0.60033 0.99582 0.0
N683 N 0.44599 0.59537 0.01767 0.0
N684 N 0.41376 0.53633 0.98147 0.0
C685 C 0.45714 0.50797 0.99422 0.0
C686 C 0.47427 0.53974 0.01392 0.0
C687 C 0.94924 0.52963 0.50887 0.0
C688 C 0.9766 0.5068 0.52824 0.0
C689 C 0.97656 0.51898 0.48824 0.0
C690 C 0.03178 0.48431 0.48621 0.0
H691 H 0.9067 0.55658 0.50968 0.0
H692 H 0.95481 0.53896 0.47383 0.0
S693 S 0.11865 0.40932 0.5317 0.0
N694 N 0.05957 0.44421 0.54393 0.0
N695 N 0.1115 0.42508 0.50526 0.0
C696 C 0.05916 0.46057 0.50544 0.0
C697 C 0.0313 0.47133 0.52643 0.0
C698 C 0.9662 0.03294 0.99887 0.0
C699 C 0.014 0.01251 0.98477 0.0
C700 C 0.95344 0.00208 0.01867 0.0
C701 C 0.98806 0.94969 0.02508 0.0
H702 H 0.93778 0.07263 0.99442 0.0
H703 H 0.91546 0.01866 0.0288 0.0
S704 S 0.12286 0.88198 0.99555 0.0
N705 N 0.10005 0.94031 0.97983 0.0
N706 N 0.07439 0.88087 0.01661 0.0
C707 C 0.03664 0.92941 0.0114 0.0
C708 C 0.05017 0.96128 0.99137 0.0
C709 C 0.54871 0.96269 0.5057 0.0
C710 C 0.53797 0.99512 0.52536 0.0
C711 C 0.51649 0.97832 0.48647 0.0
C712 C 0.47349 0.0278 0.48618 0.0
H713 H 0.58124 0.92415 0.50533 0.0
H714 H 0.52432 0.95036 0.47194 0.0
S715 S 0.43281 0.12994 0.53329 0.0
N716 N 0.48402 0.08034 0.54339 0.0
N717 N 0.42378 0.11041 0.50723 0.0
C718 C 0.46325 0.06112 0.50577 0.0
C719 C 0.49569 0.04485 0.52534 0.0
C720 C 0.7214 0.10132 0.1478 0.0
C721 C 0.67487 0.07305 0.13498 0.0
C722 C 0.78358 0.08091 0.1466 0.0
C723 C 0.80116 0.03254 0.13221 0.0
H724 H 0.70942 0.13855 0.15906 0.0
H725 H 0.81776 0.10195 0.15737 0.0
S726 S 0.69491 0.94015 0.09665 0.0
N727 N 0.6495 0.99161 0.10879 0.0
N728 N 0.76562 0.95532 0.10563 0.0
C729 C 0.75468 0.00469 0.11914 0.0
C730 C 0.6917 0.02436 0.12079 0.0
C731 C 0.4774 0.75819 0.61679 0.0
C732 C 0.45511 0.80282 0.63179 0.0
C733 C 0.45989 0.69578 0.61828 0.0
C734 C 0.41735 0.67538 0.63427 0.0
H735 H 0.51277 0.77032 0.60484 0.0
H736 H 0.48259 0.66285 0.60745 0.0
S737 S 0.33733 0.77553 0.6752 0.0
N738 N 0.38472 0.82355 0.66215 0.0
N739 N 0.34711 0.70646 0.66367 0.0
C740 C 0.39087 0.72028 0.64833 0.0
C741 C 0.41069 0.78391 0.64736 0.0
C742 C 0.78673 0.45049 0.16372 0.0
C743 C 0.81046 0.41107 0.14734 0.0
C744 C 0.72402 0.46699 0.16415 0.0
C745 C 0.68256 0.4466 0.14773 0.0
H746 H 0.81742 0.47271 0.17543 0.0
H747 H 0.70967 0.50095 0.17629 0.0
S748 S 0.71851 0.33263 0.10378 0.0
N749 N 0.78532 0.34243 0.11675 0.0
N750 N 0.66774 0.37817 0.11638 0.0
C751 C 0.7044 0.40332 0.13223 0.0
C752 C 0.76825 0.3845 0.13231 0.0
C753 C 0.03309 0.72372 0.66259 0.0
C754 C 0.04936 0.6824 0.6455 0.0
C755 C 0.04855 0.78677 0.66167 0.0
C756 C 0.08298 0.81119 0.64408 0.0
H757 H 0.0033 0.70885 0.67595 0.0
H758 H 0.02972 0.81712 0.67423 0.0
S759 S 0.15035 0.72054 0.59794 0.0
N760 N 0.10983 0.66883 0.61205 0.0
N761 N 0.1425 0.78737 0.61115 0.0
C762 C 0.1054 0.76949 0.62807 0.0
C763 C 0.08806 0.70511 0.62865 0.0
C764 C 0.72309 0.39329 0.86517 0.0
C765 C 0.67891 0.41644 0.88016 0.0
C766 C 0.78514 0.41407 0.86564 0.0
C767 C 0.8052 0.45781 0.88139 0.0
H768 H 0.70906 0.36058 0.85255 0.0
H769 H 0.81698 0.39765 0.8531 0.0
S770 S 0.70626 0.53362 0.92393 0.0
N771 N 0.65872 0.4869 0.91055 0.0
N772 N 0.775 0.52283 0.91255 0.0
C773 C 0.76158 0.47908 0.89706 0.0
C774 C 0.69849 0.4593 0.89613 0.0
C775 C 0.09945 0.73127 0.38471 0.0
C776 C 0.08171 0.68874 0.36827 0.0
C777 C 0.0801 0.79385 0.38399 0.0
C778 C 0.0433 0.81637 0.36656 0.0
H779 H 0.12615 0.71543 0.39871 0.0
H780 H 0.0913 0.82383 0.39775 0.0
S781 S 0.98815 0.72402 0.31855 0.0
N782 N 0.02602 0.67371 0.33396 0.0
N783 N 0.99502 0.79135 0.33133 0.0
C784 C 0.02972 0.77504 0.34911 0.0
C785 C 0.04736 0.71118 0.35032 0.0
C786 C 0.78641 0.04636 0.85215 0.0
C787 C 0.80959 0.08238 0.86957 0.0
C788 C 0.72404 0.02856 0.85134 0.0
C789 C 0.68227 0.0442 0.86833 0.0
H790 H 0.81736 0.02807 0.83969 0.0
H791 H 0.71028 0.99749 0.8382 0.0
S792 S 0.71695 0.14779 0.91557 0.0
N793 N 0.7838 0.14217 0.90229 0.0
N794 N 0.66677 0.10489 0.90164 0.0
C795 C 0.70363 0.08415 0.88504 0.0
C796 C 0.76722 0.10392 0.8855 0.0
C797 C 0.45608 0.79779 0.39697 0.0
C798 C 0.41566 0.81839 0.38036 0.0
C799 C 0.47382 0.73544 0.39851 0.0
C800 C 0.4538 0.69117 0.38299 0.0
H801 H 0.47732 0.8306 0.4082 0.0
H802 H 0.50798 0.72328 0.41087 0.0
S803 S 0.3401 0.71877 0.33831 0.0
N804 N 0.34856 0.78767 0.35007 0.0
N805 N 0.3862 0.67067 0.35185 0.0
C806 C 0.41055 0.71013 0.36703 0.0
C807 C 0.39068 0.77368 0.36593 0.0
C808 C 0.20622 0.9088 0.88152 0.0
C809 C 0.18932 0.9609 0.86883 0.0
C810 C 0.26851 0.88847 0.88241 0.0
C811 C 0.3157 0.92055 0.87105 0.0
H812 H 0.17139 0.88443 0.89108 0.0
H813 H 0.28007 0.8483 0.89236 0.0
S814 S 0.29744 0.06368 0.83772 0.0
N815 N 0.2263 0.0459 0.84565 0.0
N816 N 0.34233 0.00894 0.84814 0.0
C817 C 0.29953 0.97295 0.85862 0.0
C818 C 0.2366 0.99283 0.85731 0.0
C819 C 0.58646 0.21345 0.38032 0.0
C820 C 0.53048 0.19713 0.36992 0.0
C821 C 0.60707 0.27577 0.38042 0.0
C822 C 0.57123 0.3234 0.37074 0.0
H823 H 0.61375 0.17823 0.38863 0.0
H824 H 0.65038 0.28707 0.38858 0.0
S825 S 0.41829 0.30474 0.34344 0.0
N826 N 0.43875 0.23345 0.35048 0.0
N827 N 0.47564 0.35004 0.35172 0.0
C828 C 0.51502 0.3073 0.36054 0.0
C829 C 0.49503 0.24426 0.35994 0.0
C830 C 0.20214 0.53418 0.89444 0.0
C831 C 0.18155 0.57223 0.87715 0.0
C832 C 0.26428 0.51629 0.89621 0.0
C833 C 0.30842 0.53378 0.88027 0.0
H834 H 0.16945 0.51546 0.90626 0.0
H835 H 0.2764 0.48433 0.90928 0.0
S836 S 0.2801 0.64023 0.83333 0.0
N837 N 0.21149 0.63375 0.84538 0.0
N838 N 0.32836 0.59646 0.84773 0.0
C839 C 0.28926 0.57458 0.86347 0.0
C840 C 0.22582 0.59436 0.86207 0.0
C841 C 0.91967 0.29374 0.38348 0.0
C842 C 0.95695 0.31746 0.36637 0.0
C843 C 0.90041 0.23111 0.3836 0.0
C844 C 0.91885 0.18962 0.3669 0.0
H845 H 0.90813 0.32273 0.39748 0.0
H846 H 0.87347 0.2143 0.39743 0.0
S847 S 0.01281 0.22864 0.31759 0.0
N848 N 0.00559 0.29504 0.33094 0.0
N849 N 0.97491 0.17714 0.33252 0.0
C850 C 0.95325 0.21341 0.34918 0.0
C851 C 0.97075 0.2774 0.34855 0.0
C852 C 0.20773 0.59183 0.14771 0.0
C853 C 0.18601 0.54204 0.13483 0.0
C854 C 0.27121 0.60807 0.14766 0.0
C855 C 0.31483 0.57351 0.13536 0.0
H856 H 0.17586 0.61726 0.15819 0.0
H857 H 0.28659 0.64661 0.15779 0.0
S858 S 0.28182 0.43448 0.10107 0.0
N859 N 0.21315 0.45719 0.11011 0.0
N860 N 0.33202 0.48454 0.11142 0.0
C861 C 0.29341 0.52327 0.1227 0.0
C862 C 0.22909 0.50827 0.12212 0.0
C863 C 0.95849 0.22193 0.66242 0.0
C864 C 0.94378 0.18197 0.64475 0.0
C865 C 0.94254 0.2849 0.66207 0.0
C866 C 0.90909 0.3105 0.64449 0.0
H867 H 0.98758 0.20621 0.67584 0.0
H868 H 0.96054 0.31433 0.67503 0.0
S869 S 0.84443 0.22305 0.59713 0.0
N870 N 0.88493 0.17058 0.61089 0.0
N871 N 0.85103 0.28881 0.61107 0.0
C872 C 0.88759 0.26988 0.62798 0.0
C873 C 0.90558 0.20565 0.62797 0.0
C874 C 0.19985 0.95952 0.1188 0.0
C875 C 0.17909 0.92102 0.13595 0.0
C876 C 0.26187 0.97805 0.11728 0.0
C877 C 0.30567 0.96078 0.13333 0.0
H878 H 0.16735 0.9781 0.10691 0.0
H879 H 0.2741 0.01032 0.1043 0.0
S880 S 0.27696 0.85368 0.18004 0.0
N881 N 0.20868 0.85954 0.16777 0.0
N882 N 0.32523 0.89811 0.16587 0.0
C883 C 0.28639 0.91973 0.15002 0.0
C884 C 0.22312 0.89923 0.15117 0.0
C885 C 0.51645 0.25724 0.65944 0.0
C886 C 0.53924 0.30171 0.64449 0.0
C887 C 0.53559 0.19522 0.65852 0.0
C888 C 0.58007 0.17523 0.64316 0.0
H889 H 0.4796 0.26908 0.67087 0.0
H890 H 0.51246 0.16215 0.66917 0.0
S891 S 0.6627 0.27559 0.60302 0.0
N892 N 0.61268 0.32302 0.61512 0.0
N893 N 0.65319 0.20678 0.61472 0.0
C894 C 0.60738 0.22024 0.62935 0.0
C895 C 0.58593 0.28336 0.6297 0.0
C896 C 0.2152 0.26935 0.15714 0.0
C897 C 0.18583 0.28938 0.1377 0.0
C898 C 0.27213 0.23786 0.15662 0.0
C899 C 0.30239 0.22493 0.13663 0.0
H900 H 0.19461 0.27875 0.17305 0.0
H901 H 0.29209 0.22292 0.17207 0.0
S902 S 0.24488 0.26641 0.08087 0.0
N903 N 0.19106 0.29305 0.09776 0.0
N904 N 0.29826 0.23454 0.09672 0.0
C905 C 0.27363 0.24474 0.117 0.0
C906 C 0.21529 0.27645 0.11754 0.0
C907 C 0.23268 0.21276 0.65735 0.0
C908 C 0.20686 0.18888 0.63779 0.0
C909 C 0.26504 0.26918 0.65765 0.0
C910 C 0.2736 0.3042 0.63839 0.0
H911 H 0.22748 0.18805 0.67275 0.0
H912 H 0.28494 0.28446 0.67309 0.0
S913 S 0.21419 0.26385 0.58284 0.0
N914 N 0.19118 0.20574 0.59861 0.0
N915 N 0.25239 0.3118 0.59918 0.0
C916 C 0.2477 0.28136 0.6187 0.0
C917 C 0.2145 0.22373 0.61838 0.0
C918 C 0.26291 0.27777 0.85722 0.0
C919 C 0.30658 0.26998 0.87421 0.0
C920 C 0.20506 0.24786 0.85786 0.0
C921 C 0.18836 0.20891 0.8755 0.0
H922 H 0.27256 0.30871 0.84359 0.0
H923 H 0.17324 0.2553 0.84432 0.0
S924 S 0.2883 0.1691 0.92331 0.0
N925 N 0.33063 0.21781 0.90862 0.0
N926 N 0.2221 0.1616 0.90989 0.0
C927 C 0.23215 0.1998 0.89243 0.0
C928 C 0.29118 0.2301 0.89172 0.0
C929 C 0.27108 0.22757 0.35539 0.0
C930 C 0.27458 0.1903 0.37432 0.0
C931 C 0.24194 0.28578 0.35583 0.0
C932 C 0.21425 0.30923 0.37516 0.0
H933 H 0.29279 0.21275 0.34019 0.0
H934 H 0.24076 0.31226 0.3407 0.0
S935 S 0.20753 0.22835 0.42905 0.0
N936 N 0.24578 0.17995 0.41287 0.0
N937 N 0.19069 0.28927 0.41365 0.0
C938 C 0.21641 0.27196 0.39416 0.0
C939 C 0.2463 0.21254 0.39373 0.0
C940 C 0.71588 0.75391 0.85602 0.0
C941 C 0.69231 0.78114 0.87539 0.0
C942 C 0.77315 0.72287 0.85578 0.0
C943 C 0.80954 0.71766 0.87489 0.0
H944 H 0.69023 0.75698 0.84075 0.0
H945 H 0.78832 0.70184 0.8405 0.0
S946 S 0.76963 0.78157 0.93 0.0
N947 N 0.71034 0.80104 0.91428 0.0
N948 N 0.81801 0.74346 0.91382 0.0
C949 C 0.78682 0.74518 0.89439 0.0
C950 C 0.72822 0.7764 0.89467 0.0
C951 C 0.7615 0.78451 0.3569 0.0
C952 C 0.78272 0.81387 0.37618 0.0
C953 C 0.73035 0.72752 0.35762 0.0
C954 C 0.71829 0.69721 0.37766 0.0
H955 H 0.76986 0.805 0.34092 0.0
H956 H 0.7148 0.70768 0.3422 0.0
S957 S 0.76359 0.75433 0.43307 0.0
N958 N 0.78955 0.80821 0.41606 0.0
N959 N 0.73019 0.70108 0.41746 0.0
C960 C 0.73931 0.72582 0.39716 0.0
C961 C 0.77143 0.78412 0.39641 0.0
C962 C 0.72064 0.7273 0.15902 0.0
C963 C 0.68908 0.71171 0.13949 0.0
C964 C 0.77734 0.75961 0.15856 0.0
C965 C 0.80508 0.77724 0.13855 0.0
H966 H 0.70216 0.71341 0.17484 0.0
H967 H 0.79948 0.77094 0.17404 0.0
S968 S 0.73945 0.75089 0.08272 0.0
N969 N 0.68847 0.7192 0.09958 0.0
N970 N 0.79495 0.77861 0.09863 0.0
C971 C 0.77356 0.7625 0.11889 0.0
C972 C 0.71561 0.73032 0.11938 0.0
C973 C 0.76661 0.71668 0.65656 0.0
C974 C 0.7871 0.68717 0.63721 0.0
C975 C 0.73395 0.77281 0.65592 0.0
C976 C 0.71956 0.80208 0.63587 0.0
H977 H 0.77658 0.69691 0.67254 0.0
H978 H 0.71902 0.79275 0.67141 0.0
S979 S 0.76244 0.74443 0.58028 0.0
N980 N 0.79095 0.69176 0.59725 0.0
N981 N 0.72876 0.79728 0.596 0.0
C982 C 0.73992 0.7734 0.6163 0.0
C983 C 0.77359 0.71596 0.61697 0.0
loop_
_geom_bond_atom_site_label_1
_geom_bond_atom_site_label_2
_geom_bond_distance
_geom_bond_site_symmetry_2
_ccdc_geom_bond_type
Co0 O3 1.970 . S
Co0 N17 1.989 . S
Co0 O25 1.967 . S
Co0 O32 1.920 . S
Co1 O4 1.966 . S
Co1 N10 2.022 . S
Co1 N18 1.993 . S
Co1 O26 1.941 . S
C2 O3 1.258 . S
C2 O4 1.263 . S
O3 Co0 1.970 . S
O3 C2 1.258 . S
O4 Co1 1.966 . S
O4 C2 1.263 . S
C5 O6 1.235 1_545 S
C5 O32 1.289 . S
O6 C5 1.235 1_565 S
C7 C9 1.400 . S
C7 N10 1.351 . S
C7 C12 1.501 1_545 S
C8 C9 1.387 . S
C8 N11 1.341 . S
C9 C7 1.400 . S
C9 C8 1.387 . S
N10 Co1 2.022 . S
N10 C7 1.351 . S
N10 N11 1.365 . S
N11 C8 1.341 . S
N11 N10 1.365 . S
N11 H31 0.862 . S
C12 C7 1.501 1_565 S
C12 H13 0.961 . S
C12 H14 0.961 . S
C12 H15 0.960 . S
H13 C12 0.961 . S
H14 C12 0.961 . S
H15 C12 0.960 . S
C16 N17 1.342 . S
C16 C20 1.401 . S
C16 C21 1.499 . S
N17 Co0 1.989 . S
N17 C16 1.342 . S
N17 N18 1.388 . S
N18 Co1 1.993 . S
N18 N17 1.388 . S
N18 C19 1.346 . S
C19 N18 1.346 . S
C19 C20 1.396 . S
C19 C29 1.510 . S
C20 C16 1.401 . S
C20 C19 1.396 . S
C21 C16 1.499 . S
C21 H22 0.959 . S
C21 H23 0.960 . S
C21 H24 0.961 . S
H22 C21 0.959 . S
H23 C21 0.960 . S
H24 C21 0.961 . S
O25 Co0 1.967 . S
O25 C33 1.258 . S
O26 Co1 1.941 . S
O26 C33 1.266 . S
H27 C29 0.959 . S
H28 C29 0.961 1_565 S
C29 C19 1.510 . S
C29 H27 0.959 . S
C29 H28 0.961 1_545 S
C29 H30 0.960 . S
H30 C29 0.960 . S
H31 N11 0.862 . S
O32 Co0 1.920 . S
O32 C5 1.289 . S
C33 O25 1.258 . S
C33 O26 1.266 . S
Co34 O37 1.970 . S
Co34 N51 1.989 . S
Co34 O59 1.967 . S
Co34 O66 1.920 . S
Co35 O38 1.966 . S
Co35 N44 2.022 . S
Co35 N52 1.993 . S
Co35 O60 1.941 . S
C36 O37 1.258 . S
C36 O38 1.263 . S
O37 Co34 1.970 . S
O37 C36 1.258 . S
O38 Co35 1.966 . S
O38 C36 1.263 . S
C39 O40 1.235 . S
C39 O66 1.289 . S
O40 C39 1.235 . S
C41 C43 1.400 . S
C41 N44 1.351 . S
C41 C46 1.501 . S
C42 C43 1.387 . S
C42 N45 1.341 . S
C43 C41 1.400 . S
C43 C42 1.387 . S
N44 Co35 2.022 . S
N44 C41 1.351 . S
N44 N45 1.365 . S
N45 C42 1.341 . S
N45 N44 1.365 . S
N45 H65 0.862 . S
C46 C41 1.501 . S
C46 H47 0.961 . S
C46 H48 0.961 . S
C46 H49 0.960 . S
H47 C46 0.961 . S
H48 C46 0.961 . S
H49 C46 0.960 . S
C50 N51 1.342 . S
C50 C54 1.401 . S
C50 C55 1.499 . S
N51 Co34 1.989 . S
N51 C50 1.342 . S
N51 N52 1.388 . S
N52 Co35 1.993 . S
N52 N51 1.388 . S
N52 C53 1.346 . S
C53 N52 1.346 . S
C53 C54 1.396 . S
C53 C63 1.510 . S
C54 C50 1.401 . S
C54 C53 1.396 . S
C55 C50 1.499 . S
C55 H56 0.959 . S
C55 H57 0.960 . S
C55 H58 0.961 . S
H56 C55 0.959 . S
H57 C55 0.960 . S
H58 C55 0.961 . S
O59 Co34 1.967 . S
O59 C67 1.258 . S
O60 Co35 1.941 . S
O60 C67 1.266 . S
H61 C63 0.959 . S
H62 C63 0.961 . S
C63 C53 1.510 . S
C63 H61 0.959 . S
C63 H62 0.961 . S
C63 H64 0.960 . S
H64 C63 0.960 . S
H65 N45 0.862 . S
O66 Co34 1.920 . S
O66 C39 1.289 . S
C67 O59 1.258 . S
C67 O60 1.266 . S
Co68 O71 1.970 . S
Co68 N85 1.989 . S
Co68 O93 1.967 . S
Co68 O100 1.920 . S
Co69 O72 1.966 . S
Co69 N78 2.022 . S
Co69 N86 1.993 . S
Co69 O94 1.941 . S
C70 O71 1.258 . S
C70 O72 1.263 . S
O71 Co68 1.970 . S
O71 C70 1.258 . S
O72 Co69 1.966 . S
O72 C70 1.263 . S
C73 O74 1.235 . S
C73 O100 1.289 . S
O74 C73 1.235 . S
C75 C77 1.400 . S
C75 N78 1.351 . S
C75 C80 1.501 . S
C76 C77 1.387 . S
C76 N79 1.341 . S
C77 C75 1.400 . S
C77 C76 1.387 . S
N78 Co69 2.022 . S
N78 C75 1.351 . S
N78 N79 1.365 . S
N79 C76 1.341 . S
N79 N78 1.365 . S
N79 H99 0.862 . S
C80 C75 1.501 . S
C80 H81 0.961 . S
C80 H82 0.961 . S
C80 H83 0.960 . S
H81 C80 0.961 . S
H82 C80 0.961 . S
H83 C80 0.960 . S
C84 N85 1.342 1_655 S
C84 C88 1.401 . S
C84 C89 1.499 . S
N85 Co68 1.989 . S
N85 C84 1.342 1_455 S
N85 N86 1.388 . S
N86 Co69 1.993 . S
N86 N85 1.388 . S
N86 C87 1.346 1_455 S
C87 N86 1.346 1_655 S
C87 C88 1.396 . S
C87 C97 1.510 . S
C88 C84 1.401 . S
C88 C87 1.396 . S
C89 C84 1.499 . S
C89 H90 0.959 . S
C89 H91 0.960 . S
C89 H92 0.961 . S
H90 C89 0.959 . S
H91 C89 0.960 . S
H92 C89 0.961 . S
O93 Co68 1.967 . S
O93 C101 1.258 . S
O94 Co69 1.941 . S
O94 C101 1.266 . S
H95 C97 0.959 . S
H96 C97 0.961 . S
C97 C87 1.510 . S
C97 H95 0.959 . S
C97 H96 0.961 . S
C97 H98 0.960 . S
H98 C97 0.960 . S
H99 N79 0.862 . S
O100 Co68 1.920 . S
O100 C73 1.289 . S
C101 O93 1.258 . S
C101 O94 1.266 . S
Co102 O105 1.970 . S
Co102 N119 1.989 . S
Co102 O127 1.967 . S
Co102 O134 1.920 . S
Co103 O106 1.966 . S
Co103 N112 2.022 . S
Co103 N120 1.993 . S
Co103 O128 1.941 . S
C104 O105 1.258 . S
C104 O106 1.263 . S
O105 Co102 1.970 . S
O105 C104 1.258 . S
O106 Co103 1.966 . S
O106 C104 1.263 . S
C107 O108 1.235 1_455 S
C107 O134 1.289 . S
O108 C107 1.235 1_655 S
C109 C111 1.400 . S
C109 N112 1.351 . S
C109 C114 1.501 1_455 S
C110 C111 1.387 . S
C110 N113 1.341 . S
C111 C109 1.400 . S
C111 C110 1.387 . S
N112 Co103 2.022 . S
N112 C109 1.351 . S
N112 N113 1.365 . S
N113 C110 1.341 . S
N113 N112 1.365 . S
N113 H133 0.862 . S
C114 C109 1.501 1_655 S
C114 H115 0.961 . S
C114 H116 0.961 . S
C114 H117 0.960 . S
H115 C114 0.961 . S
H116 C114 0.961 . S
H117 C114 0.960 . S
C118 N119 1.342 1_565 S
C118 C122 1.401 . S
C118 C123 1.499 . S
N119 Co102 1.989 . S
N119 C118 1.342 1_545 S
N119 N120 1.388 . S
N120 Co103 1.993 . S
N120 N119 1.388 . S
N120 C121 1.346 1_545 S
C121 N120 1.346 1_565 S
C121 C122 1.396 . S
C121 C131 1.510 . S
C122 C118 1.401 . S
C122 C121 1.396 . S
C123 C118 1.499 . S
C123 H124 0.959 . S
C123 H125 0.960 . S
C123 H126 0.961 . S
H124 C123 0.959 . S
H125 C123 0.960 . S
H126 C123 0.961 . S
O127 Co102 1.967 . S
O127 C135 1.258 . S
O128 Co103 1.941 . S
O128 C135 1.266 . S
H129 C131 0.959 . S
H130 C131 0.961 1_655 S
C131 C121 1.510 . S
C131 H129 0.959 . S
C131 H130 0.961 1_455 S
C131 H132 0.960 . S
H132 C131 0.960 . S
H133 N113 0.862 . S
O134 Co102 1.920 . S
O134 C107 1.289 . S
C135 O127 1.258 . S
C135 O128 1.266 . S
Co136 O139 1.970 . S
Co136 N153 1.989 . S
Co136 O161 1.967 . S
Co136 O168 1.920 . S
Co137 O140 1.966 . S
Co137 N146 2.022 . S
Co137 N154 1.993 . S
Co137 O162 1.941 . S
C138 O139 1.258 . S
C138 O140 1.263 . S
O139 Co136 1.970 . S
O139 C138 1.258 . S
O140 Co137 1.966 . S
O140 C138 1.263 . S
C141 O142 1.235 . S
C141 O168 1.289 . S
O142 C141 1.235 . S
C143 C145 1.400 . S
C143 N146 1.351 . S
C143 C148 1.501 . S
C144 C145 1.387 . S
C144 N147 1.341 . S
C145 C143 1.400 . S
C145 C144 1.387 . S
N146 Co137 2.022 . S
N146 C143 1.351 . S
N146 N147 1.365 . S
N147 C144 1.341 . S
N147 N146 1.365 . S
N147 H167 0.862 . S
C148 C143 1.501 . S
C148 H149 0.961 . S
C148 H150 0.961 . S
C148 H151 0.960 . S
H149 C148 0.961 . S
H150 C148 0.961 . S
H151 C148 0.960 . S
C152 N153 1.342 . S
C152 C156 1.401 . S
C152 C157 1.499 . S
N153 Co136 1.989 . S
N153 C152 1.342 . S
N153 N154 1.388 . S
N154 Co137 1.993 . S
N154 N153 1.388 . S
N154 C155 1.346 . S
C155 N154 1.346 . S
C155 C156 1.396 . S
C155 C165 1.510 . S
C156 C152 1.401 . S
C156 C155 1.396 . S
C157 C152 1.499 . S
C157 H158 0.959 . S
C157 H159 0.960 . S
C157 H160 0.961 . S
H158 C157 0.959 . S
H159 C157 0.960 . S
H160 C157 0.961 . S
O161 Co136 1.967 . S
O161 C169 1.258 . S
O162 Co137 1.941 . S
O162 C169 1.266 . S
H163 C165 0.959 . S
H164 C165 0.961 . S
C165 C155 1.510 . S
C165 H163 0.959 . S
C165 H164 0.961 . S
C165 H166 0.960 . S
H166 C165 0.960 . S
H167 N147 0.862 . S
O168 Co136 1.920 . S
O168 C141 1.289 . S
C169 O161 1.258 . S
C169 O162 1.266 . S
Co170 O173 1.970 . S
Co170 N187 1.989 . S
Co170 O195 1.967 . S
Co170 O202 1.920 . S
Co171 O174 1.966 . S
Co171 N180 2.022 . S
Co171 N188 1.993 . S
Co171 O196 1.941 . S
C172 O173 1.258 . S
C172 O174 1.263 . S
O173 Co170 1.970 . S
O173 C172 1.258 . S
O174 Co171 1.966 . S
O174 C172 1.263 . S
C175 O176 1.235 1_455 S
C175 O202 1.289 . S
O176 C175 1.235 1_655 S
C177 C179 1.400 . S
C177 N180 1.351 . S
C177 C182 1.501 1_455 S
C178 C179 1.387 . S
C178 N181 1.341 . S
C179 C177 1.400 . S
C179 C178 1.387 . S
N180 Co171 2.022 . S
N180 C177 1.351 . S
N180 N181 1.365 . S
N181 C178 1.341 . S
N181 N180 1.365 . S
N181 H201 0.862 . S
C182 C177 1.501 1_655 S
C182 H183 0.961 . S
C182 H184 0.961 . S
C182 H185 0.960 . S
H183 C182 0.961 . S
H184 C182 0.961 . S
H185 C182 0.960 . S
C186 N187 1.342 . S
C186 C190 1.401 . S
C186 C191 1.499 . S
N187 Co170 1.989 . S
N187 C186 1.342 . S
N187 N188 1.388 . S
N188 Co171 1.993 . S
N188 N187 1.388 . S
N188 C189 1.346 . S
C189 N188 1.346 . S
C189 C190 1.396 . S
C189 C199 1.510 . S
C190 C186 1.401 . S
C190 C189 1.396 . S
C191 C186 1.499 . S
C191 H192 0.959 . S
C191 H193 0.960 . S
C191 H194 0.961 . S
H192 C191 0.959 . S
H193 C191 0.960 . S
H194 C191 0.961 . S
O195 Co170 1.967 . S
O195 C203 1.258 . S
O196 Co171 1.941 . S
O196 C203 1.266 . S
H197 C199 0.959 . S
H198 C199 0.961 1_655 S
C199 C189 1.510 . S
C199 H197 0.959 . S
C199 H198 0.961 1_455 S
C199 H200 0.960 . S
H200 C199 0.960 . S
H201 N181 0.862 . S
O202 Co170 1.920 . S
O202 C175 1.289 . S
C203 O195 1.258 . S
C203 O196 1.266 . S
Co204 O207 1.970 . S
Co204 N221 1.989 . S
Co204 O229 1.967 . S
Co204 O236 1.920 . S
Co205 O208 1.966 . S
Co205 N214 2.022 . S
Co205 N222 1.993 . S
Co205 O230 1.941 . S
C206 O207 1.258 . S
C206 O208 1.263 . S
O207 Co204 1.970 . S
O207 C206 1.258 . S
O208 Co205 1.966 . S
O208 C206 1.263 . S
C209 O210 1.235 1_545 S
C209 O236 1.289 . S
O210 C209 1.235 1_565 S
C211 C213 1.400 . S
C211 N214 1.351 . S
C211 C216 1.501 1_545 S
C212 C213 1.387 . S
C212 N215 1.341 . S
C213 C211 1.400 . S
C213 C212 1.387 . S
N214 Co205 2.022 . S
N214 C211 1.351 . S
N214 N215 1.365 . S
N215 C212 1.341 . S
N215 N214 1.365 . S
N215 H235 0.862 . S
C216 C211 1.501 1_565 S
C216 H217 0.961 . S
C216 H218 0.961 . S
C216 H219 0.960 . S
H217 C216 0.961 . S
H218 C216 0.961 . S
H219 C216 0.960 . S
C220 N221 1.342 1_655 S
C220 C224 1.401 . S
C220 C225 1.499 . S
N221 Co204 1.989 . S
N221 C220 1.342 1_455 S
N221 N222 1.388 . S
N222 Co205 1.993 . S
N222 N221 1.388 . S
N222 C223 1.346 1_455 S
C223 N222 1.346 1_655 S
C223 C224 1.396 . S
C223 C233 1.510 . S
C224 C220 1.401 . S
C224 C223 1.396 . S
C225 C220 1.499 . S
C225 H226 0.959 . S
C225 H227 0.960 . S
C225 H228 0.961 . S
H226 C225 0.959 . S
H227 C225 0.960 . S
H228 C225 0.961 . S
O229 Co204 1.967 . S
O229 C237 1.258 . S
O230 Co205 1.941 . S
O230 C237 1.266 . S
H231 C233 0.959 . S
H232 C233 0.961 1_565 S
C233 C223 1.510 . S
C233 H231 0.959 . S
C233 H232 0.961 1_545 S
C233 H234 0.960 . S
H234 C233 0.960 . S
H235 N215 0.862 . S
O236 Co204 1.920 . S
O236 C209 1.289 . S
C237 O229 1.258 . S
C237 O230 1.266 . S
Co238 O241 1.970 . S
Co238 N255 1.989 . S
Co238 O263 1.967 . S
Co238 O270 1.920 . S
Co239 O242 1.966 . S
Co239 N248 2.022 . S
Co239 N256 1.993 . S
Co239 O264 1.941 . S
C240 O241 1.258 . S
C240 O242 1.263 . S
O241 Co238 1.970 . S
O241 C240 1.258 . S
O242 Co239 1.966 . S
O242 C240 1.263 . S
C243 O244 1.235 . S
C243 O270 1.289 . S
O244 C243 1.235 . S
C245 C247 1.400 . S
C245 N248 1.351 . S
C245 C250 1.501 . S
C246 C247 1.387 . S
C246 N249 1.341 . S
C247 C245 1.400 . S
C247 C246 1.387 . S
N248 Co239 2.022 . S
N248 C245 1.351 . S
N248 N249 1.365 . S
N249 C246 1.341 . S
N249 N248 1.365 . S
N249 H269 0.862 . S
C250 C245 1.501 . S
C250 H251 0.961 . S
C250 H252 0.961 . S
C250 H253 0.960 . S
H251 C250 0.961 . S
H252 C250 0.961 . S
H253 C250 0.960 . S
C254 N255 1.342 1_565 S
C254 C258 1.401 . S
C254 C259 1.499 . S
N255 Co238 1.989 . S
N255 C254 1.342 1_545 S
N255 N256 1.388 . S
N256 Co239 1.993 . S
N256 N255 1.388 . S
N256 C257 1.346 1_545 S
C257 N256 1.346 1_565 S
C257 C258 1.396 . S
C257 C267 1.510 . S
C258 C254 1.401 . S
C258 C257 1.396 . S
C259 C254 1.499 . S
C259 H260 0.959 . S
C259 H261 0.960 . S
C259 H262 0.961 . S
H260 C259 0.959 . S
H261 C259 0.960 . S
H262 C259 0.961 . S
O263 Co238 1.967 . S
O263 C271 1.258 . S
O264 Co239 1.941 . S
O264 C271 1.266 . S
H265 C267 0.959 . S
H266 C267 0.961 . S
C267 C257 1.510 . S
C267 H265 0.959 . S
C267 H266 0.961 . S
C267 H268 0.960 . S
H268 C267 0.960 . S
H269 N249 0.862 . S
O270 Co238 1.920 . S
O270 C243 1.289 . S
C271 O263 1.258 . S
C271 O264 1.266 . S
Co272 O275 1.970 . S
Co272 N289 1.989 . S
Co272 O297 1.967 . S
Co272 O304 1.920 . S
Co273 O276 1.966 . S
Co273 N282 2.022 . S
Co273 N290 1.993 . S
Co273 O298 1.941 . S
C274 O275 1.258 . S
C274 O276 1.263 . S
O275 Co272 1.970 . S
O275 C274 1.258 . S
O276 Co273 1.966 . S
O276 C274 1.263 . S
C277 O278 1.235 1_565 S
C277 O304 1.289 . S
O278 C277 1.235 1_545 S
C279 C281 1.400 . S
C279 N282 1.351 . S
C279 C284 1.501 1_565 S
C280 C281 1.387 . S
C280 N283 1.341 . S
C281 C279 1.400 . S
C281 C280 1.387 . S
N282 Co273 2.022 . S
N282 C279 1.351 . S
N282 N283 1.365 . S
N283 C280 1.341 . S
N283 N282 1.365 . S
N283 H303 0.862 . S
C284 C279 1.501 1_545 S
C284 H285 0.961 . S
C284 H286 0.961 . S
C284 H287 0.960 . S
H285 C284 0.961 . S
H286 C284 0.961 . S
H287 C284 0.960 . S
C288 N289 1.342 . S
C288 C292 1.401 . S
C288 C293 1.499 . S
N289 Co272 1.989 . S
N289 C288 1.342 . S
N289 N290 1.388 . S
N290 Co273 1.993 . S
N290 N289 1.388 . S
N290 C291 1.346 . S
C291 N290 1.346 . S
C291 C292 1.396 . S
C291 C301 1.510 . S
C292 C288 1.401 . S
C292 C291 1.396 . S
C293 C288 1.499 . S
C293 H294 0.959 . S
C293 H295 0.960 . S
C293 H296 0.961 . S
H294 C293 0.959 . S
H295 C293 0.960 . S
H296 C293 0.961 . S
O297 Co272 1.967 . S
O297 C305 1.258 . S
O298 Co273 1.941 . S
O298 C305 1.266 . S
H299 C301 0.959 . S
H300 C301 0.961 1_545 S
C301 C291 1.510 . S
C301 H299 0.959 . S
C301 H300 0.961 1_565 S
C301 H302 0.960 . S
H302 C301 0.960 . S
H303 N283 0.862 . S
O304 Co272 1.920 . S
O304 C277 1.289 . S
C305 O297 1.258 . S
C305 O298 1.266 . S
Co306 O309 1.970 . S
Co306 N323 1.989 . S
Co306 O331 1.967 . S
Co306 O338 1.920 . S
Co307 O310 1.966 . S
Co307 N316 2.022 . S
Co307 N324 1.993 . S
Co307 O332 1.941 . S
C308 O309 1.258 . S
C308 O310 1.263 . S
O309 Co306 1.970 . S
O309 C308 1.258 . S
O310 Co307 1.966 . S
O310 C308 1.263 . S
C311 O312 1.235 . S
C311 O338 1.289 . S
O312 C311 1.235 . S
C313 C315 1.400 . S
C313 N316 1.351 . S
C313 C318 1.501 . S
C314 C315 1.387 . S
C314 N317 1.341 . S
C315 C313 1.400 . S
C315 C314 1.387 . S
N316 Co307 2.022 . S
N316 C313 1.351 . S
N316 N317 1.365 . S
N317 C314 1.341 . S
N317 N316 1.365 . S
N317 H337 0.862 . S
C318 C313 1.501 . S
C318 H319 0.961 . S
C318 H320 0.961 . S
C318 H321 0.960 . S
H319 C318 0.961 . S
H320 C318 0.961 . S
H321 C318 0.960 . S
C322 N323 1.342 . S
C322 C326 1.401 . S
C322 C327 1.499 . S
N323 Co306 1.989 . S
N323 C322 1.342 . S
N323 N324 1.388 . S
N324 Co307 1.993 . S
N324 N323 1.388 . S
N324 C325 1.346 . S
C325 N324 1.346 . S
C325 C326 1.396 . S
C325 C335 1.510 . S
C326 C322 1.401 . S
C326 C325 1.396 . S
C327 C322 1.499 . S
C327 H328 0.959 . S
C327 H329 0.960 . S
C327 H330 0.961 . S
H328 C327 0.959 . S
H329 C327 0.960 . S
H330 C327 0.961 . S
O331 Co306 1.967 . S
O331 C339 1.258 . S
O332 Co307 1.941 . S
O332 C339 1.266 . S
H333 C335 0.959 . S
H334 C335 0.961 . S
C335 C325 1.510 . S
C335 H333 0.959 . S
C335 H334 0.961 . S
C335 H336 0.960 . S
H336 C335 0.960 . S
H337 N317 0.862 . S
O338 Co306 1.920 . S
O338 C311 1.289 . S
C339 O331 1.258 . S
C339 O332 1.266 . S
Co340 O343 1.970 . S
Co340 N357 1.989 . S
Co340 O365 1.967 . S
Co340 O372 1.920 . S
Co341 O344 1.966 . S
Co341 N350 2.022 . S
Co341 N358 1.993 . S
Co341 O366 1.941 . S
C342 O343 1.258 . S
C342 O344 1.263 . S
O343 Co340 1.970 . S
O343 C342 1.258 . S
O344 Co341 1.966 . S
O344 C342 1.263 . S
C345 O346 1.235 . S
C345 O372 1.289 . S
O346 C345 1.235 . S
C347 C349 1.400 . S
C347 N350 1.351 . S
C347 C352 1.501 . S
C348 C349 1.387 . S
C348 N351 1.341 . S
C349 C347 1.400 . S
C349 C348 1.387 . S
N350 Co341 2.022 . S
N350 C347 1.351 . S
N350 N351 1.365 . S
N351 C348 1.341 . S
N351 N350 1.365 . S
N351 H371 0.862 . S
C352 C347 1.501 . S
C352 H353 0.961 . S
C352 H354 0.961 . S
C352 H355 0.960 . S
H353 C352 0.961 . S
H354 C352 0.961 . S
H355 C352 0.960 . S
C356 N357 1.342 1_455 S
C356 C360 1.401 . S
C356 C361 1.499 . S
N357 Co340 1.989 . S
N357 C356 1.342 1_655 S
N357 N358 1.388 . S
N358 Co341 1.993 . S
N358 N357 1.388 . S
N358 C359 1.346 1_655 S
C359 N358 1.346 1_455 S
C359 C360 1.396 . S
C359 C369 1.510 . S
C360 C356 1.401 . S
C360 C359 1.396 . S
C361 C356 1.499 . S
C361 H362 0.959 . S
C361 H363 0.960 . S
C361 H364 0.961 . S
H362 C361 0.959 . S
H363 C361 0.960 . S
H364 C361 0.961 . S
O365 Co340 1.967 . S
O365 C373 1.258 . S
O366 Co341 1.941 . S
O366 C373 1.266 . S
H367 C369 0.959 . S
H368 C369 0.961 . S
C369 C359 1.510 . S
C369 H367 0.959 . S
C369 H368 0.961 . S
C369 H370 0.960 . S
H370 C369 0.960 . S
H371 N351 0.862 . S
O372 Co340 1.920 . S
O372 C345 1.289 . S
C373 O365 1.258 . S
C373 O366 1.266 . S
Co374 O377 1.970 . S
Co374 N391 1.989 . S
Co374 O399 1.967 . S
Co374 O406 1.920 . S
Co375 O378 1.966 . S
Co375 N384 2.022 . S
Co375 N392 1.993 . S
Co375 O400 1.941 . S
C376 O377 1.258 . S
C376 O378 1.263 . S
O377 Co374 1.970 . S
O377 C376 1.258 . S
O378 Co375 1.966 . S
O378 C376 1.263 . S
C379 O380 1.235 1_655 S
C379 O406 1.289 . S
O380 C379 1.235 1_455 S
C381 C383 1.400 . S
C381 N384 1.351 . S
C381 C386 1.501 1_655 S
C382 C383 1.387 . S
C382 N385 1.341 . S
C383 C381 1.400 . S
C383 C382 1.387 . S
N384 Co375 2.022 . S
N384 C381 1.351 . S
N384 N385 1.365 . S
N385 C382 1.341 . S
N385 N384 1.365 . S
N385 H405 0.862 . S
C386 C381 1.501 1_455 S
C386 H387 0.961 . S
C386 H388 0.961 . S
C386 H389 0.960 . S
H387 C386 0.961 . S
H388 C386 0.961 . S
H389 C386 0.960 . S
C390 N391 1.342 1_545 S
C390 C394 1.401 . S
C390 C395 1.499 . S
N391 Co374 1.989 . S
N391 C390 1.342 1_565 S
N391 N392 1.388 . S
N392 Co375 1.993 . S
N392 N391 1.388 . S
N392 C393 1.346 1_565 S
C393 N392 1.346 1_545 S
C393 C394 1.396 . S
C393 C403 1.510 . S
C394 C390 1.401 . S
C394 C393 1.396 . S
C395 C390 1.499 . S
C395 H396 0.959 . S
C395 H397 0.960 . S
C395 H398 0.961 . S
H396 C395 0.959 . S
H397 C395 0.960 . S
H398 C395 0.961 . S
O399 Co374 1.967 . S
O399 C407 1.258 . S
O400 Co375 1.941 . S
O400 C407 1.266 . S
H401 C403 0.959 . S
H402 C403 0.961 1_455 S
C403 C393 1.510 . S
C403 H401 0.959 . S
C403 H402 0.961 1_655 S
C403 H404 0.960 . S
H404 C403 0.960 . S
H405 N385 0.862 . S
O406 Co374 1.920 . S
O406 C379 1.289 . S
C407 O399 1.258 . S
C407 O400 1.266 . S
Co408 O411 1.970 . S
Co408 N425 1.989 . S
Co408 O433 1.967 . S
Co408 O440 1.920 . S
Co409 O412 1.966 . S
Co409 N418 2.022 . S
Co409 N426 1.993 . S
Co409 O434 1.941 . S
C410 O411 1.258 . S
C410 O412 1.263 . S
O411 Co408 1.970 . S
O411 C410 1.258 . S
O412 Co409 1.966 . S
O412 C410 1.263 . S
C413 O414 1.235 . S
C413 O440 1.289 . S
O414 C413 1.235 . S
C415 C417 1.400 . S
C415 N418 1.351 . S
C415 C420 1.501 . S
C416 C417 1.387 . S
C416 N419 1.341 . S
C417 C415 1.400 . S
C417 C416 1.387 . S
N418 Co409 2.022 . S
N418 C415 1.351 . S
N418 N419 1.365 . S
N419 C416 1.341 . S
N419 N418 1.365 . S
N419 H439 0.862 . S
C420 C415 1.501 . S
C420 H421 0.961 . S
C420 H422 0.961 . S
C420 H423 0.960 . S
H421 C420 0.961 . S
H422 C420 0.961 . S
H423 C420 0.960 . S
C424 N425 1.342 . S
C424 C428 1.401 . S
C424 C429 1.499 . S
N425 Co408 1.989 . S
N425 C424 1.342 . S
N425 N426 1.388 . S
N426 Co409 1.993 . S
N426 N425 1.388 . S
N426 C427 1.346 . S
C427 N426 1.346 . S
C427 C428 1.396 . S
C427 C437 1.510 . S
C428 C424 1.401 . S
C428 C427 1.396 . S
C429 C424 1.499 . S
C429 H430 0.959 . S
C429 H431 0.960 . S
C429 H432 0.961 . S
H430 C429 0.959 . S
H431 C429 0.960 . S
H432 C429 0.961 . S
O433 Co408 1.967 . S
O433 C441 1.258 . S
O434 Co409 1.941 . S
O434 C441 1.266 . S
H435 C437 0.959 . S
H436 C437 0.961 . S
C437 C427 1.510 . S
C437 H435 0.959 . S
C437 H436 0.961 . S
C437 H438 0.960 . S
H438 C437 0.960 . S
H439 N419 0.862 . S
O440 Co408 1.920 . S
O440 C413 1.289 . S
C441 O433 1.258 . S
C441 O434 1.266 . S
Co442 O445 1.970 . S
Co442 N459 1.989 . S
Co442 O467 1.967 . S
Co442 O474 1.920 . S
Co443 O446 1.966 . S
Co443 N452 2.022 . S
Co443 N460 1.993 . S
Co443 O468 1.941 . S
C444 O445 1.258 . S
C444 O446 1.263 . S
O445 Co442 1.970 . S
O445 C444 1.258 . S
O446 Co443 1.966 . S
O446 C444 1.263 . S
C447 O448 1.235 1_655 S
C447 O474 1.289 . S
O448 C447 1.235 1_455 S
C449 C451 1.400 . S
C449 N452 1.351 . S
C449 C454 1.501 1_655 S
C450 C451 1.387 . S
C450 N453 1.341 . S
C451 C449 1.400 . S
C451 C450 1.387 . S
N452 Co443 2.022 . S
N452 C449 1.351 . S
N452 N453 1.365 . S
N453 C450 1.341 . S
N453 N452 1.365 . S
N453 H473 0.862 . S
C454 C449 1.501 1_455 S
C454 H455 0.961 . S
C454 H456 0.961 . S
C454 H457 0.960 . S
H455 C454 0.961 . S
H456 C454 0.961 . S
H457 C454 0.960 . S
C458 N459 1.342 . S
C458 C462 1.401 . S
C458 C463 1.499 . S
N459 Co442 1.989 . S
N459 C458 1.342 . S
N459 N460 1.388 . S
N460 Co443 1.993 . S
N460 N459 1.388 . S
N460 C461 1.346 . S
C461 N460 1.346 . S
C461 C462 1.396 . S
C461 C471 1.510 . S
C462 C458 1.401 . S
C462 C461 1.396 . S
C463 C458 1.499 . S
C463 H464 0.959 . S
C463 H465 0.960 . S
C463 H466 0.961 . S
H464 C463 0.959 . S
H465 C463 0.960 . S
H466 C463 0.961 . S
O467 Co442 1.967 . S
O467 C475 1.258 . S
O468 Co443 1.941 . S
O468 C475 1.266 . S
H469 C471 0.959 . S
H470 C471 0.961 1_455 S
C471 C461 1.510 . S
C471 H469 0.959 . S
C471 H470 0.961 1_655 S
C471 H472 0.960 . S
H472 C471 0.960 . S
H473 N453 0.862 . S
O474 Co442 1.920 . S
O474 C447 1.289 . S
C475 O467 1.258 . S
C475 O468 1.266 . S
Co476 O479 1.970 . S
Co476 N493 1.989 . S
Co476 O501 1.967 . S
Co476 O508 1.920 . S
Co477 O480 1.966 . S
Co477 N486 2.022 . S
Co477 N494 1.993 . S
Co477 O502 1.941 . S
C478 O479 1.258 . S
C478 O480 1.263 . S
O479 Co476 1.970 . S
O479 C478 1.258 . S
O480 Co477 1.966 . S
O480 C478 1.263 . S
C481 O482 1.235 1_565 S
C481 O508 1.289 . S
O482 C481 1.235 1_545 S
C483 C485 1.400 . S
C483 N486 1.351 . S
C483 C488 1.501 1_565 S
C484 C485 1.387 . S
C484 N487 1.341 . S
C485 C483 1.400 . S
C485 C484 1.387 . S
N486 Co477 2.022 . S
N486 C483 1.351 . S
N486 N487 1.365 . S
N487 C484 1.341 . S
N487 N486 1.365 . S
N487 H507 0.862 . S
C488 C483 1.501 1_545 S
C488 H489 0.961 . S
C488 H490 0.961 . S
C488 H491 0.960 . S
H489 C488 0.961 . S
H490 C488 0.961 . S
H491 C488 0.960 . S
C492 N493 1.342 1_455 S
C492 C496 1.401 . S
C492 C497 1.499 . S
N493 Co476 1.989 . S
N493 C492 1.342 1_655 S
N493 N494 1.388 . S
N494 Co477 1.993 . S
N494 N493 1.388 . S
N494 C495 1.346 1_655 S
C495 N494 1.346 1_455 S
C495 C496 1.396 . S
C495 C505 1.510 . S
C496 C492 1.401 . S
C496 C495 1.396 . S
C497 C492 1.499 . S
C497 H498 0.959 . S
C497 H499 0.960 . S
C497 H500 0.961 . S
H498 C497 0.959 . S
H499 C497 0.960 . S
H500 C497 0.961 . S
O501 Co476 1.967 . S
O501 C509 1.258 . S
O502 Co477 1.941 . S
O502 C509 1.266 . S
H503 C505 0.959 . S
H504 C505 0.961 1_545 S
C505 C495 1.510 . S
C505 H503 0.959 . S
C505 H504 0.961 1_565 S
C505 H506 0.960 . S
H506 C505 0.960 . S
H507 N487 0.862 . S
O508 Co476 1.920 . S
O508 C481 1.289 . S
C509 O501 1.258 . S
C509 O502 1.266 . S
Co510 O513 1.970 . S
Co510 N527 1.989 . S
Co510 O535 1.967 . S
Co510 O542 1.920 . S
Co511 O514 1.966 . S
Co511 N520 2.022 . S
Co511 N528 1.993 . S
Co511 O536 1.941 . S
C512 O513 1.258 . S
C512 O514 1.263 . S
O513 Co510 1.970 . S
O513 C512 1.258 . S
O514 Co511 1.966 . S
O514 C512 1.263 . S
C515 O516 1.235 . S
C515 O542 1.289 . S
O516 C515 1.235 . S
C517 C519 1.400 . S
C517 N520 1.351 . S
C517 C522 1.501 . S
C518 C519 1.387 . S
C518 N521 1.341 . S
C519 C517 1.400 . S
C519 C518 1.387 . S
N520 Co511 2.022 . S
N520 C517 1.351 . S
N520 N521 1.365 . S
N521 C518 1.341 . S
N521 N520 1.365 . S
N521 H541 0.862 . S
C522 C517 1.501 . S
C522 H523 0.961 . S
C522 H524 0.961 . S
C522 H525 0.960 . S
H523 C522 0.961 . S
H524 C522 0.961 . S
H525 C522 0.960 . S
C526 N527 1.342 1_545 S
C526 C530 1.401 . S
C526 C531 1.499 . S
N527 Co510 1.989 . S
N527 C526 1.342 1_565 S
N527 N528 1.388 . S
N528 Co511 1.993 . S
N528 N527 1.388 . S
N528 C529 1.346 1_565 S
C529 N528 1.346 1_545 S
C529 C530 1.396 . S
C529 C539 1.510 . S
C530 C526 1.401 . S
C530 C529 1.396 . S
C531 C526 1.499 . S
C531 H532 0.959 . S
C531 H533 0.960 . S
C531 H534 0.961 . S
H532 C531 0.959 . S
H533 C531 0.960 . S
H534 C531 0.961 . S
O535 Co510 1.967 . S
O535 C543 1.258 . S
O536 Co511 1.941 . S
O536 C543 1.266 . S
H537 C539 0.959 . S
H538 C539 0.961 . S
C539 C529 1.510 . S
C539 H537 0.959 . S
C539 H538 0.961 . S
C539 H540 0.960 . S
H540 C539 0.960 . S
H541 N521 0.862 . S
O542 Co510 1.920 . S
O542 C515 1.289 . S
C543 O535 1.258 . S
C543 O536 1.266 . S
C544 C545 1.369 . S
C544 C546 1.419 . S
C544 H548 0.930 1_545 S
C545 C544 1.369 . S
C545 C554 1.429 . S
C546 C544 1.419 . S
C546 C547 1.363 . S
C546 H549 0.929 1_545 S
C547 C546 1.363 . S
C547 C553 1.428 . S
H548 C544 0.930 1_565 S
H549 C546 0.929 1_565 S
S550 N551 1.613 . S
S550 N552 1.610 . S
N551 S550 1.613 . S
N551 C554 1.350 . S
N552 S550 1.610 . S
N552 C553 1.351 . S
C553 C547 1.428 . S
C553 N552 1.351 . S
C553 C554 1.434 . S
C554 C545 1.429 . S
C554 N551 1.350 . S
C554 C553 1.434 . S
C555 C556 1.369 . S
C555 C557 1.419 . S
C555 H559 0.930 . S
C556 C555 1.369 . S
C556 C565 1.429 . S
C557 C555 1.419 . S
C557 C558 1.363 . S
C557 H560 0.929 . S
C558 C557 1.363 . S
C558 C564 1.428 . S
H559 C555 0.930 . S
H560 C557 0.929 . S
S561 N562 1.613 . S
S561 N563 1.610 . S
N562 S561 1.613 . S
N562 C565 1.350 . S
N563 S561 1.610 . S
N563 C564 1.351 . S
C564 C558 1.428 . S
C564 N563 1.351 . S
C564 C565 1.434 . S
C565 C556 1.429 . S
C565 N562 1.350 . S
C565 C564 1.434 . S
C566 C567 1.369 . S
C566 C568 1.419 . S
C566 H570 0.930 1_455 S
C567 C566 1.369 . S
C567 C576 1.429 . S
C568 C566 1.419 . S
C568 C569 1.363 . S
C568 H571 0.929 1_455 S
C569 C568 1.363 . S
C569 C575 1.428 . S
H570 C566 0.930 1_655 S
H571 C568 0.929 1_655 S
S572 N573 1.613 . S
S572 N574 1.610 . S
N573 S572 1.613 . S
N573 C576 1.350 . S
N574 S572 1.610 . S
N574 C575 1.351 . S
C575 C569 1.428 . S
C575 N574 1.351 . S
C575 C576 1.434 . S
C576 C567 1.429 . S
C576 N573 1.350 . S
C576 C575 1.434 . S
C577 C578 1.369 . S
C577 C579 1.419 . S
C577 H581 0.930 1_545 S
C578 C577 1.369 . S
C578 C587 1.429 . S
C579 C577 1.419 . S
C579 C580 1.363 . S
C579 H582 0.929 1_545 S
C580 C579 1.363 . S
C580 C586 1.428 . S
H581 C577 0.930 1_565 S
H582 C579 0.929 1_565 S
S583 N584 1.613 . S
S583 N585 1.610 . S
N584 S583 1.613 . S
N584 C587 1.350 . S
N585 S583 1.610 . S
N585 C586 1.351 . S
C586 C580 1.428 . S
C586 N585 1.351 . S
C586 C587 1.434 . S
C587 C578 1.429 . S
C587 N584 1.350 . S
C587 C586 1.434 . S
C588 C589 1.369 . S
C588 C590 1.419 . S
C588 H592 0.930 1_565 S
C589 C588 1.369 . S
C589 C598 1.429 . S
C590 C588 1.419 . S
C590 C591 1.363 . S
C590 H593 0.929 . S
C591 C590 1.363 . S
C591 C597 1.428 . S
H592 C588 0.930 1_545 S
H593 C590 0.929 . S
S594 N595 1.613 . S
S594 N596 1.610 . S
N595 S594 1.613 . S
N595 C598 1.350 . S
N596 S594 1.610 . S
N596 C597 1.351 . S
C597 C591 1.428 . S
C597 N596 1.351 . S
C597 C598 1.434 . S
C598 C589 1.429 . S
C598 N595 1.350 . S
C598 C597 1.434 . S
C599 C600 1.369 . S
C599 C601 1.419 . S
C599 H603 0.930 . S
C600 C599 1.369 . S
C600 C609 1.429 . S
C601 C599 1.419 . S
C601 C602 1.363 . S
C601 H604 0.929 . S
C602 C601 1.363 . S
C602 C608 1.428 . S
H603 C599 0.930 . S
H604 C601 0.929 . S
S605 N606 1.613 . S
S605 N607 1.610 . S
N606 S605 1.613 . S
N606 C609 1.350 . S
N607 S605 1.610 . S
N607 C608 1.351 . S
C608 C602 1.428 . S
C608 N607 1.351 . S
C608 C609 1.434 . S
C609 C600 1.429 . S
C609 N606 1.350 . S
C609 C608 1.434 . S
C610 C611 1.369 . S
C610 C612 1.419 . S
C610 H614 0.930 . S
C611 C610 1.369 . S
C611 C620 1.429 . S
C612 C610 1.419 . S
C612 C613 1.363 . S
C612 H615 0.929 . S
C613 C612 1.363 . S
C613 C619 1.428 . S
H614 C610 0.930 . S
H615 C612 0.929 . S
S616 N617 1.613 . S
S616 N618 1.610 . S
N617 S616 1.613 . S
N617 C620 1.350 1_455 S
N618 S616 1.610 . S
N618 C619 1.351 1_455 S
C619 C613 1.428 . S
C619 N618 1.351 1_655 S
C619 C620 1.434 . S
C620 C611 1.429 . S
C620 N617 1.350 1_655 S
C620 C619 1.434 . S
C621 C622 1.369 . S
C621 C623 1.419 . S
C621 H625 0.930 1_565 S
C622 C621 1.369 . S
C622 C631 1.429 . S
C623 C621 1.419 . S
C623 C624 1.363 . S
C623 H626 0.929 1_565 S
C624 C623 1.363 . S
C624 C630 1.428 . S
H625 C621 0.930 1_545 S
H626 C623 0.929 1_545 S
S627 N628 1.613 . S
S627 N629 1.610 . S
N628 S627 1.613 . S
N628 C631 1.350 . S
N629 S627 1.610 . S
N629 C630 1.351 . S
C630 C624 1.428 . S
C630 N629 1.351 . S
C630 C631 1.434 . S
C631 C622 1.429 . S
C631 N628 1.350 . S
C631 C630 1.434 . S
C632 C633 1.369 1_565 S
C632 C634 1.419 1_554 S
C632 H636 0.930 . S
C633 C632 1.369 1_545 S
C633 C642 1.429 . S
C634 C632 1.419 1_556 S
C634 C635 1.363 . S
C634 H637 0.929 . S
C635 C634 1.363 . S
C635 C641 1.428 1_565 S
H636 C632 0.930 . S
H637 C634 0.929 . S
S638 N639 1.613 . S
S638 N640 1.610 1_554 S
N639 S638 1.613 . S
N639 C642 1.350 . S
N640 S638 1.610 1_556 S
N640 C641 1.351 . S
C641 C635 1.428 1_545 S
C641 N640 1.351 . S
C641 C642 1.434 1_556 S
C642 C633 1.429 . S
C642 N639 1.350 . S
C642 C641 1.434 1_554 S
C643 C644 1.369 . S
C643 C645 1.419 . S
C643 H647 0.930 . S
C644 C643 1.369 . S
C644 C653 1.429 . S
C645 C643 1.419 . S
C645 C646 1.363 . S
C645 H648 0.929 . S
C646 C645 1.363 . S
C646 C652 1.428 . S
H647 C643 0.930 . S
H648 C645 0.929 . S
S649 N650 1.613 . S
S649 N651 1.610 . S
N650 S649 1.613 . S
N650 C653 1.350 . S
N651 S649 1.610 . S
N651 C652 1.351 . S
C652 C646 1.428 . S
C652 N651 1.351 . S
C652 C653 1.434 . S
C653 C644 1.429 . S
C653 N650 1.350 . S
C653 C652 1.434 . S
C654 C655 1.369 . S
C654 C656 1.419 1_556 S
C654 H658 0.930 . S
C655 C654 1.369 . S
C655 C664 1.429 1_655 S
C656 C654 1.419 1_554 S
C656 C657 1.363 1_655 S
C656 H659 0.929 . S
C657 C656 1.363 1_455 S
C657 C663 1.428 . S
H658 C654 0.930 . S
H659 C656 0.929 . S
S660 N661 1.613 . S
S660 N662 1.610 1_556 S
N661 S660 1.613 . S
N661 C664 1.350 . S
N662 S660 1.610 1_554 S
N662 C663 1.351 . S
C663 C657 1.428 . S
C663 N662 1.351 . S
C663 C664 1.434 1_554 S
C664 C655 1.429 1_455 S
C664 N661 1.350 . S
C664 C663 1.434 1_556 S
C665 C666 1.369 . S
C665 C667 1.419 . S
C665 H669 0.930 . S
C666 C665 1.369 . S
C666 C675 1.429 1_445 S
C667 C665 1.419 . S
C667 C668 1.363 1_445 S
C667 H670 0.929 . S
C668 C667 1.363 1_665 S
C668 C674 1.428 . S
H669 C665 0.930 . S
H670 C667 0.929 . S
S671 N672 1.613 . S
S671 N673 1.610 . S
N672 S671 1.613 . S
N672 C675 1.350 . S
N673 S671 1.610 . S
N673 C674 1.351 . S
C674 C668 1.428 . S
C674 N673 1.351 . S
C674 C675 1.434 . S
C675 C666 1.429 1_665 S
C675 N672 1.350 . S
C675 C674 1.434 . S
C676 C677 1.369 . S
C676 C678 1.419 1_554 S
C676 H680 0.930 . S
C677 C676 1.369 . S
C677 C686 1.429 . S
C678 C676 1.419 1_556 S
C678 C679 1.363 . S
C678 H681 0.929 . S
C679 C678 1.363 . S
C679 C685 1.428 . S
H680 C676 0.930 . S
H681 C678 0.929 . S
S682 N683 1.613 . S
S682 N684 1.610 1_554 S
N683 S682 1.613 . S
N683 C686 1.350 . S
N684 S682 1.610 1_556 S
N684 C685 1.351 . S
C685 C679 1.428 . S
C685 N684 1.351 . S
C685 C686 1.434 1_556 S
C686 C677 1.429 . S
C686 N683 1.350 . S
C686 C685 1.434 1_554 S
C687 C688 1.369 . S
C687 C689 1.419 . S
C687 H691 0.930 . S
C688 C687 1.369 . S
C688 C697 1.429 1_655 S
C689 C687 1.419 . S
C689 C690 1.363 1_655 S
C689 H692 0.929 . S
C690 C689 1.363 1_455 S
C690 C696 1.428 . S
H691 C687 0.930 . S
H692 C689 0.929 . S
S693 N694 1.613 . S
S693 N695 1.610 . S
N694 S693 1.613 . S
N694 C697 1.350 . S
N695 S693 1.610 . S
N695 C696 1.351 . S
C696 C690 1.428 . S
C696 N695 1.351 . S
C696 C697 1.434 . S
C697 C688 1.429 1_455 S
C697 N694 1.350 . S
C697 C696 1.434 . S
C698 C699 1.369 1_655 S
C698 C700 1.419 1_556 S
C698 H702 0.930 . S
C699 C698 1.369 1_455 S
C699 C708 1.429 1_545 S
C700 C698 1.419 1_554 S
C700 C701 1.363 1_545 S
C700 H703 0.929 . S
C701 C700 1.363 1_565 S
C701 C707 1.428 1_655 S
H702 C698 0.930 . S
H703 C700 0.929 . S
S704 N705 1.613 1_554 S
S704 N706 1.610 . S
N705 S704 1.613 1_556 S
N705 C708 1.350 . S
N706 S704 1.610 . S
N706 C707 1.351 . S
C707 C701 1.428 1_455 S
C707 N706 1.351 . S
C707 C708 1.434 1_554 S
C708 C699 1.429 1_565 S
C708 N705 1.350 . S
C708 C707 1.434 1_556 S
C709 C710 1.369 . S
C709 C711 1.419 1_565 S
C709 H713 0.930 . S
C710 C709 1.369 . S
C710 C719 1.429 . S
C711 C709 1.419 1_545 S
C711 C712 1.363 . S
C711 H714 0.929 . S
C712 C711 1.363 . S
C712 C718 1.428 . S
H713 C709 0.930 . S
H714 C711 0.929 . S
S715 N716 1.613 1_545 S
S715 N717 1.610 . S
N716 S715 1.613 1_565 S
N716 C719 1.350 . S
N717 S715 1.610 . S
N717 C718 1.351 . S
C718 C712 1.428 . S
C718 N717 1.351 . S
C718 C719 1.434 1_545 S
C719 C710 1.429 . S
C719 N716 1.350 . S
C719 C718 1.434 1_565 S
C720 C721 1.369 . S
C720 C722 1.419 . S
C720 H724 0.930 . S
C721 C720 1.369 . S
C721 C730 1.429 . S
C722 C720 1.419 . S
C722 C723 1.363 . S
C722 H725 0.929 . S
C723 C722 1.363 . S
C723 C729 1.428 1_545 S
H724 C720 0.930 . S
H725 C722 0.929 . S
S726 N727 1.613 1_565 S
S726 N728 1.610 . S
N727 S726 1.613 1_545 S
N727 C730 1.350 . S
N728 S726 1.610 . S
N728 C729 1.351 . S
C729 C723 1.428 1_565 S
C729 N728 1.351 . S
C729 C730 1.434 1_565 S
C730 C721 1.429 . S
C730 N727 1.350 . S
C730 C729 1.434 1_545 S
C731 C732 1.369 . S
C731 C733 1.419 . S
C731 H735 0.930 . S
C732 C731 1.369 . S
C732 C741 1.429 . S
C733 C731 1.419 . S
C733 C734 1.363 . S
C733 H736 0.929 . S
C734 C733 1.363 . S
C734 C740 1.428 . S
H735 C731 0.930 . S
H736 C733 0.929 . S
S737 N738 1.613 . S
S737 N739 1.610 . S
N738 S737 1.613 . S
N738 C741 1.350 . S
N739 S737 1.610 . S
N739 C740 1.351 . S
C740 C734 1.428 . S
C740 N739 1.351 . S
C740 C741 1.434 . S
C741 C732 1.429 . S
C741 N738 1.350 . S
C741 C740 1.434 . S
C742 C743 1.369 . S
C742 C744 1.419 . S
C742 H746 0.930 . S
C743 C742 1.369 . S
C743 C752 1.429 . S
C744 C742 1.419 . S
C744 C745 1.363 . S
C744 H747 0.929 . S
C745 C744 1.363 . S
C745 C751 1.428 . S
H746 C742 0.930 . S
H747 C744 0.929 . S
S748 N749 1.613 . S
S748 N750 1.610 . S
N749 S748 1.613 . S
N749 C752 1.350 . S
N750 S748 1.610 . S
N750 C751 1.351 . S
C751 C745 1.428 . S
C751 N750 1.351 . S
C751 C752 1.434 . S
C752 C743 1.429 . S
C752 N749 1.350 . S
C752 C751 1.434 . S
C753 C754 1.369 1_655 S
C753 C755 1.419 . S
C753 H757 0.930 . S
C754 C753 1.369 1_455 S
C754 C763 1.429 . S
C755 C753 1.419 . S
C755 C756 1.363 1_655 S
C755 H758 0.929 . S
C756 C755 1.363 1_455 S
C756 C762 1.428 . S
H757 C753 0.930 . S
H758 C755 0.929 . S
S759 N760 1.613 . S
S759 N761 1.610 . S
N760 S759 1.613 . S
N760 C763 1.350 . S
N761 S759 1.610 . S
N761 C762 1.351 . S
C762 C756 1.428 . S
C762 N761 1.351 . S
C762 C763 1.434 . S
C763 C754 1.429 . S
C763 N760 1.350 . S
C763 C762 1.434 . S
C764 C765 1.369 . S
C764 C766 1.419 . S
C764 H768 0.930 . S
C765 C764 1.369 . S
C765 C774 1.429 . S
C766 C764 1.419 . S
C766 C767 1.363 . S
C766 H769 0.929 . S
C767 C766 1.363 . S
C767 C773 1.428 . S
H768 C764 0.930 . S
H769 C766 0.929 . S
S770 N771 1.613 . S
S770 N772 1.610 . S
N771 S770 1.613 . S
N771 C774 1.350 . S
N772 S770 1.610 . S
N772 C773 1.351 . S
C773 C767 1.428 . S
C773 N772 1.351 . S
C773 C774 1.434 . S
C774 C765 1.429 . S
C774 N771 1.350 . S
C774 C773 1.434 . S
C775 C776 1.369 . S
C775 C777 1.419 . S
C775 H779 0.930 . S
C776 C775 1.369 . S
C776 C785 1.429 . S
C777 C775 1.419 . S
C777 C778 1.363 . S
C777 H780 0.929 . S
C778 C777 1.363 . S
C778 C784 1.428 . S
H779 C775 0.930 . S
H780 C777 0.929 . S
S781 N782 1.613 . S
S781 N783 1.610 . S
N782 S781 1.613 . S
N782 C785 1.350 . S
N783 S781 1.610 . S
N783 C784 1.351 . S
C784 C778 1.428 . S
C784 N783 1.351 . S
C784 C785 1.434 . S
C785 C776 1.429 . S
C785 N782 1.350 . S
C785 C784 1.434 . S
C786 C787 1.369 . S
C786 C788 1.419 1_545 S
C786 H790 0.930 . S
C787 C786 1.369 . S
C787 C796 1.429 . S
C788 C786 1.419 1_565 S
C788 C789 1.363 1_565 S
C788 H791 0.929 . S
C789 C788 1.363 1_545 S
C789 C795 1.428 . S
H790 C786 0.930 . S
H791 C788 0.929 . S
S792 N793 1.613 . S
S792 N794 1.610 . S
N793 S792 1.613 . S
N793 C796 1.350 . S
N794 S792 1.610 . S
N794 C795 1.351 . S
C795 C789 1.428 . S
C795 N794 1.351 . S
C795 C796 1.434 . S
C796 C787 1.429 . S
C796 N793 1.350 . S
C796 C795 1.434 . S
C797 C798 1.369 . S
C797 C799 1.419 . S
C797 H801 0.930 . S
C798 C797 1.369 . S
C798 C807 1.429 . S
C799 C797 1.419 . S
C799 C800 1.363 . S
C799 H802 0.929 . S
C800 C799 1.363 . S
C800 C806 1.428 . S
H801 C797 0.930 . S
H802 C799 0.929 . S
S803 N804 1.613 . S
S803 N805 1.610 . S
N804 S803 1.613 . S
N804 C807 1.350 . S
N805 S803 1.610 . S
N805 C806 1.351 . S
C806 C800 1.428 . S
C806 N805 1.351 . S
C806 C807 1.434 . S
C807 C798 1.429 . S
C807 N804 1.350 . S
C807 C806 1.434 . S
C808 C809 1.369 . S
C808 C810 1.419 . S
C808 H812 0.930 . S
C809 C808 1.369 . S
C809 C818 1.429 1_565 S
C810 C808 1.419 . S
C810 C811 1.363 . S
C810 H813 0.929 . S
C811 C810 1.363 . S
C811 C817 1.428 1_565 S
H812 C808 0.930 . S
H813 C810 0.929 . S
S814 N815 1.613 . S
S814 N816 1.610 . S
N815 S814 1.613 . S
N815 C818 1.350 . S
N816 S814 1.610 . S
N816 C817 1.351 . S
C817 C811 1.428 1_545 S
C817 N816 1.351 . S
C817 C818 1.434 . S
C818 C809 1.429 1_545 S
C818 N815 1.350 . S
C818 C817 1.434 . S
C819 C820 1.369 . S
C819 C821 1.419 . S
C819 H823 0.930 . S
C820 C819 1.369 . S
C820 C829 1.429 . S
C821 C819 1.419 . S
C821 C822 1.363 . S
C821 H824 0.929 . S
C822 C821 1.363 . S
C822 C828 1.428 . S
H823 C819 0.930 . S
H824 C821 0.929 . S
S825 N826 1.613 . S
S825 N827 1.610 . S
N826 S825 1.613 . S
N826 C829 1.350 . S
N827 S825 1.610 . S
N827 C828 1.351 . S
C828 C822 1.428 . S
C828 N827 1.351 . S
C828 C829 1.434 . S
C829 C820 1.429 . S
C829 N826 1.350 . S
C829 C828 1.434 . S
C830 C831 1.369 . S
C830 C832 1.419 . S
C830 H834 0.930 . S
C831 C830 1.369 . S
C831 C840 1.429 . S
C832 C830 1.419 . S
C832 C833 1.363 . S
C832 H835 0.929 . S
C833 C832 1.363 . S
C833 C839 1.428 . S
H834 C830 0.930 . S
H835 C832 0.929 . S
S836 N837 1.613 . S
S836 N838 1.610 . S
N837 S836 1.613 . S
N837 C840 1.350 . S
N838 S836 1.610 . S
N838 C839 1.351 . S
C839 C833 1.428 . S
C839 N838 1.351 . S
C839 C840 1.434 . S
C840 C831 1.429 . S
C840 N837 1.350 . S
C840 C839 1.434 . S
C841 C842 1.369 . S
C841 C843 1.419 . S
C841 H845 0.930 . S
C842 C841 1.369 . S
C842 C851 1.427 1_655 S
C843 C841 1.419 . S
C843 C844 1.363 . S
C843 H846 0.929 . S
C844 C843 1.363 . S
C844 C850 1.428 . S
H845 C841 0.930 . S
H846 C843 0.929 . S
S847 N848 1.613 . S
S847 N849 1.610 1_455 S
N848 S847 1.613 . S
N848 C851 1.354 . S
N849 S847 1.610 1_655 S
N849 C850 1.351 . S
C850 C844 1.428 . S
C850 N849 1.351 . S
C850 C851 1.431 1_655 S
C851 C842 1.427 1_455 S
C851 N848 1.354 . S
C851 C850 1.431 1_455 S
C852 C853 1.369 . S
C852 C854 1.419 . S
C852 H856 0.930 . S
C853 C852 1.369 . S
C853 C862 1.429 . S
C854 C852 1.419 . S
C854 C855 1.363 . S
C854 H857 0.929 . S
C855 C854 1.363 . S
C855 C861 1.428 . S
H856 C852 0.930 . S
H857 C854 0.929 . S
S858 N859 1.613 . S
S858 N860 1.610 . S
N859 S858 1.613 . S
N859 C862 1.350 . S
N860 S858 1.610 . S
N860 C861 1.351 . S
C861 C855 1.428 . S
C861 N860 1.351 . S
C861 C862 1.434 . S
C862 C853 1.429 . S
C862 N859 1.350 . S
C862 C861 1.434 . S
C863 C864 1.369 1_455 S
C863 C865 1.419 . S
C863 H867 0.930 . S
C864 C863 1.369 1_655 S
C864 C873 1.429 . S
C865 C863 1.419 . S
C865 C866 1.363 1_455 S
C865 H868 0.929 . S
C866 C865 1.363 1_655 S
C866 C872 1.428 . S
H867 C863 0.930 . S
H868 C865 0.929 . S
S869 N870 1.613 . S
S869 N871 1.610 . S
N870 S869 1.613 . S
N870 C873 1.350 . S
N871 S869 1.610 . S
N871 C872 1.351 . S
C872 C866 1.428 . S
C872 N871 1.351 . S
C872 C873 1.434 . S
C873 C864 1.429 . S
C873 N870 1.350 . S
C873 C872 1.434 . S
C874 C875 1.369 1_545 S
C874 C876 1.419 . S
C874 H878 0.930 . S
C875 C874 1.369 1_565 S
C875 C884 1.429 . S
C876 C874 1.419 . S
C876 C877 1.363 1_545 S
C876 H879 0.929 . S
C877 C876 1.363 1_565 S
C877 C883 1.428 . S
H878 C874 0.930 . S
H879 C876 0.929 . S
S880 N881 1.613 . S
S880 N882 1.610 . S
N881 S880 1.613 . S
N881 C884 1.350 . S
N882 S880 1.610 . S
N882 C883 1.351 . S
C883 C877 1.428 . S
C883 N882 1.351 . S
C883 C884 1.434 . S
C884 C875 1.429 . S
C884 N881 1.350 . S
C884 C883 1.434 . S
C885 C886 1.369 . S
C885 C887 1.419 . S
C885 H889 0.930 . S
C886 C885 1.369 . S
C886 C895 1.429 . S
C887 C885 1.419 . S
C887 C888 1.363 . S
C887 H890 0.929 . S
C888 C887 1.363 . S
C888 C894 1.428 . S
H889 C885 0.930 . S
H890 C887 0.929 . S
S891 N892 1.613 . S
S891 N893 1.610 . S
N892 S891 1.613 . S
N892 C895 1.350 . S
N893 S891 1.610 . S
N893 C894 1.351 . S
C894 C888 1.428 . S
C894 N893 1.351 . S
C894 C895 1.434 . S
C895 C886 1.429 . S
C895 N892 1.350 . S
C895 C894 1.434 . S
C896 C897 1.369 . S
C896 C898 1.419 . S
C896 H900 0.930 . S
C897 C896 1.369 . S
C897 C906 1.429 . S
C898 C896 1.419 . S
C898 C899 1.363 . S
C898 H901 0.929 . S
C899 C898 1.363 . S
C899 C905 1.428 . S
H900 C896 0.930 . S
H901 C898 0.929 . S
S902 N903 1.613 . S
S902 N904 1.610 . S
N903 S902 1.613 . S
N903 C906 1.350 . S
N904 S902 1.610 . S
N904 C905 1.351 . S
C905 C899 1.428 . S
C905 N904 1.351 . S
C905 C906 1.434 . S
C906 C897 1.429 . S
C906 N903 1.350 . S
C906 C905 1.434 . S
C907 C908 1.369 . S
C907 C909 1.419 . S
C907 H911 0.930 . S
C908 C907 1.369 . S
C908 C917 1.429 . S
C909 C907 1.419 . S
C909 C910 1.363 . S
C909 H912 0.929 . S
C910 C909 1.363 . S
C910 C916 1.428 . S
H911 C907 0.930 . S
H912 C909 0.929 . S
S913 N914 1.613 . S
S913 N915 1.610 . S
N914 S913 1.613 . S
N914 C917 1.350 . S
N915 S913 1.610 . S
N915 C916 1.351 . S
C916 C910 1.428 . S
C916 N915 1.351 . S
C916 C917 1.434 . S
C917 C908 1.429 . S
C917 N914 1.350 . S
C917 C916 1.434 . S
C918 C919 1.369 . S
C918 C920 1.419 . S
C918 H922 0.930 . S
C919 C918 1.369 . S
C919 C928 1.429 . S
C920 C918 1.419 . S
C920 C921 1.363 . S
C920 H923 0.929 . S
C921 C920 1.363 . S
C921 C927 1.428 . S
H922 C918 0.930 . S
H923 C920 0.929 . S
S924 N925 1.613 . S
S924 N926 1.610 . S
N925 S924 1.613 . S
N925 C928 1.350 . S
N926 S924 1.610 . S
N926 C927 1.351 . S
C927 C921 1.428 . S
C927 N926 1.351 . S
C927 C928 1.434 . S
C928 C919 1.429 . S
C928 N925 1.350 . S
C928 C927 1.434 . S
C929 C930 1.369 . S
C929 C931 1.419 . S
C929 H933 0.930 . S
C930 C929 1.369 . S
C930 C939 1.429 . S
C931 C929 1.419 . S
C931 C932 1.363 . S
C931 H934 0.929 . S
C932 C931 1.363 . S
C932 C938 1.428 . S
H933 C929 0.930 . S
H934 C931 0.929 . S
S935 N936 1.613 . S
S935 N937 1.610 . S
N936 S935 1.613 . S
N936 C939 1.350 . S
N937 S935 1.610 . S
N937 C938 1.351 . S
C938 C932 1.428 . S
C938 N937 1.351 . S
C938 C939 1.434 . S
C939 C930 1.429 . S
C939 N936 1.350 . S
C939 C938 1.434 . S
C940 C941 1.369 . S
C940 C942 1.419 . S
C940 H944 0.930 . S
C941 C940 1.369 . S
C941 C950 1.429 . S
C942 C940 1.419 . S
C942 C943 1.363 . S
C942 H945 0.929 . S
C943 C942 1.363 . S
C943 C949 1.428 . S
H944 C940 0.930 . S
H945 C942 0.929 . S
S946 N947 1.613 . S
S946 N948 1.610 . S
N947 S946 1.613 . S
N947 C950 1.350 . S
N948 S946 1.610 . S
N948 C949 1.351 . S
C949 C943 1.428 . S
C949 N948 1.351 . S
C949 C950 1.434 . S
C950 C941 1.429 . S
C950 N947 1.350 . S
C950 C949 1.434 . S
C951 C952 1.369 . S
C951 C953 1.419 . S
C951 H955 0.930 . S
C952 C951 1.369 . S
C952 C961 1.429 . S
C953 C951 1.419 . S
C953 C954 1.363 . S
C953 H956 0.929 . S
C954 C953 1.363 . S
C954 C960 1.428 . S
H955 C951 0.930 . S
H956 C953 0.929 . S
S957 N958 1.613 . S
S957 N959 1.610 . S
N958 S957 1.613 . S
N958 C961 1.350 . S
N959 S957 1.610 . S
N959 C960 1.351 . S
C960 C954 1.428 . S
C960 N959 1.351 . S
C960 C961 1.434 . S
C961 C952 1.429 . S
C961 N958 1.350 . S
C961 C960 1.434 . S
C962 C963 1.369 . S
C962 C964 1.419 . S
C962 H966 0.930 . S
C963 C962 1.369 . S
C963 C972 1.429 . S
C964 C962 1.419 . S
C964 C965 1.363 . S
C964 H967 0.929 . S
C965 C964 1.363 . S
C965 C971 1.428 . S
H966 C962 0.930 . S
H967 C964 0.929 . S
S968 N969 1.613 . S
S968 N970 1.610 . S
N969 S968 1.613 . S
N969 C972 1.350 . S
N970 S968 1.610 . S
N970 C971 1.351 . S
C971 C965 1.428 . S
C971 N970 1.351 . S
C971 C972 1.434 . S
C972 C963 1.429 . S
C972 N969 1.350 . S
C972 C971 1.434 . S
C973 C974 1.369 . S
C973 C975 1.419 . S
C973 H977 0.930 . S
C974 C973 1.369 . S
C974 C983 1.429 . S
C975 C973 1.419 . S
C975 C976 1.363 . S
C975 H978 0.929 . S
C976 C975 1.363 . S
C976 C982 1.428 . S
H977 C973 0.930 . S
H978 C975 0.929 . S
S979 N980 1.613 . S
S979 N981 1.610 . S
N980 S979 1.613 . S
N980 C983 1.350 . S
N981 S979 1.610 . S
N981 C982 1.351 . S
C982 C976 1.428 . S
C982 N981 1.351 . S
C982 C983 1.434 . S
C983 C974 1.429 . S
C983 N980 1.350 . S
C983 C982 1.434 . S
C545 C5 1.548 . S
C547 C243 1.548 . S
C556 C141 1.545 . S
C558 C39 1.546 . S
C567 C175 1.548 . S
C569 C73 1.548 . S
C578 C209 1.548 . S
C580 C107 1.548 . S
C589 C277 1.547 . S
C591 C515 1.548 . S
C600 C311 1.547 . S
C602 C413 1.546 . S
C611 C447 1.545 . S
C613 C345 1.546 . S
C622 C379 1.549 . S
C624 C481 1.548 . S
C633 C9 1.504 . S
C635 C281 1.515 . S
C644 C315 1.506 . S
C646 C43 1.513 . S
C655 C349 1.516 . S
C657 C77 1.506 . S
C666 C111 1.507 . S
C668 C383 1.512 . S
C677 C417 1.507 . S
C679 C145 1.513 . S
C688 C451 1.516 . S
C690 C179 1.505 . S
C699 C213 1.516 . S
C701 C485 1.505 . S
C710 C519 1.516 . S
C712 C247 1.505 . S
C721 C20 1.113 . S
C723 C478 1.113 1_545 S
C732 C512 1.112 . S
C734 C54 1.117 . S
C743 C88 1.114 . S
C745 C410 1.114 . S
C754 C444 1.116 1_455 S
C756 C122 1.118 . S
C765 C156 1.113 . S
C767 C342 1.111 . S
C776 C190 1.118 . S
C778 C376 1.113 1_455 S
C787 C224 1.115 . S
C789 C274 1.114 1_545 S
C798 C258 1.118 . S
C800 C308 1.115 . S
C809 C206 1.110 1_565 S
C811 C292 1.115 . S
C820 C240 1.110 . S
C822 C326 1.114 . S
C831 C360 1.118 . S
C833 C138 1.114 . S
C842 C172 1.112 1_655 S
C844 C394 1.117 . S
C853 C70 1.110 . S
C855 C428 1.114 . S
C864 C104 1.116 1_655 S
C866 C462 1.117 . S
C875 C496 1.118 . S
C877 C2 1.114 1_565 S
C886 C36 1.115 . S
C888 C530 1.115 . S
C897 C101 1.439 . S
C899 C33 1.426 . S
C908 C135 1.436 . S
C910 C67 1.428 . S
C919 C169 1.439 . S
C921 C237 1.426 . S
C930 C271 1.432 . S
C932 C203 1.431 . S
C941 C305 1.426 . S
C943 C373 1.435 . S
C952 C407 1.432 . S
C954 C339 1.430 . S
C963 C441 1.425 . S
C965 C509 1.436 . S
C974 C475 1.431 . S
C976 C543 1.431 . S
