# Generated by pormake.
# Topology wmi, (6)-cn, num edge types: 1
# Building blocks:
#     Node 0, Type 0, BuildingBlock: MAKGUD_clean_sbu_1, # of connection points: 6
#     Node 1, Type 0, BuildingBlock: MAKGUD_clean_sbu_1, # of connection points: 6
#     Node 2, Type 0, BuildingBlock: MAKGUD_clean_sbu_1, # of connection points: 6
#     Node 3, Type 0, BuildingBlock: MAKGUD_clean_sbu_1, # of connection points: 6
#     Node 4, Type 0, BuildingBlock: MAKGUD_clean_sbu_1, # of connection points: 6
#     Node 5, Type 0, BuildingBlock: MAKGUD_clean_sbu_1, # of connection points: 6
#     Node 6, Type 0, BuildingBlock: MAKGUD_clean_sbu_1, # of connection points: 6
#     Node 7, Type 0, BuildingBlock: MAKGUD_clean_sbu_1, # of connection points: 6
#     Node 8, Type 0, BuildingBlock: MAKGUD_clean_sbu_1, # of connection points: 6
#     Node 9, Type 0, BuildingBlock: MAKGUD_clean_sbu_1, # of connection points: 6
#     Node 10, Type 0, BuildingBlock: MAKGUD_clean_sbu_1, # of connection points: 6
#     Node 11, Type 0, BuildingBlock: MAKGUD_clean_sbu_1, # of connection points: 6
#     Node 12, Type 0, BuildingBlock: MAKGUD_clean_sbu_1, # of connection points: 6
#     Node 13, Type 0, BuildingBlock: MAKGUD_clean_sbu_1, # of connection points: 6
#     Node 14, Type 0, BuildingBlock: MAKGUD_clean_sbu_1, # of connection points: 6
#     Node 15, Type 0, BuildingBlock: MAKGUD_clean_sbu_1, # of connection points: 6
#     Node 16, Type 0, BuildingBlock: MAKGUD_clean_sbu_1, # of connection points: 6
#     Node 17, Type 0, BuildingBlock: MAKGUD_clean_sbu_1, # of connection points: 6
#     Edge 18, Type (0, 0), BuildingBlock: AJUNOK_clean_linker_0, # of connection points: 2
#     Edge 19, Type (0, 0), BuildingBlock: AJUNOK_clean_linker_0, # of connection points: 2
#     Edge 20, Type (0, 0), BuildingBlock: AJUNOK_clean_linker_0, # of connection points: 2
#     Edge 21, Type (0, 0), BuildingBlock: AJUNOK_clean_linker_0, # of connection points: 2
#     Edge 22, Type (0, 0), BuildingBlock: AJUNOK_clean_linker_0, # of connection points: 2
#     Edge 23, Type (0, 0), BuildingBlock: AJUNOK_clean_linker_0, # of connection points: 2
#     Edge 24, Type (0, 0), BuildingBlock: AJUNOK_clean_linker_0, # of connection points: 2
#     Edge 25, Type (0, 0), BuildingBlock: AJUNOK_clean_linker_0, # of connection points: 2
#     Edge 26, Type (0, 0), BuildingBlock: AJUNOK_clean_linker_0, # of connection points: 2
#     Edge 27, Type (0, 0), BuildingBlock: AJUNOK_clean_linker_0, # of connection points: 2
#     Edge 28, Type (0, 0), BuildingBlock: AJUNOK_clean_linker_0, # of connection points: 2
#     Edge 29, Type (0, 0), BuildingBlock: AJUNOK_clean_linker_0, # of connection points: 2
#     Edge 30, Type (0, 0), BuildingBlock: AJUNOK_clean_linker_0, # of connection points: 2
#     Edge 31, Type (0, 0), BuildingBlock: AJUNOK_clean_linker_0, # of connection points: 2
#     Edge 32, Type (0, 0), BuildingBlock: AJUNOK_clean_linker_0, # of connection points: 2
#     Edge 33, Type (0, 0), BuildingBlock: AJUNOK_clean_linker_0, # of connection points: 2
#     Edge 34, Type (0, 0), BuildingBlock: AJUNOK_clean_linker_0, # of connection points: 2
#     Edge 35, Type (0, 0), BuildingBlock: AJUNOK_clean_linker_0, # of connection points: 2
#     Edge 36, Type (0, 0), BuildingBlock: AJUNOK_clean_linker_0, # of connection points: 2
#     Edge 37, Type (0, 0), BuildingBlock: AJUNOK_clean_linker_0, # of connection points: 2
#     Edge 38, Type (0, 0), BuildingBlock: AJUNOK_clean_linker_0, # of connection points: 2
#     Edge 39, Type (0, 0), BuildingBlock: AJUNOK_clean_linker_0, # of connection points: 2
#     Edge 40, Type (0, 0), BuildingBlock: AJUNOK_clean_linker_0, # of connection points: 2
#     Edge 41, Type (0, 0), BuildingBlock: AJUNOK_clean_linker_0, # of connection points: 2
#     Edge 42, Type (0, 0), BuildingBlock: AJUNOK_clean_linker_0, # of connection points: 2
#     Edge 43, Type (0, 0), BuildingBlock: AJUNOK_clean_linker_0, # of connection points: 2
#     Edge 44, Type (0, 0), BuildingBlock: AJUNOK_clean_linker_0, # of connection points: 2
#     Edge 45, Type (0, 0), BuildingBlock: AJUNOK_clean_linker_0, # of connection points: 2
#     Edge 46, Type (0, 0), BuildingBlock: AJUNOK_clean_linker_0, # of connection points: 2
#     Edge 47, Type (0, 0), BuildingBlock: AJUNOK_clean_linker_0, # of connection points: 2
#     Edge 48, Type (0, 0), BuildingBlock: AJUNOK_clean_linker_0, # of connection points: 2
#     Edge 49, Type (0, 0), BuildingBlock: AJUNOK_clean_linker_0, # of connection points: 2
#     Edge 50, Type (0, 0), BuildingBlock: AJUNOK_clean_linker_0, # of connection points: 2
#     Edge 51, Type (0, 0), BuildingBlock: AJUNOK_clean_linker_0, # of connection points: 2
#     Edge 52, Type (0, 0), BuildingBlock: AJUNOK_clean_linker_0, # of connection points: 2
#     Edge 53, Type (0, 0), BuildingBlock: AJUNOK_clean_linker_0, # of connection points: 2
#     Edge 54, Type (0, 0), BuildingBlock: AJUNOK_clean_linker_0, # of connection points: 2
#     Edge 55, Type (0, 0), BuildingBlock: AJUNOK_clean_linker_0, # of connection points: 2
#     Edge 56, Type (0, 0), BuildingBlock: AJUNOK_clean_linker_0, # of connection points: 2
#     Edge 57, Type (0, 0), BuildingBlock: AJUNOK_clean_linker_0, # of connection points: 2
#     Edge 58, Type (0, 0), BuildingBlock: AJUNOK_clean_linker_0, # of connection points: 2
#     Edge 59, Type (0, 0), BuildingBlock: AJUNOK_clean_linker_0, # of connection points: 2
#     Edge 60, Type (0, 0), BuildingBlock: AJUNOK_clean_linker_0, # of connection points: 2
#     Edge 61, Type (0, 0), BuildingBlock: AJUNOK_clean_linker_0, # of connection points: 2
#     Edge 62, Type (0, 0), BuildingBlock: AJUNOK_clean_linker_0, # of connection points: 2
#     Edge 63, Type (0, 0), BuildingBlock: AJUNOK_clean_linker_0, # of connection points: 2
#     Edge 64, Type (0, 0), BuildingBlock: AJUNOK_clean_linker_0, # of connection points: 2
#     Edge 65, Type (0, 0), BuildingBlock: AJUNOK_clean_linker_0, # of connection points: 2
#     Edge 66, Type (0, 0), BuildingBlock: AJUNOK_clean_linker_0, # of connection points: 2
#     Edge 67, Type (0, 0), BuildingBlock: AJUNOK_clean_linker_0, # of connection points: 2
#     Edge 68, Type (0, 0), BuildingBlock: AJUNOK_clean_linker_0, # of connection points: 2
#     Edge 69, Type (0, 0), BuildingBlock: AJUNOK_clean_linker_0, # of connection points: 2
#     Edge 70, Type (0, 0), BuildingBlock: AJUNOK_clean_linker_0, # of connection points: 2
#     Edge 71, Type (0, 0), BuildingBlock: AJUNOK_clean_linker_0, # of connection points: 2
# Relax obj value: 0.136
# Max RMSD: 0.275
# Mean RMSD: 0.275
data_MOF--net-wmi--node1-MAKGUD_clean_sbu_1--edge1-AJUNOK_clean_linker_0
_symmetry_space_group_name_H-M    P1
_symmetry_Int_Tables_number       1
_symmetry_cell_setting            triclinic
loop_
_symmetry_equiv_pos_as_xyz
'x, y, z'
_cell_length_a     28.836227
_cell_length_b     28.758856
_cell_length_c     55.089718
_cell_angle_alpha  90.377014
_cell_angle_beta   89.39445
_cell_angle_gamma 119.93004
loop_
_atom_site_label
_atom_site_type_symbol
_atom_site_fract_x
_atom_site_fract_y
_atom_site_fract_z
_atom_type_partial_charge
O0 O 0.60324 0.25014 0.12344 0.0
Tb1 Tb 0.58399 0.17036 0.11073 0.0
C2 C 0.54637 0.08929 0.06495 0.0
O3 O 0.54007 0.04894 0.12619 0.0
Tb4 Tb 0.50254 0.99005 0.09787 0.0
C5 C 0.40585 0.90417 0.10356 0.0
O6 O 0.5281 0.11707 0.13843 0.0
O7 O 0.55732 0.96285 0.08647 0.0
C8 C 0.5816 0.9509 0.10334 0.0
O9 O 0.57674 0.9625 0.12601 0.0
O10 O 0.58182 0.13528 0.07495 0.0
O11 O 0.5032 0.05428 0.07687 0.0
O12 O 0.66961 0.20165 0.11522 0.0
C13 C 0.51397 0.06614 0.13965 0.0
C14 C 0.57693 0.25922 0.10691 0.0
O15 O 0.44162 0.9263 0.1206 0.0
O16 O 0.42432 0.93148 0.08355 0.0
C17 C 0.70099 0.22675 0.09649 0.0
O18 O 0.67862 0.2268 0.07585 0.0
O19 O 0.5535 0.21746 0.09271 0.0
O20 O 0.94287 0.43086 0.11517 0.0
Tb21 Tb 1.01815 0.48429 0.09655 0.0
C22 C 0.09363 0.51762 0.05049 0.0
O23 O 0.14386 0.55372 0.12456 0.0
Tb24 Tb 0.18258 0.56954 0.08917 0.0
C25 C 0.27379 0.56666 0.08705 0.0
O26 O 0.06985 0.4701 0.1204 0.0
O27 O 0.20966 0.65506 0.08833 0.0
C28 C 0.23624 0.68246 0.1076 0.0
O29 O 0.23899 0.65532 0.12606 0.0
O30 O 1.04833 0.51001 0.05987 0.0
O31 O 0.12724 0.51049 0.06361 0.0
O32 O 0.99487 0.54496 0.10236 0.0
C33 C 0.11329 0.50437 0.13218 0.0
C34 C 0.92387 0.39337 0.09879 0.0
O35 O 0.2372 0.54444 0.10391 0.0
O36 O 0.25858 0.59 0.0715 0.0
C37 C 0.97218 0.55488 0.08392 0.0
O38 O 0.97065 0.53252 0.06288 0.0
O39 O 0.95807 0.40726 0.08083 0.0
O40 O 0.7621 0.57707 0.10761 0.0
Tb41 Tb 0.70498 0.59761 0.09245 0.0
C42 C 0.66091 0.63421 0.04806 0.0
O43 O 0.63084 0.64556 0.11407 0.0
Tb44 Tb 0.61188 0.68007 0.08373 0.0
C45 C 0.62836 0.77947 0.08808 0.0
O46 O 0.71548 0.66048 0.11765 0.0
O47 O 0.52739 0.62814 0.07617 0.0
C48 C 0.49297 0.61155 0.09439 0.0
O49 O 0.5116 0.62051 0.11663 0.0
O50 O 0.67086 0.59759 0.05707 0.0
O51 O 0.67197 0.67746 0.06058 0.0
O52 O 0.64709 0.51527 0.10241 0.0
C53 C 0.67865 0.67271 0.12352 0.0
C54 C 0.79864 0.59964 0.0909 0.0
O55 O 0.62421 0.74841 0.1061 0.0
O56 O 0.62445 0.75472 0.06769 0.0
C57 C 0.63153 0.4775 0.0857 0.0
O58 O 0.6468 0.49178 0.06312 0.0
O59 O 0.78215 0.62081 0.07467 0.0
O60 O 0.27766 0.58349 0.8886 0.0
Tb61 Tb 0.19783 0.56415 0.90092 0.0
C62 C 0.11202 0.52258 0.94524 0.0
O63 O 0.07865 0.51714 0.88242 0.0
Tb64 Tb 1.0166 0.47608 0.90935 0.0
C65 C 0.93879 0.3746 0.903 0.0
O66 O 0.14944 0.50735 0.87306 0.0
O67 O 0.98017 0.52539 0.91705 0.0
C68 C 0.96988 0.548 0.89871 0.0
O69 O 0.98786 0.54502 0.8771 0.0
O70 O 0.15684 0.56044 0.93518 0.0
O71 O 0.07756 0.47896 0.93352 0.0
O72 O 0.22738 0.64908 0.89533 0.0
C73 C 0.09886 0.49227 0.87006 0.0
C74 C 0.28825 0.56105 0.90644 0.0
O75 O 0.96185 0.41008 0.88589 0.0
O76 O 0.96025 0.39635 0.92372 0.0
C77 C 0.25084 0.68065 0.91404 0.0
O78 O 0.2492 0.65831 0.935 0.0
O79 O 0.24717 0.53925 0.92119 0.0
O80 O 0.63835 0.76163 0.89276 0.0
Tb81 Tb 0.62619 0.68493 0.9064 0.0
C82 C 0.65507 0.61935 0.94352 0.0
O83 O 0.66076 0.61136 0.88679 0.0
Tb84 Tb 0.69026 0.5636 0.90348 0.0
C85 C 0.7931 0.59025 0.90325 0.0
O86 O 0.66805 0.68678 0.87284 0.0
O87 O 0.6438 0.47661 0.90019 0.0
C88 C 0.65592 0.4529 0.88279 0.0
O89 O 0.688 0.48269 0.86525 0.0
O90 O 0.67434 0.66155 0.92892 0.0
O91 O 0.66293 0.57869 0.93812 0.0
O92 O 0.54136 0.6266 0.9031 0.0
C93 C 0.68224 0.65019 0.87081 0.0
C94 C 0.63495 0.78137 0.91357 0.0
O95 O 0.76444 0.58357 0.88396 0.0
O96 O 0.76426 0.58469 0.92254 0.0
C97 C 0.50872 0.61608 0.92179 0.0
O98 O 0.52929 0.6354 0.94318 0.0
O99 O 0.62804 0.74705 0.93057 0.0
O100 O 0.4538 0.92481 0.89265 0.0
Tb101 Tb 0.51096 0.99648 0.91261 0.0
C102 C 0.55837 0.07397 0.95939 0.0
O103 O 0.5807 0.10009 0.87743 0.0
Tb104 Tb 0.61667 0.14478 0.91038 0.0
C105 C 0.62415 0.24066 0.90403 0.0
O106 O 0.49488 0.04712 0.88955 0.0
O107 O 0.70016 0.16461 0.91053 0.0
C108 C 0.73042 0.18504 0.89103 0.0
O109 O 0.70673 0.18057 0.87019 0.0
O110 O 0.52101 1.03012 0.94873 0.0
O111 O 0.59711 0.11644 0.94801 0.0
O112 O 0.57385 0.97569 0.90885 0.0
C113 C 0.52949 0.08173 0.87417 0.0
C114 C 0.42044 0.90205 0.91055 0.0
O115 O 0.58087 0.19738 0.91107 0.0
O116 O 0.66227 0.22967 0.90146 0.0
C117 C 0.57848 0.94799 0.92675 0.0
O118 O 0.55181 0.9432 0.94695 0.0
O119 O 0.43837 0.93242 0.92969 0.0
O120 O 0.2749 0.57314 0.44479 0.0
Tb121 Tb 0.25691 0.49532 0.4295 0.0
C122 C 0.22427 0.42745 0.38256 0.0
O123 O 0.19503 0.35518 0.45231 0.0
Tb124 Tb 0.17967 0.32891 0.4146 0.0
C125 C 0.08937 0.23838 0.40399 0.0
O126 O 0.19601 0.43701 0.45482 0.0
O127 O 0.23922 0.30408 0.40943 0.0
C128 C 0.24578 0.27681 0.42689 0.0
O129 O 0.22515 0.27566 0.44838 0.0
O130 O 0.26113 0.47179 0.39243 0.0
O131 O 0.18207 0.39499 0.39532 0.0
O132 O 0.34231 0.52626 0.4344 0.0
C133 C 0.18068 0.38768 0.46265 0.0
C134 C 0.24823 0.5839 0.42906 0.0
O135 O 0.09774 0.26637 0.42379 0.0
O136 O 0.13149 0.26224 0.39015 0.0
C137 C 0.37402 0.55827 0.41708 0.0
O138 O 0.3518 0.56621 0.39805 0.0
O139 O 0.22569 0.5441 0.41376 0.0
O140 O 0.61153 0.75101 0.44588 0.0
Tb141 Tb 0.68244 0.81956 0.43092 0.0
C142 C 0.76563 0.84716 0.38741 0.0
O143 O 0.80053 0.87959 0.44645 0.0
Tb144 Tb 0.86637 0.9034 0.42155 0.0
C145 C 0.94504 0.88099 0.4257 0.0
O146 O 0.7268 0.80694 0.45931 0.0
O147 O 0.90187 0.98942 0.41667 0.0
C148 C 0.9303 1.01263 0.39707 0.0
O149 O 0.93246 0.98216 0.37974 0.0
O150 O 0.74253 0.86581 0.40242 0.0
O151 O 0.81419 0.85569 0.39216 0.0
O152 O 0.64766 0.8705 0.43793 0.0
C153 C 0.77892 0.83606 0.45968 0.0
C154 C 0.59556 0.7231 0.42606 0.0
O155 O 0.91929 0.88737 0.44387 0.0
O156 O 0.92532 0.886 0.40543 0.0
C157 C 0.64269 0.89819 0.42018 0.0
O158 O 0.66928 0.90411 0.3999 0.0
O159 O 0.62912 0.74967 0.40844 0.0
O160 O 0.41682 0.90018 0.4368 0.0
Tb161 Tb 0.36081 0.92163 0.4212 0.0
C162 C 0.32213 0.95642 0.37475 0.0
O163 O 0.29446 0.98068 0.44971 0.0
Tb164 Tb 0.27873 1.00213 0.41429 0.0
C165 C 0.28311 0.09752 0.41422 0.0
O166 O 0.3772 0.98893 0.44515 0.0
O167 O 0.19437 0.94187 0.41258 0.0
C168 C 0.16455 0.93238 0.43223 0.0
O169 O 0.18809 0.9556 0.45264 0.0
O170 O 0.32764 0.91864 0.38543 0.0
O171 O 0.33186 1.00042 0.38637 0.0
O172 O 0.30443 0.83833 0.43106 0.0
C173 C 0.34371 0.99948 0.45709 0.0
C174 C 0.45373 0.92209 0.4202 0.0
O175 O 0.30708 0.08258 0.4296 0.0
O176 O 0.25705 0.05875 0.39885 0.0
C177 C 0.29173 0.80128 0.41411 0.0
O178 O 0.30831 0.81695 0.39179 0.0
O179 O 0.43803 0.94353 0.40373 0.0
O180 O 0.87434 0.87472 0.22301 0.0
Tb181 Tb 0.81584 0.8927 0.24068 0.0
C182 C 0.73272 0.85518 0.28348 0.0
O183 O 0.69591 0.80023 0.22216 0.0
Tb184 Tb 0.65702 0.83857 0.24075 0.0
C185 C 0.55539 0.76034 0.24586 0.0
O186 O 0.77526 0.86499 0.20605 0.0
O187 O 0.67338 0.90153 0.21434 0.0
C188 C 0.64171 0.91795 0.20511 0.0
O189 O 0.66186 0.95445 0.18796 0.0
O190 O 0.75903 0.84045 0.26843 0.0
O191 O 0.69612 0.86601 0.27559 0.0
O192 O 0.84276 0.9781 0.24082 0.0
C193 C 0.72799 0.82182 0.20341 0.0
C194 C 0.90687 0.88752 0.24123 0.0
O195 O 0.59596 0.75368 0.24147 0.0
O196 O 0.57201 0.81153 0.2473 0.0
C197 C 0.86824 1.00811 0.25968 0.0
O198 O 0.86705 0.98446 0.28019 0.0
O199 O 0.88715 0.90181 0.25922 0.0
O200 O 0.23004 1.04003 0.21309 0.0
Tb201 Tb 0.24307 0.97554 0.22541 0.0
C202 C 0.298 0.94516 0.26958 0.0
O203 O 0.29645 0.90839 0.20854 0.0
Tb204 Tb 0.33865 0.88786 0.23438 0.0
C205 C 0.43336 0.89447 0.2256 0.0
O206 O 0.29494 0.98072 0.19513 0.0
O207 O 0.28251 0.80673 0.24634 0.0
C208 C 0.24569 0.77278 0.23137 0.0
O209 O 0.24039 0.79041 0.21024 0.0
O210 O 0.25551 0.94443 0.25987 0.0
O211 O 0.33993 0.95158 0.25682 0.0
O212 O 0.15551 0.92672 0.22364 0.0
C213 C 0.31734 0.95086 0.19457 0.0
C214 C 0.25592 0.07374 0.23036 0.0
O215 O 0.39644 0.88384 0.20944 0.0
O216 O 0.41766 0.90388 0.24645 0.0
C217 C 0.12854 0.93201 0.242 0.0
O218 O 0.15621 0.96071 0.2607 0.0
O219 O 0.2754 0.05233 0.2449 0.0
O220 O 0.08624 0.22456 0.2267 0.0
Tb221 Tb 0.15081 0.30371 0.23722 0.0
C222 C 0.19808 0.39124 0.27925 0.0
O223 O 0.21945 0.42889 0.21978 0.0
Tb224 Tb 0.2266 0.48764 0.24637 0.0
C225 C 0.18437 0.55145 0.24438 0.0
O226 O 0.14588 0.35219 0.2082 0.0
O227 O 0.31244 0.54109 0.2514 0.0
C228 C 0.33191 0.5918 0.24515 0.0
O229 O 0.2991 0.60617 0.23607 0.0
O230 O 0.19093 0.34521 0.27058 0.0
O231 O 0.17743 0.41703 0.26829 0.0
O232 O 0.20276 0.27049 0.22987 0.0
C233 C 0.17747 0.40426 0.20583 0.0
C234 C 1.05386 0.21836 0.24453 0.0
O235 O 0.19308 0.52843 0.22573 0.0
O236 O 0.19662 0.53541 0.26414 0.0
C237 C 0.21449 0.24813 0.24781 0.0
O238 O 0.19846 0.25125 0.26986 0.0
O239 O 0.07604 0.26069 0.25845 0.0
O240 O 0.93638 0.90706 0.78035 0.0
Tb241 Tb 0.92037 0.82823 0.76747 0.0
C242 C 0.88682 0.74398 0.7238 0.0
O243 O 0.87734 0.70494 0.78899 0.0
Tb244 Tb 0.83964 0.64798 0.75966 0.0
C245 C 0.73674 0.57507 0.76581 0.0
O246 O 0.86277 0.77547 0.79465 0.0
O247 O 0.88133 0.60628 0.74641 0.0
C248 C 0.90518 0.58969 0.76161 0.0
O249 O 0.91035 0.60537 0.78436 0.0
O250 O 0.9219 0.79122 0.73282 0.0
O251 O 0.8439 0.71127 0.73642 0.0
O252 O 1.00485 0.8594 0.77439 0.0
C253 C 0.85162 0.72634 0.79989 0.0
C254 C 0.91381 0.91761 0.76257 0.0
O255 O 0.77403 0.58685 0.78184 0.0
O256 O 0.75769 0.60477 0.74668 0.0
C257 C 1.03804 0.88622 0.75651 0.0
O258 O 1.01767 0.8877 0.7355 0.0
O259 O 0.89391 0.87705 0.74756 0.0
O260 O 0.28072 0.08218 0.78496 0.0
Tb261 Tb 0.35147 0.14621 0.76666 0.0
C262 C 0.42696 0.20507 0.72122 0.0
O263 O 0.45844 0.21812 0.8016 0.0
Tb264 Tb 0.4997 0.25708 0.76835 0.0
C265 C 0.59628 0.26411 0.76616 0.0
O266 O 0.40216 0.13136 0.79058 0.0
O267 O 0.52388 0.33941 0.77804 0.0
C268 C 0.53807 0.37546 0.76076 0.0
O269 O 0.52567 0.35868 0.73828 0.0
O270 O 0.39135 0.15954 0.73147 0.0
O271 O 0.46044 0.24843 0.73352 0.0
O272 O 0.32421 0.20456 0.77126 0.0
C273 C 0.44029 0.1667 0.80449 0.0
C274 C 0.25932 0.05292 0.7658 0.0
O275 O 0.55053 0.21947 0.76418 0.0
O276 O 0.58663 0.30332 0.76859 0.0
C277 C 0.29749 0.20939 0.75304 0.0
O278 O 0.2968 0.18577 0.73244 0.0
O279 O 0.29011 0.07622 0.74713 0.0
O280 O 0.09404 0.25014 0.78141 0.0
Tb281 Tb 1.0279 0.25411 0.76332 0.0
C282 C 0.98051 0.28543 0.71921 0.0
O283 O 0.94349 0.29639 0.79369 0.0
Tb284 Tb 0.91497 0.3053 0.75833 0.0
C285 C 0.9352 0.40527 0.74764 0.0
O286 O 1.03137 0.31333 0.78929 0.0
O287 O 0.82843 0.26605 0.7648 0.0
C288 C 0.81104 0.2926 0.77809 0.0
O289 O 0.84664 0.33416 0.79043 0.0
O290 O 1.02358 0.29056 0.72971 0.0
O291 O 0.93406 0.26314 0.73057 0.0
O292 O 0.96684 0.1695 0.76613 0.0
C293 C 0.99443 0.32107 0.80006 0.0
C294 C 0.12228 0.25545 0.76193 0.0
O295 O 0.96372 0.3935 0.7619 0.0
O296 O 0.89755 0.36075 0.73856 0.0
C297 C 0.96096 0.13712 0.74787 0.0
O298 O 0.9852 0.15857 0.72721 0.0
O299 O 0.09734 0.26046 0.74351 0.0
O300 O 0.59391 0.25175 0.55425 0.0
Tb301 Tb 0.51741 0.23705 0.56962 0.0
C302 C 0.4317 0.20986 0.61511 0.0
O303 O 0.41249 0.19731 0.53603 0.0
Tb304 Tb 0.35707 0.17939 0.56599 0.0
C305 C 0.26978 0.08345 0.55833 0.0
O306 O 0.47029 0.16952 0.54608 0.0
O307 O 0.32394 0.23302 0.56758 0.0
C308 C 0.30757 0.24434 0.54739 0.0
O309 O 0.32225 0.23268 0.52662 0.0
O310 O 0.47954 0.22656 0.60517 0.0
O311 O 0.38549 0.1915 0.60355 0.0
O312 O 0.54387 0.32126 0.56234 0.0
C313 C 0.43188 0.16525 0.53222 0.0
C314 C 0.61017 0.23754 0.57322 0.0
O315 O 0.30938 0.09188 0.5724 0.0
O316 O 0.28003 0.12864 0.54877 0.0
C317 C 0.57284 0.35523 0.57956 0.0
O318 O 0.57756 0.33517 0.60011 0.0
O319 O 0.57398 0.22296 0.59026 0.0
O320 O 0.93062 0.4144 0.55547 0.0
Tb321 Tb 0.94673 0.35215 0.56893 0.0
C322 C 0.98603 0.29855 0.61388 0.0
O323 O 0.98329 0.27765 0.54569 0.0
Tb324 Tb 1.01611 0.24113 0.56858 0.0
C325 C 0.11487 0.26051 0.55746 0.0
O326 O 1.00415 0.36315 0.54086 0.0
O327 O 0.97032 0.15545 0.57776 0.0
C328 C 0.95646 0.11717 0.56135 0.0
O329 O 0.96311 0.13025 0.53826 0.0
O330 O 0.96426 0.3244 0.60302 0.0
O331 O 1.00814 0.27182 0.60381 0.0
O332 O 0.86227 0.29382 0.56473 0.0
C333 C 1.01396 0.32457 0.53558 0.0
C334 C 0.94725 0.44551 0.57439 0.0
O335 O 0.07155 0.22953 0.54546 0.0
O336 O 0.10272 0.28192 0.5756 0.0
C337 C 0.83079 0.29066 0.58291 0.0
O338 O 0.85316 0.31877 0.60254 0.0
O339 O 0.96443 0.42428 0.59022 0.0
O340 O 0.77184 0.59969 0.55228 0.0
Tb341 Tb 0.83407 0.6705 0.5715 0.0
C342 C 0.8866 0.73991 0.61773 0.0
O343 O 0.9203 0.78606 0.53893 0.0
Tb344 Tb 0.94478 0.8225 0.57475 0.0
C345 C 0.9252 0.90431 0.58053 0.0
O346 O 0.83074 0.7241 0.54476 0.0
O347 O 1.03076 0.86388 0.56768 0.0
C348 C 1.05157 0.90597 0.55328 0.0
O349 O 1.01871 0.91725 0.54177 0.0
O350 O 0.84154 0.71084 0.606 0.0
O351 O 0.93211 0.77183 0.60643 0.0
O352 O 0.8934 0.6444 0.56969 0.0
C353 C 0.87009 0.76177 0.53178 0.0
C354 C 0.73977 0.57814 0.57074 0.0
O355 O 0.89515 0.86 0.56868 0.0
O356 O 0.96464 0.90107 0.58988 0.0
C357 C 0.89514 0.61552 0.58783 0.0
O358 O 0.8674 0.61133 0.60759 0.0
O359 O 0.76071 0.60912 0.58949 0.0
C360 C 0.62013 0.89464 0.11724 0.0
C361 C 0.60386 0.91506 0.09794 0.0
C362 C 0.63079 0.85254 0.11367 0.0
C363 C 0.62672 0.82993 0.09057 0.0
H364 H 0.62225 0.90948 0.13553 0.0
H365 H 0.64024 0.83625 0.12933 0.0
S366 S 0.595 0.8748 0.0332 0.0
N367 N 0.59066 0.91353 0.05431 0.0
N368 N 0.61189 0.83527 0.04754 0.0
C369 C 0.6151 0.85293 0.07075 0.0
C370 C 0.6035 0.89537 0.07443 0.0
C371 C 0.32932 0.82365 0.08421 0.0
C372 C 0.35623 0.85122 0.10539 0.0
C373 C 0.28774 0.76987 0.0851 0.0
C374 C 0.27154 0.74182 0.10723 0.0
H375 H 0.34225 0.84278 0.06663 0.0
H376 H 0.27035 0.74942 0.06819 0.0
S377 S 0.32367 0.79868 0.16821 0.0
N378 N 0.35971 0.84844 0.14932 0.0
N379 N 0.28153 0.74803 0.15116 0.0
C380 C 0.29557 0.77038 0.1287 0.0
C381 C 0.33794 0.82489 0.12775 0.0
C382 C 0.34525 0.55713 0.10797 0.0
C383 C 0.32724 0.57098 0.08711 0.0
C384 C 0.39829 0.56795 0.10968 0.0
C385 C 0.4352 0.59234 0.09045 0.0
H386 H 0.31889 0.53985 0.12351 0.0
H387 H 0.41088 0.55861 0.12654 0.0
S388 S 0.40611 0.63145 0.03085 0.0
N389 N 0.34914 0.60678 0.04612 0.0
N390 N 0.44838 0.62639 0.04913 0.0
C391 C 0.41665 0.60342 0.06891 0.0
C392 C 0.3628 0.59296 0.06731 0.0
C393 C 0.91142 0.5794 0.87995 0.0
C394 C 0.93116 0.56797 0.90108 0.0
C395 C 0.86891 0.59001 0.88098 0.0
C396 C 0.84453 0.59007 0.90318 0.0
H397 H 0.92714 0.57771 0.86223 0.0
H398 H 0.85353 0.59585 0.8641 0.0
S399 S 0.88568 0.57031 0.96415 0.0
N400 N 0.92629 0.56296 0.94517 0.0
N401 N 0.84678 0.58334 0.9471 0.0
C402 C 0.8662 0.58254 0.92462 0.0
C403 C 0.90935 0.57134 0.92356 0.0
C404 C 0.594 0.30925 0.90632 0.0
C405 C 0.62972 0.29316 0.89743 0.0
C406 C 0.60166 0.36053 0.901 0.0
C407 C 0.6443 0.39673 0.88601 0.0
H408 H 0.56097 0.28279 0.91803 0.0
H409 H 0.57439 0.37215 0.90892 0.0
S410 S 0.7468 0.37191 0.85679 0.0
N411 N 0.70834 0.31678 0.87233 0.0
N412 N 0.72119 0.41129 0.8615 0.0
C413 C 0.67887 0.37993 0.87621 0.0
C414 C 0.672 0.32867 0.88218 0.0
C415 C 0.8163 0.25952 0.87384 0.0
C416 C 0.78806 0.22639 0.89372 0.0
C417 C 0.86638 0.30592 0.8768 0.0
C418 C 0.89041 0.32113 0.89974 0.0
H419 H 0.7985 0.25128 0.85598 0.0
H420 H 0.88523 0.33129 0.86114 0.0
S421 S 0.83752 0.24467 0.95703 0.0
N422 N 0.79125 0.20936 0.93674 0.0
N423 N 0.88512 0.29655 0.94221 0.0
C424 C 0.86461 0.28659 0.91944 0.0
C425 C 0.81358 0.23923 0.91645 0.0
C426 C 0.29449 0.17787 0.43731 0.0
C427 C 0.28048 0.14777 0.41568 0.0
C428 C 0.28586 0.22156 0.44029 0.0
C429 C 0.26406 0.2377 0.42157 0.0
H430 H 0.30995 0.16611 0.45249 0.0
H431 H 0.29474 0.24182 0.4577 0.0
S432 S 0.22358 0.17411 0.36081 0.0
N433 N 0.24573 0.1385 0.37484 0.0
N434 N 0.23064 0.22116 0.38023 0.0
C435 C 0.25239 0.20957 0.39941 0.0
C436 C 0.26025 0.16445 0.39653 0.0
C437 C 1.0041 0.15827 0.4177 0.0
C438 C 1.04401 0.18351 0.39983 0.0
C439 C 0.96578 0.10356 0.41605 0.0
C440 C 0.96574 0.07197 0.39636 0.0
H441 H 1.00358 0.18038 0.43356 0.0
H442 H 0.93723 0.08559 0.43081 0.0
S443 S 1.05813 0.12097 0.34314 0.0
N444 N 0.07838 0.17427 0.36068 0.0
N445 N 1.00638 0.07181 0.35737 0.0
C446 C 1.00341 0.09774 0.37754 0.0
C447 C 1.04252 0.15342 0.37931 0.0
C448 C 0.08198 0.90446 0.40788 0.0
C449 C 0.10549 0.9069 0.43045 0.0
C450 C 1.0285 0.8921 0.40639 0.0
C451 C 0.99656 0.88169 0.42737 0.0
H452 H 0.10582 0.91551 0.39138 0.0
H453 H 1.01318 0.89394 0.38876 0.0
S454 S 1.03529 0.87122 0.49011 0.0
N455 N 0.09003 0.88929 0.4738 0.0
N456 N 0.98955 0.86632 0.47087 0.0
C457 C 1.01797 0.87914 0.44975 0.0
C458 C 0.07245 0.89169 0.4513 0.0
C459 C 0.52433 0.91266 0.23924 0.0
C460 C 0.48449 0.8942 0.22124 0.0
C461 C 0.5741 0.91558 0.23491 0.0
C462 C 0.58544 0.89904 0.21261 0.0
H463 H 0.51787 0.92694 0.25648 0.0
H464 H 0.60485 0.93352 0.24859 0.0
S465 S 0.49353 0.84336 0.16029 0.0
N466 N 0.45921 0.85629 0.18076 0.0
N467 N 0.5517 0.86091 0.17292 0.0
C468 C 0.54502 0.8782 0.19499 0.0
C469 C 0.49483 0.87586 0.19923 0.0
C470 C 0.20001 0.67789 0.21641 0.0
C471 C 0.21843 0.71415 0.23607 0.0
C472 C 0.18395 0.62352 0.2196 0.0
C473 C 0.18507 0.60322 0.2426 0.0
H474 H 0.20136 0.69212 0.19811 0.0
H475 H 0.17404 0.5981 0.20367 0.0
S476 S 0.22085 0.67942 0.30059 0.0
N477 N 0.23034 0.72442 0.27976 0.0
N478 N 0.19929 0.62219 0.28586 0.0
C479 C 0.19858 0.63795 0.26273 0.0
C480 C 0.21562 0.69347 0.25942 0.0
C481 C 0.4576 0.7287 0.24687 0.0
C482 C 0.49901 0.71654 0.24753 0.0
C483 C 0.40388 0.68789 0.24675 0.0
C484 C 0.38926 0.63319 0.24751 0.0
H485 H 0.4667 0.77005 0.24584 0.0
H486 H 0.37354 0.69952 0.24575 0.0
S487 S 0.4828 0.58023 0.25073 0.0
N488 N 0.52211 0.64604 0.24987 0.0
N489 N 0.42092 0.56934 0.2499 0.0
C490 C 0.43028 0.62052 0.24898 0.0
C491 C 0.4852 0.66218 0.24887 0.0
C492 C 0.95711 0.54165 0.76801 0.0
C493 C 0.91917 0.54775 0.7545 0.0
C494 C 0.96527 0.49769 0.76431 0.0
C495 C 0.93484 0.45709 0.74742 0.0
H496 H 0.9797 0.57031 0.78211 0.0
H497 H 0.99383 0.49421 0.77564 0.0
S498 S 0.83338 0.45571 0.70597 0.0
N499 N 0.85384 0.51105 0.72211 0.0
N500 N 0.868 0.42805 0.7157 0.0
C501 C 0.89874 0.46405 0.73293 0.0
C502 C 0.89114 0.50934 0.73636 0.0
C503 C 0.66582 0.49116 0.78572 0.0
C504 C 0.68112 0.52972 0.76725 0.0
C505 C 0.6168 0.4428 0.78471 0.0
C506 C 0.58151 0.43135 0.76515 0.0
H507 H 0.69315 0.49689 0.80028 0.0
H508 H 0.60842 0.4128 0.79847 0.0
S509 S 0.59894 0.52346 0.7146 0.0
N510 N 0.65407 0.55648 0.73067 0.0
N511 N 0.56228 0.4658 0.72875 0.0
C512 C 0.59449 0.47164 0.74774 0.0
C513 C 0.64424 0.52078 0.74879 0.0
C514 C 0.66039 0.22751 0.76546 0.0
C515 C 0.6508 0.27069 0.76863 0.0
C516 C 0.71214 0.23437 0.76848 0.0
C517 C 0.75586 0.28435 0.77531 0.0
H518 H 0.6278 0.18826 0.76058 0.0
H519 H 0.71782 0.20023 0.76569 0.0
S520 S 0.75217 0.4106 0.78523 0.0
N521 N 0.69008 0.36553 0.77843 0.0
N522 N 0.78575 0.37806 0.78442 0.0
C523 C 0.74648 0.32768 0.77851 0.0
C524 C 0.69444 0.32094 0.77509 0.0
C525 C 0.20697 0.28363 0.57121 0.0
C526 C 0.16729 0.26341 0.5532 0.0
C527 C 0.25345 0.27937 0.56886 0.0
C528 C 0.2625 0.25576 0.54819 0.0
H529 H 0.20104 0.30074 0.58772 0.0
H530 H 0.28183 0.29345 0.58361 0.0
S531 S 0.17145 0.19816 0.49551 0.0
N532 N 0.14079 0.21993 0.51385 0.0
N533 N 0.22802 0.21325 0.50905 0.0
C534 C 0.22409 0.23756 0.52961 0.0
C535 C 0.17655 0.24103 0.53222 0.0
C536 C 0.90511 0.96648 0.55684 0.0
C537 C 0.92434 0.95549 0.57816 0.0
C538 C 0.91366 1.01829 0.55202 0.0
C539 C 0.94073 0.061 0.56857 0.0
H540 H 0.88604 0.93569 0.54309 0.0
H541 H 0.9003 1.02527 0.53483 0.0
S542 S 0.99419 0.05144 0.62826 0.0
N543 N 0.96871 0.99055 0.61664 0.0
N544 N 0.98324 0.08705 0.60809 0.0
C545 C 0.95721 0.04949 0.59064 0.0
C546 C 0.94948 0.99705 0.59529 0.0
C547 C 0.18251 1.03108 0.53746 0.0
C548 C 0.21791 1.03304 0.55534 0.0
C549 C 0.12992 0.98817 0.53613 0.0
C550 C 0.11014 0.94526 0.5527 0.0
H551 H 0.19487 0.064 0.52483 0.0
H552 H 0.104 0.98985 0.52249 0.0
S553 S 0.18857 0.92844 0.60148 0.0
N554 N 0.23116 0.98633 0.58874 0.0
N555 N 0.13203 0.90545 0.58641 0.0
C556 C 0.14615 0.94506 0.56979 0.0
C557 C 0.20007 0.989 0.57108 0.0
C558 C 0.58333 0.12868 0.024 0.0
C559 C 0.55033 0.0833 0.03828 0.0
C560 C 0.58608 0.12517 -0.00132 0.0
C561 C 0.55602 0.076 0.98644 0.0
H562 H 0.60669 0.16786 0.03232 0.0
H563 H 0.61137 0.16159 0.98868 0.0
S564 S 0.46749 0.94389 0.01571 0.0
N565 N 0.48979 0.98696 0.03848 0.0
N566 N 0.49479 0.97983 0.99101 0.0
C567 C 0.524 1.02986 0.00061 0.0
C568 C 0.52118 1.0336 0.02644 0.0
C569 C 1.05827 0.50132 0.98352 0.0
C570 C 0.10845 0.52262 0.97202 0.0
C571 C 1.05384 0.50055 0.0089 0.0
C572 C 0.09941 0.51998 0.02371 0.0
H573 H 1.02219 0.48554 0.97281 0.0
H574 H 1.01427 0.48379 0.01692 0.0
S575 S 0.2401 0.5788 0.00247 0.0
N576 N 0.20475 0.56322 0.97733 0.0
N577 N 0.19623 0.56109 0.02494 0.0
C578 C 0.14979 0.5411 0.0124 0.0
C579 C 0.15439 0.54264 0.98658 0.0
C580 C 0.62493 0.57829 0.98443 0.0
C581 C 0.64537 0.62449 0.96977 0.0
C582 C 0.62753 0.58184 0.00976 0.0
C583 C 0.64977 0.63165 0.02166 0.0
H584 H 0.6095 0.53897 0.97628 0.0
H585 H 0.6139 0.54524 0.02006 0.0
S586 S 0.69919 0.76404 0.99208 0.0
N587 N 0.68215 0.72122 0.96926 0.0
N588 N 0.68546 0.72777 0.01701 0.0
C589 C 0.66533 0.67779 0.00742 0.0
C590 C 0.6634 0.67423 0.98144 0.0
C591 C 0.20334 0.36875 0.34638 0.0
C592 C 0.22402 0.42048 0.35609 0.0
C593 C 0.1979 0.36006 0.32133 0.0
C594 C 0.21198 0.40281 0.30512 0.0
H595 H 0.19065 0.33463 0.35826 0.0
H596 H 0.18024 0.31916 0.31477 0.0
S597 S 0.27146 0.54659 0.32133 0.0
N598 N 0.26182 0.51567 0.34763 0.0
N599 N 0.25053 0.4991 0.30042 0.0
C600 C 0.23452 0.45504 0.31454 0.0
C601 C 0.24092 0.464 0.34008 0.0
C602 C 0.79239 0.85014 0.34365 0.0
C603 C 0.75278 0.84276 0.36098 0.0
C604 C 0.78509 0.85369 0.31882 0.0
C605 C 0.73787 0.84995 0.30998 0.0
H606 H 0.83048 0.85499 0.34919 0.0
H607 H 0.81746 0.86069 0.30648 0.0
S608 S 0.61818 0.82217 0.34688 0.0
N609 N 0.66194 0.82557 0.36693 0.0
N610 N 0.64843 0.83308 0.32019 0.0
C611 C 0.69682 0.84017 0.32681 0.0
C612 C 0.70417 0.83619 0.35224 0.0
C613 C 0.32867 0.92391 0.30815 0.0
C614 C 0.30218 0.94725 0.29644 0.0
C615 C 0.33427 0.92635 0.33349 0.0
C616 C 0.31483 0.95348 0.34804 0.0
H617 H 0.34489 0.90322 0.29765 0.0
H618 H 0.35489 0.90765 0.34167 0.0
S619 S 0.24289 1.02192 0.32632 0.0
N620 N 0.25608 0.99826 0.3014 0.0
N621 N 0.26773 1.00384 0.34888 0.0
C622 C 0.28846 0.9772 0.33656 0.0
C623 C 0.28179 0.97378 0.31081 0.0
C624 C 0.93068 0.77727 0.68318 0.0
C625 C 0.88745 0.7379 0.69688 0.0
C626 C 0.93028 0.77684 0.65776 0.0
C627 C 0.88667 0.73702 0.64473 0.0
H628 H 0.96493 0.80975 0.6921 0.0
H629 H 0.96412 0.80898 0.6483 0.0
S630 S 0.76611 0.62068 0.6716 0.0
N631 N 0.80163 0.655 0.69526 0.0
N632 N 0.80091 0.6542 0.64748 0.0
C633 C 0.84413 0.69589 0.65809 0.0
C634 C 0.8446 0.69624 0.6841 0.0
C635 C 0.38489 0.17246 0.65501 0.0
C636 C 0.4301 0.21101 0.64212 0.0
C637 C 0.38419 0.17082 0.68052 0.0
C638 C 0.42839 0.20812 0.69421 0.0
H639 H 0.35019 0.14246 0.64533 0.0
H640 H 0.34858 0.14001 0.68953 0.0
S641 S 0.55556 0.31921 0.66921 0.0
N642 N 0.51936 0.28885 0.64509 0.0
N643 N 0.5182 0.28576 0.69275 0.0
C644 C 0.47337 0.24763 0.68152 0.0
C645 C 0.4742 0.24904 0.6556 0.0
C646 C 1.02413 0.29312 0.65356 0.0
C647 C 0.98533 0.29895 0.64081 0.0
C648 C 1.02288 0.29003 0.67889 0.0
C649 C 0.98237 0.29198 0.69256 0.0
H650 H 1.05577 0.29063 0.64392 0.0
H651 H 1.05336 0.28477 0.6877 0.0
S652 S 0.87246 0.30927 0.66829 0.0
N653 N 0.90607 0.30837 0.64402 0.0
N654 N 0.90375 0.30228 0.69168 0.0
C655 C 0.9439 0.29887 0.68019 0.0
C656 C 0.94544 0.30255 0.65433 0.0
C657 C 0.36759 0.97434 0.15548 0.0
C658 C 0.36822 0.9709 0.18094 0.0
C659 C 0.41518 1.00348 0.14199 0.0
C660 C 0.46513 1.02927 0.15346 0.0
H661 H 0.32978 0.95635 0.14601 0.0
H662 H 0.41279 1.00723 0.12255 0.0
S663 S 0.48852 1.03672 0.21971 0.0
N664 N 0.42287 0.99954 0.21714 0.0
N665 N 0.51245 0.05163 0.19171 0.0
C666 C 0.4664 1.02588 0.17884 0.0
C667 C 0.41791 0.99719 0.19262 0.0
C668 C 0.09402 0.43312 0.16257 0.0
C669 C 0.1306 0.48352 0.15273 0.0
C670 C 0.10946 0.4089 0.18016 0.0
C671 C 0.16232 0.43371 0.18864 0.0
H672 H 1.05298 0.4115 0.15642 0.0
H673 H 0.07959 0.36984 0.18688 0.0
S674 S 0.2733 0.56743 0.17016 0.0
N675 N 0.22151 0.55949 0.15434 0.0
N676 N 0.25139 0.5121 0.18631 0.0
C677 C 0.19933 0.48456 0.17939 0.0
C678 C 0.18319 0.51004 0.16184 0.0
C679 C 0.66298 0.74946 0.17609 0.0
C680 C 0.71612 0.78938 0.1809 0.0
C681 C 0.65075 0.71351 0.15669 0.0
C682 C 0.6913 0.71577 0.14152 0.0
H683 H 0.63058 0.74499 0.1878 0.0
H684 H 0.60953 0.68233 0.15423 0.0
S685 S 0.8362 0.81603 0.14463 0.0
N686 N 0.80913 0.83165 0.16753 0.0
N687 N 0.78615 0.76388 0.13123 0.0
C688 C 0.74426 0.7571 0.14534 0.0
C689 C 0.75668 0.79406 0.16495 0.0
C690 C 0.08197 0.40642 0.85128 0.0
C691 C 1.06585 0.44477 0.85473 0.0
C692 C 1.05624 0.36454 0.8346 0.0
C693 C 1.0128 0.35875 0.82088 0.0
H694 H 0.11591 0.40961 0.86101 0.0
H695 H 0.07167 0.33737 0.83191 0.0
S696 S 0.95184 0.44571 0.82469 0.0
N697 N 1.0029 0.47366 0.84348 0.0
N698 N 0.95163 0.39215 0.81354 0.0
C699 C 0.99405 0.39479 0.82524 0.0
C700 C 1.02155 0.43873 0.84167 0.0
C701 C 0.71403 0.65031 0.82871 0.0
C702 C 0.72537 0.65864 0.85364 0.0
C703 C 0.75535 0.66939 0.81124 0.0
C704 C 0.80933 0.69639 0.81817 0.0
H705 H 0.67298 0.63164 0.8226 0.0
H706 H 0.74503 0.66553 0.79221 0.0
S707 S 0.86014 0.7307 0.881 0.0
N708 N 0.79434 0.69818 0.88427 0.0
N709 N 0.87195 0.73133 0.85155 0.0
C710 C 0.82113 0.70385 0.84304 0.0
C711 C 0.77913 0.6856 0.86077 0.0
C712 C 0.43349 0.09596 0.83256 0.0
C713 C 0.46453 0.14742 0.82258 0.0
C714 C 0.45539 0.07516 0.84885 0.0
C715 C 0.50966 0.10441 0.85548 0.0
H716 H 0.3916 0.07155 0.82793 0.0
H717 H 0.42938 1.03557 0.85628 0.0
S718 S 0.60914 0.23998 0.83315 0.0
N719 N 0.55268 0.22702 0.82007 0.0
N720 N 0.59464 0.18687 0.84986 0.0
C721 C 0.54165 0.1555 0.84516 0.0
C722 C 0.51886 0.17734 0.82901 0.0
C723 C 0.10271 0.39043 0.51796 0.0
C724 C 1.06102 0.33688 0.52005 0.0
C725 C 0.14296 0.40582 0.50027 0.0
C726 C 0.14383 0.36821 0.48408 0.0
H727 H 0.10311 0.42138 0.52943 0.0
H728 H 0.17263 0.44797 0.49876 0.0
S729 S 1.04563 0.22208 0.48307 0.0
N730 N 1.02334 0.246 0.50472 0.0
N731 N 0.10169 0.27379 0.47296 0.0
C732 C 0.10454 0.31379 0.48719 0.0
C733 C 1.06239 0.29841 0.50474 0.0
C734 C 0.8538 0.85424 0.48814 0.0
C735 C 0.80998 0.81777 0.47409 0.0
C736 C 0.87646 0.83602 0.50559 0.0
C737 C 0.85515 0.78078 0.50987 0.0
H738 H 0.86881 0.89694 0.48655 0.0
H739 H 0.9084 0.8653 0.51685 0.0
S740 S 0.74507 0.66931 0.47592 0.0
N741 N 0.75004 0.72413 0.46396 0.0
N742 N 0.79142 0.69015 0.49705 0.0
C743 C 0.81345 0.74421 0.49499 0.0
C744 C 0.79104 0.76263 0.47709 0.0
C745 C 0.33772 0.06642 0.48492 0.0
C746 C 0.36467 1.03917 0.47733 0.0
C747 C 0.35964 0.10736 0.50251 0.0
C748 C 0.4088 0.12184 0.51362 0.0
H749 H 0.29988 0.05694 0.47689 0.0
H750 H 0.33784 0.12772 0.5074 0.0
S751 S 0.49342 0.05997 0.50159 0.0
N752 N 0.44196 1.02792 0.48332 0.0
N753 N 0.48272 0.10389 0.51632 0.0
C754 C 0.43529 0.09371 0.50671 0.0
C755 C 0.41331 0.0526 0.48866 0.0
C756 C 0.61904 0.40613 0.1152 0.0
C757 C 0.6076 0.42013 0.09251 0.0
C758 C 0.60648 0.35322 0.12013 0.0
C759 C 0.58132 0.31219 0.10274 0.0
H760 H 0.64074 0.43675 0.12872 0.0
H761 H 0.61855 0.3449 0.13738 0.0
S762 S 0.53645 0.32647 0.04179 0.0
N763 N 0.56515 0.38761 0.05336 0.0
N764 N 0.54083 0.28821 0.06282 0.0
C765 C 0.56629 0.32488 0.08066 0.0
C766 C 0.57965 0.37885 0.07551 0.0
C767 C 0.79222 0.27632 0.07772 0.0
C768 C 0.75983 0.26193 0.09879 0.0
C769 C 0.84612 0.31698 0.07812 0.0
C770 C 0.86953 0.34546 0.09954 0.0
H771 H 0.77527 0.25727 0.0605 0.0
H772 H 0.86879 0.32783 0.06127 0.0
S773 S 0.80399 0.32027 0.16017 0.0
N774 N 0.75665 0.27671 0.14212 0.0
N775 N 0.85767 0.35364 0.14283 0.0
C776 C 0.83854 0.32971 0.12102 0.0
C777 C 0.78378 0.28774 0.12067 0.0
C778 C 0.86317 0.57716 0.1101 0.0
C779 C 0.84895 0.59753 0.09006 0.0
C780 C 0.90668 0.56804 0.10886 0.0
C781 C 0.93708 0.57836 0.08743 0.0
H782 H 0.83925 0.56618 0.12658 0.0
H783 H 0.9141 0.54934 0.12421 0.0
S784 S 0.92059 0.63813 0.03094 0.0
N785 N 0.87221 0.63286 0.04906 0.0
N786 N 0.95334 0.61499 0.04656 0.0
C787 C 0.92539 0.60196 0.06783 0.0
C788 C 0.88147 0.61172 0.06919 0.0
C789 C 0.43172 0.59574 0.89464 0.0
C790 C 0.45027 0.59306 0.91785 0.0
C791 C 0.3786 0.58314 0.89104 0.0
C792 C 0.34151 0.56638 0.91037 0.0
H793 H 0.45903 0.61034 0.87928 0.0
H794 H 0.36695 0.58814 0.87304 0.0
S795 S 0.36769 0.54673 0.97416 0.0
N796 N 0.42584 0.56837 0.96017 0.0
N797 N 0.32574 0.5437 0.95319 0.0
C798 C 0.35844 0.56032 0.93337 0.0
C799 C 0.41287 0.57394 0.93715 0.0
C800 C 0.60636 0.88443 0.94306 0.0
C801 C 0.60293 0.9132 0.92314 0.0
C802 C 0.61948 0.8438 0.93995 0.0
C803 C 0.62987 0.83013 0.91679 0.0
H804 H 0.59665 0.89172 0.96123 0.0
H805 H 0.61933 0.82149 0.95575 0.0
S806 S 0.63215 0.89668 0.85887 0.0
N807 N 0.61556 0.92774 0.87956 0.0
N808 N 0.64037 0.85168 0.87375 0.0
C809 C 0.62987 0.86065 0.89687 0.0
C810 C 0.61646 0.90212 0.90003 0.0
C811 C 0.34438 0.82503 0.93165 0.0
C812 C 0.3723 0.84805 0.90997 0.0
C813 C 0.30269 0.77167 0.93236 0.0
C814 C 0.28699 0.73928 0.91139 0.0
H815 H 0.35614 0.84767 0.94846 0.0
H816 H 0.28397 0.75508 0.94974 0.0
S817 S 0.34375 0.78247 0.84947 0.0
N818 N 0.3787 0.83603 0.86657 0.0
N819 N 0.30006 0.73562 0.86787 0.0
C820 C 0.31238 0.76284 0.88926 0.0
C821 C 0.35521 0.81724 0.88857 0.0
C822 C 0.28549 0.72889 0.44156 0.0
C823 C 0.27001 0.74369 0.42014 0.0
C824 C 0.2761 0.67633 0.44481 0.0
C825 C 0.25028 0.63647 0.42693 0.0
H826 H 0.30807 0.75885 0.4552 0.0
H827 H 0.29114 0.66748 0.46105 0.0
S828 S 0.19561 0.65301 0.36902 0.0
N829 N 0.22326 0.71295 0.38179 0.0
N830 N 0.20487 0.6144 0.3881 0.0
C831 C 0.23134 0.64987 0.40623 0.0
C832 C 0.24142 0.70341 0.40279 0.0
C833 C 0.51872 0.65692 0.40098 0.0
C834 C 0.54274 0.67367 0.42379 0.0
C835 C 0.46481 0.61684 0.399 0.0
C836 C 0.43298 0.59168 0.41972 0.0
H837 H 0.54071 0.67694 0.38465 0.0
H838 H 0.44732 0.60718 0.38108 0.0
S839 S 0.47937 0.61628 0.48346 0.0
N840 N 0.53245 0.65837 0.46741 0.0
N841 N 0.43135 0.583 0.4636 0.0
C842 C 0.45774 0.60529 0.4425 0.0
C843 C 0.51256 0.64639 0.44454 0.0
C844 C 0.5626 0.89397 0.44065 0.0
C845 C 0.59909 0.91176 0.42104 0.0
C846 C 0.51643 0.89857 0.44031 0.0
C847 C 0.50479 0.92135 0.42041 0.0
H848 H 0.5686 0.87454 0.45611 0.0
H849 H 0.48904 0.88304 0.45562 0.0
S850 S 0.58897 0.97829 0.36527 0.0
N851 N 0.6217 0.9563 0.38167 0.0
N852 N 0.53489 0.96486 0.38121 0.0
C853 C 0.54181 0.9414 0.40112 0.0
C854 C 0.58894 0.93667 0.4014 0.0
C855 C 0.99129 0.90739 0.26234 0.0
C856 C 0.96081 0.89197 0.24101 0.0
C857 C 1.04427 0.91758 0.26249 0.0
C858 C 0.06972 0.91307 0.2413 0.0
H859 H 0.97458 0.91305 0.27906 0.0
H860 H 1.0659 0.93062 0.27942 0.0
S861 S 1.00633 0.87059 0.18079 0.0
N862 N 0.95899 0.86986 0.19823 0.0
N863 N 1.0587 0.8893 0.19847 0.0
C864 C 1.039 0.89558 0.21997 0.0
C865 C 0.98467 0.88505 0.21984 0.0
C866 C 0.23834 0.14509 0.21555 0.0
C867 C 0.25529 0.12434 0.23435 0.0
C868 C 0.22888 0.18784 0.21964 0.0
C869 C 0.23519 0.21092 0.24283 0.0
H870 H 0.23035 0.12686 0.19768 0.0
H871 H 0.21359 0.20071 0.20481 0.0
S872 S 0.28467 0.175 0.29759 0.0
N873 N 0.28281 0.13316 0.27644 0.0
N874 N 0.26434 0.21301 0.28435 0.0
C875 C 0.25516 0.19255 0.26147 0.0
C876 C 0.26542 0.14939 0.25718 0.0
C877 C 0.93159 0.08298 0.23267 0.0
C878 C 0.90922 0.06547 0.25597 0.0
C879 C 0.97729 0.13334 0.22916 0.0
C880 C 1.00189 0.16878 0.24866 0.0
H881 H 0.91561 0.05652 0.21715 0.0
H882 H 0.99435 0.14396 0.21105 0.0
S883 S 0.95584 0.14515 0.31282 0.0
N884 N 0.91304 0.08947 0.29863 0.0
N885 N 0.9982 0.18483 0.29181 0.0
C886 C 0.97816 0.15339 0.2718 0.0
C887 C 0.93204 0.10156 0.27549 0.0
C888 C 0.93127 1.00676 0.77845 0.0
C889 C 0.91701 0.97041 0.75892 0.0
C890 C 0.94154 0.05954 0.77506 0.0
C891 C 0.93901 0.07851 0.75189 0.0
H892 H 0.93615 0.99487 0.79643 0.0
H893 H 0.95452 0.08646 0.79052 0.0
S894 S 0.89933 0.99815 0.69504 0.0
N895 N 0.89706 0.95602 0.71589 0.0
N896 N 0.91752 0.05528 0.70936 0.0
C897 C 0.92244 1.04179 0.7324 0.0
C898 C 0.91113 0.98777 0.73595 0.0
C899 C 0.18378 0.98237 0.74197 0.0
C900 C 0.20537 1.00482 0.76466 0.0
C901 C 0.13035 0.94167 0.7398 0.0
C902 C 0.09636 0.9215 0.76025 0.0
H903 H 0.20766 0.99781 0.72557 0.0
H904 H 0.11508 0.92728 0.72177 0.0
S905 S 0.13522 0.96287 0.82417 0.0
N906 N 0.19014 1.00108 0.80828 0.0
N907 N 0.08958 0.92427 0.80423 0.0
C908 C 0.11837 0.94128 0.78325 0.0
C909 C 0.1729 0.9831 0.78544 0.0
C910 C 0.23447 0.22697 0.77877 0.0
C911 C 0.25992 0.23077 0.75627 0.0
C912 C 0.19121 0.23688 0.78075 0.0
C913 C 0.17188 0.25117 0.76035 0.0
H914 H 0.24609 0.21351 0.7947 0.0
H915 H 0.17156 0.23137 0.79822 0.0
S916 S 0.22901 0.27326 0.69797 0.0
N917 N 0.26551 0.25476 0.71369 0.0
N918 N 0.18511 0.27337 0.71742 0.0
C919 C 0.19903 0.25805 0.73811 0.0
C920 C 0.24275 0.24788 0.73608 0.0
C921 C 0.69762 0.25577 0.55509 0.0
C922 C 0.66368 0.2426 0.57555 0.0
C923 C 0.75084 0.26724 0.55723 0.0
C924 C 0.77218 0.26664 0.57998 0.0
H925 H 0.68357 0.25906 0.53737 0.0
H926 H 0.77619 0.27975 0.54119 0.0
S927 S 0.69837 0.22887 0.63874 0.0
N928 N 0.65393 0.22487 0.61893 0.0
N929 N 0.75392 0.24717 0.62303 0.0
C930 C 0.73778 0.25064 0.60035 0.0
C931 C 0.68352 0.23842 0.59813 0.0
C932 C 0.93106 0.5175 0.55809 0.0
C933 C 0.94153 0.49381 0.57804 0.0
C934 C 0.91977 0.55951 0.56121 0.0
C935 C 0.91747 0.57888 0.58449 0.0
H936 H 0.93024 0.50256 0.5399 0.0
H937 H 0.91002 0.57491 0.54535 0.0
S938 S 0.94502 0.53275 0.64262 0.0
N939 N 0.95201 0.49512 0.62177 0.0
N940 N 0.92975 0.57294 0.62775 0.0
C941 C 0.92986 0.55684 0.60451 0.0
C942 C 0.94215 0.51465 0.60127 0.0
C943 C 0.62548 0.44838 0.59585 0.0
C944 C 0.60738 0.41402 0.57552 0.0
C945 C 0.66635 0.50207 0.59384 0.0
C946 C 0.69138 0.52373 0.57142 0.0
H947 H 0.60934 0.43309 0.61375 0.0
H948 H 0.67998 0.52606 0.61022 0.0
S949 S 0.65606 0.45248 0.51219 0.0
N950 N 0.61523 0.40689 0.53186 0.0
N951 N 0.69239 0.50778 0.52807 0.0
C952 C 0.67186 0.49081 0.55068 0.0
C953 C 0.62973 0.43602 0.55272 0.0
loop_
_geom_bond_atom_site_label_1
_geom_bond_atom_site_label_2
_geom_bond_distance
_geom_bond_site_symmetry_2
_ccdc_geom_bond_type
O0 Tb1 2.506 . S
O0 C14 1.265 . S
Tb1 O0 2.506 . S
Tb1 O6 2.312 . S
Tb1 O10 2.271 . S
Tb1 O12 2.338 . S
Tb1 O19 2.441 . S
C2 O10 1.252 . S
C2 O11 1.253 1_545 S
O3 Tb4 2.271 . S
O3 C13 1.252 . S
Tb4 O3 2.271 . S
Tb4 O7 2.338 . S
Tb4 O11 2.312 . S
Tb4 O15 2.441 . S
Tb4 O16 2.506 . S
C5 O15 1.244 . S
C5 O16 1.265 . S
O6 Tb1 2.312 . S
O6 C13 1.253 1_545 S
O7 Tb4 2.338 . S
O7 C8 1.258 . S
C8 O7 1.258 . S
C8 O9 1.251 . S
O9 C8 1.251 . S
O10 Tb1 2.271 . S
O10 C2 1.252 . S
O11 C2 1.253 1_565 S
O11 Tb4 2.312 . S
O12 Tb1 2.338 . S
O12 C17 1.258 . S
C13 O3 1.252 . S
C13 O6 1.253 1_565 S
C14 O0 1.265 . S
C14 O19 1.244 . S
O15 Tb4 2.441 . S
O15 C5 1.244 . S
O16 Tb4 2.506 . S
O16 C5 1.265 . S
C17 O12 1.258 . S
C17 O18 1.251 . S
O18 C17 1.251 . S
O19 Tb1 2.441 . S
O19 C14 1.244 . S
O20 Tb21 2.506 . S
O20 C34 1.265 . S
Tb21 O20 2.506 . S
Tb21 O26 2.312 1_655 S
Tb21 O30 2.271 . S
Tb21 O32 2.338 . S
Tb21 O39 2.441 . S
C22 O30 1.252 1_455 S
C22 O31 1.253 . S
O23 Tb24 2.271 . S
O23 C33 1.252 . S
Tb24 O23 2.271 . S
Tb24 O27 2.338 . S
Tb24 O31 2.312 . S
Tb24 O35 2.441 . S
Tb24 O36 2.506 . S
C25 O35 1.244 . S
C25 O36 1.265 . S
O26 Tb21 2.312 1_455 S
O26 C33 1.253 . S
O27 Tb24 2.338 . S
O27 C28 1.258 . S
C28 O27 1.258 . S
C28 O29 1.251 . S
O29 C28 1.251 . S
O30 Tb21 2.271 . S
O30 C22 1.252 1_655 S
O31 C22 1.253 . S
O31 Tb24 2.312 . S
O32 Tb21 2.338 . S
O32 C37 1.258 . S
C33 O23 1.252 . S
C33 O26 1.253 . S
C34 O20 1.265 . S
C34 O39 1.244 . S
O35 Tb24 2.441 . S
O35 C25 1.244 . S
O36 Tb24 2.506 . S
O36 C25 1.265 . S
C37 O32 1.258 . S
C37 O38 1.251 . S
O38 C37 1.251 . S
O39 Tb21 2.441 . S
O39 C34 1.244 . S
O40 Tb41 2.506 . S
O40 C54 1.265 . S
Tb41 O40 2.506 . S
Tb41 O46 2.312 . S
Tb41 O50 2.271 . S
Tb41 O52 2.338 . S
Tb41 O59 2.441 . S
C42 O50 1.252 . S
C42 O51 1.253 . S
O43 Tb44 2.271 . S
O43 C53 1.252 . S
Tb44 O43 2.271 . S
Tb44 O47 2.338 . S
Tb44 O51 2.312 . S
Tb44 O55 2.441 . S
Tb44 O56 2.506 . S
C45 O55 1.244 . S
C45 O56 1.265 . S
O46 Tb41 2.312 . S
O46 C53 1.253 . S
O47 Tb44 2.338 . S
O47 C48 1.258 . S
C48 O47 1.258 . S
C48 O49 1.251 . S
O49 C48 1.251 . S
O50 Tb41 2.271 . S
O50 C42 1.252 . S
O51 C42 1.253 . S
O51 Tb44 2.312 . S
O52 Tb41 2.338 . S
O52 C57 1.258 . S
C53 O43 1.252 . S
C53 O46 1.253 . S
C54 O40 1.265 . S
C54 O59 1.244 . S
O55 Tb44 2.441 . S
O55 C45 1.244 . S
O56 Tb44 2.506 . S
O56 C45 1.265 . S
C57 O52 1.258 . S
C57 O58 1.251 . S
O58 C57 1.251 . S
O59 Tb41 2.441 . S
O59 C54 1.244 . S
O60 Tb61 2.506 . S
O60 C74 1.265 . S
Tb61 O60 2.506 . S
Tb61 O66 2.312 . S
Tb61 O70 2.271 . S
Tb61 O72 2.338 . S
Tb61 O79 2.441 . S
C62 O70 1.252 . S
C62 O71 1.253 1_455 S
O63 Tb64 2.271 . S
O63 C73 1.252 . S
Tb64 O63 2.271 . S
Tb64 O67 2.338 . S
Tb64 O71 2.312 . S
Tb64 O75 2.441 . S
Tb64 O76 2.506 . S
C65 O75 1.244 . S
C65 O76 1.265 . S
O66 Tb61 2.312 . S
O66 C73 1.253 1_455 S
O67 Tb64 2.338 . S
O67 C68 1.258 . S
C68 O67 1.258 . S
C68 O69 1.251 . S
O69 C68 1.251 . S
O70 Tb61 2.271 . S
O70 C62 1.252 . S
O71 C62 1.253 1_655 S
O71 Tb64 2.312 . S
O72 Tb61 2.338 . S
O72 C77 1.258 . S
C73 O63 1.252 . S
C73 O66 1.253 1_655 S
C74 O60 1.265 . S
C74 O79 1.244 . S
O75 Tb64 2.441 . S
O75 C65 1.244 . S
O76 Tb64 2.506 . S
O76 C65 1.265 . S
C77 O72 1.258 . S
C77 O78 1.251 . S
O78 C77 1.251 . S
O79 Tb61 2.441 . S
O79 C74 1.244 . S
O80 Tb81 2.506 . S
O80 C94 1.265 . S
Tb81 O80 2.506 . S
Tb81 O86 2.312 . S
Tb81 O90 2.271 . S
Tb81 O92 2.338 . S
Tb81 O99 2.441 . S
C82 O90 1.252 . S
C82 O91 1.253 . S
O83 Tb84 2.271 . S
O83 C93 1.252 . S
Tb84 O83 2.271 . S
Tb84 O87 2.338 . S
Tb84 O91 2.312 . S
Tb84 O95 2.441 . S
Tb84 O96 2.506 . S
C85 O95 1.244 . S
C85 O96 1.265 . S
O86 Tb81 2.312 . S
O86 C93 1.253 . S
O87 Tb84 2.338 . S
O87 C88 1.258 . S
C88 O87 1.258 . S
C88 O89 1.251 . S
O89 C88 1.251 . S
O90 Tb81 2.271 . S
O90 C82 1.252 . S
O91 C82 1.253 . S
O91 Tb84 2.312 . S
O92 Tb81 2.338 . S
O92 C97 1.258 . S
C93 O83 1.252 . S
C93 O86 1.253 . S
C94 O80 1.265 . S
C94 O99 1.244 . S
O95 Tb84 2.441 . S
O95 C85 1.244 . S
O96 Tb84 2.506 . S
O96 C85 1.265 . S
C97 O92 1.258 . S
C97 O98 1.251 . S
O98 C97 1.251 . S
O99 Tb81 2.441 . S
O99 C94 1.244 . S
O100 Tb101 2.506 . S
O100 C114 1.265 . S
Tb101 O100 2.506 . S
Tb101 O106 2.312 1_565 S
Tb101 O110 2.271 . S
Tb101 O112 2.338 . S
Tb101 O119 2.441 . S
C102 O110 1.252 1_545 S
C102 O111 1.253 . S
O103 Tb104 2.271 . S
O103 C113 1.252 . S
Tb104 O103 2.271 . S
Tb104 O107 2.338 . S
Tb104 O111 2.312 . S
Tb104 O115 2.441 . S
Tb104 O116 2.506 . S
C105 O115 1.244 . S
C105 O116 1.265 . S
O106 Tb101 2.312 1_545 S
O106 C113 1.253 . S
O107 Tb104 2.338 . S
O107 C108 1.258 . S
C108 O107 1.258 . S
C108 O109 1.251 . S
O109 C108 1.251 . S
O110 Tb101 2.271 . S
O110 C102 1.252 1_565 S
O111 C102 1.253 . S
O111 Tb104 2.312 . S
O112 Tb101 2.338 . S
O112 C117 1.258 . S
C113 O103 1.252 . S
C113 O106 1.253 . S
C114 O100 1.265 . S
C114 O119 1.244 . S
O115 Tb104 2.441 . S
O115 C105 1.244 . S
O116 Tb104 2.506 . S
O116 C105 1.265 . S
C117 O112 1.258 . S
C117 O118 1.251 . S
O118 C117 1.251 . S
O119 Tb101 2.441 . S
O119 C114 1.244 . S
O120 Tb121 2.506 . S
O120 C134 1.265 . S
Tb121 O120 2.506 . S
Tb121 O126 2.312 . S
Tb121 O130 2.271 . S
Tb121 O132 2.338 . S
Tb121 O139 2.441 . S
C122 O130 1.252 . S
C122 O131 1.253 . S
O123 Tb124 2.271 . S
O123 C133 1.252 . S
Tb124 O123 2.271 . S
Tb124 O127 2.338 . S
Tb124 O131 2.312 . S
Tb124 O135 2.441 . S
Tb124 O136 2.506 . S
C125 O135 1.244 . S
C125 O136 1.265 . S
O126 Tb121 2.312 . S
O126 C133 1.253 . S
O127 Tb124 2.338 . S
O127 C128 1.258 . S
C128 O127 1.258 . S
C128 O129 1.251 . S
O129 C128 1.251 . S
O130 Tb121 2.271 . S
O130 C122 1.252 . S
O131 C122 1.253 . S
O131 Tb124 2.312 . S
O132 Tb121 2.338 . S
O132 C137 1.258 . S
C133 O123 1.252 . S
C133 O126 1.253 . S
C134 O120 1.265 . S
C134 O139 1.244 . S
O135 Tb124 2.441 . S
O135 C125 1.244 . S
O136 Tb124 2.506 . S
O136 C125 1.265 . S
C137 O132 1.258 . S
C137 O138 1.251 . S
O138 C137 1.251 . S
O139 Tb121 2.441 . S
O139 C134 1.244 . S
O140 Tb141 2.506 . S
O140 C154 1.265 . S
Tb141 O140 2.506 . S
Tb141 O146 2.312 . S
Tb141 O150 2.271 . S
Tb141 O152 2.338 . S
Tb141 O159 2.441 . S
C142 O150 1.252 . S
C142 O151 1.253 . S
O143 Tb144 2.271 . S
O143 C153 1.252 . S
Tb144 O143 2.271 . S
Tb144 O147 2.338 . S
Tb144 O151 2.312 . S
Tb144 O155 2.441 . S
Tb144 O156 2.506 . S
C145 O155 1.244 . S
C145 O156 1.265 . S
O146 Tb141 2.312 . S
O146 C153 1.253 . S
O147 Tb144 2.338 . S
O147 C148 1.258 . S
C148 O147 1.258 . S
C148 O149 1.251 . S
O149 C148 1.251 . S
O150 Tb141 2.271 . S
O150 C142 1.252 . S
O151 C142 1.253 . S
O151 Tb144 2.312 . S
O152 Tb141 2.338 . S
O152 C157 1.258 . S
C153 O143 1.252 . S
C153 O146 1.253 . S
C154 O140 1.265 . S
C154 O159 1.244 . S
O155 Tb144 2.441 . S
O155 C145 1.244 . S
O156 Tb144 2.506 . S
O156 C145 1.265 . S
C157 O152 1.258 . S
C157 O158 1.251 . S
O158 C157 1.251 . S
O159 Tb141 2.441 . S
O159 C154 1.244 . S
O160 Tb161 2.506 . S
O160 C174 1.265 . S
Tb161 O160 2.506 . S
Tb161 O166 2.312 . S
Tb161 O170 2.271 . S
Tb161 O172 2.338 . S
Tb161 O179 2.441 . S
C162 O170 1.252 . S
C162 O171 1.253 . S
O163 Tb164 2.271 . S
O163 C173 1.252 . S
Tb164 O163 2.271 . S
Tb164 O167 2.338 . S
Tb164 O171 2.312 . S
Tb164 O175 2.441 1_565 S
Tb164 O176 2.506 1_565 S
C165 O175 1.244 . S
C165 O176 1.265 . S
O166 Tb161 2.312 . S
O166 C173 1.253 . S
O167 Tb164 2.338 . S
O167 C168 1.258 . S
C168 O167 1.258 . S
C168 O169 1.251 . S
O169 C168 1.251 . S
O170 Tb161 2.271 . S
O170 C162 1.252 . S
O171 C162 1.253 . S
O171 Tb164 2.312 . S
O172 Tb161 2.338 . S
O172 C177 1.258 . S
C173 O163 1.252 . S
C173 O166 1.253 . S
C174 O160 1.265 . S
C174 O179 1.244 . S
O175 Tb164 2.441 1_545 S
O175 C165 1.244 . S
O176 Tb164 2.506 1_545 S
O176 C165 1.265 . S
C177 O172 1.258 . S
C177 O178 1.251 . S
O178 C177 1.251 . S
O179 Tb161 2.441 . S
O179 C174 1.244 . S
O180 Tb181 2.506 . S
O180 C194 1.265 . S
Tb181 O180 2.506 . S
Tb181 O186 2.312 . S
Tb181 O190 2.271 . S
Tb181 O192 2.338 . S
Tb181 O199 2.441 . S
C182 O190 1.252 . S
C182 O191 1.253 . S
O183 Tb184 2.271 . S
O183 C193 1.252 . S
Tb184 O183 2.271 . S
Tb184 O187 2.338 . S
Tb184 O191 2.312 . S
Tb184 O195 2.441 . S
Tb184 O196 2.506 . S
C185 O195 1.244 . S
C185 O196 1.265 . S
O186 Tb181 2.312 . S
O186 C193 1.253 . S
O187 Tb184 2.338 . S
O187 C188 1.258 . S
C188 O187 1.258 . S
C188 O189 1.251 . S
O189 C188 1.251 . S
O190 Tb181 2.271 . S
O190 C182 1.252 . S
O191 C182 1.253 . S
O191 Tb184 2.312 . S
O192 Tb181 2.338 . S
O192 C197 1.258 . S
C193 O183 1.252 . S
C193 O186 1.253 . S
C194 O180 1.265 . S
C194 O199 1.244 . S
O195 Tb184 2.441 . S
O195 C185 1.244 . S
O196 Tb184 2.506 . S
O196 C185 1.265 . S
C197 O192 1.258 . S
C197 O198 1.251 . S
O198 C197 1.251 . S
O199 Tb181 2.441 . S
O199 C194 1.244 . S
O200 Tb201 2.506 1_545 S
O200 C214 1.265 . S
Tb201 O200 2.506 1_565 S
Tb201 O206 2.312 . S
Tb201 O210 2.271 . S
Tb201 O212 2.338 . S
Tb201 O219 2.441 . S
C202 O210 1.252 . S
C202 O211 1.253 . S
O203 Tb204 2.271 . S
O203 C213 1.252 . S
Tb204 O203 2.271 . S
Tb204 O207 2.338 . S
Tb204 O211 2.312 . S
Tb204 O215 2.441 . S
Tb204 O216 2.506 . S
C205 O215 1.244 . S
C205 O216 1.265 . S
O206 Tb201 2.312 . S
O206 C213 1.253 . S
O207 Tb204 2.338 . S
O207 C208 1.258 . S
C208 O207 1.258 . S
C208 O209 1.251 . S
O209 C208 1.251 . S
O210 Tb201 2.271 . S
O210 C202 1.252 . S
O211 C202 1.253 . S
O211 Tb204 2.312 . S
O212 Tb201 2.338 . S
O212 C217 1.258 . S
C213 O203 1.252 . S
C213 O206 1.253 . S
C214 O200 1.265 . S
C214 O219 1.244 1_545 S
O215 Tb204 2.441 . S
O215 C205 1.244 . S
O216 Tb204 2.506 . S
O216 C205 1.265 . S
C217 O212 1.258 . S
C217 O218 1.251 . S
O218 C217 1.251 . S
O219 Tb201 2.441 . S
O219 C214 1.244 1_565 S
O220 Tb221 2.506 . S
O220 C234 1.265 . S
Tb221 O220 2.506 . S
Tb221 O226 2.312 . S
Tb221 O230 2.271 . S
Tb221 O232 2.338 . S
Tb221 O239 2.441 . S
C222 O230 1.252 . S
C222 O231 1.253 . S
O223 Tb224 2.271 . S
O223 C233 1.252 . S
Tb224 O223 2.271 . S
Tb224 O227 2.338 . S
Tb224 O231 2.312 . S
Tb224 O235 2.441 . S
Tb224 O236 2.506 . S
C225 O235 1.244 . S
C225 O236 1.265 . S
O226 Tb221 2.312 . S
O226 C233 1.253 . S
O227 Tb224 2.338 . S
O227 C228 1.258 . S
C228 O227 1.258 . S
C228 O229 1.251 . S
O229 C228 1.251 . S
O230 Tb221 2.271 . S
O230 C222 1.252 . S
O231 C222 1.253 . S
O231 Tb224 2.312 . S
O232 Tb221 2.338 . S
O232 C237 1.258 . S
C233 O223 1.252 . S
C233 O226 1.253 . S
C234 O220 1.265 . S
C234 O239 1.244 . S
O235 Tb224 2.441 . S
O235 C225 1.244 . S
O236 Tb224 2.506 . S
O236 C225 1.265 . S
C237 O232 1.258 . S
C237 O238 1.251 . S
O238 C237 1.251 . S
O239 Tb221 2.441 . S
O239 C234 1.244 . S
O240 Tb241 2.506 . S
O240 C254 1.265 . S
Tb241 O240 2.506 . S
Tb241 O246 2.312 . S
Tb241 O250 2.271 . S
Tb241 O252 2.338 . S
Tb241 O259 2.441 . S
C242 O250 1.252 . S
C242 O251 1.253 . S
O243 Tb244 2.271 . S
O243 C253 1.252 . S
Tb244 O243 2.271 . S
Tb244 O247 2.338 . S
Tb244 O251 2.312 . S
Tb244 O255 2.441 . S
Tb244 O256 2.506 . S
C245 O255 1.244 . S
C245 O256 1.265 . S
O246 Tb241 2.312 . S
O246 C253 1.253 . S
O247 Tb244 2.338 . S
O247 C248 1.258 . S
C248 O247 1.258 . S
C248 O249 1.251 . S
O249 C248 1.251 . S
O250 Tb241 2.271 . S
O250 C242 1.252 . S
O251 C242 1.253 . S
O251 Tb244 2.312 . S
O252 Tb241 2.338 . S
O252 C257 1.258 . S
C253 O243 1.252 . S
C253 O246 1.253 . S
C254 O240 1.265 . S
C254 O259 1.244 . S
O255 Tb244 2.441 . S
O255 C245 1.244 . S
O256 Tb244 2.506 . S
O256 C245 1.265 . S
C257 O252 1.258 . S
C257 O258 1.251 . S
O258 C257 1.251 . S
O259 Tb241 2.441 . S
O259 C254 1.244 . S
O260 Tb261 2.506 . S
O260 C274 1.265 . S
Tb261 O260 2.506 . S
Tb261 O266 2.312 . S
Tb261 O270 2.271 . S
Tb261 O272 2.338 . S
Tb261 O279 2.441 . S
C262 O270 1.252 . S
C262 O271 1.253 . S
O263 Tb264 2.271 . S
O263 C273 1.252 . S
Tb264 O263 2.271 . S
Tb264 O267 2.338 . S
Tb264 O271 2.312 . S
Tb264 O275 2.441 . S
Tb264 O276 2.506 . S
C265 O275 1.244 . S
C265 O276 1.265 . S
O266 Tb261 2.312 . S
O266 C273 1.253 . S
O267 Tb264 2.338 . S
O267 C268 1.258 . S
C268 O267 1.258 . S
C268 O269 1.251 . S
O269 C268 1.251 . S
O270 Tb261 2.271 . S
O270 C262 1.252 . S
O271 C262 1.253 . S
O271 Tb264 2.312 . S
O272 Tb261 2.338 . S
O272 C277 1.258 . S
C273 O263 1.252 . S
C273 O266 1.253 . S
C274 O260 1.265 . S
C274 O279 1.244 . S
O275 Tb264 2.441 . S
O275 C265 1.244 . S
O276 Tb264 2.506 . S
O276 C265 1.265 . S
C277 O272 1.258 . S
C277 O278 1.251 . S
O278 C277 1.251 . S
O279 Tb261 2.441 . S
O279 C274 1.244 . S
O280 Tb281 2.506 1_455 S
O280 C294 1.265 . S
Tb281 O280 2.506 1_655 S
Tb281 O286 2.312 . S
Tb281 O290 2.271 . S
Tb281 O292 2.338 . S
Tb281 O299 2.441 . S
C282 O290 1.252 . S
C282 O291 1.253 . S
O283 Tb284 2.271 . S
O283 C293 1.252 . S
Tb284 O283 2.271 . S
Tb284 O287 2.338 . S
Tb284 O291 2.312 . S
Tb284 O295 2.441 . S
Tb284 O296 2.506 . S
C285 O295 1.244 . S
C285 O296 1.265 . S
O286 Tb281 2.312 . S
O286 C293 1.253 . S
O287 Tb284 2.338 . S
O287 C288 1.258 . S
C288 O287 1.258 . S
C288 O289 1.251 . S
O289 C288 1.251 . S
O290 Tb281 2.271 . S
O290 C282 1.252 . S
O291 C282 1.253 . S
O291 Tb284 2.312 . S
O292 Tb281 2.338 . S
O292 C297 1.258 . S
C293 O283 1.252 . S
C293 O286 1.253 . S
C294 O280 1.265 . S
C294 O299 1.244 1_455 S
O295 Tb284 2.441 . S
O295 C285 1.244 . S
O296 Tb284 2.506 . S
O296 C285 1.265 . S
C297 O292 1.258 . S
C297 O298 1.251 . S
O298 C297 1.251 . S
O299 Tb281 2.441 . S
O299 C294 1.244 1_655 S
O300 Tb301 2.506 . S
O300 C314 1.265 . S
Tb301 O300 2.506 . S
Tb301 O306 2.312 . S
Tb301 O310 2.271 . S
Tb301 O312 2.338 . S
Tb301 O319 2.441 . S
C302 O310 1.252 . S
C302 O311 1.253 . S
O303 Tb304 2.271 . S
O303 C313 1.252 . S
Tb304 O303 2.271 . S
Tb304 O307 2.338 . S
Tb304 O311 2.312 . S
Tb304 O315 2.441 . S
Tb304 O316 2.506 . S
C305 O315 1.244 . S
C305 O316 1.265 . S
O306 Tb301 2.312 . S
O306 C313 1.253 . S
O307 Tb304 2.338 . S
O307 C308 1.258 . S
C308 O307 1.258 . S
C308 O309 1.251 . S
O309 C308 1.251 . S
O310 Tb301 2.271 . S
O310 C302 1.252 . S
O311 C302 1.253 . S
O311 Tb304 2.312 . S
O312 Tb301 2.338 . S
O312 C317 1.258 . S
C313 O303 1.252 . S
C313 O306 1.253 . S
C314 O300 1.265 . S
C314 O319 1.244 . S
O315 Tb304 2.441 . S
O315 C305 1.244 . S
O316 Tb304 2.506 . S
O316 C305 1.265 . S
C317 O312 1.258 . S
C317 O318 1.251 . S
O318 C317 1.251 . S
O319 Tb301 2.441 . S
O319 C314 1.244 . S
O320 Tb321 2.506 . S
O320 C334 1.265 . S
Tb321 O320 2.506 . S
Tb321 O326 2.312 . S
Tb321 O330 2.271 . S
Tb321 O332 2.338 . S
Tb321 O339 2.441 . S
C322 O330 1.252 . S
C322 O331 1.253 . S
O323 Tb324 2.271 . S
O323 C333 1.252 . S
Tb324 O323 2.271 . S
Tb324 O327 2.338 . S
Tb324 O331 2.312 . S
Tb324 O335 2.441 1_655 S
Tb324 O336 2.506 1_655 S
C325 O335 1.244 . S
C325 O336 1.265 . S
O326 Tb321 2.312 . S
O326 C333 1.253 . S
O327 Tb324 2.338 . S
O327 C328 1.258 . S
C328 O327 1.258 . S
C328 O329 1.251 . S
O329 C328 1.251 . S
O330 Tb321 2.271 . S
O330 C322 1.252 . S
O331 C322 1.253 . S
O331 Tb324 2.312 . S
O332 Tb321 2.338 . S
O332 C337 1.258 . S
C333 O323 1.252 . S
C333 O326 1.253 . S
C334 O320 1.265 . S
C334 O339 1.244 . S
O335 Tb324 2.441 1_455 S
O335 C325 1.244 . S
O336 Tb324 2.506 1_455 S
O336 C325 1.265 . S
C337 O332 1.258 . S
C337 O338 1.251 . S
O338 C337 1.251 . S
O339 Tb321 2.441 . S
O339 C334 1.244 . S
O340 Tb341 2.506 . S
O340 C354 1.265 . S
Tb341 O340 2.506 . S
Tb341 O346 2.312 . S
Tb341 O350 2.271 . S
Tb341 O352 2.338 . S
Tb341 O359 2.441 . S
C342 O350 1.252 . S
C342 O351 1.253 . S
O343 Tb344 2.271 . S
O343 C353 1.252 . S
Tb344 O343 2.271 . S
Tb344 O347 2.338 . S
Tb344 O351 2.312 . S
Tb344 O355 2.441 . S
Tb344 O356 2.506 . S
C345 O355 1.244 . S
C345 O356 1.265 . S
O346 Tb341 2.312 . S
O346 C353 1.253 . S
O347 Tb344 2.338 . S
O347 C348 1.258 . S
C348 O347 1.258 . S
C348 O349 1.251 . S
O349 C348 1.251 . S
O350 Tb341 2.271 . S
O350 C342 1.252 . S
O351 C342 1.253 . S
O351 Tb344 2.312 . S
O352 Tb341 2.338 . S
O352 C357 1.258 . S
C353 O343 1.252 . S
C353 O346 1.253 . S
C354 O340 1.265 . S
C354 O359 1.244 . S
O355 Tb344 2.441 . S
O355 C345 1.244 . S
O356 Tb344 2.506 . S
O356 C345 1.265 . S
C357 O352 1.258 . S
C357 O358 1.251 . S
O358 C357 1.251 . S
O359 Tb341 2.441 . S
O359 C354 1.244 . S
C360 C361 1.369 . S
C360 C362 1.419 . S
C360 H364 0.930 . S
C361 C360 1.369 . S
C361 C370 1.429 . S
C362 C360 1.419 . S
C362 C363 1.363 . S
C362 H365 0.929 . S
C363 C362 1.363 . S
C363 C369 1.428 . S
H364 C360 0.930 . S
H365 C362 0.929 . S
S366 N367 1.613 . S
S366 N368 1.610 . S
N367 S366 1.613 . S
N367 C370 1.350 . S
N368 S366 1.610 . S
N368 C369 1.351 . S
C369 C363 1.428 . S
C369 N368 1.351 . S
C369 C370 1.434 . S
C370 C361 1.429 . S
C370 N367 1.350 . S
C370 C369 1.434 . S
C371 C372 1.369 . S
C371 C373 1.419 . S
C371 H375 0.930 . S
C372 C371 1.369 . S
C372 C381 1.429 . S
C373 C371 1.419 . S
C373 C374 1.363 . S
C373 H376 0.929 . S
C374 C373 1.363 . S
C374 C380 1.428 . S
H375 C371 0.930 . S
H376 C373 0.929 . S
S377 N378 1.613 . S
S377 N379 1.610 . S
N378 S377 1.613 . S
N378 C381 1.350 . S
N379 S377 1.610 . S
N379 C380 1.351 . S
C380 C374 1.428 . S
C380 N379 1.351 . S
C380 C381 1.434 . S
C381 C372 1.429 . S
C381 N378 1.350 . S
C381 C380 1.434 . S
C382 C383 1.369 . S
C382 C384 1.419 . S
C382 H386 0.930 . S
C383 C382 1.369 . S
C383 C392 1.429 . S
C384 C382 1.419 . S
C384 C385 1.363 . S
C384 H387 0.929 . S
C385 C384 1.363 . S
C385 C391 1.428 . S
H386 C382 0.930 . S
H387 C384 0.929 . S
S388 N389 1.613 . S
S388 N390 1.610 . S
N389 S388 1.613 . S
N389 C392 1.350 . S
N390 S388 1.610 . S
N390 C391 1.351 . S
C391 C385 1.428 . S
C391 N390 1.351 . S
C391 C392 1.434 . S
C392 C383 1.429 . S
C392 N389 1.350 . S
C392 C391 1.434 . S
C393 C394 1.369 . S
C393 C395 1.419 . S
C393 H397 0.930 . S
C394 C393 1.369 . S
C394 C403 1.429 . S
C395 C393 1.419 . S
C395 C396 1.363 . S
C395 H398 0.929 . S
C396 C395 1.363 . S
C396 C402 1.428 . S
H397 C393 0.930 . S
H398 C395 0.929 . S
S399 N400 1.613 . S
S399 N401 1.610 . S
N400 S399 1.613 . S
N400 C403 1.350 . S
N401 S399 1.610 . S
N401 C402 1.351 . S
C402 C396 1.428 . S
C402 N401 1.351 . S
C402 C403 1.434 . S
C403 C394 1.429 . S
C403 N400 1.350 . S
C403 C402 1.434 . S
C404 C405 1.369 . S
C404 C406 1.419 . S
C404 H408 0.930 . S
C405 C404 1.369 . S
C405 C414 1.429 . S
C406 C404 1.419 . S
C406 C407 1.363 . S
C406 H409 0.929 . S
C407 C406 1.363 . S
C407 C413 1.428 . S
H408 C404 0.930 . S
H409 C406 0.929 . S
S410 N411 1.613 . S
S410 N412 1.610 . S
N411 S410 1.613 . S
N411 C414 1.350 . S
N412 S410 1.610 . S
N412 C413 1.351 . S
C413 C407 1.428 . S
C413 N412 1.351 . S
C413 C414 1.434 . S
C414 C405 1.429 . S
C414 N411 1.350 . S
C414 C413 1.434 . S
C415 C416 1.369 . S
C415 C417 1.419 . S
C415 H419 0.930 . S
C416 C415 1.369 . S
C416 C425 1.429 . S
C417 C415 1.419 . S
C417 C418 1.363 . S
C417 H420 0.929 . S
C418 C417 1.363 . S
C418 C424 1.428 . S
H419 C415 0.930 . S
H420 C417 0.929 . S
S421 N422 1.613 . S
S421 N423 1.610 . S
N422 S421 1.613 . S
N422 C425 1.350 . S
N423 S421 1.610 . S
N423 C424 1.351 . S
C424 C418 1.428 . S
C424 N423 1.351 . S
C424 C425 1.434 . S
C425 C416 1.429 . S
C425 N422 1.350 . S
C425 C424 1.434 . S
C426 C427 1.369 . S
C426 C428 1.419 . S
C426 H430 0.930 . S
C427 C426 1.369 . S
C427 C436 1.429 . S
C428 C426 1.419 . S
C428 C429 1.363 . S
C428 H431 0.929 . S
C429 C428 1.363 . S
C429 C435 1.428 . S
H430 C426 0.930 . S
H431 C428 0.929 . S
S432 N433 1.613 . S
S432 N434 1.610 . S
N433 S432 1.613 . S
N433 C436 1.350 . S
N434 S432 1.610 . S
N434 C435 1.351 . S
C435 C429 1.428 . S
C435 N434 1.351 . S
C435 C436 1.434 . S
C436 C427 1.429 . S
C436 N433 1.350 . S
C436 C435 1.434 . S
C437 C438 1.369 . S
C437 C439 1.419 . S
C437 H441 0.930 1_655 S
C438 C437 1.369 . S
C438 C447 1.429 . S
C439 C437 1.419 . S
C439 C440 1.363 . S
C439 H442 0.929 . S
C440 C439 1.363 . S
C440 C446 1.428 . S
H441 C437 0.930 1_455 S
H442 C439 0.929 . S
S443 N444 1.613 . S
S443 N445 1.610 1_545 S
N444 S443 1.613 . S
N444 C447 1.350 . S
N445 S443 1.610 1_565 S
N445 C446 1.351 1_565 S
C446 C440 1.428 . S
C446 N445 1.351 1_545 S
C446 C447 1.434 . S
C447 C438 1.429 . S
C447 N444 1.350 . S
C447 C446 1.434 . S
C448 C449 1.369 . S
C448 C450 1.419 . S
C448 H452 0.930 . S
C449 C448 1.369 . S
C449 C458 1.429 1_455 S
C450 C448 1.419 . S
C450 C451 1.363 1_455 S
C450 H453 0.929 . S
C451 C450 1.363 1_655 S
C451 C457 1.428 . S
H452 C448 0.930 . S
H453 C450 0.929 . S
S454 N455 1.613 . S
S454 N456 1.610 . S
N455 S454 1.613 . S
N455 C458 1.350 . S
N456 S454 1.610 . S
N456 C457 1.351 . S
C457 C451 1.428 . S
C457 N456 1.351 . S
C457 C458 1.434 . S
C458 C449 1.429 1_655 S
C458 N455 1.350 . S
C458 C457 1.434 . S
C459 C460 1.369 . S
C459 C461 1.419 . S
C459 H463 0.930 . S
C460 C459 1.369 . S
C460 C469 1.429 . S
C461 C459 1.419 . S
C461 C462 1.363 . S
C461 H464 0.929 . S
C462 C461 1.363 . S
C462 C468 1.428 . S
H463 C459 0.930 . S
H464 C461 0.929 . S
S465 N466 1.613 . S
S465 N467 1.610 . S
N466 S465 1.613 . S
N466 C469 1.350 . S
N467 S465 1.610 . S
N467 C468 1.351 . S
C468 C462 1.428 . S
C468 N467 1.351 . S
C468 C469 1.434 . S
C469 C460 1.429 . S
C469 N466 1.350 . S
C469 C468 1.434 . S
C470 C471 1.369 . S
C470 C472 1.419 . S
C470 H474 0.930 . S
C471 C470 1.369 . S
C471 C480 1.429 . S
C472 C470 1.419 . S
C472 C473 1.363 . S
C472 H475 0.929 . S
C473 C472 1.363 . S
C473 C479 1.428 . S
H474 C470 0.930 . S
H475 C472 0.929 . S
S476 N477 1.613 . S
S476 N478 1.610 . S
N477 S476 1.613 . S
N477 C480 1.350 . S
N478 S476 1.610 . S
N478 C479 1.351 . S
C479 C473 1.428 . S
C479 N478 1.351 . S
C479 C480 1.434 . S
C480 C471 1.429 . S
C480 N477 1.350 . S
C480 C479 1.434 . S
C481 C482 1.369 . S
C481 C483 1.419 . S
C481 H485 0.930 . S
C482 C481 1.369 . S
C482 C491 1.429 . S
C483 C481 1.419 . S
C483 C484 1.363 . S
C483 H486 0.929 . S
C484 C483 1.363 . S
C484 C490 1.428 . S
H485 C481 0.930 . S
H486 C483 0.929 . S
S487 N488 1.613 . S
S487 N489 1.610 . S
N488 S487 1.613 . S
N488 C491 1.350 . S
N489 S487 1.610 . S
N489 C490 1.351 . S
C490 C484 1.428 . S
C490 N489 1.351 . S
C490 C491 1.434 . S
C491 C482 1.429 . S
C491 N488 1.350 . S
C491 C490 1.434 . S
C492 C493 1.369 . S
C492 C494 1.419 . S
C492 H496 0.930 . S
C493 C492 1.369 . S
C493 C502 1.429 . S
C494 C492 1.419 . S
C494 C495 1.363 . S
C494 H497 0.929 . S
C495 C494 1.363 . S
C495 C501 1.428 . S
H496 C492 0.930 . S
H497 C494 0.929 . S
S498 N499 1.613 . S
S498 N500 1.610 . S
N499 S498 1.613 . S
N499 C502 1.350 . S
N500 S498 1.610 . S
N500 C501 1.351 . S
C501 C495 1.428 . S
C501 N500 1.351 . S
C501 C502 1.434 . S
C502 C493 1.429 . S
C502 N499 1.350 . S
C502 C501 1.434 . S
C503 C504 1.369 . S
C503 C505 1.419 . S
C503 H507 0.930 . S
C504 C503 1.369 . S
C504 C513 1.429 . S
C505 C503 1.419 . S
C505 C506 1.363 . S
C505 H508 0.929 . S
C506 C505 1.363 . S
C506 C512 1.428 . S
H507 C503 0.930 . S
H508 C505 0.929 . S
S509 N510 1.613 . S
S509 N511 1.610 . S
N510 S509 1.613 . S
N510 C513 1.350 . S
N511 S509 1.610 . S
N511 C512 1.351 . S
C512 C506 1.428 . S
C512 N511 1.351 . S
C512 C513 1.434 . S
C513 C504 1.429 . S
C513 N510 1.350 . S
C513 C512 1.434 . S
C514 C515 1.369 . S
C514 C516 1.419 . S
C514 H518 0.930 . S
C515 C514 1.369 . S
C515 C524 1.429 . S
C516 C514 1.419 . S
C516 C517 1.363 . S
C516 H519 0.929 . S
C517 C516 1.363 . S
C517 C523 1.428 . S
H518 C514 0.930 . S
H519 C516 0.929 . S
S520 N521 1.613 . S
S520 N522 1.610 . S
N521 S520 1.613 . S
N521 C524 1.350 . S
N522 S520 1.610 . S
N522 C523 1.351 . S
C523 C517 1.428 . S
C523 N522 1.351 . S
C523 C524 1.434 . S
C524 C515 1.429 . S
C524 N521 1.350 . S
C524 C523 1.434 . S
C525 C526 1.369 . S
C525 C527 1.419 . S
C525 H529 0.930 . S
C526 C525 1.369 . S
C526 C535 1.429 . S
C527 C525 1.419 . S
C527 C528 1.363 . S
C527 H530 0.929 . S
C528 C527 1.363 . S
C528 C534 1.428 . S
H529 C525 0.930 . S
H530 C527 0.929 . S
S531 N532 1.613 . S
S531 N533 1.610 . S
N532 S531 1.613 . S
N532 C535 1.350 . S
N533 S531 1.610 . S
N533 C534 1.351 . S
C534 C528 1.428 . S
C534 N533 1.351 . S
C534 C535 1.434 . S
C535 C526 1.429 . S
C535 N532 1.350 . S
C535 C534 1.434 . S
C536 C537 1.369 . S
C536 C538 1.419 1_565 S
C536 H540 0.930 . S
C537 C536 1.369 . S
C537 C546 1.429 1_565 S
C538 C536 1.419 1_545 S
C538 C539 1.363 . S
C538 H541 0.929 1_545 S
C539 C538 1.363 . S
C539 C545 1.428 . S
H540 C536 0.930 . S
H541 C538 0.929 1_565 S
S542 N543 1.613 . S
S542 N544 1.610 . S
N543 S542 1.613 . S
N543 C546 1.350 . S
N544 S542 1.610 . S
N544 C545 1.351 . S
C545 C539 1.428 . S
C545 N544 1.351 . S
C545 C546 1.434 . S
C546 C537 1.429 1_545 S
C546 N543 1.350 . S
C546 C545 1.434 . S
C547 C548 1.369 . S
C547 C549 1.419 . S
C547 H551 0.930 1_565 S
C548 C547 1.369 . S
C548 C557 1.429 . S
C549 C547 1.419 . S
C549 C550 1.363 . S
C549 H552 0.929 . S
C550 C549 1.363 . S
C550 C556 1.428 . S
H551 C547 0.930 1_545 S
H552 C549 0.929 . S
S553 N554 1.613 . S
S553 N555 1.610 . S
N554 S553 1.613 . S
N554 C557 1.350 . S
N555 S553 1.610 . S
N555 C556 1.351 . S
C556 C550 1.428 . S
C556 N555 1.351 . S
C556 C557 1.434 . S
C557 C548 1.429 . S
C557 N554 1.350 . S
C557 C556 1.434 . S
C558 C559 1.369 . S
C558 C560 1.419 1_554 S
C558 H562 0.930 . S
C559 C558 1.369 . S
C559 C568 1.429 . S
C560 C558 1.419 1_556 S
C560 C561 1.363 . S
C560 H563 0.929 . S
C561 C560 1.363 . S
C561 C567 1.428 . S
H562 C558 0.930 . S
H563 C560 0.929 . S
S564 N565 1.613 . S
S564 N566 1.610 1_554 S
N565 S564 1.613 . S
N565 C568 1.350 . S
N566 S564 1.610 1_556 S
N566 C567 1.351 . S
C567 C561 1.428 . S
C567 N566 1.351 . S
C567 C568 1.434 1_556 S
C568 C559 1.429 . S
C568 N565 1.350 . S
C568 C567 1.434 1_554 S
C569 C570 1.378 . S
C569 C571 1.416 1_456 S
C569 H573 0.924 1_455 S
C570 C569 1.378 . S
C570 C579 1.429 . S
C571 C569 1.416 1_654 S
C571 C572 1.363 1_655 S
C571 H574 0.929 . S
C572 C571 1.363 1_455 S
C572 C578 1.428 . S
H573 C569 0.924 1_655 S
H574 C571 0.929 . S
S575 N576 1.613 1_554 S
S575 N577 1.610 . S
N576 S575 1.613 1_556 S
N576 C579 1.350 . S
N577 S575 1.610 . S
N577 C578 1.351 . S
C578 C572 1.428 . S
C578 N577 1.351 . S
C578 C579 1.434 1_554 S
C579 C570 1.429 . S
C579 N576 1.350 . S
C579 C578 1.434 1_556 S
C580 C581 1.369 . S
C580 C582 1.419 1_556 S
C580 H584 0.930 . S
C581 C580 1.369 . S
C581 C590 1.429 . S
C582 C580 1.419 1_554 S
C582 C583 1.363 . S
C582 H585 0.929 . S
C583 C582 1.363 . S
C583 C589 1.428 . S
H584 C580 0.930 . S
H585 C582 0.929 . S
S586 N587 1.613 1_554 S
S586 N588 1.610 . S
N587 S586 1.613 1_556 S
N587 C590 1.350 . S
N588 S586 1.610 . S
N588 C589 1.351 . S
C589 C583 1.428 . S
C589 N588 1.351 . S
C589 C590 1.434 1_554 S
C590 C581 1.429 . S
C590 N587 1.350 . S
C590 C589 1.434 1_556 S
C591 C592 1.369 . S
C591 C593 1.419 . S
C591 H595 0.930 . S
C592 C591 1.369 . S
C592 C601 1.429 . S
C593 C591 1.419 . S
C593 C594 1.363 . S
C593 H596 0.929 . S
C594 C593 1.363 . S
C594 C600 1.428 . S
H595 C591 0.930 . S
H596 C593 0.929 . S
S597 N598 1.613 . S
S597 N599 1.610 . S
N598 S597 1.613 . S
N598 C601 1.350 . S
N599 S597 1.610 . S
N599 C600 1.351 . S
C600 C594 1.428 . S
C600 N599 1.351 . S
C600 C601 1.434 . S
C601 C592 1.429 . S
C601 N598 1.350 . S
C601 C600 1.434 . S
C602 C603 1.369 . S
C602 C604 1.419 . S
C602 H606 0.930 . S
C603 C602 1.369 . S
C603 C612 1.429 . S
C604 C602 1.419 . S
C604 C605 1.363 . S
C604 H607 0.929 . S
C605 C604 1.363 . S
C605 C611 1.428 . S
H606 C602 0.930 . S
H607 C604 0.929 . S
S608 N609 1.613 . S
S608 N610 1.610 . S
N609 S608 1.613 . S
N609 C612 1.350 . S
N610 S608 1.610 . S
N610 C611 1.351 . S
C611 C605 1.428 . S
C611 N610 1.351 . S
C611 C612 1.434 . S
C612 C603 1.429 . S
C612 N609 1.350 . S
C612 C611 1.434 . S
C613 C614 1.369 . S
C613 C615 1.419 . S
C613 H617 0.930 . S
C614 C613 1.369 . S
C614 C623 1.429 . S
C615 C613 1.419 . S
C615 C616 1.363 . S
C615 H618 0.929 . S
C616 C615 1.363 . S
C616 C622 1.428 . S
H617 C613 0.930 . S
H618 C615 0.929 . S
S619 N620 1.613 . S
S619 N621 1.610 . S
N620 S619 1.613 . S
N620 C623 1.350 . S
N621 S619 1.610 . S
N621 C622 1.351 . S
C622 C616 1.428 . S
C622 N621 1.351 . S
C622 C623 1.434 . S
C623 C614 1.429 . S
C623 N620 1.350 . S
C623 C622 1.434 . S
C624 C625 1.369 . S
C624 C626 1.419 . S
C624 H628 0.930 . S
C625 C624 1.369 . S
C625 C634 1.429 . S
C626 C624 1.419 . S
C626 C627 1.363 . S
C626 H629 0.929 . S
C627 C626 1.363 . S
C627 C633 1.428 . S
H628 C624 0.930 . S
H629 C626 0.929 . S
S630 N631 1.613 . S
S630 N632 1.610 . S
N631 S630 1.613 . S
N631 C634 1.350 . S
N632 S630 1.610 . S
N632 C633 1.351 . S
C633 C627 1.428 . S
C633 N632 1.351 . S
C633 C634 1.434 . S
C634 C625 1.429 . S
C634 N631 1.350 . S
C634 C633 1.434 . S
C635 C636 1.369 . S
C635 C637 1.419 . S
C635 H639 0.930 . S
C636 C635 1.369 . S
C636 C645 1.429 . S
C637 C635 1.419 . S
C637 C638 1.363 . S
C637 H640 0.929 . S
C638 C637 1.363 . S
C638 C644 1.428 . S
H639 C635 0.930 . S
H640 C637 0.929 . S
S641 N642 1.613 . S
S641 N643 1.610 . S
N642 S641 1.613 . S
N642 C645 1.350 . S
N643 S641 1.610 . S
N643 C644 1.351 . S
C644 C638 1.428 . S
C644 N643 1.351 . S
C644 C645 1.434 . S
C645 C636 1.429 . S
C645 N642 1.350 . S
C645 C644 1.434 . S
C646 C647 1.369 . S
C646 C648 1.419 . S
C646 H650 0.930 . S
C647 C646 1.369 . S
C647 C656 1.429 . S
C648 C646 1.419 . S
C648 C649 1.363 . S
C648 H651 0.929 . S
C649 C648 1.363 . S
C649 C655 1.428 . S
H650 C646 0.930 . S
H651 C648 0.929 . S
S652 N653 1.613 . S
S652 N654 1.610 . S
N653 S652 1.613 . S
N653 C656 1.350 . S
N654 S652 1.610 . S
N654 C655 1.351 . S
C655 C649 1.428 . S
C655 N654 1.351 . S
C655 C656 1.434 . S
C656 C647 1.429 . S
C656 N653 1.350 . S
C656 C655 1.434 . S
C657 C658 1.369 . S
C657 C659 1.419 . S
C657 H661 0.930 . S
C658 C657 1.369 . S
C658 C667 1.429 . S
C659 C657 1.419 . S
C659 C660 1.363 . S
C659 H662 0.929 . S
C660 C659 1.363 . S
C660 C666 1.428 . S
H661 C657 0.930 . S
H662 C659 0.929 . S
S663 N664 1.613 . S
S663 N665 1.610 . S
N664 S663 1.613 . S
N664 C667 1.350 . S
N665 S663 1.610 . S
N665 C666 1.351 . S
C666 C660 1.428 . S
C666 N665 1.351 . S
C666 C667 1.434 . S
C667 C658 1.429 . S
C667 N664 1.350 . S
C667 C666 1.434 . S
C668 C669 1.369 . S
C668 C670 1.419 . S
C668 H672 0.930 . S
C669 C668 1.369 . S
C669 C678 1.429 . S
C670 C668 1.419 . S
C670 C671 1.363 . S
C670 H673 0.929 . S
C671 C670 1.363 . S
C671 C677 1.428 . S
H672 C668 0.930 . S
H673 C670 0.929 . S
S674 N675 1.613 . S
S674 N676 1.610 . S
N675 S674 1.613 . S
N675 C678 1.350 . S
N676 S674 1.610 . S
N676 C677 1.351 . S
C677 C671 1.428 . S
C677 N676 1.351 . S
C677 C678 1.434 . S
C678 C669 1.429 . S
C678 N675 1.350 . S
C678 C677 1.434 . S
C679 C680 1.369 . S
C679 C681 1.419 . S
C679 H683 0.930 . S
C680 C679 1.369 . S
C680 C689 1.429 . S
C681 C679 1.419 . S
C681 C682 1.363 . S
C681 H684 0.929 . S
C682 C681 1.363 . S
C682 C688 1.428 . S
H683 C679 0.930 . S
H684 C681 0.929 . S
S685 N686 1.613 . S
S685 N687 1.610 . S
N686 S685 1.613 . S
N686 C689 1.350 . S
N687 S685 1.610 . S
N687 C688 1.351 . S
C688 C682 1.428 . S
C688 N687 1.351 . S
C688 C689 1.434 . S
C689 C680 1.429 . S
C689 N686 1.350 . S
C689 C688 1.434 . S
C690 C691 1.369 . S
C690 C692 1.419 . S
C690 H694 0.923 1_655 S
C691 C690 1.369 . S
C691 C700 1.429 . S
C692 C690 1.419 . S
C692 C693 1.363 . S
C692 H695 0.929 . S
C693 C692 1.363 . S
C693 C699 1.428 . S
H694 C690 0.923 1_455 S
H695 C692 0.929 . S
S696 N697 1.613 . S
S696 N698 1.610 . S
N697 S696 1.613 . S
N697 C700 1.350 . S
N698 S696 1.610 . S
N698 C699 1.351 . S
C699 C693 1.428 . S
C699 N698 1.351 . S
C699 C700 1.434 . S
C700 C691 1.429 . S
C700 N697 1.350 . S
C700 C699 1.434 . S
C701 C702 1.369 . S
C701 C703 1.419 . S
C701 H705 0.930 . S
C702 C701 1.369 . S
C702 C711 1.429 . S
C703 C701 1.419 . S
C703 C704 1.363 . S
C703 H706 0.929 . S
C704 C703 1.363 . S
C704 C710 1.428 . S
H705 C701 0.930 . S
H706 C703 0.929 . S
S707 N708 1.613 . S
S707 N709 1.610 . S
N708 S707 1.613 . S
N708 C711 1.350 . S
N709 S707 1.610 . S
N709 C710 1.351 . S
C710 C704 1.428 . S
C710 N709 1.351 . S
C710 C711 1.434 . S
C711 C702 1.429 . S
C711 N708 1.350 . S
C711 C710 1.434 . S
C712 C713 1.369 . S
C712 C714 1.419 . S
C712 H716 0.930 . S
C713 C712 1.369 . S
C713 C722 1.429 . S
C714 C712 1.419 . S
C714 C715 1.363 . S
C714 H717 0.929 . S
C715 C714 1.363 . S
C715 C721 1.428 . S
H716 C712 0.930 . S
H717 C714 0.929 . S
S718 N719 1.613 . S
S718 N720 1.610 . S
N719 S718 1.613 . S
N719 C722 1.350 . S
N720 S718 1.610 . S
N720 C721 1.351 . S
C721 C715 1.428 . S
C721 N720 1.351 . S
C721 C722 1.434 . S
C722 C713 1.429 . S
C722 N719 1.350 . S
C722 C721 1.434 . S
C723 C724 1.369 1_455 S
C723 C725 1.419 . S
C723 H727 0.930 . S
C724 C723 1.369 1_655 S
C724 C733 1.429 1_655 S
C725 C723 1.419 . S
C725 C726 1.363 . S
C725 H728 0.929 . S
C726 C725 1.363 . S
C726 C732 1.428 . S
H727 C723 0.930 . S
H728 C725 0.929 . S
S729 N730 1.613 1_455 S
S729 N731 1.610 . S
N730 S729 1.613 1_655 S
N730 C733 1.350 1_655 S
N731 S729 1.610 . S
N731 C732 1.351 . S
C732 C726 1.428 . S
C732 N731 1.351 . S
C732 C733 1.434 . S
C733 C724 1.429 1_455 S
C733 N730 1.350 1_455 S
C733 C732 1.434 . S
C734 C735 1.369 . S
C734 C736 1.419 . S
C734 H738 0.930 . S
C735 C734 1.369 . S
C735 C744 1.429 . S
C736 C734 1.419 . S
C736 C737 1.363 . S
C736 H739 0.929 . S
C737 C736 1.363 . S
C737 C743 1.428 . S
H738 C734 0.930 . S
H739 C736 0.929 . S
S740 N741 1.613 . S
S740 N742 1.610 . S
N741 S740 1.613 . S
N741 C744 1.350 . S
N742 S740 1.610 . S
N742 C743 1.351 . S
C743 C737 1.428 . S
C743 N742 1.351 . S
C743 C744 1.434 . S
C744 C735 1.429 . S
C744 N741 1.350 . S
C744 C743 1.434 . S
C745 C746 1.369 1_545 S
C745 C747 1.419 . S
C745 H749 0.930 1_545 S
C746 C745 1.369 1_565 S
C746 C755 1.429 1_565 S
C747 C745 1.419 . S
C747 C748 1.363 . S
C747 H750 0.929 . S
C748 C747 1.363 . S
C748 C754 1.428 . S
H749 C745 0.930 1_565 S
H750 C747 0.929 . S
S751 N752 1.613 1_545 S
S751 N753 1.610 . S
N752 S751 1.613 1_565 S
N752 C755 1.350 1_565 S
N753 S751 1.610 . S
N753 C754 1.351 . S
C754 C748 1.428 . S
C754 N753 1.351 . S
C754 C755 1.434 . S
C755 C746 1.429 1_545 S
C755 N752 1.350 1_545 S
C755 C754 1.434 . S
C756 C757 1.369 . S
C756 C758 1.419 . S
C756 H760 0.930 . S
C757 C756 1.369 . S
C757 C766 1.429 . S
C758 C756 1.419 . S
C758 C759 1.363 . S
C758 H761 0.929 . S
C759 C758 1.363 . S
C759 C765 1.428 . S
H760 C756 0.930 . S
H761 C758 0.929 . S
S762 N763 1.613 . S
S762 N764 1.610 . S
N763 S762 1.613 . S
N763 C766 1.350 . S
N764 S762 1.610 . S
N764 C765 1.351 . S
C765 C759 1.428 . S
C765 N764 1.351 . S
C765 C766 1.434 . S
C766 C757 1.429 . S
C766 N763 1.350 . S
C766 C765 1.434 . S
C767 C768 1.369 . S
C767 C769 1.419 . S
C767 H771 0.930 . S
C768 C767 1.369 . S
C768 C777 1.429 . S
C769 C767 1.419 . S
C769 C770 1.363 . S
C769 H772 0.929 . S
C770 C769 1.363 . S
C770 C776 1.428 . S
H771 C767 0.930 . S
H772 C769 0.929 . S
S773 N774 1.613 . S
S773 N775 1.610 . S
N774 S773 1.613 . S
N774 C777 1.350 . S
N775 S773 1.610 . S
N775 C776 1.351 . S
C776 C770 1.428 . S
C776 N775 1.351 . S
C776 C777 1.434 . S
C777 C768 1.429 . S
C777 N774 1.350 . S
C777 C776 1.434 . S
C778 C779 1.369 . S
C778 C780 1.419 . S
C778 H782 0.930 . S
C779 C778 1.369 . S
C779 C788 1.429 . S
C780 C778 1.419 . S
C780 C781 1.363 . S
C780 H783 0.929 . S
C781 C780 1.363 . S
C781 C787 1.428 . S
H782 C778 0.930 . S
H783 C780 0.929 . S
S784 N785 1.613 . S
S784 N786 1.610 . S
N785 S784 1.613 . S
N785 C788 1.350 . S
N786 S784 1.610 . S
N786 C787 1.351 . S
C787 C781 1.428 . S
C787 N786 1.351 . S
C787 C788 1.434 . S
C788 C779 1.429 . S
C788 N785 1.350 . S
C788 C787 1.434 . S
C789 C790 1.369 . S
C789 C791 1.419 . S
C789 H793 0.930 . S
C790 C789 1.369 . S
C790 C799 1.429 . S
C791 C789 1.419 . S
C791 C792 1.363 . S
C791 H794 0.929 . S
C792 C791 1.363 . S
C792 C798 1.428 . S
H793 C789 0.930 . S
H794 C791 0.929 . S
S795 N796 1.613 . S
S795 N797 1.610 . S
N796 S795 1.613 . S
N796 C799 1.350 . S
N797 S795 1.610 . S
N797 C798 1.351 . S
C798 C792 1.428 . S
C798 N797 1.351 . S
C798 C799 1.434 . S
C799 C790 1.429 . S
C799 N796 1.350 . S
C799 C798 1.434 . S
C800 C801 1.369 . S
C800 C802 1.419 . S
C800 H804 0.930 . S
C801 C800 1.369 . S
C801 C810 1.429 . S
C802 C800 1.419 . S
C802 C803 1.363 . S
C802 H805 0.929 . S
C803 C802 1.363 . S
C803 C809 1.428 . S
H804 C800 0.930 . S
H805 C802 0.929 . S
S806 N807 1.613 . S
S806 N808 1.610 . S
N807 S806 1.613 . S
N807 C810 1.350 . S
N808 S806 1.610 . S
N808 C809 1.351 . S
C809 C803 1.428 . S
C809 N808 1.351 . S
C809 C810 1.434 . S
C810 C801 1.429 . S
C810 N807 1.350 . S
C810 C809 1.434 . S
C811 C812 1.369 . S
C811 C813 1.419 . S
C811 H815 0.930 . S
C812 C811 1.369 . S
C812 C821 1.429 . S
C813 C811 1.419 . S
C813 C814 1.363 . S
C813 H816 0.929 . S
C814 C813 1.363 . S
C814 C820 1.428 . S
H815 C811 0.930 . S
H816 C813 0.929 . S
S817 N818 1.613 . S
S817 N819 1.610 . S
N818 S817 1.613 . S
N818 C821 1.350 . S
N819 S817 1.610 . S
N819 C820 1.351 . S
C820 C814 1.428 . S
C820 N819 1.351 . S
C820 C821 1.434 . S
C821 C812 1.429 . S
C821 N818 1.350 . S
C821 C820 1.434 . S
C822 C823 1.369 . S
C822 C824 1.419 . S
C822 H826 0.930 . S
C823 C822 1.369 . S
C823 C832 1.429 . S
C824 C822 1.419 . S
C824 C825 1.363 . S
C824 H827 0.929 . S
C825 C824 1.363 . S
C825 C831 1.428 . S
H826 C822 0.930 . S
H827 C824 0.929 . S
S828 N829 1.613 . S
S828 N830 1.610 . S
N829 S828 1.613 . S
N829 C832 1.350 . S
N830 S828 1.610 . S
N830 C831 1.351 . S
C831 C825 1.428 . S
C831 N830 1.351 . S
C831 C832 1.434 . S
C832 C823 1.429 . S
C832 N829 1.350 . S
C832 C831 1.434 . S
C833 C834 1.369 . S
C833 C835 1.419 . S
C833 H837 0.930 . S
C834 C833 1.369 . S
C834 C843 1.429 . S
C835 C833 1.419 . S
C835 C836 1.363 . S
C835 H838 0.929 . S
C836 C835 1.363 . S
C836 C842 1.428 . S
H837 C833 0.930 . S
H838 C835 0.929 . S
S839 N840 1.613 . S
S839 N841 1.610 . S
N840 S839 1.613 . S
N840 C843 1.350 . S
N841 S839 1.610 . S
N841 C842 1.351 . S
C842 C836 1.428 . S
C842 N841 1.351 . S
C842 C843 1.434 . S
C843 C834 1.429 . S
C843 N840 1.350 . S
C843 C842 1.434 . S
C844 C845 1.369 . S
C844 C846 1.419 . S
C844 H848 0.930 . S
C845 C844 1.369 . S
C845 C854 1.429 . S
C846 C844 1.419 . S
C846 C847 1.363 . S
C846 H849 0.929 . S
C847 C846 1.363 . S
C847 C853 1.428 . S
H848 C844 0.930 . S
H849 C846 0.929 . S
S850 N851 1.613 . S
S850 N852 1.610 . S
N851 S850 1.613 . S
N851 C854 1.350 . S
N852 S850 1.610 . S
N852 C853 1.351 . S
C853 C847 1.428 . S
C853 N852 1.351 . S
C853 C854 1.434 . S
C854 C845 1.429 . S
C854 N851 1.350 . S
C854 C853 1.434 . S
C855 C856 1.369 . S
C855 C857 1.419 1_655 S
C855 H859 0.930 . S
C856 C855 1.369 . S
C856 C865 1.429 . S
C857 C855 1.419 1_455 S
C857 C858 1.363 . S
C857 H860 0.929 . S
C858 C857 1.363 . S
C858 C864 1.428 . S
H859 C855 0.930 . S
H860 C857 0.929 . S
S861 N862 1.613 . S
S861 N863 1.610 1_655 S
N862 S861 1.613 . S
N862 C865 1.350 . S
N863 S861 1.610 1_455 S
N863 C864 1.351 . S
C864 C858 1.428 . S
C864 N863 1.351 . S
C864 C865 1.434 1_455 S
C865 C856 1.429 . S
C865 N862 1.350 . S
C865 C864 1.434 1_655 S
C866 C867 1.369 . S
C866 C868 1.419 . S
C866 H870 0.930 . S
C867 C866 1.369 . S
C867 C876 1.429 . S
C868 C866 1.419 . S
C868 C869 1.363 . S
C868 H871 0.929 . S
C869 C868 1.363 . S
C869 C875 1.428 . S
H870 C866 0.930 . S
H871 C868 0.929 . S
S872 N873 1.613 . S
S872 N874 1.610 . S
N873 S872 1.613 . S
N873 C876 1.350 . S
N874 S872 1.610 . S
N874 C875 1.351 . S
C875 C869 1.428 . S
C875 N874 1.351 . S
C875 C876 1.434 . S
C876 C867 1.429 . S
C876 N873 1.350 . S
C876 C875 1.434 . S
C877 C878 1.369 . S
C877 C879 1.419 . S
C877 H881 0.930 . S
C878 C877 1.369 . S
C878 C887 1.429 . S
C879 C877 1.419 . S
C879 C880 1.363 . S
C879 H882 0.929 1_655 S
C880 C879 1.363 . S
C880 C886 1.428 . S
H881 C877 0.930 . S
H882 C879 0.929 1_455 S
S883 N884 1.613 . S
S883 N885 1.610 . S
N884 S883 1.613 . S
N884 C887 1.350 . S
N885 S883 1.610 . S
N885 C886 1.351 . S
C886 C880 1.428 . S
C886 N885 1.351 . S
C886 C887 1.434 . S
C887 C878 1.429 . S
C887 N884 1.350 . S
C887 C886 1.434 . S
C888 C889 1.369 . S
C888 C890 1.419 1_565 S
C888 H892 0.930 . S
C889 C888 1.369 . S
C889 C898 1.429 . S
C890 C888 1.419 1_545 S
C890 C891 1.363 . S
C890 H893 0.929 . S
C891 C890 1.363 . S
C891 C897 1.428 1_545 S
H892 C888 0.930 . S
H893 C890 0.929 . S
S894 N895 1.613 . S
S894 N896 1.610 . S
N895 S894 1.613 . S
N895 C898 1.350 . S
N896 S894 1.610 . S
N896 C897 1.351 . S
C897 C891 1.428 1_565 S
C897 N896 1.351 . S
C897 C898 1.434 . S
C898 C889 1.429 . S
C898 N895 1.350 . S
C898 C897 1.434 . S
C899 C900 1.369 . S
C899 C901 1.419 . S
C899 H903 0.930 . S
C900 C899 1.369 . S
C900 C909 1.429 . S
C901 C899 1.419 . S
C901 C902 1.363 . S
C901 H904 0.929 . S
C902 C901 1.363 . S
C902 C908 1.428 . S
H903 C899 0.930 . S
H904 C901 0.929 . S
S905 N906 1.613 . S
S905 N907 1.610 . S
N906 S905 1.613 . S
N906 C909 1.350 . S
N907 S905 1.610 . S
N907 C908 1.351 . S
C908 C902 1.428 . S
C908 N907 1.351 . S
C908 C909 1.434 . S
C909 C900 1.429 . S
C909 N906 1.350 . S
C909 C908 1.434 . S
C910 C911 1.369 . S
C910 C912 1.419 . S
C910 H914 0.930 . S
C911 C910 1.369 . S
C911 C920 1.429 . S
C912 C910 1.419 . S
C912 C913 1.363 . S
C912 H915 0.929 . S
C913 C912 1.363 . S
C913 C919 1.428 . S
H914 C910 0.930 . S
H915 C912 0.929 . S
S916 N917 1.613 . S
S916 N918 1.610 . S
N917 S916 1.613 . S
N917 C920 1.350 . S
N918 S916 1.610 . S
N918 C919 1.351 . S
C919 C913 1.428 . S
C919 N918 1.351 . S
C919 C920 1.434 . S
C920 C911 1.429 . S
C920 N917 1.350 . S
C920 C919 1.434 . S
C921 C922 1.369 . S
C921 C923 1.419 . S
C921 H925 0.930 . S
C922 C921 1.369 . S
C922 C931 1.429 . S
C923 C921 1.419 . S
C923 C924 1.363 . S
C923 H926 0.929 . S
C924 C923 1.363 . S
C924 C930 1.428 . S
H925 C921 0.930 . S
H926 C923 0.929 . S
S927 N928 1.613 . S
S927 N929 1.610 . S
N928 S927 1.613 . S
N928 C931 1.350 . S
N929 S927 1.610 . S
N929 C930 1.351 . S
C930 C924 1.428 . S
C930 N929 1.351 . S
C930 C931 1.434 . S
C931 C922 1.429 . S
C931 N928 1.350 . S
C931 C930 1.434 . S
C932 C933 1.369 . S
C932 C934 1.419 . S
C932 H936 0.930 . S
C933 C932 1.369 . S
C933 C942 1.429 . S
C934 C932 1.419 . S
C934 C935 1.363 . S
C934 H937 0.929 . S
C935 C934 1.363 . S
C935 C941 1.428 . S
H936 C932 0.930 . S
H937 C934 0.929 . S
S938 N939 1.613 . S
S938 N940 1.610 . S
N939 S938 1.613 . S
N939 C942 1.350 . S
N940 S938 1.610 . S
N940 C941 1.351 . S
C941 C935 1.428 . S
C941 N940 1.351 . S
C941 C942 1.434 . S
C942 C933 1.429 . S
C942 N939 1.350 . S
C942 C941 1.434 . S
C943 C944 1.369 . S
C943 C945 1.419 . S
C943 H947 0.930 . S
C944 C943 1.369 . S
C944 C953 1.429 . S
C945 C943 1.419 . S
C945 C946 1.363 . S
C945 H948 0.929 . S
C946 C945 1.363 . S
C946 C952 1.428 . S
H947 C943 0.930 . S
H948 C945 0.929 . S
S949 N950 1.613 . S
S949 N951 1.610 . S
N950 S949 1.613 . S
N950 C953 1.350 . S
N951 S949 1.610 . S
N951 C952 1.351 . S
C952 C946 1.428 . S
C952 N951 1.351 . S
C952 C953 1.434 . S
C953 C944 1.429 . S
C953 N950 1.350 . S
C953 C952 1.434 . S
C361 C8 1.432 . S
C363 C45 1.807 . S
C372 C5 1.803 . S
C374 C28 1.446 . S
C383 C25 1.809 . S
C385 C48 1.439 . S
C394 C68 1.443 . S
C396 C85 1.807 . S
C405 C105 1.808 . S
C407 C88 1.444 . S
C416 C108 1.432 . S
C418 C65 1.807 . S
C427 C165 1.808 . S
C429 C128 1.441 . S
C438 C125 1.807 1_655 S
C440 C148 1.434 1_545 S
C449 C168 1.439 . S
C451 C145 1.804 . S
C460 C205 1.804 . S
C462 C188 1.448 . S
C471 C208 1.439 . S
C473 C225 1.808 . S
C482 C185 1.806 . S
C484 C228 1.435 . S
C493 C248 1.444 . S
C495 C285 1.807 . S
C504 C245 1.808 . S
C506 C268 1.434 . S
C515 C265 1.808 . S
C517 C288 1.443 . S
C526 C325 1.805 . S
C528 C308 1.447 . S
C537 C345 1.808 . S
C539 C328 1.435 . S
C548 C305 1.805 1_565 S
C550 C348 1.436 1_455 S
C559 C2 1.777 . S
C561 C102 1.781 . S
C570 C62 1.785 . S
C572 C22 1.777 . S
C581 C82 1.783 . S
C583 C42 1.777 . S
C592 C122 1.782 . S
C594 C222 1.777 . S
C603 C142 1.782 . S
C605 C182 1.778 . S
C614 C202 1.786 . S
C616 C162 1.781 . S
C625 C242 1.779 . S
C627 C342 1.785 . S
C636 C302 1.786 . S
C638 C262 1.780 . S
C647 C322 1.782 . S
C649 C282 1.777 . S
C658 C213 1.830 . S
C660 C13 1.838 . S
C669 C33 1.833 . S
C671 C233 1.839 . S
C680 C193 1.838 . S
C682 C53 1.831 . S
C691 C73 1.837 . S
C693 C293 1.837 . S
C702 C93 1.830 . S
C704 C253 1.837 . S
C713 C273 1.836 . S
C715 C113 1.837 . S
C724 C333 1.838 . S
C726 C133 1.837 . S
C735 C153 1.832 . S
C737 C353 1.834 . S
C746 C173 1.835 . S
C748 C313 1.832 . S
C757 C57 2.073 . S
C759 C14 2.207 . S
C768 C17 2.065 . S
C770 C34 2.206 . S
C779 C54 2.209 . S
C781 C37 2.073 . S
C790 C97 2.074 . S
C792 C74 2.208 . S
C801 C117 2.070 . S
C803 C94 2.209 . S
C812 C114 2.209 . S
C814 C77 2.070 . S
C823 C177 2.066 . S
C825 C134 2.206 . S
C834 C154 2.209 . S
C836 C137 2.070 . S
C845 C157 2.067 . S
C847 C174 2.206 . S
C856 C194 2.206 . S
C858 C217 2.066 . S
C867 C214 2.208 . S
C869 C237 2.073 . S
C878 C197 2.066 1_545 S
C880 C234 2.206 1_655 S
C889 C254 2.206 . S
C891 C297 2.071 . S
C900 C274 2.206 1_565 S
C902 C257 2.066 1_455 S
C911 C277 2.074 . S
C913 C294 2.208 . S
C922 C314 2.208 . S
C924 C337 2.073 . S
C933 C334 2.209 . S
C935 C357 2.073 . S
C944 C317 2.065 . S
C946 C354 2.207 . S
