# Generated by pormake.
# Topology oof, (8)-cn, num edge types: 1
# Building blocks:
#     Node 0, Type 0, BuildingBlock: LIZSOE_clean_sbu_0, # of connection points: 8
#     Node 1, Type 0, BuildingBlock: LIZSOE_clean_sbu_0, # of connection points: 8
#     Node 2, Type 0, BuildingBlock: LIZSOE_clean_sbu_0, # of connection points: 8
#     Node 3, Type 0, BuildingBlock: LIZSOE_clean_sbu_0, # of connection points: 8
#     Edge 4, Type (0, 0), BuildingBlock: ZUJKAS_clean_linker_0, # of connection points: 2
#     Edge 5, Type (0, 0), BuildingBlock: ZUJKAS_clean_linker_0, # of connection points: 2
#     Edge 6, Type (0, 0), BuildingBlock: ZUJKAS_clean_linker_0, # of connection points: 2
#     Edge 7, Type (0, 0), BuildingBlock: ZUJKAS_clean_linker_0, # of connection points: 2
#     Edge 8, Type (0, 0), BuildingBlock: ZUJKAS_clean_linker_0, # of connection points: 2
#     Edge 9, Type (0, 0), BuildingBlock: ZUJKAS_clean_linker_0, # of connection points: 2
#     Edge 10, Type (0, 0), BuildingBlock: ZUJKAS_clean_linker_0, # of connection points: 2
#     Edge 11, Type (0, 0), BuildingBlock: ZUJKAS_clean_linker_0, # of connection points: 2
#     Edge 12, Type (0, 0), BuildingBlock: ZUJKAS_clean_linker_0, # of connection points: 2
#     Edge 13, Type (0, 0), BuildingBlock: ZUJKAS_clean_linker_0, # of connection points: 2
#     Edge 14, Type (0, 0), BuildingBlock: ZUJKAS_clean_linker_0, # of connection points: 2
#     Edge 15, Type (0, 0), BuildingBlock: ZUJKAS_clean_linker_0, # of connection points: 2
#     Edge 16, Type (0, 0), BuildingBlock: ZUJKAS_clean_linker_0, # of connection points: 2
#     Edge 17, Type (0, 0), BuildingBlock: ZUJKAS_clean_linker_0, # of connection points: 2
#     Edge 18, Type (0, 0), BuildingBlock: ZUJKAS_clean_linker_0, # of connection points: 2
#     Edge 19, Type (0, 0), BuildingBlock: ZUJKAS_clean_linker_0, # of connection points: 2
# Relax obj value: 0.078
# Max RMSD: 0.204
# Mean RMSD: 0.201
data_MOF--net-oof--node1-LIZSOE_clean_sbu_0--edge1-ZUJKAS_clean_linker_0
_symmetry_space_group_name_H-M    P1
_symmetry_Int_Tables_number       1
_symmetry_cell_setting            triclinic
loop_
_symmetry_equiv_pos_as_xyz
'x, y, z'
_cell_length_a     19.86579
_cell_length_b     56.048524
_cell_length_c     28.020976
_cell_angle_alpha  89.51955
_cell_angle_beta   114.73404
_cell_angle_gamma 89.245579
loop_
_atom_site_label
_atom_site_type_symbol
_atom_site_fract_x
_atom_site_fract_y
_atom_site_fract_z
_atom_type_partial_charge
Co0 Co 0.01537 0.15329 0.16332 0.0
N1 N 0.06212 0.1479 0.12014 0.0
C2 C 0.12549 0.13569 0.12926 0.0
N3 N 0.08077 0.14816 0.04684 0.0
C4 C 0.03587 0.15518 0.06961 0.0
C5 C 0.13739 0.13604 0.08436 0.0
Co6 Co 0.96105 0.1352 0.37555 0.0
N7 N 0.93982 0.1447 0.43083 0.0
N8 N 0.94317 0.15467 0.50905 0.0
C9 C 0.87242 0.15054 0.47618 0.0
C10 C 0.87061 0.14425 0.4285 0.0
C11 C 0.98328 0.15115 0.48072 0.0
Co12 Co 0.98106 0.1429 0.26646 0.0
C13 C 0.03098 0.11207 0.36956 0.0
H14 H 0.82194 0.13879 0.39478 0.0
O15 O 0.96977 0.16103 0.20127 0.0
O16 O 0.0108 0.17394 0.30492 0.0
O17 O 0.09024 0.13575 0.29048 0.0
O18 O 0.95637 0.11215 0.22536 0.0
O19 O 0.9934 0.121 0.16163 0.0
O20 O 0.00581 0.16415 0.37946 0.0
O21 O 0.98367 0.12385 0.32821 0.0
O22 O 0.87072 0.14815 0.32686 0.0
O23 O 0.1054 0.14805 0.22045 0.0
O24 O 0.03229 0.18435 0.16935 0.0
O25 O 0.87215 0.14985 0.24686 0.0
O26 O 0.05026 0.12202 0.4151 0.0
C27 C 0.13153 0.14056 0.2673 0.0
C28 C 0.06602 0.15371 0.50242 0.0
H29 H 0.08375 0.16054 0.47249 0.0
H30 H 0.08604 0.16601 0.53616 0.0
H31 H 0.09301 0.13596 0.51603 0.0
C32 C 0.0222 0.17873 0.35184 0.0
C33 C 0.96916 0.10641 0.18551 0.0
H34 H 0.16029 0.12672 0.16572 0.0
H35 H 0.91909 0.15733 0.02226 0.0
H36 H 0.96968 0.18229 1.01391 0.0
H37 H 0.9518 0.17941 0.07205 0.0
C38 C 0.96539 0.16956 0.04302 0.0
C39 C 0.98661 0.18255 0.19161 0.0
C40 C 0.83911 0.15237 0.27752 0.0
H41 H 0.18296 0.12746 0.07913 0.0
H42 H 0.82594 0.15074 0.48684 0.0
Co43 Co 0.9635 0.90289 0.65013 0.0
N44 N 0.97179 0.89431 0.58813 0.0
C45 C 0.93066 0.87746 0.55491 0.0
N46 N 0.98847 0.89601 0.51384 0.0
C47 C 0.00667 0.90537 0.56188 0.0
C48 C 0.94068 0.87851 0.50937 0.0
Co49 Co 0.00263 0.87921 0.8884 0.0
N50 N 0.9859 0.88402 0.94841 0.0
N51 N 0.98778 0.89435 0.02637 0.0
C52 C 0.92986 0.88006 1.002 0.0
C53 C 0.92936 0.87358 0.95481 0.0
C54 C 0.0215 0.89643 0.99332 0.0
Co55 Co 0.98569 0.89311 0.7694 0.0
C56 C 0.09201 0.87126 0.87536 0.0
H57 H 0.89052 0.86162 0.92714 0.0
O58 O 0.94857 0.91343 0.70361 0.0
O59 O 0.01417 0.92412 0.8078 0.0
O60 O 0.08605 0.89104 0.76699 0.0
O61 O 0.95235 0.86215 0.7332 0.0
O62 O 0.97558 0.86981 0.66543 0.0
O63 O 0.00442 0.91236 0.88044 0.0
O64 O 0.02591 0.87315 0.83622 0.0
O65 O 0.90153 0.87974 0.84703 0.0
O66 O 0.06566 0.90582 0.68653 0.0
O67 O 0.86517 0.89867 0.62385 0.0
O68 O 0.88476 0.89577 0.76936 0.0
O69 O 0.09978 0.87837 0.92146 0.0
C70 C 0.10898 0.89908 0.73324 0.0
C71 C 0.09061 0.91041 1.00557 0.0
H72 H 0.0964 0.91612 0.96982 0.0
H73 H 0.09122 0.92635 0.02897 0.0
H74 H 0.13955 0.89894 0.02889 0.0
C75 C 0.01199 0.92863 0.85165 0.0
C76 C 0.95942 0.85517 0.69293 0.0
H77 H 0.8924 0.86601 0.56211 0.0
H78 H 0.0404 0.94023 0.54875 0.0
H79 H 0.11254 0.92167 0.59535 0.0
H80 H 0.04456 0.93541 0.61384 0.0
C81 C 0.05331 0.92702 0.58125 0.0
C82 C 0.90644 0.91566 0.65224 0.0
C83 C 0.85973 0.88757 0.80137 0.0
H84 H 0.9128 0.86788 0.47472 0.0
H85 H 0.89172 0.87416 1.01799 0.0
Co86 Co 0.50809 0.65045 0.15453 0.0
N87 N 0.55101 0.64369 0.10927 0.0
C88 C 0.60344 0.62702 0.11468 0.0
N89 N 0.57115 0.64371 0.0364 0.0
C90 C 0.53187 0.65344 0.06113 0.0
C91 C 0.61596 0.62704 0.07001 0.0
Co92 Co 0.45324 0.63531 0.36955 0.0
N93 N 0.42553 0.64536 0.42193 0.0
N94 N 0.42115 0.65496 0.49818 0.0
C95 C 0.3529 0.64875 0.46419 0.0
C96 C 0.35565 0.64297 0.41757 0.0
C97 C 0.46458 0.65275 0.4719 0.0
Co98 Co 0.47905 0.64161 0.2611 0.0
C99 C 0.53496 0.61425 0.3684 0.0
H100 H 0.31015 0.6361 0.3835 0.0
O101 O 0.46726 0.65939 0.19511 0.0
O102 O 0.50767 0.67287 0.29887 0.0
O103 O 0.58839 0.63497 0.28447 0.0
O104 O 0.45511 0.61029 0.22165 0.0
O105 O 0.48066 0.61906 0.1526 0.0
O106 O 0.49612 0.66467 0.37229 0.0
O107 O 0.48337 0.62324 0.32476 0.0
O108 O 0.36397 0.6469 0.31825 0.0
O109 O 0.59869 0.64342 0.2103 0.0
O110 O 0.5307 0.68103 0.16078 0.0
O111 O 0.36957 0.64824 0.23987 0.0
O112 O 0.54094 0.6235 0.41242 0.0
C113 C 0.62705 0.63729 0.25819 0.0
C114 C 0.54744 0.65499 0.49736 0.0
H115 H 0.56896 0.66117 0.46891 0.0
H116 H 0.56507 0.66759 0.53045 0.0
H117 H 0.5728 0.63725 0.51319 0.0
C118 C 0.51496 0.67857 0.34462 0.0
C119 C 0.46046 0.60459 0.17895 0.0
H120 H 0.6293 0.61512 0.14819 0.0
H121 H 0.43122 0.67016 0.0569 0.0
H122 H 0.43799 0.668 0.99442 0.0
H123 H 0.49197 0.68943 0.04224 0.0
C124 C 0.46923 0.67118 0.03708 0.0
C125 C 0.48817 0.68036 0.18572 0.0
C126 C 0.33428 0.65075 0.26893 0.0
H127 H 0.65414 0.6154 0.06236 0.0
H128 H 0.30542 0.64721 0.47349 0.0
Co129 Co 0.47628 0.40584 0.64547 0.0
N130 N 0.47656 0.3965 0.58143 0.0
C131 C 0.42331 0.38294 0.54635 0.0
N132 N 0.49762 0.39238 0.50933 0.0
C133 C 0.52121 0.40207 0.55752 0.0
C134 C 0.43596 0.38047 0.50215 0.0
Co135 Co 0.52927 0.38614 0.8903 0.0
N136 N 0.50907 0.39179 0.94761 0.0
N137 N 0.52189 0.39324 0.0307 0.0
C138 C 0.45927 0.40521 1.0001 0.0
C139 C 0.45192 0.40456 0.94922 0.0
C140 C 0.55134 0.38534 0.99799 0.0
Co141 Co 0.50673 0.39625 0.76806 0.0
C142 C 0.54113 0.35686 0.85346 0.0
H143 H 0.40838 0.41333 0.91583 0.0
O144 O 0.47012 0.4163 0.70145 0.0
O145 O 0.53056 0.42822 0.80458 0.0
O146 O 0.60701 0.39463 0.76638 0.0
O147 O 0.47992 0.36403 0.73514 0.0
O148 O 0.46804 0.37361 0.6565 0.0
O149 O 0.5426 0.41829 0.88531 0.0
O150 O 0.55068 0.37828 0.83793 0.0
O151 O 0.42807 0.3895 0.84748 0.0
O152 O 0.58075 0.40292 0.681 0.0
O153 O 0.37692 0.40791 0.61989 0.0
O154 O 0.40464 0.39828 0.76498 0.0
O155 O 0.51693 0.35526 0.88994 0.0
C156 C 0.6266 0.3985 0.72864 0.0
C157 C 0.62225 0.37119 1.01483 0.0
H158 H 0.62645 0.36242 0.98083 0.0
H159 H 0.66966 0.38337 0.03252 0.0
H160 H 0.6262 0.35764 0.04504 0.0
C161 C 0.54235 0.43363 0.85182 0.0
C162 C 0.46793 0.35817 0.68893 0.0
H163 H 0.37732 0.37554 0.55227 0.0
H164 H 0.59559 0.42795 0.54934 0.0
H165 H 0.6367 0.40686 0.60257 0.0
H166 H 0.57886 0.43085 0.60759 0.0
C167 C 0.58653 0.41803 0.5805 0.0
C168 C 0.42828 0.42174 0.65129 0.0
C169 C 0.38285 0.39424 0.80082 0.0
H170 H 0.40227 0.37079 0.46718 0.0
H171 H 0.42242 0.41426 1.01389 0.0
H172 H 0.18336 0.1621 1.01395 0.0
H173 H 0.16732 0.16634 0.92249 0.0
H174 H 0.93884 0.14586 0.86874 0.0
H175 H 0.95617 0.14035 0.9597 0.0
H176 H 0.01006 0.12158 0.82143 0.0
H177 H 0.06038 0.2185 0.81457 0.0
H178 H 0.13398 0.20232 0.86616 0.0
H179 H 0.04432 0.20474 0.86727 0.0
C180 C 0.12979 0.15869 0.98235 0.0
C181 C 0.07037 0.15156 0.99348 0.0
C182 C 0.12044 0.16134 0.93039 0.0
C183 C 0.05138 0.157 0.88903 0.0
C184 C 0.99221 0.14968 0.90021 0.0
H185 H 0.88704 0.18544 0.55639 0.0
H186 H 0.91921 0.18732 0.65098 0.0
C187 C 0.0018 0.14682 0.95205 0.0
C188 C 0.04162 0.15841 0.83399 0.0
H189 H 0.05012 0.19597 0.74032 0.0
C190 C 0.01869 0.13785 0.80364 0.0
C191 C 0.05235 0.17975 0.81102 0.0
C192 C 0.07344 0.20266 0.84124 0.0
C193 C 0.00588 0.13801 0.75068 0.0
C194 C 0.01868 0.15914 0.72804 0.0
C195 C 0.04141 0.17976 0.75824 0.0
C196 C 0.00592 0.16021 0.67241 0.0
C197 C 0.97686 0.11574 0.71917 0.0
C198 C 0.04547 0.14485 0.65379 0.0
C199 C 0.0264 0.14353 0.60011 0.0
C200 C 0.96899 0.15806 0.56448 0.0
C201 C 0.93178 0.17423 0.58342 0.0
C202 C 0.95028 0.17536 0.63715 0.0
H203 H 0.95186 0.10352 0.73846 0.0
H204 H 0.93451 0.12022 0.67904 0.0
H205 H 0.02335 0.10597 0.71546 0.0
H206 H 0.08907 0.1332 0.68061 0.0
H207 H 0.0542 0.13037 0.58636 0.0
H208 H 0.12485 0.90042 0.51631 0.0
H209 H 0.15362 0.91052 0.44117 0.0
H210 H 0.92018 0.92067 0.34319 0.0
H211 H 0.89192 0.91044 0.41797 0.0
H212 H 0.09242 0.88202 0.34864 0.0
H213 H 0.01821 0.97762 0.30168 0.0
H214 H 0.04131 0.96471 0.36614 0.0
H215 H 0.95035 0.96112 0.31436 0.0
C216 C 0.08027 0.90541 0.47892 0.0
C217 C 0.00636 0.90467 0.47234 0.0
C218 C 0.09656 0.91118 0.43625 0.0
C219 C 0.03906 0.91671 0.38693 0.0
C220 C 0.96542 0.91697 0.38117 0.0
H221 H 0.89672 0.91522 0.06276 0.0
H222 H 0.92535 0.92465 0.15423 0.0
C223 C 0.94921 0.91091 0.42352 0.0
C224 C 0.05379 0.91849 0.33952 0.0
H225 H 0.01746 0.95335 0.23081 0.0
C226 C 0.07798 0.89777 0.32333 0.0
C227 C 0.03426 0.93905 0.30672 0.0
C228 C 0.01019 0.96198 0.32325 0.0
C229 C 0.0776 0.89637 0.2733 0.0
C230 C 0.05478 0.91663 0.23927 0.0
C231 C 0.03503 0.93787 0.2569 0.0
C232 C 0.0418 0.91501 0.1833 0.0
C233 C 0.09604 0.87264 0.25607 0.0
C234 C 0.09824 0.90739 0.16888 0.0
C235 C 0.08146 0.90149 0.11678 0.0
C236 C 0.00842 0.90385 0.07807 0.0
C237 C 0.95331 0.91318 0.092 0.0
C238 C 0.96979 0.91871 0.14411 0.0
H239 H 0.09697 0.85777 0.28283 0.0
H240 H 0.05522 0.86843 0.21574 0.0
H241 H 0.15176 0.87339 0.25597 0.0
H242 H 0.15448 0.90483 0.19834 0.0
H243 H 0.12471 0.89382 0.10756 0.0
H244 H 0.56246 0.61086 0.965 0.0
H245 H 0.54964 0.61813 0.87532 0.0
H246 H 0.55162 0.69406 0.89981 0.0
H247 H 0.56509 0.68673 0.98997 0.0
H248 H 0.43702 0.67977 0.80628 0.0
H249 H 0.70571 0.64096 0.82699 0.0
H250 H 0.65518 0.62092 0.84958 0.0
H251 H 0.68723 0.64861 0.88292 0.0
C252 C 0.56082 0.62906 0.95127 0.0
C253 C 0.56395 0.64824 0.98393 0.0
C254 C 0.55383 0.63321 0.90026 0.0
C255 C 0.55083 0.65663 0.88129 0.0
C256 C 0.5541 0.67587 0.91388 0.0
H257 H 0.47836 0.69397 0.55585 0.0
H258 H 0.51563 0.69792 0.65127 0.0
C259 C 0.5611 0.67169 0.96502 0.0
C260 C 0.54058 0.6608 0.82648 0.0
H261 H 0.61074 0.64512 0.73864 0.0
C262 C 0.47569 0.67265 0.79162 0.0
C263 C 0.59144 0.65161 0.80765 0.0
C264 C 0.66417 0.64003 0.84388 0.0
C265 C 0.45819 0.67426 0.73771 0.0
C266 C 0.50695 0.66382 0.71862 0.0
C267 C 0.57347 0.65299 0.7537 0.0
C268 C 0.48619 0.66185 0.66184 0.0
C269 C 0.38608 0.68598 0.70094 0.0
C270 C 0.4579 0.64031 0.63698 0.0
C271 C 0.43672 0.63814 0.58314 0.0
C272 C 0.44427 0.65738 0.55362 0.0
C273 C 0.4729 0.67894 0.57843 0.0
C274 C 0.49383 0.68118 0.63246 0.0
H275 H 0.35383 0.69311 0.72204 0.0
H276 H 0.39736 0.70085 0.67905 0.0
H277 H 0.35175 0.67287 0.67163 0.0
H278 H 0.45168 0.62526 0.65924 0.0
H279 H 0.41465 0.62142 0.56434 0.0
H280 H 0.44632 0.37598 0.08235 0.0
H281 H 0.48524 0.37534 0.17763 0.0
H282 H 0.69696 0.40381 0.20001 0.0
H283 H 0.65732 0.40465 0.10413 0.0
H284 H 0.61845 0.35382 0.26428 0.0
H285 H 0.59598 0.4532 0.26418 0.0
H286 H 0.55333 0.43664 0.20422 0.0
H287 H 0.65214 0.43931 0.23534 0.0
C288 C 0.50155 0.38168 0.10785 0.0
C289 C 0.54919 0.39014 0.08647 0.0
C290 C 0.52383 0.38125 0.162 0.0
C291 C 0.59384 0.38956 0.19558 0.0
C292 C 0.64277 0.39731 0.17453 0.0
H293 H 0.63872 0.38338 0.52339 0.0
H294 H 0.68606 0.38459 0.45496 0.0
C295 C 0.62047 0.39759 0.12008 0.0
C296 C 0.61127 0.39186 0.25187 0.0
H297 H 0.59857 0.43245 0.33784 0.0
C298 C 0.61661 0.371 0.28129 0.0
C299 C 0.60836 0.41437 0.27338 0.0
C300 C 0.60195 0.43725 0.24288 0.0
C301 C 0.61333 0.37197 0.33025 0.0
C302 C 0.60486 0.39439 0.34997 0.0
C303 C 0.60537 0.41534 0.32243 0.0
C304 C 0.58122 0.39614 0.39318 0.0
C305 C 0.61248 0.34898 0.35842 0.0
C306 C 0.50747 0.40276 0.38103 0.0
C307 C 0.48077 0.40206 0.41967 0.0
C308 C 0.52758 0.39498 0.47115 0.0
C309 C 0.60216 0.38914 0.4839 0.0
C310 C 0.62894 0.38971 0.445 0.0
H311 H 0.61496 0.333 0.33599 0.0
H312 H 0.66073 0.34824 0.39729 0.0
H313 H 0.56145 0.34825 0.36536 0.0
H314 H 0.46986 0.40771 0.34114 0.0
H315 H 0.42321 0.4067 0.40937 0.0
H316 H 0.72875 0.12499 0.2108 0.0
H317 H 0.60454 0.12305 0.20888 0.0
H318 H 0.64608 0.18693 0.301 0.0
H319 H 0.77091 0.18831 0.30435 0.0
H320 H 0.60984 0.15122 0.34813 0.0
H321 H 0.40533 0.15586 0.14006 0.0
H322 H 0.47628 0.13354 0.15189 0.0
H323 H 0.50044 0.16454 0.16046 0.0
C324 C 0.70968 0.13933 0.22802 0.0
C325 C 0.75875 0.15707 0.25684 0.0
C326 C 0.63878 0.13812 0.22735 0.0
C327 C 0.61563 0.15486 0.25483 0.0
C328 C 0.6625 0.17379 0.27958 0.0
H329 H 0.23365 0.17241 0.32466 0.0
H330 H 0.35935 0.17405 0.32901 0.0
C331 C 0.73343 0.17481 0.28078 0.0
C332 C 0.54777 0.15096 0.26393 0.0
H333 H 0.3612 0.142 0.20235 0.0
C334 C 0.5554 0.1494 0.31615 0.0
C335 C 0.47671 0.14835 0.22238 0.0
C336 C 0.4639 0.15089 0.16557 0.0
C337 C 0.49429 0.14518 0.32787 0.0
C338 C 0.42354 0.14246 0.28637 0.0
C339 C 0.41577 0.14388 0.23419 0.0
C340 C 0.35594 0.13913 0.29576 0.0
C341 C 0.5059 0.14333 0.38452 0.0
C342 C 0.31374 0.11852 0.27808 0.0
C343 C 0.2426 0.1174 0.27668 0.0
C344 C 0.2123 0.13697 0.2924 0.0
C345 C 0.25678 0.15678 0.31408 0.0
C346 C 0.32824 0.15783 0.3159 0.0
H347 H 0.56532 0.14059 0.41147 0.0
H348 H 0.48598 0.16009 0.39554 0.0
H349 H 0.47372 0.1284 0.39028 0.0
H350 H 0.33387 0.10395 0.26213 0.0
H351 H 0.20844 0.10229 0.25819 0.0
H352 H 0.78654 0.85796 0.83896 0.0
H353 H 0.65726 0.86076 0.82491 0.0
H354 H 0.62199 0.92018 0.71772 0.0
H355 H 0.75256 0.91746 0.73161 0.0
H356 H 0.59516 0.90254 0.84859 0.0
H357 H 0.44609 0.8749 0.64046 0.0
H358 H 0.54316 0.86807 0.67908 0.0
H359 H 0.51415 0.89768 0.65304 0.0
C360 C 0.75127 0.87155 0.8121 0.0
C361 C 0.77962 0.88773 0.78687 0.0
C362 C 0.67748 0.87305 0.80405 0.0
C363 C 0.63059 0.89066 0.77047 0.0
C364 C 0.65759 0.90631 0.74343 0.0
H365 H 0.17732 0.92943 0.69324 0.0
H366 H 0.30641 0.92814 0.70626 0.0
C367 C 0.73186 0.90476 0.75135 0.0
C368 C 0.5549 0.89338 0.76688 0.0
H369 H 0.37291 0.88776 0.68385 0.0
C370 C 0.54639 0.89934 0.81262 0.0
C371 C 0.49203 0.88909 0.71988 0.0
C372 C 0.49885 0.8819 0.6703 0.0
C373 C 0.47603 0.90132 0.81251 0.0
C374 C 0.41315 0.8969 0.7656 0.0
C375 C 0.42165 0.89106 0.71977 0.0
C376 C 0.33751 0.89884 0.76247 0.0
C377 C 0.46937 0.90849 0.86216 0.0
C378 C 0.31301 0.88303 0.79078 0.0
C379 C 0.23892 0.88371 0.78341 0.0
C380 C 0.1888 0.89998 0.74713 0.0
C381 C 0.21452 0.91636 0.72062 0.0
C382 C 0.28818 0.91574 0.72812 0.0
H383 H 0.52138 0.9163 0.89115 0.0
H384 H 0.42327 0.92164 0.85335 0.0
H385 H 0.45713 0.89249 0.88056 0.0
H386 H 0.35045 0.86968 0.81705 0.0
H387 H 0.22026 0.87087 0.80417 0.0
H388 H 0.70189 0.59995 0.24294 0.0
H389 H 0.82682 0.60198 0.24627 0.0
H390 H 0.85625 0.67012 0.32211 0.0
H391 H 0.73116 0.668 0.31878 0.0
H392 H 0.8562 0.63945 0.19093 0.0
H393 H 0.06053 0.63722 0.39972 0.0
H394 H 0.96769 0.62612 0.37875 0.0
H395 H 0.98371 0.65764 0.3851 0.0
C396 C 0.73676 0.61468 0.26302 0.0
C397 C 0.70778 0.63356 0.28173 0.0
C398 C 0.80766 0.61601 0.26419 0.0
C399 C 0.85094 0.63622 0.28434 0.0
C400 C 0.82445 0.65418 0.30715 0.0
H401 H 0.26339 0.68716 0.29166 0.0
H402 H 0.13814 0.68549 0.28743 0.0
C403 C 0.75328 0.65285 0.30584 0.0
C404 C 0.91846 0.63995 0.27499 0.0
H405 H 0.10459 0.64914 0.33666 0.0
C406 C 0.91068 0.64143 0.22279 0.0
C407 C 0.98923 0.64275 0.31649 0.0
C408 C 1.00127 0.64067 0.37321 0.0
C409 C 0.97154 0.64601 0.21098 0.0
C410 C 0.04245 0.64878 0.2525 0.0
C411 C 0.05016 0.64721 0.30472 0.0
C412 C 0.11014 0.6528 0.24336 0.0
C413 C 0.95893 0.64841 0.15418 0.0
C414 C 0.13464 0.63579 0.21721 0.0
C415 C 0.20586 0.6371 0.21849 0.0
C416 C 0.25375 0.65526 0.24649 0.0
C417 C 0.22684 0.67332 0.26872 0.0
C418 C 0.15569 0.67215 0.26704 0.0
H419 H 0.90009 0.65291 0.12837 0.0
H420 H 0.99455 0.66235 0.14893 0.0
H421 H 0.9729 0.63117 0.14104 0.0
H422 H 0.10126 0.62045 0.19951 0.0
H423 H 0.22614 0.62255 0.20259 0.0
H424 H 0.69307 0.42863 0.68698 0.0
H425 H 0.821 0.42718 0.69719 0.0
H426 H 0.86903 0.36924 0.80972 0.0
H427 H 0.73891 0.36995 0.79757 0.0
H428 H 0.95027 0.43312 0.78306 0.0
H429 H 0.93872 0.34219 0.7027 0.0
H430 H 0.85669 0.35866 0.69645 0.0
H431 H 0.91402 0.34378 0.75738 0.0
C432 C 0.73054 0.41529 0.71314 0.0
C433 C 0.70582 0.39885 0.74009 0.0
C434 C 0.80376 0.41467 0.71942 0.0
C435 C 0.85389 0.39773 0.75318 0.0
C436 C 0.83048 0.38203 0.78239 0.0
H437 H 0.3194 0.37655 0.86228 0.0
H438 H 0.18918 0.37783 0.846 0.0
C439 C 0.75666 0.38259 0.77589 0.0
C440 C 0.93047 0.39673 0.7573 0.0
H441 H 0.05615 0.36068 0.73768 0.0
C442 C 0.97331 0.41733 0.77289 0.0
C443 C 0.95983 0.37617 0.74334 0.0
C444 C 0.91481 0.354 0.72354 0.0
C445 C 0.04551 0.41773 0.77599 0.0
C446 C 0.07517 0.39706 0.76311 0.0
C447 C 0.03245 0.37652 0.74712 0.0
C448 C 0.15295 0.39583 0.77067 0.0
C449 C 0.09058 0.43999 0.79408 0.0
C450 C 0.17501 0.40542 0.73315 0.0
C451 C 0.24988 0.40471 0.74218 0.0
C452 C 0.30317 0.39457 0.78905 0.0
C453 C 0.28001 0.38474 0.82599 0.0
C454 C 0.20562 0.38532 0.81678 0.0
H455 H 0.05985 0.45446 0.8038 0.0
H456 H 0.14255 0.43581 0.82934 0.0
H457 H 0.10642 0.44658 0.76279 0.0
H458 H 0.13449 0.41358 0.69727 0.0
H459 H 0.26611 0.41238 0.71305 0.0
H460 H 0.37497 0.32889 0.71141 0.0
H461 H 0.30309 0.29624 0.65605 0.0
H462 H 0.42499 0.30247 0.56046 0.0
H463 H 0.49648 0.33475 0.61534 0.0
H464 H 0.21395 0.30459 0.54781 0.0
H465 H 0.41374 0.23016 0.57458 0.0
H466 H 0.43222 0.25386 0.62145 0.0
H467 H 0.44425 0.25857 0.56197 0.0
C468 C 0.38851 0.32254 0.68001 0.0
C469 C 0.44159 0.33426 0.66787 0.0
C470 C 0.3469 0.30408 0.64802 0.0
C471 C 0.35874 0.29683 0.60411 0.0
C472 C 0.4155 0.30741 0.59447 0.0
H473 H 0.12866 0.20408 0.33527 0.0
H474 H 0.20833 0.23488 0.39289 0.0
C475 C 0.45644 0.32588 0.62598 0.0
C476 C 0.30661 0.28048 0.56464 0.0
H477 H 0.29758 0.22833 0.49993 0.0
C478 C 0.2321 0.28779 0.53772 0.0
C479 C 0.33054 0.25881 0.55065 0.0
C480 C 0.40941 0.24973 0.57895 0.0
C481 C 0.18113 0.2742 0.49695 0.0
C482 C 0.2048 0.25239 0.48328 0.0
C483 C 0.27945 0.24512 0.51002 0.0
C484 C 0.15192 0.23599 0.44435 0.0
C485 C 0.10265 0.2836 0.46822 0.0
C486 C 0.09297 0.22676 0.45339 0.0
C487 C 0.04751 0.20945 0.42055 0.0
C488 C 0.06009 0.20072 0.37797 0.0
C489 C 0.11697 0.21069 0.36728 0.0
C490 C 0.16293 0.22809 0.40051 0.0
H491 H 0.09962 0.30332 0.47103 0.0
H492 H 0.07906 0.27878 0.42607 0.0
H493 H 0.06766 0.27574 0.48626 0.0
H494 H 0.08402 0.23215 0.48735 0.0
H495 H 0.00434 0.20207 0.43001 0.0
H496 H 0.69007 0.35688 0.88626 0.0
H497 H 0.76776 0.32482 0.94257 0.0
H498 H 0.58018 0.27828 0.88856 0.0
H499 H 0.50202 0.31065 0.83319 0.0
H500 H 0.63399 0.28437 0.9931 0.0
H501 H 0.86899 0.26219 0.94337 0.0
H502 H 0.85896 0.29367 0.95009 0.0
H503 H 0.78705 0.27803 0.89818 0.0
C504 C 0.66649 0.33934 0.88342 0.0
C505 C 0.58969 0.33637 0.85525 0.0
C506 C 0.71096 0.32099 0.91651 0.0
C507 C 0.67986 0.29909 0.92073 0.0
C508 C 0.60556 0.29503 0.88661 0.0
H509 H 0.8358 0.17955 0.14408 0.0
H510 H 0.75543 0.20932 0.08104 0.0
C511 C 0.5611 0.31342 0.85387 0.0
C512 C 0.72048 0.28222 0.96579 0.0
H513 H 0.8828 0.25064 0.02948 0.0
C514 C 0.68808 0.27679 1.00063 0.0
C515 C 0.79148 0.27248 0.97635 0.0
C516 C 0.82838 0.27669 0.93974 0.0
C517 C 0.72499 0.26236 0.04586 0.0
C518 C 0.79621 0.2528 0.05662 0.0
C519 C 0.82848 0.25811 0.02167 0.0
C520 C 0.83805 0.23682 0.10304 0.0
C521 C 0.68819 0.25798 0.08247 0.0
C522 C 0.90999 0.24268 0.13876 0.0
C523 C 0.9558 0.22572 0.17539 0.0
C524 C 0.93111 0.20239 0.17663 0.0
C525 C 0.85632 0.19744 0.14507 0.0
C526 C 0.81041 0.21444 0.1083 0.0
H527 H 0.64405 0.27154 0.07675 0.0
H528 H 0.66224 0.24019 0.0745 0.0
H529 H 0.72926 0.25815 0.12416 0.0
H530 H 0.93257 0.25985 0.13589 0.0
H531 H 0.01331 0.23002 0.19863 0.0
H532 H 0.4926 0.70397 0.41868 0.0
H533 H 0.57394 0.73359 0.47692 0.0
H534 H 0.70964 0.73137 0.39051 0.0
H535 H 0.62717 0.70173 0.33121 0.0
H536 H 0.72043 0.72428 0.54063 0.0
H537 H 0.69294 0.80285 0.41118 0.0
H538 H 0.62705 0.77899 0.39197 0.0
H539 H 0.71495 0.77515 0.38871 0.0
C540 C 0.53855 0.71028 0.41105 0.0
C541 C 0.55339 0.70055 0.37024 0.0
C542 C 0.58532 0.72712 0.44465 0.0
C543 C 0.64811 0.73472 0.43833 0.0
C544 C 0.66098 0.72605 0.39579 0.0
H545 H 0.99893 0.83058 0.62507 0.0
H546 H 0.92968 0.79877 0.56689 0.0
C547 C 0.61365 0.70919 0.36174 0.0
C548 C 0.70246 0.75013 0.47894 0.0
H549 H 0.78456 0.80452 0.49851 0.0
C550 C 0.73446 0.74184 0.5314 0.0
C551 C 0.7211 0.77298 0.46694 0.0
C552 C 0.68687 0.78319 0.41176 0.0
C553 C 0.78442 0.75572 0.57207 0.0
C554 C 0.80219 0.77872 0.56022 0.0
C555 C 0.77107 0.78687 0.50765 0.0
C556 C 0.8514 0.79498 0.60156 0.0
C557 C 0.8184 0.74549 0.62723 0.0
C558 C 0.83245 0.80282 0.64201 0.0
C559 C 0.87263 0.82092 0.67586 0.0
C560 C 0.9318 0.83169 0.66932 0.0
C561 C 0.95366 0.82263 0.63116 0.0
C562 C 0.91377 0.80455 0.59758 0.0
H563 H 0.81668 0.72568 0.62736 0.0
H564 H 0.87686 0.751 0.64856 0.0
H565 H 0.78659 0.75214 0.64901 0.0
H566 H 0.7839 0.79601 0.64544 0.0
H567 H 0.85366 0.82772 0.70427 0.0
H568 H 0.52986 0.72652 0.20286 0.0
H569 H 0.45853 0.75977 0.1466 0.0
H570 H 0.26678 0.71521 0.08148 0.0
H571 H 0.33748 0.68222 0.13869 0.0
H572 H 0.41086 0.75629 0.04195 0.0
H573 H 0.16924 0.77799 0.08487 0.0
H574 H 0.2481 0.76082 0.1299 0.0
H575 H 0.17749 0.74678 0.07423 0.0
C576 C 0.47118 0.7243 0.17898 0.0
C577 C 0.43932 0.70175 0.17562 0.0
C578 C 0.43071 0.7432 0.14596 0.0
C579 C 0.35727 0.74006 0.10906 0.0
C580 C 0.3229 0.71835 0.10984 0.0
H581 H 0.05157 0.82586 0.84412 0.0
H582 H 0.12096 0.7911 0.89528 0.0
C583 C 0.36332 0.69946 0.14325 0.0
C584 C 0.32077 0.75809 0.0657 0.0
H585 H 0.16512 0.79304 1.0039 0.0
C586 C 0.35729 0.76442 0.03394 0.0
C587 C 0.25041 0.76857 0.05445 0.0
C588 C 0.20929 0.76338 0.08794 0.0
C589 C 0.32557 0.78075 0.99155 0.0
C590 C 0.25546 0.7913 0.98051 0.0
C591 C 0.21855 0.7848 1.01186 0.0
C592 C 0.22128 0.81034 0.93929 0.0
C593 C 0.36705 0.78634 0.95851 0.0
C594 C 0.2562 0.83239 0.9439 0.0
C595 C 0.21678 0.85226 0.91406 0.0
C596 C 0.14137 0.85057 0.87952 0.0
C597 C 0.10978 0.82779 0.86974 0.0
C598 C 0.14906 0.80793 0.89989 0.0
H599 H 0.40765 0.77192 0.96158 0.0
H600 H 0.3284 0.78898 0.91654 0.0
H601 H 0.39814 0.80305 0.97255 0.0
H602 H 0.31155 0.83488 0.97413 0.0
H603 H 0.24234 0.86959 0.9231 0.0
H604 H 0.84723 0.08951 0.10596 0.0
H605 H 0.84825 0.05714 0.04798 0.0
H606 H 0.07285 0.03861 0.15488 0.0
H607 H 0.07101 0.07066 0.21306 0.0
H608 H 0.94147 0.05929 1.0008 0.0
H609 H 0.99003 0.97308 0.10911 0.0
H610 H 0.95803 0.99956 0.13022 0.0
H611 H 0.05485 0.99533 0.14542 0.0
C612 C 0.89499 0.07754 0.11855 0.0
C613 C 0.95817 0.08206 0.16477 0.0
C614 C 0.89608 0.05929 0.08501 0.0
C615 C 0.96054 0.04528 0.09697 0.0
C616 C 0.02183 0.04869 0.14516 0.0
H617 H 0.12803 0.95045 0.92716 0.0
H618 H 0.11629 0.98133 0.98483 0.0
C619 C 0.02059 0.06691 0.17874 0.0
C620 C 0.96763 0.02988 0.05607 0.0
H621 H 0.0155 0.97377 0.03282 0.0
C622 C 0.95681 0.04052 1.00765 0.0
C623 C 0.98844 1.00542 0.06503 0.0
C624 C 0.99782 0.9926 0.11506 0.0
C625 C 0.96752 0.02756 0.96853 0.0
C626 C 0.98919 1.00325 0.97776 0.0
C627 C 0.99958 0.99252 0.02596 0.0
C628 C 0.99962 0.98832 0.93759 0.0
C629 C 0.95728 0.04012 0.91806 0.0
C630 C 0.93884 0.98281 0.89057 0.0
C631 C 0.94575 0.96528 0.85742 0.0
C632 C 0.01354 0.95308 0.87068 0.0
C633 C 0.07567 0.96003 0.9154 0.0
C634 C 0.06871 0.9774 0.94875 0.0
H635 H 0.95725 0.05985 0.92174 0.0
H636 H 0.00173 0.03474 0.9059 0.0
H637 H 0.90337 0.03504 0.88645 0.0
H638 H 0.88475 0.99073 0.88148 0.0
H639 H 0.89645 0.95965 0.82422 0.0
H640 H 0.12253 0.07236 0.40533 0.0
H641 H 0.0952 0.03663 0.44494 0.0
H642 H 0.8722 0.0637 0.40042 0.0
H643 H 0.89646 0.0969 0.35512 0.0
H644 H 0.07576 0.03114 0.52251 0.0
H645 H 0.81167 0.99957 0.37571 0.0
H646 H 0.86347 1.02139 0.35845 0.0
H647 H 0.79739 0.03046 0.38424 0.0
C648 C 0.06634 0.06964 0.40087 0.0
C649 C 0.0111 0.08708 0.37524 0.0
C650 C 0.05093 0.04948 0.42477 0.0
C651 C 0.9808 0.04681 0.42569 0.0
C652 C 0.92547 0.06408 0.39865 0.0
H653 H 0.9687 0.96006 0.69046 0.0
H654 H 0.98136 0.99375 0.63838 0.0
C655 C 0.93962 0.08336 0.37244 0.0
C656 C 0.96736 0.02773 0.45897 0.0
H657 H 0.83179 0.99314 0.46639 0.0
C658 C 0.02296 0.0223 0.50941 0.0
C659 C 0.89917 1.01564 0.44283 0.0
C660 C 0.8402 1.01691 0.38709 0.0
C661 C 0.01249 1.00552 0.54352 0.0
C662 C 0.94173 0.99516 0.52919 0.0
C663 C 0.88615 1.00085 0.47882 0.0
C664 C 0.92507 0.97683 0.56267 0.0
C665 C 0.07899 0.99865 0.59339 0.0
C666 C 0.88164 0.95709 0.53835 0.0
C667 C 0.86868 0.93901 0.56778 0.0
C668 C 0.90256 0.93897 0.62316 0.0
C669 C 0.94243 0.95925 0.64799 0.0
C670 C 0.95158 0.97829 0.61797 0.0
H671 H 0.13162 1.00171 0.58947 0.0
H672 H 0.07973 1.00993 0.62594 0.0
H673 H 0.07814 0.97961 0.60407 0.0
H674 H 0.86001 0.95485 0.49625 0.0
H675 H 0.83701 0.92394 0.54657 0.0
H676 H 0.56061 0.56834 0.21196 0.0
H677 H 0.57156 0.53813 0.15272 0.0
H678 H 0.35334 0.55765 0.03691 0.0
H679 H 0.34261 0.58794 0.096 0.0
H680 H 0.40268 0.50481 0.04564 0.0
H681 H 0.59343 0.57086 0.02141 0.0
H682 H 0.60975 0.56252 0.08755 0.0
H683 H 0.52684 0.57887 0.04717 0.0
C684 C 0.5131 0.56508 0.17533 0.0
C685 C 0.45006 0.58011 0.15905 0.0
C686 C 0.51999 0.54815 0.14103 0.0
C687 C 0.46378 0.54597 0.09007 0.0
C688 C 0.39739 0.55906 0.07603 0.0
H689 H 0.43024 0.46637 0.81409 0.0
H690 H 0.40975 0.49718 0.86857 0.0
C691 C 0.39074 0.57609 0.11018 0.0
C692 C 0.47795 0.53267 0.04939 0.0
H693 H 0.577 0.535 0.9747 0.0
C694 C 0.44053 0.5114 0.02997 0.0
C695 C 0.52705 0.54146 0.02876 0.0
C696 C 0.56641 0.56475 0.04684 0.0
C697 C 0.45244 0.49833 0.9914 0.0
C698 C 0.50174 0.50709 0.97085 0.0
C699 C 0.53878 0.52845 0.9901 0.0
C700 C 0.5191 0.49329 0.93211 0.0
C701 C 0.41398 0.47485 0.97408 0.0
C702 C 0.58915 0.48233 0.94785 0.0
C703 C 0.60115 0.465 0.91647 0.0
C704 C 0.54356 0.45851 0.86856 0.0
C705 C 0.47623 0.47148 0.85008 0.0
C706 C 0.46398 0.48871 0.88175 0.0
H707 H 0.38918 0.46845 1.00068 0.0
H708 H 0.36893 0.47702 0.93399 0.0
H709 H 0.4534 0.46096 0.97256 0.0
H710 H 0.63258 0.48565 0.98642 0.0
H711 H 0.65288 0.45486 0.93224 0.0
H712 H 0.33237 0.44296 0.55869 0.0
H713 H 0.36002 0.47373 0.50822 0.0
H714 H 0.57244 0.48427 0.63729 0.0
H715 H 0.54446 0.45347 0.68896 0.0
H716 H 0.51295 0.52612 0.58685 0.0
H717 H 0.49608 0.45938 0.43867 0.0
H718 H 0.40807 0.46334 0.44135 0.0
H719 H 0.48562 0.45131 0.49751 0.0
C720 C 0.38444 0.45213 0.57717 0.0
C721 C 0.43662 0.44535 0.62795 0.0
C722 C 0.4006 0.46959 0.54772 0.0
C723 C 0.4697 0.48067 0.56779 0.0
C724 C 0.51919 0.47569 0.62035 0.0
H725 H 0.65768 0.58954 0.43519 0.0
H726 H 0.64963 0.5536 0.48255 0.0
C727 C 0.50278 0.45821 0.6502 0.0
C728 C 0.49026 0.49692 0.53335 0.0
H729 H 0.49978 0.50057 0.41401 0.0
C730 C 0.51095 0.5204 0.5494 0.0
C731 C 0.48754 0.48963 0.48408 0.0
C732 C 0.46885 0.46447 0.46469 0.0
C733 C 0.52625 0.53691 0.51713 0.0
C734 C 0.52273 0.52968 0.4677 0.0
C735 C 0.50301 0.50614 0.45188 0.0
C736 C 0.53523 0.54686 0.43108 0.0
C737 C 0.54312 0.5623 0.53539 0.0
C738 C 0.47658 0.5535 0.38302 0.0
C739 C 0.48181 0.57376 0.35496 0.0
C740 C 0.54549 0.58794 0.37494 0.0
C741 C 0.60797 0.57903 0.41853 0.0
C742 C 0.60277 0.55876 0.44647 0.0
H743 H 0.52743 0.56628 0.56822 0.0
H744 H 0.60348 0.56522 0.54944 0.0
H745 H 0.51342 0.57517 0.50266 0.0
H746 H 0.42423 0.5444 0.36972 0.0
H747 H 0.43233 0.58006 0.32185 0.0
loop_
_geom_bond_atom_site_label_1
_geom_bond_atom_site_label_2
_geom_bond_distance
_geom_bond_site_symmetry_2
_ccdc_geom_bond_type
Co0 N1 2.034 . S
Co0 O15 2.262 1_455 S
Co0 O19 1.958 1_455 S
Co0 O23 1.950 . S
Co0 O24 2.057 1_455 S
N1 Co0 2.034 . S
N1 C2 1.366 . S
N1 C4 1.332 . S
C2 N1 1.366 . S
C2 C5 1.377 1_554 S
C2 H34 0.931 1_455 S
N3 C4 1.346 . S
N3 C5 1.337 1_554 S
C4 N1 1.332 . S
C4 N3 1.346 . S
C4 C38 1.361 . S
C5 C2 1.377 1_556 S
C5 N3 1.337 1_556 S
C5 H41 0.930 . S
Co6 N7 2.034 . S
Co6 O20 1.950 1_655 S
Co6 O21 2.262 1_655 S
Co6 O22 1.958 . S
Co6 O26 2.057 1_655 S
N7 Co6 2.034 . S
N7 C10 1.366 . S
N7 C11 1.332 . S
N8 C9 1.337 . S
N8 C11 1.346 . S
C9 N8 1.337 . S
C9 C10 1.377 . S
C9 H42 0.930 . S
C10 N7 1.366 . S
C10 C9 1.377 . S
C10 H14 0.931 . S
C11 N7 1.332 . S
C11 N8 1.346 . S
C11 C28 1.361 1_655 S
Co12 O15 2.097 . S
Co12 O16 2.065 1_655 S
Co12 O17 2.065 1_655 S
Co12 O18 2.042 . S
Co12 O21 2.097 1_655 S
Co12 O25 2.042 . S
C13 O21 1.253 . S
C13 O26 1.263 . S
H14 C10 0.931 . S
O15 Co0 2.262 1_655 S
O15 Co12 2.097 . S
O15 C39 1.253 . S
O16 Co12 2.065 1_455 S
O16 C32 1.221 . S
O17 Co12 2.065 1_455 S
O17 C27 1.221 . S
O18 Co12 2.042 . S
O18 C33 1.237 . S
O19 Co0 1.958 1_655 S
O19 C33 1.278 . S
O20 Co6 1.950 1_455 S
O20 C32 1.277 . S
O21 Co6 2.262 1_455 S
O21 Co12 2.097 1_455 S
O21 C13 1.253 . S
O22 Co6 1.958 . S
O22 C40 1.278 . S
O23 Co0 1.950 . S
O23 C27 1.277 . S
O24 Co0 2.057 1_655 S
O24 C39 1.263 . S
O25 Co12 2.042 . S
O25 C40 1.237 . S
O26 Co6 2.057 1_455 S
O26 C13 1.263 . S
C27 O17 1.221 . S
C27 O23 1.277 . S
C28 C11 1.361 1_455 S
C28 H29 0.960 . S
C28 H30 0.961 . S
C28 H31 0.961 . S
H29 C28 0.960 . S
H30 C28 0.961 . S
H31 C28 0.961 . S
C32 O16 1.221 . S
C32 O20 1.277 . S
C33 O18 1.237 . S
C33 O19 1.278 . S
H34 C2 0.931 1_655 S
H35 C38 0.961 . S
H36 C38 0.961 . S
H37 C38 0.960 . S
C38 C4 1.361 . S
C38 H35 0.961 . S
C38 H36 0.961 . S
C38 H37 0.960 . S
C39 O15 1.253 . S
C39 O24 1.263 . S
C40 O22 1.278 . S
C40 O25 1.237 . S
H41 C5 0.930 . S
H42 C9 0.930 . S
Co43 N44 2.034 . S
Co43 O58 2.262 1_455 S
Co43 O62 1.958 1_455 S
Co43 O66 1.950 . S
Co43 O67 2.057 1_455 S
N44 Co43 2.034 . S
N44 C45 1.366 . S
N44 C47 1.332 . S
C45 N44 1.366 . S
C45 C48 1.377 . S
C45 H77 0.931 1_455 S
N46 C47 1.346 . S
N46 C48 1.337 . S
C47 N44 1.332 . S
C47 N46 1.346 . S
C47 C81 1.361 . S
C48 C45 1.377 . S
C48 N46 1.337 . S
C48 H84 0.930 . S
Co49 N50 2.034 . S
Co49 O63 1.950 1_655 S
Co49 O64 2.262 1_655 S
Co49 O65 1.958 . S
Co49 O69 2.057 1_655 S
N50 Co49 2.034 . S
N50 C53 1.366 . S
N50 C54 1.332 . S
N51 C52 1.337 . S
N51 C54 1.346 . S
C52 N51 1.337 . S
C52 C53 1.377 . S
C52 H85 0.930 . S
C53 N50 1.366 . S
C53 C52 1.377 . S
C53 H57 0.931 . S
C54 N50 1.332 . S
C54 N51 1.346 . S
C54 C71 1.361 1_655 S
Co55 O58 2.097 . S
Co55 O59 2.065 1_655 S
Co55 O60 2.065 1_655 S
Co55 O61 2.042 . S
Co55 O64 2.097 1_655 S
Co55 O68 2.042 . S
C56 O64 1.253 . S
C56 O69 1.263 . S
H57 C53 0.931 . S
O58 Co43 2.262 1_655 S
O58 Co55 2.097 . S
O58 C82 1.253 . S
O59 Co55 2.065 1_455 S
O59 C75 1.221 . S
O60 Co55 2.065 1_455 S
O60 C70 1.221 . S
O61 Co55 2.042 . S
O61 C76 1.237 . S
O62 Co43 1.958 1_655 S
O62 C76 1.278 . S
O63 Co49 1.950 1_455 S
O63 C75 1.277 . S
O64 Co49 2.262 1_455 S
O64 Co55 2.097 1_455 S
O64 C56 1.253 . S
O65 Co49 1.958 . S
O65 C83 1.278 . S
O66 Co43 1.950 . S
O66 C70 1.277 . S
O67 Co43 2.057 1_655 S
O67 C82 1.263 . S
O68 Co55 2.042 . S
O68 C83 1.237 . S
O69 Co49 2.057 1_455 S
O69 C56 1.263 . S
C70 O60 1.221 . S
C70 O66 1.277 . S
C71 C54 1.361 1_455 S
C71 H72 0.960 . S
C71 H73 0.961 1_556 S
C71 H74 0.961 1_556 S
H72 C71 0.960 . S
H73 C71 0.961 1_554 S
H74 C71 0.961 1_554 S
C75 O59 1.221 . S
C75 O63 1.277 . S
C76 O61 1.237 . S
C76 O62 1.278 . S
H77 C45 0.931 1_655 S
H78 C81 0.961 . S
H79 C81 0.961 . S
H80 C81 0.960 . S
C81 C47 1.361 . S
C81 H78 0.961 . S
C81 H79 0.961 . S
C81 H80 0.960 . S
C82 O58 1.253 . S
C82 O67 1.263 . S
C83 O65 1.278 . S
C83 O68 1.237 . S
H84 C48 0.930 . S
H85 C52 0.930 . S
Co86 N87 2.034 . S
Co86 O101 2.262 . S
Co86 O105 1.958 . S
Co86 O109 1.950 . S
Co86 O110 2.057 . S
N87 Co86 2.034 . S
N87 C88 1.366 . S
N87 C90 1.332 . S
C88 N87 1.366 . S
C88 C91 1.377 1_554 S
C88 H120 0.931 . S
N89 C90 1.346 . S
N89 C91 1.337 1_554 S
C90 N87 1.332 . S
C90 N89 1.346 . S
C90 C124 1.361 . S
C91 C88 1.377 1_556 S
C91 N89 1.337 1_556 S
C91 H127 0.930 . S
Co92 N93 2.034 . S
Co92 O106 1.950 . S
Co92 O107 2.262 . S
Co92 O108 1.958 . S
Co92 O112 2.057 . S
N93 Co92 2.034 . S
N93 C96 1.366 . S
N93 C97 1.332 . S
N94 C95 1.337 . S
N94 C97 1.346 . S
C95 N94 1.337 . S
C95 C96 1.377 . S
C95 H128 0.930 . S
C96 N93 1.366 . S
C96 C95 1.377 . S
C96 H100 0.931 . S
C97 N93 1.332 . S
C97 N94 1.346 . S
C97 C114 1.361 . S
Co98 O101 2.097 . S
Co98 O102 2.065 . S
Co98 O103 2.065 . S
Co98 O104 2.042 . S
Co98 O107 2.097 . S
Co98 O111 2.042 . S
C99 O107 1.253 . S
C99 O112 1.263 . S
H100 C96 0.931 . S
O101 Co86 2.262 . S
O101 Co98 2.097 . S
O101 C125 1.253 . S
O102 Co98 2.065 . S
O102 C118 1.221 . S
O103 Co98 2.065 . S
O103 C113 1.221 . S
O104 Co98 2.042 . S
O104 C119 1.237 . S
O105 Co86 1.958 . S
O105 C119 1.278 . S
O106 Co92 1.950 . S
O106 C118 1.277 . S
O107 Co92 2.262 . S
O107 Co98 2.097 . S
O107 C99 1.253 . S
O108 Co92 1.958 . S
O108 C126 1.278 . S
O109 Co86 1.950 . S
O109 C113 1.277 . S
O110 Co86 2.057 . S
O110 C125 1.263 . S
O111 Co98 2.042 . S
O111 C126 1.237 . S
O112 Co92 2.057 . S
O112 C99 1.263 . S
C113 O103 1.221 . S
C113 O109 1.277 . S
C114 C97 1.361 . S
C114 H115 0.960 . S
C114 H116 0.961 . S
C114 H117 0.961 . S
H115 C114 0.960 . S
H116 C114 0.961 . S
H117 C114 0.961 . S
C118 O102 1.221 . S
C118 O106 1.277 . S
C119 O104 1.237 . S
C119 O105 1.278 . S
H120 C88 0.931 . S
H121 C124 0.961 . S
H122 C124 0.961 . S
H123 C124 0.960 . S
C124 C90 1.361 . S
C124 H121 0.961 . S
C124 H122 0.961 . S
C124 H123 0.960 . S
C125 O101 1.253 . S
C125 O110 1.263 . S
C126 O108 1.278 . S
C126 O111 1.237 . S
H127 C91 0.930 . S
H128 C95 0.930 . S
Co129 N130 2.034 . S
Co129 O144 2.262 . S
Co129 O148 1.958 . S
Co129 O152 1.950 . S
Co129 O153 2.057 . S
N130 Co129 2.034 . S
N130 C131 1.366 . S
N130 C133 1.332 . S
C131 N130 1.366 . S
C131 C134 1.377 . S
C131 H163 0.931 . S
N132 C133 1.346 . S
N132 C134 1.337 . S
C133 N130 1.332 . S
C133 N132 1.346 . S
C133 C167 1.361 . S
C134 C131 1.377 . S
C134 N132 1.337 . S
C134 H170 0.930 . S
Co135 N136 2.034 . S
Co135 O149 1.950 . S
Co135 O150 2.262 . S
Co135 O151 1.958 . S
Co135 O155 2.057 . S
N136 Co135 2.034 . S
N136 C139 1.366 . S
N136 C140 1.332 . S
N137 C138 1.337 . S
N137 C140 1.346 . S
C138 N137 1.337 . S
C138 C139 1.377 . S
C138 H171 0.930 . S
C139 N136 1.366 . S
C139 C138 1.377 . S
C139 H143 0.931 . S
C140 N136 1.332 . S
C140 N137 1.346 . S
C140 C157 1.361 . S
Co141 O144 2.097 . S
Co141 O145 2.065 . S
Co141 O146 2.065 . S
Co141 O147 2.042 . S
Co141 O150 2.097 . S
Co141 O154 2.042 . S
C142 O150 1.253 . S
C142 O155 1.263 . S
H143 C139 0.931 . S
O144 Co129 2.262 . S
O144 Co141 2.097 . S
O144 C168 1.253 . S
O145 Co141 2.065 . S
O145 C161 1.221 . S
O146 Co141 2.065 . S
O146 C156 1.221 . S
O147 Co141 2.042 . S
O147 C162 1.237 . S
O148 Co129 1.958 . S
O148 C162 1.278 . S
O149 Co135 1.950 . S
O149 C161 1.277 . S
O150 Co135 2.262 . S
O150 Co141 2.097 . S
O150 C142 1.253 . S
O151 Co135 1.958 . S
O151 C169 1.278 . S
O152 Co129 1.950 . S
O152 C156 1.277 . S
O153 Co129 2.057 . S
O153 C168 1.263 . S
O154 Co141 2.042 . S
O154 C169 1.237 . S
O155 Co135 2.057 . S
O155 C142 1.263 . S
C156 O146 1.221 . S
C156 O152 1.277 . S
C157 C140 1.361 . S
C157 H158 0.960 . S
C157 H159 0.961 1_556 S
C157 H160 0.961 1_556 S
H158 C157 0.960 . S
H159 C157 0.961 1_554 S
H160 C157 0.961 1_554 S
C161 O145 1.221 . S
C161 O149 1.277 . S
C162 O147 1.237 . S
C162 O148 1.278 . S
H163 C131 0.931 . S
H164 C167 0.961 . S
H165 C167 0.961 . S
H166 C167 0.960 . S
C167 C133 1.361 . S
C167 H164 0.961 . S
C167 H165 0.961 . S
C167 H166 0.960 . S
C168 O144 1.253 . S
C168 O153 1.263 . S
C169 O151 1.278 . S
C169 O154 1.237 . S
H170 C134 0.930 . S
H171 C138 0.930 . S
H172 C180 0.929 . S
H173 C182 0.930 . S
H174 C184 0.930 . S
H175 C187 0.929 1_655 S
H176 C190 0.930 . S
H177 C192 0.960 1_655 S
H178 C192 0.960 . S
H179 C192 0.960 1_655 S
C180 H172 0.929 . S
C180 C181 1.377 . S
C180 C182 1.384 . S
C181 C180 1.377 . S
C181 C187 1.390 . S
C182 H173 0.930 . S
C182 C180 1.384 . S
C182 C183 1.372 . S
C183 C182 1.372 . S
C183 C184 1.400 1_455 S
C183 C188 1.490 . S
C184 H174 0.930 . S
C184 C183 1.400 1_655 S
C184 C187 1.386 1_655 S
H185 C201 0.930 . S
H186 C202 0.931 . S
C187 H175 0.929 1_455 S
C187 C181 1.390 . S
C187 C184 1.386 1_455 S
C188 C183 1.490 . S
C188 C190 1.395 . S
C188 C191 1.403 . S
H189 C195 0.930 1_655 S
C190 H176 0.930 . S
C190 C188 1.395 . S
C190 C193 1.403 . S
C191 C188 1.403 . S
C191 C192 1.524 . S
C191 C195 1.400 . S
C192 H177 0.960 1_455 S
C192 H178 0.960 . S
C192 H179 0.960 1_455 S
C192 C191 1.524 . S
C193 C190 1.403 . S
C193 C194 1.392 . S
C193 C197 1.495 . S
C194 C193 1.392 . S
C194 C195 1.385 . S
C194 C196 1.478 1_455 S
C195 H189 0.930 1_455 S
C195 C191 1.400 . S
C195 C194 1.385 . S
C196 C194 1.478 1_655 S
C196 C198 1.381 1_655 S
C196 C202 1.383 . S
C197 C193 1.495 . S
C197 H203 0.959 . S
C197 H204 0.961 1_455 S
C197 H205 0.960 . S
C198 C196 1.381 1_455 S
C198 C199 1.394 . S
C198 H206 0.930 . S
C199 C198 1.394 . S
C199 C200 1.383 1_455 S
C199 H207 0.929 . S
C200 C199 1.383 1_655 S
C200 C201 1.377 . S
C201 H185 0.930 . S
C201 C200 1.377 . S
C201 C202 1.379 . S
C202 H186 0.931 . S
C202 C196 1.383 . S
C202 C201 1.379 . S
H203 C197 0.959 . S
H204 C197 0.961 1_655 S
H205 C197 0.960 . S
H206 C198 0.930 . S
H207 C199 0.929 . S
H208 C216 0.929 . S
H209 C218 0.930 . S
H210 C220 0.929 1_655 S
H211 C223 0.929 1_655 S
H212 C226 0.930 . S
H213 C228 0.960 . S
H214 C228 0.960 . S
H215 C228 0.950 1_655 S
C216 H208 0.929 . S
C216 C217 1.377 . S
C216 C218 1.384 . S
C217 C216 1.377 . S
C217 C223 1.390 . S
C218 H209 0.930 . S
C218 C216 1.384 . S
C218 C219 1.372 . S
C219 C218 1.372 . S
C219 C220 1.401 . S
C219 C224 1.490 . S
C220 H210 0.929 1_455 S
C220 C219 1.401 . S
C220 C223 1.385 . S
H221 C237 0.930 . S
H222 C238 0.931 . S
C223 H211 0.929 1_455 S
C223 C217 1.390 . S
C223 C220 1.385 . S
C224 C219 1.490 . S
C224 C226 1.395 . S
C224 C227 1.403 . S
H225 C231 0.930 . S
C226 H212 0.930 . S
C226 C224 1.395 . S
C226 C229 1.403 . S
C227 C224 1.403 . S
C227 C228 1.524 . S
C227 C231 1.400 . S
C228 H213 0.960 . S
C228 H214 0.960 . S
C228 H215 0.950 1_455 S
C228 C227 1.524 . S
C229 C226 1.403 . S
C229 C230 1.392 . S
C229 C233 1.495 . S
C230 C229 1.392 . S
C230 C231 1.385 . S
C230 C232 1.478 1_455 S
C231 H225 0.930 . S
C231 C227 1.400 . S
C231 C230 1.385 . S
C232 C230 1.478 1_655 S
C232 C234 1.381 1_655 S
C232 C238 1.383 . S
C233 C229 1.495 . S
C233 H239 0.959 . S
C233 H240 0.961 1_455 S
C233 H241 0.960 . S
C234 C232 1.381 1_455 S
C234 C235 1.394 . S
C234 H242 0.930 . S
C235 C234 1.394 . S
C235 C236 1.383 1_455 S
C235 H243 0.929 . S
C236 C235 1.383 1_655 S
C236 C237 1.377 . S
C237 H221 0.930 . S
C237 C236 1.377 . S
C237 C238 1.379 . S
C238 H222 0.931 . S
C238 C232 1.383 . S
C238 C237 1.379 . S
H239 C233 0.959 . S
H240 C233 0.961 1_655 S
H241 C233 0.960 . S
H242 C234 0.930 . S
H243 C235 0.929 . S
H244 C252 0.929 . S
H245 C254 0.930 . S
H246 C256 0.930 . S
H247 C259 0.929 . S
H248 C262 0.930 . S
H249 C264 0.960 . S
H250 C264 0.960 . S
H251 C264 0.960 . S
C252 H244 0.929 . S
C252 C253 1.377 . S
C252 C254 1.384 . S
C253 C252 1.377 . S
C253 C259 1.390 . S
C254 H245 0.930 . S
C254 C252 1.384 . S
C254 C255 1.372 . S
C255 C254 1.372 . S
C255 C256 1.400 . S
C255 C260 1.490 . S
C256 H246 0.930 . S
C256 C255 1.400 . S
C256 C259 1.386 . S
H257 C273 0.930 . S
H258 C274 0.931 . S
C259 H247 0.929 . S
C259 C253 1.390 . S
C259 C256 1.386 . S
C260 C255 1.490 . S
C260 C262 1.395 . S
C260 C263 1.403 . S
H261 C267 0.930 . S
C262 H248 0.930 . S
C262 C260 1.395 . S
C262 C265 1.403 . S
C263 C260 1.403 . S
C263 C264 1.524 . S
C263 C267 1.400 . S
C264 H249 0.960 . S
C264 H250 0.960 . S
C264 H251 0.960 . S
C264 C263 1.524 . S
C265 C262 1.403 . S
C265 C266 1.392 . S
C265 C269 1.495 . S
C266 C265 1.392 . S
C266 C267 1.385 . S
C266 C268 1.478 . S
C267 H261 0.930 . S
C267 C263 1.400 . S
C267 C266 1.385 . S
C268 C266 1.478 . S
C268 C270 1.381 . S
C268 C274 1.383 . S
C269 C265 1.495 . S
C269 H275 0.959 . S
C269 H276 0.961 . S
C269 H277 0.960 . S
C270 C268 1.381 . S
C270 C271 1.394 . S
C270 H278 0.930 . S
C271 C270 1.394 . S
C271 C272 1.383 . S
C271 H279 0.929 . S
C272 C271 1.383 . S
C272 C273 1.377 . S
C273 H257 0.930 . S
C273 C272 1.377 . S
C273 C274 1.379 . S
C274 H258 0.931 . S
C274 C268 1.383 . S
C274 C273 1.379 . S
H275 C269 0.959 . S
H276 C269 0.961 . S
H277 C269 0.960 . S
H278 C270 0.930 . S
H279 C271 0.929 . S
H280 C288 0.929 . S
H281 C290 0.930 . S
H282 C292 0.930 . S
H283 C295 0.929 . S
H284 C298 0.930 . S
H285 C300 0.960 . S
H286 C300 0.960 . S
H287 C300 0.960 . S
C288 H280 0.929 . S
C288 C289 1.377 . S
C288 C290 1.384 . S
C289 C288 1.377 . S
C289 C295 1.390 . S
C290 H281 0.930 . S
C290 C288 1.384 . S
C290 C291 1.372 . S
C291 C290 1.372 . S
C291 C292 1.400 . S
C291 C296 1.490 . S
C292 H282 0.930 . S
C292 C291 1.400 . S
C292 C295 1.386 . S
H293 C309 0.930 . S
H294 C310 0.931 . S
C295 H283 0.929 . S
C295 C289 1.390 . S
C295 C292 1.386 . S
C296 C291 1.490 . S
C296 C298 1.395 . S
C296 C299 1.403 . S
H297 C303 0.930 . S
C298 H284 0.930 . S
C298 C296 1.395 . S
C298 C301 1.403 . S
C299 C296 1.403 . S
C299 C300 1.524 . S
C299 C303 1.400 . S
C300 H285 0.960 . S
C300 H286 0.960 . S
C300 H287 0.960 . S
C300 C299 1.524 . S
C301 C298 1.403 . S
C301 C302 1.392 . S
C301 C305 1.495 . S
C302 C301 1.392 . S
C302 C303 1.385 . S
C302 C304 1.478 . S
C303 H297 0.930 . S
C303 C299 1.400 . S
C303 C302 1.385 . S
C304 C302 1.478 . S
C304 C306 1.381 . S
C304 C310 1.383 . S
C305 C301 1.495 . S
C305 H311 0.959 . S
C305 H312 0.961 . S
C305 H313 0.960 . S
C306 C304 1.381 . S
C306 C307 1.394 . S
C306 H314 0.930 . S
C307 C306 1.394 . S
C307 C308 1.383 . S
C307 H315 0.929 . S
C308 C307 1.383 . S
C308 C309 1.377 . S
C309 H293 0.930 . S
C309 C308 1.377 . S
C309 C310 1.379 . S
C310 H294 0.931 . S
C310 C304 1.383 . S
C310 C309 1.379 . S
H311 C305 0.959 . S
H312 C305 0.961 . S
H313 C305 0.960 . S
H314 C306 0.930 . S
H315 C307 0.929 . S
H316 C324 0.929 . S
H317 C326 0.930 . S
H318 C328 0.930 . S
H319 C331 0.929 . S
H320 C334 0.930 . S
H321 C336 0.960 . S
H322 C336 0.960 . S
H323 C336 0.960 . S
C324 H316 0.929 . S
C324 C325 1.377 . S
C324 C326 1.384 . S
C325 C324 1.377 . S
C325 C331 1.390 . S
C326 H317 0.930 . S
C326 C324 1.384 . S
C326 C327 1.372 . S
C327 C326 1.372 . S
C327 C328 1.400 . S
C327 C332 1.490 . S
C328 H318 0.930 . S
C328 C327 1.400 . S
C328 C331 1.386 . S
H329 C345 0.930 . S
H330 C346 0.931 . S
C331 H319 0.929 . S
C331 C325 1.390 . S
C331 C328 1.386 . S
C332 C327 1.490 . S
C332 C334 1.395 . S
C332 C335 1.403 . S
H333 C339 0.930 . S
C334 H320 0.930 . S
C334 C332 1.395 . S
C334 C337 1.403 . S
C335 C332 1.403 . S
C335 C336 1.524 . S
C335 C339 1.400 . S
C336 H321 0.960 . S
C336 H322 0.960 . S
C336 H323 0.960 . S
C336 C335 1.524 . S
C337 C334 1.403 . S
C337 C338 1.392 . S
C337 C341 1.495 . S
C338 C337 1.392 . S
C338 C339 1.385 . S
C338 C340 1.478 . S
C339 H333 0.930 . S
C339 C335 1.400 . S
C339 C338 1.385 . S
C340 C338 1.478 . S
C340 C342 1.381 . S
C340 C346 1.383 . S
C341 C337 1.495 . S
C341 H347 0.959 . S
C341 H348 0.961 . S
C341 H349 0.960 . S
C342 C340 1.381 . S
C342 C343 1.394 . S
C342 H350 0.930 . S
C343 C342 1.394 . S
C343 C344 1.383 . S
C343 H351 0.929 . S
C344 C343 1.383 . S
C344 C345 1.377 . S
C345 H329 0.930 . S
C345 C344 1.377 . S
C345 C346 1.379 . S
C346 H330 0.931 . S
C346 C340 1.383 . S
C346 C345 1.379 . S
H347 C341 0.959 . S
H348 C341 0.961 . S
H349 C341 0.960 . S
H350 C342 0.930 . S
H351 C343 0.929 . S
H352 C360 0.929 . S
H353 C362 0.930 . S
H354 C364 0.930 . S
H355 C367 0.929 . S
H356 C370 0.930 . S
H357 C372 0.960 . S
H358 C372 0.960 . S
H359 C372 0.960 . S
C360 H352 0.929 . S
C360 C361 1.377 . S
C360 C362 1.384 . S
C361 C360 1.377 . S
C361 C367 1.390 . S
C362 H353 0.930 . S
C362 C360 1.384 . S
C362 C363 1.372 . S
C363 C362 1.372 . S
C363 C364 1.400 . S
C363 C368 1.490 . S
C364 H354 0.930 . S
C364 C363 1.400 . S
C364 C367 1.386 . S
H365 C381 0.930 . S
H366 C382 0.931 . S
C367 H355 0.929 . S
C367 C361 1.390 . S
C367 C364 1.386 . S
C368 C363 1.490 . S
C368 C370 1.395 . S
C368 C371 1.403 . S
H369 C375 0.930 . S
C370 H356 0.930 . S
C370 C368 1.395 . S
C370 C373 1.403 . S
C371 C368 1.403 . S
C371 C372 1.524 . S
C371 C375 1.400 . S
C372 H357 0.960 . S
C372 H358 0.960 . S
C372 H359 0.960 . S
C372 C371 1.524 . S
C373 C370 1.403 . S
C373 C374 1.392 . S
C373 C377 1.495 . S
C374 C373 1.392 . S
C374 C375 1.385 . S
C374 C376 1.478 . S
C375 H369 0.930 . S
C375 C371 1.400 . S
C375 C374 1.385 . S
C376 C374 1.478 . S
C376 C378 1.381 . S
C376 C382 1.383 . S
C377 C373 1.495 . S
C377 H383 0.959 . S
C377 H384 0.961 . S
C377 H385 0.960 . S
C378 C376 1.381 . S
C378 C379 1.394 . S
C378 H386 0.930 . S
C379 C378 1.394 . S
C379 C380 1.383 . S
C379 H387 0.929 . S
C380 C379 1.383 . S
C380 C381 1.377 . S
C381 H365 0.930 . S
C381 C380 1.377 . S
C381 C382 1.379 . S
C382 H366 0.931 . S
C382 C376 1.383 . S
C382 C381 1.379 . S
H383 C377 0.959 . S
H384 C377 0.961 . S
H385 C377 0.960 . S
H386 C378 0.930 . S
H387 C379 0.929 . S
H388 C396 0.929 . S
H389 C398 0.930 . S
H390 C400 0.930 . S
H391 C403 0.929 . S
H392 C406 0.930 . S
H393 C408 0.960 1_455 S
H394 C408 0.960 . S
H395 C408 0.960 . S
C396 H388 0.929 . S
C396 C397 1.377 . S
C396 C398 1.384 . S
C397 C396 1.377 . S
C397 C403 1.390 . S
C398 H389 0.930 . S
C398 C396 1.384 . S
C398 C399 1.372 . S
C399 C398 1.372 . S
C399 C400 1.400 . S
C399 C404 1.490 . S
C400 H390 0.930 . S
C400 C399 1.400 . S
C400 C403 1.386 . S
H401 C417 0.930 . S
H402 C418 0.931 . S
C403 H391 0.929 . S
C403 C397 1.390 . S
C403 C400 1.386 . S
C404 C399 1.490 . S
C404 C406 1.395 . S
C404 C407 1.403 . S
H405 C411 0.930 . S
C406 H392 0.930 . S
C406 C404 1.395 . S
C406 C409 1.403 . S
C407 C404 1.403 . S
C407 C408 1.524 . S
C407 C411 1.400 1_655 S
C408 H393 0.960 1_655 S
C408 H394 0.960 . S
C408 H395 0.960 . S
C408 C407 1.524 . S
C409 C406 1.403 . S
C409 C410 1.392 1_655 S
C409 C413 1.495 1_655 S
C410 C409 1.392 1_455 S
C410 C411 1.385 . S
C410 C412 1.478 . S
C411 H405 0.930 . S
C411 C407 1.400 1_455 S
C411 C410 1.385 . S
C412 C410 1.478 . S
C412 C414 1.381 . S
C412 C418 1.383 . S
C413 C409 1.495 1_455 S
C413 H419 0.959 1_455 S
C413 H420 0.961 . S
C413 H421 0.960 . S
C414 C412 1.381 . S
C414 C415 1.394 . S
C414 H422 0.930 . S
C415 C414 1.394 . S
C415 C416 1.383 . S
C415 H423 0.929 . S
C416 C415 1.383 . S
C416 C417 1.377 . S
C417 H401 0.930 . S
C417 C416 1.377 . S
C417 C418 1.379 . S
C418 H402 0.931 . S
C418 C412 1.383 . S
C418 C417 1.379 . S
H419 C413 0.959 1_655 S
H420 C413 0.961 . S
H421 C413 0.960 . S
H422 C414 0.930 . S
H423 C415 0.929 . S
H424 C432 0.929 . S
H425 C434 0.930 . S
H426 C436 0.930 . S
H427 C439 0.929 . S
H428 C442 0.930 . S
H429 C444 0.960 . S
H430 C444 0.960 . S
H431 C444 0.960 . S
C432 H424 0.929 . S
C432 C433 1.377 . S
C432 C434 1.384 . S
C433 C432 1.377 . S
C433 C439 1.390 . S
C434 H425 0.930 . S
C434 C432 1.384 . S
C434 C435 1.372 . S
C435 C434 1.372 . S
C435 C436 1.400 . S
C435 C440 1.490 . S
C436 H426 0.930 . S
C436 C435 1.400 . S
C436 C439 1.386 . S
H437 C453 0.930 . S
H438 C454 0.931 . S
C439 H427 0.929 . S
C439 C433 1.390 . S
C439 C436 1.386 . S
C440 C435 1.490 . S
C440 C442 1.395 . S
C440 C443 1.403 . S
H441 C447 0.930 . S
C442 H428 0.930 . S
C442 C440 1.395 . S
C442 C445 1.403 1_655 S
C443 C440 1.403 . S
C443 C444 1.524 . S
C443 C447 1.400 1_655 S
C444 H429 0.960 . S
C444 H430 0.960 . S
C444 H431 0.960 . S
C444 C443 1.524 . S
C445 C442 1.403 1_455 S
C445 C446 1.392 . S
C445 C449 1.495 . S
C446 C445 1.392 . S
C446 C447 1.385 . S
C446 C448 1.478 . S
C447 H441 0.930 . S
C447 C443 1.400 1_455 S
C447 C446 1.385 . S
C448 C446 1.478 . S
C448 C450 1.381 . S
C448 C454 1.383 . S
C449 C445 1.495 . S
C449 H455 0.959 . S
C449 H456 0.961 . S
C449 H457 0.960 . S
C450 C448 1.381 . S
C450 C451 1.394 . S
C450 H458 0.930 . S
C451 C450 1.394 . S
C451 C452 1.383 . S
C451 H459 0.929 . S
C452 C451 1.383 . S
C452 C453 1.377 . S
C453 H437 0.930 . S
C453 C452 1.377 . S
C453 C454 1.379 . S
C454 H438 0.931 . S
C454 C448 1.383 . S
C454 C453 1.379 . S
H455 C449 0.959 . S
H456 C449 0.961 . S
H457 C449 0.960 . S
H458 C450 0.930 . S
H459 C451 0.929 . S
H460 C468 0.929 . S
H461 C470 0.930 . S
H462 C472 0.930 . S
H463 C475 0.929 . S
H464 C478 0.930 . S
H465 C480 0.960 . S
H466 C480 0.960 . S
H467 C480 0.960 . S
C468 H460 0.929 . S
C468 C469 1.377 . S
C468 C470 1.384 . S
C469 C468 1.377 . S
C469 C475 1.390 . S
C470 H461 0.930 . S
C470 C468 1.384 . S
C470 C471 1.372 . S
C471 C470 1.372 . S
C471 C472 1.400 . S
C471 C476 1.490 . S
C472 H462 0.930 . S
C472 C471 1.400 . S
C472 C475 1.386 . S
H473 C489 0.930 . S
H474 C490 0.931 . S
C475 H463 0.929 . S
C475 C469 1.390 . S
C475 C472 1.386 . S
C476 C471 1.490 . S
C476 C478 1.395 . S
C476 C479 1.403 . S
H477 C483 0.930 . S
C478 H464 0.930 . S
C478 C476 1.395 . S
C478 C481 1.403 . S
C479 C476 1.403 . S
C479 C480 1.524 . S
C479 C483 1.400 . S
C480 H465 0.960 . S
C480 H466 0.960 . S
C480 H467 0.960 . S
C480 C479 1.524 . S
C481 C478 1.403 . S
C481 C482 1.392 . S
C481 C485 1.495 . S
C482 C481 1.392 . S
C482 C483 1.385 . S
C482 C484 1.478 . S
C483 H477 0.930 . S
C483 C479 1.400 . S
C483 C482 1.385 . S
C484 C482 1.478 . S
C484 C486 1.381 . S
C484 C490 1.383 . S
C485 C481 1.495 . S
C485 H491 0.959 . S
C485 H492 0.961 . S
C485 H493 0.960 . S
C486 C484 1.381 . S
C486 C487 1.394 . S
C486 H494 0.930 . S
C487 C486 1.394 . S
C487 C488 1.383 . S
C487 H495 0.929 . S
C488 C487 1.383 . S
C488 C489 1.377 . S
C489 H473 0.930 . S
C489 C488 1.377 . S
C489 C490 1.379 . S
C490 H474 0.931 . S
C490 C484 1.383 . S
C490 C489 1.379 . S
H491 C485 0.959 . S
H492 C485 0.961 . S
H493 C485 0.960 . S
H494 C486 0.930 . S
H495 C487 0.929 . S
H496 C504 0.929 . S
H497 C506 0.930 . S
H498 C508 0.930 . S
H499 C511 0.929 . S
H500 C514 0.930 . S
H501 C516 0.960 . S
H502 C516 0.960 . S
H503 C516 0.960 . S
C504 H496 0.929 . S
C504 C505 1.377 . S
C504 C506 1.384 . S
C505 C504 1.377 . S
C505 C511 1.390 . S
C506 H497 0.930 . S
C506 C504 1.384 . S
C506 C507 1.372 . S
C507 C506 1.372 . S
C507 C508 1.400 . S
C507 C512 1.490 . S
C508 H498 0.930 . S
C508 C507 1.400 . S
C508 C511 1.386 . S
H509 C525 0.930 . S
H510 C526 0.931 . S
C511 H499 0.929 . S
C511 C505 1.390 . S
C511 C508 1.386 . S
C512 C507 1.490 . S
C512 C514 1.395 . S
C512 C515 1.403 . S
H513 C519 0.930 . S
C514 H500 0.930 . S
C514 C512 1.395 . S
C514 C517 1.403 1_556 S
C515 C512 1.403 . S
C515 C516 1.524 . S
C515 C519 1.400 1_556 S
C516 H501 0.960 . S
C516 H502 0.960 . S
C516 H503 0.960 . S
C516 C515 1.524 . S
C517 C514 1.403 1_554 S
C517 C518 1.392 . S
C517 C521 1.495 . S
C518 C517 1.392 . S
C518 C519 1.385 . S
C518 C520 1.478 . S
C519 H513 0.930 . S
C519 C515 1.400 1_554 S
C519 C518 1.385 . S
C520 C518 1.478 . S
C520 C522 1.381 . S
C520 C526 1.383 . S
C521 C517 1.495 . S
C521 H527 0.959 . S
C521 H528 0.961 . S
C521 H529 0.960 . S
C522 C520 1.381 . S
C522 C523 1.394 . S
C522 H530 0.930 . S
C523 C522 1.394 . S
C523 C524 1.383 . S
C523 H531 0.929 . S
C524 C523 1.383 . S
C524 C525 1.377 . S
C525 H509 0.930 . S
C525 C524 1.377 . S
C525 C526 1.379 . S
C526 H510 0.931 . S
C526 C520 1.383 . S
C526 C525 1.379 . S
H527 C521 0.959 . S
H528 C521 0.961 . S
H529 C521 0.960 . S
H530 C522 0.930 . S
H531 C523 0.929 . S
H532 C540 0.929 . S
H533 C542 0.930 . S
H534 C544 0.930 . S
H535 C547 0.929 . S
H536 C550 0.930 . S
H537 C552 0.960 . S
H538 C552 0.960 . S
H539 C552 0.960 . S
C540 H532 0.929 . S
C540 C541 1.377 . S
C540 C542 1.384 . S
C541 C540 1.377 . S
C541 C547 1.390 . S
C542 H533 0.930 . S
C542 C540 1.384 . S
C542 C543 1.372 . S
C543 C542 1.372 . S
C543 C544 1.400 . S
C543 C548 1.490 . S
C544 H534 0.930 . S
C544 C543 1.400 . S
C544 C547 1.386 . S
H545 C561 0.930 . S
H546 C562 0.931 . S
C547 H535 0.929 . S
C547 C541 1.390 . S
C547 C544 1.386 . S
C548 C543 1.490 . S
C548 C550 1.395 . S
C548 C551 1.403 . S
H549 C555 0.930 . S
C550 H536 0.930 . S
C550 C548 1.395 . S
C550 C553 1.403 . S
C551 C548 1.403 . S
C551 C552 1.524 . S
C551 C555 1.400 . S
C552 H537 0.960 . S
C552 H538 0.960 . S
C552 H539 0.960 . S
C552 C551 1.524 . S
C553 C550 1.403 . S
C553 C554 1.392 . S
C553 C557 1.495 . S
C554 C553 1.392 . S
C554 C555 1.385 . S
C554 C556 1.478 . S
C555 H549 0.930 . S
C555 C551 1.400 . S
C555 C554 1.385 . S
C556 C554 1.478 . S
C556 C558 1.381 . S
C556 C562 1.383 . S
C557 C553 1.495 . S
C557 H563 0.959 . S
C557 H564 0.961 . S
C557 H565 0.960 . S
C558 C556 1.381 . S
C558 C559 1.394 . S
C558 H566 0.930 . S
C559 C558 1.394 . S
C559 C560 1.383 . S
C559 H567 0.929 . S
C560 C559 1.383 . S
C560 C561 1.377 . S
C561 H545 0.930 . S
C561 C560 1.377 . S
C561 C562 1.379 . S
C562 H546 0.931 . S
C562 C556 1.383 . S
C562 C561 1.379 . S
H563 C557 0.959 . S
H564 C557 0.961 . S
H565 C557 0.960 . S
H566 C558 0.930 . S
H567 C559 0.929 . S
H568 C576 0.929 . S
H569 C578 0.930 . S
H570 C580 0.930 . S
H571 C583 0.929 . S
H572 C586 0.930 . S
H573 C588 0.960 . S
H574 C588 0.960 . S
H575 C588 0.960 . S
C576 H568 0.929 . S
C576 C577 1.377 . S
C576 C578 1.384 . S
C577 C576 1.377 . S
C577 C583 1.390 . S
C578 H569 0.930 . S
C578 C576 1.384 . S
C578 C579 1.372 . S
C579 C578 1.372 . S
C579 C580 1.400 . S
C579 C584 1.490 . S
C580 H570 0.930 . S
C580 C579 1.400 . S
C580 C583 1.386 . S
H581 C597 0.930 . S
H582 C598 0.931 . S
C583 H571 0.929 . S
C583 C577 1.390 . S
C583 C580 1.386 . S
C584 C579 1.490 . S
C584 C586 1.395 1_554 S
C584 C587 1.403 . S
H585 C591 0.930 . S
C586 H572 0.930 . S
C586 C584 1.395 1_556 S
C586 C589 1.403 . S
C587 C584 1.403 . S
C587 C588 1.524 . S
C587 C591 1.400 1_554 S
C588 H573 0.960 . S
C588 H574 0.960 . S
C588 H575 0.960 . S
C588 C587 1.524 . S
C589 C586 1.403 . S
C589 C590 1.392 . S
C589 C593 1.495 . S
C590 C589 1.392 . S
C590 C591 1.385 . S
C590 C592 1.478 . S
C591 H585 0.930 . S
C591 C587 1.400 1_556 S
C591 C590 1.385 . S
C592 C590 1.478 . S
C592 C594 1.381 . S
C592 C598 1.383 . S
C593 C589 1.495 . S
C593 H599 0.959 . S
C593 H600 0.961 . S
C593 H601 0.960 . S
C594 C592 1.381 . S
C594 C595 1.394 . S
C594 H602 0.930 . S
C595 C594 1.394 . S
C595 C596 1.383 . S
C595 H603 0.929 . S
C596 C595 1.383 . S
C596 C597 1.377 . S
C597 H581 0.930 . S
C597 C596 1.377 . S
C597 C598 1.379 . S
C598 H582 0.931 . S
C598 C592 1.383 . S
C598 C597 1.379 . S
H599 C593 0.959 . S
H600 C593 0.961 . S
H601 C593 0.960 . S
H602 C594 0.930 . S
H603 C595 0.929 . S
H604 C612 0.929 . S
H605 C614 0.930 . S
H606 C616 0.930 1_455 S
H607 C619 0.929 . S
H608 C622 0.930 . S
H609 C624 0.960 . S
H610 C624 0.960 . S
H611 C624 0.960 . S
C612 H604 0.929 . S
C612 C613 1.377 . S
C612 C614 1.384 . S
C613 C612 1.377 . S
C613 C619 1.390 . S
C614 H605 0.930 . S
C614 C612 1.384 . S
C614 C615 1.372 . S
C615 C614 1.372 . S
C615 C616 1.400 . S
C615 C620 1.490 . S
C616 H606 0.930 1_655 S
C616 C615 1.400 . S
C616 C619 1.386 . S
H617 C633 0.930 . S
H618 C634 0.931 . S
C619 H607 0.929 . S
C619 C613 1.390 . S
C619 C616 1.386 . S
C620 C615 1.490 . S
C620 C622 1.395 1_554 S
C620 C623 1.403 1_655 S
H621 C627 0.930 1_554 S
C622 H608 0.930 . S
C622 C620 1.395 1_556 S
C622 C625 1.403 1_545 S
C623 C620 1.403 1_455 S
C623 C624 1.524 . S
C623 C627 1.401 1_544 S
C624 H609 0.960 . S
C624 H610 0.960 . S
C624 H611 0.960 . S
C624 C623 1.524 . S
C625 C622 1.403 1_565 S
C625 C626 1.392 . S
C625 C629 1.495 . S
C626 C625 1.392 . S
C626 C627 1.384 1_655 S
C626 C628 1.478 1_655 S
C627 H621 0.930 1_556 S
C627 C623 1.401 1_566 S
C627 C626 1.384 1_455 S
C628 C626 1.478 1_455 S
C628 C630 1.381 1_455 S
C628 C634 1.383 . S
C629 C625 1.495 . S
C629 H635 0.959 . S
C629 H636 0.961 . S
C629 H637 0.960 . S
C630 C628 1.381 1_655 S
C630 C631 1.394 1_655 S
C630 H638 0.930 . S
C631 C630 1.394 1_455 S
C631 C632 1.383 . S
C631 H639 0.929 . S
C632 C631 1.383 . S
C632 C633 1.377 . S
C633 H617 0.930 . S
C633 C632 1.377 . S
C633 C634 1.379 . S
C634 H618 0.931 . S
C634 C628 1.383 . S
C634 C633 1.379 . S
H635 C629 0.959 . S
H636 C629 0.961 . S
H637 C629 0.960 . S
H638 C630 0.930 . S
H639 C631 0.929 . S
H640 C648 0.929 . S
H641 C650 0.930 . S
H642 C652 0.930 1_655 S
H643 C655 0.929 . S
H644 C658 0.930 . S
H645 C660 0.960 . S
H646 C660 0.960 . S
H647 C660 0.960 . S
C648 H640 0.929 . S
C648 C649 1.377 . S
C648 C650 1.384 . S
C649 C648 1.377 . S
C649 C655 1.390 . S
C650 H641 0.930 . S
C650 C648 1.384 . S
C650 C651 1.372 . S
C651 C650 1.372 . S
C651 C652 1.400 . S
C651 C656 1.490 . S
C652 H642 0.930 1_455 S
C652 C651 1.400 . S
C652 C655 1.386 . S
H653 C669 0.930 . S
H654 C670 0.931 . S
C655 H643 0.929 . S
C655 C649 1.390 . S
C655 C652 1.386 . S
C656 C651 1.490 . S
C656 C658 1.395 . S
C656 C659 1.403 1_455 S
H657 C663 0.930 . S
C658 H644 0.930 . S
C658 C656 1.395 . S
C658 C661 1.403 1_545 S
C659 C656 1.403 1_655 S
C659 C660 1.524 . S
C659 C663 1.400 1_545 S
C660 H645 0.960 . S
C660 H646 0.960 . S
C660 H647 0.960 . S
C660 C659 1.524 . S
C661 C658 1.403 1_565 S
C661 C662 1.392 . S
C661 C665 1.495 . S
C662 C661 1.392 . S
C662 C663 1.385 1_455 S
C662 C664 1.478 1_455 S
C663 H657 0.930 . S
C663 C659 1.400 1_565 S
C663 C662 1.385 1_655 S
C664 C662 1.478 1_655 S
C664 C666 1.381 . S
C664 C670 1.383 . S
C665 C661 1.495 . S
C665 H671 0.959 . S
C665 H672 0.961 . S
C665 H673 0.960 . S
C666 C664 1.381 . S
C666 C667 1.394 . S
C666 H674 0.930 1_655 S
C667 C666 1.394 . S
C667 C668 1.383 . S
C667 H675 0.929 . S
C668 C667 1.383 . S
C668 C669 1.377 . S
C669 H653 0.930 . S
C669 C668 1.377 . S
C669 C670 1.379 . S
C670 H654 0.931 . S
C670 C664 1.383 . S
C670 C669 1.379 . S
H671 C665 0.959 . S
H672 C665 0.961 . S
H673 C665 0.960 . S
H674 C666 0.930 1_455 S
H675 C667 0.929 . S
H676 C684 0.929 . S
H677 C686 0.930 . S
H678 C688 0.930 . S
H679 C691 0.929 . S
H680 C694 0.930 . S
H681 C696 0.960 . S
H682 C696 0.960 . S
H683 C696 0.960 . S
C684 H676 0.929 . S
C684 C685 1.377 . S
C684 C686 1.384 . S
C685 C684 1.377 . S
C685 C691 1.390 . S
C686 H677 0.930 . S
C686 C684 1.384 . S
C686 C687 1.372 . S
C687 C686 1.372 . S
C687 C688 1.400 . S
C687 C692 1.490 . S
C688 H678 0.930 . S
C688 C687 1.400 . S
C688 C691 1.386 . S
H689 C705 0.930 . S
H690 C706 0.931 . S
C691 H679 0.929 . S
C691 C685 1.390 . S
C691 C688 1.386 . S
C692 C687 1.490 . S
C692 C694 1.395 . S
C692 C695 1.403 . S
H693 C699 0.930 . S
C694 H680 0.930 . S
C694 C692 1.395 . S
C694 C697 1.403 1_554 S
C695 C692 1.403 . S
C695 C696 1.524 . S
C695 C699 1.400 1_554 S
C696 H681 0.960 . S
C696 H682 0.960 . S
C696 H683 0.960 . S
C696 C695 1.524 . S
C697 C694 1.403 1_556 S
C697 C698 1.392 . S
C697 C701 1.495 . S
C698 C697 1.392 . S
C698 C699 1.385 . S
C698 C700 1.478 . S
C699 H693 0.930 . S
C699 C695 1.400 1_556 S
C699 C698 1.385 . S
C700 C698 1.478 . S
C700 C702 1.381 . S
C700 C706 1.383 . S
C701 C697 1.495 . S
C701 H707 0.959 . S
C701 H708 0.961 . S
C701 H709 0.960 . S
C702 C700 1.381 . S
C702 C703 1.394 . S
C702 H710 0.930 . S
C703 C702 1.394 . S
C703 C704 1.383 . S
C703 H711 0.929 . S
C704 C703 1.383 . S
C704 C705 1.377 . S
C705 H689 0.930 . S
C705 C704 1.377 . S
C705 C706 1.379 . S
C706 H690 0.931 . S
C706 C700 1.383 . S
C706 C705 1.379 . S
H707 C701 0.959 . S
H708 C701 0.961 . S
H709 C701 0.960 . S
H710 C702 0.930 . S
H711 C703 0.929 . S
H712 C720 0.929 . S
H713 C722 0.930 . S
H714 C724 0.930 . S
H715 C727 0.929 . S
H716 C730 0.930 . S
H717 C732 0.960 . S
H718 C732 0.960 . S
H719 C732 0.960 . S
C720 H712 0.929 . S
C720 C721 1.377 . S
C720 C722 1.384 . S
C721 C720 1.377 . S
C721 C727 1.390 . S
C722 H713 0.930 . S
C722 C720 1.384 . S
C722 C723 1.372 . S
C723 C722 1.372 . S
C723 C724 1.400 . S
C723 C728 1.490 . S
C724 H714 0.930 . S
C724 C723 1.400 . S
C724 C727 1.386 . S
H725 C741 0.930 . S
H726 C742 0.931 . S
C727 H715 0.929 . S
C727 C721 1.390 . S
C727 C724 1.386 . S
C728 C723 1.490 . S
C728 C730 1.395 . S
C728 C731 1.403 . S
H729 C735 0.930 . S
C730 H716 0.930 . S
C730 C728 1.395 . S
C730 C733 1.403 . S
C731 C728 1.403 . S
C731 C732 1.524 . S
C731 C735 1.400 . S
C732 H717 0.960 . S
C732 H718 0.960 . S
C732 H719 0.960 . S
C732 C731 1.524 . S
C733 C730 1.403 . S
C733 C734 1.392 . S
C733 C737 1.495 . S
C734 C733 1.392 . S
C734 C735 1.385 . S
C734 C736 1.478 . S
C735 H729 0.930 . S
C735 C731 1.400 . S
C735 C734 1.385 . S
C736 C734 1.478 . S
C736 C738 1.381 . S
C736 C742 1.383 . S
C737 C733 1.495 . S
C737 H743 0.959 . S
C737 H744 0.961 . S
C737 H745 0.960 . S
C738 C736 1.381 . S
C738 C739 1.394 . S
C738 H746 0.930 . S
C739 C738 1.394 . S
C739 C740 1.383 . S
C739 H747 0.929 . S
C740 C739 1.383 . S
C740 C741 1.377 . S
C741 H725 0.930 . S
C741 C740 1.377 . S
C741 C742 1.379 . S
C742 H726 0.931 . S
C742 C736 1.383 . S
C742 C741 1.379 . S
H743 C737 0.959 . S
H744 C737 0.961 . S
H745 C737 0.960 . S
H746 C738 0.930 . S
H747 C739 0.929 . S
C181 N3 1.334 1_556 S
C200 N8 1.386 . S
C217 N46 1.341 . S
C236 N51 1.394 1_554 S
C253 N89 1.323 1_556 S
C272 N94 1.360 . S
C289 N137 1.381 1_554 S
C308 N132 1.311 . S
C325 C40 1.084 . S
C344 C27 1.119 . S
C361 C83 1.085 . S
C380 C70 1.119 . S
C397 C113 1.089 . S
C416 C126 1.113 . S
C433 C156 1.075 . S
C452 C169 1.084 . S
C469 C162 1.406 . S
C488 C32 1.407 . S
C505 C142 1.463 . S
C524 C39 1.482 . S
C541 C118 1.412 . S
C560 C76 1.400 . S
C577 C125 1.466 . S
C596 C56 1.498 . S
C613 C33 1.628 . S
C632 C75 1.567 . S
C649 C13 1.704 . S
C668 C82 1.700 . S
C685 C119 1.623 . S
C704 C161 1.556 . S
C721 C168 1.730 . S
C740 C99 1.672 . S
