# Generated by pormake.
# Topology uob, (4)-cn, num edge types: 1
# Building blocks:
#     Node 0, Type 0, BuildingBlock: KOZSID_clean_sbu_0, # of connection points: 4
#     Node 1, Type 0, BuildingBlock: KOZSID_clean_sbu_0, # of connection points: 4
#     Node 2, Type 0, BuildingBlock: KOZSID_clean_sbu_0, # of connection points: 4
#     Node 3, Type 0, BuildingBlock: KOZSID_clean_sbu_0, # of connection points: 4
#     Node 4, Type 0, BuildingBlock: KOZSID_clean_sbu_0, # of connection points: 4
#     Node 5, Type 0, BuildingBlock: KOZSID_clean_sbu_0, # of connection points: 4
#     Node 6, Type 0, BuildingBlock: KOZSID_clean_sbu_0, # of connection points: 4
#     Node 7, Type 0, BuildingBlock: KOZSID_clean_sbu_0, # of connection points: 4
#     Node 8, Type 0, BuildingBlock: KOZSID_clean_sbu_0, # of connection points: 4
#     Node 9, Type 0, BuildingBlock: KOZSID_clean_sbu_0, # of connection points: 4
#     Node 10, Type 0, BuildingBlock: KOZSID_clean_sbu_0, # of connection points: 4
#     Node 11, Type 0, BuildingBlock: KOZSID_clean_sbu_0, # of connection points: 4
#     Node 12, Type 0, BuildingBlock: KOZSID_clean_sbu_0, # of connection points: 4
#     Node 13, Type 0, BuildingBlock: KOZSID_clean_sbu_0, # of connection points: 4
#     Node 14, Type 0, BuildingBlock: KOZSID_clean_sbu_0, # of connection points: 4
#     Node 15, Type 0, BuildingBlock: KOZSID_clean_sbu_0, # of connection points: 4
#     Edge 16, Type (0, 0), BuildingBlock: CIFDUS_clean_linker_0, # of connection points: 2
#     Edge 17, Type (0, 0), BuildingBlock: CIFDUS_clean_linker_0, # of connection points: 2
#     Edge 18, Type (0, 0), BuildingBlock: CIFDUS_clean_linker_0, # of connection points: 2
#     Edge 19, Type (0, 0), BuildingBlock: CIFDUS_clean_linker_0, # of connection points: 2
#     Edge 20, Type (0, 0), BuildingBlock: CIFDUS_clean_linker_0, # of connection points: 2
#     Edge 21, Type (0, 0), BuildingBlock: CIFDUS_clean_linker_0, # of connection points: 2
#     Edge 22, Type (0, 0), BuildingBlock: CIFDUS_clean_linker_0, # of connection points: 2
#     Edge 23, Type (0, 0), BuildingBlock: CIFDUS_clean_linker_0, # of connection points: 2
#     Edge 24, Type (0, 0), BuildingBlock: CIFDUS_clean_linker_0, # of connection points: 2
#     Edge 25, Type (0, 0), BuildingBlock: CIFDUS_clean_linker_0, # of connection points: 2
#     Edge 26, Type (0, 0), BuildingBlock: CIFDUS_clean_linker_0, # of connection points: 2
#     Edge 27, Type (0, 0), BuildingBlock: CIFDUS_clean_linker_0, # of connection points: 2
#     Edge 28, Type (0, 0), BuildingBlock: CIFDUS_clean_linker_0, # of connection points: 2
#     Edge 29, Type (0, 0), BuildingBlock: CIFDUS_clean_linker_0, # of connection points: 2
#     Edge 30, Type (0, 0), BuildingBlock: CIFDUS_clean_linker_0, # of connection points: 2
#     Edge 31, Type (0, 0), BuildingBlock: CIFDUS_clean_linker_0, # of connection points: 2
#     Edge 32, Type (0, 0), BuildingBlock: CIFDUS_clean_linker_0, # of connection points: 2
#     Edge 33, Type (0, 0), BuildingBlock: CIFDUS_clean_linker_0, # of connection points: 2
#     Edge 34, Type (0, 0), BuildingBlock: CIFDUS_clean_linker_0, # of connection points: 2
#     Edge 35, Type (0, 0), BuildingBlock: CIFDUS_clean_linker_0, # of connection points: 2
#     Edge 36, Type (0, 0), BuildingBlock: CIFDUS_clean_linker_0, # of connection points: 2
#     Edge 37, Type (0, 0), BuildingBlock: CIFDUS_clean_linker_0, # of connection points: 2
#     Edge 38, Type (0, 0), BuildingBlock: CIFDUS_clean_linker_0, # of connection points: 2
#     Edge 39, Type (0, 0), BuildingBlock: CIFDUS_clean_linker_0, # of connection points: 2
#     Edge 40, Type (0, 0), BuildingBlock: CIFDUS_clean_linker_0, # of connection points: 2
#     Edge 41, Type (0, 0), BuildingBlock: CIFDUS_clean_linker_0, # of connection points: 2
#     Edge 42, Type (0, 0), BuildingBlock: CIFDUS_clean_linker_0, # of connection points: 2
#     Edge 43, Type (0, 0), BuildingBlock: CIFDUS_clean_linker_0, # of connection points: 2
#     Edge 44, Type (0, 0), BuildingBlock: CIFDUS_clean_linker_0, # of connection points: 2
#     Edge 45, Type (0, 0), BuildingBlock: CIFDUS_clean_linker_0, # of connection points: 2
#     Edge 46, Type (0, 0), BuildingBlock: CIFDUS_clean_linker_0, # of connection points: 2
#     Edge 47, Type (0, 0), BuildingBlock: CIFDUS_clean_linker_0, # of connection points: 2
# Relax obj value: 0.101
# Max RMSD: 0.281
# Mean RMSD: 0.244
data_MOF--net-uob--node1-KOZSID_clean_sbu_0--edge1-CIFDUS_clean_linker_0
_symmetry_space_group_name_H-M    P1
_symmetry_Int_Tables_number       1
_symmetry_cell_setting            triclinic
loop_
_symmetry_equiv_pos_as_xyz
'x, y, z'
_cell_length_a     49.660348
_cell_length_b     63.359284
_cell_length_c     30.711759
_cell_angle_alpha  90.204214
_cell_angle_beta   89.988951
_cell_angle_gamma 90.045225
loop_
_atom_site_label
_atom_site_type_symbol
_atom_site_fract_x
_atom_site_fract_y
_atom_site_fract_z
_atom_type_partial_charge
C0 C 0.19508 0.07787 0.33541 0.0
C1 C 0.2163 0.06358 0.33624 0.0
C2 C 0.20773 0.04582 0.31481 0.0
C3 C 0.18175 0.05002 0.30245 0.0
N4 N 0.17344 0.06936 0.31465 0.0
Co5 Co 0.1367 0.08092 0.30583 0.0
N6 N 0.12101 0.05228 0.29948 0.0
C7 C 0.13492 0.03473 0.28915 0.0
C8 C 0.11895 0.01719 0.28507 0.0
C9 C 0.09332 0.02416 0.29287 0.0
C10 C 0.09506 0.0457 0.30156 0.0
N11 N 0.10009 0.09242 0.29641 0.0
C12 C 0.07568 0.08265 0.29783 0.0
C13 C 0.05537 0.09693 0.28823 0.0
C14 C 0.06767 0.11598 0.27968 0.0
C15 C 0.09481 0.11245 0.28466 0.0
N16 N 0.15331 0.1092 0.31369 0.0
C17 C 0.14238 0.12748 0.3005 0.0
C18 C 0.15796 0.14459 0.31218 0.0
C19 C 0.17989 0.13642 0.33401 0.0
C20 C 0.17656 0.11472 0.33473 0.0
N21 N 0.14179 0.0827 0.24149 0.0
C22 C 0.13606 0.0976 0.15444 0.0
C23 C 0.15886 0.10267 0.18008 0.0
C24 C 0.16141 0.09502 0.22317 0.0
C25 C 0.11784 0.08315 0.17255 0.0
C26 C 0.12123 0.07578 0.21518 0.0
N27 N 0.12954 0.08042 0.3687 0.0
C28 C 0.10746 0.09829 0.42785 0.0
C29 C 0.11247 0.08157 0.45625 0.0
C30 C 0.12638 0.06389 0.43935 0.0
C31 C 0.13454 0.06355 0.39518 0.0
C32 C 0.11676 0.09768 0.38552 0.0
H33 H 0.14458 0.04973 0.38235 0.0
H34 H 0.11263 0.11128 0.36602 0.0
H35 H 0.17834 0.10021 0.24254 0.0
H36 H 0.10541 0.06599 0.22783 0.0
C37 C 0.16305 0.03478 0.28947 0.0
C38 C 0.19648 0.09958 0.35294 0.0
C39 C 0.07149 0.05971 0.3052 0.0
C40 C 0.11537 0.12792 0.28596 0.0
H41 H 0.23581 0.06548 0.35138 0.0
H42 H 0.21854 0.03108 0.31143 0.0
H43 H 0.12521 1.00118 0.27801 0.0
H44 H 0.0754 0.01449 0.29086 0.0
H45 H 0.03393 0.09393 0.28728 0.0
H46 H 0.05787 0.13079 0.27226 0.0
H47 H 0.15329 0.16111 0.30747 0.0
H48 H 0.19635 0.14537 0.34799 0.0
H49 H 0.17436 0.11305 0.16767 0.0
H50 H 0.09981 0.07846 0.15529 0.0
H51 H 0.09586 0.11197 0.43755 0.0
H52 H 0.13093 0.05049 0.45979 0.0
C53 C 0.89369 0.63631 0.47765 0.0
C54 C 0.86845 0.63598 0.45828 0.0
C55 C 0.85006 0.63461 0.49141 0.0
C56 C 0.86506 0.63432 0.52897 0.0
N57 N 0.8917 0.63557 0.5215 0.0
Co58 Co 0.92037 0.63629 0.56628 0.0
N59 N 0.89657 0.62246 0.60912 0.0
C60 C 0.86961 0.62042 0.60608 0.0
C61 C 0.85904 0.60737 0.63718 0.0
C62 C 0.88058 0.60115 0.66166 0.0
C63 C 0.90317 0.61136 0.64496 0.0
N64 N 0.94876 0.63726 0.61125 0.0
C65 C 0.95018 0.62722 0.6502 0.0
C66 C 0.97301 0.63358 0.67276 0.0
C67 C 0.98609 0.64806 0.64688 0.0
C68 C 0.97054 0.64989 0.61005 0.0
N69 N 0.94346 0.64966 0.52146 0.0
C70 C 0.96597 0.6608 0.52932 0.0
C71 C 0.97873 0.66658 0.49135 0.0
C72 C 0.96319 0.65851 0.4579 0.0
C73 C 0.94167 0.64822 0.4772 0.0
N74 N 0.90823 0.66481 0.58748 0.0
C75 C 0.90372 0.70683 0.62251 0.0
C76 C 0.90429 0.70279 0.5771 0.0
C77 C 0.90641 0.68191 0.56042 0.0
C78 C 0.90375 0.68889 0.64936 0.0
C79 C 0.90587 0.66838 0.63151 0.0
N80 N 0.93447 0.60821 0.54777 0.0
C81 C 0.97418 0.58644 0.5375 0.0
C82 C 0.95893 0.56785 0.5372 0.0
C83 C 0.93065 0.57016 0.54003 0.0
C84 C 0.91886 0.59041 0.54525 0.0
C85 C 0.96178 0.60611 0.54271 0.0
H86 H 0.89727 0.59158 0.54873 0.0
H87 H 0.97481 0.61962 0.54433 0.0
H88 H 0.90768 0.67971 0.52557 0.0
H89 H 0.90712 0.65544 0.65407 0.0
C90 C 0.85574 0.62744 0.56931 0.0
C91 C 0.91908 0.63788 0.45367 0.0
C92 C 0.92913 0.61312 0.66795 0.0
C93 C 0.97723 0.6609 0.57155 0.0
H94 H 0.86384 0.63633 0.42384 0.0
H95 H 0.8285 0.6326 0.48826 0.0
H96 H 0.83835 0.60222 0.64049 0.0
H97 H 0.87953 0.59071 0.68941 0.0
H98 H 0.97938 0.62846 0.70472 0.0
H99 H 1.00497 0.65593 0.65378 0.0
H100 H 0.99793 0.67452 0.48825 0.0
H101 H 0.96747 0.65978 0.42348 0.0
H102 H 0.90353 0.71571 0.55419 0.0
H103 H 0.90349 0.69056 0.68443 0.0
H104 H 0.99587 0.58591 0.53409 0.0
H105 H 0.91771 0.5564 0.53972 0.0
C106 C 0.31523 0.45051 0.83282 0.0
C107 C 0.29154 0.46214 0.83395 0.0
C108 C 0.2976 0.48169 0.81804 0.0
C109 C 0.32452 0.48102 0.8082 0.0
N110 N 0.33574 0.46208 0.81605 0.0
Co111 Co 0.37424 0.45462 0.80594 0.0
N112 N 0.38534 0.48468 0.80554 0.0
C113 C 0.36868 0.50133 0.80942 0.0
C114 C 0.38121 0.51886 0.82598 0.0
C115 C 0.40748 0.51304 0.83156 0.0
C116 C 0.40998 0.49264 0.81513 0.0
N117 N 0.41241 0.44746 0.79266 0.0
C118 C 0.43428 0.46032 0.78672 0.0
C119 C 0.45439 0.44928 0.76479 0.0
C120 C 0.44528 0.42897 0.75881 0.0
C121 C 0.4198 0.42864 0.77593 0.0
N122 N 0.36257 0.42476 0.81099 0.0
C123 C 0.37672 0.40798 0.79732 0.0
C124 C 0.36495 0.38924 0.80974 0.0
C125 C 0.3421 0.39477 0.83285 0.0
C126 C 0.34111 0.4166 0.83333 0.0
N127 N 0.36863 0.45426 0.74131 0.0
C128 C 0.37827 0.44321 0.65249 0.0
C129 C 0.35936 0.4322 0.67789 0.0
C130 C 0.35429 0.43831 0.72156 0.0
C131 C 0.3902 0.46106 0.67167 0.0
C132 C 0.38517 0.46628 0.7155 0.0
N133 N 0.38173 0.45354 0.86895 0.0
C134 C 0.40513 0.43548 0.92669 0.0
C135 C 0.39157 0.44723 0.958 0.0
C136 C 0.37317 0.46267 0.9442 0.0
C137 C 0.36881 0.46581 0.89925 0.0
C138 C 0.39974 0.43864 0.88287 0.0
H139 H 0.35452 0.47765 0.88916 0.0
H140 H 0.40961 0.42817 0.86055 0.0
H141 H 0.33992 0.42919 0.73998 0.0
H142 H 0.39659 0.47917 0.72901 0.0
C143 C 0.34087 0.49884 0.80628 0.0
C144 C 0.31823 0.42923 0.85087 0.0
C145 C 0.43561 0.48317 0.79941 0.0
C146 C 0.40257 0.41091 0.77918 0.0
H147 H 0.27219 0.45761 0.84692 0.0
H148 H 0.28456 0.49538 0.81807 0.0
H149 H 0.37208 0.53373 0.83521 0.0
H150 H 0.42316 0.52312 0.84449 0.0
H151 H 0.47325 0.45518 0.75233 0.0
H152 H 0.45586 0.41612 0.74304 0.0
H153 H 0.37254 0.37346 0.80417 0.0
H154 H 0.3277 0.38404 0.84726 0.0
H155 H 0.34872 0.41879 0.6643 0.0
H156 H 0.40462 0.47041 0.65361 0.0
H157 H 0.41897 0.42309 0.93612 0.0
H158 H 0.36192 0.47184 0.96781 0.0
C159 C 0.61762 0.89236 0.98148 0.0
C160 C 0.64329 0.89496 0.96447 0.0
C161 C 0.66037 0.89682 0.9993 0.0
C162 C 0.64424 0.89532 0.03548 0.0
N163 N 0.61809 0.89252 0.02564 0.0
Co164 Co 0.58808 0.88986 0.06808 0.0
N165 N 0.60943 0.90395 0.11421 0.0
C166 C 0.63633 0.90679 0.11397 0.0
C167 C 0.64541 0.91829 0.14886 0.0
C168 C 0.62291 0.92269 0.17288 0.0
C169 C 0.60124 0.91322 0.15161 0.0
N170 N 0.55832 0.88697 0.11037 0.0
C171 C 0.55491 0.89619 0.15002 0.0
C172 C 0.53176 0.88861 0.16986 0.0
C173 C 0.52058 0.8741 0.14161 0.0
C174 C 0.53749 0.87353 0.10615 0.0
N175 N 0.56751 0.87622 0.02022 0.0
C176 C 0.54562 0.864 0.02523 0.0
C177 C 0.53464 0.85815 0.98578 0.0
C178 C 0.55069 0.86733 0.95436 0.0
C179 C 0.57058 0.87838 0.97629 0.0
N180 N 0.60151 0.86152 0.08846 0.0
C181 C 0.6092 0.81954 0.12237 0.0
C182 C 0.60866 0.82377 0.07704 0.0
C183 C 0.60499 0.84463 0.06093 0.0
C184 C 0.60704 0.83733 0.14966 0.0
C185 C 0.60325 0.85774 0.13244 0.0
N186 N 0.57262 0.91765 0.05046 0.0
C187 C 0.53186 0.93742 0.03515 0.0
C188 C 0.54527 0.95681 0.0384 0.0
C189 C 0.57319 0.95606 0.04705 0.0
C190 C 0.58651 0.93637 0.05248 0.0
C191 C 0.5456 0.91841 0.0414 0.0
H192 H 0.60783 0.93633 0.05947 0.0
H193 H 0.53367 0.90428 0.04059 0.0
H194 H 0.60396 0.84692 0.02612 0.0
H195 H 0.60058 0.87036 0.15554 0.0
C196 C 0.65168 0.90155 0.07739 0.0
C197 C 0.5933 0.88955 0.9551 0.0
C198 C 0.57431 0.91073 0.17094 0.0
C199 C 0.53295 0.86283 0.06633 0.0
H200 H 0.64907 0.89581 0.93058 0.0
H201 H 0.6817 0.90031 0.99826 0.0
H202 H 0.66579 0.9235 0.15532 0.0
H203 H 0.6227 0.93147 0.20315 0.0
H204 H 0.524 0.89292 0.20159 0.0
H205 H 0.50206 0.86536 0.14611 0.0
H206 H 0.51627 0.84932 0.98039 0.0
H207 H 0.54803 0.86616 0.91946 0.0
H208 H 0.61016 0.811 0.05371 0.0
H209 H 0.60806 0.83567 0.18467 0.0
H210 H 0.51036 0.93682 0.02938 0.0
H211 H 0.58469 0.97053 0.0496 0.0
C212 C 0.19334 0.45096 0.03603 0.0
C213 C 0.2157 0.46415 0.03647 0.0
C214 C 0.20831 0.48209 0.05847 0.0
C215 C 0.18189 0.47906 0.06996 0.0
N216 N 0.17221 0.46027 0.05671 0.0
Co217 Co 0.1346 0.4503 0.06491 0.0
N218 N 0.12095 0.47949 0.0724 0.0
C219 C 0.13611 0.49633 0.08327 0.0
C220 C 0.12141 0.51451 0.08775 0.0
C221 C 0.09531 0.50873 0.07961 0.0
C222 C 0.0955 0.48721 0.07038 0.0
N223 N 0.09719 0.44035 0.07407 0.0
C224 C 0.0735 0.45116 0.07285 0.0
C225 C 0.0522 0.43766 0.08191 0.0
C226 C 0.06313 0.41806 0.08992 0.0
C227 C 0.09048 0.42049 0.08518 0.0
N228 N 0.14905 0.42145 0.05569 0.0
C229 C 0.13675 0.40351 0.06778 0.0
C230 C 0.15072 0.38592 0.05412 0.0
C231 C 0.17303 0.3934 0.03214 0.0
C232 C 0.17151 0.41522 0.03336 0.0
N233 N 0.13964 0.44765 0.12908 0.0
C234 C 0.1338 0.43216 0.21564 0.0
C235 C 0.15614 0.42665 0.18934 0.0
C236 C 0.15873 0.43459 0.14651 0.0
C237 C 0.11616 0.44729 0.19846 0.0
C238 C 0.1196 0.45495 0.15599 0.0
N239 N 0.12762 0.45164 1.00204 0.0
C240 C 0.10505 0.43496 0.9419 0.0
C241 C 0.11323 0.45079 0.9133 0.0
C242 C 0.12855 0.46764 0.93067 0.0
C243 C 0.13534 0.46786 0.97548 0.0
C244 C 0.1131 0.43532 0.98484 0.0
H245 H 0.14677 0.48094 0.9886 0.0
H246 H 0.10701 0.42214 1.00418 0.0
H247 H 0.17524 0.42906 0.12659 0.0
H248 H 0.10427 0.46537 0.14392 0.0
C249 C 0.16422 0.49501 0.08318 0.0
C250 C 0.19269 0.42967 1.01642 0.0
C251 C 0.07092 0.47429 0.06607 0.0
C252 C 0.10983 0.40412 0.08277 0.0
H253 H 0.23517 0.46152 0.0218 0.0
H254 H 0.22025 0.49625 0.0628 0.0
H255 H 0.1288 0.53018 0.09526 0.0
H256 H 0.07808 0.51912 0.08166 0.0
H257 H 0.03099 0.44151 0.08273 0.0
H258 H 0.05227 0.40362 0.09665 0.0
H259 H 0.14473 0.36958 0.05758 0.0
H260 H 0.18859 0.38396 1.01695 0.0
H261 H 0.17122 0.41574 0.20104 0.0
H262 H 0.09854 0.45236 0.21635 0.0
H263 H 0.09222 0.42207 0.93161 0.0
H264 H 0.13539 0.48037 0.91003 0.0
C265 C 0.62192 0.63235 0.39356 0.0
C266 C 0.64759 0.63028 0.41089 0.0
C267 C 0.66488 0.6287 0.37628 0.0
C268 C 0.64889 0.63002 0.33991 0.0
N269 N 0.62266 0.63251 0.34948 0.0
Co270 Co 0.59291 0.6354 0.30686 0.0
N271 N 0.61435 0.62118 0.26108 0.0
C272 C 0.64119 0.61801 0.26184 0.0
C273 C 0.65017 0.6059 0.22778 0.0
C274 C 0.6277 0.60152 0.20369 0.0
C275 C 0.60618 0.61169 0.22393 0.0
N276 N 0.56342 0.63847 0.26419 0.0
C277 C 0.56034 0.62959 0.22411 0.0
C278 C 0.53752 0.6375 0.20392 0.0
C279 C 0.52622 0.65186 0.23235 0.0
C280 C 0.54275 0.65205 0.26828 0.0
N281 N 0.57236 0.64912 0.35465 0.0
C282 C 0.55064 0.66147 0.34942 0.0
C283 C 0.53946 0.66722 0.38877 0.0
C284 C 0.55519 0.65784 0.42033 0.0
C285 C 0.57525 0.64683 0.39865 0.0
N286 N 0.60657 0.66372 0.28667 0.0
C287 C 0.61096 0.706 0.25307 0.0
C288 C 0.61124 0.70166 0.29833 0.0
C289 C 0.60924 0.68066 0.31429 0.0
C290 C 0.61035 0.68822 0.22558 0.0
C291 C 0.60829 0.6676 0.2427 0.0
N292 N 0.57701 0.60776 0.32431 0.0
C293 C 0.53585 0.58854 0.33974 0.0
C294 C 0.54889 0.56904 0.33692 0.0
C295 C 0.57683 0.56939 0.3283 0.0
C296 C 0.59056 0.5889 0.32263 0.0
C297 C 0.54995 0.60734 0.33317 0.0
H298 H 0.61189 0.58869 0.31578 0.0
H299 H 0.53826 0.62155 0.33363 0.0
H300 H 0.60858 0.67828 0.3491 0.0
H301 H 0.60633 0.65492 0.21955 0.0
C302 C 0.65651 0.62356 0.29826 0.0
C303 C 0.59747 0.63487 0.41978 0.0
C304 C 0.57988 0.61516 0.20307 0.0
C305 C 0.53817 0.66272 0.30814 0.0
H306 H 0.65318 0.62965 0.44492 0.0
H307 H 0.68628 0.62551 0.37757 0.0
H308 H 0.67045 0.60035 0.22189 0.0
H309 H 0.62744 0.59244 0.17378 0.0
H310 H 0.53008 0.63353 0.1718 0.0
H311 H 0.50793 0.66083 0.22756 0.0
H312 H 0.52105 0.67601 0.39396 0.0
H313 H 0.55193 0.65871 0.45511 0.0
H314 H 0.61249 0.71445 0.32169 0.0
H315 H 0.60998 0.69009 0.19058 0.0
H316 H 0.51435 0.58938 0.34547 0.0
H317 H 0.58799 0.55476 0.32602 0.0
C318 C 0.31927 0.07933 0.54177 0.0
C319 C 0.29685 0.06619 0.54248 0.0
C320 C 0.3043 0.04827 0.56419 0.0
C321 C 0.33079 0.05128 0.57529 0.0
N322 N 0.34042 0.07007 0.56219 0.0
Co323 Co 0.3781 0.08001 0.56908 0.0
N324 N 0.39173 0.05078 0.5756 0.0
C325 C 0.37663 0.03376 0.58515 0.0
C326 C 0.39107 0.01534 0.58507 0.0
C327 C 0.41694 0.02115 0.57548 0.0
C328 C 0.41701 0.04301 0.57107 0.0
N329 N 0.41562 0.08992 0.57673 0.0
C330 C 0.43921 0.07906 0.57436 0.0
C331 C 0.46067 0.0923 0.58404 0.0
C332 C 0.44996 0.11194 0.59283 0.0
C333 C 0.42254 0.1097 0.58831 0.0
N334 N 0.3636 0.10887 0.56088 0.0
C335 C 0.37606 0.12677 0.57303 0.0
C336 C 0.36177 0.14439 0.56064 0.0
C337 C 0.33911 0.13695 0.53943 0.0
C338 C 0.34074 0.11513 0.53976 0.0
N339 N 0.374 0.08262 0.63339 0.0
C340 C 0.38084 0.09821 0.7198 0.0
C341 C 0.3581 0.10357 0.6944 0.0
C342 C 0.35501 0.09558 0.65163 0.0
C343 C 0.39838 0.08313 0.70189 0.0
C344 C 0.39444 0.07542 0.65946 0.0
N345 N 0.38401 0.07871 0.50598 0.0
C346 C 0.40306 0.09626 0.44389 0.0
C347 C 0.39299 0.08082 0.41618 0.0
C348 C 0.3786 0.0638 0.43403 0.0
C349 C 0.37459 0.0629 0.47954 0.0
C350 C 0.3981 0.09508 0.48804 0.0
H351 H 0.36347 0.04984 0.49324 0.0
H352 H 0.40525 0.10802 0.50736 0.0
H353 H 0.33819 0.10099 0.63236 0.0
H354 H 0.40964 0.06503 0.64665 0.0
C355 C 0.34856 0.03514 0.58657 0.0
C356 C 0.31971 0.10059 0.5224 0.0
C357 C 0.44155 0.056 0.56702 0.0
C358 C 0.4032 0.12612 0.58706 0.0
H359 H 0.27735 0.06888 0.5279 0.0
H360 H 0.29241 0.03408 0.56821 0.0
H361 H 0.38352 0.99946 0.58956 0.0
H362 H 0.43368 1.01037 0.57237 0.0
H363 H 0.48179 0.08813 0.58512 0.0
H364 H 0.46097 0.12625 0.60027 0.0
H365 H 0.36777 0.16072 0.56441 0.0
H366 H 0.32333 0.14643 0.5251 0.0
H367 H 0.3431 0.11442 0.70676 0.0
H368 H 0.41624 0.07817 0.71917 0.0
H369 H 0.41379 0.10982 0.43118 0.0
H370 H 0.37011 0.05172 0.41312 0.0
C371 C 0.89412 0.89192 0.89926 0.0
C372 C 0.86844 0.89359 0.91682 0.0
C373 C 0.85107 0.89552 0.88242 0.0
C374 C 0.86702 0.89478 0.84593 0.0
N375 N 0.89331 0.89237 0.85516 0.0
Co376 Co 0.92287 0.88991 0.81197 0.0
N377 N 0.90102 0.9041 0.76682 0.0
C378 C 0.87411 0.90683 0.76784 0.0
C379 C 0.86467 0.91859 0.73377 0.0
C380 C 0.88693 0.92325 0.70941 0.0
C381 C 0.9088 0.91363 0.7296 0.0
N382 N 0.95221 0.8873 0.76879 0.0
C383 C 0.95518 0.89667 0.72933 0.0
C384 C 0.97816 0.88926 0.70867 0.0
C385 C 0.98969 0.8747 0.73619 0.0
C386 C 0.97314 0.87394 0.77206 0.0
N387 N 0.94388 0.87606 0.85894 0.0
C388 C 0.9658 0.86398 0.85281 0.0
C389 C 0.97724 0.85793 0.89163 0.0
C390 C 0.96148 0.86677 0.92388 0.0
C391 C 0.94106 0.87773 0.90311 0.0
N392 N 0.90935 0.86165 0.79114 0.0
C393 C 0.90231 0.81975 0.75629 0.0
C394 C 0.90286 0.82383 0.8017 0.0
C395 C 0.90622 0.84467 0.81829 0.0
C396 C 0.90395 0.8376 0.72939 0.0
C397 C 0.90739 0.858 0.74708 0.0
N398 N 0.93843 0.91765 0.82996 0.0
C399 C 0.97936 0.93744 0.8442 0.0
C400 C 0.96596 0.9568 0.84112 0.0
C401 C 0.93795 0.95605 0.83327 0.0
C402 C 0.92454 0.93635 0.8283 0.0
C403 C 0.96552 0.91841 0.83844 0.0
H404 H 0.90316 0.9363 0.82184 0.0
H405 H 0.97741 0.9043 0.83898 0.0
H406 H 0.90736 0.84688 0.85315 0.0
H407 H 0.90969 0.87072 0.7243 0.0
C408 C 0.85911 0.90118 0.80447 0.0
C409 C 0.91858 0.88897 0.92533 0.0
C410 C 0.93546 0.91115 0.70927 0.0
C411 C 0.97808 0.86311 0.81138 0.0
H412 H 0.86286 0.8936 0.95089 0.0
H413 H 0.82961 0.8984 0.88402 0.0
H414 H 0.84421 0.92378 0.72807 0.0
H415 H 0.88682 0.93229 0.6796 0.0
H416 H 0.98558 0.8937 0.67685 0.0
H417 H 0.0082 0.86605 0.73094 0.0
H418 H 0.99581 0.84928 0.89609 0.0
H419 H 0.96498 0.86555 0.95852 0.0
H420 H 0.90167 0.81095 0.82465 0.0
H421 H 0.90284 0.83599 0.69435 0.0
H422 H 1.00092 0.93686 0.84937 0.0
H423 H 0.92648 0.97052 0.83093 0.0
C424 C 0.69824 0.57907 0.83666 0.0
C425 C 0.72141 0.56686 0.83904 0.0
C426 C 0.71468 0.54719 0.82429 0.0
C427 C 0.68788 0.54834 0.81388 0.0
N428 N 0.67736 0.56769 0.82027 0.0
Co429 Co 0.63923 0.57588 0.80901 0.0
N430 N 0.62701 0.54609 0.81011 0.0
C431 C 0.64296 0.52912 0.81531 0.0
C432 C 0.62962 0.51219 0.83266 0.0
C433 C 0.60356 0.51875 0.83735 0.0
C434 C 0.60202 0.53889 0.81967 0.0
N435 N 0.60138 0.5837 0.79487 0.0
C436 C 0.57911 0.57121 0.78898 0.0
C437 C 0.55952 0.58239 0.76634 0.0
C438 C 0.56938 0.60239 0.75962 0.0
C439 C 0.59476 0.60242 0.77713 0.0
N440 N 0.65204 0.60554 0.81242 0.0
C441 C 0.63863 0.62239 0.79744 0.0
C442 C 0.65113 0.64106 0.8086 0.0
C443 C 0.67368 0.63544 0.83224 0.0
C444 C 0.67378 0.61361 0.83429 0.0
N445 N 0.64516 0.57505 0.74446 0.0
C446 C 0.63546 0.58546 0.65551 0.0
C447 C 0.65489 0.59628 0.68035 0.0
C448 C 0.66 0.59045 0.72408 0.0
C449 C 0.62314 0.56797 0.67521 0.0
C450 C 0.62823 0.56305 0.71911 0.0
N451 N 0.63141 0.57815 0.87179 0.0
C452 C 0.60887 0.59804 0.92805 0.0
C453 C 0.62021 0.58549 0.96018 0.0
C454 C 0.63707 0.56875 0.9475 0.0
C455 C 0.64235 0.56526 0.90283 0.0
C456 C 0.61474 0.59422 0.8846 0.0
H457 H 0.65562 0.55254 0.89356 0.0
H458 H 0.60623 0.60498 0.86155 0.0
H459 H 0.67477 0.59944 0.74206 0.0
H460 H 0.61649 0.5505 0.73306 0.0
C461 C 0.67087 0.53089 0.81264 0.0
C462 C 0.69608 0.60081 0.85294 0.0
C463 C 0.57699 0.54853 0.80226 0.0
C464 C 0.61271 0.61976 0.77934 0.0
H465 H 0.74086 0.57114 0.85206 0.0
H466 H 0.72716 0.53319 0.82543 0.0
H467 H 0.63807 0.49726 0.84285 0.0
H468 H 0.5873 0.50924 0.85016 0.0
H469 H 0.54055 0.57673 0.75379 0.0
H470 H 0.55939 0.61523 0.743 0.0
H471 H 0.64419 0.6569 0.80186 0.0
H472 H 0.68848 0.64609 0.84598 0.0
H473 H 0.66587 0.60937 0.66632 0.0
H474 H 0.60836 0.55873 0.65753 0.0
H475 H 0.59612 0.61131 0.9366 0.0
H476 H 0.64657 0.55888 0.97176 0.0
C477 C 0.39408 0.13568 0.98709 0.0
C478 C 0.36865 0.134 0.96865 0.0
C479 C 0.35093 0.1315 1.0024 0.0
C480 C 0.36646 0.13172 0.03937 0.0
N481 N 0.39283 0.13438 0.031 0.0
Co482 Co 0.42218 0.13563 0.07474 0.0
N483 N 0.39993 0.12037 0.11774 0.0
C484 C 0.37315 0.11703 0.11542 0.0
C485 C 0.36403 0.10312 0.14613 0.0
C486 C 0.38633 0.09769 0.16963 0.0
C487 C 0.40784 0.10917 0.15274 0.0
N488 N 0.45115 0.13728 0.11868 0.0
C489 C 0.45354 0.12727 0.15754 0.0
C490 C 0.47619 0.13441 0.17959 0.0
C491 C 0.48813 0.1494 0.15351 0.0
C492 C 0.47213 0.15072 0.11709 0.0
N493 N 0.44379 0.15018 0.02966 0.0
C494 C 0.4658 0.162 0.03691 0.0
C495 C 0.47773 0.16832 0.99856 0.0
C496 C 0.46219 0.15982 0.96554 0.0
C497 C 0.44164 0.1487 0.9855 0.0
N498 N 0.40879 0.16358 0.09797 0.0
C499 C 0.40399 0.20447 0.13841 0.0
C500 C 0.40485 0.20201 0.09263 0.0
C501 C 0.40722 0.18158 0.07318 0.0
C502 C 0.40354 0.18569 0.1626 0.0
C503 C 0.40583 0.16583 0.14223 0.0
N504 N 0.43771 0.10817 0.05469 0.0
C505 C 0.47904 0.08818 0.04598 0.0
C506 C 0.46538 0.06893 0.04856 0.0
C507 C 0.43702 0.06977 0.05081 0.0
C508 C 0.42357 0.08955 0.05384 0.0
C509 C 0.46508 0.10729 0.04877 0.0
H510 H 0.40195 0.08969 0.05776 0.0
H511 H 0.47707 0.12138 0.04906 0.0
H512 H 0.40907 0.1805 0.03818 0.0
H513 H 0.40686 0.15234 0.1633 0.0
C514 C 0.35829 0.12384 0.07956 0.0
C515 C 0.41908 0.13821 0.96244 0.0
C516 C 0.43357 0.11238 0.17572 0.0
C517 C 0.47765 0.16222 0.07872 0.0
H518 H 0.36337 0.13398 0.93452 0.0
H519 H 0.32958 0.12822 0.99995 0.0
H520 H 0.34382 0.09698 0.1499 0.0
H521 H 0.38647 0.08709 0.19718 0.0
H522 H 0.48315 0.12948 0.21135 0.0
H523 H 0.50655 0.15798 0.16006 0.0
H524 H 0.49639 0.17696 0.9949 0.0
H525 H 0.46559 0.16148 0.93092 0.0
H526 H 0.40503 0.2158 0.07192 0.0
H527 H 0.40218 0.18624 0.19777 0.0
H528 H 0.5008 0.08853 0.04347 0.0
H529 H 0.42542 0.05532 0.05258 0.0
C530 C 0.82003 0.94916 0.33388 0.0
C531 C 0.79622 0.96009 0.32652 0.0
C532 C 0.80315 0.97901 0.30864 0.0
C533 C 0.83067 0.97878 0.30626 0.0
N534 N 0.84182 0.96086 0.32123 0.0
Co535 Co 0.8814 0.95421 0.32034 0.0
N536 N 0.89146 0.98422 0.30807 0.0
C537 C 0.87417 0.99991 0.2987 0.0
C538 C 0.88629 0.01918 0.2939 0.0
C539 C 0.91311 0.0155 0.30004 0.0
C540 C 0.91589 0.994 0.30759 0.0
N541 N 0.92057 0.94717 0.31601 0.0
C542 C 0.94242 0.95981 0.30884 0.0
C543 C 0.96567 0.9479 0.30449 0.0
C544 C 0.95816 0.92716 0.30877 0.0
C545 C 0.93082 0.92753 0.31553 0.0
N546 N 0.87067 0.92466 0.33551 0.0
C547 C 0.88708 0.90779 0.33494 0.0
C548 C 0.87492 0.88978 0.35024 0.0
C549 C 0.84923 0.89567 0.3615 0.0
C550 C 0.84706 0.91698 0.3524 0.0
N551 N 0.8794 0.94773 0.25621 0.0
C552 C 0.8864 0.93444 0.16775 0.0
C553 C 0.86853 0.9239 0.19597 0.0
C554 C 0.86503 0.93096 0.23965 0.0
C555 C 0.89984 0.95204 0.18475 0.0
C556 C 0.8963 0.95822 0.22823 0.0
N557 N 0.8854 0.95992 0.38443 0.0
C558 C 0.9164 0.95791 0.4453 0.0
C559 C 0.89586 0.95109 0.47274 0.0
C560 C 0.8694 0.95259 0.45727 0.0
C561 C 0.8646 0.95742 0.41331 0.0
C562 C 0.9106 0.9628 0.40198 0.0
H563 H 0.84408 0.95848 0.40329 0.0
H564 H 0.92724 0.96791 0.3831 0.0
H565 H 0.85111 0.92244 0.26009 0.0
H566 H 0.90851 0.97114 0.23899 0.0
C567 C 0.84662 0.99618 0.29674 0.0
C568 C 0.82158 0.92893 0.35756 0.0
C569 C 0.94207 0.98315 0.30919 0.0
C570 C 0.91437 0.9101 0.32446 0.0
H571 H 0.77588 0.95554 0.33437 0.0
H572 H 0.78976 0.99189 0.30056 0.0
H573 H 0.87677 0.03416 0.287 0.0
H574 H 0.9287 0.02736 0.29802 0.0
H575 H 0.98595 0.95366 0.29938 0.0
H576 H 0.9712 0.91348 0.30788 0.0
H577 H 0.88389 0.87433 0.35401 0.0
H578 H 0.83375 0.88548 0.37463 0.0
H579 H 0.85718 0.91042 0.18436 0.0
H580 H 0.9139 0.9608 0.16476 0.0
H581 H 0.93714 0.95823 0.4562 0.0
H582 H 0.85259 0.94932 0.47868 0.0
C583 C 0.1192 0.39308 0.48433 0.0
C584 C 0.14518 0.39392 0.46774 0.0
C585 C 0.16216 0.39489 0.50287 0.0
C586 C 0.14567 0.39467 0.53877 0.0
N587 N 0.11943 0.3935 0.5284 0.0
Co588 Co 0.0889 0.39315 0.57 0.0
N589 N 0.11098 0.40704 0.61546 0.0
C590 C 0.13811 0.40788 0.61613 0.0
C591 C 0.14808 0.4187 0.65123 0.0
C592 C 0.12591 0.42476 0.67448 0.0
C593 C 0.10337 0.41719 0.65226 0.0
N594 N 0.05863 0.39247 0.61153 0.0
C595 C 0.0556 0.40257 0.65028 0.0
C596 C 0.03146 0.39673 0.66964 0.0
C597 C 0.01938 0.38234 0.6422 0.0
C598 C 0.03668 0.38013 0.60756 0.0
N599 N 0.06765 0.37991 0.52265 0.0
C600 C 0.04468 0.36899 0.52761 0.0
C601 C 0.03338 0.36362 0.4881 0.0
C602 C 0.05034 0.37181 0.45674 0.0
C603 C 0.07105 0.38182 0.47879 0.0
N604 N 0.0998 0.36458 0.59296 0.0
C605 C 0.10294 0.32356 0.63255 0.0
C606 C 0.10298 0.32612 0.58678 0.0
C607 C 0.10141 0.34665 0.56773 0.0
C608 C 0.10312 0.34224 0.65721 0.0
C609 C 0.10152 0.36212 0.6373 0.0
N610 N 0.076 0.42129 0.55016 0.0
C611 C 0.03698 0.44362 0.5383 0.0
C612 C 0.05242 0.4621 0.54134 0.0
C613 C 0.08056 0.45939 0.54627 0.0
C614 C 0.09189 0.43896 0.55052 0.0
C615 C 0.04898 0.42373 0.54244 0.0
H616 H 0.11331 0.43753 0.5559 0.0
H617 H 0.03573 0.41033 0.54199 0.0
H618 H 0.10037 0.34788 0.53268 0.0
H619 H 0.10014 0.37545 0.65882 0.0
C620 C 0.15332 0.40096 0.58055 0.0
C621 C 0.0947 0.39181 0.45793 0.0
C622 C 0.07614 0.41617 0.67136 0.0
C623 C 0.03155 0.36908 0.56836 0.0
H624 H 0.15133 0.39426 0.43399 0.0
H625 H 0.18378 0.39707 0.50216 0.0
H626 H 0.16894 0.42207 0.65874 0.0
H627 H 0.12664 0.43302 0.7053 0.0
H628 H 0.02362 0.4021 0.70063 0.0
H629 H 1.0 0.37482 0.64657 0.0
H630 H 0.01423 0.3559 0.48262 0.0
H631 H 0.04769 0.37074 0.42182 0.0
H632 H 0.10301 0.31238 0.56574 0.0
H633 H 0.10378 0.34163 0.69243 0.0
H634 H 0.0153 0.44431 0.53511 0.0
H635 H 0.09382 0.47292 0.54776 0.0
C636 C 0.69353 0.94807 0.54465 0.0
C637 C 0.71692 0.95946 0.55274 0.0
C638 C 0.70933 0.97786 0.57239 0.0
C639 C 0.68184 0.97689 0.57497 0.0
N640 N 0.67129 0.95903 0.55833 0.0
Co641 Co 0.63188 0.95151 0.55861 0.0
N642 N 0.62085 0.98094 0.57464 0.0
C643 C 0.6376 0.99655 0.58703 0.0
C644 C 0.62476 0.0151 0.59691 0.0
C645 C 0.59804 1.01099 0.59088 0.0
C646 C 0.59609 0.99006 0.57757 0.0
N647 N 0.59279 0.94363 0.56139 0.0
C648 C 0.57046 0.95563 0.56953 0.0
C649 C 0.54746 0.94322 0.57062 0.0
C650 C 0.55564 0.92281 0.5637 0.0
C651 C 0.58308 0.92386 0.55849 0.0
N652 N 0.64363 0.92247 0.54078 0.0
C653 C 0.62767 0.90532 0.53922 0.0
C654 C 0.64053 0.88774 0.52316 0.0
C655 C 0.66625 0.89418 0.51366 0.0
C656 C 0.66772 0.91538 0.52446 0.0
N657 N 0.63411 0.94371 0.62181 0.0
C658 C 0.62807 0.92655 0.70767 0.0
C659 C 0.64914 0.92018 0.67943 0.0
C660 C 0.65175 0.92883 0.63704 0.0
C661 C 0.61128 0.94265 0.69199 0.0
C662 C 0.61481 0.95103 0.6501 0.0
N663 N 0.62772 0.95852 0.49525 0.0
C664 C 0.59573 0.95788 0.43562 0.0
C665 C 0.61522 0.94969 0.40762 0.0
C666 C 0.64197 0.95003 0.42198 0.0
C667 C 0.64782 0.95493 0.4656 0.0
C668 C 0.60263 0.96281 0.47866 0.0
H669 H 0.66848 0.95511 0.47486 0.0
H670 H 0.58691 0.96898 0.49836 0.0
H671 H 0.6676 0.92297 0.61621 0.0
H672 H 0.60065 0.96282 0.64035 0.0
C673 C 0.66528 0.99347 0.58766 0.0
C674 C 0.69287 0.92785 0.52047 0.0
C675 C 0.57026 0.97891 0.57374 0.0
C676 C 0.60017 0.90699 0.54843 0.0
H677 H 0.73741 0.95546 0.54461 0.0
H678 H 0.72228 0.99083 0.58196 0.0
H679 H 0.63374 0.0298 0.60761 0.0
H680 H 0.58179 0.02194 0.59727 0.0
H681 H 0.52691 0.9484 0.57537 0.0
H682 H 0.54299 0.90891 0.56191 0.0
H683 H 0.632 0.87223 0.51772 0.0
H684 H 0.68217 0.88445 0.50036 0.0
H685 H 0.66352 0.90835 0.68948 0.0
H686 H 0.59447 0.94839 0.71099 0.0
H687 H 0.57492 0.95923 0.42542 0.0
H688 H 0.65813 0.94577 0.4 0.0
C689 C 0.11941 0.1342 0.88476 0.0
C690 C 0.14547 0.13216 0.9005 0.0
C691 C 0.16189 0.1303 0.86485 0.0
C692 C 0.145 0.13122 0.82953 0.0
N693 N 0.11902 0.13365 0.84069 0.0
Co694 Co 0.08811 0.13551 0.79995 0.0
N695 N 0.10863 0.1208 0.75363 0.0
C696 C 0.13563 0.11856 0.75236 0.0
C697 C 0.1444 0.10736 0.71695 0.0
C698 C 0.12161 0.10254 0.69409 0.0
C699 C 0.09991 0.11122 0.7168 0.0
N700 N 0.05751 0.13771 0.75925 0.0
C701 C 0.05344 0.12811 0.7202 0.0
C702 C 0.02959 0.13512 0.70164 0.0
C703 C 0.01878 0.14976 0.72986 0.0
C704 C 0.03651 0.15094 0.76413 0.0
N705 N 0.06838 0.14955 0.84813 0.0
C706 C 0.0462 0.16148 0.84393 0.0
C707 C 0.03587 0.16745 0.88376 0.0
C708 C 0.05263 0.15861 0.91458 0.0
C709 C 0.07226 0.14764 0.89189 0.0
N710 N 0.10083 0.16366 0.77712 0.0
C711 C 0.10796 0.20454 0.73808 0.0
C712 C 0.10651 0.20192 0.78376 0.0
C713 C 0.10331 0.18148 0.80253 0.0
C714 C 0.10645 0.18598 0.71316 0.0
C715 C 0.10284 0.16617 0.7328 0.0
N716 N 0.07331 0.10786 0.8197 0.0
C717 C 0.03248 0.08769 0.83178 0.0
C718 C 0.04605 0.06855 0.8266 0.0
C719 C 0.07423 0.06947 0.82112 0.0
C720 C 0.08748 0.08929 0.81771 0.0
C721 C 0.04627 0.10687 0.82859 0.0
H722 H 0.10887 0.08956 0.81127 0.0
H723 H 0.0343 0.12093 0.83052 0.0
H724 H 0.10201 0.18024 0.83755 0.0
H725 H 0.10034 0.15302 0.71111 0.0
C726 C 0.15169 0.12462 0.78756 0.0
C727 C 0.09546 0.13676 0.91206 0.0
C728 C 0.07279 0.1139 0.69802 0.0
C729 C 0.03262 0.16205 0.8036 0.0
H730 H 0.15201 0.13164 0.93404 0.0
H731 H 0.18331 0.12714 0.86487 0.0
H732 H 0.16487 0.10296 0.70896 0.0
H733 H 0.12146 0.09437 0.66316 0.0
H734 H 0.02114 0.13037 0.67063 0.0
H735 H 0.99997 0.15818 0.72615 0.0
H736 H 0.01743 0.17606 0.88985 0.0
H737 H 0.0506 0.15991 0.94957 0.0
H738 H 0.10784 0.21556 0.80499 0.0
H739 H 0.10698 0.18669 0.67794 0.0
H740 H 0.01087 0.08792 0.83665 0.0
H741 H 0.08571 0.05507 0.81717 0.0
C742 C 0.81965 0.5796 0.03769 0.0
C743 C 0.79628 0.56758 0.03967 0.0
C744 C 0.80286 0.54917 0.06037 0.0
C745 C 0.82981 0.55079 0.06965 0.0
N746 N 0.84055 0.56918 0.05642 0.0
Co747 Co 0.87908 0.57731 0.06187 0.0
N748 N 0.89065 0.54742 0.06689 0.0
C749 C 0.87445 0.53103 0.07645 0.0
C750 C 0.88762 0.51203 0.07601 0.0
C751 C 0.91383 0.51676 0.06614 0.0
C752 C 0.91534 0.53856 0.06174 0.0
N753 N 0.91735 0.5854 0.06887 0.0
C754 C 0.94009 0.57351 0.06594 0.0
C755 C 0.96256 0.5857 0.07541 0.0
C756 C 0.9534 0.60577 0.08461 0.0
C757 C 0.92584 0.60481 0.08054 0.0
N758 N 0.86673 0.6068 0.0543 0.0
C759 C 0.8808 0.6241 0.06539 0.0
C760 C 0.86807 0.64232 0.05221 0.0
C761 C 0.84473 0.63589 0.03153 0.0
C762 C 0.84441 0.61405 0.03301 0.0
N763 N 0.87596 0.57974 0.12652 0.0
C764 C 0.88392 0.59115 0.21523 0.0
C765 C 0.8638 0.60081 0.18994 0.0
C766 C 0.85976 0.59457 0.14605 0.0
C767 C 0.89868 0.57487 0.19574 0.0
C768 C 0.89464 0.56959 0.15189 0.0
N769 N 0.88405 0.5761 0.99845 0.0
C770 C 0.90393 0.59285 0.93603 0.0
C771 C 0.89109 0.57881 0.9082 0.0
C772 C 0.87487 0.56284 0.92611 0.0
C773 C 0.87193 0.56155 0.97181 0.0
C774 C 0.89988 0.59146 0.98042 0.0
H775 H 0.8594 0.5493 0.98548 0.0
H776 H 0.90903 0.60357 0.9998 0.0
H777 H 0.84437 0.6025 0.12744 0.0
H778 H 0.90818 0.55814 0.13818 0.0
C779 C 0.84657 0.53373 0.07933 0.0
C780 C 0.82171 0.6006 1.0175 0.0
C781 C 0.94075 0.55046 0.05763 0.0
C782 C 0.90787 0.62214 0.07914 0.0
H783 H 0.77667 0.57118 0.02654 0.0
H784 H 0.78999 0.53555 0.06485 0.0
H785 H 0.87905 0.4965 0.08086 0.0
H786 H 0.92991 0.50536 0.06315 0.0
H787 H 0.98335 0.58059 0.07587 0.0
H788 H 0.96552 0.61955 0.09181 0.0
H789 H 0.87551 0.65832 0.05512 0.0
H790 H 0.8297 0.64603 1.01702 0.0
H791 H 0.85138 0.61314 0.20386 0.0
H792 H 0.91429 0.5668 0.21382 0.0
H793 H 0.91609 0.60566 0.92332 0.0
H794 H 0.8642 0.55189 0.90517 0.0
C795 C 0.39024 0.39594 0.39072 0.0
C796 C 0.36478 0.39797 0.40888 0.0
C797 C 0.34718 0.40012 0.37487 0.0
C798 C 0.36279 0.39914 0.33801 0.0
N799 N 0.38908 0.39628 0.3467 0.0
Co800 Co 0.41836 0.39356 0.30315 0.0
N801 N 0.39673 0.40862 0.25894 0.0
C802 C 0.37007 0.41248 0.26097 0.0
C803 C 0.36126 0.42563 0.22868 0.0
C804 C 0.38363 0.42996 0.20434 0.0
C805 C 0.40485 0.41862 0.22247 0.0
N806 N 0.44728 0.39054 0.25937 0.0
C807 C 0.44994 0.39958 0.2195 0.0
C808 C 0.47235 0.39153 0.19819 0.0
C809 C 0.48382 0.37694 0.2257 0.0
C810 C 0.4678 0.37675 0.26222 0.0
N811 N 0.43926 0.37931 0.34965 0.0
C812 C 0.46088 0.36697 0.34328 0.0
C813 C 0.47249 0.36097 0.38204 0.0
C814 C 0.45716 0.37021 0.41446 0.0
C815 C 0.43691 0.38138 0.39382 0.0
N816 N 0.40405 0.36552 0.2816 0.0
C817 C 0.39712 0.32435 0.2427 0.0
C818 C 0.39991 0.32713 0.28823 0.0
C819 C 0.40299 0.34767 0.30693 0.0
C820 C 0.39687 0.34297 0.21799 0.0
C821 C 0.40028 0.36292 0.23756 0.0
N822 N 0.43488 0.42091 0.32142 0.0
C823 C 0.47688 0.44007 0.32963 0.0
C824 C 0.46388 0.45954 0.32648 0.0
C825 C 0.43552 0.4593 0.32396 0.0
C826 C 0.42138 0.43981 0.32143 0.0
C827 C 0.46225 0.42125 0.32738 0.0
H828 H 0.39978 0.44006 0.31737 0.0
H829 H 0.47373 0.40693 0.3277 0.0
H830 H 0.40552 0.34893 0.34178 0.0
H831 H 0.40144 0.37613 0.21584 0.0
C832 C 0.35494 0.40651 0.29724 0.0
C833 C 0.41497 0.39327 0.41607 0.0
C834 C 0.43041 0.41437 0.19974 0.0
C835 C 0.4728 0.36587 0.30154 0.0
H836 H 0.35956 0.39832 0.4431 0.0
H837 H 0.32587 0.40357 0.37697 0.0
H838 H 0.34119 0.4319 0.22417 0.0
H839 H 0.38396 0.43971 0.1755 0.0
H840 H 0.47943 0.39557 0.16594 0.0
H841 H 0.50191 0.36783 0.21994 0.0
H842 H 0.49091 0.35211 0.38633 0.0
H843 H 0.46081 0.36914 0.44909 0.0
H844 H 0.39985 0.31352 0.30945 0.0
H845 H 0.39525 0.34226 0.18287 0.0
H846 H 0.49862 0.43931 0.33224 0.0
H847 H 0.42447 0.47398 0.32168 0.0
H848 H 0.31445 0.10478 0.43313 0.0
H849 H 0.26961 0.11114 0.55236 0.0
H850 H 0.22743 0.11308 0.51112 0.0
H851 H 0.20248 0.10828 0.44098 0.0
H852 H 0.24753 0.10517 0.3214 0.0
H853 H 0.28987 0.10698 0.36222 0.0
C854 C 0.29554 0.1073 0.45001 0.0
C855 C 0.29542 0.10774 0.49611 0.0
C856 C 0.27111 0.10867 0.42576 0.0
C857 C 0.2705 0.11087 0.51712 0.0
C858 C 0.24624 0.11177 0.49342 0.0
C859 C 0.22154 0.10865 0.42377 0.0
C860 C 0.22159 0.10634 0.37789 0.0
C861 C 0.24611 0.11003 0.44772 0.0
C862 C 0.24669 0.10687 0.35649 0.0
C863 C 0.27103 0.10774 0.37997 0.0
H864 H 0.92224 0.80389 0.67743 0.0
H865 H 0.8773 0.7842 0.7906 0.0
H866 H 0.8737 0.74864 0.76036 0.0
H867 H 0.88264 0.72257 0.70121 0.0
H868 H 0.92751 0.74261 0.58817 0.0
H869 H 0.93071 0.77811 0.61826 0.0
C870 C 0.9113 0.79204 0.69561 0.0
C871 C 0.90012 0.7974 0.73693 0.0
C872 C 0.90897 0.77131 0.67764 0.0
C873 C 0.88661 0.78109 0.75939 0.0
C874 C 0.88432 0.76053 0.74178 0.0
C875 C 0.8933 0.73455 0.68295 0.0
C876 C 0.90461 0.72927 0.64164 0.0
C877 C 0.89542 0.75535 0.70088 0.0
C878 C 0.91796 0.74567 0.61922 0.0
C879 C 0.92009 0.76619 0.63677 0.0
H880 H 0.26414 0.41863 0.84498 0.0
H881 H 0.32842 0.42564 0.93781 0.0
H882 H 0.29588 0.42383 0.99784 0.0
H883 H 0.24826 0.42472 0.02403 0.0
H884 H 0.18382 0.42072 0.93059 0.0
H885 H 0.21674 0.41665 0.87153 0.0
C886 C 0.2711 0.41919 0.87842 0.0
C887 C 0.299 0.42215 0.88657 0.0
C888 C 0.25192 0.41906 0.91295 0.0
C889 C 0.30737 0.42307 0.93029 0.0
C890 C 0.28858 0.42232 0.96473 0.0
C891 C 0.24139 0.42275 0.99076 0.0
C892 C 0.21331 0.4233 0.98201 0.0
C893 C 0.26068 0.42102 0.95653 0.0
C894 C 0.20507 0.42036 0.9386 0.0
C895 C 0.22401 0.41818 0.90465 0.0
H896 H 0.59069 0.8032 0.2018 0.0
H897 H 0.63417 0.78422 0.08634 0.0
H898 H 0.63854 0.74862 0.11538 0.0
H899 H 0.63069 0.72224 0.17402 0.0
H900 H 0.58767 0.74157 0.28964 0.0
H901 H 0.58359 0.77716 0.2607 0.0
C902 C 0.60149 0.79152 0.18282 0.0
C903 C 0.61196 0.79713 0.14117 0.0
C904 C 0.60435 0.77074 0.20015 0.0
C905 C 0.62532 0.78097 0.1178 0.0
C906 C 0.62808 0.76037 0.13472 0.0
C907 C 0.62027 0.73408 0.19312 0.0
C908 C 0.6097 0.72856 0.23476 0.0
C909 C 0.61768 0.75495 0.1759 0.0
C910 C 0.59663 0.74481 0.25825 0.0
C911 C 0.59401 0.76539 0.24137 0.0
H912 H 0.75064 0.60962 0.84568 0.0
H913 H 0.6863 0.60729 0.93946 0.0
H914 H 0.71909 0.60995 0.999 0.0
H915 H 0.76666 0.60828 0.02502 0.0
H916 H 0.83098 0.60726 0.93117 0.0
H917 H 0.79821 0.61086 0.87179 0.0
C918 C 0.74375 0.61025 0.87916 0.0
C919 C 0.71575 0.60834 0.88775 0.0
C920 C 0.76302 0.61084 0.91353 0.0
C921 C 0.70745 0.609 0.93153 0.0
C922 C 0.72635 0.61025 0.96573 0.0
C923 C 0.77354 0.6091 0.99157 0.0
C924 C 0.80153 0.60727 0.98279 0.0
C925 C 0.75428 0.61045 0.95728 0.0
C926 C 0.80982 0.60868 0.93913 0.0
C927 C 0.79093 0.61056 0.90505 0.0
H928 H 0.4216 0.28562 0.26265 0.0
H929 H 0.36677 0.31361 0.17056 0.0
H930 H 0.3648 0.28058 0.12987 0.0
H931 H 0.37858 0.243 0.11888 0.0
H932 H 0.43271 0.2149 0.21183 0.0
H933 H 0.43463 0.24793 0.25255 0.0
C934 C 0.40895 0.28455 0.23398 0.0
C935 C 0.39463 0.30274 0.22011 0.0
C936 C 0.40772 0.26509 0.21016 0.0
C937 C 0.3786 0.30046 0.18228 0.0
C938 C 0.37731 0.28133 0.15874 0.0
C939 C 0.39092 0.24405 0.1479 0.0
C940 C 0.40526 0.22589 0.16186 0.0
C941 C 0.39192 0.26346 0.17197 0.0
C942 C 0.42095 0.22808 0.20005 0.0
C943 C 0.4222 0.2472 0.22358 0.0
H944 H 0.7661 0.92156 0.34948 0.0
H945 H 0.82965 0.9216 0.4445 0.0
H946 H 0.79643 0.92003 0.50335 0.0
H947 H 0.74866 0.92169 0.52857 0.0
H948 H 0.68519 0.92075 0.43336 0.0
H949 H 0.71845 0.91945 0.37463 0.0
C950 C 0.77274 0.92164 0.38307 0.0
C951 C 0.80067 0.92336 0.39229 0.0
C952 C 0.75324 0.92067 0.41705 0.0
C953 C 0.80853 0.92155 0.43616 0.0
C954 C 0.78939 0.9205 0.46998 0.0
C955 C 0.74204 0.92161 0.49498 0.0
C956 C 0.71407 0.9229 0.48571 0.0
C957 C 0.76158 0.92079 0.461 0.0
C958 C 0.7063 0.92096 0.44179 0.0
C959 C 0.72546 0.92007 0.40801 0.0
H960 H 0.12832 0.28486 0.61386 0.0
H961 H 0.07279 0.3135 0.70442 0.0
H962 H 0.07047 0.28082 0.74566 0.0
H963 H 0.08363 0.24334 0.75708 0.0
H964 H 0.13895 0.21445 0.66663 0.0
H965 H 0.14167 0.24726 0.62554 0.0
C966 C 0.11557 0.28399 0.64243 0.0
C967 C 0.10103 0.30221 0.65568 0.0
C968 C 0.11423 0.26475 0.66672 0.0
C969 C 0.08475 0.30026 0.69326 0.0
C970 C 0.08327 0.28135 0.7171 0.0
C971 C 0.09655 0.2442 0.72869 0.0
C972 C 0.11093 0.22592 0.71544 0.0
C973 C 0.09801 0.26342 0.7045 0.0
C974 C 0.12725 0.2278 0.67791 0.0
C975 C 0.12891 0.24676 0.65413 0.0
H976 H 0.04691 0.03439 0.36489 0.0
H977 H 0.03631 0.06048 0.23676 0.0
H978 H 0.99617 0.03862 0.2258 0.0
H979 H 0.96516 1.01061 0.25124 0.0
H980 H 0.97592 0.98415 0.37899 0.0
H981 H 0.01528 1.00686 0.39098 0.0
C982 C 0.03535 0.03564 0.33505 0.0
C983 C 0.04416 0.04957 0.30221 0.0
C984 C 0.01274 0.02243 0.32842 0.0
C985 C 0.02949 0.0505 0.26312 0.0
C986 C 0.00679 0.0377 0.25656 0.0
C987 C 0.97617 1.00986 0.28169 0.0
C988 C 0.96754 0.99577 0.31431 0.0
C989 C 0.99844 0.02336 0.28868 0.0
C990 C 0.98216 0.9948 0.35339 0.0
C991 C 1.00453 1.00794 0.36037 0.0
H992 H 0.00716 0.55537 0.57386 0.0
H993 H 0.94243 0.53191 0.49338 0.0
H994 H 0.96565 0.49803 0.48617 0.0
H995 H 1.00475 0.47505 0.50147 0.0
H996 H 0.06869 0.49838 0.58411 0.0
H997 H 0.04595 0.53232 0.58972 0.0
C998 C 0.9981 0.54298 0.55432 0.0
C999 C 0.97283 0.54657 0.53406 0.0
C1000 C 0.01172 0.52341 0.55008 0.0
C1001 C 0.96152 0.52985 0.50982 0.0
C1002 C 0.97499 0.51041 0.50537 0.0
C1003 C 0.0138 0.48737 0.52116 0.0
C1004 C 0.03885 0.48365 0.54222 0.0
C1005 C 1.00015 0.50697 0.52529 0.0
C1006 C 0.04996 0.50043 0.56663 0.0
C1007 C 0.03671 0.51995 0.57035 0.0
H1008 H 0.49147 0.47436 0.80408 0.0
H1009 H 0.43713 0.52486 0.76974 0.0
H1010 H 0.47319 0.55033 0.7799 0.0
H1011 H 0.52105 0.55757 0.80382 0.0
H1012 H 0.57589 0.50674 0.77298 0.0
H1013 H 0.53962 0.48139 0.78195 0.0
C1014 C 0.48707 0.49059 0.79611 0.0
C1015 C 0.4601 0.49747 0.79132 0.0
C1016 C 0.5088 0.50497 0.79153 0.0
C1017 C 0.45652 0.51897 0.78002 0.0
C1018 C 0.47747 0.5337 0.78425 0.0
C1019 C 0.52554 0.54127 0.79635 0.0
C1020 C 0.55256 0.53432 0.79291 0.0
C1021 C 0.50387 0.52686 0.7912 0.0
C1022 C 0.55631 0.51273 0.78213 0.0
C1023 C 0.53528 0.49805 0.78576 0.0
H1024 H 0.54848 0.99408 0.08606 0.0
H1025 H 0.50563 0.96551 0.97889 0.0
H1026 H 0.47638 0.99631 0.97388 0.0
H1027 H 0.4621 0.03184 1.00008 0.0
H1028 H 0.50577 0.06075 0.10583 0.0
H1029 H 0.53491 0.02982 0.11115 0.0
C1030 C 0.533 0.99466 0.06122 0.0
C1031 C 0.52944 0.97713 0.03315 0.0
C1032 C 0.51592 1.01265 0.05842 0.0
C1033 C 0.50887 0.97842 1.00151 0.0
C1034 C 0.492 0.99615 0.99851 0.0
C1035 C 0.47782 0.03128 0.02453 0.0
C1036 C 0.4815 0.04877 0.05259 0.0
C1037 C 0.49506 1.01336 0.02704 0.0
C1038 C 0.50236 0.04768 0.08366 0.0
C1039 C 0.51917 0.02993 0.08671 0.0
H1040 H 0.048 0.50097 1.00667 0.0
H1041 H 0.03523 0.47435 0.13386 0.0
H1042 H 0.99508 0.49625 0.14359 0.0
H1043 H 0.96393 0.52376 0.11676 0.0
H1044 H 0.97623 0.55051 0.98966 0.0
H1045 H 0.01652 0.52853 0.97957 0.0
C1046 C 0.03606 0.4997 0.03611 0.0
C1047 C 0.04419 0.48548 0.06893 0.0
C1048 C 0.01323 0.51281 0.04191 0.0
C1049 C 0.02897 0.48453 0.10748 0.0
C1050 C 0.00621 0.49733 0.11332 0.0
C1051 C 0.97551 0.52478 0.0869 0.0
C1052 C 0.96697 0.53867 0.05381 0.0
C1053 C 0.99824 0.51166 0.08095 0.0
C1054 C 0.98235 0.53998 1.01554 0.0
C1055 C 1.00526 0.52726 1.00967 0.0
H1056 H 0.46323 0.49607 0.37652 0.0
H1057 H 0.50334 0.46709 0.26729 0.0
H1058 H 0.53396 0.49719 0.26186 0.0
H1059 H 0.54977 0.53222 0.2879 0.0
H1060 H 0.51037 0.56083 0.39836 0.0
H1061 H 0.47977 0.5308 0.40364 0.0
C1062 C 0.47848 0.49647 0.35128 0.0
C1063 C 0.48071 0.47926 0.32218 0.0
C1064 C 0.49658 0.51385 0.34876 0.0
C1065 C 0.50101 0.48004 0.29012 0.0
C1066 C 0.51868 0.49728 0.28706 0.0
C1067 C 0.53477 0.53176 0.31352 0.0
C1068 C 0.53257 0.54904 0.34254 0.0
C1069 C 0.51686 0.51428 0.31634 0.0
C1070 C 0.51259 0.54802 0.37518 0.0
C1071 C 0.49493 0.53077 0.37826 0.0
H1072 H 0.46503 0.02983 0.62665 0.0
H1073 H 0.47827 0.05779 0.5009 0.0
H1074 H 0.51898 0.03624 0.49117 0.0
H1075 H 0.54966 1.0079 0.51716 0.0
H1076 H 0.53444 0.97856 0.64099 0.0
H1077 H 0.49522 1.00146 0.65221 0.0
C1078 C 0.47695 0.03124 0.5972 0.0
C1079 C 0.46849 0.04525 0.56428 0.0
C1080 C 0.49958 0.01809 0.59109 0.0
C1081 C 0.48431 0.04714 0.52662 0.0
C1082 C 0.50742 0.03464 0.5209 0.0
C1083 C 0.53747 1.0064 0.54629 0.0
C1084 C 0.54461 0.99128 0.5779 0.0
C1085 C 0.51495 0.01973 0.55251 0.0
C1086 C 0.529 0.98973 0.61587 0.0
C1087 C 0.50677 1.003 0.62245 0.0
H1088 H 0.04993 0.03186 0.87527 0.0
H1089 H 1.00491 0.06019 0.77088 0.0
H1090 H 0.97556 0.02925 0.76696 0.0
H1091 H 0.96223 0.99369 0.79302 0.0
H1092 H 0.00635 0.96585 0.89919 0.0
H1093 H 0.03583 0.9966 0.90261 0.0
C1094 C 0.03387 0.03114 0.85141 0.0
C1095 C 0.02989 0.04842 0.82322 0.0
C1096 C 0.01652 1.01327 0.84982 0.0
C1097 C 0.00858 0.04721 0.79298 0.0
C1098 C 0.99165 0.02948 0.79078 0.0
C1099 C 0.97804 0.99444 0.81731 0.0
C1100 C 0.9819 0.97712 0.84556 0.0
C1101 C 0.99523 1.01239 0.8192 0.0
C1102 C 1.00288 0.97859 0.87647 0.0
C1103 C 0.01988 0.99629 0.87855 0.0
H1104 H 0.06851 0.07705 0.65126 0.0
H1105 H 0.07659 0.14447 0.63793 0.0
H1106 H 0.09089 0.14013 0.56261 0.0
H1107 H 0.10723 0.11742 0.50532 0.0
H1108 H 0.09627 0.04987 0.51299 0.0
H1109 H 0.07883 0.05393 0.58724 0.0
C1110 C 0.07228 0.09075 0.63108 0.0
C1111 C 0.07129 0.11109 0.64991 0.0
C1112 C 0.08129 0.08808 0.58779 0.0
C1113 C 0.07681 0.12875 0.62395 0.0
C1114 C 0.08551 0.12622 0.58115 0.0
C1115 C 0.10015 0.10345 0.52202 0.0
C1116 C 0.10283 0.08333 0.50253 0.0
C1117 C 0.08878 0.10597 0.56341 0.0
C1118 C 0.09485 0.06557 0.5268 0.0
C1119 C 0.08444 0.0679 0.56914 0.0
H1120 H 0.89709 0.62732 0.73237 0.0
H1121 H 0.96132 0.58338 0.70704 0.0
H1122 H 0.95444 0.5674 0.77923 0.0
H1123 H 0.92799 0.56511 0.84845 0.0
H1124 H 0.85896 0.60547 0.86534 0.0
H1125 H 0.8685 0.62279 0.79621 0.0
C1126 C 0.90969 0.6143 0.74285 0.0
C1127 C 0.92956 0.60641 0.71452 0.0
C1128 C 0.90383 0.60397 0.78196 0.0
C1129 C 0.94596 0.58972 0.72843 0.0
C1130 C 0.94166 0.58037 0.76928 0.0
C1131 C 0.91456 0.57716 0.83601 0.0
C1132 C 0.89238 0.5837 0.86129 0.0
C1133 C 0.92011 0.58698 0.79582 0.0
C1134 C 0.8756 0.5998 0.84575 0.0
C1135 C 0.88139 0.60999 0.80671 0.0
H1136 H 0.39747 0.39957 0.13678 0.0
H1137 H 0.46441 0.44164 0.15727 0.0
H1138 H 0.45819 0.45623 0.08377 0.0
H1139 H 0.43108 0.45865 1.01541 0.0
H1140 H 0.3603 0.41985 1.00154 0.0
H1141 H 0.36959 0.40308 0.07153 0.0
C1142 C 0.41093 0.41174 0.1248 0.0
C1143 C 0.43136 0.41957 0.15228 0.0
C1144 C 0.40573 0.42123 0.08443 0.0
C1145 C 0.44869 0.4353 0.13657 0.0
C1146 C 0.44479 0.44387 0.0949 0.0
C1147 C 0.41743 0.44688 0.02842 0.0
C1148 C 0.39464 0.44081 1.00404 0.0
C1149 C 0.42283 0.43742 0.06907 0.0
C1150 C 0.37748 0.42514 0.0204 0.0
C1151 C 0.38304 0.41533 0.06002 0.0
H1152 H 0.57952 0.9631 0.34471 0.0
H1153 H 0.6331 0.91198 0.37751 0.0
H1154 H 0.62032 0.89326 0.31117 0.0
H1155 H 0.59671 0.89245 0.24113 0.0
H1156 H 0.54739 0.94502 0.20313 0.0
H1157 H 0.55444 0.96164 0.27469 0.0
C1158 C 0.58829 0.94784 0.33734 0.0
C1159 C 0.60756 0.93912 0.36588 0.0
C1160 C 0.58113 0.93721 0.2985 0.0
C1161 C 0.61873 0.9193 0.35575 0.0
C1162 C 0.61119 0.90845 0.31803 0.0
C1163 C 0.58682 0.90722 0.24924 0.0
C1164 C 0.57129 0.91743 0.21732 0.0
C1165 C 0.59265 0.91732 0.28897 0.0
C1166 C 0.55905 0.93677 0.22752 0.0
C1167 C 0.56351 0.94641 0.26812 0.0
H1168 H 0.07486 0.45398 0.71519 0.0
H1169 H 0.07771 0.38659 0.73369 0.0
H1170 H 0.0913 0.39162 0.80919 0.0
H1171 H 0.10769 0.41459 0.86603 0.0
H1172 H 0.10162 0.48229 0.85329 0.0
H1173 H 0.08588 0.47774 0.77805 0.0
C1174 C 0.07739 0.44051 0.73648 0.0
C1175 C 0.07495 0.41992 0.7192 0.0
C1176 C 0.08589 0.44354 0.77993 0.0
C1177 C 0.07894 0.40252 0.74654 0.0
C1178 C 0.08725 0.4054 0.78943 0.0
C1179 C 0.10209 0.42853 0.8478 0.0
C1180 C 0.10544 0.44881 0.86624 0.0
C1181 C 0.0916 0.42578 0.80591 0.0
C1182 C 0.0995 0.46647 0.84029 0.0
C1183 C 0.09008 0.46386 0.7974 0.0
H1184 H 0.60745 0.63375 0.13827 0.0
H1185 H 0.55059 0.58395 0.163 0.0
H1186 H 0.55848 0.56949 0.08962 0.0
H1187 H 0.58475 0.56961 0.02016 0.0
H1188 H 0.64529 0.61743 1.00097 0.0
H1189 H 0.63386 0.63355 0.07101 0.0
C1190 C 0.59629 0.62004 0.12701 0.0
C1191 C 0.57826 0.61002 0.15564 0.0
C1192 C 0.60257 0.61095 0.08649 0.0
C1193 C 0.56425 0.59207 0.14123 0.0
C1194 C 0.56919 0.5836 0.09964 0.0
C1195 C 0.59575 0.58328 0.03197 0.0
C1196 C 0.61627 0.5921 1.00607 0.0
C1197 C 0.589 0.5925 0.07251 0.0
C1198 C 0.62989 0.61015 0.02094 0.0
C1199 C 0.62308 0.61953 0.06062 0.0
H1200 H 0.43137 0.06705 0.3589 0.0
H1201 H 0.36085 0.10626 0.37051 0.0
H1202 H 0.37108 0.12289 0.30086 0.0
H1203 H 0.40048 0.12706 0.23798 0.0
H1204 H 0.46643 0.08409 0.21787 0.0
H1205 H 0.45894 0.06899 0.29073 0.0
C1206 C 0.41782 0.07868 0.34522 0.0
C1207 C 0.39503 0.08513 0.36912 0.0
C1208 C 0.42377 0.08811 0.30477 0.0
C1209 C 0.37802 0.10069 0.35195 0.0
C1210 C 0.38418 0.11049 0.31265 0.0
C1211 C 0.41339 0.11451 0.24984 0.0
C1212 C 0.43394 0.10663 0.22281 0.0
C1213 C 0.40722 0.1046 0.28927 0.0
C1214 C 0.45061 0.09046 0.23833 0.0
C1215 C 0.44596 0.08159 0.27953 0.0
H1216 H 0.91052 0.89403 0.63966 0.0
H1217 H 0.96417 0.94435 0.67651 0.0
H1218 H 0.95756 0.96113 0.60524 0.0
H1219 H 0.9322 0.96341 0.5357 0.0
H1220 H 0.87444 0.91479 0.50404 0.0
H1221 H 0.88606 0.89587 0.57045 0.0
C1222 C 0.92134 0.90836 0.63142 0.0
C1223 C 0.93798 0.9179 0.66293 0.0
C1224 C 0.9158 0.91864 0.59194 0.0
C1225 C 0.95155 0.93664 0.65248 0.0
C1226 C 0.94737 0.94638 0.61206 0.0
C1227 C 0.92221 0.94866 0.54336 0.0
C1228 C 0.90221 0.94068 0.51504 0.0
C1229 C 0.92877 0.93792 0.58213 0.0
C1230 C 0.88944 0.92156 0.5256 0.0
C1231 C 0.89633 0.91056 0.56333 0.0
H1232 H 0.11995 0.15452 0.98389 0.0
H1233 H 0.07418 0.10028 0.94293 0.0
H1234 H 0.083 0.0831 1.01296 0.0
H1235 H 0.10656 0.08234 0.0836 0.0
H1236 H 0.15161 0.13714 0.12562 0.0
H1237 H 0.1412 0.15465 0.05724 0.0
C1238 C 0.11138 0.13915 0.99081 0.0
C1239 C 0.09604 0.12883 0.95828 0.0
C1240 C 0.11716 0.12911 0.03099 0.0
C1241 C 0.08557 0.10874 0.96752 0.0
C1242 C 0.09096 0.0988 1.00744 0.0
C1243 C 0.11389 0.09823 0.07858 0.0
C1244 C 0.13022 0.10806 0.11082 0.0
C1245 C 0.10719 0.10864 0.03918 0.0
C1246 C 0.13968 0.12863 0.1019 0.0
C1247 C 0.13338 0.1389 0.06268 0.0
H1248 H 0.90967 0.59946 0.41774 0.0
H1249 H 0.92438 0.66411 0.38245 0.0
H1250 H 0.91395 0.65582 0.3061 0.0
H1251 H 0.89821 0.63018 0.24918 0.0
H1252 H 0.88375 0.56559 0.28603 0.0
H1253 H 0.89591 0.57383 0.36131 0.0
C1254 C 0.91129 0.61161 0.39308 0.0
C1255 C 0.91868 0.63226 0.40584 0.0
C1256 C 0.90454 0.6068 0.34938 0.0
C1257 C 0.91981 0.64794 0.37357 0.0
C1258 C 0.91332 0.64325 0.3299 0.0
C1259 C 0.89751 0.61799 0.27382 0.0
C1260 C 0.88968 0.59727 0.26178 0.0
C1261 C 0.90519 0.62278 0.3174 0.0
C1262 C 0.88946 0.58163 0.29418 0.0
C1263 C 0.89656 0.58632 0.33732 0.0
H1264 H 0.39125 0.40344 0.61982 0.0
H1265 H 0.38228 0.46834 0.58062 0.0
H1266 H 0.39536 0.45905 0.50637 0.0
H1267 H 0.40791 0.43241 0.45096 0.0
H1268 H 0.41695 0.36745 0.48855 0.0
H1269 H 0.40602 0.37677 0.56422 0.0
C1270 C 0.39202 0.41553 0.59499 0.0
C1271 C 0.38552 0.43667 0.60636 0.0
C1272 C 0.40009 0.41008 0.55181 0.0
C1273 C 0.38714 0.45204 0.57342 0.0
C1274 C 0.39469 0.44671 0.5307 0.0
C1275 C 0.4082 0.42037 0.47597 0.0
C1276 C 0.41415 0.3993 0.46391 0.0
C1277 C 0.40122 0.42582 0.51939 0.0
C1278 C 0.41354 0.38386 0.49676 0.0
C1279 C 0.40677 0.38918 0.54009 0.0
H1280 H 0.6018 0.94288 0.78122 0.0
H1281 H 0.64189 0.88634 0.736 0.0
H1282 H 0.63325 0.86961 0.80581 0.0
H1283 H 0.61498 0.87084 0.88151 0.0
H1284 H 0.57343 0.92664 0.92499 0.0
H1285 H 0.58083 0.94319 0.85392 0.0
C1286 C 0.60836 0.92675 0.7857 0.0
C1287 C 0.62283 0.91626 0.75195 0.0
C1288 C 0.60259 0.91676 0.82604 0.0
C1289 C 0.63138 0.89541 0.76057 0.0
C1290 C 0.6261 0.88557 0.80075 0.0
C1291 C 0.60695 0.88641 0.87496 0.0
C1292 C 0.59317 0.89731 0.90857 0.0
C1293 C 0.61174 0.89604 0.83386 0.0
C1294 C 0.58356 0.9177 0.8997 0.0
C1295 C 0.58812 0.92728 0.85908 0.0
H1296 H 0.11718 0.37411 0.38441 0.0
H1297 H 0.07488 0.42926 0.42949 0.0
H1298 H 0.08345 0.44685 0.35978 0.0
H1299 H 0.10588 0.44759 0.28803 0.0
H1300 H 0.14752 0.39189 0.2422 0.0
H1301 H 0.13726 0.37406 0.31026 0.0
C1302 C 0.10932 0.3898 0.3785 0.0
C1303 C 0.09506 0.40025 0.41209 0.0
C1304 C 0.11496 0.40005 0.33848 0.0
C1305 C 0.08546 0.42072 0.40409 0.0
C1306 C 0.0907 0.43088 0.36433 0.0
C1307 C 0.11251 0.43145 0.29221 0.0
C1308 C 0.12788 0.42145 0.25898 0.0
C1309 C 0.1059 0.42088 0.3315 0.0
C1310 C 0.13639 0.40054 0.26672 0.0
C1311 C 0.13016 0.39008 0.30576 0.0
H1312 H 0.62292 0.62518 0.62298 0.0
H1313 H 0.63058 0.56005 0.58381 0.0
H1314 H 0.6172 0.56918 0.5097 0.0
H1315 H 0.60466 0.59575 0.45444 0.0
H1316 H 0.59666 0.6609 0.49229 0.0
H1317 H 0.60813 0.65177 0.56768 0.0
C1318 C 0.6218 0.613 0.59818 0.0
C1319 C 0.62804 0.59185 0.60948 0.0
C1320 C 0.61353 0.61836 0.55514 0.0
C1321 C 0.62595 0.57637 0.57661 0.0
C1322 C 0.61824 0.58161 0.53399 0.0
C1323 C 0.60474 0.60788 0.47945 0.0
C1324 C 0.59891 0.62895 0.46756 0.0
C1325 C 0.61195 0.60252 0.52275 0.0
C1326 C 0.59999 0.64449 0.5004 0.0
C1327 C 0.60705 0.63927 0.54356 0.0
H1328 H 0.40934 0.08294 0.79142 0.0
H1329 H 0.36756 0.13859 0.74656 0.0
H1330 H 0.3782 0.15655 0.81457 0.0
H1331 H 0.39807 0.15644 0.88878 0.0
H1332 H 0.44002 0.10119 0.93331 0.0
H1333 H 0.43189 0.08373 0.8631 0.0
C1334 C 0.40277 0.0991 0.79583 0.0
C1335 C 0.3872 0.10904 0.76295 0.0
C1336 C 0.40953 0.10972 0.83514 0.0
C1337 C 0.37882 0.12999 0.77087 0.0
C1338 C 0.38526 0.14052 0.80987 0.0
C1339 C 0.4061 0.14081 0.88255 0.0
C1340 C 0.42009 0.13029 0.91616 0.0
C1341 C 0.40052 0.13057 0.84237 0.0
C1342 C 0.42974 0.10983 0.90787 0.0
C1343 C 0.4247 0.09971 0.86784 0.0
H1344 H 0.89909 0.89513 0.13165 0.0
H1345 H 0.88462 0.96001 0.09688 0.0
H1346 H 0.89539 0.95215 0.02108 0.0
H1347 H 0.90867 0.92702 0.96345 0.0
H1348 H 0.92228 0.86189 0.99594 0.0
H1349 H 0.91288 0.86964 0.07284 0.0
C1350 C 0.89804 0.90749 0.1074 0.0
C1351 C 0.89089 0.92823 0.12055 0.0
C1352 C 0.90473 0.90288 0.06316 0.0
C1353 C 0.89007 0.94398 0.08828 0.0
C1354 C 0.89633 0.9395 0.04468 0.0
C1355 C 0.91013 0.91458 0.98752 0.0
C1356 C 0.91719 0.89401 0.97368 0.0
C1357 C 0.90387 0.91908 0.03166 0.0
C1358 C 0.91811 0.87803 1.00543 0.0
C1359 C 0.9122 0.88242 0.04953 0.0
loop_
_geom_bond_atom_site_label_1
_geom_bond_atom_site_label_2
_geom_bond_distance
_geom_bond_site_symmetry_2
_ccdc_geom_bond_type
C0 C1 1.443 . S
C0 N4 1.376 . S
C0 C38 1.389 . S
C1 C0 1.443 . S
C1 C2 1.340 . S
C1 H41 0.951 . S
C2 C1 1.340 . S
C2 C3 1.439 . S
C2 H42 0.950 . S
C3 C2 1.439 . S
C3 N4 1.374 . S
C3 C37 1.395 . S
N4 C0 1.376 . S
N4 C3 1.374 . S
N4 Co5 2.008 . S
Co5 N4 2.008 . S
Co5 N6 1.995 . S
Co5 N11 2.008 . S
Co5 N16 1.995 . S
Co5 N21 2.282 . S
Co5 N27 2.282 . S
N6 Co5 1.995 . S
N6 C7 1.376 . S
N6 C10 1.383 . S
C7 N6 1.376 . S
C7 C8 1.446 . S
C7 C37 1.391 . S
C8 C7 1.446 . S
C8 C9 1.339 . S
C8 H43 0.949 . S
C9 C8 1.339 . S
C9 C10 1.439 . S
C9 H44 0.950 . S
C10 N6 1.383 . S
C10 C9 1.439 . S
C10 C39 1.392 . S
N11 Co5 2.008 . S
N11 C12 1.376 . S
N11 C15 1.374 . S
C12 N11 1.376 . S
C12 C13 1.443 . S
C12 C39 1.389 . S
C13 C12 1.443 . S
C13 C14 1.340 . S
C13 H45 0.951 . S
C14 C13 1.340 . S
C14 C15 1.439 . S
C14 H46 0.950 . S
C15 N11 1.374 . S
C15 C14 1.439 . S
C15 C40 1.395 . S
N16 Co5 1.995 . S
N16 C17 1.376 . S
N16 C20 1.383 . S
C17 N16 1.376 . S
C17 C18 1.446 . S
C17 C40 1.391 . S
C18 C17 1.446 . S
C18 C19 1.339 . S
C18 H47 0.949 . S
C19 C18 1.339 . S
C19 C20 1.439 . S
C19 H48 0.950 . S
C20 N16 1.383 . S
C20 C19 1.439 . S
C20 C38 1.392 . S
N21 Co5 2.282 . S
N21 C24 1.332 . S
N21 C26 1.332 . S
C22 C23 1.386 . S
C22 C25 1.388 . S
C23 C22 1.386 . S
C23 C24 1.382 . S
C23 H49 0.950 . S
C24 N21 1.332 . S
C24 C23 1.382 . S
C24 H35 0.952 . S
C25 C22 1.388 . S
C25 C26 1.382 . S
C25 H50 0.950 . S
C26 N21 1.332 . S
C26 C25 1.382 . S
C26 H36 0.948 . S
N27 Co5 2.282 . S
N27 C31 1.332 . S
N27 C32 1.332 . S
C28 C29 1.388 . S
C28 C32 1.382 . S
C28 H51 0.950 . S
C29 C28 1.388 . S
C29 C30 1.386 . S
C30 C29 1.386 . S
C30 C31 1.382 . S
C30 H52 0.950 . S
C31 N27 1.332 . S
C31 C30 1.382 . S
C31 H33 0.952 . S
C32 N27 1.332 . S
C32 C28 1.382 . S
C32 H34 0.948 . S
H33 C31 0.952 . S
H34 C32 0.948 . S
H35 C24 0.952 . S
H36 C26 0.948 . S
C37 C3 1.395 . S
C37 C7 1.391 . S
C38 C0 1.389 . S
C38 C20 1.392 . S
C39 C10 1.392 . S
C39 C12 1.389 . S
C40 C15 1.395 . S
C40 C17 1.391 . S
H41 C1 0.951 . S
H42 C2 0.950 . S
H43 C8 0.949 . S
H44 C9 0.950 . S
H45 C13 0.951 . S
H46 C14 0.950 . S
H47 C18 0.949 . S
H48 C19 0.950 . S
H49 C23 0.950 . S
H50 C25 0.950 . S
H51 C28 0.950 . S
H52 C30 0.950 . S
C53 C54 1.443 . S
C53 N57 1.376 . S
C53 C91 1.389 . S
C54 C53 1.443 . S
C54 C55 1.340 . S
C54 H94 0.951 . S
C55 C54 1.340 . S
C55 C56 1.439 . S
C55 H95 0.950 . S
C56 C55 1.439 . S
C56 N57 1.374 . S
C56 C90 1.395 . S
N57 C53 1.376 . S
N57 C56 1.374 . S
N57 Co58 2.008 . S
Co58 N57 2.008 . S
Co58 N59 1.995 . S
Co58 N64 2.008 . S
Co58 N69 1.995 . S
Co58 N74 2.282 . S
Co58 N80 2.282 . S
N59 Co58 1.995 . S
N59 C60 1.376 . S
N59 C63 1.383 . S
C60 N59 1.376 . S
C60 C61 1.446 . S
C60 C90 1.391 . S
C61 C60 1.446 . S
C61 C62 1.339 . S
C61 H96 0.949 . S
C62 C61 1.339 . S
C62 C63 1.439 . S
C62 H97 0.950 . S
C63 N59 1.383 . S
C63 C62 1.439 . S
C63 C92 1.392 . S
N64 Co58 2.008 . S
N64 C65 1.376 . S
N64 C68 1.374 . S
C65 N64 1.376 . S
C65 C66 1.443 . S
C65 C92 1.389 . S
C66 C65 1.443 . S
C66 C67 1.340 . S
C66 H98 0.951 . S
C67 C66 1.340 . S
C67 C68 1.439 . S
C67 H99 0.950 . S
C68 N64 1.374 . S
C68 C67 1.439 . S
C68 C93 1.395 . S
N69 Co58 1.995 . S
N69 C70 1.376 . S
N69 C73 1.383 . S
C70 N69 1.376 . S
C70 C71 1.446 . S
C70 C93 1.391 . S
C71 C70 1.446 . S
C71 C72 1.339 . S
C71 H100 0.949 . S
C72 C71 1.339 . S
C72 C73 1.439 . S
C72 H101 0.950 . S
C73 N69 1.383 . S
C73 C72 1.439 . S
C73 C91 1.392 . S
N74 Co58 2.282 . S
N74 C77 1.332 . S
N74 C79 1.332 . S
C75 C76 1.386 . S
C75 C78 1.388 . S
C76 C75 1.386 . S
C76 C77 1.382 . S
C76 H102 0.950 . S
C77 N74 1.332 . S
C77 C76 1.382 . S
C77 H88 0.952 . S
C78 C75 1.388 . S
C78 C79 1.382 . S
C78 H103 0.950 . S
C79 N74 1.332 . S
C79 C78 1.382 . S
C79 H89 0.948 . S
N80 Co58 2.282 . S
N80 C84 1.332 . S
N80 C85 1.332 . S
C81 C82 1.388 . S
C81 C85 1.382 . S
C81 H104 0.950 . S
C82 C81 1.388 . S
C82 C83 1.386 . S
C83 C82 1.386 . S
C83 C84 1.382 . S
C83 H105 0.950 . S
C84 N80 1.332 . S
C84 C83 1.382 . S
C84 H86 0.952 . S
C85 N80 1.332 . S
C85 C81 1.382 . S
C85 H87 0.948 . S
H86 C84 0.952 . S
H87 C85 0.948 . S
H88 C77 0.952 . S
H89 C79 0.948 . S
C90 C56 1.395 . S
C90 C60 1.391 . S
C91 C53 1.389 . S
C91 C73 1.392 . S
C92 C63 1.392 . S
C92 C65 1.389 . S
C93 C68 1.395 . S
C93 C70 1.391 . S
H94 C54 0.951 . S
H95 C55 0.950 . S
H96 C61 0.949 . S
H97 C62 0.950 . S
H98 C66 0.951 . S
H99 C67 0.950 . S
H100 C71 0.949 . S
H101 C72 0.950 . S
H102 C76 0.950 . S
H103 C78 0.950 . S
H104 C81 0.950 . S
H105 C83 0.950 . S
C106 C107 1.443 . S
C106 N110 1.376 . S
C106 C144 1.389 . S
C107 C106 1.443 . S
C107 C108 1.340 . S
C107 H147 0.951 . S
C108 C107 1.340 . S
C108 C109 1.439 . S
C108 H148 0.950 . S
C109 C108 1.439 . S
C109 N110 1.374 . S
C109 C143 1.395 . S
N110 C106 1.376 . S
N110 C109 1.374 . S
N110 Co111 2.008 . S
Co111 N110 2.008 . S
Co111 N112 1.995 . S
Co111 N117 2.008 . S
Co111 N122 1.995 . S
Co111 N127 2.282 . S
Co111 N133 2.282 . S
N112 Co111 1.995 . S
N112 C113 1.376 . S
N112 C116 1.383 . S
C113 N112 1.376 . S
C113 C114 1.446 . S
C113 C143 1.391 . S
C114 C113 1.446 . S
C114 C115 1.339 . S
C114 H149 0.949 . S
C115 C114 1.339 . S
C115 C116 1.439 . S
C115 H150 0.950 . S
C116 N112 1.383 . S
C116 C115 1.439 . S
C116 C145 1.392 . S
N117 Co111 2.008 . S
N117 C118 1.376 . S
N117 C121 1.374 . S
C118 N117 1.376 . S
C118 C119 1.443 . S
C118 C145 1.389 . S
C119 C118 1.443 . S
C119 C120 1.340 . S
C119 H151 0.951 . S
C120 C119 1.340 . S
C120 C121 1.439 . S
C120 H152 0.950 . S
C121 N117 1.374 . S
C121 C120 1.439 . S
C121 C146 1.395 . S
N122 Co111 1.995 . S
N122 C123 1.376 . S
N122 C126 1.383 . S
C123 N122 1.376 . S
C123 C124 1.446 . S
C123 C146 1.391 . S
C124 C123 1.446 . S
C124 C125 1.339 . S
C124 H153 0.949 . S
C125 C124 1.339 . S
C125 C126 1.439 . S
C125 H154 0.950 . S
C126 N122 1.383 . S
C126 C125 1.439 . S
C126 C144 1.392 . S
N127 Co111 2.282 . S
N127 C130 1.332 . S
N127 C132 1.332 . S
C128 C129 1.386 . S
C128 C131 1.388 . S
C129 C128 1.386 . S
C129 C130 1.382 . S
C129 H155 0.950 . S
C130 N127 1.332 . S
C130 C129 1.382 . S
C130 H141 0.952 . S
C131 C128 1.388 . S
C131 C132 1.382 . S
C131 H156 0.950 . S
C132 N127 1.332 . S
C132 C131 1.382 . S
C132 H142 0.948 . S
N133 Co111 2.282 . S
N133 C137 1.332 . S
N133 C138 1.332 . S
C134 C135 1.388 . S
C134 C138 1.382 . S
C134 H157 0.950 . S
C135 C134 1.388 . S
C135 C136 1.386 . S
C136 C135 1.386 . S
C136 C137 1.382 . S
C136 H158 0.950 . S
C137 N133 1.332 . S
C137 C136 1.382 . S
C137 H139 0.952 . S
C138 N133 1.332 . S
C138 C134 1.382 . S
C138 H140 0.948 . S
H139 C137 0.952 . S
H140 C138 0.948 . S
H141 C130 0.952 . S
H142 C132 0.948 . S
C143 C109 1.395 . S
C143 C113 1.391 . S
C144 C106 1.389 . S
C144 C126 1.392 . S
C145 C116 1.392 . S
C145 C118 1.389 . S
C146 C121 1.395 . S
C146 C123 1.391 . S
H147 C107 0.951 . S
H148 C108 0.950 . S
H149 C114 0.949 . S
H150 C115 0.950 . S
H151 C119 0.951 . S
H152 C120 0.950 . S
H153 C124 0.949 . S
H154 C125 0.950 . S
H155 C129 0.950 . S
H156 C131 0.950 . S
H157 C134 0.950 . S
H158 C136 0.950 . S
C159 C160 1.443 . S
C159 N163 1.376 . S
C159 C197 1.389 . S
C160 C159 1.443 . S
C160 C161 1.340 . S
C160 H200 0.951 . S
C161 C160 1.340 . S
C161 C162 1.439 1_556 S
C161 H201 0.950 . S
C162 C161 1.439 1_554 S
C162 N163 1.374 1_554 S
C162 C196 1.395 . S
N163 C159 1.376 . S
N163 C162 1.374 1_556 S
N163 Co164 2.008 1_556 S
Co164 N163 2.008 1_554 S
Co164 N165 1.995 . S
Co164 N170 2.008 . S
Co164 N175 1.995 . S
Co164 N180 2.282 . S
Co164 N186 2.282 . S
N165 Co164 1.995 . S
N165 C166 1.376 . S
N165 C169 1.383 . S
C166 N165 1.376 . S
C166 C167 1.446 . S
C166 C196 1.391 . S
C167 C166 1.446 . S
C167 C168 1.339 . S
C167 H202 0.949 . S
C168 C167 1.339 . S
C168 C169 1.439 . S
C168 H203 0.950 . S
C169 N165 1.383 . S
C169 C168 1.439 . S
C169 C198 1.392 . S
N170 Co164 2.008 . S
N170 C171 1.376 . S
N170 C174 1.374 . S
C171 N170 1.376 . S
C171 C172 1.443 . S
C171 C198 1.389 . S
C172 C171 1.443 . S
C172 C173 1.340 . S
C172 H204 0.951 . S
C173 C172 1.340 . S
C173 C174 1.439 . S
C173 H205 0.950 . S
C174 N170 1.374 . S
C174 C173 1.439 . S
C174 C199 1.395 . S
N175 Co164 1.995 . S
N175 C176 1.376 . S
N175 C179 1.383 1_554 S
C176 N175 1.376 . S
C176 C177 1.446 1_554 S
C176 C199 1.391 . S
C177 C176 1.446 1_556 S
C177 C178 1.339 . S
C177 H206 0.949 . S
C178 C177 1.339 . S
C178 C179 1.439 . S
C178 H207 0.950 . S
C179 N175 1.383 1_556 S
C179 C178 1.439 . S
C179 C197 1.392 . S
N180 Co164 2.282 . S
N180 C183 1.332 . S
N180 C185 1.332 . S
C181 C182 1.386 . S
C181 C184 1.388 . S
C182 C181 1.386 . S
C182 C183 1.382 . S
C182 H208 0.950 . S
C183 N180 1.332 . S
C183 C182 1.382 . S
C183 H194 0.952 . S
C184 C181 1.388 . S
C184 C185 1.382 . S
C184 H209 0.950 . S
C185 N180 1.332 . S
C185 C184 1.382 . S
C185 H195 0.948 . S
N186 Co164 2.282 . S
N186 C190 1.332 . S
N186 C191 1.332 . S
C187 C188 1.388 . S
C187 C191 1.382 . S
C187 H210 0.950 1_554 S
C188 C187 1.388 . S
C188 C189 1.386 . S
C189 C188 1.386 . S
C189 C190 1.382 . S
C189 H211 0.950 . S
C190 N186 1.332 . S
C190 C189 1.382 . S
C190 H192 0.952 . S
C191 N186 1.332 . S
C191 C187 1.382 . S
C191 H193 0.948 . S
H192 C190 0.952 . S
H193 C191 0.948 . S
H194 C183 0.952 . S
H195 C185 0.948 . S
C196 C162 1.395 . S
C196 C166 1.391 . S
C197 C159 1.389 . S
C197 C179 1.392 . S
C198 C169 1.392 . S
C198 C171 1.389 . S
C199 C174 1.395 . S
C199 C176 1.391 . S
H200 C160 0.951 . S
H201 C161 0.950 . S
H202 C167 0.949 . S
H203 C168 0.950 . S
H204 C172 0.951 . S
H205 C173 0.950 . S
H206 C177 0.949 . S
H207 C178 0.950 . S
H208 C182 0.950 . S
H209 C184 0.950 . S
H210 C187 0.950 1_556 S
H211 C189 0.950 . S
C212 C213 1.439 1_554 S
C212 N216 1.380 . S
C212 C250 1.388 1_554 S
C213 C212 1.439 1_556 S
C213 C214 1.340 . S
C213 H253 0.951 . S
C214 C213 1.340 . S
C214 C215 1.439 1_556 S
C214 H254 0.950 . S
C215 C214 1.439 1_554 S
C215 N216 1.374 . S
C215 C249 1.395 . S
N216 C212 1.380 . S
N216 C215 1.374 . S
N216 Co217 2.008 . S
Co217 N216 2.008 . S
Co217 N218 1.995 . S
Co217 N223 2.008 . S
Co217 N228 1.995 . S
Co217 N233 2.282 . S
Co217 N239 2.282 1_554 S
N218 Co217 1.995 . S
N218 C219 1.376 . S
N218 C222 1.383 . S
C219 N218 1.376 . S
C219 C220 1.446 . S
C219 C249 1.391 . S
C220 C219 1.446 . S
C220 C221 1.339 . S
C220 H255 0.949 . S
C221 C220 1.339 . S
C221 C222 1.439 . S
C221 H256 0.950 . S
C222 N218 1.383 . S
C222 C221 1.439 . S
C222 C251 1.392 . S
N223 Co217 2.008 . S
N223 C224 1.376 . S
N223 C227 1.374 . S
C224 N223 1.376 . S
C224 C225 1.443 . S
C224 C251 1.389 . S
C225 C224 1.443 . S
C225 C226 1.340 . S
C225 H257 0.951 . S
C226 C225 1.340 . S
C226 C227 1.439 . S
C226 H258 0.950 . S
C227 N223 1.374 . S
C227 C226 1.439 . S
C227 C252 1.395 . S
N228 Co217 1.995 . S
N228 C229 1.376 . S
N228 C232 1.383 . S
C229 N228 1.376 . S
C229 C230 1.446 . S
C229 C252 1.391 . S
C230 C229 1.446 . S
C230 C231 1.339 . S
C230 H259 0.949 . S
C231 C230 1.339 . S
C231 C232 1.439 . S
C231 H260 0.954 . S
C232 N228 1.383 . S
C232 C231 1.439 . S
C232 C250 1.386 1_554 S
N233 Co217 2.282 . S
N233 C236 1.332 . S
N233 C238 1.332 . S
C234 C235 1.386 . S
C234 C237 1.388 . S
C235 C234 1.386 . S
C235 C236 1.382 . S
C235 H261 0.950 . S
C236 N233 1.332 . S
C236 C235 1.382 . S
C236 H247 0.952 . S
C237 C234 1.388 . S
C237 C238 1.382 . S
C237 H262 0.950 . S
C238 N233 1.332 . S
C238 C237 1.382 . S
C238 H248 0.948 . S
N239 Co217 2.282 1_556 S
N239 C243 1.332 . S
N239 C244 1.332 . S
C240 C241 1.388 . S
C240 C244 1.382 . S
C240 H263 0.950 . S
C241 C240 1.388 . S
C241 C242 1.386 . S
C242 C241 1.386 . S
C242 C243 1.382 . S
C242 H264 0.950 . S
C243 N239 1.332 . S
C243 C242 1.382 . S
C243 H245 0.952 . S
C244 N239 1.332 . S
C244 C240 1.382 . S
C244 H246 0.948 . S
H245 C243 0.952 . S
H246 C244 0.948 . S
H247 C236 0.952 . S
H248 C238 0.948 . S
C249 C215 1.395 . S
C249 C219 1.391 . S
C250 C212 1.388 1_556 S
C250 C232 1.386 1_556 S
C251 C222 1.392 . S
C251 C224 1.389 . S
C252 C227 1.395 . S
C252 C229 1.391 . S
H253 C213 0.951 . S
H254 C214 0.950 . S
H255 C220 0.949 . S
H256 C221 0.950 . S
H257 C225 0.951 . S
H258 C226 0.950 . S
H259 C230 0.949 . S
H260 C231 0.954 . S
H261 C235 0.950 . S
H262 C237 0.950 . S
H263 C240 0.950 . S
H264 C242 0.950 . S
C265 C266 1.443 . S
C265 N269 1.376 . S
C265 C303 1.389 . S
C266 C265 1.443 . S
C266 C267 1.340 . S
C266 H306 0.951 . S
C267 C266 1.340 . S
C267 C268 1.439 . S
C267 H307 0.950 . S
C268 C267 1.439 . S
C268 N269 1.374 . S
C268 C302 1.395 . S
N269 C265 1.376 . S
N269 C268 1.374 . S
N269 Co270 2.008 . S
Co270 N269 2.008 . S
Co270 N271 1.995 . S
Co270 N276 2.008 . S
Co270 N281 1.995 . S
Co270 N286 2.282 . S
Co270 N292 2.282 . S
N271 Co270 1.995 . S
N271 C272 1.376 . S
N271 C275 1.383 . S
C272 N271 1.376 . S
C272 C273 1.446 . S
C272 C302 1.391 . S
C273 C272 1.446 . S
C273 C274 1.339 . S
C273 H308 0.949 . S
C274 C273 1.339 . S
C274 C275 1.439 . S
C274 H309 0.950 . S
C275 N271 1.383 . S
C275 C274 1.439 . S
C275 C304 1.392 . S
N276 Co270 2.008 . S
N276 C277 1.376 . S
N276 C280 1.374 . S
C277 N276 1.376 . S
C277 C278 1.443 . S
C277 C304 1.389 . S
C278 C277 1.443 . S
C278 C279 1.340 . S
C278 H310 0.951 . S
C279 C278 1.340 . S
C279 C280 1.439 . S
C279 H311 0.950 . S
C280 N276 1.374 . S
C280 C279 1.439 . S
C280 C305 1.395 . S
N281 Co270 1.995 . S
N281 C282 1.376 . S
N281 C285 1.383 . S
C282 N281 1.376 . S
C282 C283 1.446 . S
C282 C305 1.391 . S
C283 C282 1.446 . S
C283 C284 1.339 . S
C283 H312 0.949 . S
C284 C283 1.339 . S
C284 C285 1.439 . S
C284 H313 0.950 . S
C285 N281 1.383 . S
C285 C284 1.439 . S
C285 C303 1.392 . S
N286 Co270 2.282 . S
N286 C289 1.332 . S
N286 C291 1.332 . S
C287 C288 1.386 . S
C287 C290 1.388 . S
C288 C287 1.386 . S
C288 C289 1.382 . S
C288 H314 0.950 . S
C289 N286 1.332 . S
C289 C288 1.382 . S
C289 H300 0.952 . S
C290 C287 1.388 . S
C290 C291 1.382 . S
C290 H315 0.950 . S
C291 N286 1.332 . S
C291 C290 1.382 . S
C291 H301 0.948 . S
N292 Co270 2.282 . S
N292 C296 1.332 . S
N292 C297 1.332 . S
C293 C294 1.388 . S
C293 C297 1.382 . S
C293 H316 0.950 . S
C294 C293 1.388 . S
C294 C295 1.386 . S
C295 C294 1.386 . S
C295 C296 1.382 . S
C295 H317 0.950 . S
C296 N292 1.332 . S
C296 C295 1.382 . S
C296 H298 0.952 . S
C297 N292 1.332 . S
C297 C293 1.382 . S
C297 H299 0.948 . S
H298 C296 0.952 . S
H299 C297 0.948 . S
H300 C289 0.952 . S
H301 C291 0.948 . S
C302 C268 1.395 . S
C302 C272 1.391 . S
C303 C265 1.389 . S
C303 C285 1.392 . S
C304 C275 1.392 . S
C304 C277 1.389 . S
C305 C280 1.395 . S
C305 C282 1.391 . S
H306 C266 0.951 . S
H307 C267 0.950 . S
H308 C273 0.949 . S
H309 C274 0.950 . S
H310 C278 0.951 . S
H311 C279 0.950 . S
H312 C283 0.949 . S
H313 C284 0.950 . S
H314 C288 0.950 . S
H315 C290 0.950 . S
H316 C293 0.950 . S
H317 C295 0.950 . S
C318 C319 1.443 . S
C318 N322 1.376 . S
C318 C356 1.389 . S
C319 C318 1.443 . S
C319 C320 1.340 . S
C319 H359 0.951 . S
C320 C319 1.340 . S
C320 C321 1.439 . S
C320 H360 0.950 . S
C321 C320 1.439 . S
C321 N322 1.374 . S
C321 C355 1.395 . S
N322 C318 1.376 . S
N322 C321 1.374 . S
N322 Co323 2.008 . S
Co323 N322 2.008 . S
Co323 N324 1.995 . S
Co323 N329 2.008 . S
Co323 N334 1.995 . S
Co323 N339 2.282 . S
Co323 N345 2.282 . S
N324 Co323 1.995 . S
N324 C325 1.376 . S
N324 C328 1.383 . S
C325 N324 1.376 . S
C325 C326 1.446 . S
C325 C355 1.391 . S
C326 C325 1.446 . S
C326 C327 1.339 . S
C326 H361 0.949 . S
C327 C326 1.339 . S
C327 C328 1.439 . S
C327 H362 0.950 . S
C328 N324 1.383 . S
C328 C327 1.439 . S
C328 C357 1.392 . S
N329 Co323 2.008 . S
N329 C330 1.376 . S
N329 C333 1.374 . S
C330 N329 1.376 . S
C330 C331 1.443 . S
C330 C357 1.389 . S
C331 C330 1.443 . S
C331 C332 1.340 . S
C331 H363 0.951 . S
C332 C331 1.340 . S
C332 C333 1.439 . S
C332 H364 0.950 . S
C333 N329 1.374 . S
C333 C332 1.439 . S
C333 C358 1.395 . S
N334 Co323 1.995 . S
N334 C335 1.376 . S
N334 C338 1.383 . S
C335 N334 1.376 . S
C335 C336 1.446 . S
C335 C358 1.391 . S
C336 C335 1.446 . S
C336 C337 1.339 . S
C336 H365 0.949 . S
C337 C336 1.339 . S
C337 C338 1.439 . S
C337 H366 0.950 . S
C338 N334 1.383 . S
C338 C337 1.439 . S
C338 C356 1.392 . S
N339 Co323 2.282 . S
N339 C342 1.332 . S
N339 C344 1.332 . S
C340 C341 1.386 . S
C340 C343 1.388 . S
C341 C340 1.386 . S
C341 C342 1.382 . S
C341 H367 0.950 . S
C342 N339 1.332 . S
C342 C341 1.382 . S
C342 H353 0.952 . S
C343 C340 1.388 . S
C343 C344 1.382 . S
C343 H368 0.950 . S
C344 N339 1.332 . S
C344 C343 1.382 . S
C344 H354 0.948 . S
N345 Co323 2.282 . S
N345 C349 1.332 . S
N345 C350 1.332 . S
C346 C347 1.388 . S
C346 C350 1.382 . S
C346 H369 0.950 . S
C347 C346 1.388 . S
C347 C348 1.386 . S
C348 C347 1.386 . S
C348 C349 1.382 . S
C348 H370 0.950 . S
C349 N345 1.332 . S
C349 C348 1.382 . S
C349 H351 0.952 . S
C350 N345 1.332 . S
C350 C346 1.382 . S
C350 H352 0.948 . S
H351 C349 0.952 . S
H352 C350 0.948 . S
H353 C342 0.952 . S
H354 C344 0.948 . S
C355 C321 1.395 . S
C355 C325 1.391 . S
C356 C318 1.389 . S
C356 C338 1.392 . S
C357 C328 1.392 . S
C357 C330 1.389 . S
C358 C333 1.395 . S
C358 C335 1.391 . S
H359 C319 0.951 . S
H360 C320 0.950 . S
H361 C326 0.949 . S
H362 C327 0.950 . S
H363 C331 0.951 . S
H364 C332 0.950 . S
H365 C336 0.949 . S
H366 C337 0.950 . S
H367 C341 0.950 . S
H368 C343 0.950 . S
H369 C346 0.950 . S
H370 C348 0.950 . S
C371 C372 1.443 . S
C371 N375 1.376 . S
C371 C409 1.389 . S
C372 C371 1.443 . S
C372 C373 1.340 . S
C372 H412 0.951 . S
C373 C372 1.340 . S
C373 C374 1.439 . S
C373 H413 0.950 . S
C374 C373 1.439 . S
C374 N375 1.374 . S
C374 C408 1.395 . S
N375 C371 1.376 . S
N375 C374 1.374 . S
N375 Co376 2.008 . S
Co376 N375 2.008 . S
Co376 N377 1.995 . S
Co376 N382 2.008 . S
Co376 N387 1.995 . S
Co376 N392 2.282 . S
Co376 N398 2.282 . S
N377 Co376 1.995 . S
N377 C378 1.376 . S
N377 C381 1.383 . S
C378 N377 1.376 . S
C378 C379 1.446 . S
C378 C408 1.391 . S
C379 C378 1.446 . S
C379 C380 1.339 . S
C379 H414 0.949 . S
C380 C379 1.339 . S
C380 C381 1.439 . S
C380 H415 0.950 . S
C381 N377 1.383 . S
C381 C380 1.439 . S
C381 C410 1.392 . S
N382 Co376 2.008 . S
N382 C383 1.376 . S
N382 C386 1.374 . S
C383 N382 1.376 . S
C383 C384 1.443 . S
C383 C410 1.389 . S
C384 C383 1.443 . S
C384 C385 1.340 . S
C384 H416 0.951 . S
C385 C384 1.340 . S
C385 C386 1.439 . S
C385 H417 0.950 . S
C386 N382 1.374 . S
C386 C385 1.439 . S
C386 C411 1.395 . S
N387 Co376 1.995 . S
N387 C388 1.376 . S
N387 C391 1.383 . S
C388 N387 1.376 . S
C388 C389 1.446 . S
C388 C411 1.391 . S
C389 C388 1.446 . S
C389 C390 1.339 . S
C389 H418 0.949 . S
C390 C389 1.339 . S
C390 C391 1.439 . S
C390 H419 0.950 . S
C391 N387 1.383 . S
C391 C390 1.439 . S
C391 C409 1.392 . S
N392 Co376 2.282 . S
N392 C395 1.332 . S
N392 C397 1.332 . S
C393 C394 1.386 . S
C393 C396 1.388 . S
C394 C393 1.386 . S
C394 C395 1.382 . S
C394 H420 0.950 . S
C395 N392 1.332 . S
C395 C394 1.382 . S
C395 H406 0.952 . S
C396 C393 1.388 . S
C396 C397 1.382 . S
C396 H421 0.950 . S
C397 N392 1.332 . S
C397 C396 1.382 . S
C397 H407 0.948 . S
N398 Co376 2.282 . S
N398 C402 1.332 . S
N398 C403 1.332 . S
C399 C400 1.388 . S
C399 C403 1.382 . S
C399 H422 0.950 . S
C400 C399 1.388 . S
C400 C401 1.386 . S
C401 C400 1.386 . S
C401 C402 1.382 . S
C401 H423 0.950 . S
C402 N398 1.332 . S
C402 C401 1.382 . S
C402 H404 0.952 . S
C403 N398 1.332 . S
C403 C399 1.382 . S
C403 H405 0.948 . S
H404 C402 0.952 . S
H405 C403 0.948 . S
H406 C395 0.952 . S
H407 C397 0.948 . S
C408 C374 1.395 . S
C408 C378 1.391 . S
C409 C371 1.389 . S
C409 C391 1.392 . S
C410 C381 1.392 . S
C410 C383 1.389 . S
C411 C386 1.395 . S
C411 C388 1.391 . S
H412 C372 0.951 . S
H413 C373 0.950 . S
H414 C379 0.949 . S
H415 C380 0.950 . S
H416 C384 0.951 . S
H417 C385 0.950 . S
H418 C389 0.949 . S
H419 C390 0.950 . S
H420 C394 0.950 . S
H421 C396 0.950 . S
H422 C399 0.950 . S
H423 C401 0.950 . S
C424 C425 1.443 . S
C424 N428 1.376 . S
C424 C462 1.389 . S
C425 C424 1.443 . S
C425 C426 1.340 . S
C425 H465 0.951 . S
C426 C425 1.340 . S
C426 C427 1.439 . S
C426 H466 0.950 . S
C427 C426 1.439 . S
C427 N428 1.374 . S
C427 C461 1.395 . S
N428 C424 1.376 . S
N428 C427 1.374 . S
N428 Co429 2.008 . S
Co429 N428 2.008 . S
Co429 N430 1.995 . S
Co429 N435 2.008 . S
Co429 N440 1.995 . S
Co429 N445 2.282 . S
Co429 N451 2.282 . S
N430 Co429 1.995 . S
N430 C431 1.376 . S
N430 C434 1.383 . S
C431 N430 1.376 . S
C431 C432 1.446 . S
C431 C461 1.391 . S
C432 C431 1.446 . S
C432 C433 1.339 . S
C432 H467 0.949 . S
C433 C432 1.339 . S
C433 C434 1.439 . S
C433 H468 0.950 . S
C434 N430 1.383 . S
C434 C433 1.439 . S
C434 C463 1.392 . S
N435 Co429 2.008 . S
N435 C436 1.376 . S
N435 C439 1.374 . S
C436 N435 1.376 . S
C436 C437 1.443 . S
C436 C463 1.389 . S
C437 C436 1.443 . S
C437 C438 1.340 . S
C437 H469 0.951 . S
C438 C437 1.340 . S
C438 C439 1.439 . S
C438 H470 0.950 . S
C439 N435 1.374 . S
C439 C438 1.439 . S
C439 C464 1.395 . S
N440 Co429 1.995 . S
N440 C441 1.376 . S
N440 C444 1.383 . S
C441 N440 1.376 . S
C441 C442 1.446 . S
C441 C464 1.391 . S
C442 C441 1.446 . S
C442 C443 1.339 . S
C442 H471 0.949 . S
C443 C442 1.339 . S
C443 C444 1.439 . S
C443 H472 0.950 . S
C444 N440 1.383 . S
C444 C443 1.439 . S
C444 C462 1.392 . S
N445 Co429 2.282 . S
N445 C448 1.332 . S
N445 C450 1.332 . S
C446 C447 1.386 . S
C446 C449 1.388 . S
C447 C446 1.386 . S
C447 C448 1.382 . S
C447 H473 0.950 . S
C448 N445 1.332 . S
C448 C447 1.382 . S
C448 H459 0.952 . S
C449 C446 1.388 . S
C449 C450 1.382 . S
C449 H474 0.950 . S
C450 N445 1.332 . S
C450 C449 1.382 . S
C450 H460 0.948 . S
N451 Co429 2.282 . S
N451 C455 1.332 . S
N451 C456 1.332 . S
C452 C453 1.388 . S
C452 C456 1.382 . S
C452 H475 0.950 . S
C453 C452 1.388 . S
C453 C454 1.386 . S
C454 C453 1.386 . S
C454 C455 1.382 . S
C454 H476 0.950 . S
C455 N451 1.332 . S
C455 C454 1.382 . S
C455 H457 0.952 . S
C456 N451 1.332 . S
C456 C452 1.382 . S
C456 H458 0.948 . S
H457 C455 0.952 . S
H458 C456 0.948 . S
H459 C448 0.952 . S
H460 C450 0.948 . S
C461 C427 1.395 . S
C461 C431 1.391 . S
C462 C424 1.389 . S
C462 C444 1.392 . S
C463 C434 1.392 . S
C463 C436 1.389 . S
C464 C439 1.395 . S
C464 C441 1.391 . S
H465 C425 0.951 . S
H466 C426 0.950 . S
H467 C432 0.949 . S
H468 C433 0.950 . S
H469 C437 0.951 . S
H470 C438 0.950 . S
H471 C442 0.949 . S
H472 C443 0.950 . S
H473 C447 0.950 . S
H474 C449 0.950 . S
H475 C452 0.950 . S
H476 C454 0.950 . S
C477 C478 1.443 . S
C477 N481 1.376 . S
C477 C515 1.389 . S
C478 C477 1.443 . S
C478 C479 1.340 . S
C478 H518 0.951 . S
C479 C478 1.340 . S
C479 C480 1.439 1_556 S
C479 H519 0.950 . S
C480 C479 1.439 1_554 S
C480 N481 1.374 1_554 S
C480 C514 1.395 . S
N481 C477 1.376 . S
N481 C480 1.374 1_556 S
N481 Co482 2.008 1_556 S
Co482 N481 2.008 1_554 S
Co482 N483 1.995 . S
Co482 N488 2.008 . S
Co482 N493 1.995 . S
Co482 N498 2.282 . S
Co482 N504 2.282 . S
N483 Co482 1.995 . S
N483 C484 1.376 . S
N483 C487 1.383 . S
C484 N483 1.376 . S
C484 C485 1.446 . S
C484 C514 1.391 . S
C485 C484 1.446 . S
C485 C486 1.339 . S
C485 H520 0.949 . S
C486 C485 1.339 . S
C486 C487 1.439 . S
C486 H521 0.950 . S
C487 N483 1.383 . S
C487 C486 1.439 . S
C487 C516 1.392 . S
N488 Co482 2.008 . S
N488 C489 1.376 . S
N488 C492 1.374 . S
C489 N488 1.376 . S
C489 C490 1.443 . S
C489 C516 1.389 . S
C490 C489 1.443 . S
C490 C491 1.340 . S
C490 H522 0.951 . S
C491 C490 1.340 . S
C491 C492 1.439 . S
C491 H523 0.950 . S
C492 N488 1.374 . S
C492 C491 1.439 . S
C492 C517 1.395 . S
N493 Co482 1.995 . S
N493 C494 1.376 . S
N493 C497 1.383 1_554 S
C494 N493 1.376 . S
C494 C495 1.446 1_554 S
C494 C517 1.391 . S
C495 C494 1.446 1_556 S
C495 C496 1.339 . S
C495 H524 0.949 . S
C496 C495 1.339 . S
C496 C497 1.439 . S
C496 H525 0.950 . S
C497 N493 1.383 1_556 S
C497 C496 1.439 . S
C497 C515 1.392 . S
N498 Co482 2.282 . S
N498 C501 1.332 . S
N498 C503 1.332 . S
C499 C500 1.386 . S
C499 C502 1.388 . S
C500 C499 1.386 . S
C500 C501 1.382 . S
C500 H526 0.950 . S
C501 N498 1.332 . S
C501 C500 1.382 . S
C501 H512 0.952 . S
C502 C499 1.388 . S
C502 C503 1.382 . S
C502 H527 0.950 . S
C503 N498 1.332 . S
C503 C502 1.382 . S
C503 H513 0.948 . S
N504 Co482 2.282 . S
N504 C508 1.332 . S
N504 C509 1.332 . S
C505 C506 1.388 . S
C505 C509 1.382 . S
C505 H528 0.950 1_554 S
C506 C505 1.388 . S
C506 C507 1.386 . S
C507 C506 1.386 . S
C507 C508 1.382 . S
C507 H529 0.950 . S
C508 N504 1.332 . S
C508 C507 1.382 . S
C508 H510 0.952 . S
C509 N504 1.332 . S
C509 C505 1.382 . S
C509 H511 0.948 . S
H510 C508 0.952 . S
H511 C509 0.948 . S
H512 C501 0.952 . S
H513 C503 0.948 . S
C514 C480 1.395 . S
C514 C484 1.391 . S
C515 C477 1.389 . S
C515 C497 1.392 . S
C516 C487 1.392 . S
C516 C489 1.389 . S
C517 C492 1.395 . S
C517 C494 1.391 . S
H518 C478 0.951 . S
H519 C479 0.950 . S
H520 C485 0.949 . S
H521 C486 0.950 . S
H522 C490 0.951 . S
H523 C491 0.950 . S
H524 C495 0.949 . S
H525 C496 0.950 . S
H526 C500 0.950 . S
H527 C502 0.950 . S
H528 C505 0.950 1_556 S
H529 C507 0.950 . S
C530 C531 1.443 . S
C530 N534 1.376 . S
C530 C568 1.389 . S
C531 C530 1.443 . S
C531 C532 1.340 . S
C531 H571 0.951 . S
C532 C531 1.340 . S
C532 C533 1.439 . S
C532 H572 0.950 . S
C533 C532 1.439 . S
C533 N534 1.374 . S
C533 C567 1.395 . S
N534 C530 1.376 . S
N534 C533 1.374 . S
N534 Co535 2.008 . S
Co535 N534 2.008 . S
Co535 N536 1.995 . S
Co535 N541 2.008 . S
Co535 N546 1.995 . S
Co535 N551 2.282 . S
Co535 N557 2.282 . S
N536 Co535 1.995 . S
N536 C537 1.376 . S
N536 C540 1.383 . S
C537 N536 1.376 . S
C537 C538 1.446 . S
C537 C567 1.391 . S
C538 C537 1.446 . S
C538 C539 1.339 . S
C538 H573 0.949 . S
C539 C538 1.339 . S
C539 C540 1.439 . S
C539 H574 0.950 . S
C540 N536 1.383 . S
C540 C539 1.439 . S
C540 C569 1.392 . S
N541 Co535 2.008 . S
N541 C542 1.376 . S
N541 C545 1.374 . S
C542 N541 1.376 . S
C542 C543 1.443 . S
C542 C569 1.389 . S
C543 C542 1.443 . S
C543 C544 1.340 . S
C543 H575 0.951 . S
C544 C543 1.340 . S
C544 C545 1.439 . S
C544 H576 0.950 . S
C545 N541 1.374 . S
C545 C544 1.439 . S
C545 C570 1.395 . S
N546 Co535 1.995 . S
N546 C547 1.376 . S
N546 C550 1.383 . S
C547 N546 1.376 . S
C547 C548 1.446 . S
C547 C570 1.391 . S
C548 C547 1.446 . S
C548 C549 1.339 . S
C548 H577 0.949 . S
C549 C548 1.339 . S
C549 C550 1.439 . S
C549 H578 0.950 . S
C550 N546 1.383 . S
C550 C549 1.439 . S
C550 C568 1.392 . S
N551 Co535 2.282 . S
N551 C554 1.332 . S
N551 C556 1.332 . S
C552 C553 1.386 . S
C552 C555 1.388 . S
C553 C552 1.386 . S
C553 C554 1.382 . S
C553 H579 0.950 . S
C554 N551 1.332 . S
C554 C553 1.382 . S
C554 H565 0.952 . S
C555 C552 1.388 . S
C555 C556 1.382 . S
C555 H580 0.950 . S
C556 N551 1.332 . S
C556 C555 1.382 . S
C556 H566 0.948 . S
N557 Co535 2.282 . S
N557 C561 1.332 . S
N557 C562 1.332 . S
C558 C559 1.388 . S
C558 C562 1.382 . S
C558 H581 0.950 . S
C559 C558 1.388 . S
C559 C560 1.386 . S
C560 C559 1.386 . S
C560 C561 1.382 . S
C560 H582 0.950 . S
C561 N557 1.332 . S
C561 C560 1.382 . S
C561 H563 0.952 . S
C562 N557 1.332 . S
C562 C558 1.382 . S
C562 H564 0.948 . S
H563 C561 0.952 . S
H564 C562 0.948 . S
H565 C554 0.952 . S
H566 C556 0.948 . S
C567 C533 1.395 . S
C567 C537 1.391 . S
C568 C530 1.389 . S
C568 C550 1.392 . S
C569 C540 1.392 . S
C569 C542 1.389 . S
C570 C545 1.395 . S
C570 C547 1.391 . S
H571 C531 0.951 . S
H572 C532 0.950 . S
H573 C538 0.949 . S
H574 C539 0.950 . S
H575 C543 0.951 . S
H576 C544 0.950 . S
H577 C548 0.949 . S
H578 C549 0.950 . S
H579 C553 0.950 . S
H580 C555 0.950 . S
H581 C558 0.950 . S
H582 C560 0.950 . S
C583 C584 1.443 . S
C583 N587 1.376 . S
C583 C621 1.389 . S
C584 C583 1.443 . S
C584 C585 1.340 . S
C584 H624 0.951 . S
C585 C584 1.340 . S
C585 C586 1.439 . S
C585 H625 0.950 . S
C586 C585 1.439 . S
C586 N587 1.374 . S
C586 C620 1.395 . S
N587 C583 1.376 . S
N587 C586 1.374 . S
N587 Co588 2.008 . S
Co588 N587 2.008 . S
Co588 N589 1.995 . S
Co588 N594 2.008 . S
Co588 N599 1.995 . S
Co588 N604 2.282 . S
Co588 N610 2.282 . S
N589 Co588 1.995 . S
N589 C590 1.376 . S
N589 C593 1.383 . S
C590 N589 1.376 . S
C590 C591 1.446 . S
C590 C620 1.391 . S
C591 C590 1.446 . S
C591 C592 1.339 . S
C591 H626 0.949 . S
C592 C591 1.339 . S
C592 C593 1.439 . S
C592 H627 0.950 . S
C593 N589 1.383 . S
C593 C592 1.439 . S
C593 C622 1.392 . S
N594 Co588 2.008 . S
N594 C595 1.376 . S
N594 C598 1.374 . S
C595 N594 1.376 . S
C595 C596 1.443 . S
C595 C622 1.389 . S
C596 C595 1.443 . S
C596 C597 1.340 . S
C596 H628 0.951 . S
C597 C596 1.340 . S
C597 C598 1.439 . S
C597 H629 0.950 . S
C598 N594 1.374 . S
C598 C597 1.439 . S
C598 C623 1.395 . S
N599 Co588 1.995 . S
N599 C600 1.376 . S
N599 C603 1.383 . S
C600 N599 1.376 . S
C600 C601 1.446 . S
C600 C623 1.391 . S
C601 C600 1.446 . S
C601 C602 1.339 . S
C601 H630 0.949 . S
C602 C601 1.339 . S
C602 C603 1.439 . S
C602 H631 0.950 . S
C603 N599 1.383 . S
C603 C602 1.439 . S
C603 C621 1.392 . S
N604 Co588 2.282 . S
N604 C607 1.332 . S
N604 C609 1.332 . S
C605 C606 1.386 . S
C605 C608 1.388 . S
C606 C605 1.386 . S
C606 C607 1.382 . S
C606 H632 0.950 . S
C607 N604 1.332 . S
C607 C606 1.382 . S
C607 H618 0.952 . S
C608 C605 1.388 . S
C608 C609 1.382 . S
C608 H633 0.950 . S
C609 N604 1.332 . S
C609 C608 1.382 . S
C609 H619 0.948 . S
N610 Co588 2.282 . S
N610 C614 1.332 . S
N610 C615 1.332 . S
C611 C612 1.388 . S
C611 C615 1.382 . S
C611 H634 0.950 . S
C612 C611 1.388 . S
C612 C613 1.386 . S
C613 C612 1.386 . S
C613 C614 1.382 . S
C613 H635 0.950 . S
C614 N610 1.332 . S
C614 C613 1.382 . S
C614 H616 0.952 . S
C615 N610 1.332 . S
C615 C611 1.382 . S
C615 H617 0.948 . S
H616 C614 0.952 . S
H617 C615 0.948 . S
H618 C607 0.952 . S
H619 C609 0.948 . S
C620 C586 1.395 . S
C620 C590 1.391 . S
C621 C583 1.389 . S
C621 C603 1.392 . S
C622 C593 1.392 . S
C622 C595 1.389 . S
C623 C598 1.395 . S
C623 C600 1.391 . S
H624 C584 0.951 . S
H625 C585 0.950 . S
H626 C591 0.949 . S
H627 C592 0.950 . S
H628 C596 0.951 . S
H629 C597 0.950 . S
H630 C601 0.949 . S
H631 C602 0.950 . S
H632 C606 0.950 . S
H633 C608 0.950 . S
H634 C611 0.950 . S
H635 C613 0.950 . S
C636 C637 1.443 . S
C636 N640 1.376 . S
C636 C674 1.389 . S
C637 C636 1.443 . S
C637 C638 1.340 . S
C637 H677 0.951 . S
C638 C637 1.340 . S
C638 C639 1.439 . S
C638 H678 0.950 . S
C639 C638 1.439 . S
C639 N640 1.374 . S
C639 C673 1.395 . S
N640 C636 1.376 . S
N640 C639 1.374 . S
N640 Co641 2.008 . S
Co641 N640 2.008 . S
Co641 N642 1.995 . S
Co641 N647 2.008 . S
Co641 N652 1.995 . S
Co641 N657 2.282 . S
Co641 N663 2.282 . S
N642 Co641 1.995 . S
N642 C643 1.376 . S
N642 C646 1.383 . S
C643 N642 1.376 . S
C643 C644 1.446 . S
C643 C673 1.391 . S
C644 C643 1.446 . S
C644 C645 1.339 . S
C644 H679 0.949 . S
C645 C644 1.339 . S
C645 C646 1.439 . S
C645 H680 0.950 . S
C646 N642 1.383 . S
C646 C645 1.439 . S
C646 C675 1.392 . S
N647 Co641 2.008 . S
N647 C648 1.376 . S
N647 C651 1.374 . S
C648 N647 1.376 . S
C648 C649 1.443 . S
C648 C675 1.389 . S
C649 C648 1.443 . S
C649 C650 1.340 . S
C649 H681 0.951 . S
C650 C649 1.340 . S
C650 C651 1.439 . S
C650 H682 0.950 . S
C651 N647 1.374 . S
C651 C650 1.439 . S
C651 C676 1.395 . S
N652 Co641 1.995 . S
N652 C653 1.376 . S
N652 C656 1.383 . S
C653 N652 1.376 . S
C653 C654 1.446 . S
C653 C676 1.391 . S
C654 C653 1.446 . S
C654 C655 1.339 . S
C654 H683 0.949 . S
C655 C654 1.339 . S
C655 C656 1.439 . S
C655 H684 0.950 . S
C656 N652 1.383 . S
C656 C655 1.439 . S
C656 C674 1.392 . S
N657 Co641 2.282 . S
N657 C660 1.332 . S
N657 C662 1.332 . S
C658 C659 1.386 . S
C658 C661 1.388 . S
C659 C658 1.386 . S
C659 C660 1.382 . S
C659 H685 0.950 . S
C660 N657 1.332 . S
C660 C659 1.382 . S
C660 H671 0.952 . S
C661 C658 1.388 . S
C661 C662 1.382 . S
C661 H686 0.950 . S
C662 N657 1.332 . S
C662 C661 1.382 . S
C662 H672 0.948 . S
N663 Co641 2.282 . S
N663 C667 1.332 . S
N663 C668 1.332 . S
C664 C665 1.388 . S
C664 C668 1.382 . S
C664 H687 0.950 . S
C665 C664 1.388 . S
C665 C666 1.386 . S
C666 C665 1.386 . S
C666 C667 1.382 . S
C666 H688 0.950 . S
C667 N663 1.332 . S
C667 C666 1.382 . S
C667 H669 0.952 . S
C668 N663 1.332 . S
C668 C664 1.382 . S
C668 H670 0.948 . S
H669 C667 0.952 . S
H670 C668 0.948 . S
H671 C660 0.952 . S
H672 C662 0.948 . S
C673 C639 1.395 . S
C673 C643 1.391 . S
C674 C636 1.389 . S
C674 C656 1.392 . S
C675 C646 1.392 . S
C675 C648 1.389 . S
C676 C651 1.395 . S
C676 C653 1.391 . S
H677 C637 0.951 . S
H678 C638 0.950 . S
H679 C644 0.949 . S
H680 C645 0.950 . S
H681 C649 0.951 . S
H682 C650 0.950 . S
H683 C654 0.949 . S
H684 C655 0.950 . S
H685 C659 0.950 . S
H686 C661 0.950 . S
H687 C664 0.950 . S
H688 C666 0.950 . S
C689 C690 1.443 . S
C689 N693 1.376 . S
C689 C727 1.389 . S
C690 C689 1.443 . S
C690 C691 1.340 . S
C690 H730 0.951 . S
C691 C690 1.340 . S
C691 C692 1.439 . S
C691 H731 0.950 . S
C692 C691 1.439 . S
C692 N693 1.374 . S
C692 C726 1.395 . S
N693 C689 1.376 . S
N693 C692 1.374 . S
N693 Co694 2.008 . S
Co694 N693 2.008 . S
Co694 N695 1.995 . S
Co694 N700 2.008 . S
Co694 N705 1.995 . S
Co694 N710 2.282 . S
Co694 N716 2.282 . S
N695 Co694 1.995 . S
N695 C696 1.376 . S
N695 C699 1.383 . S
C696 N695 1.376 . S
C696 C697 1.446 . S
C696 C726 1.391 . S
C697 C696 1.446 . S
C697 C698 1.339 . S
C697 H732 0.949 . S
C698 C697 1.339 . S
C698 C699 1.439 . S
C698 H733 0.950 . S
C699 N695 1.383 . S
C699 C698 1.439 . S
C699 C728 1.392 . S
N700 Co694 2.008 . S
N700 C701 1.376 . S
N700 C704 1.374 . S
C701 N700 1.376 . S
C701 C702 1.443 . S
C701 C728 1.389 . S
C702 C701 1.443 . S
C702 C703 1.340 . S
C702 H734 0.951 . S
C703 C702 1.340 . S
C703 C704 1.439 . S
C703 H735 0.950 . S
C704 N700 1.374 . S
C704 C703 1.439 . S
C704 C729 1.395 . S
N705 Co694 1.995 . S
N705 C706 1.376 . S
N705 C709 1.383 . S
C706 N705 1.376 . S
C706 C707 1.446 . S
C706 C729 1.391 . S
C707 C706 1.446 . S
C707 C708 1.339 . S
C707 H736 0.949 . S
C708 C707 1.339 . S
C708 C709 1.439 . S
C708 H737 0.950 . S
C709 N705 1.383 . S
C709 C708 1.439 . S
C709 C727 1.392 . S
N710 Co694 2.282 . S
N710 C713 1.332 . S
N710 C715 1.332 . S
C711 C712 1.386 . S
C711 C714 1.388 . S
C712 C711 1.386 . S
C712 C713 1.382 . S
C712 H738 0.950 . S
C713 N710 1.332 . S
C713 C712 1.382 . S
C713 H724 0.952 . S
C714 C711 1.388 . S
C714 C715 1.382 . S
C714 H739 0.950 . S
C715 N710 1.332 . S
C715 C714 1.382 . S
C715 H725 0.948 . S
N716 Co694 2.282 . S
N716 C720 1.332 . S
N716 C721 1.332 . S
C717 C718 1.388 . S
C717 C721 1.382 . S
C717 H740 0.950 . S
C718 C717 1.388 . S
C718 C719 1.386 . S
C719 C718 1.386 . S
C719 C720 1.382 . S
C719 H741 0.950 . S
C720 N716 1.332 . S
C720 C719 1.382 . S
C720 H722 0.952 . S
C721 N716 1.332 . S
C721 C717 1.382 . S
C721 H723 0.948 . S
H722 C720 0.952 . S
H723 C721 0.948 . S
H724 C713 0.952 . S
H725 C715 0.948 . S
C726 C692 1.395 . S
C726 C696 1.391 . S
C727 C689 1.389 . S
C727 C709 1.392 . S
C728 C699 1.392 . S
C728 C701 1.389 . S
C729 C704 1.395 . S
C729 C706 1.391 . S
H730 C690 0.951 . S
H731 C691 0.950 . S
H732 C697 0.949 . S
H733 C698 0.950 . S
H734 C702 0.951 . S
H735 C703 0.950 . S
H736 C707 0.949 . S
H737 C708 0.950 . S
H738 C712 0.950 . S
H739 C714 0.950 . S
H740 C717 0.950 . S
H741 C719 0.950 . S
C742 C743 1.439 1_554 S
C742 N746 1.380 . S
C742 C780 1.388 1_554 S
C743 C742 1.439 1_556 S
C743 C744 1.340 . S
C743 H783 0.951 . S
C744 C743 1.340 . S
C744 C745 1.439 1_556 S
C744 H784 0.950 . S
C745 C744 1.439 1_554 S
C745 N746 1.374 . S
C745 C779 1.395 . S
N746 C742 1.380 . S
N746 C745 1.374 . S
N746 Co747 2.008 . S
Co747 N746 2.008 . S
Co747 N748 1.995 . S
Co747 N753 2.008 . S
Co747 N758 1.995 . S
Co747 N763 2.282 . S
Co747 N769 2.282 1_554 S
N748 Co747 1.995 . S
N748 C749 1.376 . S
N748 C752 1.383 . S
C749 N748 1.376 . S
C749 C750 1.446 . S
C749 C779 1.391 . S
C750 C749 1.446 . S
C750 C751 1.339 . S
C750 H785 0.949 . S
C751 C750 1.339 . S
C751 C752 1.439 . S
C751 H786 0.950 . S
C752 N748 1.383 . S
C752 C751 1.439 . S
C752 C781 1.392 . S
N753 Co747 2.008 . S
N753 C754 1.376 . S
N753 C757 1.374 . S
C754 N753 1.376 . S
C754 C755 1.443 . S
C754 C781 1.389 . S
C755 C754 1.443 . S
C755 C756 1.340 . S
C755 H787 0.951 . S
C756 C755 1.340 . S
C756 C757 1.439 . S
C756 H788 0.950 . S
C757 N753 1.374 . S
C757 C756 1.439 . S
C757 C782 1.395 . S
N758 Co747 1.995 . S
N758 C759 1.376 . S
N758 C762 1.383 . S
C759 N758 1.376 . S
C759 C760 1.446 . S
C759 C782 1.391 . S
C760 C759 1.446 . S
C760 C761 1.339 . S
C760 H789 0.949 . S
C761 C760 1.339 . S
C761 C762 1.439 . S
C761 H790 0.954 . S
C762 N758 1.383 . S
C762 C761 1.439 . S
C762 C780 1.386 1_554 S
N763 Co747 2.282 . S
N763 C766 1.332 . S
N763 C768 1.332 . S
C764 C765 1.386 . S
C764 C767 1.388 . S
C765 C764 1.386 . S
C765 C766 1.382 . S
C765 H791 0.950 . S
C766 N763 1.332 . S
C766 C765 1.382 . S
C766 H777 0.952 . S
C767 C764 1.388 . S
C767 C768 1.382 . S
C767 H792 0.950 . S
C768 N763 1.332 . S
C768 C767 1.382 . S
C768 H778 0.948 . S
N769 Co747 2.282 1_556 S
N769 C773 1.332 . S
N769 C774 1.332 . S
C770 C771 1.388 . S
C770 C774 1.382 . S
C770 H793 0.950 . S
C771 C770 1.388 . S
C771 C772 1.386 . S
C772 C771 1.386 . S
C772 C773 1.382 . S
C772 H794 0.950 . S
C773 N769 1.332 . S
C773 C772 1.382 . S
C773 H775 0.952 . S
C774 N769 1.332 . S
C774 C770 1.382 . S
C774 H776 0.948 . S
H775 C773 0.952 . S
H776 C774 0.948 . S
H777 C766 0.952 . S
H778 C768 0.948 . S
C779 C745 1.395 . S
C779 C749 1.391 . S
C780 C742 1.388 1_556 S
C780 C762 1.386 1_556 S
C781 C752 1.392 . S
C781 C754 1.389 . S
C782 C757 1.395 . S
C782 C759 1.391 . S
H783 C743 0.951 . S
H784 C744 0.950 . S
H785 C750 0.949 . S
H786 C751 0.950 . S
H787 C755 0.951 . S
H788 C756 0.950 . S
H789 C760 0.949 . S
H790 C761 0.954 . S
H791 C765 0.950 . S
H792 C767 0.950 . S
H793 C770 0.950 . S
H794 C772 0.950 . S
C795 C796 1.443 . S
C795 N799 1.376 . S
C795 C833 1.389 . S
C796 C795 1.443 . S
C796 C797 1.340 . S
C796 H836 0.951 . S
C797 C796 1.340 . S
C797 C798 1.439 . S
C797 H837 0.950 . S
C798 C797 1.439 . S
C798 N799 1.374 . S
C798 C832 1.395 . S
N799 C795 1.376 . S
N799 C798 1.374 . S
N799 Co800 2.008 . S
Co800 N799 2.008 . S
Co800 N801 1.995 . S
Co800 N806 2.008 . S
Co800 N811 1.995 . S
Co800 N816 2.282 . S
Co800 N822 2.282 . S
N801 Co800 1.995 . S
N801 C802 1.376 . S
N801 C805 1.383 . S
C802 N801 1.376 . S
C802 C803 1.446 . S
C802 C832 1.391 . S
C803 C802 1.446 . S
C803 C804 1.339 . S
C803 H838 0.949 . S
C804 C803 1.339 . S
C804 C805 1.439 . S
C804 H839 0.950 . S
C805 N801 1.383 . S
C805 C804 1.439 . S
C805 C834 1.392 . S
N806 Co800 2.008 . S
N806 C807 1.376 . S
N806 C810 1.374 . S
C807 N806 1.376 . S
C807 C808 1.443 . S
C807 C834 1.389 . S
C808 C807 1.443 . S
C808 C809 1.340 . S
C808 H840 0.951 . S
C809 C808 1.340 . S
C809 C810 1.439 . S
C809 H841 0.950 . S
C810 N806 1.374 . S
C810 C809 1.439 . S
C810 C835 1.395 . S
N811 Co800 1.995 . S
N811 C812 1.376 . S
N811 C815 1.383 . S
C812 N811 1.376 . S
C812 C813 1.446 . S
C812 C835 1.391 . S
C813 C812 1.446 . S
C813 C814 1.339 . S
C813 H842 0.949 . S
C814 C813 1.339 . S
C814 C815 1.439 . S
C814 H843 0.950 . S
C815 N811 1.383 . S
C815 C814 1.439 . S
C815 C833 1.392 . S
N816 Co800 2.282 . S
N816 C819 1.332 . S
N816 C821 1.332 . S
C817 C818 1.386 . S
C817 C820 1.388 . S
C818 C817 1.386 . S
C818 C819 1.382 . S
C818 H844 0.950 . S
C819 N816 1.332 . S
C819 C818 1.382 . S
C819 H830 0.952 . S
C820 C817 1.388 . S
C820 C821 1.382 . S
C820 H845 0.950 . S
C821 N816 1.332 . S
C821 C820 1.382 . S
C821 H831 0.948 . S
N822 Co800 2.282 . S
N822 C826 1.332 . S
N822 C827 1.332 . S
C823 C824 1.388 . S
C823 C827 1.382 . S
C823 H846 0.950 . S
C824 C823 1.388 . S
C824 C825 1.386 . S
C825 C824 1.386 . S
C825 C826 1.382 . S
C825 H847 0.950 . S
C826 N822 1.332 . S
C826 C825 1.382 . S
C826 H828 0.952 . S
C827 N822 1.332 . S
C827 C823 1.382 . S
C827 H829 0.948 . S
H828 C826 0.952 . S
H829 C827 0.948 . S
H830 C819 0.952 . S
H831 C821 0.948 . S
C832 C798 1.395 . S
C832 C802 1.391 . S
C833 C795 1.389 . S
C833 C815 1.392 . S
C834 C805 1.392 . S
C834 C807 1.389 . S
C835 C810 1.395 . S
C835 C812 1.391 . S
H836 C796 0.951 . S
H837 C797 0.950 . S
H838 C803 0.949 . S
H839 C804 0.950 . S
H840 C808 0.951 . S
H841 C809 0.950 . S
H842 C813 0.949 . S
H843 C814 0.950 . S
H844 C818 0.950 . S
H845 C820 0.950 . S
H846 C823 0.950 . S
H847 C825 0.950 . S
H848 C854 0.930 . S
H849 C857 0.930 . S
H850 C858 0.930 . S
H851 C859 0.930 . S
H852 C862 0.930 . S
H853 C863 0.930 . S
C854 H848 0.930 . S
C854 C855 1.355 . S
C854 C856 1.415 . S
C855 C854 1.355 . S
C855 C857 1.419 . S
C856 C854 1.415 . S
C856 C861 1.425 . S
C856 C863 1.409 . S
C857 H849 0.930 . S
C857 C855 1.419 . S
C857 C858 1.362 . S
C858 H850 0.930 . S
C858 C857 1.362 . S
C858 C861 1.409 . S
C859 H851 0.930 . S
C859 C860 1.355 . S
C859 C861 1.415 . S
C860 C859 1.355 . S
C860 C862 1.419 . S
C861 C856 1.425 . S
C861 C858 1.409 . S
C861 C859 1.415 . S
C862 H852 0.930 . S
C862 C860 1.419 . S
C862 C863 1.362 . S
C863 H853 0.930 . S
C863 C856 1.409 . S
C863 C862 1.362 . S
H864 C870 0.930 . S
H865 C873 0.930 . S
H866 C874 0.930 . S
H867 C875 0.930 . S
H868 C878 0.930 . S
H869 C879 0.930 . S
C870 H864 0.930 . S
C870 C871 1.355 . S
C870 C872 1.415 . S
C871 C870 1.355 . S
C871 C873 1.419 . S
C872 C870 1.415 . S
C872 C877 1.425 . S
C872 C879 1.409 . S
C873 H865 0.930 . S
C873 C871 1.419 . S
C873 C874 1.362 . S
C874 H866 0.930 . S
C874 C873 1.362 . S
C874 C877 1.409 . S
C875 H867 0.930 . S
C875 C876 1.355 . S
C875 C877 1.415 . S
C876 C875 1.355 . S
C876 C878 1.419 . S
C877 C872 1.425 . S
C877 C874 1.409 . S
C877 C875 1.415 . S
C878 H868 0.930 . S
C878 C876 1.419 . S
C878 C879 1.362 . S
C879 H869 0.930 . S
C879 C872 1.409 . S
C879 C878 1.362 . S
H880 C886 0.930 . S
H881 C889 0.930 . S
H882 C890 0.930 . S
H883 C891 0.930 . S
H884 C894 0.930 . S
H885 C895 0.930 . S
C886 H880 0.930 . S
C886 C887 1.355 . S
C886 C888 1.415 . S
C887 C886 1.355 . S
C887 C889 1.419 . S
C888 C886 1.415 . S
C888 C893 1.425 . S
C888 C895 1.409 . S
C889 H881 0.930 . S
C889 C887 1.419 . S
C889 C890 1.362 . S
C890 H882 0.930 . S
C890 C889 1.362 . S
C890 C893 1.409 . S
C891 H883 0.930 . S
C891 C892 1.355 . S
C891 C893 1.415 . S
C892 C891 1.355 . S
C892 C894 1.419 . S
C893 C888 1.425 . S
C893 C890 1.409 . S
C893 C891 1.415 . S
C894 H884 0.930 . S
C894 C892 1.419 . S
C894 C895 1.362 . S
C895 H885 0.930 . S
C895 C888 1.409 . S
C895 C894 1.362 . S
H896 C902 0.930 . S
H897 C905 0.930 . S
H898 C906 0.930 . S
H899 C907 0.930 . S
H900 C910 0.930 . S
H901 C911 0.930 . S
C902 H896 0.930 . S
C902 C903 1.355 . S
C902 C904 1.415 . S
C903 C902 1.355 . S
C903 C905 1.419 . S
C904 C902 1.415 . S
C904 C909 1.425 . S
C904 C911 1.409 . S
C905 H897 0.930 . S
C905 C903 1.419 . S
C905 C906 1.362 . S
C906 H898 0.930 . S
C906 C905 1.362 . S
C906 C909 1.409 . S
C907 H899 0.930 . S
C907 C908 1.355 . S
C907 C909 1.415 . S
C908 C907 1.355 . S
C908 C910 1.419 . S
C909 C904 1.425 . S
C909 C906 1.409 . S
C909 C907 1.415 . S
C910 H900 0.930 . S
C910 C908 1.419 . S
C910 C911 1.362 . S
C911 H901 0.930 . S
C911 C904 1.409 . S
C911 C910 1.362 . S
H912 C918 0.930 . S
H913 C921 0.930 . S
H914 C922 0.930 . S
H915 C923 0.930 . S
H916 C926 0.930 . S
H917 C927 0.930 . S
C918 H912 0.930 . S
C918 C919 1.355 . S
C918 C920 1.415 . S
C919 C918 1.355 . S
C919 C921 1.419 . S
C920 C918 1.415 . S
C920 C925 1.425 . S
C920 C927 1.409 . S
C921 H913 0.930 . S
C921 C919 1.419 . S
C921 C922 1.362 . S
C922 H914 0.930 . S
C922 C921 1.362 . S
C922 C925 1.409 . S
C923 H915 0.930 . S
C923 C924 1.355 . S
C923 C925 1.415 . S
C924 C923 1.355 . S
C924 C926 1.419 . S
C925 C920 1.425 . S
C925 C922 1.409 . S
C925 C923 1.415 . S
C926 H916 0.930 . S
C926 C924 1.419 . S
C926 C927 1.362 . S
C927 H917 0.930 . S
C927 C920 1.409 . S
C927 C926 1.362 . S
H928 C934 0.930 . S
H929 C937 0.930 . S
H930 C938 0.930 . S
H931 C939 0.930 . S
H932 C942 0.930 . S
H933 C943 0.930 . S
C934 H928 0.930 . S
C934 C935 1.355 . S
C934 C936 1.415 . S
C935 C934 1.355 . S
C935 C937 1.419 . S
C936 C934 1.415 . S
C936 C941 1.425 . S
C936 C943 1.409 . S
C937 H929 0.930 . S
C937 C935 1.419 . S
C937 C938 1.362 . S
C938 H930 0.930 . S
C938 C937 1.362 . S
C938 C941 1.409 . S
C939 H931 0.930 . S
C939 C940 1.355 . S
C939 C941 1.415 . S
C940 C939 1.355 . S
C940 C942 1.419 . S
C941 C936 1.425 . S
C941 C938 1.409 . S
C941 C939 1.415 . S
C942 H932 0.930 . S
C942 C940 1.419 . S
C942 C943 1.362 . S
C943 H933 0.930 . S
C943 C936 1.409 . S
C943 C942 1.362 . S
H944 C950 0.930 . S
H945 C953 0.930 . S
H946 C954 0.930 . S
H947 C955 0.930 . S
H948 C958 0.930 . S
H949 C959 0.930 . S
C950 H944 0.930 . S
C950 C951 1.355 . S
C950 C952 1.415 . S
C951 C950 1.355 . S
C951 C953 1.419 . S
C952 C950 1.415 . S
C952 C957 1.425 . S
C952 C959 1.409 . S
C953 H945 0.930 . S
C953 C951 1.419 . S
C953 C954 1.362 . S
C954 H946 0.930 . S
C954 C953 1.362 . S
C954 C957 1.409 . S
C955 H947 0.930 . S
C955 C956 1.355 . S
C955 C957 1.415 . S
C956 C955 1.355 . S
C956 C958 1.419 . S
C957 C952 1.425 . S
C957 C954 1.409 . S
C957 C955 1.415 . S
C958 H948 0.930 . S
C958 C956 1.419 . S
C958 C959 1.362 . S
C959 H949 0.930 . S
C959 C952 1.409 . S
C959 C958 1.362 . S
H960 C966 0.930 . S
H961 C969 0.930 . S
H962 C970 0.930 . S
H963 C971 0.930 . S
H964 C974 0.930 . S
H965 C975 0.930 . S
C966 H960 0.930 . S
C966 C967 1.355 . S
C966 C968 1.415 . S
C967 C966 1.355 . S
C967 C969 1.419 . S
C968 C966 1.415 . S
C968 C973 1.425 . S
C968 C975 1.409 . S
C969 H961 0.930 . S
C969 C967 1.419 . S
C969 C970 1.362 . S
C970 H962 0.930 . S
C970 C969 1.362 . S
C970 C973 1.409 . S
C971 H963 0.930 . S
C971 C972 1.355 . S
C971 C973 1.415 . S
C972 C971 1.355 . S
C972 C974 1.419 . S
C973 C968 1.425 . S
C973 C970 1.409 . S
C973 C971 1.415 . S
C974 H964 0.930 . S
C974 C972 1.419 . S
C974 C975 1.362 . S
C975 H965 0.930 . S
C975 C968 1.409 . S
C975 C974 1.362 . S
H976 C982 0.910 1_655 S
H977 C985 0.930 . S
H978 C986 0.922 1_565 S
H979 C987 0.910 1_455 S
H980 C990 0.930 . S
H981 C991 0.922 1_545 S
C982 H976 0.910 1_455 S
C982 C983 1.385 . S
C982 C984 1.404 1_455 S
C983 C982 1.385 . S
C983 C985 1.419 . S
C984 C982 1.404 1_655 S
C984 C989 1.425 1_645 S
C984 C991 1.405 1_545 S
C985 H977 0.930 . S
C985 C983 1.419 . S
C985 C986 1.375 . S
C986 H978 0.922 1_545 S
C986 C985 1.375 . S
C986 C989 1.405 1_545 S
C987 H979 0.910 1_655 S
C987 C988 1.385 . S
C987 C989 1.404 1_655 S
C988 C987 1.385 . S
C988 C990 1.419 . S
C989 C984 1.425 1_465 S
C989 C986 1.405 1_565 S
C989 C987 1.404 1_455 S
C990 H980 0.930 . S
C990 C988 1.419 . S
C990 C991 1.375 . S
C991 H981 0.922 1_565 S
C991 C984 1.405 1_565 S
C991 C990 1.375 . S
H992 C998 0.930 . S
H993 C1001 0.930 . S
H994 C1002 0.930 . S
H995 C1003 0.930 . S
H996 C1006 0.930 . S
H997 C1007 0.930 . S
C998 H992 0.930 . S
C998 C999 1.355 . S
C998 C1000 1.415 1_655 S
C999 C998 1.355 . S
C999 C1001 1.419 . S
C1000 C998 1.415 1_455 S
C1000 C1005 1.425 1_455 S
C1000 C1007 1.409 . S
C1001 H993 0.930 . S
C1001 C999 1.419 . S
C1001 C1002 1.362 . S
C1002 H994 0.930 . S
C1002 C1001 1.362 . S
C1002 C1005 1.409 . S
C1003 H995 0.930 . S
C1003 C1004 1.355 . S
C1003 C1005 1.415 1_455 S
C1004 C1003 1.355 . S
C1004 C1006 1.419 . S
C1005 C1000 1.425 1_655 S
C1005 C1002 1.409 . S
C1005 C1003 1.415 1_655 S
C1006 H996 0.930 . S
C1006 C1004 1.419 . S
C1006 C1007 1.362 . S
C1007 H997 0.930 . S
C1007 C1000 1.409 . S
C1007 C1006 1.362 . S
H1008 C1014 0.930 . S
H1009 C1017 0.930 . S
H1010 C1018 0.930 . S
H1011 C1019 0.930 . S
H1012 C1022 0.930 . S
H1013 C1023 0.930 . S
C1014 H1008 0.930 . S
C1014 C1015 1.355 . S
C1014 C1016 1.415 . S
C1015 C1014 1.355 . S
C1015 C1017 1.419 . S
C1016 C1014 1.415 . S
C1016 C1021 1.425 . S
C1016 C1023 1.409 . S
C1017 H1009 0.930 . S
C1017 C1015 1.419 . S
C1017 C1018 1.362 . S
C1018 H1010 0.930 . S
C1018 C1017 1.362 . S
C1018 C1021 1.409 . S
C1019 H1011 0.930 . S
C1019 C1020 1.355 . S
C1019 C1021 1.415 . S
C1020 C1019 1.355 . S
C1020 C1022 1.419 . S
C1021 C1016 1.425 . S
C1021 C1018 1.409 . S
C1021 C1019 1.415 . S
C1022 H1012 0.930 . S
C1022 C1020 1.419 . S
C1022 C1023 1.362 . S
C1023 H1013 0.930 . S
C1023 C1016 1.409 . S
C1023 C1022 1.362 . S
H1024 C1030 0.930 . S
H1025 C1033 0.930 . S
H1026 C1034 0.930 . S
H1027 C1035 0.930 . S
H1028 C1038 0.930 . S
H1029 C1039 0.930 . S
C1030 H1024 0.930 . S
C1030 C1031 1.355 1_554 S
C1030 C1032 1.415 1_565 S
C1031 C1030 1.355 1_556 S
C1031 C1033 1.419 . S
C1032 C1030 1.415 1_545 S
C1032 C1037 1.425 1_544 S
C1032 C1039 1.409 . S
C1033 H1025 0.930 . S
C1033 C1031 1.419 . S
C1033 C1034 1.362 . S
C1034 H1026 0.930 . S
C1034 C1033 1.362 . S
C1034 C1037 1.409 . S
C1035 H1027 0.930 . S
C1035 C1036 1.359 . S
C1035 C1037 1.415 1_545 S
C1036 C1035 1.359 . S
C1036 C1038 1.414 1_556 S
C1037 C1032 1.425 1_566 S
C1037 C1034 1.409 . S
C1037 C1035 1.415 1_565 S
C1038 H1028 0.930 . S
C1038 C1036 1.414 1_554 S
C1038 C1039 1.362 . S
C1039 H1029 0.930 . S
C1039 C1032 1.409 . S
C1039 C1038 1.362 . S
H1040 C1046 0.930 . S
H1041 C1049 0.930 . S
H1042 C1050 0.930 . S
H1043 C1051 0.930 . S
H1044 C1054 0.930 . S
H1045 C1055 0.930 . S
C1046 H1040 0.930 . S
C1046 C1047 1.355 . S
C1046 C1048 1.415 . S
C1047 C1046 1.355 . S
C1047 C1049 1.419 1_455 S
C1048 C1046 1.415 . S
C1048 C1053 1.425 1_455 S
C1048 C1055 1.409 . S
C1049 H1041 0.930 . S
C1049 C1047 1.419 1_655 S
C1049 C1050 1.362 . S
C1050 H1042 0.930 . S
C1050 C1049 1.362 . S
C1050 C1053 1.409 . S
C1051 H1043 0.930 . S
C1051 C1052 1.355 . S
C1051 C1053 1.415 . S
C1052 C1051 1.355 . S
C1052 C1054 1.419 1_655 S
C1053 C1048 1.425 1_655 S
C1053 C1050 1.409 . S
C1053 C1051 1.415 . S
C1054 H1044 0.930 . S
C1054 C1052 1.419 1_455 S
C1054 C1055 1.362 . S
C1055 H1045 0.930 . S
C1055 C1048 1.409 . S
C1055 C1054 1.362 . S
H1056 C1062 0.930 . S
H1057 C1065 0.930 . S
H1058 C1066 0.930 . S
H1059 C1067 0.930 . S
H1060 C1070 0.930 . S
H1061 C1071 0.930 . S
C1062 H1056 0.930 . S
C1062 C1063 1.355 . S
C1062 C1064 1.415 . S
C1063 C1062 1.355 . S
C1063 C1065 1.419 . S
C1064 C1062 1.415 . S
C1064 C1069 1.425 . S
C1064 C1071 1.409 . S
C1065 H1057 0.930 . S
C1065 C1063 1.419 . S
C1065 C1066 1.362 . S
C1066 H1058 0.930 . S
C1066 C1065 1.362 . S
C1066 C1069 1.409 . S
C1067 H1059 0.930 . S
C1067 C1068 1.355 . S
C1067 C1069 1.415 . S
C1068 C1067 1.355 . S
C1068 C1070 1.419 . S
C1069 C1064 1.425 . S
C1069 C1066 1.409 . S
C1069 C1067 1.415 . S
C1070 H1060 0.930 . S
C1070 C1068 1.419 . S
C1070 C1071 1.362 . S
C1071 H1061 0.930 . S
C1071 C1064 1.409 . S
C1071 C1070 1.362 . S
H1072 C1078 0.930 . S
H1073 C1081 0.930 . S
H1074 C1082 0.930 . S
H1075 C1083 0.930 . S
H1076 C1086 0.930 . S
H1077 C1087 0.930 . S
C1078 H1072 0.930 . S
C1078 C1079 1.355 . S
C1078 C1080 1.415 . S
C1079 C1078 1.355 . S
C1079 C1081 1.419 . S
C1080 C1078 1.415 . S
C1080 C1085 1.425 1_545 S
C1080 C1087 1.409 1_545 S
C1081 H1073 0.930 . S
C1081 C1079 1.419 . S
C1081 C1082 1.362 . S
C1082 H1074 0.930 . S
C1082 C1081 1.362 . S
C1082 C1085 1.409 1_545 S
C1083 H1075 0.930 . S
C1083 C1084 1.355 . S
C1083 C1085 1.415 . S
C1084 C1083 1.355 . S
C1084 C1086 1.419 . S
C1085 C1080 1.425 1_565 S
C1085 C1082 1.409 1_565 S
C1085 C1083 1.415 . S
C1086 H1076 0.930 . S
C1086 C1084 1.419 . S
C1086 C1087 1.362 . S
C1087 H1077 0.930 . S
C1087 C1080 1.409 1_565 S
C1087 C1086 1.362 . S
H1088 C1094 0.930 1_565 S
H1089 C1097 0.930 . S
H1090 C1098 0.930 . S
H1091 C1099 0.930 1_545 S
H1092 C1102 0.930 . S
H1093 C1103 0.930 . S
C1094 H1088 0.930 1_545 S
C1094 C1095 1.355 . S
C1094 C1096 1.415 1_545 S
C1095 C1094 1.355 . S
C1095 C1097 1.419 . S
C1096 C1094 1.415 1_565 S
C1096 C1101 1.425 1_465 S
C1096 C1103 1.409 . S
C1097 H1089 0.930 . S
C1097 C1095 1.419 . S
C1097 C1098 1.362 1_455 S
C1098 H1090 0.930 . S
C1098 C1097 1.362 1_655 S
C1098 C1101 1.409 . S
C1099 H1091 0.930 1_565 S
C1099 C1100 1.355 . S
C1099 C1101 1.415 1_565 S
C1100 C1099 1.355 . S
C1100 C1102 1.419 . S
C1101 C1096 1.425 1_645 S
C1101 C1098 1.409 . S
C1101 C1099 1.415 1_545 S
C1102 H1092 0.930 . S
C1102 C1100 1.419 . S
C1102 C1103 1.362 1_655 S
C1103 H1093 0.930 . S
C1103 C1096 1.409 . S
C1103 C1102 1.362 1_455 S
H1104 C1110 0.930 . S
H1105 C1113 0.930 . S
H1106 C1114 0.930 . S
H1107 C1115 0.930 . S
H1108 C1118 0.930 . S
H1109 C1119 0.930 . S
C1110 H1104 0.930 . S
C1110 C1111 1.355 . S
C1110 C1112 1.415 . S
C1111 C1110 1.355 . S
C1111 C1113 1.419 . S
C1112 C1110 1.415 . S
C1112 C1117 1.425 . S
C1112 C1119 1.409 . S
C1113 H1105 0.930 . S
C1113 C1111 1.419 . S
C1113 C1114 1.362 . S
C1114 H1106 0.930 . S
C1114 C1113 1.362 . S
C1114 C1117 1.409 . S
C1115 H1107 0.930 . S
C1115 C1116 1.355 . S
C1115 C1117 1.415 . S
C1116 C1115 1.355 . S
C1116 C1118 1.419 . S
C1117 C1112 1.425 . S
C1117 C1114 1.409 . S
C1117 C1115 1.415 . S
C1118 H1108 0.930 . S
C1118 C1116 1.419 . S
C1118 C1119 1.362 . S
C1119 H1109 0.930 . S
C1119 C1112 1.409 . S
C1119 C1118 1.362 . S
H1120 C1126 0.930 . S
H1121 C1129 0.930 . S
H1122 C1130 0.930 . S
H1123 C1131 0.930 . S
H1124 C1134 0.930 . S
H1125 C1135 0.930 . S
C1126 H1120 0.930 . S
C1126 C1127 1.355 . S
C1126 C1128 1.415 . S
C1127 C1126 1.355 . S
C1127 C1129 1.419 . S
C1128 C1126 1.415 . S
C1128 C1133 1.425 . S
C1128 C1135 1.409 . S
C1129 H1121 0.930 . S
C1129 C1127 1.419 . S
C1129 C1130 1.362 . S
C1130 H1122 0.930 . S
C1130 C1129 1.362 . S
C1130 C1133 1.409 . S
C1131 H1123 0.930 . S
C1131 C1132 1.355 . S
C1131 C1133 1.415 . S
C1132 C1131 1.355 . S
C1132 C1134 1.419 . S
C1133 C1128 1.425 . S
C1133 C1130 1.409 . S
C1133 C1131 1.415 . S
C1134 H1124 0.930 . S
C1134 C1132 1.419 . S
C1134 C1135 1.362 . S
C1135 H1125 0.930 . S
C1135 C1128 1.409 . S
C1135 C1134 1.362 . S
H1136 C1142 0.930 . S
H1137 C1145 0.930 . S
H1138 C1146 0.930 . S
H1139 C1147 0.930 . S
H1140 C1150 0.918 1_556 S
H1141 C1151 0.930 . S
C1142 H1136 0.930 . S
C1142 C1143 1.355 . S
C1142 C1144 1.415 . S
C1143 C1142 1.355 . S
C1143 C1145 1.419 . S
C1144 C1142 1.415 . S
C1144 C1149 1.425 . S
C1144 C1151 1.409 . S
C1145 H1137 0.930 . S
C1145 C1143 1.419 . S
C1145 C1146 1.362 . S
C1146 H1138 0.930 . S
C1146 C1145 1.362 . S
C1146 C1149 1.409 . S
C1147 H1139 0.930 . S
C1147 C1148 1.354 . S
C1147 C1149 1.415 . S
C1148 C1147 1.354 . S
C1148 C1150 1.419 . S
C1149 C1144 1.425 . S
C1149 C1146 1.409 . S
C1149 C1147 1.415 . S
C1150 H1140 0.918 1_554 S
C1150 C1148 1.419 . S
C1150 C1151 1.375 . S
C1151 H1141 0.930 . S
C1151 C1144 1.409 . S
C1151 C1150 1.375 . S
H1152 C1158 0.930 . S
H1153 C1161 0.930 . S
H1154 C1162 0.930 . S
H1155 C1163 0.930 . S
H1156 C1166 0.930 . S
H1157 C1167 0.930 . S
C1158 H1152 0.930 . S
C1158 C1159 1.355 . S
C1158 C1160 1.415 . S
C1159 C1158 1.355 . S
C1159 C1161 1.419 . S
C1160 C1158 1.415 . S
C1160 C1165 1.425 . S
C1160 C1167 1.409 . S
C1161 H1153 0.930 . S
C1161 C1159 1.419 . S
C1161 C1162 1.362 . S
C1162 H1154 0.930 . S
C1162 C1161 1.362 . S
C1162 C1165 1.409 . S
C1163 H1155 0.930 . S
C1163 C1164 1.355 . S
C1163 C1165 1.415 . S
C1164 C1163 1.355 . S
C1164 C1166 1.419 . S
C1165 C1160 1.425 . S
C1165 C1162 1.409 . S
C1165 C1163 1.415 . S
C1166 H1156 0.930 . S
C1166 C1164 1.419 . S
C1166 C1167 1.362 . S
C1167 H1157 0.930 . S
C1167 C1160 1.409 . S
C1167 C1166 1.362 . S
H1168 C1174 0.930 . S
H1169 C1177 0.930 . S
H1170 C1178 0.930 . S
H1171 C1179 0.930 . S
H1172 C1182 0.930 . S
H1173 C1183 0.930 . S
C1174 H1168 0.930 . S
C1174 C1175 1.355 . S
C1174 C1176 1.415 . S
C1175 C1174 1.355 . S
C1175 C1177 1.419 . S
C1176 C1174 1.415 . S
C1176 C1181 1.425 . S
C1176 C1183 1.409 . S
C1177 H1169 0.930 . S
C1177 C1175 1.419 . S
C1177 C1178 1.362 . S
C1178 H1170 0.930 . S
C1178 C1177 1.362 . S
C1178 C1181 1.409 . S
C1179 H1171 0.930 . S
C1179 C1180 1.355 . S
C1179 C1181 1.415 . S
C1180 C1179 1.355 . S
C1180 C1182 1.419 . S
C1181 C1176 1.425 . S
C1181 C1178 1.409 . S
C1181 C1179 1.415 . S
C1182 H1172 0.930 . S
C1182 C1180 1.419 . S
C1182 C1183 1.362 . S
C1183 H1173 0.930 . S
C1183 C1176 1.409 . S
C1183 C1182 1.362 . S
H1184 C1190 0.930 . S
H1185 C1193 0.930 . S
H1186 C1194 0.930 . S
H1187 C1195 0.930 . S
H1188 C1198 0.938 . S
H1189 C1199 0.930 . S
C1190 H1184 0.930 . S
C1190 C1191 1.355 . S
C1190 C1192 1.415 . S
C1191 C1190 1.355 . S
C1191 C1193 1.419 . S
C1192 C1190 1.415 . S
C1192 C1197 1.425 . S
C1192 C1199 1.409 . S
C1193 H1185 0.930 . S
C1193 C1191 1.419 . S
C1193 C1194 1.362 . S
C1194 H1186 0.930 . S
C1194 C1193 1.362 . S
C1194 C1197 1.409 . S
C1195 H1187 0.930 . S
C1195 C1196 1.355 1_554 S
C1195 C1197 1.415 . S
C1196 C1195 1.355 1_556 S
C1196 C1198 1.419 . S
C1197 C1192 1.425 . S
C1197 C1194 1.409 . S
C1197 C1195 1.415 . S
C1198 H1188 0.938 . S
C1198 C1196 1.419 . S
C1198 C1199 1.355 1_556 S
C1199 H1189 0.930 . S
C1199 C1192 1.409 . S
C1199 C1198 1.355 1_554 S
H1200 C1206 0.930 . S
H1201 C1209 0.930 . S
H1202 C1210 0.930 . S
H1203 C1211 0.930 . S
H1204 C1214 0.930 . S
H1205 C1215 0.930 . S
C1206 H1200 0.930 . S
C1206 C1207 1.355 . S
C1206 C1208 1.415 . S
C1207 C1206 1.355 . S
C1207 C1209 1.419 . S
C1208 C1206 1.415 . S
C1208 C1213 1.425 . S
C1208 C1215 1.409 . S
C1209 H1201 0.930 . S
C1209 C1207 1.419 . S
C1209 C1210 1.362 . S
C1210 H1202 0.930 . S
C1210 C1209 1.362 . S
C1210 C1213 1.409 . S
C1211 H1203 0.930 . S
C1211 C1212 1.355 . S
C1211 C1213 1.415 . S
C1212 C1211 1.355 . S
C1212 C1214 1.419 . S
C1213 C1208 1.425 . S
C1213 C1210 1.409 . S
C1213 C1211 1.415 . S
C1214 H1204 0.930 . S
C1214 C1212 1.419 . S
C1214 C1215 1.362 . S
C1215 H1205 0.930 . S
C1215 C1208 1.409 . S
C1215 C1214 1.362 . S
H1216 C1222 0.930 . S
H1217 C1225 0.930 . S
H1218 C1226 0.930 . S
H1219 C1227 0.930 . S
H1220 C1230 0.930 . S
H1221 C1231 0.930 . S
C1222 H1216 0.930 . S
C1222 C1223 1.355 . S
C1222 C1224 1.415 . S
C1223 C1222 1.355 . S
C1223 C1225 1.419 . S
C1224 C1222 1.415 . S
C1224 C1229 1.425 . S
C1224 C1231 1.409 . S
C1225 H1217 0.930 . S
C1225 C1223 1.419 . S
C1225 C1226 1.362 . S
C1226 H1218 0.930 . S
C1226 C1225 1.362 . S
C1226 C1229 1.409 . S
C1227 H1219 0.930 . S
C1227 C1228 1.355 . S
C1227 C1229 1.415 . S
C1228 C1227 1.355 . S
C1228 C1230 1.419 . S
C1229 C1224 1.425 . S
C1229 C1226 1.409 . S
C1229 C1227 1.415 . S
C1230 H1220 0.930 . S
C1230 C1228 1.419 . S
C1230 C1231 1.362 . S
C1231 H1221 0.930 . S
C1231 C1224 1.409 . S
C1231 C1230 1.362 . S
H1232 C1238 0.930 . S
H1233 C1241 0.930 . S
H1234 C1242 0.930 . S
H1235 C1243 0.930 . S
H1236 C1246 0.930 . S
H1237 C1247 0.930 . S
C1238 H1232 0.930 . S
C1238 C1239 1.355 . S
C1238 C1240 1.415 1_556 S
C1239 C1238 1.355 . S
C1239 C1241 1.419 . S
C1240 C1238 1.415 1_554 S
C1240 C1245 1.425 . S
C1240 C1247 1.409 . S
C1241 H1233 0.930 . S
C1241 C1239 1.419 . S
C1241 C1242 1.362 . S
C1242 H1234 0.930 . S
C1242 C1241 1.362 . S
C1242 C1245 1.409 1_556 S
C1243 H1235 0.930 . S
C1243 C1244 1.355 . S
C1243 C1245 1.415 . S
C1244 C1243 1.355 . S
C1244 C1246 1.419 . S
C1245 C1240 1.425 . S
C1245 C1242 1.409 1_554 S
C1245 C1243 1.415 . S
C1246 H1236 0.930 . S
C1246 C1244 1.419 . S
C1246 C1247 1.362 . S
C1247 H1237 0.930 . S
C1247 C1240 1.409 . S
C1247 C1246 1.362 . S
H1248 C1254 0.930 . S
H1249 C1257 0.930 . S
H1250 C1258 0.930 . S
H1251 C1259 0.930 . S
H1252 C1262 0.930 . S
H1253 C1263 0.930 . S
C1254 H1248 0.930 . S
C1254 C1255 1.355 . S
C1254 C1256 1.415 . S
C1255 C1254 1.355 . S
C1255 C1257 1.419 . S
C1256 C1254 1.415 . S
C1256 C1261 1.425 . S
C1256 C1263 1.409 . S
C1257 H1249 0.930 . S
C1257 C1255 1.419 . S
C1257 C1258 1.362 . S
C1258 H1250 0.930 . S
C1258 C1257 1.362 . S
C1258 C1261 1.409 . S
C1259 H1251 0.930 . S
C1259 C1260 1.355 . S
C1259 C1261 1.415 . S
C1260 C1259 1.355 . S
C1260 C1262 1.419 . S
C1261 C1256 1.425 . S
C1261 C1258 1.409 . S
C1261 C1259 1.415 . S
C1262 H1252 0.930 . S
C1262 C1260 1.419 . S
C1262 C1263 1.362 . S
C1263 H1253 0.930 . S
C1263 C1256 1.409 . S
C1263 C1262 1.362 . S
H1264 C1270 0.930 . S
H1265 C1273 0.930 . S
H1266 C1274 0.930 . S
H1267 C1275 0.930 . S
H1268 C1278 0.930 . S
H1269 C1279 0.930 . S
C1270 H1264 0.930 . S
C1270 C1271 1.355 . S
C1270 C1272 1.415 . S
C1271 C1270 1.355 . S
C1271 C1273 1.419 . S
C1272 C1270 1.415 . S
C1272 C1277 1.425 . S
C1272 C1279 1.409 . S
C1273 H1265 0.930 . S
C1273 C1271 1.419 . S
C1273 C1274 1.362 . S
C1274 H1266 0.930 . S
C1274 C1273 1.362 . S
C1274 C1277 1.409 . S
C1275 H1267 0.930 . S
C1275 C1276 1.355 . S
C1275 C1277 1.415 . S
C1276 C1275 1.355 . S
C1276 C1278 1.419 . S
C1277 C1272 1.425 . S
C1277 C1274 1.409 . S
C1277 C1275 1.415 . S
C1278 H1268 0.930 . S
C1278 C1276 1.419 . S
C1278 C1279 1.362 . S
C1279 H1269 0.930 . S
C1279 C1272 1.409 . S
C1279 C1278 1.362 . S
H1280 C1286 0.930 . S
H1281 C1289 0.930 . S
H1282 C1290 0.930 . S
H1283 C1291 0.930 . S
H1284 C1294 0.930 . S
H1285 C1295 0.930 . S
C1286 H1280 0.930 . S
C1286 C1287 1.355 . S
C1286 C1288 1.415 . S
C1287 C1286 1.355 . S
C1287 C1289 1.419 . S
C1288 C1286 1.415 . S
C1288 C1293 1.425 . S
C1288 C1295 1.409 . S
C1289 H1281 0.930 . S
C1289 C1287 1.419 . S
C1289 C1290 1.362 . S
C1290 H1282 0.930 . S
C1290 C1289 1.362 . S
C1290 C1293 1.409 . S
C1291 H1283 0.930 . S
C1291 C1292 1.355 . S
C1291 C1293 1.415 . S
C1292 C1291 1.355 . S
C1292 C1294 1.419 . S
C1293 C1288 1.425 . S
C1293 C1290 1.409 . S
C1293 C1291 1.415 . S
C1294 H1284 0.930 . S
C1294 C1292 1.419 . S
C1294 C1295 1.362 . S
C1295 H1285 0.930 . S
C1295 C1288 1.409 . S
C1295 C1294 1.362 . S
H1296 C1302 0.930 . S
H1297 C1305 0.930 . S
H1298 C1306 0.930 . S
H1299 C1307 0.930 . S
H1300 C1310 0.930 . S
H1301 C1311 0.930 . S
C1302 H1296 0.930 . S
C1302 C1303 1.355 . S
C1302 C1304 1.415 . S
C1303 C1302 1.355 . S
C1303 C1305 1.419 . S
C1304 C1302 1.415 . S
C1304 C1309 1.425 . S
C1304 C1311 1.409 . S
C1305 H1297 0.930 . S
C1305 C1303 1.419 . S
C1305 C1306 1.362 . S
C1306 H1298 0.930 . S
C1306 C1305 1.362 . S
C1306 C1309 1.409 . S
C1307 H1299 0.930 . S
C1307 C1308 1.355 . S
C1307 C1309 1.415 . S
C1308 C1307 1.355 . S
C1308 C1310 1.419 . S
C1309 C1304 1.425 . S
C1309 C1306 1.409 . S
C1309 C1307 1.415 . S
C1310 H1300 0.930 . S
C1310 C1308 1.419 . S
C1310 C1311 1.362 . S
C1311 H1301 0.930 . S
C1311 C1304 1.409 . S
C1311 C1310 1.362 . S
H1312 C1318 0.930 . S
H1313 C1321 0.930 . S
H1314 C1322 0.930 . S
H1315 C1323 0.930 . S
H1316 C1326 0.930 . S
H1317 C1327 0.930 . S
C1318 H1312 0.930 . S
C1318 C1319 1.355 . S
C1318 C1320 1.415 . S
C1319 C1318 1.355 . S
C1319 C1321 1.419 . S
C1320 C1318 1.415 . S
C1320 C1325 1.425 . S
C1320 C1327 1.409 . S
C1321 H1313 0.930 . S
C1321 C1319 1.419 . S
C1321 C1322 1.362 . S
C1322 H1314 0.930 . S
C1322 C1321 1.362 . S
C1322 C1325 1.409 . S
C1323 H1315 0.930 . S
C1323 C1324 1.355 . S
C1323 C1325 1.415 . S
C1324 C1323 1.355 . S
C1324 C1326 1.419 . S
C1325 C1320 1.425 . S
C1325 C1322 1.409 . S
C1325 C1323 1.415 . S
C1326 H1316 0.930 . S
C1326 C1324 1.419 . S
C1326 C1327 1.362 . S
C1327 H1317 0.930 . S
C1327 C1320 1.409 . S
C1327 C1326 1.362 . S
H1328 C1334 0.930 . S
H1329 C1337 0.930 . S
H1330 C1338 0.930 . S
H1331 C1339 0.930 . S
H1332 C1342 0.930 . S
H1333 C1343 0.930 . S
C1334 H1328 0.930 . S
C1334 C1335 1.355 . S
C1334 C1336 1.415 . S
C1335 C1334 1.355 . S
C1335 C1337 1.419 . S
C1336 C1334 1.415 . S
C1336 C1341 1.425 . S
C1336 C1343 1.409 . S
C1337 H1329 0.930 . S
C1337 C1335 1.419 . S
C1337 C1338 1.362 . S
C1338 H1330 0.930 . S
C1338 C1337 1.362 . S
C1338 C1341 1.409 . S
C1339 H1331 0.930 . S
C1339 C1340 1.355 . S
C1339 C1341 1.415 . S
C1340 C1339 1.355 . S
C1340 C1342 1.419 . S
C1341 C1336 1.425 . S
C1341 C1338 1.409 . S
C1341 C1339 1.415 . S
C1342 H1332 0.930 . S
C1342 C1340 1.419 . S
C1342 C1343 1.362 . S
C1343 H1333 0.930 . S
C1343 C1336 1.409 . S
C1343 C1342 1.362 . S
H1344 C1350 0.930 . S
H1345 C1353 0.930 . S
H1346 C1354 0.930 . S
H1347 C1355 0.930 . S
H1348 C1358 0.930 . S
H1349 C1359 0.930 . S
C1350 H1344 0.930 . S
C1350 C1351 1.355 . S
C1350 C1352 1.415 . S
C1351 C1350 1.355 . S
C1351 C1353 1.419 . S
C1352 C1350 1.415 . S
C1352 C1357 1.425 . S
C1352 C1359 1.409 . S
C1353 H1345 0.930 . S
C1353 C1351 1.419 . S
C1353 C1354 1.362 . S
C1354 H1346 0.930 . S
C1354 C1353 1.362 . S
C1354 C1357 1.409 . S
C1355 H1347 0.930 . S
C1355 C1356 1.355 . S
C1355 C1357 1.415 1_556 S
C1356 C1355 1.355 . S
C1356 C1358 1.419 . S
C1357 C1352 1.425 . S
C1357 C1354 1.409 . S
C1357 C1355 1.415 1_554 S
C1358 H1348 0.930 . S
C1358 C1356 1.419 . S
C1358 C1359 1.362 1_556 S
C1359 H1349 0.930 . S
C1359 C1352 1.409 . S
C1359 C1358 1.362 1_554 S
C855 C356 2.300 . S
C860 C38 2.283 . S
C871 C393 2.190 . S
C876 C75 2.177 . S
C887 C144 2.266 . S
C892 C250 2.295 . S
C903 C181 2.176 . S
C908 C287 2.154 . S
C919 C462 2.267 . S
C924 C780 2.293 . S
C935 C817 2.165 . S
C940 C499 2.152 . S
C951 C568 2.268 . S
C956 C674 2.278 . S
C967 C605 2.152 . S
C972 C711 2.171 . S
C983 C39 2.696 . S
C988 C569 2.690 . S
C999 C82 2.007 . S
C1004 C612 1.980 . S
C1015 C145 2.689 . S
C1020 C463 2.698 . S
C1031 C188 1.964 1_556 S
C1036 C506 1.947 1_556 S
C1047 C251 2.739 . S
C1052 C781 2.723 . S
C1063 C824 1.948 . S
C1068 C294 1.962 . S
C1079 C357 2.717 . S
C1084 C675 2.737 . S
C1095 C718 1.948 . S
C1100 C400 1.968 . S
C1111 C728 1.100 . S
C1116 C29 1.094 . S
C1127 C92 1.097 . S
C1132 C771 1.118 . S
C1143 C834 1.080 . S
C1148 C135 1.098 1_554 S
C1159 C665 1.127 . S
C1164 C198 1.107 . S
C1175 C622 1.145 . S
C1180 C241 1.138 . S
C1191 C304 1.077 . S
C1196 C453 1.093 . S
C1207 C347 1.090 . S
C1212 C516 1.077 . S
C1223 C410 1.126 . S
C1228 C559 1.140 . S
C1239 C727 1.687 . S
C1244 C22 1.682 . S
C1255 C91 1.721 . S
C1260 C764 1.721 . S
C1271 C128 1.717 . S
C1276 C833 1.713 . S
C1287 C658 1.699 . S
C1292 C197 1.714 . S
C1303 C621 1.699 . S
C1308 C234 1.684 . S
C1319 C446 1.696 . S
C1324 C303 1.693 . S
C1335 C340 1.716 . S
C1340 C515 1.723 . S
C1351 C552 1.720 . S
C1356 C409 1.720 . S
