# Generated by pormake.
# Topology gie, (4)-cn, num edge types: 1
# Building blocks:
#     Node 0, Type 0, BuildingBlock: GALJAG_clean_sbu_0, # of connection points: 4
#     Node 1, Type 0, BuildingBlock: GALJAG_clean_sbu_0, # of connection points: 4
#     Node 2, Type 0, BuildingBlock: GALJAG_clean_sbu_0, # of connection points: 4
#     Node 3, Type 0, BuildingBlock: GALJAG_clean_sbu_0, # of connection points: 4
#     Node 4, Type 0, BuildingBlock: GALJAG_clean_sbu_0, # of connection points: 4
#     Node 5, Type 0, BuildingBlock: GALJAG_clean_sbu_0, # of connection points: 4
#     Node 6, Type 0, BuildingBlock: GALJAG_clean_sbu_0, # of connection points: 4
#     Node 7, Type 0, BuildingBlock: GALJAG_clean_sbu_0, # of connection points: 4
#     Node 8, Type 0, BuildingBlock: GALJAG_clean_sbu_0, # of connection points: 4
#     Node 9, Type 0, BuildingBlock: GALJAG_clean_sbu_0, # of connection points: 4
#     Node 10, Type 0, BuildingBlock: GALJAG_clean_sbu_0, # of connection points: 4
#     Node 11, Type 0, BuildingBlock: GALJAG_clean_sbu_0, # of connection points: 4
#     Node 12, Type 0, BuildingBlock: GALJAG_clean_sbu_0, # of connection points: 4
#     Node 13, Type 0, BuildingBlock: GALJAG_clean_sbu_0, # of connection points: 4
#     Node 14, Type 0, BuildingBlock: GALJAG_clean_sbu_0, # of connection points: 4
#     Node 15, Type 0, BuildingBlock: GALJAG_clean_sbu_0, # of connection points: 4
#     Node 16, Type 0, BuildingBlock: GALJAG_clean_sbu_0, # of connection points: 4
#     Node 17, Type 0, BuildingBlock: GALJAG_clean_sbu_0, # of connection points: 4
#     Node 18, Type 0, BuildingBlock: GALJAG_clean_sbu_0, # of connection points: 4
#     Node 19, Type 0, BuildingBlock: GALJAG_clean_sbu_0, # of connection points: 4
#     Node 20, Type 0, BuildingBlock: GALJAG_clean_sbu_0, # of connection points: 4
#     Node 21, Type 0, BuildingBlock: GALJAG_clean_sbu_0, # of connection points: 4
#     Node 22, Type 0, BuildingBlock: GALJAG_clean_sbu_0, # of connection points: 4
#     Node 23, Type 0, BuildingBlock: GALJAG_clean_sbu_0, # of connection points: 4
#     Node 24, Type 0, BuildingBlock: GALJAG_clean_sbu_0, # of connection points: 4
#     Node 25, Type 0, BuildingBlock: GALJAG_clean_sbu_0, # of connection points: 4
#     Node 26, Type 0, BuildingBlock: GALJAG_clean_sbu_0, # of connection points: 4
#     Node 27, Type 0, BuildingBlock: GALJAG_clean_sbu_0, # of connection points: 4
#     Node 28, Type 0, BuildingBlock: GALJAG_clean_sbu_0, # of connection points: 4
#     Node 29, Type 0, BuildingBlock: GALJAG_clean_sbu_0, # of connection points: 4
#     Node 30, Type 0, BuildingBlock: GALJAG_clean_sbu_0, # of connection points: 4
#     Node 31, Type 0, BuildingBlock: GALJAG_clean_sbu_0, # of connection points: 4
#     Node 32, Type 0, BuildingBlock: GALJAG_clean_sbu_0, # of connection points: 4
#     Node 33, Type 0, BuildingBlock: GALJAG_clean_sbu_0, # of connection points: 4
#     Node 34, Type 0, BuildingBlock: GALJAG_clean_sbu_0, # of connection points: 4
#     Node 35, Type 0, BuildingBlock: GALJAG_clean_sbu_0, # of connection points: 4
#     Node 36, Type 0, BuildingBlock: GALJAG_clean_sbu_0, # of connection points: 4
#     Node 37, Type 0, BuildingBlock: GALJAG_clean_sbu_0, # of connection points: 4
#     Node 38, Type 0, BuildingBlock: GALJAG_clean_sbu_0, # of connection points: 4
#     Node 39, Type 0, BuildingBlock: GALJAG_clean_sbu_0, # of connection points: 4
#     Node 40, Type 0, BuildingBlock: GALJAG_clean_sbu_0, # of connection points: 4
#     Node 41, Type 0, BuildingBlock: GALJAG_clean_sbu_0, # of connection points: 4
#     Node 42, Type 0, BuildingBlock: GALJAG_clean_sbu_0, # of connection points: 4
#     Node 43, Type 0, BuildingBlock: GALJAG_clean_sbu_0, # of connection points: 4
#     Node 44, Type 0, BuildingBlock: GALJAG_clean_sbu_0, # of connection points: 4
#     Node 45, Type 0, BuildingBlock: GALJAG_clean_sbu_0, # of connection points: 4
#     Node 46, Type 0, BuildingBlock: GALJAG_clean_sbu_0, # of connection points: 4
#     Node 47, Type 0, BuildingBlock: GALJAG_clean_sbu_0, # of connection points: 4
#     Node 48, Type 0, BuildingBlock: GALJAG_clean_sbu_0, # of connection points: 4
#     Node 49, Type 0, BuildingBlock: GALJAG_clean_sbu_0, # of connection points: 4
#     Node 50, Type 0, BuildingBlock: GALJAG_clean_sbu_0, # of connection points: 4
#     Node 51, Type 0, BuildingBlock: GALJAG_clean_sbu_0, # of connection points: 4
#     Node 52, Type 0, BuildingBlock: GALJAG_clean_sbu_0, # of connection points: 4
#     Node 53, Type 0, BuildingBlock: GALJAG_clean_sbu_0, # of connection points: 4
#     Node 54, Type 0, BuildingBlock: GALJAG_clean_sbu_0, # of connection points: 4
#     Node 55, Type 0, BuildingBlock: GALJAG_clean_sbu_0, # of connection points: 4
#     Node 56, Type 0, BuildingBlock: GALJAG_clean_sbu_0, # of connection points: 4
#     Node 57, Type 0, BuildingBlock: GALJAG_clean_sbu_0, # of connection points: 4
#     Node 58, Type 0, BuildingBlock: GALJAG_clean_sbu_0, # of connection points: 4
#     Node 59, Type 0, BuildingBlock: GALJAG_clean_sbu_0, # of connection points: 4
#     Node 60, Type 0, BuildingBlock: GALJAG_clean_sbu_0, # of connection points: 4
#     Node 61, Type 0, BuildingBlock: GALJAG_clean_sbu_0, # of connection points: 4
#     Node 62, Type 0, BuildingBlock: GALJAG_clean_sbu_0, # of connection points: 4
#     Node 63, Type 0, BuildingBlock: GALJAG_clean_sbu_0, # of connection points: 4
#     Node 64, Type 0, BuildingBlock: GALJAG_clean_sbu_0, # of connection points: 4
#     Node 65, Type 0, BuildingBlock: GALJAG_clean_sbu_0, # of connection points: 4
#     Node 66, Type 0, BuildingBlock: GALJAG_clean_sbu_0, # of connection points: 4
#     Node 67, Type 0, BuildingBlock: GALJAG_clean_sbu_0, # of connection points: 4
#     Node 68, Type 0, BuildingBlock: GALJAG_clean_sbu_0, # of connection points: 4
#     Node 69, Type 0, BuildingBlock: GALJAG_clean_sbu_0, # of connection points: 4
#     Node 70, Type 0, BuildingBlock: GALJAG_clean_sbu_0, # of connection points: 4
#     Node 71, Type 0, BuildingBlock: GALJAG_clean_sbu_0, # of connection points: 4
#     Node 72, Type 0, BuildingBlock: GALJAG_clean_sbu_0, # of connection points: 4
#     Node 73, Type 0, BuildingBlock: GALJAG_clean_sbu_0, # of connection points: 4
#     Node 74, Type 0, BuildingBlock: GALJAG_clean_sbu_0, # of connection points: 4
#     Node 75, Type 0, BuildingBlock: GALJAG_clean_sbu_0, # of connection points: 4
#     Node 76, Type 0, BuildingBlock: GALJAG_clean_sbu_0, # of connection points: 4
#     Node 77, Type 0, BuildingBlock: GALJAG_clean_sbu_0, # of connection points: 4
#     Node 78, Type 0, BuildingBlock: GALJAG_clean_sbu_0, # of connection points: 4
#     Node 79, Type 0, BuildingBlock: GALJAG_clean_sbu_0, # of connection points: 4
#     Node 80, Type 0, BuildingBlock: GALJAG_clean_sbu_0, # of connection points: 4
#     Node 81, Type 0, BuildingBlock: GALJAG_clean_sbu_0, # of connection points: 4
#     Node 82, Type 0, BuildingBlock: GALJAG_clean_sbu_0, # of connection points: 4
#     Node 83, Type 0, BuildingBlock: GALJAG_clean_sbu_0, # of connection points: 4
#     Node 84, Type 0, BuildingBlock: GALJAG_clean_sbu_0, # of connection points: 4
#     Node 85, Type 0, BuildingBlock: GALJAG_clean_sbu_0, # of connection points: 4
#     Node 86, Type 0, BuildingBlock: GALJAG_clean_sbu_0, # of connection points: 4
#     Node 87, Type 0, BuildingBlock: GALJAG_clean_sbu_0, # of connection points: 4
#     Node 88, Type 0, BuildingBlock: GALJAG_clean_sbu_0, # of connection points: 4
#     Node 89, Type 0, BuildingBlock: GALJAG_clean_sbu_0, # of connection points: 4
#     Node 90, Type 0, BuildingBlock: GALJAG_clean_sbu_0, # of connection points: 4
#     Node 91, Type 0, BuildingBlock: GALJAG_clean_sbu_0, # of connection points: 4
#     Node 92, Type 0, BuildingBlock: GALJAG_clean_sbu_0, # of connection points: 4
#     Node 93, Type 0, BuildingBlock: GALJAG_clean_sbu_0, # of connection points: 4
#     Node 94, Type 0, BuildingBlock: GALJAG_clean_sbu_0, # of connection points: 4
#     Node 95, Type 0, BuildingBlock: GALJAG_clean_sbu_0, # of connection points: 4
#     Edge 96, Type (0, 0), BuildingBlock: KIFKEQ_clean_linker_1, # of connection points: 2
#     Edge 97, Type (0, 0), BuildingBlock: KIFKEQ_clean_linker_1, # of connection points: 2
#     Edge 98, Type (0, 0), BuildingBlock: KIFKEQ_clean_linker_1, # of connection points: 2
#     Edge 99, Type (0, 0), BuildingBlock: KIFKEQ_clean_linker_1, # of connection points: 2
#     Edge 100, Type (0, 0), BuildingBlock: KIFKEQ_clean_linker_1, # of connection points: 2
#     Edge 101, Type (0, 0), BuildingBlock: KIFKEQ_clean_linker_1, # of connection points: 2
#     Edge 102, Type (0, 0), BuildingBlock: KIFKEQ_clean_linker_1, # of connection points: 2
#     Edge 103, Type (0, 0), BuildingBlock: KIFKEQ_clean_linker_1, # of connection points: 2
#     Edge 104, Type (0, 0), BuildingBlock: KIFKEQ_clean_linker_1, # of connection points: 2
#     Edge 105, Type (0, 0), BuildingBlock: KIFKEQ_clean_linker_1, # of connection points: 2
#     Edge 106, Type (0, 0), BuildingBlock: KIFKEQ_clean_linker_1, # of connection points: 2
#     Edge 107, Type (0, 0), BuildingBlock: KIFKEQ_clean_linker_1, # of connection points: 2
#     Edge 108, Type (0, 0), BuildingBlock: KIFKEQ_clean_linker_1, # of connection points: 2
#     Edge 109, Type (0, 0), BuildingBlock: KIFKEQ_clean_linker_1, # of connection points: 2
#     Edge 110, Type (0, 0), BuildingBlock: KIFKEQ_clean_linker_1, # of connection points: 2
#     Edge 111, Type (0, 0), BuildingBlock: KIFKEQ_clean_linker_1, # of connection points: 2
#     Edge 112, Type (0, 0), BuildingBlock: KIFKEQ_clean_linker_1, # of connection points: 2
#     Edge 113, Type (0, 0), BuildingBlock: KIFKEQ_clean_linker_1, # of connection points: 2
#     Edge 114, Type (0, 0), BuildingBlock: KIFKEQ_clean_linker_1, # of connection points: 2
#     Edge 115, Type (0, 0), BuildingBlock: KIFKEQ_clean_linker_1, # of connection points: 2
#     Edge 116, Type (0, 0), BuildingBlock: KIFKEQ_clean_linker_1, # of connection points: 2
#     Edge 117, Type (0, 0), BuildingBlock: KIFKEQ_clean_linker_1, # of connection points: 2
#     Edge 118, Type (0, 0), BuildingBlock: KIFKEQ_clean_linker_1, # of connection points: 2
#     Edge 119, Type (0, 0), BuildingBlock: KIFKEQ_clean_linker_1, # of connection points: 2
#     Edge 120, Type (0, 0), BuildingBlock: KIFKEQ_clean_linker_1, # of connection points: 2
#     Edge 121, Type (0, 0), BuildingBlock: KIFKEQ_clean_linker_1, # of connection points: 2
#     Edge 122, Type (0, 0), BuildingBlock: KIFKEQ_clean_linker_1, # of connection points: 2
#     Edge 123, Type (0, 0), BuildingBlock: KIFKEQ_clean_linker_1, # of connection points: 2
#     Edge 124, Type (0, 0), BuildingBlock: KIFKEQ_clean_linker_1, # of connection points: 2
#     Edge 125, Type (0, 0), BuildingBlock: KIFKEQ_clean_linker_1, # of connection points: 2
#     Edge 126, Type (0, 0), BuildingBlock: KIFKEQ_clean_linker_1, # of connection points: 2
#     Edge 127, Type (0, 0), BuildingBlock: KIFKEQ_clean_linker_1, # of connection points: 2
#     Edge 128, Type (0, 0), BuildingBlock: KIFKEQ_clean_linker_1, # of connection points: 2
#     Edge 129, Type (0, 0), BuildingBlock: KIFKEQ_clean_linker_1, # of connection points: 2
#     Edge 130, Type (0, 0), BuildingBlock: KIFKEQ_clean_linker_1, # of connection points: 2
#     Edge 131, Type (0, 0), BuildingBlock: KIFKEQ_clean_linker_1, # of connection points: 2
#     Edge 132, Type (0, 0), BuildingBlock: KIFKEQ_clean_linker_1, # of connection points: 2
#     Edge 133, Type (0, 0), BuildingBlock: KIFKEQ_clean_linker_1, # of connection points: 2
#     Edge 134, Type (0, 0), BuildingBlock: KIFKEQ_clean_linker_1, # of connection points: 2
#     Edge 135, Type (0, 0), BuildingBlock: KIFKEQ_clean_linker_1, # of connection points: 2
#     Edge 136, Type (0, 0), BuildingBlock: KIFKEQ_clean_linker_1, # of connection points: 2
#     Edge 137, Type (0, 0), BuildingBlock: KIFKEQ_clean_linker_1, # of connection points: 2
#     Edge 138, Type (0, 0), BuildingBlock: KIFKEQ_clean_linker_1, # of connection points: 2
#     Edge 139, Type (0, 0), BuildingBlock: KIFKEQ_clean_linker_1, # of connection points: 2
#     Edge 140, Type (0, 0), BuildingBlock: KIFKEQ_clean_linker_1, # of connection points: 2
#     Edge 141, Type (0, 0), BuildingBlock: KIFKEQ_clean_linker_1, # of connection points: 2
#     Edge 142, Type (0, 0), BuildingBlock: KIFKEQ_clean_linker_1, # of connection points: 2
#     Edge 143, Type (0, 0), BuildingBlock: KIFKEQ_clean_linker_1, # of connection points: 2
#     Edge 144, Type (0, 0), BuildingBlock: KIFKEQ_clean_linker_1, # of connection points: 2
#     Edge 145, Type (0, 0), BuildingBlock: KIFKEQ_clean_linker_1, # of connection points: 2
#     Edge 146, Type (0, 0), BuildingBlock: KIFKEQ_clean_linker_1, # of connection points: 2
#     Edge 147, Type (0, 0), BuildingBlock: KIFKEQ_clean_linker_1, # of connection points: 2
#     Edge 148, Type (0, 0), BuildingBlock: KIFKEQ_clean_linker_1, # of connection points: 2
#     Edge 149, Type (0, 0), BuildingBlock: KIFKEQ_clean_linker_1, # of connection points: 2
#     Edge 150, Type (0, 0), BuildingBlock: KIFKEQ_clean_linker_1, # of connection points: 2
#     Edge 151, Type (0, 0), BuildingBlock: KIFKEQ_clean_linker_1, # of connection points: 2
#     Edge 152, Type (0, 0), BuildingBlock: KIFKEQ_clean_linker_1, # of connection points: 2
#     Edge 153, Type (0, 0), BuildingBlock: KIFKEQ_clean_linker_1, # of connection points: 2
#     Edge 154, Type (0, 0), BuildingBlock: KIFKEQ_clean_linker_1, # of connection points: 2
#     Edge 155, Type (0, 0), BuildingBlock: KIFKEQ_clean_linker_1, # of connection points: 2
#     Edge 156, Type (0, 0), BuildingBlock: KIFKEQ_clean_linker_1, # of connection points: 2
#     Edge 157, Type (0, 0), BuildingBlock: KIFKEQ_clean_linker_1, # of connection points: 2
#     Edge 158, Type (0, 0), BuildingBlock: KIFKEQ_clean_linker_1, # of connection points: 2
#     Edge 159, Type (0, 0), BuildingBlock: KIFKEQ_clean_linker_1, # of connection points: 2
#     Edge 160, Type (0, 0), BuildingBlock: KIFKEQ_clean_linker_1, # of connection points: 2
#     Edge 161, Type (0, 0), BuildingBlock: KIFKEQ_clean_linker_1, # of connection points: 2
#     Edge 162, Type (0, 0), BuildingBlock: KIFKEQ_clean_linker_1, # of connection points: 2
#     Edge 163, Type (0, 0), BuildingBlock: KIFKEQ_clean_linker_1, # of connection points: 2
#     Edge 164, Type (0, 0), BuildingBlock: KIFKEQ_clean_linker_1, # of connection points: 2
#     Edge 165, Type (0, 0), BuildingBlock: KIFKEQ_clean_linker_1, # of connection points: 2
#     Edge 166, Type (0, 0), BuildingBlock: KIFKEQ_clean_linker_1, # of connection points: 2
#     Edge 167, Type (0, 0), BuildingBlock: KIFKEQ_clean_linker_1, # of connection points: 2
#     Edge 168, Type (0, 0), BuildingBlock: KIFKEQ_clean_linker_1, # of connection points: 2
#     Edge 169, Type (0, 0), BuildingBlock: KIFKEQ_clean_linker_1, # of connection points: 2
#     Edge 170, Type (0, 0), BuildingBlock: KIFKEQ_clean_linker_1, # of connection points: 2
#     Edge 171, Type (0, 0), BuildingBlock: KIFKEQ_clean_linker_1, # of connection points: 2
#     Edge 172, Type (0, 0), BuildingBlock: KIFKEQ_clean_linker_1, # of connection points: 2
#     Edge 173, Type (0, 0), BuildingBlock: KIFKEQ_clean_linker_1, # of connection points: 2
#     Edge 174, Type (0, 0), BuildingBlock: KIFKEQ_clean_linker_1, # of connection points: 2
#     Edge 175, Type (0, 0), BuildingBlock: KIFKEQ_clean_linker_1, # of connection points: 2
#     Edge 176, Type (0, 0), BuildingBlock: KIFKEQ_clean_linker_1, # of connection points: 2
#     Edge 177, Type (0, 0), BuildingBlock: KIFKEQ_clean_linker_1, # of connection points: 2
#     Edge 178, Type (0, 0), BuildingBlock: KIFKEQ_clean_linker_1, # of connection points: 2
#     Edge 179, Type (0, 0), BuildingBlock: KIFKEQ_clean_linker_1, # of connection points: 2
#     Edge 180, Type (0, 0), BuildingBlock: KIFKEQ_clean_linker_1, # of connection points: 2
#     Edge 181, Type (0, 0), BuildingBlock: KIFKEQ_clean_linker_1, # of connection points: 2
#     Edge 182, Type (0, 0), BuildingBlock: KIFKEQ_clean_linker_1, # of connection points: 2
#     Edge 183, Type (0, 0), BuildingBlock: KIFKEQ_clean_linker_1, # of connection points: 2
#     Edge 184, Type (0, 0), BuildingBlock: KIFKEQ_clean_linker_1, # of connection points: 2
#     Edge 185, Type (0, 0), BuildingBlock: KIFKEQ_clean_linker_1, # of connection points: 2
#     Edge 186, Type (0, 0), BuildingBlock: KIFKEQ_clean_linker_1, # of connection points: 2
#     Edge 187, Type (0, 0), BuildingBlock: KIFKEQ_clean_linker_1, # of connection points: 2
#     Edge 188, Type (0, 0), BuildingBlock: KIFKEQ_clean_linker_1, # of connection points: 2
#     Edge 189, Type (0, 0), BuildingBlock: KIFKEQ_clean_linker_1, # of connection points: 2
#     Edge 190, Type (0, 0), BuildingBlock: KIFKEQ_clean_linker_1, # of connection points: 2
#     Edge 191, Type (0, 0), BuildingBlock: KIFKEQ_clean_linker_1, # of connection points: 2
#     Edge 192, Type (0, 0), BuildingBlock: KIFKEQ_clean_linker_1, # of connection points: 2
#     Edge 193, Type (0, 0), BuildingBlock: KIFKEQ_clean_linker_1, # of connection points: 2
#     Edge 194, Type (0, 0), BuildingBlock: KIFKEQ_clean_linker_1, # of connection points: 2
#     Edge 195, Type (0, 0), BuildingBlock: KIFKEQ_clean_linker_1, # of connection points: 2
#     Edge 196, Type (0, 0), BuildingBlock: KIFKEQ_clean_linker_1, # of connection points: 2
#     Edge 197, Type (0, 0), BuildingBlock: KIFKEQ_clean_linker_1, # of connection points: 2
#     Edge 198, Type (0, 0), BuildingBlock: KIFKEQ_clean_linker_1, # of connection points: 2
#     Edge 199, Type (0, 0), BuildingBlock: KIFKEQ_clean_linker_1, # of connection points: 2
#     Edge 200, Type (0, 0), BuildingBlock: KIFKEQ_clean_linker_1, # of connection points: 2
#     Edge 201, Type (0, 0), BuildingBlock: KIFKEQ_clean_linker_1, # of connection points: 2
#     Edge 202, Type (0, 0), BuildingBlock: KIFKEQ_clean_linker_1, # of connection points: 2
#     Edge 203, Type (0, 0), BuildingBlock: KIFKEQ_clean_linker_1, # of connection points: 2
#     Edge 204, Type (0, 0), BuildingBlock: KIFKEQ_clean_linker_1, # of connection points: 2
#     Edge 205, Type (0, 0), BuildingBlock: KIFKEQ_clean_linker_1, # of connection points: 2
#     Edge 206, Type (0, 0), BuildingBlock: KIFKEQ_clean_linker_1, # of connection points: 2
#     Edge 207, Type (0, 0), BuildingBlock: KIFKEQ_clean_linker_1, # of connection points: 2
#     Edge 208, Type (0, 0), BuildingBlock: KIFKEQ_clean_linker_1, # of connection points: 2
#     Edge 209, Type (0, 0), BuildingBlock: KIFKEQ_clean_linker_1, # of connection points: 2
#     Edge 210, Type (0, 0), BuildingBlock: KIFKEQ_clean_linker_1, # of connection points: 2
#     Edge 211, Type (0, 0), BuildingBlock: KIFKEQ_clean_linker_1, # of connection points: 2
#     Edge 212, Type (0, 0), BuildingBlock: KIFKEQ_clean_linker_1, # of connection points: 2
#     Edge 213, Type (0, 0), BuildingBlock: KIFKEQ_clean_linker_1, # of connection points: 2
#     Edge 214, Type (0, 0), BuildingBlock: KIFKEQ_clean_linker_1, # of connection points: 2
#     Edge 215, Type (0, 0), BuildingBlock: KIFKEQ_clean_linker_1, # of connection points: 2
#     Edge 216, Type (0, 0), BuildingBlock: KIFKEQ_clean_linker_1, # of connection points: 2
#     Edge 217, Type (0, 0), BuildingBlock: KIFKEQ_clean_linker_1, # of connection points: 2
#     Edge 218, Type (0, 0), BuildingBlock: KIFKEQ_clean_linker_1, # of connection points: 2
#     Edge 219, Type (0, 0), BuildingBlock: KIFKEQ_clean_linker_1, # of connection points: 2
#     Edge 220, Type (0, 0), BuildingBlock: KIFKEQ_clean_linker_1, # of connection points: 2
#     Edge 221, Type (0, 0), BuildingBlock: KIFKEQ_clean_linker_1, # of connection points: 2
#     Edge 222, Type (0, 0), BuildingBlock: KIFKEQ_clean_linker_1, # of connection points: 2
#     Edge 223, Type (0, 0), BuildingBlock: KIFKEQ_clean_linker_1, # of connection points: 2
#     Edge 224, Type (0, 0), BuildingBlock: KIFKEQ_clean_linker_1, # of connection points: 2
#     Edge 225, Type (0, 0), BuildingBlock: KIFKEQ_clean_linker_1, # of connection points: 2
#     Edge 226, Type (0, 0), BuildingBlock: KIFKEQ_clean_linker_1, # of connection points: 2
#     Edge 227, Type (0, 0), BuildingBlock: KIFKEQ_clean_linker_1, # of connection points: 2
#     Edge 228, Type (0, 0), BuildingBlock: KIFKEQ_clean_linker_1, # of connection points: 2
#     Edge 229, Type (0, 0), BuildingBlock: KIFKEQ_clean_linker_1, # of connection points: 2
#     Edge 230, Type (0, 0), BuildingBlock: KIFKEQ_clean_linker_1, # of connection points: 2
#     Edge 231, Type (0, 0), BuildingBlock: KIFKEQ_clean_linker_1, # of connection points: 2
#     Edge 232, Type (0, 0), BuildingBlock: KIFKEQ_clean_linker_1, # of connection points: 2
#     Edge 233, Type (0, 0), BuildingBlock: KIFKEQ_clean_linker_1, # of connection points: 2
#     Edge 234, Type (0, 0), BuildingBlock: KIFKEQ_clean_linker_1, # of connection points: 2
#     Edge 235, Type (0, 0), BuildingBlock: KIFKEQ_clean_linker_1, # of connection points: 2
#     Edge 236, Type (0, 0), BuildingBlock: KIFKEQ_clean_linker_1, # of connection points: 2
#     Edge 237, Type (0, 0), BuildingBlock: KIFKEQ_clean_linker_1, # of connection points: 2
#     Edge 238, Type (0, 0), BuildingBlock: KIFKEQ_clean_linker_1, # of connection points: 2
#     Edge 239, Type (0, 0), BuildingBlock: KIFKEQ_clean_linker_1, # of connection points: 2
#     Edge 240, Type (0, 0), BuildingBlock: KIFKEQ_clean_linker_1, # of connection points: 2
#     Edge 241, Type (0, 0), BuildingBlock: KIFKEQ_clean_linker_1, # of connection points: 2
#     Edge 242, Type (0, 0), BuildingBlock: KIFKEQ_clean_linker_1, # of connection points: 2
#     Edge 243, Type (0, 0), BuildingBlock: KIFKEQ_clean_linker_1, # of connection points: 2
#     Edge 244, Type (0, 0), BuildingBlock: KIFKEQ_clean_linker_1, # of connection points: 2
#     Edge 245, Type (0, 0), BuildingBlock: KIFKEQ_clean_linker_1, # of connection points: 2
#     Edge 246, Type (0, 0), BuildingBlock: KIFKEQ_clean_linker_1, # of connection points: 2
#     Edge 247, Type (0, 0), BuildingBlock: KIFKEQ_clean_linker_1, # of connection points: 2
#     Edge 248, Type (0, 0), BuildingBlock: KIFKEQ_clean_linker_1, # of connection points: 2
#     Edge 249, Type (0, 0), BuildingBlock: KIFKEQ_clean_linker_1, # of connection points: 2
#     Edge 250, Type (0, 0), BuildingBlock: KIFKEQ_clean_linker_1, # of connection points: 2
#     Edge 251, Type (0, 0), BuildingBlock: KIFKEQ_clean_linker_1, # of connection points: 2
#     Edge 252, Type (0, 0), BuildingBlock: KIFKEQ_clean_linker_1, # of connection points: 2
#     Edge 253, Type (0, 0), BuildingBlock: KIFKEQ_clean_linker_1, # of connection points: 2
#     Edge 254, Type (0, 0), BuildingBlock: KIFKEQ_clean_linker_1, # of connection points: 2
#     Edge 255, Type (0, 0), BuildingBlock: KIFKEQ_clean_linker_1, # of connection points: 2
#     Edge 256, Type (0, 0), BuildingBlock: KIFKEQ_clean_linker_1, # of connection points: 2
#     Edge 257, Type (0, 0), BuildingBlock: KIFKEQ_clean_linker_1, # of connection points: 2
#     Edge 258, Type (0, 0), BuildingBlock: KIFKEQ_clean_linker_1, # of connection points: 2
#     Edge 259, Type (0, 0), BuildingBlock: KIFKEQ_clean_linker_1, # of connection points: 2
#     Edge 260, Type (0, 0), BuildingBlock: KIFKEQ_clean_linker_1, # of connection points: 2
#     Edge 261, Type (0, 0), BuildingBlock: KIFKEQ_clean_linker_1, # of connection points: 2
#     Edge 262, Type (0, 0), BuildingBlock: KIFKEQ_clean_linker_1, # of connection points: 2
#     Edge 263, Type (0, 0), BuildingBlock: KIFKEQ_clean_linker_1, # of connection points: 2
#     Edge 264, Type (0, 0), BuildingBlock: KIFKEQ_clean_linker_1, # of connection points: 2
#     Edge 265, Type (0, 0), BuildingBlock: KIFKEQ_clean_linker_1, # of connection points: 2
#     Edge 266, Type (0, 0), BuildingBlock: KIFKEQ_clean_linker_1, # of connection points: 2
#     Edge 267, Type (0, 0), BuildingBlock: KIFKEQ_clean_linker_1, # of connection points: 2
#     Edge 268, Type (0, 0), BuildingBlock: KIFKEQ_clean_linker_1, # of connection points: 2
#     Edge 269, Type (0, 0), BuildingBlock: KIFKEQ_clean_linker_1, # of connection points: 2
#     Edge 270, Type (0, 0), BuildingBlock: KIFKEQ_clean_linker_1, # of connection points: 2
#     Edge 271, Type (0, 0), BuildingBlock: KIFKEQ_clean_linker_1, # of connection points: 2
#     Edge 272, Type (0, 0), BuildingBlock: KIFKEQ_clean_linker_1, # of connection points: 2
#     Edge 273, Type (0, 0), BuildingBlock: KIFKEQ_clean_linker_1, # of connection points: 2
#     Edge 274, Type (0, 0), BuildingBlock: KIFKEQ_clean_linker_1, # of connection points: 2
#     Edge 275, Type (0, 0), BuildingBlock: KIFKEQ_clean_linker_1, # of connection points: 2
#     Edge 276, Type (0, 0), BuildingBlock: KIFKEQ_clean_linker_1, # of connection points: 2
#     Edge 277, Type (0, 0), BuildingBlock: KIFKEQ_clean_linker_1, # of connection points: 2
#     Edge 278, Type (0, 0), BuildingBlock: KIFKEQ_clean_linker_1, # of connection points: 2
#     Edge 279, Type (0, 0), BuildingBlock: KIFKEQ_clean_linker_1, # of connection points: 2
#     Edge 280, Type (0, 0), BuildingBlock: KIFKEQ_clean_linker_1, # of connection points: 2
#     Edge 281, Type (0, 0), BuildingBlock: KIFKEQ_clean_linker_1, # of connection points: 2
#     Edge 282, Type (0, 0), BuildingBlock: KIFKEQ_clean_linker_1, # of connection points: 2
#     Edge 283, Type (0, 0), BuildingBlock: KIFKEQ_clean_linker_1, # of connection points: 2
#     Edge 284, Type (0, 0), BuildingBlock: KIFKEQ_clean_linker_1, # of connection points: 2
#     Edge 285, Type (0, 0), BuildingBlock: KIFKEQ_clean_linker_1, # of connection points: 2
#     Edge 286, Type (0, 0), BuildingBlock: KIFKEQ_clean_linker_1, # of connection points: 2
#     Edge 287, Type (0, 0), BuildingBlock: KIFKEQ_clean_linker_1, # of connection points: 2
# Relax obj value: 0.095
# Max RMSD: 0.169
# Mean RMSD: 0.169
data_MOF--net-gie--node1-GALJAG_clean_sbu_0--edge1-KIFKEQ_clean_linker_1
_symmetry_space_group_name_H-M    P1
_symmetry_Int_Tables_number       1
_symmetry_cell_setting            triclinic
loop_
_symmetry_equiv_pos_as_xyz
'x, y, z'
_cell_length_a     87.728156
_cell_length_b     87.743008
_cell_length_c     87.754587
_cell_angle_alpha  89.996043
_cell_angle_beta   89.983286
_cell_angle_gamma 89.992956
loop_
_atom_site_label
_atom_site_type_symbol
_atom_site_fract_x
_atom_site_fract_y
_atom_site_fract_z
_atom_type_partial_charge
In0 In 0.99898 0.1338 0.39874 0.0
O1 O 0.01387 0.14103 0.37838 0.0
O2 O 0.01261 0.15562 0.39766 0.0
C3 C 0.98841 0.10634 0.39022 0.0
C4 C 0.01741 0.12528 0.42161 0.0
C5 C 0.97275 0.14976 0.39955 0.0
O6 O 0.99553 0.11494 0.38111 0.0
O7 O 0.98676 0.1116 0.40351 0.0
O8 O 0.9809 0.14791 0.41126 0.0
O9 O 0.97785 0.1436 0.38762 0.0
C10 C 0.0182 0.15324 0.38466 0.0
O11 O 0.00561 0.13322 0.42389 0.0
O12 O 0.01968 0.12152 0.40792 0.0
In13 In 0.11322 0.75311 0.6541 0.0
O14 O 0.10515 0.76293 0.67695 0.0
O15 O 0.12868 0.76444 0.67153 0.0
C16 C 0.09048 0.73223 0.65567 0.0
C17 C 0.10538 0.77425 0.63305 0.0
C18 C 0.13896 0.73805 0.6467 0.0
O19 O 0.10436 0.72866 0.65521 0.0
O20 O 0.08802 0.74636 0.65581 0.0
O21 O 0.13294 0.74764 0.63777 0.0
O22 O 0.13205 0.73628 0.65918 0.0
C23 C 0.11822 0.76739 0.68092 0.0
O24 O 0.10459 0.76013 0.63045 0.0
O25 O 0.11091 0.77762 0.64587 0.0
In26 In 0.49884 0.86716 0.9005 0.0
O27 O 0.4933 0.85132 0.88065 0.0
O28 O 0.47604 0.86662 0.88788 0.0
C29 C 0.50899 0.89506 0.89279 0.0
C30 C 0.48225 0.86901 0.92642 0.0
C31 C 0.52365 0.849 0.90341 0.0
O32 O 0.50097 0.88709 0.88388 0.0
O33 O 0.51167 0.88901 0.90557 0.0
O34 O 0.51178 0.84712 0.91129 0.0
O35 O 0.52309 0.86017 0.89444 0.0
C36 C 0.47978 0.85589 0.87907 0.0
O37 O 0.48304 0.85703 0.91854 0.0
O38 O 0.49017 0.87993 0.92147 0.0
In39 In 0.38422 0.24627 0.14823 0.0
O40 O 0.38159 0.24228 0.17397 0.0
O41 O 0.387 0.22336 0.15987 0.0
C42 C 0.39894 0.27322 0.15055 0.0
C43 C 0.40055 0.23001 0.12785 0.0
C44 C 0.35485 0.2525 0.14122 0.0
O45 O 0.40161 0.26219 0.15938 0.0
O46 O 0.38866 0.27073 0.14083 0.0
O47 O 0.36499 0.25075 0.13119 0.0
O48 O 0.35947 0.25082 0.15471 0.0
C49 C 0.38436 0.22818 0.17313 0.0
O50 O 0.38664 0.22734 0.13047 0.0
O51 O 0.40602 0.24108 0.1352 0.0
In52 In 0.00329 0.86596 0.10295 0.0
O53 O 0.00944 0.87063 0.078 0.0
O54 O 0.02748 0.86772 0.0939 0.0
C55 C 0.97663 0.85131 0.09808 0.0
C56 C 0.01786 0.84651 0.1218 0.0
C57 C 0.99505 0.89408 0.11242 0.0
O58 O 0.98797 0.84972 0.08937 0.0
O59 O 0.97867 0.86051 0.10891 0.0
O60 O 0.99787 0.88334 0.12157 0.0
O61 O 0.99679 0.89073 0.09856 0.0
C62 C 0.02364 0.87014 0.08028 0.0
O63 O 0.01889 0.8608 0.1233 0.0
O64 O 0.00942 0.8422 0.11101 0.0
In65 In 0.3877 0.74954 0.34922 0.0
O66 O 0.38857 0.77177 0.3627 0.0
O67 O 0.40523 0.75494 0.36764 0.0
C68 C 0.35936 0.74367 0.35974 0.0
C69 C 0.38706 0.76487 0.32246 0.0
C70 C 0.40344 0.72323 0.34496 0.0
O71 O 0.37106 0.74235 0.368 0.0
O72 O 0.36196 0.74827 0.34638 0.0
O73 O 0.40891 0.73614 0.34188 0.0
O74 O 0.38992 0.72355 0.34971 0.0
C75 C 0.40026 0.76817 0.37027 0.0
O76 O 0.39583 0.76836 0.33326 0.0
O77 O 0.37893 0.75327 0.32491 0.0
In78 In 0.49479 0.13682 0.59795 0.0
O79 O 0.47992 0.13953 0.61945 0.0
O80 O 0.47637 0.15454 0.60077 0.0
C81 C 0.50966 0.11066 0.60354 0.0
C82 C 0.47819 0.12869 0.57352 0.0
C83 C 0.51846 0.1563 0.60041 0.0
O84 O 0.49975 0.1159 0.61262 0.0
O85 O 0.51182 0.11853 0.59167 0.0
O86 O 0.51234 0.15341 0.58771 0.0
O87 O 0.51253 0.14956 0.61161 0.0
C88 C 0.47247 0.15058 0.614 0.0
O89 O 0.48587 0.14088 0.57382 0.0
O90 O 0.47918 0.12056 0.58535 0.0
In91 In 0.11031 0.2417 0.84864 0.0
O92 O 0.10521 0.23481 0.82399 0.0
O93 O 0.12615 0.22763 0.83395 0.0
C94 C 0.08747 0.26182 0.85279 0.0
C95 C 0.09945 0.21834 0.86543 0.0
C96 C 0.13555 0.25837 0.85401 0.0
O97 O 0.09261 0.25885 0.83966 0.0
O98 O 0.09381 0.25467 0.8635 0.0
O99 O 0.13367 0.24532 0.85981 0.0
O100 O 0.12473 0.2629 0.84571 0.0
C101 C 0.11752 0.22746 0.82245 0.0
O102 O 0.10749 0.22877 0.87125 0.0
O103 O 0.09731 0.21956 0.85129 0.0
In104 In 0.3969 0.00322 0.13575 0.0
O105 O 0.38094 0.02407 0.13491 0.0
O106 O 0.3855 0.01377 0.15632 0.0
C107 C 0.39092 0.9907 0.10848 0.0
C108 C 0.42304 0.01917 0.13239 0.0
C109 C 0.39412 0.9771 0.15171 0.0
O110 O 0.38125 0.99898 0.11527 0.0
O111 O 0.4034 0.98895 0.11542 0.0
O112 O 0.4069 0.98358 0.15006 0.0
O113 O 0.38311 0.98384 0.14541 0.0
C114 C 0.37868 0.02414 0.14912 0.0
O115 O 0.41903 0.01391 0.14517 0.0
O116 O 0.41406 0.01626 0.12161 0.0
In117 In 0.24453 0.15592 0.38045 0.0
O118 O 0.2275 0.13677 0.38607 0.0
O119 O 0.22981 0.1553 0.40152 0.0
C120 C 0.25617 0.14772 0.35334 0.0
C121 C 0.2283 0.18056 0.37224 0.0
C122 C 0.26935 0.15198 0.39808 0.0
O123 O 0.24738 0.13911 0.36085 0.0
O124 O 0.25893 0.16046 0.35946 0.0
O125 O 0.26369 0.16506 0.39591 0.0
O126 O 0.26265 0.14131 0.39121 0.0
C127 C 0.22332 0.14286 0.39844 0.0
O128 O 0.2394 0.1815 0.38141 0.0
O129 O 0.22572 0.16735 0.36714 0.0
In130 In 0.09087 0.99757 0.63326 0.0
O131 O 0.06578 0.99034 0.63324 0.0
O132 O 0.08128 0.97874 0.61857 0.0
C133 C 0.09169 0.02231 0.65147 0.0
C134 C 0.10542 0.97675 0.65051 0.0
C135 C 0.09844 0.01079 0.60674 0.0
O136 O 0.07964 0.01463 0.64969 0.0
O137 O 0.10306 0.0175 0.64413 0.0
O138 O 0.10746 0.00194 0.6137 0.0
O139 O 0.08568 0.01276 0.61312 0.0
C140 C 0.06781 0.97992 0.62349 0.0
O141 O 0.11159 0.98248 0.63882 0.0
O142 O 0.09226 0.9817 0.65342 0.0
In143 In 0.25177 0.85071 0.88074 0.0
O144 O 0.26844 0.86954 0.88843 0.0
O145 O 0.2632 0.85158 0.90375 0.0
C146 C 0.24163 0.86105 0.85387 0.0
C147 C 0.26999 0.82794 0.87131 0.0
C148 C 0.22472 0.85001 0.89528 0.0
O149 O 0.24819 0.86968 0.8634 0.0
O150 O 0.24029 0.84729 0.85794 0.0
O151 O 0.23272 0.83815 0.89357 0.0
O152 O 0.2303 0.86195 0.88959 0.0
C153 C 0.27064 0.8636 0.90136 0.0
O154 O 0.25956 0.82575 0.88101 0.0
O155 O 0.27099 0.84139 0.86636 0.0
In156 In 0.399 0.9938 0.36155 0.0
O157 O 0.37825 0.97838 0.35666 0.0
O158 O 0.39936 0.97374 0.34563 0.0
C159 C 0.39161 0.00914 0.38701 0.0
C160 C 0.42372 0.97876 0.37141 0.0
C161 C 0.39637 0.01556 0.34002 0.0
O162 O 0.38349 0.99826 0.38213 0.0
O163 O 0.40311 0.01222 0.37895 0.0
O164 O 0.4091 0.01223 0.34587 0.0
O165 O 0.38525 0.00805 0.34513 0.0
C166 C 0.38558 0.9701 0.34738 0.0
O167 O 0.42381 0.98633 0.35913 0.0
O168 O 0.41132 0.97906 0.37871 0.0
In169 In 0.25094 0.14849 0.61476 0.0
O170 O 0.25532 0.17249 0.6241 0.0
O171 O 0.27192 0.16273 0.60947 0.0
C172 C 0.2261 0.15418 0.59731 0.0
C173 C 0.26885 0.12754 0.60113 0.0
C174 C 0.24268 0.13785 0.64247 0.0
O175 O 0.23899 0.15985 0.59453 0.0
O176 O 0.22567 0.14596 0.60905 0.0
O177 O 0.24497 0.12919 0.63123 0.0
O178 O 0.24491 0.15179 0.63981 0.0
C179 C 0.26801 0.17396 0.6175 0.0
O180 O 0.27237 0.13374 0.61364 0.0
O181 O 0.25608 0.13151 0.59584 0.0
In182 In 0.09873 0.00404 0.86152 0.0
O183 O 0.0732 0.00884 0.86481 0.0
O184 O 0.08783 0.02743 0.85975 0.0
C185 C 0.0946 0.97835 0.84504 0.0
C186 C 0.12019 0.02007 0.84642 0.0
C187 C 0.10622 0.99558 0.89019 0.0
O188 O 0.08744 0.99051 0.84229 0.0
O189 O 0.10356 0.9791 0.85623 0.0
O190 O 0.11606 0.99776 0.87995 0.0
O191 O 0.09268 0.99805 0.88607 0.0
C192 C 0.07446 0.02297 0.86245 0.0
O193 O 0.11677 0.02282 0.86013 0.0
O194 O 0.11312 0.009 0.84058 0.0
In195 In 0.2432 0.85096 0.11418 0.0
O196 O 0.23615 0.82586 0.11562 0.0
O197 O 0.21874 0.84271 0.11578 0.0
C198 C 0.26999 0.84601 0.09988 0.0
C199 C 0.22933 0.8709 0.09527 0.0
C200 C 0.25116 0.85769 0.14313 0.0
O201 O 0.25843 0.83772 0.0977 0.0
O202 O 0.26811 0.8565 0.10954 0.0
O203 O 0.24948 0.86785 0.13307 0.0
O204 O 0.24849 0.84431 0.13864 0.0
C205 C 0.22205 0.82874 0.11611 0.0
O206 O 0.22728 0.87129 0.10952 0.0
O207 O 0.23863 0.86089 0.09084 0.0
In208 In 0.13467 0.40465 0.99778 0.0
O209 O 0.13189 0.4305 0.00128 0.0
O210 O 0.13322 0.41614 0.02077 0.0
C211 C 0.14789 0.40334 0.97001 0.0
C212 C 0.15511 0.38831 0.01388 0.0
C213 C 0.10577 0.39575 0.99212 0.0
O214 O 0.14971 0.41464 0.97875 0.0
O215 O 0.13913 0.39318 0.97513 0.0
O216 O 0.11585 0.3867 0.99697 0.0
O217 O 0.11017 0.40935 0.99057 0.0
C218 C 0.13202 0.4295 0.01565 0.0
O219 O 0.14092 0.386 0.01502 0.0
O220 O 0.15881 0.39862 0.00458 0.0
In221 In 0.63294 0.10042 0.99576 0.0
O222 O 0.63148 0.07476 0.99069 0.0
O223 O 0.63119 0.0902 0.97208 0.0
C224 C 0.64856 0.09836 0.02214 0.0
C225 C 0.65079 0.11978 0.97985 0.0
C226 C 0.60429 0.10762 0.00463 0.0
O227 O 0.64979 0.08854 0.01169 0.0
O228 O 0.63932 0.10901 0.01934 0.0
O229 O 0.61348 0.11744 -0.00047 0.0
O230 O 0.60943 0.09421 0.00485 0.0
C231 C 0.63098 0.07653 0.97643 0.0
O232 O 0.63651 0.11928 0.97801 0.0
O233 O 0.65588 0.1108 0.98985 0.0
In234 In 0.14797 0.38214 0.24126 0.0
O235 O 0.17303 0.38564 0.23478 0.0
O236 O 0.16113 0.36658 0.22554 0.0
C237 C 0.14397 0.39993 0.26605 0.0
C238 C 0.13581 0.3985 0.21834 0.0
C239 C 0.13808 0.35544 0.25255 0.0
O240 O 0.15679 0.39409 0.263 0.0
O241 O 0.13362 0.39689 0.25661 0.0
O242 O 0.13009 0.36335 0.24354 0.0
O243 O 0.15099 0.36097 0.25571 0.0
C244 C 0.17337 0.37411 0.22614 0.0
O245 O 0.12912 0.38694 0.22375 0.0
O246 O 0.14839 0.40167 0.22452 0.0
In247 In 0.86471 0.89759 0.4977 0.0
O248 O 0.86417 0.8837 0.47572 0.0
O249 O 0.84634 0.88023 0.49177 0.0
C250 C 0.8928 0.88741 0.50531 0.0
C251 C 0.86627 0.92352 0.48102 0.0
C252 C 0.84753 0.90124 0.5232 0.0
O253 O 0.88209 0.87859 0.50154 0.0
O254 O 0.88943 0.90138 0.50495 0.0
O255 O 0.84484 0.90831 0.511 0.0
O256 O 0.85904 0.89271 0.52264 0.0
C257 C 0.85185 0.87695 0.47889 0.0
O258 O 0.85736 0.9127 0.47797 0.0
O259 O 0.87432 0.92147 0.49276 0.0
In260 In 0.84839 0.10726 0.24772 0.0
O261 O 0.87097 0.09579 0.24172 0.0
O262 O 0.86025 0.10903 0.22459 0.0
C263 C 0.85553 0.13397 0.26106 0.0
C264 C 0.82299 0.1096 0.23037 0.0
C265 C 0.84392 0.08651 0.27028 0.0
O266 O 0.86571 0.12485 0.25649 0.0
O267 O 0.84203 0.1295 0.25899 0.0
O268 O 0.84335 0.10065 0.27255 0.0
O269 O 0.8462 0.08284 0.25661 0.0
C270 C 0.87109 0.10026 0.22806 0.0
O271 O 0.82918 0.09694 0.23313 0.0
O272 O 0.82936 0.12082 0.23661 0.0
In273 In 0.36291 0.60263 0.50442 0.0
O274 O 0.3736 0.57983 0.51103 0.0
O275 O 0.35263 0.58571 0.52142 0.0
C276 C 0.34519 0.60166 0.47923 0.0
C277 C 0.35163 0.62395 0.52359 0.0
C278 C 0.39156 0.60883 0.49514 0.0
O279 O 0.34334 0.59262 0.49026 0.0
O280 O 0.35601 0.61094 0.48086 0.0
O281 O 0.38446 0.61749 0.50421 0.0
O282 O 0.38421 0.59722 0.49094 0.0
C283 C 0.36336 0.57623 0.52043 0.0
O284 O 0.36301 0.61579 0.52694 0.0
O285 O 0.3465 0.62186 0.51033 0.0
In286 In 0.15191 0.61164 0.25182 0.0
O287 O 0.13122 0.60437 0.26638 0.0
O288 O 0.15118 0.59066 0.26655 0.0
C289 C 0.1451 0.63964 0.24171 0.0
C290 C 0.17501 0.6203 0.26984 0.0
C291 C 0.1512 0.59611 0.22528 0.0
O292 O 0.13551 0.63169 0.24902 0.0
O293 O 0.15784 0.63332 0.2394 0.0
O294 O 0.16338 0.59772 0.23281 0.0
O295 O 0.13965 0.60232 0.23112 0.0
C296 C 0.13785 0.59263 0.27147 0.0
O297 O 0.17668 0.60998 0.25991 0.0
O298 O 0.16186 0.62607 0.2706 0.0
In299 In 0.35586 0.38492 0.75121 0.0
O300 O 0.3717 0.38619 0.77189 0.0
O301 O 0.37033 0.40553 0.75742 0.0
C302 C 0.36524 0.35616 0.74527 0.0
C303 C 0.3298 0.38381 0.76749 0.0
C304 C 0.35186 0.40025 0.72468 0.0
O305 O 0.37389 0.36755 0.74383 0.0
O306 O 0.35201 0.35927 0.74992 0.0
O307 O 0.34357 0.40246 0.7362 0.0
O308 O 0.36183 0.39009 0.72643 0.0
C309 C 0.37589 0.39971 0.76932 0.0
O310 O 0.33109 0.37742 0.75465 0.0
O311 O 0.34148 0.39093 0.77187 0.0
In312 In -5e-05 0.85825 0.59469 0.0
O313 O 0.98262 0.85688 0.61417 0.0
O314 O 0.99485 0.83682 0.60828 0.0
C315 C 0.00637 0.88771 0.60083 0.0
C316 C 0.98057 0.85859 0.57067 0.0
C317 C 0.02697 0.84351 0.59238 0.0
O318 O 0.00411 0.878 0.61121 0.0
O319 O 0.00518 0.88258 0.58746 0.0
O320 O 0.01509 0.8389 0.58572 0.0
O321 O 0.02531 0.8557 0.59979 0.0
C322 C 0.98479 0.84285 0.61659 0.0
O323 O 0.99468 0.86093 0.56911 0.0
O324 O 0.97645 0.85586 0.58412 0.0
In325 In 0.87966 0.24168 0.35367 0.0
O326 O 0.88541 0.23186 0.33006 0.0
O327 O 0.8648 0.225 0.34068 0.0
C328 C 0.89969 0.26404 0.34665 0.0
C329 C 0.89165 0.22286 0.37501 0.0
C330 C 0.85422 0.25576 0.36352 0.0
O331 O 0.88595 0.26667 0.34994 0.0
O332 O 0.90318 0.25009 0.34631 0.0
O333 O 0.86411 0.25055 0.3726 0.0
O334 O 0.85721 0.25385 0.34958 0.0
C335 C 0.8736 0.22367 0.32942 0.0
O336 O 0.89552 0.23663 0.3738 0.0
O337 O 0.88129 0.21883 0.36596 0.0
In338 In 0.50212 0.13458 0.10038 0.0
O339 O 0.5182 0.14412 0.08218 0.0
O340 O 0.50938 0.12191 0.0788 0.0
C341 C 0.4777 0.15335 0.09875 0.0
C342 C 0.52212 0.14546 0.12116 0.0
C343 C 0.49049 0.10706 0.10759 0.0
O344 O 0.48856 0.15412 0.08934 0.0
O345 O 0.47918 0.14317 0.10875 0.0
O346 O 0.50022 0.1136 0.11596 0.0
O347 O 0.48696 0.1143 0.09568 0.0
C348 C 0.51792 0.13237 0.07393 0.0
O349 O 0.50899 0.15097 0.11931 0.0
O350 O 0.52496 0.13395 0.113 0.0
In351 In 0.61409 0.75419 0.85002 0.0
O352 O 0.61176 0.77198 0.86889 0.0
O353 O 0.59154 0.76175 0.86018 0.0
C354 C 0.64366 0.74681 0.85464 0.0
C355 C 0.61386 0.77263 0.82543 0.0
C356 C 0.59958 0.72714 0.85166 0.0
O357 O 0.63511 0.75131 0.86528 0.0
O358 O 0.63739 0.74638 0.84174 0.0
O359 O 0.59863 0.73557 0.84004 0.0
O360 O 0.60792 0.73229 0.86216 0.0
C361 C 0.59738 0.77118 0.86934 0.0
O362 O 0.61347 0.7583 0.82417 0.0
O363 O 0.61439 0.77748 0.83892 0.0
In364 In 0.99384 0.13394 0.89835 0.0
O365 O 0.97024 0.13996 0.8891 0.0
O366 O 0.98929 0.14967 0.87796 0.0
C367 C 0.00309 0.10693 0.88704 0.0
C368 C 0.97802 0.1289 0.92425 0.0
C369 C 0.01994 0.14963 0.90352 0.0
O370 O 0.99871 0.11768 0.87849 0.0
O371 O 0.0026 0.10984 0.90111 0.0
O372 O 0.00694 0.15557 0.90514 0.0
O373 O 0.01969 0.13574 0.89996 0.0
C374 C 0.97499 0.14873 0.87879 0.0
O375 O 0.98612 0.14067 0.9225 0.0
O376 O 0.97811 0.11986 0.91311 0.0
In377 In 0.61315 0.24849 0.65055 0.0
O378 O 0.60642 0.23999 0.67445 0.0
O379 O 0.62726 0.23237 0.66479 0.0
C380 C 0.59625 0.27359 0.65655 0.0
C381 C 0.59945 0.22954 0.63031 0.0
C382 C 0.64002 0.25932 0.64043 0.0
O383 O 0.59124 0.26026 0.65859 0.0
O384 O 0.60988 0.27419 0.65207 0.0
O385 O 0.62942 0.25558 0.6314 0.0
O386 O 0.63698 0.25761 0.65437 0.0
C387 C 0.6182 0.23185 0.6759 0.0
O388 O 0.60966 0.22525 0.63941 0.0
O389 O 0.59653 0.24357 0.63094 0.0
In390 In 0.50168 0.86251 0.40465 0.0
O391 O 0.51592 0.85748 0.38321 0.0
O392 O 0.51783 0.84267 0.40229 0.0
C393 C 0.48877 0.8896 0.39869 0.0
C394 C 0.5192 0.87086 0.42839 0.0
C395 C 0.47709 0.84426 0.4026 0.0
O396 O 0.4992 0.88413 0.39037 0.0
O397 O 0.48498 0.88142 0.40991 0.0
O398 O 0.48439 0.8458 0.41493 0.0
O399 O 0.48224 0.85185 0.39153 0.0
C400 C 0.52211 0.84581 0.38895 0.0
O401 O 0.50847 0.86133 0.42988 0.0
O402 O 0.52075 0.8762 0.41514 0.0
In403 In 0.88805 0.75691 0.14734 0.0
O404 O 0.8879 0.77703 0.13079 0.0
O405 O 0.90736 0.76257 0.13103 0.0
C406 C 0.85961 0.74785 0.13968 0.0
C407 C 0.88669 0.77486 0.17238 0.0
C408 C 0.90577 0.73195 0.15126 0.0
O409 O 0.86968 0.75076 0.12984 0.0
O410 O 0.86379 0.74992 0.15326 0.0
O411 O 0.90845 0.74443 0.15787 0.0
O412 O 0.89408 0.73204 0.14293 0.0
C413 C 0.90106 0.77431 0.12561 0.0
O414 O 0.88239 0.76114 0.17255 0.0
O415 O 0.89175 0.77936 0.15973 0.0
In416 In 0.6052 0.99532 0.8639 0.0
O417 O 0.61948 0.97348 0.86377 0.0
O418 O 0.62082 0.9881 0.8445 0.0
C419 C 0.61465 0.00282 0.89223 0.0
C420 C 0.57874 0.97964 0.86539 0.0
C421 C 0.6023 0.0217 0.84803 0.0
O422 O 0.62377 0.00103 0.88126 0.0
O423 O 0.60088 0.00025 0.88903 0.0
O424 O 0.59369 0.01043 0.84577 0.0
O425 O 0.61209 0.01967 0.85829 0.0
C426 C 0.62497 0.97578 0.85066 0.0
O427 O 0.58951 0.97599 0.85661 0.0
O428 O 0.58114 0.99148 0.87321 0.0
In429 In 0.75632 0.84842 0.61643 0.0
O430 O 0.76171 0.823 0.6201 0.0
O431 O 0.78011 0.83837 0.61683 0.0
C432 C 0.73056 0.84359 0.60022 0.0
C433 C 0.77195 0.86929 0.60004 0.0
C434 C 0.74713 0.85715 0.64449 0.0
O435 O 0.7429 0.83681 0.59726 0.0
O436 O 0.73118 0.85244 0.61151 0.0
O437 O 0.74945 0.86648 0.6338 0.0
O438 O 0.74991 0.84344 0.64117 0.0
C439 C 0.77595 0.82482 0.61904 0.0
O440 O 0.77424 0.86728 0.61411 0.0
O441 O 0.76154 0.86112 0.59445 0.0
In442 In 0.89856 0.99857 0.36509 0.0
O443 O 0.88402 0.02005 0.36267 0.0
O444 O 0.88009 0.00183 0.34719 0.0
C445 C 0.89082 0.99121 0.39402 0.0
C446 C 0.92353 0.01667 0.36555 0.0
C447 C 0.90276 0.97263 0.34893 0.0
O448 O 0.88141 0.99705 0.38484 0.0
O449 O 0.90403 0.98944 0.38869 0.0
O450 O 0.91087 0.98432 0.34691 0.0
O451 O 0.89282 0.974 0.35918 0.0
C452 C 0.87678 0.01524 0.35118 0.0
O453 O 0.92168 0.00579 0.37474 0.0
O454 O 0.913 0.01818 0.35592 0.0
In455 In 0.74648 0.14331 0.11294 0.0
O456 O 0.73641 0.16656 0.10612 0.0
O457 O 0.73219 0.15822 0.12841 0.0
C458 C 0.77143 0.14669 0.09532 0.0
C459 C 0.72661 0.12409 0.09901 0.0
C460 C 0.75935 0.1348 0.13943 0.0
O461 O 0.7603 0.15581 0.09459 0.0
O462 O 0.76997 0.13615 0.10498 0.0
O463 O 0.75118 0.1258 0.13169 0.0
O464 O 0.76096 0.14792 0.13375 0.0
C465 C 0.72996 0.16864 0.11881 0.0
O466 O 0.7395 0.12726 0.09362 0.0
O467 O 0.72388 0.13018 0.1117 0.0
In468 In 0.608 0.00934 0.63619 0.0
O469 O 0.62785 0.02595 0.64042 0.0
O470 O 0.61304 0.02031 0.65883 0.0
C471 C 0.61332 0.99604 0.60909 0.0
C472 C 0.58526 0.02873 0.62944 0.0
C473 C 0.60933 0.98421 0.65359 0.0
O474 O 0.62357 0.00343 0.61604 0.0
O475 O 0.60057 0.99567 0.61572 0.0
O476 O 0.59699 0.99148 0.65179 0.0
O477 O 0.62061 0.98949 0.64638 0.0
C478 C 0.62454 0.02766 0.65436 0.0
O479 O 0.58301 0.01689 0.63736 0.0
O480 O 0.59882 0.03061 0.62504 0.0
In481 In 0.7489 0.84729 0.38611 0.0
O482 O 0.74212 0.82209 0.38484 0.0
O483 O 0.72848 0.83848 0.37322 0.0
C484 C 0.77478 0.8474 0.40262 0.0
C485 C 0.72937 0.8608 0.40563 0.0
C486 C 0.76022 0.85605 0.35904 0.0
O487 O 0.76697 0.83542 0.40084 0.0
O488 O 0.76955 0.85905 0.39605 0.0
O489 O 0.75252 0.86496 0.36736 0.0
O490 O 0.76208 0.84281 0.36439 0.0
C491 C 0.73051 0.82468 0.37667 0.0
O492 O 0.73327 0.86712 0.39328 0.0
O493 O 0.73551 0.84804 0.40804 0.0
In494 In 0.89972 0.99836 0.13661 0.0
O495 O 0.92532 0.9935 0.1334 0.0
O496 O 0.91034 0.97481 0.13677 0.0
C497 C 0.90148 0.02533 0.15142 0.0
C498 C 0.88028 0.98219 0.15409 0.0
C499 C 0.89161 0.00568 0.10782 0.0
O500 O 0.91138 0.01501 0.15311 0.0
O501 O 0.89099 0.02208 0.14218 0.0
O502 O 0.88206 0.00178 0.11783 0.0
O503 O 0.90528 0.00555 0.11223 0.0
C504 C 0.92382 0.97924 0.13464 0.0
O505 O 0.8807 0.98086 0.13976 0.0
O506 O 0.88949 0.99182 0.15951 0.0
In507 In 0.75584 0.14513 0.88892 0.0
O508 O 0.77378 0.1262 0.88906 0.0
O509 O 0.76114 0.13015 0.90934 0.0
C510 C 0.74668 0.13918 0.86014 0.0
C511 C 0.77558 0.16877 0.88807 0.0
C512 C 0.73041 0.14909 0.9059 0.0
O513 O 0.74874 0.12881 0.86988 0.0
O514 O 0.74959 0.15245 0.86482 0.0
O515 O 0.74277 0.15581 0.90886 0.0
O516 O 0.73083 0.14068 0.89426 0.0
C517 C 0.77154 0.12266 0.90283 0.0
O518 O 0.76142 0.17058 0.88633 0.0
O519 O 0.77965 0.1552 0.89029 0.0
In520 In 0.86798 0.60185 0.99077 0.0
O521 O 0.86091 0.57803 0.9824 0.0
O522 O 0.88206 0.58713 0.97494 0.0
C523 C 0.84809 0.59816 0.014 0.0
C524 C 0.85665 0.62328 0.97152 0.0
C525 C 0.89462 0.60843 0.00447 0.0
O526 O 0.84476 0.5947 0.00043 0.0
O527 O 0.86148 0.60302 0.01581 0.0
O528 O 0.88701 0.61849 0.9975 0.0
O529 O 0.8888 0.59529 0.00435 0.0
C530 C 0.87279 0.57618 0.97448 0.0
O531 O 0.85344 0.62294 0.9855 0.0
O532 O 0.86608 0.61329 0.96742 0.0
In533 In 0.36495 0.89225 0.00626 0.0
O534 O 0.36155 0.91724 0.01343 0.0
O535 O 0.37566 0.90294 0.027 0.0
C536 C 0.34853 0.89018 0.98051 0.0
C537 C 0.34785 0.87466 0.02476 0.0
C538 C 0.39271 0.88727 0.99419 0.0
O539 O 0.34933 0.90248 0.988 0.0
O540 O 0.35616 0.87925 0.98593 0.0
O541 O 0.3858 0.87725 0.00189 0.0
O542 O 0.38564 0.89971 0.99271 0.0
C543 C 0.36994 0.91597 0.02508 0.0
O544 O 0.36212 0.87298 0.02377 0.0
O545 O 0.3424 0.88504 0.01647 0.0
In546 In 0.85281 0.61454 0.75222 0.0
O547 O 0.87176 0.61092 0.76978 0.0
O548 O 0.86267 0.59147 0.75853 0.0
C549 C 0.8619 0.6428 0.74403 0.0
C550 C 0.82901 0.61801 0.77148 0.0
C551 C 0.84981 0.59903 0.72578 0.0
O552 O 0.87116 0.63257 0.74809 0.0
O553 O 0.84808 0.63888 0.74448 0.0
O554 O 0.84061 0.59737 0.73672 0.0
O555 O 0.86019 0.60868 0.72811 0.0
C556 C 0.8719 0.59659 0.76828 0.0
O557 O 0.82751 0.61938 0.75724 0.0
O558 O 0.84233 0.61495 0.77584 0.0
In559 In 0.13325 0.1057 0.50336 0.0
O560 O 0.13567 0.0809 0.51156 0.0
O561 O 0.12379 0.09691 0.52543 0.0
C562 C 0.14851 0.10798 0.47692 0.0
C563 C 0.15068 0.1242 0.52043 0.0
C564 C 0.105 0.10848 0.49204 0.0
O565 O 0.14966 0.09624 0.48527 0.0
O566 O 0.13964 0.11814 0.48191 0.0
O567 O 0.11163 0.11939 0.49876 0.0
O568 O 0.11262 0.09629 0.49121 0.0
C569 C 0.12832 0.08339 0.52374 0.0
O570 O 0.13651 0.12639 0.51897 0.0
O571 O 0.15587 0.11286 0.51327 0.0
In572 In 0.1458 0.88619 0.75268 0.0
O573 O 0.12725 0.8878 0.77094 0.0
O574 O 0.13359 0.90801 0.75907 0.0
C575 C 0.14135 0.85656 0.74569 0.0
C576 C 0.17096 0.88704 0.77043 0.0
C577 C 0.14369 0.90091 0.7258 0.0
O578 O 0.13124 0.86449 0.75216 0.0
O579 O 0.15367 0.86349 0.74313 0.0
O580 O 0.15407 0.90386 0.73532 0.0
O581 O 0.13468 0.89043 0.72977 0.0
C582 C 0.12538 0.90199 0.76924 0.0
O583 O 0.17179 0.88551 0.75617 0.0
O584 O 0.15763 0.88816 0.77557 0.0
In585 In 0.63098 0.39896 0.4994 0.0
O586 O 0.63301 0.42389 0.49164 0.0
O587 O 0.61907 0.40872 0.47886 0.0
C588 C 0.64855 0.39707 0.52433 0.0
C589 C 0.64902 0.38234 0.48101 0.0
C590 C 0.60389 0.39334 0.51258 0.0
O591 O 0.6463 0.40965 0.51761 0.0
O592 O 0.64165 0.38579 0.51864 0.0
O593 O 0.60993 0.38406 0.50335 0.0
O594 O 0.61148 0.40532 0.51499 0.0
C595 C 0.62434 0.422 0.48029 0.0
O596 O 0.63516 0.3789 0.48307 0.0
O597 O 0.6535 0.39401 0.48806 0.0
In598 In 0.85223 0.38465 0.74797 0.0
O599 O 0.86892 0.38674 0.72798 0.0
O600 O 0.86609 0.40586 0.74257 0.0
C601 C 0.86175 0.35614 0.75488 0.0
C602 C 0.82666 0.383 0.73094 0.0
C603 C 0.84786 0.40012 0.7743 0.0
O604 O 0.87065 0.36742 0.75468 0.0
O605 O 0.84822 0.35917 0.75116 0.0
O606 O 0.84021 0.40279 0.76243 0.0
O607 O 0.85739 0.38948 0.77295 0.0
C608 C 0.87245 0.40039 0.7309 0.0
O609 O 0.82713 0.37822 0.7445 0.0
O610 O 0.83897 0.38861 0.72611 0.0
In611 In 0.65216 0.61396 0.24249 0.0
O612 O 0.63242 0.60803 0.2263 0.0
O613 O 0.64967 0.59146 0.23042 0.0
C614 C 0.64609 0.64173 0.25371 0.0
C615 C 0.67569 0.62123 0.22433 0.0
C616 C 0.64905 0.59837 0.26868 0.0
O617 O 0.63652 0.63456 0.24564 0.0
O618 O 0.6586 0.63492 0.25586 0.0
O619 O 0.66168 0.5989 0.26172 0.0
O620 O 0.63837 0.6057 0.26244 0.0
C621 C 0.63747 0.59479 0.2236 0.0
O622 O 0.67747 0.61294 0.23601 0.0
O623 O 0.66222 0.62571 0.22204 0.0
In624 In 0.50324 0.63199 0.89363 0.0
O625 O 0.51756 0.63643 0.87208 0.0
O626 O 0.52362 0.6477 0.89269 0.0
C627 C 0.48918 0.60534 0.88828 0.0
C628 C 0.51822 0.62434 0.91914 0.0
C629 C 0.48052 0.65211 0.88881 0.0
O630 O 0.50017 0.60991 0.88016 0.0
O631 O 0.48549 0.61414 0.89905 0.0
O632 O 0.48609 0.6501 0.90194 0.0
O633 O 0.48648 0.64414 0.87848 0.0
C634 C 0.52648 0.6455 0.87881 0.0
O635 O 0.50871 0.6352 0.91891 0.0
O636 O 0.51972 0.61726 0.90669 0.0
In637 In 0.61501 0.24867 0.14825 0.0
O638 O 0.61565 0.25597 0.17332 0.0
O639 O 0.62671 0.26991 0.15675 0.0
C640 C 0.59902 0.22239 0.14875 0.0
C641 C 0.59588 0.26778 0.13365 0.0
C642 C 0.64273 0.2381 0.1406 0.0
O643 O 0.60046 0.23061 0.16048 0.0
O644 O 0.60566 0.22741 0.13705 0.0
O645 O 0.63381 0.24385 0.13085 0.0
O646 O 0.63764 0.23775 0.15405 0.0
C647 C 0.62324 0.26794 0.17058 0.0
O648 O 0.60835 0.2636 0.12776 0.0
O649 O 0.59309 0.26205 0.14652 0.0
In650 In 0.99029 0.36166 0.39504 0.0
O651 O 0.98176 0.36124 0.41972 0.0
O652 O 0.96722 0.37028 0.40253 0.0
C653 C 0.01738 0.3475 0.39781 0.0
C654 C 0.97495 0.34193 0.3771 0.0
C655 C 0.00011 0.39016 0.38943 0.0
O656 O 0.00732 0.34679 0.4081 0.0
O657 O 0.01379 0.35544 0.38638 0.0
O658 O 0.996 0.3813 0.37883 0.0
O659 O 0.99915 0.38463 0.40266 0.0
C660 C 0.96909 0.3673 0.41647 0.0
O661 O 0.97574 0.35597 0.37398 0.0
O662 O 0.98197 0.33802 0.389 0.0
In663 In 0.88989 0.74422 0.64775 0.0
O664 O 0.88311 0.74028 0.67274 0.0
O665 O 0.89441 0.72243 0.66098 0.0
C666 C 0.90806 0.76892 0.65155 0.0
C667 C 0.90204 0.72615 0.62602 0.0
C668 C 0.86175 0.75332 0.6391 0.0
O669 O 0.91084 0.75628 0.65779 0.0
O670 O 0.89599 0.76917 0.64382 0.0
O671 O 0.8724 0.75101 0.62973 0.0
O672 O 0.86518 0.75068 0.6528 0.0
C673 C 0.88832 0.72688 0.67319 0.0
O674 O 0.88917 0.72353 0.63191 0.0
O675 O 0.90851 0.73807 0.63079 0.0
In676 In 0.49995 0.36387 0.60587 0.0
O677 O 0.51222 0.35848 0.62852 0.0
O678 O 0.52129 0.34948 0.60803 0.0
C679 C 0.48718 0.39109 0.6118 0.0
C680 C 0.51505 0.37086 0.58014 0.0
C681 C 0.47602 0.34459 0.60791 0.0
O682 O 0.49832 0.38606 0.61944 0.0
O683 O 0.48265 0.38242 0.60125 0.0
O684 O 0.48255 0.34726 0.59537 0.0
O685 O 0.48168 0.35141 0.61917 0.0
C686 C 0.52244 0.35054 0.62226 0.0
O687 O 0.50832 0.35823 0.58185 0.0
O688 O 0.51388 0.37995 0.59122 0.0
In689 In 0.88517 0.25428 0.85156 0.0
O690 O 0.89946 0.26108 0.87226 0.0
O691 O 0.88579 0.27815 0.86207 0.0
C692 C 0.85961 0.24098 0.86235 0.0
C693 C 0.88086 0.2702 0.82553 0.0
C694 C 0.90488 0.23108 0.84648 0.0
O695 O 0.87008 0.24565 0.87105 0.0
O696 O 0.86207 0.24307 0.84835 0.0
O697 O 0.89062 0.22934 0.84616 0.0
O698 O 0.90917 0.2446 0.84876 0.0
C699 C 0.89542 0.27485 0.87219 0.0
O700 O 0.89323 0.26341 0.82835 0.0
O701 O 0.87081 0.26875 0.83567 0.0
In702 In 0.99632 0.63456 0.10392 0.0
O703 O 0.97929 0.63848 0.12348 0.0
O704 O 0.98984 0.65774 0.11346 0.0
C705 C 0.00616 0.60637 0.11101 0.0
C706 C 0.97671 0.63004 0.0807 0.0
C707 C 0.02308 0.64933 0.10114 0.0
O708 O 0.00142 0.61561 0.121 0.0
O709 O 0.00584 0.61136 0.09752 0.0
O710 O 0.01184 0.65221 0.09262 0.0
O711 O 0.02087 0.6389 0.11078 0.0
C712 C 0.98052 0.6528 0.12316 0.0
O713 O 0.98962 0.63603 0.07865 0.0
O714 O 0.97385 0.62642 0.09429 0.0
In715 In 0.61413 0.74669 0.34737 0.0
O716 O 0.60756 0.73276 0.3686 0.0
O717 O 0.59119 0.73574 0.35096 0.0
C718 C 0.64256 0.75675 0.35245 0.0
C719 C 0.62039 0.72688 0.32492 0.0
C720 C 0.59942 0.77353 0.34884 0.0
O721 O 0.63514 0.7495 0.36249 0.0
O722 O 0.63564 0.75871 0.33997 0.0
O723 O 0.5986 0.76515 0.33713 0.0
O724 O 0.60778 0.76844 0.35936 0.0
C725 C 0.5942 0.73014 0.36384 0.0
O726 O 0.61342 0.73925 0.32234 0.0
O727 O 0.62403 0.72469 0.33866 0.0
In728 In 0.90249 0.50353 0.63845 0.0
O729 O 0.88636 0.52403 0.63817 0.0
O730 O 0.8864 0.50975 0.65776 0.0
C731 C 0.89558 0.49562 0.60949 0.0
C732 C 0.92794 0.52096 0.6377 0.0
C733 C 0.90455 0.47785 0.65546 0.0
O734 O 0.88548 0.49916 0.61909 0.0
O735 O 0.90903 0.49635 0.61443 0.0
O736 O 0.91267 0.48944 0.65801 0.0
O737 O 0.89572 0.47916 0.64423 0.0
C738 C 0.88116 0.52152 0.65137 0.0
O739 O 0.92759 0.50766 0.63228 0.0
O740 O 0.91568 0.52523 0.64381 0.0
In741 In 0.74933 0.6553 0.88419 0.0
O742 O 0.73255 0.63613 0.89034 0.0
O743 O 0.73662 0.65361 0.90657 0.0
C744 C 0.75999 0.64621 0.85695 0.0
C745 C 0.73171 0.67891 0.87572 0.0
C746 C 0.77574 0.65425 0.89988 0.0
O747 O 0.75295 0.63729 0.86582 0.0
O748 O 0.7615 0.65968 0.86179 0.0
O749 O 0.76845 0.66656 0.89817 0.0
O750 O 0.76971 0.64277 0.89373 0.0
C751 C 0.72953 0.64155 0.90333 0.0
O752 O 0.74308 0.68068 0.88441 0.0
O753 O 0.72949 0.66541 0.8713 0.0
In754 In 0.59388 0.4933 0.13047 0.0
O755 O 0.61284 0.47576 0.13506 0.0
O756 O 0.59519 0.4787 0.15148 0.0
C757 C 0.59975 0.50585 0.10324 0.0
C758 C 0.56896 0.47731 0.12287 0.0
C759 C 0.59958 0.51788 0.14788 0.0
O760 O 0.60895 0.49662 0.10946 0.0
O761 O 0.58777 0.50855 0.11076 0.0
O762 O 0.58619 0.51272 0.14633 0.0
O763 O 0.6097 0.51072 0.14062 0.0
C764 C 0.60726 0.47183 0.14777 0.0
O765 O 0.5684 0.488 0.13256 0.0
O766 O 0.58195 0.47495 0.11712 0.0
In767 In 0.75163 0.35332 0.38757 0.0
O768 O 0.75686 0.32797 0.38344 0.0
O769 O 0.7744 0.34179 0.39248 0.0
C770 C 0.72691 0.35108 0.40575 0.0
C771 C 0.76783 0.37632 0.39993 0.0
C772 C 0.74219 0.35782 0.35856 0.0
O773 O 0.73898 0.34363 0.40821 0.0
O774 O 0.72733 0.35953 0.39413 0.0
O775 O 0.74942 0.3679 0.36583 0.0
O776 O 0.74008 0.34563 0.36581 0.0
C777 C 0.77046 0.32878 0.38797 0.0
O778 O 0.7556 0.37141 0.40571 0.0
O779 O 0.7715 0.37013 0.38744 0.0
In780 In 0.90009 0.49443 0.8618 0.0
O781 O 0.92543 0.49052 0.86719 0.0
O782 O 0.91266 0.47208 0.85815 0.0
C783 C 0.90393 0.51935 0.844 0.0
C784 C 0.87822 0.47704 0.84898 0.0
C785 C 0.89208 0.50319 0.89023 0.0
O786 O 0.91 0.50669 0.84096 0.0
O787 O 0.89636 0.51953 0.85619 0.0
O788 O 0.88249 0.50165 0.87963 0.0
O789 O 0.90559 0.49997 0.88657 0.0
C790 C 0.92532 0.47675 0.86303 0.0
O791 O 0.88347 0.47432 0.8621 0.0
O792 O 0.88368 0.48872 0.84263 0.0
In793 In 0.75741 0.65087 0.11109 0.0
O794 O 0.77366 0.63093 0.10604 0.0
O795 O 0.76686 0.64528 0.08776 0.0
C796 C 0.74726 0.64525 0.13943 0.0
C797 C 0.77619 0.67452 0.11638 0.0
C798 C 0.73019 0.64929 0.09708 0.0
O799 O 0.75408 0.63521 0.13165 0.0
O800 O 0.74582 0.65802 0.13296 0.0
O801 O 0.73824 0.66125 0.09659 0.0
O802 O 0.73586 0.63848 0.10467 0.0
C803 C 0.77449 0.63388 0.09197 0.0
O804 O 0.7644 0.6759 0.10821 0.0
O805 O 0.77842 0.66133 0.12164 0.0
In806 In 0.59914 0.50341 0.36483 0.0
O807 O 0.61924 0.51919 0.35898 0.0
O808 O 0.60123 0.51646 0.34291 0.0
C809 C 0.60417 0.49183 0.3926 0.0
C810 C 0.57645 0.52253 0.37228 0.0
C811 C 0.60266 0.47749 0.34884 0.0
O812 O 0.61416 0.49969 0.38574 0.0
O813 O 0.59182 0.48996 0.38542 0.0
O814 O 0.58979 0.48398 0.34984 0.0
O815 O 0.61332 0.48406 0.35591 0.0
C816 C 0.61374 0.52277 0.34612 0.0
O817 O 0.57423 0.5114 0.36333 0.0
O818 O 0.58986 0.52367 0.37739 0.0
In819 In 0.74592 0.35343 0.61906 0.0
O820 O 0.74045 0.32781 0.61952 0.0
O821 O 0.72245 0.34374 0.62293 0.0
C822 C 0.77304 0.35472 0.6047 0.0
C823 C 0.72944 0.37022 0.5994 0.0
C824 C 0.75381 0.36023 0.64792 0.0
O825 O 0.76448 0.34317 0.6037 0.0
O826 O 0.76805 0.36519 0.61318 0.0
O827 O 0.74815 0.36998 0.63897 0.0
O828 O 0.75506 0.34699 0.64242 0.0
C829 C 0.72636 0.32999 0.62167 0.0
O830 O 0.72955 0.37307 0.61353 0.0
O831 O 0.73787 0.35929 0.59538 0.0
In832 In 0.63555 0.89442 0.50864 0.0
O833 O 0.63921 0.91945 0.51538 0.0
O834 O 0.62652 0.90509 0.53024 0.0
C835 C 0.65106 0.89246 0.48226 0.0
C836 C 0.65291 0.87609 0.52618 0.0
C837 C 0.60715 0.89024 0.49782 0.0
O838 O 0.65153 0.90431 0.49046 0.0
O839 O 0.64256 0.88198 0.48725 0.0
O840 O 0.61453 0.87966 0.50423 0.0
O841 O 0.61406 0.90282 0.49703 0.0
C842 C 0.63185 0.91819 0.52771 0.0
O843 O 0.63858 0.87475 0.52571 0.0
O844 O 0.65827 0.88653 0.51792 0.0
In845 In 0.13835 0.597 0.49473 0.0
O846 O 0.14532 0.58128 0.47531 0.0
O847 O 0.12751 0.57376 0.48983 0.0
C848 C 0.15824 0.59015 0.51741 0.0
C849 C 0.14773 0.61961 0.47603 0.0
C850 C 0.11197 0.60808 0.50613 0.0
O851 O 0.14434 0.59275 0.51982 0.0
O852 O 0.16193 0.5903 0.50356 0.0
O853 O 0.11263 0.59582 0.49865 0.0
O854 O 0.12454 0.61494 0.50748 0.0
C855 C 0.13564 0.5711 0.47826 0.0
O856 O 0.15333 0.61739 0.48906 0.0
O857 O 0.13688 0.61081 0.47264 0.0
In858 In 0.65006 0.88393 0.74756 0.0
O859 O 0.63099 0.89129 0.73121 0.0
O860 O 0.64591 0.90822 0.74003 0.0
C861 C 0.63902 0.85619 0.75479 0.0
C862 C 0.67335 0.87837 0.7283 0.0
C863 C 0.65267 0.89795 0.77485 0.0
O864 O 0.63049 0.86717 0.75108 0.0
O865 O 0.65309 0.85914 0.75453 0.0
O866 O 0.66315 0.89838 0.76499 0.0
O867 O 0.64121 0.89017 0.77107 0.0
C868 C 0.63477 0.90519 0.73148 0.0
O869 O 0.67534 0.87933 0.74253 0.0
O870 O 0.65973 0.8799 0.724 0.0
In871 In 0.36704 0.38962 0.9893 0.0
O872 O 0.35776 0.41294 0.98172 0.0
O873 O 0.38009 0.40657 0.97492 0.0
C874 C 0.35331 0.3897 0.01682 0.0
C875 C 0.35148 0.37199 0.96919 0.0
C876 C 0.39511 0.38125 0.99837 0.0
O877 O 0.35144 0.40043 0.00739 0.0
O878 O 0.36206 0.37922 0.01236 0.0
O879 O 0.38613 0.37207 0.99182 0.0
O880 O 0.38995 0.39457 0.0001 0.0
C881 C 0.36965 0.4164 0.97438 0.0
O882 O 0.36445 0.37742 0.96629 0.0
O883 O 0.34663 0.37502 0.98232 0.0
In884 In 0.35065 0.61544 0.74723 0.0
O885 O 0.33816 0.60939 0.72534 0.0
O886 O 0.32569 0.62146 0.74217 0.0
C887 C 0.34738 0.59993 0.77374 0.0
C888 C 0.37172 0.60084 0.73024 0.0
C889 C 0.35801 0.64473 0.75345 0.0
O890 O 0.33878 0.59779 0.76243 0.0
O891 O 0.35734 0.61007 0.77177 0.0
O892 O 0.36797 0.63449 0.75175 0.0
O893 O 0.34449 0.6402 0.75185 0.0
C894 C 0.32574 0.61555 0.72907 0.0
O895 O 0.36752 0.61432 0.7274 0.0
O896 O 0.3656 0.59496 0.74185 0.0
In897 In 0.86437 0.09832 0.00268 0.0
O898 O 0.86101 0.08646 0.02541 0.0
O899 O 0.87096 0.07347 0.00758 0.0
C900 C 0.84839 0.09245 0.97697 0.0
C901 C 0.84873 0.11932 0.01884 0.0
C902 C 0.89268 0.1078 0.99499 0.0
O903 O 0.84576 0.08573 0.98939 0.0
O904 O 0.85927 0.1018 0.97746 0.0
O905 O 0.88141 0.11672 0.99547 0.0
O906 O 0.88972 0.09425 0.9987 0.0
C907 C 0.86653 0.07387 0.02126 0.0
O908 O 0.86238 0.11587 0.02185 0.0
O909 O 0.84321 0.11252 0.00745 0.0
In910 In 0.64804 0.11903 0.75819 0.0
O911 O 0.67241 0.11313 0.76576 0.0
O912 O 0.66127 0.13183 0.77632 0.0
C913 C 0.65411 0.10198 0.73331 0.0
C914 C 0.62746 0.10426 0.77601 0.0
C915 C 0.63931 0.14623 0.74704 0.0
O916 O 0.64727 0.11461 0.7326 0.0
O917 O 0.65831 0.09816 0.74653 0.0
O918 O 0.62974 0.1362 0.75098 0.0
O919 O 0.65308 0.14243 0.74864 0.0
C920 C 0.67309 0.12373 0.77546 0.0
O921 O 0.63001 0.10064 0.76238 0.0
O922 O 0.63483 0.1157 0.78051 0.0
In923 In 0.8517 0.8865 0.2533 0.0
O924 O 0.86721 0.88599 0.27421 0.0
O925 O 0.86934 0.9046 0.25882 0.0
C926 C 0.86079 0.85865 0.2439 0.0
C927 C 0.82672 0.8842 0.27129 0.0
C928 C 0.84739 0.90474 0.22873 0.0
O929 O 0.87003 0.8686 0.24862 0.0
O930 O 0.84699 0.86265 0.24421 0.0
O931 O 0.8408 0.90704 0.24128 0.0
O932 O 0.8557 0.89306 0.22848 0.0
C933 C 0.87364 0.89851 0.27112 0.0
O934 O 0.82825 0.87655 0.25922 0.0
O935 O 0.83756 0.89317 0.27404 0.0
In936 In 0.49392 0.36097 0.097 0.0
O937 O 0.49142 0.36458 0.07121 0.0
O938 O 0.47313 0.35417 0.08312 0.0
C939 C 0.52042 0.34519 0.09805 0.0
C940 C 0.47522 0.34815 0.11772 0.0
C941 C 0.50011 0.39065 0.10256 0.0
O942 O 0.51009 0.34218 0.08852 0.0
O943 O 0.51752 0.35633 0.10661 0.0
O944 O 0.49692 0.38135 0.11304 0.0
O945 O 0.49984 0.38505 0.08934 0.0
C946 C 0.4782 0.35896 0.07058 0.0
O947 O 0.47272 0.36122 0.11219 0.0
O948 O 0.48724 0.34181 0.11299 0.0
In949 In 0.38933 0.75311 0.83943 0.0
O950 O 0.39096 0.74638 0.81419 0.0
O951 O 0.37496 0.73491 0.8284 0.0
C952 C 0.40649 0.77821 0.84292 0.0
C953 C 0.40748 0.73273 0.85347 0.0
C954 C 0.36242 0.76592 0.84609 0.0
O955 O 0.40462 0.77207 0.82999 0.0
O956 O 0.39978 0.77164 0.85382 0.0
O957 O 0.36776 0.75506 0.85395 0.0
O958 O 0.37061 0.77009 0.83501 0.0
C959 C 0.38079 0.73623 0.81533 0.0
O960 O 0.39505 0.73705 0.85941 0.0
O961 O 0.4105 0.73874 0.84078 0.0
In962 In 0.00314 0.63494 0.59804 0.0
O963 O 0.01065 0.63189 0.57313 0.0
O964 O 0.02732 0.62981 0.59056 0.0
C965 C 0.97606 0.64912 0.59448 0.0
C966 C 0.01726 0.65569 0.61578 0.0
C967 C 0.99485 0.60687 0.60739 0.0
O968 O 0.98659 0.65021 0.58472 0.0
O969 O 0.97909 0.64062 0.60564 0.0
O970 O -7e-05 0.61687 0.6164 0.0
O971 O 0.99421 0.61095 0.59361 0.0
C972 C 0.02447 0.62962 0.57649 0.0
O973 O 0.01661 0.64175 0.61932 0.0
O974 O 0.01075 0.65907 0.60343 0.0
In975 In 0.11098 0.2562 0.34951 0.0
O976 O 0.11336 0.25892 0.32361 0.0
O977 O 0.10637 0.27814 0.33652 0.0
C978 C 0.09533 0.22968 0.35036 0.0
C979 C 0.09689 0.27406 0.37017 0.0
C980 C 0.14068 0.24946 0.35442 0.0
O981 O 0.09248 0.23993 0.34069 0.0
O982 O 0.10625 0.23269 0.35919 0.0
O983 O 0.13173 0.25289 0.36513 0.0
O984 O 0.13473 0.2498 0.34137 0.0
C985 C 0.10966 0.27281 0.32361 0.0
O986 O 0.11037 0.27664 0.36576 0.0
O987 O 0.0908 0.26237 0.36442 0.0
In988 In 0.49465 0.63774 0.40447 0.0
O989 O 0.48693 0.64453 0.38044 0.0
O990 O 0.46998 0.64149 0.39741 0.0
C991 C 0.50959 0.61284 0.39413 0.0
C992 C 0.48194 0.63337 0.43227 0.0
C993 C 0.51449 0.66124 0.40609 0.0
O994 O 0.49522 0.61355 0.39429 0.0
O995 O 0.5162 0.62462 0.39897 0.0
O996 O 0.517 0.64862 0.41252 0.0
O997 O 0.50182 0.66212 0.39939 0.0
C998 C 0.47298 0.64522 0.38387 0.0
O999 O 0.48341 0.64637 0.42636 0.0
O1000 O 0.48746 0.62266 0.42447 0.0
In1001 In 0.11122 0.74614 0.15444 0.0
O1002 O 0.10301 0.73627 0.13145 0.0
O1003 O 0.10115 0.72268 0.15134 0.0
C1004 C 0.13641 0.75883 0.14234 0.0
C1005 C 0.12146 0.73063 0.17881 0.0
C1006 C 0.0903 0.76846 0.15932 0.0
O1007 O 0.12541 0.75446 0.13413 0.0
O1008 O 0.13464 0.75674 0.15645 0.0
O1009 O 0.10441 0.771 0.15883 0.0
O1010 O 0.08678 0.75462 0.15798 0.0
C1011 C 0.09888 0.72375 0.13723 0.0
O1012 O 0.11032 0.73974 0.17982 0.0
O1013 O 0.12745 0.72983 0.16577 0.0
In1014 In 0.99909 0.36346 0.90265 0.0
O1015 O 0.0151 0.35601 0.88338 0.0
O1016 O 0.0048 0.33891 0.89716 0.0
C1017 C 0.99314 0.39186 0.89244 0.0
C1018 C 0.01858 0.36746 0.92612 0.0
C1019 C 0.97116 0.35063 0.90427 0.0
O1020 O 0.99752 0.38129 0.88371 0.0
O1021 O 0.99217 0.38818 0.9063 0.0
O1022 O 0.98076 0.34935 0.91493 0.0
O1023 O 0.97555 0.35866 0.89321 0.0
C1024 C 0.01362 0.34196 0.88622 0.0
O1025 O 0.00431 0.368 0.92794 0.0
O1026 O 0.02285 0.36502 0.91263 0.0
In1027 In 0.38188 0.24971 0.65504 0.0
O1028 O 0.38428 0.27311 0.64367 0.0
O1029 O 0.40017 0.25604 0.6376 0.0
C1030 C 0.35365 0.2413 0.6467 0.0
C1031 C 0.38002 0.26453 0.68198 0.0
C1032 C 0.39652 0.22259 0.65535 0.0
O1033 O 0.36232 0.24877 0.63793 0.0
O1034 O 0.35921 0.23829 0.65963 0.0
O1035 O 0.39945 0.2329 0.66496 0.0
O1036 O 0.38614 0.22592 0.64603 0.0
C1037 C 0.39594 0.26965 0.63605 0.0
O1038 O 0.39253 0.25971 0.67676 0.0
O1039 O 0.36859 0.2614 0.67389 0.0
In1040 In 0.09733 0.49057 0.36534 0.0
O1041 O 0.1184 0.47595 0.35992 0.0
O1042 O 0.09682 0.46908 0.3512 0.0
C1043 C 0.10663 0.50392 0.39144 0.0
C1044 C 0.07117 0.47656 0.37302 0.0
C1045 C 0.10047 0.51215 0.34353 0.0
O1046 O 0.11378 0.49291 0.38555 0.0
O1047 O 0.09504 0.50817 0.38411 0.0
O1048 O 0.08885 0.51168 0.35199 0.0
O1049 O 0.11019 0.50196 0.34616 0.0
C1050 C 0.11093 0.46648 0.35202 0.0
O1051 O 0.07217 0.485 0.36138 0.0
O1052 O 0.08321 0.47559 0.38085 0.0
In1053 In 0.2548 0.34638 0.11027 0.0
O1054 O 0.25938 0.32079 0.10771 0.0
O1055 O 0.26967 0.33273 0.12619 0.0
C1056 C 0.23323 0.35236 0.0893 0.0
C1057 C 0.27901 0.35861 0.09596 0.0
C1058 C 0.23998 0.35366 0.13606 0.0
O1059 O 0.23609 0.33889 0.09358 0.0
O1060 O 0.24116 0.36254 0.09564 0.0
O1061 O 0.25227 0.36021 0.1323 0.0
O1062 O 0.2353 0.34372 0.12677 0.0
C1063 C 0.26809 0.32026 0.1192 0.0
O1064 O 0.27195 0.36584 0.10625 0.0
O1065 O 0.27388 0.34549 0.09316 0.0
In1066 In 0.39226 0.50237 0.86396 0.0
O1067 O 0.37865 0.52474 0.86348 0.0
O1068 O 0.3755 0.50916 0.84533 0.0
C1069 C 0.38396 0.49186 0.89157 0.0
C1070 C 0.41778 0.51921 0.86727 0.0
C1071 C 0.39717 0.47665 0.84761 0.0
O1072 O 0.3742 0.49631 0.88194 0.0
O1073 O 0.39763 0.49283 0.88723 0.0
O1074 O 0.40601 0.48795 0.84697 0.0
O1075 O 0.3861 0.47827 0.85659 0.0
C1076 C 0.37229 0.52198 0.85089 0.0
O1077 O 0.41173 0.51695 0.85442 0.0
O1078 O 0.41108 0.51285 0.87826 0.0
In1079 In 0.2463 0.64548 0.61404 0.0
O1080 O 0.23757 0.67019 0.61431 0.0
O1081 O 0.22309 0.65268 0.62272 0.0
C1082 C 0.27309 0.64862 0.59925 0.0
C1083 C 0.23111 0.62723 0.59448 0.0
C1084 C 0.25662 0.63811 0.642 0.0
O1085 O 0.26304 0.65895 0.59907 0.0
O1086 O 0.26964 0.63702 0.607 0.0
O1087 O 0.25135 0.62832 0.63287 0.0
O1088 O 0.25649 0.65164 0.63709 0.0
C1089 C 0.22482 0.66668 0.62003 0.0
O1090 O 0.23216 0.6242 0.60851 0.0
O1091 O 0.23774 0.63931 0.59044 0.0
In1092 In 0.10275 0.50474 0.12972 0.0
O1093 O 0.11918 0.51051 0.1489 0.0
O1094 O 0.11617 0.52701 0.1314 0.0
C1095 C 0.11069 0.50003 0.10032 0.0
C1096 C 0.07595 0.51996 0.13113 0.0
C1097 C 0.1029 0.47721 0.14374 0.0
O1098 O 0.12024 0.50375 0.1104 0.0
O1099 O 0.09712 0.49923 0.10497 0.0
O1100 O 0.09339 0.48744 0.14712 0.0
O1101 O 0.11193 0.48079 0.1332 0.0
C1102 C 0.12247 0.52358 0.14389 0.0
O1103 O 0.08724 0.52315 0.13938 0.0
O1104 O 0.07795 0.50872 0.12239 0.0
In1105 In 0.24422 0.35061 0.87714 0.0
O1106 O 0.23604 0.32595 0.87916 0.0
O1107 O 0.22501 0.34047 0.86316 0.0
C1108 C 0.26998 0.35033 0.89394 0.0
C1109 C 0.22427 0.36579 0.895 0.0
C1110 C 0.25638 0.35839 0.85011 0.0
O1111 O 0.26245 0.33835 0.89134 0.0
O1112 O 0.26451 0.36226 0.8881 0.0
O1113 O 0.24876 0.36768 0.85808 0.0
O1114 O 0.25766 0.34519 0.85573 0.0
C1115 C 0.22568 0.32748 0.86927 0.0
O1116 O 0.22875 0.37117 0.88242 0.0
O1117 O 0.23007 0.35313 0.89849 0.0
In1118 In 0.39679 0.49894 0.63609 0.0
O1119 O 0.41642 0.48456 0.6456 0.0
O1120 O 0.41596 0.48884 0.62183 0.0
C1121 C 0.39962 0.52441 0.65318 0.0
C1122 C 0.37687 0.47912 0.64886 0.0
C1123 C 0.38845 0.5099 0.60869 0.0
O1124 O 0.40935 0.51383 0.65359 0.0
O1125 O 0.38873 0.52217 0.64411 0.0
O1126 O 0.37957 0.50185 0.6167 0.0
O1127 O 0.40139 0.51226 0.61451 0.0
C1128 C 0.42255 0.48233 0.6328 0.0
O1129 O 0.38345 0.47645 0.63636 0.0
O1130 O 0.37989 0.49195 0.65452 0.0
In1131 In 0.2509 0.6553 0.38714 0.0
O1132 O 0.26875 0.63623 0.38959 0.0
O1133 O 0.26052 0.64697 0.40962 0.0
C1134 C 0.23872 0.64903 0.35981 0.0
C1135 C 0.26889 0.67977 0.38189 0.0
C1136 C 0.22435 0.65404 0.40239 0.0
O1137 O 0.2483 0.64026 0.36607 0.0
O1138 O 0.2355 0.66091 0.36727 0.0
O1139 O 0.23205 0.66622 0.40154 0.0
O1140 O 0.23008 0.64274 0.39556 0.0
C1141 C 0.2692 0.63708 0.40394 0.0
O1142 O 0.26007 0.67915 0.39324 0.0
O1143 O 0.26843 0.66828 0.37334 0.0
In1144 In 0.36005 0.09919 0.49635 0.0
O1145 O 0.36003 0.07449 0.48758 0.0
O1146 O 0.37132 0.09158 0.47457 0.0
C1147 C 0.34343 0.09885 0.52208 0.0
C1148 C 0.34105 0.11572 0.47882 0.0
C1149 C 0.38754 0.10473 0.50862 0.0
O1150 O 0.34445 0.08726 0.51355 0.0
O1151 O 0.35079 0.11038 0.5176 0.0
O1152 O 0.38101 0.11425 0.49997 0.0
O1153 O 0.38025 0.09252 0.51085 0.0
C1154 C 0.3675 0.07777 0.47569 0.0
O1155 O 0.35409 0.12066 0.48251 0.0
O1156 O 0.33774 0.10283 0.48422 0.0
In1157 In 0.86045 0.40668 0.5032 0.0
O1158 O 0.85577 0.38609 0.51877 0.0
O1159 O 0.84031 0.40473 0.51912 0.0
C1160 C 0.88652 0.39898 0.48915 0.0
C1161 C 0.87032 0.42996 0.52055 0.0
C1162 C 0.84195 0.40607 0.47867 0.0
O1163 O 0.87986 0.39007 0.49832 0.0
O1164 O 0.88012 0.41175 0.48734 0.0
O1165 O 0.84414 0.41814 0.48621 0.0
O1166 O 0.84891 0.39451 0.48362 0.0
C1167 C 0.84383 0.39185 0.52439 0.0
O1168 O 0.86018 0.43175 0.51048 0.0
O1169 O 0.87557 0.41661 0.52156 0.0
In1170 In 0.35015 0.11581 0.24954 0.0
O1171 O 0.3687 0.10965 0.26692 0.0
O1172 O 0.35821 0.09178 0.25434 0.0
C1173 C 0.36092 0.14399 0.24354 0.0
C1174 C 0.32618 0.11949 0.26852 0.0
C1175 C 0.34655 0.10241 0.22203 0.0
O1176 O 0.3696 0.13282 0.24616 0.0
O1177 O 0.34689 0.14099 0.24438 0.0
O1178 O 0.33724 0.10044 0.23283 0.0
O1179 O 0.3573 0.11146 0.22501 0.0
C1180 C 0.36776 0.09549 0.26442 0.0
O1181 O 0.3251 0.12175 0.25435 0.0
O1182 O 0.3392 0.11542 0.27298 0.0
In1183 In 0.63225 0.60342 0.00247 0.0
O1184 O 0.63799 0.62299 0.01898 0.0
O1185 O 0.65375 0.60469 0.01619 0.0
C1186 C 0.60435 0.60833 0.991 0.0
C1187 C 0.62488 0.57988 0.02043 0.0
C1188 C 0.64927 0.60758 0.97733 0.0
O1189 O 0.61127 0.61848 0.99859 0.0
O1190 O 0.61157 0.59601 0.98922 0.0
O1191 O 0.64804 0.59461 0.98353 0.0
O1192 O 0.64172 0.61806 0.98365 0.0
C1193 C 0.65062 0.61709 0.02276 0.0
O1194 O 0.63302 0.57807 0.00862 0.0
O1195 O 0.62056 0.59339 0.02289 0.0
In1196 In 0.65219 0.38295 0.25161 0.0
O1197 O 0.63329 0.38722 0.26948 0.0
O1198 O 0.64944 0.40469 0.26486 0.0
C1199 C 0.64718 0.35505 0.24021 0.0
C1200 C 0.67773 0.37737 0.2675 0.0
C1201 C 0.64631 0.39825 0.22571 0.0
O1202 O 0.63785 0.3613 0.24931 0.0
O1203 O 0.6589 0.36285 0.23714 0.0
O1204 O 0.65967 0.39744 0.2311 0.0
O1205 O 0.63625 0.39142 0.23338 0.0
C1206 C 0.63794 0.40057 0.27239 0.0
O1207 O 0.67699 0.38816 0.25798 0.0
O1208 O 0.66579 0.36947 0.26881 0.0
In1209 In 0.13417 0.89906 0.99232 0.0
O1210 O 0.13493 0.88167 0.97269 0.0
O1211 O 0.15579 0.89095 0.98075 0.0
C1212 C 0.10797 0.89175 0.00654 0.0
C1213 C 0.12807 0.9237 0.97502 0.0
C1214 C 0.15262 0.89781 0.01677 0.0
O1215 O 0.11582 0.88202 -0.0006 0.0
O1216 O 0.11327 0.9051 0.00637 0.0
O1217 O 0.14899 0.9104 0.01072 0.0
O1218 O 0.1467 0.88622 0.01065 0.0
C1219 C 0.14927 0.88203 0.9716 0.0
O1220 O 0.13885 0.92363 0.98458 0.0
O1221 O 0.12053 0.91148 0.97435 0.0
In1222 In 0.34983 0.87804 0.24265 0.0
O1223 O 0.37198 0.88608 0.23118 0.0
O1224 O 0.35126 0.88817 0.21885 0.0
C1225 C 0.35903 0.85134 0.25508 0.0
C1226 C 0.32297 0.87257 0.22886 0.0
C1227 C 0.35175 0.89938 0.26491 0.0
O1228 O 0.36602 0.85744 0.24409 0.0
O1229 O 0.34763 0.85872 0.25973 0.0
O1230 O 0.34056 0.89039 0.26407 0.0
O1231 O 0.36149 0.89769 0.25455 0.0
C1232 C 0.36542 0.8905 0.21916 0.0
O1233 O 0.32546 0.88474 0.23619 0.0
O1234 O 0.33392 0.86322 0.22877 0.0
In1235 In 0.14601 0.11267 0.74426 0.0
O1236 O 0.1715 0.11697 0.74005 0.0
O1237 O 0.15792 0.10932 0.72155 0.0
C1238 C 0.15012 0.09592 0.76981 0.0
C1239 C 0.12444 0.0986 0.7274 0.0
C1240 C 0.13841 0.14148 0.75226 0.0
O1241 O 0.15704 0.09309 0.75753 0.0
O1242 O 0.1414 0.10731 0.76924 0.0
O1243 O 0.12867 0.13102 0.75086 0.0
O1244 O 0.15189 0.1375 0.7493 0.0
C1245 C 0.17092 0.11331 0.72615 0.0
O1246 O 0.12918 0.11186 0.72439 0.0
O1247 O 0.13024 0.09269 0.73915 0.0
H1248 H 0.02939 0.15359 0.35538 0.0
H1249 H 0.0328 0.17635 0.39891 0.0
H1250 H 0.04906 0.17072 0.34503 0.0
H1251 H 0.05238 0.19309 0.3887 0.0
H1252 H 0.09832 0.20788 0.37211 0.0
H1253 H 0.08 0.18814 0.37883 0.0
H1254 H 0.05174 0.20114 0.34074 0.0
H1255 H 0.07011 0.22113 0.33399 0.0
C1256 C 0.03432 0.16223 0.36269 0.0
C1257 C 0.0296 0.16364 0.37794 0.0
C1258 C 0.04551 0.17199 0.35678 0.0
C1259 C 0.0523 0.18306 0.36614 0.0
C1260 C 0.04746 0.1845 0.38131 0.0
C1261 C 0.03619 0.17497 0.38712 0.0
C1262 C 0.08835 0.20639 0.36498 0.0
C1263 C 0.08555 0.21617 0.35263 0.0
C1264 C 0.07786 0.19511 0.36886 0.0
C1265 C 0.06442 0.19328 0.3604 0.0
C1266 C 0.06206 0.20234 0.34742 0.0
C1267 C 0.07253 0.21377 0.34359 0.0
H1268 H 0.05536 0.85331 0.60026 0.0
H1269 H 0.03033 0.81311 0.58702 0.0
H1270 H 0.07753 0.83764 0.60613 0.0
H1271 H 0.05207 0.79729 0.5937 0.0
H1272 H 0.09311 0.77022 0.60463 0.0
H1273 H 0.07686 0.78805 0.59075 0.0
H1274 H 0.0839 0.82164 0.62614 0.0
H1275 H 0.10062 0.80418 0.63942 0.0
C1276 C 0.05468 0.84111 0.59844 0.0
C1277 C 0.0411 0.8344 0.59333 0.0
C1278 C 0.06735 0.83209 0.60193 0.0
C1279 C 0.06659 0.8161 0.60072 0.0
C1280 C 0.05324 0.80953 0.59467 0.0
C1281 C 0.04069 0.8186 0.59089 0.0
C1282 C 0.09147 0.78158 0.60918 0.0
C1283 C 0.09803 0.78576 0.62317 0.0
C1284 C 0.08204 0.79176 0.60131 0.0
C1285 C 0.07879 0.80627 0.60738 0.0
C1286 C 0.08619 0.81071 0.62092 0.0
C1287 C 0.09576 0.80062 0.62864 0.0
H1288 H 0.40697 0.79615 0.86802 0.0
H1289 H 0.42748 0.79098 0.82357 0.0
H1290 H 0.42389 0.8174 0.87344 0.0
H1291 H 0.44459 0.81243 0.82906 0.0
H1292 H 0.48525 0.83249 0.85934 0.0
H1293 H 0.46636 0.81572 0.84771 0.0
H1294 H 0.43023 0.84398 0.86559 0.0
H1295 H 0.44911 0.86071 0.87732 0.0
C1296 C 0.41501 0.79968 0.85933 0.0
C1297 C 0.41599 0.79186 0.84541 0.0
C1298 C 0.42461 0.81195 0.86239 0.0
C1299 C 0.43552 0.81662 0.85165 0.0
C1300 C 0.43629 0.80904 0.83754 0.0
C1301 C 0.4265 0.79682 0.8344 0.0
C1302 C 0.47328 0.83533 0.86047 0.0
C1303 C 0.46864 0.84778 0.86941 0.0
C1304 C 0.46247 0.82576 0.85374 0.0
C1305 C 0.44683 0.82844 0.85591 0.0
C1306 C 0.44222 0.84154 0.86391 0.0
C1307 C 0.45303 0.85115 0.87056 0.0
H1308 H 0.45131 0.15056 0.11462 0.0
H1309 H 0.47493 0.18036 0.08335 0.0
H1310 H 0.43124 0.16946 0.11759 0.0
H1311 H 0.45469 0.1994 0.08632 0.0
H1312 H 0.39296 0.20239 0.11566 0.0
H1313 H 0.41035 0.18361 0.10466 0.0
H1314 H 0.44748 0.21569 0.10862 0.0
H1315 H 0.43012 0.23446 0.1195 0.0
C1316 C 0.45207 0.16107 0.10818 0.0
C1317 C 0.46473 0.16406 0.09886 0.0
C1318 C 0.4405 0.17185 0.10978 0.0
C1319 C 0.4414 0.18593 0.1022 0.0
C1320 C 0.45376 0.18868 0.09236 0.0
C1321 C 0.46529 0.17778 0.09063 0.0
C1322 C 0.40475 0.20554 0.11384 0.0
C1323 C 0.41023 0.21981 0.11861 0.0
C1324 C 0.41472 0.19478 0.10761 0.0
C1325 C 0.4303 0.19813 0.10593 0.0
C1326 C 0.43552 0.2128 0.10967 0.0
C1327 C 0.42559 0.22352 0.11599 0.0
H1328 H 0.03872 0.85265 0.14426 0.0
H1329 H 0.01705 0.81563 0.12012 0.0
H1330 H 0.05508 0.83435 0.15752 0.0
H1331 H 0.03351 0.79751 0.13294 0.0
H1332 H 0.05942 0.76567 0.16151 0.0
H1333 H 0.04041 0.78525 0.15622 0.0
H1334 H 0.07635 0.81845 0.15039 0.0
H1335 H 0.09526 0.79898 0.15619 0.0
C1336 C 0.03734 0.84061 0.14192 0.0
C1337 C 0.02669 0.83557 0.13109 0.0
C1338 C 0.04676 0.83014 0.14945 0.0
C1339 C 0.04566 0.81444 0.14628 0.0
C1340 C 0.03454 0.80945 0.13588 0.0
C1341 C 0.02516 0.81988 0.1284 0.0
C1342 C 0.06321 0.77724 0.15946 0.0
C1343 C 0.07882 0.78076 0.15907 0.0
C1344 C 0.05234 0.78844 0.15632 0.0
C1345 C 0.05685 0.80337 0.15259 0.0
C1346 C 0.07243 0.80711 0.1533 0.0
C1347 C 0.0833 0.79592 0.15656 0.0
H1348 H 0.42597 0.76318 0.38706 0.0
H1349 H 0.394 0.79836 0.37421 0.0
H1350 H 0.44281 0.78247 0.39794 0.0
H1351 H 0.41081 0.81762 0.38518 0.0
H1352 H 0.45671 0.84402 0.37941 0.0
H1353 H 0.43603 0.82608 0.3751 0.0
H1354 H 0.44672 0.80337 0.41745 0.0
H1355 H 0.46757 0.82151 0.42182 0.0
C1356 C 0.42236 0.77499 0.38691 0.0
C1357 C 0.40877 0.77929 0.3796 0.0
C1358 C 0.43197 0.78602 0.39321 0.0
C1359 C 0.4282 0.80156 0.39223 0.0
C1360 C 0.41409 0.80574 0.3859 0.0
C1361 C 0.40444 0.79471 0.37969 0.0
C1362 C 0.45455 0.83532 0.38791 0.0
C1363 C 0.4638 0.83409 0.4009 0.0
C1364 C 0.44261 0.82512 0.3855 0.0
C1365 C 0.43972 0.81335 0.39597 0.0
C1366 C 0.44873 0.81232 0.40918 0.0
C1367 C 0.46061 0.8227 0.4117 0.0
H1368 H 0.4241 0.2158 0.66842 0.0
H1369 H 0.38977 0.19798 0.63796 0.0
H1370 H 0.44154 0.19542 0.66056 0.0
H1371 H 0.40707 0.17768 0.63028 0.0
H1372 H 0.45038 0.16791 0.60149 0.0
H1373 H 0.43069 0.18244 0.6144 0.0
H1374 H 0.44683 0.16607 0.65791 0.0
H1375 H 0.46671 0.15119 0.64481 0.0
C1376 C 0.42013 0.20727 0.66042 0.0
C1377 C 0.40571 0.20861 0.65358 0.0
C1378 C 0.43008 0.1956 0.65597 0.0
C1379 C 0.42571 0.18516 0.64463 0.0
C1380 C 0.41079 0.18574 0.63886 0.0
C1381 C 0.4009 0.19735 0.64328 0.0
C1382 C 0.44967 0.16726 0.6138 0.0
C1383 C 0.46007 0.15846 0.62216 0.0
C1384 C 0.43831 0.1755 0.62119 0.0
C1385 C 0.43717 0.17528 0.63715 0.0
C1386 C 0.44748 0.16638 0.64559 0.0
C1387 C 0.45877 0.15787 0.63812 0.0
H1388 H 0.08959 0.19087 0.85546 0.0
H1389 H 0.09123 0.21943 0.89548 0.0
H1390 H 0.07283 0.17315 0.86871 0.0
H1391 H 0.07414 0.20169 0.90878 0.0
H1392 H 0.02344 0.18011 0.90912 0.0
H1393 H 0.04584 0.19563 0.90327 0.0
H1394 H 0.07086 0.15502 0.89117 0.0
H1395 H 0.04855 0.13951 0.89704 0.0
C1396 C 0.08661 0.19317 0.86723 0.0
C1397 C 0.09165 0.20651 0.87445 0.0
C1398 C 0.07707 0.18299 0.87484 0.0
C1399 C 0.07217 0.18607 0.88977 0.0
C1400 C 0.07774 0.19909 0.89727 0.0
C1401 C 0.08756 0.20916 0.8897 0.0
C1402 C 0.03386 0.17447 0.90563 0.0
C1403 C 0.03418 0.15863 0.90332 0.0
C1404 C 0.0467 0.18334 0.90234 0.0
C1405 C 0.06002 0.17652 0.89661 0.0
C1406 C 0.06068 0.16057 0.89543 0.0
C1407 C 0.04791 0.15171 0.89882 0.0
H1408 H 0.36671 0.02209 0.17747 0.0
H1409 H 0.37028 0.05246 0.13892 0.0
H1410 H 0.3548 0.04219 0.19234 0.0
H1411 H 0.3583 0.07281 0.15394 0.0
H1412 H 0.36452 0.10579 0.19694 0.0
H1413 H 0.36837 0.0873 0.17659 0.0
H1414 H 0.33235 0.05935 0.19514 0.0
H1415 H 0.32854 0.07785 0.21561 0.0
C1416 C 0.36469 0.03302 0.17209 0.0
C1417 C 0.36954 0.03578 0.1571 0.0
C1418 C 0.35773 0.04451 0.18057 0.0
C1419 C 0.35561 0.05909 0.17431 0.0
C1420 C 0.35985 0.06168 0.15906 0.0
C1421 C 0.36664 0.05006 0.15046 0.0
C1422 C 0.35714 0.0959 0.19645 0.0
C1423 C 0.34639 0.09313 0.208 0.0
C1424 C 0.35929 0.08535 0.18472 0.0
C1425 C 0.35079 0.07179 0.18438 0.0
C1426 C 0.33919 0.06963 0.19524 0.0
C1427 C 0.33697 0.08024 0.20692 0.0
H1428 H 0.17229 0.09078 0.46585 0.0
H1429 H 0.14557 0.13114 0.45676 0.0
H1430 H 0.18977 0.09783 0.44513 0.0
H1431 H 0.16287 0.13805 0.43625 0.0
H1432 H 0.20956 0.15687 0.42218 0.0
H1433 H 0.19048 0.1466 0.43939 0.0
H1434 H 0.1916 0.10367 0.4154 0.0
H1435 H 0.21087 0.11408 0.39786 0.0
C1436 C 0.16998 0.10095 0.45925 0.0
C1437 C 0.15772 0.11053 0.46306 0.0
C1438 C 0.17993 0.10494 0.44739 0.0
C1439 C 0.17775 0.11859 0.43928 0.0
C1440 C 0.16493 0.12759 0.44249 0.0
C1441 C 0.15503 0.12361 0.45423 0.0
C1442 C 0.20575 0.14525 0.4205 0.0
C1443 C 0.21166 0.13629 0.40864 0.0
C1444 C 0.19476 0.1394 0.43032 0.0
C1445 C 0.18948 0.12439 0.42863 0.0
C1446 C 0.1955 0.11528 0.41691 0.0
C1447 C 0.20644 0.12124 0.40688 0.0
H1448 H 0.09161 0.95939 0.67188 0.0
H1449 H 0.13529 0.96724 0.65052 0.0
H1450 H 0.10284 0.93979 0.68785 0.0
H1451 H 0.14668 0.94745 0.6668 0.0
H1452 H 0.15891 0.92653 0.71645 0.0
H1453 H 0.15116 0.94408 0.69616 0.0
H1454 H 0.11451 0.91363 0.68391 0.0
H1455 H 0.12214 0.89619 0.7041 0.0
C1456 C 0.10364 0.9569 0.67058 0.0
C1457 C 0.11259 0.96484 0.65996 0.0
C1458 C 0.11004 0.94558 0.67965 0.0
C1459 C 0.12558 0.94201 0.67844 0.0
C1460 C 0.13465 0.95 0.66791 0.0
C1461 C 0.12815 0.96126 0.65861 0.0
C1462 C 0.14942 0.92345 0.70919 0.0
C1463 C 0.14098 0.91012 0.71199 0.0
C1464 C 0.14503 0.93346 0.69756 0.0
C1465 C 0.13212 0.93028 0.68864 0.0
C1466 C 0.12438 0.91644 0.69078 0.0
C1467 C 0.12877 0.90645 0.70232 0.0
H1468 H 0.28846 0.88939 0.89971 0.0
H1469 H 0.27785 0.85084 0.92847 0.0
H1470 H 0.30816 0.89743 0.91799 0.0
H1471 H 0.29734 0.85877 0.94642 0.0
H1472 H 0.34512 0.86455 0.96362 0.0
H1473 H 0.32648 0.85969 0.94372 0.0
H1474 H 0.31035 0.90603 0.9472 0.0
H1475 H 0.32916 0.911 0.96734 0.0
C1476 C 0.29025 0.88273 0.90994 0.0
C1477 C 0.28171 0.86944 0.91261 0.0
C1478 C 0.30146 0.88734 0.92038 0.0
C1479 C 0.30436 0.87858 0.93347 0.0
C1480 C 0.2955 0.86558 0.93629 0.0
C1481 C 0.28428 0.86109 0.92602 0.0
C1482 C 0.33775 0.87379 0.96006 0.0
C1483 C 0.33848 0.88811 0.96716 0.0
C1484 C 0.32705 0.87098 0.94869 0.0
C1485 C 0.31687 0.88243 0.9441 0.0
C1486 C 0.3181 0.89703 0.95056 0.0
C1487 C 0.32881 0.89984 0.96208 0.0
H1488 H 0.40045 0.94746 0.33286 0.0
H1489 H 0.35527 0.96536 0.34073 0.0
H1490 H 0.39036 0.93006 0.31387 0.0
H1491 H 0.34508 0.94784 0.32133 0.0
H1492 H 0.33544 0.90255 0.29159 0.0
H1493 H 0.34203 0.91892 0.31341 0.0
H1494 H 0.38007 0.9371 0.28803 0.0
H1495 H 0.37367 0.92093 0.26656 0.0
C1496 C 0.3883 0.94752 0.33067 0.0
C1497 C 0.37867 0.9579 0.3381 0.0
C1498 C 0.38253 0.93759 0.31974 0.0
C1499 C 0.367 0.93786 0.31589 0.0
C1500 C 0.35711 0.94746 0.32407 0.0
C1501 C 0.36292 0.95745 0.33514 0.0
C1502 C 0.34508 0.91021 0.29068 0.0
C1503 C 0.35416 0.91034 0.27746 0.0
C1504 C 0.34882 0.91955 0.30313 0.0
C1505 C 0.36173 0.92903 0.30249 0.0
C1506 C 0.37027 0.92964 0.28897 0.0
C1507 C 0.36655 0.92042 0.27664 0.0
H1508 H 0.26361 0.11271 0.57433 0.0
H1509 H 0.29874 0.1218 0.6076 0.0
H1510 H 0.28268 0.10218 0.55706 0.0
H1511 H 0.31782 0.11117 0.59033 0.0
H1512 H 0.34458 0.11976 0.54478 0.0
H1513 H 0.32705 0.12272 0.56604 0.0
H1514 H 0.3028 0.08231 0.55182 0.0
H1515 H 0.32052 0.07931 0.53039 0.0
C1516 C 0.27535 0.11209 0.57811 0.0
C1517 C 0.27973 0.11827 0.59222 0.0
C1518 C 0.28627 0.10598 0.56825 0.0
C1519 C 0.30176 0.10602 0.57228 0.0
C1520 C 0.30597 0.11117 0.58686 0.0
C1521 C 0.29504 0.11719 0.59676 0.0
C1522 C 0.33566 0.11136 0.54631 0.0
C1523 C 0.33383 0.09938 0.53588 0.0
C1524 C 0.32569 0.11298 0.55858 0.0
C1525 C 0.31355 0.10273 0.56061 0.0
C1526 C 0.31203 0.0904 0.55049 0.0
C1527 C 0.32218 0.08866 0.53828 0.0
H1528 H 0.13262 0.0474 0.85476 0.0
H1529 H 0.1295 0.01578 0.81718 0.0
H1530 H 0.14445 0.06619 0.83793 0.0
H1531 H 0.14103 0.03454 0.80037 0.0
H1532 H 0.136 0.09988 0.79713 0.0
H1533 H 0.13318 0.08123 0.81743 0.0
H1534 H 0.16277 0.05023 0.79314 0.0
H1535 H 0.16536 0.06889 0.77261 0.0
C1536 C 0.13477 0.04435 0.843 0.0
C1537 C 0.12997 0.03021 0.83722 0.0
C1538 C 0.14146 0.05513 0.83335 0.0
C1539 C 0.14352 0.05193 0.81777 0.0
C1540 C 0.13974 0.03735 0.81231 0.0
C1541 C 0.13302 0.02661 0.82194 0.0
C1542 C 0.14215 0.08921 0.79626 0.0
C1543 C 0.15072 0.08574 0.78319 0.0
C1544 C 0.14063 0.07855 0.80797 0.0
C1545 C 0.14765 0.06418 0.80685 0.0
C1546 C 0.15705 0.06112 0.79423 0.0
C1547 C 0.15859 0.07182 0.78251 0.0
H1548 H 0.20471 0.88936 0.10108 0.0
H1549 H 0.23275 0.8718 0.06458 0.0
H1550 H 0.18631 0.89887 0.08222 0.0
H1551 H 0.21437 0.88111 0.04598 0.0
H1552 H 0.16554 0.87176 0.02692 0.0
H1553 H 0.1852 0.86881 0.0462 0.0
H1554 H 0.18478 0.91727 0.05447 0.0
H1555 H 0.16504 0.9204 0.0347 0.0
C1556 C 0.20716 0.88793 0.08907 0.0
C1557 C 0.22004 0.87965 0.0843 0.0
C1558 C 0.19666 0.89338 0.07832 0.0
C1559 C 0.19894 0.89054 0.06275 0.0
C1560 C 0.21238 0.88334 0.05797 0.0
C1561 C 0.22287 0.87801 0.06863 0.0
C1562 C 0.16953 0.88183 0.03285 0.0
C1563 C 0.16379 0.89633 0.02926 0.0
C1564 C 0.18082 0.88012 0.04383 0.0
C1565 C 0.18652 0.89283 0.05165 0.0
C1566 C 0.18052 0.90733 0.04851 0.0
C1567 C 0.1693 0.9091 0.03724 0.0
H1568 H 0.22819 0.38002 0.07655 0.0
H1569 H 0.21214 0.33348 0.07589 0.0
H1570 H 0.20933 0.38689 0.0575 0.0
H1571 H 0.19308 0.34044 0.05659 0.0
H1572 H 0.15026 0.36763 0.03685 0.0
H1573 H 0.16932 0.35736 0.05453 0.0
H1574 H 0.20474 0.38127 0.0301 0.0
H1575 H 0.18584 0.39157 0.01263 0.0
C1576 C 0.22064 0.37123 0.07231 0.0
C1577 C 0.22167 0.3562 0.07769 0.0
C1578 C 0.20989 0.37515 0.06131 0.0
C1579 C 0.19983 0.36417 0.05546 0.0
C1580 C 0.20069 0.34913 0.06094 0.0
C1581 C 0.21161 0.34515 0.07191 0.0
C1582 C 0.16215 0.3705 0.03516 0.0
C1583 C 0.16655 0.38054 0.02348 0.0
C1584 C 0.17305 0.36458 0.04523 0.0
C1585 C 0.18848 0.36869 0.04379 0.0
C1586 C 0.1929 0.37813 0.03165 0.0
C1587 C 0.18207 0.38398 0.02161 0.0
H1588 H 0.64386 0.13455 0.95327 0.0
H1589 H 0.68099 0.12507 0.98415 0.0
H1590 H 0.66187 0.14583 0.93517 0.0
H1591 H 0.69891 0.13617 0.96614 0.0
H1592 H 0.72833 0.16217 0.93409 0.0
H1593 H 0.70759 0.1592 0.95249 0.0
H1594 H 0.68179 0.1337 0.91921 0.0
H1595 H 0.70238 0.13678 0.90085 0.0
C1596 C 0.65581 0.13517 0.95632 0.0
C1597 C 0.66106 0.12881 0.97004 0.0
C1598 C 0.66612 0.14154 0.94594 0.0
C1599 C 0.68182 0.14181 0.94919 0.0
C1600 C 0.68688 0.1363 0.96335 0.0
C1601 C 0.67662 0.12983 0.97363 0.0
C1602 C 0.71808 0.15622 0.93062 0.0
C1603 C 0.71703 0.14955 0.91611 0.0
C1604 C 0.70625 0.15447 0.94116 0.0
C1605 C 0.69311 0.14611 0.93734 0.0
C1606 C 0.69168 0.14032 0.92248 0.0
C1607 C 0.70354 0.14199 0.91199 0.0
H1608 H 0.10626 0.39999 0.20813 0.0
H1609 H 0.15134 0.41831 0.20057 0.0
H1610 H 0.09611 0.41707 0.18836 0.0
H1611 H 0.14131 0.43508 0.18093 0.0
H1612 H 0.12283 0.45422 0.13809 0.0
H1613 H 0.12918 0.43296 0.15477 0.0
H1614 H 0.09372 0.44671 0.18599 0.0
H1615 H 0.08728 0.4681 0.16923 0.0
C1616 C 0.11399 0.40752 0.20214 0.0
C1617 C 0.12956 0.40788 0.20588 0.0
C1618 C 0.10819 0.4173 0.19091 0.0
C1619 C 0.11795 0.4273 0.18308 0.0
C1620 C 0.13356 0.42734 0.18663 0.0
C1621 C 0.13928 0.41781 0.19795 0.0
C1622 C 0.11618 0.45256 0.14836 0.0
C1623 C 0.1047 0.46295 0.15248 0.0
C1624 C 0.11984 0.4404 0.15791 0.0
C1625 C 0.11207 0.43833 0.17174 0.0
C1626 C 0.09985 0.44803 0.17535 0.0
C1627 C 0.09621 0.46029 0.1658 0.0
H1628 H 0.79644 0.8694 0.40244 0.0
H1629 H 0.78393 0.82735 0.42476 0.0
H1630 H 0.81738 0.87274 0.42028 0.0
H1631 H 0.80502 0.83076 0.44282 0.0
H1632 H 0.82556 0.86095 0.48332 0.0
H1633 H 0.80896 0.85032 0.46372 0.0
H1634 H 0.84219 0.86188 0.4293 0.0
H1635 H 0.8588 0.87256 0.44891 0.0
C1636 C 0.79833 0.86074 0.41104 0.0
C1637 C 0.78851 0.84818 0.4123 0.0
C1638 C 0.81041 0.86259 0.42119 0.0
C1639 C 0.81284 0.852 0.43294 0.0
C1640 C 0.80336 0.83911 0.43388 0.0
C1641 C 0.79135 0.83714 0.42354 0.0
C1642 C 0.82949 0.86087 0.47162 0.0
C1643 C 0.84338 0.86777 0.46761 0.0
C1644 C 0.82001 0.85471 0.4604 0.0
C1645 C 0.82422 0.85543 0.44497 0.0
C1646 C 0.8386 0.86134 0.4411 0.0
C1647 C 0.84812 0.8674 0.45233 0.0
H1648 H 0.87367 0.10807 0.19804 0.0
H1649 H 0.8909 0.07663 0.23175 0.0
H1650 H 0.88526 0.09281 0.1779 0.0
H1651 H 0.90193 0.06107 0.21169 0.0
H1652 H 0.92161 0.0344 0.17353 0.0
H1653 H 0.91877 0.05593 0.19101 0.0
H1654 H 0.87734 0.06908 0.16778 0.0
H1655 H 0.88049 0.04803 0.15019 0.0
C1656 C 0.88023 0.09809 0.20116 0.0
C1657 C 0.88117 0.09341 0.21644 0.0
C1658 C 0.88676 0.08926 0.18962 0.0
C1659 C 0.89423 0.07549 0.19311 0.0
C1660 C 0.89634 0.07161 0.20852 0.0
C1661 C 0.88994 0.08051 0.22007 0.0
C1662 C 0.9121 0.04212 0.17201 0.0
C1663 C 0.90118 0.03944 0.16062 0.0
C1664 C 0.91042 0.05441 0.18206 0.0
C1665 C 0.89776 0.06421 0.18092 0.0
C1666 C 0.88736 0.06196 0.16893 0.0
C1667 C 0.88908 0.04976 0.15889 0.0
H1668 H 0.28094 0.66932 0.57718 0.0
H1669 H 0.29704 0.6291 0.60054 0.0
H1670 H 0.30267 0.6678 0.55971 0.0
H1671 H 0.31844 0.62741 0.58309 0.0
H1672 H 0.35866 0.62792 0.55367 0.0
H1673 H 0.34194 0.6381 0.57345 0.0
H1674 H 0.30877 0.65018 0.53913 0.0
H1675 H 0.3256 0.64038 0.5194 0.0
C1676 C 0.28926 0.66033 0.57875 0.0
C1677 C 0.28722 0.64924 0.59011 0.0
C1678 C 0.30165 0.65942 0.56871 0.0
C1679 C 0.31227 0.64744 0.56994 0.0
C1680 C 0.31063 0.6369 0.5819 0.0
C1681 C 0.29826 0.63779 0.59184 0.0
C1682 C 0.34799 0.63315 0.55033 0.0
C1683 C 0.34334 0.63314 0.53502 0.0
C1684 C 0.33837 0.63889 0.56167 0.0
C1685 C 0.32389 0.6447 0.55791 0.0
C1686 C 0.31985 0.64587 0.54245 0.0
C1687 C 0.32948 0.64016 0.53112 0.0
H1688 H 0.15244 0.57086 0.28753 0.0
H1689 H 0.10771 0.59 0.27999 0.0
H1690 H 0.14163 0.55194 0.30443 0.0
H1691 H 0.09664 0.5705 0.29681 0.0
H1692 H 0.08799 0.54083 0.34137 0.0
H1693 H 0.09572 0.56109 0.32364 0.0
H1694 H 0.1263 0.52958 0.30131 0.0
H1695 H 0.11905 0.50977 0.31919 0.0
C1696 C 0.14023 0.57097 0.28944 0.0
C1697 C 0.13089 0.5818 0.2823 0.0
C1698 C 0.13401 0.56004 0.29907 0.0
C1699 C 0.11822 0.55948 0.30171 0.0
C1700 C 0.10885 0.57062 0.29497 0.0
C1701 C 0.11515 0.58174 0.28533 0.0
C1702 C 0.09621 0.53828 0.33252 0.0
C1703 C 0.10313 0.52385 0.33177 0.0
C1704 C 0.10061 0.54983 0.32237 0.0
C1705 C 0.11188 0.54703 0.31129 0.0
C1706 C 0.11794 0.53226 0.31 0.0
C1707 C 0.11373 0.52087 0.32019 0.0
H1708 H 0.41635 0.47286 0.82332 0.0
H1709 H 0.38115 0.45021 0.84923 0.0
H1710 H 0.4158 0.4522 0.80459 0.0
H1711 H 0.38051 0.42973 0.83057 0.0
H1712 H 0.38443 0.39155 0.79812 0.0
H1713 H 0.39398 0.40846 0.81808 0.0
H1714 H 0.39601 0.44547 0.78568 0.0
H1715 H 0.38665 0.42859 0.76577 0.0
C1716 C 0.40872 0.46333 0.82517 0.0
C1717 C 0.39866 0.4632 0.83762 0.0
C1718 C 0.40838 0.45154 0.81443 0.0
C1719 C 0.39806 0.43938 0.81606 0.0
C1720 C 0.38871 0.43883 0.82906 0.0
C1721 C 0.38898 0.45064 0.8397 0.0
C1722 C 0.3873 0.40319 0.79519 0.0
C1723 C 0.3846 0.40882 0.78045 0.0
C1724 C 0.3927 0.41288 0.80663 0.0
C1725 C 0.39556 0.42834 0.8035 0.0
C1726 C 0.39401 0.43361 0.78845 0.0
C1727 C 0.38856 0.42395 0.77705 0.0
H1728 H 0.90409 0.79702 0.63905 0.0
H1729 H 0.93672 0.76971 0.66379 0.0
H1730 H 0.92345 0.8164 0.63482 0.0
H1731 H 0.95613 0.78929 0.65977 0.0
H1732 H 0.98815 0.81293 0.62397 0.0
H1733 H 0.96972 0.79661 0.63667 0.0
H1734 H 0.94081 0.83561 0.645 0.0
H1735 H 0.95925 0.85197 0.63199 0.0
C1736 C 0.91532 0.79533 0.64391 0.0
C1737 C 0.91895 0.78176 0.65157 0.0
C1738 C 0.92641 0.80651 0.64158 0.0
C1739 C 0.94139 0.80434 0.64684 0.0
C1740 C 0.94474 0.7912 0.6554 0.0
C1741 C 0.93362 0.78002 0.65776 0.0
C1742 C 0.97801 0.81809 0.62878 0.0
C1743 C 0.97504 0.83369 0.62681 0.0
C1744 C 0.96748 0.80874 0.63618 0.0
C1745 C 0.95372 0.81478 0.64174 0.0
C1746 C 0.95122 0.83058 0.64065 0.0
C1747 C 0.9618 0.83996 0.63328 0.0
H1748 H 0.96274 0.16992 0.42119 0.0
H1749 H 0.95103 0.15026 0.37762 0.0
H1750 H 0.94055 0.18686 0.41944 0.0
H1751 H 0.92904 0.16701 0.37589 0.0
H1752 H 0.88629 0.19242 0.37785 0.0
H1753 H 0.90398 0.1733 0.38753 0.0
H1754 H 0.93466 0.20896 0.40199 0.0
H1755 H 0.91689 0.22812 0.39245 0.0
C1756 C 0.95529 0.16906 0.41138 0.0
C1757 C 0.95864 0.15889 0.39948 0.0
C1758 C 0.94265 0.17876 0.41038 0.0
C1759 C 0.93304 0.17822 0.39757 0.0
C1760 C 0.93608 0.16754 0.38602 0.0
C1761 C 0.94876 0.15804 0.38694 0.0
C1762 C 0.89661 0.1962 0.38348 0.0
C1763 C 0.90035 0.21175 0.38416 0.0
C1764 C 0.90675 0.18524 0.38897 0.0
C1765 C 0.92081 0.18964 0.39526 0.0
C1766 C 0.92389 0.20523 0.39724 0.0
C1767 C 0.91374 0.21621 0.39172 0.0
H1768 H 0.55245 0.13864 0.12309 0.0
H1769 H 0.51851 0.17045 0.13925 0.0
H1770 H 0.57256 0.15494 0.13333 0.0
H1771 H 0.53858 0.18679 0.14929 0.0
H1772 H 0.57807 0.21242 0.16972 0.0
H1773 H 0.56034 0.191 0.16689 0.0
H1774 H 0.58097 0.17984 0.12359 0.0
H1775 H 0.59857 0.20101 0.12645 0.0
C1776 C 0.54927 0.14892 0.12916 0.0
C1777 C 0.53393 0.15338 0.13019 0.0
C1778 C 0.56078 0.15829 0.13495 0.0
C1779 C 0.55717 0.17226 0.14192 0.0
C1780 C 0.54176 0.17607 0.14406 0.0
C1781 C 0.53025 0.16674 0.13823 0.0
C1782 C 0.57896 0.20519 0.15975 0.0
C1783 C 0.58959 0.20845 0.14823 0.0
C1784 C 0.56879 0.19298 0.15811 0.0
C1785 C 0.56924 0.18373 0.14501 0.0
C1786 C 0.58043 0.18659 0.13391 0.0
C1787 C 0.59045 0.19882 0.13548 0.0
H1788 H 0.6064 0.79668 0.88479 0.0
H1789 H 0.56697 0.76892 0.87488 0.0
H1790 H 0.58996 0.81552 0.89719 0.0
H1791 H 0.55061 0.78767 0.88721 0.0
H1792 H 0.52456 0.82053 0.91599 0.0
H1793 H 0.54392 0.80093 0.91161 0.0
H1794 H 0.57063 0.83314 0.88568 0.0
H1795 H 0.55137 0.85266 0.89006 0.0
C1796 C 0.59427 0.79447 0.88553 0.0
C1797 C 0.58792 0.78143 0.87875 0.0
C1798 C 0.58488 0.80526 0.89257 0.0
C1799 C 0.56901 0.80308 0.89311 0.0
C1800 C 0.56281 0.78959 0.88712 0.0
C1801 C 0.57217 0.77891 0.87995 0.0
C1802 C 0.53474 0.8235 0.90967 0.0
C1803 C 0.53641 0.83805 0.90322 0.0
C1804 C 0.54577 0.81227 0.90711 0.0
C1805 C 0.55872 0.81548 0.89822 0.0
C1806 C 0.56084 0.83035 0.89269 0.0
C1807 C 0.54977 0.84151 0.89511 0.0
H1808 H 0.98262 0.16964 0.85697 0.0
H1809 H 0.94403 0.15008 0.88046 0.0
H1810 H 0.96582 0.18836 0.84502 0.0
H1811 H 0.92734 0.16895 0.86892 0.0
H1812 H 0.89826 0.20088 0.84269 0.0
H1813 H 0.91542 0.17931 0.84659 0.0
H1814 H 0.95273 0.2105 0.85444 0.0
H1815 H 0.9357 0.23195 0.85012 0.0
C1816 C 0.97051 0.1692 0.8594 0.0
C1817 C 0.96465 0.15849 0.86975 0.0
C1818 C 0.9609 0.17998 0.85263 0.0
C1819 C 0.94525 0.18029 0.85611 0.0
C1820 C 0.9393 0.16899 0.86581 0.0
C1821 C 0.94888 0.1582 0.87253 0.0
C1822 C 0.91021 0.20309 0.84492 0.0
C1823 C 0.91562 0.2181 0.84625 0.0
C1824 C 0.92001 0.19074 0.84725 0.0
C1825 C 0.93542 0.19315 0.85102 0.0
C1826 C 0.94098 0.20818 0.85141 0.0
C1827 C 0.9312 0.22052 0.84903 0.0
H1828 H 0.53008 0.17699 0.57997 0.0
H1829 H 0.53667 0.15864 0.62518 0.0
H1830 H 0.55161 0.19447 0.58404 0.0
H1831 H 0.55801 0.17583 0.62913 0.0
H1832 H 0.60276 0.19874 0.62896 0.0
H1833 H 0.58449 0.18036 0.61895 0.0
H1834 H 0.55652 0.21719 0.60213 0.0
H1835 H 0.57487 0.23566 0.61211 0.0
C1836 C 0.53619 0.17662 0.59069 0.0
C1837 C 0.53169 0.16652 0.60228 0.0
C1838 C 0.54846 0.1866 0.59301 0.0
C1839 C 0.55654 0.18639 0.60684 0.0
C1840 C 0.55216 0.17608 0.61826 0.0
C1841 C 0.53984 0.16632 0.61604 0.0
C1842 C 0.59291 0.20293 0.62282 0.0
C1843 C 0.59013 0.21863 0.6215 0.0
C1844 C 0.58242 0.1924 0.61714 0.0
C1845 C 0.56899 0.19737 0.60998 0.0
C1846 C 0.5668 0.21305 0.60757 0.0
C1847 C 0.57728 0.22361 0.61333 0.0
H1848 H 0.53961 0.82377 0.40144 0.0
H1849 H 0.5312 0.84718 0.35894 0.0
H1850 H 0.55938 0.80871 0.38934 0.0
H1851 H 0.55121 0.83179 0.34666 0.0
H1852 H 0.57408 0.78269 0.33292 0.0
H1853 H 0.55579 0.80234 0.34086 0.0
H1854 H 0.58547 0.8148 0.37804 0.0
H1855 H 0.60355 0.79527 0.37028 0.0
C1856 C 0.54198 0.8257 0.38948 0.0
C1857 C 0.53389 0.83668 0.38115 0.0
C1858 C 0.55339 0.81713 0.38258 0.0
C1859 C 0.55694 0.81924 0.36712 0.0
C1860 C 0.5487 0.83002 0.35862 0.0
C1861 C 0.53731 0.8388 0.36563 0.0
C1862 C 0.57685 0.78993 0.34252 0.0
C1863 C 0.59008 0.7873 0.35116 0.0
C1864 C 0.56641 0.80117 0.34704 0.0
C1865 C 0.56913 0.80985 0.36021 0.0
C1866 C 0.58299 0.80806 0.368 0.0
C1867 C 0.59334 0.7969 0.36353 0.0
H1868 H 0.89211 0.80277 0.11664 0.0
H1869 H 0.92911 0.77052 0.11291 0.0
H1870 H 0.90817 0.82247 0.10524 0.0
H1871 H 0.94518 0.79016 0.10178 0.0
H1872 H 0.95053 0.8541 0.11454 0.0
H1873 H 0.92994 0.83568 0.11656 0.0
H1874 H 0.95087 0.80833 0.08135 0.0
H1875 H 0.97169 0.82678 0.07948 0.0
C1876 C 0.90354 0.79979 0.11305 0.0
C1877 C 0.90944 0.78518 0.11585 0.0
C1878 C 0.91276 0.81109 0.10659 0.0
C1879 C 0.92801 0.80794 0.10278 0.0
C1880 C 0.93346 0.79296 0.10447 0.0
C1881 C 0.92428 0.78171 0.11095 0.0
C1882 C 0.95057 0.84434 0.10698 0.0
C1883 C 0.96282 0.84176 0.09701 0.0
C1884 C 0.93869 0.83382 0.10806 0.0
C1885 C 0.93883 0.82046 0.0992 0.0
C1886 C 0.95055 0.81843 0.08845 0.0
C1887 C 0.96243 0.82902 0.08733 0.0
H1888 H 0.63034 0.94623 0.8589 0.0
H1889 H 0.63929 0.97905 0.82333 0.0
H1890 H 0.6409 0.92602 0.84288 0.0
H1891 H 0.6497 0.95891 0.80732 0.0
H1892 H 0.67237 0.92092 0.78235 0.0
H1893 H 0.66958 0.9392 0.80323 0.0
H1894 H 0.63018 0.91452 0.81946 0.0
H1895 H 0.63302 0.8963 0.79874 0.0
C1896 C 0.63487 0.94918 0.84781 0.0
C1897 C 0.63384 0.96417 0.84229 0.0
C1898 C 0.64085 0.9376 0.83861 0.0
C1899 C 0.64601 0.94084 0.82379 0.0
C1900 C 0.64595 0.95604 0.81873 0.0
C1901 C 0.63988 0.96758 0.82786 0.0
C1902 C 0.66335 0.91922 0.79061 0.0
C1903 C 0.65281 0.90729 0.78885 0.0
C1904 C 0.66171 0.92972 0.80251 0.0
C1905 C 0.64959 0.92837 0.81292 0.0
C1906 C 0.63971 0.91582 0.81172 0.0
C1907 C 0.64128 0.90542 0.79979 0.0
H1908 H 0.85186 0.88779 0.5508 0.0
H1909 H 0.81949 0.91469 0.52528 0.0
H1910 H 0.83305 0.88412 0.57086 0.0
H1911 H 0.80063 0.91115 0.5455 0.0
H1912 H 0.79853 0.88346 0.60806 0.0
H1913 H 0.81698 0.89543 0.59092 0.0
H1914 H 0.78633 0.88824 0.55307 0.0
H1915 H 0.76792 0.87647 0.57016 0.0
C1916 C 0.84083 0.89321 0.54965 0.0
C1917 C 0.83708 0.90137 0.5364 0.0
C1918 C 0.83006 0.89119 0.5612 0.0
C1919 C 0.8153 0.89725 0.55972 0.0
C1920 C 0.81186 0.9062 0.54687 0.0
C1921 C 0.82267 0.90828 0.53534 0.0
C1922 C 0.79561 0.88477 0.59614 0.0
C1923 C 0.78187 0.8789 0.59041 0.0
C1924 C 0.8062 0.89155 0.58632 0.0
C1925 C 0.80317 0.89266 0.57062 0.0
C1926 C 0.78897 0.88769 0.56511 0.0
C1927 C 0.77845 0.88085 0.57489 0.0
H1928 H 0.85791 0.00685 0.32796 0.0
H1929 H 0.87403 0.04615 0.35278 0.0
H1930 H 0.84564 0.02354 0.30944 0.0
H1931 H 0.86241 0.06285 0.33398 0.0
H1932 H 0.83754 0.09138 0.30039 0.0
H1933 H 0.84116 0.07355 0.32146 0.0
H1934 H 0.85484 0.03871 0.28938 0.0
H1935 H 0.85057 0.05628 0.26846 0.0
C1936 C 0.85863 0.01907 0.32957 0.0
C1937 C 0.86704 0.0252 0.34172 0.0
C1938 C 0.85172 0.02865 0.31888 0.0
C1939 C 0.85324 0.04458 0.32 0.0
C1940 C 0.86084 0.05068 0.33276 0.0
C1941 C 0.86759 0.04109 0.34354 0.0
C1942 C 0.84101 0.07979 0.29788 0.0
C1943 C 0.84388 0.07525 0.2828 0.0
C1944 C 0.8432 0.0696 0.30995 0.0
C1945 C 0.84847 0.0547 0.3072 0.0
C1946 C 0.85057 0.04999 0.29201 0.0
C1947 C 0.84822 0.06011 0.27996 0.0
H1948 H 0.67206 0.07905 0.02892 0.0
H1949 H 0.64719 0.11787 0.04618 0.0
H1950 H 0.69036 0.08152 0.04979 0.0
H1951 H 0.6655 0.12048 0.06682 0.0
H1952 H 0.69677 0.11933 0.10652 0.0
H1953 H 0.67669 0.10951 0.08992 0.0
H1954 H 0.71011 0.10066 0.05485 0.0
H1955 H 0.73015 0.11023 0.07148 0.0
C1956 C 0.67037 0.08794 0.03731 0.0
C1957 C 0.6583 0.09837 0.03585 0.0
C1958 C 0.68087 0.0894 0.04921 0.0
C1959 C 0.67944 0.10125 0.0599 0.0
C1960 C 0.66685 0.11112 0.05889 0.0
C1961 C 0.65641 0.1097 0.04699 0.0
C1962 C 0.69986 0.11495 0.0954 0.0
C1963 C 0.71499 0.11569 0.09022 0.0
C1964 C 0.68835 0.10941 0.08587 0.0
C1965 C 0.69178 0.10447 0.07102 0.0
C1966 C 0.70709 0.10426 0.06626 0.0
C1967 C 0.71857 0.10983 0.07576 0.0
H1968 H 0.6432 0.05177 0.64729 0.0
H1969 H 0.62482 0.02619 0.6851 0.0
H1970 H 0.65472 0.0699 0.66528 0.0
H1971 H 0.63629 0.04403 0.70289 0.0
H1972 H 0.66437 0.07263 0.733 0.0
H1973 H 0.66123 0.05404 0.71255 0.0
H1974 H 0.64264 0.08912 0.68347 0.0
H1975 H 0.64585 0.10774 0.70388 0.0
C1976 C 0.64187 0.04989 0.65941 0.0
C1977 C 0.63304 0.03768 0.66483 0.0
C1978 C 0.6484 0.06025 0.66968 0.0
C1979 C 0.64644 0.05834 0.68548 0.0
C1980 C 0.6382 0.0457 0.69081 0.0
C1981 C 0.63151 0.03555 0.68061 0.0
C1982 C 0.65997 0.07646 0.72212 0.0
C1983 C 0.65514 0.09158 0.72011 0.0
C1984 C 0.65813 0.0658 0.71044 0.0
C1985 C 0.65152 0.0701 0.69649 0.0
C1986 C 0.64785 0.08549 0.69406 0.0
C1987 C 0.6496 0.09614 0.70579 0.0
H1988 H 0.71753 0.84702 0.43054 0.0
H1989 H 0.71526 0.88882 0.40458 0.0
H1990 H 0.69771 0.85635 0.44744 0.0
H1991 H 0.69523 0.89827 0.4218 0.0
H1992 H 0.67343 0.91128 0.47102 0.0
H1993 H 0.69213 0.90504 0.45115 0.0
H1994 H 0.66945 0.86207 0.44345 0.0
H1995 H 0.65091 0.8682 0.46313 0.0
C1996 C 0.71284 0.85825 0.42848 0.0
C1997 C 0.7179 0.86716 0.41618 0.0
C1998 C 0.70141 0.86355 0.43812 0.0
C1999 C 0.69482 0.87794 0.4358 0.0
C2000 C 0.70014 0.88711 0.42379 0.0
C2001 C 0.71154 0.88171 0.41396 0.0
C2002 C 0.6723 0.90065 0.46485 0.0
C2003 C 0.66085 0.89013 0.46876 0.0
C2004 C 0.68296 0.89711 0.45349 0.0
C2005 C 0.68233 0.88298 0.44597 0.0
C2006 C 0.67032 0.87294 0.44925 0.0
C2007 C 0.65969 0.87648 0.4605 0.0
H2008 H 0.86372 0.9572 0.14567 0.0
H2009 H 0.87603 0.98451 0.18472 0.0
H2010 H 0.8515 0.93866 0.16253 0.0
H2011 H 0.86395 0.966 0.20152 0.0
H2012 H 0.83587 0.93368 0.22884 0.0
H2013 H 0.83989 0.95335 0.2095 0.0
H2014 H 0.86293 0.92049 0.18097 0.0
H2015 H 0.85885 0.9009 0.20019 0.0
C2016 C 0.86356 0.95938 0.15782 0.0
C2017 C 0.87095 0.97221 0.16391 0.0
C2018 C 0.85662 0.94874 0.16746 0.0
C2019 C 0.85684 0.95083 0.18334 0.0
C2020 C 0.86345 0.96414 0.18932 0.0
C2021 C 0.87047 0.97469 0.17971 0.0
C2022 C 0.84146 0.9306 0.21827 0.0
C2023 C 0.84719 0.91581 0.21607 0.0
C2024 C 0.84383 0.94187 0.20725 0.0
C2025 C 0.85184 0.9385 0.19378 0.0
C2026 C 0.85661 0.92343 0.19116 0.0
C2027 C 0.85435 0.91222 0.20222 0.0
H2028 H 0.82185 0.07633 0.97451 0.0
H2029 H 0.85201 0.10596 0.94929 0.0
H2030 H 0.80286 0.07846 0.95426 0.0
H2031 H 0.83303 0.1083 0.92926 0.0
H2032 H 0.7982 0.10971 0.89319 0.0
H2033 H 0.81733 0.09719 0.90912 0.0
H2034 H 0.78698 0.10034 0.94779 0.0
H2035 H 0.7679 0.11257 0.93188 0.0
C2036 C 0.82456 0.08301 0.96449 0.0
C2037 C 0.8383 0.09117 0.96357 0.0
C2038 C 0.81366 0.08428 0.95293 0.0
C2039 C 0.81635 0.0937 0.94024 0.0
C2040 C 0.83062 0.10085 0.9388 0.0
C2041 C 0.84148 0.09961 0.95035 0.0
C2042 C 0.79549 0.10733 0.90499 0.0
C2043 C 0.78167 0.11231 0.91137 0.0
C2044 C 0.80646 0.10023 0.91413 0.0
C2045 C 0.80375 0.09793 0.92976 0.0
C2046 C 0.78941 0.10181 0.93578 0.0
C2047 C 0.7785 0.10893 0.92668 0.0
H2048 H 0.78782 0.67481 0.92016 0.0
H2049 H 0.79558 0.63064 0.89989 0.0
H2050 H 0.81007 0.67101 0.93671 0.0
H2051 H 0.81755 0.62685 0.91626 0.0
H2052 H 0.86089 0.62489 0.94079 0.0
H2053 H 0.84344 0.63582 0.92211 0.0
H2054 H 0.81539 0.65342 0.95854 0.0
H2055 H 0.83297 0.6427 0.97724 0.0
C2056 C 0.79441 0.66442 0.91909 0.0
C2057 C 0.78994 0.65297 0.90883 0.0
C2058 C 0.80708 0.66223 0.92857 0.0
C2059 C 0.81559 0.64866 0.92776 0.0
C2060 C 0.81141 0.63753 0.91703 0.0
C2061 C 0.79872 0.63964 0.90772 0.0
C2062 C 0.85122 0.63144 0.94481 0.0
C2063 C 0.84816 0.63274 0.96047 0.0
C2064 C 0.84119 0.63763 0.93412 0.0
C2065 C 0.8279 0.64524 0.93886 0.0
C2066 C 0.82555 0.64767 0.95452 0.0
C2067 C 0.8356 0.64147 0.96524 0.0
H2068 H 0.27373 0.83018 0.0734 0.0
H2069 H 0.29727 0.86005 0.10465 0.0
H2070 H 0.29452 0.83305 0.05505 0.0
H2071 H 0.31808 0.86279 0.08636 0.0
H2072 H 0.35622 0.86048 0.05125 0.0
H2073 H 0.3391 0.84923 0.07035 0.0
H2074 H 0.30066 0.85799 0.04091 0.0
H2075 H 0.3176 0.86939 0.02209 0.0
C2076 C 0.28354 0.837 0.07652 0.0
C2077 C 0.28382 0.84506 0.09035 0.0
C2078 C 0.2954 0.83866 0.06602 0.0
C2079 C 0.30783 0.84822 0.06927 0.0
C2080 C 0.30869 0.85526 0.08361 0.0
C2081 C 0.29674 0.85377 0.09403 0.0
C2082 C 0.34414 0.85969 0.04879 0.0
C2083 C 0.33817 0.86588 0.03529 0.0
C2084 C 0.33438 0.85331 0.0597 0.0
C2085 C 0.31858 0.85272 0.05707 0.0
C2086 C 0.3128 0.85813 0.04316 0.0
C2087 C 0.32247 0.86475 0.03245 0.0
H2088 H 0.89248 0.54782 0.84871 0.0
H2089 H 0.91505 0.52001 0.81492 0.0
H2090 H 0.88837 0.56764 0.82971 0.0
H2091 H 0.91104 0.53995 0.79589 0.0
H2092 H 0.8881 0.60413 0.79383 0.0
H2093 H 0.89979 0.58658 0.8121 0.0
H2094 H 0.88725 0.54854 0.78347 0.0
H2095 H 0.87573 0.566 0.76527 0.0
C2096 C 0.89687 0.54609 0.8373 0.0
C2097 C 0.90394 0.53231 0.83326 0.0
C2098 C 0.89459 0.55749 0.82643 0.0
C2099 C 0.89927 0.5553 0.81126 0.0
C2100 C 0.90715 0.54188 0.80744 0.0
C2101 C 0.90951 0.53051 0.81836 0.0
C2102 C 0.88812 0.59204 0.79133 0.0
C2103 C 0.8809 0.58641 0.7782 0.0
C2104 C 0.89475 0.582 0.80181 0.0
C2105 C 0.89439 0.56618 0.79926 0.0
C2106 C 0.88789 0.56067 0.7857 0.0
C2107 C 0.88118 0.57067 0.77531 0.0
H2108 H 0.18137 0.12686 0.519 0.0
H2109 H 0.14214 0.14196 0.54462 0.0
H2110 H 0.19818 0.13879 0.53753 0.0
H2111 H 0.1591 0.15388 0.56341 0.0
H2112 H 0.22607 0.16653 0.56879 0.0
H2113 H 0.2063 0.16368 0.5494 0.0
H2114 H 0.17733 0.14118 0.58221 0.0
H2115 H 0.19706 0.14402 0.6016 0.0
C2116 C 0.17635 0.13298 0.52847 0.0
C2117 C 0.16049 0.1334 0.53047 0.0
C2118 C 0.18597 0.13992 0.53903 0.0
C2119 C 0.17994 0.14725 0.55191 0.0
C2120 C 0.16403 0.14826 0.55358 0.0
C2121 C 0.15435 0.1415 0.54283 0.0
C2122 C 0.21533 0.16132 0.57196 0.0
C2123 C 0.21317 0.15529 0.58663 0.0
C2124 C 0.20405 0.15967 0.56086 0.0
C2125 C 0.19036 0.15208 0.56428 0.0
C2126 C 0.18773 0.14716 0.57928 0.0
C2127 C 0.19906 0.1487 0.59035 0.0
H2128 H 0.11729 0.93162 0.76548 0.0
H2129 H 0.11207 0.89344 0.79611 0.0
H2130 H 0.1055 0.94832 0.78418 0.0
H2131 H 0.10007 0.91022 0.8149 0.0
H2132 H 0.10843 0.95091 0.84927 0.0
H2133 H 0.11153 0.93064 0.83059 0.0
H2134 H 0.08274 0.9552 0.7991 0.0
H2135 H 0.07977 0.97564 0.8178 0.0
C2136 C 0.11329 0.92674 0.77609 0.0
C2137 C 0.11575 0.91128 0.77943 0.0
C2138 C 0.10642 0.93629 0.78678 0.0
C2139 C 0.10194 0.93061 0.80107 0.0
C2140 C 0.10355 0.91494 0.80404 0.0
C2141 C 0.11034 0.90533 0.79327 0.0
C2142 C 0.1025 0.95183 0.83849 0.0
C2143 C 0.09405 0.96494 0.83489 0.0
C2144 C 0.10418 0.94016 0.82781 0.0
C2145 C 0.09749 0.94139 0.81331 0.0
C2146 C 0.08818 0.95404 0.81012 0.0
C2147 C 0.08644 0.9657 0.82083 0.0
H2148 H 0.6416 0.36443 0.45652 0.0
H2149 H 0.67975 0.38125 0.48266 0.0
H2150 H 0.65938 0.35302 0.4381 0.0
H2151 H 0.69736 0.36974 0.46456 0.0
H2152 H 0.726 0.33998 0.43478 0.0
H2153 H 0.70582 0.34391 0.45362 0.0
H2154 H 0.67836 0.36644 0.41959 0.0
H2155 H 0.69854 0.36265 0.40079 0.0
C2156 C 0.65375 0.36541 0.45847 0.0
C2157 C 0.65934 0.37379 0.4709 0.0
C2158 C 0.66389 0.35894 0.44795 0.0
C2159 C 0.67972 0.36048 0.44996 0.0
C2160 C 0.68522 0.36822 0.46283 0.0
C2161 C 0.67515 0.3749 0.47311 0.0
C2162 C 0.71553 0.34549 0.43125 0.0
C2163 C 0.71389 0.35118 0.41639 0.0
C2164 C 0.70401 0.34774 0.44203 0.0
C2165 C 0.69059 0.35553 0.43805 0.0
C2166 C 0.68854 0.36029 0.42292 0.0
C2167 C 0.70013 0.35822 0.4122 0.0
H2168 H 0.88866 0.45156 0.65136 0.0
H2169 H 0.91919 0.47406 0.68273 0.0
H2170 H 0.8846 0.43124 0.66978 0.0
H2171 H 0.9153 0.45353 0.70118 0.0
H2172 H 0.8819 0.42957 0.73547 0.0
H2173 H 0.89327 0.4467 0.71686 0.0
H2174 H 0.89531 0.40992 0.68419 0.0
H2175 H 0.88366 0.39278 0.70282 0.0
C2176 C 0.89476 0.45199 0.66209 0.0
C2177 C 0.90411 0.46448 0.66568 0.0
C2178 C 0.89252 0.44028 0.67262 0.0
C2179 C 0.89956 0.44081 0.687 0.0
C2180 C 0.90957 0.45289 0.69027 0.0
C2181 C 0.91186 0.46461 0.67968 0.0
C2182 C 0.88504 0.42506 0.72441 0.0
C2183 C 0.88173 0.40988 0.72054 0.0
C2184 C 0.89166 0.43486 0.71377 0.0
C2185 C 0.89508 0.42971 0.69899 0.0
C2186 C 0.89261 0.41427 0.69542 0.0
C2187 C 0.88602 0.40444 0.70611 0.0
H2188 H 0.64718 0.56638 0.21656 0.0
H2189 H 0.6114 0.59872 0.20656 0.0
H2190 H 0.63662 0.54882 0.19799 0.0
H2191 H 0.60076 0.58091 0.1877 0.0
H2192 H 0.58093 0.53394 0.16737 0.0
H2193 H 0.58882 0.55349 0.18584 0.0
H2194 H 0.63509 0.55016 0.16939 0.0
H2195 H 0.62736 0.53082 0.1512 0.0
C2196 C 0.637 0.56973 0.21042 0.0
C2197 C 0.6302 0.584 0.21291 0.0
C2198 C 0.63099 0.55968 0.19974 0.0
C2199 C 0.618 0.5636 0.19127 0.0
C2200 C 0.6108 0.57764 0.19409 0.0
C2201 C 0.6169 0.58781 0.20481 0.0
C2202 C 0.59273 0.53756 0.16763 0.0
C2203 C 0.60357 0.53073 0.15799 0.0
C2204 C 0.59722 0.54874 0.17814 0.0
C2205 C 0.6126 0.55314 0.17917 0.0
C2206 C 0.62321 0.54678 0.16904 0.0
C2207 C 0.61876 0.53572 0.15859 0.0
H2208 H 0.59566 0.71106 0.87766 0.0
H2209 H 0.58348 0.71131 0.83 0.0
H2210 H 0.57948 0.6892 0.88184 0.0
H2211 H 0.56772 0.68863 0.83394 0.0
H2212 H 0.52506 0.66312 0.85337 0.0
H2213 H 0.54441 0.68127 0.84484 0.0
H2214 H 0.57562 0.6635 0.87867 0.0
H2215 H 0.55579 0.64638 0.88781 0.0
C2216 C 0.58975 0.70619 0.86797 0.0
C2217 C 0.59078 0.71292 0.85352 0.0
C2218 C 0.58054 0.69349 0.87032 0.0
C2219 C 0.5723 0.68695 0.85821 0.0
C2220 C 0.57373 0.69343 0.84359 0.0
C2221 C 0.58282 0.70637 0.84129 0.0
C2222 C 0.53621 0.66296 0.85868 0.0
C2223 C 0.53901 0.65355 0.87127 0.0
C2224 C 0.54734 0.67331 0.8538 0.0
C2225 C 0.56153 0.67416 0.86129 0.0
C2226 C 0.56467 0.66362 0.87298 0.0
C2227 C 0.55342 0.65365 0.87811 0.0
H2228 H 0.52885 0.31972 0.082 0.0
H2229 H 0.5422 0.34832 0.1198 0.0
H2230 H 0.54869 0.30129 0.08905 0.0
H2231 H 0.56177 0.32991 0.12682 0.0
H2232 H 0.57263 0.28258 0.14746 0.0
H2233 H 0.55621 0.30226 0.1369 0.0
H2234 H 0.5793 0.2986 0.09362 0.0
H2235 H 0.59613 0.27886 0.10433 0.0
C2236 C 0.5362 0.32221 0.0916 0.0
C2237 C 0.53387 0.33536 0.10046 0.0
C2238 C 0.54755 0.31171 0.09558 0.0
C2239 C 0.55658 0.31416 0.10856 0.0
C2240 C 0.55483 0.32772 0.11685 0.0
C2241 C 0.54365 0.33825 0.1128 0.0
C2242 C 0.57423 0.28591 0.13568 0.0
C2243 C 0.58567 0.27921 0.12672 0.0
C2244 C 0.56489 0.29724 0.12968 0.0
C2245 C 0.56662 0.30201 0.11452 0.0
C2246 C 0.57781 0.29511 0.10537 0.0
C2247 C 0.5874 0.28387 0.11148 0.0
H2248 H 0.97539 0.31115 0.37953 0.0
H2249 H 0.95348 0.34787 0.35515 0.0
H2250 H 0.95805 0.29298 0.36794 0.0
H2251 H 0.93605 0.32951 0.34331 0.0
H2252 H 0.89527 0.29465 0.34988 0.0
H2253 H 0.91481 0.31407 0.35341 0.0
H2254 H 0.94976 0.28053 0.34455 0.0
H2255 H 0.9302 0.26103 0.34131 0.0
C2256 C 0.96701 0.3153 0.37146 0.0
C2257 C 0.9657 0.33094 0.36834 0.0
C2258 C 0.95714 0.30485 0.3647 0.0
C2259 C 0.94564 0.30978 0.3547 0.0
C2260 C 0.94472 0.32538 0.35106 0.0
C2261 C 0.95473 0.33587 0.35777 0.0
C2262 C 0.90711 0.2915 0.34834 0.0
C2263 C 0.91122 0.27628 0.34556 0.0
C2264 C 0.91832 0.30266 0.35028 0.0
C2265 C 0.93385 0.2988 0.34948 0.0
C2266 C 0.93789 0.2838 0.34551 0.0
C2267 C 0.92669 0.27265 0.34358 0.0
H2268 H 0.95108 0.64634 0.61254 0.0
H2269 H 0.96975 0.67336 0.57588 0.0
H2270 H 0.93059 0.66471 0.61575 0.0
H2271 H 0.94903 0.69178 0.57897 0.0
H2272 H 0.92933 0.72981 0.61171 0.0
H2273 H 0.94471 0.71011 0.59971 0.0
H2274 H 0.90806 0.67778 0.60575 0.0
H2275 H 0.8927 0.69753 0.618 0.0
C2276 C 0.95057 0.65603 0.6049 0.0
C2277 C 0.96211 0.65854 0.59411 0.0
C2278 C 0.93874 0.66652 0.60666 0.0
C2279 C 0.93825 0.67979 0.5977 0.0
C2280 C 0.94921 0.68175 0.58616 0.0
C2281 C 0.96102 0.67117 0.58434 0.0
C2282 C 0.92441 0.71859 0.61016 0.0
C2283 C 0.90991 0.71515 0.616 0.0
C2284 C 0.93319 0.70731 0.60317 0.0
C2285 C 0.92766 0.69232 0.60191 0.0
C2286 C 0.9127 0.68917 0.60674 0.0
C2287 C 0.90389 0.70049 0.61369 0.0
H2288 H 0.54972 0.34146 0.61128 0.0
H2289 H 0.52212 0.34098 0.65202 0.0
H2290 H 0.56844 0.32519 0.62364 0.0
H2291 H 0.54095 0.32435 0.66446 0.0
H2292 H 0.56585 0.27505 0.66337 0.0
H2293 H 0.54874 0.29649 0.65847 0.0
H2294 H 0.58723 0.32426 0.64551 0.0
H2295 H 0.60433 0.30289 0.65036 0.0
C2296 C 0.5478 0.33805 0.62299 0.0
C2297 C 0.53448 0.3424 0.63069 0.0
C2298 C 0.55857 0.32882 0.63011 0.0
C2299 C 0.55616 0.32354 0.64502 0.0
C2300 C 0.54305 0.32827 0.65295 0.0
C2301 C 0.53235 0.33781 0.64588 0.0
C2302 C 0.57069 0.28586 0.65989 0.0
C2303 C 0.58639 0.28723 0.657 0.0
C2304 C 0.5609 0.29815 0.65716 0.0
C2305 C 0.56666 0.31196 0.65143 0.0
C2306 C 0.58249 0.31368 0.64975 0.0
C2307 C 0.59227 0.30145 0.65256 0.0
H2308 H 0.949 0.35259 0.8828 0.0
H2309 H 0.96099 0.32875 0.92414 0.0
H2310 H 0.92793 0.33519 0.87875 0.0
H2311 H 0.93949 0.31141 0.92032 0.0
H2312 H 0.91963 0.27105 0.89127 0.0
H2313 H 0.93526 0.29095 0.90257 0.0
H2314 H 0.90378 0.32507 0.88605 0.0
H2315 H 0.88841 0.3051 0.87429 0.0
C2316 C 0.94688 0.34384 0.89124 0.0
C2317 C 0.95677 0.34191 0.90367 0.0
C2318 C 0.93469 0.3339 0.88899 0.0
C2319 C 0.93205 0.32178 0.89915 0.0
C2320 C 0.94134 0.32048 0.91216 0.0
C2321 C 0.95359 0.33046 0.91441 0.0
C2322 C 0.91587 0.28278 0.89034 0.0
C2323 C 0.90294 0.28655 0.88168 0.0
C2324 C 0.92479 0.29421 0.89691 0.0
C2325 C 0.92091 0.30966 0.89504 0.0
C2326 C 0.90727 0.31331 0.88743 0.0
C2327 C 0.89841 0.30187 0.88076 0.0
H2328 H 0.95448 0.64584 0.13886 0.0
H2329 H 0.98439 0.68319 0.12733 0.0
H2330 H 0.93625 0.6639 0.14988 0.0
H2331 H 0.96628 0.70115 0.13823 0.0
H2332 H 0.93414 0.73072 0.16403 0.0
H2333 H 0.95285 0.71022 0.16145 0.0
H2334 H 0.91978 0.68319 0.13699 0.0
H2335 H 0.90111 0.70357 0.13964 0.0
C2336 C 0.9573 0.65786 0.13899 0.0
C2337 C 0.97076 0.66315 0.13212 0.0
C2338 C 0.94686 0.66819 0.14522 0.0
C2339 C 0.9498 0.68394 0.14484 0.0
C2340 C 0.96373 0.68908 0.13885 0.0
C2341 C 0.97407 0.6788 0.1325 0.0
C2342 C 0.93079 0.72027 0.15839 0.0
C2343 C 0.91624 0.7188 0.15188 0.0
C2344 C 0.94151 0.70857 0.15687 0.0
C2345 C 0.93782 0.69515 0.14893 0.0
C2346 C 0.92294 0.69332 0.14329 0.0
C2347 C 0.91227 0.70505 0.14471 0.0
H2348 H 0.51022 0.69058 0.39718 0.0
H2349 H 0.54514 0.65882 0.41108 0.0
H2350 H 0.52974 0.70885 0.38974 0.0
H2351 H 0.56477 0.6769 0.40311 0.0
H2352 H 0.5971 0.7165 0.39194 0.0
H2353 H 0.57777 0.70149 0.40549 0.0
H2354 H 0.54641 0.70858 0.36817 0.0
H2355 H 0.56538 0.72365 0.35498 0.0
C2356 C 0.52209 0.68761 0.39886 0.0
C2357 C 0.52618 0.67323 0.40452 0.0
C2358 C 0.53328 0.69802 0.3945 0.0
C2359 C 0.54882 0.69419 0.39549 0.0
C2360 C 0.55292 0.68023 0.40222 0.0
C2361 C 0.54167 0.66985 0.40676 0.0
C2362 C 0.58602 0.71489 0.38674 0.0
C2363 C 0.58275 0.72124 0.37241 0.0
C2364 C 0.57498 0.70629 0.39447 0.0
C2365 C 0.56048 0.70396 0.38799 0.0
C2366 C 0.5573 0.71042 0.37369 0.0
C2367 C 0.56826 0.71896 0.36603 0.0
H2368 H 0.86761 0.60179 0.70057 0.0
H2369 H 0.83213 0.57393 0.72028 0.0
H2370 H 0.87103 0.58322 0.6803 0.0
H2371 H 0.8354 0.55533 0.69976 0.0
H2372 H 0.86793 0.51784 0.67917 0.0
H2373 H 0.8563 0.53746 0.69493 0.0
H2374 H 0.86084 0.56982 0.65809 0.0
H2375 H 0.87272 0.55014 0.64234 0.0
C2376 C 0.86028 0.59185 0.70036 0.0
C2377 C 0.84975 0.5892 0.71211 0.0
C2378 C 0.86216 0.58125 0.68866 0.0
C2379 C 0.85357 0.56773 0.68847 0.0
C2380 C 0.84232 0.56556 0.6997 0.0
C2381 C 0.8404 0.57623 0.7114 0.0
C2382 C 0.86614 0.52905 0.67431 0.0
C2383 C 0.87142 0.53252 0.6596 0.0
C2384 C 0.85937 0.54028 0.68331 0.0
C2385 C 0.85778 0.55525 0.67782 0.0
C2386 C 0.8621 0.55844 0.66271 0.0
C2387 C 0.86883 0.54716 0.65367 0.0
H2388 H 0.71299 0.61517 0.89981 0.0
H2389 H 0.72011 0.65314 0.93035 0.0
H2390 H 0.69281 0.60552 0.91668 0.0
H2391 H 0.70014 0.64358 0.94699 0.0
H2392 H 0.65235 0.63438 0.96232 0.0
H2393 H 0.67158 0.64127 0.94363 0.0
H2394 H 0.68929 0.59537 0.94464 0.0
H2395 H 0.66984 0.58835 0.96353 0.0
C2396 C 0.71032 0.62138 0.91014 0.0
C2397 C 0.71805 0.63496 0.91372 0.0
C2398 C 0.69883 0.61584 0.91978 0.0
C2399 C 0.69481 0.62392 0.93301 0.0
C2400 C 0.70283 0.63726 0.93672 0.0
C2401 C 0.71432 0.64269 0.92722 0.0
C2402 C 0.66021 0.62567 0.95847 0.0
C2403 C 0.6597 0.61086 0.96452 0.0
C2404 C 0.67126 0.62965 0.9478 0.0
C2405 C 0.68206 0.61892 0.94289 0.0
C2406 C 0.68108 0.60385 0.94826 0.0
C2407 C 0.66999 0.59986 0.95906 0.0
H2408 H 0.66377 0.41915 0.21021 0.0
H2409 H 0.61967 0.39726 0.21023 0.0
H2410 H 0.65526 0.43608 0.18962 0.0
H2411 H 0.61134 0.41384 0.18968 0.0
H2412 H 0.59501 0.4603 0.17357 0.0
H2413 H 0.6057 0.4414 0.19063 0.0
H2414 H 0.6456 0.43779 0.162 0.0
H2415 H 0.6348 0.45705 0.14472 0.0
C2416 C 0.65239 0.41777 0.20563 0.0
C2417 C 0.64229 0.40709 0.21198 0.0
C2418 C 0.64755 0.4274 0.19382 0.0
C2419 C 0.63256 0.42642 0.18823 0.0
C2420 C 0.62285 0.41506 0.19397 0.0
C2421 C 0.62764 0.40555 0.20573 0.0
C2422 C 0.60604 0.45548 0.17083 0.0
C2423 C 0.61405 0.46013 0.15778 0.0
C2424 C 0.61213 0.44456 0.18057 0.0
C2425 C 0.62641 0.43799 0.17756 0.0
C2426 C 0.63456 0.44269 0.16458 0.0
C2427 C 0.62837 0.45363 0.15469 0.0
H2428 H 0.79751 0.38288 0.39335 0.0
H2429 H 0.76199 0.39171 0.4263 0.0
H2430 H 0.81632 0.39374 0.41076 0.0
H2431 H 0.78081 0.40257 0.44367 0.0
H2432 H 0.81928 0.42583 0.47013 0.0
H2433 H 0.80145 0.42278 0.44876 0.0
H2434 H 0.82457 0.38138 0.43556 0.0
H2435 H 0.84211 0.3843 0.45683 0.0
C2436 C 0.79365 0.38756 0.4041 0.0
C2437 C 0.77832 0.38626 0.40856 0.0
C2438 C 0.80442 0.3937 0.41409 0.0
C2439 C 0.80004 0.39879 0.42863 0.0
C2440 C 0.78451 0.39878 0.43251 0.0
C2441 C 0.77375 0.39251 0.42258 0.0
C2442 C 0.82062 0.41621 0.46252 0.0
C2443 C 0.83197 0.40523 0.46517 0.0
C2444 C 0.81044 0.41447 0.45033 0.0
C2445 C 0.81169 0.4019 0.44046 0.0
C2446 C 0.82346 0.3913 0.44283 0.0
C2447 C 0.83341 0.3929 0.4551 0.0
H2448 H 0.83057 0.42567 0.77879 0.0
H2449 H 0.86391 0.39675 0.8006 0.0
H2450 H 0.83314 0.44417 0.79944 0.0
H2451 H 0.86673 0.41528 0.82097 0.0
H2452 H 0.86858 0.44887 0.85822 0.0
H2453 H 0.85648 0.42938 0.84242 0.0
H2454 H 0.85391 0.46143 0.8051 0.0
H2455 H 0.86563 0.48087 0.82093 0.0
C2456 C 0.83822 0.42313 0.78814 0.0
C2457 C 0.84721 0.40988 0.78798 0.0
C2458 C 0.83974 0.43375 0.79993 0.0
C2459 C 0.85028 0.4313 0.81176 0.0
C2460 C 0.85841 0.41749 0.81213 0.0
C2461 C 0.85688 0.4069 0.80037 0.0
C2462 C 0.86504 0.45183 0.84677 0.0
C2463 C 0.86823 0.46631 0.84073 0.0
C2464 C 0.8582 0.44066 0.8377 0.0
C2465 C 0.85441 0.44378 0.82244 0.0
C2466 C 0.85655 0.45864 0.81683 0.0
C2467 C 0.86338 0.46978 0.82588 0.0
H2468 H 0.77404 0.63569 0.06113 0.0
H2469 H 0.79629 0.61238 0.09835 0.0
H2470 H 0.79095 0.6232 0.0431 0.0
H2471 H 0.81331 0.59972 0.08014 0.0
H2472 H 0.85327 0.60397 0.04402 0.0
H2473 H 0.83432 0.60925 0.06362 0.0
H2474 H 0.79836 0.59852 0.03177 0.0
H2475 H 0.81737 0.59338 0.01206 0.0
C2476 C 0.78245 0.62773 0.06544 0.0
C2477 C 0.78394 0.6251 0.08115 0.0
C2478 C 0.79205 0.62045 0.05508 0.0
C2479 C 0.80346 0.61045 0.06019 0.0
C2480 C 0.80467 0.60744 0.07589 0.0
C2481 C 0.79492 0.61464 0.08629 0.0
C2482 C 0.84133 0.60242 0.04129 0.0
C2483 C 0.83678 0.59846 0.02646 0.0
C2484 C 0.83047 0.60536 0.05256 0.0
C2485 C 0.81484 0.60446 0.04919 0.0
C2486 C 0.81033 0.5995 0.03463 0.0
C2487 C 0.8212 0.59649 0.02337 0.0
H2488 H 0.6676 0.57657 0.2815 0.0
H2489 H 0.62414 0.59913 0.28681 0.0
H2490 H 0.66061 0.5586 0.30185 0.0
H2491 H 0.61731 0.5814 0.30696 0.0
H2492 H 0.60163 0.53372 0.32002 0.0
H2493 H 0.61202 0.55292 0.30308 0.0
H2494 H 0.65214 0.55655 0.3313 0.0
H2495 H 0.64161 0.5371 0.3486 0.0
C2496 C 0.65673 0.57788 0.28721 0.0
C2497 C 0.6463 0.58906 0.28242 0.0
C2498 C 0.65277 0.56765 0.29885 0.0
C2499 C 0.63834 0.56851 0.30576 0.0
C2500 C 0.62841 0.58035 0.30163 0.0
C2501 C 0.63233 0.5905 0.2901 0.0
C2502 C 0.61269 0.53853 0.32267 0.0
C2503 C 0.62077 0.53397 0.3357 0.0
C2504 C 0.6186 0.54959 0.31298 0.0
C2505 C 0.63278 0.55633 0.316 0.0
C2506 C 0.64116 0.55151 0.32878 0.0
C2507 C 0.63513 0.54046 0.33865 0.0
H2508 H 0.66493 0.41918 0.53935 0.0
H2509 H 0.65709 0.37057 0.53762 0.0
H2510 H 0.68522 0.41509 0.5583 0.0
H2511 H 0.67729 0.36661 0.55616 0.0
H2512 H 0.72726 0.36474 0.56911 0.0
H2513 H 0.70735 0.37328 0.55182 0.0
H2514 H 0.68779 0.40085 0.58752 0.0
H2515 H 0.70776 0.39212 0.60514 0.0
C2516 C 0.6674 0.40769 0.54313 0.0
C2517 C 0.65952 0.39518 0.53694 0.0
C2518 C 0.67895 0.40538 0.55394 0.0
C2519 C 0.68284 0.39054 0.55846 0.0
C2520 C 0.67457 0.37815 0.55269 0.0
C2521 C 0.66298 0.38044 0.54212 0.0
C2522 C 0.7189 0.37281 0.57327 0.0
C2523 C 0.71895 0.37762 0.58854 0.0
C2524 C 0.70751 0.37767 0.56336 0.0
C2525 C 0.69602 0.38755 0.56845 0.0
C2526 C 0.69658 0.39322 0.58339 0.0
C2527 C 0.70796 0.38822 0.59343 0.0
H2528 H 0.72861 0.83102 0.57182 0.0
H2529 H 0.70231 0.85521 0.60569 0.0
H2530 H 0.70811 0.83475 0.55332 0.0
H2531 H 0.68188 0.85894 0.58723 0.0
H2532 H 0.64484 0.85959 0.55144 0.0
H2533 H 0.66215 0.84723 0.56963 0.0
H2534 H 0.70051 0.85964 0.54137 0.0
H2535 H 0.68337 0.87197 0.52342 0.0
C2536 C 0.7183 0.83678 0.57542 0.0
C2537 C 0.71712 0.84301 0.59012 0.0
C2538 C 0.7066 0.83896 0.56483 0.0
C2539 C 0.69348 0.84726 0.5688 0.0
C2540 C 0.69181 0.85241 0.58386 0.0
C2541 C 0.70355 0.85036 0.59441 0.0
C2542 C 0.65695 0.85939 0.54903 0.0
C2543 C 0.66281 0.86683 0.53613 0.0
C2544 C 0.66683 0.85237 0.55942 0.0
C2545 C 0.68267 0.85247 0.5569 0.0
C2546 C 0.68836 0.8592 0.54354 0.0
C2547 C 0.67855 0.86638 0.53332 0.0
H2548 H 0.20398 0.63084 0.40146 0.0
H2549 H 0.2128 0.67394 0.42353 0.0
H2550 H 0.18243 0.62653 0.41829 0.0
H2551 H 0.19099 0.66964 0.44048 0.0
H2552 H 0.17129 0.63923 0.48087 0.0
H2553 H 0.18725 0.65114 0.46154 0.0
H2554 H 0.15689 0.63479 0.42641 0.0
H2555 H 0.141 0.62268 0.44579 0.0
C2556 C 0.20113 0.63953 0.40976 0.0
C2557 C 0.21016 0.65264 0.41131 0.0
C2558 C 0.18867 0.63713 0.41932 0.0
C2559 C 0.18499 0.64775 0.43073 0.0
C2560 C 0.19361 0.66123 0.43184 0.0
C2561 C 0.20605 0.6637 0.42213 0.0
C2562 C 0.16779 0.63853 0.46906 0.0
C2563 C 0.15505 0.62981 0.46482 0.0
C2564 C 0.1769 0.64543 0.45797 0.0
C2565 C 0.17345 0.6437 0.44243 0.0
C2566 C 0.15995 0.6361 0.43829 0.0
C2567 C 0.15082 0.62924 0.44939 0.0
H2568 H 0.61174 0.90172 0.71052 0.0
H2569 H 0.64268 0.93497 0.72958 0.0
H2570 H 0.60347 0.92052 0.69146 0.0
H2571 H 0.63456 0.95346 0.71058 0.0
H2572 H 0.63553 0.96973 0.66102 0.0
H2573 H 0.63937 0.95044 0.68053 0.0
H2574 H 0.59112 0.95005 0.69004 0.0
H2575 H 0.58716 0.96975 0.67045 0.0
C2576 C 0.61656 0.91308 0.71081 0.0
C2577 C 0.62798 0.91684 0.72142 0.0
C2578 C 0.61181 0.9238 0.69995 0.0
C2579 C 0.61854 0.93831 0.69952 0.0
C2580 C 0.62934 0.94227 0.71062 0.0
C2581 C 0.63395 0.93168 0.7215 0.0
C2582 C 0.62567 0.96548 0.66713 0.0
C2583 C 0.61105 0.97134 0.66429 0.0
C2584 C 0.62791 0.95448 0.67833 0.0
C2585 C 0.61556 0.94895 0.68684 0.0
C2586 C 0.6008 0.95421 0.68359 0.0
C2587 C 0.59856 0.96545 0.67244 0.0
H2588 H 0.32466 0.35699 0.97362 0.0
H2589 H 0.35641 0.37054 0.93852 0.0
H2590 H 0.30655 0.34885 0.95413 0.0
H2591 H 0.33823 0.36245 0.91901 0.0
H2592 H 0.29114 0.37282 0.89533 0.0
H2593 H 0.31279 0.37476 0.91261 0.0
H2594 H 0.30164 0.33077 0.93166 0.0
H2595 H 0.27993 0.32874 0.91416 0.0
C2596 C 0.32789 0.35791 0.96175 0.0
C2597 C 0.34187 0.36453 0.95758 0.0
C2598 C 0.31756 0.35318 0.95059 0.0
C2599 C 0.32095 0.35515 0.93507 0.0
C2600 C 0.3353 0.36094 0.93091 0.0
C2601 C 0.34571 0.3655 0.94207 0.0
C2602 C 0.29342 0.36347 0.90307 0.0
C2603 C 0.28382 0.35068 0.90349 0.0
C2604 C 0.30589 0.36452 0.91287 0.0
C2605 C 0.3089 0.3529 0.92345 0.0
C2606 C 0.29954 0.3399 0.92362 0.0
C2607 C 0.28717 0.33873 0.91361 0.0
H2608 H 0.41724 0.52869 0.67857 0.0
H2609 H 0.38268 0.55019 0.65089 0.0
H2610 H 0.41486 0.54922 0.69736 0.0
H2611 H 0.38028 0.57054 0.66955 0.0
H2612 H 0.38274 0.57213 0.73447 0.0
H2613 H 0.39361 0.55538 0.71518 0.0
H2614 H 0.39271 0.59226 0.68259 0.0
H2615 H 0.38168 0.60903 0.7019 0.0
C2616 C 0.40937 0.53795 0.67637 0.0
C2617 C 0.40003 0.53779 0.66337 0.0
C2618 C 0.40798 0.54965 0.68713 0.0
C2619 C 0.39736 0.56146 0.68496 0.0
C2620 C 0.3887 0.56172 0.67149 0.0
C2621 C 0.38998 0.54998 0.66085 0.0
C2622 C 0.3852 0.57677 0.72329 0.0
C2623 C 0.38117 0.59182 0.71962 0.0
C2624 C 0.39152 0.56719 0.71226 0.0
C2625 C 0.39386 0.57246 0.69732 0.0
C2626 C 0.39085 0.58784 0.69397 0.0
C2627 C 0.3846 0.59745 0.70504 0.0
H2628 H 0.77432 0.16307 0.0689 0.0
H2629 H 0.79821 0.13149 0.09814 0.0
H2630 H 0.79477 0.16091 0.04998 0.0
H2631 H 0.81846 0.12929 0.07936 0.0
H2632 H 0.8565 0.13116 0.04656 0.0
H2633 H 0.83924 0.14218 0.06544 0.0
H2634 H 0.80215 0.13928 0.03321 0.0
H2635 H 0.81939 0.12844 0.01433 0.0
C2636 C 0.78407 0.15592 0.07141 0.0
C2637 C 0.78463 0.14733 0.08491 0.0
C2638 C 0.79573 0.15464 0.06057 0.0
C2639 C 0.8082 0.1449 0.06316 0.0
C2640 C 0.80912 0.13703 0.07708 0.0
C2641 C 0.79744 0.1382 0.0878 0.0
C2642 C 0.84475 0.13324 0.04339 0.0
C2643 C 0.83923 0.12875 0.02906 0.0
C2644 C 0.83486 0.13948 0.05422 0.0
C2645 C 0.8193 0.14142 0.05087 0.0
C2646 C 0.81408 0.13803 0.03612 0.0
C2647 C 0.82395 0.13173 0.02532 0.0
H2648 H 0.61976 0.04697 0.85158 0.0
H2649 H 0.58413 0.028 0.82341 0.0
H2650 H 0.62182 0.06865 0.83455 0.0
H2651 H 0.58591 0.05005 0.80641 0.0
H2652 H 0.61433 0.07683 0.76971 0.0
H2653 H 0.6046 0.05842 0.78801 0.0
H2654 H 0.61054 0.09127 0.82423 0.0
H2655 H 0.62074 0.10955 0.80591 0.0
C2656 C 0.61214 0.0476 0.84188 0.0
C2657 C 0.60191 0.03572 0.83873 0.0
C2658 C 0.61322 0.06012 0.83217 0.0
C2659 C 0.60405 0.0611 0.81906 0.0
C2660 C 0.59326 0.04955 0.81631 0.0
C2661 C 0.59219 0.03697 0.82607 0.0
C2662 C 0.61324 0.08024 0.78153 0.0
C2663 C 0.61853 0.09453 0.78643 0.0
C2664 C 0.60757 0.0697 0.79203 0.0
C2665 C 0.60701 0.07328 0.80764 0.0
C2666 C 0.61113 0.08805 0.81233 0.0
C2667 C 0.61689 0.09855 0.80183 0.0
H2668 H 0.9207 0.9682 0.32379 0.0
H2669 H 0.88628 0.94656 0.35155 0.0
H2670 H 0.91854 0.94762 0.30513 0.0
H2671 H 0.88384 0.92631 0.33288 0.0
H2672 H 0.88231 0.8892 0.29956 0.0
H2673 H 0.89419 0.90484 0.31927 0.0
H2674 H 0.89861 0.94187 0.28709 0.0
H2675 H 0.88717 0.92615 0.2674 0.0
C2676 C 0.91288 0.95891 0.32603 0.0
C2677 C 0.9035 0.95908 0.339 0.0
C2678 C 0.9116 0.94716 0.31533 0.0
C2679 C 0.90091 0.93539 0.31742 0.0
C2680 C 0.89231 0.93507 0.33094 0.0
C2681 C 0.89361 0.94678 0.34161 0.0
C2682 C 0.88621 0.90054 0.29662 0.0
C2683 C 0.8836 0.90655 0.28202 0.0
C2684 C 0.89294 0.90953 0.30792 0.0
C2685 C 0.89713 0.9247 0.30484 0.0
C2686 C 0.89564 0.93022 0.28987 0.0
C2687 C 0.88896 0.92123 0.27858 0.0
H2688 H 0.44627 0.35695 0.12528 0.0
H2689 H 0.47909 0.32083 0.13175 0.0
H2690 H 0.42668 0.34127 0.13745 0.0
H2691 H 0.45959 0.30514 0.1436 0.0
H2692 H 0.42376 0.27988 0.16815 0.0
H2693 H 0.4418 0.30075 0.16442 0.0
H2694 H 0.41359 0.31855 0.12818 0.0
H2695 H 0.39549 0.29792 0.13211 0.0
C2696 C 0.44937 0.3458 0.12958 0.0
C2697 C 0.46414 0.34002 0.12741 0.0
C2698 C 0.43814 0.3368 0.13647 0.0
C2699 C 0.44153 0.32191 0.14136 0.0
C2700 C 0.4566 0.3166 0.14012 0.0
C2701 C 0.46777 0.32555 0.1332 0.0
C2702 C 0.42125 0.28846 0.15964 0.0
C2703 C 0.40834 0.28717 0.15027 0.0
C2704 C 0.43161 0.30037 0.15746 0.0
C2705 C 0.42922 0.31121 0.14589 0.0
C2706 C 0.41573 0.31049 0.13728 0.0
C2707 C 0.40539 0.29859 0.13946 0.0
H2708 H 0.43386 0.72214 0.8416 0.0
H2709 H 0.4043 0.71742 0.88072 0.0
H2710 H 0.45045 0.70247 0.85162 0.0
H2711 H 0.42113 0.69738 0.89083 0.0
H2712 H 0.46784 0.67383 0.90761 0.0
H2713 H 0.44915 0.69345 0.90038 0.0
H2714 H 0.44692 0.67441 0.85507 0.0
H2715 H 0.46547 0.65515 0.86211 0.0
C2716 C 0.43091 0.71691 0.85239 0.0
C2717 C 0.41769 0.72124 0.86032 0.0
C2718 C 0.4404 0.70558 0.8581 0.0
C2719 C 0.43696 0.69826 0.87189 0.0
C2720 C 0.42402 0.70286 0.88015 0.0
C2721 C 0.41439 0.71425 0.87436 0.0
C2722 C 0.4632 0.6738 0.89617 0.0
C2723 C 0.46827 0.66312 0.88535 0.0
C2724 C 0.45249 0.68496 0.89207 0.0
C2725 C 0.44679 0.68556 0.87711 0.0
C2726 C 0.45135 0.6744 0.86659 0.0
C2727 C 0.46197 0.66335 0.87065 0.0
H2728 H 0.03438 0.65097 0.64142 0.0
H2729 H 0.01944 0.68611 0.61034 0.0
H2730 H 0.05043 0.66955 0.65463 0.0
H2731 H 0.03559 0.70452 0.62329 0.0
H2732 H 0.05987 0.73736 0.65321 0.0
H2733 H 0.04022 0.71876 0.64666 0.0
H2734 H 0.07392 0.68285 0.64777 0.0
H2735 H 0.09344 0.70136 0.65456 0.0
C2736 C 0.0344 0.66269 0.63752 0.0
C2737 C 0.02577 0.66708 0.62478 0.0
C2738 C 0.04362 0.6733 0.64504 0.0
C2739 C 0.04433 0.6885 0.63998 0.0
C2740 C 0.03517 0.69297 0.62763 0.0
C2741 C 0.026 0.68238 0.62011 0.0
C2742 C 0.06299 0.72544 0.65236 0.0
C2743 C 0.0782 0.72082 0.65423 0.0
C2744 C 0.05176 0.71481 0.64853 0.0
C2745 C 0.05554 0.69936 0.64652 0.0
C2746 C 0.07059 0.69463 0.64934 0.0
C2747 C 0.0818 0.70526 0.65315 0.0
H2748 H 0.06946 0.26909 0.38366 0.0
H2749 H 0.10415 0.30347 0.3775 0.0
H2750 H 0.05243 0.28813 0.39448 0.0
H2751 H 0.08706 0.3226 0.38846 0.0
H2752 H 0.04194 0.35059 0.37922 0.0
H2753 H 0.06359 0.33342 0.3769 0.0
H2754 H 0.04677 0.30698 0.41487 0.0
H2755 H 0.02494 0.32423 0.41715 0.0
C2756 C 0.07358 0.28066 0.38499 0.0
C2757 C 0.08804 0.28485 0.37956 0.0
C2758 C 0.06386 0.29155 0.39129 0.0
C2759 C 0.06836 0.30689 0.3922 0.0
C2760 C 0.08324 0.31088 0.38776 0.0
C2761 C 0.09304 0.29993 0.38156 0.0
C2762 C 0.04302 0.34129 0.38728 0.0
C2763 C 0.03167 0.33862 0.39824 0.0
C2764 C 0.0555 0.33152 0.38604 0.0
C2765 C 0.05685 0.3188 0.39566 0.0
C2766 C 0.04595 0.31663 0.40723 0.0
C2767 C 0.0335 0.32652 0.40856 0.0
H2768 H 0.39379 0.69408 0.34991 0.0
H2769 H 0.43413 0.72075 0.34078 0.0
H2770 H 0.40965 0.67183 0.35506 0.0
H2771 H 0.45001 0.69876 0.34644 0.0
H2772 H 0.4771 0.65741 0.35544 0.0
H2773 H 0.45924 0.67361 0.34151 0.0
H2774 H 0.42525 0.66578 0.37633 0.0
H2775 H 0.44285 0.64933 0.38986 0.0
C2776 C 0.40604 0.69511 0.34876 0.0
C2777 C 0.41274 0.7092 0.34516 0.0
C2778 C 0.41514 0.68239 0.35179 0.0
C2779 C 0.43113 0.68353 0.35144 0.0
C2780 C 0.43775 0.69737 0.34672 0.0
C2781 C 0.42864 0.71004 0.34356 0.0
C2782 C 0.46566 0.65883 0.35986 0.0
C2783 C 0.46143 0.65226 0.37383 0.0
C2784 C 0.45546 0.66821 0.35195 0.0
C2785 C 0.44086 0.67121 0.35789 0.0
C2786 C 0.43632 0.66366 0.37129 0.0
C2787 C 0.44647 0.65427 0.37914 0.0
H2788 H 0.05086 0.64129 0.11214 0.0
H2789 H 0.02665 0.67847 0.09091 0.0
H2790 H 0.07235 0.65811 0.11723 0.0
H2791 H 0.04779 0.69557 0.09668 0.0
H2792 H 0.08927 0.72385 0.10737 0.0
H2793 H 0.07366 0.7044 0.09474 0.0
H2794 H 0.0747 0.67723 0.13585 0.0
H2795 H 0.09048 0.69617 0.14806 0.0
C2796 C 0.05025 0.65303 0.10837 0.0
C2797 C 0.03704 0.65866 0.10135 0.0
C2798 C 0.06251 0.66271 0.11136 0.0
C2799 C 0.06166 0.67831 0.10773 0.0
C2800 C 0.04889 0.68364 0.0996 0.0
C2801 C 0.03673 0.67385 0.09635 0.0
C2802 C 0.08636 0.71355 0.11353 0.0
C2803 C 0.09099 0.71156 0.12872 0.0
C2804 C 0.07737 0.70246 0.10634 0.0
C2805 C 0.07289 0.68922 0.11425 0.0
C2806 C 0.07812 0.68707 0.12924 0.0
C2807 C 0.08707 0.69806 0.13634 0.0
H2808 H 0.07257 0.26632 0.87941 0.0
H2809 H 0.07484 0.28258 0.83299 0.0
H2810 H 0.05336 0.28533 0.88524 0.0
H2811 H 0.05532 0.30178 0.83888 0.0
H2812 H 0.03671 0.34542 0.86545 0.0
H2813 H 0.05335 0.3254 0.85534 0.0
H2814 H 0.02673 0.29145 0.87905 0.0
H2815 H 0.01034 0.31135 0.88928 0.0
C2816 C 0.06886 0.2739 0.8704 0.0
C2817 C 0.07522 0.27297 0.85575 0.0
C2818 C 0.05776 0.28474 0.87372 0.0
C2819 C 0.05275 0.29499 0.86249 0.0
C2820 C 0.05901 0.29404 0.84776 0.0
C2821 C 0.0701 0.28304 0.84438 0.0
C2822 C 0.0343 0.33365 0.86828 0.0
C2823 C 0.02238 0.32996 0.87832 0.0
C2824 C 0.04377 0.3222 0.86245 0.0
C2825 C 0.04145 0.30689 0.86658 0.0
C2826 C 0.02896 0.30317 0.87589 0.0
C2827 C 0.01955 0.31458 0.88172 0.0
H2828 H 0.45709 0.34251 0.63219 0.0
H2829 H 0.46493 0.32379 0.58734 0.0
H2830 H 0.4358 0.32514 0.63581 0.0
H2831 H 0.44348 0.30619 0.59104 0.0
H2832 H 0.4211 0.26459 0.61848 0.0
H2833 H 0.439 0.28367 0.60897 0.0
H2834 H 0.40963 0.31949 0.62561 0.0
H2835 H 0.39174 0.30043 0.63517 0.0
C2836 C 0.45418 0.33473 0.62305 0.0
C2837 C 0.46271 0.33443 0.60951 0.0
C2838 C 0.44189 0.32488 0.62507 0.0
C2839 C 0.43792 0.31438 0.61367 0.0
C2840 C 0.44632 0.31418 0.60001 0.0
C2841 C 0.45854 0.32423 0.59789 0.0
C2842 C 0.4183 0.27654 0.61979 0.0
C2843 C 0.40513 0.28103 0.62774 0.0
C2844 C 0.42851 0.28746 0.61428 0.0
C2845 C 0.42578 0.30304 0.61672 0.0
C2846 C 0.4121 0.30753 0.62375 0.0
C2847 C 0.40183 0.29663 0.62916 0.0
H2848 H 0.14033 0.46482 0.34156 0.0
H2849 H 0.09732 0.44093 0.34153 0.0
H2850 H 0.14991 0.44754 0.32177 0.0
H2851 H 0.10694 0.42349 0.32225 0.0
H2852 H 0.11769 0.41446 0.27281 0.0
H2853 H 0.11145 0.4289 0.29546 0.0
H2854 H 0.15664 0.42089 0.31329 0.0
H2855 H 0.16307 0.40641 0.29015 0.0
C2856 C 0.13312 0.45559 0.33766 0.0
C2857 C 0.11802 0.45432 0.34286 0.0
C2858 C 0.13859 0.44571 0.32635 0.0
C2859 C 0.12904 0.43439 0.32021 0.0
C2860 C 0.11443 0.43237 0.32645 0.0
C2861 C 0.10894 0.44229 0.33756 0.0
C2862 C 0.12635 0.41574 0.28152 0.0
C2863 C 0.14084 0.40921 0.27974 0.0
C2864 C 0.12272 0.42392 0.29459 0.0
C2865 C 0.13345 0.42578 0.30632 0.0
C2866 C 0.14813 0.41959 0.30445 0.0
C2867 C 0.15179 0.41132 0.29125 0.0
H2868 H 0.35957 0.37079 0.04043 0.0
H2869 H 0.32811 0.40577 0.02595 0.0
H2870 H 0.34351 0.36535 0.06238 0.0
H2871 H 0.31176 0.40006 0.04785 0.0
H2872 H 0.288 0.38853 0.09321 0.0
H2873 H 0.30807 0.39855 0.07639 0.0
H2874 H 0.31872 0.35263 0.06212 0.0
H2875 H 0.299 0.34278 0.07875 0.0
C2876 C 0.34931 0.37747 0.04207 0.0
C2877 C 0.34493 0.38852 0.03136 0.0
C2878 C 0.34011 0.37434 0.05463 0.0
C2879 C 0.32623 0.38208 0.05668 0.0
C2880 C 0.32241 0.39394 0.0466 0.0
C2881 C 0.33172 0.39716 0.03403 0.0
C2882 C 0.29484 0.38063 0.08663 0.0
C2883 C 0.29194 0.36489 0.08723 0.0
C2884 C 0.30623 0.38635 0.07697 0.0
C2885 C 0.31501 0.37637 0.06799 0.0
C2886 C 0.31236 0.36062 0.06906 0.0
C2887 C 0.30096 0.35497 0.07852 0.0
H2888 H 0.36716 0.55178 0.85855 0.0
H2889 H 0.3584 0.51846 0.8234 0.0
H2890 H 0.35732 0.57185 0.84193 0.0
H2891 H 0.34895 0.53844 0.80673 0.0
H2892 H 0.32836 0.57597 0.77979 0.0
H2893 H 0.33035 0.5578 0.8008 0.0
H2894 H 0.36794 0.58361 0.81941 0.0
H2895 H 0.3657 0.60187 0.79869 0.0
C2896 C 0.36285 0.5487 0.8474 0.0
C2897 C 0.36371 0.53358 0.84221 0.0
C2898 C 0.35731 0.56021 0.83784 0.0
C2899 C 0.35252 0.5568 0.82292 0.0
C2900 C 0.3524 0.54149 0.81818 0.0
C2901 C 0.35792 0.53002 0.82772 0.0
C2902 C 0.33683 0.57791 0.78855 0.0
C2903 C 0.34699 0.59024 0.78752 0.0
C2904 C 0.33802 0.56746 0.80055 0.0
C2905 C 0.34939 0.56915 0.81173 0.0
C2906 C 0.35894 0.58202 0.81112 0.0
C2907 C 0.35774 0.59245 0.79916 0.0
H2908 H 0.21139 0.60388 0.60089 0.0
H2909 H 0.23062 0.62974 0.56367 0.0
H2910 H 0.19479 0.59043 0.5829 0.0
H2911 H 0.2141 0.61648 0.54584 0.0
H2912 H 0.18898 0.5866 0.51463 0.0
H2913 H 0.20816 0.59177 0.53406 0.0
H2914 H 0.17255 0.59863 0.56736 0.0
H2915 H 0.15337 0.59323 0.54799 0.0
C2916 C 0.21221 0.60652 0.58886 0.0
C2917 C 0.2222 0.61792 0.58367 0.0
C2918 C 0.2027 0.59887 0.57859 0.0
C2919 C 0.20315 0.60237 0.56295 0.0
C2920 C 0.21362 0.61333 0.55777 0.0
C2921 C 0.223 0.62104 0.56801 0.0
C2922 C 0.18526 0.5888 0.52619 0.0
C2923 C 0.16968 0.58974 0.52975 0.0
C2924 C 0.19624 0.59185 0.5373 0.0
C2925 C 0.19185 0.59587 0.55217 0.0
C2926 C 0.1763 0.59551 0.55602 0.0
C2927 C 0.16531 0.59247 0.5449 0.0
H2928 H 0.17151 0.57507 0.21427 0.0
H2929 H 0.12839 0.59669 0.20447 0.0
H2930 H 0.16798 0.5582 0.19225 0.0
H2931 H 0.12493 0.58003 0.18258 0.0
H2932 H 0.1254 0.55418 0.13904 0.0
H2933 H 0.1355 0.57305 0.15687 0.0
H2934 H 0.14891 0.53694 0.18749 0.0
H2935 H 0.13883 0.51809 0.16971 0.0
C2936 C 0.16143 0.57638 0.20727 0.0
C2937 C 0.15016 0.58709 0.21112 0.0
C2938 C 0.15939 0.56672 0.19472 0.0
C2939 C 0.14619 0.56782 0.18569 0.0
C2940 C 0.13531 0.57903 0.18918 0.0
C2941 C 0.13723 0.5885 0.2018 0.0
C2942 C 0.13084 0.55026 0.1494 0.0
C2943 C 0.13118 0.53468 0.15307 0.0
C2944 C 0.13656 0.56106 0.15963 0.0
C2945 C 0.14286 0.55646 0.17362 0.0
C2946 C 0.14421 0.54082 0.17676 0.0
C2947 C 0.13837 0.53003 0.16661 0.0
H2948 H 0.14447 0.38054 0.94946 0.0
H2949 H 0.17177 0.42038 0.95908 0.0
H2950 H 0.16226 0.37314 0.9295 0.0
H2951 H 0.18967 0.41287 0.93892 0.0
H2952 H 0.2125 0.39481 0.89291 0.0
H2953 H 0.19256 0.40614 0.90911 0.0
H2954 H 0.18987 0.36427 0.9348 0.0
H2955 H 0.20966 0.35312 0.91898 0.0
C2956 C 0.1541 0.3879 0.94709 0.0
C2957 C 0.15686 0.40091 0.95598 0.0
C2958 C 0.16429 0.38364 0.93568 0.0
C2959 C 0.17743 0.39232 0.93287 0.0
C2960 C 0.17959 0.40601 0.94088 0.0
C2961 C 0.16938 0.41027 0.95241 0.0
C2962 C 0.20763 0.3881 0.90206 0.0
C2963 C 0.2126 0.37309 0.90469 0.0
C2964 C 0.19628 0.39457 0.91129 0.0
C2965 C 0.18959 0.38599 0.92304 0.0
C2966 C 0.19467 0.37105 0.92566 0.0
C2967 C 0.20608 0.36471 0.91665 0.0
H2968 H 0.363 0.48221 0.67642 0.0
H2969 H 0.37147 0.44955 0.64059 0.0
H2970 H 0.35333 0.46198 0.69266 0.0
H2971 H 0.36138 0.42924 0.65675 0.0
H2972 H 0.36974 0.39838 0.69941 0.0
H2973 H 0.37189 0.4169 0.67893 0.0
H2974 H 0.33464 0.44269 0.69829 0.0
H2975 H 0.33277 0.42425 0.71908 0.0
C2976 C 0.36241 0.47075 0.67186 0.0
C2977 C 0.36819 0.46743 0.65731 0.0
C2978 C 0.35676 0.45914 0.68115 0.0
C2979 C 0.35672 0.44393 0.67608 0.0
C2980 C 0.3615 0.44079 0.66109 0.0
C2981 C 0.36718 0.45243 0.6518 0.0
C2982 C 0.36182 0.40784 0.69914 0.0
C2983 C 0.35123 0.40998 0.71095 0.0
C2984 C 0.36297 0.41843 0.68732 0.0
C2985 C 0.35352 0.43138 0.68702 0.0
C2986 C 0.34225 0.43297 0.69832 0.0
C2987 C 0.34112 0.42237 0.71018 0.0
H2988 H 0.31693 0.58887 0.47665 0.0
H2989 H 0.34962 0.6166 0.45244 0.0
H2990 H 0.29802 0.59388 0.45676 0.0
H2991 H 0.3308 0.6215 0.43257 0.0
H2992 H 0.29507 0.62196 0.39521 0.0
H2993 H 0.31375 0.60959 0.41196 0.0
H2994 H 0.28516 0.61928 0.45084 0.0
H2995 H 0.2667 0.63171 0.43424 0.0
C2996 C 0.32018 0.59573 0.46692 0.0
C2997 C 0.33467 0.60249 0.46615 0.0
C2998 C 0.30936 0.59862 0.45558 0.0
C2999 C 0.31294 0.60813 0.44319 0.0
C3000 C 0.32777 0.61403 0.44193 0.0
C3001 C 0.3385 0.61131 0.45335 0.0
C3002 C 0.2927 0.62118 0.4073 0.0
C3003 C 0.27954 0.62789 0.41348 0.0
C3004 C 0.30337 0.61416 0.41686 0.0
C3005 C 0.30087 0.61348 0.43268 0.0
C3006 C 0.2873 0.61948 0.43868 0.0
C3007 C 0.2768 0.6267 0.42919 0.0
H3008 H 0.34601 0.14229 0.46283 0.0
H3009 H 0.31279 0.10672 0.47042 0.0
H3010 H 0.32968 0.15306 0.44272 0.0
H3011 H 0.29676 0.11736 0.45056 0.0
H3012 H 0.28416 0.12522 0.40181 0.0
H3013 H 0.30222 0.11843 0.42165 0.0
H3014 H 0.30126 0.16458 0.43864 0.0
H3015 H 0.28295 0.17152 0.41855 0.0
C3016 C 0.33518 0.13692 0.46036 0.0
C3017 C 0.33075 0.12357 0.46806 0.0
C3018 C 0.32586 0.14308 0.44891 0.0
C3019 C 0.31212 0.13586 0.44497 0.0
C3020 C 0.30744 0.12298 0.4532 0.0
C3021 C 0.31661 0.11692 0.46461 0.0
C3022 C 0.2879 0.13401 0.40963 0.0
C3023 C 0.28198 0.14885 0.40876 0.0
C3024 C 0.29822 0.1301 0.42101 0.0
C3025 C 0.30289 0.14093 0.4318 0.0
C3026 C 0.29777 0.15604 0.43044 0.0
C3027 C 0.28732 0.15998 0.41899 0.0
H3028 H 0.82135 0.40489 0.54094 0.0
H3029 H 0.84614 0.36266 0.53565 0.0
H3030 H 0.80674 0.39381 0.56166 0.0
H3031 H 0.83121 0.35142 0.55658 0.0
H3032 H 0.78276 0.33757 0.58041 0.0
H3033 H 0.80204 0.345 0.56155 0.0
H3034 H 0.81309 0.3846 0.58854 0.0
H3035 H 0.79394 0.37731 0.60724 0.0
C3036 C 0.82367 0.3932 0.5442 0.0
C3037 C 0.8349 0.38464 0.5367 0.0
C3038 C 0.81537 0.3869 0.55615 0.0
C3039 C 0.81799 0.37183 0.56083 0.0
C3040 C 0.82903 0.36309 0.55319 0.0
C3041 C 0.83755 0.36951 0.54128 0.0
C3042 C 0.78961 0.34763 0.58249 0.0
C3043 C 0.78669 0.35701 0.59514 0.0
C3044 C 0.80064 0.35185 0.57172 0.0
C3045 C 0.80882 0.3655 0.5735 0.0
C3046 C 0.80675 0.37415 0.58679 0.0
C3047 C 0.7958 0.36995 0.5975 0.0
H3048 H 0.37133 0.01997 0.32261 0.0
H3049 H 0.41675 0.03733 0.33038 0.0
H3050 H 0.36723 0.03919 0.30313 0.0
H3051 H 0.41255 0.05683 0.31069 0.0
H3052 H 0.3853 0.09988 0.28992 0.0
H3053 H 0.39464 0.08016 0.30736 0.0
H3054 H 0.37749 0.04535 0.27711 0.0
H3055 H 0.36811 0.06491 0.25982 0.0
C3056 C 0.38047 0.02788 0.32011 0.0
C3057 C 0.39436 0.02716 0.32801 0.0
C3058 C 0.37816 0.03883 0.30886 0.0
C3059 C 0.38962 0.04941 0.30531 0.0
C3060 C 0.40354 0.04878 0.31323 0.0
C3061 C 0.40595 0.03763 0.32442 0.0
C3062 C 0.38383 0.08801 0.28687 0.0
C3063 C 0.37578 0.08392 0.27364 0.0
C3064 C 0.38921 0.07674 0.29682 0.0
C3065 C 0.38657 0.06126 0.29367 0.0
C3066 C 0.37945 0.05722 0.27993 0.0
C3067 C 0.37411 0.06842 0.27002 0.0
H3068 H 0.67521 0.60337 0.03513 0.0
H3069 H 0.64945 0.64534 0.03651 0.0
H3070 H 0.69238 0.61314 0.05443 0.0
H3071 H 0.66701 0.65527 0.05606 0.0
H3072 H 0.71815 0.66787 0.07492 0.0
H3073 H 0.69693 0.6617 0.05773 0.0
H3074 H 0.68903 0.62001 0.08261 0.0
H3075 H 0.71009 0.62603 0.0996 0.0
C3076 C 0.67321 0.61473 0.03956 0.0
C3077 C 0.66095 0.62358 0.03434 0.0
C3078 C 0.68301 0.62028 0.05069 0.0
C3079 C 0.6809 0.63488 0.05684 0.0
C3080 C 0.66882 0.64395 0.05149 0.0
C3081 C 0.6588 0.63827 0.04038 0.0
C3082 C 0.71164 0.65757 0.07689 0.0
C3083 C 0.71592 0.64729 0.08841 0.0
C3084 C 0.69949 0.65409 0.0671 0.0
C3085 C 0.69154 0.64028 0.06875 0.0
C3086 C 0.69514 0.63061 0.08097 0.0
C3087 C 0.7072 0.63407 0.09069 0.0
H3088 H 0.62866 0.46096 0.34803 0.0
H3089 H 0.58362 0.46331 0.32824 0.0
H3090 H 0.63555 0.44093 0.33021 0.0
H3091 H 0.59067 0.44301 0.3102 0.0
H3092 H 0.6115 0.39644 0.289 0.0
H3093 H 0.60105 0.41366 0.3086 0.0
H3094 H 0.63854 0.44462 0.30112 0.0
H3095 H 0.64881 0.42778 0.28177 0.0
C3096 C 0.62014 0.45706 0.33999 0.0
C3097 C 0.60567 0.46388 0.33938 0.0
C3098 C 0.62411 0.44558 0.32979 0.0
C3099 C 0.61371 0.4406 0.31872 0.0
C3100 C 0.59887 0.44667 0.31866 0.0
C3101 C 0.59488 0.45828 0.32893 0.0
C3102 C 0.61742 0.40696 0.29156 0.0
C3103 C 0.63102 0.41072 0.28393 0.0
C3104 C 0.61143 0.41679 0.30269 0.0
C3105 C 0.6191 0.43035 0.30645 0.0
C3106 C 0.63251 0.43414 0.2986 0.0
C3107 C 0.63836 0.42449 0.28747 0.0
H3108 H 0.1783 0.87204 0.97428 0.0
H3109 H 0.13996 0.87239 0.94345 0.0
H3110 H 0.19408 0.8602 0.95467 0.0
H3111 H 0.15599 0.86088 0.92355 0.0
H3112 H 0.20139 0.87011 0.89272 0.0
H3113 H 0.18049 0.87403 0.9107 0.0
H3114 H 0.19589 0.83544 0.93703 0.0
H3115 H 0.21666 0.83126 0.91876 0.0
C3116 C 0.17321 0.86936 0.96336 0.0
C3117 C 0.15798 0.87318 0.9603 0.0
C3118 C 0.18219 0.86249 0.95219 0.0
C3119 C 0.17621 0.85961 0.93765 0.0
C3120 C 0.16081 0.86294 0.93472 0.0
C3121 C 0.15168 0.8695 0.94607 0.0
C3122 C 0.20005 0.86221 0.90212 0.0
C3123 C 0.21066 0.85046 0.90445 0.0
C3124 C 0.18805 0.8644 0.91233 0.0
C3125 C 0.18665 0.85505 0.92523 0.0
C3126 C 0.19676 0.84277 0.92714 0.0
C3127 C 0.20859 0.84037 0.9167 0.0
H3128 H 0.39124 0.90769 0.22194 0.0
H3129 H 0.35643 0.89439 0.18986 0.0
H3130 H 0.40006 0.92734 0.20426 0.0
H3131 H 0.3656 0.91345 0.17191 0.0
H3132 H 0.36728 0.96308 0.15749 0.0
H3133 H 0.36272 0.94026 0.17223 0.0
H3134 H 0.41112 0.93558 0.18025 0.0
H3135 H 0.41566 0.95901 0.16565 0.0
C3136 C 0.38582 0.90864 0.21089 0.0
C3137 C 0.37303 0.8997 0.20732 0.0
C3138 C 0.39088 0.91988 0.20074 0.0
C3139 C 0.38331 0.92222 0.18679 0.0
C3140 C 0.3714 0.91228 0.18274 0.0
C3141 C 0.36621 0.90127 0.19296 0.0
C3142 C 0.377 0.95718 0.16231 0.0
C3143 C 0.39184 0.96286 0.16041 0.0
C3144 C 0.3744 0.94395 0.17066 0.0
C3145 C 0.38656 0.93591 0.17729 0.0
C3146 C 0.40148 0.94152 0.17534 0.0
C3147 C 0.4041 0.9549 0.16696 0.0
H3148 H 0.11626 0.10616 0.69838 0.0
H3149 H 0.11108 0.071 0.73245 0.0
H3150 H 0.10475 0.08938 0.67937 0.0
H3151 H 0.09951 0.05428 0.71344 0.0
H3152 H 0.07337 0.02966 0.67569 0.0
H3153 H 0.07753 0.05019 0.69427 0.0
H3154 H 0.11681 0.06522 0.6687 0.0
H3155 H 0.11282 0.04475 0.65041 0.0
C3156 C 0.1123 0.09501 0.7019 0.0
C3157 C 0.11473 0.0898 0.71684 0.0
C3158 C 0.10576 0.0854 0.69101 0.0
C3159 C 0.10137 0.0705 0.69491 0.0
C3160 C 0.1027 0.06574 0.71014 0.0
C3161 C 0.1094 0.07528 0.72099 0.0
C3162 C 0.08273 0.03753 0.67396 0.0
C3163 C 0.09284 0.03559 0.6617 0.0
C3164 C 0.08512 0.04922 0.68458 0.0
C3165 C 0.09746 0.05931 0.68289 0.0
C3166 C 0.10709 0.05775 0.6702 0.0
C3167 C 0.10488 0.04596 0.6598 0.0
H3168 H 0.04178 0.10636 0.41947 0.0
H3169 H 0.01777 0.13549 0.45109 0.0
H3170 H 0.06121 0.1015 0.43859 0.0
H3171 H 0.03728 0.13048 0.47042 0.0
H3172 H 0.08778 0.13427 0.48888 0.0
H3173 H 0.06472 0.13727 0.47354 0.0
H3174 H 0.06534 0.08912 0.46327 0.0
H3175 H 0.08846 0.08618 0.47834 0.0
C3176 C 0.04055 0.11157 0.43059 0.0
C3177 C 0.0283 0.12134 0.43378 0.0
C3178 C 0.05164 0.10871 0.44159 0.0
C3179 C 0.05075 0.11559 0.45602 0.0
C3180 C 0.03829 0.1251 0.45936 0.0
C3181 C 0.02711 0.1279 0.44834 0.0
C3182 C 0.08284 0.12431 0.48353 0.0
C3183 C 0.09001 0.11004 0.48461 0.0
C3184 C 0.0696 0.126 0.47482 0.0
C3185 C 0.06334 0.11345 0.46707 0.0
C3186 C 0.07007 0.09904 0.4689 0.0
C3187 C 0.08327 0.09736 0.47756 0.0
H3188 H 0.11649 0.83835 0.75081 0.0
H3189 H 0.15988 0.83968 0.72761 0.0
H3190 H 0.11084 0.81386 0.73881 0.0
H3191 H 0.15405 0.81583 0.7151 0.0
H3192 H 0.1448 0.7708 0.6964 0.0
H3193 H 0.15054 0.78966 0.71593 0.0
H3194 H 0.10373 0.80513 0.71455 0.0
H3195 H 0.0979 0.78558 0.69573 0.0
C3196 C 0.12486 0.83333 0.74326 0.0
C3197 C 0.13857 0.84096 0.74006 0.0
C3198 C 0.1216 0.81935 0.73629 0.0
C3199 C 0.13192 0.81283 0.72586 0.0
C3200 C 0.1459 0.82025 0.72324 0.0
C3201 C 0.14922 0.83406 0.73033 0.0
C3202 C 0.13569 0.77802 0.70058 0.0
C3203 C 0.12096 0.77689 0.69448 0.0
C3204 C 0.13899 0.78892 0.71168 0.0
C3205 C 0.12771 0.79922 0.7166 0.0
C3206 C 0.11271 0.79737 0.71117 0.0
C3207 C 0.10935 0.78621 0.7003 0.0
H3208 H 0.41023 0.86148 0.99526 0.0
H3209 H 0.4087 0.9069 0.97634 0.0
H3210 H 0.43397 0.85658 0.98149 0.0
H3211 H 0.43207 0.90193 0.96234 0.0
H3212 H 0.47895 0.89351 0.94526 0.0
H3213 H 0.45904 0.89761 0.96422 0.0
H3214 H 0.44124 0.85257 0.95522 0.0
H3215 H 0.46141 0.84834 0.93661 0.0
C3216 C 0.41502 0.87043 0.98824 0.0
C3217 C 0.40758 0.88454 0.9868 0.0
C3218 C 0.42857 0.86761 0.9803 0.0
C3219 C 0.43492 0.87885 0.97079 0.0
C3220 C 0.42766 0.8931 0.96975 0.0
C3221 C 0.41417 0.89591 0.97768 0.0
C3222 C 0.47094 0.8844 0.94755 0.0
C3223 C 0.47164 0.87067 0.93936 0.0
C3224 C 0.45948 0.88678 0.95834 0.0
C3225 C 0.44841 0.8755 0.9611 0.0
C3226 C 0.44964 0.86145 0.95348 0.0
C3227 C 0.46115 0.85905 0.94275 0.0
H3228 H 0.37252 0.23376 0.20147 0.0
H3229 H 0.39488 0.19917 0.1745 0.0
H3230 H 0.36909 0.21531 0.22217 0.0
H3231 H 0.39147 0.18087 0.19502 0.0
H3232 H 0.3901 0.15155 0.2358 0.0
H3233 H 0.39829 0.17409 0.22165 0.0
H3234 H 0.35253 0.19212 0.22393 0.0
H3235 H 0.34438 0.16969 0.23815 0.0
C3236 C 0.37692 0.22231 0.20008 0.0
C3237 C 0.38383 0.21783 0.18635 0.0
C3238 C 0.37493 0.21177 0.21189 0.0
C3239 C 0.38001 0.19666 0.21021 0.0
C3240 C 0.38761 0.19247 0.19676 0.0
C3241 C 0.38944 0.20292 0.18494 0.0
C3242 C 0.38189 0.16051 0.23361 0.0
C3243 C 0.36656 0.15878 0.23786 0.0
C3244 C 0.38656 0.17337 0.22547 0.0
C3245 C 0.376 0.18477 0.22153 0.0
C3246 C 0.36095 0.18358 0.22687 0.0
C3247 C 0.35626 0.17069 0.23493 0.0
H3248 H 0.05337 0.86162 0.08074 0.0
H3249 H 0.01953 0.88343 0.0524 0.0
H3250 H 0.07261 0.86583 0.06107 0.0
H3251 H 0.03897 0.88793 0.03278 0.0
H3252 H 0.08593 0.911 0.01684 0.0
H3253 H 0.06425 0.90474 0.03323 0.0
H3254 H 0.0774 0.85734 0.03256 0.0
H3255 H 0.09895 0.86353 0.01592 0.0
C3256 C 0.05005 0.86728 0.07027 0.0
C3257 C 0.035 0.87225 0.06808 0.0
C3258 C 0.06103 0.86958 0.059 0.0
C3259 C 0.05722 0.87715 0.04544 0.0
C3260 C 0.04215 0.88206 0.04317 0.0
C3261 C 0.03106 0.87947 0.05434 0.0
C3262 C 0.08406 0.89922 0.02003 0.0
C3263 C 0.09413 0.88775 0.0152 0.0
C3264 C 0.07163 0.89564 0.02931 0.0
C3265 C 0.06923 0.88058 0.03414 0.0
C3266 C 0.07907 0.86905 0.029 0.0
C3267 C 0.09134 0.87258 0.01947 0.0
H3268 H 0.40485 0.78878 0.3137 0.0
H3269 H 0.36438 0.76367 0.30122 0.0
H3270 H 0.39881 0.80805 0.29455 0.0
H3271 H 0.35833 0.78301 0.2821 0.0
H3272 H 0.34214 0.83338 0.2737 0.0
H3273 H 0.35011 0.81035 0.28699 0.0
H3274 H 0.39457 0.81354 0.2661 0.0
H3275 H 0.3865 0.83667 0.25258 0.0
C3276 C 0.39486 0.7872 0.30662 0.0
C3277 C 0.385 0.77482 0.30905 0.0
C3278 C 0.39145 0.7982 0.29562 0.0
C3279 C 0.37803 0.79708 0.28696 0.0
C3280 C 0.36867 0.78421 0.28874 0.0
C3281 C 0.37217 0.77312 0.29963 0.0
C3282 C 0.35357 0.82909 0.2718 0.0
C3283 C 0.36374 0.83685 0.26219 0.0
C3284 C 0.35809 0.81583 0.27931 0.0
C3285 C 0.37294 0.81013 0.27752 0.0
C3286 C 0.38306 0.81772 0.26767 0.0
C3287 C 0.37844 0.8309 0.25994 0.0
H3288 H 0.40872 0.12658 0.5016 0.0
H3289 H 0.39939 0.08976 0.53286 0.0
H3290 H 0.4327 0.13173 0.51482 0.0
H3291 H 0.42267 0.09534 0.54658 0.0
H3292 H 0.46897 0.10051 0.56481 0.0
H3293 H 0.44888 0.09416 0.54678 0.0
H3294 H 0.44246 0.14214 0.53726 0.0
H3295 H 0.46333 0.14825 0.55455 0.0
C3296 C 0.4118 0.11963 0.51132 0.0
C3297 C 0.40224 0.10777 0.5162 0.0
C3298 C 0.42549 0.12261 0.51897 0.0
C3299 C 0.42975 0.11394 0.5318 0.0
C3300 C 0.42009 0.10204 0.53654 0.0
C3301 C 0.40661 0.0989 0.52875 0.0
C3302 C 0.46344 0.10963 0.5586 0.0
C3303 C 0.46759 0.12485 0.5611 0.0
C3304 C 0.4518 0.10604 0.54838 0.0
C3305 C 0.44372 0.11764 0.54076 0.0
C3306 C 0.44844 0.13286 0.54276 0.0
C3307 C 0.46037 0.1364 0.55273 0.0
H3308 H 0.15745 0.1658 0.75567 0.0
H3309 H 0.11098 0.15135 0.76314 0.0
H3310 H 0.15236 0.18935 0.76954 0.0
H3311 H 0.10598 0.17471 0.77733 0.0
H3312 H 0.09895 0.22093 0.7982 0.0
H3313 H 0.10377 0.20245 0.77786 0.0
H3314 H 0.14861 0.19394 0.7964 0.0
H3315 H 0.1439 0.21246 0.8164 0.0
C3316 C 0.14609 0.16776 0.76009 0.0
C3317 C 0.13466 0.15666 0.7585 0.0
C3318 C 0.14319 0.18121 0.76809 0.0
C3319 C 0.12883 0.18382 0.77472 0.0
C3320 C 0.11713 0.17313 0.77228 0.0
C3321 C 0.12002 0.15969 0.76422 0.0
C3322 C 0.10994 0.21531 0.79771 0.0
C3323 C 0.12101 0.21804 0.80894 0.0
C3324 C 0.11266 0.20467 0.78613 0.0
C3325 C 0.12654 0.19666 0.78555 0.0
C3326 C 0.13787 0.20002 0.79637 0.0
C3327 C 0.13513 0.21058 0.80792 0.0
H3328 H 0.46925 0.09193 0.0911 0.0
H3329 H 0.49486 0.08932 0.13306 0.0
H3330 H 0.45552 0.06901 0.09793 0.0
H3331 H 0.48126 0.06584 0.13981 0.0
H3332 H 0.4371 0.03779 0.15313 0.0
H3333 H 0.4558 0.05774 0.14752 0.0
H3334 H 0.45804 0.04228 0.10079 0.0
H3335 H 0.43894 0.02295 0.10629 0.0
C3336 C 0.47211 0.08631 0.10172 0.0
C3337 C 0.48312 0.09244 0.11155 0.0
C3338 C 0.4643 0.07304 0.10559 0.0
C3339 C 0.46736 0.06545 0.11937 0.0
C3340 C 0.47857 0.07145 0.12915 0.0
C3341 C 0.48641 0.08483 0.12526 0.0
C3342 C 0.44186 0.03852 0.14176 0.0
C3343 C 0.43644 0.02904 0.13007 0.0
C3344 C 0.4526 0.0499 0.13854 0.0
C3345 C 0.45818 0.05183 0.12361 0.0
C3346 C 0.45365 0.04143 0.1123 0.0
C3347 C 0.44278 0.03028 0.11545 0.0
H3348 H 0.20775 0.18211 0.34926 0.0
H3349 H 0.226 0.20807 0.38687 0.0
H3350 H 0.18892 0.20187 0.34465 0.0
H3351 H 0.207 0.22807 0.3822 0.0
H3352 H 0.15472 0.24321 0.38156 0.0
H3353 H 0.17851 0.22915 0.3852 0.0
H3354 H 0.18559 0.22853 0.3365 0.0
H3355 H 0.16177 0.24235 0.33284 0.0
C3356 C 0.20788 0.19218 0.3564 0.0
C3357 C 0.21829 0.19353 0.36846 0.0
C3358 C 0.19715 0.20357 0.35369 0.0
C3359 C 0.19649 0.21654 0.36306 0.0
C3360 C 0.20722 0.21815 0.37485 0.0
C3361 C 0.21812 0.20677 0.37747 0.0
C3362 C 0.16154 0.24036 0.37167 0.0
C3363 C 0.15628 0.24365 0.35691 0.0
C3364 C 0.17519 0.23237 0.37375 0.0
C3365 C 0.18379 0.22756 0.36111 0.0
C3366 C 0.17906 0.23186 0.34643 0.0
C3367 C 0.16545 0.23981 0.34435 0.0
H3368 H 0.0124 0.91005 0.58017 0.0
H3369 H 0.01201 0.90083 0.62852 0.0
H3370 H 0.02434 0.93469 0.58494 0.0
H3371 H 0.02414 0.92543 0.63328 0.0
H3372 H 0.04042 0.97444 0.63747 0.0
H3373 H 0.02236 0.95394 0.63156 0.0
H3374 H 0.05052 0.9403 0.59353 0.0
H3375 H 0.06839 0.96064 0.59937 0.0
C3376 C 0.01466 0.91339 0.59183 0.0
C3377 C 0.01147 0.90344 0.60396 0.0
C3378 C 0.02153 0.92747 0.59456 0.0
C3379 C 0.02533 0.93191 0.60946 0.0
C3380 C 0.02126 0.92237 0.62168 0.0
C3381 C 0.0144 0.90824 0.61895 0.0
C3382 C 0.04255 0.96721 0.62769 0.0
C3383 C 0.05583 0.96905 0.61892 0.0
C3384 C 0.03228 0.95545 0.62437 0.0
C3385 C 0.03503 0.94551 0.6121 0.0
C3386 C 0.04796 0.94787 0.60294 0.0
C3387 C 0.05826 0.95947 0.60635 0.0
H3388 H 0.35348 0.79383 0.83663 0.0
H3389 H 0.33869 0.75537 0.86351 0.0
H3390 H 0.32997 0.80705 0.84237 0.0
H3391 H 0.31449 0.76829 0.86865 0.0
H3392 H 0.28145 0.80478 0.88859 0.0
H3393 H 0.3031 0.78843 0.88225 0.0
H3394 H 0.30427 0.80794 0.83696 0.0
H3395 H 0.28343 0.82489 0.84379 0.0
C3396 C 0.34504 0.78811 0.84361 0.0
C3397 C 0.34788 0.77357 0.8496 0.0
C3398 C 0.33144 0.79563 0.84679 0.0
C3399 C 0.32012 0.78869 0.85579 0.0
C3400 C 0.32296 0.77406 0.86178 0.0
C3401 C 0.33678 0.76662 0.8588 0.0
C3402 C 0.28626 0.80534 0.87724 0.0
C3403 C 0.28098 0.81616 0.86672 0.0
C3404 C 0.29864 0.79596 0.87356 0.0
C3405 C 0.30572 0.79706 0.85918 0.0
C3406 C 0.29953 0.80713 0.84833 0.0
C3407 C 0.28747 0.81674 0.85215 0.0
H3408 H 0.46267 0.90026 0.41131 0.0
H3409 H 0.49763 0.91182 0.37865 0.0
H3410 H 0.44914 0.92354 0.40524 0.0
H3411 H 0.48443 0.93572 0.37301 0.0
H3412 H 0.44502 0.96529 0.35327 0.0
H3413 H 0.46253 0.94494 0.36047 0.0
H3414 H 0.44872 0.94993 0.40754 0.0
H3415 H 0.4306 0.96958 0.40008 0.0
C3416 C 0.46759 0.90795 0.40298 0.0
C3417 C 0.48116 0.90422 0.39541 0.0
C3418 C 0.4599 0.92142 0.39959 0.0
C3419 C 0.46572 0.93166 0.3887 0.0
C3420 C 0.47951 0.92804 0.38132 0.0
C3421 C 0.48711 0.9144 0.38459 0.0
C3422 C 0.44598 0.96218 0.36518 0.0
C3423 C 0.43637 0.96881 0.37611 0.0
C3424 C 0.45605 0.95054 0.36934 0.0
C3425 C 0.45686 0.94554 0.38457 0.0
C3426 C 0.44806 0.95312 0.39564 0.0
C3427 C 0.43778 0.96448 0.39142 0.0
H3428 H 0.29421 0.1805 0.60233 0.0
H3429 H 0.26483 0.19701 0.63823 0.0
H3430 H 0.31287 0.20007 0.60853 0.0
H3431 H 0.28355 0.21674 0.64441 0.0
H3432 H 0.33219 0.22775 0.66447 0.0
H3433 H 0.3093 0.21448 0.65612 0.0
H3434 H 0.31847 0.22785 0.60963 0.0
H3435 H 0.34152 0.24111 0.61801 0.0
C3436 C 0.29162 0.1885 0.61137 0.0
C3437 C 0.27815 0.18714 0.61991 0.0
C3438 C 0.30227 0.19979 0.61484 0.0
C3439 C 0.2997 0.20989 0.627 0.0
C3440 C 0.28587 0.20901 0.63506 0.0
C3441 C 0.27515 0.19777 0.6315 0.0
C3442 C 0.32918 0.22809 0.6525 0.0
C3443 C 0.33871 0.23531 0.64186 0.0
C3444 C 0.316 0.22058 0.64773 0.0
C3445 C 0.31214 0.22006 0.6322 0.0
C3446 C 0.32126 0.22796 0.62165 0.0
C3447 C 0.3344 0.23559 0.62645 0.0
H3448 H 0.07395 0.05244 0.85305 0.0
H3449 H 0.0459 0.01776 0.87388 0.0
H3450 H 0.05374 0.07109 0.85674 0.0
H3451 H 0.02555 0.03653 0.8776 0.0
H3452 H 0.00929 0.08125 0.90316 0.0
H3453 H 0.02412 0.0593 0.89484 0.0
H3454 H 0.02709 0.07841 0.84958 0.0
H3455 H 0.01222 0.10049 0.85795 0.0
C3456 C 0.06336 0.04876 0.85824 0.0
C3457 C 0.06154 0.0337 0.86333 0.0
C3458 C 0.05173 0.05941 0.86022 0.0
C3459 C 0.03807 0.05526 0.86746 0.0
C3460 C 0.036 0.04004 0.87205 0.0
C3461 C 0.04761 0.02931 0.86991 0.0
C3462 C 0.01285 0.08062 0.89135 0.0
C3463 C 0.00977 0.09264 0.88124 0.0
C3464 C 0.02125 0.068 0.88656 0.0
C3465 C 0.02685 0.0672 0.87159 0.0
C3466 C 0.02302 0.07882 0.86123 0.0
C3467 C 0.01448 0.09141 0.86599 0.0
H3468 H 0.22587 0.7987 0.12345 0.0
H3469 H 0.19158 0.83202 0.11171 0.0
H3470 H 0.20586 0.77966 0.12761 0.0
H3471 H 0.17168 0.81304 0.11576 0.0
H3472 H 0.13995 0.77219 0.11441 0.0
H3473 H 0.16162 0.78757 0.10575 0.0
H3474 H 0.1851 0.77821 0.14796 0.0
H3475 H 0.16351 0.76302 0.15664 0.0
C3476 C 0.21409 0.80188 0.12158 0.0
C3477 C 0.21025 0.81684 0.1174 0.0
C3478 C 0.20267 0.79102 0.12397 0.0
C3479 C 0.18724 0.7949 0.12199 0.0
C3480 C 0.18348 0.80969 0.1172 0.0
C3481 C 0.19486 0.82058 0.11502 0.0
C3482 C 0.14985 0.77325 0.1217 0.0
C3483 C 0.15003 0.76654 0.13623 0.0
C3484 C 0.1622 0.78207 0.11678 0.0
C3485 C 0.175 0.78408 0.12621 0.0
C3486 C 0.17545 0.77673 0.14041 0.0
C3487 C 0.16304 0.76813 0.14541 0.0
H3488 H 0.1193 0.45748 0.00987 0.0
H3489 H 0.14206 0.43119 0.04468 0.0
H3490 H 0.11552 0.47835 0.02823 0.0
H3491 H 0.13859 0.45194 0.06275 0.0
H3492 H 0.13943 0.49422 0.09004 0.0
H3493 H 0.14635 0.47996 0.06715 0.0
H3494 H 0.09915 0.47911 0.05334 0.0
H3495 H 0.09216 0.49328 0.07628 0.0
C3496 C 0.12371 0.4563 0.02133 0.0
C3497 C 0.13087 0.44273 0.02593 0.0
C3498 C 0.12154 0.46818 0.0318 0.0
C3499 C 0.12686 0.46677 0.04685 0.0
C3500 C 0.13457 0.45343 0.05117 0.0
C3501 C 0.13643 0.4415 0.04087 0.0
C3502 C 0.13059 0.49136 0.08192 0.0
C3503 C 0.11523 0.49466 0.08504 0.0
C3504 C 0.13455 0.48318 0.06885 0.0
C3505 C 0.12326 0.47832 0.0586 0.0
C3506 C 0.10808 0.48278 0.06103 0.0
C3507 C 0.10408 0.49082 0.0742 0.0
H3508 H 0.59751 0.006 0.91798 0.0
H3509 H 0.64211 0.01547 0.89937 0.0
H3510 H 0.60337 0.02187 0.94009 0.0
H3511 H 0.6479 0.0314 0.92146 0.0
H3512 H 0.6372 0.07759 0.94621 0.0
H3513 H 0.63536 0.05702 0.92768 0.0
H3514 H 0.62136 0.02603 0.96326 0.0
H3515 H 0.62341 0.04673 0.982 0.0
C3516 C 0.60869 0.01117 0.9188 0.0
C3517 C 0.61929 0.00965 0.90688 0.0
C3518 C 0.61205 0.0202 0.93148 0.0
C3519 C 0.62601 0.02798 0.93237 0.0
C3520 C 0.63699 0.02563 0.92095 0.0
C3521 C 0.6337 0.01647 0.90836 0.0
C3522 C 0.63384 0.06636 0.95012 0.0
C3523 C 0.63037 0.06375 0.96552 0.0
C3524 C 0.63293 0.05456 0.93954 0.0
C3525 C 0.62832 0.03992 0.94407 0.0
C3526 C 0.62496 0.03722 0.9595 0.0
C3527 C 0.62614 0.04903 0.97019 0.0
H3528 H 0.19513 0.39356 0.21523 0.0
H3529 H 0.18038 0.34665 0.21395 0.0
H3530 H 0.2129 0.38854 0.19432 0.0
H3531 H 0.19852 0.34142 0.19364 0.0
H3532 H 0.21205 0.34329 0.14405 0.0
H3533 H 0.19814 0.34796 0.16743 0.0
H3534 H 0.23526 0.37574 0.18412 0.0
H3535 H 0.2491 0.37138 0.16022 0.0
C3536 C 0.19605 0.38207 0.21078 0.0
C3537 C 0.18627 0.37053 0.21601 0.0
C3538 C 0.20623 0.37919 0.19882 0.0
C3539 C 0.20688 0.36465 0.19206 0.0
C3540 C 0.19797 0.35285 0.19825 0.0
C3541 C 0.18767 0.3558 0.20997 0.0
C3542 C 0.21728 0.3504 0.15269 0.0
C3543 C 0.23167 0.35694 0.15032 0.0
C3544 C 0.20936 0.35296 0.16619 0.0
C3545 C 0.21568 0.36202 0.1778 0.0
C3546 C 0.23005 0.36873 0.1754 0.0
C3547 C 0.23799 0.36622 0.16175 0.0
H3548 H 0.84978 0.92989 0.45559 0.0
H3549 H 0.88676 0.94697 0.48322 0.0
H3550 H 0.8548 0.94947 0.43665 0.0
H3551 H 0.89164 0.96687 0.46431 0.0
H3552 H 0.90962 0.97945 0.41565 0.0
H3553 H 0.90239 0.96606 0.4388 0.0
H3554 H 0.85503 0.97636 0.43003 0.0
H3555 H 0.8623 0.98958 0.4066 0.0
C3556 C 0.8588 0.93804 0.45776 0.0
C3557 C 0.86799 0.93679 0.4708 0.0
C3558 C 0.8616 0.94936 0.44694 0.0
C3559 C 0.87368 0.9597 0.44891 0.0
C3560 C 0.88237 0.95895 0.46237 0.0
C3561 C 0.87954 0.94761 0.47323 0.0
C3562 C 0.89768 0.97909 0.41879 0.0
C3563 C 0.88651 0.98539 0.40922 0.0
C3564 C 0.89354 0.9715 0.43215 0.0
C3565 C 0.87811 0.97002 0.43622 0.0
C3566 C 0.86699 0.97712 0.42709 0.0
C3567 C 0.87116 0.98476 0.41372 0.0
H3568 H 0.80479 0.13437 0.22706 0.0
H3569 H 0.8132 0.08952 0.20864 0.0
H3570 H 0.78712 0.13965 0.20634 0.0
H3571 H 0.79589 0.09498 0.18751 0.0
H3572 H 0.75734 0.10757 0.15465 0.0
H3573 H 0.77026 0.10046 0.17835 0.0
H3574 H 0.79133 0.14497 0.17998 0.0
H3575 H 0.77821 0.15211 0.15674 0.0
C3576 C 0.80271 0.12557 0.21865 0.0
C3577 C 0.81047 0.11161 0.21934 0.0
C3578 C 0.79267 0.12862 0.20672 0.0
C3579 C 0.79034 0.11786 0.19508 0.0
C3580 C 0.79738 0.1035 0.1963 0.0
C3581 C 0.80733 0.10038 0.20838 0.0
C3582 C 0.76466 0.11582 0.16018 0.0
C3583 C 0.76677 0.13039 0.15387 0.0
C3584 C 0.7721 0.11174 0.17371 0.0
C3585 C 0.78175 0.12217 0.18114 0.0
C3586 C 0.78372 0.13675 0.17478 0.0
C3587 C 0.7763 0.14082 0.16136 0.0
H3588 H 0.3854 0.55434 0.52016 0.0
H3589 H 0.3449 0.56859 0.54427 0.0
H3590 H 0.39042 0.53533 0.53981 0.0
H3591 H 0.35009 0.54981 0.5641 0.0
H3592 H 0.36029 0.5098 0.59516 0.0
H3593 H 0.35281 0.52295 0.57169 0.0
H3594 H 0.39915 0.53861 0.56587 0.0
H3595 H 0.40659 0.5254 0.58902 0.0
C3596 C 0.37744 0.55324 0.52953 0.0
C3597 C 0.36487 0.56307 0.53079 0.0
C3598 C 0.38035 0.54241 0.54082 0.0
C3599 C 0.37079 0.54123 0.55363 0.0
C3600 C 0.35764 0.55037 0.55434 0.0
C3601 C 0.3547 0.56118 0.54302 0.0
C3602 C 0.36888 0.5159 0.58872 0.0
C3603 C 0.38399 0.51666 0.59395 0.0
C3604 C 0.36459 0.52346 0.57534 0.0
C3605 C 0.37539 0.53181 0.56691 0.0
C3606 C 0.3906 0.5321 0.57194 0.0
C3607 C 0.39484 0.52463 0.5853 0.0
H3608 H 0.24771 0.62855 0.33804 0.0
H3609 H 0.2126 0.66126 0.3489 0.0
H3610 H 0.23461 0.62239 0.31423 0.0
H3611 H 0.19906 0.65458 0.32584 0.0
H3612 H 0.18061 0.64879 0.27989 0.0
H3613 H 0.19829 0.65652 0.29978 0.0
H3614 H 0.21335 0.60976 0.30437 0.0
H3615 H 0.19638 0.6024 0.28356 0.0
C3616 C 0.23717 0.63437 0.33533 0.0
C3617 C 0.23118 0.64541 0.34524 0.0
C3618 C 0.2296 0.6308 0.32174 0.0
C3619 C 0.21576 0.63802 0.31797 0.0
C3620 C 0.20987 0.64906 0.32802 0.0
C3621 C 0.21757 0.65282 0.34138 0.0
C3622 C 0.18796 0.64027 0.285 0.0
C3623 C 0.18713 0.62502 0.28036 0.0
C3624 C 0.19798 0.64463 0.29651 0.0
C3625 C 0.20702 0.63372 0.30405 0.0
C3626 C 0.20668 0.61853 0.29882 0.0
C3627 C 0.19693 0.61426 0.28694 0.0
H3628 H 0.27075 0.33976 0.82988 0.0
H3629 H 0.25963 0.38699 0.83825 0.0
H3630 H 0.28605 0.34722 0.80792 0.0
H3631 H 0.27495 0.39447 0.81618 0.0
H3632 H 0.32342 0.39915 0.79364 0.0
H3633 H 0.30308 0.39389 0.8118 0.0
H3634 H 0.28537 0.35899 0.78194 0.0
H3635 H 0.30583 0.36425 0.76371 0.0
C3636 C 0.27139 0.35172 0.82688 0.0
C3637 C 0.26412 0.36281 0.83584 0.0
C3638 C 0.28006 0.35598 0.81424 0.0
C3639 C 0.28173 0.37143 0.81036 0.0
C3640 C 0.27396 0.38248 0.81898 0.0
C3641 C 0.26516 0.3782 0.83157 0.0
C3642 C 0.31504 0.39053 0.79083 0.0
C3643 C 0.31627 0.38203 0.77733 0.0
C3644 C 0.30333 0.38758 0.80119 0.0
C3645 C 0.29268 0.37598 0.79832 0.0
C3646 C 0.29351 0.36792 0.78449 0.0
C3647 C 0.30516 0.37097 0.77404 0.0
H3648 H 0.91792 0.90415 0.51284 0.0
H3649 H 0.90089 0.85798 0.51125 0.0
H3650 H 0.9408 0.89524 0.52598 0.0
H3651 H 0.92378 0.8491 0.52437 0.0
H3652 H 0.95152 0.84809 0.57018 0.0
H3653 H 0.93182 0.85358 0.55143 0.0
H3654 H 0.96445 0.87861 0.52437 0.0
H3655 H 0.98432 0.87299 0.54323 0.0
C3656 C 0.9192 0.89207 0.51504 0.0
C3657 C 0.90755 0.88178 0.51117 0.0
C3658 C 0.93234 0.88696 0.52248 0.0
C3659 C 0.93402 0.87149 0.52628 0.0
C3660 C 0.92272 0.8611 0.5217 0.0
C3661 C 0.90964 0.86619 0.51416 0.0
C3662 C 0.95456 0.85453 0.5601 0.0
C3663 C 0.96941 0.86018 0.55819 0.0
C3664 C 0.9433 0.8576 0.54931 0.0
C3665 C 0.94659 0.86655 0.53645 0.0
C3666 C 0.9616 0.87174 0.53423 0.0
C3667 C 0.97296 0.86847 0.54495 0.0
H3668 H 0.84872 0.20564 0.32611 0.0
H3669 H 0.89228 0.2159 0.30557 0.0
H3670 H 0.84492 0.18512 0.30799 0.0
H3671 H 0.88832 0.19539 0.28704 0.0
H3672 H 0.88293 0.14422 0.27207 0.0
H3673 H 0.88747 0.1674 0.28693 0.0
H3674 H 0.84014 0.17997 0.2816 0.0
H3675 H 0.83556 0.15673 0.26725 0.0
C3676 C 0.85739 0.20366 0.31754 0.0
C3677 C 0.8708 0.21237 0.31727 0.0
C3678 C 0.85518 0.19193 0.30708 0.0
C3679 C 0.86631 0.18862 0.29603 0.0
C3680 C 0.8796 0.19757 0.29551 0.0
C3681 C 0.88182 0.20938 0.30602 0.0
C3682 C 0.87357 0.15204 0.27399 0.0
C3683 C 0.85886 0.14858 0.26871 0.0
C3684 C 0.87618 0.16535 0.2824 0.0
C3685 C 0.86412 0.17545 0.2856 0.0
C3686 C 0.8496 0.17228 0.27964 0.0
C3687 C 0.84699 0.15898 0.27136 0.0
H3688 H 0.51739 0.10937 0.05302 0.0
H3689 H 0.54138 0.15065 0.06493 0.0
H3690 H 0.53614 0.10418 0.03316 0.0
H3691 H 0.56046 0.14521 0.04554 0.0
H3692 H 0.5906 0.13563 0.00562 0.0
H3693 H 0.56746 0.14262 0.01946 0.0
H3694 H 0.56172 0.09565 0.03323 0.0
H3695 H 0.58441 0.08868 0.019 0.0
C3696 C 0.5266 0.11741 0.05128 0.0
C3697 C 0.52801 0.13034 0.0606 0.0
C3698 C 0.53741 0.11439 0.03997 0.0
C3699 C 0.54996 0.12415 0.03786 0.0
C3700 C 0.55089 0.1375 0.04669 0.0
C3701 C 0.53999 0.14059 0.05789 0.0
C3702 C 0.5842 0.12679 0.01138 0.0
C3703 C 0.58936 0.11164 0.01132 0.0
C3704 C 0.57101 0.1308 0.01941 0.0
C3705 C 0.56275 0.11974 0.02759 0.0
C3706 C 0.56761 0.10446 0.02691 0.0
C3707 C 0.58071 0.10046 0.01882 0.0
H3708 H 0.6058 0.80239 0.82514 0.0
H3709 H 0.62332 0.76654 0.79633 0.0
H3710 H 0.60946 0.82075 0.80465 0.0
H3711 H 0.62724 0.7851 0.77574 0.0
H3712 H 0.65488 0.83007 0.76039 0.0
H3713 H 0.64608 0.80788 0.7747 0.0
H3714 H 0.60103 0.82749 0.77751 0.0
H3715 H 0.60978 0.84968 0.76309 0.0
C3716 C 0.61023 0.79841 0.81432 0.0
C3717 C 0.61438 0.7831 0.81232 0.0
C3718 C 0.61221 0.80889 0.80256 0.0
C3719 C 0.61861 0.80432 0.78862 0.0
C3720 C 0.62228 0.78888 0.7864 0.0
C3721 C 0.62001 0.77829 0.79813 0.0
C3722 C 0.643 0.82947 0.76374 0.0
C3723 C 0.63305 0.84167 0.76081 0.0
C3724 C 0.63795 0.81673 0.77184 0.0
C3725 C 0.62292 0.81606 0.77729 0.0
C3726 C 0.61271 0.8278 0.7735 0.0
C3727 C 0.61771 0.84046 0.76524 0.0
H3728 H 0.90062 0.13512 0.98235 0.0
H3729 H 0.9185 0.09063 0.99352 0.0
H3730 H 0.92378 0.14082 0.96803 0.0
H3731 H 0.94177 0.09644 0.97947 0.0
H3732 H 0.96374 0.1026 0.93175 0.0
H3733 H 0.94535 0.09845 0.95199 0.0
H3734 H 0.95181 0.14473 0.96754 0.0
H3735 H 0.9703 0.14894 0.94698 0.0
C3736 C 0.90966 0.12672 0.98206 0.0
C3737 C 0.90766 0.11234 0.98883 0.0
C3738 C 0.92297 0.13001 0.97393 0.0
C3739 C 0.93452 0.119 0.97245 0.0
C3740 C 0.93295 0.10505 0.98018 0.0
C3741 C 0.91965 0.10175 0.98827 0.0
C3742 C 0.96142 0.11184 0.93961 0.0
C3743 C 0.96836 0.12613 0.93774 0.0
C3744 C 0.95096 0.10942 0.9513 0.0
C3745 C 0.94712 0.12126 0.96139 0.0
C3746 C 0.95448 0.13543 0.95987 0.0
C3747 C 0.96509 0.13782 0.94818 0.0
H3748 H 0.6573 0.17105 0.74317 0.0
H3749 H 0.61162 0.15449 0.73527 0.0
H3750 H 0.65152 0.19405 0.72881 0.0
H3751 H 0.60594 0.17739 0.72041 0.0
H3752 H 0.59858 0.22429 0.6991 0.0
H3753 H 0.6029 0.20539 0.71925 0.0
H3754 H 0.64828 0.19744 0.70178 0.0
H3755 H 0.64408 0.2163 0.68206 0.0
C3756 C 0.64597 0.1724 0.73846 0.0
C3757 C 0.63498 0.1609 0.74011 0.0
C3758 C 0.64267 0.18556 0.7302 0.0
C3759 C 0.62836 0.18742 0.72324 0.0
C3760 C 0.61704 0.17633 0.72569 0.0
C3761 C 0.62032 0.16319 0.73412 0.0
C3762 C 0.60953 0.21864 0.69978 0.0
C3763 C 0.62098 0.22171 0.68901 0.0
C3764 C 0.61197 0.20778 0.71123 0.0
C3765 C 0.62594 0.19994 0.71213 0.0
C3766 C 0.63749 0.20344 0.7016 0.0
C3767 C 0.63504 0.21418 0.6902 0.0
H3768 H 0.5411 0.89261 0.42776 0.0
H3769 H 0.52157 0.858 0.45682 0.0
H3770 H 0.56052 0.89774 0.44673 0.0
H3771 H 0.54104 0.86335 0.47613 0.0
H3772 H 0.592 0.86335 0.49335 0.0
H3773 H 0.56875 0.85943 0.47854 0.0
H3774 H 0.56489 0.90807 0.47183 0.0
H3775 H 0.58828 0.91192 0.48625 0.0
C3776 C 0.54082 0.88624 0.43833 0.0
C3777 C 0.52985 0.87486 0.44078 0.0
C3778 C 0.55191 0.88926 0.44928 0.0
C3779 C 0.55232 0.88097 0.46298 0.0
C3780 C 0.54108 0.86984 0.46564 0.0
C3781 C 0.5299 0.86685 0.45464 0.0
C3782 C 0.58604 0.8732 0.48889 0.0
C3783 C 0.59206 0.88792 0.49075 0.0
C3784 C 0.57267 0.87097 0.48048 0.0
C3785 C 0.56507 0.88343 0.47384 0.0
C3786 C 0.57064 0.89821 0.47652 0.0
C3787 C 0.58401 0.90042 0.48483 0.0
H3788 H 0.88991 0.84945 0.23797 0.0
H3789 H 0.84294 0.83518 0.23412 0.0
H3790 H 0.89786 0.82724 0.22318 0.0
H3791 H 0.85088 0.81305 0.21929 0.0
H3792 H 0.87068 0.77009 0.19871 0.0
H3793 H 0.86573 0.78862 0.21901 0.0
H3794 H 0.89394 0.82154 0.19567 0.0
H3795 H 0.89887 0.80312 0.17552 0.0
C3796 C 0.88132 0.84143 0.2342 0.0
C3797 C 0.8658 0.84412 0.23704 0.0
C3798 C 0.88587 0.82876 0.2257 0.0
C3799 C 0.87498 0.81849 0.21998 0.0
C3800 C 0.85954 0.8207 0.22364 0.0
C3801 C 0.85499 0.83342 0.23205 0.0
C3802 C 0.876 0.78121 0.19808 0.0
C3803 C 0.88506 0.78522 0.18551 0.0
C3804 C 0.87313 0.79181 0.20965 0.0
C3805 C 0.87943 0.80653 0.2089 0.0
C3806 C 0.88906 0.81025 0.19666 0.0
C3807 C 0.8918 0.79973 0.18506 0.0
H3808 H 0.55641 0.98237 0.88692 0.0
H3809 H 0.57074 0.95469 0.84881 0.0
H3810 H 0.53639 0.9639 0.89278 0.0
H3811 H 0.55087 0.93622 0.85473 0.0
H3812 H 0.50913 0.90825 0.86457 0.0
H3813 H 0.52311 0.93107 0.85671 0.0
H3814 H 0.53828 0.93766 0.90307 0.0
H3815 H 0.52428 0.91501 0.91091 0.0
C3816 C 0.5551 0.97249 0.87963 0.0
C3817 C 0.56522 0.96987 0.86751 0.0
C3818 C 0.54369 0.96189 0.88303 0.0
C3819 C 0.54214 0.94856 0.87429 0.0
C3820 C 0.55168 0.94644 0.8616 0.0
C3821 C 0.56313 0.95697 0.85827 0.0
C3822 C 0.51524 0.91474 0.8731 0.0
C3823 C 0.51575 0.9098 0.88832 0.0
C3824 C 0.52328 0.92776 0.8686 0.0
C3825 C 0.53183 0.93611 0.87926 0.0
C3826 C 0.53166 0.93157 0.89461 0.0
C3827 C 0.52374 0.91853 0.89909 0.0
H3828 H 0.85361 0.76391 0.61107 0.0
H3829 H 0.83693 0.75869 0.6571 0.0
H3830 H 0.83121 0.77914 0.60471 0.0
H3831 H 0.81451 0.77395 0.6507 0.0
H3832 H 0.77138 0.79604 0.63037 0.0
H3833 H 0.79065 0.77603 0.63386 0.0
H3834 H 0.82472 0.80556 0.61409 0.0
H3835 H 0.80567 0.82541 0.61073 0.0
C3836 C 0.84502 0.76577 0.61974 0.0
C3837 C 0.84709 0.76028 0.63463 0.0
C3838 C 0.83223 0.77452 0.61611 0.0
C3839 C 0.82122 0.77784 0.62726 0.0
C3840 C 0.82278 0.77149 0.64187 0.0
C3841 C 0.83565 0.76283 0.64555 0.0
C3842 C 0.78297 0.79814 0.62666 0.0
C3843 C 0.78707 0.81228 0.62036 0.0
C3844 C 0.79397 0.78674 0.62868 0.0
C3845 C 0.80914 0.78923 0.62417 0.0
C3846 C 0.81307 0.80323 0.61748 0.0
C3847 C 0.80218 0.81465 0.61567 0.0
H3848 H 0.94711 0.01614 0.38581 0.0
H3849 H 0.9282 0.04231 0.34865 0.0
H3850 H 0.96565 0.03634 0.39057 0.0
H3851 H 0.94651 0.0626 0.35358 0.0
H3852 H 0.98639 0.09424 0.36154 0.0
H3853 H 0.97339 0.07071 0.35404 0.0
H3854 H 0.96243 0.06186 0.40123 0.0
H3855 H 0.9755 0.08512 0.40867 0.0
C3856 C 0.94706 0.02611 0.37853 0.0
C3857 C 0.93611 0.02774 0.36697 0.0
C3858 C 0.95762 0.0377 0.38129 0.0
C3859 C 0.95743 0.05114 0.37256 0.0
C3860 C 0.94705 0.05235 0.36043 0.0
C3861 C 0.93649 0.04076 0.35766 0.0
C3862 C 0.98137 0.08713 0.37029 0.0
C3863 C 0.98185 0.09154 0.38567 0.0
C3864 C 0.97389 0.07371 0.366 0.0
C3865 C 0.96687 0.06444 0.37704 0.0
C3866 C 0.96789 0.06862 0.39246 0.0
C3867 C 0.97527 0.08203 0.39672 0.0
H3868 H 0.66653 0.2328 0.15959 0.0
H3869 H 0.65242 0.22821 0.1127 0.0
H3870 H 0.6899 0.21894 0.15401 0.0
H3871 H 0.67549 0.21363 0.10718 0.0
H3872 H 0.71442 0.17396 0.14495 0.0
H3873 H 0.6951 0.19306 0.14962 0.0
H3874 H 0.70266 0.21187 0.1047 0.0
H3875 H 0.72182 0.19216 0.09982 0.0
C3876 C 0.66849 0.22887 0.14806 0.0
C3877 C 0.65761 0.23138 0.13662 0.0
C3878 C 0.68184 0.22086 0.14485 0.0
C3879 C 0.68447 0.21488 0.13021 0.0
C3880 C 0.67392 0.21813 0.11856 0.0
C3881 C 0.66065 0.22641 0.12173 0.0
C3882 C 0.71211 0.18226 0.13611 0.0
C3883 C 0.71958 0.18151 0.12198 0.0
C3884 C 0.70108 0.19335 0.13883 0.0
C3885 C 0.69729 0.20409 0.12756 0.0
C3886 C 0.70516 0.20367 0.11357 0.0
C3887 C 0.7162 0.19246 0.11081 0.0
H3888 H 0.555 0.02786 0.63744 0.0
H3889 H 0.5882 0.05449 0.61266 0.0
H3890 H 0.5352 0.04641 0.6307 0.0
H3891 H 0.56868 0.07299 0.60622 0.0
H3892 H 0.52921 0.09614 0.58444 0.0
H3893 H 0.5462 0.07505 0.59036 0.0
H3894 H 0.52803 0.07319 0.6361 0.0
H3895 H 0.51069 0.09417 0.63001 0.0
C3896 C 0.55805 0.03766 0.63057 0.0
C3897 C 0.57312 0.03971 0.62553 0.0
C3898 C 0.54676 0.04829 0.62677 0.0
C3899 C 0.55035 0.06109 0.61782 0.0
C3900 C 0.56545 0.06309 0.61286 0.0
C3901 C 0.57668 0.05254 0.61666 0.0
C3902 C 0.52872 0.09113 0.59571 0.0
C3903 C 0.51875 0.0969 0.60682 0.0
C3904 C 0.5385 0.07909 0.59913 0.0
C3905 C 0.53863 0.0726 0.61377 0.0
C3906 C 0.52816 0.07791 0.6247 0.0
C3907 C 0.51828 0.08995 0.62124 0.0
H3908 H 0.65804 0.7586 0.37949 0.0
H3909 H 0.66113 0.77043 0.3318 0.0
H3910 H 0.68125 0.77321 0.38456 0.0
H3911 H 0.68438 0.78472 0.3368 0.0
H3912 H 0.7074 0.82756 0.35642 0.0
H3913 H 0.68796 0.80896 0.35002 0.0
H3914 H 0.70927 0.77616 0.37992 0.0
H3915 H 0.72885 0.79502 0.3865 0.0
C3916 C 0.66385 0.76406 0.37006 0.0
C3917 C 0.65767 0.76358 0.3553 0.0
C3918 C 0.67717 0.77235 0.37294 0.0
C3919 C 0.68452 0.78028 0.3611 0.0
C3920 C 0.67881 0.77898 0.3462 0.0
C3921 C 0.66552 0.77075 0.34334 0.0
C3922 C 0.70806 0.81634 0.36153 0.0
C3923 C 0.71962 0.81275 0.37199 0.0
C3924 C 0.69697 0.80563 0.35778 0.0
C3925 C 0.69711 0.79106 0.36442 0.0
C3926 C 0.70884 0.78733 0.37469 0.0
C3927 C 0.72007 0.79807 0.37838 0.0
H3928 H 0.98921 0.91915 0.09497 0.0
H3929 H 0.98565 0.90199 0.14097 0.0
H3930 H 0.97426 0.94151 0.10215 0.0
H3931 H 0.97071 0.92437 0.14813 0.0
H3932 H 0.92397 0.9497 0.14354 0.0
H3933 H 0.94401 0.93089 0.13986 0.0
H3934 H 0.97255 0.96518 0.11905 0.0
H3935 H 0.95235 0.98419 0.12286 0.0
C3936 C 0.98551 0.92032 0.10669 0.0
C3937 C 0.98843 0.90874 0.11737 0.0
C3938 C 0.97703 0.93316 0.11081 0.0
C3939 C 0.97121 0.93458 0.12566 0.0
C3940 C 0.97492 0.92346 0.13656 0.0
C3941 C 0.98352 0.91069 0.13248 0.0
C3942 C 0.93458 0.95329 0.13834 0.0
C3943 C 0.93659 0.96837 0.13341 0.0
C3944 C 0.94611 0.94254 0.13635 0.0
C3945 C 0.95986 0.94658 0.12922 0.0
C3946 C 0.96203 0.96177 0.12455 0.0
C3947 C 0.95053 0.97263 0.12677 0.0
H3948 H 0.85424 0.22992 0.89097 0.0
H3949 H 0.83421 0.23368 0.84616 0.0
H3950 H 0.83267 0.21426 0.89924 0.0
H3951 H 0.81273 0.2181 0.85441 0.0
H3952 H 0.77096 0.19753 0.87694 0.0
H3953 H 0.79029 0.21718 0.87246 0.0
H3954 H 0.82466 0.1877 0.89177 0.0
H3955 H 0.80545 0.16814 0.89619 0.0
C3956 C 0.84513 0.22758 0.88297 0.0
C3957 C 0.84594 0.2329 0.86789 0.0
C3958 C 0.83283 0.2186 0.88768 0.0
C3959 C 0.82105 0.21494 0.87745 0.0
C3960 C 0.82156 0.22085 0.86259 0.0
C3961 C 0.83392 0.22968 0.85783 0.0
C3962 C 0.78261 0.19537 0.88041 0.0
C3963 C 0.78674 0.18129 0.88681 0.0
C3964 C 0.79366 0.20657 0.8778 0.0
C3965 C 0.80897 0.20394 0.88174 0.0
C3966 C 0.81293 0.19011 0.88876 0.0
C3967 C 0.80195 0.17887 0.89119 0.0
H3968 H 0.85315 0.55274 0.96799 0.0
H3969 H 0.89855 0.56943 0.95882 0.0
H3970 H 0.85724 0.53188 0.94986 0.0
H3971 H 0.90254 0.54893 0.94071 0.0
H3972 H 0.91069 0.50679 0.9148 0.0
H3973 H 0.90559 0.52165 0.93771 0.0
H3974 H 0.85971 0.53019 0.92197 0.0
H3975 H 0.86472 0.51501 0.89922 0.0
C3976 C 0.86404 0.55184 0.96224 0.0
C3977 C 0.8755 0.56274 0.96474 0.0
C3978 C 0.86636 0.53996 0.95183 0.0
C3979 C 0.88022 0.53873 0.94385 0.0
C3980 C 0.89182 0.54936 0.94682 0.0
C3981 C 0.88949 0.56121 0.95712 0.0
C3982 C 0.89943 0.51158 0.91638 0.0
C3983 C 0.88817 0.50993 0.90514 0.0
C3984 C 0.89652 0.52015 0.92947 0.0
C3985 C 0.88233 0.52731 0.93154 0.0
C3986 C 0.87074 0.52477 0.92077 0.0
C3987 C 0.87363 0.51613 0.90769 0.0
H3988 H 0.35722 0.94464 0.02565 0.0
H3989 H 0.38938 0.91554 0.04899 0.0
H3990 H 0.36229 0.96496 0.04424 0.0
H3991 H 0.39426 0.93553 0.0674 0.0
H3992 H 0.41147 0.97682 0.0901 0.0
H3993 H 0.40639 0.96064 0.0682 0.0
H3994 H 0.35821 0.96991 0.07239 0.0
H3995 H 0.36337 0.98651 0.09428 0.0
C3996 C 0.36538 0.94262 0.03469 0.0
C3997 C 0.37294 0.92854 0.03586 0.0
C3998 C 0.36823 0.9542 0.04533 0.0
C3999 C 0.37878 0.95188 0.05717 0.0
C4000 C 0.38629 0.93779 0.05824 0.0
C4001 C 0.38341 0.92628 0.04773 0.0
C4002 C 0.39981 0.9756 0.08623 0.0
C4003 C 0.38779 0.98273 0.09402 0.0
C4004 C 0.39689 0.96629 0.07371 0.0
C4005 C 0.38188 0.96379 0.06876 0.0
C4006 C 0.3699 0.97166 0.07595 0.0
C4007 C 0.37284 0.9811 0.08849 0.0
H4008 H 0.76521 0.617 0.84771 0.0
H4009 H 0.77061 0.66391 0.83377 0.0
H4010 H 0.77971 0.60874 0.82535 0.0
H4011 H 0.78491 0.65561 0.81135 0.0
H4012 H 0.80222 0.6334 0.7671 0.0
H4013 H 0.78282 0.63927 0.78642 0.0
H4014 H 0.80832 0.61354 0.81971 0.0
H4015 H 0.82771 0.60793 0.80062 0.0
C4016 C 0.76924 0.62551 0.83972 0.0
C4017 C 0.76693 0.6411 0.84252 0.0
C4018 C 0.77754 0.62078 0.82697 0.0
C4019 C 0.78343 0.63155 0.81668 0.0
C4020 C 0.78038 0.64708 0.81904 0.0
C4021 C 0.77229 0.65182 0.83191 0.0
C4022 C 0.80352 0.62886 0.7785 0.0
C4023 C 0.81647 0.6203 0.78242 0.0
C4024 C 0.79248 0.63224 0.78952 0.0
C4025 C 0.79409 0.62681 0.80451 0.0
C4026 C 0.80672 0.61772 0.80821 0.0
C4027 C 0.81786 0.6146 0.79731 0.0
H4028 H 0.13668 0.05311 0.52384 0.0
H4029 H 0.11161 0.08697 0.54937 0.0
H4030 H 0.12943 0.03372 0.54274 0.0
H4031 H 0.10454 0.06786 0.568 0.0
H4032 H 0.08032 0.02901 0.58954 0.0
H4033 H 0.0878 0.04509 0.56823 0.0
H4034 H 0.13377 0.0277 0.57104 0.0
H4035 H 0.1262 0.01134 0.59239 0.0
C4036 C 0.12969 0.0564 0.53347 0.0
C4037 C 0.12465 0.07153 0.5351 0.0
C4038 C 0.12557 0.04535 0.54426 0.0
C4039 C 0.11625 0.04926 0.55671 0.0
C4040 C 0.11147 0.06443 0.55837 0.0
C4041 C 0.11562 0.07541 0.54772 0.0
C4042 C 0.09198 0.02846 0.58552 0.0
C4043 C 0.10273 0.01908 0.59275 0.0
C4044 C 0.09628 0.0377 0.57334 0.0
C4045 C 0.11142 0.03781 0.56814 0.0
C4046 C 0.12201 0.02782 0.57481 0.0
C4047 C 0.1177 0.01852 0.58705 0.0
H4048 H 0.23258 0.84426 0.82948 0.0
H4049 H 0.23559 0.89054 0.84598 0.0
H4050 H 0.21844 0.85309 0.80723 0.0
H4051 H 0.22126 0.89936 0.82371 0.0
H4052 H 0.17277 0.89793 0.79924 0.0
H4053 H 0.19316 0.89376 0.81762 0.0
H4054 H 0.21942 0.87023 0.78328 0.0
H4055 H 0.19897 0.87462 0.76471 0.0
C4056 C 0.23044 0.85635 0.8282 0.0
C4057 C 0.23502 0.8667 0.83951 0.0
C4058 C 0.22246 0.86141 0.81541 0.0
C4059 C 0.21875 0.87689 0.8138 0.0
C4060 C 0.22396 0.88736 0.82474 0.0
C4061 C 0.23216 0.88231 0.83744 0.0
C4062 C 0.18303 0.89215 0.79553 0.0
C4063 C 0.18428 0.88648 0.78063 0.0
C4064 C 0.19474 0.88986 0.80602 0.0
C4065 C 0.20783 0.88165 0.80186 0.0
C4066 C 0.20941 0.87657 0.78675 0.0
C4067 C 0.19776 0.87911 0.77615 0.0
H4068 H 0.6312 0.48853 0.40787 0.0
H4069 H 0.58307 0.47862 0.41092 0.0
H4070 H 0.63573 0.47331 0.43083 0.0
H4071 H 0.5875 0.46383 0.43393 0.0
H4072 H 0.60443 0.42026 0.45681 0.0
H4073 H 0.59942 0.43913 0.43728 0.0
H4074 H 0.6312 0.47004 0.45872 0.0
H4075 H 0.63645 0.45083 0.47837 0.0
C4076 C 0.62158 0.48335 0.41362 0.0
C4077 C 0.60683 0.48453 0.4075 0.0
C4078 C 0.62415 0.47472 0.42679 0.0
C4079 C 0.61199 0.46719 0.43405 0.0
C4080 C 0.59714 0.46922 0.42841 0.0
C4081 C 0.5946 0.47772 0.41525 0.0
C4082 C 0.61029 0.43111 0.45747 0.0
C4083 C 0.62084 0.43407 0.46912 0.0
C4084 C 0.60733 0.44199 0.44632 0.0
C4085 C 0.61483 0.45613 0.44651 0.0
C4086 C 0.6253 0.4592 0.45825 0.0
C4087 C 0.62824 0.44827 0.46952 0.0
H4088 H 0.75759 0.3887 0.65984 0.0
H4089 H 0.76502 0.34102 0.6696 0.0
H4090 H 0.77254 0.3956 0.6823 0.0
H4091 H 0.77997 0.34792 0.692 0.0
H4092 H 0.80136 0.36538 0.73567 0.0
H4093 H 0.7804 0.36085 0.71777 0.0
H4094 H 0.80073 0.3926 0.68611 0.0
H4095 H 0.82157 0.39705 0.70387 0.0
C4096 C 0.76213 0.3797 0.66697 0.0
C4097 C 0.76031 0.36433 0.66288 0.0
C4098 C 0.77072 0.38365 0.67977 0.0
C4099 C 0.77753 0.3723 0.6888 0.0
C4100 C 0.77478 0.35691 0.68532 0.0
C4101 C 0.76629 0.35296 0.67245 0.0
C4102 C 0.80118 0.37154 0.72498 0.0
C4103 C 0.81313 0.38147 0.72109 0.0
C4104 C 0.78923 0.36893 0.71474 0.0
C4105 C 0.78893 0.37638 0.70056 0.0
C4106 C 0.80054 0.38684 0.69703 0.0
C4107 C 0.81254 0.38929 0.70715 0.0
H4108 H 0.74391 0.61766 0.15365 0.0
H4109 H 0.73452 0.66572 0.15884 0.0
H4110 H 0.72848 0.61226 0.17626 0.0
H4111 H 0.71941 0.66036 0.18148 0.0
H4112 H 0.67464 0.64199 0.20157 0.0
H4113 H 0.69429 0.64808 0.18311 0.0
H4114 H 0.72472 0.61587 0.20458 0.0
H4115 H 0.70478 0.60964 0.22324 0.0
C4116 C 0.73884 0.62708 0.15982 0.0
C4117 C 0.7402 0.64208 0.15436 0.0
C4118 C 0.73007 0.624 0.17279 0.0
C4119 C 0.72256 0.63588 0.18049 0.0
C4120 C 0.72482 0.65095 0.1756 0.0
C4121 C 0.73352 0.65402 0.16266 0.0
C4122 C 0.68555 0.63627 0.20247 0.0
C4123 C 0.68817 0.62532 0.21383 0.0
C4124 C 0.69687 0.63985 0.19194 0.0
C4125 C 0.7111 0.63253 0.19246 0.0
C4126 C 0.71384 0.62166 0.20391 0.0
C4127 C 0.70248 0.61815 0.21459 0.0
H4128 H 0.53824 0.60101 0.92193 0.0
H4129 H 0.52074 0.64024 0.94597 0.0
H4130 H 0.55703 0.5971 0.94175 0.0
H4131 H 0.53948 0.63608 0.96626 0.0
H4132 H 0.58453 0.58649 0.98197 0.0
H4133 H 0.56113 0.58979 0.96747 0.0
H4134 H 0.56698 0.63868 0.96916 0.0
H4135 H 0.59016 0.63531 0.98429 0.0
C4136 C 0.53822 0.60863 0.93164 0.0
C4137 C 0.52807 0.62097 0.93236 0.0
C4138 C 0.54895 0.60633 0.94309 0.0
C4139 C 0.54978 0.61627 0.95564 0.0
C4140 C 0.53923 0.62831 0.95667 0.0
C4141 C 0.52844 0.63063 0.94513 0.0
C4142 C 0.58068 0.59795 0.97944 0.0
C4143 C 0.58925 0.61065 0.98403 0.0
C4144 C 0.56731 0.59985 0.97108 0.0
C4145 C 0.56233 0.61448 0.96688 0.0
C4146 C 0.57043 0.62724 0.97227 0.0
C4147 C 0.58376 0.62534 0.98085 0.0
H4148 H 0.64133 0.2927 0.16703 0.0
H4149 H 0.61459 0.26864 0.20067 0.0
H4150 H 0.6475 0.31213 0.1857 0.0
H4151 H 0.62099 0.2882 0.21961 0.0
H4152 H 0.62068 0.33848 0.23965 0.0
H4153 H 0.61543 0.31578 0.22427 0.0
H4154 H 0.66223 0.31546 0.20894 0.0
H4155 H 0.66734 0.33819 0.22395 0.0
C4156 C 0.63688 0.29149 0.17849 0.0
C4157 C 0.62748 0.27915 0.18239 0.0
C4158 C 0.64051 0.30258 0.18923 0.0
C4159 C 0.63482 0.30165 0.20418 0.0
C4160 C 0.62548 0.28924 0.20816 0.0
C4161 C 0.62189 0.27803 0.19736 0.0
C4162 C 0.62987 0.33339 0.23316 0.0
C4163 C 0.64435 0.34022 0.2328 0.0
C4164 C 0.62688 0.32037 0.22441 0.0
C4165 C 0.63836 0.31398 0.21521 0.0
C4166 C 0.65306 0.32032 0.21564 0.0
C4167 C 0.656 0.33331 0.22429 0.0
H4168 H 0.94249 0.38227 0.41169 0.0
H4169 H 0.96949 0.36137 0.44718 0.0
H4170 H 0.92358 0.38987 0.43046 0.0
H4171 H 0.95041 0.3691 0.46612 0.0
H4172 H 0.90176 0.37173 0.48968 0.0
H4173 H 0.92262 0.36375 0.4729 0.0
H4174 H 0.92272 0.40831 0.45199 0.0
H4175 H 0.90193 0.41622 0.46856 0.0
C4176 C 0.94438 0.37928 0.42352 0.0
C4177 C 0.9575 0.37127 0.42798 0.0
C4178 C 0.93359 0.38372 0.43428 0.0
C4179 C 0.93562 0.38022 0.44976 0.0
C4180 C 0.94857 0.37192 0.45424 0.0
C4181 C 0.95948 0.36754 0.44343 0.0
C4182 C 0.90638 0.37985 0.48161 0.0
C4183 C 0.90013 0.39454 0.48031 0.0
C4184 C 0.91834 0.3753 0.47206 0.0
C4185 C 0.92414 0.38536 0.46103 0.0
C4186 C 0.91829 0.40024 0.46021 0.0
C4187 C 0.90642 0.40478 0.46975 0.0
H4188 H 0.89103 0.65261 0.73915 0.0
H4189 H 0.84395 0.66613 0.73407 0.0
H4190 H 0.89901 0.67507 0.72478 0.0
H4191 H 0.85191 0.68843 0.71955 0.0
H4192 H 0.87096 0.7314 0.69873 0.0
H4193 H 0.86582 0.71298 0.71907 0.0
H4194 H 0.89632 0.68087 0.69753 0.0
H4195 H 0.9015 0.69921 0.67742 0.0
C4196 C 0.88241 0.66052 0.7352 0.0
C4197 C 0.86686 0.65754 0.73757 0.0
C4198 C 0.88698 0.67334 0.72691 0.0
C4199 C 0.87608 0.68343 0.72089 0.0
C4200 C 0.86059 0.68095 0.72413 0.0
C4201 C 0.85602 0.66811 0.73237 0.0
C4202 C 0.87674 0.7205 0.69853 0.0
C4203 C 0.88654 0.71668 0.68645 0.0
C4204 C 0.87375 0.70994 0.71012 0.0
C4205 C 0.88064 0.69546 0.70989 0.0
C4206 C 0.89098 0.69198 0.69817 0.0
C4207 C 0.89386 0.70246 0.68656 0.0
H4208 H 0.52295 0.39869 0.56926 0.0
H4209 H 0.52994 0.35057 0.56191 0.0
H4210 H 0.54252 0.40448 0.55046 0.0
H4211 H 0.55022 0.35624 0.54375 0.0
H4212 H 0.58291 0.37097 0.50657 0.0
H4213 H 0.55916 0.36595 0.52031 0.0
H4214 H 0.56901 0.40359 0.55059 0.0
H4215 H 0.59211 0.40894 0.53648 0.0
C4216 C 0.52863 0.38936 0.56349 0.0
C4217 C 0.52506 0.3742 0.56709 0.0
C4218 C 0.53996 0.39265 0.55283 0.0
C4219 C 0.54826 0.38084 0.54581 0.0
C4220 C 0.54404 0.36565 0.54881 0.0
C4221 C 0.53245 0.36237 0.55926 0.0
C4222 C 0.57985 0.37822 0.51609 0.0
C4223 C 0.58933 0.39035 0.52046 0.0
C4224 C 0.56629 0.37531 0.52401 0.0
C4225 C 0.56206 0.38439 0.53655 0.0
C4226 C 0.5716 0.39657 0.54078 0.0
C4227 C 0.58498 0.39957 0.53277 0.0
H4228 H 0.88865 0.34829 0.76842 0.0
H4229 H 0.84483 0.33011 0.75528 0.0
H4230 H 0.89396 0.3251 0.7828 0.0
H4231 H 0.85029 0.30676 0.76932 0.0
H4232 H 0.90193 0.27896 0.80415 0.0
H4233 H 0.89833 0.29754 0.78361 0.0
H4234 H 0.85102 0.30237 0.79648 0.0
H4235 H 0.85455 0.28379 0.81666 0.0
C4236 C 0.88033 0.33916 0.76827 0.0
C4237 C 0.86623 0.34109 0.76094 0.0
C4238 C 0.8834 0.32583 0.77645 0.0
C4239 C 0.87244 0.31417 0.7774 0.0
C4240 C 0.85883 0.31567 0.76907 0.0
C4241 C 0.85574 0.32901 0.76096 0.0
C4242 C 0.89072 0.28383 0.80238 0.0
C4243 C 0.87854 0.28002 0.81206 0.0
C4244 C 0.88868 0.29451 0.79068 0.0
C4245 C 0.8744 0.30146 0.78841 0.0
C4246 C 0.86211 0.29709 0.79773 0.0
C4247 C 0.86416 0.28652 0.80941 0.0
H4248 H 0.91213 0.58822 0.01994 0.0
H4249 H 0.90858 0.63608 0.00886 0.0
H4250 H 0.93326 0.59369 0.03703 0.0
H4251 H 0.9299 0.64155 0.02613 0.0
H4252 H 0.97754 0.64065 0.05128 0.0
H4253 H 0.95886 0.63566 0.03101 0.0
H4254 H 0.93262 0.60803 0.06216 0.0
H4255 H 0.95103 0.61302 0.08226 0.0
C4256 C 0.91598 0.5999 0.02102 0.0
C4257 C 0.90859 0.61176 0.01322 0.0
C4258 C 0.92806 0.60302 0.03083 0.0
C4259 C 0.93305 0.61805 0.03302 0.0
C4260 C 0.92626 0.62985 0.02459 0.0
C4261 C 0.91406 0.62673 0.01478 0.0
C4262 C 0.96777 0.6335 0.05373 0.0
C4263 C 0.96573 0.62718 0.06831 0.0
C4264 C 0.9571 0.63071 0.04218 0.0
C4265 C 0.94441 0.62137 0.04502 0.0
C4266 C 0.94243 0.6151 0.05961 0.0
C4267 C 0.95292 0.61802 0.07113 0.0
H4268 H 0.61874 0.6568 0.25511 0.0
H4269 H 0.66579 0.65967 0.26938 0.0
H4270 H 0.61267 0.67906 0.27087 0.0
H4271 H 0.65977 0.68187 0.28486 0.0
H4272 H 0.6383 0.70196 0.32793 0.0
H4273 H 0.64468 0.68309 0.30876 0.0
H4274 H 0.61768 0.70743 0.27556 0.0
H4275 H 0.61118 0.72653 0.29499 0.0
C4276 C 0.62782 0.66236 0.26136 0.0
C4277 C 0.64268 0.65638 0.26122 0.0
C4278 C 0.62436 0.67511 0.27032 0.0
C4279 C 0.63572 0.68203 0.27925 0.0
C4280 C 0.65074 0.67659 0.27831 0.0
C4281 C 0.65418 0.6639 0.26942 0.0
C4282 C 0.63374 0.70336 0.31655 0.0
C4283 C 0.62425 0.71572 0.31295 0.0
C4284 C 0.63749 0.69259 0.30552 0.0
C4285 C 0.6318 0.69387 0.29063 0.0
C4286 C 0.62221 0.70619 0.28698 0.0
C4287 C 0.61854 0.71711 0.29805 0.0
H4288 H 0.9322 0.54852 0.65115 0.0
H4289 H 0.95286 0.51712 0.61937 0.0
H4290 H 0.9514 0.56755 0.6449 0.0
H4291 H 0.97222 0.53622 0.61313 0.0
H4292 H 0.98368 0.58355 0.59016 0.0
H4293 H 0.97032 0.56087 0.59912 0.0
H4294 H 0.97881 0.57424 0.64572 0.0
H4295 H 0.99207 0.59702 0.63675 0.0
C4296 C 0.94104 0.54559 0.64305 0.0
C4297 C 0.94097 0.5314 0.63566 0.0
C4298 C 0.9521 0.55646 0.63953 0.0
C4299 C 0.96327 0.55341 0.62846 0.0
C4300 C 0.96365 0.53893 0.6216 0.0
C4301 C 0.95264 0.52798 0.62523 0.0
C4302 C 0.98292 0.58151 0.60231 0.0
C4303 C 0.98876 0.59213 0.61276 0.0
C4304 C 0.97536 0.56847 0.60744 0.0
C4305 C 0.97343 0.56584 0.62313 0.0
C4306 C 0.97997 0.57607 0.63357 0.0
C4307 C 0.98761 0.58907 0.62843 0.0
H4308 H 0.66396 0.7372 0.83326 0.0
H4309 H 0.65829 0.74269 0.88185 0.0
H4310 H 0.68766 0.72336 0.83756 0.0
H4311 H 0.68194 0.72861 0.88616 0.0
H4312 H 0.72952 0.70745 0.88829 0.0
H4313 H 0.71029 0.72695 0.88256 0.0
H4314 H 0.69106 0.69759 0.84804 0.0
H4315 H 0.71012 0.67833 0.85367 0.0
C4316 C 0.66791 0.73566 0.84485 0.0
C4317 C 0.65917 0.74083 0.85723 0.0
C4318 C 0.68145 0.7277 0.84731 0.0
C4319 C 0.68653 0.72471 0.8622 0.0
C4320 C 0.67835 0.7308 0.87456 0.0
C4321 C 0.66477 0.7388 0.87209 0.0
C4322 C 0.72129 0.70532 0.87934 0.0
C4323 C 0.72125 0.69137 0.87147 0.0
C4324 C 0.71027 0.71642 0.87611 0.0
C4325 C 0.6992 0.71381 0.86482 0.0
C4326 C 0.69956 0.70006 0.85663 0.0
C4327 C 0.71043 0.68896 0.85995 0.0
H4328 H 0.56659 0.45813 0.09885 0.0
H4329 H 0.54182 0.4744 0.13816 0.0
H4330 H 0.54657 0.43977 0.09372 0.0
H4331 H 0.52151 0.45588 0.13293 0.0
H4332 H 0.50641 0.40375 0.1301 0.0
H4333 H 0.52021 0.42751 0.13449 0.0
H4334 H 0.51995 0.43659 0.08611 0.0
H4335 H 0.50644 0.41272 0.0817 0.0
C4336 C 0.55671 0.45793 0.10627 0.0
C4337 C 0.5558 0.46761 0.11897 0.0
C4338 C 0.54516 0.44749 0.10325 0.0
C4339 C 0.53243 0.44638 0.11291 0.0
C4340 C 0.53123 0.45644 0.12534 0.0
C4341 C 0.54279 0.46706 0.12829 0.0
C4342 C 0.50901 0.411 0.12045 0.0
C4343 C 0.50561 0.40627 0.10553 0.0
C4344 C 0.51684 0.42465 0.12297 0.0
C4345 C 0.52136 0.4338 0.11062 0.0
C4346 C 0.51686 0.42963 0.09582 0.0
C4347 C 0.50909 0.41598 0.0933 0.0
H4348 H 0.76613 0.30103 0.37449 0.0
H4349 H 0.79942 0.3278 0.39896 0.0
H4350 H 0.78529 0.28121 0.37021 0.0
H4351 H 0.81852 0.30811 0.39462 0.0
H4352 H 0.84747 0.26551 0.39233 0.0
H4353 H 0.82583 0.28125 0.40022 0.0
H4354 H 0.80867 0.28068 0.35409 0.0
H4355 H 0.83017 0.26495 0.34625 0.0
C4356 C 0.77747 0.30257 0.37914 0.0
C4357 C 0.78133 0.31599 0.38695 0.0
C4358 C 0.78843 0.29127 0.37664 0.0
C4359 C 0.80342 0.29315 0.38202 0.0
C4360 C 0.80704 0.30626 0.39046 0.0
C4361 C 0.79612 0.31758 0.39287 0.0
C4362 C 0.83897 0.26861 0.38395 0.0
C4363 C 0.84055 0.26412 0.36866 0.0
C4364 C 0.82662 0.27764 0.38844 0.0
C4365 C 0.81558 0.28221 0.37777 0.0
C4366 C 0.81689 0.2772 0.36262 0.0
C4367 C 0.82927 0.26829 0.35811 0.0
H4368 H 0.95156 0.48166 0.87917 0.0
H4369 H 0.92864 0.44845 0.851 0.0
H4370 H 0.97162 0.46302 0.88473 0.0
H4371 H 0.94852 0.42993 0.85654 0.0
H4372 H 0.98922 0.40063 0.86283 0.0
H4373 H 0.97587 0.42332 0.85372 0.0
H4374 H 0.97102 0.43908 0.9001 0.0
H4375 H 0.98442 0.41651 0.90918 0.0
C4376 C 0.95097 0.47049 0.87395 0.0
C4377 C 0.9385 0.46644 0.86477 0.0
C4378 C 0.96239 0.45982 0.87717 0.0
C4379 C 0.96162 0.445 0.8711 0.0
C4380 C 0.94956 0.44129 0.86125 0.0
C4381 C 0.93809 0.45187 0.85817 0.0
C4382 C 0.9856 0.40912 0.87104 0.0
C4383 C 0.98768 0.40672 0.88673 0.0
C4384 C 0.97792 0.42207 0.86583 0.0
C4385 C 0.97226 0.43289 0.87621 0.0
C4386 C 0.97533 0.43101 0.89181 0.0
C4387 C 0.98292 0.41802 0.89702 0.0
H4388 H 0.77842 0.70218 0.10194 0.0
H4389 H 0.79763 0.67543 0.13853 0.0
H4390 H 0.79676 0.72264 0.10739 0.0
H4391 H 0.81567 0.69573 0.14399 0.0
H4392 H 0.83746 0.73874 0.15936 0.0
H4393 H 0.81529 0.72301 0.15361 0.0
H4394 H 0.82629 0.72486 0.10569 0.0
H4395 H 0.84856 0.74066 0.11142 0.0
C4396 C 0.78645 0.70075 0.11119 0.0
C4397 C 0.78665 0.68723 0.11979 0.0
C4398 C 0.79693 0.7124 0.11428 0.0
C4399 C 0.80753 0.71079 0.12618 0.0
C4400 C 0.80749 0.69738 0.1349 0.0
C4401 C 0.79723 0.6857 0.13169 0.0
C4402 C 0.835 0.73605 0.14756 0.0
C4403 C 0.84485 0.74075 0.13585 0.0
C4404 C 0.82234 0.72702 0.14429 0.0
C4405 C 0.81921 0.72258 0.12924 0.0
C4406 C 0.82842 0.72817 0.11739 0.0
C4407 C 0.84119 0.73715 0.12068 0.0
H4408 H 0.49854 0.58441 0.38695 0.0
H4409 H 0.54019 0.61038 0.3909 0.0
H4410 H 0.51352 0.56137 0.38163 0.0
H4411 H 0.55498 0.58766 0.38537 0.0
H4412 H 0.57771 0.54339 0.3949 0.0
H4413 H 0.5604 0.56444 0.39963 0.0
H4414 H 0.5316 0.54929 0.36271 0.0
H4415 H 0.54897 0.5278 0.35811 0.0
C4416 C 0.51085 0.58522 0.38651 0.0
C4417 C 0.51822 0.59914 0.3895 0.0
C4418 C 0.51941 0.57207 0.38343 0.0
C4419 C 0.53543 0.57266 0.38334 0.0
C4420 C 0.54267 0.58674 0.38573 0.0
C4421 C 0.53418 0.59979 0.38881 0.0
C4422 C 0.56762 0.54443 0.38785 0.0
C4423 C 0.56477 0.53406 0.37601 0.0
C4424 C 0.55774 0.55655 0.39052 0.0
C4425 C 0.54481 0.55872 0.38133 0.0
C4426 C 0.54149 0.54792 0.36995 0.0
C4427 C 0.55142 0.53565 0.36731 0.0
H4428 H 0.66611 0.26256 0.65679 0.0
H4429 H 0.64629 0.27213 0.61277 0.0
H4430 H 0.68859 0.27749 0.64996 0.0
H4431 H 0.66877 0.28724 0.606 0.0
H4432 H 0.69614 0.33248 0.61634 0.0
H4433 H 0.67673 0.31277 0.61846 0.0
H4434 H 0.71127 0.2799 0.63063 0.0
H4435 H 0.73094 0.29974 0.62822 0.0
C4436 C 0.66669 0.26764 0.64555 0.0
C4437 C 0.65441 0.26635 0.63536 0.0
C4438 C 0.6796 0.27607 0.64161 0.0
C4439 C 0.68034 0.28355 0.6275 0.0
C4440 C 0.66841 0.28161 0.61699 0.0
C4441 C 0.65559 0.27297 0.62084 0.0
C4442 C 0.69964 0.32102 0.61933 0.0
C4443 C 0.715 0.31763 0.62224 0.0
C4444 C 0.68854 0.30972 0.62039 0.0
C4445 C 0.69254 0.29483 0.62462 0.0
C4446 C 0.70795 0.29132 0.62731 0.0
C4447 C 0.71915 0.30262 0.62594 0.0
H4448 H 0.61376 0.91815 0.55271 0.0
H4449 H 0.64439 0.94689 0.527 0.0
H4450 H 0.60948 0.93869 0.57074 0.0
H4451 H 0.64001 0.96769 0.54523 0.0
H4452 H 0.64059 0.99087 0.59463 0.0
H4453 H 0.64524 0.97327 0.57342 0.0
H4454 H 0.59697 0.96407 0.57062 0.0
H4455 H 0.59235 0.98138 0.59176 0.0
C4456 C 0.61955 0.9289 0.55088 0.0
C4457 C 0.62939 0.93092 0.53843 0.0
C4458 C 0.61702 0.94071 0.56117 0.0
C4459 C 0.6243 0.95484 0.55931 0.0
C4460 C 0.63427 0.95689 0.54693 0.0
C4461 C 0.63673 0.94504 0.5365 0.0
C4462 C 0.63098 0.98526 0.58929 0.0
C4463 C 0.61614 0.98732 0.59497 0.0
C4464 C 0.63363 0.97525 0.57714 0.0
C4465 C 0.62148 0.96714 0.57054 0.0
C4466 C 0.60658 0.96994 0.57567 0.0
C4467 C 0.60394 0.9799 0.58775 0.0
H4468 H 0.15335 0.56182 0.45451 0.0
H4469 H 0.11167 0.55127 0.47852 0.0
H4470 H 0.14687 0.54309 0.43499 0.0
H4471 H 0.10518 0.53253 0.45895 0.0
H4472 H 0.08996 0.5235 0.40861 0.0
H4473 H 0.09784 0.53707 0.43149 0.0
H4474 H 0.14181 0.51501 0.42954 0.0
H4475 H 0.13384 0.50127 0.40653 0.0
C4476 C 0.14295 0.55528 0.45577 0.0
C4477 C 0.13294 0.55809 0.46795 0.0
C4478 C 0.13928 0.54451 0.44463 0.0
C4479 C 0.12546 0.53647 0.4454 0.0
C4480 C 0.11584 0.5387 0.45801 0.0
C4481 C 0.11959 0.54936 0.46924 0.0
C4482 C 0.10126 0.52144 0.41312 0.0
C4483 C 0.11133 0.51141 0.40575 0.0
C4484 C 0.10573 0.52911 0.4263 0.0
C4485 C 0.12041 0.52705 0.43232 0.0
C4486 C 0.13043 0.51682 0.4251 0.0
C4487 C 0.12587 0.50896 0.41199 0.0
H4488 H 0.70238 0.86813 0.73386 0.0
H4489 H 0.6725 0.88356 0.69791 0.0
H4490 H 0.72276 0.86405 0.71504 0.0
H4491 H 0.69276 0.87973 0.67934 0.0
H4492 H 0.73541 0.88491 0.65188 0.0
H4493 H 0.71926 0.89107 0.67368 0.0
H4494 H 0.72579 0.84567 0.69147 0.0
H4495 H 0.7419 0.83941 0.66957 0.0
C4496 C 0.70022 0.87073 0.72199 0.0
C4497 C 0.68587 0.8761 0.71731 0.0
C4498 C 0.71183 0.86838 0.71126 0.0
C4499 C 0.70933 0.87171 0.69579 0.0
C4500 C 0.69505 0.87728 0.69122 0.0
C4501 C 0.68343 0.87936 0.70184 0.0
C4502 C 0.73366 0.87634 0.66059 0.0
C4503 C 0.73977 0.86163 0.65894 0.0
C4504 C 0.72439 0.87985 0.67303 0.0
C4505 C 0.72118 0.86879 0.68414 0.0
C4506 C 0.72814 0.85442 0.68307 0.0
C4507 C 0.7373 0.85083 0.67052 0.0
H4508 H 0.40194 0.48959 0.91652 0.0
H4509 H 0.35717 0.47811 0.89968 0.0
H4510 H 0.39743 0.47427 0.9392 0.0
H4511 H 0.35282 0.46218 0.92215 0.0
H4512 H 0.34762 0.43759 0.96755 0.0
H4513 H 0.34985 0.459 0.94972 0.0
H4514 H 0.39705 0.44723 0.94185 0.0
H4515 H 0.39491 0.42631 0.95971 0.0
C4516 C 0.39104 0.48391 0.91779 0.0
C4517 C 0.37998 0.48482 0.90628 0.0
C4518 C 0.38848 0.47507 0.93073 0.0
C4519 C 0.3749 0.46671 0.93233 0.0
C4520 C 0.36338 0.46851 0.92131 0.0
C4521 C 0.36588 0.47757 0.90841 0.0
C4522 C 0.35851 0.4398 0.96217 0.0
C4523 C 0.37108 0.43027 0.96497 0.0
C4524 C 0.35976 0.45198 0.95191 0.0
C4525 C 0.37363 0.45487 0.94437 0.0
C4526 C 0.38627 0.44557 0.94763 0.0
C4527 C 0.38501 0.43346 0.9578 0.0
H4528 H 0.32239 0.60087 0.70202 0.0
H4529 H 0.30026 0.63333 0.73168 0.0
H4530 H 0.30307 0.60535 0.68263 0.0
H4531 H 0.28078 0.6378 0.7122 0.0
H4532 H 0.2676 0.65727 0.66386 0.0
H4533 H 0.28188 0.65041 0.6867 0.0
H4534 H 0.27564 0.60269 0.67631 0.0
H4535 H 0.26143 0.60956 0.65337 0.0
C4536 C 0.31323 0.60878 0.70449 0.0
C4537 C 0.31288 0.61683 0.71831 0.0
C4538 C 0.30211 0.61127 0.69341 0.0
C4539 C 0.29044 0.62196 0.69587 0.0
C4540 C 0.28972 0.62958 0.70995 0.0
C4541 C 0.30081 0.62697 0.72112 0.0
C4542 C 0.26908 0.64532 0.66658 0.0
C4543 C 0.26355 0.63395 0.65676 0.0
C4544 C 0.27717 0.64139 0.67971 0.0
C4545 C 0.27995 0.62601 0.68324 0.0
C4546 C 0.27381 0.61464 0.67378 0.0
C4547 C 0.26564 0.61857 0.66069 0.0
H4548 H 0.85365 0.0709 0.0492 0.0
H4549 H 0.88366 0.04804 0.01757 0.0
H4550 H 0.85862 0.05131 0.06817 0.0
H4551 H 0.88866 0.02828 0.03668 0.0
H4552 H 0.91012 0.01496 0.08461 0.0
H4553 H 0.90261 0.0288 0.06169 0.0
H4554 H 0.85525 0.02385 0.07418 0.0
H4555 H 0.86275 0.01011 0.09718 0.0
C4556 C 0.86115 0.06155 0.04624 0.0
C4557 C 0.86836 0.06104 0.03196 0.0
C4558 C 0.86391 0.05026 0.05706 0.0
C4559 C 0.87403 0.03826 0.05391 0.0
C4560 C 0.88087 0.03745 0.03943 0.0
C4561 C 0.87797 0.04871 0.0285 0.0
C4562 C 0.89809 0.01656 0.0823 0.0
C4563 C 0.88702 0.01164 0.09278 0.0
C4564 C 0.89379 0.02441 0.06913 0.0
C4565 C 0.87835 0.02754 0.06624 0.0
C4566 C 0.86724 0.02177 0.07624 0.0
C4567 C 0.87154 0.01386 0.08937 0.0
H4568 H 0.74117 0.15983 0.83763 0.0
H4569 H 0.73621 0.11214 0.84883 0.0
H4570 H 0.72587 0.15606 0.81475 0.0
H4571 H 0.72067 0.10842 0.82606 0.0
H4572 H 0.6779 0.14777 0.79426 0.0
H4573 H 0.69843 0.15124 0.81249 0.0
H4574 H 0.71885 0.10891 0.79775 0.0
H4575 H 0.69805 0.10536 0.77944 0.0
C4576 C 0.73701 0.14849 0.83507 0.0
C4577 C 0.7397 0.13632 0.84511 0.0
C4578 C 0.7282 0.14634 0.82201 0.0
C4579 C 0.72188 0.132 0.81873 0.0
C4580 C 0.72544 0.11959 0.82823 0.0
C4581 C 0.73428 0.12174 0.84131 0.0
C4582 C 0.68684 0.13927 0.79478 0.0
C4583 C 0.68633 0.12625 0.7855 0.0
C4584 C 0.69869 0.14132 0.80514 0.0
C4585 C 0.7103 0.13037 0.80653 0.0
C4586 C 0.71002 0.1175 0.79698 0.0
C4587 C 0.69816 0.1155 0.78648 0.0
H4588 H 0.82086 0.90021 0.2972 0.0
H4589 H 0.8042 0.86273 0.26999 0.0
H4590 H 0.80231 0.89417 0.31696 0.0
H4591 H 0.78547 0.85676 0.28975 0.0
H4592 H 0.77485 0.8381 0.33845 0.0
H4593 H 0.78843 0.84606 0.31561 0.0
H4594 H 0.77497 0.89271 0.32379 0.0
H4595 H 0.76143 0.88472 0.34683 0.0
C4596 C 0.81303 0.89085 0.29532 0.0
C4597 C 0.81406 0.88185 0.28213 0.0
C4598 C 0.80234 0.88745 0.30661 0.0
C4599 C 0.7925 0.87492 0.30496 0.0
C4600 C 0.79304 0.86637 0.29141 0.0
C4601 C 0.8037 0.86983 0.28008 0.0
C4602 C 0.77464 0.85003 0.33529 0.0
C4603 C 0.76719 0.86081 0.34448 0.0
C4604 C 0.78232 0.85458 0.32213 0.0
C4605 C 0.78278 0.87002 0.3179 0.0
C4606 C 0.77491 0.88075 0.32684 0.0
C4607 C 0.76712 0.87617 0.33998 0.0
H4608 H 0.45153 0.34399 0.06578 0.0
H4609 H 0.48324 0.37491 0.04429 0.0
H4610 H 0.43365 0.34773 0.04489 0.0
H4611 H 0.46527 0.37866 0.02328 0.0
H4612 H 0.41756 0.39966 0.00914 0.0
H4613 H 0.44006 0.39213 0.02355 0.0
H4614 H 0.4285 0.34474 0.01697 0.0
H4615 H 0.40587 0.3523 0.0025 0.0
C4616 C 0.4548 0.35135 0.05642 0.0
C4617 C 0.46869 0.35929 0.05672 0.0
C4618 C 0.4446 0.3534 0.04439 0.0
C4619 C 0.44803 0.36355 0.0325 0.0
C4620 C 0.4623 0.37086 0.03237 0.0
C4621 C 0.47259 0.36867 0.04435 0.0
C4622 C 0.41998 0.38763 0.01051 0.0
C4623 C 0.40989 0.37656 0.00486 0.0
C4624 C 0.43293 0.38331 0.01866 0.0
C4625 C 0.43599 0.36784 0.02145 0.0
C4626 C 0.42634 0.35674 0.01508 0.0
C4627 C 0.41344 0.36107 0.00677 0.0
H4628 H 0.33835 0.66846 0.75695 0.0
H4629 H 0.38591 0.65637 0.76104 0.0
H4630 H 0.34359 0.69313 0.76858 0.0
H4631 H 0.39111 0.68102 0.77293 0.0
H4632 H 0.39689 0.72977 0.78933 0.0
H4633 H 0.39138 0.70952 0.77082 0.0
H4634 H 0.35 0.69871 0.79524 0.0
H4635 H 0.35545 0.71877 0.8135 0.0
C4636 C 0.34997 0.67117 0.76014 0.0
C4637 C 0.36169 0.66041 0.75831 0.0
C4638 C 0.35296 0.68529 0.76682 0.0
C4639 C 0.36772 0.68894 0.77184 0.0
C4640 C 0.37964 0.67858 0.76909 0.0
C4641 C 0.37664 0.66443 0.76238 0.0
C4642 C 0.38648 0.72324 0.79049 0.0
C4643 C 0.37664 0.72575 0.80287 0.0
C4644 C 0.38338 0.71162 0.77998 0.0
C4645 C 0.37028 0.70252 0.78159 0.0
C4646 C 0.36009 0.70563 0.79355 0.0
C4647 C 0.36327 0.71706 0.80409 0.0
H4648 H 0.10889 0.63226 0.52534 0.0
H4649 H 0.08362 0.59518 0.50508 0.0
H4650 H 0.08691 0.63859 0.54114 0.0
H4651 H 0.06161 0.60151 0.52099 0.0
H4652 H 0.02136 0.62562 0.54562 0.0
H4653 H 0.04181 0.62182 0.52691 0.0
H4654 H 0.07519 0.62461 0.56296 0.0
H4655 H 0.05494 0.62837 0.58151 0.0
C4656 C 0.09856 0.6256 0.5241 0.0
C4657 C 0.09801 0.61314 0.51407 0.0
C4658 C 0.08601 0.62918 0.53321 0.0
C4659 C 0.07261 0.62043 0.53242 0.0
C4660 C 0.07176 0.60848 0.52179 0.0
C4661 C 0.08438 0.60483 0.51273 0.0
C4662 C 0.03308 0.62543 0.54949 0.0
C4663 C 0.03657 0.62727 0.56501 0.0
C4664 C 0.04476 0.62323 0.53881 0.0
C4665 C 0.06009 0.62304 0.54347 0.0
C4666 C 0.06351 0.62495 0.55899 0.0
C4667 C 0.05189 0.62699 0.56963 0.0
H4668 H 0.12562 0.26745 0.29745 0.0
H4669 H 0.09647 0.3005 0.31938 0.0
H4670 H 0.13107 0.28581 0.27713 0.0
H4671 H 0.10173 0.3187 0.29901 0.0
H4672 H 0.10866 0.34563 0.25531 0.0
H4673 H 0.09958 0.32352 0.26982 0.0
H4674 H 0.14611 0.31116 0.28 0.0
H4675 H 0.15515 0.33329 0.26578 0.0
C4676 C 0.12007 0.27847 0.29771 0.0
C4677 C 0.11074 0.28263 0.31002 0.0
C4678 C 0.12323 0.28897 0.28613 0.0
C4679 C 0.11686 0.30366 0.28657 0.0
C4680 C 0.10669 0.30741 0.29834 0.0
C4681 C 0.10375 0.29703 0.31003 0.0
C4682 C 0.11692 0.33803 0.26045 0.0
C4683 C 0.13259 0.3412 0.25956 0.0
C4684 C 0.11173 0.32543 0.26874 0.0
C4685 C 0.12216 0.31566 0.27598 0.0
C4686 C 0.13784 0.31842 0.27438 0.0
C4687 C 0.14301 0.33113 0.26635 0.0
H4688 H 0.47877 0.60689 0.44822 0.0
H4689 H 0.4631 0.65351 0.44659 0.0
H4690 H 0.45913 0.60094 0.46696 0.0
H4691 H 0.44309 0.64748 0.46485 0.0
H4692 H 0.40967 0.63359 0.50124 0.0
H4693 H 0.43432 0.63972 0.48966 0.0
H4694 H 0.43237 0.59782 0.46381 0.0
H4695 H 0.40819 0.5916 0.47561 0.0
C4696 C 0.47129 0.61593 0.45207 0.0
C4697 C 0.47232 0.63061 0.4458 0.0
C4698 C 0.45996 0.6125 0.46272 0.0
C4699 C 0.4493 0.62364 0.46717 0.0
C4700 C 0.45112 0.63862 0.46176 0.0
C4701 C 0.46256 0.64208 0.45123 0.0
C4702 C 0.41467 0.62563 0.49323 0.0
C4703 C 0.40697 0.61217 0.48924 0.0
C4704 C 0.42874 0.62915 0.48656 0.0
C4705 C 0.43536 0.61927 0.47579 0.0
C4706 C 0.42782 0.60558 0.47225 0.0
C4707 C 0.41383 0.60207 0.47891 0.0
H4708 H 0.14631 0.71241 0.17914 0.0
H4709 H 0.10713 0.72514 0.2061 0.0
H4710 H 0.1522 0.69224 0.19697 0.0
H4711 H 0.11331 0.70498 0.22444 0.0
H4712 H 0.11726 0.65292 0.23707 0.0
H4713 H 0.11221 0.6773 0.22454 0.0
H4714 H 0.16068 0.68576 0.22174 0.0
H4715 H 0.16564 0.6612 0.23359 0.0
C4716 C 0.13913 0.7111 0.1891 0.0
C4717 C 0.1262 0.72027 0.19117 0.0
C4718 C 0.14258 0.69957 0.19943 0.0
C4719 C 0.13321 0.69694 0.21216 0.0
C4720 C 0.12064 0.70661 0.21465 0.0
C4721 C 0.11718 0.71822 0.20424 0.0
C4722 C 0.12678 0.66011 0.23391 0.0
C4723 C 0.14183 0.65508 0.23599 0.0
C4724 C 0.12391 0.67413 0.22685 0.0
C4725 C 0.13606 0.6834 0.22193 0.0
C4726 C 0.15107 0.67874 0.22502 0.0
C4727 C 0.15392 0.66468 0.23184 0.0
H4728 H 0.08137 0.41326 0.98404 0.0
H4729 H 0.09633 0.36649 0.98766 0.0
H4730 H 0.05834 0.40486 0.97079 0.0
H4731 H 0.07337 0.35814 0.97428 0.0
H4732 H 0.04794 0.35804 0.92681 0.0
H4733 H 0.06716 0.36356 0.94607 0.0
H4734 H 0.03371 0.38805 0.97259 0.0
H4735 H 0.01425 0.38225 0.95329 0.0
C4736 C 0.07957 0.40117 0.9823 0.0
C4737 C 0.0907 0.39054 0.98673 0.0
C4738 C 0.06636 0.39636 0.97479 0.0
C4739 C 0.06417 0.38087 0.97142 0.0
C4740 C 0.07486 0.37017 0.97666 0.0
C4741 C 0.08796 0.37494 0.98435 0.0
C4742 C 0.04463 0.36443 0.93684 0.0
C4743 C 0.02965 0.36979 0.93855 0.0
C4744 C 0.0556 0.36748 0.94792 0.0
C4745 C 0.0519 0.37618 0.96082 0.0
C4746 C 0.03683 0.3813 0.96273 0.0
C4747 C 0.02572 0.37797 0.95174 0.0
H4748 H 0.40323 0.27637 0.6992 0.0
H4749 H 0.35422 0.27593 0.69465 0.0
H4750 H 0.40121 0.2965 0.71838 0.0
H4751 H 0.35219 0.29618 0.71331 0.0
H4752 H 0.34985 0.32968 0.75028 0.0
H4753 H 0.35487 0.30487 0.73881 0.0
H4754 H 0.39511 0.32318 0.71704 0.0
H4755 H 0.39037 0.34778 0.729 0.0
C4756 C 0.39203 0.28038 0.70249 0.0
C4757 C 0.37889 0.27469 0.69534 0.0
C4758 C 0.39087 0.29198 0.71339 0.0
C4759 C 0.37655 0.29809 0.7173 0.0
C4760 C 0.3634 0.29168 0.71076 0.0
C4761 C 0.36456 0.28011 0.69994 0.0
C4762 C 0.35994 0.32829 0.74329 0.0
C4763 C 0.36961 0.34069 0.74035 0.0
C4764 C 0.36278 0.3141 0.73666 0.0
C4765 C 0.37525 0.31208 0.72679 0.0
C4766 C 0.38547 0.32426 0.72467 0.0
C4767 C 0.3827 0.33841 0.73144 0.0
H4768 H 0.0458 0.47231 0.35532 0.0
H4769 H 0.06637 0.45899 0.39801 0.0
H4770 H 0.02549 0.45359 0.35933 0.0
H4771 H 0.04643 0.44022 0.40186 0.0
H4772 H 0.00966 0.40233 0.36236 0.0
H4773 H 0.02427 0.42575 0.35875 0.0
H4774 H 0.01985 0.43583 0.40676 0.0
H4775 H 0.00568 0.41224 0.4104 0.0
C4776 C 0.04584 0.46557 0.36567 0.0
C4777 C 0.0577 0.46703 0.37632 0.0
C4778 C 0.03428 0.45479 0.3679 0.0
C4779 C 0.03437 0.44536 0.38087 0.0
C4780 C 0.04587 0.44741 0.39184 0.0
C4781 C 0.05738 0.45812 0.38959 0.0
C4782 C 0.0116 0.4097 0.37207 0.0
C4783 C 0.00676 0.40536 0.38669 0.0
C4784 C 0.0199 0.42316 0.37 0.0
C4785 C 0.0234 0.43256 0.38252 0.0
C4786 C 0.01762 0.42868 0.39694 0.0
C4787 C 0.00946 0.4152 0.39902 0.0
H4788 H 0.28388 0.31573 0.14534 0.0
H4789 H 0.27302 0.29444 0.10232 0.0
H4790 H 0.30232 0.29581 0.15064 0.0
H4791 H 0.29149 0.2742 0.10773 0.0
H4792 H 0.3435 0.26098 0.11353 0.0
H4793 H 0.31952 0.27414 0.10859 0.0
H4794 H 0.307 0.2691 0.15595 0.0
H4795 H 0.33114 0.25626 0.16094 0.0
C4796 C 0.28521 0.30657 0.13716 0.0
C4797 C 0.27713 0.30671 0.12336 0.0
C4798 C 0.29571 0.29507 0.14025 0.0
C4799 C 0.29843 0.28343 0.12958 0.0
C4800 C 0.28974 0.2831 0.11611 0.0
C4801 C 0.27911 0.29462 0.11305 0.0
C4802 C 0.33548 0.26241 0.12281 0.0
C4803 C 0.33929 0.25783 0.13766 0.0
C4804 C 0.32169 0.26987 0.11997 0.0
C4805 C 0.31143 0.27284 0.13193 0.0
C4806 C 0.31479 0.26722 0.14655 0.0
C4807 C 0.32859 0.25982 0.1494 0.0
H4808 H 0.43135 0.53799 0.84641 0.0
H4809 H 0.43375 0.52358 0.89342 0.0
H4810 H 0.45068 0.55742 0.85141 0.0
H4811 H 0.45324 0.54271 0.89833 0.0
H4812 H 0.46679 0.59282 0.90554 0.0
H4813 H 0.45163 0.57034 0.90002 0.0
H4814 H 0.47741 0.56296 0.8587 0.0
H4815 H 0.49257 0.58577 0.86418 0.0
C4816 C 0.43623 0.53878 0.85772 0.0
C4817 C 0.43092 0.52944 0.86958 0.0
C4818 C 0.44735 0.54985 0.86057 0.0
C4819 C 0.45334 0.55171 0.87532 0.0
C4820 C 0.44863 0.54174 0.88693 0.0
C4821 C 0.43751 0.53075 0.8841 0.0
C4822 C 0.46933 0.58635 0.89533 0.0
C4823 C 0.48082 0.59107 0.88526 0.0
C4824 C 0.46071 0.57338 0.89222 0.0
C4825 C 0.46336 0.56483 0.87895 0.0
C4826 C 0.47505 0.56939 0.86897 0.0
C4827 C 0.48375 0.58238 0.87213 0.0
H4828 H 0.22482 0.6975 0.61447 0.0
H4829 H 0.19746 0.66115 0.63331 0.0
H4830 H 0.20464 0.71583 0.62078 0.0
H4831 H 0.17744 0.67929 0.63944 0.0
H4832 H 0.15288 0.71679 0.6643 0.0
H4833 H 0.17426 0.70047 0.65764 0.0
H4834 H 0.17732 0.7222 0.61358 0.0
H4835 H 0.15583 0.73877 0.62034 0.0
C4836 C 0.21451 0.69344 0.61992 0.0
C4837 C 0.21275 0.67792 0.62348 0.0
C4838 C 0.20296 0.7039 0.62345 0.0
C4839 C 0.18953 0.699 0.63071 0.0
C4840 C 0.18776 0.68345 0.63408 0.0
C4841 C 0.19921 0.67305 0.6305 0.0
C4842 C 0.15815 0.71818 0.65321 0.0
C4843 C 0.1526 0.72899 0.64279 0.0
C4844 C 0.17036 0.70878 0.64938 0.0
C4845 C 0.17736 0.70994 0.63503 0.0
C4846 C 0.17218 0.72109 0.62475 0.0
C4847 C 0.15986 0.73052 0.62858 0.0
H4848 H 0.05156 0.51775 0.11183 0.0
H4849 H 0.06976 0.54461 0.14884 0.0
H4850 H 0.03135 0.53658 0.10816 0.0
H4851 H 0.04988 0.56351 0.145 0.0
H4852 H 0.00948 0.59362 0.13925 0.0
H4853 H 0.02315 0.57023 0.14568 0.0
H4854 H 0.03178 0.56222 0.09785 0.0
H4855 H 0.01787 0.58532 0.09146 0.0
C4856 C 0.05108 0.52753 0.11934 0.0
C4857 C 0.06232 0.52981 0.13051 0.0
C4858 C 0.03957 0.53836 0.11719 0.0
C4859 C 0.03909 0.55163 0.12617 0.0
C4860 C 0.0498 0.55337 0.13796 0.0
C4861 C 0.06128 0.54257 0.1401 0.0
C4862 C 0.01409 0.58671 0.13012 0.0
C4863 C 0.01276 0.59138 0.11487 0.0
C4864 C 0.02196 0.57334 0.1338 0.0
C4865 C 0.02866 0.56441 0.12229 0.0
C4866 C 0.02662 0.56871 0.107 0.0
C4867 C 0.01875 0.58204 0.10333 0.0
H4868 H 0.20714 0.32555 0.84459 0.0
H4869 H 0.21843 0.3027 0.88666 0.0
H4870 H 0.18634 0.3077 0.8404 0.0
H4871 H 0.19711 0.2852 0.88291 0.0
H4872 H 0.16295 0.24942 0.86604 0.0
H4873 H 0.18603 0.26483 0.86879 0.0
H4874 H 0.16193 0.3038 0.85061 0.0
H4875 H 0.13929 0.28829 0.8473 0.0
C4876 C 0.20518 0.31664 0.85292 0.0
C4877 C 0.21431 0.31555 0.86599 0.0
C4878 C 0.19317 0.30648 0.85061 0.0
C4879 C 0.18982 0.29516 0.86147 0.0
C4880 C 0.19939 0.29369 0.87425 0.0
C4881 C 0.21158 0.30374 0.87644 0.0
C4882 C 0.16266 0.26129 0.86265 0.0
C4883 C 0.14937 0.26765 0.8564 0.0
C4884 C 0.17585 0.27013 0.86426 0.0
C4885 C 0.17594 0.28555 0.85978 0.0
C4886 C 0.16248 0.29189 0.8538 0.0
C4887 C 0.14941 0.28303 0.85203 0.0
H4888 H 0.43778 0.4766 0.6064 0.0
H4889 H 0.43577 0.46352 0.65382 0.0
H4890 H 0.45574 0.45601 0.60145 0.0
H4891 H 0.45357 0.44269 0.6488 0.0
H4892 H 0.49277 0.41084 0.63535 0.0
H4893 H 0.4796 0.43489 0.64074 0.0
H4894 H 0.45172 0.42844 0.60068 0.0
H4895 H 0.46488 0.4047 0.59525 0.0
C4896 C 0.44135 0.46946 0.61582 0.0
C4897 C 0.43525 0.47154 0.63046 0.0
C4898 C 0.45158 0.45762 0.61296 0.0
C4899 C 0.45588 0.44758 0.62468 0.0
C4900 C 0.45052 0.45027 0.63955 0.0
C4901 C 0.44029 0.46216 0.64241 0.0
C4902 C 0.4839 0.41467 0.62766 0.0
C4903 C 0.47982 0.4059 0.6149 0.0
C4904 C 0.47635 0.42838 0.63077 0.0
C4905 C 0.46468 0.43359 0.6211 0.0
C4906 C 0.46083 0.42489 0.60822 0.0
C4907 C 0.46829 0.41121 0.60517 0.0
H4908 H 0.27861 0.70174 0.40189 0.0
H4909 H 0.28363 0.68602 0.35553 0.0
H4910 H 0.29883 0.72062 0.39759 0.0
H4911 H 0.30362 0.7047 0.35125 0.0
H4912 H 0.35129 0.73075 0.38694 0.0
H4913 H 0.32718 0.71821 0.39303 0.0
H4914 H 0.30886 0.73238 0.3496 0.0
H4915 H 0.33297 0.74475 0.34344 0.0
C4916 C 0.28384 0.70251 0.39074 0.0
C4917 C 0.27964 0.69239 0.37907 0.0
C4918 C 0.29543 0.71323 0.3883 0.0
C4919 C 0.30279 0.71414 0.37408 0.0
C4920 C 0.29805 0.70444 0.36227 0.0
C4921 C 0.28667 0.69365 0.36475 0.0
C4922 C 0.342 0.73146 0.37884 0.0
C4923 C 0.34408 0.73852 0.36462 0.0
C4924 C 0.32816 0.72435 0.38236 0.0
C4925 C 0.3162 0.72416 0.37171 0.0
C4926 C 0.31796 0.73215 0.35794 0.0
C4927 C 0.33176 0.73927 0.35443 0.0
H4928 H 0.36054 0.04722 0.47449 0.0
H4929 H 0.38255 0.0834 0.44936 0.0
H4930 H 0.36649 0.02936 0.4538 0.0
H4931 H 0.3881 0.06587 0.42877 0.0
H4932 H 0.41002 0.02932 0.40135 0.0
H4933 H 0.40447 0.04455 0.42377 0.0
H4934 H 0.35983 0.02395 0.42687 0.0
H4935 H 0.36563 0.00824 0.40449 0.0
C4936 C 0.36665 0.05134 0.46459 0.0
C4937 C 0.37117 0.06667 0.46358 0.0
C4938 C 0.36996 0.04116 0.45271 0.0
C4939 C 0.37788 0.04617 0.43969 0.0
C4940 C 0.38228 0.06154 0.43876 0.0
C4941 C 0.37901 0.07163 0.45055 0.0
C4942 C 0.39903 0.02797 0.40683 0.0
C4943 C 0.38818 0.01773 0.40107 0.0
C4944 C 0.39583 0.03674 0.41966 0.0
C4945 C 0.38162 0.03563 0.42698 0.0
C4946 C 0.37091 0.02501 0.42153 0.0
C4947 C 0.37418 0.0161 0.40868 0.0
H4948 H 0.85678 0.4577 0.52531 0.0
H4949 H 0.89439 0.4295 0.53994 0.0
H4950 H 0.86324 0.47644 0.545 0.0
H4951 H 0.90075 0.44803 0.55951 0.0
H4952 H 0.91567 0.48748 0.58731 0.0
H4953 H 0.91014 0.47412 0.5636 0.0
H4954 H 0.86196 0.47644 0.5735 0.0
H4955 H 0.86749 0.49002 0.59718 0.0
C4956 C 0.86654 0.45563 0.53258 0.0
C4957 C 0.87505 0.44213 0.53115 0.0
C4958 C 0.87018 0.46629 0.54388 0.0
C4959 C 0.8825 0.46371 0.5538 0.0
C4960 C 0.89132 0.45047 0.55193 0.0
C4961 C 0.88761 0.43979 0.54077 0.0
C4962 C 0.90388 0.48537 0.58431 0.0
C4963 C 0.89201 0.48962 0.59418 0.0
C4964 C 0.90073 0.47768 0.57075 0.0
C4965 C 0.88564 0.47407 0.56678 0.0
C4966 C 0.8737 0.47914 0.57621 0.0
C4967 C 0.87687 0.48684 0.5898 0.0
H4968 H 0.32321 0.10764 0.2969 0.0
H4969 H 0.30083 0.13717 0.26449 0.0
H4970 H 0.30368 0.11354 0.31582 0.0
H4971 H 0.28138 0.14334 0.28365 0.0
H4972 H 0.2698 0.16587 0.3322 0.0
H4973 H 0.28442 0.15784 0.30988 0.0
H4974 H 0.27418 0.11081 0.32006 0.0
H4975 H 0.2593 0.11884 0.34227 0.0
C4976 C 0.31401 0.11527 0.29379 0.0
C4977 C 0.31353 0.12201 0.27928 0.0
C4978 C 0.3028 0.11857 0.30457 0.0
C4979 C 0.29106 0.12888 0.30116 0.0
C4980 C 0.29035 0.13536 0.28653 0.0
C4981 C 0.30142 0.1318 0.2756 0.0
C4982 C 0.27046 0.15384 0.32952 0.0
C4983 C 0.26352 0.14297 0.33899 0.0
C4984 C 0.27874 0.14926 0.31671 0.0
C4985 C 0.28042 0.13372 0.31331 0.0
C4986 C 0.27306 0.12286 0.32249 0.0
C4987 C 0.26454 0.12746 0.33515 0.0
H4988 H 0.63473 0.55011 0.02004 0.0
H4989 H 0.60587 0.58155 0.04463 0.0
H4990 H 0.62821 0.52997 0.03837 0.0
H4991 H 0.59959 0.56174 0.06281 0.0
H4992 H 0.57981 0.52192 0.08599 0.0
H4993 H 0.58544 0.5379 0.06407 0.0
H4994 H 0.63269 0.52416 0.06606 0.0
H4995 H 0.62693 0.50776 0.08792 0.0
C4996 C 0.62696 0.55268 0.02928 0.0
C4997 C 0.62078 0.56738 0.03091 0.0
C4998 C 0.62329 0.5412 0.03978 0.0
C4999 C 0.61329 0.54424 0.05194 0.0
C5000 C 0.60709 0.55893 0.05341 0.0
C5001 C 0.61078 0.57033 0.04303 0.0
C5002 C 0.59136 0.52213 0.08163 0.0
C5003 C 0.60299 0.51379 0.08878 0.0
C5004 C 0.5946 0.53132 0.0691 0.0
C5005 C 0.60956 0.5325 0.06352 0.0
C5006 C 0.62104 0.52344 0.07008 0.0
C5007 C 0.61777 0.51412 0.08263 0.0
H5008 H 0.69008 0.35018 0.27495 0.0
H5009 H 0.69472 0.39848 0.28256 0.0
H5010 H 0.70898 0.34512 0.2946 0.0
H5011 H 0.71274 0.39356 0.30319 0.0
H5012 H 0.7481 0.381 0.33835 0.0
H5013 H 0.73575 0.38544 0.31374 0.0
H5014 H 0.70828 0.34504 0.32063 0.0
H5015 H 0.72118 0.34027 0.34444 0.0
C5016 C 0.69531 0.35971 0.28081 0.0
C5017 C 0.69097 0.37468 0.27738 0.0
C5018 C 0.706 0.35685 0.29221 0.0
C5019 C 0.71213 0.36889 0.30089 0.0
C5020 C 0.7084 0.38396 0.29677 0.0
C5021 C 0.69803 0.38683 0.28498 0.0
C5022 C 0.73957 0.373 0.33439 0.0
C5023 C 0.73561 0.36029 0.34328 0.0
C5024 C 0.73241 0.37557 0.32035 0.0
C5025 C 0.72098 0.36561 0.31505 0.0
C5026 C 0.71727 0.3528 0.32397 0.0
C5027 C 0.72459 0.35011 0.33779 0.0
H5028 H 0.13412 0.98637 0.90049 0.0
H5029 H 0.08676 0.98949 0.91361 0.0
H5030 H 0.13943 0.97129 0.92326 0.0
H5031 H 0.09211 0.97463 0.93648 0.0
H5032 H 0.10321 0.9273 0.95707 0.0
H5033 H 0.0982 0.94744 0.93877 0.0
H5034 H 0.14015 0.96977 0.95166 0.0
H5035 H 0.14526 0.94936 0.97008 0.0
C5036 C 0.12493 0.98413 0.90842 0.0
C5037 C 0.10998 0.98891 0.90517 0.0
C5038 C 0.12798 0.97556 0.9215 0.0
C5039 C 0.11615 0.9716 0.93155 0.0
C5040 C 0.10142 0.97728 0.9288 0.0
C5041 C 0.09836 0.98584 0.91574 0.0
C5042 C 0.11131 0.93657 0.95614 0.0
C5043 C 0.12466 0.93672 0.96494 0.0
C5044 C 0.10837 0.9482 0.94573 0.0
C5045 C 0.11876 0.96023 0.9438 0.0
C5046 C 0.13198 0.9606 0.95286 0.0
C5047 C 0.13487 0.94897 0.96342 0.0
H5048 H 0.31517 0.84695 0.21338 0.0
H5049 H 0.29982 0.89271 0.22303 0.0
H5050 H 0.29478 0.84391 0.19495 0.0
H5051 H 0.27905 0.88957 0.20467 0.0
H5052 H 0.2633 0.88439 0.15359 0.0
H5053 H 0.2779 0.88809 0.17695 0.0
H5054 H 0.2678 0.84184 0.19056 0.0
H5055 H 0.25358 0.83804 0.16701 0.0
C5056 C 0.30722 0.85626 0.21178 0.0
C5057 C 0.30917 0.87011 0.21955 0.0
C5058 C 0.29543 0.85449 0.20128 0.0
C5059 C 0.28528 0.86652 0.19828 0.0
C5060 C 0.28678 0.88015 0.2066 0.0
C5061 C 0.29861 0.88191 0.21717 0.0
C5062 C 0.26395 0.87512 0.16173 0.0
C5063 C 0.25751 0.86086 0.15839 0.0
C5064 C 0.27225 0.87726 0.17516 0.0
C5065 C 0.2742 0.86518 0.18554 0.0
C5066 C 0.26679 0.85127 0.18266 0.0
C5067 C 0.25858 0.84911 0.1692 0.0
H5068 H 0.19871 0.1265 0.73148 0.0
H5069 H 0.17269 0.10265 0.69719 0.0
H5070 H 0.21926 0.13054 0.713 0.0
H5071 H 0.19301 0.10674 0.67881 0.0
H5072 H 0.23421 0.10883 0.6498 0.0
H5073 H 0.2195 0.10075 0.672 0.0
H5074 H 0.22127 0.1466 0.68984 0.0
H5075 H 0.23614 0.15461 0.66779 0.0
C5076 C 0.19749 0.12194 0.72008 0.0
C5077 C 0.18407 0.11437 0.71572 0.0
C5078 C 0.2092 0.12429 0.7095 0.0
C5079 C 0.20775 0.11897 0.69445 0.0
C5080 C 0.19459 0.11081 0.69036 0.0
C5081 C 0.18288 0.10857 0.70086 0.0
C5082 C 0.23173 0.1171 0.65863 0.0
C5083 C 0.23614 0.13239 0.65698 0.0
C5084 C 0.22326 0.11249 0.6713 0.0
C5085 C 0.21907 0.12308 0.68257 0.0
C5086 C 0.22439 0.13814 0.68141 0.0
C5087 C 0.23284 0.14276 0.66873 0.0
loop_
_geom_bond_atom_site_label_1
_geom_bond_atom_site_label_2
_geom_bond_distance
_geom_bond_site_symmetry_2
_ccdc_geom_bond_type
In0 O1 2.294 . S
In0 O2 2.326 . S
In0 O6 2.266 . S
In0 O7 2.326 1_455 S
In0 O8 2.266 1_455 S
In0 O9 2.326 1_455 S
In0 O11 2.294 . S
In0 O12 2.326 . S
O1 In0 2.294 . S
O1 C10 1.240 . S
O2 In0 2.326 . S
O2 C10 1.252 . S
C3 O6 1.252 1_655 S
C3 O7 1.260 . S
C4 O11 1.240 . S
C4 O12 1.252 . S
C5 O8 1.252 . S
C5 O9 1.260 . S
O6 In0 2.266 . S
O6 C3 1.252 1_455 S
O7 In0 2.326 1_655 S
O7 C3 1.260 . S
O8 In0 2.266 1_655 S
O8 C5 1.252 . S
O9 In0 2.326 1_655 S
O9 C5 1.260 . S
C10 O1 1.240 . S
C10 O2 1.252 . S
O11 In0 2.294 . S
O11 C4 1.240 . S
O12 In0 2.326 . S
O12 C4 1.252 . S
In13 O14 2.294 . S
In13 O15 2.326 . S
In13 O19 2.266 . S
In13 O20 2.326 . S
In13 O21 2.266 . S
In13 O22 2.326 . S
In13 O24 2.294 . S
In13 O25 2.326 . S
O14 In13 2.294 . S
O14 C23 1.240 . S
O15 In13 2.326 . S
O15 C23 1.252 . S
C16 O19 1.252 . S
C16 O20 1.260 . S
C17 O24 1.240 . S
C17 O25 1.252 . S
C18 O21 1.252 . S
C18 O22 1.260 . S
O19 In13 2.266 . S
O19 C16 1.252 . S
O20 In13 2.326 . S
O20 C16 1.260 . S
O21 In13 2.266 . S
O21 C18 1.252 . S
O22 In13 2.326 . S
O22 C18 1.260 . S
C23 O14 1.240 . S
C23 O15 1.252 . S
O24 In13 2.294 . S
O24 C17 1.240 . S
O25 In13 2.326 . S
O25 C17 1.252 . S
In26 O27 2.294 . S
In26 O28 2.326 . S
In26 O32 2.266 . S
In26 O33 2.326 . S
In26 O34 2.266 . S
In26 O35 2.326 . S
In26 O37 2.294 . S
In26 O38 2.326 . S
O27 In26 2.294 . S
O27 C36 1.240 . S
O28 In26 2.326 . S
O28 C36 1.252 . S
C29 O32 1.252 . S
C29 O33 1.260 . S
C30 O37 1.240 . S
C30 O38 1.252 . S
C31 O34 1.252 . S
C31 O35 1.260 . S
O32 In26 2.266 . S
O32 C29 1.252 . S
O33 In26 2.326 . S
O33 C29 1.260 . S
O34 In26 2.266 . S
O34 C31 1.252 . S
O35 In26 2.326 . S
O35 C31 1.260 . S
C36 O27 1.240 . S
C36 O28 1.252 . S
O37 In26 2.294 . S
O37 C30 1.240 . S
O38 In26 2.326 . S
O38 C30 1.252 . S
In39 O40 2.294 . S
In39 O41 2.326 . S
In39 O45 2.266 . S
In39 O46 2.326 . S
In39 O47 2.266 . S
In39 O48 2.326 . S
In39 O50 2.294 . S
In39 O51 2.326 . S
O40 In39 2.294 . S
O40 C49 1.240 . S
O41 In39 2.326 . S
O41 C49 1.252 . S
C42 O45 1.252 . S
C42 O46 1.260 . S
C43 O50 1.240 . S
C43 O51 1.252 . S
C44 O47 1.252 . S
C44 O48 1.260 . S
O45 In39 2.266 . S
O45 C42 1.252 . S
O46 In39 2.326 . S
O46 C42 1.260 . S
O47 In39 2.266 . S
O47 C44 1.252 . S
O48 In39 2.326 . S
O48 C44 1.260 . S
C49 O40 1.240 . S
C49 O41 1.252 . S
O50 In39 2.294 . S
O50 C43 1.240 . S
O51 In39 2.326 . S
O51 C43 1.252 . S
In52 O53 2.294 . S
In52 O54 2.326 . S
In52 O58 2.266 1_455 S
In52 O59 2.326 1_455 S
In52 O60 2.266 . S
In52 O61 2.326 1_455 S
In52 O63 2.294 . S
In52 O64 2.326 . S
O53 In52 2.294 . S
O53 C62 1.240 . S
O54 In52 2.326 . S
O54 C62 1.252 . S
C55 O58 1.252 . S
C55 O59 1.260 . S
C56 O63 1.240 . S
C56 O64 1.252 . S
C57 O60 1.252 1_655 S
C57 O61 1.260 . S
O58 In52 2.266 1_655 S
O58 C55 1.252 . S
O59 In52 2.326 1_655 S
O59 C55 1.260 . S
O60 In52 2.266 . S
O60 C57 1.252 1_455 S
O61 In52 2.326 1_655 S
O61 C57 1.260 . S
C62 O53 1.240 . S
C62 O54 1.252 . S
O63 In52 2.294 . S
O63 C56 1.240 . S
O64 In52 2.326 . S
O64 C56 1.252 . S
In65 O66 2.294 . S
In65 O67 2.326 . S
In65 O71 2.266 . S
In65 O72 2.326 . S
In65 O73 2.266 . S
In65 O74 2.326 . S
In65 O76 2.294 . S
In65 O77 2.326 . S
O66 In65 2.294 . S
O66 C75 1.240 . S
O67 In65 2.326 . S
O67 C75 1.252 . S
C68 O71 1.252 . S
C68 O72 1.260 . S
C69 O76 1.240 . S
C69 O77 1.252 . S
C70 O73 1.252 . S
C70 O74 1.260 . S
O71 In65 2.266 . S
O71 C68 1.252 . S
O72 In65 2.326 . S
O72 C68 1.260 . S
O73 In65 2.266 . S
O73 C70 1.252 . S
O74 In65 2.326 . S
O74 C70 1.260 . S
C75 O66 1.240 . S
C75 O67 1.252 . S
O76 In65 2.294 . S
O76 C69 1.240 . S
O77 In65 2.326 . S
O77 C69 1.252 . S
In78 O79 2.294 . S
In78 O80 2.326 . S
In78 O84 2.266 . S
In78 O85 2.326 . S
In78 O86 2.266 . S
In78 O87 2.326 . S
In78 O89 2.294 . S
In78 O90 2.326 . S
O79 In78 2.294 . S
O79 C88 1.240 . S
O80 In78 2.326 . S
O80 C88 1.252 . S
C81 O84 1.252 . S
C81 O85 1.260 . S
C82 O89 1.240 . S
C82 O90 1.252 . S
C83 O86 1.252 . S
C83 O87 1.260 . S
O84 In78 2.266 . S
O84 C81 1.252 . S
O85 In78 2.326 . S
O85 C81 1.260 . S
O86 In78 2.266 . S
O86 C83 1.252 . S
O87 In78 2.326 . S
O87 C83 1.260 . S
C88 O79 1.240 . S
C88 O80 1.252 . S
O89 In78 2.294 . S
O89 C82 1.240 . S
O90 In78 2.326 . S
O90 C82 1.252 . S
In91 O92 2.294 . S
In91 O93 2.326 . S
In91 O97 2.266 . S
In91 O98 2.326 . S
In91 O99 2.266 . S
In91 O100 2.326 . S
In91 O102 2.294 . S
In91 O103 2.326 . S
O92 In91 2.294 . S
O92 C101 1.240 . S
O93 In91 2.326 . S
O93 C101 1.252 . S
C94 O97 1.252 . S
C94 O98 1.260 . S
C95 O102 1.240 . S
C95 O103 1.252 . S
C96 O99 1.252 . S
C96 O100 1.260 . S
O97 In91 2.266 . S
O97 C94 1.252 . S
O98 In91 2.326 . S
O98 C94 1.260 . S
O99 In91 2.266 . S
O99 C96 1.252 . S
O100 In91 2.326 . S
O100 C96 1.260 . S
C101 O92 1.240 . S
C101 O93 1.252 . S
O102 In91 2.294 . S
O102 C95 1.240 . S
O103 In91 2.326 . S
O103 C95 1.252 . S
In104 O105 2.294 . S
In104 O106 2.326 . S
In104 O110 2.266 . S
In104 O111 2.326 1_545 S
In104 O112 2.266 1_545 S
In104 O113 2.326 1_545 S
In104 O115 2.294 . S
In104 O116 2.326 . S
O105 In104 2.294 . S
O105 C114 1.240 . S
O106 In104 2.326 . S
O106 C114 1.252 . S
C107 O110 1.252 1_565 S
C107 O111 1.260 . S
C108 O115 1.240 . S
C108 O116 1.252 . S
C109 O112 1.252 . S
C109 O113 1.260 . S
O110 In104 2.266 . S
O110 C107 1.252 1_545 S
O111 In104 2.326 1_565 S
O111 C107 1.260 . S
O112 In104 2.266 1_565 S
O112 C109 1.252 . S
O113 In104 2.326 1_565 S
O113 C109 1.260 . S
C114 O105 1.240 . S
C114 O106 1.252 . S
O115 In104 2.294 . S
O115 C108 1.240 . S
O116 In104 2.326 . S
O116 C108 1.252 . S
In117 O118 2.294 . S
In117 O119 2.326 . S
In117 O123 2.266 . S
In117 O124 2.326 . S
In117 O125 2.266 . S
In117 O126 2.326 . S
In117 O128 2.294 . S
In117 O129 2.326 . S
O118 In117 2.294 . S
O118 C127 1.240 . S
O119 In117 2.326 . S
O119 C127 1.252 . S
C120 O123 1.252 . S
C120 O124 1.260 . S
C121 O128 1.240 . S
C121 O129 1.252 . S
C122 O125 1.252 . S
C122 O126 1.260 . S
O123 In117 2.266 . S
O123 C120 1.252 . S
O124 In117 2.326 . S
O124 C120 1.260 . S
O125 In117 2.266 . S
O125 C122 1.252 . S
O126 In117 2.326 . S
O126 C122 1.260 . S
C127 O118 1.240 . S
C127 O119 1.252 . S
O128 In117 2.294 . S
O128 C121 1.240 . S
O129 In117 2.326 . S
O129 C121 1.252 . S
In130 O131 2.294 . S
In130 O132 2.326 . S
In130 O136 2.266 1_565 S
In130 O137 2.326 1_565 S
In130 O138 2.266 . S
In130 O139 2.326 1_565 S
In130 O141 2.294 . S
In130 O142 2.326 . S
O131 In130 2.294 . S
O131 C140 1.240 . S
O132 In130 2.326 . S
O132 C140 1.252 . S
C133 O136 1.252 . S
C133 O137 1.260 . S
C134 O141 1.240 . S
C134 O142 1.252 . S
C135 O138 1.252 1_545 S
C135 O139 1.260 . S
O136 In130 2.266 1_545 S
O136 C133 1.252 . S
O137 In130 2.326 1_545 S
O137 C133 1.260 . S
O138 In130 2.266 . S
O138 C135 1.252 1_565 S
O139 In130 2.326 1_545 S
O139 C135 1.260 . S
C140 O131 1.240 . S
C140 O132 1.252 . S
O141 In130 2.294 . S
O141 C134 1.240 . S
O142 In130 2.326 . S
O142 C134 1.252 . S
In143 O144 2.294 . S
In143 O145 2.326 . S
In143 O149 2.266 . S
In143 O150 2.326 . S
In143 O151 2.266 . S
In143 O152 2.326 . S
In143 O154 2.294 . S
In143 O155 2.326 . S
O144 In143 2.294 . S
O144 C153 1.240 . S
O145 In143 2.326 . S
O145 C153 1.252 . S
C146 O149 1.252 . S
C146 O150 1.260 . S
C147 O154 1.240 . S
C147 O155 1.252 . S
C148 O151 1.252 . S
C148 O152 1.260 . S
O149 In143 2.266 . S
O149 C146 1.252 . S
O150 In143 2.326 . S
O150 C146 1.260 . S
O151 In143 2.266 . S
O151 C148 1.252 . S
O152 In143 2.326 . S
O152 C148 1.260 . S
C153 O144 1.240 . S
C153 O145 1.252 . S
O154 In143 2.294 . S
O154 C147 1.240 . S
O155 In143 2.326 . S
O155 C147 1.252 . S
In156 O157 2.294 . S
In156 O158 2.326 . S
In156 O162 2.266 . S
In156 O163 2.326 1_565 S
In156 O164 2.266 1_565 S
In156 O165 2.326 1_565 S
In156 O167 2.294 . S
In156 O168 2.326 . S
O157 In156 2.294 . S
O157 C166 1.240 . S
O158 In156 2.326 . S
O158 C166 1.252 . S
C159 O162 1.252 1_545 S
C159 O163 1.260 . S
C160 O167 1.240 . S
C160 O168 1.252 . S
C161 O164 1.252 . S
C161 O165 1.260 . S
O162 In156 2.266 . S
O162 C159 1.252 1_565 S
O163 In156 2.326 1_545 S
O163 C159 1.260 . S
O164 In156 2.266 1_545 S
O164 C161 1.252 . S
O165 In156 2.326 1_545 S
O165 C161 1.260 . S
C166 O157 1.240 . S
C166 O158 1.252 . S
O167 In156 2.294 . S
O167 C160 1.240 . S
O168 In156 2.326 . S
O168 C160 1.252 . S
In169 O170 2.294 . S
In169 O171 2.326 . S
In169 O175 2.266 . S
In169 O176 2.326 . S
In169 O177 2.266 . S
In169 O178 2.326 . S
In169 O180 2.294 . S
In169 O181 2.326 . S
O170 In169 2.294 . S
O170 C179 1.240 . S
O171 In169 2.326 . S
O171 C179 1.252 . S
C172 O175 1.252 . S
C172 O176 1.260 . S
C173 O180 1.240 . S
C173 O181 1.252 . S
C174 O177 1.252 . S
C174 O178 1.260 . S
O175 In169 2.266 . S
O175 C172 1.252 . S
O176 In169 2.326 . S
O176 C172 1.260 . S
O177 In169 2.266 . S
O177 C174 1.252 . S
O178 In169 2.326 . S
O178 C174 1.260 . S
C179 O170 1.240 . S
C179 O171 1.252 . S
O180 In169 2.294 . S
O180 C173 1.240 . S
O181 In169 2.326 . S
O181 C173 1.252 . S
In182 O183 2.294 . S
In182 O184 2.326 . S
In182 O188 2.266 1_545 S
In182 O189 2.326 1_545 S
In182 O190 2.266 . S
In182 O191 2.326 1_545 S
In182 O193 2.294 . S
In182 O194 2.326 . S
O183 In182 2.294 . S
O183 C192 1.240 . S
O184 In182 2.326 . S
O184 C192 1.252 . S
C185 O188 1.252 . S
C185 O189 1.260 . S
C186 O193 1.240 . S
C186 O194 1.252 . S
C187 O190 1.252 1_565 S
C187 O191 1.260 . S
O188 In182 2.266 1_565 S
O188 C185 1.252 . S
O189 In182 2.326 1_565 S
O189 C185 1.260 . S
O190 In182 2.266 . S
O190 C187 1.252 1_545 S
O191 In182 2.326 1_565 S
O191 C187 1.260 . S
C192 O183 1.240 . S
C192 O184 1.252 . S
O193 In182 2.294 . S
O193 C186 1.240 . S
O194 In182 2.326 . S
O194 C186 1.252 . S
In195 O196 2.294 . S
In195 O197 2.326 . S
In195 O201 2.266 . S
In195 O202 2.326 . S
In195 O203 2.266 . S
In195 O204 2.326 . S
In195 O206 2.294 . S
In195 O207 2.326 . S
O196 In195 2.294 . S
O196 C205 1.240 . S
O197 In195 2.326 . S
O197 C205 1.252 . S
C198 O201 1.252 . S
C198 O202 1.260 . S
C199 O206 1.240 . S
C199 O207 1.252 . S
C200 O203 1.252 . S
C200 O204 1.260 . S
O201 In195 2.266 . S
O201 C198 1.252 . S
O202 In195 2.326 . S
O202 C198 1.260 . S
O203 In195 2.266 . S
O203 C200 1.252 . S
O204 In195 2.326 . S
O204 C200 1.260 . S
C205 O196 1.240 . S
C205 O197 1.252 . S
O206 In195 2.294 . S
O206 C199 1.240 . S
O207 In195 2.326 . S
O207 C199 1.252 . S
In208 O209 2.294 . S
In208 O210 2.326 . S
In208 O214 2.266 1_554 S
In208 O215 2.326 1_554 S
In208 O216 2.266 . S
In208 O217 2.326 1_554 S
In208 O219 2.294 . S
In208 O220 2.326 . S
O209 In208 2.294 . S
O209 C218 1.240 . S
O210 In208 2.326 . S
O210 C218 1.252 . S
C211 O214 1.252 . S
C211 O215 1.260 . S
C212 O219 1.240 . S
C212 O220 1.252 . S
C213 O216 1.252 1_556 S
C213 O217 1.260 . S
O214 In208 2.266 1_556 S
O214 C211 1.252 . S
O215 In208 2.326 1_556 S
O215 C211 1.260 . S
O216 In208 2.266 . S
O216 C213 1.252 1_554 S
O217 In208 2.326 1_556 S
O217 C213 1.260 . S
C218 O209 1.240 . S
C218 O210 1.252 . S
O219 In208 2.294 . S
O219 C212 1.240 . S
O220 In208 2.326 . S
O220 C212 1.252 . S
In221 O222 2.294 . S
In221 O223 2.326 . S
In221 O227 2.266 1_556 S
In221 O228 2.326 1_556 S
In221 O229 2.266 . S
In221 O230 2.326 1_556 S
In221 O232 2.294 . S
In221 O233 2.326 . S
O222 In221 2.294 . S
O222 C231 1.240 . S
O223 In221 2.326 . S
O223 C231 1.252 . S
C224 O227 1.252 . S
C224 O228 1.260 . S
C225 O232 1.240 . S
C225 O233 1.252 . S
C226 O229 1.252 1_554 S
C226 O230 1.260 . S
O227 In221 2.266 1_554 S
O227 C224 1.252 . S
O228 In221 2.326 1_554 S
O228 C224 1.260 . S
O229 In221 2.266 . S
O229 C226 1.252 1_556 S
O230 In221 2.326 1_554 S
O230 C226 1.260 . S
C231 O222 1.240 . S
C231 O223 1.252 . S
O232 In221 2.294 . S
O232 C225 1.240 . S
O233 In221 2.326 . S
O233 C225 1.252 . S
In234 O235 2.294 . S
In234 O236 2.326 . S
In234 O240 2.266 . S
In234 O241 2.326 . S
In234 O242 2.266 . S
In234 O243 2.326 . S
In234 O245 2.294 . S
In234 O246 2.326 . S
O235 In234 2.294 . S
O235 C244 1.240 . S
O236 In234 2.326 . S
O236 C244 1.252 . S
C237 O240 1.252 . S
C237 O241 1.260 . S
C238 O245 1.240 . S
C238 O246 1.252 . S
C239 O242 1.252 . S
C239 O243 1.260 . S
O240 In234 2.266 . S
O240 C237 1.252 . S
O241 In234 2.326 . S
O241 C237 1.260 . S
O242 In234 2.266 . S
O242 C239 1.252 . S
O243 In234 2.326 . S
O243 C239 1.260 . S
C244 O235 1.240 . S
C244 O236 1.252 . S
O245 In234 2.294 . S
O245 C238 1.240 . S
O246 In234 2.326 . S
O246 C238 1.252 . S
In247 O248 2.294 . S
In247 O249 2.326 . S
In247 O253 2.266 . S
In247 O254 2.326 . S
In247 O255 2.266 . S
In247 O256 2.326 . S
In247 O258 2.294 . S
In247 O259 2.326 . S
O248 In247 2.294 . S
O248 C257 1.240 . S
O249 In247 2.326 . S
O249 C257 1.252 . S
C250 O253 1.252 . S
C250 O254 1.260 . S
C251 O258 1.240 . S
C251 O259 1.252 . S
C252 O255 1.252 . S
C252 O256 1.260 . S
O253 In247 2.266 . S
O253 C250 1.252 . S
O254 In247 2.326 . S
O254 C250 1.260 . S
O255 In247 2.266 . S
O255 C252 1.252 . S
O256 In247 2.326 . S
O256 C252 1.260 . S
C257 O248 1.240 . S
C257 O249 1.252 . S
O258 In247 2.294 . S
O258 C251 1.240 . S
O259 In247 2.326 . S
O259 C251 1.252 . S
In260 O261 2.294 . S
In260 O262 2.326 . S
In260 O266 2.266 . S
In260 O267 2.326 . S
In260 O268 2.266 . S
In260 O269 2.326 . S
In260 O271 2.294 . S
In260 O272 2.326 . S
O261 In260 2.294 . S
O261 C270 1.240 . S
O262 In260 2.326 . S
O262 C270 1.252 . S
C263 O266 1.252 . S
C263 O267 1.260 . S
C264 O271 1.240 . S
C264 O272 1.252 . S
C265 O268 1.252 . S
C265 O269 1.260 . S
O266 In260 2.266 . S
O266 C263 1.252 . S
O267 In260 2.326 . S
O267 C263 1.260 . S
O268 In260 2.266 . S
O268 C265 1.252 . S
O269 In260 2.326 . S
O269 C265 1.260 . S
C270 O261 1.240 . S
C270 O262 1.252 . S
O271 In260 2.294 . S
O271 C264 1.240 . S
O272 In260 2.326 . S
O272 C264 1.252 . S
In273 O274 2.294 . S
In273 O275 2.326 . S
In273 O279 2.266 . S
In273 O280 2.326 . S
In273 O281 2.266 . S
In273 O282 2.326 . S
In273 O284 2.294 . S
In273 O285 2.326 . S
O274 In273 2.294 . S
O274 C283 1.240 . S
O275 In273 2.326 . S
O275 C283 1.252 . S
C276 O279 1.252 . S
C276 O280 1.260 . S
C277 O284 1.240 . S
C277 O285 1.252 . S
C278 O281 1.252 . S
C278 O282 1.260 . S
O279 In273 2.266 . S
O279 C276 1.252 . S
O280 In273 2.326 . S
O280 C276 1.260 . S
O281 In273 2.266 . S
O281 C278 1.252 . S
O282 In273 2.326 . S
O282 C278 1.260 . S
C283 O274 1.240 . S
C283 O275 1.252 . S
O284 In273 2.294 . S
O284 C277 1.240 . S
O285 In273 2.326 . S
O285 C277 1.252 . S
In286 O287 2.294 . S
In286 O288 2.326 . S
In286 O292 2.266 . S
In286 O293 2.326 . S
In286 O294 2.266 . S
In286 O295 2.326 . S
In286 O297 2.294 . S
In286 O298 2.326 . S
O287 In286 2.294 . S
O287 C296 1.240 . S
O288 In286 2.326 . S
O288 C296 1.252 . S
C289 O292 1.252 . S
C289 O293 1.260 . S
C290 O297 1.240 . S
C290 O298 1.252 . S
C291 O294 1.252 . S
C291 O295 1.260 . S
O292 In286 2.266 . S
O292 C289 1.252 . S
O293 In286 2.326 . S
O293 C289 1.260 . S
O294 In286 2.266 . S
O294 C291 1.252 . S
O295 In286 2.326 . S
O295 C291 1.260 . S
C296 O287 1.240 . S
C296 O288 1.252 . S
O297 In286 2.294 . S
O297 C290 1.240 . S
O298 In286 2.326 . S
O298 C290 1.252 . S
In299 O300 2.294 . S
In299 O301 2.326 . S
In299 O305 2.266 . S
In299 O306 2.326 . S
In299 O307 2.266 . S
In299 O308 2.326 . S
In299 O310 2.294 . S
In299 O311 2.326 . S
O300 In299 2.294 . S
O300 C309 1.240 . S
O301 In299 2.326 . S
O301 C309 1.252 . S
C302 O305 1.252 . S
C302 O306 1.260 . S
C303 O310 1.240 . S
C303 O311 1.252 . S
C304 O307 1.252 . S
C304 O308 1.260 . S
O305 In299 2.266 . S
O305 C302 1.252 . S
O306 In299 2.326 . S
O306 C302 1.260 . S
O307 In299 2.266 . S
O307 C304 1.252 . S
O308 In299 2.326 . S
O308 C304 1.260 . S
C309 O300 1.240 . S
C309 O301 1.252 . S
O310 In299 2.294 . S
O310 C303 1.240 . S
O311 In299 2.326 . S
O311 C303 1.252 . S
In312 O313 2.294 . S
In312 O314 2.326 . S
In312 O318 2.266 . S
In312 O319 2.326 1_655 S
In312 O320 2.266 1_655 S
In312 O321 2.326 1_655 S
In312 O323 2.294 . S
In312 O324 2.326 . S
O313 In312 2.294 . S
O313 C322 1.240 . S
O314 In312 2.326 . S
O314 C322 1.252 . S
C315 O318 1.252 1_455 S
C315 O319 1.260 . S
C316 O323 1.240 . S
C316 O324 1.252 . S
C317 O320 1.252 . S
C317 O321 1.260 . S
O318 In312 2.266 . S
O318 C315 1.252 1_655 S
O319 In312 2.326 1_455 S
O319 C315 1.260 . S
O320 In312 2.266 1_455 S
O320 C317 1.252 . S
O321 In312 2.326 1_455 S
O321 C317 1.260 . S
C322 O313 1.240 . S
C322 O314 1.252 . S
O323 In312 2.294 . S
O323 C316 1.240 . S
O324 In312 2.326 . S
O324 C316 1.252 . S
In325 O326 2.294 . S
In325 O327 2.326 . S
In325 O331 2.266 . S
In325 O332 2.326 . S
In325 O333 2.266 . S
In325 O334 2.326 . S
In325 O336 2.294 . S
In325 O337 2.326 . S
O326 In325 2.294 . S
O326 C335 1.240 . S
O327 In325 2.326 . S
O327 C335 1.252 . S
C328 O331 1.252 . S
C328 O332 1.260 . S
C329 O336 1.240 . S
C329 O337 1.252 . S
C330 O333 1.252 . S
C330 O334 1.260 . S
O331 In325 2.266 . S
O331 C328 1.252 . S
O332 In325 2.326 . S
O332 C328 1.260 . S
O333 In325 2.266 . S
O333 C330 1.252 . S
O334 In325 2.326 . S
O334 C330 1.260 . S
C335 O326 1.240 . S
C335 O327 1.252 . S
O336 In325 2.294 . S
O336 C329 1.240 . S
O337 In325 2.326 . S
O337 C329 1.252 . S
In338 O339 2.294 . S
In338 O340 2.326 . S
In338 O344 2.266 . S
In338 O345 2.326 . S
In338 O346 2.266 . S
In338 O347 2.326 . S
In338 O349 2.294 . S
In338 O350 2.326 . S
O339 In338 2.294 . S
O339 C348 1.240 . S
O340 In338 2.326 . S
O340 C348 1.252 . S
C341 O344 1.252 . S
C341 O345 1.260 . S
C342 O349 1.240 . S
C342 O350 1.252 . S
C343 O346 1.252 . S
C343 O347 1.260 . S
O344 In338 2.266 . S
O344 C341 1.252 . S
O345 In338 2.326 . S
O345 C341 1.260 . S
O346 In338 2.266 . S
O346 C343 1.252 . S
O347 In338 2.326 . S
O347 C343 1.260 . S
C348 O339 1.240 . S
C348 O340 1.252 . S
O349 In338 2.294 . S
O349 C342 1.240 . S
O350 In338 2.326 . S
O350 C342 1.252 . S
In351 O352 2.294 . S
In351 O353 2.326 . S
In351 O357 2.266 . S
In351 O358 2.326 . S
In351 O359 2.266 . S
In351 O360 2.326 . S
In351 O362 2.294 . S
In351 O363 2.326 . S
O352 In351 2.294 . S
O352 C361 1.240 . S
O353 In351 2.326 . S
O353 C361 1.252 . S
C354 O357 1.252 . S
C354 O358 1.260 . S
C355 O362 1.240 . S
C355 O363 1.252 . S
C356 O359 1.252 . S
C356 O360 1.260 . S
O357 In351 2.266 . S
O357 C354 1.252 . S
O358 In351 2.326 . S
O358 C354 1.260 . S
O359 In351 2.266 . S
O359 C356 1.252 . S
O360 In351 2.326 . S
O360 C356 1.260 . S
C361 O352 1.240 . S
C361 O353 1.252 . S
O362 In351 2.294 . S
O362 C355 1.240 . S
O363 In351 2.326 . S
O363 C355 1.252 . S
In364 O365 2.294 . S
In364 O366 2.326 . S
In364 O370 2.266 . S
In364 O371 2.326 1_655 S
In364 O372 2.266 1_655 S
In364 O373 2.326 1_655 S
In364 O375 2.294 . S
In364 O376 2.326 . S
O365 In364 2.294 . S
O365 C374 1.240 . S
O366 In364 2.326 . S
O366 C374 1.252 . S
C367 O370 1.252 1_455 S
C367 O371 1.260 . S
C368 O375 1.240 . S
C368 O376 1.252 . S
C369 O372 1.252 . S
C369 O373 1.260 . S
O370 In364 2.266 . S
O370 C367 1.252 1_655 S
O371 In364 2.326 1_455 S
O371 C367 1.260 . S
O372 In364 2.266 1_455 S
O372 C369 1.252 . S
O373 In364 2.326 1_455 S
O373 C369 1.260 . S
C374 O365 1.240 . S
C374 O366 1.252 . S
O375 In364 2.294 . S
O375 C368 1.240 . S
O376 In364 2.326 . S
O376 C368 1.252 . S
In377 O378 2.294 . S
In377 O379 2.326 . S
In377 O383 2.266 . S
In377 O384 2.326 . S
In377 O385 2.266 . S
In377 O386 2.326 . S
In377 O388 2.294 . S
In377 O389 2.326 . S
O378 In377 2.294 . S
O378 C387 1.240 . S
O379 In377 2.326 . S
O379 C387 1.252 . S
C380 O383 1.252 . S
C380 O384 1.260 . S
C381 O388 1.240 . S
C381 O389 1.252 . S
C382 O385 1.252 . S
C382 O386 1.260 . S
O383 In377 2.266 . S
O383 C380 1.252 . S
O384 In377 2.326 . S
O384 C380 1.260 . S
O385 In377 2.266 . S
O385 C382 1.252 . S
O386 In377 2.326 . S
O386 C382 1.260 . S
C387 O378 1.240 . S
C387 O379 1.252 . S
O388 In377 2.294 . S
O388 C381 1.240 . S
O389 In377 2.326 . S
O389 C381 1.252 . S
In390 O391 2.294 . S
In390 O392 2.326 . S
In390 O396 2.266 . S
In390 O397 2.326 . S
In390 O398 2.266 . S
In390 O399 2.326 . S
In390 O401 2.294 . S
In390 O402 2.326 . S
O391 In390 2.294 . S
O391 C400 1.240 . S
O392 In390 2.326 . S
O392 C400 1.252 . S
C393 O396 1.252 . S
C393 O397 1.260 . S
C394 O401 1.240 . S
C394 O402 1.252 . S
C395 O398 1.252 . S
C395 O399 1.260 . S
O396 In390 2.266 . S
O396 C393 1.252 . S
O397 In390 2.326 . S
O397 C393 1.260 . S
O398 In390 2.266 . S
O398 C395 1.252 . S
O399 In390 2.326 . S
O399 C395 1.260 . S
C400 O391 1.240 . S
C400 O392 1.252 . S
O401 In390 2.294 . S
O401 C394 1.240 . S
O402 In390 2.326 . S
O402 C394 1.252 . S
In403 O404 2.294 . S
In403 O405 2.326 . S
In403 O409 2.266 . S
In403 O410 2.326 . S
In403 O411 2.266 . S
In403 O412 2.326 . S
In403 O414 2.294 . S
In403 O415 2.326 . S
O404 In403 2.294 . S
O404 C413 1.240 . S
O405 In403 2.326 . S
O405 C413 1.252 . S
C406 O409 1.252 . S
C406 O410 1.260 . S
C407 O414 1.240 . S
C407 O415 1.252 . S
C408 O411 1.252 . S
C408 O412 1.260 . S
O409 In403 2.266 . S
O409 C406 1.252 . S
O410 In403 2.326 . S
O410 C406 1.260 . S
O411 In403 2.266 . S
O411 C408 1.252 . S
O412 In403 2.326 . S
O412 C408 1.260 . S
C413 O404 1.240 . S
C413 O405 1.252 . S
O414 In403 2.294 . S
O414 C407 1.240 . S
O415 In403 2.326 . S
O415 C407 1.252 . S
In416 O417 2.294 . S
In416 O418 2.326 . S
In416 O422 2.266 . S
In416 O423 2.326 1_565 S
In416 O424 2.266 1_565 S
In416 O425 2.326 1_565 S
In416 O427 2.294 . S
In416 O428 2.326 . S
O417 In416 2.294 . S
O417 C426 1.240 . S
O418 In416 2.326 . S
O418 C426 1.252 . S
C419 O422 1.252 1_545 S
C419 O423 1.260 . S
C420 O427 1.240 . S
C420 O428 1.252 . S
C421 O424 1.252 . S
C421 O425 1.260 . S
O422 In416 2.266 . S
O422 C419 1.252 1_565 S
O423 In416 2.326 1_545 S
O423 C419 1.260 . S
O424 In416 2.266 1_545 S
O424 C421 1.252 . S
O425 In416 2.326 1_545 S
O425 C421 1.260 . S
C426 O417 1.240 . S
C426 O418 1.252 . S
O427 In416 2.294 . S
O427 C420 1.240 . S
O428 In416 2.326 . S
O428 C420 1.252 . S
In429 O430 2.294 . S
In429 O431 2.326 . S
In429 O435 2.266 . S
In429 O436 2.326 . S
In429 O437 2.266 . S
In429 O438 2.326 . S
In429 O440 2.294 . S
In429 O441 2.326 . S
O430 In429 2.294 . S
O430 C439 1.240 . S
O431 In429 2.326 . S
O431 C439 1.252 . S
C432 O435 1.252 . S
C432 O436 1.260 . S
C433 O440 1.240 . S
C433 O441 1.252 . S
C434 O437 1.252 . S
C434 O438 1.260 . S
O435 In429 2.266 . S
O435 C432 1.252 . S
O436 In429 2.326 . S
O436 C432 1.260 . S
O437 In429 2.266 . S
O437 C434 1.252 . S
O438 In429 2.326 . S
O438 C434 1.260 . S
C439 O430 1.240 . S
C439 O431 1.252 . S
O440 In429 2.294 . S
O440 C433 1.240 . S
O441 In429 2.326 . S
O441 C433 1.252 . S
In442 O443 2.294 . S
In442 O444 2.326 . S
In442 O448 2.266 . S
In442 O449 2.326 1_545 S
In442 O450 2.266 1_545 S
In442 O451 2.326 1_545 S
In442 O453 2.294 . S
In442 O454 2.326 . S
O443 In442 2.294 . S
O443 C452 1.240 . S
O444 In442 2.326 . S
O444 C452 1.252 . S
C445 O448 1.252 1_565 S
C445 O449 1.260 . S
C446 O453 1.240 . S
C446 O454 1.252 . S
C447 O450 1.252 . S
C447 O451 1.260 . S
O448 In442 2.266 . S
O448 C445 1.252 1_545 S
O449 In442 2.326 1_565 S
O449 C445 1.260 . S
O450 In442 2.266 1_565 S
O450 C447 1.252 . S
O451 In442 2.326 1_565 S
O451 C447 1.260 . S
C452 O443 1.240 . S
C452 O444 1.252 . S
O453 In442 2.294 . S
O453 C446 1.240 . S
O454 In442 2.326 . S
O454 C446 1.252 . S
In455 O456 2.294 . S
In455 O457 2.326 . S
In455 O461 2.266 . S
In455 O462 2.326 . S
In455 O463 2.266 . S
In455 O464 2.326 . S
In455 O466 2.294 . S
In455 O467 2.326 . S
O456 In455 2.294 . S
O456 C465 1.240 . S
O457 In455 2.326 . S
O457 C465 1.252 . S
C458 O461 1.252 . S
C458 O462 1.260 . S
C459 O466 1.240 . S
C459 O467 1.252 . S
C460 O463 1.252 . S
C460 O464 1.260 . S
O461 In455 2.266 . S
O461 C458 1.252 . S
O462 In455 2.326 . S
O462 C458 1.260 . S
O463 In455 2.266 . S
O463 C460 1.252 . S
O464 In455 2.326 . S
O464 C460 1.260 . S
C465 O456 1.240 . S
C465 O457 1.252 . S
O466 In455 2.294 . S
O466 C459 1.240 . S
O467 In455 2.326 . S
O467 C459 1.252 . S
In468 O469 2.294 . S
In468 O470 2.326 . S
In468 O474 2.266 . S
In468 O475 2.326 1_545 S
In468 O476 2.266 1_545 S
In468 O477 2.326 1_545 S
In468 O479 2.294 . S
In468 O480 2.326 . S
O469 In468 2.294 . S
O469 C478 1.240 . S
O470 In468 2.326 . S
O470 C478 1.252 . S
C471 O474 1.252 1_565 S
C471 O475 1.260 . S
C472 O479 1.240 . S
C472 O480 1.252 . S
C473 O476 1.252 . S
C473 O477 1.260 . S
O474 In468 2.266 . S
O474 C471 1.252 1_545 S
O475 In468 2.326 1_565 S
O475 C471 1.260 . S
O476 In468 2.266 1_565 S
O476 C473 1.252 . S
O477 In468 2.326 1_565 S
O477 C473 1.260 . S
C478 O469 1.240 . S
C478 O470 1.252 . S
O479 In468 2.294 . S
O479 C472 1.240 . S
O480 In468 2.326 . S
O480 C472 1.252 . S
In481 O482 2.294 . S
In481 O483 2.326 . S
In481 O487 2.266 . S
In481 O488 2.326 . S
In481 O489 2.266 . S
In481 O490 2.326 . S
In481 O492 2.294 . S
In481 O493 2.326 . S
O482 In481 2.294 . S
O482 C491 1.240 . S
O483 In481 2.326 . S
O483 C491 1.252 . S
C484 O487 1.252 . S
C484 O488 1.260 . S
C485 O492 1.240 . S
C485 O493 1.252 . S
C486 O489 1.252 . S
C486 O490 1.260 . S
O487 In481 2.266 . S
O487 C484 1.252 . S
O488 In481 2.326 . S
O488 C484 1.260 . S
O489 In481 2.266 . S
O489 C486 1.252 . S
O490 In481 2.326 . S
O490 C486 1.260 . S
C491 O482 1.240 . S
C491 O483 1.252 . S
O492 In481 2.294 . S
O492 C485 1.240 . S
O493 In481 2.326 . S
O493 C485 1.252 . S
In494 O495 2.294 . S
In494 O496 2.326 . S
In494 O500 2.266 1_565 S
In494 O501 2.326 1_565 S
In494 O502 2.266 . S
In494 O503 2.326 1_565 S
In494 O505 2.294 . S
In494 O506 2.326 . S
O495 In494 2.294 . S
O495 C504 1.240 . S
O496 In494 2.326 . S
O496 C504 1.252 . S
C497 O500 1.252 . S
C497 O501 1.260 . S
C498 O505 1.240 . S
C498 O506 1.252 . S
C499 O502 1.252 1_545 S
C499 O503 1.260 . S
O500 In494 2.266 1_545 S
O500 C497 1.252 . S
O501 In494 2.326 1_545 S
O501 C497 1.260 . S
O502 In494 2.266 . S
O502 C499 1.252 1_565 S
O503 In494 2.326 1_545 S
O503 C499 1.260 . S
C504 O495 1.240 . S
C504 O496 1.252 . S
O505 In494 2.294 . S
O505 C498 1.240 . S
O506 In494 2.326 . S
O506 C498 1.252 . S
In507 O508 2.294 . S
In507 O509 2.326 . S
In507 O513 2.266 . S
In507 O514 2.326 . S
In507 O515 2.266 . S
In507 O516 2.326 . S
In507 O518 2.294 . S
In507 O519 2.326 . S
O508 In507 2.294 . S
O508 C517 1.240 . S
O509 In507 2.326 . S
O509 C517 1.252 . S
C510 O513 1.252 . S
C510 O514 1.260 . S
C511 O518 1.240 . S
C511 O519 1.252 . S
C512 O515 1.252 . S
C512 O516 1.260 . S
O513 In507 2.266 . S
O513 C510 1.252 . S
O514 In507 2.326 . S
O514 C510 1.260 . S
O515 In507 2.266 . S
O515 C512 1.252 . S
O516 In507 2.326 . S
O516 C512 1.260 . S
C517 O508 1.240 . S
C517 O509 1.252 . S
O518 In507 2.294 . S
O518 C511 1.240 . S
O519 In507 2.326 . S
O519 C511 1.252 . S
In520 O521 2.294 . S
In520 O522 2.326 . S
In520 O526 2.266 1_556 S
In520 O527 2.326 1_556 S
In520 O528 2.266 . S
In520 O529 2.326 1_556 S
In520 O531 2.294 . S
In520 O532 2.326 . S
O521 In520 2.294 . S
O521 C530 1.240 . S
O522 In520 2.326 . S
O522 C530 1.252 . S
C523 O526 1.252 . S
C523 O527 1.260 . S
C524 O531 1.240 . S
C524 O532 1.252 . S
C525 O528 1.252 1_554 S
C525 O529 1.260 . S
O526 In520 2.266 1_554 S
O526 C523 1.252 . S
O527 In520 2.326 1_554 S
O527 C523 1.260 . S
O528 In520 2.266 . S
O528 C525 1.252 1_556 S
O529 In520 2.326 1_554 S
O529 C525 1.260 . S
C530 O521 1.240 . S
C530 O522 1.252 . S
O531 In520 2.294 . S
O531 C524 1.240 . S
O532 In520 2.326 . S
O532 C524 1.252 . S
In533 O534 2.294 . S
In533 O535 2.326 . S
In533 O539 2.266 1_554 S
In533 O540 2.326 1_554 S
In533 O541 2.266 . S
In533 O542 2.326 1_554 S
In533 O544 2.294 . S
In533 O545 2.326 . S
O534 In533 2.294 . S
O534 C543 1.240 . S
O535 In533 2.326 . S
O535 C543 1.252 . S
C536 O539 1.252 . S
C536 O540 1.260 . S
C537 O544 1.240 . S
C537 O545 1.252 . S
C538 O541 1.252 1_556 S
C538 O542 1.260 . S
O539 In533 2.266 1_556 S
O539 C536 1.252 . S
O540 In533 2.326 1_556 S
O540 C536 1.260 . S
O541 In533 2.266 . S
O541 C538 1.252 1_554 S
O542 In533 2.326 1_556 S
O542 C538 1.260 . S
C543 O534 1.240 . S
C543 O535 1.252 . S
O544 In533 2.294 . S
O544 C537 1.240 . S
O545 In533 2.326 . S
O545 C537 1.252 . S
In546 O547 2.294 . S
In546 O548 2.326 . S
In546 O552 2.266 . S
In546 O553 2.326 . S
In546 O554 2.266 . S
In546 O555 2.326 . S
In546 O557 2.294 . S
In546 O558 2.326 . S
O547 In546 2.294 . S
O547 C556 1.240 . S
O548 In546 2.326 . S
O548 C556 1.252 . S
C549 O552 1.252 . S
C549 O553 1.260 . S
C550 O557 1.240 . S
C550 O558 1.252 . S
C551 O554 1.252 . S
C551 O555 1.260 . S
O552 In546 2.266 . S
O552 C549 1.252 . S
O553 In546 2.326 . S
O553 C549 1.260 . S
O554 In546 2.266 . S
O554 C551 1.252 . S
O555 In546 2.326 . S
O555 C551 1.260 . S
C556 O547 1.240 . S
C556 O548 1.252 . S
O557 In546 2.294 . S
O557 C550 1.240 . S
O558 In546 2.326 . S
O558 C550 1.252 . S
In559 O560 2.294 . S
In559 O561 2.326 . S
In559 O565 2.266 . S
In559 O566 2.326 . S
In559 O567 2.266 . S
In559 O568 2.326 . S
In559 O570 2.294 . S
In559 O571 2.326 . S
O560 In559 2.294 . S
O560 C569 1.240 . S
O561 In559 2.326 . S
O561 C569 1.252 . S
C562 O565 1.252 . S
C562 O566 1.260 . S
C563 O570 1.240 . S
C563 O571 1.252 . S
C564 O567 1.252 . S
C564 O568 1.260 . S
O565 In559 2.266 . S
O565 C562 1.252 . S
O566 In559 2.326 . S
O566 C562 1.260 . S
O567 In559 2.266 . S
O567 C564 1.252 . S
O568 In559 2.326 . S
O568 C564 1.260 . S
C569 O560 1.240 . S
C569 O561 1.252 . S
O570 In559 2.294 . S
O570 C563 1.240 . S
O571 In559 2.326 . S
O571 C563 1.252 . S
In572 O573 2.294 . S
In572 O574 2.326 . S
In572 O578 2.266 . S
In572 O579 2.326 . S
In572 O580 2.266 . S
In572 O581 2.326 . S
In572 O583 2.294 . S
In572 O584 2.326 . S
O573 In572 2.294 . S
O573 C582 1.240 . S
O574 In572 2.326 . S
O574 C582 1.252 . S
C575 O578 1.252 . S
C575 O579 1.260 . S
C576 O583 1.240 . S
C576 O584 1.252 . S
C577 O580 1.252 . S
C577 O581 1.260 . S
O578 In572 2.266 . S
O578 C575 1.252 . S
O579 In572 2.326 . S
O579 C575 1.260 . S
O580 In572 2.266 . S
O580 C577 1.252 . S
O581 In572 2.326 . S
O581 C577 1.260 . S
C582 O573 1.240 . S
C582 O574 1.252 . S
O583 In572 2.294 . S
O583 C576 1.240 . S
O584 In572 2.326 . S
O584 C576 1.252 . S
In585 O586 2.294 . S
In585 O587 2.326 . S
In585 O591 2.266 . S
In585 O592 2.326 . S
In585 O593 2.266 . S
In585 O594 2.326 . S
In585 O596 2.294 . S
In585 O597 2.326 . S
O586 In585 2.294 . S
O586 C595 1.240 . S
O587 In585 2.326 . S
O587 C595 1.252 . S
C588 O591 1.252 . S
C588 O592 1.260 . S
C589 O596 1.240 . S
C589 O597 1.252 . S
C590 O593 1.252 . S
C590 O594 1.260 . S
O591 In585 2.266 . S
O591 C588 1.252 . S
O592 In585 2.326 . S
O592 C588 1.260 . S
O593 In585 2.266 . S
O593 C590 1.252 . S
O594 In585 2.326 . S
O594 C590 1.260 . S
C595 O586 1.240 . S
C595 O587 1.252 . S
O596 In585 2.294 . S
O596 C589 1.240 . S
O597 In585 2.326 . S
O597 C589 1.252 . S
In598 O599 2.294 . S
In598 O600 2.326 . S
In598 O604 2.266 . S
In598 O605 2.326 . S
In598 O606 2.266 . S
In598 O607 2.326 . S
In598 O609 2.294 . S
In598 O610 2.326 . S
O599 In598 2.294 . S
O599 C608 1.240 . S
O600 In598 2.326 . S
O600 C608 1.252 . S
C601 O604 1.252 . S
C601 O605 1.260 . S
C602 O609 1.240 . S
C602 O610 1.252 . S
C603 O606 1.252 . S
C603 O607 1.260 . S
O604 In598 2.266 . S
O604 C601 1.252 . S
O605 In598 2.326 . S
O605 C601 1.260 . S
O606 In598 2.266 . S
O606 C603 1.252 . S
O607 In598 2.326 . S
O607 C603 1.260 . S
C608 O599 1.240 . S
C608 O600 1.252 . S
O609 In598 2.294 . S
O609 C602 1.240 . S
O610 In598 2.326 . S
O610 C602 1.252 . S
In611 O612 2.294 . S
In611 O613 2.326 . S
In611 O617 2.266 . S
In611 O618 2.326 . S
In611 O619 2.266 . S
In611 O620 2.326 . S
In611 O622 2.294 . S
In611 O623 2.326 . S
O612 In611 2.294 . S
O612 C621 1.240 . S
O613 In611 2.326 . S
O613 C621 1.252 . S
C614 O617 1.252 . S
C614 O618 1.260 . S
C615 O622 1.240 . S
C615 O623 1.252 . S
C616 O619 1.252 . S
C616 O620 1.260 . S
O617 In611 2.266 . S
O617 C614 1.252 . S
O618 In611 2.326 . S
O618 C614 1.260 . S
O619 In611 2.266 . S
O619 C616 1.252 . S
O620 In611 2.326 . S
O620 C616 1.260 . S
C621 O612 1.240 . S
C621 O613 1.252 . S
O622 In611 2.294 . S
O622 C615 1.240 . S
O623 In611 2.326 . S
O623 C615 1.252 . S
In624 O625 2.294 . S
In624 O626 2.326 . S
In624 O630 2.266 . S
In624 O631 2.326 . S
In624 O632 2.266 . S
In624 O633 2.326 . S
In624 O635 2.294 . S
In624 O636 2.326 . S
O625 In624 2.294 . S
O625 C634 1.240 . S
O626 In624 2.326 . S
O626 C634 1.252 . S
C627 O630 1.252 . S
C627 O631 1.260 . S
C628 O635 1.240 . S
C628 O636 1.252 . S
C629 O632 1.252 . S
C629 O633 1.260 . S
O630 In624 2.266 . S
O630 C627 1.252 . S
O631 In624 2.326 . S
O631 C627 1.260 . S
O632 In624 2.266 . S
O632 C629 1.252 . S
O633 In624 2.326 . S
O633 C629 1.260 . S
C634 O625 1.240 . S
C634 O626 1.252 . S
O635 In624 2.294 . S
O635 C628 1.240 . S
O636 In624 2.326 . S
O636 C628 1.252 . S
In637 O638 2.294 . S
In637 O639 2.326 . S
In637 O643 2.266 . S
In637 O644 2.326 . S
In637 O645 2.266 . S
In637 O646 2.326 . S
In637 O648 2.294 . S
In637 O649 2.326 . S
O638 In637 2.294 . S
O638 C647 1.240 . S
O639 In637 2.326 . S
O639 C647 1.252 . S
C640 O643 1.252 . S
C640 O644 1.260 . S
C641 O648 1.240 . S
C641 O649 1.252 . S
C642 O645 1.252 . S
C642 O646 1.260 . S
O643 In637 2.266 . S
O643 C640 1.252 . S
O644 In637 2.326 . S
O644 C640 1.260 . S
O645 In637 2.266 . S
O645 C642 1.252 . S
O646 In637 2.326 . S
O646 C642 1.260 . S
C647 O638 1.240 . S
C647 O639 1.252 . S
O648 In637 2.294 . S
O648 C641 1.240 . S
O649 In637 2.326 . S
O649 C641 1.252 . S
In650 O651 2.294 . S
In650 O652 2.326 . S
In650 O656 2.266 1_655 S
In650 O657 2.326 1_655 S
In650 O658 2.266 . S
In650 O659 2.326 1_655 S
In650 O661 2.294 . S
In650 O662 2.326 . S
O651 In650 2.294 . S
O651 C660 1.240 . S
O652 In650 2.326 . S
O652 C660 1.252 . S
C653 O656 1.252 . S
C653 O657 1.260 . S
C654 O661 1.240 . S
C654 O662 1.252 . S
C655 O658 1.252 1_455 S
C655 O659 1.260 . S
O656 In650 2.266 1_455 S
O656 C653 1.252 . S
O657 In650 2.326 1_455 S
O657 C653 1.260 . S
O658 In650 2.266 . S
O658 C655 1.252 1_655 S
O659 In650 2.326 1_455 S
O659 C655 1.260 . S
C660 O651 1.240 . S
C660 O652 1.252 . S
O661 In650 2.294 . S
O661 C654 1.240 . S
O662 In650 2.326 . S
O662 C654 1.252 . S
In663 O664 2.294 . S
In663 O665 2.326 . S
In663 O669 2.266 . S
In663 O670 2.326 . S
In663 O671 2.266 . S
In663 O672 2.326 . S
In663 O674 2.294 . S
In663 O675 2.326 . S
O664 In663 2.294 . S
O664 C673 1.240 . S
O665 In663 2.326 . S
O665 C673 1.252 . S
C666 O669 1.252 . S
C666 O670 1.260 . S
C667 O674 1.240 . S
C667 O675 1.252 . S
C668 O671 1.252 . S
C668 O672 1.260 . S
O669 In663 2.266 . S
O669 C666 1.252 . S
O670 In663 2.326 . S
O670 C666 1.260 . S
O671 In663 2.266 . S
O671 C668 1.252 . S
O672 In663 2.326 . S
O672 C668 1.260 . S
C673 O664 1.240 . S
C673 O665 1.252 . S
O674 In663 2.294 . S
O674 C667 1.240 . S
O675 In663 2.326 . S
O675 C667 1.252 . S
In676 O677 2.294 . S
In676 O678 2.326 . S
In676 O682 2.266 . S
In676 O683 2.326 . S
In676 O684 2.266 . S
In676 O685 2.326 . S
In676 O687 2.294 . S
In676 O688 2.326 . S
O677 In676 2.294 . S
O677 C686 1.240 . S
O678 In676 2.326 . S
O678 C686 1.252 . S
C679 O682 1.252 . S
C679 O683 1.260 . S
C680 O687 1.240 . S
C680 O688 1.252 . S
C681 O684 1.252 . S
C681 O685 1.260 . S
O682 In676 2.266 . S
O682 C679 1.252 . S
O683 In676 2.326 . S
O683 C679 1.260 . S
O684 In676 2.266 . S
O684 C681 1.252 . S
O685 In676 2.326 . S
O685 C681 1.260 . S
C686 O677 1.240 . S
C686 O678 1.252 . S
O687 In676 2.294 . S
O687 C680 1.240 . S
O688 In676 2.326 . S
O688 C680 1.252 . S
In689 O690 2.294 . S
In689 O691 2.326 . S
In689 O695 2.266 . S
In689 O696 2.326 . S
In689 O697 2.266 . S
In689 O698 2.326 . S
In689 O700 2.294 . S
In689 O701 2.326 . S
O690 In689 2.294 . S
O690 C699 1.240 . S
O691 In689 2.326 . S
O691 C699 1.252 . S
C692 O695 1.252 . S
C692 O696 1.260 . S
C693 O700 1.240 . S
C693 O701 1.252 . S
C694 O697 1.252 . S
C694 O698 1.260 . S
O695 In689 2.266 . S
O695 C692 1.252 . S
O696 In689 2.326 . S
O696 C692 1.260 . S
O697 In689 2.266 . S
O697 C694 1.252 . S
O698 In689 2.326 . S
O698 C694 1.260 . S
C699 O690 1.240 . S
C699 O691 1.252 . S
O700 In689 2.294 . S
O700 C693 1.240 . S
O701 In689 2.326 . S
O701 C693 1.252 . S
In702 O703 2.294 . S
In702 O704 2.326 . S
In702 O708 2.266 . S
In702 O709 2.326 1_655 S
In702 O710 2.266 1_655 S
In702 O711 2.326 1_655 S
In702 O713 2.294 . S
In702 O714 2.326 . S
O703 In702 2.294 . S
O703 C712 1.240 . S
O704 In702 2.326 . S
O704 C712 1.252 . S
C705 O708 1.252 1_455 S
C705 O709 1.260 . S
C706 O713 1.240 . S
C706 O714 1.252 . S
C707 O710 1.252 . S
C707 O711 1.260 . S
O708 In702 2.266 . S
O708 C705 1.252 1_655 S
O709 In702 2.326 1_455 S
O709 C705 1.260 . S
O710 In702 2.266 1_455 S
O710 C707 1.252 . S
O711 In702 2.326 1_455 S
O711 C707 1.260 . S
C712 O703 1.240 . S
C712 O704 1.252 . S
O713 In702 2.294 . S
O713 C706 1.240 . S
O714 In702 2.326 . S
O714 C706 1.252 . S
In715 O716 2.294 . S
In715 O717 2.326 . S
In715 O721 2.266 . S
In715 O722 2.326 . S
In715 O723 2.266 . S
In715 O724 2.326 . S
In715 O726 2.294 . S
In715 O727 2.326 . S
O716 In715 2.294 . S
O716 C725 1.240 . S
O717 In715 2.326 . S
O717 C725 1.252 . S
C718 O721 1.252 . S
C718 O722 1.260 . S
C719 O726 1.240 . S
C719 O727 1.252 . S
C720 O723 1.252 . S
C720 O724 1.260 . S
O721 In715 2.266 . S
O721 C718 1.252 . S
O722 In715 2.326 . S
O722 C718 1.260 . S
O723 In715 2.266 . S
O723 C720 1.252 . S
O724 In715 2.326 . S
O724 C720 1.260 . S
C725 O716 1.240 . S
C725 O717 1.252 . S
O726 In715 2.294 . S
O726 C719 1.240 . S
O727 In715 2.326 . S
O727 C719 1.252 . S
In728 O729 2.294 . S
In728 O730 2.326 . S
In728 O734 2.266 . S
In728 O735 2.326 . S
In728 O736 2.266 . S
In728 O737 2.326 . S
In728 O739 2.294 . S
In728 O740 2.326 . S
O729 In728 2.294 . S
O729 C738 1.240 . S
O730 In728 2.326 . S
O730 C738 1.252 . S
C731 O734 1.252 . S
C731 O735 1.260 . S
C732 O739 1.240 . S
C732 O740 1.252 . S
C733 O736 1.252 . S
C733 O737 1.260 . S
O734 In728 2.266 . S
O734 C731 1.252 . S
O735 In728 2.326 . S
O735 C731 1.260 . S
O736 In728 2.266 . S
O736 C733 1.252 . S
O737 In728 2.326 . S
O737 C733 1.260 . S
C738 O729 1.240 . S
C738 O730 1.252 . S
O739 In728 2.294 . S
O739 C732 1.240 . S
O740 In728 2.326 . S
O740 C732 1.252 . S
In741 O742 2.294 . S
In741 O743 2.326 . S
In741 O747 2.266 . S
In741 O748 2.326 . S
In741 O749 2.266 . S
In741 O750 2.326 . S
In741 O752 2.294 . S
In741 O753 2.326 . S
O742 In741 2.294 . S
O742 C751 1.240 . S
O743 In741 2.326 . S
O743 C751 1.252 . S
C744 O747 1.252 . S
C744 O748 1.260 . S
C745 O752 1.240 . S
C745 O753 1.252 . S
C746 O749 1.252 . S
C746 O750 1.260 . S
O747 In741 2.266 . S
O747 C744 1.252 . S
O748 In741 2.326 . S
O748 C744 1.260 . S
O749 In741 2.266 . S
O749 C746 1.252 . S
O750 In741 2.326 . S
O750 C746 1.260 . S
C751 O742 1.240 . S
C751 O743 1.252 . S
O752 In741 2.294 . S
O752 C745 1.240 . S
O753 In741 2.326 . S
O753 C745 1.252 . S
In754 O755 2.294 . S
In754 O756 2.326 . S
In754 O760 2.266 . S
In754 O761 2.326 . S
In754 O762 2.266 . S
In754 O763 2.326 . S
In754 O765 2.294 . S
In754 O766 2.326 . S
O755 In754 2.294 . S
O755 C764 1.240 . S
O756 In754 2.326 . S
O756 C764 1.252 . S
C757 O760 1.252 . S
C757 O761 1.260 . S
C758 O765 1.240 . S
C758 O766 1.252 . S
C759 O762 1.252 . S
C759 O763 1.260 . S
O760 In754 2.266 . S
O760 C757 1.252 . S
O761 In754 2.326 . S
O761 C757 1.260 . S
O762 In754 2.266 . S
O762 C759 1.252 . S
O763 In754 2.326 . S
O763 C759 1.260 . S
C764 O755 1.240 . S
C764 O756 1.252 . S
O765 In754 2.294 . S
O765 C758 1.240 . S
O766 In754 2.326 . S
O766 C758 1.252 . S
In767 O768 2.294 . S
In767 O769 2.326 . S
In767 O773 2.266 . S
In767 O774 2.326 . S
In767 O775 2.266 . S
In767 O776 2.326 . S
In767 O778 2.294 . S
In767 O779 2.326 . S
O768 In767 2.294 . S
O768 C777 1.240 . S
O769 In767 2.326 . S
O769 C777 1.252 . S
C770 O773 1.252 . S
C770 O774 1.260 . S
C771 O778 1.240 . S
C771 O779 1.252 . S
C772 O775 1.252 . S
C772 O776 1.260 . S
O773 In767 2.266 . S
O773 C770 1.252 . S
O774 In767 2.326 . S
O774 C770 1.260 . S
O775 In767 2.266 . S
O775 C772 1.252 . S
O776 In767 2.326 . S
O776 C772 1.260 . S
C777 O768 1.240 . S
C777 O769 1.252 . S
O778 In767 2.294 . S
O778 C771 1.240 . S
O779 In767 2.326 . S
O779 C771 1.252 . S
In780 O781 2.294 . S
In780 O782 2.326 . S
In780 O786 2.266 . S
In780 O787 2.326 . S
In780 O788 2.266 . S
In780 O789 2.326 . S
In780 O791 2.294 . S
In780 O792 2.326 . S
O781 In780 2.294 . S
O781 C790 1.240 . S
O782 In780 2.326 . S
O782 C790 1.252 . S
C783 O786 1.252 . S
C783 O787 1.260 . S
C784 O791 1.240 . S
C784 O792 1.252 . S
C785 O788 1.252 . S
C785 O789 1.260 . S
O786 In780 2.266 . S
O786 C783 1.252 . S
O787 In780 2.326 . S
O787 C783 1.260 . S
O788 In780 2.266 . S
O788 C785 1.252 . S
O789 In780 2.326 . S
O789 C785 1.260 . S
C790 O781 1.240 . S
C790 O782 1.252 . S
O791 In780 2.294 . S
O791 C784 1.240 . S
O792 In780 2.326 . S
O792 C784 1.252 . S
In793 O794 2.294 . S
In793 O795 2.326 . S
In793 O799 2.266 . S
In793 O800 2.326 . S
In793 O801 2.266 . S
In793 O802 2.326 . S
In793 O804 2.294 . S
In793 O805 2.326 . S
O794 In793 2.294 . S
O794 C803 1.240 . S
O795 In793 2.326 . S
O795 C803 1.252 . S
C796 O799 1.252 . S
C796 O800 1.260 . S
C797 O804 1.240 . S
C797 O805 1.252 . S
C798 O801 1.252 . S
C798 O802 1.260 . S
O799 In793 2.266 . S
O799 C796 1.252 . S
O800 In793 2.326 . S
O800 C796 1.260 . S
O801 In793 2.266 . S
O801 C798 1.252 . S
O802 In793 2.326 . S
O802 C798 1.260 . S
C803 O794 1.240 . S
C803 O795 1.252 . S
O804 In793 2.294 . S
O804 C797 1.240 . S
O805 In793 2.326 . S
O805 C797 1.252 . S
In806 O807 2.294 . S
In806 O808 2.326 . S
In806 O812 2.266 . S
In806 O813 2.326 . S
In806 O814 2.266 . S
In806 O815 2.326 . S
In806 O817 2.294 . S
In806 O818 2.326 . S
O807 In806 2.294 . S
O807 C816 1.240 . S
O808 In806 2.326 . S
O808 C816 1.252 . S
C809 O812 1.252 . S
C809 O813 1.260 . S
C810 O817 1.240 . S
C810 O818 1.252 . S
C811 O814 1.252 . S
C811 O815 1.260 . S
O812 In806 2.266 . S
O812 C809 1.252 . S
O813 In806 2.326 . S
O813 C809 1.260 . S
O814 In806 2.266 . S
O814 C811 1.252 . S
O815 In806 2.326 . S
O815 C811 1.260 . S
C816 O807 1.240 . S
C816 O808 1.252 . S
O817 In806 2.294 . S
O817 C810 1.240 . S
O818 In806 2.326 . S
O818 C810 1.252 . S
In819 O820 2.294 . S
In819 O821 2.326 . S
In819 O825 2.266 . S
In819 O826 2.326 . S
In819 O827 2.266 . S
In819 O828 2.326 . S
In819 O830 2.294 . S
In819 O831 2.326 . S
O820 In819 2.294 . S
O820 C829 1.240 . S
O821 In819 2.326 . S
O821 C829 1.252 . S
C822 O825 1.252 . S
C822 O826 1.260 . S
C823 O830 1.240 . S
C823 O831 1.252 . S
C824 O827 1.252 . S
C824 O828 1.260 . S
O825 In819 2.266 . S
O825 C822 1.252 . S
O826 In819 2.326 . S
O826 C822 1.260 . S
O827 In819 2.266 . S
O827 C824 1.252 . S
O828 In819 2.326 . S
O828 C824 1.260 . S
C829 O820 1.240 . S
C829 O821 1.252 . S
O830 In819 2.294 . S
O830 C823 1.240 . S
O831 In819 2.326 . S
O831 C823 1.252 . S
In832 O833 2.294 . S
In832 O834 2.326 . S
In832 O838 2.266 . S
In832 O839 2.326 . S
In832 O840 2.266 . S
In832 O841 2.326 . S
In832 O843 2.294 . S
In832 O844 2.326 . S
O833 In832 2.294 . S
O833 C842 1.240 . S
O834 In832 2.326 . S
O834 C842 1.252 . S
C835 O838 1.252 . S
C835 O839 1.260 . S
C836 O843 1.240 . S
C836 O844 1.252 . S
C837 O840 1.252 . S
C837 O841 1.260 . S
O838 In832 2.266 . S
O838 C835 1.252 . S
O839 In832 2.326 . S
O839 C835 1.260 . S
O840 In832 2.266 . S
O840 C837 1.252 . S
O841 In832 2.326 . S
O841 C837 1.260 . S
C842 O833 1.240 . S
C842 O834 1.252 . S
O843 In832 2.294 . S
O843 C836 1.240 . S
O844 In832 2.326 . S
O844 C836 1.252 . S
In845 O846 2.294 . S
In845 O847 2.326 . S
In845 O851 2.266 . S
In845 O852 2.326 . S
In845 O853 2.266 . S
In845 O854 2.326 . S
In845 O856 2.294 . S
In845 O857 2.326 . S
O846 In845 2.294 . S
O846 C855 1.240 . S
O847 In845 2.326 . S
O847 C855 1.252 . S
C848 O851 1.252 . S
C848 O852 1.260 . S
C849 O856 1.240 . S
C849 O857 1.252 . S
C850 O853 1.252 . S
C850 O854 1.260 . S
O851 In845 2.266 . S
O851 C848 1.252 . S
O852 In845 2.326 . S
O852 C848 1.260 . S
O853 In845 2.266 . S
O853 C850 1.252 . S
O854 In845 2.326 . S
O854 C850 1.260 . S
C855 O846 1.240 . S
C855 O847 1.252 . S
O856 In845 2.294 . S
O856 C849 1.240 . S
O857 In845 2.326 . S
O857 C849 1.252 . S
In858 O859 2.294 . S
In858 O860 2.326 . S
In858 O864 2.266 . S
In858 O865 2.326 . S
In858 O866 2.266 . S
In858 O867 2.326 . S
In858 O869 2.294 . S
In858 O870 2.326 . S
O859 In858 2.294 . S
O859 C868 1.240 . S
O860 In858 2.326 . S
O860 C868 1.252 . S
C861 O864 1.252 . S
C861 O865 1.260 . S
C862 O869 1.240 . S
C862 O870 1.252 . S
C863 O866 1.252 . S
C863 O867 1.260 . S
O864 In858 2.266 . S
O864 C861 1.252 . S
O865 In858 2.326 . S
O865 C861 1.260 . S
O866 In858 2.266 . S
O866 C863 1.252 . S
O867 In858 2.326 . S
O867 C863 1.260 . S
C868 O859 1.240 . S
C868 O860 1.252 . S
O869 In858 2.294 . S
O869 C862 1.240 . S
O870 In858 2.326 . S
O870 C862 1.252 . S
In871 O872 2.294 . S
In871 O873 2.326 . S
In871 O877 2.266 1_556 S
In871 O878 2.326 1_556 S
In871 O879 2.266 . S
In871 O880 2.326 1_556 S
In871 O882 2.294 . S
In871 O883 2.326 . S
O872 In871 2.294 . S
O872 C881 1.240 . S
O873 In871 2.326 . S
O873 C881 1.252 . S
C874 O877 1.252 . S
C874 O878 1.260 . S
C875 O882 1.240 . S
C875 O883 1.252 . S
C876 O879 1.252 1_554 S
C876 O880 1.260 . S
O877 In871 2.266 1_554 S
O877 C874 1.252 . S
O878 In871 2.326 1_554 S
O878 C874 1.260 . S
O879 In871 2.266 . S
O879 C876 1.252 1_556 S
O880 In871 2.326 1_554 S
O880 C876 1.260 . S
C881 O872 1.240 . S
C881 O873 1.252 . S
O882 In871 2.294 . S
O882 C875 1.240 . S
O883 In871 2.326 . S
O883 C875 1.252 . S
In884 O885 2.294 . S
In884 O886 2.326 . S
In884 O890 2.266 . S
In884 O891 2.326 . S
In884 O892 2.266 . S
In884 O893 2.326 . S
In884 O895 2.294 . S
In884 O896 2.326 . S
O885 In884 2.294 . S
O885 C894 1.240 . S
O886 In884 2.326 . S
O886 C894 1.252 . S
C887 O890 1.252 . S
C887 O891 1.260 . S
C888 O895 1.240 . S
C888 O896 1.252 . S
C889 O892 1.252 . S
C889 O893 1.260 . S
O890 In884 2.266 . S
O890 C887 1.252 . S
O891 In884 2.326 . S
O891 C887 1.260 . S
O892 In884 2.266 . S
O892 C889 1.252 . S
O893 In884 2.326 . S
O893 C889 1.260 . S
C894 O885 1.240 . S
C894 O886 1.252 . S
O895 In884 2.294 . S
O895 C888 1.240 . S
O896 In884 2.326 . S
O896 C888 1.252 . S
In897 O898 2.294 . S
In897 O899 2.326 . S
In897 O903 2.266 1_554 S
In897 O904 2.326 1_554 S
In897 O905 2.266 . S
In897 O906 2.326 1_554 S
In897 O908 2.294 . S
In897 O909 2.326 . S
O898 In897 2.294 . S
O898 C907 1.240 . S
O899 In897 2.326 . S
O899 C907 1.252 . S
C900 O903 1.252 . S
C900 O904 1.260 . S
C901 O908 1.240 . S
C901 O909 1.252 . S
C902 O905 1.252 1_556 S
C902 O906 1.260 . S
O903 In897 2.266 1_556 S
O903 C900 1.252 . S
O904 In897 2.326 1_556 S
O904 C900 1.260 . S
O905 In897 2.266 . S
O905 C902 1.252 1_554 S
O906 In897 2.326 1_556 S
O906 C902 1.260 . S
C907 O898 1.240 . S
C907 O899 1.252 . S
O908 In897 2.294 . S
O908 C901 1.240 . S
O909 In897 2.326 . S
O909 C901 1.252 . S
In910 O911 2.294 . S
In910 O912 2.326 . S
In910 O916 2.266 . S
In910 O917 2.326 . S
In910 O918 2.266 . S
In910 O919 2.326 . S
In910 O921 2.294 . S
In910 O922 2.326 . S
O911 In910 2.294 . S
O911 C920 1.240 . S
O912 In910 2.326 . S
O912 C920 1.252 . S
C913 O916 1.252 . S
C913 O917 1.260 . S
C914 O921 1.240 . S
C914 O922 1.252 . S
C915 O918 1.252 . S
C915 O919 1.260 . S
O916 In910 2.266 . S
O916 C913 1.252 . S
O917 In910 2.326 . S
O917 C913 1.260 . S
O918 In910 2.266 . S
O918 C915 1.252 . S
O919 In910 2.326 . S
O919 C915 1.260 . S
C920 O911 1.240 . S
C920 O912 1.252 . S
O921 In910 2.294 . S
O921 C914 1.240 . S
O922 In910 2.326 . S
O922 C914 1.252 . S
In923 O924 2.294 . S
In923 O925 2.326 . S
In923 O929 2.266 . S
In923 O930 2.326 . S
In923 O931 2.266 . S
In923 O932 2.326 . S
In923 O934 2.294 . S
In923 O935 2.326 . S
O924 In923 2.294 . S
O924 C933 1.240 . S
O925 In923 2.326 . S
O925 C933 1.252 . S
C926 O929 1.252 . S
C926 O930 1.260 . S
C927 O934 1.240 . S
C927 O935 1.252 . S
C928 O931 1.252 . S
C928 O932 1.260 . S
O929 In923 2.266 . S
O929 C926 1.252 . S
O930 In923 2.326 . S
O930 C926 1.260 . S
O931 In923 2.266 . S
O931 C928 1.252 . S
O932 In923 2.326 . S
O932 C928 1.260 . S
C933 O924 1.240 . S
C933 O925 1.252 . S
O934 In923 2.294 . S
O934 C927 1.240 . S
O935 In923 2.326 . S
O935 C927 1.252 . S
In936 O937 2.294 . S
In936 O938 2.326 . S
In936 O942 2.266 . S
In936 O943 2.326 . S
In936 O944 2.266 . S
In936 O945 2.326 . S
In936 O947 2.294 . S
In936 O948 2.326 . S
O937 In936 2.294 . S
O937 C946 1.240 . S
O938 In936 2.326 . S
O938 C946 1.252 . S
C939 O942 1.252 . S
C939 O943 1.260 . S
C940 O947 1.240 . S
C940 O948 1.252 . S
C941 O944 1.252 . S
C941 O945 1.260 . S
O942 In936 2.266 . S
O942 C939 1.252 . S
O943 In936 2.326 . S
O943 C939 1.260 . S
O944 In936 2.266 . S
O944 C941 1.252 . S
O945 In936 2.326 . S
O945 C941 1.260 . S
C946 O937 1.240 . S
C946 O938 1.252 . S
O947 In936 2.294 . S
O947 C940 1.240 . S
O948 In936 2.326 . S
O948 C940 1.252 . S
In949 O950 2.294 . S
In949 O951 2.326 . S
In949 O955 2.266 . S
In949 O956 2.326 . S
In949 O957 2.266 . S
In949 O958 2.326 . S
In949 O960 2.294 . S
In949 O961 2.326 . S
O950 In949 2.294 . S
O950 C959 1.240 . S
O951 In949 2.326 . S
O951 C959 1.252 . S
C952 O955 1.252 . S
C952 O956 1.260 . S
C953 O960 1.240 . S
C953 O961 1.252 . S
C954 O957 1.252 . S
C954 O958 1.260 . S
O955 In949 2.266 . S
O955 C952 1.252 . S
O956 In949 2.326 . S
O956 C952 1.260 . S
O957 In949 2.266 . S
O957 C954 1.252 . S
O958 In949 2.326 . S
O958 C954 1.260 . S
C959 O950 1.240 . S
C959 O951 1.252 . S
O960 In949 2.294 . S
O960 C953 1.240 . S
O961 In949 2.326 . S
O961 C953 1.252 . S
In962 O963 2.294 . S
In962 O964 2.326 . S
In962 O968 2.266 1_455 S
In962 O969 2.326 1_455 S
In962 O970 2.266 . S
In962 O971 2.326 1_455 S
In962 O973 2.294 . S
In962 O974 2.326 . S
O963 In962 2.294 . S
O963 C972 1.240 . S
O964 In962 2.326 . S
O964 C972 1.252 . S
C965 O968 1.252 . S
C965 O969 1.260 . S
C966 O973 1.240 . S
C966 O974 1.252 . S
C967 O970 1.252 1_655 S
C967 O971 1.260 . S
O968 In962 2.266 1_655 S
O968 C965 1.252 . S
O969 In962 2.326 1_655 S
O969 C965 1.260 . S
O970 In962 2.266 . S
O970 C967 1.252 1_455 S
O971 In962 2.326 1_655 S
O971 C967 1.260 . S
C972 O963 1.240 . S
C972 O964 1.252 . S
O973 In962 2.294 . S
O973 C966 1.240 . S
O974 In962 2.326 . S
O974 C966 1.252 . S
In975 O976 2.294 . S
In975 O977 2.326 . S
In975 O981 2.266 . S
In975 O982 2.326 . S
In975 O983 2.266 . S
In975 O984 2.326 . S
In975 O986 2.294 . S
In975 O987 2.326 . S
O976 In975 2.294 . S
O976 C985 1.240 . S
O977 In975 2.326 . S
O977 C985 1.252 . S
C978 O981 1.252 . S
C978 O982 1.260 . S
C979 O986 1.240 . S
C979 O987 1.252 . S
C980 O983 1.252 . S
C980 O984 1.260 . S
O981 In975 2.266 . S
O981 C978 1.252 . S
O982 In975 2.326 . S
O982 C978 1.260 . S
O983 In975 2.266 . S
O983 C980 1.252 . S
O984 In975 2.326 . S
O984 C980 1.260 . S
C985 O976 1.240 . S
C985 O977 1.252 . S
O986 In975 2.294 . S
O986 C979 1.240 . S
O987 In975 2.326 . S
O987 C979 1.252 . S
In988 O989 2.294 . S
In988 O990 2.326 . S
In988 O994 2.266 . S
In988 O995 2.326 . S
In988 O996 2.266 . S
In988 O997 2.326 . S
In988 O999 2.294 . S
In988 O1000 2.326 . S
O989 In988 2.294 . S
O989 C998 1.240 . S
O990 In988 2.326 . S
O990 C998 1.252 . S
C991 O994 1.252 . S
C991 O995 1.260 . S
C992 O999 1.240 . S
C992 O1000 1.252 . S
C993 O996 1.252 . S
C993 O997 1.260 . S
O994 In988 2.266 . S
O994 C991 1.252 . S
O995 In988 2.326 . S
O995 C991 1.260 . S
O996 In988 2.266 . S
O996 C993 1.252 . S
O997 In988 2.326 . S
O997 C993 1.260 . S
C998 O989 1.240 . S
C998 O990 1.252 . S
O999 In988 2.294 . S
O999 C992 1.240 . S
O1000 In988 2.326 . S
O1000 C992 1.252 . S
In1001 O1002 2.294 . S
In1001 O1003 2.326 . S
In1001 O1007 2.266 . S
In1001 O1008 2.326 . S
In1001 O1009 2.266 . S
In1001 O1010 2.326 . S
In1001 O1012 2.294 . S
In1001 O1013 2.326 . S
O1002 In1001 2.294 . S
O1002 C1011 1.240 . S
O1003 In1001 2.326 . S
O1003 C1011 1.252 . S
C1004 O1007 1.252 . S
C1004 O1008 1.260 . S
C1005 O1012 1.240 . S
C1005 O1013 1.252 . S
C1006 O1009 1.252 . S
C1006 O1010 1.260 . S
O1007 In1001 2.266 . S
O1007 C1004 1.252 . S
O1008 In1001 2.326 . S
O1008 C1004 1.260 . S
O1009 In1001 2.266 . S
O1009 C1006 1.252 . S
O1010 In1001 2.326 . S
O1010 C1006 1.260 . S
C1011 O1002 1.240 . S
C1011 O1003 1.252 . S
O1012 In1001 2.294 . S
O1012 C1005 1.240 . S
O1013 In1001 2.326 . S
O1013 C1005 1.252 . S
In1014 O1015 2.294 . S
In1014 O1016 2.326 . S
In1014 O1020 2.266 . S
In1014 O1021 2.326 1_455 S
In1014 O1022 2.266 1_455 S
In1014 O1023 2.326 1_455 S
In1014 O1025 2.294 . S
In1014 O1026 2.326 . S
O1015 In1014 2.294 . S
O1015 C1024 1.240 . S
O1016 In1014 2.326 . S
O1016 C1024 1.252 . S
C1017 O1020 1.252 1_655 S
C1017 O1021 1.260 . S
C1018 O1025 1.240 . S
C1018 O1026 1.252 . S
C1019 O1022 1.252 . S
C1019 O1023 1.260 . S
O1020 In1014 2.266 . S
O1020 C1017 1.252 1_455 S
O1021 In1014 2.326 1_655 S
O1021 C1017 1.260 . S
O1022 In1014 2.266 1_655 S
O1022 C1019 1.252 . S
O1023 In1014 2.326 1_655 S
O1023 C1019 1.260 . S
C1024 O1015 1.240 . S
C1024 O1016 1.252 . S
O1025 In1014 2.294 . S
O1025 C1018 1.240 . S
O1026 In1014 2.326 . S
O1026 C1018 1.252 . S
In1027 O1028 2.294 . S
In1027 O1029 2.326 . S
In1027 O1033 2.266 . S
In1027 O1034 2.326 . S
In1027 O1035 2.266 . S
In1027 O1036 2.326 . S
In1027 O1038 2.294 . S
In1027 O1039 2.326 . S
O1028 In1027 2.294 . S
O1028 C1037 1.240 . S
O1029 In1027 2.326 . S
O1029 C1037 1.252 . S
C1030 O1033 1.252 . S
C1030 O1034 1.260 . S
C1031 O1038 1.240 . S
C1031 O1039 1.252 . S
C1032 O1035 1.252 . S
C1032 O1036 1.260 . S
O1033 In1027 2.266 . S
O1033 C1030 1.252 . S
O1034 In1027 2.326 . S
O1034 C1030 1.260 . S
O1035 In1027 2.266 . S
O1035 C1032 1.252 . S
O1036 In1027 2.326 . S
O1036 C1032 1.260 . S
C1037 O1028 1.240 . S
C1037 O1029 1.252 . S
O1038 In1027 2.294 . S
O1038 C1031 1.240 . S
O1039 In1027 2.326 . S
O1039 C1031 1.252 . S
In1040 O1041 2.294 . S
In1040 O1042 2.326 . S
In1040 O1046 2.266 . S
In1040 O1047 2.326 . S
In1040 O1048 2.266 . S
In1040 O1049 2.326 . S
In1040 O1051 2.294 . S
In1040 O1052 2.326 . S
O1041 In1040 2.294 . S
O1041 C1050 1.240 . S
O1042 In1040 2.326 . S
O1042 C1050 1.252 . S
C1043 O1046 1.252 . S
C1043 O1047 1.260 . S
C1044 O1051 1.240 . S
C1044 O1052 1.252 . S
C1045 O1048 1.252 . S
C1045 O1049 1.260 . S
O1046 In1040 2.266 . S
O1046 C1043 1.252 . S
O1047 In1040 2.326 . S
O1047 C1043 1.260 . S
O1048 In1040 2.266 . S
O1048 C1045 1.252 . S
O1049 In1040 2.326 . S
O1049 C1045 1.260 . S
C1050 O1041 1.240 . S
C1050 O1042 1.252 . S
O1051 In1040 2.294 . S
O1051 C1044 1.240 . S
O1052 In1040 2.326 . S
O1052 C1044 1.252 . S
In1053 O1054 2.294 . S
In1053 O1055 2.326 . S
In1053 O1059 2.266 . S
In1053 O1060 2.326 . S
In1053 O1061 2.266 . S
In1053 O1062 2.326 . S
In1053 O1064 2.294 . S
In1053 O1065 2.326 . S
O1054 In1053 2.294 . S
O1054 C1063 1.240 . S
O1055 In1053 2.326 . S
O1055 C1063 1.252 . S
C1056 O1059 1.252 . S
C1056 O1060 1.260 . S
C1057 O1064 1.240 . S
C1057 O1065 1.252 . S
C1058 O1061 1.252 . S
C1058 O1062 1.260 . S
O1059 In1053 2.266 . S
O1059 C1056 1.252 . S
O1060 In1053 2.326 . S
O1060 C1056 1.260 . S
O1061 In1053 2.266 . S
O1061 C1058 1.252 . S
O1062 In1053 2.326 . S
O1062 C1058 1.260 . S
C1063 O1054 1.240 . S
C1063 O1055 1.252 . S
O1064 In1053 2.294 . S
O1064 C1057 1.240 . S
O1065 In1053 2.326 . S
O1065 C1057 1.252 . S
In1066 O1067 2.294 . S
In1066 O1068 2.326 . S
In1066 O1072 2.266 . S
In1066 O1073 2.326 . S
In1066 O1074 2.266 . S
In1066 O1075 2.326 . S
In1066 O1077 2.294 . S
In1066 O1078 2.326 . S
O1067 In1066 2.294 . S
O1067 C1076 1.240 . S
O1068 In1066 2.326 . S
O1068 C1076 1.252 . S
C1069 O1072 1.252 . S
C1069 O1073 1.260 . S
C1070 O1077 1.240 . S
C1070 O1078 1.252 . S
C1071 O1074 1.252 . S
C1071 O1075 1.260 . S
O1072 In1066 2.266 . S
O1072 C1069 1.252 . S
O1073 In1066 2.326 . S
O1073 C1069 1.260 . S
O1074 In1066 2.266 . S
O1074 C1071 1.252 . S
O1075 In1066 2.326 . S
O1075 C1071 1.260 . S
C1076 O1067 1.240 . S
C1076 O1068 1.252 . S
O1077 In1066 2.294 . S
O1077 C1070 1.240 . S
O1078 In1066 2.326 . S
O1078 C1070 1.252 . S
In1079 O1080 2.294 . S
In1079 O1081 2.326 . S
In1079 O1085 2.266 . S
In1079 O1086 2.326 . S
In1079 O1087 2.266 . S
In1079 O1088 2.326 . S
In1079 O1090 2.294 . S
In1079 O1091 2.326 . S
O1080 In1079 2.294 . S
O1080 C1089 1.240 . S
O1081 In1079 2.326 . S
O1081 C1089 1.252 . S
C1082 O1085 1.252 . S
C1082 O1086 1.260 . S
C1083 O1090 1.240 . S
C1083 O1091 1.252 . S
C1084 O1087 1.252 . S
C1084 O1088 1.260 . S
O1085 In1079 2.266 . S
O1085 C1082 1.252 . S
O1086 In1079 2.326 . S
O1086 C1082 1.260 . S
O1087 In1079 2.266 . S
O1087 C1084 1.252 . S
O1088 In1079 2.326 . S
O1088 C1084 1.260 . S
C1089 O1080 1.240 . S
C1089 O1081 1.252 . S
O1090 In1079 2.294 . S
O1090 C1083 1.240 . S
O1091 In1079 2.326 . S
O1091 C1083 1.252 . S
In1092 O1093 2.294 . S
In1092 O1094 2.326 . S
In1092 O1098 2.266 . S
In1092 O1099 2.326 . S
In1092 O1100 2.266 . S
In1092 O1101 2.326 . S
In1092 O1103 2.294 . S
In1092 O1104 2.326 . S
O1093 In1092 2.294 . S
O1093 C1102 1.240 . S
O1094 In1092 2.326 . S
O1094 C1102 1.252 . S
C1095 O1098 1.252 . S
C1095 O1099 1.260 . S
C1096 O1103 1.240 . S
C1096 O1104 1.252 . S
C1097 O1100 1.252 . S
C1097 O1101 1.260 . S
O1098 In1092 2.266 . S
O1098 C1095 1.252 . S
O1099 In1092 2.326 . S
O1099 C1095 1.260 . S
O1100 In1092 2.266 . S
O1100 C1097 1.252 . S
O1101 In1092 2.326 . S
O1101 C1097 1.260 . S
C1102 O1093 1.240 . S
C1102 O1094 1.252 . S
O1103 In1092 2.294 . S
O1103 C1096 1.240 . S
O1104 In1092 2.326 . S
O1104 C1096 1.252 . S
In1105 O1106 2.294 . S
In1105 O1107 2.326 . S
In1105 O1111 2.266 . S
In1105 O1112 2.326 . S
In1105 O1113 2.266 . S
In1105 O1114 2.326 . S
In1105 O1116 2.294 . S
In1105 O1117 2.326 . S
O1106 In1105 2.294 . S
O1106 C1115 1.240 . S
O1107 In1105 2.326 . S
O1107 C1115 1.252 . S
C1108 O1111 1.252 . S
C1108 O1112 1.260 . S
C1109 O1116 1.240 . S
C1109 O1117 1.252 . S
C1110 O1113 1.252 . S
C1110 O1114 1.260 . S
O1111 In1105 2.266 . S
O1111 C1108 1.252 . S
O1112 In1105 2.326 . S
O1112 C1108 1.260 . S
O1113 In1105 2.266 . S
O1113 C1110 1.252 . S
O1114 In1105 2.326 . S
O1114 C1110 1.260 . S
C1115 O1106 1.240 . S
C1115 O1107 1.252 . S
O1116 In1105 2.294 . S
O1116 C1109 1.240 . S
O1117 In1105 2.326 . S
O1117 C1109 1.252 . S
In1118 O1119 2.294 . S
In1118 O1120 2.326 . S
In1118 O1124 2.266 . S
In1118 O1125 2.326 . S
In1118 O1126 2.266 . S
In1118 O1127 2.326 . S
In1118 O1129 2.294 . S
In1118 O1130 2.326 . S
O1119 In1118 2.294 . S
O1119 C1128 1.240 . S
O1120 In1118 2.326 . S
O1120 C1128 1.252 . S
C1121 O1124 1.252 . S
C1121 O1125 1.260 . S
C1122 O1129 1.240 . S
C1122 O1130 1.252 . S
C1123 O1126 1.252 . S
C1123 O1127 1.260 . S
O1124 In1118 2.266 . S
O1124 C1121 1.252 . S
O1125 In1118 2.326 . S
O1125 C1121 1.260 . S
O1126 In1118 2.266 . S
O1126 C1123 1.252 . S
O1127 In1118 2.326 . S
O1127 C1123 1.260 . S
C1128 O1119 1.240 . S
C1128 O1120 1.252 . S
O1129 In1118 2.294 . S
O1129 C1122 1.240 . S
O1130 In1118 2.326 . S
O1130 C1122 1.252 . S
In1131 O1132 2.294 . S
In1131 O1133 2.326 . S
In1131 O1137 2.266 . S
In1131 O1138 2.326 . S
In1131 O1139 2.266 . S
In1131 O1140 2.326 . S
In1131 O1142 2.294 . S
In1131 O1143 2.326 . S
O1132 In1131 2.294 . S
O1132 C1141 1.240 . S
O1133 In1131 2.326 . S
O1133 C1141 1.252 . S
C1134 O1137 1.252 . S
C1134 O1138 1.260 . S
C1135 O1142 1.240 . S
C1135 O1143 1.252 . S
C1136 O1139 1.252 . S
C1136 O1140 1.260 . S
O1137 In1131 2.266 . S
O1137 C1134 1.252 . S
O1138 In1131 2.326 . S
O1138 C1134 1.260 . S
O1139 In1131 2.266 . S
O1139 C1136 1.252 . S
O1140 In1131 2.326 . S
O1140 C1136 1.260 . S
C1141 O1132 1.240 . S
C1141 O1133 1.252 . S
O1142 In1131 2.294 . S
O1142 C1135 1.240 . S
O1143 In1131 2.326 . S
O1143 C1135 1.252 . S
In1144 O1145 2.294 . S
In1144 O1146 2.326 . S
In1144 O1150 2.266 . S
In1144 O1151 2.326 . S
In1144 O1152 2.266 . S
In1144 O1153 2.326 . S
In1144 O1155 2.294 . S
In1144 O1156 2.326 . S
O1145 In1144 2.294 . S
O1145 C1154 1.240 . S
O1146 In1144 2.326 . S
O1146 C1154 1.252 . S
C1147 O1150 1.252 . S
C1147 O1151 1.260 . S
C1148 O1155 1.240 . S
C1148 O1156 1.252 . S
C1149 O1152 1.252 . S
C1149 O1153 1.260 . S
O1150 In1144 2.266 . S
O1150 C1147 1.252 . S
O1151 In1144 2.326 . S
O1151 C1147 1.260 . S
O1152 In1144 2.266 . S
O1152 C1149 1.252 . S
O1153 In1144 2.326 . S
O1153 C1149 1.260 . S
C1154 O1145 1.240 . S
C1154 O1146 1.252 . S
O1155 In1144 2.294 . S
O1155 C1148 1.240 . S
O1156 In1144 2.326 . S
O1156 C1148 1.252 . S
In1157 O1158 2.294 . S
In1157 O1159 2.326 . S
In1157 O1163 2.266 . S
In1157 O1164 2.326 . S
In1157 O1165 2.266 . S
In1157 O1166 2.326 . S
In1157 O1168 2.294 . S
In1157 O1169 2.326 . S
O1158 In1157 2.294 . S
O1158 C1167 1.240 . S
O1159 In1157 2.326 . S
O1159 C1167 1.252 . S
C1160 O1163 1.252 . S
C1160 O1164 1.260 . S
C1161 O1168 1.240 . S
C1161 O1169 1.252 . S
C1162 O1165 1.252 . S
C1162 O1166 1.260 . S
O1163 In1157 2.266 . S
O1163 C1160 1.252 . S
O1164 In1157 2.326 . S
O1164 C1160 1.260 . S
O1165 In1157 2.266 . S
O1165 C1162 1.252 . S
O1166 In1157 2.326 . S
O1166 C1162 1.260 . S
C1167 O1158 1.240 . S
C1167 O1159 1.252 . S
O1168 In1157 2.294 . S
O1168 C1161 1.240 . S
O1169 In1157 2.326 . S
O1169 C1161 1.252 . S
In1170 O1171 2.294 . S
In1170 O1172 2.326 . S
In1170 O1176 2.266 . S
In1170 O1177 2.326 . S
In1170 O1178 2.266 . S
In1170 O1179 2.326 . S
In1170 O1181 2.294 . S
In1170 O1182 2.326 . S
O1171 In1170 2.294 . S
O1171 C1180 1.240 . S
O1172 In1170 2.326 . S
O1172 C1180 1.252 . S
C1173 O1176 1.252 . S
C1173 O1177 1.260 . S
C1174 O1181 1.240 . S
C1174 O1182 1.252 . S
C1175 O1178 1.252 . S
C1175 O1179 1.260 . S
O1176 In1170 2.266 . S
O1176 C1173 1.252 . S
O1177 In1170 2.326 . S
O1177 C1173 1.260 . S
O1178 In1170 2.266 . S
O1178 C1175 1.252 . S
O1179 In1170 2.326 . S
O1179 C1175 1.260 . S
C1180 O1171 1.240 . S
C1180 O1172 1.252 . S
O1181 In1170 2.294 . S
O1181 C1174 1.240 . S
O1182 In1170 2.326 . S
O1182 C1174 1.252 . S
In1183 O1184 2.294 . S
In1183 O1185 2.326 . S
In1183 O1189 2.266 . S
In1183 O1190 2.326 1_554 S
In1183 O1191 2.266 1_554 S
In1183 O1192 2.326 1_554 S
In1183 O1194 2.294 . S
In1183 O1195 2.326 . S
O1184 In1183 2.294 . S
O1184 C1193 1.240 . S
O1185 In1183 2.326 . S
O1185 C1193 1.252 . S
C1186 O1189 1.252 1_556 S
C1186 O1190 1.260 . S
C1187 O1194 1.240 . S
C1187 O1195 1.252 . S
C1188 O1191 1.252 . S
C1188 O1192 1.260 . S
O1189 In1183 2.266 . S
O1189 C1186 1.252 1_554 S
O1190 In1183 2.326 1_556 S
O1190 C1186 1.260 . S
O1191 In1183 2.266 1_556 S
O1191 C1188 1.252 . S
O1192 In1183 2.326 1_556 S
O1192 C1188 1.260 . S
C1193 O1184 1.240 . S
C1193 O1185 1.252 . S
O1194 In1183 2.294 . S
O1194 C1187 1.240 . S
O1195 In1183 2.326 . S
O1195 C1187 1.252 . S
In1196 O1197 2.294 . S
In1196 O1198 2.326 . S
In1196 O1202 2.266 . S
In1196 O1203 2.326 . S
In1196 O1204 2.266 . S
In1196 O1205 2.326 . S
In1196 O1207 2.294 . S
In1196 O1208 2.326 . S
O1197 In1196 2.294 . S
O1197 C1206 1.240 . S
O1198 In1196 2.326 . S
O1198 C1206 1.252 . S
C1199 O1202 1.252 . S
C1199 O1203 1.260 . S
C1200 O1207 1.240 . S
C1200 O1208 1.252 . S
C1201 O1204 1.252 . S
C1201 O1205 1.260 . S
O1202 In1196 2.266 . S
O1202 C1199 1.252 . S
O1203 In1196 2.326 . S
O1203 C1199 1.260 . S
O1204 In1196 2.266 . S
O1204 C1201 1.252 . S
O1205 In1196 2.326 . S
O1205 C1201 1.260 . S
C1206 O1197 1.240 . S
C1206 O1198 1.252 . S
O1207 In1196 2.294 . S
O1207 C1200 1.240 . S
O1208 In1196 2.326 . S
O1208 C1200 1.252 . S
In1209 O1210 2.294 . S
In1209 O1211 2.326 . S
In1209 O1215 2.266 . S
In1209 O1216 2.326 1_556 S
In1209 O1217 2.266 1_556 S
In1209 O1218 2.326 1_556 S
In1209 O1220 2.294 . S
In1209 O1221 2.326 . S
O1210 In1209 2.294 . S
O1210 C1219 1.240 . S
O1211 In1209 2.326 . S
O1211 C1219 1.252 . S
C1212 O1215 1.252 1_554 S
C1212 O1216 1.260 . S
C1213 O1220 1.240 . S
C1213 O1221 1.252 . S
C1214 O1217 1.252 . S
C1214 O1218 1.260 . S
O1215 In1209 2.266 . S
O1215 C1212 1.252 1_556 S
O1216 In1209 2.326 1_554 S
O1216 C1212 1.260 . S
O1217 In1209 2.266 1_554 S
O1217 C1214 1.252 . S
O1218 In1209 2.326 1_554 S
O1218 C1214 1.260 . S
C1219 O1210 1.240 . S
C1219 O1211 1.252 . S
O1220 In1209 2.294 . S
O1220 C1213 1.240 . S
O1221 In1209 2.326 . S
O1221 C1213 1.252 . S
In1222 O1223 2.294 . S
In1222 O1224 2.326 . S
In1222 O1228 2.266 . S
In1222 O1229 2.326 . S
In1222 O1230 2.266 . S
In1222 O1231 2.326 . S
In1222 O1233 2.294 . S
In1222 O1234 2.326 . S
O1223 In1222 2.294 . S
O1223 C1232 1.240 . S
O1224 In1222 2.326 . S
O1224 C1232 1.252 . S
C1225 O1228 1.252 . S
C1225 O1229 1.260 . S
C1226 O1233 1.240 . S
C1226 O1234 1.252 . S
C1227 O1230 1.252 . S
C1227 O1231 1.260 . S
O1228 In1222 2.266 . S
O1228 C1225 1.252 . S
O1229 In1222 2.326 . S
O1229 C1225 1.260 . S
O1230 In1222 2.266 . S
O1230 C1227 1.252 . S
O1231 In1222 2.326 . S
O1231 C1227 1.260 . S
C1232 O1223 1.240 . S
C1232 O1224 1.252 . S
O1233 In1222 2.294 . S
O1233 C1226 1.240 . S
O1234 In1222 2.326 . S
O1234 C1226 1.252 . S
In1235 O1236 2.294 . S
In1235 O1237 2.326 . S
In1235 O1241 2.266 . S
In1235 O1242 2.326 . S
In1235 O1243 2.266 . S
In1235 O1244 2.326 . S
In1235 O1246 2.294 . S
In1235 O1247 2.326 . S
O1236 In1235 2.294 . S
O1236 C1245 1.240 . S
O1237 In1235 2.326 . S
O1237 C1245 1.252 . S
C1238 O1241 1.252 . S
C1238 O1242 1.260 . S
C1239 O1246 1.240 . S
C1239 O1247 1.252 . S
C1240 O1243 1.252 . S
C1240 O1244 1.260 . S
O1241 In1235 2.266 . S
O1241 C1238 1.252 . S
O1242 In1235 2.326 . S
O1242 C1238 1.260 . S
O1243 In1235 2.266 . S
O1243 C1240 1.252 . S
O1244 In1235 2.326 . S
O1244 C1240 1.260 . S
C1245 O1236 1.240 . S
C1245 O1237 1.252 . S
O1246 In1235 2.294 . S
O1246 C1239 1.240 . S
O1247 In1235 2.326 . S
O1247 C1239 1.252 . S
H1248 C1256 0.950 . S
H1249 C1261 0.950 . S
H1250 C1258 0.950 . S
H1251 C1260 0.950 . S
H1252 C1262 0.950 . S
H1253 C1264 0.950 . S
H1254 C1266 0.950 . S
H1255 C1267 0.950 . S
C1256 H1248 0.950 . S
C1256 C1257 1.386 . S
C1256 C1258 1.391 . S
C1257 C1256 1.386 . S
C1257 C1261 1.393 . S
C1258 H1250 0.950 . S
C1258 C1256 1.391 . S
C1258 C1259 1.400 . S
C1259 C1258 1.400 . S
C1259 C1260 1.398 . S
C1259 C1265 1.491 . S
C1260 H1251 0.950 . S
C1260 C1259 1.398 . S
C1260 C1261 1.391 . S
C1261 H1249 0.950 . S
C1261 C1257 1.393 . S
C1261 C1260 1.391 . S
C1262 H1252 0.950 . S
C1262 C1263 1.386 . S
C1262 C1264 1.391 . S
C1263 C1262 1.386 . S
C1263 C1267 1.393 . S
C1264 H1253 0.950 . S
C1264 C1262 1.391 . S
C1264 C1265 1.400 . S
C1265 C1259 1.491 . S
C1265 C1264 1.400 . S
C1265 C1266 1.398 . S
C1266 H1254 0.950 . S
C1266 C1265 1.398 . S
C1266 C1267 1.391 . S
C1267 H1255 0.950 . S
C1267 C1263 1.393 . S
C1267 C1266 1.391 . S
H1268 C1276 0.950 . S
H1269 C1281 0.950 . S
H1270 C1278 0.950 . S
H1271 C1280 0.950 . S
H1272 C1282 0.950 . S
H1273 C1284 0.950 . S
H1274 C1286 0.950 . S
H1275 C1287 0.950 . S
C1276 H1268 0.950 . S
C1276 C1277 1.386 . S
C1276 C1278 1.391 . S
C1277 C1276 1.386 . S
C1277 C1281 1.393 . S
C1278 H1270 0.950 . S
C1278 C1276 1.391 . S
C1278 C1279 1.400 . S
C1279 C1278 1.400 . S
C1279 C1280 1.398 . S
C1279 C1285 1.491 . S
C1280 H1271 0.950 . S
C1280 C1279 1.398 . S
C1280 C1281 1.391 . S
C1281 H1269 0.950 . S
C1281 C1277 1.393 . S
C1281 C1280 1.391 . S
C1282 H1272 0.950 . S
C1282 C1283 1.386 . S
C1282 C1284 1.391 . S
C1283 C1282 1.386 . S
C1283 C1287 1.393 . S
C1284 H1273 0.950 . S
C1284 C1282 1.391 . S
C1284 C1285 1.400 . S
C1285 C1279 1.491 . S
C1285 C1284 1.400 . S
C1285 C1286 1.398 . S
C1286 H1274 0.950 . S
C1286 C1285 1.398 . S
C1286 C1287 1.391 . S
C1287 H1275 0.950 . S
C1287 C1283 1.393 . S
C1287 C1286 1.391 . S
H1288 C1296 0.950 . S
H1289 C1301 0.950 . S
H1290 C1298 0.950 . S
H1291 C1300 0.950 . S
H1292 C1302 0.950 . S
H1293 C1304 0.950 . S
H1294 C1306 0.950 . S
H1295 C1307 0.950 . S
C1296 H1288 0.950 . S
C1296 C1297 1.386 . S
C1296 C1298 1.391 . S
C1297 C1296 1.386 . S
C1297 C1301 1.393 . S
C1298 H1290 0.950 . S
C1298 C1296 1.391 . S
C1298 C1299 1.400 . S
C1299 C1298 1.400 . S
C1299 C1300 1.398 . S
C1299 C1305 1.491 . S
C1300 H1291 0.950 . S
C1300 C1299 1.398 . S
C1300 C1301 1.391 . S
C1301 H1289 0.950 . S
C1301 C1297 1.393 . S
C1301 C1300 1.391 . S
C1302 H1292 0.950 . S
C1302 C1303 1.386 . S
C1302 C1304 1.391 . S
C1303 C1302 1.386 . S
C1303 C1307 1.393 . S
C1304 H1293 0.950 . S
C1304 C1302 1.391 . S
C1304 C1305 1.400 . S
C1305 C1299 1.491 . S
C1305 C1304 1.400 . S
C1305 C1306 1.398 . S
C1306 H1294 0.950 . S
C1306 C1305 1.398 . S
C1306 C1307 1.391 . S
C1307 H1295 0.950 . S
C1307 C1303 1.393 . S
C1307 C1306 1.391 . S
H1308 C1316 0.950 . S
H1309 C1321 0.950 . S
H1310 C1318 0.950 . S
H1311 C1320 0.950 . S
H1312 C1322 0.950 . S
H1313 C1324 0.950 . S
H1314 C1326 0.950 . S
H1315 C1327 0.950 . S
C1316 H1308 0.950 . S
C1316 C1317 1.386 . S
C1316 C1318 1.391 . S
C1317 C1316 1.386 . S
C1317 C1321 1.393 . S
C1318 H1310 0.950 . S
C1318 C1316 1.391 . S
C1318 C1319 1.400 . S
C1319 C1318 1.400 . S
C1319 C1320 1.398 . S
C1319 C1325 1.491 . S
C1320 H1311 0.950 . S
C1320 C1319 1.398 . S
C1320 C1321 1.391 . S
C1321 H1309 0.950 . S
C1321 C1317 1.393 . S
C1321 C1320 1.391 . S
C1322 H1312 0.950 . S
C1322 C1323 1.386 . S
C1322 C1324 1.391 . S
C1323 C1322 1.386 . S
C1323 C1327 1.393 . S
C1324 H1313 0.950 . S
C1324 C1322 1.391 . S
C1324 C1325 1.400 . S
C1325 C1319 1.491 . S
C1325 C1324 1.400 . S
C1325 C1326 1.398 . S
C1326 H1314 0.950 . S
C1326 C1325 1.398 . S
C1326 C1327 1.391 . S
C1327 H1315 0.950 . S
C1327 C1323 1.393 . S
C1327 C1326 1.391 . S
H1328 C1336 0.950 . S
H1329 C1341 0.950 . S
H1330 C1338 0.950 . S
H1331 C1340 0.950 . S
H1332 C1342 0.950 . S
H1333 C1344 0.950 . S
H1334 C1346 0.950 . S
H1335 C1347 0.950 . S
C1336 H1328 0.950 . S
C1336 C1337 1.386 . S
C1336 C1338 1.391 . S
C1337 C1336 1.386 . S
C1337 C1341 1.393 . S
C1338 H1330 0.950 . S
C1338 C1336 1.391 . S
C1338 C1339 1.400 . S
C1339 C1338 1.400 . S
C1339 C1340 1.398 . S
C1339 C1345 1.491 . S
C1340 H1331 0.950 . S
C1340 C1339 1.398 . S
C1340 C1341 1.391 . S
C1341 H1329 0.950 . S
C1341 C1337 1.393 . S
C1341 C1340 1.391 . S
C1342 H1332 0.950 . S
C1342 C1343 1.386 . S
C1342 C1344 1.391 . S
C1343 C1342 1.386 . S
C1343 C1347 1.393 . S
C1344 H1333 0.950 . S
C1344 C1342 1.391 . S
C1344 C1345 1.400 . S
C1345 C1339 1.491 . S
C1345 C1344 1.400 . S
C1345 C1346 1.398 . S
C1346 H1334 0.950 . S
C1346 C1345 1.398 . S
C1346 C1347 1.391 . S
C1347 H1335 0.950 . S
C1347 C1343 1.393 . S
C1347 C1346 1.391 . S
H1348 C1356 0.950 . S
H1349 C1361 0.950 . S
H1350 C1358 0.950 . S
H1351 C1360 0.950 . S
H1352 C1362 0.950 . S
H1353 C1364 0.950 . S
H1354 C1366 0.950 . S
H1355 C1367 0.950 . S
C1356 H1348 0.950 . S
C1356 C1357 1.386 . S
C1356 C1358 1.391 . S
C1357 C1356 1.386 . S
C1357 C1361 1.393 . S
C1358 H1350 0.950 . S
C1358 C1356 1.391 . S
C1358 C1359 1.400 . S
C1359 C1358 1.400 . S
C1359 C1360 1.398 . S
C1359 C1365 1.491 . S
C1360 H1351 0.950 . S
C1360 C1359 1.398 . S
C1360 C1361 1.391 . S
C1361 H1349 0.950 . S
C1361 C1357 1.393 . S
C1361 C1360 1.391 . S
C1362 H1352 0.950 . S
C1362 C1363 1.386 . S
C1362 C1364 1.391 . S
C1363 C1362 1.386 . S
C1363 C1367 1.393 . S
C1364 H1353 0.950 . S
C1364 C1362 1.391 . S
C1364 C1365 1.400 . S
C1365 C1359 1.491 . S
C1365 C1364 1.400 . S
C1365 C1366 1.398 . S
C1366 H1354 0.950 . S
C1366 C1365 1.398 . S
C1366 C1367 1.391 . S
C1367 H1355 0.950 . S
C1367 C1363 1.393 . S
C1367 C1366 1.391 . S
H1368 C1376 0.950 . S
H1369 C1381 0.950 . S
H1370 C1378 0.950 . S
H1371 C1380 0.950 . S
H1372 C1382 0.950 . S
H1373 C1384 0.950 . S
H1374 C1386 0.950 . S
H1375 C1387 0.950 . S
C1376 H1368 0.950 . S
C1376 C1377 1.386 . S
C1376 C1378 1.391 . S
C1377 C1376 1.386 . S
C1377 C1381 1.393 . S
C1378 H1370 0.950 . S
C1378 C1376 1.391 . S
C1378 C1379 1.400 . S
C1379 C1378 1.400 . S
C1379 C1380 1.398 . S
C1379 C1385 1.491 . S
C1380 H1371 0.950 . S
C1380 C1379 1.398 . S
C1380 C1381 1.391 . S
C1381 H1369 0.950 . S
C1381 C1377 1.393 . S
C1381 C1380 1.391 . S
C1382 H1372 0.950 . S
C1382 C1383 1.386 . S
C1382 C1384 1.391 . S
C1383 C1382 1.386 . S
C1383 C1387 1.393 . S
C1384 H1373 0.950 . S
C1384 C1382 1.391 . S
C1384 C1385 1.400 . S
C1385 C1379 1.491 . S
C1385 C1384 1.400 . S
C1385 C1386 1.398 . S
C1386 H1374 0.950 . S
C1386 C1385 1.398 . S
C1386 C1387 1.391 . S
C1387 H1375 0.950 . S
C1387 C1383 1.393 . S
C1387 C1386 1.391 . S
H1388 C1396 0.950 . S
H1389 C1401 0.950 . S
H1390 C1398 0.950 . S
H1391 C1400 0.950 . S
H1392 C1402 0.950 . S
H1393 C1404 0.950 . S
H1394 C1406 0.950 . S
H1395 C1407 0.950 . S
C1396 H1388 0.950 . S
C1396 C1397 1.386 . S
C1396 C1398 1.391 . S
C1397 C1396 1.386 . S
C1397 C1401 1.393 . S
C1398 H1390 0.950 . S
C1398 C1396 1.391 . S
C1398 C1399 1.400 . S
C1399 C1398 1.400 . S
C1399 C1400 1.398 . S
C1399 C1405 1.491 . S
C1400 H1391 0.950 . S
C1400 C1399 1.398 . S
C1400 C1401 1.391 . S
C1401 H1389 0.950 . S
C1401 C1397 1.393 . S
C1401 C1400 1.391 . S
C1402 H1392 0.950 . S
C1402 C1403 1.386 . S
C1402 C1404 1.391 . S
C1403 C1402 1.386 . S
C1403 C1407 1.393 . S
C1404 H1393 0.950 . S
C1404 C1402 1.391 . S
C1404 C1405 1.400 . S
C1405 C1399 1.491 . S
C1405 C1404 1.400 . S
C1405 C1406 1.398 . S
C1406 H1394 0.950 . S
C1406 C1405 1.398 . S
C1406 C1407 1.391 . S
C1407 H1395 0.950 . S
C1407 C1403 1.393 . S
C1407 C1406 1.391 . S
H1408 C1416 0.950 . S
H1409 C1421 0.950 . S
H1410 C1418 0.950 . S
H1411 C1420 0.950 . S
H1412 C1422 0.950 . S
H1413 C1424 0.950 . S
H1414 C1426 0.950 . S
H1415 C1427 0.950 . S
C1416 H1408 0.950 . S
C1416 C1417 1.386 . S
C1416 C1418 1.391 . S
C1417 C1416 1.386 . S
C1417 C1421 1.393 . S
C1418 H1410 0.950 . S
C1418 C1416 1.391 . S
C1418 C1419 1.400 . S
C1419 C1418 1.400 . S
C1419 C1420 1.398 . S
C1419 C1425 1.491 . S
C1420 H1411 0.950 . S
C1420 C1419 1.398 . S
C1420 C1421 1.391 . S
C1421 H1409 0.950 . S
C1421 C1417 1.393 . S
C1421 C1420 1.391 . S
C1422 H1412 0.950 . S
C1422 C1423 1.386 . S
C1422 C1424 1.391 . S
C1423 C1422 1.386 . S
C1423 C1427 1.393 . S
C1424 H1413 0.950 . S
C1424 C1422 1.391 . S
C1424 C1425 1.400 . S
C1425 C1419 1.491 . S
C1425 C1424 1.400 . S
C1425 C1426 1.398 . S
C1426 H1414 0.950 . S
C1426 C1425 1.398 . S
C1426 C1427 1.391 . S
C1427 H1415 0.950 . S
C1427 C1423 1.393 . S
C1427 C1426 1.391 . S
H1428 C1436 0.950 . S
H1429 C1441 0.950 . S
H1430 C1438 0.950 . S
H1431 C1440 0.950 . S
H1432 C1442 0.950 . S
H1433 C1444 0.950 . S
H1434 C1446 0.950 . S
H1435 C1447 0.950 . S
C1436 H1428 0.950 . S
C1436 C1437 1.386 . S
C1436 C1438 1.391 . S
C1437 C1436 1.386 . S
C1437 C1441 1.393 . S
C1438 H1430 0.950 . S
C1438 C1436 1.391 . S
C1438 C1439 1.400 . S
C1439 C1438 1.400 . S
C1439 C1440 1.398 . S
C1439 C1445 1.491 . S
C1440 H1431 0.950 . S
C1440 C1439 1.398 . S
C1440 C1441 1.391 . S
C1441 H1429 0.950 . S
C1441 C1437 1.393 . S
C1441 C1440 1.391 . S
C1442 H1432 0.950 . S
C1442 C1443 1.386 . S
C1442 C1444 1.391 . S
C1443 C1442 1.386 . S
C1443 C1447 1.393 . S
C1444 H1433 0.950 . S
C1444 C1442 1.391 . S
C1444 C1445 1.400 . S
C1445 C1439 1.491 . S
C1445 C1444 1.400 . S
C1445 C1446 1.398 . S
C1446 H1434 0.950 . S
C1446 C1445 1.398 . S
C1446 C1447 1.391 . S
C1447 H1435 0.950 . S
C1447 C1443 1.393 . S
C1447 C1446 1.391 . S
H1448 C1456 0.950 . S
H1449 C1461 0.950 . S
H1450 C1458 0.950 . S
H1451 C1460 0.950 . S
H1452 C1462 0.950 . S
H1453 C1464 0.950 . S
H1454 C1466 0.950 . S
H1455 C1467 0.950 . S
C1456 H1448 0.950 . S
C1456 C1457 1.386 . S
C1456 C1458 1.391 . S
C1457 C1456 1.386 . S
C1457 C1461 1.393 . S
C1458 H1450 0.950 . S
C1458 C1456 1.391 . S
C1458 C1459 1.400 . S
C1459 C1458 1.400 . S
C1459 C1460 1.398 . S
C1459 C1465 1.491 . S
C1460 H1451 0.950 . S
C1460 C1459 1.398 . S
C1460 C1461 1.391 . S
C1461 H1449 0.950 . S
C1461 C1457 1.393 . S
C1461 C1460 1.391 . S
C1462 H1452 0.950 . S
C1462 C1463 1.386 . S
C1462 C1464 1.391 . S
C1463 C1462 1.386 . S
C1463 C1467 1.393 . S
C1464 H1453 0.950 . S
C1464 C1462 1.391 . S
C1464 C1465 1.400 . S
C1465 C1459 1.491 . S
C1465 C1464 1.400 . S
C1465 C1466 1.398 . S
C1466 H1454 0.950 . S
C1466 C1465 1.398 . S
C1466 C1467 1.391 . S
C1467 H1455 0.950 . S
C1467 C1463 1.393 . S
C1467 C1466 1.391 . S
H1468 C1476 0.950 . S
H1469 C1481 0.950 . S
H1470 C1478 0.950 . S
H1471 C1480 0.950 . S
H1472 C1482 0.950 . S
H1473 C1484 0.950 . S
H1474 C1486 0.950 . S
H1475 C1487 0.950 . S
C1476 H1468 0.950 . S
C1476 C1477 1.386 . S
C1476 C1478 1.391 . S
C1477 C1476 1.386 . S
C1477 C1481 1.393 . S
C1478 H1470 0.950 . S
C1478 C1476 1.391 . S
C1478 C1479 1.400 . S
C1479 C1478 1.400 . S
C1479 C1480 1.398 . S
C1479 C1485 1.491 . S
C1480 H1471 0.950 . S
C1480 C1479 1.398 . S
C1480 C1481 1.391 . S
C1481 H1469 0.950 . S
C1481 C1477 1.393 . S
C1481 C1480 1.391 . S
C1482 H1472 0.950 . S
C1482 C1483 1.386 . S
C1482 C1484 1.391 . S
C1483 C1482 1.386 . S
C1483 C1487 1.393 . S
C1484 H1473 0.950 . S
C1484 C1482 1.391 . S
C1484 C1485 1.400 . S
C1485 C1479 1.491 . S
C1485 C1484 1.400 . S
C1485 C1486 1.398 . S
C1486 H1474 0.950 . S
C1486 C1485 1.398 . S
C1486 C1487 1.391 . S
C1487 H1475 0.950 . S
C1487 C1483 1.393 . S
C1487 C1486 1.391 . S
H1488 C1496 0.950 . S
H1489 C1501 0.950 . S
H1490 C1498 0.950 . S
H1491 C1500 0.950 . S
H1492 C1502 0.950 . S
H1493 C1504 0.950 . S
H1494 C1506 0.950 . S
H1495 C1507 0.950 . S
C1496 H1488 0.950 . S
C1496 C1497 1.386 . S
C1496 C1498 1.391 . S
C1497 C1496 1.386 . S
C1497 C1501 1.393 . S
C1498 H1490 0.950 . S
C1498 C1496 1.391 . S
C1498 C1499 1.400 . S
C1499 C1498 1.400 . S
C1499 C1500 1.398 . S
C1499 C1505 1.491 . S
C1500 H1491 0.950 . S
C1500 C1499 1.398 . S
C1500 C1501 1.391 . S
C1501 H1489 0.950 . S
C1501 C1497 1.393 . S
C1501 C1500 1.391 . S
C1502 H1492 0.950 . S
C1502 C1503 1.386 . S
C1502 C1504 1.391 . S
C1503 C1502 1.386 . S
C1503 C1507 1.393 . S
C1504 H1493 0.950 . S
C1504 C1502 1.391 . S
C1504 C1505 1.400 . S
C1505 C1499 1.491 . S
C1505 C1504 1.400 . S
C1505 C1506 1.398 . S
C1506 H1494 0.950 . S
C1506 C1505 1.398 . S
C1506 C1507 1.391 . S
C1507 H1495 0.950 . S
C1507 C1503 1.393 . S
C1507 C1506 1.391 . S
H1508 C1516 0.950 . S
H1509 C1521 0.950 . S
H1510 C1518 0.950 . S
H1511 C1520 0.950 . S
H1512 C1522 0.950 . S
H1513 C1524 0.950 . S
H1514 C1526 0.950 . S
H1515 C1527 0.950 . S
C1516 H1508 0.950 . S
C1516 C1517 1.386 . S
C1516 C1518 1.391 . S
C1517 C1516 1.386 . S
C1517 C1521 1.393 . S
C1518 H1510 0.950 . S
C1518 C1516 1.391 . S
C1518 C1519 1.400 . S
C1519 C1518 1.400 . S
C1519 C1520 1.398 . S
C1519 C1525 1.491 . S
C1520 H1511 0.950 . S
C1520 C1519 1.398 . S
C1520 C1521 1.391 . S
C1521 H1509 0.950 . S
C1521 C1517 1.393 . S
C1521 C1520 1.391 . S
C1522 H1512 0.950 . S
C1522 C1523 1.386 . S
C1522 C1524 1.391 . S
C1523 C1522 1.386 . S
C1523 C1527 1.393 . S
C1524 H1513 0.950 . S
C1524 C1522 1.391 . S
C1524 C1525 1.400 . S
C1525 C1519 1.491 . S
C1525 C1524 1.400 . S
C1525 C1526 1.398 . S
C1526 H1514 0.950 . S
C1526 C1525 1.398 . S
C1526 C1527 1.391 . S
C1527 H1515 0.950 . S
C1527 C1523 1.393 . S
C1527 C1526 1.391 . S
H1528 C1536 0.950 . S
H1529 C1541 0.950 . S
H1530 C1538 0.950 . S
H1531 C1540 0.950 . S
H1532 C1542 0.950 . S
H1533 C1544 0.950 . S
H1534 C1546 0.950 . S
H1535 C1547 0.950 . S
C1536 H1528 0.950 . S
C1536 C1537 1.386 . S
C1536 C1538 1.391 . S
C1537 C1536 1.386 . S
C1537 C1541 1.393 . S
C1538 H1530 0.950 . S
C1538 C1536 1.391 . S
C1538 C1539 1.400 . S
C1539 C1538 1.400 . S
C1539 C1540 1.398 . S
C1539 C1545 1.491 . S
C1540 H1531 0.950 . S
C1540 C1539 1.398 . S
C1540 C1541 1.391 . S
C1541 H1529 0.950 . S
C1541 C1537 1.393 . S
C1541 C1540 1.391 . S
C1542 H1532 0.950 . S
C1542 C1543 1.386 . S
C1542 C1544 1.391 . S
C1543 C1542 1.386 . S
C1543 C1547 1.393 . S
C1544 H1533 0.950 . S
C1544 C1542 1.391 . S
C1544 C1545 1.400 . S
C1545 C1539 1.491 . S
C1545 C1544 1.400 . S
C1545 C1546 1.398 . S
C1546 H1534 0.950 . S
C1546 C1545 1.398 . S
C1546 C1547 1.391 . S
C1547 H1535 0.950 . S
C1547 C1543 1.393 . S
C1547 C1546 1.391 . S
H1548 C1556 0.950 . S
H1549 C1561 0.950 . S
H1550 C1558 0.950 . S
H1551 C1560 0.950 . S
H1552 C1562 0.950 . S
H1553 C1564 0.950 . S
H1554 C1566 0.950 . S
H1555 C1567 0.950 . S
C1556 H1548 0.950 . S
C1556 C1557 1.386 . S
C1556 C1558 1.391 . S
C1557 C1556 1.386 . S
C1557 C1561 1.393 . S
C1558 H1550 0.950 . S
C1558 C1556 1.391 . S
C1558 C1559 1.400 . S
C1559 C1558 1.400 . S
C1559 C1560 1.398 . S
C1559 C1565 1.491 . S
C1560 H1551 0.950 . S
C1560 C1559 1.398 . S
C1560 C1561 1.391 . S
C1561 H1549 0.950 . S
C1561 C1557 1.393 . S
C1561 C1560 1.391 . S
C1562 H1552 0.950 . S
C1562 C1563 1.386 . S
C1562 C1564 1.391 . S
C1563 C1562 1.386 . S
C1563 C1567 1.393 . S
C1564 H1553 0.950 . S
C1564 C1562 1.391 . S
C1564 C1565 1.400 . S
C1565 C1559 1.491 . S
C1565 C1564 1.400 . S
C1565 C1566 1.398 . S
C1566 H1554 0.950 . S
C1566 C1565 1.398 . S
C1566 C1567 1.391 . S
C1567 H1555 0.950 . S
C1567 C1563 1.393 . S
C1567 C1566 1.391 . S
H1568 C1576 0.950 . S
H1569 C1581 0.950 . S
H1570 C1578 0.950 . S
H1571 C1580 0.950 . S
H1572 C1582 0.950 . S
H1573 C1584 0.950 . S
H1574 C1586 0.950 . S
H1575 C1587 0.950 . S
C1576 H1568 0.950 . S
C1576 C1577 1.386 . S
C1576 C1578 1.391 . S
C1577 C1576 1.386 . S
C1577 C1581 1.393 . S
C1578 H1570 0.950 . S
C1578 C1576 1.391 . S
C1578 C1579 1.400 . S
C1579 C1578 1.400 . S
C1579 C1580 1.398 . S
C1579 C1585 1.491 . S
C1580 H1571 0.950 . S
C1580 C1579 1.398 . S
C1580 C1581 1.391 . S
C1581 H1569 0.950 . S
C1581 C1577 1.393 . S
C1581 C1580 1.391 . S
C1582 H1572 0.950 . S
C1582 C1583 1.386 . S
C1582 C1584 1.391 . S
C1583 C1582 1.386 . S
C1583 C1587 1.393 . S
C1584 H1573 0.950 . S
C1584 C1582 1.391 . S
C1584 C1585 1.400 . S
C1585 C1579 1.491 . S
C1585 C1584 1.400 . S
C1585 C1586 1.398 . S
C1586 H1574 0.950 . S
C1586 C1585 1.398 . S
C1586 C1587 1.391 . S
C1587 H1575 0.950 . S
C1587 C1583 1.393 . S
C1587 C1586 1.391 . S
H1588 C1596 0.950 . S
H1589 C1601 0.950 . S
H1590 C1598 0.950 . S
H1591 C1600 0.950 . S
H1592 C1602 0.950 . S
H1593 C1604 0.950 . S
H1594 C1606 0.950 . S
H1595 C1607 0.950 . S
C1596 H1588 0.950 . S
C1596 C1597 1.386 . S
C1596 C1598 1.391 . S
C1597 C1596 1.386 . S
C1597 C1601 1.393 . S
C1598 H1590 0.950 . S
C1598 C1596 1.391 . S
C1598 C1599 1.400 . S
C1599 C1598 1.400 . S
C1599 C1600 1.398 . S
C1599 C1605 1.491 . S
C1600 H1591 0.950 . S
C1600 C1599 1.398 . S
C1600 C1601 1.391 . S
C1601 H1589 0.950 . S
C1601 C1597 1.393 . S
C1601 C1600 1.391 . S
C1602 H1592 0.950 . S
C1602 C1603 1.386 . S
C1602 C1604 1.391 . S
C1603 C1602 1.386 . S
C1603 C1607 1.393 . S
C1604 H1593 0.950 . S
C1604 C1602 1.391 . S
C1604 C1605 1.400 . S
C1605 C1599 1.491 . S
C1605 C1604 1.400 . S
C1605 C1606 1.398 . S
C1606 H1594 0.950 . S
C1606 C1605 1.398 . S
C1606 C1607 1.391 . S
C1607 H1595 0.950 . S
C1607 C1603 1.393 . S
C1607 C1606 1.391 . S
H1608 C1616 0.950 . S
H1609 C1621 0.950 . S
H1610 C1618 0.950 . S
H1611 C1620 0.950 . S
H1612 C1622 0.950 . S
H1613 C1624 0.950 . S
H1614 C1626 0.950 . S
H1615 C1627 0.950 . S
C1616 H1608 0.950 . S
C1616 C1617 1.386 . S
C1616 C1618 1.391 . S
C1617 C1616 1.386 . S
C1617 C1621 1.393 . S
C1618 H1610 0.950 . S
C1618 C1616 1.391 . S
C1618 C1619 1.400 . S
C1619 C1618 1.400 . S
C1619 C1620 1.398 . S
C1619 C1625 1.491 . S
C1620 H1611 0.950 . S
C1620 C1619 1.398 . S
C1620 C1621 1.391 . S
C1621 H1609 0.950 . S
C1621 C1617 1.393 . S
C1621 C1620 1.391 . S
C1622 H1612 0.950 . S
C1622 C1623 1.386 . S
C1622 C1624 1.391 . S
C1623 C1622 1.386 . S
C1623 C1627 1.393 . S
C1624 H1613 0.950 . S
C1624 C1622 1.391 . S
C1624 C1625 1.400 . S
C1625 C1619 1.491 . S
C1625 C1624 1.400 . S
C1625 C1626 1.398 . S
C1626 H1614 0.950 . S
C1626 C1625 1.398 . S
C1626 C1627 1.391 . S
C1627 H1615 0.950 . S
C1627 C1623 1.393 . S
C1627 C1626 1.391 . S
H1628 C1636 0.950 . S
H1629 C1641 0.950 . S
H1630 C1638 0.950 . S
H1631 C1640 0.950 . S
H1632 C1642 0.950 . S
H1633 C1644 0.950 . S
H1634 C1646 0.950 . S
H1635 C1647 0.950 . S
C1636 H1628 0.950 . S
C1636 C1637 1.386 . S
C1636 C1638 1.391 . S
C1637 C1636 1.386 . S
C1637 C1641 1.393 . S
C1638 H1630 0.950 . S
C1638 C1636 1.391 . S
C1638 C1639 1.400 . S
C1639 C1638 1.400 . S
C1639 C1640 1.398 . S
C1639 C1645 1.491 . S
C1640 H1631 0.950 . S
C1640 C1639 1.398 . S
C1640 C1641 1.391 . S
C1641 H1629 0.950 . S
C1641 C1637 1.393 . S
C1641 C1640 1.391 . S
C1642 H1632 0.950 . S
C1642 C1643 1.386 . S
C1642 C1644 1.391 . S
C1643 C1642 1.386 . S
C1643 C1647 1.393 . S
C1644 H1633 0.950 . S
C1644 C1642 1.391 . S
C1644 C1645 1.400 . S
C1645 C1639 1.491 . S
C1645 C1644 1.400 . S
C1645 C1646 1.398 . S
C1646 H1634 0.950 . S
C1646 C1645 1.398 . S
C1646 C1647 1.391 . S
C1647 H1635 0.950 . S
C1647 C1643 1.393 . S
C1647 C1646 1.391 . S
H1648 C1656 0.950 . S
H1649 C1661 0.950 . S
H1650 C1658 0.950 . S
H1651 C1660 0.950 . S
H1652 C1662 0.950 . S
H1653 C1664 0.950 . S
H1654 C1666 0.950 . S
H1655 C1667 0.950 . S
C1656 H1648 0.950 . S
C1656 C1657 1.386 . S
C1656 C1658 1.391 . S
C1657 C1656 1.386 . S
C1657 C1661 1.393 . S
C1658 H1650 0.950 . S
C1658 C1656 1.391 . S
C1658 C1659 1.400 . S
C1659 C1658 1.400 . S
C1659 C1660 1.398 . S
C1659 C1665 1.491 . S
C1660 H1651 0.950 . S
C1660 C1659 1.398 . S
C1660 C1661 1.391 . S
C1661 H1649 0.950 . S
C1661 C1657 1.393 . S
C1661 C1660 1.391 . S
C1662 H1652 0.950 . S
C1662 C1663 1.386 . S
C1662 C1664 1.391 . S
C1663 C1662 1.386 . S
C1663 C1667 1.393 . S
C1664 H1653 0.950 . S
C1664 C1662 1.391 . S
C1664 C1665 1.400 . S
C1665 C1659 1.491 . S
C1665 C1664 1.400 . S
C1665 C1666 1.398 . S
C1666 H1654 0.950 . S
C1666 C1665 1.398 . S
C1666 C1667 1.391 . S
C1667 H1655 0.950 . S
C1667 C1663 1.393 . S
C1667 C1666 1.391 . S
H1668 C1676 0.950 . S
H1669 C1681 0.950 . S
H1670 C1678 0.950 . S
H1671 C1680 0.950 . S
H1672 C1682 0.950 . S
H1673 C1684 0.950 . S
H1674 C1686 0.950 . S
H1675 C1687 0.950 . S
C1676 H1668 0.950 . S
C1676 C1677 1.386 . S
C1676 C1678 1.391 . S
C1677 C1676 1.386 . S
C1677 C1681 1.393 . S
C1678 H1670 0.950 . S
C1678 C1676 1.391 . S
C1678 C1679 1.400 . S
C1679 C1678 1.400 . S
C1679 C1680 1.398 . S
C1679 C1685 1.491 . S
C1680 H1671 0.950 . S
C1680 C1679 1.398 . S
C1680 C1681 1.391 . S
C1681 H1669 0.950 . S
C1681 C1677 1.393 . S
C1681 C1680 1.391 . S
C1682 H1672 0.950 . S
C1682 C1683 1.386 . S
C1682 C1684 1.391 . S
C1683 C1682 1.386 . S
C1683 C1687 1.393 . S
C1684 H1673 0.950 . S
C1684 C1682 1.391 . S
C1684 C1685 1.400 . S
C1685 C1679 1.491 . S
C1685 C1684 1.400 . S
C1685 C1686 1.398 . S
C1686 H1674 0.950 . S
C1686 C1685 1.398 . S
C1686 C1687 1.391 . S
C1687 H1675 0.950 . S
C1687 C1683 1.393 . S
C1687 C1686 1.391 . S
H1688 C1696 0.950 . S
H1689 C1701 0.950 . S
H1690 C1698 0.950 . S
H1691 C1700 0.950 . S
H1692 C1702 0.950 . S
H1693 C1704 0.950 . S
H1694 C1706 0.950 . S
H1695 C1707 0.950 . S
C1696 H1688 0.950 . S
C1696 C1697 1.386 . S
C1696 C1698 1.391 . S
C1697 C1696 1.386 . S
C1697 C1701 1.393 . S
C1698 H1690 0.950 . S
C1698 C1696 1.391 . S
C1698 C1699 1.400 . S
C1699 C1698 1.400 . S
C1699 C1700 1.398 . S
C1699 C1705 1.491 . S
C1700 H1691 0.950 . S
C1700 C1699 1.398 . S
C1700 C1701 1.391 . S
C1701 H1689 0.950 . S
C1701 C1697 1.393 . S
C1701 C1700 1.391 . S
C1702 H1692 0.950 . S
C1702 C1703 1.386 . S
C1702 C1704 1.391 . S
C1703 C1702 1.386 . S
C1703 C1707 1.393 . S
C1704 H1693 0.950 . S
C1704 C1702 1.391 . S
C1704 C1705 1.400 . S
C1705 C1699 1.491 . S
C1705 C1704 1.400 . S
C1705 C1706 1.398 . S
C1706 H1694 0.950 . S
C1706 C1705 1.398 . S
C1706 C1707 1.391 . S
C1707 H1695 0.950 . S
C1707 C1703 1.393 . S
C1707 C1706 1.391 . S
H1708 C1716 0.950 . S
H1709 C1721 0.950 . S
H1710 C1718 0.950 . S
H1711 C1720 0.950 . S
H1712 C1722 0.950 . S
H1713 C1724 0.950 . S
H1714 C1726 0.950 . S
H1715 C1727 0.950 . S
C1716 H1708 0.950 . S
C1716 C1717 1.386 . S
C1716 C1718 1.391 . S
C1717 C1716 1.386 . S
C1717 C1721 1.393 . S
C1718 H1710 0.950 . S
C1718 C1716 1.391 . S
C1718 C1719 1.400 . S
C1719 C1718 1.400 . S
C1719 C1720 1.398 . S
C1719 C1725 1.491 . S
C1720 H1711 0.950 . S
C1720 C1719 1.398 . S
C1720 C1721 1.391 . S
C1721 H1709 0.950 . S
C1721 C1717 1.393 . S
C1721 C1720 1.391 . S
C1722 H1712 0.950 . S
C1722 C1723 1.386 . S
C1722 C1724 1.391 . S
C1723 C1722 1.386 . S
C1723 C1727 1.393 . S
C1724 H1713 0.950 . S
C1724 C1722 1.391 . S
C1724 C1725 1.400 . S
C1725 C1719 1.491 . S
C1725 C1724 1.400 . S
C1725 C1726 1.398 . S
C1726 H1714 0.950 . S
C1726 C1725 1.398 . S
C1726 C1727 1.391 . S
C1727 H1715 0.950 . S
C1727 C1723 1.393 . S
C1727 C1726 1.391 . S
H1728 C1736 0.950 . S
H1729 C1741 0.950 . S
H1730 C1738 0.950 . S
H1731 C1740 0.950 . S
H1732 C1742 0.950 . S
H1733 C1744 0.950 . S
H1734 C1746 0.950 . S
H1735 C1747 0.950 . S
C1736 H1728 0.950 . S
C1736 C1737 1.386 . S
C1736 C1738 1.391 . S
C1737 C1736 1.386 . S
C1737 C1741 1.393 . S
C1738 H1730 0.950 . S
C1738 C1736 1.391 . S
C1738 C1739 1.400 . S
C1739 C1738 1.400 . S
C1739 C1740 1.398 . S
C1739 C1745 1.491 . S
C1740 H1731 0.950 . S
C1740 C1739 1.398 . S
C1740 C1741 1.391 . S
C1741 H1729 0.950 . S
C1741 C1737 1.393 . S
C1741 C1740 1.391 . S
C1742 H1732 0.950 . S
C1742 C1743 1.386 . S
C1742 C1744 1.391 . S
C1743 C1742 1.386 . S
C1743 C1747 1.393 . S
C1744 H1733 0.950 . S
C1744 C1742 1.391 . S
C1744 C1745 1.400 . S
C1745 C1739 1.491 . S
C1745 C1744 1.400 . S
C1745 C1746 1.398 . S
C1746 H1734 0.950 . S
C1746 C1745 1.398 . S
C1746 C1747 1.391 . S
C1747 H1735 0.950 . S
C1747 C1743 1.393 . S
C1747 C1746 1.391 . S
H1748 C1756 0.950 . S
H1749 C1761 0.950 . S
H1750 C1758 0.950 . S
H1751 C1760 0.950 . S
H1752 C1762 0.950 . S
H1753 C1764 0.950 . S
H1754 C1766 0.950 . S
H1755 C1767 0.950 . S
C1756 H1748 0.950 . S
C1756 C1757 1.386 . S
C1756 C1758 1.391 . S
C1757 C1756 1.386 . S
C1757 C1761 1.393 . S
C1758 H1750 0.950 . S
C1758 C1756 1.391 . S
C1758 C1759 1.400 . S
C1759 C1758 1.400 . S
C1759 C1760 1.398 . S
C1759 C1765 1.491 . S
C1760 H1751 0.950 . S
C1760 C1759 1.398 . S
C1760 C1761 1.391 . S
C1761 H1749 0.950 . S
C1761 C1757 1.393 . S
C1761 C1760 1.391 . S
C1762 H1752 0.950 . S
C1762 C1763 1.386 . S
C1762 C1764 1.391 . S
C1763 C1762 1.386 . S
C1763 C1767 1.393 . S
C1764 H1753 0.950 . S
C1764 C1762 1.391 . S
C1764 C1765 1.400 . S
C1765 C1759 1.491 . S
C1765 C1764 1.400 . S
C1765 C1766 1.398 . S
C1766 H1754 0.950 . S
C1766 C1765 1.398 . S
C1766 C1767 1.391 . S
C1767 H1755 0.950 . S
C1767 C1763 1.393 . S
C1767 C1766 1.391 . S
H1768 C1776 0.950 . S
H1769 C1781 0.950 . S
H1770 C1778 0.950 . S
H1771 C1780 0.950 . S
H1772 C1782 0.950 . S
H1773 C1784 0.950 . S
H1774 C1786 0.950 . S
H1775 C1787 0.950 . S
C1776 H1768 0.950 . S
C1776 C1777 1.386 . S
C1776 C1778 1.391 . S
C1777 C1776 1.386 . S
C1777 C1781 1.393 . S
C1778 H1770 0.950 . S
C1778 C1776 1.391 . S
C1778 C1779 1.400 . S
C1779 C1778 1.400 . S
C1779 C1780 1.398 . S
C1779 C1785 1.491 . S
C1780 H1771 0.950 . S
C1780 C1779 1.398 . S
C1780 C1781 1.391 . S
C1781 H1769 0.950 . S
C1781 C1777 1.393 . S
C1781 C1780 1.391 . S
C1782 H1772 0.950 . S
C1782 C1783 1.386 . S
C1782 C1784 1.391 . S
C1783 C1782 1.386 . S
C1783 C1787 1.393 . S
C1784 H1773 0.950 . S
C1784 C1782 1.391 . S
C1784 C1785 1.400 . S
C1785 C1779 1.491 . S
C1785 C1784 1.400 . S
C1785 C1786 1.398 . S
C1786 H1774 0.950 . S
C1786 C1785 1.398 . S
C1786 C1787 1.391 . S
C1787 H1775 0.950 . S
C1787 C1783 1.393 . S
C1787 C1786 1.391 . S
H1788 C1796 0.950 . S
H1789 C1801 0.950 . S
H1790 C1798 0.950 . S
H1791 C1800 0.950 . S
H1792 C1802 0.950 . S
H1793 C1804 0.950 . S
H1794 C1806 0.950 . S
H1795 C1807 0.950 . S
C1796 H1788 0.950 . S
C1796 C1797 1.386 . S
C1796 C1798 1.391 . S
C1797 C1796 1.386 . S
C1797 C1801 1.393 . S
C1798 H1790 0.950 . S
C1798 C1796 1.391 . S
C1798 C1799 1.400 . S
C1799 C1798 1.400 . S
C1799 C1800 1.398 . S
C1799 C1805 1.491 . S
C1800 H1791 0.950 . S
C1800 C1799 1.398 . S
C1800 C1801 1.391 . S
C1801 H1789 0.950 . S
C1801 C1797 1.393 . S
C1801 C1800 1.391 . S
C1802 H1792 0.950 . S
C1802 C1803 1.386 . S
C1802 C1804 1.391 . S
C1803 C1802 1.386 . S
C1803 C1807 1.393 . S
C1804 H1793 0.950 . S
C1804 C1802 1.391 . S
C1804 C1805 1.400 . S
C1805 C1799 1.491 . S
C1805 C1804 1.400 . S
C1805 C1806 1.398 . S
C1806 H1794 0.950 . S
C1806 C1805 1.398 . S
C1806 C1807 1.391 . S
C1807 H1795 0.950 . S
C1807 C1803 1.393 . S
C1807 C1806 1.391 . S
H1808 C1816 0.950 . S
H1809 C1821 0.950 . S
H1810 C1818 0.950 . S
H1811 C1820 0.950 . S
H1812 C1822 0.950 . S
H1813 C1824 0.950 . S
H1814 C1826 0.950 . S
H1815 C1827 0.950 . S
C1816 H1808 0.950 . S
C1816 C1817 1.386 . S
C1816 C1818 1.391 . S
C1817 C1816 1.386 . S
C1817 C1821 1.393 . S
C1818 H1810 0.950 . S
C1818 C1816 1.391 . S
C1818 C1819 1.400 . S
C1819 C1818 1.400 . S
C1819 C1820 1.398 . S
C1819 C1825 1.491 . S
C1820 H1811 0.950 . S
C1820 C1819 1.398 . S
C1820 C1821 1.391 . S
C1821 H1809 0.950 . S
C1821 C1817 1.393 . S
C1821 C1820 1.391 . S
C1822 H1812 0.950 . S
C1822 C1823 1.386 . S
C1822 C1824 1.391 . S
C1823 C1822 1.386 . S
C1823 C1827 1.393 . S
C1824 H1813 0.950 . S
C1824 C1822 1.391 . S
C1824 C1825 1.400 . S
C1825 C1819 1.491 . S
C1825 C1824 1.400 . S
C1825 C1826 1.398 . S
C1826 H1814 0.950 . S
C1826 C1825 1.398 . S
C1826 C1827 1.391 . S
C1827 H1815 0.950 . S
C1827 C1823 1.393 . S
C1827 C1826 1.391 . S
H1828 C1836 0.950 . S
H1829 C1841 0.950 . S
H1830 C1838 0.950 . S
H1831 C1840 0.950 . S
H1832 C1842 0.950 . S
H1833 C1844 0.950 . S
H1834 C1846 0.950 . S
H1835 C1847 0.950 . S
C1836 H1828 0.950 . S
C1836 C1837 1.386 . S
C1836 C1838 1.391 . S
C1837 C1836 1.386 . S
C1837 C1841 1.393 . S
C1838 H1830 0.950 . S
C1838 C1836 1.391 . S
C1838 C1839 1.400 . S
C1839 C1838 1.400 . S
C1839 C1840 1.398 . S
C1839 C1845 1.491 . S
C1840 H1831 0.950 . S
C1840 C1839 1.398 . S
C1840 C1841 1.391 . S
C1841 H1829 0.950 . S
C1841 C1837 1.393 . S
C1841 C1840 1.391 . S
C1842 H1832 0.950 . S
C1842 C1843 1.386 . S
C1842 C1844 1.391 . S
C1843 C1842 1.386 . S
C1843 C1847 1.393 . S
C1844 H1833 0.950 . S
C1844 C1842 1.391 . S
C1844 C1845 1.400 . S
C1845 C1839 1.491 . S
C1845 C1844 1.400 . S
C1845 C1846 1.398 . S
C1846 H1834 0.950 . S
C1846 C1845 1.398 . S
C1846 C1847 1.391 . S
C1847 H1835 0.950 . S
C1847 C1843 1.393 . S
C1847 C1846 1.391 . S
H1848 C1856 0.950 . S
H1849 C1861 0.950 . S
H1850 C1858 0.950 . S
H1851 C1860 0.950 . S
H1852 C1862 0.950 . S
H1853 C1864 0.950 . S
H1854 C1866 0.950 . S
H1855 C1867 0.950 . S
C1856 H1848 0.950 . S
C1856 C1857 1.386 . S
C1856 C1858 1.391 . S
C1857 C1856 1.386 . S
C1857 C1861 1.393 . S
C1858 H1850 0.950 . S
C1858 C1856 1.391 . S
C1858 C1859 1.400 . S
C1859 C1858 1.400 . S
C1859 C1860 1.398 . S
C1859 C1865 1.491 . S
C1860 H1851 0.950 . S
C1860 C1859 1.398 . S
C1860 C1861 1.391 . S
C1861 H1849 0.950 . S
C1861 C1857 1.393 . S
C1861 C1860 1.391 . S
C1862 H1852 0.950 . S
C1862 C1863 1.386 . S
C1862 C1864 1.391 . S
C1863 C1862 1.386 . S
C1863 C1867 1.393 . S
C1864 H1853 0.950 . S
C1864 C1862 1.391 . S
C1864 C1865 1.400 . S
C1865 C1859 1.491 . S
C1865 C1864 1.400 . S
C1865 C1866 1.398 . S
C1866 H1854 0.950 . S
C1866 C1865 1.398 . S
C1866 C1867 1.391 . S
C1867 H1855 0.950 . S
C1867 C1863 1.393 . S
C1867 C1866 1.391 . S
H1868 C1876 0.950 . S
H1869 C1881 0.950 . S
H1870 C1878 0.950 . S
H1871 C1880 0.950 . S
H1872 C1882 0.950 . S
H1873 C1884 0.950 . S
H1874 C1886 0.950 . S
H1875 C1887 0.950 . S
C1876 H1868 0.950 . S
C1876 C1877 1.386 . S
C1876 C1878 1.391 . S
C1877 C1876 1.386 . S
C1877 C1881 1.393 . S
C1878 H1870 0.950 . S
C1878 C1876 1.391 . S
C1878 C1879 1.400 . S
C1879 C1878 1.400 . S
C1879 C1880 1.398 . S
C1879 C1885 1.491 . S
C1880 H1871 0.950 . S
C1880 C1879 1.398 . S
C1880 C1881 1.391 . S
C1881 H1869 0.950 . S
C1881 C1877 1.393 . S
C1881 C1880 1.391 . S
C1882 H1872 0.950 . S
C1882 C1883 1.386 . S
C1882 C1884 1.391 . S
C1883 C1882 1.386 . S
C1883 C1887 1.393 . S
C1884 H1873 0.950 . S
C1884 C1882 1.391 . S
C1884 C1885 1.400 . S
C1885 C1879 1.491 . S
C1885 C1884 1.400 . S
C1885 C1886 1.398 . S
C1886 H1874 0.950 . S
C1886 C1885 1.398 . S
C1886 C1887 1.391 . S
C1887 H1875 0.950 . S
C1887 C1883 1.393 . S
C1887 C1886 1.391 . S
H1888 C1896 0.950 . S
H1889 C1901 0.950 . S
H1890 C1898 0.950 . S
H1891 C1900 0.950 . S
H1892 C1902 0.950 . S
H1893 C1904 0.950 . S
H1894 C1906 0.950 . S
H1895 C1907 0.950 . S
C1896 H1888 0.950 . S
C1896 C1897 1.386 . S
C1896 C1898 1.391 . S
C1897 C1896 1.386 . S
C1897 C1901 1.393 . S
C1898 H1890 0.950 . S
C1898 C1896 1.391 . S
C1898 C1899 1.400 . S
C1899 C1898 1.400 . S
C1899 C1900 1.398 . S
C1899 C1905 1.491 . S
C1900 H1891 0.950 . S
C1900 C1899 1.398 . S
C1900 C1901 1.391 . S
C1901 H1889 0.950 . S
C1901 C1897 1.393 . S
C1901 C1900 1.391 . S
C1902 H1892 0.950 . S
C1902 C1903 1.386 . S
C1902 C1904 1.391 . S
C1903 C1902 1.386 . S
C1903 C1907 1.393 . S
C1904 H1893 0.950 . S
C1904 C1902 1.391 . S
C1904 C1905 1.400 . S
C1905 C1899 1.491 . S
C1905 C1904 1.400 . S
C1905 C1906 1.398 . S
C1906 H1894 0.950 . S
C1906 C1905 1.398 . S
C1906 C1907 1.391 . S
C1907 H1895 0.950 . S
C1907 C1903 1.393 . S
C1907 C1906 1.391 . S
H1908 C1916 0.950 . S
H1909 C1921 0.950 . S
H1910 C1918 0.950 . S
H1911 C1920 0.950 . S
H1912 C1922 0.950 . S
H1913 C1924 0.950 . S
H1914 C1926 0.950 . S
H1915 C1927 0.950 . S
C1916 H1908 0.950 . S
C1916 C1917 1.386 . S
C1916 C1918 1.391 . S
C1917 C1916 1.386 . S
C1917 C1921 1.393 . S
C1918 H1910 0.950 . S
C1918 C1916 1.391 . S
C1918 C1919 1.400 . S
C1919 C1918 1.400 . S
C1919 C1920 1.398 . S
C1919 C1925 1.491 . S
C1920 H1911 0.950 . S
C1920 C1919 1.398 . S
C1920 C1921 1.391 . S
C1921 H1909 0.950 . S
C1921 C1917 1.393 . S
C1921 C1920 1.391 . S
C1922 H1912 0.950 . S
C1922 C1923 1.386 . S
C1922 C1924 1.391 . S
C1923 C1922 1.386 . S
C1923 C1927 1.393 . S
C1924 H1913 0.950 . S
C1924 C1922 1.391 . S
C1924 C1925 1.400 . S
C1925 C1919 1.491 . S
C1925 C1924 1.400 . S
C1925 C1926 1.398 . S
C1926 H1914 0.950 . S
C1926 C1925 1.398 . S
C1926 C1927 1.391 . S
C1927 H1915 0.950 . S
C1927 C1923 1.393 . S
C1927 C1926 1.391 . S
H1928 C1936 0.950 . S
H1929 C1941 0.950 . S
H1930 C1938 0.950 . S
H1931 C1940 0.950 . S
H1932 C1942 0.950 . S
H1933 C1944 0.950 . S
H1934 C1946 0.950 . S
H1935 C1947 0.950 . S
C1936 H1928 0.950 . S
C1936 C1937 1.386 . S
C1936 C1938 1.391 . S
C1937 C1936 1.386 . S
C1937 C1941 1.393 . S
C1938 H1930 0.950 . S
C1938 C1936 1.391 . S
C1938 C1939 1.400 . S
C1939 C1938 1.400 . S
C1939 C1940 1.398 . S
C1939 C1945 1.491 . S
C1940 H1931 0.950 . S
C1940 C1939 1.398 . S
C1940 C1941 1.391 . S
C1941 H1929 0.950 . S
C1941 C1937 1.393 . S
C1941 C1940 1.391 . S
C1942 H1932 0.950 . S
C1942 C1943 1.386 . S
C1942 C1944 1.391 . S
C1943 C1942 1.386 . S
C1943 C1947 1.393 . S
C1944 H1933 0.950 . S
C1944 C1942 1.391 . S
C1944 C1945 1.400 . S
C1945 C1939 1.491 . S
C1945 C1944 1.400 . S
C1945 C1946 1.398 . S
C1946 H1934 0.950 . S
C1946 C1945 1.398 . S
C1946 C1947 1.391 . S
C1947 H1935 0.950 . S
C1947 C1943 1.393 . S
C1947 C1946 1.391 . S
H1948 C1956 0.950 . S
H1949 C1961 0.950 . S
H1950 C1958 0.950 . S
H1951 C1960 0.950 . S
H1952 C1962 0.950 . S
H1953 C1964 0.950 . S
H1954 C1966 0.950 . S
H1955 C1967 0.950 . S
C1956 H1948 0.950 . S
C1956 C1957 1.386 . S
C1956 C1958 1.391 . S
C1957 C1956 1.386 . S
C1957 C1961 1.393 . S
C1958 H1950 0.950 . S
C1958 C1956 1.391 . S
C1958 C1959 1.400 . S
C1959 C1958 1.400 . S
C1959 C1960 1.398 . S
C1959 C1965 1.491 . S
C1960 H1951 0.950 . S
C1960 C1959 1.398 . S
C1960 C1961 1.391 . S
C1961 H1949 0.950 . S
C1961 C1957 1.393 . S
C1961 C1960 1.391 . S
C1962 H1952 0.950 . S
C1962 C1963 1.386 . S
C1962 C1964 1.391 . S
C1963 C1962 1.386 . S
C1963 C1967 1.393 . S
C1964 H1953 0.950 . S
C1964 C1962 1.391 . S
C1964 C1965 1.400 . S
C1965 C1959 1.491 . S
C1965 C1964 1.400 . S
C1965 C1966 1.398 . S
C1966 H1954 0.950 . S
C1966 C1965 1.398 . S
C1966 C1967 1.391 . S
C1967 H1955 0.950 . S
C1967 C1963 1.393 . S
C1967 C1966 1.391 . S
H1968 C1976 0.950 . S
H1969 C1981 0.950 . S
H1970 C1978 0.950 . S
H1971 C1980 0.950 . S
H1972 C1982 0.950 . S
H1973 C1984 0.950 . S
H1974 C1986 0.950 . S
H1975 C1987 0.950 . S
C1976 H1968 0.950 . S
C1976 C1977 1.386 . S
C1976 C1978 1.391 . S
C1977 C1976 1.386 . S
C1977 C1981 1.393 . S
C1978 H1970 0.950 . S
C1978 C1976 1.391 . S
C1978 C1979 1.400 . S
C1979 C1978 1.400 . S
C1979 C1980 1.398 . S
C1979 C1985 1.491 . S
C1980 H1971 0.950 . S
C1980 C1979 1.398 . S
C1980 C1981 1.391 . S
C1981 H1969 0.950 . S
C1981 C1977 1.393 . S
C1981 C1980 1.391 . S
C1982 H1972 0.950 . S
C1982 C1983 1.386 . S
C1982 C1984 1.391 . S
C1983 C1982 1.386 . S
C1983 C1987 1.393 . S
C1984 H1973 0.950 . S
C1984 C1982 1.391 . S
C1984 C1985 1.400 . S
C1985 C1979 1.491 . S
C1985 C1984 1.400 . S
C1985 C1986 1.398 . S
C1986 H1974 0.950 . S
C1986 C1985 1.398 . S
C1986 C1987 1.391 . S
C1987 H1975 0.950 . S
C1987 C1983 1.393 . S
C1987 C1986 1.391 . S
H1988 C1996 0.950 . S
H1989 C2001 0.950 . S
H1990 C1998 0.950 . S
H1991 C2000 0.950 . S
H1992 C2002 0.950 . S
H1993 C2004 0.950 . S
H1994 C2006 0.950 . S
H1995 C2007 0.950 . S
C1996 H1988 0.950 . S
C1996 C1997 1.386 . S
C1996 C1998 1.391 . S
C1997 C1996 1.386 . S
C1997 C2001 1.393 . S
C1998 H1990 0.950 . S
C1998 C1996 1.391 . S
C1998 C1999 1.400 . S
C1999 C1998 1.400 . S
C1999 C2000 1.398 . S
C1999 C2005 1.491 . S
C2000 H1991 0.950 . S
C2000 C1999 1.398 . S
C2000 C2001 1.391 . S
C2001 H1989 0.950 . S
C2001 C1997 1.393 . S
C2001 C2000 1.391 . S
C2002 H1992 0.950 . S
C2002 C2003 1.386 . S
C2002 C2004 1.391 . S
C2003 C2002 1.386 . S
C2003 C2007 1.393 . S
C2004 H1993 0.950 . S
C2004 C2002 1.391 . S
C2004 C2005 1.400 . S
C2005 C1999 1.491 . S
C2005 C2004 1.400 . S
C2005 C2006 1.398 . S
C2006 H1994 0.950 . S
C2006 C2005 1.398 . S
C2006 C2007 1.391 . S
C2007 H1995 0.950 . S
C2007 C2003 1.393 . S
C2007 C2006 1.391 . S
H2008 C2016 0.950 . S
H2009 C2021 0.950 . S
H2010 C2018 0.950 . S
H2011 C2020 0.950 . S
H2012 C2022 0.950 . S
H2013 C2024 0.950 . S
H2014 C2026 0.950 . S
H2015 C2027 0.950 . S
C2016 H2008 0.950 . S
C2016 C2017 1.386 . S
C2016 C2018 1.391 . S
C2017 C2016 1.386 . S
C2017 C2021 1.393 . S
C2018 H2010 0.950 . S
C2018 C2016 1.391 . S
C2018 C2019 1.400 . S
C2019 C2018 1.400 . S
C2019 C2020 1.398 . S
C2019 C2025 1.491 . S
C2020 H2011 0.950 . S
C2020 C2019 1.398 . S
C2020 C2021 1.391 . S
C2021 H2009 0.950 . S
C2021 C2017 1.393 . S
C2021 C2020 1.391 . S
C2022 H2012 0.950 . S
C2022 C2023 1.386 . S
C2022 C2024 1.391 . S
C2023 C2022 1.386 . S
C2023 C2027 1.393 . S
C2024 H2013 0.950 . S
C2024 C2022 1.391 . S
C2024 C2025 1.400 . S
C2025 C2019 1.491 . S
C2025 C2024 1.400 . S
C2025 C2026 1.398 . S
C2026 H2014 0.950 . S
C2026 C2025 1.398 . S
C2026 C2027 1.391 . S
C2027 H2015 0.950 . S
C2027 C2023 1.393 . S
C2027 C2026 1.391 . S
H2028 C2036 0.950 . S
H2029 C2041 0.950 . S
H2030 C2038 0.950 . S
H2031 C2040 0.950 . S
H2032 C2042 0.950 . S
H2033 C2044 0.950 . S
H2034 C2046 0.950 . S
H2035 C2047 0.950 . S
C2036 H2028 0.950 . S
C2036 C2037 1.386 . S
C2036 C2038 1.391 . S
C2037 C2036 1.386 . S
C2037 C2041 1.393 . S
C2038 H2030 0.950 . S
C2038 C2036 1.391 . S
C2038 C2039 1.400 . S
C2039 C2038 1.400 . S
C2039 C2040 1.398 . S
C2039 C2045 1.491 . S
C2040 H2031 0.950 . S
C2040 C2039 1.398 . S
C2040 C2041 1.391 . S
C2041 H2029 0.950 . S
C2041 C2037 1.393 . S
C2041 C2040 1.391 . S
C2042 H2032 0.950 . S
C2042 C2043 1.386 . S
C2042 C2044 1.391 . S
C2043 C2042 1.386 . S
C2043 C2047 1.393 . S
C2044 H2033 0.950 . S
C2044 C2042 1.391 . S
C2044 C2045 1.400 . S
C2045 C2039 1.491 . S
C2045 C2044 1.400 . S
C2045 C2046 1.398 . S
C2046 H2034 0.950 . S
C2046 C2045 1.398 . S
C2046 C2047 1.391 . S
C2047 H2035 0.950 . S
C2047 C2043 1.393 . S
C2047 C2046 1.391 . S
H2048 C2056 0.950 . S
H2049 C2061 0.950 . S
H2050 C2058 0.950 . S
H2051 C2060 0.950 . S
H2052 C2062 0.950 . S
H2053 C2064 0.950 . S
H2054 C2066 0.950 . S
H2055 C2067 0.950 . S
C2056 H2048 0.950 . S
C2056 C2057 1.386 . S
C2056 C2058 1.391 . S
C2057 C2056 1.386 . S
C2057 C2061 1.393 . S
C2058 H2050 0.950 . S
C2058 C2056 1.391 . S
C2058 C2059 1.400 . S
C2059 C2058 1.400 . S
C2059 C2060 1.398 . S
C2059 C2065 1.491 . S
C2060 H2051 0.950 . S
C2060 C2059 1.398 . S
C2060 C2061 1.391 . S
C2061 H2049 0.950 . S
C2061 C2057 1.393 . S
C2061 C2060 1.391 . S
C2062 H2052 0.950 . S
C2062 C2063 1.386 . S
C2062 C2064 1.391 . S
C2063 C2062 1.386 . S
C2063 C2067 1.393 . S
C2064 H2053 0.950 . S
C2064 C2062 1.391 . S
C2064 C2065 1.400 . S
C2065 C2059 1.491 . S
C2065 C2064 1.400 . S
C2065 C2066 1.398 . S
C2066 H2054 0.950 . S
C2066 C2065 1.398 . S
C2066 C2067 1.391 . S
C2067 H2055 0.950 . S
C2067 C2063 1.393 . S
C2067 C2066 1.391 . S
H2068 C2076 0.950 . S
H2069 C2081 0.950 . S
H2070 C2078 0.950 . S
H2071 C2080 0.950 . S
H2072 C2082 0.950 . S
H2073 C2084 0.950 . S
H2074 C2086 0.950 . S
H2075 C2087 0.950 . S
C2076 H2068 0.950 . S
C2076 C2077 1.386 . S
C2076 C2078 1.391 . S
C2077 C2076 1.386 . S
C2077 C2081 1.393 . S
C2078 H2070 0.950 . S
C2078 C2076 1.391 . S
C2078 C2079 1.400 . S
C2079 C2078 1.400 . S
C2079 C2080 1.398 . S
C2079 C2085 1.491 . S
C2080 H2071 0.950 . S
C2080 C2079 1.398 . S
C2080 C2081 1.391 . S
C2081 H2069 0.950 . S
C2081 C2077 1.393 . S
C2081 C2080 1.391 . S
C2082 H2072 0.950 . S
C2082 C2083 1.386 . S
C2082 C2084 1.391 . S
C2083 C2082 1.386 . S
C2083 C2087 1.393 . S
C2084 H2073 0.950 . S
C2084 C2082 1.391 . S
C2084 C2085 1.400 . S
C2085 C2079 1.491 . S
C2085 C2084 1.400 . S
C2085 C2086 1.398 . S
C2086 H2074 0.950 . S
C2086 C2085 1.398 . S
C2086 C2087 1.391 . S
C2087 H2075 0.950 . S
C2087 C2083 1.393 . S
C2087 C2086 1.391 . S
H2088 C2096 0.950 . S
H2089 C2101 0.950 . S
H2090 C2098 0.950 . S
H2091 C2100 0.950 . S
H2092 C2102 0.950 . S
H2093 C2104 0.950 . S
H2094 C2106 0.950 . S
H2095 C2107 0.950 . S
C2096 H2088 0.950 . S
C2096 C2097 1.386 . S
C2096 C2098 1.391 . S
C2097 C2096 1.386 . S
C2097 C2101 1.393 . S
C2098 H2090 0.950 . S
C2098 C2096 1.391 . S
C2098 C2099 1.400 . S
C2099 C2098 1.400 . S
C2099 C2100 1.398 . S
C2099 C2105 1.491 . S
C2100 H2091 0.950 . S
C2100 C2099 1.398 . S
C2100 C2101 1.391 . S
C2101 H2089 0.950 . S
C2101 C2097 1.393 . S
C2101 C2100 1.391 . S
C2102 H2092 0.950 . S
C2102 C2103 1.386 . S
C2102 C2104 1.391 . S
C2103 C2102 1.386 . S
C2103 C2107 1.393 . S
C2104 H2093 0.950 . S
C2104 C2102 1.391 . S
C2104 C2105 1.400 . S
C2105 C2099 1.491 . S
C2105 C2104 1.400 . S
C2105 C2106 1.398 . S
C2106 H2094 0.950 . S
C2106 C2105 1.398 . S
C2106 C2107 1.391 . S
C2107 H2095 0.950 . S
C2107 C2103 1.393 . S
C2107 C2106 1.391 . S
H2108 C2116 0.950 . S
H2109 C2121 0.950 . S
H2110 C2118 0.950 . S
H2111 C2120 0.950 . S
H2112 C2122 0.950 . S
H2113 C2124 0.950 . S
H2114 C2126 0.950 . S
H2115 C2127 0.950 . S
C2116 H2108 0.950 . S
C2116 C2117 1.386 . S
C2116 C2118 1.391 . S
C2117 C2116 1.386 . S
C2117 C2121 1.393 . S
C2118 H2110 0.950 . S
C2118 C2116 1.391 . S
C2118 C2119 1.400 . S
C2119 C2118 1.400 . S
C2119 C2120 1.398 . S
C2119 C2125 1.491 . S
C2120 H2111 0.950 . S
C2120 C2119 1.398 . S
C2120 C2121 1.391 . S
C2121 H2109 0.950 . S
C2121 C2117 1.393 . S
C2121 C2120 1.391 . S
C2122 H2112 0.950 . S
C2122 C2123 1.386 . S
C2122 C2124 1.391 . S
C2123 C2122 1.386 . S
C2123 C2127 1.393 . S
C2124 H2113 0.950 . S
C2124 C2122 1.391 . S
C2124 C2125 1.400 . S
C2125 C2119 1.491 . S
C2125 C2124 1.400 . S
C2125 C2126 1.398 . S
C2126 H2114 0.950 . S
C2126 C2125 1.398 . S
C2126 C2127 1.391 . S
C2127 H2115 0.950 . S
C2127 C2123 1.393 . S
C2127 C2126 1.391 . S
H2128 C2136 0.950 . S
H2129 C2141 0.950 . S
H2130 C2138 0.950 . S
H2131 C2140 0.950 . S
H2132 C2142 0.950 . S
H2133 C2144 0.950 . S
H2134 C2146 0.950 . S
H2135 C2147 0.950 . S
C2136 H2128 0.950 . S
C2136 C2137 1.386 . S
C2136 C2138 1.391 . S
C2137 C2136 1.386 . S
C2137 C2141 1.393 . S
C2138 H2130 0.950 . S
C2138 C2136 1.391 . S
C2138 C2139 1.400 . S
C2139 C2138 1.400 . S
C2139 C2140 1.398 . S
C2139 C2145 1.491 . S
C2140 H2131 0.950 . S
C2140 C2139 1.398 . S
C2140 C2141 1.391 . S
C2141 H2129 0.950 . S
C2141 C2137 1.393 . S
C2141 C2140 1.391 . S
C2142 H2132 0.950 . S
C2142 C2143 1.386 . S
C2142 C2144 1.391 . S
C2143 C2142 1.386 . S
C2143 C2147 1.393 . S
C2144 H2133 0.950 . S
C2144 C2142 1.391 . S
C2144 C2145 1.400 . S
C2145 C2139 1.491 . S
C2145 C2144 1.400 . S
C2145 C2146 1.398 . S
C2146 H2134 0.950 . S
C2146 C2145 1.398 . S
C2146 C2147 1.391 . S
C2147 H2135 0.950 . S
C2147 C2143 1.393 . S
C2147 C2146 1.391 . S
H2148 C2156 0.950 . S
H2149 C2161 0.950 . S
H2150 C2158 0.950 . S
H2151 C2160 0.950 . S
H2152 C2162 0.950 . S
H2153 C2164 0.950 . S
H2154 C2166 0.950 . S
H2155 C2167 0.950 . S
C2156 H2148 0.950 . S
C2156 C2157 1.386 . S
C2156 C2158 1.391 . S
C2157 C2156 1.386 . S
C2157 C2161 1.393 . S
C2158 H2150 0.950 . S
C2158 C2156 1.391 . S
C2158 C2159 1.400 . S
C2159 C2158 1.400 . S
C2159 C2160 1.398 . S
C2159 C2165 1.491 . S
C2160 H2151 0.950 . S
C2160 C2159 1.398 . S
C2160 C2161 1.391 . S
C2161 H2149 0.950 . S
C2161 C2157 1.393 . S
C2161 C2160 1.391 . S
C2162 H2152 0.950 . S
C2162 C2163 1.386 . S
C2162 C2164 1.391 . S
C2163 C2162 1.386 . S
C2163 C2167 1.393 . S
C2164 H2153 0.950 . S
C2164 C2162 1.391 . S
C2164 C2165 1.400 . S
C2165 C2159 1.491 . S
C2165 C2164 1.400 . S
C2165 C2166 1.398 . S
C2166 H2154 0.950 . S
C2166 C2165 1.398 . S
C2166 C2167 1.391 . S
C2167 H2155 0.950 . S
C2167 C2163 1.393 . S
C2167 C2166 1.391 . S
H2168 C2176 0.950 . S
H2169 C2181 0.950 . S
H2170 C2178 0.950 . S
H2171 C2180 0.950 . S
H2172 C2182 0.950 . S
H2173 C2184 0.950 . S
H2174 C2186 0.950 . S
H2175 C2187 0.950 . S
C2176 H2168 0.950 . S
C2176 C2177 1.386 . S
C2176 C2178 1.391 . S
C2177 C2176 1.386 . S
C2177 C2181 1.393 . S
C2178 H2170 0.950 . S
C2178 C2176 1.391 . S
C2178 C2179 1.400 . S
C2179 C2178 1.400 . S
C2179 C2180 1.398 . S
C2179 C2185 1.491 . S
C2180 H2171 0.950 . S
C2180 C2179 1.398 . S
C2180 C2181 1.391 . S
C2181 H2169 0.950 . S
C2181 C2177 1.393 . S
C2181 C2180 1.391 . S
C2182 H2172 0.950 . S
C2182 C2183 1.386 . S
C2182 C2184 1.391 . S
C2183 C2182 1.386 . S
C2183 C2187 1.393 . S
C2184 H2173 0.950 . S
C2184 C2182 1.391 . S
C2184 C2185 1.400 . S
C2185 C2179 1.491 . S
C2185 C2184 1.400 . S
C2185 C2186 1.398 . S
C2186 H2174 0.950 . S
C2186 C2185 1.398 . S
C2186 C2187 1.391 . S
C2187 H2175 0.950 . S
C2187 C2183 1.393 . S
C2187 C2186 1.391 . S
H2188 C2196 0.950 . S
H2189 C2201 0.950 . S
H2190 C2198 0.950 . S
H2191 C2200 0.950 . S
H2192 C2202 0.950 . S
H2193 C2204 0.950 . S
H2194 C2206 0.950 . S
H2195 C2207 0.950 . S
C2196 H2188 0.950 . S
C2196 C2197 1.386 . S
C2196 C2198 1.391 . S
C2197 C2196 1.386 . S
C2197 C2201 1.393 . S
C2198 H2190 0.950 . S
C2198 C2196 1.391 . S
C2198 C2199 1.400 . S
C2199 C2198 1.400 . S
C2199 C2200 1.398 . S
C2199 C2205 1.491 . S
C2200 H2191 0.950 . S
C2200 C2199 1.398 . S
C2200 C2201 1.391 . S
C2201 H2189 0.950 . S
C2201 C2197 1.393 . S
C2201 C2200 1.391 . S
C2202 H2192 0.950 . S
C2202 C2203 1.386 . S
C2202 C2204 1.391 . S
C2203 C2202 1.386 . S
C2203 C2207 1.393 . S
C2204 H2193 0.950 . S
C2204 C2202 1.391 . S
C2204 C2205 1.400 . S
C2205 C2199 1.491 . S
C2205 C2204 1.400 . S
C2205 C2206 1.398 . S
C2206 H2194 0.950 . S
C2206 C2205 1.398 . S
C2206 C2207 1.391 . S
C2207 H2195 0.950 . S
C2207 C2203 1.393 . S
C2207 C2206 1.391 . S
H2208 C2216 0.950 . S
H2209 C2221 0.950 . S
H2210 C2218 0.950 . S
H2211 C2220 0.950 . S
H2212 C2222 0.950 . S
H2213 C2224 0.950 . S
H2214 C2226 0.950 . S
H2215 C2227 0.950 . S
C2216 H2208 0.950 . S
C2216 C2217 1.386 . S
C2216 C2218 1.391 . S
C2217 C2216 1.386 . S
C2217 C2221 1.393 . S
C2218 H2210 0.950 . S
C2218 C2216 1.391 . S
C2218 C2219 1.400 . S
C2219 C2218 1.400 . S
C2219 C2220 1.398 . S
C2219 C2225 1.491 . S
C2220 H2211 0.950 . S
C2220 C2219 1.398 . S
C2220 C2221 1.391 . S
C2221 H2209 0.950 . S
C2221 C2217 1.393 . S
C2221 C2220 1.391 . S
C2222 H2212 0.950 . S
C2222 C2223 1.386 . S
C2222 C2224 1.391 . S
C2223 C2222 1.386 . S
C2223 C2227 1.393 . S
C2224 H2213 0.950 . S
C2224 C2222 1.391 . S
C2224 C2225 1.400 . S
C2225 C2219 1.491 . S
C2225 C2224 1.400 . S
C2225 C2226 1.398 . S
C2226 H2214 0.950 . S
C2226 C2225 1.398 . S
C2226 C2227 1.391 . S
C2227 H2215 0.950 . S
C2227 C2223 1.393 . S
C2227 C2226 1.391 . S
H2228 C2236 0.950 . S
H2229 C2241 0.950 . S
H2230 C2238 0.950 . S
H2231 C2240 0.950 . S
H2232 C2242 0.950 . S
H2233 C2244 0.950 . S
H2234 C2246 0.950 . S
H2235 C2247 0.950 . S
C2236 H2228 0.950 . S
C2236 C2237 1.386 . S
C2236 C2238 1.391 . S
C2237 C2236 1.386 . S
C2237 C2241 1.393 . S
C2238 H2230 0.950 . S
C2238 C2236 1.391 . S
C2238 C2239 1.400 . S
C2239 C2238 1.400 . S
C2239 C2240 1.398 . S
C2239 C2245 1.491 . S
C2240 H2231 0.950 . S
C2240 C2239 1.398 . S
C2240 C2241 1.391 . S
C2241 H2229 0.950 . S
C2241 C2237 1.393 . S
C2241 C2240 1.391 . S
C2242 H2232 0.950 . S
C2242 C2243 1.386 . S
C2242 C2244 1.391 . S
C2243 C2242 1.386 . S
C2243 C2247 1.393 . S
C2244 H2233 0.950 . S
C2244 C2242 1.391 . S
C2244 C2245 1.400 . S
C2245 C2239 1.491 . S
C2245 C2244 1.400 . S
C2245 C2246 1.398 . S
C2246 H2234 0.950 . S
C2246 C2245 1.398 . S
C2246 C2247 1.391 . S
C2247 H2235 0.950 . S
C2247 C2243 1.393 . S
C2247 C2246 1.391 . S
H2248 C2256 0.950 . S
H2249 C2261 0.950 . S
H2250 C2258 0.950 . S
H2251 C2260 0.950 . S
H2252 C2262 0.950 . S
H2253 C2264 0.950 . S
H2254 C2266 0.950 . S
H2255 C2267 0.950 . S
C2256 H2248 0.950 . S
C2256 C2257 1.386 . S
C2256 C2258 1.391 . S
C2257 C2256 1.386 . S
C2257 C2261 1.393 . S
C2258 H2250 0.950 . S
C2258 C2256 1.391 . S
C2258 C2259 1.400 . S
C2259 C2258 1.400 . S
C2259 C2260 1.398 . S
C2259 C2265 1.491 . S
C2260 H2251 0.950 . S
C2260 C2259 1.398 . S
C2260 C2261 1.391 . S
C2261 H2249 0.950 . S
C2261 C2257 1.393 . S
C2261 C2260 1.391 . S
C2262 H2252 0.950 . S
C2262 C2263 1.386 . S
C2262 C2264 1.391 . S
C2263 C2262 1.386 . S
C2263 C2267 1.393 . S
C2264 H2253 0.950 . S
C2264 C2262 1.391 . S
C2264 C2265 1.400 . S
C2265 C2259 1.491 . S
C2265 C2264 1.400 . S
C2265 C2266 1.398 . S
C2266 H2254 0.950 . S
C2266 C2265 1.398 . S
C2266 C2267 1.391 . S
C2267 H2255 0.950 . S
C2267 C2263 1.393 . S
C2267 C2266 1.391 . S
H2268 C2276 0.950 . S
H2269 C2281 0.950 . S
H2270 C2278 0.950 . S
H2271 C2280 0.950 . S
H2272 C2282 0.950 . S
H2273 C2284 0.950 . S
H2274 C2286 0.950 . S
H2275 C2287 0.950 . S
C2276 H2268 0.950 . S
C2276 C2277 1.386 . S
C2276 C2278 1.391 . S
C2277 C2276 1.386 . S
C2277 C2281 1.393 . S
C2278 H2270 0.950 . S
C2278 C2276 1.391 . S
C2278 C2279 1.400 . S
C2279 C2278 1.400 . S
C2279 C2280 1.398 . S
C2279 C2285 1.491 . S
C2280 H2271 0.950 . S
C2280 C2279 1.398 . S
C2280 C2281 1.391 . S
C2281 H2269 0.950 . S
C2281 C2277 1.393 . S
C2281 C2280 1.391 . S
C2282 H2272 0.950 . S
C2282 C2283 1.386 . S
C2282 C2284 1.391 . S
C2283 C2282 1.386 . S
C2283 C2287 1.393 . S
C2284 H2273 0.950 . S
C2284 C2282 1.391 . S
C2284 C2285 1.400 . S
C2285 C2279 1.491 . S
C2285 C2284 1.400 . S
C2285 C2286 1.398 . S
C2286 H2274 0.950 . S
C2286 C2285 1.398 . S
C2286 C2287 1.391 . S
C2287 H2275 0.950 . S
C2287 C2283 1.393 . S
C2287 C2286 1.391 . S
H2288 C2296 0.950 . S
H2289 C2301 0.950 . S
H2290 C2298 0.950 . S
H2291 C2300 0.950 . S
H2292 C2302 0.950 . S
H2293 C2304 0.950 . S
H2294 C2306 0.950 . S
H2295 C2307 0.950 . S
C2296 H2288 0.950 . S
C2296 C2297 1.386 . S
C2296 C2298 1.391 . S
C2297 C2296 1.386 . S
C2297 C2301 1.393 . S
C2298 H2290 0.950 . S
C2298 C2296 1.391 . S
C2298 C2299 1.400 . S
C2299 C2298 1.400 . S
C2299 C2300 1.398 . S
C2299 C2305 1.491 . S
C2300 H2291 0.950 . S
C2300 C2299 1.398 . S
C2300 C2301 1.391 . S
C2301 H2289 0.950 . S
C2301 C2297 1.393 . S
C2301 C2300 1.391 . S
C2302 H2292 0.950 . S
C2302 C2303 1.386 . S
C2302 C2304 1.391 . S
C2303 C2302 1.386 . S
C2303 C2307 1.393 . S
C2304 H2293 0.950 . S
C2304 C2302 1.391 . S
C2304 C2305 1.400 . S
C2305 C2299 1.491 . S
C2305 C2304 1.400 . S
C2305 C2306 1.398 . S
C2306 H2294 0.950 . S
C2306 C2305 1.398 . S
C2306 C2307 1.391 . S
C2307 H2295 0.950 . S
C2307 C2303 1.393 . S
C2307 C2306 1.391 . S
H2308 C2316 0.950 . S
H2309 C2321 0.950 . S
H2310 C2318 0.950 . S
H2311 C2320 0.950 . S
H2312 C2322 0.950 . S
H2313 C2324 0.950 . S
H2314 C2326 0.950 . S
H2315 C2327 0.950 . S
C2316 H2308 0.950 . S
C2316 C2317 1.386 . S
C2316 C2318 1.391 . S
C2317 C2316 1.386 . S
C2317 C2321 1.393 . S
C2318 H2310 0.950 . S
C2318 C2316 1.391 . S
C2318 C2319 1.400 . S
C2319 C2318 1.400 . S
C2319 C2320 1.398 . S
C2319 C2325 1.491 . S
C2320 H2311 0.950 . S
C2320 C2319 1.398 . S
C2320 C2321 1.391 . S
C2321 H2309 0.950 . S
C2321 C2317 1.393 . S
C2321 C2320 1.391 . S
C2322 H2312 0.950 . S
C2322 C2323 1.386 . S
C2322 C2324 1.391 . S
C2323 C2322 1.386 . S
C2323 C2327 1.393 . S
C2324 H2313 0.950 . S
C2324 C2322 1.391 . S
C2324 C2325 1.400 . S
C2325 C2319 1.491 . S
C2325 C2324 1.400 . S
C2325 C2326 1.398 . S
C2326 H2314 0.950 . S
C2326 C2325 1.398 . S
C2326 C2327 1.391 . S
C2327 H2315 0.950 . S
C2327 C2323 1.393 . S
C2327 C2326 1.391 . S
H2328 C2336 0.950 . S
H2329 C2341 0.950 . S
H2330 C2338 0.950 . S
H2331 C2340 0.950 . S
H2332 C2342 0.950 . S
H2333 C2344 0.950 . S
H2334 C2346 0.950 . S
H2335 C2347 0.950 . S
C2336 H2328 0.950 . S
C2336 C2337 1.386 . S
C2336 C2338 1.391 . S
C2337 C2336 1.386 . S
C2337 C2341 1.393 . S
C2338 H2330 0.950 . S
C2338 C2336 1.391 . S
C2338 C2339 1.400 . S
C2339 C2338 1.400 . S
C2339 C2340 1.398 . S
C2339 C2345 1.491 . S
C2340 H2331 0.950 . S
C2340 C2339 1.398 . S
C2340 C2341 1.391 . S
C2341 H2329 0.950 . S
C2341 C2337 1.393 . S
C2341 C2340 1.391 . S
C2342 H2332 0.950 . S
C2342 C2343 1.386 . S
C2342 C2344 1.391 . S
C2343 C2342 1.386 . S
C2343 C2347 1.393 . S
C2344 H2333 0.950 . S
C2344 C2342 1.391 . S
C2344 C2345 1.400 . S
C2345 C2339 1.491 . S
C2345 C2344 1.400 . S
C2345 C2346 1.398 . S
C2346 H2334 0.950 . S
C2346 C2345 1.398 . S
C2346 C2347 1.391 . S
C2347 H2335 0.950 . S
C2347 C2343 1.393 . S
C2347 C2346 1.391 . S
H2348 C2356 0.950 . S
H2349 C2361 0.950 . S
H2350 C2358 0.950 . S
H2351 C2360 0.950 . S
H2352 C2362 0.950 . S
H2353 C2364 0.950 . S
H2354 C2366 0.950 . S
H2355 C2367 0.950 . S
C2356 H2348 0.950 . S
C2356 C2357 1.386 . S
C2356 C2358 1.391 . S
C2357 C2356 1.386 . S
C2357 C2361 1.393 . S
C2358 H2350 0.950 . S
C2358 C2356 1.391 . S
C2358 C2359 1.400 . S
C2359 C2358 1.400 . S
C2359 C2360 1.398 . S
C2359 C2365 1.491 . S
C2360 H2351 0.950 . S
C2360 C2359 1.398 . S
C2360 C2361 1.391 . S
C2361 H2349 0.950 . S
C2361 C2357 1.393 . S
C2361 C2360 1.391 . S
C2362 H2352 0.950 . S
C2362 C2363 1.386 . S
C2362 C2364 1.391 . S
C2363 C2362 1.386 . S
C2363 C2367 1.393 . S
C2364 H2353 0.950 . S
C2364 C2362 1.391 . S
C2364 C2365 1.400 . S
C2365 C2359 1.491 . S
C2365 C2364 1.400 . S
C2365 C2366 1.398 . S
C2366 H2354 0.950 . S
C2366 C2365 1.398 . S
C2366 C2367 1.391 . S
C2367 H2355 0.950 . S
C2367 C2363 1.393 . S
C2367 C2366 1.391 . S
H2368 C2376 0.950 . S
H2369 C2381 0.950 . S
H2370 C2378 0.950 . S
H2371 C2380 0.950 . S
H2372 C2382 0.950 . S
H2373 C2384 0.950 . S
H2374 C2386 0.950 . S
H2375 C2387 0.950 . S
C2376 H2368 0.950 . S
C2376 C2377 1.386 . S
C2376 C2378 1.391 . S
C2377 C2376 1.386 . S
C2377 C2381 1.393 . S
C2378 H2370 0.950 . S
C2378 C2376 1.391 . S
C2378 C2379 1.400 . S
C2379 C2378 1.400 . S
C2379 C2380 1.398 . S
C2379 C2385 1.491 . S
C2380 H2371 0.950 . S
C2380 C2379 1.398 . S
C2380 C2381 1.391 . S
C2381 H2369 0.950 . S
C2381 C2377 1.393 . S
C2381 C2380 1.391 . S
C2382 H2372 0.950 . S
C2382 C2383 1.386 . S
C2382 C2384 1.391 . S
C2383 C2382 1.386 . S
C2383 C2387 1.393 . S
C2384 H2373 0.950 . S
C2384 C2382 1.391 . S
C2384 C2385 1.400 . S
C2385 C2379 1.491 . S
C2385 C2384 1.400 . S
C2385 C2386 1.398 . S
C2386 H2374 0.950 . S
C2386 C2385 1.398 . S
C2386 C2387 1.391 . S
C2387 H2375 0.950 . S
C2387 C2383 1.393 . S
C2387 C2386 1.391 . S
H2388 C2396 0.950 . S
H2389 C2401 0.950 . S
H2390 C2398 0.950 . S
H2391 C2400 0.950 . S
H2392 C2402 0.950 . S
H2393 C2404 0.950 . S
H2394 C2406 0.950 . S
H2395 C2407 0.950 . S
C2396 H2388 0.950 . S
C2396 C2397 1.386 . S
C2396 C2398 1.391 . S
C2397 C2396 1.386 . S
C2397 C2401 1.393 . S
C2398 H2390 0.950 . S
C2398 C2396 1.391 . S
C2398 C2399 1.400 . S
C2399 C2398 1.400 . S
C2399 C2400 1.398 . S
C2399 C2405 1.491 . S
C2400 H2391 0.950 . S
C2400 C2399 1.398 . S
C2400 C2401 1.391 . S
C2401 H2389 0.950 . S
C2401 C2397 1.393 . S
C2401 C2400 1.391 . S
C2402 H2392 0.950 . S
C2402 C2403 1.386 . S
C2402 C2404 1.391 . S
C2403 C2402 1.386 . S
C2403 C2407 1.393 . S
C2404 H2393 0.950 . S
C2404 C2402 1.391 . S
C2404 C2405 1.400 . S
C2405 C2399 1.491 . S
C2405 C2404 1.400 . S
C2405 C2406 1.398 . S
C2406 H2394 0.950 . S
C2406 C2405 1.398 . S
C2406 C2407 1.391 . S
C2407 H2395 0.950 . S
C2407 C2403 1.393 . S
C2407 C2406 1.391 . S
H2408 C2416 0.950 . S
H2409 C2421 0.950 . S
H2410 C2418 0.950 . S
H2411 C2420 0.950 . S
H2412 C2422 0.950 . S
H2413 C2424 0.950 . S
H2414 C2426 0.950 . S
H2415 C2427 0.950 . S
C2416 H2408 0.950 . S
C2416 C2417 1.386 . S
C2416 C2418 1.391 . S
C2417 C2416 1.386 . S
C2417 C2421 1.393 . S
C2418 H2410 0.950 . S
C2418 C2416 1.391 . S
C2418 C2419 1.400 . S
C2419 C2418 1.400 . S
C2419 C2420 1.398 . S
C2419 C2425 1.491 . S
C2420 H2411 0.950 . S
C2420 C2419 1.398 . S
C2420 C2421 1.391 . S
C2421 H2409 0.950 . S
C2421 C2417 1.393 . S
C2421 C2420 1.391 . S
C2422 H2412 0.950 . S
C2422 C2423 1.386 . S
C2422 C2424 1.391 . S
C2423 C2422 1.386 . S
C2423 C2427 1.393 . S
C2424 H2413 0.950 . S
C2424 C2422 1.391 . S
C2424 C2425 1.400 . S
C2425 C2419 1.491 . S
C2425 C2424 1.400 . S
C2425 C2426 1.398 . S
C2426 H2414 0.950 . S
C2426 C2425 1.398 . S
C2426 C2427 1.391 . S
C2427 H2415 0.950 . S
C2427 C2423 1.393 . S
C2427 C2426 1.391 . S
H2428 C2436 0.950 . S
H2429 C2441 0.950 . S
H2430 C2438 0.950 . S
H2431 C2440 0.950 . S
H2432 C2442 0.950 . S
H2433 C2444 0.950 . S
H2434 C2446 0.950 . S
H2435 C2447 0.950 . S
C2436 H2428 0.950 . S
C2436 C2437 1.386 . S
C2436 C2438 1.391 . S
C2437 C2436 1.386 . S
C2437 C2441 1.393 . S
C2438 H2430 0.950 . S
C2438 C2436 1.391 . S
C2438 C2439 1.400 . S
C2439 C2438 1.400 . S
C2439 C2440 1.398 . S
C2439 C2445 1.491 . S
C2440 H2431 0.950 . S
C2440 C2439 1.398 . S
C2440 C2441 1.391 . S
C2441 H2429 0.950 . S
C2441 C2437 1.393 . S
C2441 C2440 1.391 . S
C2442 H2432 0.950 . S
C2442 C2443 1.386 . S
C2442 C2444 1.391 . S
C2443 C2442 1.386 . S
C2443 C2447 1.393 . S
C2444 H2433 0.950 . S
C2444 C2442 1.391 . S
C2444 C2445 1.400 . S
C2445 C2439 1.491 . S
C2445 C2444 1.400 . S
C2445 C2446 1.398 . S
C2446 H2434 0.950 . S
C2446 C2445 1.398 . S
C2446 C2447 1.391 . S
C2447 H2435 0.950 . S
C2447 C2443 1.393 . S
C2447 C2446 1.391 . S
H2448 C2456 0.950 . S
H2449 C2461 0.950 . S
H2450 C2458 0.950 . S
H2451 C2460 0.950 . S
H2452 C2462 0.950 . S
H2453 C2464 0.950 . S
H2454 C2466 0.950 . S
H2455 C2467 0.950 . S
C2456 H2448 0.950 . S
C2456 C2457 1.386 . S
C2456 C2458 1.391 . S
C2457 C2456 1.386 . S
C2457 C2461 1.393 . S
C2458 H2450 0.950 . S
C2458 C2456 1.391 . S
C2458 C2459 1.400 . S
C2459 C2458 1.400 . S
C2459 C2460 1.398 . S
C2459 C2465 1.491 . S
C2460 H2451 0.950 . S
C2460 C2459 1.398 . S
C2460 C2461 1.391 . S
C2461 H2449 0.950 . S
C2461 C2457 1.393 . S
C2461 C2460 1.391 . S
C2462 H2452 0.950 . S
C2462 C2463 1.386 . S
C2462 C2464 1.391 . S
C2463 C2462 1.386 . S
C2463 C2467 1.393 . S
C2464 H2453 0.950 . S
C2464 C2462 1.391 . S
C2464 C2465 1.400 . S
C2465 C2459 1.491 . S
C2465 C2464 1.400 . S
C2465 C2466 1.398 . S
C2466 H2454 0.950 . S
C2466 C2465 1.398 . S
C2466 C2467 1.391 . S
C2467 H2455 0.950 . S
C2467 C2463 1.393 . S
C2467 C2466 1.391 . S
H2468 C2476 0.950 . S
H2469 C2481 0.950 . S
H2470 C2478 0.950 . S
H2471 C2480 0.950 . S
H2472 C2482 0.950 . S
H2473 C2484 0.950 . S
H2474 C2486 0.950 . S
H2475 C2487 0.950 . S
C2476 H2468 0.950 . S
C2476 C2477 1.386 . S
C2476 C2478 1.391 . S
C2477 C2476 1.386 . S
C2477 C2481 1.393 . S
C2478 H2470 0.950 . S
C2478 C2476 1.391 . S
C2478 C2479 1.400 . S
C2479 C2478 1.400 . S
C2479 C2480 1.398 . S
C2479 C2485 1.491 . S
C2480 H2471 0.950 . S
C2480 C2479 1.398 . S
C2480 C2481 1.391 . S
C2481 H2469 0.950 . S
C2481 C2477 1.393 . S
C2481 C2480 1.391 . S
C2482 H2472 0.950 . S
C2482 C2483 1.386 . S
C2482 C2484 1.391 . S
C2483 C2482 1.386 . S
C2483 C2487 1.393 . S
C2484 H2473 0.950 . S
C2484 C2482 1.391 . S
C2484 C2485 1.400 . S
C2485 C2479 1.491 . S
C2485 C2484 1.400 . S
C2485 C2486 1.398 . S
C2486 H2474 0.950 . S
C2486 C2485 1.398 . S
C2486 C2487 1.391 . S
C2487 H2475 0.950 . S
C2487 C2483 1.393 . S
C2487 C2486 1.391 . S
H2488 C2496 0.950 . S
H2489 C2501 0.950 . S
H2490 C2498 0.950 . S
H2491 C2500 0.950 . S
H2492 C2502 0.950 . S
H2493 C2504 0.950 . S
H2494 C2506 0.950 . S
H2495 C2507 0.950 . S
C2496 H2488 0.950 . S
C2496 C2497 1.386 . S
C2496 C2498 1.391 . S
C2497 C2496 1.386 . S
C2497 C2501 1.393 . S
C2498 H2490 0.950 . S
C2498 C2496 1.391 . S
C2498 C2499 1.400 . S
C2499 C2498 1.400 . S
C2499 C2500 1.398 . S
C2499 C2505 1.491 . S
C2500 H2491 0.950 . S
C2500 C2499 1.398 . S
C2500 C2501 1.391 . S
C2501 H2489 0.950 . S
C2501 C2497 1.393 . S
C2501 C2500 1.391 . S
C2502 H2492 0.950 . S
C2502 C2503 1.386 . S
C2502 C2504 1.391 . S
C2503 C2502 1.386 . S
C2503 C2507 1.393 . S
C2504 H2493 0.950 . S
C2504 C2502 1.391 . S
C2504 C2505 1.400 . S
C2505 C2499 1.491 . S
C2505 C2504 1.400 . S
C2505 C2506 1.398 . S
C2506 H2494 0.950 . S
C2506 C2505 1.398 . S
C2506 C2507 1.391 . S
C2507 H2495 0.950 . S
C2507 C2503 1.393 . S
C2507 C2506 1.391 . S
H2508 C2516 0.950 . S
H2509 C2521 0.950 . S
H2510 C2518 0.950 . S
H2511 C2520 0.950 . S
H2512 C2522 0.950 . S
H2513 C2524 0.950 . S
H2514 C2526 0.950 . S
H2515 C2527 0.950 . S
C2516 H2508 0.950 . S
C2516 C2517 1.386 . S
C2516 C2518 1.391 . S
C2517 C2516 1.386 . S
C2517 C2521 1.393 . S
C2518 H2510 0.950 . S
C2518 C2516 1.391 . S
C2518 C2519 1.400 . S
C2519 C2518 1.400 . S
C2519 C2520 1.398 . S
C2519 C2525 1.491 . S
C2520 H2511 0.950 . S
C2520 C2519 1.398 . S
C2520 C2521 1.391 . S
C2521 H2509 0.950 . S
C2521 C2517 1.393 . S
C2521 C2520 1.391 . S
C2522 H2512 0.950 . S
C2522 C2523 1.386 . S
C2522 C2524 1.391 . S
C2523 C2522 1.386 . S
C2523 C2527 1.393 . S
C2524 H2513 0.950 . S
C2524 C2522 1.391 . S
C2524 C2525 1.400 . S
C2525 C2519 1.491 . S
C2525 C2524 1.400 . S
C2525 C2526 1.398 . S
C2526 H2514 0.950 . S
C2526 C2525 1.398 . S
C2526 C2527 1.391 . S
C2527 H2515 0.950 . S
C2527 C2523 1.393 . S
C2527 C2526 1.391 . S
H2528 C2536 0.950 . S
H2529 C2541 0.950 . S
H2530 C2538 0.950 . S
H2531 C2540 0.950 . S
H2532 C2542 0.950 . S
H2533 C2544 0.950 . S
H2534 C2546 0.950 . S
H2535 C2547 0.950 . S
C2536 H2528 0.950 . S
C2536 C2537 1.386 . S
C2536 C2538 1.391 . S
C2537 C2536 1.386 . S
C2537 C2541 1.393 . S
C2538 H2530 0.950 . S
C2538 C2536 1.391 . S
C2538 C2539 1.400 . S
C2539 C2538 1.400 . S
C2539 C2540 1.398 . S
C2539 C2545 1.491 . S
C2540 H2531 0.950 . S
C2540 C2539 1.398 . S
C2540 C2541 1.391 . S
C2541 H2529 0.950 . S
C2541 C2537 1.393 . S
C2541 C2540 1.391 . S
C2542 H2532 0.950 . S
C2542 C2543 1.386 . S
C2542 C2544 1.391 . S
C2543 C2542 1.386 . S
C2543 C2547 1.393 . S
C2544 H2533 0.950 . S
C2544 C2542 1.391 . S
C2544 C2545 1.400 . S
C2545 C2539 1.491 . S
C2545 C2544 1.400 . S
C2545 C2546 1.398 . S
C2546 H2534 0.950 . S
C2546 C2545 1.398 . S
C2546 C2547 1.391 . S
C2547 H2535 0.950 . S
C2547 C2543 1.393 . S
C2547 C2546 1.391 . S
H2548 C2556 0.950 . S
H2549 C2561 0.950 . S
H2550 C2558 0.950 . S
H2551 C2560 0.950 . S
H2552 C2562 0.950 . S
H2553 C2564 0.950 . S
H2554 C2566 0.950 . S
H2555 C2567 0.950 . S
C2556 H2548 0.950 . S
C2556 C2557 1.386 . S
C2556 C2558 1.391 . S
C2557 C2556 1.386 . S
C2557 C2561 1.393 . S
C2558 H2550 0.950 . S
C2558 C2556 1.391 . S
C2558 C2559 1.400 . S
C2559 C2558 1.400 . S
C2559 C2560 1.398 . S
C2559 C2565 1.491 . S
C2560 H2551 0.950 . S
C2560 C2559 1.398 . S
C2560 C2561 1.391 . S
C2561 H2549 0.950 . S
C2561 C2557 1.393 . S
C2561 C2560 1.391 . S
C2562 H2552 0.950 . S
C2562 C2563 1.386 . S
C2562 C2564 1.391 . S
C2563 C2562 1.386 . S
C2563 C2567 1.393 . S
C2564 H2553 0.950 . S
C2564 C2562 1.391 . S
C2564 C2565 1.400 . S
C2565 C2559 1.491 . S
C2565 C2564 1.400 . S
C2565 C2566 1.398 . S
C2566 H2554 0.950 . S
C2566 C2565 1.398 . S
C2566 C2567 1.391 . S
C2567 H2555 0.950 . S
C2567 C2563 1.393 . S
C2567 C2566 1.391 . S
H2568 C2576 0.950 . S
H2569 C2581 0.950 . S
H2570 C2578 0.950 . S
H2571 C2580 0.950 . S
H2572 C2582 0.950 . S
H2573 C2584 0.950 . S
H2574 C2586 0.950 . S
H2575 C2587 0.950 . S
C2576 H2568 0.950 . S
C2576 C2577 1.386 . S
C2576 C2578 1.391 . S
C2577 C2576 1.386 . S
C2577 C2581 1.393 . S
C2578 H2570 0.950 . S
C2578 C2576 1.391 . S
C2578 C2579 1.400 . S
C2579 C2578 1.400 . S
C2579 C2580 1.398 . S
C2579 C2585 1.491 . S
C2580 H2571 0.950 . S
C2580 C2579 1.398 . S
C2580 C2581 1.391 . S
C2581 H2569 0.950 . S
C2581 C2577 1.393 . S
C2581 C2580 1.391 . S
C2582 H2572 0.950 . S
C2582 C2583 1.386 . S
C2582 C2584 1.391 . S
C2583 C2582 1.386 . S
C2583 C2587 1.393 . S
C2584 H2573 0.950 . S
C2584 C2582 1.391 . S
C2584 C2585 1.400 . S
C2585 C2579 1.491 . S
C2585 C2584 1.400 . S
C2585 C2586 1.398 . S
C2586 H2574 0.950 . S
C2586 C2585 1.398 . S
C2586 C2587 1.391 . S
C2587 H2575 0.950 . S
C2587 C2583 1.393 . S
C2587 C2586 1.391 . S
H2588 C2596 0.950 . S
H2589 C2601 0.950 . S
H2590 C2598 0.950 . S
H2591 C2600 0.950 . S
H2592 C2602 0.950 . S
H2593 C2604 0.950 . S
H2594 C2606 0.950 . S
H2595 C2607 0.950 . S
C2596 H2588 0.950 . S
C2596 C2597 1.386 . S
C2596 C2598 1.391 . S
C2597 C2596 1.386 . S
C2597 C2601 1.393 . S
C2598 H2590 0.950 . S
C2598 C2596 1.391 . S
C2598 C2599 1.400 . S
C2599 C2598 1.400 . S
C2599 C2600 1.398 . S
C2599 C2605 1.491 . S
C2600 H2591 0.950 . S
C2600 C2599 1.398 . S
C2600 C2601 1.391 . S
C2601 H2589 0.950 . S
C2601 C2597 1.393 . S
C2601 C2600 1.391 . S
C2602 H2592 0.950 . S
C2602 C2603 1.386 . S
C2602 C2604 1.391 . S
C2603 C2602 1.386 . S
C2603 C2607 1.393 . S
C2604 H2593 0.950 . S
C2604 C2602 1.391 . S
C2604 C2605 1.400 . S
C2605 C2599 1.491 . S
C2605 C2604 1.400 . S
C2605 C2606 1.398 . S
C2606 H2594 0.950 . S
C2606 C2605 1.398 . S
C2606 C2607 1.391 . S
C2607 H2595 0.950 . S
C2607 C2603 1.393 . S
C2607 C2606 1.391 . S
H2608 C2616 0.950 . S
H2609 C2621 0.950 . S
H2610 C2618 0.950 . S
H2611 C2620 0.950 . S
H2612 C2622 0.950 . S
H2613 C2624 0.950 . S
H2614 C2626 0.950 . S
H2615 C2627 0.950 . S
C2616 H2608 0.950 . S
C2616 C2617 1.386 . S
C2616 C2618 1.391 . S
C2617 C2616 1.386 . S
C2617 C2621 1.393 . S
C2618 H2610 0.950 . S
C2618 C2616 1.391 . S
C2618 C2619 1.400 . S
C2619 C2618 1.400 . S
C2619 C2620 1.398 . S
C2619 C2625 1.491 . S
C2620 H2611 0.950 . S
C2620 C2619 1.398 . S
C2620 C2621 1.391 . S
C2621 H2609 0.950 . S
C2621 C2617 1.393 . S
C2621 C2620 1.391 . S
C2622 H2612 0.950 . S
C2622 C2623 1.386 . S
C2622 C2624 1.391 . S
C2623 C2622 1.386 . S
C2623 C2627 1.393 . S
C2624 H2613 0.950 . S
C2624 C2622 1.391 . S
C2624 C2625 1.400 . S
C2625 C2619 1.491 . S
C2625 C2624 1.400 . S
C2625 C2626 1.398 . S
C2626 H2614 0.950 . S
C2626 C2625 1.398 . S
C2626 C2627 1.391 . S
C2627 H2615 0.950 . S
C2627 C2623 1.393 . S
C2627 C2626 1.391 . S
H2628 C2636 0.950 . S
H2629 C2641 0.950 . S
H2630 C2638 0.950 . S
H2631 C2640 0.950 . S
H2632 C2642 0.950 . S
H2633 C2644 0.950 . S
H2634 C2646 0.950 . S
H2635 C2647 0.950 . S
C2636 H2628 0.950 . S
C2636 C2637 1.386 . S
C2636 C2638 1.391 . S
C2637 C2636 1.386 . S
C2637 C2641 1.393 . S
C2638 H2630 0.950 . S
C2638 C2636 1.391 . S
C2638 C2639 1.400 . S
C2639 C2638 1.400 . S
C2639 C2640 1.398 . S
C2639 C2645 1.491 . S
C2640 H2631 0.950 . S
C2640 C2639 1.398 . S
C2640 C2641 1.391 . S
C2641 H2629 0.950 . S
C2641 C2637 1.393 . S
C2641 C2640 1.391 . S
C2642 H2632 0.950 . S
C2642 C2643 1.386 . S
C2642 C2644 1.391 . S
C2643 C2642 1.386 . S
C2643 C2647 1.393 . S
C2644 H2633 0.950 . S
C2644 C2642 1.391 . S
C2644 C2645 1.400 . S
C2645 C2639 1.491 . S
C2645 C2644 1.400 . S
C2645 C2646 1.398 . S
C2646 H2634 0.950 . S
C2646 C2645 1.398 . S
C2646 C2647 1.391 . S
C2647 H2635 0.950 . S
C2647 C2643 1.393 . S
C2647 C2646 1.391 . S
H2648 C2656 0.950 . S
H2649 C2661 0.950 . S
H2650 C2658 0.950 . S
H2651 C2660 0.950 . S
H2652 C2662 0.950 . S
H2653 C2664 0.950 . S
H2654 C2666 0.950 . S
H2655 C2667 0.950 . S
C2656 H2648 0.950 . S
C2656 C2657 1.386 . S
C2656 C2658 1.391 . S
C2657 C2656 1.386 . S
C2657 C2661 1.393 . S
C2658 H2650 0.950 . S
C2658 C2656 1.391 . S
C2658 C2659 1.400 . S
C2659 C2658 1.400 . S
C2659 C2660 1.398 . S
C2659 C2665 1.491 . S
C2660 H2651 0.950 . S
C2660 C2659 1.398 . S
C2660 C2661 1.391 . S
C2661 H2649 0.950 . S
C2661 C2657 1.393 . S
C2661 C2660 1.391 . S
C2662 H2652 0.950 . S
C2662 C2663 1.386 . S
C2662 C2664 1.391 . S
C2663 C2662 1.386 . S
C2663 C2667 1.393 . S
C2664 H2653 0.950 . S
C2664 C2662 1.391 . S
C2664 C2665 1.400 . S
C2665 C2659 1.491 . S
C2665 C2664 1.400 . S
C2665 C2666 1.398 . S
C2666 H2654 0.950 . S
C2666 C2665 1.398 . S
C2666 C2667 1.391 . S
C2667 H2655 0.950 . S
C2667 C2663 1.393 . S
C2667 C2666 1.391 . S
H2668 C2676 0.950 . S
H2669 C2681 0.950 . S
H2670 C2678 0.950 . S
H2671 C2680 0.950 . S
H2672 C2682 0.950 . S
H2673 C2684 0.950 . S
H2674 C2686 0.950 . S
H2675 C2687 0.950 . S
C2676 H2668 0.950 . S
C2676 C2677 1.386 . S
C2676 C2678 1.391 . S
C2677 C2676 1.386 . S
C2677 C2681 1.393 . S
C2678 H2670 0.950 . S
C2678 C2676 1.391 . S
C2678 C2679 1.400 . S
C2679 C2678 1.400 . S
C2679 C2680 1.398 . S
C2679 C2685 1.491 . S
C2680 H2671 0.950 . S
C2680 C2679 1.398 . S
C2680 C2681 1.391 . S
C2681 H2669 0.950 . S
C2681 C2677 1.393 . S
C2681 C2680 1.391 . S
C2682 H2672 0.950 . S
C2682 C2683 1.386 . S
C2682 C2684 1.391 . S
C2683 C2682 1.386 . S
C2683 C2687 1.393 . S
C2684 H2673 0.950 . S
C2684 C2682 1.391 . S
C2684 C2685 1.400 . S
C2685 C2679 1.491 . S
C2685 C2684 1.400 . S
C2685 C2686 1.398 . S
C2686 H2674 0.950 . S
C2686 C2685 1.398 . S
C2686 C2687 1.391 . S
C2687 H2675 0.950 . S
C2687 C2683 1.393 . S
C2687 C2686 1.391 . S
H2688 C2696 0.950 . S
H2689 C2701 0.950 . S
H2690 C2698 0.950 . S
H2691 C2700 0.950 . S
H2692 C2702 0.950 . S
H2693 C2704 0.950 . S
H2694 C2706 0.950 . S
H2695 C2707 0.950 . S
C2696 H2688 0.950 . S
C2696 C2697 1.386 . S
C2696 C2698 1.391 . S
C2697 C2696 1.386 . S
C2697 C2701 1.393 . S
C2698 H2690 0.950 . S
C2698 C2696 1.391 . S
C2698 C2699 1.400 . S
C2699 C2698 1.400 . S
C2699 C2700 1.398 . S
C2699 C2705 1.491 . S
C2700 H2691 0.950 . S
C2700 C2699 1.398 . S
C2700 C2701 1.391 . S
C2701 H2689 0.950 . S
C2701 C2697 1.393 . S
C2701 C2700 1.391 . S
C2702 H2692 0.950 . S
C2702 C2703 1.386 . S
C2702 C2704 1.391 . S
C2703 C2702 1.386 . S
C2703 C2707 1.393 . S
C2704 H2693 0.950 . S
C2704 C2702 1.391 . S
C2704 C2705 1.400 . S
C2705 C2699 1.491 . S
C2705 C2704 1.400 . S
C2705 C2706 1.398 . S
C2706 H2694 0.950 . S
C2706 C2705 1.398 . S
C2706 C2707 1.391 . S
C2707 H2695 0.950 . S
C2707 C2703 1.393 . S
C2707 C2706 1.391 . S
H2708 C2716 0.950 . S
H2709 C2721 0.950 . S
H2710 C2718 0.950 . S
H2711 C2720 0.950 . S
H2712 C2722 0.950 . S
H2713 C2724 0.950 . S
H2714 C2726 0.950 . S
H2715 C2727 0.950 . S
C2716 H2708 0.950 . S
C2716 C2717 1.386 . S
C2716 C2718 1.391 . S
C2717 C2716 1.386 . S
C2717 C2721 1.393 . S
C2718 H2710 0.950 . S
C2718 C2716 1.391 . S
C2718 C2719 1.400 . S
C2719 C2718 1.400 . S
C2719 C2720 1.398 . S
C2719 C2725 1.491 . S
C2720 H2711 0.950 . S
C2720 C2719 1.398 . S
C2720 C2721 1.391 . S
C2721 H2709 0.950 . S
C2721 C2717 1.393 . S
C2721 C2720 1.391 . S
C2722 H2712 0.950 . S
C2722 C2723 1.386 . S
C2722 C2724 1.391 . S
C2723 C2722 1.386 . S
C2723 C2727 1.393 . S
C2724 H2713 0.950 . S
C2724 C2722 1.391 . S
C2724 C2725 1.400 . S
C2725 C2719 1.491 . S
C2725 C2724 1.400 . S
C2725 C2726 1.398 . S
C2726 H2714 0.950 . S
C2726 C2725 1.398 . S
C2726 C2727 1.391 . S
C2727 H2715 0.950 . S
C2727 C2723 1.393 . S
C2727 C2726 1.391 . S
H2728 C2736 0.950 . S
H2729 C2741 0.950 . S
H2730 C2738 0.950 . S
H2731 C2740 0.950 . S
H2732 C2742 0.950 . S
H2733 C2744 0.950 . S
H2734 C2746 0.950 . S
H2735 C2747 0.950 . S
C2736 H2728 0.950 . S
C2736 C2737 1.386 . S
C2736 C2738 1.391 . S
C2737 C2736 1.386 . S
C2737 C2741 1.393 . S
C2738 H2730 0.950 . S
C2738 C2736 1.391 . S
C2738 C2739 1.400 . S
C2739 C2738 1.400 . S
C2739 C2740 1.398 . S
C2739 C2745 1.491 . S
C2740 H2731 0.950 . S
C2740 C2739 1.398 . S
C2740 C2741 1.391 . S
C2741 H2729 0.950 . S
C2741 C2737 1.393 . S
C2741 C2740 1.391 . S
C2742 H2732 0.950 . S
C2742 C2743 1.386 . S
C2742 C2744 1.391 . S
C2743 C2742 1.386 . S
C2743 C2747 1.393 . S
C2744 H2733 0.950 . S
C2744 C2742 1.391 . S
C2744 C2745 1.400 . S
C2745 C2739 1.491 . S
C2745 C2744 1.400 . S
C2745 C2746 1.398 . S
C2746 H2734 0.950 . S
C2746 C2745 1.398 . S
C2746 C2747 1.391 . S
C2747 H2735 0.950 . S
C2747 C2743 1.393 . S
C2747 C2746 1.391 . S
H2748 C2756 0.950 . S
H2749 C2761 0.950 . S
H2750 C2758 0.950 . S
H2751 C2760 0.950 . S
H2752 C2762 0.950 . S
H2753 C2764 0.950 . S
H2754 C2766 0.950 . S
H2755 C2767 0.950 . S
C2756 H2748 0.950 . S
C2756 C2757 1.386 . S
C2756 C2758 1.391 . S
C2757 C2756 1.386 . S
C2757 C2761 1.393 . S
C2758 H2750 0.950 . S
C2758 C2756 1.391 . S
C2758 C2759 1.400 . S
C2759 C2758 1.400 . S
C2759 C2760 1.398 . S
C2759 C2765 1.491 . S
C2760 H2751 0.950 . S
C2760 C2759 1.398 . S
C2760 C2761 1.391 . S
C2761 H2749 0.950 . S
C2761 C2757 1.393 . S
C2761 C2760 1.391 . S
C2762 H2752 0.950 . S
C2762 C2763 1.386 . S
C2762 C2764 1.391 . S
C2763 C2762 1.386 . S
C2763 C2767 1.393 . S
C2764 H2753 0.950 . S
C2764 C2762 1.391 . S
C2764 C2765 1.400 . S
C2765 C2759 1.491 . S
C2765 C2764 1.400 . S
C2765 C2766 1.398 . S
C2766 H2754 0.950 . S
C2766 C2765 1.398 . S
C2766 C2767 1.391 . S
C2767 H2755 0.950 . S
C2767 C2763 1.393 . S
C2767 C2766 1.391 . S
H2768 C2776 0.950 . S
H2769 C2781 0.950 . S
H2770 C2778 0.950 . S
H2771 C2780 0.950 . S
H2772 C2782 0.950 . S
H2773 C2784 0.950 . S
H2774 C2786 0.950 . S
H2775 C2787 0.950 . S
C2776 H2768 0.950 . S
C2776 C2777 1.386 . S
C2776 C2778 1.391 . S
C2777 C2776 1.386 . S
C2777 C2781 1.393 . S
C2778 H2770 0.950 . S
C2778 C2776 1.391 . S
C2778 C2779 1.400 . S
C2779 C2778 1.400 . S
C2779 C2780 1.398 . S
C2779 C2785 1.491 . S
C2780 H2771 0.950 . S
C2780 C2779 1.398 . S
C2780 C2781 1.391 . S
C2781 H2769 0.950 . S
C2781 C2777 1.393 . S
C2781 C2780 1.391 . S
C2782 H2772 0.950 . S
C2782 C2783 1.386 . S
C2782 C2784 1.391 . S
C2783 C2782 1.386 . S
C2783 C2787 1.393 . S
C2784 H2773 0.950 . S
C2784 C2782 1.391 . S
C2784 C2785 1.400 . S
C2785 C2779 1.491 . S
C2785 C2784 1.400 . S
C2785 C2786 1.398 . S
C2786 H2774 0.950 . S
C2786 C2785 1.398 . S
C2786 C2787 1.391 . S
C2787 H2775 0.950 . S
C2787 C2783 1.393 . S
C2787 C2786 1.391 . S
H2788 C2796 0.950 . S
H2789 C2801 0.950 . S
H2790 C2798 0.950 . S
H2791 C2800 0.950 . S
H2792 C2802 0.950 . S
H2793 C2804 0.950 . S
H2794 C2806 0.950 . S
H2795 C2807 0.950 . S
C2796 H2788 0.950 . S
C2796 C2797 1.386 . S
C2796 C2798 1.391 . S
C2797 C2796 1.386 . S
C2797 C2801 1.393 . S
C2798 H2790 0.950 . S
C2798 C2796 1.391 . S
C2798 C2799 1.400 . S
C2799 C2798 1.400 . S
C2799 C2800 1.398 . S
C2799 C2805 1.491 . S
C2800 H2791 0.950 . S
C2800 C2799 1.398 . S
C2800 C2801 1.391 . S
C2801 H2789 0.950 . S
C2801 C2797 1.393 . S
C2801 C2800 1.391 . S
C2802 H2792 0.950 . S
C2802 C2803 1.386 . S
C2802 C2804 1.391 . S
C2803 C2802 1.386 . S
C2803 C2807 1.393 . S
C2804 H2793 0.950 . S
C2804 C2802 1.391 . S
C2804 C2805 1.400 . S
C2805 C2799 1.491 . S
C2805 C2804 1.400 . S
C2805 C2806 1.398 . S
C2806 H2794 0.950 . S
C2806 C2805 1.398 . S
C2806 C2807 1.391 . S
C2807 H2795 0.950 . S
C2807 C2803 1.393 . S
C2807 C2806 1.391 . S
H2808 C2816 0.950 . S
H2809 C2821 0.950 . S
H2810 C2818 0.950 . S
H2811 C2820 0.950 . S
H2812 C2822 0.950 . S
H2813 C2824 0.950 . S
H2814 C2826 0.950 . S
H2815 C2827 0.950 . S
C2816 H2808 0.950 . S
C2816 C2817 1.386 . S
C2816 C2818 1.391 . S
C2817 C2816 1.386 . S
C2817 C2821 1.393 . S
C2818 H2810 0.950 . S
C2818 C2816 1.391 . S
C2818 C2819 1.400 . S
C2819 C2818 1.400 . S
C2819 C2820 1.398 . S
C2819 C2825 1.491 . S
C2820 H2811 0.950 . S
C2820 C2819 1.398 . S
C2820 C2821 1.391 . S
C2821 H2809 0.950 . S
C2821 C2817 1.393 . S
C2821 C2820 1.391 . S
C2822 H2812 0.950 . S
C2822 C2823 1.386 . S
C2822 C2824 1.391 . S
C2823 C2822 1.386 . S
C2823 C2827 1.393 . S
C2824 H2813 0.950 . S
C2824 C2822 1.391 . S
C2824 C2825 1.400 . S
C2825 C2819 1.491 . S
C2825 C2824 1.400 . S
C2825 C2826 1.398 . S
C2826 H2814 0.950 . S
C2826 C2825 1.398 . S
C2826 C2827 1.391 . S
C2827 H2815 0.950 . S
C2827 C2823 1.393 . S
C2827 C2826 1.391 . S
H2828 C2836 0.950 . S
H2829 C2841 0.950 . S
H2830 C2838 0.950 . S
H2831 C2840 0.950 . S
H2832 C2842 0.950 . S
H2833 C2844 0.950 . S
H2834 C2846 0.950 . S
H2835 C2847 0.950 . S
C2836 H2828 0.950 . S
C2836 C2837 1.386 . S
C2836 C2838 1.391 . S
C2837 C2836 1.386 . S
C2837 C2841 1.393 . S
C2838 H2830 0.950 . S
C2838 C2836 1.391 . S
C2838 C2839 1.400 . S
C2839 C2838 1.400 . S
C2839 C2840 1.398 . S
C2839 C2845 1.491 . S
C2840 H2831 0.950 . S
C2840 C2839 1.398 . S
C2840 C2841 1.391 . S
C2841 H2829 0.950 . S
C2841 C2837 1.393 . S
C2841 C2840 1.391 . S
C2842 H2832 0.950 . S
C2842 C2843 1.386 . S
C2842 C2844 1.391 . S
C2843 C2842 1.386 . S
C2843 C2847 1.393 . S
C2844 H2833 0.950 . S
C2844 C2842 1.391 . S
C2844 C2845 1.400 . S
C2845 C2839 1.491 . S
C2845 C2844 1.400 . S
C2845 C2846 1.398 . S
C2846 H2834 0.950 . S
C2846 C2845 1.398 . S
C2846 C2847 1.391 . S
C2847 H2835 0.950 . S
C2847 C2843 1.393 . S
C2847 C2846 1.391 . S
H2848 C2856 0.950 . S
H2849 C2861 0.950 . S
H2850 C2858 0.950 . S
H2851 C2860 0.950 . S
H2852 C2862 0.950 . S
H2853 C2864 0.950 . S
H2854 C2866 0.950 . S
H2855 C2867 0.950 . S
C2856 H2848 0.950 . S
C2856 C2857 1.386 . S
C2856 C2858 1.391 . S
C2857 C2856 1.386 . S
C2857 C2861 1.393 . S
C2858 H2850 0.950 . S
C2858 C2856 1.391 . S
C2858 C2859 1.400 . S
C2859 C2858 1.400 . S
C2859 C2860 1.398 . S
C2859 C2865 1.491 . S
C2860 H2851 0.950 . S
C2860 C2859 1.398 . S
C2860 C2861 1.391 . S
C2861 H2849 0.950 . S
C2861 C2857 1.393 . S
C2861 C2860 1.391 . S
C2862 H2852 0.950 . S
C2862 C2863 1.386 . S
C2862 C2864 1.391 . S
C2863 C2862 1.386 . S
C2863 C2867 1.393 . S
C2864 H2853 0.950 . S
C2864 C2862 1.391 . S
C2864 C2865 1.400 . S
C2865 C2859 1.491 . S
C2865 C2864 1.400 . S
C2865 C2866 1.398 . S
C2866 H2854 0.950 . S
C2866 C2865 1.398 . S
C2866 C2867 1.391 . S
C2867 H2855 0.950 . S
C2867 C2863 1.393 . S
C2867 C2866 1.391 . S
H2868 C2876 0.950 . S
H2869 C2881 0.950 . S
H2870 C2878 0.950 . S
H2871 C2880 0.950 . S
H2872 C2882 0.950 . S
H2873 C2884 0.950 . S
H2874 C2886 0.950 . S
H2875 C2887 0.950 . S
C2876 H2868 0.950 . S
C2876 C2877 1.386 . S
C2876 C2878 1.391 . S
C2877 C2876 1.386 . S
C2877 C2881 1.393 . S
C2878 H2870 0.950 . S
C2878 C2876 1.391 . S
C2878 C2879 1.400 . S
C2879 C2878 1.400 . S
C2879 C2880 1.398 . S
C2879 C2885 1.491 . S
C2880 H2871 0.950 . S
C2880 C2879 1.398 . S
C2880 C2881 1.391 . S
C2881 H2869 0.950 . S
C2881 C2877 1.393 . S
C2881 C2880 1.391 . S
C2882 H2872 0.950 . S
C2882 C2883 1.386 . S
C2882 C2884 1.391 . S
C2883 C2882 1.386 . S
C2883 C2887 1.393 . S
C2884 H2873 0.950 . S
C2884 C2882 1.391 . S
C2884 C2885 1.400 . S
C2885 C2879 1.491 . S
C2885 C2884 1.400 . S
C2885 C2886 1.398 . S
C2886 H2874 0.950 . S
C2886 C2885 1.398 . S
C2886 C2887 1.391 . S
C2887 H2875 0.950 . S
C2887 C2883 1.393 . S
C2887 C2886 1.391 . S
H2888 C2896 0.950 . S
H2889 C2901 0.950 . S
H2890 C2898 0.950 . S
H2891 C2900 0.950 . S
H2892 C2902 0.950 . S
H2893 C2904 0.950 . S
H2894 C2906 0.950 . S
H2895 C2907 0.950 . S
C2896 H2888 0.950 . S
C2896 C2897 1.386 . S
C2896 C2898 1.391 . S
C2897 C2896 1.386 . S
C2897 C2901 1.393 . S
C2898 H2890 0.950 . S
C2898 C2896 1.391 . S
C2898 C2899 1.400 . S
C2899 C2898 1.400 . S
C2899 C2900 1.398 . S
C2899 C2905 1.491 . S
C2900 H2891 0.950 . S
C2900 C2899 1.398 . S
C2900 C2901 1.391 . S
C2901 H2889 0.950 . S
C2901 C2897 1.393 . S
C2901 C2900 1.391 . S
C2902 H2892 0.950 . S
C2902 C2903 1.386 . S
C2902 C2904 1.391 . S
C2903 C2902 1.386 . S
C2903 C2907 1.393 . S
C2904 H2893 0.950 . S
C2904 C2902 1.391 . S
C2904 C2905 1.400 . S
C2905 C2899 1.491 . S
C2905 C2904 1.400 . S
C2905 C2906 1.398 . S
C2906 H2894 0.950 . S
C2906 C2905 1.398 . S
C2906 C2907 1.391 . S
C2907 H2895 0.950 . S
C2907 C2903 1.393 . S
C2907 C2906 1.391 . S
H2908 C2916 0.950 . S
H2909 C2921 0.950 . S
H2910 C2918 0.950 . S
H2911 C2920 0.950 . S
H2912 C2922 0.950 . S
H2913 C2924 0.950 . S
H2914 C2926 0.950 . S
H2915 C2927 0.950 . S
C2916 H2908 0.950 . S
C2916 C2917 1.386 . S
C2916 C2918 1.391 . S
C2917 C2916 1.386 . S
C2917 C2921 1.393 . S
C2918 H2910 0.950 . S
C2918 C2916 1.391 . S
C2918 C2919 1.400 . S
C2919 C2918 1.400 . S
C2919 C2920 1.398 . S
C2919 C2925 1.491 . S
C2920 H2911 0.950 . S
C2920 C2919 1.398 . S
C2920 C2921 1.391 . S
C2921 H2909 0.950 . S
C2921 C2917 1.393 . S
C2921 C2920 1.391 . S
C2922 H2912 0.950 . S
C2922 C2923 1.386 . S
C2922 C2924 1.391 . S
C2923 C2922 1.386 . S
C2923 C2927 1.393 . S
C2924 H2913 0.950 . S
C2924 C2922 1.391 . S
C2924 C2925 1.400 . S
C2925 C2919 1.491 . S
C2925 C2924 1.400 . S
C2925 C2926 1.398 . S
C2926 H2914 0.950 . S
C2926 C2925 1.398 . S
C2926 C2927 1.391 . S
C2927 H2915 0.950 . S
C2927 C2923 1.393 . S
C2927 C2926 1.391 . S
H2928 C2936 0.950 . S
H2929 C2941 0.950 . S
H2930 C2938 0.950 . S
H2931 C2940 0.950 . S
H2932 C2942 0.950 . S
H2933 C2944 0.950 . S
H2934 C2946 0.950 . S
H2935 C2947 0.950 . S
C2936 H2928 0.950 . S
C2936 C2937 1.386 . S
C2936 C2938 1.391 . S
C2937 C2936 1.386 . S
C2937 C2941 1.393 . S
C2938 H2930 0.950 . S
C2938 C2936 1.391 . S
C2938 C2939 1.400 . S
C2939 C2938 1.400 . S
C2939 C2940 1.398 . S
C2939 C2945 1.491 . S
C2940 H2931 0.950 . S
C2940 C2939 1.398 . S
C2940 C2941 1.391 . S
C2941 H2929 0.950 . S
C2941 C2937 1.393 . S
C2941 C2940 1.391 . S
C2942 H2932 0.950 . S
C2942 C2943 1.386 . S
C2942 C2944 1.391 . S
C2943 C2942 1.386 . S
C2943 C2947 1.393 . S
C2944 H2933 0.950 . S
C2944 C2942 1.391 . S
C2944 C2945 1.400 . S
C2945 C2939 1.491 . S
C2945 C2944 1.400 . S
C2945 C2946 1.398 . S
C2946 H2934 0.950 . S
C2946 C2945 1.398 . S
C2946 C2947 1.391 . S
C2947 H2935 0.950 . S
C2947 C2943 1.393 . S
C2947 C2946 1.391 . S
H2948 C2956 0.950 . S
H2949 C2961 0.950 . S
H2950 C2958 0.950 . S
H2951 C2960 0.950 . S
H2952 C2962 0.950 . S
H2953 C2964 0.950 . S
H2954 C2966 0.950 . S
H2955 C2967 0.950 . S
C2956 H2948 0.950 . S
C2956 C2957 1.386 . S
C2956 C2958 1.391 . S
C2957 C2956 1.386 . S
C2957 C2961 1.393 . S
C2958 H2950 0.950 . S
C2958 C2956 1.391 . S
C2958 C2959 1.400 . S
C2959 C2958 1.400 . S
C2959 C2960 1.398 . S
C2959 C2965 1.491 . S
C2960 H2951 0.950 . S
C2960 C2959 1.398 . S
C2960 C2961 1.391 . S
C2961 H2949 0.950 . S
C2961 C2957 1.393 . S
C2961 C2960 1.391 . S
C2962 H2952 0.950 . S
C2962 C2963 1.386 . S
C2962 C2964 1.391 . S
C2963 C2962 1.386 . S
C2963 C2967 1.393 . S
C2964 H2953 0.950 . S
C2964 C2962 1.391 . S
C2964 C2965 1.400 . S
C2965 C2959 1.491 . S
C2965 C2964 1.400 . S
C2965 C2966 1.398 . S
C2966 H2954 0.950 . S
C2966 C2965 1.398 . S
C2966 C2967 1.391 . S
C2967 H2955 0.950 . S
C2967 C2963 1.393 . S
C2967 C2966 1.391 . S
H2968 C2976 0.950 . S
H2969 C2981 0.950 . S
H2970 C2978 0.950 . S
H2971 C2980 0.950 . S
H2972 C2982 0.950 . S
H2973 C2984 0.950 . S
H2974 C2986 0.950 . S
H2975 C2987 0.950 . S
C2976 H2968 0.950 . S
C2976 C2977 1.386 . S
C2976 C2978 1.391 . S
C2977 C2976 1.386 . S
C2977 C2981 1.393 . S
C2978 H2970 0.950 . S
C2978 C2976 1.391 . S
C2978 C2979 1.400 . S
C2979 C2978 1.400 . S
C2979 C2980 1.398 . S
C2979 C2985 1.491 . S
C2980 H2971 0.950 . S
C2980 C2979 1.398 . S
C2980 C2981 1.391 . S
C2981 H2969 0.950 . S
C2981 C2977 1.393 . S
C2981 C2980 1.391 . S
C2982 H2972 0.950 . S
C2982 C2983 1.386 . S
C2982 C2984 1.391 . S
C2983 C2982 1.386 . S
C2983 C2987 1.393 . S
C2984 H2973 0.950 . S
C2984 C2982 1.391 . S
C2984 C2985 1.400 . S
C2985 C2979 1.491 . S
C2985 C2984 1.400 . S
C2985 C2986 1.398 . S
C2986 H2974 0.950 . S
C2986 C2985 1.398 . S
C2986 C2987 1.391 . S
C2987 H2975 0.950 . S
C2987 C2983 1.393 . S
C2987 C2986 1.391 . S
H2988 C2996 0.950 . S
H2989 C3001 0.950 . S
H2990 C2998 0.950 . S
H2991 C3000 0.950 . S
H2992 C3002 0.950 . S
H2993 C3004 0.950 . S
H2994 C3006 0.950 . S
H2995 C3007 0.950 . S
C2996 H2988 0.950 . S
C2996 C2997 1.386 . S
C2996 C2998 1.391 . S
C2997 C2996 1.386 . S
C2997 C3001 1.393 . S
C2998 H2990 0.950 . S
C2998 C2996 1.391 . S
C2998 C2999 1.400 . S
C2999 C2998 1.400 . S
C2999 C3000 1.398 . S
C2999 C3005 1.491 . S
C3000 H2991 0.950 . S
C3000 C2999 1.398 . S
C3000 C3001 1.391 . S
C3001 H2989 0.950 . S
C3001 C2997 1.393 . S
C3001 C3000 1.391 . S
C3002 H2992 0.950 . S
C3002 C3003 1.386 . S
C3002 C3004 1.391 . S
C3003 C3002 1.386 . S
C3003 C3007 1.393 . S
C3004 H2993 0.950 . S
C3004 C3002 1.391 . S
C3004 C3005 1.400 . S
C3005 C2999 1.491 . S
C3005 C3004 1.400 . S
C3005 C3006 1.398 . S
C3006 H2994 0.950 . S
C3006 C3005 1.398 . S
C3006 C3007 1.391 . S
C3007 H2995 0.950 . S
C3007 C3003 1.393 . S
C3007 C3006 1.391 . S
H3008 C3016 0.950 . S
H3009 C3021 0.950 . S
H3010 C3018 0.950 . S
H3011 C3020 0.950 . S
H3012 C3022 0.950 . S
H3013 C3024 0.950 . S
H3014 C3026 0.950 . S
H3015 C3027 0.950 . S
C3016 H3008 0.950 . S
C3016 C3017 1.386 . S
C3016 C3018 1.391 . S
C3017 C3016 1.386 . S
C3017 C3021 1.393 . S
C3018 H3010 0.950 . S
C3018 C3016 1.391 . S
C3018 C3019 1.400 . S
C3019 C3018 1.400 . S
C3019 C3020 1.398 . S
C3019 C3025 1.491 . S
C3020 H3011 0.950 . S
C3020 C3019 1.398 . S
C3020 C3021 1.391 . S
C3021 H3009 0.950 . S
C3021 C3017 1.393 . S
C3021 C3020 1.391 . S
C3022 H3012 0.950 . S
C3022 C3023 1.386 . S
C3022 C3024 1.391 . S
C3023 C3022 1.386 . S
C3023 C3027 1.393 . S
C3024 H3013 0.950 . S
C3024 C3022 1.391 . S
C3024 C3025 1.400 . S
C3025 C3019 1.491 . S
C3025 C3024 1.400 . S
C3025 C3026 1.398 . S
C3026 H3014 0.950 . S
C3026 C3025 1.398 . S
C3026 C3027 1.391 . S
C3027 H3015 0.950 . S
C3027 C3023 1.393 . S
C3027 C3026 1.391 . S
H3028 C3036 0.950 . S
H3029 C3041 0.950 . S
H3030 C3038 0.950 . S
H3031 C3040 0.950 . S
H3032 C3042 0.950 . S
H3033 C3044 0.950 . S
H3034 C3046 0.950 . S
H3035 C3047 0.950 . S
C3036 H3028 0.950 . S
C3036 C3037 1.386 . S
C3036 C3038 1.391 . S
C3037 C3036 1.386 . S
C3037 C3041 1.393 . S
C3038 H3030 0.950 . S
C3038 C3036 1.391 . S
C3038 C3039 1.400 . S
C3039 C3038 1.400 . S
C3039 C3040 1.398 . S
C3039 C3045 1.491 . S
C3040 H3031 0.950 . S
C3040 C3039 1.398 . S
C3040 C3041 1.391 . S
C3041 H3029 0.950 . S
C3041 C3037 1.393 . S
C3041 C3040 1.391 . S
C3042 H3032 0.950 . S
C3042 C3043 1.386 . S
C3042 C3044 1.391 . S
C3043 C3042 1.386 . S
C3043 C3047 1.393 . S
C3044 H3033 0.950 . S
C3044 C3042 1.391 . S
C3044 C3045 1.400 . S
C3045 C3039 1.491 . S
C3045 C3044 1.400 . S
C3045 C3046 1.398 . S
C3046 H3034 0.950 . S
C3046 C3045 1.398 . S
C3046 C3047 1.391 . S
C3047 H3035 0.950 . S
C3047 C3043 1.393 . S
C3047 C3046 1.391 . S
H3048 C3056 0.950 . S
H3049 C3061 0.950 . S
H3050 C3058 0.950 . S
H3051 C3060 0.950 . S
H3052 C3062 0.950 . S
H3053 C3064 0.950 . S
H3054 C3066 0.950 . S
H3055 C3067 0.950 . S
C3056 H3048 0.950 . S
C3056 C3057 1.386 . S
C3056 C3058 1.391 . S
C3057 C3056 1.386 . S
C3057 C3061 1.393 . S
C3058 H3050 0.950 . S
C3058 C3056 1.391 . S
C3058 C3059 1.400 . S
C3059 C3058 1.400 . S
C3059 C3060 1.398 . S
C3059 C3065 1.491 . S
C3060 H3051 0.950 . S
C3060 C3059 1.398 . S
C3060 C3061 1.391 . S
C3061 H3049 0.950 . S
C3061 C3057 1.393 . S
C3061 C3060 1.391 . S
C3062 H3052 0.950 . S
C3062 C3063 1.386 . S
C3062 C3064 1.391 . S
C3063 C3062 1.386 . S
C3063 C3067 1.393 . S
C3064 H3053 0.950 . S
C3064 C3062 1.391 . S
C3064 C3065 1.400 . S
C3065 C3059 1.491 . S
C3065 C3064 1.400 . S
C3065 C3066 1.398 . S
C3066 H3054 0.950 . S
C3066 C3065 1.398 . S
C3066 C3067 1.391 . S
C3067 H3055 0.950 . S
C3067 C3063 1.393 . S
C3067 C3066 1.391 . S
H3068 C3076 0.950 . S
H3069 C3081 0.950 . S
H3070 C3078 0.950 . S
H3071 C3080 0.950 . S
H3072 C3082 0.950 . S
H3073 C3084 0.950 . S
H3074 C3086 0.950 . S
H3075 C3087 0.950 . S
C3076 H3068 0.950 . S
C3076 C3077 1.386 . S
C3076 C3078 1.391 . S
C3077 C3076 1.386 . S
C3077 C3081 1.393 . S
C3078 H3070 0.950 . S
C3078 C3076 1.391 . S
C3078 C3079 1.400 . S
C3079 C3078 1.400 . S
C3079 C3080 1.398 . S
C3079 C3085 1.491 . S
C3080 H3071 0.950 . S
C3080 C3079 1.398 . S
C3080 C3081 1.391 . S
C3081 H3069 0.950 . S
C3081 C3077 1.393 . S
C3081 C3080 1.391 . S
C3082 H3072 0.950 . S
C3082 C3083 1.386 . S
C3082 C3084 1.391 . S
C3083 C3082 1.386 . S
C3083 C3087 1.393 . S
C3084 H3073 0.950 . S
C3084 C3082 1.391 . S
C3084 C3085 1.400 . S
C3085 C3079 1.491 . S
C3085 C3084 1.400 . S
C3085 C3086 1.398 . S
C3086 H3074 0.950 . S
C3086 C3085 1.398 . S
C3086 C3087 1.391 . S
C3087 H3075 0.950 . S
C3087 C3083 1.393 . S
C3087 C3086 1.391 . S
H3088 C3096 0.950 . S
H3089 C3101 0.950 . S
H3090 C3098 0.950 . S
H3091 C3100 0.950 . S
H3092 C3102 0.950 . S
H3093 C3104 0.950 . S
H3094 C3106 0.950 . S
H3095 C3107 0.950 . S
C3096 H3088 0.950 . S
C3096 C3097 1.386 . S
C3096 C3098 1.391 . S
C3097 C3096 1.386 . S
C3097 C3101 1.393 . S
C3098 H3090 0.950 . S
C3098 C3096 1.391 . S
C3098 C3099 1.400 . S
C3099 C3098 1.400 . S
C3099 C3100 1.398 . S
C3099 C3105 1.491 . S
C3100 H3091 0.950 . S
C3100 C3099 1.398 . S
C3100 C3101 1.391 . S
C3101 H3089 0.950 . S
C3101 C3097 1.393 . S
C3101 C3100 1.391 . S
C3102 H3092 0.950 . S
C3102 C3103 1.386 . S
C3102 C3104 1.391 . S
C3103 C3102 1.386 . S
C3103 C3107 1.393 . S
C3104 H3093 0.950 . S
C3104 C3102 1.391 . S
C3104 C3105 1.400 . S
C3105 C3099 1.491 . S
C3105 C3104 1.400 . S
C3105 C3106 1.398 . S
C3106 H3094 0.950 . S
C3106 C3105 1.398 . S
C3106 C3107 1.391 . S
C3107 H3095 0.950 . S
C3107 C3103 1.393 . S
C3107 C3106 1.391 . S
H3108 C3116 0.950 . S
H3109 C3121 0.950 . S
H3110 C3118 0.950 . S
H3111 C3120 0.950 . S
H3112 C3122 0.950 . S
H3113 C3124 0.950 . S
H3114 C3126 0.950 . S
H3115 C3127 0.950 . S
C3116 H3108 0.950 . S
C3116 C3117 1.386 . S
C3116 C3118 1.391 . S
C3117 C3116 1.386 . S
C3117 C3121 1.393 . S
C3118 H3110 0.950 . S
C3118 C3116 1.391 . S
C3118 C3119 1.400 . S
C3119 C3118 1.400 . S
C3119 C3120 1.398 . S
C3119 C3125 1.491 . S
C3120 H3111 0.950 . S
C3120 C3119 1.398 . S
C3120 C3121 1.391 . S
C3121 H3109 0.950 . S
C3121 C3117 1.393 . S
C3121 C3120 1.391 . S
C3122 H3112 0.950 . S
C3122 C3123 1.386 . S
C3122 C3124 1.391 . S
C3123 C3122 1.386 . S
C3123 C3127 1.393 . S
C3124 H3113 0.950 . S
C3124 C3122 1.391 . S
C3124 C3125 1.400 . S
C3125 C3119 1.491 . S
C3125 C3124 1.400 . S
C3125 C3126 1.398 . S
C3126 H3114 0.950 . S
C3126 C3125 1.398 . S
C3126 C3127 1.391 . S
C3127 H3115 0.950 . S
C3127 C3123 1.393 . S
C3127 C3126 1.391 . S
H3128 C3136 0.950 . S
H3129 C3141 0.950 . S
H3130 C3138 0.950 . S
H3131 C3140 0.950 . S
H3132 C3142 0.950 . S
H3133 C3144 0.950 . S
H3134 C3146 0.950 . S
H3135 C3147 0.950 . S
C3136 H3128 0.950 . S
C3136 C3137 1.386 . S
C3136 C3138 1.391 . S
C3137 C3136 1.386 . S
C3137 C3141 1.393 . S
C3138 H3130 0.950 . S
C3138 C3136 1.391 . S
C3138 C3139 1.400 . S
C3139 C3138 1.400 . S
C3139 C3140 1.398 . S
C3139 C3145 1.491 . S
C3140 H3131 0.950 . S
C3140 C3139 1.398 . S
C3140 C3141 1.391 . S
C3141 H3129 0.950 . S
C3141 C3137 1.393 . S
C3141 C3140 1.391 . S
C3142 H3132 0.950 . S
C3142 C3143 1.386 . S
C3142 C3144 1.391 . S
C3143 C3142 1.386 . S
C3143 C3147 1.393 . S
C3144 H3133 0.950 . S
C3144 C3142 1.391 . S
C3144 C3145 1.400 . S
C3145 C3139 1.491 . S
C3145 C3144 1.400 . S
C3145 C3146 1.398 . S
C3146 H3134 0.950 . S
C3146 C3145 1.398 . S
C3146 C3147 1.391 . S
C3147 H3135 0.950 . S
C3147 C3143 1.393 . S
C3147 C3146 1.391 . S
H3148 C3156 0.950 . S
H3149 C3161 0.950 . S
H3150 C3158 0.950 . S
H3151 C3160 0.950 . S
H3152 C3162 0.950 . S
H3153 C3164 0.950 . S
H3154 C3166 0.950 . S
H3155 C3167 0.950 . S
C3156 H3148 0.950 . S
C3156 C3157 1.386 . S
C3156 C3158 1.391 . S
C3157 C3156 1.386 . S
C3157 C3161 1.393 . S
C3158 H3150 0.950 . S
C3158 C3156 1.391 . S
C3158 C3159 1.400 . S
C3159 C3158 1.400 . S
C3159 C3160 1.398 . S
C3159 C3165 1.491 . S
C3160 H3151 0.950 . S
C3160 C3159 1.398 . S
C3160 C3161 1.391 . S
C3161 H3149 0.950 . S
C3161 C3157 1.393 . S
C3161 C3160 1.391 . S
C3162 H3152 0.950 . S
C3162 C3163 1.386 . S
C3162 C3164 1.391 . S
C3163 C3162 1.386 . S
C3163 C3167 1.393 . S
C3164 H3153 0.950 . S
C3164 C3162 1.391 . S
C3164 C3165 1.400 . S
C3165 C3159 1.491 . S
C3165 C3164 1.400 . S
C3165 C3166 1.398 . S
C3166 H3154 0.950 . S
C3166 C3165 1.398 . S
C3166 C3167 1.391 . S
C3167 H3155 0.950 . S
C3167 C3163 1.393 . S
C3167 C3166 1.391 . S
H3168 C3176 0.950 . S
H3169 C3181 0.950 . S
H3170 C3178 0.950 . S
H3171 C3180 0.950 . S
H3172 C3182 0.950 . S
H3173 C3184 0.950 . S
H3174 C3186 0.950 . S
H3175 C3187 0.950 . S
C3176 H3168 0.950 . S
C3176 C3177 1.386 . S
C3176 C3178 1.391 . S
C3177 C3176 1.386 . S
C3177 C3181 1.393 . S
C3178 H3170 0.950 . S
C3178 C3176 1.391 . S
C3178 C3179 1.400 . S
C3179 C3178 1.400 . S
C3179 C3180 1.398 . S
C3179 C3185 1.491 . S
C3180 H3171 0.950 . S
C3180 C3179 1.398 . S
C3180 C3181 1.391 . S
C3181 H3169 0.950 . S
C3181 C3177 1.393 . S
C3181 C3180 1.391 . S
C3182 H3172 0.950 . S
C3182 C3183 1.386 . S
C3182 C3184 1.391 . S
C3183 C3182 1.386 . S
C3183 C3187 1.393 . S
C3184 H3173 0.950 . S
C3184 C3182 1.391 . S
C3184 C3185 1.400 . S
C3185 C3179 1.491 . S
C3185 C3184 1.400 . S
C3185 C3186 1.398 . S
C3186 H3174 0.950 . S
C3186 C3185 1.398 . S
C3186 C3187 1.391 . S
C3187 H3175 0.950 . S
C3187 C3183 1.393 . S
C3187 C3186 1.391 . S
H3188 C3196 0.950 . S
H3189 C3201 0.950 . S
H3190 C3198 0.950 . S
H3191 C3200 0.950 . S
H3192 C3202 0.950 . S
H3193 C3204 0.950 . S
H3194 C3206 0.950 . S
H3195 C3207 0.950 . S
C3196 H3188 0.950 . S
C3196 C3197 1.386 . S
C3196 C3198 1.391 . S
C3197 C3196 1.386 . S
C3197 C3201 1.393 . S
C3198 H3190 0.950 . S
C3198 C3196 1.391 . S
C3198 C3199 1.400 . S
C3199 C3198 1.400 . S
C3199 C3200 1.398 . S
C3199 C3205 1.491 . S
C3200 H3191 0.950 . S
C3200 C3199 1.398 . S
C3200 C3201 1.391 . S
C3201 H3189 0.950 . S
C3201 C3197 1.393 . S
C3201 C3200 1.391 . S
C3202 H3192 0.950 . S
C3202 C3203 1.386 . S
C3202 C3204 1.391 . S
C3203 C3202 1.386 . S
C3203 C3207 1.393 . S
C3204 H3193 0.950 . S
C3204 C3202 1.391 . S
C3204 C3205 1.400 . S
C3205 C3199 1.491 . S
C3205 C3204 1.400 . S
C3205 C3206 1.398 . S
C3206 H3194 0.950 . S
C3206 C3205 1.398 . S
C3206 C3207 1.391 . S
C3207 H3195 0.950 . S
C3207 C3203 1.393 . S
C3207 C3206 1.391 . S
H3208 C3216 0.891 1_554 S
H3209 C3221 0.950 . S
H3210 C3218 0.950 . S
H3211 C3220 0.950 . S
H3212 C3222 0.950 . S
H3213 C3224 0.950 . S
H3214 C3226 0.950 . S
H3215 C3227 0.950 . S
C3216 H3208 0.891 1_556 S
C3216 C3217 1.386 . S
C3216 C3218 1.391 . S
C3217 C3216 1.386 . S
C3217 C3221 1.393 . S
C3218 H3210 0.950 . S
C3218 C3216 1.391 . S
C3218 C3219 1.400 . S
C3219 C3218 1.400 . S
C3219 C3220 1.398 . S
C3219 C3225 1.491 . S
C3220 H3211 0.950 . S
C3220 C3219 1.398 . S
C3220 C3221 1.391 . S
C3221 H3209 0.950 . S
C3221 C3217 1.393 . S
C3221 C3220 1.391 . S
C3222 H3212 0.950 . S
C3222 C3223 1.386 . S
C3222 C3224 1.391 . S
C3223 C3222 1.386 . S
C3223 C3227 1.393 . S
C3224 H3213 0.950 . S
C3224 C3222 1.391 . S
C3224 C3225 1.400 . S
C3225 C3219 1.491 . S
C3225 C3224 1.400 . S
C3225 C3226 1.398 . S
C3226 H3214 0.950 . S
C3226 C3225 1.398 . S
C3226 C3227 1.391 . S
C3227 H3215 0.950 . S
C3227 C3223 1.393 . S
C3227 C3226 1.391 . S
H3228 C3236 0.950 . S
H3229 C3241 0.950 . S
H3230 C3238 0.950 . S
H3231 C3240 0.950 . S
H3232 C3242 0.950 . S
H3233 C3244 0.950 . S
H3234 C3246 0.950 . S
H3235 C3247 0.950 . S
C3236 H3228 0.950 . S
C3236 C3237 1.386 . S
C3236 C3238 1.391 . S
C3237 C3236 1.386 . S
C3237 C3241 1.393 . S
C3238 H3230 0.950 . S
C3238 C3236 1.391 . S
C3238 C3239 1.400 . S
C3239 C3238 1.400 . S
C3239 C3240 1.398 . S
C3239 C3245 1.491 . S
C3240 H3231 0.950 . S
C3240 C3239 1.398 . S
C3240 C3241 1.391 . S
C3241 H3229 0.950 . S
C3241 C3237 1.393 . S
C3241 C3240 1.391 . S
C3242 H3232 0.950 . S
C3242 C3243 1.386 . S
C3242 C3244 1.391 . S
C3243 C3242 1.386 . S
C3243 C3247 1.393 . S
C3244 H3233 0.950 . S
C3244 C3242 1.391 . S
C3244 C3245 1.400 . S
C3245 C3239 1.491 . S
C3245 C3244 1.400 . S
C3245 C3246 1.398 . S
C3246 H3234 0.950 . S
C3246 C3245 1.398 . S
C3246 C3247 1.391 . S
C3247 H3235 0.950 . S
C3247 C3243 1.393 . S
C3247 C3246 1.391 . S
H3248 C3256 0.950 . S
H3249 C3261 0.950 . S
H3250 C3258 0.950 . S
H3251 C3260 0.950 . S
H3252 C3262 0.950 . S
H3253 C3264 0.950 . S
H3254 C3266 0.950 . S
H3255 C3267 0.950 . S
C3256 H3248 0.950 . S
C3256 C3257 1.386 . S
C3256 C3258 1.391 . S
C3257 C3256 1.386 . S
C3257 C3261 1.393 . S
C3258 H3250 0.950 . S
C3258 C3256 1.391 . S
C3258 C3259 1.400 . S
C3259 C3258 1.400 . S
C3259 C3260 1.398 . S
C3259 C3265 1.491 . S
C3260 H3251 0.950 . S
C3260 C3259 1.398 . S
C3260 C3261 1.391 . S
C3261 H3249 0.950 . S
C3261 C3257 1.393 . S
C3261 C3260 1.391 . S
C3262 H3252 0.950 . S
C3262 C3263 1.386 . S
C3262 C3264 1.391 . S
C3263 C3262 1.386 . S
C3263 C3267 1.393 . S
C3264 H3253 0.950 . S
C3264 C3262 1.391 . S
C3264 C3265 1.400 . S
C3265 C3259 1.491 . S
C3265 C3264 1.400 . S
C3265 C3266 1.398 . S
C3266 H3254 0.950 . S
C3266 C3265 1.398 . S
C3266 C3267 1.391 . S
C3267 H3255 0.950 . S
C3267 C3263 1.393 . S
C3267 C3266 1.391 . S
H3268 C3276 0.950 . S
H3269 C3281 0.950 . S
H3270 C3278 0.950 . S
H3271 C3280 0.950 . S
H3272 C3282 0.950 . S
H3273 C3284 0.950 . S
H3274 C3286 0.950 . S
H3275 C3287 0.950 . S
C3276 H3268 0.950 . S
C3276 C3277 1.386 . S
C3276 C3278 1.391 . S
C3277 C3276 1.386 . S
C3277 C3281 1.393 . S
C3278 H3270 0.950 . S
C3278 C3276 1.391 . S
C3278 C3279 1.400 . S
C3279 C3278 1.400 . S
C3279 C3280 1.398 . S
C3279 C3285 1.491 . S
C3280 H3271 0.950 . S
C3280 C3279 1.398 . S
C3280 C3281 1.391 . S
C3281 H3269 0.950 . S
C3281 C3277 1.393 . S
C3281 C3280 1.391 . S
C3282 H3272 0.950 . S
C3282 C3283 1.386 . S
C3282 C3284 1.391 . S
C3283 C3282 1.386 . S
C3283 C3287 1.393 . S
C3284 H3273 0.950 . S
C3284 C3282 1.391 . S
C3284 C3285 1.400 . S
C3285 C3279 1.491 . S
C3285 C3284 1.400 . S
C3285 C3286 1.398 . S
C3286 H3274 0.950 . S
C3286 C3285 1.398 . S
C3286 C3287 1.391 . S
C3287 H3275 0.950 . S
C3287 C3283 1.393 . S
C3287 C3286 1.391 . S
H3288 C3296 0.950 . S
H3289 C3301 0.950 . S
H3290 C3298 0.950 . S
H3291 C3300 0.950 . S
H3292 C3302 0.950 . S
H3293 C3304 0.950 . S
H3294 C3306 0.950 . S
H3295 C3307 0.950 . S
C3296 H3288 0.950 . S
C3296 C3297 1.386 . S
C3296 C3298 1.391 . S
C3297 C3296 1.386 . S
C3297 C3301 1.393 . S
C3298 H3290 0.950 . S
C3298 C3296 1.391 . S
C3298 C3299 1.400 . S
C3299 C3298 1.400 . S
C3299 C3300 1.398 . S
C3299 C3305 1.491 . S
C3300 H3291 0.950 . S
C3300 C3299 1.398 . S
C3300 C3301 1.391 . S
C3301 H3289 0.950 . S
C3301 C3297 1.393 . S
C3301 C3300 1.391 . S
C3302 H3292 0.950 . S
C3302 C3303 1.386 . S
C3302 C3304 1.391 . S
C3303 C3302 1.386 . S
C3303 C3307 1.393 . S
C3304 H3293 0.950 . S
C3304 C3302 1.391 . S
C3304 C3305 1.400 . S
C3305 C3299 1.491 . S
C3305 C3304 1.400 . S
C3305 C3306 1.398 . S
C3306 H3294 0.950 . S
C3306 C3305 1.398 . S
C3306 C3307 1.391 . S
C3307 H3295 0.950 . S
C3307 C3303 1.393 . S
C3307 C3306 1.391 . S
H3308 C3316 0.950 . S
H3309 C3321 0.950 . S
H3310 C3318 0.950 . S
H3311 C3320 0.950 . S
H3312 C3322 0.950 . S
H3313 C3324 0.950 . S
H3314 C3326 0.950 . S
H3315 C3327 0.950 . S
C3316 H3308 0.950 . S
C3316 C3317 1.386 . S
C3316 C3318 1.391 . S
C3317 C3316 1.386 . S
C3317 C3321 1.393 . S
C3318 H3310 0.950 . S
C3318 C3316 1.391 . S
C3318 C3319 1.400 . S
C3319 C3318 1.400 . S
C3319 C3320 1.398 . S
C3319 C3325 1.491 . S
C3320 H3311 0.950 . S
C3320 C3319 1.398 . S
C3320 C3321 1.391 . S
C3321 H3309 0.950 . S
C3321 C3317 1.393 . S
C3321 C3320 1.391 . S
C3322 H3312 0.950 . S
C3322 C3323 1.386 . S
C3322 C3324 1.391 . S
C3323 C3322 1.386 . S
C3323 C3327 1.393 . S
C3324 H3313 0.950 . S
C3324 C3322 1.391 . S
C3324 C3325 1.400 . S
C3325 C3319 1.491 . S
C3325 C3324 1.400 . S
C3325 C3326 1.398 . S
C3326 H3314 0.950 . S
C3326 C3325 1.398 . S
C3326 C3327 1.391 . S
C3327 H3315 0.950 . S
C3327 C3323 1.393 . S
C3327 C3326 1.391 . S
H3328 C3336 0.950 . S
H3329 C3341 0.950 . S
H3330 C3338 0.950 . S
H3331 C3340 0.950 . S
H3332 C3342 0.950 . S
H3333 C3344 0.950 . S
H3334 C3346 0.950 . S
H3335 C3347 0.950 . S
C3336 H3328 0.950 . S
C3336 C3337 1.386 . S
C3336 C3338 1.391 . S
C3337 C3336 1.386 . S
C3337 C3341 1.393 . S
C3338 H3330 0.950 . S
C3338 C3336 1.391 . S
C3338 C3339 1.400 . S
C3339 C3338 1.400 . S
C3339 C3340 1.398 . S
C3339 C3345 1.491 . S
C3340 H3331 0.950 . S
C3340 C3339 1.398 . S
C3340 C3341 1.391 . S
C3341 H3329 0.950 . S
C3341 C3337 1.393 . S
C3341 C3340 1.391 . S
C3342 H3332 0.950 . S
C3342 C3343 1.386 . S
C3342 C3344 1.391 . S
C3343 C3342 1.386 . S
C3343 C3347 1.393 . S
C3344 H3333 0.950 . S
C3344 C3342 1.391 . S
C3344 C3345 1.400 . S
C3345 C3339 1.491 . S
C3345 C3344 1.400 . S
C3345 C3346 1.398 . S
C3346 H3334 0.950 . S
C3346 C3345 1.398 . S
C3346 C3347 1.391 . S
C3347 H3335 0.950 . S
C3347 C3343 1.393 . S
C3347 C3346 1.391 . S
H3348 C3356 0.950 . S
H3349 C3361 0.950 . S
H3350 C3358 0.950 . S
H3351 C3360 0.950 . S
H3352 C3362 0.950 . S
H3353 C3364 0.950 . S
H3354 C3366 0.950 . S
H3355 C3367 0.950 . S
C3356 H3348 0.950 . S
C3356 C3357 1.386 . S
C3356 C3358 1.391 . S
C3357 C3356 1.386 . S
C3357 C3361 1.393 . S
C3358 H3350 0.950 . S
C3358 C3356 1.391 . S
C3358 C3359 1.400 . S
C3359 C3358 1.400 . S
C3359 C3360 1.398 . S
C3359 C3365 1.491 . S
C3360 H3351 0.950 . S
C3360 C3359 1.398 . S
C3360 C3361 1.391 . S
C3361 H3349 0.950 . S
C3361 C3357 1.393 . S
C3361 C3360 1.391 . S
C3362 H3352 0.950 . S
C3362 C3363 1.386 . S
C3362 C3364 1.391 . S
C3363 C3362 1.386 . S
C3363 C3367 1.393 . S
C3364 H3353 0.950 . S
C3364 C3362 1.391 . S
C3364 C3365 1.400 . S
C3365 C3359 1.491 . S
C3365 C3364 1.400 . S
C3365 C3366 1.398 . S
C3366 H3354 0.950 . S
C3366 C3365 1.398 . S
C3366 C3367 1.391 . S
C3367 H3355 0.950 . S
C3367 C3363 1.393 . S
C3367 C3366 1.391 . S
H3368 C3376 0.950 . S
H3369 C3381 0.950 . S
H3370 C3378 0.950 . S
H3371 C3380 0.950 . S
H3372 C3382 0.950 . S
H3373 C3384 0.950 . S
H3374 C3386 0.950 . S
H3375 C3387 0.950 . S
C3376 H3368 0.950 . S
C3376 C3377 1.386 . S
C3376 C3378 1.391 . S
C3377 C3376 1.386 . S
C3377 C3381 1.393 . S
C3378 H3370 0.950 . S
C3378 C3376 1.391 . S
C3378 C3379 1.400 . S
C3379 C3378 1.400 . S
C3379 C3380 1.398 . S
C3379 C3385 1.491 . S
C3380 H3371 0.950 . S
C3380 C3379 1.398 . S
C3380 C3381 1.391 . S
C3381 H3369 0.950 . S
C3381 C3377 1.393 . S
C3381 C3380 1.391 . S
C3382 H3372 0.950 . S
C3382 C3383 1.386 . S
C3382 C3384 1.391 . S
C3383 C3382 1.386 . S
C3383 C3387 1.393 . S
C3384 H3373 0.950 . S
C3384 C3382 1.391 . S
C3384 C3385 1.400 . S
C3385 C3379 1.491 . S
C3385 C3384 1.400 . S
C3385 C3386 1.398 . S
C3386 H3374 0.950 . S
C3386 C3385 1.398 . S
C3386 C3387 1.391 . S
C3387 H3375 0.950 . S
C3387 C3383 1.393 . S
C3387 C3386 1.391 . S
H3388 C3396 0.950 . S
H3389 C3401 0.950 . S
H3390 C3398 0.950 . S
H3391 C3400 0.950 . S
H3392 C3402 0.950 . S
H3393 C3404 0.950 . S
H3394 C3406 0.950 . S
H3395 C3407 0.950 . S
C3396 H3388 0.950 . S
C3396 C3397 1.386 . S
C3396 C3398 1.391 . S
C3397 C3396 1.386 . S
C3397 C3401 1.393 . S
C3398 H3390 0.950 . S
C3398 C3396 1.391 . S
C3398 C3399 1.400 . S
C3399 C3398 1.400 . S
C3399 C3400 1.398 . S
C3399 C3405 1.491 . S
C3400 H3391 0.950 . S
C3400 C3399 1.398 . S
C3400 C3401 1.391 . S
C3401 H3389 0.950 . S
C3401 C3397 1.393 . S
C3401 C3400 1.391 . S
C3402 H3392 0.950 . S
C3402 C3403 1.386 . S
C3402 C3404 1.391 . S
C3403 C3402 1.386 . S
C3403 C3407 1.393 . S
C3404 H3393 0.950 . S
C3404 C3402 1.391 . S
C3404 C3405 1.400 . S
C3405 C3399 1.491 . S
C3405 C3404 1.400 . S
C3405 C3406 1.398 . S
C3406 H3394 0.950 . S
C3406 C3405 1.398 . S
C3406 C3407 1.391 . S
C3407 H3395 0.950 . S
C3407 C3403 1.393 . S
C3407 C3406 1.391 . S
H3408 C3416 0.950 . S
H3409 C3421 0.950 . S
H3410 C3418 0.950 . S
H3411 C3420 0.950 . S
H3412 C3422 0.950 . S
H3413 C3424 0.950 . S
H3414 C3426 0.950 . S
H3415 C3427 0.950 . S
C3416 H3408 0.950 . S
C3416 C3417 1.386 . S
C3416 C3418 1.391 . S
C3417 C3416 1.386 . S
C3417 C3421 1.393 . S
C3418 H3410 0.950 . S
C3418 C3416 1.391 . S
C3418 C3419 1.400 . S
C3419 C3418 1.400 . S
C3419 C3420 1.398 . S
C3419 C3425 1.491 . S
C3420 H3411 0.950 . S
C3420 C3419 1.398 . S
C3420 C3421 1.391 . S
C3421 H3409 0.950 . S
C3421 C3417 1.393 . S
C3421 C3420 1.391 . S
C3422 H3412 0.950 . S
C3422 C3423 1.386 . S
C3422 C3424 1.391 . S
C3423 C3422 1.386 . S
C3423 C3427 1.393 . S
C3424 H3413 0.950 . S
C3424 C3422 1.391 . S
C3424 C3425 1.400 . S
C3425 C3419 1.491 . S
C3425 C3424 1.400 . S
C3425 C3426 1.398 . S
C3426 H3414 0.950 . S
C3426 C3425 1.398 . S
C3426 C3427 1.391 . S
C3427 H3415 0.950 . S
C3427 C3423 1.393 . S
C3427 C3426 1.391 . S
H3428 C3436 0.950 . S
H3429 C3441 0.950 . S
H3430 C3438 0.950 . S
H3431 C3440 0.950 . S
H3432 C3442 0.950 . S
H3433 C3444 0.950 . S
H3434 C3446 0.950 . S
H3435 C3447 0.950 . S
C3436 H3428 0.950 . S
C3436 C3437 1.386 . S
C3436 C3438 1.391 . S
C3437 C3436 1.386 . S
C3437 C3441 1.393 . S
C3438 H3430 0.950 . S
C3438 C3436 1.391 . S
C3438 C3439 1.400 . S
C3439 C3438 1.400 . S
C3439 C3440 1.398 . S
C3439 C3445 1.491 . S
C3440 H3431 0.950 . S
C3440 C3439 1.398 . S
C3440 C3441 1.391 . S
C3441 H3429 0.950 . S
C3441 C3437 1.393 . S
C3441 C3440 1.391 . S
C3442 H3432 0.950 . S
C3442 C3443 1.386 . S
C3442 C3444 1.391 . S
C3443 C3442 1.386 . S
C3443 C3447 1.393 . S
C3444 H3433 0.950 . S
C3444 C3442 1.391 . S
C3444 C3445 1.400 . S
C3445 C3439 1.491 . S
C3445 C3444 1.400 . S
C3445 C3446 1.398 . S
C3446 H3434 0.950 . S
C3446 C3445 1.398 . S
C3446 C3447 1.391 . S
C3447 H3435 0.950 . S
C3447 C3443 1.393 . S
C3447 C3446 1.391 . S
H3448 C3456 0.950 . S
H3449 C3461 0.950 . S
H3450 C3458 0.950 . S
H3451 C3460 0.950 . S
H3452 C3462 0.950 . S
H3453 C3464 0.950 . S
H3454 C3466 0.950 . S
H3455 C3467 0.950 . S
C3456 H3448 0.950 . S
C3456 C3457 1.386 . S
C3456 C3458 1.391 . S
C3457 C3456 1.386 . S
C3457 C3461 1.393 . S
C3458 H3450 0.950 . S
C3458 C3456 1.391 . S
C3458 C3459 1.400 . S
C3459 C3458 1.400 . S
C3459 C3460 1.398 . S
C3459 C3465 1.491 . S
C3460 H3451 0.950 . S
C3460 C3459 1.398 . S
C3460 C3461 1.391 . S
C3461 H3449 0.950 . S
C3461 C3457 1.393 . S
C3461 C3460 1.391 . S
C3462 H3452 0.950 . S
C3462 C3463 1.386 . S
C3462 C3464 1.391 . S
C3463 C3462 1.386 . S
C3463 C3467 1.393 . S
C3464 H3453 0.950 . S
C3464 C3462 1.391 . S
C3464 C3465 1.400 . S
C3465 C3459 1.491 . S
C3465 C3464 1.400 . S
C3465 C3466 1.398 . S
C3466 H3454 0.950 . S
C3466 C3465 1.398 . S
C3466 C3467 1.391 . S
C3467 H3455 0.950 . S
C3467 C3463 1.393 . S
C3467 C3466 1.391 . S
H3468 C3476 0.950 . S
H3469 C3481 0.950 . S
H3470 C3478 0.950 . S
H3471 C3480 0.950 . S
H3472 C3482 0.950 . S
H3473 C3484 0.950 . S
H3474 C3486 0.950 . S
H3475 C3487 0.950 . S
C3476 H3468 0.950 . S
C3476 C3477 1.386 . S
C3476 C3478 1.391 . S
C3477 C3476 1.386 . S
C3477 C3481 1.393 . S
C3478 H3470 0.950 . S
C3478 C3476 1.391 . S
C3478 C3479 1.400 . S
C3479 C3478 1.400 . S
C3479 C3480 1.398 . S
C3479 C3485 1.491 . S
C3480 H3471 0.950 . S
C3480 C3479 1.398 . S
C3480 C3481 1.391 . S
C3481 H3469 0.950 . S
C3481 C3477 1.393 . S
C3481 C3480 1.391 . S
C3482 H3472 0.950 . S
C3482 C3483 1.386 . S
C3482 C3484 1.391 . S
C3483 C3482 1.386 . S
C3483 C3487 1.393 . S
C3484 H3473 0.950 . S
C3484 C3482 1.391 . S
C3484 C3485 1.400 . S
C3485 C3479 1.491 . S
C3485 C3484 1.400 . S
C3485 C3486 1.398 . S
C3486 H3474 0.950 . S
C3486 C3485 1.398 . S
C3486 C3487 1.391 . S
C3487 H3475 0.950 . S
C3487 C3483 1.393 . S
C3487 C3486 1.391 . S
H3488 C3496 0.950 . S
H3489 C3501 0.950 . S
H3490 C3498 0.950 . S
H3491 C3500 0.950 . S
H3492 C3502 0.950 . S
H3493 C3504 0.950 . S
H3494 C3506 0.950 . S
H3495 C3507 0.950 . S
C3496 H3488 0.950 . S
C3496 C3497 1.386 . S
C3496 C3498 1.391 . S
C3497 C3496 1.386 . S
C3497 C3501 1.393 . S
C3498 H3490 0.950 . S
C3498 C3496 1.391 . S
C3498 C3499 1.400 . S
C3499 C3498 1.400 . S
C3499 C3500 1.398 . S
C3499 C3505 1.491 . S
C3500 H3491 0.950 . S
C3500 C3499 1.398 . S
C3500 C3501 1.391 . S
C3501 H3489 0.950 . S
C3501 C3497 1.393 . S
C3501 C3500 1.391 . S
C3502 H3492 0.950 . S
C3502 C3503 1.386 . S
C3502 C3504 1.391 . S
C3503 C3502 1.386 . S
C3503 C3507 1.393 . S
C3504 H3493 0.950 . S
C3504 C3502 1.391 . S
C3504 C3505 1.400 . S
C3505 C3499 1.491 . S
C3505 C3504 1.400 . S
C3505 C3506 1.398 . S
C3506 H3494 0.950 . S
C3506 C3505 1.398 . S
C3506 C3507 1.391 . S
C3507 H3495 0.950 . S
C3507 C3503 1.393 . S
C3507 C3506 1.391 . S
H3508 C3516 0.950 . S
H3509 C3521 0.950 . S
H3510 C3518 0.950 . S
H3511 C3520 0.950 . S
H3512 C3522 0.950 . S
H3513 C3524 0.950 . S
H3514 C3526 0.950 . S
H3515 C3527 0.950 . S
C3516 H3508 0.950 . S
C3516 C3517 1.386 . S
C3516 C3518 1.391 . S
C3517 C3516 1.386 . S
C3517 C3521 1.393 . S
C3518 H3510 0.950 . S
C3518 C3516 1.391 . S
C3518 C3519 1.400 . S
C3519 C3518 1.400 . S
C3519 C3520 1.398 . S
C3519 C3525 1.491 . S
C3520 H3511 0.950 . S
C3520 C3519 1.398 . S
C3520 C3521 1.391 . S
C3521 H3509 0.950 . S
C3521 C3517 1.393 . S
C3521 C3520 1.391 . S
C3522 H3512 0.950 . S
C3522 C3523 1.386 . S
C3522 C3524 1.391 . S
C3523 C3522 1.386 . S
C3523 C3527 1.393 . S
C3524 H3513 0.950 . S
C3524 C3522 1.391 . S
C3524 C3525 1.400 . S
C3525 C3519 1.491 . S
C3525 C3524 1.400 . S
C3525 C3526 1.398 . S
C3526 H3514 0.950 . S
C3526 C3525 1.398 . S
C3526 C3527 1.391 . S
C3527 H3515 0.950 . S
C3527 C3523 1.393 . S
C3527 C3526 1.391 . S
H3528 C3536 0.950 . S
H3529 C3541 0.950 . S
H3530 C3538 0.950 . S
H3531 C3540 0.950 . S
H3532 C3542 0.950 . S
H3533 C3544 0.950 . S
H3534 C3546 0.950 . S
H3535 C3547 0.950 . S
C3536 H3528 0.950 . S
C3536 C3537 1.386 . S
C3536 C3538 1.391 . S
C3537 C3536 1.386 . S
C3537 C3541 1.393 . S
C3538 H3530 0.950 . S
C3538 C3536 1.391 . S
C3538 C3539 1.400 . S
C3539 C3538 1.400 . S
C3539 C3540 1.398 . S
C3539 C3545 1.491 . S
C3540 H3531 0.950 . S
C3540 C3539 1.398 . S
C3540 C3541 1.391 . S
C3541 H3529 0.950 . S
C3541 C3537 1.393 . S
C3541 C3540 1.391 . S
C3542 H3532 0.950 . S
C3542 C3543 1.386 . S
C3542 C3544 1.391 . S
C3543 C3542 1.386 . S
C3543 C3547 1.393 . S
C3544 H3533 0.950 . S
C3544 C3542 1.391 . S
C3544 C3545 1.400 . S
C3545 C3539 1.491 . S
C3545 C3544 1.400 . S
C3545 C3546 1.398 . S
C3546 H3534 0.950 . S
C3546 C3545 1.398 . S
C3546 C3547 1.391 . S
C3547 H3535 0.950 . S
C3547 C3543 1.393 . S
C3547 C3546 1.391 . S
H3548 C3556 0.950 . S
H3549 C3561 0.950 . S
H3550 C3558 0.950 . S
H3551 C3560 0.950 . S
H3552 C3562 0.950 . S
H3553 C3564 0.950 . S
H3554 C3566 0.950 . S
H3555 C3567 0.950 . S
C3556 H3548 0.950 . S
C3556 C3557 1.386 . S
C3556 C3558 1.391 . S
C3557 C3556 1.386 . S
C3557 C3561 1.393 . S
C3558 H3550 0.950 . S
C3558 C3556 1.391 . S
C3558 C3559 1.400 . S
C3559 C3558 1.400 . S
C3559 C3560 1.398 . S
C3559 C3565 1.491 . S
C3560 H3551 0.950 . S
C3560 C3559 1.398 . S
C3560 C3561 1.391 . S
C3561 H3549 0.950 . S
C3561 C3557 1.393 . S
C3561 C3560 1.391 . S
C3562 H3552 0.950 . S
C3562 C3563 1.386 . S
C3562 C3564 1.391 . S
C3563 C3562 1.386 . S
C3563 C3567 1.393 . S
C3564 H3553 0.950 . S
C3564 C3562 1.391 . S
C3564 C3565 1.400 . S
C3565 C3559 1.491 . S
C3565 C3564 1.400 . S
C3565 C3566 1.398 . S
C3566 H3554 0.950 . S
C3566 C3565 1.398 . S
C3566 C3567 1.391 . S
C3567 H3555 0.950 . S
C3567 C3563 1.393 . S
C3567 C3566 1.391 . S
H3568 C3576 0.950 . S
H3569 C3581 0.950 . S
H3570 C3578 0.950 . S
H3571 C3580 0.950 . S
H3572 C3582 0.950 . S
H3573 C3584 0.950 . S
H3574 C3586 0.950 . S
H3575 C3587 0.950 . S
C3576 H3568 0.950 . S
C3576 C3577 1.386 . S
C3576 C3578 1.391 . S
C3577 C3576 1.386 . S
C3577 C3581 1.393 . S
C3578 H3570 0.950 . S
C3578 C3576 1.391 . S
C3578 C3579 1.400 . S
C3579 C3578 1.400 . S
C3579 C3580 1.398 . S
C3579 C3585 1.491 . S
C3580 H3571 0.950 . S
C3580 C3579 1.398 . S
C3580 C3581 1.391 . S
C3581 H3569 0.950 . S
C3581 C3577 1.393 . S
C3581 C3580 1.391 . S
C3582 H3572 0.950 . S
C3582 C3583 1.386 . S
C3582 C3584 1.391 . S
C3583 C3582 1.386 . S
C3583 C3587 1.393 . S
C3584 H3573 0.950 . S
C3584 C3582 1.391 . S
C3584 C3585 1.400 . S
C3585 C3579 1.491 . S
C3585 C3584 1.400 . S
C3585 C3586 1.398 . S
C3586 H3574 0.950 . S
C3586 C3585 1.398 . S
C3586 C3587 1.391 . S
C3587 H3575 0.950 . S
C3587 C3583 1.393 . S
C3587 C3586 1.391 . S
H3588 C3596 0.950 . S
H3589 C3601 0.950 . S
H3590 C3598 0.950 . S
H3591 C3600 0.950 . S
H3592 C3602 0.950 . S
H3593 C3604 0.950 . S
H3594 C3606 0.950 . S
H3595 C3607 0.950 . S
C3596 H3588 0.950 . S
C3596 C3597 1.386 . S
C3596 C3598 1.391 . S
C3597 C3596 1.386 . S
C3597 C3601 1.393 . S
C3598 H3590 0.950 . S
C3598 C3596 1.391 . S
C3598 C3599 1.400 . S
C3599 C3598 1.400 . S
C3599 C3600 1.398 . S
C3599 C3605 1.491 . S
C3600 H3591 0.950 . S
C3600 C3599 1.398 . S
C3600 C3601 1.391 . S
C3601 H3589 0.950 . S
C3601 C3597 1.393 . S
C3601 C3600 1.391 . S
C3602 H3592 0.950 . S
C3602 C3603 1.386 . S
C3602 C3604 1.391 . S
C3603 C3602 1.386 . S
C3603 C3607 1.393 . S
C3604 H3593 0.950 . S
C3604 C3602 1.391 . S
C3604 C3605 1.400 . S
C3605 C3599 1.491 . S
C3605 C3604 1.400 . S
C3605 C3606 1.398 . S
C3606 H3594 0.950 . S
C3606 C3605 1.398 . S
C3606 C3607 1.391 . S
C3607 H3595 0.950 . S
C3607 C3603 1.393 . S
C3607 C3606 1.391 . S
H3608 C3616 0.950 . S
H3609 C3621 0.950 . S
H3610 C3618 0.950 . S
H3611 C3620 0.950 . S
H3612 C3622 0.950 . S
H3613 C3624 0.950 . S
H3614 C3626 0.950 . S
H3615 C3627 0.950 . S
C3616 H3608 0.950 . S
C3616 C3617 1.386 . S
C3616 C3618 1.391 . S
C3617 C3616 1.386 . S
C3617 C3621 1.393 . S
C3618 H3610 0.950 . S
C3618 C3616 1.391 . S
C3618 C3619 1.400 . S
C3619 C3618 1.400 . S
C3619 C3620 1.398 . S
C3619 C3625 1.491 . S
C3620 H3611 0.950 . S
C3620 C3619 1.398 . S
C3620 C3621 1.391 . S
C3621 H3609 0.950 . S
C3621 C3617 1.393 . S
C3621 C3620 1.391 . S
C3622 H3612 0.950 . S
C3622 C3623 1.386 . S
C3622 C3624 1.391 . S
C3623 C3622 1.386 . S
C3623 C3627 1.393 . S
C3624 H3613 0.950 . S
C3624 C3622 1.391 . S
C3624 C3625 1.400 . S
C3625 C3619 1.491 . S
C3625 C3624 1.400 . S
C3625 C3626 1.398 . S
C3626 H3614 0.950 . S
C3626 C3625 1.398 . S
C3626 C3627 1.391 . S
C3627 H3615 0.950 . S
C3627 C3623 1.393 . S
C3627 C3626 1.391 . S
H3628 C3636 0.950 . S
H3629 C3641 0.950 . S
H3630 C3638 0.950 . S
H3631 C3640 0.950 . S
H3632 C3642 0.950 . S
H3633 C3644 0.950 . S
H3634 C3646 0.950 . S
H3635 C3647 0.950 . S
C3636 H3628 0.950 . S
C3636 C3637 1.386 . S
C3636 C3638 1.391 . S
C3637 C3636 1.386 . S
C3637 C3641 1.393 . S
C3638 H3630 0.950 . S
C3638 C3636 1.391 . S
C3638 C3639 1.400 . S
C3639 C3638 1.400 . S
C3639 C3640 1.398 . S
C3639 C3645 1.491 . S
C3640 H3631 0.950 . S
C3640 C3639 1.398 . S
C3640 C3641 1.391 . S
C3641 H3629 0.950 . S
C3641 C3637 1.393 . S
C3641 C3640 1.391 . S
C3642 H3632 0.950 . S
C3642 C3643 1.386 . S
C3642 C3644 1.391 . S
C3643 C3642 1.386 . S
C3643 C3647 1.393 . S
C3644 H3633 0.950 . S
C3644 C3642 1.391 . S
C3644 C3645 1.400 . S
C3645 C3639 1.491 . S
C3645 C3644 1.400 . S
C3645 C3646 1.398 . S
C3646 H3634 0.950 . S
C3646 C3645 1.398 . S
C3646 C3647 1.391 . S
C3647 H3635 0.950 . S
C3647 C3643 1.393 . S
C3647 C3646 1.391 . S
H3648 C3656 0.950 . S
H3649 C3661 0.950 . S
H3650 C3658 0.950 . S
H3651 C3660 0.950 . S
H3652 C3662 0.950 . S
H3653 C3664 0.950 . S
H3654 C3666 0.950 . S
H3655 C3667 0.950 . S
C3656 H3648 0.950 . S
C3656 C3657 1.386 . S
C3656 C3658 1.391 . S
C3657 C3656 1.386 . S
C3657 C3661 1.393 . S
C3658 H3650 0.950 . S
C3658 C3656 1.391 . S
C3658 C3659 1.400 . S
C3659 C3658 1.400 . S
C3659 C3660 1.398 . S
C3659 C3665 1.491 . S
C3660 H3651 0.950 . S
C3660 C3659 1.398 . S
C3660 C3661 1.391 . S
C3661 H3649 0.950 . S
C3661 C3657 1.393 . S
C3661 C3660 1.391 . S
C3662 H3652 0.950 . S
C3662 C3663 1.386 . S
C3662 C3664 1.391 . S
C3663 C3662 1.386 . S
C3663 C3667 1.393 . S
C3664 H3653 0.950 . S
C3664 C3662 1.391 . S
C3664 C3665 1.400 . S
C3665 C3659 1.491 . S
C3665 C3664 1.400 . S
C3665 C3666 1.398 . S
C3666 H3654 0.950 . S
C3666 C3665 1.398 . S
C3666 C3667 1.391 . S
C3667 H3655 0.950 . S
C3667 C3663 1.393 . S
C3667 C3666 1.391 . S
H3668 C3676 0.950 . S
H3669 C3681 0.950 . S
H3670 C3678 0.950 . S
H3671 C3680 0.950 . S
H3672 C3682 0.950 . S
H3673 C3684 0.950 . S
H3674 C3686 0.950 . S
H3675 C3687 0.950 . S
C3676 H3668 0.950 . S
C3676 C3677 1.386 . S
C3676 C3678 1.391 . S
C3677 C3676 1.386 . S
C3677 C3681 1.393 . S
C3678 H3670 0.950 . S
C3678 C3676 1.391 . S
C3678 C3679 1.400 . S
C3679 C3678 1.400 . S
C3679 C3680 1.398 . S
C3679 C3685 1.491 . S
C3680 H3671 0.950 . S
C3680 C3679 1.398 . S
C3680 C3681 1.391 . S
C3681 H3669 0.950 . S
C3681 C3677 1.393 . S
C3681 C3680 1.391 . S
C3682 H3672 0.950 . S
C3682 C3683 1.386 . S
C3682 C3684 1.391 . S
C3683 C3682 1.386 . S
C3683 C3687 1.393 . S
C3684 H3673 0.950 . S
C3684 C3682 1.391 . S
C3684 C3685 1.400 . S
C3685 C3679 1.491 . S
C3685 C3684 1.400 . S
C3685 C3686 1.398 . S
C3686 H3674 0.950 . S
C3686 C3685 1.398 . S
C3686 C3687 1.391 . S
C3687 H3675 0.950 . S
C3687 C3683 1.393 . S
C3687 C3686 1.391 . S
H3688 C3696 0.950 . S
H3689 C3701 0.950 . S
H3690 C3698 0.950 . S
H3691 C3700 0.950 . S
H3692 C3702 0.950 . S
H3693 C3704 0.950 . S
H3694 C3706 0.950 . S
H3695 C3707 0.950 . S
C3696 H3688 0.950 . S
C3696 C3697 1.386 . S
C3696 C3698 1.391 . S
C3697 C3696 1.386 . S
C3697 C3701 1.393 . S
C3698 H3690 0.950 . S
C3698 C3696 1.391 . S
C3698 C3699 1.400 . S
C3699 C3698 1.400 . S
C3699 C3700 1.398 . S
C3699 C3705 1.491 . S
C3700 H3691 0.950 . S
C3700 C3699 1.398 . S
C3700 C3701 1.391 . S
C3701 H3689 0.950 . S
C3701 C3697 1.393 . S
C3701 C3700 1.391 . S
C3702 H3692 0.950 . S
C3702 C3703 1.386 . S
C3702 C3704 1.391 . S
C3703 C3702 1.386 . S
C3703 C3707 1.393 . S
C3704 H3693 0.950 . S
C3704 C3702 1.391 . S
C3704 C3705 1.400 . S
C3705 C3699 1.491 . S
C3705 C3704 1.400 . S
C3705 C3706 1.398 . S
C3706 H3694 0.950 . S
C3706 C3705 1.398 . S
C3706 C3707 1.391 . S
C3707 H3695 0.950 . S
C3707 C3703 1.393 . S
C3707 C3706 1.391 . S
H3708 C3716 0.950 . S
H3709 C3721 0.950 . S
H3710 C3718 0.950 . S
H3711 C3720 0.950 . S
H3712 C3722 0.950 . S
H3713 C3724 0.950 . S
H3714 C3726 0.950 . S
H3715 C3727 0.950 . S
C3716 H3708 0.950 . S
C3716 C3717 1.386 . S
C3716 C3718 1.391 . S
C3717 C3716 1.386 . S
C3717 C3721 1.393 . S
C3718 H3710 0.950 . S
C3718 C3716 1.391 . S
C3718 C3719 1.400 . S
C3719 C3718 1.400 . S
C3719 C3720 1.398 . S
C3719 C3725 1.491 . S
C3720 H3711 0.950 . S
C3720 C3719 1.398 . S
C3720 C3721 1.391 . S
C3721 H3709 0.950 . S
C3721 C3717 1.393 . S
C3721 C3720 1.391 . S
C3722 H3712 0.950 . S
C3722 C3723 1.386 . S
C3722 C3724 1.391 . S
C3723 C3722 1.386 . S
C3723 C3727 1.393 . S
C3724 H3713 0.950 . S
C3724 C3722 1.391 . S
C3724 C3725 1.400 . S
C3725 C3719 1.491 . S
C3725 C3724 1.400 . S
C3725 C3726 1.398 . S
C3726 H3714 0.950 . S
C3726 C3725 1.398 . S
C3726 C3727 1.391 . S
C3727 H3715 0.950 . S
C3727 C3723 1.393 . S
C3727 C3726 1.391 . S
H3728 C3736 0.950 1_554 S
H3729 C3741 0.950 . S
H3730 C3738 0.950 . S
H3731 C3740 0.950 . S
H3732 C3742 0.950 . S
H3733 C3744 0.950 . S
H3734 C3746 0.950 . S
H3735 C3747 0.950 . S
C3736 H3728 0.950 1_556 S
C3736 C3737 1.386 . S
C3736 C3738 1.391 . S
C3737 C3736 1.386 . S
C3737 C3741 1.393 . S
C3738 H3730 0.950 . S
C3738 C3736 1.391 . S
C3738 C3739 1.400 . S
C3739 C3738 1.400 . S
C3739 C3740 1.398 . S
C3739 C3745 1.491 . S
C3740 H3731 0.950 . S
C3740 C3739 1.398 . S
C3740 C3741 1.391 . S
C3741 H3729 0.950 . S
C3741 C3737 1.393 . S
C3741 C3740 1.391 . S
C3742 H3732 0.950 . S
C3742 C3743 1.386 . S
C3742 C3744 1.391 . S
C3743 C3742 1.386 . S
C3743 C3747 1.393 . S
C3744 H3733 0.950 . S
C3744 C3742 1.391 . S
C3744 C3745 1.400 . S
C3745 C3739 1.491 . S
C3745 C3744 1.400 . S
C3745 C3746 1.398 . S
C3746 H3734 0.950 . S
C3746 C3745 1.398 . S
C3746 C3747 1.391 . S
C3747 H3735 0.950 . S
C3747 C3743 1.393 . S
C3747 C3746 1.391 . S
H3748 C3756 0.950 . S
H3749 C3761 0.950 . S
H3750 C3758 0.950 . S
H3751 C3760 0.950 . S
H3752 C3762 0.950 . S
H3753 C3764 0.950 . S
H3754 C3766 0.950 . S
H3755 C3767 0.950 . S
C3756 H3748 0.950 . S
C3756 C3757 1.386 . S
C3756 C3758 1.391 . S
C3757 C3756 1.386 . S
C3757 C3761 1.393 . S
C3758 H3750 0.950 . S
C3758 C3756 1.391 . S
C3758 C3759 1.400 . S
C3759 C3758 1.400 . S
C3759 C3760 1.398 . S
C3759 C3765 1.491 . S
C3760 H3751 0.950 . S
C3760 C3759 1.398 . S
C3760 C3761 1.391 . S
C3761 H3749 0.950 . S
C3761 C3757 1.393 . S
C3761 C3760 1.391 . S
C3762 H3752 0.950 . S
C3762 C3763 1.386 . S
C3762 C3764 1.391 . S
C3763 C3762 1.386 . S
C3763 C3767 1.393 . S
C3764 H3753 0.950 . S
C3764 C3762 1.391 . S
C3764 C3765 1.400 . S
C3765 C3759 1.491 . S
C3765 C3764 1.400 . S
C3765 C3766 1.398 . S
C3766 H3754 0.950 . S
C3766 C3765 1.398 . S
C3766 C3767 1.391 . S
C3767 H3755 0.950 . S
C3767 C3763 1.393 . S
C3767 C3766 1.391 . S
H3768 C3776 0.950 . S
H3769 C3781 0.950 . S
H3770 C3778 0.950 . S
H3771 C3780 0.950 . S
H3772 C3782 0.950 . S
H3773 C3784 0.950 . S
H3774 C3786 0.950 . S
H3775 C3787 0.950 . S
C3776 H3768 0.950 . S
C3776 C3777 1.386 . S
C3776 C3778 1.391 . S
C3777 C3776 1.386 . S
C3777 C3781 1.393 . S
C3778 H3770 0.950 . S
C3778 C3776 1.391 . S
C3778 C3779 1.400 . S
C3779 C3778 1.400 . S
C3779 C3780 1.398 . S
C3779 C3785 1.491 . S
C3780 H3771 0.950 . S
C3780 C3779 1.398 . S
C3780 C3781 1.391 . S
C3781 H3769 0.950 . S
C3781 C3777 1.393 . S
C3781 C3780 1.391 . S
C3782 H3772 0.950 . S
C3782 C3783 1.386 . S
C3782 C3784 1.391 . S
C3783 C3782 1.386 . S
C3783 C3787 1.393 . S
C3784 H3773 0.950 . S
C3784 C3782 1.391 . S
C3784 C3785 1.400 . S
C3785 C3779 1.491 . S
C3785 C3784 1.400 . S
C3785 C3786 1.398 . S
C3786 H3774 0.950 . S
C3786 C3785 1.398 . S
C3786 C3787 1.391 . S
C3787 H3775 0.950 . S
C3787 C3783 1.393 . S
C3787 C3786 1.391 . S
H3788 C3796 0.950 . S
H3789 C3801 0.950 . S
H3790 C3798 0.950 . S
H3791 C3800 0.950 . S
H3792 C3802 0.950 . S
H3793 C3804 0.950 . S
H3794 C3806 0.950 . S
H3795 C3807 0.950 . S
C3796 H3788 0.950 . S
C3796 C3797 1.386 . S
C3796 C3798 1.391 . S
C3797 C3796 1.386 . S
C3797 C3801 1.393 . S
C3798 H3790 0.950 . S
C3798 C3796 1.391 . S
C3798 C3799 1.400 . S
C3799 C3798 1.400 . S
C3799 C3800 1.398 . S
C3799 C3805 1.491 . S
C3800 H3791 0.950 . S
C3800 C3799 1.398 . S
C3800 C3801 1.391 . S
C3801 H3789 0.950 . S
C3801 C3797 1.393 . S
C3801 C3800 1.391 . S
C3802 H3792 0.950 . S
C3802 C3803 1.386 . S
C3802 C3804 1.391 . S
C3803 C3802 1.386 . S
C3803 C3807 1.393 . S
C3804 H3793 0.950 . S
C3804 C3802 1.391 . S
C3804 C3805 1.400 . S
C3805 C3799 1.491 . S
C3805 C3804 1.400 . S
C3805 C3806 1.398 . S
C3806 H3794 0.950 . S
C3806 C3805 1.398 . S
C3806 C3807 1.391 . S
C3807 H3795 0.950 . S
C3807 C3803 1.393 . S
C3807 C3806 1.391 . S
H3808 C3816 0.950 . S
H3809 C3821 0.950 . S
H3810 C3818 0.950 . S
H3811 C3820 0.950 . S
H3812 C3822 0.950 . S
H3813 C3824 0.950 . S
H3814 C3826 0.950 . S
H3815 C3827 0.950 . S
C3816 H3808 0.950 . S
C3816 C3817 1.386 . S
C3816 C3818 1.391 . S
C3817 C3816 1.386 . S
C3817 C3821 1.393 . S
C3818 H3810 0.950 . S
C3818 C3816 1.391 . S
C3818 C3819 1.400 . S
C3819 C3818 1.400 . S
C3819 C3820 1.398 . S
C3819 C3825 1.491 . S
C3820 H3811 0.950 . S
C3820 C3819 1.398 . S
C3820 C3821 1.391 . S
C3821 H3809 0.950 . S
C3821 C3817 1.393 . S
C3821 C3820 1.391 . S
C3822 H3812 0.950 . S
C3822 C3823 1.386 . S
C3822 C3824 1.391 . S
C3823 C3822 1.386 . S
C3823 C3827 1.393 . S
C3824 H3813 0.950 . S
C3824 C3822 1.391 . S
C3824 C3825 1.400 . S
C3825 C3819 1.491 . S
C3825 C3824 1.400 . S
C3825 C3826 1.398 . S
C3826 H3814 0.950 . S
C3826 C3825 1.398 . S
C3826 C3827 1.391 . S
C3827 H3815 0.950 . S
C3827 C3823 1.393 . S
C3827 C3826 1.391 . S
H3828 C3836 0.950 . S
H3829 C3841 0.950 . S
H3830 C3838 0.950 . S
H3831 C3840 0.950 . S
H3832 C3842 0.950 . S
H3833 C3844 0.950 . S
H3834 C3846 0.950 . S
H3835 C3847 0.950 . S
C3836 H3828 0.950 . S
C3836 C3837 1.386 . S
C3836 C3838 1.391 . S
C3837 C3836 1.386 . S
C3837 C3841 1.393 . S
C3838 H3830 0.950 . S
C3838 C3836 1.391 . S
C3838 C3839 1.400 . S
C3839 C3838 1.400 . S
C3839 C3840 1.398 . S
C3839 C3845 1.491 . S
C3840 H3831 0.950 . S
C3840 C3839 1.398 . S
C3840 C3841 1.391 . S
C3841 H3829 0.950 . S
C3841 C3837 1.393 . S
C3841 C3840 1.391 . S
C3842 H3832 0.950 . S
C3842 C3843 1.386 . S
C3842 C3844 1.391 . S
C3843 C3842 1.386 . S
C3843 C3847 1.393 . S
C3844 H3833 0.950 . S
C3844 C3842 1.391 . S
C3844 C3845 1.400 . S
C3845 C3839 1.491 . S
C3845 C3844 1.400 . S
C3845 C3846 1.398 . S
C3846 H3834 0.950 . S
C3846 C3845 1.398 . S
C3846 C3847 1.391 . S
C3847 H3835 0.950 . S
C3847 C3843 1.393 . S
C3847 C3846 1.391 . S
H3848 C3856 0.950 . S
H3849 C3861 0.950 . S
H3850 C3858 0.950 . S
H3851 C3860 0.950 . S
H3852 C3862 0.950 . S
H3853 C3864 0.950 . S
H3854 C3866 0.950 . S
H3855 C3867 0.950 . S
C3856 H3848 0.950 . S
C3856 C3857 1.386 . S
C3856 C3858 1.391 . S
C3857 C3856 1.386 . S
C3857 C3861 1.393 . S
C3858 H3850 0.950 . S
C3858 C3856 1.391 . S
C3858 C3859 1.400 . S
C3859 C3858 1.400 . S
C3859 C3860 1.398 . S
C3859 C3865 1.491 . S
C3860 H3851 0.950 . S
C3860 C3859 1.398 . S
C3860 C3861 1.391 . S
C3861 H3849 0.950 . S
C3861 C3857 1.393 . S
C3861 C3860 1.391 . S
C3862 H3852 0.950 . S
C3862 C3863 1.386 . S
C3862 C3864 1.391 . S
C3863 C3862 1.386 . S
C3863 C3867 1.393 . S
C3864 H3853 0.950 . S
C3864 C3862 1.391 . S
C3864 C3865 1.400 . S
C3865 C3859 1.491 . S
C3865 C3864 1.400 . S
C3865 C3866 1.398 . S
C3866 H3854 0.950 . S
C3866 C3865 1.398 . S
C3866 C3867 1.391 . S
C3867 H3855 0.950 . S
C3867 C3863 1.393 . S
C3867 C3866 1.391 . S
H3868 C3876 0.950 . S
H3869 C3881 0.950 . S
H3870 C3878 0.950 . S
H3871 C3880 0.950 . S
H3872 C3882 0.950 . S
H3873 C3884 0.950 . S
H3874 C3886 0.950 . S
H3875 C3887 0.950 . S
C3876 H3868 0.950 . S
C3876 C3877 1.386 . S
C3876 C3878 1.391 . S
C3877 C3876 1.386 . S
C3877 C3881 1.393 . S
C3878 H3870 0.950 . S
C3878 C3876 1.391 . S
C3878 C3879 1.400 . S
C3879 C3878 1.400 . S
C3879 C3880 1.398 . S
C3879 C3885 1.491 . S
C3880 H3871 0.950 . S
C3880 C3879 1.398 . S
C3880 C3881 1.391 . S
C3881 H3869 0.950 . S
C3881 C3877 1.393 . S
C3881 C3880 1.391 . S
C3882 H3872 0.950 . S
C3882 C3883 1.386 . S
C3882 C3884 1.391 . S
C3883 C3882 1.386 . S
C3883 C3887 1.393 . S
C3884 H3873 0.950 . S
C3884 C3882 1.391 . S
C3884 C3885 1.400 . S
C3885 C3879 1.491 . S
C3885 C3884 1.400 . S
C3885 C3886 1.398 . S
C3886 H3874 0.950 . S
C3886 C3885 1.398 . S
C3886 C3887 1.391 . S
C3887 H3875 0.950 . S
C3887 C3883 1.393 . S
C3887 C3886 1.391 . S
H3888 C3896 0.950 . S
H3889 C3901 0.950 . S
H3890 C3898 0.950 . S
H3891 C3900 0.950 . S
H3892 C3902 0.950 . S
H3893 C3904 0.950 . S
H3894 C3906 0.950 . S
H3895 C3907 0.950 . S
C3896 H3888 0.950 . S
C3896 C3897 1.386 . S
C3896 C3898 1.391 . S
C3897 C3896 1.386 . S
C3897 C3901 1.393 . S
C3898 H3890 0.950 . S
C3898 C3896 1.391 . S
C3898 C3899 1.400 . S
C3899 C3898 1.400 . S
C3899 C3900 1.398 . S
C3899 C3905 1.491 . S
C3900 H3891 0.950 . S
C3900 C3899 1.398 . S
C3900 C3901 1.391 . S
C3901 H3889 0.950 . S
C3901 C3897 1.393 . S
C3901 C3900 1.391 . S
C3902 H3892 0.950 . S
C3902 C3903 1.386 . S
C3902 C3904 1.391 . S
C3903 C3902 1.386 . S
C3903 C3907 1.393 . S
C3904 H3893 0.950 . S
C3904 C3902 1.391 . S
C3904 C3905 1.400 . S
C3905 C3899 1.491 . S
C3905 C3904 1.400 . S
C3905 C3906 1.398 . S
C3906 H3894 0.950 . S
C3906 C3905 1.398 . S
C3906 C3907 1.391 . S
C3907 H3895 0.950 . S
C3907 C3903 1.393 . S
C3907 C3906 1.391 . S
H3908 C3916 0.950 . S
H3909 C3921 0.950 . S
H3910 C3918 0.950 . S
H3911 C3920 0.950 . S
H3912 C3922 0.950 . S
H3913 C3924 0.950 . S
H3914 C3926 0.950 . S
H3915 C3927 0.950 . S
C3916 H3908 0.950 . S
C3916 C3917 1.386 . S
C3916 C3918 1.391 . S
C3917 C3916 1.386 . S
C3917 C3921 1.393 . S
C3918 H3910 0.950 . S
C3918 C3916 1.391 . S
C3918 C3919 1.400 . S
C3919 C3918 1.400 . S
C3919 C3920 1.398 . S
C3919 C3925 1.491 . S
C3920 H3911 0.950 . S
C3920 C3919 1.398 . S
C3920 C3921 1.391 . S
C3921 H3909 0.950 . S
C3921 C3917 1.393 . S
C3921 C3920 1.391 . S
C3922 H3912 0.950 . S
C3922 C3923 1.386 . S
C3922 C3924 1.391 . S
C3923 C3922 1.386 . S
C3923 C3927 1.393 . S
C3924 H3913 0.950 . S
C3924 C3922 1.391 . S
C3924 C3925 1.400 . S
C3925 C3919 1.491 . S
C3925 C3924 1.400 . S
C3925 C3926 1.398 . S
C3926 H3914 0.950 . S
C3926 C3925 1.398 . S
C3926 C3927 1.391 . S
C3927 H3915 0.950 . S
C3927 C3923 1.393 . S
C3927 C3926 1.391 . S
H3928 C3936 1.005 . S
H3929 C3941 0.950 . S
H3930 C3938 0.950 . S
H3931 C3940 0.950 . S
H3932 C3942 0.950 . S
H3933 C3944 0.950 . S
H3934 C3946 0.950 . S
H3935 C3947 0.950 . S
C3936 H3928 1.005 . S
C3936 C3937 1.386 . S
C3936 C3938 1.391 . S
C3937 C3936 1.386 . S
C3937 C3941 1.393 . S
C3938 H3930 0.950 . S
C3938 C3936 1.391 . S
C3938 C3939 1.400 . S
C3939 C3938 1.400 . S
C3939 C3940 1.398 . S
C3939 C3945 1.491 . S
C3940 H3931 0.950 . S
C3940 C3939 1.398 . S
C3940 C3941 1.391 . S
C3941 H3929 0.950 . S
C3941 C3937 1.393 . S
C3941 C3940 1.391 . S
C3942 H3932 0.950 . S
C3942 C3943 1.386 . S
C3942 C3944 1.391 . S
C3943 C3942 1.386 . S
C3943 C3947 1.393 . S
C3944 H3933 0.950 . S
C3944 C3942 1.391 . S
C3944 C3945 1.400 . S
C3945 C3939 1.491 . S
C3945 C3944 1.400 . S
C3945 C3946 1.398 . S
C3946 H3934 0.950 . S
C3946 C3945 1.398 . S
C3946 C3947 1.391 . S
C3947 H3935 0.950 . S
C3947 C3943 1.393 . S
C3947 C3946 1.391 . S
H3948 C3956 0.950 . S
H3949 C3961 0.950 . S
H3950 C3958 0.950 . S
H3951 C3960 0.950 . S
H3952 C3962 0.950 . S
H3953 C3964 0.950 . S
H3954 C3966 0.950 . S
H3955 C3967 0.950 . S
C3956 H3948 0.950 . S
C3956 C3957 1.386 . S
C3956 C3958 1.391 . S
C3957 C3956 1.386 . S
C3957 C3961 1.393 . S
C3958 H3950 0.950 . S
C3958 C3956 1.391 . S
C3958 C3959 1.400 . S
C3959 C3958 1.400 . S
C3959 C3960 1.398 . S
C3959 C3965 1.491 . S
C3960 H3951 0.950 . S
C3960 C3959 1.398 . S
C3960 C3961 1.391 . S
C3961 H3949 0.950 . S
C3961 C3957 1.393 . S
C3961 C3960 1.391 . S
C3962 H3952 0.950 . S
C3962 C3963 1.386 . S
C3962 C3964 1.391 . S
C3963 C3962 1.386 . S
C3963 C3967 1.393 . S
C3964 H3953 0.950 . S
C3964 C3962 1.391 . S
C3964 C3965 1.400 . S
C3965 C3959 1.491 . S
C3965 C3964 1.400 . S
C3965 C3966 1.398 . S
C3966 H3954 0.950 . S
C3966 C3965 1.398 . S
C3966 C3967 1.391 . S
C3967 H3955 0.950 . S
C3967 C3963 1.393 . S
C3967 C3966 1.391 . S
H3968 C3976 0.950 . S
H3969 C3981 0.950 . S
H3970 C3978 0.950 . S
H3971 C3980 0.950 . S
H3972 C3982 0.950 . S
H3973 C3984 0.950 . S
H3974 C3986 0.950 . S
H3975 C3987 0.950 . S
C3976 H3968 0.950 . S
C3976 C3977 1.386 . S
C3976 C3978 1.391 . S
C3977 C3976 1.386 . S
C3977 C3981 1.393 . S
C3978 H3970 0.950 . S
C3978 C3976 1.391 . S
C3978 C3979 1.400 . S
C3979 C3978 1.400 . S
C3979 C3980 1.398 . S
C3979 C3985 1.491 . S
C3980 H3971 0.950 . S
C3980 C3979 1.398 . S
C3980 C3981 1.391 . S
C3981 H3969 0.950 . S
C3981 C3977 1.393 . S
C3981 C3980 1.391 . S
C3982 H3972 0.950 . S
C3982 C3983 1.386 . S
C3982 C3984 1.391 . S
C3983 C3982 1.386 . S
C3983 C3987 1.393 . S
C3984 H3973 0.950 . S
C3984 C3982 1.391 . S
C3984 C3985 1.400 . S
C3985 C3979 1.491 . S
C3985 C3984 1.400 . S
C3985 C3986 1.398 . S
C3986 H3974 0.950 . S
C3986 C3985 1.398 . S
C3986 C3987 1.391 . S
C3987 H3975 0.950 . S
C3987 C3983 1.393 . S
C3987 C3986 1.391 . S
H3988 C3996 0.950 . S
H3989 C4001 0.950 . S
H3990 C3998 0.950 . S
H3991 C4000 0.950 . S
H3992 C4002 0.950 . S
H3993 C4004 0.950 . S
H3994 C4006 0.950 . S
H3995 C4007 0.950 . S
C3996 H3988 0.950 . S
C3996 C3997 1.386 . S
C3996 C3998 1.391 . S
C3997 C3996 1.386 . S
C3997 C4001 1.393 . S
C3998 H3990 0.950 . S
C3998 C3996 1.391 . S
C3998 C3999 1.400 . S
C3999 C3998 1.400 . S
C3999 C4000 1.398 . S
C3999 C4005 1.491 . S
C4000 H3991 0.950 . S
C4000 C3999 1.398 . S
C4000 C4001 1.391 . S
C4001 H3989 0.950 . S
C4001 C3997 1.393 . S
C4001 C4000 1.391 . S
C4002 H3992 0.950 . S
C4002 C4003 1.386 . S
C4002 C4004 1.391 . S
C4003 C4002 1.386 . S
C4003 C4007 1.393 . S
C4004 H3993 0.950 . S
C4004 C4002 1.391 . S
C4004 C4005 1.400 . S
C4005 C3999 1.491 . S
C4005 C4004 1.400 . S
C4005 C4006 1.398 . S
C4006 H3994 0.950 . S
C4006 C4005 1.398 . S
C4006 C4007 1.391 . S
C4007 H3995 0.950 . S
C4007 C4003 1.393 . S
C4007 C4006 1.391 . S
H4008 C4016 0.950 . S
H4009 C4021 0.950 . S
H4010 C4018 0.950 . S
H4011 C4020 0.950 . S
H4012 C4022 0.950 . S
H4013 C4024 0.950 . S
H4014 C4026 0.950 . S
H4015 C4027 0.950 . S
C4016 H4008 0.950 . S
C4016 C4017 1.386 . S
C4016 C4018 1.391 . S
C4017 C4016 1.386 . S
C4017 C4021 1.393 . S
C4018 H4010 0.950 . S
C4018 C4016 1.391 . S
C4018 C4019 1.400 . S
C4019 C4018 1.400 . S
C4019 C4020 1.398 . S
C4019 C4025 1.491 . S
C4020 H4011 0.950 . S
C4020 C4019 1.398 . S
C4020 C4021 1.391 . S
C4021 H4009 0.950 . S
C4021 C4017 1.393 . S
C4021 C4020 1.391 . S
C4022 H4012 0.950 . S
C4022 C4023 1.386 . S
C4022 C4024 1.391 . S
C4023 C4022 1.386 . S
C4023 C4027 1.393 . S
C4024 H4013 0.950 . S
C4024 C4022 1.391 . S
C4024 C4025 1.400 . S
C4025 C4019 1.491 . S
C4025 C4024 1.400 . S
C4025 C4026 1.398 . S
C4026 H4014 0.950 . S
C4026 C4025 1.398 . S
C4026 C4027 1.391 . S
C4027 H4015 0.950 . S
C4027 C4023 1.393 . S
C4027 C4026 1.391 . S
H4028 C4036 0.950 . S
H4029 C4041 0.950 . S
H4030 C4038 0.950 . S
H4031 C4040 0.950 . S
H4032 C4042 0.950 . S
H4033 C4044 0.950 . S
H4034 C4046 0.950 . S
H4035 C4047 0.950 . S
C4036 H4028 0.950 . S
C4036 C4037 1.386 . S
C4036 C4038 1.391 . S
C4037 C4036 1.386 . S
C4037 C4041 1.393 . S
C4038 H4030 0.950 . S
C4038 C4036 1.391 . S
C4038 C4039 1.400 . S
C4039 C4038 1.400 . S
C4039 C4040 1.398 . S
C4039 C4045 1.491 . S
C4040 H4031 0.950 . S
C4040 C4039 1.398 . S
C4040 C4041 1.391 . S
C4041 H4029 0.950 . S
C4041 C4037 1.393 . S
C4041 C4040 1.391 . S
C4042 H4032 0.950 . S
C4042 C4043 1.386 . S
C4042 C4044 1.391 . S
C4043 C4042 1.386 . S
C4043 C4047 1.393 . S
C4044 H4033 0.950 . S
C4044 C4042 1.391 . S
C4044 C4045 1.400 . S
C4045 C4039 1.491 . S
C4045 C4044 1.400 . S
C4045 C4046 1.398 . S
C4046 H4034 0.950 . S
C4046 C4045 1.398 . S
C4046 C4047 1.391 . S
C4047 H4035 0.950 . S
C4047 C4043 1.393 . S
C4047 C4046 1.391 . S
H4048 C4056 0.950 . S
H4049 C4061 0.950 . S
H4050 C4058 0.950 . S
H4051 C4060 0.950 . S
H4052 C4062 0.950 . S
H4053 C4064 0.950 . S
H4054 C4066 0.950 . S
H4055 C4067 0.950 . S
C4056 H4048 0.950 . S
C4056 C4057 1.386 . S
C4056 C4058 1.391 . S
C4057 C4056 1.386 . S
C4057 C4061 1.393 . S
C4058 H4050 0.950 . S
C4058 C4056 1.391 . S
C4058 C4059 1.400 . S
C4059 C4058 1.400 . S
C4059 C4060 1.398 . S
C4059 C4065 1.491 . S
C4060 H4051 0.950 . S
C4060 C4059 1.398 . S
C4060 C4061 1.391 . S
C4061 H4049 0.950 . S
C4061 C4057 1.393 . S
C4061 C4060 1.391 . S
C4062 H4052 0.950 . S
C4062 C4063 1.386 . S
C4062 C4064 1.391 . S
C4063 C4062 1.386 . S
C4063 C4067 1.393 . S
C4064 H4053 0.950 . S
C4064 C4062 1.391 . S
C4064 C4065 1.400 . S
C4065 C4059 1.491 . S
C4065 C4064 1.400 . S
C4065 C4066 1.398 . S
C4066 H4054 0.950 . S
C4066 C4065 1.398 . S
C4066 C4067 1.391 . S
C4067 H4055 0.950 . S
C4067 C4063 1.393 . S
C4067 C4066 1.391 . S
H4068 C4076 0.950 . S
H4069 C4081 0.950 . S
H4070 C4078 0.950 . S
H4071 C4080 0.950 . S
H4072 C4082 0.950 . S
H4073 C4084 0.950 . S
H4074 C4086 0.950 . S
H4075 C4087 0.950 . S
C4076 H4068 0.950 . S
C4076 C4077 1.386 . S
C4076 C4078 1.391 . S
C4077 C4076 1.386 . S
C4077 C4081 1.393 . S
C4078 H4070 0.950 . S
C4078 C4076 1.391 . S
C4078 C4079 1.400 . S
C4079 C4078 1.400 . S
C4079 C4080 1.398 . S
C4079 C4085 1.491 . S
C4080 H4071 0.950 . S
C4080 C4079 1.398 . S
C4080 C4081 1.391 . S
C4081 H4069 0.950 . S
C4081 C4077 1.393 . S
C4081 C4080 1.391 . S
C4082 H4072 0.950 . S
C4082 C4083 1.386 . S
C4082 C4084 1.391 . S
C4083 C4082 1.386 . S
C4083 C4087 1.393 . S
C4084 H4073 0.950 . S
C4084 C4082 1.391 . S
C4084 C4085 1.400 . S
C4085 C4079 1.491 . S
C4085 C4084 1.400 . S
C4085 C4086 1.398 . S
C4086 H4074 0.950 . S
C4086 C4085 1.398 . S
C4086 C4087 1.391 . S
C4087 H4075 0.950 . S
C4087 C4083 1.393 . S
C4087 C4086 1.391 . S
H4088 C4096 0.950 . S
H4089 C4101 0.950 . S
H4090 C4098 0.950 . S
H4091 C4100 0.950 . S
H4092 C4102 0.950 . S
H4093 C4104 0.950 . S
H4094 C4106 0.950 . S
H4095 C4107 0.950 . S
C4096 H4088 0.950 . S
C4096 C4097 1.386 . S
C4096 C4098 1.391 . S
C4097 C4096 1.386 . S
C4097 C4101 1.393 . S
C4098 H4090 0.950 . S
C4098 C4096 1.391 . S
C4098 C4099 1.400 . S
C4099 C4098 1.400 . S
C4099 C4100 1.398 . S
C4099 C4105 1.491 . S
C4100 H4091 0.950 . S
C4100 C4099 1.398 . S
C4100 C4101 1.391 . S
C4101 H4089 0.950 . S
C4101 C4097 1.393 . S
C4101 C4100 1.391 . S
C4102 H4092 0.950 . S
C4102 C4103 1.386 . S
C4102 C4104 1.391 . S
C4103 C4102 1.386 . S
C4103 C4107 1.393 . S
C4104 H4093 0.950 . S
C4104 C4102 1.391 . S
C4104 C4105 1.400 . S
C4105 C4099 1.491 . S
C4105 C4104 1.400 . S
C4105 C4106 1.398 . S
C4106 H4094 0.950 . S
C4106 C4105 1.398 . S
C4106 C4107 1.391 . S
C4107 H4095 0.950 . S
C4107 C4103 1.393 . S
C4107 C4106 1.391 . S
H4108 C4116 0.950 . S
H4109 C4121 0.950 . S
H4110 C4118 0.950 . S
H4111 C4120 0.950 . S
H4112 C4122 0.950 . S
H4113 C4124 0.950 . S
H4114 C4126 0.950 . S
H4115 C4127 0.950 . S
C4116 H4108 0.950 . S
C4116 C4117 1.386 . S
C4116 C4118 1.391 . S
C4117 C4116 1.386 . S
C4117 C4121 1.393 . S
C4118 H4110 0.950 . S
C4118 C4116 1.391 . S
C4118 C4119 1.400 . S
C4119 C4118 1.400 . S
C4119 C4120 1.398 . S
C4119 C4125 1.491 . S
C4120 H4111 0.950 . S
C4120 C4119 1.398 . S
C4120 C4121 1.391 . S
C4121 H4109 0.950 . S
C4121 C4117 1.393 . S
C4121 C4120 1.391 . S
C4122 H4112 0.950 . S
C4122 C4123 1.386 . S
C4122 C4124 1.391 . S
C4123 C4122 1.386 . S
C4123 C4127 1.393 . S
C4124 H4113 0.950 . S
C4124 C4122 1.391 . S
C4124 C4125 1.400 . S
C4125 C4119 1.491 . S
C4125 C4124 1.400 . S
C4125 C4126 1.398 . S
C4126 H4114 0.950 . S
C4126 C4125 1.398 . S
C4126 C4127 1.391 . S
C4127 H4115 0.950 . S
C4127 C4123 1.393 . S
C4127 C4126 1.391 . S
H4128 C4136 0.950 . S
H4129 C4141 0.950 . S
H4130 C4138 0.950 . S
H4131 C4140 0.950 . S
H4132 C4142 0.937 1_554 S
H4133 C4144 0.950 . S
H4134 C4146 0.950 . S
H4135 C4147 0.950 . S
C4136 H4128 0.950 . S
C4136 C4137 1.386 . S
C4136 C4138 1.391 . S
C4137 C4136 1.386 . S
C4137 C4141 1.393 . S
C4138 H4130 0.950 . S
C4138 C4136 1.391 . S
C4138 C4139 1.400 . S
C4139 C4138 1.400 . S
C4139 C4140 1.398 . S
C4139 C4145 1.491 . S
C4140 H4131 0.950 . S
C4140 C4139 1.398 . S
C4140 C4141 1.391 . S
C4141 H4129 0.950 . S
C4141 C4137 1.393 . S
C4141 C4140 1.391 . S
C4142 H4132 0.937 1_556 S
C4142 C4143 1.386 . S
C4142 C4144 1.391 . S
C4143 C4142 1.386 . S
C4143 C4147 1.393 . S
C4144 H4133 0.950 . S
C4144 C4142 1.391 . S
C4144 C4145 1.400 . S
C4145 C4139 1.491 . S
C4145 C4144 1.400 . S
C4145 C4146 1.398 . S
C4146 H4134 0.950 . S
C4146 C4145 1.398 . S
C4146 C4147 1.391 . S
C4147 H4135 0.950 . S
C4147 C4143 1.393 . S
C4147 C4146 1.391 . S
H4148 C4156 0.950 . S
H4149 C4161 0.950 . S
H4150 C4158 0.950 . S
H4151 C4160 0.950 . S
H4152 C4162 0.950 . S
H4153 C4164 0.950 . S
H4154 C4166 0.950 . S
H4155 C4167 0.950 . S
C4156 H4148 0.950 . S
C4156 C4157 1.386 . S
C4156 C4158 1.391 . S
C4157 C4156 1.386 . S
C4157 C4161 1.393 . S
C4158 H4150 0.950 . S
C4158 C4156 1.391 . S
C4158 C4159 1.400 . S
C4159 C4158 1.400 . S
C4159 C4160 1.398 . S
C4159 C4165 1.491 . S
C4160 H4151 0.950 . S
C4160 C4159 1.398 . S
C4160 C4161 1.391 . S
C4161 H4149 0.950 . S
C4161 C4157 1.393 . S
C4161 C4160 1.391 . S
C4162 H4152 0.950 . S
C4162 C4163 1.386 . S
C4162 C4164 1.391 . S
C4163 C4162 1.386 . S
C4163 C4167 1.393 . S
C4164 H4153 0.950 . S
C4164 C4162 1.391 . S
C4164 C4165 1.400 . S
C4165 C4159 1.491 . S
C4165 C4164 1.400 . S
C4165 C4166 1.398 . S
C4166 H4154 0.950 . S
C4166 C4165 1.398 . S
C4166 C4167 1.391 . S
C4167 H4155 0.950 . S
C4167 C4163 1.393 . S
C4167 C4166 1.391 . S
H4168 C4176 0.950 . S
H4169 C4181 0.950 . S
H4170 C4178 0.950 . S
H4171 C4180 0.950 . S
H4172 C4182 0.950 . S
H4173 C4184 0.950 . S
H4174 C4186 0.950 . S
H4175 C4187 0.950 . S
C4176 H4168 0.950 . S
C4176 C4177 1.386 . S
C4176 C4178 1.391 . S
C4177 C4176 1.386 . S
C4177 C4181 1.393 . S
C4178 H4170 0.950 . S
C4178 C4176 1.391 . S
C4178 C4179 1.400 . S
C4179 C4178 1.400 . S
C4179 C4180 1.398 . S
C4179 C4185 1.491 . S
C4180 H4171 0.950 . S
C4180 C4179 1.398 . S
C4180 C4181 1.391 . S
C4181 H4169 0.950 . S
C4181 C4177 1.393 . S
C4181 C4180 1.391 . S
C4182 H4172 0.950 . S
C4182 C4183 1.386 . S
C4182 C4184 1.391 . S
C4183 C4182 1.386 . S
C4183 C4187 1.393 . S
C4184 H4173 0.950 . S
C4184 C4182 1.391 . S
C4184 C4185 1.400 . S
C4185 C4179 1.491 . S
C4185 C4184 1.400 . S
C4185 C4186 1.398 . S
C4186 H4174 0.950 . S
C4186 C4185 1.398 . S
C4186 C4187 1.391 . S
C4187 H4175 0.950 . S
C4187 C4183 1.393 . S
C4187 C4186 1.391 . S
H4188 C4196 0.950 . S
H4189 C4201 0.950 . S
H4190 C4198 0.950 . S
H4191 C4200 0.950 . S
H4192 C4202 0.950 . S
H4193 C4204 0.950 . S
H4194 C4206 0.950 . S
H4195 C4207 0.950 . S
C4196 H4188 0.950 . S
C4196 C4197 1.386 . S
C4196 C4198 1.391 . S
C4197 C4196 1.386 . S
C4197 C4201 1.393 . S
C4198 H4190 0.950 . S
C4198 C4196 1.391 . S
C4198 C4199 1.400 . S
C4199 C4198 1.400 . S
C4199 C4200 1.398 . S
C4199 C4205 1.491 . S
C4200 H4191 0.950 . S
C4200 C4199 1.398 . S
C4200 C4201 1.391 . S
C4201 H4189 0.950 . S
C4201 C4197 1.393 . S
C4201 C4200 1.391 . S
C4202 H4192 0.950 . S
C4202 C4203 1.386 . S
C4202 C4204 1.391 . S
C4203 C4202 1.386 . S
C4203 C4207 1.393 . S
C4204 H4193 0.950 . S
C4204 C4202 1.391 . S
C4204 C4205 1.400 . S
C4205 C4199 1.491 . S
C4205 C4204 1.400 . S
C4205 C4206 1.398 . S
C4206 H4194 0.950 . S
C4206 C4205 1.398 . S
C4206 C4207 1.391 . S
C4207 H4195 0.950 . S
C4207 C4203 1.393 . S
C4207 C4206 1.391 . S
H4208 C4216 0.950 . S
H4209 C4221 0.950 . S
H4210 C4218 0.950 . S
H4211 C4220 0.950 . S
H4212 C4222 0.950 . S
H4213 C4224 0.950 . S
H4214 C4226 0.950 . S
H4215 C4227 0.950 . S
C4216 H4208 0.950 . S
C4216 C4217 1.386 . S
C4216 C4218 1.391 . S
C4217 C4216 1.386 . S
C4217 C4221 1.393 . S
C4218 H4210 0.950 . S
C4218 C4216 1.391 . S
C4218 C4219 1.400 . S
C4219 C4218 1.400 . S
C4219 C4220 1.398 . S
C4219 C4225 1.491 . S
C4220 H4211 0.950 . S
C4220 C4219 1.398 . S
C4220 C4221 1.391 . S
C4221 H4209 0.950 . S
C4221 C4217 1.393 . S
C4221 C4220 1.391 . S
C4222 H4212 0.950 . S
C4222 C4223 1.386 . S
C4222 C4224 1.391 . S
C4223 C4222 1.386 . S
C4223 C4227 1.393 . S
C4224 H4213 0.950 . S
C4224 C4222 1.391 . S
C4224 C4225 1.400 . S
C4225 C4219 1.491 . S
C4225 C4224 1.400 . S
C4225 C4226 1.398 . S
C4226 H4214 0.950 . S
C4226 C4225 1.398 . S
C4226 C4227 1.391 . S
C4227 H4215 0.950 . S
C4227 C4223 1.393 . S
C4227 C4226 1.391 . S
H4228 C4236 0.950 . S
H4229 C4241 0.950 . S
H4230 C4238 0.950 . S
H4231 C4240 0.950 . S
H4232 C4242 0.950 . S
H4233 C4244 0.950 . S
H4234 C4246 0.950 . S
H4235 C4247 0.950 . S
C4236 H4228 0.950 . S
C4236 C4237 1.386 . S
C4236 C4238 1.391 . S
C4237 C4236 1.386 . S
C4237 C4241 1.393 . S
C4238 H4230 0.950 . S
C4238 C4236 1.391 . S
C4238 C4239 1.400 . S
C4239 C4238 1.400 . S
C4239 C4240 1.398 . S
C4239 C4245 1.491 . S
C4240 H4231 0.950 . S
C4240 C4239 1.398 . S
C4240 C4241 1.391 . S
C4241 H4229 0.950 . S
C4241 C4237 1.393 . S
C4241 C4240 1.391 . S
C4242 H4232 0.950 . S
C4242 C4243 1.386 . S
C4242 C4244 1.391 . S
C4243 C4242 1.386 . S
C4243 C4247 1.393 . S
C4244 H4233 0.950 . S
C4244 C4242 1.391 . S
C4244 C4245 1.400 . S
C4245 C4239 1.491 . S
C4245 C4244 1.400 . S
C4245 C4246 1.398 . S
C4246 H4234 0.950 . S
C4246 C4245 1.398 . S
C4246 C4247 1.391 . S
C4247 H4235 0.950 . S
C4247 C4243 1.393 . S
C4247 C4246 1.391 . S
H4248 C4256 0.950 . S
H4249 C4261 0.907 1_556 S
H4250 C4258 0.950 . S
H4251 C4260 0.950 . S
H4252 C4262 0.950 . S
H4253 C4264 0.950 . S
H4254 C4266 0.950 . S
H4255 C4267 0.950 . S
C4256 H4248 0.950 . S
C4256 C4257 1.386 . S
C4256 C4258 1.391 . S
C4257 C4256 1.386 . S
C4257 C4261 1.393 . S
C4258 H4250 0.950 . S
C4258 C4256 1.391 . S
C4258 C4259 1.400 . S
C4259 C4258 1.400 . S
C4259 C4260 1.398 . S
C4259 C4265 1.491 . S
C4260 H4251 0.950 . S
C4260 C4259 1.398 . S
C4260 C4261 1.391 . S
C4261 H4249 0.907 1_554 S
C4261 C4257 1.393 . S
C4261 C4260 1.391 . S
C4262 H4252 0.950 . S
C4262 C4263 1.386 . S
C4262 C4264 1.391 . S
C4263 C4262 1.386 . S
C4263 C4267 1.393 . S
C4264 H4253 0.950 . S
C4264 C4262 1.391 . S
C4264 C4265 1.400 . S
C4265 C4259 1.491 . S
C4265 C4264 1.400 . S
C4265 C4266 1.398 . S
C4266 H4254 0.950 . S
C4266 C4265 1.398 . S
C4266 C4267 1.391 . S
C4267 H4255 0.950 . S
C4267 C4263 1.393 . S
C4267 C4266 1.391 . S
H4268 C4276 0.950 . S
H4269 C4281 0.950 . S
H4270 C4278 0.950 . S
H4271 C4280 0.950 . S
H4272 C4282 0.950 . S
H4273 C4284 0.950 . S
H4274 C4286 0.950 . S
H4275 C4287 0.950 . S
C4276 H4268 0.950 . S
C4276 C4277 1.386 . S
C4276 C4278 1.391 . S
C4277 C4276 1.386 . S
C4277 C4281 1.393 . S
C4278 H4270 0.950 . S
C4278 C4276 1.391 . S
C4278 C4279 1.400 . S
C4279 C4278 1.400 . S
C4279 C4280 1.398 . S
C4279 C4285 1.491 . S
C4280 H4271 0.950 . S
C4280 C4279 1.398 . S
C4280 C4281 1.391 . S
C4281 H4269 0.950 . S
C4281 C4277 1.393 . S
C4281 C4280 1.391 . S
C4282 H4272 0.950 . S
C4282 C4283 1.386 . S
C4282 C4284 1.391 . S
C4283 C4282 1.386 . S
C4283 C4287 1.393 . S
C4284 H4273 0.950 . S
C4284 C4282 1.391 . S
C4284 C4285 1.400 . S
C4285 C4279 1.491 . S
C4285 C4284 1.400 . S
C4285 C4286 1.398 . S
C4286 H4274 0.950 . S
C4286 C4285 1.398 . S
C4286 C4287 1.391 . S
C4287 H4275 0.950 . S
C4287 C4283 1.393 . S
C4287 C4286 1.391 . S
H4288 C4296 0.950 . S
H4289 C4301 0.950 . S
H4290 C4298 0.950 . S
H4291 C4300 0.950 . S
H4292 C4302 0.950 . S
H4293 C4304 0.950 . S
H4294 C4306 0.950 . S
H4295 C4307 0.950 . S
C4296 H4288 0.950 . S
C4296 C4297 1.386 . S
C4296 C4298 1.391 . S
C4297 C4296 1.386 . S
C4297 C4301 1.393 . S
C4298 H4290 0.950 . S
C4298 C4296 1.391 . S
C4298 C4299 1.400 . S
C4299 C4298 1.400 . S
C4299 C4300 1.398 . S
C4299 C4305 1.491 . S
C4300 H4291 0.950 . S
C4300 C4299 1.398 . S
C4300 C4301 1.391 . S
C4301 H4289 0.950 . S
C4301 C4297 1.393 . S
C4301 C4300 1.391 . S
C4302 H4292 0.950 . S
C4302 C4303 1.386 . S
C4302 C4304 1.391 . S
C4303 C4302 1.386 . S
C4303 C4307 1.393 . S
C4304 H4293 0.950 . S
C4304 C4302 1.391 . S
C4304 C4305 1.400 . S
C4305 C4299 1.491 . S
C4305 C4304 1.400 . S
C4305 C4306 1.398 . S
C4306 H4294 0.950 . S
C4306 C4305 1.398 . S
C4306 C4307 1.391 . S
C4307 H4295 0.950 . S
C4307 C4303 1.393 . S
C4307 C4306 1.391 . S
H4308 C4316 0.950 . S
H4309 C4321 0.950 . S
H4310 C4318 0.950 . S
H4311 C4320 0.950 . S
H4312 C4322 0.950 . S
H4313 C4324 0.950 . S
H4314 C4326 0.950 . S
H4315 C4327 0.950 . S
C4316 H4308 0.950 . S
C4316 C4317 1.386 . S
C4316 C4318 1.391 . S
C4317 C4316 1.386 . S
C4317 C4321 1.393 . S
C4318 H4310 0.950 . S
C4318 C4316 1.391 . S
C4318 C4319 1.400 . S
C4319 C4318 1.400 . S
C4319 C4320 1.398 . S
C4319 C4325 1.491 . S
C4320 H4311 0.950 . S
C4320 C4319 1.398 . S
C4320 C4321 1.391 . S
C4321 H4309 0.950 . S
C4321 C4317 1.393 . S
C4321 C4320 1.391 . S
C4322 H4312 0.950 . S
C4322 C4323 1.386 . S
C4322 C4324 1.391 . S
C4323 C4322 1.386 . S
C4323 C4327 1.393 . S
C4324 H4313 0.950 . S
C4324 C4322 1.391 . S
C4324 C4325 1.400 . S
C4325 C4319 1.491 . S
C4325 C4324 1.400 . S
C4325 C4326 1.398 . S
C4326 H4314 0.950 . S
C4326 C4325 1.398 . S
C4326 C4327 1.391 . S
C4327 H4315 0.950 . S
C4327 C4323 1.393 . S
C4327 C4326 1.391 . S
H4328 C4336 0.950 . S
H4329 C4341 0.950 . S
H4330 C4338 0.950 . S
H4331 C4340 0.950 . S
H4332 C4342 0.950 . S
H4333 C4344 0.950 . S
H4334 C4346 0.950 . S
H4335 C4347 0.950 . S
C4336 H4328 0.950 . S
C4336 C4337 1.386 . S
C4336 C4338 1.391 . S
C4337 C4336 1.386 . S
C4337 C4341 1.393 . S
C4338 H4330 0.950 . S
C4338 C4336 1.391 . S
C4338 C4339 1.400 . S
C4339 C4338 1.400 . S
C4339 C4340 1.398 . S
C4339 C4345 1.491 . S
C4340 H4331 0.950 . S
C4340 C4339 1.398 . S
C4340 C4341 1.391 . S
C4341 H4329 0.950 . S
C4341 C4337 1.393 . S
C4341 C4340 1.391 . S
C4342 H4332 0.950 . S
C4342 C4343 1.386 . S
C4342 C4344 1.391 . S
C4343 C4342 1.386 . S
C4343 C4347 1.393 . S
C4344 H4333 0.950 . S
C4344 C4342 1.391 . S
C4344 C4345 1.400 . S
C4345 C4339 1.491 . S
C4345 C4344 1.400 . S
C4345 C4346 1.398 . S
C4346 H4334 0.950 . S
C4346 C4345 1.398 . S
C4346 C4347 1.391 . S
C4347 H4335 0.950 . S
C4347 C4343 1.393 . S
C4347 C4346 1.391 . S
H4348 C4356 0.950 . S
H4349 C4361 0.950 . S
H4350 C4358 0.950 . S
H4351 C4360 0.950 . S
H4352 C4362 0.950 . S
H4353 C4364 0.950 . S
H4354 C4366 0.950 . S
H4355 C4367 0.950 . S
C4356 H4348 0.950 . S
C4356 C4357 1.386 . S
C4356 C4358 1.391 . S
C4357 C4356 1.386 . S
C4357 C4361 1.393 . S
C4358 H4350 0.950 . S
C4358 C4356 1.391 . S
C4358 C4359 1.400 . S
C4359 C4358 1.400 . S
C4359 C4360 1.398 . S
C4359 C4365 1.491 . S
C4360 H4351 0.950 . S
C4360 C4359 1.398 . S
C4360 C4361 1.391 . S
C4361 H4349 0.950 . S
C4361 C4357 1.393 . S
C4361 C4360 1.391 . S
C4362 H4352 0.950 . S
C4362 C4363 1.386 . S
C4362 C4364 1.391 . S
C4363 C4362 1.386 . S
C4363 C4367 1.393 . S
C4364 H4353 0.950 . S
C4364 C4362 1.391 . S
C4364 C4365 1.400 . S
C4365 C4359 1.491 . S
C4365 C4364 1.400 . S
C4365 C4366 1.398 . S
C4366 H4354 0.950 . S
C4366 C4365 1.398 . S
C4366 C4367 1.391 . S
C4367 H4355 0.950 . S
C4367 C4363 1.393 . S
C4367 C4366 1.391 . S
H4368 C4376 0.950 . S
H4369 C4381 0.950 . S
H4370 C4378 0.950 . S
H4371 C4380 0.950 . S
H4372 C4382 0.950 . S
H4373 C4384 0.950 . S
H4374 C4386 0.950 . S
H4375 C4387 0.950 1_455 S
C4376 H4368 0.950 . S
C4376 C4377 1.386 . S
C4376 C4378 1.391 . S
C4377 C4376 1.386 . S
C4377 C4381 1.393 . S
C4378 H4370 0.950 . S
C4378 C4376 1.391 . S
C4378 C4379 1.400 . S
C4379 C4378 1.400 . S
C4379 C4380 1.398 . S
C4379 C4385 1.491 . S
C4380 H4371 0.950 . S
C4380 C4379 1.398 . S
C4380 C4381 1.391 . S
C4381 H4369 0.950 . S
C4381 C4377 1.393 . S
C4381 C4380 1.391 . S
C4382 H4372 0.950 . S
C4382 C4383 1.386 . S
C4382 C4384 1.391 . S
C4383 C4382 1.386 . S
C4383 C4387 1.393 . S
C4384 H4373 0.950 . S
C4384 C4382 1.391 . S
C4384 C4385 1.400 . S
C4385 C4379 1.491 . S
C4385 C4384 1.400 . S
C4385 C4386 1.398 . S
C4386 H4374 0.950 . S
C4386 C4385 1.398 . S
C4386 C4387 1.391 . S
C4387 H4375 0.950 1_655 S
C4387 C4383 1.393 . S
C4387 C4386 1.391 . S
H4388 C4396 0.950 . S
H4389 C4401 0.950 . S
H4390 C4398 0.950 . S
H4391 C4400 0.950 . S
H4392 C4402 0.950 . S
H4393 C4404 0.950 . S
H4394 C4406 0.950 . S
H4395 C4407 0.950 . S
C4396 H4388 0.950 . S
C4396 C4397 1.386 . S
C4396 C4398 1.391 . S
C4397 C4396 1.386 . S
C4397 C4401 1.393 . S
C4398 H4390 0.950 . S
C4398 C4396 1.391 . S
C4398 C4399 1.400 . S
C4399 C4398 1.400 . S
C4399 C4400 1.398 . S
C4399 C4405 1.491 . S
C4400 H4391 0.950 . S
C4400 C4399 1.398 . S
C4400 C4401 1.391 . S
C4401 H4389 0.950 . S
C4401 C4397 1.393 . S
C4401 C4400 1.391 . S
C4402 H4392 0.950 . S
C4402 C4403 1.386 . S
C4402 C4404 1.391 . S
C4403 C4402 1.386 . S
C4403 C4407 1.393 . S
C4404 H4393 0.950 . S
C4404 C4402 1.391 . S
C4404 C4405 1.400 . S
C4405 C4399 1.491 . S
C4405 C4404 1.400 . S
C4405 C4406 1.398 . S
C4406 H4394 0.950 . S
C4406 C4405 1.398 . S
C4406 C4407 1.391 . S
C4407 H4395 0.950 . S
C4407 C4403 1.393 . S
C4407 C4406 1.391 . S
H4408 C4416 0.950 . S
H4409 C4421 0.950 . S
H4410 C4418 0.950 . S
H4411 C4420 0.950 . S
H4412 C4422 0.950 . S
H4413 C4424 0.950 . S
H4414 C4426 0.950 . S
H4415 C4427 0.950 . S
C4416 H4408 0.950 . S
C4416 C4417 1.386 . S
C4416 C4418 1.391 . S
C4417 C4416 1.386 . S
C4417 C4421 1.393 . S
C4418 H4410 0.950 . S
C4418 C4416 1.391 . S
C4418 C4419 1.400 . S
C4419 C4418 1.400 . S
C4419 C4420 1.398 . S
C4419 C4425 1.491 . S
C4420 H4411 0.950 . S
C4420 C4419 1.398 . S
C4420 C4421 1.391 . S
C4421 H4409 0.950 . S
C4421 C4417 1.393 . S
C4421 C4420 1.391 . S
C4422 H4412 0.950 . S
C4422 C4423 1.386 . S
C4422 C4424 1.391 . S
C4423 C4422 1.386 . S
C4423 C4427 1.393 . S
C4424 H4413 0.950 . S
C4424 C4422 1.391 . S
C4424 C4425 1.400 . S
C4425 C4419 1.491 . S
C4425 C4424 1.400 . S
C4425 C4426 1.398 . S
C4426 H4414 0.950 . S
C4426 C4425 1.398 . S
C4426 C4427 1.391 . S
C4427 H4415 0.950 . S
C4427 C4423 1.393 . S
C4427 C4426 1.391 . S
H4428 C4436 0.950 . S
H4429 C4441 0.950 . S
H4430 C4438 0.950 . S
H4431 C4440 0.950 . S
H4432 C4442 0.950 . S
H4433 C4444 0.950 . S
H4434 C4446 0.950 . S
H4435 C4447 0.950 . S
C4436 H4428 0.950 . S
C4436 C4437 1.386 . S
C4436 C4438 1.391 . S
C4437 C4436 1.386 . S
C4437 C4441 1.393 . S
C4438 H4430 0.950 . S
C4438 C4436 1.391 . S
C4438 C4439 1.400 . S
C4439 C4438 1.400 . S
C4439 C4440 1.398 . S
C4439 C4445 1.491 . S
C4440 H4431 0.950 . S
C4440 C4439 1.398 . S
C4440 C4441 1.391 . S
C4441 H4429 0.950 . S
C4441 C4437 1.393 . S
C4441 C4440 1.391 . S
C4442 H4432 0.950 . S
C4442 C4443 1.386 . S
C4442 C4444 1.391 . S
C4443 C4442 1.386 . S
C4443 C4447 1.393 . S
C4444 H4433 0.950 . S
C4444 C4442 1.391 . S
C4444 C4445 1.400 . S
C4445 C4439 1.491 . S
C4445 C4444 1.400 . S
C4445 C4446 1.398 . S
C4446 H4434 0.950 . S
C4446 C4445 1.398 . S
C4446 C4447 1.391 . S
C4447 H4435 0.950 . S
C4447 C4443 1.393 . S
C4447 C4446 1.391 . S
H4448 C4456 0.950 . S
H4449 C4461 0.950 . S
H4450 C4458 0.950 . S
H4451 C4460 0.950 . S
H4452 C4462 0.950 . S
H4453 C4464 0.950 . S
H4454 C4466 0.950 . S
H4455 C4467 0.950 . S
C4456 H4448 0.950 . S
C4456 C4457 1.386 . S
C4456 C4458 1.391 . S
C4457 C4456 1.386 . S
C4457 C4461 1.393 . S
C4458 H4450 0.950 . S
C4458 C4456 1.391 . S
C4458 C4459 1.400 . S
C4459 C4458 1.400 . S
C4459 C4460 1.398 . S
C4459 C4465 1.491 . S
C4460 H4451 0.950 . S
C4460 C4459 1.398 . S
C4460 C4461 1.391 . S
C4461 H4449 0.950 . S
C4461 C4457 1.393 . S
C4461 C4460 1.391 . S
C4462 H4452 0.950 . S
C4462 C4463 1.386 . S
C4462 C4464 1.391 . S
C4463 C4462 1.386 . S
C4463 C4467 1.393 . S
C4464 H4453 0.950 . S
C4464 C4462 1.391 . S
C4464 C4465 1.400 . S
C4465 C4459 1.491 . S
C4465 C4464 1.400 . S
C4465 C4466 1.398 . S
C4466 H4454 0.950 . S
C4466 C4465 1.398 . S
C4466 C4467 1.391 . S
C4467 H4455 0.950 . S
C4467 C4463 1.393 . S
C4467 C4466 1.391 . S
H4468 C4476 0.950 . S
H4469 C4481 0.950 . S
H4470 C4478 0.950 . S
H4471 C4480 0.950 . S
H4472 C4482 0.950 . S
H4473 C4484 0.950 . S
H4474 C4486 0.950 . S
H4475 C4487 0.950 . S
C4476 H4468 0.950 . S
C4476 C4477 1.386 . S
C4476 C4478 1.391 . S
C4477 C4476 1.386 . S
C4477 C4481 1.393 . S
C4478 H4470 0.950 . S
C4478 C4476 1.391 . S
C4478 C4479 1.400 . S
C4479 C4478 1.400 . S
C4479 C4480 1.398 . S
C4479 C4485 1.491 . S
C4480 H4471 0.950 . S
C4480 C4479 1.398 . S
C4480 C4481 1.391 . S
C4481 H4469 0.950 . S
C4481 C4477 1.393 . S
C4481 C4480 1.391 . S
C4482 H4472 0.950 . S
C4482 C4483 1.386 . S
C4482 C4484 1.391 . S
C4483 C4482 1.386 . S
C4483 C4487 1.393 . S
C4484 H4473 0.950 . S
C4484 C4482 1.391 . S
C4484 C4485 1.400 . S
C4485 C4479 1.491 . S
C4485 C4484 1.400 . S
C4485 C4486 1.398 . S
C4486 H4474 0.950 . S
C4486 C4485 1.398 . S
C4486 C4487 1.391 . S
C4487 H4475 0.950 . S
C4487 C4483 1.393 . S
C4487 C4486 1.391 . S
H4488 C4496 0.950 . S
H4489 C4501 0.950 . S
H4490 C4498 0.950 . S
H4491 C4500 0.950 . S
H4492 C4502 0.950 . S
H4493 C4504 0.950 . S
H4494 C4506 0.950 . S
H4495 C4507 0.950 . S
C4496 H4488 0.950 . S
C4496 C4497 1.386 . S
C4496 C4498 1.391 . S
C4497 C4496 1.386 . S
C4497 C4501 1.393 . S
C4498 H4490 0.950 . S
C4498 C4496 1.391 . S
C4498 C4499 1.400 . S
C4499 C4498 1.400 . S
C4499 C4500 1.398 . S
C4499 C4505 1.491 . S
C4500 H4491 0.950 . S
C4500 C4499 1.398 . S
C4500 C4501 1.391 . S
C4501 H4489 0.950 . S
C4501 C4497 1.393 . S
C4501 C4500 1.391 . S
C4502 H4492 0.950 . S
C4502 C4503 1.386 . S
C4502 C4504 1.391 . S
C4503 C4502 1.386 . S
C4503 C4507 1.393 . S
C4504 H4493 0.950 . S
C4504 C4502 1.391 . S
C4504 C4505 1.400 . S
C4505 C4499 1.491 . S
C4505 C4504 1.400 . S
C4505 C4506 1.398 . S
C4506 H4494 0.950 . S
C4506 C4505 1.398 . S
C4506 C4507 1.391 . S
C4507 H4495 0.950 . S
C4507 C4503 1.393 . S
C4507 C4506 1.391 . S
H4508 C4516 0.950 . S
H4509 C4521 0.950 . S
H4510 C4518 0.950 . S
H4511 C4520 0.950 . S
H4512 C4522 0.950 . S
H4513 C4524 0.950 . S
H4514 C4526 0.950 . S
H4515 C4527 0.950 . S
C4516 H4508 0.950 . S
C4516 C4517 1.386 . S
C4516 C4518 1.391 . S
C4517 C4516 1.386 . S
C4517 C4521 1.393 . S
C4518 H4510 0.950 . S
C4518 C4516 1.391 . S
C4518 C4519 1.400 . S
C4519 C4518 1.400 . S
C4519 C4520 1.398 . S
C4519 C4525 1.491 . S
C4520 H4511 0.950 . S
C4520 C4519 1.398 . S
C4520 C4521 1.391 . S
C4521 H4509 0.950 . S
C4521 C4517 1.393 . S
C4521 C4520 1.391 . S
C4522 H4512 0.950 . S
C4522 C4523 1.386 . S
C4522 C4524 1.391 . S
C4523 C4522 1.386 . S
C4523 C4527 1.393 . S
C4524 H4513 0.950 . S
C4524 C4522 1.391 . S
C4524 C4525 1.400 . S
C4525 C4519 1.491 . S
C4525 C4524 1.400 . S
C4525 C4526 1.398 . S
C4526 H4514 0.950 . S
C4526 C4525 1.398 . S
C4526 C4527 1.391 . S
C4527 H4515 0.950 . S
C4527 C4523 1.393 . S
C4527 C4526 1.391 . S
H4528 C4536 0.950 . S
H4529 C4541 0.950 . S
H4530 C4538 0.950 . S
H4531 C4540 0.950 . S
H4532 C4542 0.950 . S
H4533 C4544 0.950 . S
H4534 C4546 0.950 . S
H4535 C4547 0.950 . S
C4536 H4528 0.950 . S
C4536 C4537 1.386 . S
C4536 C4538 1.391 . S
C4537 C4536 1.386 . S
C4537 C4541 1.393 . S
C4538 H4530 0.950 . S
C4538 C4536 1.391 . S
C4538 C4539 1.400 . S
C4539 C4538 1.400 . S
C4539 C4540 1.398 . S
C4539 C4545 1.491 . S
C4540 H4531 0.950 . S
C4540 C4539 1.398 . S
C4540 C4541 1.391 . S
C4541 H4529 0.950 . S
C4541 C4537 1.393 . S
C4541 C4540 1.391 . S
C4542 H4532 0.950 . S
C4542 C4543 1.386 . S
C4542 C4544 1.391 . S
C4543 C4542 1.386 . S
C4543 C4547 1.393 . S
C4544 H4533 0.950 . S
C4544 C4542 1.391 . S
C4544 C4545 1.400 . S
C4545 C4539 1.491 . S
C4545 C4544 1.400 . S
C4545 C4546 1.398 . S
C4546 H4534 0.950 . S
C4546 C4545 1.398 . S
C4546 C4547 1.391 . S
C4547 H4535 0.950 . S
C4547 C4543 1.393 . S
C4547 C4546 1.391 . S
H4548 C4556 0.950 . S
H4549 C4561 0.950 . S
H4550 C4558 0.950 . S
H4551 C4560 0.950 . S
H4552 C4562 0.950 . S
H4553 C4564 0.950 . S
H4554 C4566 0.950 . S
H4555 C4567 0.950 . S
C4556 H4548 0.950 . S
C4556 C4557 1.386 . S
C4556 C4558 1.391 . S
C4557 C4556 1.386 . S
C4557 C4561 1.393 . S
C4558 H4550 0.950 . S
C4558 C4556 1.391 . S
C4558 C4559 1.400 . S
C4559 C4558 1.400 . S
C4559 C4560 1.398 . S
C4559 C4565 1.491 . S
C4560 H4551 0.950 . S
C4560 C4559 1.398 . S
C4560 C4561 1.391 . S
C4561 H4549 0.950 . S
C4561 C4557 1.393 . S
C4561 C4560 1.391 . S
C4562 H4552 0.950 . S
C4562 C4563 1.386 . S
C4562 C4564 1.391 . S
C4563 C4562 1.386 . S
C4563 C4567 1.393 . S
C4564 H4553 0.950 . S
C4564 C4562 1.391 . S
C4564 C4565 1.400 . S
C4565 C4559 1.491 . S
C4565 C4564 1.400 . S
C4565 C4566 1.398 . S
C4566 H4554 0.950 . S
C4566 C4565 1.398 . S
C4566 C4567 1.391 . S
C4567 H4555 0.950 . S
C4567 C4563 1.393 . S
C4567 C4566 1.391 . S
H4568 C4576 0.950 . S
H4569 C4581 0.950 . S
H4570 C4578 0.950 . S
H4571 C4580 0.950 . S
H4572 C4582 0.950 . S
H4573 C4584 0.950 . S
H4574 C4586 0.950 . S
H4575 C4587 0.950 . S
C4576 H4568 0.950 . S
C4576 C4577 1.386 . S
C4576 C4578 1.391 . S
C4577 C4576 1.386 . S
C4577 C4581 1.393 . S
C4578 H4570 0.950 . S
C4578 C4576 1.391 . S
C4578 C4579 1.400 . S
C4579 C4578 1.400 . S
C4579 C4580 1.398 . S
C4579 C4585 1.491 . S
C4580 H4571 0.950 . S
C4580 C4579 1.398 . S
C4580 C4581 1.391 . S
C4581 H4569 0.950 . S
C4581 C4577 1.393 . S
C4581 C4580 1.391 . S
C4582 H4572 0.950 . S
C4582 C4583 1.386 . S
C4582 C4584 1.391 . S
C4583 C4582 1.386 . S
C4583 C4587 1.393 . S
C4584 H4573 0.950 . S
C4584 C4582 1.391 . S
C4584 C4585 1.400 . S
C4585 C4579 1.491 . S
C4585 C4584 1.400 . S
C4585 C4586 1.398 . S
C4586 H4574 0.950 . S
C4586 C4585 1.398 . S
C4586 C4587 1.391 . S
C4587 H4575 0.950 . S
C4587 C4583 1.393 . S
C4587 C4586 1.391 . S
H4588 C4596 0.950 . S
H4589 C4601 0.950 . S
H4590 C4598 0.950 . S
H4591 C4600 0.950 . S
H4592 C4602 0.950 . S
H4593 C4604 0.950 . S
H4594 C4606 0.950 . S
H4595 C4607 0.950 . S
C4596 H4588 0.950 . S
C4596 C4597 1.386 . S
C4596 C4598 1.391 . S
C4597 C4596 1.386 . S
C4597 C4601 1.393 . S
C4598 H4590 0.950 . S
C4598 C4596 1.391 . S
C4598 C4599 1.400 . S
C4599 C4598 1.400 . S
C4599 C4600 1.398 . S
C4599 C4605 1.491 . S
C4600 H4591 0.950 . S
C4600 C4599 1.398 . S
C4600 C4601 1.391 . S
C4601 H4589 0.950 . S
C4601 C4597 1.393 . S
C4601 C4600 1.391 . S
C4602 H4592 0.950 . S
C4602 C4603 1.386 . S
C4602 C4604 1.391 . S
C4603 C4602 1.386 . S
C4603 C4607 1.393 . S
C4604 H4593 0.950 . S
C4604 C4602 1.391 . S
C4604 C4605 1.400 . S
C4605 C4599 1.491 . S
C4605 C4604 1.400 . S
C4605 C4606 1.398 . S
C4606 H4594 0.950 . S
C4606 C4605 1.398 . S
C4606 C4607 1.391 . S
C4607 H4595 0.950 . S
C4607 C4603 1.393 . S
C4607 C4606 1.391 . S
H4608 C4616 0.950 . S
H4609 C4621 0.950 . S
H4610 C4618 0.950 . S
H4611 C4620 0.950 . S
H4612 C4622 0.950 . S
H4613 C4624 0.950 . S
H4614 C4626 0.950 . S
H4615 C4627 0.950 . S
C4616 H4608 0.950 . S
C4616 C4617 1.386 . S
C4616 C4618 1.391 . S
C4617 C4616 1.386 . S
C4617 C4621 1.393 . S
C4618 H4610 0.950 . S
C4618 C4616 1.391 . S
C4618 C4619 1.400 . S
C4619 C4618 1.400 . S
C4619 C4620 1.398 . S
C4619 C4625 1.491 . S
C4620 H4611 0.950 . S
C4620 C4619 1.398 . S
C4620 C4621 1.391 . S
C4621 H4609 0.950 . S
C4621 C4617 1.393 . S
C4621 C4620 1.391 . S
C4622 H4612 0.950 . S
C4622 C4623 1.386 . S
C4622 C4624 1.391 . S
C4623 C4622 1.386 . S
C4623 C4627 1.393 . S
C4624 H4613 0.950 . S
C4624 C4622 1.391 . S
C4624 C4625 1.400 . S
C4625 C4619 1.491 . S
C4625 C4624 1.400 . S
C4625 C4626 1.398 . S
C4626 H4614 0.950 . S
C4626 C4625 1.398 . S
C4626 C4627 1.391 . S
C4627 H4615 0.950 . S
C4627 C4623 1.393 . S
C4627 C4626 1.391 . S
H4628 C4636 0.950 . S
H4629 C4641 0.950 . S
H4630 C4638 0.950 . S
H4631 C4640 0.950 . S
H4632 C4642 0.950 . S
H4633 C4644 0.950 . S
H4634 C4646 0.950 . S
H4635 C4647 0.950 . S
C4636 H4628 0.950 . S
C4636 C4637 1.386 . S
C4636 C4638 1.391 . S
C4637 C4636 1.386 . S
C4637 C4641 1.393 . S
C4638 H4630 0.950 . S
C4638 C4636 1.391 . S
C4638 C4639 1.400 . S
C4639 C4638 1.400 . S
C4639 C4640 1.398 . S
C4639 C4645 1.491 . S
C4640 H4631 0.950 . S
C4640 C4639 1.398 . S
C4640 C4641 1.391 . S
C4641 H4629 0.950 . S
C4641 C4637 1.393 . S
C4641 C4640 1.391 . S
C4642 H4632 0.950 . S
C4642 C4643 1.386 . S
C4642 C4644 1.391 . S
C4643 C4642 1.386 . S
C4643 C4647 1.393 . S
C4644 H4633 0.950 . S
C4644 C4642 1.391 . S
C4644 C4645 1.400 . S
C4645 C4639 1.491 . S
C4645 C4644 1.400 . S
C4645 C4646 1.398 . S
C4646 H4634 0.950 . S
C4646 C4645 1.398 . S
C4646 C4647 1.391 . S
C4647 H4635 0.950 . S
C4647 C4643 1.393 . S
C4647 C4646 1.391 . S
H4648 C4656 0.950 . S
H4649 C4661 0.950 . S
H4650 C4658 0.950 . S
H4651 C4660 0.950 . S
H4652 C4662 0.950 . S
H4653 C4664 0.950 . S
H4654 C4666 0.950 . S
H4655 C4667 0.950 . S
C4656 H4648 0.950 . S
C4656 C4657 1.386 . S
C4656 C4658 1.391 . S
C4657 C4656 1.386 . S
C4657 C4661 1.393 . S
C4658 H4650 0.950 . S
C4658 C4656 1.391 . S
C4658 C4659 1.400 . S
C4659 C4658 1.400 . S
C4659 C4660 1.398 . S
C4659 C4665 1.491 . S
C4660 H4651 0.950 . S
C4660 C4659 1.398 . S
C4660 C4661 1.391 . S
C4661 H4649 0.950 . S
C4661 C4657 1.393 . S
C4661 C4660 1.391 . S
C4662 H4652 0.950 . S
C4662 C4663 1.386 . S
C4662 C4664 1.391 . S
C4663 C4662 1.386 . S
C4663 C4667 1.393 . S
C4664 H4653 0.950 . S
C4664 C4662 1.391 . S
C4664 C4665 1.400 . S
C4665 C4659 1.491 . S
C4665 C4664 1.400 . S
C4665 C4666 1.398 . S
C4666 H4654 0.950 . S
C4666 C4665 1.398 . S
C4666 C4667 1.391 . S
C4667 H4655 0.950 . S
C4667 C4663 1.393 . S
C4667 C4666 1.391 . S
H4668 C4676 0.950 . S
H4669 C4681 0.950 . S
H4670 C4678 0.950 . S
H4671 C4680 0.950 . S
H4672 C4682 0.950 . S
H4673 C4684 0.950 . S
H4674 C4686 0.950 . S
H4675 C4687 0.950 . S
C4676 H4668 0.950 . S
C4676 C4677 1.386 . S
C4676 C4678 1.391 . S
C4677 C4676 1.386 . S
C4677 C4681 1.393 . S
C4678 H4670 0.950 . S
C4678 C4676 1.391 . S
C4678 C4679 1.400 . S
C4679 C4678 1.400 . S
C4679 C4680 1.398 . S
C4679 C4685 1.491 . S
C4680 H4671 0.950 . S
C4680 C4679 1.398 . S
C4680 C4681 1.391 . S
C4681 H4669 0.950 . S
C4681 C4677 1.393 . S
C4681 C4680 1.391 . S
C4682 H4672 0.950 . S
C4682 C4683 1.386 . S
C4682 C4684 1.391 . S
C4683 C4682 1.386 . S
C4683 C4687 1.393 . S
C4684 H4673 0.950 . S
C4684 C4682 1.391 . S
C4684 C4685 1.400 . S
C4685 C4679 1.491 . S
C4685 C4684 1.400 . S
C4685 C4686 1.398 . S
C4686 H4674 0.950 . S
C4686 C4685 1.398 . S
C4686 C4687 1.391 . S
C4687 H4675 0.950 . S
C4687 C4683 1.393 . S
C4687 C4686 1.391 . S
H4688 C4696 0.950 . S
H4689 C4701 0.950 . S
H4690 C4698 0.950 . S
H4691 C4700 0.950 . S
H4692 C4702 0.950 . S
H4693 C4704 0.950 . S
H4694 C4706 0.950 . S
H4695 C4707 0.950 . S
C4696 H4688 0.950 . S
C4696 C4697 1.386 . S
C4696 C4698 1.391 . S
C4697 C4696 1.386 . S
C4697 C4701 1.393 . S
C4698 H4690 0.950 . S
C4698 C4696 1.391 . S
C4698 C4699 1.400 . S
C4699 C4698 1.400 . S
C4699 C4700 1.398 . S
C4699 C4705 1.491 . S
C4700 H4691 0.950 . S
C4700 C4699 1.398 . S
C4700 C4701 1.391 . S
C4701 H4689 0.950 . S
C4701 C4697 1.393 . S
C4701 C4700 1.391 . S
C4702 H4692 0.950 . S
C4702 C4703 1.386 . S
C4702 C4704 1.391 . S
C4703 C4702 1.386 . S
C4703 C4707 1.393 . S
C4704 H4693 0.950 . S
C4704 C4702 1.391 . S
C4704 C4705 1.400 . S
C4705 C4699 1.491 . S
C4705 C4704 1.400 . S
C4705 C4706 1.398 . S
C4706 H4694 0.950 . S
C4706 C4705 1.398 . S
C4706 C4707 1.391 . S
C4707 H4695 0.950 . S
C4707 C4703 1.393 . S
C4707 C4706 1.391 . S
H4708 C4716 0.950 . S
H4709 C4721 0.950 . S
H4710 C4718 0.950 . S
H4711 C4720 0.950 . S
H4712 C4722 0.950 . S
H4713 C4724 0.950 . S
H4714 C4726 0.950 . S
H4715 C4727 0.950 . S
C4716 H4708 0.950 . S
C4716 C4717 1.386 . S
C4716 C4718 1.391 . S
C4717 C4716 1.386 . S
C4717 C4721 1.393 . S
C4718 H4710 0.950 . S
C4718 C4716 1.391 . S
C4718 C4719 1.400 . S
C4719 C4718 1.400 . S
C4719 C4720 1.398 . S
C4719 C4725 1.491 . S
C4720 H4711 0.950 . S
C4720 C4719 1.398 . S
C4720 C4721 1.391 . S
C4721 H4709 0.950 . S
C4721 C4717 1.393 . S
C4721 C4720 1.391 . S
C4722 H4712 0.950 . S
C4722 C4723 1.386 . S
C4722 C4724 1.391 . S
C4723 C4722 1.386 . S
C4723 C4727 1.393 . S
C4724 H4713 0.950 . S
C4724 C4722 1.391 . S
C4724 C4725 1.400 . S
C4725 C4719 1.491 . S
C4725 C4724 1.400 . S
C4725 C4726 1.398 . S
C4726 H4714 0.950 . S
C4726 C4725 1.398 . S
C4726 C4727 1.391 . S
C4727 H4715 0.950 . S
C4727 C4723 1.393 . S
C4727 C4726 1.391 . S
H4728 C4736 0.950 . S
H4729 C4741 0.950 . S
H4730 C4738 0.950 . S
H4731 C4740 0.950 . S
H4732 C4742 0.950 . S
H4733 C4744 0.950 . S
H4734 C4746 0.950 . S
H4735 C4747 0.950 . S
C4736 H4728 0.950 . S
C4736 C4737 1.386 . S
C4736 C4738 1.391 . S
C4737 C4736 1.386 . S
C4737 C4741 1.393 . S
C4738 H4730 0.950 . S
C4738 C4736 1.391 . S
C4738 C4739 1.400 . S
C4739 C4738 1.400 . S
C4739 C4740 1.398 . S
C4739 C4745 1.491 . S
C4740 H4731 0.950 . S
C4740 C4739 1.398 . S
C4740 C4741 1.391 . S
C4741 H4729 0.950 . S
C4741 C4737 1.393 . S
C4741 C4740 1.391 . S
C4742 H4732 0.950 . S
C4742 C4743 1.386 . S
C4742 C4744 1.391 . S
C4743 C4742 1.386 . S
C4743 C4747 1.393 . S
C4744 H4733 0.950 . S
C4744 C4742 1.391 . S
C4744 C4745 1.400 . S
C4745 C4739 1.491 . S
C4745 C4744 1.400 . S
C4745 C4746 1.398 . S
C4746 H4734 0.950 . S
C4746 C4745 1.398 . S
C4746 C4747 1.391 . S
C4747 H4735 0.950 . S
C4747 C4743 1.393 . S
C4747 C4746 1.391 . S
H4748 C4756 0.950 . S
H4749 C4761 0.950 . S
H4750 C4758 0.950 . S
H4751 C4760 0.950 . S
H4752 C4762 0.950 . S
H4753 C4764 0.950 . S
H4754 C4766 0.950 . S
H4755 C4767 0.950 . S
C4756 H4748 0.950 . S
C4756 C4757 1.386 . S
C4756 C4758 1.391 . S
C4757 C4756 1.386 . S
C4757 C4761 1.393 . S
C4758 H4750 0.950 . S
C4758 C4756 1.391 . S
C4758 C4759 1.400 . S
C4759 C4758 1.400 . S
C4759 C4760 1.398 . S
C4759 C4765 1.491 . S
C4760 H4751 0.950 . S
C4760 C4759 1.398 . S
C4760 C4761 1.391 . S
C4761 H4749 0.950 . S
C4761 C4757 1.393 . S
C4761 C4760 1.391 . S
C4762 H4752 0.950 . S
C4762 C4763 1.386 . S
C4762 C4764 1.391 . S
C4763 C4762 1.386 . S
C4763 C4767 1.393 . S
C4764 H4753 0.950 . S
C4764 C4762 1.391 . S
C4764 C4765 1.400 . S
C4765 C4759 1.491 . S
C4765 C4764 1.400 . S
C4765 C4766 1.398 . S
C4766 H4754 0.950 . S
C4766 C4765 1.398 . S
C4766 C4767 1.391 . S
C4767 H4755 0.950 . S
C4767 C4763 1.393 . S
C4767 C4766 1.391 . S
H4768 C4776 0.950 . S
H4769 C4781 0.950 . S
H4770 C4778 0.950 . S
H4771 C4780 0.950 . S
H4772 C4782 0.950 . S
H4773 C4784 0.950 . S
H4774 C4786 0.950 . S
H4775 C4787 0.950 . S
C4776 H4768 0.950 . S
C4776 C4777 1.386 . S
C4776 C4778 1.391 . S
C4777 C4776 1.386 . S
C4777 C4781 1.393 . S
C4778 H4770 0.950 . S
C4778 C4776 1.391 . S
C4778 C4779 1.400 . S
C4779 C4778 1.400 . S
C4779 C4780 1.398 . S
C4779 C4785 1.491 . S
C4780 H4771 0.950 . S
C4780 C4779 1.398 . S
C4780 C4781 1.391 . S
C4781 H4769 0.950 . S
C4781 C4777 1.393 . S
C4781 C4780 1.391 . S
C4782 H4772 0.950 . S
C4782 C4783 1.386 . S
C4782 C4784 1.391 . S
C4783 C4782 1.386 . S
C4783 C4787 1.393 . S
C4784 H4773 0.950 . S
C4784 C4782 1.391 . S
C4784 C4785 1.400 . S
C4785 C4779 1.491 . S
C4785 C4784 1.400 . S
C4785 C4786 1.398 . S
C4786 H4774 0.950 . S
C4786 C4785 1.398 . S
C4786 C4787 1.391 . S
C4787 H4775 0.950 . S
C4787 C4783 1.393 . S
C4787 C4786 1.391 . S
H4788 C4796 0.950 . S
H4789 C4801 0.950 . S
H4790 C4798 0.950 . S
H4791 C4800 0.950 . S
H4792 C4802 0.950 . S
H4793 C4804 0.950 . S
H4794 C4806 0.950 . S
H4795 C4807 0.950 . S
C4796 H4788 0.950 . S
C4796 C4797 1.386 . S
C4796 C4798 1.391 . S
C4797 C4796 1.386 . S
C4797 C4801 1.393 . S
C4798 H4790 0.950 . S
C4798 C4796 1.391 . S
C4798 C4799 1.400 . S
C4799 C4798 1.400 . S
C4799 C4800 1.398 . S
C4799 C4805 1.491 . S
C4800 H4791 0.950 . S
C4800 C4799 1.398 . S
C4800 C4801 1.391 . S
C4801 H4789 0.950 . S
C4801 C4797 1.393 . S
C4801 C4800 1.391 . S
C4802 H4792 0.950 . S
C4802 C4803 1.386 . S
C4802 C4804 1.391 . S
C4803 C4802 1.386 . S
C4803 C4807 1.393 . S
C4804 H4793 0.950 . S
C4804 C4802 1.391 . S
C4804 C4805 1.400 . S
C4805 C4799 1.491 . S
C4805 C4804 1.400 . S
C4805 C4806 1.398 . S
C4806 H4794 0.950 . S
C4806 C4805 1.398 . S
C4806 C4807 1.391 . S
C4807 H4795 0.950 . S
C4807 C4803 1.393 . S
C4807 C4806 1.391 . S
H4808 C4816 0.950 . S
H4809 C4821 0.950 . S
H4810 C4818 0.950 . S
H4811 C4820 0.950 . S
H4812 C4822 0.950 . S
H4813 C4824 0.950 . S
H4814 C4826 0.950 . S
H4815 C4827 0.950 . S
C4816 H4808 0.950 . S
C4816 C4817 1.386 . S
C4816 C4818 1.391 . S
C4817 C4816 1.386 . S
C4817 C4821 1.393 . S
C4818 H4810 0.950 . S
C4818 C4816 1.391 . S
C4818 C4819 1.400 . S
C4819 C4818 1.400 . S
C4819 C4820 1.398 . S
C4819 C4825 1.491 . S
C4820 H4811 0.950 . S
C4820 C4819 1.398 . S
C4820 C4821 1.391 . S
C4821 H4809 0.950 . S
C4821 C4817 1.393 . S
C4821 C4820 1.391 . S
C4822 H4812 0.950 . S
C4822 C4823 1.386 . S
C4822 C4824 1.391 . S
C4823 C4822 1.386 . S
C4823 C4827 1.393 . S
C4824 H4813 0.950 . S
C4824 C4822 1.391 . S
C4824 C4825 1.400 . S
C4825 C4819 1.491 . S
C4825 C4824 1.400 . S
C4825 C4826 1.398 . S
C4826 H4814 0.950 . S
C4826 C4825 1.398 . S
C4826 C4827 1.391 . S
C4827 H4815 0.950 . S
C4827 C4823 1.393 . S
C4827 C4826 1.391 . S
H4828 C4836 0.950 . S
H4829 C4841 0.950 . S
H4830 C4838 0.950 . S
H4831 C4840 0.950 . S
H4832 C4842 0.950 . S
H4833 C4844 0.950 . S
H4834 C4846 0.950 . S
H4835 C4847 0.950 . S
C4836 H4828 0.950 . S
C4836 C4837 1.386 . S
C4836 C4838 1.391 . S
C4837 C4836 1.386 . S
C4837 C4841 1.393 . S
C4838 H4830 0.950 . S
C4838 C4836 1.391 . S
C4838 C4839 1.400 . S
C4839 C4838 1.400 . S
C4839 C4840 1.398 . S
C4839 C4845 1.491 . S
C4840 H4831 0.950 . S
C4840 C4839 1.398 . S
C4840 C4841 1.391 . S
C4841 H4829 0.950 . S
C4841 C4837 1.393 . S
C4841 C4840 1.391 . S
C4842 H4832 0.950 . S
C4842 C4843 1.386 . S
C4842 C4844 1.391 . S
C4843 C4842 1.386 . S
C4843 C4847 1.393 . S
C4844 H4833 0.950 . S
C4844 C4842 1.391 . S
C4844 C4845 1.400 . S
C4845 C4839 1.491 . S
C4845 C4844 1.400 . S
C4845 C4846 1.398 . S
C4846 H4834 0.950 . S
C4846 C4845 1.398 . S
C4846 C4847 1.391 . S
C4847 H4835 0.950 . S
C4847 C4843 1.393 . S
C4847 C4846 1.391 . S
H4848 C4856 0.950 . S
H4849 C4861 0.950 . S
H4850 C4858 0.950 . S
H4851 C4860 0.950 . S
H4852 C4862 0.950 . S
H4853 C4864 0.950 . S
H4854 C4866 0.950 . S
H4855 C4867 0.950 . S
C4856 H4848 0.950 . S
C4856 C4857 1.386 . S
C4856 C4858 1.391 . S
C4857 C4856 1.386 . S
C4857 C4861 1.393 . S
C4858 H4850 0.950 . S
C4858 C4856 1.391 . S
C4858 C4859 1.400 . S
C4859 C4858 1.400 . S
C4859 C4860 1.398 . S
C4859 C4865 1.491 . S
C4860 H4851 0.950 . S
C4860 C4859 1.398 . S
C4860 C4861 1.391 . S
C4861 H4849 0.950 . S
C4861 C4857 1.393 . S
C4861 C4860 1.391 . S
C4862 H4852 0.950 . S
C4862 C4863 1.386 . S
C4862 C4864 1.391 . S
C4863 C4862 1.386 . S
C4863 C4867 1.393 . S
C4864 H4853 0.950 . S
C4864 C4862 1.391 . S
C4864 C4865 1.400 . S
C4865 C4859 1.491 . S
C4865 C4864 1.400 . S
C4865 C4866 1.398 . S
C4866 H4854 0.950 . S
C4866 C4865 1.398 . S
C4866 C4867 1.391 . S
C4867 H4855 0.950 . S
C4867 C4863 1.393 . S
C4867 C4866 1.391 . S
H4868 C4876 0.950 . S
H4869 C4881 0.950 . S
H4870 C4878 0.950 . S
H4871 C4880 0.950 . S
H4872 C4882 0.950 . S
H4873 C4884 0.950 . S
H4874 C4886 0.950 . S
H4875 C4887 0.950 . S
C4876 H4868 0.950 . S
C4876 C4877 1.386 . S
C4876 C4878 1.391 . S
C4877 C4876 1.386 . S
C4877 C4881 1.393 . S
C4878 H4870 0.950 . S
C4878 C4876 1.391 . S
C4878 C4879 1.400 . S
C4879 C4878 1.400 . S
C4879 C4880 1.398 . S
C4879 C4885 1.491 . S
C4880 H4871 0.950 . S
C4880 C4879 1.398 . S
C4880 C4881 1.391 . S
C4881 H4869 0.950 . S
C4881 C4877 1.393 . S
C4881 C4880 1.391 . S
C4882 H4872 0.950 . S
C4882 C4883 1.386 . S
C4882 C4884 1.391 . S
C4883 C4882 1.386 . S
C4883 C4887 1.393 . S
C4884 H4873 0.950 . S
C4884 C4882 1.391 . S
C4884 C4885 1.400 . S
C4885 C4879 1.491 . S
C4885 C4884 1.400 . S
C4885 C4886 1.398 . S
C4886 H4874 0.950 . S
C4886 C4885 1.398 . S
C4886 C4887 1.391 . S
C4887 H4875 0.950 . S
C4887 C4883 1.393 . S
C4887 C4886 1.391 . S
H4888 C4896 0.950 . S
H4889 C4901 0.950 . S
H4890 C4898 0.950 . S
H4891 C4900 0.950 . S
H4892 C4902 0.950 . S
H4893 C4904 0.950 . S
H4894 C4906 0.950 . S
H4895 C4907 0.950 . S
C4896 H4888 0.950 . S
C4896 C4897 1.386 . S
C4896 C4898 1.391 . S
C4897 C4896 1.386 . S
C4897 C4901 1.393 . S
C4898 H4890 0.950 . S
C4898 C4896 1.391 . S
C4898 C4899 1.400 . S
C4899 C4898 1.400 . S
C4899 C4900 1.398 . S
C4899 C4905 1.491 . S
C4900 H4891 0.950 . S
C4900 C4899 1.398 . S
C4900 C4901 1.391 . S
C4901 H4889 0.950 . S
C4901 C4897 1.393 . S
C4901 C4900 1.391 . S
C4902 H4892 0.950 . S
C4902 C4903 1.386 . S
C4902 C4904 1.391 . S
C4903 C4902 1.386 . S
C4903 C4907 1.393 . S
C4904 H4893 0.950 . S
C4904 C4902 1.391 . S
C4904 C4905 1.400 . S
C4905 C4899 1.491 . S
C4905 C4904 1.400 . S
C4905 C4906 1.398 . S
C4906 H4894 0.950 . S
C4906 C4905 1.398 . S
C4906 C4907 1.391 . S
C4907 H4895 0.950 . S
C4907 C4903 1.393 . S
C4907 C4906 1.391 . S
H4908 C4916 0.950 . S
H4909 C4921 0.950 . S
H4910 C4918 0.950 . S
H4911 C4920 0.950 . S
H4912 C4922 0.950 . S
H4913 C4924 0.950 . S
H4914 C4926 0.950 . S
H4915 C4927 0.950 . S
C4916 H4908 0.950 . S
C4916 C4917 1.386 . S
C4916 C4918 1.391 . S
C4917 C4916 1.386 . S
C4917 C4921 1.393 . S
C4918 H4910 0.950 . S
C4918 C4916 1.391 . S
C4918 C4919 1.400 . S
C4919 C4918 1.400 . S
C4919 C4920 1.398 . S
C4919 C4925 1.491 . S
C4920 H4911 0.950 . S
C4920 C4919 1.398 . S
C4920 C4921 1.391 . S
C4921 H4909 0.950 . S
C4921 C4917 1.393 . S
C4921 C4920 1.391 . S
C4922 H4912 0.950 . S
C4922 C4923 1.386 . S
C4922 C4924 1.391 . S
C4923 C4922 1.386 . S
C4923 C4927 1.393 . S
C4924 H4913 0.950 . S
C4924 C4922 1.391 . S
C4924 C4925 1.400 . S
C4925 C4919 1.491 . S
C4925 C4924 1.400 . S
C4925 C4926 1.398 . S
C4926 H4914 0.950 . S
C4926 C4925 1.398 . S
C4926 C4927 1.391 . S
C4927 H4915 0.950 . S
C4927 C4923 1.393 . S
C4927 C4926 1.391 . S
H4928 C4936 0.950 . S
H4929 C4941 0.950 . S
H4930 C4938 0.950 . S
H4931 C4940 0.950 . S
H4932 C4942 0.950 . S
H4933 C4944 0.950 . S
H4934 C4946 0.950 . S
H4935 C4947 0.950 . S
C4936 H4928 0.950 . S
C4936 C4937 1.386 . S
C4936 C4938 1.391 . S
C4937 C4936 1.386 . S
C4937 C4941 1.393 . S
C4938 H4930 0.950 . S
C4938 C4936 1.391 . S
C4938 C4939 1.400 . S
C4939 C4938 1.400 . S
C4939 C4940 1.398 . S
C4939 C4945 1.491 . S
C4940 H4931 0.950 . S
C4940 C4939 1.398 . S
C4940 C4941 1.391 . S
C4941 H4929 0.950 . S
C4941 C4937 1.393 . S
C4941 C4940 1.391 . S
C4942 H4932 0.950 . S
C4942 C4943 1.386 . S
C4942 C4944 1.391 . S
C4943 C4942 1.386 . S
C4943 C4947 1.393 . S
C4944 H4933 0.950 . S
C4944 C4942 1.391 . S
C4944 C4945 1.400 . S
C4945 C4939 1.491 . S
C4945 C4944 1.400 . S
C4945 C4946 1.398 . S
C4946 H4934 0.950 . S
C4946 C4945 1.398 . S
C4946 C4947 1.391 . S
C4947 H4935 0.950 . S
C4947 C4943 1.393 . S
C4947 C4946 1.391 . S
H4948 C4956 0.950 . S
H4949 C4961 0.950 . S
H4950 C4958 0.950 . S
H4951 C4960 0.950 . S
H4952 C4962 0.950 . S
H4953 C4964 0.950 . S
H4954 C4966 0.950 . S
H4955 C4967 0.950 . S
C4956 H4948 0.950 . S
C4956 C4957 1.386 . S
C4956 C4958 1.391 . S
C4957 C4956 1.386 . S
C4957 C4961 1.393 . S
C4958 H4950 0.950 . S
C4958 C4956 1.391 . S
C4958 C4959 1.400 . S
C4959 C4958 1.400 . S
C4959 C4960 1.398 . S
C4959 C4965 1.491 . S
C4960 H4951 0.950 . S
C4960 C4959 1.398 . S
C4960 C4961 1.391 . S
C4961 H4949 0.950 . S
C4961 C4957 1.393 . S
C4961 C4960 1.391 . S
C4962 H4952 0.950 . S
C4962 C4963 1.386 . S
C4962 C4964 1.391 . S
C4963 C4962 1.386 . S
C4963 C4967 1.393 . S
C4964 H4953 0.950 . S
C4964 C4962 1.391 . S
C4964 C4965 1.400 . S
C4965 C4959 1.491 . S
C4965 C4964 1.400 . S
C4965 C4966 1.398 . S
C4966 H4954 0.950 . S
C4966 C4965 1.398 . S
C4966 C4967 1.391 . S
C4967 H4955 0.950 . S
C4967 C4963 1.393 . S
C4967 C4966 1.391 . S
H4968 C4976 0.950 . S
H4969 C4981 0.950 . S
H4970 C4978 0.950 . S
H4971 C4980 0.950 . S
H4972 C4982 0.950 . S
H4973 C4984 0.950 . S
H4974 C4986 0.950 . S
H4975 C4987 0.950 . S
C4976 H4968 0.950 . S
C4976 C4977 1.386 . S
C4976 C4978 1.391 . S
C4977 C4976 1.386 . S
C4977 C4981 1.393 . S
C4978 H4970 0.950 . S
C4978 C4976 1.391 . S
C4978 C4979 1.400 . S
C4979 C4978 1.400 . S
C4979 C4980 1.398 . S
C4979 C4985 1.491 . S
C4980 H4971 0.950 . S
C4980 C4979 1.398 . S
C4980 C4981 1.391 . S
C4981 H4969 0.950 . S
C4981 C4977 1.393 . S
C4981 C4980 1.391 . S
C4982 H4972 0.950 . S
C4982 C4983 1.386 . S
C4982 C4984 1.391 . S
C4983 C4982 1.386 . S
C4983 C4987 1.393 . S
C4984 H4973 0.950 . S
C4984 C4982 1.391 . S
C4984 C4985 1.400 . S
C4985 C4979 1.491 . S
C4985 C4984 1.400 . S
C4985 C4986 1.398 . S
C4986 H4974 0.950 . S
C4986 C4985 1.398 . S
C4986 C4987 1.391 . S
C4987 H4975 0.950 . S
C4987 C4983 1.393 . S
C4987 C4986 1.391 . S
H4988 C4996 0.950 . S
H4989 C5001 0.950 . S
H4990 C4998 0.950 . S
H4991 C5000 0.950 . S
H4992 C5002 0.950 . S
H4993 C5004 0.950 . S
H4994 C5006 0.950 . S
H4995 C5007 0.950 . S
C4996 H4988 0.950 . S
C4996 C4997 1.386 . S
C4996 C4998 1.391 . S
C4997 C4996 1.386 . S
C4997 C5001 1.393 . S
C4998 H4990 0.950 . S
C4998 C4996 1.391 . S
C4998 C4999 1.400 . S
C4999 C4998 1.400 . S
C4999 C5000 1.398 . S
C4999 C5005 1.491 . S
C5000 H4991 0.950 . S
C5000 C4999 1.398 . S
C5000 C5001 1.391 . S
C5001 H4989 0.950 . S
C5001 C4997 1.393 . S
C5001 C5000 1.391 . S
C5002 H4992 0.950 . S
C5002 C5003 1.386 . S
C5002 C5004 1.391 . S
C5003 C5002 1.386 . S
C5003 C5007 1.393 . S
C5004 H4993 0.950 . S
C5004 C5002 1.391 . S
C5004 C5005 1.400 . S
C5005 C4999 1.491 . S
C5005 C5004 1.400 . S
C5005 C5006 1.398 . S
C5006 H4994 0.950 . S
C5006 C5005 1.398 . S
C5006 C5007 1.391 . S
C5007 H4995 0.950 . S
C5007 C5003 1.393 . S
C5007 C5006 1.391 . S
H5008 C5016 0.950 . S
H5009 C5021 0.950 . S
H5010 C5018 0.950 . S
H5011 C5020 0.950 . S
H5012 C5022 0.950 . S
H5013 C5024 0.950 . S
H5014 C5026 0.950 . S
H5015 C5027 0.950 . S
C5016 H5008 0.950 . S
C5016 C5017 1.386 . S
C5016 C5018 1.391 . S
C5017 C5016 1.386 . S
C5017 C5021 1.393 . S
C5018 H5010 0.950 . S
C5018 C5016 1.391 . S
C5018 C5019 1.400 . S
C5019 C5018 1.400 . S
C5019 C5020 1.398 . S
C5019 C5025 1.491 . S
C5020 H5011 0.950 . S
C5020 C5019 1.398 . S
C5020 C5021 1.391 . S
C5021 H5009 0.950 . S
C5021 C5017 1.393 . S
C5021 C5020 1.391 . S
C5022 H5012 0.950 . S
C5022 C5023 1.386 . S
C5022 C5024 1.391 . S
C5023 C5022 1.386 . S
C5023 C5027 1.393 . S
C5024 H5013 0.950 . S
C5024 C5022 1.391 . S
C5024 C5025 1.400 . S
C5025 C5019 1.491 . S
C5025 C5024 1.400 . S
C5025 C5026 1.398 . S
C5026 H5014 0.950 . S
C5026 C5025 1.398 . S
C5026 C5027 1.391 . S
C5027 H5015 0.950 . S
C5027 C5023 1.393 . S
C5027 C5026 1.391 . S
H5028 C5036 0.970 . S
H5029 C5041 0.950 . S
H5030 C5038 0.950 . S
H5031 C5040 0.950 . S
H5032 C5042 0.950 . S
H5033 C5044 0.950 . S
H5034 C5046 0.950 . S
H5035 C5047 0.950 . S
C5036 H5028 0.970 . S
C5036 C5037 1.386 . S
C5036 C5038 1.391 . S
C5037 C5036 1.386 . S
C5037 C5041 1.393 . S
C5038 H5030 0.950 . S
C5038 C5036 1.391 . S
C5038 C5039 1.400 . S
C5039 C5038 1.400 . S
C5039 C5040 1.398 . S
C5039 C5045 1.491 . S
C5040 H5031 0.950 . S
C5040 C5039 1.398 . S
C5040 C5041 1.391 . S
C5041 H5029 0.950 . S
C5041 C5037 1.393 . S
C5041 C5040 1.391 . S
C5042 H5032 0.950 . S
C5042 C5043 1.386 . S
C5042 C5044 1.391 . S
C5043 C5042 1.386 . S
C5043 C5047 1.393 . S
C5044 H5033 0.950 . S
C5044 C5042 1.391 . S
C5044 C5045 1.400 . S
C5045 C5039 1.491 . S
C5045 C5044 1.400 . S
C5045 C5046 1.398 . S
C5046 H5034 0.950 . S
C5046 C5045 1.398 . S
C5046 C5047 1.391 . S
C5047 H5035 0.950 . S
C5047 C5043 1.393 . S
C5047 C5046 1.391 . S
H5048 C5056 0.950 . S
H5049 C5061 0.950 . S
H5050 C5058 0.950 . S
H5051 C5060 0.950 . S
H5052 C5062 0.950 . S
H5053 C5064 0.950 . S
H5054 C5066 0.950 . S
H5055 C5067 0.950 . S
C5056 H5048 0.950 . S
C5056 C5057 1.386 . S
C5056 C5058 1.391 . S
C5057 C5056 1.386 . S
C5057 C5061 1.393 . S
C5058 H5050 0.950 . S
C5058 C5056 1.391 . S
C5058 C5059 1.400 . S
C5059 C5058 1.400 . S
C5059 C5060 1.398 . S
C5059 C5065 1.491 . S
C5060 H5051 0.950 . S
C5060 C5059 1.398 . S
C5060 C5061 1.391 . S
C5061 H5049 0.950 . S
C5061 C5057 1.393 . S
C5061 C5060 1.391 . S
C5062 H5052 0.950 . S
C5062 C5063 1.386 . S
C5062 C5064 1.391 . S
C5063 C5062 1.386 . S
C5063 C5067 1.393 . S
C5064 H5053 0.950 . S
C5064 C5062 1.391 . S
C5064 C5065 1.400 . S
C5065 C5059 1.491 . S
C5065 C5064 1.400 . S
C5065 C5066 1.398 . S
C5066 H5054 0.950 . S
C5066 C5065 1.398 . S
C5066 C5067 1.391 . S
C5067 H5055 0.950 . S
C5067 C5063 1.393 . S
C5067 C5066 1.391 . S
H5068 C5076 0.950 . S
H5069 C5081 0.950 . S
H5070 C5078 0.950 . S
H5071 C5080 0.950 . S
H5072 C5082 0.950 . S
H5073 C5084 0.950 . S
H5074 C5086 0.950 . S
H5075 C5087 0.950 . S
C5076 H5068 0.950 . S
C5076 C5077 1.386 . S
C5076 C5078 1.391 . S
C5077 C5076 1.386 . S
C5077 C5081 1.393 . S
C5078 H5070 0.950 . S
C5078 C5076 1.391 . S
C5078 C5079 1.400 . S
C5079 C5078 1.400 . S
C5079 C5080 1.398 . S
C5079 C5085 1.491 . S
C5080 H5071 0.950 . S
C5080 C5079 1.398 . S
C5080 C5081 1.391 . S
C5081 H5069 0.950 . S
C5081 C5077 1.393 . S
C5081 C5080 1.391 . S
C5082 H5072 0.950 . S
C5082 C5083 1.386 . S
C5082 C5084 1.391 . S
C5083 C5082 1.386 . S
C5083 C5087 1.393 . S
C5084 H5073 0.950 . S
C5084 C5082 1.391 . S
C5084 C5085 1.400 . S
C5085 C5079 1.491 . S
C5085 C5084 1.400 . S
C5085 C5086 1.398 . S
C5086 H5074 0.950 . S
C5086 C5085 1.398 . S
C5086 C5087 1.391 . S
C5087 H5075 0.950 . S
C5087 C5083 1.393 . S
C5087 C5086 1.391 . S
C1257 C10 1.338 . S
C1263 C978 1.348 . S
C1277 C317 1.345 . S
C1283 C17 1.349 . S
C1297 C952 1.350 . S
C1303 C36 1.343 . S
C1317 C341 1.345 . S
C1323 C43 1.349 . S
C1337 C56 1.337 . S
C1343 C1006 1.349 . S
C1357 C75 1.336 . S
C1363 C395 1.354 . S
C1377 C1032 1.352 . S
C1383 C88 1.334 . S
C1397 C95 1.349 . S
C1403 C369 1.344 . S
C1417 C114 1.338 . S
C1423 C1175 1.353 . S
C1437 C562 1.353 . S
C1443 C127 1.334 . S
C1457 C134 1.349 . S
C1463 C577 1.343 . S
C1477 C153 1.337 . S
C1483 C536 1.348 . S
C1497 C166 1.349 . S
C1503 C1227 1.344 . S
C1517 C173 1.338 . S
C1523 C1147 1.353 . S
C1537 C186 1.342 . S
C1543 C1238 1.345 . S
C1557 C199 1.336 . S
C1563 C1214 1.350 . S
C1577 C1056 1.345 . S
C1583 C212 1.349 . S
C1597 C225 1.347 . S
C1603 C512 1.342 . S
C1617 C238 1.334 . S
C1623 C1097 1.354 . S
C1637 C484 1.342 . S
C1643 C257 1.348 . S
C1657 C270 1.348 . S
C1663 C497 1.346 . S
C1677 C1082 1.354 . S
C1683 C277 1.334 . S
C1697 C296 1.342 . S
C1703 C1045 1.351 . S
C1717 C1071 1.354 . S
C1723 C309 1.333 . S
C1737 C666 1.352 . S
C1743 C322 1.341 . S
C1757 C5 1.346 . S
C1763 C329 1.348 . S
C1777 C342 1.333 . S
C1783 C640 1.353 . S
C1797 C361 1.335 . S
C1803 C31 1.354 . S
C1817 C374 1.347 . S
C1823 C694 1.343 . S
C1837 C83 1.345 . S
C1843 C381 1.349 . S
C1857 C400 1.334 . S
C1863 C720 1.352 . S
C1877 C413 1.349 . S
C1883 C55 1.344 . S
C1897 C426 1.334 . S
C1903 C863 1.354 . S
C1917 C252 1.349 . S
C1923 C433 1.337 . S
C1937 C452 1.341 . S
C1943 C265 1.346 . S
C1957 C224 1.348 . S
C1963 C459 1.346 . S
C1977 C478 1.338 . S
C1983 C913 1.353 . S
C1997 C485 1.343 . S
C2003 C835 1.345 . S
C2017 C498 1.336 . S
C2023 C928 1.354 . S
C2037 C900 1.343 . S
C2043 C517 1.347 . S
C2057 C746 1.344 . S
C2063 C524 1.349 . S
C2077 C198 1.342 . S
C2083 C537 1.349 . S
C2097 C783 1.353 . S
C2103 C556 1.334 . S
C2117 C563 1.343 . S
C2123 C172 1.344 . S
C2137 C582 1.349 . S
C2143 C185 1.342 . S
C2157 C589 1.334 . S
C2163 C770 1.354 . S
C2177 C733 1.353 . S
C2183 C608 1.338 . S
C2197 C621 1.334 . S
C2203 C759 1.352 . S
C2217 C356 1.348 . S
C2223 C634 1.346 . S
C2237 C939 1.353 . S
C2243 C641 1.333 . S
C2257 C654 1.344 . S
C2263 C328 1.349 . S
C2277 C965 1.342 . S
C2283 C667 1.348 . S
C2297 C686 1.350 . S
C2303 C380 1.343 . S
C2317 C1019 1.349 . S
C2323 C699 1.345 . S
C2337 C712 1.349 . S
C2343 C408 1.342 . S
C2357 C993 1.352 . S
C2363 C725 1.341 . S
C2377 C551 1.343 . S
C2383 C738 1.349 . S
C2397 C751 1.333 . S
C2403 C1188 1.353 . S
C2417 C1201 1.352 . S
C2423 C764 1.334 . S
C2437 C771 1.347 . S
C2443 C1162 1.347 . S
C2457 C603 1.354 . S
C2463 C784 1.334 . S
C2477 C803 1.337 . S
C2483 C523 1.353 . S
C2497 C616 1.353 . S
C2503 C816 1.334 . S
C2517 C588 1.352 . S
C2523 C823 1.334 . S
C2537 C432 1.354 . S
C2543 C836 1.337 . S
C2557 C1136 1.347 . S
C2563 C849 1.347 . S
C2577 C868 1.343 . S
C2583 C473 1.345 . S
C2597 C875 1.337 . S
C2603 C1108 1.354 . S
C2617 C1121 1.343 . S
C2623 C888 1.345 . S
C2637 C458 1.354 . S
C2643 C901 1.334 . S
C2657 C421 1.351 . S
C2663 C914 1.342 . S
C2677 C447 1.354 . S
C2683 C933 1.334 . S
C2697 C940 1.335 . S
C2703 C42 1.354 . S
C2717 C953 1.335 . S
C2723 C629 1.351 . S
C2737 C966 1.338 . S
C2743 C16 1.353 . S
C2757 C979 1.344 . S
C2763 C653 1.350 . S
C2777 C70 1.348 . S
C2783 C998 1.337 . S
C2797 C707 1.353 . S
C2803 C1011 1.334 . S
C2817 C94 1.348 . S
C2823 C1024 1.338 . S
C2837 C681 1.353 . S
C2843 C1037 1.339 . S
C2857 C1050 1.347 . S
C2863 C237 1.347 . S
C2877 C874 1.350 . S
C2883 C1057 1.335 . S
C2897 C1076 1.333 . S
C2903 C887 1.354 . S
C2917 C1083 1.348 . S
C2923 C848 1.346 . S
C2937 C291 1.344 . S
C2943 C1102 1.349 . S
C2957 C211 1.347 . S
C2963 C1109 1.339 . S
C2977 C1122 1.347 . S
C2983 C304 1.343 . S
C2997 C276 1.342 . S
C3003 C1141 1.348 . S
C3017 C1148 1.350 . S
C3023 C122 1.344 . S
C3037 C1167 1.347 . S
C3043 C822 1.343 . S
C3057 C161 1.346 . S
C3063 C1180 1.340 . S
C3077 C1193 1.334 . S
C3083 C798 1.352 . S
C3097 C811 1.345 . S
C3103 C1206 1.342 . S
C3117 C1219 1.349 . S
C3123 C148 1.342 . S
C3137 C1232 1.346 . S
C3143 C109 1.347 . S
C3157 C1239 1.337 . S
C3163 C133 1.353 . S
C3177 C4 1.300 . S
C3183 C564 1.307 . S
C3197 C575 1.298 . S
C3203 C23 1.311 . S
C3217 C538 1.301 . S
C3223 C30 1.311 . S
C3237 C49 1.305 . S
C3243 C1173 1.308 . S
C3257 C62 1.305 . S
C3263 C1212 1.291 . S
C3277 C69 1.311 . S
C3283 C1225 1.298 . S
C3297 C1149 1.297 . S
C3303 C82 1.311 . S
C3317 C1240 1.307 . S
C3323 C101 1.302 . S
C3337 C343 1.298 . S
C3343 C108 1.298 . S
C3357 C121 1.298 . S
C3363 C980 1.301 . S
C3377 C315 1.302 . S
C3383 C140 1.298 . S
C3397 C954 1.296 . S
C3403 C147 1.298 . S
C3417 C393 1.297 . S
C3423 C160 1.298 . S
C3437 C179 1.300 . S
C3443 C1030 1.294 . S
C3457 C192 1.303 . S
C3463 C367 1.291 . S
C3477 C205 1.307 . S
C3483 C1004 1.307 . S
C3497 C218 1.303 . S
C3503 C1095 1.308 . S
C3517 C419 1.308 . S
C3523 C231 1.306 . S
C3537 C244 1.311 . S
C3543 C1058 1.302 . S
C3557 C251 1.311 . S
C3563 C445 1.298 . S
C3577 C264 1.299 . S
C3583 C460 1.295 . S
C3597 C283 1.307 . S
C3603 C1123 1.307 . S
C3617 C1134 1.298 . S
C3623 C290 1.311 . S
C3637 C1110 1.308 . S
C3643 C303 1.305 . S
C3657 C250 1.292 . S
C3663 C316 1.307 . S
C3677 C335 1.310 . S
C3683 C263 1.294 . S
C3697 C348 1.311 . S
C3703 C226 1.298 . S
C3717 C355 1.310 . S
C3723 C861 1.304 . S
C3737 C902 1.296 . S
C3743 C368 1.298 . S
C3757 C915 1.294 . S
C3763 C387 1.310 . S
C3777 C394 1.309 . S
C3783 C837 1.293 . S
C3797 C926 1.308 . S
C3803 C407 1.304 . S
C3817 C420 1.311 . S
C3823 C29 1.299 . S
C3837 C668 1.305 . S
C3843 C439 1.309 . S
C3857 C446 1.304 . S
C3863 C3 1.291 . S
C3877 C642 1.292 . S
C3883 C465 1.307 . S
C3897 C472 1.298 . S
C3903 C81 1.303 . S
C3917 C718 1.307 . S
C3923 C491 1.301 . S
C3937 C57 1.292 . S
C3943 C504 1.302 . S
C3957 C692 1.308 . S
C3963 C511 1.306 . S
C3977 C530 1.300 . S
C3983 C785 1.306 . S
C3997 C543 1.298 . S
C4003 C107 1.302 . S
C4017 C744 1.308 . S
C4023 C550 1.306 . S
C4037 C569 1.298 . S
C4043 C135 1.302 . S
C4057 C146 1.292 . S
C4063 C576 1.302 . S
C4077 C809 1.305 . S
C4083 C595 1.299 . S
C4097 C824 1.308 . S
C4103 C602 1.303 . S
C4117 C796 1.299 . S
C4123 C615 1.297 . S
C4137 C628 1.301 . S
C4143 C1186 1.292 . S
C4157 C647 1.298 . S
C4163 C1199 1.297 . S
C4177 C660 1.297 . S
C4183 C1160 1.299 . S
C4197 C549 1.291 . S
C4203 C673 1.304 . S
C4217 C680 1.299 . S
C4223 C590 1.295 . S
C4237 C601 1.293 . S
C4243 C693 1.301 . S
C4257 C525 1.299 . S
C4263 C706 1.298 . S
C4277 C614 1.292 . S
C4283 C719 1.307 . S
C4297 C732 1.304 . S
C4303 C967 1.291 . S
C4317 C354 1.300 . S
C4323 C745 1.297 . S
C4337 C758 1.298 . S
C4343 C941 1.298 . S
C4357 C777 1.303 . S
C4363 C330 1.308 . S
C4377 C790 1.309 . S
C4383 C1017 1.305 . S
C4397 C797 1.307 . S
C4403 C406 1.292 . S
C4417 C991 1.299 . S
C4423 C810 1.311 . S
C4437 C382 1.306 . S
C4443 C829 1.309 . S
C4457 C842 1.300 . S
C4463 C471 1.306 . S
C4477 C855 1.311 . S
C4483 C1043 1.299 . S
C4497 C862 1.308 . S
C4503 C434 1.306 . S
C4517 C1069 1.307 . S
C4523 C881 1.300 . S
C4537 C894 1.311 . S
C4543 C1084 1.298 . S
C4557 C907 1.307 . S
C4563 C499 1.292 . S
C4577 C510 1.300 . S
C4583 C920 1.311 . S
C4597 C927 1.300 . S
C4603 C486 1.294 . S
C4617 C946 1.307 . S
C4623 C876 1.307 . S
C4637 C889 1.295 . S
C4643 C959 1.310 . S
C4657 C850 1.307 . S
C4663 C972 1.308 . S
C4677 C985 1.303 . S
C4683 C239 1.291 . S
C4697 C992 1.311 . S
C4703 C278 1.301 . S
C4717 C1005 1.308 . S
C4723 C289 1.292 . S
C4737 C213 1.291 . S
C4743 C1018 1.303 . S
C4757 C1031 1.299 . S
C4763 C302 1.305 . S
C4777 C1044 1.304 . S
C4783 C655 1.291 . S
C4797 C1063 1.305 . S
C4803 C44 1.291 . S
C4817 C1070 1.298 . S
C4823 C627 1.297 . S
C4837 C1089 1.298 . S
C4843 C18 1.302 . S
C4857 C1096 1.310 . S
C4863 C705 1.296 . S
C4877 C1115 1.310 . S
C4883 C96 1.303 . S
C4897 C1128 1.310 . S
C4903 C679 1.295 . S
C4917 C1135 1.299 . S
C4923 C68 1.295 . S
C4937 C1154 1.298 . S
C4943 C159 1.302 . S
C4957 C1161 1.298 . S
C4963 C731 1.299 . S
C4977 C1174 1.308 . S
C4983 C120 1.306 . S
C4997 C1187 1.297 . S
C5003 C757 1.300 . S
C5017 C1200 1.311 . S
C5023 C772 1.299 . S
C5037 C187 1.298 . S
C5043 C1213 1.298 . S
C5057 C1226 1.309 . S
C5063 C200 1.293 . S
C5077 C1245 1.300 . S
C5083 C174 1.293 . S
