# Generated by pormake.
# Topology whv, (6)-cn, num edge types: 1
# Building blocks:
#     Node 0, Type 0, BuildingBlock: OJICUG_clean_sbu_0, # of connection points: 6
#     Node 1, Type 0, BuildingBlock: OJICUG_clean_sbu_0, # of connection points: 6
#     Node 2, Type 0, BuildingBlock: OJICUG_clean_sbu_0, # of connection points: 6
#     Node 3, Type 0, BuildingBlock: OJICUG_clean_sbu_0, # of connection points: 6
#     Node 4, Type 0, BuildingBlock: OJICUG_clean_sbu_0, # of connection points: 6
#     Node 5, Type 0, BuildingBlock: OJICUG_clean_sbu_0, # of connection points: 6
#     Node 6, Type 0, BuildingBlock: OJICUG_clean_sbu_0, # of connection points: 6
#     Node 7, Type 0, BuildingBlock: OJICUG_clean_sbu_0, # of connection points: 6
#     Node 8, Type 0, BuildingBlock: OJICUG_clean_sbu_0, # of connection points: 6
#     Node 9, Type 0, BuildingBlock: OJICUG_clean_sbu_0, # of connection points: 6
#     Node 10, Type 0, BuildingBlock: OJICUG_clean_sbu_0, # of connection points: 6
#     Node 11, Type 0, BuildingBlock: OJICUG_clean_sbu_0, # of connection points: 6
#     Node 12, Type 0, BuildingBlock: OJICUG_clean_sbu_0, # of connection points: 6
#     Node 13, Type 0, BuildingBlock: OJICUG_clean_sbu_0, # of connection points: 6
#     Node 14, Type 0, BuildingBlock: OJICUG_clean_sbu_0, # of connection points: 6
#     Node 15, Type 0, BuildingBlock: OJICUG_clean_sbu_0, # of connection points: 6
#     Edge 16, Type (0, 0), BuildingBlock: KIFKEQ_clean_linker_1, # of connection points: 2
#     Edge 17, Type (0, 0), BuildingBlock: KIFKEQ_clean_linker_1, # of connection points: 2
#     Edge 18, Type (0, 0), BuildingBlock: KIFKEQ_clean_linker_1, # of connection points: 2
#     Edge 19, Type (0, 0), BuildingBlock: KIFKEQ_clean_linker_1, # of connection points: 2
#     Edge 20, Type (0, 0), BuildingBlock: KIFKEQ_clean_linker_1, # of connection points: 2
#     Edge 21, Type (0, 0), BuildingBlock: KIFKEQ_clean_linker_1, # of connection points: 2
#     Edge 22, Type (0, 0), BuildingBlock: KIFKEQ_clean_linker_1, # of connection points: 2
#     Edge 23, Type (0, 0), BuildingBlock: KIFKEQ_clean_linker_1, # of connection points: 2
#     Edge 24, Type (0, 0), BuildingBlock: KIFKEQ_clean_linker_1, # of connection points: 2
#     Edge 25, Type (0, 0), BuildingBlock: KIFKEQ_clean_linker_1, # of connection points: 2
#     Edge 26, Type (0, 0), BuildingBlock: KIFKEQ_clean_linker_1, # of connection points: 2
#     Edge 27, Type (0, 0), BuildingBlock: KIFKEQ_clean_linker_1, # of connection points: 2
#     Edge 28, Type (0, 0), BuildingBlock: KIFKEQ_clean_linker_1, # of connection points: 2
#     Edge 29, Type (0, 0), BuildingBlock: KIFKEQ_clean_linker_1, # of connection points: 2
#     Edge 30, Type (0, 0), BuildingBlock: KIFKEQ_clean_linker_1, # of connection points: 2
#     Edge 31, Type (0, 0), BuildingBlock: KIFKEQ_clean_linker_1, # of connection points: 2
#     Edge 32, Type (0, 0), BuildingBlock: KIFKEQ_clean_linker_1, # of connection points: 2
#     Edge 33, Type (0, 0), BuildingBlock: KIFKEQ_clean_linker_1, # of connection points: 2
#     Edge 34, Type (0, 0), BuildingBlock: KIFKEQ_clean_linker_1, # of connection points: 2
#     Edge 35, Type (0, 0), BuildingBlock: KIFKEQ_clean_linker_1, # of connection points: 2
#     Edge 36, Type (0, 0), BuildingBlock: KIFKEQ_clean_linker_1, # of connection points: 2
#     Edge 37, Type (0, 0), BuildingBlock: KIFKEQ_clean_linker_1, # of connection points: 2
#     Edge 38, Type (0, 0), BuildingBlock: KIFKEQ_clean_linker_1, # of connection points: 2
#     Edge 39, Type (0, 0), BuildingBlock: KIFKEQ_clean_linker_1, # of connection points: 2
#     Edge 40, Type (0, 0), BuildingBlock: KIFKEQ_clean_linker_1, # of connection points: 2
#     Edge 41, Type (0, 0), BuildingBlock: KIFKEQ_clean_linker_1, # of connection points: 2
#     Edge 42, Type (0, 0), BuildingBlock: KIFKEQ_clean_linker_1, # of connection points: 2
#     Edge 43, Type (0, 0), BuildingBlock: KIFKEQ_clean_linker_1, # of connection points: 2
#     Edge 44, Type (0, 0), BuildingBlock: KIFKEQ_clean_linker_1, # of connection points: 2
#     Edge 45, Type (0, 0), BuildingBlock: KIFKEQ_clean_linker_1, # of connection points: 2
#     Edge 46, Type (0, 0), BuildingBlock: KIFKEQ_clean_linker_1, # of connection points: 2
#     Edge 47, Type (0, 0), BuildingBlock: KIFKEQ_clean_linker_1, # of connection points: 2
#     Edge 48, Type (0, 0), BuildingBlock: KIFKEQ_clean_linker_1, # of connection points: 2
#     Edge 49, Type (0, 0), BuildingBlock: KIFKEQ_clean_linker_1, # of connection points: 2
#     Edge 50, Type (0, 0), BuildingBlock: KIFKEQ_clean_linker_1, # of connection points: 2
#     Edge 51, Type (0, 0), BuildingBlock: KIFKEQ_clean_linker_1, # of connection points: 2
#     Edge 52, Type (0, 0), BuildingBlock: KIFKEQ_clean_linker_1, # of connection points: 2
#     Edge 53, Type (0, 0), BuildingBlock: KIFKEQ_clean_linker_1, # of connection points: 2
#     Edge 54, Type (0, 0), BuildingBlock: KIFKEQ_clean_linker_1, # of connection points: 2
#     Edge 55, Type (0, 0), BuildingBlock: KIFKEQ_clean_linker_1, # of connection points: 2
#     Edge 56, Type (0, 0), BuildingBlock: KIFKEQ_clean_linker_1, # of connection points: 2
#     Edge 57, Type (0, 0), BuildingBlock: KIFKEQ_clean_linker_1, # of connection points: 2
#     Edge 58, Type (0, 0), BuildingBlock: KIFKEQ_clean_linker_1, # of connection points: 2
#     Edge 59, Type (0, 0), BuildingBlock: KIFKEQ_clean_linker_1, # of connection points: 2
#     Edge 60, Type (0, 0), BuildingBlock: KIFKEQ_clean_linker_1, # of connection points: 2
#     Edge 61, Type (0, 0), BuildingBlock: KIFKEQ_clean_linker_1, # of connection points: 2
#     Edge 62, Type (0, 0), BuildingBlock: KIFKEQ_clean_linker_1, # of connection points: 2
#     Edge 63, Type (0, 0), BuildingBlock: KIFKEQ_clean_linker_1, # of connection points: 2
# Relax obj value: 0.290
# Max RMSD: 0.262
# Mean RMSD: 0.262
data_MOF--net-whv--node1-OJICUG_clean_sbu_0--edge1-KIFKEQ_clean_linker_1
_symmetry_space_group_name_H-M    P1
_symmetry_Int_Tables_number       1
_symmetry_cell_setting            triclinic
loop_
_symmetry_equiv_pos_as_xyz
'x, y, z'
_cell_length_a     52.675028
_cell_length_b     52.591417
_cell_length_c     27.61372
_cell_angle_alpha  89.941528
_cell_angle_beta   90.012118
_cell_angle_gamma 90.02282
loop_
_atom_site_label
_atom_site_type_symbol
_atom_site_fract_x
_atom_site_fract_y
_atom_site_fract_z
_atom_type_partial_charge
Sc0 Sc 0.27353 0.20891 -0.00581 0.0
Sc1 Sc 0.3134 0.15885 0.96154 0.0
Sc2 Sc 0.33383 0.20298 0.04892 0.0
O3 O 0.30687 0.19003 0.00222 0.0
C4 C 0.3153 0.25278 -0.00604 0.0
C5 C 0.2866 0.19443 0.88567 0.0
C6 C 0.36845 0.18355 0.96246 0.0
C7 C 0.2541 0.15282 0.9865 0.0
C8 C 0.2832 0.21527 0.1075 0.0
C9 C 0.33499 0.14279 0.06508 0.0
O10 O 0.29421 0.24352 0.97996 0.0
O11 O 0.30463 0.17918 0.89518 0.0
O12 O 0.36506 0.19829 -0.0017 0.0
O13 O 0.25082 0.17502 0.0039 0.0
O14 O 0.30654 0.20913 0.10624 0.0
O15 O 0.32401 0.13699 0.02528 0.0
O16 O 0.26963 0.217 0.06975 0.0
O17 O 0.27509 0.14563 0.96851 0.0
O18 O 0.34007 0.16556 0.07726 0.0
O19 O 0.27226 0.20383 0.91773 0.0
O20 O 0.33027 0.24132 0.0228 0.0
O21 O 0.35188 0.16805 0.94762 0.0
Sc22 Sc 0.54714 0.58482 0.29923 0.0
Sc23 Sc 0.58899 0.54632 0.23474 0.0
Sc24 Sc 0.52716 0.52781 0.25037 0.0
O25 O 0.55459 0.55317 0.26224 0.0
C26 C 0.5193 0.53955 0.35842 0.0
C27 C 0.60198 0.57402 0.33562 0.0
C28 C 0.5766 0.49246 0.26122 0.0
C29 C 0.58176 0.60383 0.20977 0.0
C30 C 0.49625 0.57923 0.24364 0.0
C31 C 0.55097 0.52818 0.1511 0.0
O32 O 0.5248 0.56315 0.35266 0.0
O33 O 0.60872 0.56402 0.29553 0.0
O34 O 0.55375 0.49588 0.24733 0.0
O35 O 0.56908 0.60829 0.24846 0.0
O36 O 0.49655 0.55523 0.24884 0.0
O37 O 0.57316 0.52738 0.16991 0.0
O38 O 0.51488 0.59308 0.25543 0.0
O39 O 0.58833 0.58157 0.19697 0.0
O40 O 0.53148 0.53399 0.17537 0.0
O41 O 0.57912 0.57964 0.34503 0.0
O42 O 0.52239 0.52287 0.32565 0.0
O43 O 0.59068 0.51103 0.27255 0.0
Sc44 Sc 0.15177 0.79342 0.55237 0.0
Sc45 Sc 0.17969 0.83046 0.46233 0.0
Sc46 Sc 0.20829 0.775 0.49968 0.0
O47 O 0.17995 0.79999 0.50544 0.0
C48 C 0.20283 0.77783 0.60983 0.0
C49 C 0.15797 0.85168 0.56424 0.0
C50 C 0.23676 0.82802 0.47927 0.0
C51 C 0.12257 0.81549 0.45942 0.0
C52 C 0.16083 0.73917 0.51301 0.0
C53 C 0.19647 0.78482 0.39272 0.0
O54 O 0.17856 0.77842 0.6063 0.0
O55 O 0.16418 0.85481 0.51977 0.0
O56 O 0.23611 0.80378 0.47872 0.0
O57 O 0.1223 0.80806 0.50351 0.0
O58 O 0.18476 0.74218 0.51592 0.0
O59 O 0.19449 0.8088 0.39982 0.0
O60 O 0.14532 0.75698 0.52151 0.0
O61 O 0.14284 0.82132 0.43736 0.0
O62 O 0.19852 0.76896 0.42691 0.0
O63 O 0.1563 0.82991 0.58384 0.0
O64 O 0.21744 0.78041 0.57359 0.0
O65 O 0.2169 0.84126 0.48474 0.0
Sc66 Sc 0.9597 0.46794 0.7434 0.0
Sc67 Sc 0.90789 0.42947 0.71263 0.0
Sc68 Sc 0.95352 0.40672 0.79497 0.0
O69 O 0.94022 0.43479 0.75088 0.0
C70 C 0.00358 0.4261 0.74248 0.0
C71 C 0.94387 0.45555 0.63539 0.0
C72 C 0.9323 0.37433 0.70683 0.0
C73 C 0.90348 0.48858 0.73867 0.0
C74 C 0.96616 0.4568 0.85605 0.0
C75 C 0.89381 0.40587 0.81538 0.0
O76 O 0.99468 0.44765 0.73022 0.0
O77 O 0.92689 0.43912 0.64521 0.0
O78 O 0.94796 0.3767 0.74159 0.0
O79 O 0.92639 0.49156 0.75234 0.0
O80 O 0.96078 0.43321 0.85367 0.0
O81 O 0.8872 0.418 0.77728 0.0
O82 O 0.96696 0.47112 0.81913 0.0
O83 O 0.89512 0.46759 0.72272 0.0
O84 O 0.91672 0.40014 0.82482 0.0
O85 O 0.9552 0.46865 0.66709 0.0
O86 O 0.99141 0.41025 0.76821 0.0
O87 O 0.91642 0.39129 0.69551 0.0
Sc88 Sc 0.70587 0.7812 0.03087 0.0
Sc89 Sc 0.68231 0.83905 0.06335 0.0
Sc90 Sc 0.65183 0.80383 0.97509 0.0
O91 O 0.68012 0.80824 0.022 0.0
C92 C 0.70132 0.78199 0.91983 0.0
C93 C 0.73789 0.83317 0.04129 0.0
C94 C 0.66001 0.86098 0.96298 0.0
C95 C 0.69991 0.79517 0.13564 0.0
C96 C 0.65533 0.74938 0.01898 0.0
C97 C 0.62542 0.82755 0.06975 0.0
O98 O 0.71553 0.78347 0.95683 0.0
O99 O 0.71877 0.84739 0.03414 0.0
O100 O 0.66018 0.83956 0.94187 0.0
O101 O 0.69558 0.7781 0.10467 0.0
O102 O 0.64171 0.7684 0.00792 0.0
O103 O 0.64614 0.83032 0.09262 0.0
O104 O 0.67949 0.75021 0.01774 0.0
O105 O 0.70038 0.8187 0.1242 0.0
O106 O 0.62444 0.82202 0.02456 0.0
O107 O 0.73566 0.80912 0.04721 0.0
O108 O 0.67722 0.78554 0.9218 0.0
O109 O 0.66454 0.86331 0.00825 0.0
Sc110 Sc 0.46337 0.46258 0.78018 0.0
Sc111 Sc 0.41088 0.42896 0.81949 0.0
Sc112 Sc 0.44579 0.40722 0.72293 0.0
O113 O 0.43959 0.43353 0.77371 0.0
C114 C 0.4638 0.4581 0.6702 0.0
C115 C 0.4085 0.48745 0.8016 0.0
C116 C 0.38904 0.4135 0.71328 0.0
C117 C 0.4554 0.44852 0.88854 0.0
C118 C 0.49829 0.41377 0.77062 0.0
C119 C 0.42345 0.37354 0.80841 0.0
O120 O 0.45871 0.47209 0.70612 0.0
O121 O 0.39705 0.46623 0.80464 0.0
O122 O 0.41018 0.41631 0.69165 0.0
O123 O 0.46975 0.45439 0.8537 0.0
O124 O 0.48073 0.39856 0.75794 0.0
O125 O 0.42445 0.39201 0.83747 0.0
O126 O 0.49609 0.43795 0.76664 0.0
O127 O 0.43206 0.4426 0.88303 0.0
O128 O 0.42695 0.37665 0.7632 0.0
O129 O 0.43263 0.48922 0.79695 0.0
O130 O 0.46435 0.4339 0.67349 0.0
O131 O 0.38696 0.41425 0.75969 0.0
Sc132 Sc 0.83663 0.18857 0.47615 0.0
Sc133 Sc 0.80285 0.1595 0.56721 0.0
Sc134 Sc 0.78896 0.22079 0.53562 0.0
O135 O 0.8093 0.18963 0.52538 0.0
C136 C 0.84484 0.24225 0.52091 0.0
C137 C 0.86058 0.16186 0.5703 0.0
C138 C 0.79383 0.20529 0.64021 0.0
C139 C 0.81974 0.13425 0.46648 0.0
C140 C 0.79134 0.21938 0.42368 0.0
C141 C 0.74885 0.17444 0.54596 0.0
O142 O 0.85397 0.22126 0.50677 0.0
O143 O 0.84013 0.16274 0.59456 0.0
O144 O 0.80054 0.22125 0.60865 0.0
O145 O 0.82022 0.15553 0.44517 0.0
O146 O 0.77808 0.22165 0.46179 0.0
O147 O 0.76547 0.15736 0.53883 0.0
O148 O 0.81405 0.21063 0.424 0.0
O149 O 0.81669 0.13258 0.51227 0.0
O150 O 0.75476 0.1979 0.55221 0.0
O151 O 0.86146 0.16612 0.52456 0.0
O152 O 0.82099 0.24642 0.52314 0.0
O153 O 0.78891 0.18225 0.62901 0.0
Sc154 Sc 0.05075 0.57799 0.22988 0.0
Sc155 Sc 0.0905 0.54123 0.30083 0.0
Sc156 Sc 0.02878 0.52304 0.28402 0.0
O157 O 0.0567 0.54738 0.27061 0.0
C158 C 0.0004 0.57627 0.28947 0.0
C159 C 0.08341 0.5982 0.32032 0.0
C160 C 0.05261 0.52285 0.38322 0.0
C161 C 0.10536 0.56757 0.19954 0.0
C162 C 0.02131 0.53288 0.17433 0.0
C163 C 0.07859 0.48743 0.27296 0.0
O164 O 0.01917 0.58884 0.27358 0.0
O165 O 0.08726 0.57628 0.33824 0.0
O166 O 0.0334 0.52955 0.35903 0.0
O167 O 0.08257 0.56919 0.18518 0.0
O168 O 0.02346 0.51707 0.20887 0.0
O169 O 0.09315 0.506 0.26325 0.0
O170 O 0.02713 0.55646 0.17853 0.0
O171 O 0.11103 0.56055 0.24248 0.0
O172 O 0.05551 0.49084 0.28617 0.0
O173 O 0.07414 0.60173 0.2779 0.0
O174 O -0.00078 0.5521 0.28651 0.0
O175 O 0.07464 0.52133 0.36427 0.0
Sc176 Sc 0.77439 0.71083 0.5132 0.0
Sc177 Sc 0.80141 0.65489 0.47271 0.0
Sc178 Sc 0.83275 0.69205 0.55798 0.0
O179 O 0.8028 0.68574 0.51466 0.0
C180 C 0.82415 0.74527 0.51431 0.0
C181 C 0.78108 0.69976 0.4038 0.0
C182 C 0.85883 0.66584 0.4651 0.0
C183 C 0.74472 0.65785 0.50172 0.0
C184 C 0.7856 0.71144 0.62162 0.0
C185 C 0.82332 0.6348 0.57547 0.0
O186 O 0.80019 0.74311 0.52006 0.0
O187 O 0.78565 0.67608 0.41039 0.0
O188 O 0.86015 0.67377 0.50877 0.0
O189 O 0.74499 0.68209 0.50277 0.0
O190 O 0.80951 0.71084 0.61368 0.0
O191 O 0.81721 0.63112 0.53104 0.0
O192 O 0.76939 0.70708 0.58885 0.0
O193 O 0.76481 0.64479 0.49841 0.0
O194 O 0.82647 0.65683 0.59332 0.0
O195 O 0.7787 0.71541 0.43819 0.0
O196 O 0.83952 0.72719 0.52243 0.0
O197 O 0.83782 0.66264 0.44378 0.0
Sc198 Sc 0.0486 0.08422 0.81661 0.0
Sc199 Sc 0.08297 0.05938 0.72083 0.0
Sc200 Sc 0.02807 0.02953 0.75965 0.0
O201 O 0.05358 0.05735 0.76616 0.0
C202 C 0.02917 0.03343 0.87004 0.0
C203 C 0.10578 0.07456 0.82614 0.0
C204 C 0.08078 0.00114 0.73482 0.0
C205 C 0.07129 0.11651 0.72861 0.0
C206 C 0.99494 0.07913 0.77275 0.0
C207 C 0.03684 0.04324 0.65177 0.0
O208 O 0.03064 0.05766 0.86732 0.0
O209 O 0.10806 0.07198 0.78009 0.0
O210 O 0.05663 0.00125 0.73937 0.0
O211 O 0.06625 0.1146 0.77365 0.0
O212 O -0.0036 0.05492 0.77527 0.0
O213 O 0.06063 0.04707 0.65755 0.0
O214 O 0.01327 0.09357 0.78429 0.0
O215 O 0.07343 0.09729 0.70145 0.0
O216 O 0.02187 0.03912 0.68664 0.0
O217 O 0.08437 0.07527 0.84726 0.0
O218 O 0.03267 0.01922 0.83361 0.0
O219 O 0.09392 0.02133 0.73617 0.0
Sc220 Sc 0.66152 0.30562 0.05947 0.0
Sc221 Sc 0.69841 0.34396 0.98508 0.0
Sc222 Sc 0.71467 0.28179 0.00222 0.0
O223 O 0.69142 0.31055 0.01647 0.0
C224 C 0.7077 0.2764 0.1129 0.0
C225 C 0.6749 0.36049 0.08769 0.0
C226 C 0.7522 0.33013 0.00655 0.0
C227 C 0.6406 0.33978 0.97023 0.0
C228 C 0.66135 0.25424 0.00338 0.0
C229 C 0.71267 0.30417 0.9024 0.0
O230 O 0.68411 0.28245 0.11049 0.0
O231 O 0.68199 0.36572 0.04463 0.0
O232 O 0.74747 0.30713 -0.00544 0.0
O233 O 0.63724 0.32893 0.01145 0.0
O234 O 0.68544 0.2529 0.00503 0.0
O235 O 0.71554 0.32637 0.92036 0.0
O236 O 0.64924 0.27343 0.01863 0.0
O237 O 0.66238 0.34298 0.95145 0.0
O238 O 0.70568 0.28553 0.92793 0.0
O239 O 0.67155 0.33787 0.10216 0.0
O240 O 0.72259 0.27771 0.07681 0.0
O241 O 0.73461 0.34522 0.019 0.0
Sc242 Sc 0.46177 0.96294 0.26014 0.0
Sc243 Sc 0.40572 0.93906 0.21593 0.0
Sc244 Sc 0.43669 0.908 0.30933 0.0
O245 O 0.43452 0.93684 0.26239 0.0
C246 C 0.4919 0.91112 0.27088 0.0
C247 C 0.45308 0.95649 0.15139 0.0
C248 C 0.41486 0.88168 0.21266 0.0
C249 C 0.41081 0.99536 0.24069 0.0
C250 C 0.45722 0.95592 0.37027 0.0
C251 C 0.37975 0.91837 0.31423 0.0
O252 O 0.49174 0.93533 0.27425 0.0
O253 O 0.42903 0.95529 0.15715 0.0
O254 O 0.41921 0.8809 0.25828 0.0
O255 O 0.43501 0.99347 0.24214 0.0
O256 O 0.45423 0.93187 0.36568 0.0
O257 O 0.37908 0.92274 0.26863 0.0
O258 O 0.45642 0.97104 0.33455 0.0
O259 O 0.39641 0.97602 0.24134 0.0
O260 O 0.40038 0.9175 0.33799 0.0
O261 O 0.46836 0.9551 0.18652 0.0
O262 O 0.47252 0.89763 0.28003 0.0
O263 O 0.41447 0.9024 0.18921 0.0
Sc264 Sc 0.21633 0.27724 0.53619 0.0
Sc265 Sc 0.20221 0.34039 0.547 0.0
Sc266 Sc 0.16301 0.30123 0.47915 0.0
O267 O 0.19374 0.30627 0.52002 0.0
C268 C 0.2067 0.26845 0.42651 0.0
C269 C 0.25507 0.32445 0.52341 0.0
C270 C 0.1769 0.35471 0.4445 0.0
C271 C 0.21769 0.30317 0.63318 0.0
C272 C 0.16174 0.25168 0.54191 0.0
C273 C 0.14477 0.33811 0.56591 0.0
O274 O 0.22234 0.27008 0.46146 0.0
O275 O 0.23759 0.33944 0.50981 0.0
O276 O 0.17351 0.33176 0.43218 0.0
O277 O 0.20958 0.28392 0.61067 0.0
O278 O 0.15019 0.2707 0.5242 0.0
O279 O 0.16687 0.341 0.5836 0.0
O280 O 0.18581 0.24953 0.54031 0.0
O281 O 0.22062 0.32464 0.61227 0.0
O282 O 0.14063 0.32698 0.52532 0.0
O283 O 0.25002 0.30189 0.53796 0.0
O284 O 0.18353 0.27572 0.42973 0.0
O285 O 0.1847 0.36083 0.48666 0.0
Sc286 Sc 0.96027 0.95984 0.28881 0.0
Sc287 Sc 0.8983 0.94589 0.31242 0.0
Sc288 Sc 0.93161 0.90902 0.23151 0.0
O289 O 0.93008 0.93831 0.2765 0.0
C290 C 0.96386 0.95307 0.17775 0.0
C291 C 0.91306 -0.00089 0.28779 0.0
C292 C 0.87723 0.92458 0.21141 0.0
C293 C 0.94061 0.95973 0.39029 0.0
C294 C 0.98381 0.90443 0.28397 0.0
C295 C 0.90124 0.88829 0.32461 0.0
O296 O 0.9639 0.96795 0.21397 0.0
O297 O 0.89717 0.9818 0.27748 0.0
O298 O 0.89915 0.92242 0.19301 0.0
O299 O 0.95775 0.95078 0.36339 0.0
O300 O 0.96355 0.894 0.26926 0.0
O301 O 0.90049 0.90968 0.34595 0.0
O302 O 0.98706 0.92846 0.28359 0.0
O303 O 0.91813 0.96329 0.37445 0.0
O304 O 0.90799 0.88572 0.28023 0.0
O305 O 0.93622 0.9939 0.29824 0.0
O306 O 0.9553 0.93025 0.17974 0.0
O307 O 0.87402 0.92972 0.25614 0.0
Sc308 Sc 0.3292 0.68925 0.97385 0.0
Sc309 Sc 0.29092 0.65033 0.04464 0.0
Sc310 Sc 0.27559 0.71303 0.02986 0.0
O311 O 0.29857 0.68404 0.01487 0.0
C312 C 0.3291 0.7401 0.03212 0.0
C313 C 0.34884 0.65469 0.06249 0.0
C314 C 0.27647 0.68919 0.12871 0.0
C315 C 0.31585 0.63452 0.94245 0.0
C316 C 0.28425 0.72037 0.92027 0.0
C317 C 0.23741 0.66519 0.02181 0.0
O318 O 0.34105 0.7208 0.01703 0.0
O319 O 0.32684 0.65038 0.07957 0.0
O320 O 0.28386 0.70804 0.10413 0.0
O321 O 0.32051 0.65718 0.92934 0.0
O322 O 0.26866 0.71866 0.95526 0.0
O323 O 0.25496 0.65004 0.00941 0.0
O324 O 0.30744 0.71302 0.92302 0.0
O325 O 0.30717 0.62916 0.98438 0.0
O326 O 0.24231 0.68793 0.03531 0.0
O327 O 0.35256 0.66582 0.02181 0.0
O328 O 0.30507 0.74185 0.02932 0.0
O329 O 0.27354 0.66724 0.10978 0.0
Sc330 Sc 0.54979 0.09159 0.71907 0.0
Sc331 Sc 0.58509 0.06131 0.8078 0.0
Sc332 Sc 0.52478 0.04119 0.78428 0.0
O333 O 0.55334 0.06437 0.76884 0.0
C334 C 0.49659 0.09403 0.76997 0.0
C335 C 0.57578 0.11882 0.81054 0.0
C336 C 0.54352 0.04672 0.88604 0.0
C337 C 0.60598 0.08188 0.70541 0.0
C338 C 0.52208 0.04268 0.67165 0.0
C339 C 0.57521 0.00574 0.7906 0.0
O340 O 0.51562 0.10517 0.75151 0.0
O341 O 0.57843 0.09847 0.83496 0.0
O342 O 0.52599 0.05316 0.85755 0.0
O343 O 0.58446 0.08048 0.68501 0.0
O344 O 0.52184 0.02989 0.71071 0.0
O345 O 0.59054 0.02374 0.7807 0.0
O346 O 0.52945 0.06591 0.66966 0.0
O347 O 0.6087 0.07777 0.75067 0.0
O348 O 0.55145 0.00969 0.79772 0.0
O349 O 0.56985 0.11905 0.76549 0.0
O350 O 0.49568 0.07002 0.77578 0.0
O351 O 0.56632 0.04456 0.87132 0.0
H352 H 0.20354 0.16354 0.0002 0.0
H353 H 0.25451 0.10384 0.95386 0.0
H354 H 0.16778 0.1396 0.96733 0.0
H355 H 0.2188 0.08031 0.92062 0.0
H356 H 0.15575 0.07787 0.79777 0.0
H357 H 0.19161 0.09233 0.84674 0.0
H358 H 0.1428 0.09788 0.9718 0.0
H359 H 0.10709 0.0833 0.9236 0.0
C360 C 0.20708 0.14506 0.98433 0.0
C361 C 0.23197 0.13589 0.97893 0.0
C362 C 0.1866 0.13137 0.96539 0.0
C363 C 0.19069 0.10837 0.94062 0.0
C364 C 0.21524 0.09822 0.93876 0.0
C365 C 0.23564 0.11172 0.95807 0.0
C366 C 0.15275 0.08171 0.83587 0.0
C367 C 0.12845 0.07969 0.85644 0.0
C368 C 0.17328 0.0899 0.86395 0.0
C369 C 0.16984 0.09639 0.91294 0.0
C370 C 0.14588 0.09326 0.93403 0.0
C371 C 0.12546 0.08484 0.90623 0.0
H372 H 0.67216 0.36063 0.18652 0.0
H373 H 0.65496 0.40596 0.06006 0.0
H374 H 0.64789 0.39029 0.23696 0.0
H375 H 0.63037 0.43511 0.11039 0.0
H376 H 0.56029 0.45522 0.19988 0.0
H377 H 0.58688 0.42302 0.16175 0.0
H378 H 0.64872 0.44248 0.25716 0.0
H379 H 0.62242 0.47535 0.29481 0.0
C380 C 0.66365 0.37719 0.16972 0.0
C381 C 0.66543 0.381 0.11935 0.0
C382 C 0.64972 0.39401 0.19852 0.0
C383 C 0.63697 0.41454 0.17718 0.0
C384 C 0.63981 0.41912 0.12738 0.0
C385 C 0.65414 0.40264 0.09876 0.0
C386 C 0.57929 0.45223 0.21379 0.0
C387 C 0.58939 0.46816 0.24982 0.0
C388 C 0.59454 0.43396 0.19162 0.0
C389 C 0.61991 0.43082 0.20598 0.0
C390 C 0.62925 0.4448 0.24532 0.0
C391 C 0.61415 0.46348 0.26692 0.0
H392 H 0.36871 0.92289 0.41027 0.0
H393 H 0.33918 0.89338 0.27558 0.0
H394 H 0.33457 0.9015 0.45452 0.0
H395 H 0.3053 0.87173 0.32004 0.0
H396 H 0.27478 0.80954 0.42245 0.0
H397 H 0.30836 0.834 0.38302 0.0
H398 H 0.28447 0.90139 0.45948 0.0
H399 H 0.25054 0.87705 0.49859 0.0
C400 C 0.35465 0.91222 0.39008 0.0
C401 C 0.35657 0.90979 0.33949 0.0
C402 C 0.3352 0.89997 0.41541 0.0
C403 C 0.31765 0.88469 0.39067 0.0
C404 C 0.31888 0.88316 0.33992 0.0
C405 C 0.33804 0.89579 0.31448 0.0
C406 C 0.27703 0.82942 0.43176 0.0
C407 C 0.26004 0.84138 0.46366 0.0
C408 C 0.29601 0.84347 0.40867 0.0
C409 C 0.29865 0.86961 0.41772 0.0
C410 C 0.2827 0.88127 0.4518 0.0
C411 C 0.2634 0.86733 0.47424 0.0
H412 H 0.82345 0.58384 0.55292 0.0
H413 H 0.83682 0.63628 0.67089 0.0
H414 H 0.83864 0.54896 0.60382 0.0
H415 H 0.85202 0.60153 0.72103 0.0
H416 H 0.91616 0.53908 0.74637 0.0
H417 H 0.892 0.57476 0.71373 0.0
H418 H 0.82933 0.52456 0.68205 0.0
H419 H 0.85315 0.48893 0.71508 0.0
C420 C 0.82921 0.5879 0.58977 0.0
C421 C 0.82921 0.61293 0.60743 0.0
C422 C 0.8378 0.56793 0.61899 0.0
C423 C 0.84665 0.57266 0.66622 0.0
C424 C 0.84555 0.59743 0.6846 0.0
C425 C 0.83679 0.61731 0.65569 0.0
C426 C 0.89694 0.53576 0.73398 0.0
C427 C 0.88684 0.51104 0.7325 0.0
C428 C 0.88311 0.55619 0.71514 0.0
C429 C 0.85903 0.55222 0.69445 0.0
C430 C 0.84806 0.52799 0.69691 0.0
C431 C 0.86172 0.50764 0.71612 0.0
H432 H 0.7754 0.81471 0.09951 0.0
H433 H 0.75408 0.8806 0.01508 0.0
H434 H 0.80911 0.83935 0.13791 0.0
H435 H 0.78834 0.90501 0.05294 0.0
H436 H 0.87254 0.92486 0.11285 0.0
H437 H 0.84027 0.90267 0.06479 0.0
H438 H 0.8017 0.88061 0.19608 0.0
H439 H 0.83347 0.9031 0.24415 0.0
C440 C 0.77837 0.83419 0.08805 0.0
C441 C 0.76194 0.8458 0.05459 0.0
C442 C 0.79749 0.84832 0.11038 0.0
C443 C 0.80089 0.8741 0.09882 0.0
C444 C 0.78591 0.88517 0.06252 0.0
C445 C 0.76642 0.87119 0.04085 0.0
C446 C 0.85684 0.91574 0.13133 0.0
C447 C 0.85549 0.91572 0.18223 0.0
C448 C 0.83851 0.90302 0.10387 0.0
C449 C 0.81891 0.88966 0.12697 0.0
C450 C 0.81691 0.89055 0.17763 0.0
C451 C 0.8349 0.90367 0.20503 0.0
H452 H 0.42487 0.53665 0.8148 0.0
H453 H 0.3568 0.49092 0.80497 0.0
H454 H 0.39921 0.57304 0.83979 0.0
H455 H 0.33141 0.5272 0.82979 0.0
H456 H 0.30773 0.58338 0.95366 0.0
H457 H 0.32836 0.54898 0.90972 0.0
H458 H 0.36464 0.60359 0.81561 0.0
H459 H 0.34408 0.63811 0.85942 0.0
C460 C 0.40446 0.53446 0.81696 0.0
C461 C 0.39301 0.51072 0.80858 0.0
C462 C 0.38974 0.55533 0.83116 0.0
C463 C 0.36334 0.55283 0.83733 0.0
C464 C 0.35176 0.52956 0.82613 0.0
C465 C 0.36638 0.50879 0.81177 0.0
C466 C 0.31967 0.58808 0.92301 0.0
C467 C 0.32437 0.61355 0.91045 0.0
C468 C 0.33145 0.56835 0.89771 0.0
C469 C 0.34831 0.57364 0.85951 0.0
C470 C 0.352 0.59899 0.84529 0.0
C471 C 0.34003 0.61873 0.87026 0.0
H472 H 0.61011 0.08764 0.60708 0.0
H473 H 0.64918 0.10364 0.74135 0.0
H474 H 0.64154 0.11284 0.56305 0.0
H475 H 0.68047 0.12874 0.69723 0.0
H476 H 0.71685 0.19301 0.61504 0.0
H477 H 0.6809 0.17039 0.65106 0.0
H478 H 0.68814 0.1114 0.5433 0.0
H479 H 0.72401 0.13396 0.50741 0.0
C480 C 0.62558 0.09621 0.62713 0.0
C481 C 0.62715 0.09352 0.67777 0.0
C482 C 0.64349 0.11073 0.6019 0.0
C483 C 0.66317 0.12313 0.62682 0.0
C484 C 0.66518 0.11984 0.67719 0.0
C485 C 0.64747 0.1051 0.70235 0.0
C486 C 0.71015 0.17571 0.59801 0.0
C487 C 0.72319 0.16524 0.55842 0.0
C488 C 0.68986 0.16255 0.61907 0.0
C489 C 0.68205 0.1389 0.60049 0.0
C490 C 0.69374 0.12955 0.55844 0.0
C491 C 0.71421 0.14251 0.5378 0.0
H492 H 0.17156 0.35275 0.34594 0.0
H493 H 0.15773 0.40083 0.47001 0.0
H494 H 0.14693 0.38202 0.29498 0.0
H495 H 0.13271 0.42949 0.41927 0.0
H496 H 0.06123 0.44865 0.33005 0.0
H497 H 0.08732 0.41554 0.36703 0.0
H498 H 0.15025 0.43673 0.27572 0.0
H499 H 0.12455 0.47056 0.23957 0.0
C500 C 0.16367 0.36976 0.3621 0.0
C501 C 0.16664 0.37455 0.41196 0.0
C502 C 0.14951 0.38635 0.33302 0.0
C503 C 0.13768 0.4076 0.35363 0.0
C504 C 0.14148 0.41297 0.40287 0.0
C505 C 0.15605 0.39675 0.4317 0.0
C506 C 0.08037 0.4459 0.31683 0.0
C507 C 0.09098 0.46265 0.28264 0.0
C508 C 0.09531 0.42703 0.33822 0.0
C509 C 0.12082 0.42408 0.32469 0.0
C510 C 0.13064 0.43886 0.28684 0.0
C511 C 0.11588 0.45812 0.26613 0.0
H512 H 0.65325 0.56457 0.33389 0.0
H513 H 0.59481 0.60193 0.41787 0.0
H514 H 0.6855 0.58288 0.38699 0.0
H515 H 0.6271 0.62023 0.47027 0.0
H516 H 0.69758 0.67754 0.48188 0.0
H517 H 0.66107 0.6539 0.45118 0.0
H518 H 0.70076 0.58324 0.47548 0.0
H519 H 0.73708 0.60661 0.50671 0.0
C520 C 0.64724 0.57629 0.36399 0.0
C521 C 0.62146 0.58194 0.3712 0.0
C522 C 0.66568 0.58668 0.39453 0.0
C523 C 0.6587 0.60306 0.4325 0.0
C524 C 0.63294 0.60782 0.44102 0.0
C525 C 0.6145 0.59723 0.41096 0.0
C526 C 0.69823 0.65696 0.48219 0.0
C527 C 0.72044 0.64403 0.49582 0.0
C528 C 0.67734 0.64342 0.46453 0.0
C529 C 0.67841 0.6168 0.46013 0.0
C530 C 0.6997 0.60378 0.47771 0.0
C531 C 0.72043 0.61724 0.49573 0.0
H532 H 0.16111 0.90275 0.54239 0.0
H533 H 0.13579 0.85044 0.65343 0.0
H534 H 0.14378 0.93816 0.58956 0.0
H535 H 0.11845 0.88563 0.69954 0.0
H536 H 0.06067 0.9533 0.72216 0.0
H537 H 0.08142 0.91688 0.68392 0.0
H538 H 0.15121 0.95949 0.67337 0.0
H539 H 0.13094 0.99565 0.71201 0.0
C540 C 0.15213 0.89879 0.57686 0.0
C541 C 0.14985 0.87372 0.59391 0.0
C542 C 0.14225 0.91904 0.60386 0.0
C543 C 0.12966 0.9145 0.64798 0.0
C544 C 0.12784 0.88958 0.66544 0.0
C545 C 0.13797 0.86946 0.63897 0.0
C546 C 0.08056 0.95474 0.71264 0.0
C547 C 0.094 0.97751 0.71996 0.0
C548 C 0.09241 0.93393 0.69064 0.0
C549 C 0.11778 0.93562 0.6751 0.0
C550 C 0.13152 0.95789 0.68431 0.0
C551 C 0.11986 0.97851 0.70685 0.0
H552 H 0.90027 0.3714 0.88799 0.0
H553 H 0.84328 0.41901 0.82072 0.0
H554 H 0.86846 0.35405 0.94233 0.0
H555 H 0.81133 0.40144 0.87589 0.0
H556 H 0.76602 0.38025 0.01006 0.0
H557 H 0.80157 0.39996 0.96802 0.0
H558 H 0.82963 0.32581 0.92801 0.0
H559 H 0.79394 0.30587 0.96956 0.0
C560 C 0.881 0.3784 0.88499 0.0
C561 C 0.87431 0.39663 0.84977 0.0
C562 C 0.8628 0.36831 0.91613 0.0
C563 C 0.83754 0.37641 0.91326 0.0
C564 C 0.83082 0.39508 0.87904 0.0
C565 C 0.84903 0.405 0.84732 0.0
C566 C 0.78003 0.36803 -0.0067 0.0
C567 C 0.77691 0.34142 0.9927 0.0
C568 C 0.80024 0.3794 0.96886 0.0
C569 C 0.81799 0.36441 0.94413 0.0
C570 C 0.81611 0.33779 0.94679 0.0
C571 C 0.79572 0.32639 0.97075 0.0
H572 H 0.36018 0.00643 0.23786 0.0
H573 H 0.4342 0.04013 0.21542 0.0
H574 H 0.34031 0.04335 0.20072 0.0
H575 H 0.41407 0.0772 0.17851 0.0
H576 H 0.36659 0.14746 0.14294 0.0
H577 H 0.38378 0.11385 0.19379 0.0
H578 H 0.34109 0.05812 0.11295 0.0
H579 H 0.32374 0.09177 0.06159 0.0
C580 C 0.37224 0.02191 0.22592 0.0
C581 C 0.39887 0.02012 0.22901 0.0
C582 C 0.36079 0.04297 0.20437 0.0
C583 C 0.37567 0.06286 0.18598 0.0
C584 C 0.40215 0.06207 0.1924 0.0
C585 C 0.41367 0.04086 0.21366 0.0
C586 C 0.36059 0.12809 0.13611 0.0
C587 C 0.34378 0.12231 0.09795 0.0
C588 C 0.37059 0.10886 0.16522 0.0
C589 C 0.3638 0.08345 0.15728 0.0
C590 C 0.34646 0.07765 0.12012 0.0
C591 C 0.33663 0.09688 0.09056 0.0
H592 H 0.3484 0.38457 0.74161 0.0
H593 H 0.3819 0.42096 0.61661 0.0
H594 H 0.31885 0.36198 0.68855 0.0
H595 H 0.35217 0.39863 0.56389 0.0
H596 H 0.27225 0.37241 0.50265 0.0
H597 H 0.30468 0.39568 0.54727 0.0
H598 H 0.3252 0.327 0.62342 0.0
H599 H 0.29313 0.30344 0.57815 0.0
C600 C 0.34914 0.38814 0.70301 0.0
C601 C 0.36763 0.40437 0.68329 0.0
C602 C 0.33246 0.37497 0.67261 0.0
C603 C 0.33365 0.37818 0.62208 0.0
C604 C 0.351 0.39566 0.60265 0.0
C605 C 0.36792 0.4085 0.63291 0.0
C606 C 0.28414 0.36203 0.52785 0.0
C607 C 0.27956 0.33616 0.53778 0.0
C608 C 0.30263 0.37545 0.55359 0.0
C609 C 0.31681 0.36328 0.58986 0.0
C610 C 0.31395 0.33696 0.59657 0.0
C611 C 0.29575 0.32344 0.57026 0.0
H612 H 0.84651 0.09327 0.49968 0.0
H613 H 0.81573 0.12682 0.36944 0.0
H614 H 0.8707 0.06318 0.4505 0.0
H615 H 0.84012 0.09708 0.32044 0.0
H616 H 0.86827 0.01966 0.25803 0.0
H617 H 0.84392 0.05196 0.30052 0.0
H618 H 0.90793 0.06634 0.39439 0.0
H619 H 0.93239 0.03386 0.35181 0.0
C620 C 0.84438 0.09377 0.46067 0.0
C621 C 0.82916 0.11233 0.4384 0.0
C622 C 0.85862 0.07691 0.43248 0.0
C623 C 0.85772 0.07816 0.38159 0.0
C624 C 0.8413 0.0957 0.35951 0.0
C625 C 0.82723 0.11263 0.3876 0.0
C626 C 0.87744 0.03023 0.28681 0.0
C627 C 0.90212 0.02388 0.30211 0.0
C628 C 0.86342 0.04866 0.31133 0.0
C629 C 0.87377 0.06114 0.35166 0.0
C630 C 0.89923 0.05647 0.36423 0.0
C631 C 0.91338 0.03816 0.33935 0.0
H632 H 0.1053 0.57104 0.10078 0.0
H633 H 0.14934 0.59052 0.22748 0.0
H634 H 0.13424 0.59616 0.05026 0.0
H635 H 0.17783 0.61592 0.17707 0.0
H636 H 0.21744 0.62036 0.98908 0.0
H637 H 0.18402 0.59558 0.02845 0.0
H638 H 0.16906 0.65817 0.12515 0.0
H639 H 0.2019 0.6833 0.08517 0.0
C640 C 0.12136 0.58036 0.11768 0.0
C641 C 0.12513 0.57874 0.16806 0.0
C642 C 0.13778 0.59479 0.08882 0.0
C643 C 0.15788 0.60829 0.11004 0.0
C644 C 0.16217 0.60598 0.16006 0.0
C645 C 0.1461 0.59116 0.18875 0.0
C646 C 0.20645 0.62916 0.01768 0.0
C647 C 0.21265 0.65365 0.03457 0.0
C648 C 0.18742 0.61492 0.04028 0.0
C649 C 0.17452 0.6248 0.08049 0.0
C650 C 0.17914 0.65001 0.0947 0.0
C651 C 0.1978 0.66445 0.07149 0.0
H652 H 0.63556 0.90296 -0.0024 0.0
H653 H 0.66214 0.86839 0.86511 0.0
H654 H 0.61429 0.93607 0.95045 0.0
H655 H 0.6411 0.90177 0.81811 0.0
H656 H 0.62205 0.9866 0.7678 0.0
H657 H 0.64382 0.9512 0.80753 0.0
H658 H 0.57612 0.93477 0.88978 0.0
H659 H 0.55413 0.96975 0.84964 0.0
C660 C 0.6373 0.90272 0.95851 0.0
C661 C 0.65057 0.8831 0.93508 0.0
C662 C 0.62486 0.92147 0.93154 0.0
C663 C 0.62581 0.92124 0.88067 0.0
C664 C 0.64003 0.90233 0.85727 0.0
C665 C 0.65208 0.88329 0.88419 0.0
C666 C 0.6116 0.97504 0.79346 0.0
C667 C 0.58638 0.98112 0.80571 0.0
C668 C 0.6241 0.95485 0.81628 0.0
C669 C 0.61177 0.94062 0.85232 0.0
C670 C 0.58617 0.94575 0.86264 0.0
C671 C 0.57351 0.96561 0.8392 0.0
H672 H 0.37824 0.19643 0.8699 0.0
H673 H 0.41221 0.1645 -0.00168 0.0
H674 H 0.41154 0.1773 0.82021 0.0
H675 H 0.44548 0.14508 0.94868 0.0
H676 H 0.46315 0.08025 0.84066 0.0
H677 H 0.43658 0.10826 0.88917 0.0
H678 H 0.45957 0.17239 0.80194 0.0
H679 H 0.48646 0.14439 0.75321 0.0
C680 C 0.39366 0.18643 0.88763 0.0
C681 C 0.39299 0.18213 0.93781 0.0
C682 C 0.41254 0.17529 0.85921 0.0
C683 C 0.4307 0.15931 0.88059 0.0
C684 C 0.43144 0.15707 0.93134 0.0
C685 C 0.41273 0.16852 0.95983 0.0
C686 C 0.46224 0.10022 0.83112 0.0
C687 C 0.47688 0.11005 0.79292 0.0
C688 C 0.44737 0.11633 0.85949 0.0
C689 C 0.44655 0.14256 0.84996 0.0
C690 C 0.46012 0.15227 0.81032 0.0
C691 C 0.47533 0.1362 0.78229 0.0
H692 H 0.57346 0.65526 0.22153 0.0
H693 H 0.60931 0.60069 0.12639 0.0
H694 H 0.5898 0.68984 0.17088 0.0
H695 H 0.62523 0.635 0.07634 0.0
H696 H 0.67705 0.7037 0.04255 0.0
H697 H 0.65759 0.66864 0.0867 0.0
H698 H 0.58585 0.70835 0.087 0.0
H699 H 0.60525 0.74358 0.04306 0.0
C700 C 0.58462 0.6506 0.18981 0.0
C701 C 0.5902 0.62516 0.17843 0.0
C702 C 0.59386 0.67038 0.16069 0.0
C703 C 0.60894 0.66508 0.11985 0.0
C704 C 0.614 0.63969 0.10796 0.0
C705 C 0.60473 0.62001 0.13673 0.0
C706 C 0.65704 0.70484 0.05132 0.0
C707 C 0.64276 0.72649 0.0392 0.0
C708 C 0.64588 0.68473 0.07663 0.0
C709 C 0.62024 0.68587 0.09061 0.0
C710 C 0.60574 0.70712 0.07726 0.0
C711 C 0.61683 0.72717 0.05161 0.0
H712 H 0.97635 0.85881 0.32816 0.0
H713 H 0.03479 0.91342 0.29235 0.0
H714 H 0.00762 0.8329 0.37129 0.0
H715 H 0.0661 0.88703 0.33456 0.0
H716 H 0.11652 0.81794 0.36214 0.0
H717 H 0.08142 0.83724 0.31836 0.0
H718 H 0.03935 0.8444 0.45162 0.0
H719 H 0.07504 0.82557 0.49649 0.0
C720 C -0.00406 0.86508 0.32886 0.0
C721 C 0.00323 0.88805 0.30653 0.0
C722 C 0.01368 0.85035 0.35388 0.0
C723 C 0.03908 0.85806 0.35602 0.0
C724 C 0.04652 0.88074 0.33307 0.0
C725 C 0.02869 0.89578 0.30898 0.0
C726 C 0.09965 0.82319 0.38224 0.0
C727 C 0.09873 0.8207 0.43299 0.0
C728 C 0.07964 0.83426 0.35706 0.0
C729 C 0.05808 0.84263 0.3819 0.0
C730 C 0.05598 0.8381 0.43192 0.0
C731 C 0.07628 0.82723 0.45746 0.0
H732 H 0.83808 0.29365 0.53225 0.0
H733 H 0.89178 0.23293 0.55783 0.0
H734 H 0.86652 0.32327 0.5741 0.0
H735 H 0.91966 0.26244 0.60057 0.0
H736 H 0.9277 0.32464 0.73566 0.0
H737 H 0.91048 0.2904 0.6846 0.0
H738 H 0.91538 0.33938 0.5595 0.0
H739 H 0.93294 0.37313 0.60989 0.0
C740 C 0.85601 0.28672 0.54623 0.0
C741 C 0.86275 0.26105 0.54133 0.0
C742 C 0.87225 0.3036 0.5701 0.0
C743 C 0.8952 0.29497 0.59038 0.0
C744 C 0.90208 0.26944 0.58517 0.0
C745 C 0.88616 0.2527 0.56038 0.0
C746 C 0.92631 0.32752 0.6969 0.0
C747 C 0.93152 0.3514 0.67657 0.0
C748 C 0.91625 0.30812 0.66782 0.0
C749 C 0.9112 0.31264 0.61849 0.0
C750 C 0.91882 0.33565 0.59754 0.0
C751 C 0.92905 0.3548 0.62628 0.0
H752 H 0.61436 0.81554 0.16243 0.0
H753 H 0.58554 0.85636 0.03839 0.0
H754 H 0.5822 0.83522 0.21361 0.0
H755 H 0.55316 0.87623 0.08983 0.0
H756 H 0.52671 0.93174 0.209 0.0
H757 H 0.5568 0.90869 0.15806 0.0
H758 H 0.53536 0.83825 0.22735 0.0
H759 H 0.50532 0.8612 0.27836 0.0
C760 C 0.60063 0.82823 0.14595 0.0
C761 C 0.60229 0.8344 0.09654 0.0
C762 C 0.5823 0.83954 0.17524 0.0
C763 C 0.56548 0.85753 0.15582 0.0
C764 C 0.5662 0.86268 0.1058 0.0
C765 C 0.58439 0.85104 0.07624 0.0
C766 C 0.52888 0.91143 0.21424 0.0
C767 C 0.51376 0.89831 0.24794 0.0
C768 C 0.54575 0.89819 0.18444 0.0
C769 C 0.54805 0.87164 0.18821 0.0
C770 C 0.5339 0.8587 0.22357 0.0
C771 C 0.51682 0.87187 0.25294 0.0
H772 H 0.34778 0.28916 0.0275 0.0
H773 H 0.30793 0.26452 0.89946 0.0
H774 H 0.3739 0.31726 0.97843 0.0
H775 H 0.33556 0.29035 0.84946 0.0
H776 H 0.37971 0.35393 0.77411 0.0
H777 H 0.35033 0.32739 0.81934 0.0
H778 H 0.40809 0.31545 0.92878 0.0
H779 H 0.43623 0.34421 0.88533 0.0
C780 C 0.34444 0.29004 0.98882 0.0
C781 C 0.32595 0.27459 0.96725 0.0
C782 C 0.35983 0.30567 0.96034 0.0
C783 C 0.35773 0.30549 0.90941 0.0
C784 C 0.33798 0.29121 0.88833 0.0
C785 C 0.322 0.27632 0.91707 0.0
C786 C 0.38621 0.34501 0.80723 0.0
C787 C 0.41015 0.35093 0.8263 0.0
C788 C 0.36932 0.32983 0.83349 0.0
C789 C 0.37637 0.31966 0.87879 0.0
C790 C 0.40139 0.32376 0.89528 0.0
C791 C 0.41788 0.33968 0.86982 0.0
H792 H 0.87255 0.17327 0.6625 0.0
H793 H 0.8986 0.13024 0.53905 0.0
H794 H 0.90427 0.15296 0.71325 0.0
H795 H 0.93101 0.10996 0.59012 0.0
H796 H 0.96115 0.05694 0.71052 0.0
H797 H 0.93037 0.0787 0.65883 0.0
H798 H 0.94974 0.15022 0.72626 0.0
H799 H 0.98003 0.12856 0.77831 0.0
C800 C 0.88551 0.15981 0.64604 0.0
C801 C 0.88319 0.15328 0.59693 0.0
C802 C 0.90368 0.14819 0.67511 0.0
C803 C 0.91993 0.12968 0.65579 0.0
C804 C 0.91842 0.12391 0.60607 0.0
C805 C 0.90023 0.13576 0.57671 0.0
C806 C 0.95833 0.0772 0.71516 0.0
C807 C 0.97289 0.09101 0.74875 0.0
C808 C 0.94108 0.08971 0.68492 0.0
C809 C 0.93792 0.1162 0.68807 0.0
C810 C 0.95171 0.12979 0.72305 0.0
C811 C 0.969 0.11735 0.75301 0.0
H812 H 0.10473 0.64257 0.28846 0.0
H813 H 0.08203 0.60235 0.41789 0.0
H814 H 0.12431 0.67571 0.33869 0.0
H815 H 0.10126 0.63545 0.46776 0.0
H816 H 0.11472 0.71761 0.53011 0.0
H817 H 0.09461 0.68366 0.48337 0.0
H818 H 0.16308 0.67495 0.3991 0.0
H819 H 0.18338 0.70866 0.44624 0.0
C820 C 0.10352 0.64111 0.32753 0.0
C821 C 0.09193 0.62 0.34941 0.0
C822 C 0.11493 0.65982 0.35616 0.0
C823 C 0.11444 0.65787 0.40695 0.0
C824 C 0.10188 0.63733 0.4287 0.0
C825 C 0.09091 0.61846 0.40019 0.0
C826 C 0.12565 0.70801 0.50236 0.0
C827 C 0.15065 0.71557 0.49202 0.0
C828 C 0.11412 0.68873 0.47554 0.0
C829 C 0.12724 0.67705 0.43735 0.0
C830 C 0.15252 0.68396 0.42806 0.0
C831 C 0.16423 0.70291 0.4555 0.0
H832 H 0.86154 0.65077 0.37101 0.0
H833 H 0.90796 0.66003 0.49911 0.0
H834 H 0.89625 0.62939 0.33047 0.0
H835 H 0.94328 0.63889 0.45703 0.0
H836 H 0.00415 0.62275 0.3323 0.0
H837 H 0.97143 0.64603 0.37653 0.0
H838 H 0.91824 0.58529 0.3494 0.0
H839 H 0.9511 0.56161 0.30571 0.0
C840 C 0.87925 0.64857 0.39052 0.0
C841 C 0.88178 0.65693 0.43879 0.0
C842 C 0.89909 0.63615 0.36714 0.0
C843 C 0.92219 0.63211 0.39092 0.0
C844 C 0.92549 0.6417 0.43808 0.0
C845 C 0.90535 0.65389 0.46202 0.0
C846 C 0.98544 0.61435 0.33556 0.0
C847 C 0.9801 0.59042 0.31498 0.0
C848 C 0.96685 0.62761 0.36132 0.0
C849 C 0.94241 0.61744 0.3663 0.0
C850 C 0.93699 0.59355 0.34583 0.0
C851 C 0.95574 0.58003 0.32084 0.0
H852 H 0.11029 0.2445 0.54001 0.0
H853 H 0.17902 0.21613 0.60646 0.0
H854 H 0.0852 0.21551 0.58979 0.0
H855 H 0.15382 0.18715 0.65611 0.0
H856 H 0.10059 0.15392 0.76846 0.0
H857 H 0.12126 0.18877 0.72432 0.0
H858 H 0.07987 0.1682 0.59514 0.0
H859 H 0.05948 0.13352 0.639 0.0
C860 C 0.12008 0.23198 0.56497 0.0
C861 C 0.14671 0.2325 0.56892 0.0
C862 C 0.10567 0.21545 0.59358 0.0
C863 C 0.11753 0.19929 0.62719 0.0
C864 C 0.14413 0.19971 0.63108 0.0
C865 C 0.15858 0.21604 0.60209 0.0
C866 C 0.09533 0.15746 0.73112 0.0
C867 C 0.07845 0.14113 0.70707 0.0
C868 C 0.10739 0.17713 0.7057 0.0
C869 C 0.10239 0.18096 0.65614 0.0
C870 C 0.08405 0.16578 0.63328 0.0
C871 C 0.07235 0.14596 0.65839 0.0
H872 H 0.5895 0.32818 0.977 0.0
H873 H 0.64289 0.37674 0.90203 0.0
H874 H 0.55488 0.34643 0.92831 0.0
H875 H 0.60883 0.39445 0.85403 0.0
H876 H 0.53781 0.43943 0.81297 0.0
H877 H 0.571 0.42176 0.86453 0.0
H878 H 0.54185 0.34615 0.83975 0.0
H879 H 0.5086 0.36364 0.78838 0.0
C880 C 0.59382 0.34272 0.95046 0.0
C881 C 0.61895 0.3508 0.94318 0.0
C882 C 0.57411 0.35305 0.92245 0.0
C883 C 0.57922 0.37187 0.88739 0.0
C884 C 0.60424 0.3802 0.88101 0.0
C885 C 0.62381 0.3698 0.90838 0.0
C886 C 0.53868 0.41901 0.81781 0.0
C887 C 0.52061 0.403 0.7961 0.0
C888 C 0.55761 0.40891 0.84761 0.0
C889 C 0.55884 0.38259 0.8565 0.0
C890 C 0.54109 0.36653 0.83421 0.0
C891 C 0.52225 0.37659 0.80422 0.0
H892 H 0.31564 0.7899 0.04443 0.0
H893 H 0.37485 0.73569 0.07745 0.0
H894 H 0.33895 0.82263 0.0891 0.0
H895 H 0.39777 0.76837 0.1229 0.0
H896 H 0.40581 0.83329 0.248 0.0
H897 H 0.38642 0.79771 0.20368 0.0
H898 H 0.38545 0.84289 0.07329 0.0
H899 H 0.40517 0.87788 0.11615 0.0
C900 C 0.3336 0.78501 0.0611 0.0
C901 C 0.34353 0.76034 0.05699 0.0
C902 C 0.34689 0.80367 0.08666 0.0
C903 C 0.37004 0.79785 0.10941 0.0
C904 C 0.37988 0.77319 0.10584 0.0
C905 C 0.36687 0.75465 0.07943 0.0
C906 C 0.40193 0.83543 0.2097 0.0
C907 C 0.40682 0.85858 0.18593 0.0
C908 C 0.3908 0.81513 0.18447 0.0
C909 C 0.38414 0.81789 0.13542 0.0
C910 C 0.39006 0.84052 0.11128 0.0
C911 C 0.40146 0.86051 0.13603 0.0
H912 H 0.14461 0.3522 0.66041 0.0
H913 H 0.09763 0.35187 0.53196 0.0
H914 H 0.11242 0.37614 0.7034 0.0
H915 H 0.06489 0.37562 0.57591 0.0
H916 H 0.02431 0.44052 0.65595 0.0
H917 H 0.0587 0.41913 0.61255 0.0
H918 H 0.0697 0.36888 0.73465 0.0
H919 H 0.03572 0.3903 0.77801 0.0
C920 C 0.12727 0.35704 0.64141 0.0
C921 C 0.12367 0.35011 0.5927 0.0
C922 C 0.10881 0.37074 0.66618 0.0
C923 C 0.08623 0.37786 0.64296 0.0
C924 C 0.08232 0.37065 0.59446 0.0
C925 C 0.10086 0.35677 0.56955 0.0
C926 C 0.03457 0.42536 0.67395 0.0
C927 C 0.02743 0.41712 0.72044 0.0
C928 C 0.05394 0.41287 0.64881 0.0
C929 C 0.06665 0.39217 0.67003 0.0
C930 C 0.06032 0.38483 0.71743 0.0
C931 C 0.04089 0.39713 0.7423 0.0
H932 H 0.80053 0.77747 0.45137 0.0
H933 H 0.87156 0.76481 0.5259 0.0
H934 H 0.82026 0.81166 0.40434 0.0
H935 H 0.89111 0.79906 0.47925 0.0
H936 H 0.90522 0.88086 0.42128 0.0
H937 H 0.88592 0.84717 0.46954 0.0
H938 H 0.85642 0.81261 0.33938 0.0
H939 H 0.87597 0.84644 0.29066 0.0
C940 C 0.82015 0.7824 0.45849 0.0
C941 C 0.83451 0.76862 0.49244 0.0
C942 C 0.8315 0.80166 0.43112 0.0
C943 C 0.85722 0.80772 0.43793 0.0
C944 C 0.87124 0.79471 0.47338 0.0
C945 C 0.86004 0.77521 0.50011 0.0
C946 C 0.89483 0.86592 0.4029 0.0
C947 C 0.89207 0.86618 0.35228 0.0
C948 C 0.88383 0.84668 0.43052 0.0
C949 C 0.86954 0.82752 0.40814 0.0
C950 C 0.86715 0.82742 0.35742 0.0
C951 C 0.87854 0.84652 0.32959 0.0
H952 H 0.39968 0.66058 0.04281 0.0
H953 H 0.3476 0.62746 0.14645 0.0
H954 H 0.43536 0.64305 0.0887 0.0
H955 H 0.38308 0.61032 0.19184 0.0
H956 H 0.45082 0.55722 0.22023 0.0
H957 H 0.4155 0.57663 0.17685 0.0
H958 H 0.45616 0.64788 0.17081 0.0
H959 H 0.49164 0.62857 0.21388 0.0
C960 C 0.39582 0.64972 0.07537 0.0
C961 C 0.37077 0.64532 0.09072 0.0
C962 C 0.41622 0.63981 0.10169 0.0
C963 C 0.41187 0.62522 0.14356 0.0
C964 C 0.38692 0.6212 0.15929 0.0
C965 C 0.3666 0.63117 0.1333 0.0
C966 C 0.45219 0.57707 0.20998 0.0
C967 C 0.47403 0.59134 0.22061 0.0
C968 C 0.43195 0.58817 0.18525 0.0
C969 C 0.4332 0.61371 0.17043 0.0
C970 C 0.45487 0.62808 0.18141 0.0
C971 C 0.47506 0.61705 0.20645 0.0
H972 H 0.56519 0.13155 0.90311 0.0
H973 H 0.60297 0.15868 0.77427 0.0
H974 H 0.58419 0.16597 0.94998 0.0
H975 H 0.62227 0.19315 0.82148 0.0
H976 H 0.67999 0.21935 0.93964 0.0
H977 H 0.65586 0.18972 0.88974 0.0
H978 H 0.58635 0.21456 0.95759 0.0
H979 H 0.6104 0.24443 0.00755 0.0
C980 C 0.57711 0.1453 0.88468 0.0
C981 C 0.58272 0.14255 0.83523 0.0
C982 C 0.58793 0.16496 0.91145 0.0
C983 C 0.60489 0.18195 0.88938 0.0
C984 C 0.60942 0.18007 0.83931 0.0
C985 C 0.59821 0.1606 0.81226 0.0
C986 C 0.6596 0.2183 0.94443 0.0
C987 C 0.64712 0.23412 0.97779 0.0
C988 C 0.64578 0.20162 0.91532 0.0
C989 C 0.61926 0.20019 0.91941 0.0
C990 C 0.6068 0.21543 0.95366 0.0
C991 C 0.62058 0.2324 0.98234 0.0
H992 H 0.2993 0.20155 0.19817 0.0
H993 H 0.23951 0.24178 0.1232 0.0
H994 H 0.27919 0.21139 0.27539 0.0
H995 H 0.22004 0.25256 0.20019 0.0
H996 H 0.18 0.25335 0.34555 0.0
H997 H 0.19749 0.23777 0.26909 0.0
H998 H 0.27343 0.2467 0.32605 0.0
H999 H 0.25616 0.26111 0.40214 0.0
C1000 C 0.28197 0.21263 0.19821 0.0
C1001 C 0.2711 0.22098 0.15459 0.0
C1002 C 0.27044 0.21836 0.24246 0.0
C1003 C 0.24801 0.23293 0.24415 0.0
C1004 C 0.23702 0.24097 0.20039 0.0
C1005 C 0.24834 0.23495 0.15617 0.0
C1006 C 0.2004 0.25178 0.34171 0.0
C1007 C 0.21661 0.25841 0.38008 0.0
C1008 C 0.21046 0.24297 0.29784 0.0
C1009 C 0.23692 0.24087 0.29134 0.0
C1010 C 0.25299 0.24745 0.32991 0.0
C1011 C 0.243 0.25594 0.37364 0.0
H1012 H 0.46152 0.50882 0.6494 0.0
H1013 H 0.48167 0.43616 0.58697 0.0
H1014 H 0.47359 0.53004 0.57462 0.0
H1015 H 0.49423 0.45757 0.51245 0.0
H1016 H 0.48868 0.49884 0.3708 0.0
H1017 H 0.47426 0.48013 0.44613 0.0
H1018 H 0.51137 0.54017 0.52614 0.0
H1019 H 0.52553 0.5594 0.4498 0.0
C1020 C 0.46857 0.49734 0.61977 0.0
C1021 C 0.47058 0.47072 0.62414 0.0
C1022 C 0.47564 0.50959 0.57705 0.0
C1023 C 0.48484 0.49551 0.53772 0.0
C1024 C 0.48684 0.46891 0.54198 0.0
C1025 C 0.47973 0.45663 0.58471 0.0
C1026 C 0.4937 0.50819 0.40442 0.0
C1027 C 0.50852 0.53043 0.40452 0.0
C1028 C 0.48554 0.49735 0.44759 0.0
C1029 C 0.49209 0.50838 0.49205 0.0
C1030 C 0.506 0.53127 0.4923 0.0
C1031 C 0.51409 0.54229 0.44875 0.0
H1032 H 0.1802 0.76075 0.69316 0.0
H1033 H 0.25299 0.78197 0.6329 0.0
H1034 H 0.20116 0.74811 0.76814 0.0
H1035 H 0.27374 0.76979 0.70796 0.0
H1036 H 0.30317 0.71553 0.82792 0.0
H1037 H 0.28362 0.73102 0.75306 0.0
H1038 H 0.22372 0.76618 0.83633 0.0
H1039 H 0.24277 0.75045 0.91038 0.0
C1040 C 0.20057 0.76304 0.6961 0.0
C1041 C 0.21489 0.77224 0.65697 0.0
C1042 C 0.2126 0.75583 0.73905 0.0
C1043 C 0.23914 0.75783 0.74378 0.0
C1044 C 0.25335 0.7676 0.70509 0.0
C1045 C 0.24137 0.77473 0.66219 0.0
C1046 C 0.28598 0.72677 0.8301 0.0
C1047 C 0.27437 0.73149 0.87493 0.0
C1048 C 0.27479 0.73567 0.78734 0.0
C1049 C 0.25194 0.74955 0.78887 0.0
C1050 C 0.24097 0.75504 0.83388 0.0
C1051 C 0.252 0.74609 0.87633 0.0
H1052 H 0.01898 0.48336 0.147 0.0
H1053 H 0.00251 0.55932 0.09592 0.0
H1054 H 0.00409 0.46583 0.07132 0.0
H1055 H 0.98659 0.5415 0.01993 0.0
H1056 H 0.98986 0.50207 0.87187 0.0
H1057 H 0.00153 0.52112 0.94857 0.0
H1058 H 0.96742 0.45779 0.02446 0.0
H1059 H 0.95655 0.43813 0.94715 0.0
C1060 C 0.01187 0.49637 0.11976 0.0
C1061 C 0.01191 0.52281 0.12761 0.0
C1062 C 0.00311 0.48622 0.07634 0.0
C1063 C 0.9939 0.50217 0.03958 0.0
C1064 C 0.9938 0.52867 0.04734 0.0
C1065 C 0.00285 0.53891 0.09088 0.0
C1066 C 0.98473 0.49218 0.90488 0.0
C1067 C 0.97239 0.46845 0.90336 0.0
C1068 C 0.99127 0.50327 0.94898 0.0
C1069 C 0.98544 0.49105 0.99279 0.0
C1070 C 0.97259 0.46755 0.99135 0.0
C1071 C 0.96628 0.45628 0.94709 0.0
H1072 H 0.67939 0.77071 0.83156 0.0
H1073 H 0.75189 0.77501 0.90477 0.0
H1074 H 0.70078 0.75413 0.75959 0.0
H1075 H 0.77275 0.75762 0.83456 0.0
H1076 H 0.80652 0.74582 0.68433 0.0
H1077 H 0.78579 0.76523 0.75427 0.0
H1078 H 0.721 0.71581 0.73411 0.0
H1079 H 0.74133 0.69726 0.66346 0.0
C1080 C 0.6998 0.76824 0.83232 0.0
C1081 C 0.71378 0.77403 0.87415 0.0
C1082 C 0.71206 0.75852 0.79129 0.0
C1083 C 0.73851 0.7543 0.79144 0.0
C1084 C 0.75247 0.76084 0.83279 0.0
C1085 C 0.74033 0.77068 0.87339 0.0
C1086 C 0.78806 0.73887 0.6955 0.0
C1087 C 0.77553 0.72008 0.66859 0.0
C1088 C 0.77608 0.75004 0.73539 0.0
C1089 C 0.75151 0.74234 0.74944 0.0
C1090 C 0.73956 0.72274 0.72356 0.0
C1091 C 0.75137 0.71185 0.68349 0.0
H1092 H 0.68351 0.26137 0.19693 0.0
H1093 H 0.7579 0.27141 0.13342 0.0
H1094 H 0.70348 0.24606 0.27156 0.0
H1095 H 0.77754 0.25697 0.20747 0.0
H1096 H 0.80595 0.20789 0.33068 0.0
H1097 H 0.78451 0.22002 0.25567 0.0
H1098 H 0.72845 0.2615 0.33812 0.0
H1099 H 0.74927 0.24886 0.41261 0.0
C1100 C 0.70403 0.26043 0.1989 0.0
C1101 C 0.71901 0.2675 0.15906 0.0
C1102 C 0.7155 0.25173 0.24163 0.0
C1103 C 0.74215 0.25011 0.24537 0.0
C1104 C 0.757 0.25737 0.20559 0.0
C1105 C 0.74563 0.26587 0.16308 0.0
C1106 C 0.7891 0.21964 0.33268 0.0
C1107 C 0.77938 0.22739 0.37761 0.0
C1108 C 0.7768 0.22662 0.28975 0.0
C1109 C 0.75467 0.24169 0.29089 0.0
C1110 C 0.7451 0.24949 0.33587 0.0
C1111 C 0.75724 0.24238 0.37863 0.0
H1112 H 0.0118 0.05646 0.95261 0.0
H1113 H 0.02833 0.98265 0.8914 0.0
H1114 H -0.00382 0.036 0.02591 0.0
H1115 H 0.01329 0.96228 0.96515 0.0
H1116 H 0.95792 0.93503 0.08471 0.0
H1117 H 0.97437 0.95416 0.01011 0.0
H1118 H 0.01151 0.01256 0.09432 0.0
H1119 H 0.99478 0.99405 0.16791 0.0
C1120 C 0.0124 0.03591 0.95496 0.0
C1121 C 0.02133 0.02125 0.91607 0.0
C1122 C 0.00349 0.02415 -0.00296 0.0
C1123 C 0.00345 -0.00253 0.00136 0.0
C1124 C 0.01267 0.98283 0.96271 0.0
C1125 C 0.02149 0.99457 0.92057 0.0
C1126 C 0.96969 0.95187 0.08713 0.0
C1127 C 0.97476 0.96314 0.13219 0.0
C1128 C 0.97917 0.9628 0.04449 0.0
C1129 C 0.99402 0.98508 0.04626 0.0
C1130 C -0.00036 0.9958 0.09149 0.0
C1131 C 0.9901 0.98505 0.13379 0.0
H1132 H 0.50056 0.99559 0.66579 0.0
H1133 H 0.52191 0.06014 0.57752 0.0
H1134 H 0.48378 0.97424 0.59509 0.0
H1135 H 0.50559 0.03822 0.50602 0.0
H1136 H 0.45011 0.00478 0.3986 0.0
H1137 H 0.46572 0.02538 0.47136 0.0
H1138 H 0.49618 0.95369 0.52124 0.0
H1139 H 0.4799 0.93283 0.44842 0.0
C1140 C 0.5019 0.00522 0.6312 0.0
C1141 C 0.5126 0.02972 0.62748 0.0
C1142 C 0.49236 0.99281 0.59051 0.0
C1143 C 0.4933 0.00445 0.54486 0.0
C1144 C 0.50421 0.02885 0.54086 0.0
C1145 C 0.5137 0.04138 0.58177 0.0
C1146 C 0.45995 0.99331 0.42528 0.0
C1147 C 0.46389 0.96716 0.41766 0.0
C1148 C 0.46911 0.00522 0.46681 0.0
C1149 C 0.4826 0.99133 0.50176 0.0
C1150 C 0.48576 0.96495 0.49508 0.0
C1151 C 0.4764 0.95294 0.45347 0.0
H1152 H 0.26796 0.30449 0.65207 0.0
H1153 H 0.19544 0.28611 0.7149 0.0
H1154 H 0.28894 0.27564 0.7086 0.0
H1155 H 0.21622 0.25865 0.77381 0.0
H1156 H 0.24781 0.18657 0.82391 0.0
H1157 H 0.23308 0.21759 0.7648 0.0
H1158 H 0.30165 0.26144 0.78644 0.0
H1159 H 0.31698 0.22911 0.84296 0.0
C1160 C 0.25673 0.29536 0.67987 0.0
C1161 C 0.23017 0.2974 0.67925 0.0
C1162 C 0.26867 0.27857 0.71196 0.0
C1163 C 0.25414 0.26393 0.74441 0.0
C1164 C 0.22789 0.26871 0.7478 0.0
C1165 C 0.21599 0.28501 0.71507 0.0
C1166 C 0.26025 0.20213 0.81387 0.0
C1167 C 0.28355 0.20543 0.83739 0.0
C1168 C 0.25155 0.22037 0.78119 0.0
C1169 C 0.26566 0.24267 0.77251 0.0
C1170 C 0.29015 0.24467 0.79253 0.0
C1171 C 0.2991 0.22602 0.82446 0.0
H1172 H 0.50023 0.42946 0.91744 0.0
H1173 H 0.43772 0.47616 0.9649 0.0
H1174 H 0.5274 0.44794 0.9794 0.0
H1175 H 0.46471 0.4943 0.02826 0.0
H1176 H 0.52387 0.5487 0.07844 0.0
H1177 H 0.49946 0.52452 0.01942 0.0
H1178 H 0.5382 0.45586 0.06354 0.0
H1179 H 0.56323 0.48049 0.12164 0.0
C1180 C 0.492 0.44284 0.94283 0.0
C1181 C 0.46695 0.4515 0.93655 0.0
C1182 C 0.50763 0.45357 0.97807 0.0
C1183 C 0.49844 0.47316 0.00765 0.0
C1184 C 0.47252 0.47975 0.00487 0.0
C1185 C 0.45685 0.46899 0.96946 0.0
C1186 C 0.52795 0.52864 0.07382 0.0
C1187 C 0.54547 0.51643 0.10419 0.0
C1188 C 0.51351 0.51466 0.04106 0.0
C1189 C 0.51614 0.48811 0.03829 0.0
C1190 C 0.5355 0.47625 0.06527 0.0
C1191 C 0.55014 0.49037 0.09795 0.0
H1192 H 0.17667 0.7412 0.35889 0.0
H1193 H 0.22656 0.803 0.3198 0.0
H1194 H 0.19548 0.71465 0.29678 0.0
H1195 H 0.24473 0.77681 0.25537 0.0
H1196 H 0.29722 0.71725 0.2 0.0
H1197 H 0.27356 0.742 0.25915 0.0
H1198 H 0.20445 0.70377 0.21593 0.0
H1199 H 0.22868 0.67807 0.15868 0.0
C1200 C 0.19093 0.74946 0.33531 0.0
C1201 C 0.2004 0.77402 0.34429 0.0
C1202 C 0.2018 0.73418 0.29981 0.0
C1203 C 0.22222 0.74328 0.27216 0.0
C1204 C 0.22963 0.76894 0.27735 0.0
C1205 C 0.21884 0.78421 0.31336 0.0
C1206 C 0.27716 0.71342 0.20484 0.0
C1207 C 0.26472 0.69577 0.1751 0.0
C1208 C 0.26344 0.72807 0.23765 0.0
C1209 C 0.23692 0.72565 0.24087 0.0
C1210 C 0.22482 0.70633 0.21411 0.0
C1211 C 0.2387 0.69134 0.18173 0.0
H1212 H 0.03397 0.54573 0.46268 0.0
H1213 H 0.05511 0.47279 0.4045 0.0
H1214 H 0.00608 0.52495 0.52087 0.0
H1215 H 0.02622 0.45175 0.46102 0.0
H1216 H 0.98073 0.42602 0.59936 0.0
H1217 H 0.0127 0.44096 0.54204 0.0
H1218 H 0.96536 0.50577 0.50838 0.0
H1219 H 0.93416 0.49127 0.56758 0.0
C1220 C 0.03345 0.52513 0.46391 0.0
C1221 C 0.04673 0.51078 0.42958 0.0
C1222 C 0.01694 0.51322 0.4962 0.0
C1223 C 0.01306 0.48677 0.49404 0.0
C1224 C 0.02853 0.47218 0.46325 0.0
C1225 C 0.04537 0.48415 0.43135 0.0
C1226 C 0.97666 0.44274 0.57771 0.0
C1227 C 0.95489 0.45734 0.58703 0.0
C1228 C 0.99515 0.45153 0.54547 0.0
C1229 C 0.99197 0.47501 0.52191 0.0
C1230 C 0.96879 0.48806 0.52732 0.0
C1231 C 0.95053 0.47944 0.56006 0.0
H1232 H 0.67993 0.76051 0.1969 0.0
H1233 H 0.74591 0.80728 0.17259 0.0
H1234 H 0.70315 0.73578 0.25695 0.0
H1235 H 0.76997 0.78161 0.22989 0.0
H1236 H 0.79697 0.74514 0.37139 0.0
H1237 H 0.77732 0.77017 0.30842 0.0
H1238 H 0.73414 0.70432 0.26305 0.0
H1239 H 0.75285 0.67965 0.32934 0.0
C1240 C 0.69929 0.76583 0.20552 0.0
C1241 C 0.71104 0.78605 0.1811 0.0
C1242 C 0.71287 0.75125 0.23887 0.0
C1243 C 0.73874 0.75614 0.24757 0.0
C1244 C 0.75008 0.77726 0.22462 0.0
C1245 C 0.73626 0.79222 0.19209 0.0
C1246 C 0.78375 0.73581 0.3471 0.0
C1247 C 0.77617 0.71055 0.3555 0.0
C1248 C 0.77242 0.75023 0.31079 0.0
C1249 C 0.75354 0.73959 0.28119 0.0
C1250 C 0.74795 0.71343 0.28631 0.0
C1251 C 0.75909 0.69903 0.32343 0.0
H1252 H 0.75539 0.19062 0.70131 0.0
H1253 H 0.81544 0.24575 0.68365 0.0
H1254 H 0.73649 0.21712 0.76441 0.0
H1255 H 0.79591 0.27292 0.74352 0.0
H1256 H 0.76206 0.30928 0.87913 0.0
H1257 H 0.7846 0.28251 0.82163 0.0
H1258 H 0.71278 0.25473 0.76674 0.0
H1259 H 0.69059 0.28036 0.8268 0.0
C1260 C 0.76491 0.20802 0.71188 0.0
C1261 C 0.78674 0.21622 0.68741 0.0
C1262 C 0.75378 0.22357 0.74713 0.0
C1263 C 0.76418 0.24766 0.75804 0.0
C1264 C 0.78724 0.25464 0.73633 0.0
C1265 C 0.79849 0.239 0.70186 0.0
C1266 C 0.75118 0.29823 0.8533 0.0
C1267 C 0.72465 0.29714 0.85658 0.0
C1268 C 0.76406 0.28257 0.82069 0.0
C1269 C 0.75057 0.26586 0.79016 0.0
C1270 C 0.72387 0.2666 0.79078 0.0
C1271 C 0.71106 0.28183 0.82412 0.0
H1272 H 0.97566 0.9419 0.45298 0.0
H1273 H 0.92738 0.00646 0.4248 0.0
H1274 H 0.00027 0.96694 0.51015 0.0
H1275 H 0.95286 0.03223 0.48002 0.0
H1276 H 0.99071 0.05935 0.62312 0.0
H1277 H 0.96513 0.04006 0.56015 0.0
H1278 H 0.03121 -0.00042 0.50827 0.0
H1279 H 0.05654 0.01806 0.57363 0.0
C1280 C 0.97004 0.96139 0.45989 0.0
C1281 C 0.94967 0.97229 0.43458 0.0
C1282 C 0.98452 0.97595 0.49169 0.0
C1283 C 0.97921 0.00191 0.49837 0.0
C1284 C 0.95766 0.01235 0.47554 0.0
C1285 C 0.94287 -0.00243 0.44423 0.0
C1286 C -5e-05 0.04694 0.59721 0.0
C1287 C 0.02549 0.03985 0.60355 0.0
C1288 C 0.98523 0.03581 0.56109 0.0
C1289 C -0.00414 0.01757 0.53009 0.0
C1290 C 0.02222 0.01288 0.53276 0.0
C1291 C 0.03694 0.02388 0.56941 0.0
H1292 H 0.50805 0.06416 0.94839 0.0
H1293 H 0.5586 0.00118 0.92217 0.0
H1294 H 0.48532 0.03916 0.00868 0.0
H1295 H 0.53499 0.97538 0.97993 0.0
H1296 H 0.50055 0.94544 0.12113 0.0
H1297 H 0.52443 0.96751 0.05941 0.0
H1298 H 0.45591 0.00572 0.01272 0.0
H1299 H 0.43222 0.98463 0.07747 0.0
C1300 C 0.51459 0.04508 0.95649 0.0
C1301 C 0.5352 0.03463 0.93124 0.0
C1302 C 0.5012 0.0305 0.99007 0.0
C1303 C 0.50777 0.00494 -0.00169 0.0
C1304 C 0.52935 0.99499 0.97482 0.0
C1305 C 0.5431 0.00982 0.94198 0.0
C1306 C 0.49044 0.95823 0.09711 0.0
C1307 C 0.46459 0.96369 0.10466 0.0
C1308 C 0.50419 0.97087 0.06145 0.0
C1309 C 0.49233 0.98897 0.03172 0.0
C1310 C 0.46587 0.99255 0.03614 0.0
C1311 C 0.45211 0.98008 0.0725 0.0
loop_
_geom_bond_atom_site_label_1
_geom_bond_atom_site_label_2
_geom_bond_distance
_geom_bond_site_symmetry_2
_ccdc_geom_bond_type
Sc0 O3 2.025 . S
Sc0 O10 2.105 . S
Sc0 O13 2.105 . S
Sc0 O16 2.105 . S
Sc0 O19 2.105 1_554 S
Sc1 O3 2.025 1_556 S
Sc1 O11 2.105 . S
Sc1 O15 2.105 1_556 S
Sc1 O17 2.105 . S
Sc1 O21 2.105 . S
Sc2 O3 2.025 . S
Sc2 O12 2.105 . S
Sc2 O14 2.105 . S
Sc2 O18 2.105 . S
Sc2 O20 2.105 . S
O3 Sc0 2.025 . S
O3 Sc1 2.025 1_554 S
O3 Sc2 2.025 . S
C4 O10 1.268 . S
C4 O20 1.268 . S
C5 O11 1.268 . S
C5 O19 1.268 . S
C6 O12 1.268 1_556 S
C6 O21 1.268 . S
C7 O13 1.268 . S
C7 O17 1.268 1_554 S
C8 O14 1.268 . S
C8 O16 1.268 . S
C9 O15 1.268 . S
C9 O18 1.268 . S
O10 Sc0 2.105 . S
O10 C4 1.268 . S
O11 Sc1 2.105 . S
O11 C5 1.268 . S
O12 Sc2 2.105 . S
O12 C6 1.268 1_554 S
O13 Sc0 2.105 . S
O13 C7 1.268 . S
O14 Sc2 2.105 . S
O14 C8 1.268 . S
O15 Sc1 2.105 1_554 S
O15 C9 1.268 . S
O16 Sc0 2.105 . S
O16 C8 1.268 . S
O17 Sc1 2.105 . S
O17 C7 1.268 1_556 S
O18 Sc2 2.105 . S
O18 C9 1.268 . S
O19 Sc0 2.105 1_556 S
O19 C5 1.268 . S
O20 Sc2 2.105 . S
O20 C4 1.268 . S
O21 Sc1 2.105 . S
O21 C6 1.268 . S
Sc22 O25 2.025 . S
Sc22 O32 2.105 . S
Sc22 O35 2.105 . S
Sc22 O38 2.105 . S
Sc22 O41 2.105 . S
Sc23 O25 2.025 . S
Sc23 O33 2.105 . S
Sc23 O37 2.105 . S
Sc23 O39 2.105 . S
Sc23 O43 2.105 . S
Sc24 O25 2.025 . S
Sc24 O34 2.105 . S
Sc24 O36 2.105 . S
Sc24 O40 2.105 . S
Sc24 O42 2.105 . S
O25 Sc22 2.025 . S
O25 Sc23 2.025 . S
O25 Sc24 2.025 . S
C26 O32 1.268 . S
C26 O42 1.268 . S
C27 O33 1.268 . S
C27 O41 1.268 . S
C28 O34 1.268 . S
C28 O43 1.268 . S
C29 O35 1.268 . S
C29 O39 1.268 . S
C30 O36 1.268 . S
C30 O38 1.268 . S
C31 O37 1.268 . S
C31 O40 1.268 . S
O32 Sc22 2.105 . S
O32 C26 1.268 . S
O33 Sc23 2.105 . S
O33 C27 1.268 . S
O34 Sc24 2.105 . S
O34 C28 1.268 . S
O35 Sc22 2.105 . S
O35 C29 1.268 . S
O36 Sc24 2.105 . S
O36 C30 1.268 . S
O37 Sc23 2.105 . S
O37 C31 1.268 . S
O38 Sc22 2.105 . S
O38 C30 1.268 . S
O39 Sc23 2.105 . S
O39 C29 1.268 . S
O40 Sc24 2.105 . S
O40 C31 1.268 . S
O41 Sc22 2.105 . S
O41 C27 1.268 . S
O42 Sc24 2.105 . S
O42 C26 1.268 . S
O43 Sc23 2.105 . S
O43 C28 1.268 . S
Sc44 O47 2.025 . S
Sc44 O54 2.105 . S
Sc44 O57 2.105 . S
Sc44 O60 2.105 . S
Sc44 O63 2.105 . S
Sc45 O47 2.025 . S
Sc45 O55 2.105 . S
Sc45 O59 2.105 . S
Sc45 O61 2.105 . S
Sc45 O65 2.105 . S
Sc46 O47 2.025 . S
Sc46 O56 2.105 . S
Sc46 O58 2.105 . S
Sc46 O62 2.105 . S
Sc46 O64 2.105 . S
O47 Sc44 2.025 . S
O47 Sc45 2.025 . S
O47 Sc46 2.025 . S
C48 O54 1.268 . S
C48 O64 1.268 . S
C49 O55 1.268 . S
C49 O63 1.268 . S
C50 O56 1.268 . S
C50 O65 1.268 . S
C51 O57 1.268 . S
C51 O61 1.268 . S
C52 O58 1.268 . S
C52 O60 1.268 . S
C53 O59 1.268 . S
C53 O62 1.268 . S
O54 Sc44 2.105 . S
O54 C48 1.268 . S
O55 Sc45 2.105 . S
O55 C49 1.268 . S
O56 Sc46 2.105 . S
O56 C50 1.268 . S
O57 Sc44 2.105 . S
O57 C51 1.268 . S
O58 Sc46 2.105 . S
O58 C52 1.268 . S
O59 Sc45 2.105 . S
O59 C53 1.268 . S
O60 Sc44 2.105 . S
O60 C52 1.268 . S
O61 Sc45 2.105 . S
O61 C51 1.268 . S
O62 Sc46 2.105 . S
O62 C53 1.268 . S
O63 Sc44 2.105 . S
O63 C49 1.268 . S
O64 Sc46 2.105 . S
O64 C48 1.268 . S
O65 Sc45 2.105 . S
O65 C50 1.268 . S
Sc66 O69 2.025 . S
Sc66 O76 2.102 1_655 S
Sc66 O79 2.105 . S
Sc66 O82 2.105 . S
Sc66 O85 2.105 . S
Sc67 O69 2.025 . S
Sc67 O77 2.105 . S
Sc67 O81 2.105 . S
Sc67 O83 2.105 . S
Sc67 O87 2.105 . S
Sc68 O69 2.025 . S
Sc68 O78 2.105 . S
Sc68 O80 2.105 . S
Sc68 O84 2.105 . S
Sc68 O86 2.105 . S
O69 Sc66 2.025 . S
O69 Sc67 2.025 . S
O69 Sc68 2.025 . S
C70 O76 1.268 . S
C70 O86 1.268 1_455 S
C71 O77 1.268 . S
C71 O85 1.268 . S
C72 O78 1.268 . S
C72 O87 1.268 . S
C73 O79 1.268 . S
C73 O83 1.268 . S
C74 O80 1.268 . S
C74 O82 1.268 . S
C75 O81 1.268 . S
C75 O84 1.268 . S
O76 Sc66 2.102 1_455 S
O76 C70 1.268 . S
O77 Sc67 2.105 . S
O77 C71 1.268 . S
O78 Sc68 2.105 . S
O78 C72 1.268 . S
O79 Sc66 2.105 . S
O79 C73 1.268 . S
O80 Sc68 2.105 . S
O80 C74 1.268 . S
O81 Sc67 2.105 . S
O81 C75 1.268 . S
O82 Sc66 2.105 . S
O82 C74 1.268 . S
O83 Sc67 2.105 . S
O83 C73 1.268 . S
O84 Sc68 2.105 . S
O84 C75 1.268 . S
O85 Sc66 2.105 . S
O85 C71 1.268 . S
O86 Sc68 2.105 . S
O86 C70 1.268 1_655 S
O87 Sc67 2.105 . S
O87 C72 1.268 . S
Sc88 O91 2.025 . S
Sc88 O98 2.105 1_554 S
Sc88 O101 2.105 . S
Sc88 O104 2.105 . S
Sc88 O107 2.105 . S
Sc89 O91 2.025 . S
Sc89 O99 2.105 . S
Sc89 O103 2.105 . S
Sc89 O105 2.105 . S
Sc89 O109 2.105 . S
Sc90 O91 2.025 1_556 S
Sc90 O100 2.105 . S
Sc90 O102 2.105 1_556 S
Sc90 O106 2.105 1_556 S
Sc90 O108 2.105 . S
O91 Sc88 2.025 . S
O91 Sc89 2.025 . S
O91 Sc90 2.025 1_554 S
C92 O98 1.268 . S
C92 O108 1.268 . S
C93 O99 1.268 . S
C93 O107 1.268 . S
C94 O100 1.268 . S
C94 O109 1.268 1_556 S
C95 O101 1.268 . S
C95 O105 1.268 . S
C96 O102 1.268 . S
C96 O104 1.268 . S
C97 O103 1.268 . S
C97 O106 1.268 . S
O98 Sc88 2.105 1_556 S
O98 C92 1.268 . S
O99 Sc89 2.105 . S
O99 C93 1.268 . S
O100 Sc90 2.105 . S
O100 C94 1.268 . S
O101 Sc88 2.105 . S
O101 C95 1.268 . S
O102 Sc90 2.105 1_554 S
O102 C96 1.268 . S
O103 Sc89 2.105 . S
O103 C97 1.268 . S
O104 Sc88 2.105 . S
O104 C96 1.268 . S
O105 Sc89 2.105 . S
O105 C95 1.268 . S
O106 Sc90 2.105 1_554 S
O106 C97 1.268 . S
O107 Sc88 2.105 . S
O107 C93 1.268 . S
O108 Sc90 2.105 . S
O108 C92 1.268 . S
O109 Sc89 2.105 . S
O109 C94 1.268 1_554 S
Sc110 O113 2.025 . S
Sc110 O120 2.105 . S
Sc110 O123 2.105 . S
Sc110 O126 2.105 . S
Sc110 O129 2.105 . S
Sc111 O113 2.025 . S
Sc111 O121 2.105 . S
Sc111 O125 2.105 . S
Sc111 O127 2.105 . S
Sc111 O131 2.105 . S
Sc112 O113 2.025 . S
Sc112 O122 2.105 . S
Sc112 O124 2.105 . S
Sc112 O128 2.105 . S
Sc112 O130 2.105 . S
O113 Sc110 2.025 . S
O113 Sc111 2.025 . S
O113 Sc112 2.025 . S
C114 O120 1.268 . S
C114 O130 1.268 . S
C115 O121 1.268 . S
C115 O129 1.268 . S
C116 O122 1.268 . S
C116 O131 1.268 . S
C117 O123 1.268 . S
C117 O127 1.268 . S
C118 O124 1.268 . S
C118 O126 1.268 . S
C119 O125 1.268 . S
C119 O128 1.268 . S
O120 Sc110 2.105 . S
O120 C114 1.268 . S
O121 Sc111 2.105 . S
O121 C115 1.268 . S
O122 Sc112 2.105 . S
O122 C116 1.268 . S
O123 Sc110 2.105 . S
O123 C117 1.268 . S
O124 Sc112 2.105 . S
O124 C118 1.268 . S
O125 Sc111 2.105 . S
O125 C119 1.268 . S
O126 Sc110 2.105 . S
O126 C118 1.268 . S
O127 Sc111 2.105 . S
O127 C117 1.268 . S
O128 Sc112 2.105 . S
O128 C119 1.268 . S
O129 Sc110 2.105 . S
O129 C115 1.268 . S
O130 Sc112 2.105 . S
O130 C114 1.268 . S
O131 Sc111 2.105 . S
O131 C116 1.268 . S
Sc132 O135 2.025 . S
Sc132 O142 2.105 . S
Sc132 O145 2.105 . S
Sc132 O148 2.105 . S
Sc132 O151 2.105 . S
Sc133 O135 2.025 . S
Sc133 O143 2.105 . S
Sc133 O147 2.105 . S
Sc133 O149 2.105 . S
Sc133 O153 2.105 . S
Sc134 O135 2.025 . S
Sc134 O144 2.105 . S
Sc134 O146 2.105 . S
Sc134 O150 2.105 . S
Sc134 O152 2.105 . S
O135 Sc132 2.025 . S
O135 Sc133 2.025 . S
O135 Sc134 2.025 . S
C136 O142 1.268 . S
C136 O152 1.268 . S
C137 O143 1.268 . S
C137 O151 1.268 . S
C138 O144 1.268 . S
C138 O153 1.268 . S
C139 O145 1.268 . S
C139 O149 1.268 . S
C140 O146 1.268 . S
C140 O148 1.268 . S
C141 O147 1.268 . S
C141 O150 1.268 . S
O142 Sc132 2.105 . S
O142 C136 1.268 . S
O143 Sc133 2.105 . S
O143 C137 1.268 . S
O144 Sc134 2.105 . S
O144 C138 1.268 . S
O145 Sc132 2.105 . S
O145 C139 1.268 . S
O146 Sc134 2.105 . S
O146 C140 1.268 . S
O147 Sc133 2.105 . S
O147 C141 1.268 . S
O148 Sc132 2.105 . S
O148 C140 1.268 . S
O149 Sc133 2.105 . S
O149 C139 1.268 . S
O150 Sc134 2.105 . S
O150 C141 1.268 . S
O151 Sc132 2.105 . S
O151 C137 1.268 . S
O152 Sc134 2.105 . S
O152 C136 1.268 . S
O153 Sc133 2.105 . S
O153 C138 1.268 . S
Sc154 O157 2.025 . S
Sc154 O164 2.105 . S
Sc154 O167 2.105 . S
Sc154 O170 2.105 . S
Sc154 O173 2.105 . S
Sc155 O157 2.025 . S
Sc155 O165 2.105 . S
Sc155 O169 2.105 . S
Sc155 O171 2.105 . S
Sc155 O175 2.105 . S
Sc156 O157 2.025 . S
Sc156 O166 2.105 . S
Sc156 O168 2.105 . S
Sc156 O172 2.105 . S
Sc156 O174 2.102 1_455 S
O157 Sc154 2.025 . S
O157 Sc155 2.025 . S
O157 Sc156 2.025 . S
C158 O164 1.268 1_655 S
C158 O174 1.268 . S
C159 O165 1.268 . S
C159 O173 1.268 . S
C160 O166 1.268 . S
C160 O175 1.268 . S
C161 O167 1.268 . S
C161 O171 1.268 . S
C162 O168 1.268 . S
C162 O170 1.268 . S
C163 O169 1.268 . S
C163 O172 1.268 . S
O164 Sc154 2.105 . S
O164 C158 1.268 1_455 S
O165 Sc155 2.105 . S
O165 C159 1.268 . S
O166 Sc156 2.105 . S
O166 C160 1.268 . S
O167 Sc154 2.105 . S
O167 C161 1.268 . S
O168 Sc156 2.105 . S
O168 C162 1.268 . S
O169 Sc155 2.105 . S
O169 C163 1.268 . S
O170 Sc154 2.105 . S
O170 C162 1.268 . S
O171 Sc155 2.105 . S
O171 C161 1.268 . S
O172 Sc156 2.105 . S
O172 C163 1.268 . S
O173 Sc154 2.105 . S
O173 C159 1.268 . S
O174 Sc156 2.102 1_655 S
O174 C158 1.268 . S
O175 Sc155 2.105 . S
O175 C160 1.268 . S
Sc176 O179 2.025 . S
Sc176 O186 2.105 . S
Sc176 O189 2.105 . S
Sc176 O192 2.105 . S
Sc176 O195 2.105 . S
Sc177 O179 2.025 . S
Sc177 O187 2.105 . S
Sc177 O191 2.105 . S
Sc177 O193 2.105 . S
Sc177 O197 2.105 . S
Sc178 O179 2.025 . S
Sc178 O188 2.105 . S
Sc178 O190 2.105 . S
Sc178 O194 2.105 . S
Sc178 O196 2.105 . S
O179 Sc176 2.025 . S
O179 Sc177 2.025 . S
O179 Sc178 2.025 . S
C180 O186 1.268 . S
C180 O196 1.268 . S
C181 O187 1.268 . S
C181 O195 1.268 . S
C182 O188 1.268 . S
C182 O197 1.268 . S
C183 O189 1.268 . S
C183 O193 1.268 . S
C184 O190 1.268 . S
C184 O192 1.268 . S
C185 O191 1.268 . S
C185 O194 1.268 . S
O186 Sc176 2.105 . S
O186 C180 1.268 . S
O187 Sc177 2.105 . S
O187 C181 1.268 . S
O188 Sc178 2.105 . S
O188 C182 1.268 . S
O189 Sc176 2.105 . S
O189 C183 1.268 . S
O190 Sc178 2.105 . S
O190 C184 1.268 . S
O191 Sc177 2.105 . S
O191 C185 1.268 . S
O192 Sc176 2.105 . S
O192 C184 1.268 . S
O193 Sc177 2.105 . S
O193 C183 1.268 . S
O194 Sc178 2.105 . S
O194 C185 1.268 . S
O195 Sc176 2.105 . S
O195 C181 1.268 . S
O196 Sc178 2.105 . S
O196 C180 1.268 . S
O197 Sc177 2.105 . S
O197 C182 1.268 . S
Sc198 O201 2.025 . S
Sc198 O208 2.105 . S
Sc198 O211 2.105 . S
Sc198 O214 2.105 . S
Sc198 O217 2.105 . S
Sc199 O201 2.025 . S
Sc199 O209 2.105 . S
Sc199 O213 2.105 . S
Sc199 O215 2.105 . S
Sc199 O219 2.105 . S
Sc200 O201 2.025 . S
Sc200 O210 2.105 1_545 S
Sc200 O212 2.102 1_455 S
Sc200 O216 2.105 . S
Sc200 O218 2.105 . S
O201 Sc198 2.025 . S
O201 Sc199 2.025 . S
O201 Sc200 2.025 . S
C202 O208 1.268 . S
C202 O218 1.268 . S
C203 O209 1.268 . S
C203 O217 1.268 . S
C204 O210 1.268 . S
C204 O219 1.268 1_565 S
C205 O211 1.268 . S
C205 O215 1.268 . S
C206 O212 1.268 . S
C206 O214 1.268 1_655 S
C207 O213 1.268 . S
C207 O216 1.268 . S
O208 Sc198 2.105 . S
O208 C202 1.268 . S
O209 Sc199 2.105 . S
O209 C203 1.268 . S
O210 Sc200 2.105 1_565 S
O210 C204 1.268 . S
O211 Sc198 2.105 . S
O211 C205 1.268 . S
O212 Sc200 2.102 1_655 S
O212 C206 1.268 . S
O213 Sc199 2.105 . S
O213 C207 1.268 . S
O214 Sc198 2.105 . S
O214 C206 1.268 1_455 S
O215 Sc199 2.105 . S
O215 C205 1.268 . S
O216 Sc200 2.105 . S
O216 C207 1.268 . S
O217 Sc198 2.105 . S
O217 C203 1.268 . S
O218 Sc200 2.105 . S
O218 C202 1.268 . S
O219 Sc199 2.105 . S
O219 C204 1.268 1_545 S
Sc220 O223 2.025 . S
Sc220 O230 2.105 . S
Sc220 O233 2.105 . S
Sc220 O236 2.105 . S
Sc220 O239 2.105 . S
Sc221 O223 2.025 1_556 S
Sc221 O231 2.105 1_556 S
Sc221 O235 2.105 . S
Sc221 O237 2.105 . S
Sc221 O241 2.105 . S
Sc222 O223 2.025 . S
Sc222 O232 2.105 . S
Sc222 O234 2.105 . S
Sc222 O238 2.105 1_554 S
Sc222 O240 2.105 . S
O223 Sc220 2.025 . S
O223 Sc221 2.025 1_554 S
O223 Sc222 2.025 . S
C224 O230 1.268 . S
C224 O240 1.268 . S
C225 O231 1.268 . S
C225 O239 1.268 . S
C226 O232 1.268 . S
C226 O241 1.268 1_554 S
C227 O233 1.268 1_556 S
C227 O237 1.268 . S
C228 O234 1.268 . S
C228 O236 1.268 . S
C229 O235 1.268 . S
C229 O238 1.268 . S
O230 Sc220 2.105 . S
O230 C224 1.268 . S
O231 Sc221 2.105 1_554 S
O231 C225 1.268 . S
O232 Sc222 2.105 . S
O232 C226 1.268 . S
O233 Sc220 2.105 . S
O233 C227 1.268 1_554 S
O234 Sc222 2.105 . S
O234 C228 1.268 . S
O235 Sc221 2.105 . S
O235 C229 1.268 . S
O236 Sc220 2.105 . S
O236 C228 1.268 . S
O237 Sc221 2.105 . S
O237 C227 1.268 . S
O238 Sc222 2.105 1_556 S
O238 C229 1.268 . S
O239 Sc220 2.105 . S
O239 C225 1.268 . S
O240 Sc222 2.105 . S
O240 C224 1.268 . S
O241 Sc221 2.105 . S
O241 C226 1.268 1_556 S
Sc242 O245 2.025 . S
Sc242 O252 2.105 . S
Sc242 O255 2.105 1_565 S
Sc242 O258 2.105 . S
Sc242 O261 2.105 . S
Sc243 O245 2.025 . S
Sc243 O253 2.105 . S
Sc243 O257 2.105 . S
Sc243 O259 2.105 . S
Sc243 O263 2.105 . S
Sc244 O245 2.025 . S
Sc244 O254 2.105 . S
Sc244 O256 2.105 . S
Sc244 O260 2.105 . S
Sc244 O262 2.105 . S
O245 Sc242 2.025 . S
O245 Sc243 2.025 . S
O245 Sc244 2.025 . S
C246 O252 1.268 . S
C246 O262 1.268 . S
C247 O253 1.268 . S
C247 O261 1.268 . S
C248 O254 1.268 . S
C248 O263 1.268 . S
C249 O255 1.268 . S
C249 O259 1.268 1_545 S
C250 O256 1.268 . S
C250 O258 1.268 . S
C251 O257 1.268 . S
C251 O260 1.268 . S
O252 Sc242 2.105 . S
O252 C246 1.268 . S
O253 Sc243 2.105 . S
O253 C247 1.268 . S
O254 Sc244 2.105 . S
O254 C248 1.268 . S
O255 Sc242 2.105 1_545 S
O255 C249 1.268 . S
O256 Sc244 2.105 . S
O256 C250 1.268 . S
O257 Sc243 2.105 . S
O257 C251 1.268 . S
O258 Sc242 2.105 . S
O258 C250 1.268 . S
O259 Sc243 2.105 . S
O259 C249 1.268 1_565 S
O260 Sc244 2.105 . S
O260 C251 1.268 . S
O261 Sc242 2.105 . S
O261 C247 1.268 . S
O262 Sc244 2.105 . S
O262 C246 1.268 . S
O263 Sc243 2.105 . S
O263 C248 1.268 . S
Sc264 O267 2.025 . S
Sc264 O274 2.105 . S
Sc264 O277 2.105 . S
Sc264 O280 2.105 . S
Sc264 O283 2.105 . S
Sc265 O267 2.025 . S
Sc265 O275 2.105 . S
Sc265 O279 2.105 . S
Sc265 O281 2.105 . S
Sc265 O285 2.105 . S
Sc266 O267 2.025 . S
Sc266 O276 2.105 . S
Sc266 O278 2.105 . S
Sc266 O282 2.105 . S
Sc266 O284 2.105 . S
O267 Sc264 2.025 . S
O267 Sc265 2.025 . S
O267 Sc266 2.025 . S
C268 O274 1.268 . S
C268 O284 1.268 . S
C269 O275 1.268 . S
C269 O283 1.268 . S
C270 O276 1.268 . S
C270 O285 1.268 . S
C271 O277 1.268 . S
C271 O281 1.268 . S
C272 O278 1.268 . S
C272 O280 1.268 . S
C273 O279 1.268 . S
C273 O282 1.268 . S
O274 Sc264 2.105 . S
O274 C268 1.268 . S
O275 Sc265 2.105 . S
O275 C269 1.268 . S
O276 Sc266 2.105 . S
O276 C270 1.268 . S
O277 Sc264 2.105 . S
O277 C271 1.268 . S
O278 Sc266 2.105 . S
O278 C272 1.268 . S
O279 Sc265 2.105 . S
O279 C273 1.268 . S
O280 Sc264 2.105 . S
O280 C272 1.268 . S
O281 Sc265 2.105 . S
O281 C271 1.268 . S
O282 Sc266 2.105 . S
O282 C273 1.268 . S
O283 Sc264 2.105 . S
O283 C269 1.268 . S
O284 Sc266 2.105 . S
O284 C268 1.268 . S
O285 Sc265 2.105 . S
O285 C270 1.268 . S
Sc286 O289 2.025 . S
Sc286 O296 2.105 . S
Sc286 O299 2.105 . S
Sc286 O302 2.102 1_655 S
Sc286 O305 2.105 1_565 S
Sc287 O289 2.025 . S
Sc287 O297 2.105 . S
Sc287 O301 2.105 . S
Sc287 O303 2.105 . S
Sc287 O307 2.105 . S
Sc288 O289 2.025 . S
Sc288 O298 2.105 . S
Sc288 O300 2.105 . S
Sc288 O304 2.105 . S
Sc288 O306 2.105 . S
O289 Sc286 2.025 . S
O289 Sc287 2.025 . S
O289 Sc288 2.025 . S
C290 O296 1.268 . S
C290 O306 1.268 . S
C291 O297 1.268 1_545 S
C291 O305 1.268 . S
C292 O298 1.268 . S
C292 O307 1.268 . S
C293 O299 1.268 . S
C293 O303 1.268 . S
C294 O300 1.268 1_455 S
C294 O302 1.268 . S
C295 O301 1.268 . S
C295 O304 1.268 . S
O296 Sc286 2.105 . S
O296 C290 1.268 . S
O297 Sc287 2.105 . S
O297 C291 1.268 1_565 S
O298 Sc288 2.105 . S
O298 C292 1.268 . S
O299 Sc286 2.105 . S
O299 C293 1.268 . S
O300 Sc288 2.105 . S
O300 C294 1.268 1_655 S
O301 Sc287 2.105 . S
O301 C295 1.268 . S
O302 Sc286 2.102 1_455 S
O302 C294 1.268 . S
O303 Sc287 2.105 . S
O303 C293 1.268 . S
O304 Sc288 2.105 . S
O304 C295 1.268 . S
O305 Sc286 2.105 1_545 S
O305 C291 1.268 . S
O306 Sc288 2.105 . S
O306 C290 1.268 . S
O307 Sc287 2.105 . S
O307 C292 1.268 . S
Sc308 O311 2.025 1_556 S
Sc308 O318 2.105 1_556 S
Sc308 O321 2.105 . S
Sc308 O324 2.105 . S
Sc308 O327 2.105 1_556 S
Sc309 O311 2.025 . S
Sc309 O319 2.105 . S
Sc309 O323 2.105 . S
Sc309 O325 2.105 . S
Sc309 O329 2.105 . S
Sc310 O311 2.025 . S
Sc310 O320 2.105 . S
Sc310 O322 2.105 1_554 S
Sc310 O326 2.105 . S
Sc310 O328 2.105 . S
O311 Sc308 2.025 1_554 S
O311 Sc309 2.025 . S
O311 Sc310 2.025 . S
C312 O318 1.268 . S
C312 O328 1.268 . S
C313 O319 1.268 . S
C313 O327 1.268 . S
C314 O320 1.268 . S
C314 O329 1.268 . S
C315 O321 1.268 . S
C315 O325 1.268 1_556 S
C316 O322 1.268 . S
C316 O324 1.268 . S
C317 O323 1.268 . S
C317 O326 1.268 . S
O318 Sc308 2.105 1_554 S
O318 C312 1.268 . S
O319 Sc309 2.105 . S
O319 C313 1.268 . S
O320 Sc310 2.105 . S
O320 C314 1.268 . S
O321 Sc308 2.105 . S
O321 C315 1.268 . S
O322 Sc310 2.105 1_556 S
O322 C316 1.268 . S
O323 Sc309 2.105 . S
O323 C317 1.268 . S
O324 Sc308 2.105 . S
O324 C316 1.268 . S
O325 Sc309 2.105 . S
O325 C315 1.268 1_554 S
O326 Sc310 2.105 . S
O326 C317 1.268 . S
O327 Sc308 2.105 1_554 S
O327 C313 1.268 . S
O328 Sc310 2.105 . S
O328 C312 1.268 . S
O329 Sc309 2.105 . S
O329 C314 1.268 . S
Sc330 O333 2.025 . S
Sc330 O340 2.105 . S
Sc330 O343 2.105 . S
Sc330 O346 2.105 . S
Sc330 O349 2.105 . S
Sc331 O333 2.025 . S
Sc331 O341 2.105 . S
Sc331 O345 2.105 . S
Sc331 O347 2.105 . S
Sc331 O351 2.105 . S
Sc332 O333 2.025 . S
Sc332 O342 2.105 . S
Sc332 O344 2.105 . S
Sc332 O348 2.105 1_545 S
Sc332 O350 2.105 . S
O333 Sc330 2.025 . S
O333 Sc331 2.025 . S
O333 Sc332 2.025 . S
C334 O340 1.268 . S
C334 O350 1.268 . S
C335 O341 1.268 . S
C335 O349 1.268 . S
C336 O342 1.268 . S
C336 O351 1.268 . S
C337 O343 1.268 . S
C337 O347 1.268 . S
C338 O344 1.268 . S
C338 O346 1.268 . S
C339 O345 1.268 1_565 S
C339 O348 1.268 . S
O340 Sc330 2.105 . S
O340 C334 1.268 . S
O341 Sc331 2.105 . S
O341 C335 1.268 . S
O342 Sc332 2.105 . S
O342 C336 1.268 . S
O343 Sc330 2.105 . S
O343 C337 1.268 . S
O344 Sc332 2.105 . S
O344 C338 1.268 . S
O345 Sc331 2.105 . S
O345 C339 1.268 1_545 S
O346 Sc330 2.105 . S
O346 C338 1.268 . S
O347 Sc331 2.105 . S
O347 C337 1.268 . S
O348 Sc332 2.105 1_565 S
O348 C339 1.268 . S
O349 Sc330 2.105 . S
O349 C335 1.268 . S
O350 Sc332 2.105 . S
O350 C334 1.268 . S
O351 Sc331 2.105 . S
O351 C336 1.268 . S
H352 C360 0.950 . S
H353 C365 0.950 . S
H354 C362 0.950 . S
H355 C364 0.950 . S
H356 C366 0.950 . S
H357 C368 0.950 . S
H358 C370 0.950 . S
H359 C371 0.950 . S
C360 H352 0.950 . S
C360 C361 1.386 . S
C360 C362 1.391 . S
C361 C360 1.386 . S
C361 C365 1.393 . S
C362 H354 0.950 . S
C362 C360 1.391 . S
C362 C363 1.400 . S
C363 C362 1.400 . S
C363 C364 1.398 . S
C363 C369 1.491 . S
C364 H355 0.950 . S
C364 C363 1.398 . S
C364 C365 1.391 . S
C365 H353 0.950 . S
C365 C361 1.393 . S
C365 C364 1.391 . S
C366 H356 0.950 . S
C366 C367 1.386 . S
C366 C368 1.391 . S
C367 C366 1.386 . S
C367 C371 1.393 . S
C368 H357 0.950 . S
C368 C366 1.391 . S
C368 C369 1.400 . S
C369 C363 1.491 . S
C369 C368 1.400 . S
C369 C370 1.398 . S
C370 H358 0.950 . S
C370 C369 1.398 . S
C370 C371 1.391 . S
C371 H359 0.950 . S
C371 C367 1.393 . S
C371 C370 1.391 . S
H372 C380 0.950 . S
H373 C385 0.950 . S
H374 C382 0.950 . S
H375 C384 0.950 . S
H376 C386 0.950 . S
H377 C388 0.950 . S
H378 C390 0.950 . S
H379 C391 0.950 . S
C380 H372 0.950 . S
C380 C381 1.386 . S
C380 C382 1.391 . S
C381 C380 1.386 . S
C381 C385 1.393 . S
C382 H374 0.950 . S
C382 C380 1.391 . S
C382 C383 1.400 . S
C383 C382 1.400 . S
C383 C384 1.398 . S
C383 C389 1.491 . S
C384 H375 0.950 . S
C384 C383 1.398 . S
C384 C385 1.391 . S
C385 H373 0.950 . S
C385 C381 1.393 . S
C385 C384 1.391 . S
C386 H376 0.950 . S
C386 C387 1.386 . S
C386 C388 1.391 . S
C387 C386 1.386 . S
C387 C391 1.393 . S
C388 H377 0.950 . S
C388 C386 1.391 . S
C388 C389 1.400 . S
C389 C383 1.491 . S
C389 C388 1.400 . S
C389 C390 1.398 . S
C390 H378 0.950 . S
C390 C389 1.398 . S
C390 C391 1.391 . S
C391 H379 0.950 . S
C391 C387 1.393 . S
C391 C390 1.391 . S
H392 C400 0.950 . S
H393 C405 0.950 . S
H394 C402 0.950 . S
H395 C404 0.950 . S
H396 C406 0.950 . S
H397 C408 0.950 . S
H398 C410 0.950 . S
H399 C411 0.950 . S
C400 H392 0.950 . S
C400 C401 1.386 . S
C400 C402 1.391 . S
C401 C400 1.386 . S
C401 C405 1.393 . S
C402 H394 0.950 . S
C402 C400 1.391 . S
C402 C403 1.400 . S
C403 C402 1.400 . S
C403 C404 1.398 . S
C403 C409 1.491 . S
C404 H395 0.950 . S
C404 C403 1.398 . S
C404 C405 1.391 . S
C405 H393 0.950 . S
C405 C401 1.393 . S
C405 C404 1.391 . S
C406 H396 0.950 . S
C406 C407 1.386 . S
C406 C408 1.391 . S
C407 C406 1.386 . S
C407 C411 1.393 . S
C408 H397 0.950 . S
C408 C406 1.391 . S
C408 C409 1.400 . S
C409 C403 1.491 . S
C409 C408 1.400 . S
C409 C410 1.398 . S
C410 H398 0.950 . S
C410 C409 1.398 . S
C410 C411 1.391 . S
C411 H399 0.950 . S
C411 C407 1.393 . S
C411 C410 1.391 . S
H412 C420 0.950 . S
H413 C425 0.950 . S
H414 C422 0.950 . S
H415 C424 0.950 . S
H416 C426 0.950 . S
H417 C428 0.950 . S
H418 C430 0.950 . S
H419 C431 0.950 . S
C420 H412 0.950 . S
C420 C421 1.386 . S
C420 C422 1.391 . S
C421 C420 1.386 . S
C421 C425 1.393 . S
C422 H414 0.950 . S
C422 C420 1.391 . S
C422 C423 1.400 . S
C423 C422 1.400 . S
C423 C424 1.398 . S
C423 C429 1.491 . S
C424 H415 0.950 . S
C424 C423 1.398 . S
C424 C425 1.391 . S
C425 H413 0.950 . S
C425 C421 1.393 . S
C425 C424 1.391 . S
C426 H416 0.950 . S
C426 C427 1.386 . S
C426 C428 1.391 . S
C427 C426 1.386 . S
C427 C431 1.393 . S
C428 H417 0.950 . S
C428 C426 1.391 . S
C428 C429 1.400 . S
C429 C423 1.491 . S
C429 C428 1.400 . S
C429 C430 1.398 . S
C430 H418 0.950 . S
C430 C429 1.398 . S
C430 C431 1.391 . S
C431 H419 0.950 . S
C431 C427 1.393 . S
C431 C430 1.391 . S
H432 C440 0.950 . S
H433 C445 0.950 . S
H434 C442 0.950 . S
H435 C444 0.950 . S
H436 C446 0.950 . S
H437 C448 0.950 . S
H438 C450 0.950 . S
H439 C451 0.950 . S
C440 H432 0.950 . S
C440 C441 1.386 . S
C440 C442 1.391 . S
C441 C440 1.386 . S
C441 C445 1.393 . S
C442 H434 0.950 . S
C442 C440 1.391 . S
C442 C443 1.400 . S
C443 C442 1.400 . S
C443 C444 1.398 . S
C443 C449 1.491 . S
C444 H435 0.950 . S
C444 C443 1.398 . S
C444 C445 1.391 . S
C445 H433 0.950 . S
C445 C441 1.393 . S
C445 C444 1.391 . S
C446 H436 0.950 . S
C446 C447 1.386 . S
C446 C448 1.391 . S
C447 C446 1.386 . S
C447 C451 1.393 . S
C448 H437 0.950 . S
C448 C446 1.391 . S
C448 C449 1.400 . S
C449 C443 1.491 . S
C449 C448 1.400 . S
C449 C450 1.398 . S
C450 H438 0.950 . S
C450 C449 1.398 . S
C450 C451 1.391 . S
C451 H439 0.950 . S
C451 C447 1.393 . S
C451 C450 1.391 . S
H452 C460 0.950 . S
H453 C465 0.950 . S
H454 C462 0.950 . S
H455 C464 0.950 . S
H456 C466 0.950 . S
H457 C468 0.950 . S
H458 C470 0.950 . S
H459 C471 0.950 . S
C460 H452 0.950 . S
C460 C461 1.386 . S
C460 C462 1.391 . S
C461 C460 1.386 . S
C461 C465 1.393 . S
C462 H454 0.950 . S
C462 C460 1.391 . S
C462 C463 1.400 . S
C463 C462 1.400 . S
C463 C464 1.398 . S
C463 C469 1.491 . S
C464 H455 0.950 . S
C464 C463 1.398 . S
C464 C465 1.391 . S
C465 H453 0.950 . S
C465 C461 1.393 . S
C465 C464 1.391 . S
C466 H456 0.950 . S
C466 C467 1.386 . S
C466 C468 1.391 . S
C467 C466 1.386 . S
C467 C471 1.393 . S
C468 H457 0.950 . S
C468 C466 1.391 . S
C468 C469 1.400 . S
C469 C463 1.491 . S
C469 C468 1.400 . S
C469 C470 1.398 . S
C470 H458 0.950 . S
C470 C469 1.398 . S
C470 C471 1.391 . S
C471 H459 0.950 . S
C471 C467 1.393 . S
C471 C470 1.391 . S
H472 C480 0.950 . S
H473 C485 0.950 . S
H474 C482 0.950 . S
H475 C484 0.950 . S
H476 C486 0.950 . S
H477 C488 0.950 . S
H478 C490 0.950 . S
H479 C491 0.950 . S
C480 H472 0.950 . S
C480 C481 1.386 . S
C480 C482 1.391 . S
C481 C480 1.386 . S
C481 C485 1.393 . S
C482 H474 0.950 . S
C482 C480 1.391 . S
C482 C483 1.400 . S
C483 C482 1.400 . S
C483 C484 1.398 . S
C483 C489 1.491 . S
C484 H475 0.950 . S
C484 C483 1.398 . S
C484 C485 1.391 . S
C485 H473 0.950 . S
C485 C481 1.393 . S
C485 C484 1.391 . S
C486 H476 0.950 . S
C486 C487 1.386 . S
C486 C488 1.391 . S
C487 C486 1.386 . S
C487 C491 1.393 . S
C488 H477 0.950 . S
C488 C486 1.391 . S
C488 C489 1.400 . S
C489 C483 1.491 . S
C489 C488 1.400 . S
C489 C490 1.398 . S
C490 H478 0.950 . S
C490 C489 1.398 . S
C490 C491 1.391 . S
C491 H479 0.950 . S
C491 C487 1.393 . S
C491 C490 1.391 . S
H492 C500 0.950 . S
H493 C505 0.950 . S
H494 C502 0.950 . S
H495 C504 0.950 . S
H496 C506 0.950 . S
H497 C508 0.950 . S
H498 C510 0.950 . S
H499 C511 0.950 . S
C500 H492 0.950 . S
C500 C501 1.386 . S
C500 C502 1.391 . S
C501 C500 1.386 . S
C501 C505 1.393 . S
C502 H494 0.950 . S
C502 C500 1.391 . S
C502 C503 1.400 . S
C503 C502 1.400 . S
C503 C504 1.398 . S
C503 C509 1.491 . S
C504 H495 0.950 . S
C504 C503 1.398 . S
C504 C505 1.391 . S
C505 H493 0.950 . S
C505 C501 1.393 . S
C505 C504 1.391 . S
C506 H496 0.950 . S
C506 C507 1.386 . S
C506 C508 1.391 . S
C507 C506 1.386 . S
C507 C511 1.393 . S
C508 H497 0.950 . S
C508 C506 1.391 . S
C508 C509 1.400 . S
C509 C503 1.491 . S
C509 C508 1.400 . S
C509 C510 1.398 . S
C510 H498 0.950 . S
C510 C509 1.398 . S
C510 C511 1.391 . S
C511 H499 0.950 . S
C511 C507 1.393 . S
C511 C510 1.391 . S
H512 C520 0.950 . S
H513 C525 0.950 . S
H514 C522 0.950 . S
H515 C524 0.950 . S
H516 C526 0.950 . S
H517 C528 0.950 . S
H518 C530 0.950 . S
H519 C531 0.950 . S
C520 H512 0.950 . S
C520 C521 1.386 . S
C520 C522 1.391 . S
C521 C520 1.386 . S
C521 C525 1.393 . S
C522 H514 0.950 . S
C522 C520 1.391 . S
C522 C523 1.400 . S
C523 C522 1.400 . S
C523 C524 1.398 . S
C523 C529 1.491 . S
C524 H515 0.950 . S
C524 C523 1.398 . S
C524 C525 1.391 . S
C525 H513 0.950 . S
C525 C521 1.393 . S
C525 C524 1.391 . S
C526 H516 0.950 . S
C526 C527 1.386 . S
C526 C528 1.391 . S
C527 C526 1.386 . S
C527 C531 1.393 . S
C528 H517 0.950 . S
C528 C526 1.391 . S
C528 C529 1.400 . S
C529 C523 1.491 . S
C529 C528 1.400 . S
C529 C530 1.398 . S
C530 H518 0.950 . S
C530 C529 1.398 . S
C530 C531 1.391 . S
C531 H519 0.950 . S
C531 C527 1.393 . S
C531 C530 1.391 . S
H532 C540 0.950 . S
H533 C545 0.950 . S
H534 C542 0.950 . S
H535 C544 0.950 . S
H536 C546 0.950 . S
H537 C548 0.950 . S
H538 C550 0.950 . S
H539 C551 0.950 . S
C540 H532 0.950 . S
C540 C541 1.386 . S
C540 C542 1.391 . S
C541 C540 1.386 . S
C541 C545 1.393 . S
C542 H534 0.950 . S
C542 C540 1.391 . S
C542 C543 1.400 . S
C543 C542 1.400 . S
C543 C544 1.398 . S
C543 C549 1.491 . S
C544 H535 0.950 . S
C544 C543 1.398 . S
C544 C545 1.391 . S
C545 H533 0.950 . S
C545 C541 1.393 . S
C545 C544 1.391 . S
C546 H536 0.950 . S
C546 C547 1.386 . S
C546 C548 1.391 . S
C547 C546 1.386 . S
C547 C551 1.393 . S
C548 H537 0.950 . S
C548 C546 1.391 . S
C548 C549 1.400 . S
C549 C543 1.491 . S
C549 C548 1.400 . S
C549 C550 1.398 . S
C550 H538 0.950 . S
C550 C549 1.398 . S
C550 C551 1.391 . S
C551 H539 0.950 . S
C551 C547 1.393 . S
C551 C550 1.391 . S
H552 C560 0.950 . S
H553 C565 0.950 . S
H554 C562 0.950 . S
H555 C564 0.950 . S
H556 C566 0.950 . S
H557 C568 0.950 . S
H558 C570 0.950 . S
H559 C571 0.950 1_554 S
C560 H552 0.950 . S
C560 C561 1.386 . S
C560 C562 1.391 . S
C561 C560 1.386 . S
C561 C565 1.393 . S
C562 H554 0.950 . S
C562 C560 1.391 . S
C562 C563 1.400 . S
C563 C562 1.400 . S
C563 C564 1.398 . S
C563 C569 1.491 . S
C564 H555 0.950 . S
C564 C563 1.398 . S
C564 C565 1.391 . S
C565 H553 0.950 . S
C565 C561 1.393 . S
C565 C564 1.391 . S
C566 H556 0.950 . S
C566 C567 1.386 . S
C566 C568 1.391 . S
C567 C566 1.386 . S
C567 C571 1.393 . S
C568 H557 0.950 . S
C568 C566 1.391 . S
C568 C569 1.400 . S
C569 C563 1.491 . S
C569 C568 1.400 . S
C569 C570 1.398 . S
C570 H558 0.950 . S
C570 C569 1.398 . S
C570 C571 1.391 . S
C571 H559 0.950 1_556 S
C571 C567 1.393 . S
C571 C570 1.391 . S
H572 C580 0.989 . S
H573 C585 0.950 . S
H574 C582 0.950 . S
H575 C584 0.950 . S
H576 C586 0.950 . S
H577 C588 0.950 . S
H578 C590 0.950 . S
H579 C591 0.950 . S
C580 H572 0.989 . S
C580 C581 1.386 . S
C580 C582 1.391 . S
C581 C580 1.386 . S
C581 C585 1.393 . S
C582 H574 0.950 . S
C582 C580 1.391 . S
C582 C583 1.400 . S
C583 C582 1.400 . S
C583 C584 1.398 . S
C583 C589 1.491 . S
C584 H575 0.950 . S
C584 C583 1.398 . S
C584 C585 1.391 . S
C585 H573 0.950 . S
C585 C581 1.393 . S
C585 C584 1.391 . S
C586 H576 0.950 . S
C586 C587 1.386 . S
C586 C588 1.391 . S
C587 C586 1.386 . S
C587 C591 1.393 . S
C588 H577 0.950 . S
C588 C586 1.391 . S
C588 C589 1.400 . S
C589 C583 1.491 . S
C589 C588 1.400 . S
C589 C590 1.398 . S
C590 H578 0.950 . S
C590 C589 1.398 . S
C590 C591 1.391 . S
C591 H579 0.950 . S
C591 C587 1.393 . S
C591 C590 1.391 . S
H592 C600 0.950 . S
H593 C605 0.950 . S
H594 C602 0.950 . S
H595 C604 0.950 . S
H596 C606 0.950 . S
H597 C608 0.950 . S
H598 C610 0.950 . S
H599 C611 0.950 . S
C600 H592 0.950 . S
C600 C601 1.386 . S
C600 C602 1.391 . S
C601 C600 1.386 . S
C601 C605 1.393 . S
C602 H594 0.950 . S
C602 C600 1.391 . S
C602 C603 1.400 . S
C603 C602 1.400 . S
C603 C604 1.398 . S
C603 C609 1.491 . S
C604 H595 0.950 . S
C604 C603 1.398 . S
C604 C605 1.391 . S
C605 H593 0.950 . S
C605 C601 1.393 . S
C605 C604 1.391 . S
C606 H596 0.950 . S
C606 C607 1.386 . S
C606 C608 1.391 . S
C607 C606 1.386 . S
C607 C611 1.393 . S
C608 H597 0.950 . S
C608 C606 1.391 . S
C608 C609 1.400 . S
C609 C603 1.491 . S
C609 C608 1.400 . S
C609 C610 1.398 . S
C610 H598 0.950 . S
C610 C609 1.398 . S
C610 C611 1.391 . S
C611 H599 0.950 . S
C611 C607 1.393 . S
C611 C610 1.391 . S
H612 C620 0.950 . S
H613 C625 0.950 . S
H614 C622 0.950 . S
H615 C624 0.950 . S
H616 C626 0.950 . S
H617 C628 0.950 . S
H618 C630 0.950 . S
H619 C631 0.950 . S
C620 H612 0.950 . S
C620 C621 1.386 . S
C620 C622 1.391 . S
C621 C620 1.386 . S
C621 C625 1.393 . S
C622 H614 0.950 . S
C622 C620 1.391 . S
C622 C623 1.400 . S
C623 C622 1.400 . S
C623 C624 1.398 . S
C623 C629 1.491 . S
C624 H615 0.950 . S
C624 C623 1.398 . S
C624 C625 1.391 . S
C625 H613 0.950 . S
C625 C621 1.393 . S
C625 C624 1.391 . S
C626 H616 0.950 . S
C626 C627 1.386 . S
C626 C628 1.391 . S
C627 C626 1.386 . S
C627 C631 1.393 . S
C628 H617 0.950 . S
C628 C626 1.391 . S
C628 C629 1.400 . S
C629 C623 1.491 . S
C629 C628 1.400 . S
C629 C630 1.398 . S
C630 H618 0.950 . S
C630 C629 1.398 . S
C630 C631 1.391 . S
C631 H619 0.950 . S
C631 C627 1.393 . S
C631 C630 1.391 . S
H632 C640 0.950 . S
H633 C645 0.950 . S
H634 C642 0.950 . S
H635 C644 0.950 . S
H636 C646 0.950 . S
H637 C648 0.950 . S
H638 C650 0.950 . S
H639 C651 0.950 1_556 S
C640 H632 0.950 . S
C640 C641 1.386 . S
C640 C642 1.391 . S
C641 C640 1.386 . S
C641 C645 1.393 . S
C642 H634 0.950 . S
C642 C640 1.391 . S
C642 C643 1.400 . S
C643 C642 1.400 . S
C643 C644 1.398 . S
C643 C649 1.491 . S
C644 H635 0.950 . S
C644 C643 1.398 . S
C644 C645 1.391 . S
C645 H633 0.950 . S
C645 C641 1.393 . S
C645 C644 1.391 . S
C646 H636 0.950 . S
C646 C647 1.386 . S
C646 C648 1.391 . S
C647 C646 1.386 . S
C647 C651 1.393 . S
C648 H637 0.950 . S
C648 C646 1.391 . S
C648 C649 1.400 . S
C649 C643 1.491 . S
C649 C648 1.400 . S
C649 C650 1.398 . S
C650 H638 0.950 . S
C650 C649 1.398 . S
C650 C651 1.391 . S
C651 H639 0.950 1_554 S
C651 C647 1.393 . S
C651 C650 1.391 . S
H652 C660 0.950 . S
H653 C665 0.950 . S
H654 C662 0.950 . S
H655 C664 0.950 . S
H656 C666 0.950 . S
H657 C668 0.950 . S
H658 C670 0.950 . S
H659 C671 0.950 . S
C660 H652 0.950 . S
C660 C661 1.386 . S
C660 C662 1.391 . S
C661 C660 1.386 . S
C661 C665 1.393 . S
C662 H654 0.950 . S
C662 C660 1.391 . S
C662 C663 1.400 . S
C663 C662 1.400 . S
C663 C664 1.398 . S
C663 C669 1.491 . S
C664 H655 0.950 . S
C664 C663 1.398 . S
C664 C665 1.391 . S
C665 H653 0.950 . S
C665 C661 1.393 . S
C665 C664 1.391 . S
C666 H656 0.950 . S
C666 C667 1.386 . S
C666 C668 1.391 . S
C667 C666 1.386 . S
C667 C671 1.393 . S
C668 H657 0.950 . S
C668 C666 1.391 . S
C668 C669 1.400 . S
C669 C663 1.491 . S
C669 C668 1.400 . S
C669 C670 1.398 . S
C670 H658 0.950 . S
C670 C669 1.398 . S
C670 C671 1.391 . S
C671 H659 0.950 . S
C671 C667 1.393 . S
C671 C670 1.391 . S
H672 C680 0.950 . S
H673 C685 0.950 . S
H674 C682 0.950 . S
H675 C684 0.950 . S
H676 C686 0.950 . S
H677 C688 0.950 . S
H678 C690 0.950 . S
H679 C691 0.950 . S
C680 H672 0.950 . S
C680 C681 1.386 . S
C680 C682 1.391 . S
C681 C680 1.386 . S
C681 C685 1.393 . S
C682 H674 0.950 . S
C682 C680 1.391 . S
C682 C683 1.400 . S
C683 C682 1.400 . S
C683 C684 1.398 . S
C683 C689 1.491 . S
C684 H675 0.950 . S
C684 C683 1.398 . S
C684 C685 1.391 . S
C685 H673 0.950 . S
C685 C681 1.393 . S
C685 C684 1.391 . S
C686 H676 0.950 . S
C686 C687 1.386 . S
C686 C688 1.391 . S
C687 C686 1.386 . S
C687 C691 1.393 . S
C688 H677 0.950 . S
C688 C686 1.391 . S
C688 C689 1.400 . S
C689 C683 1.491 . S
C689 C688 1.400 . S
C689 C690 1.398 . S
C690 H678 0.950 . S
C690 C689 1.398 . S
C690 C691 1.391 . S
C691 H679 0.950 . S
C691 C687 1.393 . S
C691 C690 1.391 . S
H692 C700 0.950 . S
H693 C705 0.950 . S
H694 C702 0.950 . S
H695 C704 0.950 . S
H696 C706 0.950 . S
H697 C708 0.950 . S
H698 C710 0.950 . S
H699 C711 0.950 . S
C700 H692 0.950 . S
C700 C701 1.386 . S
C700 C702 1.391 . S
C701 C700 1.386 . S
C701 C705 1.393 . S
C702 H694 0.950 . S
C702 C700 1.391 . S
C702 C703 1.400 . S
C703 C702 1.400 . S
C703 C704 1.398 . S
C703 C709 1.491 . S
C704 H695 0.950 . S
C704 C703 1.398 . S
C704 C705 1.391 . S
C705 H693 0.950 . S
C705 C701 1.393 . S
C705 C704 1.391 . S
C706 H696 0.950 . S
C706 C707 1.386 . S
C706 C708 1.391 . S
C707 C706 1.386 . S
C707 C711 1.393 . S
C708 H697 0.950 . S
C708 C706 1.391 . S
C708 C709 1.400 . S
C709 C703 1.491 . S
C709 C708 1.400 . S
C709 C710 1.398 . S
C710 H698 0.950 . S
C710 C709 1.398 . S
C710 C711 1.391 . S
C711 H699 0.950 . S
C711 C707 1.393 . S
C711 C710 1.391 . S
H712 C720 0.947 . S
H713 C725 0.950 . S
H714 C722 0.950 . S
H715 C724 0.950 . S
H716 C726 0.950 . S
H717 C728 0.950 . S
H718 C730 0.950 . S
H719 C731 0.950 . S
C720 H712 0.947 . S
C720 C721 1.386 . S
C720 C722 1.391 . S
C721 C720 1.386 . S
C721 C725 1.393 . S
C722 H714 0.950 . S
C722 C720 1.391 . S
C722 C723 1.400 . S
C723 C722 1.400 . S
C723 C724 1.398 . S
C723 C729 1.491 . S
C724 H715 0.950 . S
C724 C723 1.398 . S
C724 C725 1.391 . S
C725 H713 0.950 . S
C725 C721 1.393 . S
C725 C724 1.391 . S
C726 H716 0.950 . S
C726 C727 1.386 . S
C726 C728 1.391 . S
C727 C726 1.386 . S
C727 C731 1.393 . S
C728 H717 0.950 . S
C728 C726 1.391 . S
C728 C729 1.400 . S
C729 C723 1.491 . S
C729 C728 1.400 . S
C729 C730 1.398 . S
C730 H718 0.950 . S
C730 C729 1.398 . S
C730 C731 1.391 . S
C731 H719 0.950 . S
C731 C727 1.393 . S
C731 C730 1.391 . S
H732 C740 0.950 . S
H733 C745 0.950 . S
H734 C742 0.950 . S
H735 C744 0.950 . S
H736 C746 0.950 . S
H737 C748 0.950 . S
H738 C750 0.950 . S
H739 C751 0.950 . S
C740 H732 0.950 . S
C740 C741 1.386 . S
C740 C742 1.391 . S
C741 C740 1.386 . S
C741 C745 1.393 . S
C742 H734 0.950 . S
C742 C740 1.391 . S
C742 C743 1.400 . S
C743 C742 1.400 . S
C743 C744 1.398 . S
C743 C749 1.491 . S
C744 H735 0.950 . S
C744 C743 1.398 . S
C744 C745 1.391 . S
C745 H733 0.950 . S
C745 C741 1.393 . S
C745 C744 1.391 . S
C746 H736 0.950 . S
C746 C747 1.386 . S
C746 C748 1.391 . S
C747 C746 1.386 . S
C747 C751 1.393 . S
C748 H737 0.950 . S
C748 C746 1.391 . S
C748 C749 1.400 . S
C749 C743 1.491 . S
C749 C748 1.400 . S
C749 C750 1.398 . S
C750 H738 0.950 . S
C750 C749 1.398 . S
C750 C751 1.391 . S
C751 H739 0.950 . S
C751 C747 1.393 . S
C751 C750 1.391 . S
H752 C760 0.950 . S
H753 C765 0.950 . S
H754 C762 0.950 . S
H755 C764 0.950 . S
H756 C766 0.950 . S
H757 C768 0.950 . S
H758 C770 0.950 . S
H759 C771 0.950 . S
C760 H752 0.950 . S
C760 C761 1.386 . S
C760 C762 1.391 . S
C761 C760 1.386 . S
C761 C765 1.393 . S
C762 H754 0.950 . S
C762 C760 1.391 . S
C762 C763 1.400 . S
C763 C762 1.400 . S
C763 C764 1.398 . S
C763 C769 1.491 . S
C764 H755 0.950 . S
C764 C763 1.398 . S
C764 C765 1.391 . S
C765 H753 0.950 . S
C765 C761 1.393 . S
C765 C764 1.391 . S
C766 H756 0.950 . S
C766 C767 1.386 . S
C766 C768 1.391 . S
C767 C766 1.386 . S
C767 C771 1.393 . S
C768 H757 0.950 . S
C768 C766 1.391 . S
C768 C769 1.400 . S
C769 C763 1.491 . S
C769 C768 1.400 . S
C769 C770 1.398 . S
C770 H758 0.950 . S
C770 C769 1.398 . S
C770 C771 1.391 . S
C771 H759 0.950 . S
C771 C767 1.393 . S
C771 C770 1.391 . S
H772 C780 0.950 . S
H773 C785 0.950 . S
H774 C782 0.950 1_554 S
H775 C784 0.950 . S
H776 C786 0.950 . S
H777 C788 0.950 . S
H778 C790 0.950 . S
H779 C791 0.950 . S
C780 H772 0.950 . S
C780 C781 1.386 1_554 S
C780 C782 1.391 1_554 S
C781 C780 1.386 1_556 S
C781 C785 1.393 . S
C782 H774 0.950 1_556 S
C782 C780 1.391 1_556 S
C782 C783 1.400 . S
C783 C782 1.400 . S
C783 C784 1.398 . S
C783 C789 1.491 . S
C784 H775 0.950 . S
C784 C783 1.398 . S
C784 C785 1.391 . S
C785 H773 0.950 . S
C785 C781 1.393 . S
C785 C784 1.391 . S
C786 H776 0.950 . S
C786 C787 1.386 . S
C786 C788 1.391 . S
C787 C786 1.386 . S
C787 C791 1.393 . S
C788 H777 0.950 . S
C788 C786 1.391 . S
C788 C789 1.400 . S
C789 C783 1.491 . S
C789 C788 1.400 . S
C789 C790 1.398 . S
C790 H778 0.950 . S
C790 C789 1.398 . S
C790 C791 1.391 . S
C791 H779 0.950 . S
C791 C787 1.393 . S
C791 C790 1.391 . S
H792 C800 0.950 . S
H793 C805 0.950 . S
H794 C802 0.950 . S
H795 C804 0.950 . S
H796 C806 0.950 . S
H797 C808 0.950 . S
H798 C810 0.950 . S
H799 C811 0.950 . S
C800 H792 0.950 . S
C800 C801 1.386 . S
C800 C802 1.391 . S
C801 C800 1.386 . S
C801 C805 1.393 . S
C802 H794 0.950 . S
C802 C800 1.391 . S
C802 C803 1.400 . S
C803 C802 1.400 . S
C803 C804 1.398 . S
C803 C809 1.491 . S
C804 H795 0.950 . S
C804 C803 1.398 . S
C804 C805 1.391 . S
C805 H793 0.950 . S
C805 C801 1.393 . S
C805 C804 1.391 . S
C806 H796 0.950 . S
C806 C807 1.386 . S
C806 C808 1.391 . S
C807 C806 1.386 . S
C807 C811 1.393 . S
C808 H797 0.950 . S
C808 C806 1.391 . S
C808 C809 1.400 . S
C809 C803 1.491 . S
C809 C808 1.400 . S
C809 C810 1.398 . S
C810 H798 0.950 . S
C810 C809 1.398 . S
C810 C811 1.391 . S
C811 H799 0.950 . S
C811 C807 1.393 . S
C811 C810 1.391 . S
H812 C820 0.950 . S
H813 C825 0.950 . S
H814 C822 0.950 . S
H815 C824 0.950 . S
H816 C826 0.950 . S
H817 C828 0.950 . S
H818 C830 0.950 . S
H819 C831 0.950 . S
C820 H812 0.950 . S
C820 C821 1.386 . S
C820 C822 1.391 . S
C821 C820 1.386 . S
C821 C825 1.393 . S
C822 H814 0.950 . S
C822 C820 1.391 . S
C822 C823 1.400 . S
C823 C822 1.400 . S
C823 C824 1.398 . S
C823 C829 1.491 . S
C824 H815 0.950 . S
C824 C823 1.398 . S
C824 C825 1.391 . S
C825 H813 0.950 . S
C825 C821 1.393 . S
C825 C824 1.391 . S
C826 H816 0.950 . S
C826 C827 1.386 . S
C826 C828 1.391 . S
C827 C826 1.386 . S
C827 C831 1.393 . S
C828 H817 0.950 . S
C828 C826 1.391 . S
C828 C829 1.400 . S
C829 C823 1.491 . S
C829 C828 1.400 . S
C829 C830 1.398 . S
C830 H818 0.950 . S
C830 C829 1.398 . S
C830 C831 1.391 . S
C831 H819 0.950 . S
C831 C827 1.393 . S
C831 C830 1.391 . S
H832 C840 0.950 . S
H833 C845 0.950 . S
H834 C842 0.950 . S
H835 C844 0.950 . S
H836 C846 0.950 1_455 S
H837 C848 0.950 . S
H838 C850 0.950 . S
H839 C851 0.950 . S
C840 H832 0.950 . S
C840 C841 1.386 . S
C840 C842 1.391 . S
C841 C840 1.386 . S
C841 C845 1.393 . S
C842 H834 0.950 . S
C842 C840 1.391 . S
C842 C843 1.400 . S
C843 C842 1.400 . S
C843 C844 1.398 . S
C843 C849 1.491 . S
C844 H835 0.950 . S
C844 C843 1.398 . S
C844 C845 1.391 . S
C845 H833 0.950 . S
C845 C841 1.393 . S
C845 C844 1.391 . S
C846 H836 0.950 1_655 S
C846 C847 1.386 . S
C846 C848 1.391 . S
C847 C846 1.386 . S
C847 C851 1.393 . S
C848 H837 0.950 . S
C848 C846 1.391 . S
C848 C849 1.400 . S
C849 C843 1.491 . S
C849 C848 1.400 . S
C849 C850 1.398 . S
C850 H838 0.950 . S
C850 C849 1.398 . S
C850 C851 1.391 . S
C851 H839 0.950 . S
C851 C847 1.393 . S
C851 C850 1.391 . S
H852 C860 0.950 . S
H853 C865 0.950 . S
H854 C862 0.950 . S
H855 C864 0.950 . S
H856 C866 0.950 . S
H857 C868 0.950 . S
H858 C870 0.950 . S
H859 C871 0.950 . S
C860 H852 0.950 . S
C860 C861 1.386 . S
C860 C862 1.391 . S
C861 C860 1.386 . S
C861 C865 1.393 . S
C862 H854 0.950 . S
C862 C860 1.391 . S
C862 C863 1.400 . S
C863 C862 1.400 . S
C863 C864 1.398 . S
C863 C869 1.491 . S
C864 H855 0.950 . S
C864 C863 1.398 . S
C864 C865 1.391 . S
C865 H853 0.950 . S
C865 C861 1.393 . S
C865 C864 1.391 . S
C866 H856 0.950 . S
C866 C867 1.386 . S
C866 C868 1.391 . S
C867 C866 1.386 . S
C867 C871 1.393 . S
C868 H857 0.950 . S
C868 C866 1.391 . S
C868 C869 1.400 . S
C869 C863 1.491 . S
C869 C868 1.400 . S
C869 C870 1.398 . S
C870 H858 0.950 . S
C870 C869 1.398 . S
C870 C871 1.391 . S
C871 H859 0.950 . S
C871 C867 1.393 . S
C871 C870 1.391 . S
H872 C880 0.950 . S
H873 C885 0.950 . S
H874 C882 0.950 . S
H875 C884 0.950 . S
H876 C886 0.950 . S
H877 C888 0.950 . S
H878 C890 0.950 . S
H879 C891 0.950 . S
C880 H872 0.950 . S
C880 C881 1.386 . S
C880 C882 1.391 . S
C881 C880 1.386 . S
C881 C885 1.393 . S
C882 H874 0.950 . S
C882 C880 1.391 . S
C882 C883 1.400 . S
C883 C882 1.400 . S
C883 C884 1.398 . S
C883 C889 1.491 . S
C884 H875 0.950 . S
C884 C883 1.398 . S
C884 C885 1.391 . S
C885 H873 0.950 . S
C885 C881 1.393 . S
C885 C884 1.391 . S
C886 H876 0.950 . S
C886 C887 1.386 . S
C886 C888 1.391 . S
C887 C886 1.386 . S
C887 C891 1.393 . S
C888 H877 0.950 . S
C888 C886 1.391 . S
C888 C889 1.400 . S
C889 C883 1.491 . S
C889 C888 1.400 . S
C889 C890 1.398 . S
C890 H878 0.950 . S
C890 C889 1.398 . S
C890 C891 1.391 . S
C891 H879 0.950 . S
C891 C887 1.393 . S
C891 C890 1.391 . S
H892 C900 0.950 . S
H893 C905 0.950 . S
H894 C902 0.950 . S
H895 C904 0.950 . S
H896 C906 0.950 . S
H897 C908 0.950 . S
H898 C910 0.950 . S
H899 C911 0.950 . S
C900 H892 0.950 . S
C900 C901 1.386 . S
C900 C902 1.391 . S
C901 C900 1.386 . S
C901 C905 1.393 . S
C902 H894 0.950 . S
C902 C900 1.391 . S
C902 C903 1.400 . S
C903 C902 1.400 . S
C903 C904 1.398 . S
C903 C909 1.491 . S
C904 H895 0.950 . S
C904 C903 1.398 . S
C904 C905 1.391 . S
C905 H893 0.950 . S
C905 C901 1.393 . S
C905 C904 1.391 . S
C906 H896 0.950 . S
C906 C907 1.386 . S
C906 C908 1.391 . S
C907 C906 1.386 . S
C907 C911 1.393 . S
C908 H897 0.950 . S
C908 C906 1.391 . S
C908 C909 1.400 . S
C909 C903 1.491 . S
C909 C908 1.400 . S
C909 C910 1.398 . S
C910 H898 0.950 . S
C910 C909 1.398 . S
C910 C911 1.391 . S
C911 H899 0.950 . S
C911 C907 1.393 . S
C911 C910 1.391 . S
H912 C920 0.950 . S
H913 C925 0.950 . S
H914 C922 0.950 . S
H915 C924 0.950 . S
H916 C926 0.950 . S
H917 C928 0.950 . S
H918 C930 0.950 . S
H919 C931 0.950 . S
C920 H912 0.950 . S
C920 C921 1.386 . S
C920 C922 1.391 . S
C921 C920 1.386 . S
C921 C925 1.393 . S
C922 H914 0.950 . S
C922 C920 1.391 . S
C922 C923 1.400 . S
C923 C922 1.400 . S
C923 C924 1.398 . S
C923 C929 1.491 . S
C924 H915 0.950 . S
C924 C923 1.398 . S
C924 C925 1.391 . S
C925 H913 0.950 . S
C925 C921 1.393 . S
C925 C924 1.391 . S
C926 H916 0.950 . S
C926 C927 1.386 . S
C926 C928 1.391 . S
C927 C926 1.386 . S
C927 C931 1.393 . S
C928 H917 0.950 . S
C928 C926 1.391 . S
C928 C929 1.400 . S
C929 C923 1.491 . S
C929 C928 1.400 . S
C929 C930 1.398 . S
C930 H918 0.950 . S
C930 C929 1.398 . S
C930 C931 1.391 . S
C931 H919 0.950 . S
C931 C927 1.393 . S
C931 C930 1.391 . S
H932 C940 0.950 . S
H933 C945 0.950 . S
H934 C942 0.950 . S
H935 C944 0.950 . S
H936 C946 0.950 . S
H937 C948 0.950 . S
H938 C950 0.950 . S
H939 C951 0.950 . S
C940 H932 0.950 . S
C940 C941 1.386 . S
C940 C942 1.391 . S
C941 C940 1.386 . S
C941 C945 1.393 . S
C942 H934 0.950 . S
C942 C940 1.391 . S
C942 C943 1.400 . S
C943 C942 1.400 . S
C943 C944 1.398 . S
C943 C949 1.491 . S
C944 H935 0.950 . S
C944 C943 1.398 . S
C944 C945 1.391 . S
C945 H933 0.950 . S
C945 C941 1.393 . S
C945 C944 1.391 . S
C946 H936 0.950 . S
C946 C947 1.386 . S
C946 C948 1.391 . S
C947 C946 1.386 . S
C947 C951 1.393 . S
C948 H937 0.950 . S
C948 C946 1.391 . S
C948 C949 1.400 . S
C949 C943 1.491 . S
C949 C948 1.400 . S
C949 C950 1.398 . S
C950 H938 0.950 . S
C950 C949 1.398 . S
C950 C951 1.391 . S
C951 H939 0.950 . S
C951 C947 1.393 . S
C951 C950 1.391 . S
H952 C960 0.950 . S
H953 C965 0.950 . S
H954 C962 0.950 . S
H955 C964 0.950 . S
H956 C966 0.950 . S
H957 C968 0.950 . S
H958 C970 0.950 . S
H959 C971 0.950 . S
C960 H952 0.950 . S
C960 C961 1.386 . S
C960 C962 1.391 . S
C961 C960 1.386 . S
C961 C965 1.393 . S
C962 H954 0.950 . S
C962 C960 1.391 . S
C962 C963 1.400 . S
C963 C962 1.400 . S
C963 C964 1.398 . S
C963 C969 1.491 . S
C964 H955 0.950 . S
C964 C963 1.398 . S
C964 C965 1.391 . S
C965 H953 0.950 . S
C965 C961 1.393 . S
C965 C964 1.391 . S
C966 H956 0.950 . S
C966 C967 1.386 . S
C966 C968 1.391 . S
C967 C966 1.386 . S
C967 C971 1.393 . S
C968 H957 0.950 . S
C968 C966 1.391 . S
C968 C969 1.400 . S
C969 C963 1.491 . S
C969 C968 1.400 . S
C969 C970 1.398 . S
C970 H958 0.950 . S
C970 C969 1.398 . S
C970 C971 1.391 . S
C971 H959 0.950 . S
C971 C967 1.393 . S
C971 C970 1.391 . S
H972 C980 0.950 . S
H973 C985 0.950 . S
H974 C982 0.950 . S
H975 C984 0.950 . S
H976 C986 0.950 . S
H977 C988 0.950 . S
H978 C990 0.950 . S
H979 C991 0.950 . S
C980 H972 0.950 . S
C980 C981 1.386 . S
C980 C982 1.391 . S
C981 C980 1.386 . S
C981 C985 1.393 . S
C982 H974 0.950 . S
C982 C980 1.391 . S
C982 C983 1.400 . S
C983 C982 1.400 . S
C983 C984 1.398 . S
C983 C989 1.491 . S
C984 H975 0.950 . S
C984 C983 1.398 . S
C984 C985 1.391 . S
C985 H973 0.950 . S
C985 C981 1.393 . S
C985 C984 1.391 . S
C986 H976 0.950 . S
C986 C987 1.386 . S
C986 C988 1.391 . S
C987 C986 1.386 . S
C987 C991 1.393 1_556 S
C988 H977 0.950 . S
C988 C986 1.391 . S
C988 C989 1.400 . S
C989 C983 1.491 . S
C989 C988 1.400 . S
C989 C990 1.398 . S
C990 H978 0.950 . S
C990 C989 1.398 . S
C990 C991 1.391 1_556 S
C991 H979 0.950 . S
C991 C987 1.393 1_554 S
C991 C990 1.391 1_554 S
H992 C1000 0.950 . S
H993 C1005 0.950 . S
H994 C1002 0.950 . S
H995 C1004 0.950 . S
H996 C1006 0.950 . S
H997 C1008 0.950 . S
H998 C1010 0.950 . S
H999 C1011 0.950 . S
C1000 H992 0.950 . S
C1000 C1001 1.386 . S
C1000 C1002 1.391 . S
C1001 C1000 1.386 . S
C1001 C1005 1.393 . S
C1002 H994 0.950 . S
C1002 C1000 1.391 . S
C1002 C1003 1.400 . S
C1003 C1002 1.400 . S
C1003 C1004 1.398 . S
C1003 C1009 1.491 . S
C1004 H995 0.950 . S
C1004 C1003 1.398 . S
C1004 C1005 1.391 . S
C1005 H993 0.950 . S
C1005 C1001 1.393 . S
C1005 C1004 1.391 . S
C1006 H996 0.950 . S
C1006 C1007 1.386 . S
C1006 C1008 1.391 . S
C1007 C1006 1.386 . S
C1007 C1011 1.393 . S
C1008 H997 0.950 . S
C1008 C1006 1.391 . S
C1008 C1009 1.400 . S
C1009 C1003 1.491 . S
C1009 C1008 1.400 . S
C1009 C1010 1.398 . S
C1010 H998 0.950 . S
C1010 C1009 1.398 . S
C1010 C1011 1.391 . S
C1011 H999 0.950 . S
C1011 C1007 1.393 . S
C1011 C1010 1.391 . S
H1012 C1020 0.950 . S
H1013 C1025 0.950 . S
H1014 C1022 0.950 . S
H1015 C1024 0.950 . S
H1016 C1026 0.950 . S
H1017 C1028 0.950 . S
H1018 C1030 0.950 . S
H1019 C1031 0.950 . S
C1020 H1012 0.950 . S
C1020 C1021 1.386 . S
C1020 C1022 1.391 . S
C1021 C1020 1.386 . S
C1021 C1025 1.393 . S
C1022 H1014 0.950 . S
C1022 C1020 1.391 . S
C1022 C1023 1.400 . S
C1023 C1022 1.400 . S
C1023 C1024 1.398 . S
C1023 C1029 1.491 . S
C1024 H1015 0.950 . S
C1024 C1023 1.398 . S
C1024 C1025 1.391 . S
C1025 H1013 0.950 . S
C1025 C1021 1.393 . S
C1025 C1024 1.391 . S
C1026 H1016 0.950 . S
C1026 C1027 1.386 . S
C1026 C1028 1.391 . S
C1027 C1026 1.386 . S
C1027 C1031 1.393 . S
C1028 H1017 0.950 . S
C1028 C1026 1.391 . S
C1028 C1029 1.400 . S
C1029 C1023 1.491 . S
C1029 C1028 1.400 . S
C1029 C1030 1.398 . S
C1030 H1018 0.950 . S
C1030 C1029 1.398 . S
C1030 C1031 1.391 . S
C1031 H1019 0.950 . S
C1031 C1027 1.393 . S
C1031 C1030 1.391 . S
H1032 C1040 0.950 . S
H1033 C1045 0.950 . S
H1034 C1042 0.950 . S
H1035 C1044 0.950 . S
H1036 C1046 0.950 . S
H1037 C1048 0.950 . S
H1038 C1050 0.950 . S
H1039 C1051 0.950 . S
C1040 H1032 0.950 . S
C1040 C1041 1.386 . S
C1040 C1042 1.391 . S
C1041 C1040 1.386 . S
C1041 C1045 1.393 . S
C1042 H1034 0.950 . S
C1042 C1040 1.391 . S
C1042 C1043 1.400 . S
C1043 C1042 1.400 . S
C1043 C1044 1.398 . S
C1043 C1049 1.491 . S
C1044 H1035 0.950 . S
C1044 C1043 1.398 . S
C1044 C1045 1.391 . S
C1045 H1033 0.950 . S
C1045 C1041 1.393 . S
C1045 C1044 1.391 . S
C1046 H1036 0.950 . S
C1046 C1047 1.386 . S
C1046 C1048 1.391 . S
C1047 C1046 1.386 . S
C1047 C1051 1.393 . S
C1048 H1037 0.950 . S
C1048 C1046 1.391 . S
C1048 C1049 1.400 . S
C1049 C1043 1.491 . S
C1049 C1048 1.400 . S
C1049 C1050 1.398 . S
C1050 H1038 0.950 . S
C1050 C1049 1.398 . S
C1050 C1051 1.391 . S
C1051 H1039 0.950 . S
C1051 C1047 1.393 . S
C1051 C1050 1.391 . S
H1052 C1060 0.950 1_655 S
H1053 C1065 0.950 . S
H1054 C1062 0.950 . S
H1055 C1064 0.950 . S
H1056 C1066 0.950 1_455 S
H1057 C1068 0.950 . S
H1058 C1070 0.950 . S
H1059 C1071 0.950 . S
C1060 H1052 0.950 1_455 S
C1060 C1061 1.386 . S
C1060 C1062 1.391 1_455 S
C1061 C1060 1.386 . S
C1061 C1065 1.393 . S
C1062 H1054 0.950 . S
C1062 C1060 1.391 1_655 S
C1062 C1063 1.400 1_655 S
C1063 C1062 1.400 1_455 S
C1063 C1064 1.398 . S
C1063 C1069 1.505 1_455 S
C1064 H1055 0.950 . S
C1064 C1063 1.398 . S
C1064 C1065 1.391 . S
C1065 H1053 0.950 . S
C1065 C1061 1.393 . S
C1065 C1064 1.391 . S
C1066 H1056 0.950 1_655 S
C1066 C1067 1.386 . S
C1066 C1068 1.391 1_655 S
C1067 C1066 1.386 . S
C1067 C1071 1.393 . S
C1068 H1057 0.950 . S
C1068 C1066 1.391 1_455 S
C1068 C1069 1.385 1_456 S
C1069 C1063 1.505 1_655 S
C1069 C1068 1.385 1_654 S
C1069 C1070 1.399 . S
C1070 H1058 0.950 . S
C1070 C1069 1.399 . S
C1070 C1071 1.391 1_554 S
C1071 H1059 0.950 . S
C1071 C1067 1.393 . S
C1071 C1070 1.391 1_556 S
H1072 C1080 0.950 . S
H1073 C1085 0.950 . S
H1074 C1082 0.950 . S
H1075 C1084 0.950 . S
H1076 C1086 0.950 . S
H1077 C1088 0.950 . S
H1078 C1090 0.950 . S
H1079 C1091 0.950 . S
C1080 H1072 0.950 . S
C1080 C1081 1.386 . S
C1080 C1082 1.391 . S
C1081 C1080 1.386 . S
C1081 C1085 1.393 . S
C1082 H1074 0.950 . S
C1082 C1080 1.391 . S
C1082 C1083 1.400 . S
C1083 C1082 1.400 . S
C1083 C1084 1.398 . S
C1083 C1089 1.491 . S
C1084 H1075 0.950 . S
C1084 C1083 1.398 . S
C1084 C1085 1.391 . S
C1085 H1073 0.950 . S
C1085 C1081 1.393 . S
C1085 C1084 1.391 . S
C1086 H1076 0.950 . S
C1086 C1087 1.386 . S
C1086 C1088 1.391 . S
C1087 C1086 1.386 . S
C1087 C1091 1.393 . S
C1088 H1077 0.950 . S
C1088 C1086 1.391 . S
C1088 C1089 1.400 . S
C1089 C1083 1.491 . S
C1089 C1088 1.400 . S
C1089 C1090 1.398 . S
C1090 H1078 0.950 . S
C1090 C1089 1.398 . S
C1090 C1091 1.391 . S
C1091 H1079 0.950 . S
C1091 C1087 1.393 . S
C1091 C1090 1.391 . S
H1092 C1100 0.950 . S
H1093 C1105 0.950 . S
H1094 C1102 0.950 . S
H1095 C1104 0.950 . S
H1096 C1106 0.950 . S
H1097 C1108 0.950 . S
H1098 C1110 0.950 . S
H1099 C1111 0.950 . S
C1100 H1092 0.950 . S
C1100 C1101 1.386 . S
C1100 C1102 1.391 . S
C1101 C1100 1.386 . S
C1101 C1105 1.393 . S
C1102 H1094 0.950 . S
C1102 C1100 1.391 . S
C1102 C1103 1.400 . S
C1103 C1102 1.400 . S
C1103 C1104 1.398 . S
C1103 C1109 1.491 . S
C1104 H1095 0.950 . S
C1104 C1103 1.398 . S
C1104 C1105 1.391 . S
C1105 H1093 0.950 . S
C1105 C1101 1.393 . S
C1105 C1104 1.391 . S
C1106 H1096 0.950 . S
C1106 C1107 1.386 . S
C1106 C1108 1.391 . S
C1107 C1106 1.386 . S
C1107 C1111 1.393 . S
C1108 H1097 0.950 . S
C1108 C1106 1.391 . S
C1108 C1109 1.400 . S
C1109 C1103 1.491 . S
C1109 C1108 1.400 . S
C1109 C1110 1.398 . S
C1110 H1098 0.950 . S
C1110 C1109 1.398 . S
C1110 C1111 1.391 . S
C1111 H1099 0.950 . S
C1111 C1107 1.393 . S
C1111 C1110 1.391 . S
H1112 C1120 0.950 . S
H1113 C1125 0.950 1_565 S
H1114 C1122 0.928 1_654 S
H1115 C1124 0.950 . S
H1116 C1126 0.950 . S
H1117 C1128 0.928 1_455 S
H1118 C1130 0.950 . S
H1119 C1131 0.950 1_545 S
C1120 H1112 0.950 . S
C1120 C1121 1.386 . S
C1120 C1122 1.407 . S
C1121 C1120 1.386 . S
C1121 C1125 1.393 . S
C1122 H1114 0.928 1_456 S
C1122 C1120 1.407 . S
C1122 C1123 1.408 1_556 S
C1123 C1122 1.408 1_554 S
C1123 C1124 1.399 1_544 S
C1123 C1129 1.489 1_445 S
C1124 H1115 0.950 . S
C1124 C1123 1.399 1_566 S
C1124 C1125 1.391 1_565 S
C1125 H1113 0.950 1_545 S
C1125 C1121 1.393 . S
C1125 C1124 1.391 1_545 S
C1126 H1116 0.950 . S
C1126 C1127 1.386 . S
C1126 C1128 1.407 . S
C1127 C1126 1.386 . S
C1127 C1131 1.393 . S
C1128 H1117 0.928 1_655 S
C1128 C1126 1.407 . S
C1128 C1129 1.407 . S
C1129 C1123 1.489 1_665 S
C1129 C1128 1.407 . S
C1129 C1130 1.398 1_565 S
C1130 H1118 0.950 . S
C1130 C1129 1.398 1_545 S
C1130 C1131 1.391 1_545 S
C1131 H1119 0.950 1_565 S
C1131 C1127 1.393 . S
C1131 C1130 1.391 1_565 S
H1132 C1140 0.950 . S
H1133 C1145 0.950 . S
H1134 C1142 0.950 1_565 S
H1135 C1144 0.950 . S
H1136 C1146 0.950 . S
H1137 C1148 0.950 1_545 S
H1138 C1150 0.950 . S
H1139 C1151 0.950 . S
C1140 H1132 0.950 . S
C1140 C1141 1.386 . S
C1140 C1142 1.391 . S
C1141 C1140 1.386 . S
C1141 C1145 1.393 . S
C1142 H1134 0.950 1_545 S
C1142 C1140 1.391 . S
C1142 C1143 1.400 . S
C1143 C1142 1.400 . S
C1143 C1144 1.398 . S
C1143 C1149 1.491 1_545 S
C1144 H1135 0.950 . S
C1144 C1143 1.398 . S
C1144 C1145 1.391 . S
C1145 H1133 0.950 . S
C1145 C1141 1.393 . S
C1145 C1144 1.391 . S
C1146 H1136 0.950 . S
C1146 C1147 1.386 . S
C1146 C1148 1.391 . S
C1147 C1146 1.386 . S
C1147 C1151 1.393 . S
C1148 H1137 0.950 1_565 S
C1148 C1146 1.391 . S
C1148 C1149 1.400 . S
C1149 C1143 1.491 1_565 S
C1149 C1148 1.400 . S
C1149 C1150 1.398 . S
C1150 H1138 0.950 . S
C1150 C1149 1.398 . S
C1150 C1151 1.391 . S
C1151 H1139 0.950 . S
C1151 C1147 1.393 . S
C1151 C1150 1.391 . S
H1152 C1160 0.950 . S
H1153 C1165 0.950 . S
H1154 C1162 0.950 . S
H1155 C1164 0.950 . S
H1156 C1166 0.950 . S
H1157 C1168 0.950 . S
H1158 C1170 0.950 . S
H1159 C1171 0.950 . S
C1160 H1152 0.950 . S
C1160 C1161 1.386 . S
C1160 C1162 1.391 . S
C1161 C1160 1.386 . S
C1161 C1165 1.393 . S
C1162 H1154 0.950 . S
C1162 C1160 1.391 . S
C1162 C1163 1.400 . S
C1163 C1162 1.400 . S
C1163 C1164 1.398 . S
C1163 C1169 1.491 . S
C1164 H1155 0.950 . S
C1164 C1163 1.398 . S
C1164 C1165 1.391 . S
C1165 H1153 0.950 . S
C1165 C1161 1.393 . S
C1165 C1164 1.391 . S
C1166 H1156 0.950 . S
C1166 C1167 1.386 . S
C1166 C1168 1.391 . S
C1167 C1166 1.386 . S
C1167 C1171 1.393 . S
C1168 H1157 0.950 . S
C1168 C1166 1.391 . S
C1168 C1169 1.400 . S
C1169 C1163 1.491 . S
C1169 C1168 1.400 . S
C1169 C1170 1.398 . S
C1170 H1158 0.950 . S
C1170 C1169 1.398 . S
C1170 C1171 1.391 . S
C1171 H1159 0.950 . S
C1171 C1167 1.393 . S
C1171 C1170 1.391 . S
H1172 C1180 0.950 . S
H1173 C1185 0.950 . S
H1174 C1182 0.950 . S
H1175 C1184 0.950 . S
H1176 C1186 0.950 . S
H1177 C1188 0.950 . S
H1178 C1190 0.950 . S
H1179 C1191 0.950 . S
C1180 H1172 0.950 . S
C1180 C1181 1.386 . S
C1180 C1182 1.391 1_556 S
C1181 C1180 1.386 . S
C1181 C1185 1.393 . S
C1182 H1174 0.950 . S
C1182 C1180 1.391 1_554 S
C1182 C1183 1.400 . S
C1183 C1182 1.400 . S
C1183 C1184 1.398 1_554 S
C1183 C1189 1.491 . S
C1184 H1175 0.950 . S
C1184 C1183 1.398 1_556 S
C1184 C1185 1.391 . S
C1185 H1173 0.950 . S
C1185 C1181 1.393 . S
C1185 C1184 1.391 . S
C1186 H1176 0.950 . S
C1186 C1187 1.386 . S
C1186 C1188 1.391 . S
C1187 C1186 1.386 . S
C1187 C1191 1.393 . S
C1188 H1177 0.950 . S
C1188 C1186 1.391 . S
C1188 C1189 1.400 . S
C1189 C1183 1.491 . S
C1189 C1188 1.400 . S
C1189 C1190 1.398 . S
C1190 H1178 0.950 . S
C1190 C1189 1.398 . S
C1190 C1191 1.391 . S
C1191 H1179 0.950 . S
C1191 C1187 1.393 . S
C1191 C1190 1.391 . S
H1192 C1200 0.950 . S
H1193 C1205 0.950 . S
H1194 C1202 0.950 . S
H1195 C1204 0.950 . S
H1196 C1206 0.950 . S
H1197 C1208 0.950 . S
H1198 C1210 0.950 . S
H1199 C1211 0.950 . S
C1200 H1192 0.950 . S
C1200 C1201 1.386 . S
C1200 C1202 1.391 . S
C1201 C1200 1.386 . S
C1201 C1205 1.393 . S
C1202 H1194 0.950 . S
C1202 C1200 1.391 . S
C1202 C1203 1.400 . S
C1203 C1202 1.400 . S
C1203 C1204 1.398 . S
C1203 C1209 1.491 . S
C1204 H1195 0.950 . S
C1204 C1203 1.398 . S
C1204 C1205 1.391 . S
C1205 H1193 0.950 . S
C1205 C1201 1.393 . S
C1205 C1204 1.391 . S
C1206 H1196 0.950 . S
C1206 C1207 1.386 . S
C1206 C1208 1.391 . S
C1207 C1206 1.386 . S
C1207 C1211 1.393 . S
C1208 H1197 0.950 . S
C1208 C1206 1.391 . S
C1208 C1209 1.400 . S
C1209 C1203 1.491 . S
C1209 C1208 1.400 . S
C1209 C1210 1.398 . S
C1210 H1198 0.950 . S
C1210 C1209 1.398 . S
C1210 C1211 1.391 . S
C1211 H1199 0.950 . S
C1211 C1207 1.393 . S
C1211 C1210 1.391 . S
H1212 C1220 0.950 . S
H1213 C1225 0.950 . S
H1214 C1222 0.950 . S
H1215 C1224 0.950 . S
H1216 C1226 0.950 . S
H1217 C1228 0.950 . S
H1218 C1230 0.950 . S
H1219 C1231 0.950 . S
C1220 H1212 0.950 . S
C1220 C1221 1.386 . S
C1220 C1222 1.391 1_455 S
C1221 C1220 1.386 . S
C1221 C1225 1.393 . S
C1222 H1214 0.950 . S
C1222 C1220 1.391 1_655 S
C1222 C1223 1.400 1_655 S
C1223 C1222 1.400 1_455 S
C1223 C1224 1.398 . S
C1223 C1229 1.491 1_455 S
C1224 H1215 0.950 . S
C1224 C1223 1.398 . S
C1224 C1225 1.391 . S
C1225 H1213 0.950 . S
C1225 C1221 1.393 . S
C1225 C1224 1.391 . S
C1226 H1216 0.950 . S
C1226 C1227 1.386 . S
C1226 C1228 1.391 1_655 S
C1227 C1226 1.386 . S
C1227 C1231 1.393 . S
C1228 H1217 0.950 . S
C1228 C1226 1.391 1_455 S
C1228 C1229 1.400 1_455 S
C1229 C1223 1.491 1_655 S
C1229 C1228 1.400 1_655 S
C1229 C1230 1.398 . S
C1230 H1218 0.950 . S
C1230 C1229 1.398 . S
C1230 C1231 1.391 . S
C1231 H1219 0.950 . S
C1231 C1227 1.393 . S
C1231 C1230 1.391 . S
H1232 C1240 0.950 . S
H1233 C1245 0.950 . S
H1234 C1242 0.950 . S
H1235 C1244 0.950 . S
H1236 C1246 0.950 . S
H1237 C1248 0.950 . S
H1238 C1250 0.950 . S
H1239 C1251 0.950 . S
C1240 H1232 0.950 . S
C1240 C1241 1.386 . S
C1240 C1242 1.391 . S
C1241 C1240 1.386 . S
C1241 C1245 1.393 . S
C1242 H1234 0.950 . S
C1242 C1240 1.391 . S
C1242 C1243 1.400 . S
C1243 C1242 1.400 . S
C1243 C1244 1.398 . S
C1243 C1249 1.491 . S
C1244 H1235 0.950 . S
C1244 C1243 1.398 . S
C1244 C1245 1.391 . S
C1245 H1233 0.950 . S
C1245 C1241 1.393 . S
C1245 C1244 1.391 . S
C1246 H1236 0.950 . S
C1246 C1247 1.386 . S
C1246 C1248 1.391 . S
C1247 C1246 1.386 . S
C1247 C1251 1.393 . S
C1248 H1237 0.950 . S
C1248 C1246 1.391 . S
C1248 C1249 1.400 . S
C1249 C1243 1.491 . S
C1249 C1248 1.400 . S
C1249 C1250 1.398 . S
C1250 H1238 0.950 . S
C1250 C1249 1.398 . S
C1250 C1251 1.391 . S
C1251 H1239 0.950 . S
C1251 C1247 1.393 . S
C1251 C1250 1.391 . S
H1252 C1260 0.950 . S
H1253 C1265 0.950 . S
H1254 C1262 0.950 . S
H1255 C1264 0.950 . S
H1256 C1266 0.950 . S
H1257 C1268 0.950 . S
H1258 C1270 0.950 . S
H1259 C1271 0.950 . S
C1260 H1252 0.950 . S
C1260 C1261 1.386 . S
C1260 C1262 1.391 . S
C1261 C1260 1.386 . S
C1261 C1265 1.393 . S
C1262 H1254 0.950 . S
C1262 C1260 1.391 . S
C1262 C1263 1.400 . S
C1263 C1262 1.400 . S
C1263 C1264 1.398 . S
C1263 C1269 1.491 . S
C1264 H1255 0.950 . S
C1264 C1263 1.398 . S
C1264 C1265 1.391 . S
C1265 H1253 0.950 . S
C1265 C1261 1.393 . S
C1265 C1264 1.391 . S
C1266 H1256 0.950 . S
C1266 C1267 1.386 . S
C1266 C1268 1.391 . S
C1267 C1266 1.386 . S
C1267 C1271 1.393 . S
C1268 H1257 0.950 . S
C1268 C1266 1.391 . S
C1268 C1269 1.400 . S
C1269 C1263 1.491 . S
C1269 C1268 1.400 . S
C1269 C1270 1.398 . S
C1270 H1258 0.950 . S
C1270 C1269 1.398 . S
C1270 C1271 1.391 . S
C1271 H1259 0.950 . S
C1271 C1267 1.393 . S
C1271 C1270 1.391 . S
H1272 C1280 0.950 . S
H1273 C1285 0.950 . S
H1274 C1282 0.950 . S
H1275 C1284 0.950 . S
H1276 C1286 0.950 . S
H1277 C1288 0.950 . S
H1278 C1290 0.950 . S
H1279 C1291 0.950 . S
C1280 H1272 0.950 . S
C1280 C1281 1.386 . S
C1280 C1282 1.391 . S
C1281 C1280 1.386 . S
C1281 C1285 1.393 . S
C1282 H1274 0.950 . S
C1282 C1280 1.391 . S
C1282 C1283 1.400 . S
C1283 C1282 1.400 . S
C1283 C1284 1.398 1_565 S
C1283 C1289 1.491 1_665 S
C1284 H1275 0.950 . S
C1284 C1283 1.398 1_545 S
C1284 C1285 1.391 1_545 S
C1285 H1273 0.950 . S
C1285 C1281 1.393 . S
C1285 C1284 1.391 1_565 S
C1286 H1276 0.950 . S
C1286 C1287 1.386 . S
C1286 C1288 1.391 . S
C1287 C1286 1.386 . S
C1287 C1291 1.393 . S
C1288 H1277 0.950 . S
C1288 C1286 1.391 . S
C1288 C1289 1.400 . S
C1289 C1283 1.491 1_445 S
C1289 C1288 1.400 . S
C1289 C1290 1.398 1_545 S
C1290 H1278 0.950 . S
C1290 C1289 1.398 1_565 S
C1290 C1291 1.391 1_565 S
C1291 H1279 0.950 . S
C1291 C1287 1.393 . S
C1291 C1290 1.391 1_545 S
H1292 C1300 0.950 . S
H1293 C1305 0.950 . S
H1294 C1302 0.950 . S
H1295 C1304 0.950 1_565 S
H1296 C1306 0.950 . S
H1297 C1308 0.950 1_556 S
H1298 C1310 0.950 1_545 S
H1299 C1311 0.950 . S
C1300 H1292 0.950 . S
C1300 C1301 1.386 . S
C1300 C1302 1.391 1_556 S
C1301 C1300 1.386 . S
C1301 C1305 1.393 . S
C1302 H1294 0.950 . S
C1302 C1300 1.391 1_554 S
C1302 C1303 1.400 . S
C1303 C1302 1.400 . S
C1303 C1304 1.398 1_554 S
C1303 C1309 1.491 1_545 S
C1304 H1295 0.950 1_545 S
C1304 C1303 1.398 1_556 S
C1304 C1305 1.391 . S
C1305 H1293 0.950 . S
C1305 C1301 1.393 . S
C1305 C1304 1.391 . S
C1306 H1296 0.950 . S
C1306 C1307 1.386 . S
C1306 C1308 1.391 . S
C1307 C1306 1.386 . S
C1307 C1311 1.393 . S
C1308 H1297 0.950 1_554 S
C1308 C1306 1.391 . S
C1308 C1309 1.400 . S
C1309 C1303 1.491 1_565 S
C1309 C1308 1.400 . S
C1309 C1310 1.398 . S
C1310 H1298 0.950 1_565 S
C1310 C1309 1.398 . S
C1310 C1311 1.391 . S
C1311 H1299 0.950 . S
C1311 C1307 1.393 . S
C1311 C1310 1.391 . S
C361 C7 1.508 1_556 S
C367 C203 1.600 . S
C381 C225 1.607 . S
C387 C28 1.531 . S
C401 C251 1.600 . S
C407 C50 1.541 . S
C421 C185 1.586 . S
C427 C73 1.544 . S
C441 C93 1.521 . S
C447 C292 1.609 . S
C461 C115 1.543 . S
C467 C315 1.584 . S
C481 C337 1.592 . S
C487 C141 1.510 . S
C501 C270 1.595 . S
C507 C163 1.508 . S
C521 C27 1.586 . S
C527 C183 1.544 . S
C541 C49 1.585 . S
C547 C204 1.544 . S
C561 C75 1.606 . S
C567 C226 1.512 1_556 S
C581 C249 1.541 . S
C587 C9 1.582 . S
C601 C116 1.600 . S
C607 C269 1.542 . S
C621 C139 1.609 . S
C627 C291 1.525 . S
C641 C161 1.580 . S
C647 C317 1.535 . S
C661 C94 1.597 . S
C667 C339 1.544 . S
C681 C6 1.450 . S
C687 C334 1.517 . S
C701 C29 1.438 . S
C707 C96 1.513 . S
C721 C294 1.516 . S
C727 C51 1.444 . S
C741 C136 1.510 . S
C747 C72 1.463 . S
C761 C97 1.438 . S
C767 C246 1.509 . S
C781 C4 1.510 1_556 S
C787 C119 1.436 . S
C801 C137 1.436 . S
C807 C206 1.511 . S
C821 C159 1.462 . S
C827 C52 1.516 . S
C841 C182 1.463 . S
C847 C158 1.510 . S
C861 C272 1.517 . S
C867 C205 1.453 . S
C881 C227 1.442 . S
C887 C118 1.515 . S
C901 C312 1.508 . S
C907 C248 1.453 . S
C921 C273 1.436 . S
C927 C70 1.511 . S
C941 C180 1.517 . S
C947 C295 1.456 . S
C961 C313 1.457 . S
C967 C30 1.508 . S
C981 C335 1.443 . S
C987 C228 1.508 1_556 S
C1001 C8 1.360 . S
C1007 C268 1.360 . S
C1021 C114 1.361 . S
C1027 C26 1.361 . S
C1041 C48 1.359 . S
C1047 C316 1.359 . S
C1061 C162 1.365 . S
C1067 C74 1.365 . S
C1081 C92 1.378 . S
C1087 C184 1.378 . S
C1101 C224 1.359 . S
C1107 C140 1.359 . S
C1121 C202 1.361 . S
C1127 C290 1.361 . S
C1141 C338 1.364 . S
C1147 C250 1.364 . S
C1161 C271 1.147 . S
C1167 C5 1.147 . S
C1181 C117 1.125 . S
C1187 C31 1.125 . S
C1201 C53 1.149 . S
C1207 C314 1.149 . S
C1221 C160 1.112 . S
C1227 C71 1.112 . S
C1241 C95 1.112 . S
C1247 C181 1.112 . S
C1261 C138 1.140 . S
C1267 C229 1.140 . S
C1281 C293 1.129 . S
C1287 C207 1.129 . S
C1301 C336 1.140 . S
C1307 C247 1.140 . S
