# Generated by pormake.
# Topology uop, (4)-cn, num edge types: 1
# Building blocks:
#     Node 0, Type 0, BuildingBlock: NAWXER_clean_sbu_0, # of connection points: 4
#     Node 1, Type 0, BuildingBlock: NAWXER_clean_sbu_0, # of connection points: 4
#     Node 2, Type 0, BuildingBlock: NAWXER_clean_sbu_0, # of connection points: 4
#     Node 3, Type 0, BuildingBlock: NAWXER_clean_sbu_0, # of connection points: 4
#     Node 4, Type 0, BuildingBlock: NAWXER_clean_sbu_0, # of connection points: 4
#     Node 5, Type 0, BuildingBlock: NAWXER_clean_sbu_0, # of connection points: 4
#     Node 6, Type 0, BuildingBlock: NAWXER_clean_sbu_0, # of connection points: 4
#     Node 7, Type 0, BuildingBlock: NAWXER_clean_sbu_0, # of connection points: 4
#     Node 8, Type 0, BuildingBlock: NAWXER_clean_sbu_0, # of connection points: 4
#     Node 9, Type 0, BuildingBlock: NAWXER_clean_sbu_0, # of connection points: 4
#     Node 10, Type 0, BuildingBlock: NAWXER_clean_sbu_0, # of connection points: 4
#     Node 11, Type 0, BuildingBlock: NAWXER_clean_sbu_0, # of connection points: 4
#     Edge 12, Type (0, 0), BuildingBlock: XIVTED_clean_linker_0, # of connection points: 2
#     Edge 13, Type (0, 0), BuildingBlock: XIVTED_clean_linker_0, # of connection points: 2
#     Edge 14, Type (0, 0), BuildingBlock: XIVTED_clean_linker_0, # of connection points: 2
#     Edge 15, Type (0, 0), BuildingBlock: XIVTED_clean_linker_0, # of connection points: 2
#     Edge 16, Type (0, 0), BuildingBlock: XIVTED_clean_linker_0, # of connection points: 2
#     Edge 17, Type (0, 0), BuildingBlock: XIVTED_clean_linker_0, # of connection points: 2
#     Edge 18, Type (0, 0), BuildingBlock: XIVTED_clean_linker_0, # of connection points: 2
#     Edge 19, Type (0, 0), BuildingBlock: XIVTED_clean_linker_0, # of connection points: 2
#     Edge 20, Type (0, 0), BuildingBlock: XIVTED_clean_linker_0, # of connection points: 2
#     Edge 21, Type (0, 0), BuildingBlock: XIVTED_clean_linker_0, # of connection points: 2
#     Edge 22, Type (0, 0), BuildingBlock: XIVTED_clean_linker_0, # of connection points: 2
#     Edge 23, Type (0, 0), BuildingBlock: XIVTED_clean_linker_0, # of connection points: 2
#     Edge 24, Type (0, 0), BuildingBlock: XIVTED_clean_linker_0, # of connection points: 2
#     Edge 25, Type (0, 0), BuildingBlock: XIVTED_clean_linker_0, # of connection points: 2
#     Edge 26, Type (0, 0), BuildingBlock: XIVTED_clean_linker_0, # of connection points: 2
#     Edge 27, Type (0, 0), BuildingBlock: XIVTED_clean_linker_0, # of connection points: 2
#     Edge 28, Type (0, 0), BuildingBlock: XIVTED_clean_linker_0, # of connection points: 2
#     Edge 29, Type (0, 0), BuildingBlock: XIVTED_clean_linker_0, # of connection points: 2
#     Edge 30, Type (0, 0), BuildingBlock: XIVTED_clean_linker_0, # of connection points: 2
#     Edge 31, Type (0, 0), BuildingBlock: XIVTED_clean_linker_0, # of connection points: 2
#     Edge 32, Type (0, 0), BuildingBlock: XIVTED_clean_linker_0, # of connection points: 2
#     Edge 33, Type (0, 0), BuildingBlock: XIVTED_clean_linker_0, # of connection points: 2
#     Edge 34, Type (0, 0), BuildingBlock: XIVTED_clean_linker_0, # of connection points: 2
#     Edge 35, Type (0, 0), BuildingBlock: XIVTED_clean_linker_0, # of connection points: 2
# Relax obj value: 0.102
# Max RMSD: 0.272
# Mean RMSD: 0.272
data_MOF--net-uop--node1-NAWXER_clean_sbu_0--edge1-XIVTED_clean_linker_0
_symmetry_space_group_name_H-M    P1
_symmetry_Int_Tables_number       1
_symmetry_cell_setting            triclinic
loop_
_symmetry_equiv_pos_as_xyz
'x, y, z'
_cell_length_a     33.930964
_cell_length_b     33.96768
_cell_length_c     46.6842
_cell_angle_alpha  89.977277
_cell_angle_beta   90.001982
_cell_angle_gamma 120.04205
loop_
_atom_site_label
_atom_site_type_symbol
_atom_site_fract_x
_atom_site_fract_y
_atom_site_fract_z
_atom_type_partial_charge
C0 C 0.23519 0.36009 0.26105 0.0
C1 C 0.24112 0.48402 0.20632 0.0
O2 O 0.24031 0.35551 0.2342 0.0
Zn3 Zn 0.24402 0.39215 0.19508 0.0
O4 O 0.2309 0.39324 0.26952 0.0
Zn5 Zn 0.23696 0.42068 0.23305 0.0
O6 O 0.17366 0.37364 0.2125 0.0
O7 O 0.19164 0.34976 0.1734 0.0
O8 O 0.23663 0.47685 0.23309 0.0
O9 O 0.24414 0.45536 0.18988 0.0
O10 O 0.30251 0.40704 0.18001 0.0
O11 O 0.30648 0.44074 0.22119 0.0
C12 C 0.16148 0.34913 0.18977 0.0
C13 C 0.32629 0.43294 0.2003 0.0
C14 C 0.81027 0.16384 0.52181 0.0
C15 C 0.89119 0.32875 0.53028 0.0
O16 O 0.79899 0.17677 0.54465 0.0
Zn17 Zn 0.81575 0.24048 0.56455 0.0
O18 O 0.83881 0.19339 0.50469 0.0
Zn19 Zn 0.84953 0.24639 0.52591 0.0
O20 O 0.88442 0.24395 0.56448 0.0
O21 O 0.8389 0.23565 0.60062 0.0
O22 O 0.89233 0.30451 0.50995 0.0
O23 O 0.86454 0.30948 0.55167 0.0
O24 O 0.75906 0.23977 0.56552 0.0
O25 O 0.78579 0.24567 0.52176 0.0
C26 C 0.87597 0.23967 0.5915 0.0
C27 C 0.75485 0.24303 0.53878 0.0
C28 C 0.6337 0.87463 0.92663 0.0
C29 C 0.51033 0.75538 0.87208 0.0
O30 O 0.63843 0.88399 0.89973 0.0
Zn31 Zn 0.60203 0.85046 0.86067 0.0
O32 O 0.60053 0.83721 0.9352 0.0
Zn33 Zn 0.57328 0.81527 0.89875 0.0
O34 O 0.6206 0.7991 0.87859 0.0
O35 O 0.64475 0.84065 0.83934 0.0
O36 O 0.51721 0.75856 0.89889 0.0
O37 O 0.53904 0.78694 0.85555 0.0
O38 O 0.58702 0.89357 0.84512 0.0
O39 O 0.55302 0.86424 0.88632 0.0
C40 C 0.64529 0.81132 0.85592 0.0
C41 C 0.5609 0.89155 0.86524 0.0
C42 C 0.75484 0.63294 0.26144 0.0
C43 C 0.74811 0.50941 0.20599 0.0
O44 O 0.75019 0.63815 0.23465 0.0
Zn45 Zn 0.7474 0.6029 0.19537 0.0
O46 O 0.75883 0.59951 0.26964 0.0
Zn47 Zn 0.75247 0.57225 0.23293 0.0
O48 O 0.81654 0.61683 0.2123 0.0
O49 O 0.80093 0.64678 0.17511 0.0
O50 O 0.75075 0.51541 0.23289 0.0
O51 O 0.74682 0.53909 0.18953 0.0
O52 O 0.6896 0.58928 0.17963 0.0
O53 O 0.68371 0.55382 0.22039 0.0
C54 C 0.82991 0.64345 0.19053 0.0
C55 C 0.66491 0.56282 0.19946 0.0
C56 C 0.11633 0.75706 0.59346 0.0
C57 C 0.23616 0.75308 0.53966 0.0
O58 O 0.10706 0.75219 0.56655 0.0
Zn59 Zn 0.14102 0.74926 0.52764 0.0
O60 O 0.15374 0.76146 0.60217 0.0
Zn61 Zn 0.17585 0.75599 0.56587 0.0
O62 O 0.19204 0.81934 0.54555 0.0
O63 O 0.15091 0.80166 0.50611 0.0
O64 O 0.23258 0.75686 0.56641 0.0
O65 O 0.20478 0.75004 0.52289 0.0
O66 O 0.098 0.69097 0.51214 0.0
O67 O 0.12689 0.68662 0.55358 0.0
C68 C 0.17998 0.83166 0.52275 0.0
C69 C 0.09977 0.66703 0.53244 0.0
C70 C 0.35403 0.11267 0.92217 0.0
C71 C 0.4795 0.23441 0.87035 0.0
O72 O 0.35051 0.10442 0.89513 0.0
Zn73 Zn 0.38853 0.13971 0.85687 0.0
O74 O 0.3867 0.14979 0.93152 0.0
Zn75 Zn 0.41554 0.17331 0.89568 0.0
O76 O 0.36888 0.19 0.87521 0.0
O77 O 0.34655 0.15034 0.83519 0.0
O78 O 0.4715 0.23009 0.89704 0.0
O79 O 0.45156 0.20351 0.85318 0.0
O80 O 0.40449 0.09732 0.84115 0.0
O81 O 0.43635 0.12491 0.88311 0.0
C82 C 0.34513 0.17877 0.85216 0.0
C83 C 0.42954 0.09848 0.86171 0.0
C84 C 0.5094 0.75227 0.45828 0.0
C85 C 0.6334 0.75502 0.40531 0.0
O86 O 0.53786 0.74979 0.47523 0.0
Zn87 Zn 0.60087 0.74908 0.47096 0.0
O88 O 0.51663 0.75531 0.43151 0.0
Zn89 Zn 0.57266 0.75465 0.43238 0.0
O90 O 0.55238 0.68575 0.44554 0.0
O91 O 0.58553 0.69118 0.48718 0.0
O92 O 0.60042 0.75918 0.39624 0.0
O93 O 0.63773 0.75092 0.43233 0.0
O94 O 0.64348 0.80228 0.49192 0.0
O95 O 0.61986 0.81856 0.45203 0.0
C96 C 0.5599 0.66672 0.46699 0.0
C97 C 0.64433 0.83169 0.47477 0.0
C98 C 0.87386 0.63447 0.73785 0.0
C99 C 0.75388 0.50958 0.79091 0.0
O100 O 0.88304 0.63838 0.76477 0.0
Zn101 Zn 0.84892 0.6007 0.80346 0.0
O102 O 0.83651 0.60157 0.72896 0.0
Zn103 Zn 0.8143 0.57331 0.76508 0.0
O104 O 0.79803 0.62008 0.78582 0.0
O105 O 0.8389 0.64276 0.82539 0.0
O106 O 0.7576 0.51743 0.76421 0.0
O107 O 0.78516 0.53762 0.80785 0.0
O108 O 0.8919 0.5852 0.81871 0.0
O109 O 0.86327 0.55277 0.77706 0.0
C110 C 0.80994 0.64401 0.80879 0.0
C111 C 0.89029 0.55993 0.79819 0.0
C112 C 0.24414 0.75887 0.12502 0.0
C113 C 0.23534 0.87401 0.0688 0.0
O114 O 0.24481 0.78978 0.14123 0.0
Zn115 Zn 0.2431 0.85234 0.13501 0.0
O116 O 0.24159 0.76183 0.09807 0.0
Zn117 Zn 0.23886 0.81646 0.09761 0.0
O118 O 0.30717 0.86751 0.11022 0.0
O119 O 0.30067 0.89734 0.15069 0.0
O120 O 0.23226 0.83691 0.06077 0.0
O121 O 0.23966 0.88399 0.09557 0.0
O122 O 0.18905 0.8417 0.15511 0.0
O123 O 0.17454 0.79601 0.11812 0.0
C124 C 0.32563 0.89564 0.13102 0.0
C125 C 0.16059 0.80892 0.13976 0.0
C126 C 0.48025 0.24246 0.45857 0.0
C127 C 0.35566 0.23835 0.4056 0.0
O128 O 0.45215 0.24558 0.47551 0.0
Zn129 Zn 0.38914 0.24636 0.4712 0.0
O130 O 0.47253 0.23858 0.43185 0.0
Zn131 Zn 0.41665 0.23944 0.43275 0.0
O132 O 0.43738 0.30883 0.445 0.0
O133 O 0.40483 0.30476 0.48667 0.0
O134 O 0.38846 0.2338 0.39665 0.0
O135 O 0.3517 0.24336 0.43255 0.0
O136 O 0.34682 0.19398 0.49292 0.0
O137 O 0.36969 0.17621 0.45329 0.0
C138 C 0.43024 0.32856 0.4662 0.0
C139 C 0.34562 0.16395 0.47622 0.0
C140 C 0.11591 0.35834 0.73762 0.0
C141 C 0.2354 0.48127 0.79229 0.0
O142 O 0.10674 0.35337 0.76455 0.0
Zn143 Zn 0.14041 0.38952 0.80364 0.0
O144 O 0.15321 0.39168 0.72902 0.0
Zn145 Zn 0.17533 0.41857 0.76553 0.0
O146 O 0.19159 0.37104 0.78528 0.0
O147 O 0.1504 0.34668 0.82467 0.0
O148 O 0.23204 0.47463 0.76546 0.0
O149 O 0.20394 0.45242 0.80882 0.0
O150 O 0.09715 0.40425 0.81941 0.0
O151 O 0.12613 0.43839 0.7782 0.0
C152 C 0.17953 0.34617 0.80787 0.0
C153 C 0.09887 0.4303 0.79934 0.0
C154 C 0.75089 0.23835 0.12321 0.0
C155 C 0.75543 0.11806 0.07041 0.0
O156 O 0.74747 0.20695 0.14009 0.0
Zn157 Zn 0.74682 0.14334 0.1359 0.0
O158 O 0.7554 0.23493 0.09651 0.0
Zn159 Zn 0.75439 0.1781 0.09744 0.0
O160 O 0.68468 0.12956 0.10948 0.0
O161 O 0.68807 0.10064 0.15114 0.0
O162 O 0.7603 0.15549 0.06141 0.0
O163 O 0.7501 0.10905 0.09735 0.0
O164 O 0.79904 0.15347 0.1579 0.0
O165 O 0.81739 0.19434 0.11834 0.0
C166 C 0.66456 0.1026 0.1306 0.0
C167 C 0.82936 0.18247 0.14136 0.0
H168 H 0.24507 0.73878 0.18184 0.0
H169 H 0.24783 0.50851 0.14989 0.0
H170 H 0.24614 0.68935 0.09679 0.0
H171 H 0.23829 0.55297 0.23496 0.0
H172 H 0.25002 0.57614 0.13019 0.0
H173 H 0.2455 0.67249 0.20188 0.0
C174 C 0.24551 0.71408 0.16737 0.0
C175 C 0.24549 0.71961 0.13758 0.0
C176 C 0.24747 0.57113 0.15317 0.0
C177 C 0.24593 0.64367 0.16037 0.0
C178 C 0.24623 0.5325 0.16445 0.0
C179 C 0.24279 0.525 0.19413 0.0
C180 C 0.24532 0.60259 0.1717 0.0
C181 C 0.24088 0.55731 0.21193 0.0
C182 C 0.24569 0.6762 0.17883 0.0
C183 C 0.24605 0.68648 0.11989 0.0
N184 N 0.24215 0.59468 0.20044 0.0
N185 N 0.24621 0.64995 0.13155 0.0
H186 H 0.68471 0.24137 0.56882 0.0
H187 H 0.54844 0.2402 0.42859 0.0
H188 H 0.73291 0.24574 0.48262 0.0
H189 H 0.50535 0.24617 0.51473 0.0
H190 H 0.61551 0.24078 0.44802 0.0
H191 H 0.61806 0.24168 0.54942 0.0
C192 C 0.68132 0.24242 0.5458 0.0
C193 C 0.71448 0.24353 0.52732 0.0
C194 C 0.59143 0.24202 0.46268 0.0
C195 C 0.63816 0.24384 0.50496 0.0
C196 C 0.55307 0.24165 0.4516 0.0
C197 C 0.52118 0.24313 0.47007 0.0
C198 C 0.59795 0.24375 0.49245 0.0
C199 C 0.52903 0.24502 0.49969 0.0
C200 C 0.64324 0.24263 0.53474 0.0
C201 C 0.70824 0.24489 0.49768 0.0
N202 N 0.56659 0.24521 0.50996 0.0
N203 N 0.6708 0.24494 0.48743 0.0
H204 H 0.48692 0.7358 0.81558 0.0
H205 H 0.25541 0.50417 0.84882 0.0
H206 H 0.44104 0.68415 0.90096 0.0
H207 H 0.30645 0.55077 0.76342 0.0
H208 H 0.32198 0.57115 0.86834 0.0
H209 H 0.41974 0.66944 0.79608 0.0
C210 C 0.46272 0.71054 0.83025 0.0
C211 C 0.46967 0.71555 0.85997 0.0
C212 C 0.31862 0.56672 0.84533 0.0
C213 C 0.39263 0.63947 0.83776 0.0
C214 C 0.28058 0.52849 0.83416 0.0
C215 C 0.27534 0.52181 0.80443 0.0
C216 C 0.35165 0.5986 0.82665 0.0
C217 C 0.30908 0.55448 0.78648 0.0
C218 C 0.42437 0.67262 0.81909 0.0
C219 C 0.43713 0.68169 0.87791 0.0
N220 N 0.34577 0.59145 0.79788 0.0
N221 N 0.40003 0.64511 0.86653 0.0
H222 H 0.74644 0.43866 0.23497 0.0
H223 H 0.75445 0.30977 0.09358 0.0
H224 H 0.74781 0.48755 0.14936 0.0
H225 H 0.74455 0.25779 0.17931 0.0
H226 H 0.75276 0.37547 0.11342 0.0
H227 H 0.74632 0.37248 0.21476 0.0
C228 C 0.74666 0.43548 0.21189 0.0
C229 C 0.74718 0.46878 0.19383 0.0
C230 C 0.75089 0.34965 0.12787 0.0
C231 C 0.74714 0.39293 0.17051 0.0
C232 C 0.7519 0.31214 0.11657 0.0
C233 C 0.74968 0.27821 0.13482 0.0
C234 C 0.74775 0.35335 0.15764 0.0
C235 C 0.74636 0.28309 0.16442 0.0
C236 C 0.74657 0.39761 0.20036 0.0
C237 C 0.74738 0.46272 0.1641 0.0
N238 N 0.74556 0.31997 0.1749 0.0
N239 N 0.74746 0.42557 0.15336 0.0
H240 H 0.44063 0.75376 0.42847 0.0
H241 H 0.30685 0.75527 0.56927 0.0
H242 H 0.48525 0.74981 0.51451 0.0
H243 H 0.25701 0.74941 0.48336 0.0
H244 H 0.3731 0.75462 0.54953 0.0
H245 H 0.37381 0.75351 0.44812 0.0
C246 C 0.43639 0.75282 0.4515 0.0
C247 C 0.46863 0.75182 0.46987 0.0
C248 C 0.34766 0.75342 0.53499 0.0
C249 C 0.39218 0.75157 0.49251 0.0
C250 C 0.3098 0.75383 0.54625 0.0
C251 C 0.27629 0.7524 0.52794 0.0
C252 C 0.35219 0.7517 0.50519 0.0
C253 C 0.28197 0.75053 0.49828 0.0
C254 C 0.39819 0.75264 0.4627 0.0
C255 C 0.46129 0.75059 0.49953 0.0
N256 N 0.31923 0.7503 0.48783 0.0
N257 N 0.42389 0.75056 0.50992 0.0
H258 H 0.54763 0.30444 0.9007 0.0
H259 H 0.68361 0.44143 0.76085 0.0
H260 H 0.50486 0.25657 0.81433 0.0
H261 H 0.73243 0.48422 0.84706 0.0
H262 H 0.61717 0.37422 0.78015 0.0
H263 H 0.61481 0.37124 0.88154 0.0
C264 C 0.55235 0.30794 0.8777 0.0
C265 C 0.52052 0.27483 0.85909 0.0
C266 C 0.64243 0.39826 0.79486 0.0
C267 C 0.59737 0.3513 0.83702 0.0
C268 C 0.6804 0.43671 0.78386 0.0
C269 C 0.71367 0.46855 0.80237 0.0
C270 C 0.63754 0.39159 0.82462 0.0
C271 C 0.70766 0.46057 0.83199 0.0
C272 C 0.59077 0.34609 0.86678 0.0
C273 C 0.52848 0.28119 0.82949 0.0
N274 N 0.67028 0.42291 0.84219 0.0
N275 N 0.56606 0.3187 0.81938 0.0
H276 H 0.61109 0.55516 0.15361 0.0
H277 H 0.38475 0.46866 0.24565 0.0
H278 H 0.60506 0.52659 0.2441 0.0
H279 H 0.38179 0.44303 0.1549 0.0
H280 H 0.46734 0.50021 0.24536 0.0
H281 H 0.52843 0.52382 0.15354 0.0
C282 C 0.5924 0.54232 0.17345 0.0
C283 C 0.61496 0.54337 0.19889 0.0
C284 C 0.44856 0.48766 0.22554 0.0
C285 C 0.52068 0.50809 0.19899 0.0
C286 C 0.40149 0.46988 0.22564 0.0
C287 C 0.37635 0.45314 0.20026 0.0
C288 C 0.47077 0.48944 0.19979 0.0
C289 C 0.39983 0.45538 0.17498 0.0
C290 C 0.54527 0.52434 0.17336 0.0
C291 C 0.58901 0.52619 0.22397 0.0
N292 N 0.44578 0.47343 0.17534 0.0
N293 N 0.5433 0.50955 0.22344 0.0
H294 H 0.07701 0.60801 0.57747 0.0
H295 H 0.9359 0.38329 0.48434 0.0
H296 H 0.05437 0.6122 0.48681 0.0
H297 H 0.91555 0.3879 0.57528 0.0
H298 H 0.98712 0.46587 0.48457 0.0
H299 H 0.02585 0.52555 0.57682 0.0
C300 C 0.06147 0.59157 0.5574 0.0
C301 C 0.06992 0.61702 0.53215 0.0
C302 C 0.97128 0.44874 0.50442 0.0
C303 C 0.0116 0.52274 0.53127 0.0
C304 C 0.94218 0.40166 0.50434 0.0
C305 C 0.92134 0.37871 0.52982 0.0
C306 C 0.98024 0.4729 0.53026 0.0
C307 C 0.93066 0.40424 0.55511 0.0
C308 C 0.0321 0.54457 0.55709 0.0
C309 C 0.04865 0.59392 0.50679 0.0
N310 N 0.95967 0.44992 0.55473 0.0
N311 N 0.02064 0.54803 0.50695 0.0
H312 H 0.44062 0.05441 0.81597 0.0
H313 H 0.5236 0.91366 0.90998 0.0
H314 H 0.46368 0.07407 0.90708 0.0
H315 H 0.55215 0.93719 0.81953 0.0
H316 H 0.49191 0.96444 0.90903 0.0
H317 H 0.47243 0.00362 0.81656 0.0
C318 C 0.45239 0.04806 0.83608 0.0
C319 C 0.44961 0.06858 0.86151 0.0
C320 C 0.50514 0.95847 0.88942 0.0
C321 C 0.48542 0.01018 0.86236 0.0
C322 C 0.523 0.92932 0.88989 0.0
C323 C 0.54058 0.92123 0.86479 0.0
C324 C 0.50417 0.9791 0.86357 0.0
C325 C 0.53912 0.94264 0.8394 0.0
C326 C 0.47062 0.01921 0.83638 0.0
C327 C 0.46542 0.0592 0.88695 0.0
N328 N 0.52101 0.97042 0.83939 0.0
N329 N 0.48236 0.03044 0.88677 0.0
H330 H 0.55056 0.61276 0.51312 0.0
H331 H 0.46582 0.3871 0.4209 0.0
H332 H 0.52444 0.60701 0.42229 0.0
H333 H 0.44032 0.38383 0.5117 0.0
H334 H 0.49705 0.46951 0.42123 0.0
H335 H 0.51919 0.53021 0.51325 0.0
C336 C 0.53821 0.59415 0.49322 0.0
C337 C 0.54002 0.61677 0.46766 0.0
C338 C 0.48459 0.45071 0.44106 0.0
C339 C 0.50471 0.52261 0.46763 0.0
C340 C 0.46701 0.40374 0.44094 0.0
C341 C 0.45041 0.37856 0.46632 0.0
C342 C 0.48627 0.47279 0.46683 0.0
C343 C 0.45258 0.4019 0.49162 0.0
C344 C 0.52023 0.54708 0.49334 0.0
C345 C 0.52346 0.59093 0.44251 0.0
N346 N 0.47041 0.44777 0.49127 0.0
N347 N 0.5068 0.54528 0.44309 0.0
H348 H 0.91368 0.52495 0.75278 0.0
H349 H 0.05331 0.43881 0.84519 0.0
H350 H 0.9352 0.54942 0.84369 0.0
H351 H 0.07543 0.46643 0.75458 0.0
H352 H 0.00214 0.47018 0.84515 0.0
H353 H 0.96492 0.49372 0.75311 0.0
C354 C 0.92899 0.52354 0.77283 0.0
C355 C 0.9202 0.53984 0.79825 0.0
C356 C 0.01834 0.46947 0.82532 0.0
C357 C 0.97858 0.50396 0.79877 0.0
C358 C 0.04742 0.45148 0.8253 0.0
C359 C 0.06874 0.45011 0.79986 0.0
C360 C 0.00989 0.48544 0.79963 0.0
C361 C 0.05992 0.46707 0.77471 0.0
C362 C 0.95839 0.50595 0.77296 0.0
C363 C 0.94118 0.53739 0.82359 0.0
N364 N 0.03091 0.48374 0.77518 0.0
N365 N 0.96922 0.51956 0.82324 0.0
H366 H 0.37911 0.94276 0.17681 0.0
H367 H 0.60643 0.0796 0.08508 0.0
H368 H 0.38577 0.91877 0.08662 0.0
H369 H 0.60856 0.05862 0.17613 0.0
H370 H 0.52372 0.02939 0.08529 0.0
H371 H 0.46183 0.99391 0.17702 0.0
C372 C 0.39794 0.94829 0.15706 0.0
C373 C 0.37555 0.92638 0.13167 0.0
C374 C 0.54234 0.03581 0.10521 0.0
C375 C 0.46988 0.98514 0.13173 0.0
C376 C 0.58948 0.06463 0.10514 0.0
C377 C 0.61443 0.07325 0.13062 0.0
C378 C 0.51985 0.01606 0.13101 0.0
C379 C 0.59068 0.05273 0.15597 0.0
C380 C 0.4451 0.97733 0.15723 0.0
C381 C 0.40167 0.93473 0.10671 0.0
N382 N 0.54466 0.02526 0.15556 0.0
N383 N 0.4474 0.96367 0.10732 0.0
H384 H 0.21849 0.35535 0.31864 0.0
H385 H 0.3477 0.21913 0.34833 0.0
H386 H 0.26047 0.29613 0.25196 0.0
H387 H 0.2944 0.26709 0.41525 0.0
H388 H 0.30637 0.23738 0.31298 0.0
H389 H 0.23614 0.31399 0.35432 0.0
C390 C 0.23085 0.33316 0.31146 0.0
C391 C 0.23873 0.32977 0.28229 0.0
C392 C 0.30315 0.24334 0.33542 0.0
C393 C 0.25943 0.28263 0.32309 0.0
C394 C 0.3268 0.23295 0.35564 0.0
C395 C 0.32508 0.2423 0.38475 0.0
C396 C 0.27802 0.26374 0.34432 0.0
C397 C 0.29702 0.2597 0.393 0.0
C398 C 0.24089 0.3095 0.33187 0.0
C399 C 0.25429 0.3001 0.27423 0.0
N400 N 0.27515 0.27054 0.37283 0.0
N401 N 0.26479 0.27821 0.29456 0.0
H402 H 0.96509 0.26525 0.58098 0.0
H403 H 0.02736 0.29258 0.74744 0.0
H404 H 0.86618 0.22362 0.64917 0.0
H405 H 0.12619 0.35561 0.67966 0.0
H406 H 0.96846 0.25177 0.71142 0.0
H407 H 0.02447 0.28296 0.61663 0.0
C408 C 0.95572 0.25912 0.60339 0.0
C409 C 0.91075 0.24366 0.61216 0.0
C410 C 0.00317 0.27409 0.70446 0.0
C411 C 0.97848 0.26403 0.65299 0.0
C412 C 0.03684 0.29731 0.72501 0.0
C413 C 0.08161 0.32816 0.71652 0.0
C414 C 0.01438 0.28176 0.67524 0.0
C415 C 0.09197 0.33269 0.68717 0.0
C416 C 0.98966 0.26938 0.62373 0.0
C417 C 0.90053 0.23615 0.64148 0.0
N418 N 0.0585 0.31015 0.66757 0.0
N419 N 0.93422 0.24686 0.66087 0.0
H420 H 0.63848 0.86326 0.98429 0.0
H421 H 0.77433 0.129 0.01306 0.0
H422 H 0.69745 0.96394 0.91723 0.0
H423 H 0.72693 0.02822 0.08031 0.0
H424 H 0.75601 0.06919 0.97789 0.0
H425 H 0.6798 0.92265 0.01976 0.0
C426 C 0.6606 0.89779 0.97698 0.0
C427 C 0.66394 0.90879 0.94777 0.0
C428 C 0.75019 0.06018 0.00037 0.0
C429 C 0.71103 0.97706 0.98832 0.0
C430 C 0.76062 0.09434 0.02048 0.0
C431 C 0.75145 0.08347 0.04963 0.0
C432 C 0.72994 0.01473 0.00941 0.0
C433 C 0.73418 0.03808 0.05803 0.0
C434 C 0.68424 0.93171 0.99727 0.0
C435 C 0.69352 0.95399 0.93954 0.0
N436 N 0.72331 0.00526 0.03796 0.0
N437 N 0.71539 0.9866 0.95976 0.0
H438 H 0.6415 0.77354 0.34795 0.0
H439 H 0.76891 0.63543 0.31932 0.0
H440 H 0.69418 0.72586 0.41543 0.0
H441 H 0.73145 0.69825 0.25238 0.0
H442 H 0.75076 0.6765 0.35495 0.0
H443 H 0.68289 0.75483 0.31293 0.0
C444 C 0.66227 0.75967 0.35544 0.0
C445 C 0.66384 0.75059 0.38461 0.0
C446 C 0.74713 0.68183 0.33246 0.0
C447 C 0.71096 0.72861 0.34458 0.0
C448 C 0.75746 0.65835 0.31209 0.0
C449 C 0.75099 0.66286 0.28284 0.0
C450 C 0.72974 0.70964 0.32355 0.0
C451 C 0.73652 0.69338 0.27471 0.0
C452 C 0.68597 0.74903 0.33542 0.0
C453 C 0.69172 0.73308 0.39312 0.0
N454 N 0.72572 0.71509 0.29498 0.0
N455 N 0.71362 0.72198 0.37314 0.0
H456 H 0.12802 0.7749 0.6509 0.0
H457 H 0.86222 0.6419 0.68055 0.0
H458 H 0.02656 0.72998 0.58413 0.0
H459 H 0.96366 0.69684 0.74739 0.0
H460 H 0.92159 0.68377 0.64513 0.0
H461 H 0.06869 0.75674 0.68645 0.0
C462 C 0.09332 0.76177 0.64367 0.0
C463 C 0.0821 0.75321 0.61453 0.0
C464 C 0.93084 0.68722 0.66757 0.0
C465 C 0.01389 0.73193 0.65519 0.0
C466 C 0.89693 0.66326 0.68783 0.0
C467 C 0.90813 0.66528 0.71694 0.0
C468 C 0.97638 0.71298 0.67643 0.0
C469 C 0.95356 0.69395 0.72515 0.0
C470 C 0.05943 0.75144 0.66401 0.0
C471 C 0.03669 0.73671 0.60639 0.0
N472 N 0.98615 0.71613 0.70494 0.0
N473 N 0.00412 0.72593 0.62667 0.0
H474 H 0.25392 0.96131 0.07785 0.0
H475 H 0.29247 0.0231 0.9114 0.0
H476 H 0.22445 0.86299 0.01069 0.0
H477 H 0.34545 0.12218 0.97959 0.0
H478 H 0.25099 0.96341 0.94692 0.0
H479 H 0.27086 0.01933 0.04146 0.0
C480 C 0.25032 0.95172 0.05546 0.0
C481 C 0.23853 0.9074 0.04729 0.0
C482 C 0.27121 -0.00168 0.95404 0.0
C483 C 0.25808 0.9737 0.00558 0.0
C484 C 0.29477 0.03243 0.93378 0.0
C485 C 0.32307 0.07757 0.94261 0.0
C486 C 0.27591 0.00951 0.98328 0.0
C487 C 0.32459 0.08772 0.97187 0.0
C488 C 0.26011 0.98491 0.0347 0.0
C489 C 0.23407 0.89689 0.01796 0.0
N490 N 0.30176 0.05388 0.99119 0.0
N491 N 0.24437 0.92994 0.99815 0.0
H492 H 0.86699 0.18564 0.19382 0.0
H493 H 0.12368 0.31265 0.13771 0.0
H494 H 0.9027 0.227 0.10576 0.0
H495 H 0.08819 0.3221 0.22523 0.0
H496 H 0.04251 0.2691 0.12582 0.0
H497 H 0.94816 0.22364 0.20584 0.0
C498 C 0.89188 0.20242 0.17699 0.0
C499 C 0.87811 0.20337 0.14877 0.0
C500 C 0.05259 0.28065 0.14762 0.0
C501 C 0.97075 0.24644 0.16234 0.0
C502 C 0.09883 0.30531 0.15446 0.0
C503 C 0.11268 0.32119 0.18248 0.0
C504 C 0.02 0.27117 0.16905 0.0
C505 C 0.07901 0.31078 0.20331 0.0
C506 C 0.93812 0.22423 0.18389 0.0
C507 C 0.91183 0.22572 0.12783 0.0
N508 N 0.0342 0.28629 0.1962 0.0
N509 N 0.95662 0.24626 0.13501 0.0
H510 H 0.76659 0.09239 0.55879 0.0
H511 H 0.67136 0.90302 0.43776 0.0
H512 H 0.80594 0.12373 0.47011 0.0
H513 H 0.68089 0.87202 0.52629 0.0
H514 H 0.71511 0.98418 0.44912 0.0
H515 H 0.72929 0.01129 0.54735 0.0
C516 C 0.76746 0.0822 0.53692 0.0
C517 C 0.7893 0.11483 0.51534 0.0
C518 C 0.70785 0.95958 0.466 0.0
C519 C 0.74635 0.0222 0.50211 0.0
C520 C 0.68275 0.91329 0.45958 0.0
C521 C 0.6724 0.88074 0.48114 0.0
C522 C 0.72199 0.97342 0.49429 0.0
C523 C 0.6882 0.89597 0.50901 0.0
C524 C 0.74634 0.03595 0.53045 0.0
C525 C 0.78958 0.09971 0.4874 0.0
N526 N 0.71185 0.94125 0.51485 0.0
N527 N 0.76801 0.05444 0.48152 0.0
H528 H 0.8071 0.67899 0.86108 0.0
H529 H 0.68191 0.80958 0.80402 0.0
H530 H 0.76573 0.67279 0.77299 0.0
H531 H 0.67202 0.76534 0.89175 0.0
H532 H 0.72505 0.77152 0.79245 0.0
H533 H 0.76977 0.7228 0.87281 0.0
C534 C 0.79044 0.6871 0.84419 0.0
C535 C 0.7893 0.67207 0.81604 0.0
C536 C 0.7135 0.77031 0.81423 0.0
C537 C 0.74702 0.72235 0.82927 0.0
C538 C 0.68909 0.79215 0.82088 0.0
C539 C 0.67318 0.7904 0.84886 0.0
C540 C 0.72269 0.74724 0.8358 0.0
C541 C 0.68337 0.76724 0.86986 0.0
C542 C 0.76903 0.7119 0.85092 0.0
C543 C 0.76713 0.68344 0.795 0.0
N544 N 0.70761 0.74665 0.86292 0.0
N545 N 0.74697 0.70804 0.80202 0.0
H546 H 0.87746 0.72803 0.16644 0.0
H547 H 0.09961 0.71896 0.13278 0.0
H548 H 0.89284 0.61699 0.19781 0.0
H549 H 0.11096 0.84409 0.16328 0.0
H550 H 0.01857 0.67878 0.14571 0.0
H551 H 0.95908 0.76982 0.15443 0.0
C552 C 0.89801 0.71247 0.17069 0.0
C553 C 0.87867 0.66917 0.18318 0.0
C554 C 0.03893 0.71504 0.14949 0.0
C555 C 0.97092 0.71599 0.16899 0.0
C556 C 0.08491 0.73795 0.14204 0.0
C557 C 0.1118 0.78479 0.14708 0.0
C558 C 0.01956 0.73943 0.16123 0.0
C559 C 0.09129 0.80788 0.15925 0.0
C560 C 0.94437 0.73633 0.16398 0.0
C561 C 0.90665 0.65046 0.18837 0.0
N562 N 0.0461 0.78502 0.16565 0.0
N563 N 0.95135 0.67377 0.18091 0.0
H564 H 0.18196 0.87005 0.47081 0.0
H565 H 0.31025 0.12559 0.52838 0.0
H566 H 0.22515 0.90435 0.5587 0.0
H567 H 0.31732 0.09126 0.44024 0.0
H568 H 0.2668 0.04434 0.53992 0.0
H569 H 0.21946 0.95128 0.45935 0.0
C570 C 0.19905 0.89465 0.48772 0.0
C571 C 0.20067 0.88047 0.51572 0.0
C572 C 0.2778 0.05471 0.51806 0.0
C573 C 0.24318 0.97318 0.50279 0.0
C574 C 0.30239 0.10098 0.51143 0.0
C575 C 0.31759 0.11515 0.48333 0.0
C576 C 0.26773 0.02245 0.49635 0.0
C577 C 0.30654 0.08181 0.46222 0.0
C578 C 0.22057 0.94092 0.48114 0.0
C579 C 0.22338 0.91381 0.53679 0.0
N580 N 0.28215 0.03697 0.46914 0.0
N581 N 0.24365 0.95865 0.52991 0.0
H582 H 0.18112 0.3084 0.85935 0.0
H583 H 0.31052 0.18325 0.80004 0.0
H584 H 0.2252 0.31983 0.77147 0.0
H585 H 0.31623 0.22199 0.88865 0.0
H586 H 0.26712 0.22129 0.78897 0.0
H587 H 0.21863 0.26449 0.87018 0.0
C588 C 0.19841 0.30142 0.8423 0.0
C589 C 0.20027 0.31797 0.8145 0.0
C590 C 0.27782 0.22129 0.81083 0.0
C591 C 0.2428 0.26758 0.82671 0.0
C592 C 0.30237 0.19946 0.81718 0.0
C593 C 0.31717 0.19968 0.84528 0.0
C594 C 0.26737 0.24278 0.83281 0.0
C595 C 0.30577 0.2213 0.86666 0.0
C596 C 0.21993 0.27655 0.84853 0.0
C597 C 0.22323 0.308 0.79324 0.0
N598 N 0.28142 0.24188 0.86 0.0
N599 N 0.24352 0.28332 0.79977 0.0
loop_
_geom_bond_atom_site_label_1
_geom_bond_atom_site_label_2
_geom_bond_distance
_geom_bond_site_symmetry_2
_ccdc_geom_bond_type
C0 O2 1.247 . S
C0 O4 1.258 . S
C1 O8 1.247 . S
C1 O9 1.258 . S
O2 C0 1.247 . S
O2 Zn3 2.028 . S
Zn3 O2 2.028 . S
Zn3 O7 2.035 . S
Zn3 O9 2.035 . S
Zn3 O10 2.028 . S
O4 C0 1.258 . S
O4 Zn5 2.035 . S
Zn5 O4 2.035 . S
Zn5 O6 2.028 . S
Zn5 O8 2.028 . S
Zn5 O11 2.035 . S
O6 Zn5 2.028 . S
O6 C12 1.247 . S
O7 Zn3 2.035 . S
O7 C12 1.258 . S
O8 C1 1.247 . S
O8 Zn5 2.028 . S
O9 C1 1.258 . S
O9 Zn3 2.035 . S
O10 Zn3 2.028 . S
O10 C13 1.247 . S
O11 Zn5 2.035 . S
O11 C13 1.258 . S
C12 O6 1.247 . S
C12 O7 1.258 . S
C13 O10 1.247 . S
C13 O11 1.258 . S
C14 O16 1.247 . S
C14 O18 1.258 . S
C15 O22 1.247 . S
C15 O23 1.258 . S
O16 C14 1.247 . S
O16 Zn17 2.028 . S
Zn17 O16 2.028 . S
Zn17 O21 2.035 . S
Zn17 O23 2.035 . S
Zn17 O24 2.028 . S
O18 C14 1.258 . S
O18 Zn19 2.035 . S
Zn19 O18 2.035 . S
Zn19 O20 2.028 . S
Zn19 O22 2.028 . S
Zn19 O25 2.035 . S
O20 Zn19 2.028 . S
O20 C26 1.247 . S
O21 Zn17 2.035 . S
O21 C26 1.258 . S
O22 C15 1.247 . S
O22 Zn19 2.028 . S
O23 C15 1.258 . S
O23 Zn17 2.035 . S
O24 Zn17 2.028 . S
O24 C27 1.247 . S
O25 Zn19 2.035 . S
O25 C27 1.258 . S
C26 O20 1.247 . S
C26 O21 1.258 . S
C27 O24 1.247 . S
C27 O25 1.258 . S
C28 O30 1.247 . S
C28 O32 1.258 . S
C29 O36 1.247 . S
C29 O37 1.258 . S
O30 C28 1.247 . S
O30 Zn31 2.028 . S
Zn31 O30 2.028 . S
Zn31 O35 2.035 . S
Zn31 O37 2.035 . S
Zn31 O38 2.028 . S
O32 C28 1.258 . S
O32 Zn33 2.035 . S
Zn33 O32 2.035 . S
Zn33 O34 2.028 . S
Zn33 O36 2.028 . S
Zn33 O39 2.035 . S
O34 Zn33 2.028 . S
O34 C40 1.247 . S
O35 Zn31 2.035 . S
O35 C40 1.258 . S
O36 C29 1.247 . S
O36 Zn33 2.028 . S
O37 C29 1.258 . S
O37 Zn31 2.035 . S
O38 Zn31 2.028 . S
O38 C41 1.247 . S
O39 Zn33 2.035 . S
O39 C41 1.258 . S
C40 O34 1.247 . S
C40 O35 1.258 . S
C41 O38 1.247 . S
C41 O39 1.258 . S
C42 O44 1.247 . S
C42 O46 1.258 . S
C43 O50 1.247 . S
C43 O51 1.258 . S
O44 C42 1.247 . S
O44 Zn45 2.028 . S
Zn45 O44 2.028 . S
Zn45 O49 2.035 . S
Zn45 O51 2.035 . S
Zn45 O52 2.028 . S
O46 C42 1.258 . S
O46 Zn47 2.035 . S
Zn47 O46 2.035 . S
Zn47 O48 2.028 . S
Zn47 O50 2.028 . S
Zn47 O53 2.035 . S
O48 Zn47 2.028 . S
O48 C54 1.247 . S
O49 Zn45 2.035 . S
O49 C54 1.258 . S
O50 C43 1.247 . S
O50 Zn47 2.028 . S
O51 C43 1.258 . S
O51 Zn45 2.035 . S
O52 Zn45 2.028 . S
O52 C55 1.247 . S
O53 Zn47 2.035 . S
O53 C55 1.258 . S
C54 O48 1.247 . S
C54 O49 1.258 . S
C55 O52 1.247 . S
C55 O53 1.258 . S
C56 O58 1.247 . S
C56 O60 1.258 . S
C57 O64 1.247 . S
C57 O65 1.258 . S
O58 C56 1.247 . S
O58 Zn59 2.028 . S
Zn59 O58 2.028 . S
Zn59 O63 2.035 . S
Zn59 O65 2.035 . S
Zn59 O66 2.028 . S
O60 C56 1.258 . S
O60 Zn61 2.035 . S
Zn61 O60 2.035 . S
Zn61 O62 2.028 . S
Zn61 O64 2.028 . S
Zn61 O67 2.035 . S
O62 Zn61 2.028 . S
O62 C68 1.247 . S
O63 Zn59 2.035 . S
O63 C68 1.258 . S
O64 C57 1.247 . S
O64 Zn61 2.028 . S
O65 C57 1.258 . S
O65 Zn59 2.035 . S
O66 Zn59 2.028 . S
O66 C69 1.247 . S
O67 Zn61 2.035 . S
O67 C69 1.258 . S
C68 O62 1.247 . S
C68 O63 1.258 . S
C69 O66 1.247 . S
C69 O67 1.258 . S
C70 O72 1.247 . S
C70 O74 1.258 . S
C71 O78 1.247 . S
C71 O79 1.258 . S
O72 C70 1.247 . S
O72 Zn73 2.028 . S
Zn73 O72 2.028 . S
Zn73 O77 2.035 . S
Zn73 O79 2.035 . S
Zn73 O80 2.028 . S
O74 C70 1.258 . S
O74 Zn75 2.035 . S
Zn75 O74 2.035 . S
Zn75 O76 2.028 . S
Zn75 O78 2.028 . S
Zn75 O81 2.035 . S
O76 Zn75 2.028 . S
O76 C82 1.247 . S
O77 Zn73 2.035 . S
O77 C82 1.258 . S
O78 C71 1.247 . S
O78 Zn75 2.028 . S
O79 C71 1.258 . S
O79 Zn73 2.035 . S
O80 Zn73 2.028 . S
O80 C83 1.247 . S
O81 Zn75 2.035 . S
O81 C83 1.258 . S
C82 O76 1.247 . S
C82 O77 1.258 . S
C83 O80 1.247 . S
C83 O81 1.258 . S
C84 O86 1.247 . S
C84 O88 1.258 . S
C85 O92 1.247 . S
C85 O93 1.258 . S
O86 C84 1.247 . S
O86 Zn87 2.028 . S
Zn87 O86 2.028 . S
Zn87 O91 2.035 . S
Zn87 O93 2.035 . S
Zn87 O94 2.028 . S
O88 C84 1.258 . S
O88 Zn89 2.035 . S
Zn89 O88 2.035 . S
Zn89 O90 2.028 . S
Zn89 O92 2.028 . S
Zn89 O95 2.035 . S
O90 Zn89 2.028 . S
O90 C96 1.247 . S
O91 Zn87 2.035 . S
O91 C96 1.258 . S
O92 C85 1.247 . S
O92 Zn89 2.028 . S
O93 C85 1.258 . S
O93 Zn87 2.035 . S
O94 Zn87 2.028 . S
O94 C97 1.247 . S
O95 Zn89 2.035 . S
O95 C97 1.258 . S
C96 O90 1.247 . S
C96 O91 1.258 . S
C97 O94 1.247 . S
C97 O95 1.258 . S
C98 O100 1.247 . S
C98 O102 1.258 . S
C99 O106 1.247 . S
C99 O107 1.258 . S
O100 C98 1.247 . S
O100 Zn101 2.028 . S
Zn101 O100 2.028 . S
Zn101 O105 2.035 . S
Zn101 O107 2.035 . S
Zn101 O108 2.028 . S
O102 C98 1.258 . S
O102 Zn103 2.035 . S
Zn103 O102 2.035 . S
Zn103 O104 2.028 . S
Zn103 O106 2.028 . S
Zn103 O109 2.035 . S
O104 Zn103 2.028 . S
O104 C110 1.247 . S
O105 Zn101 2.035 . S
O105 C110 1.258 . S
O106 C99 1.247 . S
O106 Zn103 2.028 . S
O107 C99 1.258 . S
O107 Zn101 2.035 . S
O108 Zn101 2.028 . S
O108 C111 1.247 . S
O109 Zn103 2.035 . S
O109 C111 1.258 . S
C110 O104 1.247 . S
C110 O105 1.258 . S
C111 O108 1.247 . S
C111 O109 1.258 . S
C112 O114 1.247 . S
C112 O116 1.258 . S
C113 O120 1.247 . S
C113 O121 1.258 . S
O114 C112 1.247 . S
O114 Zn115 2.028 . S
Zn115 O114 2.028 . S
Zn115 O119 2.035 . S
Zn115 O121 2.035 . S
Zn115 O122 2.028 . S
O116 C112 1.258 . S
O116 Zn117 2.035 . S
Zn117 O116 2.035 . S
Zn117 O118 2.028 . S
Zn117 O120 2.028 . S
Zn117 O123 2.035 . S
O118 Zn117 2.028 . S
O118 C124 1.247 . S
O119 Zn115 2.035 . S
O119 C124 1.258 . S
O120 C113 1.247 . S
O120 Zn117 2.028 . S
O121 C113 1.258 . S
O121 Zn115 2.035 . S
O122 Zn115 2.028 . S
O122 C125 1.247 . S
O123 Zn117 2.035 . S
O123 C125 1.258 . S
C124 O118 1.247 . S
C124 O119 1.258 . S
C125 O122 1.247 . S
C125 O123 1.258 . S
C126 O128 1.247 . S
C126 O130 1.258 . S
C127 O134 1.247 . S
C127 O135 1.258 . S
O128 C126 1.247 . S
O128 Zn129 2.028 . S
Zn129 O128 2.028 . S
Zn129 O133 2.035 . S
Zn129 O135 2.035 . S
Zn129 O136 2.028 . S
O130 C126 1.258 . S
O130 Zn131 2.035 . S
Zn131 O130 2.035 . S
Zn131 O132 2.028 . S
Zn131 O134 2.028 . S
Zn131 O137 2.035 . S
O132 Zn131 2.028 . S
O132 C138 1.247 . S
O133 Zn129 2.035 . S
O133 C138 1.258 . S
O134 C127 1.247 . S
O134 Zn131 2.028 . S
O135 C127 1.258 . S
O135 Zn129 2.035 . S
O136 Zn129 2.028 . S
O136 C139 1.247 . S
O137 Zn131 2.035 . S
O137 C139 1.258 . S
C138 O132 1.247 . S
C138 O133 1.258 . S
C139 O136 1.247 . S
C139 O137 1.258 . S
C140 O142 1.247 . S
C140 O144 1.258 . S
C141 O148 1.247 . S
C141 O149 1.258 . S
O142 C140 1.247 . S
O142 Zn143 2.028 . S
Zn143 O142 2.028 . S
Zn143 O147 2.035 . S
Zn143 O149 2.035 . S
Zn143 O150 2.028 . S
O144 C140 1.258 . S
O144 Zn145 2.035 . S
Zn145 O144 2.035 . S
Zn145 O146 2.028 . S
Zn145 O148 2.028 . S
Zn145 O151 2.035 . S
O146 Zn145 2.028 . S
O146 C152 1.247 . S
O147 Zn143 2.035 . S
O147 C152 1.258 . S
O148 C141 1.247 . S
O148 Zn145 2.028 . S
O149 C141 1.258 . S
O149 Zn143 2.035 . S
O150 Zn143 2.028 . S
O150 C153 1.247 . S
O151 Zn145 2.035 . S
O151 C153 1.258 . S
C152 O146 1.247 . S
C152 O147 1.258 . S
C153 O150 1.247 . S
C153 O151 1.258 . S
C154 O156 1.247 . S
C154 O158 1.258 . S
C155 O162 1.247 . S
C155 O163 1.258 . S
O156 C154 1.247 . S
O156 Zn157 2.028 . S
Zn157 O156 2.028 . S
Zn157 O161 2.035 . S
Zn157 O163 2.035 . S
Zn157 O164 2.028 . S
O158 C154 1.258 . S
O158 Zn159 2.035 . S
Zn159 O158 2.035 . S
Zn159 O160 2.028 . S
Zn159 O162 2.028 . S
Zn159 O165 2.035 . S
O160 Zn159 2.028 . S
O160 C166 1.247 . S
O161 Zn157 2.035 . S
O161 C166 1.258 . S
O162 C155 1.247 . S
O162 Zn159 2.028 . S
O163 C155 1.258 . S
O163 Zn157 2.035 . S
O164 Zn157 2.028 . S
O164 C167 1.247 . S
O165 Zn159 2.035 . S
O165 C167 1.258 . S
C166 O160 1.247 . S
C166 O161 1.258 . S
C167 O164 1.247 . S
C167 O165 1.258 . S
H168 C174 0.930 . S
H169 C178 0.930 . S
H170 C183 0.929 . S
H171 C181 0.929 . S
H172 C176 0.929 . S
H173 C182 0.929 . S
C174 H168 0.930 . S
C174 C175 1.367 . S
C174 C182 1.378 . S
C175 C174 1.367 . S
C175 C183 1.433 . S
C176 H172 0.929 . S
C176 C178 1.378 . S
C176 C180 1.350 . S
C177 C180 1.463 . S
C177 C182 1.350 . S
C177 N185 1.427 . S
C178 H169 0.930 . S
C178 C176 1.378 . S
C178 C179 1.367 . S
C179 C178 1.367 . S
C179 C181 1.433 . S
C180 C176 1.350 . S
C180 C177 1.463 . S
C180 N184 1.427 . S
C181 H171 0.929 . S
C181 C179 1.433 . S
C181 N184 1.384 . S
C182 H173 0.929 . S
C182 C174 1.378 . S
C182 C177 1.350 . S
C183 H170 0.929 . S
C183 C175 1.433 . S
C183 N185 1.384 . S
N184 C180 1.427 . S
N184 C181 1.384 . S
N185 C177 1.427 . S
N185 C183 1.384 . S
H186 C192 0.930 . S
H187 C196 0.930 . S
H188 C201 0.929 . S
H189 C199 0.929 . S
H190 C194 0.929 . S
H191 C200 0.929 . S
C192 H186 0.930 . S
C192 C193 1.367 . S
C192 C200 1.378 . S
C193 C192 1.367 . S
C193 C201 1.433 . S
C194 H190 0.929 . S
C194 C196 1.378 . S
C194 C198 1.350 . S
C195 C198 1.463 . S
C195 C200 1.350 . S
C195 N203 1.427 . S
C196 H187 0.930 . S
C196 C194 1.378 . S
C196 C197 1.367 . S
C197 C196 1.367 . S
C197 C199 1.433 . S
C198 C194 1.350 . S
C198 C195 1.463 . S
C198 N202 1.427 . S
C199 H189 0.929 . S
C199 C197 1.433 . S
C199 N202 1.384 . S
C200 H191 0.929 . S
C200 C192 1.378 . S
C200 C195 1.350 . S
C201 H188 0.929 . S
C201 C193 1.433 . S
C201 N203 1.384 . S
N202 C198 1.427 . S
N202 C199 1.384 . S
N203 C195 1.427 . S
N203 C201 1.384 . S
H204 C210 0.930 . S
H205 C214 0.930 . S
H206 C219 0.929 . S
H207 C217 0.929 . S
H208 C212 0.929 . S
H209 C218 0.929 . S
C210 H204 0.930 . S
C210 C211 1.367 . S
C210 C218 1.378 . S
C211 C210 1.367 . S
C211 C219 1.433 . S
C212 H208 0.929 . S
C212 C214 1.378 . S
C212 C216 1.350 . S
C213 C216 1.463 . S
C213 C218 1.350 . S
C213 N221 1.427 . S
C214 H205 0.930 . S
C214 C212 1.378 . S
C214 C215 1.367 . S
C215 C214 1.367 . S
C215 C217 1.433 . S
C216 C212 1.350 . S
C216 C213 1.463 . S
C216 N220 1.427 . S
C217 H207 0.929 . S
C217 C215 1.433 . S
C217 N220 1.384 . S
C218 H209 0.929 . S
C218 C210 1.378 . S
C218 C213 1.350 . S
C219 H206 0.929 . S
C219 C211 1.433 . S
C219 N221 1.384 . S
N220 C216 1.427 . S
N220 C217 1.384 . S
N221 C213 1.427 . S
N221 C219 1.384 . S
H222 C228 0.930 . S
H223 C232 0.930 . S
H224 C237 0.929 . S
H225 C235 0.929 . S
H226 C230 0.929 . S
H227 C236 0.929 . S
C228 H222 0.930 . S
C228 C229 1.367 . S
C228 C236 1.378 . S
C229 C228 1.367 . S
C229 C237 1.433 . S
C230 H226 0.929 . S
C230 C232 1.378 . S
C230 C234 1.350 . S
C231 C234 1.463 . S
C231 C236 1.350 . S
C231 N239 1.427 . S
C232 H223 0.930 . S
C232 C230 1.378 . S
C232 C233 1.367 . S
C233 C232 1.367 . S
C233 C235 1.433 . S
C234 C230 1.350 . S
C234 C231 1.463 . S
C234 N238 1.427 . S
C235 H225 0.929 . S
C235 C233 1.433 . S
C235 N238 1.384 . S
C236 H227 0.929 . S
C236 C228 1.378 . S
C236 C231 1.350 . S
C237 H224 0.929 . S
C237 C229 1.433 . S
C237 N239 1.384 . S
N238 C234 1.427 . S
N238 C235 1.384 . S
N239 C231 1.427 . S
N239 C237 1.384 . S
H240 C246 0.930 . S
H241 C250 0.930 . S
H242 C255 0.929 . S
H243 C253 0.929 . S
H244 C248 0.929 . S
H245 C254 0.929 . S
C246 H240 0.930 . S
C246 C247 1.367 . S
C246 C254 1.378 . S
C247 C246 1.367 . S
C247 C255 1.433 . S
C248 H244 0.929 . S
C248 C250 1.378 . S
C248 C252 1.350 . S
C249 C252 1.463 . S
C249 C254 1.350 . S
C249 N257 1.427 . S
C250 H241 0.930 . S
C250 C248 1.378 . S
C250 C251 1.367 . S
C251 C250 1.367 . S
C251 C253 1.433 . S
C252 C248 1.350 . S
C252 C249 1.463 . S
C252 N256 1.427 . S
C253 H243 0.929 . S
C253 C251 1.433 . S
C253 N256 1.384 . S
C254 H245 0.929 . S
C254 C246 1.378 . S
C254 C249 1.350 . S
C255 H242 0.929 . S
C255 C247 1.433 . S
C255 N257 1.384 . S
N256 C252 1.427 . S
N256 C253 1.384 . S
N257 C249 1.427 . S
N257 C255 1.384 . S
H258 C264 0.930 . S
H259 C268 0.930 . S
H260 C273 0.929 . S
H261 C271 0.929 . S
H262 C266 0.929 . S
H263 C272 0.929 . S
C264 H258 0.930 . S
C264 C265 1.367 . S
C264 C272 1.378 . S
C265 C264 1.367 . S
C265 C273 1.433 . S
C266 H262 0.929 . S
C266 C268 1.378 . S
C266 C270 1.350 . S
C267 C270 1.463 . S
C267 C272 1.350 . S
C267 N275 1.427 . S
C268 H259 0.930 . S
C268 C266 1.378 . S
C268 C269 1.367 . S
C269 C268 1.367 . S
C269 C271 1.433 . S
C270 C266 1.350 . S
C270 C267 1.463 . S
C270 N274 1.427 . S
C271 H261 0.929 . S
C271 C269 1.433 . S
C271 N274 1.384 . S
C272 H263 0.929 . S
C272 C264 1.378 . S
C272 C267 1.350 . S
C273 H260 0.929 . S
C273 C265 1.433 . S
C273 N275 1.384 . S
N274 C270 1.427 . S
N274 C271 1.384 . S
N275 C267 1.427 . S
N275 C273 1.384 . S
H276 C282 0.930 . S
H277 C286 0.930 . S
H278 C291 0.929 . S
H279 C289 0.929 . S
H280 C284 0.929 . S
H281 C290 0.929 . S
C282 H276 0.930 . S
C282 C283 1.367 . S
C282 C290 1.378 . S
C283 C282 1.367 . S
C283 C291 1.433 . S
C284 H280 0.929 . S
C284 C286 1.378 . S
C284 C288 1.350 . S
C285 C288 1.463 . S
C285 C290 1.350 . S
C285 N293 1.427 . S
C286 H277 0.930 . S
C286 C284 1.378 . S
C286 C287 1.367 . S
C287 C286 1.367 . S
C287 C289 1.433 . S
C288 C284 1.350 . S
C288 C285 1.463 . S
C288 N292 1.427 . S
C289 H279 0.929 . S
C289 C287 1.433 . S
C289 N292 1.384 . S
C290 H281 0.929 . S
C290 C282 1.378 . S
C290 C285 1.350 . S
C291 H278 0.929 . S
C291 C283 1.433 . S
C291 N293 1.384 . S
N292 C288 1.427 . S
N292 C289 1.384 . S
N293 C285 1.427 . S
N293 C291 1.384 . S
H294 C300 0.930 . S
H295 C304 0.930 . S
H296 C309 0.929 . S
H297 C307 0.929 . S
H298 C302 0.929 1_455 S
H299 C308 0.929 1_655 S
C300 H294 0.930 . S
C300 C301 1.367 . S
C300 C308 1.378 . S
C301 C300 1.367 . S
C301 C309 1.433 . S
C302 H298 0.929 1_655 S
C302 C304 1.378 . S
C302 C306 1.350 . S
C303 C306 1.463 1_455 S
C303 C308 1.350 . S
C303 N311 1.427 . S
C304 H295 0.930 . S
C304 C302 1.378 . S
C304 C305 1.367 . S
C305 C304 1.367 . S
C305 C307 1.433 . S
C306 C302 1.350 . S
C306 C303 1.463 1_655 S
C306 N310 1.427 . S
C307 H297 0.929 . S
C307 C305 1.433 . S
C307 N310 1.384 . S
C308 H299 0.929 1_455 S
C308 C300 1.378 . S
C308 C303 1.350 . S
C309 H296 0.929 . S
C309 C301 1.433 . S
C309 N311 1.384 . S
N310 C306 1.427 . S
N310 C307 1.384 . S
N311 C303 1.427 . S
N311 C309 1.384 . S
H312 C318 0.930 . S
H313 C322 0.930 . S
H314 C327 0.929 . S
H315 C325 0.929 . S
H316 C320 0.929 . S
H317 C326 0.929 . S
C318 H312 0.930 . S
C318 C319 1.367 . S
C318 C326 1.378 . S
C319 C318 1.367 . S
C319 C327 1.433 . S
C320 H316 0.929 . S
C320 C322 1.378 . S
C320 C324 1.350 . S
C321 C324 1.463 1_545 S
C321 C326 1.350 . S
C321 N329 1.427 . S
C322 H313 0.930 . S
C322 C320 1.378 . S
C322 C323 1.367 . S
C323 C322 1.367 . S
C323 C325 1.433 . S
C324 C320 1.350 . S
C324 C321 1.463 1_565 S
C324 N328 1.427 . S
C325 H315 0.929 . S
C325 C323 1.433 . S
C325 N328 1.384 . S
C326 H317 0.929 . S
C326 C318 1.378 . S
C326 C321 1.350 . S
C327 H314 0.929 . S
C327 C319 1.433 . S
C327 N329 1.384 . S
N328 C324 1.427 . S
N328 C325 1.384 . S
N329 C321 1.427 . S
N329 C327 1.384 . S
H330 C336 0.930 . S
H331 C340 0.930 . S
H332 C345 0.929 . S
H333 C343 0.929 . S
H334 C338 0.929 . S
H335 C344 0.929 . S
C336 H330 0.930 . S
C336 C337 1.367 . S
C336 C344 1.378 . S
C337 C336 1.367 . S
C337 C345 1.433 . S
C338 H334 0.929 . S
C338 C340 1.378 . S
C338 C342 1.350 . S
C339 C342 1.463 . S
C339 C344 1.350 . S
C339 N347 1.427 . S
C340 H331 0.930 . S
C340 C338 1.378 . S
C340 C341 1.367 . S
C341 C340 1.367 . S
C341 C343 1.433 . S
C342 C338 1.350 . S
C342 C339 1.463 . S
C342 N346 1.427 . S
C343 H333 0.929 . S
C343 C341 1.433 . S
C343 N346 1.384 . S
C344 H335 0.929 . S
C344 C336 1.378 . S
C344 C339 1.350 . S
C345 H332 0.929 . S
C345 C337 1.433 . S
C345 N347 1.384 . S
N346 C342 1.427 . S
N346 C343 1.384 . S
N347 C339 1.427 . S
N347 C345 1.384 . S
H348 C354 0.930 . S
H349 C358 0.930 . S
H350 C363 0.929 . S
H351 C361 0.929 . S
H352 C356 0.929 . S
H353 C362 0.929 . S
C354 H348 0.930 . S
C354 C355 1.367 . S
C354 C362 1.378 . S
C355 C354 1.367 . S
C355 C363 1.433 . S
C356 H352 0.929 . S
C356 C358 1.378 . S
C356 C360 1.350 . S
C357 C360 1.463 1_655 S
C357 C362 1.350 . S
C357 N365 1.427 . S
C358 H349 0.930 . S
C358 C356 1.378 . S
C358 C359 1.367 . S
C359 C358 1.367 . S
C359 C361 1.433 . S
C360 C356 1.350 . S
C360 C357 1.463 1_455 S
C360 N364 1.427 . S
C361 H351 0.929 . S
C361 C359 1.433 . S
C361 N364 1.384 . S
C362 H353 0.929 . S
C362 C354 1.378 . S
C362 C357 1.350 . S
C363 H350 0.929 . S
C363 C355 1.433 . S
C363 N365 1.384 . S
N364 C360 1.427 . S
N364 C361 1.384 . S
N365 C357 1.427 . S
N365 C363 1.384 . S
H366 C372 0.930 . S
H367 C376 0.930 . S
H368 C381 0.929 . S
H369 C379 0.929 . S
H370 C374 0.929 1_565 S
H371 C380 0.929 1_545 S
C372 H366 0.930 . S
C372 C373 1.367 . S
C372 C380 1.378 . S
C373 C372 1.367 . S
C373 C381 1.433 . S
C374 H370 0.929 1_545 S
C374 C376 1.378 . S
C374 C378 1.350 . S
C375 C378 1.463 1_565 S
C375 C380 1.350 . S
C375 N383 1.427 . S
C376 H367 0.930 . S
C376 C374 1.378 . S
C376 C377 1.367 . S
C377 C376 1.367 . S
C377 C379 1.433 . S
C378 C374 1.350 . S
C378 C375 1.463 1_545 S
C378 N382 1.427 . S
C379 H369 0.929 . S
C379 C377 1.433 . S
C379 N382 1.384 . S
C380 H371 0.929 1_565 S
C380 C372 1.378 . S
C380 C375 1.350 . S
C381 H368 0.929 . S
C381 C373 1.433 . S
C381 N383 1.384 . S
N382 C378 1.427 . S
N382 C379 1.384 . S
N383 C375 1.427 . S
N383 C381 1.384 . S
H384 C390 0.930 . S
H385 C394 0.930 . S
H386 C399 0.929 . S
H387 C397 0.929 . S
H388 C392 0.929 . S
H389 C398 0.929 . S
C390 H384 0.930 . S
C390 C391 1.367 . S
C390 C398 1.378 . S
C391 C390 1.367 . S
C391 C399 1.433 . S
C392 H388 0.929 . S
C392 C394 1.378 . S
C392 C396 1.350 . S
C393 C396 1.463 . S
C393 C398 1.350 . S
C393 N401 1.427 . S
C394 H385 0.930 . S
C394 C392 1.378 . S
C394 C395 1.367 . S
C395 C394 1.367 . S
C395 C397 1.433 . S
C396 C392 1.350 . S
C396 C393 1.463 . S
C396 N400 1.427 . S
C397 H387 0.929 . S
C397 C395 1.433 . S
C397 N400 1.384 . S
C398 H389 0.929 . S
C398 C390 1.378 . S
C398 C393 1.350 . S
C399 H386 0.929 . S
C399 C391 1.433 . S
C399 N401 1.384 . S
N400 C396 1.427 . S
N400 C397 1.384 . S
N401 C393 1.427 . S
N401 C399 1.384 . S
H402 C408 0.930 . S
H403 C412 0.930 . S
H404 C417 0.929 . S
H405 C415 0.929 . S
H406 C410 0.929 1_655 S
H407 C416 0.929 1_455 S
C408 H402 0.930 . S
C408 C409 1.367 . S
C408 C416 1.378 . S
C409 C408 1.367 . S
C409 C417 1.433 . S
C410 H406 0.929 1_455 S
C410 C412 1.378 . S
C410 C414 1.350 . S
C411 C414 1.463 1_655 S
C411 C416 1.350 . S
C411 N419 1.427 . S
C412 H403 0.930 . S
C412 C410 1.378 . S
C412 C413 1.367 . S
C413 C412 1.367 . S
C413 C415 1.433 . S
C414 C410 1.350 . S
C414 C411 1.463 1_455 S
C414 N418 1.427 . S
C415 H405 0.929 . S
C415 C413 1.433 . S
C415 N418 1.384 . S
C416 H407 0.929 1_655 S
C416 C408 1.378 . S
C416 C411 1.350 . S
C417 H404 0.929 . S
C417 C409 1.433 . S
C417 N419 1.384 . S
N418 C414 1.427 . S
N418 C415 1.384 . S
N419 C411 1.427 . S
N419 C417 1.384 . S
H420 C426 0.930 . S
H421 C430 0.930 . S
H422 C435 0.929 1_545 S
H423 C433 0.929 1_565 S
H424 C428 0.929 . S
H425 C434 0.929 . S
C426 H420 0.930 . S
C426 C427 1.367 . S
C426 C434 1.378 . S
C427 C426 1.367 . S
C427 C435 1.433 . S
C428 H424 0.929 . S
C428 C430 1.378 . S
C428 C432 1.350 . S
C429 C432 1.463 1_566 S
C429 C434 1.350 . S
C429 N437 1.427 1_565 S
C430 H421 0.930 . S
C430 C428 1.378 . S
C430 C431 1.367 . S
C431 C430 1.367 . S
C431 C433 1.433 . S
C432 C428 1.350 . S
C432 C429 1.463 1_544 S
C432 N436 1.427 1_545 S
C433 H423 0.929 1_545 S
C433 C431 1.433 . S
C433 N436 1.384 1_545 S
C434 H425 0.929 . S
C434 C426 1.378 . S
C434 C429 1.350 . S
C435 H422 0.929 1_565 S
C435 C427 1.433 . S
C435 N437 1.384 1_565 S
N436 C432 1.427 1_565 S
N436 C433 1.384 1_565 S
N437 C429 1.427 1_545 S
N437 C435 1.384 1_545 S
H438 C444 0.930 . S
H439 C448 0.930 . S
H440 C453 0.929 . S
H441 C451 0.929 . S
H442 C446 0.929 . S
H443 C452 0.929 . S
C444 H438 0.930 . S
C444 C445 1.367 . S
C444 C452 1.378 . S
C445 C444 1.367 . S
C445 C453 1.433 . S
C446 H442 0.929 . S
C446 C448 1.378 . S
C446 C450 1.350 . S
C447 C450 1.463 . S
C447 C452 1.350 . S
C447 N455 1.427 . S
C448 H439 0.930 . S
C448 C446 1.378 . S
C448 C449 1.367 . S
C449 C448 1.367 . S
C449 C451 1.433 . S
C450 C446 1.350 . S
C450 C447 1.463 . S
C450 N454 1.427 . S
C451 H441 0.929 . S
C451 C449 1.433 . S
C451 N454 1.384 . S
C452 H443 0.929 . S
C452 C444 1.378 . S
C452 C447 1.350 . S
C453 H440 0.929 . S
C453 C445 1.433 . S
C453 N455 1.384 . S
N454 C450 1.427 . S
N454 C451 1.384 . S
N455 C447 1.427 . S
N455 C453 1.384 . S
H456 C462 0.930 . S
H457 C466 0.930 . S
H458 C471 0.929 . S
H459 C469 0.929 . S
H460 C464 0.929 . S
H461 C470 0.929 . S
C462 H456 0.930 . S
C462 C463 1.367 . S
C462 C470 1.378 . S
C463 C462 1.367 . S
C463 C471 1.433 1_455 S
C464 H460 0.929 . S
C464 C466 1.378 . S
C464 C468 1.350 . S
C465 C468 1.463 1_455 S
C465 C470 1.350 . S
C465 N473 1.427 1_455 S
C466 H457 0.930 . S
C466 C464 1.378 . S
C466 C467 1.367 . S
C467 C466 1.367 . S
C467 C469 1.433 1_655 S
C468 C464 1.350 . S
C468 C465 1.463 1_655 S
C468 N472 1.427 1_655 S
C469 H459 0.929 . S
C469 C467 1.433 1_455 S
C469 N472 1.384 . S
C470 H461 0.929 . S
C470 C462 1.378 . S
C470 C465 1.350 . S
C471 H458 0.929 . S
C471 C463 1.433 1_655 S
C471 N473 1.384 . S
N472 C468 1.427 1_455 S
N472 C469 1.384 . S
N473 C465 1.427 1_655 S
N473 C471 1.384 . S
H474 C480 0.930 . S
H475 C484 0.930 . S
H476 C489 0.929 . S
H477 C487 0.929 . S
H478 C482 0.929 . S
H479 C488 0.929 . S
C480 H474 0.930 . S
C480 C481 1.367 . S
C480 C488 1.378 1_565 S
C481 C480 1.367 . S
C481 C489 1.433 . S
C482 H478 0.929 . S
C482 C484 1.378 1_565 S
C482 C486 1.350 1_565 S
C483 C486 1.463 1_564 S
C483 C488 1.350 1_565 S
C483 N491 1.427 . S
C484 H475 0.930 . S
C484 C482 1.378 1_545 S
C484 C485 1.367 . S
C485 C484 1.367 . S
C485 C487 1.433 . S
C486 C482 1.350 1_545 S
C486 C483 1.463 1_546 S
C486 N490 1.427 . S
C487 H477 0.929 . S
C487 C485 1.433 . S
C487 N490 1.384 . S
C488 H479 0.929 . S
C488 C480 1.378 1_545 S
C488 C483 1.350 1_545 S
C489 H476 0.929 . S
C489 C481 1.433 . S
C489 N491 1.384 . S
N490 C486 1.427 . S
N490 C487 1.384 . S
N491 C483 1.427 . S
N491 C489 1.384 . S
H492 C498 0.930 . S
H493 C502 0.930 . S
H494 C507 0.929 . S
H495 C505 0.929 . S
H496 C500 0.929 . S
H497 C506 0.929 . S
C498 H492 0.930 . S
C498 C499 1.367 . S
C498 C506 1.378 . S
C499 C498 1.367 . S
C499 C507 1.433 . S
C500 H496 0.929 . S
C500 C502 1.378 . S
C500 C504 1.350 . S
C501 C504 1.463 1_655 S
C501 C506 1.350 . S
C501 N509 1.427 . S
C502 H493 0.930 . S
C502 C500 1.378 . S
C502 C503 1.367 . S
C503 C502 1.367 . S
C503 C505 1.433 . S
C504 C500 1.350 . S
C504 C501 1.463 1_455 S
C504 N508 1.427 . S
C505 H495 0.929 . S
C505 C503 1.433 . S
C505 N508 1.384 . S
C506 H497 0.929 . S
C506 C498 1.378 . S
C506 C501 1.350 . S
C507 H494 0.929 . S
C507 C499 1.433 . S
C507 N509 1.384 . S
N508 C504 1.427 . S
N508 C505 1.384 . S
N509 C501 1.427 . S
N509 C507 1.384 . S
H510 C516 0.930 . S
H511 C520 0.930 . S
H512 C525 0.929 . S
H513 C523 0.929 . S
H514 C518 0.929 . S
H515 C524 0.929 . S
C516 H510 0.930 . S
C516 C517 1.367 . S
C516 C524 1.378 . S
C517 C516 1.367 . S
C517 C525 1.433 . S
C518 H514 0.929 . S
C518 C520 1.378 . S
C518 C522 1.350 . S
C519 C522 1.463 1_545 S
C519 C524 1.350 . S
C519 N527 1.427 . S
C520 H511 0.930 . S
C520 C518 1.378 . S
C520 C521 1.367 . S
C521 C520 1.367 . S
C521 C523 1.433 . S
C522 C518 1.350 . S
C522 C519 1.463 1_565 S
C522 N526 1.427 . S
C523 H513 0.929 . S
C523 C521 1.433 . S
C523 N526 1.384 . S
C524 H515 0.929 . S
C524 C516 1.378 . S
C524 C519 1.350 . S
C525 H512 0.929 . S
C525 C517 1.433 . S
C525 N527 1.384 . S
N526 C522 1.427 . S
N526 C523 1.384 . S
N527 C519 1.427 . S
N527 C525 1.384 . S
H528 C534 0.930 . S
H529 C538 0.930 . S
H530 C543 0.929 . S
H531 C541 0.929 . S
H532 C536 0.929 . S
H533 C542 0.929 . S
C534 H528 0.930 . S
C534 C535 1.367 . S
C534 C542 1.378 . S
C535 C534 1.367 . S
C535 C543 1.433 . S
C536 H532 0.929 . S
C536 C538 1.378 . S
C536 C540 1.350 . S
C537 C540 1.463 . S
C537 C542 1.350 . S
C537 N545 1.427 . S
C538 H529 0.930 . S
C538 C536 1.378 . S
C538 C539 1.367 . S
C539 C538 1.367 . S
C539 C541 1.433 . S
C540 C536 1.350 . S
C540 C537 1.463 . S
C540 N544 1.427 . S
C541 H531 0.929 . S
C541 C539 1.433 . S
C541 N544 1.384 . S
C542 H533 0.929 . S
C542 C534 1.378 . S
C542 C537 1.350 . S
C543 H530 0.929 . S
C543 C535 1.433 . S
C543 N545 1.384 . S
N544 C540 1.427 . S
N544 C541 1.384 . S
N545 C537 1.427 . S
N545 C543 1.384 . S
H546 C552 0.930 . S
H547 C556 0.930 . S
H548 C561 0.929 . S
H549 C559 0.929 . S
H550 C554 0.929 . S
H551 C560 0.929 . S
C552 H546 0.930 . S
C552 C553 1.367 . S
C552 C560 1.378 . S
C553 C552 1.367 . S
C553 C561 1.433 . S
C554 H550 0.929 . S
C554 C556 1.378 . S
C554 C558 1.350 . S
C555 C558 1.463 1_655 S
C555 C560 1.350 . S
C555 N563 1.427 . S
C556 H547 0.930 . S
C556 C554 1.378 . S
C556 C557 1.367 . S
C557 C556 1.367 . S
C557 C559 1.433 . S
C558 C554 1.350 . S
C558 C555 1.463 1_455 S
C558 N562 1.427 . S
C559 H549 0.929 . S
C559 C557 1.433 . S
C559 N562 1.384 . S
C560 H551 0.929 . S
C560 C552 1.378 . S
C560 C555 1.350 . S
C561 H548 0.929 . S
C561 C553 1.433 . S
C561 N563 1.384 . S
N562 C558 1.427 . S
N562 C559 1.384 . S
N563 C555 1.427 . S
N563 C561 1.384 . S
H564 C570 0.930 . S
H565 C574 0.930 . S
H566 C579 0.929 . S
H567 C577 0.929 . S
H568 C572 0.929 . S
H569 C578 0.929 . S
C570 H564 0.930 . S
C570 C571 1.367 . S
C570 C578 1.378 . S
C571 C570 1.367 . S
C571 C579 1.433 . S
C572 H568 0.929 . S
C572 C574 1.378 . S
C572 C576 1.350 . S
C573 C576 1.463 1_565 S
C573 C578 1.350 . S
C573 N581 1.427 . S
C574 H565 0.930 . S
C574 C572 1.378 . S
C574 C575 1.367 . S
C575 C574 1.367 . S
C575 C577 1.433 . S
C576 C572 1.350 . S
C576 C573 1.463 1_545 S
C576 N580 1.427 . S
C577 H567 0.929 . S
C577 C575 1.433 . S
C577 N580 1.384 . S
C578 H569 0.929 . S
C578 C570 1.378 . S
C578 C573 1.350 . S
C579 H566 0.929 . S
C579 C571 1.433 . S
C579 N581 1.384 . S
N580 C576 1.427 . S
N580 C577 1.384 . S
N581 C573 1.427 . S
N581 C579 1.384 . S
H582 C588 0.930 . S
H583 C592 0.930 . S
H584 C597 0.929 . S
H585 C595 0.929 . S
H586 C590 0.929 . S
H587 C596 0.929 . S
C588 H582 0.930 . S
C588 C589 1.367 . S
C588 C596 1.378 . S
C589 C588 1.367 . S
C589 C597 1.433 . S
C590 H586 0.929 . S
C590 C592 1.378 . S
C590 C594 1.350 . S
C591 C594 1.463 . S
C591 C596 1.350 . S
C591 N599 1.427 . S
C592 H583 0.930 . S
C592 C590 1.378 . S
C592 C593 1.367 . S
C593 C592 1.367 . S
C593 C595 1.433 . S
C594 C590 1.350 . S
C594 C591 1.463 . S
C594 N598 1.427 . S
C595 H585 0.929 . S
C595 C593 1.433 . S
C595 N598 1.384 . S
C596 H587 0.929 . S
C596 C588 1.378 . S
C596 C591 1.350 . S
C597 H584 0.929 . S
C597 C589 1.433 . S
C597 N599 1.384 . S
N598 C594 1.427 . S
N598 C595 1.384 . S
N599 C591 1.427 . S
N599 C597 1.384 . S
C175 C112 2.185 . S
C179 C1 2.181 . S
C193 C27 2.176 . S
C197 C126 2.177 . S
C211 C29 2.181 . S
C215 C141 2.180 . S
C229 C43 2.170 . S
C233 C154 2.175 . S
C247 C84 2.176 . S
C251 C57 2.170 . S
C265 C71 2.171 . S
C269 C99 2.174 . S
C283 C55 1.465 . S
C287 C13 1.467 . S
C301 C69 1.466 . S
C305 C15 1.463 . S
C319 C83 1.464 . S
C323 C41 1.467 . S
C337 C96 1.464 . S
C341 C138 1.466 . S
C355 C111 1.467 . S
C359 C153 1.464 . S
C373 C124 1.464 . S
C377 C166 1.466 . S
C391 C0 1.863 . S
C395 C127 1.862 . S
C409 C26 1.869 . S
C413 C140 1.874 . S
C427 C28 1.868 . S
C431 C155 1.860 . S
C445 C85 1.868 . S
C449 C42 1.866 . S
C463 C56 1.864 . S
C467 C98 1.864 . S
C481 C113 1.868 . S
C485 C70 1.876 . S
C499 C167 1.429 . S
C503 C12 1.428 . S
C517 C14 1.433 . S
C521 C97 1.433 . S
C535 C110 1.430 . S
C539 C40 1.428 . S
C553 C54 1.430 . S
C557 C125 1.431 . S
C571 C68 1.427 . S
C575 C139 1.428 . S
C589 C152 1.427 . S
C593 C82 1.429 . S
