# Generated by pormake.
# Topology nfc, (4)-cn, num edge types: 1
# Building blocks:
#     Node 0, Type 0, BuildingBlock: NAWXER_clean_sbu_0, # of connection points: 4
#     Node 1, Type 0, BuildingBlock: NAWXER_clean_sbu_0, # of connection points: 4
#     Node 2, Type 0, BuildingBlock: NAWXER_clean_sbu_0, # of connection points: 4
#     Node 3, Type 0, BuildingBlock: NAWXER_clean_sbu_0, # of connection points: 4
#     Node 4, Type 0, BuildingBlock: NAWXER_clean_sbu_0, # of connection points: 4
#     Node 5, Type 0, BuildingBlock: NAWXER_clean_sbu_0, # of connection points: 4
#     Node 6, Type 0, BuildingBlock: NAWXER_clean_sbu_0, # of connection points: 4
#     Node 7, Type 0, BuildingBlock: NAWXER_clean_sbu_0, # of connection points: 4
#     Node 8, Type 0, BuildingBlock: NAWXER_clean_sbu_0, # of connection points: 4
#     Node 9, Type 0, BuildingBlock: NAWXER_clean_sbu_0, # of connection points: 4
#     Node 10, Type 0, BuildingBlock: NAWXER_clean_sbu_0, # of connection points: 4
#     Node 11, Type 0, BuildingBlock: NAWXER_clean_sbu_0, # of connection points: 4
#     Node 12, Type 0, BuildingBlock: NAWXER_clean_sbu_0, # of connection points: 4
#     Node 13, Type 0, BuildingBlock: NAWXER_clean_sbu_0, # of connection points: 4
#     Node 14, Type 0, BuildingBlock: NAWXER_clean_sbu_0, # of connection points: 4
#     Node 15, Type 0, BuildingBlock: NAWXER_clean_sbu_0, # of connection points: 4
#     Edge 16, Type (0, 0), BuildingBlock: EZIPEK_clean_linker_0, # of connection points: 2
#     Edge 17, Type (0, 0), BuildingBlock: EZIPEK_clean_linker_0, # of connection points: 2
#     Edge 18, Type (0, 0), BuildingBlock: EZIPEK_clean_linker_0, # of connection points: 2
#     Edge 19, Type (0, 0), BuildingBlock: EZIPEK_clean_linker_0, # of connection points: 2
#     Edge 20, Type (0, 0), BuildingBlock: EZIPEK_clean_linker_0, # of connection points: 2
#     Edge 21, Type (0, 0), BuildingBlock: EZIPEK_clean_linker_0, # of connection points: 2
#     Edge 22, Type (0, 0), BuildingBlock: EZIPEK_clean_linker_0, # of connection points: 2
#     Edge 23, Type (0, 0), BuildingBlock: EZIPEK_clean_linker_0, # of connection points: 2
#     Edge 24, Type (0, 0), BuildingBlock: EZIPEK_clean_linker_0, # of connection points: 2
#     Edge 25, Type (0, 0), BuildingBlock: EZIPEK_clean_linker_0, # of connection points: 2
#     Edge 26, Type (0, 0), BuildingBlock: EZIPEK_clean_linker_0, # of connection points: 2
#     Edge 27, Type (0, 0), BuildingBlock: EZIPEK_clean_linker_0, # of connection points: 2
#     Edge 28, Type (0, 0), BuildingBlock: EZIPEK_clean_linker_0, # of connection points: 2
#     Edge 29, Type (0, 0), BuildingBlock: EZIPEK_clean_linker_0, # of connection points: 2
#     Edge 30, Type (0, 0), BuildingBlock: EZIPEK_clean_linker_0, # of connection points: 2
#     Edge 31, Type (0, 0), BuildingBlock: EZIPEK_clean_linker_0, # of connection points: 2
#     Edge 32, Type (0, 0), BuildingBlock: EZIPEK_clean_linker_0, # of connection points: 2
#     Edge 33, Type (0, 0), BuildingBlock: EZIPEK_clean_linker_0, # of connection points: 2
#     Edge 34, Type (0, 0), BuildingBlock: EZIPEK_clean_linker_0, # of connection points: 2
#     Edge 35, Type (0, 0), BuildingBlock: EZIPEK_clean_linker_0, # of connection points: 2
#     Edge 36, Type (0, 0), BuildingBlock: EZIPEK_clean_linker_0, # of connection points: 2
#     Edge 37, Type (0, 0), BuildingBlock: EZIPEK_clean_linker_0, # of connection points: 2
#     Edge 38, Type (0, 0), BuildingBlock: EZIPEK_clean_linker_0, # of connection points: 2
#     Edge 39, Type (0, 0), BuildingBlock: EZIPEK_clean_linker_0, # of connection points: 2
#     Edge 40, Type (0, 0), BuildingBlock: EZIPEK_clean_linker_0, # of connection points: 2
#     Edge 41, Type (0, 0), BuildingBlock: EZIPEK_clean_linker_0, # of connection points: 2
#     Edge 42, Type (0, 0), BuildingBlock: EZIPEK_clean_linker_0, # of connection points: 2
#     Edge 43, Type (0, 0), BuildingBlock: EZIPEK_clean_linker_0, # of connection points: 2
#     Edge 44, Type (0, 0), BuildingBlock: EZIPEK_clean_linker_0, # of connection points: 2
#     Edge 45, Type (0, 0), BuildingBlock: EZIPEK_clean_linker_0, # of connection points: 2
#     Edge 46, Type (0, 0), BuildingBlock: EZIPEK_clean_linker_0, # of connection points: 2
#     Edge 47, Type (0, 0), BuildingBlock: EZIPEK_clean_linker_0, # of connection points: 2
# Relax obj value: 0.157
# Max RMSD: 0.167
# Mean RMSD: 0.167
data_MOF--net-nfc--node1-NAWXER_clean_sbu_0--edge1-EZIPEK_clean_linker_0
_symmetry_space_group_name_H-M    P1
_symmetry_Int_Tables_number       1
_symmetry_cell_setting            triclinic
loop_
_symmetry_equiv_pos_as_xyz
'x, y, z'
_cell_length_a     26.427203
_cell_length_b     26.717271
_cell_length_c     19.688169
_cell_angle_alpha  89.414824
_cell_angle_beta   89.78261
_cell_angle_gamma 90.06221
loop_
_atom_site_label
_atom_site_type_symbol
_atom_site_fract_x
_atom_site_fract_y
_atom_site_fract_z
_atom_type_partial_charge
C0 C 0.0248 0.10631 0.07448 0.0
C1 C 0.90247 0.988 0.97636 0.0
O2 O 0.98268 0.11652 0.04645 0.0
Zn3 Zn 0.96389 0.04838 0.02363 0.0
O4 O 0.04046 0.06092 0.07567 0.0
Zn5 Zn 1.01301 0.98839 0.04557 0.0
O6 O 0.06435 0.96768 0.9821 0.0
O7 O 1.01688 0.0296 0.94312 0.0
O8 O 0.94326 0.96661 0.99675 0.0
O9 O 0.89767 0.03493 0.98399 0.0
O10 O 0.95734 0.01835 0.12514 0.0
O11 O 1.00987 0.9553 0.133 0.0
C12 C 0.05293 0.99801 0.93448 0.0
C13 C 0.97683 0.98301 0.16082 0.0
C14 C 0.27817 0.89197 0.28417 0.0
C15 C 0.37243 0.76315 0.16047 0.0
O16 O 0.24934 0.85794 0.26002 0.0
Zn17 Zn 0.25733 0.79024 0.20168 0.0
O18 O 0.3253 0.89102 0.27148 0.0
Zn19 Zn 0.32608 0.82995 0.21952 0.0
O20 O 0.28931 0.85041 0.12793 0.0
O21 O 0.21939 0.80658 0.12037 0.0
O22 O 0.38946 0.80211 0.18872 0.0
O23 O 0.32468 0.75423 0.16176 0.0
O24 O 0.23214 0.74145 0.26946 0.0
O25 O 0.30289 0.77909 0.29634 0.0
C26 C 0.24862 0.84019 0.09595 0.0
C27 C 0.26785 0.74782 0.31173 0.0
C28 C 0.51518 0.0259 0.60025 0.0
C29 C 0.45318 0.96434 0.384 0.0
O30 O 0.47603 0.03969 0.56779 0.0
Zn31 Zn 0.48722 1.00124 0.48775 0.0
O32 O 0.54675 0.99663 0.57103 0.0
Zn33 Zn 0.55323 0.95705 0.47675 0.0
O34 O 0.61122 0.98868 0.42997 0.0
O35 O 0.54728 0.04106 0.43727 0.0
O36 O 0.49742 0.9476 0.39857 0.0
O37 O 0.43406 0.99781 0.42136 0.0
O38 O 0.48416 0.9277 0.53413 0.0
O39 O 0.5566 0.88873 0.51569 0.0
C40 C 0.59275 0.03187 0.41843 0.0
C41 C 0.51247 0.88925 0.54218 0.0
C42 C 0.3042 0.18886 0.81404 0.0
C43 C 0.17154 0.27787 0.68777 0.0
O44 O 0.32171 0.22764 0.78282 0.0
Zn45 Zn 0.29159 0.2871 0.71894 0.0
O46 O 0.25818 0.17675 0.80523 0.0
Zn47 Zn 0.23796 0.23205 0.7473 0.0
O48 O 0.27372 0.2204 0.64945 0.0
O49 O 0.32846 0.28131 0.63522 0.0
O50 O 0.16693 0.23801 0.72296 0.0
O51 O 0.21502 0.2991 0.68228 0.0
O52 O 0.30425 0.34541 0.77538 0.0
O53 O 0.24815 0.29215 0.81684 0.0
C54 C 0.30783 0.24187 0.61273 0.0
C55 C 0.27453 0.33215 0.82312 0.0
C56 C 0.05066 0.1386 0.57335 0.0
C57 C 0.16472 0.01941 0.46429 0.0
O58 O 0.03449 0.09348 0.58076 0.0
Zn59 Zn 0.05882 0.0195 0.54728 0.0
O60 O 0.09046 0.14682 0.53883 0.0
Zn61 Zn 0.10701 0.07747 0.52028 0.0
O62 O 0.05327 0.05412 0.44174 0.0
O63 O 1.00558 0.99594 0.4901 0.0
O64 O 0.17025 0.06604 0.47287 0.0
O65 O 0.12591 0.99715 0.4898 0.0
O66 O 0.06502 0.98326 0.63016 0.0
O67 O 0.11894 0.04555 0.62279 0.0
C68 C 1.01758 0.02154 0.43798 0.0
C69 C 0.09981 1.00886 0.65714 0.0
C70 C 0.25872 0.83288 0.81777 0.0
C71 C 0.24939 0.75247 0.59846 0.0
O72 O 0.23755 0.84944 0.76425 0.0
Zn73 Zn 0.25445 0.79276 0.70931 0.0
O74 O 0.2841 0.792 0.81661 0.0
Zn75 Zn 0.30103 0.73392 0.74439 0.0
O76 O 0.37435 0.73667 0.73552 0.0
O77 O 0.3352 0.80221 0.69112 0.0
O78 O 0.27827 0.7283 0.63945 0.0
O79 O 0.22619 0.79103 0.61891 0.0
O80 O 0.2148 0.73481 0.76524 0.0
O81 O 0.27098 0.67658 0.79036 0.0
C82 C 0.3762 0.77794 0.70296 0.0
C83 C 0.22596 0.69308 0.79412 0.0
C84 C 0.58398 0.97126 0.06752 0.0
C85 C 0.43765 0.07482 0.99138 0.0
O86 O 0.58121 0.01882 0.06977 0.0
Zn87 Zn 0.51381 0.02716 0.02877 0.0
O88 O 0.54813 0.94635 0.04041 0.0
Zn89 Zn 0.47626 0.95985 0.9954 0.0
O90 O 0.48423 0.94028 0.90135 0.0
O91 O 0.5231 1.01147 0.9244 0.0
O92 O 0.4346 0.02769 0.98104 0.0
O93 O 0.47776 0.09126 0.01927 0.0
O94 O 0.46848 0.9904 0.10245 0.0
O95 O 0.43276 0.92311 0.0587 0.0
C96 C 0.50914 0.97863 0.88162 0.0
C97 C 0.4404 0.95169 0.10903 0.0
C98 C 0.25888 0.38905 0.29222 0.0
C99 C 0.1549 0.25346 0.20177 0.0
O100 O 0.21091 0.38588 0.29147 0.0
Zn101 Zn 0.20717 0.32215 0.24667 0.0
O102 O 0.28572 0.35483 0.26463 0.0
Zn103 Zn 0.27267 0.28388 0.21528 0.0
O104 O 0.30172 0.29536 0.12628 0.0
O105 O 0.23267 0.33979 0.14427 0.0
O106 O 0.20234 0.24552 0.19254 0.0
O107 O 0.14085 0.29232 0.23311 0.0
O108 O 0.24266 0.27699 0.32451 0.0
O109 O 0.30826 0.23956 0.27743 0.0
C110 C 0.26911 0.32659 0.10491 0.0
C111 C 0.28156 0.24863 0.32968 0.0
C112 C 0.78963 0.36803 0.83736 0.0
C113 C 0.92839 0.27149 0.73047 0.0
O114 O 0.77638 0.32304 0.8237 0.0
Zn115 Zn 0.81264 0.25735 0.78321 0.0
O116 O 0.83534 0.38096 0.82718 0.0
Zn117 Zn 0.86239 0.31835 0.78945 0.0
O118 O 0.82335 0.31069 0.69369 0.0
O119 O 0.77397 0.24494 0.70357 0.0
O120 O 0.93156 0.31586 0.75327 0.0
O121 O 0.88752 0.24632 0.73932 0.0
O122 O 0.81071 0.20695 0.85393 0.0
O123 O 0.86802 0.26433 0.87228 0.0
C124 C 0.79114 0.28074 0.66724 0.0
C125 C 0.84763 0.22226 0.88903 0.0
C126 C 0.83128 0.6942 0.27797 0.0
C127 C 0.72261 0.83465 0.20149 0.0
O128 O 0.84599 0.73372 0.24695 0.0
Zn129 Zn 0.77953 0.766 0.23915 0.0
O130 O 0.78404 0.68742 0.2895 0.0
Zn131 Zn 0.71403 0.72702 0.27625 0.0
O132 O 0.67576 0.68403 0.21696 0.0
O133 O 0.74055 0.72158 0.16631 0.0
O134 O 0.69843 0.79864 0.23041 0.0
O135 O 0.77072 0.83278 0.19788 0.0
O136 O 0.76306 0.7765 0.34431 0.0
O137 O 0.6932 0.73458 0.3699 0.0
C138 C 0.70149 0.69327 0.16359 0.0
C139 C 0.72989 0.76218 0.38789 0.0
C140 C 0.82388 0.24896 0.38516 0.0
C141 C 0.84619 0.17746 0.16044 0.0
O142 O 0.79072 0.26363 0.34223 0.0
Zn143 Zn 0.7717 0.25171 0.23892 0.0
O144 O 0.8592 0.21961 0.36701 0.0
Zn145 Zn 0.83663 0.21068 0.27427 0.0
O146 O 0.85433 0.28065 0.22504 0.0
O147 O 0.78293 0.31704 0.19413 0.0
O148 O 0.87224 0.16636 0.21272 0.0
O149 O 0.80795 0.20645 0.16552 0.0
O150 O 0.70455 0.22101 0.25051 0.0
O151 O 0.76571 0.1736 0.29193 0.0
C152 C 0.83117 0.31666 0.19519 0.0
C153 C 0.71854 0.18155 0.28208 0.0
C154 C 0.61638 0.76672 0.72821 0.0
C155 C 0.75098 0.85981 0.8483 0.0
O156 O 0.61154 0.81002 0.7541 0.0
Zn157 Zn 0.67998 0.81309 0.79306 0.0
O158 O 0.6576 0.7423 0.73647 0.0
Zn159 Zn 0.73064 0.75225 0.78297 0.0
O160 O 0.73182 0.70043 0.85206 0.0
O161 O 0.67495 0.75788 0.87279 0.0
O162 O 0.76482 0.81634 0.82867 0.0
O163 O 0.70527 0.8731 0.83918 0.0
O164 O 0.7227 0.81069 0.69941 0.0
O165 O 0.77173 0.74435 0.70401 0.0
C166 C 0.69568 0.71599 0.88875 0.0
C167 C 0.75594 0.78256 0.67139 0.0
C168 C 0.38384 0.52322 0.44578 0.0
C169 C 0.50139 0.63683 0.5577 0.0
O170 O 0.37993 0.57034 0.45226 0.0
Zn171 Zn 0.4438 0.57932 0.49837 0.0
O172 O 0.42225 0.5001 0.47046 0.0
Zn173 Zn 0.49112 0.51991 0.52431 0.0
O174 O 0.48322 0.48176 0.60559 0.0
O175 O 0.42956 0.54432 0.59773 0.0
O176 O 0.51617 0.5913 0.56364 0.0
O177 O 0.46336 0.64679 0.52107 0.0
O178 O 0.49525 0.55674 0.41852 0.0
O179 O 0.54336 0.49777 0.46339 0.0
C180 C 0.44722 0.50676 0.63135 0.0
C181 C 0.5308 0.52445 0.4126 0.0
C182 C 0.11136 0.45924 0.07953 0.0
C183 C 0.04203 0.46823 0.85395 0.0
O184 O 0.07561 0.49107 0.07309 0.0
Zn185 Zn 0.02401 0.51673 0.99914 0.0
O186 O 0.12414 0.43151 0.03018 0.0
Zn187 Zn 0.07362 0.45712 0.96851 0.0
O188 O 0.10139 0.53158 0.95013 0.0
O189 O 0.0452 0.58646 0.98722 0.0
O190 O 0.07077 0.43362 0.87615 0.0
O191 O 1.02069 0.49835 0.89509 0.0
O192 O 0.95905 0.49696 0.04032 0.0
O193 O 1.00546 0.43104 0.01603 0.0
C194 C 0.08713 0.57693 0.9577 0.0
C195 C 0.96521 0.44972 0.04172 0.0
C196 C 0.50773 0.61838 0.03672 0.0
C197 C 0.63315 0.49989 0.94571 0.0
O198 O 0.49414 0.57247 0.04322 0.0
Zn199 Zn 0.52366 0.49949 0.01837 0.0
O200 O 0.54952 0.62875 0.00756 0.0
Zn201 Zn 0.57076 0.56005 0.99078 0.0
O202 O 0.51833 0.53584 0.91377 0.0
O203 O 0.47312 0.47383 0.95807 0.0
O204 O 0.63608 0.54734 0.94784 0.0
O205 O 0.59388 0.47781 0.97015 0.0
O206 O 0.52831 0.46908 0.1064 0.0
O207 O 0.58023 0.53255 0.09383 0.0
C208 C 0.48363 0.50249 0.90817 0.0
C209 C 0.56203 0.49729 0.13136 0.0
C210 C 0.04453 0.39625 0.51643 0.0
C211 C 0.95573 0.53977 0.40481 0.0
O212 O 0.07148 0.43539 0.50615 0.0
Zn213 Zn 0.06462 0.50928 0.46294 0.0
O214 O 0.99901 0.39511 0.49484 0.0
Zn215 Zn 0.99786 0.46419 0.45715 0.0
O216 O 0.04901 0.45724 0.37411 0.0
O217 O 0.11411 0.50633 0.39118 0.0
O218 O 0.93756 0.49651 0.41767 0.0
O219 O 1.00209 0.54871 0.41908 0.0
O220 O 0.07867 0.54603 0.54378 0.0
O221 O 1.00862 0.50172 0.55027 0.0
C222 C 0.09283 0.47297 0.35575 0.0
C223 C 0.04106 0.53034 0.57844 0.0
C224 C 0.94576 0.0227 0.26994 0.0
C225 C 0.97003 0.98228 0.23672 0.0
C226 C 1.01453 0.96082 0.34176 0.0
C227 C 0.99774 1.00657 0.37074 0.0
N228 N 0.94693 0.08123 0.36354 0.0
N229 N 1.0034 0.89958 0.25286 0.0
C230 C 0.96271 0.03735 0.33546 0.0
C231 C 0.99713 0.94709 0.27636 0.0
N232 N 0.90427 0.04447 0.24104 0.0
N233 N 0.04954 0.9319 0.37472 0.0
H234 H 0.98635 0.88767 0.20808 0.0
H235 H 1.01921 0.87061 0.28147 0.0
H236 H 0.06295 0.93974 0.42313 0.0
H237 H 0.06815 0.90203 0.35205 0.0
H238 H 0.88235 0.0714 0.26508 0.0
H239 H 0.8875 0.03019 0.19742 0.0
H240 H 0.92622 0.10816 0.33702 0.0
H241 H 0.95725 0.09209 0.41234 0.0
C242 C 0.22159 0.71087 0.41633 0.0
C243 C 0.26649 0.72872 0.38385 0.0
C244 C 0.29807 0.7596 0.49104 0.0
C245 C 0.25373 0.7431 0.52471 0.0
N246 N 0.17739 0.69395 0.52348 0.0
N247 N 0.35584 0.74223 0.39968 0.0
C248 C 0.21661 0.71562 0.48865 0.0
C249 C 0.3077 0.7431 0.42485 0.0
N250 N 0.18445 0.68917 0.37878 0.0
N251 N 0.32946 0.79376 0.52006 0.0
H252 H 0.36421 0.726 0.35306 0.0
H253 H 0.3873 0.7527 0.42777 0.0
H254 H 0.3218 0.80995 0.56682 0.0
H255 H 0.35981 0.81003 0.49394 0.0
H256 H 0.14832 0.68144 0.39731 0.0
H257 H 0.19061 0.67753 0.32908 0.0
H258 H 0.15119 0.66995 0.50162 0.0
H259 H 0.17293 0.69781 0.57587 0.0
C260 C 0.46862 1.01327 0.77742 0.0
C261 C 0.51232 0.99284 0.80908 0.0
C262 C 0.56343 0.01672 0.70955 0.0
C263 C 0.51847 0.0315 0.67563 0.0
N264 N 0.43715 0.07015 0.69117 0.0
N265 N 0.60183 0.9761 0.80799 0.0
C266 C 0.47351 0.03775 0.71361 0.0
C267 C 0.56023 0.99571 0.77635 0.0
N268 N 0.42214 1.00889 0.80763 0.0
N269 N 0.60896 0.02508 0.67836 0.0
H270 H 0.60013 0.95979 0.85634 0.0
H271 H 0.63731 0.97303 0.78542 0.0
H272 H 0.61152 0.04435 0.63205 0.0
H273 H 0.64391 0.01769 0.70033 0.0
H274 H 0.38864 0.01754 0.78245 0.0
H275 H 0.41635 0.9926 0.8553 0.0
H276 H 0.40512 0.07926 0.71947 0.0
H277 H 0.443 0.09371 0.64931 0.0
C278 C 0.31735 0.36527 0.92883 0.0
C279 C 0.27268 0.35737 0.89024 0.0
C280 C 0.22532 0.33768 0.99257 0.0
C281 C 0.26962 0.343 0.03232 0.0
N282 N 0.35396 0.37672 0.04099 0.0
N283 N 0.18211 0.36129 0.88908 0.0
C284 C 0.31455 0.36182 1.00132 0.0
C285 C 0.22588 0.35391 0.92425 0.0
N286 N 0.36244 0.37372 0.89672 0.0
N287 N 0.18498 0.31105 0.0165 0.0
H288 H 0.18253 0.37217 0.83793 0.0
H289 H 0.14665 0.36139 0.91252 0.0
H290 H 0.18618 0.29139 0.06233 0.0
H291 H 0.15392 0.30238 0.98629 0.0
H292 H 0.39721 0.37252 0.92139 0.0
H293 H 0.36502 0.38191 0.84502 0.0
H294 H 0.38613 0.39453 0.02184 0.0
H295 H 0.35224 0.37544 0.09395 0.0
C296 C 0.09631 0.95355 0.76034 0.0
C297 C 0.11095 0.99991 0.731 0.0
C298 C 0.10544 0.03928 0.84252 0.0
C299 C 0.07974 0.99607 0.86794 0.0
N300 N 0.0521 0.91057 0.85158 0.0
N301 N 0.15745 0.07538 0.75233 0.0
C302 C 0.07696 0.95215 0.82779 0.0
C303 C 0.12415 0.03967 0.77444 0.0
N304 N 0.10225 0.91091 0.72354 0.0
N305 N 0.11076 0.08028 0.88285 0.0
H306 H 0.17602 0.07282 0.70569 0.0
H307 H 0.17162 0.1036 0.78299 0.0
H308 H 0.10076 0.08007 0.93418 0.0
H309 H 0.12325 0.11496 0.86492 0.0
H310 H 0.09673 0.87504 0.74341 0.0
H311 H 0.11861 0.91166 0.67514 0.0
H312 H 0.04384 0.87978 0.82158 0.0
H313 H 0.03633 0.90785 0.90003 0.0
C314 C 0.78423 0.22412 0.49522 0.0
C315 C 0.81397 0.25901 0.45755 0.0
C316 C 0.8085 0.31843 0.55133 0.0
C317 C 0.78453 0.28089 0.59167 0.0
N318 N 0.726 0.21201 0.58914 0.0
N319 N 0.85532 0.33907 0.44815 0.0
C320 C 0.76519 0.23773 0.55983 0.0
C321 C 0.82581 0.30648 0.48482 0.0
N322 N 0.77507 0.17751 0.46996 0.0
N323 N 0.81146 0.36611 0.57534 0.0
H324 H 0.86877 0.33091 0.39962 0.0
H325 H 0.86977 0.37226 0.46742 0.0
H326 H 0.79378 0.37645 0.62058 0.0
H327 H 0.82562 0.39636 0.5475 0.0
H328 H 0.75807 0.14886 0.49817 0.0
H329 H 0.78826 0.16592 0.42273 0.0
H330 H 0.70818 0.18171 0.5666 0.0
H331 H 0.7066 0.22562 0.63133 0.0
C332 C 0.39228 0.97594 0.21189 0.0
C333 C 0.42229 0.93971 0.1783 0.0
C334 C 0.44647 0.90389 0.28805 0.0
C335 C 0.42823 0.94762 0.31986 0.0
N336 N 0.36025 1.0078 0.31893 0.0
N337 N 0.47563 0.86649 0.18368 0.0
C338 C 0.39364 0.97864 0.28409 0.0
C339 C 0.44724 0.90171 0.21613 0.0
N340 N 0.36465 1.00907 0.174 0.0
N341 N 0.46168 0.86422 0.3271 0.0
H342 H 0.47595 0.86264 0.13106 0.0
H343 H 0.50021 0.84222 0.20888 0.0
H344 H 0.45806 0.86442 0.37994 0.0
H345 H 0.47172 0.82962 0.3072 0.0
H346 H 0.34657 0.04033 0.19372 0.0
H347 H 0.36107 1.0055 0.12149 0.0
H348 H 0.33228 0.0294 0.29597 0.0
H349 H 0.35561 1.00484 0.37137 0.0
C350 C 0.71456 0.64783 0.05534 0.0
C351 C 0.68345 0.67893 0.0956 0.0
C352 C 0.64092 0.7095 0.99345 0.0
C353 C 0.68132 0.69017 0.9542 0.0
N354 N 0.73667 0.61923 0.9421 0.0
N355 N 0.6118 0.73445 0.10478 0.0
C356 C 0.71215 0.65217 0.98324 0.0
C357 C 0.64392 0.70709 0.0653 0.0
N358 N 0.74738 0.61579 0.08677 0.0
N359 N 0.59913 0.72824 0.96167 0.0
H360 H 0.61145 0.73194 0.15762 0.0
H361 H 0.58677 0.76098 0.0853 0.0
H362 H 0.59448 0.72528 0.9093 0.0
H363 H 0.56688 0.74028 0.98722 0.0
H364 H 0.77534 0.59563 0.06178 0.0
H365 H 0.74633 0.60992 0.13929 0.0
H366 H 0.75945 0.59018 0.95961 0.0
H367 H 0.72916 0.61733 0.89023 0.0
C368 C 0.41443 0.53594 0.74539 0.0
C369 C 0.43282 0.49698 0.7039 0.0
C370 C 0.46518 0.45253 0.80372 0.0
C371 C 0.45772 0.49669 0.84221 0.0
N372 N 0.42002 0.57841 0.85357 0.0
N373 N 0.44783 0.40871 0.69873 0.0
C374 C 0.42997 0.53757 0.81447 0.0
C375 C 0.44907 0.45194 0.73504 0.0
N376 N 0.37987 0.56904 0.72 0.0
N377 N 0.49138 0.41295 0.83052 0.0
H378 H 0.43354 0.40792 0.64934 0.0
H379 H 0.4551 0.37349 0.71961 0.0
H380 H 0.50423 0.41164 0.88045 0.0
H381 H 0.50332 0.38254 0.80199 0.0
H382 H 0.36263 0.59677 0.74872 0.0
H383 H 0.36352 0.56445 0.67235 0.0
H384 H 0.40552 0.61186 0.83435 0.0
H385 H 0.42808 0.57936 0.9054 0.0
C386 C 0.83771 0.15092 0.97527 0.0
C387 C 0.8641 0.19428 0.95215 0.0
C388 C 0.90194 0.20322 0.06476 0.0
C389 C 0.8653 0.16915 0.09093 0.0
N390 N 0.80371 0.10483 0.07242 0.0
N391 N 0.94212 0.23979 0.96504 0.0
C392 C 0.83566 0.14034 0.04622 0.0
C393 C 0.90305 0.21366 0.99384 0.0
N394 N 0.81758 0.11855 0.92946 0.0
N395 N 0.93319 0.228 0.10824 0.0
H396 H 0.94748 0.24116 0.91268 0.0
H397 H 0.97219 0.25477 0.99199 0.0
H398 H 0.93574 0.21882 0.15966 0.0
H399 H 0.95553 0.25851 0.09413 0.0
H400 H 0.8003 0.08485 0.94303 0.0
H401 H 0.82471 0.12197 0.87749 0.0
H402 H 0.77639 0.08645 0.04397 0.0
H403 H 0.80392 0.09513 0.12395 0.0
C404 C 0.15849 0.47881 0.18459 0.0
C405 C 0.12556 0.44656 0.14934 0.0
C406 C 0.09136 0.41442 0.25619 0.0
C407 C 0.11513 0.45478 0.29036 0.0
N408 N 0.19034 0.50635 0.2935 0.0
N409 N 0.06091 0.38294 0.14967 0.0
C410 C 0.15487 0.48136 0.25667 0.0
C411 C 0.09353 0.41279 0.18474 0.0
N412 N 0.19109 0.50858 0.14834 0.0
N413 N 0.06737 0.37715 0.29175 0.0
H414 H 0.06202 0.37965 0.09703 0.0
H415 H 0.03131 0.3629 0.17207 0.0
H416 H 0.06585 0.37577 0.34426 0.0
H417 H 0.05387 0.3445 0.26974 0.0
H418 H 0.21245 0.53727 0.1692 0.0
H419 H 0.19555 0.505 0.09588 0.0
H420 H 0.22046 0.52614 0.27223 0.0
H421 H 0.19394 0.50147 0.34581 0.0
C422 C 0.78899 0.74818 0.56174 0.0
C423 C 0.76566 0.78789 0.59675 0.0
C424 C 0.72455 0.8157 0.49156 0.0
C425 C 0.74038 0.77075 0.46038 0.0
N426 N 0.78496 0.6919 0.46672 0.0
N427 N 0.73417 0.87199 0.58681 0.0
C428 C 0.77235 0.73656 0.49544 0.0
C429 C 0.74033 0.82576 0.55906 0.0
N430 N 0.82907 0.72379 0.59037 0.0
N431 N 0.69237 0.84726 0.45797 0.0
H432 H 0.75042 0.88124 0.63328 0.0
H433 H 0.71892 0.90252 0.56083 0.0
H434 H 0.67909 0.8398 0.40933 0.0
H435 H 0.67532 0.87818 0.48019 0.0
H436 H 0.85023 0.69678 0.56528 0.0
H437 H 0.84539 0.73583 0.63556 0.0
H438 H 0.80391 0.66348 0.49275 0.0
H439 H 0.77257 0.68135 0.4188 0.0
C440 C 0.59573 0.53587 0.23976 0.0
C441 C 0.57255 0.4951 0.20624 0.0
C442 C 0.53516 0.46649 0.3136 0.0
C443 C 0.55033 0.51212 0.34417 0.0
N444 N 0.59608 0.59013 0.33797 0.0
N445 N 0.5467 0.40941 0.21992 0.0
C446 C 0.58151 0.54656 0.30798 0.0
C447 C 0.55046 0.45643 0.24598 0.0
N448 N 0.63414 0.56151 0.20852 0.0
N449 N 0.50306 0.4344 0.34705 0.0
H450 H 0.56214 0.40047 0.17269 0.0
H451 H 0.53479 0.37838 0.24818 0.0
H452 H 0.49035 0.44003 0.39654 0.0
H453 H 0.48575 0.40406 0.32375 0.0
H454 H 0.65566 0.5886 0.23268 0.0
H455 H 0.64966 0.55018 0.16241 0.0
H456 H 0.61344 0.6195 0.31159 0.0
H457 H 0.58825 0.59798 0.38875 0.0
C458 C 0.19704 0.84812 0.98883 0.0
C459 C 0.24069 0.86116 0.02592 0.0
C460 C 0.28647 0.87924 0.92033 0.0
C461 C 0.24744 0.85485 0.88445 0.0
N462 N 0.16258 0.82116 0.88132 0.0
N463 N 0.31189 0.91757 0.02595 0.0
C464 C 0.20108 0.84222 0.91737 0.0
C465 C 0.28095 0.88591 0.99142 0.0
N466 N 0.15173 0.84363 0.02186 0.0
N467 N 0.32949 0.89386 0.88687 0.0
H468 H 0.30412 0.92824 0.07574 0.0
H469 H 0.34069 0.93825 0.00297 0.0
H470 H 0.33312 0.8916 0.83415 0.0
H471 H 0.36199 0.90625 0.91131 0.0
H472 H 0.11742 0.83777 0.99737 0.0
H473 H 0.14796 0.8521 0.07328 0.0
H474 H 0.13064 0.80509 0.90371 0.0
H475 H 0.16339 0.81796 0.82861 0.0
C476 C 0.99576 0.49071 0.74855 0.0
C477 C 0.04268 0.48389 0.78189 0.0
C478 C 0.08595 0.53111 0.69072 0.0
C479 C 0.04002 0.53215 0.65404 0.0
N480 N 0.94943 0.53392 0.65946 0.0
N481 N 0.13335 0.49814 0.78613 0.0
C482 C 0.99424 0.51856 0.68694 0.0
C483 C 0.08814 0.5042 0.75339 0.0
N484 N 0.9531 0.46846 0.77437 0.0
N485 N 0.12609 0.55904 0.66816 0.0
H486 H 0.13705 0.48251 0.83442 0.0
H487 H 0.1683 0.50598 0.76395 0.0
H488 H 0.1227 0.58516 0.62878 0.0
H489 H 0.16023 0.56246 0.69382 0.0
H490 H 0.91861 0.46781 0.74903 0.0
H491 H 0.95339 0.44652 0.81855 0.0
H492 H 0.91445 0.52896 0.68311 0.0
H493 H 0.94828 0.55668 0.61603 0.0
C494 C 0.27201 0.19851 0.43767 0.0
C495 C 0.2994 0.23428 0.39858 0.0
C496 C 0.35029 0.25452 0.49864 0.0
C497 C 0.31583 0.2271 0.53986 0.0
N498 N 0.2648 0.15246 0.54418 0.0
N499 N 0.3654 0.2969 0.3913 0.0
C500 C 0.28274 0.19268 0.50817 0.0
C501 C 0.33966 0.26159 0.42848 0.0
N502 N 0.23452 0.17148 0.40779 0.0
N503 N 0.39445 0.27137 0.52604 0.0
H504 H 0.35977 0.30275 0.33947 0.0
H505 H 0.39011 0.32263 0.4128 0.0
H506 H 0.40508 0.26204 0.57558 0.0
H507 H 0.42314 0.28834 0.4976 0.0
H508 H 0.20779 0.15091 0.43516 0.0
H509 H 0.22896 0.17177 0.35538 0.0
H510 H 0.24319 0.12412 0.52293 0.0
H511 H 0.2777 0.14379 0.5929 0.0
C512 C 0.06598 0.19165 0.07625 0.0
C513 C 0.05485 0.14567 0.10952 0.0
C514 C 0.10846 0.17089 0.20552 0.0
C515 C 0.11691 0.21794 0.17366 0.0
N516 N 0.09011 0.278 0.08922 0.0
N517 N 0.05444 0.09793 0.21457 0.0
C518 C 0.09118 0.22991 0.11251 0.0
C519 C 0.07306 0.13697 0.17672 0.0
N520 N 0.05581 0.19791 0.0087 0.0
N521 N 0.13386 0.15876 0.26365 0.0
H522 H 0.02627 0.07422 0.19697 0.0
H523 H 0.06258 0.09247 0.26584 0.0
H524 H 0.15695 0.18421 0.28872 0.0
H525 H 0.13406 0.12286 0.2848 0.0
H526 H 0.06822 0.22893 0.9807 0.0
H527 H 0.03948 0.17016 0.97905 0.0
H528 H 0.06705 0.28974 0.04927 0.0
H529 H 0.10966 0.30653 0.1133 0.0
C530 C 0.24127 0.96576 0.44238 0.0
C531 C 0.19872 0.99212 0.41702 0.0
C532 C 0.21791 0.96283 0.30176 0.0
C533 C 0.25571 0.9308 0.32869 0.0
N534 N 0.30234 0.89919 0.4252 0.0
N535 N 0.14481 1.0151 0.3231 0.0
C536 C 0.26769 0.93204 0.39906 0.0
C537 C 0.1868 0.99077 0.3467 0.0
N538 N 0.25651 0.97329 0.50775 0.0
N539 N 0.21283 0.9675 0.23287 0.0
H540 H 0.12281 0.03835 0.35334 0.0
H541 H 0.13009 1.01018 0.27464 0.0
H542 H 0.23571 0.94817 0.19869 0.0
H543 H 0.18948 0.9938 0.20945 0.0
H544 H 0.2902 0.95942 0.5276 0.0
H545 H 0.23733 0.99708 0.54076 0.0
H546 H 0.30876 0.89444 0.47696 0.0
H547 H 0.32267 0.87413 0.39545 0.0
C548 C 0.45203 0.8348 0.69885 0.0
C549 C 0.42398 0.79526 0.67001 0.0
C550 C 0.47105 0.80543 0.56244 0.0
C551 C 0.49385 0.84896 0.58876 0.0
N552 N 0.52207 0.8932 0.68688 0.0
N553 N 0.41184 0.73642 0.58021 0.0
C554 C 0.48946 0.85974 0.6588 0.0
C555 C 0.4361 0.77779 0.60398 0.0
N556 N 0.44089 0.85016 0.76317 0.0
N557 N 0.4832 0.79094 0.49808 0.0
H558 H 0.38799 0.71435 0.61041 0.0
H559 H 0.41408 0.72425 0.53053 0.0
H560 H 0.50923 0.81068 0.46813 0.0
H561 H 0.47073 0.75812 0.47577 0.0
H562 H 0.4553 0.88276 0.78428 0.0
H563 H 0.41527 0.83105 0.79452 0.0
H564 H 0.52488 0.89868 0.73896 0.0
H565 H 0.55027 0.91103 0.65828 0.0
C566 C 0.36778 0.18806 0.911 0.0
C567 C 0.3361 0.16136 0.86515 0.0
C568 C 0.35476 0.08513 0.92983 0.0
C569 C 0.3969 0.10834 0.96156 0.0
N570 N 0.43807 0.18671 0.98925 0.0
N571 N 0.30583 0.08081 0.82712 0.0
C572 C 0.40209 0.16124 0.95404 0.0
C573 C 0.33131 0.10882 0.87351 0.0
N574 N 0.36219 0.23859 0.91811 0.0
N575 N 0.33506 0.04177 0.95585 0.0
H576 H 0.29148 0.09564 0.78199 0.0
H577 H 0.3043 0.04183 0.82997 0.0
H578 H 0.34666 0.02736 0.00267 0.0
H579 H 0.30249 0.02506 0.93664 0.0
H580 H 0.38067 0.25924 0.95515 0.0
H581 H 0.33427 0.25904 0.89325 0.0
H582 H 0.44929 0.22299 0.97621 0.0
H583 H 0.45555 0.17248 0.03253 0.0
C584 C 0.84664 0.91141 0.97607 0.0
C585 C 0.86133 0.9573 0.94482 0.0
C586 C 0.79883 0.94236 0.85427 0.0
C587 C 0.78859 0.89379 0.88168 0.0
N588 N 0.81189 0.82862 0.96238 0.0
N589 N 0.85809 1.01164 0.84614 0.0
C590 C 0.81562 0.87714 0.94019 0.0
C591 C 0.83886 0.97182 0.88204 0.0
N592 N 0.85974 0.90158 0.04201 0.0
N593 N 0.77152 0.96004 0.80034 0.0
H594 H 0.88878 0.03277 0.86251 0.0
H595 H 0.84704 0.0208 0.79686 0.0
H596 H 0.74581 0.93834 0.77351 0.0
H597 H 0.77246 0.99733 0.78437 0.0
H598 H 0.84559 0.87112 0.06963 0.0
H599 H 0.87978 0.92683 0.07174 0.0
H600 H 0.83618 0.81334 0.99866 0.0
H601 H 0.78606 0.80292 0.94339 0.0
C602 C 0.96384 0.24819 0.61717 0.0
C603 C 0.96935 0.24884 0.68877 0.0
C604 C 0.03776 0.18707 0.68077 0.0
C605 C 0.026 0.18011 0.61109 0.0
N606 N 0.97922 0.20443 0.51141 0.0
N607 N 1.01444 0.224 0.78902 0.0
C608 C 0.98997 0.2114 0.57852 0.0
C609 C 1.00769 0.22012 0.72055 0.0
N610 N 0.93412 0.28345 0.58639 0.0
N611 N 0.07825 0.16254 0.70826 0.0
H612 H 0.9963 0.25149 0.81731 0.0
H613 H 0.03713 0.20021 0.81787 0.0
H614 H 0.10157 0.13938 0.67964 0.0
H615 H 0.09126 0.1678 0.75744 0.0
H616 H 0.93209 0.28851 0.53401 0.0
H617 H 0.91535 0.31109 0.61381 0.0
H618 H 0.94938 0.22192 0.48628 0.0
H619 H 0.99869 0.17881 0.48141 0.0
C620 C 0.66087 0.15604 0.37865 0.0
C621 C 0.68126 0.14609 0.31318 0.0
C622 C 0.63795 0.06478 0.31369 0.0
C623 C 0.62293 0.07163 0.38225 0.0
N624 N 0.62272 0.12264 0.48242 0.0
N625 N 0.69378 0.08888 0.2209 0.0
C626 C 0.63476 0.11724 0.41528 0.0
C627 C 0.67109 0.09984 0.28147 0.0
N628 N 0.66668 0.2026 0.40578 0.0
N629 N 0.61789 0.02636 0.2777 0.0
H630 H 0.71625 0.11451 0.1941 0.0
H631 H 0.69289 0.05338 0.19947 0.0
H632 H 0.59238 1.00092 0.29912 0.0
H633 H 0.62202 0.0236 0.22529 0.0
H634 H 0.64899 0.21419 0.4502 0.0
H635 H 0.68661 0.23125 0.38118 0.0
H636 H 0.63342 0.15313 0.51143 0.0
H637 H 0.60462 0.09479 0.51101 0.0
C638 C 0.69676 0.886 0.09807 0.0
C639 C 0.69292 0.87604 0.16899 0.0
C640 C 0.61617 0.92757 0.17248 0.0
C641 C 0.62425 0.943 0.10407 0.0
N642 N 0.67692 0.94197 0.00413 0.0
N643 N 0.65412 0.89611 0.27615 0.0
C644 C 0.66636 0.92419 0.06789 0.0
C645 C 0.65418 0.89966 0.20693 0.0
N646 N 0.72527 0.85578 0.05788 0.0
N647 N 0.5713 0.93767 0.20401 0.0
H648 H 0.68296 0.87805 0.30276 0.0
H649 H 0.62874 0.91539 0.30689 0.0
H650 H 0.54343 0.96016 0.18221 0.0
H651 H 0.56097 0.92154 0.25047 0.0
H652 H 0.72159 0.85623 0.00522 0.0
H653 H 0.74732 0.82653 0.0768 0.0
H654 H 0.70993 0.93269 0.97799 0.0
H655 H 0.65485 0.96925 0.98018 0.0
C656 C 0.51022 0.68213 0.66842 0.0
C657 C 0.52513 0.67664 0.59938 0.0
C658 C 0.58606 0.74524 0.61223 0.0
C659 C 0.57728 0.74466 0.6833 0.0
N660 N 0.52913 0.71614 0.77974 0.0
N661 N 0.57694 0.70264 0.50451 0.0
C662 C 0.53826 0.71455 0.71148 0.0
C663 C 0.56257 0.70858 0.57071 0.0
N664 N 0.46856 0.65707 0.69217 0.0
N665 N 0.61621 0.78169 0.58457 0.0
H666 H 0.55948 0.67716 0.4723 0.0
H667 H 0.60792 0.72077 0.48254 0.0
H668 H 0.63297 0.80937 0.61403 0.0
H669 H 0.62016 0.78768 0.53252 0.0
H670 H 0.45285 0.66227 0.74007 0.0
H671 H 0.447 0.63375 0.66155 0.0
H672 H 0.50577 0.69104 0.80574 0.0
H673 H 0.54635 0.74246 0.81088 0.0
C674 C 0.66651 0.44343 0.85363 0.0
C675 C 0.67474 0.46954 0.91522 0.0
C676 C 0.75808 0.42946 0.92615 0.0
C677 C 0.75104 0.40483 0.86307 0.0
N678 N 0.70299 0.39713 0.75985 0.0
N679 N 0.73096 0.4932 0.00549 0.0
C680 C 0.70634 0.41417 0.82496 0.0
C681 C 0.72156 0.46467 0.94962 0.0
N682 N 0.62041 0.44642 0.82253 0.0
N683 N 0.79818 0.41672 0.96596 0.0
H684 H 0.70416 0.51695 0.02697 0.0
H685 H 0.76644 0.49619 0.02788 0.0
H686 H 0.82455 0.3904 0.95085 0.0
H687 H 0.80288 0.4285 0.01577 0.0
H688 H 0.60959 0.42343 0.78274 0.0
H689 H 0.59162 0.47011 0.83898 0.0
H690 H 0.67393 0.40687 0.72675 0.0
H691 H 0.73184 0.37701 0.73635 0.0
C692 C 0.86756 0.34714 0.08352 0.0
C693 C 0.862 0.35334 0.15492 0.0
C694 C 0.92789 0.41833 0.1521 0.0
C695 C 0.92948 0.41629 0.08009 0.0
N696 N 0.91357 0.36845 0.9796 0.0
N697 N 0.88472 0.39627 0.25715 0.0
C698 C 0.90297 0.3776 0.04639 0.0
C699 C 0.89185 0.3891 0.18914 0.0
N700 N 0.83823 0.31264 0.05111 0.0
N701 N 0.96451 0.44411 0.18574 0.0
H702 H 0.85836 0.37592 0.28579 0.0
H703 H 0.9021 0.42483 0.28407 0.0
H704 H 0.9908 0.46734 0.16141 0.0
H705 H 0.97269 0.43721 0.23669 0.0
H706 H 0.83672 0.30868 0.99869 0.0
H707 H 0.81293 0.28901 0.07654 0.0
H708 H 0.90115 0.337 0.95388 0.0
H709 H 0.93653 0.39161 0.9497 0.0
C710 C 0.90473 0.57262 0.30521 0.0
C711 C 0.92449 0.57988 0.37143 0.0
C712 C 0.89203 0.66641 0.36909 0.0
C713 C 0.86786 0.657 0.3061 0.0
N714 N 0.84736 0.6001 0.21636 0.0
N715 N 0.93199 0.63182 0.47023 0.0
C716 C 0.87303 0.60969 0.27496 0.0
C717 C 0.91712 0.6265 0.40423 0.0
N718 N 0.91877 0.53148 0.26948 0.0
N719 N 0.89084 0.71356 0.39542 0.0
H720 H 0.94937 0.60321 0.49796 0.0
H721 H 0.92355 0.66289 0.49956 0.0
H722 H 0.87153 0.74315 0.37232 0.0
H723 H 0.91181 0.72445 0.4374 0.0
H724 H 0.91008 0.52626 0.21853 0.0
H725 H 0.94346 0.50489 0.28935 0.0
H726 H 0.84385 0.5645 0.19581 0.0
H727 H 0.82726 0.62762 0.18998 0.0
C728 C 0.28363 0.42679 0.40354 0.0
C729 C 0.28465 0.42869 0.33135 0.0
C730 C 0.34814 0.49576 0.33412 0.0
C731 C 0.34609 0.4947 0.40625 0.0
N732 N 0.30548 0.467 0.50958 0.0
N733 N 0.30997 0.47033 0.22773 0.0
C734 C 0.31166 0.46267 0.4409 0.0
C735 C 0.31453 0.46493 0.29658 0.0
N736 N 0.25826 0.38896 0.43641 0.0
N737 N 0.38382 0.5245 0.30162 0.0
H738 H 0.28559 0.4483 0.19903 0.0
H739 H 0.32671 0.49928 0.19988 0.0
H740 H 0.40832 0.54837 0.3272 0.0
H741 H 0.39143 0.52248 0.24981 0.0
H742 H 0.26121 0.38181 0.48832 0.0
H743 H 0.23695 0.36211 0.41121 0.0
H744 H 0.27734 0.44841 0.53711 0.0
H745 H 0.32581 0.49267 0.53837 0.0
C746 C 0.45728 0.69916 0.0294 0.0
C747 C 0.47604 0.65814 0.06841 0.0
C748 C 0.42328 0.68385 0.16493 0.0
C749 C 0.40784 0.72708 0.12824 0.0
N750 N 0.41575 0.78035 0.02917 0.0
N751 N 0.48693 0.61963 0.1789 0.0
C752 C 0.42684 0.73626 0.06164 0.0
C753 C 0.46187 0.65284 0.13783 0.0
N754 N 0.46613 0.70132 0.96099 0.0
N755 N 0.40039 0.6717 0.22522 0.0
H756 H 0.51724 0.59815 0.16193 0.0
H757 H 0.48156 0.6175 0.2313 0.0
H758 H 0.37168 0.69327 0.24638 0.0
H759 H 0.40642 0.6379 0.25076 0.0
H760 H 0.44907 0.72729 0.92864 0.0
H761 H 0.48739 0.67455 0.93542 0.0
H762 H 0.43281 0.79163 0.98376 0.0
H763 H 0.39207 0.80739 0.05013 0.0
C764 C 0.19859 0.65941 0.90826 0.0
C765 C 0.18773 0.66759 0.83829 0.0
C766 C 0.10306 0.63104 0.85557 0.0
C767 C 0.11726 0.61621 0.92238 0.0
N768 N 0.17902 0.61323 0.01179 0.0
N769 N 0.12996 0.66154 0.74423 0.0
C770 C 0.16509 0.6298 0.94866 0.0
C771 C 0.13967 0.65414 0.81181 0.0
N772 N 0.23959 0.68205 0.93703 0.0
N773 N 0.0549 0.62173 0.83372 0.0
H774 H 0.15665 0.67587 0.71008 0.0
H775 H 0.0968 0.65077 0.72023 0.0
H776 H 0.02768 0.60411 0.86405 0.0
H777 H 0.0403 0.63427 0.78765 0.0
H778 H 0.24649 0.6817 0.98908 0.0
H779 H 0.26406 0.70564 0.91005 0.0
H780 H 0.21574 0.61613 0.03039 0.0
H781 H 0.15426 0.59409 0.04434 0.0
C782 C 0.10694 0.32573 0.5313 0.0
C783 C 0.06703 0.35516 0.55845 0.0
C784 C 0.08968 0.32595 0.67365 0.0
C785 C 0.12918 0.29683 0.64531 0.0
N786 N 0.16375 0.25562 0.54766 0.0
N787 N 1.01503 0.37757 0.65426 0.0
C788 C 0.13355 0.29209 0.57418 0.0
C789 C 0.05617 0.35273 0.62933 0.0
N790 N 0.12229 0.33262 0.46568 0.0
N791 N 0.08585 0.32965 0.74265 0.0
H792 H 0.9904 0.39791 0.62331 0.0
H793 H 1.0033 0.37574 0.70466 0.0
H794 H 0.10881 0.30911 0.77568 0.0
H795 H 0.06155 0.35412 0.76739 0.0
H796 H 0.15446 0.31597 0.44516 0.0
H797 H 0.10589 0.3591 0.43396 0.0
H798 H 0.16503 0.24742 0.49605 0.0
H799 H 0.18313 0.22997 0.57824 0.0
loop_
_geom_bond_atom_site_label_1
_geom_bond_atom_site_label_2
_geom_bond_distance
_geom_bond_site_symmetry_2
_ccdc_geom_bond_type
C0 O2 1.247 . S
C0 O4 1.258 . S
C1 O8 1.247 . S
C1 O9 1.258 . S
O2 C0 1.247 . S
O2 Zn3 2.030 1_455 S
Zn3 O2 2.030 1_655 S
Zn3 O7 2.027 1_554 S
Zn3 O9 2.033 1_544 S
Zn3 O10 2.036 . S
O4 C0 1.258 . S
O4 Zn5 2.034 1_544 S
Zn5 O4 2.034 1_566 S
Zn5 O6 2.033 . S
Zn5 O8 2.029 1_455 S
Zn5 O11 2.030 1_556 S
O6 Zn5 2.033 . S
O6 C12 1.247 1_565 S
O7 Zn3 2.027 1_556 S
O7 C12 1.258 1_655 S
O8 C1 1.247 . S
O8 Zn5 2.029 1_655 S
O9 C1 1.258 . S
O9 Zn3 2.033 1_566 S
O10 Zn3 2.036 . S
O10 C13 1.247 1_545 S
O11 Zn5 2.030 1_554 S
O11 C13 1.258 1_455 S
C12 O6 1.247 1_545 S
C12 O7 1.258 1_455 S
C13 O10 1.247 1_565 S
C13 O11 1.258 1_655 S
C14 O16 1.247 . S
C14 O18 1.258 . S
C15 O22 1.247 . S
C15 O23 1.258 . S
O16 C14 1.247 . S
O16 Zn17 2.028 . S
Zn17 O16 2.028 . S
Zn17 O21 2.035 . S
Zn17 O23 2.035 . S
Zn17 O24 2.028 . S
O18 C14 1.258 . S
O18 Zn19 2.035 . S
Zn19 O18 2.035 . S
Zn19 O20 2.028 . S
Zn19 O22 2.028 . S
Zn19 O25 2.035 . S
O20 Zn19 2.028 . S
O20 C26 1.247 . S
O21 Zn17 2.035 . S
O21 C26 1.258 . S
O22 C15 1.247 . S
O22 Zn19 2.028 . S
O23 C15 1.258 . S
O23 Zn17 2.035 . S
O24 Zn17 2.028 . S
O24 C27 1.247 . S
O25 Zn19 2.035 . S
O25 C27 1.258 . S
C26 O20 1.247 . S
C26 O21 1.258 . S
C27 O24 1.247 . S
C27 O25 1.258 . S
C28 O30 1.247 . S
C28 O32 1.258 1_545 S
C29 O36 1.247 . S
C29 O37 1.258 1_565 S
O30 C28 1.247 . S
O30 Zn31 2.028 . S
Zn31 O30 2.028 . S
Zn31 O35 2.035 . S
Zn31 O37 2.035 . S
Zn31 O38 2.028 1_545 S
O32 C28 1.258 1_565 S
O32 Zn33 2.035 . S
Zn33 O32 2.035 . S
Zn33 O34 2.028 1_565 S
Zn33 O36 2.028 . S
Zn33 O39 2.035 . S
O34 Zn33 2.028 1_545 S
O34 C40 1.247 . S
O35 Zn31 2.035 . S
O35 C40 1.258 . S
O36 C29 1.247 . S
O36 Zn33 2.028 . S
O37 C29 1.258 1_545 S
O37 Zn31 2.035 . S
O38 Zn31 2.028 1_565 S
O38 C41 1.247 . S
O39 Zn33 2.035 . S
O39 C41 1.258 . S
C40 O34 1.247 . S
C40 O35 1.258 . S
C41 O38 1.247 . S
C41 O39 1.258 . S
C42 O44 1.247 . S
C42 O46 1.258 . S
C43 O50 1.247 . S
C43 O51 1.258 . S
O44 C42 1.247 . S
O44 Zn45 2.028 . S
Zn45 O44 2.028 . S
Zn45 O49 2.035 . S
Zn45 O51 2.035 . S
Zn45 O52 2.028 . S
O46 C42 1.258 . S
O46 Zn47 2.035 . S
Zn47 O46 2.035 . S
Zn47 O48 2.028 . S
Zn47 O50 2.028 . S
Zn47 O53 2.035 . S
O48 Zn47 2.028 . S
O48 C54 1.247 . S
O49 Zn45 2.035 . S
O49 C54 1.258 . S
O50 C43 1.247 . S
O50 Zn47 2.028 . S
O51 C43 1.258 . S
O51 Zn45 2.035 . S
O52 Zn45 2.028 . S
O52 C55 1.247 . S
O53 Zn47 2.035 . S
O53 C55 1.258 . S
C54 O48 1.247 . S
C54 O49 1.258 . S
C55 O52 1.247 . S
C55 O53 1.258 . S
C56 O58 1.247 . S
C56 O60 1.258 . S
C57 O64 1.247 . S
C57 O65 1.258 . S
O58 C56 1.247 . S
O58 Zn59 2.028 1_545 S
Zn59 O58 2.028 1_565 S
Zn59 O63 2.035 . S
Zn59 O65 2.035 1_655 S
Zn59 O66 2.028 . S
O60 C56 1.258 . S
O60 Zn61 2.035 1_655 S
Zn61 O60 2.035 1_455 S
Zn61 O62 2.028 . S
Zn61 O64 2.028 1_545 S
Zn61 O67 2.035 . S
O62 Zn61 2.028 . S
O62 C68 1.247 1_455 S
O63 Zn59 2.035 . S
O63 C68 1.258 1_565 S
O64 C57 1.247 . S
O64 Zn61 2.028 1_565 S
O65 C57 1.258 . S
O65 Zn59 2.035 1_455 S
O66 Zn59 2.028 . S
O66 C69 1.247 1_655 S
O67 Zn61 2.035 . S
O67 C69 1.258 1_545 S
C68 O62 1.247 1_655 S
C68 O63 1.258 1_545 S
C69 O66 1.247 1_455 S
C69 O67 1.258 1_565 S
C70 O72 1.247 . S
C70 O74 1.258 . S
C71 O78 1.247 . S
C71 O79 1.258 . S
O72 C70 1.247 . S
O72 Zn73 2.028 . S
Zn73 O72 2.028 . S
Zn73 O77 2.035 . S
Zn73 O79 2.035 . S
Zn73 O80 2.028 . S
O74 C70 1.258 . S
O74 Zn75 2.035 . S
Zn75 O74 2.035 . S
Zn75 O76 2.028 . S
Zn75 O78 2.028 . S
Zn75 O81 2.035 . S
O76 Zn75 2.028 . S
O76 C82 1.247 . S
O77 Zn73 2.035 . S
O77 C82 1.258 . S
O78 C71 1.247 . S
O78 Zn75 2.028 . S
O79 C71 1.258 . S
O79 Zn73 2.035 . S
O80 Zn73 2.028 . S
O80 C83 1.247 . S
O81 Zn75 2.035 . S
O81 C83 1.258 . S
C82 O76 1.247 . S
C82 O77 1.258 . S
C83 O80 1.247 . S
C83 O81 1.258 . S
C84 O86 1.247 . S
C84 O88 1.258 . S
C85 O92 1.247 . S
C85 O93 1.258 . S
O86 C84 1.247 . S
O86 Zn87 2.030 1_565 S
Zn87 O86 2.030 1_545 S
Zn87 O91 2.027 1_554 S
Zn87 O93 2.033 1_554 S
Zn87 O94 2.036 . S
O88 C84 1.258 . S
O88 Zn89 2.034 1_554 S
Zn89 O88 2.034 1_556 S
Zn89 O90 2.033 . S
Zn89 O92 2.029 1_565 S
Zn89 O95 2.030 1_556 S
O90 Zn89 2.033 . S
O90 C96 1.247 . S
O91 Zn87 2.027 1_556 S
O91 C96 1.258 1_545 S
O92 C85 1.247 . S
O92 Zn89 2.029 1_545 S
O93 C85 1.258 . S
O93 Zn87 2.033 1_556 S
O94 Zn87 2.036 . S
O94 C97 1.247 . S
O95 Zn89 2.030 1_554 S
O95 C97 1.258 1_565 S
C96 O90 1.247 . S
C96 O91 1.258 1_565 S
C97 O94 1.247 . S
C97 O95 1.258 1_545 S
C98 O100 1.247 . S
C98 O102 1.258 . S
C99 O106 1.247 . S
C99 O107 1.258 . S
O100 C98 1.247 . S
O100 Zn101 2.028 . S
Zn101 O100 2.028 . S
Zn101 O105 2.035 . S
Zn101 O107 2.035 . S
Zn101 O108 2.028 . S
O102 C98 1.258 . S
O102 Zn103 2.035 . S
Zn103 O102 2.035 . S
Zn103 O104 2.028 . S
Zn103 O106 2.028 . S
Zn103 O109 2.035 . S
O104 Zn103 2.028 . S
O104 C110 1.247 . S
O105 Zn101 2.035 . S
O105 C110 1.258 . S
O106 C99 1.247 . S
O106 Zn103 2.028 . S
O107 C99 1.258 . S
O107 Zn101 2.035 . S
O108 Zn101 2.028 . S
O108 C111 1.247 . S
O109 Zn103 2.035 . S
O109 C111 1.258 . S
C110 O104 1.247 . S
C110 O105 1.258 . S
C111 O108 1.247 . S
C111 O109 1.258 . S
C112 O114 1.247 . S
C112 O116 1.258 . S
C113 O120 1.247 . S
C113 O121 1.258 . S
O114 C112 1.247 . S
O114 Zn115 2.028 . S
Zn115 O114 2.028 . S
Zn115 O119 2.035 . S
Zn115 O121 2.035 . S
Zn115 O122 2.028 . S
O116 C112 1.258 . S
O116 Zn117 2.035 . S
Zn117 O116 2.035 . S
Zn117 O118 2.028 . S
Zn117 O120 2.028 . S
Zn117 O123 2.035 . S
O118 Zn117 2.028 . S
O118 C124 1.247 . S
O119 Zn115 2.035 . S
O119 C124 1.258 . S
O120 C113 1.247 . S
O120 Zn117 2.028 . S
O121 C113 1.258 . S
O121 Zn115 2.035 . S
O122 Zn115 2.028 . S
O122 C125 1.247 . S
O123 Zn117 2.035 . S
O123 C125 1.258 . S
C124 O118 1.247 . S
C124 O119 1.258 . S
C125 O122 1.247 . S
C125 O123 1.258 . S
C126 O128 1.247 . S
C126 O130 1.258 . S
C127 O134 1.247 . S
C127 O135 1.258 . S
O128 C126 1.247 . S
O128 Zn129 2.028 . S
Zn129 O128 2.028 . S
Zn129 O133 2.035 . S
Zn129 O135 2.035 . S
Zn129 O136 2.028 . S
O130 C126 1.258 . S
O130 Zn131 2.035 . S
Zn131 O130 2.035 . S
Zn131 O132 2.028 . S
Zn131 O134 2.028 . S
Zn131 O137 2.035 . S
O132 Zn131 2.028 . S
O132 C138 1.247 . S
O133 Zn129 2.035 . S
O133 C138 1.258 . S
O134 C127 1.247 . S
O134 Zn131 2.028 . S
O135 C127 1.258 . S
O135 Zn129 2.035 . S
O136 Zn129 2.028 . S
O136 C139 1.247 . S
O137 Zn131 2.035 . S
O137 C139 1.258 . S
C138 O132 1.247 . S
C138 O133 1.258 . S
C139 O136 1.247 . S
C139 O137 1.258 . S
C140 O142 1.247 . S
C140 O144 1.258 . S
C141 O148 1.247 . S
C141 O149 1.258 . S
O142 C140 1.247 . S
O142 Zn143 2.028 . S
Zn143 O142 2.028 . S
Zn143 O147 2.035 . S
Zn143 O149 2.035 . S
Zn143 O150 2.028 . S
O144 C140 1.258 . S
O144 Zn145 2.035 . S
Zn145 O144 2.035 . S
Zn145 O146 2.028 . S
Zn145 O148 2.028 . S
Zn145 O151 2.035 . S
O146 Zn145 2.028 . S
O146 C152 1.247 . S
O147 Zn143 2.035 . S
O147 C152 1.258 . S
O148 C141 1.247 . S
O148 Zn145 2.028 . S
O149 C141 1.258 . S
O149 Zn143 2.035 . S
O150 Zn143 2.028 . S
O150 C153 1.247 . S
O151 Zn145 2.035 . S
O151 C153 1.258 . S
C152 O146 1.247 . S
C152 O147 1.258 . S
C153 O150 1.247 . S
C153 O151 1.258 . S
C154 O156 1.247 . S
C154 O158 1.258 . S
C155 O162 1.247 . S
C155 O163 1.258 . S
O156 C154 1.247 . S
O156 Zn157 2.028 . S
Zn157 O156 2.028 . S
Zn157 O161 2.035 . S
Zn157 O163 2.035 . S
Zn157 O164 2.028 . S
O158 C154 1.258 . S
O158 Zn159 2.035 . S
Zn159 O158 2.035 . S
Zn159 O160 2.028 . S
Zn159 O162 2.028 . S
Zn159 O165 2.035 . S
O160 Zn159 2.028 . S
O160 C166 1.247 . S
O161 Zn157 2.035 . S
O161 C166 1.258 . S
O162 C155 1.247 . S
O162 Zn159 2.028 . S
O163 C155 1.258 . S
O163 Zn157 2.035 . S
O164 Zn157 2.028 . S
O164 C167 1.247 . S
O165 Zn159 2.035 . S
O165 C167 1.258 . S
C166 O160 1.247 . S
C166 O161 1.258 . S
C167 O164 1.247 . S
C167 O165 1.258 . S
C168 O170 1.247 . S
C168 O172 1.258 . S
C169 O176 1.247 . S
C169 O177 1.258 . S
O170 C168 1.247 . S
O170 Zn171 2.028 . S
Zn171 O170 2.028 . S
Zn171 O175 2.035 . S
Zn171 O177 2.035 . S
Zn171 O178 2.028 . S
O172 C168 1.258 . S
O172 Zn173 2.035 . S
Zn173 O172 2.035 . S
Zn173 O174 2.028 . S
Zn173 O176 2.028 . S
Zn173 O179 2.035 . S
O174 Zn173 2.028 . S
O174 C180 1.247 . S
O175 Zn171 2.035 . S
O175 C180 1.258 . S
O176 C169 1.247 . S
O176 Zn173 2.028 . S
O177 C169 1.258 . S
O177 Zn171 2.035 . S
O178 Zn171 2.028 . S
O178 C181 1.247 . S
O179 Zn173 2.035 . S
O179 C181 1.258 . S
C180 O174 1.247 . S
C180 O175 1.258 . S
C181 O178 1.247 . S
C181 O179 1.258 . S
C182 O184 1.247 1_455 S
C182 O186 1.258 . S
C183 O190 1.247 1_655 S
C183 O191 1.258 . S
O184 C182 1.247 1_655 S
O184 Zn185 2.036 . S
Zn185 O184 2.036 . S
Zn185 O189 2.033 1_654 S
Zn185 O191 2.027 1_554 S
Zn185 O192 2.030 . S
O186 C182 1.258 . S
O186 Zn187 2.030 1_554 S
Zn187 O186 2.030 1_556 S
Zn187 O188 2.029 . S
Zn187 O190 2.033 . S
Zn187 O193 2.034 1_456 S
O188 Zn187 2.029 . S
O188 C194 1.247 . S
O189 Zn185 2.033 1_456 S
O189 C194 1.258 . S
O190 C183 1.247 1_455 S
O190 Zn187 2.033 . S
O191 C183 1.258 . S
O191 Zn185 2.027 1_556 S
O192 Zn185 2.030 . S
O192 C195 1.247 . S
O193 Zn187 2.034 1_654 S
O193 C195 1.258 . S
C194 O188 1.247 . S
C194 O189 1.258 . S
C195 O192 1.247 . S
C195 O193 1.258 . S
C196 O198 1.247 . S
C196 O200 1.258 . S
C197 O204 1.247 . S
C197 O205 1.258 . S
O198 C196 1.247 . S
O198 Zn199 2.030 . S
Zn199 O198 2.030 . S
Zn199 O203 2.027 1_554 S
Zn199 O205 2.033 1_554 S
Zn199 O206 2.036 . S
O200 C196 1.258 . S
O200 Zn201 2.034 1_554 S
Zn201 O200 2.034 1_556 S
Zn201 O202 2.033 . S
Zn201 O204 2.029 . S
Zn201 O207 2.030 1_556 S
O202 Zn201 2.033 . S
O202 C208 1.247 . S
O203 Zn199 2.027 1_556 S
O203 C208 1.258 . S
O204 C197 1.247 . S
O204 Zn201 2.029 . S
O205 C197 1.258 . S
O205 Zn199 2.033 1_556 S
O206 Zn199 2.036 . S
O206 C209 1.247 . S
O207 Zn201 2.030 1_554 S
O207 C209 1.258 . S
C208 O202 1.247 . S
C208 O203 1.258 . S
C209 O206 1.247 . S
C209 O207 1.258 . S
C210 O212 1.247 . S
C210 O214 1.258 . S
C211 O218 1.247 . S
C211 O219 1.258 . S
O212 C210 1.247 . S
O212 Zn213 2.028 . S
Zn213 O212 2.028 . S
Zn213 O217 2.035 . S
Zn213 O219 2.035 1_455 S
Zn213 O220 2.028 . S
O214 C210 1.258 . S
O214 Zn215 2.035 1_455 S
Zn215 O214 2.035 1_655 S
Zn215 O216 2.028 . S
Zn215 O218 2.028 . S
Zn215 O221 2.035 . S
O216 Zn215 2.028 . S
O216 C222 1.247 1_655 S
O217 Zn213 2.035 . S
O217 C222 1.258 . S
O218 C211 1.247 . S
O218 Zn215 2.028 . S
O219 C211 1.258 . S
O219 Zn213 2.035 1_655 S
O220 Zn213 2.028 . S
O220 C223 1.247 1_455 S
O221 Zn215 2.035 . S
O221 C223 1.258 . S
C222 O216 1.247 1_455 S
C222 O217 1.258 . S
C223 O220 1.247 1_655 S
C223 O221 1.258 . S
C224 C225 1.363 1_445 S
C224 C230 1.379 . S
C224 N232 1.356 . S
C225 C224 1.363 1_665 S
C225 C231 1.363 . S
C226 C227 1.363 1_565 S
C226 C231 1.379 . S
C226 N233 1.356 . S
C227 C226 1.363 1_545 S
C227 C230 1.363 1_655 S
N228 C230 1.356 . S
N228 H240 0.984 . S
N228 H241 0.985 . S
N229 C231 1.356 . S
N229 H234 0.984 . S
N229 H235 0.985 . S
C230 C224 1.379 . S
C230 C227 1.363 1_455 S
C230 N228 1.356 . S
C231 C225 1.363 . S
C231 C226 1.379 . S
C231 N229 1.356 . S
N232 C224 1.356 . S
N232 H238 0.984 . S
N232 H239 0.984 . S
N233 C226 1.356 . S
N233 H236 0.984 . S
N233 H237 0.985 . S
H234 N229 0.984 . S
H235 N229 0.985 . S
H236 N233 0.984 . S
H237 N233 0.985 . S
H238 N232 0.984 . S
H239 N232 0.984 . S
H240 N228 0.984 . S
H241 N228 0.985 . S
C242 C243 1.363 . S
C242 C248 1.379 . S
C242 N250 1.356 . S
C243 C242 1.363 . S
C243 C249 1.363 . S
C244 C245 1.363 . S
C244 C249 1.379 . S
C244 N251 1.356 . S
C245 C244 1.363 . S
C245 C248 1.363 . S
N246 C248 1.356 . S
N246 H258 0.984 . S
N246 H259 0.985 . S
N247 C249 1.356 . S
N247 H252 0.984 . S
N247 H253 0.985 . S
C248 C242 1.379 . S
C248 C245 1.363 . S
C248 N246 1.356 . S
C249 C243 1.363 . S
C249 C244 1.379 . S
C249 N247 1.356 . S
N250 C242 1.356 . S
N250 H256 0.984 . S
N250 H257 0.984 . S
N251 C244 1.356 . S
N251 H254 0.984 . S
N251 H255 0.985 . S
H252 N247 0.984 . S
H253 N247 0.985 . S
H254 N251 0.984 . S
H255 N251 0.985 . S
H256 N250 0.984 . S
H257 N250 0.984 . S
H258 N246 0.984 . S
H259 N246 0.985 . S
C260 C261 1.363 1_545 S
C260 C266 1.379 . S
C260 N268 1.356 . S
C261 C260 1.363 1_565 S
C261 C267 1.363 . S
C262 C263 1.363 1_565 S
C262 C267 1.379 . S
C262 N269 1.356 . S
C263 C262 1.363 1_545 S
C263 C266 1.363 . S
N264 C266 1.356 . S
N264 H276 0.984 . S
N264 H277 0.985 . S
N265 C267 1.356 . S
N265 H270 0.984 . S
N265 H271 0.985 . S
C266 C260 1.379 . S
C266 C263 1.363 . S
C266 N264 1.356 . S
C267 C261 1.363 . S
C267 C262 1.379 . S
C267 N265 1.356 . S
N268 C260 1.356 . S
N268 H274 0.984 . S
N268 H275 0.984 . S
N269 C262 1.356 . S
N269 H272 0.984 . S
N269 H273 0.985 . S
H270 N265 0.984 . S
H271 N265 0.985 . S
H272 N269 0.984 . S
H273 N269 0.985 . S
H274 N268 0.984 . S
H275 N268 0.984 . S
H276 N264 0.984 . S
H277 N264 0.985 . S
C278 C279 1.363 . S
C278 C284 1.379 1_556 S
C278 N286 1.356 . S
C279 C278 1.363 . S
C279 C285 1.363 . S
C280 C281 1.363 . S
C280 C285 1.379 1_554 S
C280 N287 1.356 . S
C281 C280 1.363 . S
C281 C284 1.363 . S
N282 C284 1.356 . S
N282 H294 0.984 . S
N282 H295 0.985 . S
N283 C285 1.356 . S
N283 H288 0.984 . S
N283 H289 0.985 . S
C284 C278 1.379 1_554 S
C284 C281 1.363 . S
C284 N282 1.356 . S
C285 C279 1.363 . S
C285 C280 1.379 1_556 S
C285 N283 1.356 . S
N286 C278 1.356 . S
N286 H292 0.984 . S
N286 H293 0.984 . S
N287 C280 1.356 . S
N287 H290 0.984 . S
N287 H291 0.985 . S
H288 N283 0.984 . S
H289 N283 0.985 . S
H290 N287 0.984 . S
H291 N287 0.985 . S
H292 N286 0.984 . S
H293 N286 0.984 . S
H294 N282 0.984 . S
H295 N282 0.985 . S
C296 C297 1.363 1_655 S
C296 C302 1.379 . S
C296 N304 1.356 . S
C297 C296 1.363 1_455 S
C297 C303 1.363 1_565 S
C298 C299 1.363 . S
C298 C303 1.379 . S
C298 N305 1.356 . S
C299 C298 1.363 . S
C299 C302 1.363 1_445 S
N300 C302 1.356 . S
N300 H312 0.984 . S
N300 H313 0.985 . S
N301 C303 1.356 . S
N301 H306 0.984 . S
N301 H307 0.985 . S
C302 C296 1.379 . S
C302 C299 1.363 1_665 S
C302 N300 1.356 . S
C303 C297 1.363 1_545 S
C303 C298 1.379 . S
C303 N301 1.356 . S
N304 C296 1.356 . S
N304 H310 0.984 . S
N304 H311 0.984 . S
N305 C298 1.356 . S
N305 H308 0.984 . S
N305 H309 0.985 . S
H306 N301 0.984 . S
H307 N301 0.985 . S
H308 N305 0.984 . S
H309 N305 0.985 . S
H310 N304 0.984 . S
H311 N304 0.984 . S
H312 N300 0.984 . S
H313 N300 0.985 . S
C314 C315 1.363 . S
C314 C320 1.379 . S
C314 N322 1.356 . S
C315 C314 1.363 . S
C315 C321 1.363 . S
C316 C317 1.363 . S
C316 C321 1.379 . S
C316 N323 1.356 . S
C317 C316 1.363 . S
C317 C320 1.363 . S
N318 C320 1.356 . S
N318 H330 0.984 . S
N318 H331 0.985 . S
N319 C321 1.356 . S
N319 H324 0.984 . S
N319 H325 0.985 . S
C320 C314 1.379 . S
C320 C317 1.363 . S
C320 N318 1.356 . S
C321 C315 1.363 . S
C321 C316 1.379 . S
C321 N319 1.356 . S
N322 C314 1.356 . S
N322 H328 0.984 . S
N322 H329 0.984 . S
N323 C316 1.356 . S
N323 H326 0.984 . S
N323 H327 0.985 . S
H324 N319 0.984 . S
H325 N319 0.985 . S
H326 N323 0.984 . S
H327 N323 0.985 . S
H328 N322 0.984 . S
H329 N322 0.984 . S
H330 N318 0.984 . S
H331 N318 0.985 . S
C332 C333 1.363 . S
C332 C338 1.379 . S
C332 N340 1.356 . S
C333 C332 1.363 . S
C333 C339 1.363 1_545 S
C334 C335 1.363 . S
C334 C339 1.379 . S
C334 N341 1.356 . S
C335 C334 1.363 . S
C335 C338 1.363 1_565 S
N336 C338 1.356 . S
N336 H348 0.984 . S
N336 H349 0.985 . S
N337 C339 1.356 . S
N337 H342 0.984 . S
N337 H343 0.985 . S
C338 C332 1.379 . S
C338 C335 1.363 1_545 S
C338 N336 1.356 . S
C339 C333 1.363 1_565 S
C339 C334 1.379 . S
C339 N337 1.356 . S
N340 C332 1.356 . S
N340 H346 0.984 . S
N340 H347 0.984 . S
N341 C334 1.356 . S
N341 H344 0.984 . S
N341 H345 0.985 . S
H342 N337 0.984 . S
H343 N337 0.985 . S
H344 N341 0.984 . S
H345 N341 0.985 . S
H346 N340 0.984 . S
H347 N340 0.984 . S
H348 N336 0.984 . S
H349 N336 0.985 . S
C350 C351 1.363 . S
C350 C356 1.379 1_554 S
C350 N358 1.356 . S
C351 C350 1.363 . S
C351 C357 1.363 . S
C352 C353 1.363 . S
C352 C357 1.379 1_556 S
C352 N359 1.356 . S
C353 C352 1.363 . S
C353 C356 1.363 . S
N354 C356 1.356 . S
N354 H366 0.984 . S
N354 H367 0.985 . S
N355 C357 1.356 . S
N355 H360 0.984 . S
N355 H361 0.985 . S
C356 C350 1.379 1_556 S
C356 C353 1.363 . S
C356 N354 1.356 . S
C357 C351 1.363 . S
C357 C352 1.379 1_554 S
C357 N355 1.356 . S
N358 C350 1.356 . S
N358 H364 0.984 . S
N358 H365 0.984 . S
N359 C352 1.356 . S
N359 H362 0.984 . S
N359 H363 0.985 . S
H360 N355 0.984 . S
H361 N355 0.985 . S
H362 N359 0.984 . S
H363 N359 0.985 . S
H364 N358 0.984 . S
H365 N358 0.984 . S
H366 N354 0.984 . S
H367 N354 0.985 . S
C368 C369 1.363 . S
C368 C374 1.379 . S
C368 N376 1.356 . S
C369 C368 1.363 . S
C369 C375 1.363 . S
C370 C371 1.363 . S
C370 C375 1.379 . S
C370 N377 1.356 . S
C371 C370 1.363 . S
C371 C374 1.363 . S
N372 C374 1.356 . S
N372 H384 0.984 . S
N372 H385 0.985 . S
N373 C375 1.356 . S
N373 H378 0.984 . S
N373 H379 0.985 . S
C374 C368 1.379 . S
C374 C371 1.363 . S
C374 N372 1.356 . S
C375 C369 1.363 . S
C375 C370 1.379 . S
C375 N373 1.356 . S
N376 C368 1.356 . S
N376 H382 0.984 . S
N376 H383 0.984 . S
N377 C370 1.356 . S
N377 H380 0.984 . S
N377 H381 0.985 . S
H378 N373 0.984 . S
H379 N373 0.985 . S
H380 N377 0.984 . S
H381 N377 0.985 . S
H382 N376 0.984 . S
H383 N376 0.984 . S
H384 N372 0.984 . S
H385 N372 0.985 . S
C386 C387 1.363 . S
C386 C392 1.379 1_556 S
C386 N394 1.356 . S
C387 C386 1.363 . S
C387 C393 1.363 . S
C388 C389 1.363 . S
C388 C393 1.379 1_554 S
C388 N395 1.356 . S
C389 C388 1.363 . S
C389 C392 1.363 . S
N390 C392 1.356 . S
N390 H402 0.984 . S
N390 H403 0.985 . S
N391 C393 1.356 . S
N391 H396 0.984 . S
N391 H397 0.985 . S
C392 C386 1.379 1_554 S
C392 C389 1.363 . S
C392 N390 1.356 . S
C393 C387 1.363 . S
C393 C388 1.379 1_556 S
C393 N391 1.356 . S
N394 C386 1.356 . S
N394 H400 0.984 . S
N394 H401 0.984 . S
N395 C388 1.356 . S
N395 H398 0.984 . S
N395 H399 0.985 . S
H396 N391 0.984 . S
H397 N391 0.985 . S
H398 N395 0.984 . S
H399 N395 0.985 . S
H400 N394 0.984 . S
H401 N394 0.984 . S
H402 N390 0.984 . S
H403 N390 0.985 . S
C404 C405 1.363 . S
C404 C410 1.379 . S
C404 N412 1.356 . S
C405 C404 1.363 . S
C405 C411 1.363 1_455 S
C406 C407 1.363 1_655 S
C406 C411 1.379 . S
C406 N413 1.356 . S
C407 C406 1.363 1_455 S
C407 C410 1.363 . S
N408 C410 1.356 . S
N408 H420 0.984 . S
N408 H421 0.985 . S
N409 C411 1.356 . S
N409 H414 0.984 . S
N409 H415 0.985 . S
C410 C404 1.379 . S
C410 C407 1.363 . S
C410 N408 1.356 . S
C411 C405 1.363 1_655 S
C411 C406 1.379 . S
C411 N409 1.356 . S
N412 C404 1.356 . S
N412 H418 0.984 . S
N412 H419 0.984 . S
N413 C406 1.356 . S
N413 H416 0.984 . S
N413 H417 0.985 . S
H414 N409 0.984 . S
H415 N409 0.985 . S
H416 N413 0.984 . S
H417 N413 0.985 . S
H418 N412 0.984 . S
H419 N412 0.984 . S
H420 N408 0.984 . S
H421 N408 0.985 . S
C422 C423 1.363 . S
C422 C428 1.379 . S
C422 N430 1.356 . S
C423 C422 1.363 . S
C423 C429 1.363 . S
C424 C425 1.363 . S
C424 C429 1.379 . S
C424 N431 1.356 . S
C425 C424 1.363 . S
C425 C428 1.363 . S
N426 C428 1.356 . S
N426 H438 0.984 . S
N426 H439 0.985 . S
N427 C429 1.356 . S
N427 H432 0.984 . S
N427 H433 0.985 . S
C428 C422 1.379 . S
C428 C425 1.363 . S
C428 N426 1.356 . S
C429 C423 1.363 . S
C429 C424 1.379 . S
C429 N427 1.356 . S
N430 C422 1.356 . S
N430 H436 0.984 . S
N430 H437 0.984 . S
N431 C424 1.356 . S
N431 H434 0.984 . S
N431 H435 0.985 . S
H432 N427 0.984 . S
H433 N427 0.985 . S
H434 N431 0.984 . S
H435 N431 0.985 . S
H436 N430 0.984 . S
H437 N430 0.984 . S
H438 N426 0.984 . S
H439 N426 0.985 . S
C440 C441 1.363 . S
C440 C446 1.379 . S
C440 N448 1.356 . S
C441 C440 1.363 . S
C441 C447 1.363 . S
C442 C443 1.363 . S
C442 C447 1.379 . S
C442 N449 1.356 . S
C443 C442 1.363 . S
C443 C446 1.363 . S
N444 C446 1.356 . S
N444 H456 0.984 . S
N444 H457 0.985 . S
N445 C447 1.356 . S
N445 H450 0.984 . S
N445 H451 0.985 . S
C446 C440 1.379 . S
C446 C443 1.363 . S
C446 N444 1.356 . S
C447 C441 1.363 . S
C447 C442 1.379 . S
C447 N445 1.356 . S
N448 C440 1.356 . S
N448 H454 0.984 . S
N448 H455 0.984 . S
N449 C442 1.356 . S
N449 H452 0.984 . S
N449 H453 0.985 . S
H450 N445 0.984 . S
H451 N445 0.985 . S
H452 N449 0.984 . S
H453 N449 0.985 . S
H454 N448 0.984 . S
H455 N448 0.984 . S
H456 N444 0.984 . S
H457 N444 0.985 . S
C458 C459 1.363 . S
C458 C464 1.379 1_554 S
C458 N466 1.356 . S
C459 C458 1.363 . S
C459 C465 1.363 . S
C460 C461 1.363 . S
C460 C465 1.379 1_556 S
C460 N467 1.356 . S
C461 C460 1.363 . S
C461 C464 1.363 . S
N462 C464 1.356 . S
N462 H474 0.984 . S
N462 H475 0.985 . S
N463 C465 1.356 . S
N463 H468 0.984 . S
N463 H469 0.985 . S
C464 C458 1.379 1_556 S
C464 C461 1.363 . S
C464 N462 1.356 . S
C465 C459 1.363 . S
C465 C460 1.379 1_554 S
C465 N463 1.356 . S
N466 C458 1.356 . S
N466 H472 0.984 . S
N466 H473 0.984 . S
N467 C460 1.356 . S
N467 H470 0.984 . S
N467 H471 0.985 . S
H468 N463 0.984 . S
H469 N463 0.985 . S
H470 N467 0.984 . S
H471 N467 0.985 . S
H472 N466 0.984 . S
H473 N466 0.984 . S
H474 N462 0.984 . S
H475 N462 0.985 . S
C476 C477 1.363 . S
C476 C482 1.379 . S
C476 N484 1.356 . S
C477 C476 1.363 . S
C477 C483 1.363 1_655 S
C478 C479 1.363 1_455 S
C478 C483 1.379 . S
C478 N485 1.356 . S
C479 C478 1.363 1_655 S
C479 C482 1.363 . S
N480 C482 1.356 . S
N480 H492 0.984 . S
N480 H493 0.985 . S
N481 C483 1.356 . S
N481 H486 0.984 . S
N481 H487 0.985 . S
C482 C476 1.379 . S
C482 C479 1.363 . S
C482 N480 1.356 . S
C483 C477 1.363 1_455 S
C483 C478 1.379 . S
C483 N481 1.356 . S
N484 C476 1.356 . S
N484 H490 0.984 . S
N484 H491 0.984 . S
N485 C478 1.356 . S
N485 H488 0.984 . S
N485 H489 0.985 . S
H486 N481 0.984 . S
H487 N481 0.985 . S
H488 N485 0.984 . S
H489 N485 0.985 . S
H490 N484 0.984 . S
H491 N484 0.984 . S
H492 N480 0.984 . S
H493 N480 0.985 . S
C494 C495 1.363 . S
C494 C500 1.379 . S
C494 N502 1.356 . S
C495 C494 1.363 . S
C495 C501 1.363 . S
C496 C497 1.363 . S
C496 C501 1.379 . S
C496 N503 1.356 . S
C497 C496 1.363 . S
C497 C500 1.363 . S
N498 C500 1.356 . S
N498 H510 0.984 . S
N498 H511 0.985 . S
N499 C501 1.356 . S
N499 H504 0.984 . S
N499 H505 0.985 . S
C500 C494 1.379 . S
C500 C497 1.363 . S
C500 N498 1.356 . S
C501 C495 1.363 . S
C501 C496 1.379 . S
C501 N499 1.356 . S
N502 C494 1.356 . S
N502 H508 0.984 . S
N502 H509 0.984 . S
N503 C496 1.356 . S
N503 H506 0.984 . S
N503 H507 0.985 . S
H504 N499 0.984 . S
H505 N499 0.985 . S
H506 N503 0.984 . S
H507 N503 0.985 . S
H508 N502 0.984 . S
H509 N502 0.984 . S
H510 N498 0.984 . S
H511 N498 0.985 . S
C512 C513 1.363 . S
C512 C518 1.379 . S
C512 N520 1.356 . S
C513 C512 1.363 . S
C513 C519 1.363 . S
C514 C515 1.363 . S
C514 C519 1.379 . S
C514 N521 1.356 . S
C515 C514 1.363 . S
C515 C518 1.363 . S
N516 C518 1.356 . S
N516 H528 0.984 . S
N516 H529 0.985 . S
N517 C519 1.356 . S
N517 H522 0.984 . S
N517 H523 0.985 . S
C518 C512 1.379 . S
C518 C515 1.363 . S
C518 N516 1.356 . S
C519 C513 1.363 . S
C519 C514 1.379 . S
C519 N517 1.356 . S
N520 C512 1.356 . S
N520 H526 0.984 1_554 S
N520 H527 0.984 1_554 S
N521 C514 1.356 . S
N521 H524 0.984 . S
N521 H525 0.985 . S
H522 N517 0.984 . S
H523 N517 0.985 . S
H524 N521 0.984 . S
H525 N521 0.985 . S
H526 N520 0.984 1_556 S
H527 N520 0.984 1_556 S
H528 N516 0.984 . S
H529 N516 0.985 . S
C530 C531 1.363 . S
C530 C536 1.379 . S
C530 N538 1.356 . S
C531 C530 1.363 . S
C531 C537 1.363 . S
C532 C533 1.363 . S
C532 C537 1.379 . S
C532 N539 1.356 . S
C533 C532 1.363 . S
C533 C536 1.363 . S
N534 C536 1.356 . S
N534 H546 0.984 . S
N534 H547 0.985 . S
N535 C537 1.356 . S
N535 H540 0.984 . S
N535 H541 0.985 . S
C536 C530 1.379 . S
C536 C533 1.363 . S
C536 N534 1.356 . S
C537 C531 1.363 . S
C537 C532 1.379 . S
C537 N535 1.356 . S
N538 C530 1.356 . S
N538 H544 0.984 . S
N538 H545 0.984 . S
N539 C532 1.356 . S
N539 H542 0.984 . S
N539 H543 0.985 . S
H540 N535 0.984 . S
H541 N535 0.985 . S
H542 N539 0.984 . S
H543 N539 0.985 . S
H544 N538 0.984 . S
H545 N538 0.984 . S
H546 N534 0.984 . S
H547 N534 0.985 . S
C548 C549 1.363 . S
C548 C554 1.379 . S
C548 N556 1.356 . S
C549 C548 1.363 . S
C549 C555 1.363 . S
C550 C551 1.363 . S
C550 C555 1.379 . S
C550 N557 1.356 . S
C551 C550 1.363 . S
C551 C554 1.363 . S
N552 C554 1.356 . S
N552 H564 0.984 . S
N552 H565 0.985 . S
N553 C555 1.356 . S
N553 H558 0.984 . S
N553 H559 0.985 . S
C554 C548 1.379 . S
C554 C551 1.363 . S
C554 N552 1.356 . S
C555 C549 1.363 . S
C555 C550 1.379 . S
C555 N553 1.356 . S
N556 C548 1.356 . S
N556 H562 0.984 . S
N556 H563 0.984 . S
N557 C550 1.356 . S
N557 H560 0.984 . S
N557 H561 0.985 . S
H558 N553 0.984 . S
H559 N553 0.985 . S
H560 N557 0.984 . S
H561 N557 0.985 . S
H562 N556 0.984 . S
H563 N556 0.984 . S
H564 N552 0.984 . S
H565 N552 0.985 . S
C566 C567 1.363 . S
C566 C572 1.379 . S
C566 N574 1.356 . S
C567 C566 1.363 . S
C567 C573 1.363 . S
C568 C569 1.363 . S
C568 C573 1.379 . S
C568 N575 1.356 . S
C569 C568 1.363 . S
C569 C572 1.363 . S
N570 C572 1.356 . S
N570 H582 0.984 . S
N570 H583 0.985 . S
N571 C573 1.356 . S
N571 H576 0.984 . S
N571 H577 0.985 . S
C572 C566 1.379 . S
C572 C569 1.363 . S
C572 N570 1.356 . S
C573 C567 1.363 . S
C573 C568 1.379 . S
C573 N571 1.356 . S
N574 C566 1.356 . S
N574 H580 0.984 . S
N574 H581 0.984 . S
N575 C568 1.356 . S
N575 H578 0.984 . S
N575 H579 0.985 . S
H576 N571 0.984 . S
H577 N571 0.985 . S
H578 N575 0.984 . S
H579 N575 0.985 . S
H580 N574 0.984 . S
H581 N574 0.984 . S
H582 N570 0.984 . S
H583 N570 0.985 . S
C584 C585 1.363 . S
C584 C590 1.379 . S
C584 N592 1.356 . S
C585 C584 1.363 . S
C585 C591 1.363 . S
C586 C587 1.363 . S
C586 C591 1.379 . S
C586 N593 1.356 . S
C587 C586 1.363 . S
C587 C590 1.363 . S
N588 C590 1.356 . S
N588 H600 0.984 . S
N588 H601 0.985 . S
N589 C591 1.356 . S
N589 H594 0.984 . S
N589 H595 0.985 . S
C590 C584 1.379 . S
C590 C587 1.363 . S
C590 N588 1.356 . S
C591 C585 1.363 . S
C591 C586 1.379 . S
C591 N589 1.356 . S
N592 C584 1.356 . S
N592 H598 0.984 1_556 S
N592 H599 0.984 1_556 S
N593 C586 1.356 . S
N593 H596 0.984 . S
N593 H597 0.985 . S
H594 N589 0.984 . S
H595 N589 0.985 . S
H596 N593 0.984 . S
H597 N593 0.985 . S
H598 N592 0.984 1_554 S
H599 N592 0.984 1_554 S
H600 N588 0.984 . S
H601 N588 0.985 . S
C602 C603 1.363 . S
C602 C608 1.379 . S
C602 N610 1.356 . S
C603 C602 1.363 . S
C603 C609 1.363 . S
C604 C605 1.363 . S
C604 C609 1.379 . S
C604 N611 1.356 . S
C605 C604 1.363 . S
C605 C608 1.363 . S
N606 C608 1.356 . S
N606 H618 0.984 . S
N606 H619 0.985 . S
N607 C609 1.356 . S
N607 H612 0.984 . S
N607 H613 0.985 . S
C608 C602 1.379 . S
C608 C605 1.363 . S
C608 N606 1.356 . S
C609 C603 1.363 . S
C609 C604 1.379 . S
C609 N607 1.356 . S
N610 C602 1.356 . S
N610 H616 0.984 . S
N610 H617 0.984 . S
N611 C604 1.356 . S
N611 H614 0.984 . S
N611 H615 0.985 . S
H612 N607 0.984 . S
H613 N607 0.985 . S
H614 N611 0.984 . S
H615 N611 0.985 . S
H616 N610 0.984 . S
H617 N610 0.984 . S
H618 N606 0.984 . S
H619 N606 0.985 . S
C620 C621 1.363 . S
C620 C626 1.379 . S
C620 N628 1.356 . S
C621 C620 1.363 . S
C621 C627 1.363 . S
C622 C623 1.363 . S
C622 C627 1.379 . S
C622 N629 1.356 . S
C623 C622 1.363 . S
C623 C626 1.363 . S
N624 C626 1.356 . S
N624 H636 0.984 . S
N624 H637 0.985 . S
N625 C627 1.356 . S
N625 H630 0.984 . S
N625 H631 0.985 . S
C626 C620 1.379 . S
C626 C623 1.363 . S
C626 N624 1.356 . S
C627 C621 1.363 . S
C627 C622 1.379 . S
C627 N625 1.356 . S
N628 C620 1.356 . S
N628 H634 0.984 . S
N628 H635 0.984 . S
N629 C622 1.356 . S
N629 H632 0.984 . S
N629 H633 0.985 . S
H630 N625 0.984 . S
H631 N625 0.985 . S
H632 N629 0.984 . S
H633 N629 0.985 . S
H634 N628 0.984 . S
H635 N628 0.984 . S
H636 N624 0.984 . S
H637 N624 0.985 . S
C638 C639 1.363 . S
C638 C644 1.379 . S
C638 N646 1.356 . S
C639 C638 1.363 . S
C639 C645 1.363 . S
C640 C641 1.363 . S
C640 C645 1.379 . S
C640 N647 1.356 . S
C641 C640 1.363 . S
C641 C644 1.363 . S
N642 C644 1.356 1_556 S
N642 H654 0.984 . S
N642 H655 0.985 . S
N643 C645 1.356 . S
N643 H648 0.984 . S
N643 H649 0.985 . S
C644 C638 1.379 . S
C644 C641 1.363 . S
C644 N642 1.356 1_554 S
C645 C639 1.363 . S
C645 C640 1.379 . S
C645 N643 1.356 . S
N646 C638 1.356 . S
N646 H652 0.984 . S
N646 H653 0.984 . S
N647 C640 1.356 . S
N647 H650 0.984 . S
N647 H651 0.985 . S
H648 N643 0.984 . S
H649 N643 0.985 . S
H650 N647 0.984 . S
H651 N647 0.985 . S
H652 N646 0.984 . S
H653 N646 0.984 . S
H654 N642 0.984 . S
H655 N642 0.985 . S
C656 C657 1.363 . S
C656 C662 1.379 . S
C656 N664 1.356 . S
C657 C656 1.363 . S
C657 C663 1.363 . S
C658 C659 1.363 . S
C658 C663 1.379 . S
C658 N665 1.356 . S
C659 C658 1.363 . S
C659 C662 1.363 . S
N660 C662 1.356 . S
N660 H672 0.984 . S
N660 H673 0.985 . S
N661 C663 1.356 . S
N661 H666 0.984 . S
N661 H667 0.985 . S
C662 C656 1.379 . S
C662 C659 1.363 . S
C662 N660 1.356 . S
C663 C657 1.363 . S
C663 C658 1.379 . S
C663 N661 1.356 . S
N664 C656 1.356 . S
N664 H670 0.984 . S
N664 H671 0.984 . S
N665 C658 1.356 . S
N665 H668 0.984 . S
N665 H669 0.985 . S
H666 N661 0.984 . S
H667 N661 0.985 . S
H668 N665 0.984 . S
H669 N665 0.985 . S
H670 N664 0.984 . S
H671 N664 0.984 . S
H672 N660 0.984 . S
H673 N660 0.985 . S
C674 C675 1.363 . S
C674 C680 1.379 . S
C674 N682 1.356 . S
C675 C674 1.363 . S
C675 C681 1.363 . S
C676 C677 1.363 . S
C676 C681 1.379 . S
C676 N683 1.356 . S
C677 C676 1.363 . S
C677 C680 1.363 . S
N678 C680 1.356 . S
N678 H690 0.984 . S
N678 H691 0.985 . S
N679 C681 1.356 1_554 S
N679 H684 0.984 . S
N679 H685 0.985 . S
C680 C674 1.379 . S
C680 C677 1.363 . S
C680 N678 1.356 . S
C681 C675 1.363 . S
C681 C676 1.379 . S
C681 N679 1.356 1_556 S
N682 C674 1.356 . S
N682 H688 0.984 . S
N682 H689 0.984 . S
N683 C676 1.356 . S
N683 H686 0.984 . S
N683 H687 0.985 . S
H684 N679 0.984 . S
H685 N679 0.985 . S
H686 N683 0.984 . S
H687 N683 0.985 . S
H688 N682 0.984 . S
H689 N682 0.984 . S
H690 N678 0.984 . S
H691 N678 0.985 . S
C692 C693 1.363 . S
C692 C698 1.379 . S
C692 N700 1.356 . S
C693 C692 1.363 . S
C693 C699 1.363 . S
C694 C695 1.363 . S
C694 C699 1.379 . S
C694 N701 1.356 . S
C695 C694 1.363 . S
C695 C698 1.363 . S
N696 C698 1.356 1_556 S
N696 H708 0.984 . S
N696 H709 0.985 . S
N697 C699 1.356 . S
N697 H702 0.984 . S
N697 H703 0.985 . S
C698 C692 1.379 . S
C698 C695 1.363 . S
C698 N696 1.356 1_554 S
C699 C693 1.363 . S
C699 C694 1.379 . S
C699 N697 1.356 . S
N700 C692 1.356 . S
N700 H706 0.984 . S
N700 H707 0.984 . S
N701 C694 1.356 . S
N701 H704 0.984 . S
N701 H705 0.985 . S
H702 N697 0.984 . S
H703 N697 0.985 . S
H704 N701 0.984 . S
H705 N701 0.985 . S
H706 N700 0.984 . S
H707 N700 0.984 . S
H708 N696 0.984 . S
H709 N696 0.985 . S
C710 C711 1.363 . S
C710 C716 1.379 . S
C710 N718 1.356 . S
C711 C710 1.363 . S
C711 C717 1.363 . S
C712 C713 1.363 . S
C712 C717 1.379 . S
C712 N719 1.356 . S
C713 C712 1.363 . S
C713 C716 1.363 . S
N714 C716 1.356 . S
N714 H726 0.984 . S
N714 H727 0.985 . S
N715 C717 1.356 . S
N715 H720 0.984 . S
N715 H721 0.985 . S
C716 C710 1.379 . S
C716 C713 1.363 . S
C716 N714 1.356 . S
C717 C711 1.363 . S
C717 C712 1.379 . S
C717 N715 1.356 . S
N718 C710 1.356 . S
N718 H724 0.984 . S
N718 H725 0.984 . S
N719 C712 1.356 . S
N719 H722 0.984 . S
N719 H723 0.985 . S
H720 N715 0.984 . S
H721 N715 0.985 . S
H722 N719 0.984 . S
H723 N719 0.985 . S
H724 N718 0.984 . S
H725 N718 0.984 . S
H726 N714 0.984 . S
H727 N714 0.985 . S
C728 C729 1.363 . S
C728 C734 1.379 . S
C728 N736 1.356 . S
C729 C728 1.363 . S
C729 C735 1.363 . S
C730 C731 1.363 . S
C730 C735 1.379 . S
C730 N737 1.356 . S
C731 C730 1.363 . S
C731 C734 1.363 . S
N732 C734 1.356 . S
N732 H744 0.984 . S
N732 H745 0.985 . S
N733 C735 1.356 . S
N733 H738 0.984 . S
N733 H739 0.985 . S
C734 C728 1.379 . S
C734 C731 1.363 . S
C734 N732 1.356 . S
C735 C729 1.363 . S
C735 C730 1.379 . S
C735 N733 1.356 . S
N736 C728 1.356 . S
N736 H742 0.984 . S
N736 H743 0.984 . S
N737 C730 1.356 . S
N737 H740 0.984 . S
N737 H741 0.985 . S
H738 N733 0.984 . S
H739 N733 0.985 . S
H740 N737 0.984 . S
H741 N737 0.985 . S
H742 N736 0.984 . S
H743 N736 0.984 . S
H744 N732 0.984 . S
H745 N732 0.985 . S
C746 C747 1.363 . S
C746 C752 1.379 . S
C746 N754 1.342 1_554 S
C747 C746 1.363 . S
C747 C753 1.363 . S
C748 C749 1.363 . S
C748 C753 1.379 . S
C748 N755 1.356 . S
C749 C748 1.363 . S
C749 C752 1.363 . S
N750 C752 1.356 . S
N750 H762 0.984 . S
N750 H763 0.985 . S
N751 C753 1.356 . S
N751 H756 0.984 . S
N751 H757 0.985 . S
C752 C746 1.379 . S
C752 C749 1.363 . S
C752 N750 1.356 . S
C753 C747 1.363 . S
C753 C748 1.379 . S
C753 N751 1.356 . S
N754 C746 1.342 1_556 S
N754 H760 0.992 . S
N754 H761 0.991 . S
N755 C748 1.356 . S
N755 H758 0.984 . S
N755 H759 0.985 . S
H756 N751 0.984 . S
H757 N751 0.985 . S
H758 N755 0.984 . S
H759 N755 0.985 . S
H760 N754 0.992 . S
H761 N754 0.991 . S
H762 N750 0.984 . S
H763 N750 0.985 . S
C764 C765 1.363 . S
C764 C770 1.379 . S
C764 N772 1.356 . S
C765 C764 1.363 . S
C765 C771 1.363 . S
C766 C767 1.363 . S
C766 C771 1.379 . S
C766 N773 1.356 . S
C767 C766 1.363 . S
C767 C770 1.363 . S
N768 C770 1.356 1_554 S
N768 H780 0.984 . S
N768 H781 0.985 . S
N769 C771 1.356 . S
N769 H774 0.984 . S
N769 H775 0.985 . S
C770 C764 1.379 . S
C770 C767 1.363 . S
C770 N768 1.356 1_556 S
C771 C765 1.363 . S
C771 C766 1.379 . S
C771 N769 1.356 . S
N772 C764 1.356 . S
N772 H778 0.984 . S
N772 H779 0.984 . S
N773 C766 1.356 . S
N773 H776 0.984 . S
N773 H777 0.985 . S
H774 N769 0.984 . S
H775 N769 0.985 . S
H776 N773 0.984 . S
H777 N773 0.985 . S
H778 N772 0.984 . S
H779 N772 0.984 . S
H780 N768 0.984 . S
H781 N768 0.985 . S
C782 C783 1.363 . S
C782 C788 1.379 . S
C782 N790 1.356 . S
C783 C782 1.363 . S
C783 C789 1.363 . S
C784 C785 1.363 . S
C784 C789 1.379 . S
C784 N791 1.356 . S
C785 C784 1.363 . S
C785 C788 1.363 . S
N786 C788 1.356 . S
N786 H798 0.984 . S
N786 H799 0.985 . S
N787 C789 1.356 . S
N787 H792 0.984 . S
N787 H793 0.985 . S
C788 C782 1.379 . S
C788 C785 1.363 . S
C788 N786 1.356 . S
C789 C783 1.363 . S
C789 C784 1.379 . S
C789 N787 1.356 . S
N790 C782 1.356 . S
N790 H796 0.984 . S
N790 H797 0.984 . S
N791 C784 1.356 . S
N791 H794 0.984 . S
N791 H795 0.985 . S
H792 N787 0.984 . S
H793 N787 0.985 . S
H794 N791 0.984 . S
H795 N791 0.985 . S
H796 N790 0.984 . S
H797 N790 0.984 . S
H798 N786 0.984 . S
H799 N786 0.985 . S
C225 C13 1.055 . S
C227 C68 1.054 . S
C243 C27 1.055 . S
C245 C71 1.055 . S
C261 C96 1.056 . S
C263 C28 1.058 . S
C279 C55 1.055 . S
C281 C110 1.056 . S
C297 C69 1.056 . S
C299 C12 1.057 . S
C315 C140 1.055 . S
C317 C124 1.055 . S
C333 C97 1.056 . S
C335 C29 1.054 . S
C351 C138 1.055 . S
C353 C166 1.055 . S
C369 C180 1.056 . S
C371 C208 1.058 . S
C387 C125 1.055 . S
C389 C141 1.055 . S
C405 C182 1.056 . S
C407 C222 1.054 . S
C423 C167 1.055 . S
C425 C139 1.055 . S
C441 C209 1.056 . S
C443 C181 1.054 . S
C459 C26 1.055 . S
C461 C70 1.055 . S
C477 C183 1.056 . S
C479 C223 1.058 . S
C495 C111 1.056 . S
C497 C54 1.055 . S
C513 C0 1.594 . S
C515 C99 1.589 . S
C531 C57 1.594 . S
C533 C14 1.594 . S
C549 C82 1.594 . S
C551 C41 1.595 . S
C567 C42 1.594 . S
C569 C85 1.593 . S
C585 C1 1.594 . S
C587 C155 1.598 . S
C603 C113 1.594 . S
C605 C56 1.594 . S
C621 C153 1.594 . S
C623 C40 1.592 . S
C639 C127 1.594 . S
C641 C84 1.594 . S
C657 C169 1.594 . S
C659 C154 1.594 . S
C675 C197 1.594 . S
C677 C112 1.595 . S
C693 C152 1.594 . S
C695 C195 1.594 . S
C711 C211 1.594 . S
C713 C126 1.595 . S
C729 C98 1.594 . S
C731 C168 1.594 . S
C747 C196 1.594 . S
C749 C15 1.593 . S
C765 C83 1.594 . S
C767 C194 1.593 . S
C783 C210 1.594 . S
C785 C43 1.592 . S
