# Generated by pormake.
# Topology ecn, (8)-cn, num edge types: 1
# Building blocks:
#     Node 0, Type 0, BuildingBlock: EBIMEJ_clean_sbu_0, # of connection points: 8
#     Node 1, Type 0, BuildingBlock: EBIMEJ_clean_sbu_0, # of connection points: 8
#     Node 2, Type 0, BuildingBlock: EBIMEJ_clean_sbu_0, # of connection points: 8
#     Node 3, Type 0, BuildingBlock: EBIMEJ_clean_sbu_0, # of connection points: 8
#     Node 4, Type 0, BuildingBlock: EBIMEJ_clean_sbu_0, # of connection points: 8
#     Node 5, Type 0, BuildingBlock: EBIMEJ_clean_sbu_0, # of connection points: 8
#     Node 6, Type 0, BuildingBlock: EBIMEJ_clean_sbu_0, # of connection points: 8
#     Node 7, Type 0, BuildingBlock: EBIMEJ_clean_sbu_0, # of connection points: 8
#     Node 8, Type 0, BuildingBlock: EBIMEJ_clean_sbu_0, # of connection points: 8
#     Edge 9, Type (0, 0), BuildingBlock: TEMPAE_clean_linker_10, # of connection points: 2
#     Edge 10, Type (0, 0), BuildingBlock: TEMPAE_clean_linker_10, # of connection points: 2
#     Edge 11, Type (0, 0), BuildingBlock: TEMPAE_clean_linker_10, # of connection points: 2
#     Edge 12, Type (0, 0), BuildingBlock: TEMPAE_clean_linker_10, # of connection points: 2
#     Edge 13, Type (0, 0), BuildingBlock: TEMPAE_clean_linker_10, # of connection points: 2
#     Edge 14, Type (0, 0), BuildingBlock: TEMPAE_clean_linker_10, # of connection points: 2
#     Edge 15, Type (0, 0), BuildingBlock: TEMPAE_clean_linker_10, # of connection points: 2
#     Edge 16, Type (0, 0), BuildingBlock: TEMPAE_clean_linker_10, # of connection points: 2
#     Edge 17, Type (0, 0), BuildingBlock: TEMPAE_clean_linker_10, # of connection points: 2
#     Edge 18, Type (0, 0), BuildingBlock: TEMPAE_clean_linker_10, # of connection points: 2
#     Edge 19, Type (0, 0), BuildingBlock: TEMPAE_clean_linker_10, # of connection points: 2
#     Edge 20, Type (0, 0), BuildingBlock: TEMPAE_clean_linker_10, # of connection points: 2
#     Edge 21, Type (0, 0), BuildingBlock: TEMPAE_clean_linker_10, # of connection points: 2
#     Edge 22, Type (0, 0), BuildingBlock: TEMPAE_clean_linker_10, # of connection points: 2
#     Edge 23, Type (0, 0), BuildingBlock: TEMPAE_clean_linker_10, # of connection points: 2
#     Edge 24, Type (0, 0), BuildingBlock: TEMPAE_clean_linker_10, # of connection points: 2
#     Edge 25, Type (0, 0), BuildingBlock: TEMPAE_clean_linker_10, # of connection points: 2
#     Edge 26, Type (0, 0), BuildingBlock: TEMPAE_clean_linker_10, # of connection points: 2
#     Edge 27, Type (0, 0), BuildingBlock: TEMPAE_clean_linker_10, # of connection points: 2
#     Edge 28, Type (0, 0), BuildingBlock: TEMPAE_clean_linker_10, # of connection points: 2
#     Edge 29, Type (0, 0), BuildingBlock: TEMPAE_clean_linker_10, # of connection points: 2
#     Edge 30, Type (0, 0), BuildingBlock: TEMPAE_clean_linker_10, # of connection points: 2
#     Edge 31, Type (0, 0), BuildingBlock: TEMPAE_clean_linker_10, # of connection points: 2
#     Edge 32, Type (0, 0), BuildingBlock: TEMPAE_clean_linker_10, # of connection points: 2
#     Edge 33, Type (0, 0), BuildingBlock: TEMPAE_clean_linker_10, # of connection points: 2
#     Edge 34, Type (0, 0), BuildingBlock: TEMPAE_clean_linker_10, # of connection points: 2
#     Edge 35, Type (0, 0), BuildingBlock: TEMPAE_clean_linker_10, # of connection points: 2
#     Edge 36, Type (0, 0), BuildingBlock: TEMPAE_clean_linker_10, # of connection points: 2
#     Edge 37, Type (0, 0), BuildingBlock: TEMPAE_clean_linker_10, # of connection points: 2
#     Edge 38, Type (0, 0), BuildingBlock: TEMPAE_clean_linker_10, # of connection points: 2
#     Edge 39, Type (0, 0), BuildingBlock: TEMPAE_clean_linker_10, # of connection points: 2
#     Edge 40, Type (0, 0), BuildingBlock: TEMPAE_clean_linker_10, # of connection points: 2
#     Edge 41, Type (0, 0), BuildingBlock: TEMPAE_clean_linker_10, # of connection points: 2
#     Edge 42, Type (0, 0), BuildingBlock: TEMPAE_clean_linker_10, # of connection points: 2
#     Edge 43, Type (0, 0), BuildingBlock: TEMPAE_clean_linker_10, # of connection points: 2
#     Edge 44, Type (0, 0), BuildingBlock: TEMPAE_clean_linker_10, # of connection points: 2
# Relax obj value: 0.176
# Max RMSD: 0.239
# Mean RMSD: 0.239
data_MOF--net-ecn--node1-EBIMEJ_clean_sbu_0--edge1-TEMPAE_clean_linker_10
_symmetry_space_group_name_H-M    P1
_symmetry_Int_Tables_number       1
_symmetry_cell_setting            triclinic
loop_
_symmetry_equiv_pos_as_xyz
'x, y, z'
_cell_length_a     54.435055
_cell_length_b     54.486202
_cell_length_c     15.709824
_cell_angle_alpha  89.971963
_cell_angle_beta   89.986562
_cell_angle_gamma 120.01443
loop_
_atom_site_label
_atom_site_type_symbol
_atom_site_fract_x
_atom_site_fract_y
_atom_site_fract_z
_atom_type_partial_charge
Co0 Co 0.18077 0.29744 0.94713 0.0
Co1 Co 0.14521 0.234 0.02427 0.0
Co2 Co 0.11403 0.26559 0.99433 0.0
H3 H 0.14767 0.27812 0.98986 0.0
O4 O 0.15298 0.27315 0.03511 0.0
H5 H 0.11211 0.22058 0.02035 0.0
O6 O 0.10685 0.22668 0.97777 0.0
Co7 Co 0.07883 0.197 0.05367 0.0
O8 O 0.09246 0.16818 0.05415 0.0
O9 O 0.13744 0.19454 0.01216 0.0
O10 O 0.05838 0.21848 0.08274 0.0
O11 O 0.07255 0.25347 0.98625 0.0
O12 O 0.20751 0.32056 0.848 0.0
O13 O 0.22187 0.32894 0.9725 0.0
O14 O 0.09147 0.21712 0.16403 0.0
O15 O 0.13708 0.22984 0.15048 0.0
C16 C 0.14313 0.32535 0.94976 0.0
C17 C 0.20798 0.2666 0.03923 0.0
C18 C 0.03469 0.15058 0.03374 0.0
C19 C 0.1364 0.26453 0.82391 0.0
C20 C 0.11612 0.1707 0.03148 0.0
C21 C 0.05527 0.2375 0.0445 0.0
C22 C 0.22822 0.33548 0.89567 0.0
C23 C 0.11592 0.22619 0.19545 0.0
O24 O 0.16437 0.32353 0.92198 0.0
O25 O 0.12391 0.3061 -0.00297 0.0
O26 O 0.18424 0.24452 0.05394 0.0
O27 O 0.21016 0.28854 0.00185 0.0
O28 O 0.05783 0.15763 -0.00258 0.0
O29 O 0.03646 0.17006 0.08043 0.0
O30 O 0.1597 0.26877 0.85529 0.0
O31 O 0.11879 0.26842 0.86721 0.0
Co32 Co 0.7381 0.89095 0.94496 0.0
Co33 Co 0.80292 0.91944 0.01655 0.0
Co34 Co 0.77103 0.85652 0.98853 0.0
H35 H 0.75835 0.87765 0.98452 0.0
O36 O 0.76373 0.88813 0.02942 0.0
H37 H 0.81584 0.89961 0.01418 0.0
O38 O 0.81008 0.88813 0.97193 0.0
Co39 Co 0.83853 0.88988 0.05344 0.0
O40 O 0.86637 0.93237 0.06672 0.0
O41 O 0.84259 0.95055 0.00177 0.0
O42 O 0.81817 0.84775 0.07794 0.0
O43 O 0.78299 0.82694 0.98206 0.0
O44 O 0.71796 0.89947 0.84724 0.0
O45 O 0.70565 0.89908 0.97225 0.0
O46 O 0.81011 0.87673 0.14761 0.0
O47 O 0.80816 0.91624 0.14264 0.0
C48 C 0.71088 0.82559 0.94526 0.0
C49 C 0.76965 0.9486 0.04026 0.0
C50 C 0.88662 0.89522 0.04139 0.0
C51 C 0.76654 0.87577 0.81155 0.0
C52 C 0.86527 0.95318 0.03365 0.0
C53 C 0.79915 0.82563 0.03978 0.0
C54 C 0.70135 0.90254 0.89566 0.0
C55 C 0.80476 0.89438 0.1828 0.0
O56 O 0.71226 0.84857 0.9191 0.0
O57 O 0.73042 0.82577 0.99136 0.0
O58 O 0.79267 0.94809 0.04703 0.0
O59 O 0.74726 0.92841 0.00598 0.0
O60 O 0.8742 0.89338 0.11039 0.0
O61 O 0.87182 0.89431 0.97884 0.0
O62 O 0.75881 0.89289 0.83802 0.0
O63 O 0.76889 0.8583 0.86065 0.0
Co64 Co 0.14441 0.85449 0.94603 0.0
Co65 Co 0.11685 0.89053 0.02465 0.0
Co66 Co 0.17973 0.92107 0.99394 0.0
H67 H 0.15833 0.88753 0.98911 0.0
O68 O 0.148 0.88223 0.0343 0.0
H69 H 0.13688 0.92366 0.02074 0.0
O70 O 0.14823 0.92873 0.97814 0.0
Co71 Co 0.14703 0.95725 0.05256 0.0
O72 O 0.10513 0.945 0.04284 0.0
O73 O 0.08532 0.89884 0.01458 0.0
O74 O 0.18886 0.97677 0.08305 0.0
O75 O 0.2094 0.96246 0.98609 0.0
O76 O 0.14534 0.82849 0.85108 0.0
O77 O 0.13021 0.81223 0.97105 0.0
O78 O 0.15167 0.94478 0.16687 0.0
O79 O 0.12128 0.89847 0.1507 0.0
C80 C 0.20978 0.89208 0.94421 0.0
C81 C 0.08617 0.82773 0.03822 0.0
C82 C 0.14596 1.00213 0.03548 0.0
C83 C 0.15563 0.89917 0.82396 0.0
C84 C 0.08354 0.92104 0.02593 0.0
C85 C 0.21089 0.97976 0.0444 0.0
C86 C 0.13484 0.80673 0.89713 0.0
C87 C 0.13717 0.91998 0.19684 0.0
O88 O 0.1866 0.87152 0.91465 0.0
O89 O 0.21007 0.91059 0.99531 0.0
O90 O 0.08801 0.85149 0.05388 0.0
O91 O 0.10585 0.82547 0.00042 0.0
O92 O 0.15601 0.99622 0.09897 0.0
O93 O 0.13669 0.98259 0.98116 0.0
O94 O 0.13671 0.87584 0.85558 0.0
O95 O 0.17734 0.91668 0.86675 0.0
Co96 Co 0.84764 0.63156 0.28222 0.0
Co97 Co 0.81255 0.56733 0.35457 0.0
Co98 Co 0.78082 0.59873 0.32783 0.0
H99 H 0.81446 0.61152 0.32381 0.0
O100 O 0.81991 0.6063 0.36825 0.0
H101 H 0.77956 0.55398 0.35413 0.0
O102 O 0.77368 0.55978 0.3123 0.0
Co103 Co 0.74691 0.53045 0.39109 0.0
O104 O 0.76214 0.50323 0.40415 0.0
O105 O 0.8044 0.5277 0.34047 0.0
O106 O 0.72494 0.55071 0.41394 0.0
O107 O 0.73923 0.5864 0.31994 0.0
O108 O 0.8766 0.64978 0.18402 0.0
O109 O 0.88642 0.66741 0.30471 0.0
O110 O 0.76051 0.55012 0.50136 0.0
O111 O 0.80598 0.56308 0.48197 0.0
C112 C 0.80945 0.65852 0.28116 0.0
C113 C 0.87526 0.60168 0.37477 0.0
C114 C 0.70277 0.48408 0.37199 0.0
C115 C 0.80379 0.5976 0.15819 0.0
C116 C 0.78449 0.50493 0.37243 0.0
C117 C 0.7215 0.56955 0.37603 0.0
C118 C 0.89501 0.66925 0.22943 0.0
C119 C 0.78529 0.55914 0.52984 0.0
O120 O 0.83088 0.65699 0.25397 0.0
O121 O 0.79045 0.63928 0.32904 0.0
O122 O 0.85217 0.57812 0.37923 0.0
O123 O 0.87675 0.62438 0.3459 0.0
O124 O 0.70685 0.50107 0.43141 0.0
O125 O 0.72372 0.49352 0.32263 0.0
O126 O 0.82724 0.60266 0.1906 0.0
O127 O 0.78561 0.60097 0.20044 0.0
Co128 Co 0.40353 0.22343 0.28183 0.0
Co129 Co 0.46889 0.25285 0.3503 0.0
Co130 Co 0.43758 0.18985 0.32304 0.0
H131 H 0.42443 0.21061 0.31982 0.0
O132 O 0.42993 0.22119 0.36451 0.0
H133 H 0.48211 0.2333 0.34756 0.0
O134 O 0.47634 0.22179 0.30534 0.0
Co135 Co 0.50511 0.22382 0.38566 0.0
O136 O 0.53334 0.26635 0.39232 0.0
O137 O 0.50836 0.28441 0.33487 0.0
O138 O 0.48545 0.18182 0.41038 0.0
O139 O 0.45008 0.16062 0.31549 0.0
O140 O 0.38545 0.23488 0.18537 0.0
O141 O 0.36906 0.22847 0.30771 0.0
O142 O 0.47744 0.21099 0.48194 0.0
O143 O 0.47443 0.24995 0.47648 0.0
C144 C 0.37677 0.1581 0.28528 0.0
C145 C 0.43531 0.28178 0.3737 0.0
C146 C 0.55289 0.22861 0.37262 0.0
C147 C 0.43092 0.20771 0.14544 0.0
C148 C 0.53165 0.28717 0.36205 0.0
C149 C 0.46695 0.15964 0.37132 0.0
C150 C 0.36674 0.23481 0.23228 0.0
C151 C 0.47165 0.22838 0.517 0.0
O152 O 0.37735 0.1808 0.26011 0.0
O153 O 0.39721 0.15869 0.32757 0.0
O154 O 0.45832 0.28127 0.37985 0.0
O155 O 0.41263 0.2611 0.34217 0.0
O156 O 0.54358 0.23403 0.43883 0.0
O157 O 0.53516 0.2208 0.31309 0.0
O158 O 0.42206 0.22398 0.17147 0.0
O159 O 0.43494 0.19142 0.19518 0.0
Co160 Co 0.81184 0.18716 0.28356 0.0
Co161 Co 0.78271 0.22307 0.35579 0.0
Co162 Co 0.84555 0.25492 0.32454 0.0
H163 H 0.82478 0.22091 0.32172 0.0
O164 O 0.81457 0.21596 0.36722 0.0
H165 H 0.80208 0.25615 0.35035 0.0
O166 O 0.81327 0.26135 0.30733 0.0
Co167 Co 0.81191 0.28936 0.38418 0.0
O168 O 0.7699 0.27637 0.36624 0.0
O169 O 0.75048 0.22994 0.3431 0.0
O170 O 0.854 0.31165 0.40868 0.0
O171 O 0.87473 0.29661 0.31488 0.0
O172 O 0.81704 0.16209 0.1943 0.0
O173 O 0.79245 0.14381 0.30155 0.0
O174 O 0.82452 0.27556 0.48387 0.0
O175 O 0.78671 0.23253 0.48084 0.0
C176 C 0.87731 0.22604 0.28598 0.0
C177 C 0.75353 0.16077 0.37844 0.0
C178 C 0.80843 0.33334 0.38485 0.0
C179 C 0.82807 0.23032 0.14683 0.0
C180 C 0.7485 0.25209 0.35055 0.0
C181 C 0.87595 0.31505 0.36871 0.0
C182 C 0.80177 0.13935 0.23359 0.0
C183 C 0.80786 0.25231 0.5202 0.0
O184 O 0.85451 0.20389 0.26142 0.0
O185 O 0.87685 0.24592 0.32834 0.0
O186 O 0.75489 0.18449 0.3892 0.0
O187 O 0.77342 0.15848 0.34178 0.0
O188 O 0.7887 0.3092 0.40522 0.0
O189 O 0.83023 0.33261 0.3633 0.0
O190 O 0.81213 0.20497 0.17178 0.0
O191 O 0.84376 0.25062 0.19718 0.0
Co192 Co 0.51383 0.96389 0.61565 0.0
Co193 Co 0.47834 0.9009 0.69589 0.0
Co194 Co 0.44694 0.93219 0.66107 0.0
H195 H 0.48061 0.94477 0.65801 0.0
O196 O 0.48583 0.94007 0.70396 0.0
H197 H 0.44512 0.8872 0.68978 0.0
O198 O 0.44017 0.89332 0.64653 0.0
Co199 Co 0.41135 0.86317 0.7193 0.0
O200 O 0.4245 0.83423 0.7123 0.0
O201 O 0.47093 0.86139 0.68791 0.0
O202 O 0.38791 0.88227 0.73594 0.0
O203 O 0.4055 0.92008 0.64849 0.0
O204 O 0.54117 0.98757 0.51824 0.0
O205 O 0.55486 0.9951 0.64343 0.0
O206 O 0.4228 0.87898 0.83563 0.0
O207 O 0.46959 0.8974 0.82095 0.0
C208 C 0.4758 0.99141 0.6121 0.0
C209 C 0.54113 0.93341 0.71011 0.0
C210 C 0.36667 0.81721 0.70093 0.0
C211 C 0.4698 0.93028 0.4924 0.0
C212 C 0.44889 0.83722 0.69833 0.0
C213 C 0.38576 0.90172 0.69701 0.0
C214 C 0.56166 1.0021 0.56707 0.0
C215 C 0.4476 0.89038 0.86637 0.0
O216 O 0.49702 0.98932 0.58565 0.0
O217 O 0.45675 0.97273 0.66117 0.0
O218 O 0.51734 0.91182 0.72825 0.0
O219 O 0.54324 0.95474 0.66914 0.0
O220 O 0.38838 0.82536 0.65547 0.0
O221 O 0.37027 0.83529 0.75637 0.0
O222 O 0.49314 0.93488 0.52445 0.0
O223 O 0.45216 0.93441 0.53453 0.0
Co224 Co 0.06962 0.55675 0.61515 0.0
Co225 Co 0.13459 0.58541 0.68707 0.0
Co226 Co 0.10288 0.5225 0.65922 0.0
H227 H 0.09007 0.54357 0.6545 0.0
O228 O 0.09542 0.55406 0.69938 0.0
H229 H 0.14773 0.56574 0.68458 0.0
O230 O 0.14188 0.55421 0.64248 0.0
Co231 Co 0.17076 0.55621 0.72251 0.0
O232 O 0.1991 0.59869 0.73092 0.0
O233 O 0.17415 0.61674 0.67302 0.0
O234 O 0.15046 0.5142 0.74837 0.0
O235 O 0.11504 0.49305 0.65338 0.0
O236 O 0.05728 0.5795 0.53865 0.0
O237 O 0.02923 0.55112 0.62729 0.0
O238 O 0.14278 0.54313 0.81754 0.0
O239 O 0.13934 0.58183 0.81327 0.0
C240 C 0.0433 0.49154 0.61222 0.0
C241 C 0.10157 0.61486 0.70925 0.0
C242 C 0.21831 0.56034 0.71132 0.0
C243 C 0.09632 0.53942 0.48002 0.0
C244 C 0.19736 0.6195 0.70076 0.0
C245 C 0.13143 0.49197 0.71069 0.0
C246 C 0.03269 0.56845 0.56919 0.0
C247 C 0.13661 0.56016 0.85309 0.0
O248 O 0.04482 0.51453 0.58569 0.0
O249 O 0.06221 0.49163 0.66116 0.0
O250 O 0.12432 0.61397 0.71706 0.0
O251 O 0.07913 0.59467 0.67506 0.0
O252 O 0.20429 0.55507 0.77894 0.0
O253 O 0.20545 0.56359 0.64987 0.0
O254 O 0.08632 0.55499 0.50344 0.0
O255 O 0.10135 0.52426 0.53146 0.0
Co256 Co 0.47761 0.52095 0.61025 0.0
Co257 Co 0.44927 0.55743 0.68379 0.0
Co258 Co 0.51224 0.58847 0.65519 0.0
H259 H 0.49099 0.55457 0.64996 0.0
O260 O 0.48054 0.54944 0.69497 0.0
H261 H 0.46909 0.59028 0.68057 0.0
O262 O 0.48057 0.59581 0.63825 0.0
Co263 Co 0.479 0.62307 0.71752 0.0
O264 O 0.43664 0.60973 0.72036 0.0
O265 O 0.41781 0.56557 0.67157 0.0
O266 O 0.52094 0.64449 0.74453 0.0
O267 O 0.54197 0.63008 0.64975 0.0
O268 O 0.47142 0.49273 0.51319 0.0
O269 O 0.46621 0.47948 0.63883 0.0
O270 O 0.49194 0.60821 0.81311 0.0
O271 O 0.45326 0.56592 0.80979 0.0
C272 C 0.54309 0.55935 0.61115 0.0
C273 C 0.41918 0.49491 0.70317 0.0
C274 C 0.47485 0.66652 0.71007 0.0
C275 C 0.49569 0.56523 0.47571 0.0
C276 C 0.41545 0.58667 0.69477 0.0
C277 C 0.54317 0.64757 0.70712 0.0
C278 C 0.46544 0.47231 0.56233 0.0
C279 C 0.47494 0.58506 0.84914 0.0
O280 O 0.52008 0.53778 0.58501 0.0
O281 O 0.54298 0.57861 0.65781 0.0
O282 O 0.42064 0.51868 0.71409 0.0
O283 O 0.43919 0.49256 0.66797 0.0
O284 O 0.46936 0.65113 0.77478 0.0
O285 O 0.48231 0.65698 0.64865 0.0
O286 O 0.47982 0.53967 0.49876 0.0
O287 O 0.51082 0.58529 0.52747 0.0
C288 C 0.2593 0.28945 0.08543 0.0
C289 C 0.23368 0.26525 0.06324 0.0
C290 C 0.28276 0.28713 0.11279 0.0
C291 C 0.28065 0.26008 0.11612 0.0
C292 C 0.2551 0.23581 0.09091 0.0
C293 C 0.232 0.23867 0.06556 0.0
C294 C 0.30956 0.31346 0.13996 0.0
C295 C 0.25196 0.20662 0.09159 0.0
C296 C 0.34507 0.25009 0.11822 0.0
C297 C 0.34573 0.2428 0.20349 0.0
C298 C 0.3248 0.25702 0.08956 0.0
C299 C 0.30466 0.25663 0.14756 0.0
C300 C 0.30577 0.25004 0.23427 0.0
C301 C 0.32628 0.24321 0.26115 0.0
C302 C 0.32431 0.26377 -0.00341 0.0
C303 C 0.28469 0.24929 0.2982 0.0
H304 H 0.26073 0.31002 0.08371 0.0
H305 H 0.21244 0.21987 0.04709 0.0
H306 H 0.31374 0.31175 0.20822 0.0
H307 H 0.32795 0.31555 0.10344 0.0
H308 H 0.30823 0.33298 0.13072 0.0
H309 H 0.23105 0.19008 0.06664 0.0
H310 H 0.26889 0.20653 0.0525 0.0
H311 H 0.25435 0.20079 0.15748 0.0
H312 H 0.36017 0.24999 0.07343 0.0
H313 H 0.32681 0.23778 0.32727 0.0
H314 H 0.32424 0.284 0.98958 0.0
H315 H 0.30456 0.24692 0.96677 0.0
H316 H 0.34275 0.26544 0.96118 0.0
H317 H 0.284 0.26928 0.29542 0.0
H318 H 0.28986 0.24617 0.36431 0.0
H319 H 0.26314 0.23171 0.28242 0.0
C320 C 0.80787 0.10765 0.13021 0.0
C321 C 0.79459 0.11077 0.2026 0.0
C322 C 0.80154 0.08063 0.10148 0.0
C323 C 0.78122 0.05608 0.14564 0.0
C324 C 0.76724 0.05913 0.21743 0.0
C325 C 0.77425 0.08639 0.24535 0.0
C326 C 0.81718 0.07839 0.02525 0.0
C327 C 0.74543 0.03361 0.2663 0.0
C328 C 0.75222 0.98373 0.03811 0.0
C329 C 0.77002 0.97448 0.07223 0.0
C330 C 0.75534 1.01014 0.0618 0.0
C331 C 0.77652 0.02748 0.12161 0.0
C332 C 0.79376 0.01766 0.15841 0.0
C333 C 0.79035 0.99146 0.13318 0.0
C334 C 0.73655 0.01985 0.0211 0.0
C335 C 0.81633 0.03514 0.22322 0.0
H336 H 0.82359 0.12639 0.09679 0.0
H337 H 0.76387 0.08858 0.30117 0.0
H338 H 0.8306 0.06936 0.04509 0.0
H339 H 0.80188 0.06379 0.97734 0.0
H340 H 0.83099 0.09928 0.9947 0.0
H341 H 0.73447 0.03936 0.31526 0.0
H342 H 0.72929 0.01791 0.2223 0.0
H343 H 0.75588 0.02311 0.29837 0.0
H344 H 0.73658 0.97085 0.99068 0.0
H345 H 0.80404 0.9844 0.16066 0.0
H346 H 0.74969 0.0392 0.98274 0.0
H347 H 0.72578 0.02552 0.07081 0.0
H348 H 0.72021 1.00338 0.97906 0.0
H349 H 0.83237 0.0555 0.19422 0.0
H350 H 0.82732 0.02405 0.24782 0.0
H351 H 0.80677 0.0403 0.27777 0.0
C352 C 0.05753 0.77643 0.08421 0.0
C353 C 0.05898 0.802 0.06121 0.0
C354 C 0.0316 0.75291 0.11057 0.0
C355 C 1.00656 0.75488 0.11184 0.0
C356 C 1.00786 0.78031 0.08519 0.0
C357 C 0.03399 0.80354 0.06141 0.0
C358 C 0.03115 0.72627 0.1393 0.0
C359 C 0.98178 0.78339 0.08375 0.0
C360 C 0.93213 0.69036 0.11524 0.0
C361 C 0.92393 0.69035 0.19991 0.0
C362 C 0.95941 0.71046 0.08644 0.0
C363 C 0.97902 0.73102 0.14371 0.0
C364 C 0.97104 0.73061 0.22981 0.0
C365 C 0.94362 0.71033 0.25679 0.0
C366 C 0.96684 0.71041 0.99388 0.0
C367 C 0.99119 0.75215 0.29298 0.0
H368 H 0.07674 0.7751 0.08416 0.0
H369 H 0.03479 0.82307 0.04249 0.0
H370 H 0.02534 0.72248 0.2077 0.0
H371 H 1.0148 0.7077 0.10362 0.0
H372 H 0.05201 0.72754 0.13041 0.0
H373 H 0.98531 0.80219 0.04652 0.0
H374 H 0.96339 0.76434 0.05601 0.0
H375 H 0.97609 0.78579 0.14983 0.0
H376 H 0.91706 0.67487 0.07105 0.0
H377 H 0.9375 0.71032 0.32247 0.0
H378 H 0.98732 0.71077 0.98794 0.0
H379 H 0.96945 0.72983 0.96246 0.0
H380 H 0.95025 0.69163 0.95929 0.0
H381 H 1.01202 0.75307 0.29111 0.0
H382 H 0.98285 0.7473 0.35909 0.0
H383 H 0.99492 0.77349 0.27568 0.0
C384 C 0.80612 0.7978 0.15362 0.0
C385 C 0.79524 0.79808 0.07245 0.0
C386 C 0.80545 0.77358 0.1865 0.0
C387 C 0.79343 0.74844 0.13778 0.0
C388 C 0.78119 0.74795 0.0573 0.0
C389 C 0.78215 0.77278 0.02554 0.0
C390 C 0.81871 0.77536 0.27253 0.0
C391 C 0.76792 0.72146 0.00368 0.0
C392 C 0.8252 0.70185 0.19026 0.0
C393 C 0.80515 0.68172 0.24663 0.0
C394 C 0.82093 0.72269 0.15154 0.0
C395 C 0.79601 0.72382 0.16944 0.0
C396 C 0.77549 0.70346 0.22557 0.0
C397 C 0.78027 0.68269 0.26337 0.0
C398 C 0.84353 0.74399 0.09279 0.0
C399 C 0.74871 0.70395 0.24697 0.0
H400 H 0.81573 0.81689 0.19197 0.0
H401 H 0.77348 0.77261 0.96331 0.0
H402 H 0.80348 0.75806 0.3146 0.0
H403 H 0.83749 0.77267 0.26487 0.0
H404 H 0.82559 0.79594 0.30477 0.0
H405 H 0.75687 0.7235 0.94701 0.0
H406 H 0.78461 0.7169 0.9818 0.0
H407 H 0.75253 0.70302 0.04202 0.0
H408 H 0.84441 0.70135 0.17579 0.0
H409 H 0.76441 0.66712 0.30575 0.0
H410 H 0.85326 0.76543 0.12155 0.0
H411 H 0.834 0.74484 0.03124 0.0
H412 H 0.86059 0.73894 0.08004 0.0
H413 H 0.75411 0.72338 0.28375 0.0
H414 H 0.73367 0.68521 0.2851 0.0
H415 H 0.73793 0.70463 0.18783 0.0
C416 C 0.24042 1.00974 0.1644 0.0
C417 C 0.23856 1.00283 0.07749 0.0
C418 C 0.26412 0.03368 0.19828 0.0
C419 C 0.2869 0.05158 0.14422 0.0
C420 C 0.28589 0.0441 0.057 0.0
C421 C 0.26175 0.01968 0.02461 0.0
C422 C 0.2641 0.04047 0.29153 0.0
C423 C 0.30976 0.06256 -0.00279 0.0
C424 C 0.32915 0.12886 0.21536 0.0
C425 C 0.35307 0.1303 0.2544 0.0
C426 C 0.30791 0.10365 0.17793 0.0
C427 C 0.31051 0.07902 0.17863 0.0
C428 C 0.33454 0.08024 0.21803 0.0
C429 C 0.35541 0.10574 0.25563 0.0
C430 C 0.28252 0.10334 0.13799 0.0
C431 C 0.33823 0.05457 0.22035 0.0
H432 H 0.22277 0.99665 0.20622 0.0
H433 H 0.26048 0.0146 0.95748 0.0
H434 H 0.28388 0.04393 0.32253 0.0
H435 H 0.26338 0.06038 0.29819 0.0
H436 H 0.2457 0.02336 0.32623 0.0
H437 H 0.30713 0.05263 0.93362 0.0
H438 H 0.31063 0.0832 0.98897 0.0
H439 H 0.33041 0.06703 0.02441 0.0
H440 H 0.32705 0.14762 0.21345 0.0
H441 H 0.37392 0.10657 0.28431 0.0
H442 H 0.2629 0.08792 0.17182 0.0
H443 H 0.28029 0.09637 0.0707 0.0
H444 H 0.2841 0.12447 0.13992 0.0
H445 H 0.32056 0.03726 0.25659 0.0
H446 H 0.35861 0.05921 0.2502 0.0
H447 H 0.33742 0.04663 0.15479 0.0
C448 C 0.02391 0.23494 0.16351 0.0
C449 C 0.03205 0.24185 0.07787 0.0
C450 C 1.00012 0.23504 0.19723 0.0
C451 C 0.98364 0.24223 0.14439 0.0
C452 C 0.99239 0.25057 0.05878 0.0
C453 C 1.01663 0.25042 0.02649 0.0
C454 C 0.99196 0.2262 0.28882 0.0
C455 C 0.97548 0.2585 0.00041 0.0
C456 C 0.90589 0.20808 0.20994 0.0
C457 C 0.90501 0.23005 0.25422 0.0
C458 C 0.93106 0.21208 0.17203 0.0
C459 C 0.95626 0.23876 0.17799 0.0
C460 C 0.95561 0.26107 0.22255 0.0
C461 C 0.93009 0.25646 0.26018 0.0
C462 C 0.9307 0.18754 0.12618 0.0
C463 C 0.98193 0.28981 0.2308 0.0
H464 H 0.03593 0.22877 0.20449 0.0
H465 H 0.02273 0.25581 0.96046 0.0
H466 H 0.98902 0.24231 0.32325 0.0
H467 H 0.97145 0.20598 0.29111 0.0
H468 H 1.00811 0.22319 0.32312 0.0
H469 H 0.98638 0.26704 0.93861 0.0
H470 H 0.9545 0.23954 0.98781 0.0
H471 H 0.97155 0.27455 0.03116 0.0
H472 H 0.88675 0.18762 0.20417 0.0
H473 H 0.92972 0.27376 0.29303 0.0
H474 H 0.94501 0.18156 0.15896 0.0
H475 H 0.93873 0.19382 0.06025 0.0
H476 H 0.90912 0.16859 0.1234 0.0
H477 H 0.99835 0.28789 0.26722 0.0
H478 H 0.97767 0.30537 0.26352 0.0
H479 H 0.9909 0.29819 0.1669 0.0
C480 C 0.90582 0.5801 0.36507 0.0
C481 C 0.90134 0.60136 0.39878 0.0
C482 C 0.92862 0.57691 0.39196 0.0
C483 C 0.94704 0.59492 0.4562 0.0
C484 C 0.94291 0.61681 0.48963 0.0
C485 C 0.92025 0.62003 0.45959 0.0
C486 C 0.93253 0.55375 0.35293 0.0
C487 C 0.96172 0.63604 0.55941 0.0
C488 C 0.98438 0.5632 0.58159 0.0
C489 C 1.01121 0.57614 0.54308 0.0
C490 C 0.96364 0.56987 0.55597 0.0
C491 C 0.96983 0.58991 0.48997 0.0
C492 C 0.9971 0.60343 0.45204 0.0
C493 C 1.01746 0.59642 0.47914 0.0
C494 C 0.93486 0.55497 0.59819 0.0
C495 C 1.0045 0.62467 0.38102 0.0
H496 H 0.89118 0.56571 0.3178 0.0
H497 H 0.91656 0.63624 0.48632 0.0
H498 H 0.95455 0.56266 0.32898 0.0
H499 H 0.92911 0.53769 0.40198 0.0
H500 H 0.91761 0.54293 0.29947 0.0
H501 H 0.95651 0.65272 0.57616 0.0
H502 H 0.95935 0.62332 0.61722 0.0
H503 H 0.98431 0.64636 0.53988 0.0
H504 H 0.97946 0.54759 0.63124 0.0
H505 H 0.03821 0.60659 0.44936 0.0
H506 H 0.91851 0.54124 0.55121 0.0
H507 H 0.92914 0.57069 0.6213 0.0
H508 H 0.9341 0.54159 0.65266 0.0
H509 H 0.99093 0.61408 0.32486 0.0
H510 H 0.02708 0.63448 0.36144 0.0
H511 H 1.00023 0.64172 0.40094 0.0
C512 C 0.45712 0.43713 0.44708 0.0
C513 C 0.45707 0.44317 0.53385 0.0
C514 C 0.45021 0.40985 0.41948 0.0
C515 C 0.44309 0.388 0.48007 0.0
C516 C 0.44205 0.39377 0.56757 0.0
C517 C 0.44907 0.42126 0.59337 0.0
C518 C 0.45169 0.40473 0.32567 0.0
C519 C 0.43463 0.37121 0.6344 0.0
C520 C 0.41191 0.3112 0.40393 0.0
C521 C 0.43617 0.30837 0.40218 0.0
C522 C 0.41364 0.3369 0.42951 0.0
C523 C 0.44025 0.36034 0.45316 0.0
C524 C 0.46472 0.35756 0.4511 0.0
C525 C 0.46236 0.33179 0.42617 0.0
C526 C 0.38705 0.33901 0.43115 0.0
C527 C 0.49361 0.38194 0.4748 0.0
H528 H 0.46308 0.45392 0.40067 0.0
H529 H 0.44873 0.4257 0.66049 0.0
H530 H 0.46961 0.40094 0.31356 0.0
H531 H 0.432 0.38551 0.30481 0.0
H532 H 0.45477 0.42297 0.28615 0.0
H533 H 0.43183 0.37815 0.69837 0.0
H534 H 0.41484 0.35155 0.61684 0.0
H535 H 0.45178 0.36587 0.63823 0.0
H536 H 0.39161 0.2934 0.38536 0.0
H537 H 0.48143 0.33021 0.42472 0.0
H538 H 0.38958 0.35637 0.38855 0.0
H539 H 0.38342 0.34435 0.49636 0.0
H540 H 0.36802 0.31899 0.4109 0.0
H541 H 0.4991 0.40043 0.43312 0.0
H542 H 0.51061 0.3764 0.46906 0.0
H543 H 0.4933 0.38864 0.54128 0.0
C544 C 0.59677 0.02954 0.45188 0.0
C545 C 0.59079 0.02297 0.53846 0.0
C546 C 0.62426 0.04958 0.42443 0.0
C547 C 0.64631 0.06344 0.48496 0.0
C548 C 0.64055 0.05609 0.57215 0.0
C549 C 0.61289 0.03602 0.59782 0.0
C550 C 0.62951 0.05658 0.33087 0.0
C551 C 0.66339 0.07022 0.63879 0.0
C552 C 0.72329 0.10799 0.40851 0.0
C553 C 0.72672 0.13528 0.40725 0.0
C554 C 0.69738 0.08429 0.43425 0.0
C555 C 0.6743 0.08796 0.45869 0.0
C556 C 0.67779 0.11547 0.4583 0.0
C557 C 0.70372 0.13858 0.43265 0.0
C558 C 0.69464 0.05534 0.4339 0.0
C559 C 0.65395 0.12059 0.48391 0.0
H560 H 0.57986 0.01929 0.40557 0.0
H561 H 0.60851 0.03077 0.66474 0.0
H562 H 0.63439 0.07869 0.32002 0.0
H563 H 0.64817 0.05516 0.30924 0.0
H564 H 0.61092 0.04221 0.29118 0.0
H565 H 0.65627 0.06026 0.70247 0.0
H566 H 0.68256 0.06926 0.62011 0.0
H567 H 0.66968 0.09294 0.64379 0.0
H568 H 0.74082 0.10515 0.38976 0.0
H569 H 0.70573 0.1594 0.43172 0.0
H570 H 0.6821 0.04336 0.37755 0.0
H571 H 0.68328 0.04309 0.49144 0.0
H572 H 0.71568 0.05672 0.43087 0.0
H573 H 0.63651 0.11063 0.43668 0.0
H574 H 0.66094 0.14351 0.48794 0.0
H575 H 0.64513 0.11075 0.54664 0.0
C576 C 0.44523 0.10572 0.36633 0.0
C577 C 0.46489 0.13235 0.39972 0.0
C578 C 0.44385 0.08062 0.39747 0.0
C579 C 0.46232 0.08216 0.46397 0.0
C580 C 0.48184 0.10891 0.49816 0.0
C581 C 0.48299 0.13338 0.46559 0.0
C582 C 0.42289 0.05249 0.35873 0.0
C583 C 0.50192 0.11187 0.56917 0.0
C584 C 0.45106 0.02035 0.60636 0.0
C585 C 0.4715 0.01421 0.57437 0.0
C586 C 0.44672 0.04141 0.56854 0.0
C587 C 0.46284 0.05646 0.49608 0.0
C588 C 0.48269 0.04957 0.4618 0.0
C589 C 0.48693 0.02885 0.50152 0.0
C590 C 0.42564 0.0483 0.60815 0.0
C591 C 0.50027 0.0648 0.38454 0.0
H592 H 0.43103 0.10449 0.31603 0.0
H593 H 0.49835 0.15356 0.49297 0.0
H594 H 0.43443 0.04285 0.3282 0.0
H595 H 0.40922 0.03765 0.40909 0.0
H596 H 0.40917 0.05458 0.3103 0.0
H597 H 0.51484 0.13408 0.59182 0.0
H598 H 0.48985 0.09835 0.62397 0.0
H599 H 0.51655 0.10458 0.54695 0.0
H600 H 0.43875 1.00902 0.66182 0.0
H601 H 0.50238 0.02403 0.47474 0.0
H602 H 0.41132 0.0488 0.5588 0.0
H603 H 0.43713 0.0697 0.63734 0.0
H604 H 0.41259 0.03277 0.65811 0.0
H605 H 0.48653 0.06521 0.33308 0.0
H606 H 0.51222 0.05473 0.35962 0.0
H607 H 0.5157 0.08711 0.40126 0.0
C608 C 1.01151 0.46484 0.49054 0.0
C609 C 0.02123 0.46443 0.57315 0.0
C610 C 0.99097 0.43992 0.45034 0.0
C611 C 0.97908 0.41374 0.49421 0.0
C612 C 0.98932 0.413 0.57684 0.0
C613 C 1.01056 0.43828 0.61483 0.0
C614 C 0.98125 0.44187 0.36183 0.0
C615 C 0.9769 0.3857 0.62673 0.0
C616 C 0.90194 0.36192 0.4419 0.0
C617 C 0.90325 0.34097 0.39274 0.0
C618 C 0.92627 0.38515 0.47556 0.0
C619 C 0.95323 0.38834 0.45885 0.0
C620 C 0.95509 0.36792 0.40703 0.0
C621 C 0.93005 0.34435 0.37488 0.0
C622 C 0.92296 0.40617 0.53018 0.0
C623 C 0.98349 0.37089 0.38615 0.0
H624 H 1.02012 0.4848 0.45661 0.0
H625 H 1.01816 0.4377 0.67816 0.0
H626 H 0.98053 0.42503 0.32045 0.0
H627 H 0.95945 0.43861 0.36478 0.0
H628 H 0.99531 0.4628 0.33178 0.0
H629 H 0.98885 0.38802 0.68635 0.0
H630 H 0.95456 0.37878 0.64353 0.0
H631 H 0.97672 0.36868 0.58757 0.0
H632 H 0.88156 0.36002 0.45594 0.0
H633 H 0.93145 0.32839 0.33746 0.0
H634 H 0.93412 0.42747 0.50032 0.0
H635 H 0.93274 0.40796 0.59352 0.0
H636 H 0.90038 0.40008 0.53966 0.0
H637 H 0.99727 0.39162 0.35486 0.0
H638 H 0.98151 0.35371 0.34361 0.0
H639 H 0.9943 0.37054 0.4456 0.0
C640 C 0.57017 0.5463 0.50897 0.0
C641 C 0.5705 0.56362 0.57588 0.0
C642 C 0.59535 0.55062 0.47056 0.0
C643 C 0.62188 0.57264 0.49995 0.0
C644 C 0.62246 0.59054 0.56648 0.0
C645 C 0.59681 0.58594 0.60329 0.0
C646 C 0.59354 0.53097 0.39995 0.0
C647 C 0.65023 0.61405 0.60057 0.0
C648 C 0.68168 0.55639 0.47845 0.0
C649 C 0.6967 0.57206 0.40611 0.0
C650 C 0.6581 0.55721 0.51034 0.0
C651 C 0.64868 0.57407 0.4693 0.0
C652 C 0.66384 0.59048 0.39717 0.0
C653 C 0.68778 0.58939 0.36651 0.0
C654 C 0.64289 0.53941 0.58744 0.0
C655 C 0.6544 0.60869 0.35151 0.0
H656 H 0.55009 0.52927 0.48574 0.0
H657 H 0.59743 0.5997 0.65403 0.0
H658 H 0.60649 0.54336 0.34464 0.0
H659 H 0.60225 0.51755 0.42243 0.0
H660 H 0.57139 0.51687 0.37827 0.0
H661 H 0.64715 0.62787 0.64616 0.0
H662 H 0.66174 0.6048 0.63355 0.0
H663 H 0.66393 0.62729 0.54758 0.0
H664 H 0.68826 0.54311 0.51114 0.0
H665 H 0.69918 0.60173 0.3112 0.0
H666 H 0.62102 0.52297 0.56972 0.0
H667 H 0.64114 0.55279 0.63755 0.0
H668 H 0.65384 0.52865 0.61487 0.0
H669 H 0.63322 0.59503 0.32266 0.0
H670 H 0.66945 0.6217 0.30048 0.0
H671 H 0.65223 0.62299 0.39727 0.0
C672 C 0.5936 0.95666 0.74404 0.0
C673 C 0.56698 0.93218 0.73402 0.0
C674 C 0.61752 0.95473 0.76894 0.0
C675 C 0.61484 0.9277 0.78225 0.0
C676 C 0.58821 0.90303 0.76931 0.0
C677 C 0.5647 0.90558 0.74654 0.0
C678 C 0.64553 0.98155 0.78231 0.0
C679 C 0.58425 0.87372 0.7809 0.0
C680 C 0.67727 0.91445 0.77994 0.0
C681 C 0.68048 0.91076 0.86681 0.0
C682 C 0.65696 0.9214 0.75165 0.0
C683 C 0.63938 0.92474 0.81164 0.0
C684 C 0.64319 0.92189 0.89962 0.0
C685 C 0.66366 0.91495 0.9261 0.0
C686 C 0.65341 0.92384 0.6573 0.0
C687 C 0.6249 0.92515 0.96575 0.0
H688 H 0.5956 0.97728 0.7342 0.0
H689 H 0.54439 0.88645 0.73773 0.0
H690 H 0.65214 0.98294 0.84977 0.0
H691 H 0.66222 0.98118 0.74275 0.0
H692 H 0.64444 1.00085 0.76623 0.0
H693 H 0.56393 0.85711 0.75323 0.0
H694 H 0.60178 0.87207 0.75063 0.0
H695 H 0.58434 0.86932 0.84982 0.0
H696 H 0.69031 0.9114 0.73378 0.0
H697 H 0.66618 0.91236 0.99338 0.0
H698 H 0.65344 0.94379 0.64292 0.0
H699 H 0.63262 0.90603 0.63641 0.0
H700 H 0.6704 0.92335 0.61947 0.0
H701 H 0.62468 0.94518 0.95535 0.0
H702 H 0.63232 0.9251 0.03158 0.0
H703 H 0.60272 0.90747 0.95974 0.0
C704 C 0.0809 0.64747 0.72095 0.0
C705 C 0.10252 0.64136 0.7393 0.0
C706 C 0.08348 0.67368 0.74478 0.0
C707 C 0.10826 0.69424 0.78769 0.0
C708 C 0.12985 0.68793 0.80737 0.0
C709 C 0.12667 0.66173 0.78348 0.0
C710 C 0.05992 0.67956 0.72301 0.0
C711 C 0.15669 0.7091 0.85267 0.0
C712 C 0.1338 0.77342 0.78479 0.0
C713 C 0.12689 0.77782 0.86723 0.0
C714 C 0.1267 0.74612 0.7566 0.0
C715 C 0.11221 0.72257 0.81201 0.0
C716 C 0.1044 0.72683 0.89441 0.0
C717 C 0.11192 0.75436 0.92106 0.0
C718 C 0.13563 0.74264 0.66852 0.0
C719 C 0.08895 0.70243 0.95562 0.0
H720 H 0.06223 0.63204 0.68669 0.0
H721 H 0.14357 0.65743 0.79873 0.0
H722 H 0.05213 0.68479 0.78166 0.0
H723 H 0.06809 0.69824 0.68028 0.0
H724 H 0.04178 0.66124 0.69125 0.0
H725 H 0.17145 0.70089 0.86347 0.0
H726 H 0.16791 0.72889 0.81475 0.0
H727 H 0.15139 0.71475 0.91516 0.0
H728 H 0.1452 0.79143 0.74266 0.0
H729 H 0.10623 0.75754 0.98459 0.0
H730 H 0.11731 0.72559 0.63369 0.0
H731 H 0.15199 0.73625 0.67343 0.0
H732 H 0.14448 0.7625 0.63064 0.0
H733 H 0.07022 0.68471 0.92424 0.0
H734 H 0.08177 0.70871 0.01365 0.0
H735 H 0.10317 0.69434 0.97525 0.0
C736 C 0.26254 0.36254 0.77836 0.0
C737 C 0.25705 0.35656 0.8654 0.0
C738 C 0.28973 0.38279 0.74928 0.0
C739 C 0.31201 0.39745 0.80864 0.0
C740 C 0.30673 0.39085 0.89641 0.0
C741 C 0.27935 0.37054 0.92367 0.0
C742 C 0.29435 0.38921 0.65526 0.0
C743 C 0.32976 0.40598 0.96196 0.0
C744 C 0.3888 0.44204 0.73083 0.0
C745 C 0.39219 0.46934 0.73017 0.0
C746 C 0.36284 0.4183 0.75605 0.0
C747 C 0.33972 0.42194 0.78038 0.0
C748 C 0.34301 0.44937 0.77881 0.0
C749 C 0.36904 0.47255 0.75423 0.0
C750 C 0.36017 0.38938 0.75704 0.0
C751 C 0.31898 0.45437 0.80318 0.0
H752 H 0.24545 0.35165 0.73293 0.0
H753 H 0.27534 0.36582 0.99098 0.0
H754 H 0.29852 0.41103 0.64325 0.0
H755 H 0.31323 0.38829 0.6331 0.0
H756 H 0.27571 0.37422 0.61674 0.0
H757 H 0.32304 0.39657 0.02644 0.0
H758 H 0.34911 0.40536 0.94355 0.0
H759 H 0.33557 0.4286 0.96507 0.0
H760 H 0.4064 0.43923 0.71213 0.0
H761 H 0.37104 0.49337 0.75327 0.0
H762 H 0.34226 0.37463 0.71591 0.0
H763 H 0.35534 0.3806 0.82255 0.0
H764 H 0.37982 0.38996 0.73474 0.0
H765 H 0.30021 0.44138 0.7625 0.0
H766 H 0.32482 0.47695 0.7967 0.0
H767 H 0.31256 0.4477 0.87007 0.0
C768 C 0.1592 0.36903 0.86014 0.0
C769 C 0.13906 0.34876 0.916 0.0
C770 C 0.15494 0.38993 0.82179 0.0
C771 C 0.12993 0.39092 0.83948 0.0
C772 C 0.10937 0.37046 0.89522 0.0
C773 C 0.11416 0.34968 0.93274 0.0
C774 C 0.1776 0.41139 0.76352 0.0
C775 C 0.0825 0.3708 0.91633 0.0
C776 C 0.13887 0.46444 0.82434 0.0
C777 C 0.12792 0.46458 0.74319 0.0
C778 C 0.13873 0.44045 0.85683 0.0
C779 C 0.12715 0.4154 0.80774 0.0
C780 C 0.11486 0.41476 0.72725 0.0
C781 C 0.11532 0.43938 0.69584 0.0
C782 C 0.15204 0.44236 0.94286 0.0
C783 C 0.10203 0.38834 0.67334 0.0
H784 H 0.17843 0.36854 0.84573 0.0
H785 H 0.09824 0.33401 0.97475 0.0
H786 H 0.16816 0.41217 0.7017 0.0
H787 H 0.18707 0.43281 0.79236 0.0
H788 H 0.19483 0.40655 0.75129 0.0
H789 H 0.06758 0.35217 0.95504 0.0
H790 H 0.08777 0.39034 0.95234 0.0
H791 H 0.07162 0.37115 0.85702 0.0
H792 H 0.14811 0.48347 0.86296 0.0
H793 H 0.10664 0.43913 0.63356 0.0
H794 H 0.17095 0.43989 0.93524 0.0
H795 H 0.13691 0.42499 0.98491 0.0
H796 H 0.15872 0.46289 0.97512 0.0
H797 H 0.11892 0.38396 0.6523 0.0
H798 H 0.09114 0.39032 0.61614 0.0
H799 H 0.08657 0.36981 0.71124 0.0
C800 C 0.66798 0.79806 0.85245 0.0
C801 C 0.68748 0.79808 0.9113 0.0
C802 C 0.64703 0.77286 0.81435 0.0
C803 C 0.64509 0.74668 0.83552 0.0
C804 C 0.6648 0.74646 0.89422 0.0
C805 C 0.68573 0.77209 0.93121 0.0
C806 C 0.62648 0.77425 0.75265 0.0
C807 C 0.66342 0.71906 0.91927 0.0
C808 C 0.57061 0.68345 0.81902 0.0
C809 C 0.57067 0.67144 0.73962 0.0
C810 C 0.59481 0.70712 0.85151 0.0
C811 C 0.62031 0.7195 0.80427 0.0
C812 C 0.62112 0.70694 0.72567 0.0
C813 C 0.59628 0.68298 0.69421 0.0
C814 C 0.59268 0.71948 0.93551 0.0
C815 C 0.648 0.71934 0.67374 0.0
H816 H 0.66913 0.81788 0.83538 0.0
H817 H 0.70078 0.77173 0.97561 0.0
H818 H 0.62582 0.7633 0.69246 0.0
H819 H 0.60478 0.76315 0.78011 0.0
H820 H 0.63216 0.7964 0.73758 0.0
H821 H 0.68166 0.72261 0.95965 0.0
H822 H 0.64353 0.70558 0.95502 0.0
H823 H 0.66298 0.70708 0.86167 0.0
H824 H 0.55127 0.67454 0.85633 0.0
H825 H 0.59674 0.67385 0.6334 0.0
H826 H 0.59592 0.74106 0.92511 0.0
H827 H 0.6095 0.72155 0.97965 0.0
H828 H 0.57176 0.70637 0.96683 0.0
H829 H 0.65323 0.7406 0.64997 0.0
H830 H 0.64605 0.70579 0.61841 0.0
H831 H 0.666 0.72221 0.71395 0.0
C832 C 0.35932 0.92858 0.71992 0.0
C833 C 0.35951 0.90293 0.7162 0.0
C834 C 0.33574 0.92958 0.75387 0.0
C835 C 0.31192 0.90443 0.78517 0.0
C836 C 0.31168 0.87842 0.7781 0.0
C837 C 0.3352 0.878 0.74336 0.0
C838 C 0.33663 0.95766 0.75854 0.0
C839 C 0.28692 0.85099 0.81001 0.0
C840 C 0.26125 0.90504 0.95337 0.0
C841 C 0.23679 0.89712 0.90496 0.0
C842 C 0.28623 0.90841 0.91493 0.0
C843 C 0.28707 0.90476 0.82557 0.0
C844 C 0.2628 0.89827 0.77618 0.0
C845 C 0.23793 0.89409 0.81651 0.0
C846 C 0.3113 0.91464 0.97044 0.0
C847 C 0.26279 0.89494 0.68077 0.0
H848 H 0.37801 0.94797 0.69986 0.0
H849 H 0.33488 0.85797 0.73998 0.0
H850 H 0.31728 0.95591 0.72919 0.0
H851 H 0.33695 0.96371 0.82612 0.0
H852 H 0.35559 0.97485 0.72606 0.0
H853 H 0.29008 0.83256 0.80008 0.0
H854 H 0.28371 0.85274 0.87901 0.0
H855 H 0.26716 0.8467 0.77695 0.0
H856 H 0.2605 0.90756 0.0216 0.0
H857 H 0.21925 0.88857 0.77844 0.0
H858 H 0.33074 0.93341 0.94603 0.0
H859 H 0.31507 0.89642 0.96849 0.0
H860 H 0.308 0.91856 0.03774 0.0
H861 H 0.282 0.91301 0.65236 0.0
H862 H 0.24371 0.89361 0.65051 0.0
H863 H 0.26332 0.87535 0.66525 0.0
C864 C 0.15125 0.04669 0.09746 0.0
C865 C 0.14195 0.027 0.03075 0.0
C866 C 0.14613 0.06951 0.09648 0.0
C867 C 0.1315 0.07279 0.02685 0.0
C868 C 0.12219 0.05304 0.95903 0.0
C869 C 0.12748 0.03032 0.96189 0.0
C870 C 0.15628 0.09004 0.1702 0.0
C871 C 0.10668 0.05593 0.88348 0.0
C872 C 0.09809 0.11901 0.05966 0.0
C873 C 0.1192 0.14514 0.02714 0.0
C874 C 0.10159 0.09512 0.05896 0.0
C875 C 0.12666 0.09737 0.02421 0.0
C876 C 0.14768 0.12346 0.98936 0.0
C877 C 0.14378 0.14701 0.99165 0.0
C878 C 0.07877 0.0677 0.09733 0.0
C879 C 0.17451 0.12663 0.95053 0.0
H880 H 0.1623 0.0441 0.15104 0.0
H881 H 0.12007 0.015 0.91049 0.0
H882 H 0.17154 0.1117 0.14727 0.0
H883 H 0.13811 0.09088 0.19906 0.0
H884 H 0.16678 0.08414 0.22036 0.0
H885 H 0.10091 0.03881 0.83591 0.0
H886 H 0.08701 0.05541 0.90491 0.0
H887 H 0.1201 0.07668 0.8519 0.0
H888 H 0.07903 0.1173 0.08716 0.0
H889 H 0.16016 0.16701 0.96574 0.0
H890 H 0.08743 0.06212 0.15332 0.0
H891 H 0.07179 0.05016 0.05079 0.0
H892 H 0.05995 0.06905 0.11793 0.0
H893 H 0.18695 0.12299 -0.00022 0.0
H894 H 0.18814 0.14799 0.92243 0.0
H895 H 0.16918 0.11048 0.90011 0.0
C896 C 0.98383 0.11608 0.06528 0.0
C897 C 1.00982 0.12173 0.03035 0.0
C898 C 0.96046 0.08841 0.06606 0.0
C899 C 0.96333 0.06592 0.0318 0.0
C900 C 0.9896 0.07156 -0.00339 0.0
C901 C 1.0125 0.09945 0.9959 0.0
C902 C 0.93276 0.08323 0.10391 0.0
C903 C 0.99355 0.04814 0.95992 0.0
C904 C 0.91058 0.99039 0.09911 0.0
C905 C 0.89101 0.98146 0.0321 0.0
C906 C 0.93419 0.01794 0.10021 0.0
C907 C 0.93867 0.03656 0.03141 0.0
C908 C 0.91938 0.02727 0.96244 0.0
C909 C 0.89555 0.99997 0.96423 0.0
C910 C 0.95399 0.0273 0.1757 0.0
C911 C 0.92383 0.04621 0.88688 0.0
H912 H 0.98177 0.13329 0.09215 0.0
H913 H 0.0327 0.10373 0.9697 0.0
H914 H 0.91576 0.07397 0.05518 0.0
H915 H 0.92634 0.0677 0.15675 0.0
H916 H 0.93411 0.10298 0.12857 0.0
H917 H 1.01548 0.05603 0.93624 0.0
H918 H 0.98876 0.03168 0.00893 0.0
H919 H 0.9785 0.03774 0.90658 0.0
H920 H 0.90694 0.97614 0.15192 0.0
H921 H 0.88055 0.99296 0.91196 0.0
H922 H 0.9545 0.0459 0.20635 0.0
H923 H 0.9759 0.03405 0.15448 0.0
H924 H 0.94752 1.01026 0.22401 0.0
H925 H 0.92337 0.06542 0.90777 0.0
H926 H 0.90742 0.03537 0.83697 0.0
H927 H 0.945 0.05339 0.85832 0.0
C928 C 0.92889 0.90335 0.95604 0.0
C929 C 0.9159 0.90026 0.03544 0.0
C930 C 0.95678 0.90829 0.95009 0.0
C931 C 0.97195 0.91015 0.02535 0.0
C932 C 0.959 0.90739 0.10567 0.0
C933 C 0.93114 0.90248 0.10972 0.0
C934 C 0.96982 0.911 0.86332 0.0
C935 C 0.97442 0.90918 0.18739 0.0
C936 C 0.03058 0.89175 0.01766 0.0
C937 C 0.05513 0.91858 0.02138 0.0
C938 C 1.00347 0.88883 0.01711 0.0
C939 C 1.00071 0.9133 0.02035 0.0
C940 C 0.02535 0.94049 0.02211 0.0
C941 C 0.05227 0.94282 0.02289 0.0
C942 C 0.97776 0.85944 0.01561 0.0
C943 C 0.02329 0.96711 0.02457 0.0
H944 H 0.91721 0.90177 0.89847 0.0
H945 H 0.92123 0.90026 0.17128 0.0
H946 H 0.99032 0.93117 0.85889 0.0
H947 H 0.97437 0.89349 0.85357 0.0
H948 H 0.95574 0.91036 0.81116 0.0
H949 H 0.9618 0.90773 0.2447 0.0
H950 H 0.97936 0.89175 0.18974 0.0
H951 H 0.99489 0.92943 0.18986 0.0
H952 H 0.03245 0.87286 0.01682 0.0
H953 H 0.07108 0.96365 0.02523 0.0
H954 H 0.96226 0.85799 0.96722 0.0
H955 H 0.96704 0.85471 0.07848 0.0
H956 H 0.98347 0.84297 0.00146 0.0
H957 H 1.01 0.96716 0.9711 0.0
H958 H 0.04443 0.98665 0.02071 0.0
H959 H 1.0128 0.96772 0.08446 0.0
C960 C 0.82941 0.38595 0.37737 0.0
C961 C 0.80548 0.35883 0.3827 0.0
C962 C 0.82657 0.41021 0.37608 0.0
C963 C 0.79911 0.40711 0.37798 0.0
C964 C 0.7749 0.37969 0.38238 0.0
C965 C 0.77842 0.35592 0.38583 0.0
C966 C 0.8529 0.43913 0.37372 0.0
C967 C 0.74525 0.37541 0.38224 0.0
C968 C 0.7885 0.46761 0.45125 0.0
C969 C 0.78773 0.47977 0.37363 0.0
C970 C 0.79295 0.44437 0.45366 0.0
C971 C 0.79561 0.43249 0.37637 0.0
C972 C 0.79428 0.44449 0.29767 0.0
C973 C 0.7909 0.4684 0.29736 0.0
C974 C 0.795 0.43265 0.5388 0.0
C975 C 0.79603 0.43186 0.21395 0.0
H976 H 0.85036 0.38822 0.37551 0.0
H977 H 0.75988 0.33498 0.38999 0.0
H978 H 0.85294 0.45065 0.31545 0.0
H979 H 0.85305 0.45185 0.42907 0.0
H980 H 0.87267 0.43791 0.37479 0.0
H981 H 0.72874 0.35279 0.38992 0.0
H982 H 0.74277 0.38774 0.43428 0.0
H983 H 0.74143 0.38332 0.3214 0.0
H984 H 0.78631 0.47674 0.51009 0.0
H985 H 0.79021 0.47795 0.23747 0.0
H986 H 0.81524 0.43243 0.54294 0.0
H987 H 0.77752 0.41043 0.54556 0.0
H988 H 0.79392 0.44521 0.59288 0.0
H989 H 0.81657 0.43229 0.20911 0.0
H990 H 0.79398 0.44335 0.15845 0.0
H991 H 0.77898 0.40933 0.21046 0.0
C992 C 0.65557 0.44664 0.42553 0.0
C993 C 0.67753 0.45546 0.36581 0.0
C994 C 0.6321 0.41907 0.42352 0.0
C995 C 0.63054 0.39988 0.36009 0.0
C996 C 0.65254 0.40878 0.29904 0.0
C997 C 0.67581 0.43649 0.30268 0.0
C998 C 0.60909 0.41041 0.48975 0.0
C999 C 0.65154 0.38898 0.23018 0.0
C1000 C 0.58218 0.32116 0.40263 0.0
C1001 C 0.55744 0.31568 0.35906 0.0
C1002 C 0.60626 0.3484 0.40279 0.0
C1003 C 0.60571 0.3706 0.35745 0.0
C1004 C 0.58107 0.36505 0.31173 0.0
C1005 C 0.5572 0.33775 0.31352 0.0
C1006 C 0.63207 0.35355 0.45296 0.0
C1007 C 0.57977 0.38805 0.26165 0.0
H1008 H 0.65684 0.46125 0.47451 0.0
H1009 H 0.69281 0.44321 0.2566 0.0
H1010 H 0.58844 0.40373 0.45837 0.0
H1011 H 0.60679 0.39195 0.52635 0.0
H1012 H 0.61357 0.42783 0.53499 0.0
H1013 H 0.67015 0.39927 0.18689 0.0
H1014 H 0.65086 0.37009 0.25925 0.0
H1015 H 0.63193 0.38134 0.19187 0.0
H1016 H 0.58259 0.30428 0.43803 0.0
H1017 H 0.53829 0.33373 0.27908 0.0
H1018 H 0.63637 0.36932 0.50385 0.0
H1019 H 0.65101 0.36253 0.41103 0.0
H1020 H 0.6294 0.33386 0.48275 0.0
H1021 H 0.5821 0.40509 0.30528 0.0
H1022 H 0.55951 0.37995 0.22622 0.0
H1023 H 0.59759 0.39777 0.21556 0.0
C1024 C 0.59103 0.22709 0.288 0.0
C1025 C 0.58183 0.23293 0.36469 0.0
C1026 C 0.61853 0.23114 0.28022 0.0
C1027 C 0.63714 0.24115 0.35096 0.0
C1028 C 0.62802 0.24744 0.42817 0.0
C1029 C 0.60048 0.24327 0.43405 0.0
C1030 C 0.62758 0.2244 0.19672 0.0
C1031 C 0.64719 0.25809 0.50509 0.0
C1032 C 0.69592 0.22317 0.36639 0.0
C1033 C 0.71998 0.24912 0.34558 0.0
C1034 C 0.66883 0.22026 0.36739 0.0
C1035 C 0.66563 0.24374 0.34587 0.0
C1036 C 0.68974 0.26978 0.32241 0.0
C1037 C 0.71668 0.27221 0.32313 0.0
C1038 C 0.64371 0.19223 0.39369 0.0
C1039 C 0.68713 0.29517 0.29776 0.0
H1040 H 0.5767 0.21924 0.23412 0.0
H1041 H 0.59349 0.24799 0.49331 0.0
H1042 H 0.64755 0.24301 0.17423 0.0
H1043 H 0.63193 0.20673 0.2057 0.0
H1044 H 0.61117 0.21828 0.1465 0.0
H1045 H 0.63719 0.26282 0.55949 0.0
H1046 H 0.65274 0.24197 0.52565 0.0
H1047 H 0.6673 0.2776 0.4887 0.0
H1048 H 0.69833 0.20528 0.38437 0.0
H1049 H 0.73517 0.29214 0.30569 0.0
H1050 H 0.62721 0.18435 0.34339 0.0
H1051 H 0.63404 0.19509 0.45234 0.0
H1052 H 0.64967 0.17582 0.40598 0.0
H1053 H 0.6707 0.28926 0.24785 0.0
H1054 H 0.70748 0.31299 0.27381 0.0
H1055 H 0.68029 0.30265 0.35374 0.0
C1056 C 0.429 0.78514 0.67527 0.0
C1057 C 0.45204 0.81178 0.69618 0.0
C1058 C 0.43188 0.76092 0.67383 0.0
C1059 C 0.45823 0.76332 0.69601 0.0
C1060 C 0.48142 0.79011 0.7184 0.0
C1061 C 0.47818 0.81407 0.71667 0.0
C1062 C 0.40676 0.73278 0.64865 0.0
C1063 C 0.5098 0.79375 0.74403 0.0
C1064 C 0.45986 0.69847 0.7764 0.0
C1065 C 0.47041 0.6911 0.70544 0.0
C1066 C 0.45534 0.72164 0.77363 0.0
C1067 C 0.46143 0.73776 0.69794 0.0
C1068 C 0.47188 0.73028 0.62581 0.0
C1069 C 0.47626 0.70699 0.63041 0.0
C1070 C 0.44481 0.72935 0.85247 0.0
C1071 C 0.4788 0.74712 0.54427 0.0
H1072 H 0.4088 0.78329 0.65901 0.0
H1073 H 0.49605 0.83456 0.73342 0.0
H1074 H 0.41246 0.72388 0.59354 0.0
H1075 H 0.40086 0.71742 0.70179 0.0
H1076 H 0.38795 0.73462 0.63143 0.0
H1077 H 0.52206 0.81305 0.78338 0.0
H1078 H 0.50747 0.77531 0.78074 0.0
H1079 H 0.5223 0.79589 0.6859 0.0
H1080 H 0.45525 0.68619 0.8345 0.0
H1081 H 0.48437 0.7013 0.5754 0.0
H1082 H 0.42518 0.72995 0.83796 0.0
H1083 H 0.46096 0.75087 0.8741 0.0
H1084 H 0.44032 0.71418 0.90549 0.0
H1085 H 0.46021 0.74872 0.52297 0.0
H1086 H 0.48507 0.73753 0.49233 0.0
H1087 H 0.49647 0.769 0.55558 0.0
C1088 C 0.22433 0.66828 0.6399 0.0
C1089 C 0.22293 0.64802 0.69792 0.0
C1090 C 0.24785 0.69576 0.63774 0.0
C1091 C 0.27031 0.7034 0.69613 0.0
C1092 C 0.26912 0.68303 0.75466 0.0
C1093 C 0.24555 0.65545 0.75425 0.0
C1094 C 0.24862 0.71667 0.57308 0.0
C1095 C 0.29251 0.69053 0.81867 0.0
C1096 C 0.34197 0.76765 0.64584 0.0
C1097 C 0.34148 0.78858 0.69645 0.0
C1098 C 0.319 0.73979 0.64539 0.0
C1099 C 0.29489 0.73281 0.69625 0.0
C1100 C 0.2941 0.75402 0.74634 0.0
C1101 C 0.31749 0.78167 0.74608 0.0
C1102 C 0.3207 0.71777 0.59133 0.0
C1103 C 0.26866 0.74745 0.80078 0.0
H1104 H 0.20703 0.66259 0.5956 0.0
H1105 H 0.2445 0.63992 0.7995 0.0
H1106 H 0.24961 0.73515 0.60602 0.0
H1107 H 0.26799 0.72477 0.53326 0.0
H1108 H 0.22978 0.70714 0.53064 0.0
H1109 H 0.28836 0.67228 0.85993 0.0
H1110 H 0.31301 0.69801 0.78537 0.0
H1111 H 0.29487 0.70816 0.85969 0.0
H1112 H 0.36054 0.77291 0.60761 0.0
H1113 H 0.31706 0.79785 0.78517 0.0
H1114 H 0.30194 0.70716 0.5489 0.0
H1115 H 0.3205 0.70119 0.63284 0.0
H1116 H 0.3402 0.72702 0.55164 0.0
H1117 H 0.24935 0.73903 0.76064 0.0
H1118 H 0.2713 0.76641 0.83535 0.0
H1119 H 0.26502 0.7308 0.84796 0.0
C1120 C 0.38341 0.60729 0.70902 0.0
C1121 C 0.38688 0.58384 0.69343 0.0
C1122 C 0.3563 0.60448 0.70986 0.0
C1123 C 0.3321 0.57755 0.6952 0.0
C1124 C 0.33549 0.55388 0.67878 0.0
C1125 C 0.36278 0.55731 0.67793 0.0
C1126 C 0.35353 0.63024 0.72746 0.0
C1127 C 0.31023 0.52478 0.66323 0.0
C1128 C 0.26039 0.56197 0.78015 0.0
C1129 C 0.24732 0.56464 0.70665 0.0
C1130 C 0.28812 0.56651 0.77748 0.0
C1131 C 0.30311 0.57382 0.69935 0.0
C1132 C 0.29004 0.57664 0.62493 0.0
C1133 C 0.26226 0.57202 0.62949 0.0
C1134 C 0.30132 0.56329 0.8582 0.0
C1135 C 0.30532 0.58433 0.54045 0.0
H1136 H 0.40187 0.62789 0.72082 0.0
H1137 H 0.36515 0.539 0.66618 0.0
H1138 H 0.34182 0.63347 0.67492 0.0
H1139 H 0.34108 0.6269 0.78656 0.0
H1140 H 0.37448 0.64983 0.73479 0.0
H1141 H 0.31654 0.50867 0.64983 0.0
H1142 H 0.29611 0.51782 0.71974 0.0
H1143 H 0.29768 0.52549 0.60861 0.0
H1144 H 0.24893 0.55636 0.84 0.0
H1145 H 0.25224 0.5742 0.5726 0.0
H1146 H 0.32144 0.58317 0.87167 0.0
H1147 H 0.30661 0.54622 0.8502 0.0
H1148 H 0.28706 0.55811 0.91411 0.0
H1149 H 0.32557 0.6047 0.54598 0.0
H1150 H 0.29243 0.5863 0.48896 0.0
H1151 H 0.31069 0.56793 0.52184 0.0
C1152 C 0.13866 0.23826 0.69822 0.0
C1153 C 0.13116 0.25721 0.73335 0.0
C1154 C 0.13596 0.23262 0.61073 0.0
C1155 C 0.12646 0.24707 0.55715 0.0
C1156 C 0.11888 0.26629 0.59249 0.0
C1157 C 0.1209 0.27079 0.68073 0.0
C1158 C 0.14331 0.21129 0.57568 0.0
C1159 C 0.10931 0.28256 0.53694 0.0
C1160 C 0.1452 0.25166 0.32267 0.0
C1161 C 0.11921 0.23134 0.28789 0.0
C1162 C 0.14781 0.25733 0.41039 0.0
C1163 C 0.12406 0.24173 0.46421 0.0
C1164 C 0.09797 0.22078 0.42945 0.0
C1165 C 0.09577 0.21608 0.34155 0.0
C1166 C 0.17581 0.28023 0.44531 0.0
C1167 C 0.0724 0.2032 0.4851 0.0
H1168 H 0.14658 0.22779 0.73943 0.0
H1169 H 0.11556 0.28579 0.70818 0.0
H1170 H 0.12499 0.19456 0.53996 0.0
H1171 H 0.16127 0.22179 0.53033 0.0
H1172 H 0.14926 0.20105 0.62655 0.0
H1173 H 0.1049 0.29724 0.57428 0.0
H1174 H 0.12589 0.29504 0.48889 0.0
H1175 H 0.08982 0.26765 0.50173 0.0
H1176 H 0.16326 0.26358 0.28108 0.0
H1177 H 0.07569 0.20014 0.31484 0.0
H1178 H 0.18414 0.27108 0.4925 0.0
H1179 H 0.17274 0.29641 0.47897 0.0
H1180 H 0.19198 0.2909 0.39461 0.0
H1181 H 0.07776 0.19211 0.53464 0.0
H1182 H 0.05393 0.18715 0.44814 0.0
H1183 H 0.06608 0.21711 0.51846 0.0
C1184 C 0.81085 0.91444 0.32864 0.0
C1185 C 0.79814 0.89103 0.27416 0.0
C1186 C 0.80663 0.91096 0.41692 0.0
C1187 C 0.78846 0.88356 0.45062 0.0
C1188 C 0.77515 0.85994 0.39538 0.0
C1189 C 0.78058 0.86391 0.30779 0.0
C1190 C 0.82175 0.93652 0.47415 0.0
C1191 C 0.75486 0.8306 0.4286 0.0
C1192 C 0.79233 0.87058 0.68694 0.0
C1193 C 0.77128 0.8756 0.71929 0.0
C1194 C 0.7982 0.873 0.59918 0.0
C1195 C 0.78213 0.8799 0.54313 0.0
C1196 C 0.76015 0.88389 0.57553 0.0
C1197 C 0.7552 0.88197 0.66323 0.0
C1198 C 0.82211 0.86907 0.56678 0.0
C1199 C 0.74206 0.89056 0.51772 0.0
H1200 H 0.82483 0.93532 0.30244 0.0
H1201 H 0.77082 0.84584 0.26522 0.0
H1202 H 0.80604 0.94042 0.50736 0.0
H1203 H 0.83387 0.93255 0.52376 0.0
H1204 H 0.8366 0.95596 0.43837 0.0
H1205 H 0.74629 0.8145 0.37704 0.0
H1206 H 0.76564 0.82414 0.47602 0.0
H1207 H 0.73684 0.83063 0.46155 0.0
H1208 H 0.80483 0.86579 0.73044 0.0
H1209 H 0.73864 0.8855 0.68813 0.0
H1210 H 0.83855 0.889 0.53656 0.0
H1211 H 0.81421 0.85234 0.51726 0.0
H1212 H 0.83218 0.86321 0.61838 0.0
H1213 H 0.75542 0.91131 0.4861 0.0
H1214 H 0.72477 0.89143 0.55274 0.0
H1215 H 0.73248 0.87432 0.46691 0.0
C1216 C 0.12604 0.89279 0.69678 0.0
C1217 C 0.15302 0.90461 0.73376 0.0
C1218 C 0.12291 0.89554 0.60953 0.0
C1219 C 0.14739 0.90994 0.55802 0.0
C1220 C 0.17472 0.92223 0.59515 0.0
C1221 C 0.17722 0.91966 0.68311 0.0
C1222 C 0.09344 0.88278 0.57239 0.0
C1223 C 0.20127 0.93741 0.5417 0.0
C1224 C 0.13823 0.89257 0.32243 0.0
C1225 C 0.13849 0.91651 0.28909 0.0
C1226 C 0.14155 0.89032 0.41012 0.0
C1227 C 0.14431 0.91215 0.46519 0.0
C1228 C 0.14378 0.93597 0.43179 0.0
C1229 C 0.14127 0.93805 0.34385 0.0
C1230 C 0.14259 0.86488 0.44369 0.0
C1231 C 0.14579 0.95922 0.48887 0.0
H1232 H 0.10732 0.88127 0.73623 0.0
H1233 H 0.19807 0.9285 0.7117 0.0
H1234 H 0.0911 0.89923 0.53763 0.0
H1235 H 0.08993 0.86604 0.52578 0.0
H1236 H 0.07666 0.87331 0.62195 0.0
H1237 H 0.22089 0.9456 0.58043 0.0
H1238 H 0.20135 0.92278 0.49274 0.0
H1239 H 0.20168 0.95544 0.50761 0.0
H1240 H 0.13632 0.87608 0.2797 0.0
H1241 H 0.14123 0.95646 0.31781 0.0
H1242 H 0.12509 0.85312 0.48975 0.0
H1243 H 0.16281 0.87194 0.47832 0.0
H1244 H 0.14083 0.85014 0.39212 0.0
H1245 H 0.12864 0.95014 0.53728 0.0
H1246 H 0.14412 0.97586 0.45278 0.0
H1247 H 0.16627 0.96932 0.52359 0.0
C1248 C 0.76734 0.54521 0.67697 0.0
C1249 C 0.78928 0.5635 0.6223 0.0
C1250 C 0.76939 0.5497 0.76494 0.0
C1251 C 0.79367 0.57351 0.79876 0.0
C1252 C 0.81609 0.59193 0.74394 0.0
C1253 C 0.81379 0.58645 0.65604 0.0
C1254 C 0.74546 0.52909 0.82154 0.0
C1255 C 0.84208 0.61779 0.77788 0.0
C1256 C 0.78515 0.59954 0.01485 0.0
C1257 C 0.79899 0.58961 0.06774 0.0
C1258 C 0.78356 0.59475 0.92671 0.0
C1259 C 0.79545 0.57906 0.89161 0.0
C1260 C 0.80859 0.56819 0.94538 0.0
C1261 C 0.81052 0.57392 0.03274 0.0
C1262 C 0.76973 0.60699 0.87097 0.0
C1263 C 0.82072 0.55062 0.91065 0.0
H1264 H 0.74847 0.52726 0.65072 0.0
H1265 H 0.83062 0.60066 0.61346 0.0
H1266 H 0.75379 0.52084 0.87165 0.0
H1267 H 0.7356 0.54007 0.85415 0.0
H1268 H 0.72873 0.51086 0.78539 0.0
H1269 H 0.85755 0.63 0.7268 0.0
H1270 H 0.83575 0.63189 0.81019 0.0
H1271 H 0.85277 0.61146 0.82601 0.0
H1272 H 0.77657 0.61199 0.0419 0.0
H1273 H 0.82113 0.56614 0.07391 0.0
H1274 H 0.75149 0.58975 0.83644 0.0
H1275 H 0.78508 0.62118 0.82236 0.0
H1276 H 0.76207 0.61921 0.90805 0.0
H1277 H 0.80408 0.53203 0.87564 0.0
H1278 H 0.82936 0.54293 0.96161 0.0
H1279 H 0.83796 0.56332 0.86471 0.0
C1280 C 0.45822 0.20476 0.02125 0.0
C1281 C 0.43572 0.20755 0.05309 0.0
C1282 C 0.46432 0.20762 0.93359 0.0
C1283 C 0.44703 0.21265 0.87692 0.0
C1284 C 0.42361 0.21431 0.90876 0.0
C1285 C 0.41845 0.21206 0.99649 0.0
C1286 C 0.48978 0.20622 0.90195 0.0
C1287 C 0.40419 0.21887 0.85034 0.0
C1288 C 0.47507 0.24811 0.66262 0.0
C1289 C 0.46445 0.22467 0.60822 0.0
C1290 C 0.47023 0.24445 0.75073 0.0
C1291 C 0.45358 0.21674 0.7844 0.0
C1292 C 0.44229 0.19306 0.7292 0.0
C1293 C 0.44827 0.1973 0.64187 0.0
C1294 C 0.48319 0.27016 0.80789 0.0
C1295 C 0.42364 0.1633 0.76219 0.0
H1296 H 0.47168 0.20147 0.06513 0.0
H1297 H 0.40083 0.21393 0.02102 0.0
H1298 H 0.48325 0.18955 0.85261 0.0
H1299 H 0.50507 0.22668 0.87174 0.0
H1300 H 0.50077 0.20169 0.95397 0.0
H1301 H 0.38595 0.21798 0.88485 0.0
H1302 H 0.41621 0.23983 0.81878 0.0
H1303 H 0.3959 0.20255 0.7995 0.0
H1304 H 0.48793 0.26924 0.6366 0.0
H1305 H 0.44001 0.17918 0.59952 0.0
H1306 H 0.49615 0.2677 0.85806 0.0
H1307 H 0.4662 0.27219 0.8404 0.0
H1308 H 0.49683 0.29006 0.77222 0.0
H1309 H 0.43532 0.15808 0.81 0.0
H1310 H 0.41629 0.14722 0.71059 0.0
H1311 H 0.40479 0.16172 0.79461 0.0
C1312 C 0.78882 0.2326 0.66419 0.0
C1313 C 0.81206 0.24929 0.61148 0.0
C1314 C 0.7925 0.2309 0.75196 0.0
C1315 C 0.82016 0.24557 0.78708 0.0
C1316 C 0.84376 0.26201 0.73374 0.0
C1317 C 0.83936 0.26399 0.64666 0.0
C1318 C 0.76677 0.21365 0.80722 0.0
C1319 C 0.87363 0.27725 0.76842 0.0
C1320 C 0.82744 0.25948 0.02533 0.0
C1321 C 0.82862 0.23589 0.05509 0.0
C1322 C 0.82487 0.26308 0.93786 0.0
C1323 C 0.82439 0.24305 0.87936 0.0
C1324 C 0.82694 0.21992 0.90926 0.0
C1325 C 0.82855 0.21637 -0.00302 0.0
C1326 C 0.82153 0.28763 0.90838 0.0
C1327 C 0.82745 0.19863 0.84879 0.0
H1328 H 0.76767 0.22146 0.63716 0.0
H1329 H 0.85738 0.27679 0.60575 0.0
H1330 H 0.76815 0.19598 0.83744 0.0
H1331 H 0.76602 0.22705 0.8592 0.0
H1332 H 0.74664 0.20463 0.7706 0.0
H1333 H 0.88968 0.28888 0.71813 0.0
H1334 H 0.87567 0.29256 0.81827 0.0
H1335 H 0.87851 0.26178 0.79878 0.0
H1336 H 0.82727 0.2744 0.07066 0.0
H1337 H 0.82972 0.19825 0.02034 0.0
H1338 H 0.80061 0.27947 0.87702 0.0
H1339 H 0.83801 0.30042 0.86051 0.0
H1340 H 0.82306 0.3017 0.96176 0.0
H1341 H 0.80671 0.18671 0.81591 0.0
H1342 H 0.83184 0.18322 0.88196 0.0
H1343 H 0.84387 0.20969 0.79911 0.0
C1344 C 0.47599 0.90683 0.36543 0.0
C1345 C 0.46432 0.92209 0.40244 0.0
C1346 C 0.47266 0.90048 0.27848 0.0
C1347 C 0.45792 0.91027 0.22744 0.0
C1348 C 0.44582 0.92543 0.26467 0.0
C1349 C 0.44888 0.93089 0.35228 0.0
C1350 C 0.48519 0.88361 0.24112 0.0
C1351 C 0.43036 0.93657 0.21162 0.0
C1352 C 0.4748 0.91881 0.99186 0.0
C1353 C 0.45079 0.89518 0.95859 0.0
C1354 C 0.47726 0.92419 0.07955 0.0
C1355 C 0.45554 0.90499 0.13473 0.0
C1356 C 0.43157 0.88072 0.10146 0.0
C1357 C 0.4293 0.87631 0.01344 0.0
C1358 C 0.50282 0.9506 0.113 0.0
C1359 C 0.40842 0.8594 0.15878 0.0
H1360 H 0.48776 0.89988 0.4046 0.0
H1361 H 0.44011 0.94294 0.38095 0.0
H1362 H 0.4686 0.86485 0.20663 0.0
H1363 H 0.50191 0.89674 0.19423 0.0
H1364 H 0.49465 0.87626 0.29053 0.0
H1365 H 0.42212 0.9479 0.25059 0.0
H1366 H 0.44487 0.95134 0.16243 0.0
H1367 H 0.41231 0.91887 0.17782 0.0
H1368 H 0.49128 0.93348 0.94911 0.0
H1369 H 0.41085 0.85787 0.98748 0.0
H1370 H 0.51468 0.94479 0.15837 0.0
H1371 H 0.49587 0.96371 0.14837 0.0
H1372 H 0.51748 0.96368 0.06129 0.0
H1373 H 0.41759 0.85126 0.20659 0.0
H1374 H 0.39167 0.84115 0.12276 0.0
H1375 H 0.39841 0.86972 0.19423 0.0
C1376 C 0.12712 0.54321 0.35776 0.0
C1377 C 0.10095 0.53831 0.38852 0.0
C1378 C 0.13279 0.54608 0.27 0.0
C1379 C 0.11142 0.54315 0.21245 0.0
C1380 C 0.08446 0.53676 0.24352 0.0
C1381 C 0.07971 0.53486 0.33143 0.0
C1382 C 0.16193 0.55336 0.23911 0.0
C1383 C 0.06086 0.53259 0.18412 0.0
C1384 C 0.13252 0.57838 0.99544 0.0
C1385 C 0.12885 0.55579 0.94408 0.0
C1386 C 0.12717 0.57461 0.08327 0.0
C1387 C 0.11742 0.5475 0.11986 0.0
C1388 C 0.11302 0.52448 0.06787 0.0
C1389 C 0.119 0.52896 0.98071 0.0
C1390 C 0.13239 0.59972 0.13713 0.0
C1391 C 0.10202 0.49514 0.10424 0.0
H1392 H 0.14354 0.54613 0.40248 0.0
H1393 H 0.0594 0.53092 0.35585 0.0
H1394 H 0.16029 0.53751 0.19179 0.0
H1395 H 0.17209 0.57427 0.20666 0.0
H1396 H 0.17592 0.55424 0.2919 0.0
H1397 H 0.04052 0.52548 0.21827 0.0
H1398 H 0.06678 0.55277 0.15086 0.0
H1399 H 0.05751 0.51667 0.13467 0.0
H1400 H 0.1403 0.59917 0.96745 0.0
H1401 H 0.11593 0.51135 0.94108 0.0
H1402 H 0.14795 0.60318 0.18798 0.0
H1403 H 0.11243 0.59547 0.16884 0.0
H1404 H 0.14056 0.61949 0.09914 0.0
H1405 H 0.11682 0.49556 0.15348 0.0
H1406 H 0.09936 0.47944 0.05474 0.0
H1407 H 0.08125 0.48786 0.13576 0.0
C1408 C 0.49249 0.5927 0.35385 0.0
C1409 C 0.49698 0.57115 0.38428 0.0
C1410 C 0.48968 0.59566 0.26615 0.0
C1411 C 0.49226 0.5771 0.20835 0.0
C1412 C 0.49825 0.55624 0.23908 0.0
C1413 C 0.50008 0.55323 0.32694 0.0
C1414 C 0.48276 0.61779 0.23565 0.0
C1415 C 0.50203 0.53665 0.17939 0.0
C1416 C 0.45676 0.56314 0.99197 0.0
C1417 C 0.47939 0.58183 0.94017 0.0
C1418 C 0.46059 0.56164 0.07976 0.0
C1419 C 0.48783 0.57882 0.11588 0.0
C1420 C 0.51088 0.59724 0.06348 0.0
C1421 C 0.50633 0.5987 0.97635 0.0
C1422 C 0.43544 0.542 0.13407 0.0
C1423 C 0.54035 0.61537 0.09936 0.0
H1424 H 0.4898 0.60629 0.39877 0.0
H1425 H 0.50369 0.53664 0.35111 0.0
H1426 H 0.49862 0.63185 0.18802 0.0
H1427 H 0.46176 0.60727 0.2037 0.0
H1428 H 0.48222 0.63102 0.28858 0.0
H1429 H 0.50882 0.52313 0.2133 0.0
H1430 H 0.48177 0.52267 0.1461 0.0
H1431 H 0.51807 0.54912 0.12999 0.0
H1432 H 0.43588 0.55024 0.96432 0.0
H1433 H 0.52396 0.61308 0.93637 0.0
H1434 H 0.43233 0.55424 0.1852 0.0
H1435 H 0.43943 0.52609 0.16542 0.0
H1436 H 0.41554 0.53065 0.09649 0.0
H1437 H 0.54017 0.6298 0.14882 0.0
H1438 H 0.55604 0.62834 0.04964 0.0
H1439 H 0.54749 0.60173 0.1305 0.0
loop_
_geom_bond_atom_site_label_1
_geom_bond_atom_site_label_2
_geom_bond_distance
_geom_bond_site_symmetry_2
_ccdc_geom_bond_type
Co0 H3 2.400 1_556 S
Co0 O4 2.009 1_556 S
Co0 O12 2.115 . S
Co0 O13 2.315 1_556 S
Co0 O24 2.053 . S
Co0 O27 2.094 . S
Co0 O30 2.122 . S
Co1 O4 2.126 . S
Co1 H5 2.388 1_554 S
Co1 O6 2.053 1_554 S
Co1 O9 2.047 . S
Co1 O15 2.113 . S
Co1 O26 2.063 . S
Co2 H3 2.388 1_556 S
Co2 O4 2.053 1_556 S
Co2 O6 2.126 . S
Co2 O11 2.063 . S
Co2 O25 2.047 . S
Co2 O31 2.113 . S
H3 Co0 2.400 1_554 S
H3 Co2 2.388 1_554 S
H3 O4 0.760 . S
O4 Co0 2.009 1_554 S
O4 Co1 2.126 . S
O4 Co2 2.053 1_554 S
O4 H3 0.760 . S
H5 Co1 2.388 1_556 S
H5 O6 0.760 . S
H5 Co7 2.400 1_556 S
O6 Co1 2.053 1_556 S
O6 Co2 2.126 . S
O6 H5 0.760 . S
O6 Co7 2.009 1_556 S
Co7 H5 2.400 1_554 S
Co7 O6 2.009 1_554 S
Co7 O8 2.053 . S
Co7 O10 2.094 . S
Co7 O14 2.122 . S
Co7 O28 2.115 . S
Co7 O29 2.315 1_554 S
O8 Co7 2.053 . S
O8 C20 1.259 . S
O9 Co1 2.047 . S
O9 C20 1.257 . S
O10 Co7 2.094 . S
O10 C21 1.253 . S
O11 Co2 2.063 . S
O11 C21 1.268 1_556 S
O12 Co0 2.115 . S
O12 C22 1.281 . S
O13 Co0 2.315 1_554 S
O13 C22 1.252 1_554 S
O14 Co7 2.122 . S
O14 C23 1.272 . S
O15 Co1 2.113 . S
O15 C23 1.245 . S
C16 O24 1.259 . S
C16 O25 1.257 . S
C17 O26 1.268 1_556 S
C17 O27 1.253 . S
C18 O28 1.281 . S
C18 O29 1.252 1_554 S
C19 O30 1.272 . S
C19 O31 1.245 . S
C20 O8 1.259 . S
C20 O9 1.257 . S
C21 O10 1.253 . S
C21 O11 1.268 1_554 S
C22 O12 1.281 . S
C22 O13 1.252 1_556 S
C23 O14 1.272 . S
C23 O15 1.245 . S
O24 Co0 2.053 . S
O24 C16 1.259 . S
O25 Co2 2.047 . S
O25 C16 1.257 . S
O26 Co1 2.063 . S
O26 C17 1.268 1_554 S
O27 Co0 2.094 . S
O27 C17 1.253 . S
O28 Co7 2.115 . S
O28 C18 1.281 . S
O29 Co7 2.315 1_556 S
O29 C18 1.252 1_556 S
O30 Co0 2.122 . S
O30 C19 1.272 . S
O31 Co2 2.113 . S
O31 C19 1.245 . S
Co32 H35 2.400 1_556 S
Co32 O36 2.009 1_556 S
Co32 O44 2.115 . S
Co32 O45 2.315 1_556 S
Co32 O56 2.053 . S
Co32 O59 2.094 . S
Co32 O62 2.122 . S
Co33 O36 2.126 . S
Co33 H37 2.388 1_554 S
Co33 O38 2.053 1_554 S
Co33 O41 2.047 . S
Co33 O47 2.113 . S
Co33 O58 2.063 . S
Co34 H35 2.388 1_556 S
Co34 O36 2.053 1_556 S
Co34 O38 2.126 . S
Co34 O43 2.063 . S
Co34 O57 2.047 . S
Co34 O63 2.113 . S
H35 Co32 2.400 1_554 S
H35 Co34 2.388 1_554 S
H35 O36 0.760 . S
O36 Co32 2.009 1_554 S
O36 Co33 2.126 . S
O36 Co34 2.053 1_554 S
O36 H35 0.760 . S
H37 Co33 2.388 1_556 S
H37 O38 0.760 . S
H37 Co39 2.400 1_556 S
O38 Co33 2.053 1_556 S
O38 Co34 2.126 . S
O38 H37 0.760 . S
O38 Co39 2.009 1_556 S
Co39 H37 2.400 1_554 S
Co39 O38 2.009 1_554 S
Co39 O40 2.053 . S
Co39 O42 2.094 . S
Co39 O46 2.122 . S
Co39 O60 2.115 . S
Co39 O61 2.315 1_554 S
O40 Co39 2.053 . S
O40 C52 1.259 . S
O41 Co33 2.047 . S
O41 C52 1.257 . S
O42 Co39 2.094 . S
O42 C53 1.253 . S
O43 Co34 2.063 . S
O43 C53 1.268 1_556 S
O44 Co32 2.115 . S
O44 C54 1.281 . S
O45 Co32 2.315 1_554 S
O45 C54 1.252 1_554 S
O46 Co39 2.122 . S
O46 C55 1.272 . S
O47 Co33 2.113 . S
O47 C55 1.245 . S
C48 O56 1.259 . S
C48 O57 1.257 . S
C49 O58 1.268 1_556 S
C49 O59 1.253 . S
C50 O60 1.281 . S
C50 O61 1.252 1_554 S
C51 O62 1.272 . S
C51 O63 1.245 . S
C52 O40 1.259 . S
C52 O41 1.257 . S
C53 O42 1.253 . S
C53 O43 1.268 1_554 S
C54 O44 1.281 . S
C54 O45 1.252 1_556 S
C55 O46 1.272 . S
C55 O47 1.245 . S
O56 Co32 2.053 . S
O56 C48 1.259 . S
O57 Co34 2.047 . S
O57 C48 1.257 . S
O58 Co33 2.063 . S
O58 C49 1.268 1_554 S
O59 Co32 2.094 . S
O59 C49 1.253 . S
O60 Co39 2.115 . S
O60 C50 1.281 . S
O61 Co39 2.315 1_556 S
O61 C50 1.252 1_556 S
O62 Co32 2.122 . S
O62 C51 1.272 . S
O63 Co34 2.113 . S
O63 C51 1.245 . S
Co64 H67 2.400 1_556 S
Co64 O68 2.009 1_556 S
Co64 O76 2.115 . S
Co64 O77 2.315 1_556 S
Co64 O88 2.053 . S
Co64 O91 2.094 . S
Co64 O94 2.122 . S
Co65 O68 2.126 . S
Co65 H69 2.388 1_554 S
Co65 O70 2.053 1_554 S
Co65 O73 2.047 . S
Co65 O79 2.113 . S
Co65 O90 2.063 . S
Co66 H67 2.388 1_556 S
Co66 O68 2.053 1_556 S
Co66 O70 2.126 . S
Co66 O75 2.063 . S
Co66 O89 2.047 . S
Co66 O95 2.113 . S
H67 Co64 2.400 1_554 S
H67 Co66 2.388 1_554 S
H67 O68 0.760 . S
O68 Co64 2.009 1_554 S
O68 Co65 2.126 . S
O68 Co66 2.053 1_554 S
O68 H67 0.760 . S
H69 Co65 2.388 1_556 S
H69 O70 0.760 . S
H69 Co71 2.400 1_556 S
O70 Co65 2.053 1_556 S
O70 Co66 2.126 . S
O70 H69 0.760 . S
O70 Co71 2.009 1_556 S
Co71 H69 2.400 1_554 S
Co71 O70 2.009 1_554 S
Co71 O72 2.053 . S
Co71 O74 2.094 . S
Co71 O78 2.122 . S
Co71 O92 2.115 . S
Co71 O93 2.315 1_554 S
O72 Co71 2.053 . S
O72 C84 1.259 . S
O73 Co65 2.047 . S
O73 C84 1.257 . S
O74 Co71 2.094 . S
O74 C85 1.253 . S
O75 Co66 2.063 . S
O75 C85 1.268 1_556 S
O76 Co64 2.115 . S
O76 C86 1.281 . S
O77 Co64 2.315 1_554 S
O77 C86 1.252 1_554 S
O78 Co71 2.122 . S
O78 C87 1.272 . S
O79 Co65 2.113 . S
O79 C87 1.245 . S
C80 O88 1.259 . S
C80 O89 1.257 . S
C81 O90 1.268 1_556 S
C81 O91 1.253 . S
C82 O92 1.281 . S
C82 O93 1.252 1_554 S
C83 O94 1.272 . S
C83 O95 1.245 . S
C84 O72 1.259 . S
C84 O73 1.257 . S
C85 O74 1.253 . S
C85 O75 1.268 1_554 S
C86 O76 1.281 . S
C86 O77 1.252 1_556 S
C87 O78 1.272 . S
C87 O79 1.245 . S
O88 Co64 2.053 . S
O88 C80 1.259 . S
O89 Co66 2.047 . S
O89 C80 1.257 . S
O90 Co65 2.063 . S
O90 C81 1.268 1_554 S
O91 Co64 2.094 . S
O91 C81 1.253 . S
O92 Co71 2.115 . S
O92 C82 1.281 . S
O93 Co71 2.315 1_556 S
O93 C82 1.252 1_556 S
O94 Co64 2.122 . S
O94 C83 1.272 . S
O95 Co66 2.113 . S
O95 C83 1.245 . S
Co96 H99 2.400 . S
Co96 O100 2.009 . S
Co96 O108 2.115 . S
Co96 O109 2.315 . S
Co96 O120 2.053 . S
Co96 O123 2.094 . S
Co96 O126 2.122 . S
Co97 O100 2.126 . S
Co97 H101 2.388 . S
Co97 O102 2.053 . S
Co97 O105 2.047 . S
Co97 O111 2.113 . S
Co97 O122 2.063 . S
Co98 H99 2.388 . S
Co98 O100 2.053 . S
Co98 O102 2.126 . S
Co98 O107 2.063 . S
Co98 O121 2.047 . S
Co98 O127 2.113 . S
H99 Co96 2.400 . S
H99 Co98 2.388 . S
H99 O100 0.760 . S
O100 Co96 2.009 . S
O100 Co97 2.126 . S
O100 Co98 2.053 . S
O100 H99 0.760 . S
H101 Co97 2.388 . S
H101 O102 0.760 . S
H101 Co103 2.400 . S
O102 Co97 2.053 . S
O102 Co98 2.126 . S
O102 H101 0.760 . S
O102 Co103 2.009 . S
Co103 H101 2.400 . S
Co103 O102 2.009 . S
Co103 O104 2.053 . S
Co103 O106 2.094 . S
Co103 O110 2.122 . S
Co103 O124 2.115 . S
Co103 O125 2.315 . S
O104 Co103 2.053 . S
O104 C116 1.259 . S
O105 Co97 2.047 . S
O105 C116 1.257 . S
O106 Co103 2.094 . S
O106 C117 1.253 . S
O107 Co98 2.063 . S
O107 C117 1.268 . S
O108 Co96 2.115 . S
O108 C118 1.281 . S
O109 Co96 2.315 . S
O109 C118 1.252 . S
O110 Co103 2.122 . S
O110 C119 1.272 . S
O111 Co97 2.113 . S
O111 C119 1.245 . S
C112 O120 1.259 . S
C112 O121 1.257 . S
C113 O122 1.268 . S
C113 O123 1.253 . S
C114 O124 1.281 . S
C114 O125 1.252 . S
C115 O126 1.272 . S
C115 O127 1.245 . S
C116 O104 1.259 . S
C116 O105 1.257 . S
C117 O106 1.253 . S
C117 O107 1.268 . S
C118 O108 1.281 . S
C118 O109 1.252 . S
C119 O110 1.272 . S
C119 O111 1.245 . S
O120 Co96 2.053 . S
O120 C112 1.259 . S
O121 Co98 2.047 . S
O121 C112 1.257 . S
O122 Co97 2.063 . S
O122 C113 1.268 . S
O123 Co96 2.094 . S
O123 C113 1.253 . S
O124 Co103 2.115 . S
O124 C114 1.281 . S
O125 Co103 2.315 . S
O125 C114 1.252 . S
O126 Co96 2.122 . S
O126 C115 1.272 . S
O127 Co98 2.113 . S
O127 C115 1.245 . S
Co128 H131 2.400 . S
Co128 O132 2.009 . S
Co128 O140 2.115 . S
Co128 O141 2.315 . S
Co128 O152 2.053 . S
Co128 O155 2.094 . S
Co128 O158 2.122 . S
Co129 O132 2.126 . S
Co129 H133 2.388 . S
Co129 O134 2.053 . S
Co129 O137 2.047 . S
Co129 O143 2.113 . S
Co129 O154 2.063 . S
Co130 H131 2.388 . S
Co130 O132 2.053 . S
Co130 O134 2.126 . S
Co130 O139 2.063 . S
Co130 O153 2.047 . S
Co130 O159 2.113 . S
H131 Co128 2.400 . S
H131 Co130 2.388 . S
H131 O132 0.760 . S
O132 Co128 2.009 . S
O132 Co129 2.126 . S
O132 Co130 2.053 . S
O132 H131 0.760 . S
H133 Co129 2.388 . S
H133 O134 0.760 . S
H133 Co135 2.400 . S
O134 Co129 2.053 . S
O134 Co130 2.126 . S
O134 H133 0.760 . S
O134 Co135 2.009 . S
Co135 H133 2.400 . S
Co135 O134 2.009 . S
Co135 O136 2.053 . S
Co135 O138 2.094 . S
Co135 O142 2.122 . S
Co135 O156 2.115 . S
Co135 O157 2.315 . S
O136 Co135 2.053 . S
O136 C148 1.259 . S
O137 Co129 2.047 . S
O137 C148 1.257 . S
O138 Co135 2.094 . S
O138 C149 1.253 . S
O139 Co130 2.063 . S
O139 C149 1.268 . S
O140 Co128 2.115 . S
O140 C150 1.281 . S
O141 Co128 2.315 . S
O141 C150 1.252 . S
O142 Co135 2.122 . S
O142 C151 1.272 . S
O143 Co129 2.113 . S
O143 C151 1.245 . S
C144 O152 1.259 . S
C144 O153 1.257 . S
C145 O154 1.268 . S
C145 O155 1.253 . S
C146 O156 1.281 . S
C146 O157 1.252 . S
C147 O158 1.272 . S
C147 O159 1.245 . S
C148 O136 1.259 . S
C148 O137 1.257 . S
C149 O138 1.253 . S
C149 O139 1.268 . S
C150 O140 1.281 . S
C150 O141 1.252 . S
C151 O142 1.272 . S
C151 O143 1.245 . S
O152 Co128 2.053 . S
O152 C144 1.259 . S
O153 Co130 2.047 . S
O153 C144 1.257 . S
O154 Co129 2.063 . S
O154 C145 1.268 . S
O155 Co128 2.094 . S
O155 C145 1.253 . S
O156 Co135 2.115 . S
O156 C146 1.281 . S
O157 Co135 2.315 . S
O157 C146 1.252 . S
O158 Co128 2.122 . S
O158 C147 1.272 . S
O159 Co130 2.113 . S
O159 C147 1.245 . S
Co160 H163 2.400 . S
Co160 O164 2.009 . S
Co160 O172 2.115 . S
Co160 O173 2.315 . S
Co160 O184 2.053 . S
Co160 O187 2.094 . S
Co160 O190 2.122 . S
Co161 O164 2.126 . S
Co161 H165 2.388 . S
Co161 O166 2.053 . S
Co161 O169 2.047 . S
Co161 O175 2.113 . S
Co161 O186 2.063 . S
Co162 H163 2.388 . S
Co162 O164 2.053 . S
Co162 O166 2.126 . S
Co162 O171 2.063 . S
Co162 O185 2.047 . S
Co162 O191 2.113 . S
H163 Co160 2.400 . S
H163 Co162 2.388 . S
H163 O164 0.760 . S
O164 Co160 2.009 . S
O164 Co161 2.126 . S
O164 Co162 2.053 . S
O164 H163 0.760 . S
H165 Co161 2.388 . S
H165 O166 0.760 . S
H165 Co167 2.400 . S
O166 Co161 2.053 . S
O166 Co162 2.126 . S
O166 H165 0.760 . S
O166 Co167 2.009 . S
Co167 H165 2.400 . S
Co167 O166 2.009 . S
Co167 O168 2.053 . S
Co167 O170 2.094 . S
Co167 O174 2.122 . S
Co167 O188 2.115 . S
Co167 O189 2.315 . S
O168 Co167 2.053 . S
O168 C180 1.259 . S
O169 Co161 2.047 . S
O169 C180 1.257 . S
O170 Co167 2.094 . S
O170 C181 1.253 . S
O171 Co162 2.063 . S
O171 C181 1.268 . S
O172 Co160 2.115 . S
O172 C182 1.281 . S
O173 Co160 2.315 . S
O173 C182 1.252 . S
O174 Co167 2.122 . S
O174 C183 1.272 . S
O175 Co161 2.113 . S
O175 C183 1.245 . S
C176 O184 1.259 . S
C176 O185 1.257 . S
C177 O186 1.268 . S
C177 O187 1.253 . S
C178 O188 1.281 . S
C178 O189 1.252 . S
C179 O190 1.272 . S
C179 O191 1.245 . S
C180 O168 1.259 . S
C180 O169 1.257 . S
C181 O170 1.253 . S
C181 O171 1.268 . S
C182 O172 1.281 . S
C182 O173 1.252 . S
C183 O174 1.272 . S
C183 O175 1.245 . S
O184 Co160 2.053 . S
O184 C176 1.259 . S
O185 Co162 2.047 . S
O185 C176 1.257 . S
O186 Co161 2.063 . S
O186 C177 1.268 . S
O187 Co160 2.094 . S
O187 C177 1.253 . S
O188 Co167 2.115 . S
O188 C178 1.281 . S
O189 Co167 2.315 . S
O189 C178 1.252 . S
O190 Co160 2.122 . S
O190 C179 1.272 . S
O191 Co162 2.113 . S
O191 C179 1.245 . S
Co192 H195 2.400 . S
Co192 O196 2.009 . S
Co192 O204 2.115 . S
Co192 O205 2.315 . S
Co192 O216 2.053 . S
Co192 O219 2.094 . S
Co192 O222 2.122 . S
Co193 O196 2.126 . S
Co193 H197 2.388 . S
Co193 O198 2.053 . S
Co193 O201 2.047 . S
Co193 O207 2.113 . S
Co193 O218 2.063 . S
Co194 H195 2.388 . S
Co194 O196 2.053 . S
Co194 O198 2.126 . S
Co194 O203 2.063 . S
Co194 O217 2.047 . S
Co194 O223 2.113 . S
H195 Co192 2.400 . S
H195 Co194 2.388 . S
H195 O196 0.760 . S
O196 Co192 2.009 . S
O196 Co193 2.126 . S
O196 Co194 2.053 . S
O196 H195 0.760 . S
H197 Co193 2.388 . S
H197 O198 0.760 . S
H197 Co199 2.400 . S
O198 Co193 2.053 . S
O198 Co194 2.126 . S
O198 H197 0.760 . S
O198 Co199 2.009 . S
Co199 H197 2.400 . S
Co199 O198 2.009 . S
Co199 O200 2.053 . S
Co199 O202 2.094 . S
Co199 O206 2.122 . S
Co199 O220 2.115 . S
Co199 O221 2.315 . S
O200 Co199 2.053 . S
O200 C212 1.259 . S
O201 Co193 2.047 . S
O201 C212 1.257 . S
O202 Co199 2.094 . S
O202 C213 1.253 . S
O203 Co194 2.063 . S
O203 C213 1.268 . S
O204 Co192 2.115 . S
O204 C214 1.281 . S
O205 Co192 2.315 . S
O205 C214 1.252 . S
O206 Co199 2.122 . S
O206 C215 1.272 . S
O207 Co193 2.113 . S
O207 C215 1.245 . S
C208 O216 1.259 . S
C208 O217 1.257 . S
C209 O218 1.268 . S
C209 O219 1.253 . S
C210 O220 1.281 . S
C210 O221 1.252 . S
C211 O222 1.272 . S
C211 O223 1.245 . S
C212 O200 1.259 . S
C212 O201 1.257 . S
C213 O202 1.253 . S
C213 O203 1.268 . S
C214 O204 1.281 . S
C214 O205 1.252 . S
C215 O206 1.272 . S
C215 O207 1.245 . S
O216 Co192 2.053 . S
O216 C208 1.259 . S
O217 Co194 2.047 . S
O217 C208 1.257 . S
O218 Co193 2.063 . S
O218 C209 1.268 . S
O219 Co192 2.094 . S
O219 C209 1.253 . S
O220 Co199 2.115 . S
O220 C210 1.281 . S
O221 Co199 2.315 . S
O221 C210 1.252 . S
O222 Co192 2.122 . S
O222 C211 1.272 . S
O223 Co194 2.113 . S
O223 C211 1.245 . S
Co224 H227 2.400 . S
Co224 O228 2.009 . S
Co224 O236 2.115 . S
Co224 O237 2.315 . S
Co224 O248 2.053 . S
Co224 O251 2.094 . S
Co224 O254 2.122 . S
Co225 O228 2.126 . S
Co225 H229 2.388 . S
Co225 O230 2.053 . S
Co225 O233 2.047 . S
Co225 O239 2.113 . S
Co225 O250 2.063 . S
Co226 H227 2.388 . S
Co226 O228 2.053 . S
Co226 O230 2.126 . S
Co226 O235 2.063 . S
Co226 O249 2.047 . S
Co226 O255 2.113 . S
H227 Co224 2.400 . S
H227 Co226 2.388 . S
H227 O228 0.760 . S
O228 Co224 2.009 . S
O228 Co225 2.126 . S
O228 Co226 2.053 . S
O228 H227 0.760 . S
H229 Co225 2.388 . S
H229 O230 0.760 . S
H229 Co231 2.400 . S
O230 Co225 2.053 . S
O230 Co226 2.126 . S
O230 H229 0.760 . S
O230 Co231 2.009 . S
Co231 H229 2.400 . S
Co231 O230 2.009 . S
Co231 O232 2.053 . S
Co231 O234 2.094 . S
Co231 O238 2.122 . S
Co231 O252 2.115 . S
Co231 O253 2.315 . S
O232 Co231 2.053 . S
O232 C244 1.259 . S
O233 Co225 2.047 . S
O233 C244 1.257 . S
O234 Co231 2.094 . S
O234 C245 1.253 . S
O235 Co226 2.063 . S
O235 C245 1.268 . S
O236 Co224 2.115 . S
O236 C246 1.281 . S
O237 Co224 2.315 . S
O237 C246 1.252 . S
O238 Co231 2.122 . S
O238 C247 1.272 . S
O239 Co225 2.113 . S
O239 C247 1.245 . S
C240 O248 1.259 . S
C240 O249 1.257 . S
C241 O250 1.268 . S
C241 O251 1.253 . S
C242 O252 1.281 . S
C242 O253 1.252 . S
C243 O254 1.272 . S
C243 O255 1.245 . S
C244 O232 1.259 . S
C244 O233 1.257 . S
C245 O234 1.253 . S
C245 O235 1.268 . S
C246 O236 1.281 . S
C246 O237 1.252 . S
C247 O238 1.272 . S
C247 O239 1.245 . S
O248 Co224 2.053 . S
O248 C240 1.259 . S
O249 Co226 2.047 . S
O249 C240 1.257 . S
O250 Co225 2.063 . S
O250 C241 1.268 . S
O251 Co224 2.094 . S
O251 C241 1.253 . S
O252 Co231 2.115 . S
O252 C242 1.281 . S
O253 Co231 2.315 . S
O253 C242 1.252 . S
O254 Co224 2.122 . S
O254 C243 1.272 . S
O255 Co226 2.113 . S
O255 C243 1.245 . S
Co256 H259 2.400 . S
Co256 O260 2.009 . S
Co256 O268 2.115 . S
Co256 O269 2.315 . S
Co256 O280 2.053 . S
Co256 O283 2.094 . S
Co256 O286 2.122 . S
Co257 O260 2.126 . S
Co257 H261 2.388 . S
Co257 O262 2.053 . S
Co257 O265 2.047 . S
Co257 O271 2.113 . S
Co257 O282 2.063 . S
Co258 H259 2.388 . S
Co258 O260 2.053 . S
Co258 O262 2.126 . S
Co258 O267 2.063 . S
Co258 O281 2.047 . S
Co258 O287 2.113 . S
H259 Co256 2.400 . S
H259 Co258 2.388 . S
H259 O260 0.760 . S
O260 Co256 2.009 . S
O260 Co257 2.126 . S
O260 Co258 2.053 . S
O260 H259 0.760 . S
H261 Co257 2.388 . S
H261 O262 0.760 . S
H261 Co263 2.400 . S
O262 Co257 2.053 . S
O262 Co258 2.126 . S
O262 H261 0.760 . S
O262 Co263 2.009 . S
Co263 H261 2.400 . S
Co263 O262 2.009 . S
Co263 O264 2.053 . S
Co263 O266 2.094 . S
Co263 O270 2.122 . S
Co263 O284 2.115 . S
Co263 O285 2.315 . S
O264 Co263 2.053 . S
O264 C276 1.259 . S
O265 Co257 2.047 . S
O265 C276 1.257 . S
O266 Co263 2.094 . S
O266 C277 1.253 . S
O267 Co258 2.063 . S
O267 C277 1.268 . S
O268 Co256 2.115 . S
O268 C278 1.281 . S
O269 Co256 2.315 . S
O269 C278 1.252 . S
O270 Co263 2.122 . S
O270 C279 1.272 . S
O271 Co257 2.113 . S
O271 C279 1.245 . S
C272 O280 1.259 . S
C272 O281 1.257 . S
C273 O282 1.268 . S
C273 O283 1.253 . S
C274 O284 1.281 . S
C274 O285 1.252 . S
C275 O286 1.272 . S
C275 O287 1.245 . S
C276 O264 1.259 . S
C276 O265 1.257 . S
C277 O266 1.253 . S
C277 O267 1.268 . S
C278 O268 1.281 . S
C278 O269 1.252 . S
C279 O270 1.272 . S
C279 O271 1.245 . S
O280 Co256 2.053 . S
O280 C272 1.259 . S
O281 Co258 2.047 . S
O281 C272 1.257 . S
O282 Co257 2.063 . S
O282 C273 1.268 . S
O283 Co256 2.094 . S
O283 C273 1.253 . S
O284 Co263 2.115 . S
O284 C274 1.281 . S
O285 Co263 2.315 . S
O285 C274 1.252 . S
O286 Co256 2.122 . S
O286 C275 1.272 . S
O287 Co258 2.113 . S
O287 C275 1.245 . S
C288 C289 1.391 . S
C288 C290 1.394 . S
C288 H304 0.931 . S
C289 C288 1.391 . S
C289 C293 1.376 . S
C290 C288 1.394 . S
C290 C291 1.369 . S
C290 C294 1.531 . S
C291 C290 1.369 . S
C291 C292 1.410 . S
C291 C299 1.503 . S
C292 C291 1.410 . S
C292 C293 1.392 . S
C292 C295 1.511 . S
C293 C289 1.376 . S
C293 C292 1.392 . S
C293 H305 0.929 1_554 S
C294 C290 1.531 . S
C294 H306 0.960 . S
C294 H307 0.962 . S
C294 H308 0.960 . S
C295 C292 1.511 . S
C295 H309 0.961 1_554 S
C295 H310 0.961 . S
C295 H311 0.961 . S
C296 C297 1.370 . S
C296 C298 1.363 . S
C296 H312 0.931 . S
C297 C296 1.370 . S
C297 C301 1.408 . S
C298 C296 1.363 . S
C298 C299 1.370 . S
C298 C302 1.524 . S
C299 C291 1.503 . S
C299 C298 1.370 . S
C299 C300 1.403 . S
C300 C299 1.403 . S
C300 C301 1.404 . S
C300 C303 1.539 . S
C301 C297 1.408 . S
C301 C300 1.404 . S
C301 H313 0.930 . S
C302 C298 1.524 . S
C302 H314 0.956 . S
C302 H315 0.961 . S
C302 H316 0.961 . S
C303 C300 1.539 . S
C303 H317 0.958 . S
C303 H318 0.961 . S
C303 H319 0.960 . S
H304 C288 0.931 . S
H305 C293 0.929 1_556 S
H306 C294 0.960 . S
H307 C294 0.962 . S
H308 C294 0.960 . S
H309 C295 0.961 1_556 S
H310 C295 0.961 . S
H311 C295 0.961 . S
H312 C296 0.931 . S
H313 C301 0.930 . S
H314 C302 0.956 . S
H315 C302 0.961 . S
H316 C302 0.961 . S
H317 C303 0.958 . S
H318 C303 0.961 . S
H319 C303 0.960 . S
C320 C321 1.391 . S
C320 C322 1.394 . S
C320 H336 0.931 . S
C321 C320 1.391 . S
C321 C325 1.376 . S
C322 C320 1.394 . S
C322 C323 1.369 . S
C322 C326 1.531 . S
C323 C322 1.369 . S
C323 C324 1.410 . S
C323 C331 1.503 . S
C324 C323 1.410 . S
C324 C325 1.392 . S
C324 C327 1.511 . S
C325 C321 1.376 . S
C325 C324 1.392 . S
C325 H337 0.929 . S
C326 C322 1.531 . S
C326 H338 0.960 . S
C326 H339 0.962 . S
C326 H340 0.960 . S
C327 C324 1.511 . S
C327 H341 0.961 . S
C327 H342 0.961 . S
C327 H343 0.961 . S
C328 C329 1.370 1_556 S
C328 C330 1.363 1_566 S
C328 H344 0.931 . S
C329 C328 1.370 1_554 S
C329 C333 1.408 . S
C330 C328 1.363 1_544 S
C330 C331 1.370 . S
C330 C334 1.524 1_554 S
C331 C323 1.503 . S
C331 C330 1.370 . S
C331 C332 1.394 1_545 S
C332 C331 1.394 1_565 S
C332 C333 1.412 . S
C332 C335 1.543 1_565 S
C333 C329 1.408 . S
C333 C332 1.412 . S
C333 H345 0.930 . S
C334 C330 1.524 1_556 S
C334 H346 0.956 . S
C334 H347 0.961 1_556 S
C334 H348 0.961 . S
C335 C332 1.543 1_545 S
C335 H349 0.959 . S
C335 H350 0.936 1_545 S
C335 H351 0.983 . S
H336 C320 0.931 . S
H337 C325 0.929 . S
H338 C326 0.960 . S
H339 C326 0.962 . S
H340 C326 0.960 . S
H341 C327 0.961 . S
H342 C327 0.961 . S
H343 C327 0.961 . S
H344 C328 0.931 . S
H345 C333 0.930 . S
H346 C334 0.956 . S
H347 C334 0.961 1_554 S
H348 C334 0.961 . S
H349 C335 0.959 . S
H350 C335 0.936 1_565 S
H351 C335 0.983 . S
C352 C353 1.391 . S
C352 C354 1.394 . S
C352 H368 0.931 . S
C353 C352 1.391 . S
C353 C357 1.376 1_455 S
C354 C352 1.394 . S
C354 C355 1.369 1_455 S
C354 C358 1.531 . S
C355 C354 1.369 1_655 S
C355 C356 1.410 . S
C355 C363 1.503 . S
C356 C355 1.410 . S
C356 C357 1.392 . S
C356 C359 1.511 . S
C357 C353 1.376 1_655 S
C357 C356 1.392 . S
C357 H369 0.929 1_554 S
C358 C354 1.531 . S
C358 H370 0.960 1_455 S
C358 H371 0.962 . S
C358 H372 0.960 . S
C359 C356 1.511 . S
C359 H373 0.961 1_554 S
C359 H374 0.961 . S
C359 H375 0.961 . S
C360 C361 1.370 . S
C360 C362 1.363 . S
C360 H376 0.931 . S
C361 C360 1.370 . S
C361 C365 1.408 . S
C362 C360 1.363 . S
C362 C363 1.370 . S
C362 C366 1.524 . S
C363 C355 1.503 . S
C363 C362 1.370 . S
C363 C364 1.403 . S
C364 C363 1.403 . S
C364 C365 1.404 . S
C364 C367 1.539 . S
C365 C361 1.408 . S
C365 C364 1.404 . S
C365 H377 0.930 . S
C366 C362 1.524 . S
C366 H378 0.956 . S
C366 H379 0.961 . S
C366 H380 0.961 . S
C367 C364 1.539 . S
C367 H381 0.958 . S
C367 H382 0.961 . S
C367 H383 0.960 . S
H368 C352 0.931 . S
H369 C357 0.929 1_556 S
H370 C358 0.960 1_655 S
H371 C358 0.962 . S
H372 C358 0.960 . S
H373 C359 0.961 1_556 S
H374 C359 0.961 . S
H375 C359 0.961 . S
H376 C360 0.931 . S
H377 C365 0.930 . S
H378 C366 0.956 . S
H379 C366 0.961 . S
H380 C366 0.961 . S
H381 C367 0.958 . S
H382 C367 0.961 . S
H383 C367 0.960 . S
C384 C385 1.391 . S
C384 C386 1.394 . S
C384 H400 0.931 . S
C385 C384 1.391 . S
C385 C389 1.376 . S
C386 C384 1.394 . S
C386 C387 1.369 . S
C386 C390 1.531 . S
C387 C386 1.369 . S
C387 C388 1.410 . S
C387 C395 1.503 . S
C388 C387 1.410 . S
C388 C389 1.392 . S
C388 C391 1.511 1_554 S
C389 C385 1.376 . S
C389 C388 1.392 . S
C389 H401 0.929 1_554 S
C390 C386 1.531 . S
C390 H402 0.960 . S
C390 H403 0.962 . S
C390 H404 0.960 . S
C391 C388 1.511 1_556 S
C391 H405 0.961 . S
C391 H406 0.961 . S
C391 H407 0.961 . S
C392 C393 1.370 . S
C392 C394 1.363 . S
C392 H408 0.931 . S
C393 C392 1.370 . S
C393 C397 1.408 . S
C394 C392 1.363 . S
C394 C395 1.370 . S
C394 C398 1.524 . S
C395 C387 1.503 . S
C395 C394 1.370 . S
C395 C396 1.403 . S
C396 C395 1.403 . S
C396 C397 1.404 . S
C396 C399 1.539 . S
C397 C393 1.408 . S
C397 C396 1.404 . S
C397 H409 0.930 . S
C398 C394 1.524 . S
C398 H410 0.956 . S
C398 H411 0.961 . S
C398 H412 0.961 . S
C399 C396 1.539 . S
C399 H413 0.958 . S
C399 H414 0.961 . S
C399 H415 0.960 . S
H400 C384 0.931 . S
H401 C389 0.929 1_556 S
H402 C390 0.960 . S
H403 C390 0.962 . S
H404 C390 0.960 . S
H405 C391 0.961 . S
H406 C391 0.961 . S
H407 C391 0.961 . S
H408 C392 0.931 . S
H409 C397 0.930 . S
H410 C398 0.956 . S
H411 C398 0.961 . S
H412 C398 0.961 . S
H413 C399 0.958 . S
H414 C399 0.961 . S
H415 C399 0.960 . S
C416 C417 1.391 1_565 S
C416 C418 1.394 1_565 S
C416 H432 0.931 . S
C417 C416 1.391 1_545 S
C417 C421 1.376 1_554 S
C418 C416 1.394 1_545 S
C418 C419 1.369 . S
C418 C422 1.531 . S
C419 C418 1.369 . S
C419 C420 1.410 . S
C419 C427 1.503 . S
C420 C419 1.410 . S
C420 C421 1.392 1_554 S
C420 C423 1.511 1_554 S
C421 C417 1.376 1_556 S
C421 C420 1.392 1_556 S
C421 H433 0.929 . S
C422 C418 1.531 . S
C422 H434 0.960 . S
C422 H435 0.962 . S
C422 H436 0.998 . S
C423 C420 1.511 1_556 S
C423 H437 0.961 . S
C423 H438 0.961 1_556 S
C423 H439 0.961 . S
C424 C425 1.370 . S
C424 C426 1.363 . S
C424 H440 0.931 . S
C425 C424 1.370 . S
C425 C429 1.408 . S
C426 C424 1.363 . S
C426 C427 1.370 . S
C426 C430 1.524 . S
C427 C419 1.503 . S
C427 C426 1.370 . S
C427 C428 1.403 . S
C428 C427 1.403 . S
C428 C429 1.404 . S
C428 C431 1.539 . S
C429 C425 1.408 . S
C429 C428 1.404 . S
C429 H441 0.930 . S
C430 C426 1.524 . S
C430 H442 0.956 . S
C430 H443 0.961 . S
C430 H444 0.961 . S
C431 C428 1.539 . S
C431 H445 0.958 . S
C431 H446 0.961 . S
C431 H447 0.960 . S
H432 C416 0.931 . S
H433 C421 0.929 . S
H434 C422 0.960 . S
H435 C422 0.962 . S
H436 C422 0.998 . S
H437 C423 0.961 . S
H438 C423 0.961 1_554 S
H439 C423 0.961 . S
H440 C424 0.931 . S
H441 C429 0.930 . S
H442 C430 0.956 . S
H443 C430 0.961 . S
H444 C430 0.961 . S
H445 C431 0.958 . S
H446 C431 0.961 . S
H447 C431 0.960 . S
C448 C449 1.396 1_455 S
C448 C450 1.368 1_455 S
C448 H464 0.951 . S
C449 C448 1.396 1_655 S
C449 C453 1.376 1_554 S
C450 C448 1.368 1_655 S
C450 C451 1.369 . S
C450 C454 1.531 . S
C451 C450 1.369 . S
C451 C452 1.410 . S
C451 C459 1.503 . S
C452 C451 1.410 . S
C452 C453 1.392 1_554 S
C452 C455 1.511 1_554 S
C453 C449 1.376 1_556 S
C453 C452 1.392 1_556 S
C453 H465 0.929 . S
C454 C450 1.531 . S
C454 H466 0.960 . S
C454 H467 0.962 . S
C454 H468 0.960 . S
C455 C452 1.511 1_556 S
C455 H469 0.961 . S
C455 H470 0.956 1_556 S
C455 H471 0.961 . S
C456 C457 1.370 . S
C456 C458 1.363 . S
C456 H472 0.931 . S
C457 C456 1.370 . S
C457 C461 1.408 . S
C458 C456 1.363 . S
C458 C459 1.370 . S
C458 C462 1.524 . S
C459 C451 1.503 . S
C459 C458 1.370 . S
C459 C460 1.403 . S
C460 C459 1.403 . S
C460 C461 1.404 . S
C460 C463 1.539 . S
C461 C457 1.408 . S
C461 C460 1.404 . S
C461 H473 0.930 . S
C462 C458 1.524 . S
C462 H474 0.956 . S
C462 H475 0.961 . S
C462 H476 0.961 . S
C463 C460 1.539 . S
C463 H477 0.958 . S
C463 H478 0.961 . S
C463 H479 0.960 . S
H464 C448 0.951 . S
H465 C453 0.929 . S
H466 C454 0.960 . S
H467 C454 0.962 . S
H468 C454 0.960 . S
H469 C455 0.961 . S
H470 C455 0.956 1_554 S
H471 C455 0.961 . S
H472 C456 0.931 . S
H473 C461 0.930 . S
H474 C462 0.956 . S
H475 C462 0.961 . S
H476 C462 0.961 . S
H477 C463 0.958 . S
H478 C463 0.961 . S
H479 C463 0.960 . S
C480 C481 1.391 . S
C480 C482 1.394 . S
C480 H496 0.931 . S
C481 C480 1.391 . S
C481 C485 1.376 . S
C482 C480 1.394 . S
C482 C483 1.369 . S
C482 C486 1.531 . S
C483 C482 1.369 . S
C483 C484 1.410 . S
C483 C491 1.503 . S
C484 C483 1.410 . S
C484 C485 1.392 . S
C484 C487 1.511 . S
C485 C481 1.376 . S
C485 C484 1.392 . S
C485 H497 0.929 . S
C486 C482 1.531 . S
C486 H498 0.960 . S
C486 H499 0.962 . S
C486 H500 0.960 . S
C487 C484 1.511 . S
C487 H501 0.961 . S
C487 H502 0.961 . S
C487 H503 0.961 . S
C488 C489 1.370 . S
C488 C490 1.363 . S
C488 H504 0.931 . S
C489 C488 1.370 . S
C489 C493 1.408 1_655 S
C490 C488 1.363 . S
C490 C491 1.370 . S
C490 C494 1.524 . S
C491 C483 1.503 . S
C491 C490 1.370 . S
C491 C492 1.403 . S
C492 C491 1.403 . S
C492 C493 1.404 1_655 S
C492 C495 1.539 . S
C493 C489 1.408 1_455 S
C493 C492 1.404 1_455 S
C493 H505 0.930 . S
C494 C490 1.524 . S
C494 H506 0.956 . S
C494 H507 0.961 . S
C494 H508 0.961 . S
C495 C492 1.539 . S
C495 H509 0.958 . S
C495 H510 0.961 1_655 S
C495 H511 0.960 . S
H496 C480 0.931 . S
H497 C485 0.929 . S
H498 C486 0.960 . S
H499 C486 0.962 . S
H500 C486 0.960 . S
H501 C487 0.961 . S
H502 C487 0.961 . S
H503 C487 0.961 . S
H504 C488 0.931 . S
H505 C493 0.930 . S
H506 C494 0.956 . S
H507 C494 0.961 . S
H508 C494 0.961 . S
H509 C495 0.958 . S
H510 C495 0.961 1_455 S
H511 C495 0.960 . S
C512 C513 1.391 . S
C512 C514 1.394 . S
C512 H528 0.931 . S
C513 C512 1.391 . S
C513 C517 1.376 . S
C514 C512 1.394 . S
C514 C515 1.369 . S
C514 C518 1.531 . S
C515 C514 1.369 . S
C515 C516 1.410 . S
C515 C523 1.503 . S
C516 C515 1.410 . S
C516 C517 1.392 . S
C516 C519 1.511 . S
C517 C513 1.376 . S
C517 C516 1.392 . S
C517 H529 0.929 . S
C518 C514 1.531 . S
C518 H530 0.960 . S
C518 H531 0.962 . S
C518 H532 0.960 . S
C519 C516 1.511 . S
C519 H533 0.961 . S
C519 H534 0.961 . S
C519 H535 0.961 . S
C520 C521 1.370 . S
C520 C522 1.363 . S
C520 H536 0.931 . S
C521 C520 1.370 . S
C521 C525 1.408 . S
C522 C520 1.363 . S
C522 C523 1.370 . S
C522 C526 1.524 . S
C523 C515 1.503 . S
C523 C522 1.370 . S
C523 C524 1.403 . S
C524 C523 1.403 . S
C524 C525 1.404 . S
C524 C527 1.539 . S
C525 C521 1.408 . S
C525 C524 1.404 . S
C525 H537 0.930 . S
C526 C522 1.524 . S
C526 H538 0.956 . S
C526 H539 0.961 . S
C526 H540 0.961 . S
C527 C524 1.539 . S
C527 H541 0.958 . S
C527 H542 0.961 . S
C527 H543 0.960 . S
H528 C512 0.931 . S
H529 C517 0.929 . S
H530 C518 0.960 . S
H531 C518 0.962 . S
H532 C518 0.960 . S
H533 C519 0.961 . S
H534 C519 0.961 . S
H535 C519 0.961 . S
H536 C520 0.931 . S
H537 C525 0.930 . S
H538 C526 0.956 . S
H539 C526 0.961 . S
H540 C526 0.961 . S
H541 C527 0.958 . S
H542 C527 0.961 . S
H543 C527 0.960 . S
C544 C545 1.391 . S
C544 C546 1.394 . S
C544 H560 0.931 1_545 S
C545 C544 1.391 . S
C545 C549 1.376 . S
C546 C544 1.394 . S
C546 C547 1.369 . S
C546 C550 1.531 . S
C547 C546 1.369 . S
C547 C548 1.410 . S
C547 C555 1.503 . S
C548 C547 1.410 . S
C548 C549 1.392 . S
C548 C551 1.511 . S
C549 C545 1.376 . S
C549 C548 1.392 . S
C549 H561 0.929 . S
C550 C546 1.531 . S
C550 H562 0.960 . S
C550 H563 0.962 . S
C550 H564 0.960 . S
C551 C548 1.511 . S
C551 H565 0.961 . S
C551 H566 0.961 . S
C551 H567 0.961 . S
C552 C553 1.370 . S
C552 C554 1.363 . S
C552 H568 0.931 . S
C553 C552 1.370 . S
C553 C557 1.408 . S
C554 C552 1.363 . S
C554 C555 1.370 . S
C554 C558 1.524 . S
C555 C547 1.503 . S
C555 C554 1.370 . S
C555 C556 1.403 . S
C556 C555 1.403 . S
C556 C557 1.404 . S
C556 C559 1.539 . S
C557 C553 1.408 . S
C557 C556 1.404 . S
C557 H569 0.930 . S
C558 C554 1.524 . S
C558 H570 0.956 . S
C558 H571 0.961 . S
C558 H572 0.961 . S
C559 C556 1.539 . S
C559 H573 0.958 . S
C559 H574 0.961 . S
C559 H575 0.960 . S
H560 C544 0.931 1_565 S
H561 C549 0.929 . S
H562 C550 0.960 . S
H563 C550 0.962 . S
H564 C550 0.960 . S
H565 C551 0.961 . S
H566 C551 0.961 . S
H567 C551 0.961 . S
H568 C552 0.931 . S
H569 C557 0.930 . S
H570 C558 0.956 . S
H571 C558 0.961 . S
H572 C558 0.961 . S
H573 C559 0.958 . S
H574 C559 0.961 . S
H575 C559 0.960 . S
C576 C577 1.391 . S
C576 C578 1.394 . S
C576 H592 0.931 . S
C577 C576 1.391 . S
C577 C581 1.376 . S
C578 C576 1.394 . S
C578 C579 1.369 . S
C578 C582 1.531 . S
C579 C578 1.369 . S
C579 C580 1.410 . S
C579 C587 1.503 . S
C580 C579 1.410 . S
C580 C581 1.392 . S
C580 C583 1.511 . S
C581 C577 1.376 . S
C581 C580 1.392 . S
C581 H593 0.929 . S
C582 C578 1.531 . S
C582 H594 0.960 . S
C582 H595 0.962 . S
C582 H596 0.960 . S
C583 C580 1.511 . S
C583 H597 0.961 . S
C583 H598 0.961 . S
C583 H599 0.961 . S
C584 C585 1.370 . S
C584 C586 1.363 . S
C584 H600 0.931 . S
C585 C584 1.370 . S
C585 C589 1.408 . S
C586 C584 1.363 . S
C586 C587 1.370 . S
C586 C590 1.524 . S
C587 C579 1.503 . S
C587 C586 1.370 . S
C587 C588 1.403 . S
C588 C587 1.403 . S
C588 C589 1.404 . S
C588 C591 1.539 . S
C589 C585 1.408 . S
C589 C588 1.404 . S
C589 H601 0.930 . S
C590 C586 1.524 . S
C590 H602 0.956 . S
C590 H603 0.961 . S
C590 H604 0.961 . S
C591 C588 1.539 . S
C591 H605 0.958 . S
C591 H606 0.961 . S
C591 H607 0.960 . S
H592 C576 0.931 . S
H593 C581 0.929 . S
H594 C582 0.960 . S
H595 C582 0.962 . S
H596 C582 0.960 . S
H597 C583 0.961 . S
H598 C583 0.961 . S
H599 C583 0.961 . S
H600 C584 0.931 . S
H601 C589 0.930 . S
H602 C590 0.956 . S
H603 C590 0.961 . S
H604 C590 0.961 . S
H605 C591 0.958 . S
H606 C591 0.961 . S
H607 C591 0.960 . S
C608 C609 1.391 . S
C608 C610 1.394 . S
C608 H624 0.931 1_655 S
C609 C608 1.391 . S
C609 C613 1.376 . S
C610 C608 1.394 . S
C610 C611 1.369 . S
C610 C614 1.531 . S
C611 C610 1.369 . S
C611 C612 1.410 . S
C611 C619 1.503 . S
C612 C611 1.410 . S
C612 C613 1.392 . S
C612 C615 1.511 . S
C613 C609 1.376 . S
C613 C612 1.392 . S
C613 H625 0.929 . S
C614 C610 1.531 . S
C614 H626 0.960 . S
C614 H627 0.962 . S
C614 H628 0.960 . S
C615 C612 1.511 . S
C615 H629 0.961 . S
C615 H630 0.961 . S
C615 H631 0.961 . S
C616 C617 1.370 . S
C616 C618 1.363 . S
C616 H632 0.931 . S
C617 C616 1.370 . S
C617 C621 1.408 . S
C618 C616 1.363 . S
C618 C619 1.370 . S
C618 C622 1.524 . S
C619 C611 1.503 . S
C619 C618 1.370 . S
C619 C620 1.403 . S
C620 C619 1.403 . S
C620 C621 1.404 . S
C620 C623 1.539 . S
C621 C617 1.408 . S
C621 C620 1.404 . S
C621 H633 0.930 . S
C622 C618 1.524 . S
C622 H634 0.956 . S
C622 H635 0.961 . S
C622 H636 0.961 . S
C623 C620 1.539 . S
C623 H637 0.958 . S
C623 H638 0.961 . S
C623 H639 0.960 . S
H624 C608 0.931 1_455 S
H625 C613 0.929 . S
H626 C614 0.960 . S
H627 C614 0.962 . S
H628 C614 0.960 . S
H629 C615 0.961 . S
H630 C615 0.961 . S
H631 C615 0.961 . S
H632 C616 0.931 . S
H633 C621 0.930 . S
H634 C622 0.956 . S
H635 C622 0.961 . S
H636 C622 0.961 . S
H637 C623 0.958 . S
H638 C623 0.961 . S
H639 C623 0.960 . S
C640 C641 1.391 . S
C640 C642 1.394 . S
C640 H656 0.931 . S
C641 C640 1.391 . S
C641 C645 1.376 . S
C642 C640 1.394 . S
C642 C643 1.369 . S
C642 C646 1.531 . S
C643 C642 1.369 . S
C643 C644 1.410 . S
C643 C651 1.503 . S
C644 C643 1.410 . S
C644 C645 1.392 . S
C644 C647 1.511 . S
C645 C641 1.376 . S
C645 C644 1.392 . S
C645 H657 0.929 . S
C646 C642 1.531 . S
C646 H658 0.960 . S
C646 H659 0.962 . S
C646 H660 0.960 . S
C647 C644 1.511 . S
C647 H661 0.961 . S
C647 H662 0.961 . S
C647 H663 0.961 . S
C648 C649 1.370 . S
C648 C650 1.363 . S
C648 H664 0.931 . S
C649 C648 1.370 . S
C649 C653 1.408 . S
C650 C648 1.363 . S
C650 C651 1.370 . S
C650 C654 1.524 . S
C651 C643 1.503 . S
C651 C650 1.370 . S
C651 C652 1.403 . S
C652 C651 1.403 . S
C652 C653 1.404 . S
C652 C655 1.539 . S
C653 C649 1.408 . S
C653 C652 1.404 . S
C653 H665 0.930 . S
C654 C650 1.524 . S
C654 H666 0.956 . S
C654 H667 0.961 . S
C654 H668 0.961 . S
C655 C652 1.539 . S
C655 H669 0.958 . S
C655 H670 0.961 . S
C655 H671 0.960 . S
H656 C640 0.931 . S
H657 C645 0.929 . S
H658 C646 0.960 . S
H659 C646 0.962 . S
H660 C646 0.960 . S
H661 C647 0.961 . S
H662 C647 0.961 . S
H663 C647 0.961 . S
H664 C648 0.931 . S
H665 C653 0.930 . S
H666 C654 0.956 . S
H667 C654 0.961 . S
H668 C654 0.961 . S
H669 C655 0.958 . S
H670 C655 0.961 . S
H671 C655 0.960 . S
C672 C673 1.391 . S
C672 C674 1.394 . S
C672 H688 0.931 . S
C673 C672 1.391 . S
C673 C677 1.376 . S
C674 C672 1.394 . S
C674 C675 1.369 . S
C674 C678 1.531 . S
C675 C674 1.369 . S
C675 C676 1.410 . S
C675 C683 1.503 . S
C676 C675 1.410 . S
C676 C677 1.392 . S
C676 C679 1.511 . S
C677 C673 1.376 . S
C677 C676 1.392 . S
C677 H689 0.929 . S
C678 C674 1.531 . S
C678 H690 0.960 . S
C678 H691 0.962 . S
C678 H692 0.960 . S
C679 C676 1.511 . S
C679 H693 0.961 . S
C679 H694 0.961 . S
C679 H695 0.961 . S
C680 C681 1.370 . S
C680 C682 1.363 . S
C680 H696 0.931 . S
C681 C680 1.370 . S
C681 C685 1.408 . S
C682 C680 1.363 . S
C682 C683 1.370 . S
C682 C686 1.524 . S
C683 C675 1.503 . S
C683 C682 1.370 . S
C683 C684 1.403 . S
C684 C683 1.403 . S
C684 C685 1.404 . S
C684 C687 1.539 . S
C685 C681 1.408 . S
C685 C684 1.404 . S
C685 H697 0.930 1_556 S
C686 C682 1.524 . S
C686 H698 0.956 . S
C686 H699 0.961 . S
C686 H700 0.961 . S
C687 C684 1.539 . S
C687 H701 0.958 1_556 S
C687 H702 0.961 1_556 S
C687 H703 0.960 . S
H688 C672 0.931 . S
H689 C677 0.929 . S
H690 C678 0.960 . S
H691 C678 0.962 . S
H692 C678 0.960 . S
H693 C679 0.961 . S
H694 C679 0.961 . S
H695 C679 0.961 . S
H696 C680 0.931 . S
H697 C685 0.930 1_554 S
H698 C686 0.956 . S
H699 C686 0.961 . S
H700 C686 0.961 . S
H701 C687 0.958 1_554 S
H702 C687 0.961 1_554 S
H703 C687 0.960 . S
C704 C705 1.391 . S
C704 C706 1.394 . S
C704 H720 0.931 . S
C705 C704 1.391 . S
C705 C709 1.376 . S
C706 C704 1.394 . S
C706 C707 1.369 . S
C706 C710 1.531 . S
C707 C706 1.369 . S
C707 C708 1.410 . S
C707 C715 1.503 . S
C708 C707 1.410 . S
C708 C709 1.392 . S
C708 C711 1.511 . S
C709 C705 1.376 . S
C709 C708 1.392 . S
C709 H721 0.929 . S
C710 C706 1.531 . S
C710 H722 0.960 . S
C710 H723 0.962 . S
C710 H724 0.960 . S
C711 C708 1.511 . S
C711 H725 0.961 . S
C711 H726 0.961 . S
C711 H727 0.961 . S
C712 C713 1.370 . S
C712 C714 1.363 . S
C712 H728 0.931 . S
C713 C712 1.370 . S
C713 C717 1.408 . S
C714 C712 1.363 . S
C714 C715 1.370 . S
C714 C718 1.524 . S
C715 C707 1.503 . S
C715 C714 1.370 . S
C715 C716 1.403 . S
C716 C715 1.403 . S
C716 C717 1.404 . S
C716 C719 1.539 . S
C717 C713 1.408 . S
C717 C716 1.404 . S
C717 H729 0.930 1_556 S
C718 C714 1.524 . S
C718 H730 0.956 . S
C718 H731 0.961 . S
C718 H732 0.961 . S
C719 C716 1.539 . S
C719 H733 0.958 . S
C719 H734 0.961 1_556 S
C719 H735 0.960 . S
H720 C704 0.931 . S
H721 C709 0.929 . S
H722 C710 0.960 . S
H723 C710 0.962 . S
H724 C710 0.960 . S
H725 C711 0.961 . S
H726 C711 0.961 . S
H727 C711 0.961 . S
H728 C712 0.931 . S
H729 C717 0.930 1_554 S
H730 C718 0.956 . S
H731 C718 0.961 . S
H732 C718 0.961 . S
H733 C719 0.958 . S
H734 C719 0.961 1_554 S
H735 C719 0.960 . S
C736 C737 1.391 . S
C736 C738 1.394 . S
C736 H752 0.931 . S
C737 C736 1.391 . S
C737 C741 1.376 . S
C738 C736 1.394 . S
C738 C739 1.369 . S
C738 C742 1.531 . S
C739 C738 1.369 . S
C739 C740 1.410 . S
C739 C747 1.503 . S
C740 C739 1.410 . S
C740 C741 1.392 . S
C740 C743 1.511 . S
C741 C737 1.376 . S
C741 C740 1.392 . S
C741 H753 0.929 1_556 S
C742 C738 1.531 . S
C742 H754 0.960 . S
C742 H755 0.962 . S
C742 H756 0.960 . S
C743 C740 1.511 . S
C743 H757 0.961 1_556 S
C743 H758 0.961 . S
C743 H759 0.961 . S
C744 C745 1.370 . S
C744 C746 1.363 . S
C744 H760 0.931 . S
C745 C744 1.370 . S
C745 C749 1.408 . S
C746 C744 1.363 . S
C746 C747 1.370 . S
C746 C750 1.524 . S
C747 C739 1.503 . S
C747 C746 1.370 . S
C747 C748 1.403 . S
C748 C747 1.403 . S
C748 C749 1.404 . S
C748 C751 1.539 . S
C749 C745 1.408 . S
C749 C748 1.404 . S
C749 H761 0.930 . S
C750 C746 1.524 . S
C750 H762 0.956 . S
C750 H763 0.961 . S
C750 H764 0.961 . S
C751 C748 1.539 . S
C751 H765 0.958 . S
C751 H766 0.961 . S
C751 H767 0.960 . S
H752 C736 0.931 . S
H753 C741 0.929 1_554 S
H754 C742 0.960 . S
H755 C742 0.962 . S
H756 C742 0.960 . S
H757 C743 0.961 1_554 S
H758 C743 0.961 . S
H759 C743 0.961 . S
H760 C744 0.931 . S
H761 C749 0.930 . S
H762 C750 0.956 . S
H763 C750 0.961 . S
H764 C750 0.961 . S
H765 C751 0.958 . S
H766 C751 0.961 . S
H767 C751 0.960 . S
C768 C769 1.391 . S
C768 C770 1.394 . S
C768 H784 0.931 . S
C769 C768 1.391 . S
C769 C773 1.376 . S
C770 C768 1.394 . S
C770 C771 1.369 . S
C770 C774 1.531 . S
C771 C770 1.369 . S
C771 C772 1.410 . S
C771 C779 1.503 . S
C772 C771 1.410 . S
C772 C773 1.392 . S
C772 C775 1.511 . S
C773 C769 1.376 . S
C773 C772 1.392 . S
C773 H785 0.929 . S
C774 C770 1.531 . S
C774 H786 0.960 . S
C774 H787 0.962 . S
C774 H788 0.960 . S
C775 C772 1.511 . S
C775 H789 0.961 . S
C775 H790 0.961 . S
C775 H791 0.961 . S
C776 C777 1.370 . S
C776 C778 1.363 . S
C776 H792 0.931 . S
C777 C776 1.370 . S
C777 C781 1.408 . S
C778 C776 1.363 . S
C778 C779 1.370 . S
C778 C782 1.524 . S
C779 C771 1.503 . S
C779 C778 1.370 . S
C779 C780 1.403 . S
C780 C779 1.403 . S
C780 C781 1.404 . S
C780 C783 1.539 . S
C781 C777 1.408 . S
C781 C780 1.404 . S
C781 H793 0.930 . S
C782 C778 1.524 . S
C782 H794 0.956 . S
C782 H795 0.961 . S
C782 H796 0.961 . S
C783 C780 1.539 . S
C783 H797 0.958 . S
C783 H798 0.961 . S
C783 H799 0.960 . S
H784 C768 0.931 . S
H785 C773 0.929 . S
H786 C774 0.960 . S
H787 C774 0.962 . S
H788 C774 0.960 . S
H789 C775 0.961 . S
H790 C775 0.961 . S
H791 C775 0.961 . S
H792 C776 0.931 . S
H793 C781 0.930 . S
H794 C782 0.956 . S
H795 C782 0.961 . S
H796 C782 0.961 . S
H797 C783 0.958 . S
H798 C783 0.961 . S
H799 C783 0.960 . S
C800 C801 1.391 . S
C800 C802 1.394 . S
C800 H816 0.931 . S
C801 C800 1.391 . S
C801 C805 1.376 . S
C802 C800 1.394 . S
C802 C803 1.369 . S
C802 C806 1.531 . S
C803 C802 1.369 . S
C803 C804 1.410 . S
C803 C811 1.503 . S
C804 C803 1.410 . S
C804 C805 1.392 . S
C804 C807 1.511 . S
C805 C801 1.376 . S
C805 C804 1.392 . S
C805 H817 0.929 . S
C806 C802 1.531 . S
C806 H818 0.960 . S
C806 H819 0.962 . S
C806 H820 0.960 . S
C807 C804 1.511 . S
C807 H821 0.961 . S
C807 H822 0.961 . S
C807 H823 0.961 . S
C808 C809 1.370 . S
C808 C810 1.363 . S
C808 H824 0.931 . S
C809 C808 1.370 . S
C809 C813 1.408 . S
C810 C808 1.363 . S
C810 C811 1.370 . S
C810 C814 1.524 . S
C811 C803 1.503 . S
C811 C810 1.370 . S
C811 C812 1.403 . S
C812 C811 1.403 . S
C812 C813 1.404 . S
C812 C815 1.539 . S
C813 C809 1.408 . S
C813 C812 1.404 . S
C813 H825 0.930 . S
C814 C810 1.524 . S
C814 H826 0.956 . S
C814 H827 0.961 . S
C814 H828 0.961 . S
C815 C812 1.539 . S
C815 H829 0.958 . S
C815 H830 0.961 . S
C815 H831 0.960 . S
H816 C800 0.931 . S
H817 C805 0.929 . S
H818 C806 0.960 . S
H819 C806 0.962 . S
H820 C806 0.960 . S
H821 C807 0.961 . S
H822 C807 0.961 . S
H823 C807 0.961 . S
H824 C808 0.931 . S
H825 C813 0.930 . S
H826 C814 0.956 . S
H827 C814 0.961 . S
H828 C814 0.961 . S
H829 C815 0.958 . S
H830 C815 0.961 . S
H831 C815 0.960 . S
C832 C833 1.391 . S
C832 C834 1.394 . S
C832 H848 0.931 . S
C833 C832 1.391 . S
C833 C837 1.376 . S
C834 C832 1.394 . S
C834 C835 1.369 . S
C834 C838 1.531 . S
C835 C834 1.369 . S
C835 C836 1.410 . S
C835 C843 1.503 . S
C836 C835 1.410 . S
C836 C837 1.392 . S
C836 C839 1.511 . S
C837 C833 1.376 . S
C837 C836 1.392 . S
C837 H849 0.929 . S
C838 C834 1.531 . S
C838 H850 0.960 . S
C838 H851 0.962 . S
C838 H852 0.960 . S
C839 C836 1.511 . S
C839 H853 0.961 . S
C839 H854 0.961 . S
C839 H855 0.961 . S
C840 C841 1.370 . S
C840 C842 1.363 . S
C840 H856 0.931 . S
C841 C840 1.370 . S
C841 C845 1.408 . S
C842 C840 1.363 . S
C842 C843 1.370 . S
C842 C846 1.524 . S
C843 C835 1.503 . S
C843 C842 1.370 . S
C843 C844 1.403 . S
C844 C843 1.403 . S
C844 C845 1.404 . S
C844 C847 1.539 . S
C845 C841 1.408 . S
C845 C844 1.404 . S
C845 H857 0.930 . S
C846 C842 1.524 . S
C846 H858 0.956 . S
C846 H859 0.961 . S
C846 H860 0.961 . S
C847 C844 1.539 . S
C847 H861 0.958 . S
C847 H862 0.961 . S
C847 H863 0.960 . S
H848 C832 0.931 . S
H849 C837 0.929 . S
H850 C838 0.960 . S
H851 C838 0.962 . S
H852 C838 0.960 . S
H853 C839 0.961 . S
H854 C839 0.961 . S
H855 C839 0.961 . S
H856 C840 0.931 . S
H857 C845 0.930 . S
H858 C846 0.956 . S
H859 C846 0.961 . S
H860 C846 0.961 . S
H861 C847 0.958 . S
H862 C847 0.961 . S
H863 C847 0.960 . S
C864 C865 1.391 . S
C864 C866 1.394 . S
C864 H880 0.931 . S
C865 C864 1.391 . S
C865 C869 1.376 . S
C866 C864 1.394 . S
C866 C867 1.369 . S
C866 C870 1.531 . S
C867 C866 1.369 . S
C867 C868 1.410 . S
C867 C875 1.503 . S
C868 C867 1.410 . S
C868 C869 1.392 . S
C868 C871 1.511 1_554 S
C869 C865 1.376 . S
C869 C868 1.392 . S
C869 H881 0.929 1_544 S
C870 C866 1.531 . S
C870 H882 0.960 . S
C870 H883 0.962 . S
C870 H884 0.960 . S
C871 C868 1.511 1_556 S
C871 H885 0.961 . S
C871 H886 0.955 1_556 S
C871 H887 0.961 . S
C872 C873 1.370 . S
C872 C874 1.363 . S
C872 H888 0.931 . S
C873 C872 1.370 . S
C873 C877 1.408 . S
C874 C872 1.363 . S
C874 C875 1.370 . S
C874 C878 1.524 . S
C875 C867 1.503 . S
C875 C874 1.370 . S
C875 C876 1.403 . S
C876 C875 1.403 . S
C876 C877 1.404 . S
C876 C879 1.539 1_554 S
C877 C873 1.408 . S
C877 C876 1.404 . S
C877 H889 0.930 1_554 S
C878 C874 1.524 . S
C878 H890 0.956 . S
C878 H891 0.961 . S
C878 H892 0.961 . S
C879 C876 1.539 1_556 S
C879 H893 0.958 . S
C879 H894 0.961 . S
C879 H895 0.960 . S
H880 C864 0.931 . S
H881 C869 0.929 1_566 S
H882 C870 0.960 . S
H883 C870 0.962 . S
H884 C870 0.960 . S
H885 C871 0.961 . S
H886 C871 0.955 1_554 S
H887 C871 0.961 . S
H888 C872 0.931 . S
H889 C877 0.930 1_556 S
H890 C878 0.956 . S
H891 C878 0.961 . S
H892 C878 0.961 . S
H893 C879 0.958 . S
H894 C879 0.961 . S
H895 C879 0.960 . S
C896 C897 1.391 . S
C896 C898 1.394 . S
C896 H912 0.931 . S
C897 C896 1.391 . S
C897 C901 1.376 . S
C898 C896 1.394 . S
C898 C899 1.369 . S
C898 C902 1.531 . S
C899 C898 1.369 . S
C899 C900 1.410 . S
C899 C907 1.503 . S
C900 C899 1.410 . S
C900 C901 1.392 . S
C900 C903 1.511 . S
C901 C897 1.376 . S
C901 C900 1.392 . S
C901 H913 0.929 1_655 S
C902 C898 1.531 . S
C902 H914 0.960 . S
C902 H915 0.962 . S
C902 H916 0.960 1_554 S
C903 C900 1.511 . S
C903 H917 0.961 . S
C903 H918 0.961 . S
C903 H919 0.961 . S
C904 C905 1.370 . S
C904 C906 1.363 1_565 S
C904 H920 0.931 . S
C905 C904 1.370 . S
C905 C909 1.408 . S
C906 C904 1.363 1_545 S
C906 C907 1.370 . S
C906 C910 1.524 . S
C907 C899 1.503 . S
C907 C906 1.370 . S
C907 C908 1.393 1_554 S
C908 C907 1.393 1_556 S
C908 C909 1.402 1_546 S
C908 C911 1.551 . S
C909 C905 1.408 . S
C909 C908 1.402 1_564 S
C909 H921 0.930 1_554 S
C910 C906 1.524 . S
C910 H922 0.956 . S
C910 H923 0.961 . S
C910 H924 0.961 . S
C911 C908 1.551 . S
C911 H925 0.958 . S
C911 H926 0.961 . S
C911 H927 0.960 . S
H912 C896 0.931 . S
H913 C901 0.929 1_455 S
H914 C902 0.960 . S
H915 C902 0.962 . S
H916 C902 0.960 1_556 S
H917 C903 0.961 . S
H918 C903 0.961 . S
H919 C903 0.961 . S
H920 C904 0.931 . S
H921 C909 0.930 1_556 S
H922 C910 0.956 . S
H923 C910 0.961 . S
H924 C910 0.961 . S
H925 C911 0.958 . S
H926 C911 0.961 . S
H927 C911 0.960 . S
C928 C929 1.391 1_556 S
C928 C930 1.394 . S
C928 H944 0.931 . S
C929 C928 1.391 1_554 S
C929 C933 1.376 . S
C930 C928 1.394 . S
C930 C931 1.369 1_556 S
C930 C934 1.531 . S
C931 C930 1.369 1_554 S
C931 C932 1.410 . S
C931 C939 1.503 . S
C932 C931 1.410 . S
C932 C933 1.392 . S
C932 C935 1.511 . S
C933 C929 1.376 . S
C933 C932 1.392 . S
C933 H945 0.929 . S
C934 C930 1.531 . S
C934 H946 0.960 . S
C934 H947 0.962 . S
C934 H948 0.960 . S
C935 C932 1.511 . S
C935 H949 0.961 . S
C935 H950 0.961 . S
C935 H951 0.961 . S
C936 C937 1.370 1_655 S
C936 C938 1.363 . S
C936 H952 0.931 . S
C937 C936 1.370 1_455 S
C937 C941 1.408 . S
C938 C936 1.363 . S
C938 C939 1.370 . S
C938 C942 1.524 . S
C939 C931 1.503 . S
C939 C938 1.370 . S
C939 C940 1.403 . S
C940 C939 1.403 . S
C940 C941 1.404 1_655 S
C940 C943 1.539 . S
C941 C937 1.408 . S
C941 C940 1.404 1_455 S
C941 H953 0.930 . S
C942 C938 1.524 . S
C942 H954 0.956 . S
C942 H955 0.961 . S
C942 H956 0.961 . S
C943 C940 1.539 . S
C943 H957 0.958 1_554 S
C943 H958 0.961 1_655 S
C943 H959 0.960 . S
H944 C928 0.931 . S
H945 C933 0.929 . S
H946 C934 0.960 . S
H947 C934 0.962 . S
H948 C934 0.960 . S
H949 C935 0.961 . S
H950 C935 0.961 . S
H951 C935 0.961 . S
H952 C936 0.931 . S
H953 C941 0.930 . S
H954 C942 0.956 . S
H955 C942 0.961 . S
H956 C942 0.961 . S
H957 C943 0.958 1_556 S
H958 C943 0.961 1_455 S
H959 C943 0.960 . S
C960 C961 1.391 . S
C960 C962 1.394 . S
C960 H976 0.931 . S
C961 C960 1.391 . S
C961 C965 1.376 . S
C962 C960 1.394 . S
C962 C963 1.369 . S
C962 C966 1.531 . S
C963 C962 1.369 . S
C963 C964 1.410 . S
C963 C971 1.503 . S
C964 C963 1.410 . S
C964 C965 1.392 . S
C964 C967 1.511 . S
C965 C961 1.376 . S
C965 C964 1.392 . S
C965 H977 0.929 . S
C966 C962 1.531 . S
C966 H978 0.960 . S
C966 H979 0.962 . S
C966 H980 0.960 . S
C967 C964 1.511 . S
C967 H981 0.961 . S
C967 H982 0.961 . S
C967 H983 0.961 . S
C968 C969 1.370 . S
C968 C970 1.363 . S
C968 H984 0.931 . S
C969 C968 1.370 . S
C969 C973 1.408 . S
C970 C968 1.363 . S
C970 C971 1.370 . S
C970 C974 1.524 . S
C971 C963 1.503 . S
C971 C970 1.370 . S
C971 C972 1.403 . S
C972 C971 1.403 . S
C972 C973 1.404 . S
C972 C975 1.539 . S
C973 C969 1.408 . S
C973 C972 1.404 . S
C973 H985 0.930 . S
C974 C970 1.524 . S
C974 H986 0.956 . S
C974 H987 0.961 . S
C974 H988 0.961 . S
C975 C972 1.539 . S
C975 H989 0.958 . S
C975 H990 0.961 . S
C975 H991 0.960 . S
H976 C960 0.931 . S
H977 C965 0.929 . S
H978 C966 0.960 . S
H979 C966 0.962 . S
H980 C966 0.960 . S
H981 C967 0.961 . S
H982 C967 0.961 . S
H983 C967 0.961 . S
H984 C968 0.931 . S
H985 C973 0.930 . S
H986 C974 0.956 . S
H987 C974 0.961 . S
H988 C974 0.961 . S
H989 C975 0.958 . S
H990 C975 0.961 . S
H991 C975 0.960 . S
C992 C993 1.391 . S
C992 C994 1.394 . S
C992 H1008 0.931 . S
C993 C992 1.391 . S
C993 C997 1.376 . S
C994 C992 1.394 . S
C994 C995 1.369 . S
C994 C998 1.531 . S
C995 C994 1.369 . S
C995 C996 1.410 . S
C995 C1003 1.503 . S
C996 C995 1.410 . S
C996 C997 1.392 . S
C996 C999 1.511 . S
C997 C993 1.376 . S
C997 C996 1.392 . S
C997 H1009 0.929 . S
C998 C994 1.531 . S
C998 H1010 0.960 . S
C998 H1011 0.962 . S
C998 H1012 0.960 . S
C999 C996 1.511 . S
C999 H1013 0.961 . S
C999 H1014 0.961 . S
C999 H1015 0.961 . S
C1000 C1001 1.370 . S
C1000 C1002 1.363 . S
C1000 H1016 0.931 . S
C1001 C1000 1.370 . S
C1001 C1005 1.408 . S
C1002 C1000 1.363 . S
C1002 C1003 1.370 . S
C1002 C1006 1.524 . S
C1003 C995 1.503 . S
C1003 C1002 1.370 . S
C1003 C1004 1.403 . S
C1004 C1003 1.403 . S
C1004 C1005 1.404 . S
C1004 C1007 1.539 . S
C1005 C1001 1.408 . S
C1005 C1004 1.404 . S
C1005 H1017 0.930 . S
C1006 C1002 1.524 . S
C1006 H1018 0.956 . S
C1006 H1019 0.961 . S
C1006 H1020 0.961 . S
C1007 C1004 1.539 . S
C1007 H1021 0.958 . S
C1007 H1022 0.961 . S
C1007 H1023 0.960 . S
H1008 C992 0.931 . S
H1009 C997 0.929 . S
H1010 C998 0.960 . S
H1011 C998 0.962 . S
H1012 C998 0.960 . S
H1013 C999 0.961 . S
H1014 C999 0.961 . S
H1015 C999 0.961 . S
H1016 C1000 0.931 . S
H1017 C1005 0.930 . S
H1018 C1006 0.956 . S
H1019 C1006 0.961 . S
H1020 C1006 0.961 . S
H1021 C1007 0.958 . S
H1022 C1007 0.961 . S
H1023 C1007 0.960 . S
C1024 C1025 1.391 . S
C1024 C1026 1.394 . S
C1024 H1040 0.931 . S
C1025 C1024 1.391 . S
C1025 C1029 1.376 . S
C1026 C1024 1.394 . S
C1026 C1027 1.369 . S
C1026 C1030 1.531 . S
C1027 C1026 1.369 . S
C1027 C1028 1.410 . S
C1027 C1035 1.503 . S
C1028 C1027 1.410 . S
C1028 C1029 1.392 . S
C1028 C1031 1.511 . S
C1029 C1025 1.376 . S
C1029 C1028 1.392 . S
C1029 H1041 0.929 . S
C1030 C1026 1.531 . S
C1030 H1042 0.960 . S
C1030 H1043 0.962 . S
C1030 H1044 0.960 . S
C1031 C1028 1.511 . S
C1031 H1045 0.961 . S
C1031 H1046 0.961 . S
C1031 H1047 0.961 . S
C1032 C1033 1.370 . S
C1032 C1034 1.363 . S
C1032 H1048 0.931 . S
C1033 C1032 1.370 . S
C1033 C1037 1.408 . S
C1034 C1032 1.363 . S
C1034 C1035 1.370 . S
C1034 C1038 1.524 . S
C1035 C1027 1.503 . S
C1035 C1034 1.370 . S
C1035 C1036 1.403 . S
C1036 C1035 1.403 . S
C1036 C1037 1.404 . S
C1036 C1039 1.539 . S
C1037 C1033 1.408 . S
C1037 C1036 1.404 . S
C1037 H1049 0.930 . S
C1038 C1034 1.524 . S
C1038 H1050 0.956 . S
C1038 H1051 0.961 . S
C1038 H1052 0.961 . S
C1039 C1036 1.539 . S
C1039 H1053 0.958 . S
C1039 H1054 0.961 . S
C1039 H1055 0.960 . S
H1040 C1024 0.931 . S
H1041 C1029 0.929 . S
H1042 C1030 0.960 . S
H1043 C1030 0.962 . S
H1044 C1030 0.960 . S
H1045 C1031 0.961 . S
H1046 C1031 0.961 . S
H1047 C1031 0.961 . S
H1048 C1032 0.931 . S
H1049 C1037 0.930 . S
H1050 C1038 0.956 . S
H1051 C1038 0.961 . S
H1052 C1038 0.961 . S
H1053 C1039 0.958 . S
H1054 C1039 0.961 . S
H1055 C1039 0.960 . S
C1056 C1057 1.391 . S
C1056 C1058 1.394 . S
C1056 H1072 0.931 . S
C1057 C1056 1.391 . S
C1057 C1061 1.376 . S
C1058 C1056 1.394 . S
C1058 C1059 1.369 . S
C1058 C1062 1.531 . S
C1059 C1058 1.369 . S
C1059 C1060 1.410 . S
C1059 C1067 1.503 . S
C1060 C1059 1.410 . S
C1060 C1061 1.392 . S
C1060 C1063 1.511 . S
C1061 C1057 1.376 . S
C1061 C1060 1.392 . S
C1061 H1073 0.929 . S
C1062 C1058 1.531 . S
C1062 H1074 0.960 . S
C1062 H1075 0.962 . S
C1062 H1076 0.960 . S
C1063 C1060 1.511 . S
C1063 H1077 0.961 . S
C1063 H1078 0.961 . S
C1063 H1079 0.961 . S
C1064 C1065 1.370 . S
C1064 C1066 1.363 . S
C1064 H1080 0.931 . S
C1065 C1064 1.370 . S
C1065 C1069 1.408 . S
C1066 C1064 1.363 . S
C1066 C1067 1.370 . S
C1066 C1070 1.524 . S
C1067 C1059 1.503 . S
C1067 C1066 1.370 . S
C1067 C1068 1.403 . S
C1068 C1067 1.403 . S
C1068 C1069 1.404 . S
C1068 C1071 1.539 . S
C1069 C1065 1.408 . S
C1069 C1068 1.404 . S
C1069 H1081 0.930 . S
C1070 C1066 1.524 . S
C1070 H1082 0.956 . S
C1070 H1083 0.961 . S
C1070 H1084 0.961 . S
C1071 C1068 1.539 . S
C1071 H1085 0.958 . S
C1071 H1086 0.961 . S
C1071 H1087 0.960 . S
H1072 C1056 0.931 . S
H1073 C1061 0.929 . S
H1074 C1062 0.960 . S
H1075 C1062 0.962 . S
H1076 C1062 0.960 . S
H1077 C1063 0.961 . S
H1078 C1063 0.961 . S
H1079 C1063 0.961 . S
H1080 C1064 0.931 . S
H1081 C1069 0.930 . S
H1082 C1070 0.956 . S
H1083 C1070 0.961 . S
H1084 C1070 0.961 . S
H1085 C1071 0.958 . S
H1086 C1071 0.961 . S
H1087 C1071 0.960 . S
C1088 C1089 1.391 . S
C1088 C1090 1.394 . S
C1088 H1104 0.931 . S
C1089 C1088 1.391 . S
C1089 C1093 1.376 . S
C1090 C1088 1.394 . S
C1090 C1091 1.369 . S
C1090 C1094 1.531 . S
C1091 C1090 1.369 . S
C1091 C1092 1.410 . S
C1091 C1099 1.503 . S
C1092 C1091 1.410 . S
C1092 C1093 1.392 . S
C1092 C1095 1.511 . S
C1093 C1089 1.376 . S
C1093 C1092 1.392 . S
C1093 H1105 0.929 . S
C1094 C1090 1.531 . S
C1094 H1106 0.960 . S
C1094 H1107 0.962 . S
C1094 H1108 0.960 . S
C1095 C1092 1.511 . S
C1095 H1109 0.961 . S
C1095 H1110 0.961 . S
C1095 H1111 0.961 . S
C1096 C1097 1.370 . S
C1096 C1098 1.363 . S
C1096 H1112 0.931 . S
C1097 C1096 1.370 . S
C1097 C1101 1.408 . S
C1098 C1096 1.363 . S
C1098 C1099 1.370 . S
C1098 C1102 1.524 . S
C1099 C1091 1.503 . S
C1099 C1098 1.370 . S
C1099 C1100 1.403 . S
C1100 C1099 1.403 . S
C1100 C1101 1.404 . S
C1100 C1103 1.539 . S
C1101 C1097 1.408 . S
C1101 C1100 1.404 . S
C1101 H1113 0.930 . S
C1102 C1098 1.524 . S
C1102 H1114 0.956 . S
C1102 H1115 0.961 . S
C1102 H1116 0.961 . S
C1103 C1100 1.539 . S
C1103 H1117 0.958 . S
C1103 H1118 0.961 . S
C1103 H1119 0.960 . S
H1104 C1088 0.931 . S
H1105 C1093 0.929 . S
H1106 C1094 0.960 . S
H1107 C1094 0.962 . S
H1108 C1094 0.960 . S
H1109 C1095 0.961 . S
H1110 C1095 0.961 . S
H1111 C1095 0.961 . S
H1112 C1096 0.931 . S
H1113 C1101 0.930 . S
H1114 C1102 0.956 . S
H1115 C1102 0.961 . S
H1116 C1102 0.961 . S
H1117 C1103 0.958 . S
H1118 C1103 0.961 . S
H1119 C1103 0.960 . S
C1120 C1121 1.391 . S
C1120 C1122 1.394 . S
C1120 H1136 0.931 . S
C1121 C1120 1.391 . S
C1121 C1125 1.376 . S
C1122 C1120 1.394 . S
C1122 C1123 1.369 . S
C1122 C1126 1.531 . S
C1123 C1122 1.369 . S
C1123 C1124 1.410 . S
C1123 C1131 1.503 . S
C1124 C1123 1.410 . S
C1124 C1125 1.392 . S
C1124 C1127 1.511 . S
C1125 C1121 1.376 . S
C1125 C1124 1.392 . S
C1125 H1137 0.929 . S
C1126 C1122 1.531 . S
C1126 H1138 0.960 . S
C1126 H1139 0.962 . S
C1126 H1140 0.960 . S
C1127 C1124 1.511 . S
C1127 H1141 0.961 . S
C1127 H1142 0.961 . S
C1127 H1143 0.961 . S
C1128 C1129 1.370 . S
C1128 C1130 1.363 . S
C1128 H1144 0.931 . S
C1129 C1128 1.370 . S
C1129 C1133 1.408 . S
C1130 C1128 1.363 . S
C1130 C1131 1.370 . S
C1130 C1134 1.524 . S
C1131 C1123 1.503 . S
C1131 C1130 1.370 . S
C1131 C1132 1.403 . S
C1132 C1131 1.403 . S
C1132 C1133 1.404 . S
C1132 C1135 1.539 . S
C1133 C1129 1.408 . S
C1133 C1132 1.404 . S
C1133 H1145 0.930 . S
C1134 C1130 1.524 . S
C1134 H1146 0.956 . S
C1134 H1147 0.961 . S
C1134 H1148 0.961 . S
C1135 C1132 1.539 . S
C1135 H1149 0.958 . S
C1135 H1150 0.961 . S
C1135 H1151 0.960 . S
H1136 C1120 0.931 . S
H1137 C1125 0.929 . S
H1138 C1126 0.960 . S
H1139 C1126 0.962 . S
H1140 C1126 0.960 . S
H1141 C1127 0.961 . S
H1142 C1127 0.961 . S
H1143 C1127 0.961 . S
H1144 C1128 0.931 . S
H1145 C1133 0.930 . S
H1146 C1134 0.956 . S
H1147 C1134 0.961 . S
H1148 C1134 0.961 . S
H1149 C1135 0.958 . S
H1150 C1135 0.961 . S
H1151 C1135 0.960 . S
C1152 C1153 1.391 . S
C1152 C1154 1.394 . S
C1152 H1168 0.931 . S
C1153 C1152 1.391 . S
C1153 C1157 1.376 . S
C1154 C1152 1.394 . S
C1154 C1155 1.369 . S
C1154 C1158 1.531 . S
C1155 C1154 1.369 . S
C1155 C1156 1.410 . S
C1155 C1163 1.503 . S
C1156 C1155 1.410 . S
C1156 C1157 1.392 . S
C1156 C1159 1.511 . S
C1157 C1153 1.376 . S
C1157 C1156 1.392 . S
C1157 H1169 0.929 . S
C1158 C1154 1.531 . S
C1158 H1170 0.960 . S
C1158 H1171 0.962 . S
C1158 H1172 0.960 . S
C1159 C1156 1.511 . S
C1159 H1173 0.961 . S
C1159 H1174 0.961 . S
C1159 H1175 0.961 . S
C1160 C1161 1.370 . S
C1160 C1162 1.363 . S
C1160 H1176 0.931 . S
C1161 C1160 1.370 . S
C1161 C1165 1.408 . S
C1162 C1160 1.363 . S
C1162 C1163 1.370 . S
C1162 C1166 1.524 . S
C1163 C1155 1.503 . S
C1163 C1162 1.370 . S
C1163 C1164 1.403 . S
C1164 C1163 1.403 . S
C1164 C1165 1.404 . S
C1164 C1167 1.539 . S
C1165 C1161 1.408 . S
C1165 C1164 1.404 . S
C1165 H1177 0.930 . S
C1166 C1162 1.524 . S
C1166 H1178 0.956 . S
C1166 H1179 0.961 . S
C1166 H1180 0.961 . S
C1167 C1164 1.539 . S
C1167 H1181 0.958 . S
C1167 H1182 0.961 . S
C1167 H1183 0.960 . S
H1168 C1152 0.931 . S
H1169 C1157 0.929 . S
H1170 C1158 0.960 . S
H1171 C1158 0.962 . S
H1172 C1158 0.960 . S
H1173 C1159 0.961 . S
H1174 C1159 0.961 . S
H1175 C1159 0.961 . S
H1176 C1160 0.931 . S
H1177 C1165 0.930 . S
H1178 C1166 0.956 . S
H1179 C1166 0.961 . S
H1180 C1166 0.961 . S
H1181 C1167 0.958 . S
H1182 C1167 0.961 . S
H1183 C1167 0.960 . S
C1184 C1185 1.391 . S
C1184 C1186 1.394 . S
C1184 H1200 0.931 . S
C1185 C1184 1.391 . S
C1185 C1189 1.376 . S
C1186 C1184 1.394 . S
C1186 C1187 1.369 . S
C1186 C1190 1.531 . S
C1187 C1186 1.369 . S
C1187 C1188 1.410 . S
C1187 C1195 1.503 . S
C1188 C1187 1.410 . S
C1188 C1189 1.392 . S
C1188 C1191 1.511 . S
C1189 C1185 1.376 . S
C1189 C1188 1.392 . S
C1189 H1201 0.929 . S
C1190 C1186 1.531 . S
C1190 H1202 0.960 . S
C1190 H1203 0.962 . S
C1190 H1204 0.960 . S
C1191 C1188 1.511 . S
C1191 H1205 0.961 . S
C1191 H1206 0.961 . S
C1191 H1207 0.961 . S
C1192 C1193 1.370 . S
C1192 C1194 1.363 . S
C1192 H1208 0.931 . S
C1193 C1192 1.370 . S
C1193 C1197 1.408 . S
C1194 C1192 1.363 . S
C1194 C1195 1.370 . S
C1194 C1198 1.524 . S
C1195 C1187 1.503 . S
C1195 C1194 1.370 . S
C1195 C1196 1.403 . S
C1196 C1195 1.403 . S
C1196 C1197 1.404 . S
C1196 C1199 1.539 . S
C1197 C1193 1.408 . S
C1197 C1196 1.404 . S
C1197 H1209 0.930 . S
C1198 C1194 1.524 . S
C1198 H1210 0.956 . S
C1198 H1211 0.961 . S
C1198 H1212 0.961 . S
C1199 C1196 1.539 . S
C1199 H1213 0.958 . S
C1199 H1214 0.961 . S
C1199 H1215 0.960 . S
H1200 C1184 0.931 . S
H1201 C1189 0.929 . S
H1202 C1190 0.960 . S
H1203 C1190 0.962 . S
H1204 C1190 0.960 . S
H1205 C1191 0.961 . S
H1206 C1191 0.961 . S
H1207 C1191 0.961 . S
H1208 C1192 0.931 . S
H1209 C1197 0.930 . S
H1210 C1198 0.956 . S
H1211 C1198 0.961 . S
H1212 C1198 0.961 . S
H1213 C1199 0.958 . S
H1214 C1199 0.961 . S
H1215 C1199 0.960 . S
C1216 C1217 1.391 . S
C1216 C1218 1.394 . S
C1216 H1232 0.931 . S
C1217 C1216 1.391 . S
C1217 C1221 1.376 . S
C1218 C1216 1.394 . S
C1218 C1219 1.369 . S
C1218 C1222 1.531 . S
C1219 C1218 1.369 . S
C1219 C1220 1.410 . S
C1219 C1227 1.503 . S
C1220 C1219 1.410 . S
C1220 C1221 1.392 . S
C1220 C1223 1.511 . S
C1221 C1217 1.376 . S
C1221 C1220 1.392 . S
C1221 H1233 0.929 . S
C1222 C1218 1.531 . S
C1222 H1234 0.960 . S
C1222 H1235 0.962 . S
C1222 H1236 0.960 . S
C1223 C1220 1.511 . S
C1223 H1237 0.961 . S
C1223 H1238 0.961 . S
C1223 H1239 0.961 . S
C1224 C1225 1.370 . S
C1224 C1226 1.363 . S
C1224 H1240 0.931 . S
C1225 C1224 1.370 . S
C1225 C1229 1.408 . S
C1226 C1224 1.363 . S
C1226 C1227 1.370 . S
C1226 C1230 1.524 . S
C1227 C1219 1.503 . S
C1227 C1226 1.370 . S
C1227 C1228 1.403 . S
C1228 C1227 1.403 . S
C1228 C1229 1.404 . S
C1228 C1231 1.539 . S
C1229 C1225 1.408 . S
C1229 C1228 1.404 . S
C1229 H1241 0.930 . S
C1230 C1226 1.524 . S
C1230 H1242 0.956 . S
C1230 H1243 0.961 . S
C1230 H1244 0.961 . S
C1231 C1228 1.539 . S
C1231 H1245 0.958 . S
C1231 H1246 0.961 . S
C1231 H1247 0.960 . S
H1232 C1216 0.931 . S
H1233 C1221 0.929 . S
H1234 C1222 0.960 . S
H1235 C1222 0.962 . S
H1236 C1222 0.960 . S
H1237 C1223 0.961 . S
H1238 C1223 0.961 . S
H1239 C1223 0.961 . S
H1240 C1224 0.931 . S
H1241 C1229 0.930 . S
H1242 C1230 0.956 . S
H1243 C1230 0.961 . S
H1244 C1230 0.961 . S
H1245 C1231 0.958 . S
H1246 C1231 0.961 . S
H1247 C1231 0.960 . S
C1248 C1249 1.391 . S
C1248 C1250 1.394 . S
C1248 H1264 0.931 . S
C1249 C1248 1.391 . S
C1249 C1253 1.376 . S
C1250 C1248 1.394 . S
C1250 C1251 1.369 . S
C1250 C1254 1.531 . S
C1251 C1250 1.369 . S
C1251 C1252 1.410 . S
C1251 C1259 1.503 . S
C1252 C1251 1.410 . S
C1252 C1253 1.392 . S
C1252 C1255 1.511 . S
C1253 C1249 1.376 . S
C1253 C1252 1.392 . S
C1253 H1265 0.929 . S
C1254 C1250 1.531 . S
C1254 H1266 0.960 . S
C1254 H1267 0.962 . S
C1254 H1268 0.960 . S
C1255 C1252 1.511 . S
C1255 H1269 0.961 . S
C1255 H1270 0.961 . S
C1255 H1271 0.961 . S
C1256 C1257 1.370 1_556 S
C1256 C1258 1.363 . S
C1256 H1272 0.931 1_556 S
C1257 C1256 1.370 1_554 S
C1257 C1261 1.408 . S
C1258 C1256 1.363 . S
C1258 C1259 1.370 . S
C1258 C1262 1.524 . S
C1259 C1251 1.503 . S
C1259 C1258 1.370 . S
C1259 C1260 1.403 . S
C1260 C1259 1.403 . S
C1260 C1261 1.404 1_556 S
C1260 C1263 1.539 . S
C1261 C1257 1.408 . S
C1261 C1260 1.404 1_554 S
C1261 H1273 0.930 . S
C1262 C1258 1.524 . S
C1262 H1274 0.956 . S
C1262 H1275 0.961 . S
C1262 H1276 0.961 . S
C1263 C1260 1.539 . S
C1263 H1277 0.958 . S
C1263 H1278 0.961 . S
C1263 H1279 0.960 . S
H1264 C1248 0.931 . S
H1265 C1253 0.929 . S
H1266 C1254 0.960 . S
H1267 C1254 0.962 . S
H1268 C1254 0.960 . S
H1269 C1255 0.961 . S
H1270 C1255 0.961 . S
H1271 C1255 0.961 . S
H1272 C1256 0.931 1_554 S
H1273 C1261 0.930 . S
H1274 C1262 0.956 . S
H1275 C1262 0.961 . S
H1276 C1262 0.961 . S
H1277 C1263 0.958 . S
H1278 C1263 0.961 . S
H1279 C1263 0.960 . S
C1280 C1281 1.391 . S
C1280 C1282 1.394 1_554 S
C1280 H1296 0.931 . S
C1281 C1280 1.391 . S
C1281 C1285 1.376 . S
C1282 C1280 1.394 1_556 S
C1282 C1283 1.369 . S
C1282 C1286 1.531 . S
C1283 C1282 1.369 . S
C1283 C1284 1.410 . S
C1283 C1291 1.503 . S
C1284 C1283 1.410 . S
C1284 C1285 1.392 1_556 S
C1284 C1287 1.511 . S
C1285 C1281 1.376 . S
C1285 C1284 1.392 1_554 S
C1285 H1297 0.929 . S
C1286 C1282 1.531 . S
C1286 H1298 0.960 . S
C1286 H1299 0.962 . S
C1286 H1300 0.960 . S
C1287 C1284 1.511 . S
C1287 H1301 0.961 . S
C1287 H1302 0.961 . S
C1287 H1303 0.961 . S
C1288 C1289 1.370 . S
C1288 C1290 1.363 . S
C1288 H1304 0.931 . S
C1289 C1288 1.370 . S
C1289 C1293 1.408 . S
C1290 C1288 1.363 . S
C1290 C1291 1.370 . S
C1290 C1294 1.524 . S
C1291 C1283 1.503 . S
C1291 C1290 1.370 . S
C1291 C1292 1.403 . S
C1292 C1291 1.403 . S
C1292 C1293 1.404 . S
C1292 C1295 1.539 . S
C1293 C1289 1.408 . S
C1293 C1292 1.404 . S
C1293 H1305 0.930 . S
C1294 C1290 1.524 . S
C1294 H1306 0.956 . S
C1294 H1307 0.961 . S
C1294 H1308 0.961 . S
C1295 C1292 1.539 . S
C1295 H1309 0.958 . S
C1295 H1310 0.961 . S
C1295 H1311 0.960 . S
H1296 C1280 0.931 . S
H1297 C1285 0.929 . S
H1298 C1286 0.960 . S
H1299 C1286 0.962 . S
H1300 C1286 0.960 . S
H1301 C1287 0.961 . S
H1302 C1287 0.961 . S
H1303 C1287 0.961 . S
H1304 C1288 0.931 . S
H1305 C1293 0.930 . S
H1306 C1294 0.956 . S
H1307 C1294 0.961 . S
H1308 C1294 0.961 . S
H1309 C1295 0.958 . S
H1310 C1295 0.961 . S
H1311 C1295 0.960 . S
C1312 C1313 1.391 . S
C1312 C1314 1.394 . S
C1312 H1328 0.931 . S
C1313 C1312 1.391 . S
C1313 C1317 1.376 . S
C1314 C1312 1.394 . S
C1314 C1315 1.369 . S
C1314 C1318 1.531 . S
C1315 C1314 1.369 . S
C1315 C1316 1.410 . S
C1315 C1323 1.503 . S
C1316 C1315 1.410 . S
C1316 C1317 1.392 . S
C1316 C1319 1.511 . S
C1317 C1313 1.376 . S
C1317 C1316 1.392 . S
C1317 H1329 0.929 . S
C1318 C1314 1.531 . S
C1318 H1330 0.960 . S
C1318 H1331 0.962 . S
C1318 H1332 0.960 . S
C1319 C1316 1.511 . S
C1319 H1333 0.961 . S
C1319 H1334 0.961 . S
C1319 H1335 0.961 . S
C1320 C1321 1.370 . S
C1320 C1322 1.363 1_554 S
C1320 H1336 0.931 . S
C1321 C1320 1.370 . S
C1321 C1325 1.408 . S
C1322 C1320 1.363 1_556 S
C1322 C1323 1.370 . S
C1322 C1326 1.524 . S
C1323 C1315 1.503 . S
C1323 C1322 1.370 . S
C1323 C1324 1.403 . S
C1324 C1323 1.403 . S
C1324 C1325 1.404 1_556 S
C1324 C1327 1.539 . S
C1325 C1321 1.408 . S
C1325 C1324 1.404 1_554 S
C1325 H1337 0.930 . S
C1326 C1322 1.524 . S
C1326 H1338 0.956 . S
C1326 H1339 0.961 . S
C1326 H1340 0.961 . S
C1327 C1324 1.539 . S
C1327 H1341 0.958 . S
C1327 H1342 0.961 . S
C1327 H1343 0.960 . S
H1328 C1312 0.931 . S
H1329 C1317 0.929 . S
H1330 C1318 0.960 . S
H1331 C1318 0.962 . S
H1332 C1318 0.960 . S
H1333 C1319 0.961 . S
H1334 C1319 0.961 . S
H1335 C1319 0.961 . S
H1336 C1320 0.931 . S
H1337 C1325 0.930 . S
H1338 C1326 0.956 . S
H1339 C1326 0.961 . S
H1340 C1326 0.961 . S
H1341 C1327 0.958 . S
H1342 C1327 0.961 . S
H1343 C1327 0.960 . S
C1344 C1345 1.391 . S
C1344 C1346 1.394 . S
C1344 H1360 0.931 . S
C1345 C1344 1.391 . S
C1345 C1349 1.376 . S
C1346 C1344 1.394 . S
C1346 C1347 1.369 . S
C1346 C1350 1.531 . S
C1347 C1346 1.369 . S
C1347 C1348 1.410 . S
C1347 C1355 1.503 . S
C1348 C1347 1.410 . S
C1348 C1349 1.392 . S
C1348 C1351 1.511 . S
C1349 C1345 1.376 . S
C1349 C1348 1.392 . S
C1349 H1361 0.929 . S
C1350 C1346 1.531 . S
C1350 H1362 0.960 . S
C1350 H1363 0.962 . S
C1350 H1364 0.960 . S
C1351 C1348 1.511 . S
C1351 H1365 0.961 . S
C1351 H1366 0.961 . S
C1351 H1367 0.961 . S
C1352 C1353 1.370 . S
C1352 C1354 1.363 1_556 S
C1352 H1368 0.931 . S
C1353 C1352 1.370 . S
C1353 C1357 1.414 . S
C1354 C1352 1.363 1_554 S
C1354 C1355 1.370 . S
C1354 C1358 1.524 . S
C1355 C1347 1.503 . S
C1355 C1354 1.370 . S
C1355 C1356 1.403 . S
C1356 C1355 1.403 . S
C1356 C1357 1.393 1_554 S
C1356 C1359 1.539 . S
C1357 C1353 1.414 . S
C1357 C1356 1.393 1_556 S
C1357 H1369 0.934 . S
C1358 C1354 1.524 . S
C1358 H1370 0.956 . S
C1358 H1371 0.961 . S
C1358 H1372 0.961 . S
C1359 C1356 1.539 . S
C1359 H1373 0.958 . S
C1359 H1374 0.961 . S
C1359 H1375 0.960 . S
H1360 C1344 0.931 . S
H1361 C1349 0.929 . S
H1362 C1350 0.960 . S
H1363 C1350 0.962 . S
H1364 C1350 0.960 . S
H1365 C1351 0.961 . S
H1366 C1351 0.961 . S
H1367 C1351 0.961 . S
H1368 C1352 0.931 . S
H1369 C1357 0.934 . S
H1370 C1358 0.956 . S
H1371 C1358 0.961 . S
H1372 C1358 0.961 . S
H1373 C1359 0.958 . S
H1374 C1359 0.961 . S
H1375 C1359 0.960 . S
C1376 C1377 1.391 . S
C1376 C1378 1.394 . S
C1376 H1392 0.931 . S
C1377 C1376 1.391 . S
C1377 C1381 1.376 . S
C1378 C1376 1.394 . S
C1378 C1379 1.369 . S
C1378 C1382 1.531 . S
C1379 C1378 1.369 . S
C1379 C1380 1.410 . S
C1379 C1387 1.503 . S
C1380 C1379 1.410 . S
C1380 C1381 1.392 . S
C1380 C1383 1.511 . S
C1381 C1377 1.376 . S
C1381 C1380 1.392 . S
C1381 H1393 0.929 . S
C1382 C1378 1.531 . S
C1382 H1394 0.960 . S
C1382 H1395 0.962 . S
C1382 H1396 0.960 . S
C1383 C1380 1.511 . S
C1383 H1397 0.961 . S
C1383 H1398 0.961 . S
C1383 H1399 0.961 . S
C1384 C1385 1.370 1_554 S
C1384 C1386 1.363 . S
C1384 H1400 0.931 1_554 S
C1385 C1384 1.370 1_556 S
C1385 C1389 1.408 . S
C1386 C1384 1.363 . S
C1386 C1387 1.370 . S
C1386 C1390 1.524 . S
C1387 C1379 1.503 . S
C1387 C1386 1.370 . S
C1387 C1388 1.403 . S
C1388 C1387 1.403 . S
C1388 C1389 1.404 1_554 S
C1388 C1391 1.539 . S
C1389 C1385 1.408 . S
C1389 C1388 1.404 1_556 S
C1389 H1401 0.930 . S
C1390 C1386 1.524 . S
C1390 H1402 0.956 . S
C1390 H1403 0.961 . S
C1390 H1404 0.961 . S
C1391 C1388 1.539 . S
C1391 H1405 0.958 . S
C1391 H1406 0.961 . S
C1391 H1407 0.960 . S
H1392 C1376 0.931 . S
H1393 C1381 0.929 . S
H1394 C1382 0.960 . S
H1395 C1382 0.962 . S
H1396 C1382 0.960 . S
H1397 C1383 0.961 . S
H1398 C1383 0.961 . S
H1399 C1383 0.961 . S
H1400 C1384 0.931 1_556 S
H1401 C1389 0.930 . S
H1402 C1390 0.956 . S
H1403 C1390 0.961 . S
H1404 C1390 0.961 . S
H1405 C1391 0.958 . S
H1406 C1391 0.961 . S
H1407 C1391 0.960 . S
C1408 C1409 1.391 . S
C1408 C1410 1.394 . S
C1408 H1424 0.931 . S
C1409 C1408 1.391 . S
C1409 C1413 1.376 . S
C1410 C1408 1.394 . S
C1410 C1411 1.369 . S
C1410 C1414 1.531 . S
C1411 C1410 1.369 . S
C1411 C1412 1.410 . S
C1411 C1419 1.503 . S
C1412 C1411 1.410 . S
C1412 C1413 1.392 . S
C1412 C1415 1.511 . S
C1413 C1409 1.376 . S
C1413 C1412 1.392 . S
C1413 H1425 0.929 . S
C1414 C1410 1.531 . S
C1414 H1426 0.960 . S
C1414 H1427 0.962 . S
C1414 H1428 0.960 . S
C1415 C1412 1.511 . S
C1415 H1429 0.961 . S
C1415 H1430 0.961 . S
C1415 H1431 0.961 . S
C1416 C1417 1.370 1_554 S
C1416 C1418 1.363 . S
C1416 H1432 0.931 1_554 S
C1417 C1416 1.370 1_556 S
C1417 C1421 1.408 . S
C1418 C1416 1.363 . S
C1418 C1419 1.370 . S
C1418 C1422 1.524 . S
C1419 C1411 1.503 . S
C1419 C1418 1.370 . S
C1419 C1420 1.403 . S
C1420 C1419 1.403 . S
C1420 C1421 1.404 1_554 S
C1420 C1423 1.539 . S
C1421 C1417 1.408 . S
C1421 C1420 1.404 1_556 S
C1421 H1433 0.930 . S
C1422 C1418 1.524 . S
C1422 H1434 0.956 . S
C1422 H1435 0.961 . S
C1422 H1436 0.961 . S
C1423 C1420 1.539 . S
C1423 H1437 0.958 . S
C1423 H1438 0.961 . S
C1423 H1439 0.960 . S
H1424 C1408 0.931 . S
H1425 C1413 0.929 . S
H1426 C1414 0.960 . S
H1427 C1414 0.962 . S
H1428 C1414 0.960 . S
H1429 C1415 0.961 . S
H1430 C1415 0.961 . S
H1431 C1415 0.961 . S
H1432 C1416 0.931 1_556 S
H1433 C1421 0.930 . S
H1434 C1422 0.956 . S
H1435 C1422 0.961 . S
H1436 C1422 0.961 . S
H1437 C1423 0.958 . S
H1438 C1423 0.961 . S
H1439 C1423 0.960 . S
C289 C17 1.580 1_554 S
C297 C150 1.582 . S
C321 C182 1.599 . S
C329 C49 1.597 1_554 S
C353 C81 1.579 1_554 S
C361 C118 1.583 . S
C385 C53 2.300 . S
C393 C112 2.368 . S
C417 C85 2.316 1_545 S
C425 C144 2.367 . S
C449 C21 2.314 1_655 S
C457 C176 2.367 . S
C481 C113 1.620 . S
C489 C246 1.583 1_655 S
C513 C278 1.557 . S
C521 C145 1.603 . S
C545 C214 1.559 1_545 S
C553 C177 1.602 . S
C577 C149 2.326 . S
C585 C208 2.364 1_545 S
C609 C240 2.365 1_655 S
C617 C181 2.312 . S
C641 C272 2.361 . S
C649 C117 2.318 . S
C673 C209 1.578 . S
C681 C54 1.587 . S
C705 C241 1.585 . S
C713 C86 1.593 . S
C737 C22 1.558 . S
C745 C273 1.603 . S
C769 C16 2.359 . S
C777 C245 2.320 . S
C801 C48 2.361 . S
C809 C277 2.319 . S
C833 C213 2.321 . S
C841 C80 2.366 . S
C865 C82 1.442 1_545 S
C873 C20 1.431 . S
C897 C18 1.425 1_655 S
C905 C52 1.431 . S
C929 C50 1.403 . S
C937 C84 1.437 . S
C961 C178 1.424 . S
C969 C116 1.431 . S
C993 C114 1.436 . S
C1001 C148 1.430 . S
C1025 C146 1.412 . S
C1033 C180 1.433 . S
C1057 C212 1.419 . S
C1065 C274 1.437 . S
C1089 C244 1.434 . S
C1097 C210 1.439 . S
C1121 C276 1.414 . S
C1129 C242 1.430 . S
C1153 C19 1.141 . S
C1161 C23 1.108 . S
C1185 C55 1.142 . S
C1193 C51 1.109 . S
C1217 C83 1.126 . S
C1225 C87 1.114 . S
C1249 C119 1.132 . S
C1257 C115 1.111 . S
C1281 C147 1.123 . S
C1289 C151 1.118 . S
C1313 C183 1.136 . S
C1321 C179 1.113 . S
C1345 C211 1.131 . S
C1353 C215 1.112 . S
C1377 C243 1.140 . S
C1385 C247 1.110 . S
C1409 C275 1.141 . S
C1417 C279 1.110 . S
