# Generated by pormake.
# Topology sou, (8)-cn, num edge types: 1
# Building blocks:
#     Node 0, Type 0, BuildingBlock: NUHRAL_clean_sbu_3, # of connection points: 8
#     Node 1, Type 0, BuildingBlock: NUHRAL_clean_sbu_3, # of connection points: 8
#     Node 2, Type 0, BuildingBlock: NUHRAL_clean_sbu_3, # of connection points: 8
#     Node 3, Type 0, BuildingBlock: NUHRAL_clean_sbu_3, # of connection points: 8
#     Node 4, Type 0, BuildingBlock: NUHRAL_clean_sbu_3, # of connection points: 8
#     Node 5, Type 0, BuildingBlock: NUHRAL_clean_sbu_3, # of connection points: 8
#     Node 6, Type 0, BuildingBlock: NUHRAL_clean_sbu_3, # of connection points: 8
#     Node 7, Type 0, BuildingBlock: NUHRAL_clean_sbu_3, # of connection points: 8
#     Node 8, Type 0, BuildingBlock: NUHRAL_clean_sbu_3, # of connection points: 8
#     Node 9, Type 0, BuildingBlock: NUHRAL_clean_sbu_3, # of connection points: 8
#     Node 10, Type 0, BuildingBlock: NUHRAL_clean_sbu_3, # of connection points: 8
#     Node 11, Type 0, BuildingBlock: NUHRAL_clean_sbu_3, # of connection points: 8
#     Node 12, Type 0, BuildingBlock: NUHRAL_clean_sbu_3, # of connection points: 8
#     Node 13, Type 0, BuildingBlock: NUHRAL_clean_sbu_3, # of connection points: 8
#     Node 14, Type 0, BuildingBlock: NUHRAL_clean_sbu_3, # of connection points: 8
#     Node 15, Type 0, BuildingBlock: NUHRAL_clean_sbu_3, # of connection points: 8
#     Node 16, Type 0, BuildingBlock: NUHRAL_clean_sbu_3, # of connection points: 8
#     Node 17, Type 0, BuildingBlock: NUHRAL_clean_sbu_3, # of connection points: 8
#     Node 18, Type 0, BuildingBlock: NUHRAL_clean_sbu_3, # of connection points: 8
#     Node 19, Type 0, BuildingBlock: NUHRAL_clean_sbu_3, # of connection points: 8
#     Node 20, Type 0, BuildingBlock: NUHRAL_clean_sbu_3, # of connection points: 8
#     Node 21, Type 0, BuildingBlock: NUHRAL_clean_sbu_3, # of connection points: 8
#     Node 22, Type 0, BuildingBlock: NUHRAL_clean_sbu_3, # of connection points: 8
#     Node 23, Type 0, BuildingBlock: NUHRAL_clean_sbu_3, # of connection points: 8
#     Node 24, Type 0, BuildingBlock: NUHRAL_clean_sbu_3, # of connection points: 8
#     Node 25, Type 0, BuildingBlock: NUHRAL_clean_sbu_3, # of connection points: 8
#     Node 26, Type 0, BuildingBlock: NUHRAL_clean_sbu_3, # of connection points: 8
#     Node 27, Type 0, BuildingBlock: NUHRAL_clean_sbu_3, # of connection points: 8
#     Node 28, Type 0, BuildingBlock: NUHRAL_clean_sbu_3, # of connection points: 8
#     Node 29, Type 0, BuildingBlock: NUHRAL_clean_sbu_3, # of connection points: 8
#     Node 30, Type 0, BuildingBlock: NUHRAL_clean_sbu_3, # of connection points: 8
#     Node 31, Type 0, BuildingBlock: NUHRAL_clean_sbu_3, # of connection points: 8
#     Edge 32, Type (0, 0), None
#     Edge 33, Type (0, 0), None
#     Edge 34, Type (0, 0), None
#     Edge 35, Type (0, 0), None
#     Edge 36, Type (0, 0), None
#     Edge 37, Type (0, 0), None
#     Edge 38, Type (0, 0), None
#     Edge 39, Type (0, 0), None
#     Edge 40, Type (0, 0), None
#     Edge 41, Type (0, 0), None
#     Edge 42, Type (0, 0), None
#     Edge 43, Type (0, 0), None
#     Edge 44, Type (0, 0), None
#     Edge 45, Type (0, 0), None
#     Edge 46, Type (0, 0), None
#     Edge 47, Type (0, 0), None
#     Edge 48, Type (0, 0), None
#     Edge 49, Type (0, 0), None
#     Edge 50, Type (0, 0), None
#     Edge 51, Type (0, 0), None
#     Edge 52, Type (0, 0), None
#     Edge 53, Type (0, 0), None
#     Edge 54, Type (0, 0), None
#     Edge 55, Type (0, 0), None
#     Edge 56, Type (0, 0), None
#     Edge 57, Type (0, 0), None
#     Edge 58, Type (0, 0), None
#     Edge 59, Type (0, 0), None
#     Edge 60, Type (0, 0), None
#     Edge 61, Type (0, 0), None
#     Edge 62, Type (0, 0), None
#     Edge 63, Type (0, 0), None
#     Edge 64, Type (0, 0), None
#     Edge 65, Type (0, 0), None
#     Edge 66, Type (0, 0), None
#     Edge 67, Type (0, 0), None
#     Edge 68, Type (0, 0), None
#     Edge 69, Type (0, 0), None
#     Edge 70, Type (0, 0), None
#     Edge 71, Type (0, 0), None
#     Edge 72, Type (0, 0), None
#     Edge 73, Type (0, 0), None
#     Edge 74, Type (0, 0), None
#     Edge 75, Type (0, 0), None
#     Edge 76, Type (0, 0), None
#     Edge 77, Type (0, 0), None
#     Edge 78, Type (0, 0), None
#     Edge 79, Type (0, 0), None
#     Edge 80, Type (0, 0), None
#     Edge 81, Type (0, 0), None
#     Edge 82, Type (0, 0), None
#     Edge 83, Type (0, 0), None
#     Edge 84, Type (0, 0), None
#     Edge 85, Type (0, 0), None
#     Edge 86, Type (0, 0), None
#     Edge 87, Type (0, 0), None
#     Edge 88, Type (0, 0), None
#     Edge 89, Type (0, 0), None
#     Edge 90, Type (0, 0), None
#     Edge 91, Type (0, 0), None
#     Edge 92, Type (0, 0), None
#     Edge 93, Type (0, 0), None
#     Edge 94, Type (0, 0), None
#     Edge 95, Type (0, 0), None
#     Edge 96, Type (0, 0), None
#     Edge 97, Type (0, 0), None
#     Edge 98, Type (0, 0), None
#     Edge 99, Type (0, 0), None
#     Edge 100, Type (0, 0), None
#     Edge 101, Type (0, 0), None
#     Edge 102, Type (0, 0), None
#     Edge 103, Type (0, 0), None
#     Edge 104, Type (0, 0), None
#     Edge 105, Type (0, 0), None
#     Edge 106, Type (0, 0), None
#     Edge 107, Type (0, 0), None
#     Edge 108, Type (0, 0), None
#     Edge 109, Type (0, 0), None
#     Edge 110, Type (0, 0), None
#     Edge 111, Type (0, 0), None
#     Edge 112, Type (0, 0), None
#     Edge 113, Type (0, 0), None
#     Edge 114, Type (0, 0), None
#     Edge 115, Type (0, 0), None
#     Edge 116, Type (0, 0), None
#     Edge 117, Type (0, 0), None
#     Edge 118, Type (0, 0), None
#     Edge 119, Type (0, 0), None
#     Edge 120, Type (0, 0), None
#     Edge 121, Type (0, 0), None
#     Edge 122, Type (0, 0), None
#     Edge 123, Type (0, 0), None
#     Edge 124, Type (0, 0), None
#     Edge 125, Type (0, 0), None
#     Edge 126, Type (0, 0), None
#     Edge 127, Type (0, 0), None
#     Edge 128, Type (0, 0), None
#     Edge 129, Type (0, 0), None
#     Edge 130, Type (0, 0), None
#     Edge 131, Type (0, 0), None
#     Edge 132, Type (0, 0), None
#     Edge 133, Type (0, 0), None
#     Edge 134, Type (0, 0), None
#     Edge 135, Type (0, 0), None
#     Edge 136, Type (0, 0), None
#     Edge 137, Type (0, 0), None
#     Edge 138, Type (0, 0), None
#     Edge 139, Type (0, 0), None
#     Edge 140, Type (0, 0), None
#     Edge 141, Type (0, 0), None
#     Edge 142, Type (0, 0), None
#     Edge 143, Type (0, 0), None
#     Edge 144, Type (0, 0), None
#     Edge 145, Type (0, 0), None
#     Edge 146, Type (0, 0), None
#     Edge 147, Type (0, 0), None
#     Edge 148, Type (0, 0), None
#     Edge 149, Type (0, 0), None
#     Edge 150, Type (0, 0), None
#     Edge 151, Type (0, 0), None
#     Edge 152, Type (0, 0), None
#     Edge 153, Type (0, 0), None
#     Edge 154, Type (0, 0), None
#     Edge 155, Type (0, 0), None
#     Edge 156, Type (0, 0), None
#     Edge 157, Type (0, 0), None
#     Edge 158, Type (0, 0), None
#     Edge 159, Type (0, 0), None
# Relax obj value: 0.065
# Max RMSD: 0.163
# Mean RMSD: 0.163
data_MOF--net-sou--node1-NUHRAL_clean_sbu_3--edge1-none
_symmetry_space_group_name_H-M    P1
_symmetry_Int_Tables_number       1
_symmetry_cell_setting            triclinic
loop_
_symmetry_equiv_pos_as_xyz
'x, y, z'
_cell_length_a     54.298876
_cell_length_b     20.684115
_cell_length_c     18.974328
_cell_angle_alpha  89.99995
_cell_angle_beta   90.009253
_cell_angle_gamma 90.000903
loop_
_atom_site_label
_atom_site_type_symbol
_atom_site_fract_x
_atom_site_fract_y
_atom_site_fract_z
_atom_type_partial_charge
C0 C 0.09639 0.49302 0.00356 0.0
C1 C 0.10916 0.52496 0.94889 0.0
C2 C 0.13342 0.54785 0.95885 0.0
C3 C 0.14486 0.5382 0.02425 0.0
C4 C 0.13213 0.50886 0.08009 0.0
C5 C 0.10804 0.48593 0.06936 0.0
O6 O 1.0118 0.50948 0.09254 0.0
Tb7 Tb 0.02628 0.45441 0.00068 0.0
O8 O 1.00575 0.5293 0.94662 0.0
O9 O 0.02543 0.44463 0.1773 0.0
Eu10 Eu 1.00384 0.36633 0.11948 0.0
O11 O 0.05703 0.48754 0.94348 0.0
C12 C 0.95841 0.39081 0.1488 0.0
O13 O 0.06092 0.43134 0.04149 0.0
O14 O 1.0035 0.29764 0.02568 0.0
O15 O 0.01458 0.36841 0.93849 0.0
C16 C 0.0723 0.46109 0.98919 0.0
C17 C 0.04415 0.26517 0.12393 0.0
O18 O 0.0528 0.30431 0.07562 0.0
C19 C 0.0203 0.50362 0.15688 0.0
C20 C 1.00827 0.30946 0.95924 0.0
O21 O 0.02564 0.28484 0.16332 0.0
C22 C 0.93167 0.38675 0.13608 0.0
C23 C 0.8936 0.44892 0.13249 0.0
C24 C 0.91805 0.44192 0.1541 0.0
C25 C 0.92047 0.33742 0.09588 0.0
C26 C 0.89541 0.34296 0.076 0.0
C27 C 0.88213 0.3982 0.09621 0.0
C28 C 1.00501 0.59005 0.96775 0.0
O29 O 0.98572 0.62446 0.94981 0.0
O30 O 0.97056 0.34349 0.18031 0.0
O31 O 0.9712 0.42281 0.10112 0.0
H32 H 0.10019 0.53258 0.89856 0.0
H33 H 0.16301 0.55839 0.0336 0.0
H34 H 0.09852 0.46231 0.11247 0.0
H35 H 0.92709 0.48205 0.1804 0.0
H36 H 0.93136 0.29682 0.07762 0.0
H37 H 0.86353 0.405 0.07665 0.0
C38 C 0.17892 0.96915 0.00355 0.0
C39 C 0.16615 0.93723 0.94887 0.0
C40 C 0.14188 0.91434 0.95883 0.0
C41 C 0.13046 0.92398 0.02423 0.0
C42 C 0.14319 0.95331 0.08008 0.0
C43 C 0.16728 0.97623 0.06935 0.0
O44 O 0.26352 0.95279 0.09255 0.0
Tb45 Tb 0.24903 1.00786 0.0007 0.0
O46 O 0.26958 0.933 0.94666 0.0
O47 O 0.25 1.01772 0.17737 0.0
Eu48 Eu 0.27158 1.09596 0.11947 0.0
O49 O 0.21828 0.97468 0.94348 0.0
C50 C 0.31701 1.07155 0.14899 0.0
O51 O 0.21439 1.03085 0.0415 0.0
O52 O 0.27197 0.16457 0.02561 0.0
O53 O 0.26068 1.0939 0.93851 0.0
C54 C 0.20301 1.00109 0.98918 0.0
C55 C 0.23122 0.19696 0.12362 0.0
O56 O 0.22261 0.15778 0.07527 0.0
C57 C 0.25507 0.9587 0.15694 0.0
C58 C 0.2671 0.15279 0.95922 0.0
O59 O 0.24972 0.17741 0.16311 0.0
C60 C 0.34374 1.07562 0.13618 0.0
C61 C 0.38181 1.01345 0.1325 0.0
C62 C 0.35737 1.02045 0.15417 0.0
C63 C 0.35493 0.12495 0.09594 0.0
C64 C 0.37998 0.1194 0.076 0.0
C65 C 0.39327 1.06416 0.09618 0.0
C66 C 0.27032 0.87225 0.96778 0.0
O67 O 0.28962 0.83786 0.94984 0.0
O68 O 0.30486 0.11897 0.1803 0.0
O69 O 0.30422 1.03937 0.10144 0.0
H70 H 0.17511 0.92961 0.89854 0.0
H71 H 0.11231 0.9038 0.0336 0.0
H72 H 0.17681 0.99984 0.11246 0.0
H73 H 0.34834 0.98032 0.1805 0.0
H74 H 0.34403 0.16554 0.07771 0.0
H75 H 0.41186 1.05736 0.07657 0.0
C76 C 0.0964 0.96915 0.22795 0.0
C77 C 0.10918 0.93722 0.28262 0.0
C78 C 0.13344 0.91434 0.27266 0.0
C79 C 0.14487 0.92398 0.20725 0.0
C80 C 0.13213 0.95331 0.15141 0.0
C81 C 0.10804 0.97622 0.16214 0.0
O82 O 1.01181 0.95277 0.13895 0.0
Tb83 Tb 0.0263 1.00784 0.23081 0.0
O84 O 1.00575 0.93298 0.28484 0.0
O85 O 0.02535 1.01769 0.05415 0.0
Eu86 Eu 1.00376 1.09594 0.11203 0.0
O87 O 0.05704 0.97467 0.28802 0.0
C88 C 0.95833 1.07152 0.08249 0.0
O89 O 0.06094 1.03085 0.19001 0.0
O90 O 1.00338 0.16456 0.20588 0.0
O91 O 0.01464 1.09388 0.29299 0.0
C92 C 0.07232 1.00109 0.24232 0.0
C93 C 0.04414 0.19691 0.1078 0.0
O94 O 0.05275 0.15784 0.15627 0.0
C95 C 0.02027 0.95868 0.07458 0.0
C96 C 1.00823 0.15278 0.27228 0.0
O97 O 0.02564 0.17734 0.06833 0.0
C98 C 0.9316 1.07559 0.0953 0.0
C99 C 0.89353 1.01342 0.09898 0.0
C100 C 0.91797 1.02042 0.07731 0.0
C101 C 0.92042 0.12492 0.13554 0.0
C102 C 0.89537 0.11938 0.15548 0.0
C103 C 0.88208 1.06414 0.1353 0.0
C104 C 1.005 0.87223 0.26372 0.0
O105 O 0.9857 0.83784 0.28166 0.0
O106 O 0.97049 0.11896 0.0512 0.0
O107 O 0.97113 1.03934 0.13003 0.0
H108 H 0.10022 0.92961 0.33296 0.0
H109 H 0.16301 0.9038 0.19789 0.0
H110 H 0.09852 0.99983 0.11904 0.0
H111 H 0.92701 0.98029 0.05098 0.0
H112 H 0.93131 0.16552 0.15377 0.0
H113 H 0.86349 1.05734 0.15491 0.0
C114 C 0.17895 0.49301 0.22795 0.0
C115 C 0.16618 0.52495 0.28262 0.0
C116 C 0.14192 0.54784 0.27267 0.0
C117 C 0.13048 0.5382 0.20727 0.0
C118 C 0.14321 0.50886 0.15142 0.0
C119 C 0.16729 0.48593 0.16215 0.0
O120 O 0.26353 0.5095 0.13897 0.0
Tb121 Tb 0.24906 0.45442 0.23083 0.0
O122 O 0.26959 0.52932 0.28488 0.0
O123 O 0.2499 0.44465 0.05421 0.0
Eu124 Eu 0.27148 0.36634 0.11202 0.0
O125 O 0.21831 0.48753 0.28803 0.0
C126 C 0.31692 0.39081 0.08269 0.0
O127 O 0.21442 0.43133 0.19002 0.0
O128 O 0.27181 0.29763 0.20581 0.0
O129 O 0.26076 0.36842 0.29301 0.0
C130 C 0.20304 0.46108 0.24233 0.0
C131 C 0.23116 0.26523 0.10749 0.0
O132 O 0.2225 0.30425 0.15591 0.0
C133 C 0.25503 0.50364 0.07462 0.0
C134 C 0.26707 0.30947 0.27226 0.0
O135 O 0.24967 0.2849 0.06812 0.0
C136 C 0.34365 0.38675 0.09541 0.0
C137 C 0.38172 0.44894 0.099 0.0
C138 C 0.35727 0.44194 0.0774 0.0
C139 C 0.35486 0.33743 0.13561 0.0
C140 C 0.37992 0.34298 0.15548 0.0
C141 C 0.3932 0.39822 0.13527 0.0
C142 C 0.27032 0.59006 0.26376 0.0
O143 O 0.28961 0.62449 0.28169 0.0
O144 O 0.30477 0.34348 0.0512 0.0
O145 O 0.30413 0.42283 0.13036 0.0
H146 H 0.17515 0.53257 0.33295 0.0
H147 H 0.11233 0.55838 0.19791 0.0
H148 H 0.17682 0.46231 0.11904 0.0
H149 H 0.34823 0.48206 0.0511 0.0
H150 H 0.34397 0.29682 0.15386 0.0
H151 H 0.4118 0.40502 0.15483 0.0
C152 C 0.09354 0.82479 0.84977 0.0
C153 C 0.10492 0.87486 0.88841 0.0
C154 C 0.13017 0.87004 0.90675 0.0
C155 C 0.14339 0.81469 0.88664 0.0
C156 C 0.13173 0.76335 0.85179 0.0
C157 C 0.10716 0.76985 0.83136 0.0
O158 O 0.02354 0.91168 0.95638 0.0
Tb159 Tb 0.02299 0.84387 0.8663 0.0
O160 O 1.00354 0.92498 0.8228 0.0
O161 O 1.01256 0.84434 0.04674 0.0
Eu162 Eu 1.00079 0.755 0.98349 0.0
O163 O 0.05433 0.86461 0.8046 0.0
C164 C 0.9531 0.74741 -0.00668 0.0
O165 O 0.05427 0.79061 0.88978 0.0
O166 O 0.01596 0.69876 0.88893 0.0
O167 O 1.00237 0.76809 0.80856 0.0
C168 C 0.06676 0.81952 0.839 0.0
C169 C 0.02368 0.61776 0.01645 0.0
O170 O 0.04301 0.58361 0.03455 0.0
C171 C 0.01911 0.90209 0.02368 0.0
C172 C 1.00766 0.70789 0.82521 0.0
O173 O 0.02255 0.67804 0.03869 0.0
C174 C 0.92874 0.71712 0.97879 0.0
C175 C 0.89315 0.70105 0.90157 0.0
C176 C 0.91728 0.72376 0.91261 0.0
C177 C 0.91578 0.68611 0.03355 0.0
C178 C 0.89156 0.66331 0.02341 0.0
C179 C 0.88025 0.67233 0.95764 0.0
C180 C 0.98457 0.94673 0.85905 0.0
O181 O 0.97454 0.90923 0.90681 0.0
O182 O 0.96811 0.72044 0.03939 0.0
O183 O 0.96457 0.77808 0.94189 0.0
H184 H 0.09403 0.91538 0.90686 0.0
H185 H 0.16211 0.80833 0.90541 0.0
H186 H 0.09803 0.72939 0.80591 0.0
H187 H 0.92701 0.74673 0.86948 0.0
H188 H 0.92464 0.6788 0.08411 0.0
H189 H 0.8621 0.65221 0.94832 0.0
C190 C 0.68172 0.13742 0.84968 0.0
C191 C 0.67036 1.08736 0.88835 0.0
C192 C 0.64512 1.09216 0.90674 0.0
C193 C 0.63188 0.14752 0.88666 0.0
C194 C 0.64353 0.19886 0.85177 0.0
C195 C 0.66809 0.19235 0.83128 0.0
O196 O 0.75166 1.05066 0.95645 0.0
Tb197 Tb 0.75225 0.11841 0.86632 0.0
O198 O 0.77177 1.03732 0.82301 0.0
O199 O 0.76284 0.1179 0.04673 0.0
Eu200 Eu 0.77457 0.20727 0.98348 0.0
O201 O 0.72092 1.09753 0.8046 0.0
C202 C 0.82225 0.21493 -0.00666 0.0
O203 O 0.72098 0.17177 0.88954 0.0
O204 O 0.75939 0.26353 0.88893 0.0
O205 O 0.77288 0.19413 0.80852 0.0
C206 C 0.70849 0.14272 0.83884 0.0
C207 C 0.75167 0.3445 0.01645 0.0
O208 O 0.73233 0.37862 0.03453 0.0
C209 C 0.75619 1.06021 0.02371 0.0
C210 C 0.76764 0.25435 0.82518 0.0
O211 O 0.7528 0.2842 0.03867 0.0
C212 C 0.84661 0.24524 0.97881 0.0
C213 C 0.88218 0.26132 0.90158 0.0
C214 C 0.85806 0.23861 0.91263 0.0
C215 C 0.85957 0.27625 0.03357 0.0
C216 C 0.88379 0.29905 0.02342 0.0
C217 C 0.89509 0.29003 0.95764 0.0
C218 C 0.79073 1.01567 0.85936 0.0
O219 O 0.80071 1.05323 0.90715 0.0
O220 O 0.80725 0.24188 0.0394 0.0
O221 O 0.81078 0.18426 0.9419 0.0
H222 H 0.68125 1.04684 0.90679 0.0
H223 H 0.61317 0.15387 0.90547 0.0
H224 H 0.67721 0.23281 0.8058 0.0
H225 H 0.84832 0.21564 0.8695 0.0
H226 H 0.85073 0.28355 0.08414 0.0
H227 H 0.91324 0.31015 0.94831 0.0
C228 C 0.0936 0.13742 0.88181 0.0
C229 C 0.10497 1.08735 0.84313 0.0
C230 C 0.13021 1.09216 0.82474 0.0
C231 C 0.14344 0.14752 0.84483 0.0
C232 C 0.13179 0.19885 0.87972 0.0
C233 C 0.10724 0.19234 0.90021 0.0
O234 O 0.02366 1.05065 0.77505 0.0
Tb235 Tb 0.02307 0.1184 0.86517 0.0
O236 O 1.00354 1.03735 0.90853 0.0
O237 O 1.0125 0.1179 0.68476 0.0
Eu238 Eu 1.00076 0.20727 0.74801 0.0
O239 O 0.0544 1.09751 0.92687 0.0
C240 C 0.95308 0.21492 0.73815 0.0
O241 O 0.05434 0.17176 0.84196 0.0
O242 O 0.01595 0.26354 0.84255 0.0
O243 O 1.00245 0.19413 0.92297 0.0
C244 C 0.06683 0.1427 0.89265 0.0
C245 C 0.02366 0.3445 0.71503 0.0
O246 O 0.04301 0.37862 0.69696 0.0
C247 C 0.01913 1.0602 0.70778 0.0
C248 C 1.0077 0.25435 0.90631 0.0
O249 O 0.02253 0.2842 0.69282 0.0
C250 C 0.92872 0.24523 0.75268 0.0
C251 C 0.89315 0.26131 0.82991 0.0
C252 C 0.91728 0.2386 0.81886 0.0
C253 C 0.91576 0.27623 0.69792 0.0
C254 C 0.89153 0.29903 0.70806 0.0
C255 C 0.88024 0.29002 0.77384 0.0
C256 C 0.98458 1.0157 0.87219 0.0
O257 O 0.9746 1.05316 0.8243 0.0
O258 O 0.96808 0.24187 0.69209 0.0
O259 O 0.96455 0.18425 0.78959 0.0
H260 H 0.09407 1.04684 0.82469 0.0
H261 H 0.16216 0.15387 0.82602 0.0
H262 H 0.09812 0.23281 0.92569 0.0
H263 H 0.92701 0.21564 0.862 0.0
H264 H 0.9246 0.28353 0.64735 0.0
H265 H 0.86209 0.31014 0.78318 0.0
C266 C 0.6818 0.82479 0.8817 0.0
C267 C 0.67042 0.87486 0.84306 0.0
C268 C 0.64517 0.87004 0.82472 0.0
C269 C 0.63194 0.81468 0.84484 0.0
C270 C 0.64361 0.76334 0.87969 0.0
C271 C 0.66818 0.76985 0.90012 0.0
O272 O 0.75181 0.9117 0.77512 0.0
Tb273 Tb 0.75234 0.84387 0.86518 0.0
O274 O 0.77181 0.92494 0.90873 0.0
O275 O 0.76277 0.84434 0.68475 0.0
Eu276 Eu 0.77454 0.755 0.748 0.0
O277 O 0.721 0.86462 0.92687 0.0
C278 C 0.82222 0.74741 0.73815 0.0
O279 O 0.72107 0.79061 0.8417 0.0
O280 O 0.75937 0.69875 0.84256 0.0
O281 O 0.77297 0.76808 0.92292 0.0
C282 C 0.70857 0.81952 0.89247 0.0
C283 C 0.75165 0.61775 0.71503 0.0
O284 O 0.73232 0.58361 0.69695 0.0
C285 C 0.75623 0.9021 0.70781 0.0
C286 C 0.76767 0.70788 0.90628 0.0
O287 O 0.75278 0.67804 0.69281 0.0
C288 C 0.84658 0.71712 0.75268 0.0
C289 C 0.88217 0.70105 0.8299 0.0
C290 C 0.85804 0.72376 0.81886 0.0
C291 C 0.85954 0.68611 0.69793 0.0
C292 C 0.88377 0.66331 0.70806 0.0
C293 C 0.89507 0.67233 0.77383 0.0
C294 C 0.79078 0.9467 0.8725 0.0
O295 O 0.80081 0.9093 0.82466 0.0
O296 O 0.80722 0.72044 0.69209 0.0
O297 O 0.81076 0.77809 0.78958 0.0
H298 H 0.6813 0.91538 0.82461 0.0
H299 H 0.61323 0.80832 0.82607 0.0
H300 H 0.67731 0.72939 0.92556 0.0
H301 H 0.84831 0.74673 0.86199 0.0
H302 H 0.85069 0.6788 0.64736 0.0
H303 H 0.91323 0.65221 0.78316 0.0
C304 C 0.09639 0.99301 0.50356 0.0
C305 C 0.10915 1.02495 0.44889 0.0
C306 C 0.13342 1.04784 0.45884 0.0
C307 C 0.14486 1.0382 0.52424 0.0
C308 C 0.13213 1.00885 0.58009 0.0
C309 C 0.10804 0.98593 0.56936 0.0
O310 O 1.0118 1.00949 0.59253 0.0
Tb311 Tb 0.02628 0.95441 0.50068 0.0
O312 O 1.00575 1.0293 0.44662 0.0
O313 O 0.02542 0.94462 0.6773 0.0
Eu314 Eu 1.00384 0.86631 0.61949 0.0
O315 O 0.05703 0.98752 0.44348 0.0
C316 C 0.95841 0.89079 0.64879 0.0
O317 O 0.06092 0.93133 0.5415 0.0
O318 O 1.00351 0.79762 0.52568 0.0
O319 O 0.01458 0.86841 0.4385 0.0
C320 C 0.0723 0.96108 0.48919 0.0
C321 C 0.04415 0.76517 0.62395 0.0
O322 O 0.05281 0.8043 0.57564 0.0
C323 C 0.02029 1.00361 0.6569 0.0
C324 C 1.00827 0.80945 0.45924 0.0
O325 O 0.02564 0.78483 0.66334 0.0
C326 C 0.93167 0.88673 0.63607 0.0
C327 C 0.8936 0.94891 0.63249 0.0
C328 C 0.91805 0.94191 0.65409 0.0
C329 C 0.92047 0.83741 0.59587 0.0
C330 C 0.8954 0.84295 0.576 0.0
C331 C 0.88213 0.8982 0.59621 0.0
C332 C 1.00501 1.09005 0.46775 0.0
O333 O 0.98572 0.12446 0.4498 0.0
O334 O 0.97056 0.84348 0.68031 0.0
O335 O 0.9712 0.92279 0.60111 0.0
H336 H 0.10018 1.03257 0.39856 0.0
H337 H 0.163 1.05838 0.5336 0.0
H338 H 0.09852 0.96231 0.61247 0.0
H339 H 0.9271 0.98204 0.68039 0.0
H340 H 0.93135 0.79681 0.57761 0.0
H341 H 0.86353 0.905 0.57664 0.0
C342 C 0.17892 0.46914 0.50356 0.0
C343 C 0.16615 0.43722 0.44888 0.0
C344 C 0.14188 0.41434 0.45885 0.0
C345 C 0.13046 0.42398 0.52425 0.0
C346 C 0.1432 0.45331 0.5801 0.0
C347 C 0.16728 0.47622 0.56936 0.0
O348 O 0.26352 0.45279 0.59255 0.0
Tb349 Tb 0.24903 0.50785 0.5007 0.0
O350 O 0.26958 0.433 0.44666 0.0
O351 O 0.24999 0.51772 0.67737 0.0
Eu352 Eu 0.27157 0.59596 0.61947 0.0
O353 O 0.21828 0.47467 0.44349 0.0
C354 C 0.317 0.57154 0.64899 0.0
O355 O 0.21439 0.53085 0.5415 0.0
O356 O 0.27196 0.66457 0.52561 0.0
O357 O 0.26068 0.5939 0.43851 0.0
C358 C 0.20301 0.50109 0.48919 0.0
C359 C 0.23121 0.69697 0.62363 0.0
O360 O 0.22261 0.65779 0.57527 0.0
C361 C 0.25506 0.4587 0.65693 0.0
C362 C 0.2671 0.65279 0.45922 0.0
O363 O 0.24972 0.67741 0.66312 0.0
C364 C 0.34373 0.57562 0.63618 0.0
C365 C 0.38181 0.51345 0.6325 0.0
C366 C 0.35737 0.52044 0.65418 0.0
C367 C 0.35492 0.62494 0.59593 0.0
C368 C 0.37997 0.6194 0.576 0.0
C369 C 0.39326 0.56416 0.59618 0.0
C370 C 0.27033 0.37225 0.46778 0.0
O371 O 0.28963 0.33786 0.44984 0.0
O372 O 0.30485 0.61896 0.68031 0.0
O373 O 0.30421 0.53937 0.60143 0.0
H374 H 0.17511 0.4296 0.39855 0.0
H375 H 0.11231 0.4038 0.53362 0.0
H376 H 0.17681 0.49984 0.61247 0.0
H377 H 0.34834 0.48032 0.68051 0.0
H378 H 0.34402 0.66553 0.57771 0.0
H379 H 0.41185 0.55737 0.57657 0.0
C380 C 0.0964 0.46915 0.72796 0.0
C381 C 0.10918 0.43723 0.78264 0.0
C382 C 0.13344 0.41435 0.77268 0.0
C383 C 0.14487 0.42398 0.70727 0.0
C384 C 0.13213 0.45331 0.65143 0.0
C385 C 0.10805 0.47623 0.66216 0.0
O386 O 1.01181 0.45277 0.63895 0.0
Tb387 Tb 0.0263 0.50784 0.73081 0.0
O388 O 1.00575 0.43298 0.78485 0.0
O389 O 0.02535 0.5177 0.55414 0.0
Eu390 Eu 1.00376 0.59594 0.61203 0.0
O391 O 0.05704 0.47467 0.78803 0.0
C392 C 0.95833 0.57153 0.58248 0.0
O393 O 0.06094 0.53085 0.69001 0.0
O394 O 1.00337 0.66456 0.70588 0.0
O395 O 0.01464 0.59388 0.79299 0.0
C396 C 0.07232 0.50109 0.74233 0.0
C397 C 0.04415 0.6969 0.60782 0.0
O398 O 0.05274 0.65783 0.65629 0.0
C399 C 0.02027 0.45868 0.57458 0.0
C400 C 1.00823 0.65278 0.77228 0.0
O401 O 0.02564 0.67734 0.56834 0.0
C402 C 0.9316 0.5756 0.5953 0.0
C403 C 0.89353 0.51343 0.59899 0.0
C404 C 0.91797 0.52042 0.57731 0.0
C405 C 0.92042 0.62493 0.63554 0.0
C406 C 0.89536 0.61938 0.65547 0.0
C407 C 0.88208 0.56414 0.6353 0.0
C408 C 1.005 0.37224 0.76372 0.0
O409 O 0.98571 0.33784 0.78167 0.0
O410 O 0.97049 0.61898 0.5512 0.0
O411 O 0.97112 0.53934 0.63002 0.0
H412 H 0.10022 0.42962 0.83297 0.0
H413 H 0.16301 0.40381 0.69791 0.0
H414 H 0.09852 0.49984 0.61905 0.0
H415 H 0.927 0.4803 0.55098 0.0
H416 H 0.93131 0.66553 0.65376 0.0
H417 H 0.86348 0.55734 0.65491 0.0
C418 C 0.17895 0.99302 0.72795 0.0
C419 C 0.16618 1.02496 0.78262 0.0
C420 C 0.14192 1.04785 0.77266 0.0
C421 C 0.13048 1.0382 0.70726 0.0
C422 C 0.14321 1.00886 0.65142 0.0
C423 C 0.16729 0.98594 0.66215 0.0
O424 O 0.26353 1.0095 0.63897 0.0
Tb425 Tb 0.24906 0.95443 0.73083 0.0
O426 O 0.26959 1.02932 0.78488 0.0
O427 O 0.2499 0.94465 0.55422 0.0
Eu428 Eu 0.27148 0.86634 0.61202 0.0
O429 O 0.21831 0.98754 0.78803 0.0
C430 C 0.31692 0.89082 0.58268 0.0
O431 O 0.21442 0.93134 0.69003 0.0
O432 O 0.27182 0.79764 0.70581 0.0
O433 O 0.26076 0.86843 0.79301 0.0
C434 C 0.20304 0.9611 0.74233 0.0
C435 C 0.23116 0.76524 0.6075 0.0
O436 O 0.2225 0.80426 0.65592 0.0
C437 C 0.25503 1.00364 0.57463 0.0
C438 C 0.26707 0.80947 0.77226 0.0
O439 O 0.24967 0.78491 0.56812 0.0
C440 C 0.34365 0.88676 0.59541 0.0
C441 C 0.38173 0.94894 0.599 0.0
C442 C 0.35727 0.94194 0.57739 0.0
C443 C 0.35485 0.83743 0.63561 0.0
C444 C 0.37992 0.84298 0.65548 0.0
C445 C 0.3932 0.89822 0.63527 0.0
C446 C 0.27033 1.09006 0.76375 0.0
O447 O 0.28962 0.12448 0.78169 0.0
O448 O 0.30477 0.84348 0.5512 0.0
O449 O 0.30413 0.92284 0.63035 0.0
H450 H 0.17515 1.03258 0.83295 0.0
H451 H 0.11233 1.05838 0.6979 0.0
H452 H 0.17682 0.96232 0.61904 0.0
H453 H 0.34823 0.98207 0.5511 0.0
H454 H 0.34397 0.79683 0.65386 0.0
H455 H 0.41179 0.90502 0.65483 0.0
C456 C 0.09353 0.32479 0.3498 0.0
C457 C 0.10492 0.37486 0.38843 0.0
C458 C 0.13016 0.37004 0.40676 0.0
C459 C 0.14339 0.31468 0.38665 0.0
C460 C 0.13172 0.26334 0.3518 0.0
C461 C 0.10716 0.26985 0.33137 0.0
O462 O 0.02353 0.4117 0.45637 0.0
Tb463 Tb 0.02299 0.34388 0.3663 0.0
O464 O 1.00353 0.42499 0.32278 0.0
O465 O 1.01257 0.34434 0.54674 0.0
Eu466 Eu 1.0008 0.255 0.48348 0.0
O467 O 0.05433 0.3646 0.3046 0.0
C468 C 0.95311 0.24741 0.49332 0.0
O469 O 0.05426 0.29063 0.38981 0.0
O470 O 0.01596 0.19875 0.38892 0.0
O471 O 1.00237 0.26809 0.30856 0.0
C472 C 0.06676 0.31952 0.33902 0.0
C473 C 0.02368 0.11775 0.51645 0.0
O474 O 0.04301 1.0836 0.53455 0.0
C475 C 0.0191 0.4021 0.52368 0.0
C476 C 1.00767 0.20789 0.3252 0.0
O477 O 0.02255 0.17804 0.53868 0.0
C478 C 0.92875 0.21712 0.47879 0.0
C479 C 0.89316 0.20105 0.40157 0.0
C480 C 0.91729 0.22376 0.41261 0.0
C481 C 0.91579 0.18611 0.53355 0.0
C482 C 0.89157 0.16331 0.52342 0.0
C483 C 0.88026 0.17233 0.45764 0.0
C484 C 0.98457 0.44675 0.35901 0.0
O485 O 0.97453 0.40925 0.40677 0.0
O486 O 0.96811 0.22044 0.53939 0.0
O487 O 0.96458 0.27808 0.44189 0.0
H488 H 0.09403 0.41538 0.40689 0.0
H489 H 0.16211 0.30833 0.40542 0.0
H490 H 0.09802 0.22939 0.30593 0.0
H491 H 0.92702 0.24673 0.36948 0.0
H492 H 0.92465 0.1788 0.58411 0.0
H493 H 0.86211 0.15221 0.44832 0.0
C494 C 0.68173 0.63742 0.34968 0.0
C495 C 0.67036 0.58736 0.38836 0.0
C496 C 0.64512 0.59217 0.40675 0.0
C497 C 0.63189 0.64752 0.38665 0.0
C498 C 0.64354 0.69886 0.35176 0.0
C499 C 0.66809 0.69235 0.33127 0.0
O500 O 0.75167 0.55065 0.45644 0.0
Tb501 Tb 0.75226 0.6184 0.36632 0.0
O502 O 0.77177 0.53731 0.32299 0.0
O503 O 0.76283 0.6179 0.54673 0.0
Eu504 Eu 0.77456 0.70727 0.48348 0.0
O505 O 0.72093 0.59754 0.3046 0.0
C506 C 0.82225 0.71493 0.49334 0.0
O507 O 0.72099 0.67175 0.38956 0.0
O508 O 0.75938 0.76353 0.38893 0.0
O509 O 0.77289 0.69413 0.30852 0.0
C510 C 0.7085 0.64272 0.33885 0.0
C511 C 0.75166 0.8445 0.51645 0.0
O512 O 0.73232 0.87863 0.53453 0.0
C513 C 0.7562 0.5602 0.52371 0.0
C514 C 0.76764 0.75435 0.32518 0.0
O515 O 0.7528 0.78421 0.53866 0.0
C516 C 0.8466 0.74524 0.47881 0.0
C517 C 0.88218 0.76131 0.40157 0.0
C518 C 0.85805 0.7386 0.41263 0.0
C519 C 0.85957 0.77624 0.53357 0.0
C520 C 0.88379 0.79904 0.52341 0.0
C521 C 0.89509 0.79003 0.45764 0.0
C522 C 0.79073 0.51566 0.35934 0.0
O523 O 0.80072 0.55321 0.40713 0.0
O524 O 0.80725 0.74188 0.5394 0.0
O525 O 0.81078 0.68425 0.4419 0.0
H526 H 0.68126 0.54685 0.4068 0.0
H527 H 0.61318 0.65388 0.40546 0.0
H528 H 0.67721 0.73281 0.30579 0.0
H529 H 0.84831 0.71564 0.36949 0.0
H530 H 0.85072 0.78354 0.58413 0.0
H531 H 0.91324 0.81015 0.4483 0.0
C532 C 0.09361 0.63741 0.38182 0.0
C533 C 0.10497 0.58734 0.34315 0.0
C534 C 0.13021 0.59216 0.32475 0.0
C535 C 0.14345 0.64751 0.34483 0.0
C536 C 0.1318 0.69885 0.37972 0.0
C537 C 0.10724 0.69234 0.40022 0.0
O538 O 0.02367 0.55066 0.27504 0.0
Tb539 Tb 0.02308 0.6184 0.36516 0.0
O540 O 1.00354 0.53736 0.40851 0.0
O541 O 1.01249 0.61789 0.18476 0.0
Eu542 Eu 1.00076 0.70727 0.24801 0.0
O543 O 0.05441 0.59749 0.42687 0.0
C544 C 0.95307 0.71492 0.23815 0.0
O545 O 0.05435 0.67178 0.342 0.0
O546 O 0.01594 0.76354 0.34255 0.0
O547 O 1.00245 0.69412 0.42297 0.0
C548 C 0.06684 0.6427 0.39268 0.0
C549 C 0.02367 0.84449 0.21504 0.0
O550 O 0.04301 0.87862 0.19695 0.0
C551 C 0.01914 0.56021 0.20778 0.0
C552 C 1.0077 0.75435 0.40631 0.0
O553 O 0.02253 0.7842 0.19282 0.0
C554 C 0.92872 0.74523 0.25267 0.0
C555 C 0.89314 0.76131 0.32991 0.0
C556 C 0.91727 0.7386 0.31886 0.0
C557 C 0.91575 0.77623 0.19792 0.0
C558 C 0.89153 0.79903 0.20806 0.0
C559 C 0.88024 0.79002 0.27384 0.0
C560 C 0.98458 0.51571 0.37215 0.0
O561 O 0.97461 0.55317 0.32425 0.0
O562 O 0.96808 0.74187 0.19209 0.0
O563 O 0.96454 0.68425 0.28959 0.0
H564 H 0.09408 0.54683 0.32472 0.0
H565 H 0.16216 0.65386 0.32601 0.0
H566 H 0.09813 0.73281 0.42569 0.0
H567 H 0.92701 0.71564 0.36199 0.0
H568 H 0.9246 0.78353 0.14735 0.0
H569 H 0.86208 0.81014 0.28317 0.0
C570 C 0.68179 0.32479 0.38172 0.0
C571 C 0.67041 0.37486 0.34309 0.0
C572 C 0.64517 0.37005 0.32474 0.0
C573 C 0.63194 0.31469 0.34484 0.0
C574 C 0.64361 0.26335 0.37969 0.0
C575 C 0.66817 0.26986 0.40013 0.0
O576 O 0.75179 0.41169 0.27512 0.0
Tb577 Tb 0.75234 0.34387 0.36518 0.0
O578 O 0.77181 0.42494 0.40872 0.0
O579 O 0.76278 0.34435 0.18475 0.0
Eu580 Eu 0.77454 0.255 0.248 0.0
O581 O 0.721 0.36463 0.42688 0.0
C582 C 0.82223 0.24741 0.23816 0.0
O583 O 0.72106 0.2906 0.34173 0.0
O584 O 0.75937 0.19875 0.34256 0.0
O585 O 0.77296 0.26809 0.42292 0.0
C586 C 0.70857 0.31953 0.3925 0.0
C587 C 0.75166 0.11776 0.21503 0.0
O588 O 0.73232 1.08361 0.19695 0.0
C589 C 0.75623 0.4021 0.20781 0.0
C590 C 0.76767 0.20789 0.40628 0.0
O591 O 0.75278 0.17805 0.19281 0.0
C592 C 0.84659 0.21712 0.25269 0.0
C593 C 0.88218 0.20105 0.3299 0.0
C594 C 0.85805 0.22376 0.31886 0.0
C595 C 0.85955 0.1861 0.19793 0.0
C596 C 0.88377 0.1633 0.20807 0.0
C597 C 0.89508 0.17233 0.27383 0.0
C598 C 0.79078 0.44669 0.37248 0.0
O599 O 0.80081 0.40929 0.32462 0.0
O600 O 0.80723 0.22044 0.1921 0.0
O601 O 0.81076 0.27808 0.28959 0.0
H602 H 0.6813 0.41539 0.32463 0.0
H603 H 0.61322 0.30833 0.32607 0.0
H604 H 0.6773 0.22939 0.42557 0.0
H605 H 0.84832 0.24673 0.362 0.0
H606 H 0.85069 0.1788 0.14737 0.0
H607 H 0.91323 0.15221 0.28316 0.0
C608 C 0.59638 0.49303 0.50354 0.0
C609 C 0.60915 0.52497 0.44887 0.0
C610 C 0.63341 0.54786 0.45883 0.0
C611 C 0.64485 0.53821 0.52423 0.0
C612 C 0.63212 0.50886 0.58007 0.0
C613 C 0.60804 0.48594 0.56934 0.0
O614 O 0.5118 0.5095 0.59251 0.0
Tb615 Tb 0.52628 0.45443 0.50065 0.0
O616 O 0.50574 0.52933 0.4466 0.0
O617 O 0.52544 0.44466 0.67727 0.0
Eu618 Eu 0.50386 0.36634 0.61946 0.0
O619 O 0.55702 0.48755 0.44346 0.0
C620 C 0.45842 0.39083 0.64877 0.0
O621 O 0.56091 0.43134 0.54146 0.0
O622 O 0.50352 0.29764 0.52567 0.0
O623 O 0.51457 0.36843 0.43847 0.0
C624 C 0.5723 0.4611 0.48916 0.0
C625 C 0.54415 0.26518 0.62394 0.0
O626 O 0.55282 0.3043 0.57562 0.0
C627 C 0.52031 0.50364 0.65686 0.0
C628 C 0.50827 0.30948 0.45922 0.0
O629 O 0.52565 0.28485 0.66332 0.0
C630 C 0.43168 0.38676 0.63606 0.0
C631 C 0.39361 0.44892 0.63249 0.0
C632 C 0.41806 0.44194 0.65409 0.0
C633 C 0.42048 0.33744 0.59586 0.0
C634 C 0.39542 0.34298 0.576 0.0
C635 C 0.38214 0.39821 0.59621 0.0
C636 C 0.50501 0.59007 0.46773 0.0
O637 O 0.48572 0.62449 0.44979 0.0
O638 O 0.47057 0.34352 0.6803 0.0
O639 O 0.47121 0.42282 0.60107 0.0
H640 H 0.60018 0.53259 0.39854 0.0
H641 H 0.663 0.55839 0.53359 0.0
H642 H 0.59852 0.46232 0.61244 0.0
H643 H 0.42711 0.48207 0.68038 0.0
H644 H 0.43137 0.29684 0.5776 0.0
H645 H 0.36354 0.40501 0.57665 0.0
C646 C 0.67893 0.96915 0.50353 0.0
C647 C 0.66615 0.93723 0.44885 0.0
C648 C 0.64189 0.91435 0.45881 0.0
C649 C 0.63046 0.92398 0.52422 0.0
C650 C 0.6432 0.95331 0.58006 0.0
C651 C 0.66729 0.97623 0.56933 0.0
O652 O 0.76352 0.95277 0.59253 0.0
Tb653 Tb 0.74903 1.00784 0.50068 0.0
O654 O 0.76958 0.93298 0.44664 0.0
O655 O 0.74998 1.0177 0.67734 0.0
Eu656 Eu 0.77157 1.09595 0.61946 0.0
O657 O 0.71829 0.97468 0.44346 0.0
C658 C 0.817 1.07153 0.64897 0.0
O659 O 0.7144 1.03085 0.54148 0.0
O660 O 0.77195 0.16457 0.52561 0.0
O661 O 0.7607 1.09388 0.4385 0.0
C662 C 0.70302 1.0011 0.48916 0.0
C663 C 0.7312 0.19696 0.62364 0.0
O664 O 0.7226 0.15779 0.57528 0.0
C665 C 0.75508 0.95869 0.65692 0.0
C666 C 0.7671 0.15278 0.4592 0.0
O667 O 0.74971 0.1774 0.66312 0.0
C668 C 0.84373 1.07561 0.63617 0.0
C669 C 0.8818 1.01344 0.6325 0.0
C670 C 0.85736 1.02043 0.65416 0.0
C671 C 0.85491 0.12493 0.59593 0.0
C672 C 0.87997 0.11938 0.576 0.0
C673 C 0.89326 1.06415 0.59618 0.0
C674 C 0.77033 0.87223 0.46777 0.0
O675 O 0.78962 0.83783 0.44981 0.0
O676 O 0.80484 0.11895 0.6803 0.0
O677 O 0.8042 1.03938 0.6014 0.0
H678 H 0.67512 0.92962 0.39852 0.0
H679 H 0.61232 0.9038 0.53358 0.0
H680 H 0.67682 0.99984 0.61244 0.0
H681 H 0.84832 0.98031 0.68049 0.0
H682 H 0.84402 0.16553 0.5777 0.0
H683 H 0.91185 1.05735 0.57658 0.0
C684 C 0.59641 0.96915 0.72793 0.0
C685 C 0.60919 0.93722 0.78261 0.0
C686 C 0.63345 0.91434 0.77264 0.0
C687 C 0.64488 0.92398 0.70724 0.0
C688 C 0.63214 0.95331 0.6514 0.0
C689 C 0.60805 0.97623 0.66213 0.0
O690 O 0.51181 0.95279 0.63893 0.0
Tb691 Tb 0.52631 1.00786 0.73079 0.0
O692 O 0.50576 0.933 0.78482 0.0
O693 O 0.52535 1.01771 0.55412 0.0
Eu694 Eu 0.50376 1.09596 0.61201 0.0
O695 O 0.55705 0.97468 0.788 0.0
C696 C 0.45833 1.07155 0.58247 0.0
O697 O 0.56095 1.03086 0.68999 0.0
O698 O 0.50337 0.16458 0.70587 0.0
O699 O 0.51465 1.0939 0.79297 0.0
C700 C 0.57233 1.00109 0.7423 0.0
C701 C 0.54415 0.19691 0.6078 0.0
O702 O 0.55275 0.15783 0.65627 0.0
C703 C 0.52027 0.9587 0.57455 0.0
C704 C 0.50824 0.15279 0.77226 0.0
O705 O 0.52564 0.17735 0.56832 0.0
C706 C 0.4316 1.07562 0.59529 0.0
C707 C 0.39353 1.01346 0.59898 0.0
C708 C 0.41797 1.02045 0.5773 0.0
C709 C 0.42042 0.12495 0.63554 0.0
C710 C 0.39536 0.11941 0.65548 0.0
C711 C 0.38208 1.06417 0.6353 0.0
C712 C 0.50501 0.87225 0.7637 0.0
O713 O 0.48571 0.83787 0.78163 0.0
O714 O 0.47048 0.11899 0.55119 0.0
O715 O 0.47112 1.03935 0.63 0.0
H716 H 0.60022 0.92961 0.83294 0.0
H717 H 0.66302 0.9038 0.69787 0.0
H718 H 0.59853 0.99984 0.61902 0.0
H719 H 0.427 0.98032 0.55097 0.0
H720 H 0.43131 0.16555 0.65376 0.0
H721 H 0.36348 1.05737 0.65492 0.0
C722 C 0.67894 0.49301 0.72793 0.0
C723 C 0.66618 0.52494 0.7826 0.0
C724 C 0.64191 0.54784 0.77265 0.0
C725 C 0.63047 0.5382 0.70725 0.0
C726 C 0.6432 0.50886 0.6514 0.0
C727 C 0.66729 0.48593 0.66213 0.0
O728 O 0.76353 0.50949 0.63896 0.0
Tb729 Tb 0.74905 0.45441 0.73081 0.0
O730 O 0.76958 0.5293 0.78487 0.0
O731 O 0.74991 0.44463 0.55419 0.0
Eu732 Eu 0.77148 0.36631 0.612 0.0
O733 O 0.7183 0.48752 0.78801 0.0
C734 C 0.81692 0.39078 0.58266 0.0
O735 O 0.71441 0.43133 0.69 0.0
O736 O 0.77182 0.29762 0.7058 0.0
O737 O 0.76075 0.36841 0.79299 0.0
C738 C 0.70303 0.46108 0.7423 0.0
C739 C 0.73115 0.26523 0.6075 0.0
O740 O 0.7225 0.30425 0.65593 0.0
C741 C 0.75504 0.50361 0.5746 0.0
C742 C 0.76707 0.30945 0.77225 0.0
O743 O 0.74966 0.28489 0.56812 0.0
C744 C 0.84366 0.38672 0.5954 0.0
C745 C 0.88173 0.4489 0.599 0.0
C746 C 0.85728 0.44191 0.57739 0.0
C747 C 0.85486 0.33739 0.6356 0.0
C748 C 0.87992 0.34295 0.65548 0.0
C749 C 0.8932 0.39819 0.63528 0.0
C750 C 0.77032 0.59004 0.76373 0.0
O751 O 0.78961 0.62447 0.78168 0.0
O752 O 0.80477 0.34343 0.55119 0.0
O753 O 0.80413 0.42282 0.63031 0.0
H754 H 0.67515 0.53256 0.83293 0.0
H755 H 0.61233 0.55838 0.69789 0.0
H756 H 0.67681 0.46231 0.61902 0.0
H757 H 0.84823 0.48203 0.55109 0.0
H758 H 0.84397 0.29679 0.65385 0.0
H759 H 0.9118 0.40499 0.65484 0.0
C760 C 0.59354 0.8248 0.34976 0.0
C761 C 0.60492 0.87487 0.38839 0.0
C762 C 0.63017 0.87005 0.40673 0.0
C763 C 0.6434 0.81469 0.38662 0.0
C764 C 0.63173 0.76336 0.35177 0.0
C765 C 0.60716 0.76986 0.33134 0.0
O766 O 0.52354 0.91171 0.45635 0.0
Tb767 Tb 0.523 0.84389 0.36628 0.0
O768 O 0.50354 0.925 0.32277 0.0
O769 O 0.51256 0.84436 0.54672 0.0
Eu770 Eu 0.50079 0.75502 0.48347 0.0
O771 O 0.55434 0.86462 0.30458 0.0
C772 C 0.45311 0.74743 0.4933 0.0
O773 O 0.55427 0.79064 0.38978 0.0
O774 O 0.51596 0.69878 0.38891 0.0
O775 O 0.50237 0.76811 0.30855 0.0
C776 C 0.56677 0.81953 0.33899 0.0
C777 C 0.52368 0.61777 0.51643 0.0
O778 O 0.54301 0.58362 0.53453 0.0
C779 C 0.51911 0.90212 0.52366 0.0
C780 C 0.50766 0.7079 0.32519 0.0
O781 O 0.52255 0.67806 0.53867 0.0
C782 C 0.42875 0.71714 0.47878 0.0
C783 C 0.39315 0.70107 0.40157 0.0
C784 C 0.41728 0.72378 0.41261 0.0
C785 C 0.41579 0.68613 0.53354 0.0
C786 C 0.39157 0.66333 0.52341 0.0
C787 C 0.38026 0.67235 0.45764 0.0
C788 C 0.48458 0.94675 0.35901 0.0
O789 O 0.47454 0.90925 0.40676 0.0
O790 O 0.46811 0.72047 0.53937 0.0
O791 O 0.46458 0.7781 0.44187 0.0
H792 H 0.59404 0.91539 0.40685 0.0
H793 H 0.66212 0.80834 0.40539 0.0
H794 H 0.59803 0.72939 0.3059 0.0
H795 H 0.42701 0.74675 0.36947 0.0
H796 H 0.42465 0.67882 0.5841 0.0
H797 H 0.3621 0.65223 0.44832 0.0
C798 C 0.18172 0.13742 0.34968 0.0
C799 C 0.17036 1.08735 0.38835 0.0
C800 C 0.14512 1.09216 0.40676 0.0
C801 C 0.13188 0.14751 0.38668 0.0
C802 C 0.14353 0.19884 0.35178 0.0
C803 C 0.16809 0.19235 0.33128 0.0
O804 O 0.25165 1.05068 0.45648 0.0
Tb805 Tb 0.25225 0.11842 0.36634 0.0
O806 O 0.27178 1.03733 0.32305 0.0
O807 O 0.26285 0.11791 0.54675 0.0
Eu808 Eu 0.27458 0.20729 0.4835 0.0
O809 O 0.22093 1.09752 0.30462 0.0
C810 C 0.32226 0.21495 0.49334 0.0
O811 O 0.22098 0.17179 0.38951 0.0
O812 O 0.25939 0.26355 0.38895 0.0
O813 O 0.27288 0.19414 0.30853 0.0
C814 C 0.20849 0.14272 0.33883 0.0
C815 C 0.25167 0.34451 0.51647 0.0
O816 O 0.23233 0.37863 0.53456 0.0
C817 C 0.25619 1.06023 0.52374 0.0
C818 C 0.26763 0.25436 0.32519 0.0
O819 O 0.25281 0.28422 0.53869 0.0
C820 C 0.34661 0.24526 0.47882 0.0
C821 C 0.38219 0.26134 0.40157 0.0
C822 C 0.35806 0.23863 0.41263 0.0
C823 C 0.35958 0.27626 0.53357 0.0
C824 C 0.3838 0.29906 0.52341 0.0
C825 C 0.3951 0.29005 0.45764 0.0
C826 C 0.29073 1.01568 0.35942 0.0
O827 O 0.30071 1.05325 0.40722 0.0
O828 O 0.30726 0.2419 0.53941 0.0
O829 O 0.31079 0.18428 0.4419 0.0
H830 H 0.18126 1.04684 0.40679 0.0
H831 H 0.11317 0.15386 0.40549 0.0
H832 H 0.1772 0.23281 0.3058 0.0
H833 H 0.34832 0.21566 0.3695 0.0
H834 H 0.35074 0.28356 0.58414 0.0
H835 H 0.41325 0.31017 0.4483 0.0
C836 C 0.5936 0.13742 0.3818 0.0
C837 C 0.60497 1.08736 0.34312 0.0
C838 C 0.63021 1.09216 0.32473 0.0
C839 C 0.64344 0.14751 0.34481 0.0
C840 C 0.63179 0.19885 0.3797 0.0
C841 C 0.60724 0.19235 0.4002 0.0
O842 O 0.52366 1.05067 0.27502 0.0
Tb843 Tb 0.52307 0.11842 0.36514 0.0
O844 O 0.50354 1.03737 0.4085 0.0
O845 O 0.51249 0.11792 0.18474 0.0
Eu846 Eu 0.50076 0.20729 0.24799 0.0
O847 O 0.5544 1.09752 0.42686 0.0
C848 C 0.45308 0.21495 0.23813 0.0
O849 O 0.55434 0.17179 0.34196 0.0
O850 O 0.51594 0.26356 0.34253 0.0
O851 O 0.50245 0.19415 0.42295 0.0
C852 C 0.56683 0.14271 0.39264 0.0
C853 C 0.52367 0.34451 0.21501 0.0
O854 O 0.54301 0.37864 0.19694 0.0
C855 C 0.51913 1.06022 0.20776 0.0
C856 C 0.5077 0.25437 0.40629 0.0
O857 O 0.52253 0.28422 0.1928 0.0
C858 C 0.42873 0.24526 0.25266 0.0
C859 C 0.39315 0.26134 0.3299 0.0
C860 C 0.41728 0.23863 0.31885 0.0
C861 C 0.41576 0.27626 0.19791 0.0
C862 C 0.39154 0.29906 0.20806 0.0
C863 C 0.38024 0.29005 0.27384 0.0
C864 C 0.48458 1.01572 0.37215 0.0
O865 O 0.4746 1.05317 0.32425 0.0
O866 O 0.46808 0.2419 0.19207 0.0
O867 O 0.46455 0.18427 0.28957 0.0
H868 H 0.59407 1.04684 0.32468 0.0
H869 H 0.66216 0.15387 0.326 0.0
H870 H 0.59812 0.23281 0.42568 0.0
H871 H 0.42702 0.21566 0.36198 0.0
H872 H 0.4246 0.28356 0.14734 0.0
H873 H 0.36209 0.31017 0.28318 0.0
C874 C 0.1818 0.8248 0.3817 0.0
C875 C 0.17041 0.87487 0.34307 0.0
C876 C 0.14516 0.87005 0.32474 0.0
C877 C 0.13194 0.81469 0.34485 0.0
C878 C 0.14361 0.76335 0.3797 0.0
C879 C 0.16818 0.76986 0.40012 0.0
O880 O 0.25182 0.91172 0.27515 0.0
Tb881 Tb 0.25235 0.8439 0.3652 0.0
O882 O 0.27181 0.92496 0.40878 0.0
O883 O 0.26276 0.84436 0.18477 0.0
Eu884 Eu 0.27453 0.75502 0.24802 0.0
O885 O 0.221 0.86463 0.42688 0.0
C886 C 0.32222 0.74744 0.23817 0.0
O887 O 0.22107 0.79064 0.34169 0.0
O888 O 0.25937 0.69876 0.34257 0.0
O889 O 0.27297 0.7681 0.42294 0.0
C890 C 0.20857 0.81954 0.39247 0.0
C891 C 0.25165 0.61777 0.21505 0.0
O892 O 0.23232 0.58361 0.19696 0.0
C893 C 0.25623 0.90212 0.20783 0.0
C894 C 0.26766 0.7079 0.4063 0.0
O895 O 0.25278 0.67805 0.19282 0.0
C896 C 0.34658 0.71715 0.25269 0.0
C897 C 0.38217 0.70108 0.32991 0.0
C898 C 0.35804 0.72379 0.31887 0.0
C899 C 0.35954 0.68614 0.19793 0.0
C900 C 0.38376 0.66334 0.20806 0.0
C901 C 0.39507 0.67236 0.27383 0.0
C902 C 0.29078 0.94672 0.37256 0.0
O903 O 0.30082 0.90932 0.32472 0.0
O904 O 0.30722 0.72047 0.19211 0.0
O905 O 0.31075 0.77811 0.2896 0.0
H906 H 0.1813 0.91539 0.32462 0.0
H907 H 0.11322 0.80833 0.32609 0.0
H908 H 0.17731 0.72939 0.42556 0.0
H909 H 0.34831 0.74675 0.36201 0.0
H910 H 0.35068 0.67883 0.14737 0.0
H911 H 0.41323 0.65224 0.28315 0.0
C912 C 0.59638 0.99302 0.00354 0.0
C913 C 0.60915 1.02495 0.94887 0.0
C914 C 0.63341 1.04785 0.95883 0.0
C915 C 0.64485 1.0382 0.02422 0.0
C916 C 0.63212 1.00885 0.08007 0.0
C917 C 0.60804 0.98593 0.06934 0.0
O918 O 0.5118 1.00951 0.09251 0.0
Tb919 Tb 0.52627 0.95443 0.00066 0.0
O920 O 0.50575 1.02932 0.9466 0.0
O921 O 0.52543 0.94465 0.17727 0.0
Eu922 Eu 0.50386 0.86633 0.11947 0.0
O923 O 0.55702 0.98753 0.94346 0.0
C924 C 0.45842 0.89081 0.14876 0.0
O925 O 0.56091 0.93133 0.04147 0.0
O926 O 0.50353 0.79763 0.02567 0.0
O927 O 0.51456 0.86843 0.93847 0.0
C928 C 0.57229 0.96108 0.98916 0.0
C929 C 0.54416 0.76517 0.12396 0.0
O930 O 0.55282 0.80429 0.07564 0.0
C931 C 0.52029 1.00363 0.15687 0.0
C932 C 0.50827 0.80947 0.95922 0.0
O933 O 0.52565 0.78484 0.16334 0.0
C934 C 0.43168 0.88675 0.13606 0.0
C935 C 0.39361 0.94892 0.13248 0.0
C936 C 0.41807 0.94193 0.15408 0.0
C937 C 0.42048 0.83742 0.09585 0.0
C938 C 0.39541 0.84297 0.07599 0.0
C939 C 0.38214 0.89821 0.09621 0.0
C940 C 0.50501 1.09007 0.96772 0.0
O941 O 0.48572 0.12449 0.94978 0.0
O942 O 0.47057 0.8435 0.1803 0.0
O943 O 0.47121 0.92279 0.10106 0.0
H944 H 0.60018 1.03258 0.89854 0.0
H945 H 0.663 1.05838 0.03358 0.0
H946 H 0.59852 0.96231 0.11244 0.0
H947 H 0.42711 0.98206 0.18037 0.0
H948 H 0.43136 0.79682 0.07759 0.0
H949 H 0.36354 0.90501 0.07665 0.0
C950 C 0.67893 0.46915 0.00354 0.0
C951 C 0.66615 0.43723 0.94887 0.0
C952 C 0.64189 0.41435 0.95883 0.0
C953 C 0.63047 0.42399 0.02424 0.0
C954 C 0.64321 0.45332 0.08008 0.0
C955 C 0.66729 0.47623 0.06935 0.0
O956 O 0.76353 0.45277 0.09253 0.0
Tb957 Tb 0.74903 0.50784 0.00068 0.0
O958 O 0.76958 0.43297 0.94664 0.0
O959 O 0.74998 0.51769 0.17734 0.0
Eu960 Eu 0.77156 0.59595 0.11946 0.0
O961 O 0.71829 0.47467 0.94347 0.0
C962 C 0.81699 0.57153 0.14897 0.0
O963 O 0.7144 0.53085 0.04148 0.0
O964 O 0.77195 0.66457 0.02561 0.0
O965 O 0.7607 0.59388 0.9385 0.0
C966 C 0.70302 0.5011 0.98917 0.0
C967 C 0.7312 0.69697 0.12364 0.0
O968 O 0.7226 0.65779 0.07528 0.0
C969 C 0.75507 0.45869 0.15692 0.0
C970 C 0.7671 0.65278 0.95921 0.0
O971 O 0.7497 0.6774 0.16313 0.0
C972 C 0.84372 0.57561 0.13617 0.0
C973 C 0.8818 0.51344 0.1325 0.0
C974 C 0.85735 0.52043 0.15417 0.0
C975 C 0.85491 0.62493 0.09593 0.0
C976 C 0.87996 0.61938 0.076 0.0
C977 C 0.89325 0.56415 0.09618 0.0
C978 C 0.77033 0.37223 0.96777 0.0
O979 O 0.78962 0.33783 0.94982 0.0
O980 O 0.80484 0.61894 0.1803 0.0
O981 O 0.8042 0.53938 0.1014 0.0
H982 H 0.67512 0.42961 0.89853 0.0
H983 H 0.61232 0.40381 0.0336 0.0
H984 H 0.67682 0.49985 0.11245 0.0
H985 H 0.84832 0.48031 0.1805 0.0
H986 H 0.84401 0.66552 0.07769 0.0
H987 H 0.91184 0.55735 0.07658 0.0
C988 C 0.59641 0.46916 0.22794 0.0
C989 C 0.60918 0.43723 0.28262 0.0
C990 C 0.63345 0.41435 0.27265 0.0
C991 C 0.64488 0.42399 0.20726 0.0
C992 C 0.63214 0.45332 0.15141 0.0
C993 C 0.60805 0.47624 0.16214 0.0
O994 O 0.51182 0.45279 0.13894 0.0
Tb995 Tb 0.52631 0.50786 0.23079 0.0
O996 O 0.50576 0.433 0.28482 0.0
O997 O 0.52534 0.51772 0.05412 0.0
Eu998 Eu 0.50376 0.59596 0.11202 0.0
O999 O 0.55705 0.47469 0.28801 0.0
C1000 C 0.45833 0.57156 0.08246 0.0
O1001 O 0.56095 0.53086 0.18999 0.0
O1002 O 0.50337 0.66458 0.20587 0.0
O1003 O 0.51465 0.59391 0.29297 0.0
C1004 C 0.57232 0.5011 0.24231 0.0
C1005 C 0.54415 0.6969 0.10782 0.0
O1006 O 0.55274 0.65782 0.15629 0.0
C1007 C 0.52027 0.45871 0.07455 0.0
C1008 C 0.50823 0.6528 0.27227 0.0
O1009 O 0.52564 0.67735 0.06833 0.0
C1010 C 0.4316 0.57563 0.09528 0.0
C1011 C 0.39353 0.51346 0.09898 0.0
C1012 C 0.41797 0.52046 0.0773 0.0
C1013 C 0.42041 0.62496 0.13553 0.0
C1014 C 0.39536 0.61941 0.15547 0.0
C1015 C 0.38207 0.56417 0.1353 0.0
C1016 C 0.505 0.37226 0.26369 0.0
O1017 O 0.48571 0.33786 0.28164 0.0
O1018 O 0.47048 0.61902 0.0512 0.0
O1019 O 0.47112 0.53935 0.12998 0.0
H1020 H 0.60022 0.42962 0.33295 0.0
H1021 H 0.66302 0.40381 0.19789 0.0
H1022 H 0.59853 0.49985 0.11903 0.0
H1023 H 0.427 0.48033 0.05097 0.0
H1024 H 0.43131 0.66556 0.15375 0.0
H1025 H 0.36348 0.55737 0.15492 0.0
C1026 C 0.67894 0.99302 0.22793 0.0
C1027 C 0.66618 1.02496 0.2826 0.0
C1028 C 0.64191 1.04785 0.27264 0.0
C1029 C 0.63047 1.0382 0.20724 0.0
C1030 C 0.6432 1.00885 0.1514 0.0
C1031 C 0.66729 0.98593 0.16213 0.0
O1032 O 0.76353 1.00949 0.13896 0.0
Tb1033 Tb 0.74905 0.95441 0.23081 0.0
O1034 O 0.76958 1.02931 0.28487 0.0
O1035 O 0.7499 0.94463 0.05419 0.0
Eu1036 Eu 0.77148 0.86632 0.112 0.0
O1037 O 0.7183 0.98753 0.28801 0.0
C1038 C 0.81692 0.89078 0.08265 0.0
O1039 O 0.71441 0.93133 0.19 0.0
O1040 O 0.77183 0.79763 0.2058 0.0
O1041 O 0.76075 0.86841 0.29299 0.0
C1042 C 0.70303 0.96108 0.2423 0.0
C1043 C 0.73115 0.76524 0.10751 0.0
O1044 O 0.7225 0.80426 0.15594 0.0
C1045 C 0.75504 1.00362 0.0746 0.0
C1046 C 0.76707 0.80946 0.27225 0.0
O1047 O 0.74966 0.78489 0.06812 0.0
C1048 C 0.84366 0.88672 0.09539 0.0
C1049 C 0.88173 0.9489 0.09899 0.0
C1050 C 0.85728 0.94191 0.07738 0.0
C1051 C 0.85486 0.83739 0.1356 0.0
C1052 C 0.87992 0.84295 0.15548 0.0
C1053 C 0.8932 0.89818 0.13527 0.0
C1054 C 0.77032 1.09005 0.26373 0.0
O1055 O 0.78962 0.12447 0.28168 0.0
O1056 O 0.80477 0.84344 0.05119 0.0
O1057 O 0.80413 0.92283 0.1303 0.0
H1058 H 0.67515 1.03258 0.33293 0.0
H1059 H 0.61233 1.05838 0.19789 0.0
H1060 H 0.67681 0.96231 0.11902 0.0
H1061 H 0.84823 0.98204 0.05108 0.0
H1062 H 0.84397 0.79679 0.15384 0.0
H1063 H 0.9118 0.90498 0.15484 0.0
C1064 C 0.59354 0.3248 0.84979 0.0
C1065 C 0.60492 0.37487 0.88842 0.0
C1066 C 0.63017 0.37005 0.90675 0.0
C1067 C 0.64339 0.31469 0.88664 0.0
C1068 C 0.63172 0.26336 0.85179 0.0
C1069 C 0.60716 0.26986 0.83137 0.0
O1070 O 0.52352 0.41173 0.95634 0.0
Tb1071 Tb 0.52299 0.3439 0.86628 0.0
O1072 O 0.50354 0.425 0.82273 0.0
O1073 O 0.51258 0.34436 0.04672 0.0
Eu1074 Eu 0.5008 0.25502 0.98347 0.0
O1075 O 0.55433 0.36461 0.80459 0.0
C1076 C 0.45312 0.24744 -0.00669 0.0
O1077 O 0.55426 0.29067 0.88983 0.0
O1078 O 0.51597 0.19877 0.88891 0.0
O1079 O 0.50237 0.2681 0.80855 0.0
C1080 C 0.56676 0.31954 0.83903 0.0
C1081 C 0.52368 0.11777 0.01643 0.0
O1082 O 0.54302 1.08361 0.03452 0.0
C1083 C 0.51911 0.40212 0.02365 0.0
C1084 C 0.50768 0.20791 0.82519 0.0
O1085 O 0.52256 0.17805 0.03866 0.0
C1086 C 0.42876 0.21714 0.97879 0.0
C1087 C 0.39316 0.20108 0.90157 0.0
C1088 C 0.41729 0.22379 0.91261 0.0
C1089 C 0.4158 0.18613 0.03355 0.0
C1090 C 0.39158 0.16333 0.02341 0.0
C1091 C 0.38027 0.17235 0.95765 0.0
C1092 C 0.48457 0.44676 0.85896 0.0
O1093 O 0.47453 0.40927 0.9067 0.0
O1094 O 0.46812 0.22047 0.03938 0.0
O1095 O 0.46459 0.2781 0.94188 0.0
H1096 H 0.59404 0.4154 0.90688 0.0
H1097 H 0.66211 0.30834 0.9054 0.0
H1098 H 0.59802 0.2294 0.80593 0.0
H1099 H 0.42703 0.24676 0.86948 0.0
H1100 H 0.42466 0.17882 0.08411 0.0
H1101 H 0.36211 0.15223 0.94833 0.0
C1102 C 0.18173 0.63742 0.84969 0.0
C1103 C 0.17037 0.58736 0.88837 0.0
C1104 C 0.14512 0.59217 0.90676 0.0
C1105 C 0.13189 0.64752 0.88667 0.0
C1106 C 0.14354 0.69885 0.85178 0.0
C1107 C 0.16809 0.69235 0.83128 0.0
O1108 O 0.25166 0.55068 0.95647 0.0
Tb1109 Tb 0.25226 0.61842 0.86634 0.0
O1110 O 0.27178 0.53733 0.82302 0.0
O1111 O 0.26284 0.61792 0.04675 0.0
Eu1112 Eu 0.27457 0.70729 0.9835 0.0
O1113 O 0.22093 0.59753 0.80461 0.0
C1114 C 0.32225 0.71495 -0.00666 0.0
O1115 O 0.22099 0.67178 0.88954 0.0
O1116 O 0.25939 0.76355 0.88895 0.0
O1117 O 0.27289 0.69414 0.80853 0.0
C1118 C 0.2085 0.64272 0.83885 0.0
C1119 C 0.25166 0.84451 0.01646 0.0
O1120 O 0.23232 0.87864 0.03456 0.0
C1121 C 0.25619 0.56023 0.02373 0.0
C1122 C 0.26763 0.75436 0.82519 0.0
O1123 O 0.2528 0.78422 0.03868 0.0
C1124 C 0.34661 0.74526 0.97881 0.0
C1125 C 0.38218 0.76133 0.90157 0.0
C1126 C 0.35805 0.73863 0.91263 0.0
C1127 C 0.35958 0.77626 0.03357 0.0
C1128 C 0.3838 0.79906 0.02341 0.0
C1129 C 0.39509 0.79005 0.95763 0.0
C1130 C 0.29073 0.51567 0.85938 0.0
O1131 O 0.30071 0.55323 0.90718 0.0
O1132 O 0.30725 0.7419 0.03941 0.0
O1133 O 0.31079 0.68427 0.94191 0.0
H1134 H 0.18126 0.54685 0.90681 0.0
H1135 H 0.11318 0.65387 0.90549 0.0
H1136 H 0.17721 0.73281 0.8058 0.0
H1137 H 0.34832 0.71566 0.8695 0.0
H1138 H 0.35073 0.78356 0.08414 0.0
H1139 H 0.41325 0.81017 0.94829 0.0
C1140 C 0.59361 0.63741 0.88182 0.0
C1141 C 0.60497 0.58735 0.84314 0.0
C1142 C 0.63021 0.59215 0.82474 0.0
C1143 C 0.64345 0.64751 0.84481 0.0
C1144 C 0.6318 0.69884 0.87971 0.0
C1145 C 0.60724 0.69234 0.90021 0.0
O1146 O 0.52368 0.55068 0.77501 0.0
Tb1147 Tb 0.52308 0.61842 0.86514 0.0
O1148 O 0.50354 0.53738 0.90847 0.0
O1149 O 0.51249 0.61791 0.68473 0.0
Eu1150 Eu 0.50076 0.70729 0.74799 0.0
O1151 O 0.5544 0.59749 0.92686 0.0
C1152 C 0.45307 0.71495 0.73813 0.0
O1153 O 0.55435 0.6718 0.84201 0.0
O1154 O 0.51594 0.76356 0.84253 0.0
O1155 O 0.50245 0.69414 0.92295 0.0
C1156 C 0.56684 0.64271 0.89268 0.0
C1157 C 0.52367 0.84451 0.71502 0.0
O1158 O 0.54301 0.87863 0.69693 0.0
C1159 C 0.51914 0.56023 0.70775 0.0
C1160 C 0.5077 0.75436 0.90629 0.0
O1161 O 0.52253 0.78422 0.6928 0.0
C1162 C 0.42872 0.74526 0.75266 0.0
C1163 C 0.39315 0.76133 0.8299 0.0
C1164 C 0.41727 0.73862 0.81884 0.0
C1165 C 0.41575 0.77626 0.6979 0.0
C1166 C 0.39153 0.79906 0.70806 0.0
C1167 C 0.38024 0.79005 0.77384 0.0
C1168 C 0.48458 0.51573 0.87209 0.0
O1169 O 0.47461 0.55319 0.82419 0.0
O1170 O 0.46808 0.7419 0.69207 0.0
O1171 O 0.46454 0.68427 0.78957 0.0
H1172 H 0.59407 0.54683 0.82471 0.0
H1173 H 0.66216 0.65386 0.82599 0.0
H1174 H 0.59813 0.73281 0.92569 0.0
H1175 H 0.42701 0.71566 0.86198 0.0
H1176 H 0.4246 0.78356 0.64734 0.0
H1177 H 0.36208 0.81017 0.78317 0.0
C1178 C 0.18179 0.3248 0.88173 0.0
C1179 C 0.17041 0.37487 0.8431 0.0
C1180 C 0.14516 0.37005 0.82476 0.0
C1181 C 0.13194 0.31469 0.84487 0.0
C1182 C 0.14361 0.26336 0.87971 0.0
C1183 C 0.16817 0.26986 0.90014 0.0
O1184 O 0.2518 0.41171 0.77514 0.0
Tb1185 Tb 0.25234 0.34389 0.8652 0.0
O1186 O 0.27181 0.42495 0.90875 0.0
O1187 O 0.26277 0.34437 0.68477 0.0
Eu1188 Eu 0.27454 0.25502 0.74802 0.0
O1189 O 0.221 0.36464 0.92689 0.0
C1190 C 0.32223 0.24744 0.73818 0.0
O1191 O 0.22106 0.29062 0.84174 0.0
O1192 O 0.25937 0.19876 0.84257 0.0
O1193 O 0.27296 0.2681 0.92294 0.0
C1194 C 0.20857 0.31954 0.89251 0.0
C1195 C 0.25166 0.11777 0.71505 0.0
O1196 O 0.23232 1.08362 0.69696 0.0
C1197 C 0.25623 0.40212 0.70783 0.0
C1198 C 0.26766 0.2079 0.90629 0.0
O1199 O 0.25279 0.17806 0.69282 0.0
C1200 C 0.34659 0.21715 0.7527 0.0
C1201 C 0.38218 0.20108 0.82991 0.0
C1202 C 0.35805 0.22379 0.81888 0.0
C1203 C 0.35955 0.18614 0.69794 0.0
C1204 C 0.38377 0.16334 0.70807 0.0
C1205 C 0.39508 0.17236 0.77383 0.0
C1206 C 0.29078 0.4467 0.87252 0.0
O1207 O 0.30081 0.40931 0.82467 0.0
O1208 O 0.30723 0.22047 0.69211 0.0
O1209 O 0.31076 0.2781 0.78962 0.0
H1210 H 0.1813 0.4154 0.82465 0.0
H1211 H 0.11322 0.30834 0.8261 0.0
H1212 H 0.1773 0.22939 0.92558 0.0
H1213 H 0.34832 0.24676 0.86201 0.0
H1214 H 0.35069 0.17883 0.64738 0.0
H1215 H 0.41324 0.15224 0.78315 0.0
loop_
_geom_bond_atom_site_label_1
_geom_bond_atom_site_label_2
_geom_bond_distance
_geom_bond_site_symmetry_2
_ccdc_geom_bond_type
C0 C1 1.387 . S
C0 C5 1.380 . S
C0 C16 1.494 1_554 S
C1 C0 1.387 . S
C1 C2 1.386 . S
C1 H32 0.936 . S
C2 C1 1.386 . S
C2 C3 1.397 . S
C3 C2 1.397 . S
C3 C4 1.393 . S
C3 H33 0.930 . S
C4 C3 1.393 . S
C4 C5 1.395 . S
C5 C0 1.380 . S
C5 C4 1.395 . S
C5 H34 0.930 . S
O6 Tb7 2.295 1_554 S
O6 C19 1.242 . S
Tb7 O6 2.295 1_556 S
Tb7 O8 2.312 . S
Tb7 O11 2.438 . S
Tb7 O13 2.472 . S
Tb7 O15 2.308 . S
Tb7 C16 2.821 . S
O8 Tb7 2.312 . S
O8 C28 1.264 1_455 S
O9 Eu10 2.308 . S
O9 C19 1.243 1_655 S
Eu10 O9 2.308 . S
Eu10 C12 2.821 . S
Eu10 O14 2.295 1_554 S
Eu10 O21 2.305 1_655 S
Eu10 O30 2.438 . S
Eu10 O31 2.472 . S
O11 Tb7 2.438 . S
O11 C16 1.263 . S
C12 Eu10 2.821 . S
C12 C22 1.494 . S
C12 O30 1.263 . S
C12 O31 1.264 . S
O13 Tb7 2.472 . S
O13 C16 1.264 . S
O14 Eu10 2.295 1_556 S
O14 C20 1.243 . S
O15 Tb7 2.308 . S
O15 C20 1.240 1_455 S
C16 C0 1.494 1_556 S
C16 Tb7 2.821 . S
C16 O11 1.263 . S
C16 O13 1.264 . S
C17 O18 1.260 . S
C17 O21 1.283 . S
O18 C17 1.260 . S
C19 O6 1.242 . S
C19 O9 1.243 1_455 S
C20 O14 1.243 . S
C20 O15 1.240 1_655 S
O21 Eu10 2.305 1_455 S
O21 C17 1.283 . S
C22 C12 1.494 . S
C22 C24 1.380 . S
C22 C25 1.387 . S
C23 C24 1.395 1_556 S
C23 C27 1.393 . S
C24 C22 1.380 . S
C24 C23 1.395 1_554 S
C24 H35 0.930 . S
C25 C22 1.387 . S
C25 C26 1.386 1_554 S
C25 H36 0.930 . S
C26 C25 1.386 1_556 S
C26 C27 1.397 . S
C27 C23 1.393 . S
C27 C26 1.397 . S
C27 H37 0.930 . S
C28 O8 1.264 1_655 S
C28 O29 1.260 . S
O29 C28 1.260 . S
O30 Eu10 2.438 . S
O30 C12 1.263 . S
O31 Eu10 2.472 . S
O31 C12 1.264 . S
H32 C1 0.936 . S
H33 C3 0.930 . S
H34 C5 0.930 . S
H35 C24 0.930 . S
H36 C25 0.930 . S
H37 C27 0.930 . S
C38 C39 1.387 . S
C38 C43 1.380 . S
C38 C54 1.494 1_554 S
C39 C38 1.387 . S
C39 C40 1.386 . S
C39 H70 0.936 . S
C40 C39 1.386 . S
C40 C41 1.397 . S
C41 C40 1.397 . S
C41 C42 1.393 . S
C41 H71 0.930 . S
C42 C41 1.393 . S
C42 C43 1.395 . S
C43 C38 1.380 . S
C43 C42 1.395 . S
C43 H72 0.930 . S
O44 Tb45 2.295 1_554 S
O44 C57 1.242 . S
Tb45 O44 2.295 1_556 S
Tb45 O46 2.312 . S
Tb45 O49 2.438 . S
Tb45 O51 2.472 . S
Tb45 O53 2.308 . S
Tb45 C54 2.821 . S
O46 Tb45 2.312 . S
O46 C66 1.264 . S
O47 Eu48 2.308 . S
O47 C57 1.243 . S
Eu48 O47 2.308 . S
Eu48 C50 2.821 . S
Eu48 O52 2.295 1_554 S
Eu48 O59 2.312 1_565 S
Eu48 O68 2.438 1_565 S
Eu48 O69 2.472 . S
O49 Tb45 2.438 . S
O49 C54 1.263 . S
C50 Eu48 2.821 . S
C50 C60 1.494 . S
C50 O68 1.263 1_565 S
C50 O69 1.264 . S
O51 Tb45 2.472 . S
O51 C54 1.264 . S
O52 Eu48 2.295 1_556 S
O52 C58 1.242 . S
O53 Tb45 2.308 . S
O53 C58 1.243 . S
C54 C38 1.494 1_556 S
C54 Tb45 2.821 . S
C54 O49 1.263 . S
C54 O51 1.264 . S
C55 O56 1.260 . S
C55 O59 1.264 . S
O56 C55 1.260 . S
C57 O44 1.242 . S
C57 O47 1.243 . S
C58 O52 1.242 . S
C58 O53 1.243 . S
O59 Eu48 2.312 1_545 S
O59 C55 1.264 . S
C60 C50 1.494 . S
C60 C62 1.380 . S
C60 C63 1.387 1_565 S
C61 C62 1.395 1_556 S
C61 C65 1.393 . S
C62 C60 1.380 . S
C62 C61 1.395 1_554 S
C62 H73 0.930 . S
C63 C60 1.387 1_545 S
C63 C64 1.386 1_554 S
C63 H74 0.930 . S
C64 C63 1.386 1_556 S
C64 C65 1.397 1_545 S
C65 C61 1.393 . S
C65 C64 1.397 1_565 S
C65 H75 0.930 . S
C66 O46 1.264 . S
C66 O67 1.260 . S
O67 C66 1.260 . S
O68 Eu48 2.438 1_545 S
O68 C50 1.263 1_545 S
O69 Eu48 2.472 . S
O69 C50 1.264 . S
H70 C39 0.936 . S
H71 C41 0.930 . S
H72 C43 0.930 . S
H73 C62 0.930 . S
H74 C63 0.930 . S
H75 C65 0.930 . S
C76 C77 1.387 . S
C76 C81 1.380 . S
C76 C92 1.494 . S
C77 C76 1.387 . S
C77 C78 1.386 . S
C77 H108 0.930 . S
C78 C77 1.386 . S
C78 C79 1.397 . S
C79 C78 1.397 . S
C79 C80 1.393 . S
C79 H109 0.930 . S
C80 C79 1.393 . S
C80 C81 1.395 . S
C81 C76 1.380 . S
C81 C80 1.395 . S
C81 H110 0.930 . S
O82 Tb83 2.295 . S
O82 C95 1.242 . S
Tb83 O82 2.295 . S
Tb83 O84 2.312 . S
Tb83 O87 2.438 . S
Tb83 O89 2.472 . S
Tb83 O91 2.308 . S
Tb83 C92 2.821 . S
O84 Tb83 2.312 . S
O84 C104 1.264 1_455 S
O85 Eu86 2.308 . S
O85 C95 1.243 1_655 S
Eu86 O85 2.308 . S
Eu86 C88 2.821 . S
Eu86 O90 2.295 . S
Eu86 O97 2.305 1_665 S
Eu86 O106 2.438 1_565 S
Eu86 O107 2.472 . S
O87 Tb83 2.438 . S
O87 C92 1.263 . S
C88 Eu86 2.821 . S
C88 C98 1.494 . S
C88 O106 1.263 1_565 S
C88 O107 1.264 . S
O89 Tb83 2.472 . S
O89 C92 1.264 . S
O90 Eu86 2.295 . S
O90 C96 1.243 . S
O91 Tb83 2.308 . S
O91 C96 1.240 1_455 S
C92 C76 1.494 . S
C92 Tb83 2.821 . S
C92 O87 1.263 . S
C92 O89 1.264 . S
C93 O94 1.260 . S
C93 O97 1.283 . S
O94 C93 1.260 . S
C95 O82 1.242 . S
C95 O85 1.243 1_455 S
C96 O90 1.243 . S
C96 O91 1.240 1_655 S
O97 Eu86 2.305 1_445 S
O97 C93 1.283 . S
C98 C88 1.494 . S
C98 C100 1.380 . S
C98 C101 1.387 1_565 S
C99 C100 1.395 . S
C99 C103 1.393 . S
C100 C98 1.380 . S
C100 C99 1.395 . S
C100 H111 0.930 . S
C101 C98 1.387 1_545 S
C101 C102 1.386 . S
C101 H112 0.930 . S
C102 C101 1.386 . S
C102 C103 1.397 1_545 S
C103 C99 1.393 . S
C103 C102 1.397 1_565 S
C103 H113 0.930 . S
C104 O84 1.264 1_655 S
C104 O105 1.260 . S
O105 C104 1.260 . S
O106 Eu86 2.438 1_545 S
O106 C88 1.263 1_545 S
O107 Eu86 2.472 . S
O107 C88 1.264 . S
H108 C77 0.930 . S
H109 C79 0.930 . S
H110 C81 0.930 . S
H111 C100 0.930 . S
H112 C101 0.930 . S
H113 C103 0.930 . S
C114 C115 1.387 . S
C114 C119 1.380 . S
C114 C130 1.494 . S
C115 C114 1.387 . S
C115 C116 1.386 . S
C115 H146 0.930 . S
C116 C115 1.386 . S
C116 C117 1.397 . S
C117 C116 1.397 . S
C117 C118 1.393 . S
C117 H147 0.930 . S
C118 C117 1.393 . S
C118 C119 1.395 . S
C119 C114 1.380 . S
C119 C118 1.395 . S
C119 H148 0.930 . S
O120 Tb121 2.295 . S
O120 C133 1.242 . S
Tb121 O120 2.295 . S
Tb121 O122 2.312 . S
Tb121 O125 2.438 . S
Tb121 O127 2.472 . S
Tb121 O129 2.308 . S
Tb121 C130 2.821 . S
O122 Tb121 2.312 . S
O122 C142 1.264 . S
O123 Eu124 2.308 . S
O123 C133 1.243 . S
Eu124 O123 2.308 . S
Eu124 C126 2.821 . S
Eu124 O128 2.295 . S
Eu124 O135 2.312 . S
Eu124 O144 2.438 . S
Eu124 O145 2.472 . S
O125 Tb121 2.438 . S
O125 C130 1.263 . S
C126 Eu124 2.821 . S
C126 C136 1.494 . S
C126 O144 1.263 . S
C126 O145 1.264 . S
O127 Tb121 2.472 . S
O127 C130 1.264 . S
O128 Eu124 2.295 . S
O128 C134 1.242 . S
O129 Tb121 2.308 . S
O129 C134 1.243 . S
C130 C114 1.494 . S
C130 Tb121 2.821 . S
C130 O125 1.263 . S
C130 O127 1.264 . S
C131 O132 1.260 . S
C131 O135 1.264 . S
O132 C131 1.260 . S
C133 O120 1.242 . S
C133 O123 1.243 . S
C134 O128 1.242 . S
C134 O129 1.243 . S
O135 Eu124 2.312 . S
O135 C131 1.264 . S
C136 C126 1.494 . S
C136 C138 1.380 . S
C136 C139 1.387 . S
C137 C138 1.395 . S
C137 C141 1.393 . S
C138 C136 1.380 . S
C138 C137 1.395 . S
C138 H149 0.930 . S
C139 C136 1.387 . S
C139 C140 1.386 . S
C139 H150 0.930 . S
C140 C139 1.386 . S
C140 C141 1.397 . S
C141 C137 1.393 . S
C141 C140 1.397 . S
C141 H151 0.930 . S
C142 O122 1.264 . S
C142 O143 1.260 . S
O143 C142 1.260 . S
O144 Eu124 2.438 . S
O144 C126 1.263 . S
O145 Eu124 2.472 . S
O145 C126 1.264 . S
H146 C115 0.930 . S
H147 C117 0.930 . S
H148 C119 0.930 . S
H149 C138 0.930 . S
H150 C139 0.930 . S
H151 C141 0.930 . S
C152 C153 1.387 . S
C152 C157 1.380 . S
C152 C168 1.494 . S
C153 C152 1.387 . S
C153 C154 1.386 1_556 S
C153 H184 0.930 . S
C154 C153 1.386 1_554 S
C154 C155 1.397 . S
C155 C154 1.397 . S
C155 C156 1.393 . S
C155 H185 0.930 . S
C156 C155 1.393 . S
C156 C157 1.395 1_554 S
C157 C152 1.380 . S
C157 C156 1.395 1_556 S
C157 H186 0.930 . S
O158 Tb159 2.295 1_554 S
O158 C171 1.243 . S
Tb159 O158 2.295 1_556 S
Tb159 O160 2.305 1_455 S
Tb159 O163 2.438 . S
Tb159 O165 2.472 . S
Tb159 O167 2.308 . S
Tb159 C168 2.821 . S
O160 Tb159 2.305 1_655 S
O160 C180 1.283 . S
O161 Eu162 2.308 . S
O161 C171 1.240 1_655 S
Eu162 O161 2.308 . S
Eu162 C164 2.821 . S
Eu162 O166 2.295 1_554 S
Eu162 O173 2.312 . S
Eu162 O182 2.438 . S
Eu162 O183 2.472 . S
O163 Tb159 2.438 . S
O163 C168 1.263 . S
C164 Eu162 2.821 . S
C164 C174 1.494 1_554 S
C164 O182 1.263 . S
C164 O183 1.264 . S
O165 Tb159 2.472 . S
O165 C168 1.264 . S
O166 Eu162 2.295 1_556 S
O166 C172 1.242 . S
O167 Tb159 2.308 . S
O167 C172 1.243 1_455 S
C168 C152 1.494 . S
C168 Tb159 2.821 . S
C168 O163 1.263 . S
C168 O165 1.264 . S
C169 O170 1.260 . S
C169 O173 1.264 1_455 S
O170 C169 1.260 . S
C171 O158 1.243 . S
C171 O161 1.240 1_455 S
C172 O166 1.242 . S
C172 O167 1.243 1_655 S
O173 Eu162 2.312 . S
O173 C169 1.264 1_655 S
C174 C164 1.494 1_556 S
C174 C176 1.380 . S
C174 C177 1.387 . S
C175 C176 1.395 . S
C175 C179 1.393 . S
C176 C174 1.380 . S
C176 C175 1.395 . S
C176 H187 0.930 . S
C177 C174 1.387 . S
C177 C178 1.386 . S
C177 H188 0.936 . S
C178 C177 1.386 . S
C178 C179 1.397 . S
C179 C175 1.393 . S
C179 C178 1.397 . S
C179 H189 0.930 . S
C180 O160 1.283 . S
C180 O181 1.260 . S
O181 C180 1.260 . S
O182 Eu162 2.438 . S
O182 C164 1.263 . S
O183 Eu162 2.472 . S
O183 C164 1.264 . S
H184 C153 0.930 . S
H185 C155 0.930 . S
H186 C157 0.930 . S
H187 C176 0.930 . S
H188 C177 0.936 . S
H189 C179 0.930 . S
C190 C191 1.387 1_545 S
C190 C195 1.380 . S
C190 C206 1.494 . S
C191 C190 1.387 1_565 S
C191 C192 1.386 1_556 S
C191 H222 0.930 . S
C192 C191 1.386 1_554 S
C192 C193 1.397 1_565 S
C193 C192 1.397 1_545 S
C193 C194 1.393 . S
C193 H223 0.930 . S
C194 C193 1.393 . S
C194 C195 1.395 1_554 S
C195 C190 1.380 . S
C195 C194 1.395 1_556 S
C195 H224 0.930 . S
O196 Tb197 2.295 1_554 S
O196 C209 1.242 . S
Tb197 O196 2.295 1_556 S
Tb197 O198 2.312 1_545 S
Tb197 O201 2.438 1_545 S
Tb197 O203 2.472 . S
Tb197 O205 2.308 . S
Tb197 C206 2.821 . S
O198 Tb197 2.312 1_565 S
O198 C218 1.264 . S
O199 Eu200 2.308 . S
O199 C209 1.243 . S
Eu200 O199 2.308 . S
Eu200 C202 2.821 . S
Eu200 O204 2.295 1_554 S
Eu200 O211 2.312 . S
Eu200 O220 2.438 . S
Eu200 O221 2.472 . S
O201 Tb197 2.438 1_565 S
O201 C206 1.263 1_565 S
C202 Eu200 2.821 . S
C202 C212 1.494 1_554 S
C202 O220 1.263 . S
C202 O221 1.264 . S
O203 Tb197 2.472 . S
O203 C206 1.264 . S
O204 Eu200 2.295 1_556 S
O204 C210 1.242 . S
O205 Tb197 2.308 . S
O205 C210 1.243 . S
C206 C190 1.494 . S
C206 Tb197 2.821 . S
C206 O201 1.263 1_545 S
C206 O203 1.264 . S
C207 O208 1.260 . S
C207 O211 1.264 . S
O208 C207 1.260 . S
C209 O196 1.242 . S
C209 O199 1.243 . S
C210 O204 1.242 . S
C210 O205 1.243 . S
O211 Eu200 2.312 . S
O211 C207 1.264 . S
C212 C202 1.494 1_556 S
C212 C214 1.380 . S
C212 C215 1.387 . S
C213 C214 1.395 . S
C213 C217 1.393 . S
C214 C212 1.380 . S
C214 C213 1.395 . S
C214 H225 0.930 . S
C215 C212 1.387 . S
C215 C216 1.386 . S
C215 H226 0.936 . S
C216 C215 1.386 . S
C216 C217 1.397 . S
C217 C213 1.393 . S
C217 C216 1.397 . S
C217 H227 0.930 . S
C218 O198 1.264 . S
C218 O219 1.260 . S
O219 C218 1.260 . S
O220 Eu200 2.438 . S
O220 C202 1.263 . S
O221 Eu200 2.472 . S
O221 C202 1.264 . S
H222 C191 0.930 . S
H223 C193 0.930 . S
H224 C195 0.930 . S
H225 C214 0.930 . S
H226 C215 0.936 . S
H227 C217 0.930 . S
C228 C229 1.387 1_545 S
C228 C233 1.380 . S
C228 C244 1.494 . S
C229 C228 1.387 1_565 S
C229 C230 1.386 . S
C229 H260 0.930 . S
C230 C229 1.386 . S
C230 C231 1.397 1_565 S
C231 C230 1.397 1_545 S
C231 C232 1.393 . S
C231 H261 0.930 . S
C232 C231 1.393 . S
C232 C233 1.395 . S
C233 C228 1.380 . S
C233 C232 1.395 . S
C233 H262 0.930 . S
O234 Tb235 2.295 . S
O234 C247 1.243 . S
Tb235 O234 2.295 . S
Tb235 O236 2.305 1_445 S
Tb235 O239 2.438 1_545 S
Tb235 O241 2.472 . S
Tb235 O243 2.308 . S
Tb235 C244 2.821 . S
O236 Tb235 2.305 1_665 S
O236 C256 1.283 . S
O237 Eu238 2.308 . S
O237 C247 1.240 1_655 S
Eu238 O237 2.308 . S
Eu238 C240 2.821 . S
Eu238 O242 2.295 . S
Eu238 O249 2.312 . S
Eu238 O258 2.438 . S
Eu238 O259 2.472 . S
O239 Tb235 2.438 1_565 S
O239 C244 1.263 1_565 S
C240 Eu238 2.821 . S
C240 C250 1.494 . S
C240 O258 1.263 . S
C240 O259 1.264 . S
O241 Tb235 2.472 . S
O241 C244 1.264 . S
O242 Eu238 2.295 . S
O242 C248 1.242 . S
O243 Tb235 2.308 . S
O243 C248 1.243 1_455 S
C244 C228 1.494 . S
C244 Tb235 2.821 . S
C244 O239 1.263 1_545 S
C244 O241 1.264 . S
C245 O246 1.260 . S
C245 O249 1.264 1_455 S
O246 C245 1.260 . S
C247 O234 1.243 . S
C247 O237 1.240 1_455 S
C248 O242 1.242 . S
C248 O243 1.243 1_655 S
O249 Eu238 2.312 . S
O249 C245 1.264 1_655 S
C250 C240 1.494 . S
C250 C252 1.380 . S
C250 C253 1.387 . S
C251 C252 1.395 . S
C251 C255 1.393 . S
C252 C250 1.380 . S
C252 C251 1.395 . S
C252 H263 0.930 . S
C253 C250 1.387 . S
C253 C254 1.386 . S
C253 H264 0.930 . S
C254 C253 1.386 . S
C254 C255 1.397 . S
C255 C251 1.393 . S
C255 C254 1.397 . S
C255 H265 0.930 . S
C256 O236 1.283 . S
C256 O257 1.260 . S
O257 C256 1.260 . S
O258 Eu238 2.438 . S
O258 C240 1.263 . S
O259 Eu238 2.472 . S
O259 C240 1.264 . S
H260 C229 0.930 . S
H261 C231 0.930 . S
H262 C233 0.930 . S
H263 C252 0.930 . S
H264 C253 0.930 . S
H265 C255 0.930 . S
C266 C267 1.387 . S
C266 C271 1.380 . S
C266 C282 1.494 . S
C267 C266 1.387 . S
C267 C268 1.386 . S
C267 H298 0.930 . S
C268 C267 1.386 . S
C268 C269 1.397 . S
C269 C268 1.397 . S
C269 C270 1.393 . S
C269 H299 0.930 . S
C270 C269 1.393 . S
C270 C271 1.395 . S
C271 C266 1.380 . S
C271 C270 1.395 . S
C271 H300 0.930 . S
O272 Tb273 2.295 . S
O272 C285 1.242 . S
Tb273 O272 2.295 . S
Tb273 O274 2.312 . S
Tb273 O277 2.438 . S
Tb273 O279 2.472 . S
Tb273 O281 2.308 . S
Tb273 C282 2.821 . S
O274 Tb273 2.312 . S
O274 C294 1.264 . S
O275 Eu276 2.308 . S
O275 C285 1.243 . S
Eu276 O275 2.308 . S
Eu276 C278 2.821 . S
Eu276 O280 2.295 . S
Eu276 O287 2.312 . S
Eu276 O296 2.438 . S
Eu276 O297 2.472 . S
O277 Tb273 2.438 . S
O277 C282 1.263 . S
C278 Eu276 2.821 . S
C278 C288 1.494 . S
C278 O296 1.263 . S
C278 O297 1.264 . S
O279 Tb273 2.472 . S
O279 C282 1.264 . S
O280 Eu276 2.295 . S
O280 C286 1.242 . S
O281 Tb273 2.308 . S
O281 C286 1.243 . S
C282 C266 1.494 . S
C282 Tb273 2.821 . S
C282 O277 1.263 . S
C282 O279 1.264 . S
C283 O284 1.260 . S
C283 O287 1.264 . S
O284 C283 1.260 . S
C285 O272 1.242 . S
C285 O275 1.243 . S
C286 O280 1.242 . S
C286 O281 1.243 . S
O287 Eu276 2.312 . S
O287 C283 1.264 . S
C288 C278 1.494 . S
C288 C290 1.380 . S
C288 C291 1.387 . S
C289 C290 1.395 . S
C289 C293 1.393 . S
C290 C288 1.380 . S
C290 C289 1.395 . S
C290 H301 0.930 . S
C291 C288 1.387 . S
C291 C292 1.386 . S
C291 H302 0.930 . S
C292 C291 1.386 . S
C292 C293 1.397 . S
C293 C289 1.393 . S
C293 C292 1.397 . S
C293 H303 0.930 . S
C294 O274 1.264 . S
C294 O295 1.260 . S
O295 C294 1.260 . S
O296 Eu276 2.438 . S
O296 C278 1.263 . S
O297 Eu276 2.472 . S
O297 C278 1.264 . S
H298 C267 0.930 . S
H299 C269 0.930 . S
H300 C271 0.930 . S
H301 C290 0.930 . S
H302 C291 0.930 . S
H303 C293 0.930 . S
C304 C305 1.387 . S
C304 C309 1.380 . S
C304 C320 1.494 . S
C305 C304 1.387 . S
C305 C306 1.386 . S
C305 H336 0.930 . S
C306 C305 1.386 . S
C306 C307 1.397 . S
C307 C306 1.397 . S
C307 C308 1.393 . S
C307 H337 0.930 . S
C308 C307 1.393 . S
C308 C309 1.395 . S
C309 C304 1.380 . S
C309 C308 1.395 . S
C309 H338 0.930 . S
O310 Tb311 2.295 . S
O310 C323 1.242 . S
Tb311 O310 2.295 . S
Tb311 O312 2.312 . S
Tb311 O315 2.438 . S
Tb311 O317 2.472 . S
Tb311 O319 2.308 . S
Tb311 C320 2.821 . S
O312 Tb311 2.312 . S
O312 C332 1.264 1_465 S
O313 Eu314 2.308 . S
O313 C323 1.243 1_655 S
Eu314 O313 2.308 . S
Eu314 C316 2.821 . S
Eu314 O318 2.295 . S
Eu314 O325 2.305 1_655 S
Eu314 O334 2.438 . S
Eu314 O335 2.472 . S
O315 Tb311 2.438 . S
O315 C320 1.263 . S
C316 Eu314 2.821 . S
C316 C326 1.494 . S
C316 O334 1.263 . S
C316 O335 1.264 . S
O317 Tb311 2.472 . S
O317 C320 1.264 . S
O318 Eu314 2.295 . S
O318 C324 1.243 . S
O319 Tb311 2.308 . S
O319 C324 1.240 1_455 S
C320 C304 1.494 . S
C320 Tb311 2.821 . S
C320 O315 1.263 . S
C320 O317 1.264 . S
C321 O322 1.260 . S
C321 O325 1.282 . S
O322 C321 1.260 . S
C323 O310 1.242 . S
C323 O313 1.243 1_455 S
C324 O318 1.243 . S
C324 O319 1.240 1_655 S
O325 Eu314 2.305 1_455 S
O325 C321 1.282 . S
C326 C316 1.494 . S
C326 C328 1.380 . S
C326 C329 1.387 . S
C327 C328 1.395 . S
C327 C331 1.393 . S
C328 C326 1.380 . S
C328 C327 1.395 . S
C328 H339 0.930 . S
C329 C326 1.387 . S
C329 C330 1.386 . S
C329 H340 0.930 . S
C330 C329 1.386 . S
C330 C331 1.397 . S
C331 C327 1.393 . S
C331 C330 1.397 . S
C331 H341 0.930 . S
C332 O312 1.264 1_645 S
C332 O333 1.260 1_545 S
O333 C332 1.260 1_565 S
O334 Eu314 2.438 . S
O334 C316 1.263 . S
O335 Eu314 2.472 . S
O335 C316 1.264 . S
H336 C305 0.930 . S
H337 C307 0.930 . S
H338 C309 0.930 . S
H339 C328 0.930 . S
H340 C329 0.930 . S
H341 C331 0.930 . S
C342 C343 1.387 . S
C342 C347 1.380 . S
C342 C358 1.494 . S
C343 C342 1.387 . S
C343 C344 1.386 . S
C343 H374 0.930 . S
C344 C343 1.386 . S
C344 C345 1.397 . S
C345 C344 1.397 . S
C345 C346 1.393 . S
C345 H375 0.930 . S
C346 C345 1.393 . S
C346 C347 1.395 . S
C347 C342 1.380 . S
C347 C346 1.395 . S
C347 H376 0.930 . S
O348 Tb349 2.295 . S
O348 C361 1.242 . S
Tb349 O348 2.295 . S
Tb349 O350 2.312 . S
Tb349 O353 2.438 . S
Tb349 O355 2.472 . S
Tb349 O357 2.308 . S
Tb349 C358 2.821 . S
O350 Tb349 2.312 . S
O350 C370 1.264 . S
O351 Eu352 2.308 . S
O351 C361 1.243 . S
Eu352 O351 2.308 . S
Eu352 C354 2.821 . S
Eu352 O356 2.295 . S
Eu352 O363 2.312 . S
Eu352 O372 2.438 . S
Eu352 O373 2.472 . S
O353 Tb349 2.438 . S
O353 C358 1.263 . S
C354 Eu352 2.821 . S
C354 C364 1.494 . S
C354 O372 1.263 . S
C354 O373 1.264 . S
O355 Tb349 2.472 . S
O355 C358 1.264 . S
O356 Eu352 2.295 . S
O356 C362 1.242 . S
O357 Tb349 2.308 . S
O357 C362 1.243 . S
C358 C342 1.494 . S
C358 Tb349 2.821 . S
C358 O353 1.263 . S
C358 O355 1.264 . S
C359 O360 1.260 . S
C359 O363 1.264 . S
O360 C359 1.260 . S
C361 O348 1.242 . S
C361 O351 1.243 . S
C362 O356 1.242 . S
C362 O357 1.243 . S
O363 Eu352 2.312 . S
O363 C359 1.264 . S
C364 C354 1.494 . S
C364 C366 1.380 . S
C364 C367 1.387 . S
C365 C366 1.395 . S
C365 C369 1.393 . S
C366 C364 1.380 . S
C366 C365 1.395 . S
C366 H377 0.930 . S
C367 C364 1.387 . S
C367 C368 1.386 . S
C367 H378 0.930 . S
C368 C367 1.386 . S
C368 C369 1.397 . S
C369 C365 1.393 . S
C369 C368 1.397 . S
C369 H379 0.930 . S
C370 O350 1.264 . S
C370 O371 1.260 . S
O371 C370 1.260 . S
O372 Eu352 2.438 . S
O372 C354 1.263 . S
O373 Eu352 2.472 . S
O373 C354 1.264 . S
H374 C343 0.930 . S
H375 C345 0.930 . S
H376 C347 0.930 . S
H377 C366 0.930 . S
H378 C367 0.930 . S
H379 C369 0.930 . S
C380 C381 1.387 . S
C380 C385 1.380 . S
C380 C396 1.494 . S
C381 C380 1.387 . S
C381 C382 1.386 . S
C381 H412 0.930 . S
C382 C381 1.386 . S
C382 C383 1.397 . S
C383 C382 1.397 . S
C383 C384 1.393 . S
C383 H413 0.930 . S
C384 C383 1.393 . S
C384 C385 1.395 . S
C385 C380 1.380 . S
C385 C384 1.395 . S
C385 H414 0.930 . S
O386 Tb387 2.295 . S
O386 C399 1.242 . S
Tb387 O386 2.295 . S
Tb387 O388 2.312 . S
Tb387 O391 2.438 . S
Tb387 O393 2.472 . S
Tb387 O395 2.308 . S
Tb387 C396 2.821 . S
O388 Tb387 2.312 . S
O388 C408 1.264 1_455 S
O389 Eu390 2.308 . S
O389 C399 1.243 1_655 S
Eu390 O389 2.308 . S
Eu390 C392 2.821 . S
Eu390 O394 2.295 . S
Eu390 O401 2.305 1_655 S
Eu390 O410 2.438 . S
Eu390 O411 2.472 . S
O391 Tb387 2.438 . S
O391 C396 1.263 . S
C392 Eu390 2.821 . S
C392 C402 1.494 . S
C392 O410 1.263 . S
C392 O411 1.264 . S
O393 Tb387 2.472 . S
O393 C396 1.264 . S
O394 Eu390 2.295 . S
O394 C400 1.243 . S
O395 Tb387 2.308 . S
O395 C400 1.240 1_455 S
C396 C380 1.494 . S
C396 Tb387 2.821 . S
C396 O391 1.263 . S
C396 O393 1.264 . S
C397 O398 1.260 . S
C397 O401 1.283 . S
O398 C397 1.260 . S
C399 O386 1.242 . S
C399 O389 1.243 1_455 S
C400 O394 1.243 . S
C400 O395 1.240 1_655 S
O401 Eu390 2.305 1_455 S
O401 C397 1.283 . S
C402 C392 1.494 . S
C402 C404 1.380 . S
C402 C405 1.387 . S
C403 C404 1.395 . S
C403 C407 1.393 . S
C404 C402 1.380 . S
C404 C403 1.395 . S
C404 H415 0.930 . S
C405 C402 1.387 . S
C405 C406 1.386 . S
C405 H416 0.930 . S
C406 C405 1.386 . S
C406 C407 1.397 . S
C407 C403 1.393 . S
C407 C406 1.397 . S
C407 H417 0.930 . S
C408 O388 1.264 1_655 S
C408 O409 1.260 . S
O409 C408 1.260 . S
O410 Eu390 2.438 . S
O410 C392 1.263 . S
O411 Eu390 2.472 . S
O411 C392 1.264 . S
H412 C381 0.930 . S
H413 C383 0.930 . S
H414 C385 0.930 . S
H415 C404 0.930 . S
H416 C405 0.930 . S
H417 C407 0.930 . S
C418 C419 1.387 . S
C418 C423 1.380 . S
C418 C434 1.494 . S
C419 C418 1.387 . S
C419 C420 1.386 . S
C419 H450 0.930 . S
C420 C419 1.386 . S
C420 C421 1.397 . S
C421 C420 1.397 . S
C421 C422 1.393 . S
C421 H451 0.930 . S
C422 C421 1.393 . S
C422 C423 1.395 . S
C423 C418 1.380 . S
C423 C422 1.395 . S
C423 H452 0.930 . S
O424 Tb425 2.295 . S
O424 C437 1.242 . S
Tb425 O424 2.295 . S
Tb425 O426 2.312 . S
Tb425 O429 2.438 . S
Tb425 O431 2.472 . S
Tb425 O433 2.308 . S
Tb425 C434 2.821 . S
O426 Tb425 2.312 . S
O426 C446 1.264 1_565 S
O427 Eu428 2.308 . S
O427 C437 1.243 . S
Eu428 O427 2.308 . S
Eu428 C430 2.821 . S
Eu428 O432 2.295 . S
Eu428 O439 2.312 . S
Eu428 O448 2.438 . S
Eu428 O449 2.472 . S
O429 Tb425 2.438 . S
O429 C434 1.263 . S
C430 Eu428 2.821 . S
C430 C440 1.494 . S
C430 O448 1.263 . S
C430 O449 1.264 . S
O431 Tb425 2.472 . S
O431 C434 1.264 . S
O432 Eu428 2.295 . S
O432 C438 1.242 . S
O433 Tb425 2.308 . S
O433 C438 1.243 . S
C434 C418 1.494 . S
C434 Tb425 2.821 . S
C434 O429 1.263 . S
C434 O431 1.264 . S
C435 O436 1.260 . S
C435 O439 1.264 . S
O436 C435 1.260 . S
C437 O424 1.242 . S
C437 O427 1.243 . S
C438 O432 1.242 . S
C438 O433 1.243 . S
O439 Eu428 2.312 . S
O439 C435 1.264 . S
C440 C430 1.494 . S
C440 C442 1.380 . S
C440 C443 1.387 . S
C441 C442 1.395 . S
C441 C445 1.393 . S
C442 C440 1.380 . S
C442 C441 1.395 . S
C442 H453 0.930 . S
C443 C440 1.387 . S
C443 C444 1.386 . S
C443 H454 0.930 . S
C444 C443 1.386 . S
C444 C445 1.397 . S
C445 C441 1.393 . S
C445 C444 1.397 . S
C445 H455 0.930 . S
C446 O426 1.264 1_545 S
C446 O447 1.260 1_545 S
O447 C446 1.260 1_565 S
O448 Eu428 2.438 . S
O448 C430 1.263 . S
O449 Eu428 2.472 . S
O449 C430 1.264 . S
H450 C419 0.930 . S
H451 C421 0.930 . S
H452 C423 0.930 . S
H453 C442 0.930 . S
H454 C443 0.930 . S
H455 C445 0.930 . S
C456 C457 1.387 . S
C456 C461 1.380 . S
C456 C472 1.494 . S
C457 C456 1.387 . S
C457 C458 1.386 . S
C457 H488 0.930 . S
C458 C457 1.386 . S
C458 C459 1.397 . S
C459 C458 1.397 . S
C459 C460 1.393 . S
C459 H489 0.930 . S
C460 C459 1.393 . S
C460 C461 1.395 . S
C461 C456 1.380 . S
C461 C460 1.395 . S
C461 H490 0.930 . S
O462 Tb463 2.295 . S
O462 C475 1.243 . S
Tb463 O462 2.295 . S
Tb463 O464 2.305 1_455 S
Tb463 O467 2.438 . S
Tb463 O469 2.472 . S
Tb463 O471 2.308 . S
Tb463 C472 2.821 . S
O464 Tb463 2.305 1_655 S
O464 C484 1.283 . S
O465 Eu466 2.308 . S
O465 C475 1.240 1_655 S
Eu466 O465 2.308 . S
Eu466 C468 2.821 . S
Eu466 O470 2.295 . S
Eu466 O477 2.312 . S
Eu466 O486 2.438 . S
Eu466 O487 2.472 . S
O467 Tb463 2.438 . S
O467 C472 1.263 . S
C468 Eu466 2.821 . S
C468 C478 1.494 . S
C468 O486 1.263 . S
C468 O487 1.264 . S
O469 Tb463 2.472 . S
O469 C472 1.264 . S
O470 Eu466 2.295 . S
O470 C476 1.242 . S
O471 Tb463 2.308 . S
O471 C476 1.243 1_455 S
C472 C456 1.494 . S
C472 Tb463 2.821 . S
C472 O467 1.263 . S
C472 O469 1.264 . S
C473 O474 1.260 1_565 S
C473 O477 1.264 1_465 S
O474 C473 1.260 1_545 S
C475 O462 1.243 . S
C475 O465 1.240 1_455 S
C476 O470 1.242 . S
C476 O471 1.243 1_655 S
O477 Eu466 2.312 . S
O477 C473 1.264 1_645 S
C478 C468 1.494 . S
C478 C480 1.380 . S
C478 C481 1.387 . S
C479 C480 1.395 . S
C479 C483 1.393 . S
C480 C478 1.380 . S
C480 C479 1.395 . S
C480 H491 0.930 . S
C481 C478 1.387 . S
C481 C482 1.386 . S
C481 H492 0.930 . S
C482 C481 1.386 . S
C482 C483 1.397 . S
C483 C479 1.393 . S
C483 C482 1.397 . S
C483 H493 0.930 . S
C484 O464 1.283 . S
C484 O485 1.260 . S
O485 C484 1.260 . S
O486 Eu466 2.438 . S
O486 C468 1.263 . S
O487 Eu466 2.472 . S
O487 C468 1.264 . S
H488 C457 0.930 . S
H489 C459 0.930 . S
H490 C461 0.930 . S
H491 C480 0.930 . S
H492 C481 0.930 . S
H493 C483 0.930 . S
C494 C495 1.387 . S
C494 C499 1.380 . S
C494 C510 1.494 . S
C495 C494 1.387 . S
C495 C496 1.386 . S
C495 H526 0.930 . S
C496 C495 1.386 . S
C496 C497 1.397 . S
C497 C496 1.397 . S
C497 C498 1.393 . S
C497 H527 0.930 . S
C498 C497 1.393 . S
C498 C499 1.395 . S
C499 C494 1.380 . S
C499 C498 1.395 . S
C499 H528 0.930 . S
O500 Tb501 2.295 . S
O500 C513 1.242 . S
Tb501 O500 2.295 . S
Tb501 O502 2.312 . S
Tb501 O505 2.438 . S
Tb501 O507 2.472 . S
Tb501 O509 2.308 . S
Tb501 C510 2.821 . S
O502 Tb501 2.312 . S
O502 C522 1.264 . S
O503 Eu504 2.308 . S
O503 C513 1.243 . S
Eu504 O503 2.308 . S
Eu504 C506 2.821 . S
Eu504 O508 2.295 . S
Eu504 O515 2.312 . S
Eu504 O524 2.438 . S
Eu504 O525 2.472 . S
O505 Tb501 2.438 . S
O505 C510 1.263 . S
C506 Eu504 2.821 . S
C506 C516 1.494 . S
C506 O524 1.263 . S
C506 O525 1.264 . S
O507 Tb501 2.472 . S
O507 C510 1.264 . S
O508 Eu504 2.295 . S
O508 C514 1.242 . S
O509 Tb501 2.308 . S
O509 C514 1.243 . S
C510 C494 1.494 . S
C510 Tb501 2.821 . S
C510 O505 1.263 . S
C510 O507 1.264 . S
C511 O512 1.260 . S
C511 O515 1.264 . S
O512 C511 1.260 . S
C513 O500 1.242 . S
C513 O503 1.243 . S
C514 O508 1.242 . S
C514 O509 1.243 . S
O515 Eu504 2.312 . S
O515 C511 1.264 . S
C516 C506 1.494 . S
C516 C518 1.380 . S
C516 C519 1.387 . S
C517 C518 1.395 . S
C517 C521 1.393 . S
C518 C516 1.380 . S
C518 C517 1.395 . S
C518 H529 0.930 . S
C519 C516 1.387 . S
C519 C520 1.386 . S
C519 H530 0.930 . S
C520 C519 1.386 . S
C520 C521 1.397 . S
C521 C517 1.393 . S
C521 C520 1.397 . S
C521 H531 0.930 . S
C522 O502 1.264 . S
C522 O523 1.260 . S
O523 C522 1.260 . S
O524 Eu504 2.438 . S
O524 C506 1.263 . S
O525 Eu504 2.472 . S
O525 C506 1.264 . S
H526 C495 0.930 . S
H527 C497 0.930 . S
H528 C499 0.930 . S
H529 C518 0.930 . S
H530 C519 0.930 . S
H531 C521 0.930 . S
C532 C533 1.387 . S
C532 C537 1.380 . S
C532 C548 1.494 . S
C533 C532 1.387 . S
C533 C534 1.386 . S
C533 H564 0.930 . S
C534 C533 1.386 . S
C534 C535 1.397 . S
C535 C534 1.397 . S
C535 C536 1.393 . S
C535 H565 0.930 . S
C536 C535 1.393 . S
C536 C537 1.395 . S
C537 C532 1.380 . S
C537 C536 1.395 . S
C537 H566 0.930 . S
O538 Tb539 2.295 . S
O538 C551 1.243 . S
Tb539 O538 2.295 . S
Tb539 O540 2.305 1_455 S
Tb539 O543 2.438 . S
Tb539 O545 2.472 . S
Tb539 O547 2.308 . S
Tb539 C548 2.821 . S
O540 Tb539 2.305 1_655 S
O540 C560 1.283 . S
O541 Eu542 2.308 . S
O541 C551 1.240 1_655 S
Eu542 O541 2.308 . S
Eu542 C544 2.821 . S
Eu542 O546 2.295 . S
Eu542 O553 2.312 . S
Eu542 O562 2.438 . S
Eu542 O563 2.472 . S
O543 Tb539 2.438 . S
O543 C548 1.263 . S
C544 Eu542 2.821 . S
C544 C554 1.494 . S
C544 O562 1.263 . S
C544 O563 1.264 . S
O545 Tb539 2.472 . S
O545 C548 1.264 . S
O546 Eu542 2.295 . S
O546 C552 1.242 . S
O547 Tb539 2.308 . S
O547 C552 1.243 1_455 S
C548 C532 1.494 . S
C548 Tb539 2.821 . S
C548 O543 1.263 . S
C548 O545 1.264 . S
C549 O550 1.260 . S
C549 O553 1.264 1_455 S
O550 C549 1.260 . S
C551 O538 1.243 . S
C551 O541 1.240 1_455 S
C552 O546 1.242 . S
C552 O547 1.243 1_655 S
O553 Eu542 2.312 . S
O553 C549 1.264 1_655 S
C554 C544 1.494 . S
C554 C556 1.380 . S
C554 C557 1.387 . S
C555 C556 1.395 . S
C555 C559 1.393 . S
C556 C554 1.380 . S
C556 C555 1.395 . S
C556 H567 0.930 . S
C557 C554 1.387 . S
C557 C558 1.386 . S
C557 H568 0.930 . S
C558 C557 1.386 . S
C558 C559 1.397 . S
C559 C555 1.393 . S
C559 C558 1.397 . S
C559 H569 0.930 . S
C560 O540 1.283 . S
C560 O561 1.260 . S
O561 C560 1.260 . S
O562 Eu542 2.438 . S
O562 C544 1.263 . S
O563 Eu542 2.472 . S
O563 C544 1.264 . S
H564 C533 0.930 . S
H565 C535 0.930 . S
H566 C537 0.930 . S
H567 C556 0.930 . S
H568 C557 0.930 . S
H569 C559 0.930 . S
C570 C571 1.387 . S
C570 C575 1.380 . S
C570 C586 1.494 . S
C571 C570 1.387 . S
C571 C572 1.386 . S
C571 H602 0.930 . S
C572 C571 1.386 . S
C572 C573 1.397 . S
C573 C572 1.397 . S
C573 C574 1.393 . S
C573 H603 0.930 . S
C574 C573 1.393 . S
C574 C575 1.395 . S
C575 C570 1.380 . S
C575 C574 1.395 . S
C575 H604 0.930 . S
O576 Tb577 2.295 . S
O576 C589 1.242 . S
Tb577 O576 2.295 . S
Tb577 O578 2.312 . S
Tb577 O581 2.438 . S
Tb577 O583 2.472 . S
Tb577 O585 2.308 . S
Tb577 C586 2.821 . S
O578 Tb577 2.312 . S
O578 C598 1.264 . S
O579 Eu580 2.308 . S
O579 C589 1.243 . S
Eu580 O579 2.308 . S
Eu580 C582 2.821 . S
Eu580 O584 2.295 . S
Eu580 O591 2.312 . S
Eu580 O600 2.438 . S
Eu580 O601 2.472 . S
O581 Tb577 2.438 . S
O581 C586 1.263 . S
C582 Eu580 2.821 . S
C582 C592 1.494 . S
C582 O600 1.263 . S
C582 O601 1.264 . S
O583 Tb577 2.472 . S
O583 C586 1.264 . S
O584 Eu580 2.295 . S
O584 C590 1.242 . S
O585 Tb577 2.308 . S
O585 C590 1.243 . S
C586 C570 1.494 . S
C586 Tb577 2.821 . S
C586 O581 1.263 . S
C586 O583 1.264 . S
C587 O588 1.260 1_565 S
C587 O591 1.264 1_565 S
O588 C587 1.260 1_545 S
C589 O576 1.242 . S
C589 O579 1.243 . S
C590 O584 1.242 . S
C590 O585 1.243 . S
O591 Eu580 2.312 . S
O591 C587 1.264 1_545 S
C592 C582 1.494 . S
C592 C594 1.380 . S
C592 C595 1.387 . S
C593 C594 1.395 . S
C593 C597 1.393 . S
C594 C592 1.380 . S
C594 C593 1.395 . S
C594 H605 0.930 . S
C595 C592 1.387 . S
C595 C596 1.386 . S
C595 H606 0.930 . S
C596 C595 1.386 . S
C596 C597 1.397 . S
C597 C593 1.393 . S
C597 C596 1.397 . S
C597 H607 0.930 . S
C598 O578 1.264 . S
C598 O599 1.260 . S
O599 C598 1.260 . S
O600 Eu580 2.438 . S
O600 C582 1.263 . S
O601 Eu580 2.472 . S
O601 C582 1.264 . S
H602 C571 0.930 . S
H603 C573 0.930 . S
H604 C575 0.930 . S
H605 C594 0.930 . S
H606 C595 0.930 . S
H607 C597 0.930 . S
C608 C609 1.387 . S
C608 C613 1.380 . S
C608 C624 1.494 . S
C609 C608 1.387 . S
C609 C610 1.386 . S
C609 H640 0.930 . S
C610 C609 1.386 . S
C610 C611 1.397 . S
C611 C610 1.397 . S
C611 C612 1.393 . S
C611 H641 0.930 . S
C612 C611 1.393 . S
C612 C613 1.395 . S
C613 C608 1.380 . S
C613 C612 1.395 . S
C613 H642 0.930 . S
O614 Tb615 2.295 . S
O614 C627 1.242 . S
Tb615 O614 2.295 . S
Tb615 O616 2.312 . S
Tb615 O619 2.438 . S
Tb615 O621 2.472 . S
Tb615 O623 2.308 . S
Tb615 C624 2.821 . S
O616 Tb615 2.312 . S
O616 C636 1.264 . S
O617 Eu618 2.308 . S
O617 C627 1.243 . S
Eu618 O617 2.308 . S
Eu618 C620 2.821 . S
Eu618 O622 2.295 . S
Eu618 O629 2.312 . S
Eu618 O638 2.438 . S
Eu618 O639 2.472 . S
O619 Tb615 2.438 . S
O619 C624 1.263 . S
C620 Eu618 2.821 . S
C620 C630 1.494 . S
C620 O638 1.263 . S
C620 O639 1.264 . S
O621 Tb615 2.472 . S
O621 C624 1.264 . S
O622 Eu618 2.295 . S
O622 C628 1.242 . S
O623 Tb615 2.308 . S
O623 C628 1.243 . S
C624 C608 1.494 . S
C624 Tb615 2.821 . S
C624 O619 1.263 . S
C624 O621 1.264 . S
C625 O626 1.260 . S
C625 O629 1.264 . S
O626 C625 1.260 . S
C627 O614 1.242 . S
C627 O617 1.243 . S
C628 O622 1.242 . S
C628 O623 1.243 . S
O629 Eu618 2.312 . S
O629 C625 1.264 . S
C630 C620 1.494 . S
C630 C632 1.380 . S
C630 C633 1.387 . S
C631 C632 1.395 . S
C631 C635 1.393 . S
C632 C630 1.380 . S
C632 C631 1.395 . S
C632 H643 0.930 . S
C633 C630 1.387 . S
C633 C634 1.386 . S
C633 H644 0.930 . S
C634 C633 1.386 . S
C634 C635 1.397 . S
C635 C631 1.393 . S
C635 C634 1.397 . S
C635 H645 0.930 . S
C636 O616 1.264 . S
C636 O637 1.260 . S
O637 C636 1.260 . S
O638 Eu618 2.438 . S
O638 C620 1.263 . S
O639 Eu618 2.472 . S
O639 C620 1.264 . S
H640 C609 0.930 . S
H641 C611 0.930 . S
H642 C613 0.930 . S
H643 C632 0.930 . S
H644 C633 0.930 . S
H645 C635 0.930 . S
C646 C647 1.387 . S
C646 C651 1.380 . S
C646 C662 1.494 . S
C647 C646 1.387 . S
C647 C648 1.386 . S
C647 H678 0.930 . S
C648 C647 1.386 . S
C648 C649 1.397 . S
C649 C648 1.397 . S
C649 C650 1.393 . S
C649 H679 0.930 . S
C650 C649 1.393 . S
C650 C651 1.395 . S
C651 C646 1.380 . S
C651 C650 1.395 . S
C651 H680 0.930 . S
O652 Tb653 2.295 . S
O652 C665 1.242 . S
Tb653 O652 2.295 . S
Tb653 O654 2.312 . S
Tb653 O657 2.438 . S
Tb653 O659 2.472 . S
Tb653 O661 2.308 . S
Tb653 C662 2.821 . S
O654 Tb653 2.312 . S
O654 C674 1.264 . S
O655 Eu656 2.308 . S
O655 C665 1.243 . S
Eu656 O655 2.308 . S
Eu656 C658 2.821 . S
Eu656 O660 2.295 . S
Eu656 O667 2.312 1_565 S
Eu656 O676 2.438 1_565 S
Eu656 O677 2.472 . S
O657 Tb653 2.438 . S
O657 C662 1.263 . S
C658 Eu656 2.821 . S
C658 C668 1.494 . S
C658 O676 1.263 1_565 S
C658 O677 1.264 . S
O659 Tb653 2.472 . S
O659 C662 1.264 . S
O660 Eu656 2.295 . S
O660 C666 1.242 . S
O661 Tb653 2.308 . S
O661 C666 1.243 . S
C662 C646 1.494 . S
C662 Tb653 2.821 . S
C662 O657 1.263 . S
C662 O659 1.264 . S
C663 O664 1.260 . S
C663 O667 1.264 . S
O664 C663 1.260 . S
C665 O652 1.242 . S
C665 O655 1.243 . S
C666 O660 1.242 . S
C666 O661 1.243 . S
O667 Eu656 2.312 1_545 S
O667 C663 1.264 . S
C668 C658 1.494 . S
C668 C670 1.380 . S
C668 C671 1.387 1_565 S
C669 C670 1.395 . S
C669 C673 1.393 . S
C670 C668 1.380 . S
C670 C669 1.395 . S
C670 H681 0.930 . S
C671 C668 1.387 1_545 S
C671 C672 1.386 . S
C671 H682 0.930 . S
C672 C671 1.386 . S
C672 C673 1.397 1_545 S
C673 C669 1.393 . S
C673 C672 1.397 1_565 S
C673 H683 0.930 . S
C674 O654 1.264 . S
C674 O675 1.260 . S
O675 C674 1.260 . S
O676 Eu656 2.438 1_545 S
O676 C658 1.263 1_545 S
O677 Eu656 2.472 . S
O677 C658 1.264 . S
H678 C647 0.930 . S
H679 C649 0.930 . S
H680 C651 0.930 . S
H681 C670 0.930 . S
H682 C671 0.930 . S
H683 C673 0.930 . S
C684 C685 1.387 . S
C684 C689 1.380 . S
C684 C700 1.494 . S
C685 C684 1.387 . S
C685 C686 1.386 . S
C685 H716 0.930 . S
C686 C685 1.386 . S
C686 C687 1.397 . S
C687 C686 1.397 . S
C687 C688 1.393 . S
C687 H717 0.930 . S
C688 C687 1.393 . S
C688 C689 1.395 . S
C689 C684 1.380 . S
C689 C688 1.395 . S
C689 H718 0.930 . S
O690 Tb691 2.295 . S
O690 C703 1.242 . S
Tb691 O690 2.295 . S
Tb691 O692 2.312 . S
Tb691 O695 2.438 . S
Tb691 O697 2.472 . S
Tb691 O699 2.308 . S
Tb691 C700 2.821 . S
O692 Tb691 2.312 . S
O692 C712 1.264 . S
O693 Eu694 2.308 . S
O693 C703 1.243 . S
Eu694 O693 2.308 . S
Eu694 C696 2.821 . S
Eu694 O698 2.295 . S
Eu694 O705 2.312 1_565 S
Eu694 O714 2.438 1_565 S
Eu694 O715 2.472 . S
O695 Tb691 2.438 . S
O695 C700 1.263 . S
C696 Eu694 2.821 . S
C696 C706 1.494 . S
C696 O714 1.263 1_565 S
C696 O715 1.264 . S
O697 Tb691 2.472 . S
O697 C700 1.264 . S
O698 Eu694 2.295 . S
O698 C704 1.242 . S
O699 Tb691 2.308 . S
O699 C704 1.243 . S
C700 C684 1.494 . S
C700 Tb691 2.821 . S
C700 O695 1.263 . S
C700 O697 1.264 . S
C701 O702 1.260 . S
C701 O705 1.264 . S
O702 C701 1.260 . S
C703 O690 1.242 . S
C703 O693 1.243 . S
C704 O698 1.242 . S
C704 O699 1.243 . S
O705 Eu694 2.312 1_545 S
O705 C701 1.264 . S
C706 C696 1.494 . S
C706 C708 1.380 . S
C706 C709 1.387 1_565 S
C707 C708 1.395 . S
C707 C711 1.393 . S
C708 C706 1.380 . S
C708 C707 1.395 . S
C708 H719 0.930 . S
C709 C706 1.387 1_545 S
C709 C710 1.386 . S
C709 H720 0.930 . S
C710 C709 1.386 . S
C710 C711 1.397 1_545 S
C711 C707 1.393 . S
C711 C710 1.397 1_565 S
C711 H721 0.930 . S
C712 O692 1.264 . S
C712 O713 1.260 . S
O713 C712 1.260 . S
O714 Eu694 2.438 1_545 S
O714 C696 1.263 1_545 S
O715 Eu694 2.472 . S
O715 C696 1.264 . S
H716 C685 0.930 . S
H717 C687 0.930 . S
H718 C689 0.930 . S
H719 C708 0.930 . S
H720 C709 0.930 . S
H721 C711 0.930 . S
C722 C723 1.387 . S
C722 C727 1.380 . S
C722 C738 1.494 . S
C723 C722 1.387 . S
C723 C724 1.386 . S
C723 H754 0.930 . S
C724 C723 1.386 . S
C724 C725 1.397 . S
C725 C724 1.397 . S
C725 C726 1.393 . S
C725 H755 0.930 . S
C726 C725 1.393 . S
C726 C727 1.395 . S
C727 C722 1.380 . S
C727 C726 1.395 . S
C727 H756 0.930 . S
O728 Tb729 2.295 . S
O728 C741 1.242 . S
Tb729 O728 2.295 . S
Tb729 O730 2.312 . S
Tb729 O733 2.438 . S
Tb729 O735 2.472 . S
Tb729 O737 2.308 . S
Tb729 C738 2.821 . S
O730 Tb729 2.312 . S
O730 C750 1.264 . S
O731 Eu732 2.308 . S
O731 C741 1.243 . S
Eu732 O731 2.308 . S
Eu732 C734 2.821 . S
Eu732 O736 2.295 . S
Eu732 O743 2.312 . S
Eu732 O752 2.438 . S
Eu732 O753 2.472 . S
O733 Tb729 2.438 . S
O733 C738 1.263 . S
C734 Eu732 2.821 . S
C734 C744 1.494 . S
C734 O752 1.263 . S
C734 O753 1.264 . S
O735 Tb729 2.472 . S
O735 C738 1.264 . S
O736 Eu732 2.295 . S
O736 C742 1.242 . S
O737 Tb729 2.308 . S
O737 C742 1.243 . S
C738 C722 1.494 . S
C738 Tb729 2.821 . S
C738 O733 1.263 . S
C738 O735 1.264 . S
C739 O740 1.260 . S
C739 O743 1.264 . S
O740 C739 1.260 . S
C741 O728 1.242 . S
C741 O731 1.243 . S
C742 O736 1.242 . S
C742 O737 1.243 . S
O743 Eu732 2.312 . S
O743 C739 1.264 . S
C744 C734 1.494 . S
C744 C746 1.380 . S
C744 C747 1.387 . S
C745 C746 1.395 . S
C745 C749 1.393 . S
C746 C744 1.380 . S
C746 C745 1.395 . S
C746 H757 0.930 . S
C747 C744 1.387 . S
C747 C748 1.386 . S
C747 H758 0.930 . S
C748 C747 1.386 . S
C748 C749 1.397 . S
C749 C745 1.393 . S
C749 C748 1.397 . S
C749 H759 0.930 . S
C750 O730 1.264 . S
C750 O751 1.260 . S
O751 C750 1.260 . S
O752 Eu732 2.438 . S
O752 C734 1.263 . S
O753 Eu732 2.472 . S
O753 C734 1.264 . S
H754 C723 0.930 . S
H755 C725 0.930 . S
H756 C727 0.930 . S
H757 C746 0.930 . S
H758 C747 0.930 . S
H759 C749 0.930 . S
C760 C761 1.387 . S
C760 C765 1.380 . S
C760 C776 1.494 . S
C761 C760 1.387 . S
C761 C762 1.386 . S
C761 H792 0.930 . S
C762 C761 1.386 . S
C762 C763 1.397 . S
C763 C762 1.397 . S
C763 C764 1.393 . S
C763 H793 0.930 . S
C764 C763 1.393 . S
C764 C765 1.395 . S
C765 C760 1.380 . S
C765 C764 1.395 . S
C765 H794 0.930 . S
O766 Tb767 2.295 . S
O766 C779 1.242 . S
Tb767 O766 2.295 . S
Tb767 O768 2.312 . S
Tb767 O771 2.438 . S
Tb767 O773 2.472 . S
Tb767 O775 2.308 . S
Tb767 C776 2.821 . S
O768 Tb767 2.312 . S
O768 C788 1.264 . S
O769 Eu770 2.308 . S
O769 C779 1.243 . S
Eu770 O769 2.308 . S
Eu770 C772 2.821 . S
Eu770 O774 2.295 . S
Eu770 O781 2.312 . S
Eu770 O790 2.438 . S
Eu770 O791 2.472 . S
O771 Tb767 2.438 . S
O771 C776 1.263 . S
C772 Eu770 2.821 . S
C772 C782 1.494 . S
C772 O790 1.263 . S
C772 O791 1.264 . S
O773 Tb767 2.472 . S
O773 C776 1.264 . S
O774 Eu770 2.295 . S
O774 C780 1.242 . S
O775 Tb767 2.308 . S
O775 C780 1.243 . S
C776 C760 1.494 . S
C776 Tb767 2.821 . S
C776 O771 1.263 . S
C776 O773 1.264 . S
C777 O778 1.260 . S
C777 O781 1.264 . S
O778 C777 1.260 . S
C779 O766 1.242 . S
C779 O769 1.243 . S
C780 O774 1.242 . S
C780 O775 1.243 . S
O781 Eu770 2.312 . S
O781 C777 1.264 . S
C782 C772 1.494 . S
C782 C784 1.380 . S
C782 C785 1.387 . S
C783 C784 1.395 . S
C783 C787 1.393 . S
C784 C782 1.380 . S
C784 C783 1.395 . S
C784 H795 0.930 . S
C785 C782 1.387 . S
C785 C786 1.386 . S
C785 H796 0.930 . S
C786 C785 1.386 . S
C786 C787 1.397 . S
C787 C783 1.393 . S
C787 C786 1.397 . S
C787 H797 0.930 . S
C788 O768 1.264 . S
C788 O789 1.260 . S
O789 C788 1.260 . S
O790 Eu770 2.438 . S
O790 C772 1.263 . S
O791 Eu770 2.472 . S
O791 C772 1.264 . S
H792 C761 0.930 . S
H793 C763 0.930 . S
H794 C765 0.930 . S
H795 C784 0.930 . S
H796 C785 0.930 . S
H797 C787 0.930 . S
C798 C799 1.387 1_545 S
C798 C803 1.380 . S
C798 C814 1.494 . S
C799 C798 1.387 1_565 S
C799 C800 1.386 . S
C799 H830 0.930 . S
C800 C799 1.386 . S
C800 C801 1.397 1_565 S
C801 C800 1.397 1_545 S
C801 C802 1.393 . S
C801 H831 0.930 . S
C802 C801 1.393 . S
C802 C803 1.395 . S
C803 C798 1.380 . S
C803 C802 1.395 . S
C803 H832 0.930 . S
O804 Tb805 2.295 . S
O804 C817 1.242 . S
Tb805 O804 2.295 . S
Tb805 O806 2.312 1_545 S
Tb805 O809 2.438 1_545 S
Tb805 O811 2.472 . S
Tb805 O813 2.308 . S
Tb805 C814 2.821 . S
O806 Tb805 2.312 1_565 S
O806 C826 1.264 . S
O807 Eu808 2.308 . S
O807 C817 1.243 . S
Eu808 O807 2.308 . S
Eu808 C810 2.821 . S
Eu808 O812 2.295 . S
Eu808 O819 2.312 . S
Eu808 O828 2.438 . S
Eu808 O829 2.472 . S
O809 Tb805 2.438 1_565 S
O809 C814 1.263 1_565 S
C810 Eu808 2.821 . S
C810 C820 1.494 . S
C810 O828 1.263 . S
C810 O829 1.264 . S
O811 Tb805 2.472 . S
O811 C814 1.264 . S
O812 Eu808 2.295 . S
O812 C818 1.242 . S
O813 Tb805 2.308 . S
O813 C818 1.243 . S
C814 C798 1.494 . S
C814 Tb805 2.821 . S
C814 O809 1.263 1_545 S
C814 O811 1.264 . S
C815 O816 1.260 . S
C815 O819 1.264 . S
O816 C815 1.260 . S
C817 O804 1.242 . S
C817 O807 1.243 . S
C818 O812 1.242 . S
C818 O813 1.243 . S
O819 Eu808 2.312 . S
O819 C815 1.264 . S
C820 C810 1.494 . S
C820 C822 1.380 . S
C820 C823 1.387 . S
C821 C822 1.395 . S
C821 C825 1.393 . S
C822 C820 1.380 . S
C822 C821 1.395 . S
C822 H833 0.930 . S
C823 C820 1.387 . S
C823 C824 1.386 . S
C823 H834 0.930 . S
C824 C823 1.386 . S
C824 C825 1.397 . S
C825 C821 1.393 . S
C825 C824 1.397 . S
C825 H835 0.930 . S
C826 O806 1.264 . S
C826 O827 1.260 . S
O827 C826 1.260 . S
O828 Eu808 2.438 . S
O828 C810 1.263 . S
O829 Eu808 2.472 . S
O829 C810 1.264 . S
H830 C799 0.930 . S
H831 C801 0.930 . S
H832 C803 0.930 . S
H833 C822 0.930 . S
H834 C823 0.930 . S
H835 C825 0.930 . S
C836 C837 1.387 1_545 S
C836 C841 1.380 . S
C836 C852 1.494 . S
C837 C836 1.387 1_565 S
C837 C838 1.386 . S
C837 H868 0.930 . S
C838 C837 1.386 . S
C838 C839 1.397 1_565 S
C839 C838 1.397 1_545 S
C839 C840 1.393 . S
C839 H869 0.930 . S
C840 C839 1.393 . S
C840 C841 1.395 . S
C841 C836 1.380 . S
C841 C840 1.395 . S
C841 H870 0.930 . S
O842 Tb843 2.295 . S
O842 C855 1.242 . S
Tb843 O842 2.295 . S
Tb843 O844 2.312 1_545 S
Tb843 O847 2.438 1_545 S
Tb843 O849 2.472 . S
Tb843 O851 2.308 . S
Tb843 C852 2.821 . S
O844 Tb843 2.312 1_565 S
O844 C864 1.264 . S
O845 Eu846 2.308 . S
O845 C855 1.243 . S
Eu846 O845 2.308 . S
Eu846 C848 2.821 . S
Eu846 O850 2.295 . S
Eu846 O857 2.312 . S
Eu846 O866 2.438 . S
Eu846 O867 2.472 . S
O847 Tb843 2.438 1_565 S
O847 C852 1.263 1_565 S
C848 Eu846 2.821 . S
C848 C858 1.494 . S
C848 O866 1.263 . S
C848 O867 1.264 . S
O849 Tb843 2.472 . S
O849 C852 1.264 . S
O850 Eu846 2.295 . S
O850 C856 1.242 . S
O851 Tb843 2.308 . S
O851 C856 1.243 . S
C852 C836 1.494 . S
C852 Tb843 2.821 . S
C852 O847 1.263 1_545 S
C852 O849 1.264 . S
C853 O854 1.260 . S
C853 O857 1.264 . S
O854 C853 1.260 . S
C855 O842 1.242 . S
C855 O845 1.243 . S
C856 O850 1.242 . S
C856 O851 1.243 . S
O857 Eu846 2.312 . S
O857 C853 1.264 . S
C858 C848 1.494 . S
C858 C860 1.380 . S
C858 C861 1.387 . S
C859 C860 1.395 . S
C859 C863 1.393 . S
C860 C858 1.380 . S
C860 C859 1.395 . S
C860 H871 0.930 . S
C861 C858 1.387 . S
C861 C862 1.386 . S
C861 H872 0.930 . S
C862 C861 1.386 . S
C862 C863 1.397 . S
C863 C859 1.393 . S
C863 C862 1.397 . S
C863 H873 0.930 . S
C864 O844 1.264 . S
C864 O865 1.260 . S
O865 C864 1.260 . S
O866 Eu846 2.438 . S
O866 C848 1.263 . S
O867 Eu846 2.472 . S
O867 C848 1.264 . S
H868 C837 0.930 . S
H869 C839 0.930 . S
H870 C841 0.930 . S
H871 C860 0.930 . S
H872 C861 0.930 . S
H873 C863 0.930 . S
C874 C875 1.387 . S
C874 C879 1.380 . S
C874 C890 1.494 . S
C875 C874 1.387 . S
C875 C876 1.386 . S
C875 H906 0.930 . S
C876 C875 1.386 . S
C876 C877 1.397 . S
C877 C876 1.397 . S
C877 C878 1.393 . S
C877 H907 0.930 . S
C878 C877 1.393 . S
C878 C879 1.395 . S
C879 C874 1.380 . S
C879 C878 1.395 . S
C879 H908 0.930 . S
O880 Tb881 2.295 . S
O880 C893 1.242 . S
Tb881 O880 2.295 . S
Tb881 O882 2.312 . S
Tb881 O885 2.438 . S
Tb881 O887 2.472 . S
Tb881 O889 2.308 . S
Tb881 C890 2.821 . S
O882 Tb881 2.312 . S
O882 C902 1.264 . S
O883 Eu884 2.308 . S
O883 C893 1.243 . S
Eu884 O883 2.308 . S
Eu884 C886 2.821 . S
Eu884 O888 2.295 . S
Eu884 O895 2.312 . S
Eu884 O904 2.438 . S
Eu884 O905 2.472 . S
O885 Tb881 2.438 . S
O885 C890 1.263 . S
C886 Eu884 2.821 . S
C886 C896 1.494 . S
C886 O904 1.263 . S
C886 O905 1.264 . S
O887 Tb881 2.472 . S
O887 C890 1.264 . S
O888 Eu884 2.295 . S
O888 C894 1.242 . S
O889 Tb881 2.308 . S
O889 C894 1.243 . S
C890 C874 1.494 . S
C890 Tb881 2.821 . S
C890 O885 1.263 . S
C890 O887 1.264 . S
C891 O892 1.260 . S
C891 O895 1.264 . S
O892 C891 1.260 . S
C893 O880 1.242 . S
C893 O883 1.243 . S
C894 O888 1.242 . S
C894 O889 1.243 . S
O895 Eu884 2.312 . S
O895 C891 1.264 . S
C896 C886 1.494 . S
C896 C898 1.380 . S
C896 C899 1.387 . S
C897 C898 1.395 . S
C897 C901 1.393 . S
C898 C896 1.380 . S
C898 C897 1.395 . S
C898 H909 0.930 . S
C899 C896 1.387 . S
C899 C900 1.386 . S
C899 H910 0.930 . S
C900 C899 1.386 . S
C900 C901 1.397 . S
C901 C897 1.393 . S
C901 C900 1.397 . S
C901 H911 0.930 . S
C902 O882 1.264 . S
C902 O903 1.260 . S
O903 C902 1.260 . S
O904 Eu884 2.438 . S
O904 C886 1.263 . S
O905 Eu884 2.472 . S
O905 C886 1.264 . S
H906 C875 0.930 . S
H907 C877 0.930 . S
H908 C879 0.930 . S
H909 C898 0.930 . S
H910 C899 0.930 . S
H911 C901 0.930 . S
C912 C913 1.387 . S
C912 C917 1.380 . S
C912 C928 1.494 1_554 S
C913 C912 1.387 . S
C913 C914 1.386 . S
C913 H944 0.930 . S
C914 C913 1.386 . S
C914 C915 1.397 . S
C915 C914 1.397 . S
C915 C916 1.393 . S
C915 H945 0.930 . S
C916 C915 1.393 . S
C916 C917 1.395 . S
C917 C912 1.380 . S
C917 C916 1.395 . S
C917 H946 0.930 . S
O918 Tb919 2.295 1_554 S
O918 C931 1.242 . S
Tb919 O918 2.295 1_556 S
Tb919 O920 2.312 . S
Tb919 O923 2.438 . S
Tb919 O925 2.472 . S
Tb919 O927 2.308 . S
Tb919 C928 2.821 . S
O920 Tb919 2.312 . S
O920 C940 1.264 1_565 S
O921 Eu922 2.308 . S
O921 C931 1.243 . S
Eu922 O921 2.308 . S
Eu922 C924 2.821 . S
Eu922 O926 2.295 1_554 S
Eu922 O933 2.312 . S
Eu922 O942 2.438 . S
Eu922 O943 2.472 . S
O923 Tb919 2.438 . S
O923 C928 1.263 . S
C924 Eu922 2.821 . S
C924 C934 1.494 . S
C924 O942 1.263 . S
C924 O943 1.264 . S
O925 Tb919 2.472 . S
O925 C928 1.264 . S
O926 Eu922 2.295 1_556 S
O926 C932 1.242 . S
O927 Tb919 2.308 . S
O927 C932 1.243 . S
C928 C912 1.494 1_556 S
C928 Tb919 2.821 . S
C928 O923 1.263 . S
C928 O925 1.264 . S
C929 O930 1.260 . S
C929 O933 1.264 . S
O930 C929 1.260 . S
C931 O918 1.242 . S
C931 O921 1.243 . S
C932 O926 1.242 . S
C932 O927 1.243 . S
O933 Eu922 2.312 . S
O933 C929 1.264 . S
C934 C924 1.494 . S
C934 C936 1.380 . S
C934 C937 1.387 . S
C935 C936 1.395 1_556 S
C935 C939 1.393 . S
C936 C934 1.380 . S
C936 C935 1.395 1_554 S
C936 H947 0.930 . S
C937 C934 1.387 . S
C937 C938 1.386 1_554 S
C937 H948 0.930 . S
C938 C937 1.386 1_556 S
C938 C939 1.397 . S
C939 C935 1.393 . S
C939 C938 1.397 . S
C939 H949 0.930 . S
C940 O920 1.264 1_545 S
C940 O941 1.260 1_545 S
O941 C940 1.260 1_565 S
O942 Eu922 2.438 . S
O942 C924 1.263 . S
O943 Eu922 2.472 . S
O943 C924 1.264 . S
H944 C913 0.930 . S
H945 C915 0.930 . S
H946 C917 0.930 . S
H947 C936 0.930 . S
H948 C937 0.930 . S
H949 C939 0.930 . S
C950 C951 1.387 . S
C950 C955 1.380 . S
C950 C966 1.494 1_554 S
C951 C950 1.387 . S
C951 C952 1.386 . S
C951 H982 0.936 . S
C952 C951 1.386 . S
C952 C953 1.397 . S
C953 C952 1.397 . S
C953 C954 1.393 . S
C953 H983 0.930 . S
C954 C953 1.393 . S
C954 C955 1.395 . S
C955 C950 1.380 . S
C955 C954 1.395 . S
C955 H984 0.930 . S
O956 Tb957 2.295 1_554 S
O956 C969 1.242 . S
Tb957 O956 2.295 1_556 S
Tb957 O958 2.312 . S
Tb957 O961 2.438 . S
Tb957 O963 2.472 . S
Tb957 O965 2.308 . S
Tb957 C966 2.821 . S
O958 Tb957 2.312 . S
O958 C978 1.264 . S
O959 Eu960 2.308 . S
O959 C969 1.243 . S
Eu960 O959 2.308 . S
Eu960 C962 2.821 . S
Eu960 O964 2.295 1_554 S
Eu960 O971 2.312 . S
Eu960 O980 2.438 . S
Eu960 O981 2.472 . S
O961 Tb957 2.438 . S
O961 C966 1.263 . S
C962 Eu960 2.821 . S
C962 C972 1.494 . S
C962 O980 1.263 . S
C962 O981 1.264 . S
O963 Tb957 2.472 . S
O963 C966 1.264 . S
O964 Eu960 2.295 1_556 S
O964 C970 1.242 . S
O965 Tb957 2.308 . S
O965 C970 1.243 . S
C966 C950 1.494 1_556 S
C966 Tb957 2.821 . S
C966 O961 1.263 . S
C966 O963 1.264 . S
C967 O968 1.260 . S
C967 O971 1.264 . S
O968 C967 1.260 . S
C969 O956 1.242 . S
C969 O959 1.243 . S
C970 O964 1.242 . S
C970 O965 1.243 . S
O971 Eu960 2.312 . S
O971 C967 1.264 . S
C972 C962 1.494 . S
C972 C974 1.380 . S
C972 C975 1.387 . S
C973 C974 1.395 1_556 S
C973 C977 1.393 . S
C974 C972 1.380 . S
C974 C973 1.395 1_554 S
C974 H985 0.930 . S
C975 C972 1.387 . S
C975 C976 1.386 1_554 S
C975 H986 0.930 . S
C976 C975 1.386 1_556 S
C976 C977 1.397 . S
C977 C973 1.393 . S
C977 C976 1.397 . S
C977 H987 0.930 . S
C978 O958 1.264 . S
C978 O979 1.260 . S
O979 C978 1.260 . S
O980 Eu960 2.438 . S
O980 C962 1.263 . S
O981 Eu960 2.472 . S
O981 C962 1.264 . S
H982 C951 0.936 . S
H983 C953 0.930 . S
H984 C955 0.930 . S
H985 C974 0.930 . S
H986 C975 0.930 . S
H987 C977 0.930 . S
C988 C989 1.387 . S
C988 C993 1.380 . S
C988 C1004 1.494 . S
C989 C988 1.387 . S
C989 C990 1.386 . S
C989 H1020 0.930 . S
C990 C989 1.386 . S
C990 C991 1.397 . S
C991 C990 1.397 . S
C991 C992 1.393 . S
C991 H1021 0.930 . S
C992 C991 1.393 . S
C992 C993 1.395 . S
C993 C988 1.380 . S
C993 C992 1.395 . S
C993 H1022 0.930 . S
O994 Tb995 2.295 . S
O994 C1007 1.242 . S
Tb995 O994 2.295 . S
Tb995 O996 2.312 . S
Tb995 O999 2.438 . S
Tb995 O1001 2.472 . S
Tb995 O1003 2.308 . S
Tb995 C1004 2.821 . S
O996 Tb995 2.312 . S
O996 C1016 1.264 . S
O997 Eu998 2.308 . S
O997 C1007 1.243 . S
Eu998 O997 2.308 . S
Eu998 C1000 2.821 . S
Eu998 O1002 2.295 . S
Eu998 O1009 2.312 . S
Eu998 O1018 2.438 . S
Eu998 O1019 2.472 . S
O999 Tb995 2.438 . S
O999 C1004 1.263 . S
C1000 Eu998 2.821 . S
C1000 C1010 1.494 . S
C1000 O1018 1.263 . S
C1000 O1019 1.264 . S
O1001 Tb995 2.472 . S
O1001 C1004 1.264 . S
O1002 Eu998 2.295 . S
O1002 C1008 1.242 . S
O1003 Tb995 2.308 . S
O1003 C1008 1.243 . S
C1004 C988 1.494 . S
C1004 Tb995 2.821 . S
C1004 O999 1.263 . S
C1004 O1001 1.264 . S
C1005 O1006 1.260 . S
C1005 O1009 1.264 . S
O1006 C1005 1.260 . S
C1007 O994 1.242 . S
C1007 O997 1.243 . S
C1008 O1002 1.242 . S
C1008 O1003 1.243 . S
O1009 Eu998 2.312 . S
O1009 C1005 1.264 . S
C1010 C1000 1.494 . S
C1010 C1012 1.380 . S
C1010 C1013 1.387 . S
C1011 C1012 1.395 . S
C1011 C1015 1.393 . S
C1012 C1010 1.380 . S
C1012 C1011 1.395 . S
C1012 H1023 0.930 . S
C1013 C1010 1.387 . S
C1013 C1014 1.386 . S
C1013 H1024 0.930 . S
C1014 C1013 1.386 . S
C1014 C1015 1.397 . S
C1015 C1011 1.393 . S
C1015 C1014 1.397 . S
C1015 H1025 0.930 . S
C1016 O996 1.264 . S
C1016 O1017 1.260 . S
O1017 C1016 1.260 . S
O1018 Eu998 2.438 . S
O1018 C1000 1.263 . S
O1019 Eu998 2.472 . S
O1019 C1000 1.264 . S
H1020 C989 0.930 . S
H1021 C991 0.930 . S
H1022 C993 0.930 . S
H1023 C1012 0.930 . S
H1024 C1013 0.930 . S
H1025 C1015 0.930 . S
C1026 C1027 1.387 . S
C1026 C1031 1.380 . S
C1026 C1042 1.494 . S
C1027 C1026 1.387 . S
C1027 C1028 1.386 . S
C1027 H1058 0.930 . S
C1028 C1027 1.386 . S
C1028 C1029 1.397 . S
C1029 C1028 1.397 . S
C1029 C1030 1.393 . S
C1029 H1059 0.930 . S
C1030 C1029 1.393 . S
C1030 C1031 1.395 . S
C1031 C1026 1.380 . S
C1031 C1030 1.395 . S
C1031 H1060 0.930 . S
O1032 Tb1033 2.295 . S
O1032 C1045 1.242 . S
Tb1033 O1032 2.295 . S
Tb1033 O1034 2.312 . S
Tb1033 O1037 2.438 . S
Tb1033 O1039 2.472 . S
Tb1033 O1041 2.308 . S
Tb1033 C1042 2.821 . S
O1034 Tb1033 2.312 . S
O1034 C1054 1.264 1_565 S
O1035 Eu1036 2.308 . S
O1035 C1045 1.243 . S
Eu1036 O1035 2.308 . S
Eu1036 C1038 2.821 . S
Eu1036 O1040 2.295 . S
Eu1036 O1047 2.312 . S
Eu1036 O1056 2.438 . S
Eu1036 O1057 2.472 . S
O1037 Tb1033 2.438 . S
O1037 C1042 1.263 . S
C1038 Eu1036 2.821 . S
C1038 C1048 1.494 . S
C1038 O1056 1.263 . S
C1038 O1057 1.264 . S
O1039 Tb1033 2.472 . S
O1039 C1042 1.264 . S
O1040 Eu1036 2.295 . S
O1040 C1046 1.242 . S
O1041 Tb1033 2.308 . S
O1041 C1046 1.243 . S
C1042 C1026 1.494 . S
C1042 Tb1033 2.821 . S
C1042 O1037 1.263 . S
C1042 O1039 1.264 . S
C1043 O1044 1.260 . S
C1043 O1047 1.264 . S
O1044 C1043 1.260 . S
C1045 O1032 1.242 . S
C1045 O1035 1.243 . S
C1046 O1040 1.242 . S
C1046 O1041 1.243 . S
O1047 Eu1036 2.312 . S
O1047 C1043 1.264 . S
C1048 C1038 1.494 . S
C1048 C1050 1.380 . S
C1048 C1051 1.387 . S
C1049 C1050 1.395 . S
C1049 C1053 1.393 . S
C1050 C1048 1.380 . S
C1050 C1049 1.395 . S
C1050 H1061 0.930 . S
C1051 C1048 1.387 . S
C1051 C1052 1.386 . S
C1051 H1062 0.930 . S
C1052 C1051 1.386 . S
C1052 C1053 1.397 . S
C1053 C1049 1.393 . S
C1053 C1052 1.397 . S
C1053 H1063 0.930 . S
C1054 O1034 1.264 1_545 S
C1054 O1055 1.260 1_545 S
O1055 C1054 1.260 1_565 S
O1056 Eu1036 2.438 . S
O1056 C1038 1.263 . S
O1057 Eu1036 2.472 . S
O1057 C1038 1.264 . S
H1058 C1027 0.930 . S
H1059 C1029 0.930 . S
H1060 C1031 0.930 . S
H1061 C1050 0.930 . S
H1062 C1051 0.930 . S
H1063 C1053 0.930 . S
C1064 C1065 1.387 . S
C1064 C1069 1.380 . S
C1064 C1080 1.494 . S
C1065 C1064 1.387 . S
C1065 C1066 1.386 1_556 S
C1065 H1096 0.930 . S
C1066 C1065 1.386 1_554 S
C1066 C1067 1.397 . S
C1067 C1066 1.397 . S
C1067 C1068 1.393 . S
C1067 H1097 0.930 . S
C1068 C1067 1.393 . S
C1068 C1069 1.395 1_554 S
C1069 C1064 1.380 . S
C1069 C1068 1.395 1_556 S
C1069 H1098 0.930 . S
O1070 Tb1071 2.295 1_554 S
O1070 C1083 1.242 . S
Tb1071 O1070 2.295 1_556 S
Tb1071 O1072 2.312 . S
Tb1071 O1075 2.438 . S
Tb1071 O1077 2.472 . S
Tb1071 O1079 2.308 . S
Tb1071 C1080 2.821 . S
O1072 Tb1071 2.312 . S
O1072 C1092 1.264 . S
O1073 Eu1074 2.308 . S
O1073 C1083 1.243 . S
Eu1074 O1073 2.308 . S
Eu1074 C1076 2.821 . S
Eu1074 O1078 2.295 1_554 S
Eu1074 O1085 2.312 . S
Eu1074 O1094 2.438 . S
Eu1074 O1095 2.472 . S
O1075 Tb1071 2.438 . S
O1075 C1080 1.263 . S
C1076 Eu1074 2.821 . S
C1076 C1086 1.494 1_554 S
C1076 O1094 1.263 . S
C1076 O1095 1.264 . S
O1077 Tb1071 2.472 . S
O1077 C1080 1.264 . S
O1078 Eu1074 2.295 1_556 S
O1078 C1084 1.242 . S
O1079 Tb1071 2.308 . S
O1079 C1084 1.243 . S
C1080 C1064 1.494 . S
C1080 Tb1071 2.821 . S
C1080 O1075 1.263 . S
C1080 O1077 1.264 . S
C1081 O1082 1.260 1_565 S
C1081 O1085 1.264 1_565 S
O1082 C1081 1.260 1_545 S
C1083 O1070 1.242 . S
C1083 O1073 1.243 . S
C1084 O1078 1.242 . S
C1084 O1079 1.243 . S
O1085 Eu1074 2.312 . S
O1085 C1081 1.264 1_545 S
C1086 C1076 1.494 1_556 S
C1086 C1088 1.380 . S
C1086 C1089 1.387 . S
C1087 C1088 1.395 . S
C1087 C1091 1.393 . S
C1088 C1086 1.380 . S
C1088 C1087 1.395 . S
C1088 H1099 0.930 . S
C1089 C1086 1.387 . S
C1089 C1090 1.386 . S
C1089 H1100 0.930 . S
C1090 C1089 1.386 . S
C1090 C1091 1.397 . S
C1091 C1087 1.393 . S
C1091 C1090 1.397 . S
C1091 H1101 0.930 . S
C1092 O1072 1.264 . S
C1092 O1093 1.260 . S
O1093 C1092 1.260 . S
O1094 Eu1074 2.438 . S
O1094 C1076 1.263 . S
O1095 Eu1074 2.472 . S
O1095 C1076 1.264 . S
H1096 C1065 0.930 . S
H1097 C1067 0.930 . S
H1098 C1069 0.930 . S
H1099 C1088 0.930 . S
H1100 C1089 0.930 . S
H1101 C1091 0.930 . S
C1102 C1103 1.387 . S
C1102 C1107 1.380 . S
C1102 C1118 1.494 . S
C1103 C1102 1.387 . S
C1103 C1104 1.386 1_556 S
C1103 H1134 0.930 . S
C1104 C1103 1.386 1_554 S
C1104 C1105 1.397 . S
C1105 C1104 1.397 . S
C1105 C1106 1.393 . S
C1105 H1135 0.930 . S
C1106 C1105 1.393 . S
C1106 C1107 1.395 1_554 S
C1107 C1102 1.380 . S
C1107 C1106 1.395 1_556 S
C1107 H1136 0.930 . S
O1108 Tb1109 2.295 1_554 S
O1108 C1121 1.242 . S
Tb1109 O1108 2.295 1_556 S
Tb1109 O1110 2.312 . S
Tb1109 O1113 2.438 . S
Tb1109 O1115 2.472 . S
Tb1109 O1117 2.308 . S
Tb1109 C1118 2.821 . S
O1110 Tb1109 2.312 . S
O1110 C1130 1.264 . S
O1111 Eu1112 2.308 . S
O1111 C1121 1.243 . S
Eu1112 O1111 2.308 . S
Eu1112 C1114 2.821 . S
Eu1112 O1116 2.295 1_554 S
Eu1112 O1123 2.312 . S
Eu1112 O1132 2.438 . S
Eu1112 O1133 2.472 . S
O1113 Tb1109 2.438 . S
O1113 C1118 1.263 . S
C1114 Eu1112 2.821 . S
C1114 C1124 1.494 1_554 S
C1114 O1132 1.263 . S
C1114 O1133 1.264 . S
O1115 Tb1109 2.472 . S
O1115 C1118 1.264 . S
O1116 Eu1112 2.295 1_556 S
O1116 C1122 1.242 . S
O1117 Tb1109 2.308 . S
O1117 C1122 1.243 . S
C1118 C1102 1.494 . S
C1118 Tb1109 2.821 . S
C1118 O1113 1.263 . S
C1118 O1115 1.264 . S
C1119 O1120 1.260 . S
C1119 O1123 1.264 . S
O1120 C1119 1.260 . S
C1121 O1108 1.242 . S
C1121 O1111 1.243 . S
C1122 O1116 1.242 . S
C1122 O1117 1.243 . S
O1123 Eu1112 2.312 . S
O1123 C1119 1.264 . S
C1124 C1114 1.494 1_556 S
C1124 C1126 1.380 . S
C1124 C1127 1.387 . S
C1125 C1126 1.395 . S
C1125 C1129 1.393 . S
C1126 C1124 1.380 . S
C1126 C1125 1.395 . S
C1126 H1137 0.930 . S
C1127 C1124 1.387 . S
C1127 C1128 1.386 . S
C1127 H1138 0.936 . S
C1128 C1127 1.386 . S
C1128 C1129 1.397 . S
C1129 C1125 1.393 . S
C1129 C1128 1.397 . S
C1129 H1139 0.930 . S
C1130 O1110 1.264 . S
C1130 O1131 1.260 . S
O1131 C1130 1.260 . S
O1132 Eu1112 2.438 . S
O1132 C1114 1.263 . S
O1133 Eu1112 2.472 . S
O1133 C1114 1.264 . S
H1134 C1103 0.930 . S
H1135 C1105 0.930 . S
H1136 C1107 0.930 . S
H1137 C1126 0.930 . S
H1138 C1127 0.936 . S
H1139 C1129 0.930 . S
C1140 C1141 1.387 . S
C1140 C1145 1.380 . S
C1140 C1156 1.494 . S
C1141 C1140 1.387 . S
C1141 C1142 1.386 . S
C1141 H1172 0.930 . S
C1142 C1141 1.386 . S
C1142 C1143 1.397 . S
C1143 C1142 1.397 . S
C1143 C1144 1.393 . S
C1143 H1173 0.930 . S
C1144 C1143 1.393 . S
C1144 C1145 1.395 . S
C1145 C1140 1.380 . S
C1145 C1144 1.395 . S
C1145 H1174 0.930 . S
O1146 Tb1147 2.295 . S
O1146 C1159 1.242 . S
Tb1147 O1146 2.295 . S
Tb1147 O1148 2.312 . S
Tb1147 O1151 2.438 . S
Tb1147 O1153 2.472 . S
Tb1147 O1155 2.308 . S
Tb1147 C1156 2.821 . S
O1148 Tb1147 2.312 . S
O1148 C1168 1.264 . S
O1149 Eu1150 2.308 . S
O1149 C1159 1.243 . S
Eu1150 O1149 2.308 . S
Eu1150 C1152 2.821 . S
Eu1150 O1154 2.295 . S
Eu1150 O1161 2.312 . S
Eu1150 O1170 2.438 . S
Eu1150 O1171 2.472 . S
O1151 Tb1147 2.438 . S
O1151 C1156 1.263 . S
C1152 Eu1150 2.821 . S
C1152 C1162 1.494 . S
C1152 O1170 1.263 . S
C1152 O1171 1.264 . S
O1153 Tb1147 2.472 . S
O1153 C1156 1.264 . S
O1154 Eu1150 2.295 . S
O1154 C1160 1.242 . S
O1155 Tb1147 2.308 . S
O1155 C1160 1.243 . S
C1156 C1140 1.494 . S
C1156 Tb1147 2.821 . S
C1156 O1151 1.263 . S
C1156 O1153 1.264 . S
C1157 O1158 1.260 . S
C1157 O1161 1.264 . S
O1158 C1157 1.260 . S
C1159 O1146 1.242 . S
C1159 O1149 1.243 . S
C1160 O1154 1.242 . S
C1160 O1155 1.243 . S
O1161 Eu1150 2.312 . S
O1161 C1157 1.264 . S
C1162 C1152 1.494 . S
C1162 C1164 1.380 . S
C1162 C1165 1.387 . S
C1163 C1164 1.395 . S
C1163 C1167 1.393 . S
C1164 C1162 1.380 . S
C1164 C1163 1.395 . S
C1164 H1175 0.930 . S
C1165 C1162 1.387 . S
C1165 C1166 1.386 . S
C1165 H1176 0.930 . S
C1166 C1165 1.386 . S
C1166 C1167 1.397 . S
C1167 C1163 1.393 . S
C1167 C1166 1.397 . S
C1167 H1177 0.930 . S
C1168 O1148 1.264 . S
C1168 O1169 1.260 . S
O1169 C1168 1.260 . S
O1170 Eu1150 2.438 . S
O1170 C1152 1.263 . S
O1171 Eu1150 2.472 . S
O1171 C1152 1.264 . S
H1172 C1141 0.930 . S
H1173 C1143 0.930 . S
H1174 C1145 0.930 . S
H1175 C1164 0.930 . S
H1176 C1165 0.930 . S
H1177 C1167 0.930 . S
C1178 C1179 1.387 . S
C1178 C1183 1.380 . S
C1178 C1194 1.494 . S
C1179 C1178 1.387 . S
C1179 C1180 1.386 . S
C1179 H1210 0.930 . S
C1180 C1179 1.386 . S
C1180 C1181 1.397 . S
C1181 C1180 1.397 . S
C1181 C1182 1.393 . S
C1181 H1211 0.930 . S
C1182 C1181 1.393 . S
C1182 C1183 1.395 . S
C1183 C1178 1.380 . S
C1183 C1182 1.395 . S
C1183 H1212 0.930 . S
O1184 Tb1185 2.295 . S
O1184 C1197 1.242 . S
Tb1185 O1184 2.295 . S
Tb1185 O1186 2.312 . S
Tb1185 O1189 2.438 . S
Tb1185 O1191 2.472 . S
Tb1185 O1193 2.308 . S
Tb1185 C1194 2.821 . S
O1186 Tb1185 2.312 . S
O1186 C1206 1.264 . S
O1187 Eu1188 2.308 . S
O1187 C1197 1.243 . S
Eu1188 O1187 2.308 . S
Eu1188 C1190 2.821 . S
Eu1188 O1192 2.295 . S
Eu1188 O1199 2.312 . S
Eu1188 O1208 2.438 . S
Eu1188 O1209 2.472 . S
O1189 Tb1185 2.438 . S
O1189 C1194 1.263 . S
C1190 Eu1188 2.821 . S
C1190 C1200 1.494 . S
C1190 O1208 1.263 . S
C1190 O1209 1.264 . S
O1191 Tb1185 2.472 . S
O1191 C1194 1.264 . S
O1192 Eu1188 2.295 . S
O1192 C1198 1.242 . S
O1193 Tb1185 2.308 . S
O1193 C1198 1.243 . S
C1194 C1178 1.494 . S
C1194 Tb1185 2.821 . S
C1194 O1189 1.263 . S
C1194 O1191 1.264 . S
C1195 O1196 1.260 1_565 S
C1195 O1199 1.264 1_565 S
O1196 C1195 1.260 1_545 S
C1197 O1184 1.242 . S
C1197 O1187 1.243 . S
C1198 O1192 1.242 . S
C1198 O1193 1.243 . S
O1199 Eu1188 2.312 . S
O1199 C1195 1.264 1_545 S
C1200 C1190 1.494 . S
C1200 C1202 1.380 . S
C1200 C1203 1.387 . S
C1201 C1202 1.395 . S
C1201 C1205 1.393 . S
C1202 C1200 1.380 . S
C1202 C1201 1.395 . S
C1202 H1213 0.930 . S
C1203 C1200 1.387 . S
C1203 C1204 1.386 . S
C1203 H1214 0.930 . S
C1204 C1203 1.386 . S
C1204 C1205 1.397 . S
C1205 C1201 1.393 . S
C1205 C1204 1.397 . S
C1205 H1215 0.930 . S
C1206 O1186 1.264 . S
C1206 O1207 1.260 . S
O1207 C1206 1.260 . S
O1208 Eu1188 2.438 . S
O1208 C1190 1.263 . S
O1209 Eu1188 2.472 . S
O1209 C1190 1.264 . S
H1210 C1179 0.930 . S
H1211 C1181 0.930 . S
H1212 C1183 0.930 . S
H1213 C1202 0.930 . S
H1214 C1203 0.930 . S
H1215 C1205 0.930 . S
C973 C23 3.345 . S
C61 C935 3.346 . S
C1049 C99 3.346 . S
C137 C1011 3.346 . S
C1106 C156 3.346 . S
C194 C1068 3.346 . S
C1182 C232 3.346 . S
C270 C1144 3.346 . S
C327 C669 3.346 . S
C365 C631 3.346 . S
C745 C403 3.346 . S
C441 C707 3.346 . S
C460 C802 3.346 . S
C764 C498 3.346 . S
C878 C536 3.346 . S
C840 C574 3.346 . S
C1104 C2 1.606 . S
C40 C154 1.606 . S
C78 C876 1.605 . S
C116 C534 1.605 . S
C976 C178 1.606 . S
C26 C216 1.605 . S
C748 C254 1.605 . S
C292 C406 1.605 . S
C800 C306 1.606 . S
C458 C344 1.605 . S
C382 C1180 1.605 . S
C230 C420 1.605 . S
C672 C482 1.606 . S
C520 C330 1.605 . S
C558 C1052 1.605 . S
C596 C102 1.605 . S
C610 C496 1.606 . S
C762 C648 1.606 . S
C268 C686 1.606 . S
C1142 C724 1.606 . S
C786 C368 1.606 . S
C824 C634 1.606 . S
C862 C140 1.606 . S
C900 C1014 1.606 . S
C192 C914 1.606 . S
C1066 C952 1.606 . S
C572 C990 1.605 . S
C1028 C838 1.606 . S
C1090 C64 1.606 . S
C1128 C938 1.605 . S
C1166 C444 1.606 . S
C1204 C710 1.606 . S
C248 C20 3.269 . S
C58 C1198 3.267 1_565 S
C476 C96 3.268 1_545 S
C818 C134 3.268 . S
C95 C171 3.269 . S
C209 C1045 3.267 1_545 S
C323 C247 3.268 1_565 S
C285 C665 3.268 . S
C324 C552 3.269 . S
C894 C362 3.268 . S
C400 C172 3.268 . S
C1122 C438 3.268 . S
C475 C399 3.269 . S
C741 C513 3.268 . S
C551 C19 3.268 . S
C969 C589 3.268 . S
C628 C856 3.268 . S
C666 C590 3.267 1_565 S
C1084 C704 3.267 1_545 S
C742 C210 3.268 . S
C703 C779 3.268 . S
C817 C437 3.267 1_545 S
C931 C855 3.267 1_565 S
C893 C57 3.268 . S
C1160 C932 3.268 . S
C970 C286 3.268 . S
C1008 C780 3.268 . S
C1046 C514 3.267 . S
C1007 C1083 3.268 . S
C1121 C133 3.268 . S
C627 C1159 3.268 . S
C1197 C361 3.267 . S
C118 C4 2.067 . S
C80 C42 2.068 . S
C175 C289 2.067 . S
C251 C213 2.068 . S
C422 C308 2.067 . S
C346 C384 2.068 . S
C593 C479 2.067 . S
C555 C517 2.068 . S
C612 C726 2.066 . S
C688 C650 2.067 . S
C783 C897 2.066 . S
C859 C821 2.067 . S
C1030 C916 2.066 . S
C954 C992 2.067 . S
C1087 C1201 2.066 . S
C1125 C1163 2.067 . S
C28 C169 3.959 1_656 S
C1119 C66 3.960 1_554 S
C549 C104 3.960 1_455 S
C891 C142 3.959 . S
C978 C207 3.960 1_556 S
C408 C245 3.960 1_655 S
C283 C750 3.959 . S
C473 C332 3.959 1_465 S
C370 C815 3.960 . S
C446 C1195 3.959 1_545 S
C511 C674 3.960 . S
C1054 C587 3.959 1_545 S
C777 C636 3.958 . S
C1157 C712 3.959 . S
C853 C1016 3.959 . S
C1081 C940 3.958 1_564 S
C93 C17 1.084 . S
C131 C55 1.084 . S
C180 C256 1.084 . S
C218 C294 1.084 . S
C397 C321 1.085 . S
C435 C359 1.084 . S
C484 C560 1.085 . S
C598 C522 1.084 . S
C701 C625 1.084 . S
C663 C739 1.085 . S
C864 C788 1.084 . S
C826 C902 1.085 . S
C929 C1005 1.084 . S
C967 C1043 1.085 . S
C1168 C1092 1.084 . S
C1206 C1130 1.085 . S
