# Generated by pormake.
# Topology vmq, (7)-cn, num edge types: 1
# Building blocks:
#     Node 0, Type 0, BuildingBlock: HICVOG_clean_sbu_0, # of connection points: 7
#     Node 1, Type 0, BuildingBlock: HICVOG_clean_sbu_0, # of connection points: 7
#     Node 2, Type 0, BuildingBlock: HICVOG_clean_sbu_0, # of connection points: 7
#     Node 3, Type 0, BuildingBlock: HICVOG_clean_sbu_0, # of connection points: 7
#     Node 4, Type 0, BuildingBlock: HICVOG_clean_sbu_0, # of connection points: 7
#     Node 5, Type 0, BuildingBlock: HICVOG_clean_sbu_0, # of connection points: 7
#     Node 6, Type 0, BuildingBlock: HICVOG_clean_sbu_0, # of connection points: 7
#     Node 7, Type 0, BuildingBlock: HICVOG_clean_sbu_0, # of connection points: 7
#     Edge 8, Type (0, 0), BuildingBlock: XUDNAN_clean_linker_2, # of connection points: 2
#     Edge 9, Type (0, 0), BuildingBlock: XUDNAN_clean_linker_2, # of connection points: 2
#     Edge 10, Type (0, 0), BuildingBlock: XUDNAN_clean_linker_2, # of connection points: 2
#     Edge 11, Type (0, 0), BuildingBlock: XUDNAN_clean_linker_2, # of connection points: 2
#     Edge 12, Type (0, 0), BuildingBlock: XUDNAN_clean_linker_2, # of connection points: 2
#     Edge 13, Type (0, 0), BuildingBlock: XUDNAN_clean_linker_2, # of connection points: 2
#     Edge 14, Type (0, 0), BuildingBlock: XUDNAN_clean_linker_2, # of connection points: 2
#     Edge 15, Type (0, 0), BuildingBlock: XUDNAN_clean_linker_2, # of connection points: 2
#     Edge 16, Type (0, 0), BuildingBlock: XUDNAN_clean_linker_2, # of connection points: 2
#     Edge 17, Type (0, 0), BuildingBlock: XUDNAN_clean_linker_2, # of connection points: 2
#     Edge 18, Type (0, 0), BuildingBlock: XUDNAN_clean_linker_2, # of connection points: 2
#     Edge 19, Type (0, 0), BuildingBlock: XUDNAN_clean_linker_2, # of connection points: 2
#     Edge 20, Type (0, 0), BuildingBlock: XUDNAN_clean_linker_2, # of connection points: 2
#     Edge 21, Type (0, 0), BuildingBlock: XUDNAN_clean_linker_2, # of connection points: 2
#     Edge 22, Type (0, 0), BuildingBlock: XUDNAN_clean_linker_2, # of connection points: 2
#     Edge 23, Type (0, 0), BuildingBlock: XUDNAN_clean_linker_2, # of connection points: 2
#     Edge 24, Type (0, 0), BuildingBlock: XUDNAN_clean_linker_2, # of connection points: 2
#     Edge 25, Type (0, 0), BuildingBlock: XUDNAN_clean_linker_2, # of connection points: 2
#     Edge 26, Type (0, 0), BuildingBlock: XUDNAN_clean_linker_2, # of connection points: 2
#     Edge 27, Type (0, 0), BuildingBlock: XUDNAN_clean_linker_2, # of connection points: 2
#     Edge 28, Type (0, 0), BuildingBlock: XUDNAN_clean_linker_2, # of connection points: 2
#     Edge 29, Type (0, 0), BuildingBlock: XUDNAN_clean_linker_2, # of connection points: 2
#     Edge 30, Type (0, 0), BuildingBlock: XUDNAN_clean_linker_2, # of connection points: 2
#     Edge 31, Type (0, 0), BuildingBlock: XUDNAN_clean_linker_2, # of connection points: 2
#     Edge 32, Type (0, 0), BuildingBlock: XUDNAN_clean_linker_2, # of connection points: 2
#     Edge 33, Type (0, 0), BuildingBlock: XUDNAN_clean_linker_2, # of connection points: 2
#     Edge 34, Type (0, 0), BuildingBlock: XUDNAN_clean_linker_2, # of connection points: 2
#     Edge 35, Type (0, 0), BuildingBlock: XUDNAN_clean_linker_2, # of connection points: 2
# Relax obj value: 0.300
# Max RMSD: 0.265
# Mean RMSD: 0.265
data_MOF--net-vmq--node1-HICVOG_clean_sbu_0--edge1-XUDNAN_clean_linker_2
_symmetry_space_group_name_H-M    P1
_symmetry_Int_Tables_number       1
_symmetry_cell_setting            triclinic
loop_
_symmetry_equiv_pos_as_xyz
'x, y, z'
_cell_length_a     52.879999
_cell_length_b     19.518521
_cell_length_c     34.937029
_cell_angle_alpha  89.948592
_cell_angle_beta   107.68512
_cell_angle_gamma 89.988528
loop_
_atom_site_label
_atom_site_type_symbol
_atom_site_fract_x
_atom_site_fract_y
_atom_site_fract_z
_atom_type_partial_charge
Zn0 Zn 0.41908 0.16455 0.10953 0.0
C1 C 0.44577 0.9974 0.06704 0.0
N2 N 0.46329 0.99561 0.1039 0.0
C3 C 0.45532 0.04655 0.1231 0.0
N4 N 0.43364 0.07875 0.09904 0.0
N5 N 0.42735 0.04702 0.06389 0.0
C6 C 0.3807 0.97991 0.946 0.0
O7 O 0.36166 0.94986 0.95666 0.0
O8 O 0.42526 0.16736 0.17012 0.0
Zn9 Zn 0.39191 0.03809 0.02585 0.0
N10 N 0.43743 0.23751 0.08972 0.0
C11 C 0.47186 0.26598 0.0616 0.0
C12 C 0.45877 0.21819 0.07819 0.0
C13 C 0.42818 0.30328 0.08409 0.0
N14 N 0.46264 0.33105 0.05585 0.0
C15 C 0.44103 0.3517 0.06629 0.0
O16 O 0.36365 0.11203 0.02632 0.0
C17 C 0.36083 0.15786 0.05086 0.0
O18 O 0.38003 0.17508 0.08133 0.0
H19 H 0.46569 0.16586 0.08168 0.0
H20 H 0.41053 0.31666 0.09195 0.0
C21 C 0.38951 0.89203 0.03834 0.0
C22 C 0.37994 0.8316 0.05123 0.0
C23 C 0.34932 0.89855 0.07289 0.0
C24 C 0.35867 0.95791 0.05961 0.0
N25 N 0.37849 0.95361 0.04246 0.0
N26 N 0.36009 0.8371 0.0684 0.0
H27 H 0.40565 0.89076 0.02541 0.0
C28 C 0.40757 0.15049 0.18629 0.0
O29 O 0.38326 0.13872 0.16322 0.0
O30 O 0.39547 0.02342 0.96959 0.0
H31 H 0.35033 0.00711 0.06327 0.0
H32 H 0.489 0.25131 0.05275 0.0
H33 H 0.3336 0.90123 0.08671 0.0
Zn34 Zn 0.64965 0.03942 0.48641 0.0
C35 C 0.58731 0.04664 0.3865 0.0
N36 N 0.57892 0.99623 0.4057 0.0
C37 C 0.59618 0.99809 0.44277 0.0
N38 N 0.61484 0.0469 0.44603 0.0
N39 N 0.60886 0.0788 0.41091 0.0
C40 C 0.629 0.1147 0.32807 0.0
O41 O 0.63857 0.06356 0.3527 0.0
O42 O 0.64429 0.0295 0.54133 0.0
Zn43 Zn 0.62354 0.16521 0.40117 0.0
N44 N 0.66443 0.95342 0.47449 0.0
C45 C 0.69589 0.89658 0.44932 0.0
C46 C 0.68564 0.95661 0.46026 0.0
C47 C 0.65302 0.89218 0.47823 0.0
N48 N 0.68445 0.83562 0.45279 0.0
C49 C 0.66322 0.83105 0.46703 0.0
O50 O 0.66166 0.17704 0.43219 0.0
C51 C 0.68077 0.16041 0.46283 0.0
O52 O 0.67814 0.11338 0.48682 0.0
H53 H 0.69434 0.00549 0.45695 0.0
H54 H 0.63587 0.89182 0.48884 0.0
C55 C 0.61316 0.30415 0.42515 0.0
C56 C 0.59905 0.35269 0.44078 0.0
C57 C 0.5669 0.26744 0.44052 0.0
C58 C 0.58113 0.21963 0.42599 0.0
N59 N 0.60379 0.23862 0.41801 0.0
N60 N 0.57621 0.33226 0.44771 0.0
H61 H 0.63179 0.3172 0.42014 0.0
C62 C 0.63635 0.0795 0.55794 0.0
O63 O 0.63233 0.13908 0.53953 0.0
O64 O 0.62155 0.16877 0.34202 0.0
H65 H 0.57411 0.16747 0.42137 0.0
H66 H 0.71271 0.89841 0.43783 0.0
H67 H 0.54877 0.25295 0.44666 0.0
Zn68 Zn 0.62186 0.86523 0.88826 0.0
C69 C 0.58173 0.98872 0.94079 0.0
N70 N 0.56987 0.01341 0.904 0.0
C71 C 0.58307 0.98354 0.88124 0.0
N72 N 0.60229 0.941 0.9032 0.0
N73 N 0.60232 0.94769 0.94087 0.0
C74 C 0.62935 0.97258 0.05834 0.0
O75 O 0.63202 0.90582 0.05676 0.0
O76 O 0.62303 0.88551 0.83111 0.0
Zn77 Zn 0.6356 0.97721 0.9765 0.0
N78 N 0.6009 0.7825 0.89036 0.0
C79 C 0.55853 0.74072 0.89043 0.0
C80 C 0.57473 0.79398 0.8857 0.0
C81 C 0.61164 0.71872 0.90056 0.0
N82 N 0.56922 0.678 0.9012 0.0
C83 C 0.59535 0.66499 0.90667 0.0
O84 O 0.66483 0.90651 0.98443 0.0
C85 C 0.67371 0.86466 0.96344 0.0
O86 O 0.66027 0.84966 0.92722 0.0
H87 H 0.56643 0.84467 0.87965 0.0
H88 H 0.63268 0.71082 0.9058 0.0
C89 C 0.63692 0.12124 0.95496 0.0
C90 C 0.64695 0.17865 0.93944 0.0
C91 C 0.67672 0.10474 0.9202 0.0
C92 C 0.66719 0.0489 0.93643 0.0
N93 N 0.64736 0.0578 0.95318 0.0
N94 N 0.66652 0.16788 0.92223 0.0
H95 H 0.62104 0.12621 0.96827 0.0
C96 C 0.62985 0.94677 0.82647 0.0
O97 O 0.63723 0.98665 0.85813 0.0
O98 O 0.63047 0.00919 0.0288 0.0
H99 H 0.67546 0.99864 0.93533 0.0
H100 H 0.53773 0.74961 0.88676 0.0
H101 H 0.69231 0.09811 0.9064 0.0
Zn102 Zn 0.41859 0.84724 0.61144 0.0
C103 C 0.45757 0.98232 0.56476 0.0
N104 N 0.46867 0.00381 0.60252 0.0
C105 C 0.45493 0.9706 0.62329 0.0
N106 N 0.43602 0.92976 0.59942 0.0
N107 N 0.43672 0.94056 0.56237 0.0
C108 C 0.41828 0.96598 0.45193 0.0
O109 O 0.42814 0.90545 0.46447 0.0
O110 O 0.41622 0.85166 0.66843 0.0
Zn111 Zn 0.40311 0.96933 0.52634 0.0
N112 N 0.44144 0.76919 0.60737 0.0
C113 C 0.48342 0.7372 0.60081 0.0
C114 C 0.46553 0.78718 0.60392 0.0
C115 C 0.4346 0.70155 0.60785 0.0
N116 N 0.47675 0.67048 0.60151 0.0
C117 C 0.45292 0.65018 0.60503 0.0
O118 O 0.3743 0.89773 0.51889 0.0
C119 C 0.36632 0.85086 0.53802 0.0
O120 O 0.38057 0.83077 0.57278 0.0
H121 H 0.47114 0.84012 0.60377 0.0
H122 H 0.4155 0.68829 0.61108 0.0
C123 C 0.40475 0.10978 0.55549 0.0
C124 C 0.39453 0.16712 0.57059 0.0
C125 C 0.35783 0.09982 0.57378 0.0
C126 C 0.36802 0.04343 0.55895 0.0
N127 N 0.39114 0.04935 0.54979 0.0
N128 N 0.37119 0.16011 0.57907 0.0
H129 H 0.42292 0.11335 0.54747 0.0
C130 C 0.41074 0.9056 0.68483 0.0
O131 O 0.40628 0.96324 0.66443 0.0
O132 O 0.40655 1.00001 0.47251 0.0
H133 H 0.35732 0.9955 0.55435 0.0
H134 H 0.50258 0.75126 0.59803 0.0
H135 H 0.33935 0.09581 0.58089 0.0
Zn136 Zn 0.91203 0.6735 0.11566 0.0
C137 C 0.94696 0.53065 0.06573 0.0
N138 N 0.96264 0.52217 0.10366 0.0
C139 C 0.95199 0.56379 0.125 0.0
N140 N 0.93046 0.59677 0.10122 0.0
N141 N 0.92663 0.5741 0.06415 0.0
C142 C 0.89777 0.56863 0.94875 0.0
O143 O 0.90067 0.63329 0.95964 0.0
O144 O 0.91383 0.6613 0.17527 0.0
Zn145 Zn 0.89082 0.55533 0.02811 0.0
N146 N 0.92897 0.75765 0.1049 0.0
C147 C 0.96241 0.81157 0.08265 0.0
C148 C 0.95148 0.75288 0.09388 0.0
C149 C 0.91631 0.81892 0.10336 0.0
N150 N 0.94974 0.87245 0.08091 0.0
C151 C 0.92668 0.87827 0.09037 0.0
O152 O 0.86226 0.63241 0.02153 0.0
C153 C 0.85715 0.67386 0.04664 0.0
O154 O 0.87397 0.68471 0.08099 0.0
H155 H 0.96088 0.70378 0.09359 0.0
H156 H 0.89817 0.82055 0.11149 0.0
C157 C 0.88191 0.41108 0.04705 0.0
C158 C 0.87001 0.36063 0.06498 0.0
C159 C 0.85022 0.44821 0.09331 0.0
C160 C 0.86182 0.49769 0.07548 0.0
N161 N 0.87715 0.47875 0.05229 0.0
N162 N 0.85443 0.38119 0.08747 0.0
H163 H 0.89422 0.39686 0.0286 0.0
C164 C 0.90863 0.60072 0.18431 0.0
O165 O 0.90093 0.55532 0.15539 0.0
O166 O 0.89317 0.52509 0.97297 0.0
H167 H 0.85859 0.55098 0.08031 0.0
H168 H 0.98051 0.80853 0.0744 0.0
H169 H 0.83789 0.4629 0.11163 0.0
Zn170 Zn 0.12681 0.66862 0.39381 0.0
C171 C 0.09294 0.52551 0.44494 0.0
N172 N 0.07653 0.51791 0.40742 0.0
C173 C 0.08667 0.55977 0.38553 0.0
N174 N 0.10863 0.592 0.40863 0.0
N175 N 0.11319 0.56858 0.44572 0.0
C176 C 0.14582 0.56491 0.56239 0.0
O177 O 0.14539 0.62999 0.55254 0.0
O178 O 0.1247 0.65636 0.33432 0.0
Zn179 Zn 0.14914 0.54974 0.4811 0.0
N180 N 0.11003 0.75272 0.40493 0.0
C181 C 0.0765 0.80675 0.42691 0.0
C182 C 0.08743 0.74805 0.41572 0.0
C183 C 0.12278 0.81387 0.40666 0.0
N184 N 0.08925 0.86752 0.42881 0.0
C185 C 0.1124 0.87318 0.41958 0.0
O186 O 0.17765 0.62616 0.48674 0.0
C187 C 0.18228 0.66775 0.46131 0.0
O188 O 0.16498 0.67918 0.42749 0.0
H189 H 0.07795 0.69903 0.41582 0.0
H190 H 0.14099 0.81546 0.39869 0.0
C191 C 0.15774 0.40542 0.46242 0.0
C192 C 0.16943 0.35466 0.44447 0.0
C193 C 0.18898 0.44159 0.41527 0.0
C194 C 0.17756 0.49143 0.43309 0.0
N195 N 0.16247 0.47294 0.45675 0.0
N196 N 0.18482 0.37469 0.42155 0.0
H197 H 0.1456 0.39156 0.48121 0.0
C198 C 0.12939 0.59547 0.3252 0.0
O199 O 0.1368 0.54963 0.35397 0.0
O200 O 0.14743 0.52023 0.53671 0.0
H201 H 0.18075 0.54463 0.42792 0.0
H202 H 0.05833 0.80381 0.43496 0.0
H203 H 0.20113 0.4559 0.39661 0.0
Zn204 Zn 0.12956 0.34085 0.89905 0.0
C205 C 0.08245 0.46086 0.94495 0.0
N206 N 0.06395 0.44765 0.91029 0.0
C207 C 0.07687 0.41071 0.88995 0.0
N208 N 0.10268 0.39984 0.91203 0.0
N209 N 0.10619 0.43311 0.94651 0.0
C210 C 0.12786 0.45637 0.05456 0.0
O211 O 0.12493 0.39312 0.04104 0.0
O212 O 0.13717 0.38236 0.84887 0.0
Zn213 Zn 0.14012 0.46402 0.98203 0.0
N214 N 0.11572 0.24645 0.89245 0.0
C215 C 0.07997 0.16833 0.88623 0.0
C216 C 0.08988 0.23471 0.89013 0.0
C217 C 0.13275 0.19278 0.89544 0.0
N218 N 0.09677 0.11525 0.88838 0.0
C219 C 0.12304 0.1254 0.89375 0.0
O220 O 0.16932 0.39218 0.99736 0.0
C221 C 0.17827 0.34692 0.97853 0.0
O222 O 0.16535 0.32947 0.9428 0.0
H223 H 0.07694 0.27586 0.89221 0.0
H224 H 0.15364 0.2024 0.90022 0.0
C225 C 0.15377 0.60122 0.95822 0.0
C226 C 0.16247 0.64422 0.93232 0.0
C227 C 0.17015 0.54695 0.89686 0.0
C228 C 0.16112 0.50471 0.92194 0.0
N229 N 0.15309 0.5322 0.95207 0.0
N230 N 0.17035 0.61559 0.90233 0.0
H231 H 0.14686 0.62229 0.98191 0.0
C232 C 0.13995 0.35401 0.81747 0.0
O233 O 0.13919 0.28689 0.81461 0.0
O234 O 0.13504 0.50179 0.03384 0.0
H235 H 0.1602 0.45023 0.91712 0.0
H236 H 0.0593 0.15885 0.88323 0.0
H237 H 0.17666 0.52549 0.8729 0.0
Zn238 Zn 0.90065 0.47276 0.53058 0.0
C239 C 0.9635 0.40786 0.62001 0.0
N240 N 0.97725 0.44615 0.60165 0.0
C241 C 0.95874 0.46589 0.56804 0.0
N242 N 0.9345 0.43999 0.56538 0.0
N243 N 0.93761 0.40228 0.59814 0.0
C244 C 0.90175 0.35485 0.6937 0.0
O245 O 0.89792 0.28842 0.69419 0.0
O246 O 0.9054 0.51157 0.47845 0.0
Zn247 Zn 0.91144 0.34351 0.61155 0.0
N248 N 0.88845 0.53921 0.56232 0.0
C249 C 0.87415 0.54957 0.62047 0.0
C250 C 0.88228 0.50951 0.59355 0.0
C251 C 0.88671 0.60837 0.55677 0.0
N252 N 0.87292 0.61839 0.6156 0.0
C253 C 0.87888 0.64913 0.58447 0.0
O254 O 0.87523 0.33576 0.56925 0.0
C255 C 0.86208 0.35557 0.53408 0.0
O256 O 0.87101 0.40166 0.51564 0.0
H257 H 0.88403 0.45493 0.59781 0.0
H258 H 0.89217 0.63131 0.53218 0.0
C259 C 0.90861 0.19651 0.61929 0.0
C260 C 0.91784 0.12893 0.61946 0.0
C261 C 0.95867 0.17061 0.61425 0.0
C262 C 0.94884 0.23701 0.61143 0.0
N263 N 0.92475 0.24954 0.61654 0.0
N264 N 0.94289 0.11809 0.61787 0.0
H265 H 0.88859 0.20675 0.61975 0.0
C266 C 0.91181 0.46557 0.45726 0.0
O267 O 0.91423 0.40224 0.47072 0.0
O268 O 0.90691 0.382 0.66373 0.0
H269 H 0.95995 0.27725 0.60321 0.0
H270 H 0.8692 0.52633 0.64539 0.0
H271 H 0.97812 0.16051 0.61135 0.0
H272 H 0.56157 0.95892 0.32925 0.0
H273 H 0.57582 0.17591 0.35114 0.0
H274 H 0.54311 0.20188 0.28556 0.0
H275 H 0.54929 0.9617 0.22063 0.0
H276 H 0.52368 0.89761 0.21267 0.0
H277 H 0.55082 0.89811 0.2587 0.0
H278 H 0.51692 0.90325 0.29905 0.0
H279 H 0.48969 0.90479 0.25321 0.0
H280 H 0.49307 0.97206 0.28971 0.0
H281 H 0.50656 0.20221 0.21712 0.0
H282 H 0.47114 0.17662 0.15407 0.0
H283 H 0.47897 0.96014 0.18235 0.0
C284 C 0.55827 0.012 0.31995 0.0
C285 C 0.57174 0.06535 0.34508 0.0
C286 C 0.56639 0.13404 0.33217 0.0
C287 C 0.5476 0.14926 0.29497 0.0
C288 C 0.53409 0.09509 0.27154 0.0
C289 C 0.53934 0.02782 0.28365 0.0
C290 C 0.52122 0.9786 0.25482 0.0
C291 C 0.5372 0.93122 0.23556 0.0
C292 C 0.50423 0.93728 0.27544 0.0
C293 C 0.50454 0.02857 0.2247 0.0
C294 C 0.51237 0.09552 0.23428 0.0
C295 C 0.50022 0.14992 0.20955 0.0
C296 C 0.47988 0.13501 0.17387 0.0
C297 C 0.47184 0.06653 0.16367 0.0
C298 C 0.48422 0.0132 0.18985 0.0
H299 H 0.48158 0.86942 0.67476 0.0
H300 H 0.45362 0.07903 0.66851 0.0
H301 H 0.48932 0.10627 0.7305 0.0
H302 H 0.50251 0.85868 0.78867 0.0
H303 H 0.53049 0.80507 0.78977 0.0
H304 H 0.50064 0.80076 0.74773 0.0
H305 H 0.52894 0.82511 0.70018 0.0
H306 H 0.55862 0.83315 0.74226 0.0
H307 H 0.54847 0.9024 0.70676 0.0
H308 H 0.53283 0.11741 0.78206 0.0
H309 H 0.57085 0.10222 0.84269 0.0
H310 H 0.56972 0.8834 0.82082 0.0
C311 C 0.48204 0.91977 0.68779 0.0
C312 C 0.46477 0.97219 0.66716 0.0
C313 C 0.4664 0.03807 0.68446 0.0
C314 C 0.48699 0.0544 0.71905 0.0
C315 C 0.50533 0.00358 0.7364 0.0
C316 C 0.50231 0.93666 0.72299 0.0
C317 C 0.5248 0.89207 0.7483 0.0
C318 C 0.51397 0.83583 0.76992 0.0
C319 C 0.54115 0.86137 0.72283 0.0
C320 C 0.54089 0.94482 0.77763 0.0
C321 C 0.5297 0.00912 0.76889 0.0
C322 C 0.54132 0.067 0.79008 0.0
C323 C 0.56326 0.05795 0.824 0.0
C324 C 0.57259 0.99143 0.83732 0.0
C325 C 0.56262 0.93463 0.81218 0.0
H326 H 0.97591 0.47146 0.18189 0.0
H327 H 0.96254 0.68932 0.16334 0.0
H328 H 0.99869 0.71275 0.22557 0.0
H329 H 0.99101 0.48013 0.29346 0.0
H330 H 1.01453 0.41095 0.30021 0.0
H331 H 0.9863 0.41452 0.25565 0.0
H332 H 1.01894 0.40773 0.21312 0.0
H333 H 0.04729 0.40896 0.25753 0.0
H334 H 0.04399 0.47289 0.21907 0.0
H335 H 0.04125 0.71101 0.28465 0.0
H336 H 0.0776 0.68521 0.34626 0.0
H337 H 0.05981 0.46883 0.32999 0.0
C338 C 0.98006 0.5241 0.19158 0.0
C339 C 0.96669 0.57878 0.16732 0.0
C340 C 0.97266 0.64678 0.1809 0.0
C341 C 0.99332 0.6605 0.21626 0.0
C342 C 1.00728 0.60534 0.23809 0.0
C343 C 1.00011 0.53843 0.22718 0.0
C344 C 1.01771 0.48817 0.25632 0.0
C345 C 1.00142 0.44595 0.27768 0.0
C346 C 0.03287 0.4417 0.23523 0.0
C347 C 0.03629 0.53722 0.28487 0.0
C348 C 0.03034 0.60452 0.27347 0.0
C349 C 0.0456 0.65852 0.29445 0.0
C350 C 0.06638 0.64343 0.32946 0.0
C351 C 0.07124 0.57531 0.34352 0.0
C352 C 0.05649 0.5216 0.32006 0.0
H353 H 0.02474 0.43152 0.85074 0.0
H354 H 0.09458 0.33462 0.83548 0.0
H355 H 0.06932 0.3032 0.76631 0.0
H356 H 0.97709 0.30577 0.78959 0.0
H357 H 0.95237 0.37027 0.76976 0.0
H358 H 0.97487 0.37921 0.81974 0.0
H359 H 0.99011 0.4978 0.8027 0.0
H360 H 0.96694 0.49193 0.75324 0.0
H361 H 1.00157 0.5071 0.75933 0.0
H362 H 0.03824 0.29753 0.69714 0.0
H363 H 1.00564 0.32532 0.63214 0.0
H364 H 0.95519 0.42273 0.69299 0.0
C365 C 0.03494 0.40305 0.8333 0.0
C366 C 0.0623 0.38698 0.84867 0.0
C367 C 0.07431 0.34983 0.82425 0.0
C368 C 0.05974 0.33029 0.78514 0.0
C369 C 0.03292 0.34764 0.77111 0.0
C370 C 0.02067 0.38326 0.79453 0.0
C371 C 0.99229 0.40122 0.7716 0.0
C372 C 0.97304 0.36176 0.78874 0.0
C373 C 0.98748 0.4791 0.77171 0.0
C374 C 0.99106 0.37516 0.73032 0.0
C375 C 1.01445 0.34212 0.73115 0.0
C376 C 1.01954 0.32111 0.69624 0.0
C377 C 1.00088 0.33698 0.6595 0.0
C378 C 0.97733 0.37307 0.65784 0.0
C379 C 0.97203 0.39083 0.69363 0.0
H380 H 0.38034 0.71728 0.09711 0.0
H381 H 0.40307 0.78801 0.99417 0.0
H382 H 0.42002 0.67304 0.9869 0.0
H383 H 0.4362 0.60603 0.13794 0.0
H384 H 0.4172 0.54104 0.15356 0.0
H385 H 0.40684 0.62928 0.15094 0.0
H386 H 0.3606 0.59528 0.10342 0.0
H387 H 0.37087 0.50694 0.1057 0.0
H388 H 0.35832 0.54926 0.05777 0.0
H389 H 0.43455 0.5511 0.99047 0.0
H390 H 0.44681 0.43036 0.00541 0.0
H391 H 0.41445 0.4365 0.10578 0.0
C392 C 0.38885 0.70871 0.07298 0.0
C393 C 0.39069 0.76255 0.04669 0.0
C394 C 0.402 0.74876 0.01551 0.0
C395 C 0.41146 0.68316 0.0108 0.0
C396 C 0.40938 0.6316 0.0373 0.0
C397 C 0.3984 0.64349 0.06781 0.0
C398 C 0.3988 0.57904 0.09239 0.0
C399 C 0.41577 0.58949 0.13631 0.0
C400 C 0.37046 0.5563 0.08964 0.0
C401 C 0.41179 0.52904 0.07093 0.0
C402 C 0.41763 0.56062 0.03919 0.0
C403 C 0.43006 0.5258 0.0152 0.0
C404 C 0.437 0.45712 0.02408 0.0
C405 C 0.43155 0.42337 0.05671 0.0
C406 C 0.41853 0.46003 0.08022 0.0
H407 H 0.66594 0.71627 0.42317 0.0
H408 H 0.63435 0.78843 0.5172 0.0
H409 H 0.6157 0.6741 0.52081 0.0
H410 H 0.61112 0.60727 0.3735 0.0
H411 H 0.63162 0.54151 0.362 0.0
H412 H 0.64256 0.62933 0.36663 0.0
H413 H 0.68613 0.59359 0.42064 0.0
H414 H 0.67526 0.50567 0.41635 0.0
H415 H 0.6845 0.54755 0.46458 0.0
H416 H 0.60049 0.55233 0.51463 0.0
H417 H 0.58855 0.432 0.49797 0.0
H418 H 0.63002 0.43685 0.40799 0.0
C419 C 0.65516 0.70822 0.44465 0.0
C420 C 0.65143 0.76232 0.46949 0.0
C421 C 0.63708 0.74906 0.49705 0.0
C422 C 0.62658 0.68379 0.49966 0.0
C423 C 0.63064 0.63199 0.4747 0.0
C424 C 0.64453 0.64337 0.44766 0.0
C425 C 0.64578 0.57887 0.42398 0.0
C426 C 0.63194 0.58992 0.37886 0.0
C427 C 0.67463 0.55502 0.43187 0.0
C428 C 0.63035 0.52936 0.44192 0.0
C429 C 0.62191 0.56125 0.47121 0.0
C430 C 0.607 0.52685 0.49177 0.0
C431 C 0.60026 0.45834 0.48192 0.0
C432 C 0.60835 0.42425 0.4517 0.0
C433 C 0.62384 0.46052 0.43168 0.0
H434 H 0.62564 0.57577 0.87699 0.0
H435 H 0.58629 0.59756 0.96857 0.0
H436 H 0.59636 0.47697 0.98857 0.0
H437 H 0.60128 0.41051 0.84616 0.0
H438 H 0.63106 0.37884 0.83739 0.0
H439 H 0.62366 0.46906 0.83293 0.0
H440 H 0.66912 0.49607 0.88498 0.0
H441 H 0.67683 0.40589 0.88921 0.0
H442 H 0.67809 0.45487 0.93347 0.0
H443 H 0.6079 0.35243 0.99591 0.0
H444 H 0.62156 0.23308 0.99175 0.0
H445 H 0.65198 0.28897 0.89345 0.0
C446 C 0.61989 0.55549 0.90199 0.0
C447 C 0.60551 0.59614 0.92166 0.0
C448 C 0.59751 0.56732 0.95338 0.0
C449 C 0.60311 0.49888 0.96493 0.0
C450 C 0.61661 0.45942 0.9443 0.0
C451 C 0.62508 0.48657 0.91367 0.0
C452 C 0.63783 0.43152 0.89498 0.0
C453 C 0.62254 0.42194 0.85022 0.0
C454 C 0.66722 0.44808 0.90103 0.0
C455 C 0.63486 0.36943 0.91952 0.0
C456 C 0.62269 0.38679 0.94792 0.0
C457 C 0.61745 0.33811 0.97374 0.0
C458 C 0.62504 0.26985 0.97074 0.0
C459 C 0.63758 0.25039 0.9418 0.0
C460 C 0.64247 0.3015 0.91596 0.0
H461 H 0.37179 0.29477 0.56144 0.0
H462 H 0.44829 0.19222 0.59697 0.0
H463 H 0.47066 0.30437 0.61197 0.0
H464 H 0.3922 0.43944 0.51316 0.0
H465 H 0.37195 0.50016 0.5295 0.0
H466 H 0.36191 0.41178 0.52195 0.0
H467 H 0.35957 0.40581 0.59486 0.0
H468 H 0.36985 0.49404 0.60272 0.0
H469 H 0.38836 0.42851 0.63598 0.0
H470 H 0.48471 0.42619 0.62459 0.0
H471 H 0.49034 0.55084 0.62881 0.0
H472 H 0.40477 0.5775 0.58295 0.0
C473 C 0.39327 0.29595 0.57233 0.0
C474 C 0.40829 0.23453 0.5777 0.0
C475 C 0.43634 0.23834 0.59186 0.0
C476 C 0.44922 0.30186 0.60086 0.0
C477 C 0.43382 0.36122 0.59538 0.0
C478 C 0.40647 0.35904 0.58105 0.0
C479 C 0.39471 0.43082 0.57681 0.0
C480 C 0.37929 0.44646 0.53274 0.0
C481 C 0.37708 0.44033 0.60423 0.0
C482 C 0.41976 0.47377 0.59109 0.0
C483 C 0.442 0.43222 0.60195 0.0
C484 C 0.46745 0.4592 0.61597 0.0
C485 C 0.47038 0.53045 0.61816 0.0
C486 C 0.44805 0.57487 0.60614 0.0
C487 C 0.4223 0.54566 0.59291 0.0
H488 H 0.91598 0.2878 0.07068 0.0
H489 H 0.83142 0.26491 0.05127 0.0
H490 H 0.8364 0.13927 0.05381 0.0
H491 H 0.92431 0.13376 0.01334 0.0
H492 H 0.95609 0.11282 0.04858 0.0
H493 H 0.9455 0.20089 0.041 0.0
H494 H 0.95258 0.21318 0.11734 0.0
H495 H 0.96283 0.12497 0.12512 0.0
H496 H 0.93575 0.15543 0.14176 0.0
H497 H 0.85062 0.01692 0.06288 0.0
H498 H 0.87293 0.90502 0.07498 0.0
H499 H 0.94882 0.0056 0.09104 0.0
C500 C 0.89846 0.25616 0.06575 0.0
C501 C 0.87323 0.286 0.06025 0.0
C502 C 0.85088 0.243 0.05526 0.0
C503 C 0.85351 0.17159 0.05669 0.0
C504 C 0.87868 0.14365 0.06334 0.0
C505 C 0.90077 0.18436 0.0675 0.0
C506 C 0.92572 0.14093 0.0766 0.0
C507 C 0.93866 0.14749 0.04286 0.0
C508 C 0.94537 0.15977 0.11764 0.0
C509 C 0.91417 0.06989 0.07738 0.0
C510 C 0.887 0.0727 0.0695 0.0
C511 C 0.87193 0.01398 0.06914 0.0
C512 C 0.88493 0.95043 0.07664 0.0
C513 C 0.91286 0.9459 0.08479 0.0
C514 C 0.9275 0.00689 0.08504 0.0
H515 H 0.12329 0.28252 0.43778 0.0
H516 H 0.20808 0.25881 0.45992 0.0
H517 H 0.20302 0.13314 0.45791 0.0
H518 H 0.11374 0.12941 0.49495 0.0
H519 H 0.0823 0.10853 0.45882 0.0
H520 H 0.09296 0.19653 0.46638 0.0
H521 H 0.08715 0.20796 0.39034 0.0
H522 H 0.07687 0.11981 0.3826 0.0
H523 H 0.10448 0.14965 0.36704 0.0
H524 H 0.1887 0.01085 0.44893 0.0
H525 H 0.16626 0.89914 0.43652 0.0
H526 H 0.09024 1.00072 0.41759 0.0
C527 C 0.14082 0.25069 0.44343 0.0
C528 C 0.16615 0.28022 0.4496 0.0
C529 C 0.18855 0.23705 0.45548 0.0
C530 C 0.18587 0.16566 0.45434 0.0
C531 C 0.16061 0.13798 0.44702 0.0
C532 C 0.13846 0.17894 0.44194 0.0
C533 C 0.11343 0.13582 0.43213 0.0
C534 C 0.09981 0.143 0.46504 0.0
C535 C 0.09437 0.15443 0.39056 0.0
C536 C 0.125 0.06462 0.43211 0.0
C537 C 0.15225 0.06711 0.44089 0.0
C538 C 0.16734 0.00817 0.44199 0.0
C539 C 0.15428 0.94475 0.43431 0.0
C540 C 0.12629 0.94061 0.42529 0.0
C541 C 0.11162 1.00177 0.42429 0.0
H542 H 0.12013 0.0153 0.84595 0.0
H543 H 0.16248 0.09773 0.96278 0.0
H544 H 0.18013 0.98212 0.9856 0.0
H545 H 0.09873 0.87028 0.87677 0.0
H546 H 0.10289 0.81413 0.83819 0.0
H547 H 0.09781 0.90428 0.82835 0.0
H548 H 0.14144 0.91273 0.80944 0.0
H549 H 0.14628 0.82189 0.81787 0.0
H550 H 0.17193 0.88099 0.84386 0.0
H551 H 0.18471 0.85376 0.99923 0.0
H552 H 0.18338 0.72642 0.99837 0.0
H553 H 0.14036 0.73087 0.87126 0.0
C554 C 0.13422 0.00936 0.87562 0.0
C555 C 0.14041 0.06498 0.90246 0.0
C556 C 0.15814 0.05565 0.94157 0.0
C557 C 0.168 0.99013 0.95485 0.0
C558 C 0.1603 0.93527 0.92826 0.0
C559 C 0.14457 0.94477 0.88897 0.0
C560 C 0.13774 0.87737 0.86699 0.0
C561 C 0.10751 0.8659 0.85171 0.0
C562 C 0.1501 0.87299 0.8325 0.0
C563 C 0.15098 0.8282 0.90047 0.0
C564 C 0.16384 0.86219 0.9357 0.0
C565 C 0.17533 0.82669 0.97154 0.0
C566 C 0.17422 0.75466 0.97095 0.0
C567 C 0.1619 0.71948 0.93471 0.0
C568 C 0.1502 0.75684 0.89922 0.0
H569 H 0.90579 0.73384 0.64344 0.0
H570 H 0.85145 0.73275 0.52243 0.0
H571 H 0.84908 0.85995 0.52375 0.0
H572 H 0.87844 0.88045 0.68229 0.0
H573 H 0.91071 0.91217 0.71055 0.0
H574 H 0.9056 0.82154 0.70163 0.0
H575 H 0.94374 0.81736 0.66926 0.0
H576 H 0.94936 0.90729 0.67913 0.0
H577 H 0.943 0.87526 0.6287 0.0
H578 H 0.85396 0.98764 0.53845 0.0
H579 H 0.87277 0.10299 0.55857 0.0
H580 H 0.92605 0.01812 0.66796 0.0
C581 C 0.89327 0.76059 0.61734 0.0
C582 C 0.8787 0.72434 0.58291 0.0
C583 C 0.86283 0.76031 0.54897 0.0
C584 C 0.86112 0.83219 0.54973 0.0
C585 C 0.87556 0.86664 0.58455 0.0
C586 C 0.89178 0.83187 0.61737 0.0
C587 C 0.90772 0.88038 0.64928 0.0
C588 C 0.90015 0.87318 0.68824 0.0
C589 C 0.93772 0.86945 0.657 0.0
C590 C 0.89851 0.94822 0.629 0.0
C591 C 0.87929 0.93953 0.59227 0.0
C592 C 0.86881 0.99502 0.56728 0.0
C593 C 0.87935 0.06041 0.57911 0.0
C594 C 0.90046 0.06897 0.61508 0.0
C595 C 0.90943 0.01274 0.64087 0.0
H596 H 0.31326 0.14427 0.98814 0.0
H597 H 0.34824 0.24648 0.10255 0.0
H598 H 0.30534 0.29943 0.09754 0.0
H599 H 0.27111 0.28576 0.94073 0.0
H600 H 0.24362 0.23258 0.91375 0.0
H601 H 0.27702 0.19995 0.92637 0.0
H602 H 0.2635 0.09666 0.96242 0.0
H603 H 0.23009 0.12931 0.95017 0.0
H604 H 0.24861 0.11178 1.00173 0.0
H605 H 0.25911 0.34209 0.08142 0.0
H606 H 0.21266 0.37845 0.05238 0.0
H607 H 0.20619 0.25277 0.94721 0.0
C608 C 0.31189 0.17778 0.0121 0.0
C609 C 0.33443 0.19078 0.04579 0.0
C610 C 0.33157 0.23531 0.07636 0.0
C611 C 0.30714 0.26568 0.07394 0.0
C612 C 0.28542 0.25166 0.04068 0.0
C613 C 0.28746 0.20926 0.01009 0.0
C614 C 0.2609 0.205 0.97714 0.0
C615 C 0.26332 0.23247 0.93713 0.0
C616 C 0.25015 0.1313 0.97261 0.0
C617 C 0.24389 0.25202 0.994 0.0
C618 C 0.25849 0.27765 0.03091 0.0
C619 C 0.24745 0.32241 0.0525 0.0
C620 C 0.22092 0.34268 0.03571 0.0
C621 C 0.20553 0.31877 0.9974 0.0
C622 C 0.21725 0.272 0.97659 0.0
H623 H 0.72936 0.14187 0.52294 0.0
H624 H 0.69124 0.26043 0.41541 0.0
H625 H 0.73339 0.31734 0.42075 0.0
H626 H 0.77192 0.27956 0.57574 0.0
H627 H 0.79996 0.2248 0.59828 0.0
H628 H 0.76676 0.19102 0.5861 0.0
H629 H 0.77924 0.09595 0.54339 0.0
H630 H 0.81243 0.12987 0.55519 0.0
H631 H 0.79263 0.11947 0.50353 0.0
H632 H 0.77921 0.36146 0.43591 0.0
H633 H 0.82586 0.39695 0.46375 0.0
H634 H 0.83572 0.25429 0.56283 0.0
C635 C 0.72988 0.17991 0.50063 0.0
C636 C 0.70671 0.19607 0.46866 0.0
C637 C 0.70845 0.24647 0.44019 0.0
C638 C 0.73244 0.27926 0.44281 0.0
C639 C 0.75482 0.2618 0.47418 0.0
C640 C 0.75387 0.21387 0.50288 0.0
C641 C 0.78104 0.20664 0.53407 0.0
C642 C 0.77984 0.22672 0.57603 0.0
C643 C 0.79198 0.13364 0.53403 0.0
C644 C 0.79712 0.25821 0.51836 0.0
C645 C 0.78155 0.28876 0.48354 0.0
C646 C 0.79165 0.33803 0.46324 0.0
C647 C 0.81828 0.35773 0.47928 0.0
C648 C 0.83466 0.32872 0.51557 0.0
C649 C 0.82385 0.27758 0.53503 0.0
H650 H 0.7024 0.7679 0.93339 0.0
H651 H 0.70906 0.90483 0.03412 0.0
H652 H 0.75561 0.87233 0.0633 0.0
H653 H 0.74522 0.63365 0.99335 0.0
H654 H 0.76041 0.61206 0.95521 0.0
H655 H 0.72706 0.64544 0.94101 0.0
H656 H 0.74086 0.74234 0.90087 0.0
H657 H 0.77429 0.70951 0.91517 0.0
H658 H 0.7683 0.79733 0.9258 0.0
H659 H 0.80141 0.83093 0.08143 0.0
H660 H 0.84409 0.77412 0.09118 0.0
H661 H 0.81048 0.65725 0.98152 0.0
C662 C 0.71363 0.79069 0.96168 0.0
C663 C 0.70166 0.83932 0.9812 0.0
C664 C 0.7173 0.86755 0.01828 0.0
C665 C 0.74399 0.8496 0.03523 0.0
C666 C 0.75517 0.80257 0.01522 0.0
C667 C 0.7406 0.77261 0.97956 0.0
C668 C 0.75797 0.72224 0.96528 0.0
C669 C 0.74701 0.649 0.96362 0.0
C670 C 0.7605 0.74418 0.92434 0.0
C671 C 0.78445 0.72931 0.99842 0.0
C672 C 0.78213 0.77651 0.02659 0.0
C673 C 0.80345 0.79338 0.05979 0.0
C674 C 0.82777 0.76049 0.065 0.0
C675 C 0.83097 0.71034 0.0374 0.0
C676 C 0.80888 0.69514 1.00327 0.0
H677 H 0.22955 0.64913 0.52474 0.0
H678 H 0.19491 0.76703 0.41564 0.0
H679 H 0.23785 0.82108 0.42327 0.0
H680 H 0.27326 0.78684 0.57864 0.0
H681 H 0.3004 0.73036 0.60277 0.0
H682 H 0.26673 0.69947 0.58954 0.0
H683 H 0.27891 0.60097 0.5488 0.0
H684 H 0.31256 0.63192 0.56163 0.0
H685 H 0.29346 0.62094 0.50967 0.0
H686 H 0.28394 0.85979 0.4394 0.0
H687 H 0.33078 0.89072 0.46728 0.0
H688 H 0.33807 0.75417 0.56852 0.0
C689 C 0.23099 0.68668 0.50267 0.0
C690 C 0.20856 0.703 0.46934 0.0
C691 C 0.21152 0.75264 0.44126 0.0
C692 C 0.23597 0.78391 0.44524 0.0
C693 C 0.25763 0.76588 0.47768 0.0
C694 C 0.25553 0.71923 0.50631 0.0
C695 C 0.28233 0.71085 0.53853 0.0
C696 C 0.28057 0.73322 0.57982 0.0
C697 C 0.29241 0.63676 0.53972 0.0
C698 C 0.29959 0.75994 0.52325 0.0
C699 C 0.28474 0.79034 0.48786 0.0
C700 C 0.29578 0.83671 0.46725 0.0
C701 C 0.32261 0.8538 0.48345 0.0
C702 C 0.33847 0.8253 0.52034 0.0
C703 C 0.32668 0.777 0.5403 0.0
H704 H 0.39865 0.0556 0.89249 0.0
H705 H 0.37586 0.8506 0.91699 0.0
H706 H 0.38428 0.80834 0.85547 0.0
H707 H 0.3662 0.04847 0.78723 0.0
H708 H 0.39094 0.09724 0.77317 0.0
H709 H 0.3861 0.11075 0.82143 0.0
H710 H 0.4359 0.08533 0.85669 0.0
H711 H 0.4408 0.0724 0.80836 0.0
H712 H 0.45004 0.00618 0.84599 0.0
H713 H 0.39434 0.78792 0.7912 0.0
H714 H 0.40141 0.79264 0.72458 0.0
H715 H 0.41432 0.01209 0.73786 0.0
C716 C 0.39579 1.00174 0.88502 0.0
C717 C 0.38668 0.95622 0.90948 0.0
C718 C 0.3827 0.88632 0.89852 0.0
C719 C 0.38759 0.86173 0.86379 0.0
C720 C 0.39616 0.90783 0.83993 0.0
C721 C 0.4 0.9765 0.84974 0.0
C722 C 0.40718 0.01585 0.81697 0.0
C723 C 0.38636 0.07135 0.79862 0.0
C724 C 0.43515 0.04677 0.83299 0.0
C725 C 0.40643 0.95872 0.78716 0.0
C726 C 0.40058 0.89665 0.80147 0.0
C727 C 0.39891 0.83624 0.7796 0.0
C728 C 0.40301 0.83941 0.74182 0.0
C729 C 0.40822 0.90272 0.7259 0.0
C730 C 0.41014 0.96302 0.74911 0.0
H731 H 0.6338 0.95945 0.59867 0.0
H732 H 0.6284 0.18065 0.60684 0.0
H733 H 0.62277 0.1688 0.67397 0.0
H734 H 0.58466 0.92134 0.65264 0.0
H735 H 0.60252 0.84687 0.67724 0.0
H736 H 0.60409 0.87179 0.62829 0.0
H737 H 0.65543 0.87574 0.65577 0.0
H738 H 0.65407 0.85101 0.70474 0.0
H739 H 0.67109 0.92842 0.69882 0.0
H740 H 0.62195 0.13503 0.74191 0.0
H741 H 0.62444 0.08122 0.80655 0.0
H742 H 0.62885 0.88036 0.75562 0.0
C743 C 0.63125 0.00533 0.6145 0.0
C744 C 0.63176 0.07113 0.59754 0.0
C745 C 0.62816 0.1298 0.61913 0.0
C746 C 0.62486 0.12358 0.65729 0.0
C747 C 0.62486 0.05826 0.67339 0.0
C748 C 0.62766 1.00001 0.65264 0.0
C749 C 0.62767 0.93611 0.6776 0.0
C750 C 0.60329 0.89138 0.65776 0.0
C751 C 0.65361 0.89545 0.68465 0.0
C752 C 0.62574 0.96788 0.7163 0.0
C753 C 0.62383 0.03841 0.71283 0.0
C754 C 0.62316 0.07984 0.74487 0.0
C755 C 0.62477 0.04866 0.78161 0.0
C756 C 0.62699 0.97654 0.78628 0.0
C757 C 0.62701 0.93553 0.75289 0.0
H758 H 0.63417 0.99748 0.28837 0.0
H759 H 0.6162 0.21412 0.26942 0.0
H760 H 0.61218 0.2004 0.19733 0.0
H761 H 0.67373 0.98149 0.22406 0.0
H762 H 0.6615 0.89781 0.20564 0.0
H763 H 0.66154 0.92427 0.25498 0.0
H764 H 0.61092 0.90035 0.23632 0.0
H765 H 0.61096 0.87298 0.18709 0.0
H766 H 0.58878 0.94002 0.19218 0.0
H767 H 0.61286 0.16358 0.12805 0.0
H768 H 0.61705 0.10687 0.06713 0.0
H769 H 0.6336 0.91366 0.13161 0.0
C770 C 0.62933 0.04215 0.26911 0.0
C771 C 0.62576 0.10711 0.28463 0.0
C772 C 0.61914 0.16396 0.25824 0.0
C773 C 0.61677 0.15659 0.21726 0.0
C774 C 0.62074 0.09188 0.20309 0.0
C775 C 0.62665 0.03557 0.22821 0.0
C776 C 0.63036 0.9718 0.20579 0.0
C777 C 0.65845 0.94214 0.22369 0.0
C778 C 0.60898 0.91812 0.20533 0.0
C779 C 0.62643 1.00131 0.1643 0.0
C780 C 0.62071 0.07055 0.16326 0.0
C781 C 0.61713 0.10931 0.1285 0.0
C782 C 0.61963 0.0766 0.09405 0.0
C783 C 0.62568 0.00573 0.09452 0.0
C784 C 0.62883 0.96773 0.13013 0.0
H785 H 0.38134 0.02922 0.38972 0.0
H786 H 0.46417 0.9697 0.43223 0.0
H787 H 0.47134 0.02072 0.37137 0.0
H788 H 0.37256 0.98503 0.28746 0.0
H789 H 0.34977 0.05395 0.26693 0.0
H790 H 0.35191 0.01918 0.31555 0.0
H791 H 0.36166 0.14044 0.34669 0.0
H792 H 0.35972 0.17553 0.29815 0.0
H793 H 0.38907 0.18897 0.34016 0.0
H794 H 0.46932 0.07847 0.30593 0.0
H795 H 0.45723 0.12324 0.23683 0.0
H796 H 0.37484 0.13606 0.23379 0.0
C797 C 0.40101 0.02772 0.38625 0.0
C798 C 0.4223 0.99625 0.41556 0.0
C799 C 0.44766 0.99365 0.40991 0.0
C800 C 0.45193 0.02288 0.37565 0.0
C801 C 0.43048 0.05338 0.34709 0.0
C802 C 0.40542 0.05497 0.35169 0.0
C803 C 0.3853 0.08528 0.31492 0.0
C804 C 0.36361 0.03272 0.29504 0.0
C805 C 0.37323 0.1515 0.32563 0.0
C806 C 0.4029 0.10014 0.2888 0.0
C807 C 0.42899 0.08273 0.30831 0.0
C808 C 0.44892 0.09189 0.29033 0.0
C809 C 0.44189 0.11774 0.25103 0.0
C810 C 0.41513 0.13298 0.22968 0.0
C811 C 0.39548 0.12488 0.24923 0.0
H812 H 0.89284 0.31532 0.76474 0.0
H813 H 0.91063 0.4929 0.70248 0.0
H814 H 0.91179 0.56527 0.76068 0.0
H815 H 0.85083 0.40064 0.81404 0.0
H816 H 0.86328 0.3532 0.86025 0.0
H817 H 0.86346 0.31497 0.81343 0.0
H818 H 0.914 0.29285 0.84262 0.0
H819 H 0.91403 0.33127 0.88952 0.0
H820 H 0.93594 0.3634 0.86296 0.0
H821 H 0.91106 0.61906 0.82541 0.0
H822 H 0.90835 0.65091 0.89223 0.0
H823 H 0.89184 0.43906 0.91432 0.0
C824 C 0.89675 0.36952 0.76318 0.0
C825 C 0.9013 0.39835 0.72857 0.0
C826 C 0.9067 0.46948 0.7282 0.0
C827 C 0.90756 0.51111 0.7613 0.0
C828 C 0.90311 0.4811 0.79488 0.0
C829 C 0.89786 0.41197 0.79619 0.0
C830 C 0.89421 0.39272 0.83638 0.0
C831 C 0.86628 0.36367 0.83067 0.0
C832 C 0.91583 0.34205 0.85922 0.0
C833 C 0.89774 0.46206 0.8571 0.0
C834 C 0.903 0.51215 0.83261 0.0
C835 C 0.90695 0.58025 0.84484 0.0
C836 C 0.90534 0.59784 0.88297 0.0
C837 C 0.89978 0.54772 0.90872 0.0
C838 C 0.89608 0.47873 0.89547 0.0
H839 H 0.14579 0.4344 0.59414 0.0
H840 H 0.14292 0.65013 0.62286 0.0
H841 H 0.14139 0.61943 0.69049 0.0
H842 H 0.10096 0.37641 0.64822 0.0
H843 H 0.11889 0.29806 0.66534 0.0
H844 H 0.11959 0.33658 0.61879 0.0
H845 H 0.17098 0.33891 0.64457 0.0
H846 H 0.17043 0.30059 0.69123 0.0
H847 H 0.18749 0.38063 0.69154 0.0
H848 H 0.14019 0.56633 0.7552 0.0
H849 H 0.13904 0.49403 0.81249 0.0
H850 H 0.14324 0.31186 0.74341 0.0
C851 C 0.14483 0.47517 0.61464 0.0
C852 C 0.14456 0.54486 0.60298 0.0
C853 C 0.14321 0.59645 0.63085 0.0
C854 C 0.14232 0.57954 0.66947 0.0
C855 C 0.14276 0.51065 0.68006 0.0
C856 C 0.14392 0.45916 0.65351 0.0
C857 C 0.1441 0.38915 0.67272 0.0
C858 C 0.11942 0.34761 0.64991 0.0
C859 C 0.16978 0.35003 0.67516 0.0
C860 C 0.14309 0.40948 0.71424 0.0
C861 C 0.14225 0.47987 0.71769 0.0
C862 C 0.14096 0.51112 0.7529 0.0
C863 C 0.14045 0.46949 0.78544 0.0
C864 C 0.14139 0.39708 0.7829 0.0
C865 C 0.14272 0.36696 0.74662 0.0
H866 H 0.14011 0.65815 0.26037 0.0
H867 H 0.10431 0.47827 0.29541 0.0
H868 H 0.09614 0.42992 0.22772 0.0
H869 H 0.09725 0.66303 0.15296 0.0
H870 H 0.12439 0.68768 0.13477 0.0
H871 H 0.12416 0.71365 0.18418 0.0
H872 H 0.17034 0.65785 0.21498 0.0
H873 H 0.17065 0.63148 0.16576 0.0
H874 H 0.17492 0.56878 0.20514 0.0
H875 H 0.09551 0.39525 0.15977 0.0
H876 H 0.10307 0.37461 0.0948 0.0
H877 H 0.14022 0.57445 0.10122 0.0
C878 C 0.12998 0.60944 0.25327 0.0
C879 C 0.12262 0.57209 0.28298 0.0
C880 C 0.11005 0.5077 0.27308 0.0
C881 C 0.10523 0.4799 0.23464 0.0
C882 C 0.11327 0.5168 0.20627 0.0
C883 C 0.12537 0.58014 0.21488 0.0
C884 C 0.13406 0.60566 0.17962 0.0
C885 C 0.11907 0.67142 0.16183 0.0
C886 C 0.16429 0.61656 0.19214 0.0
C887 C 0.12564 0.54588 0.15059 0.0
C888 C 0.11334 0.49583 0.16657 0.0
C889 C 0.10489 0.4343 0.14674 0.0
C890 C 0.10938 0.42299 0.1098 0.0
C891 C 0.12222 0.47281 0.09273 0.0
C892 C 0.13013 0.5356 0.11326 0.0
H893 H 0.90036 0.6663 0.25042 0.0
H894 H 0.93071 0.47966 0.2131 0.0
H895 H 0.93854 0.43114 0.28065 0.0
H896 H 0.94481 0.66503 0.35689 0.0
H897 H 0.91903 0.69494 0.37666 0.0
H898 H 0.91889 0.71993 0.32689 0.0
H899 H 0.87122 0.67221 0.29775 0.0
H900 H 0.87124 0.64688 0.34733 0.0
H901 H 0.86457 0.58438 0.30755 0.0
H902 H 0.9399 0.39798 0.34902 0.0
H903 H 0.93356 0.37982 0.41495 0.0
H904 H 0.9012 0.58519 0.41102 0.0
C905 C 0.9092 0.61592 0.25694 0.0
C906 C 0.9151 0.57686 0.22654 0.0
C907 C 0.92604 0.51047 0.23584 0.0
C908 C 0.93067 0.4825 0.27423 0.0
C909 C 0.92414 0.52124 0.30328 0.0
C910 C 0.91362 0.58645 0.29536 0.0
C911 C 0.90641 0.61409 0.3315 0.0
C912 C 0.92329 0.67726 0.34902 0.0
C913 C 0.87659 0.63033 0.32035 0.0
C914 C 0.91379 0.55341 0.36024 0.0
C915 C 0.92438 0.50109 0.3433 0.0
C916 C 0.93181 0.43872 0.36275 0.0
C917 C 0.92802 0.42887 0.4003 0.0
C918 C 0.91684 0.48091 0.41841 0.0
C919 C 0.90996 0.54454 0.3982 0.0
H920 H 0.45521 0.07301 0.00809 0.0
H921 H 0.46067 0.86783 0.05682 0.0
H922 H 0.49814 0.84286 0.0307 0.0
H923 H 0.47867 0.02793 0.91723 0.0
H924 H 0.49588 0.10867 0.92211 0.0
H925 H 0.4656 0.10214 0.93544 0.0
H926 H 0.49077 0.15126 0.00543 0.0
H927 H 0.52159 0.15362 0.99368 0.0
H928 H 0.51939 0.10648 0.03696 0.0
H929 H 0.54099 0.84939 0.01243 0.0
H930 H 0.57867 0.87654 0.9868 0.0
H931 H 0.54585 0.07905 0.95246 0.0
C932 C 0.46298 0.02128 0.01055 0.0
C933 C 0.4548 0.9719 0.03383 0.0
C934 C 0.4663 0.90571 0.03821 0.0
C935 C 0.48796 0.8916 0.02418 0.0
C936 C 0.49756 0.94403 0.0053 0.0
C937 C 0.4848 0.00672 0.99704 0.0
C938 C 0.50025 0.0562 0.97924 0.0
C939 C 0.48415 0.07486 0.93593 0.0
C940 C 0.50848 0.12066 0.00542 0.0
C941 C 0.52414 0.0126 0.98029 0.0
C942 C 0.5223 0.94805 0.99541 0.0
C943 C 0.54241 0.89948 0.99994 0.0
C944 C 0.56405 0.9158 0.98609 0.0
C945 C 0.56529 0.98009 0.96795 0.0
C946 C 0.54556 0.02973 0.96658 0.0
H947 H 0.58264 0.0783 0.49582 0.0
H948 H 0.58392 0.868 0.45765 0.0
H949 H 0.54781 0.83974 0.4862 0.0
H950 H 0.56167 0.04156 0.58961 0.0
H951 H 0.54097 0.11695 0.58053 0.0
H952 H 0.57116 0.11615 0.56679 0.0
H953 H 0.54465 0.15001 0.49442 0.0
H954 H 0.51398 0.14883 0.50661 0.0
H955 H 0.51764 0.09649 0.46614 0.0
H956 H 0.50597 0.84037 0.5064 0.0
H957 H 0.46701 0.86427 0.52918 0.0
H958 H 0.49155 0.07628 0.55056 0.0
C959 C 0.57678 0.02524 0.49642 0.0
C960 C 0.5867 0.97467 0.47593 0.0
C961 C 0.57721 0.9067 0.47457 0.0
C962 C 0.55638 0.89057 0.4901 0.0
C963 C 0.54537 0.94312 0.50691 0.0
C964 C 0.55578 0.00869 0.51133 0.0
C965 C 0.53863 0.05753 0.52639 0.0
C966 C 0.55401 0.08459 0.56834 0.0
C967 C 0.52812 0.11667 0.49659 0.0
C968 C 0.51638 0.00997 0.52808 0.0
C969 C 0.52069 0.94414 0.51697 0.0
C970 C 0.50252 0.89167 0.51544 0.0
C971 C 0.48009 0.90609 0.52755 0.0
C972 C 0.47575 0.9727 0.54037 0.0
C973 C 0.49397 0.02536 0.53983 0.0
H974 H 0.97521 0.42309 0.05178 0.0
H975 H 0.9521 0.63146 0.01447 0.0
H976 H 0.99046 0.64181 0.98841 0.0
H977 H 0.04306 0.45184 0.08823 0.0
H978 H 0.05264 0.37157 0.07118 0.0
H979 H 0.02159 0.37822 0.08204 0.0
H980 H 0.99631 0.33606 0.0098 0.0
H981 H 0.02766 0.32749 1.00001 0.0
H982 H 1.00172 0.37911 0.96727 0.0
H983 H 0.03465 0.63325 0.97381 0.0
H984 H 0.07314 0.59523 0.95318 0.0
H985 H 0.06817 0.39427 1.00249 0.0
C986 C 0.97745 0.46959 0.03615 0.0
C987 C 0.96031 0.52592 0.03435 0.0
C988 C 0.96438 0.58684 0.01496 0.0
C989 C 0.98659 0.59377 1.00107 0.0
C990 C 1.00443 0.53921 0.00667 0.0
C991 C 0.99955 0.47743 0.02242 0.0
C992 C 0.02179 0.42673 0.02547 0.0
C993 C 0.03557 0.40594 0.06935 0.0
C994 C 1.01125 0.36365 0.99905 0.0
C995 C 0.04006 0.46956 0.00904 0.0
C996 C 0.02993 0.53471 0.99902 0.0
C997 C 0.04275 0.58241 0.98164 0.0
C998 C 0.06509 0.56099 0.97096 0.0
C999 C 0.07413 0.49244 0.97726 0.0
C1000 C 0.06246 0.44776 0.9989 0.0
H1001 H 0.06302 0.42085 0.45747 0.0
H1002 H 0.0918 0.62294 0.50052 0.0
H1003 H 0.05447 0.6368 0.52858 0.0
H1004 H 0.99636 0.46284 0.42325 0.0
H1005 H 0.98462 0.38314 0.4377 0.0
H1006 H 1.01564 0.38562 0.42651 0.0
H1007 H 0.04 0.33429 0.49702 0.0
H1008 H 1.00859 0.32989 0.50697 0.0
H1009 H 0.03601 0.37483 0.54118 0.0
H1010 H 1.01067 0.6333 0.54466 0.0
H1011 H 0.97158 0.59928 0.56495 0.0
H1012 H 0.97025 0.4029 0.50729 0.0
C1013 C 0.06225 0.46647 0.47474 0.0
C1014 C 0.08056 0.52031 0.4774 0.0
C1015 C 0.07849 0.5802 0.49912 0.0
C1016 C 0.0569 0.58923 0.5142 0.0
C1017 C 0.0377 0.53778 0.50738 0.0
C1018 C 0.0407 0.4766 0.48939 0.0
C1019 C 1.01713 0.42979 0.48488 0.0
C1020 C 1.0026 0.41453 0.44043 0.0
C1021 C 0.02595 0.3633 0.50896 0.0
C1022 C 1.00029 0.47411 0.50311 0.0
C1023 C 1.0123 0.53664 0.5154 0.0
C1024 C 1.00108 0.5846 0.535 0.0
C1025 C 0.97841 0.56564 0.54549 0.0
C1026 C 0.96743 0.49928 0.53667 0.0
C1027 C 0.97747 0.45503 0.51283 0.0
loop_
_geom_bond_atom_site_label_1
_geom_bond_atom_site_label_2
_geom_bond_distance
_geom_bond_site_symmetry_2
_ccdc_geom_bond_type
Zn0 N4 2.020 . S
Zn0 O8 2.019 . S
Zn0 N10 2.119 . S
Zn0 O18 1.975 . S
C1 N2 1.334 . S
C1 N5 1.336 . S
N2 C1 1.334 . S
N2 C3 1.334 . S
C3 N2 1.334 . S
C3 N4 1.336 . S
N4 Zn0 2.020 . S
N4 C3 1.336 . S
N4 N5 1.354 . S
N5 C1 1.336 . S
N5 N4 1.354 . S
N5 Zn9 2.020 . S
C6 O7 1.244 . S
C6 O30 1.257 . S
O7 C6 1.244 . S
O8 Zn0 2.019 . S
O8 C28 1.257 . S
Zn9 N5 2.020 . S
Zn9 O16 1.975 . S
Zn9 N25 2.119 1_545 S
Zn9 O30 2.019 1_554 S
N10 Zn0 2.119 . S
N10 C12 1.334 . S
N10 C13 1.328 . S
C11 C12 1.391 . S
C11 N14 1.329 . S
C11 H32 0.930 . S
C12 N10 1.334 . S
C12 C11 1.391 . S
C12 H19 0.930 . S
C13 N10 1.328 . S
C13 C15 1.392 . S
C13 H20 0.930 . S
N14 C11 1.329 . S
N14 C15 1.331 . S
C15 C13 1.392 . S
C15 N14 1.331 . S
O16 Zn9 1.975 . S
O16 C17 1.252 . S
C17 O16 1.252 . S
C17 O18 1.252 . S
O18 Zn0 1.975 . S
O18 C17 1.252 . S
H19 C12 0.930 . S
H20 C13 0.930 . S
C21 C22 1.392 . S
C21 N25 1.328 . S
C21 H27 0.930 1_554 S
C22 C21 1.392 . S
C22 N26 1.331 . S
C23 C24 1.391 . S
C23 N26 1.329 . S
C23 H33 0.930 . S
C24 C23 1.391 . S
C24 N25 1.334 . S
C24 H31 0.930 . S
N25 Zn9 2.119 1_565 S
N25 C21 1.328 . S
N25 C24 1.334 . S
N26 C22 1.331 . S
N26 C23 1.329 . S
H27 C21 0.930 1_556 S
C28 O8 1.257 . S
C28 O29 1.244 . S
O29 C28 1.244 . S
O30 C6 1.257 . S
O30 Zn9 2.019 1_556 S
H31 C24 0.930 . S
H32 C11 0.930 . S
H33 C23 0.930 . S
Zn34 N38 2.020 . S
Zn34 O42 2.019 . S
Zn34 N44 2.119 1_545 S
Zn34 O52 1.975 . S
C35 N36 1.334 . S
C35 N39 1.336 . S
N36 C35 1.334 . S
N36 C37 1.334 . S
C37 N36 1.334 . S
C37 N38 1.336 . S
N38 Zn34 2.020 . S
N38 C37 1.336 . S
N38 N39 1.354 . S
N39 C35 1.336 . S
N39 N38 1.354 . S
N39 Zn43 2.020 . S
C40 O41 1.244 . S
C40 O64 1.257 . S
O41 C40 1.244 . S
O42 Zn34 2.019 . S
O42 C62 1.257 . S
Zn43 N39 2.020 . S
Zn43 O50 1.975 . S
Zn43 N59 2.119 . S
Zn43 O64 2.019 . S
N44 Zn34 2.119 1_565 S
N44 C46 1.334 . S
N44 C47 1.328 . S
C45 C46 1.391 . S
C45 N48 1.329 . S
C45 H66 0.930 . S
C46 N44 1.334 . S
C46 C45 1.391 . S
C46 H53 0.930 . S
C47 N44 1.328 . S
C47 C49 1.392 . S
C47 H54 0.930 . S
N48 C45 1.329 . S
N48 C49 1.331 . S
C49 C47 1.392 . S
C49 N48 1.331 . S
O50 Zn43 1.975 . S
O50 C51 1.252 . S
C51 O50 1.252 . S
C51 O52 1.252 . S
O52 Zn34 1.975 . S
O52 C51 1.252 . S
H53 C46 0.930 . S
H54 C47 0.930 . S
C55 C56 1.392 . S
C55 N59 1.328 . S
C55 H61 0.930 . S
C56 C55 1.392 . S
C56 N60 1.331 . S
C57 C58 1.391 . S
C57 N60 1.329 . S
C57 H67 0.930 . S
C58 C57 1.391 . S
C58 N59 1.334 . S
C58 H65 0.930 . S
N59 Zn43 2.119 . S
N59 C55 1.328 . S
N59 C58 1.334 . S
N60 C56 1.331 . S
N60 C57 1.329 . S
H61 C55 0.930 . S
C62 O42 1.257 . S
C62 O63 1.244 . S
O63 C62 1.244 . S
O64 C40 1.257 . S
O64 Zn43 2.019 . S
H65 C58 0.930 . S
H66 C45 0.930 . S
H67 C57 0.930 . S
Zn68 N72 2.020 . S
Zn68 O76 2.019 . S
Zn68 N78 2.119 . S
Zn68 O86 1.975 . S
C69 N70 1.334 . S
C69 N73 1.336 . S
N70 C69 1.334 . S
N70 C71 1.334 . S
C71 N70 1.334 . S
C71 N72 1.336 . S
N72 Zn68 2.020 . S
N72 C71 1.336 . S
N72 N73 1.354 . S
N73 C69 1.336 . S
N73 N72 1.354 . S
N73 Zn77 2.020 . S
C74 O75 1.244 . S
C74 O98 1.257 . S
O75 C74 1.244 . S
O76 Zn68 2.019 . S
O76 C96 1.257 . S
Zn77 N73 2.020 . S
Zn77 O84 1.975 . S
Zn77 N93 2.119 1_565 S
Zn77 O98 2.019 1_556 S
N78 Zn68 2.119 . S
N78 C80 1.334 . S
N78 C81 1.328 . S
C79 C80 1.391 . S
C79 N82 1.329 . S
C79 H100 0.930 . S
C80 N78 1.334 . S
C80 C79 1.391 . S
C80 H87 0.930 . S
C81 N78 1.328 . S
C81 C83 1.392 . S
C81 H88 0.930 . S
N82 C79 1.329 . S
N82 C83 1.331 . S
C83 C81 1.392 . S
C83 N82 1.331 . S
O84 Zn77 1.975 . S
O84 C85 1.252 . S
C85 O84 1.252 . S
C85 O86 1.252 . S
O86 Zn68 1.975 . S
O86 C85 1.252 . S
H87 C80 0.930 . S
H88 C81 0.930 . S
C89 C90 1.392 . S
C89 N93 1.328 . S
C89 H95 0.930 1_556 S
C90 C89 1.392 . S
C90 N94 1.331 . S
C91 C92 1.391 . S
C91 N94 1.329 . S
C91 H101 0.930 . S
C92 C91 1.391 . S
C92 N93 1.334 . S
C92 H99 0.930 . S
N93 Zn77 2.119 1_545 S
N93 C89 1.328 . S
N93 C92 1.334 . S
N94 C90 1.331 . S
N94 C91 1.329 . S
H95 C89 0.930 1_554 S
C96 O76 1.257 . S
C96 O97 1.244 . S
O97 C96 1.244 . S
O98 C74 1.257 . S
O98 Zn77 2.019 1_554 S
H99 C92 0.930 . S
H100 C79 0.930 . S
H101 C91 0.930 . S
Zn102 N106 2.020 . S
Zn102 O110 2.019 . S
Zn102 N112 2.119 . S
Zn102 O120 1.975 . S
C103 N104 1.334 . S
C103 N107 1.336 . S
N104 C103 1.334 . S
N104 C105 1.334 . S
C105 N104 1.334 . S
C105 N106 1.336 . S
N106 Zn102 2.020 . S
N106 C105 1.336 . S
N106 N107 1.354 . S
N107 C103 1.336 . S
N107 N106 1.354 . S
N107 Zn111 2.020 . S
C108 O109 1.244 . S
C108 O132 1.257 . S
O109 C108 1.244 . S
O110 Zn102 2.019 . S
O110 C130 1.257 . S
Zn111 N107 2.020 . S
Zn111 O118 1.975 . S
Zn111 N127 2.119 1_565 S
Zn111 O132 2.019 . S
N112 Zn102 2.119 . S
N112 C114 1.334 . S
N112 C115 1.328 . S
C113 C114 1.391 . S
C113 N116 1.329 . S
C113 H134 0.930 . S
C114 N112 1.334 . S
C114 C113 1.391 . S
C114 H121 0.930 . S
C115 N112 1.328 . S
C115 C117 1.392 . S
C115 H122 0.930 . S
N116 C113 1.329 . S
N116 C117 1.331 . S
C117 C115 1.392 . S
C117 N116 1.331 . S
O118 Zn111 1.975 . S
O118 C119 1.252 . S
C119 O118 1.252 . S
C119 O120 1.252 . S
O120 Zn102 1.975 . S
O120 C119 1.252 . S
H121 C114 0.930 . S
H122 C115 0.930 . S
C123 C124 1.392 . S
C123 N127 1.328 . S
C123 H129 0.930 . S
C124 C123 1.392 . S
C124 N128 1.331 . S
C125 C126 1.391 . S
C125 N128 1.329 . S
C125 H135 0.930 . S
C126 C125 1.391 . S
C126 N127 1.334 . S
C126 H133 0.930 . S
N127 Zn111 2.119 1_545 S
N127 C123 1.328 . S
N127 C126 1.334 . S
N128 C124 1.331 . S
N128 C125 1.329 . S
H129 C123 0.930 . S
C130 O110 1.257 . S
C130 O131 1.244 . S
O131 C130 1.244 . S
O132 C108 1.257 . S
O132 Zn111 2.019 . S
H133 C126 0.930 . S
H134 C113 0.930 . S
H135 C125 0.930 . S
Zn136 N140 2.020 . S
Zn136 O144 2.019 . S
Zn136 N146 2.119 . S
Zn136 O154 1.975 . S
C137 N138 1.334 . S
C137 N141 1.336 . S
N138 C137 1.334 . S
N138 C139 1.334 . S
C139 N138 1.334 . S
C139 N140 1.336 . S
N140 Zn136 2.020 . S
N140 C139 1.336 . S
N140 N141 1.354 . S
N141 C137 1.336 . S
N141 N140 1.354 . S
N141 Zn145 2.020 . S
C142 O143 1.244 . S
C142 O166 1.257 . S
O143 C142 1.244 . S
O144 Zn136 2.019 . S
O144 C164 1.257 . S
Zn145 N141 2.020 . S
Zn145 O152 1.975 . S
Zn145 N161 2.119 . S
Zn145 O166 2.019 1_554 S
N146 Zn136 2.119 . S
N146 C148 1.334 . S
N146 C149 1.328 . S
C147 C148 1.391 . S
C147 N150 1.329 . S
C147 H168 0.930 . S
C148 N146 1.334 . S
C148 C147 1.391 . S
C148 H155 0.930 . S
C149 N146 1.328 . S
C149 C151 1.392 . S
C149 H156 0.930 . S
N150 C147 1.329 . S
N150 C151 1.331 . S
C151 C149 1.392 . S
C151 N150 1.331 . S
O152 Zn145 1.975 . S
O152 C153 1.252 . S
C153 O152 1.252 . S
C153 O154 1.252 . S
O154 Zn136 1.975 . S
O154 C153 1.252 . S
H155 C148 0.930 . S
H156 C149 0.930 . S
C157 C158 1.392 . S
C157 N161 1.328 . S
C157 H163 0.930 1_554 S
C158 C157 1.392 . S
C158 N162 1.331 . S
C159 C160 1.391 . S
C159 N162 1.329 . S
C159 H169 0.930 . S
C160 C159 1.391 . S
C160 N161 1.334 . S
C160 H167 0.930 . S
N161 Zn145 2.119 . S
N161 C157 1.328 . S
N161 C160 1.334 . S
N162 C158 1.331 . S
N162 C159 1.329 . S
H163 C157 0.930 1_556 S
C164 O144 1.257 . S
C164 O165 1.244 . S
O165 C164 1.244 . S
O166 C142 1.257 . S
O166 Zn145 2.019 1_556 S
H167 C160 0.930 . S
H168 C147 0.930 . S
H169 C159 0.930 . S
Zn170 N174 2.020 . S
Zn170 O178 2.019 . S
Zn170 N180 2.119 . S
Zn170 O188 1.975 . S
C171 N172 1.334 . S
C171 N175 1.336 . S
N172 C171 1.334 . S
N172 C173 1.334 . S
C173 N172 1.334 . S
C173 N174 1.336 . S
N174 Zn170 2.020 . S
N174 C173 1.336 . S
N174 N175 1.354 . S
N175 C171 1.336 . S
N175 N174 1.354 . S
N175 Zn179 2.020 . S
C176 O177 1.244 . S
C176 O200 1.257 . S
O177 C176 1.244 . S
O178 Zn170 2.019 . S
O178 C198 1.257 . S
Zn179 N175 2.020 . S
Zn179 O186 1.975 . S
Zn179 N195 2.119 . S
Zn179 O200 2.019 . S
N180 Zn170 2.119 . S
N180 C182 1.334 . S
N180 C183 1.328 . S
C181 C182 1.391 . S
C181 N184 1.329 . S
C181 H202 0.930 . S
C182 N180 1.334 . S
C182 C181 1.391 . S
C182 H189 0.930 . S
C183 N180 1.328 . S
C183 C185 1.392 . S
C183 H190 0.930 . S
N184 C181 1.329 . S
N184 C185 1.331 . S
C185 C183 1.392 . S
C185 N184 1.331 . S
O186 Zn179 1.975 . S
O186 C187 1.252 . S
C187 O186 1.252 . S
C187 O188 1.252 . S
O188 Zn170 1.975 . S
O188 C187 1.252 . S
H189 C182 0.930 . S
H190 C183 0.930 . S
C191 C192 1.392 . S
C191 N195 1.328 . S
C191 H197 0.930 . S
C192 C191 1.392 . S
C192 N196 1.331 . S
C193 C194 1.391 . S
C193 N196 1.329 . S
C193 H203 0.930 . S
C194 C193 1.391 . S
C194 N195 1.334 . S
C194 H201 0.930 . S
N195 Zn179 2.119 . S
N195 C191 1.328 . S
N195 C194 1.334 . S
N196 C192 1.331 . S
N196 C193 1.329 . S
H197 C191 0.930 . S
C198 O178 1.257 . S
C198 O199 1.244 . S
O199 C198 1.244 . S
O200 C176 1.257 . S
O200 Zn179 2.019 . S
H201 C194 0.930 . S
H202 C181 0.930 . S
H203 C193 0.930 . S
Zn204 N208 2.020 . S
Zn204 O212 2.019 . S
Zn204 N214 2.119 . S
Zn204 O222 1.975 . S
C205 N206 1.334 . S
C205 N209 1.336 . S
N206 C205 1.334 . S
N206 C207 1.334 . S
C207 N206 1.334 . S
C207 N208 1.336 . S
N208 Zn204 2.020 . S
N208 C207 1.336 . S
N208 N209 1.354 . S
N209 C205 1.336 . S
N209 N208 1.354 . S
N209 Zn213 2.020 . S
C210 O211 1.244 . S
C210 O234 1.257 . S
O211 C210 1.244 . S
O212 Zn204 2.019 . S
O212 C232 1.257 . S
Zn213 N209 2.020 . S
Zn213 O220 1.975 . S
Zn213 N229 2.119 . S
Zn213 O234 2.019 1_556 S
N214 Zn204 2.119 . S
N214 C216 1.334 . S
N214 C217 1.328 . S
C215 C216 1.391 . S
C215 N218 1.329 . S
C215 H236 0.930 . S
C216 N214 1.334 . S
C216 C215 1.391 . S
C216 H223 0.930 . S
C217 N214 1.328 . S
C217 C219 1.392 . S
C217 H224 0.930 . S
N218 C215 1.329 . S
N218 C219 1.331 . S
C219 C217 1.392 . S
C219 N218 1.331 . S
O220 Zn213 1.975 . S
O220 C221 1.252 . S
C221 O220 1.252 . S
C221 O222 1.252 . S
O222 Zn204 1.975 . S
O222 C221 1.252 . S
H223 C216 0.930 . S
H224 C217 0.930 . S
C225 C226 1.392 . S
C225 N229 1.328 . S
C225 H231 0.930 1_556 S
C226 C225 1.392 . S
C226 N230 1.331 . S
C227 C228 1.391 . S
C227 N230 1.329 . S
C227 H237 0.930 . S
C228 C227 1.391 . S
C228 N229 1.334 . S
C228 H235 0.930 . S
N229 Zn213 2.119 . S
N229 C225 1.328 . S
N229 C228 1.334 . S
N230 C226 1.331 . S
N230 C227 1.329 . S
H231 C225 0.930 1_554 S
C232 O212 1.257 . S
C232 O233 1.244 . S
O233 C232 1.244 . S
O234 C210 1.257 . S
O234 Zn213 2.019 1_554 S
H235 C228 0.930 . S
H236 C215 0.930 . S
H237 C227 0.930 . S
Zn238 N242 2.020 . S
Zn238 O246 2.019 . S
Zn238 N248 2.119 . S
Zn238 O256 1.975 . S
C239 N240 1.334 . S
C239 N243 1.336 . S
N240 C239 1.334 . S
N240 C241 1.334 . S
C241 N240 1.334 . S
C241 N242 1.336 . S
N242 Zn238 2.020 . S
N242 C241 1.336 . S
N242 N243 1.354 . S
N243 C239 1.336 . S
N243 N242 1.354 . S
N243 Zn247 2.020 . S
C244 O245 1.244 . S
C244 O268 1.257 . S
O245 C244 1.244 . S
O246 Zn238 2.019 . S
O246 C266 1.257 . S
Zn247 N243 2.020 . S
Zn247 O254 1.975 . S
Zn247 N263 2.119 . S
Zn247 O268 2.019 . S
N248 Zn238 2.119 . S
N248 C250 1.334 . S
N248 C251 1.328 . S
C249 C250 1.391 . S
C249 N252 1.329 . S
C249 H270 0.930 . S
C250 N248 1.334 . S
C250 C249 1.391 . S
C250 H257 0.930 . S
C251 N248 1.328 . S
C251 C253 1.392 . S
C251 H258 0.930 . S
N252 C249 1.329 . S
N252 C253 1.331 . S
C253 C251 1.392 . S
C253 N252 1.331 . S
O254 Zn247 1.975 . S
O254 C255 1.252 . S
C255 O254 1.252 . S
C255 O256 1.252 . S
O256 Zn238 1.975 . S
O256 C255 1.252 . S
H257 C250 0.930 . S
H258 C251 0.930 . S
C259 C260 1.392 . S
C259 N263 1.328 . S
C259 H265 0.930 . S
C260 C259 1.392 . S
C260 N264 1.331 . S
C261 C262 1.391 . S
C261 N264 1.329 . S
C261 H271 0.930 . S
C262 C261 1.391 . S
C262 N263 1.334 . S
C262 H269 0.930 . S
N263 Zn247 2.119 . S
N263 C259 1.328 . S
N263 C262 1.334 . S
N264 C260 1.331 . S
N264 C261 1.329 . S
H265 C259 0.930 . S
C266 O246 1.257 . S
C266 O267 1.244 . S
O267 C266 1.244 . S
O268 C244 1.257 . S
O268 Zn247 2.019 . S
H269 C262 0.930 . S
H270 C249 0.930 . S
H271 C261 0.930 . S
H272 C284 0.930 . S
H273 C286 0.930 . S
H274 C287 0.930 . S
H275 C291 0.959 1_545 S
H276 C291 0.959 . S
H277 C291 0.961 . S
H278 C292 0.960 1_565 S
H279 C292 0.961 1_565 S
H280 C292 0.959 . S
H281 C295 0.929 . S
H282 C296 0.931 . S
H283 C298 0.930 . S
C284 H272 0.930 . S
C284 C285 1.399 . S
C284 C289 1.399 . S
C285 C284 1.399 . S
C285 C286 1.376 . S
C286 H273 0.930 . S
C286 C285 1.376 . S
C286 C287 1.388 . S
C287 H274 0.930 . S
C287 C286 1.388 . S
C287 C288 1.390 . S
C288 C287 1.390 . S
C288 C289 1.394 . S
C288 C294 1.465 . S
C289 C284 1.399 . S
C289 C288 1.394 . S
C289 C290 1.516 . S
C290 C289 1.516 . S
C290 C291 1.502 1_545 S
C290 C292 1.561 . S
C290 C293 1.526 . S
C291 H275 0.959 1_565 S
C291 H276 0.959 . S
C291 H277 0.961 . S
C291 C290 1.502 1_565 S
C292 H278 0.960 1_545 S
C292 H279 0.961 1_545 S
C292 H280 0.959 . S
C292 C290 1.561 . S
C293 C290 1.526 . S
C293 C294 1.396 . S
C293 C298 1.390 . S
C294 C288 1.465 . S
C294 C293 1.396 . S
C294 C295 1.399 . S
C295 H281 0.929 . S
C295 C294 1.399 . S
C295 C296 1.385 . S
C296 H282 0.931 . S
C296 C295 1.385 . S
C296 C297 1.389 . S
C297 C296 1.389 . S
C297 C298 1.387 . S
C298 H283 0.930 . S
C298 C293 1.390 . S
C298 C297 1.387 . S
H299 C311 0.930 . S
H300 C313 0.930 . S
H301 C314 0.930 . S
H302 C318 0.959 . S
H303 C318 0.959 . S
H304 C318 0.961 . S
H305 C319 0.960 . S
H306 C319 0.961 . S
H307 C319 0.959 . S
H308 C322 0.929 . S
H309 C323 0.931 . S
H310 C325 0.930 . S
C311 H299 0.930 . S
C311 C312 1.399 . S
C311 C316 1.399 . S
C312 C311 1.399 . S
C312 C313 1.376 . S
C313 H300 0.930 . S
C313 C312 1.376 . S
C313 C314 1.388 . S
C314 H301 0.930 . S
C314 C313 1.388 . S
C314 C315 1.390 . S
C315 C314 1.390 . S
C315 C316 1.394 . S
C315 C321 1.465 . S
C316 C311 1.399 . S
C316 C315 1.394 . S
C316 C317 1.516 . S
C317 C316 1.516 . S
C317 C318 1.502 . S
C317 C319 1.561 . S
C317 C320 1.526 . S
C318 H302 0.959 . S
C318 H303 0.959 . S
C318 H304 0.961 . S
C318 C317 1.502 . S
C319 H305 0.960 . S
C319 H306 0.961 . S
C319 H307 0.959 . S
C319 C317 1.561 . S
C320 C317 1.526 . S
C320 C321 1.396 . S
C320 C325 1.390 . S
C321 C315 1.465 . S
C321 C320 1.396 . S
C321 C322 1.399 . S
C322 H308 0.929 . S
C322 C321 1.399 . S
C322 C323 1.385 . S
C323 H309 0.931 . S
C323 C322 1.385 . S
C323 C324 1.389 . S
C324 C323 1.389 . S
C324 C325 1.387 . S
C325 H310 0.930 . S
C325 C320 1.390 . S
C325 C324 1.387 . S
H326 C338 0.930 . S
H327 C340 0.930 . S
H328 C341 0.930 1_455 S
H329 C345 0.959 . S
H330 C345 0.959 . S
H331 C345 0.961 . S
H332 C346 0.960 . S
H333 C346 0.961 . S
H334 C346 0.959 . S
H335 C349 0.929 . S
H336 C350 0.931 . S
H337 C352 0.930 . S
C338 H326 0.930 . S
C338 C339 1.399 . S
C338 C343 1.399 . S
C339 C338 1.399 . S
C339 C340 1.376 . S
C340 H327 0.930 . S
C340 C339 1.376 . S
C340 C341 1.388 . S
C341 H328 0.930 1_655 S
C341 C340 1.388 . S
C341 C342 1.390 . S
C342 C341 1.390 . S
C342 C343 1.394 . S
C342 C348 1.465 1_655 S
C343 C338 1.399 . S
C343 C342 1.394 . S
C343 C344 1.516 . S
C344 C343 1.516 . S
C344 C345 1.502 . S
C344 C346 1.561 . S
C344 C347 1.526 1_655 S
C345 H329 0.959 . S
C345 H330 0.959 . S
C345 H331 0.961 . S
C345 C344 1.502 . S
C346 H332 0.960 . S
C346 H333 0.961 . S
C346 H334 0.959 . S
C346 C344 1.561 . S
C347 C344 1.526 1_455 S
C347 C348 1.396 . S
C347 C352 1.390 . S
C348 C342 1.465 1_455 S
C348 C347 1.396 . S
C348 C349 1.399 . S
C349 H335 0.929 . S
C349 C348 1.399 . S
C349 C350 1.385 . S
C350 H336 0.931 . S
C350 C349 1.385 . S
C350 C351 1.389 . S
C351 C350 1.389 . S
C351 C352 1.387 . S
C352 H337 0.930 . S
C352 C347 1.390 . S
C352 C351 1.387 . S
H353 C365 0.930 . S
H354 C367 0.930 . S
H355 C368 0.930 . S
H356 C372 0.959 . S
H357 C372 0.959 . S
H358 C372 0.961 . S
H359 C373 0.960 . S
H360 C373 0.961 . S
H361 C373 0.959 . S
H362 C376 0.929 . S
H363 C377 0.931 . S
H364 C379 0.930 . S
C365 H353 0.930 . S
C365 C366 1.399 . S
C365 C370 1.399 . S
C366 C365 1.399 . S
C366 C367 1.376 . S
C367 H354 0.930 . S
C367 C366 1.376 . S
C367 C368 1.388 . S
C368 H355 0.930 . S
C368 C367 1.388 . S
C368 C369 1.390 . S
C369 C368 1.390 . S
C369 C370 1.394 . S
C369 C375 1.465 1_455 S
C370 C365 1.399 . S
C370 C369 1.394 . S
C370 C371 1.516 1_455 S
C371 C370 1.516 1_655 S
C371 C372 1.502 . S
C371 C373 1.561 1_655 S
C371 C374 1.526 . S
C372 H356 0.959 . S
C372 H357 0.959 . S
C372 H358 0.961 . S
C372 C371 1.502 . S
C373 H359 0.960 . S
C373 H360 0.961 . S
C373 H361 0.959 . S
C373 C371 1.561 1_455 S
C374 C371 1.526 . S
C374 C375 1.396 . S
C374 C379 1.390 . S
C375 C369 1.465 1_655 S
C375 C374 1.396 . S
C375 C376 1.399 . S
C376 H362 0.929 . S
C376 C375 1.399 . S
C376 C377 1.385 . S
C377 H363 0.931 . S
C377 C376 1.385 . S
C377 C378 1.389 . S
C378 C377 1.389 . S
C378 C379 1.387 . S
C379 H364 0.930 . S
C379 C374 1.390 . S
C379 C378 1.387 . S
H380 C392 0.930 . S
H381 C394 0.930 . S
H382 C395 0.930 . S
H383 C399 0.959 . S
H384 C399 0.959 . S
H385 C399 0.961 . S
H386 C400 0.960 . S
H387 C400 0.961 . S
H388 C400 0.959 . S
H389 C403 0.929 . S
H390 C404 0.931 . S
H391 C406 0.930 . S
C392 H380 0.930 . S
C392 C393 1.399 . S
C392 C397 1.399 . S
C393 C392 1.399 . S
C393 C394 1.376 1_554 S
C394 H381 0.930 . S
C394 C393 1.376 1_556 S
C394 C395 1.388 . S
C395 H382 0.930 . S
C395 C394 1.388 . S
C395 C396 1.390 1_556 S
C396 C395 1.390 1_554 S
C396 C397 1.394 . S
C396 C402 1.465 . S
C397 C392 1.399 . S
C397 C396 1.394 . S
C397 C398 1.516 . S
C398 C397 1.516 . S
C398 C399 1.502 . S
C398 C400 1.561 . S
C398 C401 1.526 . S
C399 H383 0.959 . S
C399 H384 0.959 . S
C399 H385 0.961 . S
C399 C398 1.502 . S
C400 H386 0.960 . S
C400 H387 0.961 . S
C400 H388 0.959 . S
C400 C398 1.561 . S
C401 C398 1.526 . S
C401 C402 1.396 . S
C401 C406 1.390 . S
C402 C396 1.465 . S
C402 C401 1.396 . S
C402 C403 1.399 . S
C403 H389 0.929 . S
C403 C402 1.399 . S
C403 C404 1.385 . S
C404 H390 0.931 . S
C404 C403 1.385 . S
C404 C405 1.389 . S
C405 C404 1.389 . S
C405 C406 1.387 . S
C406 H391 0.930 . S
C406 C401 1.390 . S
C406 C405 1.387 . S
H407 C419 0.930 . S
H408 C421 0.930 . S
H409 C422 0.930 . S
H410 C426 0.959 . S
H411 C426 0.959 . S
H412 C426 0.961 . S
H413 C427 0.960 . S
H414 C427 0.961 . S
H415 C427 0.959 . S
H416 C430 0.929 . S
H417 C431 0.931 . S
H418 C433 0.930 . S
C419 H407 0.930 . S
C419 C420 1.399 . S
C419 C424 1.399 . S
C420 C419 1.399 . S
C420 C421 1.376 . S
C421 H408 0.930 . S
C421 C420 1.376 . S
C421 C422 1.388 . S
C422 H409 0.930 . S
C422 C421 1.388 . S
C422 C423 1.390 . S
C423 C422 1.390 . S
C423 C424 1.394 . S
C423 C429 1.465 . S
C424 C419 1.399 . S
C424 C423 1.394 . S
C424 C425 1.516 . S
C425 C424 1.516 . S
C425 C426 1.502 . S
C425 C427 1.561 . S
C425 C428 1.526 . S
C426 H410 0.959 . S
C426 H411 0.959 . S
C426 H412 0.961 . S
C426 C425 1.502 . S
C427 H413 0.960 . S
C427 H414 0.961 . S
C427 H415 0.959 . S
C427 C425 1.561 . S
C428 C425 1.526 . S
C428 C429 1.396 . S
C428 C433 1.390 . S
C429 C423 1.465 . S
C429 C428 1.396 . S
C429 C430 1.399 . S
C430 H416 0.929 . S
C430 C429 1.399 . S
C430 C431 1.385 . S
C431 H417 0.931 . S
C431 C430 1.385 . S
C431 C432 1.389 . S
C432 C431 1.389 . S
C432 C433 1.387 . S
C433 H418 0.930 . S
C433 C428 1.390 . S
C433 C432 1.387 . S
H434 C446 0.930 . S
H435 C448 0.930 . S
H436 C449 0.930 . S
H437 C453 0.959 . S
H438 C453 0.959 . S
H439 C453 0.961 . S
H440 C454 0.960 . S
H441 C454 0.961 . S
H442 C454 0.959 . S
H443 C457 0.929 . S
H444 C458 0.931 . S
H445 C460 0.930 . S
C446 H434 0.930 . S
C446 C447 1.399 . S
C446 C451 1.399 . S
C447 C446 1.399 . S
C447 C448 1.376 . S
C448 H435 0.930 . S
C448 C447 1.376 . S
C448 C449 1.388 . S
C449 H436 0.930 . S
C449 C448 1.388 . S
C449 C450 1.390 . S
C450 C449 1.390 . S
C450 C451 1.394 . S
C450 C456 1.465 . S
C451 C446 1.399 . S
C451 C450 1.394 . S
C451 C452 1.516 . S
C452 C451 1.516 . S
C452 C453 1.502 . S
C452 C454 1.561 . S
C452 C455 1.526 . S
C453 H437 0.959 . S
C453 H438 0.959 . S
C453 H439 0.961 . S
C453 C452 1.502 . S
C454 H440 0.960 . S
C454 H441 0.961 . S
C454 H442 0.959 . S
C454 C452 1.561 . S
C455 C452 1.526 . S
C455 C456 1.396 . S
C455 C460 1.390 . S
C456 C450 1.465 . S
C456 C455 1.396 . S
C456 C457 1.399 1_556 S
C457 H443 0.929 . S
C457 C456 1.399 1_554 S
C457 C458 1.385 . S
C458 H444 0.931 . S
C458 C457 1.385 . S
C458 C459 1.389 1_554 S
C459 C458 1.389 1_556 S
C459 C460 1.387 . S
C460 H445 0.930 . S
C460 C455 1.390 . S
C460 C459 1.387 . S
H461 C473 0.930 . S
H462 C475 0.930 . S
H463 C476 0.930 . S
H464 C480 0.959 . S
H465 C480 0.959 . S
H466 C480 0.961 . S
H467 C481 0.960 . S
H468 C481 0.961 . S
H469 C481 0.959 . S
H470 C484 0.929 . S
H471 C485 0.931 . S
H472 C487 0.930 . S
C473 H461 0.930 . S
C473 C474 1.399 . S
C473 C478 1.399 . S
C474 C473 1.399 . S
C474 C475 1.376 . S
C475 H462 0.930 . S
C475 C474 1.376 . S
C475 C476 1.388 . S
C476 H463 0.930 . S
C476 C475 1.388 . S
C476 C477 1.390 . S
C477 C476 1.390 . S
C477 C478 1.394 . S
C477 C483 1.465 . S
C478 C473 1.399 . S
C478 C477 1.394 . S
C478 C479 1.516 . S
C479 C478 1.516 . S
C479 C480 1.502 . S
C479 C481 1.561 . S
C479 C482 1.526 . S
C480 H464 0.959 . S
C480 H465 0.959 . S
C480 H466 0.961 . S
C480 C479 1.502 . S
C481 H467 0.960 . S
C481 H468 0.961 . S
C481 H469 0.959 . S
C481 C479 1.561 . S
C482 C479 1.526 . S
C482 C483 1.396 . S
C482 C487 1.390 . S
C483 C477 1.465 . S
C483 C482 1.396 . S
C483 C484 1.399 . S
C484 H470 0.929 . S
C484 C483 1.399 . S
C484 C485 1.385 . S
C485 H471 0.931 . S
C485 C484 1.385 . S
C485 C486 1.389 . S
C486 C485 1.389 . S
C486 C487 1.387 . S
C487 H472 0.930 . S
C487 C482 1.390 . S
C487 C486 1.387 . S
H488 C500 0.930 . S
H489 C502 0.930 . S
H490 C503 0.930 . S
H491 C507 0.959 . S
H492 C507 0.959 . S
H493 C507 0.961 . S
H494 C508 0.960 . S
H495 C508 0.961 . S
H496 C508 0.959 . S
H497 C511 0.929 . S
H498 C512 0.931 . S
H499 C514 0.930 1_545 S
C500 H488 0.930 . S
C500 C501 1.399 . S
C500 C505 1.399 . S
C501 C500 1.399 . S
C501 C502 1.376 1_554 S
C502 H489 0.930 . S
C502 C501 1.376 1_556 S
C502 C503 1.388 . S
C503 H490 0.930 . S
C503 C502 1.388 . S
C503 C504 1.390 1_556 S
C504 C503 1.390 1_554 S
C504 C505 1.394 . S
C504 C510 1.465 . S
C505 C500 1.399 . S
C505 C504 1.394 . S
C505 C506 1.516 . S
C506 C505 1.516 . S
C506 C507 1.502 . S
C506 C508 1.561 . S
C506 C509 1.526 . S
C507 H491 0.959 . S
C507 H492 0.959 . S
C507 H493 0.961 . S
C507 C506 1.502 . S
C508 H494 0.960 . S
C508 H495 0.961 . S
C508 H496 0.959 . S
C508 C506 1.561 . S
C509 C506 1.526 . S
C509 C510 1.396 . S
C509 C514 1.390 1_545 S
C510 C504 1.465 . S
C510 C509 1.396 . S
C510 C511 1.399 1_545 S
C511 H497 0.929 . S
C511 C510 1.399 1_565 S
C511 C512 1.385 . S
C512 H498 0.931 . S
C512 C511 1.385 . S
C512 C513 1.389 . S
C513 C512 1.389 . S
C513 C514 1.387 . S
C514 H499 0.930 1_565 S
C514 C509 1.390 1_565 S
C514 C513 1.387 . S
H515 C527 0.930 . S
H516 C529 0.930 . S
H517 C530 0.930 . S
H518 C534 0.959 . S
H519 C534 0.959 . S
H520 C534 0.961 . S
H521 C535 0.960 . S
H522 C535 0.961 . S
H523 C535 0.959 . S
H524 C538 0.929 . S
H525 C539 0.931 . S
H526 C541 0.930 . S
C527 H515 0.930 . S
C527 C528 1.399 . S
C527 C532 1.399 . S
C528 C527 1.399 . S
C528 C529 1.376 . S
C529 H516 0.930 . S
C529 C528 1.376 . S
C529 C530 1.388 . S
C530 H517 0.930 . S
C530 C529 1.388 . S
C530 C531 1.390 . S
C531 C530 1.390 . S
C531 C532 1.394 . S
C531 C537 1.465 . S
C532 C527 1.399 . S
C532 C531 1.394 . S
C532 C533 1.516 . S
C533 C532 1.516 . S
C533 C534 1.502 . S
C533 C535 1.561 . S
C533 C536 1.526 . S
C534 H518 0.959 . S
C534 H519 0.959 . S
C534 H520 0.961 . S
C534 C533 1.502 . S
C535 H521 0.960 . S
C535 H522 0.961 . S
C535 H523 0.959 . S
C535 C533 1.561 . S
C536 C533 1.526 . S
C536 C537 1.396 . S
C536 C541 1.390 1_545 S
C537 C531 1.465 . S
C537 C536 1.396 . S
C537 C538 1.399 . S
C538 H524 0.929 . S
C538 C537 1.399 . S
C538 C539 1.385 1_545 S
C539 H525 0.931 . S
C539 C538 1.385 1_565 S
C539 C540 1.389 . S
C540 C539 1.389 . S
C540 C541 1.387 . S
C541 H526 0.930 . S
C541 C536 1.390 1_565 S
C541 C540 1.387 . S
H542 C554 0.929 1_565 S
H543 C556 0.930 . S
H544 C557 0.930 . S
H545 C561 0.959 . S
H546 C561 0.959 . S
H547 C561 0.961 . S
H548 C562 0.960 . S
H549 C562 0.961 . S
H550 C562 0.959 . S
H551 C565 0.929 . S
H552 C566 0.931 . S
H553 C568 0.930 . S
C554 H542 0.929 1_545 S
C554 C555 1.405 . S
C554 C559 1.394 1_545 S
C555 C554 1.405 . S
C555 C556 1.376 . S
C556 H543 0.930 . S
C556 C555 1.376 . S
C556 C557 1.388 . S
C557 H544 0.930 . S
C557 C556 1.388 . S
C557 C558 1.390 1_545 S
C558 C557 1.390 1_565 S
C558 C559 1.394 . S
C558 C564 1.465 . S
C559 C554 1.394 1_565 S
C559 C558 1.394 . S
C559 C560 1.516 . S
C560 C559 1.516 . S
C560 C561 1.502 . S
C560 C562 1.561 . S
C560 C563 1.526 . S
C561 H545 0.959 . S
C561 H546 0.959 . S
C561 H547 0.961 . S
C561 C560 1.502 . S
C562 H548 0.960 . S
C562 H549 0.961 . S
C562 H550 0.959 . S
C562 C560 1.561 . S
C563 C560 1.526 . S
C563 C564 1.396 . S
C563 C568 1.390 . S
C564 C558 1.465 . S
C564 C563 1.396 . S
C564 C565 1.399 1_556 S
C565 H551 0.929 . S
C565 C564 1.399 1_554 S
C565 C566 1.385 . S
C566 H552 0.931 . S
C566 C565 1.385 . S
C566 C567 1.389 1_554 S
C567 C566 1.389 1_556 S
C567 C568 1.387 . S
C568 H553 0.930 . S
C568 C563 1.390 . S
C568 C567 1.387 . S
H569 C581 0.930 . S
H570 C583 0.930 . S
H571 C584 0.930 . S
H572 C588 0.959 . S
H573 C588 0.959 . S
H574 C588 0.961 . S
H575 C589 0.960 . S
H576 C589 0.961 . S
H577 C589 0.959 . S
H578 C592 0.929 . S
H579 C593 0.931 . S
H580 C595 0.930 1_565 S
C581 H569 0.930 . S
C581 C582 1.399 . S
C581 C586 1.399 . S
C582 C581 1.399 . S
C582 C583 1.376 . S
C583 H570 0.930 . S
C583 C582 1.376 . S
C583 C584 1.388 . S
C584 H571 0.930 . S
C584 C583 1.388 . S
C584 C585 1.390 . S
C585 C584 1.390 . S
C585 C586 1.394 . S
C585 C591 1.465 . S
C586 C581 1.399 . S
C586 C585 1.394 . S
C586 C587 1.516 . S
C587 C586 1.516 . S
C587 C588 1.502 . S
C587 C589 1.561 . S
C587 C590 1.526 . S
C588 H572 0.959 . S
C588 H573 0.959 . S
C588 H574 0.961 . S
C588 C587 1.502 . S
C589 H575 0.960 . S
C589 H576 0.961 . S
C589 H577 0.959 . S
C589 C587 1.561 . S
C590 C587 1.526 . S
C590 C591 1.396 . S
C590 C595 1.390 1_565 S
C591 C585 1.465 . S
C591 C590 1.396 . S
C591 C592 1.399 1_565 S
C592 H578 0.929 . S
C592 C591 1.399 1_545 S
C592 C593 1.385 . S
C593 H579 0.931 . S
C593 C592 1.385 . S
C593 C594 1.389 . S
C594 C593 1.389 . S
C594 C595 1.387 . S
C595 H580 0.930 1_545 S
C595 C590 1.390 1_545 S
C595 C594 1.387 . S
H596 C608 0.930 . S
H597 C610 0.930 . S
H598 C611 0.930 . S
H599 C615 0.959 . S
H600 C615 0.959 . S
H601 C615 0.961 . S
H602 C616 0.960 . S
H603 C616 0.961 . S
H604 C616 0.959 . S
H605 C619 0.929 . S
H606 C620 0.931 . S
H607 C622 0.930 . S
C608 H596 0.930 . S
C608 C609 1.399 1_556 S
C608 C613 1.399 . S
C609 C608 1.399 1_554 S
C609 C610 1.376 . S
C610 H597 0.930 . S
C610 C609 1.376 . S
C610 C611 1.388 . S
C611 H598 0.930 . S
C611 C610 1.388 . S
C611 C612 1.390 . S
C612 C611 1.390 . S
C612 C613 1.394 1_554 S
C612 C618 1.465 . S
C613 C608 1.399 . S
C613 C612 1.394 1_556 S
C613 C614 1.516 . S
C614 C613 1.516 . S
C614 C615 1.502 . S
C614 C616 1.561 . S
C614 C617 1.526 . S
C615 H599 0.959 . S
C615 H600 0.959 . S
C615 H601 0.961 . S
C615 C614 1.502 . S
C616 H602 0.960 . S
C616 H603 0.961 . S
C616 H604 0.959 . S
C616 C614 1.561 . S
C617 C614 1.526 . S
C617 C618 1.396 1_556 S
C617 C622 1.390 . S
C618 C612 1.465 . S
C618 C617 1.396 1_554 S
C618 C619 1.399 . S
C619 H605 0.929 . S
C619 C618 1.399 . S
C619 C620 1.385 . S
C620 H606 0.931 . S
C620 C619 1.385 . S
C620 C621 1.389 1_554 S
C621 C620 1.389 1_556 S
C621 C622 1.387 . S
C622 H607 0.930 . S
C622 C617 1.390 . S
C622 C621 1.387 . S
H623 C635 0.930 . S
H624 C637 0.930 . S
H625 C638 0.930 . S
H626 C642 0.959 . S
H627 C642 0.959 . S
H628 C642 0.961 . S
H629 C643 0.960 . S
H630 C643 0.961 . S
H631 C643 0.959 . S
H632 C646 0.929 . S
H633 C647 0.931 . S
H634 C649 0.930 . S
C635 H623 0.930 . S
C635 C636 1.399 . S
C635 C640 1.399 . S
C636 C635 1.399 . S
C636 C637 1.376 . S
C637 H624 0.930 . S
C637 C636 1.376 . S
C637 C638 1.388 . S
C638 H625 0.930 . S
C638 C637 1.388 . S
C638 C639 1.390 . S
C639 C638 1.390 . S
C639 C640 1.394 . S
C639 C645 1.465 . S
C640 C635 1.399 . S
C640 C639 1.394 . S
C640 C641 1.516 . S
C641 C640 1.516 . S
C641 C642 1.502 . S
C641 C643 1.561 . S
C641 C644 1.526 . S
C642 H626 0.959 . S
C642 H627 0.959 . S
C642 H628 0.961 . S
C642 C641 1.502 . S
C643 H629 0.960 . S
C643 H630 0.961 . S
C643 H631 0.959 . S
C643 C641 1.561 . S
C644 C641 1.526 . S
C644 C645 1.396 . S
C644 C649 1.390 . S
C645 C639 1.465 . S
C645 C644 1.396 . S
C645 C646 1.399 . S
C646 H632 0.929 . S
C646 C645 1.399 . S
C646 C647 1.385 . S
C647 H633 0.931 . S
C647 C646 1.385 . S
C647 C648 1.389 . S
C648 C647 1.389 . S
C648 C649 1.387 . S
C649 H634 0.930 . S
C649 C644 1.390 . S
C649 C648 1.387 . S
H650 C662 0.930 . S
H651 C664 0.930 . S
H652 C665 0.930 . S
H653 C669 0.959 . S
H654 C669 0.959 . S
H655 C669 0.961 . S
H656 C670 0.960 . S
H657 C670 0.961 . S
H658 C670 0.959 . S
H659 C673 0.929 . S
H660 C674 0.931 . S
H661 C676 0.930 . S
C662 H650 0.930 . S
C662 C663 1.399 . S
C662 C667 1.399 . S
C663 C662 1.399 . S
C663 C664 1.376 1_556 S
C664 H651 0.930 . S
C664 C663 1.376 1_554 S
C664 C665 1.388 . S
C665 H652 0.930 . S
C665 C664 1.388 . S
C665 C666 1.390 . S
C666 C665 1.390 . S
C666 C667 1.394 1_554 S
C666 C672 1.465 . S
C667 C662 1.399 . S
C667 C666 1.394 1_556 S
C667 C668 1.516 . S
C668 C667 1.516 . S
C668 C669 1.502 . S
C668 C670 1.561 . S
C668 C671 1.526 . S
C669 H653 0.959 . S
C669 H654 0.959 . S
C669 H655 0.961 . S
C669 C668 1.502 . S
C670 H656 0.960 . S
C670 H657 0.961 . S
C670 H658 0.959 . S
C670 C668 1.561 . S
C671 C668 1.526 . S
C671 C672 1.396 1_556 S
C671 C676 1.390 . S
C672 C666 1.465 . S
C672 C671 1.396 1_554 S
C672 C673 1.399 . S
C673 H659 0.929 . S
C673 C672 1.399 . S
C673 C674 1.385 . S
C674 H660 0.931 . S
C674 C673 1.385 . S
C674 C675 1.389 . S
C675 C674 1.389 . S
C675 C676 1.387 1_554 S
C676 H661 0.930 . S
C676 C671 1.390 . S
C676 C675 1.387 1_556 S
H677 C689 0.930 . S
H678 C691 0.930 . S
H679 C692 0.930 . S
H680 C696 0.959 . S
H681 C696 0.959 . S
H682 C696 0.961 . S
H683 C697 0.960 . S
H684 C697 0.961 . S
H685 C697 0.959 . S
H686 C700 0.929 . S
H687 C701 0.931 . S
H688 C703 0.930 . S
C689 H677 0.930 . S
C689 C690 1.399 . S
C689 C694 1.399 . S
C690 C689 1.399 . S
C690 C691 1.376 . S
C691 H678 0.930 . S
C691 C690 1.376 . S
C691 C692 1.388 . S
C692 H679 0.930 . S
C692 C691 1.388 . S
C692 C693 1.390 . S
C693 C692 1.390 . S
C693 C694 1.394 . S
C693 C699 1.465 . S
C694 C689 1.399 . S
C694 C693 1.394 . S
C694 C695 1.516 . S
C695 C694 1.516 . S
C695 C696 1.502 . S
C695 C697 1.561 . S
C695 C698 1.526 . S
C696 H680 0.959 . S
C696 H681 0.959 . S
C696 H682 0.961 . S
C696 C695 1.502 . S
C697 H683 0.960 . S
C697 H684 0.961 . S
C697 H685 0.959 . S
C697 C695 1.561 . S
C698 C695 1.526 . S
C698 C699 1.396 . S
C698 C703 1.390 . S
C699 C693 1.465 . S
C699 C698 1.396 . S
C699 C700 1.399 . S
C700 H686 0.929 . S
C700 C699 1.399 . S
C700 C701 1.385 . S
C701 H687 0.931 . S
C701 C700 1.385 . S
C701 C702 1.389 . S
C702 C701 1.389 . S
C702 C703 1.387 . S
C703 H688 0.930 . S
C703 C698 1.390 . S
C703 C702 1.387 . S
H704 C716 0.930 . S
H705 C718 0.930 . S
H706 C719 0.930 . S
H707 C723 0.959 1_545 S
H708 C723 0.959 . S
H709 C723 0.961 . S
H710 C724 0.960 . S
H711 C724 0.961 . S
H712 C724 0.959 . S
H713 C727 0.929 . S
H714 C728 0.931 . S
H715 C730 0.930 . S
C716 H704 0.930 . S
C716 C717 1.399 . S
C716 C721 1.399 1_545 S
C717 C716 1.399 . S
C717 C718 1.376 . S
C718 H705 0.930 . S
C718 C717 1.376 . S
C718 C719 1.388 . S
C719 H706 0.930 . S
C719 C718 1.388 . S
C719 C720 1.390 1_545 S
C720 C719 1.390 1_565 S
C720 C721 1.394 . S
C720 C726 1.465 . S
C721 C716 1.399 1_565 S
C721 C720 1.394 . S
C721 C722 1.516 . S
C722 C721 1.516 . S
C722 C723 1.502 . S
C722 C724 1.561 . S
C722 C725 1.526 . S
C723 H707 0.959 1_565 S
C723 H708 0.959 . S
C723 H709 0.961 . S
C723 C722 1.502 . S
C724 H710 0.960 . S
C724 H711 0.961 . S
C724 H712 0.959 . S
C724 C722 1.561 . S
C725 C722 1.526 . S
C725 C726 1.396 . S
C725 C730 1.390 . S
C726 C720 1.465 . S
C726 C725 1.396 . S
C726 C727 1.399 . S
C727 H713 0.929 . S
C727 C726 1.399 . S
C727 C728 1.385 . S
C728 H714 0.931 . S
C728 C727 1.385 . S
C728 C729 1.389 . S
C729 C728 1.389 . S
C729 C730 1.387 . S
C730 H715 0.930 . S
C730 C725 1.390 . S
C730 C729 1.387 . S
H731 C743 0.930 . S
H732 C745 0.930 . S
H733 C746 0.930 . S
H734 C750 0.959 . S
H735 C750 0.959 . S
H736 C750 0.961 . S
H737 C751 0.960 . S
H738 C751 0.961 . S
H739 C751 0.959 . S
H740 C754 0.929 . S
H741 C755 0.931 . S
H742 C757 0.930 . S
C743 H731 0.930 . S
C743 C744 1.399 1_565 S
C743 C748 1.399 . S
C744 C743 1.399 1_545 S
C744 C745 1.376 . S
C745 H732 0.930 . S
C745 C744 1.376 . S
C745 C746 1.388 . S
C746 H733 0.930 . S
C746 C745 1.388 . S
C746 C747 1.390 . S
C747 C746 1.390 . S
C747 C748 1.394 1_545 S
C747 C753 1.465 1_545 S
C748 C743 1.399 . S
C748 C747 1.394 1_565 S
C748 C749 1.516 . S
C749 C748 1.516 . S
C749 C750 1.502 . S
C749 C751 1.561 . S
C749 C752 1.526 . S
C750 H734 0.959 . S
C750 H735 0.959 . S
C750 H736 0.961 . S
C750 C749 1.502 . S
C751 H737 0.960 . S
C751 H738 0.961 . S
C751 H739 0.959 . S
C751 C749 1.561 . S
C752 C749 1.526 . S
C752 C753 1.396 . S
C752 C757 1.390 . S
C753 C747 1.465 1_565 S
C753 C752 1.396 . S
C753 C754 1.399 1_565 S
C754 H740 0.929 . S
C754 C753 1.399 1_545 S
C754 C755 1.385 1_545 S
C755 H741 0.931 . S
C755 C754 1.385 1_565 S
C755 C756 1.389 . S
C756 C755 1.389 . S
C756 C757 1.387 . S
C757 H742 0.930 . S
C757 C752 1.390 . S
C757 C756 1.387 . S
H758 C770 0.930 . S
H759 C772 0.930 . S
H760 C773 0.930 . S
H761 C777 0.959 . S
H762 C777 0.959 . S
H763 C777 0.961 . S
H764 C778 0.960 . S
H765 C778 0.961 . S
H766 C778 0.959 . S
H767 C781 0.929 . S
H768 C782 0.931 . S
H769 C784 0.930 . S
C770 H758 0.930 . S
C770 C771 1.399 . S
C770 C775 1.399 . S
C771 C770 1.399 . S
C771 C772 1.376 . S
C772 H759 0.930 . S
C772 C771 1.376 . S
C772 C773 1.388 . S
C773 H760 0.930 . S
C773 C772 1.388 . S
C773 C774 1.390 . S
C774 C773 1.390 . S
C774 C775 1.394 . S
C774 C780 1.465 . S
C775 C770 1.399 . S
C775 C774 1.394 . S
C775 C776 1.516 1_545 S
C776 C775 1.516 1_565 S
C776 C777 1.502 . S
C776 C778 1.561 . S
C776 C779 1.526 . S
C777 H761 0.959 . S
C777 H762 0.959 . S
C777 H763 0.961 . S
C777 C776 1.502 . S
C778 H764 0.960 . S
C778 H765 0.961 . S
C778 H766 0.959 . S
C778 C776 1.561 . S
C779 C776 1.526 . S
C779 C780 1.396 1_565 S
C779 C784 1.390 . S
C780 C774 1.465 . S
C780 C779 1.396 1_545 S
C780 C781 1.399 . S
C781 H767 0.929 . S
C781 C780 1.399 . S
C781 C782 1.385 . S
C782 H768 0.931 . S
C782 C781 1.385 . S
C782 C783 1.389 1_545 S
C783 C782 1.389 1_565 S
C783 C784 1.387 . S
C784 H769 0.930 . S
C784 C779 1.390 . S
C784 C783 1.387 . S
H785 C797 0.930 . S
H786 C799 0.930 . S
H787 C800 0.930 . S
H788 C804 0.959 . S
H789 C804 0.959 . S
H790 C804 0.961 . S
H791 C805 0.960 . S
H792 C805 0.961 . S
H793 C805 0.959 . S
H794 C808 0.929 1_565 S
H795 C809 0.931 . S
H796 C811 0.930 . S
C797 H785 0.930 . S
C797 C798 1.399 1_545 S
C797 C802 1.399 . S
C798 C797 1.399 1_565 S
C798 C799 1.376 . S
C799 H786 0.930 . S
C799 C798 1.376 . S
C799 C800 1.388 . S
C800 H787 0.930 . S
C800 C799 1.388 . S
C800 C801 1.401 . S
C801 C800 1.401 . S
C801 C802 1.386 1_565 S
C801 C807 1.460 1_565 S
C802 C797 1.399 . S
C802 C801 1.386 1_545 S
C802 C803 1.516 . S
C803 C802 1.516 . S
C803 C804 1.502 . S
C803 C805 1.561 . S
C803 C806 1.526 . S
C804 H788 0.959 . S
C804 H789 0.959 . S
C804 H790 0.961 . S
C804 C803 1.502 . S
C805 H791 0.960 . S
C805 H792 0.961 . S
C805 H793 0.959 . S
C805 C803 1.561 . S
C806 C803 1.526 . S
C806 C807 1.396 . S
C806 C811 1.390 . S
C807 C801 1.460 1_545 S
C807 C806 1.396 . S
C807 C808 1.399 . S
C808 H794 0.929 1_545 S
C808 C807 1.399 . S
C808 C809 1.385 . S
C809 H795 0.931 . S
C809 C808 1.385 . S
C809 C810 1.389 . S
C810 C809 1.389 . S
C810 C811 1.387 . S
C811 H796 0.930 . S
C811 C806 1.390 . S
C811 C810 1.387 . S
H812 C824 0.930 . S
H813 C826 0.930 . S
H814 C827 0.930 . S
H815 C831 0.959 . S
H816 C831 0.959 . S
H817 C831 0.961 . S
H818 C832 0.960 . S
H819 C832 0.961 . S
H820 C832 0.959 . S
H821 C835 0.929 . S
H822 C836 0.931 . S
H823 C838 0.930 . S
C824 H812 0.930 . S
C824 C825 1.399 . S
C824 C829 1.399 . S
C825 C824 1.399 . S
C825 C826 1.376 . S
C826 H813 0.930 . S
C826 C825 1.376 . S
C826 C827 1.388 . S
C827 H814 0.930 . S
C827 C826 1.388 . S
C827 C828 1.390 . S
C828 C827 1.390 . S
C828 C829 1.394 . S
C828 C834 1.465 . S
C829 C824 1.399 . S
C829 C828 1.394 . S
C829 C830 1.516 . S
C830 C829 1.516 . S
C830 C831 1.502 . S
C830 C832 1.561 . S
C830 C833 1.526 . S
C831 H815 0.959 . S
C831 H816 0.959 . S
C831 H817 0.961 . S
C831 C830 1.502 . S
C832 H818 0.960 . S
C832 H819 0.961 . S
C832 H820 0.959 . S
C832 C830 1.561 . S
C833 C830 1.526 . S
C833 C834 1.396 . S
C833 C838 1.390 . S
C834 C828 1.465 . S
C834 C833 1.396 . S
C834 C835 1.399 . S
C835 H821 0.929 . S
C835 C834 1.399 . S
C835 C836 1.385 . S
C836 H822 0.931 . S
C836 C835 1.385 . S
C836 C837 1.389 . S
C837 C836 1.389 . S
C837 C838 1.387 . S
C838 H823 0.930 . S
C838 C833 1.390 . S
C838 C837 1.387 . S
H839 C851 0.930 . S
H840 C853 0.930 . S
H841 C854 0.930 . S
H842 C858 0.959 . S
H843 C858 0.959 . S
H844 C858 0.961 . S
H845 C859 0.960 . S
H846 C859 0.961 . S
H847 C859 0.959 . S
H848 C862 0.929 . S
H849 C863 0.931 . S
H850 C865 0.930 . S
C851 H839 0.930 . S
C851 C852 1.399 . S
C851 C856 1.399 . S
C852 C851 1.399 . S
C852 C853 1.376 . S
C853 H840 0.930 . S
C853 C852 1.376 . S
C853 C854 1.388 . S
C854 H841 0.930 . S
C854 C853 1.388 . S
C854 C855 1.390 . S
C855 C854 1.390 . S
C855 C856 1.394 . S
C855 C861 1.465 . S
C856 C851 1.399 . S
C856 C855 1.394 . S
C856 C857 1.516 . S
C857 C856 1.516 . S
C857 C858 1.502 . S
C857 C859 1.561 . S
C857 C860 1.526 . S
C858 H842 0.959 . S
C858 H843 0.959 . S
C858 H844 0.961 . S
C858 C857 1.502 . S
C859 H845 0.960 . S
C859 H846 0.961 . S
C859 H847 0.959 . S
C859 C857 1.561 . S
C860 C857 1.526 . S
C860 C861 1.396 . S
C860 C865 1.390 . S
C861 C855 1.465 . S
C861 C860 1.396 . S
C861 C862 1.399 . S
C862 H848 0.929 . S
C862 C861 1.399 . S
C862 C863 1.385 . S
C863 H849 0.931 . S
C863 C862 1.385 . S
C863 C864 1.389 . S
C864 C863 1.389 . S
C864 C865 1.387 . S
C865 H850 0.930 . S
C865 C860 1.390 . S
C865 C864 1.387 . S
H866 C878 0.930 . S
H867 C880 0.930 . S
H868 C881 0.930 . S
H869 C885 0.959 . S
H870 C885 0.959 . S
H871 C885 0.961 . S
H872 C886 0.960 . S
H873 C886 0.961 . S
H874 C886 0.959 . S
H875 C889 0.929 . S
H876 C890 0.931 . S
H877 C892 0.930 . S
C878 H866 0.930 . S
C878 C879 1.399 . S
C878 C883 1.399 . S
C879 C878 1.399 . S
C879 C880 1.376 . S
C880 H867 0.930 . S
C880 C879 1.376 . S
C880 C881 1.388 . S
C881 H868 0.930 . S
C881 C880 1.388 . S
C881 C882 1.390 . S
C882 C881 1.390 . S
C882 C883 1.394 . S
C882 C888 1.465 . S
C883 C878 1.399 . S
C883 C882 1.394 . S
C883 C884 1.516 . S
C884 C883 1.516 . S
C884 C885 1.502 . S
C884 C886 1.561 . S
C884 C887 1.526 . S
C885 H869 0.959 . S
C885 H870 0.959 . S
C885 H871 0.961 . S
C885 C884 1.502 . S
C886 H872 0.960 . S
C886 H873 0.961 . S
C886 H874 0.959 . S
C886 C884 1.561 . S
C887 C884 1.526 . S
C887 C888 1.396 . S
C887 C892 1.390 . S
C888 C882 1.465 . S
C888 C887 1.396 . S
C888 C889 1.399 . S
C889 H875 0.929 . S
C889 C888 1.399 . S
C889 C890 1.385 . S
C890 H876 0.931 . S
C890 C889 1.385 . S
C890 C891 1.389 . S
C891 C890 1.389 . S
C891 C892 1.387 . S
C892 H877 0.930 . S
C892 C887 1.390 . S
C892 C891 1.387 . S
H893 C905 0.930 . S
H894 C907 0.930 . S
H895 C908 0.930 . S
H896 C912 0.959 . S
H897 C912 0.959 . S
H898 C912 0.961 . S
H899 C913 0.960 . S
H900 C913 0.961 . S
H901 C913 0.959 . S
H902 C916 0.929 . S
H903 C917 0.931 . S
H904 C919 0.930 . S
C905 H893 0.930 . S
C905 C906 1.399 . S
C905 C910 1.399 . S
C906 C905 1.399 . S
C906 C907 1.376 . S
C907 H894 0.930 . S
C907 C906 1.376 . S
C907 C908 1.388 . S
C908 H895 0.930 . S
C908 C907 1.388 . S
C908 C909 1.390 . S
C909 C908 1.390 . S
C909 C910 1.394 . S
C909 C915 1.465 . S
C910 C905 1.399 . S
C910 C909 1.394 . S
C910 C911 1.516 . S
C911 C910 1.516 . S
C911 C912 1.502 . S
C911 C913 1.561 . S
C911 C914 1.526 . S
C912 H896 0.959 . S
C912 H897 0.959 . S
C912 H898 0.961 . S
C912 C911 1.502 . S
C913 H899 0.960 . S
C913 H900 0.961 . S
C913 H901 0.959 . S
C913 C911 1.561 . S
C914 C911 1.526 . S
C914 C915 1.396 . S
C914 C919 1.390 . S
C915 C909 1.465 . S
C915 C914 1.396 . S
C915 C916 1.399 . S
C916 H902 0.929 . S
C916 C915 1.399 . S
C916 C917 1.385 . S
C917 H903 0.931 . S
C917 C916 1.385 . S
C917 C918 1.389 . S
C918 C917 1.389 . S
C918 C919 1.387 . S
C919 H904 0.930 . S
C919 C914 1.390 . S
C919 C918 1.387 . S
H920 C932 0.930 . S
H921 C934 0.930 . S
H922 C935 0.930 . S
H923 C939 0.959 . S
H924 C939 0.959 . S
H925 C939 0.961 . S
H926 C940 0.960 . S
H927 C940 0.964 . S
H928 C940 0.959 . S
H929 C943 0.929 . S
H930 C944 0.931 . S
H931 C946 0.930 . S
C932 H920 0.930 . S
C932 C933 1.399 . S
C932 C937 1.399 . S
C933 C932 1.399 . S
C933 C934 1.376 1_545 S
C934 H921 0.930 . S
C934 C933 1.376 1_565 S
C934 C935 1.388 . S
C935 H922 0.930 . S
C935 C934 1.388 . S
C935 C936 1.390 . S
C936 C935 1.390 . S
C936 C937 1.394 1_565 S
C936 C942 1.465 . S
C937 C932 1.399 . S
C937 C936 1.394 1_545 S
C937 C938 1.516 1_554 S
C938 C937 1.516 1_556 S
C938 C939 1.502 . S
C938 C940 1.561 1_556 S
C938 C941 1.526 . S
C939 H923 0.959 . S
C939 H924 0.959 . S
C939 H925 0.961 . S
C939 C938 1.502 . S
C940 H926 0.960 . S
C940 H927 0.964 . S
C940 H928 0.959 . S
C940 C938 1.561 1_554 S
C941 C938 1.526 . S
C941 C942 1.396 1_546 S
C941 C946 1.390 . S
C942 C936 1.465 . S
C942 C941 1.396 1_564 S
C942 C943 1.399 . S
C943 H929 0.929 . S
C943 C942 1.399 . S
C943 C944 1.385 1_554 S
C944 H930 0.931 . S
C944 C943 1.385 1_556 S
C944 C945 1.389 . S
C945 C944 1.389 . S
C945 C946 1.387 1_565 S
C946 H931 0.930 . S
C946 C941 1.390 . S
C946 C945 1.387 1_545 S
H947 C959 0.930 . S
H948 C961 0.930 . S
H949 C962 0.930 . S
H950 C966 0.959 . S
H951 C966 0.959 . S
H952 C966 0.961 . S
H953 C967 0.960 . S
H954 C967 0.961 . S
H955 C967 0.959 . S
H956 C970 0.929 . S
H957 C971 0.931 . S
H958 C973 0.930 . S
C959 H947 0.930 . S
C959 C960 1.399 . S
C959 C964 1.399 . S
C960 C959 1.399 . S
C960 C961 1.376 1_545 S
C961 H948 0.930 . S
C961 C960 1.376 1_565 S
C961 C962 1.388 . S
C962 H949 0.930 . S
C962 C961 1.388 . S
C962 C963 1.390 . S
C963 C962 1.390 . S
C963 C964 1.394 1_565 S
C963 C969 1.465 . S
C964 C959 1.399 . S
C964 C963 1.394 1_545 S
C964 C965 1.516 . S
C965 C964 1.516 . S
C965 C966 1.502 . S
C965 C967 1.561 . S
C965 C968 1.526 . S
C966 H950 0.959 . S
C966 H951 0.959 . S
C966 H952 0.961 . S
C966 C965 1.502 . S
C967 H953 0.960 . S
C967 H954 0.961 . S
C967 H955 0.959 . S
C967 C965 1.561 . S
C968 C965 1.526 . S
C968 C969 1.396 1_545 S
C968 C973 1.390 . S
C969 C963 1.465 . S
C969 C968 1.396 1_565 S
C969 C970 1.399 . S
C970 H956 0.929 . S
C970 C969 1.399 . S
C970 C971 1.385 . S
C971 H957 0.931 . S
C971 C970 1.385 . S
C971 C972 1.389 . S
C972 C971 1.389 . S
C972 C973 1.387 1_565 S
C973 H958 0.930 . S
C973 C968 1.390 . S
C973 C972 1.387 1_545 S
H974 C986 0.930 . S
H975 C988 0.930 . S
H976 C989 0.930 . S
H977 C993 0.959 . S
H978 C993 0.959 . S
H979 C993 0.961 . S
H980 C994 0.960 . S
H981 C994 0.961 . S
H982 C994 0.959 . S
H983 C997 0.929 . S
H984 C998 0.931 . S
H985 C1000 0.930 . S
C986 H974 0.930 . S
C986 C987 1.399 . S
C986 C991 1.399 . S
C987 C986 1.399 . S
C987 C988 1.376 . S
C988 H975 0.930 . S
C988 C987 1.376 . S
C988 C989 1.388 1_554 S
C989 H976 0.930 . S
C989 C988 1.388 1_556 S
C989 C990 1.390 . S
C990 C989 1.390 . S
C990 C991 1.394 1_556 S
C990 C996 1.465 1_655 S
C991 C986 1.399 . S
C991 C990 1.394 1_554 S
C991 C992 1.502 1_655 S
C992 C991 1.502 1_455 S
C992 C993 1.508 . S
C992 C994 1.554 1_454 S
C992 C995 1.541 1_554 S
C993 H977 0.959 . S
C993 H978 0.959 . S
C993 H979 0.961 . S
C993 C992 1.508 . S
C994 H980 0.960 . S
C994 H981 0.961 . S
C994 H982 0.959 . S
C994 C992 1.554 1_656 S
C995 C992 1.541 1_556 S
C995 C996 1.396 . S
C995 C1000 1.390 . S
C996 C990 1.465 1_455 S
C996 C995 1.396 . S
C996 C997 1.399 . S
C997 H983 0.929 . S
C997 C996 1.399 . S
C997 C998 1.385 . S
C998 H984 0.931 . S
C998 C997 1.385 . S
C998 C999 1.389 . S
C999 C998 1.389 . S
C999 C1000 1.387 . S
C1000 H985 0.930 . S
C1000 C995 1.390 . S
C1000 C999 1.387 . S
H1001 C1013 0.930 . S
H1002 C1015 0.930 . S
H1003 C1016 0.930 . S
H1004 C1020 0.959 . S
H1005 C1020 0.959 . S
H1006 C1020 0.961 . S
H1007 C1021 0.960 . S
H1008 C1021 0.961 1_655 S
H1009 C1021 0.959 . S
H1010 C1024 0.929 . S
H1011 C1025 0.931 . S
H1012 C1027 0.930 . S
C1013 H1001 0.930 . S
C1013 C1014 1.399 . S
C1013 C1018 1.399 . S
C1014 C1013 1.399 . S
C1014 C1015 1.376 . S
C1015 H1002 0.930 . S
C1015 C1014 1.376 . S
C1015 C1016 1.388 . S
C1016 H1003 0.930 . S
C1016 C1015 1.388 . S
C1016 C1017 1.390 . S
C1017 C1016 1.390 . S
C1017 C1018 1.394 . S
C1017 C1023 1.465 1_455 S
C1018 C1013 1.399 . S
C1018 C1017 1.394 . S
C1018 C1019 1.516 1_455 S
C1019 C1018 1.516 1_655 S
C1019 C1020 1.502 . S
C1019 C1021 1.561 1_655 S
C1019 C1022 1.526 . S
C1020 H1004 0.959 . S
C1020 H1005 0.959 . S
C1020 H1006 0.961 . S
C1020 C1019 1.502 . S
C1021 H1007 0.960 . S
C1021 H1008 0.961 1_455 S
C1021 H1009 0.959 . S
C1021 C1019 1.561 1_455 S
C1022 C1019 1.526 . S
C1022 C1023 1.396 . S
C1022 C1027 1.390 . S
C1023 C1017 1.465 1_655 S
C1023 C1022 1.396 . S
C1023 C1024 1.399 . S
C1024 H1010 0.929 . S
C1024 C1023 1.399 . S
C1024 C1025 1.385 . S
C1025 H1011 0.931 . S
C1025 C1024 1.385 . S
C1025 C1026 1.389 . S
C1026 C1025 1.389 . S
C1026 C1027 1.387 . S
C1027 H1012 0.930 . S
C1027 C1022 1.390 . S
C1027 C1026 1.387 . S
C285 C35 1.683 . S
C297 C3 1.701 . S
C312 C105 1.626 . S
C324 C71 1.656 . S
C339 C139 1.631 . S
C351 C173 1.692 . S
C366 C207 1.707 . S
C378 C239 1.689 . S
C393 C22 1.445 . S
C405 C15 1.328 . S
C420 C49 1.435 . S
C432 C56 1.335 . S
C447 C83 1.330 . S
C459 C90 1.454 . S
C474 C124 1.432 . S
C486 C117 1.332 . S
C501 C158 1.436 . S
C513 C151 1.334 . S
C528 C192 1.357 . S
C540 C185 1.407 . S
C555 C219 1.340 . S
C567 C226 1.451 . S
C582 C253 1.448 . S
C594 C260 1.325 . S
C609 C17 1.771 . S
C621 C221 1.802 . S
C636 C51 1.799 . S
C648 C255 1.775 . S
C663 C85 1.807 . S
C675 C153 1.766 . S
C690 C187 1.804 . S
C702 C119 1.769 . S
C717 C6 1.609 . S
C729 C130 1.593 . S
C744 C62 1.635 . S
C756 C96 1.557 . S
C771 C40 1.604 . S
C783 C74 1.585 . S
C798 C108 1.621 . S
C810 C28 1.555 . S
C825 C244 1.555 . S
C837 C142 1.632 . S
C852 C176 1.637 . S
C864 C232 1.552 . S
C879 C198 1.570 . S
C891 C210 1.636 . S
C906 C164 1.568 . S
C918 C266 1.636 . S
C933 C1 1.806 . S
C945 C69 1.797 . S
C960 C37 1.828 . S
C972 C103 1.778 . S
C987 C137 1.806 . S
C999 C205 1.822 . S
C1014 C171 1.815 . S
C1026 C241 1.812 . S
