# Generated by pormake.
# Topology afi, (4)-cn, num edge types: 1
# Building blocks:
#     Node 0, Type 0, BuildingBlock: TATPOV_clean_sbu_0, # of connection points: 4
#     Node 1, Type 0, BuildingBlock: TATPOV_clean_sbu_0, # of connection points: 4
#     Node 2, Type 0, BuildingBlock: TATPOV_clean_sbu_0, # of connection points: 4
#     Node 3, Type 0, BuildingBlock: TATPOV_clean_sbu_0, # of connection points: 4
#     Node 4, Type 0, BuildingBlock: TATPOV_clean_sbu_0, # of connection points: 4
#     Node 5, Type 0, BuildingBlock: TATPOV_clean_sbu_0, # of connection points: 4
#     Node 6, Type 0, BuildingBlock: TATPOV_clean_sbu_0, # of connection points: 4
#     Node 7, Type 0, BuildingBlock: TATPOV_clean_sbu_0, # of connection points: 4
#     Node 8, Type 0, BuildingBlock: TATPOV_clean_sbu_0, # of connection points: 4
#     Node 9, Type 0, BuildingBlock: TATPOV_clean_sbu_0, # of connection points: 4
#     Node 10, Type 0, BuildingBlock: TATPOV_clean_sbu_0, # of connection points: 4
#     Node 11, Type 0, BuildingBlock: TATPOV_clean_sbu_0, # of connection points: 4
#     Node 12, Type 0, BuildingBlock: TATPOV_clean_sbu_0, # of connection points: 4
#     Node 13, Type 0, BuildingBlock: TATPOV_clean_sbu_0, # of connection points: 4
#     Node 14, Type 0, BuildingBlock: TATPOV_clean_sbu_0, # of connection points: 4
#     Node 15, Type 0, BuildingBlock: TATPOV_clean_sbu_0, # of connection points: 4
#     Node 16, Type 0, BuildingBlock: TATPOV_clean_sbu_0, # of connection points: 4
#     Node 17, Type 0, BuildingBlock: TATPOV_clean_sbu_0, # of connection points: 4
#     Node 18, Type 0, BuildingBlock: TATPOV_clean_sbu_0, # of connection points: 4
#     Node 19, Type 0, BuildingBlock: TATPOV_clean_sbu_0, # of connection points: 4
#     Node 20, Type 0, BuildingBlock: TATPOV_clean_sbu_0, # of connection points: 4
#     Node 21, Type 0, BuildingBlock: TATPOV_clean_sbu_0, # of connection points: 4
#     Node 22, Type 0, BuildingBlock: TATPOV_clean_sbu_0, # of connection points: 4
#     Node 23, Type 0, BuildingBlock: TATPOV_clean_sbu_0, # of connection points: 4
#     Edge 24, Type (0, 0), BuildingBlock: AJUNOK_clean_linker_0, # of connection points: 2
#     Edge 25, Type (0, 0), BuildingBlock: AJUNOK_clean_linker_0, # of connection points: 2
#     Edge 26, Type (0, 0), BuildingBlock: AJUNOK_clean_linker_0, # of connection points: 2
#     Edge 27, Type (0, 0), BuildingBlock: AJUNOK_clean_linker_0, # of connection points: 2
#     Edge 28, Type (0, 0), BuildingBlock: AJUNOK_clean_linker_0, # of connection points: 2
#     Edge 29, Type (0, 0), BuildingBlock: AJUNOK_clean_linker_0, # of connection points: 2
#     Edge 30, Type (0, 0), BuildingBlock: AJUNOK_clean_linker_0, # of connection points: 2
#     Edge 31, Type (0, 0), BuildingBlock: AJUNOK_clean_linker_0, # of connection points: 2
#     Edge 32, Type (0, 0), BuildingBlock: AJUNOK_clean_linker_0, # of connection points: 2
#     Edge 33, Type (0, 0), BuildingBlock: AJUNOK_clean_linker_0, # of connection points: 2
#     Edge 34, Type (0, 0), BuildingBlock: AJUNOK_clean_linker_0, # of connection points: 2
#     Edge 35, Type (0, 0), BuildingBlock: AJUNOK_clean_linker_0, # of connection points: 2
#     Edge 36, Type (0, 0), BuildingBlock: AJUNOK_clean_linker_0, # of connection points: 2
#     Edge 37, Type (0, 0), BuildingBlock: AJUNOK_clean_linker_0, # of connection points: 2
#     Edge 38, Type (0, 0), BuildingBlock: AJUNOK_clean_linker_0, # of connection points: 2
#     Edge 39, Type (0, 0), BuildingBlock: AJUNOK_clean_linker_0, # of connection points: 2
#     Edge 40, Type (0, 0), BuildingBlock: AJUNOK_clean_linker_0, # of connection points: 2
#     Edge 41, Type (0, 0), BuildingBlock: AJUNOK_clean_linker_0, # of connection points: 2
#     Edge 42, Type (0, 0), BuildingBlock: AJUNOK_clean_linker_0, # of connection points: 2
#     Edge 43, Type (0, 0), BuildingBlock: AJUNOK_clean_linker_0, # of connection points: 2
#     Edge 44, Type (0, 0), BuildingBlock: AJUNOK_clean_linker_0, # of connection points: 2
#     Edge 45, Type (0, 0), BuildingBlock: AJUNOK_clean_linker_0, # of connection points: 2
#     Edge 46, Type (0, 0), BuildingBlock: AJUNOK_clean_linker_0, # of connection points: 2
#     Edge 47, Type (0, 0), BuildingBlock: AJUNOK_clean_linker_0, # of connection points: 2
#     Edge 48, Type (0, 0), BuildingBlock: AJUNOK_clean_linker_0, # of connection points: 2
#     Edge 49, Type (0, 0), BuildingBlock: AJUNOK_clean_linker_0, # of connection points: 2
#     Edge 50, Type (0, 0), BuildingBlock: AJUNOK_clean_linker_0, # of connection points: 2
#     Edge 51, Type (0, 0), BuildingBlock: AJUNOK_clean_linker_0, # of connection points: 2
#     Edge 52, Type (0, 0), BuildingBlock: AJUNOK_clean_linker_0, # of connection points: 2
#     Edge 53, Type (0, 0), BuildingBlock: AJUNOK_clean_linker_0, # of connection points: 2
#     Edge 54, Type (0, 0), BuildingBlock: AJUNOK_clean_linker_0, # of connection points: 2
#     Edge 55, Type (0, 0), BuildingBlock: AJUNOK_clean_linker_0, # of connection points: 2
#     Edge 56, Type (0, 0), BuildingBlock: AJUNOK_clean_linker_0, # of connection points: 2
#     Edge 57, Type (0, 0), BuildingBlock: AJUNOK_clean_linker_0, # of connection points: 2
#     Edge 58, Type (0, 0), BuildingBlock: AJUNOK_clean_linker_0, # of connection points: 2
#     Edge 59, Type (0, 0), BuildingBlock: AJUNOK_clean_linker_0, # of connection points: 2
#     Edge 60, Type (0, 0), BuildingBlock: AJUNOK_clean_linker_0, # of connection points: 2
#     Edge 61, Type (0, 0), BuildingBlock: AJUNOK_clean_linker_0, # of connection points: 2
#     Edge 62, Type (0, 0), BuildingBlock: AJUNOK_clean_linker_0, # of connection points: 2
#     Edge 63, Type (0, 0), BuildingBlock: AJUNOK_clean_linker_0, # of connection points: 2
#     Edge 64, Type (0, 0), BuildingBlock: AJUNOK_clean_linker_0, # of connection points: 2
#     Edge 65, Type (0, 0), BuildingBlock: AJUNOK_clean_linker_0, # of connection points: 2
#     Edge 66, Type (0, 0), BuildingBlock: AJUNOK_clean_linker_0, # of connection points: 2
#     Edge 67, Type (0, 0), BuildingBlock: AJUNOK_clean_linker_0, # of connection points: 2
#     Edge 68, Type (0, 0), BuildingBlock: AJUNOK_clean_linker_0, # of connection points: 2
#     Edge 69, Type (0, 0), BuildingBlock: AJUNOK_clean_linker_0, # of connection points: 2
#     Edge 70, Type (0, 0), BuildingBlock: AJUNOK_clean_linker_0, # of connection points: 2
#     Edge 71, Type (0, 0), BuildingBlock: AJUNOK_clean_linker_0, # of connection points: 2
# Relax obj value: 0.049
# Max RMSD: 0.069
# Mean RMSD: 0.069
data_MOF--net-afi--node1-TATPOV_clean_sbu_0--edge1-AJUNOK_clean_linker_0
_symmetry_space_group_name_H-M    P1
_symmetry_Int_Tables_number       1
_symmetry_cell_setting            triclinic
loop_
_symmetry_equiv_pos_as_xyz
'x, y, z'
_cell_length_a     49.841832
_cell_length_b     50.21478
_cell_length_c     28.812384
_cell_angle_alpha  90.078346
_cell_angle_beta   89.951999
_cell_angle_gamma 120.58639
loop_
_atom_site_label
_atom_site_type_symbol
_atom_site_fract_x
_atom_site_fract_y
_atom_site_fract_z
_atom_type_partial_charge
Zn0 Zn 0.47011 0.12271 0.34096 0.0
Zn1 Zn 0.46727 0.11932 0.24572 0.0
O2 O 0.42635 0.08131 0.26601 0.0
O3 O 0.42787 0.08373 0.34234 0.0
O4 O 0.46617 0.11779 0.17519 0.0
O5 O 0.47195 0.1635 0.33733 0.0
O6 O 0.46844 0.15949 0.26122 0.0
C7 C 0.41371 0.07044 0.30528 0.0
C8 C 0.52039 0.11869 0.29995 0.0
O9 O 0.50658 0.11801 0.26238 0.0
O10 O 0.50937 0.1206 0.33861 0.0
C11 C 0.44335 0.11649 0.15336 0.0
O12 O 0.42076 0.11611 0.17742 0.0
C13 C 0.47016 0.17408 0.29834 0.0
Zn14 Zn 0.29161 0.40488 0.34255 0.0
Zn15 Zn 0.29061 0.40442 0.24739 0.0
O16 O 0.29465 0.36734 0.26608 0.0
O17 O 0.2926 0.36537 0.34232 0.0
O18 O 0.28967 0.40338 0.17682 0.0
O19 O 0.25152 0.40513 0.34295 0.0
O20 O 0.25154 0.40528 0.26654 0.0
C21 C 0.29521 0.35456 0.30396 0.0
C22 C 0.34395 0.45826 0.29988 0.0
O23 O 0.33008 0.44498 0.26239 0.0
O24 O 0.33241 0.44584 0.3387 0.0
C25 C 0.31432 0.40939 0.15494 0.0
O26 O 0.33907 0.41507 0.17897 0.0
C27 C 0.23921 0.40592 0.305 0.0
Zn28 Zn 0.8573 0.29492 0.34444 0.0
Zn29 Zn 0.85498 0.29464 0.24951 0.0
O30 O 0.90142 0.31927 0.26412 0.0
O31 O 0.90417 0.31948 0.34035 0.0
O32 O 0.85335 0.29298 0.17915 0.0
O33 O 0.83406 0.2484 0.34488 0.0
O34 O 0.83167 0.24903 0.26873 0.0
C35 C 0.91753 0.32764 0.30122 0.0
C36 C 0.82743 0.32671 0.30634 0.0
O37 O 0.83387 0.31896 0.2676 0.0
O38 O 0.83425 0.31852 0.34398 0.0
C39 C 0.86512 0.31754 0.15492 0.0
O40 O 0.87826 0.34438 0.17636 0.0
C41 C 0.82535 0.234 0.3067 0.0
Zn42 Zn 0.46921 0.83695 0.34384 0.0
Zn43 Zn 0.47028 0.83872 0.24798 0.0
O44 O 0.51146 0.87679 0.26582 0.0
O45 O 0.51162 0.87613 0.34227 0.0
O46 O 0.47042 0.83847 0.17777 0.0
O47 O 0.46732 0.79591 0.34056 0.0
O48 O 0.46912 0.79894 0.26435 0.0
C49 C 0.52496 0.88847 0.30427 0.0
C50 C 0.41826 0.84046 0.30314 0.0
O51 O 0.43152 0.84052 0.26533 0.0
O52 O 0.42976 0.83908 0.34164 0.0
C53 C 0.46596 0.8571 0.15379 0.0
O54 O 0.46123 0.87742 0.17538 0.0
C55 C 0.46812 0.78479 0.30146 0.0
Zn56 Zn 0.65079 0.55784 0.34726 0.0
Zn57 Zn 0.64981 0.55521 0.25262 0.0
O58 O 0.64607 0.59274 0.26965 0.0
O59 O 0.64985 0.59736 0.34558 0.0
O60 O 0.65144 0.5558 0.18214 0.0
O61 O 0.69073 0.55732 0.34842 0.0
O62 O 0.68867 0.55415 0.27221 0.0
C63 C 0.64636 0.60682 0.30662 0.0
C64 C 0.59744 0.50298 0.30765 0.0
O65 O 0.61024 0.51496 0.26893 0.0
O66 O 0.60998 0.51681 0.34529 0.0
C67 C 0.6299 0.55562 0.15821 0.0
O68 O 0.60642 0.555 0.18002 0.0
C69 C 0.70187 0.55472 0.31038 0.0
Zn70 Zn 0.08215 0.66331 0.34833 0.0
Zn71 Zn 0.08399 0.66348 0.25312 0.0
O72 O 0.0377 0.63897 0.26827 0.0
O73 O 0.03518 0.63868 0.34453 0.0
O74 O 0.08527 0.66476 0.18283 0.0
O75 O 0.10542 0.70994 0.34818 0.0
O76 O 0.10728 0.70907 0.27195 0.0
C77 C 0.02171 0.63057 0.30547 0.0
C78 C 0.11183 0.63149 0.30924 0.0
O79 O 0.10521 0.63928 0.27076 0.0
O80 O 0.10519 0.63965 0.34714 0.0
C81 C 0.07156 0.63994 0.15914 0.0
O82 O 0.05673 0.61337 0.18117 0.0
C83 C 0.11379 0.72419 0.30985 0.0
Zn84 Zn 0.8296 0.49259 0.26821 0.0
Zn85 Zn 0.83233 0.49418 0.36318 0.0
O86 O 0.87662 0.52673 0.34456 0.0
O87 O 0.8752 0.52542 0.26816 0.0
O88 O 0.83289 0.4943 0.43367 0.0
O89 O 0.79825 0.50637 0.27074 0.0
O90 O 0.80122 0.50781 0.347 0.0
C91 C 0.89012 0.53666 0.30553 0.0
C92 C 0.81495 0.43454 0.30803 0.0
O93 O 0.82045 0.44981 0.3457 0.0
O94 O 0.81664 0.44747 0.26957 0.0
C95 C 0.83841 0.51852 0.45581 0.0
O96 O 0.84397 0.54312 0.43204 0.0
C97 C 0.79038 0.51211 0.30957 0.0
Zn98 Zn 0.27726 0.88781 0.26842 0.0
Zn99 Zn 0.27923 0.88641 0.36274 0.0
O100 O 0.29978 0.93209 0.34554 0.0
O101 O 0.29666 0.93407 0.26967 0.0
O102 O 0.27909 0.8865 0.43309 0.0
O103 O 0.23091 0.85861 0.26931 0.0
O104 O 0.23369 0.85667 0.34523 0.0
C105 C 0.30555 0.94778 0.30838 0.0
C106 C 0.31621 0.86503 0.30593 0.0
O107 O 0.30752 0.86982 0.34509 0.0
O108 O 0.30634 0.87054 0.26873 0.0
C109 C 0.30404 0.90413 0.45529 0.0
O110 O 0.32962 0.92181 0.43164 0.0
C111 C 0.21779 0.8477 0.3079 0.0
Zn112 Zn 0.43855 0.32463 0.26288 0.0
Zn113 Zn 0.4379 0.32214 0.35802 0.0
O114 O 0.3949 0.31526 0.34092 0.0
O115 O 0.39434 0.31554 0.26458 0.0
O116 O 0.43838 0.32168 0.42856 0.0
O117 O 0.4474 0.28995 0.26172 0.0
O118 O 0.44596 0.28773 0.33807 0.0
C119 C 0.38076 0.31286 0.3029 0.0
C120 C 0.48569 0.38077 0.30557 0.0
O121 O 0.47393 0.36538 0.34263 0.0
O122 O 0.47444 0.36867 0.26648 0.0
C123 C 0.41656 0.30053 0.45265 0.0
O124 O 0.3927 0.27769 0.43108 0.0
C125 C 0.44948 0.27788 0.29904 0.0
Zn126 Zn 0.10967 0.46602 0.26533 0.0
Zn127 Zn 0.10672 0.46342 0.36045 0.0
O128 O 0.06253 0.43116 0.34093 0.0
O129 O 0.06406 0.43313 0.26457 0.0
O130 O 0.10583 0.46253 0.43094 0.0
O131 O 0.1411 0.4523 0.26735 0.0
O132 O 0.13793 0.45005 0.34359 0.0
C133 C 0.04909 0.42157 0.30178 0.0
C134 C 0.12425 0.52364 0.3073 0.0
O135 O 0.11871 0.50795 0.34447 0.0
O136 O 0.12257 0.51113 0.26838 0.0
C137 C 0.09384 0.43694 0.45261 0.0
O138 O 0.08223 0.41122 0.42843 0.0
C139 C 0.14891 0.44621 0.30591 0.0
Zn140 Zn 0.66122 0.07127 0.26497 0.0
Zn141 Zn 0.65919 0.07258 0.35933 0.0
O142 O 0.63863 0.02675 0.34262 0.0
O143 O 0.64146 0.02503 0.26663 0.0
O144 O 0.65913 0.07289 0.42971 0.0
O145 O 0.70762 0.10003 0.26596 0.0
O146 O 0.70482 0.10209 0.34192 0.0
C147 C 0.63275 0.01119 0.30521 0.0
C148 C 0.62255 0.0943 0.30203 0.0
O149 O 0.63105 0.08927 0.34113 0.0
O150 O 0.6325 0.08891 0.26478 0.0
C151 C 0.63334 0.05998 0.45151 0.0
O152 O 0.60735 0.04666 0.42742 0.0
C153 C 0.72074 0.11087 0.30461 0.0
Zn154 Zn 0.50402 0.63776 0.25929 0.0
Zn155 Zn 0.50223 0.63728 0.35418 0.0
O156 O 0.5456 0.64483 0.3379 0.0
O157 O 0.54834 0.64724 0.26171 0.0
O158 O 0.50177 0.63806 0.42463 0.0
O159 O 0.49433 0.67187 0.25924 0.0
O160 O 0.49362 0.67145 0.3356 0.0
C161 C 0.56083 0.64856 0.30051 0.0
C162 C 0.45618 0.58 0.29832 0.0
O163 O 0.46665 0.5941 0.33679 0.0
O164 O 0.46851 0.59351 0.26048 0.0
C165 C 0.50335 0.61762 0.44852 0.0
O166 O 0.50526 0.59565 0.42668 0.0
C167 C 0.49072 0.68231 0.29723 0.0
Zn168 Zn 0.46629 0.83394 0.76139 0.0
Zn169 Zn 0.46912 0.83662 0.85699 0.0
O170 O 0.50984 0.8748 0.83767 0.0
O171 O 0.50853 0.87324 0.76128 0.0
O172 O 0.47014 0.83714 0.92722 0.0
O173 O 0.46474 0.79312 0.76448 0.0
O174 O 0.46808 0.79681 0.84062 0.0
C175 C 0.52254 0.88616 0.79864 0.0
C176 C 0.4159 0.8374 0.80386 0.0
O177 O 0.4299 0.83788 0.84106 0.0
O178 O 0.42675 0.83578 0.76487 0.0
C179 C 0.46548 0.85584 0.95079 0.0
O180 O 0.4602 0.87561 0.92873 0.0
C181 C 0.46644 0.78239 0.80341 0.0
Zn182 Zn 0.64732 0.55292 0.76563 0.0
Zn183 Zn 0.64841 0.55409 0.86024 0.0
O184 O 0.64447 0.59118 0.84081 0.0
O185 O 0.64613 0.59227 0.76456 0.0
O186 O 0.65114 0.55646 0.93063 0.0
O187 O 0.68736 0.55265 0.76411 0.0
O188 O 0.68698 0.55246 0.84047 0.0
C189 C 0.64371 0.60353 0.80256 0.0
C190 C 0.59487 0.49984 0.80952 0.0
O191 O 0.60851 0.51339 0.84702 0.0
O192 O 0.60665 0.51202 0.77066 0.0
C193 C 0.62872 0.55412 0.95497 0.0
O194 O 0.60379 0.5505 0.93362 0.0
C195 C 0.69941 0.55166 0.8022 0.0
Zn196 Zn 0.08038 0.66091 0.76644 0.0
Zn197 Zn 0.08247 0.66123 0.86148 0.0
O198 O 0.03607 0.63671 0.84688 0.0
O199 O 0.03346 0.6363 0.77062 0.0
O200 O 0.08422 0.66305 0.93173 0.0
O201 O 0.10355 0.70749 0.76617 0.0
O202 O 0.10569 0.70675 0.84235 0.0
C203 C 0.02003 0.62827 0.80972 0.0
C204 C 0.11005 0.62903 0.80501 0.0
O205 O 0.10348 0.6368 0.84362 0.0
O206 O 0.10343 0.63728 0.76724 0.0
C207 C 0.07059 0.63856 0.95607 0.0
O208 O 0.0554 0.61172 0.93476 0.0
C209 C 0.11205 0.72181 0.80446 0.0
Zn210 Zn 0.46724 0.11867 0.76267 0.0
Zn211 Zn 0.46672 0.11861 0.85744 0.0
O212 O 0.42538 0.07992 0.83989 0.0
O213 O 0.42522 0.07975 0.76352 0.0
O214 O 0.46652 0.11868 0.92807 0.0
O215 O 0.469 0.15927 0.76319 0.0
O216 O 0.46766 0.1585 0.83957 0.0
C217 C 0.41187 0.06775 0.80159 0.0
C218 C 0.51887 0.11672 0.8022 0.0
O219 O 0.50599 0.11703 0.84031 0.0
O220 O 0.50664 0.11711 0.76394 0.0
C221 C 0.44296 0.11569 0.94999 0.0
O222 O 0.41924 0.11284 0.92597 0.0
C223 C 0.46842 0.17154 0.80125 0.0
Zn224 Zn 0.28728 0.40021 0.76406 0.0
Zn225 Zn 0.29042 0.40332 0.8589 0.0
O226 O 0.29367 0.36559 0.84127 0.0
O227 O 0.28856 0.36085 0.76545 0.0
O228 O 0.29069 0.40352 0.92951 0.0
O229 O 0.24723 0.40058 0.76583 0.0
O230 O 0.25097 0.40394 0.84194 0.0
C231 C 0.29278 0.35146 0.80397 0.0
C232 C 0.34146 0.45521 0.80098 0.0
O233 O 0.32949 0.44344 0.8402 0.0
O234 O 0.32807 0.44122 0.76384 0.0
C235 C 0.31557 0.41081 0.95171 0.0
O236 O 0.34087 0.4179 0.92802 0.0
C237 C 0.23688 0.40316 0.80466 0.0
Zn238 Zn 0.85311 0.29179 0.7625 0.0
Zn239 Zn 0.85443 0.29265 0.85754 0.0
O240 O 0.90043 0.31672 0.83956 0.0
O241 O 0.90001 0.31633 0.76315 0.0
O242 O 0.85448 0.29197 0.92796 0.0
O243 O 0.83012 0.2453 0.76353 0.0
O244 O 0.83052 0.24675 0.83982 0.0
C245 C 0.91497 0.32459 0.801 0.0
C246 C 0.825 0.32419 0.8035 0.0
O247 O 0.833 0.31692 0.84121 0.0
O248 O 0.83014 0.31542 0.76495 0.0
C249 C 0.86416 0.31656 0.95175 0.0
O250 O 0.87453 0.34295 0.92983 0.0
C251 C 0.82295 0.23133 0.8021 0.0
Zn252 Zn 0.10509 0.46185 0.8436 0.0
Zn253 Zn 0.10649 0.46186 0.7484 0.0
O254 O 0.0618 0.42906 0.76431 0.0
O255 O 0.0596 0.42887 0.8406 0.0
O256 O 0.10708 0.46205 0.67786 0.0
O257 O 0.1366 0.44822 0.84354 0.0
O258 O 0.13738 0.4484 0.76714 0.0
C259 C 0.04654 0.41825 0.8018 0.0
C260 C 0.12156 0.52063 0.80387 0.0
O261 O 0.11778 0.50602 0.76595 0.0
O262 O 0.11804 0.50699 0.84228 0.0
C263 C 0.0949 0.43656 0.65577 0.0
O264 O 0.08302 0.4107 0.67955 0.0
C265 C 0.14648 0.44345 0.80581 0.0
Zn266 Zn 0.65821 0.06872 0.84204 0.0
Zn267 Zn 0.65856 0.07095 0.74675 0.0
O268 O 0.63727 0.02513 0.76246 0.0
O269 O 0.63832 0.02236 0.83852 0.0
O270 O 0.65921 0.07181 0.67643 0.0
O271 O 0.70477 0.09758 0.84206 0.0
O272 O 0.70382 0.09963 0.76586 0.0
C273 C 0.6304 0.00907 0.79937 0.0
C274 C 0.62111 0.09271 0.80245 0.0
O275 O 0.6308 0.08806 0.76413 0.0
O276 O 0.62951 0.08652 0.84051 0.0
C277 C 0.63343 0.05915 0.65463 0.0
O278 O 0.60744 0.04582 0.67874 0.0
C279 C 0.71884 0.10826 0.80394 0.0
Zn280 Zn 0.50063 0.63387 0.84133 0.0
Zn281 Zn 0.50085 0.6355 0.74639 0.0
O282 O 0.54377 0.64236 0.76375 0.0
O283 O 0.54502 0.64347 0.84007 0.0
O284 O 0.50143 0.63738 0.67599 0.0
O285 O 0.4911 0.66807 0.84247 0.0
O286 O 0.49229 0.66956 0.76613 0.0
C287 C 0.55825 0.64542 0.80165 0.0
C288 C 0.45351 0.57714 0.79888 0.0
O289 O 0.46484 0.59216 0.76139 0.0
O290 O 0.46508 0.58967 0.83763 0.0
C291 C 0.50268 0.61686 0.65173 0.0
O292 O 0.50378 0.59435 0.67317 0.0
C293 C 0.4886 0.67958 0.80485 0.0
Zn294 Zn 0.82776 0.49056 0.84607 0.0
Zn295 Zn 0.83086 0.49214 0.75106 0.0
O296 O 0.87502 0.52461 0.77031 0.0
O297 O 0.87336 0.52338 0.84669 0.0
O298 O 0.83191 0.49277 0.68056 0.0
O299 O 0.7964 0.50433 0.84322 0.0
O300 O 0.79961 0.50564 0.767 0.0
C301 C 0.8884 0.53457 0.80941 0.0
C302 C 0.81322 0.43244 0.80587 0.0
O303 O 0.81883 0.44769 0.76818 0.0
O304 O 0.81483 0.44543 0.84428 0.0
C305 C 0.83764 0.51726 0.65912 0.0
O306 O 0.84307 0.54159 0.68362 0.0
C307 C 0.78862 0.50997 0.80429 0.0
Zn308 Zn 0.2758 0.8854 0.84481 0.0
Zn309 Zn 0.27691 0.88385 0.74997 0.0
O310 O 0.29742 0.92936 0.76771 0.0
O311 O 0.29538 0.93174 0.8437 0.0
O312 O 0.2771 0.88451 0.67961 0.0
O313 O 0.22938 0.85626 0.84374 0.0
O314 O 0.23146 0.85422 0.76768 0.0
C315 C 0.30368 0.94523 0.80479 0.0
C316 C 0.31411 0.86227 0.80568 0.0
O317 O 0.30507 0.86707 0.76689 0.0
O318 O 0.30474 0.86795 0.84329 0.0
C319 C 0.30239 0.90242 0.65836 0.0
O320 O 0.32763 0.91962 0.68298 0.0
C321 C 0.21591 0.84534 0.80532 0.0
Zn322 Zn 0.43502 0.3192 0.84595 0.0
Zn323 Zn 0.43671 0.32195 0.75046 0.0
O324 O 0.39349 0.31425 0.76759 0.0
O325 O 0.39071 0.31 0.8437 0.0
O326 O 0.43776 0.32334 0.67994 0.0
O327 O 0.44426 0.28475 0.84274 0.0
O328 O 0.44479 0.28714 0.76644 0.0
C329 C 0.37827 0.30962 0.80521 0.0
C330 C 0.48299 0.37776 0.80901 0.0
O331 O 0.47229 0.36451 0.77005 0.0
O332 O 0.47081 0.36345 0.84642 0.0
C333 C 0.41704 0.30106 0.65595 0.0
O334 O 0.39463 0.27702 0.67771 0.0
C335 C 0.44756 0.27516 0.80372 0.0
C336 C 0.36763 0.02651 0.26632 0.0
C337 C 0.383 0.04144 0.3076 0.0
C338 C 0.34075 -0.00281 0.2671 0.0
C339 C 0.3282 -0.01849 0.30921 0.0
H340 H 0.37711 0.03689 0.23287 0.0
H341 H 0.33093 -0.01394 0.23417 0.0
S342 S 0.35622 0.01284 0.42749 0.0
N343 N 0.38116 0.04011 0.39219 0.0
N344 N 0.33064 -0.01501 0.39355 0.0
C345 C 0.34172 -0.0027 0.35092 0.0
C346 C 0.36915 0.02722 0.35015 0.0
C347 C 0.33977 0.31757 0.34546 0.0
C348 C 0.35085 0.31252 0.30341 0.0
C349 C 0.31806 0.32737 0.34575 0.0
C350 C 0.30687 0.33268 0.30396 0.0
H351 H 0.3499 0.31668 0.37826 0.0
H352 H 0.31255 0.33376 0.3788 0.0
S353 S 0.3204 0.3125 0.18575 0.0
N354 N 0.34287 0.30569 0.21979 0.0
N355 N 0.30227 0.32446 0.22041 0.0
C356 C 0.31398 0.32298 0.26229 0.0
C357 C 0.33601 0.31286 0.26199 0.0
C358 C -0.031 0.35847 0.34071 0.0
C359 C 0.95161 0.34946 0.29928 0.0
C360 C 0.00047 0.38155 0.341 0.0
C361 C 0.01595 0.3966 0.29988 0.0
H362 H 0.95813 0.34809 0.37354 0.0
H363 H 0.01262 0.38779 0.37397 0.0
S364 S -0.01858 0.3807 0.18157 0.0
N365 N 0.95255 0.35668 0.21559 0.0
N366 N 0.01173 0.40007 0.2161 0.0
C367 C -0.00089 0.38726 0.2579 0.0
C368 C -0.03302 0.36369 0.25761 0.0
C369 C 0.5668 0.9343 0.34645 0.0
C370 C 0.55566 0.91744 0.30488 0.0
C371 C 0.59355 0.96371 0.34701 0.0
C372 C 0.61025 0.97745 0.30599 0.0
H373 H 0.55394 0.92546 0.37855 0.0
H374 H 0.59997 0.97644 0.37942 0.0
S375 S 0.59451 0.94021 0.18985 0.0
N376 N 0.56605 0.91459 0.223 0.0
N377 N 0.61644 0.96989 0.22401 0.0
C378 C 0.60101 0.95965 0.265 0.0
C379 C 0.57365 0.92969 0.26442 0.0
C380 C 0.60145 0.64425 0.34474 0.0
C381 C 0.59069 0.6488 0.30206 0.0
C382 C 0.62315 0.63445 0.34629 0.0
C383 C 0.63464 0.62863 0.30519 0.0
H384 H 0.59112 0.64558 0.37711 0.0
H385 H 0.62841 0.62847 0.37982 0.0
S386 S 0.6218 0.64705 0.18556 0.0
N387 N 0.59915 0.65439 0.21841 0.0
N388 N 0.63973 0.63561 0.22146 0.0
C389 C 0.62778 0.63772 0.26282 0.0
C390 C 0.60577 0.64787 0.26121 0.0
C391 C -0.02965 0.59918 0.34512 0.0
C392 C -0.01238 0.60876 0.3036 0.0
C393 C 0.93886 0.57611 0.34526 0.0
C394 C 0.92326 0.56164 0.30389 0.0
H395 H -0.01867 0.6091 0.37811 0.0
H396 H 0.92681 0.56941 0.37828 0.0
S397 S 0.95745 0.57918 0.18529 0.0
N398 N -0.01358 0.60271 0.2196 0.0
N399 N 0.92725 0.55933 0.21982 0.0
C400 C 0.93999 0.57155 0.26186 0.0
C401 C -0.02788 0.59511 0.26172 0.0
C402 C 0.56825 0.92966 0.83883 0.0
C403 C 0.55315 0.91529 0.79711 0.0
C404 C 0.59503 0.95904 0.83897 0.0
C405 C 0.60776 0.97537 0.79739 0.0
H406 H 0.55865 0.91876 0.87196 0.0
H407 H 0.60467 0.96968 0.87225 0.0
S408 S 0.58037 0.94577 0.67817 0.0
N409 N 0.55537 0.9179 0.71261 0.0
N410 N 0.60569 0.97319 0.71294 0.0
C411 C 0.59448 0.96019 0.75518 0.0
C412 C 0.56715 0.93019 0.75502 0.0
C413 C 0.62137 0.6314 0.84387 0.0
C414 C 0.6321 0.62548 0.80216 0.0
C415 C 0.59973 0.64129 0.84352 0.0
C416 C 0.58807 0.6456 0.80146 0.0
H417 H 0.62726 0.62553 0.87701 0.0
H418 H 0.5901 0.6428 0.87647 0.0
S419 S 0.61703 0.64371 0.68352 0.0
N420 N 0.63575 0.6325 0.71824 0.0
N421 N 0.59484 0.6509 0.71765 0.0
C422 C 0.60233 0.64453 0.75991 0.0
C423 C 0.62451 0.63457 0.76027 0.0
C424 C 0.93716 0.57409 0.7699 0.0
C425 C 0.92155 0.55952 0.8112 0.0
C426 C -0.03135 0.59711 0.77011 0.0
C427 C -0.01406 0.60653 0.81162 0.0
H428 H 0.9251 0.5675 0.73688 0.0
H429 H -0.02037 0.60711 0.73717 0.0
S430 S 0.95576 0.57666 0.92976 0.0
N431 N 0.92554 0.55696 0.8952 0.0
N432 N -0.01525 0.60024 0.89555 0.0
C433 C -0.02956 0.59279 0.85344 0.0
C434 C 0.93829 0.56928 0.85323 0.0
C435 C 0.36746 0.02408 0.84375 0.0
C436 C 0.38109 0.03879 0.80151 0.0
C437 C 0.34055 -0.00523 0.8446 0.0
C438 C 0.32625 -0.02106 0.80323 0.0
H439 H 0.37836 0.0346 0.87653 0.0
H440 H 0.33211 -0.01625 0.878 0.0
S441 S 0.34924 0.00975 0.68359 0.0
N442 N 0.37567 0.03713 0.71728 0.0
N443 N 0.32511 -0.01794 0.719 0.0
C444 C 0.33802 -0.00548 0.76086 0.0
C445 C 0.36547 0.0244 0.75996 0.0
C446 C 0.3156 0.32458 0.8466 0.0
C447 C 0.30447 0.32959 0.80459 0.0
C448 C 0.33723 0.31469 0.84679 0.0
C449 C 0.34849 0.30947 0.80498 0.0
H450 H 0.30999 0.33115 0.87942 0.0
H451 H 0.34721 0.31394 0.8798 0.0
S452 S 0.31847 0.30875 0.68693 0.0
N453 N 0.30008 0.32075 0.72101 0.0
N454 N 0.34097 0.30232 0.72148 0.0
C455 C 0.33388 0.30966 0.76336 0.0
C456 C 0.31169 0.31961 0.76316 0.0
C457 C -0.0038 0.38327 0.84194 0.0
C458 C 0.01348 0.3931 0.80046 0.0
C459 C 0.96471 0.36026 0.84191 0.0
C460 C 0.94912 0.34608 0.80039 0.0
H461 H 0.00687 0.39378 0.87484 0.0
H462 H 0.95235 0.3542 0.8747 0.0
S463 S -0.01557 0.36143 0.68261 0.0
N464 N 0.01313 0.38545 0.71692 0.0
N465 N 0.95392 0.34212 0.71682 0.0
C466 C 0.96637 0.35487 0.75875 0.0
C467 C -0.00149 0.37839 0.75879 0.0
C468 C 0.46724 0.21658 0.33841 0.0
C469 C 0.46741 0.20204 0.29669 0.0
C470 C 0.46168 0.24118 0.3387 0.0
C471 C 0.45616 0.25237 0.29728 0.0
H472 H 0.47081 0.20857 0.37144 0.0
H473 H 0.46145 0.25127 0.37185 0.0
S474 S 0.45557 0.22335 0.17823 0.0
N475 N 0.46269 0.20138 0.21251 0.0
N476 N 0.45228 0.24769 0.21297 0.0
C477 C 0.45707 0.2386 0.25507 0.0
C478 C 0.46271 0.21347 0.25479 0.0
C479 C 0.18485 0.43304 0.26517 0.0
C480 C 0.17032 0.43392 0.30658 0.0
C481 C 0.20582 0.42234 0.26459 0.0
C482 C 0.21321 0.41214 0.30543 0.0
H483 H 0.18055 0.44127 0.23289 0.0
H484 H 0.21713 0.4232 0.23205 0.0
S485 S 0.17879 0.40626 0.42211 0.0
N486 N 0.16278 0.42115 0.38888 0.0
N487 N 0.20229 0.40106 0.38782 0.0
C488 C 0.19778 0.41153 0.34676 0.0
C489 C 0.17638 0.42246 0.34735 0.0
C490 C 0.76571 0.15443 0.26376 0.0
C491 C 0.75267 0.13819 0.30531 0.0
C492 C 0.79099 0.18475 0.26432 0.0
C493 C 0.80431 0.19996 0.30643 0.0
H494 H 0.7549 0.14466 0.23061 0.0
H495 H 0.79869 0.19694 0.23158 0.0
S496 S 0.78427 0.16454 0.42385 0.0
N497 N 0.75887 0.13726 0.38894 0.0
N498 N 0.80662 0.19426 0.3901 0.0
C499 C 0.79399 0.18265 0.34778 0.0
C500 C 0.76811 0.15174 0.34719 0.0
C501 C 0.4747 0.74415 0.34044 0.0
C502 C 0.47086 0.75684 0.29923 0.0
C503 C 0.48071 0.71984 0.33939 0.0
C504 C 0.48309 0.70719 0.29709 0.0
H505 H 0.47387 0.75352 0.37395 0.0
H506 H 0.48403 0.71132 0.37213 0.0
S507 S 0.47228 0.73037 0.17923 0.0
N508 N 0.46792 0.75365 0.21484 0.0
N509 N 0.47923 0.70796 0.2128 0.0
C510 C 0.4782 0.71892 0.25556 0.0
C511 C 0.47206 0.7437 0.25665 0.0
C512 C 0.73444 0.53742 0.26948 0.0
C513 C 0.72737 0.54774 0.31057 0.0
C514 C 0.75492 0.52614 0.26963 0.0
C515 C 0.76927 0.52475 0.31085 0.0
H516 H 0.7233 0.53701 0.237 0.0
H517 H 0.75901 0.51791 0.23713 0.0
S518 S 0.76143 0.55221 0.42706 0.0
N519 N 0.73835 0.5582 0.39312 0.0
N520 N 0.77693 0.53699 0.39334 0.0
C521 C 0.76349 0.53621 0.35193 0.0
C522 C 0.7426 0.54777 0.35178 0.0
C523 C 0.14914 0.77356 0.35122 0.0
C524 C 0.13467 0.75821 0.30967 0.0
C525 C 0.17429 0.80396 0.35086 0.0
C526 C 0.18594 0.82018 0.30893 0.0
H527 H 0.14252 0.7614 0.38407 0.0
H528 H 0.18604 0.81386 0.38342 0.0
S529 S 0.15077 0.79325 0.19215 0.0
N530 N 0.12974 0.76352 0.22664 0.0
N531 N 0.17701 0.82079 0.22589 0.0
C532 C 0.16923 0.80643 0.26784 0.0
C533 C 0.14363 0.77538 0.26822 0.0
C534 C 0.47829 0.71721 0.76387 0.0
C535 C 0.48129 0.70468 0.80582 0.0
C536 C 0.47239 0.74158 0.76352 0.0
C537 C 0.46932 0.75451 0.80511 0.0
H538 H 0.48093 0.70846 0.73083 0.0
H539 H 0.47098 0.75079 0.73022 0.0
S540 S 0.47296 0.72873 0.92455 0.0
N541 N 0.47912 0.70602 0.89029 0.0
N542 N 0.46802 0.75186 0.88955 0.0
C543 C 0.47127 0.7416 0.8474 0.0
C544 C 0.47729 0.71672 0.84777 0.0
C545 C 0.73247 0.53526 0.84365 0.0
C546 C 0.7251 0.54497 0.80228 0.0
C547 C 0.75313 0.52421 0.84383 0.0
C548 C 0.76739 0.52245 0.80269 0.0
H549 H 0.72139 0.53512 0.87609 0.0
H550 H 0.75744 0.51643 0.87654 0.0
S551 S 0.75881 0.5484 0.68581 0.0
N552 N 0.7357 0.55453 0.71954 0.0
N553 N 0.77465 0.53377 0.71992 0.0
C554 C 0.76132 0.53335 0.76132 0.0
C555 C 0.74022 0.54465 0.76113 0.0
C556 C 0.172 0.80158 0.76294 0.0
C557 C 0.18403 0.81785 0.80478 0.0
C558 C 0.1469 0.77116 0.76284 0.0
C559 C 0.13286 0.75584 0.80457 0.0
H560 H 0.18344 0.81146 0.73019 0.0
H561 H 0.13999 0.75897 0.72999 0.0
S562 S 0.14998 0.79102 0.92215 0.0
N563 N 0.17587 0.81854 0.88809 0.0
N564 N 0.12868 0.76124 0.88782 0.0
C565 C 0.14216 0.77306 0.84602 0.0
C566 C 0.16772 0.80414 0.84613 0.0
C567 C 0.45517 0.23534 0.84329 0.0
C568 C 0.45461 0.24991 0.8019 0.0
C569 C 0.46071 0.21072 0.84283 0.0
C570 C 0.46593 0.19966 0.80097 0.0
H571 H 0.45079 0.24259 0.87646 0.0
H572 H 0.46015 0.19988 0.87559 0.0
S573 S 0.46928 0.23134 0.68313 0.0
N574 N 0.46145 0.25259 0.71801 0.0
N575 N 0.47198 0.20636 0.71707 0.0
C576 C 0.46646 0.21467 0.75937 0.0
C577 C 0.46074 0.23974 0.75985 0.0
C578 C 0.18007 0.4273 0.76476 0.0
C579 C 0.16804 0.43131 0.80664 0.0
C580 C 0.2011 0.41666 0.76441 0.0
C581 C 0.21106 0.40965 0.80594 0.0
H582 H 0.17369 0.43294 0.73185 0.0
H583 H 0.21036 0.41495 0.73124 0.0
S584 S 0.18407 0.41302 0.9248 0.0
N585 N 0.16584 0.42511 0.89074 0.0
N586 N 0.20543 0.40516 0.88994 0.0
C587 C 0.19822 0.41226 0.848 0.0
C588 C 0.17676 0.42311 0.84839 0.0
C589 C 0.78791 0.18269 0.84527 0.0
C590 C 0.80223 0.19728 0.80327 0.0
C591 C 0.76272 0.1523 0.84582 0.0
C592 C 0.75084 0.13543 0.80437 0.0
H593 H 0.79465 0.19544 0.87765 0.0
H594 H 0.751 0.14303 0.8786 0.0
S595 S 0.78565 0.16 0.68712 0.0
N596 N 0.80694 0.19032 0.72055 0.0
N597 N 0.75938 0.1332 0.72166 0.0
C598 C 0.7674 0.14836 0.76301 0.0
C599 C 0.79314 0.17932 0.76244 0.0
C600 C 0.46846 0.12002 0.07602 0.0
C601 C 0.44247 0.11582 0.10159 0.0
C602 C 0.46839 0.1199 1.02725 0.0
C603 C 0.44231 0.11551 1.0018 0.0
H604 H 0.48921 0.12364 0.09376 0.0
H605 H 0.48908 0.12339 1.00943 0.0
S606 S 0.36781 0.10248 1.05191 0.0
N607 N 0.38959 0.10649 0.09747 0.0
N608 N 0.38943 0.10621 1.00623 0.0
C609 C 0.41604 0.11102 1.02693 0.0
C610 C 0.41613 0.11119 0.07661 0.0
C611 C 0.28791 0.39942 1.02863 0.0
C612 C 0.31593 0.41103 1.00348 0.0
C613 C 0.28759 0.39905 0.07741 0.0
C614 C 0.31528 0.41024 0.10321 0.0
H615 H 0.2659 0.39031 1.01055 0.0
H616 H 0.26537 0.38968 0.09496 0.0
S617 S 0.39518 0.44474 0.05441 0.0
N618 N 0.37233 0.43509 1.00848 0.0
N619 N 0.37173 0.4344 0.09972 0.0
C620 C 0.34352 0.42228 0.07854 0.0
C621 C 0.34385 0.42267 1.02889 0.0
C622 C 0.87558 0.34349 1.02877 0.0
C623 C 0.86388 0.31574 1.00349 0.0
C624 C 0.87582 0.34373 0.07745 0.0
C625 C 0.86429 0.31622 0.10321 0.0
H626 H 0.88475 0.36539 1.01091 0.0
H627 H 0.88515 0.3658 0.09494 0.0
S628 S 0.83095 0.23713 0.05403 0.0
N629 N 0.84037 0.25983 1.00816 0.0
N630 N 0.84076 0.26027 0.0995 0.0
C631 C 0.85243 0.28822 0.07844 0.0
C632 C 0.85224 0.28798 1.02873 0.0
C633 C 0.46052 0.87659 0.07636 0.0
C634 C 0.466 0.85601 0.10212 0.0
C635 C 0.46041 0.87629 1.0277 0.0
C636 C 0.46579 0.85541 1.00248 0.0
H637 H 0.45623 0.89318 0.09384 0.0
H638 H 0.45604 0.89266 1.00979 0.0
S639 S 0.48116 0.79639 1.05307 0.0
N640 N 0.47683 0.81392 0.0985 0.0
N641 N 0.47663 0.81336 1.00719 0.0
C642 C 0.47125 0.8346 1.02773 0.0
C643 C 0.47135 0.8349 0.07741 0.0
C644 C 0.60539 0.55311 0.08113 0.0
C645 C 0.63077 0.55568 0.10646 0.0
C646 C 0.6051 0.55273 1.03246 0.0
C647 C 0.63021 0.555 1.0067 0.0
H648 H 0.58535 0.5512 0.09897 0.0
H649 H 0.58485 0.55057 1.01498 0.0
S650 S 0.70275 0.56276 0.05597 0.0
N651 N 0.68201 0.56092 0.10183 0.0
N652 N 0.6815 0.56028 1.01046 0.0
C653 C 0.65591 0.55781 1.0315 0.0
C654 C 0.65617 0.55813 0.08123 0.0
C655 C 0.05637 0.61241 1.03365 0.0
C656 C 0.07151 0.63999 1.00775 0.0
C657 C 0.0566 0.61274 0.0823 0.0
C658 C 0.07199 0.64067 0.10743 0.0
H659 H 0.04411 0.5902 1.01629 0.0
H660 H 0.04451 0.59077 0.10028 0.0
S661 S 0.1152 0.71957 0.05649 0.0
N662 N 0.10237 0.69623 1.01114 0.0
N663 N 0.10281 0.69686 0.10248 0.0
C664 C 0.08727 0.66852 0.08205 0.0
C665 C 0.08703 0.66818 1.03235 0.0
C666 C 0.83318 0.49237 0.58145 0.0
C667 C 0.83803 0.51827 0.60736 0.0
C668 C 0.83336 0.49267 0.53269 0.0
C669 C 0.8384 0.51889 0.50759 0.0
H670 H 0.82921 0.47157 0.59889 0.0
H671 H 0.82952 0.47209 0.51461 0.0
S672 S 0.85194 0.59277 0.55862 0.0
N673 N 0.8478 0.57092 0.60391 0.0
N674 N 0.84815 0.57149 0.51267 0.0
C675 C 0.84323 0.54496 0.53304 0.0
C676 C 0.84304 0.54465 0.58272 0.0
C677 C 0.27698 0.88302 0.58062 0.0
C678 C 0.30342 0.90366 0.60668 0.0
C679 C 0.27739 0.88343 0.53189 0.0
C680 C 0.30424 0.90451 0.50701 0.0
H681 H 0.25574 0.86619 0.59791 0.0
H682 H 0.25643 0.8669 0.51367 0.0
S683 S 0.37942 0.96438 0.55854 0.0
N684 N 0.35708 0.94644 0.60367 0.0
N685 N 0.35783 0.9472 0.51242 0.0
C686 C 0.33078 0.92552 0.53261 0.0
C687 C 0.33037 0.9251 0.58227 0.0
C688 C 0.39354 0.27765 0.57881 0.0
C689 C 0.41788 0.30188 0.60419 0.0
C690 C 0.39343 0.27749 0.53012 0.0
C691 C 0.41768 0.30154 0.50441 0.0
H692 H 0.37422 0.2585 0.5966 0.0
H693 H 0.37404 0.25823 0.51258 0.0
S694 S 0.48718 0.37057 0.55383 0.0
N695 N 0.4671 0.35071 0.59965 0.0
N696 N 0.46692 0.35042 0.50829 0.0
C697 C 0.44226 0.32598 0.52927 0.0
C698 C 0.44235 0.32615 0.579 0.0
C699 C 0.11042 0.46374 0.57868 0.0
C700 C 0.09399 0.43601 0.60404 0.0
C701 C 0.11011 0.46383 0.52993 0.0
C702 C 0.09337 0.4362 0.50434 0.0
H703 H 0.12386 0.48565 0.59656 0.0
H704 H 0.12335 0.4858 0.51222 0.0
S705 S 0.045 0.35739 0.55392 0.0
N706 N 0.05949 0.38019 0.59962 0.0
N707 N 0.05896 0.38035 0.50837 0.0
C708 C 0.07651 0.40832 0.52926 0.0
C709 C 0.0768 0.40823 0.57892 0.0
C710 C 0.6606 0.07163 0.52865 0.0
C711 C 0.63267 0.05974 0.50324 0.0
C712 C 0.66062 0.07142 0.57739 0.0
C713 C 0.63271 0.05931 0.60292 0.0
H714 H 0.68273 0.0811 0.51082 0.0
H715 H 0.68277 0.08073 0.59511 0.0
S716 S 0.55319 0.02622 0.5533 0.0
N717 N 0.57628 0.03607 0.50762 0.0
N718 N 0.57633 0.03567 0.59885 0.0
C719 C 0.60461 0.04756 0.57798 0.0
C720 C 0.60458 0.04777 0.52833 0.0
C721 C 0.50411 0.59489 0.5256 0.0
C722 C 0.50309 0.61831 0.50027 0.0
C723 C 0.50397 0.59471 0.57428 0.0
C724 C 0.5028 0.61797 0.60001 0.0
H725 H 0.50503 0.57636 0.50778 0.0
H726 H 0.50477 0.57606 0.59178 0.0
S727 S 0.49983 0.68478 0.5507 0.0
N728 N 0.50086 0.66557 0.50486 0.0
N729 N 0.5006 0.66525 0.59622 0.0
C730 C 0.50175 0.6416 0.5752 0.0
C731 C 0.50189 0.64177 0.52548 0.0
C732 C 0.56054 0.11183 0.34114 0.0
C733 C 0.54842 0.11556 0.29912 0.0
C734 C 0.58524 0.10614 0.34169 0.0
C735 C 0.59897 0.10398 0.30026 0.0
H736 H 0.55037 0.11243 0.37407 0.0
H737 H 0.59297 0.10254 0.37499 0.0
S738 S 0.57819 0.11534 0.18099 0.0
N739 N 0.55368 0.11911 0.21501 0.0
N740 N 0.60019 0.10849 0.21598 0.0
C741 C 0.58807 0.1091 0.258 0.0
C742 C 0.5628 0.11485 0.25744 0.0
C743 C 0.41309 0.53446 0.33942 0.0
C744 C 0.42866 0.54823 0.29771 0.0
C745 C 0.38602 0.50526 0.33976 0.0
C746 C 0.37333 0.48858 0.29839 0.0
H747 H 0.42154 0.54647 0.37219 0.0
H748 H 0.37474 0.49596 0.37279 0.0
S749 S 0.40623 0.51329 0.17995 0.0
N750 N 0.43014 0.54219 0.21393 0.0
N751 N 0.37928 0.48737 0.21465 0.0
C752 C 0.38904 0.50171 0.25647 0.0
C753 C 0.41668 0.53148 0.25611 0.0
C754 C 0.81291 0.38992 0.26627 0.0
C755 C 0.81086 0.40312 0.30831 0.0
C756 C 0.81578 0.36362 0.26578 0.0
C757 C 0.81666 0.34937 0.30731 0.0
H758 H 0.81422 0.40097 0.23341 0.0
H759 H 0.81925 0.35562 0.23261 0.0
S760 S 0.80496 0.37067 0.42608 0.0
N761 N 0.8047 0.39696 0.39209 0.0
N762 N 0.80994 0.34739 0.39126 0.0
C763 C 0.81144 0.36046 0.34932 0.0
C764 C 0.8086 0.38736 0.3498 0.0
C765 C 0.37805 0.84719 0.34466 0.0
C766 C 0.39027 0.84366 0.30256 0.0
C767 C 0.35338 0.85293 0.34536 0.0
C768 C 0.33981 0.85538 0.30398 0.0
H769 H 0.3881 0.84634 0.37754 0.0
H770 H 0.34553 0.85633 0.37873 0.0
S771 S 0.36106 0.84487 0.18443 0.0
N772 N 0.38536 0.84075 0.21835 0.0
N773 N 0.33896 0.85151 0.21961 0.0
C774 C 0.35085 0.85053 0.26161 0.0
C775 C 0.37606 0.8447 0.26091 0.0
C776 C 0.55399 0.45768 0.26665 0.0
C777 C 0.56822 0.47245 0.30862 0.0
C778 C 0.52711 0.42837 0.26618 0.0
C779 C 0.51326 0.41247 0.30765 0.0
H780 H 0.5638 0.46867 0.23365 0.0
H781 H 0.51739 0.41799 0.23281 0.0
S782 S 0.54058 0.44134 0.42721 0.0
N783 N 0.56585 0.46924 0.39307 0.0
N784 N 0.51532 0.41413 0.39212 0.0
C785 C 0.52687 0.42716 0.35001 0.0
C786 C 0.5543 0.45711 0.35051 0.0
C787 C 0.12394 0.59522 0.26754 0.0
C788 C 0.1226 0.60883 0.30955 0.0
C789 C 0.1268 0.56892 0.26712 0.0
C790 C 0.12839 0.55507 0.30869 0.0
H791 H 0.12085 0.60374 0.23463 0.0
H792 H 0.12585 0.55838 0.23387 0.0
S793 S 0.13297 0.5857 0.42761 0.0
N794 N 0.12838 0.6095 0.39358 0.0
N795 N 0.13363 0.55994 0.39272 0.0
C796 C 0.13021 0.5702 0.35075 0.0
C797 C 0.12737 0.59711 0.35119 0.0
C798 C 0.37485 0.84359 0.7642 0.0
C799 C 0.38788 0.84052 0.80572 0.0
C800 C 0.35026 0.84944 0.76462 0.0
C801 C 0.33758 0.85244 0.8066 0.0
H802 H 0.38423 0.84235 0.73087 0.0
H803 H 0.34179 0.8525 0.73161 0.0
S804 S 0.36109 0.84314 0.92512 0.0
N805 N 0.38463 0.83852 0.89011 0.0
N806 N 0.33836 0.84949 0.89096 0.0
C807 C 0.34939 0.84798 0.84845 0.0
C808 C 0.37452 0.84204 0.848 0.0
C809 C 0.55242 0.45349 0.76903 0.0
C810 C 0.56557 0.46941 0.81079 0.0
C811 C 0.5255 0.42421 0.76887 0.0
C812 C 0.5105 0.40953 0.81047 0.0
H813 H 0.5632 0.46347 0.73597 0.0
H814 H 0.5167 0.41287 0.73573 0.0
S815 S 0.5344 0.44203 0.92934 0.0
N816 N 0.56077 0.46882 0.89495 0.0
N817 N 0.51013 0.41377 0.89472 0.0
C818 C 0.52296 0.42545 0.85254 0.0
C819 C 0.55047 0.45535 0.85269 0.0
C820 C 0.12091 0.5917 0.8459 0.0
C821 C 0.12063 0.60622 0.80433 0.0
C822 C 0.12351 0.56525 0.84555 0.0
C823 C 0.12591 0.55217 0.8036 0.0
H824 H 0.11717 0.5996 0.87897 0.0
H825 H 0.12176 0.55401 0.8784 0.0
S826 S 0.13339 0.58532 0.68593 0.0
N827 N 0.12827 0.60857 0.72057 0.0
N828 N 0.13305 0.55873 0.71995 0.0
C829 C 0.1288 0.5682 0.76213 0.0
C830 C 0.1262 0.59525 0.76249 0.0
C831 C 0.58162 0.10083 0.84359 0.0
C832 C 0.59781 0.10273 0.80249 0.0
C833 C 0.55684 0.10647 0.84352 0.0
C834 C 0.54725 0.11422 0.80235 0.0
H835 H 0.58733 0.09387 0.87591 0.0
H836 H 0.54448 0.10368 0.87576 0.0
S837 S 0.58462 0.12624 0.68651 0.0
N838 N 0.60439 0.11583 0.72033 0.0
N839 N 0.55793 0.12647 0.72015 0.0
C840 C 0.56433 0.11783 0.76146 0.0
C841 C 0.58956 0.11208 0.76155 0.0
C842 C 0.38518 0.50112 0.84038 0.0
C843 C 0.37077 0.48562 0.79892 0.0
C844 C 0.41216 0.53035 0.83984 0.0
C845 C 0.42594 0.54542 0.79782 0.0
H846 H 0.37541 0.49082 0.87375 0.0
H847 H 0.42196 0.54134 0.87286 0.0
S848 S 0.39842 0.51422 0.67932 0.0
N849 N 0.37305 0.4871 0.71439 0.0
N850 N 0.4238 0.54208 0.71346 0.0
C851 C 0.41222 0.52995 0.75599 0.0
C852 C 0.38467 0.50008 0.75652 0.0
C853 C 0.81504 0.36218 0.76266 0.0
C854 C 0.81449 0.34703 0.80406 0.0
C855 C 0.81238 0.38862 0.76324 0.0
C856 C 0.80895 0.40093 0.80523 0.0
H857 H 0.81954 0.35483 0.72967 0.0
H858 H 0.81485 0.40042 0.73069 0.0
S859 S 0.79925 0.36594 0.92217 0.0
N860 N 0.80526 0.34336 0.88736 0.0
N861 N 0.80005 0.39293 0.88856 0.0
C862 C 0.80524 0.38421 0.84638 0.0
C863 C 0.80806 0.35731 0.84577 0.0
loop_
_geom_bond_atom_site_label_1
_geom_bond_atom_site_label_2
_geom_bond_distance
_geom_bond_site_symmetry_2
_ccdc_geom_bond_type
Zn0 O3 2.031 . S
Zn0 O5 2.049 . S
Zn0 O10 2.067 . S
Zn1 O2 1.962 . S
Zn1 O4 1.986 . S
Zn1 O6 1.996 . S
Zn1 O9 1.943 . S
O2 Zn1 1.962 . S
O2 C7 1.254 . S
O3 Zn0 2.031 . S
O3 C7 1.269 . S
O4 Zn1 1.986 . S
O4 C11 1.262 . S
O5 Zn0 2.049 . S
O5 C13 1.260 . S
O6 Zn1 1.996 . S
O6 C13 1.257 . S
C7 O2 1.254 . S
C7 O3 1.269 . S
C8 O9 1.249 . S
C8 O10 1.270 . S
O9 Zn1 1.943 . S
O9 C8 1.249 . S
O10 Zn0 2.067 . S
O10 C8 1.270 . S
C11 O4 1.262 . S
C11 O12 1.232 . S
O12 C11 1.232 . S
C13 O5 1.260 . S
C13 O6 1.257 . S
Zn14 O17 2.031 . S
Zn14 O19 2.049 . S
Zn14 O24 2.067 . S
Zn15 O16 1.962 . S
Zn15 O18 1.986 . S
Zn15 O20 1.996 . S
Zn15 O23 1.943 . S
O16 Zn15 1.962 . S
O16 C21 1.254 . S
O17 Zn14 2.031 . S
O17 C21 1.269 . S
O18 Zn15 1.986 . S
O18 C25 1.262 . S
O19 Zn14 2.049 . S
O19 C27 1.260 . S
O20 Zn15 1.996 . S
O20 C27 1.257 . S
C21 O16 1.254 . S
C21 O17 1.269 . S
C22 O23 1.249 . S
C22 O24 1.270 . S
O23 Zn15 1.943 . S
O23 C22 1.249 . S
O24 Zn14 2.067 . S
O24 C22 1.270 . S
C25 O18 1.262 . S
C25 O26 1.232 . S
O26 C25 1.232 . S
C27 O19 1.260 . S
C27 O20 1.257 . S
Zn28 O31 2.031 . S
Zn28 O33 2.049 . S
Zn28 O38 2.067 . S
Zn29 O30 1.962 . S
Zn29 O32 1.986 . S
Zn29 O34 1.996 . S
Zn29 O37 1.943 . S
O30 Zn29 1.962 . S
O30 C35 1.254 . S
O31 Zn28 2.031 . S
O31 C35 1.269 . S
O32 Zn29 1.986 . S
O32 C39 1.262 . S
O33 Zn28 2.049 . S
O33 C41 1.260 . S
O34 Zn29 1.996 . S
O34 C41 1.257 . S
C35 O30 1.254 . S
C35 O31 1.269 . S
C36 O37 1.249 . S
C36 O38 1.270 . S
O37 Zn29 1.943 . S
O37 C36 1.249 . S
O38 Zn28 2.067 . S
O38 C36 1.270 . S
C39 O32 1.262 . S
C39 O40 1.232 . S
O40 C39 1.232 . S
C41 O33 1.260 . S
C41 O34 1.257 . S
Zn42 O45 2.031 . S
Zn42 O47 2.049 . S
Zn42 O52 2.067 . S
Zn43 O44 1.962 . S
Zn43 O46 1.986 . S
Zn43 O48 1.996 . S
Zn43 O51 1.943 . S
O44 Zn43 1.962 . S
O44 C49 1.254 . S
O45 Zn42 2.031 . S
O45 C49 1.269 . S
O46 Zn43 1.986 . S
O46 C53 1.262 . S
O47 Zn42 2.049 . S
O47 C55 1.260 . S
O48 Zn43 1.996 . S
O48 C55 1.257 . S
C49 O44 1.254 . S
C49 O45 1.269 . S
C50 O51 1.249 . S
C50 O52 1.270 . S
O51 Zn43 1.943 . S
O51 C50 1.249 . S
O52 Zn42 2.067 . S
O52 C50 1.270 . S
C53 O46 1.262 . S
C53 O54 1.232 . S
O54 C53 1.232 . S
C55 O47 1.260 . S
C55 O48 1.257 . S
Zn56 O59 2.031 . S
Zn56 O61 2.049 . S
Zn56 O66 2.067 . S
Zn57 O58 1.962 . S
Zn57 O60 1.986 . S
Zn57 O62 1.996 . S
Zn57 O65 1.943 . S
O58 Zn57 1.962 . S
O58 C63 1.254 . S
O59 Zn56 2.031 . S
O59 C63 1.269 . S
O60 Zn57 1.986 . S
O60 C67 1.262 . S
O61 Zn56 2.049 . S
O61 C69 1.260 . S
O62 Zn57 1.996 . S
O62 C69 1.257 . S
C63 O58 1.254 . S
C63 O59 1.269 . S
C64 O65 1.249 . S
C64 O66 1.270 . S
O65 Zn57 1.943 . S
O65 C64 1.249 . S
O66 Zn56 2.067 . S
O66 C64 1.270 . S
C67 O60 1.262 . S
C67 O68 1.232 . S
O68 C67 1.232 . S
C69 O61 1.260 . S
C69 O62 1.257 . S
Zn70 O73 2.031 . S
Zn70 O75 2.049 . S
Zn70 O80 2.067 . S
Zn71 O72 1.962 . S
Zn71 O74 1.986 . S
Zn71 O76 1.996 . S
Zn71 O79 1.943 . S
O72 Zn71 1.962 . S
O72 C77 1.254 . S
O73 Zn70 2.031 . S
O73 C77 1.269 . S
O74 Zn71 1.986 . S
O74 C81 1.262 . S
O75 Zn70 2.049 . S
O75 C83 1.260 . S
O76 Zn71 1.996 . S
O76 C83 1.257 . S
C77 O72 1.254 . S
C77 O73 1.269 . S
C78 O79 1.249 . S
C78 O80 1.270 . S
O79 Zn71 1.943 . S
O79 C78 1.249 . S
O80 Zn70 2.067 . S
O80 C78 1.270 . S
C81 O74 1.262 . S
C81 O82 1.232 . S
O82 C81 1.232 . S
C83 O75 1.260 . S
C83 O76 1.257 . S
Zn84 O87 2.031 . S
Zn84 O89 2.049 . S
Zn84 O94 2.067 . S
Zn85 O86 1.962 . S
Zn85 O88 1.986 . S
Zn85 O90 1.996 . S
Zn85 O93 1.943 . S
O86 Zn85 1.962 . S
O86 C91 1.254 . S
O87 Zn84 2.031 . S
O87 C91 1.269 . S
O88 Zn85 1.986 . S
O88 C95 1.262 . S
O89 Zn84 2.049 . S
O89 C97 1.260 . S
O90 Zn85 1.996 . S
O90 C97 1.257 . S
C91 O86 1.254 . S
C91 O87 1.269 . S
C92 O93 1.249 . S
C92 O94 1.270 . S
O93 Zn85 1.943 . S
O93 C92 1.249 . S
O94 Zn84 2.067 . S
O94 C92 1.270 . S
C95 O88 1.262 . S
C95 O96 1.232 . S
O96 C95 1.232 . S
C97 O89 1.260 . S
C97 O90 1.257 . S
Zn98 O101 2.031 . S
Zn98 O103 2.049 . S
Zn98 O108 2.067 . S
Zn99 O100 1.962 . S
Zn99 O102 1.986 . S
Zn99 O104 1.996 . S
Zn99 O107 1.943 . S
O100 Zn99 1.962 . S
O100 C105 1.254 . S
O101 Zn98 2.031 . S
O101 C105 1.269 . S
O102 Zn99 1.986 . S
O102 C109 1.262 . S
O103 Zn98 2.049 . S
O103 C111 1.260 . S
O104 Zn99 1.996 . S
O104 C111 1.257 . S
C105 O100 1.254 . S
C105 O101 1.269 . S
C106 O107 1.249 . S
C106 O108 1.270 . S
O107 Zn99 1.943 . S
O107 C106 1.249 . S
O108 Zn98 2.067 . S
O108 C106 1.270 . S
C109 O102 1.262 . S
C109 O110 1.232 . S
O110 C109 1.232 . S
C111 O103 1.260 . S
C111 O104 1.257 . S
Zn112 O115 2.031 . S
Zn112 O117 2.049 . S
Zn112 O122 2.067 . S
Zn113 O114 1.962 . S
Zn113 O116 1.986 . S
Zn113 O118 1.996 . S
Zn113 O121 1.943 . S
O114 Zn113 1.962 . S
O114 C119 1.254 . S
O115 Zn112 2.031 . S
O115 C119 1.269 . S
O116 Zn113 1.986 . S
O116 C123 1.262 . S
O117 Zn112 2.049 . S
O117 C125 1.260 . S
O118 Zn113 1.996 . S
O118 C125 1.257 . S
C119 O114 1.254 . S
C119 O115 1.269 . S
C120 O121 1.249 . S
C120 O122 1.270 . S
O121 Zn113 1.943 . S
O121 C120 1.249 . S
O122 Zn112 2.067 . S
O122 C120 1.270 . S
C123 O116 1.262 . S
C123 O124 1.232 . S
O124 C123 1.232 . S
C125 O117 1.260 . S
C125 O118 1.257 . S
Zn126 O129 2.031 . S
Zn126 O131 2.049 . S
Zn126 O136 2.067 . S
Zn127 O128 1.962 . S
Zn127 O130 1.986 . S
Zn127 O132 1.996 . S
Zn127 O135 1.943 . S
O128 Zn127 1.962 . S
O128 C133 1.254 . S
O129 Zn126 2.031 . S
O129 C133 1.269 . S
O130 Zn127 1.986 . S
O130 C137 1.262 . S
O131 Zn126 2.049 . S
O131 C139 1.260 . S
O132 Zn127 1.996 . S
O132 C139 1.257 . S
C133 O128 1.254 . S
C133 O129 1.269 . S
C134 O135 1.249 . S
C134 O136 1.270 . S
O135 Zn127 1.943 . S
O135 C134 1.249 . S
O136 Zn126 2.067 . S
O136 C134 1.270 . S
C137 O130 1.262 . S
C137 O138 1.232 . S
O138 C137 1.232 . S
C139 O131 1.260 . S
C139 O132 1.257 . S
Zn140 O143 2.031 . S
Zn140 O145 2.049 . S
Zn140 O150 2.067 . S
Zn141 O142 1.962 . S
Zn141 O144 1.986 . S
Zn141 O146 1.996 . S
Zn141 O149 1.943 . S
O142 Zn141 1.962 . S
O142 C147 1.254 . S
O143 Zn140 2.031 . S
O143 C147 1.269 . S
O144 Zn141 1.986 . S
O144 C151 1.262 . S
O145 Zn140 2.049 . S
O145 C153 1.260 . S
O146 Zn141 1.996 . S
O146 C153 1.257 . S
C147 O142 1.254 . S
C147 O143 1.269 . S
C148 O149 1.249 . S
C148 O150 1.270 . S
O149 Zn141 1.943 . S
O149 C148 1.249 . S
O150 Zn140 2.067 . S
O150 C148 1.270 . S
C151 O144 1.262 . S
C151 O152 1.232 . S
O152 C151 1.232 . S
C153 O145 1.260 . S
C153 O146 1.257 . S
Zn154 O157 2.031 . S
Zn154 O159 2.049 . S
Zn154 O164 2.067 . S
Zn155 O156 1.962 . S
Zn155 O158 1.986 . S
Zn155 O160 1.996 . S
Zn155 O163 1.943 . S
O156 Zn155 1.962 . S
O156 C161 1.254 . S
O157 Zn154 2.031 . S
O157 C161 1.269 . S
O158 Zn155 1.986 . S
O158 C165 1.262 . S
O159 Zn154 2.049 . S
O159 C167 1.260 . S
O160 Zn155 1.996 . S
O160 C167 1.257 . S
C161 O156 1.254 . S
C161 O157 1.269 . S
C162 O163 1.249 . S
C162 O164 1.270 . S
O163 Zn155 1.943 . S
O163 C162 1.249 . S
O164 Zn154 2.067 . S
O164 C162 1.270 . S
C165 O158 1.262 . S
C165 O166 1.232 . S
O166 C165 1.232 . S
C167 O159 1.260 . S
C167 O160 1.257 . S
Zn168 O171 2.031 . S
Zn168 O173 2.049 . S
Zn168 O178 2.067 . S
Zn169 O170 1.962 . S
Zn169 O172 1.986 . S
Zn169 O174 1.996 . S
Zn169 O177 1.943 . S
O170 Zn169 1.962 . S
O170 C175 1.254 . S
O171 Zn168 2.031 . S
O171 C175 1.269 . S
O172 Zn169 1.986 . S
O172 C179 1.262 . S
O173 Zn168 2.049 . S
O173 C181 1.260 . S
O174 Zn169 1.996 . S
O174 C181 1.257 . S
C175 O170 1.254 . S
C175 O171 1.269 . S
C176 O177 1.249 . S
C176 O178 1.270 . S
O177 Zn169 1.943 . S
O177 C176 1.249 . S
O178 Zn168 2.067 . S
O178 C176 1.270 . S
C179 O172 1.262 . S
C179 O180 1.232 . S
O180 C179 1.232 . S
C181 O173 1.260 . S
C181 O174 1.257 . S
Zn182 O185 2.031 . S
Zn182 O187 2.049 . S
Zn182 O192 2.067 . S
Zn183 O184 1.962 . S
Zn183 O186 1.986 . S
Zn183 O188 1.996 . S
Zn183 O191 1.943 . S
O184 Zn183 1.962 . S
O184 C189 1.254 . S
O185 Zn182 2.031 . S
O185 C189 1.269 . S
O186 Zn183 1.986 . S
O186 C193 1.262 . S
O187 Zn182 2.049 . S
O187 C195 1.260 . S
O188 Zn183 1.996 . S
O188 C195 1.257 . S
C189 O184 1.254 . S
C189 O185 1.269 . S
C190 O191 1.249 . S
C190 O192 1.270 . S
O191 Zn183 1.943 . S
O191 C190 1.249 . S
O192 Zn182 2.067 . S
O192 C190 1.270 . S
C193 O186 1.262 . S
C193 O194 1.232 . S
O194 C193 1.232 . S
C195 O187 1.260 . S
C195 O188 1.257 . S
Zn196 O199 2.031 . S
Zn196 O201 2.049 . S
Zn196 O206 2.067 . S
Zn197 O198 1.962 . S
Zn197 O200 1.986 . S
Zn197 O202 1.996 . S
Zn197 O205 1.943 . S
O198 Zn197 1.962 . S
O198 C203 1.254 . S
O199 Zn196 2.031 . S
O199 C203 1.269 . S
O200 Zn197 1.986 . S
O200 C207 1.262 . S
O201 Zn196 2.049 . S
O201 C209 1.260 . S
O202 Zn197 1.996 . S
O202 C209 1.257 . S
C203 O198 1.254 . S
C203 O199 1.269 . S
C204 O205 1.249 . S
C204 O206 1.270 . S
O205 Zn197 1.943 . S
O205 C204 1.249 . S
O206 Zn196 2.067 . S
O206 C204 1.270 . S
C207 O200 1.262 . S
C207 O208 1.232 . S
O208 C207 1.232 . S
C209 O201 1.260 . S
C209 O202 1.257 . S
Zn210 O213 2.031 . S
Zn210 O215 2.049 . S
Zn210 O220 2.067 . S
Zn211 O212 1.962 . S
Zn211 O214 1.986 . S
Zn211 O216 1.996 . S
Zn211 O219 1.943 . S
O212 Zn211 1.962 . S
O212 C217 1.254 . S
O213 Zn210 2.031 . S
O213 C217 1.269 . S
O214 Zn211 1.986 . S
O214 C221 1.262 . S
O215 Zn210 2.049 . S
O215 C223 1.260 . S
O216 Zn211 1.996 . S
O216 C223 1.257 . S
C217 O212 1.254 . S
C217 O213 1.269 . S
C218 O219 1.249 . S
C218 O220 1.270 . S
O219 Zn211 1.943 . S
O219 C218 1.249 . S
O220 Zn210 2.067 . S
O220 C218 1.270 . S
C221 O214 1.262 . S
C221 O222 1.232 . S
O222 C221 1.232 . S
C223 O215 1.260 . S
C223 O216 1.257 . S
Zn224 O227 2.031 . S
Zn224 O229 2.049 . S
Zn224 O234 2.067 . S
Zn225 O226 1.962 . S
Zn225 O228 1.986 . S
Zn225 O230 1.996 . S
Zn225 O233 1.943 . S
O226 Zn225 1.962 . S
O226 C231 1.254 . S
O227 Zn224 2.031 . S
O227 C231 1.269 . S
O228 Zn225 1.986 . S
O228 C235 1.262 . S
O229 Zn224 2.049 . S
O229 C237 1.260 . S
O230 Zn225 1.996 . S
O230 C237 1.257 . S
C231 O226 1.254 . S
C231 O227 1.269 . S
C232 O233 1.249 . S
C232 O234 1.270 . S
O233 Zn225 1.943 . S
O233 C232 1.249 . S
O234 Zn224 2.067 . S
O234 C232 1.270 . S
C235 O228 1.262 . S
C235 O236 1.232 . S
O236 C235 1.232 . S
C237 O229 1.260 . S
C237 O230 1.257 . S
Zn238 O241 2.031 . S
Zn238 O243 2.049 . S
Zn238 O248 2.067 . S
Zn239 O240 1.962 . S
Zn239 O242 1.986 . S
Zn239 O244 1.996 . S
Zn239 O247 1.943 . S
O240 Zn239 1.962 . S
O240 C245 1.254 . S
O241 Zn238 2.031 . S
O241 C245 1.269 . S
O242 Zn239 1.986 . S
O242 C249 1.262 . S
O243 Zn238 2.049 . S
O243 C251 1.260 . S
O244 Zn239 1.996 . S
O244 C251 1.257 . S
C245 O240 1.254 . S
C245 O241 1.269 . S
C246 O247 1.249 . S
C246 O248 1.270 . S
O247 Zn239 1.943 . S
O247 C246 1.249 . S
O248 Zn238 2.067 . S
O248 C246 1.270 . S
C249 O242 1.262 . S
C249 O250 1.232 . S
O250 C249 1.232 . S
C251 O243 1.260 . S
C251 O244 1.257 . S
Zn252 O255 2.031 . S
Zn252 O257 2.049 . S
Zn252 O262 2.067 . S
Zn253 O254 1.962 . S
Zn253 O256 1.986 . S
Zn253 O258 1.996 . S
Zn253 O261 1.943 . S
O254 Zn253 1.962 . S
O254 C259 1.254 . S
O255 Zn252 2.031 . S
O255 C259 1.269 . S
O256 Zn253 1.986 . S
O256 C263 1.262 . S
O257 Zn252 2.049 . S
O257 C265 1.260 . S
O258 Zn253 1.996 . S
O258 C265 1.257 . S
C259 O254 1.254 . S
C259 O255 1.269 . S
C260 O261 1.249 . S
C260 O262 1.270 . S
O261 Zn253 1.943 . S
O261 C260 1.249 . S
O262 Zn252 2.067 . S
O262 C260 1.270 . S
C263 O256 1.262 . S
C263 O264 1.232 . S
O264 C263 1.232 . S
C265 O257 1.260 . S
C265 O258 1.257 . S
Zn266 O269 2.031 . S
Zn266 O271 2.049 . S
Zn266 O276 2.067 . S
Zn267 O268 1.962 . S
Zn267 O270 1.986 . S
Zn267 O272 1.996 . S
Zn267 O275 1.943 . S
O268 Zn267 1.962 . S
O268 C273 1.254 . S
O269 Zn266 2.031 . S
O269 C273 1.269 . S
O270 Zn267 1.986 . S
O270 C277 1.262 . S
O271 Zn266 2.049 . S
O271 C279 1.260 . S
O272 Zn267 1.996 . S
O272 C279 1.257 . S
C273 O268 1.254 . S
C273 O269 1.269 . S
C274 O275 1.249 . S
C274 O276 1.270 . S
O275 Zn267 1.943 . S
O275 C274 1.249 . S
O276 Zn266 2.067 . S
O276 C274 1.270 . S
C277 O270 1.262 . S
C277 O278 1.232 . S
O278 C277 1.232 . S
C279 O271 1.260 . S
C279 O272 1.257 . S
Zn280 O283 2.031 . S
Zn280 O285 2.049 . S
Zn280 O290 2.067 . S
Zn281 O282 1.962 . S
Zn281 O284 1.986 . S
Zn281 O286 1.996 . S
Zn281 O289 1.943 . S
O282 Zn281 1.962 . S
O282 C287 1.254 . S
O283 Zn280 2.031 . S
O283 C287 1.269 . S
O284 Zn281 1.986 . S
O284 C291 1.262 . S
O285 Zn280 2.049 . S
O285 C293 1.260 . S
O286 Zn281 1.996 . S
O286 C293 1.257 . S
C287 O282 1.254 . S
C287 O283 1.269 . S
C288 O289 1.249 . S
C288 O290 1.270 . S
O289 Zn281 1.943 . S
O289 C288 1.249 . S
O290 Zn280 2.067 . S
O290 C288 1.270 . S
C291 O284 1.262 . S
C291 O292 1.232 . S
O292 C291 1.232 . S
C293 O285 1.260 . S
C293 O286 1.257 . S
Zn294 O297 2.031 . S
Zn294 O299 2.049 . S
Zn294 O304 2.067 . S
Zn295 O296 1.962 . S
Zn295 O298 1.986 . S
Zn295 O300 1.996 . S
Zn295 O303 1.943 . S
O296 Zn295 1.962 . S
O296 C301 1.254 . S
O297 Zn294 2.031 . S
O297 C301 1.269 . S
O298 Zn295 1.986 . S
O298 C305 1.262 . S
O299 Zn294 2.049 . S
O299 C307 1.260 . S
O300 Zn295 1.996 . S
O300 C307 1.257 . S
C301 O296 1.254 . S
C301 O297 1.269 . S
C302 O303 1.249 . S
C302 O304 1.270 . S
O303 Zn295 1.943 . S
O303 C302 1.249 . S
O304 Zn294 2.067 . S
O304 C302 1.270 . S
C305 O298 1.262 . S
C305 O306 1.232 . S
O306 C305 1.232 . S
C307 O299 1.260 . S
C307 O300 1.257 . S
Zn308 O311 2.031 . S
Zn308 O313 2.049 . S
Zn308 O318 2.067 . S
Zn309 O310 1.962 . S
Zn309 O312 1.986 . S
Zn309 O314 1.996 . S
Zn309 O317 1.943 . S
O310 Zn309 1.962 . S
O310 C315 1.254 . S
O311 Zn308 2.031 . S
O311 C315 1.269 . S
O312 Zn309 1.986 . S
O312 C319 1.262 . S
O313 Zn308 2.049 . S
O313 C321 1.260 . S
O314 Zn309 1.996 . S
O314 C321 1.257 . S
C315 O310 1.254 . S
C315 O311 1.269 . S
C316 O317 1.249 . S
C316 O318 1.270 . S
O317 Zn309 1.943 . S
O317 C316 1.249 . S
O318 Zn308 2.067 . S
O318 C316 1.270 . S
C319 O312 1.262 . S
C319 O320 1.232 . S
O320 C319 1.232 . S
C321 O313 1.260 . S
C321 O314 1.257 . S
Zn322 O325 2.031 . S
Zn322 O327 2.049 . S
Zn322 O332 2.067 . S
Zn323 O324 1.962 . S
Zn323 O326 1.986 . S
Zn323 O328 1.996 . S
Zn323 O331 1.943 . S
O324 Zn323 1.962 . S
O324 C329 1.254 . S
O325 Zn322 2.031 . S
O325 C329 1.269 . S
O326 Zn323 1.986 . S
O326 C333 1.262 . S
O327 Zn322 2.049 . S
O327 C335 1.260 . S
O328 Zn323 1.996 . S
O328 C335 1.257 . S
C329 O324 1.254 . S
C329 O325 1.269 . S
C330 O331 1.249 . S
C330 O332 1.270 . S
O331 Zn323 1.943 . S
O331 C330 1.249 . S
O332 Zn322 2.067 . S
O332 C330 1.270 . S
C333 O326 1.262 . S
C333 O334 1.232 . S
O334 C333 1.232 . S
C335 O327 1.260 . S
C335 O328 1.257 . S
C336 C337 1.369 . S
C336 C338 1.419 1_545 S
C336 H340 0.930 . S
C337 C336 1.369 . S
C337 C346 1.429 . S
C338 C336 1.419 1_565 S
C338 C339 1.363 . S
C338 H341 0.929 . S
C339 C338 1.363 . S
C339 C345 1.428 . S
H340 C336 0.930 . S
H341 C338 0.929 . S
S342 N343 1.613 . S
S342 N344 1.610 1_545 S
N343 S342 1.613 . S
N343 C346 1.350 . S
N344 S342 1.610 1_565 S
N344 C345 1.351 . S
C345 C339 1.428 . S
C345 N344 1.351 . S
C345 C346 1.434 1_565 S
C346 C337 1.429 . S
C346 N343 1.350 . S
C346 C345 1.434 1_545 S
C347 C348 1.369 . S
C347 C349 1.419 . S
C347 H351 0.930 . S
C348 C347 1.369 . S
C348 C357 1.429 . S
C349 C347 1.419 . S
C349 C350 1.363 . S
C349 H352 0.929 . S
C350 C349 1.363 . S
C350 C356 1.428 . S
H351 C347 0.930 . S
H352 C349 0.929 . S
S353 N354 1.613 . S
S353 N355 1.610 . S
N354 S353 1.613 . S
N354 C357 1.350 . S
N355 S353 1.610 . S
N355 C356 1.351 . S
C356 C350 1.428 . S
C356 N355 1.351 . S
C356 C357 1.434 . S
C357 C348 1.429 . S
C357 N354 1.350 . S
C357 C356 1.434 . S
C358 C359 1.369 . S
C358 C360 1.419 1_655 S
C358 H362 0.930 . S
C359 C358 1.369 . S
C359 C368 1.429 . S
C360 C358 1.419 1_455 S
C360 C361 1.363 . S
C360 H363 0.929 . S
C361 C360 1.363 . S
C361 C367 1.428 . S
H362 C358 0.930 . S
H363 C360 0.929 . S
S364 N365 1.613 1_455 S
S364 N366 1.610 . S
N365 S364 1.613 1_655 S
N365 C368 1.350 . S
N366 S364 1.610 . S
N366 C367 1.351 . S
C367 C361 1.428 . S
C367 N366 1.351 . S
C367 C368 1.434 1_455 S
C368 C359 1.429 . S
C368 N365 1.350 . S
C368 C367 1.434 1_655 S
C369 C370 1.369 . S
C369 C371 1.419 1_565 S
C369 H373 0.930 . S
C370 C369 1.369 . S
C370 C379 1.429 . S
C371 C369 1.419 1_545 S
C371 C372 1.363 . S
C371 H374 0.929 . S
C372 C371 1.363 . S
C372 C378 1.428 . S
H373 C369 0.930 . S
H374 C371 0.929 . S
S375 N376 1.613 1_545 S
S375 N377 1.610 . S
N376 S375 1.613 1_565 S
N376 C379 1.350 . S
N377 S375 1.610 . S
N377 C378 1.351 . S
C378 C372 1.428 . S
C378 N377 1.351 . S
C378 C379 1.434 1_545 S
C379 C370 1.429 . S
C379 N376 1.350 . S
C379 C378 1.434 1_565 S
C380 C381 1.369 . S
C380 C382 1.419 . S
C380 H384 0.930 . S
C381 C380 1.369 . S
C381 C390 1.429 . S
C382 C380 1.419 . S
C382 C383 1.363 . S
C382 H385 0.929 . S
C383 C382 1.363 . S
C383 C389 1.428 . S
H384 C380 0.930 . S
H385 C382 0.929 . S
S386 N387 1.613 . S
S386 N388 1.610 . S
N387 S386 1.613 . S
N387 C390 1.350 . S
N388 S386 1.610 . S
N388 C389 1.351 . S
C389 C383 1.428 . S
C389 N388 1.351 . S
C389 C390 1.434 . S
C390 C381 1.429 . S
C390 N387 1.350 . S
C390 C389 1.434 . S
C391 C392 1.369 . S
C391 C393 1.419 1_455 S
C391 H395 0.930 . S
C392 C391 1.369 . S
C392 C401 1.429 . S
C393 C391 1.419 1_655 S
C393 C394 1.363 . S
C393 H396 0.929 . S
C394 C393 1.363 . S
C394 C400 1.428 . S
H395 C391 0.930 . S
H396 C393 0.929 . S
S397 N398 1.613 1_655 S
S397 N399 1.610 . S
N398 S397 1.613 1_455 S
N398 C401 1.350 . S
N399 S397 1.610 . S
N399 C400 1.351 . S
C400 C394 1.428 . S
C400 N399 1.351 . S
C400 C401 1.434 1_655 S
C401 C392 1.429 . S
C401 N398 1.350 . S
C401 C400 1.434 1_455 S
C402 C403 1.369 . S
C402 C404 1.419 1_565 S
C402 H406 0.930 . S
C403 C402 1.369 . S
C403 C412 1.429 . S
C404 C402 1.419 1_545 S
C404 C405 1.363 . S
C404 H407 0.929 . S
C405 C404 1.363 . S
C405 C411 1.428 . S
H406 C402 0.930 . S
H407 C404 0.929 . S
S408 N409 1.613 . S
S408 N410 1.610 1_565 S
N409 S408 1.613 . S
N409 C412 1.350 . S
N410 S408 1.610 1_545 S
N410 C411 1.351 . S
C411 C405 1.428 . S
C411 N410 1.351 . S
C411 C412 1.434 1_545 S
C412 C403 1.429 . S
C412 N409 1.350 . S
C412 C411 1.434 1_565 S
C413 C414 1.369 . S
C413 C415 1.419 . S
C413 H417 0.930 . S
C414 C413 1.369 . S
C414 C423 1.429 . S
C415 C413 1.419 . S
C415 C416 1.363 . S
C415 H418 0.929 . S
C416 C415 1.363 . S
C416 C422 1.428 . S
H417 C413 0.930 . S
H418 C415 0.929 . S
S419 N420 1.613 . S
S419 N421 1.610 . S
N420 S419 1.613 . S
N420 C423 1.350 . S
N421 S419 1.610 . S
N421 C422 1.351 . S
C422 C416 1.428 . S
C422 N421 1.351 . S
C422 C423 1.434 . S
C423 C414 1.429 . S
C423 N420 1.350 . S
C423 C422 1.434 . S
C424 C425 1.369 . S
C424 C426 1.419 1_655 S
C424 H428 0.930 . S
C425 C424 1.369 . S
C425 C434 1.429 . S
C426 C424 1.419 1_455 S
C426 C427 1.363 . S
C426 H429 0.929 . S
C427 C426 1.363 . S
C427 C433 1.428 . S
H428 C424 0.930 . S
H429 C426 0.929 . S
S430 N431 1.613 . S
S430 N432 1.610 1_655 S
N431 S430 1.613 . S
N431 C434 1.350 . S
N432 S430 1.610 1_455 S
N432 C433 1.351 . S
C433 C427 1.428 . S
C433 N432 1.351 . S
C433 C434 1.434 1_455 S
C434 C425 1.429 . S
C434 N431 1.350 . S
C434 C433 1.434 1_655 S
C435 C436 1.369 . S
C435 C437 1.419 1_545 S
C435 H439 0.930 . S
C436 C435 1.369 . S
C436 C445 1.429 . S
C437 C435 1.419 1_565 S
C437 C438 1.363 . S
C437 H440 0.929 . S
C438 C437 1.363 . S
C438 C444 1.428 . S
H439 C435 0.930 . S
H440 C437 0.929 . S
S441 N442 1.613 . S
S441 N443 1.610 1_545 S
N442 S441 1.613 . S
N442 C445 1.350 . S
N443 S441 1.610 1_565 S
N443 C444 1.351 . S
C444 C438 1.428 . S
C444 N443 1.351 . S
C444 C445 1.434 1_565 S
C445 C436 1.429 . S
C445 N442 1.350 . S
C445 C444 1.434 1_545 S
C446 C447 1.369 . S
C446 C448 1.419 . S
C446 H450 0.930 . S
C447 C446 1.369 . S
C447 C456 1.429 . S
C448 C446 1.419 . S
C448 C449 1.363 . S
C448 H451 0.929 . S
C449 C448 1.363 . S
C449 C455 1.428 . S
H450 C446 0.930 . S
H451 C448 0.929 . S
S452 N453 1.613 . S
S452 N454 1.610 . S
N453 S452 1.613 . S
N453 C456 1.350 . S
N454 S452 1.610 . S
N454 C455 1.351 . S
C455 C449 1.428 . S
C455 N454 1.351 . S
C455 C456 1.434 . S
C456 C447 1.429 . S
C456 N453 1.350 . S
C456 C455 1.434 . S
C457 C458 1.369 . S
C457 C459 1.419 1_455 S
C457 H461 0.930 . S
C458 C457 1.369 . S
C458 C467 1.429 . S
C459 C457 1.419 1_655 S
C459 C460 1.363 . S
C459 H462 0.929 . S
C460 C459 1.363 . S
C460 C466 1.428 . S
H461 C457 0.930 . S
H462 C459 0.929 . S
S463 N464 1.613 . S
S463 N465 1.610 1_455 S
N464 S463 1.613 . S
N464 C467 1.350 . S
N465 S463 1.610 1_655 S
N465 C466 1.351 . S
C466 C460 1.428 . S
C466 N465 1.351 . S
C466 C467 1.434 1_655 S
C467 C458 1.429 . S
C467 N464 1.350 . S
C467 C466 1.434 1_455 S
C468 C469 1.369 . S
C468 C470 1.419 . S
C468 H472 0.930 . S
C469 C468 1.369 . S
C469 C478 1.429 . S
C470 C468 1.419 . S
C470 C471 1.363 . S
C470 H473 0.929 . S
C471 C470 1.363 . S
C471 C477 1.428 . S
H472 C468 0.930 . S
H473 C470 0.929 . S
S474 N475 1.613 . S
S474 N476 1.610 . S
N475 S474 1.613 . S
N475 C478 1.350 . S
N476 S474 1.610 . S
N476 C477 1.351 . S
C477 C471 1.428 . S
C477 N476 1.351 . S
C477 C478 1.434 . S
C478 C469 1.429 . S
C478 N475 1.350 . S
C478 C477 1.434 . S
C479 C480 1.369 . S
C479 C481 1.419 . S
C479 H483 0.930 . S
C480 C479 1.369 . S
C480 C489 1.429 . S
C481 C479 1.419 . S
C481 C482 1.363 . S
C481 H484 0.929 . S
C482 C481 1.363 . S
C482 C488 1.428 . S
H483 C479 0.930 . S
H484 C481 0.929 . S
S485 N486 1.613 . S
S485 N487 1.610 . S
N486 S485 1.613 . S
N486 C489 1.350 . S
N487 S485 1.610 . S
N487 C488 1.351 . S
C488 C482 1.428 . S
C488 N487 1.351 . S
C488 C489 1.434 . S
C489 C480 1.429 . S
C489 N486 1.350 . S
C489 C488 1.434 . S
C490 C491 1.369 . S
C490 C492 1.419 . S
C490 H494 0.930 . S
C491 C490 1.369 . S
C491 C500 1.429 . S
C492 C490 1.419 . S
C492 C493 1.363 . S
C492 H495 0.929 . S
C493 C492 1.363 . S
C493 C499 1.428 . S
H494 C490 0.930 . S
H495 C492 0.929 . S
S496 N497 1.613 . S
S496 N498 1.610 . S
N497 S496 1.613 . S
N497 C500 1.350 . S
N498 S496 1.610 . S
N498 C499 1.351 . S
C499 C493 1.428 . S
C499 N498 1.351 . S
C499 C500 1.434 . S
C500 C491 1.429 . S
C500 N497 1.350 . S
C500 C499 1.434 . S
C501 C502 1.369 . S
C501 C503 1.419 . S
C501 H505 0.930 . S
C502 C501 1.369 . S
C502 C511 1.429 . S
C503 C501 1.419 . S
C503 C504 1.363 . S
C503 H506 0.929 . S
C504 C503 1.363 . S
C504 C510 1.428 . S
H505 C501 0.930 . S
H506 C503 0.929 . S
S507 N508 1.613 . S
S507 N509 1.610 . S
N508 S507 1.613 . S
N508 C511 1.350 . S
N509 S507 1.610 . S
N509 C510 1.351 . S
C510 C504 1.428 . S
C510 N509 1.351 . S
C510 C511 1.434 . S
C511 C502 1.429 . S
C511 N508 1.350 . S
C511 C510 1.434 . S
C512 C513 1.369 . S
C512 C514 1.419 . S
C512 H516 0.930 . S
C513 C512 1.369 . S
C513 C522 1.429 . S
C514 C512 1.419 . S
C514 C515 1.363 . S
C514 H517 0.929 . S
C515 C514 1.363 . S
C515 C521 1.428 . S
H516 C512 0.930 . S
H517 C514 0.929 . S
S518 N519 1.613 . S
S518 N520 1.610 . S
N519 S518 1.613 . S
N519 C522 1.350 . S
N520 S518 1.610 . S
N520 C521 1.351 . S
C521 C515 1.428 . S
C521 N520 1.351 . S
C521 C522 1.434 . S
C522 C513 1.429 . S
C522 N519 1.350 . S
C522 C521 1.434 . S
C523 C524 1.369 . S
C523 C525 1.419 . S
C523 H527 0.930 . S
C524 C523 1.369 . S
C524 C533 1.429 . S
C525 C523 1.419 . S
C525 C526 1.363 . S
C525 H528 0.929 . S
C526 C525 1.363 . S
C526 C532 1.428 . S
H527 C523 0.930 . S
H528 C525 0.929 . S
S529 N530 1.613 . S
S529 N531 1.610 . S
N530 S529 1.613 . S
N530 C533 1.350 . S
N531 S529 1.610 . S
N531 C532 1.351 . S
C532 C526 1.428 . S
C532 N531 1.351 . S
C532 C533 1.434 . S
C533 C524 1.429 . S
C533 N530 1.350 . S
C533 C532 1.434 . S
C534 C535 1.369 . S
C534 C536 1.419 . S
C534 H538 0.930 . S
C535 C534 1.369 . S
C535 C544 1.429 . S
C536 C534 1.419 . S
C536 C537 1.363 . S
C536 H539 0.929 . S
C537 C536 1.363 . S
C537 C543 1.428 . S
H538 C534 0.930 . S
H539 C536 0.929 . S
S540 N541 1.613 . S
S540 N542 1.610 . S
N541 S540 1.613 . S
N541 C544 1.350 . S
N542 S540 1.610 . S
N542 C543 1.351 . S
C543 C537 1.428 . S
C543 N542 1.351 . S
C543 C544 1.434 . S
C544 C535 1.429 . S
C544 N541 1.350 . S
C544 C543 1.434 . S
C545 C546 1.369 . S
C545 C547 1.419 . S
C545 H549 0.930 . S
C546 C545 1.369 . S
C546 C555 1.429 . S
C547 C545 1.419 . S
C547 C548 1.363 . S
C547 H550 0.929 . S
C548 C547 1.363 . S
C548 C554 1.428 . S
H549 C545 0.930 . S
H550 C547 0.929 . S
S551 N552 1.613 . S
S551 N553 1.610 . S
N552 S551 1.613 . S
N552 C555 1.350 . S
N553 S551 1.610 . S
N553 C554 1.351 . S
C554 C548 1.428 . S
C554 N553 1.351 . S
C554 C555 1.434 . S
C555 C546 1.429 . S
C555 N552 1.350 . S
C555 C554 1.434 . S
C556 C557 1.369 . S
C556 C558 1.419 . S
C556 H560 0.930 . S
C557 C556 1.369 . S
C557 C566 1.429 . S
C558 C556 1.419 . S
C558 C559 1.363 . S
C558 H561 0.929 . S
C559 C558 1.363 . S
C559 C565 1.428 . S
H560 C556 0.930 . S
H561 C558 0.929 . S
S562 N563 1.613 . S
S562 N564 1.610 . S
N563 S562 1.613 . S
N563 C566 1.350 . S
N564 S562 1.610 . S
N564 C565 1.351 . S
C565 C559 1.428 . S
C565 N564 1.351 . S
C565 C566 1.434 . S
C566 C557 1.429 . S
C566 N563 1.350 . S
C566 C565 1.434 . S
C567 C568 1.369 . S
C567 C569 1.419 . S
C567 H571 0.930 . S
C568 C567 1.369 . S
C568 C577 1.429 . S
C569 C567 1.419 . S
C569 C570 1.363 . S
C569 H572 0.929 . S
C570 C569 1.363 . S
C570 C576 1.428 . S
H571 C567 0.930 . S
H572 C569 0.929 . S
S573 N574 1.613 . S
S573 N575 1.610 . S
N574 S573 1.613 . S
N574 C577 1.350 . S
N575 S573 1.610 . S
N575 C576 1.351 . S
C576 C570 1.428 . S
C576 N575 1.351 . S
C576 C577 1.434 . S
C577 C568 1.429 . S
C577 N574 1.350 . S
C577 C576 1.434 . S
C578 C579 1.369 . S
C578 C580 1.419 . S
C578 H582 0.930 . S
C579 C578 1.369 . S
C579 C588 1.429 . S
C580 C578 1.419 . S
C580 C581 1.363 . S
C580 H583 0.929 . S
C581 C580 1.363 . S
C581 C587 1.428 . S
H582 C578 0.930 . S
H583 C580 0.929 . S
S584 N585 1.613 . S
S584 N586 1.610 . S
N585 S584 1.613 . S
N585 C588 1.350 . S
N586 S584 1.610 . S
N586 C587 1.351 . S
C587 C581 1.428 . S
C587 N586 1.351 . S
C587 C588 1.434 . S
C588 C579 1.429 . S
C588 N585 1.350 . S
C588 C587 1.434 . S
C589 C590 1.369 . S
C589 C591 1.419 . S
C589 H593 0.930 . S
C590 C589 1.369 . S
C590 C599 1.429 . S
C591 C589 1.419 . S
C591 C592 1.363 . S
C591 H594 0.929 . S
C592 C591 1.363 . S
C592 C598 1.428 . S
H593 C589 0.930 . S
H594 C591 0.929 . S
S595 N596 1.613 . S
S595 N597 1.610 . S
N596 S595 1.613 . S
N596 C599 1.350 . S
N597 S595 1.610 . S
N597 C598 1.351 . S
C598 C592 1.428 . S
C598 N597 1.351 . S
C598 C599 1.434 . S
C599 C590 1.429 . S
C599 N596 1.350 . S
C599 C598 1.434 . S
C600 C601 1.369 . S
C600 C602 1.419 1_554 S
C600 H604 0.930 . S
C601 C600 1.369 . S
C601 C610 1.429 . S
C602 C600 1.419 1_556 S
C602 C603 1.363 . S
C602 H605 0.929 . S
C603 C602 1.363 . S
C603 C609 1.428 . S
H604 C600 0.930 . S
H605 C602 0.929 . S
S606 N607 1.615 1_556 S
S606 N608 1.609 . S
N607 S606 1.615 1_554 S
N607 C610 1.350 . S
N608 S606 1.609 . S
N608 C609 1.351 . S
C609 C603 1.428 . S
C609 N608 1.351 . S
C609 C610 1.434 1_556 S
C610 C601 1.429 . S
C610 N607 1.350 . S
C610 C609 1.434 1_554 S
C611 C612 1.369 . S
C611 C613 1.419 1_556 S
C611 H615 0.930 . S
C612 C611 1.369 . S
C612 C621 1.429 . S
C613 C611 1.419 1_554 S
C613 C614 1.363 . S
C613 H616 0.929 . S
C614 C613 1.363 . S
C614 C620 1.428 . S
H615 C611 0.930 . S
H616 C613 0.929 . S
S617 N618 1.615 1_554 S
S617 N619 1.609 . S
N618 S617 1.615 1_556 S
N618 C621 1.350 . S
N619 S617 1.609 . S
N619 C620 1.351 . S
C620 C614 1.428 . S
C620 N619 1.351 . S
C620 C621 1.434 1_554 S
C621 C612 1.429 . S
C621 N618 1.350 . S
C621 C620 1.434 1_556 S
C622 C623 1.369 . S
C622 C624 1.419 1_556 S
C622 H626 0.930 . S
C623 C622 1.369 . S
C623 C632 1.429 . S
C624 C622 1.419 1_554 S
C624 C625 1.363 . S
C624 H627 0.929 . S
C625 C624 1.363 . S
C625 C631 1.428 . S
H626 C622 0.930 . S
H627 C624 0.929 . S
S628 N629 1.615 1_554 S
S628 N630 1.609 . S
N629 S628 1.615 1_556 S
N629 C632 1.350 . S
N630 S628 1.609 . S
N630 C631 1.351 . S
C631 C625 1.428 . S
C631 N630 1.351 . S
C631 C632 1.434 1_554 S
C632 C623 1.429 . S
C632 N629 1.350 . S
C632 C631 1.434 1_556 S
C633 C634 1.369 . S
C633 C635 1.419 1_554 S
C633 H637 0.930 . S
C634 C633 1.369 . S
C634 C643 1.429 . S
C635 C633 1.419 1_556 S
C635 C636 1.363 . S
C635 H638 0.929 . S
C636 C635 1.363 . S
C636 C642 1.428 . S
H637 C633 0.930 . S
H638 C635 0.929 . S
S639 N640 1.615 1_556 S
S639 N641 1.609 . S
N640 S639 1.615 1_554 S
N640 C643 1.350 . S
N641 S639 1.609 . S
N641 C642 1.351 . S
C642 C636 1.428 . S
C642 N641 1.351 . S
C642 C643 1.434 1_556 S
C643 C634 1.429 . S
C643 N640 1.350 . S
C643 C642 1.434 1_554 S
C644 C645 1.369 . S
C644 C646 1.419 1_554 S
C644 H648 0.930 . S
C645 C644 1.369 . S
C645 C654 1.429 . S
C646 C644 1.419 1_556 S
C646 C647 1.363 . S
C646 H649 0.929 . S
C647 C646 1.363 . S
C647 C653 1.428 . S
H648 C644 0.930 . S
H649 C646 0.929 . S
S650 N651 1.615 1_556 S
S650 N652 1.609 . S
N651 S650 1.615 1_554 S
N651 C654 1.350 . S
N652 S650 1.609 . S
N652 C653 1.351 . S
C653 C647 1.428 . S
C653 N652 1.351 . S
C653 C654 1.434 1_556 S
C654 C645 1.429 . S
C654 N651 1.350 . S
C654 C653 1.434 1_554 S
C655 C656 1.369 . S
C655 C657 1.419 1_556 S
C655 H659 0.930 . S
C656 C655 1.369 . S
C656 C665 1.429 . S
C657 C655 1.419 1_554 S
C657 C658 1.363 . S
C657 H660 0.929 . S
C658 C657 1.363 . S
C658 C664 1.428 . S
H659 C655 0.930 . S
H660 C657 0.929 . S
S661 N662 1.615 1_554 S
S661 N663 1.609 . S
N662 S661 1.615 1_556 S
N662 C665 1.350 . S
N663 S661 1.609 . S
N663 C664 1.351 . S
C664 C658 1.428 . S
C664 N663 1.351 . S
C664 C665 1.434 1_554 S
C665 C656 1.429 . S
C665 N662 1.350 . S
C665 C664 1.434 1_556 S
C666 C667 1.369 . S
C666 C668 1.419 . S
C666 H670 0.930 . S
C667 C666 1.369 . S
C667 C676 1.429 . S
C668 C666 1.419 . S
C668 C669 1.363 . S
C668 H671 0.929 . S
C669 C668 1.363 . S
C669 C675 1.428 . S
H670 C666 0.930 . S
H671 C668 0.929 . S
S672 N673 1.613 . S
S672 N674 1.610 . S
N673 S672 1.613 . S
N673 C676 1.350 . S
N674 S672 1.610 . S
N674 C675 1.351 . S
C675 C669 1.428 . S
C675 N674 1.351 . S
C675 C676 1.434 . S
C676 C667 1.429 . S
C676 N673 1.350 . S
C676 C675 1.434 . S
C677 C678 1.369 . S
C677 C679 1.419 . S
C677 H681 0.930 . S
C678 C677 1.369 . S
C678 C687 1.429 . S
C679 C677 1.419 . S
C679 C680 1.363 . S
C679 H682 0.929 . S
C680 C679 1.363 . S
C680 C686 1.428 . S
H681 C677 0.930 . S
H682 C679 0.929 . S
S683 N684 1.613 . S
S683 N685 1.610 . S
N684 S683 1.613 . S
N684 C687 1.350 . S
N685 S683 1.610 . S
N685 C686 1.351 . S
C686 C680 1.428 . S
C686 N685 1.351 . S
C686 C687 1.434 . S
C687 C678 1.429 . S
C687 N684 1.350 . S
C687 C686 1.434 . S
C688 C689 1.369 . S
C688 C690 1.419 . S
C688 H692 0.930 . S
C689 C688 1.369 . S
C689 C698 1.429 . S
C690 C688 1.419 . S
C690 C691 1.363 . S
C690 H693 0.929 . S
C691 C690 1.363 . S
C691 C697 1.428 . S
H692 C688 0.930 . S
H693 C690 0.929 . S
S694 N695 1.613 . S
S694 N696 1.610 . S
N695 S694 1.613 . S
N695 C698 1.350 . S
N696 S694 1.610 . S
N696 C697 1.351 . S
C697 C691 1.428 . S
C697 N696 1.351 . S
C697 C698 1.434 . S
C698 C689 1.429 . S
C698 N695 1.350 . S
C698 C697 1.434 . S
C699 C700 1.369 . S
C699 C701 1.419 . S
C699 H703 0.930 . S
C700 C699 1.369 . S
C700 C709 1.429 . S
C701 C699 1.419 . S
C701 C702 1.363 . S
C701 H704 0.929 . S
C702 C701 1.363 . S
C702 C708 1.428 . S
H703 C699 0.930 . S
H704 C701 0.929 . S
S705 N706 1.613 . S
S705 N707 1.610 . S
N706 S705 1.613 . S
N706 C709 1.350 . S
N707 S705 1.610 . S
N707 C708 1.351 . S
C708 C702 1.428 . S
C708 N707 1.351 . S
C708 C709 1.434 . S
C709 C700 1.429 . S
C709 N706 1.350 . S
C709 C708 1.434 . S
C710 C711 1.369 . S
C710 C712 1.419 . S
C710 H714 0.930 . S
C711 C710 1.369 . S
C711 C720 1.429 . S
C712 C710 1.419 . S
C712 C713 1.363 . S
C712 H715 0.929 . S
C713 C712 1.363 . S
C713 C719 1.428 . S
H714 C710 0.930 . S
H715 C712 0.929 . S
S716 N717 1.613 . S
S716 N718 1.610 . S
N717 S716 1.613 . S
N717 C720 1.350 . S
N718 S716 1.610 . S
N718 C719 1.351 . S
C719 C713 1.428 . S
C719 N718 1.351 . S
C719 C720 1.434 . S
C720 C711 1.429 . S
C720 N717 1.350 . S
C720 C719 1.434 . S
C721 C722 1.369 . S
C721 C723 1.419 . S
C721 H725 0.930 . S
C722 C721 1.369 . S
C722 C731 1.429 . S
C723 C721 1.419 . S
C723 C724 1.363 . S
C723 H726 0.929 . S
C724 C723 1.363 . S
C724 C730 1.428 . S
H725 C721 0.930 . S
H726 C723 0.929 . S
S727 N728 1.613 . S
S727 N729 1.610 . S
N728 S727 1.613 . S
N728 C731 1.350 . S
N729 S727 1.610 . S
N729 C730 1.351 . S
C730 C724 1.428 . S
C730 N729 1.351 . S
C730 C731 1.434 . S
C731 C722 1.429 . S
C731 N728 1.350 . S
C731 C730 1.434 . S
C732 C733 1.369 . S
C732 C734 1.419 . S
C732 H736 0.930 . S
C733 C732 1.369 . S
C733 C742 1.429 . S
C734 C732 1.419 . S
C734 C735 1.363 . S
C734 H737 0.929 . S
C735 C734 1.363 . S
C735 C741 1.428 . S
H736 C732 0.930 . S
H737 C734 0.929 . S
S738 N739 1.613 . S
S738 N740 1.610 . S
N739 S738 1.613 . S
N739 C742 1.350 . S
N740 S738 1.610 . S
N740 C741 1.351 . S
C741 C735 1.428 . S
C741 N740 1.351 . S
C741 C742 1.434 . S
C742 C733 1.429 . S
C742 N739 1.350 . S
C742 C741 1.434 . S
C743 C744 1.369 . S
C743 C745 1.419 . S
C743 H747 0.930 . S
C744 C743 1.369 . S
C744 C753 1.429 . S
C745 C743 1.419 . S
C745 C746 1.363 . S
C745 H748 0.929 . S
C746 C745 1.363 . S
C746 C752 1.428 . S
H747 C743 0.930 . S
H748 C745 0.929 . S
S749 N750 1.613 . S
S749 N751 1.610 . S
N750 S749 1.613 . S
N750 C753 1.350 . S
N751 S749 1.610 . S
N751 C752 1.351 . S
C752 C746 1.428 . S
C752 N751 1.351 . S
C752 C753 1.434 . S
C753 C744 1.429 . S
C753 N750 1.350 . S
C753 C752 1.434 . S
C754 C755 1.369 . S
C754 C756 1.419 . S
C754 H758 0.930 . S
C755 C754 1.369 . S
C755 C764 1.429 . S
C756 C754 1.419 . S
C756 C757 1.363 . S
C756 H759 0.929 . S
C757 C756 1.363 . S
C757 C763 1.428 . S
H758 C754 0.930 . S
H759 C756 0.929 . S
S760 N761 1.613 . S
S760 N762 1.610 . S
N761 S760 1.613 . S
N761 C764 1.350 . S
N762 S760 1.610 . S
N762 C763 1.351 . S
C763 C757 1.428 . S
C763 N762 1.351 . S
C763 C764 1.434 . S
C764 C755 1.429 . S
C764 N761 1.350 . S
C764 C763 1.434 . S
C765 C766 1.369 . S
C765 C767 1.419 . S
C765 H769 0.930 . S
C766 C765 1.369 . S
C766 C775 1.429 . S
C767 C765 1.419 . S
C767 C768 1.363 . S
C767 H770 0.929 . S
C768 C767 1.363 . S
C768 C774 1.428 . S
H769 C765 0.930 . S
H770 C767 0.929 . S
S771 N772 1.613 . S
S771 N773 1.610 . S
N772 S771 1.613 . S
N772 C775 1.350 . S
N773 S771 1.610 . S
N773 C774 1.351 . S
C774 C768 1.428 . S
C774 N773 1.351 . S
C774 C775 1.434 . S
C775 C766 1.429 . S
C775 N772 1.350 . S
C775 C774 1.434 . S
C776 C777 1.369 . S
C776 C778 1.419 . S
C776 H780 0.930 . S
C777 C776 1.369 . S
C777 C786 1.429 . S
C778 C776 1.419 . S
C778 C779 1.363 . S
C778 H781 0.929 . S
C779 C778 1.363 . S
C779 C785 1.428 . S
H780 C776 0.930 . S
H781 C778 0.929 . S
S782 N783 1.613 . S
S782 N784 1.610 . S
N783 S782 1.613 . S
N783 C786 1.350 . S
N784 S782 1.610 . S
N784 C785 1.351 . S
C785 C779 1.428 . S
C785 N784 1.351 . S
C785 C786 1.434 . S
C786 C777 1.429 . S
C786 N783 1.350 . S
C786 C785 1.434 . S
C787 C788 1.369 . S
C787 C789 1.419 . S
C787 H791 0.930 . S
C788 C787 1.369 . S
C788 C797 1.429 . S
C789 C787 1.419 . S
C789 C790 1.363 . S
C789 H792 0.929 . S
C790 C789 1.363 . S
C790 C796 1.428 . S
H791 C787 0.930 . S
H792 C789 0.929 . S
S793 N794 1.613 . S
S793 N795 1.610 . S
N794 S793 1.613 . S
N794 C797 1.350 . S
N795 S793 1.610 . S
N795 C796 1.351 . S
C796 C790 1.428 . S
C796 N795 1.351 . S
C796 C797 1.434 . S
C797 C788 1.429 . S
C797 N794 1.350 . S
C797 C796 1.434 . S
C798 C799 1.369 . S
C798 C800 1.419 . S
C798 H802 0.930 . S
C799 C798 1.369 . S
C799 C808 1.429 . S
C800 C798 1.419 . S
C800 C801 1.363 . S
C800 H803 0.929 . S
C801 C800 1.363 . S
C801 C807 1.428 . S
H802 C798 0.930 . S
H803 C800 0.929 . S
S804 N805 1.613 . S
S804 N806 1.610 . S
N805 S804 1.613 . S
N805 C808 1.350 . S
N806 S804 1.610 . S
N806 C807 1.351 . S
C807 C801 1.428 . S
C807 N806 1.351 . S
C807 C808 1.434 . S
C808 C799 1.429 . S
C808 N805 1.350 . S
C808 C807 1.434 . S
C809 C810 1.369 . S
C809 C811 1.419 . S
C809 H813 0.930 . S
C810 C809 1.369 . S
C810 C819 1.429 . S
C811 C809 1.419 . S
C811 C812 1.363 . S
C811 H814 0.929 . S
C812 C811 1.363 . S
C812 C818 1.428 . S
H813 C809 0.930 . S
H814 C811 0.929 . S
S815 N816 1.613 . S
S815 N817 1.610 . S
N816 S815 1.613 . S
N816 C819 1.350 . S
N817 S815 1.610 . S
N817 C818 1.351 . S
C818 C812 1.428 . S
C818 N817 1.351 . S
C818 C819 1.434 . S
C819 C810 1.429 . S
C819 N816 1.350 . S
C819 C818 1.434 . S
C820 C821 1.369 . S
C820 C822 1.419 . S
C820 H824 0.930 . S
C821 C820 1.369 . S
C821 C830 1.429 . S
C822 C820 1.419 . S
C822 C823 1.363 . S
C822 H825 0.929 . S
C823 C822 1.363 . S
C823 C829 1.428 . S
H824 C820 0.930 . S
H825 C822 0.929 . S
S826 N827 1.613 . S
S826 N828 1.610 . S
N827 S826 1.613 . S
N827 C830 1.350 . S
N828 S826 1.610 . S
N828 C829 1.351 . S
C829 C823 1.428 . S
C829 N828 1.351 . S
C829 C830 1.434 . S
C830 C821 1.429 . S
C830 N827 1.350 . S
C830 C829 1.434 . S
C831 C832 1.369 . S
C831 C833 1.419 . S
C831 H835 0.930 . S
C832 C831 1.369 . S
C832 C841 1.429 . S
C833 C831 1.419 . S
C833 C834 1.363 . S
C833 H836 0.929 . S
C834 C833 1.363 . S
C834 C840 1.428 . S
H835 C831 0.930 . S
H836 C833 0.929 . S
S837 N838 1.613 . S
S837 N839 1.610 . S
N838 S837 1.613 . S
N838 C841 1.350 . S
N839 S837 1.610 . S
N839 C840 1.351 . S
C840 C834 1.428 . S
C840 N839 1.351 . S
C840 C841 1.434 . S
C841 C832 1.429 . S
C841 N838 1.350 . S
C841 C840 1.434 . S
C842 C843 1.369 . S
C842 C844 1.419 . S
C842 H846 0.930 . S
C843 C842 1.369 . S
C843 C852 1.429 . S
C844 C842 1.419 . S
C844 C845 1.363 . S
C844 H847 0.929 . S
C845 C844 1.363 . S
C845 C851 1.428 . S
H846 C842 0.930 . S
H847 C844 0.929 . S
S848 N849 1.613 . S
S848 N850 1.610 . S
N849 S848 1.613 . S
N849 C852 1.350 . S
N850 S848 1.610 . S
N850 C851 1.351 . S
C851 C845 1.428 . S
C851 N850 1.351 . S
C851 C852 1.434 . S
C852 C843 1.429 . S
C852 N849 1.350 . S
C852 C851 1.434 . S
C853 C854 1.369 . S
C853 C855 1.419 . S
C853 H857 0.930 . S
C854 C853 1.369 . S
C854 C863 1.429 . S
C855 C853 1.419 . S
C855 C856 1.363 . S
C855 H858 0.929 . S
C856 C855 1.363 . S
C856 C862 1.428 . S
H857 C853 0.930 . S
H858 C855 0.929 . S
S859 N860 1.613 . S
S859 N861 1.610 . S
N860 S859 1.613 . S
N860 C863 1.350 . S
N861 S859 1.610 . S
N861 C862 1.351 . S
C862 C856 1.428 . S
C862 N861 1.351 . S
C862 C863 1.434 . S
C863 C854 1.429 . S
C863 N860 1.350 . S
C863 C862 1.434 . S
C337 C7 1.386 . S
C339 C105 1.389 . S
C348 C119 1.388 . S
C350 C21 1.386 . S
C359 C35 1.390 . S
C361 C133 1.387 . S
C370 C49 1.389 . S
C372 C147 1.386 . S
C381 C161 1.386 . S
C383 C63 1.388 . S
C392 C77 1.388 . S
C394 C91 1.386 . S
C403 C175 1.386 . S
C405 C273 1.389 . S
C414 C189 1.390 . S
C416 C287 1.388 . S
C425 C301 1.385 . S
C427 C203 1.389 . S
C436 C217 1.385 . S
C438 C315 1.389 . S
C447 C231 1.385 . S
C449 C329 1.389 . S
C458 C259 1.385 . S
C460 C245 1.387 . S
C469 C13 1.275 . S
C471 C125 1.270 . S
C480 C139 1.276 . S
C482 C27 1.270 . S
C491 C153 1.279 . S
C493 C41 1.267 . S
C502 C55 1.278 . S
C504 C167 1.268 . S
C513 C69 1.268 . S
C515 C97 1.276 . S
C524 C83 1.278 . S
C526 C111 1.267 . S
C535 C293 1.267 . S
C537 C181 1.277 . S
C546 C195 1.267 . S
C548 C307 1.276 . S
C557 C321 1.268 . S
C559 C209 1.275 . S
C568 C335 1.272 . S
C570 C223 1.272 . S
C579 C265 1.266 . S
C581 C237 1.278 . S
C590 C251 1.266 . S
C592 C279 1.277 . S
C601 C11 1.506 . S
C603 C221 1.507 . S
C612 C235 1.507 . S
C614 C25 1.507 . S
C623 C249 1.509 . S
C625 C39 1.508 . S
C634 C53 1.507 . S
C636 C179 1.508 . S
C645 C67 1.509 . S
C647 C193 1.509 . S
C656 C207 1.508 . S
C658 C81 1.508 . S
C667 C305 1.507 . S
C669 C95 1.507 . S
C678 C319 1.506 . S
C680 C109 1.506 . S
C689 C333 1.508 . S
C691 C123 1.508 . S
C700 C263 1.507 . S
C702 C137 1.507 . S
C711 C151 1.506 . S
C713 C277 1.506 . S
C722 C165 1.509 . S
C724 C291 1.509 . S
C733 C8 1.489 . S
C735 C148 1.483 . S
C744 C162 1.484 . S
C746 C22 1.489 . S
C755 C92 1.490 . S
C757 C36 1.485 . S
C766 C50 1.490 . S
C768 C106 1.484 . S
C777 C64 1.483 . S
C779 C120 1.487 . S
C788 C78 1.483 . S
C790 C134 1.488 . S
C799 C176 1.486 . S
C801 C316 1.485 . S
C810 C190 1.488 . S
C812 C330 1.484 . S
C821 C204 1.484 . S
C823 C260 1.486 . S
C832 C274 1.488 . S
C834 C218 1.484 . S
C843 C232 1.486 . S
C845 C288 1.489 . S
C854 C246 1.490 . S
C856 C302 1.485 . S
