# Generated by pormake.
# Topology afw, (4)-cn, num edge types: 1
# Building blocks:
#     Node 0, Type 0, BuildingBlock: GALJAG_clean_sbu_0, # of connection points: 4
#     Node 1, Type 0, BuildingBlock: GALJAG_clean_sbu_0, # of connection points: 4
#     Node 2, Type 0, BuildingBlock: GALJAG_clean_sbu_0, # of connection points: 4
#     Node 3, Type 0, BuildingBlock: GALJAG_clean_sbu_0, # of connection points: 4
#     Node 4, Type 0, BuildingBlock: GALJAG_clean_sbu_0, # of connection points: 4
#     Node 5, Type 0, BuildingBlock: GALJAG_clean_sbu_0, # of connection points: 4
#     Node 6, Type 0, BuildingBlock: GALJAG_clean_sbu_0, # of connection points: 4
#     Node 7, Type 0, BuildingBlock: GALJAG_clean_sbu_0, # of connection points: 4
#     Node 8, Type 0, BuildingBlock: GALJAG_clean_sbu_0, # of connection points: 4
#     Edge 9, Type (0, 0), BuildingBlock: XUDNAN_clean_linker_2, # of connection points: 2
#     Edge 10, Type (0, 0), BuildingBlock: XUDNAN_clean_linker_2, # of connection points: 2
#     Edge 11, Type (0, 0), BuildingBlock: XUDNAN_clean_linker_2, # of connection points: 2
#     Edge 12, Type (0, 0), BuildingBlock: XUDNAN_clean_linker_2, # of connection points: 2
#     Edge 13, Type (0, 0), BuildingBlock: XUDNAN_clean_linker_2, # of connection points: 2
#     Edge 14, Type (0, 0), BuildingBlock: XUDNAN_clean_linker_2, # of connection points: 2
#     Edge 15, Type (0, 0), BuildingBlock: XUDNAN_clean_linker_2, # of connection points: 2
#     Edge 16, Type (0, 0), BuildingBlock: XUDNAN_clean_linker_2, # of connection points: 2
#     Edge 17, Type (0, 0), BuildingBlock: XUDNAN_clean_linker_2, # of connection points: 2
#     Edge 18, Type (0, 0), BuildingBlock: XUDNAN_clean_linker_2, # of connection points: 2
#     Edge 19, Type (0, 0), BuildingBlock: XUDNAN_clean_linker_2, # of connection points: 2
#     Edge 20, Type (0, 0), BuildingBlock: XUDNAN_clean_linker_2, # of connection points: 2
#     Edge 21, Type (0, 0), BuildingBlock: XUDNAN_clean_linker_2, # of connection points: 2
#     Edge 22, Type (0, 0), BuildingBlock: XUDNAN_clean_linker_2, # of connection points: 2
#     Edge 23, Type (0, 0), BuildingBlock: XUDNAN_clean_linker_2, # of connection points: 2
#     Edge 24, Type (0, 0), BuildingBlock: XUDNAN_clean_linker_2, # of connection points: 2
#     Edge 25, Type (0, 0), BuildingBlock: XUDNAN_clean_linker_2, # of connection points: 2
#     Edge 26, Type (0, 0), BuildingBlock: XUDNAN_clean_linker_2, # of connection points: 2
# Relax obj value: 0.092
# Max RMSD: 0.157
# Mean RMSD: 0.157
data_MOF--net-afw--node1-GALJAG_clean_sbu_0--edge1-XUDNAN_clean_linker_2
_symmetry_space_group_name_H-M    P1
_symmetry_Int_Tables_number       1
_symmetry_cell_setting            triclinic
loop_
_symmetry_equiv_pos_as_xyz
'x, y, z'
_cell_length_a     45.838083
_cell_length_b     46.127106
_cell_length_c     26.792691
_cell_angle_alpha  89.921814
_cell_angle_beta   90.072521
_cell_angle_gamma 119.76984
loop_
_atom_site_label
_atom_site_type_symbol
_atom_site_fract_x
_atom_site_fract_y
_atom_site_fract_z
_atom_type_partial_charge
In0 In 0.01127 0.19881 0.00331 0.0
O1 O 0.00686 0.21353 0.92386 0.0
O2 O 0.04024 0.25177 0.97371 0.0
C3 C 0.95823 0.13614 0.00719 0.0
C4 C -0.00448 0.22964 0.07439 0.0
C5 C 0.06511 0.18998 -0.00357 0.0
O6 O 0.96198 0.15617 0.9724 0.0
O7 O 0.98124 0.14766 0.03948 0.0
O8 O 0.05555 0.19558 0.03771 0.0
O9 O 0.04752 0.18869 0.95946 0.0
C10 C 0.0279 0.24412 0.93035 0.0
O11 O 0.01995 0.22437 0.07908 0.0
O12 O 0.97916 0.21916 0.03428 0.0
In13 In 0.82939 0.83881 0.03325 0.0
O14 O 0.8234 0.83068 0.94845 0.0
O15 O 0.7812 0.80192 -0.00485 0.0
C16 C 0.89513 0.85718 0.03881 0.0
C17 C 0.79641 0.7923 0.10367 0.0
C18 C 0.8293 0.89714 0.03472 0.0
O19 O 0.87444 0.83162 0.0147 0.0
O20 O 0.88266 0.87306 0.05938 0.0
O21 O 0.83313 0.88417 0.07401 0.0
O22 O 0.82455 0.88021 -0.00436 0.0
C23 C 0.79253 0.80912 0.95139 0.0
O24 O 0.78923 0.8148 0.09363 0.0
O25 O 0.82141 0.79467 0.08041 0.0
In26 In 0.20217 0.02527 0.01245 0.0
O27 O 0.23332 0.03517 0.08376 0.0
O28 O 0.25884 0.05479 0.01492 0.0
C29 C 0.13934 0.98061 0.04209 0.0
C30 C 0.20948 0.98978 0.93891 0.0
C31 C 0.19763 0.08075 0.00169 0.0
O32 O 0.16456 0.97921 0.058 0.0
O33 O 0.14601 0.00426 0.01249 0.0
O34 O 0.20342 0.06692 0.9652 0.0
O35 O 0.19536 0.06717 0.04361 0.0
C36 C 0.26111 0.05146 0.06122 0.0
O37 O 0.20216 0.01232 0.93001 0.0
O38 O 0.21277 0.98518 0.98444 0.0
In39 In 0.66107 0.52644 0.33262 0.0
O40 O 0.64768 0.55146 0.26974 0.0
O41 O 0.69926 0.56945 0.28598 0.0
C42 C 0.60579 0.46532 0.33657 0.0
C43 C 0.6539 0.56165 0.40659 0.0
C44 C 0.71123 0.512 0.3344 0.0
O45 O 0.62033 0.47835 0.29591 0.0
O46 O 0.61871 0.48332 0.37447 0.0
O47 O 0.70808 0.52994 0.36715 0.0
O48 O 0.68894 0.50119 0.30083 0.0
C49 C 0.67793 0.57282 0.26075 0.0
O50 O 0.67154 0.54774 0.41167 0.0
O51 O 0.6398 0.55739 0.36468 0.0
In52 In 0.50114 0.16672 0.35816 0.0
O53 O 0.48759 0.15055 0.2771 0.0
O54 O 0.44833 0.14337 0.32691 0.0
C55 C 0.5652 0.17896 0.35896 0.0
C56 C 0.4739 0.11932 0.42896 0.0
C57 C 0.50543 0.22714 0.3584 0.0
O58 O 0.5442 0.16093 0.32622 0.0
O59 O 0.55383 0.19062 0.3912 0.0
O60 O 0.49156 0.20639 0.39341 0.0
O61 O 0.51719 0.21743 0.32388 0.0
C62 C 0.45664 0.14035 0.28316 0.0
O63 O 0.47753 0.11303 0.38437 0.0
O64 O 0.4843 0.14974 0.43824 0.0
In65 In 0.86715 0.35944 0.33579 0.0
O66 O 0.89957 0.3711 0.40535 0.0
O67 O 0.92069 0.40076 0.33946 0.0
C68 C 0.80678 0.30515 0.34862 0.0
C69 C 0.8964 0.33159 0.28423 0.0
C70 C 0.84934 0.40647 0.32855 0.0
O71 O 0.82459 0.32147 0.38566 0.0
O72 O 0.81946 0.31637 0.30632 0.0
O73 O 0.85315 0.39289 0.28981 0.0
O74 O 0.8545 0.39624 0.36951 0.0
C75 C 0.92525 0.3944 0.38381 0.0
O76 O 0.8876 0.35072 0.26291 0.0
O77 O 0.88908 0.3259 0.32998 0.0
In78 In 0.32303 0.85319 0.66615 0.0
O79 O 0.33568 0.88843 0.60011 0.0
O80 O 0.3609 0.90765 0.67014 0.0
C81 C 0.2748 0.79004 0.65339 0.0
C82 C 0.28661 0.87193 0.72021 0.0
C83 C 0.37416 0.841 0.66132 0.0
O84 O 0.28358 0.8113 0.61825 0.0
O85 O 0.29027 0.80104 0.69425 0.0
O86 O 0.36336 0.84476 0.70318 0.0
O87 O 0.35913 0.84348 0.62336 0.0
C88 C 0.35685 0.91351 0.62524 0.0
O89 O 0.30969 0.86808 0.74021 0.0
O90 O 0.28182 0.8653 0.67411 0.0
In91 In 0.17614 0.49188 0.65289 0.0
O92 O 0.16032 0.47759 0.57179 0.0
O93 O 0.12307 0.47066 0.626 0.0
C94 C 0.24096 0.50786 0.66055 0.0
C95 C 0.14505 0.43653 0.70844 0.0
C96 C 0.18039 0.55192 0.65072 0.0
O97 O 0.22324 0.49286 0.62283 0.0
O98 O 0.22589 0.51454 0.69406 0.0
O99 O 0.17322 0.53507 0.69078 0.0
O100 O 0.18612 0.53882 0.61352 0.0
C101 C 0.12977 0.46832 0.58097 0.0
O102 O 0.14918 0.46422 0.72428 0.0
O103 O 0.15783 0.43754 0.66633 0.0
In104 In 0.54089 0.69749 0.68269 0.0
O105 O 0.56962 0.70713 0.75606 0.0
O106 O 0.59155 0.74241 0.69657 0.0
C107 C 0.48195 0.64036 0.68846 0.0
C108 C 0.57436 0.67401 0.6308 0.0
C109 C 0.51739 0.73968 0.66648 0.0
O110 O 0.49613 0.65732 0.72721 0.0
O111 O 0.49762 0.65218 0.64819 0.0
O112 O 0.53166 0.7322 0.6324 0.0
O113 O 0.51563 0.72627 0.70833 0.0
C114 C 0.59488 0.7335 0.73981 0.0
O115 O 0.5637 0.69178 0.61015 0.0
O116 O 0.56745 0.6679 0.67658 0.0
H117 H 0.17174 0.10485 0.0713 0.0
H118 H 0.20284 0.11563 0.91638 0.0
H119 H 0.17921 0.15275 0.90171 0.0
H120 H 0.09493 0.09576 0.04943 0.0
H121 H 0.0933 0.11838 0.10316 0.0
H122 H 0.1188 0.09884 0.10469 0.0
H123 H 0.17128 0.15543 0.12669 0.0
H124 H 0.14581 0.1752 0.12587 0.0
H125 H 0.18284 0.19126 0.08734 0.0
H126 H 0.14373 0.17957 0.90004 0.0
H127 H 0.10057 0.19603 0.9121 0.0
H128 H 0.09263 0.16858 0.06839 0.0
C129 C 0.17468 0.11603 0.03477 0.0
C130 C 0.18933 0.10761 -0.00497 0.0
C131 C 0.19193 0.12198 0.9474 0.0
C132 C 0.17865 0.14314 0.93877 0.0
C133 C 0.1631 0.14985 0.97827 0.0
C134 C 0.16141 0.13705 0.02552 0.0
C135 C 0.13997 0.14479 0.05998 0.0
C136 C 0.10999 0.11253 0.08048 0.0
C137 C 0.16125 0.16806 0.10249 0.0
C138 C 0.12856 0.16257 0.02412 0.0
C139 C 0.1426 0.16564 0.97737 0.0
C140 C 0.13323 0.17807 0.93674 0.0
C141 C 0.10857 0.18717 0.94388 0.0
C142 C 0.0936 0.18385 0.99127 0.0
C143 C 0.10428 0.17208 0.03208 0.0
H144 H 0.86767 0.9483 0.09788 0.0
H145 H 0.80703 0.92382 0.96381 0.0
H146 H 0.82762 0.98375 0.94901 0.0
H147 H 0.86391 0.02617 0.13331 0.0
H148 H 0.90721 0.04692 0.1531 0.0
H149 H 0.88154 0.00227 0.15972 0.0
H150 H 0.92542 -0.00545 0.10933 0.0
H151 H 0.95091 0.03896 0.10176 0.0
H152 H 0.93698 0.01227 0.04763 0.0
H153 H 0.86185 0.04568 0.94073 0.0
H154 H 0.90656 0.10495 0.94038 0.0
H155 H 0.94641 0.08912 0.07831 0.0
C156 C 0.85757 0.95555 0.06677 0.0
C157 C 0.8354 0.93159 0.0324 0.0
C158 C 0.82373 0.94191 0.99086 0.0
C159 C 0.83525 0.97587 0.98221 0.0
C160 C 0.85845 -0.0009 0.01547 0.0
C161 C 0.86927 0.98939 0.05722 0.0
C162 C 0.89771 0.01919 0.08315 0.0
C163 C 0.88694 0.02391 0.13542 0.0
C164 C 0.92962 0.01604 0.08556 0.0
C165 C 0.90224 0.04693 0.04821 0.0
C166 C 0.87891 0.03496 0.00998 0.0
C167 C 0.87981 0.05548 0.97104 0.0
C168 C 0.90537 0.08905 0.97099 0.0
C169 C 0.92983 0.10158 0.00935 0.0
C170 C 0.92782 0.0803 0.04874 0.0
H171 H 0.94555 0.92056 0.05299 0.0
H172 H 0.92598 0.81924 0.03271 0.0
H173 H 0.98698 0.8391 0.04178 0.0
H174 H 0.01901 0.95827 0.9793 0.0
H175 H 0.0398 -0.00463 0.01717 0.0
H176 H 0.99467 0.9722 0.01425 0.0
H177 H 0.99219 0.96684 0.11068 0.0
H178 H 0.03743 0.98962 0.11381 0.0
H179 H 0.01432 0.94872 0.14161 0.0
H180 H 0.05088 0.87109 0.05253 0.0
H181 H 0.11181 0.91284 0.05033 0.0
H182 H 0.08814 0.99273 0.05688 0.0
C183 C 0.95407 0.90249 0.05101 0.0
C184 C 0.93124 0.86837 0.04274 0.0
C185 C 0.94326 0.84552 0.03915 0.0
C186 C 0.97774 0.85654 0.04467 0.0
C187 C -0.00033 0.89048 0.05308 0.0
C188 C 0.98825 0.91314 0.05534 0.0
C189 C 0.01691 0.9486 0.05984 0.0
C190 C 0.01764 0.96984 0.01497 0.0
C191 C 0.01509 0.96436 0.10945 0.0
C192 C 0.0464 0.94254 0.05914 0.0
C193 C 0.03608 0.90886 0.05651 0.0
C194 C 0.05919 0.89749 0.05469 0.0
C195 C 0.09366 0.92126 0.05383 0.0
C196 C 0.10434 0.95577 0.05361 0.0
C197 C 0.08045 0.9664 0.05729 0.0
H198 H 0.80369 0.40958 0.26561 0.0
H199 H 0.86889 0.45822 0.39209 0.0
H200 H 0.84445 0.49499 0.40132 0.0
H201 H 0.80046 0.48453 0.21677 0.0
H202 H 0.75654 0.45978 0.20108 0.0
H203 H 0.78333 0.44151 0.19843 0.0
H204 H 0.74288 0.39444 0.25817 0.0
H205 H 0.71625 0.41275 0.26154 0.0
H206 H 0.73299 0.4053 0.31795 0.0
H207 H 0.80872 0.52124 0.40405 0.0
H208 H 0.76399 0.5361 0.39932 0.0
H209 H 0.72024 0.46969 0.2726 0.0
C210 C 0.81358 0.42886 0.29394 0.0
C211 C 0.83847 0.43158 0.32768 0.0
C212 C 0.85002 0.45609 0.36565 0.0
C213 C 0.83635 0.4771 0.37111 0.0
C214 C 0.81099 0.47311 0.33845 0.0
C215 C 0.79974 0.44975 0.30041 0.0
C216 C 0.76968 0.44819 0.2741 0.0
C217 C 0.77801 0.45917 0.21934 0.0
C218 C 0.73863 0.41309 0.27822 0.0
C219 C 0.76527 0.47353 0.30427 0.0
C220 C 0.78967 0.48792 0.34074 0.0
C221 C 0.78976 0.51057 0.37516 0.0
C222 C 0.76417 0.51874 0.37235 0.0
C223 C 0.73876 0.50414 0.33554 0.0
C224 C 0.73956 0.48149 0.30084 0.0
H225 H 0.533 0.27438 0.28545 0.0
H226 H 0.48731 0.25613 0.43219 0.0
H227 H 0.49961 0.31468 0.43578 0.0
H228 H 0.60001 0.35055 0.31043 0.0
H229 H 0.6017 0.36921 0.25057 0.0
H230 H 0.5837 0.32475 0.2556 0.0
H231 H 0.52842 0.31624 0.2157 0.0
H232 H 0.54632 0.36086 0.2106 0.0
H233 H 0.50707 0.33629 0.24294 0.0
H234 H 0.52534 0.37654 0.42961 0.0
H235 H 0.56252 0.43681 0.41436 0.0
H236 H 0.59008 0.41475 0.27048 0.0
C237 C 0.52479 0.28248 0.3178 0.0
C238 C 0.50918 0.26081 0.35855 0.0
C239 C 0.49918 0.27235 0.4005 0.0
C240 C 0.50592 0.3055 0.40272 0.0
C241 C 0.52218 0.32653 0.36238 0.0
C242 C 0.53119 0.31537 0.32046 0.0
C243 C 0.55151 0.34368 0.28451 0.0
C244 C 0.58627 0.34725 0.27476 0.0
C245 C 0.53217 0.33898 0.23554 0.0
C246 C 0.55428 0.37287 0.31405 0.0
C247 C 0.53662 0.36238 0.35844 0.0
C248 C 0.53853 0.38501 0.39446 0.0
C249 C 0.55977 0.41917 0.38554 0.0
C250 C 0.57879 0.4303 0.34101 0.0
C251 C 0.57511 0.4069 0.30421 0.0
H252 H 0.61558 0.22155 0.42128 0.0
H253 H 0.59526 0.15658 0.29347 0.0
H254 H 0.65585 0.17577 0.28613 0.0
H255 H 0.68581 0.28879 0.37421 0.0
H256 H 0.70889 0.30204 0.43204 0.0
H257 H 0.66375 0.27893 0.43295 0.0
H258 H 0.66521 0.23459 0.49081 0.0
H259 H 0.71052 0.25766 0.49008 0.0
H260 H 0.6884 0.21432 0.47192 0.0
H261 H 0.71804 0.20834 0.28373 0.0
H262 H 0.77786 0.25185 0.28678 0.0
H263 H 0.75873 0.29484 0.4178 0.0
C264 C 0.62381 0.21069 0.3926 0.0
C265 C 0.60078 0.18749 0.35802 0.0
C266 C 0.61249 0.17428 0.32045 0.0
C267 C 0.64683 0.18491 0.31617 0.0
C268 C 0.66901 0.20847 0.35008 0.0
C269 C 0.65799 0.22102 0.38788 0.0
C270 C 0.68726 0.24861 0.41617 0.0
C271 C 0.68636 0.28152 0.41364 0.0
C272 C 0.68788 0.23816 0.47047 0.0
C273 C 0.71648 0.2508 0.38676 0.0
C274 C 0.70535 0.22702 0.34929 0.0
C275 C 0.72716 0.22646 0.31367 0.0
C276 C 0.76102 0.25129 0.3156 0.0
C277 C 0.77277 0.27618 0.35301 0.0
C278 C 0.75045 0.27538 0.38985 0.0
H279 H 0.39905 0.81539 0.73185 0.0
H280 H 0.41012 0.84776 0.57748 0.0
H281 H 0.45184 0.82969 0.56394 0.0
H282 H 0.48781 0.83714 0.75189 0.0
H283 H 0.47614 0.8006 0.78961 0.0
H284 H 0.45005 0.81967 0.789 0.0
H285 H 0.39879 0.76309 0.7633 0.0
H286 H 0.4247 0.74391 0.76365 0.0
H287 H 0.40143 0.74203 0.7083 0.0
H288 H 0.48842 0.80377 0.56464 0.0
H289 H 0.51739 0.77146 0.58004 0.0
H290 H 0.48244 0.75537 0.73346 0.0
C291 C 0.41089 0.81936 0.69561 0.0
C292 C 0.40155 0.83315 0.65581 0.0
C293 C 0.41697 0.83728 0.60854 0.0
C294 C 0.44079 0.8272 0.60048 0.0
C295 C 0.44895 0.81301 0.64007 0.0
C296 C 0.4346 0.80916 0.68677 0.0
C297 C 0.446 0.79092 0.72181 0.0
C298 C 0.46621 0.81344 0.76567 0.0
C299 C 0.41594 0.75804 0.74033 0.0
C300 C 0.46829 0.78449 0.68715 0.0
C301 C 0.46994 0.79775 0.64033 0.0
C302 C 0.48769 0.79362 0.60134 0.0
C303 C 0.504 0.7752 0.61038 0.0
C304 C 0.50229 0.76107 0.65793 0.0
C305 C 0.48448 0.76615 0.69683 0.0
H306 H 0.25497 0.74085 0.72318 0.0
H307 H 0.24008 0.7585 0.56857 0.0
H308 H 0.20509 0.69763 0.5555 0.0
H309 H 0.26793 0.67593 0.70238 0.0
H310 H 0.24657 0.65192 0.75701 0.0
H311 H 0.26421 0.69646 0.75726 0.0
H312 H 0.20616 0.68941 0.78043 0.0
H313 H 0.18829 0.64466 0.7806 0.0
H314 H 0.1701 0.66365 0.74207 0.0
H315 H 0.18119 0.63621 0.55523 0.0
H316 H 0.1692 0.57837 0.56768 0.0
H317 H 0.19849 0.59986 0.72305 0.0
C318 C 0.2435 0.73196 0.68695 0.0
C319 C 0.25011 0.75432 0.64685 0.0
C320 C 0.23517 0.74177 0.59981 0.0
C321 C 0.21516 0.70726 0.59215 0.0
C322 C 0.21008 0.68581 0.63209 0.0
C323 C 0.22352 0.69767 0.67876 0.0
C324 C 0.21761 0.66946 0.71384 0.0
C325 C 0.25107 0.67371 0.73374 0.0
C326 C 0.19414 0.66663 0.75678 0.0
C327 C 0.20049 0.63998 0.67879 0.0
C328 C 0.19581 0.64993 0.63208 0.0
C329 C 0.18393 0.62797 0.59189 0.0
C330 C 0.17738 0.59525 0.59926 0.0
C331 C 0.18269 0.58478 0.64644 0.0
C332 C 0.19346 0.60713 0.68702 0.0
H333 H 0.28605 0.55002 0.72939 0.0
H334 H 0.27725 0.48999 0.59967 0.0
H335 H 0.33843 0.51111 0.60233 0.0
H336 H 0.35867 0.62018 0.69242 0.0
H337 H 0.377 0.63218 0.75375 0.0
H338 H 0.33212 0.60815 0.74689 0.0
H339 H 0.33048 0.56294 0.80626 0.0
H340 H 0.37552 0.58687 0.81313 0.0
H341 H 0.35583 0.54408 0.79247 0.0
H342 H 0.40039 0.54416 0.61147 0.0
H343 H 0.45921 0.58828 0.62445 0.0
H344 H 0.42859 0.62684 0.74903 0.0
C345 C 0.2969 0.54067 0.70232 0.0
C346 C 0.27696 0.51819 0.66449 0.0
C347 C 0.29209 0.5071 0.62904 0.0
C348 C 0.32676 0.5188 0.6305 0.0
C349 C 0.34585 0.54145 0.66774 0.0
C350 C 0.33148 0.55225 0.7031 0.0
C351 C 0.35801 0.57941 0.73572 0.0
C352 C 0.35635 0.61189 0.73192 0.0
C353 C 0.35476 0.56761 0.79013 0.0
C354 C 0.38966 0.5832 0.71184 0.0
C355 C 0.38199 0.56061 0.67324 0.0
C356 C 0.40674 0.56144 0.64225 0.0
C357 C 0.44004 0.58659 0.64985 0.0
C358 C 0.4483 0.61051 0.68817 0.0
C359 C 0.42297 0.60818 0.7205 0.0
H360 H 0.06233 0.31216 0.93853 0.0
H361 H 0.01917 0.23152 0.83049 0.0
H362 H 0.04288 0.27261 0.7619 0.0
H363 H 0.04833 0.3716 0.86376 0.0
H364 H 0.08705 0.40706 0.88441 0.0
H365 H 0.06483 0.37139 0.92479 0.0
H366 H 0.11851 0.3664 0.93262 0.0
H367 H 0.14079 0.40177 0.89187 0.0
H368 H 0.13836 0.36253 0.87693 0.0
H369 H 0.07613 0.32127 0.70632 0.0
H370 H 0.11208 0.37549 0.6655 0.0
H371 H 0.13105 0.42545 0.8088 0.0
C372 C 0.05751 0.30324 0.90038 0.0
C373 C 0.03906 0.26874 0.8896 0.0
C374 C 0.03315 0.25789 0.83939 0.0
C375 C 0.04656 0.28101 0.80027 0.0
C376 C 0.06526 0.31481 0.81215 0.0
C377 C 0.07024 0.32601 0.86088 0.0
C378 C 0.09174 0.3637 0.86337 0.0
C379 C 0.07179 0.37936 0.88538 0.0
C380 C 0.12427 0.3742 0.89294 0.0
C381 C 0.09889 0.37186 0.80844 0.0
C382 C 0.08342 0.34321 0.77968 0.0
C383 C 0.08792 0.34393 0.72829 0.0
C384 C 0.10857 0.37479 0.70555 0.0
C385 C 0.12415 0.40453 0.7341 0.0
C386 C 0.11908 0.40307 0.78616 0.0
H387 H 0.72833 0.75743 0.94919 0.0
H388 H 0.80462 0.83598 0.85741 0.0
H389 H 0.76197 0.82439 0.79212 0.0
H390 H 0.6796 0.70063 0.84433 0.0
H391 H 0.64027 0.6875 0.87588 0.0
H392 H 0.67787 0.69925 0.91156 0.0
H393 H 0.66802 0.74235 0.95962 0.0
H394 H 0.63104 0.73156 0.92311 0.0
H395 H 0.66473 0.77428 0.92537 0.0
H396 H 0.70976 0.80933 0.74268 0.0
H397 H 0.65315 0.78634 0.70615 0.0
H398 H 0.61106 0.71708 0.83025 0.0
C399 C 0.73627 0.77153 0.91471 0.0
C400 C 0.7697 0.79754 0.90813 0.0
C401 C 0.77917 0.8157 0.86283 0.0
C402 C 0.75508 0.80945 0.82578 0.0
C403 C 0.72192 0.78471 0.83458 0.0
C404 C 0.71266 0.76548 0.8774 0.0
C405 C 0.67518 0.74139 0.87882 0.0
C406 C 0.6678 0.70504 0.87755 0.0
C407 C 0.6588 0.7478 0.92444 0.0
C408 C 0.66456 0.75076 0.8308 0.0
C409 C 0.69189 0.77579 0.80585 0.0
C410 C 0.68825 0.78939 0.7615 0.0
C411 C 0.65594 0.77636 0.7413 0.0
C412 C 0.62772 0.74992 0.76541 0.0
C413 C 0.63214 0.73733 0.81106 0.0
H414 H 0.28864 0.88617 0.82039 0.0
H415 H 0.2436 0.88998 0.67965 0.0
H416 H 0.21677 0.91836 0.72096 0.0
H417 H 0.21643 0.87162 0.89889 0.0
H418 H 0.24295 0.89712 0.94907 0.0
H419 H 0.25694 0.8751 0.909 0.0
H420 H 0.311 0.93083 0.88863 0.0
H421 H 0.29709 0.95303 0.92831 0.0
H422 H 0.3074 0.96531 0.86398 0.0
H423 H 0.19952 0.95128 0.7753 0.0
H424 H 0.18919 0.98256 0.84143 0.0
H425 H 0.24279 0.9549 0.94749 0.0
C426 C 0.2727 0.89253 0.7985 0.0
C427 C 0.26821 0.88589 0.74685 0.0
C428 C 0.24732 0.89472 0.71933 0.0
C429 C 0.23199 0.9109 0.74244 0.0
C430 C 0.2374 0.91769 0.79319 0.0
C431 C 0.25684 0.90839 0.82113 0.0
C432 C 0.25917 0.91934 0.8749 0.0
C433 C 0.24289 0.88898 0.91003 0.0
C434 C 0.29584 0.94357 0.8898 0.0
C435 C 0.23872 0.9369 0.87242 0.0
C436 C 0.22643 0.93573 0.82495 0.0
C437 C 0.20852 0.95193 0.81285 0.0
C438 C 0.2029 0.96971 0.85048 0.0
C439 C 0.21492 0.97079 0.89946 0.0
C440 C 0.23286 0.95401 0.91048 0.0
H441 H 0.38833 0.10841 0.29087 0.0
H442 H 0.46941 0.1418 0.18321 0.0
H443 H 0.42783 0.12146 0.1145 0.0
H444 H 0.32958 0.03282 0.22427 0.0
H445 H 0.29352 0.03633 0.24189 0.0
H446 H 0.32967 0.05258 0.28233 0.0
H447 H 0.33364 0.11063 0.28088 0.0
H448 H 0.29766 0.09465 0.24023 0.0
H449 H 0.33662 0.1307 0.22182 0.0
H450 H 0.37779 0.1005 0.05786 0.0
H451 H 0.32246 0.07757 0.01691 0.0
H452 H 0.27392 0.05626 0.16188 0.0
C453 C 0.39732 0.11125 0.25286 0.0
C454 C 0.43201 0.12673 0.24219 0.0
C455 C 0.44286 0.12992 0.19206 0.0
C456 C 0.41949 0.11851 0.15286 0.0
C457 C 0.38545 0.10369 0.16465 0.0
C458 C 0.37436 0.09973 0.21342 0.0
C459 C 0.33644 0.08317 0.21605 0.0
C460 C 0.32142 0.04921 0.2427 0.0
C461 C 0.32546 0.10617 0.24123 0.0
C462 C 0.3279 0.07893 0.16104 0.0
C463 C 0.35655 0.09096 0.13205 0.0
C464 C 0.35516 0.09074 0.08016 0.0
C465 C 0.32365 0.07778 0.05726 0.0
C466 C 0.29397 0.06509 0.08628 0.0
C467 C 0.2962 0.06561 0.1388 0.0
H468 H 0.95412 0.25588 0.0632 0.0
H469 H 0.01656 0.24185 0.17145 0.0
H470 H -0.00071 0.26848 0.2362 0.0
H471 H 0.97122 0.33732 0.10911 0.0
H472 H 0.9291 0.32907 0.09689 0.0
H473 H 0.94716 0.30981 0.05887 0.0
H474 H 0.89669 0.25142 0.07937 0.0
H475 H 0.87853 0.27046 0.11754 0.0
H476 H 0.88639 0.23895 0.14366 0.0
H477 H 0.97213 0.29244 0.28987 0.0
H478 H 0.93961 0.31581 0.32876 0.0
H479 H 0.89712 0.31737 0.18464 0.0
C480 C 0.96428 0.25857 0.10048 0.0
C481 C 0.98652 0.24672 0.11259 0.0
C482 C -0.0005 0.25084 0.16157 0.0
C483 C 0.98984 0.26588 0.1985 0.0
C484 C 0.96762 0.27703 0.18543 0.0
C485 C 0.95529 0.27393 0.13752 0.0
C486 C 0.93159 0.28785 0.13336 0.0
C487 C 0.94562 0.31779 0.09743 0.0
C488 C 0.89621 0.26054 0.11756 0.0
C489 C 0.93198 0.29867 0.18675 0.0
C490 C 0.95286 0.29206 0.21611 0.0
C491 C 0.95604 0.2981 0.26719 0.0
C492 C 0.93734 0.3112 0.28892 0.0
C493 C 0.91603 0.31843 0.25952 0.0
C494 C 0.91358 0.31242 0.20771 0.0
H495 H 0.73989 0.61458 0.22268 0.0
H496 H 0.63879 0.59941 0.2324 0.0
H497 H 0.65862 0.65546 0.1959 0.0
H498 H 0.78291 0.69861 0.25661 0.0
H499 H 0.81728 0.71082 0.2136 0.0
H500 H 0.79488 0.66864 0.23681 0.0
H501 H 0.78144 0.64548 0.14651 0.0
H502 H 0.80469 0.68754 0.12297 0.0
H503 H 0.76171 0.6608 0.10391 0.0
H504 H 0.691 0.71535 0.16576 0.0
H505 H 0.73135 0.77073 0.13098 0.0
H506 H 0.81056 0.74535 0.13947 0.0
C507 C 0.72178 0.62277 0.2161 0.0
C508 C 0.68785 0.6028 0.23017 0.0
C509 C 0.66485 0.6143 0.22129 0.0
C510 C 0.67595 0.64618 0.20108 0.0
C511 C 0.70994 0.66585 0.18948 0.0
C512 C 0.73233 0.65424 0.19555 0.0
C513 C 0.76751 0.68016 0.18023 0.0
C514 C 0.79208 0.69013 0.22446 0.0
C515 C 0.77953 0.66776 0.13575 0.0
C516 C 0.76159 0.70841 0.16525 0.0
C517 C 0.72832 0.69985 0.17126 0.0
C518 C 0.71705 0.72221 0.16049 0.0
C519 C 0.74019 0.7537 0.14127 0.0
C520 C 0.77401 0.76223 0.13268 0.0
C521 C 0.78486 0.73949 0.14579 0.0
H522 H 0.06225 0.43175 0.59418 0.0
H523 H 0.13878 0.48169 0.48083 0.0
H524 H 0.09435 0.46926 0.41804 0.0
H525 H 0.00192 0.36527 0.51353 0.0
H526 H 0.9663 0.3643 0.54363 0.0
H527 H 0.00426 0.37642 0.57847 0.0
H528 H 0.00652 0.43191 0.60261 0.0
H529 H 0.96892 0.42025 0.5671 0.0
H530 H 0.00667 0.45912 0.55411 0.0
H531 H 0.04178 0.45488 0.36979 0.0
H532 H 0.98459 0.43326 0.33613 0.0
H533 H 0.94244 0.39059 0.48078 0.0
C534 C 0.06963 0.43976 0.556 0.0
C535 C 0.10381 0.45773 0.54212 0.0
C536 C 0.11263 0.4677 0.49192 0.0
C537 C 0.08763 0.46096 0.45622 0.0
C538 C 0.05412 0.44387 0.47146 0.0
C539 C 0.04508 0.43285 0.51993 0.0
C540 C 0.00733 0.41465 0.52669 0.0
C541 C 0.99418 0.37798 0.54143 0.0
C542 C -0.00324 0.43257 0.56489 0.0
C543 C -0.00356 0.41748 0.47451 0.0
C544 C 0.02383 0.43469 0.44335 0.0
C545 C 0.02014 0.44112 0.3937 0.0
C546 C 0.98757 0.42892 0.37505 0.0
C547 C 0.95914 0.41024 0.40591 0.0
C548 C 0.96373 0.40478 0.45637 0.0
H549 H 0.62263 0.59864 0.39954 0.0
H550 H 0.67441 0.56763 0.50388 0.0
H551 H 0.66336 0.59719 0.57179 0.0
H552 H 0.65112 0.68158 0.45465 0.0
H553 H 0.6115 0.67972 0.44278 0.0
H554 H 0.62593 0.65848 0.40182 0.0
H555 H 0.57041 0.60293 0.4164 0.0
H556 H 0.55587 0.62392 0.45744 0.0
H557 H 0.5578 0.58792 0.47925 0.0
H558 H 0.64209 0.62523 0.62912 0.0
H559 H 0.61348 0.65142 0.67206 0.0
H560 H 0.57701 0.66575 0.52982 0.0
C561 C 0.632 0.59841 0.43654 0.0
C562 C 0.64931 0.58085 0.44663 0.0
C563 C 0.66114 0.58103 0.49547 0.0
C564 C 0.65505 0.59776 0.53419 0.0
C565 C 0.63747 0.61445 0.5231 0.0
C566 C 0.62638 0.61516 0.47541 0.0
C567 C 0.60683 0.63367 0.47378 0.0
C568 C 0.62494 0.66524 0.44134 0.0
C569 C 0.57059 0.61073 0.45566 0.0
C570 C 0.60778 0.64243 0.52836 0.0
C571 C 0.62576 0.63127 0.55608 0.0
C572 C 0.62837 0.63451 0.60774 0.0
C573 C 0.61193 0.64928 0.63178 0.0
C574 C 0.59324 0.6607 0.60411 0.0
C575 C 0.59158 0.65767 0.55171 0.0
H576 H 0.36452 0.93226 0.52675 0.0
H577 H 0.39145 0.97147 0.67722 0.0
H578 H 0.42335 0.02871 0.64357 0.0
H579 H 0.44406 0.98818 0.47176 0.0
H580 H 0.42644 0.99247 0.4139 0.0
H581 H 0.40436 0.95466 0.4499 0.0
H582 H 0.35165 0.96168 0.45216 0.0
H583 H 0.37358 -0.00048 0.41611 0.0
H584 H 0.35536 2e-05 0.47546 0.0
H585 H 0.45186 0.0817 0.59374 0.0
H586 H 0.47768 0.12659 0.5304 0.0
H587 H 0.43451 0.05253 0.4127 0.0
C588 C 0.37696 0.95294 0.55254 0.0
C589 C 0.37546 0.94754 0.60451 0.0
C590 C 0.39235 0.97512 0.63719 0.0
C591 C 0.41044 0.00771 0.61849 0.0
C592 C 0.41158 0.01223 0.56704 0.0
C593 C 0.39549 0.98563 0.53447 0.0
C594 C 0.40169 -0.00274 0.48075 0.0
C595 C 0.42025 0.98226 0.45242 0.0
C596 C 0.3686 0.98914 0.45459 0.0
C597 C 0.4239 0.03449 0.48825 0.0
C598 C 0.429 0.04267 0.53829 0.0
C599 C 0.44818 0.07563 0.55441 0.0
C600 C 0.46268 0.1009 0.51829 0.0
C601 C 0.45821 0.09289 0.46688 0.0
C602 C 0.43857 0.05928 0.45183 0.0
loop_
_geom_bond_atom_site_label_1
_geom_bond_atom_site_label_2
_geom_bond_distance
_geom_bond_site_symmetry_2
_ccdc_geom_bond_type
In0 O1 2.294 1_554 S
In0 O2 2.326 1_554 S
In0 O6 2.266 1_454 S
In0 O7 2.326 1_455 S
In0 O8 2.266 . S
In0 O9 2.326 1_554 S
In0 O11 2.294 . S
In0 O12 2.326 1_455 S
O1 In0 2.294 1_556 S
O1 C10 1.240 . S
O2 In0 2.326 1_556 S
O2 C10 1.252 . S
C3 O6 1.252 1_554 S
C3 O7 1.260 . S
C4 O11 1.240 1_655 S
C4 O12 1.252 . S
C5 O8 1.252 . S
C5 O9 1.260 1_554 S
O6 In0 2.266 1_656 S
O6 C3 1.252 1_556 S
O7 In0 2.326 1_655 S
O7 C3 1.260 . S
O8 In0 2.266 . S
O8 C5 1.252 . S
O9 In0 2.326 1_556 S
O9 C5 1.260 1_556 S
C10 O1 1.240 . S
C10 O2 1.252 . S
O11 In0 2.294 . S
O11 C4 1.240 1_455 S
O12 In0 2.326 1_655 S
O12 C4 1.252 . S
In13 O14 2.294 1_554 S
In13 O15 2.326 1_554 S
In13 O19 2.266 1_554 S
In13 O20 2.326 . S
In13 O21 2.266 . S
In13 O22 2.326 1_554 S
In13 O24 2.294 . S
In13 O25 2.326 . S
O14 In13 2.294 1_556 S
O14 C23 1.240 . S
O15 In13 2.326 1_556 S
O15 C23 1.252 . S
C16 O19 1.252 1_554 S
C16 O20 1.260 . S
C17 O24 1.240 . S
C17 O25 1.252 . S
C18 O21 1.252 . S
C18 O22 1.260 1_554 S
O19 In13 2.266 1_556 S
O19 C16 1.252 1_556 S
O20 In13 2.326 . S
O20 C16 1.260 . S
O21 In13 2.266 . S
O21 C18 1.252 . S
O22 In13 2.326 1_556 S
O22 C18 1.260 1_556 S
C23 O14 1.240 . S
C23 O15 1.252 . S
O24 In13 2.294 . S
O24 C17 1.240 . S
O25 In13 2.326 . S
O25 C17 1.252 . S
In26 O27 2.294 . S
In26 O28 2.326 . S
In26 O32 2.266 1_545 S
In26 O33 2.326 1_544 S
In26 O34 2.266 1_554 S
In26 O35 2.326 . S
In26 O37 2.294 1_554 S
In26 O38 2.326 1_544 S
O27 In26 2.294 . S
O27 C36 1.240 . S
O28 In26 2.326 . S
O28 C36 1.252 . S
C29 O32 1.252 . S
C29 O33 1.260 1_554 S
C30 O37 1.243 . S
C30 O38 1.251 1_545 S
C31 O34 1.252 1_554 S
C31 O35 1.260 . S
O32 In26 2.266 1_565 S
O32 C29 1.252 . S
O33 In26 2.326 1_566 S
O33 C29 1.260 1_556 S
O34 In26 2.266 1_556 S
O34 C31 1.252 1_556 S
O35 In26 2.326 . S
O35 C31 1.260 . S
C36 O27 1.240 . S
C36 O28 1.252 . S
O37 In26 2.294 1_556 S
O37 C30 1.243 . S
O38 In26 2.326 1_566 S
O38 C30 1.251 1_565 S
In39 O40 2.294 . S
In39 O41 2.326 . S
In39 O45 2.266 . S
In39 O46 2.326 . S
In39 O47 2.266 . S
In39 O48 2.326 . S
In39 O50 2.294 . S
In39 O51 2.326 . S
O40 In39 2.294 . S
O40 C49 1.240 . S
O41 In39 2.326 . S
O41 C49 1.252 . S
C42 O45 1.252 . S
C42 O46 1.260 . S
C43 O50 1.240 . S
C43 O51 1.252 . S
C44 O47 1.252 . S
C44 O48 1.260 . S
O45 In39 2.266 . S
O45 C42 1.252 . S
O46 In39 2.326 . S
O46 C42 1.260 . S
O47 In39 2.266 . S
O47 C44 1.252 . S
O48 In39 2.326 . S
O48 C44 1.260 . S
C49 O40 1.240 . S
C49 O41 1.252 . S
O50 In39 2.294 . S
O50 C43 1.240 . S
O51 In39 2.326 . S
O51 C43 1.252 . S
In52 O53 2.294 . S
In52 O54 2.326 . S
In52 O58 2.266 . S
In52 O59 2.326 . S
In52 O60 2.266 . S
In52 O61 2.326 . S
In52 O63 2.294 . S
In52 O64 2.326 . S
O53 In52 2.294 . S
O53 C62 1.240 . S
O54 In52 2.326 . S
O54 C62 1.252 . S
C55 O58 1.252 . S
C55 O59 1.260 . S
C56 O63 1.240 . S
C56 O64 1.252 . S
C57 O60 1.252 . S
C57 O61 1.260 . S
O58 In52 2.266 . S
O58 C55 1.252 . S
O59 In52 2.326 . S
O59 C55 1.260 . S
O60 In52 2.266 . S
O60 C57 1.252 . S
O61 In52 2.326 . S
O61 C57 1.260 . S
C62 O53 1.240 . S
C62 O54 1.252 . S
O63 In52 2.294 . S
O63 C56 1.240 . S
O64 In52 2.326 . S
O64 C56 1.252 . S
In65 O66 2.294 . S
In65 O67 2.326 . S
In65 O71 2.266 . S
In65 O72 2.326 . S
In65 O73 2.266 . S
In65 O74 2.326 . S
In65 O76 2.294 . S
In65 O77 2.326 . S
O66 In65 2.294 . S
O66 C75 1.240 . S
O67 In65 2.326 . S
O67 C75 1.252 . S
C68 O71 1.252 . S
C68 O72 1.260 . S
C69 O76 1.240 . S
C69 O77 1.252 . S
C70 O73 1.252 . S
C70 O74 1.260 . S
O71 In65 2.266 . S
O71 C68 1.252 . S
O72 In65 2.326 . S
O72 C68 1.260 . S
O73 In65 2.266 . S
O73 C70 1.252 . S
O74 In65 2.326 . S
O74 C70 1.260 . S
C75 O66 1.240 . S
C75 O67 1.252 . S
O76 In65 2.294 . S
O76 C69 1.240 . S
O77 In65 2.326 . S
O77 C69 1.252 . S
In78 O79 2.294 . S
In78 O80 2.326 . S
In78 O84 2.266 . S
In78 O85 2.326 . S
In78 O86 2.266 . S
In78 O87 2.326 . S
In78 O89 2.294 . S
In78 O90 2.326 . S
O79 In78 2.294 . S
O79 C88 1.240 . S
O80 In78 2.326 . S
O80 C88 1.252 . S
C81 O84 1.252 . S
C81 O85 1.260 . S
C82 O89 1.240 . S
C82 O90 1.252 . S
C83 O86 1.252 . S
C83 O87 1.260 . S
O84 In78 2.266 . S
O84 C81 1.252 . S
O85 In78 2.326 . S
O85 C81 1.260 . S
O86 In78 2.266 . S
O86 C83 1.252 . S
O87 In78 2.326 . S
O87 C83 1.260 . S
C88 O79 1.240 . S
C88 O80 1.252 . S
O89 In78 2.294 . S
O89 C82 1.240 . S
O90 In78 2.326 . S
O90 C82 1.252 . S
In91 O92 2.294 . S
In91 O93 2.326 . S
In91 O97 2.266 . S
In91 O98 2.326 . S
In91 O99 2.266 . S
In91 O100 2.326 . S
In91 O102 2.294 . S
In91 O103 2.326 . S
O92 In91 2.294 . S
O92 C101 1.240 . S
O93 In91 2.326 . S
O93 C101 1.252 . S
C94 O97 1.252 . S
C94 O98 1.260 . S
C95 O102 1.240 . S
C95 O103 1.252 . S
C96 O99 1.252 . S
C96 O100 1.260 . S
O97 In91 2.266 . S
O97 C94 1.252 . S
O98 In91 2.326 . S
O98 C94 1.260 . S
O99 In91 2.266 . S
O99 C96 1.252 . S
O100 In91 2.326 . S
O100 C96 1.260 . S
C101 O92 1.240 . S
C101 O93 1.252 . S
O102 In91 2.294 . S
O102 C95 1.240 . S
O103 In91 2.326 . S
O103 C95 1.252 . S
In104 O105 2.294 . S
In104 O106 2.326 . S
In104 O110 2.266 . S
In104 O111 2.326 . S
In104 O112 2.266 . S
In104 O113 2.326 . S
In104 O115 2.294 . S
In104 O116 2.326 . S
O105 In104 2.294 . S
O105 C114 1.240 . S
O106 In104 2.326 . S
O106 C114 1.252 . S
C107 O110 1.252 . S
C107 O111 1.260 . S
C108 O115 1.240 . S
C108 O116 1.252 . S
C109 O112 1.252 . S
C109 O113 1.260 . S
O110 In104 2.266 . S
O110 C107 1.252 . S
O111 In104 2.326 . S
O111 C107 1.260 . S
O112 In104 2.266 . S
O112 C109 1.252 . S
O113 In104 2.326 . S
O113 C109 1.260 . S
C114 O105 1.240 . S
C114 O106 1.252 . S
O115 In104 2.294 . S
O115 C108 1.240 . S
O116 In104 2.326 . S
O116 C108 1.252 . S
H117 C129 0.930 . S
H118 C131 0.930 . S
H119 C132 0.930 . S
H120 C136 0.959 . S
H121 C136 0.959 . S
H122 C136 0.961 . S
H123 C137 0.960 . S
H124 C137 0.961 . S
H125 C137 0.959 . S
H126 C140 0.929 . S
H127 C141 0.931 . S
H128 C143 0.930 . S
C129 H117 0.930 . S
C129 C130 1.399 . S
C129 C134 1.399 . S
C130 C129 1.399 . S
C130 C131 1.376 1_554 S
C131 H118 0.930 . S
C131 C130 1.376 1_556 S
C131 C132 1.388 . S
C132 H119 0.930 . S
C132 C131 1.388 . S
C132 C133 1.390 . S
C133 C132 1.390 . S
C133 C134 1.394 1_556 S
C133 C139 1.465 . S
C134 C129 1.399 . S
C134 C133 1.394 1_554 S
C134 C135 1.516 . S
C135 C134 1.516 . S
C135 C136 1.502 . S
C135 C137 1.561 . S
C135 C138 1.526 . S
C136 H120 0.959 . S
C136 H121 0.959 . S
C136 H122 0.961 . S
C136 C135 1.502 . S
C137 H123 0.960 . S
C137 H124 0.961 . S
C137 H125 0.959 . S
C137 C135 1.561 . S
C138 C135 1.526 . S
C138 C139 1.396 1_554 S
C138 C143 1.390 . S
C139 C133 1.465 . S
C139 C138 1.396 1_556 S
C139 C140 1.399 . S
C140 H126 0.929 . S
C140 C139 1.399 . S
C140 C141 1.385 . S
C141 H127 0.931 . S
C141 C140 1.385 . S
C141 C142 1.389 1_556 S
C142 C141 1.389 1_554 S
C142 C143 1.387 . S
C143 H128 0.930 . S
C143 C138 1.390 . S
C143 C142 1.387 . S
H144 C156 0.930 . S
H145 C158 0.930 . S
H146 C159 0.930 . S
H147 C163 0.959 . S
H148 C163 0.959 . S
H149 C163 0.961 . S
H150 C164 0.960 . S
H151 C164 0.961 . S
H152 C164 0.959 . S
H153 C167 0.929 . S
H154 C168 0.931 . S
H155 C170 0.930 . S
C156 H144 0.930 . S
C156 C157 1.399 . S
C156 C161 1.399 . S
C157 C156 1.399 . S
C157 C158 1.376 1_554 S
C158 H145 0.930 . S
C158 C157 1.376 1_556 S
C158 C159 1.388 . S
C159 H146 0.930 . S
C159 C158 1.388 . S
C159 C160 1.390 1_565 S
C160 C159 1.390 1_545 S
C160 C161 1.394 1_546 S
C160 C166 1.465 . S
C161 C156 1.399 . S
C161 C160 1.394 1_564 S
C161 C162 1.516 1_565 S
C162 C161 1.516 1_545 S
C162 C163 1.502 . S
C162 C164 1.561 . S
C162 C165 1.526 . S
C163 H147 0.959 . S
C163 H148 0.959 . S
C163 H149 0.961 . S
C163 C162 1.502 . S
C164 H150 0.960 . S
C164 H151 0.961 . S
C164 H152 0.959 . S
C164 C162 1.561 . S
C165 C162 1.526 . S
C165 C166 1.396 1_554 S
C165 C170 1.390 . S
C166 C160 1.465 . S
C166 C165 1.396 1_556 S
C166 C167 1.399 . S
C167 H153 0.929 . S
C167 C166 1.399 . S
C167 C168 1.385 . S
C168 H154 0.931 . S
C168 C167 1.385 . S
C168 C169 1.389 1_556 S
C169 C168 1.389 1_554 S
C169 C170 1.387 . S
C170 H155 0.930 . S
C170 C165 1.390 . S
C170 C169 1.387 . S
H171 C183 0.930 1_556 S
H172 C185 0.930 . S
H173 C186 0.930 . S
H174 C190 0.959 . S
H175 C190 0.959 . S
H176 C190 0.962 1_655 S
H177 C191 0.960 1_655 S
H178 C191 0.961 . S
H179 C191 0.959 . S
H180 C194 0.929 . S
H181 C195 0.931 . S
H182 C197 0.930 . S
C183 H171 0.930 1_554 S
C183 C184 1.399 . S
C183 C188 1.399 . S
C184 C183 1.399 . S
C184 C185 1.376 . S
C185 H172 0.930 . S
C185 C184 1.376 . S
C185 C186 1.388 . S
C186 H173 0.930 . S
C186 C185 1.388 . S
C186 C187 1.390 . S
C187 C186 1.390 . S
C187 C188 1.394 . S
C187 C193 1.465 1_655 S
C188 C183 1.399 . S
C188 C187 1.394 . S
C188 C189 1.516 1_655 S
C189 C188 1.516 1_455 S
C189 C190 1.502 1_554 S
C189 C191 1.561 . S
C189 C192 1.526 . S
C190 H174 0.959 . S
C190 H175 0.959 . S
C190 H176 0.962 1_455 S
C190 C189 1.502 1_556 S
C191 H177 0.960 1_455 S
C191 H178 0.961 . S
C191 H179 0.959 . S
C191 C189 1.561 . S
C192 C189 1.526 . S
C192 C193 1.396 . S
C192 C197 1.390 . S
C193 C187 1.465 1_455 S
C193 C192 1.396 . S
C193 C194 1.399 . S
C194 H180 0.929 . S
C194 C193 1.399 . S
C194 C195 1.385 . S
C195 H181 0.931 . S
C195 C194 1.385 . S
C195 C196 1.389 . S
C196 C195 1.389 . S
C196 C197 1.387 . S
C197 H182 0.930 . S
C197 C192 1.390 . S
C197 C196 1.387 . S
H198 C210 0.930 . S
H199 C212 0.930 . S
H200 C213 0.930 . S
H201 C217 0.959 . S
H202 C217 0.959 . S
H203 C217 0.961 . S
H204 C218 0.960 . S
H205 C218 0.961 . S
H206 C218 0.959 . S
H207 C221 0.929 . S
H208 C222 0.931 . S
H209 C224 0.930 . S
C210 H198 0.930 . S
C210 C211 1.399 . S
C210 C215 1.399 . S
C211 C210 1.399 . S
C211 C212 1.376 . S
C212 H199 0.930 . S
C212 C211 1.376 . S
C212 C213 1.388 . S
C213 H200 0.930 . S
C213 C212 1.388 . S
C213 C214 1.390 . S
C214 C213 1.390 . S
C214 C215 1.394 . S
C214 C220 1.465 . S
C215 C210 1.399 . S
C215 C214 1.394 . S
C215 C216 1.516 . S
C216 C215 1.516 . S
C216 C217 1.502 . S
C216 C218 1.561 . S
C216 C219 1.526 . S
C217 H201 0.959 . S
C217 H202 0.959 . S
C217 H203 0.961 . S
C217 C216 1.502 . S
C218 H204 0.960 . S
C218 H205 0.961 . S
C218 H206 0.959 . S
C218 C216 1.561 . S
C219 C216 1.526 . S
C219 C220 1.396 . S
C219 C224 1.390 . S
C220 C214 1.465 . S
C220 C219 1.396 . S
C220 C221 1.399 . S
C221 H207 0.929 . S
C221 C220 1.399 . S
C221 C222 1.385 . S
C222 H208 0.931 . S
C222 C221 1.385 . S
C222 C223 1.389 . S
C223 C222 1.389 . S
C223 C224 1.387 . S
C224 H209 0.930 . S
C224 C219 1.390 . S
C224 C223 1.387 . S
H225 C237 0.930 . S
H226 C239 0.930 . S
H227 C240 0.930 . S
H228 C244 0.959 . S
H229 C244 0.959 . S
H230 C244 0.961 . S
H231 C245 0.960 . S
H232 C245 0.961 . S
H233 C245 0.959 . S
H234 C248 0.929 . S
H235 C249 0.931 . S
H236 C251 0.930 . S
C237 H225 0.930 . S
C237 C238 1.399 . S
C237 C242 1.399 . S
C238 C237 1.399 . S
C238 C239 1.376 . S
C239 H226 0.930 . S
C239 C238 1.376 . S
C239 C240 1.388 . S
C240 H227 0.930 . S
C240 C239 1.388 . S
C240 C241 1.390 . S
C241 C240 1.390 . S
C241 C242 1.394 . S
C241 C247 1.465 . S
C242 C237 1.399 . S
C242 C241 1.394 . S
C242 C243 1.516 . S
C243 C242 1.516 . S
C243 C244 1.502 . S
C243 C245 1.561 . S
C243 C246 1.526 . S
C244 H228 0.959 . S
C244 H229 0.959 . S
C244 H230 0.961 . S
C244 C243 1.502 . S
C245 H231 0.960 . S
C245 H232 0.961 . S
C245 H233 0.959 . S
C245 C243 1.561 . S
C246 C243 1.526 . S
C246 C247 1.396 . S
C246 C251 1.390 . S
C247 C241 1.465 . S
C247 C246 1.396 . S
C247 C248 1.399 . S
C248 H234 0.929 . S
C248 C247 1.399 . S
C248 C249 1.385 . S
C249 H235 0.931 . S
C249 C248 1.385 . S
C249 C250 1.389 . S
C250 C249 1.389 . S
C250 C251 1.387 . S
C251 H236 0.930 . S
C251 C246 1.390 . S
C251 C250 1.387 . S
H252 C264 0.930 . S
H253 C266 0.930 . S
H254 C267 0.930 . S
H255 C271 0.959 . S
H256 C271 0.959 . S
H257 C271 0.961 . S
H258 C272 0.960 . S
H259 C272 0.961 . S
H260 C272 0.959 . S
H261 C275 0.929 . S
H262 C276 0.931 . S
H263 C278 0.930 . S
C264 H252 0.930 . S
C264 C265 1.399 . S
C264 C269 1.399 . S
C265 C264 1.399 . S
C265 C266 1.376 . S
C266 H253 0.930 . S
C266 C265 1.376 . S
C266 C267 1.388 . S
C267 H254 0.930 . S
C267 C266 1.388 . S
C267 C268 1.390 . S
C268 C267 1.390 . S
C268 C269 1.394 . S
C268 C274 1.465 . S
C269 C264 1.399 . S
C269 C268 1.394 . S
C269 C270 1.516 . S
C270 C269 1.516 . S
C270 C271 1.502 . S
C270 C272 1.561 . S
C270 C273 1.526 . S
C271 H255 0.959 . S
C271 H256 0.959 . S
C271 H257 0.961 . S
C271 C270 1.502 . S
C272 H258 0.960 . S
C272 H259 0.961 . S
C272 H260 0.959 . S
C272 C270 1.561 . S
C273 C270 1.526 . S
C273 C274 1.396 . S
C273 C278 1.390 . S
C274 C268 1.465 . S
C274 C273 1.396 . S
C274 C275 1.399 . S
C275 H261 0.929 . S
C275 C274 1.399 . S
C275 C276 1.385 . S
C276 H262 0.931 . S
C276 C275 1.385 . S
C276 C277 1.389 . S
C277 C276 1.389 . S
C277 C278 1.387 . S
C278 H263 0.930 . S
C278 C273 1.390 . S
C278 C277 1.387 . S
H279 C291 0.930 . S
H280 C293 0.930 . S
H281 C294 0.930 . S
H282 C298 0.959 . S
H283 C298 0.959 . S
H284 C298 0.961 . S
H285 C299 0.960 . S
H286 C299 0.961 . S
H287 C299 0.959 . S
H288 C302 0.929 . S
H289 C303 0.931 . S
H290 C305 0.930 . S
C291 H279 0.930 . S
C291 C292 1.399 . S
C291 C296 1.399 . S
C292 C291 1.399 . S
C292 C293 1.376 . S
C293 H280 0.930 . S
C293 C292 1.376 . S
C293 C294 1.388 . S
C294 H281 0.930 . S
C294 C293 1.388 . S
C294 C295 1.390 . S
C295 C294 1.390 . S
C295 C296 1.394 . S
C295 C301 1.465 . S
C296 C291 1.399 . S
C296 C295 1.394 . S
C296 C297 1.516 . S
C297 C296 1.516 . S
C297 C298 1.502 . S
C297 C299 1.561 . S
C297 C300 1.526 . S
C298 H282 0.959 . S
C298 H283 0.959 . S
C298 H284 0.961 . S
C298 C297 1.502 . S
C299 H285 0.960 . S
C299 H286 0.961 . S
C299 H287 0.959 . S
C299 C297 1.561 . S
C300 C297 1.526 . S
C300 C301 1.396 . S
C300 C305 1.390 . S
C301 C295 1.465 . S
C301 C300 1.396 . S
C301 C302 1.399 . S
C302 H288 0.929 . S
C302 C301 1.399 . S
C302 C303 1.385 . S
C303 H289 0.931 . S
C303 C302 1.385 . S
C303 C304 1.389 . S
C304 C303 1.389 . S
C304 C305 1.387 . S
C305 H290 0.930 . S
C305 C300 1.390 . S
C305 C304 1.387 . S
H306 C318 0.930 . S
H307 C320 0.930 . S
H308 C321 0.930 . S
H309 C325 0.959 . S
H310 C325 0.959 . S
H311 C325 0.961 . S
H312 C326 0.960 . S
H313 C326 0.961 . S
H314 C326 0.959 . S
H315 C329 0.929 . S
H316 C330 0.931 . S
H317 C332 0.930 . S
C318 H306 0.930 . S
C318 C319 1.399 . S
C318 C323 1.399 . S
C319 C318 1.399 . S
C319 C320 1.376 . S
C320 H307 0.930 . S
C320 C319 1.376 . S
C320 C321 1.388 . S
C321 H308 0.930 . S
C321 C320 1.388 . S
C321 C322 1.390 . S
C322 C321 1.390 . S
C322 C323 1.394 . S
C322 C328 1.465 . S
C323 C318 1.399 . S
C323 C322 1.394 . S
C323 C324 1.516 . S
C324 C323 1.516 . S
C324 C325 1.502 . S
C324 C326 1.561 . S
C324 C327 1.526 . S
C325 H309 0.959 . S
C325 H310 0.959 . S
C325 H311 0.961 . S
C325 C324 1.502 . S
C326 H312 0.960 . S
C326 H313 0.961 . S
C326 H314 0.959 . S
C326 C324 1.561 . S
C327 C324 1.526 . S
C327 C328 1.396 . S
C327 C332 1.390 . S
C328 C322 1.465 . S
C328 C327 1.396 . S
C328 C329 1.399 . S
C329 H315 0.929 . S
C329 C328 1.399 . S
C329 C330 1.385 . S
C330 H316 0.931 . S
C330 C329 1.385 . S
C330 C331 1.389 . S
C331 C330 1.389 . S
C331 C332 1.387 . S
C332 H317 0.930 . S
C332 C327 1.390 . S
C332 C331 1.387 . S
H333 C345 0.930 . S
H334 C347 0.930 . S
H335 C348 0.930 . S
H336 C352 0.959 . S
H337 C352 0.959 . S
H338 C352 0.961 . S
H339 C353 0.960 . S
H340 C353 0.961 . S
H341 C353 0.959 . S
H342 C356 0.929 . S
H343 C357 0.931 . S
H344 C359 0.930 . S
C345 H333 0.930 . S
C345 C346 1.399 . S
C345 C350 1.399 . S
C346 C345 1.399 . S
C346 C347 1.376 . S
C347 H334 0.930 . S
C347 C346 1.376 . S
C347 C348 1.388 . S
C348 H335 0.930 . S
C348 C347 1.388 . S
C348 C349 1.390 . S
C349 C348 1.390 . S
C349 C350 1.394 . S
C349 C355 1.465 . S
C350 C345 1.399 . S
C350 C349 1.394 . S
C350 C351 1.516 . S
C351 C350 1.516 . S
C351 C352 1.502 . S
C351 C353 1.561 . S
C351 C354 1.526 . S
C352 H336 0.959 . S
C352 H337 0.959 . S
C352 H338 0.961 . S
C352 C351 1.502 . S
C353 H339 0.960 . S
C353 H340 0.961 . S
C353 H341 0.959 . S
C353 C351 1.561 . S
C354 C351 1.526 . S
C354 C355 1.396 . S
C354 C359 1.390 . S
C355 C349 1.465 . S
C355 C354 1.396 . S
C355 C356 1.399 . S
C356 H342 0.929 . S
C356 C355 1.399 . S
C356 C357 1.385 . S
C357 H343 0.931 . S
C357 C356 1.385 . S
C357 C358 1.389 . S
C358 C357 1.389 . S
C358 C359 1.387 . S
C359 H344 0.930 . S
C359 C354 1.390 . S
C359 C358 1.387 . S
H360 C372 0.930 . S
H361 C374 0.930 . S
H362 C375 0.930 . S
H363 C379 0.959 . S
H364 C379 0.959 . S
H365 C379 0.961 . S
H366 C380 0.960 . S
H367 C380 0.961 . S
H368 C380 0.959 . S
H369 C383 0.929 . S
H370 C384 0.931 . S
H371 C386 0.930 . S
C372 H360 0.930 . S
C372 C373 1.399 . S
C372 C377 1.399 . S
C373 C372 1.399 . S
C373 C374 1.376 . S
C374 H361 0.930 . S
C374 C373 1.376 . S
C374 C375 1.388 . S
C375 H362 0.930 . S
C375 C374 1.388 . S
C375 C376 1.390 . S
C376 C375 1.390 . S
C376 C377 1.394 . S
C376 C382 1.465 . S
C377 C372 1.399 . S
C377 C376 1.394 . S
C377 C378 1.516 . S
C378 C377 1.516 . S
C378 C379 1.502 . S
C378 C380 1.561 . S
C378 C381 1.526 . S
C379 H363 0.959 . S
C379 H364 0.959 . S
C379 H365 0.961 . S
C379 C378 1.502 . S
C380 H366 0.960 . S
C380 H367 0.961 . S
C380 H368 0.959 . S
C380 C378 1.561 . S
C381 C378 1.526 . S
C381 C382 1.396 . S
C381 C386 1.390 . S
C382 C376 1.465 . S
C382 C381 1.396 . S
C382 C383 1.399 . S
C383 H369 0.929 . S
C383 C382 1.399 . S
C383 C384 1.385 . S
C384 H370 0.931 . S
C384 C383 1.385 . S
C384 C385 1.389 . S
C385 C384 1.389 . S
C385 C386 1.387 . S
C386 H371 0.930 . S
C386 C381 1.390 . S
C386 C385 1.387 . S
H387 C399 0.930 . S
H388 C401 0.930 . S
H389 C402 0.930 . S
H390 C406 0.959 . S
H391 C406 0.959 . S
H392 C406 0.961 . S
H393 C407 0.960 . S
H394 C407 0.961 . S
H395 C407 0.959 . S
H396 C410 0.929 . S
H397 C411 0.931 . S
H398 C413 0.930 . S
C399 H387 0.930 . S
C399 C400 1.399 . S
C399 C404 1.399 . S
C400 C399 1.399 . S
C400 C401 1.376 . S
C401 H388 0.930 . S
C401 C400 1.376 . S
C401 C402 1.388 . S
C402 H389 0.930 . S
C402 C401 1.388 . S
C402 C403 1.390 . S
C403 C402 1.390 . S
C403 C404 1.394 . S
C403 C409 1.465 . S
C404 C399 1.399 . S
C404 C403 1.394 . S
C404 C405 1.516 . S
C405 C404 1.516 . S
C405 C406 1.502 . S
C405 C407 1.561 . S
C405 C408 1.526 . S
C406 H390 0.959 . S
C406 H391 0.959 . S
C406 H392 0.961 . S
C406 C405 1.502 . S
C407 H393 0.960 . S
C407 H394 0.961 . S
C407 H395 0.959 . S
C407 C405 1.561 . S
C408 C405 1.526 . S
C408 C409 1.396 . S
C408 C413 1.390 . S
C409 C403 1.465 . S
C409 C408 1.396 . S
C409 C410 1.399 . S
C410 H396 0.929 . S
C410 C409 1.399 . S
C410 C411 1.385 . S
C411 H397 0.931 . S
C411 C410 1.385 . S
C411 C412 1.389 . S
C412 C411 1.389 . S
C412 C413 1.387 . S
C413 H398 0.930 . S
C413 C408 1.390 . S
C413 C412 1.387 . S
H414 C426 0.930 . S
H415 C428 0.930 . S
H416 C429 0.930 . S
H417 C433 0.959 . S
H418 C433 0.959 . S
H419 C433 0.961 . S
H420 C434 0.960 . S
H421 C434 0.961 . S
H422 C434 0.959 . S
H423 C437 0.929 . S
H424 C438 0.931 . S
H425 C440 0.930 . S
C426 H414 0.930 . S
C426 C427 1.399 . S
C426 C431 1.399 . S
C427 C426 1.399 . S
C427 C428 1.376 . S
C428 H415 0.930 . S
C428 C427 1.376 . S
C428 C429 1.388 . S
C429 H416 0.930 . S
C429 C428 1.388 . S
C429 C430 1.390 . S
C430 C429 1.390 . S
C430 C431 1.394 . S
C430 C436 1.465 . S
C431 C426 1.399 . S
C431 C430 1.394 . S
C431 C432 1.516 . S
C432 C431 1.516 . S
C432 C433 1.502 . S
C432 C434 1.561 1_565 S
C432 C435 1.526 . S
C433 H417 0.959 . S
C433 H418 0.959 . S
C433 H419 0.961 . S
C433 C432 1.502 . S
C434 H420 0.960 . S
C434 H421 0.961 . S
C434 H422 0.959 . S
C434 C432 1.561 1_545 S
C435 C432 1.526 . S
C435 C436 1.396 . S
C435 C440 1.390 . S
C436 C430 1.465 . S
C436 C435 1.396 . S
C436 C437 1.399 . S
C437 H423 0.929 . S
C437 C436 1.399 . S
C437 C438 1.385 . S
C438 H424 0.931 . S
C438 C437 1.385 . S
C438 C439 1.389 . S
C439 C438 1.389 . S
C439 C440 1.387 . S
C440 H425 0.930 . S
C440 C435 1.390 . S
C440 C439 1.387 . S
H441 C453 0.930 . S
H442 C455 0.930 . S
H443 C456 0.930 . S
H444 C460 0.959 . S
H445 C460 0.959 . S
H446 C460 0.961 . S
H447 C461 0.960 . S
H448 C461 0.961 . S
H449 C461 0.959 . S
H450 C464 0.929 . S
H451 C465 0.931 . S
H452 C467 0.930 . S
C453 H441 0.930 . S
C453 C454 1.399 . S
C453 C458 1.399 . S
C454 C453 1.399 . S
C454 C455 1.376 . S
C455 H442 0.930 . S
C455 C454 1.376 . S
C455 C456 1.388 . S
C456 H443 0.930 . S
C456 C455 1.388 . S
C456 C457 1.390 . S
C457 C456 1.390 . S
C457 C458 1.394 . S
C457 C463 1.465 . S
C458 C453 1.399 . S
C458 C457 1.394 . S
C458 C459 1.516 . S
C459 C458 1.516 . S
C459 C460 1.502 . S
C459 C461 1.561 . S
C459 C462 1.526 . S
C460 H444 0.959 . S
C460 H445 0.959 . S
C460 H446 0.961 . S
C460 C459 1.502 . S
C461 H447 0.960 . S
C461 H448 0.961 . S
C461 H449 0.959 . S
C461 C459 1.561 . S
C462 C459 1.526 . S
C462 C463 1.396 . S
C462 C467 1.390 . S
C463 C457 1.465 . S
C463 C462 1.396 . S
C463 C464 1.399 . S
C464 H450 0.929 . S
C464 C463 1.399 . S
C464 C465 1.385 . S
C465 H451 0.931 . S
C465 C464 1.385 . S
C465 C466 1.389 . S
C466 C465 1.389 . S
C466 C467 1.387 . S
C467 H452 0.930 . S
C467 C462 1.390 . S
C467 C466 1.387 . S
H468 C480 0.930 . S
H469 C482 0.930 . S
H470 C483 0.930 . S
H471 C487 0.959 . S
H472 C487 0.959 . S
H473 C487 0.961 . S
H474 C488 0.960 . S
H475 C488 0.961 . S
H476 C488 0.959 . S
H477 C491 0.929 . S
H478 C492 0.931 . S
H479 C494 0.930 . S
C480 H468 0.930 . S
C480 C481 1.399 . S
C480 C485 1.399 . S
C481 C480 1.399 . S
C481 C482 1.376 . S
C482 H469 0.930 . S
C482 C481 1.376 . S
C482 C483 1.388 . S
C483 H470 0.930 . S
C483 C482 1.388 . S
C483 C484 1.390 . S
C484 C483 1.390 . S
C484 C485 1.394 . S
C484 C490 1.465 . S
C485 C480 1.399 . S
C485 C484 1.394 . S
C485 C486 1.516 . S
C486 C485 1.516 . S
C486 C487 1.502 . S
C486 C488 1.561 . S
C486 C489 1.526 . S
C487 H471 0.959 . S
C487 H472 0.959 . S
C487 H473 0.961 . S
C487 C486 1.502 . S
C488 H474 0.960 . S
C488 H475 0.961 . S
C488 H476 0.959 . S
C488 C486 1.561 . S
C489 C486 1.526 . S
C489 C490 1.396 . S
C489 C494 1.390 . S
C490 C484 1.465 . S
C490 C489 1.396 . S
C490 C491 1.399 . S
C491 H477 0.929 . S
C491 C490 1.399 . S
C491 C492 1.385 . S
C492 H478 0.931 . S
C492 C491 1.385 . S
C492 C493 1.389 . S
C493 C492 1.389 . S
C493 C494 1.387 . S
C494 H479 0.930 . S
C494 C489 1.390 . S
C494 C493 1.387 . S
H495 C507 0.930 . S
H496 C509 0.930 . S
H497 C510 0.930 . S
H498 C514 0.959 . S
H499 C514 0.959 . S
H500 C514 0.961 . S
H501 C515 0.960 . S
H502 C515 0.961 . S
H503 C515 0.959 . S
H504 C518 0.929 . S
H505 C519 0.931 . S
H506 C521 0.930 . S
C507 H495 0.930 . S
C507 C508 1.399 . S
C507 C512 1.399 . S
C508 C507 1.399 . S
C508 C509 1.376 . S
C509 H496 0.930 . S
C509 C508 1.376 . S
C509 C510 1.388 . S
C510 H497 0.930 . S
C510 C509 1.388 . S
C510 C511 1.390 . S
C511 C510 1.390 . S
C511 C512 1.394 . S
C511 C517 1.465 . S
C512 C507 1.399 . S
C512 C511 1.394 . S
C512 C513 1.516 . S
C513 C512 1.516 . S
C513 C514 1.502 . S
C513 C515 1.561 . S
C513 C516 1.526 . S
C514 H498 0.959 . S
C514 H499 0.959 . S
C514 H500 0.961 . S
C514 C513 1.502 . S
C515 H501 0.960 . S
C515 H502 0.961 . S
C515 H503 0.959 . S
C515 C513 1.561 . S
C516 C513 1.526 . S
C516 C517 1.396 . S
C516 C521 1.390 . S
C517 C511 1.465 . S
C517 C516 1.396 . S
C517 C518 1.399 . S
C518 H504 0.929 . S
C518 C517 1.399 . S
C518 C519 1.385 . S
C519 H505 0.931 . S
C519 C518 1.385 . S
C519 C520 1.389 . S
C520 C519 1.389 . S
C520 C521 1.387 . S
C521 H506 0.930 . S
C521 C516 1.390 . S
C521 C520 1.387 . S
H522 C534 0.930 . S
H523 C536 0.930 . S
H524 C537 0.930 . S
H525 C541 0.959 . S
H526 C541 0.959 . S
H527 C541 0.961 . S
H528 C542 0.960 . S
H529 C542 0.961 . S
H530 C542 0.959 . S
H531 C545 0.929 . S
H532 C546 0.931 . S
H533 C548 0.930 . S
C534 H522 0.930 . S
C534 C535 1.399 . S
C534 C539 1.399 . S
C535 C534 1.399 . S
C535 C536 1.376 . S
C536 H523 0.930 . S
C536 C535 1.376 . S
C536 C537 1.388 . S
C537 H524 0.930 . S
C537 C536 1.388 . S
C537 C538 1.390 . S
C538 C537 1.390 . S
C538 C539 1.394 . S
C538 C544 1.465 . S
C539 C534 1.399 . S
C539 C538 1.394 . S
C539 C540 1.516 1_455 S
C540 C539 1.516 1_655 S
C540 C541 1.502 . S
C540 C542 1.561 . S
C540 C543 1.526 . S
C541 H525 0.959 . S
C541 H526 0.959 . S
C541 H527 0.961 . S
C541 C540 1.502 . S
C542 H528 0.960 . S
C542 H529 0.961 . S
C542 H530 0.959 . S
C542 C540 1.561 . S
C543 C540 1.526 . S
C543 C544 1.396 1_655 S
C543 C548 1.390 . S
C544 C538 1.465 . S
C544 C543 1.396 1_455 S
C544 C545 1.399 . S
C545 H531 0.929 . S
C545 C544 1.399 . S
C545 C546 1.385 1_455 S
C546 H532 0.931 . S
C546 C545 1.385 1_655 S
C546 C547 1.389 . S
C547 C546 1.389 . S
C547 C548 1.387 . S
C548 H533 0.930 . S
C548 C543 1.390 . S
C548 C547 1.387 . S
H549 C561 0.930 . S
H550 C563 0.930 . S
H551 C564 0.930 . S
H552 C568 0.959 . S
H553 C568 0.959 . S
H554 C568 0.961 . S
H555 C569 0.960 . S
H556 C569 0.961 . S
H557 C569 0.959 . S
H558 C572 0.929 . S
H559 C573 0.931 . S
H560 C575 0.930 . S
C561 H549 0.930 . S
C561 C562 1.399 . S
C561 C566 1.399 . S
C562 C561 1.399 . S
C562 C563 1.376 . S
C563 H550 0.930 . S
C563 C562 1.376 . S
C563 C564 1.388 . S
C564 H551 0.930 . S
C564 C563 1.388 . S
C564 C565 1.390 . S
C565 C564 1.390 . S
C565 C566 1.394 . S
C565 C571 1.465 . S
C566 C561 1.399 . S
C566 C565 1.394 . S
C566 C567 1.516 . S
C567 C566 1.516 . S
C567 C568 1.502 . S
C567 C569 1.561 . S
C567 C570 1.526 . S
C568 H552 0.959 . S
C568 H553 0.959 . S
C568 H554 0.961 . S
C568 C567 1.502 . S
C569 H555 0.960 . S
C569 H556 0.961 . S
C569 H557 0.959 . S
C569 C567 1.561 . S
C570 C567 1.526 . S
C570 C571 1.396 . S
C570 C575 1.390 . S
C571 C565 1.465 . S
C571 C570 1.396 . S
C571 C572 1.399 . S
C572 H558 0.929 . S
C572 C571 1.399 . S
C572 C573 1.385 . S
C573 H559 0.931 . S
C573 C572 1.385 . S
C573 C574 1.389 . S
C574 C573 1.389 . S
C574 C575 1.387 . S
C575 H560 0.930 . S
C575 C570 1.390 . S
C575 C574 1.387 . S
H576 C588 0.930 . S
H577 C590 0.930 . S
H578 C591 0.929 . S
H579 C595 0.959 . S
H580 C595 0.959 1_545 S
H581 C595 0.961 . S
H582 C596 0.960 . S
H583 C596 0.961 . S
H584 C596 0.959 . S
H585 C599 0.929 . S
H586 C600 0.931 . S
H587 C602 0.930 . S
C588 H576 0.930 . S
C588 C589 1.399 . S
C588 C593 1.399 . S
C589 C588 1.399 . S
C589 C590 1.376 . S
C590 H577 0.930 . S
C590 C589 1.376 . S
C590 C591 1.375 1_565 S
C591 H578 0.929 . S
C591 C590 1.375 1_545 S
C591 C592 1.405 . S
C592 C591 1.405 . S
C592 C593 1.394 1_545 S
C592 C598 1.465 . S
C593 C588 1.399 . S
C593 C592 1.394 1_565 S
C593 C594 1.516 1_565 S
C594 C593 1.516 1_545 S
C594 C595 1.502 1_545 S
C594 C596 1.561 . S
C594 C597 1.526 . S
C595 H579 0.959 . S
C595 H580 0.959 1_565 S
C595 H581 0.961 . S
C595 C594 1.502 1_565 S
C596 H582 0.960 . S
C596 H583 0.961 . S
C596 H584 0.959 . S
C596 C594 1.561 . S
C597 C594 1.526 . S
C597 C598 1.396 . S
C597 C602 1.390 . S
C598 C592 1.465 . S
C598 C597 1.396 . S
C598 C599 1.399 . S
C599 H585 0.929 . S
C599 C598 1.399 . S
C599 C600 1.385 . S
C600 H586 0.931 . S
C600 C599 1.385 . S
C600 C601 1.389 . S
C601 C600 1.389 . S
C601 C602 1.387 . S
C602 H587 0.930 . S
C602 C597 1.390 . S
C602 C601 1.387 . S
C130 C31 1.136 . S
C142 C5 1.105 . S
C157 C18 1.077 . S
C169 C3 1.103 . S
C184 C16 1.119 . S
C196 C29 1.137 . S
C211 C70 1.077 . S
C223 C44 1.109 . S
C238 C57 1.137 . S
C250 C42 1.110 . S
C265 C55 1.137 . S
C277 C68 1.106 . S
C292 C83 1.077 . S
C304 C109 1.100 . S
C319 C81 1.137 . S
C331 C96 1.109 . S
C346 C94 1.122 . S
C358 C107 1.136 . S
C373 C10 1.414 . S
C385 C95 1.407 . S
C400 C23 1.413 . S
C412 C114 1.407 . S
C427 C82 1.406 . S
C439 C30 1.414 1_565 S
C454 C62 1.411 . S
C466 C36 1.409 . S
C481 C4 1.416 . S
C493 C69 1.406 . S
C508 C49 1.409 . S
C520 C17 1.417 . S
C535 C101 1.416 . S
C547 C75 1.406 . S
C562 C43 1.417 . S
C574 C108 1.409 . S
C589 C88 1.407 . S
C601 C56 1.414 . S
