# Generated by pormake.
# Topology snz, (6)-cn, num edge types: 1
# Building blocks:
#     Node 0, Type 0, BuildingBlock: UKALOJ_clean_sbu_0, # of connection points: 6
#     Node 1, Type 0, BuildingBlock: UKALOJ_clean_sbu_0, # of connection points: 6
#     Node 2, Type 0, BuildingBlock: UKALOJ_clean_sbu_0, # of connection points: 6
#     Node 3, Type 0, BuildingBlock: UKALOJ_clean_sbu_0, # of connection points: 6
#     Node 4, Type 0, BuildingBlock: UKALOJ_clean_sbu_0, # of connection points: 6
#     Node 5, Type 0, BuildingBlock: UKALOJ_clean_sbu_0, # of connection points: 6
#     Node 6, Type 0, BuildingBlock: UKALOJ_clean_sbu_0, # of connection points: 6
#     Node 7, Type 0, BuildingBlock: UKALOJ_clean_sbu_0, # of connection points: 6
#     Node 8, Type 0, BuildingBlock: UKALOJ_clean_sbu_0, # of connection points: 6
#     Edge 9, Type (0, 0), None
#     Edge 10, Type (0, 0), None
#     Edge 11, Type (0, 0), None
#     Edge 12, Type (0, 0), None
#     Edge 13, Type (0, 0), None
#     Edge 14, Type (0, 0), None
#     Edge 15, Type (0, 0), None
#     Edge 16, Type (0, 0), None
#     Edge 17, Type (0, 0), None
#     Edge 18, Type (0, 0), None
#     Edge 19, Type (0, 0), None
#     Edge 20, Type (0, 0), None
#     Edge 21, Type (0, 0), None
#     Edge 22, Type (0, 0), None
#     Edge 23, Type (0, 0), None
#     Edge 24, Type (0, 0), None
#     Edge 25, Type (0, 0), None
#     Edge 26, Type (0, 0), None
#     Edge 27, Type (0, 0), None
#     Edge 28, Type (0, 0), None
#     Edge 29, Type (0, 0), None
#     Edge 30, Type (0, 0), None
#     Edge 31, Type (0, 0), None
#     Edge 32, Type (0, 0), None
#     Edge 33, Type (0, 0), None
#     Edge 34, Type (0, 0), None
#     Edge 35, Type (0, 0), None
# Relax obj value: 0.947
# Max RMSD: 0.354
# Mean RMSD: 0.282
data_MOF--net-snz--node1-UKALOJ_clean_sbu_0--edge1-none
_symmetry_space_group_name_H-M    P1
_symmetry_Int_Tables_number       1
_symmetry_cell_setting            triclinic
loop_
_symmetry_equiv_pos_as_xyz
'x, y, z'
_cell_length_a     24.609121
_cell_length_b     28.710109
_cell_length_c     7.2763975
_cell_angle_alpha  88.690216
_cell_angle_beta   90.437219
_cell_angle_gamma 120.33168
loop_
_atom_site_label
_atom_site_type_symbol
_atom_site_fract_x
_atom_site_fract_y
_atom_site_fract_z
_atom_type_partial_charge
Zn0 Zn 0.95231 0.45081 0.28666 0.0
O1 O 0.87861 0.38261 0.15508 0.0
C2 C 0.06436 0.41441 0.3931 0.0
Zn3 Zn 0.04069 0.47686 0.15421 0.0
C4 C 0.90704 0.36187 0.08515 0.0
O5 O 0.96692 0.38896 0.08955 0.0
C6 C 0.08054 0.5707 0.33456 0.0
O7 O 0.98511 0.51106 1.01422 0.0
O8 O 0.9064 0.49109 0.19635 0.0
N9 N 0.08889 0.47019 0.93392 0.0
C10 C 0.0502 0.47647 0.82519 0.0
C11 C 0.02797 0.39586 0.79716 0.0
N12 N 0.0788 0.42099 0.90674 0.0
N13 N 0.00753 0.4298 0.74577 0.0
C14 C 0.91221 0.39183 0.55832 0.0
C15 C 0.92225 0.44728 0.75115 0.0
N16 N 0.88766 0.42005 0.48877 0.0
N17 N 0.88823 0.45156 0.61567 0.0
N18 N 0.94328 0.41366 0.71446 0.0
H19 H 0.85518 0.32088 0.39274 0.0
H20 H 0.84013 0.31355 0.62102 0.0
H21 H 0.91314 0.31771 0.53277 0.0
C22 C 0.87979 0.33286 0.52399 0.0
C23 C 0.0722 0.53073 0.7512 0.0
H24 H 0.10047 0.56129 0.85508 0.0
H25 H 0.03211 0.53535 0.71206 0.0
H26 H 0.10453 0.53697 0.63628 0.0
O27 O 0.10537 0.55888 0.20447 0.0
O28 O 0.02688 0.53298 0.40048 0.0
C29 C 0.93645 0.51436 1.05194 0.0
O30 O 0.00686 0.40228 0.39988 0.0
O31 O 0.10001 0.45509 0.29691 0.0
Zn32 Zn 0.56079 0.53263 0.13508 0.0
O33 O 0.46646 0.49931 0.27589 0.0
C34 C 0.49476 0.43647 0.97546 0.0
Zn35 Zn 0.5041 0.55861 0.97603 0.0
C36 C 0.41705 0.5014 0.23506 0.0
O37 O 0.41804 0.52711 0.09317 0.0
C38 C 0.6491 0.58603 0.87357 0.0
O39 O 0.51322 0.62913 1.04722 0.0
O40 O 0.59114 0.62695 0.17606 0.0
N41 N 0.46082 0.57215 0.75725 0.0
C42 C 0.51261 0.59575 0.65497 0.0
C43 C 0.46544 0.5114 0.61712 0.0
N44 N 0.42677 0.52107 0.71493 0.0
N45 N 0.52007 0.55713 0.58205 0.0
C46 C 0.57692 0.51984 0.43046 0.0
C47 C 0.63023 0.60449 0.4741 0.0
N48 N 0.62792 0.53993 0.32946 0.0
N49 N 0.66484 0.59139 0.369 0.0
N50 N 0.57418 0.56008 0.50936 0.0
H51 H 0.49665 0.44205 0.46632 0.0
H52 H 0.55384 0.46508 0.65336 0.0
H53 H 0.5693 0.44197 0.444 0.0
C54 C 0.54702 0.46365 0.50318 0.0
C55 C 0.55442 0.65592 0.63437 0.0
H56 H 0.52486 0.67482 0.61782 0.0
H57 H 0.58688 0.66764 0.51683 0.0
H58 H 0.58302 0.67289 0.7593 0.0
O59 O 0.60827 0.60088 0.84985 0.0
O60 O 0.63735 0.55018 0.99067 0.0
C61 C 0.56153 0.65244 0.14108 0.0
O62 O 0.53353 0.45053 0.10532 0.0
O63 O 0.48227 0.47164 0.90773 0.0
Zn64 Zn 0.46308 0.04304 0.13616 0.0
O65 O 0.44291 0.10594 1.07297 0.0
C66 C 0.32487 0.93619 0.25803 0.0
Zn67 Zn 0.40279 0.97108 0.97499 0.0
C68 C 0.39328 0.08593 0.98186 0.0
O69 O 0.36814 0.03572 0.9489 0.0
C70 C 0.46808 0.92646 0.12505 0.0
O71 O 0.50406 0.02295 0.84786 0.0
O72 O 0.54617 0.09419 1.01051 0.0
N73 N 0.33871 0.92455 0.774 0.0
C74 C 0.39346 0.94754 0.69011 0.0
C75 C 0.35072 -0.00472 0.63797 0.0
N76 N 0.30863 0.95041 0.72926 0.0
N77 N 0.40506 -0.00496 0.62204 0.0
C78 C 0.46942 0.07757 0.44407 0.0
C79 C 0.51115 0.02941 0.49722 0.0
N80 N 0.51896 0.09418 0.33668 0.0
N81 N 0.55028 0.06983 0.38535 0.0
N82 N 0.45989 0.03333 0.53254 0.0
H83 H 0.46029 0.14798 0.40354 0.0
H84 H 0.42965 0.1116 0.61848 0.0
H85 H 0.38678 0.08436 0.41026 0.0
C86 C 0.4346 0.10727 0.47008 0.0
C87 C 0.41753 0.91439 0.60874 0.0
H88 H 0.4676 0.93072 0.64609 0.0
H89 H 0.41261 0.91547 0.45819 0.0
H90 H 0.38937 0.87173 0.6571 0.0
O91 O 0.42793 0.9131 1.00052 0.0
O92 O 0.48865 0.97313 0.19829 0.0
C93 C 0.55164 0.06941 0.88213 0.0
O94 O 0.36664 0.9857 0.2898 0.0
O95 O 0.32556 0.91852 0.10516 0.0
Zn96 Zn 0.67501 0.82914 0.21743 0.0
O97 O 0.70935 0.91271 0.25399 0.0
C98 C 0.62618 0.81788 0.61983 0.0
Zn99 Zn 0.57713 0.81175 0.21014 0.0
C100 C 0.66646 0.9223 0.29942 0.0
O101 O 0.61335 0.89386 0.22765 0.0
C102 C 0.58268 0.70932 0.18858 0.0
O103 O 0.57832 0.81407 0.89863 0.0
O104 O 0.67592 0.83273 0.90391 0.0
N105 N 0.49424 0.81588 0.22495 0.0
C106 C 0.48227 0.84683 0.10564 0.0
C107 C 0.48894 0.87916 0.36912 0.0
N108 N 0.49505 0.83524 0.38929 0.0
N109 N 0.48246 0.88879 0.19149 0.0
C110 C 0.80868 0.87182 0.33168 0.0
C111 C 0.82326 0.81063 0.23311 0.0
N112 N 0.76305 0.84376 0.21028 0.0
N113 N 0.77373 0.80695 0.14209 0.0
N114 N 0.84438 0.84978 0.35995 0.0
H115 H 0.77367 0.90926 0.50923 0.0
H116 H 0.83176 0.95216 0.33539 0.0
H117 H 0.85591 0.93166 0.53827 0.0
C118 C 0.81733 0.91868 0.43656 0.0
C119 C 0.47065 0.83566 0.90492 0.0
H120 H 0.50656 0.87065 0.82301 0.0
H121 H 0.42375 0.82965 0.86933 0.0
H122 H 0.47062 0.7983 0.86976 0.0
O123 O 0.5424 0.72541 0.19502 0.0
O124 O 0.64101 0.7438 0.19903 0.0
C125 C 0.62681 0.82153 0.80938 0.0
O126 O 0.67401 0.82426 0.52998 0.0
O127 O 0.57779 0.80854 0.52536 0.0
Zn128 Zn 0.14003 0.85102 0.46386 0.0
O129 O 0.0483 0.79301 0.51063 0.0
C130 C 0.15291 0.81822 0.86479 0.0
Zn131 Zn 0.15639 0.78139 0.45558 0.0
C132 C 0.02768 0.74417 0.55215 0.0
O133 O 0.06024 0.72309 0.51251 0.0
C134 C 0.2712 0.89884 0.37914 0.0
O135 O 0.1491 0.77793 0.1485 0.0
O136 O 0.13504 0.84726 0.14548 0.0
N137 N 0.16475 0.71129 0.45987 0.0
C138 C 0.15001 0.67174 0.33457 0.0
C139 C 0.10558 0.63248 0.58521 0.0
N140 N 0.13833 0.6856 0.61596 0.0
N141 N 0.11156 0.62147 0.41042 0.0
C142 C 0.0844 0.9162 0.62221 0.0
C143 C 0.10744 0.97715 0.41836 0.0
N144 N 0.10928 0.90457 0.47716 0.0
N145 N 0.12177 0.94171 0.3481 0.0
N146 N 0.08492 0.96291 0.59234 0.0
H147 H 0.04172 0.83907 0.77508 0.0
H148 H 0.01737 0.88517 0.84559 0.0
H149 H 0.09381 0.89673 0.90496 0.0
C150 C 0.05786 0.88203 0.79518 0.0
C151 C 0.16517 0.68268 0.13372 0.0
H152 H 0.12272 0.67635 1.05796 0.0
H153 H 0.17893 0.65432 0.07941 0.0
H154 H 0.20442 0.72459 0.10955 0.0
O155 O 0.25532 0.84842 0.39563 0.0
O156 O 0.23178 0.91291 0.4204 0.0
C157 C 0.14568 0.81454 1.0549 0.0
O158 O 0.14945 0.85455 0.77075 0.0
O159 O 0.16302 0.78546 0.77394 0.0
Zn160 Zn 0.10371 0.28418 0.5813 0.0
O161 O 0.15101 0.23899 0.63781 0.0
C162 C 0.15238 0.32589 0.98285 0.0
Zn163 Zn 0.19738 0.36021 0.57586 0.0
C164 C 0.20946 0.26429 0.67711 0.0
O165 O 0.24163 0.31458 0.64132 0.0
C166 C 0.0905 0.38219 0.48566 0.0
O167 O 0.19806 0.35466 0.26844 0.0
O168 O 0.10609 0.28109 0.26327 0.0
N169 N 0.28354 0.4288 0.52748 0.0
C170 C 0.33468 0.43336 0.43995 0.0
C171 C 0.33336 0.5061 0.38515 0.0
N172 N 0.28341 0.47425 0.49324 0.0
N173 N 0.36649 0.4816 0.35032 0.0
C174 C 0.97133 0.19927 0.74036 0.0
C175 C 0.9417 0.12918 0.58253 0.0
N176 N 0.01683 0.21203 0.61304 0.0
N177 N -0.00135 0.16784 0.51716 0.0
N178 N 0.92358 0.14797 0.7237 0.0
H179 H 0.00728 0.22593 1.0082 0.0
H180 H 0.93362 0.21934 0.97669 0.0
H181 H 0.00148 0.27594 0.8647 0.0
C182 C 0.97858 0.2326 0.90448 0.0
C183 C 0.3446 0.38686 0.40557 0.0
H184 H 0.30261 0.35405 0.33786 0.0
H185 H 0.35119 0.37108 0.53844 0.0
H186 H 0.38617 0.39847 0.31714 0.0
O187 O 0.14967 0.40494 0.51366 0.0
O188 O 0.05635 0.33176 0.52503 0.0
C189 C 0.15204 0.32037 0.17343 0.0
O190 O 0.1075 0.29044 0.88789 0.0
O191 O 0.19695 0.36612 0.8927 0.0
Zn192 Zn 0.35121 0.21966 0.85182 0.0
O193 O 0.3465 0.22221 0.15433 0.0
C194 C 0.36553 0.1204 0.92034 0.0
Zn195 Zn 0.25815 0.14469 0.8529 0.0
C196 C 0.30309 0.18339 0.24832 0.0
O197 O 0.25619 0.1465 0.16101 0.0
C198 C 0.30762 0.18115 0.45617 0.0
O199 O 0.2082 0.18668 0.81052 0.0
O200 O 0.29888 0.26083 0.79339 0.0
N201 N 0.17396 0.07649 0.84761 0.0
C202 C 0.135 0.05421 0.70393 0.0
C203 C 0.11057 -0.00689 0.90697 0.0
N204 N 0.15709 0.03886 0.97726 0.0
N205 N 0.09728 0.0007 0.73161 0.0
C206 C 0.45899 0.33787 0.96939 0.0
C207 C 0.44562 0.37472 0.73049 0.0
N208 N 0.42837 0.29833 0.84406 0.0
N209 N 0.42223 0.32247 0.69513 0.0
N210 N 0.46944 0.38634 0.90046 0.0
H211 H 0.43409 0.32974 0.25418 0.0
H212 H 0.51672 0.35853 0.21091 0.0
H213 H 0.46458 0.28708 0.18248 0.0
C214 C 0.46913 0.3274 0.16562 0.0
C215 C 0.13029 0.08441 0.53853 0.0
H216 H 0.14617 0.12688 0.56884 0.0
H217 H 0.08068 0.06455 0.4913 0.0
H218 H 0.15875 0.08343 0.4231 0.0
O219 O 0.26296 0.14386 0.55048 0.0
O220 O 0.35541 0.21662 0.5437 0.0
C221 C 0.23996 0.23617 0.76582 0.0
O222 O 0.39963 0.17231 0.90567 0.0
O223 O 0.30653 0.09841 0.89049 0.0
Zn224 Zn 0.75432 0.15443 0.80257 0.0
O225 O 0.6588 0.13918 0.81804 0.0
C226 C 0.7411 0.11107 0.2039 0.0
Zn227 Zn 0.72895 0.06834 0.79605 0.0
C228 C 0.61672 0.08867 0.81588 0.0
O229 O 0.63403 0.05392 0.80403 0.0
C230 C 0.86306 0.12901 0.77861 0.0
O231 O 0.72583 0.07342 0.49314 0.0
O232 O 0.75496 0.15819 0.47914 0.0
N233 N 0.69662 0.98957 0.72876 0.0
C234 C 0.71767 0.9783 0.57143 0.0
C235 C 0.61772 0.93195 0.57067 0.0
N236 N 0.63456 0.95932 0.72821 0.0
N237 N 0.66856 0.94413 0.46663 0.0
C238 C 0.81433 0.27617 0.96768 0.0
C239 C 0.90744 0.29841 0.88769 0.0
N240 N 0.8091 0.23844 0.84666 0.0
N241 N 0.86759 0.25394 0.79909 0.0
N242 N 0.87634 0.31456 0.99277 0.0
H243 H 0.71492 0.23938 1.01909 0.0
H244 H 0.76153 0.31016 1.07671 0.0
H245 H 0.76401 0.25966 0.2211 0.0
C246 C 0.76026 0.27098 1.07679 0.0
C247 C 0.78453 0.00972 0.49923 0.0
H248 H 0.78781 -6e-05 0.35588 0.0
H249 H 0.81585 0.00269 0.59141 0.0
H250 H 0.80427 0.05352 0.4895 0.0
O251 O 0.82288 0.07956 0.79016 0.0
O252 O 0.84353 0.16158 0.78799 0.0
C253 C 0.74058 0.11454 0.39364 0.0
O254 O 0.7544 0.15223 0.10414 0.0
O255 O 0.72877 0.06729 0.11986 0.0
Zn256 Zn 0.84194 0.62381 0.73407 0.0
O257 O 0.84928 0.62924 1.03802 0.0
C258 C 0.71269 0.61192 0.78936 0.0
Zn259 Zn 0.84313 0.70036 0.73289 0.0
C260 C 0.84528 0.66455 0.12985 0.0
O261 O 0.84735 0.70422 1.04002 0.0
C262 C 0.8379 0.65894 0.33751 0.0
O263 O 0.94001 0.73959 0.69752 0.0
O264 O 0.94071 0.66489 0.68111 0.0
N265 N 0.85345 0.77335 0.70759 0.0
C266 C 0.88375 0.80978 0.57048 0.0
C267 C 0.81382 0.82406 0.67568 0.0
N268 N 0.81138 0.78353 0.77773 0.0
N269 N 0.85747 0.83987 0.54004 0.0
C270 C 0.85875 0.53704 0.92331 0.0
C271 C 0.9374 0.55407 0.75648 0.0
N272 N 0.85134 0.55683 0.76 0.0
N273 N 0.89923 0.56502 0.65531 0.0
N274 N 0.91307 0.53559 0.92535 0.0
H275 H 0.83332 0.53664 0.20522 0.0
H276 H 0.79186 0.47253 0.09667 0.0
H277 H 0.77127 0.52326 1.04058 0.0
C278 C 0.81079 0.51647 1.07511 0.0
C279 C 0.93571 0.81482 0.44925 0.0
H280 H 0.97691 0.82664 0.53484 0.0
H281 H 0.94956 0.84741 0.34353 0.0
H282 H 0.92475 0.77755 0.37939 0.0
O283 O 0.83558 0.69504 0.42953 0.0
O284 O 0.83501 0.61889 0.42726 0.0
C285 C 0.96756 0.71479 0.65081 0.0
O286 O 0.741 0.58474 0.77848 0.0
O287 O 0.74359 0.66272 0.7627 0.0
loop_
_geom_bond_atom_site_label_1
_geom_bond_atom_site_label_2
_geom_bond_distance
_geom_bond_site_symmetry_2
_ccdc_geom_bond_type
Zn0 O1 2.055 1_455 S
Zn0 O8 2.046 1_455 S
Zn0 N16 2.036 . S
Zn0 O28 2.053 . S
Zn0 O30 2.066 . S
O1 Zn0 2.055 1_655 S
O1 C4 1.259 . S
C2 O30 1.256 . S
C2 O31 1.244 . S
Zn3 O5 2.046 1_455 S
Zn3 O7 2.055 1_455 S
Zn3 N9 2.036 . S
Zn3 O27 2.066 . S
Zn3 O31 2.053 1_556 S
C4 O1 1.259 . S
C4 O5 1.254 1_554 S
O5 Zn3 2.046 1_655 S
O5 C4 1.254 1_556 S
C6 O27 1.256 1_554 S
C6 O28 1.244 . S
O7 Zn3 2.055 1_655 S
O7 C29 1.259 1_556 S
O8 Zn0 2.046 1_655 S
O8 C29 1.254 . S
N9 Zn3 2.036 . S
N9 C10 1.298 . S
N9 N12 1.398 . S
C10 N9 1.298 . S
C10 N13 1.367 . S
C10 C23 1.481 . S
C11 N12 1.299 . S
C11 N13 1.379 . S
N12 N9 1.398 . S
N12 C11 1.299 . S
N13 C10 1.367 . S
N13 C11 1.379 . S
C14 N16 1.298 1_655 S
C14 N18 1.367 . S
C14 C22 1.481 . S
C15 N17 1.299 . S
C15 N18 1.379 1_455 S
N16 Zn0 2.036 . S
N16 C14 1.298 1_455 S
N16 N17 1.398 . S
N17 C15 1.299 . S
N17 N16 1.398 . S
N18 C14 1.367 . S
N18 C15 1.379 1_655 S
H19 C22 0.980 . S
H20 C22 0.981 . S
H21 C22 0.981 . S
C22 C14 1.481 . S
C22 H19 0.980 . S
C22 H20 0.981 . S
C22 H21 0.981 . S
C23 C10 1.481 . S
C23 H24 0.980 . S
C23 H25 0.981 . S
C23 H26 0.981 . S
H24 C23 0.980 . S
H25 C23 0.981 . S
H26 C23 0.981 . S
O27 Zn3 2.066 . S
O27 C6 1.256 1_556 S
O28 Zn0 2.053 . S
O28 C6 1.244 . S
C29 O7 1.259 1_554 S
C29 O8 1.254 . S
O30 Zn0 2.066 . S
O30 C2 1.256 . S
O31 C2 1.244 . S
O31 Zn3 2.053 1_554 S
Zn32 O33 2.055 . S
Zn32 O40 2.046 . S
Zn32 N48 2.036 . S
Zn32 O60 2.053 . S
Zn32 O62 2.066 . S
O33 Zn32 2.055 . S
O33 C36 1.259 . S
C34 O62 1.256 . S
C34 O63 1.244 1_554 S
Zn35 O37 2.046 . S
Zn35 O39 2.055 . S
Zn35 N41 2.036 . S
Zn35 O59 2.066 . S
Zn35 O63 2.053 . S
C36 O33 1.259 . S
C36 O37 1.254 1_554 S
O37 Zn35 2.046 . S
O37 C36 1.254 1_556 S
C38 O59 1.256 . S
C38 O60 1.244 1_556 S
O39 Zn35 2.055 . S
O39 C61 1.259 1_556 S
O40 Zn32 2.046 . S
O40 C61 1.254 . S
N41 Zn35 2.036 . S
N41 C42 1.298 . S
N41 N44 1.398 . S
C42 N41 1.298 . S
C42 N45 1.367 . S
C42 C55 1.481 . S
C43 N44 1.299 . S
C43 N45 1.379 . S
N44 N41 1.398 . S
N44 C43 1.299 . S
N45 C42 1.367 . S
N45 C43 1.379 . S
C46 N48 1.298 . S
C46 N50 1.367 . S
C46 C54 1.481 . S
C47 N49 1.299 . S
C47 N50 1.379 . S
N48 Zn32 2.036 . S
N48 C46 1.298 . S
N48 N49 1.398 . S
N49 C47 1.299 . S
N49 N48 1.398 . S
N50 C46 1.367 . S
N50 C47 1.379 . S
H51 C54 0.980 . S
H52 C54 0.981 . S
H53 C54 0.981 . S
C54 C46 1.481 . S
C54 H51 0.980 . S
C54 H52 0.981 . S
C54 H53 0.981 . S
C55 C42 1.481 . S
C55 H56 0.980 . S
C55 H57 0.981 . S
C55 H58 0.981 . S
H56 C55 0.980 . S
H57 C55 0.981 . S
H58 C55 0.981 . S
O59 Zn35 2.066 . S
O59 C38 1.256 . S
O60 Zn32 2.053 . S
O60 C38 1.244 1_554 S
C61 O39 1.259 1_554 S
C61 O40 1.254 . S
O62 Zn32 2.066 . S
O62 C34 1.256 . S
O63 C34 1.244 1_556 S
O63 Zn35 2.053 . S
Zn64 O65 2.055 . S
Zn64 O72 2.046 . S
Zn64 N80 2.036 . S
Zn64 O92 2.053 1_545 S
Zn64 O94 2.066 1_545 S
O65 Zn64 2.055 . S
O65 C68 1.259 1_554 S
C66 O94 1.256 . S
C66 O95 1.244 1_554 S
Zn67 O69 2.046 . S
Zn67 O71 2.055 . S
Zn67 N73 2.036 1_545 S
Zn67 O91 2.066 1_545 S
Zn67 O95 2.053 1_545 S
C68 O65 1.259 1_556 S
C68 O69 1.254 . S
O69 Zn67 2.046 . S
O69 C68 1.254 . S
C70 O91 1.254 1_554 S
C70 O92 1.246 . S
O71 Zn67 2.055 . S
O71 C93 1.259 . S
O72 Zn64 2.046 . S
O72 C93 1.254 1_554 S
N73 Zn67 2.036 1_565 S
N73 C74 1.298 . S
N73 N76 1.398 . S
C74 N73 1.298 . S
C74 N77 1.367 . S
C74 C87 1.481 1_565 S
C75 N76 1.299 . S
C75 N77 1.379 . S
N76 N73 1.398 . S
N76 C75 1.299 . S
N77 C74 1.367 . S
N77 C75 1.379 . S
C78 N80 1.298 . S
C78 N82 1.367 . S
C78 C86 1.481 . S
C79 N81 1.299 . S
C79 N82 1.379 . S
N80 Zn64 2.036 . S
N80 C78 1.298 . S
N80 N81 1.398 . S
N81 C79 1.299 . S
N81 N80 1.398 . S
N82 C78 1.367 . S
N82 C79 1.379 . S
H83 C86 0.980 . S
H84 C86 0.981 . S
H85 C86 0.981 . S
C86 C78 1.481 . S
C86 H83 0.980 . S
C86 H84 0.981 . S
C86 H85 0.981 . S
C87 C74 1.481 1_545 S
C87 H88 0.980 . S
C87 H89 0.981 . S
C87 H90 0.981 1_545 S
H88 C87 0.980 . S
H89 C87 0.981 . S
H90 C87 0.981 1_565 S
O91 Zn67 2.066 1_565 S
O91 C70 1.254 1_556 S
O92 Zn64 2.053 1_565 S
O92 C70 1.246 . S
C93 O71 1.259 . S
C93 O72 1.254 1_556 S
O94 Zn64 2.066 1_565 S
O94 C66 1.256 . S
O95 C66 1.244 1_556 S
O95 Zn67 2.053 1_565 S
Zn96 O97 2.055 . S
Zn96 O104 2.046 1_554 S
Zn96 N112 2.036 . S
Zn96 O124 2.053 . S
Zn96 O126 2.066 . S
O97 Zn96 2.055 . S
O97 C100 1.259 . S
C98 O126 1.256 . S
C98 O127 1.244 . S
Zn99 O101 2.046 . S
Zn99 O103 2.055 1_554 S
Zn99 N105 2.036 . S
Zn99 O123 2.066 . S
Zn99 O127 2.053 . S
C100 O97 1.259 . S
C100 O101 1.254 . S
O101 Zn99 2.046 . S
O101 C100 1.254 . S
C102 O123 1.256 . S
C102 O124 1.244 . S
O103 Zn99 2.055 1_556 S
O103 C125 1.259 . S
O104 Zn96 2.046 1_556 S
O104 C125 1.254 . S
N105 Zn99 2.036 . S
N105 C106 1.298 1_554 S
N105 N108 1.398 . S
C106 N105 1.298 1_556 S
C106 N109 1.367 1_556 S
C106 C119 1.481 . S
C107 N108 1.299 . S
C107 N109 1.379 . S
N108 N105 1.398 . S
N108 C107 1.299 . S
N109 C106 1.367 1_554 S
N109 C107 1.379 . S
C110 N112 1.298 . S
C110 N114 1.367 . S
C110 C118 1.481 . S
C111 N113 1.299 . S
C111 N114 1.379 . S
N112 Zn96 2.036 . S
N112 C110 1.298 . S
N112 N113 1.398 . S
N113 C111 1.299 . S
N113 N112 1.398 . S
N114 C110 1.367 . S
N114 C111 1.379 . S
H115 C118 0.980 . S
H116 C118 0.981 . S
H117 C118 0.981 . S
C118 C110 1.481 . S
C118 H115 0.980 . S
C118 H116 0.981 . S
C118 H117 0.981 . S
C119 C106 1.481 . S
C119 H120 0.980 . S
C119 H121 0.981 . S
C119 H122 0.981 . S
H120 C119 0.980 . S
H121 C119 0.981 . S
H122 C119 0.981 . S
O123 Zn99 2.066 . S
O123 C102 1.256 . S
O124 Zn96 2.053 . S
O124 C102 1.244 . S
C125 O103 1.259 . S
C125 O104 1.254 . S
O126 Zn96 2.066 . S
O126 C98 1.256 . S
O127 C98 1.244 . S
O127 Zn99 2.053 . S
Zn128 O129 2.055 . S
Zn128 O136 2.046 . S
Zn128 N144 2.036 . S
Zn128 O156 2.053 . S
Zn128 O158 2.066 . S
O129 Zn128 2.055 . S
O129 C132 1.259 . S
C130 O158 1.256 . S
C130 O159 1.244 . S
Zn131 O133 2.046 . S
Zn131 O135 2.055 . S
Zn131 N137 2.036 . S
Zn131 O155 2.066 . S
Zn131 O159 2.053 . S
C132 O129 1.259 . S
C132 O133 1.254 . S
O133 Zn131 2.046 . S
O133 C132 1.254 . S
C134 O155 1.256 . S
C134 O156 1.244 . S
O135 Zn131 2.055 . S
O135 C157 1.259 1_554 S
O136 Zn128 2.046 . S
O136 C157 1.254 1_554 S
N137 Zn131 2.036 . S
N137 C138 1.298 . S
N137 N140 1.398 . S
C138 N137 1.298 . S
C138 N141 1.367 . S
C138 C151 1.481 1_554 S
C139 N140 1.299 . S
C139 N141 1.379 . S
N140 N137 1.398 . S
N140 C139 1.299 . S
N141 C138 1.367 . S
N141 C139 1.379 . S
C142 N144 1.298 . S
C142 N146 1.367 1_565 S
C142 C150 1.481 . S
C143 N145 1.299 1_545 S
C143 N146 1.379 . S
N144 Zn128 2.036 . S
N144 C142 1.298 . S
N144 N145 1.398 . S
N145 C143 1.299 1_565 S
N145 N144 1.398 . S
N146 C142 1.367 1_545 S
N146 C143 1.379 . S
H147 C150 0.980 . S
H148 C150 0.981 . S
H149 C150 0.981 . S
C150 C142 1.481 . S
C150 H147 0.980 . S
C150 H148 0.981 . S
C150 H149 0.981 . S
C151 C138 1.481 1_556 S
C151 H152 0.980 . S
C151 H153 0.981 . S
C151 H154 0.981 . S
H152 C151 0.980 . S
H153 C151 0.981 . S
H154 C151 0.981 . S
O155 Zn131 2.066 . S
O155 C134 1.256 . S
O156 Zn128 2.053 . S
O156 C134 1.244 . S
C157 O135 1.259 1_556 S
C157 O136 1.254 1_556 S
O158 Zn128 2.066 . S
O158 C130 1.256 . S
O159 C130 1.244 . S
O159 Zn131 2.053 . S
Zn160 O161 2.055 . S
Zn160 O168 2.046 . S
Zn160 N176 2.036 1_455 S
Zn160 O188 2.053 . S
Zn160 O190 2.066 . S
O161 Zn160 2.055 . S
O161 C164 1.259 . S
C162 O190 1.256 . S
C162 O191 1.244 . S
Zn163 O165 2.046 . S
Zn163 O167 2.055 . S
Zn163 N169 2.036 . S
Zn163 O187 2.066 . S
Zn163 O191 2.053 . S
C164 O161 1.259 . S
C164 O165 1.254 . S
O165 Zn163 2.046 . S
O165 C164 1.254 . S
C166 O187 1.256 . S
C166 O188 1.244 . S
O167 Zn163 2.055 . S
O167 C189 1.259 . S
O168 Zn160 2.046 . S
O168 C189 1.254 . S
N169 Zn163 2.036 . S
N169 C170 1.298 . S
N169 N172 1.398 . S
C170 N169 1.298 . S
C170 N173 1.367 . S
C170 C183 1.481 . S
C171 N172 1.299 . S
C171 N173 1.379 . S
N172 N169 1.398 . S
N172 C171 1.299 . S
N173 C170 1.367 . S
N173 C171 1.379 . S
C174 N176 1.298 . S
C174 N178 1.367 . S
C174 C182 1.481 . S
C175 N177 1.299 . S
C175 N178 1.379 . S
N176 Zn160 2.036 1_655 S
N176 C174 1.298 . S
N176 N177 1.398 . S
N177 C175 1.299 . S
N177 N176 1.398 . S
N178 C174 1.367 . S
N178 C175 1.379 . S
H179 C182 0.980 1_455 S
H180 C182 0.981 . S
H181 C182 0.981 1_455 S
C182 C174 1.481 . S
C182 H179 0.980 1_655 S
C182 H180 0.981 . S
C182 H181 0.981 1_655 S
C183 C170 1.481 . S
C183 H184 0.980 . S
C183 H185 0.981 1_554 S
C183 H186 0.981 . S
H184 C183 0.980 . S
H185 C183 0.981 1_556 S
H186 C183 0.981 . S
O187 Zn163 2.066 . S
O187 C166 1.256 . S
O188 Zn160 2.053 . S
O188 C166 1.244 . S
C189 O167 1.259 . S
C189 O168 1.254 . S
O190 Zn160 2.066 . S
O190 C162 1.256 . S
O191 C162 1.244 . S
O191 Zn163 2.053 . S
Zn192 O193 2.055 1_556 S
Zn192 O200 2.046 . S
Zn192 N208 2.036 . S
Zn192 O220 2.053 . S
Zn192 O222 2.066 . S
O193 Zn192 2.055 1_554 S
O193 C196 1.259 . S
C194 O222 1.256 . S
C194 O223 1.244 . S
Zn195 O197 2.046 1_556 S
Zn195 O199 2.055 . S
Zn195 N201 2.036 . S
Zn195 O219 2.066 . S
Zn195 O223 2.053 . S
C196 O193 1.259 . S
C196 O197 1.254 . S
O197 Zn195 2.046 1_554 S
O197 C196 1.254 . S
C198 O219 1.256 . S
C198 O220 1.244 . S
O199 Zn195 2.055 . S
O199 C221 1.259 . S
O200 Zn192 2.046 . S
O200 C221 1.254 . S
N201 Zn195 2.036 . S
N201 C202 1.298 . S
N201 N204 1.398 . S
C202 N201 1.298 . S
C202 N205 1.367 1_545 S
C202 C215 1.481 . S
C203 N204 1.299 1_565 S
C203 N205 1.379 . S
N204 N201 1.398 . S
N204 C203 1.299 1_545 S
N205 C202 1.367 1_565 S
N205 C203 1.379 . S
C206 N208 1.298 . S
C206 N210 1.367 . S
C206 C214 1.481 1_556 S
C207 N209 1.299 . S
C207 N210 1.379 . S
N208 Zn192 2.036 . S
N208 C206 1.298 . S
N208 N209 1.398 . S
N209 C207 1.299 . S
N209 N208 1.398 . S
N210 C206 1.367 . S
N210 C207 1.379 . S
H211 C214 0.980 . S
H212 C214 0.981 . S
H213 C214 0.981 . S
C214 C206 1.481 1_554 S
C214 H211 0.980 . S
C214 H212 0.981 . S
C214 H213 0.981 . S
C215 C202 1.481 . S
C215 H216 0.980 . S
C215 H217 0.981 . S
C215 H218 0.981 . S
H216 C215 0.980 . S
H217 C215 0.981 . S
H218 C215 0.981 . S
O219 Zn195 2.066 . S
O219 C198 1.256 . S
O220 Zn192 2.053 . S
O220 C198 1.244 . S
C221 O199 1.259 . S
C221 O200 1.254 . S
O222 Zn192 2.066 . S
O222 C194 1.256 . S
O223 C194 1.244 . S
O223 Zn195 2.053 . S
Zn224 O225 2.055 . S
Zn224 O232 2.046 . S
Zn224 N240 2.036 . S
Zn224 O252 2.053 . S
Zn224 O254 2.066 1_556 S
O225 Zn224 2.055 . S
O225 C228 1.259 . S
C226 O254 1.256 . S
C226 O255 1.244 1_554 S
Zn227 O229 2.046 . S
Zn227 O231 2.055 . S
Zn227 N233 2.036 1_545 S
Zn227 O251 2.066 . S
Zn227 O255 2.053 . S
C228 O225 1.259 . S
C228 O229 1.254 . S
O229 Zn227 2.046 . S
O229 C228 1.254 . S
C230 O251 1.256 . S
C230 O252 1.244 . S
O231 Zn227 2.055 . S
O231 C253 1.259 . S
O232 Zn224 2.046 . S
O232 C253 1.254 . S
N233 Zn227 2.036 1_565 S
N233 C234 1.298 . S
N233 N236 1.398 . S
C234 N233 1.298 . S
C234 N237 1.367 . S
C234 C247 1.481 . S
C235 N236 1.299 . S
C235 N237 1.379 . S
N236 N233 1.398 . S
N236 C235 1.299 . S
N237 C234 1.367 . S
N237 C235 1.379 . S
C238 N240 1.298 . S
C238 N242 1.367 . S
C238 C246 1.481 1_556 S
C239 N241 1.299 . S
C239 N242 1.379 . S
N240 Zn224 2.036 . S
N240 C238 1.298 . S
N240 N241 1.398 . S
N241 C239 1.299 . S
N241 N240 1.398 . S
N242 C238 1.367 . S
N242 C239 1.379 . S
H243 C246 0.980 1_556 S
H244 C246 0.981 . S
H245 C246 0.981 . S
C246 C238 1.481 1_554 S
C246 H243 0.980 1_554 S
C246 H244 0.981 . S
C246 H245 0.981 . S
C247 C234 1.481 . S
C247 H248 0.980 1_565 S
C247 H249 0.981 . S
C247 H250 0.981 . S
H248 C247 0.980 1_545 S
H249 C247 0.981 . S
H250 C247 0.981 . S
O251 Zn227 2.066 . S
O251 C230 1.256 . S
O252 Zn224 2.053 . S
O252 C230 1.244 . S
C253 O231 1.259 . S
C253 O232 1.254 . S
O254 Zn224 2.066 1_554 S
O254 C226 1.256 . S
O255 C226 1.244 1_556 S
O255 Zn227 2.053 . S
Zn256 O257 2.055 . S
Zn256 O264 2.046 1_655 S
Zn256 N272 2.036 . S
Zn256 O284 2.053 . S
Zn256 O286 2.066 . S
O257 Zn256 2.055 . S
O257 C260 1.259 1_556 S
C258 O286 1.256 . S
C258 O287 1.244 . S
Zn259 O261 2.046 . S
Zn259 O263 2.055 . S
Zn259 N265 2.036 . S
Zn259 O283 2.066 . S
Zn259 O287 2.053 . S
C260 O257 1.259 1_554 S
C260 O261 1.254 1_554 S
O261 Zn259 2.046 . S
O261 C260 1.254 1_556 S
C262 O283 1.256 . S
C262 O284 1.244 . S
O263 Zn259 2.055 . S
O263 C285 1.259 1_655 S
O264 Zn256 2.046 1_455 S
O264 C285 1.254 . S
N265 Zn259 2.036 . S
N265 C266 1.298 . S
N265 N268 1.398 . S
C266 N265 1.298 . S
C266 N269 1.367 . S
C266 C279 1.481 . S
C267 N268 1.299 . S
C267 N269 1.379 . S
N268 N265 1.398 . S
N268 C267 1.299 . S
N269 C266 1.367 . S
N269 C267 1.379 . S
C270 N272 1.298 . S
C270 N274 1.367 . S
C270 C278 1.481 1_556 S
C271 N273 1.299 . S
C271 N274 1.379 . S
N272 Zn256 2.036 . S
N272 C270 1.298 . S
N272 N273 1.398 . S
N273 C271 1.299 . S
N273 N272 1.398 . S
N274 C270 1.367 . S
N274 C271 1.379 . S
H275 C278 0.980 . S
H276 C278 0.981 . S
H277 C278 0.981 . S
C278 C270 1.481 1_554 S
C278 H275 0.980 . S
C278 H276 0.981 . S
C278 H277 0.981 . S
C279 C266 1.481 . S
C279 H280 0.980 . S
C279 H281 0.981 . S
C279 H282 0.981 . S
H280 C279 0.980 . S
H281 C279 0.981 . S
H282 C279 0.981 . S
O283 Zn259 2.066 . S
O283 C262 1.256 . S
O284 Zn256 2.053 . S
O284 C262 1.244 . S
C285 O263 1.259 1_455 S
C285 O264 1.254 . S
O286 Zn256 2.066 . S
O286 C258 1.256 . S
O287 C258 1.244 . S
O287 Zn259 2.053 . S
N13 N18 3.801 1_455 S
N45 N50 3.485 . S
N77 N82 3.353 1_565 S
C98 C125 3.808 . S
C130 C157 3.737 . S
C162 C189 3.672 1_556 S
C198 C196 3.663 . S
C253 C226 3.745 . S
C262 C260 3.825 . S
C166 C2 2.024 . S
C61 C102 2.870 . S
C66 C134 3.001 . S
C68 C194 2.806 . S
N242 C4 2.133 1_556 S
C258 C38 2.891 . S
N274 C29 1.400 1_556 S
C34 N210 1.385 1_554 S
C228 C93 2.244 . S
C70 N109 2.716 . S
N141 C6 1.422 . S
C36 N173 1.886 . S
N269 N114 1.439 . S
N205 N146 1.598 1_565 S
C230 N178 1.249 . S
C221 C164 2.524 . S
C100 N237 2.908 . S
C285 C132 2.057 . S
