# Generated by pormake.
# Topology zfn, (5)-cn, num edge types: 1
# Building blocks:
#     Node 0, Type 0, BuildingBlock: XOMCOT_clean_sbu_0, # of connection points: 5
#     Node 1, Type 0, BuildingBlock: XOMCOT_clean_sbu_0, # of connection points: 5
#     Node 2, Type 0, BuildingBlock: XOMCOT_clean_sbu_0, # of connection points: 5
#     Node 3, Type 0, BuildingBlock: XOMCOT_clean_sbu_0, # of connection points: 5
#     Node 4, Type 0, BuildingBlock: XOMCOT_clean_sbu_0, # of connection points: 5
#     Node 5, Type 0, BuildingBlock: XOMCOT_clean_sbu_0, # of connection points: 5
#     Node 6, Type 0, BuildingBlock: XOMCOT_clean_sbu_0, # of connection points: 5
#     Node 7, Type 0, BuildingBlock: XOMCOT_clean_sbu_0, # of connection points: 5
#     Node 8, Type 0, BuildingBlock: XOMCOT_clean_sbu_0, # of connection points: 5
#     Node 9, Type 0, BuildingBlock: XOMCOT_clean_sbu_0, # of connection points: 5
#     Node 10, Type 0, BuildingBlock: XOMCOT_clean_sbu_0, # of connection points: 5
#     Node 11, Type 0, BuildingBlock: XOMCOT_clean_sbu_0, # of connection points: 5
#     Node 12, Type 0, BuildingBlock: XOMCOT_clean_sbu_0, # of connection points: 5
#     Node 13, Type 0, BuildingBlock: XOMCOT_clean_sbu_0, # of connection points: 5
#     Node 14, Type 0, BuildingBlock: XOMCOT_clean_sbu_0, # of connection points: 5
#     Node 15, Type 0, BuildingBlock: XOMCOT_clean_sbu_0, # of connection points: 5
#     Edge 16, Type (0, 0), BuildingBlock: OJICUG_clean_linker_0, # of connection points: 2
#     Edge 17, Type (0, 0), BuildingBlock: OJICUG_clean_linker_0, # of connection points: 2
#     Edge 18, Type (0, 0), BuildingBlock: OJICUG_clean_linker_0, # of connection points: 2
#     Edge 19, Type (0, 0), BuildingBlock: OJICUG_clean_linker_0, # of connection points: 2
#     Edge 20, Type (0, 0), BuildingBlock: OJICUG_clean_linker_0, # of connection points: 2
#     Edge 21, Type (0, 0), BuildingBlock: OJICUG_clean_linker_0, # of connection points: 2
#     Edge 22, Type (0, 0), BuildingBlock: OJICUG_clean_linker_0, # of connection points: 2
#     Edge 23, Type (0, 0), BuildingBlock: OJICUG_clean_linker_0, # of connection points: 2
#     Edge 24, Type (0, 0), BuildingBlock: OJICUG_clean_linker_0, # of connection points: 2
#     Edge 25, Type (0, 0), BuildingBlock: OJICUG_clean_linker_0, # of connection points: 2
#     Edge 26, Type (0, 0), BuildingBlock: OJICUG_clean_linker_0, # of connection points: 2
#     Edge 27, Type (0, 0), BuildingBlock: OJICUG_clean_linker_0, # of connection points: 2
#     Edge 28, Type (0, 0), BuildingBlock: OJICUG_clean_linker_0, # of connection points: 2
#     Edge 29, Type (0, 0), BuildingBlock: OJICUG_clean_linker_0, # of connection points: 2
#     Edge 30, Type (0, 0), BuildingBlock: OJICUG_clean_linker_0, # of connection points: 2
#     Edge 31, Type (0, 0), BuildingBlock: OJICUG_clean_linker_0, # of connection points: 2
#     Edge 32, Type (0, 0), BuildingBlock: OJICUG_clean_linker_0, # of connection points: 2
#     Edge 33, Type (0, 0), BuildingBlock: OJICUG_clean_linker_0, # of connection points: 2
#     Edge 34, Type (0, 0), BuildingBlock: OJICUG_clean_linker_0, # of connection points: 2
#     Edge 35, Type (0, 0), BuildingBlock: OJICUG_clean_linker_0, # of connection points: 2
#     Edge 36, Type (0, 0), BuildingBlock: OJICUG_clean_linker_0, # of connection points: 2
#     Edge 37, Type (0, 0), BuildingBlock: OJICUG_clean_linker_0, # of connection points: 2
#     Edge 38, Type (0, 0), BuildingBlock: OJICUG_clean_linker_0, # of connection points: 2
#     Edge 39, Type (0, 0), BuildingBlock: OJICUG_clean_linker_0, # of connection points: 2
#     Edge 40, Type (0, 0), BuildingBlock: OJICUG_clean_linker_0, # of connection points: 2
#     Edge 41, Type (0, 0), BuildingBlock: OJICUG_clean_linker_0, # of connection points: 2
#     Edge 42, Type (0, 0), BuildingBlock: OJICUG_clean_linker_0, # of connection points: 2
#     Edge 43, Type (0, 0), BuildingBlock: OJICUG_clean_linker_0, # of connection points: 2
#     Edge 44, Type (0, 0), BuildingBlock: OJICUG_clean_linker_0, # of connection points: 2
#     Edge 45, Type (0, 0), BuildingBlock: OJICUG_clean_linker_0, # of connection points: 2
#     Edge 46, Type (0, 0), BuildingBlock: OJICUG_clean_linker_0, # of connection points: 2
#     Edge 47, Type (0, 0), BuildingBlock: OJICUG_clean_linker_0, # of connection points: 2
#     Edge 48, Type (0, 0), BuildingBlock: OJICUG_clean_linker_0, # of connection points: 2
#     Edge 49, Type (0, 0), BuildingBlock: OJICUG_clean_linker_0, # of connection points: 2
#     Edge 50, Type (0, 0), BuildingBlock: OJICUG_clean_linker_0, # of connection points: 2
#     Edge 51, Type (0, 0), BuildingBlock: OJICUG_clean_linker_0, # of connection points: 2
#     Edge 52, Type (0, 0), BuildingBlock: OJICUG_clean_linker_0, # of connection points: 2
#     Edge 53, Type (0, 0), BuildingBlock: OJICUG_clean_linker_0, # of connection points: 2
#     Edge 54, Type (0, 0), BuildingBlock: OJICUG_clean_linker_0, # of connection points: 2
#     Edge 55, Type (0, 0), BuildingBlock: OJICUG_clean_linker_0, # of connection points: 2
# Relax obj value: 0.132
# Max RMSD: 0.136
# Mean RMSD: 0.136
data_MOF--net-zfn--node1-XOMCOT_clean_sbu_0--edge1-OJICUG_clean_linker_0
_symmetry_space_group_name_H-M    P1
_symmetry_Int_Tables_number       1
_symmetry_cell_setting            triclinic
loop_
_symmetry_equiv_pos_as_xyz
'x, y, z'
_cell_length_a     56.269971
_cell_length_b     56.314346
_cell_length_c     13.576477
_cell_angle_alpha  90.009488
_cell_angle_beta   89.982575
_cell_angle_gamma 89.868523
loop_
_atom_site_label
_atom_site_type_symbol
_atom_site_fract_x
_atom_site_fract_y
_atom_site_fract_z
_atom_type_partial_charge
Co0 Co 0.0293 0.33788 0.17204 0.0
C1 C 0.02877 0.33964 0.38908 0.0
C2 C 0.06205 0.35189 0.3311 0.0
C3 C 0.06341 0.35175 0.4325 0.0
N4 N 0.04029 0.3444 0.30422 0.0
N5 N 0.04252 0.34386 0.46872 0.0
H6 H 0.01082 0.33281 0.39227 0.0
H7 H 0.07624 0.35636 0.28069 0.0
C8 C 0.04675 0.37903 0.05653 0.0
O9 O 0.02469 0.381 0.02553 0.0
N10 N 0.01895 0.33022 0.03778 0.0
C11 C -0.0006 0.3182 1.00882 0.0
C12 C -0.00062 0.31628 0.90771 0.0
C13 C 0.03139 0.33355 0.95353 0.0
N14 N 0.01942 0.32627 0.87279 0.0
C15 C 0.98139 0.35679 0.17088 0.0
C16 C 0.99333 0.40198 0.23258 0.0
C17 C 0.96994 0.39743 0.20321 0.0
C18 C 0.96389 0.37437 0.17447 0.0
C19 C 0.01038 0.38395 0.226 0.0
N20 N 0.00462 0.36204 0.18949 0.0
H21 H 0.97607 0.33898 0.15404 0.0
H22 H 0.02848 0.3879 0.24679 0.0
H23 H 0.98628 0.31048 0.05707 0.0
H24 H 0.04918 0.34064 0.95105 0.0
O25 O 0.01202 0.31096 0.22086 0.0
O26 O 0.04946 0.30984 0.16947 0.0
O27 O 0.05226 0.36249 0.11737 0.0
C28 C 0.03122 0.2986 0.20607 0.0
H29 H 0.07892 0.35612 0.47596 0.0
H30 H 0.98553 0.30827 0.86367 0.0
H31 H 0.99857 0.4195 0.25725 0.0
H32 H 0.94573 0.36993 0.15559 0.0
Co33 Co 0.16007 0.03068 0.67038 0.0
C34 C 0.15826 0.03014 0.89036 0.0
C35 C 0.15058 0.06445 0.8307 0.0
C36 C 0.15114 0.06628 0.93165 0.0
N37 N 0.15421 0.04159 0.80444 0.0
N38 N 0.15607 0.04468 0.96898 0.0
H39 H 0.16407 0.01197 0.89592 0.0
H40 H 0.14878 0.0791 0.7798 0.0
C41 C 0.1157 0.05881 0.65308 0.0
O42 O 0.10847 0.04689 0.73074 0.0
N43 N 0.16672 0.02051 0.53766 0.0
C44 C 0.17311 0.9985 0.5092 0.0
C45 C 0.17434 0.99801 0.40798 0.0
C46 C 0.16426 0.03315 0.45407 0.0
N47 N 0.16868 0.01978 0.37339 0.0
C48 C 0.13726 0.9881 0.74238 0.0
C49 C 0.10091 0.98788 0.60567 0.0
C50 C 0.10168 0.96987 0.67675 0.0
C51 C 0.12033 0.96999 0.74515 0.0
C52 C 0.11816 0.00561 0.60571 0.0
N53 N 0.13541 0.00635 0.67666 0.0
H54 H 0.15239 0.9867 0.79021 0.0
H55 H 0.11777 0.01861 0.54728 0.0
H56 H 0.1759 0.98367 0.55849 0.0
H57 H 0.15907 0.05165 0.45242 0.0
O58 O 0.18653 0.01204 0.7165 0.0
O59 O 0.18866 0.04979 0.67035 0.0
O60 O 0.1365 0.05498 0.61828 0.0
C61 C 0.1994 0.03095 0.70436 0.0
H62 H 0.14938 0.08249 0.97391 0.0
H63 H 0.17819 0.98254 0.36338 0.0
H64 H 0.08709 0.98832 0.55016 0.0
H65 H 0.12229 0.95578 0.7983 0.0
Co66 Co 0.46918 0.16084 0.16834 0.0
C67 C 0.46966 0.15796 0.38767 0.0
C68 C 0.43504 0.15174 0.32827 0.0
C69 C 0.43332 0.15238 0.42941 0.0
N70 N 0.45799 0.15452 0.30173 0.0
N71 N 0.45513 0.15642 0.46667 0.0
H72 H 0.48806 0.16295 0.39293 0.0
H73 H 0.42029 0.15066 0.2775 0.0
C74 C 0.43831 0.11792 0.1408 0.0
O75 O 0.4471 0.10871 0.22192 0.0
N76 N 0.47975 0.16778 0.0361 0.0
C77 C 0.50206 0.1729 1.00752 0.0
C78 C 0.50262 0.174 0.90612 0.0
C79 C 0.46701 0.16601 0.9523 0.0
N80 N 0.48058 0.16951 0.87139 0.0
C81 C 0.51173 0.13772 0.23873 0.0
C82 C 0.51068 0.10015 0.10805 0.0
C83 C 0.52905 0.10117 0.17761 0.0
C84 C 0.52956 0.12043 0.2429 0.0
C85 C 0.49319 0.11777 0.10678 0.0
N86 N 0.49312 0.13569 0.17483 0.0
H87 H 0.51362 0.15324 0.28407 0.0
H88 H 0.48008 0.11724 0.04886 0.0
H89 H 0.51705 0.17476 0.05678 0.0
H90 H 0.44827 0.16185 0.95065 0.0
O91 O 0.4878 0.18697 0.21755 0.0
O92 O 0.45022 0.18953 0.16916 0.0
O93 O 0.44487 0.13842 0.11142 0.0
C94 C 0.46889 0.19998 0.2055 0.0
H95 H 0.41706 0.15137 0.47176 0.0
H96 H 0.5183 0.17682 0.86155 0.0
H97 H 0.50982 0.0859 0.0546 0.0
H98 H 0.54405 0.12257 0.29461 0.0
Co99 Co 0.33903 0.46713 0.67779 0.0
C100 C 0.34087 0.46773 0.89771 0.0
C101 C 0.34898 0.43351 0.83807 0.0
C102 C 0.34845 0.43169 0.93902 0.0
N103 N 0.34505 0.45631 0.8118 0.0
N104 N 0.34325 0.45323 0.97634 0.0
H105 H 0.33484 0.48583 0.90324 0.0
H106 H 0.35095 0.41886 0.78719 0.0
C107 C 0.38372 0.43948 0.66024 0.0
O108 O 0.39089 0.45154 0.73762 0.0
N109 N 0.33223 0.47722 0.54512 0.0
C110 C 0.32555 0.49914 0.51675 0.0
C111 C 0.32432 0.49963 0.41553 0.0
C112 C 0.33487 0.46462 0.46147 0.0
N113 N 0.33028 0.47794 0.38084 0.0
C114 C 0.36144 0.51004 0.74979 0.0
C115 C 0.3978 0.51058 0.61305 0.0
C116 C 0.39693 0.52856 0.6843 0.0
C117 C 0.37826 0.52827 0.75269 0.0
C118 C 0.38067 0.49272 0.61298 0.0
N119 N 0.36342 0.49181 0.68397 0.0
H120 H 0.34631 0.51129 0.79774 0.0
H121 H 0.38117 0.47973 0.55452 0.0
H122 H 0.32255 0.51393 0.5661 0.0
H123 H 0.34032 0.4462 0.45975 0.0
O124 O 0.31225 0.48535 0.72409 0.0
O125 O 0.3107 0.44761 0.67776 0.0
O126 O 0.36288 0.44311 0.62557 0.0
C127 C 0.29964 0.46626 0.71181 0.0
H128 H 0.35041 0.41551 0.98131 0.0
H129 H 0.32026 0.51505 0.37099 0.0
H130 H 0.41163 0.51023 0.55755 0.0
H131 H 0.37621 0.54243 0.80603 0.0
Co132 Co 0.02932 0.15955 0.33898 0.0
C133 C 0.02927 0.15817 0.12209 0.0
C134 C 0.06296 0.14702 0.18034 0.0
C135 C 0.06438 0.14732 0.07886 0.0
N136 N 0.04092 0.15375 0.20704 0.0
N137 N 0.04322 0.1545 0.04239 0.0
H138 H 0.01104 0.16428 0.11899 0.0
H139 H 0.07723 0.14292 0.23094 0.0
C140 C 0.04669 0.11877 0.45675 0.0
O141 O 0.02451 0.11683 0.48616 0.0
N142 N 0.01823 0.16638 0.47299 0.0
C143 C 0.99738 0.17589 0.50277 0.0
C144 C 0.99737 0.17778 0.60395 0.0
C145 C 0.03113 0.16434 0.55678 0.0
N146 N 0.01855 0.17017 0.63808 0.0
C147 C 0.98149 0.14134 0.32128 0.0
C148 C 0.99433 0.09547 0.27222 0.0
C149 C 0.97021 0.10068 0.2871 0.0
C150 C 0.96385 0.12418 0.30911 0.0
C151 C 0.01135 0.11322 0.28504 0.0
N152 N 0.00498 0.13543 0.31645 0.0
H153 H 0.9761 0.15943 0.33265 0.0
H154 H 0.02979 0.10894 0.27152 0.0
H155 H 0.98325 0.18195 0.45544 0.0
H156 H 0.04955 0.15885 0.55841 0.0
O157 O 0.01209 0.18672 0.29132 0.0
O158 O 0.04923 0.18764 0.346 0.0
O159 O 0.05228 0.1349 0.39423 0.0
C160 C 0.03112 0.19903 0.30885 0.0
H161 H 0.08007 0.14345 0.03558 0.0
H162 H 0.98272 0.18404 0.64868 0.0
H163 H 3e-05 0.07784 0.25065 0.0
H164 H 0.94542 0.12928 0.31843 0.0
Co165 Co 0.33723 0.02924 0.85774 0.0
C166 C 0.33917 0.02912 0.63826 0.0
C167 C 0.34827 0.06307 0.69724 0.0
C168 C 0.34774 0.06475 0.59596 0.0
N169 N 0.34369 0.04046 0.72415 0.0
N170 N 0.34204 0.0433 0.55894 0.0
H171 H 0.33181 0.01152 0.6333 0.0
H172 H 0.35075 0.07771 0.74764 0.0
C173 C 0.38069 0.05914 0.88865 0.0
O174 O 0.39029 0.04979 0.80933 0.0
N175 N 0.3301 0.0186 0.98988 0.0
C176 C 0.32447 0.99635 0.01735 0.0
C177 C 0.32348 0.99549 0.1187 0.0
C178 C 0.33219 0.03104 0.07443 0.0
N179 N 0.3285 0.01729 0.15464 0.0
C180 C 0.36136 0.98776 0.78159 0.0
C181 C 0.39726 0.98695 0.9203 0.0
C182 C 0.39734 0.96994 0.84509 0.0
C183 C 0.37902 0.97035 0.77555 0.0
C184 C 0.37953 0.00435 0.92232 0.0
N185 N 0.36238 0.00529 0.85095 0.0
H186 H 0.34645 0.98643 0.73276 0.0
H187 H 0.37939 0.0168 0.98281 0.0
H188 H 0.32209 0.98161 0.96729 0.0
H189 H 0.33729 0.04952 0.07728 0.0
O190 O 0.31099 0.01077 0.80822 0.0
O191 O 0.30866 0.04832 0.85715 0.0
O192 O 0.35976 0.05333 0.91546 0.0
C193 C 0.29808 0.02974 0.82077 0.0
H194 H 0.35076 0.08069 0.55332 0.0
H195 H 0.31972 0.97987 0.16235 0.0
H196 H 0.41079 0.98679 0.97707 0.0
H197 H 0.37788 0.95681 0.71908 0.0
Co198 Co 0.47043 0.33817 0.34968 0.0
C199 C 0.47037 0.33944 0.13278 0.0
C200 C 0.43653 0.35009 0.19119 0.0
C201 C 0.43511 0.34978 0.0897 0.0
N202 N 0.45868 0.34368 0.21778 0.0
N203 N 0.45637 0.34291 0.05314 0.0
H204 H 0.4887 0.33363 0.1296 0.0
H205 H 0.42222 0.35401 0.24186 0.0
C206 C 0.45275 0.37888 0.46704 0.0
O207 O 0.47493 0.38099 0.49616 0.0
N208 N 0.48169 0.33164 0.48364 0.0
C209 C 0.50271 0.32251 0.51343 0.0
C210 C 0.50273 0.32065 0.61461 0.0
C211 C 0.46874 0.3335 0.56744 0.0
N212 N 0.48142 0.32789 0.64873 0.0
C213 C 0.51797 0.35679 0.32993 0.0
C214 C 0.50458 0.40245 0.27999 0.0
C215 C 0.52877 0.39743 0.29363 0.0
C216 C 0.53541 0.37405 0.31614 0.0
C217 C 0.48776 0.3846 0.2944 0.0
N218 N 0.49442 0.36251 0.32619 0.0
H219 H 0.52353 0.33876 0.34151 0.0
H220 H 0.46925 0.38869 0.28158 0.0
H221 H 0.51694 0.3167 0.46613 0.0
H222 H 0.45025 0.33869 0.56905 0.0
O223 O 0.488 0.31121 0.30224 0.0
O224 O 0.4509 0.30988 0.35742 0.0
O225 O 0.44723 0.36264 0.40484 0.0
C226 C 0.46913 0.29869 0.3201 0.0
H227 H 0.41936 0.35343 0.04648 0.0
H228 H 0.51748 0.31465 0.65934 0.0
H229 H 0.49868 0.41999 0.25816 0.0
H230 H 0.55391 0.36912 0.32458 0.0
Co231 Co 0.16091 0.46745 0.85432 0.0
C232 C 0.15868 0.46827 0.63447 0.0
C233 C 0.1511 0.43394 0.69371 0.0
C234 C 0.15149 0.43222 0.59273 0.0
N235 N 0.15483 0.45673 0.72027 0.0
N236 N 0.15629 0.45386 0.55548 0.0
H237 H 0.1651 0.48622 0.62937 0.0
H238 H 0.1492 0.41926 0.74439 0.0
C239 C 0.11621 0.44011 0.87072 0.0
O240 O 0.10922 0.45241 0.79363 0.0
N241 N 0.1678 0.47754 0.98698 0.0
C242 C 0.17477 0.49944 1.01429 0.0
C243 C 0.17565 0.50035 0.11545 0.0
C244 C 0.16471 0.46534 0.07139 0.0
N245 N 0.16923 0.47894 0.15122 0.0
C246 C 0.13834 0.51057 0.78358 0.0
C247 C 0.10232 0.51106 0.92191 0.0
C248 C 0.10312 0.52927 0.85173 0.0
C249 C 0.1216 0.52898 0.78239 0.0
C250 C 0.11939 0.49309 0.9205 0.0
N251 N 0.1365 0.49223 0.84889 0.0
H252 H 0.15333 0.51177 0.73483 0.0
H253 H 0.11896 0.47998 0.97847 0.0
H254 H 0.17825 0.51394 0.96413 0.0
H255 H 0.15834 0.44724 0.07446 0.0
O256 O 0.18766 0.48557 0.80787 0.0
O257 O 0.18924 0.44781 0.8539 0.0
O258 O 0.13702 0.4435 0.90612 0.0
C259 C 0.20028 0.46642 0.81993 0.0
H260 H 0.14899 0.41613 0.55046 0.0
H261 H 0.18039 0.51568 0.15923 0.0
H262 H 0.08862 0.51063 0.97792 0.0
H263 H 0.1236 0.54327 0.72968 0.0
Co264 Co 0.97055 0.66222 0.86823 0.0
C265 C 0.97106 0.65928 0.64892 0.0
C266 C 0.93649 0.65279 0.70837 0.0
C267 C 0.93476 0.65343 0.60724 0.0
N268 N 0.95941 0.65575 0.73489 0.0
N269 N 0.95654 0.65765 0.56994 0.0
H270 H 0.98941 0.66442 0.64367 0.0
H271 H 0.92173 0.6516 0.75916 0.0
C272 C 0.93992 0.61909 0.89626 0.0
O273 O 0.94873 0.60985 0.81519 0.0
N274 N 0.98107 0.66928 1.00042 0.0
C275 C 0.00335 0.6745 0.02896 0.0
C276 C 0.0039 0.67561 0.13036 0.0
C277 C 0.96832 0.66746 0.08424 0.0
N278 N 0.98187 0.67103 0.16514 0.0
C279 C 0.01328 0.63938 0.79778 0.0
C280 C 0.01242 0.60179 0.92835 0.0
C281 C 0.03078 0.6029 0.85874 0.0
C282 C 0.03119 0.62217 0.7935 0.0
C283 C 0.99484 0.61933 0.92973 0.0
N284 N 0.99468 0.63725 0.86173 0.0
H285 H 0.01507 0.65491 0.75243 0.0
H286 H 0.98174 0.61872 0.98768 0.0
H287 H 0.01833 0.67641 0.97967 0.0
H288 H 0.9496 0.66322 0.08592 0.0
O289 O 0.98891 0.68853 0.81878 0.0
O290 O 0.95132 0.6907 0.86744 0.0
O291 O 0.9464 0.63964 0.92536 0.0
C292 C 0.96985 0.70134 0.83084 0.0
H293 H 0.9185 0.65231 0.56493 0.0
H294 H 0.01957 0.67849 0.17489 0.0
H295 H 0.01163 0.58753 0.98175 0.0
H296 H 0.04567 0.62438 0.74172 0.0
Co297 Co 0.8383 0.96919 0.34493 0.0
C298 C 0.83972 0.96925 0.12825 0.0
C299 C 0.85005 0.9353 0.18611 0.0
C300 C 0.84974 0.93399 0.08461 0.0
N301 N 0.8438 0.95744 0.21303 0.0
N302 N 0.84312 0.95535 0.04819 0.0
H303 H 0.83352 0.98744 0.12584 0.0
H304 H 0.85401 0.92098 0.23657 0.0
C305 C 0.87952 0.952 0.46082 0.0
O306 O 0.88153 0.9742 0.48975 0.0
N307 N 0.83177 0.98054 0.47882 0.0
C308 C 0.82197 0.00135 0.50737 0.0
C309 C 0.82025 0.00177 0.60852 0.0
C310 C 0.83409 0.968 0.5635 0.0
N311 N 0.82815 0.98085 0.64392 0.0
C312 C 0.85657 0.01699 0.32571 0.0
C313 C 0.90227 0.00397 0.27421 0.0
C314 C 0.8972 0.02808 0.28922 0.0
C315 C 0.87378 0.03455 0.31242 0.0
C316 C 0.88449 0.98704 0.2881 0.0
N317 N 0.86238 0.99349 0.32068 0.0
H318 H 0.83853 0.02244 0.33817 0.0
H319 H 0.88867 0.96859 0.27453 0.0
H320 H 0.81543 0.01507 0.45912 0.0
H321 H 0.8403 0.94984 0.56657 0.0
O322 O 0.8109 0.98624 0.29788 0.0
O323 O 0.81031 0.94924 0.35386 0.0
O324 O 0.86313 0.94634 0.39956 0.0
C325 C 0.79872 0.9672 0.31664 0.0
H326 H 0.85391 0.91839 0.04136 0.0
H327 H 0.81323 0.01622 0.65239 0.0
H328 H 0.91983 0.9982 0.25179 0.0
H329 H 0.86879 0.05299 0.32186 0.0
Co330 Co 0.52816 0.83661 0.86305 0.0
C331 C 0.52762 0.83835 0.64601 0.0
C332 C 0.56084 0.85079 0.70393 0.0
C333 C 0.56219 0.85066 0.60252 0.0
N334 N 0.53912 0.84318 0.73085 0.0
N335 N 0.54135 0.84265 0.56635 0.0
H336 H 0.50971 0.83142 0.64287 0.0
H337 H 0.57499 0.85534 0.7543 0.0
C338 C 0.54541 0.87789 0.97842 0.0
O339 O 0.52335 0.87982 1.00944 0.0
N340 N 0.51784 0.82892 0.99732 0.0
C341 C 0.49836 0.81679 0.02631 0.0
C342 C 0.49834 0.81488 0.12742 0.0
C343 C 0.53025 0.83234 0.08155 0.0
N344 N 0.51832 0.825 0.1623 0.0
C345 C 0.48011 0.85519 0.86404 0.0
C346 C 0.49177 0.90046 0.80246 0.0
C347 C 0.46839 0.89575 0.83173 0.0
C348 C 0.46249 0.87265 0.86041 0.0
C349 C 0.50894 0.88255 0.80909 0.0
N350 N 0.50331 0.8606 0.84555 0.0
H351 H 0.47491 0.83734 0.88083 0.0
H352 H 0.52702 0.88662 0.78835 0.0
H353 H 0.4853 0.80898 0.97808 0.0
H354 H 0.548 0.83955 0.08401 0.0
O355 O 0.5111 0.80952 0.8143 0.0
O356 O 0.54853 0.80877 0.86578 0.0
O357 O 0.55097 0.86136 0.91758 0.0
C358 C 0.53043 0.79734 0.82911 0.0
H359 H 0.57767 0.85512 0.55903 0.0
H360 H 0.48454 0.80678 0.17147 0.0
H361 H 0.4969 0.91802 0.77784 0.0
H362 H 0.44435 0.86809 0.87923 0.0
Co363 Co 0.66076 0.52819 0.35315 0.0
C364 C 0.65937 0.5282 0.13648 0.0
C365 C 0.64949 0.56228 0.19446 0.0
C366 C 0.64981 0.5636 0.09295 0.0
N367 N 0.65545 0.54006 0.22131 0.0
N368 N 0.65615 0.54215 0.05645 0.0
H369 H 0.66532 0.50994 0.13401 0.0
H370 H 0.64571 0.57665 0.24498 0.0
C371 C 0.61968 0.54556 0.46917 0.0
O372 O 0.61756 0.52334 0.49756 0.0
N373 N 0.66711 0.51671 0.487 0.0
C374 C 0.67655 0.49575 0.51558 0.0
C375 C 0.67826 0.49532 0.61674 0.0
C376 C 0.66497 0.5293 0.57166 0.0
N377 N 0.6707 0.51637 0.65211 0.0
C378 C 0.64217 0.48065 0.33238 0.0
C379 C 0.59662 0.49411 0.2805 0.0
C380 C 0.60155 0.46994 0.29449 0.0
C381 C 0.62489 0.46325 0.3179 0.0
C382 C 0.61448 0.51088 0.29555 0.0
N383 N 0.63649 0.50418 0.32832 0.0
H384 H 0.66016 0.47505 0.34486 0.0
H385 H 0.61044 0.52938 0.2826 0.0
H386 H 0.68286 0.48191 0.46739 0.0
H387 H 0.65903 0.54755 0.57467 0.0
O388 O 0.68791 0.51081 0.30607 0.0
O389 O 0.68895 0.5478 0.36236 0.0
O390 O 0.63611 0.55122 0.40801 0.0
C391 C 0.70031 0.5297 0.32496 0.0
H392 H 0.64584 0.57925 0.04974 0.0
H393 H 0.68503 0.48076 0.66062 0.0
H394 H 0.57912 0.50003 0.25803 0.0
H395 H 0.62975 0.44475 0.32661 0.0
Co396 Co 0.96812 0.83876 0.67305 0.0
C397 C 0.96878 0.84088 0.89293 0.0
C398 C 0.9344 0.84844 0.83367 0.0
C399 C 0.93267 0.848 0.93469 0.0
N400 N 0.95724 0.84477 0.8071 0.0
N401 N 0.95435 0.84322 0.97193 0.0
H402 H 0.98676 0.83442 0.89808 0.0
H403 H 0.9197 0.85033 0.783 0.0
C404 C 0.94002 0.88308 0.65508 0.0
O405 O 0.95204 0.89032 0.73245 0.0
N406 N 0.97837 0.83195 0.54041 0.0
C407 C 0.00039 0.82528 0.51301 0.0
C408 C 0.00129 0.82436 0.41182 0.0
C409 C 0.96608 0.83483 0.45603 0.0
N410 N 0.97974 0.83047 0.37611 0.0
C411 C 0.01065 0.86178 0.74475 0.0
C412 C 0.01093 0.8978 0.60661 0.0
C413 C 0.02892 0.89718 0.67784 0.0
C414 C 0.02876 0.87871 0.74699 0.0
C415 C 0.9932 0.88054 0.60714 0.0
N416 N 0.99244 0.86345 0.6787 0.0
H417 H 0.01201 0.84681 0.79335 0.0
H418 H 0.9802 0.88082 0.54867 0.0
H419 H 0.01498 0.82202 0.5631 0.0
H420 H 0.94785 0.84095 0.45302 0.0
O421 O 0.98685 0.81245 0.71981 0.0
O422 O 0.94909 0.81011 0.67388 0.0
O423 O 0.94374 0.86223 0.62062 0.0
C424 C 0.96798 0.7995 0.70819 0.0
H425 H 0.91655 0.85045 0.97698 0.0
H426 H 0.01671 0.81983 0.368 0.0
H427 H 0.01049 0.91148 0.55061 0.0
H428 H 0.04295 0.87687 0.80038 0.0
Co429 Co 0.65954 0.96608 0.18231 0.0
C430 C 0.65732 0.96689 0.40216 0.0
C431 C 0.6499 0.93252 0.3429 0.0
C432 C 0.6503 0.93081 0.44387 0.0
N433 N 0.65351 0.95533 0.31636 0.0
N434 N 0.65501 0.95247 0.48113 0.0
H435 H 0.66367 0.98487 0.40726 0.0
H436 H 0.64806 0.91783 0.2922 0.0
C437 C 0.61499 0.93854 0.16589 0.0
O438 O 0.60797 0.95079 0.24311 0.0
N439 N 0.66639 0.9762 0.04963 0.0
C440 C 0.67324 0.99813 0.02234 0.0
C441 C 0.67414 -0.00096 0.92117 0.0
C442 C 0.66337 0.96398 0.96521 0.0
N443 N 0.66783 0.9776 0.88539 0.0
C444 C 0.63667 0.00903 0.25306 0.0
C445 C 0.60073 0.00936 0.11438 0.0
C446 C 0.6014 0.02757 0.18462 0.0
C447 C 0.61984 0.02736 0.25413 0.0
C448 C 0.6179 0.99148 0.11591 0.0
N449 N 0.63496 0.9907 0.18767 0.0
H450 H 0.65161 0.01031 0.30195 0.0
H451 H 0.61757 0.97837 0.05789 0.0
H452 H 0.67665 0.01265 0.0725 0.0
H453 H 0.65708 0.94585 0.96212 0.0
O454 O 0.68611 0.98443 0.22871 0.0
O455 O 0.68806 0.94666 0.18284 0.0
O456 O 0.6358 0.94198 0.13052 0.0
C457 C 0.69891 0.9654 0.21666 0.0
H458 H 0.64789 0.91471 0.48612 0.0
H459 H 0.67881 0.0144 0.87741 0.0
H460 H 0.58708 0.00888 0.05824 0.0
H461 H 0.62174 0.04166 0.30688 0.0
Co462 Co 0.53157 0.65897 0.68336 0.0
C463 C 0.5309 0.657 0.90324 0.0
C464 C 0.56508 0.64857 0.84369 0.0
C465 C 0.56689 0.6491 0.94464 0.0
N466 N 0.54229 0.6527 0.81735 0.0
N467 N 0.54538 0.6545 0.98192 0.0
H468 H 0.51285 0.66324 0.9087 0.0
H469 H 0.57973 0.64652 0.79289 0.0
C470 C 0.55914 0.61431 0.6643 0.0
O471 O 0.54698 0.60701 0.74122 0.0
N472 N 0.52158 0.66602 0.55073 0.0
C473 C 0.49969 0.67285 0.52233 0.0
C474 C 0.49922 0.67412 0.42111 0.0
C475 C 0.53418 0.66332 0.46706 0.0
N476 N 0.52089 0.66801 0.38642 0.0
C477 C 0.48869 0.6363 0.75444 0.0
C478 C 0.48803 0.60048 0.61543 0.0
C479 C 0.47002 0.60115 0.68667 0.0
C480 C 0.47038 0.61955 0.75625 0.0
C481 C 0.50595 0.61755 0.61637 0.0
N482 N 0.5069 0.63455 0.68834 0.0
H483 H 0.48751 0.65121 0.80349 0.0
H484 H 0.51897 0.61721 0.55793 0.0
H485 H 0.48489 0.67589 0.57165 0.0
H486 H 0.55257 0.65772 0.4653 0.0
O487 O 0.5132 0.68552 0.73029 0.0
O488 O 0.55102 0.68737 0.68476 0.0
O489 O 0.55567 0.63526 0.63063 0.0
C490 C 0.53225 0.69823 0.7189 0.0
H491 H 0.58307 0.64703 0.98693 0.0
H492 H 0.48381 0.67826 0.37657 0.0
H493 H 0.48835 0.58686 0.55912 0.0
H494 H 0.45622 0.62146 0.80974 0.0
Co495 Co 0.8386 0.5307 0.17883 0.0
C496 C 0.84 0.53078 0.39839 0.0
C497 C 0.84905 0.56469 0.33871 0.0
C498 C 0.84809 0.56661 0.43976 0.0
N499 N 0.84481 0.54197 0.31241 0.0
N500 N 0.84231 0.54523 0.47724 0.0
H501 H 0.83344 0.5129 0.40353 0.0
H502 H 0.85137 0.57927 0.28791 0.0
C503 C 0.88189 0.56085 0.14899 0.0
O504 O 0.89139 0.55153 0.22852 0.0
N505 N 0.83167 0.52016 0.0465 0.0
C506 C 0.82653 0.4979 0.01747 0.0
C507 C 0.8251 0.49755 0.91609 0.0
C508 C 0.83309 0.53307 0.96304 0.0
N509 N 0.82938 0.51967 0.88191 0.0
C510 C 0.86305 0.48943 0.25484 0.0
C511 C 0.89891 0.48883 0.11587 0.0
C512 C 0.89907 0.47179 0.1909 0.0
C513 C 0.88077 0.4721 0.2606 0.0
C514 C 0.8811 0.50616 0.11411 0.0
N515 N 0.86395 0.50697 0.18558 0.0
H516 H 0.84815 0.48801 0.30372 0.0
H517 H 0.88087 0.51862 0.05368 0.0
H518 H 0.82484 0.48284 0.06636 0.0
H519 H 0.83712 0.55184 0.96175 0.0
O520 O 0.81256 0.51191 0.22775 0.0
O521 O 0.80979 0.54948 0.17948 0.0
O522 O 0.861 0.55499 0.1217 0.0
C523 C 0.79942 0.53073 0.21546 0.0
H524 H 0.85016 0.58281 0.48177 0.0
H525 H 0.82218 0.48197 0.87105 0.0
H526 H 0.91242 0.48875 0.05898 0.0
H527 H 0.8797 0.45852 0.31693 0.0
C528 C 0.93894 0.42084 0.11401 0.0
C529 C 0.95197 0.41664 0.20055 0.0
H530 H 0.91219 0.4419 0.04288 0.0
C531 C 0.94774 0.43088 0.28367 0.0
H532 H 0.94202 0.41017 0.04881 0.0
C533 C 0.93046 0.44877 0.28071 0.0
C534 C 0.91754 0.45305 0.19391 0.0
H535 H 0.95755 0.42792 0.35124 0.0
H536 H 0.9273 0.45941 0.34593 0.0
C537 C 0.92204 0.43904 0.11041 0.0
C538 C 0.0755 0.94078 0.58863 0.0
C539 C 0.08356 0.95074 0.67745 0.0
H540 H 0.05234 0.91582 0.51917 0.0
C541 C 0.07395 0.9425 0.7667 0.0
H542 H 0.08289 0.94636 0.51872 0.0
C543 C 0.05639 0.92497 0.76697 0.0
C544 C 0.04807 0.91529 0.67799 0.0
H545 H 0.07963 0.94999 0.8363 0.0
H546 H 0.04896 0.91938 0.83678 0.0
C547 C 0.05798 0.92327 0.58889 0.0
C548 C 0.57391 0.05601 0.27149 0.0
C549 C 0.58337 0.04695 0.18322 0.0
H550 H 0.54918 0.08 0.33893 0.0
C551 C 0.57517 0.05628 0.09328 0.0
H552 H 0.57963 0.04905 0.34198 0.0
C553 C 0.55768 0.07391 0.09156 0.0
C554 C 0.54799 0.08273 0.17971 0.0
H555 H 0.58242 0.05011 0.02393 0.0
H556 H 0.55192 0.08082 0.02102 0.0
C557 C 0.55644 0.07372 0.26975 0.0
C558 C 0.42453 0.55606 0.77476 0.0
C559 C 0.41504 0.54777 0.68536 0.0
H560 H 0.44951 0.57914 0.8453 0.0
C561 C 0.42327 0.5577 0.59671 0.0
H562 H 0.41874 0.54863 0.84429 0.0
C563 C 0.44086 0.57517 0.59728 0.0
C564 C 0.45069 0.58316 0.68652 0.0
H565 H 0.416 0.5521 0.52664 0.0
H566 H 0.44663 0.58254 0.52762 0.0
C567 C 0.44216 0.57355 0.77533 0.0
C568 C 0.93885 0.0417 0.32295 0.0
C569 C 0.91627 0.04628 0.28274 0.0
H570 H 0.97336 0.05527 0.35687 0.0
C571 C 0.91188 0.06862 0.24008 0.0
H572 H 0.94273 0.02482 0.35774 0.0
C573 C 0.92949 0.08611 0.23951 0.0
C574 C 0.9519 0.08169 0.28166 0.0
H575 H 0.89482 0.0726 0.20702 0.0
H576 H 0.92553 0.10311 0.206 0.0
C577 C 0.95643 0.05918 0.32242 0.0
C578 C 0.43726 0.91897 0.92112 0.0
C579 C 0.45031 0.91486 0.83452 0.0
H580 H 0.41047 0.93993 0.99259 0.0
C581 C 0.44603 0.92913 0.75155 0.0
H582 H 0.44038 0.90828 0.98622 0.0
C583 C 0.42869 0.94697 0.75475 0.0
C584 C 0.41578 0.95117 0.84166 0.0
H585 H 0.45585 0.92624 0.68393 0.0
H586 H 0.42552 0.95765 0.68968 0.0
C587 C 0.42031 0.93712 0.92498 0.0
C588 C 0.55995 0.45643 0.32843 0.0
C589 C 0.58242 0.4519 0.28719 0.0
H590 H 0.52557 0.44275 0.36373 0.0
C591 C 0.58672 0.42968 0.24333 0.0
H592 H 0.55616 0.47323 0.36405 0.0
C593 C 0.56914 0.41218 0.24309 0.0
C594 C 0.54688 0.41651 0.28675 0.0
H595 H 0.60371 0.42578 0.20944 0.0
H596 H 0.57302 0.39523 0.20898 0.0
C597 C 0.54239 0.43895 0.32823 0.0
C598 C 0.05828 0.57553 0.76651 0.0
C599 C 0.04979 0.58453 0.85656 0.0
H600 H 0.08148 0.55084 0.69429 0.0
C601 C 0.05948 0.57572 0.9447 0.0
H602 H 0.05103 0.58182 0.69734 0.0
C603 C 0.07696 0.55808 0.94298 0.0
C604 C 0.08516 0.54872 0.85306 0.0
H605 H 0.0537 0.58262 1.01525 0.0
H606 H 0.08418 0.5519 1.01234 0.0
C607 C 0.07575 0.55781 0.76478 0.0
C608 C 0.08848 0.39546 0.04753 0.0
C609 C 0.06511 0.39434 1.01109 0.0
H610 H 0.12317 0.41098 0.0321 0.0
C611 C 0.05908 0.40796 0.92807 0.0
H612 H 0.09365 0.38512 0.11133 0.0
C613 C 0.07583 0.42242 0.88265 0.0
C614 C 0.09913 0.42387 0.91913 0.0
H615 H 0.04135 0.40742 0.89718 0.0
H616 H 0.07033 0.43262 0.81895 0.0
C617 C 0.10535 0.41022 1.00214 0.0
C618 C 0.10511 0.08764 0.5171 0.0
C619 C 0.09879 0.07494 0.60254 0.0
H620 H 0.09358 0.11166 0.40333 0.0
C621 C 0.07553 0.07711 0.63889 0.0
H622 H 0.1229 0.0863 0.48712 0.0
C623 C 0.05888 0.09124 0.59079 0.0
C624 C 0.06498 0.10385 0.50517 0.0
H625 H 0.06997 0.06767 0.70445 0.0
H626 H 0.04115 0.09235 0.6216 0.0
C627 C 0.08835 0.1021 0.46905 0.0
C628 C 0.40652 0.08754 0.11718 0.0
C629 C 0.42298 0.10344 0.07662 0.0
H630 H 0.37984 0.06134 0.08885 0.0
C631 C 0.42527 0.1049 0.97368 0.0
H632 H 0.4045 0.08605 0.19631 0.0
C633 C 0.41159 0.09044 0.91227 0.0
C634 C 0.39492 0.07474 0.95278 0.0
H635 H 0.43812 0.11678 0.94077 0.0
H636 H 0.41392 0.09163 0.83321 0.0
C637 C 0.39235 0.07355 0.05571 0.0
C638 C 0.39434 0.41027 0.52559 0.0
C639 C 0.40064 0.42322 0.6104 0.0
H640 H 0.40587 0.38589 0.41309 0.0
C641 C 0.42388 0.42111 0.64702 0.0
H642 H 0.37656 0.41156 0.49544 0.0
C643 C 0.44051 0.40676 0.5998 0.0
C644 C 0.43443 0.39392 0.51477 0.0
H645 H 0.42943 0.43072 0.71215 0.0
H646 H 0.45822 0.40571 0.63078 0.0
C647 C 0.41109 0.39562 0.47838 0.0
C648 C 0.91272 0.59221 0.12515 0.0
C649 C 0.89625 0.57629 0.08478 0.0
H650 H 0.93922 0.61856 0.09631 0.0
C651 C 0.89405 0.57467 0.98186 0.0
H652 H 0.9148 0.5937 0.20424 0.0
C653 C 0.9083 0.58852 0.92018 0.0
C654 C 0.92455 0.60466 0.96055 0.0
H655 H 0.88175 0.56222 0.94912 0.0
H656 H 0.90652 0.58672 0.84107 0.0
C657 C 0.92653 0.60651 0.06351 0.0
C658 C 0.91032 0.89344 0.52191 0.0
C659 C 0.92392 0.90002 0.60457 0.0
H660 H 0.8854 0.90473 0.411 0.0
C661 C 0.92262 0.92355 0.63837 0.0
H662 H 0.91098 0.87544 0.49392 0.0
C663 C 0.90835 0.94017 0.59078 0.0
C664 C 0.89474 0.93378 0.50821 0.0
H665 H 0.93282 0.92933 0.70159 0.0
H666 H 0.90793 0.9581 0.61965 0.0
C667 C 0.89573 0.91019 0.47437 0.0
C668 C 0.57453 0.92106 0.15315 0.0
C669 C 0.59787 0.92241 0.11704 0.0
H670 H 0.53997 0.90626 0.13788 0.0
C671 C 0.6041 0.90881 0.03387 0.0
H672 H 0.56902 0.93124 0.21692 0.0
C673 C 0.58719 0.89418 0.98802 0.0
C674 C 0.56377 0.89314 0.02414 0.0
H675 H 0.62195 0.90951 1.00415 0.0
H676 H 0.59237 0.88386 0.92416 0.0
C677 C 0.55774 0.90674 0.10725 0.0
C678 C 0.59091 0.55732 0.5995 0.0
C679 C 0.60448 0.56375 0.51686 0.0
H680 H 0.56644 0.56806 0.71054 0.0
C681 C 0.60343 0.58735 0.48313 0.0
H682 H 0.59138 0.53938 0.62829 0.0
C683 C 0.58881 0.60404 0.53086 0.0
C684 C 0.57525 0.59741 0.61358 0.0
H685 H 0.61372 0.59284 0.41967 0.0
H686 H 0.58809 0.62204 0.50292 0.0
C687 C 0.57661 0.57388 0.64727 0.0
C688 C 0.05341 0.26083 0.24489 0.0
C689 C 0.03185 0.27308 0.23134 0.0
H690 H 0.07017 0.22767 0.28233 0.0
C691 C 0.01037 0.26088 0.24508 0.0
H692 H 0.07022 0.26986 0.23538 0.0
C693 C 0.01035 0.23693 0.27083 0.0
C694 C 0.03179 0.22463 0.28503 0.0
H695 H 0.99347 0.26981 0.23516 0.0
H696 H 0.99342 0.22807 0.28004 0.0
C697 C 0.05338 0.23679 0.27244 0.0
C698 C 0.26064 0.00897 0.77387 0.0
C699 C 0.27282 0.03027 0.79149 0.0
H700 H 0.22785 0.99255 0.73296 0.0
C701 C 0.2608 0.05196 0.77849 0.0
H702 H 0.26944 0.99199 0.78319 0.0
C703 C 0.23702 0.0523 0.74799 0.0
C704 C 0.2248 0.03095 0.73161 0.0
H705 H 0.26982 0.06867 0.79092 0.0
H706 H 0.22813 0.06923 0.73876 0.0
C707 C 0.23682 0.0093 0.74507 0.0
C708 C 0.44705 0.26122 0.28003 0.0
C709 C 0.46861 0.2732 0.295 0.0
H710 H 0.4302 0.22859 0.23783 0.0
C711 C 0.49009 0.26091 0.28076 0.0
H712 H 0.43025 0.27034 0.28986 0.0
C713 C 0.49008 0.23713 0.25202 0.0
C714 C 0.46859 0.22521 0.23522 0.0
H715 H 0.507 0.26968 0.29186 0.0
H716 H 0.50696 0.22816 0.24188 0.0
C717 C 0.44704 0.23744 0.2495 0.0
C718 C 0.26194 0.4874 0.75277 0.0
C719 C 0.27415 0.46591 0.7381 0.0
H720 H 0.22907 0.50433 0.78957 0.0
C721 C 0.26194 0.4444 0.75148 0.0
H722 H 0.27085 0.50426 0.74304 0.0
C723 C 0.23798 0.44444 0.77981 0.0
C724 C 0.22577 0.46599 0.79362 0.0
H725 H 0.27097 0.42757 0.74123 0.0
H726 H 0.22895 0.42764 0.7897 0.0
C727 C 0.23798 0.48743 0.77945 0.0
C728 C 0.94682 0.76195 0.75444 0.0
C729 C 0.96811 0.7742 0.73671 0.0
H730 H 0.93068 0.72927 0.80008 0.0
C731 C 0.98985 0.76235 0.75047 0.0
H732 H 0.92982 0.77072 0.74502 0.0
C733 C 0.99035 0.73869 0.78102 0.0
C734 C 0.96912 0.72648 0.8001 0.0
H735 H 0.00655 0.77134 0.73732 0.0
H736 H 0.0074 0.73001 0.79049 0.0
C737 C 0.94733 0.73832 0.78666 0.0
C738 C 0.76113 0.94449 0.28318 0.0
C739 C 0.77305 0.96624 0.29388 0.0
H740 H 0.72823 0.92709 0.24833 0.0
C741 C 0.76043 0.98747 0.27891 0.0
H742 H 0.77048 0.92786 0.29373 0.0
C743 C 0.73638 0.98704 0.25409 0.0
C744 C 0.72446 0.96536 0.24202 0.0
H745 H 0.76912 0.00452 0.28673 0.0
H746 H 0.72719 0.00377 0.2434 0.0
C747 C 0.73704 0.94405 0.25656 0.0
C748 C 0.5102 0.7594 0.78746 0.0
C749 C 0.53144 0.77188 0.80302 0.0
H750 H 0.49389 0.72646 0.74915 0.0
C751 C 0.55322 0.76 0.79007 0.0
H752 H 0.49313 0.76805 0.79693 0.0
C753 C 0.55366 0.73609 0.76097 0.0
C754 C 0.53232 0.72365 0.74603 0.0
H755 H 0.56987 0.76925 0.80102 0.0
H756 H 0.57064 0.7273 0.75128 0.0
C757 C 0.51063 0.73555 0.76005 0.0
C758 C 0.76228 0.50923 0.25987 0.0
C759 C 0.77411 0.5308 0.24412 0.0
H760 H 0.72967 0.49206 0.29753 0.0
C761 C 0.76168 0.55223 0.25809 0.0
H762 H 0.7714 0.49244 0.24989 0.0
C763 C 0.73778 0.55203 0.28725 0.0
C764 C 0.72589 0.53038 0.30113 0.0
H765 H 0.77044 0.56913 0.24717 0.0
H766 H 0.72851 0.56874 0.29689 0.0
C767 C 0.73838 0.50902 0.28722 0.0
C768 C 0.01557 0.31649 0.6952 0.0
C769 C 0.02588 0.33008 0.77087 0.0
H770 H 0.01287 0.31009 0.54014 0.0
C771 C 0.04187 0.34824 0.74482 0.0
H772 H 0.00344 0.30219 0.71209 0.0
C773 C 0.04733 0.3527 0.64604 0.0
C774 C 0.03682 0.33926 0.5706 0.0
H775 H 0.04982 0.35945 0.80044 0.0
H776 H 0.05944 0.367 0.62862 0.0
C777 C 0.02093 0.32106 0.59635 0.0
C778 C 0.17525 0.02029 0.09816 0.0
C779 C 0.15974 0.03877 0.07114 0.0
H780 H 0.19065 0.00014 0.21535 0.0
C781 C 0.14772 0.05134 0.14549 0.0
H782 H 0.18517 0.01058 0.04296 0.0
C783 C 0.15084 0.04534 0.24453 0.0
C784 C 0.16614 0.02665 0.27156 0.0
H785 H 0.13546 0.06548 0.12697 0.0
H786 H 0.1408 0.05498 0.29953 0.0
C787 C 0.17843 0.01433 0.19716 0.0
C788 C 0.45394 0.15287 0.74318 0.0
C789 C 0.47362 0.16691 0.76942 0.0
H790 H 0.4329 0.13827 0.62673 0.0
C791 C 0.48681 0.1778 0.69396 0.0
H792 H 0.44351 0.14394 0.79873 0.0
C793 C 0.48071 0.17448 0.59503 0.0
C794 C 0.46124 0.16019 0.56884 0.0
H795 H 0.5018 0.18905 0.71122 0.0
H796 H 0.49114 0.18339 0.53928 0.0
C797 C 0.44784 0.14957 0.64423 0.0
C798 C 0.35168 0.44668 0.15284 0.0
C799 C 0.33951 0.4591 0.07852 0.0
H800 H 0.35862 0.44311 0.30686 0.0
C801 C 0.32378 0.47739 0.10559 0.0
H802 H 0.36412 0.4327 0.13427 0.0
C803 C 0.3205 0.4833 0.20461 0.0
C804 C 0.33293 0.47112 0.27898 0.0
H805 H 0.31374 0.48698 0.05042 0.0
H806 H 0.3081 0.49733 0.22283 0.0
C807 C 0.34847 0.45264 0.25189 0.0
C808 C 0.01413 0.17973 0.81564 0.0
C809 C 0.02549 0.16698 0.73988 0.0
H810 H 0.01097 0.18598 0.9706 0.0
C811 C 0.04301 0.15021 0.76579 0.0
H812 H 0.0008 0.19299 0.79875 0.0
C813 C 0.04885 0.14619 0.86463 0.0
C814 C 0.03727 0.15874 0.94031 0.0
H815 H 0.05185 0.1397 0.70998 0.0
H816 H 0.0621 0.13287 0.88182 0.0
C817 C 0.01992 0.17565 0.91449 0.0
C818 C 0.32926 0.04774 0.28698 0.0
C819 C 0.33149 0.02392 0.25684 0.0
H820 H 0.33052 0.07257 0.40629 0.0
C821 C 0.33726 0.00672 0.32807 0.0
H822 H 0.3246 0.06144 0.23455 0.0
C823 C 0.3407 0.01311 0.42652 0.0
C824 C 0.33845 0.03689 0.45684 0.0
H825 H 0.33963 0.9883 0.30769 0.0
H826 H 0.34556 -0.00061 0.47861 0.0
C827 C 0.33269 0.05414 0.3857 0.0
C828 C 0.45661 0.34739 0.77658 0.0
C829 C 0.4744 0.33092 0.75053 0.0
H830 H 0.43721 0.36436 0.89277 0.0
C831 C 0.48592 0.31828 0.82618 0.0
H832 H 0.44764 0.35781 0.72085 0.0
C833 C 0.48003 0.3222 0.92504 0.0
C834 C 0.46241 0.33882 0.95102 0.0
H835 H 0.49946 0.30524 0.80916 0.0
H836 H 0.48911 0.31197 0.98105 0.0
C837 C 0.45067 0.35125 0.87545 0.0
C838 C 0.1602 0.48991 0.32344 0.0
C839 C 0.16616 0.47255 0.25322 0.0
H840 H 0.15189 0.49754 0.47367 0.0
C841 C 0.1688 0.44889 0.28402 0.0
H842 H 0.15758 0.50823 0.30191 0.0
C843 C 0.16565 0.44273 0.38294 0.0
C844 C 0.15966 0.46011 0.4533 0.0
H845 H 0.17365 0.43516 0.2319 0.0
H846 H 0.16824 0.4244 0.40418 0.0
C847 C 0.15693 0.48376 0.42213 0.0
C848 C 0.94924 0.65087 0.39231 0.0
C849 C 0.96262 0.66149 0.46775 0.0
H850 H 0.94488 0.64532 0.2378 0.0
C851 C 0.98204 0.67587 0.44157 0.0
H852 H 0.93434 0.63951 0.40976 0.0
C853 C 0.9881 0.67925 0.34264 0.0
C854 C 0.97493 0.66836 0.26713 0.0
H855 H 0.99245 0.68478 0.49734 0.0
H856 H 0.00305 0.69056 0.32541 0.0
C857 C 0.95531 0.65425 0.29336 0.0
C858 C 0.83909 0.98566 0.91651 0.0
C859 C 0.83928 0.9617 0.94602 0.0
H860 H 0.83557 0.01046 0.7982 0.0
C861 C 0.83538 0.94414 0.87394 0.0
H862 H 0.84241 -0.00029 0.969 0.0
C863 C 0.83151 0.95037 0.77533 0.0
C864 C 0.8313 0.97432 0.74613 0.0
H865 H 0.83501 0.92554 0.89355 0.0
H866 H 0.82841 0.93639 0.72222 0.0
C867 C 0.83511 0.99186 0.81813 0.0
C868 C 0.51987 0.81976 0.43871 0.0
C869 C 0.53567 0.83804 0.46448 0.0
H870 H 0.50248 0.80081 0.32296 0.0
C871 C 0.5461 0.85155 0.38905 0.0
H872 H 0.51188 0.80873 0.4949 0.0
C873 C 0.54066 0.84708 0.29027 0.0
C874 C 0.52476 0.82884 0.26422 0.0
H875 H 0.55813 0.86592 0.40649 0.0
H876 H 0.54854 0.85834 0.23467 0.0
C877 C 0.51454 0.81517 0.33987 0.0
C878 C 0.6597 0.51178 0.92477 0.0
C879 C 0.65987 0.53573 0.95426 0.0
H880 H 0.66285 0.48691 0.80648 0.0
C881 C 0.664 0.55323 0.88213 0.0
H882 H 0.65619 0.49778 0.97729 0.0
C883 C 0.66778 0.54693 0.7835 0.0
C884 C 0.66764 0.52297 0.75432 0.0
H885 H 0.66465 0.57183 0.90173 0.0
H886 H 0.67106 0.56086 0.73036 0.0
C887 C 0.66358 0.5055 0.82637 0.0
C888 C 0.99054 0.83953 0.20374 0.0
C889 C 0.97327 0.83346 0.27412 0.0
H890 H 0.99803 0.84787 0.05349 0.0
C891 C 0.9496 0.83069 0.24345 0.0
H892 H 0.00886 0.84227 0.22511 0.0
C893 C 0.94336 0.83381 0.14456 0.0
C894 C 0.96066 0.83989 0.07408 0.0
H895 H 0.93593 0.82577 0.29565 0.0
H896 H 0.92504 0.83113 0.12341 0.0
C897 C 0.98431 0.84275 0.10511 0.0
C898 C 0.66755 0.94755 0.75254 0.0
C899 C 0.6648 0.97121 0.78339 0.0
H900 H 0.6671 0.92307 0.63235 0.0
C901 C 0.65876 0.98854 0.7132 0.0
H902 H 0.67246 0.93385 0.80463 0.0
C903 C 0.65552 0.98237 0.61451 0.0
C904 C 0.65835 0.95873 0.58331 0.0
H905 H 0.65605 0.00684 0.73476 0.0
H906 H 0.65041 0.99613 0.56301 0.0
C907 C 0.66442 0.94138 0.65363 0.0
C908 C 0.5519 0.64617 0.15852 0.0
C909 C 0.53956 0.65838 0.08408 0.0
H910 H 0.55547 0.63934 0.31261 0.0
C911 C 0.52141 0.67429 0.11103 0.0
H912 H 0.56578 0.6336 0.14006 0.0
C913 C 0.51557 0.67771 0.21006 0.0
C914 C 0.52767 0.66525 0.28455 0.0
H915 H 0.51188 0.68436 0.05577 0.0
H916 H 0.50164 0.69024 0.2282 0.0
C917 C 0.54601 0.64953 0.25756 0.0
C918 C 0.84932 0.5524 0.65488 0.0
C919 C 0.83823 0.53936 0.57954 0.0
H920 H 0.85538 0.55637 0.80925 0.0
C921 C 0.82346 0.52025 0.60597 0.0
H922 H 0.86101 0.56703 0.63743 0.0
C923 C 0.82027 0.51407 0.70489 0.0
C924 C 0.8317 0.52684 0.78011 0.0
H925 H 0.81416 0.5101 0.55048 0.0
H926 H 0.80875 0.4993 0.72238 0.0
C927 C 0.84607 0.54625 0.75379 0.0
loop_
_geom_bond_atom_site_label_1
_geom_bond_atom_site_label_2
_geom_bond_distance
_geom_bond_site_symmetry_2
_ccdc_geom_bond_type
Co0 N4 2.148 . S
Co0 N10 2.128 1_554 S
Co0 N20 2.214 . S
Co0 O25 2.351 . S
Co0 O26 2.155 . S
Co0 O27 2.096 . S
C1 N4 1.301 . S
C1 N5 1.328 . S
C1 H6 0.930 . S
C2 C3 1.333 . S
C2 N4 1.317 . S
C2 H7 0.930 . S
C3 C2 1.333 . S
C3 N5 1.350 . S
C3 H29 0.931 . S
N4 Co0 2.148 . S
N4 C1 1.301 . S
N4 C2 1.317 . S
N5 C1 1.328 . S
N5 C3 1.350 . S
H6 C1 0.930 . S
H7 C2 0.930 . S
C8 O9 1.224 . S
C8 O27 1.247 . S
O9 C8 1.224 . S
N10 Co0 2.128 1_556 S
N10 C11 1.398 . S
N10 C13 1.311 . S
C11 N10 1.398 . S
C11 C12 1.363 . S
C11 H23 0.892 1_455 S
C12 C11 1.363 . S
C12 N14 1.407 . S
C12 H30 0.905 1_455 S
C13 N10 1.311 . S
C13 N14 1.347 . S
C13 H24 0.929 . S
N14 C12 1.407 . S
N14 C13 1.347 . S
C15 C18 1.365 . S
C15 N20 1.307 1_655 S
C15 H21 0.929 . S
C16 C17 1.362 . S
C16 C19 1.373 . S
C16 H31 0.929 . S
C17 C16 1.362 . S
C17 C18 1.366 . S
C18 C15 1.365 . S
C18 C17 1.366 . S
C18 H32 0.930 . S
C19 C16 1.373 . S
C19 N20 1.315 1_655 S
C19 H22 0.935 1_655 S
N20 Co0 2.214 . S
N20 C15 1.307 1_455 S
N20 C19 1.315 1_455 S
H21 C15 0.929 . S
H22 C19 0.935 1_455 S
H23 C11 0.892 1_655 S
H24 C13 0.929 . S
O25 Co0 2.351 . S
O25 C28 1.244 . S
O26 Co0 2.155 . S
O26 C28 1.240 . S
O27 Co0 2.096 . S
O27 C8 1.247 . S
C28 O25 1.244 . S
C28 O26 1.240 . S
H29 C3 0.931 . S
H30 C12 0.905 1_655 S
H31 C16 0.929 . S
H32 C18 0.930 . S
Co33 N37 2.148 . S
Co33 N43 2.128 . S
Co33 N53 2.214 . S
Co33 O58 2.351 . S
Co33 O59 2.155 . S
Co33 O60 2.096 . S
C34 N37 1.301 . S
C34 N38 1.328 . S
C34 H39 0.930 . S
C35 C36 1.333 . S
C35 N37 1.317 . S
C35 H40 0.930 . S
C36 C35 1.333 . S
C36 N38 1.350 . S
C36 H62 0.931 . S
N37 Co33 2.148 . S
N37 C34 1.301 . S
N37 C35 1.317 . S
N38 C34 1.328 . S
N38 C36 1.350 . S
H39 C34 0.930 . S
H40 C35 0.930 . S
C41 O42 1.224 . S
C41 O60 1.247 . S
O42 C41 1.224 . S
N43 Co33 2.128 . S
N43 C44 1.398 . S
N43 C46 1.311 . S
C44 N43 1.398 . S
C44 C45 1.363 . S
C44 H56 0.892 1_545 S
C45 C44 1.363 . S
C45 N47 1.407 . S
C45 H63 0.905 1_545 S
C46 N43 1.311 . S
C46 N47 1.347 . S
C46 H57 0.929 . S
N47 C45 1.407 . S
N47 C46 1.347 . S
C48 C51 1.365 . S
C48 N53 1.307 1_565 S
C48 H54 0.929 . S
C49 C50 1.362 . S
C49 C52 1.373 . S
C49 H64 0.929 . S
C50 C49 1.362 . S
C50 C51 1.366 . S
C51 C48 1.365 . S
C51 C50 1.366 . S
C51 H65 0.930 . S
C52 C49 1.373 . S
C52 N53 1.315 1_565 S
C52 H55 0.935 1_565 S
N53 Co33 2.214 . S
N53 C48 1.307 1_545 S
N53 C52 1.315 1_545 S
H54 C48 0.929 . S
H55 C52 0.935 1_545 S
H56 C44 0.892 1_565 S
H57 C46 0.929 . S
O58 Co33 2.351 . S
O58 C61 1.244 . S
O59 Co33 2.155 . S
O59 C61 1.240 . S
O60 Co33 2.096 . S
O60 C41 1.247 . S
C61 O58 1.244 . S
C61 O59 1.240 . S
H62 C36 0.931 . S
H63 C45 0.905 1_565 S
H64 C49 0.929 . S
H65 C51 0.930 . S
Co66 N70 2.148 . S
Co66 N76 2.128 1_554 S
Co66 N86 2.194 . S
Co66 O91 2.351 . S
Co66 O92 2.155 . S
Co66 O93 2.096 . S
C67 N70 1.301 . S
C67 N71 1.328 . S
C67 H72 0.930 . S
C68 C69 1.333 . S
C68 N70 1.317 . S
C68 H73 0.930 . S
C69 C68 1.333 . S
C69 N71 1.350 . S
C69 H95 0.931 . S
N70 Co66 2.148 . S
N70 C67 1.301 . S
N70 C68 1.317 . S
N71 C67 1.328 . S
N71 C69 1.350 . S
H72 C67 0.930 . S
H73 C68 0.930 . S
C74 O75 1.224 . S
C74 O93 1.247 . S
O75 C74 1.224 . S
N76 Co66 2.128 1_556 S
N76 C77 1.355 . S
N76 C79 1.311 . S
C77 N76 1.355 . S
C77 C78 1.363 . S
C77 H89 0.929 . S
C78 C77 1.363 . S
C78 N80 1.375 . S
C78 H96 0.931 . S
C79 N76 1.311 . S
C79 N80 1.347 . S
C79 H90 0.929 . S
N80 C78 1.375 . S
N80 C79 1.347 . S
C81 C84 1.365 . S
C81 N86 1.328 . S
C81 H87 0.929 . S
C82 C83 1.362 . S
C82 C85 1.378 . S
C82 H97 0.929 . S
C83 C82 1.362 . S
C83 C84 1.366 . S
C84 C81 1.365 . S
C84 C83 1.366 . S
C84 H98 0.930 . S
C85 C82 1.378 . S
C85 N86 1.315 . S
C85 H88 0.930 . S
N86 Co66 2.194 . S
N86 C81 1.328 . S
N86 C85 1.315 . S
H87 C81 0.929 . S
H88 C85 0.930 . S
H89 C77 0.929 . S
H90 C79 0.929 . S
O91 Co66 2.351 . S
O91 C94 1.244 . S
O92 Co66 2.155 . S
O92 C94 1.240 . S
O93 Co66 2.096 . S
O93 C74 1.247 . S
C94 O91 1.244 . S
C94 O92 1.240 . S
H95 C69 0.931 . S
H96 C78 0.931 . S
H97 C82 0.929 . S
H98 C84 0.930 . S
Co99 N103 2.148 . S
Co99 N109 2.128 . S
Co99 N119 2.194 . S
Co99 O124 2.351 . S
Co99 O125 2.155 . S
Co99 O126 2.096 . S
C100 N103 1.301 . S
C100 N104 1.328 . S
C100 H105 0.930 . S
C101 C102 1.333 . S
C101 N103 1.317 . S
C101 H106 0.930 . S
C102 C101 1.333 . S
C102 N104 1.350 . S
C102 H128 0.931 . S
N103 Co99 2.148 . S
N103 C100 1.301 . S
N103 C101 1.317 . S
N104 C100 1.328 . S
N104 C102 1.350 . S
H105 C100 0.930 . S
H106 C101 0.930 . S
C107 O108 1.224 . S
C107 O126 1.247 . S
O108 C107 1.224 . S
N109 Co99 2.128 . S
N109 C110 1.355 . S
N109 C112 1.311 . S
C110 N109 1.355 . S
C110 C111 1.363 . S
C110 H122 0.929 . S
C111 C110 1.363 . S
C111 N113 1.375 . S
C111 H129 0.931 . S
C112 N109 1.311 . S
C112 N113 1.347 . S
C112 H123 0.929 . S
N113 C111 1.375 . S
N113 C112 1.347 . S
C114 C117 1.365 . S
C114 N119 1.328 . S
C114 H120 0.929 . S
C115 C116 1.362 . S
C115 C118 1.378 . S
C115 H130 0.929 . S
C116 C115 1.362 . S
C116 C117 1.366 . S
C117 C114 1.365 . S
C117 C116 1.366 . S
C117 H131 0.930 . S
C118 C115 1.378 . S
C118 N119 1.315 . S
C118 H121 0.930 . S
N119 Co99 2.194 . S
N119 C114 1.328 . S
N119 C118 1.315 . S
H120 C114 0.929 . S
H121 C118 0.930 . S
H122 C110 0.929 . S
H123 C112 0.929 . S
O124 Co99 2.351 . S
O124 C127 1.244 . S
O125 Co99 2.155 . S
O125 C127 1.240 . S
O126 Co99 2.096 . S
O126 C107 1.247 . S
C127 O124 1.244 . S
C127 O125 1.240 . S
H128 C102 0.931 . S
H129 C111 0.931 . S
H130 C115 0.929 . S
H131 C117 0.930 . S
Co132 N136 2.148 . S
Co132 N142 2.128 . S
Co132 N152 2.214 . S
Co132 O157 2.351 . S
Co132 O158 2.155 . S
Co132 O159 2.096 . S
C133 N136 1.301 . S
C133 N137 1.328 . S
C133 H138 0.930 . S
C134 C135 1.333 . S
C134 N136 1.317 . S
C134 H139 0.930 . S
C135 C134 1.333 . S
C135 N137 1.350 . S
C135 H161 0.931 . S
N136 Co132 2.148 . S
N136 C133 1.301 . S
N136 C134 1.317 . S
N137 C133 1.328 . S
N137 C135 1.350 . S
H138 C133 0.930 . S
H139 C134 0.930 . S
C140 O141 1.224 . S
C140 O159 1.247 . S
O141 C140 1.224 . S
N142 Co132 2.128 . S
N142 C143 1.398 . S
N142 C145 1.311 . S
C143 N142 1.398 . S
C143 C144 1.363 . S
C143 H155 0.892 1_455 S
C144 C143 1.363 . S
C144 N146 1.407 . S
C144 H162 0.905 1_455 S
C145 N142 1.311 . S
C145 N146 1.347 . S
C145 H156 0.929 . S
N146 C144 1.407 . S
N146 C145 1.347 . S
C147 C150 1.365 . S
C147 N152 1.307 1_655 S
C147 H153 0.929 . S
C148 C149 1.362 . S
C148 C151 1.373 . S
C148 H163 0.929 . S
C149 C148 1.362 . S
C149 C150 1.366 . S
C150 C147 1.365 . S
C150 C149 1.366 . S
C150 H164 0.930 . S
C151 C148 1.373 . S
C151 N152 1.315 1_655 S
C151 H154 0.935 1_655 S
N152 Co132 2.214 . S
N152 C147 1.307 1_455 S
N152 C151 1.315 1_455 S
H153 C147 0.929 . S
H154 C151 0.935 1_455 S
H155 C143 0.892 1_655 S
H156 C145 0.929 . S
O157 Co132 2.351 . S
O157 C160 1.244 . S
O158 Co132 2.155 . S
O158 C160 1.240 . S
O159 Co132 2.096 . S
O159 C140 1.247 . S
C160 O157 1.244 . S
C160 O158 1.240 . S
H161 C135 0.931 . S
H162 C144 0.905 1_655 S
H163 C148 0.929 . S
H164 C150 0.930 . S
Co165 N169 2.148 . S
Co165 N175 2.128 1_556 S
Co165 N185 2.214 . S
Co165 O190 2.351 . S
Co165 O191 2.155 . S
Co165 O192 2.096 . S
C166 N169 1.301 . S
C166 N170 1.328 . S
C166 H171 0.930 . S
C167 C168 1.333 . S
C167 N169 1.317 . S
C167 H172 0.930 . S
C168 C167 1.333 . S
C168 N170 1.350 . S
C168 H194 0.931 . S
N169 Co165 2.148 . S
N169 C166 1.301 . S
N169 C167 1.317 . S
N170 C166 1.328 . S
N170 C168 1.350 . S
H171 C166 0.930 . S
H172 C167 0.930 . S
C173 O174 1.224 . S
C173 O192 1.247 . S
O174 C173 1.224 . S
N175 Co165 2.128 1_554 S
N175 C176 1.398 . S
N175 C178 1.311 . S
C176 N175 1.398 . S
C176 C177 1.363 . S
C176 H188 0.892 1_545 S
C177 C176 1.363 . S
C177 N179 1.407 . S
C177 H195 0.905 1_545 S
C178 N175 1.311 . S
C178 N179 1.347 . S
C178 H189 0.929 . S
N179 C177 1.407 . S
N179 C178 1.347 . S
C180 C183 1.365 . S
C180 N185 1.307 1_565 S
C180 H186 0.929 . S
C181 C182 1.362 . S
C181 C184 1.373 . S
C181 H196 0.929 . S
C182 C181 1.362 . S
C182 C183 1.366 . S
C183 C180 1.365 . S
C183 C182 1.366 . S
C183 H197 0.930 . S
C184 C181 1.373 . S
C184 N185 1.315 1_565 S
C184 H187 0.935 1_565 S
N185 Co165 2.214 . S
N185 C180 1.307 1_545 S
N185 C184 1.315 1_545 S
H186 C180 0.929 . S
H187 C184 0.935 1_545 S
H188 C176 0.892 1_565 S
H189 C178 0.929 . S
O190 Co165 2.351 . S
O190 C193 1.244 . S
O191 Co165 2.155 . S
O191 C193 1.240 . S
O192 Co165 2.096 . S
O192 C173 1.247 . S
C193 O190 1.244 . S
C193 O191 1.240 . S
H194 C168 0.931 . S
H195 C177 0.905 1_565 S
H196 C181 0.929 . S
H197 C183 0.930 . S
Co198 N202 2.148 . S
Co198 N208 2.128 . S
Co198 N218 2.194 . S
Co198 O223 2.351 . S
Co198 O224 2.155 . S
Co198 O225 2.096 . S
C199 N202 1.301 . S
C199 N203 1.328 . S
C199 H204 0.930 . S
C200 C201 1.333 . S
C200 N202 1.317 . S
C200 H205 0.930 . S
C201 C200 1.333 . S
C201 N203 1.350 . S
C201 H227 0.931 . S
N202 Co198 2.148 . S
N202 C199 1.301 . S
N202 C200 1.317 . S
N203 C199 1.328 . S
N203 C201 1.350 . S
H204 C199 0.930 . S
H205 C200 0.930 . S
C206 O207 1.224 . S
C206 O225 1.247 . S
O207 C206 1.224 . S
N208 Co198 2.128 . S
N208 C209 1.355 . S
N208 C211 1.311 . S
C209 N208 1.355 . S
C209 C210 1.363 . S
C209 H221 0.929 . S
C210 C209 1.363 . S
C210 N212 1.375 . S
C210 H228 0.931 . S
C211 N208 1.311 . S
C211 N212 1.347 . S
C211 H222 0.929 . S
N212 C210 1.375 . S
N212 C211 1.347 . S
C213 C216 1.365 . S
C213 N218 1.328 . S
C213 H219 0.929 . S
C214 C215 1.362 . S
C214 C217 1.378 . S
C214 H229 0.929 . S
C215 C214 1.362 . S
C215 C216 1.366 . S
C216 C213 1.365 . S
C216 C215 1.366 . S
C216 H230 0.930 . S
C217 C214 1.378 . S
C217 N218 1.315 . S
C217 H220 0.930 . S
N218 Co198 2.194 . S
N218 C213 1.328 . S
N218 C217 1.315 . S
H219 C213 0.929 . S
H220 C217 0.930 . S
H221 C209 0.929 . S
H222 C211 0.929 . S
O223 Co198 2.351 . S
O223 C226 1.244 . S
O224 Co198 2.155 . S
O224 C226 1.240 . S
O225 Co198 2.096 . S
O225 C206 1.247 . S
C226 O223 1.244 . S
C226 O224 1.240 . S
H227 C201 0.931 . S
H228 C210 0.931 . S
H229 C214 0.929 . S
H230 C216 0.930 . S
Co231 N235 2.148 . S
Co231 N241 2.128 1_556 S
Co231 N251 2.194 . S
Co231 O256 2.351 . S
Co231 O257 2.155 . S
Co231 O258 2.096 . S
C232 N235 1.301 . S
C232 N236 1.328 . S
C232 H237 0.930 . S
C233 C234 1.333 . S
C233 N235 1.317 . S
C233 H238 0.930 . S
C234 C233 1.333 . S
C234 N236 1.350 . S
C234 H260 0.931 . S
N235 Co231 2.148 . S
N235 C232 1.301 . S
N235 C233 1.317 . S
N236 C232 1.328 . S
N236 C234 1.350 . S
H237 C232 0.930 . S
H238 C233 0.930 . S
C239 O240 1.224 . S
C239 O258 1.247 . S
O240 C239 1.224 . S
N241 Co231 2.128 1_554 S
N241 C242 1.355 . S
N241 C244 1.311 . S
C242 N241 1.355 . S
C242 C243 1.363 . S
C242 H254 0.929 . S
C243 C242 1.363 . S
C243 N245 1.375 . S
C243 H261 0.931 . S
C244 N241 1.311 . S
C244 N245 1.347 . S
C244 H255 0.929 . S
N245 C243 1.375 . S
N245 C244 1.347 . S
C246 C249 1.365 . S
C246 N251 1.328 . S
C246 H252 0.929 . S
C247 C248 1.362 . S
C247 C250 1.378 . S
C247 H262 0.929 . S
C248 C247 1.362 . S
C248 C249 1.366 . S
C249 C246 1.365 . S
C249 C248 1.366 . S
C249 H263 0.930 . S
C250 C247 1.378 . S
C250 N251 1.315 . S
C250 H253 0.930 . S
N251 Co231 2.194 . S
N251 C246 1.328 . S
N251 C250 1.315 . S
H252 C246 0.929 . S
H253 C250 0.930 . S
H254 C242 0.929 . S
H255 C244 0.929 . S
O256 Co231 2.351 . S
O256 C259 1.244 . S
O257 Co231 2.155 . S
O257 C259 1.240 . S
O258 Co231 2.096 . S
O258 C239 1.247 . S
C259 O256 1.244 . S
C259 O257 1.240 . S
H260 C234 0.931 . S
H261 C243 0.931 . S
H262 C247 0.929 . S
H263 C249 0.930 . S
Co264 N268 2.148 . S
Co264 N274 2.128 1_556 S
Co264 N284 2.214 . S
Co264 O289 2.351 . S
Co264 O290 2.155 . S
Co264 O291 2.096 . S
C265 N268 1.301 . S
C265 N269 1.328 . S
C265 H270 0.930 . S
C266 C267 1.333 . S
C266 N268 1.317 . S
C266 H271 0.930 . S
C267 C266 1.333 . S
C267 N269 1.350 . S
C267 H293 0.931 . S
N268 Co264 2.148 . S
N268 C265 1.301 . S
N268 C266 1.317 . S
N269 C265 1.328 . S
N269 C267 1.350 . S
H270 C265 0.930 . S
H271 C266 0.930 . S
C272 O273 1.224 . S
C272 O291 1.247 . S
O273 C272 1.224 . S
N274 Co264 2.128 1_554 S
N274 C275 1.398 . S
N274 C277 1.311 . S
C275 N274 1.398 . S
C275 C276 1.363 . S
C275 H287 0.892 1_655 S
C276 C275 1.363 . S
C276 N278 1.407 . S
C276 H294 0.905 1_655 S
C277 N274 1.311 . S
C277 N278 1.347 . S
C277 H288 0.929 . S
N278 C276 1.407 . S
N278 C277 1.347 . S
C279 C282 1.365 . S
C279 N284 1.307 1_455 S
C279 H285 0.929 . S
C280 C281 1.362 . S
C280 C283 1.373 . S
C280 H295 0.929 . S
C281 C280 1.362 . S
C281 C282 1.366 . S
C282 C279 1.365 . S
C282 C281 1.366 . S
C282 H296 0.930 . S
C283 C280 1.373 . S
C283 N284 1.315 1_455 S
C283 H286 0.935 1_455 S
N284 Co264 2.214 . S
N284 C279 1.307 1_655 S
N284 C283 1.315 1_655 S
H285 C279 0.929 . S
H286 C283 0.935 1_655 S
H287 C275 0.892 1_455 S
H288 C277 0.929 . S
O289 Co264 2.351 . S
O289 C292 1.244 . S
O290 Co264 2.155 . S
O290 C292 1.240 . S
O291 Co264 2.096 . S
O291 C272 1.247 . S
C292 O289 1.244 . S
C292 O290 1.240 . S
H293 C267 0.931 . S
H294 C276 0.905 1_455 S
H295 C280 0.929 . S
H296 C282 0.930 . S
Co297 N301 2.148 . S
Co297 N307 2.128 . S
Co297 N317 2.214 . S
Co297 O322 2.351 . S
Co297 O323 2.155 . S
Co297 O324 2.096 . S
C298 N301 1.301 . S
C298 N302 1.328 . S
C298 H303 0.930 . S
C299 C300 1.333 . S
C299 N301 1.317 . S
C299 H304 0.930 . S
C300 C299 1.333 . S
C300 N302 1.350 . S
C300 H326 0.931 . S
N301 Co297 2.148 . S
N301 C298 1.301 . S
N301 C299 1.317 . S
N302 C298 1.328 . S
N302 C300 1.350 . S
H303 C298 0.930 . S
H304 C299 0.930 . S
C305 O306 1.224 . S
C305 O324 1.247 . S
O306 C305 1.224 . S
N307 Co297 2.128 . S
N307 C308 1.398 . S
N307 C310 1.311 . S
C308 N307 1.398 . S
C308 C309 1.363 . S
C308 H320 0.892 1_565 S
C309 C308 1.363 . S
C309 N311 1.407 . S
C309 H327 0.905 1_565 S
C310 N307 1.311 . S
C310 N311 1.347 . S
C310 H321 0.929 . S
N311 C309 1.407 . S
N311 C310 1.347 . S
C312 C315 1.365 . S
C312 N317 1.307 1_545 S
C312 H318 0.929 . S
C313 C314 1.362 . S
C313 C316 1.373 . S
C313 H328 0.929 . S
C314 C313 1.362 . S
C314 C315 1.366 . S
C315 C312 1.365 . S
C315 C314 1.366 . S
C315 H329 0.930 . S
C316 C313 1.373 . S
C316 N317 1.315 1_545 S
C316 H319 0.935 1_545 S
N317 Co297 2.214 . S
N317 C312 1.307 1_565 S
N317 C316 1.315 1_565 S
H318 C312 0.929 . S
H319 C316 0.935 1_565 S
H320 C308 0.892 1_545 S
H321 C310 0.929 . S
O322 Co297 2.351 . S
O322 C325 1.244 . S
O323 Co297 2.155 . S
O323 C325 1.240 . S
O324 Co297 2.096 . S
O324 C305 1.247 . S
C325 O322 1.244 . S
C325 O323 1.240 . S
H326 C300 0.931 . S
H327 C309 0.905 1_545 S
H328 C313 0.929 . S
H329 C315 0.930 . S
Co330 N334 2.148 . S
Co330 N340 2.128 1_556 S
Co330 N350 2.194 . S
Co330 O355 2.351 . S
Co330 O356 2.155 . S
Co330 O357 2.096 . S
C331 N334 1.301 . S
C331 N335 1.328 . S
C331 H336 0.930 . S
C332 C333 1.333 . S
C332 N334 1.317 . S
C332 H337 0.930 . S
C333 C332 1.333 . S
C333 N335 1.350 . S
C333 H359 0.931 . S
N334 Co330 2.148 . S
N334 C331 1.301 . S
N334 C332 1.317 . S
N335 C331 1.328 . S
N335 C333 1.350 . S
H336 C331 0.930 . S
H337 C332 0.930 . S
C338 O339 1.224 . S
C338 O357 1.247 . S
O339 C338 1.224 . S
N340 Co330 2.128 1_554 S
N340 C341 1.355 . S
N340 C343 1.311 . S
C341 N340 1.355 . S
C341 C342 1.363 . S
C341 H353 0.929 . S
C342 C341 1.363 . S
C342 N344 1.375 . S
C342 H360 0.931 . S
C343 N340 1.311 . S
C343 N344 1.347 . S
C343 H354 0.929 . S
N344 C342 1.375 . S
N344 C343 1.347 . S
C345 C348 1.365 . S
C345 N350 1.328 . S
C345 H351 0.929 . S
C346 C347 1.362 . S
C346 C349 1.378 . S
C346 H361 0.929 . S
C347 C346 1.362 . S
C347 C348 1.366 . S
C348 C345 1.365 . S
C348 C347 1.366 . S
C348 H362 0.930 . S
C349 C346 1.378 . S
C349 N350 1.315 . S
C349 H352 0.930 . S
N350 Co330 2.194 . S
N350 C345 1.328 . S
N350 C349 1.315 . S
H351 C345 0.929 . S
H352 C349 0.930 . S
H353 C341 0.929 . S
H354 C343 0.929 . S
O355 Co330 2.351 . S
O355 C358 1.244 . S
O356 Co330 2.155 . S
O356 C358 1.240 . S
O357 Co330 2.096 . S
O357 C338 1.247 . S
C358 O355 1.244 . S
C358 O356 1.240 . S
H359 C333 0.931 . S
H360 C342 0.931 . S
H361 C346 0.929 . S
H362 C348 0.930 . S
Co363 N367 2.148 . S
Co363 N373 2.128 . S
Co363 N383 2.194 . S
Co363 O388 2.351 . S
Co363 O389 2.155 . S
Co363 O390 2.096 . S
C364 N367 1.301 . S
C364 N368 1.328 . S
C364 H369 0.930 . S
C365 C366 1.333 . S
C365 N367 1.317 . S
C365 H370 0.930 . S
C366 C365 1.333 . S
C366 N368 1.350 . S
C366 H392 0.931 . S
N367 Co363 2.148 . S
N367 C364 1.301 . S
N367 C365 1.317 . S
N368 C364 1.328 . S
N368 C366 1.350 . S
H369 C364 0.930 . S
H370 C365 0.930 . S
C371 O372 1.224 . S
C371 O390 1.247 . S
O372 C371 1.224 . S
N373 Co363 2.128 . S
N373 C374 1.355 . S
N373 C376 1.311 . S
C374 N373 1.355 . S
C374 C375 1.363 . S
C374 H386 0.929 . S
C375 C374 1.363 . S
C375 N377 1.375 . S
C375 H393 0.931 . S
C376 N373 1.311 . S
C376 N377 1.347 . S
C376 H387 0.929 . S
N377 C375 1.375 . S
N377 C376 1.347 . S
C378 C381 1.365 . S
C378 N383 1.328 . S
C378 H384 0.929 . S
C379 C380 1.362 . S
C379 C382 1.378 . S
C379 H394 0.929 . S
C380 C379 1.362 . S
C380 C381 1.366 . S
C381 C378 1.365 . S
C381 C380 1.366 . S
C381 H395 0.930 . S
C382 C379 1.378 . S
C382 N383 1.315 . S
C382 H385 0.930 . S
N383 Co363 2.194 . S
N383 C378 1.328 . S
N383 C382 1.315 . S
H384 C378 0.929 . S
H385 C382 0.930 . S
H386 C374 0.929 . S
H387 C376 0.929 . S
O388 Co363 2.351 . S
O388 C391 1.244 . S
O389 Co363 2.155 . S
O389 C391 1.240 . S
O390 Co363 2.096 . S
O390 C371 1.247 . S
C391 O388 1.244 . S
C391 O389 1.240 . S
H392 C366 0.931 . S
H393 C375 0.931 . S
H394 C379 0.929 . S
H395 C381 0.930 . S
Co396 N400 2.148 . S
Co396 N406 2.128 . S
Co396 N416 2.214 . S
Co396 O421 2.351 . S
Co396 O422 2.155 . S
Co396 O423 2.096 . S
C397 N400 1.301 . S
C397 N401 1.328 . S
C397 H402 0.930 . S
C398 C399 1.333 . S
C398 N400 1.317 . S
C398 H403 0.930 . S
C399 C398 1.333 . S
C399 N401 1.350 . S
C399 H425 0.931 . S
N400 Co396 2.148 . S
N400 C397 1.301 . S
N400 C398 1.317 . S
N401 C397 1.328 . S
N401 C399 1.350 . S
H402 C397 0.930 . S
H403 C398 0.930 . S
C404 O405 1.224 . S
C404 O423 1.247 . S
O405 C404 1.224 . S
N406 Co396 2.128 . S
N406 C407 1.398 . S
N406 C409 1.311 . S
C407 N406 1.398 . S
C407 C408 1.363 . S
C407 H419 0.892 1_655 S
C408 C407 1.363 . S
C408 N410 1.407 . S
C408 H426 0.905 1_655 S
C409 N406 1.311 . S
C409 N410 1.347 . S
C409 H420 0.929 . S
N410 C408 1.407 . S
N410 C409 1.347 . S
C411 C414 1.365 . S
C411 N416 1.307 1_455 S
C411 H417 0.929 . S
C412 C413 1.362 . S
C412 C415 1.373 . S
C412 H427 0.929 . S
C413 C412 1.362 . S
C413 C414 1.366 . S
C414 C411 1.365 . S
C414 C413 1.366 . S
C414 H428 0.930 . S
C415 C412 1.373 . S
C415 N416 1.315 1_455 S
C415 H418 0.935 1_455 S
N416 Co396 2.214 . S
N416 C411 1.307 1_655 S
N416 C415 1.315 1_655 S
H417 C411 0.929 . S
H418 C415 0.935 1_655 S
H419 C407 0.892 1_455 S
H420 C409 0.929 . S
O421 Co396 2.351 . S
O421 C424 1.244 . S
O422 Co396 2.155 . S
O422 C424 1.240 . S
O423 Co396 2.096 . S
O423 C404 1.247 . S
C424 O421 1.244 . S
C424 O422 1.240 . S
H425 C399 0.931 . S
H426 C408 0.905 1_455 S
H427 C412 0.929 . S
H428 C414 0.930 . S
Co429 N433 2.148 . S
Co429 N439 2.128 1_554 S
Co429 N449 2.214 . S
Co429 O454 2.351 . S
Co429 O455 2.155 . S
Co429 O456 2.096 . S
C430 N433 1.301 . S
C430 N434 1.328 . S
C430 H435 0.930 . S
C431 C432 1.333 . S
C431 N433 1.317 . S
C431 H436 0.930 . S
C432 C431 1.333 . S
C432 N434 1.350 . S
C432 H458 0.931 . S
N433 Co429 2.148 . S
N433 C430 1.301 . S
N433 C431 1.317 . S
N434 C430 1.328 . S
N434 C432 1.350 . S
H435 C430 0.930 . S
H436 C431 0.930 . S
C437 O438 1.224 . S
C437 O456 1.247 . S
O438 C437 1.224 . S
N439 Co429 2.128 1_556 S
N439 C440 1.398 . S
N439 C442 1.311 . S
C440 N439 1.398 . S
C440 C441 1.363 . S
C440 H452 0.892 1_565 S
C441 C440 1.363 . S
C441 N443 1.407 . S
C441 H459 0.905 1_565 S
C442 N439 1.311 . S
C442 N443 1.347 . S
C442 H453 0.929 . S
N443 C441 1.407 . S
N443 C442 1.347 . S
C444 C447 1.365 . S
C444 N449 1.307 1_545 S
C444 H450 0.929 . S
C445 C446 1.362 . S
C445 C448 1.373 . S
C445 H460 0.929 . S
C446 C445 1.362 . S
C446 C447 1.366 . S
C447 C444 1.365 . S
C447 C446 1.366 . S
C447 H461 0.930 . S
C448 C445 1.373 . S
C448 N449 1.315 1_545 S
C448 H451 0.935 1_545 S
N449 Co429 2.214 . S
N449 C444 1.307 1_565 S
N449 C448 1.315 1_565 S
H450 C444 0.929 . S
H451 C448 0.935 1_565 S
H452 C440 0.892 1_545 S
H453 C442 0.929 . S
O454 Co429 2.351 . S
O454 C457 1.244 . S
O455 Co429 2.155 . S
O455 C457 1.240 . S
O456 Co429 2.096 . S
O456 C437 1.247 . S
C457 O454 1.244 . S
C457 O455 1.240 . S
H458 C432 0.931 . S
H459 C441 0.905 1_545 S
H460 C445 0.929 . S
H461 C447 0.930 . S
Co462 N466 2.148 . S
Co462 N472 2.128 . S
Co462 N482 2.194 . S
Co462 O487 2.351 . S
Co462 O488 2.155 . S
Co462 O489 2.096 . S
C463 N466 1.301 . S
C463 N467 1.328 . S
C463 H468 0.930 . S
C464 C465 1.333 . S
C464 N466 1.317 . S
C464 H469 0.930 . S
C465 C464 1.333 . S
C465 N467 1.350 . S
C465 H491 0.931 . S
N466 Co462 2.148 . S
N466 C463 1.301 . S
N466 C464 1.317 . S
N467 C463 1.328 . S
N467 C465 1.350 . S
H468 C463 0.930 . S
H469 C464 0.930 . S
C470 O471 1.224 . S
C470 O489 1.247 . S
O471 C470 1.224 . S
N472 Co462 2.128 . S
N472 C473 1.355 . S
N472 C475 1.311 . S
C473 N472 1.355 . S
C473 C474 1.363 . S
C473 H485 0.929 . S
C474 C473 1.363 . S
C474 N476 1.375 . S
C474 H492 0.931 . S
C475 N472 1.311 . S
C475 N476 1.347 . S
C475 H486 0.929 . S
N476 C474 1.375 . S
N476 C475 1.347 . S
C477 C480 1.365 . S
C477 N482 1.328 . S
C477 H483 0.929 . S
C478 C479 1.362 . S
C478 C481 1.378 . S
C478 H493 0.929 . S
C479 C478 1.362 . S
C479 C480 1.366 . S
C480 C477 1.365 . S
C480 C479 1.366 . S
C480 H494 0.930 . S
C481 C478 1.378 . S
C481 N482 1.315 . S
C481 H484 0.930 . S
N482 Co462 2.194 . S
N482 C477 1.328 . S
N482 C481 1.315 . S
H483 C477 0.929 . S
H484 C481 0.930 . S
H485 C473 0.929 . S
H486 C475 0.929 . S
O487 Co462 2.351 . S
O487 C490 1.244 . S
O488 Co462 2.155 . S
O488 C490 1.240 . S
O489 Co462 2.096 . S
O489 C470 1.247 . S
C490 O487 1.244 . S
C490 O488 1.240 . S
H491 C465 0.931 . S
H492 C474 0.931 . S
H493 C478 0.929 . S
H494 C480 0.930 . S
Co495 N499 2.148 . S
Co495 N505 2.128 1_554 S
Co495 N515 2.194 . S
Co495 O520 2.351 . S
Co495 O521 2.155 . S
Co495 O522 2.096 . S
C496 N499 1.301 . S
C496 N500 1.328 . S
C496 H501 0.930 . S
C497 C498 1.333 . S
C497 N499 1.317 . S
C497 H502 0.930 . S
C498 C497 1.333 . S
C498 N500 1.350 . S
C498 H524 0.931 . S
N499 Co495 2.148 . S
N499 C496 1.301 . S
N499 C497 1.317 . S
N500 C496 1.328 . S
N500 C498 1.350 . S
H501 C496 0.930 . S
H502 C497 0.930 . S
C503 O504 1.224 . S
C503 O522 1.247 . S
O504 C503 1.224 . S
N505 Co495 2.128 1_556 S
N505 C506 1.355 . S
N505 C508 1.311 . S
C506 N505 1.355 . S
C506 C507 1.363 . S
C506 H518 0.929 . S
C507 C506 1.363 . S
C507 N509 1.375 . S
C507 H525 0.931 . S
C508 N505 1.311 . S
C508 N509 1.347 . S
C508 H519 0.929 . S
N509 C507 1.375 . S
N509 C508 1.347 . S
C510 C513 1.365 . S
C510 N515 1.328 . S
C510 H516 0.929 . S
C511 C512 1.362 . S
C511 C514 1.378 . S
C511 H526 0.929 . S
C512 C511 1.362 . S
C512 C513 1.366 . S
C513 C510 1.365 . S
C513 C512 1.366 . S
C513 H527 0.930 . S
C514 C511 1.378 . S
C514 N515 1.315 . S
C514 H517 0.930 . S
N515 Co495 2.194 . S
N515 C510 1.328 . S
N515 C514 1.315 . S
H516 C510 0.929 . S
H517 C514 0.930 . S
H518 C506 0.929 . S
H519 C508 0.929 . S
O520 Co495 2.351 . S
O520 C523 1.244 . S
O521 Co495 2.155 . S
O521 C523 1.240 . S
O522 Co495 2.096 . S
O522 C503 1.247 . S
C523 O520 1.244 . S
C523 O521 1.240 . S
H524 C498 0.931 . S
H525 C507 0.931 . S
H526 C511 0.929 . S
H527 C513 0.930 . S
C528 C529 1.387 . S
C528 H532 0.950 . S
C528 C537 1.390 . S
C529 C528 1.387 . S
C529 C531 1.387 . S
H530 C537 0.950 . S
C531 C529 1.387 . S
C531 C533 1.390 . S
C531 H535 0.950 . S
H532 C528 0.950 . S
C533 C531 1.390 . S
C533 C534 1.387 . S
C533 H536 0.950 . S
C534 C533 1.387 . S
C534 C537 1.387 . S
H535 C531 0.950 . S
H536 C533 0.950 . S
C537 C528 1.390 . S
C537 H530 0.950 . S
C537 C534 1.387 . S
C538 C539 1.387 . S
C538 H542 0.950 . S
C538 C547 1.390 . S
C539 C538 1.387 . S
C539 C541 1.387 . S
H540 C547 0.950 . S
C541 C539 1.387 . S
C541 C543 1.390 . S
C541 H545 0.950 . S
H542 C538 0.950 . S
C543 C541 1.390 . S
C543 C544 1.387 . S
C543 H546 0.950 . S
C544 C543 1.387 . S
C544 C547 1.387 . S
H545 C541 0.950 . S
H546 C543 0.950 . S
C547 C538 1.390 . S
C547 H540 0.950 . S
C547 C544 1.387 . S
C548 C549 1.387 . S
C548 H552 0.950 . S
C548 C557 1.390 . S
C549 C548 1.387 . S
C549 C551 1.387 . S
H550 C557 0.950 . S
C551 C549 1.387 . S
C551 C553 1.390 . S
C551 H555 0.950 . S
H552 C548 0.950 . S
C553 C551 1.390 . S
C553 C554 1.387 . S
C553 H556 0.950 . S
C554 C553 1.387 . S
C554 C557 1.387 . S
H555 C551 0.950 . S
H556 C553 0.950 . S
C557 C548 1.390 . S
C557 H550 0.950 . S
C557 C554 1.387 . S
C558 C559 1.387 . S
C558 H562 0.950 . S
C558 C567 1.390 . S
C559 C558 1.387 . S
C559 C561 1.387 . S
H560 C567 0.950 . S
C561 C559 1.387 . S
C561 C563 1.390 . S
C561 H565 0.950 . S
H562 C558 0.950 . S
C563 C561 1.390 . S
C563 C564 1.387 . S
C563 H566 0.950 . S
C564 C563 1.387 . S
C564 C567 1.387 . S
H565 C561 0.950 . S
H566 C563 0.950 . S
C567 C558 1.390 . S
C567 H560 0.950 . S
C567 C564 1.387 . S
C568 C569 1.387 . S
C568 H572 0.950 . S
C568 C577 1.390 . S
C569 C568 1.387 . S
C569 C571 1.387 . S
H570 C577 0.950 . S
C571 C569 1.387 . S
C571 C573 1.390 . S
C571 H575 0.950 . S
H572 C568 0.950 . S
C573 C571 1.390 . S
C573 C574 1.387 . S
C573 H576 0.950 . S
C574 C573 1.387 . S
C574 C577 1.387 . S
H575 C571 0.950 . S
H576 C573 0.950 . S
C577 C568 1.390 . S
C577 H570 0.950 . S
C577 C574 1.387 . S
C578 C579 1.387 . S
C578 H582 0.950 . S
C578 C587 1.390 . S
C579 C578 1.387 . S
C579 C581 1.387 . S
H580 C587 0.950 . S
C581 C579 1.387 . S
C581 C583 1.390 . S
C581 H585 0.950 . S
H582 C578 0.950 . S
C583 C581 1.390 . S
C583 C584 1.387 . S
C583 H586 0.950 . S
C584 C583 1.387 . S
C584 C587 1.387 . S
H585 C581 0.950 . S
H586 C583 0.950 . S
C587 C578 1.390 . S
C587 H580 0.950 . S
C587 C584 1.387 . S
C588 C589 1.387 . S
C588 H592 0.950 . S
C588 C597 1.390 . S
C589 C588 1.387 . S
C589 C591 1.387 . S
H590 C597 0.950 . S
C591 C589 1.387 . S
C591 C593 1.390 . S
C591 H595 0.950 . S
H592 C588 0.950 . S
C593 C591 1.390 . S
C593 C594 1.387 . S
C593 H596 0.950 . S
C594 C593 1.387 . S
C594 C597 1.387 . S
H595 C591 0.950 . S
H596 C593 0.950 . S
C597 C588 1.390 . S
C597 H590 0.950 . S
C597 C594 1.387 . S
C598 C599 1.387 . S
C598 H602 0.950 . S
C598 C607 1.390 . S
C599 C598 1.387 . S
C599 C601 1.387 . S
H600 C607 0.950 . S
C601 C599 1.387 . S
C601 C603 1.390 . S
C601 H605 0.950 . S
H602 C598 0.950 . S
C603 C601 1.390 . S
C603 C604 1.387 . S
C603 H606 0.950 . S
C604 C603 1.387 . S
C604 C607 1.387 . S
H605 C601 0.950 . S
H606 C603 0.950 . S
C607 C598 1.390 . S
C607 H600 0.950 . S
C607 C604 1.387 . S
C608 C609 1.387 . S
C608 H612 0.950 . S
C608 C617 1.390 . S
C609 C608 1.387 . S
C609 C611 1.387 1_554 S
H610 C617 0.950 . S
C611 C609 1.387 1_556 S
C611 C613 1.390 . S
C611 H615 0.950 . S
H612 C608 0.950 . S
C613 C611 1.390 . S
C613 C614 1.387 . S
C613 H616 0.950 . S
C614 C613 1.387 . S
C614 C617 1.387 1_556 S
H615 C611 0.950 . S
H616 C613 0.950 . S
C617 C608 1.390 . S
C617 H610 0.950 . S
C617 C614 1.387 1_554 S
C618 C619 1.387 . S
C618 H622 0.950 . S
C618 C627 1.390 . S
C619 C618 1.387 . S
C619 C621 1.387 . S
H620 C627 0.950 . S
C621 C619 1.387 . S
C621 C623 1.390 . S
C621 H625 0.950 . S
H622 C618 0.950 . S
C623 C621 1.390 . S
C623 C624 1.387 . S
C623 H626 0.950 . S
C624 C623 1.387 . S
C624 C627 1.387 . S
H625 C621 0.950 . S
H626 C623 0.950 . S
C627 C618 1.390 . S
C627 H620 0.950 . S
C627 C624 1.387 . S
C628 C629 1.387 . S
C628 H632 0.950 . S
C628 C637 1.390 . S
C629 C628 1.387 . S
C629 C631 1.387 1_554 S
H630 C637 0.950 . S
C631 C629 1.387 1_556 S
C631 C633 1.390 . S
C631 H635 0.950 . S
H632 C628 0.950 . S
C633 C631 1.390 . S
C633 C634 1.387 . S
C633 H636 0.950 . S
C634 C633 1.387 . S
C634 C637 1.387 1_556 S
H635 C631 0.950 . S
H636 C633 0.950 . S
C637 C628 1.390 . S
C637 H630 0.950 . S
C637 C634 1.387 1_554 S
C638 C639 1.387 . S
C638 H642 0.950 . S
C638 C647 1.390 . S
C639 C638 1.387 . S
C639 C641 1.387 . S
H640 C647 0.950 . S
C641 C639 1.387 . S
C641 C643 1.390 . S
C641 H645 0.950 . S
H642 C638 0.950 . S
C643 C641 1.390 . S
C643 C644 1.387 . S
C643 H646 0.950 . S
C644 C643 1.387 . S
C644 C647 1.387 . S
H645 C641 0.950 . S
H646 C643 0.950 . S
C647 C638 1.390 . S
C647 H640 0.950 . S
C647 C644 1.387 . S
C648 C649 1.387 . S
C648 H652 0.950 . S
C648 C657 1.390 . S
C649 C648 1.387 . S
C649 C651 1.387 1_554 S
H650 C657 0.950 . S
C651 C649 1.387 1_556 S
C651 C653 1.390 . S
C651 H655 0.950 . S
H652 C648 0.950 . S
C653 C651 1.390 . S
C653 C654 1.387 . S
C653 H656 0.950 . S
C654 C653 1.387 . S
C654 C657 1.387 1_556 S
H655 C651 0.950 . S
H656 C653 0.950 . S
C657 C648 1.390 . S
C657 H650 0.950 . S
C657 C654 1.387 1_554 S
C658 C659 1.387 . S
C658 H662 0.950 . S
C658 C667 1.390 . S
C659 C658 1.387 . S
C659 C661 1.387 . S
H660 C667 0.950 . S
C661 C659 1.387 . S
C661 C663 1.390 . S
C661 H665 0.950 . S
H662 C658 0.950 . S
C663 C661 1.390 . S
C663 C664 1.387 . S
C663 H666 0.950 . S
C664 C663 1.387 . S
C664 C667 1.387 . S
H665 C661 0.950 . S
H666 C663 0.950 . S
C667 C658 1.390 . S
C667 H660 0.950 . S
C667 C664 1.387 . S
C668 C669 1.387 . S
C668 H672 0.950 . S
C668 C677 1.390 . S
C669 C668 1.387 . S
C669 C671 1.387 1_554 S
H670 C677 0.950 . S
C671 C669 1.387 1_556 S
C671 C673 1.390 . S
C671 H675 0.950 . S
H672 C668 0.950 . S
C673 C671 1.390 . S
C673 C674 1.387 . S
C673 H676 0.950 . S
C674 C673 1.387 . S
C674 C677 1.387 1_556 S
H675 C671 0.950 . S
H676 C673 0.950 . S
C677 C668 1.390 . S
C677 H670 0.950 . S
C677 C674 1.387 1_554 S
C678 C679 1.387 . S
C678 H682 0.950 . S
C678 C687 1.390 . S
C679 C678 1.387 . S
C679 C681 1.387 . S
H680 C687 0.950 . S
C681 C679 1.387 . S
C681 C683 1.390 . S
C681 H685 0.950 . S
H682 C678 0.950 . S
C683 C681 1.390 . S
C683 C684 1.387 . S
C683 H686 0.950 . S
C684 C683 1.387 . S
C684 C687 1.387 . S
H685 C681 0.950 . S
H686 C683 0.950 . S
C687 C678 1.390 . S
C687 H680 0.950 . S
C687 C684 1.387 . S
C688 C689 1.387 . S
C688 H692 0.950 . S
C688 C697 1.390 . S
C689 C688 1.387 . S
C689 C691 1.387 . S
H690 C697 0.950 . S
C691 C689 1.387 . S
C691 C693 1.390 . S
C691 H695 0.950 1_455 S
H692 C688 0.950 . S
C693 C691 1.390 . S
C693 C694 1.387 . S
C693 H696 0.950 1_455 S
C694 C693 1.387 . S
C694 C697 1.387 . S
H695 C691 0.950 1_655 S
H696 C693 0.950 1_655 S
C697 C688 1.390 . S
C697 H690 0.950 . S
C697 C694 1.387 . S
C698 C699 1.387 . S
C698 H702 0.950 1_545 S
C698 C707 1.390 . S
C699 C698 1.387 . S
C699 C701 1.387 . S
H700 C707 0.950 1_565 S
C701 C699 1.387 . S
C701 C703 1.390 . S
C701 H705 0.950 . S
H702 C698 0.950 1_565 S
C703 C701 1.390 . S
C703 C704 1.387 . S
C703 H706 0.950 . S
C704 C703 1.387 . S
C704 C707 1.387 . S
H705 C701 0.950 . S
H706 C703 0.950 . S
C707 C698 1.390 . S
C707 H700 0.950 1_545 S
C707 C704 1.387 . S
C708 C709 1.387 . S
C708 H712 0.950 . S
C708 C717 1.390 . S
C709 C708 1.387 . S
C709 C711 1.387 . S
H710 C717 0.950 . S
C711 C709 1.387 . S
C711 C713 1.390 . S
C711 H715 0.950 . S
H712 C708 0.950 . S
C713 C711 1.390 . S
C713 C714 1.387 . S
C713 H716 0.950 . S
C714 C713 1.387 . S
C714 C717 1.387 . S
H715 C711 0.950 . S
H716 C713 0.950 . S
C717 C708 1.390 . S
C717 H710 0.950 . S
C717 C714 1.387 . S
C718 C719 1.387 . S
C718 H722 0.950 . S
C718 C727 1.390 . S
C719 C718 1.387 . S
C719 C721 1.387 . S
H720 C727 0.950 . S
C721 C719 1.387 . S
C721 C723 1.390 . S
C721 H725 0.950 . S
H722 C718 0.950 . S
C723 C721 1.390 . S
C723 C724 1.387 . S
C723 H726 0.950 . S
C724 C723 1.387 . S
C724 C727 1.387 . S
H725 C721 0.950 . S
H726 C723 0.950 . S
C727 C718 1.390 . S
C727 H720 0.950 . S
C727 C724 1.387 . S
C728 C729 1.387 . S
C728 H732 0.950 . S
C728 C737 1.390 . S
C729 C728 1.387 . S
C729 C731 1.387 . S
H730 C737 0.950 . S
C731 C729 1.387 . S
C731 C733 1.390 . S
C731 H735 0.950 1_655 S
H732 C728 0.950 . S
C733 C731 1.390 . S
C733 C734 1.387 . S
C733 H736 0.950 1_655 S
C734 C733 1.387 . S
C734 C737 1.387 . S
H735 C731 0.950 1_455 S
H736 C733 0.950 1_455 S
C737 C728 1.390 . S
C737 H730 0.950 . S
C737 C734 1.387 . S
C738 C739 1.387 . S
C738 H742 0.950 . S
C738 C747 1.390 . S
C739 C738 1.387 . S
C739 C741 1.387 . S
H740 C747 0.950 . S
C741 C739 1.387 . S
C741 C743 1.390 . S
C741 H745 0.950 1_565 S
H742 C738 0.950 . S
C743 C741 1.390 . S
C743 C744 1.387 . S
C743 H746 0.950 1_565 S
C744 C743 1.387 . S
C744 C747 1.387 . S
H745 C741 0.950 1_545 S
H746 C743 0.950 1_545 S
C747 C738 1.390 . S
C747 H740 0.950 . S
C747 C744 1.387 . S
C748 C749 1.387 . S
C748 H752 0.950 . S
C748 C757 1.390 . S
C749 C748 1.387 . S
C749 C751 1.387 . S
H750 C757 0.950 . S
C751 C749 1.387 . S
C751 C753 1.390 . S
C751 H755 0.950 . S
H752 C748 0.950 . S
C753 C751 1.390 . S
C753 C754 1.387 . S
C753 H756 0.950 . S
C754 C753 1.387 . S
C754 C757 1.387 . S
H755 C751 0.950 . S
H756 C753 0.950 . S
C757 C748 1.390 . S
C757 H750 0.950 . S
C757 C754 1.387 . S
C758 C759 1.387 . S
C758 H762 0.950 . S
C758 C767 1.390 . S
C759 C758 1.387 . S
C759 C761 1.387 . S
H760 C767 0.950 . S
C761 C759 1.387 . S
C761 C763 1.390 . S
C761 H765 0.950 . S
H762 C758 0.950 . S
C763 C761 1.390 . S
C763 C764 1.387 . S
C763 H766 0.950 . S
C764 C763 1.387 . S
C764 C767 1.387 . S
H765 C761 0.950 . S
H766 C763 0.950 . S
C767 C758 1.390 . S
C767 H760 0.950 . S
C767 C764 1.387 . S
C768 C769 1.387 . S
C768 H772 0.950 . S
C768 C777 1.390 . S
C769 C768 1.387 . S
C769 C771 1.387 . S
H770 C777 0.950 . S
C771 C769 1.387 . S
C771 C773 1.390 . S
C771 H775 0.950 . S
H772 C768 0.950 . S
C773 C771 1.390 . S
C773 C774 1.387 . S
C773 H776 0.950 . S
C774 C773 1.387 . S
C774 C777 1.387 . S
H775 C771 0.950 . S
H776 C773 0.950 . S
C777 C768 1.390 . S
C777 H770 0.950 . S
C777 C774 1.387 . S
C778 C779 1.387 . S
C778 H782 0.968 . S
C778 C787 1.390 . S
C779 C778 1.387 . S
C779 C781 1.387 . S
H780 C787 0.950 1_565 S
C781 C779 1.387 . S
C781 C783 1.390 . S
C781 H785 0.950 . S
H782 C778 0.968 . S
C783 C781 1.390 . S
C783 C784 1.387 . S
C783 H786 0.950 . S
C784 C783 1.387 . S
C784 C787 1.387 . S
H785 C781 0.950 . S
H786 C783 0.950 . S
C787 C778 1.390 . S
C787 H780 0.950 1_545 S
C787 C784 1.387 . S
C788 C789 1.387 . S
C788 H792 0.950 . S
C788 C797 1.390 . S
C789 C788 1.387 . S
C789 C791 1.387 . S
H790 C797 0.950 . S
C791 C789 1.387 . S
C791 C793 1.390 . S
C791 H795 0.950 . S
H792 C788 0.950 . S
C793 C791 1.390 . S
C793 C794 1.387 . S
C793 H796 0.950 . S
C794 C793 1.387 . S
C794 C797 1.387 . S
H795 C791 0.950 . S
H796 C793 0.950 . S
C797 C788 1.390 . S
C797 H790 0.950 . S
C797 C794 1.387 . S
C798 C799 1.387 . S
C798 H802 0.950 . S
C798 C807 1.390 . S
C799 C798 1.387 . S
C799 C801 1.387 . S
H800 C807 0.950 . S
C801 C799 1.387 . S
C801 C803 1.390 . S
C801 H805 0.950 . S
H802 C798 0.950 . S
C803 C801 1.390 . S
C803 C804 1.387 . S
C803 H806 0.950 . S
C804 C803 1.387 . S
C804 C807 1.387 . S
H805 C801 0.950 . S
H806 C803 0.950 . S
C807 C798 1.390 . S
C807 H800 0.950 . S
C807 C804 1.387 . S
C808 C809 1.387 . S
C808 H812 0.950 . S
C808 C817 1.390 . S
C809 C808 1.387 . S
C809 C811 1.387 . S
H810 C817 0.950 . S
C811 C809 1.387 . S
C811 C813 1.390 . S
C811 H815 0.950 . S
H812 C808 0.950 . S
C813 C811 1.390 . S
C813 C814 1.387 . S
C813 H816 0.950 . S
C814 C813 1.387 . S
C814 C817 1.387 . S
H815 C811 0.950 . S
H816 C813 0.950 . S
C817 C808 1.390 . S
C817 H810 0.950 . S
C817 C814 1.387 . S
C818 C819 1.387 . S
C818 H822 0.950 . S
C818 C827 1.390 . S
C819 C818 1.387 . S
C819 C821 1.387 . S
H820 C827 0.950 . S
C821 C819 1.387 . S
C821 C823 1.390 . S
C821 H825 0.950 1_545 S
H822 C818 0.950 . S
C823 C821 1.390 . S
C823 C824 1.387 . S
C823 H826 0.950 1_545 S
C824 C823 1.387 . S
C824 C827 1.387 . S
H825 C821 0.950 1_565 S
H826 C823 0.950 1_565 S
C827 C818 1.390 . S
C827 H820 0.950 . S
C827 C824 1.387 . S
C828 C829 1.387 . S
C828 H832 0.950 . S
C828 C837 1.390 . S
C829 C828 1.387 . S
C829 C831 1.387 . S
H830 C837 0.950 . S
C831 C829 1.387 . S
C831 C833 1.390 . S
C831 H835 0.950 . S
H832 C828 0.950 . S
C833 C831 1.390 . S
C833 C834 1.387 . S
C833 H836 0.950 . S
C834 C833 1.387 . S
C834 C837 1.387 . S
H835 C831 0.950 . S
H836 C833 0.950 . S
C837 C828 1.390 . S
C837 H830 0.950 . S
C837 C834 1.387 . S
C838 C839 1.387 . S
C838 H842 0.950 . S
C838 C847 1.390 . S
C839 C838 1.387 . S
C839 C841 1.387 . S
H840 C847 0.950 . S
C841 C839 1.387 . S
C841 C843 1.390 . S
C841 H845 0.950 . S
H842 C838 0.950 . S
C843 C841 1.390 . S
C843 C844 1.387 . S
C843 H846 0.950 . S
C844 C843 1.387 . S
C844 C847 1.387 . S
H845 C841 0.950 . S
H846 C843 0.950 . S
C847 C838 1.390 . S
C847 H840 0.950 . S
C847 C844 1.387 . S
C848 C849 1.387 . S
C848 H852 0.950 . S
C848 C857 1.390 . S
C849 C848 1.387 . S
C849 C851 1.387 . S
H850 C857 0.950 . S
C851 C849 1.387 . S
C851 C853 1.390 . S
C851 H855 0.950 . S
H852 C848 0.950 . S
C853 C851 1.390 . S
C853 C854 1.387 . S
C853 H856 0.950 . S
C854 C853 1.387 . S
C854 C857 1.387 . S
H855 C851 0.950 . S
H856 C853 0.950 . S
C857 C848 1.390 . S
C857 H850 0.950 . S
C857 C854 1.387 . S
C858 C859 1.387 . S
C858 H862 0.950 1_565 S
C858 C867 1.390 . S
C859 C858 1.387 . S
C859 C861 1.387 . S
H860 C867 0.950 1_545 S
C861 C859 1.387 . S
C861 C863 1.390 . S
C861 H865 0.950 . S
H862 C858 0.950 1_545 S
C863 C861 1.390 . S
C863 C864 1.387 . S
C863 H866 0.950 . S
C864 C863 1.387 . S
C864 C867 1.387 . S
H865 C861 0.950 . S
H866 C863 0.950 . S
C867 C858 1.390 . S
C867 H860 0.950 1_565 S
C867 C864 1.387 . S
C868 C869 1.387 . S
C868 H872 0.950 . S
C868 C877 1.390 . S
C869 C868 1.387 . S
C869 C871 1.387 . S
H870 C877 0.950 . S
C871 C869 1.387 . S
C871 C873 1.390 . S
C871 H875 0.950 . S
H872 C868 0.950 . S
C873 C871 1.390 . S
C873 C874 1.387 . S
C873 H876 0.950 . S
C874 C873 1.387 . S
C874 C877 1.387 . S
H875 C871 0.950 . S
H876 C873 0.950 . S
C877 C868 1.390 . S
C877 H870 0.950 . S
C877 C874 1.387 . S
C878 C879 1.387 . S
C878 H882 0.950 . S
C878 C887 1.390 . S
C879 C878 1.387 . S
C879 C881 1.387 . S
H880 C887 0.950 . S
C881 C879 1.387 . S
C881 C883 1.390 . S
C881 H885 0.950 . S
H882 C878 0.950 . S
C883 C881 1.390 . S
C883 C884 1.387 . S
C883 H886 0.950 . S
C884 C883 1.387 . S
C884 C887 1.387 . S
H885 C881 0.950 . S
H886 C883 0.950 . S
C887 C878 1.390 . S
C887 H880 0.950 . S
C887 C884 1.387 . S
C888 C889 1.387 . S
C888 H892 0.950 1_655 S
C888 C897 1.390 . S
C889 C888 1.387 . S
C889 C891 1.387 . S
H890 C897 0.924 1_455 S
C891 C889 1.387 . S
C891 C893 1.390 . S
C891 H895 0.950 . S
H892 C888 0.950 1_455 S
C893 C891 1.390 . S
C893 C894 1.387 . S
C893 H896 0.950 . S
C894 C893 1.387 . S
C894 C897 1.387 . S
H895 C891 0.950 . S
H896 C893 0.950 . S
C897 C888 1.390 . S
C897 H890 0.924 1_655 S
C897 C894 1.387 . S
C898 C899 1.387 . S
C898 H902 0.950 . S
C898 C907 1.390 . S
C899 C898 1.387 . S
C899 C901 1.387 . S
H900 C907 0.950 . S
C901 C899 1.387 . S
C901 C903 1.390 . S
C901 H905 0.950 1_565 S
H902 C898 0.950 . S
C903 C901 1.390 . S
C903 C904 1.387 . S
C903 H906 0.950 1_565 S
C904 C903 1.387 . S
C904 C907 1.387 . S
H905 C901 0.950 1_545 S
H906 C903 0.950 1_545 S
C907 C898 1.390 . S
C907 H900 0.950 . S
C907 C904 1.387 . S
C908 C909 1.387 . S
C908 H912 0.950 . S
C908 C917 1.390 . S
C909 C908 1.387 . S
C909 C911 1.387 . S
H910 C917 0.950 . S
C911 C909 1.387 . S
C911 C913 1.390 . S
C911 H915 0.950 . S
H912 C908 0.950 . S
C913 C911 1.390 . S
C913 C914 1.387 . S
C913 H916 0.950 . S
C914 C913 1.387 . S
C914 C917 1.387 . S
H915 C911 0.950 . S
H916 C913 0.950 . S
C917 C908 1.390 . S
C917 H910 0.950 . S
C917 C914 1.387 . S
C918 C919 1.387 . S
C918 H922 0.950 . S
C918 C927 1.390 . S
C919 C918 1.387 . S
C919 C921 1.387 . S
H920 C927 0.950 . S
C921 C919 1.387 . S
C921 C923 1.390 . S
C921 H925 0.950 . S
H922 C918 0.950 . S
C923 C921 1.390 . S
C923 C924 1.387 . S
C923 H926 0.950 . S
C924 C923 1.387 . S
C924 C927 1.387 . S
H925 C921 0.950 . S
H926 C923 0.950 . S
C927 C918 1.390 . S
C927 H920 0.950 . S
C927 C924 1.387 . S
C529 C17 1.548 . S
C534 C512 1.549 . S
C539 C50 1.548 . S
C544 C413 1.549 . S
C549 C446 1.548 . S
C554 C83 1.549 . S
C559 C116 1.549 . S
C564 C479 1.548 . S
C569 C314 1.549 . S
C574 C149 1.548 . S
C579 C347 1.549 . S
C584 C182 1.548 . S
C589 C380 1.549 . S
C594 C215 1.548 . S
C599 C281 1.548 . S
C604 C248 1.549 . S
C609 C8 1.443 . S
C614 C239 1.445 . S
C619 C41 1.444 . S
C624 C140 1.443 . S
C629 C74 1.443 . S
C634 C173 1.445 . S
C639 C107 1.444 . S
C644 C206 1.443 . S
C649 C503 1.445 . S
C654 C272 1.443 . S
C659 C404 1.444 . S
C664 C305 1.445 . S
C669 C437 1.445 . S
C674 C338 1.443 . S
C679 C371 1.443 . S
C684 C470 1.444 . S
C689 C28 1.159 . S
C694 C160 1.159 . S
C699 C193 1.157 . S
C704 C61 1.157 . S
C709 C226 1.159 . S
C714 C94 1.159 . S
C719 C127 1.157 . S
C724 C259 1.157 . S
C729 C424 1.157 . S
C734 C292 1.157 . S
C739 C325 1.157 . S
C744 C457 1.157 . S
C749 C358 1.159 . S
C754 C490 1.159 . S
C759 C523 1.159 . S
C764 C391 1.159 . S
C769 N14 1.416 . S
C774 N5 1.420 . S
C779 N38 1.419 1_554 S
C784 N47 1.415 . S
C789 N80 1.415 . S
C794 N71 1.418 . S
C799 N104 1.419 1_554 S
C804 N113 1.415 . S
C809 N146 1.416 . S
C814 N137 1.420 1_556 S
C819 N179 1.415 . S
C824 N170 1.419 . S
C829 N212 1.415 . S
C834 N203 1.418 1_556 S
C839 N245 1.415 . S
C844 N236 1.418 . S
C849 N269 1.420 . S
C854 N278 1.416 . S
C859 N302 1.419 1_556 S
C864 N311 1.415 . S
C869 N335 1.419 . S
C874 N344 1.415 . S
C879 N368 1.419 1_556 S
C884 N377 1.415 . S
C889 N410 1.416 . S
C894 N401 1.419 1_554 S
C899 N443 1.415 . S
C904 N434 1.419 . S
C909 N467 1.420 1_554 S
C914 N476 1.416 . S
C919 N500 1.419 . S
C924 N509 1.416 . S
