# Generated by pormake.
# Topology unp, (4)-cn, num edge types: 1
# Building blocks:
#     Node 0, Type 0, BuildingBlock: QUQFOY_clean_sbu_1, # of connection points: 4
#     Node 1, Type 0, BuildingBlock: QUQFOY_clean_sbu_1, # of connection points: 4
#     Node 2, Type 0, BuildingBlock: QUQFOY_clean_sbu_1, # of connection points: 4
#     Node 3, Type 0, BuildingBlock: QUQFOY_clean_sbu_1, # of connection points: 4
#     Node 4, Type 0, BuildingBlock: QUQFOY_clean_sbu_1, # of connection points: 4
#     Node 5, Type 0, BuildingBlock: QUQFOY_clean_sbu_1, # of connection points: 4
#     Node 6, Type 0, BuildingBlock: QUQFOY_clean_sbu_1, # of connection points: 4
#     Node 7, Type 0, BuildingBlock: QUQFOY_clean_sbu_1, # of connection points: 4
#     Node 8, Type 0, BuildingBlock: QUQFOY_clean_sbu_1, # of connection points: 4
#     Node 9, Type 0, BuildingBlock: QUQFOY_clean_sbu_1, # of connection points: 4
#     Node 10, Type 0, BuildingBlock: QUQFOY_clean_sbu_1, # of connection points: 4
#     Node 11, Type 0, BuildingBlock: QUQFOY_clean_sbu_1, # of connection points: 4
#     Node 12, Type 0, BuildingBlock: QUQFOY_clean_sbu_1, # of connection points: 4
#     Node 13, Type 0, BuildingBlock: QUQFOY_clean_sbu_1, # of connection points: 4
#     Node 14, Type 0, BuildingBlock: QUQFOY_clean_sbu_1, # of connection points: 4
#     Node 15, Type 0, BuildingBlock: QUQFOY_clean_sbu_1, # of connection points: 4
#     Node 16, Type 0, BuildingBlock: QUQFOY_clean_sbu_1, # of connection points: 4
#     Node 17, Type 0, BuildingBlock: QUQFOY_clean_sbu_1, # of connection points: 4
#     Edge 18, Type (0, 0), BuildingBlock: OJICUG_clean_linker_0, # of connection points: 2
#     Edge 19, Type (0, 0), BuildingBlock: OJICUG_clean_linker_0, # of connection points: 2
#     Edge 20, Type (0, 0), BuildingBlock: OJICUG_clean_linker_0, # of connection points: 2
#     Edge 21, Type (0, 0), BuildingBlock: OJICUG_clean_linker_0, # of connection points: 2
#     Edge 22, Type (0, 0), BuildingBlock: OJICUG_clean_linker_0, # of connection points: 2
#     Edge 23, Type (0, 0), BuildingBlock: OJICUG_clean_linker_0, # of connection points: 2
#     Edge 24, Type (0, 0), BuildingBlock: OJICUG_clean_linker_0, # of connection points: 2
#     Edge 25, Type (0, 0), BuildingBlock: OJICUG_clean_linker_0, # of connection points: 2
#     Edge 26, Type (0, 0), BuildingBlock: OJICUG_clean_linker_0, # of connection points: 2
#     Edge 27, Type (0, 0), BuildingBlock: OJICUG_clean_linker_0, # of connection points: 2
#     Edge 28, Type (0, 0), BuildingBlock: OJICUG_clean_linker_0, # of connection points: 2
#     Edge 29, Type (0, 0), BuildingBlock: OJICUG_clean_linker_0, # of connection points: 2
#     Edge 30, Type (0, 0), BuildingBlock: OJICUG_clean_linker_0, # of connection points: 2
#     Edge 31, Type (0, 0), BuildingBlock: OJICUG_clean_linker_0, # of connection points: 2
#     Edge 32, Type (0, 0), BuildingBlock: OJICUG_clean_linker_0, # of connection points: 2
#     Edge 33, Type (0, 0), BuildingBlock: OJICUG_clean_linker_0, # of connection points: 2
#     Edge 34, Type (0, 0), BuildingBlock: OJICUG_clean_linker_0, # of connection points: 2
#     Edge 35, Type (0, 0), BuildingBlock: OJICUG_clean_linker_0, # of connection points: 2
#     Edge 36, Type (0, 0), BuildingBlock: OJICUG_clean_linker_0, # of connection points: 2
#     Edge 37, Type (0, 0), BuildingBlock: OJICUG_clean_linker_0, # of connection points: 2
#     Edge 38, Type (0, 0), BuildingBlock: OJICUG_clean_linker_0, # of connection points: 2
#     Edge 39, Type (0, 0), BuildingBlock: OJICUG_clean_linker_0, # of connection points: 2
#     Edge 40, Type (0, 0), BuildingBlock: OJICUG_clean_linker_0, # of connection points: 2
#     Edge 41, Type (0, 0), BuildingBlock: OJICUG_clean_linker_0, # of connection points: 2
#     Edge 42, Type (0, 0), BuildingBlock: OJICUG_clean_linker_0, # of connection points: 2
#     Edge 43, Type (0, 0), BuildingBlock: OJICUG_clean_linker_0, # of connection points: 2
#     Edge 44, Type (0, 0), BuildingBlock: OJICUG_clean_linker_0, # of connection points: 2
#     Edge 45, Type (0, 0), BuildingBlock: OJICUG_clean_linker_0, # of connection points: 2
#     Edge 46, Type (0, 0), BuildingBlock: OJICUG_clean_linker_0, # of connection points: 2
#     Edge 47, Type (0, 0), BuildingBlock: OJICUG_clean_linker_0, # of connection points: 2
#     Edge 48, Type (0, 0), BuildingBlock: OJICUG_clean_linker_0, # of connection points: 2
#     Edge 49, Type (0, 0), BuildingBlock: OJICUG_clean_linker_0, # of connection points: 2
#     Edge 50, Type (0, 0), BuildingBlock: OJICUG_clean_linker_0, # of connection points: 2
#     Edge 51, Type (0, 0), BuildingBlock: OJICUG_clean_linker_0, # of connection points: 2
#     Edge 52, Type (0, 0), BuildingBlock: OJICUG_clean_linker_0, # of connection points: 2
#     Edge 53, Type (0, 0), BuildingBlock: OJICUG_clean_linker_0, # of connection points: 2
# Relax obj value: 0.362
# Max RMSD: 0.184
# Mean RMSD: 0.184
data_MOF--net-unp--node1-QUQFOY_clean_sbu_1--edge1-OJICUG_clean_linker_0
_symmetry_space_group_name_H-M    P1
_symmetry_Int_Tables_number       1
_symmetry_cell_setting            triclinic
loop_
_symmetry_equiv_pos_as_xyz
'x, y, z'
_cell_length_a     35.730778
_cell_length_b     35.735624
_cell_length_c     54.808643
_cell_angle_alpha  89.975589
_cell_angle_beta   90.025898
_cell_angle_gamma 120.01677
loop_
_atom_site_label
_atom_site_type_symbol
_atom_site_fract_x
_atom_site_fract_y
_atom_site_fract_z
_atom_type_partial_charge
O0 O 0.15943 0.10256 0.14873 0.0
Cd1 Cd 0.16954 0.16438 0.14774 0.0
Cd2 Cd 0.15669 0.15017 0.09692 0.0
O3 O 0.16101 0.09728 0.1087 0.0
O4 O 0.2113 0.19947 0.17355 0.0
O5 O 0.22528 0.21017 0.13384 0.0
C6 C 0.23838 0.22007 0.15618 0.0
C7 C 0.16282 0.15762 0.05395 0.0
C8 C 0.15878 0.08163 0.12986 0.0
C9 C 0.0921 0.16262 0.12912 0.0
O10 O 0.10446 0.1554 0.10879 0.0
O11 O 0.11476 0.1693 0.14819 0.0
O12 O 0.13129 0.12533 0.06459 0.0
O13 O 0.19233 0.18667 0.06768 0.0
O14 O 0.88936 0.05495 0.14774 0.0
Cd15 Cd 0.82757 0.0031 0.14721 0.0
Cd16 Cd 0.84113 0.00344 0.09628 0.0
O17 O 0.89433 0.06077 0.10767 0.0
O18 O 0.79311 0.01001 0.17329 0.0
O19 O 0.78122 0.01255 0.13368 0.0
C20 C 0.77191 0.01603 0.15609 0.0
C21 C 0.83343 0.00135 0.05331 0.0
C22 C 0.91016 0.07471 0.12873 0.0
C23 C 0.82906 0.92704 0.12898 0.0
O24 O 0.83586 0.94614 0.10851 0.0
O25 O 0.8228 0.94347 0.14798 0.0
O26 O 0.86565 0.00208 0.06402 0.0
O27 O 0.80457 0.00229 0.06698 0.0
O28 O 0.93664 0.83203 0.14839 0.0
Cd29 Cd 0.98854 0.8222 0.14811 0.0
Cd30 Cd 0.98894 0.83577 0.09713 0.0
O31 O 0.93154 0.83172 0.10829 0.0
O32 O 0.9813 0.78049 0.17409 0.0
O33 O 0.97936 0.76661 0.13443 0.0
C34 C 0.97557 0.75351 0.1568 0.0
C35 C 0.9916 0.83033 0.05417 0.0
C36 C 0.91724 0.83333 0.12928 0.0
C37 C 0.06495 0.89981 0.13017 0.0
O38 O 0.0462 0.88757 0.10961 0.0
O39 O 0.04814 0.87712 0.14913 0.0
O40 O 0.99093 0.86189 0.06482 0.0
O41 O 0.99025 0.80037 0.06789 0.0
O42 O 0.10225 0.16053 0.85391 0.0
Cd43 Cd 0.16411 0.1707 0.85457 0.0
Cd44 Cd 0.15024 0.15719 0.90546 0.0
O45 O 0.09697 0.16114 0.89398 0.0
O46 O 0.19872 0.21243 0.82864 0.0
O47 O 0.21015 0.22649 0.86831 0.0
C48 C 0.21964 0.23954 0.84594 0.0
C49 C 0.15801 0.16269 0.94843 0.0
C50 C 0.08128 0.15931 0.87288 0.0
C51 C 0.16282 0.09322 0.87275 0.0
O52 O 0.15584 0.10539 0.8932 0.0
O53 O 0.16909 0.11596 0.85376 0.0
O54 O 0.12582 0.13114 0.93774 0.0
O55 O 0.18672 0.19265 0.93476 0.0
O56 O 0.83179 0.93762 0.85351 0.0
Cd57 Cd 0.82189 0.98948 0.85391 0.0
Cd58 Cd 0.83457 0.98914 0.90487 0.0
O59 O 0.8305 0.93181 0.89359 0.0
O60 O 0.78029 0.98249 0.82791 0.0
O61 O 0.76621 0.98009 0.86756 0.0
C62 C 0.75321 0.97654 0.84518 0.0
C63 C 0.82868 0.99122 0.94782 0.0
C64 C 0.83262 0.91787 0.87258 0.0
C65 C 0.8993 0.06553 0.8723 0.0
O66 O 0.88674 0.04643 0.89275 0.0
O67 O 0.87682 0.0491 0.85322 0.0
O68 O 0.86024 0.99049 0.93722 0.0
O69 O 0.79898 0.99029 0.93405 0.0
O70 O 0.05486 0.89051 0.85406 0.0
Cd71 Cd 0.00299 0.82875 0.85477 0.0
Cd72 Cd 0.00355 0.84276 0.90568 0.0
O73 O 0.06089 0.89576 0.89412 0.0
O74 O 0.00973 0.79415 0.82871 0.0
O75 O 0.01251 0.78247 0.86833 0.0
C76 C 0.01584 0.77303 0.84593 0.0
C77 C 0.00181 0.83525 0.94867 0.0
C78 C 0.07475 0.91142 0.87302 0.0
C79 C 0.92698 0.83037 0.87303 0.0
O80 O 0.94617 0.83739 0.89348 0.0
O81 O 0.94335 0.82396 0.85405 0.0
O82 O 0.00252 0.86747 0.93797 0.0
O83 O 0.00249 0.80627 0.93499 0.0
O84 O 0.82617 0.43585 0.48193 0.0
Cd85 Cd 0.83621 0.49763 0.48098 0.0
Cd86 Cd 0.82306 0.48338 0.43015 0.0
O87 O 0.82745 0.4305 0.4419 0.0
O88 O 0.87798 0.5327 0.50679 0.0
O89 O 0.8919 0.54349 0.46708 0.0
C90 C 0.90503 0.55335 0.48941 0.0
C91 C 0.82899 0.49081 0.38717 0.0
C92 C 0.82539 0.4149 0.46305 0.0
C93 C 0.75866 0.49586 0.46251 0.0
O94 O 0.77092 0.48866 0.44215 0.0
O95 O 0.7814 0.50251 0.48155 0.0
O96 O 0.79749 0.45854 0.39784 0.0
O97 O 0.85858 0.51985 0.40087 0.0
O98 O 0.55598 0.38818 0.48129 0.0
Cd99 Cd 0.49419 0.33634 0.48067 0.0
Cd100 Cd 0.50775 0.33694 0.42978 0.0
O101 O 0.56088 0.39426 0.44122 0.0
O102 O 0.45957 0.34317 0.50669 0.0
O103 O 0.44794 0.34586 0.46705 0.0
C104 C 0.43849 0.34928 0.48945 0.0
C105 C 0.50004 0.3351 0.38682 0.0
C106 C 0.57675 0.40807 0.46229 0.0
C107 C 0.49578 0.26041 0.46232 0.0
O108 O 0.50261 0.27963 0.44188 0.0
O109 O 0.48942 0.27671 0.48134 0.0
O110 O 0.47112 0.33583 0.40052 0.0
O111 O 0.53231 0.33586 0.39748 0.0
O112 O 0.6034 0.16538 0.48161 0.0
Cd113 Cd 0.6553 0.15555 0.48133 0.0
Cd114 Cd 0.6557 0.16907 0.43036 0.0
O115 O 0.59834 0.16513 0.4415 0.0
O116 O 0.64804 0.11382 0.50729 0.0
O117 O 0.64615 0.09998 0.46764 0.0
C118 C 0.64235 0.08686 0.49 0.0
C119 C 0.65838 0.16365 0.3874 0.0
C120 C 0.58402 0.16673 0.4625 0.0
C121 C 0.73174 0.2331 0.46338 0.0
O122 O 0.71299 0.22083 0.44282 0.0
O123 O 0.7149 0.21046 0.48236 0.0
O124 O 0.65778 0.19524 0.39805 0.0
O125 O 0.65693 0.13364 0.40111 0.0
O126 O 0.76821 0.49379 0.18714 0.0
Cd127 Cd 0.83003 0.5039 0.18781 0.0
Cd128 Cd 0.81613 0.49029 0.23868 0.0
O129 O 0.76291 0.49433 0.2272 0.0
O130 O 0.86476 0.54573 0.16195 0.0
O131 O 0.87607 0.55959 0.20164 0.0
C132 C 0.88564 0.57274 0.17929 0.0
C133 C 0.82394 0.49582 0.28165 0.0
C134 C 0.74724 0.49257 0.2061 0.0
C135 C 0.82869 0.42636 0.20593 0.0
O136 O 0.82171 0.43849 0.22639 0.0
O137 O 0.83497 0.44914 0.18695 0.0
O138 O 0.79172 0.46427 0.27097 0.0
O139 O 0.85266 0.52574 0.26797 0.0
O140 O 0.49768 0.27091 0.18707 0.0
Cd141 Cd 0.48782 0.3228 0.18741 0.0
Cd142 Cd 0.50074 0.32273 0.23837 0.0
O143 O 0.49674 0.2654 0.22717 0.0
O144 O 0.44619 0.31572 0.16141 0.0
O145 O 0.43219 0.31355 0.20106 0.0
C146 C 0.41916 0.3099 0.17868 0.0
C147 C 0.49508 0.32506 0.28132 0.0
C148 C 0.4987 0.25131 0.20617 0.0
C149 C 0.56529 0.39896 0.20565 0.0
O150 O 0.5528 0.38 0.22614 0.0
O151 O 0.54277 0.3824 0.1866 0.0
O152 O 0.52663 0.32436 0.27069 0.0
O153 O 0.46524 0.32393 0.26759 0.0
O154 O 0.72063 0.2237 0.18722 0.0
Cd155 Cd 0.66878 0.16193 0.18803 0.0
Cd156 Cd 0.6697 0.17596 0.23892 0.0
O157 O 0.72701 0.22889 0.22727 0.0
O158 O 0.67541 0.12718 0.16201 0.0
O159 O 0.67845 0.11578 0.20165 0.0
C160 C 0.68168 0.10621 0.17925 0.0
C161 C 0.66825 0.16851 0.28189 0.0
C162 C 0.74069 0.24457 0.20615 0.0
C163 C 0.59294 0.16365 0.20646 0.0
O164 O 0.61229 0.17072 0.22687 0.0
O165 O 0.60913 0.15712 0.18745 0.0
O166 O 0.66899 0.20076 0.27122 0.0
O167 O 0.66873 0.13945 0.26819 0.0
O168 O 0.49353 0.76925 0.81461 0.0
Cd169 Cd 0.50364 0.83107 0.81394 0.0
Cd170 Cd 0.4897 0.817 0.76306 0.0
O171 O 0.49378 0.7638 0.77454 0.0
O172 O 0.54542 0.8657 0.83985 0.0
O173 O 0.55938 0.87716 0.80018 0.0
C174 C 0.57248 0.88665 0.82253 0.0
C175 C 0.49508 0.82476 0.72008 0.0
C176 C 0.49217 0.74822 0.79565 0.0
C177 C 0.42601 0.82973 0.79594 0.0
O178 O 0.43801 0.82269 0.77545 0.0
O179 O 0.44888 0.83602 0.81488 0.0
O180 O 0.46354 0.79258 0.73079 0.0
O181 O 0.52506 0.85347 0.73374 0.0
O182 O 0.22343 0.72169 0.81482 0.0
Cd183 Cd 0.16165 0.66986 0.81396 0.0
Cd184 Cd 0.17558 0.67112 0.76308 0.0
O185 O 0.22846 0.72841 0.77479 0.0
O186 O 0.12683 0.67635 0.83998 0.0
O187 O 0.11554 0.67959 0.80035 0.0
C188 C 0.10591 0.68271 0.82275 0.0
C189 C 0.16811 0.66997 0.72011 0.0
C190 C 0.24423 0.74192 0.79591 0.0
C191 C 0.16344 0.5942 0.79531 0.0
O192 O 0.17052 0.61371 0.77495 0.0
O193 O 0.15683 0.61021 0.81438 0.0
O194 O 0.20042 0.67074 0.73073 0.0
O195 O 0.13898 0.67021 0.73386 0.0
O196 O 0.27058 0.49876 0.81455 0.0
Cd197 Cd 0.32244 0.48886 0.81432 0.0
Cd198 Cd 0.32258 0.50185 0.76335 0.0
O199 O 0.26526 0.49799 0.77445 0.0
O200 O 0.31524 0.44729 0.84038 0.0
O201 O 0.31319 0.43318 0.80075 0.0
C202 C 0.30945 0.42021 0.82315 0.0
C203 C 0.32524 0.49635 0.7204 0.0
C204 C 0.25109 0.49989 0.79543 0.0
C205 C 0.39872 0.56631 0.79616 0.0
O206 O 0.37984 0.55381 0.77565 0.0
O207 O 0.38207 0.5438 0.8152 0.0
O208 O 0.32456 0.5279 0.73104 0.0
O209 O 0.32383 0.46637 0.73412 0.0
O210 O 0.43485 0.82723 0.51982 0.0
Cd211 Cd 0.49663 0.83724 0.52074 0.0
Cd212 Cd 0.48235 0.82387 0.57158 0.0
O213 O 0.42946 0.82828 0.55986 0.0
O214 O 0.53169 0.87907 0.49496 0.0
O215 O 0.54252 0.89289 0.53467 0.0
C216 C 0.55237 0.90606 0.51235 0.0
C217 C 0.48985 0.82976 0.61456 0.0
C218 C 0.41388 0.82636 0.53871 0.0
C219 C 0.49491 0.75966 0.53909 0.0
O220 O 0.48771 0.77182 0.55949 0.0
O221 O 0.5015 0.78245 0.52009 0.0
O222 O 0.45757 0.79825 0.60389 0.0
O223 O 0.51886 0.85937 0.60085 0.0
O224 O 0.16436 0.60443 0.52053 0.0
Cd225 Cd 0.15449 0.65631 0.52068 0.0
Cd226 Cd 0.16818 0.65704 0.57166 0.0
O227 O 0.16438 0.5997 0.56064 0.0
O228 O 0.11279 0.64889 0.49466 0.0
O229 O 0.09889 0.64722 0.53429 0.0
C230 C 0.0858 0.6433 0.51191 0.0
C231 C 0.16298 0.66004 0.61461 0.0
C232 C 0.16588 0.58523 0.53968 0.0
C233 C 0.23208 0.73289 0.53849 0.0
O234 O 0.21984 0.71428 0.55909 0.0
O235 O 0.20941 0.71591 0.51954 0.0
O236 O 0.19456 0.65946 0.60394 0.0
O237 O 0.13283 0.65836 0.60093 0.0
O238 O 0.38717 0.55706 0.52032 0.0
Cd239 Cd 0.33534 0.49527 0.5211 0.0
Cd240 Cd 0.33649 0.50894 0.57195 0.0
O241 O 0.39377 0.56194 0.56036 0.0
O242 O 0.34194 0.46043 0.49512 0.0
O243 O 0.34503 0.44917 0.53478 0.0
C244 C 0.34824 0.43953 0.51239 0.0
C245 C 0.33517 0.50137 0.61491 0.0
C246 C 0.40732 0.5778 0.53926 0.0
C247 C 0.25966 0.49703 0.53973 0.0
O248 O 0.27912 0.50397 0.56008 0.0
O249 O 0.27569 0.49048 0.52064 0.0
O250 O 0.33596 0.53368 0.60429 0.0
O251 O 0.33552 0.4723 0.60117 0.0
C252 C 0.35928 0.28894 0.14855 0.0
C253 C 0.37333 0.29481 0.17294 0.0
H254 H 0.30541 0.26111 0.12407 0.0
C255 C 0.34247 0.28135 0.19169 0.0
H256 H 0.38227 0.29926 0.13367 0.0
C257 C 0.29837 0.2594 0.18618 0.0
C258 C 0.2843 0.25061 0.16181 0.0
H259 H 0.35224 0.28564 0.21067 0.0
H260 H 0.27538 0.24745 0.20107 0.0
C261 C 0.31519 0.2671 0.14304 0.0
C262 C 0.73311 0.03674 0.1864 0.0
C263 C 0.74129 0.03119 0.16196 0.0
H264 H 0.70724 0.06441 0.21108 0.0
C265 C 0.72407 0.04507 0.14332 0.0
H266 H 0.74563 0.02608 0.2012 0.0
C267 C 0.70211 0.06711 0.149 0.0
C268 C 0.69684 0.07559 0.17342 0.0
H269 H 0.72956 0.04104 0.12431 0.0
H270 H 0.69121 0.07939 0.13419 0.0
C271 C 0.71104 0.05868 0.19208 0.0
C272 C 0.93281 0.64953 0.19242 0.0
C273 C 0.91617 0.61866 0.17364 0.0
H274 H 0.96513 0.7166 0.20179 0.0
C275 C 0.92483 0.63273 0.14927 0.0
H276 H 0.92693 0.63974 0.21138 0.0
C277 C 0.94681 0.67682 0.14376 0.0
C278 C 0.96043 0.70768 0.16252 0.0
H279 H 0.91275 0.60974 0.13438 0.0
H280 H 0.951 0.68659 0.12479 0.0
C281 C 0.95468 0.69362 0.18691 0.0
C282 C 0.28861 0.36047 0.85335 0.0
C283 C 0.29432 0.3744 0.82894 0.0
H284 H 0.26095 0.30673 0.87792 0.0
C285 C 0.28066 0.34344 0.81024 0.0
H286 H 0.29909 0.38353 0.8682 0.0
C287 C 0.25871 0.29938 0.81582 0.0
C288 C 0.25012 0.28543 0.84022 0.0
H289 H 0.28481 0.35312 0.79125 0.0
H290 H 0.24662 0.27631 0.80097 0.0
C291 C 0.26678 0.31641 0.85894 0.0
C292 C 0.69339 0.95577 0.81504 0.0
C293 C 0.70739 0.96141 0.83943 0.0
H294 H 0.63958 0.92812 0.79051 0.0
C295 C 0.67647 0.94768 0.85817 0.0
H296 H 0.71642 0.9663 0.80017 0.0
C297 C 0.63239 0.92571 0.85262 0.0
C298 C 0.61838 0.91717 0.82823 0.0
H299 H 0.68619 0.95178 0.87715 0.0
H300 H 0.60935 0.91355 0.86749 0.0
C301 C 0.64931 0.93391 0.80949 0.0
C302 C 0.05833 0.71202 0.80995 0.0
C303 C 0.0753 0.69788 0.82859 0.0
H304 H 0.02571 0.74659 0.80083 0.0
C305 C 0.06689 0.70321 0.85303 0.0
H306 H 0.06399 0.70817 0.79094 0.0
C307 C 0.04487 0.7252 0.85871 0.0
C308 C 0.03095 0.74237 0.84006 0.0
H309 H 0.07922 0.69234 0.86783 0.0
H310 H 0.04091 0.73075 0.87772 0.0
C311 C 0.03641 0.73411 0.81563 0.0
C312 C 0.98183 0.60034 0.47626 0.0
C313 C 0.95095 0.58391 0.49503 0.0
H314 H 0.04891 0.63249 0.46689 0.0
C315 C 0.96502 0.59279 0.5194 0.0
H316 H 0.97204 0.59429 0.4573 0.0
C317 C 0.00912 0.61477 0.52491 0.0
C318 C 0.03998 0.62817 0.50616 0.0
H319 H 0.94202 0.58088 0.5343 0.0
H320 H 0.01889 0.61912 0.54389 0.0
C321 C 0.02592 0.62221 0.48177 0.0
C322 C 0.36878 0.40043 0.4822 0.0
C323 C 0.36341 0.4089 0.50661 0.0
H324 H 0.39631 0.37434 0.45757 0.0
C325 C 0.37752 0.39197 0.5253 0.0
H326 H 0.35795 0.41273 0.46736 0.0
C327 C 0.39958 0.37 0.51967 0.0
C328 C 0.40786 0.36445 0.49525 0.0
H329 H 0.37364 0.39768 0.54429 0.0
H330 H 0.41203 0.35932 0.5345 0.0
C331 C 0.39074 0.37836 0.47657 0.0
C332 C 0.61377 0.01022 0.47693 0.0
C333 C 0.62723 0.04103 0.4957 0.0
H334 H 0.57984 0.94316 0.46749 0.0
C335 C 0.62132 0.02692 0.52008 0.0
H336 H 0.61809 0.02004 0.45796 0.0
C337 C 0.59944 0.98281 0.52556 0.0
C338 C 0.58295 0.95199 0.50676 0.0
H339 H 0.63164 0.04986 0.53498 0.0
H340 H 0.59342 0.97298 0.54451 0.0
C341 C 0.59179 0.96612 0.4824 0.0
C342 C 0.02446 0.15169 0.10949 0.0
C343 C 0.04715 0.15401 0.13091 0.0
H344 H 0.96293 0.12546 0.0921 0.0
C345 C 0.02403 0.13879 0.15286 0.0
H346 H 0.04142 0.16374 0.09235 0.0
C347 C 0.97876 0.11648 0.15271 0.0
C348 C 0.95606 0.10924 0.13062 0.0
H349 H 0.04058 0.14029 0.16971 0.0
H350 H 0.96179 0.1017 0.1695 0.0
C351 C 0.97937 0.1296 0.10935 0.0
C352 C 0.85295 0.8831 0.15299 0.0
C353 C 0.83773 0.89076 0.13096 0.0
H354 H 0.89009 0.85821 0.16986 0.0
C355 C 0.84012 0.87023 0.10964 0.0
H356 H 0.85138 0.89827 0.16977 0.0
C357 C 0.8623 0.84733 0.10967 0.0
C358 C 0.88265 0.84462 0.13101 0.0
H359 H 0.82806 0.87492 0.09244 0.0
H360 H 0.86651 0.8349 0.09249 0.0
C361 C 0.87532 0.86022 0.15301 0.0
C362 C 0.1455 0.01252 0.11087 0.0
C363 C 0.14748 0.0358 0.13197 0.0
H364 H 0.11841 0.95051 0.09393 0.0
C365 C 0.13112 0.01309 0.15398 0.0
H366 H 0.15852 0.02899 0.09371 0.0
C367 C 0.10822 0.96783 0.15412 0.0
C368 C 0.10127 0.94473 0.13224 0.0
H369 H 0.13256 0.03004 0.17065 0.0
H370 H 0.09244 0.95126 0.17083 0.0
C371 C 0.12256 0.96744 0.111 0.0
C372 C 0.13025 0.98051 0.89221 0.0
C373 C 0.10936 0.95726 0.87102 0.0
H374 H 0.16489 0.04251 0.90921 0.0
C375 C 0.11617 0.97999 0.84898 0.0
H376 H 0.12646 0.96403 0.90941 0.0
C377 C 0.13856 0.02525 0.84885 0.0
C378 C 0.15429 0.04833 0.87078 0.0
H379 H 0.10097 0.96305 0.83225 0.0
H380 H 0.13968 0.04184 0.83208 0.0
C381 C 0.15244 0.0256 0.89209 0.0
C382 C 0.01203 0.14529 0.89206 0.0
C383 C 0.0354 0.14793 0.87087 0.0
H384 H 0.94994 0.11776 0.90895 0.0
C385 C 0.01277 0.13223 0.84878 0.0
H386 H 0.02843 0.15779 0.9093 0.0
C387 C 0.96751 0.10936 0.84857 0.0
C388 C 0.9443 0.10178 0.87047 0.0
H389 H 0.0298 0.13418 0.83205 0.0
H390 H 0.95101 0.09412 0.83174 0.0
C391 C 0.96694 0.12239 0.89186 0.0
C392 C 0.86989 0.8411 0.89228 0.0
C393 C 0.89061 0.83888 0.87099 0.0
H394 H 0.8342 0.86713 0.90936 0.0
C395 C 0.88294 0.85406 0.84894 0.0
H396 H 0.87459 0.82906 0.90948 0.0
C397 C 0.85988 0.87625 0.84888 0.0
C398 C 0.84407 0.8834 0.87085 0.0
H399 H 0.89825 0.85263 0.83219 0.0
H400 H 0.85788 0.89101 0.83204 0.0
C401 C 0.84678 0.86306 0.8922 0.0
C402 C 0.69067 0.47195 0.48635 0.0
C403 C 0.71373 0.48729 0.46439 0.0
H404 H 0.62848 0.43478 0.50303 0.0
C405 C 0.691 0.48513 0.44302 0.0
H406 H 0.70727 0.47332 0.50316 0.0
C407 C 0.6459 0.46308 0.44292 0.0
C408 C 0.62265 0.44259 0.46419 0.0
H409 H 0.7079 0.49728 0.42587 0.0
H410 H 0.62941 0.45906 0.4257 0.0
C411 C 0.64541 0.44967 0.48624 0.0
C412 C 0.507 0.20378 0.44288 0.0
C413 C 0.50451 0.22417 0.46424 0.0
H414 H 0.53347 0.16857 0.42568 0.0
C415 C 0.51965 0.21638 0.48626 0.0
H416 H 0.49501 0.20857 0.42569 0.0
C417 C 0.54204 0.19352 0.48625 0.0
C418 C 0.54946 0.17805 0.46423 0.0
H419 H 0.51801 0.23144 0.50307 0.0
H420 H 0.55674 0.1914 0.50309 0.0
C421 C 0.5292 0.18089 0.44288 0.0
C422 C 0.81216 0.34582 0.44405 0.0
C423 C 0.81417 0.36909 0.46515 0.0
H424 H 0.7851 0.2838 0.42711 0.0
C425 C 0.79791 0.34639 0.48717 0.0
H426 H 0.82513 0.36228 0.42688 0.0
C427 C 0.77505 0.30113 0.48732 0.0
C428 C 0.76806 0.27802 0.46544 0.0
H429 H 0.79937 0.36334 0.50384 0.0
H430 H 0.75932 0.28456 0.50405 0.0
C431 C 0.78928 0.30073 0.44419 0.0
C432 C 0.79629 0.31366 0.22531 0.0
C433 C 0.77529 0.29041 0.20413 0.0
H434 H 0.83096 0.37565 0.24231 0.0
C435 C 0.78198 0.31316 0.18211 0.0
H436 H 0.79259 0.29716 0.24249 0.0
C437 C 0.80435 0.35842 0.18199 0.0
C438 C 0.82017 0.38148 0.20391 0.0
H439 H 0.7667 0.29623 0.16539 0.0
H440 H 0.80538 0.37501 0.16524 0.0
C441 C 0.81844 0.35874 0.2252 0.0
C442 C 0.67871 0.46547 0.18203 0.0
C443 C 0.70138 0.48126 0.2041 0.0
H444 H 0.61691 0.42731 0.16505 0.0
C445 C 0.67807 0.47878 0.22528 0.0
H446 H 0.6957 0.46731 0.16531 0.0
C447 C 0.63298 0.45594 0.22511 0.0
C448 C 0.61029 0.43521 0.20375 0.0
H449 H 0.69451 0.49136 0.2425 0.0
H450 H 0.61602 0.45142 0.24221 0.0
C451 C 0.63345 0.44264 0.18185 0.0
C452 C 0.51306 0.19666 0.22582 0.0
C453 C 0.51014 0.21683 0.20446 0.0
H454 H 0.54099 0.16275 0.24307 0.0
C455 C 0.52571 0.20949 0.18245 0.0
H456 H 0.50066 0.20088 0.24301 0.0
C457 C 0.54874 0.18726 0.18248 0.0
C458 C 0.5566 0.17224 0.20452 0.0
H459 H 0.52354 0.22412 0.1656 0.0
H460 H 0.56386 0.18568 0.16569 0.0
C461 C 0.53613 0.17466 0.22586 0.0
C462 C 0.31289 0.78306 0.81991 0.0
C463 C 0.29008 0.77651 0.79791 0.0
H464 H 0.37479 0.80631 0.83669 0.0
C465 C 0.31327 0.79759 0.77674 0.0
H466 H 0.296 0.76772 0.83662 0.0
C467 C 0.35836 0.81968 0.7768 0.0
C468 C 0.38116 0.82128 0.79804 0.0
H469 H 0.29673 0.794 0.75959 0.0
H470 H 0.37523 0.83227 0.75968 0.0
C471 C 0.35816 0.80538 0.81998 0.0
C472 C 0.2091 0.5267 0.81915 0.0
C473 C 0.21665 0.51139 0.79711 0.0
H474 H 0.18512 0.56463 0.83601 0.0
C475 C 0.1967 0.51461 0.77572 0.0
H476 H 0.22355 0.5243 0.83603 0.0
C477 C 0.17471 0.53769 0.77573 0.0
C478 C 0.17207 0.55788 0.79713 0.0
H479 H 0.20109 0.50243 0.7585 0.0
H480 H 0.16297 0.54276 0.75852 0.0
C481 C 0.18688 0.54973 0.81917 0.0
C482 C 0.47852 0.67907 0.77653 0.0
C483 C 0.48091 0.70239 0.79769 0.0
H484 H 0.45129 0.61701 0.75963 0.0
C485 C 0.46509 0.67974 0.81976 0.0
H486 H 0.49113 0.6955 0.75931 0.0
C487 C 0.4423 0.63448 0.81996 0.0
C488 C 0.43497 0.61131 0.79807 0.0
H489 H 0.46685 0.69673 0.83647 0.0
H490 H 0.42694 0.61795 0.83675 0.0
C491 C 0.45574 0.63398 0.77672 0.0
C492 C 0.48449 0.69204 0.55847 0.0
C493 C 0.4864 0.71477 0.53714 0.0
H494 H 0.45869 0.63047 0.57575 0.0
C495 C 0.47088 0.69172 0.51519 0.0
H496 H 0.49679 0.70895 0.5756 0.0
C497 C 0.44865 0.64646 0.51529 0.0
C498 C 0.44182 0.6237 0.53732 0.0
H499 H 0.47206 0.70831 0.49842 0.0
H500 H 0.43361 0.62953 0.49853 0.0
C501 C 0.46251 0.64696 0.55855 0.0
C502 C 0.29976 0.79049 0.5576 0.0
C503 C 0.277 0.76919 0.53637 0.0
H504 H 0.36136 0.82633 0.57487 0.0
C505 C 0.30007 0.77606 0.51449 0.0
H506 H 0.28286 0.78642 0.57467 0.0
C507 C 0.34533 0.79887 0.51461 0.0
C508 C 0.36808 0.8152 0.53662 0.0
H509 H 0.28346 0.76027 0.49779 0.0
H510 H 0.36225 0.80023 0.49795 0.0
C511 C 0.34486 0.81332 0.55772 0.0
C512 C 0.20338 0.5086 0.55935 0.0
C513 C 0.22343 0.50581 0.53793 0.0
H514 H 0.1684 0.53527 0.57662 0.0
C515 C 0.21529 0.52064 0.5159 0.0
H516 H 0.20844 0.49684 0.57656 0.0
C517 C 0.1924 0.54301 0.51594 0.0
C518 C 0.17726 0.55071 0.538 0.0
H519 H 0.23008 0.51877 0.49904 0.0
H520 H 0.19 0.55746 0.49906 0.0
C521 C 0.18046 0.53077 0.55939 0.0
C522 C 0.12988 0.1266 0.01377 0.0
C523 C 0.16357 0.16031 0.02695 0.0
H524 H 0.10188 0.10114 0.97917 0.0
C525 C 0.19633 0.19559 0.01406 0.0
H526 H 0.10407 0.09885 0.02298 0.0
C527 C 0.19505 0.19693 0.98841 0.0
C528 C 0.16097 0.16303 0.97541 0.0
H529 H 0.22269 0.22208 0.02373 0.0
H530 H 0.22052 0.22436 0.97883 0.0
C531 C 0.12859 0.12794 0.98847 0.0
C532 C 0.86244 0.99491 0.98797 0.0
C533 C 0.82808 0.99358 0.9748 0.0
H534 H 0.89091 0.99851 0.02256 0.0
C535 C 0.79472 0.99497 0.98769 0.0
H536 H 0.88877 0.99396 0.97876 0.0
C537 C 0.79597 0.99763 0.01333 0.0
C538 C 0.83062 -0.00102 0.02633 0.0
H539 H 0.76784 0.99405 0.97801 0.0
H540 H 0.76997 -0.00141 0.02292 0.0
C541 C 0.8637 0.99759 0.01326 0.0
C542 C -0.00044 0.86623 0.98879 0.0
C543 C -0.00026 0.83258 0.97566 0.0
H544 H 0.99682 0.89168 0.02334 0.0
C545 C 0.99734 0.79741 0.98861 0.0
H546 H 0.00139 0.89389 0.97953 0.0
C547 C 0.99467 0.79612 0.01426 0.0
C548 C 0.99431 0.82996 0.0272 0.0
H549 H 0.99737 0.77097 0.97898 0.0
H550 H 0.9928 0.76877 0.02388 0.0
C551 C 0.99687 0.86493 0.01408 0.0
C552 C 0.79442 0.46124 0.32172 0.0
C553 C 0.82691 0.49619 0.30863 0.0
H554 H 0.76988 0.43227 0.35626 0.0
C555 C 0.86114 0.52999 0.32161 0.0
H556 H 0.76759 0.43452 0.31244 0.0
C557 C 0.86248 0.52867 0.34725 0.0
C558 C 0.82963 0.49351 0.36017 0.0
H559 H 0.88669 0.55733 0.312 0.0
H560 H 0.88897 0.55507 0.3569 0.0
C561 C 0.79577 0.45991 0.34702 0.0
C562 C 0.52936 0.32961 0.32141 0.0
C563 C 0.49462 0.32758 0.3083 0.0
H564 H 0.55816 0.33371 0.35595 0.0
C565 C 0.46099 0.32835 0.32124 0.0
H566 H 0.55593 0.32919 0.31216 0.0
C567 C 0.46229 0.33098 0.34688 0.0
C568 C 0.49727 0.33293 0.35983 0.0
H569 H 0.43381 0.32689 0.31161 0.0
H570 H 0.43604 0.33139 0.35652 0.0
C571 C 0.53067 0.33227 0.3467 0.0
C572 C 0.66414 0.19851 0.34734 0.0
C573 C 0.66113 0.16332 0.36043 0.0
H574 H 0.66891 0.22761 0.31281 0.0
C575 C 0.66101 0.12926 0.34746 0.0
H576 H 0.66448 0.22544 0.35662 0.0
C577 C 0.66361 0.13053 0.32182 0.0
C578 C 0.66639 0.1659 0.30889 0.0
H579 H 0.6588 0.10174 0.35707 0.0
H580 H 0.66323 0.10391 0.31216 0.0
C581 C 0.66675 0.19978 0.32204 0.0
C582 C 0.5278 0.86323 0.65446 0.0
C583 C 0.49259 0.83041 0.64156 0.0
H584 H 0.55654 0.88745 0.68969 0.0
C585 C 0.459 0.79658 0.65473 0.0
H586 H 0.5542 0.88971 0.64479 0.0
C587 C 0.46038 0.79524 0.68003 0.0
C588 C 0.49538 0.82772 0.6931 0.0
H589 H 0.43132 0.7707 0.64551 0.0
H590 H 0.43367 0.76843 0.68932 0.0
C591 C 0.52917 0.86191 0.6801 0.0
C592 C 0.19835 0.66676 0.65461 0.0
C593 C 0.16279 0.663 0.64158 0.0
H594 H 0.22779 0.67209 0.6891 0.0
C595 C 0.12847 0.66226 0.6546 0.0
H596 H 0.22551 0.66763 0.64529 0.0
C597 C 0.1298 0.66487 0.68024 0.0
C598 C 0.1655 0.66829 0.69311 0.0
H599 H 0.10066 0.65948 0.64503 0.0
H600 H 0.10295 0.66393 0.68994 0.0
C601 C 0.19969 0.66938 0.6799 0.0
C602 C 0.33405 0.53273 0.65509 0.0
C603 C 0.33337 0.49872 0.64191 0.0
H604 H 0.33199 0.55844 0.68967 0.0
C605 C 0.33029 0.46319 0.6548 0.0
H606 H 0.33647 0.56069 0.64588 0.0
C607 C 0.32768 0.46188 0.68044 0.0
C608 C 0.32806 0.49605 0.69344 0.0
H609 H 0.32966 0.43647 0.64512 0.0
H610 H 0.3252 0.43423 0.69003 0.0
C611 C 0.33141 0.53141 0.68038 0.0
loop_
_geom_bond_atom_site_label_1
_geom_bond_atom_site_label_2
_geom_bond_distance
_geom_bond_site_symmetry_2
_ccdc_geom_bond_type
O0 Cd1 2.223 . S
O0 C8 1.315 . S
Cd1 O0 2.223 . S
Cd1 O4 2.297 . S
Cd1 O5 2.439 . S
Cd1 O11 2.240 . S
Cd2 O3 2.240 . S
Cd2 O10 2.223 . S
Cd2 O12 2.297 . S
Cd2 O13 2.439 . S
O3 Cd2 2.240 . S
O3 C8 1.279 . S
O4 Cd1 2.297 . S
O4 C6 1.247 . S
O5 Cd1 2.439 . S
O5 C6 1.208 . S
C6 O4 1.247 . S
C6 O5 1.208 . S
C7 O12 1.247 . S
C7 O13 1.208 . S
C8 O0 1.315 . S
C8 O3 1.279 . S
C9 O10 1.315 . S
C9 O11 1.279 . S
O10 Cd2 2.223 . S
O10 C9 1.315 . S
O11 Cd1 2.240 . S
O11 C9 1.279 . S
O12 Cd2 2.297 . S
O12 C7 1.247 . S
O13 Cd2 2.439 . S
O13 C7 1.208 . S
O14 Cd15 2.223 1_545 S
O14 C22 1.315 . S
Cd15 O14 2.223 1_565 S
Cd15 O18 2.297 1_565 S
Cd15 O19 2.439 1_565 S
Cd15 O25 2.240 . S
Cd16 O17 2.240 . S
Cd16 O24 2.223 1_545 S
Cd16 O26 2.297 1_545 S
Cd16 O27 2.439 1_545 S
O17 Cd16 2.240 . S
O17 C22 1.279 . S
O18 Cd15 2.297 1_545 S
O18 C20 1.247 . S
O19 Cd15 2.439 1_545 S
O19 C20 1.208 . S
C20 O18 1.247 . S
C20 O19 1.208 . S
C21 O26 1.247 . S
C21 O27 1.208 . S
C22 O14 1.315 . S
C22 O17 1.279 . S
C23 O24 1.315 . S
C23 O25 1.279 . S
O24 Cd16 2.223 1_565 S
O24 C23 1.315 . S
O25 Cd15 2.240 . S
O25 C23 1.279 . S
O26 Cd16 2.297 1_565 S
O26 C21 1.247 . S
O27 Cd16 2.439 1_565 S
O27 C21 1.208 . S
O28 Cd29 2.223 1_655 S
O28 C36 1.315 . S
Cd29 O28 2.223 1_455 S
Cd29 O32 2.297 1_455 S
Cd29 O33 2.439 1_455 S
Cd29 O39 2.240 . S
Cd30 O31 2.240 . S
Cd30 O38 2.223 1_655 S
Cd30 O40 2.297 1_655 S
Cd30 O41 2.439 1_655 S
O31 Cd30 2.240 . S
O31 C36 1.279 . S
O32 Cd29 2.297 1_655 S
O32 C34 1.247 . S
O33 Cd29 2.439 1_655 S
O33 C34 1.208 . S
C34 O32 1.247 . S
C34 O33 1.208 . S
C35 O40 1.247 . S
C35 O41 1.208 . S
C36 O28 1.315 . S
C36 O31 1.279 . S
C37 O38 1.315 . S
C37 O39 1.279 . S
O38 Cd30 2.223 1_455 S
O38 C37 1.315 . S
O39 Cd29 2.240 . S
O39 C37 1.279 . S
O40 Cd30 2.297 1_455 S
O40 C35 1.247 . S
O41 Cd30 2.439 1_455 S
O41 C35 1.208 . S
O42 Cd43 2.223 . S
O42 C50 1.315 . S
Cd43 O42 2.223 . S
Cd43 O46 2.297 . S
Cd43 O47 2.439 . S
Cd43 O53 2.240 . S
Cd44 O45 2.240 . S
Cd44 O52 2.223 . S
Cd44 O54 2.297 . S
Cd44 O55 2.439 . S
O45 Cd44 2.240 . S
O45 C50 1.279 . S
O46 Cd43 2.297 . S
O46 C48 1.247 . S
O47 Cd43 2.439 . S
O47 C48 1.208 . S
C48 O46 1.247 . S
C48 O47 1.208 . S
C49 O54 1.247 . S
C49 O55 1.208 . S
C50 O42 1.315 . S
C50 O45 1.279 . S
C51 O52 1.315 . S
C51 O53 1.279 . S
O52 Cd44 2.223 . S
O52 C51 1.315 . S
O53 Cd43 2.240 . S
O53 C51 1.279 . S
O54 Cd44 2.297 . S
O54 C49 1.247 . S
O55 Cd44 2.439 . S
O55 C49 1.208 . S
O56 Cd57 2.223 1_565 S
O56 C64 1.315 . S
Cd57 O56 2.223 1_545 S
Cd57 O60 2.297 1_545 S
Cd57 O61 2.439 1_545 S
Cd57 O67 2.240 . S
Cd58 O59 2.240 . S
Cd58 O66 2.223 1_565 S
Cd58 O68 2.297 1_565 S
Cd58 O69 2.439 1_565 S
O59 Cd58 2.240 . S
O59 C64 1.279 . S
O60 Cd57 2.297 1_565 S
O60 C62 1.247 . S
O61 Cd57 2.439 1_565 S
O61 C62 1.208 . S
C62 O60 1.247 . S
C62 O61 1.208 . S
C63 O68 1.247 . S
C63 O69 1.208 . S
C64 O56 1.315 . S
C64 O59 1.279 . S
C65 O66 1.315 . S
C65 O67 1.279 . S
O66 Cd58 2.223 1_545 S
O66 C65 1.315 . S
O67 Cd57 2.240 . S
O67 C65 1.279 . S
O68 Cd58 2.297 1_545 S
O68 C63 1.247 . S
O69 Cd58 2.439 1_545 S
O69 C63 1.208 . S
O70 Cd71 2.223 1_455 S
O70 C78 1.315 . S
Cd71 O70 2.223 1_655 S
Cd71 O74 2.297 1_655 S
Cd71 O75 2.439 1_655 S
Cd71 O81 2.240 . S
Cd72 O73 2.240 . S
Cd72 O80 2.223 1_455 S
Cd72 O82 2.297 1_455 S
Cd72 O83 2.439 1_455 S
O73 Cd72 2.240 . S
O73 C78 1.279 . S
O74 Cd71 2.297 1_455 S
O74 C76 1.247 . S
O75 Cd71 2.439 1_455 S
O75 C76 1.208 . S
C76 O74 1.247 . S
C76 O75 1.208 . S
C77 O82 1.247 . S
C77 O83 1.208 . S
C78 O70 1.315 . S
C78 O73 1.279 . S
C79 O80 1.315 . S
C79 O81 1.279 . S
O80 Cd72 2.223 1_655 S
O80 C79 1.315 . S
O81 Cd71 2.240 . S
O81 C79 1.279 . S
O82 Cd72 2.297 1_655 S
O82 C77 1.247 . S
O83 Cd72 2.439 1_655 S
O83 C77 1.208 . S
O84 Cd85 2.223 . S
O84 C92 1.315 . S
Cd85 O84 2.223 . S
Cd85 O88 2.297 . S
Cd85 O89 2.439 . S
Cd85 O95 2.240 . S
Cd86 O87 2.240 . S
Cd86 O94 2.223 . S
Cd86 O96 2.297 . S
Cd86 O97 2.439 . S
O87 Cd86 2.240 . S
O87 C92 1.279 . S
O88 Cd85 2.297 . S
O88 C90 1.247 . S
O89 Cd85 2.439 . S
O89 C90 1.208 . S
C90 O88 1.247 . S
C90 O89 1.208 . S
C91 O96 1.247 . S
C91 O97 1.208 . S
C92 O84 1.315 . S
C92 O87 1.279 . S
C93 O94 1.315 . S
C93 O95 1.279 . S
O94 Cd86 2.223 . S
O94 C93 1.315 . S
O95 Cd85 2.240 . S
O95 C93 1.279 . S
O96 Cd86 2.297 . S
O96 C91 1.247 . S
O97 Cd86 2.439 . S
O97 C91 1.208 . S
O98 Cd99 2.223 . S
O98 C106 1.315 . S
Cd99 O98 2.223 . S
Cd99 O102 2.297 . S
Cd99 O103 2.439 . S
Cd99 O109 2.240 . S
Cd100 O101 2.240 . S
Cd100 O108 2.223 . S
Cd100 O110 2.297 . S
Cd100 O111 2.439 . S
O101 Cd100 2.240 . S
O101 C106 1.279 . S
O102 Cd99 2.297 . S
O102 C104 1.247 . S
O103 Cd99 2.439 . S
O103 C104 1.208 . S
C104 O102 1.247 . S
C104 O103 1.208 . S
C105 O110 1.247 . S
C105 O111 1.208 . S
C106 O98 1.315 . S
C106 O101 1.279 . S
C107 O108 1.315 . S
C107 O109 1.279 . S
O108 Cd100 2.223 . S
O108 C107 1.315 . S
O109 Cd99 2.240 . S
O109 C107 1.279 . S
O110 Cd100 2.297 . S
O110 C105 1.247 . S
O111 Cd100 2.439 . S
O111 C105 1.208 . S
O112 Cd113 2.223 . S
O112 C120 1.315 . S
Cd113 O112 2.223 . S
Cd113 O116 2.297 . S
Cd113 O117 2.439 . S
Cd113 O123 2.240 . S
Cd114 O115 2.240 . S
Cd114 O122 2.223 . S
Cd114 O124 2.297 . S
Cd114 O125 2.439 . S
O115 Cd114 2.240 . S
O115 C120 1.279 . S
O116 Cd113 2.297 . S
O116 C118 1.247 . S
O117 Cd113 2.439 . S
O117 C118 1.208 . S
C118 O116 1.247 . S
C118 O117 1.208 . S
C119 O124 1.247 . S
C119 O125 1.208 . S
C120 O112 1.315 . S
C120 O115 1.279 . S
C121 O122 1.315 . S
C121 O123 1.279 . S
O122 Cd114 2.223 . S
O122 C121 1.315 . S
O123 Cd113 2.240 . S
O123 C121 1.279 . S
O124 Cd114 2.297 . S
O124 C119 1.247 . S
O125 Cd114 2.439 . S
O125 C119 1.208 . S
O126 Cd127 2.223 . S
O126 C134 1.315 . S
Cd127 O126 2.223 . S
Cd127 O130 2.297 . S
Cd127 O131 2.439 . S
Cd127 O137 2.240 . S
Cd128 O129 2.240 . S
Cd128 O136 2.223 . S
Cd128 O138 2.297 . S
Cd128 O139 2.439 . S
O129 Cd128 2.240 . S
O129 C134 1.279 . S
O130 Cd127 2.297 . S
O130 C132 1.247 . S
O131 Cd127 2.439 . S
O131 C132 1.208 . S
C132 O130 1.247 . S
C132 O131 1.208 . S
C133 O138 1.247 . S
C133 O139 1.208 . S
C134 O126 1.315 . S
C134 O129 1.279 . S
C135 O136 1.315 . S
C135 O137 1.279 . S
O136 Cd128 2.223 . S
O136 C135 1.315 . S
O137 Cd127 2.240 . S
O137 C135 1.279 . S
O138 Cd128 2.297 . S
O138 C133 1.247 . S
O139 Cd128 2.439 . S
O139 C133 1.208 . S
O140 Cd141 2.223 . S
O140 C148 1.315 . S
Cd141 O140 2.223 . S
Cd141 O144 2.297 . S
Cd141 O145 2.439 . S
Cd141 O151 2.240 . S
Cd142 O143 2.240 . S
Cd142 O150 2.223 . S
Cd142 O152 2.297 . S
Cd142 O153 2.439 . S
O143 Cd142 2.240 . S
O143 C148 1.279 . S
O144 Cd141 2.297 . S
O144 C146 1.247 . S
O145 Cd141 2.439 . S
O145 C146 1.208 . S
C146 O144 1.247 . S
C146 O145 1.208 . S
C147 O152 1.247 . S
C147 O153 1.208 . S
C148 O140 1.315 . S
C148 O143 1.279 . S
C149 O150 1.315 . S
C149 O151 1.279 . S
O150 Cd142 2.223 . S
O150 C149 1.315 . S
O151 Cd141 2.240 . S
O151 C149 1.279 . S
O152 Cd142 2.297 . S
O152 C147 1.247 . S
O153 Cd142 2.439 . S
O153 C147 1.208 . S
O154 Cd155 2.223 . S
O154 C162 1.315 . S
Cd155 O154 2.223 . S
Cd155 O158 2.297 . S
Cd155 O159 2.439 . S
Cd155 O165 2.240 . S
Cd156 O157 2.240 . S
Cd156 O164 2.223 . S
Cd156 O166 2.297 . S
Cd156 O167 2.439 . S
O157 Cd156 2.240 . S
O157 C162 1.279 . S
O158 Cd155 2.297 . S
O158 C160 1.247 . S
O159 Cd155 2.439 . S
O159 C160 1.208 . S
C160 O158 1.247 . S
C160 O159 1.208 . S
C161 O166 1.247 . S
C161 O167 1.208 . S
C162 O154 1.315 . S
C162 O157 1.279 . S
C163 O164 1.315 . S
C163 O165 1.279 . S
O164 Cd156 2.223 . S
O164 C163 1.315 . S
O165 Cd155 2.240 . S
O165 C163 1.279 . S
O166 Cd156 2.297 . S
O166 C161 1.247 . S
O167 Cd156 2.439 . S
O167 C161 1.208 . S
O168 Cd169 2.223 . S
O168 C176 1.315 . S
Cd169 O168 2.223 . S
Cd169 O172 2.297 . S
Cd169 O173 2.439 . S
Cd169 O179 2.240 . S
Cd170 O171 2.240 . S
Cd170 O178 2.223 . S
Cd170 O180 2.297 . S
Cd170 O181 2.439 . S
O171 Cd170 2.240 . S
O171 C176 1.279 . S
O172 Cd169 2.297 . S
O172 C174 1.247 . S
O173 Cd169 2.439 . S
O173 C174 1.208 . S
C174 O172 1.247 . S
C174 O173 1.208 . S
C175 O180 1.247 . S
C175 O181 1.208 . S
C176 O168 1.315 . S
C176 O171 1.279 . S
C177 O178 1.315 . S
C177 O179 1.279 . S
O178 Cd170 2.223 . S
O178 C177 1.315 . S
O179 Cd169 2.240 . S
O179 C177 1.279 . S
O180 Cd170 2.297 . S
O180 C175 1.247 . S
O181 Cd170 2.439 . S
O181 C175 1.208 . S
O182 Cd183 2.223 . S
O182 C190 1.315 . S
Cd183 O182 2.223 . S
Cd183 O186 2.297 . S
Cd183 O187 2.439 . S
Cd183 O193 2.240 . S
Cd184 O185 2.240 . S
Cd184 O192 2.223 . S
Cd184 O194 2.297 . S
Cd184 O195 2.439 . S
O185 Cd184 2.240 . S
O185 C190 1.279 . S
O186 Cd183 2.297 . S
O186 C188 1.247 . S
O187 Cd183 2.439 . S
O187 C188 1.208 . S
C188 O186 1.247 . S
C188 O187 1.208 . S
C189 O194 1.247 . S
C189 O195 1.208 . S
C190 O182 1.315 . S
C190 O185 1.279 . S
C191 O192 1.315 . S
C191 O193 1.279 . S
O192 Cd184 2.223 . S
O192 C191 1.315 . S
O193 Cd183 2.240 . S
O193 C191 1.279 . S
O194 Cd184 2.297 . S
O194 C189 1.247 . S
O195 Cd184 2.439 . S
O195 C189 1.208 . S
O196 Cd197 2.223 . S
O196 C204 1.315 . S
Cd197 O196 2.223 . S
Cd197 O200 2.297 . S
Cd197 O201 2.439 . S
Cd197 O207 2.240 . S
Cd198 O199 2.240 . S
Cd198 O206 2.223 . S
Cd198 O208 2.297 . S
Cd198 O209 2.439 . S
O199 Cd198 2.240 . S
O199 C204 1.279 . S
O200 Cd197 2.297 . S
O200 C202 1.247 . S
O201 Cd197 2.439 . S
O201 C202 1.208 . S
C202 O200 1.247 . S
C202 O201 1.208 . S
C203 O208 1.247 . S
C203 O209 1.208 . S
C204 O196 1.315 . S
C204 O199 1.279 . S
C205 O206 1.315 . S
C205 O207 1.279 . S
O206 Cd198 2.223 . S
O206 C205 1.315 . S
O207 Cd197 2.240 . S
O207 C205 1.279 . S
O208 Cd198 2.297 . S
O208 C203 1.247 . S
O209 Cd198 2.439 . S
O209 C203 1.208 . S
O210 Cd211 2.223 . S
O210 C218 1.315 . S
Cd211 O210 2.223 . S
Cd211 O214 2.297 . S
Cd211 O215 2.439 . S
Cd211 O221 2.240 . S
Cd212 O213 2.240 . S
Cd212 O220 2.223 . S
Cd212 O222 2.297 . S
Cd212 O223 2.439 . S
O213 Cd212 2.240 . S
O213 C218 1.279 . S
O214 Cd211 2.297 . S
O214 C216 1.247 . S
O215 Cd211 2.439 . S
O215 C216 1.208 . S
C216 O214 1.247 . S
C216 O215 1.208 . S
C217 O222 1.247 . S
C217 O223 1.208 . S
C218 O210 1.315 . S
C218 O213 1.279 . S
C219 O220 1.315 . S
C219 O221 1.279 . S
O220 Cd212 2.223 . S
O220 C219 1.315 . S
O221 Cd211 2.240 . S
O221 C219 1.279 . S
O222 Cd212 2.297 . S
O222 C217 1.247 . S
O223 Cd212 2.439 . S
O223 C217 1.208 . S
O224 Cd225 2.223 . S
O224 C232 1.315 . S
Cd225 O224 2.223 . S
Cd225 O228 2.297 . S
Cd225 O229 2.439 . S
Cd225 O235 2.240 . S
Cd226 O227 2.240 . S
Cd226 O234 2.223 . S
Cd226 O236 2.297 . S
Cd226 O237 2.439 . S
O227 Cd226 2.240 . S
O227 C232 1.279 . S
O228 Cd225 2.297 . S
O228 C230 1.247 . S
O229 Cd225 2.439 . S
O229 C230 1.208 . S
C230 O228 1.247 . S
C230 O229 1.208 . S
C231 O236 1.247 . S
C231 O237 1.208 . S
C232 O224 1.315 . S
C232 O227 1.279 . S
C233 O234 1.315 . S
C233 O235 1.279 . S
O234 Cd226 2.223 . S
O234 C233 1.315 . S
O235 Cd225 2.240 . S
O235 C233 1.279 . S
O236 Cd226 2.297 . S
O236 C231 1.247 . S
O237 Cd226 2.439 . S
O237 C231 1.208 . S
O238 Cd239 2.223 . S
O238 C246 1.315 . S
Cd239 O238 2.223 . S
Cd239 O242 2.297 . S
Cd239 O243 2.439 . S
Cd239 O249 2.240 . S
Cd240 O241 2.240 . S
Cd240 O248 2.223 . S
Cd240 O250 2.297 . S
Cd240 O251 2.439 . S
O241 Cd240 2.240 . S
O241 C246 1.279 . S
O242 Cd239 2.297 . S
O242 C244 1.247 . S
O243 Cd239 2.439 . S
O243 C244 1.208 . S
C244 O242 1.247 . S
C244 O243 1.208 . S
C245 O250 1.247 . S
C245 O251 1.208 . S
C246 O238 1.315 . S
C246 O241 1.279 . S
C247 O248 1.315 . S
C247 O249 1.279 . S
O248 Cd240 2.223 . S
O248 C247 1.315 . S
O249 Cd239 2.240 . S
O249 C247 1.279 . S
O250 Cd240 2.297 . S
O250 C245 1.247 . S
O251 Cd240 2.439 . S
O251 C245 1.208 . S
C252 C253 1.387 . S
C252 H256 0.950 . S
C252 C261 1.390 . S
C253 C252 1.387 . S
C253 C255 1.387 . S
H254 C261 0.950 . S
C255 C253 1.387 . S
C255 C257 1.390 . S
C255 H259 0.950 . S
H256 C252 0.950 . S
C257 C255 1.390 . S
C257 C258 1.387 . S
C257 H260 0.950 . S
C258 C257 1.387 . S
C258 C261 1.387 . S
H259 C255 0.950 . S
H260 C257 0.950 . S
C261 C252 1.390 . S
C261 H254 0.950 . S
C261 C258 1.387 . S
C262 C263 1.387 . S
C262 H266 0.950 . S
C262 C271 1.390 . S
C263 C262 1.387 . S
C263 C265 1.387 . S
H264 C271 0.950 . S
C265 C263 1.387 . S
C265 C267 1.390 . S
C265 H269 0.950 . S
H266 C262 0.950 . S
C267 C265 1.390 . S
C267 C268 1.387 . S
C267 H270 0.950 . S
C268 C267 1.387 . S
C268 C271 1.387 . S
H269 C265 0.950 . S
H270 C267 0.950 . S
C271 C262 1.390 . S
C271 H264 0.950 . S
C271 C268 1.387 . S
C272 C273 1.387 . S
C272 H276 0.950 . S
C272 C281 1.390 . S
C273 C272 1.387 . S
C273 C275 1.387 . S
H274 C281 0.950 . S
C275 C273 1.387 . S
C275 C277 1.390 . S
C275 H279 0.950 . S
H276 C272 0.950 . S
C277 C275 1.390 . S
C277 C278 1.387 . S
C277 H280 0.950 . S
C278 C277 1.387 . S
C278 C281 1.387 . S
H279 C275 0.950 . S
H280 C277 0.950 . S
C281 C272 1.390 . S
C281 H274 0.950 . S
C281 C278 1.387 . S
C282 C283 1.387 . S
C282 H286 0.950 . S
C282 C291 1.390 . S
C283 C282 1.387 . S
C283 C285 1.387 . S
H284 C291 0.950 . S
C285 C283 1.387 . S
C285 C287 1.390 . S
C285 H289 0.950 . S
H286 C282 0.950 . S
C287 C285 1.390 . S
C287 C288 1.387 . S
C287 H290 0.950 . S
C288 C287 1.387 . S
C288 C291 1.387 . S
H289 C285 0.950 . S
H290 C287 0.950 . S
C291 C282 1.390 . S
C291 H284 0.950 . S
C291 C288 1.387 . S
C292 C293 1.387 . S
C292 H296 0.950 . S
C292 C301 1.390 . S
C293 C292 1.387 . S
C293 C295 1.387 . S
H294 C301 0.950 . S
C295 C293 1.387 . S
C295 C297 1.390 . S
C295 H299 0.950 . S
H296 C292 0.950 . S
C297 C295 1.390 . S
C297 C298 1.387 . S
C297 H300 0.950 . S
C298 C297 1.387 . S
C298 C301 1.387 . S
H299 C295 0.950 . S
H300 C297 0.950 . S
C301 C292 1.390 . S
C301 H294 0.950 . S
C301 C298 1.387 . S
C302 C303 1.387 . S
C302 H306 0.950 . S
C302 C311 1.390 . S
C303 C302 1.387 . S
C303 C305 1.387 . S
H304 C311 0.950 . S
C305 C303 1.387 . S
C305 C307 1.390 . S
C305 H309 0.950 . S
H306 C302 0.950 . S
C307 C305 1.390 . S
C307 C308 1.387 . S
C307 H310 0.950 . S
C308 C307 1.387 . S
C308 C311 1.387 . S
H309 C305 0.950 . S
H310 C307 0.950 . S
C311 C302 1.390 . S
C311 H304 0.950 . S
C311 C308 1.387 . S
C312 C313 1.387 . S
C312 H316 0.950 . S
C312 C321 1.390 1_655 S
C313 C312 1.387 . S
C313 C315 1.387 . S
H314 C321 0.950 . S
C315 C313 1.387 . S
C315 C317 1.390 1_655 S
C315 H319 0.950 . S
H316 C312 0.950 . S
C317 C315 1.390 1_455 S
C317 C318 1.387 . S
C317 H320 0.950 . S
C318 C317 1.387 . S
C318 C321 1.387 . S
H319 C315 0.950 . S
H320 C317 0.950 . S
C321 C312 1.390 1_455 S
C321 H314 0.950 . S
C321 C318 1.387 . S
C322 C323 1.387 . S
C322 H326 0.950 . S
C322 C331 1.390 . S
C323 C322 1.387 . S
C323 C325 1.387 . S
H324 C331 0.950 . S
C325 C323 1.387 . S
C325 C327 1.390 . S
C325 H329 0.950 . S
H326 C322 0.950 . S
C327 C325 1.390 . S
C327 C328 1.387 . S
C327 H330 0.950 . S
C328 C327 1.387 . S
C328 C331 1.387 . S
H329 C325 0.950 . S
H330 C327 0.950 . S
C331 C322 1.390 . S
C331 H324 0.950 . S
C331 C328 1.387 . S
C332 C333 1.387 . S
C332 H336 0.950 . S
C332 C341 1.390 1_545 S
C333 C332 1.387 . S
C333 C335 1.387 . S
H334 C341 0.950 . S
C335 C333 1.387 . S
C335 C337 1.390 1_545 S
C335 H339 0.950 . S
H336 C332 0.950 . S
C337 C335 1.390 1_565 S
C337 C338 1.387 . S
C337 H340 0.950 . S
C338 C337 1.387 . S
C338 C341 1.387 . S
H339 C335 0.950 . S
H340 C337 0.950 . S
C341 C332 1.390 1_565 S
C341 H334 0.950 . S
C341 C338 1.387 . S
C342 C343 1.387 . S
C342 H346 0.950 . S
C342 C351 1.390 1_455 S
C343 C342 1.387 . S
C343 C345 1.387 . S
H344 C351 0.950 . S
C345 C343 1.387 . S
C345 C347 1.390 1_455 S
C345 H349 0.950 . S
H346 C342 0.950 . S
C347 C345 1.390 1_655 S
C347 C348 1.387 . S
C347 H350 0.950 . S
C348 C347 1.387 . S
C348 C351 1.387 . S
H349 C345 0.950 . S
H350 C347 0.950 . S
C351 C342 1.390 1_655 S
C351 H344 0.950 . S
C351 C348 1.387 . S
C352 C353 1.387 . S
C352 H356 0.950 . S
C352 C361 1.390 . S
C353 C352 1.387 . S
C353 C355 1.387 . S
H354 C361 0.950 . S
C355 C353 1.387 . S
C355 C357 1.390 . S
C355 H359 0.950 . S
H356 C352 0.950 . S
C357 C355 1.390 . S
C357 C358 1.387 . S
C357 H360 0.950 . S
C358 C357 1.387 . S
C358 C361 1.387 . S
H359 C355 0.950 . S
H360 C357 0.950 . S
C361 C352 1.390 . S
C361 H354 0.950 . S
C361 C358 1.387 . S
C362 C363 1.387 . S
C362 H366 0.950 . S
C362 C371 1.390 1_545 S
C363 C362 1.387 . S
C363 C365 1.387 . S
H364 C371 0.950 . S
C365 C363 1.387 . S
C365 C367 1.390 1_545 S
C365 H369 0.950 . S
H366 C362 0.950 . S
C367 C365 1.390 1_565 S
C367 C368 1.387 . S
C367 H370 0.950 . S
C368 C367 1.387 . S
C368 C371 1.387 . S
H369 C365 0.950 . S
H370 C367 0.950 . S
C371 C362 1.390 1_565 S
C371 H364 0.950 . S
C371 C368 1.387 . S
C372 C373 1.387 . S
C372 H376 0.950 . S
C372 C381 1.390 1_565 S
C373 C372 1.387 . S
C373 C375 1.387 . S
H374 C381 0.950 . S
C375 C373 1.387 . S
C375 C377 1.390 1_565 S
C375 H379 0.950 . S
H376 C372 0.950 . S
C377 C375 1.390 1_545 S
C377 C378 1.387 . S
C377 H380 0.950 . S
C378 C377 1.387 . S
C378 C381 1.387 . S
H379 C375 0.950 . S
H380 C377 0.950 . S
C381 C372 1.390 1_545 S
C381 H374 0.950 . S
C381 C378 1.387 . S
C382 C383 1.387 . S
C382 H386 0.950 . S
C382 C391 1.390 1_455 S
C383 C382 1.387 . S
C383 C385 1.387 . S
H384 C391 0.950 . S
C385 C383 1.387 . S
C385 C387 1.390 1_455 S
C385 H389 0.950 . S
H386 C382 0.950 . S
C387 C385 1.390 1_655 S
C387 C388 1.387 . S
C387 H390 0.950 . S
C388 C387 1.387 . S
C388 C391 1.387 . S
H389 C385 0.950 . S
H390 C387 0.950 . S
C391 C382 1.390 1_655 S
C391 H384 0.950 . S
C391 C388 1.387 . S
C392 C393 1.387 . S
C392 H396 0.950 . S
C392 C401 1.390 . S
C393 C392 1.387 . S
C393 C395 1.387 . S
H394 C401 0.950 . S
C395 C393 1.387 . S
C395 C397 1.390 . S
C395 H399 0.950 . S
H396 C392 0.950 . S
C397 C395 1.390 . S
C397 C398 1.387 . S
C397 H400 0.950 . S
C398 C397 1.387 . S
C398 C401 1.387 . S
H399 C395 0.950 . S
H400 C397 0.950 . S
C401 C392 1.390 . S
C401 H394 0.950 . S
C401 C398 1.387 . S
C402 C403 1.387 . S
C402 H406 0.950 . S
C402 C411 1.390 . S
C403 C402 1.387 . S
C403 C405 1.387 . S
H404 C411 0.950 . S
C405 C403 1.387 . S
C405 C407 1.390 . S
C405 H409 0.950 . S
H406 C402 0.950 . S
C407 C405 1.390 . S
C407 C408 1.387 . S
C407 H410 0.950 . S
C408 C407 1.387 . S
C408 C411 1.387 . S
H409 C405 0.950 . S
H410 C407 0.950 . S
C411 C402 1.390 . S
C411 H404 0.950 . S
C411 C408 1.387 . S
C412 C413 1.387 . S
C412 H416 0.950 . S
C412 C421 1.390 . S
C413 C412 1.387 . S
C413 C415 1.387 . S
H414 C421 0.950 . S
C415 C413 1.387 . S
C415 C417 1.390 . S
C415 H419 0.950 . S
H416 C412 0.950 . S
C417 C415 1.390 . S
C417 C418 1.387 . S
C417 H420 0.950 . S
C418 C417 1.387 . S
C418 C421 1.387 . S
H419 C415 0.950 . S
H420 C417 0.950 . S
C421 C412 1.390 . S
C421 H414 0.950 . S
C421 C418 1.387 . S
C422 C423 1.387 . S
C422 H426 0.950 . S
C422 C431 1.390 . S
C423 C422 1.387 . S
C423 C425 1.387 . S
H424 C431 0.950 . S
C425 C423 1.387 . S
C425 C427 1.390 . S
C425 H429 0.950 . S
H426 C422 0.950 . S
C427 C425 1.390 . S
C427 C428 1.387 . S
C427 H430 0.950 . S
C428 C427 1.387 . S
C428 C431 1.387 . S
H429 C425 0.950 . S
H430 C427 0.950 . S
C431 C422 1.390 . S
C431 H424 0.950 . S
C431 C428 1.387 . S
C432 C433 1.387 . S
C432 H436 0.950 . S
C432 C441 1.390 . S
C433 C432 1.387 . S
C433 C435 1.387 . S
H434 C441 0.950 . S
C435 C433 1.387 . S
C435 C437 1.390 . S
C435 H439 0.950 . S
H436 C432 0.950 . S
C437 C435 1.390 . S
C437 C438 1.387 . S
C437 H440 0.950 . S
C438 C437 1.387 . S
C438 C441 1.387 . S
H439 C435 0.950 . S
H440 C437 0.950 . S
C441 C432 1.390 . S
C441 H434 0.950 . S
C441 C438 1.387 . S
C442 C443 1.387 . S
C442 H446 0.950 . S
C442 C451 1.390 . S
C443 C442 1.387 . S
C443 C445 1.387 . S
H444 C451 0.950 . S
C445 C443 1.387 . S
C445 C447 1.390 . S
C445 H449 0.950 . S
H446 C442 0.950 . S
C447 C445 1.390 . S
C447 C448 1.387 . S
C447 H450 0.950 . S
C448 C447 1.387 . S
C448 C451 1.387 . S
H449 C445 0.950 . S
H450 C447 0.950 . S
C451 C442 1.390 . S
C451 H444 0.950 . S
C451 C448 1.387 . S
C452 C453 1.387 . S
C452 H456 0.950 . S
C452 C461 1.390 . S
C453 C452 1.387 . S
C453 C455 1.387 . S
H454 C461 0.950 . S
C455 C453 1.387 . S
C455 C457 1.390 . S
C455 H459 0.950 . S
H456 C452 0.950 . S
C457 C455 1.390 . S
C457 C458 1.387 . S
C457 H460 0.950 . S
C458 C457 1.387 . S
C458 C461 1.387 . S
H459 C455 0.950 . S
H460 C457 0.950 . S
C461 C452 1.390 . S
C461 H454 0.950 . S
C461 C458 1.387 . S
C462 C463 1.387 . S
C462 H466 0.950 . S
C462 C471 1.390 . S
C463 C462 1.387 . S
C463 C465 1.387 . S
H464 C471 0.950 . S
C465 C463 1.387 . S
C465 C467 1.390 . S
C465 H469 0.950 . S
H466 C462 0.950 . S
C467 C465 1.390 . S
C467 C468 1.387 . S
C467 H470 0.950 . S
C468 C467 1.387 . S
C468 C471 1.387 . S
H469 C465 0.950 . S
H470 C467 0.950 . S
C471 C462 1.390 . S
C471 H464 0.950 . S
C471 C468 1.387 . S
C472 C473 1.387 . S
C472 H476 0.950 . S
C472 C481 1.390 . S
C473 C472 1.387 . S
C473 C475 1.387 . S
H474 C481 0.950 . S
C475 C473 1.387 . S
C475 C477 1.390 . S
C475 H479 0.950 . S
H476 C472 0.950 . S
C477 C475 1.390 . S
C477 C478 1.387 . S
C477 H480 0.950 . S
C478 C477 1.387 . S
C478 C481 1.387 . S
H479 C475 0.950 . S
H480 C477 0.950 . S
C481 C472 1.390 . S
C481 H474 0.950 . S
C481 C478 1.387 . S
C482 C483 1.387 . S
C482 H486 0.950 . S
C482 C491 1.390 . S
C483 C482 1.387 . S
C483 C485 1.387 . S
H484 C491 0.950 . S
C485 C483 1.387 . S
C485 C487 1.390 . S
C485 H489 0.950 . S
H486 C482 0.950 . S
C487 C485 1.390 . S
C487 C488 1.387 . S
C487 H490 0.950 . S
C488 C487 1.387 . S
C488 C491 1.387 . S
H489 C485 0.950 . S
H490 C487 0.950 . S
C491 C482 1.390 . S
C491 H484 0.950 . S
C491 C488 1.387 . S
C492 C493 1.387 . S
C492 H496 0.950 . S
C492 C501 1.390 . S
C493 C492 1.387 . S
C493 C495 1.387 . S
H494 C501 0.950 . S
C495 C493 1.387 . S
C495 C497 1.390 . S
C495 H499 0.950 . S
H496 C492 0.950 . S
C497 C495 1.390 . S
C497 C498 1.387 . S
C497 H500 0.950 . S
C498 C497 1.387 . S
C498 C501 1.387 . S
H499 C495 0.950 . S
H500 C497 0.950 . S
C501 C492 1.390 . S
C501 H494 0.950 . S
C501 C498 1.387 . S
C502 C503 1.387 . S
C502 H506 0.950 . S
C502 C511 1.390 . S
C503 C502 1.387 . S
C503 C505 1.387 . S
H504 C511 0.950 . S
C505 C503 1.387 . S
C505 C507 1.390 . S
C505 H509 0.950 . S
H506 C502 0.950 . S
C507 C505 1.390 . S
C507 C508 1.387 . S
C507 H510 0.950 . S
C508 C507 1.387 . S
C508 C511 1.387 . S
H509 C505 0.950 . S
H510 C507 0.950 . S
C511 C502 1.390 . S
C511 H504 0.950 . S
C511 C508 1.387 . S
C512 C513 1.387 . S
C512 H516 0.950 . S
C512 C521 1.390 . S
C513 C512 1.387 . S
C513 C515 1.387 . S
H514 C521 0.950 . S
C515 C513 1.387 . S
C515 C517 1.390 . S
C515 H519 0.950 . S
H516 C512 0.950 . S
C517 C515 1.390 . S
C517 C518 1.387 . S
C517 H520 0.950 . S
C518 C517 1.387 . S
C518 C521 1.387 . S
H519 C515 0.950 . S
H520 C517 0.950 . S
C521 C512 1.390 . S
C521 H514 0.950 . S
C521 C518 1.387 . S
C522 C523 1.387 . S
C522 H526 0.950 . S
C522 C531 1.390 1_554 S
C523 C522 1.387 . S
C523 C525 1.387 . S
H524 C531 0.950 . S
C525 C523 1.387 . S
C525 C527 1.390 1_554 S
C525 H529 0.950 . S
H526 C522 0.950 . S
C527 C525 1.390 1_556 S
C527 C528 1.387 . S
C527 H530 0.950 . S
C528 C527 1.387 . S
C528 C531 1.387 . S
H529 C525 0.950 . S
H530 C527 0.950 . S
C531 C522 1.390 1_556 S
C531 H524 0.950 . S
C531 C528 1.387 . S
C532 C533 1.387 . S
C532 H536 0.950 . S
C532 C541 1.390 1_546 S
C533 C532 1.387 . S
C533 C535 1.387 . S
H534 C541 0.950 . S
C535 C533 1.387 . S
C535 C537 1.390 1_546 S
C535 H539 0.950 . S
H536 C532 0.950 . S
C537 C535 1.390 1_564 S
C537 C538 1.387 . S
C537 H540 0.950 . S
C538 C537 1.387 . S
C538 C541 1.387 . S
H539 C535 0.950 . S
H540 C537 0.950 . S
C541 C532 1.390 1_564 S
C541 H534 0.950 . S
C541 C538 1.387 . S
C542 C543 1.387 . S
C542 H546 0.950 . S
C542 C551 1.390 1_656 S
C543 C542 1.387 . S
C543 C545 1.387 . S
H544 C551 0.950 . S
C545 C543 1.387 . S
C545 C547 1.390 1_556 S
C545 H549 0.950 . S
H546 C542 0.950 . S
C547 C545 1.390 1_554 S
C547 C548 1.387 1_655 S
C547 H550 0.950 . S
C548 C547 1.387 1_455 S
C548 C551 1.387 . S
H549 C545 0.950 . S
H550 C547 0.950 . S
C551 C542 1.390 1_454 S
C551 H544 0.950 . S
C551 C548 1.387 . S
C552 C553 1.387 . S
C552 H556 0.950 . S
C552 C561 1.390 . S
C553 C552 1.387 . S
C553 C555 1.387 . S
H554 C561 0.950 . S
C555 C553 1.387 . S
C555 C557 1.390 . S
C555 H559 0.950 . S
H556 C552 0.950 . S
C557 C555 1.390 . S
C557 C558 1.387 . S
C557 H560 0.950 . S
C558 C557 1.387 . S
C558 C561 1.387 . S
H559 C555 0.950 . S
H560 C557 0.950 . S
C561 C552 1.390 . S
C561 H554 0.950 . S
C561 C558 1.387 . S
C562 C563 1.387 . S
C562 H566 0.950 . S
C562 C571 1.390 . S
C563 C562 1.387 . S
C563 C565 1.387 . S
H564 C571 0.950 . S
C565 C563 1.387 . S
C565 C567 1.390 . S
C565 H569 0.950 . S
H566 C562 0.950 . S
C567 C565 1.390 . S
C567 C568 1.387 . S
C567 H570 0.950 . S
C568 C567 1.387 . S
C568 C571 1.387 . S
H569 C565 0.950 . S
H570 C567 0.950 . S
C571 C562 1.390 . S
C571 H564 0.950 . S
C571 C568 1.387 . S
C572 C573 1.387 . S
C572 H576 0.950 . S
C572 C581 1.390 . S
C573 C572 1.387 . S
C573 C575 1.387 . S
H574 C581 0.950 . S
C575 C573 1.387 . S
C575 C577 1.390 . S
C575 H579 0.950 . S
H576 C572 0.950 . S
C577 C575 1.390 . S
C577 C578 1.387 . S
C577 H580 0.950 . S
C578 C577 1.387 . S
C578 C581 1.387 . S
H579 C575 0.950 . S
H580 C577 0.950 . S
C581 C572 1.390 . S
C581 H574 0.950 . S
C581 C578 1.387 . S
C582 C583 1.387 . S
C582 H586 0.950 . S
C582 C591 1.390 . S
C583 C582 1.387 . S
C583 C585 1.387 . S
H584 C591 0.950 . S
C585 C583 1.387 . S
C585 C587 1.390 . S
C585 H589 0.950 . S
H586 C582 0.950 . S
C587 C585 1.390 . S
C587 C588 1.387 . S
C587 H590 0.950 . S
C588 C587 1.387 . S
C588 C591 1.387 . S
H589 C585 0.950 . S
H590 C587 0.950 . S
C591 C582 1.390 . S
C591 H584 0.950 . S
C591 C588 1.387 . S
C592 C593 1.387 . S
C592 H596 0.950 . S
C592 C601 1.390 . S
C593 C592 1.387 . S
C593 C595 1.387 . S
H594 C601 0.950 . S
C595 C593 1.387 . S
C595 C597 1.390 . S
C595 H599 0.950 . S
H596 C592 0.950 . S
C597 C595 1.390 . S
C597 C598 1.387 . S
C597 H600 0.950 . S
C598 C597 1.387 . S
C598 C601 1.387 . S
H599 C595 0.950 . S
H600 C597 0.950 . S
C601 C592 1.390 . S
C601 H594 0.950 . S
C601 C598 1.387 . S
C602 C603 1.387 . S
C602 H606 0.950 . S
C602 C611 1.390 . S
C603 C602 1.387 . S
C603 C605 1.387 . S
H604 C611 0.950 . S
C605 C603 1.387 . S
C605 C607 1.390 . S
C605 H609 0.950 . S
H606 C602 0.950 . S
C607 C605 1.390 . S
C607 C608 1.387 . S
C607 H610 0.950 . S
C608 C607 1.387 . S
C608 C611 1.387 . S
H609 C605 0.950 . S
H610 C607 0.950 . S
C611 C602 1.390 . S
C611 H604 0.950 . S
C611 C608 1.387 . S
C253 C146 1.286 . S
C258 C6 1.286 . S
C263 C20 1.286 . S
C268 C160 1.286 . S
C273 C132 1.285 . S
C278 C34 1.285 . S
C283 C202 1.285 . S
C288 C48 1.285 . S
C293 C62 1.286 . S
C298 C174 1.286 . S
C303 C188 1.286 . S
C308 C76 1.285 . S
C313 C90 1.286 . S
C318 C230 1.285 . S
C323 C244 1.285 . S
C328 C104 1.286 . S
C333 C118 1.286 . S
C338 C216 1.286 . S
C343 C9 1.366 . S
C348 C22 1.404 . S
C353 C23 1.363 . S
C358 C36 1.404 . S
C363 C8 1.403 . S
C368 C37 1.365 . S
C373 C78 1.403 . S
C378 C51 1.366 . S
C383 C50 1.403 . S
C388 C65 1.366 . S
C393 C79 1.366 . S
C398 C64 1.404 . S
C403 C93 1.363 . S
C408 C106 1.404 . S
C413 C107 1.366 . S
C418 C120 1.403 . S
C423 C92 1.403 . S
C428 C121 1.366 . S
C433 C162 1.404 . S
C438 C135 1.366 . S
C443 C134 1.405 . S
C448 C149 1.363 . S
C453 C148 1.404 . S
C458 C163 1.366 . S
C463 C190 1.403 . S
C468 C177 1.364 . S
C473 C204 1.404 . S
C478 C191 1.363 . S
C483 C176 1.404 . S
C488 C205 1.366 . S
C493 C219 1.366 . S
C498 C246 1.403 . S
C503 C233 1.366 . S
C508 C218 1.403 . S
C513 C247 1.366 . S
C518 C232 1.404 . S
C523 C7 1.702 . S
C528 C49 1.700 . S
C533 C63 1.701 . S
C538 C21 1.701 . S
C543 C77 1.701 . S
C548 C35 1.700 . S
C553 C133 1.700 . S
C558 C91 1.703 . S
C563 C147 1.701 . S
C568 C105 1.701 . S
C573 C119 1.700 . S
C578 C161 1.702 . S
C583 C217 1.703 . S
C588 C175 1.704 . S
C593 C231 1.701 . S
C598 C189 1.701 . S
C603 C245 1.703 . S
C608 C203 1.700 . S
