# Generated by pormake.
# Topology zfj, (5)-cn, num edge types: 1
# Building blocks:
#     Node 0, Type 0, BuildingBlock: BEQFEK_clean_sbu_0, # of connection points: 5
#     Node 1, Type 0, BuildingBlock: BEQFEK_clean_sbu_0, # of connection points: 5
#     Node 2, Type 0, BuildingBlock: BEQFEK_clean_sbu_0, # of connection points: 5
#     Node 3, Type 0, BuildingBlock: BEQFEK_clean_sbu_0, # of connection points: 5
#     Node 4, Type 0, BuildingBlock: BEQFEK_clean_sbu_0, # of connection points: 5
#     Node 5, Type 0, BuildingBlock: BEQFEK_clean_sbu_0, # of connection points: 5
#     Node 6, Type 0, BuildingBlock: BEQFEK_clean_sbu_0, # of connection points: 5
#     Node 7, Type 0, BuildingBlock: BEQFEK_clean_sbu_0, # of connection points: 5
#     Node 8, Type 0, BuildingBlock: BEQFEK_clean_sbu_0, # of connection points: 5
#     Node 9, Type 0, BuildingBlock: BEQFEK_clean_sbu_0, # of connection points: 5
#     Node 10, Type 0, BuildingBlock: BEQFEK_clean_sbu_0, # of connection points: 5
#     Node 11, Type 0, BuildingBlock: BEQFEK_clean_sbu_0, # of connection points: 5
#     Node 12, Type 0, BuildingBlock: BEQFEK_clean_sbu_0, # of connection points: 5
#     Node 13, Type 0, BuildingBlock: BEQFEK_clean_sbu_0, # of connection points: 5
#     Node 14, Type 0, BuildingBlock: BEQFEK_clean_sbu_0, # of connection points: 5
#     Node 15, Type 0, BuildingBlock: BEQFEK_clean_sbu_0, # of connection points: 5
#     Edge 16, Type (0, 0), BuildingBlock: TEMPAE_clean_linker_10, # of connection points: 2
#     Edge 17, Type (0, 0), BuildingBlock: TEMPAE_clean_linker_10, # of connection points: 2
#     Edge 18, Type (0, 0), BuildingBlock: TEMPAE_clean_linker_10, # of connection points: 2
#     Edge 19, Type (0, 0), BuildingBlock: TEMPAE_clean_linker_10, # of connection points: 2
#     Edge 20, Type (0, 0), BuildingBlock: TEMPAE_clean_linker_10, # of connection points: 2
#     Edge 21, Type (0, 0), BuildingBlock: TEMPAE_clean_linker_10, # of connection points: 2
#     Edge 22, Type (0, 0), BuildingBlock: TEMPAE_clean_linker_10, # of connection points: 2
#     Edge 23, Type (0, 0), BuildingBlock: TEMPAE_clean_linker_10, # of connection points: 2
#     Edge 24, Type (0, 0), BuildingBlock: TEMPAE_clean_linker_10, # of connection points: 2
#     Edge 25, Type (0, 0), BuildingBlock: TEMPAE_clean_linker_10, # of connection points: 2
#     Edge 26, Type (0, 0), BuildingBlock: TEMPAE_clean_linker_10, # of connection points: 2
#     Edge 27, Type (0, 0), BuildingBlock: TEMPAE_clean_linker_10, # of connection points: 2
#     Edge 28, Type (0, 0), BuildingBlock: TEMPAE_clean_linker_10, # of connection points: 2
#     Edge 29, Type (0, 0), BuildingBlock: TEMPAE_clean_linker_10, # of connection points: 2
#     Edge 30, Type (0, 0), BuildingBlock: TEMPAE_clean_linker_10, # of connection points: 2
#     Edge 31, Type (0, 0), BuildingBlock: TEMPAE_clean_linker_10, # of connection points: 2
#     Edge 32, Type (0, 0), BuildingBlock: TEMPAE_clean_linker_10, # of connection points: 2
#     Edge 33, Type (0, 0), BuildingBlock: TEMPAE_clean_linker_10, # of connection points: 2
#     Edge 34, Type (0, 0), BuildingBlock: TEMPAE_clean_linker_10, # of connection points: 2
#     Edge 35, Type (0, 0), BuildingBlock: TEMPAE_clean_linker_10, # of connection points: 2
#     Edge 36, Type (0, 0), BuildingBlock: TEMPAE_clean_linker_10, # of connection points: 2
#     Edge 37, Type (0, 0), BuildingBlock: TEMPAE_clean_linker_10, # of connection points: 2
#     Edge 38, Type (0, 0), BuildingBlock: TEMPAE_clean_linker_10, # of connection points: 2
#     Edge 39, Type (0, 0), BuildingBlock: TEMPAE_clean_linker_10, # of connection points: 2
#     Edge 40, Type (0, 0), BuildingBlock: TEMPAE_clean_linker_10, # of connection points: 2
#     Edge 41, Type (0, 0), BuildingBlock: TEMPAE_clean_linker_10, # of connection points: 2
#     Edge 42, Type (0, 0), BuildingBlock: TEMPAE_clean_linker_10, # of connection points: 2
#     Edge 43, Type (0, 0), BuildingBlock: TEMPAE_clean_linker_10, # of connection points: 2
#     Edge 44, Type (0, 0), BuildingBlock: TEMPAE_clean_linker_10, # of connection points: 2
#     Edge 45, Type (0, 0), BuildingBlock: TEMPAE_clean_linker_10, # of connection points: 2
#     Edge 46, Type (0, 0), BuildingBlock: TEMPAE_clean_linker_10, # of connection points: 2
#     Edge 47, Type (0, 0), BuildingBlock: TEMPAE_clean_linker_10, # of connection points: 2
#     Edge 48, Type (0, 0), BuildingBlock: TEMPAE_clean_linker_10, # of connection points: 2
#     Edge 49, Type (0, 0), BuildingBlock: TEMPAE_clean_linker_10, # of connection points: 2
#     Edge 50, Type (0, 0), BuildingBlock: TEMPAE_clean_linker_10, # of connection points: 2
#     Edge 51, Type (0, 0), BuildingBlock: TEMPAE_clean_linker_10, # of connection points: 2
#     Edge 52, Type (0, 0), BuildingBlock: TEMPAE_clean_linker_10, # of connection points: 2
#     Edge 53, Type (0, 0), BuildingBlock: TEMPAE_clean_linker_10, # of connection points: 2
#     Edge 54, Type (0, 0), BuildingBlock: TEMPAE_clean_linker_10, # of connection points: 2
#     Edge 55, Type (0, 0), BuildingBlock: TEMPAE_clean_linker_10, # of connection points: 2
# Relax obj value: 0.283
# Max RMSD: 0.172
# Mean RMSD: 0.172
data_MOF--net-zfj--node1-BEQFEK_clean_sbu_0--edge1-TEMPAE_clean_linker_10
_symmetry_space_group_name_H-M    P1
_symmetry_Int_Tables_number       1
_symmetry_cell_setting            triclinic
loop_
_symmetry_equiv_pos_as_xyz
'x, y, z'
_cell_length_a     35.959889
_cell_length_b     35.95149
_cell_length_c     54.221672
_cell_angle_alpha  90.00855
_cell_angle_beta   90.019829
_cell_angle_gamma 89.948771
loop_
_atom_site_label
_atom_site_type_symbol
_atom_site_fract_x
_atom_site_fract_y
_atom_site_fract_z
_atom_type_partial_charge
Co0 Co 0.5358 0.21707 0.14821 0.0
Co1 Co 0.56986 0.14056 0.13328 0.0
C2 C 0.54089 0.19071 0.09488 0.0
O3 O 0.53427 0.21415 0.11183 0.0
O4 O 0.55374 0.15857 0.09998 0.0
C5 C 0.47628 0.26532 0.14229 0.0
O6 O 0.46604 0.23813 0.12761 0.0
C7 C 0.57632 0.06034 0.12324 0.0
C8 C 0.63257 0.04914 0.13794 0.0
C9 C 0.60141 0.03178 0.12828 0.0
N10 N 0.59181 0.09265 0.13025 0.0
N11 N 0.62576 0.08585 0.13839 0.0
C12 C 0.53714 0.05722 0.11414 0.0
H13 H 0.5216 0.08335 0.11777 0.0
H14 H 0.52278 0.03339 0.12296 0.0
H15 H 0.53753 0.05236 0.09393 0.0
C16 C 0.49174 0.16976 0.18182 0.0
N17 N 0.51626 0.17375 0.16322 0.0
N18 N 0.53139 0.14126 0.15806 0.0
C19 C 0.51763 0.11578 0.17402 0.0
C20 C 0.49155 0.13288 0.18912 0.0
C21 C 0.47157 0.20134 0.19381 0.0
H22 H 0.49148 0.224 0.1981 0.0
H23 H 0.45063 0.21254 0.18074 0.0
H24 H 0.45727 0.1924 0.21095 0.0
O25 O 0.58831 0.22556 0.15864 0.0
O26 O 0.61096 0.17245 0.14421 0.0
H27 H 0.56216 0.07585 0.17325 0.0
H28 H 0.52678 0.06639 0.19594 0.0
C29 C 0.53193 0.07693 0.17701 0.0
H30 H 0.51711 0.05836 0.16404 0.0
H31 H 0.64364 0.10605 0.14547 0.0
O32 O 0.50526 0.26136 0.15549 0.0
C33 C 0.6157 0.20403 0.15425 0.0
Co34 Co 0.27621 0.53924 0.64999 0.0
Co35 Co 0.35372 0.56949 0.63383 0.0
C36 C 0.30218 0.54377 0.59596 0.0
O37 O 0.2792 0.53793 0.61335 0.0
O38 O 0.33498 0.55533 0.60048 0.0
C39 C 0.22818 0.47989 0.64444 0.0
O40 O 0.25565 0.46958 0.63 0.0
C41 C 0.43293 0.57967 0.61986 0.0
C42 C 0.44967 0.61989 0.64862 0.0
C43 C 0.46363 0.59814 0.62968 0.0
N44 N 0.40276 0.58927 0.63308 0.0
N45 N 0.41288 0.61398 0.64981 0.0
C46 C 0.43176 0.55391 0.59817 0.0
H47 H 0.4054 0.55782 0.58788 0.0
H48 H 0.43268 0.52466 0.60462 0.0
H49 H 0.45561 0.55902 0.58563 0.0
C50 C 0.32293 0.49508 0.68414 0.0
N51 N 0.31886 0.51855 0.66495 0.0
N52 N 0.35176 0.52971 0.65743 0.0
C53 C 0.378 0.51294 0.67139 0.0
C54 C 0.36067 0.49066 0.689 0.0
C55 C 0.29107 0.48056 0.69905 0.0
H56 H 0.26769 0.50069 0.69877 0.0
H57 H 0.28129 0.45406 0.6908 0.0
H58 H 0.2995 0.47528 0.71842 0.0
O59 O 0.26936 0.59157 0.6604 0.0
O60 O 0.32304 0.61188 0.64542 0.0
H61 H 0.4276 0.5452 0.67517 0.0
H62 H 0.43506 0.49555 0.67713 0.0
C63 C 0.41896 0.51777 0.66777 0.0
H64 H 0.42548 0.51685 0.64787 0.0
H65 H 0.39491 0.62546 0.66286 0.0
O66 O 0.23156 0.50935 0.65723 0.0
C67 C 0.29186 0.618 0.65576 0.0
Co68 Co 0.95901 0.27638 0.15035 0.0
Co69 Co 0.92644 0.35332 0.1348 0.0
C70 C 0.95442 0.30238 0.09675 0.0
O71 O 0.96058 0.27907 0.11387 0.0
O72 O 0.94219 0.33483 0.10162 0.0
C73 C 0.01845 0.2281 0.14457 0.0
O74 O 0.02872 0.2554 0.13 0.0
C75 C 0.91909 0.43355 0.12414 0.0
C76 C 0.86286 0.4442 0.13903 0.0
C77 C 0.89357 0.46184 0.12899 0.0
N78 N 0.90427 0.40118 0.13165 0.0
N79 N 0.87033 0.40765 0.13992 0.0
C80 C 0.95799 0.43702 0.11462 0.0
H81 H 0.97393 0.41111 0.11821 0.0
H82 H 0.97227 0.46111 0.1232 0.0
H83 H 0.95707 0.44165 0.0944 0.0
C84 C 0.0029 0.32341 0.18424 0.0
N85 N 0.97879 0.31965 0.16537 0.0
N86 N 0.96519 0.3525 0.15941 0.0
C87 C 0.98014 0.37818 0.17477 0.0
C88 C 0.0049 0.36065 0.19062 0.0
C89 C 0.022 0.29156 0.19669 0.0
H90 H 0.00138 0.26961 0.2011 0.0
H91 H 0.04272 0.27941 0.18385 0.0
H92 H 0.03646 0.30046 0.21378 0.0
O93 O 0.90653 0.26832 0.16068 0.0
O94 O 0.88515 0.32174 0.146 0.0
H95 H 0.97315 0.42894 0.19562 0.0
H96 H 0.98319 0.43497 0.16355 0.0
C97 C 0.96756 0.41774 0.1769 0.0
H98 H 0.9374 0.41996 0.17311 0.0
H99 H 0.85285 0.38737 0.1473 0.0
O100 O 0.98939 0.23196 0.1577 0.0
C101 C 0.87962 0.29036 0.15614 0.0
Co102 Co 0.22067 0.96172 0.65067 0.0
Co103 Co 0.14336 0.93064 0.63482 0.0
C104 C 0.19415 0.95723 0.59679 0.0
O105 O 0.21727 0.96335 0.61408 0.0
O106 O 0.1616 0.94512 0.60145 0.0
C107 C 0.26835 0.02147 0.64517 0.0
O108 O 0.24069 0.03194 0.63093 0.0
C109 C 0.06423 0.91964 0.62105 0.0
C110 C 0.04797 0.87947 0.64994 0.0
C111 C 0.03372 0.90102 0.63098 0.0
N112 N 0.09454 0.91036 0.63422 0.0
N113 N 0.08472 0.88566 0.65102 0.0
C114 C 0.06509 0.94531 0.5993 0.0
H115 H 0.06418 0.97458 0.60571 0.0
H116 H 0.04113 0.94008 0.58687 0.0
H117 H 0.09134 0.94141 0.5889 0.0
C118 C 0.17378 0.00545 0.68501 0.0
N119 N 0.17797 0.98192 0.66586 0.0
N120 N 0.14513 0.97036 0.65847 0.0
C121 C 0.11881 0.98691 0.67248 0.0
C122 C 0.13604 0.00947 0.68998 0.0
C123 C 0.20559 0.02054 0.69974 0.0
H124 H 0.22922 0.0007 0.69947 0.0
H125 H 0.21496 0.04707 0.69133 0.0
H126 H 0.19726 0.02594 0.71911 0.0
O127 O 0.22823 0.90937 0.66087 0.0
O128 O 0.17456 0.88855 0.64619 0.0
H129 H 0.06958 0.95415 0.67642 0.0
H130 H 0.06162 0.00371 0.67837 0.0
C131 C 0.07788 0.98164 0.66897 0.0
H132 H 0.07119 0.98246 0.64909 0.0
H133 H 0.10286 0.8744 0.66406 0.0
O134 O 0.26514 0.99186 0.65781 0.0
C135 C 0.20596 0.8827 0.65631 0.0
Co136 Co 0.53488 0.27338 0.86899 0.0
Co137 Co 0.56625 0.35014 0.88525 0.0
C138 C 0.5405 0.29821 0.92301 0.0
O139 O 0.53417 0.27548 0.90556 0.0
O140 O 0.55232 0.33092 0.91855 0.0
C141 C 0.47468 0.22749 0.87474 0.0
O142 O 0.46502 0.25602 0.88847 0.0
C143 C 0.57486 0.4289 0.89947 0.0
C144 C 0.61896 0.44586 0.8734 0.0
C145 C 0.59449 0.45969 0.89089 0.0
N146 N 0.58644 0.39883 0.8869 0.0
N147 N 0.6134 0.40902 0.87182 0.0
C148 C 0.54629 0.42739 0.91953 0.0
H149 H 0.54883 0.40091 0.92985 0.0
H150 H 0.51804 0.42834 0.91136 0.0
H151 H 0.54966 0.45102 0.93252 0.0
C152 C 0.49002 0.32076 0.83583 0.0
N153 N 0.5142 0.31644 0.85459 0.0
N154 N 0.52622 0.34924 0.8618 0.0
C155 C 0.50953 0.37563 0.84787 0.0
C156 C 0.48599 0.35842 0.83104 0.0
C157 C 0.47248 0.28917 0.82214 0.0
H158 H 0.49368 0.2675 0.81825 0.0
H159 H 0.45071 0.27649 0.83393 0.0
H160 H 0.45945 0.29855 0.80466 0.0
O161 O 0.58702 0.26594 0.85815 0.0
O162 O 0.60799 0.31932 0.87322 0.0
H163 H 0.54878 0.41998 0.84465 0.0
H164 H 0.5024 0.43234 0.83505 0.0
C165 C 0.51882 0.41618 0.84866 0.0
H166 H 0.51309 0.42717 0.86734 0.0
H167 H 0.62677 0.39111 0.85954 0.0
O168 O 0.50415 0.22948 0.86186 0.0
C169 C 0.61372 0.28815 0.86276 0.0
Co170 Co 0.21785 0.54045 0.37038 0.0
Co171 Co 0.1407 0.57115 0.3869 0.0
C172 C 0.19263 0.54544 0.42455 0.0
O173 O 0.21538 0.53918 0.40707 0.0
O174 O 0.15993 0.5574 0.42015 0.0
C175 C 0.26545 0.48085 0.37587 0.0
O176 O 0.23756 0.47054 0.38994 0.0
C177 C 0.0621 0.58172 0.40185 0.0
C178 C 0.04403 0.62071 0.37268 0.0
C179 C 0.03092 0.5996 0.3922 0.0
N180 N 0.0917 0.59095 0.388 0.0
N181 N 0.08082 0.61496 0.37103 0.0
C182 C 0.06424 0.55676 0.42391 0.0
H183 H 0.06413 0.52728 0.41789 0.0
H184 H 0.04043 0.56166 0.43653 0.0
H185 H 0.09058 0.56176 0.434 0.0
C186 C 0.17039 0.49615 0.33667 0.0
N187 N 0.17491 0.51978 0.35573 0.0
N188 N 0.14218 0.53102 0.36356 0.0
C189 C 0.11561 0.51405 0.35001 0.0
C190 C 0.13251 0.49164 0.33226 0.0
C191 C 0.2019 0.48151 0.32147 0.0
H192 H 0.22554 0.5013 0.32181 0.0
H193 H 0.21143 0.45469 0.3294 0.0
H194 H 0.19315 0.47676 0.3021 0.0
O195 O 0.22465 0.59276 0.35979 0.0
O196 O 0.17106 0.61331 0.37481 0.0
H197 H 0.06554 0.54575 0.34659 0.0
H198 H 0.05856 0.496 0.3455 0.0
C199 C 0.07475 0.51868 0.35426 0.0
H200 H 0.06898 0.51838 0.37428 0.0
H201 H 0.09825 0.62602 0.35751 0.0
O202 O 0.26242 0.51036 0.3631 0.0
C203 C 0.20214 0.61928 0.36432 0.0
Co204 Co 0.95728 0.22276 0.87069 0.0
Co205 Co 0.92848 0.14454 0.88627 0.0
C206 C 0.95404 0.19664 0.92437 0.0
O207 O 0.95987 0.22 0.9072 0.0
O208 O 0.94226 0.16399 0.91958 0.0
C209 C 0.01571 0.27264 0.87403 0.0
O210 O 0.02923 0.24472 0.88686 0.0
C211 C 0.92225 0.0649 0.89998 0.0
C212 C 0.87746 0.04782 0.87444 0.0
C213 C 0.90246 0.03403 0.8916 0.0
N214 N 0.91005 0.09501 0.88767 0.0
N215 N 0.88279 0.08467 0.87286 0.0
C216 C 0.95134 0.06642 0.91971 0.0
H217 H 0.95 0.09344 0.92951 0.0
H218 H 0.97933 0.06403 0.91129 0.0
H219 H 0.94752 0.04345 0.93316 0.0
C220 C 0.00338 0.17741 0.83681 0.0
N221 N 0.97921 0.18071 0.85567 0.0
N222 N 0.96818 0.14743 0.86262 0.0
C223 C 0.98554 0.12178 0.84846 0.0
C224 C 0.00849 0.13995 0.83175 0.0
C225 C 0.01996 0.20968 0.82332 0.0
H226 H -0.0016 0.23126 0.82017 0.0
H227 H 0.04218 0.22212 0.83487 0.0
H228 H 0.03229 0.20105 0.80546 0.0
O229 O 0.9047 0.22809 0.8604 0.0
O230 O 0.88525 0.17364 0.87456 0.0
H231 H 0.94758 0.07632 0.84518 0.0
H232 H 0.99414 0.06552 0.83515 0.0
C233 C 0.97749 0.08097 0.849 0.0
H234 H 0.98388 0.06986 0.86755 0.0
H235 H 0.86882 0.10257 0.86087 0.0
O236 O 0.98473 0.26858 0.86306 0.0
C237 C 0.87869 0.20489 0.86446 0.0
Co238 Co 0.27673 0.96237 0.37111 0.0
Co239 Co 0.35306 0.92896 0.38716 0.0
C240 C 0.30185 0.95655 0.425 0.0
O241 O 0.27909 0.96354 0.40768 0.0
O242 O 0.33413 0.94365 0.42039 0.0
C243 C 0.22971 0.02261 0.37663 0.0
O244 O 0.25741 0.03253 0.39099 0.0
C245 C 0.43151 0.91847 0.40195 0.0
C246 C 0.44849 0.8756 0.37497 0.0
C247 C 0.46226 0.89894 0.39314 0.0
N248 N 0.40156 0.908 0.38885 0.0
N249 N 0.41175 0.88171 0.37323 0.0
C250 C 0.43006 0.94623 0.42252 0.0
H251 H 0.43071 0.9748 0.41483 0.0
H252 H 0.45385 0.94248 0.43533 0.0
H253 H 0.40372 0.94312 0.43291 0.0
C254 C 0.32514 0.0062 0.33783 0.0
N255 N 0.32022 0.9821 0.35659 0.0
N256 N 0.35265 0.96867 0.36346 0.0
C257 C 0.37935 0.98397 0.34917 0.0
C258 C 0.36283 0.00819 0.33241 0.0
C259 C 0.29391 0.02389 0.32384 0.0
H260 H 0.2705 0.00399 0.32202 0.0
H261 H 0.28378 0.04841 0.3343 0.0
H262 H 0.30295 0.03311 0.30526 0.0
O263 O 0.26861 0.91006 0.36052 0.0
O264 O 0.32163 0.88767 0.37531 0.0
H265 H 0.42469 0.94601 0.34498 0.0
H266 H 0.43702 0.99403 0.33959 0.0
C267 C 0.41991 0.97507 0.35104 0.0
H268 H 0.42897 0.97777 0.37044 0.0
H269 H 0.39393 0.86927 0.36048 0.0
O270 O 0.23278 0.99326 0.36369 0.0
C271 C 0.29025 0.88278 0.36497 0.0
Co272 Co 0.45766 0.77417 0.87307 0.0
Co273 Co 0.43074 0.85249 0.88905 0.0
C274 C 0.45165 0.79973 0.92703 0.0
O275 O 0.45513 0.77595 0.90983 0.0
O276 O 0.44473 0.83375 0.92238 0.0
C277 C 0.51547 0.7252 0.88 0.0
O278 O 0.52478 0.75227 0.89506 0.0
C279 C 0.42256 0.93202 0.90247 0.0
C280 C 0.37837 0.94805 0.87616 0.0
C281 C 0.40234 0.9624 0.89374 0.0
N282 N 0.41156 0.90164 0.88999 0.0
N283 N 0.38464 0.91134 0.8747 0.0
C284 C 0.45088 0.9312 0.92271 0.0
H285 H 0.47916 0.93375 0.91476 0.0
H286 H 0.44623 0.95434 0.93591 0.0
H287 H 0.4495 0.90434 0.93269 0.0
C288 C 0.50565 0.81926 0.84021 0.0
N289 N 0.48118 0.81622 0.85892 0.0
N290 N 0.4706 0.84963 0.86588 0.0
C291 C 0.4885 0.8751 0.85193 0.0
C292 C 0.51138 0.8567 0.83526 0.0
C293 C 0.52172 0.78676 0.82665 0.0
H294 H 0.49929 0.7667 0.82211 0.0
H295 H 0.54191 0.77234 0.83882 0.0
H296 H 0.53624 0.79547 0.80956 0.0
O297 O 0.40614 0.76931 0.86086 0.0
O298 O 0.38779 0.82282 0.87714 0.0
H299 H 0.45102 0.92095 0.84817 0.0
H300 H 0.49806 0.93145 0.83907 0.0
C301 C 0.48073 0.916 0.85252 0.0
H302 H 0.48633 0.92684 0.87126 0.0
H303 H 0.37155 0.89311 0.86251 0.0
O304 O 0.48694 0.72902 0.86637 0.0
C305 C 0.38051 0.7925 0.86602 0.0
Co306 Co 0.71925 0.45808 0.37394 0.0
Co307 Co 0.64137 0.42772 0.38919 0.0
C308 C 0.69274 0.45326 0.42757 0.0
O309 O 0.71603 0.45929 0.41042 0.0
O310 O 0.66009 0.44158 0.42272 0.0
C311 C 0.76707 0.51725 0.37992 0.0
O312 O 0.73912 0.52756 0.39394 0.0
C313 C 0.56169 0.42141 0.40208 0.0
C314 C 0.54497 0.37657 0.37649 0.0
C315 C 0.53084 0.40206 0.39322 0.0
N316 N 0.59208 0.40866 0.39036 0.0
N317 N 0.58197 0.38128 0.37557 0.0
C318 C 0.56291 0.45071 0.4217 0.0
H319 H 0.56199 0.47868 0.41311 0.0
H320 H 0.53909 0.44777 0.43456 0.0
H321 H 0.58927 0.44861 0.43221 0.0
C322 C 0.67353 0.50386 0.34031 0.0
N323 N 0.67691 0.47938 0.35899 0.0
N324 N 0.64373 0.46767 0.36564 0.0
C325 C 0.61805 0.48479 0.35135 0.0
C326 C 0.6361 0.50837 0.33496 0.0
C327 C 0.70577 0.52141 0.32734 0.0
H328 H 0.72717 0.5 0.32333 0.0
H329 H 0.71848 0.54247 0.33968 0.0
H330 H 0.69712 0.53532 0.31 0.0
O331 O 0.72585 0.40564 0.36338 0.0
O332 O 0.67174 0.38519 0.3776 0.0
H333 H 0.56216 0.49155 0.33692 0.0
H334 H 0.56541 0.48286 0.36955 0.0
C335 C 0.57741 0.47586 0.35135 0.0
H336 H 0.57353 0.44571 0.34803 0.0
H337 H 0.60011 0.36702 0.3639 0.0
O338 O 0.76408 0.48782 0.36705 0.0
C339 C 0.70318 0.37916 0.36758 0.0
Co340 Co 0.03561 0.71943 0.87422 0.0
Co341 Co 0.071 0.64371 0.88941 0.0
C342 C 0.04045 0.69336 0.92762 0.0
O343 O 0.03355 0.7166 0.9106 0.0
O344 O 0.05405 0.66149 0.92261 0.0
C345 C 0.97526 0.76675 0.87964 0.0
O346 O 0.96527 0.73957 0.8944 0.0
C347 C 0.07845 0.56391 0.90028 0.0
C348 C 0.13395 0.55246 0.88448 0.0
C349 C 0.10334 0.53527 0.89502 0.0
N350 N 0.09347 0.59606 0.89257 0.0
N351 N 0.12701 0.58915 0.88377 0.0
C352 C 0.03975 0.56097 0.91026 0.0
H353 H 0.02396 0.58696 0.90663 0.0
H354 H 0.02499 0.53688 0.90204 0.0
H355 H 0.04115 0.55668 0.9305 0.0
C356 C 0.99277 0.67118 0.84043 0.0
N357 N 0.01715 0.67575 0.85906 0.0
N358 N 0.03288 0.64361 0.86434 0.0
C359 C 0.01973 0.61775 0.84841 0.0
C360 C 0.99346 0.63427 0.83308 0.0
C361 C 0.97202 0.70235 0.82838 0.0
H362 H 0.99132 0.72575 0.82465 0.0
H363 H 0.95022 0.71254 0.84117 0.0
H364 H 0.95873 0.69337 0.81089 0.0
O365 O 0.08811 0.72896 0.86424 0.0
O366 O 0.11181 0.67635 0.87878 0.0
H367 H 0.0641 0.57776 0.84944 0.0
H368 H 0.02708 0.56601 0.82844 0.0
C369 C 0.03363 0.57859 0.84658 0.0
H370 H 0.01985 0.56148 0.86085 0.0
H371 H 0.14442 0.60921 0.87604 0.0
O372 O 0.00445 0.76311 0.86662 0.0
C373 C 0.11594 0.70808 0.86881 0.0
Co374 Co 0.77563 0.03578 0.37509 0.0
Co375 Co 0.85314 0.0675 0.38998 0.0
C376 C 0.80246 0.04153 0.42865 0.0
O377 O 0.77909 0.03487 0.41163 0.0
O378 O 0.83487 0.0537 0.4236 0.0
C379 C 0.72786 0.97634 0.38124 0.0
O380 O 0.75536 0.96641 0.39577 0.0
C381 C 0.93278 0.07574 0.40267 0.0
C382 C 0.94828 0.12068 0.37684 0.0
C383 C 0.96308 0.09583 0.39373 0.0
N384 N 0.90206 0.08753 0.39088 0.0
N385 N 0.91144 0.11494 0.37592 0.0
C386 C 0.93237 0.04667 0.42245 0.0
H387 H 0.93417 0.01864 0.414 0.0
H388 H 0.95608 0.05048 0.43532 0.0
H389 H 0.90594 0.04811 0.43291 0.0
C390 C 0.82185 0.99064 0.34136 0.0
N391 N 0.8182 0.01507 0.36005 0.0
N392 N 0.85124 0.02735 0.36658 0.0
C393 C 0.87709 0.01065 0.35221 0.0
C394 C 0.85931 0.98676 0.33589 0.0
C395 C 0.78982 0.97275 0.32836 0.0
H396 H 0.76822 0.99395 0.32431 0.0
H397 H 0.77726 0.9516 0.34069 0.0
H398 H 0.79867 0.95894 0.31103 0.0
O399 O 0.76811 0.08806 0.36439 0.0
O400 O 0.82202 0.10941 0.37835 0.0
H401 H 0.92101 0.05029 0.3484 0.0
H402 H 0.93306 0.00425 0.33792 0.0
C403 C 0.91758 0.02019 0.35212 0.0
H404 H 0.92966 0.01396 0.37043 0.0
H405 H 0.8929 0.12858 0.36419 0.0
O406 O 0.73116 0.00551 0.36816 0.0
C407 C 0.79041 0.1149 0.36843 0.0
Co408 Co 0.45567 0.72031 0.15451 0.0
Co409 Co 0.42947 0.64246 0.13695 0.0
C410 C 0.45236 0.69608 0.10006 0.0
O411 O 0.45561 0.7191 0.11776 0.0
O412 O 0.44474 0.66201 0.10405 0.0
C413 C 0.5145 0.76955 0.15179 0.0
O414 O 0.52801 0.74138 0.1392 0.0
C415 C 0.42081 0.56321 0.1221 0.0
C416 C 0.38035 0.54543 0.15042 0.0
C417 C 0.4023 0.53216 0.13137 0.0
N418 N 0.41092 0.59295 0.13567 0.0
N419 N 0.38616 0.58219 0.15217 0.0
C420 C 0.44676 0.56511 0.10055 0.0
H421 H 0.44337 0.59203 0.09083 0.0
H422 H 0.47592 0.56336 0.1071 0.0
H423 H 0.44142 0.54196 0.08747 0.0
C424 C 0.50138 0.67422 0.18838 0.0
N425 N 0.4783 0.67809 0.16894 0.0
N426 N 0.46846 0.64504 0.16093 0.0
C427 C 0.48577 0.61895 0.17469 0.0
C428 C 0.50695 0.63648 0.1928 0.0
C429 C 0.51422 0.70603 0.20401 0.0
H430 H 0.49359 0.72896 0.20346 0.0
H431 H 0.54097 0.7166 0.19661 0.0
H432 H 0.51857 0.69719 0.2234 0.0
O433 O 0.40386 0.72472 0.16537 0.0
O434 O 0.38549 0.67181 0.14824 0.0
H435 H 0.4552 0.56816 0.17764 0.0
H436 H 0.50504 0.56235 0.17969 0.0
C437 C 0.48235 0.57797 0.17046 0.0
H438 H 0.48359 0.57212 0.15046 0.0
H439 H 0.37439 0.59973 0.16537 0.0
O440 O 0.48313 0.76598 0.16229 0.0
C441 C 0.37821 0.70201 0.15956 0.0
Co442 Co 0.77597 0.46086 0.65314 0.0
Co443 Co 0.8527 0.42792 0.63739 0.0
C444 C 0.80089 0.45433 0.59935 0.0
O445 O 0.7781 0.46131 0.61664 0.0
O446 O 0.83335 0.44195 0.60404 0.0
C447 C 0.72866 0.52056 0.64701 0.0
O448 O 0.75668 0.53045 0.63292 0.0
C449 C 0.93156 0.42016 0.6232 0.0
C450 C 0.9489 0.37537 0.64866 0.0
C451 C 0.96258 0.40062 0.63163 0.0
N452 N 0.90155 0.40783 0.63549 0.0
N453 N 0.91197 0.38043 0.65017 0.0
C454 C 0.92987 0.44958 0.60369 0.0
H455 H 0.93042 0.47748 0.6124 0.0
H456 H 0.95362 0.44701 0.59073 0.0
H457 H 0.90349 0.44723 0.59323 0.0
C458 C 0.82391 0.50636 0.68576 0.0
N459 N 0.81929 0.48155 0.66736 0.0
N460 N 0.85184 0.46781 0.66099 0.0
C461 C 0.87822 0.48327 0.67551 0.0
C462 C 0.86142 0.50831 0.69154 0.0
C463 C 0.79256 0.52494 0.69907 0.0
H464 H 0.77 0.50457 0.70254 0.0
H465 H 0.78109 0.54736 0.68723 0.0
H466 H 0.8019 0.53725 0.71679 0.0
O467 O 0.76862 0.4085 0.66412 0.0
O468 O 0.82186 0.38641 0.64944 0.0
H469 H 0.92151 0.44292 0.67956 0.0
H470 H 0.93486 0.48933 0.6887 0.0
C471 C 0.91852 0.47288 0.6752 0.0
H472 H 0.93002 0.47796 0.65659 0.0
H473 H 0.89415 0.36647 0.6622 0.0
O474 O 0.73163 0.49144 0.66019 0.0
C475 C 0.79054 0.38136 0.65981 0.0
Co476 Co 0.035 0.77467 0.15353 0.0
Co477 Co 0.06586 0.85175 0.13734 0.0
C478 C 0.03809 0.80036 0.09963 0.0
O479 O 0.03179 0.7774 0.11698 0.0
O480 O 0.05085 0.83272 0.10419 0.0
C481 C 0.97534 0.7259 0.15101 0.0
O482 O 0.96177 0.75385 0.13823 0.0
C483 C 0.07573 0.93077 0.12278 0.0
C484 C 0.11655 0.94799 0.15104 0.0
C485 C 0.09438 0.96165 0.13221 0.0
N486 N 0.08563 0.90081 0.13612 0.0
N487 N 0.11068 0.91121 0.15254 0.0
C488 C 0.04945 0.92925 0.10138 0.0
H489 H 0.02037 0.93029 0.10815 0.0
H490 H 0.05425 0.95287 0.0886 0.0
H491 H 0.05309 0.90272 0.09124 0.0
C492 C 0.99196 0.82169 0.18826 0.0
N493 N 0.01506 0.81737 0.1689 0.0
N494 N 0.02655 0.85015 0.16136 0.0
C495 C 0.01032 0.87658 0.17545 0.0
C496 C 0.98809 0.85949 0.19319 0.0
C497 C 0.97723 0.79 0.20324 0.0
H498 H 0.99697 0.7663 0.20276 0.0
H499 H 0.95041 0.78068 0.19521 0.0
H500 H 0.97246 0.79844 0.22267 0.0
O501 O 0.08744 0.7675 0.16303 0.0
O502 O 0.10858 0.82112 0.14853 0.0
H503 H 0.04313 0.92587 0.1789 0.0
H504 H 0.99362 0.93383 0.18131 0.0
C505 C 0.01548 0.91749 0.17176 0.0
H506 H 0.01418 0.92401 0.15186 0.0
H507 H 0.12246 0.89344 0.16561 0.0
O508 O 0.00665 0.72969 0.16156 0.0
C509 C 0.11421 0.7896 0.15855 0.0
Co510 Co 0.72165 0.03823 0.65493 0.0
Co511 Co 0.64403 0.0682 0.63876 0.0
C512 C 0.69584 0.04302 0.60088 0.0
O513 O 0.71879 0.03712 0.61829 0.0
O514 O 0.66299 0.05449 0.60538 0.0
C515 C 0.769 0.97863 0.64914 0.0
O516 O 0.74061 0.96822 0.63555 0.0
C517 C 0.56505 0.0787 0.62428 0.0
C518 C 0.54774 0.11838 0.65324 0.0
C519 C 0.5342 0.09718 0.6339 0.0
N520 N 0.59491 0.08781 0.63795 0.0
N521 N 0.58446 0.11216 0.65482 0.0
C522 C 0.56666 0.05341 0.60237 0.0
H523 H 0.56544 0.02404 0.60856 0.0
H524 H 0.54316 0.05892 0.5896 0.0
H525 H 0.59327 0.05736 0.59241 0.0
C526 C 0.675 0.99332 0.68873 0.0
N527 N 0.67906 0.0171 0.66971 0.0
N528 N 0.64612 0.02817 0.66214 0.0
C529 C 0.61989 0.01106 0.67589 0.0
C530 C 0.63725 0.98861 0.69342 0.0
C531 C 0.70684 0.97867 0.70364 0.0
H532 H 0.73029 -0.00131 0.70335 0.0
H533 H 0.71652 0.95211 0.69541 0.0
H534 H 0.6984 0.97344 0.72301 0.0
O535 O 0.72817 0.09057 0.6656 0.0
O536 O 0.67429 0.11056 0.6507 0.0
H537 H 0.57005 0.04296 0.67983 0.0
H538 H 0.56293 0.99324 0.68118 0.0
C539 C 0.57894 0.01579 0.67214 0.0
H540 H 0.57259 0.01541 0.65219 0.0
H541 H 0.60216 0.12328 0.66817 0.0
O542 O 0.76644 0.0083 0.66181 0.0
C543 C 0.70538 0.11687 0.6611 0.0
C544 C 0.55824 0.18864 0.05003 0.0
C545 C 0.53586 0.20295 0.06895 0.0
C546 C 0.55736 0.20423 0.02621 0.0
C547 C 0.53296 0.2343 0.02108 0.0
C548 C 0.50908 0.24763 0.03986 0.0
C549 C 0.51109 0.23207 0.06356 0.0
C550 C 0.5836 0.1895 1.00679 0.0
C551 C 0.48199 0.27895 0.03509 0.0
C552 C 0.55715 0.29959 0.968 0.0
C553 C 0.53592 0.28472 0.9487 0.0
C554 C 0.55632 0.28356 0.99169 0.0
C555 C 0.53311 0.25242 0.99629 0.0
C556 C 0.51049 0.23831 0.9771 0.0
C557 C 0.51244 0.25436 0.95353 0.0
C558 C 0.5812 0.29918 1.01158 0.0
C559 C 0.48466 0.20582 0.98131 0.0
H560 H 0.57769 0.16643 0.05413 0.0
H561 H 0.49356 0.24318 0.07807 0.0
H562 H 0.5678 0.18069 0.99022 0.0
H563 H 0.60291 0.21189 1.00095 0.0
H564 H 0.60025 0.16551 0.01352 0.0
H565 H 0.46371 0.28447 0.0512 0.0
H566 H 0.49742 0.3048 0.03067 0.0
H567 H 0.4643 0.2723 0.01891 0.0
H568 H 0.57557 0.3228 0.96435 0.0
H569 H 0.49577 0.24282 0.93873 0.0
H570 H 0.60097 0.27743 0.01787 0.0
H571 H 0.56439 0.30757 0.0278 0.0
H572 H 0.59735 0.32365 1.00513 0.0
H573 H 0.50101 0.1807 0.98618 0.0
H574 H 0.46753 0.19942 0.96479 0.0
H575 H 0.46582 0.21177 0.99702 0.0
C576 C 0.19271 0.56344 0.46926 0.0
C577 C 0.20605 0.54068 0.45023 0.0
C578 C 0.20889 0.56237 0.4929 0.0
C579 C 0.23847 0.53727 0.49777 0.0
C580 C 0.25091 0.51312 0.47887 0.0
C581 C 0.2349 0.51547 0.45528 0.0
C582 C 0.19521 0.58902 0.51242 0.0
C583 C 0.28158 0.48522 0.48339 0.0
C584 C 0.3044 0.55979 0.55087 0.0
C585 C 0.28885 0.53914 0.57021 0.0
C586 C 0.2885 0.55917 0.52713 0.0
C587 C 0.25678 0.53678 0.52251 0.0
C588 C 0.24203 0.51462 0.54174 0.0
C589 C 0.25798 0.51636 0.56535 0.0
C590 C 0.30481 0.58356 0.50723 0.0
C591 C 0.20889 0.48963 0.53752 0.0
H592 H 0.17071 0.58323 0.46539 0.0
H593 H 0.24525 0.49768 0.44066 0.0
H594 H 0.18581 0.57343 0.52892 0.0
H595 H 0.21833 0.60741 0.51834 0.0
H596 H 0.17188 0.60664 0.50577 0.0
H597 H 0.28622 0.46672 0.46727 0.0
H598 H 0.30794 0.49997 0.48752 0.0
H599 H 0.27483 0.46779 0.49967 0.0
H600 H 0.32803 0.57767 0.55453 0.0
H601 H 0.2459 0.50013 0.58017 0.0
H602 H 0.2837 0.6041 0.50105 0.0
H603 H 0.31247 0.56653 0.49095 0.0
H604 H 0.32987 0.59883 0.51362 0.0
H605 H 0.18412 0.50667 0.5329 0.0
H606 H 0.20228 0.47241 0.55396 0.0
H607 H 0.21417 0.47088 0.52164 0.0
C608 C 0.93728 0.19444 0.9693 0.0
C609 C 0.95893 0.20932 0.95022 0.0
C610 C 0.93824 0.20994 0.99314 0.0
C611 C 0.96205 0.24048 0.99814 0.0
C612 C 0.98518 0.25447 0.97918 0.0
C613 C 0.98303 0.23902 0.95543 0.0
C614 C 0.91278 0.19451 0.01276 0.0
C615 C 0.01167 0.28628 0.98382 0.0
C616 C 0.93746 0.30452 0.05184 0.0
C617 C 0.95929 0.28974 0.07089 0.0
C618 C 0.93827 0.28892 0.02803 0.0
C619 C 0.96208 0.25835 0.02302 0.0
C620 C 0.98537 0.24442 0.04194 0.0
C621 C 0.9834 0.26 0.06566 0.0
C622 C 0.91264 0.30428 1.00846 0.0
C623 C 0.01186 0.21255 0.03731 0.0
H624 H 0.91837 0.17174 0.96534 0.0
H625 H 3e-05 0.25054 0.94079 0.0
H626 H 0.92916 0.18572 0.02908 0.0
H627 H 0.89322 0.21649 0.01897 0.0
H628 H 0.89639 0.17034 1.00607 0.0
H629 H 0.02948 0.2923 0.96756 0.0
H630 H 0.99578 0.31178 0.9885 0.0
H631 H 0.02985 0.27984 0.9998 0.0
H632 H 0.91851 0.32721 0.05582 0.0
H633 H 0.0005 0.24851 0.08027 0.0
H634 H 0.89314 0.28225 1.00228 0.0
H635 H 0.92891 0.3131 0.9921 0.0
H636 H 0.89619 0.32842 0.01517 0.0
H637 H 0.99596 0.18709 0.03261 0.0
H638 H 0.02966 0.20647 0.05357 0.0
H639 H 0.03004 0.21897 0.02134 0.0
C640 C 0.30321 0.93956 0.46992 0.0
C641 C 0.28883 0.96146 0.45078 0.0
C642 C 0.2874 0.94062 0.49366 0.0
C643 C 0.25702 0.96476 0.49849 0.0
C644 C 0.24351 0.98811 0.47948 0.0
C645 C 0.25929 0.98589 0.45584 0.0
C646 C 0.30233 0.91493 0.51334 0.0
C647 C 0.21186 0.01493 0.48393 0.0
C648 C 0.19228 0.94055 0.55184 0.0
C649 C 0.2071 0.9621 0.57101 0.0
C650 C 0.20806 0.94138 0.52809 0.0
C651 C 0.23886 0.96493 0.52327 0.0
C652 C 0.25281 0.98797 0.54231 0.0
C653 C 0.23704 0.98598 0.56596 0.0
C654 C 0.19266 0.91603 0.50838 0.0
C655 C 0.28491 0.01419 0.53786 0.0
H656 H 0.32578 0.9204 0.46609 0.0
H657 H 0.24813 0.00308 0.44116 0.0
H658 H 0.3111 0.93118 0.52972 0.0
H659 H 0.28007 0.89563 0.51942 0.0
H660 H 0.32638 0.89825 0.50677 0.0
H661 H 0.20623 0.03284 0.46765 0.0
H662 H 0.18617 -0.00072 0.48841 0.0
H663 H 0.21821 0.03301 0.49998 0.0
H664 H 0.1694 0.92181 0.55567 0.0
H665 H 0.24854 0.00289 0.58066 0.0
H666 H 0.21454 0.89627 0.5023 0.0
H667 H 0.18422 0.93247 0.49201 0.0
H668 H 0.16828 0.89985 0.51493 0.0
H669 H 0.31029 0.99807 0.53325 0.0
H670 H 0.29097 0.03186 0.55419 0.0
H671 H 0.27878 0.03251 0.5219 0.0
C672 C 0.4796 0.79864 0.96936 0.0
C673 C 0.45264 0.78618 0.95268 0.0
C674 C 0.48204 0.78324 0.9932 0.0
C675 C 0.45605 0.75577 1.00069 0.0
C676 C 0.42835 0.74376 0.98391 0.0
C677 C 0.42748 0.7586 0.95998 0.0
C678 C 0.51266 0.79595 1.01026 0.0
C679 C 0.39925 0.71564 0.99132 0.0
C680 C 0.47267 0.69156 0.05575 0.0
C681 C 0.45413 0.71073 0.07458 0.0
C682 C 0.47479 0.70656 0.03176 0.0
C683 C 0.4566 0.74066 0.02636 0.0
C684 C 0.43737 0.75969 0.04533 0.0
C685 C 0.43701 0.74486 0.06925 0.0
C686 C 0.49662 0.68605 1.01226 0.0
C687 C 0.41635 0.79527 0.04025 0.0
H688 H 0.49939 0.81959 0.96349 0.0
H689 H 0.4067 0.74898 0.94695 0.0
H690 H 0.50057 0.80954 0.02678 0.0
H691 H 0.52891 0.7716 0.01678 0.0
H692 H 0.5319 0.81587 1.00119 0.0
H693 H 0.37898 0.71009 0.9763 0.0
H694 H 0.41272 0.68902 0.99653 0.0
H695 H 0.38384 0.72578 1.00773 0.0
H696 H 0.48616 0.66532 0.05992 0.0
H697 H 0.42236 0.75956 0.08377 0.0
H698 H 0.51727 0.705 1.0037 0.0
H699 H 0.4777 0.67654 0.99739 0.0
H700 H 0.51146 0.66147 0.01984 0.0
H701 H 0.43557 0.81689 0.0332 0.0
H702 H 0.40222 0.80626 0.05696 0.0
H703 H 0.39509 0.79037 0.02577 0.0
C704 C 0.73532 0.48215 0.4585 0.0
C705 C 0.70556 0.45806 0.45339 0.0
C706 C 0.75108 0.48418 0.48215 0.0
C707 C 0.73731 0.461 0.50115 0.0
C708 C 0.70668 0.43723 0.49628 0.0
C709 C 0.6909 0.43634 0.47251 0.0
C710 C 0.783 0.51063 0.48663 0.0
C711 C 0.69145 0.41175 0.51596 0.0
C712 C 0.8021 0.43667 0.55453 0.0
C713 C 0.78766 0.45871 0.57358 0.0
C714 C 0.78608 0.43727 0.53082 0.0
C715 C 0.75543 0.46105 0.52595 0.0
C716 C 0.74181 0.48448 0.54488 0.0
C717 C 0.75782 0.48276 0.56847 0.0
C718 C 0.80116 0.41153 0.51122 0.0
C719 C 0.70985 0.51092 0.54037 0.0
H720 H 0.74669 0.49919 0.44384 0.0
H721 H 0.66816 0.41744 0.46863 0.0
H722 H 0.7767 0.52895 0.50256 0.0
H723 H 0.80847 0.49469 0.49131 0.0
H724 H 0.789 0.52831 0.4703 0.0
H725 H 0.66719 0.39541 0.50938 0.0
H726 H 0.71348 0.39214 0.52204 0.0
H727 H 0.6829 0.42812 0.53234 0.0
H728 H 0.82489 0.4178 0.5584 0.0
H729 H 0.74661 0.50004 0.58308 0.0
H730 H 0.80985 0.42774 0.49481 0.0
H731 H 0.77902 0.39207 0.50517 0.0
H732 H 0.82531 0.39503 0.51785 0.0
H733 H 0.71614 0.52919 0.52442 0.0
H734 H 0.70385 0.52866 0.55668 0.0
H735 H 0.6844 0.495 0.53571 0.0
C736 C 0.05464 0.80216 0.05465 0.0
C737 C 0.03321 0.78727 0.07385 0.0
C738 C 0.05398 0.78623 0.03093 0.0
C739 C 0.03076 0.75516 0.02616 0.0
C740 C 0.00784 0.74112 0.04522 0.0
C741 C 0.00961 0.75708 0.06885 0.0
C742 C 0.07915 0.80181 1.0112 0.0
C743 C 0.98198 0.70871 0.04082 0.0
C744 C 0.00997 0.73467 0.9587 0.0
C745 C 0.0349 0.70559 0.95352 0.0
C746 C 0.00749 0.75024 0.9824 0.0
C747 C 0.03103 0.73695 1.00138 0.0
C748 C 0.05555 0.70691 0.99647 0.0
C749 C 0.05693 0.69133 0.97265 0.0
C750 C 0.98031 0.78157 0.98691 0.0
C751 C 0.08141 0.69219 0.01612 0.0
H752 H 0.07318 0.82523 0.05843 0.0
H753 H 0.9928 0.74551 0.08356 0.0
H754 H 0.09909 0.78009 1.00512 0.0
H755 H 0.06259 0.81006 0.99483 0.0
H756 H 0.09511 0.82637 0.01772 0.0
H757 H 0.96434 0.70258 0.05714 0.0
H758 H 0.96364 0.71454 0.02481 0.0
H759 H -0.00162 0.68347 0.03629 0.0
H760 H 0.9927 0.74575 0.94405 0.0
H761 H 0.07649 0.66914 0.96873 0.0
H762 H 0.99568 0.80749 0.99125 0.0
H763 H 0.9625 0.77509 1.00305 0.0
H764 H 0.96215 0.78687 0.9707 0.0
H765 H 0.10064 0.71457 0.02211 0.0
H766 H 0.09816 0.66817 1.00956 0.0
H767 H 0.0653 0.68344 0.03256 0.0
C768 C 0.80456 0.05943 0.47342 0.0
C769 C 0.79 0.03706 0.45458 0.0
C770 C 0.78908 0.05886 0.49728 0.0
C771 C 0.7589 0.03474 0.50254 0.0
C772 C 0.74526 0.0109 0.48384 0.0
C773 C 0.76067 0.01265 0.46008 0.0
C774 C 0.80412 0.08508 0.5166 0.0
C775 C 0.71383 0.98406 0.48875 0.0
C776 C 0.73941 0.01466 0.57025 0.0
C777 C 0.70916 0.03829 0.57515 0.0
C778 C 0.75522 0.01249 0.54661 0.0
C779 C 0.74101 0.0351 0.52742 0.0
C780 C 0.71001 0.05851 0.53212 0.0
C781 C 0.69419 0.0595 0.55586 0.0
C782 C 0.78752 0.98641 0.54231 0.0
C783 C 0.69433 0.08343 0.51226 0.0
H784 H 0.82695 0.07859 0.46924 0.0
H785 H 0.74938 0.99511 0.44564 0.0
H786 H 0.78185 0.1045 0.52256 0.0
H787 H 0.8131 0.06928 0.53313 0.0
H788 H 0.82805 0.10162 0.50974 0.0
H789 H 0.70801 0.96581 0.47267 0.0
H790 H 0.72056 0.96632 0.5049 0.0
H791 H 0.68813 -0.0003 0.49331 0.0
H792 H 0.75103 0.99801 0.58504 0.0
H793 H 0.67107 0.07805 0.55957 0.0
H794 H 0.81268 0.00257 0.53733 0.0
H795 H 0.78135 0.96757 0.52662 0.0
H796 H 0.79397 0.96926 0.55882 0.0
H797 H 0.71612 0.10301 0.50584 0.0
H798 H 0.67003 0.09979 0.51879 0.0
H799 H 0.68567 0.0666 0.49611 0.0
C800 C 0.56495 0.81124 0.13641 0.0
C801 C 0.53231 0.80648 0.15022 0.0
C802 C 0.57958 0.84681 0.13216 0.0
C803 C 0.56105 0.87823 0.14194 0.0
C804 C 0.52885 0.87352 0.15661 0.0
C805 C 0.51492 0.83767 0.16064 0.0
C806 C 0.61424 0.85084 0.11668 0.0
C807 C 0.50846 0.90646 0.16744 0.0
C808 C 0.60919 0.97096 0.14945 0.0
C809 C 0.59419 0.99136 0.12975 0.0
C810 C 0.5998 0.93359 0.15309 0.0
C811 C 0.5748 0.91624 0.13661 0.0
C812 C 0.56105 0.93606 0.11595 0.0
C813 C 0.57117 0.97341 0.11266 0.0
C814 C 0.61532 0.91324 0.17519 0.0
C815 C 0.53454 0.91825 0.09787 0.0
H816 H 0.57859 0.78726 0.12834 0.0
H817 H 0.48972 0.83422 0.17136 0.0
H818 H 0.60757 0.86618 0.09948 0.0
H819 H 0.63546 0.86731 0.12674 0.0
H820 H 0.62651 0.8235 0.11163 0.0
H821 H 0.48437 0.89795 0.17894 0.0
H822 H 0.52764 0.92324 0.17898 0.0
H823 H 0.49826 0.92473 0.1524 0.0
H824 H 0.62718 0.9846 0.1627 0.0
H825 H 0.56064 0.98862 0.0969 0.0
H826 H 0.62737 0.88615 0.16952 0.0
H827 H 0.59257 0.90728 0.18843 0.0
H828 H 0.63709 0.92959 0.18487 0.0
H829 H 0.5464 0.89186 0.09075 0.0
H830 H 0.52814 0.93673 0.08201 0.0
H831 H 0.50812 0.91128 0.10738 0.0
C832 C 0.68312 0.55493 0.62107 0.0
C833 C 0.69213 0.53844 0.64375 0.0
C834 C 0.64696 0.56757 0.61626 0.0
C835 C 0.6195 0.56438 0.6348 0.0
C836 C 0.62895 0.5494 0.65815 0.0
C837 C 0.66511 0.53613 0.66224 0.0
C838 C 0.63773 0.58253 0.59096 0.0
C839 C 0.60057 0.54632 0.67858 0.0
C840 C 0.52946 0.61898 0.63232 0.0
C841 C 0.50384 0.59111 0.62607 0.0
C842 C 0.56755 0.61115 0.63426 0.0
C843 C 0.58034 0.57465 0.62949 0.0
C844 C 0.55499 0.54698 0.62164 0.0
C845 C 0.51696 0.55537 0.62042 0.0
C846 C 0.5937 0.64129 0.64292 0.0
C847 C 0.5677 0.50784 0.61598 0.0
H848 H 0.70387 0.55631 0.6066 0.0
H849 H 0.67213 0.52347 0.67979 0.0
H850 H 0.61853 0.56306 0.58148 0.0
H851 H 0.62326 0.6097 0.59243 0.0
H852 H 0.6629 0.58608 0.57932 0.0
H853 H 0.61315 0.53688 0.69622 0.0
H854 H 0.58688 0.5736 0.68166 0.0
H855 H 0.57859 0.52625 0.67321 0.0
H856 H 0.51948 0.64662 0.63687 0.0
H857 H 0.49759 0.53316 0.61656 0.0
H858 H 0.61829 0.64305 0.63064 0.0
H859 H 0.60398 0.63439 0.66167 0.0
H860 H 0.58001 0.66898 0.6436 0.0
H861 H 0.5923 0.50827 0.60364 0.0
H862 H 0.54548 0.49106 0.60711 0.0
H863 H 0.57613 0.49378 0.63332 0.0
C864 C 0.88378 0.52327 0.14901 0.0
C865 C 0.89987 0.50249 0.12986 0.0
C866 C 0.89222 0.56095 0.15219 0.0
C867 C 0.91742 0.57824 0.13585 0.0
C868 C 0.9322 0.55804 0.11568 0.0
C869 C 0.92295 0.52038 0.11279 0.0
C870 C 0.87555 0.58171 0.17376 0.0
C871 C 0.95899 0.57578 0.09776 0.0
C872 C 0.92602 0.68337 0.13497 0.0
C873 C 0.95797 0.68877 0.14939 0.0
C874 C 0.91203 0.64754 0.13069 0.0
C875 C 0.93056 0.61652 0.14102 0.0
C876 C 0.96208 0.62188 0.15624 0.0
C877 C 0.97532 0.65797 0.16032 0.0
C878 C 0.87807 0.64281 0.11461 0.0
C879 C 0.98246 0.58939 0.16767 0.0
H880 H 0.86567 0.50973 0.16222 0.0
H881 H 0.93422 0.50494 0.09738 0.0
H882 H 0.89766 0.58825 0.18735 0.0
H883 H 0.86345 0.60851 0.16755 0.0
H884 H 0.85356 0.56537 0.18321 0.0
H885 H 0.96601 0.55703 0.08215 0.0
H886 H 0.94706 0.60189 0.09025 0.0
H887 H 0.98507 0.58322 0.10753 0.0
H888 H 0.91244 0.70705 0.12646 0.0
H889 H 0.0 0.6619 0.1715 0.0
H890 H 0.85668 0.6262 0.12439 0.0
H891 H 0.88563 0.62731 0.09764 0.0
H892 H 0.86565 0.6699 0.10916 0.0
H893 H 0.9631 0.57269 0.17911 0.0
H894 H 0.00613 0.59838 0.1794 0.0
H895 H 0.99327 0.57087 0.15295 0.0
C896 C 0.81405 0.94366 0.62321 0.0
C897 C 0.80541 0.96057 0.64582 0.0
C898 C 0.85012 0.93085 0.6183 0.0
C899 C 0.87783 0.93429 0.63667 0.0
C900 C 0.86871 0.94963 0.65998 0.0
C901 C 0.83265 0.96308 0.66416 0.0
C902 C 0.859 0.91552 0.59305 0.0
C903 C 0.89735 0.95295 0.68024 0.0
C904 C 0.968 0.87994 0.634 0.0
C905 C 0.99344 0.90785 0.62751 0.0
C906 C 0.9299 0.88766 0.63608 0.0
C907 C 0.91693 0.92406 0.63119 0.0
C908 C 0.94209 0.95173 0.62309 0.0
C909 C 0.98012 0.94347 0.62176 0.0
C910 C 0.90398 0.85754 0.64504 0.0
C911 C 0.92917 0.99075 0.61729 0.0
H912 H 0.79311 0.94212 0.60886 0.0
H913 H 0.82588 0.97605 0.68165 0.0
H914 H 0.87789 0.93497 0.58329 0.0
H915 H 0.87369 0.88848 0.5946 0.0
H916 H 0.83365 0.9116 0.58163 0.0
H917 H 0.88498 0.96253 0.69791 0.0
H918 H 0.91115 0.92574 0.68336 0.0
H919 H 0.91921 0.97303 0.67468 0.0
H920 H 0.97813 0.8524 0.63863 0.0
H921 H -0.00064 0.96573 0.61774 0.0
H922 H 0.87919 0.85559 0.63293 0.0
H923 H 0.89397 0.8646 0.66383 0.0
H924 H 0.91775 0.82989 0.64574 0.0
H925 H 0.9044 0.99008 0.60509 0.0
H926 H 0.95121 0.00749 0.60821 0.0
H927 H 0.92092 0.00501 0.6346 0.0
C928 C 0.54977 0.67793 0.90449 0.0
C929 C 0.53398 0.68883 0.88198 0.0
C930 C 0.56295 0.64162 0.90792 0.0
C931 C 0.56111 0.61607 0.88812 0.0
C932 C 0.54718 0.62764 0.86491 0.0
C933 C 0.53324 0.66383 0.86221 0.0
C934 C 0.57677 0.63003 0.93308 0.0
C935 C 0.54571 0.60138 0.84319 0.0
C936 C 0.61529 0.52569 0.8896 0.0
C937 C 0.58697 0.49984 0.89437 0.0
C938 C 0.60762 0.56387 0.88821 0.0
C939 C 0.57084 0.57648 0.89212 0.0
C940 C 0.54253 0.55079 0.89822 0.0
C941 C 0.55076 0.51273 0.89877 0.0
C942 C 0.63837 0.59041 0.88119 0.0
C943 C 0.50303 0.56329 0.90293 0.0
H944 H 0.55005 0.69719 0.91988 0.0
H945 H 0.52125 0.67241 0.84476 0.0
H946 H 0.55723 0.60951 0.94117 0.0
H947 H 0.60428 0.61623 0.9316 0.0
H948 H 0.57921 0.65398 0.94593 0.0
H949 H 0.53781 0.61581 0.82584 0.0
H950 H 0.57311 0.58777 0.84049 0.0
H951 H 0.52509 0.57911 0.84681 0.0
H952 H 0.64328 0.51591 0.88593 0.0
H953 H 0.52821 0.49328 0.90127 0.0
H954 H 0.63954 0.61406 0.8943 0.0
H955 H 0.63262 0.60214 0.86265 0.0
H956 H 0.66601 0.5766 0.88078 0.0
H957 H 0.5026 0.58673 0.91625 0.0
H958 H 0.48542 0.54047 0.91029 0.0
H959 H 0.49045 0.5734 0.88549 0.0
C960 C 0.8297 0.5335 0.36353 0.0
C961 C 0.80334 0.53578 0.38243 0.0
C962 C 0.86564 0.54772 0.36684 0.0
C963 C 0.87555 0.56363 0.38984 0.0
C964 C 0.84872 0.56679 0.40878 0.0
C965 C 0.81272 0.55319 0.40473 0.0
C966 C 0.89334 0.54462 0.34601 0.0
C967 C 0.8585 0.58278 0.4337 0.0
C968 C 0.97861 0.55645 0.40272 0.0
C969 C 0.99096 0.5922 0.39646 0.0
C970 C 0.9407 0.54753 0.4022 0.0
C971 C 0.91467 0.57464 0.39443 0.0
C972 C 0.9267 0.61116 0.389 0.0
C973 C 0.96472 0.61956 0.39025 0.0
C974 C 0.92882 0.50838 0.40852 0.0
C975 C 0.8998 0.64067 0.38034 0.0
H976 H 0.82234 0.52017 0.34626 0.0
H977 H 0.79245 0.55459 0.4195 0.0
H978 H 0.90639 0.57205 0.3424 0.0
H979 H 0.91589 0.52507 0.35124 0.0
H980 H 0.88032 0.53451 0.32868 0.0
H981 H 0.83377 0.58568 0.44583 0.0
H982 H 0.87894 0.56435 0.44299 0.0
H983 H 0.87177 0.61043 0.4316 0.0
H984 H -0.00155 0.53459 0.40649 0.0
H985 H 0.97413 0.64717 0.3852 0.0
H986 H 0.92003 0.49372 0.39148 0.0
H987 H 0.90465 0.50881 0.42123 0.0
H988 H 0.95161 0.49216 0.41724 0.0
H989 H 0.88919 0.63318 0.36177 0.0
H990 H 0.91298 0.66856 0.37925 0.0
H991 H 0.87548 0.64232 0.39287 0.0
C992 C 0.94549 0.98036 0.89972 0.0
C993 C 0.90947 0.99381 0.89536 0.0
C994 C 0.95309 0.94213 0.89923 0.0
C995 C 0.92427 0.91685 0.89336 0.0
C996 C 0.88765 0.93004 0.8897 0.0
C997 C 0.88065 0.96835 0.89095 0.0
C998 C 0.99244 0.92899 0.9037 0.0
C999 C 0.85632 0.90397 0.88301 0.0
C1000 C 0.95878 0.82888 0.86249 0.0
C1001 C 0.95765 0.80352 0.88204 0.0
C1002 C 0.94618 0.86548 0.86564 0.0
C1003 C 0.93326 0.8771 0.8891 0.0
C1004 C 0.93117 0.85127 0.90872 0.0
C1005 C 0.94296 0.81457 0.90485 0.0
C1006 C 0.9479 0.89204 0.8441 0.0
C1007 C 0.91846 0.86285 0.93414 0.0
H1008 H 0.96835 -0.00052 0.90209 0.0
H1009 H 0.85276 0.97853 0.88743 0.0
H1010 H 0.9927 0.90542 0.91691 0.0
H1011 H 0.00463 0.91886 0.88615 0.0
H1012 H 0.01047 0.95149 0.91104 0.0
H1013 H 0.8289 0.91822 0.8828 0.0
H1014 H 0.86149 0.89203 0.86445 0.0
H1015 H 0.85503 0.88042 0.8962 0.0
H1016 H 0.97005 0.82022 0.84485 0.0
H1017 H 0.94254 0.79507 0.9201 0.0
H1018 H 0.96897 0.91387 0.84777 0.0
H1019 H 0.92072 0.9062 0.84164 0.0
H1020 H 0.95531 0.87776 0.8266 0.0
H1021 H 0.93888 0.8826 0.94213 0.0
H1022 H 0.91566 0.83876 0.94684 0.0
H1023 H 0.89136 0.87752 0.93311 0.0
C1024 C 0.52815 0.87767 0.39197 0.0
C1025 C 0.50241 0.90608 0.39689 0.0
C1026 C 0.56636 0.88516 0.39065 0.0
C1027 C 0.57911 0.92184 0.3947 0.0
C1028 C 0.55353 0.95021 0.40102 0.0
C1029 C 0.51544 0.94215 0.40158 0.0
C1030 C 0.59277 0.85433 0.38347 0.0
C1031 C 0.56616 0.98961 0.40587 0.0
C1032 C 0.68095 0.94238 0.40618 0.0
C1033 C 0.69146 0.95804 0.38355 0.0
C1034 C 0.64463 0.9295 0.40995 0.0
C1035 C 0.61866 0.9315 0.39041 0.0
C1036 C 0.62979 0.9454 0.36709 0.0
C1037 C 0.666 0.95904 0.36405 0.0
C1038 C 0.63353 0.91574 0.43521 0.0
C1039 C 0.60307 0.94712 0.34563 0.0
H1040 H 0.51824 0.8498 0.3881 0.0
H1041 H 0.49605 0.96476 0.40423 0.0
H1042 H 0.60423 0.86005 0.36485 0.0
H1043 H 0.6166 0.8531 0.39643 0.0
H1044 H 0.57893 0.82672 0.38313 0.0
H1045 H 0.54349 0.00719 0.41349 0.0
H1046 H 0.58984 0.98983 0.41899 0.0
H1047 H 0.57595 0.00237 0.38841 0.0
H1048 H 0.70054 0.94199 0.42138 0.0
H1049 H 0.67427 0.97101 0.34653 0.0
H1050 H 0.61969 0.88827 0.43385 0.0
H1051 H 0.61321 0.93536 0.44348 0.0
H1052 H 0.65773 0.91327 0.44786 0.0
H1053 H 0.58941 0.91975 0.34294 0.0
H1054 H 0.6171 0.95517 0.32818 0.0
H1055 H 0.58088 0.96774 0.34956 0.0
C1056 C 0.45752 0.16437 0.85981 0.0
C1057 C 0.45638 0.19137 0.87835 0.0
C1058 C 0.44454 0.12826 0.86428 0.0
C1059 C 0.4312 0.11889 0.88807 0.0
C1060 C 0.42887 0.14645 0.90661 0.0
C1061 C 0.44112 0.18258 0.90141 0.0
C1062 C 0.44648 0.09979 0.84383 0.0
C1063 C 0.41574 0.13732 0.93236 0.0
C1064 C 0.3794 0.02762 0.89229 0.0
C1065 C 0.40852 0.00272 0.89734 0.0
C1066 C 0.38595 0.06591 0.89027 0.0
C1067 C 0.42237 0.07961 0.89384 0.0
C1068 C 0.45134 0.05501 0.90066 0.0
C1069 C 0.44422 0.01677 0.90188 0.0
C1070 C 0.35445 0.09128 0.88273 0.0
C1071 C 0.49044 0.06879 0.90513 0.0
H1072 H 0.4692 0.17131 0.84196 0.0
H1073 H 0.44067 0.20338 0.91589 0.0
H1074 H 0.46756 0.07834 0.84845 0.0
H1075 H 0.41933 0.08544 0.84183 0.0
H1076 H 0.45402 0.11247 0.82583 0.0
H1077 H 0.41038 0.16275 0.94345 0.0
H1078 H 0.39 0.12037 0.93184 0.0
H1079 H 0.43736 0.1206 0.94189 0.0
H1080 H 0.35174 0.01694 0.88869 0.0
H1081 H 0.4673 0.99804 0.90481 0.0
H1082 H 0.35951 0.10167 0.86375 0.0
H1083 H 0.35306 0.11587 0.89505 0.0
H1084 H 0.32713 0.0769 0.88306 0.0
H1085 H 0.50304 0.07757 0.88738 0.0
H1086 H 0.50844 0.04703 0.91346 0.0
H1087 H 0.49015 0.09339 0.91749 0.0
C1088 C 0.32818 0.46403 0.35979 0.0
C1089 C 0.30204 0.46307 0.37888 0.0
C1090 C 0.36442 0.45073 0.3635 0.0
C1091 C 0.37491 0.43732 0.38708 0.0
C1092 C 0.34833 0.43558 0.40627 0.0
C1093 C 0.312 0.44803 0.40182 0.0
C1094 C 0.39179 0.45206 0.3424 0.0
C1095 C 0.35871 0.42248 0.43182 0.0
C1096 C 0.46461 0.38219 0.39077 0.0
C1097 C 0.49063 0.41027 0.39586 0.0
C1098 C 0.42661 0.39031 0.38854 0.0
C1099 C 0.41426 0.42729 0.39195 0.0
C1100 C 0.44002 0.45538 0.39841 0.0
C1101 C 0.47796 0.44669 0.3998 0.0
C1102 C 0.40004 0.35973 0.38122 0.0
C1103 C 0.42776 0.49507 0.40265 0.0
H1104 H 0.32036 0.47558 0.34206 0.0
H1105 H 0.29191 0.44776 0.41672 0.0
H1106 H 0.41396 0.47257 0.34652 0.0
H1107 H 0.40539 0.42457 0.34005 0.0
H1108 H 0.37832 0.45998 0.32472 0.0
H1109 H 0.33409 0.41987 0.44408 0.0
H1110 H 0.37306 0.39519 0.43096 0.0
H1111 H 0.37838 0.44258 0.44025 0.0
H1112 H 0.47418 0.35401 0.38751 0.0
H1113 H 0.49756 0.46903 0.40261 0.0
H1114 H 0.38877 0.36557 0.36256 0.0
H1115 H 0.3761 0.35874 0.39408 0.0
H1116 H 0.41364 0.33198 0.38094 0.0
H1117 H 0.41869 0.50756 0.38494 0.0
H1118 H 0.45041 0.5125 0.41043 0.0
H1119 H 0.40367 0.49594 0.41543 0.0
C1120 C 0.06619 0.31459 0.88906 0.0
C1121 C 0.03326 0.3097 0.87556 0.0
C1122 C 0.0809 0.3502 0.89306 0.0
C1123 C 0.0621 0.38155 0.8834 0.0
C1124 C 0.02944 0.37672 0.86918 0.0
C1125 C 0.01549 0.34082 0.86535 0.0
C1126 C 0.11606 0.35434 0.90805 0.0
C1127 C 0.0087 0.40958 0.85854 0.0
C1128 C 0.07378 0.47723 0.91175 0.0
C1129 C 0.0961 0.4948 0.8941 0.0
C1130 C 0.06341 0.43985 0.90895 0.0
C1131 C 0.07623 0.41959 0.88822 0.0
C1132 C 0.10062 0.43654 0.87118 0.0
C1133 C 0.11024 0.47395 0.87432 0.0
C1134 C 0.03755 0.42249 0.92761 0.0
C1135 C 0.1152 0.4157 0.84899 0.0
H1136 H 0.08011 0.29066 0.89699 0.0
H1137 H 0.99001 0.33727 0.85492 0.0
H1138 H 0.13707 0.37038 0.89752 0.0
H1139 H 0.11006 0.37017 0.92516 0.0
H1140 H 0.12827 0.32704 0.91323 0.0
H1141 H 0.98403 0.40101 0.8476 0.0
H1142 H -0.00069 0.42816 0.87365 0.0
H1143 H 0.0274 0.42606 0.8465 0.0
H1144 H 0.06395 0.49277 0.92756 0.0
H1145 H 0.12771 0.48728 0.86064 0.0
H1146 H 0.04951 0.39611 0.93468 0.0
H1147 H 0.01069 0.41559 0.91863 0.0
H1148 H 0.03197 0.44124 0.94347 0.0
H1149 H 0.12737 0.38867 0.85469 0.0
H1150 H 0.13665 0.43177 0.83882 0.0
H1151 H 0.09193 0.40959 0.83618 0.0
C1152 C 0.01721 0.05285 0.40054 0.0
C1153 C 0.0035 0.08886 0.39651 0.0
C1154 C 0.05538 0.04526 0.3992 0.0
C1155 C 0.08033 0.07408 0.39275 0.0
C1156 C 0.06692 0.11069 0.38931 0.0
C1157 C 0.02869 0.11768 0.39145 0.0
C1158 C 0.06877 0.00593 0.40345 0.0
C1159 C 0.09261 0.14201 0.38203 0.0
C1160 C 0.18299 0.05535 0.40249 0.0
C1161 C 0.19309 0.04038 0.37956 0.0
C1162 C 0.14651 0.06732 0.40695 0.0
C1163 C 0.1199 0.06511 0.38779 0.0
C1164 C 0.13055 0.05195 0.36418 0.0
C1165 C 0.16697 0.03917 0.36046 0.0
C1166 C 0.13599 0.08025 0.43251 0.0
C1167 C 0.10314 0.05011 0.34311 0.0
H1168 H -0.00175 0.02996 0.40335 0.0
H1169 H 0.01831 0.14556 0.38813 0.0
H1170 H 0.07818 0.99371 0.38573 0.0
H1171 H 0.09287 0.00575 0.41623 0.0
H1172 H 0.04663 0.98787 0.41121 0.0
H1173 H 0.07828 0.1694 0.38192 0.0
H1174 H 0.11665 0.14352 0.3948 0.0
H1175 H 0.10383 0.13664 0.36329 0.0
H1176 H 0.20307 0.05584 0.41741 0.0
H1177 H 0.17489 0.02769 0.34272 0.0
H1178 H 0.1171 0.05956 0.44108 0.0
H1179 H 0.12074 0.10704 0.43166 0.0
H1180 H 0.16065 0.08372 0.44464 0.0
H1181 H 0.0815 0.02902 0.34719 0.0
H1182 H 0.11673 0.04266 0.32539 0.0
H1183 H 0.08885 0.07727 0.34087 0.0
C1184 C 0.44262 0.3127 0.1174 0.0
C1185 C 0.45884 0.30221 0.13989 0.0
C1186 C 0.43052 0.34929 0.11346 0.0
C1187 C 0.43397 0.37565 0.13269 0.0
C1188 C 0.44864 0.36468 0.15584 0.0
C1189 C 0.46137 0.32813 0.15906 0.0
C1190 C 0.41581 0.36016 0.08839 0.0
C1191 C 0.45197 0.39185 0.17698 0.0
C1192 C 0.44445 0.47882 0.12095 0.0
C1193 C 0.40888 0.49208 0.12686 0.0
C1194 C 0.45232 0.44063 0.12123 0.0
C1195 C 0.42427 0.41522 0.12835 0.0
C1196 C 0.38794 0.42822 0.13338 0.0
C1197 C 0.38064 0.46649 0.13241 0.0
C1198 C 0.49131 0.42772 0.11536 0.0
C1199 C 0.35741 0.40201 0.14131 0.0
H1200 H 0.44106 0.29278 0.10242 0.0
H1201 H 0.4738 0.31995 0.17646 0.0
H1202 H 0.3885 0.37425 0.09017 0.0
H1203 H 0.43518 0.38022 0.07963 0.0
H1204 H 0.41263 0.3358 0.07595 0.0
H1205 H 0.46113 0.37815 0.19431 0.0
H1206 H 0.47236 0.41384 0.17222 0.0
H1207 H 0.42486 0.40573 0.18033 0.0
H1208 H 0.46691 0.49812 0.11761 0.0
H1209 H 0.35312 0.47658 0.13714 0.0
H1210 H 0.49062 0.40386 0.10238 0.0
H1211 H 0.50513 0.41808 0.1325 0.0
H1212 H 0.50845 0.45021 0.10712 0.0
H1213 H 0.35543 0.3781 0.12846 0.0
H1214 H 0.32989 0.41601 0.14221 0.0
H1215 H 0.36403 0.39066 0.15984 0.0
C1216 C 0.18072 0.44711 0.61929 0.0
C1217 C 0.19163 0.46192 0.64209 0.0
C1218 C 0.14431 0.43442 0.61555 0.0
C1219 C 0.11868 0.43567 0.63531 0.0
C1220 C 0.1302 0.4488 0.65875 0.0
C1221 C 0.16647 0.46237 0.66175 0.0
C1222 C 0.13278 0.42164 0.59014 0.0
C1223 C 0.10387 0.44963 0.68044 0.0
C1224 C 0.01515 0.4453 0.62467 0.0
C1225 C 0.00268 0.40879 0.62848 0.0
C1226 C 0.05311 0.45395 0.62545 0.0
C1227 C 0.07915 0.42572 0.63117 0.0
C1228 C 0.06697 0.38868 0.63453 0.0
C1229 C 0.02889 0.38062 0.63293 0.0
C1230 C 0.06513 0.49372 0.62133 0.0
C1231 C 0.09387 0.35798 0.64112 0.0
H1232 H 0.20007 0.44721 0.60396 0.0
H1233 H 0.17504 0.47373 0.67938 0.0
H1234 H 0.11902 0.39409 0.59112 0.0
H1235 H 0.11227 0.44153 0.58237 0.0
H1236 H 0.15675 0.4197 0.57727 0.0
H1237 H 0.11819 0.45718 0.69789 0.0
H1238 H 0.08147 0.47022 0.677 0.0
H1239 H 0.09045 0.42208 0.68281 0.0
H1240 H 0.99542 0.46771 0.62244 0.0
H1241 H 0.01946 0.3524 0.63614 0.0
H1242 H 0.08862 0.49484 0.60809 0.0
H1243 H 0.07498 0.50585 0.63897 0.0
H1244 H 0.04212 0.51132 0.61416 0.0
H1245 H 0.11727 0.35721 0.62782 0.0
H1246 H 0.08031 0.33022 0.64142 0.0
H1247 H 0.1059 0.36348 0.65962 0.0
C1248 C 0.05166 0.01492 0.12263 0.0
C1249 C 0.08741 0.00181 0.12824 0.0
C1250 C 0.0435 0.05303 0.12324 0.0
C1251 C 0.07141 0.07853 0.13046 0.0
C1252 C 0.10786 0.06572 0.13532 0.0
C1253 C 0.11547 0.02751 0.13398 0.0
C1254 C 0.00438 0.06575 0.11753 0.0
C1255 C 0.13824 0.09202 0.14339 0.0
C1256 C 0.05236 0.18096 0.11966 0.0
C1257 C 0.03605 0.19128 0.14214 0.0
C1258 C 0.06474 0.14447 0.11569 0.0
C1259 C 0.0615 0.11805 0.13488 0.0
C1260 C 0.04673 0.12886 0.15804 0.0
C1261 C 0.03369 0.1653 0.16128 0.0
C1262 C 0.0795 0.13377 0.09059 0.0
C1263 C 0.04363 0.10162 0.17914 0.0
H1264 H 0.0293 0.99553 0.11922 0.0
H1265 H 0.14311 0.01755 0.13853 0.0
H1266 H 0.99063 0.0752 0.13474 0.0
H1267 H 0.00484 0.08969 0.10462 0.0
H1268 H 0.98731 0.04322 0.10927 0.0
H1269 H 0.16582 0.07815 0.14432 0.0
H1270 H 0.14016 0.11599 0.13058 0.0
H1271 H 0.13149 0.10328 0.16191 0.0
H1272 H 0.05379 0.20092 0.1047 0.0
H1273 H 0.02118 0.17335 0.17867 0.0
H1274 H 0.06023 0.11364 0.0818 0.0
H1275 H 0.10688 0.11982 0.09236 0.0
H1276 H 0.08253 0.15818 0.07819 0.0
H1277 H 0.02332 0.07954 0.17439 0.0
H1278 H 0.03447 0.11523 0.1965 0.0
H1279 H 0.07081 0.08786 0.18244 0.0
C1280 C 0.33102 0.03688 0.66184 0.0
C1281 C 0.30488 0.03955 0.64281 0.0
C1282 C 0.36733 0.05018 0.65862 0.0
C1283 C 0.37782 0.06557 0.6356 0.0
C1284 C 0.3512 0.06926 0.61655 0.0
C1285 C 0.31484 0.05657 0.6205 0.0
C1286 C 0.39478 0.04656 0.67957 0.0
C1287 C 0.36158 0.08474 0.5916 0.0
C1288 C 0.46855 0.11894 0.63547 0.0
C1289 C 0.49408 0.09081 0.62949 0.0
C1290 C 0.43029 0.11165 0.63649 0.0
C1291 C 0.41728 0.07545 0.63111 0.0
C1292 C 0.44264 0.04755 0.62357 0.0
C1293 C 0.4808 0.05539 0.62324 0.0
C1294 C 0.40414 0.14199 0.64489 0.0
C1295 C 0.42972 0.00871 0.61731 0.0
H1296 H 0.32323 0.02385 0.67912 0.0
H1297 H 0.29474 0.05825 0.60563 0.0
H1298 H 0.41681 0.02633 0.67452 0.0
H1299 H 0.40856 0.07366 0.68309 0.0
H1300 H 0.38136 0.03702 0.6969 0.0
H1301 H 0.33699 0.08836 0.57942 0.0
H1302 H 0.37574 0.11196 0.59363 0.0
H1303 H 0.38143 0.06559 0.5824 0.0
H1304 H 0.47867 0.14632 0.64048 0.0
H1305 H 0.50006 0.03297 0.61961 0.0
H1306 H 0.39318 0.13503 0.66345 0.0
H1307 H 0.37997 0.14416 0.63226 0.0
H1308 H 0.41807 0.16952 0.64589 0.0
H1309 H 0.42033 0.99444 0.63435 0.0
H1310 H 0.45213 0.99178 0.60876 0.0
H1311 H 0.40571 0.00972 0.60447 0.0
C1312 C 0.81185 0.29739 0.14839 0.0
C1313 C 0.84071 0.27918 0.16099 0.0
C1314 C 0.77491 0.28589 0.15081 0.0
C1315 C 0.76632 0.25589 0.16667 0.0
C1316 C 0.79497 0.23866 0.18055 0.0
C1317 C 0.83203 0.25018 0.17728 0.0
C1318 C 0.74542 0.30446 0.13519 0.0
C1319 C 0.78663 0.20725 0.19814 0.0
C1320 C 0.66246 0.24341 0.17681 0.0
C1321 C 0.65429 0.21601 0.15924 0.0
C1322 C 0.69934 0.25515 0.18067 0.0
C1323 C 0.72826 0.23989 0.16606 0.0
C1324 C 0.72012 0.21173 0.14867 0.0
C1325 C 0.68338 0.19987 0.14571 0.0
C1326 C 0.70723 0.2845 0.19986 0.0
C1327 C 0.7499 0.19538 0.13224 0.0
H1328 H 0.81826 0.3198 0.13572 0.0
H1329 H 0.85416 0.23633 0.18729 0.0
H1330 H 0.73417 0.28416 0.12169 0.0
H1331 H 0.72191 0.31387 0.14685 0.0
H1332 H 0.75637 0.32881 0.12489 0.0
H1333 H 0.81072 0.20077 0.21024 0.0
H1334 H 0.76232 0.21427 0.20986 0.0
H1335 H 0.77943 0.18186 0.18755 0.0
H1336 H 0.64011 0.25563 0.1875 0.0
H1337 H 0.67729 0.17875 0.13201 0.0
H1338 H 0.71489 0.31096 0.19066 0.0
H1339 H 0.73115 0.27605 0.21152 0.0
H1340 H 0.6828 0.28975 0.21191 0.0
H1341 H 0.76153 0.21746 0.1202 0.0
H1342 H 0.73914 0.17265 0.12033 0.0
H1343 H 0.7731 0.18425 0.14351 0.0
C1344 C 0.29808 0.68572 0.64728 0.0
C1345 C 0.28103 0.65702 0.66067 0.0
C1346 C 0.28634 0.72266 0.64972 0.0
C1347 C 0.25742 0.73138 0.66643 0.0
C1348 C 0.24141 0.70288 0.68102 0.0
C1349 C 0.25305 0.66585 0.6777 0.0
C1350 C 0.30357 0.75202 0.63338 0.0
C1351 C 0.21124 0.71133 0.69953 0.0
C1352 C 0.24593 0.83513 0.67763 0.0
C1353 C 0.21727 0.84376 0.66104 0.0
C1354 C 0.2579 0.79818 0.68078 0.0
C1355 C 0.24152 0.76955 0.66648 0.0
C1356 C 0.21198 0.77808 0.65019 0.0
C1357 C 0.19995 0.81495 0.64791 0.0
C1358 C 0.28878 0.78992 0.69883 0.0
C1359 C 0.1943 0.74858 0.63416 0.0
H1360 H 0.31966 0.67913 0.63402 0.0
H1361 H 0.24008 0.64382 0.68828 0.0
H1362 H 0.28216 0.76332 0.62067 0.0
H1363 H 0.314 0.77553 0.64465 0.0
H1364 H 0.32696 0.74094 0.62218 0.0
H1365 H 0.20539 0.68721 0.71172 0.0
H1366 H 0.21921 0.7355 0.71111 0.0
H1367 H 0.18524 0.71887 0.68971 0.0
H1368 H 0.25914 0.85725 0.68801 0.0
H1369 H 0.17785 0.82137 0.63498 0.0
H1370 H 0.31441 0.7823 0.68863 0.0
H1371 H 0.28126 0.76586 0.71063 0.0
H1372 H 0.29506 0.81415 0.71084 0.0
H1373 H 0.21535 0.73713 0.62125 0.0
H1374 H 0.17061 0.75957 0.62319 0.0
H1375 H 0.18415 0.72519 0.64565 0.0
C1376 C 0.81091 0.19702 0.87193 0.0
C1377 C 0.83963 0.21489 0.85906 0.0
C1378 C 0.77384 0.20811 0.86909 0.0
C1379 C 0.76508 0.2372 0.8525 0.0
C1380 C 0.79365 0.25388 0.83833 0.0
C1381 C 0.83077 0.2429 0.84206 0.0
C1382 C 0.74439 0.19018 0.88501 0.0
C1383 C 0.78517 0.28423 0.81994 0.0
C1384 C 0.66137 0.24865 0.84111 0.0
C1385 C 0.65264 0.27697 0.85792 0.0
C1386 C 0.69837 0.2368 0.83794 0.0
C1387 C 0.72687 0.25294 0.85247 0.0
C1388 C 0.71822 0.28214 0.86899 0.0
C1389 C 0.68136 0.29408 0.87127 0.0
C1390 C 0.7068 0.20635 0.81962 0.0
C1391 C 0.74758 0.29955 0.88528 0.0
H1392 H 0.81754 0.17537 0.88514 0.0
H1393 H 0.85283 0.25646 0.83184 0.0
H1394 H 0.73283 0.21112 0.89796 0.0
H1395 H 0.72107 0.17998 0.87348 0.0
H1396 H 0.75548 0.1665 0.89594 0.0
H1397 H 0.80933 0.29026 0.80782 0.0
H1398 H 0.76108 0.27634 0.80826 0.0
H1399 H 0.77757 0.31012 0.82986 0.0
H1400 H 0.63932 0.23561 0.83058 0.0
H1401 H 0.67486 0.31591 0.88438 0.0
H1402 H 0.71428 0.18047 0.82958 0.0
H1403 H 0.73099 0.21413 0.80801 0.0
H1404 H 0.68269 0.20038 0.80743 0.0
H1405 H 0.75913 0.27821 0.89794 0.0
H1406 H 0.73644 0.32286 0.89652 0.0
H1407 H 0.77091 0.31017 0.87394 0.0
C1408 C 0.24992 0.83626 0.34293 0.0
C1409 C 0.27824 0.84416 0.35992 0.0
C1410 C 0.23749 0.79953 0.3394 0.0
C1411 C 0.25303 0.77045 0.35373 0.0
C1412 C 0.28219 0.77827 0.37046 0.0
C1413 C 0.29471 0.81488 0.3731 0.0
C1414 C 0.20709 0.79201 0.32087 0.0
C1415 C 0.29895 0.74829 0.38655 0.0
C1416 C 0.19545 0.68713 0.37223 0.0
C1417 C 0.21287 0.65825 0.35919 0.0
C1418 C 0.20724 0.72403 0.36977 0.0
C1419 C 0.23663 0.73251 0.35337 0.0
C1420 C 0.25289 0.70385 0.33902 0.0
C1421 C 0.24118 0.66688 0.34237 0.0
C1422 C 0.18971 0.75354 0.38587 0.0
C1423 C 0.28356 0.71206 0.32083 0.0
H1424 H 0.23739 0.85874 0.33251 0.0
H1425 H 0.31653 0.82074 0.38634 0.0
H1426 H 0.2146 0.76792 0.30907 0.0
H1427 H 0.18101 0.78476 0.33066 0.0
H1428 H 0.2016 0.81647 0.30889 0.0
H1429 H 0.32234 0.75878 0.39799 0.0
H1430 H 0.27732 0.73689 0.39904 0.0
H1431 H 0.30928 0.72497 0.37506 0.0
H1432 H 0.17357 0.68073 0.38532 0.0
H1433 H 0.25443 0.64473 0.33203 0.0
H1434 H 0.18002 0.77727 0.3745 0.0
H1435 H 0.21074 0.76445 0.39899 0.0
H1436 H 0.16575 0.74272 0.39662 0.0
H1437 H 0.27625 0.73655 0.30935 0.0
H1438 H 0.28924 0.68802 0.30852 0.0
H1439 H 0.30949 0.71892 0.33094 0.0
C1440 C 0.18373 0.70529 0.87742 0.0
C1441 C 0.1543 0.72103 0.864 0.0
C1442 C 0.22025 0.71781 0.87445 0.0
C1443 C 0.22784 0.74629 0.85718 0.0
C1444 C 0.19853 0.76142 0.84284 0.0
C1445 C 0.16189 0.74896 0.84668 0.0
C1446 C 0.25047 0.70151 0.89056 0.0
C1447 C 0.20583 0.79115 0.82381 0.0
C1448 C 0.313 0.80231 0.87387 0.0
C1449 C 0.34109 0.78342 0.86096 0.0
C1450 C 0.2757 0.7917 0.87179 0.0
C1451 C 0.26601 0.762 0.85594 0.0
C1452 C 0.29385 0.74441 0.84158 0.0
C1453 C 0.33123 0.755 0.84451 0.0
C1454 C 0.24707 0.81065 0.88789 0.0
C1455 C 0.28438 0.71331 0.82398 0.0
H1456 H 0.17808 0.68381 0.89094 0.0
H1457 H 0.13927 0.76094 0.8361 0.0
H1458 H 0.27317 0.69005 0.87899 0.0
H1459 H 0.2627 0.72366 0.90228 0.0
H1460 H 0.23998 0.67901 0.90275 0.0
H1461 H 0.18089 0.79705 0.81236 0.0
H1462 H 0.21442 0.81725 0.83309 0.0
H1463 H 0.22899 0.7826 0.81153 0.0
H1464 H 0.32031 0.82434 0.88663 0.0
H1465 H 0.35274 0.74061 0.83424 0.0
H1466 H 0.23652 0.79061 0.90179 0.0
H1467 H 0.22297 0.81989 0.8767 0.0
H1468 H 0.25864 0.83514 0.89775 0.0
H1469 H 0.27747 0.68785 0.83457 0.0
H1470 H 0.30783 0.70678 0.81136 0.0
H1471 H 0.25959 0.72067 0.81279 0.0
C1472 C 0.75042 0.16199 0.34663 0.0
C1473 C 0.77889 0.15371 0.36344 0.0
C1474 C 0.73831 0.19886 0.34321 0.0
C1475 C 0.75429 0.22774 0.35749 0.0
C1476 C 0.78361 0.21954 0.37403 0.0
C1477 C 0.79583 0.18277 0.37655 0.0
C1478 C 0.70773 0.20676 0.32487 0.0
C1479 C 0.80082 0.24929 0.39008 0.0
C1480 C 0.7425 0.33137 0.34594 0.0
C1481 C 0.71415 0.34015 0.36272 0.0
C1482 C 0.75432 0.29436 0.34277 0.0
C1483 C 0.73816 0.26584 0.35727 0.0
C1484 C 0.70886 0.27451 0.37371 0.0
C1485 C 0.69693 0.31142 0.37598 0.0
C1486 C 0.78486 0.28595 0.32452 0.0
C1487 C 0.69148 0.24517 0.38998 0.0
H1488 H 0.73751 0.13968 0.33627 0.0
H1489 H 0.81776 0.1766 0.38965 0.0
H1490 H 0.68185 0.21426 0.33481 0.0
H1491 H 0.71531 0.23079 0.31305 0.0
H1492 H 0.70186 0.18239 0.31289 0.0
H1493 H 0.82433 0.23853 0.40131 0.0
H1494 H 0.81109 0.2726 0.37858 0.0
H1495 H 0.77946 0.26077 0.40275 0.0
H1496 H 0.75561 0.35342 0.33546 0.0
H1497 H 0.67507 0.31797 0.38905 0.0
H1498 H 0.77729 0.2616 0.31299 0.0
H1499 H 0.81076 0.27875 0.33456 0.0
H1500 H 0.79071 0.31 0.31225 0.0
H1501 H 0.68137 0.22154 0.37869 0.0
H1502 H 0.66782 0.2562 0.40095 0.0
H1503 H 0.7127 0.23405 0.4029 0.0
C1504 C 0.31076 0.6953 0.15015 0.0
C1505 C 0.33893 0.71191 0.16424 0.0
C1506 C 0.27376 0.70711 0.15213 0.0
C1507 C 0.26454 0.73564 0.16905 0.0
C1508 C 0.29246 0.75101 0.18438 0.0
C1509 C 0.32949 0.73929 0.18157 0.0
C1510 C 0.24495 0.69049 0.1351 0.0
C1511 C 0.28345 0.78079 0.20308 0.0
C1512 C 0.18215 0.79485 0.15049 0.0
C1513 C 0.15294 0.77773 0.1633 0.0
C1514 C 0.21875 0.78201 0.15277 0.0
C1515 C 0.22653 0.75182 0.1687 0.0
C1516 C 0.19749 0.73554 0.18264 0.0
C1517 C 0.16087 0.74839 0.17953 0.0
C1518 C 0.2488 0.79969 0.13722 0.0
C1519 C 0.20496 0.70394 0.20029 0.0
H1520 H 0.31784 0.67417 0.13667 0.0
H1521 H 0.35111 0.75193 0.1927 0.0
H1522 H 0.2208 0.68022 0.14582 0.0
H1523 H 0.23452 0.71224 0.12231 0.0
H1524 H 0.25625 0.66711 0.12398 0.0
H1525 H 0.3071 0.78619 0.21577 0.0
H1526 H 0.27647 0.80708 0.19343 0.0
H1527 H 0.2588 0.77271 0.21415 0.0
H1528 H 0.17624 0.81745 0.13784 0.0
H1529 H 0.13843 0.7353 0.18965 0.0
H1530 H 0.26035 0.77878 0.12424 0.0
H1531 H 0.27199 0.80935 0.14907 0.0
H1532 H 0.23832 0.82372 0.12636 0.0
H1533 H 0.21291 0.67868 0.18979 0.0
H1534 H 0.18029 0.69728 0.21179 0.0
H1535 H 0.22859 0.71093 0.21261 0.0
C1536 C 0.74437 0.16493 0.68271 0.0
C1537 C 0.7157 0.15598 0.66622 0.0
C1538 C 0.75566 0.20206 0.68601 0.0
C1539 C 0.73856 0.23057 0.67194 0.0
C1540 C 0.70879 0.22174 0.65592 0.0
C1541 C 0.69746 0.18469 0.6535 0.0
C1542 C 0.78677 0.2106 0.7038 0.0
C1543 C 0.69035 0.25108 0.64013 0.0
C1544 C 0.75114 0.33448 0.68228 0.0
C1545 C 0.7789 0.34266 0.66496 0.0
C1546 C 0.73916 0.29763 0.68594 0.0
C1547 C 0.75452 0.26869 0.67138 0.0
C1548 C 0.78307 0.27682 0.65428 0.0
C1549 C 0.79519 0.31354 0.65152 0.0
C1550 C 0.70944 0.28978 0.70487 0.0
C1551 C 0.7996 0.24703 0.63792 0.0
H1552 H 0.75826 0.14292 0.69282 0.0
H1553 H 0.67529 0.17806 0.64069 0.0
H1554 H 0.81231 0.21776 0.69337 0.0
H1555 H 0.77954 0.235 0.71539 0.0
H1556 H 0.7931 0.18661 0.71602 0.0
H1557 H 0.66614 0.24001 0.62974 0.0
H1558 H 0.6808 0.27468 0.65167 0.0
H1559 H 0.71078 0.26225 0.6267 0.0
H1560 H 0.73874 0.35684 0.69288 0.0
H1561 H 0.81655 0.31961 0.63801 0.0
H1562 H 0.71761 0.26581 0.71658 0.0
H1563 H 0.68314 0.2822 0.69544 0.0
H1564 H 0.70404 0.3142 0.71691 0.0
H1565 H 0.81061 0.22384 0.64926 0.0
H1566 H 0.82245 0.25779 0.62614 0.0
H1567 H 0.77766 0.23537 0.62577 0.0
C1568 C 0.4022 0.00724 0.29445 0.0
C1569 C 0.38071 0.02744 0.31134 0.0
C1570 C 0.41964 0.02495 0.27448 0.0
C1571 C 0.41559 0.06387 0.27137 0.0
C1572 C 0.39364 0.08435 0.28833 0.0
C1573 C 0.37626 0.06582 0.30805 0.0
C1574 C 0.44243 0.00198 0.25671 0.0
C1575 C 0.38882 0.12588 0.28577 0.0
C1576 C 0.48967 0.11277 0.2331 0.0
C1577 C 0.47175 0.11645 0.21034 0.0
C1578 C 0.47149 0.09628 0.25327 0.0
C1579 C 0.4346 0.08304 0.25046 0.0
C1580 C 0.41634 0.08714 0.22744 0.0
C1581 C 0.43517 0.10394 0.20764 0.0
C1582 C 0.49189 0.09263 0.27749 0.0
C1583 C 0.37718 0.07322 0.22361 0.0
H1584 H 0.40516 0.97744 0.29682 0.0
H1585 H 0.35959 0.08137 0.32114 0.0
H1586 H 0.43141 0.00523 0.23771 0.0
H1587 H 0.4716 0.01198 0.25656 0.0
H1588 H 0.44238 0.97195 0.26152 0.0
H1589 H 0.37074 0.13771 0.30041 0.0
H1590 H 0.41635 0.13975 0.28663 0.0
H1591 H 0.3765 0.13257 0.26754 0.0
H1592 H 0.51803 0.1226 0.23503 0.0
H1593 H 0.42149 0.10692 0.18992 0.0
H1594 H 0.49501 0.06281 0.28234 0.0
H1595 H 0.4756 0.10597 0.29245 0.0
H1596 H 0.51995 0.10551 0.27688 0.0
H1597 H 0.37619 0.04271 0.22664 0.0
H1598 H 0.36662 0.0793 0.20478 0.0
H1599 H 0.35819 0.08618 0.23725 0.0
C1600 C 0.43515 0.39877 0.81467 0.0
C1601 C 0.46603 0.37603 0.81025 0.0
C1602 C 0.4166 0.41654 0.7951 0.0
C1603 C 0.4298 0.41195 0.77065 0.0
C1604 C 0.4611 0.38891 0.7662 0.0
C1605 C 0.47869 0.37101 0.78608 0.0
C1606 C 0.38307 0.44041 0.80061 0.0
C1607 C 0.47648 0.3838 0.74052 0.0
C1608 C 0.36667 0.43435 0.71612 0.0
C1609 C 0.37819 0.4704 0.70993 0.0
C1610 C 0.38284 0.41515 0.73604 0.0
C1611 C 0.41166 0.43218 0.74982 0.0
C1612 C 0.42341 0.46857 0.74359 0.0
C1613 C 0.4062 0.48738 0.72396 0.0
C1614 C 0.36909 0.37664 0.74232 0.0
C1615 C 0.45431 0.48762 0.75759 0.0
H1616 H 0.42556 0.4026 0.83346 0.0
H1617 H 0.50283 0.3536 0.78283 0.0
H1618 H 0.38881 0.46968 0.79538 0.0
H1619 H 0.35897 0.43099 0.78946 0.0
H1620 H 0.37526 0.43964 0.82042 0.0
H1621 H 0.50072 0.36463 0.74015 0.0
H1622 H 0.45464 0.37263 0.72812 0.0
H1623 H 0.48521 0.4111 0.73295 0.0
H1624 H 0.34513 0.42106 0.70527 0.0
H1625 H 0.41458 0.51559 0.71967 0.0
H1626 H 0.35983 0.37574 0.76183 0.0
H1627 H 0.39206 0.35624 0.74034 0.0
H1628 H 0.34564 0.36781 0.73034 0.0
H1629 H 0.44647 0.49071 0.77727 0.0
H1630 H 0.46082 0.51558 0.75002 0.0
H1631 H 0.4799 0.47036 0.75696 0.0
C1632 C 0.08554 0.48787 0.29814 0.0
C1633 C 0.11443 0.47123 0.31158 0.0
C1634 C 0.06783 0.46897 0.27875 0.0
C1635 C 0.08006 0.4329 0.27206 0.0
C1636 C 0.10974 0.41621 0.28524 0.0
C1637 C 0.12629 0.43542 0.30501 0.0
C1638 C 0.03597 0.48764 0.26545 0.0
C1639 C 0.1241 0.37813 0.27838 0.0
C1640 C 0.01351 0.37124 0.23575 0.0
C1641 C 0.02518 0.37759 0.21151 0.0
C1642 C 0.03126 0.38888 0.25568 0.0
C1643 C 0.06181 0.41286 0.25119 0.0
C1644 C 0.07407 0.41866 0.22664 0.0
C1645 C 0.05524 0.40131 0.20705 0.0
C1646 C 0.01676 0.38259 0.28147 0.0
C1647 C 0.10687 0.44344 0.22106 0.0
H1648 H 0.07686 0.51592 0.30267 0.0
H1649 H 0.14847 0.42233 0.3154 0.0
H1650 H 0.04321 0.49177 0.24576 0.0
H1651 H 0.01095 0.4696 0.26604 0.0
H1652 H 0.0288 0.51507 0.2736 0.0
H1653 H 0.14808 0.36948 0.28998 0.0
H1654 H 0.10164 0.35723 0.28041 0.0
H1655 H 0.13285 0.37788 0.25875 0.0
H1656 H 0.98995 0.35311 0.23904 0.0
H1657 H 0.06402 0.40619 0.18819 0.0
H1658 H 0.00753 0.40944 0.28952 0.0
H1659 H 0.03923 0.37162 0.29345 0.0
H1660 H 0.99305 0.36281 0.28186 0.0
H1661 H 0.10051 0.47244 0.22661 0.0
H1662 H 0.11426 0.44327 0.20116 0.0
H1663 H 0.13145 0.43435 0.23188 0.0
C1664 C 0.06059 0.10129 0.81539 0.0
C1665 C 0.02911 0.12317 0.81095 0.0
C1666 C 0.07955 0.0839 0.79586 0.0
C1667 C 0.06616 0.08796 0.77141 0.0
C1668 C 0.03431 0.11023 0.76692 0.0
C1669 C 0.01631 0.12778 0.78677 0.0
C1670 C 0.11364 0.06084 0.80141 0.0
C1671 C 0.01873 0.11477 0.74124 0.0
C1672 C 0.12937 0.06597 0.71687 0.0
C1673 C 0.11842 0.02966 0.71089 0.0
C1674 C 0.11298 0.08516 0.73671 0.0
C1675 C 0.08455 0.0678 0.75065 0.0
C1676 C 0.07343 0.03111 0.74467 0.0
C1677 C 0.09082 0.01236 0.72509 0.0
C1678 C 0.12604 0.124 0.74273 0.0
C1679 C 0.04299 0.01168 0.75887 0.0
H1680 H 0.07027 0.09775 0.83419 0.0
H1681 H 0.99168 0.14449 0.7835 0.0
H1682 H 0.10845 0.03136 0.79646 0.0
H1683 H 0.13743 0.07054 0.79008 0.0
H1684 H 0.12164 0.06216 0.82118 0.0
H1685 H 0.9942 0.13357 0.74081 0.0
H1686 H 0.04033 0.12607 0.72873 0.0
H1687 H 0.01036 0.08723 0.73385 0.0
H1688 H 0.15061 0.07949 0.70589 0.0
H1689 H 0.08288 0.98397 0.72095 0.0
H1690 H 0.13542 0.12535 0.7622 0.0
H1691 H 0.10268 0.14393 0.74069 0.0
H1692 H 0.14924 0.1331 0.73063 0.0
H1693 H 0.05101 0.00907 0.77855 0.0
H1694 H 0.037 0.98347 0.75151 0.0
H1695 H 0.01707 0.02842 0.75817 0.0
C1696 C 0.63143 0.93192 0.72024 0.0
C1697 C 0.61971 0.96798 0.71419 0.0
C1698 C 0.61532 0.91242 0.74003 0.0
C1699 C 0.58639 0.92919 0.75387 0.0
C1700 C 0.57442 0.96559 0.74778 0.0
C1701 C 0.59153 0.98467 0.72823 0.0
C1702 C 0.62927 0.87391 0.74616 0.0
C1703 C 0.54344 0.98441 0.76186 0.0
C1704 C 0.5194 0.86812 0.79019 0.0
C1705 C 0.53196 0.87332 0.81437 0.0
C1706 C 0.53713 0.88577 0.77027 0.0
C1707 C 0.56844 0.90877 0.77469 0.0
C1708 C 0.58165 0.91336 0.79914 0.0
C1709 C 0.56298 0.89584 0.81874 0.0
C1710 C 0.52174 0.88063 0.74459 0.0
C1711 C 0.61518 0.93719 0.80464 0.0
H1712 H 0.6531 0.91884 0.70937 0.0
H1713 H 0.58298 0.01288 0.72406 0.0
H1714 H 0.63871 0.8729 0.76563 0.0
H1715 H 0.60637 0.85347 0.74421 0.0
H1716 H 0.65266 0.8652 0.73408 0.0
H1717 H 0.53672 0.01238 0.75437 0.0
H1718 H 0.51797 0.96703 0.76121 0.0
H1719 H 0.55134 0.98743 0.78153 0.0
H1720 H 0.49512 0.85094 0.78695 0.0
H1721 H 0.57249 0.89985 0.83753 0.0
H1722 H 0.54368 0.86982 0.73213 0.0
H1723 H 0.51259 0.90788 0.73711 0.0
H1724 H 0.49776 0.86117 0.74419 0.0
H1725 H 0.63919 0.92797 0.79333 0.0
H1726 H 0.62322 0.93615 0.82441 0.0
H1727 H 0.60927 0.96652 0.79963 0.0
C1728 C 0.56231 0.63127 0.22087 0.0
C1729 C 0.52687 0.61895 0.21387 0.0
C1730 C 0.58124 0.61489 0.24083 0.0
C1731 C 0.56454 0.58509 0.25385 0.0
C1732 C 0.5287 0.57263 0.24686 0.0
C1733 C 0.51016 0.59002 0.22719 0.0
C1734 C 0.61913 0.62939 0.24795 0.0
C1735 C 0.51 0.54074 0.26006 0.0
C1736 C 0.62569 0.51779 0.2899 0.0
C1737 C 0.61934 0.5292 0.31421 0.0
C1738 C 0.60836 0.53599 0.27004 0.0
C1739 C 0.58451 0.56663 0.27467 0.0
C1740 C 0.57867 0.57864 0.29927 0.0
C1741 C 0.5959 0.55949 0.31879 0.0
C1742 C 0.61482 0.52186 0.24417 0.0
C1743 C 0.55389 0.61143 0.30499 0.0
H1744 H 0.57538 0.65356 0.21059 0.0
H1745 H 0.48237 0.58102 0.2223 0.0
H1746 H 0.61914 0.63787 0.26763 0.0
H1747 H 0.64019 0.60706 0.24587 0.0
H1748 H 0.62771 0.65357 0.23654 0.0
H1749 H 0.48245 0.53386 0.25198 0.0
H1750 H 0.52788 0.5156 0.25922 0.0
H1751 H 0.50612 0.54773 0.27981 0.0
H1752 H 0.64361 0.49406 0.2865 0.0
H1753 H 0.59103 0.56811 0.33768 0.0
H1754 H 0.62573 0.54454 0.23236 0.0
H1755 H 0.58806 0.51265 0.23601 0.0
H1756 H 0.63471 0.49821 0.24366 0.0
H1757 H 0.56305 0.63614 0.29435 0.0
H1758 H 0.55393 0.61854 0.32493 0.0
H1759 H 0.52492 0.60521 0.2993 0.0
C1760 C 0.8815 0.56666 0.71274 0.0
C1761 C 0.87885 0.52785 0.7126 0.0
C1762 C 0.89956 0.58532 0.73216 0.0
C1763 C 0.91458 0.56459 0.75207 0.0
C1764 C 0.91106 0.52533 0.75217 0.0
C1765 C 0.8935 0.50741 0.73231 0.0
C1766 C 0.90321 0.62711 0.73115 0.0
C1767 C 0.92608 0.50221 0.77318 0.0
C1768 C 0.99259 0.60511 0.79124 0.0
C1769 C 0.97324 0.61729 0.81213 0.0
C1770 C 0.97376 0.58847 0.77138 0.0
C1771 C 0.93467 0.58376 0.77256 0.0
C1772 C 0.915 0.59653 0.79358 0.0
C1773 C 0.93454 0.61343 0.81306 0.0
C1774 C 0.99574 0.57571 0.74922 0.0
C1775 C 0.87343 0.59174 0.79568 0.0
H1776 H 0.87013 0.58231 0.69739 0.0
H1777 H 0.89116 0.47734 0.73214 0.0
H1778 H 0.89054 0.6398 0.74779 0.0
H1779 H 0.93305 0.63495 0.73107 0.0
H1780 H 0.88971 0.63916 0.71453 0.0
H1781 H 0.91976 0.47215 0.77094 0.0
H1782 H 0.95667 0.50564 0.77446 0.0
H1783 H 0.91408 0.5119 0.79091 0.0
H1784 H 0.02251 0.60865 0.79049 0.0
H1785 H 0.91969 0.6231 0.82924 0.0
H1786 H 0.98454 0.58881 0.73224 0.0
H1787 H 0.99296 0.54517 0.74699 0.0
H1788 H 0.02576 0.58262 0.7508 0.0
H1789 H 0.85933 0.60533 0.77987 0.0
H1790 H 0.86222 0.60367 0.81306 0.0
H1791 H 0.8663 0.56174 0.79499 0.0
C1792 C 0.98569 0.90512 0.22814 0.0
C1793 C 0.96826 0.87724 0.21423 0.0
C1794 C 0.96728 0.92259 0.24784 0.0
C1795 C 0.93084 0.91124 0.25427 0.0
C1796 C 0.91337 0.88254 0.24061 0.0
C1797 C 0.93218 0.86612 0.22062 0.0
C1798 C 0.9868 0.95335 0.2617 0.0
C1799 C 0.87482 0.8692 0.24711 0.0
C1800 C 0.89866 0.93531 0.3193 0.0
C1801 C 0.87618 0.96642 0.31499 0.0
C1802 C 0.91588 0.91647 0.29965 0.0
C1803 C 0.91106 0.92963 0.2752 0.0
C1804 C 0.88827 0.96116 0.27086 0.0
C1805 C 0.87086 0.97901 0.29083 0.0
C1806 C 0.93947 0.88269 0.30505 0.0
C1807 C 0.88295 0.97653 0.24519 0.0
H1808 H 0.01392 0.9132 0.2237 0.0
H1809 H 0.91853 0.8447 0.20986 0.0
H1810 H 0.96978 0.9791 0.26114 0.0
H1811 H 0.99008 0.94551 0.28136 0.0
H1812 H 0.01471 0.95958 0.25396 0.0
H1813 H 0.86561 0.84579 0.23521 0.0
H1814 H 0.87405 0.86 0.26663 0.0
H1815 H 0.85463 0.89237 0.2452 0.0
H1816 H 0.90272 0.92578 0.33808 0.0
H1817 H 0.85365 0.00333 0.28765 0.0
H1818 H 0.96873 0.88815 0.2997 0.0
H1819 H 0.92969 0.85868 0.29395 0.0
H1820 H 0.93881 0.87489 0.32487 0.0
H1821 H 0.91022 0.98499 0.23745 0.0
H1822 H 0.86399 0.00094 0.2449 0.0
H1823 H 0.87143 0.95475 0.23288 0.0
loop_
_geom_bond_atom_site_label_1
_geom_bond_atom_site_label_2
_geom_bond_distance
_geom_bond_site_symmetry_2
_ccdc_geom_bond_type
Co0 O3 1.970 . S
Co0 N17 1.989 . S
Co0 O25 1.967 . S
Co0 O32 1.920 . S
Co1 O4 1.966 . S
Co1 N10 2.022 . S
Co1 N18 1.993 . S
Co1 O26 1.941 . S
C2 O3 1.258 . S
C2 O4 1.263 . S
O3 Co0 1.970 . S
O3 C2 1.258 . S
O4 Co1 1.966 . S
O4 C2 1.263 . S
C5 O6 1.235 . S
C5 O32 1.289 . S
O6 C5 1.235 . S
C7 C9 1.400 . S
C7 N10 1.351 . S
C7 C12 1.501 . S
C8 C9 1.387 . S
C8 N11 1.341 . S
C9 C7 1.400 . S
C9 C8 1.387 . S
N10 Co1 2.022 . S
N10 C7 1.351 . S
N10 N11 1.365 . S
N11 C8 1.341 . S
N11 N10 1.365 . S
N11 H31 0.862 . S
C12 C7 1.501 . S
C12 H13 0.961 . S
C12 H14 0.961 . S
C12 H15 0.960 . S
H13 C12 0.961 . S
H14 C12 0.961 . S
H15 C12 0.960 . S
C16 N17 1.342 . S
C16 C20 1.401 . S
C16 C21 1.499 . S
N17 Co0 1.989 . S
N17 C16 1.342 . S
N17 N18 1.388 . S
N18 Co1 1.993 . S
N18 N17 1.388 . S
N18 C19 1.346 . S
C19 N18 1.346 . S
C19 C20 1.396 . S
C19 C29 1.510 . S
C20 C16 1.401 . S
C20 C19 1.396 . S
C21 C16 1.499 . S
C21 H22 0.959 . S
C21 H23 0.960 . S
C21 H24 0.961 . S
H22 C21 0.959 . S
H23 C21 0.960 . S
H24 C21 0.961 . S
O25 Co0 1.967 . S
O25 C33 1.258 . S
O26 Co1 1.941 . S
O26 C33 1.266 . S
H27 C29 0.959 . S
H28 C29 0.961 . S
C29 C19 1.510 . S
C29 H27 0.959 . S
C29 H28 0.961 . S
C29 H30 0.960 . S
H30 C29 0.960 . S
H31 N11 0.862 . S
O32 Co0 1.920 . S
O32 C5 1.289 . S
C33 O25 1.258 . S
C33 O26 1.266 . S
Co34 O37 1.970 . S
Co34 N51 1.989 . S
Co34 O59 1.967 . S
Co34 O66 1.920 . S
Co35 O38 1.966 . S
Co35 N44 2.022 . S
Co35 N52 1.993 . S
Co35 O60 1.941 . S
C36 O37 1.258 . S
C36 O38 1.263 . S
O37 Co34 1.970 . S
O37 C36 1.258 . S
O38 Co35 1.966 . S
O38 C36 1.263 . S
C39 O40 1.235 . S
C39 O66 1.289 . S
O40 C39 1.235 . S
C41 C43 1.400 . S
C41 N44 1.351 . S
C41 C46 1.501 . S
C42 C43 1.387 . S
C42 N45 1.341 . S
C43 C41 1.400 . S
C43 C42 1.387 . S
N44 Co35 2.022 . S
N44 C41 1.351 . S
N44 N45 1.365 . S
N45 C42 1.341 . S
N45 N44 1.365 . S
N45 H65 0.862 . S
C46 C41 1.501 . S
C46 H47 0.961 . S
C46 H48 0.961 . S
C46 H49 0.960 . S
H47 C46 0.961 . S
H48 C46 0.961 . S
H49 C46 0.960 . S
C50 N51 1.342 . S
C50 C54 1.401 . S
C50 C55 1.499 . S
N51 Co34 1.989 . S
N51 C50 1.342 . S
N51 N52 1.388 . S
N52 Co35 1.993 . S
N52 N51 1.388 . S
N52 C53 1.346 . S
C53 N52 1.346 . S
C53 C54 1.396 . S
C53 C63 1.510 . S
C54 C50 1.401 . S
C54 C53 1.396 . S
C55 C50 1.499 . S
C55 H56 0.959 . S
C55 H57 0.960 . S
C55 H58 0.961 . S
H56 C55 0.959 . S
H57 C55 0.960 . S
H58 C55 0.961 . S
O59 Co34 1.967 . S
O59 C67 1.258 . S
O60 Co35 1.941 . S
O60 C67 1.266 . S
H61 C63 0.959 . S
H62 C63 0.961 . S
C63 C53 1.510 . S
C63 H61 0.959 . S
C63 H62 0.961 . S
C63 H64 0.960 . S
H64 C63 0.960 . S
H65 N45 0.862 . S
O66 Co34 1.920 . S
O66 C39 1.289 . S
C67 O59 1.258 . S
C67 O60 1.266 . S
Co68 O71 1.970 . S
Co68 N85 1.989 1_655 S
Co68 O93 1.967 . S
Co68 O100 1.920 . S
Co69 O72 1.966 . S
Co69 N78 2.022 . S
Co69 N86 1.993 1_655 S
Co69 O94 1.941 . S
C70 O71 1.258 . S
C70 O72 1.263 . S
O71 Co68 1.970 . S
O71 C70 1.258 . S
O72 Co69 1.966 . S
O72 C70 1.263 . S
C73 O74 1.235 . S
C73 O100 1.289 1_455 S
O74 C73 1.235 . S
C75 C77 1.400 . S
C75 N78 1.351 . S
C75 C80 1.501 1_655 S
C76 C77 1.387 . S
C76 N79 1.341 . S
C77 C75 1.400 . S
C77 C76 1.387 . S
N78 Co69 2.022 . S
N78 C75 1.351 . S
N78 N79 1.365 . S
N79 C76 1.341 . S
N79 N78 1.365 . S
N79 H99 0.862 . S
C80 C75 1.501 1_455 S
C80 H81 0.958 1_455 S
C80 H82 0.961 . S
C80 H83 0.960 1_455 S
H81 C80 0.958 1_655 S
H82 C80 0.961 . S
H83 C80 0.960 1_655 S
C84 N85 1.342 . S
C84 C88 1.401 . S
C84 C89 1.499 . S
N85 Co68 1.989 1_455 S
N85 C84 1.342 . S
N85 N86 1.388 . S
N86 Co69 1.993 1_455 S
N86 N85 1.388 . S
N86 C87 1.346 . S
C87 N86 1.346 . S
C87 C88 1.396 . S
C87 C97 1.510 . S
C88 C84 1.401 . S
C88 C87 1.396 . S
C89 C84 1.499 . S
C89 H90 0.959 . S
C89 H91 0.960 . S
C89 H92 0.961 . S
H90 C89 0.959 . S
H91 C89 0.960 . S
H92 C89 0.961 . S
O93 Co68 1.967 . S
O93 C101 1.258 . S
O94 Co69 1.941 . S
O94 C101 1.266 . S
H95 C97 0.959 . S
H96 C97 0.961 . S
C97 C87 1.510 . S
C97 H95 0.959 . S
C97 H96 0.961 . S
C97 H98 0.960 . S
H98 C97 0.960 . S
H99 N79 0.862 . S
O100 Co68 1.920 . S
O100 C73 1.289 1_655 S
C101 O93 1.258 . S
C101 O94 1.266 . S
Co102 O105 1.970 . S
Co102 N119 1.989 1_565 S
Co102 O127 1.967 . S
Co102 O134 1.920 . S
Co103 O106 1.966 . S
Co103 N112 2.022 . S
Co103 N120 1.993 1_565 S
Co103 O128 1.941 . S
C104 O105 1.258 . S
C104 O106 1.263 . S
O105 Co102 1.970 . S
O105 C104 1.258 . S
O106 Co103 1.966 . S
O106 C104 1.263 . S
C107 O108 1.235 . S
C107 O134 1.289 1_545 S
O108 C107 1.235 . S
C109 C111 1.400 . S
C109 N112 1.351 . S
C109 C114 1.501 1_565 S
C110 C111 1.387 . S
C110 N113 1.341 . S
C111 C109 1.400 . S
C111 C110 1.387 . S
N112 Co103 2.022 . S
N112 C109 1.351 . S
N112 N113 1.365 . S
N113 C110 1.341 . S
N113 N112 1.365 . S
N113 H133 0.862 . S
C114 C109 1.501 1_545 S
C114 H115 0.958 1_545 S
C114 H116 0.961 . S
C114 H117 0.960 1_545 S
H115 C114 0.958 1_565 S
H116 C114 0.961 . S
H117 C114 0.960 1_565 S
C118 N119 1.342 . S
C118 C122 1.401 . S
C118 C123 1.499 . S
N119 Co102 1.989 1_545 S
N119 C118 1.342 . S
N119 N120 1.388 . S
N120 Co103 1.993 1_545 S
N120 N119 1.388 . S
N120 C121 1.346 . S
C121 N120 1.346 . S
C121 C122 1.396 . S
C121 C131 1.510 . S
C122 C118 1.401 . S
C122 C121 1.396 . S
C123 C118 1.499 . S
C123 H124 0.959 . S
C123 H125 0.960 . S
C123 H126 0.961 . S
H124 C123 0.959 . S
H125 C123 0.960 . S
H126 C123 0.961 . S
O127 Co102 1.967 . S
O127 C135 1.258 . S
O128 Co103 1.941 . S
O128 C135 1.266 . S
H129 C131 0.959 . S
H130 C131 0.961 . S
C131 C121 1.510 . S
C131 H129 0.959 . S
C131 H130 0.961 . S
C131 H132 0.960 . S
H132 C131 0.960 . S
H133 N113 0.862 . S
O134 Co102 1.920 . S
O134 C107 1.289 1_565 S
C135 O127 1.258 . S
C135 O128 1.266 . S
Co136 O139 1.970 . S
Co136 N153 1.989 . S
Co136 O161 1.967 . S
Co136 O168 1.920 . S
Co137 O140 1.966 . S
Co137 N146 2.022 . S
Co137 N154 1.993 . S
Co137 O162 1.941 . S
C138 O139 1.258 . S
C138 O140 1.263 . S
O139 Co136 1.970 . S
O139 C138 1.258 . S
O140 Co137 1.966 . S
O140 C138 1.263 . S
C141 O142 1.235 . S
C141 O168 1.289 . S
O142 C141 1.235 . S
C143 C145 1.400 . S
C143 N146 1.351 . S
C143 C148 1.501 . S
C144 C145 1.387 . S
C144 N147 1.341 . S
C145 C143 1.400 . S
C145 C144 1.387 . S
N146 Co137 2.022 . S
N146 C143 1.351 . S
N146 N147 1.365 . S
N147 C144 1.341 . S
N147 N146 1.365 . S
N147 H167 0.862 . S
C148 C143 1.501 . S
C148 H149 0.961 . S
C148 H150 0.961 . S
C148 H151 0.960 . S
H149 C148 0.961 . S
H150 C148 0.961 . S
H151 C148 0.960 . S
C152 N153 1.342 . S
C152 C156 1.401 . S
C152 C157 1.499 . S
N153 Co136 1.989 . S
N153 C152 1.342 . S
N153 N154 1.388 . S
N154 Co137 1.993 . S
N154 N153 1.388 . S
N154 C155 1.346 . S
C155 N154 1.346 . S
C155 C156 1.396 . S
C155 C165 1.510 . S
C156 C152 1.401 . S
C156 C155 1.396 . S
C157 C152 1.499 . S
C157 H158 0.959 . S
C157 H159 0.960 . S
C157 H160 0.961 . S
H158 C157 0.959 . S
H159 C157 0.960 . S
H160 C157 0.961 . S
O161 Co136 1.967 . S
O161 C169 1.258 . S
O162 Co137 1.941 . S
O162 C169 1.266 . S
H163 C165 0.959 . S
H164 C165 0.961 . S
C165 C155 1.510 . S
C165 H163 0.959 . S
C165 H164 0.961 . S
C165 H166 0.960 . S
H166 C165 0.960 . S
H167 N147 0.862 . S
O168 Co136 1.920 . S
O168 C141 1.289 . S
C169 O161 1.258 . S
C169 O162 1.266 . S
Co170 O173 1.970 . S
Co170 N187 1.989 . S
Co170 O195 1.967 . S
Co170 O202 1.920 . S
Co171 O174 1.966 . S
Co171 N180 2.022 . S
Co171 N188 1.993 . S
Co171 O196 1.941 . S
C172 O173 1.258 . S
C172 O174 1.263 . S
O173 Co170 1.970 . S
O173 C172 1.258 . S
O174 Co171 1.966 . S
O174 C172 1.263 . S
C175 O176 1.235 . S
C175 O202 1.289 . S
O176 C175 1.235 . S
C177 C179 1.400 . S
C177 N180 1.351 . S
C177 C182 1.501 . S
C178 C179 1.387 . S
C178 N181 1.341 . S
C179 C177 1.400 . S
C179 C178 1.387 . S
N180 Co171 2.022 . S
N180 C177 1.351 . S
N180 N181 1.365 . S
N181 C178 1.341 . S
N181 N180 1.365 . S
N181 H201 0.862 . S
C182 C177 1.501 . S
C182 H183 0.961 . S
C182 H184 0.961 . S
C182 H185 0.960 . S
H183 C182 0.961 . S
H184 C182 0.961 . S
H185 C182 0.960 . S
C186 N187 1.342 . S
C186 C190 1.401 . S
C186 C191 1.499 . S
N187 Co170 1.989 . S
N187 C186 1.342 . S
N187 N188 1.388 . S
N188 Co171 1.993 . S
N188 N187 1.388 . S
N188 C189 1.346 . S
C189 N188 1.346 . S
C189 C190 1.396 . S
C189 C199 1.510 . S
C190 C186 1.401 . S
C190 C189 1.396 . S
C191 C186 1.499 . S
C191 H192 0.959 . S
C191 H193 0.960 . S
C191 H194 0.961 . S
H192 C191 0.959 . S
H193 C191 0.960 . S
H194 C191 0.961 . S
O195 Co170 1.967 . S
O195 C203 1.258 . S
O196 Co171 1.941 . S
O196 C203 1.266 . S
H197 C199 0.959 . S
H198 C199 0.961 . S
C199 C189 1.510 . S
C199 H197 0.959 . S
C199 H198 0.961 . S
C199 H200 0.960 . S
H200 C199 0.960 . S
H201 N181 0.862 . S
O202 Co170 1.920 . S
O202 C175 1.289 . S
C203 O195 1.258 . S
C203 O196 1.266 . S
Co204 O207 1.970 . S
Co204 N221 1.989 1_655 S
Co204 O229 1.967 . S
Co204 O236 1.920 . S
Co205 O208 1.966 . S
Co205 N214 2.022 . S
Co205 N222 1.993 1_655 S
Co205 O230 1.941 . S
C206 O207 1.258 . S
C206 O208 1.263 . S
O207 Co204 1.970 . S
O207 C206 1.258 . S
O208 Co205 1.966 . S
O208 C206 1.263 . S
C209 O210 1.235 . S
C209 O236 1.289 1_455 S
O210 C209 1.235 . S
C211 C213 1.400 . S
C211 N214 1.351 . S
C211 C216 1.501 1_655 S
C212 C213 1.387 . S
C212 N215 1.341 . S
C213 C211 1.400 . S
C213 C212 1.387 . S
N214 Co205 2.022 . S
N214 C211 1.351 . S
N214 N215 1.365 . S
N215 C212 1.341 . S
N215 N214 1.365 . S
N215 H235 0.862 . S
C216 C211 1.501 1_455 S
C216 H217 0.958 1_455 S
C216 H218 0.961 . S
C216 H219 0.960 1_455 S
H217 C216 0.958 1_655 S
H218 C216 0.961 . S
H219 C216 0.960 1_655 S
C220 N221 1.342 . S
C220 C224 1.401 . S
C220 C225 1.499 . S
N221 Co204 1.989 1_455 S
N221 C220 1.342 . S
N221 N222 1.388 . S
N222 Co205 1.993 1_455 S
N222 N221 1.388 . S
N222 C223 1.346 . S
C223 N222 1.346 . S
C223 C224 1.396 . S
C223 C233 1.510 . S
C224 C220 1.401 . S
C224 C223 1.396 . S
C225 C220 1.499 . S
C225 H226 0.959 . S
C225 H227 0.960 . S
C225 H228 0.961 . S
H226 C225 0.959 . S
H227 C225 0.960 . S
H228 C225 0.961 . S
O229 Co204 1.967 . S
O229 C237 1.258 . S
O230 Co205 1.941 . S
O230 C237 1.266 . S
H231 C233 0.959 . S
H232 C233 0.961 . S
C233 C223 1.510 . S
C233 H231 0.959 . S
C233 H232 0.961 . S
C233 H234 0.960 . S
H234 C233 0.960 . S
H235 N215 0.862 . S
O236 Co204 1.920 . S
O236 C209 1.289 1_655 S
C237 O229 1.258 . S
C237 O230 1.266 . S
Co238 O241 1.970 . S
Co238 N255 1.989 1_565 S
Co238 O263 1.967 . S
Co238 O270 1.920 . S
Co239 O242 1.966 . S
Co239 N248 2.022 . S
Co239 N256 1.993 1_565 S
Co239 O264 1.941 . S
C240 O241 1.258 . S
C240 O242 1.263 . S
O241 Co238 1.970 . S
O241 C240 1.258 . S
O242 Co239 1.966 . S
O242 C240 1.263 . S
C243 O244 1.235 . S
C243 O270 1.289 1_545 S
O244 C243 1.235 . S
C245 C247 1.400 . S
C245 N248 1.351 . S
C245 C250 1.501 1_565 S
C246 C247 1.387 . S
C246 N249 1.341 . S
C247 C245 1.400 . S
C247 C246 1.387 . S
N248 Co239 2.022 . S
N248 C245 1.351 . S
N248 N249 1.365 . S
N249 C246 1.341 . S
N249 N248 1.365 . S
N249 H269 0.862 . S
C250 C245 1.501 1_545 S
C250 H251 0.958 1_545 S
C250 H252 0.961 . S
C250 H253 0.960 1_545 S
H251 C250 0.958 1_565 S
H252 C250 0.961 . S
H253 C250 0.960 1_565 S
C254 N255 1.342 . S
C254 C258 1.401 . S
C254 C259 1.499 . S
N255 Co238 1.989 1_545 S
N255 C254 1.342 . S
N255 N256 1.388 . S
N256 Co239 1.993 1_545 S
N256 N255 1.388 . S
N256 C257 1.346 . S
C257 N256 1.346 . S
C257 C258 1.396 . S
C257 C267 1.510 . S
C258 C254 1.401 . S
C258 C257 1.396 . S
C259 C254 1.499 . S
C259 H260 0.959 . S
C259 H261 0.960 . S
C259 H262 0.961 . S
H260 C259 0.959 . S
H261 C259 0.960 . S
H262 C259 0.961 . S
O263 Co238 1.967 . S
O263 C271 1.258 . S
O264 Co239 1.941 . S
O264 C271 1.266 . S
H265 C267 0.959 . S
H266 C267 0.961 . S
C267 C257 1.510 . S
C267 H265 0.959 . S
C267 H266 0.961 . S
C267 H268 0.960 . S
H268 C267 0.960 . S
H269 N249 0.862 . S
O270 Co238 1.920 . S
O270 C243 1.289 1_565 S
C271 O263 1.258 . S
C271 O264 1.266 . S
Co272 O275 1.970 . S
Co272 N289 1.989 . S
Co272 O297 1.967 . S
Co272 O304 1.920 . S
Co273 O276 1.966 . S
Co273 N282 2.022 . S
Co273 N290 1.993 . S
Co273 O298 1.941 . S
C274 O275 1.258 . S
C274 O276 1.263 . S
O275 Co272 1.970 . S
O275 C274 1.258 . S
O276 Co273 1.966 . S
O276 C274 1.263 . S
C277 O278 1.235 . S
C277 O304 1.289 . S
O278 C277 1.235 . S
C279 C281 1.400 . S
C279 N282 1.351 . S
C279 C284 1.501 . S
C280 C281 1.387 . S
C280 N283 1.341 . S
C281 C279 1.400 . S
C281 C280 1.387 . S
N282 Co273 2.022 . S
N282 C279 1.351 . S
N282 N283 1.365 . S
N283 C280 1.341 . S
N283 N282 1.365 . S
N283 H303 0.862 . S
C284 C279 1.501 . S
C284 H285 0.961 . S
C284 H286 0.961 . S
C284 H287 0.960 . S
H285 C284 0.961 . S
H286 C284 0.961 . S
H287 C284 0.960 . S
C288 N289 1.342 . S
C288 C292 1.401 . S
C288 C293 1.499 . S
N289 Co272 1.989 . S
N289 C288 1.342 . S
N289 N290 1.388 . S
N290 Co273 1.993 . S
N290 N289 1.388 . S
N290 C291 1.346 . S
C291 N290 1.346 . S
C291 C292 1.396 . S
C291 C301 1.510 . S
C292 C288 1.401 . S
C292 C291 1.396 . S
C293 C288 1.499 . S
C293 H294 0.959 . S
C293 H295 0.960 . S
C293 H296 0.961 . S
H294 C293 0.959 . S
H295 C293 0.960 . S
H296 C293 0.961 . S
O297 Co272 1.967 . S
O297 C305 1.258 . S
O298 Co273 1.941 . S
O298 C305 1.266 . S
H299 C301 0.959 . S
H300 C301 0.961 . S
C301 C291 1.510 . S
C301 H299 0.959 . S
C301 H300 0.961 . S
C301 H302 0.960 . S
H302 C301 0.960 . S
H303 N283 0.862 . S
O304 Co272 1.920 . S
O304 C277 1.289 . S
C305 O297 1.258 . S
C305 O298 1.266 . S
Co306 O309 1.970 . S
Co306 N323 1.989 . S
Co306 O331 1.967 . S
Co306 O338 1.920 . S
Co307 O310 1.966 . S
Co307 N316 2.022 . S
Co307 N324 1.993 . S
Co307 O332 1.941 . S
C308 O309 1.258 . S
C308 O310 1.263 . S
O309 Co306 1.970 . S
O309 C308 1.258 . S
O310 Co307 1.966 . S
O310 C308 1.263 . S
C311 O312 1.235 . S
C311 O338 1.289 . S
O312 C311 1.235 . S
C313 C315 1.400 . S
C313 N316 1.351 . S
C313 C318 1.501 . S
C314 C315 1.387 . S
C314 N317 1.341 . S
C315 C313 1.400 . S
C315 C314 1.387 . S
N316 Co307 2.022 . S
N316 C313 1.351 . S
N316 N317 1.365 . S
N317 C314 1.341 . S
N317 N316 1.365 . S
N317 H337 0.862 . S
C318 C313 1.501 . S
C318 H319 0.961 . S
C318 H320 0.961 . S
C318 H321 0.960 . S
H319 C318 0.961 . S
H320 C318 0.961 . S
H321 C318 0.960 . S
C322 N323 1.342 . S
C322 C326 1.401 . S
C322 C327 1.499 . S
N323 Co306 1.989 . S
N323 C322 1.342 . S
N323 N324 1.388 . S
N324 Co307 1.993 . S
N324 N323 1.388 . S
N324 C325 1.346 . S
C325 N324 1.346 . S
C325 C326 1.396 . S
C325 C335 1.510 . S
C326 C322 1.401 . S
C326 C325 1.396 . S
C327 C322 1.499 . S
C327 H328 0.959 . S
C327 H329 0.960 . S
C327 H330 0.961 . S
H328 C327 0.959 . S
H329 C327 0.960 . S
H330 C327 0.961 . S
O331 Co306 1.967 . S
O331 C339 1.258 . S
O332 Co307 1.941 . S
O332 C339 1.266 . S
H333 C335 0.959 . S
H334 C335 0.961 . S
C335 C325 1.510 . S
C335 H333 0.959 . S
C335 H334 0.961 . S
C335 H336 0.960 . S
H336 C335 0.960 . S
H337 N317 0.862 . S
O338 Co306 1.920 . S
O338 C311 1.289 . S
C339 O331 1.258 . S
C339 O332 1.266 . S
Co340 O343 1.970 . S
Co340 N357 1.989 1_455 S
Co340 O365 1.967 . S
Co340 O372 1.920 . S
Co341 O344 1.966 . S
Co341 N350 2.022 . S
Co341 N358 1.993 1_455 S
Co341 O366 1.941 . S
C342 O343 1.258 . S
C342 O344 1.263 . S
O343 Co340 1.970 . S
O343 C342 1.258 . S
O344 Co341 1.966 . S
O344 C342 1.263 . S
C345 O346 1.235 . S
C345 O372 1.289 1_655 S
O346 C345 1.235 . S
C347 C349 1.400 . S
C347 N350 1.351 . S
C347 C352 1.501 1_455 S
C348 C349 1.387 . S
C348 N351 1.341 . S
C349 C347 1.400 . S
C349 C348 1.387 . S
N350 Co341 2.022 . S
N350 C347 1.351 . S
N350 N351 1.365 . S
N351 C348 1.341 . S
N351 N350 1.365 . S
N351 H371 0.862 . S
C352 C347 1.501 1_655 S
C352 H353 0.958 1_655 S
C352 H354 0.961 . S
C352 H355 0.960 1_655 S
H353 C352 0.958 1_455 S
H354 C352 0.961 . S
H355 C352 0.960 1_455 S
C356 N357 1.342 . S
C356 C360 1.401 . S
C356 C361 1.499 . S
N357 Co340 1.989 1_655 S
N357 C356 1.342 . S
N357 N358 1.388 . S
N358 Co341 1.993 1_655 S
N358 N357 1.388 . S
N358 C359 1.346 . S
C359 N358 1.346 . S
C359 C360 1.396 . S
C359 C369 1.510 . S
C360 C356 1.401 . S
C360 C359 1.396 . S
C361 C356 1.499 . S
C361 H362 0.959 . S
C361 H363 0.960 . S
C361 H364 0.961 . S
H362 C361 0.959 . S
H363 C361 0.960 . S
H364 C361 0.961 . S
O365 Co340 1.967 . S
O365 C373 1.258 . S
O366 Co341 1.941 . S
O366 C373 1.266 . S
H367 C369 0.959 . S
H368 C369 0.961 . S
C369 C359 1.510 . S
C369 H367 0.959 . S
C369 H368 0.961 . S
C369 H370 0.960 . S
H370 C369 0.960 . S
H371 N351 0.862 . S
O372 Co340 1.920 . S
O372 C345 1.289 1_455 S
C373 O365 1.258 . S
C373 O366 1.266 . S
Co374 O377 1.970 . S
Co374 N391 1.989 1_545 S
Co374 O399 1.967 . S
Co374 O406 1.920 . S
Co375 O378 1.966 . S
Co375 N384 2.022 . S
Co375 N392 1.993 1_545 S
Co375 O400 1.941 . S
C376 O377 1.258 . S
C376 O378 1.263 . S
O377 Co374 1.970 . S
O377 C376 1.258 . S
O378 Co375 1.966 . S
O378 C376 1.263 . S
C379 O380 1.235 . S
C379 O406 1.289 1_565 S
O380 C379 1.235 . S
C381 C383 1.400 . S
C381 N384 1.351 . S
C381 C386 1.501 1_545 S
C382 C383 1.387 . S
C382 N385 1.341 . S
C383 C381 1.400 . S
C383 C382 1.387 . S
N384 Co375 2.022 . S
N384 C381 1.351 . S
N384 N385 1.365 . S
N385 C382 1.341 . S
N385 N384 1.365 . S
N385 H405 0.862 . S
C386 C381 1.501 1_565 S
C386 H387 0.958 1_565 S
C386 H388 0.961 . S
C386 H389 0.960 1_565 S
H387 C386 0.958 1_545 S
H388 C386 0.961 . S
H389 C386 0.960 1_545 S
C390 N391 1.342 . S
C390 C394 1.401 . S
C390 C395 1.499 . S
N391 Co374 1.989 1_565 S
N391 C390 1.342 . S
N391 N392 1.388 . S
N392 Co375 1.993 1_565 S
N392 N391 1.388 . S
N392 C393 1.346 . S
C393 N392 1.346 . S
C393 C394 1.396 . S
C393 C403 1.510 . S
C394 C390 1.401 . S
C394 C393 1.396 . S
C395 C390 1.499 . S
C395 H396 0.959 . S
C395 H397 0.960 . S
C395 H398 0.961 . S
H396 C395 0.959 . S
H397 C395 0.960 . S
H398 C395 0.961 . S
O399 Co374 1.967 . S
O399 C407 1.258 . S
O400 Co375 1.941 . S
O400 C407 1.266 . S
H401 C403 0.959 . S
H402 C403 0.961 . S
C403 C393 1.510 . S
C403 H401 0.959 . S
C403 H402 0.961 . S
C403 H404 0.960 . S
H404 C403 0.960 . S
H405 N385 0.862 . S
O406 Co374 1.920 . S
O406 C379 1.289 1_545 S
C407 O399 1.258 . S
C407 O400 1.266 . S
Co408 O411 1.970 . S
Co408 N425 1.989 . S
Co408 O433 1.967 . S
Co408 O440 1.920 . S
Co409 O412 1.966 . S
Co409 N418 2.022 . S
Co409 N426 1.993 . S
Co409 O434 1.941 . S
C410 O411 1.258 . S
C410 O412 1.263 . S
O411 Co408 1.970 . S
O411 C410 1.258 . S
O412 Co409 1.966 . S
O412 C410 1.263 . S
C413 O414 1.235 . S
C413 O440 1.289 . S
O414 C413 1.235 . S
C415 C417 1.400 . S
C415 N418 1.351 . S
C415 C420 1.501 . S
C416 C417 1.387 . S
C416 N419 1.341 . S
C417 C415 1.400 . S
C417 C416 1.387 . S
N418 Co409 2.022 . S
N418 C415 1.351 . S
N418 N419 1.365 . S
N419 C416 1.341 . S
N419 N418 1.365 . S
N419 H439 0.862 . S
C420 C415 1.501 . S
C420 H421 0.961 . S
C420 H422 0.961 . S
C420 H423 0.960 . S
H421 C420 0.961 . S
H422 C420 0.961 . S
H423 C420 0.960 . S
C424 N425 1.342 . S
C424 C428 1.401 . S
C424 C429 1.499 . S
N425 Co408 1.989 . S
N425 C424 1.342 . S
N425 N426 1.388 . S
N426 Co409 1.993 . S
N426 N425 1.388 . S
N426 C427 1.346 . S
C427 N426 1.346 . S
C427 C428 1.396 . S
C427 C437 1.510 . S
C428 C424 1.401 . S
C428 C427 1.396 . S
C429 C424 1.499 . S
C429 H430 0.959 . S
C429 H431 0.960 . S
C429 H432 0.961 . S
H430 C429 0.959 . S
H431 C429 0.960 . S
H432 C429 0.961 . S
O433 Co408 1.967 . S
O433 C441 1.258 . S
O434 Co409 1.941 . S
O434 C441 1.266 . S
H435 C437 0.959 . S
H436 C437 0.961 . S
C437 C427 1.510 . S
C437 H435 0.959 . S
C437 H436 0.961 . S
C437 H438 0.960 . S
H438 C437 0.960 . S
H439 N419 0.862 . S
O440 Co408 1.920 . S
O440 C413 1.289 . S
C441 O433 1.258 . S
C441 O434 1.266 . S
Co442 O445 1.970 . S
Co442 N459 1.989 . S
Co442 O467 1.967 . S
Co442 O474 1.920 . S
Co443 O446 1.966 . S
Co443 N452 2.022 . S
Co443 N460 1.993 . S
Co443 O468 1.941 . S
C444 O445 1.258 . S
C444 O446 1.263 . S
O445 Co442 1.970 . S
O445 C444 1.258 . S
O446 Co443 1.966 . S
O446 C444 1.263 . S
C447 O448 1.235 . S
C447 O474 1.289 . S
O448 C447 1.235 . S
C449 C451 1.400 . S
C449 N452 1.351 . S
C449 C454 1.501 . S
C450 C451 1.387 . S
C450 N453 1.341 . S
C451 C449 1.400 . S
C451 C450 1.387 . S
N452 Co443 2.022 . S
N452 C449 1.351 . S
N452 N453 1.365 . S
N453 C450 1.341 . S
N453 N452 1.365 . S
N453 H473 0.862 . S
C454 C449 1.501 . S
C454 H455 0.961 . S
C454 H456 0.961 . S
C454 H457 0.960 . S
H455 C454 0.961 . S
H456 C454 0.961 . S
H457 C454 0.960 . S
C458 N459 1.342 . S
C458 C462 1.401 . S
C458 C463 1.499 . S
N459 Co442 1.989 . S
N459 C458 1.342 . S
N459 N460 1.388 . S
N460 Co443 1.993 . S
N460 N459 1.388 . S
N460 C461 1.346 . S
C461 N460 1.346 . S
C461 C462 1.396 . S
C461 C471 1.510 . S
C462 C458 1.401 . S
C462 C461 1.396 . S
C463 C458 1.499 . S
C463 H464 0.959 . S
C463 H465 0.960 . S
C463 H466 0.961 . S
H464 C463 0.959 . S
H465 C463 0.960 . S
H466 C463 0.961 . S
O467 Co442 1.967 . S
O467 C475 1.258 . S
O468 Co443 1.941 . S
O468 C475 1.266 . S
H469 C471 0.959 . S
H470 C471 0.961 . S
C471 C461 1.510 . S
C471 H469 0.959 . S
C471 H470 0.961 . S
C471 H472 0.960 . S
H472 C471 0.960 . S
H473 N453 0.862 . S
O474 Co442 1.920 . S
O474 C447 1.289 . S
C475 O467 1.258 . S
C475 O468 1.266 . S
Co476 O479 1.970 . S
Co476 N493 1.989 1_455 S
Co476 O501 1.967 . S
Co476 O508 1.920 . S
Co477 O480 1.966 . S
Co477 N486 2.022 . S
Co477 N494 1.993 1_455 S
Co477 O502 1.941 . S
C478 O479 1.258 . S
C478 O480 1.263 . S
O479 Co476 1.970 . S
O479 C478 1.258 . S
O480 Co477 1.966 . S
O480 C478 1.263 . S
C481 O482 1.235 . S
C481 O508 1.289 1_655 S
O482 C481 1.235 . S
C483 C485 1.400 . S
C483 N486 1.351 . S
C483 C488 1.501 1_455 S
C484 C485 1.387 . S
C484 N487 1.341 . S
C485 C483 1.400 . S
C485 C484 1.387 . S
N486 Co477 2.022 . S
N486 C483 1.351 . S
N486 N487 1.365 . S
N487 C484 1.341 . S
N487 N486 1.365 . S
N487 H507 0.862 . S
C488 C483 1.501 1_655 S
C488 H489 0.958 1_655 S
C488 H490 0.961 . S
C488 H491 0.960 1_655 S
H489 C488 0.958 1_455 S
H490 C488 0.961 . S
H491 C488 0.960 1_455 S
C492 N493 1.342 . S
C492 C496 1.401 . S
C492 C497 1.499 . S
N493 Co476 1.989 1_655 S
N493 C492 1.342 . S
N493 N494 1.388 . S
N494 Co477 1.993 1_655 S
N494 N493 1.388 . S
N494 C495 1.346 . S
C495 N494 1.346 . S
C495 C496 1.396 . S
C495 C505 1.510 . S
C496 C492 1.401 . S
C496 C495 1.396 . S
C497 C492 1.499 . S
C497 H498 0.959 . S
C497 H499 0.960 . S
C497 H500 0.961 . S
H498 C497 0.959 . S
H499 C497 0.960 . S
H500 C497 0.961 . S
O501 Co476 1.967 . S
O501 C509 1.258 . S
O502 Co477 1.941 . S
O502 C509 1.266 . S
H503 C505 0.959 . S
H504 C505 0.961 . S
C505 C495 1.510 . S
C505 H503 0.959 . S
C505 H504 0.961 . S
C505 H506 0.960 . S
H506 C505 0.960 . S
H507 N487 0.862 . S
O508 Co476 1.920 . S
O508 C481 1.289 1_455 S
C509 O501 1.258 . S
C509 O502 1.266 . S
Co510 O513 1.970 . S
Co510 N527 1.989 1_545 S
Co510 O535 1.967 . S
Co510 O542 1.920 . S
Co511 O514 1.966 . S
Co511 N520 2.022 . S
Co511 N528 1.993 1_545 S
Co511 O536 1.941 . S
C512 O513 1.258 . S
C512 O514 1.263 . S
O513 Co510 1.970 . S
O513 C512 1.258 . S
O514 Co511 1.966 . S
O514 C512 1.263 . S
C515 O516 1.235 . S
C515 O542 1.289 1_565 S
O516 C515 1.235 . S
C517 C519 1.400 . S
C517 N520 1.351 . S
C517 C522 1.501 1_545 S
C518 C519 1.387 . S
C518 N521 1.341 . S
C519 C517 1.400 . S
C519 C518 1.387 . S
N520 Co511 2.022 . S
N520 C517 1.351 . S
N520 N521 1.365 . S
N521 C518 1.341 . S
N521 N520 1.365 . S
N521 H541 0.862 . S
C522 C517 1.501 1_565 S
C522 H523 0.958 1_565 S
C522 H524 0.961 . S
C522 H525 0.960 1_565 S
H523 C522 0.958 1_545 S
H524 C522 0.961 . S
H525 C522 0.960 1_545 S
C526 N527 1.342 . S
C526 C530 1.401 . S
C526 C531 1.499 . S
N527 Co510 1.989 1_565 S
N527 C526 1.342 . S
N527 N528 1.388 . S
N528 Co511 1.993 1_565 S
N528 N527 1.388 . S
N528 C529 1.346 . S
C529 N528 1.346 . S
C529 C530 1.396 . S
C529 C539 1.510 . S
C530 C526 1.401 . S
C530 C529 1.396 . S
C531 C526 1.499 . S
C531 H532 0.959 . S
C531 H533 0.960 . S
C531 H534 0.961 . S
H532 C531 0.959 . S
H533 C531 0.960 . S
H534 C531 0.961 . S
O535 Co510 1.967 . S
O535 C543 1.258 . S
O536 Co511 1.941 . S
O536 C543 1.266 . S
H537 C539 0.959 . S
H538 C539 0.961 . S
C539 C529 1.510 . S
C539 H537 0.959 . S
C539 H538 0.961 . S
C539 H540 0.960 . S
H540 C539 0.960 . S
H541 N521 0.862 . S
O542 Co510 1.920 . S
O542 C515 1.289 1_545 S
C543 O535 1.258 . S
C543 O536 1.266 . S
C544 C545 1.391 . S
C544 C546 1.394 . S
C544 H560 0.931 . S
C545 C544 1.391 . S
C545 C549 1.376 . S
C546 C544 1.394 . S
C546 C547 1.369 . S
C546 C550 1.531 . S
C547 C546 1.369 . S
C547 C548 1.410 . S
C547 C555 1.503 1_554 S
C548 C547 1.410 . S
C548 C549 1.392 . S
C548 C551 1.511 . S
C549 C545 1.376 . S
C549 C548 1.392 . S
C549 H561 0.929 . S
C550 C546 1.531 . S
C550 H562 0.960 1_554 S
C550 H563 0.962 . S
C550 H564 0.960 . S
C551 C548 1.511 . S
C551 H565 0.961 . S
C551 H566 0.928 1_554 S
C551 H567 0.961 . S
C552 C553 1.370 . S
C552 C554 1.363 . S
C552 H568 0.931 . S
C553 C552 1.370 . S
C553 C557 1.408 . S
C554 C552 1.363 . S
C554 C555 1.370 . S
C554 C558 1.513 1_556 S
C555 C547 1.503 1_556 S
C555 C554 1.370 . S
C555 C556 1.403 . S
C556 C555 1.403 . S
C556 C557 1.404 . S
C556 C559 1.539 . S
C557 C553 1.408 . S
C557 C556 1.404 . S
C557 H569 0.930 . S
C558 C554 1.513 1_554 S
C558 H570 0.963 . S
C558 H571 0.970 . S
C558 H572 0.955 1_554 S
C559 C556 1.539 . S
C559 H573 0.958 . S
C559 H574 0.961 . S
C559 H575 0.960 . S
H560 C544 0.931 . S
H561 C549 0.929 . S
H562 C550 0.960 1_556 S
H563 C550 0.962 . S
H564 C550 0.960 . S
H565 C551 0.961 . S
H566 C551 0.928 1_556 S
H567 C551 0.961 . S
H568 C552 0.931 . S
H569 C557 0.930 . S
H570 C558 0.963 . S
H571 C558 0.970 . S
H572 C558 0.955 1_556 S
H573 C559 0.958 . S
H574 C559 0.961 . S
H575 C559 0.960 . S
C576 C577 1.391 . S
C576 C578 1.394 . S
C576 H592 0.931 . S
C577 C576 1.391 . S
C577 C581 1.376 . S
C578 C576 1.394 . S
C578 C579 1.369 . S
C578 C582 1.531 . S
C579 C578 1.369 . S
C579 C580 1.410 . S
C579 C587 1.503 . S
C580 C579 1.410 . S
C580 C581 1.392 . S
C580 C583 1.511 . S
C581 C577 1.376 . S
C581 C580 1.392 . S
C581 H593 0.929 . S
C582 C578 1.531 . S
C582 H594 0.960 . S
C582 H595 0.962 . S
C582 H596 0.960 . S
C583 C580 1.511 . S
C583 H597 0.961 . S
C583 H598 0.961 . S
C583 H599 0.961 . S
C584 C585 1.370 . S
C584 C586 1.363 . S
C584 H600 0.931 . S
C585 C584 1.370 . S
C585 C589 1.408 . S
C586 C584 1.363 . S
C586 C587 1.370 . S
C586 C590 1.524 . S
C587 C579 1.503 . S
C587 C586 1.370 . S
C587 C588 1.403 . S
C588 C587 1.403 . S
C588 C589 1.404 . S
C588 C591 1.539 . S
C589 C585 1.408 . S
C589 C588 1.404 . S
C589 H601 0.930 . S
C590 C586 1.524 . S
C590 H602 0.956 . S
C590 H603 0.961 . S
C590 H604 0.961 . S
C591 C588 1.539 . S
C591 H605 0.958 . S
C591 H606 0.961 . S
C591 H607 0.960 . S
H592 C576 0.931 . S
H593 C581 0.929 . S
H594 C582 0.960 . S
H595 C582 0.962 . S
H596 C582 0.960 . S
H597 C583 0.961 . S
H598 C583 0.961 . S
H599 C583 0.961 . S
H600 C584 0.931 . S
H601 C589 0.930 . S
H602 C590 0.956 . S
H603 C590 0.961 . S
H604 C590 0.961 . S
H605 C591 0.958 . S
H606 C591 0.961 . S
H607 C591 0.960 . S
C608 C609 1.391 . S
C608 C610 1.394 . S
C608 H624 0.931 . S
C609 C608 1.391 . S
C609 C613 1.376 1_655 S
C610 C608 1.394 . S
C610 C611 1.369 . S
C610 C614 1.531 . S
C611 C610 1.369 . S
C611 C612 1.410 1_655 S
C611 C619 1.503 1_556 S
C612 C611 1.410 1_455 S
C612 C613 1.392 . S
C612 C615 1.511 . S
C613 C609 1.376 1_455 S
C613 C612 1.392 . S
C613 H625 0.929 . S
C614 C610 1.531 . S
C614 H626 0.960 1_556 S
C614 H627 0.962 . S
C614 H628 0.960 . S
C615 C612 1.511 . S
C615 H629 0.961 . S
C615 H630 0.961 . S
C615 H631 0.961 . S
C616 C617 1.370 . S
C616 C618 1.363 . S
C616 H632 0.931 . S
C617 C616 1.370 . S
C617 C621 1.408 1_655 S
C618 C616 1.363 . S
C618 C619 1.370 . S
C618 C622 1.524 . S
C619 C611 1.503 1_554 S
C619 C618 1.370 . S
C619 C620 1.403 1_655 S
C620 C619 1.403 1_455 S
C620 C621 1.404 . S
C620 C623 1.539 . S
C621 C617 1.408 1_455 S
C621 C620 1.404 . S
C621 H633 0.930 . S
C622 C618 1.524 . S
C622 H634 0.956 1_554 S
C622 H635 0.961 1_554 S
C622 H636 0.961 . S
C623 C620 1.539 . S
C623 H637 0.958 . S
C623 H638 0.961 . S
C623 H639 0.960 . S
H624 C608 0.931 . S
H625 C613 0.929 . S
H626 C614 0.960 1_554 S
H627 C614 0.962 . S
H628 C614 0.960 . S
H629 C615 0.961 . S
H630 C615 0.961 . S
H631 C615 0.961 . S
H632 C616 0.931 . S
H633 C621 0.930 . S
H634 C622 0.956 1_556 S
H635 C622 0.961 1_556 S
H636 C622 0.961 . S
H637 C623 0.958 . S
H638 C623 0.961 . S
H639 C623 0.960 . S
C640 C641 1.391 . S
C640 C642 1.394 . S
C640 H656 0.931 . S
C641 C640 1.391 . S
C641 C645 1.376 1_565 S
C642 C640 1.394 . S
C642 C643 1.369 . S
C642 C646 1.531 . S
C643 C642 1.369 . S
C643 C644 1.410 1_565 S
C643 C651 1.503 . S
C644 C643 1.410 1_545 S
C644 C645 1.392 . S
C644 C647 1.511 . S
C645 C641 1.376 1_545 S
C645 C644 1.392 . S
C645 H657 0.929 . S
C646 C642 1.531 . S
C646 H658 0.960 . S
C646 H659 0.962 . S
C646 H660 0.960 . S
C647 C644 1.511 . S
C647 H661 0.961 . S
C647 H662 0.961 . S
C647 H663 0.961 . S
C648 C649 1.370 . S
C648 C650 1.363 . S
C648 H664 0.931 . S
C649 C648 1.370 . S
C649 C653 1.408 . S
C650 C648 1.363 . S
C650 C651 1.370 . S
C650 C654 1.524 1_565 S
C651 C643 1.503 . S
C651 C650 1.370 . S
C651 C652 1.403 . S
C652 C651 1.403 . S
C652 C653 1.404 . S
C652 C655 1.539 . S
C653 C649 1.408 . S
C653 C652 1.404 . S
C653 H665 0.930 . S
C654 C650 1.524 1_545 S
C654 H666 0.956 1_545 S
C654 H667 0.961 . S
C654 H668 0.961 . S
C655 C652 1.539 . S
C655 H669 0.958 . S
C655 H670 0.961 . S
C655 H671 0.960 . S
H656 C640 0.931 . S
H657 C645 0.929 . S
H658 C646 0.960 . S
H659 C646 0.962 . S
H660 C646 0.960 . S
H661 C647 0.961 . S
H662 C647 0.961 . S
H663 C647 0.961 . S
H664 C648 0.931 . S
H665 C653 0.930 . S
H666 C654 0.956 1_565 S
H667 C654 0.961 . S
H668 C654 0.961 . S
H669 C655 0.958 . S
H670 C655 0.961 . S
H671 C655 0.960 . S
C672 C673 1.391 . S
C672 C674 1.394 . S
C672 H688 0.931 . S
C673 C672 1.391 . S
C673 C677 1.376 . S
C674 C672 1.394 . S
C674 C675 1.369 . S
C674 C678 1.531 . S
C675 C674 1.369 . S
C675 C676 1.410 . S
C675 C683 1.503 1_556 S
C676 C675 1.410 . S
C676 C677 1.392 . S
C676 C679 1.511 . S
C677 C673 1.376 . S
C677 C676 1.392 . S
C677 H689 0.929 . S
C678 C674 1.531 . S
C678 H690 0.960 1_556 S
C678 H691 0.962 . S
C678 H692 0.960 . S
C679 C676 1.511 . S
C679 H693 0.961 . S
C679 H694 0.961 . S
C679 H695 0.961 . S
C680 C681 1.370 . S
C680 C682 1.363 . S
C680 H696 0.931 . S
C681 C680 1.370 . S
C681 C685 1.408 . S
C682 C680 1.363 . S
C682 C683 1.370 . S
C682 C686 1.524 . S
C683 C675 1.503 1_554 S
C683 C682 1.370 . S
C683 C684 1.403 . S
C684 C683 1.403 . S
C684 C685 1.404 . S
C684 C687 1.539 . S
C685 C681 1.408 . S
C685 C684 1.404 . S
C685 H697 0.930 . S
C686 C682 1.524 . S
C686 H698 0.956 1_554 S
C686 H699 0.961 1_554 S
C686 H700 0.961 . S
C687 C684 1.539 . S
C687 H701 0.958 . S
C687 H702 0.961 . S
C687 H703 0.960 . S
H688 C672 0.931 . S
H689 C677 0.929 . S
H690 C678 0.960 1_554 S
H691 C678 0.962 . S
H692 C678 0.960 . S
H693 C679 0.961 . S
H694 C679 0.961 . S
H695 C679 0.961 . S
H696 C680 0.931 . S
H697 C685 0.930 . S
H698 C686 0.956 1_556 S
H699 C686 0.961 1_556 S
H700 C686 0.961 . S
H701 C687 0.958 . S
H702 C687 0.961 . S
H703 C687 0.960 . S
C704 C705 1.391 . S
C704 C706 1.394 . S
C704 H720 0.931 . S
C705 C704 1.391 . S
C705 C709 1.376 . S
C706 C704 1.394 . S
C706 C707 1.369 . S
C706 C710 1.531 . S
C707 C706 1.369 . S
C707 C708 1.410 . S
C707 C715 1.503 . S
C708 C707 1.410 . S
C708 C709 1.392 . S
C708 C711 1.511 . S
C709 C705 1.376 . S
C709 C708 1.392 . S
C709 H721 0.929 . S
C710 C706 1.531 . S
C710 H722 0.960 . S
C710 H723 0.962 . S
C710 H724 0.960 . S
C711 C708 1.511 . S
C711 H725 0.961 . S
C711 H726 0.961 . S
C711 H727 0.961 . S
C712 C713 1.370 . S
C712 C714 1.363 . S
C712 H728 0.931 . S
C713 C712 1.370 . S
C713 C717 1.408 . S
C714 C712 1.363 . S
C714 C715 1.370 . S
C714 C718 1.524 . S
C715 C707 1.503 . S
C715 C714 1.370 . S
C715 C716 1.403 . S
C716 C715 1.403 . S
C716 C717 1.404 . S
C716 C719 1.539 . S
C717 C713 1.408 . S
C717 C716 1.404 . S
C717 H729 0.930 . S
C718 C714 1.524 . S
C718 H730 0.956 . S
C718 H731 0.961 . S
C718 H732 0.961 . S
C719 C716 1.539 . S
C719 H733 0.958 . S
C719 H734 0.961 . S
C719 H735 0.960 . S
H720 C704 0.931 . S
H721 C709 0.929 . S
H722 C710 0.960 . S
H723 C710 0.962 . S
H724 C710 0.960 . S
H725 C711 0.961 . S
H726 C711 0.961 . S
H727 C711 0.961 . S
H728 C712 0.931 . S
H729 C717 0.930 . S
H730 C718 0.956 . S
H731 C718 0.961 . S
H732 C718 0.961 . S
H733 C719 0.958 . S
H734 C719 0.961 . S
H735 C719 0.960 . S
C736 C737 1.391 . S
C736 C738 1.394 . S
C736 H752 0.931 . S
C737 C736 1.391 . S
C737 C741 1.376 . S
C738 C736 1.394 . S
C738 C739 1.369 . S
C738 C742 1.531 . S
C739 C738 1.369 . S
C739 C740 1.410 . S
C739 C747 1.503 1_554 S
C740 C739 1.410 . S
C740 C741 1.392 . S
C740 C743 1.511 . S
C741 C737 1.376 . S
C741 C740 1.392 . S
C741 H753 0.929 . S
C742 C738 1.531 . S
C742 H754 0.960 1_554 S
C742 H755 0.962 1_454 S
C742 H756 0.960 . S
C743 C740 1.511 . S
C743 H757 0.961 . S
C743 H758 0.961 . S
C743 H759 0.961 . S
C744 C745 1.370 1_655 S
C744 C746 1.363 . S
C744 H760 0.931 . S
C745 C744 1.370 1_455 S
C745 C749 1.408 . S
C746 C744 1.363 . S
C746 C747 1.370 1_655 S
C746 C750 1.524 . S
C747 C739 1.503 1_556 S
C747 C746 1.370 1_455 S
C747 C748 1.403 . S
C748 C747 1.403 . S
C748 C749 1.404 . S
C748 C751 1.539 . S
C749 C745 1.408 . S
C749 C748 1.404 . S
C749 H761 0.930 . S
C750 C746 1.524 . S
C750 H762 0.956 . S
C750 H763 0.961 1_556 S
C750 H764 0.961 . S
C751 C748 1.539 . S
C751 H765 0.958 . S
C751 H766 0.961 . S
C751 H767 0.941 1_556 S
H752 C736 0.931 . S
H753 C741 0.929 . S
H754 C742 0.960 1_556 S
H755 C742 0.962 1_656 S
H756 C742 0.960 . S
H757 C743 0.961 . S
H758 C743 0.961 . S
H759 C743 0.961 . S
H760 C744 0.931 . S
H761 C749 0.930 . S
H762 C750 0.956 . S
H763 C750 0.961 1_554 S
H764 C750 0.961 . S
H765 C751 0.958 . S
H766 C751 0.961 . S
H767 C751 0.941 1_554 S
C768 C769 1.391 . S
C768 C770 1.394 . S
C768 H784 0.931 . S
C769 C768 1.391 . S
C769 C773 1.376 1_545 S
C770 C768 1.394 . S
C770 C771 1.369 . S
C770 C774 1.531 . S
C771 C770 1.369 . S
C771 C772 1.410 1_545 S
C771 C779 1.503 . S
C772 C771 1.410 1_565 S
C772 C773 1.392 . S
C772 C775 1.511 . S
C773 C769 1.376 1_565 S
C773 C772 1.392 . S
C773 H785 0.929 . S
C774 C770 1.531 . S
C774 H786 0.960 . S
C774 H787 0.962 . S
C774 H788 0.960 . S
C775 C772 1.511 . S
C775 H789 0.961 . S
C775 H790 0.961 . S
C775 H791 0.961 . S
C776 C777 1.370 . S
C776 C778 1.363 . S
C776 H792 0.931 . S
C777 C776 1.370 . S
C777 C781 1.408 . S
C778 C776 1.363 . S
C778 C779 1.370 . S
C778 C782 1.524 . S
C779 C771 1.503 . S
C779 C778 1.370 . S
C779 C780 1.403 . S
C780 C779 1.403 . S
C780 C781 1.404 . S
C780 C783 1.539 . S
C781 C777 1.408 . S
C781 C780 1.404 . S
C781 H793 0.930 . S
C782 C778 1.524 . S
C782 H794 0.956 . S
C782 H795 0.961 1_545 S
C782 H796 0.961 . S
C783 C780 1.539 . S
C783 H797 0.958 . S
C783 H798 0.961 1_545 S
C783 H799 0.960 1_545 S
H784 C768 0.931 . S
H785 C773 0.929 . S
H786 C774 0.960 . S
H787 C774 0.962 . S
H788 C774 0.960 . S
H789 C775 0.961 . S
H790 C775 0.961 . S
H791 C775 0.961 . S
H792 C776 0.931 . S
H793 C781 0.930 . S
H794 C782 0.956 . S
H795 C782 0.961 1_565 S
H796 C782 0.961 . S
H797 C783 0.958 . S
H798 C783 0.961 1_565 S
H799 C783 0.960 1_565 S
C800 C801 1.391 . S
C800 C802 1.394 . S
C800 H816 0.931 . S
C801 C800 1.391 . S
C801 C805 1.376 . S
C802 C800 1.394 . S
C802 C803 1.369 . S
C802 C806 1.531 . S
C803 C802 1.369 . S
C803 C804 1.410 . S
C803 C811 1.503 . S
C804 C803 1.410 . S
C804 C805 1.392 . S
C804 C807 1.511 . S
C805 C801 1.376 . S
C805 C804 1.392 . S
C805 H817 0.929 . S
C806 C802 1.531 . S
C806 H818 0.960 . S
C806 H819 0.962 . S
C806 H820 0.960 . S
C807 C804 1.511 . S
C807 H821 0.961 . S
C807 H822 0.961 . S
C807 H823 0.961 . S
C808 C809 1.370 . S
C808 C810 1.363 1_545 S
C808 H824 0.931 . S
C809 C808 1.370 . S
C809 C813 1.408 . S
C810 C808 1.363 1_565 S
C810 C811 1.370 . S
C810 C814 1.524 . S
C811 C803 1.503 . S
C811 C810 1.370 . S
C811 C812 1.403 . S
C812 C811 1.403 . S
C812 C813 1.404 1_565 S
C812 C815 1.539 . S
C813 C809 1.408 . S
C813 C812 1.404 1_545 S
C813 H825 0.930 . S
C814 C810 1.524 . S
C814 H826 0.956 . S
C814 H827 0.961 . S
C814 H828 0.961 . S
C815 C812 1.539 . S
C815 H829 0.958 . S
C815 H830 0.961 . S
C815 H831 0.960 . S
H816 C800 0.931 . S
H817 C805 0.929 . S
H818 C806 0.960 . S
H819 C806 0.962 . S
H820 C806 0.960 . S
H821 C807 0.961 . S
H822 C807 0.961 . S
H823 C807 0.961 . S
H824 C808 0.931 . S
H825 C813 0.930 . S
H826 C814 0.956 . S
H827 C814 0.961 . S
H828 C814 0.961 . S
H829 C815 0.958 . S
H830 C815 0.961 . S
H831 C815 0.960 . S
C832 C833 1.391 . S
C832 C834 1.394 . S
C832 H848 0.931 . S
C833 C832 1.391 . S
C833 C837 1.376 . S
C834 C832 1.394 . S
C834 C835 1.369 . S
C834 C838 1.531 . S
C835 C834 1.369 . S
C835 C836 1.410 . S
C835 C843 1.503 . S
C836 C835 1.410 . S
C836 C837 1.392 . S
C836 C839 1.511 . S
C837 C833 1.376 . S
C837 C836 1.392 . S
C837 H849 0.929 . S
C838 C834 1.531 . S
C838 H850 0.960 . S
C838 H851 0.962 . S
C838 H852 0.960 . S
C839 C836 1.511 . S
C839 H853 0.961 . S
C839 H854 0.961 . S
C839 H855 0.961 . S
C840 C841 1.370 . S
C840 C842 1.363 . S
C840 H856 0.931 . S
C841 C840 1.370 . S
C841 C845 1.408 . S
C842 C840 1.363 . S
C842 C843 1.370 . S
C842 C846 1.524 . S
C843 C835 1.503 . S
C843 C842 1.370 . S
C843 C844 1.403 . S
C844 C843 1.403 . S
C844 C845 1.404 . S
C844 C847 1.539 . S
C845 C841 1.408 . S
C845 C844 1.404 . S
C845 H857 0.930 . S
C846 C842 1.524 . S
C846 H858 0.956 . S
C846 H859 0.961 . S
C846 H860 0.961 . S
C847 C844 1.539 . S
C847 H861 0.958 . S
C847 H862 0.961 . S
C847 H863 0.960 . S
H848 C832 0.931 . S
H849 C837 0.929 . S
H850 C838 0.960 . S
H851 C838 0.962 . S
H852 C838 0.960 . S
H853 C839 0.961 . S
H854 C839 0.961 . S
H855 C839 0.961 . S
H856 C840 0.931 . S
H857 C845 0.930 . S
H858 C846 0.956 . S
H859 C846 0.961 . S
H860 C846 0.961 . S
H861 C847 0.958 . S
H862 C847 0.961 . S
H863 C847 0.960 . S
C864 C865 1.391 . S
C864 C866 1.394 . S
C864 H880 0.931 . S
C865 C864 1.391 . S
C865 C869 1.376 1_655 S
C866 C864 1.394 . S
C866 C867 1.369 . S
C866 C870 1.531 . S
C867 C866 1.369 . S
C867 C868 1.410 1_655 S
C867 C875 1.503 . S
C868 C867 1.410 1_455 S
C868 C869 1.392 . S
C868 C871 1.511 . S
C869 C865 1.376 1_455 S
C869 C868 1.392 . S
C869 H881 0.929 . S
C870 C866 1.531 . S
C870 H882 0.960 . S
C870 H883 0.962 . S
C870 H884 0.960 . S
C871 C868 1.511 . S
C871 H885 0.961 . S
C871 H886 0.961 . S
C871 H887 0.961 . S
C872 C873 1.370 . S
C872 C874 1.363 . S
C872 H888 0.931 . S
C873 C872 1.370 . S
C873 C877 1.408 1_655 S
C874 C872 1.363 . S
C874 C875 1.370 . S
C874 C878 1.524 . S
C875 C867 1.503 . S
C875 C874 1.370 . S
C875 C876 1.403 1_655 S
C876 C875 1.403 1_455 S
C876 C877 1.404 . S
C876 C879 1.539 . S
C877 C873 1.408 1_455 S
C877 C876 1.404 . S
C877 H889 0.930 . S
C878 C874 1.524 . S
C878 H890 0.956 . S
C878 H891 0.961 . S
C878 H892 0.961 . S
C879 C876 1.539 . S
C879 H893 0.958 . S
C879 H894 0.961 . S
C879 H895 0.960 . S
H880 C864 0.931 . S
H881 C869 0.929 . S
H882 C870 0.960 . S
H883 C870 0.962 . S
H884 C870 0.960 . S
H885 C871 0.961 . S
H886 C871 0.961 . S
H887 C871 0.961 . S
H888 C872 0.931 . S
H889 C877 0.930 . S
H890 C878 0.956 . S
H891 C878 0.961 . S
H892 C878 0.961 . S
H893 C879 0.958 . S
H894 C879 0.961 . S
H895 C879 0.960 . S
C896 C897 1.391 . S
C896 C898 1.394 1_565 S
C896 H912 0.931 1_565 S
C897 C896 1.391 . S
C897 C901 1.376 . S
C898 C896 1.394 1_545 S
C898 C899 1.369 1_545 S
C898 C902 1.531 . S
C899 C898 1.369 1_565 S
C899 C900 1.410 . S
C899 C907 1.503 . S
C900 C899 1.410 . S
C900 C901 1.392 . S
C900 C903 1.511 . S
C901 C897 1.376 . S
C901 C900 1.392 . S
C901 H913 0.929 . S
C902 C898 1.531 . S
C902 H914 0.960 . S
C902 H915 0.962 1_545 S
C902 H916 0.960 . S
C903 C900 1.511 . S
C903 H917 0.961 . S
C903 H918 0.961 . S
C903 H919 0.961 1_565 S
C904 C905 1.370 . S
C904 C906 1.363 1_455 S
C904 H920 0.931 . S
C905 C904 1.370 . S
C905 C909 1.408 1_565 S
C906 C904 1.363 1_655 S
C906 C907 1.370 . S
C906 C910 1.524 . S
C907 C899 1.503 . S
C907 C906 1.370 . S
C907 C908 1.403 1_565 S
C908 C907 1.403 1_545 S
C908 C909 1.404 1_655 S
C908 C911 1.539 . S
C909 C905 1.408 1_545 S
C909 C908 1.404 1_455 S
C909 H921 0.930 . S
C910 C906 1.524 . S
C910 H922 0.956 . S
C910 H923 0.961 . S
C910 H924 0.961 . S
C911 C908 1.539 . S
C911 H925 0.958 . S
C911 H926 0.961 . S
C911 H927 0.960 . S
H912 C896 0.931 1_545 S
H913 C901 0.929 . S
H914 C902 0.960 . S
H915 C902 0.962 1_565 S
H916 C902 0.960 . S
H917 C903 0.961 . S
H918 C903 0.961 . S
H919 C903 0.961 1_545 S
H920 C904 0.931 . S
H921 C909 0.930 . S
H922 C910 0.956 . S
H923 C910 0.961 . S
H924 C910 0.961 . S
H925 C911 0.958 . S
H926 C911 0.961 . S
H927 C911 0.960 . S
C928 C929 1.391 . S
C928 C930 1.394 . S
C928 H944 0.931 . S
C929 C928 1.391 . S
C929 C933 1.376 . S
C930 C928 1.394 . S
C930 C931 1.369 . S
C930 C934 1.531 . S
C931 C930 1.369 . S
C931 C932 1.410 . S
C931 C939 1.503 . S
C932 C931 1.410 . S
C932 C933 1.392 . S
C932 C935 1.511 . S
C933 C929 1.376 . S
C933 C932 1.392 . S
C933 H945 0.929 . S
C934 C930 1.531 . S
C934 H946 0.960 . S
C934 H947 0.962 . S
C934 H948 0.960 . S
C935 C932 1.511 . S
C935 H949 0.961 . S
C935 H950 0.961 . S
C935 H951 0.961 . S
C936 C937 1.370 . S
C936 C938 1.363 . S
C936 H952 0.931 . S
C937 C936 1.370 . S
C937 C941 1.408 . S
C938 C936 1.363 . S
C938 C939 1.370 . S
C938 C942 1.524 . S
C939 C931 1.503 . S
C939 C938 1.370 . S
C939 C940 1.403 . S
C940 C939 1.403 . S
C940 C941 1.404 . S
C940 C943 1.539 . S
C941 C937 1.408 . S
C941 C940 1.404 . S
C941 H953 0.930 . S
C942 C938 1.524 . S
C942 H954 0.956 . S
C942 H955 0.961 . S
C942 H956 0.961 . S
C943 C940 1.539 . S
C943 H957 0.958 . S
C943 H958 0.961 . S
C943 H959 0.960 . S
H944 C928 0.931 . S
H945 C933 0.929 . S
H946 C934 0.960 . S
H947 C934 0.962 . S
H948 C934 0.960 . S
H949 C935 0.961 . S
H950 C935 0.961 . S
H951 C935 0.961 . S
H952 C936 0.931 . S
H953 C941 0.930 . S
H954 C942 0.956 . S
H955 C942 0.961 . S
H956 C942 0.961 . S
H957 C943 0.958 . S
H958 C943 0.961 . S
H959 C943 0.960 . S
C960 C961 1.391 . S
C960 C962 1.394 . S
C960 H976 0.931 . S
C961 C960 1.391 . S
C961 C965 1.376 . S
C962 C960 1.394 . S
C962 C963 1.369 . S
C962 C966 1.531 . S
C963 C962 1.369 . S
C963 C964 1.410 . S
C963 C971 1.503 . S
C964 C963 1.410 . S
C964 C965 1.392 . S
C964 C967 1.511 . S
C965 C961 1.376 . S
C965 C964 1.392 . S
C965 H977 0.929 . S
C966 C962 1.531 . S
C966 H978 0.960 . S
C966 H979 0.962 . S
C966 H980 0.960 . S
C967 C964 1.511 . S
C967 H981 0.961 . S
C967 H982 0.961 . S
C967 H983 0.961 . S
C968 C969 1.370 . S
C968 C970 1.363 1_455 S
C968 H984 0.931 . S
C969 C968 1.370 . S
C969 C973 1.408 . S
C970 C968 1.363 1_655 S
C970 C971 1.370 . S
C970 C974 1.524 . S
C971 C963 1.503 . S
C971 C970 1.370 . S
C971 C972 1.403 . S
C972 C971 1.403 . S
C972 C973 1.404 1_655 S
C972 C975 1.539 . S
C973 C969 1.408 . S
C973 C972 1.404 1_455 S
C973 H985 0.930 . S
C974 C970 1.524 . S
C974 H986 0.956 . S
C974 H987 0.961 . S
C974 H988 0.961 . S
C975 C972 1.539 . S
C975 H989 0.958 . S
C975 H990 0.961 . S
C975 H991 0.960 . S
H976 C960 0.931 . S
H977 C965 0.929 . S
H978 C966 0.960 . S
H979 C966 0.962 . S
H980 C966 0.960 . S
H981 C967 0.961 . S
H982 C967 0.961 . S
H983 C967 0.961 . S
H984 C968 0.931 . S
H985 C973 0.930 . S
H986 C974 0.956 . S
H987 C974 0.961 . S
H988 C974 0.961 . S
H989 C975 0.958 . S
H990 C975 0.961 . S
H991 C975 0.960 . S
C992 C993 1.391 1_455 S
C992 C994 1.394 1_545 S
C992 H1008 0.931 . S
C993 C992 1.391 1_655 S
C993 C997 1.376 . S
C994 C992 1.394 1_565 S
C994 C995 1.369 1_455 S
C994 C998 1.531 . S
C995 C994 1.369 1_655 S
C995 C996 1.410 . S
C995 C1003 1.503 . S
C996 C995 1.410 . S
C996 C997 1.392 1_565 S
C996 C999 1.511 . S
C997 C993 1.376 . S
C997 C996 1.392 1_545 S
C997 H1009 0.929 . S
C998 C994 1.531 . S
C998 H1010 0.960 . S
C998 H1011 0.962 . S
C998 H1012 0.960 . S
C999 C996 1.511 . S
C999 H1013 0.961 . S
C999 H1014 0.961 . S
C999 H1015 0.961 . S
C1000 C1001 1.370 1_455 S
C1000 C1002 1.363 . S
C1000 H1016 0.931 . S
C1001 C1000 1.370 1_655 S
C1001 C1005 1.408 . S
C1002 C1000 1.363 . S
C1002 C1003 1.370 1_455 S
C1002 C1006 1.524 . S
C1003 C995 1.503 . S
C1003 C1002 1.370 1_655 S
C1003 C1004 1.403 . S
C1004 C1003 1.403 . S
C1004 C1005 1.404 . S
C1004 C1007 1.539 . S
C1005 C1001 1.408 . S
C1005 C1004 1.404 . S
C1005 H1017 0.930 . S
C1006 C1002 1.524 . S
C1006 H1018 0.956 . S
C1006 H1019 0.961 . S
C1006 H1020 0.961 . S
C1007 C1004 1.539 . S
C1007 H1021 0.958 . S
C1007 H1022 0.961 . S
C1007 H1023 0.960 . S
H1008 C992 0.931 . S
H1009 C997 0.929 . S
H1010 C998 0.960 . S
H1011 C998 0.962 . S
H1012 C998 0.960 . S
H1013 C999 0.961 . S
H1014 C999 0.961 . S
H1015 C999 0.961 . S
H1016 C1000 0.931 . S
H1017 C1005 0.930 . S
H1018 C1006 0.956 . S
H1019 C1006 0.961 . S
H1020 C1006 0.961 . S
H1021 C1007 0.958 . S
H1022 C1007 0.961 . S
H1023 C1007 0.960 . S
C1024 C1025 1.391 . S
C1024 C1026 1.394 . S
C1024 H1040 0.931 . S
C1025 C1024 1.391 . S
C1025 C1029 1.376 1_565 S
C1026 C1024 1.394 . S
C1026 C1027 1.369 . S
C1026 C1030 1.531 . S
C1027 C1026 1.369 . S
C1027 C1028 1.410 1_565 S
C1027 C1035 1.503 . S
C1028 C1027 1.410 1_545 S
C1028 C1029 1.392 . S
C1028 C1031 1.511 . S
C1029 C1025 1.376 1_545 S
C1029 C1028 1.392 . S
C1029 H1041 0.929 . S
C1030 C1026 1.531 . S
C1030 H1042 0.960 . S
C1030 H1043 0.962 . S
C1030 H1044 0.960 . S
C1031 C1028 1.511 . S
C1031 H1045 0.961 . S
C1031 H1046 0.961 . S
C1031 H1047 0.961 . S
C1032 C1033 1.371 . S
C1032 C1034 1.363 1_565 S
C1032 H1048 0.930 1_565 S
C1033 C1032 1.371 . S
C1033 C1037 1.408 . S
C1034 C1032 1.363 1_545 S
C1034 C1035 1.370 1_545 S
C1034 C1038 1.524 . S
C1035 C1027 1.503 . S
C1035 C1034 1.370 1_565 S
C1035 C1036 1.403 . S
C1036 C1035 1.403 . S
C1036 C1037 1.404 . S
C1036 C1039 1.539 . S
C1037 C1033 1.408 . S
C1037 C1036 1.404 . S
C1037 H1049 0.930 . S
C1038 C1034 1.524 . S
C1038 H1050 0.956 . S
C1038 H1051 0.961 . S
C1038 H1052 0.961 . S
C1039 C1036 1.539 . S
C1039 H1053 0.958 . S
C1039 H1054 0.961 . S
C1039 H1055 0.960 . S
H1040 C1024 0.931 . S
H1041 C1029 0.929 . S
H1042 C1030 0.960 . S
H1043 C1030 0.962 . S
H1044 C1030 0.960 . S
H1045 C1031 0.961 . S
H1046 C1031 0.961 . S
H1047 C1031 0.961 . S
H1048 C1032 0.930 1_545 S
H1049 C1037 0.930 . S
H1050 C1038 0.956 . S
H1051 C1038 0.961 . S
H1052 C1038 0.961 . S
H1053 C1039 0.958 . S
H1054 C1039 0.961 . S
H1055 C1039 0.960 . S
C1056 C1057 1.391 . S
C1056 C1058 1.394 . S
C1056 H1072 0.931 . S
C1057 C1056 1.391 . S
C1057 C1061 1.376 . S
C1058 C1056 1.394 . S
C1058 C1059 1.369 . S
C1058 C1062 1.531 . S
C1059 C1058 1.369 . S
C1059 C1060 1.410 . S
C1059 C1067 1.503 . S
C1060 C1059 1.410 . S
C1060 C1061 1.392 . S
C1060 C1063 1.511 . S
C1061 C1057 1.376 . S
C1061 C1060 1.392 . S
C1061 H1073 0.929 . S
C1062 C1058 1.531 . S
C1062 H1074 0.960 . S
C1062 H1075 0.962 . S
C1062 H1076 0.960 . S
C1063 C1060 1.511 . S
C1063 H1077 0.961 . S
C1063 H1078 0.961 . S
C1063 H1079 0.961 . S
C1064 C1065 1.370 . S
C1064 C1066 1.363 1_565 S
C1064 H1080 0.931 . S
C1065 C1064 1.370 . S
C1065 C1069 1.408 . S
C1066 C1064 1.363 1_545 S
C1066 C1067 1.370 . S
C1066 C1070 1.524 . S
C1067 C1059 1.503 . S
C1067 C1066 1.370 . S
C1067 C1068 1.403 . S
C1068 C1067 1.403 . S
C1068 C1069 1.404 1_545 S
C1068 C1071 1.539 . S
C1069 C1065 1.408 . S
C1069 C1068 1.404 1_565 S
C1069 H1081 0.930 . S
C1070 C1066 1.524 . S
C1070 H1082 0.956 . S
C1070 H1083 0.961 . S
C1070 H1084 0.961 . S
C1071 C1068 1.539 . S
C1071 H1085 0.958 . S
C1071 H1086 0.961 . S
C1071 H1087 0.960 . S
H1072 C1056 0.931 . S
H1073 C1061 0.929 . S
H1074 C1062 0.960 . S
H1075 C1062 0.962 . S
H1076 C1062 0.960 . S
H1077 C1063 0.961 . S
H1078 C1063 0.961 . S
H1079 C1063 0.961 . S
H1080 C1064 0.931 . S
H1081 C1069 0.930 . S
H1082 C1070 0.956 . S
H1083 C1070 0.961 . S
H1084 C1070 0.961 . S
H1085 C1071 0.958 . S
H1086 C1071 0.961 . S
H1087 C1071 0.960 . S
C1088 C1089 1.391 . S
C1088 C1090 1.394 . S
C1088 H1104 0.931 . S
C1089 C1088 1.391 . S
C1089 C1093 1.376 . S
C1090 C1088 1.394 . S
C1090 C1091 1.369 . S
C1090 C1094 1.531 . S
C1091 C1090 1.369 . S
C1091 C1092 1.410 . S
C1091 C1099 1.503 . S
C1092 C1091 1.410 . S
C1092 C1093 1.392 . S
C1092 C1095 1.511 . S
C1093 C1089 1.376 . S
C1093 C1092 1.392 . S
C1093 H1105 0.929 . S
C1094 C1090 1.531 . S
C1094 H1106 0.960 . S
C1094 H1107 0.962 . S
C1094 H1108 0.960 . S
C1095 C1092 1.511 . S
C1095 H1109 0.961 . S
C1095 H1110 0.961 . S
C1095 H1111 0.961 . S
C1096 C1097 1.370 . S
C1096 C1098 1.363 . S
C1096 H1112 0.931 . S
C1097 C1096 1.370 . S
C1097 C1101 1.408 . S
C1098 C1096 1.363 . S
C1098 C1099 1.370 . S
C1098 C1102 1.524 . S
C1099 C1091 1.503 . S
C1099 C1098 1.370 . S
C1099 C1100 1.403 . S
C1100 C1099 1.403 . S
C1100 C1101 1.404 . S
C1100 C1103 1.539 . S
C1101 C1097 1.408 . S
C1101 C1100 1.404 . S
C1101 H1113 0.930 . S
C1102 C1098 1.524 . S
C1102 H1114 0.956 . S
C1102 H1115 0.961 . S
C1102 H1116 0.961 . S
C1103 C1100 1.539 . S
C1103 H1117 0.958 . S
C1103 H1118 0.961 . S
C1103 H1119 0.960 . S
H1104 C1088 0.931 . S
H1105 C1093 0.929 . S
H1106 C1094 0.960 . S
H1107 C1094 0.962 . S
H1108 C1094 0.960 . S
H1109 C1095 0.961 . S
H1110 C1095 0.961 . S
H1111 C1095 0.961 . S
H1112 C1096 0.931 . S
H1113 C1101 0.930 . S
H1114 C1102 0.956 . S
H1115 C1102 0.961 . S
H1116 C1102 0.961 . S
H1117 C1103 0.958 . S
H1118 C1103 0.961 . S
H1119 C1103 0.960 . S
C1120 C1121 1.391 . S
C1120 C1122 1.394 . S
C1120 H1136 0.931 . S
C1121 C1120 1.391 . S
C1121 C1125 1.376 1_455 S
C1122 C1120 1.394 . S
C1122 C1123 1.369 . S
C1122 C1126 1.531 . S
C1123 C1122 1.369 . S
C1123 C1124 1.410 1_455 S
C1123 C1131 1.503 . S
C1124 C1123 1.410 1_655 S
C1124 C1125 1.392 . S
C1124 C1127 1.511 . S
C1125 C1121 1.376 1_655 S
C1125 C1124 1.392 . S
C1125 H1137 0.929 . S
C1126 C1122 1.531 . S
C1126 H1138 0.960 . S
C1126 H1139 0.962 . S
C1126 H1140 0.960 . S
C1127 C1124 1.511 . S
C1127 H1141 0.961 . S
C1127 H1142 0.961 . S
C1127 H1143 0.961 . S
C1128 C1129 1.370 . S
C1128 C1130 1.363 . S
C1128 H1144 0.931 . S
C1129 C1128 1.370 . S
C1129 C1133 1.408 1_455 S
C1130 C1128 1.363 . S
C1130 C1131 1.370 . S
C1130 C1134 1.524 . S
C1131 C1123 1.503 . S
C1131 C1130 1.370 . S
C1131 C1132 1.403 1_455 S
C1132 C1131 1.403 1_655 S
C1132 C1133 1.404 . S
C1132 C1135 1.539 . S
C1133 C1129 1.408 1_655 S
C1133 C1132 1.404 . S
C1133 H1145 0.930 . S
C1134 C1130 1.524 . S
C1134 H1146 0.956 . S
C1134 H1147 0.961 . S
C1134 H1148 0.961 . S
C1135 C1132 1.539 . S
C1135 H1149 0.958 1_655 S
C1135 H1150 0.961 . S
C1135 H1151 0.960 . S
H1136 C1120 0.931 . S
H1137 C1125 0.929 . S
H1138 C1126 0.960 . S
H1139 C1126 0.962 . S
H1140 C1126 0.960 . S
H1141 C1127 0.961 . S
H1142 C1127 0.961 . S
H1143 C1127 0.961 . S
H1144 C1128 0.931 . S
H1145 C1133 0.930 . S
H1146 C1134 0.956 . S
H1147 C1134 0.961 . S
H1148 C1134 0.961 . S
H1149 C1135 0.958 1_455 S
H1150 C1135 0.961 . S
H1151 C1135 0.960 . S
C1152 C1153 1.391 1_565 S
C1152 C1154 1.394 1_655 S
C1152 H1168 0.931 . S
C1153 C1152 1.391 1_545 S
C1153 C1157 1.376 . S
C1154 C1152 1.394 1_455 S
C1154 C1155 1.369 1_565 S
C1154 C1158 1.531 . S
C1155 C1154 1.369 1_545 S
C1155 C1156 1.410 . S
C1155 C1163 1.503 . S
C1156 C1155 1.410 . S
C1156 C1157 1.392 1_455 S
C1156 C1159 1.511 . S
C1157 C1153 1.376 . S
C1157 C1156 1.392 1_655 S
C1157 H1169 0.929 . S
C1158 C1154 1.531 . S
C1158 H1170 0.960 . S
C1158 H1171 0.962 . S
C1158 H1172 0.960 . S
C1159 C1156 1.511 . S
C1159 H1173 0.961 . S
C1159 H1174 0.961 . S
C1159 H1175 0.961 . S
C1160 C1161 1.370 . S
C1160 C1162 1.363 . S
C1160 H1176 0.931 . S
C1161 C1160 1.370 . S
C1161 C1165 1.408 . S
C1162 C1160 1.363 . S
C1162 C1163 1.370 . S
C1162 C1166 1.524 1_545 S
C1163 C1155 1.503 . S
C1163 C1162 1.370 . S
C1163 C1164 1.403 . S
C1164 C1163 1.403 . S
C1164 C1165 1.404 . S
C1164 C1167 1.539 . S
C1165 C1161 1.408 . S
C1165 C1164 1.404 . S
C1165 H1177 0.930 . S
C1166 C1162 1.524 1_565 S
C1166 H1178 0.956 . S
C1166 H1179 0.961 1_565 S
C1166 H1180 0.961 . S
C1167 C1164 1.539 . S
C1167 H1181 0.958 . S
C1167 H1182 0.961 . S
C1167 H1183 0.960 . S
H1168 C1152 0.931 . S
H1169 C1157 0.929 . S
H1170 C1158 0.960 . S
H1171 C1158 0.962 . S
H1172 C1158 0.960 . S
H1173 C1159 0.961 . S
H1174 C1159 0.961 . S
H1175 C1159 0.961 . S
H1176 C1160 0.931 . S
H1177 C1165 0.930 . S
H1178 C1166 0.956 . S
H1179 C1166 0.961 1_545 S
H1180 C1166 0.961 . S
H1181 C1167 0.958 . S
H1182 C1167 0.961 . S
H1183 C1167 0.960 . S
C1184 C1185 1.391 . S
C1184 C1186 1.394 . S
C1184 H1200 0.931 . S
C1185 C1184 1.391 . S
C1185 C1189 1.376 . S
C1186 C1184 1.394 . S
C1186 C1187 1.369 . S
C1186 C1190 1.531 . S
C1187 C1186 1.369 . S
C1187 C1188 1.410 . S
C1187 C1195 1.503 . S
C1188 C1187 1.410 . S
C1188 C1189 1.392 . S
C1188 C1191 1.511 . S
C1189 C1185 1.376 . S
C1189 C1188 1.392 . S
C1189 H1201 0.929 . S
C1190 C1186 1.531 . S
C1190 H1202 0.960 . S
C1190 H1203 0.962 . S
C1190 H1204 0.960 . S
C1191 C1188 1.511 . S
C1191 H1205 0.961 . S
C1191 H1206 0.961 . S
C1191 H1207 0.961 . S
C1192 C1193 1.370 . S
C1192 C1194 1.363 . S
C1192 H1208 0.931 . S
C1193 C1192 1.370 . S
C1193 C1197 1.408 . S
C1194 C1192 1.363 . S
C1194 C1195 1.370 . S
C1194 C1198 1.524 . S
C1195 C1187 1.503 . S
C1195 C1194 1.370 . S
C1195 C1196 1.403 . S
C1196 C1195 1.403 . S
C1196 C1197 1.404 . S
C1196 C1199 1.539 . S
C1197 C1193 1.408 . S
C1197 C1196 1.404 . S
C1197 H1209 0.930 . S
C1198 C1194 1.524 . S
C1198 H1210 0.956 . S
C1198 H1211 0.961 . S
C1198 H1212 0.961 . S
C1199 C1196 1.539 . S
C1199 H1213 0.958 . S
C1199 H1214 0.961 . S
C1199 H1215 0.960 . S
H1200 C1184 0.931 . S
H1201 C1189 0.929 . S
H1202 C1190 0.960 . S
H1203 C1190 0.962 . S
H1204 C1190 0.960 . S
H1205 C1191 0.961 . S
H1206 C1191 0.961 . S
H1207 C1191 0.961 . S
H1208 C1192 0.931 . S
H1209 C1197 0.930 . S
H1210 C1198 0.956 . S
H1211 C1198 0.961 . S
H1212 C1198 0.961 . S
H1213 C1199 0.958 . S
H1214 C1199 0.961 . S
H1215 C1199 0.960 . S
C1216 C1217 1.391 . S
C1216 C1218 1.394 . S
C1216 H1232 0.931 . S
C1217 C1216 1.391 . S
C1217 C1221 1.376 . S
C1218 C1216 1.394 . S
C1218 C1219 1.369 . S
C1218 C1222 1.531 . S
C1219 C1218 1.369 . S
C1219 C1220 1.410 . S
C1219 C1227 1.503 . S
C1220 C1219 1.410 . S
C1220 C1221 1.392 . S
C1220 C1223 1.511 . S
C1221 C1217 1.376 . S
C1221 C1220 1.392 . S
C1221 H1233 0.929 . S
C1222 C1218 1.531 . S
C1222 H1234 0.960 . S
C1222 H1235 0.962 . S
C1222 H1236 0.960 . S
C1223 C1220 1.511 . S
C1223 H1237 0.961 . S
C1223 H1238 0.961 . S
C1223 H1239 0.961 . S
C1224 C1225 1.370 . S
C1224 C1226 1.363 1_655 S
C1224 H1240 0.931 . S
C1225 C1224 1.370 . S
C1225 C1229 1.408 . S
C1226 C1224 1.363 1_455 S
C1226 C1227 1.370 . S
C1226 C1230 1.524 . S
C1227 C1219 1.503 . S
C1227 C1226 1.370 . S
C1227 C1228 1.403 . S
C1228 C1227 1.403 . S
C1228 C1229 1.404 1_455 S
C1228 C1231 1.539 . S
C1229 C1225 1.408 . S
C1229 C1228 1.404 1_655 S
C1229 H1241 0.930 . S
C1230 C1226 1.524 . S
C1230 H1242 0.956 . S
C1230 H1243 0.961 . S
C1230 H1244 0.961 . S
C1231 C1228 1.539 . S
C1231 H1245 0.958 . S
C1231 H1246 0.961 . S
C1231 H1247 0.960 . S
H1232 C1216 0.931 . S
H1233 C1221 0.929 . S
H1234 C1222 0.960 . S
H1235 C1222 0.962 . S
H1236 C1222 0.960 . S
H1237 C1223 0.961 . S
H1238 C1223 0.961 . S
H1239 C1223 0.961 . S
H1240 C1224 0.931 . S
H1241 C1229 0.930 . S
H1242 C1230 0.956 . S
H1243 C1230 0.961 . S
H1244 C1230 0.961 . S
H1245 C1231 0.958 . S
H1246 C1231 0.961 . S
H1247 C1231 0.960 . S
C1248 C1249 1.391 1_655 S
C1248 C1250 1.394 1_565 S
C1248 H1264 0.931 . S
C1249 C1248 1.391 1_455 S
C1249 C1253 1.376 . S
C1250 C1248 1.394 1_545 S
C1250 C1251 1.369 1_655 S
C1250 C1254 1.531 . S
C1251 C1250 1.369 1_455 S
C1251 C1252 1.410 . S
C1251 C1259 1.503 . S
C1252 C1251 1.410 . S
C1252 C1253 1.392 1_545 S
C1252 C1255 1.511 . S
C1253 C1249 1.376 . S
C1253 C1252 1.392 1_565 S
C1253 H1265 0.929 . S
C1254 C1250 1.531 . S
C1254 H1266 0.960 . S
C1254 H1267 0.962 . S
C1254 H1268 0.960 . S
C1255 C1252 1.511 . S
C1255 H1269 0.961 . S
C1255 H1270 0.961 . S
C1255 H1271 0.961 . S
C1256 C1257 1.370 . S
C1256 C1258 1.363 . S
C1256 H1272 0.931 1_455 S
C1257 C1256 1.370 . S
C1257 C1261 1.408 . S
C1258 C1256 1.363 . S
C1258 C1259 1.370 . S
C1258 C1262 1.524 1_455 S
C1259 C1251 1.503 . S
C1259 C1258 1.370 . S
C1259 C1260 1.403 . S
C1260 C1259 1.403 . S
C1260 C1261 1.404 . S
C1260 C1263 1.539 . S
C1261 C1257 1.408 . S
C1261 C1260 1.404 . S
C1261 H1273 0.930 . S
C1262 C1258 1.524 1_655 S
C1262 H1274 0.956 . S
C1262 H1275 0.961 1_655 S
C1262 H1276 0.961 . S
C1263 C1260 1.539 . S
C1263 H1277 0.958 . S
C1263 H1278 0.961 . S
C1263 H1279 0.960 . S
H1264 C1248 0.931 . S
H1265 C1253 0.929 . S
H1266 C1254 0.960 . S
H1267 C1254 0.962 . S
H1268 C1254 0.960 . S
H1269 C1255 0.961 . S
H1270 C1255 0.961 . S
H1271 C1255 0.961 . S
H1272 C1256 0.931 1_655 S
H1273 C1261 0.930 . S
H1274 C1262 0.956 . S
H1275 C1262 0.961 1_455 S
H1276 C1262 0.961 . S
H1277 C1263 0.958 . S
H1278 C1263 0.961 . S
H1279 C1263 0.960 . S
C1280 C1281 1.391 . S
C1280 C1282 1.394 . S
C1280 H1296 0.931 . S
C1281 C1280 1.391 . S
C1281 C1285 1.373 1_545 S
C1282 C1280 1.394 . S
C1282 C1283 1.369 . S
C1282 C1286 1.531 . S
C1283 C1282 1.369 . S
C1283 C1284 1.410 1_545 S
C1283 C1291 1.503 . S
C1284 C1283 1.410 1_565 S
C1284 C1285 1.394 . S
C1284 C1287 1.511 . S
C1285 C1281 1.373 1_565 S
C1285 C1284 1.394 . S
C1285 H1297 0.931 . S
C1286 C1282 1.531 . S
C1286 H1298 0.960 . S
C1286 H1299 0.962 . S
C1286 H1300 0.960 . S
C1287 C1284 1.511 . S
C1287 H1301 0.961 . S
C1287 H1302 0.961 . S
C1287 H1303 0.961 . S
C1288 C1289 1.370 . S
C1288 C1290 1.363 . S
C1288 H1304 0.931 . S
C1289 C1288 1.370 . S
C1289 C1293 1.408 1_545 S
C1290 C1288 1.363 . S
C1290 C1291 1.370 . S
C1290 C1294 1.524 . S
C1291 C1283 1.503 . S
C1291 C1290 1.370 . S
C1291 C1292 1.403 1_545 S
C1292 C1291 1.403 1_565 S
C1292 C1293 1.404 . S
C1292 C1295 1.539 . S
C1293 C1289 1.408 1_565 S
C1293 C1292 1.404 . S
C1293 H1305 0.930 . S
C1294 C1290 1.524 . S
C1294 H1306 0.956 . S
C1294 H1307 0.961 . S
C1294 H1308 0.961 . S
C1295 C1292 1.539 . S
C1295 H1309 0.958 . S
C1295 H1310 0.961 . S
C1295 H1311 0.960 . S
H1296 C1280 0.931 . S
H1297 C1285 0.931 . S
H1298 C1286 0.960 . S
H1299 C1286 0.962 . S
H1300 C1286 0.960 . S
H1301 C1287 0.961 . S
H1302 C1287 0.961 . S
H1303 C1287 0.961 . S
H1304 C1288 0.931 . S
H1305 C1293 0.930 . S
H1306 C1294 0.956 . S
H1307 C1294 0.961 . S
H1308 C1294 0.961 . S
H1309 C1295 0.958 . S
H1310 C1295 0.961 . S
H1311 C1295 0.960 . S
C1312 C1313 1.391 . S
C1312 C1314 1.394 . S
C1312 H1328 0.931 . S
C1313 C1312 1.391 . S
C1313 C1317 1.376 . S
C1314 C1312 1.394 . S
C1314 C1315 1.369 . S
C1314 C1318 1.531 . S
C1315 C1314 1.369 . S
C1315 C1316 1.410 . S
C1315 C1323 1.503 . S
C1316 C1315 1.410 . S
C1316 C1317 1.392 . S
C1316 C1319 1.511 . S
C1317 C1313 1.376 . S
C1317 C1316 1.392 . S
C1317 H1329 0.929 . S
C1318 C1314 1.531 . S
C1318 H1330 0.960 . S
C1318 H1331 0.962 . S
C1318 H1332 0.960 . S
C1319 C1316 1.511 . S
C1319 H1333 0.961 . S
C1319 H1334 0.961 . S
C1319 H1335 0.961 . S
C1320 C1321 1.370 . S
C1320 C1322 1.363 . S
C1320 H1336 0.931 . S
C1321 C1320 1.370 . S
C1321 C1325 1.408 . S
C1322 C1320 1.363 . S
C1322 C1323 1.370 . S
C1322 C1326 1.524 . S
C1323 C1315 1.503 . S
C1323 C1322 1.370 . S
C1323 C1324 1.403 . S
C1324 C1323 1.403 . S
C1324 C1325 1.404 . S
C1324 C1327 1.539 . S
C1325 C1321 1.408 . S
C1325 C1324 1.404 . S
C1325 H1337 0.930 . S
C1326 C1322 1.524 . S
C1326 H1338 0.956 . S
C1326 H1339 0.961 . S
C1326 H1340 0.961 . S
C1327 C1324 1.539 . S
C1327 H1341 0.958 . S
C1327 H1342 0.961 . S
C1327 H1343 0.960 . S
H1328 C1312 0.931 . S
H1329 C1317 0.929 . S
H1330 C1318 0.960 . S
H1331 C1318 0.962 . S
H1332 C1318 0.960 . S
H1333 C1319 0.961 . S
H1334 C1319 0.961 . S
H1335 C1319 0.961 . S
H1336 C1320 0.931 . S
H1337 C1325 0.930 . S
H1338 C1326 0.956 . S
H1339 C1326 0.961 . S
H1340 C1326 0.961 . S
H1341 C1327 0.958 . S
H1342 C1327 0.961 . S
H1343 C1327 0.960 . S
C1344 C1345 1.391 . S
C1344 C1346 1.394 . S
C1344 H1360 0.931 . S
C1345 C1344 1.391 . S
C1345 C1349 1.376 . S
C1346 C1344 1.394 . S
C1346 C1347 1.369 . S
C1346 C1350 1.531 . S
C1347 C1346 1.369 . S
C1347 C1348 1.410 . S
C1347 C1355 1.503 . S
C1348 C1347 1.410 . S
C1348 C1349 1.392 . S
C1348 C1351 1.511 . S
C1349 C1345 1.376 . S
C1349 C1348 1.392 . S
C1349 H1361 0.929 . S
C1350 C1346 1.531 . S
C1350 H1362 0.960 . S
C1350 H1363 0.962 . S
C1350 H1364 0.960 . S
C1351 C1348 1.511 . S
C1351 H1365 0.961 . S
C1351 H1366 0.961 . S
C1351 H1367 0.961 . S
C1352 C1353 1.370 . S
C1352 C1354 1.363 . S
C1352 H1368 0.931 . S
C1353 C1352 1.370 . S
C1353 C1357 1.408 . S
C1354 C1352 1.363 . S
C1354 C1355 1.370 . S
C1354 C1358 1.524 . S
C1355 C1347 1.503 . S
C1355 C1354 1.370 . S
C1355 C1356 1.403 . S
C1356 C1355 1.403 . S
C1356 C1357 1.404 . S
C1356 C1359 1.539 . S
C1357 C1353 1.408 . S
C1357 C1356 1.404 . S
C1357 H1369 0.930 . S
C1358 C1354 1.524 . S
C1358 H1370 0.956 . S
C1358 H1371 0.961 . S
C1358 H1372 0.961 . S
C1359 C1356 1.539 . S
C1359 H1373 0.958 . S
C1359 H1374 0.961 . S
C1359 H1375 0.960 . S
H1360 C1344 0.931 . S
H1361 C1349 0.929 . S
H1362 C1350 0.960 . S
H1363 C1350 0.962 . S
H1364 C1350 0.960 . S
H1365 C1351 0.961 . S
H1366 C1351 0.961 . S
H1367 C1351 0.961 . S
H1368 C1352 0.931 . S
H1369 C1357 0.930 . S
H1370 C1358 0.956 . S
H1371 C1358 0.961 . S
H1372 C1358 0.961 . S
H1373 C1359 0.958 . S
H1374 C1359 0.961 . S
H1375 C1359 0.960 . S
C1376 C1377 1.391 . S
C1376 C1378 1.394 . S
C1376 H1392 0.931 . S
C1377 C1376 1.391 . S
C1377 C1381 1.376 . S
C1378 C1376 1.394 . S
C1378 C1379 1.369 . S
C1378 C1382 1.531 . S
C1379 C1378 1.369 . S
C1379 C1380 1.410 . S
C1379 C1387 1.503 . S
C1380 C1379 1.410 . S
C1380 C1381 1.392 . S
C1380 C1383 1.511 . S
C1381 C1377 1.376 . S
C1381 C1380 1.392 . S
C1381 H1393 0.929 . S
C1382 C1378 1.531 . S
C1382 H1394 0.960 . S
C1382 H1395 0.962 . S
C1382 H1396 0.960 . S
C1383 C1380 1.511 . S
C1383 H1397 0.961 . S
C1383 H1398 0.961 . S
C1383 H1399 0.961 . S
C1384 C1385 1.370 . S
C1384 C1386 1.363 . S
C1384 H1400 0.931 . S
C1385 C1384 1.370 . S
C1385 C1389 1.408 . S
C1386 C1384 1.363 . S
C1386 C1387 1.370 . S
C1386 C1390 1.524 . S
C1387 C1379 1.503 . S
C1387 C1386 1.370 . S
C1387 C1388 1.403 . S
C1388 C1387 1.403 . S
C1388 C1389 1.404 . S
C1388 C1391 1.539 . S
C1389 C1385 1.408 . S
C1389 C1388 1.404 . S
C1389 H1401 0.930 . S
C1390 C1386 1.524 . S
C1390 H1402 0.956 . S
C1390 H1403 0.961 . S
C1390 H1404 0.961 . S
C1391 C1388 1.539 . S
C1391 H1405 0.958 . S
C1391 H1406 0.961 . S
C1391 H1407 0.960 . S
H1392 C1376 0.931 . S
H1393 C1381 0.929 . S
H1394 C1382 0.960 . S
H1395 C1382 0.962 . S
H1396 C1382 0.960 . S
H1397 C1383 0.961 . S
H1398 C1383 0.961 . S
H1399 C1383 0.961 . S
H1400 C1384 0.931 . S
H1401 C1389 0.930 . S
H1402 C1390 0.956 . S
H1403 C1390 0.961 . S
H1404 C1390 0.961 . S
H1405 C1391 0.958 . S
H1406 C1391 0.961 . S
H1407 C1391 0.960 . S
C1408 C1409 1.391 . S
C1408 C1410 1.394 . S
C1408 H1424 0.931 . S
C1409 C1408 1.391 . S
C1409 C1413 1.376 . S
C1410 C1408 1.394 . S
C1410 C1411 1.369 . S
C1410 C1414 1.531 . S
C1411 C1410 1.369 . S
C1411 C1412 1.410 . S
C1411 C1419 1.503 . S
C1412 C1411 1.410 . S
C1412 C1413 1.392 . S
C1412 C1415 1.511 . S
C1413 C1409 1.376 . S
C1413 C1412 1.392 . S
C1413 H1425 0.929 . S
C1414 C1410 1.531 . S
C1414 H1426 0.960 . S
C1414 H1427 0.962 . S
C1414 H1428 0.960 . S
C1415 C1412 1.511 . S
C1415 H1429 0.961 . S
C1415 H1430 0.961 . S
C1415 H1431 0.961 . S
C1416 C1417 1.370 . S
C1416 C1418 1.363 . S
C1416 H1432 0.931 . S
C1417 C1416 1.370 . S
C1417 C1421 1.408 . S
C1418 C1416 1.363 . S
C1418 C1419 1.370 . S
C1418 C1422 1.524 . S
C1419 C1411 1.503 . S
C1419 C1418 1.370 . S
C1419 C1420 1.403 . S
C1420 C1419 1.403 . S
C1420 C1421 1.404 . S
C1420 C1423 1.539 . S
C1421 C1417 1.408 . S
C1421 C1420 1.404 . S
C1421 H1433 0.930 . S
C1422 C1418 1.524 . S
C1422 H1434 0.956 . S
C1422 H1435 0.961 . S
C1422 H1436 0.961 . S
C1423 C1420 1.539 . S
C1423 H1437 0.958 . S
C1423 H1438 0.961 . S
C1423 H1439 0.960 . S
H1424 C1408 0.931 . S
H1425 C1413 0.929 . S
H1426 C1414 0.960 . S
H1427 C1414 0.962 . S
H1428 C1414 0.960 . S
H1429 C1415 0.961 . S
H1430 C1415 0.961 . S
H1431 C1415 0.961 . S
H1432 C1416 0.931 . S
H1433 C1421 0.930 . S
H1434 C1422 0.956 . S
H1435 C1422 0.961 . S
H1436 C1422 0.961 . S
H1437 C1423 0.958 . S
H1438 C1423 0.961 . S
H1439 C1423 0.960 . S
C1440 C1441 1.391 . S
C1440 C1442 1.394 . S
C1440 H1456 0.931 . S
C1441 C1440 1.391 . S
C1441 C1445 1.376 . S
C1442 C1440 1.394 . S
C1442 C1443 1.369 . S
C1442 C1446 1.531 . S
C1443 C1442 1.369 . S
C1443 C1444 1.410 . S
C1443 C1451 1.503 . S
C1444 C1443 1.410 . S
C1444 C1445 1.392 . S
C1444 C1447 1.511 . S
C1445 C1441 1.376 . S
C1445 C1444 1.392 . S
C1445 H1457 0.929 . S
C1446 C1442 1.531 . S
C1446 H1458 0.960 . S
C1446 H1459 0.962 . S
C1446 H1460 0.960 . S
C1447 C1444 1.511 . S
C1447 H1461 0.961 . S
C1447 H1462 0.961 . S
C1447 H1463 0.961 . S
C1448 C1449 1.370 . S
C1448 C1450 1.363 . S
C1448 H1464 0.931 . S
C1449 C1448 1.370 . S
C1449 C1453 1.408 . S
C1450 C1448 1.363 . S
C1450 C1451 1.370 . S
C1450 C1454 1.524 . S
C1451 C1443 1.503 . S
C1451 C1450 1.370 . S
C1451 C1452 1.403 . S
C1452 C1451 1.403 . S
C1452 C1453 1.404 . S
C1452 C1455 1.539 . S
C1453 C1449 1.408 . S
C1453 C1452 1.404 . S
C1453 H1465 0.930 . S
C1454 C1450 1.524 . S
C1454 H1466 0.956 . S
C1454 H1467 0.961 . S
C1454 H1468 0.961 . S
C1455 C1452 1.539 . S
C1455 H1469 0.958 . S
C1455 H1470 0.961 . S
C1455 H1471 0.960 . S
H1456 C1440 0.931 . S
H1457 C1445 0.929 . S
H1458 C1446 0.960 . S
H1459 C1446 0.962 . S
H1460 C1446 0.960 . S
H1461 C1447 0.961 . S
H1462 C1447 0.961 . S
H1463 C1447 0.961 . S
H1464 C1448 0.931 . S
H1465 C1453 0.930 . S
H1466 C1454 0.956 . S
H1467 C1454 0.961 . S
H1468 C1454 0.961 . S
H1469 C1455 0.958 . S
H1470 C1455 0.961 . S
H1471 C1455 0.960 . S
C1472 C1473 1.391 . S
C1472 C1474 1.394 . S
C1472 H1488 0.931 . S
C1473 C1472 1.391 . S
C1473 C1477 1.376 . S
C1474 C1472 1.394 . S
C1474 C1475 1.369 . S
C1474 C1478 1.531 . S
C1475 C1474 1.369 . S
C1475 C1476 1.410 . S
C1475 C1483 1.503 . S
C1476 C1475 1.410 . S
C1476 C1477 1.392 . S
C1476 C1479 1.511 . S
C1477 C1473 1.376 . S
C1477 C1476 1.392 . S
C1477 H1489 0.929 . S
C1478 C1474 1.531 . S
C1478 H1490 0.960 . S
C1478 H1491 0.962 . S
C1478 H1492 0.960 . S
C1479 C1476 1.511 . S
C1479 H1493 0.961 . S
C1479 H1494 0.961 . S
C1479 H1495 0.961 . S
C1480 C1481 1.370 . S
C1480 C1482 1.363 . S
C1480 H1496 0.931 . S
C1481 C1480 1.370 . S
C1481 C1485 1.408 . S
C1482 C1480 1.363 . S
C1482 C1483 1.370 . S
C1482 C1486 1.524 . S
C1483 C1475 1.503 . S
C1483 C1482 1.370 . S
C1483 C1484 1.403 . S
C1484 C1483 1.403 . S
C1484 C1485 1.404 . S
C1484 C1487 1.539 . S
C1485 C1481 1.408 . S
C1485 C1484 1.404 . S
C1485 H1497 0.930 . S
C1486 C1482 1.524 . S
C1486 H1498 0.956 . S
C1486 H1499 0.961 . S
C1486 H1500 0.961 . S
C1487 C1484 1.539 . S
C1487 H1501 0.958 . S
C1487 H1502 0.961 . S
C1487 H1503 0.960 . S
H1488 C1472 0.931 . S
H1489 C1477 0.929 . S
H1490 C1478 0.960 . S
H1491 C1478 0.962 . S
H1492 C1478 0.960 . S
H1493 C1479 0.961 . S
H1494 C1479 0.961 . S
H1495 C1479 0.961 . S
H1496 C1480 0.931 . S
H1497 C1485 0.930 . S
H1498 C1486 0.956 . S
H1499 C1486 0.961 . S
H1500 C1486 0.961 . S
H1501 C1487 0.958 . S
H1502 C1487 0.961 . S
H1503 C1487 0.960 . S
C1504 C1505 1.391 . S
C1504 C1506 1.394 . S
C1504 H1520 0.931 . S
C1505 C1504 1.391 . S
C1505 C1509 1.376 . S
C1506 C1504 1.394 . S
C1506 C1507 1.369 . S
C1506 C1510 1.531 . S
C1507 C1506 1.369 . S
C1507 C1508 1.410 . S
C1507 C1515 1.503 . S
C1508 C1507 1.410 . S
C1508 C1509 1.392 . S
C1508 C1511 1.511 . S
C1509 C1505 1.376 . S
C1509 C1508 1.392 . S
C1509 H1521 0.929 . S
C1510 C1506 1.531 . S
C1510 H1522 0.960 . S
C1510 H1523 0.962 . S
C1510 H1524 0.960 . S
C1511 C1508 1.511 . S
C1511 H1525 0.961 . S
C1511 H1526 0.961 . S
C1511 H1527 0.961 . S
C1512 C1513 1.370 . S
C1512 C1514 1.363 . S
C1512 H1528 0.931 . S
C1513 C1512 1.370 . S
C1513 C1517 1.408 . S
C1514 C1512 1.363 . S
C1514 C1515 1.370 . S
C1514 C1518 1.524 . S
C1515 C1507 1.503 . S
C1515 C1514 1.370 . S
C1515 C1516 1.403 . S
C1516 C1515 1.403 . S
C1516 C1517 1.404 . S
C1516 C1519 1.539 . S
C1517 C1513 1.408 . S
C1517 C1516 1.404 . S
C1517 H1529 0.930 . S
C1518 C1514 1.524 . S
C1518 H1530 0.956 . S
C1518 H1531 0.961 . S
C1518 H1532 0.961 . S
C1519 C1516 1.539 . S
C1519 H1533 0.958 . S
C1519 H1534 0.961 . S
C1519 H1535 0.960 . S
H1520 C1504 0.931 . S
H1521 C1509 0.929 . S
H1522 C1510 0.960 . S
H1523 C1510 0.962 . S
H1524 C1510 0.960 . S
H1525 C1511 0.961 . S
H1526 C1511 0.961 . S
H1527 C1511 0.961 . S
H1528 C1512 0.931 . S
H1529 C1517 0.930 . S
H1530 C1518 0.956 . S
H1531 C1518 0.961 . S
H1532 C1518 0.961 . S
H1533 C1519 0.958 . S
H1534 C1519 0.961 . S
H1535 C1519 0.960 . S
C1536 C1537 1.391 . S
C1536 C1538 1.394 . S
C1536 H1552 0.931 . S
C1537 C1536 1.391 . S
C1537 C1541 1.376 . S
C1538 C1536 1.394 . S
C1538 C1539 1.369 . S
C1538 C1542 1.531 . S
C1539 C1538 1.369 . S
C1539 C1540 1.410 . S
C1539 C1547 1.503 . S
C1540 C1539 1.410 . S
C1540 C1541 1.392 . S
C1540 C1543 1.511 . S
C1541 C1537 1.376 . S
C1541 C1540 1.392 . S
C1541 H1553 0.929 . S
C1542 C1538 1.531 . S
C1542 H1554 0.960 . S
C1542 H1555 0.962 . S
C1542 H1556 0.960 . S
C1543 C1540 1.511 . S
C1543 H1557 0.961 . S
C1543 H1558 0.961 . S
C1543 H1559 0.961 . S
C1544 C1545 1.370 . S
C1544 C1546 1.363 . S
C1544 H1560 0.931 . S
C1545 C1544 1.370 . S
C1545 C1549 1.408 . S
C1546 C1544 1.363 . S
C1546 C1547 1.370 . S
C1546 C1550 1.524 . S
C1547 C1539 1.503 . S
C1547 C1546 1.370 . S
C1547 C1548 1.403 . S
C1548 C1547 1.403 . S
C1548 C1549 1.404 . S
C1548 C1551 1.539 . S
C1549 C1545 1.408 . S
C1549 C1548 1.404 . S
C1549 H1561 0.930 . S
C1550 C1546 1.524 . S
C1550 H1562 0.956 . S
C1550 H1563 0.961 . S
C1550 H1564 0.961 . S
C1551 C1548 1.539 . S
C1551 H1565 0.958 . S
C1551 H1566 0.961 . S
C1551 H1567 0.960 . S
H1552 C1536 0.931 . S
H1553 C1541 0.929 . S
H1554 C1542 0.960 . S
H1555 C1542 0.962 . S
H1556 C1542 0.960 . S
H1557 C1543 0.961 . S
H1558 C1543 0.961 . S
H1559 C1543 0.961 . S
H1560 C1544 0.931 . S
H1561 C1549 0.930 . S
H1562 C1550 0.956 . S
H1563 C1550 0.961 . S
H1564 C1550 0.961 . S
H1565 C1551 0.958 . S
H1566 C1551 0.961 . S
H1567 C1551 0.960 . S
C1568 C1569 1.391 . S
C1568 C1570 1.394 . S
C1568 H1584 0.931 . S
C1569 C1568 1.391 . S
C1569 C1573 1.376 . S
C1570 C1568 1.394 . S
C1570 C1571 1.369 . S
C1570 C1574 1.531 . S
C1571 C1570 1.369 . S
C1571 C1572 1.410 . S
C1571 C1579 1.503 . S
C1572 C1571 1.410 . S
C1572 C1573 1.392 . S
C1572 C1575 1.511 . S
C1573 C1569 1.376 . S
C1573 C1572 1.392 . S
C1573 H1585 0.929 . S
C1574 C1570 1.531 . S
C1574 H1586 0.960 . S
C1574 H1587 0.962 . S
C1574 H1588 0.960 . S
C1575 C1572 1.511 . S
C1575 H1589 0.961 . S
C1575 H1590 0.961 . S
C1575 H1591 0.961 . S
C1576 C1577 1.370 . S
C1576 C1578 1.363 . S
C1576 H1592 0.931 . S
C1577 C1576 1.370 . S
C1577 C1581 1.408 . S
C1578 C1576 1.363 . S
C1578 C1579 1.370 . S
C1578 C1582 1.524 . S
C1579 C1571 1.503 . S
C1579 C1578 1.370 . S
C1579 C1580 1.403 . S
C1580 C1579 1.403 . S
C1580 C1581 1.404 . S
C1580 C1583 1.539 . S
C1581 C1577 1.408 . S
C1581 C1580 1.404 . S
C1581 H1593 0.930 . S
C1582 C1578 1.524 . S
C1582 H1594 0.956 . S
C1582 H1595 0.961 . S
C1582 H1596 0.961 . S
C1583 C1580 1.539 . S
C1583 H1597 0.958 . S
C1583 H1598 0.961 . S
C1583 H1599 0.960 . S
H1584 C1568 0.931 . S
H1585 C1573 0.929 . S
H1586 C1574 0.960 . S
H1587 C1574 0.962 . S
H1588 C1574 0.960 . S
H1589 C1575 0.961 . S
H1590 C1575 0.961 . S
H1591 C1575 0.961 . S
H1592 C1576 0.931 . S
H1593 C1581 0.930 . S
H1594 C1582 0.956 . S
H1595 C1582 0.961 . S
H1596 C1582 0.961 . S
H1597 C1583 0.958 . S
H1598 C1583 0.961 . S
H1599 C1583 0.960 . S
C1600 C1601 1.391 . S
C1600 C1602 1.394 . S
C1600 H1616 0.931 . S
C1601 C1600 1.391 . S
C1601 C1605 1.376 . S
C1602 C1600 1.394 . S
C1602 C1603 1.369 . S
C1602 C1606 1.531 . S
C1603 C1602 1.369 . S
C1603 C1604 1.410 . S
C1603 C1611 1.503 . S
C1604 C1603 1.410 . S
C1604 C1605 1.392 . S
C1604 C1607 1.511 . S
C1605 C1601 1.376 . S
C1605 C1604 1.392 . S
C1605 H1617 0.929 . S
C1606 C1602 1.531 . S
C1606 H1618 0.960 . S
C1606 H1619 0.962 . S
C1606 H1620 0.960 . S
C1607 C1604 1.511 . S
C1607 H1621 0.961 . S
C1607 H1622 0.961 . S
C1607 H1623 0.961 . S
C1608 C1609 1.370 . S
C1608 C1610 1.363 . S
C1608 H1624 0.931 . S
C1609 C1608 1.370 . S
C1609 C1613 1.408 . S
C1610 C1608 1.363 . S
C1610 C1611 1.370 . S
C1610 C1614 1.524 . S
C1611 C1603 1.503 . S
C1611 C1610 1.370 . S
C1611 C1612 1.403 . S
C1612 C1611 1.403 . S
C1612 C1613 1.404 . S
C1612 C1615 1.539 . S
C1613 C1609 1.408 . S
C1613 C1612 1.404 . S
C1613 H1625 0.930 . S
C1614 C1610 1.524 . S
C1614 H1626 0.956 . S
C1614 H1627 0.961 . S
C1614 H1628 0.961 . S
C1615 C1612 1.539 . S
C1615 H1629 0.958 . S
C1615 H1630 0.961 . S
C1615 H1631 0.960 . S
H1616 C1600 0.931 . S
H1617 C1605 0.929 . S
H1618 C1606 0.960 . S
H1619 C1606 0.962 . S
H1620 C1606 0.960 . S
H1621 C1607 0.961 . S
H1622 C1607 0.961 . S
H1623 C1607 0.961 . S
H1624 C1608 0.931 . S
H1625 C1613 0.930 . S
H1626 C1614 0.956 . S
H1627 C1614 0.961 . S
H1628 C1614 0.961 . S
H1629 C1615 0.958 . S
H1630 C1615 0.961 . S
H1631 C1615 0.960 . S
C1632 C1633 1.391 . S
C1632 C1634 1.394 . S
C1632 H1648 0.931 . S
C1633 C1632 1.391 . S
C1633 C1637 1.376 . S
C1634 C1632 1.394 . S
C1634 C1635 1.369 . S
C1634 C1638 1.531 . S
C1635 C1634 1.369 . S
C1635 C1636 1.410 . S
C1635 C1643 1.503 . S
C1636 C1635 1.410 . S
C1636 C1637 1.392 . S
C1636 C1639 1.511 . S
C1637 C1633 1.376 . S
C1637 C1636 1.392 . S
C1637 H1649 0.929 . S
C1638 C1634 1.531 . S
C1638 H1650 0.960 . S
C1638 H1651 0.962 . S
C1638 H1652 0.960 . S
C1639 C1636 1.511 . S
C1639 H1653 0.961 . S
C1639 H1654 0.961 . S
C1639 H1655 0.961 . S
C1640 C1641 1.370 . S
C1640 C1642 1.363 . S
C1640 H1656 0.931 . S
C1641 C1640 1.370 . S
C1641 C1645 1.408 . S
C1642 C1640 1.363 . S
C1642 C1643 1.370 . S
C1642 C1646 1.524 . S
C1643 C1635 1.503 . S
C1643 C1642 1.370 . S
C1643 C1644 1.403 . S
C1644 C1643 1.403 . S
C1644 C1645 1.404 . S
C1644 C1647 1.539 . S
C1645 C1641 1.408 . S
C1645 C1644 1.404 . S
C1645 H1657 0.930 . S
C1646 C1642 1.524 . S
C1646 H1658 0.956 . S
C1646 H1659 0.961 . S
C1646 H1660 0.961 . S
C1647 C1644 1.539 . S
C1647 H1661 0.958 . S
C1647 H1662 0.961 . S
C1647 H1663 0.960 . S
H1648 C1632 0.931 . S
H1649 C1637 0.929 . S
H1650 C1638 0.960 . S
H1651 C1638 0.962 . S
H1652 C1638 0.960 . S
H1653 C1639 0.961 . S
H1654 C1639 0.961 . S
H1655 C1639 0.961 . S
H1656 C1640 0.931 . S
H1657 C1645 0.930 . S
H1658 C1646 0.956 . S
H1659 C1646 0.961 . S
H1660 C1646 0.961 . S
H1661 C1647 0.958 . S
H1662 C1647 0.961 . S
H1663 C1647 0.960 . S
C1664 C1665 1.391 . S
C1664 C1666 1.394 . S
C1664 H1680 0.931 . S
C1665 C1664 1.391 . S
C1665 C1669 1.376 . S
C1666 C1664 1.394 . S
C1666 C1667 1.369 . S
C1666 C1670 1.531 . S
C1667 C1666 1.369 . S
C1667 C1668 1.410 . S
C1667 C1675 1.503 . S
C1668 C1667 1.410 . S
C1668 C1669 1.392 . S
C1668 C1671 1.511 . S
C1669 C1665 1.376 . S
C1669 C1668 1.392 . S
C1669 H1681 0.929 . S
C1670 C1666 1.531 . S
C1670 H1682 0.960 . S
C1670 H1683 0.962 . S
C1670 H1684 0.960 . S
C1671 C1668 1.511 . S
C1671 H1685 0.961 . S
C1671 H1686 0.961 . S
C1671 H1687 0.961 . S
C1672 C1673 1.370 . S
C1672 C1674 1.363 . S
C1672 H1688 0.931 . S
C1673 C1672 1.370 . S
C1673 C1677 1.408 . S
C1674 C1672 1.363 . S
C1674 C1675 1.370 . S
C1674 C1678 1.524 . S
C1675 C1667 1.503 . S
C1675 C1674 1.370 . S
C1675 C1676 1.403 . S
C1676 C1675 1.403 . S
C1676 C1677 1.404 . S
C1676 C1679 1.539 . S
C1677 C1673 1.408 . S
C1677 C1676 1.404 . S
C1677 H1689 0.930 . S
C1678 C1674 1.524 . S
C1678 H1690 0.956 . S
C1678 H1691 0.961 . S
C1678 H1692 0.961 . S
C1679 C1676 1.539 . S
C1679 H1693 0.958 . S
C1679 H1694 0.961 . S
C1679 H1695 0.960 . S
H1680 C1664 0.931 . S
H1681 C1669 0.929 . S
H1682 C1670 0.960 . S
H1683 C1670 0.962 . S
H1684 C1670 0.960 . S
H1685 C1671 0.961 . S
H1686 C1671 0.961 . S
H1687 C1671 0.961 . S
H1688 C1672 0.931 . S
H1689 C1677 0.930 . S
H1690 C1678 0.956 . S
H1691 C1678 0.961 . S
H1692 C1678 0.961 . S
H1693 C1679 0.958 . S
H1694 C1679 0.961 . S
H1695 C1679 0.960 . S
C1696 C1697 1.391 . S
C1696 C1698 1.394 . S
C1696 H1712 0.931 . S
C1697 C1696 1.391 . S
C1697 C1701 1.376 . S
C1698 C1696 1.394 . S
C1698 C1699 1.369 . S
C1698 C1702 1.531 . S
C1699 C1698 1.369 . S
C1699 C1700 1.410 . S
C1699 C1707 1.503 . S
C1700 C1699 1.410 . S
C1700 C1701 1.392 . S
C1700 C1703 1.511 . S
C1701 C1697 1.376 . S
C1701 C1700 1.392 . S
C1701 H1713 0.929 . S
C1702 C1698 1.531 . S
C1702 H1714 0.960 . S
C1702 H1715 0.962 . S
C1702 H1716 0.960 . S
C1703 C1700 1.511 . S
C1703 H1717 0.961 . S
C1703 H1718 0.961 . S
C1703 H1719 0.961 . S
C1704 C1705 1.370 . S
C1704 C1706 1.363 . S
C1704 H1720 0.931 . S
C1705 C1704 1.370 . S
C1705 C1709 1.408 . S
C1706 C1704 1.363 . S
C1706 C1707 1.370 . S
C1706 C1710 1.524 . S
C1707 C1699 1.503 . S
C1707 C1706 1.370 . S
C1707 C1708 1.403 . S
C1708 C1707 1.403 . S
C1708 C1709 1.404 . S
C1708 C1711 1.539 . S
C1709 C1705 1.408 . S
C1709 C1708 1.404 . S
C1709 H1721 0.930 . S
C1710 C1706 1.524 . S
C1710 H1722 0.956 . S
C1710 H1723 0.961 . S
C1710 H1724 0.961 . S
C1711 C1708 1.539 . S
C1711 H1725 0.958 . S
C1711 H1726 0.961 . S
C1711 H1727 0.960 . S
H1712 C1696 0.931 . S
H1713 C1701 0.929 . S
H1714 C1702 0.960 . S
H1715 C1702 0.962 . S
H1716 C1702 0.960 . S
H1717 C1703 0.961 . S
H1718 C1703 0.961 . S
H1719 C1703 0.961 . S
H1720 C1704 0.931 . S
H1721 C1709 0.930 . S
H1722 C1710 0.956 . S
H1723 C1710 0.961 . S
H1724 C1710 0.961 . S
H1725 C1711 0.958 . S
H1726 C1711 0.961 . S
H1727 C1711 0.960 . S
C1728 C1729 1.391 . S
C1728 C1730 1.394 . S
C1728 H1744 0.931 . S
C1729 C1728 1.391 . S
C1729 C1733 1.376 . S
C1730 C1728 1.394 . S
C1730 C1731 1.369 . S
C1730 C1734 1.531 . S
C1731 C1730 1.369 . S
C1731 C1732 1.410 . S
C1731 C1739 1.503 . S
C1732 C1731 1.410 . S
C1732 C1733 1.392 . S
C1732 C1735 1.511 . S
C1733 C1729 1.376 . S
C1733 C1732 1.392 . S
C1733 H1745 0.929 . S
C1734 C1730 1.531 . S
C1734 H1746 0.960 . S
C1734 H1747 0.962 . S
C1734 H1748 0.960 . S
C1735 C1732 1.511 . S
C1735 H1749 0.961 . S
C1735 H1750 0.961 . S
C1735 H1751 0.961 . S
C1736 C1737 1.370 . S
C1736 C1738 1.363 . S
C1736 H1752 0.931 . S
C1737 C1736 1.370 . S
C1737 C1741 1.408 . S
C1738 C1736 1.363 . S
C1738 C1739 1.370 . S
C1738 C1742 1.524 . S
C1739 C1731 1.503 . S
C1739 C1738 1.370 . S
C1739 C1740 1.403 . S
C1740 C1739 1.403 . S
C1740 C1741 1.404 . S
C1740 C1743 1.539 . S
C1741 C1737 1.408 . S
C1741 C1740 1.404 . S
C1741 H1753 0.930 . S
C1742 C1738 1.524 . S
C1742 H1754 0.956 . S
C1742 H1755 0.961 . S
C1742 H1756 0.961 . S
C1743 C1740 1.539 . S
C1743 H1757 0.958 . S
C1743 H1758 0.961 . S
C1743 H1759 0.960 . S
H1744 C1728 0.931 . S
H1745 C1733 0.929 . S
H1746 C1734 0.960 . S
H1747 C1734 0.962 . S
H1748 C1734 0.960 . S
H1749 C1735 0.961 . S
H1750 C1735 0.961 . S
H1751 C1735 0.961 . S
H1752 C1736 0.931 . S
H1753 C1741 0.930 . S
H1754 C1742 0.956 . S
H1755 C1742 0.961 . S
H1756 C1742 0.961 . S
H1757 C1743 0.958 . S
H1758 C1743 0.961 . S
H1759 C1743 0.960 . S
C1760 C1761 1.391 . S
C1760 C1762 1.394 . S
C1760 H1776 0.931 . S
C1761 C1760 1.391 . S
C1761 C1765 1.376 . S
C1762 C1760 1.394 . S
C1762 C1763 1.369 . S
C1762 C1766 1.531 . S
C1763 C1762 1.369 . S
C1763 C1764 1.410 . S
C1763 C1771 1.503 . S
C1764 C1763 1.410 . S
C1764 C1765 1.392 . S
C1764 C1767 1.511 . S
C1765 C1761 1.376 . S
C1765 C1764 1.392 . S
C1765 H1777 0.929 . S
C1766 C1762 1.531 . S
C1766 H1778 0.960 . S
C1766 H1779 0.962 . S
C1766 H1780 0.960 . S
C1767 C1764 1.511 . S
C1767 H1781 0.961 . S
C1767 H1782 0.961 . S
C1767 H1783 0.961 . S
C1768 C1769 1.370 . S
C1768 C1770 1.363 . S
C1768 H1784 0.931 . S
C1769 C1768 1.370 . S
C1769 C1773 1.408 . S
C1770 C1768 1.363 . S
C1770 C1771 1.370 . S
C1770 C1774 1.524 . S
C1771 C1763 1.503 . S
C1771 C1770 1.370 . S
C1771 C1772 1.403 . S
C1772 C1771 1.403 . S
C1772 C1773 1.404 . S
C1772 C1775 1.539 . S
C1773 C1769 1.408 . S
C1773 C1772 1.404 . S
C1773 H1785 0.930 . S
C1774 C1770 1.524 . S
C1774 H1786 0.956 . S
C1774 H1787 0.961 . S
C1774 H1788 0.961 . S
C1775 C1772 1.539 . S
C1775 H1789 0.958 . S
C1775 H1790 0.961 . S
C1775 H1791 0.960 . S
H1776 C1760 0.931 . S
H1777 C1765 0.929 . S
H1778 C1766 0.960 . S
H1779 C1766 0.962 . S
H1780 C1766 0.960 . S
H1781 C1767 0.961 . S
H1782 C1767 0.961 . S
H1783 C1767 0.961 . S
H1784 C1768 0.931 . S
H1785 C1773 0.930 . S
H1786 C1774 0.956 . S
H1787 C1774 0.961 . S
H1788 C1774 0.961 . S
H1789 C1775 0.958 . S
H1790 C1775 0.961 . S
H1791 C1775 0.960 . S
C1792 C1793 1.391 . S
C1792 C1794 1.394 . S
C1792 H1808 0.931 . S
C1793 C1792 1.391 . S
C1793 C1797 1.376 . S
C1794 C1792 1.394 . S
C1794 C1795 1.369 . S
C1794 C1798 1.531 . S
C1795 C1794 1.369 . S
C1795 C1796 1.410 . S
C1795 C1803 1.503 . S
C1796 C1795 1.410 . S
C1796 C1797 1.392 . S
C1796 C1799 1.511 . S
C1797 C1793 1.376 . S
C1797 C1796 1.392 . S
C1797 H1809 0.929 . S
C1798 C1794 1.531 . S
C1798 H1810 0.960 . S
C1798 H1811 0.962 . S
C1798 H1812 0.960 . S
C1799 C1796 1.511 . S
C1799 H1813 0.961 . S
C1799 H1814 0.961 . S
C1799 H1815 0.961 . S
C1800 C1801 1.370 . S
C1800 C1802 1.363 . S
C1800 H1816 0.931 . S
C1801 C1800 1.370 . S
C1801 C1805 1.408 . S
C1802 C1800 1.363 . S
C1802 C1803 1.370 . S
C1802 C1806 1.524 . S
C1803 C1795 1.503 . S
C1803 C1802 1.370 . S
C1803 C1804 1.403 . S
C1804 C1803 1.403 . S
C1804 C1805 1.404 . S
C1804 C1807 1.539 . S
C1805 C1801 1.408 . S
C1805 C1804 1.404 . S
C1805 H1817 0.930 . S
C1806 C1802 1.524 . S
C1806 H1818 0.956 . S
C1806 H1819 0.961 . S
C1806 H1820 0.961 . S
C1807 C1804 1.539 . S
C1807 H1821 0.958 . S
C1807 H1822 0.961 . S
C1807 H1823 0.960 . S
H1808 C1792 0.931 . S
H1809 C1797 0.929 . S
H1810 C1798 0.960 . S
H1811 C1798 0.962 . S
H1812 C1798 0.960 . S
H1813 C1799 0.961 . S
H1814 C1799 0.961 . S
H1815 C1799 0.961 . S
H1816 C1800 0.931 . S
H1817 C1805 0.930 . S
H1818 C1806 0.956 . S
H1819 C1806 0.961 . S
H1820 C1806 0.961 . S
H1821 C1807 0.958 . S
H1822 C1807 0.961 . S
H1823 C1807 0.960 . S
C545 C2 1.499 . S
C553 C138 1.489 . S
C577 C172 1.494 . S
C585 C36 1.488 . S
C609 C206 1.500 . S
C617 C70 1.492 . S
C641 C240 1.498 . S
C649 C104 1.489 . S
C673 C274 1.493 . S
C681 C410 1.488 . S
C705 C308 1.499 . S
C713 C444 1.491 . S
C737 C478 1.484 . S
C745 C342 1.491 . S
C769 C376 1.479 . S
C777 C512 1.497 . S
C801 C413 0.723 . S
C809 C9 0.799 . S
C833 C447 0.751 . S
C841 C43 0.801 . S
C865 C77 0.787 . S
C873 C481 0.783 . S
C897 C515 0.788 . S
C905 C111 0.780 . S
C929 C277 0.736 . S
C937 C145 0.805 . S
C961 C311 0.751 . S
C969 C179 0.765 . S
C993 C213 0.781 . S
C1001 C345 0.761 . S
C1025 C247 0.677 . S
C1033 C379 0.795 . S
C1057 C141 0.803 . S
C1065 C281 0.780 . S
C1089 C175 0.807 . S
C1097 C315 0.777 . S
C1121 C209 0.824 . S
C1129 C349 0.753 . S
C1153 C383 0.688 . S
C1161 C243 0.795 . S
C1185 C5 0.754 . S
C1193 C417 0.751 . S
C1217 C39 0.734 . S
C1225 C451 0.769 . S
C1249 C485 0.682 . S
C1257 C73 0.794 . S
C1281 C107 0.790 . S
C1289 C519 0.790 . S
C1313 C101 2.210 . S
C1321 C33 2.218 . S
C1345 C67 2.212 . S
C1353 C135 2.218 . S
C1377 C237 2.212 . S
C1385 C169 2.218 . S
C1409 C271 2.219 . S
C1417 C203 2.222 . S
C1441 C373 2.220 . S
C1449 C305 2.221 . S
C1473 C407 2.211 . S
C1481 C339 2.219 . S
C1505 C441 2.213 . S
C1513 C509 2.221 . S
C1537 C543 2.210 . S
C1545 C475 2.219 . S
C1569 C258 1.763 . S
C1577 C20 1.747 . S
C1601 C156 1.731 . S
C1609 C54 1.747 . S
C1633 C190 1.763 . S
C1641 C88 1.741 . S
C1665 C224 1.728 . S
C1673 C122 1.748 . S
C1697 C530 1.764 . S
C1705 C292 1.743 . S
C1729 C428 1.758 . S
C1737 C326 1.740 . S
C1761 C462 1.755 . S
C1769 C360 1.749 . S
C1793 C496 1.724 . S
C1801 C394 1.755 . S
