# Generated by pormake.
# Topology wfx, (7)-cn, num edge types: 1
# Building blocks:
#     Node 0, Type 0, BuildingBlock: NUHQUE_clean_sbu_2, # of connection points: 7
#     Node 1, Type 0, BuildingBlock: NUHQUE_clean_sbu_2, # of connection points: 7
#     Node 2, Type 0, BuildingBlock: NUHQUE_clean_sbu_2, # of connection points: 7
#     Node 3, Type 0, BuildingBlock: NUHQUE_clean_sbu_2, # of connection points: 7
#     Node 4, Type 0, BuildingBlock: NUHQUE_clean_sbu_2, # of connection points: 7
#     Node 5, Type 0, BuildingBlock: NUHQUE_clean_sbu_2, # of connection points: 7
#     Node 6, Type 0, BuildingBlock: NUHQUE_clean_sbu_2, # of connection points: 7
#     Node 7, Type 0, BuildingBlock: NUHQUE_clean_sbu_2, # of connection points: 7
#     Node 8, Type 0, BuildingBlock: NUHQUE_clean_sbu_2, # of connection points: 7
#     Node 9, Type 0, BuildingBlock: NUHQUE_clean_sbu_2, # of connection points: 7
#     Node 10, Type 0, BuildingBlock: NUHQUE_clean_sbu_2, # of connection points: 7
#     Node 11, Type 0, BuildingBlock: NUHQUE_clean_sbu_2, # of connection points: 7
#     Node 12, Type 0, BuildingBlock: NUHQUE_clean_sbu_2, # of connection points: 7
#     Node 13, Type 0, BuildingBlock: NUHQUE_clean_sbu_2, # of connection points: 7
#     Node 14, Type 0, BuildingBlock: NUHQUE_clean_sbu_2, # of connection points: 7
#     Node 15, Type 0, BuildingBlock: NUHQUE_clean_sbu_2, # of connection points: 7
#     Edge 16, Type (0, 0), BuildingBlock: ZUJKAS_clean_linker_0, # of connection points: 2
#     Edge 17, Type (0, 0), BuildingBlock: ZUJKAS_clean_linker_0, # of connection points: 2
#     Edge 18, Type (0, 0), BuildingBlock: ZUJKAS_clean_linker_0, # of connection points: 2
#     Edge 19, Type (0, 0), BuildingBlock: ZUJKAS_clean_linker_0, # of connection points: 2
#     Edge 20, Type (0, 0), BuildingBlock: ZUJKAS_clean_linker_0, # of connection points: 2
#     Edge 21, Type (0, 0), BuildingBlock: ZUJKAS_clean_linker_0, # of connection points: 2
#     Edge 22, Type (0, 0), BuildingBlock: ZUJKAS_clean_linker_0, # of connection points: 2
#     Edge 23, Type (0, 0), BuildingBlock: ZUJKAS_clean_linker_0, # of connection points: 2
#     Edge 24, Type (0, 0), BuildingBlock: ZUJKAS_clean_linker_0, # of connection points: 2
#     Edge 25, Type (0, 0), BuildingBlock: ZUJKAS_clean_linker_0, # of connection points: 2
#     Edge 26, Type (0, 0), BuildingBlock: ZUJKAS_clean_linker_0, # of connection points: 2
#     Edge 27, Type (0, 0), BuildingBlock: ZUJKAS_clean_linker_0, # of connection points: 2
#     Edge 28, Type (0, 0), BuildingBlock: ZUJKAS_clean_linker_0, # of connection points: 2
#     Edge 29, Type (0, 0), BuildingBlock: ZUJKAS_clean_linker_0, # of connection points: 2
#     Edge 30, Type (0, 0), BuildingBlock: ZUJKAS_clean_linker_0, # of connection points: 2
#     Edge 31, Type (0, 0), BuildingBlock: ZUJKAS_clean_linker_0, # of connection points: 2
#     Edge 32, Type (0, 0), BuildingBlock: ZUJKAS_clean_linker_0, # of connection points: 2
#     Edge 33, Type (0, 0), BuildingBlock: ZUJKAS_clean_linker_0, # of connection points: 2
#     Edge 34, Type (0, 0), BuildingBlock: ZUJKAS_clean_linker_0, # of connection points: 2
#     Edge 35, Type (0, 0), BuildingBlock: ZUJKAS_clean_linker_0, # of connection points: 2
#     Edge 36, Type (0, 0), BuildingBlock: ZUJKAS_clean_linker_0, # of connection points: 2
#     Edge 37, Type (0, 0), BuildingBlock: ZUJKAS_clean_linker_0, # of connection points: 2
#     Edge 38, Type (0, 0), BuildingBlock: ZUJKAS_clean_linker_0, # of connection points: 2
#     Edge 39, Type (0, 0), BuildingBlock: ZUJKAS_clean_linker_0, # of connection points: 2
#     Edge 40, Type (0, 0), BuildingBlock: ZUJKAS_clean_linker_0, # of connection points: 2
#     Edge 41, Type (0, 0), BuildingBlock: ZUJKAS_clean_linker_0, # of connection points: 2
#     Edge 42, Type (0, 0), BuildingBlock: ZUJKAS_clean_linker_0, # of connection points: 2
#     Edge 43, Type (0, 0), BuildingBlock: ZUJKAS_clean_linker_0, # of connection points: 2
#     Edge 44, Type (0, 0), BuildingBlock: ZUJKAS_clean_linker_0, # of connection points: 2
#     Edge 45, Type (0, 0), BuildingBlock: ZUJKAS_clean_linker_0, # of connection points: 2
#     Edge 46, Type (0, 0), BuildingBlock: ZUJKAS_clean_linker_0, # of connection points: 2
#     Edge 47, Type (0, 0), BuildingBlock: ZUJKAS_clean_linker_0, # of connection points: 2
#     Edge 48, Type (0, 0), BuildingBlock: ZUJKAS_clean_linker_0, # of connection points: 2
#     Edge 49, Type (0, 0), BuildingBlock: ZUJKAS_clean_linker_0, # of connection points: 2
#     Edge 50, Type (0, 0), BuildingBlock: ZUJKAS_clean_linker_0, # of connection points: 2
#     Edge 51, Type (0, 0), BuildingBlock: ZUJKAS_clean_linker_0, # of connection points: 2
#     Edge 52, Type (0, 0), BuildingBlock: ZUJKAS_clean_linker_0, # of connection points: 2
#     Edge 53, Type (0, 0), BuildingBlock: ZUJKAS_clean_linker_0, # of connection points: 2
#     Edge 54, Type (0, 0), BuildingBlock: ZUJKAS_clean_linker_0, # of connection points: 2
#     Edge 55, Type (0, 0), BuildingBlock: ZUJKAS_clean_linker_0, # of connection points: 2
#     Edge 56, Type (0, 0), BuildingBlock: ZUJKAS_clean_linker_0, # of connection points: 2
#     Edge 57, Type (0, 0), BuildingBlock: ZUJKAS_clean_linker_0, # of connection points: 2
#     Edge 58, Type (0, 0), BuildingBlock: ZUJKAS_clean_linker_0, # of connection points: 2
#     Edge 59, Type (0, 0), BuildingBlock: ZUJKAS_clean_linker_0, # of connection points: 2
#     Edge 60, Type (0, 0), BuildingBlock: ZUJKAS_clean_linker_0, # of connection points: 2
#     Edge 61, Type (0, 0), BuildingBlock: ZUJKAS_clean_linker_0, # of connection points: 2
#     Edge 62, Type (0, 0), BuildingBlock: ZUJKAS_clean_linker_0, # of connection points: 2
#     Edge 63, Type (0, 0), BuildingBlock: ZUJKAS_clean_linker_0, # of connection points: 2
#     Edge 64, Type (0, 0), BuildingBlock: ZUJKAS_clean_linker_0, # of connection points: 2
#     Edge 65, Type (0, 0), BuildingBlock: ZUJKAS_clean_linker_0, # of connection points: 2
#     Edge 66, Type (0, 0), BuildingBlock: ZUJKAS_clean_linker_0, # of connection points: 2
#     Edge 67, Type (0, 0), BuildingBlock: ZUJKAS_clean_linker_0, # of connection points: 2
#     Edge 68, Type (0, 0), BuildingBlock: ZUJKAS_clean_linker_0, # of connection points: 2
#     Edge 69, Type (0, 0), BuildingBlock: ZUJKAS_clean_linker_0, # of connection points: 2
#     Edge 70, Type (0, 0), BuildingBlock: ZUJKAS_clean_linker_0, # of connection points: 2
#     Edge 71, Type (0, 0), BuildingBlock: ZUJKAS_clean_linker_0, # of connection points: 2
# Relax obj value: 0.251
# Max RMSD: 0.273
# Mean RMSD: 0.273
data_MOF--net-wfx--node1-NUHQUE_clean_sbu_2--edge1-ZUJKAS_clean_linker_0
_symmetry_space_group_name_H-M    P1
_symmetry_Int_Tables_number       1
_symmetry_cell_setting            triclinic
loop_
_symmetry_equiv_pos_as_xyz
'x, y, z'
_cell_length_a     55.046359
_cell_length_b     54.953937
_cell_length_c     61.9564
_cell_angle_alpha  89.961668
_cell_angle_beta   90.021293
_cell_angle_gamma 90.204677
loop_
_atom_site_label
_atom_site_type_symbol
_atom_site_fract_x
_atom_site_fract_y
_atom_site_fract_z
_atom_type_partial_charge
O0 O 0.65535 0.11569 0.08286 0.0
Tb1 Tb 0.67837 0.10015 0.10782 0.0
Eu2 Eu 0.70417 0.04186 0.12262 0.0
C3 C 0.66639 0.12995 0.06882 0.0
O4 O 0.69005 0.13273 0.07052 0.0
C5 C 0.72248 0.07707 0.08532 0.0
O6 O 0.73817 0.02197 0.13269 0.0
C7 C 0.67485 0.0133 0.10137 0.0
C8 C 0.73877 1.00402 0.14674 0.0
O9 O 0.7187 0.99728 0.15656 0.0
C10 C 0.6662 0.07221 0.15028 0.0
C11 C 0.6498 1.00292 0.10031 0.0
C12 C 0.63309 0.01252 0.0853 0.0
C13 C 0.61001 1.00194 0.08265 0.0
C14 C 0.6036 0.98174 0.09521 0.0
C15 C 0.62002 0.97129 0.10973 0.0
C16 C 0.64325 0.98182 0.11219 0.0
O17 O 0.69957 0.0828 0.08245 0.0
O18 O 0.72929 0.06506 0.10257 0.0
O19 O 0.71033 0.11892 0.12139 0.0
O20 O 0.67682 0.13777 0.11872 0.0
C21 C 0.69943 0.13971 0.1245 0.0
O22 O 0.68683 0.06018 0.15105 0.0
O23 O 0.65715 0.08006 0.13181 0.0
O24 O 0.68928 1.00569 0.11689 0.0
O25 O 0.67786 0.03654 0.09669 0.0
H26 H 0.63821 0.02788 0.07527 0.0
H27 H 0.58615 0.97298 0.09261 0.0
H28 H 0.65617 0.97337 0.12301 0.0
O29 O 0.39008 0.67628 0.0856 0.0
Tb30 Tb 0.3999 0.68931 0.11766 0.0
Eu31 Eu 0.47033 0.69616 0.12009 0.0
C32 C 0.38306 0.65352 0.08311 0.0
O33 O 0.38555 0.63845 0.09944 0.0
C34 C 0.43107 0.72863 0.09394 0.0
O35 O 0.49508 0.72849 0.1263 0.0
C36 C 0.49562 0.66062 0.10402 0.0
C37 C 0.48645 0.75013 0.13117 0.0
O38 O 0.46288 0.75271 0.13353 0.0
C39 C 0.43364 0.67081 0.15271 0.0
C40 C 0.50579 0.63561 0.10444 0.0
C41 C 0.49679 0.61847 0.08953 0.0
C42 C 0.50807 0.59579 0.0869 0.0
C43 C 0.52821 0.59007 0.09974 0.0
C44 C 0.53788 0.60688 0.11448 0.0
C45 C 0.52666 0.62978 0.11672 0.0
O46 O 0.41469 0.72475 0.10901 0.0
O47 O 0.45135 0.71601 0.09288 0.0
O48 O 0.36176 0.6805 0.12398 0.0
O49 O 0.3781 0.70943 0.14127 0.0
C50 C 0.35799 0.69742 0.13819 0.0
O51 O 0.45167 0.68658 0.15161 0.0
O52 O 0.42274 0.6638 0.13492 0.0
O53 O 0.50493 0.67742 0.11671 0.0
O54 O 0.47225 0.66349 0.10023 0.0
H55 H 0.48155 0.62316 0.07927 0.0
H56 H 0.53761 0.57302 0.09705 0.0
H57 H 0.53455 0.64314 0.12751 0.0
O58 O 0.86455 0.39297 0.08753 0.0
Tb59 Tb 0.83841 0.41087 0.10835 0.0
Eu60 Eu 0.8139 0.46911 0.11964 0.0
C61 C 0.87522 0.40305 0.07076 0.0
O62 O 0.87223 0.42635 0.06686 0.0
C63 C 0.79592 0.43302 0.08279 0.0
O64 O 0.7834 0.49407 0.1299 0.0
C65 C 0.84624 0.49384 0.09803 0.0
C66 C 0.76222 0.48534 0.13611 0.0
O67 O 0.75945 0.46165 0.13778 0.0
C68 C 0.8493 0.43985 0.15035 0.0
C69 C 0.87085 0.50514 0.09866 0.0
C70 C 0.88854 0.49718 0.08383 0.0
C71 C 0.91124 0.5089 0.08245 0.0
C72 C 0.91618 0.52859 0.09612 0.0
C73 C 0.89881 0.53727 0.1107 0.0
C74 C 0.87605 0.52551 0.11191 0.0
O75 O 0.81868 0.42609 0.08104 0.0
O76 O 0.7888 0.44616 0.09931 0.0
O77 O 0.80554 0.39429 0.12251 0.0
O78 O 0.83752 0.37317 0.11912 0.0
C79 C 0.81502 0.37277 0.12536 0.0
O80 O 0.82898 0.45241 0.14995 0.0
O81 O 0.85897 0.43139 0.1324 0.0
O82 O 0.82906 0.50386 0.10971 0.0
O83 O 0.84458 0.46994 0.09714 0.0
H84 H 0.88443 0.48226 0.07297 0.0
H85 H 0.93323 0.53835 0.09436 0.0
H86 H 0.86238 0.5325 0.12282 0.0
O87 O 0.11294 0.85817 0.08933 0.0
Tb88 Tb 0.09373 0.83586 0.11296 0.0
Eu89 Eu 0.03589 0.8126 0.12671 0.0
C90 C 0.12855 0.84684 0.07675 0.0
O91 O 0.1311 0.82322 0.0792 0.0
C92 C 0.06851 0.79369 0.0883 0.0
O93 O 0.01123 0.78237 0.13863 0.0
C94 C 0.0104 0.84348 0.10439 0.0
C95 C 0.01984 0.76071 0.14349 0.0
O96 O 0.04347 0.75746 0.14354 0.0
C97 C 0.06646 0.84972 0.15487 0.0
C98 C 0.99775 0.86731 0.10373 0.0
C99 C 1.00445 0.88444 0.08782 0.0
C100 C 0.99018 0.90521 0.08409 0.0
C101 C 0.96951 0.90903 0.09681 0.0
C102 C 0.96235 0.89217 0.11251 0.0
C103 C 0.97666 0.87149 0.11622 0.0
O104 O 0.07691 0.81603 0.08633 0.0
O105 O 0.05701 0.78684 0.10583 0.0
O106 O 0.10729 0.80188 0.12725 0.0
O107 O 0.12977 0.83343 0.12724 0.0
C108 C 0.12849 0.81063 0.13269 0.0
O109 O 0.05383 0.82933 0.15583 0.0
O110 O 0.07405 0.85833 0.13613 0.0
O111 O 1.00091 0.82625 0.11648 0.0
O112 O 0.03431 0.84301 0.10378 0.0
H113 H 0.01994 0.88088 0.07751 0.0
H114 H 0.9584 0.92501 0.09411 0.0
H115 H 0.97059 0.85812 0.12791 0.0
O116 O 0.1594 0.89703 0.41714 0.0
Tb117 Tb 0.18046 0.91808 0.39388 0.0
Eu118 Eu 0.20275 0.97655 0.38069 0.0
C119 C 0.1715 0.88135 0.42909 0.0
O120 O 0.19512 0.87979 0.42636 0.0
C121 C 0.22198 0.94313 0.41897 0.0
O122 O 0.23313 1.00036 0.36793 0.0
C123 C 0.17247 1.00357 0.40224 0.0
C124 C 0.25464 0.99132 0.36334 0.0
O125 O 0.25771 0.96764 0.36422 0.0
C126 C 0.16498 0.94594 0.35296 0.0
C127 C 0.14849 0.01606 0.40278 0.0
C128 C 0.12996 1.00693 0.41633 0.0
C129 C 0.10843 0.02016 0.41966 0.0
C130 C 0.10568 0.04273 0.40943 0.0
C131 C 0.12388 0.0524 0.39619 0.0
C132 C 0.14516 0.0389 0.39259 0.0
O133 O 0.19959 0.93502 0.42073 0.0
O134 O 0.22871 0.95572 0.40194 0.0
O135 O 0.2145 0.90668 0.37836 0.0
O136 O 0.18433 0.8824 0.3791 0.0
C137 C 0.20676 0.88504 0.37298 0.0
O138 O 0.18544 0.95842 0.35181 0.0
O139 O 0.15693 0.93785 0.3717 0.0
O140 O 0.18921 0.0123 0.38923 0.0
O141 O 0.17322 0.9797 0.4042 0.0
H142 H 0.13256 0.98985 0.42476 0.0
H143 H 0.08961 0.05354 0.41254 0.0
H144 H 0.15949 0.04679 0.38283 0.0
O145 O 0.61608 0.15637 0.41985 0.0
Tb146 Tb 0.60146 0.17909 0.39417 0.0
Eu147 Eu 0.54395 0.20174 0.3776 0.0
C148 C 0.62972 0.1675 0.43429 0.0
O149 O 0.63259 0.19118 0.43256 0.0
C150 C 0.57577 0.22334 0.41544 0.0
O151 O 0.51947 0.23125 0.36476 0.0
C152 C 0.51828 0.17052 0.39957 0.0
C153 C 0.5285 0.25094 0.35568 0.0
O154 O 0.55206 0.25239 0.35252 0.0
C155 C 0.5759 0.16478 0.35104 0.0
C156 C 0.50814 0.1454 0.39996 0.0
C157 C 0.51693 0.12871 0.41533 0.0
C158 C 0.50613 0.10565 0.41768 0.0
C159 C 0.48652 0.09929 0.40438 0.0
C160 C 0.47703 0.1157 0.38927 0.0
C161 C 0.48789 0.13882 0.38712 0.0
O162 O 0.58347 0.20102 0.41881 0.0
O163 O 0.56437 0.22903 0.39757 0.0
O164 O 0.62019 0.21077 0.37994 0.0
O165 O 0.63957 0.17785 0.38486 0.0
C166 C 0.64129 0.20016 0.37809 0.0
O167 O 0.56338 0.18506 0.34954 0.0
O168 O 0.58325 0.15648 0.36995 0.0
O169 O 0.50893 0.18601 0.38572 0.0
O170 O 0.54186 0.17341 0.40235 0.0
H171 H 0.53179 0.13389 0.42588 0.0
H172 H 0.47745 0.08196 0.40685 0.0
H173 H 0.48022 0.15172 0.37581 0.0
O174 O 0.33877 0.62845 0.42071 0.0
Tb175 Tb 0.32453 0.61692 0.38963 0.0
Eu176 Eu 0.31763 0.53792 0.38639 0.0
C177 C 0.36125 0.63661 0.42143 0.0
O178 O 0.37443 0.63553 0.40378 0.0
C179 C 0.29104 0.58014 0.41102 0.0
O180 O 0.28471 0.51476 0.37849 0.0
C181 C 0.3521 0.51086 0.40203 0.0
C182 C 0.26414 0.52446 0.37196 0.0
O183 O 0.26315 0.54809 0.36889 0.0
C184 C 0.34126 0.57982 0.35596 0.0
C185 C 0.3768 0.5003 0.40006 0.0
C186 C 0.39424 0.50596 0.416 0.0
C187 C 0.41652 0.49359 0.41675 0.0
C188 C 0.42176 0.47635 0.40083 0.0
C189 C 0.40469 0.47019 0.38499 0.0
C190 C 0.38207 0.48201 0.38471 0.0
O191 O 0.29525 0.59091 0.39253 0.0
O192 O 0.29776 0.55739 0.41322 0.0
O193 O 0.29705 0.64236 0.37829 0.0
O194 O 0.3336 0.64735 0.36811 0.0
C195 C 0.31164 0.65609 0.3671 0.0
O196 O 0.32889 0.5591 0.35631 0.0
O197 O 0.34791 0.59035 0.37411 0.0
O198 O 0.33482 0.50256 0.38933 0.0
O199 O 0.35 0.53417 0.40655 0.0
H200 H 0.3899 0.51891 0.4286 0.0
H201 H 0.43892 0.4667 0.40142 0.0
H202 H 0.36854 0.47652 0.37297 0.0
O203 O 0.89148 0.36689 0.41546 0.0
Tb204 Tb 0.91031 0.34085 0.395 0.0
Eu205 Eu 0.96934 0.31551 0.38293 0.0
C206 C 0.89844 0.37296 0.43506 0.0
O207 O 0.91967 0.36572 0.44226 0.0
C208 C 0.93319 0.29812 0.42039 0.0
O209 O 0.98989 0.281 0.37501 0.0
C210 C 0.99657 0.3457 0.40453 0.0
C211 C 0.00944 0.27998 0.3628 0.0
O212 O 0.01733 0.29981 0.35319 0.0
C213 C 0.93975 0.35207 0.35352 0.0
C214 C 1.00783 0.37033 0.40575 0.0
C215 C 1.00064 0.3862 0.42245 0.0
C216 C 0.01309 0.4082 0.42602 0.0
C217 C 0.03205 0.41482 0.41214 0.0
C218 C 0.03985 0.39932 0.39566 0.0
C219 C 0.02787 0.3769 0.39258 0.0
O220 O 0.92507 0.32052 0.42216 0.0
O221 O 0.94591 0.29121 0.40355 0.0
O222 O 0.89434 0.30789 0.38041 0.0
O223 O 0.8732 0.33997 0.38284 0.0
C224 C 0.87302 0.31739 0.37675 0.0
O225 O 0.95221 0.33166 0.35324 0.0
O226 O 0.93211 0.36142 0.37189 0.0
O227 O 1.00504 0.33036 0.39012 0.0
O228 O 0.97297 0.34355 0.40778 0.0
H229 H 0.98626 0.38081 0.43343 0.0
H230 H 0.04165 0.43184 0.41482 0.0
H231 H 0.03445 0.36455 0.3803 0.0
O232 O 0.34507 0.8991 0.92245 0.0
Tb233 Tb 0.32982 0.90423 0.89046 0.0
Eu234 Eu 0.3292 0.97085 0.8903 0.0
C235 C 0.36806 0.89305 0.92437 0.0
O236 O 0.38173 0.89291 0.90699 0.0
C237 C 0.29323 0.93536 0.91553 0.0
O238 O 0.29745 0.99519 0.88251 0.0
C239 C 0.36545 0.9957 0.90576 0.0
C240 C 0.27881 0.9868 0.87147 0.0
O241 O 0.27942 0.96429 0.86434 0.0
C242 C 0.35287 0.93597 0.85499 0.0
C243 C 0.38977 1.00682 0.90255 0.0
C244 C 0.40902 0.99906 0.91582 0.0
C245 C 0.43155 0.01115 0.91554 0.0
C246 C 0.4349 0.03075 0.90138 0.0
C247 C 0.41588 0.03918 0.88835 0.0
C248 C 0.39325 0.02721 0.88899 0.0
O249 O 0.29523 0.92043 0.89914 0.0
O250 O 0.30877 0.95332 0.91795 0.0
O251 O 0.3336 0.86463 0.89004 0.0
O252 O 0.31073 0.8814 0.86689 0.0
C253 C 0.31902 0.86072 0.87391 0.0
O254 O 0.33774 0.95424 0.85762 0.0
O255 O 0.35795 0.92144 0.87117 0.0
O256 O 0.34666 1.00571 0.89615 0.0
O257 O 0.36387 0.97183 0.90737 0.0
H258 H 0.40614 0.98419 0.92705 0.0
H259 H 0.45187 0.04085 0.90176 0.0
H260 H 0.37832 0.03423 0.87947 0.0
O261 O 0.61802 0.33729 0.91651 0.0
Tb262 Tb 0.60509 0.31828 0.88792 0.0
Eu263 Eu 0.53013 0.32445 0.88496 0.0
C264 C 0.62631 0.32537 0.93338 0.0
O265 O 0.62453 0.30155 0.93384 0.0
C266 C 0.56511 0.2906 0.91045 0.0
O267 O 0.50706 0.29179 0.87662 0.0
C268 C 0.50391 0.36035 0.89883 0.0
C269 C 0.51593 0.27416 0.86468 0.0
O270 O 0.53797 0.2765 0.85679 0.0
C271 C 0.57338 0.34338 0.85295 0.0
C272 C 0.49449 0.38544 0.89624 0.0
C273 C 0.50214 0.40342 0.91096 0.0
C274 C 0.4911 0.42642 0.91139 0.0
C275 C 0.47274 0.43159 0.89642 0.0
C276 C 0.46449 0.41388 0.88183 0.0
C277 C 0.47535 0.39074 0.88184 0.0
O278 O 0.5764 0.29175 0.89191 0.0
O279 O 0.5458 0.30405 0.91317 0.0
O280 O 0.63184 0.2892 0.88694 0.0
O281 O 0.63284 0.31624 0.86246 0.0
C282 C 0.64313 0.29654 0.86972 0.0
O283 O 0.55177 0.33293 0.85459 0.0
O284 O 0.58717 0.34727 0.86999 0.0
O285 O 0.49535 0.34303 0.88625 0.0
O286 O 0.52694 0.35753 0.90406 0.0
H287 H 0.51604 0.39914 0.92276 0.0
H288 H 0.46335 0.44888 0.89728 0.0
H289 H 0.46832 0.37677 0.87116 0.0
O290 O 0.14186 0.62176 0.91274 0.0
Tb291 Tb 0.16785 0.60186 0.89314 0.0
Eu292 Eu 0.19153 0.54462 0.88342 0.0
C293 C 0.13433 0.61386 0.93164 0.0
O294 O 0.14048 0.59196 0.93809 0.0
C295 C 0.20956 0.58029 0.92066 0.0
O296 O 0.22218 0.51942 0.87463 0.0
C297 C 0.15873 0.52005 0.90458 0.0
C298 C 0.23514 0.52149 0.8569 0.0
O299 O 0.22956 0.53832 0.84269 0.0
C300 C 0.15745 0.57319 0.85152 0.0
C301 C 0.13455 0.50792 0.90345 0.0
C302 C 0.11554 0.51634 0.91672 0.0
C303 C 0.09326 0.50375 0.91774 0.0
C304 C 0.09001 0.48282 0.90515 0.0
C305 C 0.10885 0.47363 0.89243 0.0
C306 C 0.13113 0.48616 0.89159 0.0
O307 O 0.18716 0.58851 0.92153 0.0
O308 O 0.21671 0.56672 0.90443 0.0
O309 O 0.17198 0.63793 0.87902 0.0
O310 O 0.20233 0.61414 0.87895 0.0
C311 C 0.19466 0.63572 0.8736 0.0
O312 O 0.17787 0.56085 0.85234 0.0
O313 O 0.14725 0.58085 0.8695 0.0
O314 O 0.17665 0.51002 0.89382 0.0
O315 O 0.15975 0.54402 0.90477 0.0
H316 H 0.11834 0.53225 0.92678 0.0
H317 H 0.07326 0.47246 0.90649 0.0
H318 H 0.14585 0.47858 0.88217 0.0
O319 O 0.90658 0.1681 0.92177 0.0
Tb320 Tb 0.91616 0.18549 0.89139 0.0
Eu321 Eu 0.98434 0.18961 0.89081 0.0
C322 C 0.89555 0.18055 0.937 0.0
O323 O 0.89329 0.20419 0.93476 0.0
C324 C 0.94705 0.22468 0.91596 0.0
O325 O 0.00843 0.22209 0.8839 0.0
C326 C 0.00942 0.15421 0.90737 0.0
C327 C 1.0011 0.23997 0.87138 0.0
O328 O 0.97984 0.23819 0.86187 0.0
C329 C 0.94939 0.16394 0.85724 0.0
C330 C 0.02045 0.12968 0.90561 0.0
C331 C 0.01331 0.11156 0.92049 0.0
C332 C 0.02584 0.08937 0.92172 0.0
C333 C 0.0448 0.08491 0.90723 0.0
C334 C 0.05249 0.10269 0.89254 0.0
C335 C 0.04042 0.1252 0.89184 0.0
O336 O 0.93011 0.22078 0.9014 0.0
O337 O 0.96622 0.21059 0.91774 0.0
O338 O 0.87689 0.1814 0.88783 0.0
O339 O 0.89604 0.2024 0.86471 0.0
C340 C 0.87468 0.19464 0.87059 0.0
O341 O 0.96724 0.17984 0.85863 0.0
O342 O 0.93712 0.15808 0.87462 0.0
O343 O 0.01915 0.17223 0.89633 0.0
O344 O 0.98568 0.15597 0.90961 0.0
H345 H 0.999 0.11534 0.93202 0.0
H346 H 0.05458 0.06783 0.90817 0.0
H347 H 0.04701 0.13928 0.88105 0.0
O348 O 0.84251 0.11886 0.58605 0.0
Tb349 Tb 0.82913 0.11285 0.61856 0.0
Eu350 Eu 0.83133 0.04485 0.61835 0.0
C351 C 0.86548 0.12464 0.58317 0.0
O352 O 0.88039 0.12314 0.59968 0.0
C353 C 0.79425 0.07951 0.59398 0.0
O354 O 0.79899 0.02107 0.62634 0.0
C355 C 0.86617 0.01863 0.60232 0.0
C356 C 0.77972 0.02999 0.63604 0.0
O357 O 0.77995 0.05289 0.64212 0.0
C358 C 0.85488 0.08141 0.65304 0.0
C359 C 0.88997 1.00621 0.6042 0.0
C360 C 0.90796 0.01143 0.58865 0.0
C361 C 0.9295 0.99777 0.5877 0.0
C362 C 0.93343 0.9797 0.60328 0.0
C363 C 0.91549 0.97352 0.61834 0.0
C364 C 0.89365 0.98674 0.61876 0.0
O365 O 0.79554 0.09406 0.61071 0.0
O366 O 0.8109 0.06279 0.59098 0.0
O367 O 0.83267 0.15249 0.6184 0.0
O368 O 0.80901 0.13608 0.64116 0.0
C369 C 0.81743 0.15671 0.63393 0.0
O370 O 0.84098 0.06199 0.65064 0.0
O371 O 0.85847 0.09663 0.63701 0.0
O372 O 0.84741 0.00943 0.61268 0.0
O373 O 0.86563 0.04254 0.60063 0.0
H374 H 0.90445 0.0251 0.57643 0.0
H375 H 0.95006 0.96919 0.60283 0.0
H376 H 0.87945 0.98141 0.62991 0.0
O377 O 0.39822 0.84707 0.58588 0.0
Tb378 Tb 0.41062 0.83456 0.61732 0.0
Eu379 Eu 0.48019 0.82912 0.61611 0.0
C380 C 0.39257 0.87012 0.58314 0.0
O381 O 0.39693 0.88548 0.59893 0.0
C382 C 0.43997 0.79683 0.59124 0.0
O383 O 0.50268 0.7956 0.62289 0.0
C384 C 0.50713 0.86348 0.59977 0.0
C385 C 0.4929 0.77594 0.63141 0.0
O386 O 0.46982 0.77628 0.63681 0.0
C387 C 0.44595 0.85636 0.64933 0.0
C388 C 0.51818 0.88809 0.6018 0.0
C389 C 0.50983 0.90675 0.58809 0.0
C390 C 0.52158 0.92947 0.58742 0.0
C391 C 0.54148 0.93364 0.60101 0.0
C392 C 0.55057 0.91523 0.61438 0.0
C393 C 0.53898 0.89235 0.61468 0.0
O394 O 0.42553 0.79967 0.60787 0.0
O395 O 0.45991 0.80992 0.5891 0.0
O396 O 0.37261 0.84051 0.62601 0.0
O397 O 0.39304 0.81471 0.64375 0.0
C398 C 0.37177 0.82462 0.64155 0.0
O399 O 0.46348 0.84019 0.64811 0.0
O400 O 0.4337 0.86197 0.6319 0.0
O401 O 0.51586 0.8456 0.61154 0.0
O402 O 0.48352 0.86191 0.59655 0.0
H403 H 0.4947 0.9033 0.57729 0.0
H404 H 0.55125 0.95078 0.59994 0.0
H405 H 0.54653 0.87787 0.62446 0.0
O406 O 0.64752 0.39897 0.58943 0.0
Tb407 Tb 0.67171 0.41938 0.61048 0.0
Eu408 Eu 0.69228 0.47774 0.62352 0.0
C409 C 0.64041 0.40657 0.57032 0.0
O410 O 0.64597 0.42871 0.56397 0.0
C411 C 0.71368 0.4449 0.58591 0.0
O412 O 0.72161 0.50228 0.63664 0.0
C413 C 0.66102 0.5029 0.60132 0.0
C414 C 0.739 0.49344 0.64886 0.0
O415 O 0.73807 0.4704 0.65452 0.0
C416 C 0.65701 0.44611 0.65217 0.0
C417 C 0.63667 0.51452 0.60064 0.0
C418 C 0.62011 0.50731 0.58445 0.0
C419 C 0.59836 0.52013 0.58126 0.0
C420 C 0.59267 0.53945 0.59505 0.0
C421 C 0.60889 0.54724 0.61101 0.0
C422 C 0.63104 0.53488 0.6137 0.0
O423 O 0.69181 0.43547 0.58362 0.0
O424 O 0.71937 0.45758 0.60315 0.0
O425 O 0.70543 0.40663 0.62588 0.0
O426 O 0.6753 0.38261 0.62314 0.0
C427 C 0.69757 0.38464 0.6298 0.0
O428 O 0.67681 0.45948 0.6529 0.0
O429 O 0.64856 0.43835 0.6335 0.0
O430 O 0.67762 0.51267 0.61391 0.0
O431 O 0.66242 0.47899 0.60016 0.0
H432 H 0.62481 0.49265 0.57353 0.0
H433 H 0.57588 0.54937 0.59262 0.0
H434 H 0.64394 0.54146 0.62558 0.0
O435 O 0.12551 0.68066 0.58437 0.0
Tb436 Tb 0.11024 0.69403 0.61451 0.0
Eu437 Eu 0.03254 0.6903 0.61555 0.0
C438 C 0.14351 0.69257 0.57512 0.0
O439 O 0.15074 0.71326 0.58361 0.0
C440 C 0.07104 0.72051 0.58977 0.0
O441 O 0.01031 0.72338 0.62413 0.0
C442 C 1.0053 0.65497 0.60151 0.0
C443 C 0.01972 0.74119 0.63562 0.0
O444 O 0.04207 0.73904 0.64281 0.0
C445 C 0.07523 0.67071 0.64756 0.0
C446 C 0.99433 0.6306 0.60499 0.0
C447 C 0.99951 0.61196 0.59008 0.0
C448 C 0.9868 0.58975 0.59074 0.0
C449 C 0.96968 0.58587 0.60711 0.0
C450 C 0.96396 0.60424 0.62189 0.0
C451 C 0.97618 0.6267 0.62074 0.0
O452 O 0.08139 0.71969 0.60877 0.0
O453 O 0.05007 0.70952 0.58739 0.0
O454 O 0.13024 0.72591 0.62569 0.0
O455 O 0.1399 0.69124 0.63806 0.0
C456 C 0.145 0.7144 0.63844 0.0
O457 O 0.05349 0.68083 0.64613 0.0
O458 O 0.08807 0.66616 0.63009 0.0
O459 O 0.99695 0.67343 0.61277 0.0
O460 O 0.02877 0.65638 0.59751 0.0
H461 H 0.01235 0.61529 0.57713 0.0
H462 H 0.95971 0.56882 0.60762 0.0
H463 H 0.97105 0.64119 0.63167 0.0
H464 H 0.48064 1.00751 0.90922 0.0
H465 H 0.51234 1.00585 0.93694 0.0
H466 H 0.45734 1.00245 0.98642 0.0
H467 H 0.42564 1.00406 0.95885 0.0
H468 H 0.51915 0.04011 0.96887 0.0
H469 H 0.5037 0.94917 0.00517 0.0
H470 H 0.49102 0.95779 0.97941 0.0
H471 H 0.47672 0.96737 0.00409 0.0
C472 C 0.47534 1.00596 0.926 0.0
C473 C 0.45064 1.00582 0.93184 0.0
C474 C 0.49345 1.00506 0.9418 0.0
C475 C 0.48722 1.00386 0.96374 0.0
C476 C 0.46259 1.00286 0.96958 0.0
H477 H 0.56144 0.01066 0.08596 0.0
H478 H 0.53225 0.01383 0.05632 0.0
C479 C 0.44447 1.0037 0.95378 0.0
C480 C 0.50636 1.00543 0.98057 0.0
H481 H 0.52884 0.97656 0.02504 0.0
C482 C 0.52144 0.02612 0.98105 0.0
C483 C 0.50929 0.98718 0.99645 0.0
C484 C 0.49449 0.96401 0.99619 0.0
C485 C 0.53893 0.02936 0.99734 0.0
C486 C 0.54151 0.01131 0.01342 0.0
C487 C 0.52666 0.99048 0.01277 0.0
C488 C 0.55948 0.01345 0.03116 0.0
C489 C 0.55403 0.05231 0.99759 0.0
C490 C 0.58452 0.01301 0.02685 0.0
C491 C 0.60127 0.01128 0.0438 0.0
C492 C 0.59317 0.00975 0.06528 0.0
C493 C 0.56817 0.01171 0.06955 0.0
C494 C 0.55149 0.01345 0.05265 0.0
H495 H 0.54614 0.06669 0.98713 0.0
H496 H 0.55581 0.0595 0.01426 0.0
H497 H 0.57253 0.04817 0.99153 0.0
H498 H 0.59106 0.01264 0.01037 0.0
H499 H 0.62039 0.00944 0.04002 0.0
H500 H 0.50261 0.54632 0.0885 0.0
H501 H 0.49865 0.51839 0.0579 0.0
H502 H 0.4942 0.57944 0.01435 0.0
H503 H 0.49871 0.60749 0.0448 0.0
H504 H 0.46305 0.51328 0.02463 0.0
H505 H 0.55351 0.5405 0.99261 0.0
H506 H 0.54366 0.54811 0.01955 0.0
H507 H 0.53247 0.56497 0.99681 0.0
C508 C 0.50051 0.55378 0.07242 0.0
C509 C 0.50115 0.5791 0.06904 0.0
C510 C 0.49822 0.53782 0.05498 0.0
C511 C 0.49664 0.54686 0.03385 0.0
C512 C 0.49583 0.57211 0.03052 0.0
H513 H 0.49627 0.47595 0.90845 0.0
H514 H 0.49789 0.50523 0.93821 0.0
C515 C 0.49809 0.58811 0.04796 0.0
C516 C 0.49695 0.52982 0.01533 0.0
H517 H 0.53095 0.51225 0.97196 0.0
C518 C 0.47787 0.51302 0.0131 0.0
C519 C 0.51636 0.52954 1.00036 0.0
C520 C 0.5378 0.54658 1.00245 0.0
C521 C 0.47753 0.49611 0.99612 0.0
C522 C 0.49707 0.49566 0.98127 0.0
C523 C 0.51606 0.51259 0.98341 0.0
C524 C 0.498 0.47785 0.96332 0.0
C525 C 0.45602 0.47917 0.994 0.0
C526 C 0.49846 0.45277 0.96756 0.0
C527 C 0.49747 0.43601 0.95061 0.0
C528 C 0.49615 0.44404 0.92908 0.0
C529 C 0.497 0.4692 0.92487 0.0
C530 C 0.49797 0.48594 0.94184 0.0
H531 H 0.43999 0.48597 0.00303 0.0
H532 H 0.45085 0.47672 0.97681 0.0
H533 H 0.46088 0.46109 1.00069 0.0
H534 H 0.49902 0.44615 0.98402 0.0
H535 H 0.49661 0.4168 0.95446 0.0
H536 H 0.09904 0.51325 0.96074 0.0
H537 H 0.06706 0.51443 0.98825 0.0
H538 H 0.0125 0.50875 0.93853 0.0
H539 H 0.04437 0.50744 0.911 0.0
H540 H 0.0261 0.54379 0.99559 0.0
H541 H 0.99936 0.44874 0.97619 0.0
H542 H 0.02709 0.46238 0.96631 0.0
H543 H 0.99854 0.46924 0.95362 0.0
C544 C 0.08022 0.51293 0.95565 0.0
C545 C 0.0742 0.51006 0.93374 0.0
C546 C 0.06197 0.51339 0.97138 0.0
C547 C 0.03745 0.51098 0.96546 0.0
C548 C 0.03134 0.50996 0.94349 0.0
H549 H 0.903 0.50208 0.03926 0.0
H550 H 0.93365 0.50099 0.01051 0.0
C551 C 0.04954 0.50941 0.92778 0.0
C552 C 0.01837 0.50847 0.98226 0.0
H553 H 0.975 0.46948 1.00171 0.0
C554 C 0.01497 0.52754 0.99696 0.0
C555 C 1.00389 0.48718 0.98404 0.0
C556 C 1.00748 0.4656 0.96934 0.0
C557 C 0.99724 0.52607 0.01322 0.0
C558 C 0.98281 0.50478 0.01502 0.0
C559 C 0.9861 0.48575 1.00026 0.0
C560 C 0.96436 0.50203 0.0323 0.0
C561 C 0.99382 0.54747 0.02815 0.0
C562 C 0.97152 0.50167 0.05402 0.0
C563 C 0.95412 0.50209 0.07041 0.0
C564 C 0.9292 0.50281 0.06539 0.0
C565 C 0.92204 0.50136 0.04363 0.0
C566 C 0.93952 0.50094 0.0272 0.0
H567 H 1.00214 0.56435 0.02153 0.0
H568 H 0.97423 0.55083 0.03115 0.0
H569 H 1.00261 0.54349 0.04387 0.0
H570 H 0.99061 0.50195 0.05829 0.0
H571 H 0.96016 0.50289 0.08704 0.0
H572 H 0.03397 0.92544 0.07209 0.0
H573 H 0.04095 0.95632 0.04401 0.0
H574 H 0.9648 0.95454 0.02765 0.0
H575 H 0.95791 0.92333 0.05496 0.0
H576 H 0.99366 0.95585 0.99188 0.0
H577 H 0.02147 0.02754 0.05014 0.0
H578 H 0.03931 1.00027 0.05128 0.0
H579 H 1.00772 0.99924 0.05859 0.0
C580 C 0.01883 0.93146 0.0623 0.0
C581 C 0.99533 0.92228 0.06599 0.0
C582 C 0.02277 0.94928 0.04644 0.0
C583 C 1.00327 0.95817 0.03409 0.0
C584 C 0.98006 0.94818 0.03713 0.0
H585 H 0.98207 0.07052 0.93538 0.0
H586 H 0.9756 0.03901 0.96309 0.0
C587 C 0.97614 0.93044 0.05286 0.0
C588 C 1.00667 0.97805 0.01811 0.0
H589 H 0.02354 0.03769 0.01306 0.0
C590 C 1.00015 0.97376 0.99651 0.0
C591 C 0.01496 1.00147 0.02421 0.0
C592 C 0.02107 1.00757 0.04734 0.0
C593 C 1.00208 0.99211 0.9808 0.0
C594 C 0.01045 0.01547 0.98691 0.0
C595 C 0.01701 0.01978 0.00847 0.0
C596 C 0.01375 0.03531 0.97093 0.0
C597 C 0.99566 0.98624 0.9577 0.0
C598 C 0.03717 0.04415 0.9667 0.0
C599 C 0.04084 0.06204 0.95106 0.0
C600 C 0.02116 0.07159 0.93933 0.0
C601 C 0.99755 0.06341 0.94412 0.0
C602 C 0.99388 0.04532 0.95978 0.0
H603 H 0.99421 0.96631 0.95492 0.0
H604 H 0.97789 0.99457 0.9537 0.0
H605 H 0.00947 0.99387 0.94649 0.0
H606 H 0.0527 0.03684 0.97524 0.0
H607 H 0.0592 0.06832 0.94801 0.0
H608 H 0.05915 0.02196 0.41475 0.0
H609 H 0.02839 0.01736 0.44278 0.0
H610 H 0.08362 0.99481 0.4879 0.0
H611 H 0.11478 1.00076 0.46016 0.0
H612 H 0.01173 0.98199 0.46706 0.0
H613 H 0.05467 0.05124 0.51986 0.0
H614 H 0.0647 0.04586 0.49258 0.0
H615 H 0.07435 0.02612 0.51412 0.0
C616 C 0.06477 0.01594 0.43063 0.0
C617 C 0.0895 0.01218 0.43532 0.0
C618 C 0.04713 0.01323 0.44664 0.0
C619 C 0.05375 1.00649 0.46767 0.0
C620 C 0.07817 1.00082 0.47198 0.0
H621 H 0.95232 0.96118 0.56596 0.0
H622 H 0.98183 0.96435 0.53702 0.0
C623 C 0.09593 1.0038 0.45599 0.0
C624 C 0.03509 1.00611 0.48503 0.0
H625 H 0.02127 0.0294 0.53466 0.0
C626 C 0.01382 0.9924 0.48182 0.0
C627 C 0.03745 0.02023 0.50405 0.0
C628 C 0.0589 0.0369 0.5078 0.0
C629 C 0.99512 0.99203 0.49722 0.0
C630 C 0.99807 1.00509 0.51676 0.0
C631 C 0.0191 0.01921 0.51979 0.0
C632 C 0.98003 1.00357 0.53457 0.0
C633 C 0.97221 0.97798 0.49216 0.0
C634 C 0.9697 0.02468 0.54348 0.0
C635 C 0.95316 0.023 0.56064 0.0
C636 C 0.94679 1.00016 0.56928 0.0
C637 C 0.95712 0.97914 0.56013 0.0
C638 C 0.97374 0.98086 0.54323 0.0
H639 H 0.96933 0.97639 0.47446 0.0
H640 H 0.97379 0.95928 0.49876 0.0
H641 H 0.95598 0.98673 0.49939 0.0
H642 H 0.97443 0.04245 0.53714 0.0
H643 H 0.94565 0.03954 0.56735 0.0
H644 H 0.51345 0.05661 0.41521 0.0
H645 H 0.51682 0.02794 0.44527 0.0
H646 H 0.51795 0.0878 0.49024 0.0
H647 H 0.51392 0.1166 0.46023 0.0
H648 H 0.55024 0.02187 0.4789 0.0
H649 H 0.45899 0.04738 0.50975 0.0
H650 H 0.46975 0.05648 0.48344 0.0
H651 H 0.48019 0.07214 0.50716 0.0
C652 C 0.5147 0.06367 0.4315 0.0
C653 C 0.51316 0.08884 0.43538 0.0
C654 C 0.51666 0.04729 0.44864 0.0
C655 C 0.51704 0.05573 0.47 0.0
C656 C 0.51715 0.0809 0.47388 0.0
H657 H 0.51696 0.9787 0.59259 0.0
H658 H 0.51496 0.00954 0.56407 0.0
C659 C 0.51518 0.09735 0.45671 0.0
C660 C 0.51622 0.03803 0.48807 0.0
H661 H 0.48088 0.01834 0.52999 0.0
C662 C 0.5351 0.0211 0.49009 0.0
C663 C 0.49636 0.03702 0.50258 0.0
C664 C 0.47504 0.05406 0.5006 0.0
C665 C 0.53477 1.00329 0.50635 0.0
C666 C 0.51482 1.00215 0.52072 0.0
C667 C 0.49607 0.01923 0.51887 0.0
C668 C 0.51335 0.98348 0.53795 0.0
C669 C 0.55596 0.98606 0.50822 0.0
C670 C 0.51206 0.95866 0.53273 0.0
C671 C 0.51316 0.94102 0.54898 0.0
C672 C 0.51553 0.94793 0.57073 0.0
C673 C 0.51535 0.97284 0.57596 0.0
C674 C 0.5142 0.99046 0.55971 0.0
H675 H 0.57218 0.99289 0.49939 0.0
H676 H 0.56096 0.98313 0.52539 0.0
H677 H 0.55079 0.9682 0.50121 0.0
H678 H 0.51097 0.95293 0.51604 0.0
H679 H 0.51347 0.922 0.5444 0.0
H680 H 0.57959 0.47637 0.56733 0.0
H681 H 0.54965 0.47005 0.53827 0.0
H682 H 0.55063 0.54702 0.52456 0.0
H683 H 0.58065 0.55326 0.55293 0.0
H684 H 0.50338 0.49097 0.53637 0.0
H685 H 0.55733 0.51781 0.46474 0.0
H686 H 0.57116 0.51066 0.49039 0.0
H687 H 0.55823 0.54025 0.48575 0.0
C688 C 0.57371 0.49178 0.55779 0.0
C689 C 0.58227 0.51531 0.56248 0.0
C690 C 0.55656 0.48821 0.54131 0.0
C691 C 0.54808 0.50805 0.52911 0.0
C692 C 0.55718 0.53139 0.53346 0.0
H693 H 0.43546 0.5359 0.43348 0.0
H694 H 0.46659 0.53965 0.46188 0.0
C695 C 0.57417 0.53495 0.54984 0.0
C696 C 0.52856 0.50496 0.51281 0.0
H697 H 0.51417 0.51667 0.46017 0.0
C698 C 0.5058 0.49632 0.51965 0.0
C699 C 0.5317 0.51215 0.49104 0.0
C700 C 0.556 0.52051 0.48247 0.0
C701 C 0.48593 0.49524 0.50543 0.0
C702 C 0.48901 0.50278 0.48377 0.0
C703 C 0.5118 0.51119 0.47687 0.0
C704 C 0.46912 0.5009 0.46772 0.0
C705 C 0.46167 0.48655 0.5138 0.0
C706 C 0.46025 0.47795 0.46174 0.0
C707 C 0.44267 0.47581 0.44563 0.0
C708 C 0.43364 0.49658 0.43507 0.0
C709 C 0.44206 0.51964 0.44143 0.0
C710 C 0.45986 0.52177 0.45753 0.0
H711 H 0.46077 0.48724 0.5317 0.0
H712 H 0.44666 0.49768 0.50706 0.0
H713 H 0.45873 0.46741 0.50872 0.0
H714 H 0.46735 0.46161 0.46919 0.0
H715 H 0.43634 0.4578 0.44119 0.0
H716 H 0.0286 0.57077 0.57339 0.0
H717 H 0.03174 0.53891 0.54561 0.0
H718 H 0.95362 0.53552 0.54134 0.0
H719 H 0.95037 0.56732 0.56867 0.0
H720 H 0.00981 0.49027 0.5483 0.0
H721 H 0.97652 0.54329 0.47788 0.0
H722 H 0.98781 0.55761 0.50214 0.0
H723 H 0.95781 0.54468 0.50161 0.0
C724 C 0.01217 0.56337 0.56632 0.0
C725 C 0.98927 0.57138 0.5733 0.0
C726 C 0.01396 0.54515 0.55057 0.0
C727 C 0.9929 0.53502 0.54134 0.0
C728 C 0.97008 0.54328 0.54807 0.0
H729 H 0.96913 0.42503 0.44087 0.0
H730 H 0.96244 0.45407 0.47053 0.0
C731 C 0.96828 0.56129 0.56383 0.0
C732 C 0.99456 0.5152 0.52521 0.0
H733 H 0.98172 0.50095 0.47278 0.0
C734 C 1.00377 0.4926 0.53176 0.0
C735 C 0.98631 0.51822 0.50376 0.0
C736 C 0.97671 0.54229 0.49579 0.0
C737 C 1.0049 0.47287 0.5174 0.0
C738 C 0.99708 0.476 0.49581 0.0
C739 C 0.98756 0.49853 0.48936 0.0
C740 C 1.00045 0.45683 0.47923 0.0
C741 C 0.01419 0.44876 0.52558 0.0
C742 C 0.02393 0.44867 0.47442 0.0
C743 C 0.02771 0.43219 0.4577 0.0
C744 C 0.00814 0.42366 0.44516 0.0
C745 C 0.9845 0.43125 0.45032 0.0
C746 C 0.9807 0.44789 0.46715 0.0
H747 H 0.01183 0.44707 0.54333 0.0
H748 H 1.00474 0.4333 0.51763 0.0
H749 H 0.0339 0.44738 0.52204 0.0
H750 H 0.03948 0.45563 0.48321 0.0
H751 H 0.04612 0.42645 0.45426 0.0
H752 H 0.64155 0.92664 0.10624 0.0
H753 H 0.62228 0.88714 0.11414 0.0
H754 H 0.56174 0.92411 0.14341 0.0
H755 H 0.5808 0.96342 0.13543 0.0
H756 H 0.59985 0.86319 0.15333 0.0
H757 H 0.53406 0.88787 0.08898 0.0
H758 H 0.56274 0.90344 0.09238 0.0
H759 H 0.53771 0.91014 0.10997 0.0
C760 C 0.62462 0.92625 0.11513 0.0
C761 C 0.61268 0.94807 0.12026 0.0
C762 C 0.61352 0.9037 0.11949 0.0
C763 C 0.59036 0.90271 0.12902 0.0
C764 C 0.57946 0.92444 0.13581 0.0
H765 H 0.47443 0.79692 0.14178 0.0
H766 H 0.50082 0.83275 0.1425 0.0
C767 C 0.59046 0.94688 0.13142 0.0
C768 C 0.57631 0.87949 0.12973 0.0
H769 H 0.52569 0.85209 0.10879 0.0
C770 C 0.5837 0.86065 0.14354 0.0
C771 C 0.55529 0.87618 0.11687 0.0
C772 C 0.54701 0.89535 0.10106 0.0
C773 C 0.57015 0.83889 0.14533 0.0
C774 C 0.54892 0.83573 0.13265 0.0
C775 C 0.54183 0.8545 0.11862 0.0
C776 C 0.53349 0.81334 0.1337 0.0
C777 C 0.57829 0.81981 0.16125 0.0
C778 C 0.54296 0.79035 0.12854 0.0
C779 C 0.52786 0.76971 0.12818 0.0
C780 C 0.50289 0.77166 0.13279 0.0
C781 C 0.49353 0.79467 0.13816 0.0
C782 C 0.50863 0.81523 0.13857 0.0
H783 H 0.59073 0.82752 0.17363 0.0
H784 H 0.5625 0.81135 0.16954 0.0
H785 H 0.58821 0.8053 0.1525 0.0
H786 H 0.56191 0.78842 0.12423 0.0
H787 H 0.53567 0.75234 0.12384 0.0
H788 H 0.76009 0.53475 0.12978 0.0
H789 H 0.72428 0.56098 0.13207 0.0
H790 H 0.68063 0.49935 0.15117 0.0
H791 H 0.71625 0.47309 0.14912 0.0
H792 H 0.6824 0.55597 0.10789 0.0
H793 H 0.65999 0.55072 0.19485 0.0
H794 H 0.68917 0.5417 0.18427 0.0
H795 H 0.66356 0.52135 0.18261 0.0
C796 C 0.74295 0.52683 0.1348 0.0
C797 C 0.7411 0.50177 0.13928 0.0
C798 C 0.72248 0.54187 0.13608 0.0
C799 C 0.69979 0.53225 0.14209 0.0
C800 C 0.69801 0.50735 0.14697 0.0
H801 H 0.54939 0.56518 0.13598 0.0
H802 H 0.59005 0.55066 0.14504 0.0
C803 C 0.71842 0.49229 0.14564 0.0
C804 C 0.67758 0.54768 0.14156 0.0
H805 H 0.62837 0.56503 0.17141 0.0
C806 C 0.67079 0.55832 0.12187 0.0
C807 C 0.6624 0.55071 0.15979 0.0
C808 C 0.66924 0.54071 0.18163 0.0
C809 C 0.64868 0.57082 0.11961 0.0
C810 C 0.63311 0.57324 0.13769 0.0
C811 C 0.64029 0.56327 0.15757 0.0
C812 C 0.60836 0.58393 0.13566 0.0
C813 C 0.64161 0.58015 0.09757 0.0
C814 C 0.60491 0.60795 0.12845 0.0
C815 C 0.58157 0.61631 0.12321 0.0
C816 C 0.56132 0.60079 0.12519 0.0
C817 C 0.56467 0.5775 0.13414 0.0
C818 C 0.58792 0.56917 0.13932 0.0
H819 H 0.65317 0.57241 0.08459 0.0
H820 H 0.62234 0.57571 0.09394 0.0
H821 H 0.64371 0.60023 0.09719 0.0
H822 H 0.62036 0.61986 0.12594 0.0
H823 H 0.5796 0.63429 0.11627 0.0
H824 H 0.97035 0.75917 0.13798 0.0
H825 H 0.94387 0.72323 0.1387 0.0
H826 H 1.00517 0.67832 0.15524 0.0
H827 H 0.03168 0.71405 0.15469 0.0
H828 H 0.94911 0.68286 0.11204 0.0
H829 H 0.95338 0.65461 0.19774 0.0
H830 H 0.96234 0.68463 0.18878 0.0
H831 H 0.98278 0.65937 0.18589 0.0
C832 C 0.97813 0.74172 0.14217 0.0
C833 C 1.00319 0.73955 0.14629 0.0
C834 C 0.96296 0.72117 0.14253 0.0
C835 C 0.97243 0.69807 0.14729 0.0
C836 C 0.9973 0.69597 0.15197 0.0
H837 H 0.93959 0.54787 0.13389 0.0
H838 H 0.9537 0.58812 0.1451 0.0
C839 C 0.01249 0.71646 0.15152 0.0
C840 C 0.95692 0.67587 0.14549 0.0
H841 H 0.93912 0.62459 0.1726 0.0
C842 C 0.94654 0.67031 0.12538 0.0
C843 C 0.95364 0.65945 0.16287 0.0
C844 C 0.96342 0.66489 0.1851 0.0
C845 C 0.9341 0.64826 0.12185 0.0
C846 C 0.93139 0.63148 0.13908 0.0
C847 C 0.94108 0.63744 0.15941 0.0
C848 C 0.92081 0.60675 0.13567 0.0
C849 C 0.92518 0.64258 0.09935 0.0
C850 C 0.89707 0.60351 0.1277 0.0
C851 C 0.88895 0.5804 0.12119 0.0
C852 C 0.90441 0.56015 0.12266 0.0
C853 C 0.92734 0.56316 0.13239 0.0
C854 C 0.93543 0.58619 0.13881 0.0
H855 H 0.93322 0.65498 0.08709 0.0
H856 H 0.92958 0.62355 0.09484 0.0
H857 H 0.90515 0.64471 0.09878 0.0
H858 H 0.88522 0.61902 0.12559 0.0
H859 H 0.87124 0.57869 0.1137 0.0
H860 H 0.74699 0.96424 0.17272 0.0
H861 H 0.78481 0.94108 0.17639 0.0
H862 H 0.82013 0.98992 0.13174 0.0
H863 H 0.78285 0.01326 0.12829 0.0
H864 H 0.80907 0.91654 0.14539 0.0
H865 H 0.87009 0.9866 0.17921 0.0
H866 H 0.83747 0.99003 0.17894 0.0
H867 H 0.85523 0.99773 0.15545 0.0
C868 C 0.76293 0.97024 0.16394 0.0
C869 C 0.76186 0.99067 0.15025 0.0
C870 C 0.78452 0.95697 0.16604 0.0
C871 C 0.80549 0.964 0.15466 0.0
C872 C 0.80445 0.9845 0.14117 0.0
H873 H 0.91881 0.89374 0.09267 0.0
H874 H 0.88014 0.90691 0.10777 0.0
C875 C 0.78298 0.99774 0.13907 0.0
C876 C 0.82797 0.94906 0.15536 0.0
H877 H 0.88967 0.95406 0.15923 0.0
C878 C 0.82665 0.9246 0.14889 0.0
C879 C 0.85093 0.95929 0.16039 0.0
C880 C 0.85349 0.98478 0.16912 0.0
C881 C 0.84776 0.91077 0.14563 0.0
C882 C 0.8708 0.92182 0.14853 0.0
C883 C 0.87205 0.94562 0.15671 0.0
C884 C 0.89352 0.91039 0.1405 0.0
C885 C 0.84516 0.88465 0.13852 0.0
C886 C 0.91409 0.9079 0.15383 0.0
C887 C 0.93637 0.90033 0.14512 0.0
C888 C 0.93839 0.89552 0.12294 0.0
C889 C 0.91762 0.89716 0.10987 0.0
C890 C 0.89547 0.90455 0.11853 0.0
H891 H 0.82809 0.87649 0.14484 0.0
H892 H 0.84431 0.88396 0.12064 0.0
H893 H 0.86074 0.87345 0.14401 0.0
H894 H 0.91307 0.91255 0.17079 0.0
H895 H 0.95224 0.89948 0.15543 0.0
H896 H 0.99929 0.23662 0.38257 0.0
H897 H 0.02341 0.19946 0.38234 0.0
H898 H 0.07506 0.23326 0.33935 0.0
H899 H 0.05119 0.27084 0.3398 0.0
H900 H 0.03725 0.16889 0.34956 0.0
H901 H 0.11833 0.21038 0.38864 0.0
H902 H 0.08938 0.22562 0.38749 0.0
H903 H 0.10858 0.22471 0.36407 0.0
C904 C 0.01573 0.23621 0.37298 0.0
C905 C 0.02336 0.25686 0.36133 0.0
C906 C 0.02951 0.21488 0.37285 0.0
C907 C 0.05128 0.21361 0.3611 0.0
C908 C 0.05861 0.23392 0.3489 0.0
H909 H 0.12045 0.06807 0.35416 0.0
H910 H 0.10621 0.10829 0.34195 0.0
C911 C 0.04484 0.25537 0.34907 0.0
C912 C 0.06626 0.19108 0.3621 0.0
H913 H 0.12048 0.16872 0.38022 0.0
C914 C 0.05556 0.16887 0.35602 0.0
C915 C 0.09011 0.19104 0.37068 0.0
C916 C 0.10229 0.21414 0.37828 0.0
C917 C 0.06769 0.14661 0.3589 0.0
C918 C 0.09143 0.14653 0.36775 0.0
C919 C 0.10242 0.16881 0.37321 0.0
C920 C 0.10371 0.12348 0.37413 0.0
C921 C 0.05445 0.12328 0.35355 0.0
C922 C 0.10835 0.11912 0.39606 0.0
C923 C 0.11666 0.09642 0.40293 0.0
C924 C 0.12066 0.07759 0.38803 0.0
C925 C 0.11764 0.08236 0.36592 0.0
C926 C 0.10923 0.1052 0.359 0.0
H927 H 0.03478 0.12631 0.35061 0.0
H928 H 0.06239 0.11525 0.33872 0.0
H929 H 0.05643 0.10985 0.36683 0.0
H930 H 0.10434 0.13289 0.40803 0.0
H931 H 0.11881 0.09316 0.42008 0.0
H932 H 0.30169 0.97854 0.35481 0.0
H933 H 0.33732 1.00518 0.35322 0.0
H934 H 0.29155 0.0678 0.3624 0.0
H935 H 0.25576 0.04126 0.36424 0.0
H936 H 0.34977 0.04584 0.32652 0.0
H937 H 0.34012 0.07169 0.41292 0.0
H938 H 0.32383 0.04637 0.40126 0.0
H939 H 0.31401 0.07697 0.39616 0.0
C940 C 0.29911 0.99799 0.35628 0.0
C941 C 0.27584 1.00771 0.35985 0.0
C942 C 0.31953 0.01321 0.35533 0.0
C943 C 0.31717 0.03845 0.35803 0.0
C944 C 0.29386 0.04834 0.36064 0.0
H945 H 0.43493 0.14187 0.38589 0.0
H946 H 0.39505 0.12654 0.37435 0.0
C947 C 0.27339 0.03313 0.36158 0.0
C948 C 0.33926 0.05409 0.35917 0.0
H949 H 0.3731 0.08844 0.39402 0.0
C950 C 0.35479 0.05534 0.34122 0.0
C951 C 0.34577 0.06656 0.37831 0.0
C952 C 0.33022 0.06528 0.39835 0.0
C953 C 0.37681 0.06842 0.342 0.0
C954 C 0.38373 0.08017 0.3614 0.0
C955 C 0.36779 0.07956 0.3791 0.0
C956 C 0.40826 0.09117 0.36454 0.0
C957 C 0.39245 0.06946 0.32204 0.0
C958 C 0.42909 0.07671 0.36233 0.0
C959 C 0.45182 0.0855 0.36875 0.0
C960 C 0.45427 0.10888 0.37773 0.0
C961 C 0.43368 0.12391 0.37878 0.0
C962 C 0.41086 0.11508 0.37235 0.0
H963 H 0.38134 0.0674 0.30717 0.0
H964 H 0.40274 0.08684 0.32108 0.0
H965 H 0.40563 0.05424 0.32246 0.0
H966 H 0.4276 0.05807 0.35681 0.0
H967 H 0.46735 0.07348 0.36779 0.0
H968 H 0.44199 0.46618 0.3566 0.0
H969 H 0.45928 0.42815 0.34311 0.0
H970 H 0.39899 0.38826 0.37031 0.0
H971 H 0.38146 0.42643 0.38344 0.0
H972 H 0.47306 0.39488 0.37332 0.0
H973 H 0.41111 0.35074 0.31447 0.0
H974 H 0.40946 0.38277 0.32088 0.0
H975 H 0.39647 0.36057 0.33884 0.0
C976 C 0.43188 0.4494 0.35876 0.0
C977 C 0.41033 0.4492 0.37089 0.0
C978 C 0.44183 0.42766 0.35119 0.0
C979 C 0.43047 0.4053 0.35566 0.0
C980 C 0.40789 0.40527 0.36627 0.0
H981 H 0.48041 0.25657 0.366 0.0
H982 H 0.45627 0.2938 0.36367 0.0
C983 C 0.39782 0.4271 0.37374 0.0
C984 C 0.44418 0.38227 0.35266 0.0
H985 H 0.44219 0.3257 0.32974 0.0
C986 C 0.46644 0.37989 0.36354 0.0
C987 C 0.43536 0.36256 0.34021 0.0
C988 C 0.41189 0.36428 0.32777 0.0
C989 C 0.4799 0.3583 0.36265 0.0
C990 C 0.47119 0.33859 0.35014 0.0
C991 C 0.44893 0.34089 0.33921 0.0
C992 C 0.48476 0.31529 0.3489 0.0
C993 C 0.50297 0.35654 0.37576 0.0
C994 C 0.50853 0.31476 0.3407 0.0
C995 C 0.52245 0.29356 0.34214 0.0
C996 C 0.51279 0.27238 0.35163 0.0
C997 C 0.48848 0.27257 0.35868 0.0
C998 C 0.47461 0.29383 0.35732 0.0
H999 H 0.50389 0.37074 0.3885 0.0
H1000 H 0.50454 0.33841 0.38355 0.0
H1001 H 0.51885 0.35909 0.36495 0.0
H1002 H 0.51658 0.33098 0.33375 0.0
H1003 H 0.54101 0.29401 0.33635 0.0
H1004 H 0.04694 0.43997 0.37151 0.0
H1005 H 0.08609 0.45794 0.36152 0.0
H1006 H 0.12276 0.39393 0.38495 0.0
H1007 H 0.08343 0.37576 0.39467 0.0
H1008 H 0.11919 0.46776 0.39357 0.0
H1009 H 0.16207 0.4103 0.33067 0.0
H1010 H 0.12988 0.40927 0.33632 0.0
H1011 H 0.15094 0.39394 0.35378 0.0
C1012 C 0.0633 0.42933 0.37367 0.0
C1013 C 0.06216 0.4064 0.38369 0.0
C1014 C 0.08568 0.43967 0.36811 0.0
C1015 C 0.10744 0.42733 0.37245 0.0
C1016 C 0.10626 0.40366 0.38106 0.0
H1017 H 0.2584 0.47587 0.38116 0.0
H1018 H 0.22076 0.45192 0.38023 0.0
C1019 C 0.08376 0.39323 0.38655 0.0
C1020 C 0.13104 0.44063 0.37088 0.0
H1021 H 0.18726 0.44019 0.34735 0.0
C1022 C 0.13398 0.46181 0.38331 0.0
C1023 C 0.1505 0.4327 0.35776 0.0
C1024 C 0.14823 0.41042 0.34372 0.0
C1025 C 0.15578 0.47516 0.38314 0.0
C1026 C 0.17516 0.46749 0.36979 0.0
C1027 C 0.17237 0.44616 0.35748 0.0
C1028 C 0.1984 0.48145 0.3686 0.0
C1029 C 0.15804 0.49706 0.39772 0.0
C1030 C 0.19854 0.50585 0.36182 0.0
C1031 C 0.21998 0.51963 0.36245 0.0
C1032 C 0.24186 0.50925 0.36968 0.0
C1033 C 0.24189 0.4845 0.37559 0.0
C1034 C 0.22038 0.47074 0.37503 0.0
H1035 H 0.14445 0.49659 0.41097 0.0
H1036 H 0.17647 0.49825 0.40493 0.0
H1037 H 0.15485 0.51382 0.38814 0.0
H1038 H 0.18194 0.51439 0.35636 0.0
H1039 H 0.21929 0.53854 0.35758 0.0
H1040 H 0.47129 0.26196 0.88117 0.0
H1041 H 0.4508 0.22237 0.87927 0.0
H1042 H 0.50886 0.19465 0.83974 0.0
H1043 H 0.5296 0.234 0.8417 0.0
H1044 H 0.43527 0.19197 0.84332 0.0
H1045 H 0.50753 0.14956 0.89332 0.0
H1046 H 0.50403 0.1821 0.89107 0.0
H1047 H 0.51818 0.16524 0.86968 0.0
C1048 C 0.47961 0.24752 0.8719 0.0
C1049 C 0.50224 0.25109 0.86179 0.0
C1050 C 0.46782 0.22493 0.87078 0.0
C1051 C 0.47848 0.2055 0.85962 0.0
C1052 C 0.5005 0.20931 0.84871 0.0
H1053 H 0.4515 0.05041 0.85956 0.0
H1054 H 0.46429 0.09128 0.84859 0.0
C1055 C 0.5123 0.23186 0.84981 0.0
C1056 C 0.46739 0.18086 0.86048 0.0
H1057 H 0.47737 0.12345 0.87942 0.0
C1058 C 0.44443 0.17693 0.85117 0.0
C1059 C 0.47935 0.16133 0.87083 0.0
C1060 C 0.50353 0.1647 0.88197 0.0
C1061 C 0.43331 0.15381 0.85163 0.0
C1062 C 0.44532 0.13429 0.86198 0.0
C1063 C 0.46826 0.13833 0.87128 0.0
C1064 C 0.43439 0.10964 0.86426 0.0
C1065 C 0.40901 0.15042 0.84078 0.0
C1066 C 0.41273 0.10623 0.87591 0.0
C1067 C 0.40523 0.0828 0.88195 0.0
C1068 C 0.41946 0.06248 0.87668 0.0
C1069 C 0.44016 0.06579 0.86373 0.0
C1070 C 0.44752 0.08913 0.85755 0.0
H1071 H 0.40573 0.16466 0.82838 0.0
H1072 H 0.40766 0.13226 0.83301 0.0
H1073 H 0.39442 0.15178 0.85307 0.0
H1074 H 0.40253 0.12174 0.88167 0.0
H1075 H 0.38945 0.08079 0.89226 0.0
H1076 H 0.45641 0.45234 0.85506 0.0
H1077 H 0.41674 0.46734 0.84315 0.0
H1078 H 0.38233 0.40337 0.86962 0.0
H1079 H 0.42206 0.38812 0.88131 0.0
H1080 H 0.35965 0.42311 0.83002 0.0
H1081 H 0.37496 0.49151 0.89485 0.0
H1082 H 0.39806 0.49028 0.87441 0.0
H1083 H 0.39354 0.46472 0.89208 0.0
C1084 C 0.44046 0.44109 0.85762 0.0
C1085 C 0.44223 0.41916 0.8692 0.0
C1086 C 0.41783 0.44971 0.85091 0.0
C1087 C 0.39659 0.43668 0.85589 0.0
C1088 C 0.39852 0.4137 0.86565 0.0
H1089 H 0.2543 0.48931 0.88575 0.0
H1090 H 0.2926 0.46734 0.88312 0.0
C1091 C 0.42122 0.40496 0.87224 0.0
C1092 C 0.37252 0.44852 0.85389 0.0
H1093 H 0.33859 0.49459 0.87513 0.0
C1094 C 0.35505 0.43883 0.83974 0.0
C1095 C 0.36647 0.46881 0.86688 0.0
C1096 C 0.38411 0.47939 0.88306 0.0
C1097 C 0.33169 0.44909 0.83817 0.0
C1098 C 0.32581 0.46943 0.85107 0.0
C1099 C 0.34327 0.47907 0.86517 0.0
C1100 C 0.30131 0.48049 0.85114 0.0
C1101 C 0.31321 0.43786 0.82321 0.0
C1102 C 0.29341 0.49504 0.83391 0.0
C1103 C 0.2715 0.50787 0.8354 0.0
C1104 C 0.25717 0.5063 0.85417 0.0
C1105 C 0.26482 0.49099 0.87105 0.0
C1106 C 0.28672 0.47836 0.86959 0.0
H1107 H 0.3197 0.4205 0.8161 0.0
H1108 H 0.29597 0.43438 0.832 0.0
H1109 H 0.30919 0.45075 0.80989 0.0
H1110 H 0.30457 0.49712 0.81963 0.0
H1111 H 0.26611 0.51946 0.82211 0.0
H1112 H 0.04236 0.25263 0.89362 0.0
H1113 H 0.0643 0.29147 0.8924 0.0
H1114 H 0.01536 0.31727 0.84317 0.0
H1115 H 0.99307 0.27872 0.84454 0.0
H1116 H 0.08794 0.31744 0.85889 0.0
H1117 H 0.00868 0.36831 0.89072 0.0
H1118 H 0.01026 0.33553 0.89135 0.0
H1119 H 1.00252 0.35104 0.86674 0.0
C1120 C 0.03634 0.26649 0.88241 0.0
C1121 C 0.01576 0.26263 0.86935 0.0
C1122 C 0.04895 0.28868 0.88171 0.0
C1123 C 0.04124 0.30745 0.86796 0.0
C1124 C 0.02135 0.30325 0.85424 0.0
H1125 H 0.07696 0.46123 0.86078 0.0
H1126 H 0.06333 0.42005 0.8515 0.0
C1127 C 0.00866 0.28114 0.855 0.0
C1128 C 0.05329 0.33174 0.86865 0.0
H1129 H 0.04273 0.3915 0.88022 0.0
C1130 C 0.07809 0.33368 0.86351 0.0
C1131 C 0.04044 0.35291 0.87475 0.0
C1132 C 0.01407 0.35192 0.8814 0.0
C1133 C 0.09027 0.35628 0.86398 0.0
C1134 C 0.0774 0.37744 0.87016 0.0
C1135 C 0.0526 0.3754 0.87526 0.0
C1136 C 0.08914 0.40184 0.87231 0.0
C1137 C 0.11666 0.35726 0.85749 0.0
C1138 C 0.10885 0.40542 0.88644 0.0
C1139 C 0.117 0.42899 0.89135 0.0
C1140 C 0.10533 0.44936 0.88248 0.0
C1141 C 0.08649 0.44577 0.86753 0.0
C1142 C 0.07858 0.42226 0.86239 0.0
H1143 H 0.12145 0.34188 0.84669 0.0
H1144 H 0.12113 0.37461 0.84917 0.0
H1145 H 0.12813 0.35583 0.87216 0.0
H1146 H 0.11693 0.39015 0.89479 0.0
H1147 H 0.13113 0.43133 0.90335 0.0
H1148 H 0.27011 0.03283 0.88666 0.0
H1149 H 0.23223 0.05595 0.88427 0.0
H1150 H 0.19974 0.99815 0.84702 0.0
H1151 H 0.23735 0.97479 0.84951 0.0
H1152 H 0.20314 0.07226 0.84827 0.0
H1153 H 0.15493 1.00506 0.89998 0.0
H1154 H 0.18759 1.00587 0.89761 0.0
H1155 H 0.16947 0.9923 0.87666 0.0
C1156 C 0.25498 0.0251 0.87781 0.0
C1157 C 0.2567 1.00182 0.86848 0.0
C1158 C 0.23336 0.03839 0.87641 0.0
C1159 C 0.21306 0.02863 0.86573 0.0
C1160 C 0.21506 1.00586 0.85563 0.0
H1161 H 0.06083 0.06627 0.86392 0.0
H1162 H 0.10063 0.05066 0.85321 0.0
C1163 C 0.23662 0.99256 0.85704 0.0
C1164 C 0.18941 0.04155 0.86616 0.0
H1165 H 0.13131 0.03638 0.88482 0.0
C1166 C 0.18739 0.06445 0.85622 0.0
C1167 C 0.16894 0.03139 0.87666 0.0
C1168 C 0.17027 1.00741 0.88852 0.0
C1169 C 0.16525 0.07725 0.85618 0.0
C1170 C 0.14477 0.067 0.86663 0.0
C1171 C 0.14691 0.04413 0.87658 0.0
C1172 C 0.12104 0.07973 0.86836 0.0
C1173 C 0.16389 0.10141 0.84471 0.0
C1174 C 0.11918 0.10191 0.87954 0.0
C1175 C 0.09636 0.11104 0.88538 0.0
C1176 C 0.07513 0.09797 0.88035 0.0
C1177 C 0.07694 0.0768 0.86777 0.0
C1178 C 0.09967 0.06781 0.86179 0.0
H1179 H 0.17849 0.10332 0.83244 0.0
H1180 H 0.14602 0.10376 0.83666 0.0
H1181 H 0.16617 0.11627 0.85666 0.0
H1182 H 0.13534 0.11121 0.88518 0.0
H1183 H 0.09545 0.12711 0.89547 0.0
H1184 H 0.97424 0.75295 0.62085 0.0
H1185 H 0.9533 0.79205 0.62422 0.0
H1186 H 0.01298 0.82025 0.6618 0.0
H1187 H 0.03416 0.78142 0.65834 0.0
H1188 H 0.93891 0.82086 0.66102 0.0
H1189 H 1.00804 0.86725 0.61008 0.0
H1190 H 1.00552 0.83455 0.61163 0.0
H1191 H 0.02012 0.85125 0.63296 0.0
C1192 C 0.98285 0.7674 0.62997 0.0
C1193 C 1.00602 0.7641 0.63913 0.0
C1194 C 0.97081 0.78972 0.63193 0.0
C1195 C 0.98173 0.80917 0.64301 0.0
C1196 C 1.00439 0.80562 0.6529 0.0
H1197 H 0.95156 0.96351 0.64697 0.0
H1198 H 0.9654 0.9229 0.65741 0.0
C1199 C 0.01644 0.78335 0.65093 0.0
C1200 C 0.97008 0.83354 0.64324 0.0
H1201 H 0.97802 0.89195 0.62579 0.0
C1202 C 0.94743 0.83645 0.65337 0.0
C1203 C 0.98118 0.85383 0.63317 0.0
C1204 C 1.00495 0.85164 0.62116 0.0
C1205 C 0.93579 0.85924 0.65395 0.0
C1206 C 0.94693 0.87952 0.64386 0.0
C1207 C 0.96958 0.87651 0.63377 0.0
C1208 C 0.93527 0.9039 0.64249 0.0
C1209 C 0.91187 0.86146 0.66563 0.0
C1210 C 0.91306 0.90689 0.63159 0.0
C1211 C 0.90493 0.93018 0.62594 0.0
C1212 C 0.91903 0.95081 0.63086 0.0
C1213 C 0.94021 0.94792 0.64324 0.0
C1214 C 0.94822 0.9247 0.64904 0.0
H1215 H 0.90953 0.8468 0.67782 0.0
H1216 H 0.9103 0.87936 0.67381 0.0
H1217 H 0.89683 0.85983 0.65378 0.0
H1218 H 0.90297 0.89119 0.62595 0.0
H1219 H 0.88884 0.93188 0.61597 0.0
H1220 H 0.73642 0.04347 0.65403 0.0
H1221 H 0.69874 0.01989 0.65579 0.0
H1222 H 0.73434 0.95928 0.62518 0.0
H1223 H 0.77224 0.98265 0.62356 0.0
H1224 H 0.67402 1.00227 0.62026 0.0
H1225 H 0.69828 0.9262 0.67509 0.0
H1226 H 0.71615 0.95376 0.67324 0.0
H1227 H 0.71882 0.93064 0.65289 0.0
C1228 C 0.73638 0.025 0.64794 0.0
C1229 C 0.7574 0.01498 0.63864 0.0
C1230 C 0.7148 0.01153 0.64897 0.0
C1231 C 0.71374 0.98769 0.64087 0.0
C1232 C 0.73481 0.97744 0.63196 0.0
H1233 H 0.5935 0.89137 0.6089 0.0
H1234 H 0.63399 0.90729 0.61804 0.0
C1235 C 0.75644 0.99091 0.63091 0.0
C1236 C 0.69011 0.97448 0.64009 0.0
H1237 H 0.66044 0.92289 0.65663 0.0
C1238 C 0.67103 0.98501 0.62836 0.0
C1239 C 0.68627 0.95182 0.65047 0.0
C1240 C 0.70588 0.93998 0.6638 0.0
C1241 C 0.64835 0.97345 0.62651 0.0
C1242 C 0.64437 0.95092 0.63707 0.0
C1243 C 0.66347 0.94023 0.64869 0.0
C1244 C 0.62046 0.93834 0.63575 0.0
C1245 C 0.62898 0.98525 0.6128 0.0
C1246 C 0.59953 0.94969 0.64378 0.0
C1247 C 0.5765 0.94065 0.63858 0.0
C1248 C 0.57399 0.9199 0.6255 0.0
C1249 C 0.59495 0.9072 0.61924 0.0
C1250 C 0.61806 0.91638 0.62433 0.0
H1251 H 0.63673 0.99913 0.60169 0.0
H1252 H 0.61907 0.97145 0.60307 0.0
H1253 H 0.61568 0.99446 0.62345 0.0
H1254 H 0.60097 0.96643 0.65292 0.0
H1255 H 0.56061 0.95082 0.64351 0.0
H1256 H 0.54023 0.76787 0.61946 0.0
H1257 H 0.5627 0.72948 0.62096 0.0
H1258 H 0.50083 0.69429 0.65022 0.0
H1259 H 0.47814 0.7324 0.64855 0.0
H1260 H 0.57506 0.69764 0.65558 0.0
H1261 H 0.51377 0.65306 0.59632 0.0
H1262 H 0.51392 0.68552 0.6007 0.0
H1263 H 0.4984 0.66568 0.61927 0.0
C1264 C 0.53142 0.752 0.62633 0.0
C1265 C 0.50726 0.7532 0.63369 0.0
C1266 C 0.54434 0.73008 0.62721 0.0
C1267 C 0.53334 0.70891 0.63539 0.0
C1268 C 0.50955 0.71027 0.64347 0.0
H1269 H 0.56948 0.55602 0.63614 0.0
H1270 H 0.55315 0.59597 0.64562 0.0
C1271 C 0.49662 0.73214 0.64257 0.0
C1272 C 0.54631 0.68518 0.63472 0.0
H1273 H 0.54282 0.62802 0.61336 0.0
C1274 C 0.56807 0.68239 0.64634 0.0
C1275 C 0.53725 0.66535 0.62256 0.0
C1276 C 0.51469 0.66752 0.60883 0.0
C1277 C 0.58068 0.66011 0.6465 0.0
C1278 C 0.57144 0.64022 0.63449 0.0
C1279 C 0.54979 0.64315 0.62277 0.0
C1280 C 0.58391 0.61623 0.63324 0.0
C1281 C 0.60348 0.65789 0.65983 0.0
C1282 C 0.60716 0.61419 0.624 0.0
C1283 C 0.61667 0.59126 0.61884 0.0
C1284 C 0.60297 0.57006 0.62265 0.0
C1285 C 0.58051 0.57206 0.63327 0.0
C1286 C 0.57111 0.5949 0.63853 0.0
H1287 H 0.60448 0.67216 0.6725 0.0
H1288 H 0.60458 0.63974 0.66765 0.0
H1289 H 0.61953 0.66007 0.64916 0.0
H1290 H 0.61722 0.63033 0.61937 0.0
H1291 H 0.63376 0.59024 0.61024 0.0
H1292 H 0.74907 0.53994 0.63559 0.0
H1293 H 0.78741 0.56216 0.63957 0.0
H1294 H 0.81657 0.50317 0.67734 0.0
H1295 H 0.77844 0.48064 0.67321 0.0
H1296 H 0.81696 0.57735 0.67583 0.0
H1297 H 0.86172 0.50787 0.62428 0.0
H1298 H 0.82914 0.5101 0.62663 0.0
H1299 H 0.84657 0.49614 0.64778 0.0
C1300 C 0.76351 0.53181 0.645 0.0
C1301 C 0.76081 0.50834 0.65382 0.0
C1302 C 0.78538 0.54459 0.64731 0.0
C1303 C 0.80494 0.53415 0.65846 0.0
C1304 C 0.80181 0.51139 0.66839 0.0
H1305 H 0.95819 0.56889 0.65215 0.0
H1306 H 0.91943 0.55418 0.66655 0.0
C1307 C 0.77998 0.49856 0.66604 0.0
C1308 C 0.82916 0.54606 0.65803 0.0
H1309 H 0.88634 0.53926 0.63779 0.0
C1310 C 0.83222 0.56901 0.66765 0.0
C1311 C 0.84898 0.53518 0.64723 0.0
C1312 C 0.84652 0.51107 0.63572 0.0
C1313 C 0.85469 0.58131 0.66684 0.0
C1314 C 0.87441 0.5705 0.65584 0.0
C1315 C 0.87133 0.54744 0.64646 0.0
C1316 C 0.89806 0.58308 0.6524 0.0
C1317 C 0.85713 0.60565 0.67787 0.0
C1318 C 0.89914 0.60492 0.6406 0.0
C1319 C 0.92138 0.61354 0.63266 0.0
C1320 C 0.94277 0.60026 0.63616 0.0
C1321 C 0.94195 0.57954 0.64943 0.0
C1322 C 0.9198 0.57108 0.65754 0.0
H1323 H 0.84359 0.60768 0.69104 0.0
H1324 H 0.87562 0.6082 0.68468 0.0
H1325 H 0.85383 0.62031 0.66591 0.0
H1326 H 0.88263 0.61423 0.63601 0.0
H1327 H 0.9215 0.62928 0.62212 0.0
H1328 H 0.59889 0.25448 0.90711 0.0
H1329 H 0.61191 0.22604 0.93516 0.0
H1330 H 0.56281 0.25956 0.98036 0.0
H1331 H 0.54977 0.28826 0.95241 0.0
H1332 H 0.61017 0.25239 0.99653 0.0
H1333 H 0.5731 0.16796 0.95995 0.0
H1334 H 0.59173 0.18565 0.94198 0.0
H1335 H 0.56355 0.19796 0.95165 0.0
C1336 C 0.59084 0.25582 0.92301 0.0
C1337 C 0.57328 0.27363 0.92754 0.0
C1338 C 0.59816 0.23941 0.93897 0.0
C1339 C 0.58801 0.24041 0.95973 0.0
C1340 C 0.5707 0.25834 0.96439 0.0
H1341 H 0.61692 0.13232 0.06203 0.0
H1342 H 0.59547 0.15889 0.03637 0.0
C1343 C 0.56328 0.27472 0.9484 0.0
C1344 C 0.5962 0.22332 0.97677 0.0
H1345 H 0.60133 0.16287 0.98895 0.0
C1346 C 0.608 0.23283 0.99499 0.0
C1347 C 0.59307 0.19783 0.97487 0.0
C1348 C 0.57947 0.18669 0.95617 0.0
C1349 C 0.61768 0.21748 0.01091 0.0
C1350 C 0.61568 0.19196 0.00844 0.0
C1351 C 0.60297 0.18244 0.99071 0.0
C1352 C 0.62824 0.17502 0.02332 0.0
C1353 C 0.63029 0.22868 0.03014 0.0
C1354 C 0.65366 0.17487 0.02401 0.0
C1355 C 0.66587 0.15976 0.03845 0.0
C1356 C 0.65292 0.14439 0.05255 0.0
C1357 C 0.6274 0.14399 0.05142 0.0
C1358 C 0.61514 0.15915 0.03682 0.0
H1359 H 0.62482 0.24793 0.03256 0.0
H1360 H 0.62626 0.21827 0.04509 0.0
H1361 H 0.65022 0.22831 0.02748 0.0
H1362 H 0.66411 0.18666 0.01347 0.0
H1363 H 0.68554 0.16045 0.03872 0.0
H1364 H 0.2031 0.61184 0.95456 0.0
H1365 H 0.23343 0.62532 0.98094 0.0
H1366 H 0.28663 0.57834 0.9517 0.0
H1367 H 0.25665 0.5651 0.92508 0.0
H1368 H 0.25925 0.60027 0.01106 0.0
H1369 H 0.32253 0.64288 0.95259 0.0
H1370 H 0.29203 0.63386 0.94539 0.0
H1371 H 0.31593 0.61164 0.94645 0.0
C1372 C 0.22124 0.60432 0.95374 0.0
C1373 C 0.22742 0.58745 0.93757 0.0
C1374 C 0.23859 0.61209 0.96883 0.0
C1375 C 0.2625 0.60325 0.96806 0.0
C1376 C 0.26852 0.58594 0.9523 0.0
H1377 H 0.36745 0.60774 0.07269 0.0
H1378 H 0.33895 0.59606 0.04427 0.0
C1379 C 0.25124 0.57822 0.93717 0.0
C1380 C 0.281 0.61171 0.984 0.0
H1381 H 0.33745 0.63752 0.98844 0.0
C1382 C 0.27629 0.60851 0.0061 0.0
C1383 C 0.30311 0.62286 0.9776 0.0
C1384 C 0.30865 0.62826 0.95423 0.0
C1385 C 0.29327 0.61555 0.02189 0.0
C1386 C 0.31587 0.62564 0.01544 0.0
C1387 C 0.32032 0.62945 0.99338 0.0
C1388 C 0.33495 0.63245 0.03143 0.0
C1389 C 0.28666 0.61245 0.04537 0.0
C1390 C 0.34328 0.65659 0.033 0.0
C1391 C 0.35988 0.66332 0.04914 0.0
C1392 C 0.3685 0.646 0.064 0.0
C1393 C 0.36105 0.62162 0.06167 0.0
C1394 C 0.34457 0.61491 0.04551 0.0
H1395 H 0.26668 0.61108 0.04765 0.0
H1396 H 0.29489 0.59541 0.05157 0.0
H1397 H 0.2936 0.62786 0.0552 0.0
H1398 H 0.33631 0.67042 0.0222 0.0
H1399 H 0.36522 0.68225 0.05045 0.0
H1400 H 0.98137 0.24575 0.9423 0.0
H1401 H 0.97571 0.27962 0.96746 0.0
H1402 H 0.90024 0.28403 0.94909 0.0
H1403 H 0.90607 0.25129 0.9232 0.0
H1404 H 0.91802 0.32775 0.953 0.0
H1405 H 0.94506 0.2748 0.02541 0.0
H1406 H 0.9685 0.27721 0.00542 0.0
H1407 H 0.94095 0.26082 0.99938 0.0
C1408 C 0.96359 0.25397 0.94362 0.0
C1409 C 0.9441 0.24555 0.93092 0.0
C1410 C 0.96033 0.27325 0.95813 0.0
C1411 C 0.93739 0.28407 0.96062 0.0
C1412 C 0.9181 0.27599 0.94759 0.0
H1413 H 0.87274 0.35377 0.06807 0.0
H1414 H 0.89078 0.3274 0.04108 0.0
C1415 C 0.92145 0.25712 0.93282 0.0
C1416 C 0.93303 0.30358 0.97686 0.0
H1417 H 0.93488 0.31586 0.03088 0.0
C1418 C 0.92179 0.32519 0.97004 0.0
C1419 C 0.93784 0.30023 0.99912 0.0
C1420 C 0.94853 0.27694 0.00785 0.0
C1421 C 0.91435 0.34305 0.98484 0.0
C1422 C 0.91915 0.33969 0.00712 0.0
C1423 C 0.93131 0.31854 0.01382 0.0
C1424 C 0.90938 0.35635 0.02397 0.0
C1425 C 0.90023 0.36461 0.97652 0.0
C1426 C 0.91405 0.38155 0.0237 0.0
C1427 C 0.90325 0.3969 0.03903 0.0
C1428 C 0.88812 0.3872 0.0552 0.0
C1429 C 0.88435 0.3619 0.05591 0.0
C1430 C 0.89471 0.34672 0.04044 0.0
H1431 H 0.89297 0.36136 0.96003 0.0
H1432 H 0.88478 0.36896 0.98735 0.0
H1433 H 0.91241 0.38072 0.97575 0.0
H1434 H 0.92586 0.38939 0.01157 0.0
H1435 H 0.90669 0.41629 0.03818 0.0
H1436 H 0.28572 0.9598 0.9536 0.0
H1437 H 0.25589 0.95038 0.98176 0.0
H1438 H 0.22771 0.89149 0.94314 0.0
H1439 H 0.25728 0.9008 0.91488 0.0
H1440 H 0.19112 0.92092 0.96353 0.0
H1441 H 0.26227 0.88942 0.02084 0.0
H1442 H 0.26625 0.91949 0.00992 0.0
H1443 H 0.26815 0.89355 0.99241 0.0
C1444 C 0.27307 0.94496 0.951 0.0
C1445 C 0.27407 0.93095 0.932 0.0
C1446 C 0.25608 0.93955 0.96717 0.0
C1447 C 0.23976 0.92005 0.96467 0.0
C1448 C 0.24015 0.9066 0.94543 0.0
H1449 H 0.1632 0.8274 0.05077 0.0
H1450 H 0.18891 0.84799 0.02449 0.0
C1451 C 0.25715 0.91192 0.9293 0.0
C1452 C 0.22295 0.91286 0.98236 0.0
H1453 H 0.22176 0.88743 0.0327 0.0
C1454 C 0.19777 0.91385 0.97876 0.0
C1455 C 0.2317 0.90344 1.00214 0.0
C1456 C 0.25855 0.90118 0.00663 0.0
C1457 C 0.18113 0.90529 0.99428 0.0
C1458 C 0.18991 0.89559 0.01394 0.0
C1459 C 0.21506 0.89506 0.01769 0.0
C1460 C 0.17359 0.88364 0.02989 0.0
C1461 C 0.15433 0.90571 0.98923 0.0
C1462 C 0.15634 0.89686 0.04177 0.0
C1463 C 0.14149 0.88506 0.05701 0.0
C1464 C 0.14367 0.85986 0.06055 0.0
C1465 C 0.16094 0.8468 0.04851 0.0
C1466 C 0.17574 0.85856 0.03346 0.0
H1467 H 0.15072 0.91055 0.97211 0.0
H1468 H 0.14598 0.88769 0.99266 0.0
H1469 H 0.14528 0.91933 0.99968 0.0
H1470 H 0.15456 0.9163 0.03944 0.0
H1471 H 0.12842 0.89565 0.06604 0.0
H1472 H 0.11063 0.75082 0.59136 0.0
H1473 H 0.12576 0.77784 0.56296 0.0
H1474 H 0.06988 0.75183 0.51992 0.0
H1475 H 0.05473 0.72455 0.54818 0.0
H1476 H 0.11683 0.7554 0.50086 0.0
H1477 H 0.09064 0.84052 0.54295 0.0
H1478 H 0.10886 0.82012 0.55877 0.0
H1479 H 0.07885 0.81104 0.55058 0.0
C1480 C 0.10165 0.75067 0.57582 0.0
C1481 C 0.08139 0.73557 0.5721 0.0
C1482 C 0.11021 0.76629 0.55965 0.0
C1483 C 0.09866 0.76719 0.53946 0.0
C1484 C 0.07894 0.75158 0.53545 0.0
H1485 H 0.12312 0.87983 0.44061 0.0
H1486 H 0.10372 0.85196 0.46655 0.0
C1487 C 0.07032 0.73599 0.55163 0.0
C1488 C 0.10716 0.78439 0.52253 0.0
H1489 H 0.11533 0.84487 0.51165 0.0
C1490 C 0.11638 0.77496 0.50316 0.0
C1491 C 0.1062 0.80992 0.52541 0.0
C1492 C 0.09541 0.82109 0.54545 0.0
C1493 C 0.12541 0.79037 0.4869 0.0
C1494 C 0.12541 0.81587 0.49016 0.0
C1495 C 0.11544 0.82533 0.50922 0.0
C1496 C 0.13685 0.83285 0.47447 0.0
C1497 C 0.13493 0.77923 0.46633 0.0
C1498 C 0.1619 0.83161 0.47063 0.0
C1499 C 0.17298 0.84747 0.456 0.0
C1500 C 0.15927 0.86502 0.44484 0.0
C1501 C 0.13417 0.86647 0.44887 0.0
C1502 C 0.12307 0.85058 0.46368 0.0
H1503 H 0.12778 0.7605 0.46388 0.0
H1504 H 0.13004 0.79051 0.45211 0.0
H1505 H 0.15504 0.77819 0.4672 0.0
H1506 H 0.17296 0.81839 0.47907 0.0
H1507 H 0.19236 0.84586 0.45342 0.0
H1508 H 0.78839 0.05635 0.55507 0.0
H1509 H 0.75805 0.06495 0.52716 0.0
H1510 H 0.72605 0.11973 0.56787 0.0
H1511 H 0.75614 0.11125 0.59587 0.0
H1512 H 0.69153 0.08816 0.54555 0.0
H1513 H 0.76129 0.12919 0.4914 0.0
H1514 H 0.76721 0.09894 0.50114 0.0
H1515 H 0.76681 0.12395 0.51975 0.0
C1516 C 0.77479 0.07009 0.55818 0.0
C1517 C 0.77487 0.08327 0.57766 0.0
C1518 C 0.75749 0.07501 0.54218 0.0
C1519 C 0.73997 0.09315 0.54537 0.0
C1520 C 0.73944 0.10567 0.56508 0.0
H1521 H 0.65857 0.18688 0.46548 0.0
H1522 H 0.68381 0.16564 0.49161 0.0
C1523 C 0.75673 0.10085 0.58104 0.0
C1524 C 0.723 0.10017 0.52783 0.0
H1525 H 0.72088 0.1295 0.47926 0.0
C1526 C 0.69791 0.09691 0.53091 0.0
C1527 C 0.73142 0.11176 0.50885 0.0
C1528 C 0.75812 0.11639 0.50501 0.0
C1529 C 0.68099 0.10539 0.51564 0.0
C1530 C 0.68943 0.11738 0.49689 0.0
C1531 C 0.71451 0.12011 0.4936 0.0
C1532 C 0.67266 0.12961 0.48163 0.0
C1533 C 0.6542 0.10245 0.52002 0.0
C1534 C 0.65777 0.11634 0.46742 0.0
C1535 C 0.64321 0.12851 0.45226 0.0
C1536 C 0.64341 0.15409 0.45114 0.0
C1537 C 0.65798 0.16718 0.46579 0.0
C1538 C 0.67248 0.15507 0.48077 0.0
H1539 H 0.65057 0.09468 0.53626 0.0
H1540 H 0.64496 0.12033 0.51872 0.0
H1541 H 0.64608 0.09021 0.50771 0.0
H1542 H 0.65782 0.09664 0.46774 0.0
H1543 H 0.63224 0.11792 0.44117 0.0
H1544 H 0.33757 0.64681 0.45941 0.0
H1545 H 0.35249 0.67191 0.48941 0.0
H1546 H 0.42125 0.68067 0.45702 0.0
H1547 H 0.40658 0.65582 0.42704 0.0
H1548 H 0.39555 0.66716 0.51671 0.0
H1549 H 0.39665 0.75116 0.46673 0.0
H1550 H 0.38032 0.72405 0.45881 0.0
H1551 H 0.4127 0.72575 0.45547 0.0
C1552 C 0.35595 0.65388 0.45877 0.0
C1553 C 0.3708 0.64948 0.44072 0.0
C1554 C 0.36443 0.66822 0.47592 0.0
C1555 C 0.38782 0.67849 0.47524 0.0
C1556 C 0.403 0.67328 0.45768 0.0
H1557 H 0.46569 0.78374 0.55503 0.0
H1558 H 0.45411 0.75374 0.5276 0.0
C1559 C 0.39458 0.65897 0.44059 0.0
C1560 C 0.39622 0.69525 0.49251 0.0
H1561 H 0.41338 0.75413 0.50177 0.0
C1562 C 0.39939 0.68619 0.5135 0.0
C1563 C 0.4013 0.72005 0.48823 0.0
C1564 C 0.3974 0.73097 0.46615 0.0
C1565 C 0.40788 0.70122 0.53028 0.0
C1566 C 0.41283 0.72608 0.52602 0.0
C1567 C 0.4097 0.73507 0.505 0.0
C1568 C 0.4205 0.74331 0.54324 0.0
C1569 C 0.41192 0.69021 0.5523 0.0
C1570 C 0.40541 0.74755 0.56108 0.0
C1571 C 0.41198 0.76461 0.57677 0.0
C1572 C 0.43373 0.77802 0.57491 0.0
C1573 C 0.44886 0.77372 0.55703 0.0
C1574 C 0.44226 0.75658 0.54132 0.0
H1575 H 0.41427 0.67016 0.55137 0.0
H1576 H 0.42816 0.69823 0.56025 0.0
H1577 H 0.39586 0.69388 0.56259 0.0
H1578 H 0.38825 0.73801 0.56266 0.0
H1579 H 0.39974 0.76753 0.5902 0.0
H1580 H 0.76216 0.4555 0.5884 0.0
H1581 H 0.79386 0.44613 0.5621 0.0
H1582 H 0.74032 0.41451 0.51972 0.0
H1583 H 0.70832 0.42359 0.54605 0.0
H1584 H 0.80171 0.39427 0.54395 0.0
H1585 H 0.78304 0.46671 0.48334 0.0
H1586 H 0.77482 0.46991 0.51145 0.0
H1587 H 0.75764 0.45001 0.49431 0.0
C1588 C 0.757 0.44672 0.57343 0.0
C1589 C 0.73263 0.44032 0.56935 0.0
C1590 C 0.7752 0.44135 0.55844 0.0
C1591 C 0.76939 0.42978 0.53896 0.0
C1592 C 0.7451 0.42364 0.53462 0.0
H1593 H 0.85046 0.38225 0.4275 0.0
H1594 H 0.82022 0.397 0.45304 0.0
C1595 C 0.72687 0.4288 0.54971 0.0
C1596 C 0.78894 0.42323 0.5236 0.0
H1597 H 0.81371 0.43843 0.47488 0.0
C1598 C 0.80445 0.40393 0.52887 0.0
C1599 C 0.7923 0.43583 0.50395 0.0
C1600 C 0.77621 0.45688 0.49781 0.0
C1601 C 0.823 0.39653 0.51476 0.0
C1602 C 0.82662 0.40931 0.49513 0.0
C1603 C 0.81109 0.42873 0.48996 0.0
C1604 C 0.84564 0.40207 0.47931 0.0
C1605 C 0.83792 0.37453 0.52073 0.0
C1606 C 0.87025 0.40071 0.48529 0.0
C1607 C 0.88765 0.39201 0.47073 0.0
C1608 C 0.88084 0.38489 0.44977 0.0
C1609 C 0.8564 0.38752 0.4435 0.0
C1610 C 0.83902 0.39596 0.45811 0.0
H1611 H 0.82861 0.36305 0.53298 0.0
H1612 H 0.8418 0.36315 0.50634 0.0
H1613 H 0.85547 0.38063 0.52772 0.0
H1614 H 0.87595 0.406 0.50134 0.0
H1615 H 0.90633 0.39044 0.47603 0.0
H1616 H 0.34281 0.88406 0.96169 0.0
H1617 H 0.35641 0.86019 0.99273 0.0
H1618 H 0.4274 0.85325 0.96404 0.0
H1619 H 0.41394 0.87687 0.93287 0.0
H1620 H 0.40616 0.80902 0.97514 0.0
H1621 H 0.40188 0.87359 0.04383 0.0
H1622 H 0.37468 0.87227 0.02784 0.0
H1623 H 0.40234 0.88353 0.01603 0.0
C1624 C 0.36148 0.87793 0.96218 0.0
C1625 C 0.37725 0.88226 0.94472 0.0
C1626 C 0.36926 0.86435 0.98001 0.0
C1627 C 0.39298 0.85506 0.98077 0.0
C1628 C 0.40905 0.86029 0.9638 0.0
H1629 H 0.46232 0.74599 0.06298 0.0
H1630 H 0.45445 0.77762 0.03609 0.0
C1631 C 0.40131 0.87384 0.946 0.0
C1632 C 0.40024 0.83784 0.99804 0.0
H1633 H 0.40628 0.83158 0.05264 0.0
C1634 C 0.40645 0.81402 0.99207 0.0
C1635 C 0.4004 0.84435 0.02012 0.0
C1636 C 0.39468 0.86988 0.02739 0.0
C1637 C 0.41221 0.79635 0.00759 0.0
C1638 C 0.41229 0.8028 0.02969 0.0
C1639 C 0.40628 0.82669 0.03568 0.0
C1640 C 0.41775 0.78474 0.04683 0.0
C1641 C 0.41736 0.7707 1.00021 0.0
C1642 C 0.40004 0.77881 0.06224 0.0
C1643 C 0.40452 0.76087 0.07772 0.0
C1644 C 0.42687 0.74849 0.07814 0.0
C1645 C 0.44483 0.75495 0.06302 0.0
C1646 C 0.44034 0.77298 0.04757 0.0
H1647 H 0.41075 0.7674 0.98351 0.0
H1648 H 0.43726 0.76759 1.0004 0.0
H1649 H 0.40872 0.75718 0.01114 0.0
H1650 H 0.38251 0.78772 0.062 0.0
H1651 H 0.39026 0.75643 0.08912 0.0
H1652 H 0.63858 0.30889 0.97359 0.0
H1653 H 0.66486 0.32886 1.00013 0.0
H1654 H 0.67354 0.39015 0.95722 0.0
H1655 H 0.64647 0.37079 0.93113 0.0
H1656 H 0.71051 0.33995 0.99724 0.0
H1657 H 0.66098 0.42566 0.01175 0.0
H1658 H 0.64757 0.40053 0.99726 0.0
H1659 H 0.66743 0.42168 0.98363 0.0
C1660 C 0.64573 0.32683 0.97 0.0
C1661 C 0.64031 0.33832 0.95032 0.0
C1662 C 0.66082 0.33821 0.98516 0.0
C1663 C 0.67098 0.36123 0.98089 0.0
C1664 C 0.66541 0.37278 0.96127 0.0
H1665 H 0.80394 0.41308 0.04288 0.0
H1666 H 0.7737 0.39639 0.01793 0.0
C1667 C 0.65 0.36159 0.94627 0.0
C1668 C 0.68863 0.37237 0.99628 0.0
H1669 H 0.70256 0.42487 0.02318 0.0
C1670 C 0.70862 0.35846 0.00305 0.0
C1671 C 0.68612 0.39643 0.00416 0.0
C1672 C 0.66422 0.41182 0.99901 0.0
C1673 C 0.72626 0.36798 0.01714 0.0
C1674 C 0.72444 0.39246 0.02407 0.0
C1675 C 0.70424 0.40625 0.01761 0.0
C1676 C 0.74285 0.40389 0.03855 0.0
C1677 C 0.7463 0.3514 0.02483 0.0
C1678 C 0.73557 0.41485 0.05796 0.0
C1679 C 0.75276 0.42496 0.07198 0.0
C1680 C 0.77768 0.42417 0.06699 0.0
C1681 C 0.78492 0.41376 0.0473 0.0
C1682 C 0.76765 0.404 0.03311 0.0
H1683 H 0.74092 0.33194 0.02363 0.0
H1684 H 0.76257 0.35411 0.01453 0.0
H1685 H 0.75135 0.35533 0.04182 0.0
H1686 H 0.71657 0.41515 0.0625 0.0
H1687 H 0.74654 0.43278 0.08703 0.0
H1688 H 0.12457 0.60705 0.97456 0.0
H1689 H 0.10966 0.63727 1.00031 0.0
H1690 H 0.10238 0.68961 0.94888 0.0
H1691 H 0.11733 0.65958 0.92299 0.0
H1692 H 0.13401 0.68392 0.00666 0.0
H1693 H 0.03694 0.69359 0.98334 0.0
H1694 H 0.05466 0.66704 0.9766 0.0
H1695 H 0.05865 0.69475 0.96166 0.0
C1696 C 0.11939 0.62484 0.96862 0.0
C1697 C 0.1222 0.63091 0.9467 0.0
C1698 C 0.11093 0.6421 0.98339 0.0
C1699 C 0.10482 0.66561 0.97647 0.0
C1700 C 0.10673 0.67147 0.9545 0.0
H1701 H 0.09662 0.79881 0.052 0.0
H1702 H 0.10493 0.76805 0.02439 0.0
C1703 C 0.11535 0.65429 0.93974 0.0
C1704 C 0.09832 0.68456 0.99246 0.0
H1705 H 0.05235 0.7218 0.00894 0.0
C1706 C 0.11615 0.69218 0.0072 0.0
C1707 C 0.075 0.69521 0.99312 0.0
C1708 C 0.05508 0.68719 0.97797 0.0
C1709 C 0.11135 0.71041 0.02246 0.0
C1710 C 0.08814 0.72133 0.02292 0.0
C1711 C 0.07019 0.71351 0.00838 0.0
C1712 C 0.0821 0.74042 0.03889 0.0
C1713 C 0.131 0.71771 0.03818 0.0
C1714 C 0.06618 0.73516 0.05593 0.0
C1715 C 0.06151 0.7526 0.07179 0.0
C1716 C 0.0725 0.77575 0.07079 0.0
C1717 C 0.08792 0.78117 0.05331 0.0
C1718 C 0.09273 0.76362 0.03754 0.0
H1719 H 0.14648 0.70479 0.03806 0.0
H1720 H 0.13798 0.73603 0.03382 0.0
H1721 H 0.12359 0.71875 0.05483 0.0
H1722 H 0.05779 0.71735 0.05721 0.0
H1723 H 0.04946 0.74782 0.08496 0.0
H1724 H 0.71548 0.09257 0.04373 0.0
H1725 H 0.74624 0.10738 0.01834 0.0
H1726 H 0.80181 0.09667 0.06652 0.0
H1727 H 0.7714 0.08081 0.09151 0.0
H1728 H 0.77395 0.14528 0.01956 0.0
H1729 H 0.83437 0.0653 0.01691 0.0
H1730 H 0.80484 0.06421 0.02945 0.0
H1731 H 0.83068 0.076 0.04401 0.0
C1732 C 0.73431 0.09305 0.04878 0.0
C1733 C 0.74103 0.08526 0.06955 0.0
C1734 C 0.75189 0.10157 0.03427 0.0
C1735 C 0.77652 0.10271 0.04029 0.0
C1736 C 0.78315 0.09521 0.06115 0.0
H1737 H 0.87934 0.19915 0.97522 0.0
H1738 H 0.85176 0.17975 1.00104 0.0
C1739 C 0.76566 0.08629 0.07551 0.0
C1740 C 0.79502 0.11293 0.0252 0.0
H1741 H 0.85098 0.10257 0.00319 0.0
C1742 C 0.7907 0.13581 0.01586 0.0
C1743 C 0.81677 0.10051 0.02002 0.0
C1744 C 0.82182 0.07504 0.02794 0.0
C1745 C 0.80755 0.14674 1.00183 0.0
C1746 C 0.82993 0.13495 0.99765 0.0
C1747 C 0.83408 0.11187 0.00668 0.0
C1748 C 0.84884 0.14586 0.98337 0.0
C1749 C 0.80079 0.17051 0.9912 0.0
C1750 C 0.85781 0.13274 0.96564 0.0
C1751 C 0.87417 0.14354 0.95122 0.0
C1752 C 0.8817 0.1678 0.95412 0.0
C1753 C 0.87366 0.18051 0.97243 0.0
C1754 C 0.85766 0.16953 0.98707 0.0
H1755 H 0.78077 0.17298 0.99064 0.0
H1756 H 0.80853 0.18581 1.00067 0.0
H1757 H 0.80793 0.17159 0.97447 0.0
H1758 H 0.85149 0.11438 0.9625 0.0
H1759 H 0.87997 0.13328 0.93723 0.0
H1760 H 0.91147 0.1384 0.57181 0.0
H1761 H 0.92322 0.16601 0.54265 0.0
H1762 H 0.84879 0.169 0.52113 0.0
H1763 H 0.83691 0.14099 0.55001 0.0
H1764 H 0.88153 0.16761 0.48723 0.0
H1765 H 0.90759 0.2384 0.54678 0.0
H1766 H 0.92333 0.21013 0.55032 0.0
H1767 H 0.89097 0.21131 0.55421 0.0
C1768 C 0.89764 0.14461 0.56068 0.0
C1769 C 0.8732 0.13772 0.5634 0.0
C1770 C 0.90437 0.16054 0.54412 0.0
C1771 C 0.88677 0.17009 0.53011 0.0
C1772 C 0.86262 0.16204 0.53191 0.0
H1773 H 0.90194 0.30306 0.45461 0.0
H1774 H 0.89005 0.27183 0.4808 0.0
C1775 C 0.85588 0.14597 0.54841 0.0
C1776 C 0.89333 0.18925 0.51423 0.0
H1777 H 0.91703 0.24661 0.51012 0.0
C1778 C 0.88926 0.1849 0.49221 0.0
C1779 C 0.90294 0.21201 0.52081 0.0
C1780 C 0.90626 0.21841 0.54432 0.0
C1781 C 0.89505 0.20249 0.47654 0.0
C1782 C 0.90561 0.22485 0.48307 0.0
C1783 C 0.9092 0.22938 0.50512 0.0
C1784 C 0.91303 0.24382 0.46729 0.0
C1785 C 0.88937 0.19713 0.45319 0.0
C1786 C 0.93029 0.23862 0.45131 0.0
C1787 C 0.93706 0.25637 0.4363 0.0
C1788 C 0.92691 0.27983 0.4371 0.0
C1789 C 0.91011 0.2852 0.45351 0.0
C1790 C 0.90326 0.26736 0.46847 0.0
H1791 H 0.87527 0.18272 0.45159 0.0
H1792 H 0.88301 0.2137 0.44466 0.0
H1793 H 0.90607 0.19059 0.44504 0.0
H1794 H 0.93857 0.2208 0.45045 0.0
H1795 H 0.95021 0.25164 0.42402 0.0
H1796 H 0.26982 0.95707 0.42115 0.0
H1797 H 0.30006 0.94513 0.44804 0.0
H1798 H 0.24587 0.90265 0.4815 0.0
H1799 H 0.21537 0.91496 0.45504 0.0
H1800 H 0.27313 0.9291 0.50921 0.0
H1801 H 0.33341 0.87974 0.45264 0.0
H1802 H 0.328 0.91074 0.44493 0.0
H1803 H 0.3032 0.88934 0.44529 0.0
C1804 C 0.26428 0.94523 0.43426 0.0
C1805 C 0.24014 0.93688 0.43583 0.0
C1806 C 0.28168 0.93825 0.44953 0.0
C1807 C 0.2754 0.92255 0.46656 0.0
C1808 C 0.25121 0.91462 0.46842 0.0
H1809 H 0.3722 0.84176 0.55145 0.0
H1810 H 0.34448 0.85476 0.52277 0.0
C1811 C 0.23377 0.92169 0.45324 0.0
C1812 C 0.29386 0.91473 0.48269 0.0
H1813 H 0.34852 0.88597 0.48819 0.0
C1814 C 0.2896 0.91964 0.5046 0.0
C1815 C 0.31519 0.90204 0.47674 0.0
C1816 C 0.32017 0.89491 0.45365 0.0
C1817 C 0.30614 0.91251 0.52066 0.0
C1818 C 0.3279 0.90061 0.51464 0.0
C1819 C 0.33202 0.89537 0.49277 0.0
C1820 C 0.34627 0.89301 0.53093 0.0
C1821 C 0.29985 0.91731 0.54398 0.0
C1822 C 0.3572 0.91025 0.54458 0.0
C1823 C 0.37295 0.90287 0.56104 0.0
C1824 C 0.37836 0.87809 0.56404 0.0
C1825 C 0.36841 0.86097 0.54962 0.0
C1826 C 0.35252 0.86838 0.53322 0.0
H1827 H 0.28005 0.92028 0.54619 0.0
H1828 H 0.30553 0.90194 0.55446 0.0
H1829 H 0.30946 0.93397 0.54947 0.0
H1830 H 0.35318 0.92942 0.54277 0.0
H1831 H 0.38046 0.91657 0.5717 0.0
H1832 H 0.63024 0.35862 0.57765 0.0
H1833 H 0.61627 0.32834 0.55158 0.0
H1834 H 0.61105 0.38385 0.50266 0.0
H1835 H 0.62521 0.41448 0.52865 0.0
H1836 H 0.5691 0.34516 0.50804 0.0
H1837 H 0.66299 0.30943 0.49827 0.0
H1838 H 0.65236 0.31456 0.52537 0.0
H1839 H 0.65701 0.33996 0.50764 0.0
C1840 C 0.62586 0.36455 0.56143 0.0
C1841 C 0.62904 0.38899 0.5552 0.0
C1842 C 0.61791 0.34717 0.54657 0.0
C1843 C 0.61288 0.35387 0.52521 0.0
C1844 C 0.61493 0.37838 0.5191 0.0
H1845 H 0.56639 0.27204 0.41226 0.0
H1846 H 0.57435 0.30362 0.43903 0.0
C1847 C 0.62302 0.39582 0.53397 0.0
C1848 C 0.60676 0.33496 0.50909 0.0
H1849 H 0.63161 0.28827 0.48042 0.0
C1850 C 0.58271 0.33275 0.50188 0.0
C1851 C 0.62459 0.31876 0.5013 0.0
C1852 C 0.65076 0.32073 0.50837 0.0
C1853 C 0.57592 0.31438 0.48726 0.0
C1854 C 0.59382 0.29823 0.4793 0.0
C1855 C 0.61789 0.30058 0.48654 0.0
C1856 C 0.58815 0.2789 0.46329 0.0
C1857 C 0.54953 0.31206 0.48096 0.0
C1858 C 0.59382 0.2545 0.46776 0.0
C1859 C 0.58959 0.23638 0.45234 0.0
C1860 C 0.5796 0.24231 0.43212 0.0
C1861 C 0.57388 0.26676 0.42773 0.0
C1862 C 0.57826 0.28487 0.4431 0.0
H1863 H 0.53742 0.32065 0.49309 0.0
H1864 H 0.54659 0.32143 0.46531 0.0
H1865 H 0.54414 0.29268 0.47908 0.0
H1866 H 0.60162 0.24949 0.48318 0.0
H1867 H 0.59424 0.21776 0.45626 0.0
H1868 H 0.13609 0.6484 0.55542 0.0
H1869 H 0.16112 0.62949 0.52737 0.0
H1870 H 0.20675 0.69335 0.52536 0.0
H1871 H 0.18205 0.71231 0.55341 0.0
H1872 H 0.17318 0.64505 0.48505 0.0
H1873 H 0.25498 0.63772 0.53705 0.0
H1874 H 0.22514 0.64393 0.54777 0.0
H1875 H 0.24255 0.66784 0.53531 0.0
C1876 C 0.15136 0.65849 0.54892 0.0
C1877 C 0.15717 0.68179 0.55682 0.0
C1878 C 0.16566 0.64764 0.5329 0.0
C1879 C 0.18609 0.65982 0.52457 0.0
C1880 C 0.1914 0.68341 0.53188 0.0
H1881 H 0.26925 0.62484 0.40939 0.0
H1882 H 0.24415 0.64411 0.43701 0.0
C1883 C 0.17713 0.69427 0.54784 0.0
C1884 C 0.202 0.64782 0.50841 0.0
H1885 H 0.26013 0.6283 0.49994 0.0
C1886 C 0.19218 0.64133 0.4883 0.0
C1887 C 0.22671 0.64269 0.51279 0.0
C1888 C 0.23798 0.64818 0.53446 0.0
C1889 C 0.20652 0.6303 0.47231 0.0
C1890 C 0.23142 0.62588 0.47645 0.0
C1891 C 0.24111 0.63193 0.49671 0.0
C1892 C 0.24761 0.61471 0.46004 0.0
C1893 C 0.19481 0.62312 0.45122 0.0
C1894 C 0.25864 0.59216 0.46406 0.0
C1895 C 0.2732 0.58116 0.44833 0.0
C1896 C 0.27717 0.59261 0.42832 0.0
C1897 C 0.26667 0.61554 0.42461 0.0
C1898 C 0.25209 0.62649 0.44032 0.0
H1899 H 0.1747 0.62218 0.45257 0.0
H1900 H 0.1994 0.63688 0.43874 0.0
H1901 H 0.2016 0.6052 0.44563 0.0
H1902 H 0.25557 0.58282 0.47923 0.0
H1903 H 0.28103 0.56353 0.45176 0.0
H1904 H 0.60469 0.12436 0.34671 0.0
H1905 H 0.61752 0.1047 0.31315 0.0
H1906 H 0.57436 0.15528 0.27644 0.0
H1907 H 0.56123 0.17489 0.30979 0.0
H1908 H 0.57102 0.10617 0.26181 0.0
H1909 H 0.6667 0.13696 0.27171 0.0
H1910 H 0.65434 0.12019 0.29408 0.0
H1911 H 0.64208 0.14948 0.28734 0.0
C1912 C 0.59772 0.13117 0.33153 0.0
C1913 C 0.58205 0.15134 0.33099 0.0
C1914 C 0.60519 0.11999 0.31235 0.0
C1915 C 0.59719 0.12878 0.29228 0.0
C1916 C 0.58083 0.14827 0.29173 0.0
H1917 H 0.62713 0.10227 0.15672 0.0
H1918 H 0.60907 0.11417 0.19119 0.0
C1919 C 0.57339 0.15949 0.31086 0.0
C1920 C 0.6065 0.11834 0.2718 0.0
H1921 H 0.65808 0.112 0.24175 0.0
C1922 C 0.59006 0.10738 0.25741 0.0
C1923 C 0.63133 0.12001 0.26608 0.0
C1924 C 0.64967 0.13246 0.28048 0.0
C1925 C 0.59784 0.0978 0.23754 0.0
C1926 C 0.62265 0.09968 0.23173 0.0
C1927 C 0.63908 0.1105 0.24622 0.0
C1928 C 0.63207 0.09096 0.21062 0.0
C1929 C 0.5795 0.08543 0.22311 0.0
C1930 C 0.65114 0.07409 0.21001 0.0
C1931 C 0.66164 0.06741 0.19036 0.0
C1932 C 0.65335 0.07751 0.17082 0.0
C1933 C 0.63383 0.09396 0.17141 0.0
C1934 C 0.62339 0.10072 0.19113 0.0
H1935 H 0.56328 0.0793 0.23232 0.0
H1936 H 0.57333 0.09849 0.21061 0.0
H1937 H 0.58758 0.06947 0.21484 0.0
H1938 H 0.6582 0.06638 0.22483 0.0
H1939 H 0.67661 0.05468 0.19056 0.0
H1940 H 0.33015 0.5643 0.315 0.0
H1941 H 0.34577 0.5801 0.28077 0.0
H1942 H 0.38836 0.63346 0.31514 0.0
H1943 H 0.37249 0.61813 0.3494 0.0
H1944 H 0.36614 0.65327 0.28023 0.0
H1945 H 0.41246 0.56819 0.25591 0.0
H1946 H 0.38068 0.56403 0.26118 0.0
H1947 H 0.40074 0.5728 0.28278 0.0
C1948 C 0.34285 0.57939 0.31531 0.0
C1949 C 0.35016 0.58979 0.33503 0.0
C1950 C 0.35191 0.58831 0.29569 0.0
C1951 C 0.36869 0.60765 0.29533 0.0
C1952 C 0.37559 0.61842 0.31496 0.0
H1953 H 0.44885 0.68402 0.19335 0.0
H1954 H 0.43337 0.66922 0.22809 0.0
C1955 C 0.36647 0.6096 0.33458 0.0
C1956 C 0.37889 0.61683 0.27453 0.0
H1957 H 0.41 0.59936 0.22936 0.0
C1958 C 0.37586 0.6415 0.26918 0.0
C1959 C 0.39167 0.60153 0.26008 0.0
C1960 C 0.39682 0.57523 0.26533 0.0
C1961 C 0.38475 0.65111 0.24964 0.0
C1962 C 0.39724 0.63573 0.23512 0.0
C1963 C 0.40037 0.61112 0.24048 0.0
C1964 C 0.40685 0.64473 0.2141 0.0
C1965 C 0.38022 0.67753 0.24443 0.0
C1966 C 0.39744 0.63555 0.19468 0.0
C1967 C 0.40623 0.64395 0.17482 0.0
C1968 C 0.42485 0.66156 0.17391 0.0
C1969 C 0.4345 0.67048 0.19342 0.0
C1970 C 0.42557 0.66215 0.21331 0.0
H1971 H 0.36609 0.68555 0.25503 0.0
H1972 H 0.3973 0.688 0.24672 0.0
H1973 H 0.37449 0.67967 0.22734 0.0
H1974 H 0.38306 0.62204 0.1949 0.0
H1975 H 0.39834 0.63664 0.16017 0.0
H1976 H 0.95501 0.34032 0.3127 0.0
H1977 H 0.94206 0.35856 0.27856 0.0
H1978 H 0.89756 0.4097 0.31326 0.0
H1979 H 0.9103 0.39156 0.34748 0.0
H1980 H 0.87315 0.38405 0.27979 0.0
H1981 H 0.95964 0.42477 0.25076 0.0
H1982 H 0.96155 0.39343 0.25888 0.0
H1983 H 0.95479 0.41634 0.27862 0.0
C1984 C 0.94273 0.35566 0.31312 0.0
C1985 C 0.93375 0.36448 0.33289 0.0
C1986 C 0.93543 0.36615 0.29357 0.0
C1987 C 0.91904 0.38566 0.29336 0.0
C1988 C 0.91033 0.39475 0.31305 0.0
H1989 H 0.83745 0.45755 0.19037 0.0
H1990 H 0.85494 0.44601 0.22518 0.0
C1991 C 0.9177 0.38437 0.33261 0.0
C1992 C 0.90969 0.39549 0.27262 0.0
H1993 H 0.92689 0.42356 0.22579 0.0
C1994 C 0.88485 0.39288 0.26805 0.0
C1995 C 0.92502 0.40682 0.25727 0.0
C1996 C 0.95171 0.41074 0.26162 0.0
C1997 C 0.87499 0.40076 0.24833 0.0
C1998 C 0.8903 0.41217 0.23295 0.0
C1999 C 0.91515 0.4149 0.23759 0.0
C2000 C 0.88093 0.42074 0.21174 0.0
C2001 C 0.84842 0.39602 0.2439 0.0
C2002 C 0.89044 0.41126 0.19249 0.0
C2003 C 0.88069 0.41807 0.17252 0.0
C2004 C 0.86119 0.43453 0.17136 0.0
C2005 C 0.8523 0.44468 0.19064 0.0
C2006 C 0.86217 0.43797 0.2106 0.0
H2007 H 0.84096 0.38155 0.25456 0.0
H2008 H 0.83798 0.41291 0.24695 0.0
H2009 H 0.84547 0.39056 0.22685 0.0
H2010 H 0.905 0.39806 0.19294 0.0
H2011 H 0.88802 0.40987 0.15803 0.0
H2012 H 0.17497 0.96063 0.31153 0.0
H2013 H 0.15562 0.94678 0.27814 0.0
H2014 H 0.10614 0.90222 0.31499 0.0
H2015 H 0.12543 0.91584 0.34847 0.0
H2016 H 0.12976 0.87731 0.28123 0.0
H2017 H 0.0891 0.9634 0.25164 0.0
H2018 H 0.12076 0.9654 0.25851 0.0
H2019 H 0.09877 0.95931 0.27927 0.0
C2020 C 0.15975 0.94814 0.3126 0.0
C2021 C 0.15176 0.93942 0.33277 0.0
C2022 C 0.14862 0.94032 0.29345 0.0
C2023 C 0.12923 0.92365 0.29403 0.0
C2024 C 0.12098 0.91519 0.31413 0.0
H2025 H 0.05118 0.83965 0.19606 0.0
H2026 H 0.06522 0.85817 0.22971 0.0
C2027 C 0.13201 0.92308 0.33329 0.0
C2028 C 0.11861 0.91382 0.27367 0.0
H2029 H 0.08895 0.92999 0.22733 0.0
C2030 C 0.12068 0.8888 0.26952 0.0
C2031 C 0.10694 0.92884 0.25829 0.0
C2032 C 0.10352 0.9557 0.26215 0.0
C2033 C 0.11185 0.87846 0.25028 0.0
C2034 C 0.10002 0.89343 0.23492 0.0
C2035 C 0.09793 0.91848 0.23908 0.0
C2036 C 0.09004 0.88342 0.21434 0.0
C2037 C 0.11597 0.85169 0.24633 0.0
C2038 C 0.09841 0.89216 0.19436 0.0
C2039 C 0.09017 0.88178 0.17501 0.0
C2040 C 0.07332 0.86244 0.17522 0.0
C2041 C 0.06429 0.85435 0.19524 0.0
C2042 C 0.07245 0.86482 0.21456 0.0
H2043 H 0.13092 0.84446 0.25651 0.0
H2044 H 0.09918 0.84145 0.25041 0.0
H2045 H 0.12041 0.84816 0.22913 0.0
H2046 H 0.11185 0.90659 0.19374 0.0
H2047 H 0.09754 0.8885 0.15993 0.0
H2048 H 0.41149 0.89107 0.6566 0.0
H2049 H 0.39757 0.90715 0.69114 0.0
H2050 H 0.44831 0.86086 0.72454 0.0
H2051 H 0.46277 0.84501 0.68991 0.0
H2052 H 0.37603 0.88337 0.72401 0.0
H2053 H 0.46149 0.9255 0.75334 0.0
H2054 H 0.45759 0.9156 0.72578 0.0
H2055 H 0.46468 0.89392 0.74661 0.0
C2056 C 0.41992 0.88445 0.67125 0.0
C2057 C 0.43837 0.86679 0.67043 0.0
C2058 C 0.41188 0.89367 0.69103 0.0
C2059 C 0.42208 0.88553 0.7105 0.0
C2060 C 0.44053 0.8679 0.70976 0.0
H2061 H 0.3884 0.90304 0.84563 0.0
H2062 H 0.40496 0.89247 0.81036 0.0
C2063 C 0.4487 0.85873 0.68993 0.0
C2064 C 0.41256 0.89472 0.7315 0.0
H2065 H 0.42922 0.92211 0.77883 0.0
C2066 C 0.38764 0.89204 0.73591 0.0
C2067 C 0.42767 0.90607 0.74706 0.0
C2068 C 0.4543 0.91069 0.74292 0.0
C2069 C 0.37757 0.8998 0.75558 0.0
C2070 C 0.39274 0.91083 0.77123 0.0
C2071 C 0.41761 0.91369 0.7668 0.0
C2072 C 0.3833 0.91848 0.79269 0.0
C2073 C 0.35089 0.89548 0.75974 0.0
C2074 C 0.36591 0.93703 0.79459 0.0
C2075 C 0.35639 0.94325 0.81486 0.0
C2076 C 0.36407 0.93098 0.83359 0.0
C2077 C 0.38195 0.91285 0.8316 0.0
C2078 C 0.39151 0.90676 0.81141 0.0
H2079 H 0.34284 0.88248 0.748 0.0
H2080 H 0.34797 0.88832 0.77631 0.0
H2081 H 0.34103 0.91298 0.75834 0.0
H2082 H 0.35956 0.94657 0.78038 0.0
H2083 H 0.34269 0.95731 0.81578 0.0
H2084 H 0.5501 0.33992 0.81381 0.0
H2085 H 0.56283 0.35739 0.77923 0.0
H2086 H 0.62572 0.38912 0.80991 0.0
H2087 H 0.6135 0.37136 0.84433 0.0
H2088 H 0.56998 0.40484 0.76702 0.0
H2089 H 0.65618 0.35382 0.7596 0.0
H2090 H 0.63317 0.34589 0.77913 0.0
H2091 H 0.65408 0.37042 0.78444 0.0
C2092 C 0.56669 0.35056 0.81321 0.0
C2093 C 0.5808 0.35414 0.83191 0.0
C2094 C 0.57393 0.36055 0.79341 0.0
C2095 C 0.59545 0.37424 0.79186 0.0
C2096 C 0.60935 0.37815 0.81055 0.0
H2097 H 0.67197 0.45534 0.69347 0.0
H2098 H 0.65542 0.43858 0.72694 0.0
C2099 C 0.60222 0.36809 0.83031 0.0
C2100 C 0.60324 0.38477 0.77082 0.0
H2101 H 0.65076 0.38709 0.73538 0.0
C2102 C 0.58756 0.40081 0.76001 0.0
C2103 C 0.62616 0.37943 0.76161 0.0
C2104 C 0.64327 0.36126 0.77167 0.0
C2105 C 0.59447 0.41219 0.74059 0.0
C2106 C 0.61758 0.40725 0.73169 0.0
C2107 C 0.63312 0.39099 0.74234 0.0
C2108 C 0.62619 0.41886 0.71142 0.0
C2109 C 0.57729 0.42988 0.73001 0.0
C2110 C 0.61512 0.4135 0.69156 0.0
C2111 C 0.62457 0.42302 0.67232 0.0
C2112 C 0.64531 0.43809 0.6726 0.0
C2113 C 0.65595 0.44389 0.69261 0.0
C2114 C 0.64656 0.43427 0.71179 0.0
H2115 H 0.56237 0.43539 0.74103 0.0
H2116 H 0.58718 0.44644 0.7246 0.0
H2117 H 0.56906 0.42121 0.71557 0.0
H2118 H 0.59958 0.40136 0.69088 0.0
H2119 H 0.616 0.41806 0.65721 0.0
H2120 H 0.11581 0.59905 0.84372 0.0
H2121 H 0.10075 0.614 0.80902 0.0
H2122 H 0.16084 0.5797 0.77659 0.0
H2123 H 0.17578 0.5643 0.81113 0.0
H2124 H 0.1235 0.64501 0.78123 0.0
H2125 H 0.10447 0.55791 0.73938 0.0
H2126 H 0.10972 0.5596 0.7681 0.0
H2127 H 0.13491 0.56003 0.7496 0.0
C2128 C 0.12564 0.59432 0.82918 0.0
C2129 C 0.14697 0.58032 0.83028 0.0
C2130 C 0.11703 0.60298 0.80933 0.0
C2131 C 0.12945 0.59777 0.79008 0.0
C2132 C 0.15058 0.58353 0.79109 0.0
H2133 H 0.11639 0.64436 0.65624 0.0
H2134 H 0.12932 0.62729 0.69086 0.0
C2135 C 0.15918 0.57481 0.81093 0.0
C2136 C 0.12107 0.60834 0.76918 0.0
H2137 H 0.10409 0.59369 0.71765 0.0
C2138 C 0.11908 0.63376 0.76739 0.0
C2139 C 0.11536 0.59371 0.75103 0.0
C2140 C 0.11598 0.56629 0.75212 0.0
C2141 C 0.11204 0.64493 0.74793 0.0
C2142 C 0.10648 0.63031 0.72978 0.0
C2143 C 0.10841 0.6049 0.73154 0.0
C2144 C 0.09862 0.64103 0.70882 0.0
C2145 C 0.11117 0.67234 0.74682 0.0
C2146 C 0.07695 0.65435 0.70731 0.0
C2147 C 0.06945 0.66413 0.68751 0.0
C2148 C 0.08341 0.66073 0.66871 0.0
C2149 C 0.10514 0.64738 0.67031 0.0
C2150 C 0.11257 0.63755 0.69011 0.0
H2151 H 0.12156 0.68092 0.7602 0.0
H2152 H 0.11857 0.67903 0.73122 0.0
H2153 H 0.09201 0.67837 0.74807 0.0
H2154 H 0.06566 0.65696 0.72143 0.0
H2155 H 0.05262 0.67425 0.68694 0.0
H2156 H 0.96532 0.1762 0.81652 0.0
H2157 H 0.95051 0.16017 0.78193 0.0
H2158 H 0.90236 0.11131 0.81581 0.0
H2159 H 0.91657 0.12745 0.85022 0.0
H2160 H 0.9502 0.11388 0.76438 0.0
H2161 H 0.85575 0.14606 0.77585 0.0
H2162 H 0.88051 0.15609 0.79277 0.0
H2163 H 0.86623 0.12707 0.79747 0.0
C2164 C 0.95163 0.16199 0.81659 0.0
C2165 C 0.942 0.15329 0.83617 0.0
C2166 C 0.94317 0.15285 0.79681 0.0
C2167 C 0.92491 0.1349 0.79624 0.0
C2168 C 0.91595 0.12561 0.81578 0.0
H2169 H 0.84646 0.06004 0.69257 0.0
H2170 H 0.8645 0.07135 0.72744 0.0
C2171 C 0.92426 0.13479 0.83549 0.0
C2172 C 0.9151 0.12588 0.77529 0.0
H2173 H 0.86258 0.11946 0.74629 0.0
C2174 C 0.93106 0.11519 0.7604 0.0
C2175 C 0.89009 0.12756 0.77005 0.0
C2176 C 0.87218 0.14003 0.78477 0.0
C2177 C 0.92265 0.10585 0.7406 0.0
C2178 C 0.89765 0.10743 0.73546 0.0
C2179 C 0.88169 0.11804 0.75035 0.0
C2180 C 0.88786 0.09938 0.71425 0.0
C2181 C 0.94052 0.09408 0.72543 0.0
C2182 C 0.89497 0.11139 0.69529 0.0
C2183 C 0.88465 0.10509 0.67544 0.0
C2184 C 0.86695 0.08658 0.67404 0.0
C2185 C 0.86013 0.07425 0.69302 0.0
C2186 C 0.87037 0.08073 0.71297 0.0
H2187 H 0.95752 0.08878 0.73385 0.0
H2188 H 0.93247 0.07768 0.71774 0.0
H2189 H 0.94534 0.10718 0.71246 0.0
H2190 H 0.9081 0.1261 0.69591 0.0
H2191 H 0.89035 0.11504 0.66121 0.0
H2192 H 0.76587 0.36565 0.13023 0.0
H2193 H 0.74479 0.32653 0.13548 0.0
H2194 H 0.81385 0.28984 0.13824 0.0
H2195 H 0.83482 0.32862 0.1333 0.0
H2196 H 0.74766 0.28751 0.10766 0.0
H2197 H 0.7786 0.259 0.18883 0.0
H2198 H 0.78161 0.28991 0.17924 0.0
H2199 H 0.80325 0.26715 0.17129 0.0
C2200 C 0.77649 0.34928 0.13248 0.0
C2201 C 0.80197 0.35018 0.13145 0.0
C2202 C 0.76446 0.32695 0.13539 0.0
C2203 C 0.77773 0.30523 0.13756 0.0
C2204 C 0.80319 0.30632 0.13714 0.0
H2205 H 0.74808 0.14988 0.12924 0.0
H2206 H 0.76678 0.1903 0.13388 0.0
C2207 C 0.81517 0.32854 0.13418 0.0
C2208 C 0.76518 0.28117 0.1382 0.0
H2209 H 0.76124 0.22782 0.16653 0.0
C2210 C 0.75037 0.2746 0.12068 0.0
C2211 C 0.76892 0.26418 0.15508 0.0
C2212 C 0.78378 0.27047 0.17477 0.0
C2213 C 0.73977 0.25135 0.11927 0.0
C2214 C 0.74371 0.23427 0.13603 0.0
C2215 C 0.75831 0.24088 0.15367 0.0
C2216 C 0.73259 0.20956 0.13542 0.0
C2217 C 0.72501 0.24502 0.0995 0.0
C2218 C 0.70724 0.20689 0.1355 0.0
C2219 C 0.69661 0.18395 0.13287 0.0
C2220 C 0.7111 0.16314 0.13027 0.0
C2221 C 0.73649 0.1656 0.13126 0.0
C2222 C 0.74716 0.18866 0.13386 0.0
H2223 H 0.72865 0.25774 0.08593 0.0
H2224 H 0.7289 0.22619 0.09404 0.0
H2225 H 0.70539 0.24613 0.1035 0.0
H2226 H 0.69564 0.22267 0.13708 0.0
H2227 H 0.67699 0.18263 0.13227 0.0
H2228 H 0.31459 0.67527 0.1302 0.0
H2229 H 0.27402 0.69228 0.13608 0.0
H2230 H 0.30591 0.75433 0.16799 0.0
H2231 H 0.34657 0.73744 0.16213 0.0
H2232 H 0.24745 0.71197 0.17507 0.0
H2233 H 0.27078 0.78006 0.11177 0.0
H2234 H 0.28779 0.75235 0.11542 0.0
H2235 H 0.2919 0.77728 0.13378 0.0
C2236 C 0.31291 0.69225 0.13894 0.0
C2237 C 0.3337 0.70517 0.14556 0.0
C2238 C 0.28974 0.70191 0.1423 0.0
C2239 C 0.28703 0.72466 0.15224 0.0
C2240 C 0.30768 0.73681 0.16015 0.0
H2241 H 0.16982 0.82865 0.1502 0.0
H2242 H 0.20721 0.80666 0.15827 0.0
C2243 C 0.33086 0.72712 0.15685 0.0
C2244 C 0.26306 0.73687 0.15209 0.0
H2245 H 0.23246 0.78345 0.12805 0.0
C2246 C 0.2441 0.72765 0.16489 0.0
C2247 C 0.25878 0.7572 0.13864 0.0
C2248 C 0.27827 0.76729 0.12396 0.0
C2249 C 0.221 0.7386 0.16487 0.0
C2250 C 0.21671 0.75892 0.15134 0.0
C2251 C 0.23575 0.76799 0.13853 0.0
C2252 C 0.19274 0.77124 0.14987 0.0
C2253 C 0.20158 0.7286 0.1796 0.0
C2254 C 0.17187 0.75859 0.14299 0.0
C2255 C 0.15028 0.77116 0.13863 0.0
C2256 C 0.14943 0.79659 0.14073 0.0
C2257 C 0.16999 0.80904 0.14842 0.0
C2258 C 0.19138 0.79649 0.15301 0.0
H2259 H 0.20953 0.71802 0.19315 0.0
H2260 H 0.19025 0.74343 0.18638 0.0
H2261 H 0.18958 0.71621 0.17028 0.0
H2262 H 0.17257 0.7392 0.13997 0.0
H2263 H 0.13474 0.76119 0.1325 0.0
H2264 H 0.34186 0.69247 0.353 0.0
H2265 H 0.33053 0.73485 0.34529 0.0
H2266 H 0.25508 0.71659 0.35507 0.0
H2267 H 0.26624 0.67445 0.3628 0.0
H2268 H 0.26605 0.74991 0.31847 0.0
H2269 H 0.30648 0.77785 0.39725 0.0
H2270 H 0.3251 0.76099 0.37869 0.0
H2271 H 0.29954 0.74645 0.39125 0.0
C2272 C 0.32283 0.69743 0.35302 0.0
C2273 C 0.30492 0.68026 0.35861 0.0
C2274 C 0.31641 0.72163 0.34874 0.0
C2275 C 0.292 0.72887 0.34987 0.0
C2276 C 0.27402 0.71137 0.35414 0.0
H2277 H 0.19075 0.84065 0.36055 0.0
H2278 H 0.21492 0.80535 0.35074 0.0
C2279 C 0.28042 0.68731 0.35855 0.0
C2280 C 0.28501 0.75486 0.34854 0.0
H2281 H 0.28323 0.8067 0.37883 0.0
C2282 C 0.27015 0.76251 0.33145 0.0
C2283 C 0.29054 0.77131 0.36542 0.0
C2284 C 0.30619 0.76388 0.3843 0.0
C2285 C 0.25983 0.78586 0.33125 0.0
C2286 C 0.26396 0.80171 0.3489 0.0
C2287 C 0.28002 0.79456 0.36533 0.0
C2288 C 0.24949 0.82422 0.35215 0.0
C2289 C 0.24418 0.7931 0.31234 0.0
C2290 C 0.26081 0.84669 0.35645 0.0
C2291 C 0.24691 0.86702 0.36227 0.0
C2292 C 0.22154 0.86504 0.36408 0.0
C2293 C 0.21026 0.84276 0.35916 0.0
C2294 C 0.22408 0.82257 0.35335 0.0
H2295 H 0.25014 0.7838 0.29734 0.0
H2296 H 0.22513 0.78749 0.31553 0.0
H2297 H 0.24462 0.81307 0.30961 0.0
H2298 H 0.28041 0.84833 0.35586 0.0
H2299 H 0.25605 0.88395 0.36614 0.0
H2300 H 0.86615 0.2681 0.37249 0.0
H2301 H 0.82724 0.24677 0.36717 0.0
H2302 H 0.79054 0.31577 0.36245 0.0
H2303 H 0.82914 0.337 0.36749 0.0
H2304 H 0.78813 0.25063 0.39479 0.0
H2305 H 0.76015 0.27867 0.31261 0.0
H2306 H 0.79095 0.28202 0.32225 0.0
H2307 H 0.76816 0.30391 0.32957 0.0
C2308 C 0.84984 0.27865 0.36977 0.0
C2309 C 0.85067 0.30419 0.37033 0.0
C2310 C 0.82762 0.26648 0.36682 0.0
C2311 C 0.80595 0.27965 0.36414 0.0
C2312 C 0.807 0.30517 0.36398 0.0
H2313 H 0.65087 0.24876 0.37156 0.0
H2314 H 0.69106 0.2678 0.36673 0.0
C2315 C 0.8291 0.31729 0.36698 0.0
C2316 C 0.78198 0.267 0.3637 0.0
H2317 H 0.72903 0.26162 0.3351 0.0
C2318 C 0.77535 0.25279 0.3816 0.0
C2319 C 0.76515 0.27004 0.34661 0.0
C2320 C 0.77151 0.2843 0.32658 0.0
C2321 C 0.75221 0.24205 0.38315 0.0
C2322 C 0.73531 0.24521 0.36614 0.0
C2323 C 0.74196 0.25927 0.34815 0.0
C2324 C 0.71077 0.23379 0.36684 0.0
C2325 C 0.74581 0.228 0.40333 0.0
C2326 C 0.70844 0.20838 0.36775 0.0
C2327 C 0.68565 0.19757 0.37053 0.0
C2328 C 0.66464 0.2119 0.37226 0.0
C2329 C 0.66676 0.23729 0.37025 0.0
C2330 C 0.68969 0.24816 0.36752 0.0
H2331 H 0.75819 0.2325 0.41693 0.0
H2332 H 0.72684 0.23175 0.40841 0.0
H2333 H 0.74739 0.20823 0.40003 0.0
H2334 H 0.72436 0.19691 0.36683 0.0
H2335 H 0.68457 0.17794 0.3719 0.0
H2336 H 0.33655 0.81662 0.88632 0.0
H2337 H 0.3183 0.7766 0.87945 0.0
H2338 H 0.26312 0.81016 0.84017 0.0
H2339 H 0.28145 0.85024 0.84674 0.0
H2340 H 0.24881 0.78019 0.88002 0.0
H2341 H 0.30968 0.7328 0.82203 0.0
H2342 H 0.32339 0.75019 0.84352 0.0
H2343 H 0.30689 0.76558 0.82268 0.0
C2344 C 0.32087 0.81538 0.8758 0.0
C2345 C 0.31034 0.83648 0.8671 0.0
C2346 C 0.31055 0.79253 0.87183 0.0
C2347 C 0.2895 0.79048 0.85919 0.0
C2348 C 0.27951 0.81141 0.84979 0.0
H2349 H 0.17943 0.67712 0.85418 0.0
H2350 H 0.20319 0.71408 0.8476 0.0
C2351 C 0.28998 0.83425 0.85357 0.0
C2352 C 0.27618 0.76708 0.85824 0.0
H2353 H 0.27784 0.70954 0.8375 0.0
C2354 C 0.25499 0.76478 0.87059 0.0
C2355 C 0.28463 0.74701 0.84622 0.0
C2356 C 0.30734 0.74885 0.83273 0.0
C2357 C 0.24213 0.74275 0.87154 0.0
C2358 C 0.25023 0.72267 0.85917 0.0
C2359 C 0.27152 0.72498 0.8468 0.0
C2360 C 0.23699 0.69908 0.85943 0.0
C2361 C 0.22048 0.74103 0.88645 0.0
C2362 C 0.24848 0.67782 0.86675 0.0
C2363 C 0.23501 0.65644 0.87002 0.0
C2364 C 0.20987 0.65619 0.86616 0.0
C2365 C 0.19876 0.67696 0.85748 0.0
C2366 C 0.21227 0.69812 0.85387 0.0
H2367 H 0.221 0.75531 0.89913 0.0
H2368 H 0.20358 0.74362 0.87696 0.0
H2369 H 0.21957 0.72297 0.89446 0.0
H2370 H 0.26757 0.67809 0.87098 0.0
H2371 H 0.24396 0.64064 0.87675 0.0
H2372 H 0.86668 0.22835 0.83878 0.0
H2373 H 0.82743 0.24601 0.82831 0.0
H2374 H 0.79078 0.19768 0.87259 0.0
H2375 H 0.82971 0.17988 0.88286 0.0
H2376 H 0.76612 0.20377 0.83281 0.0
H2377 H 0.7923 0.2924 0.86998 0.0
H2378 H 0.8119 0.28078 0.84923 0.0
H2379 H 0.80949 0.26497 0.87451 0.0
C2380 C 0.85017 0.22125 0.84596 0.0
C2381 C 0.8512 0.20289 0.86174 0.0
C2382 C 0.82781 0.23144 0.84008 0.0
C2383 C 0.80623 0.22344 0.84995 0.0
C2384 C 0.8072 0.20419 0.86482 0.0
H2385 H 0.66224 0.25337 0.88184 0.0
H2386 H 0.70137 0.23623 0.87158 0.0
C2387 C 0.82946 0.19404 0.87069 0.0
C2388 C 0.78274 0.23593 0.84618 0.0
H2389 H 0.75209 0.28811 0.8583 0.0
C2390 C 0.76312 0.22235 0.83804 0.0
C2391 C 0.77888 0.26022 0.85293 0.0
C2392 C 0.79914 0.2755 0.86229 0.0
C2393 C 0.73957 0.23206 0.83734 0.0
C2394 C 0.73546 0.25581 0.8453 0.0
C2395 C 0.7553 0.2699 0.85221 0.0
C2396 C 0.7106 0.26516 0.84929 0.0
C2397 C 0.71915 0.21656 0.8286 0.0
C2398 C 0.70277 0.28726 0.84026 0.0
C2399 C 0.68025 0.29713 0.84613 0.0
C2400 C 0.66551 0.28522 0.86137 0.0
C2401 C 0.67319 0.2629 0.87 0.0
C2402 C 0.69549 0.25299 0.86403 0.0
H2403 H 0.72598 0.20297 0.81682 0.0
H2404 H 0.71052 0.20647 0.84211 0.0
H2405 H 0.70507 0.22787 0.82064 0.0
H2406 H 0.71428 0.29707 0.82903 0.0
H2407 H 0.67478 0.31445 0.83935 0.0
H2408 H 0.68061 0.34223 0.64613 0.0
H2409 H 0.70346 0.30509 0.65329 0.0
H2410 H 0.76999 0.34211 0.63616 0.0
H2411 H 0.74712 0.37972 0.62977 0.0
H2412 H 0.72684 0.2808 0.62338 0.0
H2413 H 0.79259 0.30434 0.68788 0.0
H2414 H 0.76697 0.32342 0.68139 0.0
H2415 H 0.7941 0.32462 0.66521 0.0
C2416 C 0.7002 0.34262 0.64444 0.0
C2417 C 0.71213 0.36382 0.63743 0.0
C2418 C 0.71325 0.32136 0.64849 0.0
C2419 C 0.73851 0.32072 0.6454 0.0
C2420 C 0.75062 0.34221 0.63916 0.0
H2421 H 0.83515 0.20044 0.62051 0.0
H2422 H 0.81692 0.24063 0.62584 0.0
C2423 C 0.73754 0.36368 0.63542 0.0
C2424 C 0.75144 0.29696 0.64639 0.0
H2425 H 0.79963 0.26702 0.66894 0.0
C2426 C 0.74259 0.27779 0.63355 0.0
C2427 C 0.77211 0.29295 0.65955 0.0
C2428 C 0.78188 0.31235 0.67445 0.0
C2429 C 0.7539 0.25497 0.6333 0.0
C2430 C 0.77466 0.25107 0.64623 0.0
C2431 C 0.78364 0.27011 0.65908 0.0
C2432 C 0.78751 0.22742 0.64583 0.0
C2433 C 0.74389 0.2352 0.61888 0.0
C2434 C 0.77732 0.20682 0.65578 0.0
C2435 C 0.78776 0.18384 0.65285 0.0
C2436 C 0.80844 0.18115 0.63979 0.0
C2437 C 0.8192 0.20199 0.63065 0.0
C2438 C 0.80886 0.22495 0.63371 0.0
H2439 H 0.72941 0.242 0.60796 0.0
H2440 H 0.75865 0.22723 0.60896 0.0
H2441 H 0.73615 0.2204 0.62899 0.0
H2442 H 0.7608 0.20841 0.66517 0.0
H2443 H 0.77907 0.16809 0.66004 0.0
H2444 H 0.15924 0.76157 0.6358 0.0
H2445 H 0.19827 0.77887 0.64662 0.0
H2446 H 0.21897 0.70998 0.67439 0.0
H2447 H 0.17997 0.6923 0.66299 0.0
H2448 H 0.22367 0.78467 0.68456 0.0
H2449 H 0.27129 0.72081 0.62927 0.0
H2450 H 0.23872 0.72405 0.62926 0.0
H2451 H 0.25345 0.70682 0.65015 0.0
C2452 C 0.17195 0.75018 0.6445 0.0
C2453 C 0.16674 0.72552 0.64834 0.0
C2454 C 0.19424 0.76011 0.65072 0.0
C2455 C 0.21175 0.7456 0.66092 0.0
C2456 C 0.20594 0.72136 0.6661 0.0
H2457 H 0.3661 0.78494 0.66757 0.0
H2458 H 0.32764 0.7656 0.67804 0.0
C2459 C 0.18362 0.71133 0.65972 0.0
C2460 C 0.23656 0.75556 0.66435 0.0
H2461 H 0.29497 0.75044 0.64641 0.0
C2462 C 0.23934 0.777 0.67647 0.0
C2463 C 0.25702 0.74557 0.65375 0.0
C2464 C 0.25508 0.72317 0.63973 0.0
C2465 C 0.26183 0.78912 0.67769 0.0
C2466 C 0.28196 0.77965 0.66636 0.0
C2467 C 0.27949 0.7576 0.65515 0.0
C2468 C 0.305 0.79343 0.66381 0.0
C2469 C 0.26374 0.8122 0.69074 0.0
C2470 C 0.30501 0.81573 0.65274 0.0
C2471 C 0.3269 0.82672 0.64667 0.0
C2472 C 0.34915 0.81557 0.65154 0.0
C2473 C 0.34919 0.79397 0.6637 0.0
C2474 C 0.32726 0.7829 0.66965 0.0
H2475 H 0.24963 0.81287 0.70355 0.0
H2476 H 0.28193 0.81397 0.69834 0.0
H2477 H 0.26097 0.82806 0.67993 0.0
H2478 H 0.28808 0.82394 0.64767 0.0
H2479 H 0.32636 0.84331 0.63723 0.0
loop_
_geom_bond_atom_site_label_1
_geom_bond_atom_site_label_2
_geom_bond_distance
_geom_bond_site_symmetry_2
_ccdc_geom_bond_type
O0 Tb1 2.292 . S
O0 C3 1.255 . S
Tb1 O0 2.292 . S
Tb1 O17 2.326 . S
Tb1 O19 2.500 . S
Tb1 O20 2.473 . S
Tb1 O23 2.324 . S
Eu2 O6 2.292 . S
Eu2 C7 2.852 . S
Eu2 O18 2.324 . S
Eu2 O22 2.326 . S
Eu2 O24 2.500 . S
Eu2 O25 2.473 . S
C3 O0 1.255 . S
C3 O4 1.247 . S
O4 C3 1.247 . S
C5 O17 1.242 . S
C5 O18 1.258 . S
O6 Eu2 2.292 . S
O6 C8 1.255 . S
C7 Eu2 2.852 . S
C7 C11 1.503 . S
C7 O24 1.273 . S
C7 O25 1.257 . S
C8 O6 1.255 . S
C8 O9 1.247 . S
O9 C8 1.247 . S
C10 O22 1.242 . S
C10 O23 1.258 . S
C11 C7 1.503 . S
C11 C12 1.379 . S
C11 C16 1.392 1_545 S
C12 C11 1.379 . S
C12 C13 1.404 . S
C12 H26 0.929 . S
C13 C12 1.404 . S
C13 C14 1.389 1_545 S
C14 C13 1.389 1_565 S
C14 C15 1.399 . S
C14 H27 0.931 . S
C15 C14 1.399 . S
C15 C16 1.390 . S
C16 C11 1.392 1_565 S
C16 C15 1.390 . S
C16 H28 0.929 . S
O17 Tb1 2.326 . S
O17 C5 1.242 . S
O18 Eu2 2.324 . S
O18 C5 1.258 . S
O19 Tb1 2.500 . S
O19 C21 1.273 . S
O20 Tb1 2.473 . S
O20 C21 1.257 . S
C21 O19 1.273 . S
C21 O20 1.257 . S
O22 Eu2 2.326 . S
O22 C10 1.242 . S
O23 Tb1 2.324 . S
O23 C10 1.258 . S
O24 Eu2 2.500 . S
O24 C7 1.273 . S
O25 Eu2 2.473 . S
O25 C7 1.257 . S
H26 C12 0.929 . S
H27 C14 0.931 . S
H28 C16 0.929 . S
O29 Tb30 2.292 . S
O29 C32 1.255 . S
Tb30 O29 2.292 . S
Tb30 O46 2.326 . S
Tb30 O48 2.500 . S
Tb30 O49 2.473 . S
Tb30 O52 2.324 . S
Eu31 O35 2.292 . S
Eu31 C36 2.852 . S
Eu31 O47 2.324 . S
Eu31 O51 2.326 . S
Eu31 O53 2.500 . S
Eu31 O54 2.473 . S
C32 O29 1.255 . S
C32 O33 1.247 . S
O33 C32 1.247 . S
C34 O46 1.242 . S
C34 O47 1.258 . S
O35 Eu31 2.292 . S
O35 C37 1.255 . S
C36 Eu31 2.852 . S
C36 C40 1.503 . S
C36 O53 1.273 . S
C36 O54 1.257 . S
C37 O35 1.255 . S
C37 O38 1.247 . S
O38 C37 1.247 . S
C39 O51 1.242 . S
C39 O52 1.258 . S
C40 C36 1.503 . S
C40 C41 1.379 . S
C40 C45 1.392 . S
C41 C40 1.379 . S
C41 C42 1.404 . S
C41 H55 0.929 . S
C42 C41 1.404 . S
C42 C43 1.389 . S
C43 C42 1.389 . S
C43 C44 1.399 . S
C43 H56 0.931 . S
C44 C43 1.399 . S
C44 C45 1.390 . S
C45 C40 1.392 . S
C45 C44 1.390 . S
C45 H57 0.929 . S
O46 Tb30 2.326 . S
O46 C34 1.242 . S
O47 Eu31 2.324 . S
O47 C34 1.258 . S
O48 Tb30 2.500 . S
O48 C50 1.273 . S
O49 Tb30 2.473 . S
O49 C50 1.257 . S
C50 O48 1.273 . S
C50 O49 1.257 . S
O51 Eu31 2.326 . S
O51 C39 1.242 . S
O52 Tb30 2.324 . S
O52 C39 1.258 . S
O53 Eu31 2.500 . S
O53 C36 1.273 . S
O54 Eu31 2.473 . S
O54 C36 1.257 . S
H55 C41 0.929 . S
H56 C43 0.931 . S
H57 C45 0.929 . S
O58 Tb59 2.292 . S
O58 C61 1.255 . S
Tb59 O58 2.292 . S
Tb59 O75 2.326 . S
Tb59 O77 2.500 . S
Tb59 O78 2.473 . S
Tb59 O81 2.324 . S
Eu60 O64 2.292 . S
Eu60 C65 2.852 . S
Eu60 O76 2.324 . S
Eu60 O80 2.326 . S
Eu60 O82 2.500 . S
Eu60 O83 2.473 . S
C61 O58 1.255 . S
C61 O62 1.247 . S
O62 C61 1.247 . S
C63 O75 1.242 . S
C63 O76 1.258 . S
O64 Eu60 2.292 . S
O64 C66 1.255 . S
C65 Eu60 2.852 . S
C65 C69 1.503 . S
C65 O82 1.273 . S
C65 O83 1.257 . S
C66 O64 1.255 . S
C66 O67 1.247 . S
O67 C66 1.247 . S
C68 O80 1.242 . S
C68 O81 1.258 . S
C69 C65 1.503 . S
C69 C70 1.379 . S
C69 C74 1.392 . S
C70 C69 1.379 . S
C70 C71 1.404 . S
C70 H84 0.929 . S
C71 C70 1.404 . S
C71 C72 1.389 . S
C72 C71 1.389 . S
C72 C73 1.399 . S
C72 H85 0.931 . S
C73 C72 1.399 . S
C73 C74 1.390 . S
C74 C69 1.392 . S
C74 C73 1.390 . S
C74 H86 0.929 . S
O75 Tb59 2.326 . S
O75 C63 1.242 . S
O76 Eu60 2.324 . S
O76 C63 1.258 . S
O77 Tb59 2.500 . S
O77 C79 1.273 . S
O78 Tb59 2.473 . S
O78 C79 1.257 . S
C79 O77 1.273 . S
C79 O78 1.257 . S
O80 Eu60 2.326 . S
O80 C68 1.242 . S
O81 Tb59 2.324 . S
O81 C68 1.258 . S
O82 Eu60 2.500 . S
O82 C65 1.273 . S
O83 Eu60 2.473 . S
O83 C65 1.257 . S
H84 C70 0.929 . S
H85 C72 0.931 . S
H86 C74 0.929 . S
O87 Tb88 2.292 . S
O87 C90 1.255 . S
Tb88 O87 2.292 . S
Tb88 O104 2.326 . S
Tb88 O106 2.500 . S
Tb88 O107 2.473 . S
Tb88 O110 2.324 . S
Eu89 O93 2.292 . S
Eu89 C94 2.852 . S
Eu89 O105 2.324 . S
Eu89 O109 2.326 . S
Eu89 O111 2.500 . S
Eu89 O112 2.473 . S
C90 O87 1.255 . S
C90 O91 1.247 . S
O91 C90 1.247 . S
C92 O104 1.242 . S
C92 O105 1.258 . S
O93 Eu89 2.292 . S
O93 C95 1.255 . S
C94 Eu89 2.852 . S
C94 C98 1.503 . S
C94 O111 1.273 . S
C94 O112 1.257 . S
C95 O93 1.255 . S
C95 O96 1.247 . S
O96 C95 1.247 . S
C97 O109 1.242 . S
C97 O110 1.258 . S
C98 C94 1.503 . S
C98 C99 1.379 . S
C98 C103 1.392 1_455 S
C99 C98 1.379 . S
C99 C100 1.404 . S
C99 H113 0.929 . S
C100 C99 1.404 . S
C100 C101 1.389 1_455 S
C101 C100 1.389 1_655 S
C101 C102 1.399 . S
C101 H114 0.931 . S
C102 C101 1.399 . S
C102 C103 1.390 . S
C103 C98 1.392 1_655 S
C103 C102 1.390 . S
C103 H115 0.929 . S
O104 Tb88 2.326 . S
O104 C92 1.242 . S
O105 Eu89 2.324 . S
O105 C92 1.258 . S
O106 Tb88 2.500 . S
O106 C108 1.273 . S
O107 Tb88 2.473 . S
O107 C108 1.257 . S
C108 O106 1.273 . S
C108 O107 1.257 . S
O109 Eu89 2.326 . S
O109 C97 1.242 . S
O110 Tb88 2.324 . S
O110 C97 1.258 . S
O111 Eu89 2.500 . S
O111 C94 1.273 . S
O112 Eu89 2.473 . S
O112 C94 1.257 . S
H113 C99 0.929 . S
H114 C101 0.931 . S
H115 C103 0.929 . S
O116 Tb117 2.292 . S
O116 C119 1.255 . S
Tb117 O116 2.292 . S
Tb117 O133 2.326 . S
Tb117 O135 2.500 . S
Tb117 O136 2.473 . S
Tb117 O139 2.324 . S
Eu118 O122 2.292 . S
Eu118 C123 2.852 . S
Eu118 O134 2.324 . S
Eu118 O138 2.326 . S
Eu118 O140 2.500 . S
Eu118 O141 2.473 . S
C119 O116 1.255 . S
C119 O120 1.247 . S
O120 C119 1.247 . S
C121 O133 1.242 . S
C121 O134 1.258 . S
O122 Eu118 2.292 . S
O122 C124 1.255 . S
C123 Eu118 2.852 . S
C123 C127 1.503 . S
C123 O140 1.273 . S
C123 O141 1.257 . S
C124 O122 1.255 . S
C124 O125 1.247 . S
O125 C124 1.247 . S
C126 O138 1.242 . S
C126 O139 1.258 . S
C127 C123 1.503 . S
C127 C128 1.379 . S
C127 C132 1.392 1_565 S
C128 C127 1.379 . S
C128 C129 1.404 . S
C128 H142 0.929 . S
C129 C128 1.404 . S
C129 C130 1.389 1_565 S
C130 C129 1.389 1_545 S
C130 C131 1.399 . S
C130 H143 0.931 . S
C131 C130 1.399 . S
C131 C132 1.390 . S
C132 C127 1.392 1_545 S
C132 C131 1.390 . S
C132 H144 0.929 . S
O133 Tb117 2.326 . S
O133 C121 1.242 . S
O134 Eu118 2.324 . S
O134 C121 1.258 . S
O135 Tb117 2.500 . S
O135 C137 1.273 . S
O136 Tb117 2.473 . S
O136 C137 1.257 . S
C137 O135 1.273 . S
C137 O136 1.257 . S
O138 Eu118 2.326 . S
O138 C126 1.242 . S
O139 Tb117 2.324 . S
O139 C126 1.258 . S
O140 Eu118 2.500 . S
O140 C123 1.273 . S
O141 Eu118 2.473 . S
O141 C123 1.257 . S
H142 C128 0.929 . S
H143 C130 0.931 . S
H144 C132 0.929 . S
O145 Tb146 2.292 . S
O145 C148 1.255 . S
Tb146 O145 2.292 . S
Tb146 O162 2.326 . S
Tb146 O164 2.500 . S
Tb146 O165 2.473 . S
Tb146 O168 2.324 . S
Eu147 O151 2.292 . S
Eu147 C152 2.852 . S
Eu147 O163 2.324 . S
Eu147 O167 2.326 . S
Eu147 O169 2.500 . S
Eu147 O170 2.473 . S
C148 O145 1.255 . S
C148 O149 1.247 . S
O149 C148 1.247 . S
C150 O162 1.242 . S
C150 O163 1.258 . S
O151 Eu147 2.292 . S
O151 C153 1.255 . S
C152 Eu147 2.852 . S
C152 C156 1.503 . S
C152 O169 1.273 . S
C152 O170 1.257 . S
C153 O151 1.255 . S
C153 O154 1.247 . S
O154 C153 1.247 . S
C155 O167 1.242 . S
C155 O168 1.258 . S
C156 C152 1.503 . S
C156 C157 1.379 . S
C156 C161 1.392 . S
C157 C156 1.379 . S
C157 C158 1.404 . S
C157 H171 0.929 . S
C158 C157 1.404 . S
C158 C159 1.389 . S
C159 C158 1.389 . S
C159 C160 1.399 . S
C159 H172 0.931 . S
C160 C159 1.399 . S
C160 C161 1.390 . S
C161 C156 1.392 . S
C161 C160 1.390 . S
C161 H173 0.929 . S
O162 Tb146 2.326 . S
O162 C150 1.242 . S
O163 Eu147 2.324 . S
O163 C150 1.258 . S
O164 Tb146 2.500 . S
O164 C166 1.273 . S
O165 Tb146 2.473 . S
O165 C166 1.257 . S
C166 O164 1.273 . S
C166 O165 1.257 . S
O167 Eu147 2.326 . S
O167 C155 1.242 . S
O168 Tb146 2.324 . S
O168 C155 1.258 . S
O169 Eu147 2.500 . S
O169 C152 1.273 . S
O170 Eu147 2.473 . S
O170 C152 1.257 . S
H171 C157 0.929 . S
H172 C159 0.931 . S
H173 C161 0.929 . S
O174 Tb175 2.292 . S
O174 C177 1.255 . S
Tb175 O174 2.292 . S
Tb175 O191 2.326 . S
Tb175 O193 2.500 . S
Tb175 O194 2.473 . S
Tb175 O197 2.324 . S
Eu176 O180 2.292 . S
Eu176 C181 2.852 . S
Eu176 O192 2.324 . S
Eu176 O196 2.326 . S
Eu176 O198 2.500 . S
Eu176 O199 2.473 . S
C177 O174 1.255 . S
C177 O178 1.247 . S
O178 C177 1.247 . S
C179 O191 1.242 . S
C179 O192 1.258 . S
O180 Eu176 2.292 . S
O180 C182 1.255 . S
C181 Eu176 2.852 . S
C181 C185 1.503 . S
C181 O198 1.273 . S
C181 O199 1.257 . S
C182 O180 1.255 . S
C182 O183 1.247 . S
O183 C182 1.247 . S
C184 O196 1.242 . S
C184 O197 1.258 . S
C185 C181 1.503 . S
C185 C186 1.379 . S
C185 C190 1.392 . S
C186 C185 1.379 . S
C186 C187 1.404 . S
C186 H200 0.929 . S
C187 C186 1.404 . S
C187 C188 1.389 . S
C188 C187 1.389 . S
C188 C189 1.399 . S
C188 H201 0.931 . S
C189 C188 1.399 . S
C189 C190 1.390 . S
C190 C185 1.392 . S
C190 C189 1.390 . S
C190 H202 0.929 . S
O191 Tb175 2.326 . S
O191 C179 1.242 . S
O192 Eu176 2.324 . S
O192 C179 1.258 . S
O193 Tb175 2.500 . S
O193 C195 1.273 . S
O194 Tb175 2.473 . S
O194 C195 1.257 . S
C195 O193 1.273 . S
C195 O194 1.257 . S
O196 Eu176 2.326 . S
O196 C184 1.242 . S
O197 Tb175 2.324 . S
O197 C184 1.258 . S
O198 Eu176 2.500 . S
O198 C181 1.273 . S
O199 Eu176 2.473 . S
O199 C181 1.257 . S
H200 C186 0.929 . S
H201 C188 0.931 . S
H202 C190 0.929 . S
O203 Tb204 2.292 . S
O203 C206 1.255 . S
Tb204 O203 2.292 . S
Tb204 O220 2.326 . S
Tb204 O222 2.500 . S
Tb204 O223 2.473 . S
Tb204 O226 2.324 . S
Eu205 O209 2.292 . S
Eu205 C210 2.852 . S
Eu205 O221 2.324 . S
Eu205 O225 2.326 . S
Eu205 O227 2.500 . S
Eu205 O228 2.473 . S
C206 O203 1.255 . S
C206 O207 1.247 . S
O207 C206 1.247 . S
C208 O220 1.242 . S
C208 O221 1.258 . S
O209 Eu205 2.292 . S
O209 C211 1.255 . S
C210 Eu205 2.852 . S
C210 C214 1.503 . S
C210 O227 1.273 . S
C210 O228 1.257 . S
C211 O209 1.255 . S
C211 O212 1.247 . S
O212 C211 1.247 . S
C213 O225 1.242 . S
C213 O226 1.258 . S
C214 C210 1.503 . S
C214 C215 1.379 . S
C214 C219 1.392 1_655 S
C215 C214 1.379 . S
C215 C216 1.404 . S
C215 H229 0.929 . S
C216 C215 1.404 . S
C216 C217 1.389 1_655 S
C217 C216 1.389 1_455 S
C217 C218 1.399 . S
C217 H230 0.931 . S
C218 C217 1.399 . S
C218 C219 1.390 . S
C219 C214 1.392 1_455 S
C219 C218 1.390 . S
C219 H231 0.929 . S
O220 Tb204 2.326 . S
O220 C208 1.242 . S
O221 Eu205 2.324 . S
O221 C208 1.258 . S
O222 Tb204 2.500 . S
O222 C224 1.273 . S
O223 Tb204 2.473 . S
O223 C224 1.257 . S
C224 O222 1.273 . S
C224 O223 1.257 . S
O225 Eu205 2.326 . S
O225 C213 1.242 . S
O226 Tb204 2.324 . S
O226 C213 1.258 . S
O227 Eu205 2.500 . S
O227 C210 1.273 . S
O228 Eu205 2.473 . S
O228 C210 1.257 . S
H229 C215 0.929 . S
H230 C217 0.931 . S
H231 C219 0.929 . S
O232 Tb233 2.292 . S
O232 C235 1.255 . S
Tb233 O232 2.292 . S
Tb233 O249 2.326 . S
Tb233 O251 2.500 . S
Tb233 O252 2.473 . S
Tb233 O255 2.324 . S
Eu234 O238 2.292 . S
Eu234 C239 2.852 . S
Eu234 O250 2.324 . S
Eu234 O254 2.326 . S
Eu234 O256 2.500 . S
Eu234 O257 2.473 . S
C235 O232 1.255 . S
C235 O236 1.247 . S
O236 C235 1.247 . S
C237 O249 1.242 . S
C237 O250 1.258 . S
O238 Eu234 2.292 . S
O238 C240 1.255 . S
C239 Eu234 2.852 . S
C239 C243 1.503 . S
C239 O256 1.273 . S
C239 O257 1.257 . S
C240 O238 1.255 . S
C240 O241 1.247 . S
O241 C240 1.247 . S
C242 O254 1.242 . S
C242 O255 1.258 . S
C243 C239 1.503 . S
C243 C244 1.379 . S
C243 C248 1.392 1_565 S
C244 C243 1.379 . S
C244 C245 1.404 . S
C244 H258 0.929 . S
C245 C244 1.404 . S
C245 C246 1.389 1_565 S
C246 C245 1.389 1_545 S
C246 C247 1.399 . S
C246 H259 0.931 . S
C247 C246 1.399 . S
C247 C248 1.390 . S
C248 C243 1.392 1_545 S
C248 C247 1.390 . S
C248 H260 0.929 . S
O249 Tb233 2.326 . S
O249 C237 1.242 . S
O250 Eu234 2.324 . S
O250 C237 1.258 . S
O251 Tb233 2.500 . S
O251 C253 1.273 . S
O252 Tb233 2.473 . S
O252 C253 1.257 . S
C253 O251 1.273 . S
C253 O252 1.257 . S
O254 Eu234 2.326 . S
O254 C242 1.242 . S
O255 Tb233 2.324 . S
O255 C242 1.258 . S
O256 Eu234 2.500 . S
O256 C239 1.273 . S
O257 Eu234 2.473 . S
O257 C239 1.257 . S
H258 C244 0.929 . S
H259 C246 0.931 . S
H260 C248 0.929 . S
O261 Tb262 2.292 . S
O261 C264 1.255 . S
Tb262 O261 2.292 . S
Tb262 O278 2.326 . S
Tb262 O280 2.500 . S
Tb262 O281 2.473 . S
Tb262 O284 2.324 . S
Eu263 O267 2.292 . S
Eu263 C268 2.852 . S
Eu263 O279 2.324 . S
Eu263 O283 2.326 . S
Eu263 O285 2.500 . S
Eu263 O286 2.473 . S
C264 O261 1.255 . S
C264 O265 1.247 . S
O265 C264 1.247 . S
C266 O278 1.242 . S
C266 O279 1.258 . S
O267 Eu263 2.292 . S
O267 C269 1.255 . S
C268 Eu263 2.852 . S
C268 C272 1.503 . S
C268 O285 1.273 . S
C268 O286 1.257 . S
C269 O267 1.255 . S
C269 O270 1.247 . S
O270 C269 1.247 . S
C271 O283 1.242 . S
C271 O284 1.258 . S
C272 C268 1.503 . S
C272 C273 1.379 . S
C272 C277 1.392 . S
C273 C272 1.379 . S
C273 C274 1.404 . S
C273 H287 0.929 . S
C274 C273 1.404 . S
C274 C275 1.389 . S
C275 C274 1.389 . S
C275 C276 1.399 . S
C275 H288 0.931 . S
C276 C275 1.399 . S
C276 C277 1.390 . S
C277 C272 1.392 . S
C277 C276 1.390 . S
C277 H289 0.929 . S
O278 Tb262 2.326 . S
O278 C266 1.242 . S
O279 Eu263 2.324 . S
O279 C266 1.258 . S
O280 Tb262 2.500 . S
O280 C282 1.273 . S
O281 Tb262 2.473 . S
O281 C282 1.257 . S
C282 O280 1.273 . S
C282 O281 1.257 . S
O283 Eu263 2.326 . S
O283 C271 1.242 . S
O284 Tb262 2.324 . S
O284 C271 1.258 . S
O285 Eu263 2.500 . S
O285 C268 1.273 . S
O286 Eu263 2.473 . S
O286 C268 1.257 . S
H287 C273 0.929 . S
H288 C275 0.931 . S
H289 C277 0.929 . S
O290 Tb291 2.292 . S
O290 C293 1.255 . S
Tb291 O290 2.292 . S
Tb291 O307 2.326 . S
Tb291 O309 2.500 . S
Tb291 O310 2.473 . S
Tb291 O313 2.324 . S
Eu292 O296 2.292 . S
Eu292 C297 2.852 . S
Eu292 O308 2.324 . S
Eu292 O312 2.326 . S
Eu292 O314 2.500 . S
Eu292 O315 2.473 . S
C293 O290 1.255 . S
C293 O294 1.247 . S
O294 C293 1.247 . S
C295 O307 1.242 . S
C295 O308 1.258 . S
O296 Eu292 2.292 . S
O296 C298 1.255 . S
C297 Eu292 2.852 . S
C297 C301 1.503 . S
C297 O314 1.273 . S
C297 O315 1.257 . S
C298 O296 1.255 . S
C298 O299 1.247 . S
O299 C298 1.247 . S
C300 O312 1.242 . S
C300 O313 1.258 . S
C301 C297 1.503 . S
C301 C302 1.379 . S
C301 C306 1.392 . S
C302 C301 1.379 . S
C302 C303 1.404 . S
C302 H316 0.929 . S
C303 C302 1.404 . S
C303 C304 1.389 . S
C304 C303 1.389 . S
C304 C305 1.399 . S
C304 H317 0.931 . S
C305 C304 1.399 . S
C305 C306 1.390 . S
C306 C301 1.392 . S
C306 C305 1.390 . S
C306 H318 0.929 . S
O307 Tb291 2.326 . S
O307 C295 1.242 . S
O308 Eu292 2.324 . S
O308 C295 1.258 . S
O309 Tb291 2.500 . S
O309 C311 1.273 . S
O310 Tb291 2.473 . S
O310 C311 1.257 . S
C311 O309 1.273 . S
C311 O310 1.257 . S
O312 Eu292 2.326 . S
O312 C300 1.242 . S
O313 Tb291 2.324 . S
O313 C300 1.258 . S
O314 Eu292 2.500 . S
O314 C297 1.273 . S
O315 Eu292 2.473 . S
O315 C297 1.257 . S
H316 C302 0.929 . S
H317 C304 0.931 . S
H318 C306 0.929 . S
O319 Tb320 2.292 . S
O319 C322 1.255 . S
Tb320 O319 2.292 . S
Tb320 O336 2.326 . S
Tb320 O338 2.500 . S
Tb320 O339 2.473 . S
Tb320 O342 2.324 . S
Eu321 O325 2.292 . S
Eu321 C326 2.852 . S
Eu321 O337 2.324 . S
Eu321 O341 2.326 . S
Eu321 O343 2.500 . S
Eu321 O344 2.473 . S
C322 O319 1.255 . S
C322 O323 1.247 . S
O323 C322 1.247 . S
C324 O336 1.242 . S
C324 O337 1.258 . S
O325 Eu321 2.292 . S
O325 C327 1.255 . S
C326 Eu321 2.852 . S
C326 C330 1.503 . S
C326 O343 1.273 . S
C326 O344 1.257 . S
C327 O325 1.255 . S
C327 O328 1.247 . S
O328 C327 1.247 . S
C329 O341 1.242 . S
C329 O342 1.258 . S
C330 C326 1.503 . S
C330 C331 1.379 . S
C330 C335 1.392 1_655 S
C331 C330 1.379 . S
C331 C332 1.404 . S
C331 H345 0.929 . S
C332 C331 1.404 . S
C332 C333 1.389 1_655 S
C333 C332 1.389 1_455 S
C333 C334 1.399 . S
C333 H346 0.931 . S
C334 C333 1.399 . S
C334 C335 1.390 . S
C335 C330 1.392 1_455 S
C335 C334 1.390 . S
C335 H347 0.929 . S
O336 Tb320 2.326 . S
O336 C324 1.242 . S
O337 Eu321 2.324 . S
O337 C324 1.258 . S
O338 Tb320 2.500 . S
O338 C340 1.273 . S
O339 Tb320 2.473 . S
O339 C340 1.257 . S
C340 O338 1.273 . S
C340 O339 1.257 . S
O341 Eu321 2.326 . S
O341 C329 1.242 . S
O342 Tb320 2.324 . S
O342 C329 1.258 . S
O343 Eu321 2.500 . S
O343 C326 1.273 . S
O344 Eu321 2.473 . S
O344 C326 1.257 . S
H345 C331 0.929 . S
H346 C333 0.931 . S
H347 C335 0.929 . S
O348 Tb349 2.292 . S
O348 C351 1.255 . S
Tb349 O348 2.292 . S
Tb349 O365 2.326 . S
Tb349 O367 2.500 . S
Tb349 O368 2.473 . S
Tb349 O371 2.324 . S
Eu350 O354 2.292 . S
Eu350 C355 2.852 . S
Eu350 O366 2.324 . S
Eu350 O370 2.326 . S
Eu350 O372 2.500 . S
Eu350 O373 2.473 . S
C351 O348 1.255 . S
C351 O352 1.247 . S
O352 C351 1.247 . S
C353 O365 1.242 . S
C353 O366 1.258 . S
O354 Eu350 2.292 . S
O354 C356 1.255 . S
C355 Eu350 2.852 . S
C355 C359 1.503 . S
C355 O372 1.273 . S
C355 O373 1.257 . S
C356 O354 1.255 . S
C356 O357 1.247 . S
O357 C356 1.247 . S
C358 O370 1.242 . S
C358 O371 1.258 . S
C359 C355 1.503 . S
C359 C360 1.379 . S
C359 C364 1.392 1_545 S
C360 C359 1.379 . S
C360 C361 1.404 . S
C360 H374 0.929 . S
C361 C360 1.404 . S
C361 C362 1.389 1_545 S
C362 C361 1.389 1_565 S
C362 C363 1.399 . S
C362 H375 0.931 . S
C363 C362 1.399 . S
C363 C364 1.390 . S
C364 C359 1.392 1_565 S
C364 C363 1.390 . S
C364 H376 0.929 . S
O365 Tb349 2.326 . S
O365 C353 1.242 . S
O366 Eu350 2.324 . S
O366 C353 1.258 . S
O367 Tb349 2.500 . S
O367 C369 1.273 . S
O368 Tb349 2.473 . S
O368 C369 1.257 . S
C369 O367 1.273 . S
C369 O368 1.257 . S
O370 Eu350 2.326 . S
O370 C358 1.242 . S
O371 Tb349 2.324 . S
O371 C358 1.258 . S
O372 Eu350 2.500 . S
O372 C355 1.273 . S
O373 Eu350 2.473 . S
O373 C355 1.257 . S
H374 C360 0.929 . S
H375 C362 0.931 . S
H376 C364 0.929 . S
O377 Tb378 2.292 . S
O377 C380 1.255 . S
Tb378 O377 2.292 . S
Tb378 O394 2.326 . S
Tb378 O396 2.500 . S
Tb378 O397 2.473 . S
Tb378 O400 2.324 . S
Eu379 O383 2.292 . S
Eu379 C384 2.852 . S
Eu379 O395 2.324 . S
Eu379 O399 2.326 . S
Eu379 O401 2.500 . S
Eu379 O402 2.473 . S
C380 O377 1.255 . S
C380 O381 1.247 . S
O381 C380 1.247 . S
C382 O394 1.242 . S
C382 O395 1.258 . S
O383 Eu379 2.292 . S
O383 C385 1.255 . S
C384 Eu379 2.852 . S
C384 C388 1.503 . S
C384 O401 1.273 . S
C384 O402 1.257 . S
C385 O383 1.255 . S
C385 O386 1.247 . S
O386 C385 1.247 . S
C387 O399 1.242 . S
C387 O400 1.258 . S
C388 C384 1.503 . S
C388 C389 1.379 . S
C388 C393 1.392 . S
C389 C388 1.379 . S
C389 C390 1.404 . S
C389 H403 0.929 . S
C390 C389 1.404 . S
C390 C391 1.389 . S
C391 C390 1.389 . S
C391 C392 1.399 . S
C391 H404 0.931 . S
C392 C391 1.399 . S
C392 C393 1.390 . S
C393 C388 1.392 . S
C393 C392 1.390 . S
C393 H405 0.929 . S
O394 Tb378 2.326 . S
O394 C382 1.242 . S
O395 Eu379 2.324 . S
O395 C382 1.258 . S
O396 Tb378 2.500 . S
O396 C398 1.273 . S
O397 Tb378 2.473 . S
O397 C398 1.257 . S
C398 O396 1.273 . S
C398 O397 1.257 . S
O399 Eu379 2.326 . S
O399 C387 1.242 . S
O400 Tb378 2.324 . S
O400 C387 1.258 . S
O401 Eu379 2.500 . S
O401 C384 1.273 . S
O402 Eu379 2.473 . S
O402 C384 1.257 . S
H403 C389 0.929 . S
H404 C391 0.931 . S
H405 C393 0.929 . S
O406 Tb407 2.292 . S
O406 C409 1.255 . S
Tb407 O406 2.292 . S
Tb407 O423 2.326 . S
Tb407 O425 2.500 . S
Tb407 O426 2.473 . S
Tb407 O429 2.324 . S
Eu408 O412 2.292 . S
Eu408 C413 2.852 . S
Eu408 O424 2.324 . S
Eu408 O428 2.326 . S
Eu408 O430 2.500 . S
Eu408 O431 2.473 . S
C409 O406 1.255 . S
C409 O410 1.247 . S
O410 C409 1.247 . S
C411 O423 1.242 . S
C411 O424 1.258 . S
O412 Eu408 2.292 . S
O412 C414 1.255 . S
C413 Eu408 2.852 . S
C413 C417 1.503 . S
C413 O430 1.273 . S
C413 O431 1.257 . S
C414 O412 1.255 . S
C414 O415 1.247 . S
O415 C414 1.247 . S
C416 O428 1.242 . S
C416 O429 1.258 . S
C417 C413 1.503 . S
C417 C418 1.379 . S
C417 C422 1.392 . S
C418 C417 1.379 . S
C418 C419 1.404 . S
C418 H432 0.929 . S
C419 C418 1.404 . S
C419 C420 1.389 . S
C420 C419 1.389 . S
C420 C421 1.399 . S
C420 H433 0.931 . S
C421 C420 1.399 . S
C421 C422 1.390 . S
C422 C417 1.392 . S
C422 C421 1.390 . S
C422 H434 0.929 . S
O423 Tb407 2.326 . S
O423 C411 1.242 . S
O424 Eu408 2.324 . S
O424 C411 1.258 . S
O425 Tb407 2.500 . S
O425 C427 1.273 . S
O426 Tb407 2.473 . S
O426 C427 1.257 . S
C427 O425 1.273 . S
C427 O426 1.257 . S
O428 Eu408 2.326 . S
O428 C416 1.242 . S
O429 Tb407 2.324 . S
O429 C416 1.258 . S
O430 Eu408 2.500 . S
O430 C413 1.273 . S
O431 Eu408 2.473 . S
O431 C413 1.257 . S
H432 C418 0.929 . S
H433 C420 0.931 . S
H434 C422 0.929 . S
O435 Tb436 2.292 . S
O435 C438 1.255 . S
Tb436 O435 2.292 . S
Tb436 O452 2.326 . S
Tb436 O454 2.500 . S
Tb436 O455 2.473 . S
Tb436 O458 2.324 . S
Eu437 O441 2.292 . S
Eu437 C442 2.852 . S
Eu437 O453 2.324 . S
Eu437 O457 2.326 . S
Eu437 O459 2.500 . S
Eu437 O460 2.473 . S
C438 O435 1.255 . S
C438 O439 1.247 . S
O439 C438 1.247 . S
C440 O452 1.242 . S
C440 O453 1.258 . S
O441 Eu437 2.292 . S
O441 C443 1.255 . S
C442 Eu437 2.852 . S
C442 C446 1.503 . S
C442 O459 1.273 . S
C442 O460 1.257 . S
C443 O441 1.255 . S
C443 O444 1.247 . S
O444 C443 1.247 . S
C445 O457 1.242 . S
C445 O458 1.258 . S
C446 C442 1.503 . S
C446 C447 1.379 . S
C446 C451 1.392 1_455 S
C447 C446 1.379 . S
C447 C448 1.404 . S
C447 H461 0.929 . S
C448 C447 1.404 . S
C448 C449 1.389 1_455 S
C449 C448 1.389 1_655 S
C449 C450 1.399 . S
C449 H462 0.931 . S
C450 C449 1.399 . S
C450 C451 1.390 . S
C451 C446 1.392 1_655 S
C451 C450 1.390 . S
C451 H463 0.929 . S
O452 Tb436 2.326 . S
O452 C440 1.242 . S
O453 Eu437 2.324 . S
O453 C440 1.258 . S
O454 Tb436 2.500 . S
O454 C456 1.273 . S
O455 Tb436 2.473 . S
O455 C456 1.257 . S
C456 O454 1.273 . S
C456 O455 1.257 . S
O457 Eu437 2.326 . S
O457 C445 1.242 . S
O458 Tb436 2.324 . S
O458 C445 1.258 . S
O459 Eu437 2.500 . S
O459 C442 1.273 . S
O460 Eu437 2.473 . S
O460 C442 1.257 . S
H461 C447 0.929 . S
H462 C449 0.931 . S
H463 C451 0.929 . S
H464 C472 0.929 . S
H465 C474 0.930 . S
H466 C476 0.930 1_545 S
H467 C479 0.929 . S
H468 C482 0.930 . S
H469 C484 0.960 . S
H470 C484 0.960 . S
H471 C484 0.960 . S
C472 H464 0.929 . S
C472 C473 1.377 . S
C472 C474 1.384 . S
C473 C472 1.377 . S
C473 C479 1.390 . S
C474 H465 0.930 . S
C474 C472 1.384 . S
C474 C475 1.372 . S
C475 C474 1.372 . S
C475 C476 1.400 . S
C475 C480 1.490 . S
C476 H466 0.930 1_565 S
C476 C475 1.400 . S
C476 C479 1.386 . S
H477 C493 0.930 . S
H478 C494 0.931 . S
C479 H467 0.929 . S
C479 C473 1.390 . S
C479 C476 1.386 . S
C480 C475 1.490 . S
C480 C482 1.395 1_565 S
C480 C483 1.403 1_556 S
H481 C487 0.930 . S
C482 H468 0.930 . S
C482 C480 1.395 1_545 S
C482 C485 1.403 . S
C483 C480 1.403 1_554 S
C483 C484 1.524 . S
C483 C487 1.400 . S
C484 H469 0.960 . S
C484 H470 0.960 . S
C484 H471 0.960 . S
C484 C483 1.524 . S
C485 C482 1.403 . S
C485 C486 1.392 1_556 S
C485 C489 1.495 . S
C486 C485 1.392 1_554 S
C486 C487 1.385 1_545 S
C486 C488 1.478 . S
C487 H481 0.930 . S
C487 C483 1.400 . S
C487 C486 1.385 1_565 S
C488 C486 1.478 . S
C488 C490 1.381 . S
C488 C494 1.383 . S
C489 C485 1.495 . S
C489 H495 0.959 . S
C489 H496 0.961 . S
C489 H497 0.960 . S
C490 C488 1.381 . S
C490 C491 1.394 . S
C490 H498 0.930 1_545 S
C491 C490 1.394 . S
C491 C492 1.383 . S
C491 H499 0.926 1_545 S
C492 C491 1.383 . S
C492 C493 1.377 . S
C493 H477 0.930 . S
C493 C492 1.377 . S
C493 C494 1.379 . S
C494 H478 0.931 . S
C494 C488 1.383 . S
C494 C493 1.379 . S
H495 C489 0.959 . S
H496 C489 0.961 . S
H497 C489 0.960 . S
H498 C490 0.930 1_565 S
H499 C491 0.926 1_565 S
H500 C508 0.929 . S
H501 C510 0.930 . S
H502 C512 0.930 . S
H503 C515 0.929 . S
H504 C518 0.930 . S
H505 C520 0.960 . S
H506 C520 0.960 . S
H507 C520 0.960 . S
C508 H500 0.929 . S
C508 C509 1.377 . S
C508 C510 1.384 . S
C509 C508 1.377 . S
C509 C515 1.390 . S
C510 H501 0.930 . S
C510 C508 1.384 . S
C510 C511 1.372 . S
C511 C510 1.372 . S
C511 C512 1.400 . S
C511 C516 1.490 . S
C512 H502 0.930 . S
C512 C511 1.400 . S
C512 C515 1.386 . S
H513 C529 0.930 . S
H514 C530 0.931 . S
C515 H503 0.929 . S
C515 C509 1.390 . S
C515 C512 1.386 . S
C516 C511 1.490 . S
C516 C518 1.395 . S
C516 C519 1.403 . S
H517 C523 0.930 . S
C518 H504 0.930 . S
C518 C516 1.395 . S
C518 C521 1.403 1_554 S
C519 C516 1.403 . S
C519 C520 1.524 . S
C519 C523 1.400 1_554 S
C520 H505 0.960 . S
C520 H506 0.960 . S
C520 H507 0.960 . S
C520 C519 1.524 . S
C521 C518 1.403 1_556 S
C521 C522 1.392 . S
C521 C525 1.495 . S
C522 C521 1.392 . S
C522 C523 1.385 . S
C522 C524 1.478 . S
C523 H517 0.930 . S
C523 C519 1.400 1_556 S
C523 C522 1.385 . S
C524 C522 1.478 . S
C524 C526 1.381 . S
C524 C530 1.383 . S
C525 C521 1.495 . S
C525 H531 0.946 1_556 S
C525 H532 0.961 . S
C525 H533 0.960 . S
C526 C524 1.381 . S
C526 C527 1.394 . S
C526 H534 0.930 . S
C527 C526 1.394 . S
C527 C528 1.383 . S
C527 H535 0.929 . S
C528 C527 1.383 . S
C528 C529 1.377 . S
C529 H513 0.930 . S
C529 C528 1.377 . S
C529 C530 1.379 . S
C530 H514 0.931 . S
C530 C524 1.383 . S
C530 C529 1.379 . S
H531 C525 0.946 1_554 S
H532 C525 0.961 . S
H533 C525 0.960 . S
H534 C526 0.930 . S
H535 C527 0.929 . S
H536 C544 0.929 . S
H537 C546 0.930 . S
H538 C548 0.930 . S
H539 C551 0.929 . S
H540 C554 0.928 1_556 S
H541 C556 0.931 1_655 S
H542 C556 0.960 . S
H543 C556 0.960 . S
C544 H536 0.929 . S
C544 C545 1.377 . S
C544 C546 1.384 . S
C545 C544 1.377 . S
C545 C551 1.390 . S
C546 H537 0.930 . S
C546 C544 1.384 . S
C546 C547 1.372 . S
C547 C546 1.372 . S
C547 C548 1.400 . S
C547 C552 1.490 . S
C548 H538 0.930 . S
C548 C547 1.400 . S
C548 C551 1.386 . S
H549 C565 0.930 . S
H550 C566 0.931 . S
C551 H539 0.929 . S
C551 C545 1.390 . S
C551 C548 1.386 . S
C552 C547 1.490 . S
C552 C554 1.380 1_556 S
C552 C555 1.403 . S
H553 C559 0.930 . S
C554 H540 0.928 1_554 S
C554 C552 1.380 1_554 S
C554 C557 1.420 1_455 S
C555 C552 1.403 . S
C555 C556 1.524 . S
C555 C559 1.400 1_456 S
C556 H541 0.931 1_455 S
C556 H542 0.960 . S
C556 H543 0.960 . S
C556 C555 1.524 . S
C557 C554 1.420 1_655 S
C557 C558 1.392 . S
C557 C561 1.495 . S
C558 C557 1.392 . S
C558 C559 1.385 . S
C558 C560 1.478 . S
C559 H553 0.930 . S
C559 C555 1.400 1_654 S
C559 C558 1.385 . S
C560 C558 1.478 . S
C560 C562 1.381 . S
C560 C566 1.383 . S
C561 C557 1.495 . S
C561 H567 0.959 1_655 S
C561 H568 0.961 . S
C561 H569 0.960 . S
C562 C560 1.381 . S
C562 C563 1.394 . S
C562 H570 0.930 . S
C563 C562 1.394 . S
C563 C564 1.383 . S
C563 H571 0.929 . S
C564 C563 1.383 . S
C564 C565 1.377 . S
C565 H549 0.930 . S
C565 C564 1.377 . S
C565 C566 1.379 . S
C566 H550 0.931 . S
C566 C560 1.383 . S
C566 C565 1.379 . S
H567 C561 0.959 1_455 S
H568 C561 0.961 . S
H569 C561 0.960 . S
H570 C562 0.930 . S
H571 C563 0.929 . S
H572 C580 0.929 . S
H573 C582 0.930 . S
H574 C584 0.930 . S
H575 C587 0.929 . S
H576 C590 0.930 . S
H577 C592 0.960 . S
H578 C592 0.960 1_455 S
H579 C592 0.960 . S
C580 H572 0.929 . S
C580 C581 1.377 . S
C580 C582 1.384 . S
C581 C580 1.377 . S
C581 C587 1.390 1_455 S
C582 H573 0.930 . S
C582 C580 1.384 . S
C582 C583 1.372 . S
C583 C582 1.372 . S
C583 C584 1.400 1_455 S
C583 C588 1.490 . S
C584 H574 0.930 . S
C584 C583 1.400 1_655 S
C584 C587 1.386 . S
H585 C601 0.930 . S
H586 C602 0.931 . S
C587 H575 0.929 . S
C587 C581 1.390 1_655 S
C587 C584 1.386 . S
C588 C583 1.490 . S
C588 C590 1.395 1_554 S
C588 C591 1.403 1_465 S
H589 C595 0.930 . S
C590 H576 0.930 . S
C590 C588 1.395 1_556 S
C590 C593 1.403 . S
C591 C588 1.403 1_645 S
C591 C592 1.524 . S
C591 C595 1.400 . S
C592 H577 0.960 . S
C592 H578 0.960 1_655 S
C592 H579 0.960 . S
C592 C591 1.524 . S
C593 C590 1.403 . S
C593 C594 1.392 1_465 S
C593 C597 1.495 . S
C594 C593 1.392 1_645 S
C594 C595 1.385 1_556 S
C594 C596 1.478 . S
C595 H589 0.930 . S
C595 C591 1.400 . S
C595 C594 1.385 1_554 S
C596 C594 1.478 . S
C596 C598 1.381 1_655 S
C596 C602 1.383 . S
C597 C593 1.495 . S
C597 H603 0.959 . S
C597 H604 0.961 1_455 S
C597 H605 0.960 . S
C598 C596 1.381 1_455 S
C598 C599 1.394 . S
C598 H606 0.930 . S
C599 C598 1.394 . S
C599 C600 1.383 1_455 S
C599 H607 0.929 . S
C600 C599 1.383 1_655 S
C600 C601 1.377 . S
C601 H585 0.930 . S
C601 C600 1.377 . S
C601 C602 1.379 . S
C602 H586 0.931 . S
C602 C596 1.383 . S
C602 C601 1.379 . S
H603 C597 0.959 . S
H604 C597 0.961 1_655 S
H605 C597 0.960 . S
H606 C598 0.930 . S
H607 C599 0.929 . S
H608 C616 0.929 1_545 S
H609 C618 0.930 . S
H610 C620 0.930 . S
H611 C623 0.929 . S
H612 C626 0.930 . S
H613 C628 0.960 . S
H614 C628 0.960 . S
H615 C628 0.960 1_565 S
C616 H608 0.929 1_565 S
C616 C617 1.377 . S
C616 C618 1.384 1_565 S
C617 C616 1.377 . S
C617 C623 1.390 . S
C618 H609 0.930 . S
C618 C616 1.384 1_545 S
C618 C619 1.372 1_545 S
C619 C618 1.372 1_565 S
C619 C620 1.400 . S
C619 C624 1.490 . S
C620 H610 0.930 . S
C620 C619 1.400 . S
C620 C623 1.386 . S
H621 C637 0.927 1_565 S
H622 C638 0.931 . S
C623 H611 0.929 . S
C623 C617 1.390 . S
C623 C620 1.386 . S
C624 C619 1.490 . S
C624 C626 1.395 1_455 S
C624 C627 1.403 1_565 S
H625 C631 0.930 . S
C626 H612 0.930 . S
C626 C624 1.395 1_655 S
C626 C629 1.403 . S
C627 C624 1.403 1_545 S
C627 C628 1.524 . S
C627 C631 1.400 . S
C628 H613 0.960 . S
C628 H614 0.960 . S
C628 H615 0.960 1_545 S
C628 C627 1.524 . S
C629 C626 1.403 . S
C629 C630 1.392 1_565 S
C629 C633 1.495 . S
C630 C629 1.392 1_545 S
C630 C631 1.385 1_655 S
C630 C632 1.478 . S
C631 H625 0.930 . S
C631 C627 1.400 . S
C631 C630 1.385 1_455 S
C632 C630 1.478 . S
C632 C634 1.381 . S
C632 C638 1.383 1_545 S
C633 C629 1.495 . S
C633 H639 0.959 . S
C633 H640 0.961 . S
C633 H641 0.960 1_565 S
C634 C632 1.381 . S
C634 C635 1.394 . S
C634 H642 0.930 . S
C635 C634 1.394 . S
C635 C636 1.383 . S
C635 H643 0.929 . S
C636 C635 1.383 . S
C636 C637 1.380 . S
C637 H621 0.927 1_545 S
C637 C636 1.380 . S
C637 C638 1.379 1_545 S
C638 H622 0.931 . S
C638 C632 1.383 1_565 S
C638 C637 1.379 1_565 S
H639 C633 0.959 . S
H640 C633 0.961 . S
H641 C633 0.960 1_545 S
H642 C634 0.930 . S
H643 C635 0.929 . S
H644 C652 0.929 . S
H645 C654 0.930 . S
H646 C656 0.930 . S
H647 C659 0.929 . S
H648 C662 0.930 . S
H649 C664 0.960 . S
H650 C664 0.960 . S
H651 C664 0.960 . S
C652 H644 0.929 . S
C652 C653 1.377 . S
C652 C654 1.384 . S
C653 C652 1.377 . S
C653 C659 1.390 . S
C654 H645 0.930 . S
C654 C652 1.384 . S
C654 C655 1.372 . S
C655 C654 1.372 . S
C655 C656 1.400 . S
C655 C660 1.490 . S
C656 H646 0.930 . S
C656 C655 1.400 . S
C656 C659 1.386 . S
H657 C673 0.930 . S
H658 C674 0.931 . S
C659 H647 0.929 . S
C659 C653 1.390 . S
C659 C656 1.386 . S
C660 C655 1.490 . S
C660 C662 1.395 1_545 S
C660 C663 1.403 . S
H661 C667 0.930 . S
C662 H648 0.930 . S
C662 C660 1.395 1_565 S
C662 C665 1.403 . S
C663 C660 1.403 . S
C663 C664 1.524 . S
C663 C667 1.400 . S
C664 H649 0.960 . S
C664 H650 0.960 . S
C664 H651 0.960 . S
C664 C663 1.524 . S
C665 C662 1.403 . S
C665 C666 1.392 . S
C665 C669 1.495 . S
C666 C665 1.392 . S
C666 C667 1.385 1_565 S
C666 C668 1.478 . S
C667 H661 0.930 . S
C667 C663 1.400 . S
C667 C666 1.385 1_545 S
C668 C666 1.478 . S
C668 C670 1.381 . S
C668 C674 1.383 . S
C669 C665 1.495 . S
C669 H675 0.959 . S
C669 H676 0.961 . S
C669 H677 0.960 . S
C670 C668 1.381 . S
C670 C671 1.394 . S
C670 H678 0.930 . S
C671 C670 1.394 . S
C671 C672 1.383 . S
C671 H679 0.929 . S
C672 C671 1.383 . S
C672 C673 1.377 . S
C673 H657 0.930 . S
C673 C672 1.377 . S
C673 C674 1.379 . S
C674 H658 0.931 . S
C674 C668 1.383 . S
C674 C673 1.379 . S
H675 C669 0.959 . S
H676 C669 0.961 . S
H677 C669 0.960 . S
H678 C670 0.930 . S
H679 C671 0.929 . S
H680 C688 0.929 . S
H681 C690 0.930 . S
H682 C692 0.930 . S
H683 C695 0.929 . S
H684 C698 0.930 . S
H685 C700 0.960 . S
H686 C700 0.960 . S
H687 C700 0.960 . S
C688 H680 0.929 . S
C688 C689 1.377 . S
C688 C690 1.384 . S
C689 C688 1.377 . S
C689 C695 1.390 . S
C690 H681 0.930 . S
C690 C688 1.384 . S
C690 C691 1.372 . S
C691 C690 1.372 . S
C691 C692 1.400 . S
C691 C696 1.490 . S
C692 H682 0.930 . S
C692 C691 1.400 . S
C692 C695 1.386 . S
H693 C709 0.930 . S
H694 C710 0.931 . S
C695 H683 0.929 . S
C695 C689 1.390 . S
C695 C692 1.386 . S
C696 C691 1.490 . S
C696 C698 1.395 . S
C696 C699 1.403 . S
H697 C703 0.930 . S
C698 H684 0.930 . S
C698 C696 1.395 . S
C698 C701 1.403 . S
C699 C696 1.403 . S
C699 C700 1.524 . S
C699 C703 1.400 . S
C700 H685 0.960 . S
C700 H686 0.960 . S
C700 H687 0.960 . S
C700 C699 1.524 . S
C701 C698 1.403 . S
C701 C702 1.392 . S
C701 C705 1.495 . S
C702 C701 1.392 . S
C702 C703 1.385 . S
C702 C704 1.478 . S
C703 H697 0.930 . S
C703 C699 1.400 . S
C703 C702 1.385 . S
C704 C702 1.478 . S
C704 C706 1.381 . S
C704 C710 1.383 . S
C705 C701 1.495 . S
C705 H711 0.959 . S
C705 H712 0.961 . S
C705 H713 0.960 . S
C706 C704 1.381 . S
C706 C707 1.394 . S
C706 H714 0.930 . S
C707 C706 1.394 . S
C707 C708 1.383 . S
C707 H715 0.929 . S
C708 C707 1.383 . S
C708 C709 1.377 . S
C709 H693 0.930 . S
C709 C708 1.377 . S
C709 C710 1.379 . S
C710 H694 0.931 . S
C710 C704 1.383 . S
C710 C709 1.379 . S
H711 C705 0.959 . S
H712 C705 0.961 . S
H713 C705 0.960 . S
H714 C706 0.930 . S
H715 C707 0.929 . S
H716 C724 0.929 . S
H717 C726 0.930 . S
H718 C728 0.930 . S
H719 C731 0.929 . S
H720 C734 0.930 . S
H721 C736 0.960 . S
H722 C736 0.960 . S
H723 C736 0.960 . S
C724 H716 0.929 . S
C724 C725 1.377 . S
C724 C726 1.384 . S
C725 C724 1.377 . S
C725 C731 1.390 1_455 S
C726 H717 0.930 . S
C726 C724 1.384 . S
C726 C727 1.372 . S
C727 C726 1.372 . S
C727 C728 1.400 1_455 S
C727 C732 1.490 . S
C728 H718 0.930 . S
C728 C727 1.400 1_655 S
C728 C731 1.386 . S
H729 C745 0.930 . S
H730 C746 0.931 . S
C731 H719 0.929 . S
C731 C725 1.390 1_655 S
C731 C728 1.386 . S
C732 C727 1.490 . S
C732 C734 1.395 . S
C732 C735 1.403 1_455 S
H733 C739 0.930 . S
C734 H720 0.930 . S
C734 C732 1.395 . S
C734 C737 1.403 . S
C735 C732 1.403 1_655 S
C735 C736 1.524 . S
C735 C739 1.400 . S
C736 H721 0.960 . S
C736 H722 0.960 . S
C736 H723 0.960 . S
C736 C735 1.524 . S
C737 C734 1.403 . S
C737 C738 1.392 1_455 S
C737 C741 1.495 . S
C738 C737 1.392 1_655 S
C738 C739 1.385 . S
C738 C740 1.478 . S
C739 H733 0.930 . S
C739 C735 1.400 . S
C739 C738 1.385 . S
C740 C738 1.478 . S
C740 C742 1.381 1_655 S
C740 C746 1.383 . S
C741 C737 1.495 . S
C741 H747 0.959 . S
C741 H748 0.961 . S
C741 H749 0.960 . S
C742 C740 1.381 1_455 S
C742 C743 1.394 . S
C742 H750 0.930 . S
C743 C742 1.394 . S
C743 C744 1.383 1_455 S
C743 H751 0.929 . S
C744 C743 1.383 1_655 S
C744 C745 1.377 . S
C745 H729 0.930 . S
C745 C744 1.377 . S
C745 C746 1.379 . S
C746 H730 0.931 . S
C746 C740 1.383 . S
C746 C745 1.379 . S
H747 C741 0.959 . S
H748 C741 0.961 . S
H749 C741 0.960 . S
H750 C742 0.930 . S
H751 C743 0.929 . S
H752 C760 0.929 . S
H753 C762 0.930 . S
H754 C764 0.930 . S
H755 C767 0.929 . S
H756 C770 0.930 . S
H757 C772 0.960 . S
H758 C772 0.960 . S
H759 C772 0.960 . S
C760 H752 0.929 . S
C760 C761 1.377 . S
C760 C762 1.384 . S
C761 C760 1.377 . S
C761 C767 1.390 . S
C762 H753 0.930 . S
C762 C760 1.384 . S
C762 C763 1.372 . S
C763 C762 1.372 . S
C763 C764 1.400 . S
C763 C768 1.490 . S
C764 H754 0.930 . S
C764 C763 1.400 . S
C764 C767 1.386 . S
H765 C781 0.930 . S
H766 C782 0.931 . S
C767 H755 0.929 . S
C767 C761 1.390 . S
C767 C764 1.386 . S
C768 C763 1.490 . S
C768 C770 1.395 . S
C768 C771 1.403 . S
H769 C775 0.930 . S
C770 H756 0.930 . S
C770 C768 1.395 . S
C770 C773 1.403 . S
C771 C768 1.403 . S
C771 C772 1.524 . S
C771 C775 1.400 . S
C772 H757 0.960 . S
C772 H758 0.960 . S
C772 H759 0.960 . S
C772 C771 1.524 . S
C773 C770 1.403 . S
C773 C774 1.392 . S
C773 C777 1.495 . S
C774 C773 1.392 . S
C774 C775 1.385 . S
C774 C776 1.478 . S
C775 H769 0.930 . S
C775 C771 1.400 . S
C775 C774 1.385 . S
C776 C774 1.478 . S
C776 C778 1.381 . S
C776 C782 1.383 . S
C777 C773 1.495 . S
C777 H783 0.959 . S
C777 H784 0.961 . S
C777 H785 0.960 . S
C778 C776 1.381 . S
C778 C779 1.394 . S
C778 H786 0.930 . S
C779 C778 1.394 . S
C779 C780 1.383 . S
C779 H787 0.929 . S
C780 C779 1.383 . S
C780 C781 1.377 . S
C781 H765 0.930 . S
C781 C780 1.377 . S
C781 C782 1.379 . S
C782 H766 0.931 . S
C782 C776 1.383 . S
C782 C781 1.379 . S
H783 C777 0.959 . S
H784 C777 0.961 . S
H785 C777 0.960 . S
H786 C778 0.930 . S
H787 C779 0.929 . S
H788 C796 0.929 . S
H789 C798 0.930 . S
H790 C800 0.930 . S
H791 C803 0.929 . S
H792 C806 0.930 . S
H793 C808 0.960 . S
H794 C808 0.960 . S
H795 C808 0.960 . S
C796 H788 0.929 . S
C796 C797 1.377 . S
C796 C798 1.384 . S
C797 C796 1.377 . S
C797 C803 1.390 . S
C798 H789 0.930 . S
C798 C796 1.384 . S
C798 C799 1.372 . S
C799 C798 1.372 . S
C799 C800 1.400 . S
C799 C804 1.490 . S
C800 H790 0.930 . S
C800 C799 1.400 . S
C800 C803 1.386 . S
H801 C817 0.930 . S
H802 C818 0.931 . S
C803 H791 0.929 . S
C803 C797 1.390 . S
C803 C800 1.386 . S
C804 C799 1.490 . S
C804 C806 1.395 . S
C804 C807 1.403 . S
H805 C811 0.930 . S
C806 H792 0.930 . S
C806 C804 1.395 . S
C806 C809 1.403 . S
C807 C804 1.403 . S
C807 C808 1.524 . S
C807 C811 1.400 . S
C808 H793 0.960 . S
C808 H794 0.960 . S
C808 H795 0.960 . S
C808 C807 1.524 . S
C809 C806 1.403 . S
C809 C810 1.392 . S
C809 C813 1.495 . S
C810 C809 1.392 . S
C810 C811 1.385 . S
C810 C812 1.478 . S
C811 H805 0.930 . S
C811 C807 1.400 . S
C811 C810 1.385 . S
C812 C810 1.478 . S
C812 C814 1.381 . S
C812 C818 1.383 . S
C813 C809 1.495 . S
C813 H819 0.959 . S
C813 H820 0.961 . S
C813 H821 0.960 . S
C814 C812 1.381 . S
C814 C815 1.394 . S
C814 H822 0.930 . S
C815 C814 1.394 . S
C815 C816 1.383 . S
C815 H823 0.929 . S
C816 C815 1.383 . S
C816 C817 1.377 . S
C817 H801 0.930 . S
C817 C816 1.377 . S
C817 C818 1.379 . S
C818 H802 0.931 . S
C818 C812 1.383 . S
C818 C817 1.379 . S
H819 C813 0.959 . S
H820 C813 0.961 . S
H821 C813 0.960 . S
H822 C814 0.930 . S
H823 C815 0.929 . S
H824 C832 0.929 . S
H825 C834 0.930 . S
H826 C836 0.930 . S
H827 C839 0.929 . S
H828 C842 0.930 . S
H829 C844 0.960 . S
H830 C844 0.960 . S
H831 C844 0.960 1_455 S
C832 H824 0.929 . S
C832 C833 1.377 1_655 S
C832 C834 1.384 . S
C833 C832 1.377 1_455 S
C833 C839 1.390 . S
C834 H825 0.930 . S
C834 C832 1.384 . S
C834 C835 1.372 . S
C835 C834 1.372 . S
C835 C836 1.400 1_655 S
C835 C840 1.490 . S
C836 H826 0.930 . S
C836 C835 1.400 1_455 S
C836 C839 1.386 . S
H837 C853 0.930 . S
H838 C854 0.931 . S
C839 H827 0.929 . S
C839 C833 1.390 . S
C839 C836 1.386 . S
C840 C835 1.490 . S
C840 C842 1.395 . S
C840 C843 1.403 . S
H841 C847 0.930 . S
C842 H828 0.930 . S
C842 C840 1.395 . S
C842 C845 1.403 . S
C843 C840 1.403 . S
C843 C844 1.524 . S
C843 C847 1.400 . S
C844 H829 0.960 . S
C844 H830 0.960 . S
C844 H831 0.960 1_655 S
C844 C843 1.524 . S
C845 C842 1.403 . S
C845 C846 1.392 . S
C845 C849 1.495 . S
C846 C845 1.392 . S
C846 C847 1.385 . S
C846 C848 1.478 . S
C847 H841 0.930 . S
C847 C843 1.400 . S
C847 C846 1.385 . S
C848 C846 1.478 . S
C848 C850 1.381 . S
C848 C854 1.383 . S
C849 C845 1.495 . S
C849 H855 0.959 . S
C849 H856 0.961 . S
C849 H857 0.960 . S
C850 C848 1.381 . S
C850 C851 1.394 . S
C850 H858 0.930 . S
C851 C850 1.394 . S
C851 C852 1.383 . S
C851 H859 0.929 . S
C852 C851 1.383 . S
C852 C853 1.377 . S
C853 H837 0.930 . S
C853 C852 1.377 . S
C853 C854 1.379 . S
C854 H838 0.931 . S
C854 C848 1.383 . S
C854 C853 1.379 . S
H855 C849 0.959 . S
H856 C849 0.961 . S
H857 C849 0.960 . S
H858 C850 0.930 . S
H859 C851 0.929 . S
H860 C868 0.929 . S
H861 C870 0.930 . S
H862 C872 0.930 . S
H863 C875 0.929 . S
H864 C878 0.930 . S
H865 C880 0.960 . S
H866 C880 0.960 . S
H867 C880 0.960 . S
C868 H860 0.929 . S
C868 C869 1.377 1_565 S
C868 C870 1.384 . S
C869 C868 1.377 1_545 S
C869 C875 1.390 . S
C870 H861 0.930 . S
C870 C868 1.384 . S
C870 C871 1.372 . S
C871 C870 1.372 . S
C871 C872 1.400 1_565 S
C871 C876 1.490 . S
C872 H862 0.930 . S
C872 C871 1.400 1_545 S
C872 C875 1.386 . S
H873 C889 0.930 . S
H874 C890 0.931 . S
C875 H863 0.929 . S
C875 C869 1.390 . S
C875 C872 1.386 . S
C876 C871 1.490 . S
C876 C878 1.395 . S
C876 C879 1.403 . S
H877 C883 0.930 . S
C878 H864 0.930 . S
C878 C876 1.395 . S
C878 C881 1.403 . S
C879 C876 1.403 . S
C879 C880 1.524 1_565 S
C879 C883 1.400 . S
C880 H865 0.960 . S
C880 H866 0.960 . S
C880 H867 0.960 . S
C880 C879 1.524 1_545 S
C881 C878 1.403 . S
C881 C882 1.392 . S
C881 C885 1.495 . S
C882 C881 1.392 . S
C882 C883 1.385 . S
C882 C884 1.478 . S
C883 H877 0.930 . S
C883 C879 1.400 . S
C883 C882 1.385 . S
C884 C882 1.478 . S
C884 C886 1.381 . S
C884 C890 1.383 . S
C885 C881 1.495 . S
C885 H891 0.959 . S
C885 H892 0.961 . S
C885 H893 0.960 . S
C886 C884 1.381 . S
C886 C887 1.394 . S
C886 H894 0.930 . S
C887 C886 1.394 . S
C887 C888 1.383 . S
C887 H895 0.929 . S
C888 C887 1.383 . S
C888 C889 1.377 . S
C889 H873 0.930 . S
C889 C888 1.377 . S
C889 C890 1.379 . S
C890 H874 0.931 . S
C890 C884 1.383 . S
C890 C889 1.379 . S
H891 C885 0.959 . S
H892 C885 0.961 . S
H893 C885 0.960 . S
H894 C886 0.930 . S
H895 C887 0.929 . S
H896 C904 0.929 . S
H897 C906 0.930 . S
H898 C908 0.930 . S
H899 C911 0.929 . S
H900 C914 0.930 1_655 S
H901 C916 0.960 . S
H902 C916 0.960 . S
H903 C916 0.960 . S
C904 H896 0.929 . S
C904 C905 1.377 . S
C904 C906 1.384 . S
C905 C904 1.377 . S
C905 C911 1.390 1_655 S
C906 H897 0.930 . S
C906 C904 1.384 . S
C906 C907 1.372 1_655 S
C907 C906 1.372 1_455 S
C907 C908 1.400 . S
C907 C912 1.490 . S
C908 H898 0.930 . S
C908 C907 1.400 . S
C908 C911 1.386 . S
H909 C925 0.930 . S
H910 C926 0.931 . S
C911 H899 0.929 . S
C911 C905 1.390 1_455 S
C911 C908 1.386 . S
C912 C907 1.490 . S
C912 C914 1.395 . S
C912 C915 1.403 . S
H913 C919 0.930 . S
C914 H900 0.930 1_455 S
C914 C912 1.395 . S
C914 C917 1.403 . S
C915 C912 1.403 . S
C915 C916 1.524 . S
C915 C919 1.400 . S
C916 H901 0.960 . S
C916 H902 0.960 . S
C916 H903 0.960 . S
C916 C915 1.524 . S
C917 C914 1.403 . S
C917 C918 1.392 . S
C917 C921 1.495 . S
C918 C917 1.392 . S
C918 C919 1.385 . S
C918 C920 1.478 . S
C919 H913 0.930 . S
C919 C915 1.400 . S
C919 C918 1.385 . S
C920 C918 1.478 . S
C920 C922 1.381 . S
C920 C926 1.383 . S
C921 C917 1.495 . S
C921 H927 0.959 1_455 S
C921 H928 0.961 . S
C921 H929 0.960 . S
C922 C920 1.381 . S
C922 C923 1.394 . S
C922 H930 0.930 . S
C923 C922 1.394 . S
C923 C924 1.383 . S
C923 H931 0.929 . S
C924 C923 1.383 . S
C924 C925 1.377 . S
C925 H909 0.930 . S
C925 C924 1.377 . S
C925 C926 1.379 . S
C926 H910 0.931 . S
C926 C920 1.383 . S
C926 C925 1.379 . S
H927 C921 0.959 1_655 S
H928 C921 0.961 . S
H929 C921 0.960 . S
H930 C922 0.930 . S
H931 C923 0.929 . S
H932 C940 0.929 . S
H933 C942 0.930 . S
H934 C944 0.930 . S
H935 C947 0.929 . S
H936 C950 0.930 . S
H937 C952 0.960 . S
H938 C952 0.960 . S
H939 C952 0.960 . S
C940 H932 0.929 . S
C940 C941 1.377 1_545 S
C940 C942 1.384 . S
C941 C940 1.377 1_565 S
C941 C947 1.390 . S
C942 H933 0.930 . S
C942 C940 1.384 . S
C942 C943 1.372 . S
C943 C942 1.372 . S
C943 C944 1.400 . S
C943 C948 1.490 . S
C944 H934 0.930 . S
C944 C943 1.400 . S
C944 C947 1.386 1_545 S
H945 C961 0.930 . S
H946 C962 0.931 . S
C947 H935 0.929 . S
C947 C941 1.390 . S
C947 C944 1.386 1_565 S
C948 C943 1.490 . S
C948 C950 1.395 . S
C948 C951 1.403 . S
H949 C955 0.930 . S
C950 H936 0.930 . S
C950 C948 1.395 . S
C950 C953 1.403 . S
C951 C948 1.403 . S
C951 C952 1.524 1_545 S
C951 C955 1.400 . S
C952 H937 0.960 . S
C952 H938 0.960 . S
C952 H939 0.960 . S
C952 C951 1.524 1_565 S
C953 C950 1.403 . S
C953 C954 1.392 . S
C953 C957 1.495 . S
C954 C953 1.392 . S
C954 C955 1.385 . S
C954 C956 1.478 . S
C955 H949 0.930 . S
C955 C951 1.400 . S
C955 C954 1.385 . S
C956 C954 1.478 . S
C956 C958 1.381 . S
C956 C962 1.383 . S
C957 C953 1.495 . S
C957 H963 0.959 . S
C957 H964 0.961 . S
C957 H965 0.960 . S
C958 C956 1.381 . S
C958 C959 1.394 . S
C958 H966 0.930 . S
C959 C958 1.394 . S
C959 C960 1.383 . S
C959 H967 0.929 . S
C960 C959 1.383 . S
C960 C961 1.377 . S
C961 H945 0.930 . S
C961 C960 1.377 . S
C961 C962 1.379 . S
C962 H946 0.931 . S
C962 C956 1.383 . S
C962 C961 1.379 . S
H963 C957 0.959 . S
H964 C957 0.961 . S
H965 C957 0.960 . S
H966 C958 0.930 . S
H967 C959 0.929 . S
H968 C976 0.929 . S
H969 C978 0.930 . S
H970 C980 0.930 . S
H971 C983 0.929 . S
H972 C986 0.930 . S
H973 C988 0.960 . S
H974 C988 0.960 . S
H975 C988 0.960 . S
C976 H968 0.929 . S
C976 C977 1.377 . S
C976 C978 1.384 . S
C977 C976 1.377 . S
C977 C983 1.390 . S
C978 H969 0.930 . S
C978 C976 1.384 . S
C978 C979 1.372 . S
C979 C978 1.372 . S
C979 C980 1.400 . S
C979 C984 1.490 . S
C980 H970 0.930 . S
C980 C979 1.400 . S
C980 C983 1.386 . S
H981 C997 0.930 . S
H982 C998 0.931 . S
C983 H971 0.929 . S
C983 C977 1.390 . S
C983 C980 1.386 . S
C984 C979 1.490 . S
C984 C986 1.395 . S
C984 C987 1.403 . S
H985 C991 0.930 . S
C986 H972 0.930 . S
C986 C984 1.395 . S
C986 C989 1.403 . S
C987 C984 1.403 . S
C987 C988 1.524 . S
C987 C991 1.400 . S
C988 H973 0.960 . S
C988 H974 0.960 . S
C988 H975 0.960 . S
C988 C987 1.524 . S
C989 C986 1.403 . S
C989 C990 1.392 . S
C989 C993 1.495 . S
C990 C989 1.392 . S
C990 C991 1.385 . S
C990 C992 1.478 . S
C991 H985 0.930 . S
C991 C987 1.400 . S
C991 C990 1.385 . S
C992 C990 1.478 . S
C992 C994 1.381 . S
C992 C998 1.383 . S
C993 C989 1.495 . S
C993 H999 0.959 . S
C993 H1000 0.961 . S
C993 H1001 0.960 . S
C994 C992 1.381 . S
C994 C995 1.394 . S
C994 H1002 0.930 . S
C995 C994 1.394 . S
C995 C996 1.383 . S
C995 H1003 0.929 . S
C996 C995 1.383 . S
C996 C997 1.377 . S
C997 H981 0.930 . S
C997 C996 1.377 . S
C997 C998 1.379 . S
C998 H982 0.931 . S
C998 C992 1.383 . S
C998 C997 1.379 . S
H999 C993 0.959 . S
H1000 C993 0.961 . S
H1001 C993 0.960 . S
H1002 C994 0.930 . S
H1003 C995 0.929 . S
H1004 C1012 0.929 . S
H1005 C1014 0.930 . S
H1006 C1016 0.930 . S
H1007 C1019 0.929 . S
H1008 C1022 0.930 . S
H1009 C1024 0.960 . S
H1010 C1024 0.960 . S
H1011 C1024 0.960 . S
C1012 H1004 0.929 . S
C1012 C1013 1.377 . S
C1012 C1014 1.384 . S
C1013 C1012 1.377 . S
C1013 C1019 1.390 . S
C1014 H1005 0.930 . S
C1014 C1012 1.384 . S
C1014 C1015 1.372 . S
C1015 C1014 1.372 . S
C1015 C1016 1.400 . S
C1015 C1020 1.490 . S
C1016 H1006 0.930 . S
C1016 C1015 1.400 . S
C1016 C1019 1.386 . S
H1017 C1033 0.930 . S
H1018 C1034 0.931 . S
C1019 H1007 0.929 . S
C1019 C1013 1.390 . S
C1019 C1016 1.386 . S
C1020 C1015 1.490 . S
C1020 C1022 1.395 . S
C1020 C1023 1.403 . S
H1021 C1027 0.930 . S
C1022 H1008 0.930 . S
C1022 C1020 1.395 . S
C1022 C1025 1.403 . S
C1023 C1020 1.403 . S
C1023 C1024 1.524 . S
C1023 C1027 1.400 . S
C1024 H1009 0.960 . S
C1024 H1010 0.960 . S
C1024 H1011 0.960 . S
C1024 C1023 1.524 . S
C1025 C1022 1.403 . S
C1025 C1026 1.392 . S
C1025 C1029 1.495 . S
C1026 C1025 1.392 . S
C1026 C1027 1.385 . S
C1026 C1028 1.478 . S
C1027 H1021 0.930 . S
C1027 C1023 1.400 . S
C1027 C1026 1.385 . S
C1028 C1026 1.478 . S
C1028 C1030 1.381 . S
C1028 C1034 1.383 . S
C1029 C1025 1.495 . S
C1029 H1035 0.959 . S
C1029 H1036 0.961 . S
C1029 H1037 0.960 . S
C1030 C1028 1.381 . S
C1030 C1031 1.394 . S
C1030 H1038 0.930 . S
C1031 C1030 1.394 . S
C1031 C1032 1.383 . S
C1031 H1039 0.929 . S
C1032 C1031 1.383 . S
C1032 C1033 1.377 . S
C1033 H1017 0.930 . S
C1033 C1032 1.377 . S
C1033 C1034 1.379 . S
C1034 H1018 0.931 . S
C1034 C1028 1.383 . S
C1034 C1033 1.379 . S
H1035 C1029 0.959 . S
H1036 C1029 0.961 . S
H1037 C1029 0.960 . S
H1038 C1030 0.930 . S
H1039 C1031 0.929 . S
H1040 C1048 0.929 . S
H1041 C1050 0.930 . S
H1042 C1052 0.930 . S
H1043 C1055 0.929 . S
H1044 C1058 0.930 . S
H1045 C1060 0.960 . S
H1046 C1060 0.960 . S
H1047 C1060 0.960 . S
C1048 H1040 0.929 . S
C1048 C1049 1.377 . S
C1048 C1050 1.384 . S
C1049 C1048 1.377 . S
C1049 C1055 1.390 . S
C1050 H1041 0.930 . S
C1050 C1048 1.384 . S
C1050 C1051 1.372 . S
C1051 C1050 1.372 . S
C1051 C1052 1.400 . S
C1051 C1056 1.490 . S
C1052 H1042 0.930 . S
C1052 C1051 1.400 . S
C1052 C1055 1.386 . S
H1053 C1069 0.930 . S
H1054 C1070 0.931 . S
C1055 H1043 0.929 . S
C1055 C1049 1.390 . S
C1055 C1052 1.386 . S
C1056 C1051 1.490 . S
C1056 C1058 1.395 . S
C1056 C1059 1.403 . S
H1057 C1063 0.930 . S
C1058 H1044 0.930 . S
C1058 C1056 1.395 . S
C1058 C1061 1.403 . S
C1059 C1056 1.403 . S
C1059 C1060 1.524 . S
C1059 C1063 1.400 . S
C1060 H1045 0.960 . S
C1060 H1046 0.960 . S
C1060 H1047 0.960 . S
C1060 C1059 1.524 . S
C1061 C1058 1.403 . S
C1061 C1062 1.392 . S
C1061 C1065 1.495 . S
C1062 C1061 1.392 . S
C1062 C1063 1.385 . S
C1062 C1064 1.478 . S
C1063 H1057 0.930 . S
C1063 C1059 1.400 . S
C1063 C1062 1.385 . S
C1064 C1062 1.478 . S
C1064 C1066 1.381 . S
C1064 C1070 1.383 . S
C1065 C1061 1.495 . S
C1065 H1071 0.959 . S
C1065 H1072 0.961 . S
C1065 H1073 0.960 . S
C1066 C1064 1.381 . S
C1066 C1067 1.394 . S
C1066 H1074 0.930 . S
C1067 C1066 1.394 . S
C1067 C1068 1.383 . S
C1067 H1075 0.929 . S
C1068 C1067 1.383 . S
C1068 C1069 1.377 . S
C1069 H1053 0.930 . S
C1069 C1068 1.377 . S
C1069 C1070 1.379 . S
C1070 H1054 0.931 . S
C1070 C1064 1.383 . S
C1070 C1069 1.379 . S
H1071 C1065 0.959 . S
H1072 C1065 0.961 . S
H1073 C1065 0.960 . S
H1074 C1066 0.930 . S
H1075 C1067 0.929 . S
H1076 C1084 0.929 . S
H1077 C1086 0.930 . S
H1078 C1088 0.930 . S
H1079 C1091 0.929 . S
H1080 C1094 0.930 . S
H1081 C1096 0.960 . S
H1082 C1096 0.960 . S
H1083 C1096 0.960 . S
C1084 H1076 0.929 . S
C1084 C1085 1.377 . S
C1084 C1086 1.384 . S
C1085 C1084 1.377 . S
C1085 C1091 1.390 . S
C1086 H1077 0.930 . S
C1086 C1084 1.384 . S
C1086 C1087 1.372 . S
C1087 C1086 1.372 . S
C1087 C1088 1.400 . S
C1087 C1092 1.490 . S
C1088 H1078 0.930 . S
C1088 C1087 1.400 . S
C1088 C1091 1.386 . S
H1089 C1105 0.930 . S
H1090 C1106 0.931 . S
C1091 H1079 0.929 . S
C1091 C1085 1.390 . S
C1091 C1088 1.386 . S
C1092 C1087 1.490 . S
C1092 C1094 1.395 . S
C1092 C1095 1.403 . S
H1093 C1099 0.930 . S
C1094 H1080 0.930 . S
C1094 C1092 1.395 . S
C1094 C1097 1.403 . S
C1095 C1092 1.403 . S
C1095 C1096 1.524 . S
C1095 C1099 1.400 . S
C1096 H1081 0.960 . S
C1096 H1082 0.960 . S
C1096 H1083 0.960 . S
C1096 C1095 1.524 . S
C1097 C1094 1.403 . S
C1097 C1098 1.392 . S
C1097 C1101 1.495 . S
C1098 C1097 1.392 . S
C1098 C1099 1.385 . S
C1098 C1100 1.478 . S
C1099 H1093 0.930 . S
C1099 C1095 1.400 . S
C1099 C1098 1.385 . S
C1100 C1098 1.478 . S
C1100 C1102 1.381 . S
C1100 C1106 1.383 . S
C1101 C1097 1.495 . S
C1101 H1107 0.959 . S
C1101 H1108 0.961 . S
C1101 H1109 0.960 . S
C1102 C1100 1.381 . S
C1102 C1103 1.394 . S
C1102 H1110 0.930 . S
C1103 C1102 1.394 . S
C1103 C1104 1.383 . S
C1103 H1111 0.929 . S
C1104 C1103 1.383 . S
C1104 C1105 1.377 . S
C1105 H1089 0.930 . S
C1105 C1104 1.377 . S
C1105 C1106 1.379 . S
C1106 H1090 0.931 . S
C1106 C1100 1.383 . S
C1106 C1105 1.379 . S
H1107 C1101 0.959 . S
H1108 C1101 0.961 . S
H1109 C1101 0.960 . S
H1110 C1102 0.930 . S
H1111 C1103 0.929 . S
H1112 C1120 0.929 . S
H1113 C1122 0.930 . S
H1114 C1124 0.930 . S
H1115 C1127 0.929 . S
H1116 C1130 0.930 . S
H1117 C1132 0.960 . S
H1118 C1132 0.960 . S
H1119 C1132 0.960 . S
C1120 H1112 0.929 . S
C1120 C1121 1.377 . S
C1120 C1122 1.384 . S
C1121 C1120 1.377 . S
C1121 C1127 1.390 1_655 S
C1122 H1113 0.930 . S
C1122 C1120 1.384 . S
C1122 C1123 1.372 1_655 S
C1123 C1122 1.372 1_455 S
C1123 C1124 1.400 . S
C1123 C1128 1.490 . S
C1124 H1114 0.930 . S
C1124 C1123 1.400 . S
C1124 C1127 1.386 . S
H1125 C1141 0.930 . S
H1126 C1142 0.931 . S
C1127 H1115 0.929 . S
C1127 C1121 1.390 1_455 S
C1127 C1124 1.386 . S
C1128 C1123 1.490 . S
C1128 C1130 1.395 . S
C1128 C1131 1.403 . S
H1129 C1135 0.930 . S
C1130 H1116 0.930 . S
C1130 C1128 1.395 . S
C1130 C1133 1.403 . S
C1131 C1128 1.403 . S
C1131 C1132 1.524 . S
C1131 C1135 1.400 . S
C1132 H1117 0.960 . S
C1132 H1118 0.960 . S
C1132 H1119 0.960 . S
C1132 C1131 1.524 . S
C1133 C1130 1.403 . S
C1133 C1134 1.392 . S
C1133 C1137 1.495 . S
C1134 C1133 1.392 . S
C1134 C1135 1.385 . S
C1134 C1136 1.478 . S
C1135 H1129 0.930 . S
C1135 C1131 1.400 . S
C1135 C1134 1.385 . S
C1136 C1134 1.478 . S
C1136 C1138 1.381 . S
C1136 C1142 1.383 . S
C1137 C1133 1.495 . S
C1137 H1143 0.959 . S
C1137 H1144 0.961 . S
C1137 H1145 0.960 . S
C1138 C1136 1.381 . S
C1138 C1139 1.394 . S
C1138 H1146 0.930 . S
C1139 C1138 1.394 . S
C1139 C1140 1.383 . S
C1139 H1147 0.929 . S
C1140 C1139 1.383 . S
C1140 C1141 1.377 . S
C1141 H1125 0.930 . S
C1141 C1140 1.377 . S
C1141 C1142 1.379 . S
C1142 H1126 0.931 . S
C1142 C1136 1.383 . S
C1142 C1141 1.379 . S
H1143 C1137 0.959 . S
H1144 C1137 0.961 . S
H1145 C1137 0.960 . S
H1146 C1138 0.930 . S
H1147 C1139 0.929 . S
H1148 C1156 0.929 1_565 S
H1149 C1158 0.930 . S
H1150 C1160 0.930 . S
H1151 C1163 0.929 . S
H1152 C1166 0.930 . S
H1153 C1168 0.960 . S
H1154 C1168 0.960 . S
H1155 C1168 0.960 . S
C1156 H1148 0.929 1_545 S
C1156 C1157 1.377 1_545 S
C1156 C1158 1.384 . S
C1157 C1156 1.377 1_565 S
C1157 C1163 1.390 . S
C1158 H1149 0.930 . S
C1158 C1156 1.384 . S
C1158 C1159 1.372 . S
C1159 C1158 1.372 . S
C1159 C1160 1.400 . S
C1159 C1164 1.490 . S
C1160 H1150 0.930 . S
C1160 C1159 1.400 . S
C1160 C1163 1.386 1_545 S
H1161 C1177 0.930 . S
H1162 C1178 0.931 . S
C1163 H1151 0.929 . S
C1163 C1157 1.390 . S
C1163 C1160 1.386 1_565 S
C1164 C1159 1.490 . S
C1164 C1166 1.395 . S
C1164 C1167 1.403 . S
H1165 C1171 0.930 . S
C1166 H1152 0.930 . S
C1166 C1164 1.395 . S
C1166 C1169 1.403 . S
C1167 C1164 1.403 . S
C1167 C1168 1.524 1_545 S
C1167 C1171 1.400 . S
C1168 H1153 0.960 . S
C1168 H1154 0.960 . S
C1168 H1155 0.960 . S
C1168 C1167 1.524 1_565 S
C1169 C1166 1.403 . S
C1169 C1170 1.392 . S
C1169 C1173 1.495 . S
C1170 C1169 1.392 . S
C1170 C1171 1.385 . S
C1170 C1172 1.478 . S
C1171 H1165 0.930 . S
C1171 C1167 1.400 . S
C1171 C1170 1.385 . S
C1172 C1170 1.478 . S
C1172 C1174 1.381 . S
C1172 C1178 1.383 . S
C1173 C1169 1.495 . S
C1173 H1179 0.959 . S
C1173 H1180 0.961 . S
C1173 H1181 0.960 . S
C1174 C1172 1.381 . S
C1174 C1175 1.394 . S
C1174 H1182 0.930 . S
C1175 C1174 1.394 . S
C1175 C1176 1.383 . S
C1175 H1183 0.929 . S
C1176 C1175 1.383 . S
C1176 C1177 1.377 . S
C1177 H1161 0.930 . S
C1177 C1176 1.377 . S
C1177 C1178 1.379 . S
C1178 H1162 0.931 . S
C1178 C1172 1.383 . S
C1178 C1177 1.379 . S
H1179 C1173 0.959 . S
H1180 C1173 0.961 . S
H1181 C1173 0.960 . S
H1182 C1174 0.930 . S
H1183 C1175 0.929 . S
H1184 C1192 0.936 . S
H1185 C1194 0.930 . S
H1186 C1196 0.930 . S
H1187 C1199 0.929 . S
H1188 C1202 0.930 . S
H1189 C1204 0.960 . S
H1190 C1204 0.960 . S
H1191 C1204 0.960 . S
C1192 H1184 0.936 . S
C1192 C1193 1.387 . S
C1192 C1194 1.369 1_455 S
C1193 C1192 1.387 . S
C1193 C1199 1.390 . S
C1194 H1185 0.930 . S
C1194 C1192 1.369 1_655 S
C1194 C1195 1.372 . S
C1195 C1194 1.372 . S
C1195 C1196 1.400 . S
C1195 C1200 1.490 . S
C1196 H1186 0.930 . S
C1196 C1195 1.400 . S
C1196 C1199 1.386 1_655 S
H1197 C1213 0.930 . S
H1198 C1214 0.931 . S
C1199 H1187 0.929 . S
C1199 C1193 1.390 . S
C1199 C1196 1.386 1_455 S
C1200 C1195 1.490 . S
C1200 C1202 1.395 . S
C1200 C1203 1.403 . S
H1201 C1207 0.930 . S
C1202 H1188 0.930 . S
C1202 C1200 1.395 . S
C1202 C1205 1.403 . S
C1203 C1200 1.403 . S
C1203 C1204 1.524 1_655 S
C1203 C1207 1.400 . S
C1204 H1189 0.960 . S
C1204 H1190 0.960 . S
C1204 H1191 0.960 . S
C1204 C1203 1.524 1_455 S
C1205 C1202 1.403 . S
C1205 C1206 1.392 . S
C1205 C1209 1.495 . S
C1206 C1205 1.392 . S
C1206 C1207 1.385 . S
C1206 C1208 1.478 . S
C1207 H1201 0.930 . S
C1207 C1203 1.400 . S
C1207 C1206 1.385 . S
C1208 C1206 1.478 . S
C1208 C1210 1.381 . S
C1208 C1214 1.383 . S
C1209 C1205 1.495 . S
C1209 H1215 0.959 . S
C1209 H1216 0.961 . S
C1209 H1217 0.960 . S
C1210 C1208 1.381 . S
C1210 C1211 1.394 . S
C1210 H1218 0.930 . S
C1211 C1210 1.394 . S
C1211 C1212 1.383 . S
C1211 H1219 0.929 . S
C1212 C1211 1.383 . S
C1212 C1213 1.377 . S
C1213 H1197 0.930 . S
C1213 C1212 1.377 . S
C1213 C1214 1.379 . S
C1214 H1198 0.931 . S
C1214 C1208 1.383 . S
C1214 C1213 1.379 . S
H1215 C1209 0.959 . S
H1216 C1209 0.961 . S
H1217 C1209 0.960 . S
H1218 C1210 0.930 . S
H1219 C1211 0.929 . S
H1220 C1228 0.929 . S
H1221 C1230 0.930 . S
H1222 C1232 0.930 . S
H1223 C1235 0.929 . S
H1224 C1238 0.900 1_545 S
H1225 C1240 0.960 . S
H1226 C1240 0.960 . S
H1227 C1240 0.960 . S
C1228 H1220 0.929 . S
C1228 C1229 1.377 . S
C1228 C1230 1.384 . S
C1229 C1228 1.377 . S
C1229 C1235 1.390 1_545 S
C1230 H1221 0.930 . S
C1230 C1228 1.384 . S
C1230 C1231 1.372 1_545 S
C1231 C1230 1.372 1_565 S
C1231 C1232 1.400 . S
C1231 C1236 1.490 . S
C1232 H1222 0.930 . S
C1232 C1231 1.400 . S
C1232 C1235 1.386 . S
H1233 C1249 0.930 . S
H1234 C1250 0.931 . S
C1235 H1223 0.929 . S
C1235 C1229 1.390 1_565 S
C1235 C1232 1.386 . S
C1236 C1231 1.490 . S
C1236 C1238 1.395 . S
C1236 C1239 1.403 . S
H1237 C1243 0.930 . S
C1238 H1224 0.900 1_565 S
C1238 C1236 1.395 . S
C1238 C1241 1.403 . S
C1239 C1236 1.403 . S
C1239 C1240 1.524 . S
C1239 C1243 1.400 . S
C1240 H1225 0.960 . S
C1240 H1226 0.960 . S
C1240 H1227 0.960 . S
C1240 C1239 1.524 . S
C1241 C1238 1.403 . S
C1241 C1242 1.392 . S
C1241 C1245 1.495 . S
C1242 C1241 1.392 . S
C1242 C1243 1.385 . S
C1242 C1244 1.478 . S
C1243 H1237 0.930 . S
C1243 C1239 1.400 . S
C1243 C1242 1.385 . S
C1244 C1242 1.478 . S
C1244 C1246 1.381 . S
C1244 C1250 1.383 . S
C1245 C1241 1.495 . S
C1245 H1251 0.959 1_565 S
C1245 H1252 0.961 . S
C1245 H1253 0.960 . S
C1246 C1244 1.381 . S
C1246 C1247 1.394 . S
C1246 H1254 0.930 . S
C1247 C1246 1.394 . S
C1247 C1248 1.383 . S
C1247 H1255 0.929 . S
C1248 C1247 1.383 . S
C1248 C1249 1.377 . S
C1249 H1233 0.930 . S
C1249 C1248 1.377 . S
C1249 C1250 1.379 . S
C1250 H1234 0.931 . S
C1250 C1244 1.383 . S
C1250 C1249 1.379 . S
H1251 C1245 0.959 1_545 S
H1252 C1245 0.961 . S
H1253 C1245 0.960 . S
H1254 C1246 0.930 . S
H1255 C1247 0.929 . S
H1256 C1264 0.929 . S
H1257 C1266 0.930 . S
H1258 C1268 0.930 . S
H1259 C1271 0.929 . S
H1260 C1274 0.930 . S
H1261 C1276 0.960 . S
H1262 C1276 0.960 . S
H1263 C1276 0.960 . S
C1264 H1256 0.929 . S
C1264 C1265 1.377 . S
C1264 C1266 1.384 . S
C1265 C1264 1.377 . S
C1265 C1271 1.390 . S
C1266 H1257 0.930 . S
C1266 C1264 1.384 . S
C1266 C1267 1.372 . S
C1267 C1266 1.372 . S
C1267 C1268 1.400 . S
C1267 C1272 1.490 . S
C1268 H1258 0.930 . S
C1268 C1267 1.400 . S
C1268 C1271 1.386 . S
H1269 C1285 0.930 . S
H1270 C1286 0.931 . S
C1271 H1259 0.929 . S
C1271 C1265 1.390 . S
C1271 C1268 1.386 . S
C1272 C1267 1.490 . S
C1272 C1274 1.395 . S
C1272 C1275 1.403 . S
H1273 C1279 0.930 . S
C1274 H1260 0.930 . S
C1274 C1272 1.395 . S
C1274 C1277 1.403 . S
C1275 C1272 1.403 . S
C1275 C1276 1.524 . S
C1275 C1279 1.400 . S
C1276 H1261 0.960 . S
C1276 H1262 0.960 . S
C1276 H1263 0.960 . S
C1276 C1275 1.524 . S
C1277 C1274 1.403 . S
C1277 C1278 1.392 . S
C1277 C1281 1.495 . S
C1278 C1277 1.392 . S
C1278 C1279 1.385 . S
C1278 C1280 1.478 . S
C1279 H1273 0.930 . S
C1279 C1275 1.400 . S
C1279 C1278 1.385 . S
C1280 C1278 1.478 . S
C1280 C1282 1.381 . S
C1280 C1286 1.383 . S
C1281 C1277 1.495 . S
C1281 H1287 0.959 . S
C1281 H1288 0.961 . S
C1281 H1289 0.960 . S
C1282 C1280 1.381 . S
C1282 C1283 1.394 . S
C1282 H1290 0.930 . S
C1283 C1282 1.394 . S
C1283 C1284 1.383 . S
C1283 H1291 0.929 . S
C1284 C1283 1.383 . S
C1284 C1285 1.377 . S
C1285 H1269 0.930 . S
C1285 C1284 1.377 . S
C1285 C1286 1.379 . S
C1286 H1270 0.931 . S
C1286 C1280 1.383 . S
C1286 C1285 1.379 . S
H1287 C1281 0.959 . S
H1288 C1281 0.961 . S
H1289 C1281 0.960 . S
H1290 C1282 0.930 . S
H1291 C1283 0.929 . S
H1292 C1300 0.929 . S
H1293 C1302 0.930 . S
H1294 C1304 0.930 . S
H1295 C1307 0.929 . S
H1296 C1310 0.930 . S
H1297 C1312 0.960 . S
H1298 C1312 0.960 . S
H1299 C1312 0.960 . S
C1300 H1292 0.929 . S
C1300 C1301 1.377 . S
C1300 C1302 1.384 . S
C1301 C1300 1.377 . S
C1301 C1307 1.390 . S
C1302 H1293 0.930 . S
C1302 C1300 1.384 . S
C1302 C1303 1.372 . S
C1303 C1302 1.372 . S
C1303 C1304 1.400 . S
C1303 C1308 1.490 . S
C1304 H1294 0.930 . S
C1304 C1303 1.400 . S
C1304 C1307 1.386 . S
H1305 C1321 0.930 . S
H1306 C1322 0.931 . S
C1307 H1295 0.929 . S
C1307 C1301 1.390 . S
C1307 C1304 1.386 . S
C1308 C1303 1.490 . S
C1308 C1310 1.395 . S
C1308 C1311 1.403 . S
H1309 C1315 0.930 . S
C1310 H1296 0.930 . S
C1310 C1308 1.395 . S
C1310 C1313 1.403 . S
C1311 C1308 1.403 . S
C1311 C1312 1.524 . S
C1311 C1315 1.400 . S
C1312 H1297 0.960 . S
C1312 H1298 0.960 . S
C1312 H1299 0.960 . S
C1312 C1311 1.524 . S
C1313 C1310 1.403 . S
C1313 C1314 1.392 . S
C1313 C1317 1.495 . S
C1314 C1313 1.392 . S
C1314 C1315 1.385 . S
C1314 C1316 1.478 . S
C1315 H1309 0.930 . S
C1315 C1311 1.400 . S
C1315 C1314 1.385 . S
C1316 C1314 1.478 . S
C1316 C1318 1.381 . S
C1316 C1322 1.383 . S
C1317 C1313 1.495 . S
C1317 H1323 0.959 . S
C1317 H1324 0.961 . S
C1317 H1325 0.960 . S
C1318 C1316 1.381 . S
C1318 C1319 1.394 . S
C1318 H1326 0.930 . S
C1319 C1318 1.394 . S
C1319 C1320 1.383 . S
C1319 H1327 0.929 . S
C1320 C1319 1.383 . S
C1320 C1321 1.377 . S
C1321 H1305 0.930 . S
C1321 C1320 1.377 . S
C1321 C1322 1.379 . S
C1322 H1306 0.931 . S
C1322 C1316 1.383 . S
C1322 C1321 1.379 . S
H1323 C1317 0.959 . S
H1324 C1317 0.961 . S
H1325 C1317 0.960 . S
H1326 C1318 0.930 . S
H1327 C1319 0.929 . S
H1328 C1336 0.929 . S
H1329 C1338 0.930 . S
H1330 C1340 0.930 . S
H1331 C1343 0.929 . S
H1332 C1346 0.930 . S
H1333 C1348 0.960 . S
H1334 C1348 0.960 . S
H1335 C1348 0.960 . S
C1336 H1328 0.929 . S
C1336 C1337 1.377 . S
C1336 C1338 1.384 . S
C1337 C1336 1.377 . S
C1337 C1343 1.390 . S
C1338 H1329 0.930 . S
C1338 C1336 1.384 . S
C1338 C1339 1.372 . S
C1339 C1338 1.372 . S
C1339 C1340 1.400 . S
C1339 C1344 1.490 . S
C1340 H1330 0.930 . S
C1340 C1339 1.400 . S
C1340 C1343 1.386 . S
H1341 C1357 0.930 . S
H1342 C1358 0.931 . S
C1343 H1331 0.929 . S
C1343 C1337 1.390 . S
C1343 C1340 1.386 . S
C1344 C1339 1.490 . S
C1344 C1346 1.395 1_556 S
C1344 C1347 1.403 . S
H1345 C1351 0.930 . S
C1346 H1332 0.930 . S
C1346 C1344 1.395 1_554 S
C1346 C1349 1.403 . S
C1347 C1344 1.403 . S
C1347 C1348 1.524 . S
C1347 C1351 1.400 . S
C1348 H1333 0.960 . S
C1348 H1334 0.960 . S
C1348 H1335 0.960 . S
C1348 C1347 1.524 . S
C1349 C1346 1.403 . S
C1349 C1350 1.392 . S
C1349 C1353 1.495 . S
C1350 C1349 1.392 . S
C1350 C1351 1.385 1_554 S
C1350 C1352 1.478 . S
C1351 H1345 0.930 . S
C1351 C1347 1.400 . S
C1351 C1350 1.385 1_556 S
C1352 C1350 1.478 . S
C1352 C1354 1.381 . S
C1352 C1358 1.383 . S
C1353 C1349 1.495 . S
C1353 H1359 0.959 . S
C1353 H1360 0.961 . S
C1353 H1361 0.960 . S
C1354 C1352 1.381 . S
C1354 C1355 1.394 . S
C1354 H1362 0.930 . S
C1355 C1354 1.394 . S
C1355 C1356 1.383 . S
C1355 H1363 0.929 . S
C1356 C1355 1.383 . S
C1356 C1357 1.377 . S
C1357 H1341 0.930 . S
C1357 C1356 1.377 . S
C1357 C1358 1.379 . S
C1358 H1342 0.931 . S
C1358 C1352 1.383 . S
C1358 C1357 1.379 . S
H1359 C1353 0.959 . S
H1360 C1353 0.961 . S
H1361 C1353 0.960 . S
H1362 C1354 0.930 . S
H1363 C1355 0.929 . S
H1364 C1372 0.929 . S
H1365 C1374 0.930 . S
H1366 C1376 0.930 . S
H1367 C1379 0.929 . S
H1368 C1382 0.930 . S
H1369 C1384 0.960 . S
H1370 C1384 0.960 . S
H1371 C1384 0.960 . S
C1372 H1364 0.929 . S
C1372 C1373 1.377 . S
C1372 C1374 1.384 . S
C1373 C1372 1.377 . S
C1373 C1379 1.390 . S
C1374 H1365 0.930 . S
C1374 C1372 1.384 . S
C1374 C1375 1.372 . S
C1375 C1374 1.372 . S
C1375 C1376 1.400 . S
C1375 C1380 1.490 . S
C1376 H1366 0.930 . S
C1376 C1375 1.400 . S
C1376 C1379 1.386 . S
H1377 C1393 0.930 . S
H1378 C1394 0.931 . S
C1379 H1367 0.929 . S
C1379 C1373 1.390 . S
C1379 C1376 1.386 . S
C1380 C1375 1.490 . S
C1380 C1382 1.395 1_556 S
C1380 C1383 1.403 . S
H1381 C1387 0.930 . S
C1382 H1368 0.930 . S
C1382 C1380 1.395 1_554 S
C1382 C1385 1.403 . S
C1383 C1380 1.403 . S
C1383 C1384 1.524 . S
C1383 C1387 1.400 . S
C1384 H1369 0.960 . S
C1384 H1370 0.960 . S
C1384 H1371 0.960 . S
C1384 C1383 1.524 . S
C1385 C1382 1.403 . S
C1385 C1386 1.392 . S
C1385 C1389 1.495 . S
C1386 C1385 1.392 . S
C1386 C1387 1.385 1_554 S
C1386 C1388 1.478 . S
C1387 H1381 0.930 . S
C1387 C1383 1.400 . S
C1387 C1386 1.385 1_556 S
C1388 C1386 1.478 . S
C1388 C1390 1.381 . S
C1388 C1394 1.383 . S
C1389 C1385 1.495 . S
C1389 H1395 0.959 . S
C1389 H1396 0.961 . S
C1389 H1397 0.960 . S
C1390 C1388 1.381 . S
C1390 C1391 1.394 . S
C1390 H1398 0.930 . S
C1391 C1390 1.394 . S
C1391 C1392 1.383 . S
C1391 H1399 0.929 . S
C1392 C1391 1.383 . S
C1392 C1393 1.377 . S
C1393 H1377 0.930 . S
C1393 C1392 1.377 . S
C1393 C1394 1.379 . S
C1394 H1378 0.931 . S
C1394 C1388 1.383 . S
C1394 C1393 1.379 . S
H1395 C1389 0.959 . S
H1396 C1389 0.961 . S
H1397 C1389 0.960 . S
H1398 C1390 0.930 . S
H1399 C1391 0.929 . S
H1400 C1408 0.929 . S
H1401 C1410 0.930 . S
H1402 C1412 0.930 . S
H1403 C1415 0.929 . S
H1404 C1418 0.930 . S
H1405 C1420 0.960 . S
H1406 C1420 0.960 . S
H1407 C1420 0.960 . S
C1408 H1400 0.929 . S
C1408 C1409 1.377 . S
C1408 C1410 1.384 . S
C1409 C1408 1.377 . S
C1409 C1415 1.390 . S
C1410 H1401 0.930 . S
C1410 C1408 1.384 . S
C1410 C1411 1.372 . S
C1411 C1410 1.372 . S
C1411 C1412 1.400 . S
C1411 C1416 1.490 . S
C1412 H1402 0.930 . S
C1412 C1411 1.400 . S
C1412 C1415 1.386 . S
H1413 C1429 0.930 . S
H1414 C1430 0.931 . S
C1415 H1403 0.929 . S
C1415 C1409 1.390 . S
C1415 C1412 1.386 . S
C1416 C1411 1.490 . S
C1416 C1418 1.395 . S
C1416 C1419 1.403 1_556 S
H1417 C1423 0.930 . S
C1418 H1404 0.930 . S
C1418 C1416 1.395 . S
C1418 C1421 1.403 . S
C1419 C1416 1.403 1_554 S
C1419 C1420 1.524 . S
C1419 C1423 1.400 . S
C1420 H1405 0.960 . S
C1420 H1406 0.960 . S
C1420 H1407 0.960 . S
C1420 C1419 1.524 . S
C1421 C1418 1.403 . S
C1421 C1422 1.392 1_556 S
C1421 C1425 1.495 . S
C1422 C1421 1.392 1_554 S
C1422 C1423 1.385 . S
C1422 C1424 1.478 . S
C1423 H1417 0.930 . S
C1423 C1419 1.400 . S
C1423 C1422 1.385 . S
C1424 C1422 1.478 . S
C1424 C1426 1.381 . S
C1424 C1430 1.383 . S
C1425 C1421 1.495 . S
C1425 H1431 0.959 . S
C1425 H1432 0.961 . S
C1425 H1433 0.960 . S
C1426 C1424 1.381 . S
C1426 C1427 1.394 . S
C1426 H1434 0.930 . S
C1427 C1426 1.394 . S
C1427 C1428 1.383 . S
C1427 H1435 0.929 . S
C1428 C1427 1.383 . S
C1428 C1429 1.377 . S
C1429 H1413 0.930 . S
C1429 C1428 1.377 . S
C1429 C1430 1.379 . S
C1430 H1414 0.931 . S
C1430 C1424 1.383 . S
C1430 C1429 1.379 . S
H1431 C1425 0.959 . S
H1432 C1425 0.961 . S
H1433 C1425 0.960 . S
H1434 C1426 0.930 . S
H1435 C1427 0.929 . S
H1436 C1444 0.929 . S
H1437 C1446 0.930 . S
H1438 C1448 0.930 . S
H1439 C1451 0.929 . S
H1440 C1454 0.930 . S
H1441 C1456 0.960 . S
H1442 C1456 0.960 . S
H1443 C1456 0.960 . S
C1444 H1436 0.929 . S
C1444 C1445 1.377 . S
C1444 C1446 1.384 . S
C1445 C1444 1.377 . S
C1445 C1451 1.390 . S
C1446 H1437 0.930 . S
C1446 C1444 1.384 . S
C1446 C1447 1.372 . S
C1447 C1446 1.372 . S
C1447 C1448 1.400 . S
C1447 C1452 1.490 . S
C1448 H1438 0.930 . S
C1448 C1447 1.400 . S
C1448 C1451 1.386 . S
H1449 C1465 0.930 . S
H1450 C1466 0.931 . S
C1451 H1439 0.929 . S
C1451 C1445 1.390 . S
C1451 C1448 1.386 . S
C1452 C1447 1.490 . S
C1452 C1454 1.395 . S
C1452 C1455 1.403 1_556 S
H1453 C1459 0.930 . S
C1454 H1440 0.930 . S
C1454 C1452 1.395 . S
C1454 C1457 1.403 . S
C1455 C1452 1.403 1_554 S
C1455 C1456 1.524 . S
C1455 C1459 1.400 . S
C1456 H1441 0.960 . S
C1456 H1442 0.960 . S
C1456 H1443 0.960 . S
C1456 C1455 1.524 . S
C1457 C1454 1.403 . S
C1457 C1458 1.392 1_556 S
C1457 C1461 1.495 . S
C1458 C1457 1.392 1_554 S
C1458 C1459 1.385 . S
C1458 C1460 1.478 . S
C1459 H1453 0.930 . S
C1459 C1455 1.400 . S
C1459 C1458 1.385 . S
C1460 C1458 1.478 . S
C1460 C1462 1.381 . S
C1460 C1466 1.383 . S
C1461 C1457 1.495 . S
C1461 H1467 0.959 . S
C1461 H1468 0.961 . S
C1461 H1469 0.960 . S
C1462 C1460 1.381 . S
C1462 C1463 1.394 . S
C1462 H1470 0.930 . S
C1463 C1462 1.394 . S
C1463 C1464 1.383 . S
C1463 H1471 0.929 . S
C1464 C1463 1.383 . S
C1464 C1465 1.377 . S
C1465 H1449 0.930 . S
C1465 C1464 1.377 . S
C1465 C1466 1.379 . S
C1466 H1450 0.931 . S
C1466 C1460 1.383 . S
C1466 C1465 1.379 . S
H1467 C1461 0.959 . S
H1468 C1461 0.961 . S
H1469 C1461 0.960 . S
H1470 C1462 0.930 . S
H1471 C1463 0.929 . S
H1472 C1480 0.929 . S
H1473 C1482 0.930 . S
H1474 C1484 0.930 . S
H1475 C1487 0.929 . S
H1476 C1490 0.930 . S
H1477 C1492 0.960 . S
H1478 C1492 0.960 . S
H1479 C1492 0.960 . S
C1480 H1472 0.929 . S
C1480 C1481 1.377 . S
C1480 C1482 1.384 . S
C1481 C1480 1.377 . S
C1481 C1487 1.390 . S
C1482 H1473 0.930 . S
C1482 C1480 1.384 . S
C1482 C1483 1.372 . S
C1483 C1482 1.372 . S
C1483 C1484 1.400 . S
C1483 C1488 1.490 . S
C1484 H1474 0.930 . S
C1484 C1483 1.400 . S
C1484 C1487 1.386 . S
H1485 C1501 0.930 . S
H1486 C1502 0.931 . S
C1487 H1475 0.929 . S
C1487 C1481 1.390 . S
C1487 C1484 1.386 . S
C1488 C1483 1.490 . S
C1488 C1490 1.395 . S
C1488 C1491 1.403 . S
H1489 C1495 0.930 . S
C1490 H1476 0.930 . S
C1490 C1488 1.395 . S
C1490 C1493 1.403 . S
C1491 C1488 1.403 . S
C1491 C1492 1.524 . S
C1491 C1495 1.400 . S
C1492 H1477 0.960 . S
C1492 H1478 0.960 . S
C1492 H1479 0.960 . S
C1492 C1491 1.524 . S
C1493 C1490 1.403 . S
C1493 C1494 1.392 . S
C1493 C1497 1.495 . S
C1494 C1493 1.392 . S
C1494 C1495 1.385 . S
C1494 C1496 1.478 . S
C1495 H1489 0.930 . S
C1495 C1491 1.400 . S
C1495 C1494 1.385 . S
C1496 C1494 1.478 . S
C1496 C1498 1.381 . S
C1496 C1502 1.383 . S
C1497 C1493 1.495 . S
C1497 H1503 0.959 . S
C1497 H1504 0.961 . S
C1497 H1505 0.960 . S
C1498 C1496 1.381 . S
C1498 C1499 1.394 . S
C1498 H1506 0.930 . S
C1499 C1498 1.394 . S
C1499 C1500 1.383 . S
C1499 H1507 0.929 . S
C1500 C1499 1.383 . S
C1500 C1501 1.377 . S
C1501 H1485 0.930 . S
C1501 C1500 1.377 . S
C1501 C1502 1.379 . S
C1502 H1486 0.931 . S
C1502 C1496 1.383 . S
C1502 C1501 1.379 . S
H1503 C1497 0.959 . S
H1504 C1497 0.961 . S
H1505 C1497 0.960 . S
H1506 C1498 0.930 . S
H1507 C1499 0.929 . S
H1508 C1516 0.929 . S
H1509 C1518 0.930 . S
H1510 C1520 0.930 . S
H1511 C1523 0.929 . S
H1512 C1526 0.930 . S
H1513 C1528 0.960 . S
H1514 C1528 0.960 . S
H1515 C1528 0.960 . S
C1516 H1508 0.929 . S
C1516 C1517 1.377 . S
C1516 C1518 1.384 . S
C1517 C1516 1.377 . S
C1517 C1523 1.390 . S
C1518 H1509 0.930 . S
C1518 C1516 1.384 . S
C1518 C1519 1.372 . S
C1519 C1518 1.372 . S
C1519 C1520 1.400 . S
C1519 C1524 1.490 . S
C1520 H1510 0.930 . S
C1520 C1519 1.400 . S
C1520 C1523 1.386 . S
H1521 C1537 0.930 . S
H1522 C1538 0.931 . S
C1523 H1511 0.929 . S
C1523 C1517 1.390 . S
C1523 C1520 1.386 . S
C1524 C1519 1.490 . S
C1524 C1526 1.395 . S
C1524 C1527 1.403 . S
H1525 C1531 0.930 . S
C1526 H1512 0.930 . S
C1526 C1524 1.395 . S
C1526 C1529 1.403 . S
C1527 C1524 1.403 . S
C1527 C1528 1.524 . S
C1527 C1531 1.400 . S
C1528 H1513 0.960 . S
C1528 H1514 0.960 . S
C1528 H1515 0.960 . S
C1528 C1527 1.524 . S
C1529 C1526 1.403 . S
C1529 C1530 1.392 . S
C1529 C1533 1.495 . S
C1530 C1529 1.392 . S
C1530 C1531 1.385 . S
C1530 C1532 1.478 . S
C1531 H1525 0.930 . S
C1531 C1527 1.400 . S
C1531 C1530 1.385 . S
C1532 C1530 1.478 . S
C1532 C1534 1.381 . S
C1532 C1538 1.383 . S
C1533 C1529 1.495 . S
C1533 H1539 0.959 . S
C1533 H1540 0.961 . S
C1533 H1541 0.960 . S
C1534 C1532 1.381 . S
C1534 C1535 1.394 . S
C1534 H1542 0.930 . S
C1535 C1534 1.394 . S
C1535 C1536 1.383 . S
C1535 H1543 0.929 . S
C1536 C1535 1.383 . S
C1536 C1537 1.377 . S
C1537 H1521 0.930 . S
C1537 C1536 1.377 . S
C1537 C1538 1.379 . S
C1538 H1522 0.931 . S
C1538 C1532 1.383 . S
C1538 C1537 1.379 . S
H1539 C1533 0.959 . S
H1540 C1533 0.961 . S
H1541 C1533 0.960 . S
H1542 C1534 0.930 . S
H1543 C1535 0.929 . S
H1544 C1552 0.929 . S
H1545 C1554 0.930 . S
H1546 C1556 0.930 . S
H1547 C1559 0.929 . S
H1548 C1562 0.930 . S
H1549 C1564 0.960 . S
H1550 C1564 0.960 . S
H1551 C1564 0.960 . S
C1552 H1544 0.929 . S
C1552 C1553 1.377 . S
C1552 C1554 1.384 . S
C1553 C1552 1.377 . S
C1553 C1559 1.390 . S
C1554 H1545 0.930 . S
C1554 C1552 1.384 . S
C1554 C1555 1.372 . S
C1555 C1554 1.372 . S
C1555 C1556 1.400 . S
C1555 C1560 1.490 . S
C1556 H1546 0.930 . S
C1556 C1555 1.400 . S
C1556 C1559 1.386 . S
H1557 C1573 0.930 . S
H1558 C1574 0.931 . S
C1559 H1547 0.929 . S
C1559 C1553 1.390 . S
C1559 C1556 1.386 . S
C1560 C1555 1.490 . S
C1560 C1562 1.395 . S
C1560 C1563 1.403 . S
H1561 C1567 0.930 . S
C1562 H1548 0.930 . S
C1562 C1560 1.395 . S
C1562 C1565 1.403 . S
C1563 C1560 1.403 . S
C1563 C1564 1.524 . S
C1563 C1567 1.400 . S
C1564 H1549 0.960 . S
C1564 H1550 0.960 . S
C1564 H1551 0.960 . S
C1564 C1563 1.524 . S
C1565 C1562 1.403 . S
C1565 C1566 1.392 . S
C1565 C1569 1.495 . S
C1566 C1565 1.392 . S
C1566 C1567 1.385 . S
C1566 C1568 1.478 . S
C1567 H1561 0.930 . S
C1567 C1563 1.400 . S
C1567 C1566 1.385 . S
C1568 C1566 1.478 . S
C1568 C1570 1.381 . S
C1568 C1574 1.383 . S
C1569 C1565 1.495 . S
C1569 H1575 0.959 . S
C1569 H1576 0.961 . S
C1569 H1577 0.960 . S
C1570 C1568 1.381 . S
C1570 C1571 1.394 . S
C1570 H1578 0.930 . S
C1571 C1570 1.394 . S
C1571 C1572 1.383 . S
C1571 H1579 0.929 . S
C1572 C1571 1.383 . S
C1572 C1573 1.377 . S
C1573 H1557 0.930 . S
C1573 C1572 1.377 . S
C1573 C1574 1.379 . S
C1574 H1558 0.931 . S
C1574 C1568 1.383 . S
C1574 C1573 1.379 . S
H1575 C1569 0.959 . S
H1576 C1569 0.961 . S
H1577 C1569 0.960 . S
H1578 C1570 0.930 . S
H1579 C1571 0.929 . S
H1580 C1588 0.929 . S
H1581 C1590 0.930 . S
H1582 C1592 0.930 . S
H1583 C1595 0.929 . S
H1584 C1598 0.930 . S
H1585 C1600 0.960 . S
H1586 C1600 0.960 . S
H1587 C1600 0.960 . S
C1588 H1580 0.929 . S
C1588 C1589 1.377 . S
C1588 C1590 1.384 . S
C1589 C1588 1.377 . S
C1589 C1595 1.390 . S
C1590 H1581 0.930 . S
C1590 C1588 1.384 . S
C1590 C1591 1.372 . S
C1591 C1590 1.372 . S
C1591 C1592 1.400 . S
C1591 C1596 1.490 . S
C1592 H1582 0.930 . S
C1592 C1591 1.400 . S
C1592 C1595 1.386 . S
H1593 C1609 0.930 . S
H1594 C1610 0.931 . S
C1595 H1583 0.929 . S
C1595 C1589 1.390 . S
C1595 C1592 1.386 . S
C1596 C1591 1.490 . S
C1596 C1598 1.395 . S
C1596 C1599 1.403 . S
H1597 C1603 0.930 . S
C1598 H1584 0.930 . S
C1598 C1596 1.395 . S
C1598 C1601 1.403 . S
C1599 C1596 1.403 . S
C1599 C1600 1.524 . S
C1599 C1603 1.400 . S
C1600 H1585 0.960 . S
C1600 H1586 0.960 . S
C1600 H1587 0.960 . S
C1600 C1599 1.524 . S
C1601 C1598 1.403 . S
C1601 C1602 1.392 . S
C1601 C1605 1.495 . S
C1602 C1601 1.392 . S
C1602 C1603 1.385 . S
C1602 C1604 1.478 . S
C1603 H1597 0.930 . S
C1603 C1599 1.400 . S
C1603 C1602 1.385 . S
C1604 C1602 1.478 . S
C1604 C1606 1.381 . S
C1604 C1610 1.383 . S
C1605 C1601 1.495 . S
C1605 H1611 0.959 . S
C1605 H1612 0.961 . S
C1605 H1613 0.960 . S
C1606 C1604 1.381 . S
C1606 C1607 1.394 . S
C1606 H1614 0.930 . S
C1607 C1606 1.394 . S
C1607 C1608 1.383 . S
C1607 H1615 0.929 . S
C1608 C1607 1.383 . S
C1608 C1609 1.377 . S
C1609 H1593 0.930 . S
C1609 C1608 1.377 . S
C1609 C1610 1.379 . S
C1610 H1594 0.931 . S
C1610 C1604 1.383 . S
C1610 C1609 1.379 . S
H1611 C1605 0.959 . S
H1612 C1605 0.961 . S
H1613 C1605 0.960 . S
H1614 C1606 0.930 . S
H1615 C1607 0.929 . S
H1616 C1624 0.929 . S
H1617 C1626 0.930 . S
H1618 C1628 0.930 . S
H1619 C1631 0.929 . S
H1620 C1634 0.930 . S
H1621 C1636 0.960 . S
H1622 C1636 0.960 . S
H1623 C1636 0.960 . S
C1624 H1616 0.929 . S
C1624 C1625 1.377 . S
C1624 C1626 1.384 . S
C1625 C1624 1.377 . S
C1625 C1631 1.390 . S
C1626 H1617 0.930 . S
C1626 C1624 1.384 . S
C1626 C1627 1.372 . S
C1627 C1626 1.372 . S
C1627 C1628 1.400 . S
C1627 C1632 1.490 . S
C1628 H1618 0.930 . S
C1628 C1627 1.400 . S
C1628 C1631 1.386 . S
H1629 C1645 0.930 . S
H1630 C1646 0.931 . S
C1631 H1619 0.929 . S
C1631 C1625 1.390 . S
C1631 C1628 1.386 . S
C1632 C1627 1.490 . S
C1632 C1634 1.395 . S
C1632 C1635 1.403 1_556 S
H1633 C1639 0.930 . S
C1634 H1620 0.930 . S
C1634 C1632 1.395 . S
C1634 C1637 1.403 . S
C1635 C1632 1.403 1_554 S
C1635 C1636 1.524 . S
C1635 C1639 1.400 . S
C1636 H1621 0.960 . S
C1636 H1622 0.960 . S
C1636 H1623 0.960 . S
C1636 C1635 1.524 . S
C1637 C1634 1.403 . S
C1637 C1638 1.392 1_556 S
C1637 C1641 1.495 . S
C1638 C1637 1.392 1_554 S
C1638 C1639 1.385 . S
C1638 C1640 1.478 . S
C1639 H1633 0.930 . S
C1639 C1635 1.400 . S
C1639 C1638 1.385 . S
C1640 C1638 1.478 . S
C1640 C1642 1.381 . S
C1640 C1646 1.383 . S
C1641 C1637 1.495 . S
C1641 H1647 0.959 . S
C1641 H1648 0.961 . S
C1641 H1649 0.960 . S
C1642 C1640 1.381 . S
C1642 C1643 1.394 . S
C1642 H1650 0.930 . S
C1643 C1642 1.394 . S
C1643 C1644 1.383 . S
C1643 H1651 0.929 . S
C1644 C1643 1.383 . S
C1644 C1645 1.377 . S
C1645 H1629 0.930 . S
C1645 C1644 1.377 . S
C1645 C1646 1.379 . S
C1646 H1630 0.931 . S
C1646 C1640 1.383 . S
C1646 C1645 1.379 . S
H1647 C1641 0.959 . S
H1648 C1641 0.961 . S
H1649 C1641 0.960 . S
H1650 C1642 0.930 . S
H1651 C1643 0.929 . S
H1652 C1660 0.929 . S
H1653 C1662 0.930 . S
H1654 C1664 0.930 . S
H1655 C1667 0.929 . S
H1656 C1670 0.930 . S
H1657 C1672 0.960 . S
H1658 C1672 0.960 . S
H1659 C1672 0.960 . S
C1660 H1652 0.929 . S
C1660 C1661 1.377 . S
C1660 C1662 1.384 . S
C1661 C1660 1.377 . S
C1661 C1667 1.390 . S
C1662 H1653 0.930 . S
C1662 C1660 1.384 . S
C1662 C1663 1.372 . S
C1663 C1662 1.372 . S
C1663 C1664 1.400 . S
C1663 C1668 1.490 . S
C1664 H1654 0.930 . S
C1664 C1663 1.400 . S
C1664 C1667 1.386 . S
H1665 C1681 0.930 . S
H1666 C1682 0.931 . S
C1667 H1655 0.929 . S
C1667 C1661 1.390 . S
C1667 C1664 1.386 . S
C1668 C1663 1.490 . S
C1668 C1670 1.395 1_556 S
C1668 C1671 1.403 . S
H1669 C1675 0.930 . S
C1670 H1656 0.930 . S
C1670 C1668 1.395 1_554 S
C1670 C1673 1.403 . S
C1671 C1668 1.403 . S
C1671 C1672 1.524 . S
C1671 C1675 1.400 1_556 S
C1672 H1657 0.960 . S
C1672 H1658 0.960 . S
C1672 H1659 0.960 . S
C1672 C1671 1.524 . S
C1673 C1670 1.403 . S
C1673 C1674 1.392 . S
C1673 C1677 1.495 . S
C1674 C1673 1.392 . S
C1674 C1675 1.385 . S
C1674 C1676 1.478 . S
C1675 H1669 0.930 . S
C1675 C1671 1.400 1_554 S
C1675 C1674 1.385 . S
C1676 C1674 1.478 . S
C1676 C1678 1.381 . S
C1676 C1682 1.383 . S
C1677 C1673 1.495 . S
C1677 H1683 0.959 . S
C1677 H1684 0.961 . S
C1677 H1685 0.960 . S
C1678 C1676 1.381 . S
C1678 C1679 1.394 . S
C1678 H1686 0.930 . S
C1679 C1678 1.394 . S
C1679 C1680 1.383 . S
C1679 H1687 0.929 . S
C1680 C1679 1.383 . S
C1680 C1681 1.377 . S
C1681 H1665 0.930 . S
C1681 C1680 1.377 . S
C1681 C1682 1.379 . S
C1682 H1666 0.931 . S
C1682 C1676 1.383 . S
C1682 C1681 1.379 . S
H1683 C1677 0.959 . S
H1684 C1677 0.961 . S
H1685 C1677 0.960 . S
H1686 C1678 0.930 . S
H1687 C1679 0.929 . S
H1688 C1696 0.929 . S
H1689 C1698 0.930 . S
H1690 C1700 0.930 . S
H1691 C1703 0.929 . S
H1692 C1706 0.943 . S
H1693 C1708 0.960 . S
H1694 C1708 0.960 . S
H1695 C1708 0.960 . S
C1696 H1688 0.929 . S
C1696 C1697 1.377 . S
C1696 C1698 1.384 . S
C1697 C1696 1.377 . S
C1697 C1703 1.390 . S
C1698 H1689 0.930 . S
C1698 C1696 1.384 . S
C1698 C1699 1.372 . S
C1699 C1698 1.372 . S
C1699 C1700 1.400 . S
C1699 C1704 1.490 . S
C1700 H1690 0.930 . S
C1700 C1699 1.400 . S
C1700 C1703 1.386 . S
H1701 C1717 0.930 . S
H1702 C1718 0.931 . S
C1703 H1691 0.929 . S
C1703 C1697 1.390 . S
C1703 C1700 1.386 . S
C1704 C1699 1.490 . S
C1704 C1706 1.411 . S
C1704 C1707 1.403 . S
H1705 C1711 0.930 . S
C1706 H1692 0.943 . S
C1706 C1704 1.411 . S
C1706 C1709 1.376 1_556 S
C1707 C1704 1.403 . S
C1707 C1708 1.524 . S
C1707 C1711 1.400 1_556 S
C1708 H1693 0.960 . S
C1708 H1694 0.960 . S
C1708 H1695 0.960 . S
C1708 C1707 1.524 . S
C1709 C1706 1.376 1_554 S
C1709 C1710 1.392 . S
C1709 C1713 1.495 . S
C1710 C1709 1.392 . S
C1710 C1711 1.385 . S
C1710 C1712 1.478 . S
C1711 H1705 0.930 . S
C1711 C1707 1.400 1_554 S
C1711 C1710 1.385 . S
C1712 C1710 1.478 . S
C1712 C1714 1.381 . S
C1712 C1718 1.383 . S
C1713 C1709 1.495 . S
C1713 H1719 0.959 . S
C1713 H1720 0.961 . S
C1713 H1721 0.960 . S
C1714 C1712 1.381 . S
C1714 C1715 1.394 . S
C1714 H1722 0.930 . S
C1715 C1714 1.394 . S
C1715 C1716 1.383 . S
C1715 H1723 0.929 . S
C1716 C1715 1.383 . S
C1716 C1717 1.377 . S
C1717 H1701 0.930 . S
C1717 C1716 1.377 . S
C1717 C1718 1.379 . S
C1718 H1702 0.931 . S
C1718 C1712 1.383 . S
C1718 C1717 1.379 . S
H1719 C1713 0.959 . S
H1720 C1713 0.961 . S
H1721 C1713 0.960 . S
H1722 C1714 0.930 . S
H1723 C1715 0.929 . S
H1724 C1732 0.929 . S
H1725 C1734 0.930 . S
H1726 C1736 0.930 . S
H1727 C1739 0.929 . S
H1728 C1742 0.930 . S
H1729 C1744 0.960 . S
H1730 C1744 0.960 . S
H1731 C1744 0.960 . S
C1732 H1724 0.929 . S
C1732 C1733 1.377 . S
C1732 C1734 1.384 . S
C1733 C1732 1.377 . S
C1733 C1739 1.390 . S
C1734 H1725 0.930 . S
C1734 C1732 1.384 . S
C1734 C1735 1.372 . S
C1735 C1734 1.372 . S
C1735 C1736 1.400 . S
C1735 C1740 1.490 . S
C1736 H1726 0.930 . S
C1736 C1735 1.400 . S
C1736 C1739 1.386 . S
H1737 C1753 0.930 . S
H1738 C1754 0.931 . S
C1739 H1727 0.929 . S
C1739 C1733 1.390 . S
C1739 C1736 1.386 . S
C1740 C1735 1.490 . S
C1740 C1742 1.395 1_554 S
C1740 C1743 1.403 . S
H1741 C1747 0.930 . S
C1742 H1728 0.930 . S
C1742 C1740 1.395 1_556 S
C1742 C1745 1.403 . S
C1743 C1740 1.403 . S
C1743 C1744 1.524 . S
C1743 C1747 1.400 . S
C1744 H1729 0.960 . S
C1744 H1730 0.960 . S
C1744 H1731 0.960 . S
C1744 C1743 1.524 . S
C1745 C1742 1.403 . S
C1745 C1746 1.392 . S
C1745 C1749 1.495 . S
C1746 C1745 1.392 . S
C1746 C1747 1.385 1_556 S
C1746 C1748 1.478 . S
C1747 H1741 0.930 . S
C1747 C1743 1.400 . S
C1747 C1746 1.385 1_554 S
C1748 C1746 1.478 . S
C1748 C1750 1.381 . S
C1748 C1754 1.383 . S
C1749 C1745 1.495 . S
C1749 H1755 0.959 . S
C1749 H1756 0.961 . S
C1749 H1757 0.960 . S
C1750 C1748 1.381 . S
C1750 C1751 1.394 . S
C1750 H1758 0.930 . S
C1751 C1750 1.394 . S
C1751 C1752 1.383 . S
C1751 H1759 0.929 . S
C1752 C1751 1.383 . S
C1752 C1753 1.377 . S
C1753 H1737 0.930 . S
C1753 C1752 1.377 . S
C1753 C1754 1.379 . S
C1754 H1738 0.931 . S
C1754 C1748 1.383 . S
C1754 C1753 1.379 . S
H1755 C1749 0.959 . S
H1756 C1749 0.961 . S
H1757 C1749 0.960 . S
H1758 C1750 0.930 . S
H1759 C1751 0.929 . S
H1760 C1768 0.929 . S
H1761 C1770 0.930 . S
H1762 C1772 0.930 . S
H1763 C1775 0.929 . S
H1764 C1778 0.930 . S
H1765 C1780 0.960 . S
H1766 C1780 0.960 . S
H1767 C1780 0.960 . S
C1768 H1760 0.929 . S
C1768 C1769 1.377 . S
C1768 C1770 1.384 . S
C1769 C1768 1.377 . S
C1769 C1775 1.390 . S
C1770 H1761 0.930 . S
C1770 C1768 1.384 . S
C1770 C1771 1.372 . S
C1771 C1770 1.372 . S
C1771 C1772 1.400 . S
C1771 C1776 1.490 . S
C1772 H1762 0.930 . S
C1772 C1771 1.400 . S
C1772 C1775 1.386 . S
H1773 C1789 0.930 . S
H1774 C1790 0.931 . S
C1775 H1763 0.929 . S
C1775 C1769 1.390 . S
C1775 C1772 1.386 . S
C1776 C1771 1.490 . S
C1776 C1778 1.395 . S
C1776 C1779 1.403 . S
H1777 C1783 0.930 . S
C1778 H1764 0.930 . S
C1778 C1776 1.395 . S
C1778 C1781 1.403 . S
C1779 C1776 1.403 . S
C1779 C1780 1.524 . S
C1779 C1783 1.400 . S
C1780 H1765 0.960 . S
C1780 H1766 0.960 . S
C1780 H1767 0.960 . S
C1780 C1779 1.524 . S
C1781 C1778 1.403 . S
C1781 C1782 1.392 . S
C1781 C1785 1.495 . S
C1782 C1781 1.392 . S
C1782 C1783 1.385 . S
C1782 C1784 1.478 . S
C1783 H1777 0.930 . S
C1783 C1779 1.400 . S
C1783 C1782 1.385 . S
C1784 C1782 1.478 . S
C1784 C1786 1.381 . S
C1784 C1790 1.383 . S
C1785 C1781 1.495 . S
C1785 H1791 0.959 . S
C1785 H1792 0.961 . S
C1785 H1793 0.960 . S
C1786 C1784 1.381 . S
C1786 C1787 1.394 . S
C1786 H1794 0.930 . S
C1787 C1786 1.394 . S
C1787 C1788 1.383 . S
C1787 H1795 0.929 . S
C1788 C1787 1.383 . S
C1788 C1789 1.377 . S
C1789 H1773 0.930 . S
C1789 C1788 1.377 . S
C1789 C1790 1.379 . S
C1790 H1774 0.931 . S
C1790 C1784 1.383 . S
C1790 C1789 1.379 . S
H1791 C1785 0.959 . S
H1792 C1785 0.961 . S
H1793 C1785 0.960 . S
H1794 C1786 0.930 . S
H1795 C1787 0.929 . S
H1796 C1804 0.929 . S
H1797 C1806 0.930 . S
H1798 C1808 0.930 . S
H1799 C1811 0.929 . S
H1800 C1814 0.930 . S
H1801 C1816 0.960 . S
H1802 C1816 0.960 . S
H1803 C1816 0.960 . S
C1804 H1796 0.929 . S
C1804 C1805 1.377 . S
C1804 C1806 1.384 . S
C1805 C1804 1.377 . S
C1805 C1811 1.390 . S
C1806 H1797 0.930 . S
C1806 C1804 1.384 . S
C1806 C1807 1.372 . S
C1807 C1806 1.372 . S
C1807 C1808 1.400 . S
C1807 C1812 1.490 . S
C1808 H1798 0.930 . S
C1808 C1807 1.400 . S
C1808 C1811 1.386 . S
H1809 C1825 0.930 . S
H1810 C1826 0.931 . S
C1811 H1799 0.929 . S
C1811 C1805 1.390 . S
C1811 C1808 1.386 . S
C1812 C1807 1.490 . S
C1812 C1814 1.395 . S
C1812 C1815 1.403 . S
H1813 C1819 0.930 . S
C1814 H1800 0.930 . S
C1814 C1812 1.395 . S
C1814 C1817 1.403 . S
C1815 C1812 1.403 . S
C1815 C1816 1.524 . S
C1815 C1819 1.400 . S
C1816 H1801 0.960 . S
C1816 H1802 0.960 . S
C1816 H1803 0.960 . S
C1816 C1815 1.524 . S
C1817 C1814 1.403 . S
C1817 C1818 1.392 . S
C1817 C1821 1.495 . S
C1818 C1817 1.392 . S
C1818 C1819 1.385 . S
C1818 C1820 1.478 . S
C1819 H1813 0.930 . S
C1819 C1815 1.400 . S
C1819 C1818 1.385 . S
C1820 C1818 1.478 . S
C1820 C1822 1.381 . S
C1820 C1826 1.383 . S
C1821 C1817 1.495 . S
C1821 H1827 0.959 . S
C1821 H1828 0.961 . S
C1821 H1829 0.960 . S
C1822 C1820 1.381 . S
C1822 C1823 1.394 . S
C1822 H1830 0.930 . S
C1823 C1822 1.394 . S
C1823 C1824 1.383 . S
C1823 H1831 0.929 . S
C1824 C1823 1.383 . S
C1824 C1825 1.377 . S
C1825 H1809 0.930 . S
C1825 C1824 1.377 . S
C1825 C1826 1.379 . S
C1826 H1810 0.931 . S
C1826 C1820 1.383 . S
C1826 C1825 1.379 . S
H1827 C1821 0.959 . S
H1828 C1821 0.961 . S
H1829 C1821 0.960 . S
H1830 C1822 0.930 . S
H1831 C1823 0.929 . S
H1832 C1840 0.929 . S
H1833 C1842 0.930 . S
H1834 C1844 0.930 . S
H1835 C1847 0.929 . S
H1836 C1850 0.930 . S
H1837 C1852 0.960 . S
H1838 C1852 0.960 . S
H1839 C1852 0.960 . S
C1840 H1832 0.929 . S
C1840 C1841 1.377 . S
C1840 C1842 1.384 . S
C1841 C1840 1.377 . S
C1841 C1847 1.390 . S
C1842 H1833 0.930 . S
C1842 C1840 1.384 . S
C1842 C1843 1.372 . S
C1843 C1842 1.372 . S
C1843 C1844 1.400 . S
C1843 C1848 1.490 . S
C1844 H1834 0.930 . S
C1844 C1843 1.400 . S
C1844 C1847 1.386 . S
H1845 C1861 0.930 . S
H1846 C1862 0.931 . S
C1847 H1835 0.929 . S
C1847 C1841 1.390 . S
C1847 C1844 1.386 . S
C1848 C1843 1.490 . S
C1848 C1850 1.395 . S
C1848 C1851 1.403 . S
H1849 C1855 0.930 . S
C1850 H1836 0.930 . S
C1850 C1848 1.395 . S
C1850 C1853 1.403 . S
C1851 C1848 1.403 . S
C1851 C1852 1.524 . S
C1851 C1855 1.400 . S
C1852 H1837 0.960 . S
C1852 H1838 0.960 . S
C1852 H1839 0.960 . S
C1852 C1851 1.524 . S
C1853 C1850 1.403 . S
C1853 C1854 1.392 . S
C1853 C1857 1.495 . S
C1854 C1853 1.392 . S
C1854 C1855 1.385 . S
C1854 C1856 1.478 . S
C1855 H1849 0.930 . S
C1855 C1851 1.400 . S
C1855 C1854 1.385 . S
C1856 C1854 1.478 . S
C1856 C1858 1.381 . S
C1856 C1862 1.383 . S
C1857 C1853 1.495 . S
C1857 H1863 0.959 . S
C1857 H1864 0.961 . S
C1857 H1865 0.960 . S
C1858 C1856 1.381 . S
C1858 C1859 1.394 . S
C1858 H1866 0.930 . S
C1859 C1858 1.394 . S
C1859 C1860 1.383 . S
C1859 H1867 0.929 . S
C1860 C1859 1.383 . S
C1860 C1861 1.377 . S
C1861 H1845 0.930 . S
C1861 C1860 1.377 . S
C1861 C1862 1.379 . S
C1862 H1846 0.931 . S
C1862 C1856 1.383 . S
C1862 C1861 1.379 . S
H1863 C1857 0.959 . S
H1864 C1857 0.961 . S
H1865 C1857 0.960 . S
H1866 C1858 0.930 . S
H1867 C1859 0.929 . S
H1868 C1876 0.929 . S
H1869 C1878 0.930 . S
H1870 C1880 0.930 . S
H1871 C1883 0.929 . S
H1872 C1886 0.930 . S
H1873 C1888 0.960 . S
H1874 C1888 0.960 . S
H1875 C1888 0.960 . S
C1876 H1868 0.929 . S
C1876 C1877 1.377 . S
C1876 C1878 1.384 . S
C1877 C1876 1.377 . S
C1877 C1883 1.390 . S
C1878 H1869 0.930 . S
C1878 C1876 1.384 . S
C1878 C1879 1.372 . S
C1879 C1878 1.372 . S
C1879 C1880 1.400 . S
C1879 C1884 1.490 . S
C1880 H1870 0.930 . S
C1880 C1879 1.400 . S
C1880 C1883 1.386 . S
H1881 C1897 0.930 . S
H1882 C1898 0.931 . S
C1883 H1871 0.929 . S
C1883 C1877 1.390 . S
C1883 C1880 1.386 . S
C1884 C1879 1.490 . S
C1884 C1886 1.395 . S
C1884 C1887 1.403 . S
H1885 C1891 0.930 . S
C1886 H1872 0.930 . S
C1886 C1884 1.395 . S
C1886 C1889 1.403 . S
C1887 C1884 1.403 . S
C1887 C1888 1.524 . S
C1887 C1891 1.400 . S
C1888 H1873 0.960 . S
C1888 H1874 0.960 . S
C1888 H1875 0.960 . S
C1888 C1887 1.524 . S
C1889 C1886 1.403 . S
C1889 C1890 1.392 . S
C1889 C1893 1.495 . S
C1890 C1889 1.392 . S
C1890 C1891 1.385 . S
C1890 C1892 1.478 . S
C1891 H1885 0.930 . S
C1891 C1887 1.400 . S
C1891 C1890 1.385 . S
C1892 C1890 1.478 . S
C1892 C1894 1.381 . S
C1892 C1898 1.383 . S
C1893 C1889 1.495 . S
C1893 H1899 0.959 . S
C1893 H1900 0.961 . S
C1893 H1901 0.960 . S
C1894 C1892 1.381 . S
C1894 C1895 1.394 . S
C1894 H1902 0.930 . S
C1895 C1894 1.394 . S
C1895 C1896 1.383 . S
C1895 H1903 0.929 . S
C1896 C1895 1.383 . S
C1896 C1897 1.377 . S
C1897 H1881 0.930 . S
C1897 C1896 1.377 . S
C1897 C1898 1.379 . S
C1898 H1882 0.931 . S
C1898 C1892 1.383 . S
C1898 C1897 1.379 . S
H1899 C1893 0.959 . S
H1900 C1893 0.961 . S
H1901 C1893 0.960 . S
H1902 C1894 0.930 . S
H1903 C1895 0.929 . S
H1904 C1912 0.929 . S
H1905 C1914 0.930 . S
H1906 C1916 0.930 . S
H1907 C1919 0.929 . S
H1908 C1922 0.930 . S
H1909 C1924 0.960 . S
H1910 C1924 0.960 . S
H1911 C1924 0.960 . S
C1912 H1904 0.929 . S
C1912 C1913 1.377 . S
C1912 C1914 1.384 . S
C1913 C1912 1.377 . S
C1913 C1919 1.390 . S
C1914 H1905 0.930 . S
C1914 C1912 1.384 . S
C1914 C1915 1.372 . S
C1915 C1914 1.372 . S
C1915 C1916 1.400 . S
C1915 C1920 1.490 . S
C1916 H1906 0.930 . S
C1916 C1915 1.400 . S
C1916 C1919 1.386 . S
H1917 C1933 0.930 . S
H1918 C1934 0.931 . S
C1919 H1907 0.929 . S
C1919 C1913 1.390 . S
C1919 C1916 1.386 . S
C1920 C1915 1.490 . S
C1920 C1922 1.395 . S
C1920 C1923 1.403 . S
H1921 C1927 0.930 . S
C1922 H1908 0.930 . S
C1922 C1920 1.395 . S
C1922 C1925 1.403 . S
C1923 C1920 1.403 . S
C1923 C1924 1.524 . S
C1923 C1927 1.400 . S
C1924 H1909 0.960 . S
C1924 H1910 0.960 . S
C1924 H1911 0.960 . S
C1924 C1923 1.524 . S
C1925 C1922 1.403 . S
C1925 C1926 1.392 . S
C1925 C1929 1.495 . S
C1926 C1925 1.392 . S
C1926 C1927 1.385 . S
C1926 C1928 1.478 . S
C1927 H1921 0.930 . S
C1927 C1923 1.400 . S
C1927 C1926 1.385 . S
C1928 C1926 1.478 . S
C1928 C1930 1.381 . S
C1928 C1934 1.383 . S
C1929 C1925 1.495 . S
C1929 H1935 0.959 . S
C1929 H1936 0.961 . S
C1929 H1937 0.960 . S
C1930 C1928 1.381 . S
C1930 C1931 1.394 . S
C1930 H1938 0.930 . S
C1931 C1930 1.394 . S
C1931 C1932 1.383 . S
C1931 H1939 0.929 . S
C1932 C1931 1.383 . S
C1932 C1933 1.377 . S
C1933 H1917 0.930 . S
C1933 C1932 1.377 . S
C1933 C1934 1.379 . S
C1934 H1918 0.931 . S
C1934 C1928 1.383 . S
C1934 C1933 1.379 . S
H1935 C1929 0.959 . S
H1936 C1929 0.961 . S
H1937 C1929 0.960 . S
H1938 C1930 0.930 . S
H1939 C1931 0.929 . S
H1940 C1948 0.929 . S
H1941 C1950 0.930 . S
H1942 C1952 0.930 . S
H1943 C1955 0.929 . S
H1944 C1958 0.930 . S
H1945 C1960 0.960 . S
H1946 C1960 0.960 . S
H1947 C1960 0.960 . S
C1948 H1940 0.929 . S
C1948 C1949 1.377 . S
C1948 C1950 1.384 . S
C1949 C1948 1.377 . S
C1949 C1955 1.390 . S
C1950 H1941 0.930 . S
C1950 C1948 1.384 . S
C1950 C1951 1.372 . S
C1951 C1950 1.372 . S
C1951 C1952 1.400 . S
C1951 C1956 1.490 . S
C1952 H1942 0.930 . S
C1952 C1951 1.400 . S
C1952 C1955 1.386 . S
H1953 C1969 0.930 . S
H1954 C1970 0.931 . S
C1955 H1943 0.929 . S
C1955 C1949 1.390 . S
C1955 C1952 1.386 . S
C1956 C1951 1.490 . S
C1956 C1958 1.395 . S
C1956 C1959 1.403 . S
H1957 C1963 0.930 . S
C1958 H1944 0.930 . S
C1958 C1956 1.395 . S
C1958 C1961 1.403 . S
C1959 C1956 1.403 . S
C1959 C1960 1.524 . S
C1959 C1963 1.400 . S
C1960 H1945 0.960 . S
C1960 H1946 0.960 . S
C1960 H1947 0.960 . S
C1960 C1959 1.524 . S
C1961 C1958 1.403 . S
C1961 C1962 1.392 . S
C1961 C1965 1.495 . S
C1962 C1961 1.392 . S
C1962 C1963 1.385 . S
C1962 C1964 1.478 . S
C1963 H1957 0.930 . S
C1963 C1959 1.400 . S
C1963 C1962 1.385 . S
C1964 C1962 1.478 . S
C1964 C1966 1.381 . S
C1964 C1970 1.383 . S
C1965 C1961 1.495 . S
C1965 H1971 0.959 . S
C1965 H1972 0.961 . S
C1965 H1973 0.960 . S
C1966 C1964 1.381 . S
C1966 C1967 1.394 . S
C1966 H1974 0.930 . S
C1967 C1966 1.394 . S
C1967 C1968 1.383 . S
C1967 H1975 0.929 . S
C1968 C1967 1.383 . S
C1968 C1969 1.377 . S
C1969 H1953 0.930 . S
C1969 C1968 1.377 . S
C1969 C1970 1.379 . S
C1970 H1954 0.931 . S
C1970 C1964 1.383 . S
C1970 C1969 1.379 . S
H1971 C1965 0.959 . S
H1972 C1965 0.961 . S
H1973 C1965 0.960 . S
H1974 C1966 0.930 . S
H1975 C1967 0.929 . S
H1976 C1984 0.929 . S
H1977 C1986 0.930 . S
H1978 C1988 0.930 . S
H1979 C1991 0.929 . S
H1980 C1994 0.930 . S
H1981 C1996 0.960 . S
H1982 C1996 0.960 . S
H1983 C1996 0.960 . S
C1984 H1976 0.929 . S
C1984 C1985 1.377 . S
C1984 C1986 1.384 . S
C1985 C1984 1.377 . S
C1985 C1991 1.390 . S
C1986 H1977 0.930 . S
C1986 C1984 1.384 . S
C1986 C1987 1.372 . S
C1987 C1986 1.372 . S
C1987 C1988 1.400 . S
C1987 C1992 1.490 . S
C1988 H1978 0.930 . S
C1988 C1987 1.400 . S
C1988 C1991 1.386 . S
H1989 C2005 0.930 . S
H1990 C2006 0.931 . S
C1991 H1979 0.929 . S
C1991 C1985 1.390 . S
C1991 C1988 1.386 . S
C1992 C1987 1.490 . S
C1992 C1994 1.395 . S
C1992 C1995 1.403 . S
H1993 C1999 0.930 . S
C1994 H1980 0.930 . S
C1994 C1992 1.395 . S
C1994 C1997 1.403 . S
C1995 C1992 1.403 . S
C1995 C1996 1.524 . S
C1995 C1999 1.400 . S
C1996 H1981 0.960 . S
C1996 H1982 0.960 . S
C1996 H1983 0.960 . S
C1996 C1995 1.524 . S
C1997 C1994 1.403 . S
C1997 C1998 1.392 . S
C1997 C2001 1.495 . S
C1998 C1997 1.392 . S
C1998 C1999 1.385 . S
C1998 C2000 1.478 . S
C1999 H1993 0.930 . S
C1999 C1995 1.400 . S
C1999 C1998 1.385 . S
C2000 C1998 1.478 . S
C2000 C2002 1.381 . S
C2000 C2006 1.383 . S
C2001 C1997 1.495 . S
C2001 H2007 0.959 . S
C2001 H2008 0.961 . S
C2001 H2009 0.960 . S
C2002 C2000 1.381 . S
C2002 C2003 1.394 . S
C2002 H2010 0.930 . S
C2003 C2002 1.394 . S
C2003 C2004 1.383 . S
C2003 H2011 0.929 . S
C2004 C2003 1.383 . S
C2004 C2005 1.377 . S
C2005 H1989 0.930 . S
C2005 C2004 1.377 . S
C2005 C2006 1.379 . S
C2006 H1990 0.931 . S
C2006 C2000 1.383 . S
C2006 C2005 1.379 . S
H2007 C2001 0.959 . S
H2008 C2001 0.961 . S
H2009 C2001 0.960 . S
H2010 C2002 0.930 . S
H2011 C2003 0.929 . S
H2012 C2020 0.929 . S
H2013 C2022 0.930 . S
H2014 C2024 0.930 . S
H2015 C2027 0.929 . S
H2016 C2030 0.930 . S
H2017 C2032 0.960 . S
H2018 C2032 0.960 . S
H2019 C2032 0.960 . S
C2020 H2012 0.929 . S
C2020 C2021 1.377 . S
C2020 C2022 1.384 . S
C2021 C2020 1.377 . S
C2021 C2027 1.390 . S
C2022 H2013 0.930 . S
C2022 C2020 1.384 . S
C2022 C2023 1.372 . S
C2023 C2022 1.372 . S
C2023 C2024 1.400 . S
C2023 C2028 1.490 . S
C2024 H2014 0.930 . S
C2024 C2023 1.400 . S
C2024 C2027 1.386 . S
H2025 C2041 0.930 . S
H2026 C2042 0.931 . S
C2027 H2015 0.929 . S
C2027 C2021 1.390 . S
C2027 C2024 1.386 . S
C2028 C2023 1.490 . S
C2028 C2030 1.395 . S
C2028 C2031 1.403 . S
H2029 C2035 0.930 . S
C2030 H2016 0.930 . S
C2030 C2028 1.395 . S
C2030 C2033 1.403 . S
C2031 C2028 1.403 . S
C2031 C2032 1.524 . S
C2031 C2035 1.400 . S
C2032 H2017 0.960 . S
C2032 H2018 0.960 . S
C2032 H2019 0.960 . S
C2032 C2031 1.524 . S
C2033 C2030 1.403 . S
C2033 C2034 1.392 . S
C2033 C2037 1.495 . S
C2034 C2033 1.392 . S
C2034 C2035 1.385 . S
C2034 C2036 1.478 . S
C2035 H2029 0.930 . S
C2035 C2031 1.400 . S
C2035 C2034 1.385 . S
C2036 C2034 1.478 . S
C2036 C2038 1.381 . S
C2036 C2042 1.383 . S
C2037 C2033 1.495 . S
C2037 H2043 0.959 . S
C2037 H2044 0.961 . S
C2037 H2045 0.960 . S
C2038 C2036 1.381 . S
C2038 C2039 1.394 . S
C2038 H2046 0.930 . S
C2039 C2038 1.394 . S
C2039 C2040 1.383 . S
C2039 H2047 0.929 . S
C2040 C2039 1.383 . S
C2040 C2041 1.377 . S
C2041 H2025 0.930 . S
C2041 C2040 1.377 . S
C2041 C2042 1.379 . S
C2042 H2026 0.931 . S
C2042 C2036 1.383 . S
C2042 C2041 1.379 . S
H2043 C2037 0.959 . S
H2044 C2037 0.961 . S
H2045 C2037 0.960 . S
H2046 C2038 0.930 . S
H2047 C2039 0.929 . S
H2048 C2056 0.929 . S
H2049 C2058 0.930 . S
H2050 C2060 0.930 . S
H2051 C2063 0.929 . S
H2052 C2066 0.930 . S
H2053 C2068 0.960 . S
H2054 C2068 0.960 . S
H2055 C2068 0.960 . S
C2056 H2048 0.929 . S
C2056 C2057 1.377 . S
C2056 C2058 1.384 . S
C2057 C2056 1.377 . S
C2057 C2063 1.390 . S
C2058 H2049 0.930 . S
C2058 C2056 1.384 . S
C2058 C2059 1.372 . S
C2059 C2058 1.372 . S
C2059 C2060 1.400 . S
C2059 C2064 1.490 . S
C2060 H2050 0.930 . S
C2060 C2059 1.400 . S
C2060 C2063 1.386 . S
H2061 C2077 0.930 . S
H2062 C2078 0.931 . S
C2063 H2051 0.929 . S
C2063 C2057 1.390 . S
C2063 C2060 1.386 . S
C2064 C2059 1.490 . S
C2064 C2066 1.395 . S
C2064 C2067 1.403 . S
H2065 C2071 0.930 . S
C2066 H2052 0.930 . S
C2066 C2064 1.395 . S
C2066 C2069 1.403 . S
C2067 C2064 1.403 . S
C2067 C2068 1.524 . S
C2067 C2071 1.400 . S
C2068 H2053 0.960 . S
C2068 H2054 0.960 . S
C2068 H2055 0.960 . S
C2068 C2067 1.524 . S
C2069 C2066 1.403 . S
C2069 C2070 1.392 . S
C2069 C2073 1.495 . S
C2070 C2069 1.392 . S
C2070 C2071 1.385 . S
C2070 C2072 1.478 . S
C2071 H2065 0.930 . S
C2071 C2067 1.400 . S
C2071 C2070 1.385 . S
C2072 C2070 1.478 . S
C2072 C2074 1.381 . S
C2072 C2078 1.383 . S
C2073 C2069 1.495 . S
C2073 H2079 0.959 . S
C2073 H2080 0.961 . S
C2073 H2081 0.960 . S
C2074 C2072 1.381 . S
C2074 C2075 1.394 . S
C2074 H2082 0.930 . S
C2075 C2074 1.394 . S
C2075 C2076 1.383 . S
C2075 H2083 0.929 . S
C2076 C2075 1.383 . S
C2076 C2077 1.377 . S
C2077 H2061 0.930 . S
C2077 C2076 1.377 . S
C2077 C2078 1.379 . S
C2078 H2062 0.931 . S
C2078 C2072 1.383 . S
C2078 C2077 1.379 . S
H2079 C2073 0.959 . S
H2080 C2073 0.961 . S
H2081 C2073 0.960 . S
H2082 C2074 0.930 . S
H2083 C2075 0.929 . S
H2084 C2092 0.929 . S
H2085 C2094 0.930 . S
H2086 C2096 0.930 . S
H2087 C2099 0.929 . S
H2088 C2102 0.930 . S
H2089 C2104 0.960 . S
H2090 C2104 0.960 . S
H2091 C2104 0.960 . S
C2092 H2084 0.929 . S
C2092 C2093 1.377 . S
C2092 C2094 1.384 . S
C2093 C2092 1.377 . S
C2093 C2099 1.390 . S
C2094 H2085 0.930 . S
C2094 C2092 1.384 . S
C2094 C2095 1.372 . S
C2095 C2094 1.372 . S
C2095 C2096 1.400 . S
C2095 C2100 1.490 . S
C2096 H2086 0.930 . S
C2096 C2095 1.400 . S
C2096 C2099 1.386 . S
H2097 C2113 0.930 . S
H2098 C2114 0.931 . S
C2099 H2087 0.929 . S
C2099 C2093 1.390 . S
C2099 C2096 1.386 . S
C2100 C2095 1.490 . S
C2100 C2102 1.395 . S
C2100 C2103 1.403 . S
H2101 C2107 0.930 . S
C2102 H2088 0.930 . S
C2102 C2100 1.395 . S
C2102 C2105 1.403 . S
C2103 C2100 1.403 . S
C2103 C2104 1.524 . S
C2103 C2107 1.400 . S
C2104 H2089 0.960 . S
C2104 H2090 0.960 . S
C2104 H2091 0.960 . S
C2104 C2103 1.524 . S
C2105 C2102 1.403 . S
C2105 C2106 1.392 . S
C2105 C2109 1.495 . S
C2106 C2105 1.392 . S
C2106 C2107 1.385 . S
C2106 C2108 1.478 . S
C2107 H2101 0.930 . S
C2107 C2103 1.400 . S
C2107 C2106 1.385 . S
C2108 C2106 1.478 . S
C2108 C2110 1.381 . S
C2108 C2114 1.383 . S
C2109 C2105 1.495 . S
C2109 H2115 0.959 . S
C2109 H2116 0.961 . S
C2109 H2117 0.960 . S
C2110 C2108 1.381 . S
C2110 C2111 1.394 . S
C2110 H2118 0.930 . S
C2111 C2110 1.394 . S
C2111 C2112 1.383 . S
C2111 H2119 0.929 . S
C2112 C2111 1.383 . S
C2112 C2113 1.377 . S
C2113 H2097 0.930 . S
C2113 C2112 1.377 . S
C2113 C2114 1.379 . S
C2114 H2098 0.931 . S
C2114 C2108 1.383 . S
C2114 C2113 1.379 . S
H2115 C2109 0.959 . S
H2116 C2109 0.961 . S
H2117 C2109 0.960 . S
H2118 C2110 0.930 . S
H2119 C2111 0.929 . S
H2120 C2128 0.929 . S
H2121 C2130 0.930 . S
H2122 C2132 0.930 . S
H2123 C2135 0.929 . S
H2124 C2138 0.930 . S
H2125 C2140 0.960 . S
H2126 C2140 0.960 . S
H2127 C2140 0.960 . S
C2128 H2120 0.929 . S
C2128 C2129 1.377 . S
C2128 C2130 1.384 . S
C2129 C2128 1.377 . S
C2129 C2135 1.390 . S
C2130 H2121 0.930 . S
C2130 C2128 1.384 . S
C2130 C2131 1.372 . S
C2131 C2130 1.372 . S
C2131 C2132 1.400 . S
C2131 C2136 1.490 . S
C2132 H2122 0.930 . S
C2132 C2131 1.400 . S
C2132 C2135 1.386 . S
H2133 C2149 0.930 . S
H2134 C2150 0.931 . S
C2135 H2123 0.929 . S
C2135 C2129 1.390 . S
C2135 C2132 1.386 . S
C2136 C2131 1.490 . S
C2136 C2138 1.395 . S
C2136 C2139 1.403 . S
H2137 C2143 0.930 . S
C2138 H2124 0.930 . S
C2138 C2136 1.395 . S
C2138 C2141 1.403 . S
C2139 C2136 1.403 . S
C2139 C2140 1.524 . S
C2139 C2143 1.400 . S
C2140 H2125 0.960 . S
C2140 H2126 0.960 . S
C2140 H2127 0.960 . S
C2140 C2139 1.524 . S
C2141 C2138 1.403 . S
C2141 C2142 1.392 . S
C2141 C2145 1.495 . S
C2142 C2141 1.392 . S
C2142 C2143 1.385 . S
C2142 C2144 1.478 . S
C2143 H2137 0.930 . S
C2143 C2139 1.400 . S
C2143 C2142 1.385 . S
C2144 C2142 1.478 . S
C2144 C2146 1.381 . S
C2144 C2150 1.383 . S
C2145 C2141 1.495 . S
C2145 H2151 0.959 . S
C2145 H2152 0.961 . S
C2145 H2153 0.960 . S
C2146 C2144 1.381 . S
C2146 C2147 1.394 . S
C2146 H2154 0.930 . S
C2147 C2146 1.394 . S
C2147 C2148 1.383 . S
C2147 H2155 0.929 . S
C2148 C2147 1.383 . S
C2148 C2149 1.377 . S
C2149 H2133 0.930 . S
C2149 C2148 1.377 . S
C2149 C2150 1.379 . S
C2150 H2134 0.931 . S
C2150 C2144 1.383 . S
C2150 C2149 1.379 . S
H2151 C2145 0.959 . S
H2152 C2145 0.961 . S
H2153 C2145 0.960 . S
H2154 C2146 0.930 . S
H2155 C2147 0.929 . S
H2156 C2164 0.929 . S
H2157 C2166 0.930 . S
H2158 C2168 0.930 . S
H2159 C2171 0.929 . S
H2160 C2174 0.930 . S
H2161 C2176 0.960 . S
H2162 C2176 0.960 . S
H2163 C2176 0.960 . S
C2164 H2156 0.929 . S
C2164 C2165 1.377 . S
C2164 C2166 1.384 . S
C2165 C2164 1.377 . S
C2165 C2171 1.390 . S
C2166 H2157 0.930 . S
C2166 C2164 1.384 . S
C2166 C2167 1.372 . S
C2167 C2166 1.372 . S
C2167 C2168 1.400 . S
C2167 C2172 1.490 . S
C2168 H2158 0.930 . S
C2168 C2167 1.400 . S
C2168 C2171 1.386 . S
H2169 C2185 0.930 . S
H2170 C2186 0.931 . S
C2171 H2159 0.929 . S
C2171 C2165 1.390 . S
C2171 C2168 1.386 . S
C2172 C2167 1.490 . S
C2172 C2174 1.395 . S
C2172 C2175 1.403 . S
H2173 C2179 0.930 . S
C2174 H2160 0.930 . S
C2174 C2172 1.395 . S
C2174 C2177 1.403 . S
C2175 C2172 1.403 . S
C2175 C2176 1.524 . S
C2175 C2179 1.400 . S
C2176 H2161 0.960 . S
C2176 H2162 0.960 . S
C2176 H2163 0.960 . S
C2176 C2175 1.524 . S
C2177 C2174 1.403 . S
C2177 C2178 1.392 . S
C2177 C2181 1.495 . S
C2178 C2177 1.392 . S
C2178 C2179 1.385 . S
C2178 C2180 1.478 . S
C2179 H2173 0.930 . S
C2179 C2175 1.400 . S
C2179 C2178 1.385 . S
C2180 C2178 1.478 . S
C2180 C2182 1.381 . S
C2180 C2186 1.383 . S
C2181 C2177 1.495 . S
C2181 H2187 0.959 . S
C2181 H2188 0.961 . S
C2181 H2189 0.960 . S
C2182 C2180 1.381 . S
C2182 C2183 1.394 . S
C2182 H2190 0.930 . S
C2183 C2182 1.394 . S
C2183 C2184 1.383 . S
C2183 H2191 0.929 . S
C2184 C2183 1.383 . S
C2184 C2185 1.377 . S
C2185 H2169 0.930 . S
C2185 C2184 1.377 . S
C2185 C2186 1.379 . S
C2186 H2170 0.931 . S
C2186 C2180 1.383 . S
C2186 C2185 1.379 . S
H2187 C2181 0.959 . S
H2188 C2181 0.961 . S
H2189 C2181 0.960 . S
H2190 C2182 0.930 . S
H2191 C2183 0.929 . S
H2192 C2200 0.929 . S
H2193 C2202 0.930 . S
H2194 C2204 0.930 . S
H2195 C2207 0.929 . S
H2196 C2210 0.930 . S
H2197 C2212 0.960 . S
H2198 C2212 0.960 . S
H2199 C2212 0.960 . S
C2200 H2192 0.929 . S
C2200 C2201 1.377 . S
C2200 C2202 1.384 . S
C2201 C2200 1.377 . S
C2201 C2207 1.390 . S
C2202 H2193 0.930 . S
C2202 C2200 1.384 . S
C2202 C2203 1.372 . S
C2203 C2202 1.372 . S
C2203 C2204 1.400 . S
C2203 C2208 1.490 . S
C2204 H2194 0.930 . S
C2204 C2203 1.400 . S
C2204 C2207 1.386 . S
H2205 C2221 0.930 . S
H2206 C2222 0.931 . S
C2207 H2195 0.929 . S
C2207 C2201 1.390 . S
C2207 C2204 1.386 . S
C2208 C2203 1.490 . S
C2208 C2210 1.395 . S
C2208 C2211 1.403 . S
H2209 C2215 0.930 . S
C2210 H2196 0.930 . S
C2210 C2208 1.395 . S
C2210 C2213 1.403 . S
C2211 C2208 1.403 . S
C2211 C2212 1.524 . S
C2211 C2215 1.400 . S
C2212 H2197 0.960 . S
C2212 H2198 0.960 . S
C2212 H2199 0.960 . S
C2212 C2211 1.524 . S
C2213 C2210 1.403 . S
C2213 C2214 1.392 . S
C2213 C2217 1.495 . S
C2214 C2213 1.392 . S
C2214 C2215 1.385 . S
C2214 C2216 1.478 . S
C2215 H2209 0.930 . S
C2215 C2211 1.400 . S
C2215 C2214 1.385 . S
C2216 C2214 1.478 . S
C2216 C2218 1.381 . S
C2216 C2222 1.383 . S
C2217 C2213 1.495 . S
C2217 H2223 0.959 . S
C2217 H2224 0.961 . S
C2217 H2225 0.960 . S
C2218 C2216 1.381 . S
C2218 C2219 1.394 . S
C2218 H2226 0.930 . S
C2219 C2218 1.394 . S
C2219 C2220 1.383 . S
C2219 H2227 0.929 . S
C2220 C2219 1.383 . S
C2220 C2221 1.377 . S
C2221 H2205 0.930 . S
C2221 C2220 1.377 . S
C2221 C2222 1.379 . S
C2222 H2206 0.931 . S
C2222 C2216 1.383 . S
C2222 C2221 1.379 . S
H2223 C2217 0.959 . S
H2224 C2217 0.961 . S
H2225 C2217 0.960 . S
H2226 C2218 0.930 . S
H2227 C2219 0.929 . S
H2228 C2236 0.929 . S
H2229 C2238 0.930 . S
H2230 C2240 0.930 . S
H2231 C2243 0.929 . S
H2232 C2246 0.930 . S
H2233 C2248 0.960 . S
H2234 C2248 0.960 . S
H2235 C2248 0.960 . S
C2236 H2228 0.929 . S
C2236 C2237 1.377 . S
C2236 C2238 1.384 . S
C2237 C2236 1.377 . S
C2237 C2243 1.390 . S
C2238 H2229 0.930 . S
C2238 C2236 1.384 . S
C2238 C2239 1.372 . S
C2239 C2238 1.372 . S
C2239 C2240 1.400 . S
C2239 C2244 1.490 . S
C2240 H2230 0.930 . S
C2240 C2239 1.400 . S
C2240 C2243 1.386 . S
H2241 C2257 0.930 . S
H2242 C2258 0.931 . S
C2243 H2231 0.929 . S
C2243 C2237 1.390 . S
C2243 C2240 1.386 . S
C2244 C2239 1.490 . S
C2244 C2246 1.395 . S
C2244 C2247 1.403 . S
H2245 C2251 0.930 . S
C2246 H2232 0.930 . S
C2246 C2244 1.395 . S
C2246 C2249 1.403 . S
C2247 C2244 1.403 . S
C2247 C2248 1.524 . S
C2247 C2251 1.400 . S
C2248 H2233 0.960 . S
C2248 H2234 0.960 . S
C2248 H2235 0.960 . S
C2248 C2247 1.524 . S
C2249 C2246 1.403 . S
C2249 C2250 1.392 . S
C2249 C2253 1.495 . S
C2250 C2249 1.392 . S
C2250 C2251 1.385 . S
C2250 C2252 1.478 . S
C2251 H2245 0.930 . S
C2251 C2247 1.400 . S
C2251 C2250 1.385 . S
C2252 C2250 1.478 . S
C2252 C2254 1.381 . S
C2252 C2258 1.383 . S
C2253 C2249 1.495 . S
C2253 H2259 0.959 . S
C2253 H2260 0.961 . S
C2253 H2261 0.960 . S
C2254 C2252 1.381 . S
C2254 C2255 1.394 . S
C2254 H2262 0.930 . S
C2255 C2254 1.394 . S
C2255 C2256 1.383 . S
C2255 H2263 0.929 . S
C2256 C2255 1.383 . S
C2256 C2257 1.377 . S
C2257 H2241 0.930 . S
C2257 C2256 1.377 . S
C2257 C2258 1.379 . S
C2258 H2242 0.931 . S
C2258 C2252 1.383 . S
C2258 C2257 1.379 . S
H2259 C2253 0.959 . S
H2260 C2253 0.961 . S
H2261 C2253 0.960 . S
H2262 C2254 0.930 . S
H2263 C2255 0.929 . S
H2264 C2272 0.929 . S
H2265 C2274 0.930 . S
H2266 C2276 0.930 . S
H2267 C2279 0.929 . S
H2268 C2282 0.930 . S
H2269 C2284 0.960 . S
H2270 C2284 0.960 . S
H2271 C2284 0.960 . S
C2272 H2264 0.929 . S
C2272 C2273 1.377 . S
C2272 C2274 1.384 . S
C2273 C2272 1.377 . S
C2273 C2279 1.390 . S
C2274 H2265 0.930 . S
C2274 C2272 1.384 . S
C2274 C2275 1.372 . S
C2275 C2274 1.372 . S
C2275 C2276 1.400 . S
C2275 C2280 1.490 . S
C2276 H2266 0.930 . S
C2276 C2275 1.400 . S
C2276 C2279 1.386 . S
H2277 C2293 0.930 . S
H2278 C2294 0.931 . S
C2279 H2267 0.929 . S
C2279 C2273 1.390 . S
C2279 C2276 1.386 . S
C2280 C2275 1.490 . S
C2280 C2282 1.395 . S
C2280 C2283 1.403 . S
H2281 C2287 0.930 . S
C2282 H2268 0.930 . S
C2282 C2280 1.395 . S
C2282 C2285 1.403 . S
C2283 C2280 1.403 . S
C2283 C2284 1.524 . S
C2283 C2287 1.400 . S
C2284 H2269 0.960 . S
C2284 H2270 0.960 . S
C2284 H2271 0.960 . S
C2284 C2283 1.524 . S
C2285 C2282 1.403 . S
C2285 C2286 1.392 . S
C2285 C2289 1.495 . S
C2286 C2285 1.392 . S
C2286 C2287 1.385 . S
C2286 C2288 1.478 . S
C2287 H2281 0.930 . S
C2287 C2283 1.400 . S
C2287 C2286 1.385 . S
C2288 C2286 1.478 . S
C2288 C2290 1.381 . S
C2288 C2294 1.383 . S
C2289 C2285 1.495 . S
C2289 H2295 0.959 . S
C2289 H2296 0.961 . S
C2289 H2297 0.960 . S
C2290 C2288 1.381 . S
C2290 C2291 1.394 . S
C2290 H2298 0.930 . S
C2291 C2290 1.394 . S
C2291 C2292 1.383 . S
C2291 H2299 0.929 . S
C2292 C2291 1.383 . S
C2292 C2293 1.377 . S
C2293 H2277 0.930 . S
C2293 C2292 1.377 . S
C2293 C2294 1.379 . S
C2294 H2278 0.931 . S
C2294 C2288 1.383 . S
C2294 C2293 1.379 . S
H2295 C2289 0.959 . S
H2296 C2289 0.961 . S
H2297 C2289 0.960 . S
H2298 C2290 0.930 . S
H2299 C2291 0.929 . S
H2300 C2308 0.929 . S
H2301 C2310 0.930 . S
H2302 C2312 0.930 . S
H2303 C2315 0.929 . S
H2304 C2318 0.930 . S
H2305 C2320 0.960 . S
H2306 C2320 0.960 . S
H2307 C2320 0.960 . S
C2308 H2300 0.929 . S
C2308 C2309 1.377 . S
C2308 C2310 1.384 . S
C2309 C2308 1.377 . S
C2309 C2315 1.390 . S
C2310 H2301 0.930 . S
C2310 C2308 1.384 . S
C2310 C2311 1.372 . S
C2311 C2310 1.372 . S
C2311 C2312 1.400 . S
C2311 C2316 1.490 . S
C2312 H2302 0.930 . S
C2312 C2311 1.400 . S
C2312 C2315 1.386 . S
H2313 C2329 0.930 . S
H2314 C2330 0.931 . S
C2315 H2303 0.929 . S
C2315 C2309 1.390 . S
C2315 C2312 1.386 . S
C2316 C2311 1.490 . S
C2316 C2318 1.395 . S
C2316 C2319 1.403 . S
H2317 C2323 0.930 . S
C2318 H2304 0.930 . S
C2318 C2316 1.395 . S
C2318 C2321 1.403 . S
C2319 C2316 1.403 . S
C2319 C2320 1.524 . S
C2319 C2323 1.400 . S
C2320 H2305 0.960 . S
C2320 H2306 0.960 . S
C2320 H2307 0.960 . S
C2320 C2319 1.524 . S
C2321 C2318 1.403 . S
C2321 C2322 1.392 . S
C2321 C2325 1.495 . S
C2322 C2321 1.392 . S
C2322 C2323 1.385 . S
C2322 C2324 1.478 . S
C2323 H2317 0.930 . S
C2323 C2319 1.400 . S
C2323 C2322 1.385 . S
C2324 C2322 1.478 . S
C2324 C2326 1.381 . S
C2324 C2330 1.383 . S
C2325 C2321 1.495 . S
C2325 H2331 0.959 . S
C2325 H2332 0.961 . S
C2325 H2333 0.960 . S
C2326 C2324 1.381 . S
C2326 C2327 1.394 . S
C2326 H2334 0.930 . S
C2327 C2326 1.394 . S
C2327 C2328 1.383 . S
C2327 H2335 0.929 . S
C2328 C2327 1.383 . S
C2328 C2329 1.377 . S
C2329 H2313 0.930 . S
C2329 C2328 1.377 . S
C2329 C2330 1.379 . S
C2330 H2314 0.931 . S
C2330 C2324 1.383 . S
C2330 C2329 1.379 . S
H2331 C2325 0.959 . S
H2332 C2325 0.961 . S
H2333 C2325 0.960 . S
H2334 C2326 0.930 . S
H2335 C2327 0.929 . S
H2336 C2344 0.929 . S
H2337 C2346 0.930 . S
H2338 C2348 0.930 . S
H2339 C2351 0.929 . S
H2340 C2354 0.930 . S
H2341 C2356 0.960 . S
H2342 C2356 0.960 . S
H2343 C2356 0.960 . S
C2344 H2336 0.929 . S
C2344 C2345 1.377 . S
C2344 C2346 1.384 . S
C2345 C2344 1.377 . S
C2345 C2351 1.390 . S
C2346 H2337 0.930 . S
C2346 C2344 1.384 . S
C2346 C2347 1.372 . S
C2347 C2346 1.372 . S
C2347 C2348 1.400 . S
C2347 C2352 1.490 . S
C2348 H2338 0.930 . S
C2348 C2347 1.400 . S
C2348 C2351 1.386 . S
H2349 C2365 0.930 . S
H2350 C2366 0.931 . S
C2351 H2339 0.929 . S
C2351 C2345 1.390 . S
C2351 C2348 1.386 . S
C2352 C2347 1.490 . S
C2352 C2354 1.395 . S
C2352 C2355 1.403 . S
H2353 C2359 0.930 . S
C2354 H2340 0.930 . S
C2354 C2352 1.395 . S
C2354 C2357 1.403 . S
C2355 C2352 1.403 . S
C2355 C2356 1.524 . S
C2355 C2359 1.400 . S
C2356 H2341 0.960 . S
C2356 H2342 0.960 . S
C2356 H2343 0.960 . S
C2356 C2355 1.524 . S
C2357 C2354 1.403 . S
C2357 C2358 1.392 . S
C2357 C2361 1.495 . S
C2358 C2357 1.392 . S
C2358 C2359 1.385 . S
C2358 C2360 1.478 . S
C2359 H2353 0.930 . S
C2359 C2355 1.400 . S
C2359 C2358 1.385 . S
C2360 C2358 1.478 . S
C2360 C2362 1.381 . S
C2360 C2366 1.383 . S
C2361 C2357 1.495 . S
C2361 H2367 0.959 . S
C2361 H2368 0.961 . S
C2361 H2369 0.960 . S
C2362 C2360 1.381 . S
C2362 C2363 1.394 . S
C2362 H2370 0.930 . S
C2363 C2362 1.394 . S
C2363 C2364 1.383 . S
C2363 H2371 0.929 . S
C2364 C2363 1.383 . S
C2364 C2365 1.377 . S
C2365 H2349 0.930 . S
C2365 C2364 1.377 . S
C2365 C2366 1.379 . S
C2366 H2350 0.931 . S
C2366 C2360 1.383 . S
C2366 C2365 1.379 . S
H2367 C2361 0.959 . S
H2368 C2361 0.961 . S
H2369 C2361 0.960 . S
H2370 C2362 0.930 . S
H2371 C2363 0.929 . S
H2372 C2380 0.929 . S
H2373 C2382 0.930 . S
H2374 C2384 0.930 . S
H2375 C2387 0.929 . S
H2376 C2390 0.930 . S
H2377 C2392 0.960 . S
H2378 C2392 0.960 . S
H2379 C2392 0.960 . S
C2380 H2372 0.929 . S
C2380 C2381 1.377 . S
C2380 C2382 1.384 . S
C2381 C2380 1.377 . S
C2381 C2387 1.390 . S
C2382 H2373 0.930 . S
C2382 C2380 1.384 . S
C2382 C2383 1.372 . S
C2383 C2382 1.372 . S
C2383 C2384 1.400 . S
C2383 C2388 1.490 . S
C2384 H2374 0.930 . S
C2384 C2383 1.400 . S
C2384 C2387 1.386 . S
H2385 C2401 0.930 . S
H2386 C2402 0.931 . S
C2387 H2375 0.929 . S
C2387 C2381 1.390 . S
C2387 C2384 1.386 . S
C2388 C2383 1.490 . S
C2388 C2390 1.395 . S
C2388 C2391 1.403 . S
H2389 C2395 0.930 . S
C2390 H2376 0.930 . S
C2390 C2388 1.395 . S
C2390 C2393 1.403 . S
C2391 C2388 1.403 . S
C2391 C2392 1.524 . S
C2391 C2395 1.400 . S
C2392 H2377 0.960 . S
C2392 H2378 0.960 . S
C2392 H2379 0.960 . S
C2392 C2391 1.524 . S
C2393 C2390 1.403 . S
C2393 C2394 1.392 . S
C2393 C2397 1.495 . S
C2394 C2393 1.392 . S
C2394 C2395 1.385 . S
C2394 C2396 1.478 . S
C2395 H2389 0.930 . S
C2395 C2391 1.400 . S
C2395 C2394 1.385 . S
C2396 C2394 1.478 . S
C2396 C2398 1.381 . S
C2396 C2402 1.383 . S
C2397 C2393 1.495 . S
C2397 H2403 0.959 . S
C2397 H2404 0.961 . S
C2397 H2405 0.960 . S
C2398 C2396 1.381 . S
C2398 C2399 1.394 . S
C2398 H2406 0.930 . S
C2399 C2398 1.394 . S
C2399 C2400 1.383 . S
C2399 H2407 0.929 . S
C2400 C2399 1.383 . S
C2400 C2401 1.377 . S
C2401 H2385 0.930 . S
C2401 C2400 1.377 . S
C2401 C2402 1.379 . S
C2402 H2386 0.931 . S
C2402 C2396 1.383 . S
C2402 C2401 1.379 . S
H2403 C2397 0.959 . S
H2404 C2397 0.961 . S
H2405 C2397 0.960 . S
H2406 C2398 0.930 . S
H2407 C2399 0.929 . S
H2408 C2416 0.929 . S
H2409 C2418 0.930 . S
H2410 C2420 0.930 . S
H2411 C2423 0.929 . S
H2412 C2426 0.930 . S
H2413 C2428 0.960 . S
H2414 C2428 0.960 . S
H2415 C2428 0.960 . S
C2416 H2408 0.929 . S
C2416 C2417 1.377 . S
C2416 C2418 1.384 . S
C2417 C2416 1.377 . S
C2417 C2423 1.390 . S
C2418 H2409 0.930 . S
C2418 C2416 1.384 . S
C2418 C2419 1.372 . S
C2419 C2418 1.372 . S
C2419 C2420 1.400 . S
C2419 C2424 1.490 . S
C2420 H2410 0.930 . S
C2420 C2419 1.400 . S
C2420 C2423 1.386 . S
H2421 C2437 0.930 . S
H2422 C2438 0.931 . S
C2423 H2411 0.929 . S
C2423 C2417 1.390 . S
C2423 C2420 1.386 . S
C2424 C2419 1.490 . S
C2424 C2426 1.395 . S
C2424 C2427 1.403 . S
H2425 C2431 0.930 . S
C2426 H2412 0.930 . S
C2426 C2424 1.395 . S
C2426 C2429 1.403 . S
C2427 C2424 1.403 . S
C2427 C2428 1.524 . S
C2427 C2431 1.400 . S
C2428 H2413 0.960 . S
C2428 H2414 0.960 . S
C2428 H2415 0.960 . S
C2428 C2427 1.524 . S
C2429 C2426 1.403 . S
C2429 C2430 1.392 . S
C2429 C2433 1.495 . S
C2430 C2429 1.392 . S
C2430 C2431 1.385 . S
C2430 C2432 1.478 . S
C2431 H2425 0.930 . S
C2431 C2427 1.400 . S
C2431 C2430 1.385 . S
C2432 C2430 1.478 . S
C2432 C2434 1.381 . S
C2432 C2438 1.383 . S
C2433 C2429 1.495 . S
C2433 H2439 0.959 . S
C2433 H2440 0.961 . S
C2433 H2441 0.960 . S
C2434 C2432 1.381 . S
C2434 C2435 1.394 . S
C2434 H2442 0.930 . S
C2435 C2434 1.394 . S
C2435 C2436 1.383 . S
C2435 H2443 0.929 . S
C2436 C2435 1.383 . S
C2436 C2437 1.377 . S
C2437 H2421 0.930 . S
C2437 C2436 1.377 . S
C2437 C2438 1.379 . S
C2438 H2422 0.931 . S
C2438 C2432 1.383 . S
C2438 C2437 1.379 . S
H2439 C2433 0.959 . S
H2440 C2433 0.961 . S
H2441 C2433 0.960 . S
H2442 C2434 0.930 . S
H2443 C2435 0.929 . S
H2444 C2452 0.929 . S
H2445 C2454 0.930 . S
H2446 C2456 0.930 . S
H2447 C2459 0.929 . S
H2448 C2462 0.930 . S
H2449 C2464 0.960 . S
H2450 C2464 0.960 . S
H2451 C2464 0.960 . S
C2452 H2444 0.929 . S
C2452 C2453 1.377 . S
C2452 C2454 1.384 . S
C2453 C2452 1.377 . S
C2453 C2459 1.390 . S
C2454 H2445 0.930 . S
C2454 C2452 1.384 . S
C2454 C2455 1.372 . S
C2455 C2454 1.372 . S
C2455 C2456 1.400 . S
C2455 C2460 1.490 . S
C2456 H2446 0.930 . S
C2456 C2455 1.400 . S
C2456 C2459 1.386 . S
H2457 C2473 0.930 . S
H2458 C2474 0.931 . S
C2459 H2447 0.929 . S
C2459 C2453 1.390 . S
C2459 C2456 1.386 . S
C2460 C2455 1.490 . S
C2460 C2462 1.395 . S
C2460 C2463 1.403 . S
H2461 C2467 0.930 . S
C2462 H2448 0.930 . S
C2462 C2460 1.395 . S
C2462 C2465 1.403 . S
C2463 C2460 1.403 . S
C2463 C2464 1.524 . S
C2463 C2467 1.400 . S
C2464 H2449 0.960 . S
C2464 H2450 0.960 . S
C2464 H2451 0.960 . S
C2464 C2463 1.524 . S
C2465 C2462 1.403 . S
C2465 C2466 1.392 . S
C2465 C2469 1.495 . S
C2466 C2465 1.392 . S
C2466 C2467 1.385 . S
C2466 C2468 1.478 . S
C2467 H2461 0.930 . S
C2467 C2463 1.400 . S
C2467 C2466 1.385 . S
C2468 C2466 1.478 . S
C2468 C2470 1.381 . S
C2468 C2474 1.383 . S
C2469 C2465 1.495 . S
C2469 H2475 0.959 . S
C2469 H2476 0.961 . S
C2469 H2477 0.960 . S
C2470 C2468 1.381 . S
C2470 C2471 1.394 . S
C2470 H2478 0.930 . S
C2471 C2470 1.394 . S
C2471 C2472 1.383 . S
C2471 H2479 0.929 . S
C2472 C2471 1.383 . S
C2472 C2473 1.377 . S
C2473 H2457 0.930 . S
C2473 C2472 1.377 . S
C2473 C2474 1.379 . S
C2474 H2458 0.931 . S
C2474 C2468 1.383 . S
C2474 C2473 1.379 . S
H2475 C2469 0.959 . S
H2476 C2469 0.961 . S
H2477 C2469 0.960 . S
H2478 C2470 0.930 . S
H2479 C2471 0.929 . S
C473 C245 1.659 . S
C492 C13 1.660 . S
C509 C42 1.650 . S
C528 C274 1.618 . S
C545 C303 1.647 . S
C564 C71 1.624 . S
C581 C100 1.659 . S
C600 C332 1.653 . S
C617 C129 1.647 . S
C636 C361 1.633 . S
C653 C158 1.647 . S
C672 C390 1.626 . S
C689 C419 1.657 . S
C708 C187 1.639 . S
C725 C448 1.654 . S
C744 C216 1.626 . S
C761 C15 2.961 . S
C780 C37 2.623 . S
C797 C66 2.608 . S
C816 C44 2.950 . S
C833 C95 2.608 . S
C852 C73 2.952 . S
C869 C8 2.604 . S
C888 C102 2.961 . S
C905 C211 2.599 . S
C924 C131 2.956 . S
C941 C124 2.603 . S
C960 C160 2.962 . S
C977 C189 2.965 . S
C996 C153 2.576 . S
C1013 C218 2.964 . S
C1032 C182 2.592 . S
C1049 C269 2.602 . S
C1068 C247 2.967 . S
C1085 C276 2.964 . S
C1104 C298 2.613 . S
C1121 C327 2.599 . S
C1140 C305 2.951 . S
C1157 C240 2.596 . S
C1176 C334 2.960 . S
C1193 C443 2.596 . S
C1212 C363 2.959 . S
C1229 C356 2.605 . S
C1248 C392 2.949 . S
C1265 C385 2.599 . S
C1284 C421 2.966 . S
C1301 C414 2.596 . S
C1320 C450 2.958 . S
C1337 C266 0.824 . S
C1356 C3 0.847 . S
C1373 C295 0.825 . S
C1392 C32 0.847 . S
C1409 C324 0.826 . S
C1428 C61 0.833 . S
C1445 C237 0.825 . S
C1464 C90 0.833 . S
C1481 C440 0.821 . S
C1500 C119 0.846 . S
C1517 C353 0.825 . S
C1536 C148 0.833 . S
C1553 C177 0.842 . S
C1572 C382 0.821 . S
C1589 C411 0.819 . S
C1608 C206 0.834 . S
C1625 C235 0.841 . S
C1644 C34 0.844 . S
C1661 C264 0.840 . S
C1680 C63 0.823 . S
C1697 C293 0.839 . S
C1716 C92 0.860 . S
C1733 C5 0.817 . S
C1752 C322 0.847 . S
C1769 C351 0.840 . S
C1788 C208 0.819 . S
C1805 C121 0.821 . S
C1824 C380 0.839 . S
C1841 C409 0.842 . S
C1860 C150 0.774 . S
C1877 C438 0.841 . S
C1896 C179 0.773 . S
C1913 C155 1.736 . S
C1932 C10 1.727 . S
C1949 C184 1.742 . S
C1968 C39 1.737 . S
C1985 C213 1.742 . S
C2004 C68 1.736 . S
C2021 C126 1.743 . S
C2040 C97 1.730 . S
C2057 C387 1.736 . S
C2076 C242 1.715 . S
C2093 C271 1.735 . S
C2112 C416 1.728 . S
C2129 C300 1.744 . S
C2148 C445 1.756 . S
C2165 C329 1.734 . S
C2184 C358 1.721 . S
C2201 C79 0.789 . S
C2220 C21 0.765 . S
C2237 C50 0.782 . S
C2256 C108 0.843 . S
C2273 C195 0.762 . S
C2292 C137 0.796 . S
C2309 C224 0.788 . S
C2328 C166 0.757 . S
C2345 C253 0.761 . S
C2364 C311 0.708 . S
C2381 C340 0.787 . S
C2400 C282 0.844 . S
C2417 C427 0.785 . S
C2436 C369 0.845 . S
C2453 C456 0.770 . S
C2472 C398 0.708 . S
