# Generated by pormake.
# Topology why, (6)-cn, num edge types: 1
# Building blocks:
#     Node 0, Type 0, BuildingBlock: UKALOJ_clean_sbu_0, # of connection points: 6
#     Node 1, Type 0, BuildingBlock: UKALOJ_clean_sbu_0, # of connection points: 6
#     Node 2, Type 0, BuildingBlock: UKALOJ_clean_sbu_0, # of connection points: 6
#     Node 3, Type 0, BuildingBlock: UKALOJ_clean_sbu_0, # of connection points: 6
#     Node 4, Type 0, BuildingBlock: UKALOJ_clean_sbu_0, # of connection points: 6
#     Node 5, Type 0, BuildingBlock: UKALOJ_clean_sbu_0, # of connection points: 6
#     Node 6, Type 0, BuildingBlock: UKALOJ_clean_sbu_0, # of connection points: 6
#     Node 7, Type 0, BuildingBlock: UKALOJ_clean_sbu_0, # of connection points: 6
#     Node 8, Type 0, BuildingBlock: UKALOJ_clean_sbu_0, # of connection points: 6
#     Node 9, Type 0, BuildingBlock: UKALOJ_clean_sbu_0, # of connection points: 6
#     Node 10, Type 0, BuildingBlock: UKALOJ_clean_sbu_0, # of connection points: 6
#     Node 11, Type 0, BuildingBlock: UKALOJ_clean_sbu_0, # of connection points: 6
#     Node 12, Type 0, BuildingBlock: UKALOJ_clean_sbu_0, # of connection points: 6
#     Node 13, Type 0, BuildingBlock: UKALOJ_clean_sbu_0, # of connection points: 6
#     Node 14, Type 0, BuildingBlock: UKALOJ_clean_sbu_0, # of connection points: 6
#     Node 15, Type 0, BuildingBlock: UKALOJ_clean_sbu_0, # of connection points: 6
#     Edge 16, Type (0, 0), BuildingBlock: EZIPEK_clean_linker_0, # of connection points: 2
#     Edge 17, Type (0, 0), BuildingBlock: EZIPEK_clean_linker_0, # of connection points: 2
#     Edge 18, Type (0, 0), BuildingBlock: EZIPEK_clean_linker_0, # of connection points: 2
#     Edge 19, Type (0, 0), BuildingBlock: EZIPEK_clean_linker_0, # of connection points: 2
#     Edge 20, Type (0, 0), BuildingBlock: EZIPEK_clean_linker_0, # of connection points: 2
#     Edge 21, Type (0, 0), BuildingBlock: EZIPEK_clean_linker_0, # of connection points: 2
#     Edge 22, Type (0, 0), BuildingBlock: EZIPEK_clean_linker_0, # of connection points: 2
#     Edge 23, Type (0, 0), BuildingBlock: EZIPEK_clean_linker_0, # of connection points: 2
#     Edge 24, Type (0, 0), BuildingBlock: EZIPEK_clean_linker_0, # of connection points: 2
#     Edge 25, Type (0, 0), BuildingBlock: EZIPEK_clean_linker_0, # of connection points: 2
#     Edge 26, Type (0, 0), BuildingBlock: EZIPEK_clean_linker_0, # of connection points: 2
#     Edge 27, Type (0, 0), BuildingBlock: EZIPEK_clean_linker_0, # of connection points: 2
#     Edge 28, Type (0, 0), BuildingBlock: EZIPEK_clean_linker_0, # of connection points: 2
#     Edge 29, Type (0, 0), BuildingBlock: EZIPEK_clean_linker_0, # of connection points: 2
#     Edge 30, Type (0, 0), BuildingBlock: EZIPEK_clean_linker_0, # of connection points: 2
#     Edge 31, Type (0, 0), BuildingBlock: EZIPEK_clean_linker_0, # of connection points: 2
#     Edge 32, Type (0, 0), BuildingBlock: EZIPEK_clean_linker_0, # of connection points: 2
#     Edge 33, Type (0, 0), BuildingBlock: EZIPEK_clean_linker_0, # of connection points: 2
#     Edge 34, Type (0, 0), BuildingBlock: EZIPEK_clean_linker_0, # of connection points: 2
#     Edge 35, Type (0, 0), BuildingBlock: EZIPEK_clean_linker_0, # of connection points: 2
#     Edge 36, Type (0, 0), BuildingBlock: EZIPEK_clean_linker_0, # of connection points: 2
#     Edge 37, Type (0, 0), BuildingBlock: EZIPEK_clean_linker_0, # of connection points: 2
#     Edge 38, Type (0, 0), BuildingBlock: EZIPEK_clean_linker_0, # of connection points: 2
#     Edge 39, Type (0, 0), BuildingBlock: EZIPEK_clean_linker_0, # of connection points: 2
#     Edge 40, Type (0, 0), BuildingBlock: EZIPEK_clean_linker_0, # of connection points: 2
#     Edge 41, Type (0, 0), BuildingBlock: EZIPEK_clean_linker_0, # of connection points: 2
#     Edge 42, Type (0, 0), BuildingBlock: EZIPEK_clean_linker_0, # of connection points: 2
#     Edge 43, Type (0, 0), BuildingBlock: EZIPEK_clean_linker_0, # of connection points: 2
#     Edge 44, Type (0, 0), BuildingBlock: EZIPEK_clean_linker_0, # of connection points: 2
#     Edge 45, Type (0, 0), BuildingBlock: EZIPEK_clean_linker_0, # of connection points: 2
#     Edge 46, Type (0, 0), BuildingBlock: EZIPEK_clean_linker_0, # of connection points: 2
#     Edge 47, Type (0, 0), BuildingBlock: EZIPEK_clean_linker_0, # of connection points: 2
#     Edge 48, Type (0, 0), BuildingBlock: EZIPEK_clean_linker_0, # of connection points: 2
#     Edge 49, Type (0, 0), BuildingBlock: EZIPEK_clean_linker_0, # of connection points: 2
#     Edge 50, Type (0, 0), BuildingBlock: EZIPEK_clean_linker_0, # of connection points: 2
#     Edge 51, Type (0, 0), BuildingBlock: EZIPEK_clean_linker_0, # of connection points: 2
#     Edge 52, Type (0, 0), BuildingBlock: EZIPEK_clean_linker_0, # of connection points: 2
#     Edge 53, Type (0, 0), BuildingBlock: EZIPEK_clean_linker_0, # of connection points: 2
#     Edge 54, Type (0, 0), BuildingBlock: EZIPEK_clean_linker_0, # of connection points: 2
#     Edge 55, Type (0, 0), BuildingBlock: EZIPEK_clean_linker_0, # of connection points: 2
#     Edge 56, Type (0, 0), BuildingBlock: EZIPEK_clean_linker_0, # of connection points: 2
#     Edge 57, Type (0, 0), BuildingBlock: EZIPEK_clean_linker_0, # of connection points: 2
#     Edge 58, Type (0, 0), BuildingBlock: EZIPEK_clean_linker_0, # of connection points: 2
#     Edge 59, Type (0, 0), BuildingBlock: EZIPEK_clean_linker_0, # of connection points: 2
#     Edge 60, Type (0, 0), BuildingBlock: EZIPEK_clean_linker_0, # of connection points: 2
#     Edge 61, Type (0, 0), BuildingBlock: EZIPEK_clean_linker_0, # of connection points: 2
#     Edge 62, Type (0, 0), BuildingBlock: EZIPEK_clean_linker_0, # of connection points: 2
#     Edge 63, Type (0, 0), BuildingBlock: EZIPEK_clean_linker_0, # of connection points: 2
# Relax obj value: 0.506
# Max RMSD: 0.179
# Mean RMSD: 0.179
data_MOF--net-why--node1-UKALOJ_clean_sbu_0--edge1-EZIPEK_clean_linker_0
_symmetry_space_group_name_H-M    P1
_symmetry_Int_Tables_number       1
_symmetry_cell_setting            triclinic
loop_
_symmetry_equiv_pos_as_xyz
'x, y, z'
_cell_length_a     40.039042
_cell_length_b     40.012346
_cell_length_c     19.476346
_cell_angle_alpha  89.76356
_cell_angle_beta   89.966628
_cell_angle_gamma 90.007393
loop_
_atom_site_label
_atom_site_type_symbol
_atom_site_fract_x
_atom_site_fract_y
_atom_site_fract_z
_atom_type_partial_charge
Zn0 Zn 0.33314 0.20113 0.03695 0.0
O1 O 0.32865 0.15227 0.08031 0.0
C2 C 0.30655 0.23573 0.16755 0.0
Zn3 Zn 0.37369 0.21048 0.1111 0.0
C4 C 0.34527 0.14303 0.13221 0.0
O5 O 0.36407 0.16436 0.16051 0.0
C6 C 0.36849 0.2659 1.00275 0.0
O7 O 0.4091 0.18355 0.04531 0.0
O8 O 0.37005 0.17951 0.96667 0.0
N9 N 0.40626 0.21895 0.18984 0.0
C10 C 0.43658 0.23262 0.19862 0.0
C11 C 0.41796 0.22046 0.29857 0.0
N12 N 0.39486 0.21147 0.25208 0.0
N13 N 0.44443 0.23368 0.26612 0.0
C14 C 0.26616 0.17131 0.98562 0.0
C15 C 0.26627 0.18102 0.87798 0.0
N16 N 0.29423 0.18892 0.97159 0.0
N17 N 0.29416 0.19498 0.90461 0.0
N18 N 0.24844 0.16589 0.92794 0.0
H19 H 0.25886 0.13037 0.05507 0.0
H20 H 0.22964 0.16352 0.06543 0.0
H21 H 0.27121 0.16853 0.09706 0.0
C22 C 0.25625 0.15796 0.05496 0.0
C23 C 0.45814 0.24542 0.14159 0.0
H24 H 0.44714 0.23942 0.09099 0.0
H25 H 0.4834 0.2342 0.1458 0.0
H26 H 0.46088 0.27291 0.1463 0.0
O27 O 0.38568 0.25641 0.05475 0.0
O28 O 0.34186 0.24964 0.98818 0.0
C29 C 0.40009 0.17362 0.98559 0.0
O30 O 0.29629 0.22295 0.1114 0.0
O31 O 0.33787 0.23602 0.17783 0.0
Zn32 Zn 0.55306 0.61744 0.34381 0.0
O33 O 0.57885 0.65381 0.27887 0.0
C34 C 0.50113 0.61002 0.23543 0.0
Zn35 Zn 0.56866 0.57748 0.27466 0.0
C36 C 0.59228 0.64491 0.22225 0.0
O37 O 0.59052 0.61417 0.20508 0.0
C38 C 0.53169 0.55021 0.40259 0.0
O39 O 0.61746 0.57559 0.32282 0.0
O40 O 0.59728 0.61028 0.39653 0.0
N41 N 0.58246 0.53862 0.21085 0.0
C42 C 0.59884 0.50999 0.22607 0.0
C43 C 0.59102 0.51047 0.11787 0.0
N44 N 0.57756 0.53879 0.14354 0.0
N45 N 0.60467 0.49208 0.16878 0.0
C46 C 0.52908 0.6807 0.42088 0.0
C47 C 0.53993 0.66558 0.52409 0.0
N48 N 0.54273 0.65024 0.41789 0.0
N49 N 0.54943 0.64088 0.48189 0.0
N50 N 0.5272 0.6907 0.48664 0.0
H51 H 0.52724 0.69034 0.31173 0.0
H52 H 0.52322 0.72697 0.36583 0.0
H53 H 0.48905 0.69825 0.35808 0.0
C54 C 0.51668 0.70016 0.36021 0.0
C55 C 0.60934 0.49902 0.2967 0.0
H56 H 0.6359 0.49112 0.29589 0.0
H57 H 0.59432 0.47714 0.31296 0.0
H58 H 0.60567 0.51848 0.33556 0.0
O59 O 0.54744 0.54037 0.34934 0.0
O60 O 0.52819 0.58147 0.41051 0.0
C61 C 0.62176 0.5932 0.37612 0.0
O62 O 0.50875 0.62752 0.28761 0.0
O63 O 0.51947 0.58452 0.22203 0.0
Zn64 Zn 0.1411 0.79699 0.60577 0.0
O65 O 0.1052 0.81972 0.53044 0.0
C66 C 0.14728 0.74407 0.50028 0.0
Zn67 Zn 0.1799 0.81299 0.53203 0.0
C68 C 0.11464 0.83474 0.47532 0.0
O69 O 0.14565 0.83543 0.46096 0.0
C70 C 0.20739 0.77729 0.66449 0.0
O71 O 0.18293 0.86141 0.57979 0.0
O72 O 0.14616 0.84359 0.65333 0.0
N73 N 0.2206 0.82468 0.47115 0.0
C74 C 0.23457 0.85444 0.45445 0.0
C75 C 0.27048 0.81677 0.43189 0.0
N76 N 0.24298 0.80137 0.45655 0.0
N77 N 0.26592 0.8501 0.43081 0.0
C78 C 0.0755 0.77945 0.68841 0.0
C79 C 0.09435 0.78798 0.7897 0.0
N80 N 0.10753 0.78863 0.68164 0.0
N81 N 0.11902 0.79403 0.74462 0.0
N82 N 0.06693 0.77876 0.75533 0.0
H83 H 0.05764 0.74493 0.61423 0.0
H84 H 0.05741 0.78796 0.58614 0.0
H85 H 0.02613 0.773 0.64546 0.0
C86 C 0.05272 0.77104 0.63016 0.0
C87 C 0.21826 0.88786 0.4626 0.0
H88 H 0.1907 0.88559 0.45977 0.0
H89 H 0.22706 0.90528 0.42196 0.0
H90 H 0.22549 0.89862 0.51286 0.0
O91 O 0.2164 0.79081 0.60786 0.0
O92 O 0.1764 0.77541 0.67657 0.0
C93 C 0.16253 0.86755 0.62808 0.0
O94 O 0.13346 0.74993 0.55797 0.0
O95 O 0.17015 0.76427 0.47924 0.0
Zn96 Zn 0.96191 0.39592 0.84524 0.0
O97 O 0.93777 0.35697 0.78176 0.0
C98 C 0.01261 0.40653 0.73494 0.0
Zn99 Zn 0.9433 0.43468 0.77563 0.0
C100 C 0.92265 0.36506 0.72615 0.0
O101 O 0.92229 0.39594 0.70899 0.0
C102 C 0.97999 0.46552 0.90002 0.0
O103 O 0.89531 0.43438 0.82764 0.0
O104 O 0.91767 0.39995 0.89988 0.0
N105 N 0.9262 0.4719 0.7108 0.0
C106 C 0.90993 0.50048 0.72632 0.0
C107 C 0.91377 0.49849 0.61728 0.0
N108 N 0.92854 0.47072 0.64294 0.0
N109 N 0.9018 0.51744 0.66878 0.0
C110 C 0.98582 0.33292 0.92376 0.0
C111 C 0.98243 0.35106 0.02684 0.0
N112 N 0.97578 0.36474 0.9202 0.0
N113 N 0.97376 0.376 0.98409 0.0
N114 N 0.99014 0.32396 0.98982 0.0
H115 H 0.99446 0.32498 0.81576 0.0
H116 H 0.96664 0.29557 0.85664 0.0
H117 H 0.01076 0.29257 0.872 0.0
C118 C 0.98988 0.31032 0.86326 0.0
C119 C 0.90246 0.51266 0.79753 0.0
H120 H 0.87755 0.5248 0.79906 0.0
H121 H 0.92134 0.53157 0.81237 0.0
H122 H 0.90336 0.49253 0.83596 0.0
O123 O 0.96349 0.47394 0.84662 0.0
O124 O 0.98488 0.43451 0.90968 0.0
C125 C 0.89235 0.41636 0.88114 0.0
O126 O 0.00662 0.38896 0.7882 0.0
O127 O 0.99214 0.43022 0.72018 0.0
Zn128 Zn 0.64431 0.80219 0.94315 0.0
O129 O 0.60722 0.82603 1.0098 0.0
C130 C 0.65465 0.74916 0.04972 0.0
Zn131 Zn 0.68468 0.81733 1.01177 0.0
C132 C 0.61616 0.83909 0.06677 0.0
O133 O 0.64714 0.83805 0.08272 0.0
C134 C 0.71198 0.78214 0.88241 0.0
O135 O 0.68571 0.86594 0.96427 0.0
O136 O 0.64961 0.84754 0.89126 0.0
N137 N 0.72304 0.83233 0.07523 0.0
C138 C 0.75166 0.84836 0.0587 0.0
C139 C 0.75019 0.8445 0.16782 0.0
N140 N 0.72219 0.82998 0.14314 0.0
N141 N 0.76895 0.85637 0.11565 0.0
C142 C 0.57993 0.78157 0.86586 0.0
C143 C 0.59755 0.78633 0.7624 0.0
N144 N 0.61196 0.79086 0.86897 0.0
N145 N 0.62286 0.79378 0.80482 0.0
N146 N 0.57053 0.7786 0.79985 0.0
H147 H 0.57259 0.77143 0.97366 0.0
H148 H 0.54282 0.79961 0.93502 0.0
H149 H 0.54004 0.75567 0.91756 0.0
C150 C 0.55769 0.77656 0.92685 0.0
C151 C 0.76353 0.85579 0.98705 0.0
H152 H 0.77706 0.87999 0.98537 0.0
H153 H 0.78109 0.83593 0.97069 0.0
H154 H 0.74304 0.85645 0.94969 0.0
O155 O 0.72223 0.79708 0.93628 0.0
O156 O 0.6807 0.77898 0.87515 0.0
C157 C 0.66772 0.87132 0.91189 0.0
O158 O 0.63642 0.75679 0.99834 0.0
O159 O 0.67957 0.76813 0.06341 0.0
Zn160 Zn 0.46593 0.39338 0.68707 0.0
O161 O 0.44226 0.35754 0.75904 0.0
C162 C 0.51889 0.39833 0.79043 0.0
Zn163 Zn 0.45104 0.43299 0.75846 0.0
C164 C 0.42808 0.36684 0.81488 0.0
O165 O 0.42769 0.398 0.82893 0.0
C166 C 0.48714 0.45967 0.62702 0.0
O167 O 0.40284 0.44021 0.71024 0.0
O168 O 0.41972 0.40083 0.64279 0.0
N169 N 0.44253 0.47342 0.81981 0.0
C170 C 0.41335 0.48986 0.82848 0.0
C171 C 0.45253 0.52551 0.83211 0.0
N172 N 0.46682 0.49555 0.82352 0.0
N173 N 0.41875 0.52354 0.83146 0.0
C174 C 0.48255 0.32842 0.60498 0.0
C175 C 0.47043 0.34578 0.50387 0.0
N176 N 0.47261 0.36023 0.61082 0.0
N177 N 0.46521 0.37094 0.54802 0.0
N178 N 0.48141 0.31899 0.53865 0.0
H179 H 0.4746 0.30754 0.70514 0.0
H180 H 0.49798 0.28078 0.64795 0.0
H181 H 0.51723 0.31728 0.68474 0.0
C182 C 0.49364 0.30699 0.66385 0.0
C183 C 0.3835 0.47172 0.85684 0.0
H184 H 0.39175 0.4488 0.88428 0.0
H185 H 0.36958 0.48743 0.89382 0.0
H186 H 0.36693 0.46332 0.81493 0.0
O187 O 0.47398 0.46913 0.68337 0.0
O188 O 0.48842 0.42856 0.61586 0.0
C189 C 0.3969 0.42078 0.66029 0.0
O190 O 0.51257 0.38365 0.73397 0.0
O191 O 0.49921 0.42166 0.8104 0.0
Zn192 Zn 0.87027 0.21028 0.44011 0.0
O193 O 0.90886 0.18671 0.50433 0.0
C194 C 0.85981 0.2607 0.55212 0.0
Zn195 Zn 0.83096 0.19185 0.50856 0.0
C196 C 0.90036 0.17107 0.55903 0.0
O197 O 0.86939 0.17011 0.57464 0.0
C198 C 0.8006 0.22859 0.3833 0.0
O199 O 0.83046 0.14433 0.45531 0.0
O200 O 0.86697 0.16556 0.38608 0.0
N201 N 0.79426 0.17359 0.57267 0.0
C202 C 0.7652 0.15826 0.55697 0.0
C203 C 0.76912 0.15852 0.66603 0.0
N204 N 0.79678 0.17345 0.64053 0.0
N205 N 0.74918 0.14843 0.61441 0.0
C206 C 0.93352 0.23573 0.36502 0.0
C207 C 0.91699 0.2319 0.26081 0.0
N208 N 0.90206 0.22452 0.36649 0.0
N209 N 0.8918 0.22217 0.30188 0.0
N210 N 0.94325 0.2405 0.2996 0.0
H211 H 0.93972 0.24405 0.47372 0.0
H212 H 0.97109 0.21827 0.43395 0.0
H213 H 0.97171 0.2626 0.41963 0.0
C214 C 0.95509 0.24067 0.42695 0.0
C215 C 0.75099 0.15465 0.48615 0.0
H216 H 0.73606 0.13135 0.48252 0.0
H217 H 0.73403 0.17602 0.47579 0.0
H218 H 0.7706 0.15444 0.44635 0.0
O219 O 0.79185 0.21301 0.43776 0.0
O220 O 0.83172 0.23282 0.37382 0.0
C221 C 0.8496 0.14065 0.40387 0.0
O222 O 0.87679 0.25519 0.49794 0.0
O223 O 0.83605 0.24019 0.5664 0.0
Zn224 Zn 0.04527 0.62205 0.18649 0.0
O225 O 0.07122 0.65369 0.26478 0.0
C226 C 0.99482 0.61158 0.29902 0.0
Zn227 Zn 0.06175 0.58186 0.25535 0.0
C228 C 0.08622 0.64305 0.31861 0.0
O229 O 0.0857 0.61192 0.33139 0.0
C230 C 0.0238 0.55948 0.11899 0.0
O231 O 0.10903 0.58239 0.20135 0.0
O232 O 0.08955 0.61994 0.13055 0.0
N233 N 0.07445 0.53902 0.30688 0.0
C234 C 0.10429 0.52515 0.32223 0.0
C235 C 0.06683 0.48915 0.34675 0.0
N236 N 0.05124 0.51663 0.32253 0.0
N237 N 0.1001 0.49388 0.34654 0.0
C238 C 0.0371 0.67369 0.06953 0.0
C239 C 0.01163 0.71235 0.12352 0.0
N240 N 0.03244 0.6632 0.13468 0.0
N241 N 0.01656 0.68717 0.16798 0.0
N242 N 0.02425 0.70443 0.06166 0.0
H243 H 0.04918 0.62739 0.01913 0.0
H244 H 0.04705 0.66351 0.96274 0.0
H245 H 0.08196 0.65801 0.01968 0.0
C246 C 0.05461 0.65444 1.01438 0.0
C247 C 0.13754 0.54159 0.31215 0.0
H248 H 0.13549 0.56904 0.31809 0.0
H249 H 0.15597 0.53169 0.3496 0.0
H250 H 0.14685 0.53588 0.25984 0.0
O251 O 0.0383 0.5493 0.17384 0.0
O252 O 0.02111 0.59089 0.11012 0.0
C253 C 0.11408 0.60354 0.15341 0.0
O254 O 1.00021 0.62684 0.24294 0.0
O255 O 0.01469 0.58778 0.31574 0.0
Zn256 Zn 0.82777 0.69788 0.52989 0.0
O257 O 0.82495 0.64988 0.58007 0.0
C258 C 0.7994 0.73591 0.65486 0.0
Zn259 Zn 0.86726 0.71377 0.60019 0.0
C260 C 0.84219 0.64523 0.63385 0.0
O261 O 0.85949 0.66949 0.65488 0.0
C262 C 0.86111 0.76436 0.48703 0.0
O263 O 0.9043 0.68729 0.53893 0.0
O264 O 0.86509 0.67533 0.46389 0.0
N265 N 0.89884 0.72513 0.67642 0.0
C266 C 0.93017 0.73643 0.68218 0.0
C267 C 0.91134 0.72932 0.78415 0.0
N268 N 0.88722 0.72078 0.73972 0.0
N269 N 0.93838 0.73923 0.74895 0.0
C270 C 0.76177 0.66655 0.47772 0.0
C271 C 0.76581 0.67031 0.36882 0.0
N272 N 0.79046 0.68301 0.46398 0.0
N273 N 0.79288 0.68538 0.39625 0.0
N274 N 0.74607 0.65808 0.41906 0.0
H275 H 0.73873 0.63284 0.54999 0.0
H276 H 0.72762 0.67587 0.56019 0.0
H277 H 0.7674 0.66213 0.58867 0.0
C278 C 0.74857 0.65876 0.54824 0.0
C279 C 0.95272 0.74446 0.62309 0.0
H280 H 0.97552 0.72875 0.62639 0.0
H281 H 0.96071 0.77097 0.62647 0.0
H282 H 0.9401 0.74017 0.57328 0.0
O283 O 0.87798 0.75785 0.54103 0.0
O284 O 0.83559 0.74598 0.47403 0.0
C285 C 0.89551 0.67335 0.48286 0.0
O286 O 0.78971 0.71991 0.60183 0.0
O287 O 0.83058 0.73942 0.66333 0.0
Zn288 Zn 0.05438 0.12135 0.84747 0.0
O289 O 0.0778 0.16034 0.78436 0.0
C290 C 1.00437 0.11017 0.73555 0.0
Zn291 Zn 0.0729 0.08204 0.78008 0.0
C292 C 0.0932 0.15175 0.72966 0.0
O293 O 0.09405 0.12079 0.71435 0.0
C294 C 0.0359 0.05156 0.90359 0.0
O295 O 0.12018 0.08175 0.83316 0.0
O296 O 0.09893 0.11806 0.9023 0.0
N297 N 0.09179 0.04658 0.71533 0.0
C298 C 0.10802 0.01782 0.72967 0.0
C299 C 0.10771 0.02344 0.62086 0.0
N300 N 0.092 0.05023 0.64768 0.0
N301 N 0.11844 1.00305 0.67146 0.0
C302 C 0.02913 0.18392 0.9248 0.0
C303 C 0.03232 0.1657 0.02814 0.0
N304 N 0.03972 0.15228 0.92178 0.0
N305 N 0.04162 0.14097 0.98585 0.0
N306 N 0.02432 0.19272 0.99068 0.0
H307 H 0.04817 0.22149 0.85735 0.0
H308 H 1.00397 0.22411 0.87226 0.0
H309 H 0.02071 0.19188 0.81664 0.0
C310 C 0.02503 0.20654 0.86397 0.0
C311 C 0.11147 1.00246 0.79968 0.0
H312 H 0.11131 0.02146 0.8406 0.0
H313 H 0.13487 0.98766 0.80295 0.0
H314 H 0.0902 0.9852 0.80858 0.0
O315 O 0.05206 0.04246 0.85028 0.0
O316 O 0.0318 0.0827 0.91224 0.0
C317 C 0.12385 0.1008 0.88451 0.0
O318 O 0.00976 0.12769 0.78893 0.0
O319 O 0.02491 0.0864 0.72235 0.0
Zn320 Zn 0.64187 0.2963 0.098 0.0
O321 O 0.60932 0.32127 0.02238 0.0
C322 C 0.65048 0.24534 0.98578 0.0
Zn323 Zn 0.68307 0.3112 0.02941 0.0
C324 C 0.62006 0.337 0.9697 0.0
O325 O 0.65123 0.33701 0.95767 0.0
C326 C 0.70626 0.27335 0.16375 0.0
O327 O 0.68561 0.35797 0.08502 0.0
O328 O 0.6444 0.34166 0.1496 0.0
N329 N 0.72381 0.325 0.97084 0.0
C330 C 0.75201 0.34155 0.98782 0.0
C331 C 0.75178 0.33679 0.87884 0.0
N332 N 0.72385 0.32194 0.9031 0.0
N333 N 0.76975 0.34946 0.93107 0.0
C334 C 0.5918 0.284 0.21861 0.0
C335 C 0.55082 0.26496 0.16072 0.0
N336 N 0.60104 0.28349 0.15199 0.0
N337 N 0.57555 0.27164 0.11642 0.0
N338 N 0.56042 0.27244 0.22497 0.0
H339 H 0.63774 0.30432 0.25863 0.0
H340 H 0.61661 0.27515 0.3144 0.0
H341 H 0.60021 0.31629 0.30425 0.0
C342 C 0.61306 0.29573 0.27688 0.0
C343 C 0.76229 0.35054 0.05948 0.0
H344 H 0.76725 0.37778 0.06233 0.0
H345 H 0.78595 0.33765 0.07252 0.0
H346 H 0.7435 0.34315 0.09811 0.0
O347 O 0.71669 0.28561 0.1067 0.0
O348 O 0.67482 0.27319 0.17435 0.0
C349 C 0.66477 0.36448 0.13247 0.0
O350 O 0.63652 0.25037 0.04334 0.0
O351 O 0.67423 0.26504 0.96782 0.0
Zn352 Zn 0.4555 0.89172 0.34555 0.0
O353 O 0.43214 0.8572 0.2754 0.0
C354 C 0.51131 0.89919 0.24379 0.0
Zn355 Zn 0.44378 0.93387 0.27703 0.0
C356 C 0.41877 0.86725 0.21951 0.0
O357 O 0.4209 0.8984 0.20428 0.0
C358 C 0.47823 0.9576 0.41043 0.0
O359 O 0.39463 0.93957 0.32146 0.0
O360 O 0.40775 0.89837 0.38978 0.0
N361 N 0.43568 0.97538 0.21539 0.0
C362 C 0.40738 0.99048 0.19358 0.0
C363 C 0.44633 0.02654 0.18644 0.0
N364 N 0.45989 0.99783 0.20988 0.0
N365 N 0.41333 0.02259 0.17613 0.0
C366 C 0.47536 0.82699 0.42286 0.0
C367 C 0.45907 0.83982 0.52414 0.0
N368 N 0.4619 0.85752 0.41924 0.0
N369 N 0.4518 0.86548 0.48203 0.0
N370 N 0.47384 0.81556 0.48783 0.0
H371 H 0.48409 0.78177 0.36636 0.0
H372 H 0.51818 0.81087 0.36677 0.0
H373 H 0.4821 0.81933 0.31402 0.0
C374 C 0.49058 0.80871 0.36364 0.0
C375 C 0.37368 0.97449 0.19114 0.0
H376 H 0.37633 0.94812 0.17528 0.0
H377 H 0.3573 0.98759 0.15382 0.0
H378 H 0.36161 0.97595 0.24226 0.0
O379 O 0.46551 0.96885 0.35484 0.0
O380 O 0.47855 0.9261 0.41853 0.0
C381 C 0.38594 0.91825 0.36656 0.0
O382 O 0.50265 0.88163 0.29571 0.0
O383 O 0.4933 0.92469 0.22871 0.0
Zn384 Zn 0.14676 0.30764 0.44433 0.0
O385 O 0.10939 0.33056 0.50998 0.0
C386 C 0.15637 0.25444 0.55291 0.0
Zn387 Zn 0.18761 0.32151 0.5138 0.0
C388 C 0.11844 0.34492 0.56541 0.0
O389 O 0.14946 0.34409 0.58138 0.0
C390 C 0.21552 0.28654 0.38611 0.0
O391 O 0.19037 0.36906 0.46469 0.0
O392 O 0.1509 0.35422 0.39444 0.0
N393 N 0.22551 0.33639 0.57857 0.0
C394 C 0.25192 0.35633 0.56461 0.0
C395 C 0.25527 0.34266 0.67027 0.0
N396 N 0.22764 0.32794 0.64432 0.0
N397 N 0.2707 0.3608 0.62118 0.0
C398 C 0.08304 0.28457 0.36772 0.0
C399 C 0.09919 0.29193 0.26393 0.0
N400 N 0.11442 0.29599 0.37007 0.0
N401 N 0.12443 0.30051 0.3057 0.0
N402 N 0.07314 0.28181 0.30201 0.0
H403 H 0.07697 0.2751 0.47635 0.0
H404 H 0.0435 0.298 0.43572 0.0
H405 H 0.04728 0.25397 0.42109 0.0
C406 C 0.06169 0.27733 0.42917 0.0
C407 C 0.25929 0.37214 0.49608 0.0
H408 H 0.24625 0.39657 0.493 0.0
H409 H 0.28626 0.37719 0.4892 0.0
H410 H 0.25084 0.35611 0.45339 0.0
O411 O 0.22553 0.29976 0.44202 0.0
O412 O 0.1842 0.28528 0.37618 0.0
C413 C 0.1698 0.37673 0.41798 0.0
O414 O 0.13925 0.26156 0.49956 0.0
O415 O 0.1811 0.2734 0.56764 0.0
Zn416 Zn 0.96494 0.8905 0.17675 0.0
O417 O 0.93966 0.85277 0.2422 0.0
C418 C 0.01588 0.89621 0.28797 0.0
Zn419 Zn 0.94924 0.93046 0.2482 0.0
C420 C 0.92498 0.862 0.29758 0.0
O421 O 0.92548 0.89302 0.31288 0.0
C422 C 0.98732 0.95924 0.12282 0.0
O423 O 0.90184 0.93494 0.19672 0.0
O424 O 0.91988 0.89745 0.12627 0.0
N425 N 0.93453 0.96829 0.31433 0.0
C426 C 0.91921 0.99766 0.3001 0.0
C427 C 0.92187 0.99344 0.40903 0.0
N428 N 0.93616 0.96581 0.38214 0.0
N429 N 0.91087 0.01373 0.35844 0.0
C430 C 0.98875 0.82871 0.0886 0.0
C431 C 0.98085 0.84945 0.9885 0.0
N432 N 0.97598 0.85937 0.0975 0.0
N433 N 0.97108 0.87207 0.03519 0.0
N434 N 0.99189 0.82199 0.02093 0.0
H435 H 0.9899 0.81543 0.19591 0.0
H436 H 0.98702 0.78063 0.13686 0.0
H437 H 0.02583 0.80247 0.14644 0.0
C438 C 0.99829 0.80556 0.14577 0.0
C439 C 0.91214 0.01109 0.22945 0.0
H440 H 0.91611 0.99247 0.18881 0.0
H441 H 0.88613 0.02062 0.22697 0.0
H442 H 0.929 0.03245 0.21871 0.0
O443 O 0.97302 0.96865 0.17816 0.0
O444 O 0.98882 0.92806 0.11184 0.0
C445 C 0.89641 0.9163 0.14541 0.0
O446 O 0.01028 0.88098 0.23164 0.0
O447 O 0.99646 0.92036 0.30513 0.0
Zn448 Zn 0.33095 0.69356 1.00872 0.0
O449 O 0.33638 0.64502 0.95942 0.0
C450 C 0.29929 0.73128 0.88417 0.0
Zn451 Zn 0.36683 0.71396 0.93804 0.0
C452 C 0.3516 0.64453 0.90215 0.0
O453 O 0.36005 0.67208 0.87591 0.0
C454 C 0.35633 0.76286 0.05028 0.0
O455 O 0.40575 0.68671 0.99984 0.0
O456 O 0.36843 0.67574 0.07905 0.0
N457 N 0.39816 0.72931 0.86476 0.0
C458 C 0.43034 0.73809 0.86228 0.0
C459 C 0.41152 0.74016 0.75941 0.0
N460 N 0.3865 0.73057 0.80099 0.0
N461 N 0.43913 0.74489 0.79704 0.0
C462 C 0.26628 0.65728 0.05496 0.0
C463 C 0.2675 0.6614 0.16387 0.0
N464 N 0.29431 0.67426 0.07122 0.0
N465 N 0.29519 0.67647 0.13906 0.0
N466 N 0.24922 0.64879 0.11201 0.0
H467 H 0.23585 0.67079 0.96932 0.0
H468 H 0.27469 0.65135 0.94616 0.0
H469 H 0.24091 0.62659 0.98115 0.0
C470 C 0.25401 0.651 0.98357 0.0
C471 C 0.45327 0.73889 0.92296 0.0
H472 H 0.439 0.743 0.97098 0.0
H473 H 0.4664 0.71453 0.92683 0.0
H474 H 0.47234 0.75879 0.91665 0.0
O475 O 0.37521 0.75644 0.99948 0.0
O476 O 0.33182 0.74292 0.06246 0.0
C477 C 0.39862 0.6741 0.05876 0.0
O478 O 0.29183 0.71132 0.93325 0.0
O479 O 0.32956 0.73992 0.87856 0.0
Zn480 Zn 0.54518 0.11644 0.68363 0.0
O481 O 0.57028 0.15485 0.74652 0.0
C482 C 0.49603 0.10717 0.7994 0.0
Zn483 Zn 0.56423 0.07905 0.75631 0.0
C484 C 0.58513 0.14728 0.80274 0.0
O485 O 0.58514 0.11683 0.82228 0.0
C486 C 0.52674 0.04785 0.63122 0.0
O487 O 0.61185 0.08093 0.7052 0.0
O488 O 0.5895 0.11186 0.62548 0.0
N489 N 0.58122 0.04163 0.82053 0.0
C490 C 0.6024 0.01622 0.80714 0.0
C491 C 0.58651 0.01058 0.91098 0.0
N492 N 0.57137 0.03807 0.88514 0.0
N493 N 0.60616 0.99652 0.86292 0.0
C494 C 0.52032 0.17958 0.60454 0.0
C495 C 0.5233 0.16095 0.50182 0.0
N496 N 0.5308 0.14788 0.60866 0.0
N497 N 0.53261 0.13638 0.54491 0.0
N498 N 0.51554 0.18819 0.53834 0.0
H499 H 0.51287 0.18752 0.7127 0.0
H500 H 0.53785 0.21869 0.66934 0.0
H501 H 0.49339 0.21826 0.65709 0.0
C502 C 0.51568 0.20221 0.66474 0.0
C503 C 0.61986 0.01087 0.73991 0.0
H504 H 0.64283 0.02635 0.73893 0.0
H505 H 0.62758 0.98452 0.73306 0.0
H506 H 0.60363 0.01827 0.69646 0.0
O507 O 0.54386 0.03966 0.68412 0.0
O508 O 0.52143 0.0787 0.62138 0.0
C509 C 0.61529 0.09919 0.6522 0.0
O510 O 0.50068 0.12398 0.74445 0.0
O511 O 0.51661 0.08362 0.81404 0.0
C512 C 0.50054 0.22469 0.31333 0.0
C513 C 0.47418 0.24674 0.29673 0.0
C514 C 0.51295 0.29317 0.28727 0.0
C515 C 0.53884 0.26942 0.28305 0.0
N516 N 0.56085 0.21692 0.31919 0.0
N517 N 0.45287 0.30251 0.29299 0.0
C518 C 0.53374 0.23679 0.30822 0.0
C519 C 0.47969 0.28153 0.29412 0.0
N520 N 0.49364 0.19204 0.32786 0.0
N521 N 0.52036 0.32593 0.27543 0.0
H522 H 0.42851 0.29338 0.29739 0.0
H523 H 0.45458 0.32843 0.29084 0.0
H524 H 0.54501 0.33374 0.2683 0.0
H525 H 0.50278 0.34505 0.27363 0.0
H526 H 0.51169 0.17389 0.33703 0.0
H527 H 0.46921 0.18325 0.332 0.0
H528 H 0.55969 0.19264 0.33827 0.0
H529 H 0.58502 0.22602 0.3119 0.0
C530 C 0.47833 0.72414 0.51376 0.0
C531 C 0.51338 0.72102 0.51158 0.0
C532 C 0.52022 0.78089 0.52546 0.0
C533 C 0.48573 0.78434 0.51283 0.0
N534 N 0.43077 0.76121 0.50125 0.0
N535 N 0.56843 0.74424 0.52133 0.0
C536 C 0.46421 0.75645 0.5109 0.0
C537 C 0.53462 0.74874 0.52131 0.0
N538 N 0.45907 0.696 0.51597 0.0
N539 N 0.53888 0.80868 0.5386 0.0
H540 H 0.57931 0.72058 0.51896 0.0
H541 H 0.58568 0.76368 0.52147 0.0
H542 H 0.52825 0.83248 0.54055 0.0
H543 H 0.56397 0.80805 0.55241 0.0
H544 H 0.43323 0.6962 0.52163 0.0
H545 H 0.46955 0.67212 0.51712 0.0
H546 H 0.41381 0.742 0.49242 0.0
H547 H 0.42008 0.78498 0.50009 0.0
C548 C 0.02823 0.73564 0.79257 0.0
C549 C 0.03537 0.76984 0.78356 0.0
C550 C 0.97633 0.78358 0.78384 0.0
C551 C 0.96964 0.74917 0.77677 0.0
N552 N 0.98666 0.69175 0.78319 0.0
N553 N 0.01852 0.82723 0.7822 0.0
C554 C 0.99481 0.72486 0.78588 0.0
C555 C 0.00998 0.79423 0.78504 0.0
N556 N 0.05381 0.71384 0.80434 0.0
N557 N 0.95035 0.80562 0.78652 0.0
H558 H 0.04337 0.83504 0.7842 0.0
H559 H 1.00147 0.84669 0.77709 0.0
H560 H 0.92553 0.79769 0.78468 0.0
H561 H 0.95308 0.83112 0.79497 0.0
H562 H 0.05053 0.68857 0.81518 0.0
H563 H 0.07852 0.72193 0.80828 0.0
H564 H 1.00405 0.67244 0.78333 0.0
H565 H 0.96198 0.6836 0.77924 0.0
C566 C 0.97274 0.26739 0.01939 0.0
C567 C 0.99825 0.29167 1.01539 0.0
C568 C 0.04138 0.24918 0.02094 0.0
C569 C 0.01592 0.22492 1.01577 0.0
N570 N 0.9587 0.20841 0.0275 0.0
N571 N 0.05533 0.30811 0.02988 0.0
C572 C 0.98187 0.23331 0.02204 0.0
C573 C 0.03221 0.28325 0.02326 0.0
N574 N 0.94013 0.27726 1.01596 0.0
N575 N 0.07403 0.23936 0.01883 0.0
H576 H 0.04858 0.3333 0.03033 0.0
H577 H 0.08058 0.30403 0.03914 0.0
H578 H 0.08094 0.21421 0.01834 0.0
H579 H 0.0942 0.2557 1.01628 0.0
H580 H 0.91997 0.26095 1.01262 0.0
H581 H 0.93326 0.30242 1.01529 0.0
H582 H 0.93333 0.21244 0.03538 0.0
H583 H 0.96548 0.18323 0.02832 0.0
C584 C 0.51426 0.79702 0.77238 0.0
C585 C 0.53811 0.77112 0.77474 0.0
C586 C 0.49501 0.72901 0.76115 0.0
C587 C 0.4712 0.75433 0.77271 0.0
N588 N 0.45569 0.812 0.78176 0.0
N589 N 0.55364 0.71353 0.76372 0.0
C590 C 0.48007 0.78844 0.77401 0.0
C591 C 0.52924 0.73737 0.76479 0.0
N592 N 0.52476 0.82949 0.77133 0.0
N593 N 0.48445 0.69707 0.74969 0.0
H594 H 0.57896 0.71964 0.76548 0.0
H595 H 0.5491 0.68795 0.76251 0.0
H596 H 0.45915 0.69086 0.74801 0.0
H597 H 0.50023 0.6773 0.73765 0.0
H598 H 0.50889 0.84992 0.76612 0.0
H599 H 0.55003 0.83586 0.7713 0.0
H600 H 0.46027 0.83729 0.7895 0.0
H601 H 0.43037 0.80582 0.78189 0.0
C602 C 0.52141 0.27825 0.49628 0.0
C603 C 0.48808 0.28673 0.51148 0.0
C604 C 0.47181 0.22826 0.51107 0.0
C605 C 0.50601 0.22001 0.51212 0.0
N606 N 0.56364 0.23474 0.49695 0.0
N607 N 0.43035 0.27201 0.52445 0.0
C608 C 0.53094 0.24428 0.49996 0.0
C609 C 0.46265 0.26232 0.51406 0.0
N610 N 0.54373 0.303 0.48127 0.0
N611 N 0.44862 0.20328 0.51007 0.0
H612 H 0.42336 0.29713 0.52553 0.0
H613 H 0.41073 0.25554 0.53354 0.0
H614 H 0.45551 0.17813 0.5089 0.0
H615 H 0.42305 0.20728 0.50542 0.0
H616 H 0.56818 0.2987 0.46554 0.0
H617 H 0.53665 0.3281 0.47969 0.0
H618 H 0.5836 0.25134 0.49447 0.0
H619 H 0.57081 0.20968 0.49861 0.0
C620 C 0.9819 0.28547 0.27196 0.0
C621 C 0.97527 0.25092 0.27632 0.0
C622 C 0.03442 0.23788 0.26878 0.0
C623 C 0.04104 0.27218 0.27797 0.0
N624 N 0.02341 0.32942 0.28168 0.0
N625 N 0.99285 0.19369 0.27197 0.0
C626 C 0.01542 0.29638 0.27569 0.0
C627 C 1.00089 0.22686 0.27075 0.0
N628 N 0.95589 0.30739 0.26696 0.0
N629 N 0.06043 0.21619 0.26084 0.0
H630 H 0.96813 0.18541 0.27213 0.0
H631 H 0.01026 0.17444 0.27442 0.0
H632 H 0.08522 0.22424 0.26062 0.0
H633 H 0.05765 0.19089 0.25015 0.0
H634 H 0.95868 0.33302 0.25986 0.0
H635 H 0.9311 0.29936 0.26544 0.0
H636 H 1.00598 0.34851 0.28683 0.0
H637 H 0.04812 0.3377 0.28317 0.0
C638 C 0.99431 0.73344 0.97319 0.0
C639 C 0.02517 0.72707 1.00496 0.0
C640 C 0.03954 0.78584 0.99856 0.0
C641 C 1.0052 0.79245 0.99032 0.0
N642 N 0.9511 0.7748 0.95166 0.0
N643 N 0.0813 0.74387 0.02711 0.0
C644 C 0.98314 0.76696 0.96908 0.0
C645 C 0.04973 0.75223 1.00736 0.0
N646 N 0.97485 0.70702 0.95495 0.0
N647 N 0.06126 0.81197 1.00318 0.0
H648 H 0.08815 0.71896 0.03465 0.0
H649 H 0.10033 0.76104 0.03577 0.0
H650 H 0.0531 0.83663 0.99777 0.0
H651 H 0.08699 0.80932 1.00815 0.0
H652 H 0.95202 0.70927 0.92987 0.0
H653 H 0.98337 0.68252 0.96139 0.0
H654 H 0.93282 0.75718 0.94035 0.0
H655 H 0.94291 0.79949 0.94835 0.0
C656 C 0.1878 0.09638 0.8844 0.0
C657 C 0.1578 0.10981 0.91248 0.0
C658 C 0.1883 0.15926 0.95094 0.0
C659 C 0.21792 0.14695 0.92101 0.0
N660 N 0.24839 0.10064 0.87421 0.0
N661 N 0.13627 0.14386 1.00462 0.0
C662 C 0.21843 0.11448 0.89193 0.0
C663 C 0.16012 0.13812 0.95598 0.0
N664 N 0.18718 0.06612 0.85243 0.0
N665 N 0.18691 0.19144 0.97361 0.0
H666 H 0.11762 0.1264 1.01562 0.0
H667 H 0.13796 0.1632 0.04017 0.0
H668 H 0.2072 0.20772 0.96971 0.0
H669 H 0.1648 0.20253 0.99039 0.0
H670 H 0.20655 0.0571 0.82205 0.0
H671 H 0.1673 0.04952 0.85819 0.0
H672 H 0.25127 0.07607 0.85804 0.0
H673 H 0.27098 0.11328 0.88029 0.0
C674 C 0.63138 0.40402 0.2038 0.0
C675 C 0.65809 0.39961 0.15693 0.0
C676 C 0.65417 0.45975 0.12957 0.0
C677 C 0.62265 0.4609 0.16291 0.0
N678 N 0.57868 0.43164 0.22211 0.0
N679 N 0.69965 0.42616 0.08493 0.0
C680 C 0.61054 0.43229 0.19738 0.0
C681 C 0.67105 0.4284 0.12264 0.0
N682 N 0.62679 0.38183 0.25623 0.0
N683 N 0.66857 0.48883 0.10759 0.0
H684 H 0.71638 0.40649 0.09091 0.0
H685 H 0.70722 0.44427 0.04968 0.0
H686 H 0.65716 0.51205 0.11378 0.0
H687 H 0.69279 0.4904 0.08842 0.0
H688 H 0.60863 0.38504 0.29406 0.0
H689 H 0.64431 0.36318 0.2666 0.0
H690 H 0.56796 0.41013 0.24307 0.0
H691 H 0.56226 0.45166 0.21559 0.0
C692 C 0.3285 0.89855 0.3291 0.0
C693 C 0.35009 0.9106 0.382 0.0
C694 C 0.31206 0.88701 0.46882 0.0
C695 C 0.29129 0.87469 0.41578 0.0
N696 N 0.27405 0.8763 0.2984 0.0
N697 N 0.35787 0.92369 0.50118 0.0
C698 C 0.29756 0.8834 0.34694 0.0
C699 C 0.34018 0.90734 0.45169 0.0
N700 N 0.33875 0.89835 0.26232 0.0
N701 N 0.30565 0.87795 0.53518 0.0
H702 H 0.37804 0.93918 0.48916 0.0
H703 H 0.35079 0.92451 0.55258 0.0
H704 H 0.28485 0.8637 0.54891 0.0
H705 H 0.3217 0.88294 0.57589 0.0
H706 H 0.32601 0.88609 0.22322 0.0
H707 H 0.36161 0.90765 0.24663 0.0
H708 H 0.27538 0.88492 0.24792 0.0
H709 H 0.2516 0.86442 0.31064 0.0
C710 C 0.83464 0.58173 0.63178 0.0
C711 C 0.84981 0.61066 0.66051 0.0
C712 C 0.89852 0.57765 0.69346 0.0
C713 C 0.88428 0.54889 0.66366 0.0
N714 N 0.83563 0.52113 0.61958 0.0
N715 N 0.88627 0.62917 0.75167 0.0
C716 C 0.85131 0.55019 0.63701 0.0
C717 C 0.87866 0.60648 0.70195 0.0
N718 N 0.80405 0.58426 0.60146 0.0
N719 N 0.93135 0.57775 0.71206 0.0
H720 H 0.86973 0.64816 0.76541 0.0
H721 H 0.90622 0.62603 0.78548 0.0
H722 H 0.94694 0.55724 0.704 0.0
H723 H 0.94353 0.59923 0.72905 0.0
H724 H 0.79362 0.56573 0.57088 0.0
H725 H 0.78881 0.60505 0.60865 0.0
H726 H 0.81065 0.5197 0.60514 0.0
H727 H 0.8471 0.49785 0.62441 0.0
C728 C 0.80151 0.90713 0.14604 0.0
C729 C 0.80026 0.87413 0.11955 0.0
C730 C 0.85729 0.88042 0.07828 0.0
C731 C 0.86168 0.90909 0.11988 0.0
N732 N 0.83554 0.95454 0.18047 0.0
N733 N 0.82904 0.82744 0.06941 0.0
C734 C 0.83295 0.92403 0.14998 0.0
C735 C 0.8288 0.86024 0.08817 0.0
N736 N 0.7725 0.92264 0.16445 0.0
N737 N 0.87964 0.87317 0.02756 0.0
H738 H 0.8088 0.8116 0.07857 0.0
H739 H 0.85043 0.81554 0.05118 0.0
H740 H 0.89863 0.88979 1.0138 0.0
H741 H 0.87633 0.85339 0.99354 0.0
H742 H 0.77103 0.94762 0.17876 0.0
H743 H 0.74926 0.91104 0.16043 0.0
H744 H 0.81717 0.96472 0.21193 0.0
H745 H 0.85613 0.97002 0.17255 0.0
C746 C 0.3473 0.58275 0.8697 0.0
C747 C 0.366 0.6131 0.87263 0.0
C748 C 0.41183 0.58451 0.81342 0.0
C749 C 0.3973 0.55331 0.82909 0.0
N750 N 0.3432 0.52955 0.81241 0.0
N751 N 0.42008 0.64037 0.85155 0.0
C752 C 0.36251 0.55342 0.84191 0.0
C753 C 0.39912 0.61358 0.84441 0.0
N754 N 0.31493 0.58186 0.89139 0.0
N755 N 0.43616 0.58667 0.76447 0.0
H756 H 0.41502 0.66128 0.88102 0.0
H757 H 0.44506 0.63963 0.83641 0.0
H758 H 0.44282 0.56616 0.73444 0.0
H759 H 0.44561 0.60942 0.74674 0.0
H760 H 0.3018 0.55957 0.89789 0.0
H761 H 0.30161 0.6032 0.9047 0.0
H762 H 0.3172 0.52937 0.81454 0.0
H763 H 0.35338 0.51385 0.77542 0.0
C764 C 0.65575 0.14715 0.63164 0.0
C765 C 0.64914 0.1119 0.63226 0.0
C766 C 0.70949 0.1011 0.62227 0.0
C767 C 0.71555 0.13593 0.62031 0.0
N768 N 0.69509 0.19199 0.60968 0.0
N769 N 0.66904 0.05596 0.61332 0.0
C770 C 0.68881 0.15881 0.62081 0.0
C771 C 0.67592 0.08902 0.62341 0.0
N772 N 0.63117 0.16986 0.64553 0.0
N773 N 0.73606 0.07973 0.62371 0.0
H774 H 0.64465 0.04686 0.61061 0.0
H775 H 0.68703 0.03815 0.60135 0.0
H776 H 0.76069 0.08818 0.62083 0.0
H777 H 0.73392 0.0541 0.63191 0.0
H778 H 0.63602 0.1946 0.65868 0.0
H779 H 0.60591 0.16452 0.64726 0.0
H780 H 0.67649 0.20951 0.59937 0.0
H781 H 0.71916 0.20173 0.60555 0.0
C782 C 0.15869 0.42083 0.33023 0.0
C783 C 0.16229 0.41218 0.40048 0.0
C784 C 0.13376 0.46426 0.43262 0.0
C785 C 0.12481 0.4691 0.36336 0.0
N786 N 0.12849 0.45336 0.24486 0.0
N787 N 0.15295 0.42618 0.5204 0.0
C788 C 0.13768 0.44806 0.31152 0.0
C789 C 0.15057 0.43446 0.45239 0.0
N790 N 0.17554 0.40288 0.28185 0.0
N791 N 0.12581 0.48831 0.47941 0.0
H792 H 0.16657 0.40606 0.53912 0.0
H793 H 0.14002 0.43864 0.55898 0.0
H794 H 0.11286 0.50998 0.46577 0.0
H795 H 0.1345 0.4883 0.52979 0.0
H796 H 0.17606 0.40907 0.22991 0.0
H797 H 0.1918 0.38355 0.29528 0.0
H798 H 0.13396 0.43694 0.20509 0.0
H799 H 0.11367 0.47357 0.22995 0.0
C800 C 0.68567 0.58848 0.37457 0.0
C801 C 0.65584 0.60158 0.40378 0.0
C802 C 0.68594 0.65129 0.44079 0.0
C803 C 0.7157 0.639 0.41167 0.0
N804 N 0.7463 0.59214 0.36687 0.0
N805 N 0.6352 0.63503 0.49784 0.0
C806 C 0.71634 0.60639 0.383 0.0
C807 C 0.65837 0.62967 0.44771 0.0
N808 N 0.6849 0.55874 0.34073 0.0
N809 N 0.6836 0.68392 0.46009 0.0
H810 H 0.61705 0.61722 0.50998 0.0
H811 H 0.63719 0.65451 0.53305 0.0
H812 H 0.70314 0.70084 0.45276 0.0
H813 H 0.66125 0.69451 0.47689 0.0
H814 H 0.70431 0.55014 0.3099 0.0
H815 H 0.66478 0.54236 0.34497 0.0
H816 H 0.74894 0.56744 0.35127 0.0
H817 H 0.76899 0.60435 0.37453 0.0
C818 C 0.10632 0.94332 0.66109 0.0
C819 C 0.12998 0.96925 0.6633 0.0
C820 C 0.17559 0.92838 0.65356 0.0
C821 C 0.15168 0.90254 0.64372 0.0
N822 N 0.09312 0.88801 0.62413 0.0
N823 N 0.18664 0.98826 0.6575 0.0
C824 C 0.11673 0.91057 0.64452 0.0
C825 C 0.16455 0.96228 0.65824 0.0
N826 N 0.07349 0.95003 0.67477 0.0
N827 N 0.20857 0.9204 0.6612 0.0
H828 H 0.17896 0.01303 0.6632 0.0
H829 H 0.212 0.98557 0.64712 0.0
H830 H 0.21726 0.89583 0.66041 0.0
H831 H 0.22693 0.93765 0.6742 0.0
H832 H 0.05581 0.93145 0.68428 0.0
H833 H 0.06431 0.97412 0.68204 0.0
H834 H 0.06835 0.89439 0.61427 0.0
H835 H 0.09809 0.86377 0.60959 0.0
C836 C 0.79814 0.40208 0.8961 0.0
C837 C 0.79955 0.36963 0.92584 0.0
C838 C 0.85749 0.37959 0.95731 0.0
C839 C 0.85893 0.40745 0.91192 0.0
N840 N 0.82827 0.4502 0.85121 0.0
N841 N 0.83227 0.32565 0.9767 0.0
C842 C 0.82843 0.42035 0.88523 0.0
C843 C 0.8297 0.35791 0.95449 0.0
N844 N 0.76776 0.41572 0.88089 0.0
N845 N 0.88191 0.37459 1.00511 0.0
H846 H 0.81252 0.30872 0.973 0.0
H847 H 0.85485 0.31518 0.99258 0.0
H848 H 0.90035 0.39245 1.01446 0.0
H849 H 0.88084 0.35546 0.04157 0.0
H850 H 0.76445 0.44023 0.86419 0.0
H851 H 0.74538 0.40319 0.89043 0.0
H852 H 0.80827 0.45872 0.82183 0.0
H853 H 0.84821 0.46687 0.854 0.0
C854 C 0.37517 0.05602 0.10377 0.0
C855 C 0.38939 0.04927 0.16864 0.0
C856 C 0.36104 0.09821 0.21697 0.0
C857 C 0.34963 0.1068 0.15017 0.0
N858 N 0.33157 0.08465 0.04096 0.0
N859 N 0.38965 0.05805 0.2906 0.0
C860 C 0.35209 0.08279 0.09676 0.0
C861 C 0.38011 0.06847 0.22667 0.0
N862 N 0.38459 0.03741 0.04849 0.0
N863 N 0.35381 0.11897 0.27045 0.0
H864 H 0.4037 0.03644 0.29858 0.0
H865 H 0.38217 0.0694 0.33601 0.0
H866 H 0.33695 0.1387 0.26516 0.0
H867 H 0.36414 0.11685 0.31925 0.0
H868 H 0.37808 0.04348 0.99817 0.0
H869 H 0.40093 0.01719 0.05289 0.0
H870 H 0.33112 0.06664 1.00251 0.0
H871 H 0.31169 0.10133 0.03807 0.0
C872 C 0.30253 0.41056 0.65988 0.0
C873 C 0.30162 0.37903 0.62664 0.0
C874 C 0.35851 0.38759 0.58631 0.0
C875 C 0.36242 0.41449 0.63266 0.0
N876 N 0.33546 0.45949 0.69173 0.0
N877 N 0.32996 0.3357 0.56417 0.0
C878 C 0.3335 0.42847 0.6634 0.0
C879 C 0.33001 0.36705 0.5915 0.0
N880 N 0.2737 0.42318 0.68687 0.0
N881 N 0.38135 0.38273 0.53529 0.0
H882 H 0.30947 0.3197 0.56825 0.0
H883 H 0.35125 0.32472 0.54322 0.0
H884 H 0.4005 0.39989 0.52596 0.0
H885 H 0.37855 0.36465 0.49734 0.0
H886 H 0.27188 0.44589 0.71229 0.0
H887 H 0.25091 0.41072 0.68288 0.0
H888 H 0.31622 0.47108 0.71837 0.0
H889 H 0.3563 0.47469 0.684 0.0
C890 C 0.88762 0.1038 0.33451 0.0
C891 C 0.85832 0.10666 0.37534 0.0
C892 C 0.85977 0.04542 0.39106 0.0
C893 C 0.89299 0.04496 0.36544 0.0
N894 N 0.94042 0.0754 0.32251 0.0
N895 N 0.81227 0.07812 0.43004 0.0
C896 C 0.90743 0.07468 0.33994 0.0
C897 C 0.84302 0.07676 0.40003 0.0
N898 N 0.89563 0.12798 0.28768 0.0
N899 N 0.84388 0.01584 0.40381 0.0
H900 H 0.79675 0.09889 0.42512 0.0
H901 H 0.8019 0.05855 0.45826 0.0
H902 H 0.85535 0.99277 0.39601 0.0
H903 H 0.81875 0.01395 0.4169 0.0
H904 H 0.91592 0.1259 0.25438 0.0
H905 H 0.87914 0.14725 0.27509 0.0
H906 H 0.95276 0.09744 0.30907 0.0
H907 H 0.95591 0.05458 0.32803 0.0
C908 C 0.17476 0.59107 0.12614 0.0
C909 C 0.14871 0.61479 0.13563 0.0
C910 C 0.1891 0.66033 0.1162 0.0
C911 C 0.21534 0.63694 0.11667 0.0
N912 N 0.23465 0.58043 0.12559 0.0
N913 N 0.13375 0.67338 0.15407 0.0
C914 C 0.20857 0.60234 0.12258 0.0
C915 C 0.1564 0.64982 0.13356 0.0
N916 N 0.16709 0.55805 0.11799 0.0
N917 N 0.19552 0.69294 0.09973 0.0
H918 H 0.11003 0.66821 0.17231 0.0
H919 H 0.13986 0.69843 0.1612 0.0
H920 H 0.21952 0.70197 0.0903 0.0
H921 H 0.17677 0.71032 0.08947 0.0
H922 H 0.18464 0.53991 0.10529 0.0
H923 H 0.14258 0.54923 0.11755 0.0
H924 H 0.2319 0.55513 0.13696 0.0
H925 H 0.25943 0.58823 0.12088 0.0
C926 C 0.65515 0.96587 0.90891 0.0
C927 C 0.62539 0.96621 0.86949 0.0
C928 C 0.63692 0.90936 0.83187 0.0
C929 C 0.66143 0.90588 0.88393 0.0
N930 N 0.70061 0.93361 0.95873 0.0
N931 N 0.58589 0.93707 0.79844 0.0
C932 C 0.67278 0.93509 0.91845 0.0
C933 C 0.61576 0.93761 0.83215 0.0
N934 N 0.66689 0.99524 0.93502 0.0
N935 N 0.63477 0.88628 0.78064 0.0
H936 H 0.56942 0.95727 0.79882 0.0
H937 H 0.57636 0.91557 0.77561 0.0
H938 H 0.65237 0.86721 0.77534 0.0
H939 H 0.61862 0.88882 0.73898 0.0
H940 H 0.68968 0.99775 0.96007 0.0
H941 H 0.6545 0.01791 0.92764 0.0
H942 H 0.70748 0.95213 0.99329 0.0
H943 H 0.7177 0.91407 0.9553 0.0
C944 C 0.41375 0.12807 0.89573 0.0
C945 C 0.4244 0.15508 0.93867 0.0
C946 C 0.48236 0.14261 0.9034 0.0
C947 C 0.47125 0.12008 0.85197 0.0
N948 N 0.42492 0.09416 0.7946 0.0
N949 N 0.4695 0.193 0.96586 0.0
C950 C 0.43645 0.11383 0.84653 0.0
C951 C 0.45894 0.16359 0.93793 0.0
N952 N 0.38275 0.11446 0.90431 0.0
N953 N 0.51537 0.14395 0.92024 0.0
H954 H 0.45305 0.21099 0.98441 0.0
H955 H 0.49405 0.20147 0.96179 0.0
H956 H 0.53314 0.12854 0.89761 0.0
H957 H 0.5243 0.15775 0.96166 0.0
H958 H 0.37494 0.09297 0.87893 0.0
H959 H 0.36627 0.12205 0.94254 0.0
H960 H 0.39961 0.09158 0.78333 0.0
H961 H 0.44089 0.08223 0.76013 0.0
C962 C 0.60717 0.67056 0.10534 0.0
C963 C 0.61098 0.66998 0.17799 0.0
C964 C 0.64602 0.72077 0.16855 0.0
C965 C 0.64427 0.71981 0.09511 0.0
N966 N 0.63223 0.68559 0.99632 0.0
N967 N 0.64383 0.6887 0.27443 0.0
C968 C 0.62768 0.6921 0.06448 0.0
C969 C 0.63338 0.6933 0.20827 0.0
N970 N 0.58279 0.65194 0.0749 0.0
N971 N 0.65795 0.74829 0.20176 0.0
H972 H 0.63677 0.66815 0.30419 0.0
H973 H 0.66263 0.70303 0.29674 0.0
H974 H 0.6672 0.76943 0.17729 0.0
H975 H 0.65574 0.75136 0.25471 0.0
H976 H 0.57697 0.65399 0.02288 0.0
H977 H 0.56591 0.63742 0.10265 0.0
H978 H 0.62288 0.66422 0.97268 0.0
H979 H 0.64884 0.6992 0.9658 0.0
C980 C 0.04078 0.84659 0.35213 0.0
C981 C 0.04122 0.88163 0.33795 0.0
C982 C 0.08843 0.88671 0.41973 0.0
C983 C 0.08984 0.85124 0.42733 0.0
N984 N 0.07368 0.79795 0.38166 0.0
N985 N 0.0691 0.93447 0.35244 0.0
C986 C 0.0678 0.83137 0.38807 0.0
C987 C 0.06599 0.90161 0.37053 0.0
N988 N 0.01367 0.82779 0.33468 0.0
N989 N 0.10827 0.90624 0.46006 0.0
H990 H 0.05361 0.94592 0.31632 0.0
H991 H 0.08866 0.94963 0.36876 0.0
H992 H 0.12574 0.89629 0.49415 0.0
H993 H 0.10588 0.9321 0.46318 0.0
H994 H 0.01097 0.80283 0.34928 0.0
H995 H 0.99214 0.8381 0.31361 0.0
H996 H 0.05998 0.78262 0.34893 0.0
H997 H 0.095 0.78668 0.40195 0.0
C998 C 0.88569 0.31839 0.56918 0.0
C999 C 0.87049 0.28954 0.59915 0.0
C1000 C 0.88377 0.31414 0.71329 0.0
C1001 C 0.90452 0.33903 0.68255 0.0
N1002 N 0.92964 0.35969 0.57789 0.0
N1003 N 0.85982 0.25882 0.70499 0.0
C1004 C 0.90657 0.33977 0.60952 0.0
C1005 C 0.87065 0.28716 0.67269 0.0
N1006 N 0.8793 0.32628 0.50217 0.0
N1007 N 0.87506 0.31687 0.7809 0.0
H1008 H 0.84961 0.23841 0.67993 0.0
H1009 H 0.86359 0.25447 0.75723 0.0
H1010 H 0.88245 0.33681 0.81164 0.0
H1011 H 0.8573 0.3015 0.80416 0.0
H1012 H 0.88748 0.34841 0.4793 0.0
H1013 H 0.86224 0.31296 0.47242 0.0
H1014 H 0.93431 0.35875 0.52526 0.0
H1015 H 0.94677 0.37411 0.60491 0.0
C1016 C 0.56645 0.87846 0.08395 0.0
C1017 C 0.59073 0.85653 0.11275 0.0
C1018 C 0.56822 0.87081 0.22766 0.0
C1019 C 0.54021 0.88758 0.19808 0.0
N1020 N 0.51047 0.90037 0.09225 0.0
N1021 N 0.60995 0.82744 0.21418 0.0
C1022 C 0.53878 0.88967 0.12463 0.0
C1023 C 0.59037 0.85161 0.1853 0.0
N1024 N 0.57021 0.88982 1.01812 0.0
N1025 N 0.57459 0.87406 0.29618 0.0
H1026 H 0.62515 0.81177 0.18532 0.0
H1027 H 0.60819 0.82053 0.26572 0.0
H1028 H 0.5606 0.88961 0.328 0.0
H1029 H 0.59616 0.86475 0.31932 0.0
H1030 H 0.55504 0.90836 0.99694 0.0
H1031 H 0.59077 0.88387 0.98765 0.0
H1032 H 0.50726 0.89868 0.03926 0.0
H1033 H 0.4888 0.9074 0.11759 0.0
C1034 C 0.39147 0.31545 0.83732 0.0
C1035 C 0.41195 0.34158 0.86325 0.0
C1036 C 0.39816 0.32189 0.98091 0.0
C1037 C 0.38187 0.29297 0.95462 0.0
N1038 N 0.37243 0.25872 0.85388 0.0
N1039 N 0.44061 0.36419 0.9619 0.0
C1040 C 0.381 0.28881 0.88171 0.0
C1041 C 0.41684 0.34333 0.93574 0.0
N1042 N 0.38085 0.31637 0.77068 0.0
N1043 N 0.39506 0.32969 0.04879 0.0
H1044 H 0.45623 0.37876 0.93115 0.0
H1045 H 0.44742 0.36406 1.01354 0.0
H1046 H 0.38041 0.31578 0.08273 0.0
H1047 H 0.40384 0.35202 0.06942 0.0
H1048 H 0.36336 0.29959 0.75126 0.0
H1049 H 0.38634 0.33604 0.73724 0.0
H1050 H 0.3745 0.25378 0.80153 0.0
H1051 H 0.36746 0.23744 0.88302 0.0
C1052 C 0.97818 0.11995 0.61461 0.0
C1053 C 0.97557 0.12007 0.68805 0.0
C1054 C 0.92494 0.15526 0.67632 0.0
C1055 C 0.92609 0.15314 0.60341 0.0
N1056 N 0.94878 0.12388 0.50579 0.0
N1057 N 0.9386 0.12845 0.78441 0.0
C1058 C 0.95122 0.13265 0.57335 0.0
C1059 C 0.94648 0.13481 0.71737 0.0
N1060 N 0.00669 0.1093 0.58303 0.0
N1061 N 0.90451 0.17802 0.70714 0.0
H1062 H 0.9522 0.11174 0.8147 0.0
H1063 H 0.91631 0.1363 0.80683 0.0
H1064 H 0.88985 0.19481 0.67951 0.0
H1065 H 0.90513 0.18279 0.75971 0.0
H1066 H 0.01113 0.11298 0.5308 0.0
H1067 H 0.02712 0.09932 0.60859 0.0
H1068 H 0.96438 0.10624 0.48303 0.0
H1069 H 0.92888 0.13108 0.47456 0.0
C1070 C 0.09737 0.71124 0.45316 0.0
C1071 C 0.13273 0.71686 0.45432 0.0
C1072 C 0.13793 0.67376 0.36345 0.0
C1073 C 0.10308 0.66687 0.36752 0.0
N1074 N 0.05295 0.67128 0.43469 0.0
N1075 N 0.18709 0.69746 0.4186 0.0
C1076 C 0.08393 0.68312 0.41823 0.0
C1077 C 0.15318 0.6965 0.41136 0.0
N1078 N 0.07589 0.73399 0.48078 0.0
N1079 N 0.15656 0.65844 0.31404 0.0
H1080 H 0.19898 0.71227 0.45505 0.0
H1081 H 0.20322 0.68117 0.39348 0.0
H1082 H 0.14672 0.6401 0.28199 0.0
H1083 H 0.18106 0.66517 0.30244 0.0
H1084 H 0.05004 0.73232 0.47535 0.0
H1085 H 0.0836 0.75685 0.50013 0.0
H1086 H 0.03906 0.68044 0.47583 0.0
H1087 H 0.04294 0.64985 0.41235 0.0
C1088 C 0.9237 0.62147 0.43376 0.0
C1089 C 0.92098 0.65692 0.43729 0.0
C1090 C 0.96873 0.66198 0.35845 0.0
C1091 C 0.96954 0.62646 0.34864 0.0
N1092 N 0.944 0.57298 0.37105 0.0
N1093 N 0.93721 0.71082 0.39348 0.0
C1094 C 0.94607 0.60632 0.38511 0.0
C1095 C 0.94237 0.67705 0.3967 0.0
N1096 N 0.90533 0.60224 0.47796 0.0
N1097 N 0.99431 0.68158 0.33498 0.0
H1098 H 0.91905 0.72305 0.42243 0.0
H1099 H 0.94893 0.72633 0.35776 0.0
H1100 H 0.01542 0.67218 0.31095 0.0
H1101 H 0.99685 0.70677 0.34719 0.0
H1102 H 0.90863 0.57656 0.48366 0.0
H1103 H 0.88849 0.61243 0.51302 0.0
H1104 H 0.92529 0.55751 0.39043 0.0
H1105 H 0.9593 0.56126 0.33515 0.0
C1106 C 0.10833 0.17643 0.61216 0.0
C1107 C 0.11115 0.17726 0.68501 0.0
C1108 C 0.14524 0.22858 0.67334 0.0
C1109 C 0.14485 0.22604 0.59989 0.0
N1110 N 0.13432 0.18998 0.50321 0.0
N1111 N 0.1416 0.19893 0.78205 0.0
C1112 C 0.12893 0.19761 0.5706 0.0
C1113 C 0.13239 0.20177 0.71471 0.0
N1114 N 0.08482 0.15662 0.58206 0.0
N1115 N 0.15607 0.25702 0.70484 0.0
H1116 H 0.13415 0.17911 0.81344 0.0
H1117 H 0.15976 0.21407 0.80435 0.0
H1118 H 0.1653 0.2778 0.67914 0.0
H1119 H 0.15285 0.26122 0.75722 0.0
H1120 H 0.07954 0.1575 0.52967 0.0
H1121 H 0.06801 0.14224 0.61029 0.0
H1122 H 0.12558 0.16805 0.48076 0.0
H1123 H 0.15103 0.20329 0.47238 0.0
C1124 C 0.54856 0.34858 0.84362 0.0
C1125 C 0.54556 0.38398 0.83721 0.0
C1126 C 0.591 0.38923 0.92279 0.0
C1127 C 0.59617 0.35402 0.92134 0.0
N1128 N 0.58682 0.30271 0.86057 0.0
N1129 N 0.56851 0.43816 0.86412 0.0
C1130 C 0.57712 0.33451 0.8756 0.0
C1131 C 0.56805 0.40445 0.8752 0.0
N1132 N 0.52306 0.3281 0.82401 0.0
N1133 N 0.60762 0.40806 0.97007 0.0
H1134 H 0.55299 0.44991 0.8285 0.0
H1135 H 0.58633 0.45396 0.88548 0.0
H1136 H 0.62505 0.39783 1.00398 0.0
H1137 H 0.60242 0.4332 0.97877 0.0
H1138 H 0.5234 0.30235 0.83268 0.0
H1139 H 0.49995 0.33715 0.80807 0.0
H1140 H 0.57494 0.28827 0.82339 0.0
H1141 H 0.60907 0.2926 0.87926 0.0
C1142 C 0.36564 0.79062 0.16858 0.0
C1143 C 0.36539 0.79248 0.09537 0.0
C1144 C 0.40005 0.84365 0.10268 0.0
C1145 C 0.39886 0.84286 0.17578 0.0
N1146 N 0.36954 0.82126 0.27525 0.0
N1147 N 0.3727 0.82817 0.99642 0.0
C1148 C 0.37832 0.81808 0.20777 0.0
C1149 C 0.3795 0.82141 0.06378 0.0
N1150 N 0.3555 0.76224 0.20174 0.0
N1151 N 0.42209 0.86415 0.06956 0.0
H1152 H 0.35635 0.81359 0.96748 0.0
H1153 H 0.37992 0.8503 0.97221 0.0
H1154 H 0.43875 0.87963 0.09515 0.0
H1155 H 0.4263 0.86305 1.0168 0.0
H1156 H 0.35932 0.75839 0.25413 0.0
H1157 H 0.34595 0.74136 0.17709 0.0
H1158 H 0.35197 0.80583 0.29896 0.0
H1159 H 0.37641 0.84165 0.30519 0.0
C1160 C 0.06813 0.38411 0.57689 0.0
C1161 C 0.09311 0.36392 0.60881 0.0
C1162 C 0.07119 0.38286 0.72094 0.0
C1163 C 0.04217 0.3968 0.68954 0.0
N1164 N 0.01192 0.40581 0.58284 0.0
N1165 N 0.11404 0.34038 0.7149 0.0
C1166 C 0.0404 0.39634 0.61617 0.0
C1167 C 0.09358 0.36247 0.68191 0.0
N1168 N 0.07138 0.393 0.5094 0.0
N1169 N 0.07807 0.38982 0.78805 0.0
H1170 H 0.12942 0.32371 0.68902 0.0
H1171 H 0.11287 0.33605 0.76766 0.0
H1172 H 0.06367 0.40634 0.81694 0.0
H1173 H 0.10024 0.38263 0.81193 0.0
H1174 H 0.05574 0.41035 0.4856 0.0
H1175 H 0.09197 0.38643 0.47962 0.0
H1176 H 0.00833 0.40187 0.53048 0.0
H1177 H 0.99072 0.41481 0.60726 0.0
C1178 C 0.91086 0.83978 0.41783 0.0
C1179 C 0.90763 0.83709 0.34514 0.0
C1180 C 0.8745 0.78555 0.3641 0.0
C1181 C 0.874 0.79084 0.43679 0.0
N1182 N 0.88505 0.82969 0.52856 0.0
N1183 N 0.87775 0.81142 0.25139 0.0
C1184 C 0.89015 0.82002 0.46222 0.0
C1185 C 0.88687 0.81119 0.31896 0.0
N1186 N 0.93498 0.85984 0.44529 0.0
N1187 N 0.86537 0.7554 0.33734 0.0
H1188 H 0.88469 0.83033 0.21728 0.0
H1189 H 0.86013 0.79492 0.23141 0.0
H1190 H 0.85852 0.73487 0.36705 0.0
H1191 H 0.86856 0.74956 0.28563 0.0
H1192 H 0.9403 0.86027 0.49766 0.0
H1193 H 0.95235 0.87278 0.41547 0.0
H1194 H 0.89398 0.85222 0.54797 0.0
H1195 H 0.86852 0.81733 0.5614 0.0
C1196 C 0.42588 0.66199 0.17525 0.0
C1197 C 0.4246 0.65647 0.10318 0.0
C1198 C 0.47372 0.61924 0.11555 0.0
C1199 C 0.47276 0.62202 0.18888 0.0
N1200 N 0.43894 0.63802 0.28631 0.0
N1201 N 0.44095 0.62 1.01103 0.0
C1202 C 0.44607 0.64096 0.21796 0.0
C1203 C 0.44671 0.63225 0.07513 0.0
N1204 N 0.40893 0.68819 0.2033 0.0
N1205 N 0.50068 0.60571 0.08295 0.0
H1206 H 0.41975 0.62645 0.98315 0.0
H1207 H 0.45451 0.60024 0.99014 0.0
H1208 H 0.52169 0.59657 0.10787 0.0
H1209 H 0.50355 0.60669 0.02976 0.0
H1210 H 0.41146 0.69505 0.25463 0.0
H1211 H 0.39563 0.70536 0.17369 0.0
H1212 H 0.41825 0.64935 0.30888 0.0
H1213 H 0.45093 0.62079 0.3182 0.0
C1214 C 0.65351 0.19496 0.90407 0.0
C1215 C 0.63452 0.2207 0.93597 0.0
C1216 C 0.58381 0.1999 0.87543 0.0
C1217 C 0.60245 0.17349 0.84588 0.0
N1218 N 0.65619 0.14944 0.82113 0.0
N1219 N 0.57977 0.24463 0.95738 0.0
C1220 C 0.63764 0.17195 0.85754 0.0
C1221 C 0.59925 0.22224 0.92292 0.0
N1222 N 0.68634 0.19116 0.92171 0.0
N1223 N 0.55133 0.20475 0.85597 0.0
H1224 H 0.58918 0.26521 0.98304 0.0
H1225 H 0.55391 0.24254 0.96149 0.0
H1226 H 0.53815 0.18818 0.82518 0.0
H1227 H 0.5379 0.22644 0.86635 0.0
H1228 H 0.70105 0.17102 0.90695 0.0
H1229 H 0.69852 0.20707 0.95579 0.0
H1230 H 0.68216 0.14904 0.82028 0.0
H1231 H 0.64562 0.13253 0.78684 0.0
C1232 C 0.26065 0.27572 0.20987 0.0
C1233 C 0.28257 0.24838 0.22305 0.0
C1234 C 0.26174 0.24684 0.34414 0.0
C1235 C 0.23969 0.27407 0.33079 0.0
N1236 N 0.21614 0.31268 0.24872 0.0
N1237 N 0.3053 0.2089 0.30429 0.0
C1238 C 0.23861 0.28786 0.26288 0.0
C1239 C 0.28346 0.23438 0.29081 0.0
N1240 N 0.26248 0.2916 0.14765 0.0
N1241 N 0.2603 0.23139 0.40688 0.0
H1242 H 0.31877 0.19672 0.26609 0.0
H1243 H 0.31111 0.20024 0.35324 0.0
H1244 H 0.24478 0.23947 0.44647 0.0
H1245 H 0.27272 0.20938 0.41929 0.0
H1246 H 0.25041 0.31393 0.13606 0.0
H1247 H 0.27818 0.28374 0.10815 0.0
H1248 H 0.21025 0.32084 0.19943 0.0
H1249 H 0.20201 0.32446 0.28644 0.0
C1250 C 0.54374 0.50742 0.49759 0.0
C1251 C 0.51998 0.52614 0.45864 0.0
C1252 C 0.47498 0.50369 0.53441 0.0
C1253 C 0.49874 0.48425 0.57192 0.0
N1254 N 0.55524 0.46452 0.58353 0.0
N1255 N 0.46321 0.54441 0.44365 0.0
C1256 C 0.53292 0.48524 0.55155 0.0
C1257 C 0.48566 0.52489 0.47838 0.0
N1258 N 0.57707 0.51275 0.48653 0.0
N1259 N 0.44179 0.50026 0.54979 0.0
H1260 H 0.46945 0.55792 0.39956 0.0
H1261 H 0.43868 0.54837 0.45908 0.0
H1262 H 0.43304 0.48529 0.58986 0.0
H1263 H 0.42246 0.51065 0.52126 0.0
H1264 H 0.59589 0.50314 0.51767 0.0
H1265 H 0.58612 0.52941 0.44973 0.0
H1266 H 0.57934 0.4602 0.5656 0.0
H1267 H 0.54908 0.45 0.6263 0.0
C1268 C 0.25177 0.78846 0.75619 0.0
C1269 C 0.23214 0.76516 0.71844 0.0
C1270 C 0.25668 0.71936 0.78881 0.0
C1271 C 0.27418 0.74287 0.83028 0.0
N1272 N 0.28393 0.80044 0.85942 0.0
N1273 N 0.21291 0.70849 0.70515 0.0
C1274 C 0.2706 0.7776 0.81518 0.0
C1275 C 0.2336 0.73069 0.73711 0.0
N1276 N 0.25239 0.8212 0.73593 0.0
N1277 N 0.26364 0.68606 0.79554 0.0
H1278 H 0.19767 0.71506 0.66382 0.0
H1279 H 0.20937 0.68404 0.72216 0.0
H1280 H 0.28088 0.67669 0.83074 0.0
H1281 H 0.25476 0.66791 0.76205 0.0
H1282 H 0.26908 0.83872 0.75541 0.0
H1283 H 0.23777 0.83056 0.69597 0.0
H1284 H 0.27953 0.82603 0.85618 0.0
H1285 H 0.29692 0.79357 0.90371 0.0
C1286 C 0.9781 0.53259 0.0447 0.0
C1287 C 0.01246 0.53514 0.06322 0.0
C1288 C 0.02593 0.49396 0.97125 0.0
C1289 C 0.99143 0.49091 0.95377 0.0
N1290 N 0.93427 0.50265 0.98376 0.0
N1291 N 0.06969 0.5216 0.03763 0.0
C1292 C 0.96748 0.50932 0.99272 0.0
C1293 C 0.03647 0.51638 0.02507 0.0
N1294 N 0.95539 0.55275 0.07667 0.0
N1295 N 0.04871 0.47495 0.93658 0.0
H1296 H 0.07837 0.53776 0.0755 0.0
H1297 H 0.08901 0.51173 1.00841 0.0
H1298 H 0.04246 0.46058 0.89392 0.0
H1299 H 0.07357 0.4722 0.95086 0.0
H1300 H 0.93089 0.55586 0.06 0.0
H1301 H 0.96153 0.56809 0.11793 0.0
H1302 H 0.91544 0.51201 1.01507 0.0
H1303 H 0.92546 0.48519 0.94864 0.0
C1304 C 0.75325 0.79363 0.78393 0.0
C1305 C 0.7354 0.77016 0.82554 0.0
C1306 C 0.7589 0.72432 0.75417 0.0
C1307 C 0.77545 0.74783 0.71064 0.0
N1308 N 0.78568 0.80512 0.68005 0.0
N1309 N 0.71818 0.71319 0.84446 0.0
C1310 C 0.77203 0.78257 0.72495 0.0
C1311 C 0.73729 0.73556 0.80856 0.0
N1312 N 0.75185 0.82679 0.80026 0.0
N1313 N 0.76532 0.691 0.74605 0.0
H1314 H 0.70421 0.71977 0.88755 0.0
H1315 H 0.71463 0.68851 0.82949 0.0
H1316 H 0.78078 0.68172 0.70751 0.0
H1317 H 0.75754 0.67262 0.78046 0.0
H1318 H 0.76719 0.84499 0.77868 0.0
H1319 H 0.73599 0.83619 0.83792 0.0
H1320 H 0.7819 0.8308 0.68236 0.0
H1321 H 0.79915 0.79793 0.63667 0.0
C1322 C 0.7304 0.27708 0.28593 0.0
C1323 C 0.73049 0.2616 0.2199 0.0
C1324 C 0.7771 0.22527 0.26041 0.0
C1325 C 0.77547 0.23928 0.32788 0.0
N1326 N 0.7469 0.27571 0.40643 0.0
N1327 N 0.75117 0.21748 0.14814 0.0
C1328 C 0.75082 0.26415 0.34102 0.0
C1329 C 0.75332 0.2349 0.20821 0.0
N1330 N 0.71227 0.30568 0.295 0.0
N1331 N 0.80144 0.20238 0.24597 0.0
H1332 H 0.73425 0.22357 0.10937 0.0
H1333 H 0.76411 0.19543 0.1386 0.0
H1334 H 0.81705 0.19209 0.28327 0.0
H1335 H 0.80729 0.19462 0.19646 0.0
H1336 H 0.71359 0.32038 0.33887 0.0
H1337 H 0.69828 0.31672 0.25587 0.0
H1338 H 0.72692 0.29057 0.42171 0.0
H1339 H 0.76238 0.26853 0.4469 0.0
C1340 C 0.99943 1.00244 0.94499 0.0
C1341 C 0.02418 0.02702 0.95909 0.0
C1342 C 0.02462 0.00799 0.08156 0.0
C1343 C 0.99949 0.98372 0.06752 0.0
N1344 N 0.95849 0.96251 0.98828 0.0
N1345 N 0.06387 0.05003 0.03883 0.0
C1346 C 0.98599 0.98203 0.9996 0.0
C1347 C 0.03742 0.02913 0.0272 0.0
N1348 N 0.98885 0.99835 0.87884 0.0
N1349 N 0.03623 0.01092 0.14728 0.0
H1350 H 0.07464 0.06477 1.00051 0.0
H1351 H 0.07701 0.05136 0.08471 0.0
H1352 H 0.02929 0.99465 0.18672 0.0
H1353 H 0.05156 0.03014 0.16426 0.0
H1354 H 0.97433 0.97833 0.86252 0.0
H1355 H 0.99639 0.0139 0.83865 0.0
H1356 H 0.94494 0.96247 0.94274 0.0
H1357 H 0.94697 0.94842 0.02671 0.0
C1358 C 0.49101 0.99834 0.59015 0.0
C1359 C 0.51588 0.02287 0.57642 0.0
C1360 C 0.51695 1.00434 0.45413 0.0
C1361 C 0.49122 0.9805 0.46734 0.0
N1362 N 0.45026 0.95853 0.54634 0.0
N1363 N 0.55647 0.04563 0.49799 0.0
C1364 C 0.47766 0.97826 0.53525 0.0
C1365 C 0.52966 0.02503 0.5088 0.0
N1366 N 0.48029 0.99397 0.65623 0.0
N1367 N 0.52928 0.00726 0.38886 0.0
H1368 H 0.56714 0.06002 0.53671 0.0
H1369 H 0.56999 0.047 0.45252 0.0
H1370 H 0.52292 0.99094 0.34942 0.0
H1371 H 0.54491 0.02641 0.3723 0.0
H1372 H 0.4654 0.97413 0.67237 0.0
H1373 H 0.48821 0.00906 0.69659 0.0
H1374 H 0.4366 0.95818 0.59177 0.0
H1375 H 0.4391 0.94433 0.50795 0.0
loop_
_geom_bond_atom_site_label_1
_geom_bond_atom_site_label_2
_geom_bond_distance
_geom_bond_site_symmetry_2
_ccdc_geom_bond_type
Zn0 O1 2.055 . S
Zn0 O8 2.046 1_554 S
Zn0 N16 2.036 1_554 S
Zn0 O28 2.053 1_554 S
Zn0 O30 2.066 . S
O1 Zn0 2.055 . S
O1 C4 1.259 . S
C2 O30 1.256 . S
C2 O31 1.244 . S
Zn3 O5 2.046 . S
Zn3 O7 2.055 1_554 S
Zn3 N9 2.036 . S
Zn3 O27 2.066 . S
Zn3 O31 2.053 . S
C4 O1 1.259 . S
C4 O5 1.254 . S
O5 Zn3 2.046 . S
O5 C4 1.254 . S
C6 O27 1.256 1_556 S
C6 O28 1.244 . S
O7 Zn3 2.055 1_556 S
O7 C29 1.259 . S
O8 Zn0 2.046 1_556 S
O8 C29 1.254 . S
N9 Zn3 2.036 . S
N9 C10 1.298 . S
N9 N12 1.398 . S
C10 N9 1.298 . S
C10 N13 1.367 . S
C10 C23 1.481 . S
C11 N12 1.299 . S
C11 N13 1.379 . S
N12 N9 1.398 . S
N12 C11 1.299 . S
N13 C10 1.367 . S
N13 C11 1.379 . S
C14 N16 1.298 . S
C14 N18 1.367 . S
C14 C22 1.481 1_556 S
C15 N17 1.299 . S
C15 N18 1.379 . S
N16 Zn0 2.036 1_556 S
N16 C14 1.298 . S
N16 N17 1.398 . S
N17 C15 1.299 . S
N17 N16 1.398 . S
N18 C14 1.367 . S
N18 C15 1.379 . S
H19 C22 0.980 . S
H20 C22 0.981 . S
H21 C22 0.981 . S
C22 C14 1.481 1_554 S
C22 H19 0.980 . S
C22 H20 0.981 . S
C22 H21 0.981 . S
C23 C10 1.481 . S
C23 H24 0.980 . S
C23 H25 0.981 . S
C23 H26 0.981 . S
H24 C23 0.980 . S
H25 C23 0.981 . S
H26 C23 0.981 . S
O27 Zn3 2.066 . S
O27 C6 1.256 1_554 S
O28 Zn0 2.053 1_556 S
O28 C6 1.244 . S
C29 O7 1.259 . S
C29 O8 1.254 . S
O30 Zn0 2.066 . S
O30 C2 1.256 . S
O31 C2 1.244 . S
O31 Zn3 2.053 . S
Zn32 O33 2.055 . S
Zn32 O40 2.046 . S
Zn32 N48 2.036 . S
Zn32 O60 2.053 . S
Zn32 O62 2.066 . S
O33 Zn32 2.055 . S
O33 C36 1.259 . S
C34 O62 1.256 . S
C34 O63 1.244 . S
Zn35 O37 2.046 . S
Zn35 O39 2.055 . S
Zn35 N41 2.036 . S
Zn35 O59 2.066 . S
Zn35 O63 2.053 . S
C36 O33 1.259 . S
C36 O37 1.254 . S
O37 Zn35 2.046 . S
O37 C36 1.254 . S
C38 O59 1.256 . S
C38 O60 1.244 . S
O39 Zn35 2.055 . S
O39 C61 1.259 . S
O40 Zn32 2.046 . S
O40 C61 1.254 . S
N41 Zn35 2.036 . S
N41 C42 1.298 . S
N41 N44 1.398 . S
C42 N41 1.298 . S
C42 N45 1.367 . S
C42 C55 1.481 . S
C43 N44 1.299 . S
C43 N45 1.379 . S
N44 N41 1.398 . S
N44 C43 1.299 . S
N45 C42 1.367 . S
N45 C43 1.379 . S
C46 N48 1.298 . S
C46 N50 1.367 . S
C46 C54 1.481 . S
C47 N49 1.299 . S
C47 N50 1.379 . S
N48 Zn32 2.036 . S
N48 C46 1.298 . S
N48 N49 1.398 . S
N49 C47 1.299 . S
N49 N48 1.398 . S
N50 C46 1.367 . S
N50 C47 1.379 . S
H51 C54 0.980 . S
H52 C54 0.981 . S
H53 C54 0.981 . S
C54 C46 1.481 . S
C54 H51 0.980 . S
C54 H52 0.981 . S
C54 H53 0.981 . S
C55 C42 1.481 . S
C55 H56 0.980 . S
C55 H57 0.981 . S
C55 H58 0.981 . S
H56 C55 0.980 . S
H57 C55 0.981 . S
H58 C55 0.981 . S
O59 Zn35 2.066 . S
O59 C38 1.256 . S
O60 Zn32 2.053 . S
O60 C38 1.244 . S
C61 O39 1.259 . S
C61 O40 1.254 . S
O62 Zn32 2.066 . S
O62 C34 1.256 . S
O63 C34 1.244 . S
O63 Zn35 2.053 . S
Zn64 O65 2.055 . S
Zn64 O72 2.046 . S
Zn64 N80 2.036 . S
Zn64 O92 2.053 . S
Zn64 O94 2.066 . S
O65 Zn64 2.055 . S
O65 C68 1.259 . S
C66 O94 1.256 . S
C66 O95 1.244 . S
Zn67 O69 2.046 . S
Zn67 O71 2.055 . S
Zn67 N73 2.036 . S
Zn67 O91 2.066 . S
Zn67 O95 2.053 . S
C68 O65 1.259 . S
C68 O69 1.254 . S
O69 Zn67 2.046 . S
O69 C68 1.254 . S
C70 O91 1.256 . S
C70 O92 1.244 . S
O71 Zn67 2.055 . S
O71 C93 1.259 . S
O72 Zn64 2.046 . S
O72 C93 1.254 . S
N73 Zn67 2.036 . S
N73 C74 1.298 . S
N73 N76 1.398 . S
C74 N73 1.298 . S
C74 N77 1.367 . S
C74 C87 1.481 . S
C75 N76 1.299 . S
C75 N77 1.379 . S
N76 N73 1.398 . S
N76 C75 1.299 . S
N77 C74 1.367 . S
N77 C75 1.379 . S
C78 N80 1.298 . S
C78 N82 1.367 . S
C78 C86 1.481 . S
C79 N81 1.299 . S
C79 N82 1.379 . S
N80 Zn64 2.036 . S
N80 C78 1.298 . S
N80 N81 1.398 . S
N81 C79 1.299 . S
N81 N80 1.398 . S
N82 C78 1.367 . S
N82 C79 1.379 . S
H83 C86 0.980 . S
H84 C86 0.981 . S
H85 C86 0.981 . S
C86 C78 1.481 . S
C86 H83 0.980 . S
C86 H84 0.981 . S
C86 H85 0.981 . S
C87 C74 1.481 . S
C87 H88 0.980 . S
C87 H89 0.981 . S
C87 H90 0.981 . S
H88 C87 0.980 . S
H89 C87 0.981 . S
H90 C87 0.981 . S
O91 Zn67 2.066 . S
O91 C70 1.256 . S
O92 Zn64 2.053 . S
O92 C70 1.244 . S
C93 O71 1.259 . S
C93 O72 1.254 . S
O94 Zn64 2.066 . S
O94 C66 1.256 . S
O95 C66 1.244 . S
O95 Zn67 2.053 . S
Zn96 O97 2.055 . S
Zn96 O104 2.046 . S
Zn96 N112 2.036 . S
Zn96 O124 2.053 . S
Zn96 O126 2.066 . S
O97 Zn96 2.055 . S
O97 C100 1.259 . S
C98 O126 1.256 . S
C98 O127 1.244 . S
Zn99 O101 2.046 . S
Zn99 O103 2.055 . S
Zn99 N105 2.036 . S
Zn99 O123 2.066 . S
Zn99 O127 2.053 . S
C100 O97 1.259 . S
C100 O101 1.254 . S
O101 Zn99 2.046 . S
O101 C100 1.254 . S
C102 O123 1.256 . S
C102 O124 1.244 . S
O103 Zn99 2.055 . S
O103 C125 1.259 . S
O104 Zn96 2.046 . S
O104 C125 1.254 . S
N105 Zn99 2.036 . S
N105 C106 1.298 . S
N105 N108 1.398 . S
C106 N105 1.298 . S
C106 N109 1.367 . S
C106 C119 1.481 . S
C107 N108 1.299 . S
C107 N109 1.379 . S
N108 N105 1.398 . S
N108 C107 1.299 . S
N109 C106 1.367 . S
N109 C107 1.379 . S
C110 N112 1.298 . S
C110 N114 1.367 . S
C110 C118 1.481 . S
C111 N113 1.299 . S
C111 N114 1.379 . S
N112 Zn96 2.036 . S
N112 C110 1.298 . S
N112 N113 1.398 . S
N113 C111 1.299 . S
N113 N112 1.398 . S
N114 C110 1.367 . S
N114 C111 1.379 . S
H115 C118 0.980 . S
H116 C118 0.981 . S
H117 C118 0.981 . S
C118 C110 1.481 . S
C118 H115 0.980 . S
C118 H116 0.981 . S
C118 H117 0.981 . S
C119 C106 1.481 . S
C119 H120 0.980 . S
C119 H121 0.981 . S
C119 H122 0.981 . S
H120 C119 0.980 . S
H121 C119 0.981 . S
H122 C119 0.981 . S
O123 Zn99 2.066 . S
O123 C102 1.256 . S
O124 Zn96 2.053 . S
O124 C102 1.244 . S
C125 O103 1.259 . S
C125 O104 1.254 . S
O126 Zn96 2.066 . S
O126 C98 1.256 . S
O127 C98 1.244 . S
O127 Zn99 2.053 . S
Zn128 O129 2.055 1_556 S
Zn128 O136 2.046 . S
Zn128 N144 2.036 . S
Zn128 O156 2.053 . S
Zn128 O158 2.066 . S
O129 Zn128 2.055 1_554 S
O129 C132 1.259 . S
C130 O158 1.256 1_554 S
C130 O159 1.244 . S
Zn131 O133 2.046 1_556 S
Zn131 O135 2.055 . S
Zn131 N137 2.036 1_556 S
Zn131 O155 2.066 . S
Zn131 O159 2.053 1_556 S
C132 O129 1.259 . S
C132 O133 1.254 . S
O133 Zn131 2.046 1_554 S
O133 C132 1.254 . S
C134 O155 1.256 . S
C134 O156 1.244 . S
O135 Zn131 2.055 . S
O135 C157 1.259 . S
O136 Zn128 2.046 . S
O136 C157 1.254 . S
N137 Zn131 2.036 1_554 S
N137 C138 1.298 . S
N137 N140 1.398 . S
C138 N137 1.298 . S
C138 N141 1.367 . S
C138 C151 1.481 1_554 S
C139 N140 1.299 . S
C139 N141 1.379 . S
N140 N137 1.398 . S
N140 C139 1.299 . S
N141 C138 1.367 . S
N141 C139 1.379 . S
C142 N144 1.298 . S
C142 N146 1.367 . S
C142 C150 1.481 . S
C143 N145 1.299 . S
C143 N146 1.379 . S
N144 Zn128 2.036 . S
N144 C142 1.298 . S
N144 N145 1.398 . S
N145 C143 1.299 . S
N145 N144 1.398 . S
N146 C142 1.367 . S
N146 C143 1.379 . S
H147 C150 0.980 . S
H148 C150 0.981 . S
H149 C150 0.981 . S
C150 C142 1.481 . S
C150 H147 0.980 . S
C150 H148 0.981 . S
C150 H149 0.981 . S
C151 C138 1.481 1_556 S
C151 H152 0.980 . S
C151 H153 0.981 . S
C151 H154 0.981 . S
H152 C151 0.980 . S
H153 C151 0.981 . S
H154 C151 0.981 . S
O155 Zn131 2.066 . S
O155 C134 1.256 . S
O156 Zn128 2.053 . S
O156 C134 1.244 . S
C157 O135 1.259 . S
C157 O136 1.254 . S
O158 Zn128 2.066 . S
O158 C130 1.256 1_556 S
O159 C130 1.244 . S
O159 Zn131 2.053 1_554 S
Zn160 O161 2.055 . S
Zn160 O168 2.046 . S
Zn160 N176 2.036 . S
Zn160 O188 2.053 . S
Zn160 O190 2.066 . S
O161 Zn160 2.055 . S
O161 C164 1.259 . S
C162 O190 1.256 . S
C162 O191 1.244 . S
Zn163 O165 2.046 . S
Zn163 O167 2.055 . S
Zn163 N169 2.036 . S
Zn163 O187 2.066 . S
Zn163 O191 2.053 . S
C164 O161 1.259 . S
C164 O165 1.254 . S
O165 Zn163 2.046 . S
O165 C164 1.254 . S
C166 O187 1.256 . S
C166 O188 1.244 . S
O167 Zn163 2.055 . S
O167 C189 1.259 . S
O168 Zn160 2.046 . S
O168 C189 1.254 . S
N169 Zn163 2.036 . S
N169 C170 1.298 . S
N169 N172 1.398 . S
C170 N169 1.298 . S
C170 N173 1.367 . S
C170 C183 1.481 . S
C171 N172 1.299 . S
C171 N173 1.379 . S
N172 N169 1.398 . S
N172 C171 1.299 . S
N173 C170 1.367 . S
N173 C171 1.379 . S
C174 N176 1.298 . S
C174 N178 1.367 . S
C174 C182 1.481 . S
C175 N177 1.299 . S
C175 N178 1.379 . S
N176 Zn160 2.036 . S
N176 C174 1.298 . S
N176 N177 1.398 . S
N177 C175 1.299 . S
N177 N176 1.398 . S
N178 C174 1.367 . S
N178 C175 1.379 . S
H179 C182 0.980 . S
H180 C182 0.981 . S
H181 C182 0.981 . S
C182 C174 1.481 . S
C182 H179 0.980 . S
C182 H180 0.981 . S
C182 H181 0.981 . S
C183 C170 1.481 . S
C183 H184 0.980 . S
C183 H185 0.981 . S
C183 H186 0.981 . S
H184 C183 0.980 . S
H185 C183 0.981 . S
H186 C183 0.981 . S
O187 Zn163 2.066 . S
O187 C166 1.256 . S
O188 Zn160 2.053 . S
O188 C166 1.244 . S
C189 O167 1.259 . S
C189 O168 1.254 . S
O190 Zn160 2.066 . S
O190 C162 1.256 . S
O191 C162 1.244 . S
O191 Zn163 2.053 . S
Zn192 O193 2.055 . S
Zn192 O200 2.046 . S
Zn192 N208 2.036 . S
Zn192 O220 2.053 . S
Zn192 O222 2.066 . S
O193 Zn192 2.055 . S
O193 C196 1.259 . S
C194 O222 1.256 . S
C194 O223 1.244 . S
Zn195 O197 2.046 . S
Zn195 O199 2.055 . S
Zn195 N201 2.036 . S
Zn195 O219 2.066 . S
Zn195 O223 2.053 . S
C196 O193 1.259 . S
C196 O197 1.254 . S
O197 Zn195 2.046 . S
O197 C196 1.254 . S
C198 O219 1.256 . S
C198 O220 1.244 . S
O199 Zn195 2.055 . S
O199 C221 1.259 . S
O200 Zn192 2.046 . S
O200 C221 1.254 . S
N201 Zn195 2.036 . S
N201 C202 1.298 . S
N201 N204 1.398 . S
C202 N201 1.298 . S
C202 N205 1.367 . S
C202 C215 1.481 . S
C203 N204 1.299 . S
C203 N205 1.379 . S
N204 N201 1.398 . S
N204 C203 1.299 . S
N205 C202 1.367 . S
N205 C203 1.379 . S
C206 N208 1.298 . S
C206 N210 1.367 . S
C206 C214 1.481 . S
C207 N209 1.299 . S
C207 N210 1.379 . S
N208 Zn192 2.036 . S
N208 C206 1.298 . S
N208 N209 1.398 . S
N209 C207 1.299 . S
N209 N208 1.398 . S
N210 C206 1.367 . S
N210 C207 1.379 . S
H211 C214 0.980 . S
H212 C214 0.981 . S
H213 C214 0.981 . S
C214 C206 1.481 . S
C214 H211 0.980 . S
C214 H212 0.981 . S
C214 H213 0.981 . S
C215 C202 1.481 . S
C215 H216 0.980 . S
C215 H217 0.981 . S
C215 H218 0.981 . S
H216 C215 0.980 . S
H217 C215 0.981 . S
H218 C215 0.981 . S
O219 Zn195 2.066 . S
O219 C198 1.256 . S
O220 Zn192 2.053 . S
O220 C198 1.244 . S
C221 O199 1.259 . S
C221 O200 1.254 . S
O222 Zn192 2.066 . S
O222 C194 1.256 . S
O223 C194 1.244 . S
O223 Zn195 2.053 . S
Zn224 O225 2.055 . S
Zn224 O232 2.046 . S
Zn224 N240 2.036 . S
Zn224 O252 2.053 . S
Zn224 O254 2.066 . S
O225 Zn224 2.055 . S
O225 C228 1.259 . S
C226 O254 1.256 . S
C226 O255 1.244 . S
Zn227 O229 2.046 . S
Zn227 O231 2.055 . S
Zn227 N233 2.036 . S
Zn227 O251 2.066 . S
Zn227 O255 2.053 . S
C228 O225 1.259 . S
C228 O229 1.254 . S
O229 Zn227 2.046 . S
O229 C228 1.254 . S
C230 O251 1.256 . S
C230 O252 1.244 . S
O231 Zn227 2.055 . S
O231 C253 1.259 . S
O232 Zn224 2.046 . S
O232 C253 1.254 . S
N233 Zn227 2.036 . S
N233 C234 1.298 . S
N233 N236 1.398 . S
C234 N233 1.298 . S
C234 N237 1.367 . S
C234 C247 1.481 . S
C235 N236 1.299 . S
C235 N237 1.379 . S
N236 N233 1.398 . S
N236 C235 1.299 . S
N237 C234 1.367 . S
N237 C235 1.379 . S
C238 N240 1.298 . S
C238 N242 1.367 . S
C238 C246 1.481 . S
C239 N241 1.299 . S
C239 N242 1.379 . S
N240 Zn224 2.036 . S
N240 C238 1.298 . S
N240 N241 1.398 . S
N241 C239 1.299 . S
N241 N240 1.398 . S
N242 C238 1.367 . S
N242 C239 1.379 . S
H243 C246 0.980 . S
H244 C246 0.981 . S
H245 C246 0.981 . S
C246 C238 1.481 . S
C246 H243 0.980 . S
C246 H244 0.981 . S
C246 H245 0.981 . S
C247 C234 1.481 . S
C247 H248 0.980 . S
C247 H249 0.981 . S
C247 H250 0.981 . S
H248 C247 0.980 . S
H249 C247 0.981 . S
H250 C247 0.981 . S
O251 Zn227 2.066 . S
O251 C230 1.256 . S
O252 Zn224 2.053 . S
O252 C230 1.244 . S
C253 O231 1.259 . S
C253 O232 1.254 . S
O254 Zn224 2.066 . S
O254 C226 1.256 . S
O255 C226 1.244 . S
O255 Zn227 2.053 . S
Zn256 O257 2.055 . S
Zn256 O264 2.046 . S
Zn256 N272 2.036 . S
Zn256 O284 2.053 . S
Zn256 O286 2.066 . S
O257 Zn256 2.055 . S
O257 C260 1.259 . S
C258 O286 1.256 . S
C258 O287 1.244 . S
Zn259 O261 2.046 . S
Zn259 O263 2.055 . S
Zn259 N265 2.036 . S
Zn259 O283 2.066 . S
Zn259 O287 2.053 . S
C260 O257 1.259 . S
C260 O261 1.254 . S
O261 Zn259 2.046 . S
O261 C260 1.254 . S
C262 O283 1.256 . S
C262 O284 1.244 . S
O263 Zn259 2.055 . S
O263 C285 1.259 . S
O264 Zn256 2.046 . S
O264 C285 1.254 . S
N265 Zn259 2.036 . S
N265 C266 1.298 . S
N265 N268 1.398 . S
C266 N265 1.298 . S
C266 N269 1.367 . S
C266 C279 1.481 . S
C267 N268 1.299 . S
C267 N269 1.379 . S
N268 N265 1.398 . S
N268 C267 1.299 . S
N269 C266 1.367 . S
N269 C267 1.379 . S
C270 N272 1.298 . S
C270 N274 1.367 . S
C270 C278 1.481 . S
C271 N273 1.299 . S
C271 N274 1.379 . S
N272 Zn256 2.036 . S
N272 C270 1.298 . S
N272 N273 1.398 . S
N273 C271 1.299 . S
N273 N272 1.398 . S
N274 C270 1.367 . S
N274 C271 1.379 . S
H275 C278 0.980 . S
H276 C278 0.981 . S
H277 C278 0.981 . S
C278 C270 1.481 . S
C278 H275 0.980 . S
C278 H276 0.981 . S
C278 H277 0.981 . S
C279 C266 1.481 . S
C279 H280 0.980 . S
C279 H281 0.981 . S
C279 H282 0.981 . S
H280 C279 0.980 . S
H281 C279 0.981 . S
H282 C279 0.981 . S
O283 Zn259 2.066 . S
O283 C262 1.256 . S
O284 Zn256 2.053 . S
O284 C262 1.244 . S
C285 O263 1.259 . S
C285 O264 1.254 . S
O286 Zn256 2.066 . S
O286 C258 1.256 . S
O287 C258 1.244 . S
O287 Zn259 2.053 . S
Zn288 O289 2.055 . S
Zn288 O296 2.046 . S
Zn288 N304 2.036 . S
Zn288 O316 2.053 . S
Zn288 O318 2.066 . S
O289 Zn288 2.055 . S
O289 C292 1.259 . S
C290 O318 1.256 . S
C290 O319 1.244 . S
Zn291 O293 2.046 . S
Zn291 O295 2.055 . S
Zn291 N297 2.036 . S
Zn291 O315 2.066 . S
Zn291 O319 2.053 . S
C292 O289 1.259 . S
C292 O293 1.254 . S
O293 Zn291 2.046 . S
O293 C292 1.254 . S
C294 O315 1.256 . S
C294 O316 1.244 . S
O295 Zn291 2.055 . S
O295 C317 1.259 . S
O296 Zn288 2.046 . S
O296 C317 1.254 . S
N297 Zn291 2.036 . S
N297 C298 1.298 1_545 S
N297 N300 1.398 . S
C298 N297 1.298 1_565 S
C298 N301 1.367 . S
C298 C311 1.481 . S
C299 N300 1.299 1_565 S
C299 N301 1.379 . S
N300 N297 1.398 . S
N300 C299 1.299 1_545 S
N301 C298 1.367 . S
N301 C299 1.379 . S
C302 N304 1.298 . S
C302 N306 1.367 . S
C302 C310 1.481 . S
C303 N305 1.299 . S
C303 N306 1.379 . S
N304 Zn288 2.036 . S
N304 C302 1.298 . S
N304 N305 1.398 . S
N305 C303 1.299 . S
N305 N304 1.398 . S
N306 C302 1.367 . S
N306 C303 1.379 . S
H307 C310 0.980 . S
H308 C310 0.981 . S
H309 C310 0.981 . S
C310 C302 1.481 . S
C310 H307 0.980 . S
C310 H308 0.981 . S
C310 H309 0.981 . S
C311 C298 1.481 . S
C311 H312 0.980 1_565 S
C311 H313 0.981 . S
C311 H314 0.981 . S
H312 C311 0.980 1_545 S
H313 C311 0.981 . S
H314 C311 0.981 . S
O315 Zn291 2.066 . S
O315 C294 1.256 . S
O316 Zn288 2.053 . S
O316 C294 1.244 . S
C317 O295 1.259 . S
C317 O296 1.254 . S
O318 Zn288 2.066 . S
O318 C290 1.256 . S
O319 C290 1.244 . S
O319 Zn291 2.053 . S
Zn320 O321 2.055 1_554 S
Zn320 O328 2.046 . S
Zn320 N336 2.036 . S
Zn320 O348 2.053 . S
Zn320 O350 2.066 . S
O321 Zn320 2.055 1_556 S
O321 C324 1.259 . S
C322 O350 1.256 1_556 S
C322 O351 1.244 . S
Zn323 O325 2.046 1_554 S
Zn323 O327 2.055 . S
Zn323 N329 2.036 1_554 S
Zn323 O347 2.066 . S
Zn323 O351 2.053 1_554 S
C324 O321 1.259 . S
C324 O325 1.254 . S
O325 Zn323 2.046 1_556 S
O325 C324 1.254 . S
C326 O347 1.256 . S
C326 O348 1.244 . S
O327 Zn323 2.055 . S
O327 C349 1.259 . S
O328 Zn320 2.046 . S
O328 C349 1.254 . S
N329 Zn323 2.036 1_556 S
N329 C330 1.298 . S
N329 N332 1.398 . S
C330 N329 1.298 . S
C330 N333 1.367 . S
C330 C343 1.481 1_556 S
C331 N332 1.299 . S
C331 N333 1.379 . S
N332 N329 1.398 . S
N332 C331 1.299 . S
N333 C330 1.367 . S
N333 C331 1.379 . S
C334 N336 1.298 . S
C334 N338 1.367 . S
C334 C342 1.481 . S
C335 N337 1.299 . S
C335 N338 1.379 . S
N336 Zn320 2.036 . S
N336 C334 1.298 . S
N336 N337 1.398 . S
N337 C335 1.299 . S
N337 N336 1.398 . S
N338 C334 1.367 . S
N338 C335 1.379 . S
H339 C342 0.980 . S
H340 C342 0.981 . S
H341 C342 0.981 . S
C342 C334 1.481 . S
C342 H339 0.980 . S
C342 H340 0.981 . S
C342 H341 0.981 . S
C343 C330 1.481 1_554 S
C343 H344 0.980 . S
C343 H345 0.981 . S
C343 H346 0.981 . S
H344 C343 0.980 . S
H345 C343 0.981 . S
H346 C343 0.981 . S
O347 Zn323 2.066 . S
O347 C326 1.256 . S
O348 Zn320 2.053 . S
O348 C326 1.244 . S
C349 O327 1.259 . S
C349 O328 1.254 . S
O350 Zn320 2.066 . S
O350 C322 1.256 1_554 S
O351 C322 1.244 . S
O351 Zn323 2.053 1_556 S
Zn352 O353 2.055 . S
Zn352 O360 2.046 . S
Zn352 N368 2.036 . S
Zn352 O380 2.053 . S
Zn352 O382 2.066 . S
O353 Zn352 2.055 . S
O353 C356 1.259 . S
C354 O382 1.256 . S
C354 O383 1.244 . S
Zn355 O357 2.046 . S
Zn355 O359 2.055 . S
Zn355 N361 2.036 . S
Zn355 O379 2.066 . S
Zn355 O383 2.053 . S
C356 O353 1.259 . S
C356 O357 1.254 . S
O357 Zn355 2.046 . S
O357 C356 1.254 . S
C358 O379 1.256 . S
C358 O380 1.244 . S
O359 Zn355 2.055 . S
O359 C381 1.259 . S
O360 Zn352 2.046 . S
O360 C381 1.254 . S
N361 Zn355 2.036 . S
N361 C362 1.298 1_565 S
N361 N364 1.398 . S
C362 N361 1.298 1_545 S
C362 N365 1.367 . S
C362 C375 1.481 . S
C363 N364 1.299 1_545 S
C363 N365 1.379 . S
N364 N361 1.398 . S
N364 C363 1.299 1_565 S
N365 C362 1.367 . S
N365 C363 1.379 . S
C366 N368 1.298 . S
C366 N370 1.367 . S
C366 C374 1.481 . S
C367 N369 1.299 . S
C367 N370 1.379 . S
N368 Zn352 2.036 . S
N368 C366 1.298 . S
N368 N369 1.398 . S
N369 C367 1.299 . S
N369 N368 1.398 . S
N370 C366 1.367 . S
N370 C367 1.379 . S
H371 C374 0.980 . S
H372 C374 0.981 . S
H373 C374 0.981 . S
C374 C366 1.481 . S
C374 H371 0.980 . S
C374 H372 0.981 . S
C374 H373 0.981 . S
C375 C362 1.481 . S
C375 H376 0.980 1_545 S
C375 H377 0.981 . S
C375 H378 0.981 . S
H376 C375 0.980 1_565 S
H377 C375 0.981 . S
H378 C375 0.981 . S
O379 Zn355 2.066 . S
O379 C358 1.256 . S
O380 Zn352 2.053 . S
O380 C358 1.244 . S
C381 O359 1.259 . S
C381 O360 1.254 . S
O382 Zn352 2.066 . S
O382 C354 1.256 . S
O383 C354 1.244 . S
O383 Zn355 2.053 . S
Zn384 O385 2.055 . S
Zn384 O392 2.046 . S
Zn384 N400 2.036 . S
Zn384 O412 2.053 . S
Zn384 O414 2.066 . S
O385 Zn384 2.055 . S
O385 C388 1.259 . S
C386 O414 1.256 . S
C386 O415 1.244 . S
Zn387 O389 2.046 . S
Zn387 O391 2.055 . S
Zn387 N393 2.036 . S
Zn387 O411 2.066 . S
Zn387 O415 2.053 . S
C388 O385 1.259 . S
C388 O389 1.254 . S
O389 Zn387 2.046 . S
O389 C388 1.254 . S
C390 O411 1.256 . S
C390 O412 1.244 . S
O391 Zn387 2.055 . S
O391 C413 1.259 . S
O392 Zn384 2.046 . S
O392 C413 1.254 . S
N393 Zn387 2.036 . S
N393 C394 1.298 . S
N393 N396 1.398 . S
C394 N393 1.298 . S
C394 N397 1.367 . S
C394 C407 1.481 . S
C395 N396 1.299 . S
C395 N397 1.379 . S
N396 N393 1.398 . S
N396 C395 1.299 . S
N397 C394 1.367 . S
N397 C395 1.379 . S
C398 N400 1.298 . S
C398 N402 1.367 . S
C398 C406 1.481 . S
C399 N401 1.299 . S
C399 N402 1.379 . S
N400 Zn384 2.036 . S
N400 C398 1.298 . S
N400 N401 1.398 . S
N401 C399 1.299 . S
N401 N400 1.398 . S
N402 C398 1.367 . S
N402 C399 1.379 . S
H403 C406 0.980 . S
H404 C406 0.981 . S
H405 C406 0.981 . S
C406 C398 1.481 . S
C406 H403 0.980 . S
C406 H404 0.981 . S
C406 H405 0.981 . S
C407 C394 1.481 . S
C407 H408 0.980 . S
C407 H409 0.981 . S
C407 H410 0.981 . S
H408 C407 0.980 . S
H409 C407 0.981 . S
H410 C407 0.981 . S
O411 Zn387 2.066 . S
O411 C390 1.256 . S
O412 Zn384 2.053 . S
O412 C390 1.244 . S
C413 O391 1.259 . S
C413 O392 1.254 . S
O414 Zn384 2.066 . S
O414 C386 1.256 . S
O415 C386 1.244 . S
O415 Zn387 2.053 . S
Zn416 O417 2.055 . S
Zn416 O424 2.046 . S
Zn416 N432 2.036 . S
Zn416 O444 2.053 . S
Zn416 O446 2.066 . S
O417 Zn416 2.055 . S
O417 C420 1.259 . S
C418 O446 1.256 . S
C418 O447 1.244 . S
Zn419 O421 2.046 . S
Zn419 O423 2.055 . S
Zn419 N425 2.036 . S
Zn419 O443 2.066 . S
Zn419 O447 2.053 . S
C420 O417 1.259 . S
C420 O421 1.254 . S
O421 Zn419 2.046 . S
O421 C420 1.254 . S
C422 O443 1.256 . S
C422 O444 1.244 . S
O423 Zn419 2.055 . S
O423 C445 1.259 . S
O424 Zn416 2.046 . S
O424 C445 1.254 . S
N425 Zn419 2.036 . S
N425 C426 1.298 1_565 S
N425 N428 1.398 . S
C426 N425 1.298 1_545 S
C426 N429 1.367 . S
C426 C439 1.481 . S
C427 N428 1.299 1_545 S
C427 N429 1.379 . S
N428 N425 1.398 . S
N428 C427 1.299 1_565 S
N429 C426 1.367 . S
N429 C427 1.379 . S
C430 N432 1.298 . S
C430 N434 1.367 . S
C430 C438 1.481 . S
C431 N433 1.299 . S
C431 N434 1.379 . S
N432 Zn416 2.036 . S
N432 C430 1.298 . S
N432 N433 1.398 . S
N433 C431 1.299 . S
N433 N432 1.398 . S
N434 C430 1.367 . S
N434 C431 1.379 . S
H435 C438 0.980 . S
H436 C438 0.981 . S
H437 C438 0.981 . S
C438 C430 1.481 . S
C438 H435 0.980 . S
C438 H436 0.981 . S
C438 H437 0.981 . S
C439 C426 1.481 . S
C439 H440 0.980 1_545 S
C439 H441 0.981 . S
C439 H442 0.981 . S
H440 C439 0.980 1_565 S
H441 C439 0.981 . S
H442 C439 0.981 . S
O443 Zn419 2.066 . S
O443 C422 1.256 . S
O444 Zn416 2.053 . S
O444 C422 1.244 . S
C445 O423 1.259 . S
C445 O424 1.254 . S
O446 Zn416 2.066 . S
O446 C418 1.256 . S
O447 C418 1.244 . S
O447 Zn419 2.053 . S
Zn448 O449 2.055 . S
Zn448 O456 2.046 1_556 S
Zn448 N464 2.036 1_556 S
Zn448 O476 2.053 1_556 S
Zn448 O478 2.066 . S
O449 Zn448 2.055 . S
O449 C452 1.259 . S
C450 O478 1.256 . S
C450 O479 1.244 . S
Zn451 O453 2.046 . S
Zn451 O455 2.055 1_556 S
Zn451 N457 2.036 . S
Zn451 O475 2.066 . S
Zn451 O479 2.053 . S
C452 O449 1.259 . S
C452 O453 1.254 . S
O453 Zn451 2.046 . S
O453 C452 1.254 . S
C454 O475 1.256 1_554 S
C454 O476 1.244 . S
O455 Zn451 2.055 1_554 S
O455 C477 1.259 . S
O456 Zn448 2.046 1_554 S
O456 C477 1.254 . S
N457 Zn451 2.036 . S
N457 C458 1.298 . S
N457 N460 1.398 . S
C458 N457 1.298 . S
C458 N461 1.367 . S
C458 C471 1.481 . S
C459 N460 1.299 . S
C459 N461 1.379 . S
N460 N457 1.398 . S
N460 C459 1.299 . S
N461 C458 1.367 . S
N461 C459 1.379 . S
C462 N464 1.298 . S
C462 N466 1.367 . S
C462 C470 1.481 1_554 S
C463 N465 1.299 . S
C463 N466 1.379 . S
N464 Zn448 2.036 1_554 S
N464 C462 1.298 . S
N464 N465 1.398 . S
N465 C463 1.299 . S
N465 N464 1.398 . S
N466 C462 1.367 . S
N466 C463 1.379 . S
H467 C470 0.980 . S
H468 C470 0.981 . S
H469 C470 0.981 . S
C470 C462 1.481 1_556 S
C470 H467 0.980 . S
C470 H468 0.981 . S
C470 H469 0.981 . S
C471 C458 1.481 . S
C471 H472 0.980 . S
C471 H473 0.981 . S
C471 H474 0.981 . S
H472 C471 0.980 . S
H473 C471 0.981 . S
H474 C471 0.981 . S
O475 Zn451 2.066 . S
O475 C454 1.256 1_556 S
O476 Zn448 2.053 1_554 S
O476 C454 1.244 . S
C477 O455 1.259 . S
C477 O456 1.254 . S
O478 Zn448 2.066 . S
O478 C450 1.256 . S
O479 C450 1.244 . S
O479 Zn451 2.053 . S
Zn480 O481 2.055 . S
Zn480 O488 2.046 . S
Zn480 N496 2.036 . S
Zn480 O508 2.053 . S
Zn480 O510 2.066 . S
O481 Zn480 2.055 . S
O481 C484 1.259 . S
C482 O510 1.256 . S
C482 O511 1.244 . S
Zn483 O485 2.046 . S
Zn483 O487 2.055 . S
Zn483 N489 2.036 . S
Zn483 O507 2.066 . S
Zn483 O511 2.053 . S
C484 O481 1.259 . S
C484 O485 1.254 . S
O485 Zn483 2.046 . S
O485 C484 1.254 . S
C486 O507 1.256 . S
C486 O508 1.244 . S
O487 Zn483 2.055 . S
O487 C509 1.259 . S
O488 Zn480 2.046 . S
O488 C509 1.254 . S
N489 Zn483 2.036 . S
N489 C490 1.298 1_545 S
N489 N492 1.398 . S
C490 N489 1.298 1_565 S
C490 N493 1.367 . S
C490 C503 1.481 . S
C491 N492 1.299 1_565 S
C491 N493 1.379 . S
N492 N489 1.398 . S
N492 C491 1.299 1_545 S
N493 C490 1.367 . S
N493 C491 1.379 . S
C494 N496 1.298 . S
C494 N498 1.367 . S
C494 C502 1.481 . S
C495 N497 1.299 . S
C495 N498 1.379 . S
N496 Zn480 2.036 . S
N496 C494 1.298 . S
N496 N497 1.398 . S
N497 C495 1.299 . S
N497 N496 1.398 . S
N498 C494 1.367 . S
N498 C495 1.379 . S
H499 C502 0.980 . S
H500 C502 0.981 . S
H501 C502 0.981 . S
C502 C494 1.481 . S
C502 H499 0.980 . S
C502 H500 0.981 . S
C502 H501 0.981 . S
C503 C490 1.481 . S
C503 H504 0.980 1_565 S
C503 H505 0.981 . S
C503 H506 0.981 . S
H504 C503 0.980 1_545 S
H505 C503 0.981 . S
H506 C503 0.981 . S
O507 Zn483 2.066 . S
O507 C486 1.256 . S
O508 Zn480 2.053 . S
O508 C486 1.244 . S
C509 O487 1.259 . S
C509 O488 1.254 . S
O510 Zn480 2.066 . S
O510 C482 1.256 . S
O511 C482 1.244 . S
O511 Zn483 2.053 . S
C512 C513 1.363 . S
C512 C518 1.379 . S
C512 N520 1.356 . S
C513 C512 1.363 . S
C513 C519 1.363 . S
C514 C515 1.363 . S
C514 C519 1.379 . S
C514 N521 1.356 . S
C515 C514 1.363 . S
C515 C518 1.363 . S
N516 C518 1.356 . S
N516 H528 0.984 . S
N516 H529 0.985 . S
N517 C519 1.356 . S
N517 H522 0.984 . S
N517 H523 0.985 . S
C518 C512 1.379 . S
C518 C515 1.363 . S
C518 N516 1.356 . S
C519 C513 1.363 . S
C519 C514 1.379 . S
C519 N517 1.356 . S
N520 C512 1.356 . S
N520 H526 0.984 . S
N520 H527 0.984 . S
N521 C514 1.356 . S
N521 H524 0.984 . S
N521 H525 0.985 . S
H522 N517 0.984 . S
H523 N517 0.985 . S
H524 N521 0.984 . S
H525 N521 0.985 . S
H526 N520 0.984 . S
H527 N520 0.984 . S
H528 N516 0.984 . S
H529 N516 0.985 . S
C530 C531 1.363 . S
C530 C536 1.379 . S
C530 N538 1.356 . S
C531 C530 1.363 . S
C531 C537 1.363 . S
C532 C533 1.363 . S
C532 C537 1.379 . S
C532 N539 1.356 . S
C533 C532 1.363 . S
C533 C536 1.363 . S
N534 C536 1.356 . S
N534 H546 0.984 . S
N534 H547 0.985 . S
N535 C537 1.356 . S
N535 H540 0.984 . S
N535 H541 0.985 . S
C536 C530 1.379 . S
C536 C533 1.363 . S
C536 N534 1.356 . S
C537 C531 1.363 . S
C537 C532 1.379 . S
C537 N535 1.356 . S
N538 C530 1.356 . S
N538 H544 0.984 . S
N538 H545 0.984 . S
N539 C532 1.356 . S
N539 H542 0.984 . S
N539 H543 0.985 . S
H540 N535 0.984 . S
H541 N535 0.985 . S
H542 N539 0.984 . S
H543 N539 0.985 . S
H544 N538 0.984 . S
H545 N538 0.984 . S
H546 N534 0.984 . S
H547 N534 0.985 . S
C548 C549 1.363 . S
C548 C554 1.379 1_455 S
C548 N556 1.356 . S
C549 C548 1.363 . S
C549 C555 1.363 . S
C550 C551 1.363 . S
C550 C555 1.379 1_655 S
C550 N557 1.356 . S
C551 C550 1.363 . S
C551 C554 1.363 . S
N552 C554 1.356 . S
N552 H564 0.984 . S
N552 H565 0.985 . S
N553 C555 1.356 . S
N553 H558 0.984 . S
N553 H559 0.985 . S
C554 C548 1.379 1_655 S
C554 C551 1.363 . S
C554 N552 1.356 . S
C555 C549 1.363 . S
C555 C550 1.379 1_455 S
C555 N553 1.356 . S
N556 C548 1.356 . S
N556 H562 0.984 . S
N556 H563 0.984 . S
N557 C550 1.356 . S
N557 H560 0.984 . S
N557 H561 0.985 . S
H558 N553 0.984 . S
H559 N553 0.985 . S
H560 N557 0.984 . S
H561 N557 0.985 . S
H562 N556 0.984 . S
H563 N556 0.984 . S
H564 N552 0.984 . S
H565 N552 0.985 . S
C566 C567 1.363 1_655 S
C566 C572 1.379 . S
C566 N574 1.356 . S
C567 C566 1.363 1_455 S
C567 C573 1.363 . S
C568 C569 1.363 1_455 S
C568 C573 1.379 . S
C568 N575 1.356 . S
C569 C568 1.363 1_655 S
C569 C572 1.363 . S
N570 C572 1.356 . S
N570 H582 0.984 . S
N570 H583 0.985 . S
N571 C573 1.356 . S
N571 H576 0.984 . S
N571 H577 0.985 1_556 S
C572 C566 1.379 . S
C572 C569 1.363 . S
C572 N570 1.356 . S
C573 C567 1.363 . S
C573 C568 1.379 . S
C573 N571 1.356 . S
N574 C566 1.356 . S
N574 H580 0.984 . S
N574 H581 0.984 . S
N575 C568 1.356 . S
N575 H578 0.984 . S
N575 H579 0.985 1_556 S
H576 N571 0.984 . S
H577 N571 0.985 1_554 S
H578 N575 0.984 . S
H579 N575 0.985 1_554 S
H580 N574 0.984 . S
H581 N574 0.984 . S
H582 N570 0.984 . S
H583 N570 0.985 . S
C584 C585 1.363 . S
C584 C590 1.379 . S
C584 N592 1.356 . S
C585 C584 1.363 . S
C585 C591 1.363 . S
C586 C587 1.363 . S
C586 C591 1.379 . S
C586 N593 1.356 . S
C587 C586 1.363 . S
C587 C590 1.363 . S
N588 C590 1.356 . S
N588 H600 0.984 . S
N588 H601 0.985 . S
N589 C591 1.356 . S
N589 H594 0.984 . S
N589 H595 0.985 . S
C590 C584 1.379 . S
C590 C587 1.363 . S
C590 N588 1.356 . S
C591 C585 1.363 . S
C591 C586 1.379 . S
C591 N589 1.356 . S
N592 C584 1.356 . S
N592 H598 0.984 . S
N592 H599 0.984 . S
N593 C586 1.356 . S
N593 H596 0.984 . S
N593 H597 0.985 . S
H594 N589 0.984 . S
H595 N589 0.985 . S
H596 N593 0.984 . S
H597 N593 0.985 . S
H598 N592 0.984 . S
H599 N592 0.984 . S
H600 N588 0.984 . S
H601 N588 0.985 . S
C602 C603 1.363 . S
C602 C608 1.379 . S
C602 N610 1.356 . S
C603 C602 1.363 . S
C603 C609 1.363 . S
C604 C605 1.363 . S
C604 C609 1.379 . S
C604 N611 1.356 . S
C605 C604 1.363 . S
C605 C608 1.363 . S
N606 C608 1.356 . S
N606 H618 0.984 . S
N606 H619 0.985 . S
N607 C609 1.356 . S
N607 H612 0.984 . S
N607 H613 0.985 . S
C608 C602 1.379 . S
C608 C605 1.363 . S
C608 N606 1.356 . S
C609 C603 1.363 . S
C609 C604 1.379 . S
C609 N607 1.356 . S
N610 C602 1.356 . S
N610 H616 0.984 . S
N610 H617 0.984 . S
N611 C604 1.356 . S
N611 H614 0.984 . S
N611 H615 0.985 . S
H612 N607 0.984 . S
H613 N607 0.985 . S
H614 N611 0.984 . S
H615 N611 0.985 . S
H616 N610 0.984 . S
H617 N610 0.984 . S
H618 N606 0.984 . S
H619 N606 0.985 . S
C620 C621 1.363 . S
C620 C626 1.379 1_655 S
C620 N628 1.356 . S
C621 C620 1.363 . S
C621 C627 1.363 . S
C622 C623 1.363 . S
C622 C627 1.379 1_455 S
C622 N629 1.356 . S
C623 C622 1.363 . S
C623 C626 1.363 . S
N624 C626 1.356 . S
N624 H636 0.984 . S
N624 H637 0.985 . S
N625 C627 1.356 . S
N625 H630 0.984 . S
N625 H631 0.985 . S
C626 C620 1.379 1_455 S
C626 C623 1.363 . S
C626 N624 1.356 . S
C627 C621 1.363 . S
C627 C622 1.379 1_655 S
C627 N625 1.356 . S
N628 C620 1.356 . S
N628 H634 0.984 . S
N628 H635 0.984 . S
N629 C622 1.356 . S
N629 H632 0.984 . S
N629 H633 0.985 . S
H630 N625 0.984 . S
H631 N625 0.985 . S
H632 N629 0.984 . S
H633 N629 0.985 . S
H634 N628 0.984 . S
H635 N628 0.984 . S
H636 N624 0.984 . S
H637 N624 0.985 . S
C638 C639 1.363 1_455 S
C638 C644 1.379 . S
C638 N646 1.356 . S
C639 C638 1.363 1_655 S
C639 C645 1.363 . S
C640 C641 1.363 1_655 S
C640 C645 1.379 . S
C640 N647 1.356 . S
C641 C640 1.363 1_455 S
C641 C644 1.363 . S
N642 C644 1.356 . S
N642 H654 0.984 1_554 S
N642 H655 0.985 . S
N643 C645 1.356 . S
N643 H648 0.984 . S
N643 H649 0.985 . S
C644 C638 1.379 . S
C644 C641 1.363 . S
C644 N642 1.356 . S
C645 C639 1.363 . S
C645 C640 1.379 . S
C645 N643 1.356 . S
N646 C638 1.356 . S
N646 H652 0.984 1_554 S
N646 H653 0.984 . S
N647 C640 1.356 . S
N647 H650 0.984 . S
N647 H651 0.985 . S
H648 N643 0.984 . S
H649 N643 0.985 . S
H650 N647 0.984 . S
H651 N647 0.985 . S
H652 N646 0.984 1_556 S
H653 N646 0.984 . S
H654 N642 0.984 1_556 S
H655 N642 0.985 . S
C656 C657 1.363 . S
C656 C662 1.379 . S
C656 N664 1.356 . S
C657 C656 1.363 . S
C657 C663 1.363 . S
C658 C659 1.363 . S
C658 C663 1.379 . S
C658 N665 1.356 1_556 S
C659 C658 1.363 . S
C659 C662 1.363 . S
N660 C662 1.356 . S
N660 H672 0.984 . S
N660 H673 0.985 . S
N661 C663 1.356 . S
N661 H666 0.984 . S
N661 H667 0.985 . S
C662 C656 1.379 . S
C662 C659 1.363 . S
C662 N660 1.356 . S
C663 C657 1.363 . S
C663 C658 1.379 . S
C663 N661 1.356 . S
N664 C656 1.356 . S
N664 H670 0.984 . S
N664 H671 0.984 . S
N665 C658 1.356 1_554 S
N665 H668 0.984 . S
N665 H669 0.985 . S
H666 N661 0.984 . S
H667 N661 0.985 . S
H668 N665 0.984 . S
H669 N665 0.985 . S
H670 N664 0.984 . S
H671 N664 0.984 . S
H672 N660 0.984 . S
H673 N660 0.985 . S
C674 C675 1.363 . S
C674 C680 1.379 . S
C674 N682 1.356 . S
C675 C674 1.363 . S
C675 C681 1.363 . S
C676 C677 1.363 . S
C676 C681 1.379 . S
C676 N683 1.356 . S
C677 C676 1.363 . S
C677 C680 1.363 . S
N678 C680 1.356 . S
N678 H690 0.984 . S
N678 H691 0.985 . S
N679 C681 1.356 . S
N679 H684 0.984 . S
N679 H685 0.985 . S
C680 C674 1.379 . S
C680 C677 1.363 . S
C680 N678 1.356 . S
C681 C675 1.363 . S
C681 C676 1.379 . S
C681 N679 1.356 . S
N682 C674 1.356 . S
N682 H688 0.984 . S
N682 H689 0.984 . S
N683 C676 1.356 . S
N683 H686 0.984 . S
N683 H687 0.985 . S
H684 N679 0.984 . S
H685 N679 0.985 . S
H686 N683 0.984 . S
H687 N683 0.985 . S
H688 N682 0.984 . S
H689 N682 0.984 . S
H690 N678 0.984 . S
H691 N678 0.985 . S
C692 C693 1.363 . S
C692 C698 1.379 . S
C692 N700 1.356 . S
C693 C692 1.363 . S
C693 C699 1.363 . S
C694 C695 1.363 . S
C694 C699 1.379 . S
C694 N701 1.356 . S
C695 C694 1.363 . S
C695 C698 1.363 . S
N696 C698 1.356 . S
N696 H708 0.984 . S
N696 H709 0.985 . S
N697 C699 1.356 . S
N697 H702 0.984 . S
N697 H703 0.985 . S
C698 C692 1.379 . S
C698 C695 1.363 . S
C698 N696 1.356 . S
C699 C693 1.363 . S
C699 C694 1.379 . S
C699 N697 1.356 . S
N700 C692 1.356 . S
N700 H706 0.984 . S
N700 H707 0.984 . S
N701 C694 1.356 . S
N701 H704 0.984 . S
N701 H705 0.985 . S
H702 N697 0.984 . S
H703 N697 0.985 . S
H704 N701 0.984 . S
H705 N701 0.985 . S
H706 N700 0.984 . S
H707 N700 0.984 . S
H708 N696 0.984 . S
H709 N696 0.985 . S
C710 C711 1.363 . S
C710 C716 1.379 . S
C710 N718 1.356 . S
C711 C710 1.363 . S
C711 C717 1.363 . S
C712 C713 1.363 . S
C712 C717 1.379 . S
C712 N719 1.356 . S
C713 C712 1.363 . S
C713 C716 1.363 . S
N714 C716 1.356 . S
N714 H726 0.984 . S
N714 H727 0.985 . S
N715 C717 1.356 . S
N715 H720 0.984 . S
N715 H721 0.985 . S
C716 C710 1.379 . S
C716 C713 1.363 . S
C716 N714 1.356 . S
C717 C711 1.363 . S
C717 C712 1.379 . S
C717 N715 1.356 . S
N718 C710 1.356 . S
N718 H724 0.984 . S
N718 H725 0.984 . S
N719 C712 1.356 . S
N719 H722 0.984 . S
N719 H723 0.985 . S
H720 N715 0.984 . S
H721 N715 0.985 . S
H722 N719 0.984 . S
H723 N719 0.985 . S
H724 N718 0.984 . S
H725 N718 0.984 . S
H726 N714 0.984 . S
H727 N714 0.985 . S
C728 C729 1.363 . S
C728 C734 1.379 . S
C728 N736 1.356 . S
C729 C728 1.363 . S
C729 C735 1.363 . S
C730 C731 1.363 . S
C730 C735 1.379 . S
C730 N737 1.356 . S
C731 C730 1.363 . S
C731 C734 1.363 . S
N732 C734 1.356 . S
N732 H744 0.984 . S
N732 H745 0.985 . S
N733 C735 1.356 1_556 S
N733 H738 0.984 . S
N733 H739 0.985 . S
C734 C728 1.379 . S
C734 C731 1.363 . S
C734 N732 1.356 . S
C735 C729 1.363 . S
C735 C730 1.379 . S
C735 N733 1.356 1_554 S
N736 C728 1.356 . S
N736 H742 0.984 . S
N736 H743 0.984 . S
N737 C730 1.356 . S
N737 H740 0.984 . S
N737 H741 0.985 1_554 S
H738 N733 0.984 . S
H739 N733 0.985 . S
H740 N737 0.984 . S
H741 N737 0.985 1_556 S
H742 N736 0.984 . S
H743 N736 0.984 . S
H744 N732 0.984 . S
H745 N732 0.985 . S
C746 C747 1.363 . S
C746 C752 1.379 . S
C746 N754 1.356 . S
C747 C746 1.363 . S
C747 C753 1.363 . S
C748 C749 1.363 . S
C748 C753 1.379 . S
C748 N755 1.356 . S
C749 C748 1.363 . S
C749 C752 1.363 . S
N750 C752 1.356 . S
N750 H762 0.984 . S
N750 H763 0.985 . S
N751 C753 1.356 . S
N751 H756 0.984 . S
N751 H757 0.985 . S
C752 C746 1.379 . S
C752 C749 1.363 . S
C752 N750 1.356 . S
C753 C747 1.363 . S
C753 C748 1.379 . S
C753 N751 1.356 . S
N754 C746 1.356 . S
N754 H760 0.984 . S
N754 H761 0.984 . S
N755 C748 1.356 . S
N755 H758 0.984 . S
N755 H759 0.985 . S
H756 N751 0.984 . S
H757 N751 0.985 . S
H758 N755 0.984 . S
H759 N755 0.985 . S
H760 N754 0.984 . S
H761 N754 0.984 . S
H762 N750 0.984 . S
H763 N750 0.985 . S
C764 C765 1.363 . S
C764 C770 1.379 . S
C764 N772 1.356 . S
C765 C764 1.363 . S
C765 C771 1.363 . S
C766 C767 1.363 . S
C766 C771 1.379 . S
C766 N773 1.356 . S
C767 C766 1.363 . S
C767 C770 1.363 . S
N768 C770 1.356 . S
N768 H780 0.984 . S
N768 H781 0.985 . S
N769 C771 1.356 . S
N769 H774 0.984 . S
N769 H775 0.985 . S
C770 C764 1.379 . S
C770 C767 1.363 . S
C770 N768 1.356 . S
C771 C765 1.363 . S
C771 C766 1.379 . S
C771 N769 1.356 . S
N772 C764 1.356 . S
N772 H778 0.984 . S
N772 H779 0.984 . S
N773 C766 1.356 . S
N773 H776 0.984 . S
N773 H777 0.985 . S
H774 N769 0.984 . S
H775 N769 0.985 . S
H776 N773 0.984 . S
H777 N773 0.985 . S
H778 N772 0.984 . S
H779 N772 0.984 . S
H780 N768 0.984 . S
H781 N768 0.985 . S
C782 C783 1.363 . S
C782 C788 1.379 . S
C782 N790 1.356 . S
C783 C782 1.363 . S
C783 C789 1.363 . S
C784 C785 1.363 . S
C784 C789 1.379 . S
C784 N791 1.356 . S
C785 C784 1.363 . S
C785 C788 1.363 . S
N786 C788 1.356 . S
N786 H798 0.984 . S
N786 H799 0.985 . S
N787 C789 1.356 . S
N787 H792 0.984 . S
N787 H793 0.985 . S
C788 C782 1.379 . S
C788 C785 1.363 . S
C788 N786 1.356 . S
C789 C783 1.363 . S
C789 C784 1.379 . S
C789 N787 1.356 . S
N790 C782 1.356 . S
N790 H796 0.984 . S
N790 H797 0.984 . S
N791 C784 1.356 . S
N791 H794 0.984 . S
N791 H795 0.985 . S
H792 N787 0.984 . S
H793 N787 0.985 . S
H794 N791 0.984 . S
H795 N791 0.985 . S
H796 N790 0.984 . S
H797 N790 0.984 . S
H798 N786 0.984 . S
H799 N786 0.985 . S
C800 C801 1.363 . S
C800 C806 1.379 . S
C800 N808 1.356 . S
C801 C800 1.363 . S
C801 C807 1.363 . S
C802 C803 1.363 . S
C802 C807 1.379 . S
C802 N809 1.356 . S
C803 C802 1.363 . S
C803 C806 1.363 . S
N804 C806 1.356 . S
N804 H816 0.984 . S
N804 H817 0.985 . S
N805 C807 1.356 . S
N805 H810 0.984 . S
N805 H811 0.985 . S
C806 C800 1.379 . S
C806 C803 1.363 . S
C806 N804 1.356 . S
C807 C801 1.363 . S
C807 C802 1.379 . S
C807 N805 1.356 . S
N808 C800 1.356 . S
N808 H814 0.984 . S
N808 H815 0.984 . S
N809 C802 1.356 . S
N809 H812 0.984 . S
N809 H813 0.985 . S
H810 N805 0.984 . S
H811 N805 0.985 . S
H812 N809 0.984 . S
H813 N809 0.985 . S
H814 N808 0.984 . S
H815 N808 0.984 . S
H816 N804 0.984 . S
H817 N804 0.985 . S
C818 C819 1.363 . S
C818 C824 1.379 . S
C818 N826 1.356 . S
C819 C818 1.363 . S
C819 C825 1.363 . S
C820 C821 1.363 . S
C820 C825 1.379 . S
C820 N827 1.356 . S
C821 C820 1.363 . S
C821 C824 1.363 . S
N822 C824 1.356 . S
N822 H834 0.984 . S
N822 H835 0.985 . S
N823 C825 1.356 . S
N823 H828 0.984 . S
N823 H829 0.985 . S
C824 C818 1.379 . S
C824 C821 1.363 . S
C824 N822 1.356 . S
C825 C819 1.363 . S
C825 C820 1.379 . S
C825 N823 1.356 . S
N826 C818 1.356 . S
N826 H832 0.984 . S
N826 H833 0.984 . S
N827 C820 1.356 . S
N827 H830 0.984 . S
N827 H831 0.985 . S
H828 N823 0.984 . S
H829 N823 0.985 . S
H830 N827 0.984 . S
H831 N827 0.985 . S
H832 N826 0.984 . S
H833 N826 0.984 . S
H834 N822 0.984 . S
H835 N822 0.985 . S
C836 C837 1.363 . S
C836 C842 1.379 . S
C836 N844 1.356 . S
C837 C836 1.363 . S
C837 C843 1.363 . S
C838 C839 1.363 . S
C838 C843 1.379 . S
C838 N845 1.356 . S
C839 C838 1.363 . S
C839 C842 1.363 . S
N840 C842 1.356 . S
N840 H852 0.984 . S
N840 H853 0.985 . S
N841 C843 1.356 1_554 S
N841 H846 0.984 . S
N841 H847 0.985 . S
C842 C836 1.379 . S
C842 C839 1.363 . S
C842 N840 1.356 . S
C843 C837 1.363 . S
C843 C838 1.379 . S
C843 N841 1.356 1_556 S
N844 C836 1.356 . S
N844 H850 0.984 . S
N844 H851 0.984 . S
N845 C838 1.356 . S
N845 H848 0.984 . S
N845 H849 0.985 1_556 S
H846 N841 0.984 . S
H847 N841 0.985 . S
H848 N845 0.984 . S
H849 N845 0.985 1_554 S
H850 N844 0.984 . S
H851 N844 0.984 . S
H852 N840 0.984 . S
H853 N840 0.985 . S
C854 C855 1.363 . S
C854 C860 1.379 . S
C854 N862 1.356 . S
C855 C854 1.363 . S
C855 C861 1.363 . S
C856 C857 1.363 . S
C856 C861 1.379 . S
C856 N863 1.356 . S
C857 C856 1.363 . S
C857 C860 1.363 . S
N858 C860 1.356 . S
N858 H870 0.984 . S
N858 H871 0.985 . S
N859 C861 1.356 . S
N859 H864 0.984 . S
N859 H865 0.985 . S
C860 C854 1.379 . S
C860 C857 1.363 . S
C860 N858 1.356 . S
C861 C855 1.363 . S
C861 C856 1.379 . S
C861 N859 1.356 . S
N862 C854 1.356 . S
N862 H868 0.984 . S
N862 H869 0.984 . S
N863 C856 1.356 . S
N863 H866 0.984 . S
N863 H867 0.985 . S
H864 N859 0.984 . S
H865 N859 0.985 . S
H866 N863 0.984 . S
H867 N863 0.985 . S
H868 N862 0.984 . S
H869 N862 0.984 . S
H870 N858 0.984 . S
H871 N858 0.985 . S
C872 C873 1.363 . S
C872 C878 1.379 . S
C872 N880 1.356 . S
C873 C872 1.363 . S
C873 C879 1.363 . S
C874 C875 1.363 . S
C874 C879 1.379 . S
C874 N881 1.356 . S
C875 C874 1.363 . S
C875 C878 1.363 . S
N876 C878 1.356 . S
N876 H888 0.984 . S
N876 H889 0.985 . S
N877 C879 1.356 . S
N877 H882 0.984 . S
N877 H883 0.985 . S
C878 C872 1.379 . S
C878 C875 1.363 . S
C878 N876 1.356 . S
C879 C873 1.363 . S
C879 C874 1.379 . S
C879 N877 1.356 . S
N880 C872 1.356 . S
N880 H886 0.984 . S
N880 H887 0.984 . S
N881 C874 1.356 . S
N881 H884 0.984 . S
N881 H885 0.985 . S
H882 N877 0.984 . S
H883 N877 0.985 . S
H884 N881 0.984 . S
H885 N881 0.985 . S
H886 N880 0.984 . S
H887 N880 0.984 . S
H888 N876 0.984 . S
H889 N876 0.985 . S
C890 C891 1.363 . S
C890 C896 1.379 . S
C890 N898 1.356 . S
C891 C890 1.363 . S
C891 C897 1.363 . S
C892 C893 1.363 . S
C892 C897 1.379 . S
C892 N899 1.356 . S
C893 C892 1.363 . S
C893 C896 1.363 . S
N894 C896 1.356 . S
N894 H906 0.984 . S
N894 H907 0.985 . S
N895 C897 1.356 . S
N895 H900 0.984 . S
N895 H901 0.985 . S
C896 C890 1.379 . S
C896 C893 1.363 . S
C896 N894 1.356 . S
C897 C891 1.363 . S
C897 C892 1.379 . S
C897 N895 1.356 . S
N898 C890 1.356 . S
N898 H904 0.984 . S
N898 H905 0.984 . S
N899 C892 1.356 . S
N899 H902 0.984 . S
N899 H903 0.985 . S
H900 N895 0.984 . S
H901 N895 0.985 . S
H902 N899 0.984 . S
H903 N899 0.985 . S
H904 N898 0.984 . S
H905 N898 0.984 . S
H906 N894 0.984 . S
H907 N894 0.985 . S
C908 C909 1.363 . S
C908 C914 1.379 . S
C908 N916 1.356 . S
C909 C908 1.363 . S
C909 C915 1.363 . S
C910 C911 1.363 . S
C910 C915 1.379 . S
C910 N917 1.356 . S
C911 C910 1.363 . S
C911 C914 1.363 . S
N912 C914 1.356 1_556 S
N912 H924 0.984 . S
N912 H925 0.985 . S
N913 C915 1.356 . S
N913 H918 0.984 . S
N913 H919 0.985 . S
C914 C908 1.379 . S
C914 C911 1.363 . S
C914 N912 1.356 1_554 S
C915 C909 1.363 . S
C915 C910 1.379 . S
C915 N913 1.356 . S
N916 C908 1.356 . S
N916 H922 0.981 1_554 S
N916 H923 0.984 . S
N917 C910 1.356 . S
N917 H920 0.984 . S
N917 H921 0.985 . S
H918 N913 0.984 . S
H919 N913 0.985 . S
H920 N917 0.984 . S
H921 N917 0.985 . S
H922 N916 0.981 1_556 S
H923 N916 0.984 . S
H924 N912 0.984 . S
H925 N912 0.985 . S
C926 C927 1.363 . S
C926 C932 1.379 . S
C926 N934 1.356 . S
C927 C926 1.363 . S
C927 C933 1.363 . S
C928 C929 1.363 . S
C928 C933 1.379 . S
C928 N935 1.356 . S
C929 C928 1.363 . S
C929 C932 1.363 . S
N930 C932 1.356 . S
N930 H942 0.984 . S
N930 H943 0.985 . S
N931 C933 1.356 . S
N931 H936 0.984 . S
N931 H937 0.985 . S
C932 C926 1.379 . S
C932 C929 1.363 . S
C932 N930 1.356 . S
C933 C927 1.363 . S
C933 C928 1.379 . S
C933 N931 1.356 . S
N934 C926 1.356 . S
N934 H940 0.984 . S
N934 H941 0.984 . S
N935 C928 1.356 . S
N935 H938 0.984 . S
N935 H939 0.985 . S
H936 N931 0.984 . S
H937 N931 0.985 . S
H938 N935 0.984 . S
H939 N935 0.985 . S
H940 N934 0.984 . S
H941 N934 0.984 . S
H942 N930 0.984 . S
H943 N930 0.985 . S
C944 C945 1.363 . S
C944 C950 1.379 . S
C944 N952 1.356 . S
C945 C944 1.363 . S
C945 C951 1.363 . S
C946 C947 1.363 . S
C946 C951 1.379 . S
C946 N953 1.356 . S
C947 C946 1.363 . S
C947 C950 1.363 . S
N948 C950 1.356 . S
N948 H960 0.984 . S
N948 H961 0.985 . S
N949 C951 1.356 . S
N949 H954 0.984 . S
N949 H955 0.985 . S
C950 C944 1.379 . S
C950 C947 1.363 . S
C950 N948 1.356 . S
C951 C945 1.363 . S
C951 C946 1.379 . S
C951 N949 1.356 . S
N952 C944 1.356 . S
N952 H958 0.984 . S
N952 H959 0.984 . S
N953 C946 1.356 . S
N953 H956 0.984 . S
N953 H957 0.985 . S
H954 N949 0.984 . S
H955 N949 0.985 . S
H956 N953 0.984 . S
H957 N953 0.985 . S
H958 N952 0.984 . S
H959 N952 0.984 . S
H960 N948 0.984 . S
H961 N948 0.985 . S
C962 C963 1.363 . S
C962 C968 1.379 . S
C962 N970 1.356 . S
C963 C962 1.363 . S
C963 C969 1.363 . S
C964 C965 1.363 . S
C964 C969 1.379 . S
C964 N971 1.356 . S
C965 C964 1.363 . S
C965 C968 1.363 . S
N966 C968 1.356 1_556 S
N966 H978 0.984 . S
N966 H979 0.985 . S
N967 C969 1.356 . S
N967 H972 0.984 . S
N967 H973 0.985 . S
C968 C962 1.379 . S
C968 C965 1.363 . S
C968 N966 1.356 1_554 S
C969 C963 1.363 . S
C969 C964 1.379 . S
C969 N967 1.356 . S
N970 C962 1.356 . S
N970 H976 0.984 . S
N970 H977 0.984 . S
N971 C964 1.356 . S
N971 H974 0.984 . S
N971 H975 0.985 . S
H972 N967 0.984 . S
H973 N967 0.985 . S
H974 N971 0.984 . S
H975 N971 0.985 . S
H976 N970 0.984 . S
H977 N970 0.984 . S
H978 N966 0.984 . S
H979 N966 0.985 . S
C980 C981 1.363 . S
C980 C986 1.379 . S
C980 N988 1.356 . S
C981 C980 1.363 . S
C981 C987 1.363 . S
C982 C983 1.363 . S
C982 C987 1.379 . S
C982 N989 1.356 . S
C983 C982 1.363 . S
C983 C986 1.363 . S
N984 C986 1.356 . S
N984 H996 0.984 . S
N984 H997 0.985 . S
N985 C987 1.356 . S
N985 H990 0.984 . S
N985 H991 0.985 . S
C986 C980 1.379 . S
C986 C983 1.363 . S
C986 N984 1.356 . S
C987 C981 1.363 . S
C987 C982 1.379 . S
C987 N985 1.356 . S
N988 C980 1.356 . S
N988 H994 0.984 . S
N988 H995 0.984 1_455 S
N989 C982 1.356 . S
N989 H992 0.984 . S
N989 H993 0.985 . S
H990 N985 0.984 . S
H991 N985 0.985 . S
H992 N989 0.984 . S
H993 N989 0.985 . S
H994 N988 0.984 . S
H995 N988 0.984 1_655 S
H996 N984 0.984 . S
H997 N984 0.985 . S
C998 C999 1.363 . S
C998 C1004 1.379 . S
C998 N1006 1.356 . S
C999 C998 1.363 . S
C999 C1005 1.363 . S
C1000 C1001 1.363 . S
C1000 C1005 1.379 . S
C1000 N1007 1.356 . S
C1001 C1000 1.363 . S
C1001 C1004 1.363 . S
N1002 C1004 1.356 . S
N1002 H1014 0.984 . S
N1002 H1015 0.985 . S
N1003 C1005 1.356 . S
N1003 H1008 0.984 . S
N1003 H1009 0.985 . S
C1004 C998 1.379 . S
C1004 C1001 1.363 . S
C1004 N1002 1.356 . S
C1005 C999 1.363 . S
C1005 C1000 1.379 . S
C1005 N1003 1.356 . S
N1006 C998 1.356 . S
N1006 H1012 0.984 . S
N1006 H1013 0.984 . S
N1007 C1000 1.356 . S
N1007 H1010 0.984 . S
N1007 H1011 0.985 . S
H1008 N1003 0.984 . S
H1009 N1003 0.985 . S
H1010 N1007 0.984 . S
H1011 N1007 0.985 . S
H1012 N1006 0.984 . S
H1013 N1006 0.984 . S
H1014 N1002 0.984 . S
H1015 N1002 0.985 . S
C1016 C1017 1.363 . S
C1016 C1022 1.379 . S
C1016 N1024 1.356 . S
C1017 C1016 1.363 . S
C1017 C1023 1.363 . S
C1018 C1019 1.363 . S
C1018 C1023 1.379 . S
C1018 N1025 1.356 . S
C1019 C1018 1.363 . S
C1019 C1022 1.363 . S
N1020 C1022 1.356 . S
N1020 H1032 0.984 . S
N1020 H1033 0.985 . S
N1021 C1023 1.356 . S
N1021 H1026 0.984 . S
N1021 H1027 0.985 . S
C1022 C1016 1.379 . S
C1022 C1019 1.363 . S
C1022 N1020 1.356 . S
C1023 C1017 1.363 . S
C1023 C1018 1.379 . S
C1023 N1021 1.356 . S
N1024 C1016 1.356 . S
N1024 H1030 0.984 . S
N1024 H1031 0.984 . S
N1025 C1018 1.356 . S
N1025 H1028 0.984 . S
N1025 H1029 0.985 . S
H1026 N1021 0.984 . S
H1027 N1021 0.985 . S
H1028 N1025 0.984 . S
H1029 N1025 0.985 . S
H1030 N1024 0.984 . S
H1031 N1024 0.984 . S
H1032 N1020 0.984 . S
H1033 N1020 0.985 . S
C1034 C1035 1.363 . S
C1034 C1040 1.379 . S
C1034 N1042 1.356 . S
C1035 C1034 1.363 . S
C1035 C1041 1.363 . S
C1036 C1037 1.363 . S
C1036 C1041 1.379 . S
C1036 N1043 1.356 1_556 S
C1037 C1036 1.363 . S
C1037 C1040 1.363 . S
N1038 C1040 1.356 . S
N1038 H1050 0.984 . S
N1038 H1051 0.985 . S
N1039 C1041 1.356 . S
N1039 H1044 0.984 . S
N1039 H1045 0.985 . S
C1040 C1034 1.379 . S
C1040 C1037 1.363 . S
C1040 N1038 1.356 . S
C1041 C1035 1.363 . S
C1041 C1036 1.379 . S
C1041 N1039 1.356 . S
N1042 C1034 1.356 . S
N1042 H1048 0.984 . S
N1042 H1049 0.984 . S
N1043 C1036 1.356 1_554 S
N1043 H1046 0.984 . S
N1043 H1047 0.985 . S
H1044 N1039 0.984 . S
H1045 N1039 0.985 . S
H1046 N1043 0.984 . S
H1047 N1043 0.985 . S
H1048 N1042 0.984 . S
H1049 N1042 0.984 . S
H1050 N1038 0.984 . S
H1051 N1038 0.985 . S
C1052 C1053 1.363 . S
C1052 C1058 1.379 . S
C1052 N1060 1.359 . S
C1053 C1052 1.363 . S
C1053 C1059 1.363 . S
C1054 C1055 1.363 . S
C1054 C1059 1.379 . S
C1054 N1061 1.356 . S
C1055 C1054 1.363 . S
C1055 C1058 1.363 . S
N1056 C1058 1.356 . S
N1056 H1068 0.984 . S
N1056 H1069 0.985 . S
N1057 C1059 1.356 . S
N1057 H1062 0.984 . S
N1057 H1063 0.985 . S
C1058 C1052 1.379 . S
C1058 C1055 1.363 . S
C1058 N1056 1.356 . S
C1059 C1053 1.363 . S
C1059 C1054 1.379 . S
C1059 N1057 1.356 . S
N1060 C1052 1.359 . S
N1060 H1066 0.984 1_655 S
N1060 H1067 0.983 1_655 S
N1061 C1054 1.356 . S
N1061 H1064 0.984 . S
N1061 H1065 0.985 . S
H1062 N1057 0.984 . S
H1063 N1057 0.985 . S
H1064 N1061 0.984 . S
H1065 N1061 0.985 . S
H1066 N1060 0.984 1_455 S
H1067 N1060 0.983 1_455 S
H1068 N1056 0.984 . S
H1069 N1056 0.985 . S
C1070 C1071 1.363 . S
C1070 C1076 1.379 . S
C1070 N1078 1.356 . S
C1071 C1070 1.363 . S
C1071 C1077 1.363 . S
C1072 C1073 1.363 . S
C1072 C1077 1.379 . S
C1072 N1079 1.356 . S
C1073 C1072 1.363 . S
C1073 C1076 1.363 . S
N1074 C1076 1.356 . S
N1074 H1086 0.984 . S
N1074 H1087 0.985 . S
N1075 C1077 1.356 . S
N1075 H1080 0.984 . S
N1075 H1081 0.985 . S
C1076 C1070 1.379 . S
C1076 C1073 1.363 . S
C1076 N1074 1.356 . S
C1077 C1071 1.363 . S
C1077 C1072 1.379 . S
C1077 N1075 1.356 . S
N1078 C1070 1.356 . S
N1078 H1084 0.984 . S
N1078 H1085 0.984 . S
N1079 C1072 1.356 . S
N1079 H1082 0.984 . S
N1079 H1083 0.985 . S
H1080 N1075 0.984 . S
H1081 N1075 0.985 . S
H1082 N1079 0.984 . S
H1083 N1079 0.985 . S
H1084 N1078 0.984 . S
H1085 N1078 0.984 . S
H1086 N1074 0.984 . S
H1087 N1074 0.985 . S
C1088 C1089 1.363 . S
C1088 C1094 1.379 . S
C1088 N1096 1.356 . S
C1089 C1088 1.363 . S
C1089 C1095 1.363 . S
C1090 C1091 1.363 . S
C1090 C1095 1.379 . S
C1090 N1097 1.356 . S
C1091 C1090 1.363 . S
C1091 C1094 1.363 . S
N1092 C1094 1.356 . S
N1092 H1104 0.984 . S
N1092 H1105 0.985 . S
N1093 C1095 1.356 . S
N1093 H1098 0.984 . S
N1093 H1099 0.985 . S
C1094 C1088 1.379 . S
C1094 C1091 1.363 . S
C1094 N1092 1.356 . S
C1095 C1089 1.363 . S
C1095 C1090 1.379 . S
C1095 N1093 1.356 . S
N1096 C1088 1.356 . S
N1096 H1102 0.984 . S
N1096 H1103 0.984 . S
N1097 C1090 1.356 . S
N1097 H1100 0.967 1_655 S
N1097 H1101 0.985 . S
H1098 N1093 0.984 . S
H1099 N1093 0.985 . S
H1100 N1097 0.967 1_455 S
H1101 N1097 0.985 . S
H1102 N1096 0.984 . S
H1103 N1096 0.984 . S
H1104 N1092 0.984 . S
H1105 N1092 0.985 . S
C1106 C1107 1.363 . S
C1106 C1112 1.379 . S
C1106 N1114 1.356 . S
C1107 C1106 1.363 . S
C1107 C1113 1.363 . S
C1108 C1109 1.363 . S
C1108 C1113 1.379 . S
C1108 N1115 1.356 . S
C1109 C1108 1.363 . S
C1109 C1112 1.363 . S
N1110 C1112 1.356 . S
N1110 H1122 0.984 . S
N1110 H1123 0.985 . S
N1111 C1113 1.356 . S
N1111 H1116 0.984 . S
N1111 H1117 0.985 . S
C1112 C1106 1.379 . S
C1112 C1109 1.363 . S
C1112 N1110 1.356 . S
C1113 C1107 1.363 . S
C1113 C1108 1.379 . S
C1113 N1111 1.356 . S
N1114 C1106 1.356 . S
N1114 H1120 0.984 . S
N1114 H1121 0.984 . S
N1115 C1108 1.356 . S
N1115 H1118 0.984 . S
N1115 H1119 0.985 . S
H1116 N1111 0.984 . S
H1117 N1111 0.985 . S
H1118 N1115 0.984 . S
H1119 N1115 0.985 . S
H1120 N1114 0.984 . S
H1121 N1114 0.984 . S
H1122 N1110 0.984 . S
H1123 N1110 0.985 . S
C1124 C1125 1.363 . S
C1124 C1130 1.379 . S
C1124 N1132 1.356 . S
C1125 C1124 1.363 . S
C1125 C1131 1.363 . S
C1126 C1127 1.363 . S
C1126 C1131 1.379 . S
C1126 N1133 1.356 . S
C1127 C1126 1.363 . S
C1127 C1130 1.363 . S
N1128 C1130 1.356 . S
N1128 H1140 0.984 . S
N1128 H1141 0.985 . S
N1129 C1131 1.356 . S
N1129 H1134 0.984 . S
N1129 H1135 0.985 . S
C1130 C1124 1.379 . S
C1130 C1127 1.363 . S
C1130 N1128 1.356 . S
C1131 C1125 1.363 . S
C1131 C1126 1.379 . S
C1131 N1129 1.356 . S
N1132 C1124 1.356 . S
N1132 H1138 0.984 . S
N1132 H1139 0.984 . S
N1133 C1126 1.356 . S
N1133 H1136 0.984 . S
N1133 H1137 0.985 . S
H1134 N1129 0.984 . S
H1135 N1129 0.985 . S
H1136 N1133 0.984 . S
H1137 N1133 0.985 . S
H1138 N1132 0.984 . S
H1139 N1132 0.984 . S
H1140 N1128 0.984 . S
H1141 N1128 0.985 . S
C1142 C1143 1.363 . S
C1142 C1148 1.379 . S
C1142 N1150 1.356 . S
C1143 C1142 1.363 . S
C1143 C1149 1.363 . S
C1144 C1145 1.363 . S
C1144 C1149 1.379 . S
C1144 N1151 1.356 . S
C1145 C1144 1.363 . S
C1145 C1148 1.363 . S
N1146 C1148 1.356 . S
N1146 H1158 0.984 . S
N1146 H1159 0.985 . S
N1147 C1149 1.356 1_556 S
N1147 H1152 0.984 . S
N1147 H1153 0.985 . S
C1148 C1142 1.379 . S
C1148 C1145 1.363 . S
C1148 N1146 1.356 . S
C1149 C1143 1.363 . S
C1149 C1144 1.379 . S
C1149 N1147 1.356 1_554 S
N1150 C1142 1.356 . S
N1150 H1156 0.984 . S
N1150 H1157 0.984 . S
N1151 C1144 1.356 . S
N1151 H1154 0.984 . S
N1151 H1155 0.985 . S
H1152 N1147 0.984 . S
H1153 N1147 0.985 . S
H1154 N1151 0.984 . S
H1155 N1151 0.985 . S
H1156 N1150 0.984 . S
H1157 N1150 0.984 . S
H1158 N1146 0.984 . S
H1159 N1146 0.985 . S
C1160 C1161 1.363 . S
C1160 C1166 1.379 . S
C1160 N1168 1.356 . S
C1161 C1160 1.363 . S
C1161 C1167 1.363 . S
C1162 C1163 1.363 . S
C1162 C1167 1.379 . S
C1162 N1169 1.356 . S
C1163 C1162 1.363 . S
C1163 C1166 1.363 . S
N1164 C1166 1.356 . S
N1164 H1176 0.984 . S
N1164 H1177 0.985 1_455 S
N1165 C1167 1.356 . S
N1165 H1170 0.984 . S
N1165 H1171 0.985 . S
C1166 C1160 1.379 . S
C1166 C1163 1.363 . S
C1166 N1164 1.356 . S
C1167 C1161 1.363 . S
C1167 C1162 1.379 . S
C1167 N1165 1.356 . S
N1168 C1160 1.356 . S
N1168 H1174 0.984 . S
N1168 H1175 0.984 . S
N1169 C1162 1.356 . S
N1169 H1172 0.984 . S
N1169 H1173 0.985 . S
H1170 N1165 0.984 . S
H1171 N1165 0.985 . S
H1172 N1169 0.984 . S
H1173 N1169 0.985 . S
H1174 N1168 0.984 . S
H1175 N1168 0.984 . S
H1176 N1164 0.984 . S
H1177 N1164 0.985 1_655 S
C1178 C1179 1.363 . S
C1178 C1184 1.379 . S
C1178 N1186 1.356 . S
C1179 C1178 1.363 . S
C1179 C1185 1.363 . S
C1180 C1181 1.363 . S
C1180 C1185 1.379 . S
C1180 N1187 1.356 . S
C1181 C1180 1.363 . S
C1181 C1184 1.363 . S
N1182 C1184 1.356 . S
N1182 H1194 0.984 . S
N1182 H1195 0.985 . S
N1183 C1185 1.356 . S
N1183 H1188 0.984 . S
N1183 H1189 0.985 . S
C1184 C1178 1.379 . S
C1184 C1181 1.363 . S
C1184 N1182 1.356 . S
C1185 C1179 1.363 . S
C1185 C1180 1.379 . S
C1185 N1183 1.356 . S
N1186 C1178 1.356 . S
N1186 H1192 0.984 . S
N1186 H1193 0.984 . S
N1187 C1180 1.356 . S
N1187 H1190 0.984 . S
N1187 H1191 0.985 . S
H1188 N1183 0.984 . S
H1189 N1183 0.985 . S
H1190 N1187 0.984 . S
H1191 N1187 0.985 . S
H1192 N1186 0.984 . S
H1193 N1186 0.984 . S
H1194 N1182 0.984 . S
H1195 N1182 0.985 . S
C1196 C1197 1.363 . S
C1196 C1202 1.379 . S
C1196 N1204 1.356 . S
C1197 C1196 1.363 . S
C1197 C1203 1.363 . S
C1198 C1199 1.363 . S
C1198 C1203 1.379 . S
C1198 N1205 1.356 . S
C1199 C1198 1.363 . S
C1199 C1202 1.363 . S
N1200 C1202 1.356 . S
N1200 H1212 0.984 . S
N1200 H1213 0.985 . S
N1201 C1203 1.356 . S
N1201 H1206 0.984 . S
N1201 H1207 0.985 . S
C1202 C1196 1.379 . S
C1202 C1199 1.363 . S
C1202 N1200 1.356 . S
C1203 C1197 1.363 . S
C1203 C1198 1.379 . S
C1203 N1201 1.356 . S
N1204 C1196 1.356 . S
N1204 H1210 0.984 . S
N1204 H1211 0.984 . S
N1205 C1198 1.356 . S
N1205 H1208 0.984 . S
N1205 H1209 0.985 . S
H1206 N1201 0.984 . S
H1207 N1201 0.985 . S
H1208 N1205 0.984 . S
H1209 N1205 0.985 . S
H1210 N1204 0.984 . S
H1211 N1204 0.984 . S
H1212 N1200 0.984 . S
H1213 N1200 0.985 . S
C1214 C1215 1.363 . S
C1214 C1220 1.379 . S
C1214 N1222 1.356 . S
C1215 C1214 1.363 . S
C1215 C1221 1.363 . S
C1216 C1217 1.363 . S
C1216 C1221 1.379 . S
C1216 N1223 1.356 . S
C1217 C1216 1.363 . S
C1217 C1220 1.363 . S
N1218 C1220 1.356 . S
N1218 H1230 0.984 . S
N1218 H1231 0.985 . S
N1219 C1221 1.356 . S
N1219 H1224 0.984 . S
N1219 H1225 0.985 . S
C1220 C1214 1.379 . S
C1220 C1217 1.363 . S
C1220 N1218 1.356 . S
C1221 C1215 1.363 . S
C1221 C1216 1.379 . S
C1221 N1219 1.356 . S
N1222 C1214 1.356 . S
N1222 H1228 0.984 . S
N1222 H1229 0.984 . S
N1223 C1216 1.356 . S
N1223 H1226 0.984 . S
N1223 H1227 0.985 . S
H1224 N1219 0.984 . S
H1225 N1219 0.985 . S
H1226 N1223 0.984 . S
H1227 N1223 0.985 . S
H1228 N1222 0.984 . S
H1229 N1222 0.984 . S
H1230 N1218 0.984 . S
H1231 N1218 0.985 . S
C1232 C1233 1.363 . S
C1232 C1238 1.379 . S
C1232 N1240 1.356 . S
C1233 C1232 1.363 . S
C1233 C1239 1.363 . S
C1234 C1235 1.363 . S
C1234 C1239 1.379 . S
C1234 N1241 1.356 . S
C1235 C1234 1.363 . S
C1235 C1238 1.363 . S
N1236 C1238 1.356 . S
N1236 H1248 0.984 . S
N1236 H1249 0.985 . S
N1237 C1239 1.356 . S
N1237 H1242 0.984 . S
N1237 H1243 0.985 . S
C1238 C1232 1.379 . S
C1238 C1235 1.363 . S
C1238 N1236 1.356 . S
C1239 C1233 1.363 . S
C1239 C1234 1.379 . S
C1239 N1237 1.356 . S
N1240 C1232 1.356 . S
N1240 H1246 0.984 . S
N1240 H1247 0.984 . S
N1241 C1234 1.356 . S
N1241 H1244 0.984 . S
N1241 H1245 0.985 . S
H1242 N1237 0.984 . S
H1243 N1237 0.985 . S
H1244 N1241 0.984 . S
H1245 N1241 0.985 . S
H1246 N1240 0.984 . S
H1247 N1240 0.984 . S
H1248 N1236 0.984 . S
H1249 N1236 0.985 . S
C1250 C1251 1.363 . S
C1250 C1256 1.379 . S
C1250 N1258 1.356 . S
C1251 C1250 1.363 . S
C1251 C1257 1.363 . S
C1252 C1253 1.363 . S
C1252 C1257 1.379 . S
C1252 N1259 1.356 . S
C1253 C1252 1.363 . S
C1253 C1256 1.363 . S
N1254 C1256 1.356 . S
N1254 H1266 0.984 . S
N1254 H1267 0.985 . S
N1255 C1257 1.356 . S
N1255 H1260 0.984 . S
N1255 H1261 0.985 . S
C1256 C1250 1.379 . S
C1256 C1253 1.363 . S
C1256 N1254 1.356 . S
C1257 C1251 1.363 . S
C1257 C1252 1.379 . S
C1257 N1255 1.356 . S
N1258 C1250 1.356 . S
N1258 H1264 0.984 . S
N1258 H1265 0.984 . S
N1259 C1252 1.356 . S
N1259 H1262 0.984 . S
N1259 H1263 0.985 . S
H1260 N1255 0.984 . S
H1261 N1255 0.985 . S
H1262 N1259 0.984 . S
H1263 N1259 0.985 . S
H1264 N1258 0.984 . S
H1265 N1258 0.984 . S
H1266 N1254 0.984 . S
H1267 N1254 0.985 . S
C1268 C1269 1.363 . S
C1268 C1274 1.379 . S
C1268 N1276 1.356 . S
C1269 C1268 1.363 . S
C1269 C1275 1.363 . S
C1270 C1271 1.363 . S
C1270 C1275 1.379 . S
C1270 N1277 1.356 . S
C1271 C1270 1.363 . S
C1271 C1274 1.363 . S
N1272 C1274 1.356 . S
N1272 H1284 0.984 . S
N1272 H1285 0.985 . S
N1273 C1275 1.356 . S
N1273 H1278 0.984 . S
N1273 H1279 0.985 . S
C1274 C1268 1.379 . S
C1274 C1271 1.363 . S
C1274 N1272 1.356 . S
C1275 C1269 1.363 . S
C1275 C1270 1.379 . S
C1275 N1273 1.356 . S
N1276 C1268 1.356 . S
N1276 H1282 0.984 . S
N1276 H1283 0.984 . S
N1277 C1270 1.356 . S
N1277 H1280 0.984 . S
N1277 H1281 0.985 . S
H1278 N1273 0.984 . S
H1279 N1273 0.985 . S
H1280 N1277 0.984 . S
H1281 N1277 0.985 . S
H1282 N1276 0.984 . S
H1283 N1276 0.984 . S
H1284 N1272 0.984 . S
H1285 N1272 0.985 . S
C1286 C1287 1.363 1_655 S
C1286 C1292 1.379 1_554 S
C1286 N1294 1.356 . S
C1287 C1286 1.363 1_455 S
C1287 C1293 1.363 . S
C1288 C1289 1.363 1_455 S
C1288 C1293 1.379 1_556 S
C1288 N1295 1.356 . S
C1289 C1288 1.363 1_655 S
C1289 C1292 1.363 . S
N1290 C1292 1.356 . S
N1290 H1302 0.984 . S
N1290 H1303 0.985 . S
N1291 C1293 1.356 . S
N1291 H1296 0.984 . S
N1291 H1297 0.985 . S
C1292 C1286 1.379 1_556 S
C1292 C1289 1.363 . S
C1292 N1290 1.356 . S
C1293 C1287 1.363 . S
C1293 C1288 1.379 1_554 S
C1293 N1291 1.356 . S
N1294 C1286 1.356 . S
N1294 H1300 0.984 . S
N1294 H1301 0.984 1_655 S
N1295 C1288 1.356 . S
N1295 H1298 0.984 1_455 S
N1295 H1299 0.985 . S
H1296 N1291 0.984 . S
H1297 N1291 0.985 . S
H1298 N1295 0.984 1_655 S
H1299 N1295 0.985 . S
H1300 N1294 0.984 . S
H1301 N1294 0.984 1_455 S
H1302 N1290 0.984 . S
H1303 N1290 0.985 . S
C1304 C1305 1.363 . S
C1304 C1310 1.379 . S
C1304 N1312 1.356 . S
C1305 C1304 1.363 . S
C1305 C1311 1.363 . S
C1306 C1307 1.363 . S
C1306 C1311 1.379 . S
C1306 N1313 1.356 . S
C1307 C1306 1.363 . S
C1307 C1310 1.363 . S
N1308 C1310 1.356 . S
N1308 H1320 0.984 . S
N1308 H1321 0.985 . S
N1309 C1311 1.356 . S
N1309 H1314 0.984 . S
N1309 H1315 0.985 . S
C1310 C1304 1.379 . S
C1310 C1307 1.363 . S
C1310 N1308 1.356 . S
C1311 C1305 1.363 . S
C1311 C1306 1.379 . S
C1311 N1309 1.356 . S
N1312 C1304 1.356 . S
N1312 H1318 0.984 . S
N1312 H1319 0.984 . S
N1313 C1306 1.356 . S
N1313 H1316 0.984 . S
N1313 H1317 0.985 . S
H1314 N1309 0.984 . S
H1315 N1309 0.985 . S
H1316 N1313 0.984 . S
H1317 N1313 0.985 . S
H1318 N1312 0.984 . S
H1319 N1312 0.984 . S
H1320 N1308 0.984 . S
H1321 N1308 0.985 . S
C1322 C1323 1.363 . S
C1322 C1328 1.379 . S
C1322 N1330 1.356 . S
C1323 C1322 1.363 . S
C1323 C1329 1.363 . S
C1324 C1325 1.363 . S
C1324 C1329 1.379 . S
C1324 N1331 1.356 . S
C1325 C1324 1.363 . S
C1325 C1328 1.363 . S
N1326 C1328 1.356 . S
N1326 H1338 0.984 . S
N1326 H1339 0.985 . S
N1327 C1329 1.356 . S
N1327 H1332 0.984 . S
N1327 H1333 0.985 . S
C1328 C1322 1.379 . S
C1328 C1325 1.363 . S
C1328 N1326 1.356 . S
C1329 C1323 1.363 . S
C1329 C1324 1.379 . S
C1329 N1327 1.356 . S
N1330 C1322 1.356 . S
N1330 H1336 0.984 . S
N1330 H1337 0.984 . S
N1331 C1324 1.356 . S
N1331 H1334 0.984 . S
N1331 H1335 0.985 . S
H1332 N1327 0.984 . S
H1333 N1327 0.985 . S
H1334 N1331 0.984 . S
H1335 N1331 0.985 . S
H1336 N1330 0.984 . S
H1337 N1330 0.984 . S
H1338 N1326 0.984 . S
H1339 N1326 0.985 . S
C1340 C1341 1.364 1_665 S
C1340 C1346 1.378 . S
C1340 N1348 1.356 1_565 S
C1341 C1340 1.364 1_445 S
C1341 C1347 1.363 1_556 S
C1342 C1343 1.364 1_445 S
C1342 C1347 1.378 . S
C1342 N1349 1.356 1_545 S
C1343 C1342 1.364 1_665 S
C1343 C1346 1.363 1_554 S
N1344 C1346 1.356 . S
N1344 H1356 0.984 . S
N1344 H1357 0.985 1_556 S
N1345 C1347 1.356 . S
N1345 H1350 0.984 1_554 S
N1345 H1351 0.985 . S
C1346 C1340 1.378 . S
C1346 C1343 1.363 1_556 S
C1346 N1344 1.356 . S
C1347 C1341 1.363 1_554 S
C1347 C1342 1.378 . S
C1347 N1345 1.356 . S
N1348 C1340 1.356 1_545 S
N1348 H1354 0.984 1_545 S
N1348 H1355 0.984 1_655 S
N1349 C1342 1.356 1_565 S
N1349 H1352 0.984 1_455 S
N1349 H1353 0.985 1_565 S
H1350 N1345 0.984 1_556 S
H1351 N1345 0.985 . S
H1352 N1349 0.984 1_655 S
H1353 N1349 0.985 1_545 S
H1354 N1348 0.984 1_565 S
H1355 N1348 0.984 1_455 S
H1356 N1344 0.984 . S
H1357 N1344 0.985 1_554 S
C1358 C1359 1.363 1_565 S
C1358 C1364 1.379 . S
C1358 N1366 1.356 . S
C1359 C1358 1.363 1_545 S
C1359 C1365 1.363 . S
C1360 C1361 1.363 1_545 S
C1360 C1365 1.379 . S
C1360 N1367 1.356 . S
C1361 C1360 1.363 1_565 S
C1361 C1364 1.363 . S
N1362 C1364 1.356 . S
N1362 H1374 0.984 . S
N1362 H1375 0.985 . S
N1363 C1365 1.356 . S
N1363 H1368 0.984 . S
N1363 H1369 0.985 . S
C1364 C1358 1.379 . S
C1364 C1361 1.363 . S
C1364 N1362 1.356 . S
C1365 C1359 1.363 . S
C1365 C1360 1.379 . S
C1365 N1363 1.356 . S
N1366 C1358 1.356 . S
N1366 H1372 0.984 . S
N1366 H1373 0.984 1_565 S
N1367 C1360 1.356 . S
N1367 H1370 0.984 1_545 S
N1367 H1371 0.985 . S
H1368 N1363 0.984 . S
H1369 N1363 0.985 . S
H1370 N1367 0.984 1_565 S
H1371 N1367 0.985 . S
H1372 N1366 0.984 . S
H1373 N1366 0.984 1_545 S
H1374 N1362 0.984 . S
H1375 N1362 0.985 . S
C513 N13 0.588 . S
C515 N338 0.588 . S
C531 N50 0.588 . S
C533 N370 0.588 . S
C549 N82 0.588 . S
C551 N269 0.588 . S
C567 N114 0.588 1_455 S
C569 N306 0.588 1_655 S
C585 N146 0.588 . S
C587 N461 0.588 . S
C603 N178 0.588 . S
C605 N498 0.588 . S
C621 N210 0.588 . S
C623 N402 0.588 . S
C639 N242 0.588 1_655 S
C641 N434 0.588 1_455 S
C657 C317 1.089 . S
C659 N18 1.142 . S
C675 C349 1.089 . S
C677 N45 1.142 . S
C693 C381 1.090 . S
C695 N77 1.142 . S
C711 C260 1.089 . S
C713 N109 1.142 . S
C729 N141 1.142 . S
C731 C445 1.089 . S
C747 C452 1.089 . S
C749 N173 1.142 . S
C765 C509 1.090 . S
C767 N205 1.142 . S
C783 C413 1.089 . S
C785 N237 1.142 . S
C801 C61 1.090 . S
C803 N274 1.142 . S
C819 N301 1.142 . S
C821 C93 1.089 . S
C837 N333 1.142 . S
C839 C125 1.089 . S
C855 N365 1.142 . S
C857 C4 1.089 . S
C873 N397 1.142 . S
C875 C189 1.090 . S
C891 C221 1.089 . S
C893 N429 1.142 . S
C909 C253 1.089 . S
C911 N466 1.142 . S
C927 N493 1.142 . S
C929 C157 1.089 . S
C945 C29 2.082 . S
C947 C482 2.090 . S
C963 C36 2.083 . S
C965 C130 2.091 . S
C981 C418 2.090 1_455 S
C983 C68 2.082 . S
C999 C194 2.090 . S
C1001 C100 2.082 . S
C1017 C132 2.082 . S
C1019 C354 2.090 . S
C1035 C164 2.083 . S
C1037 C6 2.091 . S
C1053 C290 2.090 1_655 S
C1055 C196 2.082 . S
C1071 C66 2.090 . S
C1073 C228 2.082 . S
C1089 C285 2.082 . S
C1091 C226 2.091 1_655 S
C1107 C292 2.082 . S
C1109 C386 2.090 . S
C1125 C162 2.091 . S
C1127 C324 2.083 . S
C1143 C454 2.091 . S
C1145 C356 2.083 . S
C1161 C388 2.082 . S
C1163 C98 2.091 1_455 S
C1179 C420 2.082 . S
C1181 C262 2.090 . S
C1197 C477 2.083 . S
C1199 C34 2.091 . S
C1215 C322 2.091 . S
C1217 C484 2.083 . S
C1233 C2 2.314 . S
C1235 C390 2.314 . S
C1251 C38 2.313 . S
C1253 C166 2.313 . S
C1269 C70 2.314 . S
C1271 C450 2.314 . S
C1287 C230 2.314 . S
C1289 C102 2.314 . S
C1305 C134 2.314 . S
C1307 C258 2.314 . S
C1323 C326 2.314 . S
C1325 C198 2.314 . S
C1341 C294 2.314 . S
C1343 C422 2.314 . S
C1359 C486 2.314 . S
C1361 C358 2.314 . S
