# Generated by pormake.
# Topology wme, (6)-cn, num edge types: 1
# Building blocks:
#     Node 0, Type 0, BuildingBlock: PAMTOO_clean_sbu_0, # of connection points: 6
#     Node 1, Type 0, BuildingBlock: PAMTOO_clean_sbu_0, # of connection points: 6
#     Node 2, Type 0, BuildingBlock: PAMTOO_clean_sbu_0, # of connection points: 6
#     Node 3, Type 0, BuildingBlock: PAMTOO_clean_sbu_0, # of connection points: 6
#     Node 4, Type 0, BuildingBlock: PAMTOO_clean_sbu_0, # of connection points: 6
#     Node 5, Type 0, BuildingBlock: PAMTOO_clean_sbu_0, # of connection points: 6
#     Node 6, Type 0, BuildingBlock: PAMTOO_clean_sbu_0, # of connection points: 6
#     Node 7, Type 0, BuildingBlock: PAMTOO_clean_sbu_0, # of connection points: 6
#     Node 8, Type 0, BuildingBlock: PAMTOO_clean_sbu_0, # of connection points: 6
#     Node 9, Type 0, BuildingBlock: PAMTOO_clean_sbu_0, # of connection points: 6
#     Node 10, Type 0, BuildingBlock: PAMTOO_clean_sbu_0, # of connection points: 6
#     Node 11, Type 0, BuildingBlock: PAMTOO_clean_sbu_0, # of connection points: 6
#     Edge 12, Type (0, 0), BuildingBlock: EZIPEK_clean_linker_0, # of connection points: 2
#     Edge 13, Type (0, 0), BuildingBlock: EZIPEK_clean_linker_0, # of connection points: 2
#     Edge 14, Type (0, 0), BuildingBlock: EZIPEK_clean_linker_0, # of connection points: 2
#     Edge 15, Type (0, 0), BuildingBlock: EZIPEK_clean_linker_0, # of connection points: 2
#     Edge 16, Type (0, 0), BuildingBlock: EZIPEK_clean_linker_0, # of connection points: 2
#     Edge 17, Type (0, 0), BuildingBlock: EZIPEK_clean_linker_0, # of connection points: 2
#     Edge 18, Type (0, 0), BuildingBlock: EZIPEK_clean_linker_0, # of connection points: 2
#     Edge 19, Type (0, 0), BuildingBlock: EZIPEK_clean_linker_0, # of connection points: 2
#     Edge 20, Type (0, 0), BuildingBlock: EZIPEK_clean_linker_0, # of connection points: 2
#     Edge 21, Type (0, 0), BuildingBlock: EZIPEK_clean_linker_0, # of connection points: 2
#     Edge 22, Type (0, 0), BuildingBlock: EZIPEK_clean_linker_0, # of connection points: 2
#     Edge 23, Type (0, 0), BuildingBlock: EZIPEK_clean_linker_0, # of connection points: 2
#     Edge 24, Type (0, 0), BuildingBlock: EZIPEK_clean_linker_0, # of connection points: 2
#     Edge 25, Type (0, 0), BuildingBlock: EZIPEK_clean_linker_0, # of connection points: 2
#     Edge 26, Type (0, 0), BuildingBlock: EZIPEK_clean_linker_0, # of connection points: 2
#     Edge 27, Type (0, 0), BuildingBlock: EZIPEK_clean_linker_0, # of connection points: 2
#     Edge 28, Type (0, 0), BuildingBlock: EZIPEK_clean_linker_0, # of connection points: 2
#     Edge 29, Type (0, 0), BuildingBlock: EZIPEK_clean_linker_0, # of connection points: 2
#     Edge 30, Type (0, 0), BuildingBlock: EZIPEK_clean_linker_0, # of connection points: 2
#     Edge 31, Type (0, 0), BuildingBlock: EZIPEK_clean_linker_0, # of connection points: 2
#     Edge 32, Type (0, 0), BuildingBlock: EZIPEK_clean_linker_0, # of connection points: 2
#     Edge 33, Type (0, 0), BuildingBlock: EZIPEK_clean_linker_0, # of connection points: 2
#     Edge 34, Type (0, 0), BuildingBlock: EZIPEK_clean_linker_0, # of connection points: 2
#     Edge 35, Type (0, 0), BuildingBlock: EZIPEK_clean_linker_0, # of connection points: 2
#     Edge 36, Type (0, 0), BuildingBlock: EZIPEK_clean_linker_0, # of connection points: 2
#     Edge 37, Type (0, 0), BuildingBlock: EZIPEK_clean_linker_0, # of connection points: 2
#     Edge 38, Type (0, 0), BuildingBlock: EZIPEK_clean_linker_0, # of connection points: 2
#     Edge 39, Type (0, 0), BuildingBlock: EZIPEK_clean_linker_0, # of connection points: 2
#     Edge 40, Type (0, 0), BuildingBlock: EZIPEK_clean_linker_0, # of connection points: 2
#     Edge 41, Type (0, 0), BuildingBlock: EZIPEK_clean_linker_0, # of connection points: 2
#     Edge 42, Type (0, 0), BuildingBlock: EZIPEK_clean_linker_0, # of connection points: 2
#     Edge 43, Type (0, 0), BuildingBlock: EZIPEK_clean_linker_0, # of connection points: 2
#     Edge 44, Type (0, 0), BuildingBlock: EZIPEK_clean_linker_0, # of connection points: 2
#     Edge 45, Type (0, 0), BuildingBlock: EZIPEK_clean_linker_0, # of connection points: 2
#     Edge 46, Type (0, 0), BuildingBlock: EZIPEK_clean_linker_0, # of connection points: 2
#     Edge 47, Type (0, 0), BuildingBlock: EZIPEK_clean_linker_0, # of connection points: 2
# Relax obj value: 0.095
# Max RMSD: 0.223
# Mean RMSD: 0.223
data_MOF--net-wme--node1-PAMTOO_clean_sbu_0--edge1-EZIPEK_clean_linker_0
_symmetry_space_group_name_H-M    P1
_symmetry_Int_Tables_number       1
_symmetry_cell_setting            triclinic
loop_
_symmetry_equiv_pos_as_xyz
'x, y, z'
_cell_length_a     31.891203
_cell_length_b     31.863597
_cell_length_c     38.449307
_cell_angle_alpha  89.956962
_cell_angle_beta   89.715763
_cell_angle_gamma 119.90256
loop_
_atom_site_label
_atom_site_type_symbol
_atom_site_fract_x
_atom_site_fract_y
_atom_site_fract_z
_atom_type_partial_charge
Dy0 Dy 0.26852 0.31779 0.11579 0.0
Dy1 Dy 0.21354 0.37707 0.08672 0.0
C2 C 0.25888 0.33121 0.03765 0.0
O3 O 0.32939 0.39501 0.11781 0.0
O4 O 0.29237 0.43245 0.08956 0.0
O5 O 0.295 0.27288 0.09451 0.0
O6 O 0.29494 0.28216 0.15024 0.0
O7 O 0.21521 0.38275 0.14545 0.0
O8 O 0.26308 0.3511 0.16416 0.0
O9 O 0.15163 0.30292 0.09209 0.0
O10 O 0.18782 0.26596 0.1208 0.0
O11 O 0.15469 0.39191 0.08897 0.0
O12 O 0.21243 0.42988 0.05145 0.0
C13 C 0.33037 0.4335 0.10389 0.0
O14 O 0.29041 0.34499 0.06231 0.0
O15 O 0.21884 0.33252 0.04276 0.0
C16 C 0.27732 0.20526 0.1284 0.0
C17 C 0.23217 0.10352 0.12562 0.0
C18 C 0.20423 0.12613 0.12913 0.0
C19 C 0.22669 0.17669 0.13054 0.0
C20 C 0.3052 0.18258 0.12551 0.0
C21 C 0.2828 0.13203 0.12429 0.0
C22 C 0.30072 0.25828 0.12483 0.0
C23 C 0.23718 0.37191 0.17004 0.0
C24 C 0.14915 0.26644 0.10941 0.0
C25 C 0.17138 0.47013 0.07269 0.0
C26 C 0.16594 0.55552 0.08654 0.0
C27 C 0.18422 0.53579 0.11143 0.0
C28 C 0.18832 0.49482 0.10415 0.0
C29 C 0.14788 0.48537 0.04967 0.0
C30 C 0.14389 0.52628 0.05694 0.0
C31 C 0.17282 0.42544 0.0651 0.0
H32 H 0.16513 0.10469 0.1303 0.0
H33 H 0.20453 0.19351 0.13251 0.0
H34 H 0.34423 0.20399 0.12334 0.0
H35 H 0.30488 0.11513 0.12167 0.0
H36 H 0.19414 0.55012 0.13731 0.0
H37 H 0.2036 0.48168 0.12354 0.0
H38 H 0.13145 0.46487 0.02627 0.0
H39 H 0.12218 0.53367 0.03925 0.0
Dy40 Dy 0.9655 0.25115 0.62352 0.0
Dy41 Dy 0.85891 0.21145 0.58427 0.0
C42 C 0.95805 0.24398 0.5437 0.0
O43 O 0.96108 0.31711 0.60645 0.0
O44 O 0.87842 0.2836 0.60538 0.0
O45 O 0.04307 0.29689 0.6197 0.0
O46 O 1.01158 0.24784 0.66336 0.0
O47 O 0.84482 0.20193 0.6419 0.0
O48 O 0.9196 0.25486 0.66529 0.0
O49 O 0.8751 0.15087 0.58259 0.0
O50 O 0.92218 0.17052 0.63132 0.0
O51 O 0.78878 0.15117 0.57175 0.0
O52 O 0.80813 0.22284 0.5538 0.0
C53 C 0.92199 0.32146 0.6047 0.0
O54 O 0.96855 0.22625 0.57063 0.0
O55 O 0.9183 0.24695 0.54367 0.0
C56 C 0.08439 0.25732 0.63979 0.0
C57 C 0.14759 0.22051 0.62808 0.0
C58 C 0.10977 0.20997 0.60483 0.0
C59 C 0.07852 0.22835 0.61058 0.0
C60 C 0.12189 0.26748 0.66316 0.0
C61 C 0.15329 0.24928 0.65734 0.0
C62 C 0.05118 0.27634 0.6462 0.0
C63 C 0.87271 0.22594 0.66841 0.0
C64 C 0.89305 0.13842 0.60866 0.0
C65 C 0.72581 0.16973 0.56939 0.0
C66 C 0.63326 0.15101 0.59149 0.0
C67 C 0.66737 0.15404 0.61587 0.0
C68 C 0.71332 0.16347 0.60492 0.0
C69 C 0.69163 0.16645 0.54507 0.0
C70 C 0.64577 0.15721 0.55601 0.0
C71 C 0.77353 0.17803 0.55729 0.0
H72 H 0.10466 0.18778 0.58217 0.0
H73 H 0.04984 0.22003 0.59218 0.0
H74 H 0.12693 0.28953 0.6859 0.0
H75 H 0.18216 0.25772 0.67561 0.0
H76 H 0.65853 0.14958 0.64335 0.0
H77 H 0.73904 0.16575 0.62419 0.0
H78 H 0.70038 0.17095 0.51757 0.0
H79 H 0.6201 0.15522 0.53681 0.0
Dy80 Dy 0.73249 0.95456 0.12846 0.0
Dy81 Dy 0.66729 0.85104 0.08618 0.0
C82 C 0.73127 0.95318 0.04746 0.0
O83 O 0.66127 0.95062 0.11545 0.0
O84 O 0.61334 0.868 0.10901 0.0
O85 O 0.76571 0.03246 0.13088 0.0
O86 O 0.78106 0.99383 0.17065 0.0
O87 O 0.66918 0.83393 0.14256 0.0
O88 O 0.68246 0.90461 0.16832 0.0
O89 O 0.74468 0.87171 0.07841 0.0
O90 O 0.77118 0.91201 0.12928 0.0
O91 O 0.65754 0.78067 0.07326 0.0
O92 O 0.60683 0.80172 0.05429 0.0
C93 C 0.61835 0.91122 0.11232 0.0
O94 O 0.75951 0.96633 0.07441 0.0
O95 O 0.68967 0.91213 0.04724 0.0
C96 C 0.84694 0.06749 0.15051 0.0
C97 C 0.94788 0.12642 0.13998 0.0
C98 C 0.91678 0.1063 0.1115 0.0
C99 C 0.86683 0.07691 0.11669 0.0
C100 C 0.87818 0.08696 0.17899 0.0
C101 C 0.92821 0.11607 0.1738 0.0
C102 C 0.7942 0.03578 0.15636 0.0
C103 C 0.67032 0.85893 0.17013 0.0
C104 C 0.77792 0.89044 0.10249 0.0
C105 C 0.57615 0.7181 0.06814 0.0
C106 C 0.49987 0.62438 0.08556 0.0
C107 C 0.49754 0.66571 0.0953 0.0
C108 C 0.53545 0.71222 0.0868 0.0
C109 C 0.57879 0.67676 0.05913 0.0
C110 C 0.54113 0.63041 0.06781 0.0
C111 C 0.61634 0.76653 0.05786 0.0
H112 H 0.93115 0.11387 0.08523 0.0
H113 H 0.84379 0.06172 0.09421 0.0
H114 H 0.86385 0.07973 0.20528 0.0
H115 H 0.95156 0.13129 0.19613 0.0
H116 H 0.46596 0.66189 0.10886 0.0
H117 H 0.53266 0.74346 0.09442 0.0
H118 H 0.60985 0.68033 0.04495 0.0
H119 H 0.54359 0.59908 0.05988 0.0
Dy120 Dy 0.80981 0.72528 0.62123 0.0
Dy121 Dy 0.85215 0.66175 0.57883 0.0
C122 C 0.81731 0.72716 0.54013 0.0
O123 O 0.74357 0.65187 0.6124 0.0
O124 O 0.77638 0.60672 0.59073 0.0
O125 O 0.7627 0.75577 0.62019 0.0
O126 O 0.81443 0.77421 0.66196 0.0
O127 O 0.86025 0.65451 0.63654 0.0
O128 O 0.80733 0.6755 0.66176 0.0
O129 O 0.91019 0.73977 0.57745 0.0
O130 O 0.89026 0.7628 0.62842 0.0
O131 O 0.91435 0.65435 0.56617 0.0
O132 O 0.84422 0.60244 0.54659 0.0
C133 C 0.73936 0.61039 0.60183 0.0
O134 O 0.83159 0.75385 0.56793 0.0
O135 O 0.81771 0.68614 0.53853 0.0
C136 C 0.80192 0.83643 0.6405 0.0
C137 C 0.83567 0.93585 0.62964 0.0
C138 C 0.84295 0.9086 0.6041 0.0
C139 C 0.82632 0.85929 0.60952 0.0
C140 C 0.79512 0.86379 0.66615 0.0
C141 C 0.81185 0.91314 0.66076 0.0
C142 C 0.78433 0.78447 0.64642 0.0
C143 C 0.83693 0.65839 0.66378 0.0
C144 C 0.92238 0.76846 0.60458 0.0
C145 C 0.8981 0.57399 0.56077 0.0
C146 C 0.91499 0.4979 0.57928 0.0
C147 C 0.88368 0.50733 0.59937 0.0
C148 C 0.87538 0.54522 0.59024 0.0
C149 C 0.93027 0.56529 0.54127 0.0
C150 C 0.93863 0.52754 0.55041 0.0
C151 C 0.88914 0.61341 0.55019 0.0
H152 H 0.86108 0.92543 0.57988 0.0
H153 H 0.83227 0.83897 0.58945 0.0
H154 H 0.77669 0.84692 0.69028 0.0
H155 H 0.8058 0.93357 0.68071 0.0
H156 H 0.86474 0.48457 0.62152 0.0
H157 H 0.85071 0.55161 0.60582 0.0
H158 H 0.94841 0.58728 0.51862 0.0
H159 H 0.96253 0.52057 0.5344 0.0
Dy160 Dy 0.08601 0.7837 0.13083 0.0
Dy161 Dy 0.19677 0.82731 0.09626 0.0
C162 C 0.10044 0.78726 0.05065 0.0
O163 O 0.0943 0.71901 0.11625 0.0
O164 O 0.17746 0.75577 0.11836 0.0
O165 O 1.00825 0.73687 0.12931 0.0
O166 O 0.04031 0.78958 0.17008 0.0
O167 O 0.20366 0.83996 0.15396 0.0
O168 O 0.12993 0.77804 0.17276 0.0
O169 O 0.17621 0.88395 0.08862 0.0
O170 O 0.12699 0.86473 0.13636 0.0
O171 O 0.26835 0.88905 0.0888 0.0
O172 O 0.25084 0.81969 0.0669 0.0
C173 C 0.13473 0.71686 0.11625 0.0
O174 O 0.08372 0.80254 0.07575 0.0
O175 O 0.1416 0.78735 0.05425 0.0
C176 C 0.96876 0.77966 0.14535 0.0
C177 C 0.90987 0.81963 0.1288 0.0
C178 C 0.95383 0.83515 0.11117 0.0
C179 C 0.98306 0.81536 0.1194 0.0
C180 C 0.92478 0.76405 0.163 0.0
C181 C 0.89543 0.7839 0.15475 0.0
C182 C 1.00046 0.75986 0.15417 0.0
C183 C 0.17466 0.81158 0.17874 0.0
C184 C 0.15661 0.89658 0.11354 0.0
C185 C 0.33329 0.87253 0.08427 0.0
C186 C 0.4283 0.8919 0.09923 0.0
C187 C 0.41785 0.92973 0.09781 0.0
C188 C 0.3709 0.92016 0.09033 0.0
C189 C 0.34366 0.83452 0.0866 0.0
C190 C 0.39072 0.84417 0.09396 0.0
C191 C 0.28496 0.86401 0.07313 0.0
H192 H 0.96551 0.86266 0.09109 0.0
H193 H 1.01699 0.82807 0.10559 0.0
H194 H 0.91326 0.73669 0.18318 0.0
H195 H 0.8616 0.77155 0.16859 0.0
H196 H 0.44639 0.96683 0.10138 0.0
H197 H 0.36427 0.95027 0.08838 0.0
H198 H 0.31579 0.79746 0.08191 0.0
H199 H 0.39814 0.8145 0.09461 0.0
Dy200 Dy 0.3335 0.09313 0.63196 0.0
Dy201 Dy 0.39988 0.1984 0.59046 0.0
C202 C 0.34303 0.09669 0.5508 0.0
O203 O 0.41006 0.10728 0.63698 0.0
O204 O 0.44657 0.16486 0.5934 0.0
O205 O 0.30275 1.01557 0.63646 0.0
O206 O 0.27923 0.05296 0.67128 0.0
O207 O 0.42587 0.21412 0.64547 0.0
O208 O 0.36372 0.14795 0.67364 0.0
O209 O 0.33644 0.19854 0.61482 0.0
O210 O 0.28469 0.11782 0.60904 0.0
O211 O 0.40698 0.26614 0.57264 0.0
O212 O 0.46206 0.2483 0.55968 0.0
C213 C 0.44702 0.1342 0.61607 0.0
O214 O 0.34524 0.07546 0.57906 0.0
O215 O 0.35398 0.14248 0.55031 0.0
C216 C 0.21957 0.97736 0.6503 0.0
C217 C 0.12199 0.91348 0.63333 0.0
C218 C 0.15198 0.95094 0.61036 0.0
C219 C 0.20039 0.98273 0.61882 0.0
C220 C 0.18949 0.94024 0.67338 0.0
C221 C 0.14105 0.90844 0.66493 0.0
C222 C 0.27044 1.01115 0.65932 0.0
C223 C 0.40264 0.19091 0.67388 0.0
C224 C 0.29236 0.162 0.61285 0.0
C225 C 0.48757 0.33093 0.56837 0.0
C226 C 0.56336 0.42454 0.58496 0.0
C227 C 0.53807 0.39062 0.61146 0.0
C228 C 0.50056 0.34406 0.60321 0.0
C229 C 0.51206 0.36516 0.54201 0.0
C230 C 0.54967 0.41158 0.55021 0.0
C231 C 0.44965 0.28149 0.55901 0.0
H232 H 0.13802 0.9552 0.58579 0.0
H233 H 0.22297 1.01138 0.60072 0.0
H234 H 0.20351 0.93575 0.69786 0.0
H235 H 0.11849 0.87959 0.68288 0.0
H236 H 0.54823 0.39983 0.63841 0.0
H237 H 0.48225 0.3181 0.62393 0.0
H238 H 0.5026 0.35571 0.51499 0.0
H239 H 0.56885 0.43709 0.5294 0.0
Dy240 Dy 0.74383 0.79277 0.36315 0.0
Dy241 Dy 0.6771 0.83634 0.39618 0.0
C242 C 0.74194 0.80795 0.44248 0.0
O243 O 0.67261 0.72806 0.37946 0.0
O244 O 0.62356 0.76201 0.379 0.0
O245 O 0.79305 0.79154 0.32476 0.0
O246 O 0.77353 0.74562 0.37047 0.0
O247 O 0.67876 0.84505 0.33787 0.0
O248 O 0.69385 0.78455 0.32083 0.0
O249 O 0.75361 0.89645 0.39906 0.0
O250 O 0.78376 0.87333 0.35339 0.0
O251 O 0.66584 0.89717 0.40299 0.0
O252 O 0.61708 0.82879 0.42775 0.0
C253 C 0.6293 0.72401 0.38016 0.0
O254 O 0.77051 0.82107 0.41548 0.0
O255 O 0.69908 0.80407 0.43986 0.0
C256 C 0.85448 0.78321 0.35173 0.0
C257 C 0.95346 0.82268 0.36622 0.0
C258 C 0.92529 0.8368 0.38568 0.0
C259 C 0.87617 0.81714 0.37854 0.0
C260 C 0.88255 0.76895 0.33226 0.0
C261 C 0.93184 0.78849 0.33954 0.0
C262 C 0.80294 0.7638 0.34392 0.0
C263 C 0.68075 0.81657 0.31383 0.0
C264 C 0.78554 0.90702 0.37409 0.0
C265 C 0.58509 0.87891 0.4111 0.0
C266 C 0.50811 0.8943 0.39339 0.0
C267 C 0.53387 0.88563 0.36729 0.0
C268 C 0.57206 0.87783 0.3761 0.0
C269 C 0.55948 0.88778 0.43706 0.0
C270 C 0.52127 0.89538 0.4283 0.0
C271 C 0.62624 0.87269 0.42106 0.0
H272 H 0.94138 0.86304 0.4064 0.0
H273 H 0.85509 0.82848 0.39393 0.0
H274 H 0.86643 0.74291 0.31144 0.0
H275 H 0.95317 0.77724 0.32432 0.0
H276 H 0.52407 0.88447 0.34023 0.0
H277 H 0.59149 0.87114 0.35566 0.0
H278 H 0.56915 0.88897 0.46417 0.0
H279 H 0.5017 0.90181 0.44877 0.0
Dy280 Dy 0.9805 0.73086 0.85317 0.0
Dy281 Dy 0.87161 0.66595 0.88974 0.0
C282 C 0.96996 0.72194 0.93368 0.0
O283 O 0.97348 0.65871 0.86732 0.0
O284 O 0.89019 0.61164 0.8699 0.0
O285 O 0.05827 0.76153 0.85308 0.0
O286 O 1.02428 0.78012 0.81224 0.0
O287 O 0.86257 0.6709 0.83216 0.0
O288 O 0.93466 0.67941 0.8129 0.0
O289 O 0.89465 0.74386 0.89883 0.0
O290 O 0.93895 0.77053 0.84944 0.0
O291 O 0.80035 0.6566 0.8977 0.0
O292 O 0.81828 0.60576 0.92091 0.0
C293 C 0.93344 0.6161 0.86929 0.0
O294 O 0.98687 0.75324 0.90816 0.0
O295 O 0.9281 0.68146 0.93085 0.0
C296 C 0.09868 0.84213 0.83322 0.0
C297 C 0.16241 0.94165 0.84458 0.0
C298 C 0.11564 0.9186 0.8591 0.0
C299 C 0.08439 0.86911 0.85396 0.0
C300 C 0.14529 0.86494 0.81865 0.0
C301 C 0.17712 0.91427 0.82455 0.0
C302 C 0.06494 0.79034 0.82703 0.0
C303 C 0.89009 0.669 0.80729 0.0
C304 C 0.91639 0.77795 0.87524 0.0
C305 C 0.73588 0.57585 0.90512 0.0
C306 C 0.64145 0.5011 0.88814 0.0
C307 C 0.6743 0.52931 0.86179 0.0
C308 C 0.72116 0.5663 0.87019 0.0
C309 C 0.70302 0.54763 0.93135 0.0
C310 C 0.65632 0.51063 0.92297 0.0
C311 C 0.78424 0.61617 0.91496 0.0
H312 H 0.10359 0.93886 0.87479 0.0
H313 H 0.04903 0.85182 0.86621 0.0
H314 H 0.15708 0.8446 0.80281 0.0
H315 H 0.21312 0.93123 0.81329 0.0
H316 H 0.66369 0.52253 0.83475 0.0
H317 H 0.74576 0.5876 0.84946 0.0
H318 H 0.71342 0.55444 0.95844 0.0
H319 H 0.63172 0.48931 0.94369 0.0
Dy320 Dy 0.26532 0.95554 0.36377 0.0
Dy321 Dy 0.22345 0.84894 0.40561 0.0
C322 C 0.2646 0.94983 0.44599 0.0
O323 O 0.33087 0.94624 0.36864 0.0
O324 O 0.29853 0.86899 0.39189 0.0
O325 O 0.31231 0.03322 0.36268 0.0
O326 O 0.25645 0.99832 0.32387 0.0
O327 O 0.21123 0.83471 0.34822 0.0
O328 O 0.26402 0.90783 0.3222 0.0
O329 O 0.16998 0.87377 0.41375 0.0
O330 O 0.18436 0.91334 0.36235 0.0
O331 O 0.16075 0.77829 0.41445 0.0
O332 O 0.22898 0.79626 0.43807 0.0
C333 C 0.33499 0.90888 0.37921 0.0
O334 O 0.25346 0.96658 0.41877 0.0
O335 O 0.26045 0.90652 0.44644 0.0
C336 C 0.26952 0.07273 0.34599 0.0
C337 C 0.23166 0.13434 0.36035 0.0
C338 C 0.22084 0.09491 0.38227 0.0
C339 C 0.23973 0.06448 0.37522 0.0
C340 C 0.28042 0.11215 0.32405 0.0
C341 C 0.26178 0.14291 0.33125 0.0
C342 C 0.28773 0.03928 0.33803 0.0
C343 C 0.23354 0.86138 0.32067 0.0
C344 C 0.15617 0.89304 0.38946 0.0
C345 C 0.17713 0.71412 0.42193 0.0
C346 C 0.16235 0.62146 0.40419 0.0
C347 C 0.1932 0.6623 0.38397 0.0
C348 C 0.20048 0.70829 0.39273 0.0
C349 C 0.14569 0.67318 0.44168 0.0
C350 C 0.1384 0.62732 0.43294 0.0
C351 C 0.18465 0.76223 0.43211 0.0
H352 H 0.19782 0.08777 0.40488 0.0
H353 H 0.23076 0.03424 0.39248 0.0
H354 H 0.30319 0.11903 0.30132 0.0
H355 H 0.27062 0.17324 0.31411 0.0
H356 H 0.21236 0.6587 0.36188 0.0
H357 H 0.2247 0.73934 0.377 0.0
H358 H 0.12713 0.67677 0.46417 0.0
H359 H 0.11478 0.59645 0.44904 0.0
Dy360 Dy 0.33291 0.2598 0.86196 0.0
Dy361 Dy 0.4029 0.22043 0.90004 0.0
C362 C 0.33241 0.246 0.94143 0.0
O363 O 0.40792 0.32643 0.86673 0.0
O364 O 0.45627 0.29578 0.88554 0.0
O365 O 0.30078 0.30467 0.87092 0.0
O366 O 0.28319 0.26094 0.82426 0.0
O367 O 0.41735 0.22276 0.8426 0.0
O368 O 0.37181 0.25292 0.81689 0.0
O369 O 0.32905 0.15586 0.89347 0.0
O370 O 0.29386 0.18033 0.85182 0.0
O371 O 0.41056 0.15846 0.91219 0.0
O372 O 0.46482 0.22913 0.92974 0.0
C373 C 0.45079 0.33182 0.87469 0.0
O374 O 0.30566 0.22819 0.91405 0.0
O375 O 0.37628 0.25195 0.94161 0.0
C376 C 0.22021 0.27053 0.84939 0.0
C377 C 0.1213 0.24552 0.85947 0.0
C378 C 0.14926 0.24237 0.88693 0.0
C379 C 0.19815 0.25605 0.88222 0.0
C380 C 0.19134 0.26711 0.82107 0.0
C381 C 0.14251 0.25325 0.82583 0.0
C382 C 0.27248 0.28772 0.84389 0.0
C383 C 0.40187 0.23604 0.81519 0.0
C384 C 0.29623 0.14624 0.86946 0.0
C385 C 0.49118 0.17295 0.91476 0.0
C386 C 0.56141 0.14709 0.89549 0.0
C387 C 0.52464 0.14032 0.87225 0.0
C388 C 0.49002 0.15332 0.8817 0.0
C389 C 0.52803 0.17979 0.93788 0.0
C390 C 0.56281 0.16711 0.92834 0.0
C391 C 0.45297 0.18385 0.92626 0.0
H392 H 0.13401 0.22857 0.91228 0.0
H393 H 0.21856 0.25496 0.90432 0.0
H394 H 0.20651 0.27496 0.79501 0.0
H395 H 0.12188 0.24819 0.80252 0.0
H396 H 0.52283 0.12505 0.84677 0.0
H397 H 0.46207 0.14757 0.86327 0.0
H398 H 0.52964 0.19454 0.96353 0.0
H399 H 0.59081 0.17274 0.94668 0.0
Dy400 Dy 0.10517 0.32205 0.36014 0.0
Dy401 Dy 0.21165 0.3849 0.39879 0.0
C402 C 0.11138 0.32202 0.44077 0.0
O403 O 0.11153 0.39307 0.3777 0.0
O404 O 0.19443 0.43945 0.37754 0.0
O405 O 1.02767 0.29223 0.36032 0.0
O406 O 0.06202 0.27461 0.31851 0.0
O407 O 0.22429 0.37972 0.34169 0.0
O408 O 0.15394 0.37146 0.31934 0.0
O409 O 0.18993 0.30742 0.40691 0.0
O410 O 0.14319 0.27855 0.35879 0.0
O411 O 0.28284 0.39482 0.40815 0.0
O412 O 0.26264 0.44444 0.43076 0.0
C413 C 0.15161 0.43571 0.37896 0.0
O414 O 0.09587 0.29415 0.41359 0.0
O415 O 0.15318 0.36298 0.4402 0.0
C416 C 0.98771 0.21128 0.33995 0.0
C417 C 0.92478 0.11097 0.35042 0.0
C418 C 0.95422 0.14 0.37757 0.0
C419 C 0.98556 0.18965 0.37235 0.0
C420 C 0.95865 0.18215 0.31272 0.0
C421 C 0.92746 0.1324 0.31789 0.0
C422 C 1.02136 0.2636 0.33412 0.0
C423 C 0.19857 0.38088 0.31538 0.0
C424 C 0.16724 0.27264 0.38426 0.0
C425 C 0.3462 0.47624 0.41515 0.0
C426 C 0.44052 0.55341 0.39999 0.0
C427 C 0.4021 0.56241 0.40546 0.0
C428 C 0.35539 0.52424 0.41299 0.0
C429 C 0.38476 0.46745 0.40932 0.0
C430 C 0.43132 0.50555 0.40166 0.0
C431 C 0.29768 0.4353 0.42496 0.0
H432 H 0.95267 0.12425 0.40285 0.0
H433 H 1.00807 0.21114 0.39368 0.0
H434 H 0.96006 0.1979 0.28746 0.0
H435 H 0.90501 0.11065 0.29662 0.0
H436 H 0.40844 0.5991 0.40431 0.0
H437 H 0.32669 0.53245 0.41747 0.0
H438 H 0.37899 0.431 0.41108 0.0
H439 H 0.46041 0.4978 0.39756 0.0
Dy440 Dy 0.80592 0.0899 0.85735 0.0
Dy441 Dy 0.83158 0.19427 0.89488 0.0
C442 C 0.80136 0.09659 0.93933 0.0
O443 O 0.74032 0.09968 0.85109 0.0
O444 O 0.75254 0.14473 0.90035 0.0
O445 O 0.76182 1.01187 0.85295 0.0
O446 O 0.82546 0.05102 0.82076 0.0
O447 O 0.81908 0.20295 0.83829 0.0
O448 O 0.82963 0.14258 0.81428 0.0
O449 O 0.89921 0.20358 0.87058 0.0
O450 O 0.88232 0.12558 0.87789 0.0
O451 O 0.88075 0.25878 0.92349 0.0
O452 O 0.81018 0.24666 0.90853 0.0
C453 C 0.72469 0.11877 0.87487 0.0
O454 O 0.78332 0.07053 0.91156 0.0
O455 O 0.82777 0.14439 0.93854 0.0
C456 C 0.80862 0.9746 0.84156 0.0
C457 C 0.84458 0.91184 0.85735 0.0
C458 C 0.86392 0.95718 0.87357 0.0
C459 C 0.84596 0.98824 0.86586 0.0
C460 C 0.78842 0.9288 0.826 0.0
C461 C 0.80613 0.89753 0.83393 0.0
C462 C 0.79192 1.00862 0.8316 0.0
C463 C 0.82587 0.18149 0.81129 0.0
C464 C 0.9137 0.17185 0.87326 0.0
C465 C 0.87233 0.32805 0.91282 0.0
C466 C 0.90522 0.42519 0.89351 0.0
C467 C 0.91972 0.39689 0.87439 0.0
C468 C 0.90323 0.34852 0.88392 0.0
C469 C 0.85874 0.35669 0.93218 0.0
C470 C 0.87504 0.40478 0.92266 0.0
C471 C 0.85167 0.27656 0.92248 0.0
H472 H 0.89353 0.96886 0.89172 0.0
H473 H 0.86186 1.02331 0.87833 0.0
H474 H 0.75953 0.91758 0.80727 0.0
H475 H 0.79079 0.86273 0.82114 0.0
H476 H 0.94305 0.41201 0.85184 0.0
H477 H 0.91405 0.327 0.86857 0.0
H478 H 0.83481 0.34157 0.95446 0.0
H479 H 0.86348 0.42595 0.93775 0.0
C480 C 0.19349 0.97319 0.14922 0.0
C481 C 0.1718 0.94876 0.11767 0.0
C482 C 0.1897 0.0262 0.0911 0.0
C483 C 0.20866 0.04984 0.12325 0.0
N484 N 0.21918 0.04464 0.18478 0.0
N485 N 0.14012 0.95022 0.06116 0.0
C486 C 0.20744 1.02286 0.15292 0.0
C487 C 0.16726 0.97479 0.08932 0.0
N488 N 0.20372 0.95003 0.17491 0.0
N489 N 0.19445 0.05298 0.06202 0.0
H490 H 0.12229 0.91256 0.05933 0.0
H491 H 0.13144 0.96661 0.04119 0.0
H492 H 0.20979 0.09054 0.06243 0.0
H493 H 0.18648 0.03847 0.03707 0.0
H494 H 0.22437 0.96758 0.19665 0.0
H495 H 0.1957 0.91423 0.17315 0.0
H496 H 0.21381 0.02564 0.20797 0.0
H497 H 0.23016 0.08114 0.1884 0.0
C498 C 0.21701 0.15295 0.64196 0.0
C499 C 0.25128 0.17175 0.6143 0.0
C500 C 0.21713 0.22204 0.59515 0.0
C501 C 0.18156 0.2017 0.62189 0.0
N502 N 0.14062 0.13983 0.66548 0.0
N503 N 0.27643 0.21484 0.55977 0.0
C504 C 0.17931 0.16458 0.64364 0.0
C505 C 0.24901 0.20349 0.58942 0.0
N506 N 0.22196 0.12619 0.66773 0.0
N507 N 0.22184 0.26046 0.57615 0.0
H508 H 0.29939 0.20108 0.55442 0.0
H509 H 0.27286 0.2338 0.53899 0.0
H510 H 0.19929 0.27514 0.57948 0.0
H511 H 0.25048 0.28028 0.55903 0.0
H512 H 0.20143 0.11611 0.69053 0.0
H513 H 0.24938 0.11746 0.66777 0.0
H514 H 0.13429 0.10908 0.67931 0.0
H515 H 0.11236 0.14734 0.66732 0.0
C516 C 1.03168 0.14425 0.12152 0.0
C517 C 1.00061 0.16092 0.13427 0.0
C518 C 0.07013 0.24295 0.13865 0.0
C519 C 0.09974 0.22813 0.12086 0.0
N520 N 0.10828 0.16444 0.09401 0.0
N521 N 0.98915 0.22797 0.14971 0.0
C522 C 0.08055 0.17855 0.11218 0.0
C523 C 1.01958 0.21076 0.1415 0.0
N524 N 1.01477 0.09562 0.11916 0.0
N525 N 0.09065 0.28737 0.15414 0.0
H526 H 0.95171 0.20593 0.15159 0.0
H527 H 1.00063 0.26478 0.15138 0.0
H528 H 0.12784 0.31117 0.1541 0.0
H529 H 0.07157 0.29818 0.1704 0.0
H530 H 0.03669 0.08087 0.11345 0.0
H531 H 0.97936 0.06971 0.12579 0.0
H532 H 0.09486 0.13013 0.08331 0.0
H533 H 0.1444 0.18809 0.08791 0.0
C534 C 0.90061 1.02375 0.62419 0.0
C535 C 0.85094 0.9877 0.6232 0.0
C536 C 0.82889 0.05062 0.61516 0.0
C537 C 0.87872 0.08646 0.6132 0.0
N538 N 0.96195 0.10568 0.60883 0.0
N539 N 0.76858 0.96574 0.61034 0.0
C540 C 0.91464 0.07264 0.61583 0.0
C541 C 0.81532 1.00085 0.61645 0.0
N542 N 0.93428 1.01151 0.63401 0.0
N543 N 0.79438 0.06399 0.61757 0.0
H544 H 0.75714 0.92884 0.61096 0.0
H545 H 0.7422 0.97324 0.60144 0.0
H546 H 0.80247 0.09991 0.61771 0.0
H547 H 0.75812 0.03969 0.62303 0.0
H548 H 0.97028 0.03691 0.6389 0.0
H549 H 0.92542 0.97609 0.64005 0.0
H550 H 0.98911 0.0967 0.60691 0.0
H551 H 0.97336 0.14132 0.60156 0.0
C552 C 0.84695 0.82231 0.09117 0.0
C553 C 0.87913 0.84105 0.11969 0.0
C554 C 0.85708 0.90409 0.12771 0.0
C555 C 0.81982 0.88092 0.10268 0.0
N556 N 0.80075 0.83732 0.04831 0.0
N557 N 0.91475 0.89913 0.16596 0.0
C558 C 0.8206 0.84538 0.08072 0.0
C559 C 0.88445 0.88204 0.13805 0.0
N560 N 0.84059 0.78163 0.07457 0.0
N561 N 0.8694 0.94949 0.13894 0.0
H562 H 0.93656 0.88497 0.17361 0.0
H563 H 0.9158 0.92501 0.18301 0.0
H564 H 0.85469 0.96925 0.12804 0.0
H565 H 0.89867 0.97023 0.15507 0.0
H566 H 0.81334 0.76283 0.05648 0.0
H567 H 0.86002 0.76433 0.08087 0.0
H568 H 0.8032 0.81429 0.03025 0.0
H569 H 0.78932 0.85966 0.03715 0.0
C570 C 0.98617 0.85535 0.61567 0.0
C571 C 0.97403 0.80658 0.60954 0.0
C572 C 0.06015 0.83075 0.61287 0.0
C573 C 0.07127 0.87769 0.62358 0.0
N574 N 0.04445 0.9339 0.6389 0.0
N575 N 0.99924 0.74644 0.60883 0.0
C576 C 1.03416 0.88986 0.62594 0.0
C577 C 1.011 0.79392 0.60961 0.0
N578 N 0.95236 0.86912 0.6104 0.0
N579 N 0.09667 0.82144 0.60529 0.0
H580 H 0.96377 0.71805 0.60822 0.0
H581 H 1.02427 0.73496 0.61271 0.0
H582 H 0.13318 0.84742 0.60753 0.0
H583 H 0.09085 0.78948 0.59364 0.0
H584 H 0.9602 0.90498 0.61118 0.0
H585 H 0.91741 0.84524 0.60187 0.0
H586 H 1.01804 0.94291 0.64488 0.0
H587 H 0.07923 0.96025 0.64619 0.0
C588 C 0.09041 0.90551 0.363 0.0
C589 C 0.10514 0.88435 0.38936 0.0
C590 C 1.02006 0.82746 0.40351 0.0
C591 C 1.00574 0.84409 0.37413 0.0
N592 N 1.02648 0.89848 0.32525 0.0
N593 N 0.08248 0.84582 0.44586 0.0
C594 C 0.0407 0.88322 0.35379 0.0
C595 C 0.06964 0.85111 0.413 0.0
N596 N 0.1232 0.94955 0.34939 0.0
N597 N 0.98646 0.78802 0.42179 0.0
H598 H 0.11669 0.86876 0.45591 0.0
H599 H 0.05759 0.82469 0.46498 0.0
H600 H 0.94967 0.76994 0.41593 0.0
H601 H 0.99561 0.77074 0.44082 0.0
H602 H 0.11438 0.969 0.33205 0.0
H603 H 0.15798 0.96995 0.35937 0.0
H604 H 0.05055 0.92248 0.30684 0.0
H605 H 0.99028 0.88472 0.31864 0.0
C606 C 0.21003 1.01176 0.88513 0.0
C607 C 0.19604 0.99436 0.85074 0.0
C608 C 0.25034 0.07616 0.82813 0.0
C609 C 0.2599 0.09448 0.86268 0.0
N610 N 0.2378 0.08044 0.92351 0.0
N611 N 0.19447 1.01267 0.78994 0.0
C612 C 0.23654 0.06246 0.89106 0.0
C613 C 0.21368 0.02736 0.82233 0.0
N614 N 0.19964 0.98003 0.91209 0.0
N615 N 0.27769 0.10424 0.80091 0.0
H616 H 0.16665 0.97765 0.78474 0.0
H617 H 0.20271 0.03654 0.76911 0.0
H618 H 0.30614 0.13953 0.80382 0.0
H619 H 0.2754 0.09074 0.77589 0.0
H620 H 0.21318 0.99107 0.93708 0.0
H621 H 0.18184 0.94259 0.90877 0.0
H622 H 0.21769 0.05883 0.94443 0.0
H623 H 0.2543 0.11742 0.92847 0.0
C624 C 0.15058 0.19141 0.35984 0.0
C625 C 0.17494 0.22946 0.38425 0.0
C626 C 0.23189 0.20049 0.39616 0.0
C627 C 0.21176 0.16686 0.36853 0.0
N628 N 0.15197 0.12972 0.32356 0.0
N629 N 0.21854 0.24851 0.43853 0.0
C630 C 0.1709 0.16197 0.35032 0.0
C631 C 0.20994 0.22802 0.40627 0.0
N632 N 0.1055 0.1801 0.34874 0.0
N633 N 0.27305 0.20739 0.41213 0.0
H634 H 0.197 0.26112 0.44952 0.0
H635 H 0.24107 0.24546 0.45664 0.0
H636 H 0.29023 0.18784 0.40569 0.0
H637 H 0.2925 0.23545 0.42957 0.0
H638 H 0.08398 0.15065 0.33295 0.0
H639 H 0.08656 0.19582 0.35954 0.0
H640 H 0.12631 0.12866 0.3064 0.0
H641 H 0.16414 0.1058 0.31705 0.0
C642 C 0.0416 0.23835 0.83694 0.0
C643 C 0.06934 0.23595 0.86494 0.0
C644 C 0.99475 0.19745 0.9005 0.0
C645 C 0.96665 0.18995 0.87021 0.0
N646 N 0.96405 0.20201 0.80845 0.0
N647 N 0.07219 0.24948 0.92672 0.0
C648 C 0.99033 0.20997 0.83809 0.0
C649 C 0.04626 0.22513 0.89818 0.0
N650 N 0.06313 0.27427 0.81267 0.0
N651 N 0.97251 0.17944 0.93176 0.0
H652 H 0.10735 0.2787 0.92443 0.0
H653 H 0.05678 0.24647 0.95121 0.0
H654 H 0.93506 0.16168 0.93492 0.0
H655 H 0.99133 0.17949 0.95387 0.0
H656 H 0.04386 0.28045 0.79345 0.0
H657 H 0.0988 0.30225 0.81537 0.0
H658 H 0.98019 0.2125 0.78393 0.0
H659 H 0.92641 0.18118 0.80807 0.0
C660 C 0.90601 0.02477 0.36083 0.0
C661 C 0.88954 0.05849 0.35647 0.0
C662 C 0.80549 0.99196 0.3594 0.0
C663 C 0.82178 0.95892 0.36744 0.0
N664 N 0.8876 0.94507 0.38104 0.0
N665 N 0.82375 0.07537 0.3585 0.0
C666 C 0.87213 0.97562 0.3695 0.0
C667 C 0.83929 0.04239 0.35774 0.0
N668 N 0.95381 0.0394 0.35575 0.0
N669 N 0.75794 0.97505 0.35169 0.0
H670 H 0.84727 0.11268 0.35763 0.0
H671 H 0.78791 0.0659 0.36331 0.0
H672 H 0.73228 0.93834 0.35132 0.0
H673 H 0.74496 0.99699 0.3421 0.0
H674 H 0.96726 1.01559 0.35495 0.0
H675 H 0.97957 0.07498 0.34942 0.0
H676 H 0.92359 0.95629 0.38658 0.0
H677 H 0.86383 0.90919 0.388 0.0
C678 C 0.88168 0.82775 0.90169 0.0
C679 C 0.90799 0.82078 0.87447 0.0
C680 C 0.899 0.87978 0.83841 0.0
C681 C 0.86672 0.88079 0.8635 0.0
N682 N 0.82458 0.8536 0.91832 0.0
N683 N 0.96266 0.86162 0.82639 0.0
C684 C 0.85761 0.85448 0.89509 0.0
C685 C 0.92264 0.85274 0.84528 0.0
N686 N 0.88386 0.8132 0.93475 0.0
N687 N 0.9068 0.90432 0.80768 0.0
H688 H 0.98612 0.8497 0.83419 0.0
H689 H 0.97734 0.88717 0.80649 0.0
H690 H 0.89309 0.92729 0.80247 0.0
H691 H 0.92419 0.89941 0.78639 0.0
H692 H 0.86856 0.82045 0.95626 0.0
H693 H 0.90735 0.80071 0.94156 0.0
H694 H 0.81208 0.83057 0.93982 0.0
H695 H 0.80657 0.87302 0.91458 0.0
C696 C 0.1271 0.65126 0.07653 0.0
C697 C 0.13501 0.67078 0.11058 0.0
C698 C 0.18021 0.62912 0.12417 0.0
C699 C 0.16457 0.60254 0.09262 0.0
N700 N 0.15923 0.62108 0.03263 0.0
N701 N 0.16547 0.67434 0.16831 0.0
C702 C 0.14742 0.6221 0.06666 0.0
C703 C 0.15996 0.65795 0.13493 0.0
N704 N 0.10146 0.66153 0.05306 0.0
N705 N 0.22142 0.63579 0.1397 0.0
H706 H 0.15099 0.69552 0.17703 0.0
H707 H 0.18027 0.66292 0.18775 0.0
H708 H 0.24445 0.62601 0.12728 0.0
H709 H 0.23682 0.6582 0.16116 0.0
H710 H 0.09125 0.6446 0.02892 0.0
H711 H 0.08662 0.68333 0.05891 0.0
H712 H 0.15194 0.63883 0.01281 0.0
H713 H 0.18291 0.60892 0.02528 0.0
C714 C 0.58157 0.18196 0.61837 0.0
C715 C 0.58501 0.14329 0.603 0.0
C716 C 0.49605 0.09379 0.60223 0.0
C717 C 0.49284 0.13248 0.61779 0.0
N718 N 0.53173 0.20767 0.64911 0.0
N719 N 0.54653 0.05906 0.58723 0.0
C720 C 0.53547 0.17468 0.62861 0.0
C721 C 0.54245 0.09804 0.59718 0.0
N722 N 0.62204 0.22651 0.62152 0.0
N723 N 0.45497 0.05401 0.59081 0.0
H724 H 0.57989 0.06111 0.58326 0.0
H725 H 0.51729 0.02399 0.58571 0.0
H726 H 0.4205 0.04908 0.59523 0.0
H727 H 0.45508 0.02721 0.57542 0.0
H728 H 0.62105 0.25754 0.62862 0.0
H729 H 0.65654 0.23354 0.61437 0.0
H730 H 0.56121 0.23692 0.66075 0.0
H731 H 0.49848 0.20277 0.65747 0.0
C732 C 0.43004 0.54804 0.06197 0.0
C733 C 0.45752 0.57467 0.09109 0.0
C734 C 0.40232 0.5077 0.12975 0.0
C735 C 0.37721 0.47989 0.10023 0.0
N736 N 0.37524 0.46932 0.03808 0.0
N737 N 0.47507 0.57696 0.15219 0.0
C738 C 0.39356 0.49888 0.06631 0.0
C739 C 0.44521 0.55361 0.1249 0.0
N740 N 0.43738 0.57023 0.03028 0.0
N741 N 0.38415 0.49128 0.16231 0.0
H742 H 0.50644 0.61056 0.14956 0.0
H743 H 0.47088 0.56139 0.1767 0.0
H744 H 0.35328 0.4578 0.16679 0.0
H745 H 0.39759 0.51219 0.18464 0.0
H746 H 0.41475 0.55411 0.00909 0.0
H747 H 0.46316 0.60645 0.02597 0.0
H748 H 0.38912 0.47968 0.01299 0.0
H749 H 0.34974 0.43271 0.04038 0.0
C750 C 0.94827 0.45264 0.61319 0.0
C751 C 0.91891 0.45378 0.58592 0.0
C752 C 0.90106 0.37299 0.5675 0.0
C753 C 0.92553 0.36915 0.59713 0.0
N754 N 0.96836 0.40353 0.65045 0.0
N755 N 0.86049 0.41171 0.54085 0.0
C756 C 0.94842 0.40867 0.62052 0.0
C757 C 0.89344 0.41302 0.56411 0.0
N758 N 0.9766 0.49379 0.63165 0.0
N759 N 0.8865 0.33914 0.54173 0.0
H760 H 0.85366 0.44022 0.5374 0.0
H761 H 0.83665 0.38064 0.52726 0.0
H762 H 0.89218 0.30974 0.54262 0.0
H763 H 0.87345 0.3429 0.51783 0.0
H764 H 1.00257 0.49693 0.64939 0.0
H765 H 0.97665 0.52615 0.62728 0.0
H766 H 0.98068 0.42884 0.67045 0.0
H767 H 0.96954 0.37222 0.65645 0.0
C768 C 0.55084 0.90581 0.07561 0.0
C769 C 0.57351 0.91454 0.10868 0.0
C770 C 0.50139 0.91026 0.13595 0.0
C771 C 0.47939 0.90253 0.10273 0.0
N772 N 0.48708 0.90387 0.04031 0.0
N773 N 0.5742 0.93258 0.16947 0.0
C774 C 0.50541 0.90371 0.07238 0.0
C775 C 0.55003 0.91944 0.13859 0.0
N776 N 0.57196 0.8978 0.04731 0.0
N777 N 0.47507 0.90697 0.16503 0.0
H778 H 0.60926 0.93847 0.17222 0.0
H779 H 0.56121 0.94106 0.19168 0.0
H780 H 0.43989 0.90117 0.16389 0.0
H781 H 0.48668 0.90706 0.19028 0.0
H782 H 0.55445 0.8847 0.02369 0.0
H783 H 0.60617 0.90132 0.04797 0.0
H784 H 0.50665 0.91033 0.01726 0.0
H785 H 0.45366 0.90175 0.03681 0.0
C786 C 0.64808 0.56152 0.59016 0.0
C787 C 0.69139 0.5641 0.6027 0.0
C788 C 0.65002 0.4749 0.60369 0.0
C789 C 0.60642 0.47251 0.59315 0.0
N790 N 0.56081 0.51308 0.5841 0.0
N791 N 0.72767 0.52187 0.63096 0.0
C792 C 0.60449 0.51574 0.58892 0.0
C793 C 0.69043 0.52035 0.61247 0.0
N794 N 0.64864 0.6018 0.57735 0.0
N795 N 0.65386 0.43401 0.60378 0.0
H796 H 0.75804 0.5539 0.63848 0.0
H797 H 0.72615 0.49126 0.642 0.0
H798 H 0.62542 0.39987 0.5973 0.0
H799 H 0.6866 0.43468 0.60711 0.0
H800 H 0.61976 0.60049 0.56386 0.0
H801 H 0.67892 0.63617 0.5774 0.0
H802 H 0.55623 0.54325 0.58461 0.0
H803 H 0.52836 0.48023 0.58291 0.0
C804 C 0.42663 0.94991 0.38793 0.0
C805 C 0.38228 0.9095 0.37663 0.0
C806 C 0.42166 0.85981 0.37476 0.0
C807 C 0.466 0.90045 0.38465 0.0
N808 N 0.51393 0.98671 0.39204 0.0
N809 N 0.343 0.83045 0.34932 0.0
C810 C 0.46948 0.94635 0.38836 0.0
C811 C 0.38161 0.86594 0.36684 0.0
N812 N 0.42779 0.99059 0.40046 0.0
N813 N 0.41683 0.81468 0.37455 0.0
H814 H 0.31274 0.83292 0.34263 0.0
H815 H 0.34308 0.80064 0.33828 0.0
H816 H 0.44515 0.80832 0.38017 0.0
H817 H 0.38364 0.78303 0.37179 0.0
H818 H 0.45769 1.01811 0.41307 0.0
H819 H 0.39807 0.99567 0.4011 0.0
H820 H 0.51948 1.02179 0.39113 0.0
H821 H 0.5459 0.98526 0.3926 0.0
C822 C 0.55048 0.46522 0.88695 0.0
C823 C 0.59174 0.46069 0.87953 0.0
C824 C 0.53835 0.37906 0.85695 0.0
C825 C 0.49702 0.37971 0.87056 0.0
N826 N 0.46422 0.42555 0.89809 0.0
N827 N 0.62483 0.41114 0.86021 0.0
C828 C 0.50306 0.42364 0.88496 0.0
C829 C 0.58565 0.4172 0.86494 0.0
N830 N 0.55666 0.50967 0.89521 0.0
N831 N 0.53237 0.34225 0.83558 0.0
H832 H 0.66015 0.43797 0.86574 0.0
H833 H 0.62189 0.37807 0.85364 0.0
H834 H 0.49843 0.31441 0.82825 0.0
H835 H 0.56076 0.34222 0.82207 0.0
H836 H 0.52827 0.51685 0.8973 0.0
H837 H 0.5907 0.54062 0.89689 0.0
H838 H 0.4673 0.45367 0.91365 0.0
H839 H 0.42869 0.39837 0.89451 0.0
C840 C 0.18315 0.55718 0.41918 0.0
C841 C 0.15826 0.57326 0.39733 0.0
C842 C 0.12811 0.49868 0.36259 0.0
C843 C 0.15005 0.48112 0.38616 0.0
N844 N 0.18895 0.48937 0.44149 0.0
N845 N 0.10114 0.55663 0.35131 0.0
C846 C 0.17485 0.50921 0.41576 0.0
C847 C 0.12893 0.54316 0.36991 0.0
N848 N 0.21611 0.58834 0.44259 0.0
N849 N 0.10843 0.47411 0.33247 0.0
H850 H 0.10151 0.58913 0.35564 0.0
H851 H 0.07514 0.53412 0.33351 0.0
H852 H 0.10718 0.44163 0.32633 0.0
H853 H 0.09667 0.48762 0.31242 0.0
H854 H 0.23954 0.58057 0.45629 0.0
H855 H 0.22335 0.6238 0.44602 0.0
H856 H 0.20233 0.50605 0.46535 0.0
H857 H 0.18258 0.45404 0.44059 0.0
C858 C 0.6401 0.08732 0.89776 0.0
C859 C 0.67634 0.11548 0.87281 0.0
C860 C 0.63538 0.16207 0.86071 0.0
C861 C 0.59892 0.13379 0.88556 0.0
N862 N 0.5603 0.06239 0.92166 0.0
N863 N 0.70193 0.171 0.82453 0.0
C864 C 0.59933 0.09408 0.90216 0.0
C865 C 0.67153 0.14978 0.85217 0.0
N866 N 0.64557 0.05515 0.91803 0.0
N867 N 0.63732 0.20251 0.84679 0.0
H868 H 0.72849 0.16261 0.81775 0.0
H869 H 0.69772 0.19288 0.80638 0.0
H870 H 0.612 0.21315 0.85253 0.0
H871 H 0.66615 0.22781 0.83176 0.0
H872 H 0.62404 0.03785 0.93967 0.0
H873 H 0.67342 0.04742 0.91398 0.0
H874 H 0.55616 0.03025 0.93184 0.0
H875 H 0.52987 0.06615 0.92517 0.0
C876 C 0.50277 0.61854 0.36071 0.0
C877 C 0.49072 0.59431 0.39334 0.0
C878 C 0.57446 0.64668 0.41288 0.0
C879 C 0.58453 0.67537 0.38233 0.0
N880 N 0.55869 0.68878 0.32665 0.0
N881 N 0.51331 0.58845 0.45214 0.0
C882 C 0.54874 0.66119 0.35606 0.0
C883 C 0.52624 0.60892 0.41976 0.0
N884 N 0.47073 0.59986 0.33385 0.0
N885 N 0.61084 0.6553 0.43541 0.0
H886 H 0.47844 0.56095 0.45838 0.0
H887 H 0.53589 0.60144 0.47367 0.0
H888 H 0.64639 0.68284 0.43176 0.0
H889 H 0.60686 0.63232 0.45601 0.0
H890 H 0.4789 0.61267 0.3084 0.0
H891 H 0.43691 0.56874 0.33636 0.0
H892 H 0.53259 0.68469 0.30871 0.0
H893 H 0.5932 0.71723 0.32073 0.0
C894 C 0.90926 0.53332 0.84688 0.0
C895 C 0.93579 0.57059 0.87131 0.0
C896 C 0.95351 0.51497 0.90403 0.0
C897 C 0.92024 0.47598 0.88307 0.0
N898 N 0.86322 0.44706 0.8358 0.0
N899 N 0.97995 0.59589 0.92529 0.0
C900 C 0.89766 0.48494 0.85452 0.0
C901 C 0.95779 0.56146 0.9002 0.0
N902 N 0.89569 0.54443 0.81613 0.0
N903 N 0.98111 0.50746 0.92755 0.0
H904 H 0.9837 0.63023 0.92383 0.0
H905 H 0.99142 0.58924 0.94892 0.0
H906 H 0.97872 0.47383 0.93092 0.0
H907 H 1.00939 0.53532 0.94122 0.0
H908 H 0.88017 0.51991 0.79582 0.0
H909 H 0.90448 0.57968 0.80956 0.0
H910 H 0.84137 0.4508 0.81745 0.0
H911 H 0.85385 0.41116 0.84032 0.0
C912 C 0.21016 0.33937 0.26484 0.0
C913 C 0.21556 0.38259 0.27933 0.0
C914 C 0.23847 0.42159 0.22185 0.0
C915 C 0.22709 0.37636 0.20705 0.0
N916 N 0.1887 0.28946 0.2137 0.0
N917 N 0.22991 0.46378 0.27164 0.0
C918 C 0.20916 0.33446 0.22834 0.0
C919 C 0.22819 0.42348 0.2578 0.0
N920 N 0.20616 0.30288 0.28579 0.0
N921 N 0.26051 0.46271 0.20204 0.0
H922 H 0.22494 0.46703 0.29815 0.0
H923 H 0.23366 0.49269 0.25662 0.0
H924 H 0.26865 0.4625 0.17576 0.0
H925 H 0.27401 0.49732 0.21225 0.0
H926 H 0.2064 0.27238 0.27625 0.0
H927 H 0.20844 0.30555 0.31273 0.0
H928 H 0.17071 0.25755 0.22814 0.0
H929 H 0.1845 0.28385 0.18695 0.0
C930 C 0.82035 0.16894 0.71573 0.0
C931 C 0.8517 0.21694 0.70401 0.0
C932 C 0.85927 0.2461 0.76399 0.0
C933 C 0.82656 0.19806 0.77508 0.0
N934 N 0.76158 0.11904 0.75897 0.0
N935 N 0.88754 0.30247 0.71547 0.0
C936 C 0.80171 0.16159 0.74989 0.0
C937 C 0.86667 0.25607 0.72767 0.0
N938 N 0.81225 0.12991 0.69609 0.0
N939 N 0.88555 0.28147 0.78759 0.0
H940 H 0.89146 0.31058 0.68894 0.0
H941 H 0.89576 0.33199 0.73142 0.0
H942 H 0.88145 0.27599 0.81435 0.0
H943 H 0.91381 0.31549 0.78043 0.0
H944 H 0.79268 0.0944 0.70527 0.0
H945 H 0.8304 0.13286 0.6729 0.0
H946 H 0.74033 0.09287 0.74074 0.0
H947 H 0.74689 0.11254 0.78397 0.0
C948 C 0.63029 0.83412 0.22866 0.0
C949 C 0.66692 0.83875 0.2052 0.0
C950 C 0.71352 0.83366 0.25333 0.0
C951 C 0.67543 0.82512 0.27671 0.0
N952 N 0.59391 0.80913 0.28607 0.0
N953 N 0.73741 0.83056 0.19434 0.0
C954 C 0.63263 0.82304 0.26426 0.0
C955 C 0.70625 0.83396 0.2172 0.0
N956 N 0.5937 0.84086 0.21691 0.0
N957 N 0.75814 0.84516 0.2656 0.0
H958 H 0.73446 0.83126 0.16748 0.0
H959 H 0.76348 0.8219 0.20207 0.0
H960 H 0.76638 0.84859 0.29191 0.0
H961 H 0.78859 0.85711 0.24972 0.0
H962 H 0.56918 0.84377 0.23329 0.0
H963 H 0.58928 0.84578 0.19061 0.0
H964 H 0.56012 0.80241 0.2777 0.0
H965 H 0.59441 0.80057 0.31219 0.0
C966 C 0.8976 0.69193 0.71101 0.0
C967 C 0.85207 0.65444 0.69934 0.0
C968 C 0.83202 0.62286 0.75905 0.0
C969 C 0.87471 0.66402 0.77074 0.0
N970 N 0.93893 0.74532 0.75861 0.0
N971 N 0.77156 0.58994 0.71393 0.0
C972 C 0.90509 0.70063 0.74694 0.0
C973 C 0.81789 0.62137 0.72383 0.0
N974 N 0.93346 0.72047 0.6881 0.0
N975 N 0.80552 0.58508 0.78119 0.0
H976 H 0.75959 0.58854 0.68863 0.0
H977 H 0.74412 0.56848 0.73149 0.0
H978 H 0.81501 0.58512 0.80713 0.0
H979 H 0.77659 0.55224 0.77302 0.0
H980 H 0.96861 0.74502 0.69589 0.0
H981 H 0.92986 0.71651 0.66139 0.0
H982 H 0.9589 0.77479 0.74216 0.0
H983 H 0.94223 0.75468 0.78478 0.0
C984 C 0.16038 0.82965 0.2392 0.0
C985 C 0.18991 0.82201 0.21532 0.0
C986 C 0.24958 0.84051 0.26088 0.0
C987 C 0.21682 0.84149 0.28566 0.0
N988 N 0.13631 0.82772 0.2988 0.0
N989 N 0.25848 0.81107 0.2048 0.0
C990 C 0.17042 0.83226 0.27506 0.0
C991 C 0.23333 0.82461 0.22654 0.0
N992 N 0.12518 0.83862 0.22753 0.0
N993 N 0.29658 0.85641 0.26961 0.0
H994 H 0.24716 0.79857 0.1796 0.0
H995 H 0.28794 0.80796 0.21292 0.0
H996 H 0.31025 0.86954 0.29421 0.0
H997 H 0.32295 0.86084 0.25154 0.0
H998 H 0.10599 0.84936 0.24375 0.0
H999 H 0.11966 0.84178 0.20126 0.0
H1000 H 0.10052 0.81593 0.29204 0.0
H1001 H 0.14189 0.83133 0.32549 0.0
C1002 C 0.41551 0.18711 0.76928 0.0
C1003 C 0.41749 0.23086 0.77982 0.0
C1004 C 0.42318 0.25582 0.71882 0.0
C1005 C 0.42055 0.21189 0.70862 0.0
N1006 N 0.43449 0.14664 0.72391 0.0
N1007 N 0.44113 0.31359 0.76515 0.0
C1008 C 0.42416 0.1816 0.73392 0.0
C1009 C 0.42766 0.26763 0.75471 0.0
N1010 N 0.40096 0.14888 0.79167 0.0
N1011 N 0.41778 0.2845 0.69493 0.0
H1012 H 0.44525 0.32365 0.79126 0.0
H1013 H 0.453 0.34261 0.74789 0.0
H1014 H 0.41417 0.27725 0.66838 0.0
H1015 H 0.41354 0.3138 0.70182 0.0
H1016 H 0.39399 0.11481 0.78355 0.0
H1017 H 0.39073 0.14879 0.81738 0.0
H1018 H 0.4415 0.12609 0.74158 0.0
H1019 H 0.44147 0.14236 0.69804 0.0
C1020 C 0.33223 0.31791 0.96764 0.0
C1021 C 0.31467 0.26725 0.96825 0.0
C1022 C 0.25092 0.25681 0.00961 0.0
C1023 C 0.26758 0.3072 0.00766 0.0
N1024 N 0.31517 0.38303 0.97849 0.0
N1025 N 0.25458 0.18742 0.98716 0.0
C1026 C 0.30551 0.33683 0.98461 0.0
C1027 C 0.27292 0.23635 0.98833 0.0
N1028 N 0.37518 0.34828 0.95161 0.0
N1029 N 0.2154 0.22902 0.03298 0.0
H1030 H 0.27255 0.17188 0.97462 0.0
H1031 H 0.22117 0.16227 -0.00235 0.0
H1032 H 0.19678 0.24261 0.04705 0.0
H1033 H 0.20562 0.19353 0.03933 0.0
H1034 H 0.39242 0.3858 0.95385 0.0
H1035 H 0.39603 0.33605 0.93904 0.0
H1036 H 0.33953 0.40563 0.95961 0.0
H1037 H 0.2948 0.39676 0.99003 0.0
C1038 C 0.05891 0.25862 0.48363 0.0
C1039 C 0.07755 0.3065 0.47093 0.0
C1040 C 1.01722 0.31434 0.50603 0.0
C1041 C 0.995 0.26447 0.51535 0.0
N1042 N 0.98982 0.18697 0.50743 0.0
N1043 N 0.06859 0.37715 0.46524 0.0
C1044 C 1.01457 0.23603 0.50254 0.0
C1045 C 0.05526 0.33373 0.48089 0.0
N1046 N 0.08417 0.23497 0.47799 0.0
N1047 N 1.00386 0.34404 0.5222 0.0
H1048 H 0.09663 0.39327 0.44717 0.0
H1049 H 0.04933 0.39544 0.46823 0.0
H1050 H 0.97629 0.3319 0.54058 0.0
H1051 H 1.02294 0.38159 0.5195 0.0
H1052 H 0.075 0.2018 0.48939 0.0
H1053 H 0.11722 0.25099 0.46474 0.0
H1054 H 0.99988 0.16373 0.49587 0.0
H1055 H 0.95632 0.16894 0.52005 0.0
C1056 C 0.72769 1.02009 0.01556 0.0
C1057 C 0.74695 0.98843 0.01832 0.0
C1058 C 0.81144 0.039 0.97687 0.0
C1059 C 0.78988 0.06821 0.97194 0.0
N1060 N 0.72607 0.08552 0.98427 0.0
N1061 N 0.80388 0.96431 -0.00036 0.0
C1062 C 0.74784 0.05873 0.99093 0.0
C1063 C 0.78814 0.99714 -0.00149 0.0
N1064 N 0.69099 1.01404 0.03724 0.0
N1065 N 0.85441 0.05168 0.96066 0.0
H1066 H 0.78698 0.93301 0.01487 0.0
H1067 H 0.83092 0.96568 0.98362 0.0
H1068 H 0.87188 0.08203 0.94458 0.0
H1069 H 0.87468 0.03482 0.96508 0.0
H1070 H 0.67931 0.03912 0.03979 0.0
H1071 H 0.67352 0.98472 0.05412 0.0
H1072 H 0.69185 0.07663 -0.00655 0.0
H1073 H 0.74165 0.11594 0.96813 0.0
C1074 C 0.74826 0.72089 0.50554 0.0
C1075 C 0.79877 0.74477 0.51168 0.0
C1076 C 0.80875 0.81655 0.4806 0.0
C1077 C 0.75834 0.792 0.47359 0.0
N1078 N 0.67901 0.72955 0.49209 0.0
N1079 N 0.87838 0.81237 0.50166 0.0
C1080 C 0.72759 0.74661 0.4896 0.0
C1081 C 0.82936 0.79202 0.49838 0.0
N1082 N 0.71995 0.67321 0.51427 0.0
N1083 N 0.83617 0.86433 0.4716 0.0
H1084 H 0.89423 0.79434 0.51367 0.0
H1085 H 0.90351 0.84488 0.49008 0.0
H1086 H 0.821 0.88367 0.46064 0.0
H1087 H 0.87247 0.88607 0.47786 0.0
H1088 H 0.68397 0.65242 0.50671 0.0
H1089 H 0.73351 0.65299 0.52598 0.0
H1090 H 0.65559 0.69892 0.50648 0.0
H1091 H 0.6628 0.7492 0.484 0.0
C1092 C 0.05269 0.75039 0.95818 0.0
C1093 C 1.00227 0.73142 0.96409 0.0
C1094 C 1.01786 0.73335 0.02604 0.0
C1095 C 0.06829 0.76428 0.02017 0.0
N1096 N 0.13317 0.80629 0.97845 0.0
N1097 N 0.93774 0.71032 0.00588 0.0
C1098 C 0.08581 0.77396 0.98558 0.0
C1099 C 0.98486 0.72425 -0.00131 0.0
N1100 N 0.06866 0.74294 0.92716 0.0
N1101 N 1.00173 0.70978 0.05697 0.0
H1102 H 0.9126 0.70504 0.98673 0.0
H1103 H 0.92519 0.70873 0.03123 0.0
H1104 H 1.02583 0.71007 0.07525 0.0
H1105 H 0.96548 0.68451 0.06177 0.0
H1106 H 0.1048 0.75347 0.92234 0.0
H1107 H 0.04454 0.7197 0.90866 0.0
H1108 H 0.14598 0.81709 0.95314 0.0
H1109 H 0.15843 0.82556 -0.00233 0.0
C1110 C 0.33357 1.00516 0.4843 0.0
C1111 C 0.28372 0.98333 0.47594 0.0
C1112 C 0.27709 0.04531 0.50974 0.0
C1113 C 0.32607 0.06538 0.51974 0.0
N1114 N 0.40095 0.06422 0.51866 0.0
N1115 N 0.20609 0.97715 0.48457 0.0
C1116 C 0.35431 0.04523 0.50749 0.0
C1117 C 0.25499 1.00205 0.48973 0.0
N1118 N 0.36152 0.98882 0.469 0.0
N1119 N 0.25177 0.06767 0.51947 0.0
H1120 H 0.18895 0.94472 0.47079 0.0
H1121 H 0.18198 0.98584 0.49636 0.0
H1122 H 0.26682 0.09909 0.5344 0.0
H1123 H 0.21733 0.05769 0.51051 0.0
H1124 H 0.39905 1.00654 0.47052 0.0
H1125 H 0.34741 0.95822 0.45329 0.0
H1126 H 0.42184 0.04787 0.51481 0.0
H1127 H 0.41847 0.09607 0.53312 0.0
loop_
_geom_bond_atom_site_label_1
_geom_bond_atom_site_label_2
_geom_bond_distance
_geom_bond_site_symmetry_2
_ccdc_geom_bond_type
Dy0 O3 2.307 . S
Dy0 O5 2.395 . S
Dy0 O6 2.379 . S
Dy0 O8 2.339 . S
Dy0 O10 2.298 . S
Dy0 O14 2.275 . S
Dy0 C22 2.738 . S
Dy1 O4 2.298 . S
Dy1 O7 2.275 . S
Dy1 O9 2.307 . S
Dy1 O11 2.395 . S
Dy1 O12 2.379 . S
Dy1 O15 2.339 . S
Dy1 C31 2.738 . S
C2 O14 1.254 . S
C2 O15 1.257 . S
O3 Dy0 2.307 . S
O3 C13 1.266 . S
O4 Dy1 2.298 . S
O4 C13 1.236 . S
O5 Dy0 2.395 . S
O5 C22 1.255 . S
O6 Dy0 2.379 . S
O6 C22 1.249 . S
O7 Dy1 2.275 . S
O7 C23 1.254 . S
O8 Dy0 2.339 . S
O8 C23 1.257 . S
O9 Dy1 2.307 . S
O9 C24 1.266 . S
O10 Dy0 2.298 . S
O10 C24 1.236 . S
O11 Dy1 2.395 . S
O11 C31 1.255 . S
O12 Dy1 2.379 . S
O12 C31 1.249 . S
C13 O3 1.266 . S
C13 O4 1.236 . S
O14 Dy0 2.275 . S
O14 C2 1.254 . S
O15 Dy1 2.339 . S
O15 C2 1.257 . S
C16 C19 1.344 . S
C16 C20 1.328 . S
C16 C22 1.516 . S
C17 C18 1.304 . S
C17 C21 1.323 . S
C18 C17 1.304 . S
C18 C19 1.371 . S
C18 H32 0.930 . S
C19 C16 1.344 . S
C19 C18 1.371 . S
C19 H33 0.931 . S
C20 C16 1.328 . S
C20 C21 1.433 . S
C20 H34 0.931 . S
C21 C17 1.323 . S
C21 C20 1.433 . S
C21 H35 0.933 . S
C22 Dy0 2.738 . S
C22 O5 1.255 . S
C22 O6 1.249 . S
C22 C16 1.516 . S
C23 O7 1.254 . S
C23 O8 1.257 . S
C24 O9 1.266 . S
C24 O10 1.236 . S
C25 C28 1.344 . S
C25 C29 1.328 . S
C25 C31 1.516 . S
C26 C27 1.304 . S
C26 C30 1.323 . S
C27 C26 1.304 . S
C27 C28 1.371 . S
C27 H36 0.930 . S
C28 C25 1.344 . S
C28 C27 1.371 . S
C28 H37 0.931 . S
C29 C25 1.328 . S
C29 C30 1.433 . S
C29 H38 0.931 . S
C30 C26 1.323 . S
C30 C29 1.433 . S
C30 H39 0.933 . S
C31 Dy1 2.738 . S
C31 O11 1.255 . S
C31 O12 1.249 . S
C31 C25 1.516 . S
H32 C18 0.930 . S
H33 C19 0.931 . S
H34 C20 0.931 . S
H35 C21 0.933 . S
H36 C27 0.930 . S
H37 C28 0.931 . S
H38 C29 0.931 . S
H39 C30 0.933 . S
Dy40 O43 2.307 . S
Dy40 O45 2.395 . S
Dy40 O46 2.379 . S
Dy40 O48 2.339 . S
Dy40 O50 2.298 . S
Dy40 O54 2.275 . S
Dy40 C62 2.738 . S
Dy41 O44 2.298 . S
Dy41 O47 2.275 . S
Dy41 O49 2.307 . S
Dy41 O51 2.395 . S
Dy41 O52 2.379 . S
Dy41 O55 2.339 . S
Dy41 C71 2.738 . S
C42 O54 1.254 . S
C42 O55 1.257 . S
O43 Dy40 2.307 . S
O43 C53 1.266 . S
O44 Dy41 2.298 . S
O44 C53 1.236 . S
O45 Dy40 2.395 . S
O45 C62 1.255 . S
O46 Dy40 2.379 . S
O46 C62 1.249 . S
O47 Dy41 2.275 . S
O47 C63 1.254 . S
O48 Dy40 2.339 . S
O48 C63 1.257 . S
O49 Dy41 2.307 . S
O49 C64 1.266 . S
O50 Dy40 2.298 . S
O50 C64 1.236 . S
O51 Dy41 2.395 . S
O51 C71 1.255 . S
O52 Dy41 2.379 . S
O52 C71 1.249 . S
C53 O43 1.266 . S
C53 O44 1.236 . S
O54 Dy40 2.275 . S
O54 C42 1.254 . S
O55 Dy41 2.339 . S
O55 C42 1.257 . S
C56 C59 1.344 . S
C56 C60 1.328 . S
C56 C62 1.516 1_455 S
C57 C58 1.304 . S
C57 C61 1.323 . S
C58 C57 1.304 . S
C58 C59 1.371 . S
C58 H72 0.930 . S
C59 C56 1.344 . S
C59 C58 1.371 . S
C59 H73 0.931 . S
C60 C56 1.328 . S
C60 C61 1.433 . S
C60 H74 0.931 . S
C61 C57 1.323 . S
C61 C60 1.433 . S
C61 H75 0.933 . S
C62 Dy40 2.738 . S
C62 O45 1.255 . S
C62 O46 1.249 . S
C62 C56 1.516 1_655 S
C63 O47 1.254 . S
C63 O48 1.257 . S
C64 O49 1.266 . S
C64 O50 1.236 . S
C65 C68 1.344 . S
C65 C69 1.328 . S
C65 C71 1.516 . S
C66 C67 1.304 . S
C66 C70 1.323 . S
C67 C66 1.304 . S
C67 C68 1.371 . S
C67 H76 0.930 . S
C68 C65 1.344 . S
C68 C67 1.371 . S
C68 H77 0.931 . S
C69 C65 1.328 . S
C69 C70 1.433 . S
C69 H78 0.931 . S
C70 C66 1.323 . S
C70 C69 1.433 . S
C70 H79 0.933 . S
C71 Dy41 2.738 . S
C71 O51 1.255 . S
C71 O52 1.249 . S
C71 C65 1.516 . S
H72 C58 0.930 . S
H73 C59 0.931 . S
H74 C60 0.931 . S
H75 C61 0.933 . S
H76 C67 0.930 . S
H77 C68 0.931 . S
H78 C69 0.931 . S
H79 C70 0.933 . S
Dy80 O83 2.307 . S
Dy80 O85 2.395 . S
Dy80 O86 2.379 . S
Dy80 O88 2.339 . S
Dy80 O90 2.298 . S
Dy80 O94 2.275 . S
Dy80 C102 2.738 . S
Dy81 O84 2.298 . S
Dy81 O87 2.275 . S
Dy81 O89 2.307 . S
Dy81 O91 2.395 . S
Dy81 O92 2.379 . S
Dy81 O95 2.339 . S
Dy81 C111 2.738 . S
C82 O94 1.254 . S
C82 O95 1.257 . S
O83 Dy80 2.307 . S
O83 C93 1.266 . S
O84 Dy81 2.298 . S
O84 C93 1.236 . S
O85 Dy80 2.395 . S
O85 C102 1.255 . S
O86 Dy80 2.379 . S
O86 C102 1.249 . S
O87 Dy81 2.275 . S
O87 C103 1.254 . S
O88 Dy80 2.339 . S
O88 C103 1.257 . S
O89 Dy81 2.307 . S
O89 C104 1.266 . S
O90 Dy80 2.298 . S
O90 C104 1.236 . S
O91 Dy81 2.395 . S
O91 C111 1.255 . S
O92 Dy81 2.379 . S
O92 C111 1.249 . S
C93 O83 1.266 . S
C93 O84 1.236 . S
O94 Dy80 2.275 . S
O94 C82 1.254 . S
O95 Dy81 2.339 . S
O95 C82 1.257 . S
C96 C99 1.344 . S
C96 C100 1.328 . S
C96 C102 1.516 1_545 S
C97 C98 1.304 . S
C97 C101 1.323 . S
C98 C97 1.304 . S
C98 C99 1.371 . S
C98 H112 0.930 . S
C99 C96 1.344 . S
C99 C98 1.371 . S
C99 H113 0.931 . S
C100 C96 1.328 . S
C100 C101 1.433 . S
C100 H114 0.931 . S
C101 C97 1.323 . S
C101 C100 1.433 . S
C101 H115 0.933 . S
C102 Dy80 2.738 . S
C102 O85 1.255 . S
C102 O86 1.249 . S
C102 C96 1.516 1_565 S
C103 O87 1.254 . S
C103 O88 1.257 . S
C104 O89 1.266 . S
C104 O90 1.236 . S
C105 C108 1.344 . S
C105 C109 1.328 . S
C105 C111 1.516 . S
C106 C107 1.304 . S
C106 C110 1.323 . S
C107 C106 1.304 . S
C107 C108 1.371 . S
C107 H116 0.930 . S
C108 C105 1.344 . S
C108 C107 1.371 . S
C108 H117 0.931 . S
C109 C105 1.328 . S
C109 C110 1.433 . S
C109 H118 0.931 . S
C110 C106 1.323 . S
C110 C109 1.433 . S
C110 H119 0.933 . S
C111 Dy81 2.738 . S
C111 O91 1.255 . S
C111 O92 1.249 . S
C111 C105 1.516 . S
H112 C98 0.930 . S
H113 C99 0.931 . S
H114 C100 0.931 . S
H115 C101 0.933 . S
H116 C107 0.930 . S
H117 C108 0.931 . S
H118 C109 0.931 . S
H119 C110 0.933 . S
Dy120 O123 2.307 . S
Dy120 O125 2.395 . S
Dy120 O126 2.379 . S
Dy120 O128 2.339 . S
Dy120 O130 2.298 . S
Dy120 O134 2.275 . S
Dy120 C142 2.738 . S
Dy121 O124 2.298 . S
Dy121 O127 2.275 . S
Dy121 O129 2.307 . S
Dy121 O131 2.395 . S
Dy121 O132 2.379 . S
Dy121 O135 2.339 . S
Dy121 C151 2.738 . S
C122 O134 1.254 . S
C122 O135 1.257 . S
O123 Dy120 2.307 . S
O123 C133 1.266 . S
O124 Dy121 2.298 . S
O124 C133 1.236 . S
O125 Dy120 2.395 . S
O125 C142 1.255 . S
O126 Dy120 2.379 . S
O126 C142 1.249 . S
O127 Dy121 2.275 . S
O127 C143 1.254 . S
O128 Dy120 2.339 . S
O128 C143 1.257 . S
O129 Dy121 2.307 . S
O129 C144 1.266 . S
O130 Dy120 2.298 . S
O130 C144 1.236 . S
O131 Dy121 2.395 . S
O131 C151 1.255 . S
O132 Dy121 2.379 . S
O132 C151 1.249 . S
C133 O123 1.266 . S
C133 O124 1.236 . S
O134 Dy120 2.275 . S
O134 C122 1.254 . S
O135 Dy121 2.339 . S
O135 C122 1.257 . S
C136 C139 1.344 . S
C136 C140 1.328 . S
C136 C142 1.516 . S
C137 C138 1.304 . S
C137 C141 1.323 . S
C138 C137 1.304 . S
C138 C139 1.371 . S
C138 H152 0.930 . S
C139 C136 1.344 . S
C139 C138 1.371 . S
C139 H153 0.931 . S
C140 C136 1.328 . S
C140 C141 1.433 . S
C140 H154 0.931 . S
C141 C137 1.323 . S
C141 C140 1.433 . S
C141 H155 0.933 . S
C142 Dy120 2.738 . S
C142 O125 1.255 . S
C142 O126 1.249 . S
C142 C136 1.516 . S
C143 O127 1.254 . S
C143 O128 1.257 . S
C144 O129 1.266 . S
C144 O130 1.236 . S
C145 C148 1.344 . S
C145 C149 1.328 . S
C145 C151 1.516 . S
C146 C147 1.304 . S
C146 C150 1.323 . S
C147 C146 1.304 . S
C147 C148 1.371 . S
C147 H156 0.930 . S
C148 C145 1.344 . S
C148 C147 1.371 . S
C148 H157 0.931 . S
C149 C145 1.328 . S
C149 C150 1.433 . S
C149 H158 0.931 . S
C150 C146 1.323 . S
C150 C149 1.433 . S
C150 H159 0.933 . S
C151 Dy121 2.738 . S
C151 O131 1.255 . S
C151 O132 1.249 . S
C151 C145 1.516 . S
H152 C138 0.930 . S
H153 C139 0.931 . S
H154 C140 0.931 . S
H155 C141 0.933 . S
H156 C147 0.930 . S
H157 C148 0.931 . S
H158 C149 0.931 . S
H159 C150 0.933 . S
Dy160 O163 2.307 . S
Dy160 O165 2.395 . S
Dy160 O166 2.379 . S
Dy160 O168 2.339 . S
Dy160 O170 2.298 . S
Dy160 O174 2.275 . S
Dy160 C182 2.738 . S
Dy161 O164 2.298 . S
Dy161 O167 2.275 . S
Dy161 O169 2.307 . S
Dy161 O171 2.395 . S
Dy161 O172 2.379 . S
Dy161 O175 2.339 . S
Dy161 C191 2.738 . S
C162 O174 1.254 . S
C162 O175 1.257 . S
O163 Dy160 2.307 . S
O163 C173 1.266 . S
O164 Dy161 2.298 . S
O164 C173 1.236 . S
O165 Dy160 2.395 . S
O165 C182 1.255 . S
O166 Dy160 2.379 . S
O166 C182 1.249 . S
O167 Dy161 2.275 . S
O167 C183 1.254 . S
O168 Dy160 2.339 . S
O168 C183 1.257 . S
O169 Dy161 2.307 . S
O169 C184 1.266 . S
O170 Dy160 2.298 . S
O170 C184 1.236 . S
O171 Dy161 2.395 . S
O171 C191 1.255 . S
O172 Dy161 2.379 . S
O172 C191 1.249 . S
C173 O163 1.266 . S
C173 O164 1.236 . S
O174 Dy160 2.275 . S
O174 C162 1.254 . S
O175 Dy161 2.339 . S
O175 C162 1.257 . S
C176 C179 1.344 . S
C176 C180 1.328 . S
C176 C182 1.516 1_655 S
C177 C178 1.304 . S
C177 C181 1.323 . S
C178 C177 1.304 . S
C178 C179 1.371 . S
C178 H192 0.930 . S
C179 C176 1.344 . S
C179 C178 1.371 . S
C179 H193 0.931 . S
C180 C176 1.328 . S
C180 C181 1.433 . S
C180 H194 0.931 . S
C181 C177 1.323 . S
C181 C180 1.433 . S
C181 H195 0.933 . S
C182 Dy160 2.738 . S
C182 O165 1.255 . S
C182 O166 1.249 . S
C182 C176 1.516 1_455 S
C183 O167 1.254 . S
C183 O168 1.257 . S
C184 O169 1.266 . S
C184 O170 1.236 . S
C185 C188 1.344 . S
C185 C189 1.328 . S
C185 C191 1.516 . S
C186 C187 1.304 . S
C186 C190 1.323 . S
C187 C186 1.304 . S
C187 C188 1.371 . S
C187 H196 0.930 . S
C188 C185 1.344 . S
C188 C187 1.371 . S
C188 H197 0.931 . S
C189 C185 1.328 . S
C189 C190 1.433 . S
C189 H198 0.931 . S
C190 C186 1.323 . S
C190 C189 1.433 . S
C190 H199 0.933 . S
C191 Dy161 2.738 . S
C191 O171 1.255 . S
C191 O172 1.249 . S
C191 C185 1.516 . S
H192 C178 0.930 . S
H193 C179 0.931 . S
H194 C180 0.931 . S
H195 C181 0.933 . S
H196 C187 0.930 . S
H197 C188 0.931 . S
H198 C189 0.931 . S
H199 C190 0.933 . S
Dy200 O203 2.307 . S
Dy200 O205 2.395 . S
Dy200 O206 2.379 . S
Dy200 O208 2.339 . S
Dy200 O210 2.298 . S
Dy200 O214 2.275 . S
Dy200 C222 2.738 . S
Dy201 O204 2.298 . S
Dy201 O207 2.275 . S
Dy201 O209 2.307 . S
Dy201 O211 2.395 . S
Dy201 O212 2.379 . S
Dy201 O215 2.339 . S
Dy201 C231 2.738 . S
C202 O214 1.254 . S
C202 O215 1.257 . S
O203 Dy200 2.307 . S
O203 C213 1.266 . S
O204 Dy201 2.298 . S
O204 C213 1.236 . S
O205 Dy200 2.395 . S
O205 C222 1.255 . S
O206 Dy200 2.379 . S
O206 C222 1.249 . S
O207 Dy201 2.275 . S
O207 C223 1.254 . S
O208 Dy200 2.339 . S
O208 C223 1.257 . S
O209 Dy201 2.307 . S
O209 C224 1.266 . S
O210 Dy200 2.298 . S
O210 C224 1.236 . S
O211 Dy201 2.395 . S
O211 C231 1.255 . S
O212 Dy201 2.379 . S
O212 C231 1.249 . S
C213 O203 1.266 . S
C213 O204 1.236 . S
O214 Dy200 2.275 . S
O214 C202 1.254 . S
O215 Dy201 2.339 . S
O215 C202 1.257 . S
C216 C219 1.344 . S
C216 C220 1.328 . S
C216 C222 1.516 1_565 S
C217 C218 1.304 . S
C217 C221 1.323 . S
C218 C217 1.304 . S
C218 C219 1.371 . S
C218 H232 0.930 . S
C219 C216 1.344 . S
C219 C218 1.371 . S
C219 H233 0.931 . S
C220 C216 1.328 . S
C220 C221 1.433 . S
C220 H234 0.931 . S
C221 C217 1.323 . S
C221 C220 1.433 . S
C221 H235 0.933 . S
C222 Dy200 2.738 . S
C222 O205 1.255 . S
C222 O206 1.249 . S
C222 C216 1.516 1_545 S
C223 O207 1.254 . S
C223 O208 1.257 . S
C224 O209 1.266 . S
C224 O210 1.236 . S
C225 C228 1.344 . S
C225 C229 1.328 . S
C225 C231 1.516 . S
C226 C227 1.304 . S
C226 C230 1.323 . S
C227 C226 1.304 . S
C227 C228 1.371 . S
C227 H236 0.930 . S
C228 C225 1.344 . S
C228 C227 1.371 . S
C228 H237 0.931 . S
C229 C225 1.328 . S
C229 C230 1.433 . S
C229 H238 0.931 . S
C230 C226 1.323 . S
C230 C229 1.433 . S
C230 H239 0.933 . S
C231 Dy201 2.738 . S
C231 O211 1.255 . S
C231 O212 1.249 . S
C231 C225 1.516 . S
H232 C218 0.930 . S
H233 C219 0.931 . S
H234 C220 0.931 . S
H235 C221 0.933 . S
H236 C227 0.930 . S
H237 C228 0.931 . S
H238 C229 0.931 . S
H239 C230 0.933 . S
Dy240 O243 2.307 . S
Dy240 O245 2.395 . S
Dy240 O246 2.379 . S
Dy240 O248 2.339 . S
Dy240 O250 2.298 . S
Dy240 O254 2.275 . S
Dy240 C262 2.738 . S
Dy241 O244 2.298 . S
Dy241 O247 2.275 . S
Dy241 O249 2.307 . S
Dy241 O251 2.395 . S
Dy241 O252 2.379 . S
Dy241 O255 2.339 . S
Dy241 C271 2.738 . S
C242 O254 1.254 . S
C242 O255 1.257 . S
O243 Dy240 2.307 . S
O243 C253 1.266 . S
O244 Dy241 2.298 . S
O244 C253 1.236 . S
O245 Dy240 2.395 . S
O245 C262 1.255 . S
O246 Dy240 2.379 . S
O246 C262 1.249 . S
O247 Dy241 2.275 . S
O247 C263 1.254 . S
O248 Dy240 2.339 . S
O248 C263 1.257 . S
O249 Dy241 2.307 . S
O249 C264 1.266 . S
O250 Dy240 2.298 . S
O250 C264 1.236 . S
O251 Dy241 2.395 . S
O251 C271 1.255 . S
O252 Dy241 2.379 . S
O252 C271 1.249 . S
C253 O243 1.266 . S
C253 O244 1.236 . S
O254 Dy240 2.275 . S
O254 C242 1.254 . S
O255 Dy241 2.339 . S
O255 C242 1.257 . S
C256 C259 1.344 . S
C256 C260 1.328 . S
C256 C262 1.516 . S
C257 C258 1.304 . S
C257 C261 1.323 . S
C258 C257 1.304 . S
C258 C259 1.371 . S
C258 H272 0.930 . S
C259 C256 1.344 . S
C259 C258 1.371 . S
C259 H273 0.931 . S
C260 C256 1.328 . S
C260 C261 1.433 . S
C260 H274 0.931 . S
C261 C257 1.323 . S
C261 C260 1.433 . S
C261 H275 0.933 . S
C262 Dy240 2.738 . S
C262 O245 1.255 . S
C262 O246 1.249 . S
C262 C256 1.516 . S
C263 O247 1.254 . S
C263 O248 1.257 . S
C264 O249 1.266 . S
C264 O250 1.236 . S
C265 C268 1.344 . S
C265 C269 1.328 . S
C265 C271 1.516 . S
C266 C267 1.304 . S
C266 C270 1.323 . S
C267 C266 1.304 . S
C267 C268 1.371 . S
C267 H276 0.930 . S
C268 C265 1.344 . S
C268 C267 1.371 . S
C268 H277 0.931 . S
C269 C265 1.328 . S
C269 C270 1.433 . S
C269 H278 0.931 . S
C270 C266 1.323 . S
C270 C269 1.433 . S
C270 H279 0.933 . S
C271 Dy241 2.738 . S
C271 O251 1.255 . S
C271 O252 1.249 . S
C271 C265 1.516 . S
H272 C258 0.930 . S
H273 C259 0.931 . S
H274 C260 0.931 . S
H275 C261 0.933 . S
H276 C267 0.930 . S
H277 C268 0.931 . S
H278 C269 0.931 . S
H279 C270 0.933 . S
Dy280 O283 2.307 . S
Dy280 O285 2.395 . S
Dy280 O286 2.379 . S
Dy280 O288 2.339 . S
Dy280 O290 2.298 . S
Dy280 O294 2.275 . S
Dy280 C302 2.738 . S
Dy281 O284 2.298 . S
Dy281 O287 2.275 . S
Dy281 O289 2.307 . S
Dy281 O291 2.395 . S
Dy281 O292 2.379 . S
Dy281 O295 2.339 . S
Dy281 C311 2.738 . S
C282 O294 1.254 . S
C282 O295 1.257 . S
O283 Dy280 2.307 . S
O283 C293 1.266 . S
O284 Dy281 2.298 . S
O284 C293 1.236 . S
O285 Dy280 2.395 . S
O285 C302 1.255 . S
O286 Dy280 2.379 . S
O286 C302 1.249 . S
O287 Dy281 2.275 . S
O287 C303 1.254 . S
O288 Dy280 2.339 . S
O288 C303 1.257 . S
O289 Dy281 2.307 . S
O289 C304 1.266 . S
O290 Dy280 2.298 . S
O290 C304 1.236 . S
O291 Dy281 2.395 . S
O291 C311 1.255 . S
O292 Dy281 2.379 . S
O292 C311 1.249 . S
C293 O283 1.266 . S
C293 O284 1.236 . S
O294 Dy280 2.275 . S
O294 C282 1.254 . S
O295 Dy281 2.339 . S
O295 C282 1.257 . S
C296 C299 1.344 . S
C296 C300 1.328 . S
C296 C302 1.516 1_455 S
C297 C298 1.304 . S
C297 C301 1.323 . S
C298 C297 1.304 . S
C298 C299 1.371 . S
C298 H312 0.930 . S
C299 C296 1.344 . S
C299 C298 1.371 . S
C299 H313 0.931 . S
C300 C296 1.328 . S
C300 C301 1.433 . S
C300 H314 0.931 . S
C301 C297 1.323 . S
C301 C300 1.433 . S
C301 H315 0.933 . S
C302 Dy280 2.738 . S
C302 O285 1.255 . S
C302 O286 1.249 . S
C302 C296 1.516 1_655 S
C303 O287 1.254 . S
C303 O288 1.257 . S
C304 O289 1.266 . S
C304 O290 1.236 . S
C305 C308 1.344 . S
C305 C309 1.328 . S
C305 C311 1.516 . S
C306 C307 1.304 . S
C306 C310 1.323 . S
C307 C306 1.304 . S
C307 C308 1.371 . S
C307 H316 0.930 . S
C308 C305 1.344 . S
C308 C307 1.371 . S
C308 H317 0.931 . S
C309 C305 1.328 . S
C309 C310 1.433 . S
C309 H318 0.931 . S
C310 C306 1.323 . S
C310 C309 1.433 . S
C310 H319 0.933 . S
C311 Dy281 2.738 . S
C311 O291 1.255 . S
C311 O292 1.249 . S
C311 C305 1.516 . S
H312 C298 0.930 . S
H313 C299 0.931 . S
H314 C300 0.931 . S
H315 C301 0.933 . S
H316 C307 0.930 . S
H317 C308 0.931 . S
H318 C309 0.931 . S
H319 C310 0.933 . S
Dy320 O323 2.307 . S
Dy320 O325 2.395 . S
Dy320 O326 2.379 . S
Dy320 O328 2.339 . S
Dy320 O330 2.298 . S
Dy320 O334 2.275 . S
Dy320 C342 2.738 . S
Dy321 O324 2.298 . S
Dy321 O327 2.275 . S
Dy321 O329 2.307 . S
Dy321 O331 2.395 . S
Dy321 O332 2.379 . S
Dy321 O335 2.339 . S
Dy321 C351 2.738 . S
C322 O334 1.254 . S
C322 O335 1.257 . S
O323 Dy320 2.307 . S
O323 C333 1.266 . S
O324 Dy321 2.298 . S
O324 C333 1.236 . S
O325 Dy320 2.395 . S
O325 C342 1.255 . S
O326 Dy320 2.379 . S
O326 C342 1.249 . S
O327 Dy321 2.275 . S
O327 C343 1.254 . S
O328 Dy320 2.339 . S
O328 C343 1.257 . S
O329 Dy321 2.307 . S
O329 C344 1.266 . S
O330 Dy320 2.298 . S
O330 C344 1.236 . S
O331 Dy321 2.395 . S
O331 C351 1.255 . S
O332 Dy321 2.379 . S
O332 C351 1.249 . S
C333 O323 1.266 . S
C333 O324 1.236 . S
O334 Dy320 2.275 . S
O334 C322 1.254 . S
O335 Dy321 2.339 . S
O335 C322 1.257 . S
C336 C339 1.344 . S
C336 C340 1.328 . S
C336 C342 1.516 1_545 S
C337 C338 1.304 . S
C337 C341 1.323 . S
C338 C337 1.304 . S
C338 C339 1.371 . S
C338 H352 0.930 . S
C339 C336 1.344 . S
C339 C338 1.371 . S
C339 H353 0.931 . S
C340 C336 1.328 . S
C340 C341 1.433 . S
C340 H354 0.931 . S
C341 C337 1.323 . S
C341 C340 1.433 . S
C341 H355 0.933 . S
C342 Dy320 2.738 . S
C342 O325 1.255 . S
C342 O326 1.249 . S
C342 C336 1.516 1_565 S
C343 O327 1.254 . S
C343 O328 1.257 . S
C344 O329 1.266 . S
C344 O330 1.236 . S
C345 C348 1.344 . S
C345 C349 1.328 . S
C345 C351 1.516 . S
C346 C347 1.304 . S
C346 C350 1.323 . S
C347 C346 1.304 . S
C347 C348 1.371 . S
C347 H356 0.930 . S
C348 C345 1.344 . S
C348 C347 1.371 . S
C348 H357 0.931 . S
C349 C345 1.328 . S
C349 C350 1.433 . S
C349 H358 0.931 . S
C350 C346 1.323 . S
C350 C349 1.433 . S
C350 H359 0.933 . S
C351 Dy321 2.738 . S
C351 O331 1.255 . S
C351 O332 1.249 . S
C351 C345 1.516 . S
H352 C338 0.930 . S
H353 C339 0.931 . S
H354 C340 0.931 . S
H355 C341 0.933 . S
H356 C347 0.930 . S
H357 C348 0.931 . S
H358 C349 0.931 . S
H359 C350 0.933 . S
Dy360 O363 2.307 . S
Dy360 O365 2.395 . S
Dy360 O366 2.379 . S
Dy360 O368 2.339 . S
Dy360 O370 2.298 . S
Dy360 O374 2.275 . S
Dy360 C382 2.738 . S
Dy361 O364 2.298 . S
Dy361 O367 2.275 . S
Dy361 O369 2.307 . S
Dy361 O371 2.395 . S
Dy361 O372 2.379 . S
Dy361 O375 2.339 . S
Dy361 C391 2.738 . S
C362 O374 1.254 . S
C362 O375 1.257 . S
O363 Dy360 2.307 . S
O363 C373 1.266 . S
O364 Dy361 2.298 . S
O364 C373 1.236 . S
O365 Dy360 2.395 . S
O365 C382 1.255 . S
O366 Dy360 2.379 . S
O366 C382 1.249 . S
O367 Dy361 2.275 . S
O367 C383 1.254 . S
O368 Dy360 2.339 . S
O368 C383 1.257 . S
O369 Dy361 2.307 . S
O369 C384 1.266 . S
O370 Dy360 2.298 . S
O370 C384 1.236 . S
O371 Dy361 2.395 . S
O371 C391 1.255 . S
O372 Dy361 2.379 . S
O372 C391 1.249 . S
C373 O363 1.266 . S
C373 O364 1.236 . S
O374 Dy360 2.275 . S
O374 C362 1.254 . S
O375 Dy361 2.339 . S
O375 C362 1.257 . S
C376 C379 1.344 . S
C376 C380 1.328 . S
C376 C382 1.516 . S
C377 C378 1.304 . S
C377 C381 1.323 . S
C378 C377 1.304 . S
C378 C379 1.371 . S
C378 H392 0.930 . S
C379 C376 1.344 . S
C379 C378 1.371 . S
C379 H393 0.931 . S
C380 C376 1.328 . S
C380 C381 1.433 . S
C380 H394 0.931 . S
C381 C377 1.323 . S
C381 C380 1.433 . S
C381 H395 0.933 . S
C382 Dy360 2.738 . S
C382 O365 1.255 . S
C382 O366 1.249 . S
C382 C376 1.516 . S
C383 O367 1.254 . S
C383 O368 1.257 . S
C384 O369 1.266 . S
C384 O370 1.236 . S
C385 C388 1.344 . S
C385 C389 1.328 . S
C385 C391 1.516 . S
C386 C387 1.304 . S
C386 C390 1.323 . S
C387 C386 1.304 . S
C387 C388 1.371 . S
C387 H396 0.930 . S
C388 C385 1.344 . S
C388 C387 1.371 . S
C388 H397 0.931 . S
C389 C385 1.328 . S
C389 C390 1.433 . S
C389 H398 0.931 . S
C390 C386 1.323 . S
C390 C389 1.433 . S
C390 H399 0.933 . S
C391 Dy361 2.738 . S
C391 O371 1.255 . S
C391 O372 1.249 . S
C391 C385 1.516 . S
H392 C378 0.930 . S
H393 C379 0.931 . S
H394 C380 0.931 . S
H395 C381 0.933 . S
H396 C387 0.930 . S
H397 C388 0.931 . S
H398 C389 0.931 . S
H399 C390 0.933 . S
Dy400 O403 2.307 . S
Dy400 O405 2.395 . S
Dy400 O406 2.379 . S
Dy400 O408 2.339 . S
Dy400 O410 2.298 . S
Dy400 O414 2.275 . S
Dy400 C422 2.738 . S
Dy401 O404 2.298 . S
Dy401 O407 2.275 . S
Dy401 O409 2.307 . S
Dy401 O411 2.395 . S
Dy401 O412 2.379 . S
Dy401 O415 2.339 . S
Dy401 C431 2.738 . S
C402 O414 1.254 . S
C402 O415 1.257 . S
O403 Dy400 2.307 . S
O403 C413 1.266 . S
O404 Dy401 2.298 . S
O404 C413 1.236 . S
O405 Dy400 2.395 . S
O405 C422 1.255 . S
O406 Dy400 2.379 . S
O406 C422 1.249 . S
O407 Dy401 2.275 . S
O407 C423 1.254 . S
O408 Dy400 2.339 . S
O408 C423 1.257 . S
O409 Dy401 2.307 . S
O409 C424 1.266 . S
O410 Dy400 2.298 . S
O410 C424 1.236 . S
O411 Dy401 2.395 . S
O411 C431 1.255 . S
O412 Dy401 2.379 . S
O412 C431 1.249 . S
C413 O403 1.266 . S
C413 O404 1.236 . S
O414 Dy400 2.275 . S
O414 C402 1.254 . S
O415 Dy401 2.339 . S
O415 C402 1.257 . S
C416 C419 1.344 . S
C416 C420 1.328 . S
C416 C422 1.516 1_655 S
C417 C418 1.304 . S
C417 C421 1.323 . S
C418 C417 1.304 . S
C418 C419 1.371 . S
C418 H432 0.930 . S
C419 C416 1.344 . S
C419 C418 1.371 . S
C419 H433 0.931 . S
C420 C416 1.328 . S
C420 C421 1.433 . S
C420 H434 0.931 . S
C421 C417 1.323 . S
C421 C420 1.433 . S
C421 H435 0.933 . S
C422 Dy400 2.738 . S
C422 O405 1.255 . S
C422 O406 1.249 . S
C422 C416 1.516 1_455 S
C423 O407 1.254 . S
C423 O408 1.257 . S
C424 O409 1.266 . S
C424 O410 1.236 . S
C425 C428 1.344 . S
C425 C429 1.328 . S
C425 C431 1.516 . S
C426 C427 1.304 . S
C426 C430 1.323 . S
C427 C426 1.304 . S
C427 C428 1.371 . S
C427 H436 0.930 . S
C428 C425 1.344 . S
C428 C427 1.371 . S
C428 H437 0.931 . S
C429 C425 1.328 . S
C429 C430 1.433 . S
C429 H438 0.931 . S
C430 C426 1.323 . S
C430 C429 1.433 . S
C430 H439 0.933 . S
C431 Dy401 2.738 . S
C431 O411 1.255 . S
C431 O412 1.249 . S
C431 C425 1.516 . S
H432 C418 0.930 . S
H433 C419 0.931 . S
H434 C420 0.931 . S
H435 C421 0.933 . S
H436 C427 0.930 . S
H437 C428 0.931 . S
H438 C429 0.931 . S
H439 C430 0.933 . S
Dy440 O443 2.307 . S
Dy440 O445 2.395 . S
Dy440 O446 2.379 . S
Dy440 O448 2.339 . S
Dy440 O450 2.298 . S
Dy440 O454 2.275 . S
Dy440 C462 2.738 . S
Dy441 O444 2.298 . S
Dy441 O447 2.275 . S
Dy441 O449 2.307 . S
Dy441 O451 2.395 . S
Dy441 O452 2.379 . S
Dy441 O455 2.339 . S
Dy441 C471 2.738 . S
C442 O454 1.254 . S
C442 O455 1.257 . S
O443 Dy440 2.307 . S
O443 C453 1.266 . S
O444 Dy441 2.298 . S
O444 C453 1.236 . S
O445 Dy440 2.395 . S
O445 C462 1.255 . S
O446 Dy440 2.379 . S
O446 C462 1.249 . S
O447 Dy441 2.275 . S
O447 C463 1.254 . S
O448 Dy440 2.339 . S
O448 C463 1.257 . S
O449 Dy441 2.307 . S
O449 C464 1.266 . S
O450 Dy440 2.298 . S
O450 C464 1.236 . S
O451 Dy441 2.395 . S
O451 C471 1.255 . S
O452 Dy441 2.379 . S
O452 C471 1.249 . S
C453 O443 1.266 . S
C453 O444 1.236 . S
O454 Dy440 2.275 . S
O454 C442 1.254 . S
O455 Dy441 2.339 . S
O455 C442 1.257 . S
C456 C459 1.344 . S
C456 C460 1.328 . S
C456 C462 1.516 1_565 S
C457 C458 1.304 . S
C457 C461 1.323 . S
C458 C457 1.304 . S
C458 C459 1.371 . S
C458 H472 0.930 . S
C459 C456 1.344 . S
C459 C458 1.371 . S
C459 H473 0.931 . S
C460 C456 1.328 . S
C460 C461 1.433 . S
C460 H474 0.931 . S
C461 C457 1.323 . S
C461 C460 1.433 . S
C461 H475 0.933 . S
C462 Dy440 2.738 . S
C462 O445 1.255 . S
C462 O446 1.249 . S
C462 C456 1.516 1_545 S
C463 O447 1.254 . S
C463 O448 1.257 . S
C464 O449 1.266 . S
C464 O450 1.236 . S
C465 C468 1.344 . S
C465 C469 1.328 . S
C465 C471 1.516 . S
C466 C467 1.304 . S
C466 C470 1.323 . S
C467 C466 1.304 . S
C467 C468 1.371 . S
C467 H476 0.930 . S
C468 C465 1.344 . S
C468 C467 1.371 . S
C468 H477 0.931 . S
C469 C465 1.328 . S
C469 C470 1.433 . S
C469 H478 0.931 . S
C470 C466 1.323 . S
C470 C469 1.433 . S
C470 H479 0.933 . S
C471 Dy441 2.738 . S
C471 O451 1.255 . S
C471 O452 1.249 . S
C471 C465 1.516 . S
H472 C458 0.930 . S
H473 C459 0.931 . S
H474 C460 0.931 . S
H475 C461 0.933 . S
H476 C467 0.930 . S
H477 C468 0.931 . S
H478 C469 0.931 . S
H479 C470 0.933 . S
C480 C481 1.363 . S
C480 C486 1.379 . S
C480 N488 1.356 . S
C481 C480 1.363 . S
C481 C487 1.363 . S
C482 C483 1.363 . S
C482 C487 1.379 1_545 S
C482 N489 1.356 . S
C483 C482 1.363 . S
C483 C486 1.363 1_545 S
N484 C486 1.356 1_545 S
N484 H496 0.984 1_545 S
N484 H497 0.985 . S
N485 C487 1.356 . S
N485 H490 0.984 . S
N485 H491 0.985 . S
C486 C480 1.379 . S
C486 C483 1.363 1_565 S
C486 N484 1.356 1_565 S
C487 C481 1.363 . S
C487 C482 1.379 1_565 S
C487 N485 1.356 . S
N488 C480 1.356 . S
N488 H494 0.984 . S
N488 H495 0.984 . S
N489 C482 1.356 . S
N489 H492 0.984 . S
N489 H493 0.985 . S
H490 N485 0.984 . S
H491 N485 0.985 . S
H492 N489 0.984 . S
H493 N489 0.985 . S
H494 N488 0.984 . S
H495 N488 0.984 . S
H496 N484 0.984 1_565 S
H497 N484 0.985 . S
C498 C499 1.363 . S
C498 C504 1.379 . S
C498 N506 1.356 . S
C499 C498 1.363 . S
C499 C505 1.363 . S
C500 C501 1.363 . S
C500 C505 1.379 . S
C500 N507 1.356 . S
C501 C500 1.363 . S
C501 C504 1.363 . S
N502 C504 1.356 . S
N502 H514 0.984 . S
N502 H515 0.985 . S
N503 C505 1.356 . S
N503 H508 0.984 . S
N503 H509 0.985 . S
C504 C498 1.379 . S
C504 C501 1.363 . S
C504 N502 1.356 . S
C505 C499 1.363 . S
C505 C500 1.379 . S
C505 N503 1.356 . S
N506 C498 1.356 . S
N506 H512 0.984 . S
N506 H513 0.984 . S
N507 C500 1.356 . S
N507 H510 0.984 . S
N507 H511 0.985 . S
H508 N503 0.984 . S
H509 N503 0.985 . S
H510 N507 0.984 . S
H511 N507 0.985 . S
H512 N506 0.984 . S
H513 N506 0.984 . S
H514 N502 0.984 . S
H515 N502 0.985 . S
C516 C517 1.363 . S
C516 C522 1.379 1_655 S
C516 N524 1.356 . S
C517 C516 1.363 . S
C517 C523 1.363 . S
C518 C519 1.363 . S
C518 C523 1.379 1_455 S
C518 N525 1.356 . S
C519 C518 1.363 . S
C519 C522 1.363 . S
N520 C522 1.356 . S
N520 H532 0.984 . S
N520 H533 0.985 . S
N521 C523 1.356 . S
N521 H526 0.984 . S
N521 H527 0.985 . S
C522 C516 1.379 1_455 S
C522 C519 1.363 . S
C522 N520 1.356 . S
C523 C517 1.363 . S
C523 C518 1.379 1_655 S
C523 N521 1.356 . S
N524 C516 1.356 . S
N524 H530 0.984 . S
N524 H531 0.984 . S
N525 C518 1.356 . S
N525 H528 0.984 . S
N525 H529 0.985 . S
H526 N521 0.984 . S
H527 N521 0.985 . S
H528 N525 0.984 . S
H529 N525 0.985 . S
H530 N524 0.984 . S
H531 N524 0.984 . S
H532 N520 0.984 . S
H533 N520 0.985 . S
C534 C535 1.363 . S
C534 C540 1.379 1_565 S
C534 N542 1.356 . S
C535 C534 1.363 . S
C535 C541 1.363 1_565 S
C536 C537 1.363 . S
C536 C541 1.379 . S
C536 N543 1.356 . S
C537 C536 1.363 . S
C537 C540 1.363 . S
N538 C540 1.356 . S
N538 H550 0.984 . S
N538 H551 0.985 . S
N539 C541 1.356 1_565 S
N539 H544 0.984 . S
N539 H545 0.985 . S
C540 C534 1.379 1_545 S
C540 C537 1.363 . S
C540 N538 1.356 . S
C541 C535 1.363 1_545 S
C541 C536 1.379 . S
C541 N539 1.356 1_545 S
N542 C534 1.356 . S
N542 H548 0.984 . S
N542 H549 0.984 . S
N543 C536 1.356 . S
N543 H546 0.984 . S
N543 H547 0.985 . S
H544 N539 0.984 . S
H545 N539 0.985 . S
H546 N543 0.984 . S
H547 N543 0.985 . S
H548 N542 0.984 . S
H549 N542 0.984 . S
H550 N538 0.984 . S
H551 N538 0.985 . S
C552 C553 1.363 . S
C552 C558 1.379 . S
C552 N560 1.356 . S
C553 C552 1.363 . S
C553 C559 1.363 . S
C554 C555 1.363 . S
C554 C559 1.379 . S
C554 N561 1.356 . S
C555 C554 1.363 . S
C555 C558 1.363 . S
N556 C558 1.356 . S
N556 H568 0.984 . S
N556 H569 0.985 . S
N557 C559 1.356 . S
N557 H562 0.984 . S
N557 H563 0.985 . S
C558 C552 1.379 . S
C558 C555 1.363 . S
C558 N556 1.356 . S
C559 C553 1.363 . S
C559 C554 1.379 . S
C559 N557 1.356 . S
N560 C552 1.356 . S
N560 H566 0.984 . S
N560 H567 0.984 . S
N561 C554 1.356 . S
N561 H564 0.984 . S
N561 H565 0.985 . S
H562 N557 0.984 . S
H563 N557 0.985 . S
H564 N561 0.984 . S
H565 N561 0.985 . S
H566 N560 0.984 . S
H567 N560 0.984 . S
H568 N556 0.984 . S
H569 N556 0.985 . S
C570 C571 1.363 . S
C570 C576 1.379 . S
C570 N578 1.356 . S
C571 C570 1.363 . S
C571 C577 1.363 . S
C572 C573 1.363 . S
C572 C577 1.379 1_455 S
C572 N579 1.356 . S
C573 C572 1.363 . S
C573 C576 1.363 1_455 S
N574 C576 1.356 1_455 S
N574 H586 0.984 . S
N574 H587 0.985 . S
N575 C577 1.356 . S
N575 H580 0.984 . S
N575 H581 0.985 . S
C576 C570 1.379 . S
C576 C573 1.363 1_655 S
C576 N574 1.356 1_655 S
C577 C571 1.363 . S
C577 C572 1.379 1_655 S
C577 N575 1.356 . S
N578 C570 1.356 . S
N578 H584 0.984 . S
N578 H585 0.984 . S
N579 C572 1.356 . S
N579 H582 0.984 . S
N579 H583 0.985 . S
H580 N575 0.984 . S
H581 N575 0.985 . S
H582 N579 0.984 . S
H583 N579 0.985 . S
H584 N578 0.984 . S
H585 N578 0.984 . S
H586 N574 0.984 . S
H587 N574 0.985 . S
C588 C589 1.363 . S
C588 C594 1.379 . S
C588 N596 1.356 . S
C589 C588 1.363 . S
C589 C595 1.363 . S
C590 C591 1.363 . S
C590 C595 1.379 1_655 S
C590 N597 1.356 . S
C591 C590 1.363 . S
C591 C594 1.363 1_655 S
N592 C594 1.356 1_655 S
N592 H604 0.984 1_655 S
N592 H605 0.985 . S
N593 C595 1.356 . S
N593 H598 0.984 . S
N593 H599 0.985 . S
C594 C588 1.379 . S
C594 C591 1.363 1_455 S
C594 N592 1.356 1_455 S
C595 C589 1.363 . S
C595 C590 1.379 1_455 S
C595 N593 1.356 . S
N596 C588 1.356 . S
N596 H602 0.984 . S
N596 H603 0.984 . S
N597 C590 1.356 . S
N597 H600 0.984 . S
N597 H601 0.985 . S
H598 N593 0.984 . S
H599 N593 0.985 . S
H600 N597 0.984 . S
H601 N597 0.985 . S
H602 N596 0.984 . S
H603 N596 0.984 . S
H604 N592 0.984 1_455 S
H605 N592 0.985 . S
C606 C607 1.363 . S
C606 C612 1.379 1_565 S
C606 N614 1.356 . S
C607 C606 1.363 . S
C607 C613 1.363 1_565 S
C608 C609 1.363 . S
C608 C613 1.379 . S
C608 N615 1.356 . S
C609 C608 1.363 . S
C609 C612 1.363 . S
N610 C612 1.356 . S
N610 H622 0.984 . S
N610 H623 0.985 . S
N611 C613 1.356 1_565 S
N611 H616 0.984 . S
N611 H617 0.985 1_565 S
C612 C606 1.379 1_545 S
C612 C609 1.363 . S
C612 N610 1.356 . S
C613 C607 1.363 1_545 S
C613 C608 1.379 . S
C613 N611 1.356 1_545 S
N614 C606 1.356 . S
N614 H620 0.984 . S
N614 H621 0.984 . S
N615 C608 1.356 . S
N615 H618 0.984 . S
N615 H619 0.985 . S
H616 N611 0.984 . S
H617 N611 0.985 1_545 S
H618 N615 0.984 . S
H619 N615 0.985 . S
H620 N614 0.984 . S
H621 N614 0.984 . S
H622 N610 0.984 . S
H623 N610 0.985 . S
C624 C625 1.363 . S
C624 C630 1.379 . S
C624 N632 1.356 . S
C625 C624 1.363 . S
C625 C631 1.363 . S
C626 C627 1.363 . S
C626 C631 1.379 . S
C626 N633 1.356 . S
C627 C626 1.363 . S
C627 C630 1.363 . S
N628 C630 1.356 . S
N628 H640 0.984 . S
N628 H641 0.985 . S
N629 C631 1.356 . S
N629 H634 0.984 . S
N629 H635 0.985 . S
C630 C624 1.379 . S
C630 C627 1.363 . S
C630 N628 1.356 . S
C631 C625 1.363 . S
C631 C626 1.379 . S
C631 N629 1.356 . S
N632 C624 1.356 . S
N632 H638 0.984 . S
N632 H639 0.984 . S
N633 C626 1.356 . S
N633 H636 0.984 . S
N633 H637 0.985 . S
H634 N629 0.984 . S
H635 N629 0.985 . S
H636 N633 0.984 . S
H637 N633 0.985 . S
H638 N632 0.984 . S
H639 N632 0.984 . S
H640 N628 0.984 . S
H641 N628 0.985 . S
C642 C643 1.363 1_655 S
C642 C648 1.379 . S
C642 N650 1.356 1_655 S
C643 C642 1.363 1_455 S
C643 C649 1.363 . S
C644 C645 1.363 . S
C644 C649 1.379 1_655 S
C644 N651 1.356 . S
C645 C644 1.363 . S
C645 C648 1.363 . S
N646 C648 1.356 . S
N646 H658 0.984 . S
N646 H659 0.985 . S
N647 C649 1.356 . S
N647 H652 0.984 . S
N647 H653 0.985 . S
C648 C642 1.379 . S
C648 C645 1.363 . S
C648 N646 1.356 . S
C649 C643 1.363 . S
C649 C644 1.379 1_455 S
C649 N647 1.356 . S
N650 C642 1.356 1_455 S
N650 H656 0.984 1_455 S
N650 H657 0.984 . S
N651 C644 1.356 . S
N651 H654 0.984 . S
N651 H655 0.985 . S
H652 N647 0.984 . S
H653 N647 0.985 . S
H654 N651 0.984 . S
H655 N651 0.985 . S
H656 N650 0.984 1_655 S
H657 N650 0.984 . S
H658 N646 0.984 . S
H659 N646 0.985 . S
C660 C661 1.363 . S
C660 C666 1.379 1_545 S
C660 N668 1.356 . S
C661 C660 1.363 . S
C661 C667 1.363 1_545 S
C662 C663 1.363 . S
C662 C667 1.379 . S
C662 N669 1.356 . S
C663 C662 1.363 . S
C663 C666 1.363 . S
N664 C666 1.356 . S
N664 H676 0.984 . S
N664 H677 0.985 . S
N665 C667 1.356 1_545 S
N665 H670 0.984 . S
N665 H671 0.983 1_545 S
C666 C660 1.379 1_565 S
C666 C663 1.363 . S
C666 N664 1.356 . S
C667 C661 1.363 1_565 S
C667 C662 1.379 . S
C667 N665 1.356 1_565 S
N668 C660 1.356 . S
N668 H674 0.984 . S
N668 H675 0.984 . S
N669 C662 1.356 . S
N669 H672 0.984 . S
N669 H673 0.985 . S
H670 N665 0.984 . S
H671 N665 0.983 1_565 S
H672 N669 0.984 . S
H673 N669 0.985 . S
H674 N668 0.984 . S
H675 N668 0.984 . S
H676 N664 0.984 . S
H677 N664 0.985 . S
C678 C679 1.363 . S
C678 C684 1.379 . S
C678 N686 1.356 . S
C679 C678 1.363 . S
C679 C685 1.363 . S
C680 C681 1.363 . S
C680 C685 1.379 . S
C680 N687 1.356 . S
C681 C680 1.363 . S
C681 C684 1.363 . S
N682 C684 1.356 . S
N682 H694 0.984 . S
N682 H695 0.985 . S
N683 C685 1.356 . S
N683 H688 0.984 . S
N683 H689 0.985 . S
C684 C678 1.379 . S
C684 C681 1.363 . S
C684 N682 1.356 . S
C685 C679 1.363 . S
C685 C680 1.379 . S
C685 N683 1.356 . S
N686 C678 1.356 . S
N686 H692 0.984 . S
N686 H693 0.984 . S
N687 C680 1.356 . S
N687 H690 0.984 . S
N687 H691 0.985 . S
H688 N683 0.984 . S
H689 N683 0.985 . S
H690 N687 0.984 . S
H691 N687 0.985 . S
H692 N686 0.984 . S
H693 N686 0.984 . S
H694 N682 0.984 . S
H695 N682 0.985 . S
C696 C697 1.363 . S
C696 C702 1.379 . S
C696 N704 1.356 . S
C697 C696 1.363 . S
C697 C703 1.363 . S
C698 C699 1.363 . S
C698 C703 1.379 . S
C698 N705 1.356 . S
C699 C698 1.363 . S
C699 C702 1.363 . S
N700 C702 1.356 . S
N700 H712 0.984 . S
N700 H713 0.985 . S
N701 C703 1.356 . S
N701 H706 0.984 . S
N701 H707 0.985 . S
C702 C696 1.379 . S
C702 C699 1.363 . S
C702 N700 1.356 . S
C703 C697 1.363 . S
C703 C698 1.379 . S
C703 N701 1.356 . S
N704 C696 1.356 . S
N704 H710 0.984 . S
N704 H711 0.984 . S
N705 C698 1.356 . S
N705 H708 0.984 . S
N705 H709 0.985 . S
H706 N701 0.984 . S
H707 N701 0.985 . S
H708 N705 0.984 . S
H709 N705 0.985 . S
H710 N704 0.984 . S
H711 N704 0.984 . S
H712 N700 0.984 . S
H713 N700 0.985 . S
C714 C715 1.363 . S
C714 C720 1.379 . S
C714 N722 1.356 . S
C715 C714 1.363 . S
C715 C721 1.363 . S
C716 C717 1.363 . S
C716 C721 1.379 . S
C716 N723 1.356 . S
C717 C716 1.363 . S
C717 C720 1.363 . S
N718 C720 1.356 . S
N718 H730 0.984 . S
N718 H731 0.985 . S
N719 C721 1.356 . S
N719 H724 0.984 . S
N719 H725 0.985 . S
C720 C714 1.379 . S
C720 C717 1.363 . S
C720 N718 1.356 . S
C721 C715 1.363 . S
C721 C716 1.379 . S
C721 N719 1.356 . S
N722 C714 1.356 . S
N722 H728 0.984 . S
N722 H729 0.984 . S
N723 C716 1.356 . S
N723 H726 0.984 . S
N723 H727 0.985 . S
H724 N719 0.984 . S
H725 N719 0.985 . S
H726 N723 0.984 . S
H727 N723 0.985 . S
H728 N722 0.984 . S
H729 N722 0.984 . S
H730 N718 0.984 . S
H731 N718 0.985 . S
C732 C733 1.363 . S
C732 C738 1.379 . S
C732 N740 1.356 . S
C733 C732 1.363 . S
C733 C739 1.363 . S
C734 C735 1.363 . S
C734 C739 1.379 . S
C734 N741 1.356 . S
C735 C734 1.363 . S
C735 C738 1.363 . S
N736 C738 1.356 . S
N736 H748 0.984 . S
N736 H749 0.985 . S
N737 C739 1.356 . S
N737 H742 0.984 . S
N737 H743 0.985 . S
C738 C732 1.379 . S
C738 C735 1.363 . S
C738 N736 1.356 . S
C739 C733 1.363 . S
C739 C734 1.379 . S
C739 N737 1.356 . S
N740 C732 1.356 . S
N740 H746 0.984 . S
N740 H747 0.984 . S
N741 C734 1.356 . S
N741 H744 0.984 . S
N741 H745 0.985 . S
H742 N737 0.984 . S
H743 N737 0.985 . S
H744 N741 0.984 . S
H745 N741 0.985 . S
H746 N740 0.984 . S
H747 N740 0.984 . S
H748 N736 0.984 . S
H749 N736 0.985 . S
C750 C751 1.363 . S
C750 C756 1.379 . S
C750 N758 1.356 . S
C751 C750 1.363 . S
C751 C757 1.363 . S
C752 C753 1.363 . S
C752 C757 1.379 . S
C752 N759 1.356 . S
C753 C752 1.363 . S
C753 C756 1.363 . S
N754 C756 1.356 . S
N754 H766 0.984 . S
N754 H767 0.985 . S
N755 C757 1.356 . S
N755 H760 0.984 . S
N755 H761 0.985 . S
C756 C750 1.379 . S
C756 C753 1.363 . S
C756 N754 1.356 . S
C757 C751 1.363 . S
C757 C752 1.379 . S
C757 N755 1.356 . S
N758 C750 1.356 . S
N758 H764 0.984 . S
N758 H765 0.984 . S
N759 C752 1.356 . S
N759 H762 0.984 . S
N759 H763 0.985 . S
H760 N755 0.984 . S
H761 N755 0.985 . S
H762 N759 0.984 . S
H763 N759 0.985 . S
H764 N758 0.984 . S
H765 N758 0.984 . S
H766 N754 0.984 . S
H767 N754 0.985 . S
C768 C769 1.363 . S
C768 C774 1.379 . S
C768 N776 1.356 . S
C769 C768 1.363 . S
C769 C775 1.363 . S
C770 C771 1.363 . S
C770 C775 1.379 . S
C770 N777 1.356 . S
C771 C770 1.363 . S
C771 C774 1.363 . S
N772 C774 1.356 . S
N772 H784 0.984 . S
N772 H785 0.985 . S
N773 C775 1.356 . S
N773 H778 0.984 . S
N773 H779 0.985 . S
C774 C768 1.379 . S
C774 C771 1.363 . S
C774 N772 1.356 . S
C775 C769 1.363 . S
C775 C770 1.379 . S
C775 N773 1.356 . S
N776 C768 1.356 . S
N776 H782 0.984 . S
N776 H783 0.984 . S
N777 C770 1.356 . S
N777 H780 0.984 . S
N777 H781 0.985 . S
H778 N773 0.984 . S
H779 N773 0.985 . S
H780 N777 0.984 . S
H781 N777 0.985 . S
H782 N776 0.984 . S
H783 N776 0.984 . S
H784 N772 0.984 . S
H785 N772 0.985 . S
C786 C787 1.363 . S
C786 C792 1.379 . S
C786 N794 1.356 . S
C787 C786 1.363 . S
C787 C793 1.363 . S
C788 C789 1.363 . S
C788 C793 1.379 . S
C788 N795 1.356 . S
C789 C788 1.363 . S
C789 C792 1.363 . S
N790 C792 1.356 . S
N790 H802 0.984 . S
N790 H803 0.985 . S
N791 C793 1.356 . S
N791 H796 0.984 . S
N791 H797 0.985 . S
C792 C786 1.379 . S
C792 C789 1.363 . S
C792 N790 1.356 . S
C793 C787 1.363 . S
C793 C788 1.379 . S
C793 N791 1.356 . S
N794 C786 1.356 . S
N794 H800 0.984 . S
N794 H801 0.984 . S
N795 C788 1.356 . S
N795 H798 0.984 . S
N795 H799 0.985 . S
H796 N791 0.984 . S
H797 N791 0.985 . S
H798 N795 0.984 . S
H799 N795 0.985 . S
H800 N794 0.984 . S
H801 N794 0.984 . S
H802 N790 0.984 . S
H803 N790 0.985 . S
C804 C805 1.363 . S
C804 C810 1.379 . S
C804 N812 1.356 . S
C805 C804 1.363 . S
C805 C811 1.363 . S
C806 C807 1.363 . S
C806 C811 1.379 . S
C806 N813 1.356 . S
C807 C806 1.363 . S
C807 C810 1.363 . S
N808 C810 1.356 . S
N808 H820 0.984 . S
N808 H821 0.985 . S
N809 C811 1.356 . S
N809 H814 0.984 . S
N809 H815 0.985 . S
C810 C804 1.379 . S
C810 C807 1.363 . S
C810 N808 1.356 . S
C811 C805 1.363 . S
C811 C806 1.379 . S
C811 N809 1.356 . S
N812 C804 1.356 . S
N812 H818 0.984 . S
N812 H819 0.984 . S
N813 C806 1.356 . S
N813 H816 0.984 . S
N813 H817 0.985 . S
H814 N809 0.984 . S
H815 N809 0.985 . S
H816 N813 0.984 . S
H817 N813 0.985 . S
H818 N812 0.984 . S
H819 N812 0.984 . S
H820 N808 0.984 . S
H821 N808 0.985 . S
C822 C823 1.363 . S
C822 C828 1.379 . S
C822 N830 1.356 . S
C823 C822 1.363 . S
C823 C829 1.363 . S
C824 C825 1.363 . S
C824 C829 1.379 . S
C824 N831 1.356 . S
C825 C824 1.363 . S
C825 C828 1.363 . S
N826 C828 1.356 . S
N826 H838 0.984 . S
N826 H839 0.985 . S
N827 C829 1.356 . S
N827 H832 0.984 . S
N827 H833 0.985 . S
C828 C822 1.379 . S
C828 C825 1.363 . S
C828 N826 1.356 . S
C829 C823 1.363 . S
C829 C824 1.379 . S
C829 N827 1.356 . S
N830 C822 1.356 . S
N830 H836 0.984 . S
N830 H837 0.984 . S
N831 C824 1.356 . S
N831 H834 0.984 . S
N831 H835 0.985 . S
H832 N827 0.984 . S
H833 N827 0.985 . S
H834 N831 0.984 . S
H835 N831 0.985 . S
H836 N830 0.984 . S
H837 N830 0.984 . S
H838 N826 0.984 . S
H839 N826 0.985 . S
C840 C841 1.363 . S
C840 C846 1.379 . S
C840 N848 1.356 . S
C841 C840 1.363 . S
C841 C847 1.363 . S
C842 C843 1.363 . S
C842 C847 1.379 . S
C842 N849 1.356 . S
C843 C842 1.363 . S
C843 C846 1.363 . S
N844 C846 1.356 . S
N844 H856 0.984 . S
N844 H857 0.985 . S
N845 C847 1.356 . S
N845 H850 0.984 . S
N845 H851 0.985 . S
C846 C840 1.379 . S
C846 C843 1.363 . S
C846 N844 1.356 . S
C847 C841 1.363 . S
C847 C842 1.379 . S
C847 N845 1.356 . S
N848 C840 1.356 . S
N848 H854 0.984 . S
N848 H855 0.984 . S
N849 C842 1.356 . S
N849 H852 0.984 . S
N849 H853 0.985 . S
H850 N845 0.984 . S
H851 N845 0.985 . S
H852 N849 0.984 . S
H853 N849 0.985 . S
H854 N848 0.984 . S
H855 N848 0.984 . S
H856 N844 0.984 . S
H857 N844 0.985 . S
C858 C859 1.363 . S
C858 C864 1.379 . S
C858 N866 1.356 . S
C859 C858 1.363 . S
C859 C865 1.363 . S
C860 C861 1.363 . S
C860 C865 1.379 . S
C860 N867 1.356 . S
C861 C860 1.363 . S
C861 C864 1.363 . S
N862 C864 1.356 . S
N862 H874 0.984 . S
N862 H875 0.985 . S
N863 C865 1.356 . S
N863 H868 0.984 . S
N863 H869 0.985 . S
C864 C858 1.379 . S
C864 C861 1.363 . S
C864 N862 1.356 . S
C865 C859 1.363 . S
C865 C860 1.379 . S
C865 N863 1.356 . S
N866 C858 1.356 . S
N866 H872 0.984 . S
N866 H873 0.984 . S
N867 C860 1.356 . S
N867 H870 0.984 . S
N867 H871 0.985 . S
H868 N863 0.984 . S
H869 N863 0.985 . S
H870 N867 0.984 . S
H871 N867 0.985 . S
H872 N866 0.984 . S
H873 N866 0.984 . S
H874 N862 0.984 . S
H875 N862 0.985 . S
C876 C877 1.363 . S
C876 C882 1.379 . S
C876 N884 1.356 . S
C877 C876 1.363 . S
C877 C883 1.363 . S
C878 C879 1.363 . S
C878 C883 1.379 . S
C878 N885 1.356 . S
C879 C878 1.363 . S
C879 C882 1.363 . S
N880 C882 1.356 . S
N880 H892 0.984 . S
N880 H893 0.985 . S
N881 C883 1.356 . S
N881 H886 0.984 . S
N881 H887 0.985 . S
C882 C876 1.379 . S
C882 C879 1.363 . S
C882 N880 1.356 . S
C883 C877 1.363 . S
C883 C878 1.379 . S
C883 N881 1.356 . S
N884 C876 1.356 . S
N884 H890 0.984 . S
N884 H891 0.984 . S
N885 C878 1.356 . S
N885 H888 0.984 . S
N885 H889 0.985 . S
H886 N881 0.984 . S
H887 N881 0.985 . S
H888 N885 0.984 . S
H889 N885 0.985 . S
H890 N884 0.984 . S
H891 N884 0.984 . S
H892 N880 0.984 . S
H893 N880 0.985 . S
C894 C895 1.363 . S
C894 C900 1.379 . S
C894 N902 1.356 . S
C895 C894 1.363 . S
C895 C901 1.363 . S
C896 C897 1.363 . S
C896 C901 1.379 . S
C896 N903 1.356 . S
C897 C896 1.363 . S
C897 C900 1.363 . S
N898 C900 1.356 . S
N898 H910 0.984 . S
N898 H911 0.985 . S
N899 C901 1.356 . S
N899 H904 0.984 . S
N899 H905 0.985 . S
C900 C894 1.379 . S
C900 C897 1.363 . S
C900 N898 1.356 . S
C901 C895 1.363 . S
C901 C896 1.379 . S
C901 N899 1.356 . S
N902 C894 1.356 . S
N902 H908 0.984 . S
N902 H909 0.984 . S
N903 C896 1.356 . S
N903 H906 0.984 . S
N903 H907 0.985 . S
H904 N899 0.984 . S
H905 N899 0.985 . S
H906 N903 0.984 . S
H907 N903 0.985 . S
H908 N902 0.984 . S
H909 N902 0.984 . S
H910 N898 0.984 . S
H911 N898 0.985 . S
C912 C913 1.363 . S
C912 C918 1.379 . S
C912 N920 1.356 . S
C913 C912 1.363 . S
C913 C919 1.363 . S
C914 C915 1.363 . S
C914 C919 1.379 . S
C914 N921 1.356 . S
C915 C914 1.363 . S
C915 C918 1.363 . S
N916 C918 1.356 . S
N916 H928 0.984 . S
N916 H929 0.985 . S
N917 C919 1.356 . S
N917 H922 0.984 . S
N917 H923 0.985 . S
C918 C912 1.379 . S
C918 C915 1.363 . S
C918 N916 1.356 . S
C919 C913 1.363 . S
C919 C914 1.379 . S
C919 N917 1.356 . S
N920 C912 1.356 . S
N920 H926 0.984 . S
N920 H927 0.984 . S
N921 C914 1.356 . S
N921 H924 0.984 . S
N921 H925 0.985 . S
H922 N917 0.984 . S
H923 N917 0.985 . S
H924 N921 0.984 . S
H925 N921 0.985 . S
H926 N920 0.984 . S
H927 N920 0.984 . S
H928 N916 0.984 . S
H929 N916 0.985 . S
C930 C931 1.363 . S
C930 C936 1.379 . S
C930 N938 1.356 . S
C931 C930 1.363 . S
C931 C937 1.363 . S
C932 C933 1.363 . S
C932 C937 1.379 . S
C932 N939 1.356 . S
C933 C932 1.363 . S
C933 C936 1.363 . S
N934 C936 1.356 . S
N934 H946 0.984 . S
N934 H947 0.985 . S
N935 C937 1.356 . S
N935 H940 0.984 . S
N935 H941 0.985 . S
C936 C930 1.379 . S
C936 C933 1.363 . S
C936 N934 1.356 . S
C937 C931 1.363 . S
C937 C932 1.379 . S
C937 N935 1.356 . S
N938 C930 1.356 . S
N938 H944 0.984 . S
N938 H945 0.984 . S
N939 C932 1.356 . S
N939 H942 0.984 . S
N939 H943 0.985 . S
H940 N935 0.984 . S
H941 N935 0.985 . S
H942 N939 0.984 . S
H943 N939 0.985 . S
H944 N938 0.984 . S
H945 N938 0.984 . S
H946 N934 0.984 . S
H947 N934 0.985 . S
C948 C949 1.363 . S
C948 C954 1.379 . S
C948 N956 1.356 . S
C949 C948 1.363 . S
C949 C955 1.363 . S
C950 C951 1.363 . S
C950 C955 1.379 . S
C950 N957 1.356 . S
C951 C950 1.363 . S
C951 C954 1.363 . S
N952 C954 1.356 . S
N952 H964 0.984 . S
N952 H965 0.985 . S
N953 C955 1.356 . S
N953 H958 0.984 . S
N953 H959 0.985 . S
C954 C948 1.379 . S
C954 C951 1.363 . S
C954 N952 1.356 . S
C955 C949 1.363 . S
C955 C950 1.379 . S
C955 N953 1.356 . S
N956 C948 1.356 . S
N956 H962 0.984 . S
N956 H963 0.984 . S
N957 C950 1.356 . S
N957 H960 0.984 . S
N957 H961 0.985 . S
H958 N953 0.984 . S
H959 N953 0.985 . S
H960 N957 0.984 . S
H961 N957 0.985 . S
H962 N956 0.984 . S
H963 N956 0.984 . S
H964 N952 0.984 . S
H965 N952 0.985 . S
C966 C967 1.363 . S
C966 C972 1.379 . S
C966 N974 1.356 . S
C967 C966 1.363 . S
C967 C973 1.363 . S
C968 C969 1.363 . S
C968 C973 1.379 . S
C968 N975 1.356 . S
C969 C968 1.363 . S
C969 C972 1.363 . S
N970 C972 1.356 . S
N970 H982 0.984 . S
N970 H983 0.985 . S
N971 C973 1.356 . S
N971 H976 0.984 . S
N971 H977 0.985 . S
C972 C966 1.379 . S
C972 C969 1.363 . S
C972 N970 1.356 . S
C973 C967 1.363 . S
C973 C968 1.379 . S
C973 N971 1.356 . S
N974 C966 1.356 . S
N974 H980 0.984 . S
N974 H981 0.984 . S
N975 C968 1.356 . S
N975 H978 0.984 . S
N975 H979 0.985 . S
H976 N971 0.984 . S
H977 N971 0.985 . S
H978 N975 0.984 . S
H979 N975 0.985 . S
H980 N974 0.984 . S
H981 N974 0.984 . S
H982 N970 0.984 . S
H983 N970 0.985 . S
C984 C985 1.363 . S
C984 C990 1.379 . S
C984 N992 1.356 . S
C985 C984 1.363 . S
C985 C991 1.363 . S
C986 C987 1.363 . S
C986 C991 1.379 . S
C986 N993 1.356 . S
C987 C986 1.363 . S
C987 C990 1.363 . S
N988 C990 1.356 . S
N988 H1000 0.984 . S
N988 H1001 0.985 . S
N989 C991 1.356 . S
N989 H994 0.984 . S
N989 H995 0.985 . S
C990 C984 1.379 . S
C990 C987 1.363 . S
C990 N988 1.356 . S
C991 C985 1.363 . S
C991 C986 1.379 . S
C991 N989 1.356 . S
N992 C984 1.356 . S
N992 H998 0.984 . S
N992 H999 0.984 . S
N993 C986 1.356 . S
N993 H996 0.984 . S
N993 H997 0.985 . S
H994 N989 0.984 . S
H995 N989 0.985 . S
H996 N993 0.984 . S
H997 N993 0.985 . S
H998 N992 0.984 . S
H999 N992 0.984 . S
H1000 N988 0.984 . S
H1001 N988 0.985 . S
C1002 C1003 1.363 . S
C1002 C1008 1.379 . S
C1002 N1010 1.356 . S
C1003 C1002 1.363 . S
C1003 C1009 1.363 . S
C1004 C1005 1.363 . S
C1004 C1009 1.379 . S
C1004 N1011 1.356 . S
C1005 C1004 1.363 . S
C1005 C1008 1.363 . S
N1006 C1008 1.356 . S
N1006 H1018 0.984 . S
N1006 H1019 0.985 . S
N1007 C1009 1.356 . S
N1007 H1012 0.984 . S
N1007 H1013 0.985 . S
C1008 C1002 1.379 . S
C1008 C1005 1.363 . S
C1008 N1006 1.356 . S
C1009 C1003 1.363 . S
C1009 C1004 1.379 . S
C1009 N1007 1.356 . S
N1010 C1002 1.356 . S
N1010 H1016 0.984 . S
N1010 H1017 0.984 . S
N1011 C1004 1.356 . S
N1011 H1014 0.984 . S
N1011 H1015 0.985 . S
H1012 N1007 0.984 . S
H1013 N1007 0.985 . S
H1014 N1011 0.984 . S
H1015 N1011 0.985 . S
H1016 N1010 0.984 . S
H1017 N1010 0.984 . S
H1018 N1006 0.984 . S
H1019 N1006 0.985 . S
C1020 C1021 1.363 . S
C1020 C1026 1.379 . S
C1020 N1028 1.356 . S
C1021 C1020 1.363 . S
C1021 C1027 1.363 1_556 S
C1022 C1023 1.363 . S
C1022 C1027 1.379 . S
C1022 N1029 1.356 . S
C1023 C1022 1.363 . S
C1023 C1026 1.363 1_554 S
N1024 C1026 1.356 . S
N1024 H1036 0.984 . S
N1024 H1037 0.985 . S
N1025 C1027 1.356 . S
N1025 H1030 0.984 . S
N1025 H1031 0.985 . S
C1026 C1020 1.379 . S
C1026 C1023 1.363 1_556 S
C1026 N1024 1.356 . S
C1027 C1021 1.363 1_554 S
C1027 C1022 1.379 . S
C1027 N1025 1.356 . S
N1028 C1020 1.356 . S
N1028 H1034 0.984 . S
N1028 H1035 0.984 . S
N1029 C1022 1.356 . S
N1029 H1032 0.984 . S
N1029 H1033 0.985 . S
H1030 N1025 0.984 . S
H1031 N1025 0.985 . S
H1032 N1029 0.984 . S
H1033 N1029 0.985 . S
H1034 N1028 0.984 . S
H1035 N1028 0.984 . S
H1036 N1024 0.984 . S
H1037 N1024 0.985 . S
C1038 C1039 1.363 . S
C1038 C1044 1.379 1_455 S
C1038 N1046 1.356 . S
C1039 C1038 1.363 . S
C1039 C1045 1.363 . S
C1040 C1041 1.363 . S
C1040 C1045 1.379 1_655 S
C1040 N1047 1.356 . S
C1041 C1040 1.363 . S
C1041 C1044 1.363 . S
N1042 C1044 1.356 . S
N1042 H1054 0.984 . S
N1042 H1055 0.985 . S
N1043 C1045 1.356 . S
N1043 H1048 0.984 . S
N1043 H1049 0.985 . S
C1044 C1038 1.379 1_655 S
C1044 C1041 1.363 . S
C1044 N1042 1.356 . S
C1045 C1039 1.363 . S
C1045 C1040 1.379 1_455 S
C1045 N1043 1.356 . S
N1046 C1038 1.356 . S
N1046 H1052 0.984 . S
N1046 H1053 0.984 . S
N1047 C1040 1.356 . S
N1047 H1050 0.984 . S
N1047 H1051 0.985 . S
H1048 N1043 0.984 . S
H1049 N1043 0.985 . S
H1050 N1047 0.984 . S
H1051 N1047 0.985 . S
H1052 N1046 0.984 . S
H1053 N1046 0.984 . S
H1054 N1042 0.984 . S
H1055 N1042 0.985 . S
C1056 C1057 1.363 . S
C1056 C1062 1.379 1_565 S
C1056 N1064 1.356 . S
C1057 C1056 1.363 . S
C1057 C1063 1.363 1_554 S
C1058 C1059 1.363 . S
C1058 C1063 1.379 1_545 S
C1058 N1065 1.356 . S
C1059 C1058 1.363 . S
C1059 C1062 1.363 1_556 S
N1060 C1062 1.356 . S
N1060 H1072 0.984 . S
N1060 H1073 0.985 . S
N1061 C1063 1.356 . S
N1061 H1066 0.984 . S
N1061 H1067 0.985 . S
C1062 C1056 1.379 1_545 S
C1062 C1059 1.363 1_554 S
C1062 N1060 1.356 . S
C1063 C1057 1.363 1_556 S
C1063 C1058 1.379 1_565 S
C1063 N1061 1.356 . S
N1064 C1056 1.356 . S
N1064 H1070 0.984 . S
N1064 H1071 0.984 . S
N1065 C1058 1.356 . S
N1065 H1068 0.984 . S
N1065 H1069 0.985 . S
H1066 N1061 0.984 . S
H1067 N1061 0.985 . S
H1068 N1065 0.984 . S
H1069 N1065 0.985 . S
H1070 N1064 0.984 . S
H1071 N1064 0.984 . S
H1072 N1060 0.984 . S
H1073 N1060 0.985 . S
C1074 C1075 1.363 . S
C1074 C1080 1.379 . S
C1074 N1082 1.356 . S
C1075 C1074 1.363 . S
C1075 C1081 1.363 . S
C1076 C1077 1.363 . S
C1076 C1081 1.379 . S
C1076 N1083 1.356 . S
C1077 C1076 1.363 . S
C1077 C1080 1.363 . S
N1078 C1080 1.356 . S
N1078 H1090 0.984 . S
N1078 H1091 0.985 . S
N1079 C1081 1.356 . S
N1079 H1084 0.984 . S
N1079 H1085 0.985 . S
C1080 C1074 1.379 . S
C1080 C1077 1.363 . S
C1080 N1078 1.356 . S
C1081 C1075 1.363 . S
C1081 C1076 1.379 . S
C1081 N1079 1.356 . S
N1082 C1074 1.356 . S
N1082 H1088 0.984 . S
N1082 H1089 0.984 . S
N1083 C1076 1.356 . S
N1083 H1086 0.984 . S
N1083 H1087 0.985 . S
H1084 N1079 0.984 . S
H1085 N1079 0.985 . S
H1086 N1083 0.984 . S
H1087 N1083 0.985 . S
H1088 N1082 0.984 . S
H1089 N1082 0.984 . S
H1090 N1078 0.984 . S
H1091 N1078 0.985 . S
C1092 C1093 1.363 . S
C1092 C1098 1.379 1_655 S
C1092 N1100 1.356 . S
C1093 C1092 1.363 . S
C1093 C1099 1.363 1_556 S
C1094 C1095 1.363 . S
C1094 C1099 1.379 1_455 S
C1094 N1101 1.356 . S
C1095 C1094 1.363 . S
C1095 C1098 1.363 1_554 S
N1096 C1098 1.356 . S
N1096 H1108 0.984 . S
N1096 H1109 0.985 . S
N1097 C1099 1.356 . S
N1097 H1102 0.984 . S
N1097 H1103 0.985 . S
C1098 C1092 1.379 1_455 S
C1098 C1095 1.363 1_556 S
C1098 N1096 1.356 . S
C1099 C1093 1.363 1_554 S
C1099 C1094 1.379 1_655 S
C1099 N1097 1.356 . S
N1100 C1092 1.356 . S
N1100 H1106 0.984 . S
N1100 H1107 0.984 . S
N1101 C1094 1.356 . S
N1101 H1104 0.984 . S
N1101 H1105 0.985 . S
H1102 N1097 0.984 . S
H1103 N1097 0.985 . S
H1104 N1101 0.984 . S
H1105 N1101 0.985 . S
H1106 N1100 0.984 . S
H1107 N1100 0.984 . S
H1108 N1096 0.984 . S
H1109 N1096 0.985 . S
C1110 C1111 1.363 . S
C1110 C1116 1.379 1_565 S
C1110 N1118 1.356 . S
C1111 C1110 1.363 . S
C1111 C1117 1.363 . S
C1112 C1113 1.363 . S
C1112 C1117 1.379 1_545 S
C1112 N1119 1.356 . S
C1113 C1112 1.363 . S
C1113 C1116 1.363 . S
N1114 C1116 1.356 . S
N1114 H1126 0.984 . S
N1114 H1127 0.985 . S
N1115 C1117 1.356 . S
N1115 H1120 0.984 . S
N1115 H1121 0.985 . S
C1116 C1110 1.379 1_545 S
C1116 C1113 1.363 . S
C1116 N1114 1.356 . S
C1117 C1111 1.363 . S
C1117 C1112 1.379 1_565 S
C1117 N1115 1.356 . S
N1118 C1110 1.356 . S
N1118 H1124 0.984 . S
N1118 H1125 0.984 . S
N1119 C1112 1.356 . S
N1119 H1122 0.984 . S
N1119 H1123 0.985 . S
H1120 N1115 0.984 . S
H1121 N1115 0.985 . S
H1122 N1119 0.984 . S
H1123 N1119 0.985 . S
H1124 N1118 0.984 . S
H1125 N1118 0.984 . S
H1126 N1114 0.984 . S
H1127 N1114 0.985 . S
C481 C184 1.379 . S
C483 C17 1.382 . S
C499 C224 1.379 . S
C501 C57 1.382 . S
C517 C97 1.382 . S
C519 C24 1.379 . S
C535 C137 1.382 . S
C537 C64 1.379 . S
C553 C177 1.382 . S
C555 C104 1.379 . S
C571 C144 1.379 . S
C573 C217 1.382 . S
C589 C344 1.379 . S
C591 C257 1.382 . S
C607 C297 1.382 . S
C609 C384 1.379 . S
C625 C424 1.379 . S
C627 C337 1.382 . S
C643 C377 1.382 . S
C645 C464 1.379 . S
C661 C417 1.382 . S
C663 C264 1.379 . S
C679 C304 1.379 . S
C681 C457 1.382 . S
C697 C173 1.651 . S
C699 C26 1.647 . S
C715 C66 1.647 . S
C717 C213 1.651 . S
C733 C106 1.647 . S
C735 C13 1.651 . S
C751 C146 1.647 . S
C753 C53 1.651 . S
C769 C93 1.651 . S
C771 C186 1.647 . S
C787 C133 1.651 . S
C789 C226 1.647 . S
C805 C333 1.651 . S
C807 C266 1.647 . S
C823 C306 1.647 . S
C825 C373 1.651 . S
C841 C346 1.647 . S
C843 C413 1.651 . S
C859 C453 1.651 . S
C861 C386 1.647 . S
C877 C426 1.647 . S
C879 C253 1.651 . S
C895 C293 1.651 . S
C897 C466 1.647 . S
C913 C423 1.645 . S
C915 C23 1.645 . S
C931 C63 1.645 . S
C933 C463 1.645 . S
C949 C103 1.645 . S
C951 C263 1.645 . S
C967 C143 1.645 . S
C969 C303 1.645 . S
C985 C183 1.645 . S
C987 C343 1.645 . S
C1003 C383 1.645 . S
C1005 C223 1.645 . S
C1021 C362 2.405 . S
C1023 C2 2.405 . S
C1039 C402 2.405 . S
C1041 C42 2.405 . S
C1057 C82 2.405 . S
C1059 C442 2.405 . S
C1075 C122 2.405 . S
C1077 C242 2.405 . S
C1093 C282 2.405 . S
C1095 C162 2.405 . S
C1111 C322 2.405 . S
C1113 C202 2.405 . S
