# Generated by pormake.
# Topology uoa, (4)-cn, num edge types: 1
# Building blocks:
#     Node 0, Type 0, BuildingBlock: ICAMEG_clean_sbu_1, # of connection points: 4
#     Node 1, Type 0, BuildingBlock: ICAMEG_clean_sbu_1, # of connection points: 4
#     Node 2, Type 0, BuildingBlock: ICAMEG_clean_sbu_1, # of connection points: 4
#     Node 3, Type 0, BuildingBlock: ICAMEG_clean_sbu_1, # of connection points: 4
#     Node 4, Type 0, BuildingBlock: ICAMEG_clean_sbu_1, # of connection points: 4
#     Node 5, Type 0, BuildingBlock: ICAMEG_clean_sbu_1, # of connection points: 4
#     Node 6, Type 0, BuildingBlock: ICAMEG_clean_sbu_1, # of connection points: 4
#     Node 7, Type 0, BuildingBlock: ICAMEG_clean_sbu_1, # of connection points: 4
#     Node 8, Type 0, BuildingBlock: ICAMEG_clean_sbu_1, # of connection points: 4
#     Node 9, Type 0, BuildingBlock: ICAMEG_clean_sbu_1, # of connection points: 4
#     Node 10, Type 0, BuildingBlock: ICAMEG_clean_sbu_1, # of connection points: 4
#     Node 11, Type 0, BuildingBlock: ICAMEG_clean_sbu_1, # of connection points: 4
#     Node 12, Type 0, BuildingBlock: ICAMEG_clean_sbu_1, # of connection points: 4
#     Node 13, Type 0, BuildingBlock: ICAMEG_clean_sbu_1, # of connection points: 4
#     Node 14, Type 0, BuildingBlock: ICAMEG_clean_sbu_1, # of connection points: 4
#     Node 15, Type 0, BuildingBlock: ICAMEG_clean_sbu_1, # of connection points: 4
#     Node 16, Type 0, BuildingBlock: ICAMEG_clean_sbu_1, # of connection points: 4
#     Node 17, Type 0, BuildingBlock: ICAMEG_clean_sbu_1, # of connection points: 4
#     Node 18, Type 0, BuildingBlock: ICAMEG_clean_sbu_1, # of connection points: 4
#     Node 19, Type 0, BuildingBlock: ICAMEG_clean_sbu_1, # of connection points: 4
#     Node 20, Type 0, BuildingBlock: ICAMEG_clean_sbu_1, # of connection points: 4
#     Node 21, Type 0, BuildingBlock: ICAMEG_clean_sbu_1, # of connection points: 4
#     Node 22, Type 0, BuildingBlock: ICAMEG_clean_sbu_1, # of connection points: 4
#     Node 23, Type 0, BuildingBlock: ICAMEG_clean_sbu_1, # of connection points: 4
#     Node 24, Type 0, BuildingBlock: ICAMEG_clean_sbu_1, # of connection points: 4
#     Node 25, Type 0, BuildingBlock: ICAMEG_clean_sbu_1, # of connection points: 4
#     Node 26, Type 0, BuildingBlock: ICAMEG_clean_sbu_1, # of connection points: 4
#     Node 27, Type 0, BuildingBlock: ICAMEG_clean_sbu_1, # of connection points: 4
#     Node 28, Type 0, BuildingBlock: ICAMEG_clean_sbu_1, # of connection points: 4
#     Node 29, Type 0, BuildingBlock: ICAMEG_clean_sbu_1, # of connection points: 4
#     Node 30, Type 0, BuildingBlock: ICAMEG_clean_sbu_1, # of connection points: 4
#     Node 31, Type 0, BuildingBlock: ICAMEG_clean_sbu_1, # of connection points: 4
#     Edge 32, Type (0, 0), BuildingBlock: KIFKEQ_clean_linker_1, # of connection points: 2
#     Edge 33, Type (0, 0), BuildingBlock: KIFKEQ_clean_linker_1, # of connection points: 2
#     Edge 34, Type (0, 0), BuildingBlock: KIFKEQ_clean_linker_1, # of connection points: 2
#     Edge 35, Type (0, 0), BuildingBlock: KIFKEQ_clean_linker_1, # of connection points: 2
#     Edge 36, Type (0, 0), BuildingBlock: KIFKEQ_clean_linker_1, # of connection points: 2
#     Edge 37, Type (0, 0), BuildingBlock: KIFKEQ_clean_linker_1, # of connection points: 2
#     Edge 38, Type (0, 0), BuildingBlock: KIFKEQ_clean_linker_1, # of connection points: 2
#     Edge 39, Type (0, 0), BuildingBlock: KIFKEQ_clean_linker_1, # of connection points: 2
#     Edge 40, Type (0, 0), BuildingBlock: KIFKEQ_clean_linker_1, # of connection points: 2
#     Edge 41, Type (0, 0), BuildingBlock: KIFKEQ_clean_linker_1, # of connection points: 2
#     Edge 42, Type (0, 0), BuildingBlock: KIFKEQ_clean_linker_1, # of connection points: 2
#     Edge 43, Type (0, 0), BuildingBlock: KIFKEQ_clean_linker_1, # of connection points: 2
#     Edge 44, Type (0, 0), BuildingBlock: KIFKEQ_clean_linker_1, # of connection points: 2
#     Edge 45, Type (0, 0), BuildingBlock: KIFKEQ_clean_linker_1, # of connection points: 2
#     Edge 46, Type (0, 0), BuildingBlock: KIFKEQ_clean_linker_1, # of connection points: 2
#     Edge 47, Type (0, 0), BuildingBlock: KIFKEQ_clean_linker_1, # of connection points: 2
#     Edge 48, Type (0, 0), BuildingBlock: KIFKEQ_clean_linker_1, # of connection points: 2
#     Edge 49, Type (0, 0), BuildingBlock: KIFKEQ_clean_linker_1, # of connection points: 2
#     Edge 50, Type (0, 0), BuildingBlock: KIFKEQ_clean_linker_1, # of connection points: 2
#     Edge 51, Type (0, 0), BuildingBlock: KIFKEQ_clean_linker_1, # of connection points: 2
#     Edge 52, Type (0, 0), BuildingBlock: KIFKEQ_clean_linker_1, # of connection points: 2
#     Edge 53, Type (0, 0), BuildingBlock: KIFKEQ_clean_linker_1, # of connection points: 2
#     Edge 54, Type (0, 0), BuildingBlock: KIFKEQ_clean_linker_1, # of connection points: 2
#     Edge 55, Type (0, 0), BuildingBlock: KIFKEQ_clean_linker_1, # of connection points: 2
#     Edge 56, Type (0, 0), BuildingBlock: KIFKEQ_clean_linker_1, # of connection points: 2
#     Edge 57, Type (0, 0), BuildingBlock: KIFKEQ_clean_linker_1, # of connection points: 2
#     Edge 58, Type (0, 0), BuildingBlock: KIFKEQ_clean_linker_1, # of connection points: 2
#     Edge 59, Type (0, 0), BuildingBlock: KIFKEQ_clean_linker_1, # of connection points: 2
#     Edge 60, Type (0, 0), BuildingBlock: KIFKEQ_clean_linker_1, # of connection points: 2
#     Edge 61, Type (0, 0), BuildingBlock: KIFKEQ_clean_linker_1, # of connection points: 2
#     Edge 62, Type (0, 0), BuildingBlock: KIFKEQ_clean_linker_1, # of connection points: 2
#     Edge 63, Type (0, 0), BuildingBlock: KIFKEQ_clean_linker_1, # of connection points: 2
#     Edge 64, Type (0, 0), BuildingBlock: KIFKEQ_clean_linker_1, # of connection points: 2
#     Edge 65, Type (0, 0), BuildingBlock: KIFKEQ_clean_linker_1, # of connection points: 2
#     Edge 66, Type (0, 0), BuildingBlock: KIFKEQ_clean_linker_1, # of connection points: 2
#     Edge 67, Type (0, 0), BuildingBlock: KIFKEQ_clean_linker_1, # of connection points: 2
#     Edge 68, Type (0, 0), BuildingBlock: KIFKEQ_clean_linker_1, # of connection points: 2
#     Edge 69, Type (0, 0), BuildingBlock: KIFKEQ_clean_linker_1, # of connection points: 2
#     Edge 70, Type (0, 0), BuildingBlock: KIFKEQ_clean_linker_1, # of connection points: 2
#     Edge 71, Type (0, 0), BuildingBlock: KIFKEQ_clean_linker_1, # of connection points: 2
#     Edge 72, Type (0, 0), BuildingBlock: KIFKEQ_clean_linker_1, # of connection points: 2
#     Edge 73, Type (0, 0), BuildingBlock: KIFKEQ_clean_linker_1, # of connection points: 2
#     Edge 74, Type (0, 0), BuildingBlock: KIFKEQ_clean_linker_1, # of connection points: 2
#     Edge 75, Type (0, 0), BuildingBlock: KIFKEQ_clean_linker_1, # of connection points: 2
#     Edge 76, Type (0, 0), BuildingBlock: KIFKEQ_clean_linker_1, # of connection points: 2
#     Edge 77, Type (0, 0), BuildingBlock: KIFKEQ_clean_linker_1, # of connection points: 2
#     Edge 78, Type (0, 0), BuildingBlock: KIFKEQ_clean_linker_1, # of connection points: 2
#     Edge 79, Type (0, 0), BuildingBlock: KIFKEQ_clean_linker_1, # of connection points: 2
#     Edge 80, Type (0, 0), BuildingBlock: KIFKEQ_clean_linker_1, # of connection points: 2
#     Edge 81, Type (0, 0), BuildingBlock: KIFKEQ_clean_linker_1, # of connection points: 2
#     Edge 82, Type (0, 0), BuildingBlock: KIFKEQ_clean_linker_1, # of connection points: 2
#     Edge 83, Type (0, 0), BuildingBlock: KIFKEQ_clean_linker_1, # of connection points: 2
#     Edge 84, Type (0, 0), BuildingBlock: KIFKEQ_clean_linker_1, # of connection points: 2
#     Edge 85, Type (0, 0), BuildingBlock: KIFKEQ_clean_linker_1, # of connection points: 2
#     Edge 86, Type (0, 0), BuildingBlock: KIFKEQ_clean_linker_1, # of connection points: 2
#     Edge 87, Type (0, 0), BuildingBlock: KIFKEQ_clean_linker_1, # of connection points: 2
#     Edge 88, Type (0, 0), BuildingBlock: KIFKEQ_clean_linker_1, # of connection points: 2
#     Edge 89, Type (0, 0), BuildingBlock: KIFKEQ_clean_linker_1, # of connection points: 2
#     Edge 90, Type (0, 0), BuildingBlock: KIFKEQ_clean_linker_1, # of connection points: 2
#     Edge 91, Type (0, 0), BuildingBlock: KIFKEQ_clean_linker_1, # of connection points: 2
#     Edge 92, Type (0, 0), BuildingBlock: KIFKEQ_clean_linker_1, # of connection points: 2
#     Edge 93, Type (0, 0), BuildingBlock: KIFKEQ_clean_linker_1, # of connection points: 2
#     Edge 94, Type (0, 0), BuildingBlock: KIFKEQ_clean_linker_1, # of connection points: 2
#     Edge 95, Type (0, 0), BuildingBlock: KIFKEQ_clean_linker_1, # of connection points: 2
# Relax obj value: 0.078
# Max RMSD: 0.143
# Mean RMSD: 0.143
data_MOF--net-uoa--node1-ICAMEG_clean_sbu_1--edge1-KIFKEQ_clean_linker_1
_symmetry_space_group_name_H-M    P1
_symmetry_Int_Tables_number       1
_symmetry_cell_setting            triclinic
loop_
_symmetry_equiv_pos_as_xyz
'x, y, z'
_cell_length_a     82.929226
_cell_length_b     82.942744
_cell_length_c     29.990722
_cell_angle_alpha  90.003688
_cell_angle_beta   89.999706
_cell_angle_gamma 89.996318
loop_
_atom_site_label
_atom_site_type_symbol
_atom_site_fract_x
_atom_site_fract_y
_atom_site_fract_z
_atom_type_partial_charge
Co0 Co 0.00595 0.08905 0.06759 0.0
Co1 Co 0.04623 0.0798 0.05667 0.0
O2 O 0.02829 0.09012 0.08776 0.0
C3 C 0.00442 0.07842 0.16094 0.0
O4 O 0.01648 0.06869 0.15188 0.0
C5 C 0.05691 0.1137 0.06768 0.0
O6 O 0.04304 0.1182 0.05062 0.0
O7 O 0.03984 0.0899 -0.00111 0.0
O8 O 0.01284 0.09076 0.00438 0.0
H9 H 0.07269 0.04882 0.93261 0.0
H10 H 0.01545 0.11297 0.13617 0.0
O11 O 0.99853 0.08736 0.13064 0.0
H12 H 0.99388 0.14494 0.01104 0.0
H13 H 0.94672 0.10209 0.07559 0.0
H14 H 0.98887 0.07217 0.9943 0.0
H15 H 0.99448 0.11525 0.00716 0.0
H16 H 0.97513 0.10352 0.09965 0.0
O17 O 0.06025 0.09877 0.07144 0.0
H18 H 0.04995 0.06158 0.97213 0.0
H19 H 0.08137 0.07673 0.07581 0.0
H20 H 0.96064 0.07051 0.96888 0.0
H21 H 0.01495 0.14264 0.14164 0.0
H22 H 0.93934 0.08554 0.00965 0.0
H23 H 0.00415 0.15883 0.0787 0.0
O24 O 0.00706 0.0651 0.06299 0.0
H25 H 0.05774 0.07894 0.2212 0.0
H26 H 0.05458 0.04625 0.08411 0.0
H27 H 0.06156 0.03314 0.15535 0.0
H28 H 0.06318 0.04952 0.22454 0.0
H29 H 0.05069 0.09155 0.14933 0.0
H30 H 0.10449 0.06423 0.03725 0.0
H31 H 0.1002 0.0501 0.96519 0.0
O32 O 0.03264 0.0606 0.0416 0.0
C33 C 0.02584 0.09185 0.98196 0.0
C34 C 0.07471 0.05491 0.96404 0.0
C35 C 0.09255 0.06358 0.02274 0.0
N36 N 0.06431 0.0698 0.02636 0.0
C37 C 0.06187 0.06212 0.98663 0.0
C38 C 0.07943 0.07066 0.04437 0.0
C39 C 0.09014 0.05564 0.98232 0.0
C40 C 0.01059 0.11993 0.10882 0.0
N41 N 0.00494 0.11238 0.07145 0.0
C42 C 0.0104 0.13673 0.11203 0.0
C43 C 0.00436 0.14581 0.07668 0.0
C44 C 0.99861 0.13802 0.0387 0.0
C45 C 0.99902 0.1212 0.03662 0.0
C46 C 0.9559 0.09551 0.05751 0.0
C47 C 0.97969 0.07882 0.01207 0.0
C48 C 0.972 0.09624 0.07104 0.0
N49 N 0.98366 0.08803 0.04821 0.0
C50 C 0.96371 0.0778 0.99759 0.0
C51 C 0.95177 0.08623 0.0205 0.0
C52 C 0.01815 0.05591 0.04789 0.0
C53 C 0.05713 0.07168 0.19125 0.0
C54 C 0.05524 0.05346 0.11408 0.0
C55 C 0.05923 0.04597 0.15431 0.0
C56 C 0.06015 0.05517 0.19311 0.0
N57 N 0.05231 0.06967 0.11251 0.0
C58 C 0.05321 0.07877 0.15041 0.0
Co59 Co 0.15973 0.75727 0.31699 0.0
Co60 Co 0.17222 0.79703 0.30925 0.0
O61 O 0.16035 0.77954 0.33785 0.0
C62 C 0.17223 0.7555 0.40836 0.0
O63 O 0.18184 0.76741 0.39723 0.0
C64 C 0.13832 0.80809 0.31465 0.0
O65 O 0.13402 0.79357 0.30193 0.0
O66 O 0.16409 0.79078 0.24903 0.0
O67 O 0.15698 0.76462 0.25431 0.0
H68 H 0.20923 0.82184 0.19561 0.0
H69 H 0.13805 0.76762 0.3903 0.0
O70 O 0.16259 0.74955 0.37973 0.0
H71 H 0.10203 0.74878 0.27029 0.0
H72 H 0.14364 0.69885 0.3266 0.0
H73 H 0.17351 0.73959 0.23988 0.0
H74 H 0.13157 0.74774 0.26104 0.0
H75 H 0.14449 0.72719 0.35143 0.0
O76 O 0.1532 0.81173 0.318 0.0
H77 H 0.19431 0.79968 0.23169 0.0
H78 H 0.17523 0.83224 0.3274 0.0
H79 H 0.17286 0.71142 0.21364 0.0
H80 H 0.10859 0.76874 0.40114 0.0
H81 H 0.15785 0.69082 0.25714 0.0
H82 H 0.09037 0.75933 0.34079 0.0
O83 O 0.18357 0.75686 0.30788 0.0
H84 H 0.16747 0.80885 0.47311 0.0
H85 H 0.20479 0.80468 0.34562 0.0
H86 H 0.21549 0.81143 0.42005 0.0
H87 H 0.19676 0.81356 0.48444 0.0
H88 H 0.15731 0.80202 0.39818 0.0
H89 H 0.18985 0.85478 0.29217 0.0
H90 H 0.20704 0.84963 0.22585 0.0
O91 O 0.19131 0.78271 0.30003 0.0
C92 C 0.15909 0.77756 0.23207 0.0
C93 C 0.20178 0.82423 0.22449 0.0
C94 C 0.19089 0.84273 0.27864 0.0
N95 N 0.18389 0.81466 0.28156 0.0
C96 C 0.19331 0.81173 0.24508 0.0
C97 C 0.18258 0.82992 0.29835 0.0
C98 C 0.20054 0.83983 0.24146 0.0
C99 C 0.1302 0.76334 0.36408 0.0
N100 N 0.13652 0.75756 0.32515 0.0
C101 C 0.11353 0.76407 0.37033 0.0
C102 C 0.10331 0.75882 0.33642 0.0
C103 C 0.10985 0.75291 0.29684 0.0
C104 C 0.12658 0.75239 0.29174 0.0
C105 C 0.1502 0.70772 0.30733 0.0
C106 C 0.16687 0.73072 0.25885 0.0
C107 C 0.15076 0.72377 0.32128 0.0
N108 N 0.15896 0.73505 0.29698 0.0
C109 C 0.16659 0.71477 0.24389 0.0
C110 C 0.15817 0.70322 0.26834 0.0
C111 C 0.19425 0.7676 0.30009 0.0
C112 C 0.17574 0.80802 0.44529 0.0
C113 C 0.19657 0.80558 0.37347 0.0
C114 C 0.20269 0.80943 0.41553 0.0
C115 C 0.19218 0.81063 0.45164 0.0
N116 N 0.18043 0.80305 0.3675 0.0
C117 C 0.17005 0.80422 0.40273 0.0
Co118 Co 0.49578 0.91363 0.56779 0.0
Co119 Co 0.45528 0.92202 0.55578 0.0
O120 O 0.47338 0.91209 0.58742 0.0
C121 C 0.49683 0.92425 0.66122 0.0
O122 O 0.48455 0.93371 0.65219 0.0
C123 C 0.44589 0.88786 0.56763 0.0
O124 O 0.46055 0.88395 0.55518 0.0
O125 O 0.46218 0.91225 0.49812 0.0
O126 O 0.48916 0.91175 0.50448 0.0
H127 H 0.42871 0.95271 0.4314 0.0
H128 H 0.48694 0.88956 0.63667 0.0
O129 O 0.50297 0.91551 0.63089 0.0
H130 H 0.50926 0.85798 0.51178 0.0
H131 H 0.55525 0.90186 0.57704 0.0
H132 H 0.5127 0.9309 0.49494 0.0
H133 H 0.50785 0.88764 0.50753 0.0
H134 H 0.52682 0.89983 0.60053 0.0
O135 O 0.44163 0.90261 0.56899 0.0
H136 H 0.45155 0.94039 0.47154 0.0
H137 H 0.41997 0.92413 0.57355 0.0
H138 H 0.54096 0.93316 0.4701 0.0
H139 H 0.48829 0.85993 0.64256 0.0
H140 H 0.56247 0.91857 0.51127 0.0
H141 H 0.49946 0.84393 0.57973 0.0
O142 O 0.49414 0.93754 0.56316 0.0
H143 H 0.44298 0.92194 0.71985 0.0
H144 H 0.44592 0.95523 0.58383 0.0
H145 H 0.43828 0.96789 0.6552 0.0
H146 H 0.43676 0.9512 0.72385 0.0
H147 H 0.45067 0.9098 0.64786 0.0
H148 H 0.39676 0.93617 0.53435 0.0
H149 H 0.40107 0.95064 0.46282 0.0
O150 O 0.46848 0.94162 0.5418 0.0
C151 C 0.47627 0.91051 0.48167 0.0
C152 C 0.42668 0.94648 0.46261 0.0
C153 C 0.40875 0.93718 0.52036 0.0
N154 N 0.43712 0.93166 0.52499 0.0
C155 C 0.43958 0.93952 0.48555 0.0
C156 C 0.42193 0.93036 0.54235 0.0
C157 C 0.41118 0.9453 0.48023 0.0
C158 C 0.49198 0.8827 0.60939 0.0
N159 N 0.49734 0.89033 0.57183 0.0
C160 C 0.49265 0.86592 0.61283 0.0
C161 C 0.49888 0.85695 0.57753 0.0
C162 C 0.50437 0.86482 0.53938 0.0
C163 C 0.50348 0.88162 0.53708 0.0
C164 C 0.54599 0.90825 0.55879 0.0
C165 C 0.52198 0.92445 0.51289 0.0
C166 C 0.52987 0.90718 0.57199 0.0
N167 N 0.5181 0.91515 0.54894 0.0
C168 C 0.53797 0.9258 0.49873 0.0
C169 C 0.55003 0.91762 0.52187 0.0
C170 C 0.48288 0.94655 0.54824 0.0
C171 C 0.44353 0.92933 0.69014 0.0
C172 C 0.4453 0.94789 0.61357 0.0
C173 C 0.44094 0.95512 0.65387 0.0
C174 C 0.44008 0.94575 0.69237 0.0
N175 N 0.44865 0.93177 0.61164 0.0
C176 C 0.44781 0.9225 0.64924 0.0
Co177 Co 0.34142 0.24606 0.81874 0.0
Co178 Co 0.328 0.20655 0.81676 0.0
O179 O 0.34055 0.22416 0.8422 0.0
C180 C 0.32999 0.24962 0.91083 0.0
O181 O 0.31953 0.23826 0.90127 0.0
C182 C 0.36154 0.1942 0.82002 0.0
O183 O 0.36613 0.20781 0.80164 0.0
O184 O 0.33593 0.21148 0.75527 0.0
O185 O 0.34317 0.23769 0.75673 0.0
H186 H 0.2897 0.18066 0.70836 0.0
H187 H 0.36381 0.2359 0.89064 0.0
O188 O 0.33964 0.25469 0.88095 0.0
H189 H 0.39863 0.25236 0.76537 0.0
H190 H 0.35906 0.30412 0.82025 0.0
H191 H 0.32714 0.26295 0.741 0.0
H192 H 0.36903 0.25424 0.75924 0.0
H193 H 0.35782 0.27619 0.84834 0.0
O194 O 0.34663 0.19155 0.82716 0.0
H195 H 0.30544 0.20304 0.74049 0.0
H196 H 0.32407 0.17186 0.84032 0.0
H197 H 0.32816 0.29069 0.71155 0.0
H198 H 0.39336 0.23394 0.89836 0.0
H199 H 0.34421 0.3115 0.75129 0.0
H200 H 0.41098 0.24215 0.83536 0.0
O201 O 0.31747 0.24697 0.8118 0.0
H202 H 0.33341 0.19787 0.98195 0.0
H203 H 0.29546 0.2005 0.85558 0.0
H204 H 0.28503 0.19555 0.93138 0.0
H205 H 0.30407 0.19421 0.99521 0.0
H206 H 0.3433 0.2029 0.90567 0.0
H207 H 0.30861 0.14911 0.80909 0.0
H208 H 0.29123 0.15345 0.74271 0.0
O209 O 0.30929 0.22119 0.80622 0.0
C210 C 0.34083 0.22439 0.73632 0.0
C211 C 0.29723 0.17861 0.73729 0.0
C212 C 0.30786 0.1609 0.79378 0.0
N213 N 0.31569 0.18876 0.79218 0.0
C214 C 0.30617 0.19125 0.75564 0.0
C215 C 0.31664 0.17382 0.81121 0.0
C216 C 0.2981 0.16335 0.75656 0.0
C217 C 0.3714 0.23964 0.86323 0.0
N218 N 0.36471 0.24522 0.82457 0.0
C219 C 0.38812 0.23844 0.86774 0.0
C220 C 0.398 0.24303 0.83235 0.0
C221 C 0.39108 0.24874 0.79306 0.0
C222 C 0.37431 0.24974 0.78973 0.0
C223 C 0.35204 0.29516 0.80262 0.0
C224 C 0.33422 0.27191 0.75833 0.0
C225 C 0.35126 0.27934 0.81843 0.0
N226 N 0.34249 0.26794 0.79618 0.0
C227 C 0.33472 0.28762 0.74157 0.0
C228 C 0.34371 0.29929 0.76391 0.0
C229 C 0.30659 0.23633 0.80524 0.0
C230 C 0.325 0.19837 0.95439 0.0
C231 C 0.30381 0.19994 0.88318 0.0
C232 C 0.29784 0.19711 0.92602 0.0
C233 C 0.30853 0.19635 0.96181 0.0
N234 N 0.31998 0.20191 0.87616 0.0
C235 C 0.33053 0.20115 0.91108 0.0
Co236 Co 0.0065 0.91261 0.43036 0.0
Co237 Co 0.04658 0.92344 0.4383 0.0
O238 O 0.02871 0.91231 0.40914 0.0
C239 C 0.00286 0.92375 0.33681 0.0
O240 O 0.01296 0.93552 0.34563 0.0
C241 C 0.05735 0.8896 0.42888 0.0
O242 O 0.04305 0.88527 0.44324 0.0
O243 O 0.04071 0.91421 0.49759 0.0
O244 O 0.01378 0.91114 0.49373 0.0
H245 H 0.07293 0.95755 0.55614 0.0
H246 H 0.01646 0.88895 0.36142 0.0
O247 O 0.99883 0.91381 0.36713 0.0
H248 H 0.99629 0.85638 0.48713 0.0
H249 H 0.94769 0.89768 0.42417 0.0
H250 H 0.98921 0.92884 0.50435 0.0
H251 H 0.99603 0.88608 0.49098 0.0
H252 H 0.97602 0.89719 0.39916 0.0
O253 O 0.06098 0.90449 0.42581 0.0
H254 H 0.05028 0.94361 0.51942 0.0
H255 H 0.08161 0.92661 0.41779 0.0
H256 H 0.96105 0.92957 0.53071 0.0
H257 H 0.01674 0.8593 0.35586 0.0
H258 H 0.94006 0.91391 0.49051 0.0
H259 H 0.00668 0.8428 0.41913 0.0
O260 O 0.00678 0.93666 0.43501 0.0
H261 H 0.05705 0.9218 0.27331 0.0
H262 H 0.05419 0.95662 0.40638 0.0
H263 H 0.06056 0.96867 0.33329 0.0
H264 H 0.06205 0.95121 0.26612 0.0
H265 H 0.05062 0.91026 0.34699 0.0
H266 H 0.10465 0.94026 0.45358 0.0
H267 H 0.10037 0.95592 0.52319 0.0
O268 O 0.0326 0.94248 0.45133 0.0
C269 C 0.02703 0.91127 0.5154 0.0
C270 C 0.07495 0.95078 0.5258 0.0
C271 C 0.09275 0.94106 0.46827 0.0
N272 N 0.0646 0.93433 0.46649 0.0
C273 C 0.06216 0.94288 0.50482 0.0
C274 C 0.07967 0.93331 0.44824 0.0
C275 C 0.09034 0.94985 0.50731 0.0
C276 C 0.0119 0.88187 0.38891 0.0
N277 N 0.00624 0.88925 0.42654 0.0
C278 C 0.01215 0.86507 0.38564 0.0
C279 C 0.00654 0.85582 0.42118 0.0
C280 C 1.00073 0.86344 0.45937 0.0
C281 C 1.00068 0.88026 0.46148 0.0
C282 C 0.95673 0.90453 0.44201 0.0
C283 C 0.98016 0.92192 0.48684 0.0
C284 C 0.97278 0.90433 0.42794 0.0
N285 N 0.98428 0.91289 0.45048 0.0
C286 C 0.96423 0.92242 0.50185 0.0
C287 C 0.95246 0.91364 0.47925 0.0
C288 C 0.01781 0.94647 0.44722 0.0
C289 C 0.0565 0.92952 0.30236 0.0
C290 C 0.05481 0.94894 0.3773 0.0
C291 C 0.05844 0.95583 0.33601 0.0
C292 C 0.05928 0.94603 0.29834 0.0
N293 N 0.05216 0.93273 0.38099 0.0
C294 C 0.05292 0.92305 0.3442 0.0
Co295 Co 0.34483 0.75348 0.68052 0.0
Co296 Co 0.33254 0.79322 0.68874 0.0
O297 O 0.34402 0.77567 0.65914 0.0
C298 C 0.33192 0.75099 0.58993 0.0
O299 O 0.32176 0.7624 0.60133 0.0
C300 C 0.36615 0.80466 0.67901 0.0
O301 O 0.37078 0.79031 0.69229 0.0
O302 O 0.34197 0.78745 0.74781 0.0
O303 O 0.3475 0.76096 0.74281 0.0
H304 H 0.29819 0.81838 0.80796 0.0
H305 H 0.3664 0.76361 0.60672 0.0
O306 O 0.34201 0.74561 0.61816 0.0
H307 H 0.40261 0.7457 0.72738 0.0
H308 H 0.36147 0.69518 0.67226 0.0
H309 H 0.33113 0.73588 0.7579 0.0
H310 H 0.37309 0.7445 0.73681 0.0
H311 H 0.36036 0.72344 0.64678 0.0
O312 O 0.35118 0.80806 0.67655 0.0
H313 H 0.3126 0.79618 0.77048 0.0
H314 H 0.32843 0.82821 0.669 0.0
H315 H 0.33203 0.7078 0.78476 0.0
H316 H 0.39585 0.76487 0.59573 0.0
H317 H 0.34729 0.68722 0.74181 0.0
H318 H 0.41417 0.75593 0.6564 0.0
O319 O 0.32103 0.75298 0.68985 0.0
H320 H 0.33388 0.80391 0.52384 0.0
H321 H 0.2992 0.80029 0.65702 0.0
H322 H 0.28696 0.80635 0.58396 0.0
H323 H 0.30435 0.80819 0.51672 0.0
H324 H 0.3456 0.79779 0.5975 0.0
H325 H 0.31428 0.85079 0.70558 0.0
H326 H 0.29898 0.84592 0.77549 0.0
O327 O 0.31378 0.77878 0.70156 0.0
C328 C 0.34633 0.77403 0.76489 0.0
C329 C 0.30478 0.82064 0.77746 0.0
C330 C 0.31384 0.83884 0.72003 0.0
N331 N 0.32127 0.81088 0.71748 0.0
C332 C 0.31294 0.80811 0.75602 0.0
C333 C 0.32186 0.82602 0.69954 0.0
C334 C 0.30524 0.8361 0.75924 0.0
C335 C 0.37429 0.75952 0.63309 0.0
N336 N 0.36803 0.75391 0.67228 0.0
C337 C 0.39096 0.76033 0.62675 0.0
C338 C 0.40123 0.75534 0.66083 0.0
C339 C 0.39475 0.74962 0.70068 0.0
C340 C 0.37802 0.749 0.70588 0.0
C341 C 0.3548 0.70404 0.69129 0.0
C342 C 0.33787 0.72702 0.73915 0.0
C343 C 0.3541 0.72005 0.67698 0.0
N344 N 0.34577 0.73132 0.70098 0.0
C345 C 0.3383 0.71112 0.75447 0.0
C346 C 0.34685 0.69958 0.73033 0.0
C347 C 0.31065 0.76371 0.70028 0.0
C348 C 0.32619 0.8032 0.55292 0.0
C349 C 0.30684 0.80107 0.62792 0.0
C350 C 0.29985 0.80453 0.58665 0.0
C351 C 0.30961 0.80557 0.54894 0.0
N352 N 0.32311 0.79877 0.63157 0.0
C353 C 0.33276 0.79981 0.59476 0.0
Co354 Co 0.49474 0.09111 0.92814 0.0
Co355 Co 0.4551 0.07807 0.92966 0.0
O356 O 0.47288 0.09043 0.90438 0.0
C357 C 0.49836 0.07965 0.83604 0.0
O358 O 0.48692 0.06925 0.84548 0.0
C359 C 0.44308 0.11171 0.92602 0.0
O360 O 0.4567 0.11616 0.94466 0.0
O361 O 0.45998 0.08603 0.99113 0.0
O362 O 0.48627 0.09296 0.99007 0.0
H363 H 0.42863 0.04017 0.03807 0.0
H364 H 0.48489 0.11357 0.8561 0.0
O365 O 0.50346 0.08925 0.86601 0.0
H366 H 0.50152 0.14826 0.98148 0.0
H367 H 0.55299 0.10817 0.92735 0.0
H368 H 0.51136 0.07669 0.00613 0.0
H369 H 0.50311 0.11864 0.98767 0.0
H370 H 0.52509 0.1072 0.89891 0.0
O371 O 0.4403 0.09682 0.91886 0.0
H372 H 0.45122 0.05567 0.00615 0.0
H373 H 0.42042 0.07441 0.90557 0.0
H374 H 0.53907 0.07743 0.03591 0.0
H375 H 0.48322 0.14313 0.84831 0.0
H376 H 0.56011 0.09325 0.99642 0.0
H377 H 0.49152 0.16068 0.91137 0.0
O378 O 0.49541 0.06716 0.9351 0.0
H379 H 0.4468 0.08334 0.76429 0.0
H380 H 0.44883 0.04553 0.89104 0.0
H381 H 0.44394 0.03506 0.81527 0.0
H382 H 0.44291 0.05403 0.75124 0.0
H383 H 0.45177 0.09328 0.84055 0.0
H384 H 0.39746 0.05919 0.93658 0.0
H385 H 0.40151 0.04188 0.00324 0.0
O386 O 0.46954 0.05922 0.9406 0.0
C387 C 0.4729 0.09081 0.01027 0.0
C388 C 0.42672 0.04767 0.00902 0.0
C389 C 0.40922 0.05836 0.9521 0.0
N390 N 0.43715 0.06595 0.95409 0.0
C391 C 0.43947 0.05647 0.99078 0.0
C392 C 0.42225 0.067 0.93479 0.0
C393 C 0.4115 0.04864 0.98947 0.0
C394 C 0.48866 0.12113 0.88353 0.0
N395 N 0.49414 0.11439 0.92226 0.0
C396 C 0.48763 0.13786 0.87899 0.0
C397 C 0.49227 0.1477 0.91441 0.0
C398 C 0.49787 0.14074 0.95377 0.0
C399 C 0.4987 0.12396 0.95714 0.0
C400 C 0.54392 0.10125 0.94488 0.0
C401 C 0.52042 0.08368 0.98889 0.0
C402 C 0.52812 0.10062 0.92887 0.0
N403 N 0.51659 0.09197 0.95098 0.0
C404 C 0.53611 0.08401 0.00585 0.0
C405 C 0.54791 0.09288 0.98365 0.0
C406 C 0.48466 0.05638 0.94169 0.0
C407 C 0.44717 0.07496 0.79193 0.0
C408 C 0.4484 0.05386 0.86336 0.0
C409 C 0.4456 0.04786 0.82054 0.0
C410 C 0.44501 0.05851 0.78463 0.0
N411 N 0.45051 0.07001 0.87027 0.0
C412 C 0.44991 0.08053 0.83523 0.0
Co413 Co 0.16267 0.24575 0.18093 0.0
Co414 Co 0.17237 0.20558 0.19194 0.0
O415 O 0.16189 0.22341 0.16087 0.0
C416 C 0.17359 0.24731 0.08801 0.0
O417 O 0.18352 0.23547 0.09752 0.0
C418 C 0.1385 0.1948 0.18145 0.0
O419 O 0.13405 0.20867 0.19862 0.0
O420 O 0.16235 0.21193 0.24985 0.0
O421 O 0.1609 0.2389 0.24403 0.0
H422 H 0.20376 0.17933 0.31555 0.0
H423 H 0.13902 0.2359 0.112 0.0
O424 O 0.16443 0.2531 0.11795 0.0
H425 H 0.1065 0.25726 0.23634 0.0
H426 H 0.14898 0.30481 0.17232 0.0
H427 H 0.17916 0.26307 0.25447 0.0
H428 H 0.13619 0.25703 0.24073 0.0
H429 H 0.14795 0.27638 0.14837 0.0
O430 O 0.15343 0.19146 0.17746 0.0
H431 H 0.19079 0.20198 0.2762 0.0
H432 H 0.17558 0.17045 0.17285 0.0
H433 H 0.18042 0.29133 0.27978 0.0
H434 H 0.10936 0.23602 0.10602 0.0
H435 H 0.16526 0.31243 0.23859 0.0
H436 H 0.09289 0.24671 0.16856 0.0
O437 O 0.18664 0.24491 0.18598 0.0
H438 H 0.17302 0.19404 0.02742 0.0
H439 H 0.20593 0.19744 0.16408 0.0
H440 H 0.21897 0.19054 0.09267 0.0
H441 H 0.20248 0.18879 0.0237 0.0
H442 H 0.16049 0.20101 0.09944 0.0
H443 H 0.18829 0.14742 0.21124 0.0
H444 H 0.20256 0.1518 0.28304 0.0
O445 O 0.1915 0.21932 0.20675 0.0
C446 C 0.1601 0.22591 0.26658 0.0
C447 C 0.19762 0.17727 0.28422 0.0
C448 C 0.18891 0.15936 0.22571 0.0
N449 N 0.18253 0.18757 0.22214 0.0
C450 C 0.19029 0.19006 0.26173 0.0
C451 C 0.18171 0.17244 0.20418 0.0
C452 C 0.19693 0.16183 0.26598 0.0
C453 C 0.13194 0.24071 0.13918 0.0
N454 N 0.13934 0.2465 0.17662 0.0
C455 C 0.11515 0.24069 0.13568 0.0
C456 C 0.10591 0.24666 0.17081 0.0
C457 C 0.11354 0.25257 0.20886 0.0
C458 C 0.13036 0.25237 0.21122 0.0
C459 C 0.15562 0.29572 0.19059 0.0
C460 C 0.17246 0.27217 0.23651 0.0
C461 C 0.15512 0.27961 0.17712 0.0
N462 N 0.1634 0.26806 0.20019 0.0
C463 C 0.17325 0.28816 0.25094 0.0
C464 C 0.16475 0.29999 0.22778 0.0
C465 C 0.19598 0.2339 0.20079 0.0
C466 C 0.18033 0.1947 0.05727 0.0
C467 C 0.19867 0.19672 0.1342 0.0
C468 C 0.20612 0.19278 0.09388 0.0
C469 C 0.19686 0.19179 0.05519 0.0
N470 N 0.18244 0.19954 0.13598 0.0
C471 C 0.17328 0.19857 0.0982 0.0
Co472 Co 0.99513 0.90938 0.93174 0.0
Co473 Co 0.95583 0.92318 0.93438 0.0
O474 O 0.97322 0.91041 0.90882 0.0
C475 C 0.99987 0.92042 0.83893 0.0
O476 O 0.99015 0.93247 0.84798 0.0
C477 C 0.94329 0.88974 0.93272 0.0
O478 O 0.95684 0.88529 0.95169 0.0
O479 O 0.96086 0.91551 0.99609 0.0
O480 O 0.9871 0.90849 0.9943 0.0
H481 H 0.93061 0.96228 0.04184 0.0
H482 H 0.9842 0.88637 0.86223 0.0
O483 O 0.00342 0.91016 0.86895 0.0
H484 H 1.00076 0.85271 0.98979 0.0
H485 H 0.05288 0.89071 0.92956 0.0
H486 H 0.01269 0.92426 0.00751 0.0
H487 H 0.00318 0.88232 0.99326 0.0
H488 H 0.02483 0.89212 0.90247 0.0
O489 O 0.94067 0.90461 0.92481 0.0
H490 H 0.95276 0.94622 0.00972 0.0
H491 H 0.92107 0.92721 0.9117 0.0
H492 H 0.04057 0.9231 0.03592 0.0
H493 H 0.98169 0.8568 0.85718 0.0
H494 H 0.06089 0.90623 0.99684 0.0
H495 H 0.98995 0.83976 0.92135 0.0
O496 O 0.9964 0.93341 0.93682 0.0
H497 H 0.94655 0.91725 0.76956 0.0
H498 H 0.94986 0.95561 0.89484 0.0
H499 H 0.94462 0.9658 0.81896 0.0
H500 H 0.94291 0.94655 0.75567 0.0
H501 H 0.95188 0.9076 0.84591 0.0
H502 H 0.89853 0.94298 0.94296 0.0
H503 H 0.90324 0.96071 0.00843 0.0
O504 O 0.9707 0.94177 0.94398 0.0
C505 C 0.97389 0.91094 0.01503 0.0
C506 C 0.9284 0.95459 0.01333 0.0
C507 C 0.91039 0.94374 0.95786 0.0
N508 N 0.93821 0.93575 0.95897 0.0
C509 C 0.9409 0.94547 0.99498 0.0
C510 C 0.92319 0.93479 0.94043 0.0
C511 C 0.91305 0.9537 0.99457 0.0
C512 C 0.98797 0.87903 0.89014 0.0
N513 N 0.99388 0.88606 0.92797 0.0
C514 C 0.98646 0.86229 0.88714 0.0
C515 C 0.99107 0.85274 0.92318 0.0
C516 C 0.99712 0.86 0.96161 0.0
C517 C 0.99843 0.87678 0.96344 0.0
C518 C 0.04414 0.89809 0.9469 0.0
C519 C 0.02144 0.91683 0.99045 0.0
C520 C 0.02825 0.89897 0.93165 0.0
N521 N 0.01712 0.9082 0.95353 0.0
C522 C 0.03722 0.91625 0.00663 0.0
C523 C 0.04862 0.90679 0.98467 0.0
C524 C 0.98587 0.94438 0.94382 0.0
C525 C 0.94722 0.92576 0.79687 0.0
C526 C 0.94917 0.94717 0.86747 0.0
C527 C 0.94616 0.953 0.82459 0.0
C528 C 0.9452 0.9422 0.7891 0.0
N529 N 0.9511 0.93102 0.87485 0.0
C530 C 0.95018 0.92036 0.84022 0.0
Co531 Co 0.84005 0.24788 0.67839 0.0
Co532 Co 0.83078 0.20758 0.68878 0.0
O533 O 0.84097 0.2256 0.65778 0.0
C534 C 0.82859 0.24958 0.5859 0.0
O535 O 0.8189 0.23757 0.59571 0.0
C536 C 0.86468 0.19698 0.67681 0.0
O537 O 0.86919 0.21085 0.69385 0.0
O538 O 0.84104 0.21384 0.74646 0.0
O539 O 0.8422 0.24084 0.74137 0.0
H540 H 0.8002 0.18077 0.813 0.0
H541 H 0.86346 0.23857 0.60824 0.0
O542 O 0.83787 0.25541 0.61551 0.0
H543 H 0.89637 0.25971 0.73208 0.0
H544 H 0.85314 0.30709 0.6706 0.0
H545 H 0.82377 0.26483 0.75295 0.0
H546 H 0.8667 0.25912 0.73762 0.0
H547 H 0.8543 0.27874 0.64594 0.0
O548 O 0.84974 0.19362 0.67335 0.0
H549 H 0.8128 0.20362 0.77362 0.0
H550 H 0.82773 0.17248 0.66905 0.0
H551 H 0.82238 0.293 0.77897 0.0
H552 H 0.89309 0.23906 0.60112 0.0
H553 H 0.83714 0.31436 0.73768 0.0
H554 H 0.90975 0.24965 0.6634 0.0
O555 O 0.81613 0.2468 0.68437 0.0
H556 H 0.82945 0.19656 0.52402 0.0
H557 H 0.79717 0.19924 0.66193 0.0
H558 H 0.78384 0.19248 0.59082 0.0
H559 H 0.80002 0.1911 0.52122 0.0
H560 H 0.84227 0.20339 0.59577 0.0
H561 H 0.81538 0.14926 0.70745 0.0
H562 H 0.80144 0.15334 0.77989 0.0
O563 O 0.81162 0.22109 0.70454 0.0
C564 C 0.84321 0.22778 0.76355 0.0
C565 C 0.8062 0.17884 0.7814 0.0
C566 C 0.81474 0.16115 0.72219 0.0
N567 N 0.82091 0.18941 0.71897 0.0
C568 C 0.81333 0.19174 0.7589 0.0
C569 C 0.82175 0.17434 0.70066 0.0
C570 C 0.80692 0.16345 0.76282 0.0
C571 C 0.87062 0.24334 0.63531 0.0
N572 N 0.86335 0.24888 0.67323 0.0
C573 C 0.88739 0.24352 0.63116 0.0
C574 C 0.89674 0.24944 0.66615 0.0
C575 C 0.88924 0.25508 0.7047 0.0
C576 C 0.87243 0.25468 0.70771 0.0
C577 C 0.84667 0.29789 0.68891 0.0
C578 C 0.83029 0.27404 0.73494 0.0
C579 C 0.84726 0.28182 0.67505 0.0
N580 N 0.8392 0.27013 0.69817 0.0
C581 C 0.82943 0.28998 0.74977 0.0
C582 C 0.8377 0.30196 0.72656 0.0
C583 C 0.80696 0.23564 0.69917 0.0
C584 C 0.82228 0.19706 0.55415 0.0
C585 C 0.80429 0.19868 0.63178 0.0
C586 C 0.79668 0.19482 0.59163 0.0
C587 C 0.80576 0.19403 0.55259 0.0
N588 N 0.8205 0.20162 0.63305 0.0
C589 C 0.82949 0.20085 0.59492 0.0
Co590 Co 0.50401 0.09257 0.42616 0.0
Co591 Co 0.54363 0.08039 0.43496 0.0
O592 O 0.52626 0.09212 0.40554 0.0
C593 C 0.50046 0.08137 0.33307 0.0
O594 O 0.51031 0.06947 0.34273 0.0
C595 C 0.55576 0.1139 0.42854 0.0
O596 O 0.54205 0.11857 0.44618 0.0
O597 O 0.53783 0.08962 0.49446 0.0
O598 O 0.51109 0.09364 0.48936 0.0
H599 H 0.56841 0.04549 0.55357 0.0
H600 H 0.515 0.11591 0.3576 0.0
O601 O 0.49653 0.09159 0.36279 0.0
H602 H 0.49623 0.14905 0.48388 0.0
H603 H 0.44586 0.10978 0.41842 0.0
H604 H 0.48585 0.0771 0.49992 0.0
H605 H 0.49468 0.11938 0.48725 0.0
H606 H 0.47428 0.10912 0.39413 0.0
O607 O 0.55856 0.09893 0.4229 0.0
H608 H 0.54635 0.06017 0.51622 0.0
H609 H 0.57862 0.07609 0.41542 0.0
H610 H 0.4576 0.07751 0.52554 0.0
H611 H 0.51665 0.14554 0.35268 0.0
H612 H 0.43738 0.09394 0.48468 0.0
H613 H 0.50727 0.16232 0.4162 0.0
O614 O 0.5034 0.06856 0.43109 0.0
H615 H 0.55453 0.08219 0.27018 0.0
H616 H 0.55076 0.04715 0.40254 0.0
H617 H 0.55701 0.03513 0.32934 0.0
H618 H 0.55896 0.0527 0.2625 0.0
H619 H 0.54819 0.09368 0.34396 0.0
H620 H 0.60106 0.06168 0.45187 0.0
H621 H 0.596 0.04619 0.52137 0.0
O622 O 0.52903 0.0617 0.44703 0.0
C623 C 0.52413 0.09292 0.51176 0.0
C624 C 0.57076 0.05216 0.52324 0.0
C625 C 0.58909 0.06127 0.4662 0.0
N626 N 0.56118 0.0689 0.46356 0.0
C627 C 0.55831 0.06047 0.50188 0.0
C628 C 0.57634 0.06944 0.44578 0.0
C629 C 0.58624 0.05257 0.50518 0.0
C630 C 0.51074 0.12313 0.38519 0.0
N631 N 0.50467 0.11592 0.42257 0.0
C632 C 0.51177 0.1399 0.38229 0.0
C633 C 0.50653 0.14931 0.41797 0.0
C634 C 0.50034 0.14187 0.45597 0.0
C635 C 0.49952 0.12506 0.45772 0.0
C636 C 0.45456 0.10259 0.43653 0.0
C637 C 0.47714 0.08434 0.48207 0.0
C638 C 0.47066 0.10214 0.42286 0.0
N639 N 0.48173 0.09315 0.44572 0.0
C640 C 0.46115 0.08449 0.49669 0.0
C641 C 0.44981 0.0937 0.47372 0.0
C642 C 0.51408 0.0583 0.44294 0.0
C643 C 0.55376 0.07441 0.29907 0.0
C644 C 0.55153 0.05486 0.37361 0.0
C645 C 0.55511 0.04799 0.33225 0.0
C646 C 0.55622 0.05786 0.29477 0.0
N647 N 0.54916 0.0711 0.37757 0.0
C648 C 0.55022 0.08086 0.34097 0.0
Co649 Co 0.66294 0.75741 0.18514 0.0
Co650 Co 0.67331 0.79771 0.1899 0.0
O651 O 0.66227 0.77943 0.16263 0.0
C652 C 0.67394 0.75481 0.09227 0.0
O653 O 0.68386 0.7667 0.10127 0.0
C654 C 0.63922 0.80823 0.18267 0.0
O655 O 0.63507 0.79453 0.20134 0.0
O656 O 0.66454 0.79222 0.25005 0.0
O657 O 0.66095 0.76528 0.24769 0.0
H658 H 0.70765 0.82587 0.30399 0.0
H659 H 0.63948 0.76665 0.11498 0.0
O660 O 0.66482 0.7492 0.12265 0.0
H661 H 0.60661 0.7466 0.24027 0.0
H662 H 0.64924 0.69828 0.1822 0.0
H663 H 0.679 0.74113 0.26111 0.0
H664 H 0.6363 0.74671 0.24506 0.0
H665 H 0.64834 0.72637 0.15526 0.0
O666 O 0.65407 0.81157 0.17681 0.0
H667 H 0.69394 0.8026 0.26967 0.0
H668 H 0.67571 0.83255 0.16654 0.0
H669 H 0.68012 0.71322 0.28942 0.0
H670 H 0.60983 0.76662 0.10855 0.0
H671 H 0.66517 0.69157 0.24985 0.0
H672 H 0.59318 0.7566 0.17158 0.0
O673 O 0.68693 0.75812 0.1906 0.0
H674 H 0.67055 0.8066 0.02429 0.0
H675 H 0.7062 0.80543 0.15587 0.0
H676 H 0.71774 0.81117 0.08176 0.0
H677 H 0.69987 0.81179 0.01532 0.0
H678 H 0.65953 0.80081 0.09894 0.0
H679 H 0.68913 0.85619 0.19986 0.0
H680 H 0.70529 0.85292 0.26903 0.0
O681 O 0.69268 0.78422 0.20328 0.0
C682 C 0.66129 0.7787 0.26849 0.0
C683 C 0.70065 0.82746 0.27385 0.0
C684 C 0.69024 0.84447 0.21544 0.0
N685 N 0.68403 0.8162 0.21619 0.0
C686 C 0.69287 0.81431 0.25426 0.0
C687 C 0.68262 0.83105 0.19681 0.0
C688 C 0.69931 0.84263 0.25423 0.0
C689 C 0.63232 0.76215 0.14241 0.0
N690 N 0.63961 0.75669 0.18039 0.0
C691 C 0.61554 0.76221 0.13863 0.0
C692 C 0.6062 0.75661 0.17403 0.0
C693 C 0.61373 0.75102 0.2126 0.0
C694 C 0.63054 0.75116 0.21522 0.0
C695 C 0.65579 0.70761 0.19977 0.0
C696 C 0.67238 0.73179 0.24388 0.0
C697 C 0.65536 0.72353 0.18461 0.0
N698 N 0.66352 0.73538 0.20679 0.0
C699 C 0.6731 0.716 0.25999 0.0
C700 C 0.66472 0.70386 0.23774 0.0
C701 C 0.69673 0.7694 0.20101 0.0
C702 C 0.67845 0.80643 0.05301 0.0
C703 C 0.69834 0.80568 0.12712 0.0
C704 C 0.70494 0.80896 0.08525 0.0
C705 C 0.69491 0.80931 0.04799 0.0
N706 N 0.68219 0.80288 0.13178 0.0
C707 C 0.67227 0.80323 0.09541 0.0
Co708 Co 0.99711 0.09281 0.56617 0.0
Co709 Co 0.95716 0.0812 0.55919 0.0
O710 O 0.97494 0.09262 0.58774 0.0
C711 C 0.99958 0.08087 0.65791 0.0
O712 O 0.988 0.07075 0.64755 0.0
C713 C 0.94587 0.11504 0.56563 0.0
O714 O 0.9597 0.11943 0.54809 0.0
O715 O 0.96294 0.09009 0.49929 0.0
O716 O 0.98957 0.09496 0.5038 0.0
H717 H 0.93102 0.04645 0.44249 0.0
H718 H 0.98711 0.11532 0.63789 0.0
O719 O 0.00503 0.09056 0.62872 0.0
H720 H 0.00581 0.14991 0.51458 0.0
H721 H 0.05569 0.10853 0.5726 0.0
H722 H 0.01435 0.07812 0.48955 0.0
H723 H 0.00669 0.12029 0.50777 0.0
H724 H 0.02746 0.10813 0.59846 0.0
O725 O 0.94273 0.10013 0.57119 0.0
H726 H 0.95359 0.06074 0.47862 0.0
H727 H 0.92217 0.07782 0.58003 0.0
H728 H 0.04241 0.0783 0.46232 0.0
H729 H 0.98613 0.14489 0.64625 0.0
H730 H 0.06331 0.09359 0.50396 0.0
H731 H 0.99548 0.16239 0.58424 0.0
O732 O 0.99718 0.06889 0.5587 0.0
H733 H 0.94706 0.08388 0.72427 0.0
H734 H 0.9495 0.04824 0.59286 0.0
H735 H 0.94345 0.03663 0.66669 0.0
H736 H 0.9422 0.05451 0.73306 0.0
H737 H 0.95318 0.09496 0.64988 0.0
H738 H 0.89924 0.06381 0.5448 0.0
H739 H 0.90361 0.04793 0.47562 0.0
O740 O 0.97123 0.06212 0.54707 0.0
C741 C 0.97646 0.09396 0.48185 0.0
C742 C 0.92897 0.0533 0.47269 0.0
C743 C 0.91113 0.06306 0.53007 0.0
N744 N 0.93922 0.07004 0.5315 0.0
C745 C 0.94171 0.06139 0.49335 0.0
C746 C 0.92415 0.07101 0.54979 0.0
C747 C 0.91359 0.05415 0.49127 0.0
C748 C 0.99135 0.12286 0.61093 0.0
N749 N 0.99703 0.11609 0.57247 0.0
C750 C 0.9907 0.13959 0.61579 0.0
C751 C 0.99593 0.14941 0.58095 0.0
C752 C 0.00172 0.14241 0.54185 0.0
C753 C 0.00216 0.12563 0.53814 0.0
C754 C 0.04669 0.10183 0.55415 0.0
C755 C 0.02336 0.08486 0.50775 0.0
C756 C 0.0307 0.10152 0.5687 0.0
N757 N 0.01926 0.09316 0.54542 0.0
C758 C 0.03923 0.08489 0.49222 0.0
C759 C 0.05096 0.09346 0.51562 0.0
C760 C 0.98623 0.05867 0.54874 0.0
C761 C 0.94752 0.07598 0.69559 0.0
C762 C 0.94901 0.05609 0.62157 0.0
C763 C 0.94554 0.04945 0.66329 0.0
C764 C 0.94482 0.05949 0.70051 0.0
N765 N 0.95164 0.07227 0.61701 0.0
C766 C 0.95092 0.08219 0.65334 0.0
Co767 Co 0.661 0.24607 0.31804 0.0
Co768 Co 0.67191 0.20607 0.31018 0.0
O769 O 0.66075 0.22389 0.33922 0.0
C770 C 0.67235 0.24974 0.41131 0.0
O771 O 0.68407 0.23964 0.40204 0.0
C772 C 0.63812 0.19479 0.31804 0.0
O773 O 0.63368 0.20848 0.29984 0.0
O774 O 0.66259 0.21184 0.25083 0.0
O775 O 0.65956 0.23878 0.25468 0.0
H776 H 0.70586 0.17955 0.19225 0.0
H777 H 0.63739 0.23578 0.38669 0.0
O778 O 0.66222 0.25373 0.38136 0.0
H779 H 0.60472 0.25594 0.26114 0.0
H780 H 0.64585 0.3048 0.32446 0.0
H781 H 0.67713 0.26344 0.244 0.0
H782 H 0.63443 0.25653 0.25754 0.0
H783 H 0.64547 0.27646 0.34937 0.0
O784 O 0.65304 0.19171 0.32356 0.0
H785 H 0.69197 0.20225 0.22886 0.0
H786 H 0.6752 0.1711 0.33119 0.0
H787 H 0.67774 0.29161 0.21775 0.0
H788 H 0.60772 0.23511 0.39193 0.0
H789 H 0.66202 0.31252 0.2581 0.0
H790 H 0.59118 0.24518 0.32876 0.0
O791 O 0.68505 0.24587 0.31324 0.0
H792 H 0.6707 0.19585 0.47535 0.0
H793 H 0.70519 0.19865 0.34161 0.0
H794 H 0.71745 0.19243 0.41454 0.0
H795 H 0.70015 0.19097 0.48205 0.0
H796 H 0.65896 0.20214 0.40182 0.0
H797 H 0.68882 0.14802 0.29553 0.0
H798 H 0.70433 0.15218 0.22562 0.0
O799 O 0.69086 0.22007 0.29658 0.0
C800 C 0.6597 0.22554 0.23298 0.0
C801 C 0.69915 0.17758 0.22272 0.0
C802 C 0.68957 0.15988 0.28065 0.0
N803 N 0.68279 0.18802 0.28211 0.0
C804 C 0.69127 0.1904 0.24363 0.0
C805 C 0.68184 0.17299 0.30061 0.0
C806 C 0.69828 0.16223 0.24144 0.0
C807 C 0.63028 0.24032 0.35922 0.0
N808 N 0.63764 0.2462 0.32184 0.0
C809 C 0.61348 0.23985 0.36232 0.0
C810 C 0.6042 0.24548 0.32684 0.0
C811 C 0.6118 0.2515 0.28887 0.0
C812 C 0.62862 0.25175 0.28693 0.0
C813 C 0.65273 0.2958 0.30656 0.0
C814 C 0.67018 0.27245 0.26158 0.0
C815 C 0.65259 0.27974 0.32057 0.0
N816 N 0.66118 0.26829 0.29796 0.0
C817 C 0.67061 0.28839 0.24663 0.0
C818 C 0.6618 0.30012 0.26931 0.0
C819 C 0.69484 0.23486 0.30069 0.0
C820 C 0.67835 0.1964 0.44615 0.0
C821 C 0.69759 0.19806 0.37084 0.0
C822 C 0.70459 0.1945 0.41204 0.0
C823 C 0.69488 0.19368 0.4499 0.0
N824 N 0.68136 0.20065 0.36742 0.0
C825 C 0.67176 0.19989 0.4044 0.0
Co826 Co 0.50503 0.91141 0.06669 0.0
Co827 Co 0.54517 0.92148 0.05655 0.0
O828 O 0.52732 0.91093 0.08731 0.0
C829 C 0.50315 0.92308 0.15875 0.0
O830 O 0.51485 0.93308 0.1485 0.0
C831 C 0.55627 0.88773 0.06821 0.0
O832 O 0.54246 0.88302 0.05124 0.0
O833 O 0.53909 0.9113 -0.00138 0.0
O834 O 0.51212 0.90929 0.00387 0.0
H835 H 0.57153 0.95295 0.93327 0.0
H836 H 0.51481 0.88831 0.13714 0.0
O837 O 0.49751 0.91356 0.12946 0.0
H838 H 0.49418 0.8548 0.01388 0.0
H839 H 0.44605 0.8973 0.07475 0.0
H840 H 0.48779 0.9272 0.99182 0.0
H841 H 0.49422 0.88445 0.00793 0.0
H842 H 0.47443 0.89669 0.09941 0.0
O843 O 0.55942 0.90272 0.07163 0.0
H844 H 0.54886 0.93986 0.97226 0.0
H845 H 0.58023 0.92499 0.07638 0.0
H846 H 0.4596 0.92802 0.96579 0.0
H847 H 0.51487 0.8587 0.14467 0.0
H848 H 0.4385 0.91299 0.00738 0.0
H849 H 0.50455 0.84173 0.08268 0.0
O850 O 0.50564 0.93535 0.06033 0.0
H851 H 0.55603 0.92255 0.22141 0.0
H852 H 0.55299 0.95514 0.08413 0.0
H853 H 0.55947 0.96838 0.15556 0.0
H854 H 0.56103 0.95204 0.22485 0.0
H855 H 0.54948 0.90981 0.14936 0.0
H856 H 0.60327 0.93782 0.03836 0.0
H857 H 0.59897 0.95198 0.96635 0.0
O858 O 0.53135 0.94045 0.0412 0.0
C859 C 0.5252 0.9087 0.98164 0.0
C860 C 0.57355 0.94685 0.96468 0.0
C861 C 0.59136 0.93834 0.02363 0.0
N862 N 0.5632 0.93174 0.02665 0.0
C863 C 0.56075 0.93944 0.98696 0.0
C864 C 0.57828 0.93105 0.04494 0.0
C865 C 0.58894 0.94629 0.98324 0.0
C866 C 0.51016 0.88101 0.11019 0.0
N867 N 0.50446 0.88811 0.0722 0.0
C868 C 0.51028 0.86425 0.11457 0.0
C869 C 0.50451 0.85474 0.07975 0.0
C870 C 0.49871 0.86206 0.04113 0.0
C871 C 0.4988 0.87886 0.03789 0.0
C872 C 0.45514 0.90387 0.05631 0.0
C873 C 0.4787 0.92055 0.00996 0.0
C874 C 0.47122 0.90361 0.07017 0.0
N875 N 0.48277 0.91181 0.04689 0.0
C876 C 0.46274 0.9211 0.99512 0.0
C877 C 0.45091 0.91268 0.0185 0.0
C878 C 0.51668 0.94478 0.04612 0.0
C879 C 0.55545 0.92978 0.19142 0.0
C880 C 0.55364 0.94795 0.11414 0.0
C881 C 0.55734 0.95551 0.15448 0.0
C882 C 0.55822 0.94634 0.19334 0.0
N883 N 0.55095 0.9317 0.11252 0.0
C884 C 0.55181 0.92263 0.15048 0.0
Co885 Co 0.83953 0.75598 0.8174 0.0
Co886 Co 0.82852 0.7961 0.81261 0.0
O887 O 0.83969 0.77798 0.8403 0.0
C888 C 0.82808 0.75296 0.90978 0.0
O889 O 0.81796 0.76466 0.90045 0.0
C890 C 0.86228 0.80747 0.82232 0.0
O891 O 0.86694 0.79388 0.80392 0.0
O892 O 0.838 0.79095 0.75309 0.0
O893 O 0.84164 0.76402 0.75497 0.0
H894 H 0.79482 0.82379 0.69621 0.0
H895 H 0.86247 0.76543 0.88862 0.0
O896 O 0.8375 0.7476 0.87976 0.0
H897 H 0.89631 0.74642 0.76404 0.0
H898 H 0.85439 0.69713 0.81985 0.0
H899 H 0.82415 0.73955 0.74056 0.0
H900 H 0.86664 0.74602 0.75814 0.0
H901 H 0.85458 0.72517 0.84733 0.0
O902 O 0.8473 0.8104 0.82734 0.0
H903 H 0.80871 0.80075 0.73117 0.0
H904 H 0.825 0.8308 0.83656 0.0
H905 H 0.82375 0.7117 0.71171 0.0
H906 H 0.89208 0.7659 0.89616 0.0
H907 H 0.83895 0.69027 0.75146 0.0
H908 H 0.90921 0.75641 0.8335 0.0
O909 O 0.81555 0.75624 0.81109 0.0
H910 H 0.82948 0.8046 0.97852 0.0
H911 H 0.79514 0.80298 0.84434 0.0
H912 H 0.78276 0.80825 0.91769 0.0
H913 H 0.79998 0.80909 0.98543 0.0
H914 H 0.84135 0.79927 0.90458 0.0
H915 H 0.81138 0.85421 0.80261 0.0
H916 H 0.79611 0.85077 0.732 0.0
O917 O 0.80958 0.78223 0.79753 0.0
C918 C 0.84139 0.77751 0.73443 0.0
C919 C 0.80142 0.82545 0.727 0.0
C920 C 0.81074 0.84252 0.78669 0.0
N921 N 0.81764 0.81441 0.78585 0.0
C922 C 0.8093 0.81243 0.74697 0.0
C923 C 0.81847 0.82923 0.80567 0.0
C924 C 0.80216 0.84058 0.74708 0.0
C925 C 0.86984 0.76115 0.86135 0.0
N926 N 0.86284 0.7557 0.82296 0.0
C927 C 0.8866 0.7615 0.86575 0.0
C928 C 0.89621 0.7562 0.83056 0.0
C929 C 0.88898 0.75061 0.79156 0.0
C930 C 0.87218 0.75046 0.78832 0.0
C931 C 0.84774 0.70637 0.8022 0.0
C932 C 0.83087 0.7303 0.75789 0.0
C933 C 0.84777 0.72225 0.81766 0.0
N934 N 0.83947 0.73399 0.79538 0.0
C935 C 0.83057 0.71455 0.74147 0.0
C936 C 0.83908 0.70253 0.76381 0.0
C937 C 0.8057 0.76736 0.79979 0.0
C938 C 0.82186 0.80434 0.94923 0.0
C939 C 0.80271 0.80333 0.87366 0.0
C940 C 0.79564 0.80634 0.9151 0.0
C941 C 0.8053 0.80682 0.95309 0.0
N942 N 0.81897 0.80092 0.87014 0.0
C943 C 0.82853 0.8014 0.90723 0.0
Co944 Co 0.50569 0.5903 0.56813 0.0
Co945 Co 0.54597 0.58161 0.55153 0.0
O946 O 0.52832 0.59114 0.58594 0.0
C947 C 0.50566 0.57748 0.65951 0.0
O948 O 0.51805 0.56854 0.64809 0.0
C949 C 0.55564 0.61554 0.56682 0.0
O950 O 0.54086 0.61969 0.55626 0.0
O951 O 0.53845 0.59218 0.4955 0.0
O952 O 0.51161 0.59368 0.50478 0.0
H953 H 0.57081 0.5523 0.42194 0.0
H954 H 0.51565 0.61249 0.64053 0.0
O955 O 0.49915 0.58687 0.6313 0.0
H956 H 0.4922 0.64734 0.52419 0.0
H957 H 0.44648 0.60236 0.58486 0.0
H958 H 0.48776 0.57506 0.49368 0.0
H959 H 0.49319 0.61785 0.51417 0.0
H960 H 0.47519 0.60354 0.60615 0.0
O961 O 0.55987 0.60077 0.5656 0.0
H962 H 0.54854 0.56416 0.46544 0.0
H963 H 0.58149 0.57925 0.56552 0.0
H964 H 0.45921 0.5737 0.47096 0.0
H965 H 0.51475 0.64191 0.65217 0.0
H966 H 0.43834 0.58742 0.51671 0.0
H967 H 0.50302 0.65956 0.59366 0.0
O968 O 0.50695 0.56652 0.55894 0.0
H969 H 0.56035 0.57935 0.71421 0.0
H970 H 0.55552 0.548 0.57511 0.0
H971 H 0.564 0.53433 0.64427 0.0
H972 H 0.56647 0.55003 0.71446 0.0
H973 H 0.55179 0.59251 0.64439 0.0
H974 H 0.60414 0.56766 0.52294 0.0
H975 H 0.59886 0.55401 0.45067 0.0
O976 O 0.53251 0.56226 0.53685 0.0
C977 C 0.52424 0.59484 0.48085 0.0
C978 C 0.57327 0.55818 0.45343 0.0
C979 C 0.59197 0.56682 0.51009 0.0
N980 N 0.5637 0.57232 0.51807 0.0
C981 C 0.5607 0.56489 0.47826 0.0
C982 C 0.5791 0.5734 0.53399 0.0
C983 C 0.589 0.55916 0.46955 0.0
C984 C 0.51037 0.62007 0.61512 0.0
N985 N 0.50445 0.61345 0.57674 0.0
C986 C 0.50996 0.63673 0.62182 0.0
C987 C 0.5034 0.64663 0.58893 0.0
C988 C 0.49735 0.63978 0.54993 0.0
C989 C 0.498 0.62308 0.54435 0.0
C990 C 0.45546 0.59636 0.56461 0.0
C991 C 0.47876 0.58114 0.51362 0.0
C992 C 0.47173 0.59695 0.57656 0.0
N993 N 0.48315 0.58947 0.55101 0.0
C994 C 0.46261 0.58029 0.50065 0.0
C995 C 0.45091 0.58798 0.52636 0.0
C996 C 0.51804 0.5575 0.54307 0.0
C997 C 0.55937 0.57239 0.6838 0.0
C998 C 0.55655 0.55492 0.60553 0.0
C999 C 0.56138 0.54711 0.64457 0.0
C1000 C 0.56278 0.55593 0.68393 0.0
N1001 N 0.55325 0.57106 0.60565 0.0
C1002 C 0.5546 0.57979 0.64411 0.0
Co1003 Co 0.66057 0.25833 0.81708 0.0
Co1004 Co 0.67441 0.29762 0.81399 0.0
O1005 O 0.66157 0.28029 0.8397 0.0
C1006 C 0.67122 0.25356 0.91044 0.0
O1007 O 0.68345 0.26312 0.9019 0.0
C1008 C 0.64101 0.31022 0.81517 0.0
O1009 O 0.63659 0.29665 0.79623 0.0
O1010 O 0.66677 0.29251 0.75226 0.0
O1011 O 0.65985 0.26624 0.75438 0.0
H1012 H 0.71364 0.32257 0.70643 0.0
H1013 H 0.63736 0.26954 0.88575 0.0
O1014 O 0.66109 0.25013 0.87998 0.0
H1015 H 0.60405 0.2526 0.75785 0.0
H1016 H 0.64185 0.2006 0.81956 0.0
H1017 H 0.67567 0.24064 0.74192 0.0
H1018 H 0.63367 0.25008 0.75519 0.0
H1019 H 0.64317 0.2287 0.84629 0.0
O1020 O 0.65587 0.31284 0.82326 0.0
H1021 H 0.69748 0.30051 0.73868 0.0
H1022 H 0.67852 0.3324 0.8363 0.0
H1023 H 0.67461 0.21271 0.71388 0.0
H1024 H 0.60777 0.27215 0.89001 0.0
H1025 H 0.65761 0.19247 0.7528 0.0
H1026 H 0.59092 0.2637 0.82567 0.0
O1027 O 0.68462 0.25702 0.81263 0.0
H1028 H 0.66835 0.30718 0.97866 0.0
H1029 H 0.70682 0.30362 0.85367 0.0
H1030 H 0.71695 0.30899 0.92955 0.0
H1031 H 0.69765 0.31082 0.99268 0.0
H1032 H 0.65876 0.30172 0.90231 0.0
H1033 H 0.69439 0.35484 0.8049 0.0
H1034 H 0.71215 0.34997 0.73958 0.0
O1035 O 0.69297 0.2827 0.80473 0.0
C1036 C 0.66223 0.27943 0.73348 0.0
C1037 C 0.70594 0.32484 0.73489 0.0
C1038 C 0.69512 0.34296 0.79012 0.0
N1039 N 0.68703 0.31516 0.78925 0.0
C1040 C 0.69677 0.31239 0.75331 0.0
C1041 C 0.68611 0.33022 0.80763 0.0
C1042 C 0.7051 0.34022 0.75349 0.0
C1043 C 0.6301 0.26569 0.85777 0.0
N1044 N 0.63723 0.25963 0.82027 0.0
C1045 C 0.61335 0.26726 0.86032 0.0
C1046 C 0.6039 0.26254 0.82418 0.0
C1047 C 0.61127 0.25632 0.7861 0.0
C1048 C 0.62805 0.25497 0.78472 0.0
C1049 C 0.64929 0.20931 0.80229 0.0
C1050 C 0.66818 0.23192 0.75891 0.0
C1051 C 0.65012 0.22523 0.81734 0.0
N1052 N 0.65943 0.23631 0.79555 0.0
C1053 C 0.66766 0.21612 0.74293 0.0
C1054 C 0.65813 0.20476 0.76482 0.0
C1055 C 0.6956 0.26754 0.80542 0.0
C1056 C 0.67688 0.30645 0.95141 0.0
C1057 C 0.69835 0.30436 0.88098 0.0
C1058 C 0.70415 0.30744 0.92386 0.0
C1059 C 0.69332 0.30847 0.95926 0.0
N1060 N 0.68221 0.30243 0.87351 0.0
C1061 C 0.67151 0.30342 0.90807 0.0
Co1062 Co 0.99622 0.40907 0.06768 0.0
Co1063 Co 0.95665 0.42183 0.06057 0.0
O1064 O 0.97406 0.40987 0.08914 0.0
C1065 C 0.99887 0.42068 0.15956 0.0
O1066 O 0.98764 0.43119 0.14917 0.0
C1067 C 0.94447 0.38838 0.06708 0.0
O1068 O 0.95815 0.38368 0.04931 0.0
O1069 O 0.96216 0.41273 0.00077 0.0
O1070 O 0.98869 0.40733 0.00522 0.0
H1071 H 0.93159 0.45732 0.94377 0.0
H1072 H 0.98549 0.38666 0.13884 0.0
O1073 O 0.00412 0.41091 0.1303 0.0
H1074 H 0.00322 0.35189 0.01479 0.0
H1075 H 0.0543 0.3916 0.0742 0.0
H1076 H 0.01399 0.42353 0.99166 0.0
H1077 H 0.00501 0.38149 0.0087 0.0
H1078 H 0.02605 0.39273 0.09979 0.0
O1079 O 0.94167 0.40335 0.07269 0.0
H1080 H 0.95371 0.44234 0.97992 0.0
H1081 H 0.92179 0.42629 0.0814 0.0
H1082 H 0.04207 0.42262 0.96471 0.0
H1083 H 0.98359 0.35712 0.14647 0.0
H1084 H 0.06245 0.40657 0.0061 0.0
H1085 H 0.99244 0.33952 0.08409 0.0
O1086 O 0.99702 0.43299 0.06077 0.0
H1087 H 0.94634 0.41962 0.22562 0.0
H1088 H 0.95014 0.45506 0.09404 0.0
H1089 H 0.94441 0.46692 0.16776 0.0
H1090 H 0.94248 0.44915 0.23421 0.0
H1091 H 0.95216 0.40828 0.15134 0.0
H1092 H 0.89929 0.441 0.04616 0.0
H1093 H 0.90415 0.45671 0.97693 0.0
O1094 O 0.97131 0.44043 0.04828 0.0
C1095 C 0.9756 0.40863 0.98329 0.0
C1096 C 0.92933 0.45055 0.97398 0.0
C1097 C 0.9112 0.44137 0.03141 0.0
N1098 N 0.93906 0.43352 0.03283 0.0
C1099 C 0.94182 0.44207 0.99466 0.0
C1100 C 0.92397 0.43303 0.05114 0.0
C1101 C 0.91393 0.45019 0.99258 0.0
C1102 C 0.98953 0.37908 0.11173 0.0
N1103 N 0.99544 0.38579 0.07346 0.0
C1104 C 0.98835 0.36236 0.11617 0.0
C1105 C 0.9933 0.35249 0.08113 0.0
C1106 C 0.99934 0.35943 0.04222 0.0
C1107 C 1.0003 0.3762 0.03893 0.0
C1108 C 0.04553 0.39862 0.05585 0.0
C1109 C 0.02277 0.41645 0.00973 0.0
C1110 C 0.02953 0.39934 0.07024 0.0
N1111 N 0.01837 0.40812 0.0471 0.0
C1112 C 0.03866 0.41601 0.99436 0.0
C1113 C 0.05009 0.40702 0.01762 0.0
C1114 C 0.98639 0.44349 0.05037 0.0
C1115 C 0.9471 0.42748 0.19689 0.0
C1116 C 0.94934 0.44725 0.12279 0.0
C1117 C 0.94606 0.45403 0.16444 0.0
C1118 C 0.94496 0.44405 0.2017 0.0
N1119 N 0.95142 0.43099 0.11833 0.0
C1120 C 0.95033 0.42112 0.1547 0.0
Co1121 Co 0.84314 0.74673 0.31841 0.0
Co1122 Co 0.83021 0.70731 0.31072 0.0
O1123 O 0.84236 0.72454 0.33938 0.0
C1124 C 0.83215 0.75071 0.41152 0.0
O1125 O 0.81996 0.74122 0.40206 0.0
C1126 C 0.86357 0.6947 0.31641 0.0
O1127 O 0.86843 0.70829 0.29846 0.0
O1128 O 0.83918 0.71287 0.2507 0.0
O1129 O 0.84391 0.7395 0.25536 0.0
H1130 H 0.79424 0.68286 0.19404 0.0
H1131 H 0.86646 0.73546 0.38668 0.0
O1132 O 0.84245 0.75432 0.38169 0.0
H1133 H 0.8996 0.75343 0.25951 0.0
H1134 H 0.86136 0.80457 0.32499 0.0
H1135 H 0.82787 0.765 0.24449 0.0
H1136 H 0.86994 0.75548 0.25668 0.0
H1137 H 0.86023 0.77624 0.34979 0.0
O1138 O 0.84857 0.69212 0.32225 0.0
H1139 H 0.80947 0.70475 0.23043 0.0
H1140 H 0.82552 0.67242 0.3309 0.0
H1141 H 0.82875 0.79317 0.21837 0.0
H1142 H 0.89608 0.73331 0.39105 0.0
H1143 H 0.84559 0.81318 0.25873 0.0
H1144 H 0.91285 0.74228 0.32708 0.0
O1145 O 0.81911 0.74774 0.31383 0.0
H1146 H 0.83281 0.69686 0.47565 0.0
H1147 H 0.79709 0.70057 0.34467 0.0
H1148 H 0.7854 0.69469 0.41851 0.0
H1149 H 0.80332 0.69277 0.48466 0.0
H1150 H 0.84396 0.70285 0.40125 0.0
H1151 H 0.81056 0.65014 0.29539 0.0
H1152 H 0.79473 0.65532 0.22655 0.0
O1153 O 0.81169 0.72215 0.29931 0.0
C1154 C 0.84274 0.72646 0.23313 0.0
C1155 C 0.80106 0.68046 0.22409 0.0
C1156 C 0.81025 0.66209 0.28093 0.0
N1157 N 0.8183 0.68988 0.28287 0.0
C1158 C 0.80968 0.69282 0.24491 0.0
C1159 C 0.81873 0.67474 0.30081 0.0
C1160 C 0.80136 0.66501 0.24232 0.0
C1161 C 0.87368 0.73955 0.35889 0.0
N1162 N 0.86648 0.74568 0.32157 0.0
C1163 C 0.89045 0.73824 0.36148 0.0
C1164 C 0.89985 0.74325 0.32555 0.0
C1165 C 0.89242 0.74949 0.28761 0.0
C1166 C 0.87562 0.7506 0.28617 0.0
C1167 C 0.85399 0.79596 0.30711 0.0
C1168 C 0.83528 0.77362 0.26213 0.0
C1169 C 0.85327 0.77991 0.32107 0.0
N1170 N 0.84405 0.76896 0.29849 0.0
C1171 C 0.8357 0.78956 0.24723 0.0
C1172 C 0.84514 0.80079 0.26992 0.0
C1173 C 0.80859 0.73718 0.3029 0.0
C1174 C 0.82488 0.69763 0.44707 0.0
C1175 C 0.80494 0.69983 0.3733 0.0
C1176 C 0.79827 0.69644 0.41502 0.0
C1177 C 0.80833 0.69536 0.45211 0.0
N1178 N 0.82119 0.70202 0.36861 0.0
C1179 C 0.83113 0.70097 0.40482 0.0
Co1180 Co 0.50501 0.40723 0.92917 0.0
Co1181 Co 0.54369 0.42264 0.93142 0.0
O1182 O 0.52674 0.4094 0.90555 0.0
C1183 C 0.4996 0.41899 0.83745 0.0
O1184 O 0.50901 0.43119 0.84745 0.0
C1185 C 0.55762 0.38985 0.92667 0.0
O1186 O 0.54436 0.38471 0.94594 0.0
O1187 O 0.53938 0.41406 0.99257 0.0
O1188 O 0.51339 0.40613 0.99146 0.0
H1189 H 0.56783 0.46156 0.04124 0.0
H1190 H 0.51645 0.38536 0.85746 0.0
O1191 O 0.4964 0.40831 0.86666 0.0
H1192 H 0.50226 0.34985 0.98336 0.0
H1193 H 0.44812 0.38609 0.92753 0.0
H1194 H 0.48719 0.42061 0.00661 0.0
H1195 H 0.4986 0.37929 0.98912 0.0
H1196 H 0.47596 0.38899 0.89962 0.0
O1197 O 0.55959 0.40487 0.91958 0.0
H1198 H 0.54622 0.44488 0.00874 0.0
H1199 H 0.57808 0.4285 0.90754 0.0
H1200 H 0.45953 0.41795 0.03586 0.0
H1201 H 0.52018 0.35598 0.85013 0.0
H1202 H 0.43977 0.40059 0.99622 0.0
H1203 H 0.51312 0.33802 0.91345 0.0
O1204 O 0.50272 0.43109 0.93612 0.0
H1205 H 0.5522 0.41905 0.76577 0.0
H1206 H 0.54786 0.45575 0.89456 0.0
H1207 H 0.55211 0.46704 0.8194 0.0
H1208 H 0.55433 0.44864 0.75436 0.0
H1209 H 0.54784 0.40828 0.84146 0.0
H1210 H 0.60008 0.44492 0.93914 0.0
H1211 H 0.59501 0.46164 0.0064 0.0
O1212 O 0.52807 0.44042 0.94341 0.0
C1213 C 0.52663 0.40888 0.01182 0.0
C1214 C 0.5702 0.45432 0.01193 0.0
C1215 C 0.5883 0.44496 0.95467 0.0
N1216 N 0.56088 0.4357 0.95635 0.0
C1217 C 0.558 0.44486 0.99336 0.0
C1218 C 0.57581 0.43564 0.93703 0.0
C1219 C 0.58544 0.45436 0.99238 0.0
C1220 C 0.51319 0.37761 0.885 0.0
N1221 N 0.50725 0.38403 0.92362 0.0
C1222 C 0.5154 0.36099 0.88072 0.0
C1223 C 0.51146 0.35092 0.91628 0.0
C1224 C 0.50537 0.35755 0.95553 0.0
C1225 C 0.50336 0.37423 0.95865 0.0
C1226 C 0.45663 0.39367 0.94513 0.0
C1227 C 0.47869 0.41296 0.98931 0.0
C1228 C 0.47239 0.39539 0.92942 0.0
N1229 N 0.48321 0.40488 0.95162 0.0
C1230 C 0.46303 0.41154 0.00597 0.0
C1231 C 0.45195 0.40181 0.98368 0.0
C1232 C 0.51281 0.4424 0.94395 0.0
C1233 C 0.5513 0.42719 0.79386 0.0
C1234 C 0.54879 0.44767 0.86643 0.0
C1235 C 0.55123 0.45413 0.82395 0.0
C1236 C 0.55248 0.44379 0.78748 0.0
N1237 N 0.54769 0.43137 0.87244 0.0
C1238 C 0.5489 0.42116 0.83683 0.0
Co1239 Co 0.84078 0.25606 0.1792 0.0
Co1240 Co 0.82886 0.29591 0.18591 0.0
O1241 O 0.84048 0.27821 0.15754 0.0
C1242 C 0.82944 0.25347 0.08684 0.0
O1243 O 0.81913 0.26496 0.0966 0.0
C1244 C 0.86256 0.30748 0.17946 0.0
O1245 O 0.86706 0.29373 0.19723 0.0
O1246 O 0.83781 0.29028 0.24587 0.0
O1247 O 0.84258 0.26364 0.24162 0.0
H1248 H 0.79383 0.32181 0.30238 0.0
H1249 H 0.86355 0.26626 0.10831 0.0
O1250 O 0.83893 0.24809 0.11661 0.0
H1251 H 0.89772 0.24786 0.23287 0.0
H1252 H 0.85705 0.19762 0.17355 0.0
H1253 H 0.82589 0.23873 0.25534 0.0
H1254 H 0.86808 0.24672 0.23859 0.0
H1255 H 0.85653 0.22583 0.14759 0.0
O1256 O 0.84764 0.3105 0.17382 0.0
H1257 H 0.80838 0.29936 0.26647 0.0
H1258 H 0.8251 0.33082 0.16475 0.0
H1259 H 0.82618 0.21069 0.28267 0.0
H1260 H 0.89314 0.26751 0.10103 0.0
H1261 H 0.84185 0.18991 0.24166 0.0
H1262 H 0.91044 0.25831 0.16368 0.0
O1263 O 0.81682 0.25579 0.18578 0.0
H1264 H 0.83149 0.30588 0.02076 0.0
H1265 H 0.79583 0.3032 0.15211 0.0
H1266 H 0.78418 0.30906 0.07821 0.0
H1267 H 0.80206 0.31043 0.01187 0.0
H1268 H 0.84261 0.29994 0.09521 0.0
H1269 H 0.81083 0.35365 0.19976 0.0
H1270 H 0.795 0.34919 0.26898 0.0
O1271 O 0.80993 0.28166 0.19811 0.0
C1272 C 0.8416 0.27677 0.26346 0.0
C1273 C 0.80065 0.32389 0.27216 0.0
C1274 C 0.81022 0.34177 0.2146 0.0
N1275 N 0.81751 0.31376 0.21344 0.0
C1276 C 0.80889 0.31122 0.25162 0.0
C1277 C 0.81831 0.32881 0.195 0.0
C1278 C 0.80133 0.33926 0.25343 0.0
C1279 C 0.87099 0.26208 0.13554 0.0
N1280 N 0.86409 0.25634 0.17375 0.0
C1281 C 0.88775 0.26288 0.1313 0.0
C1282 C 0.89744 0.25775 0.16649 0.0
C1283 C 0.89032 0.25189 0.20533 0.0
C1284 C 0.87352 0.2513 0.20842 0.0
C1285 C 0.85019 0.20657 0.19173 0.0
C1286 C 0.83279 0.22977 0.23742 0.0
C1287 C 0.84981 0.22255 0.17711 0.0
N1288 N 0.84124 0.23393 0.20004 0.0
C1289 C 0.83288 0.21391 0.25301 0.0
C1290 C 0.84166 0.20225 0.22996 0.0
C1291 C 0.80655 0.26667 0.196 0.0
C1292 C 0.82358 0.30536 0.04943 0.0
C1293 C 0.80368 0.30374 0.1234 0.0
C1294 C 0.79702 0.3071 0.08165 0.0
C1295 C 0.80706 0.30789 0.04445 0.0
N1296 N 0.81989 0.30127 0.12802 0.0
C1297 C 0.82981 0.30206 0.09172 0.0
Co1298 Co 0.99493 0.59144 0.42937 0.0
Co1299 Co 0.95535 0.57842 0.43437 0.0
O1300 O 0.97284 0.59069 0.40744 0.0
C1301 C 0.99754 0.57979 0.33719 0.0
O1302 O 0.98616 0.56946 0.3477 0.0
C1303 C 0.94345 0.61207 0.43066 0.0
O1304 O 0.95719 0.61649 0.44859 0.0
O1305 O 0.96086 0.58653 0.49528 0.0
O1306 O 0.98715 0.59337 0.492 0.0
H1307 H 0.92996 0.54077 0.5454 0.0
H1308 H 0.98433 0.61377 0.35783 0.0
O1309 O 0.00297 0.58946 0.36657 0.0
H1310 H 0.00215 0.64869 0.48144 0.0
H1311 H 0.05311 0.60858 0.42351 0.0
H1312 H 0.01242 0.57716 0.5061 0.0
H1313 H 0.00384 0.61908 0.4879 0.0
H1314 H 0.02492 0.60752 0.39743 0.0
O1315 O 0.94049 0.59717 0.42422 0.0
H1316 H 0.95224 0.55615 0.51142 0.0
H1317 H 0.92042 0.57482 0.41321 0.0
H1318 H 0.04044 0.57799 0.53356 0.0
H1319 H 0.98253 0.6433 0.3498 0.0
H1320 H 0.06101 0.59379 0.49214 0.0
H1321 H 0.99142 0.66098 0.41197 0.0
O1322 O 0.99569 0.5675 0.4366 0.0
H1323 H 0.94533 0.5832 0.26959 0.0
H1324 H 0.94864 0.54579 0.39703 0.0
H1325 H 0.94295 0.53508 0.32193 0.0
H1326 H 0.94127 0.55385 0.25756 0.0
H1327 H 0.9511 0.59337 0.34517 0.0
H1328 H 0.89776 0.55972 0.4463 0.0
H1329 H 0.90248 0.54251 0.51281 0.0
O1330 O 0.96989 0.5596 0.44457 0.0
C1331 C 0.97401 0.59127 0.51334 0.0
C1332 C 0.92775 0.54823 0.51643 0.0
C1333 C 0.90968 0.55889 0.46085 0.0
N1334 N 0.93763 0.5664 0.46044 0.0
C1335 C 0.94032 0.55697 0.49703 0.0
C1336 C 0.92254 0.56746 0.44237 0.0
C1337 C 0.91233 0.54922 0.49815 0.0
C1338 C 0.98837 0.62138 0.38486 0.0
N1339 N 0.99424 0.61471 0.42324 0.0
C1340 C 0.98726 0.63809 0.38019 0.0
C1341 C 0.99223 0.648 0.41512 0.0
C1342 C 0.99823 0.64111 0.45412 0.0
C1343 C 0.99913 0.62435 0.45764 0.0
C1344 C 0.04426 0.60167 0.44187 0.0
C1345 C 0.02128 0.58413 0.48804 0.0
C1346 C 0.02829 0.60099 0.4272 0.0
N1347 N 0.01702 0.59236 0.45037 0.0
C1348 C 0.03714 0.58452 0.50368 0.0
C1349 C 0.04868 0.59337 0.48039 0.0
C1350 C 0.98502 0.55674 0.44434 0.0
C1351 C 0.94598 0.57491 0.29739 0.0
C1352 C 0.94794 0.55402 0.36919 0.0
C1353 C 0.94469 0.5479 0.32675 0.0
C1354 C 0.94373 0.55844 0.29066 0.0
N1355 N 0.95013 0.57019 0.37554 0.0
C1356 C 0.94918 0.5806 0.34032 0.0
Co1357 Co 0.65918 0.74662 0.68335 0.0
Co1358 Co 0.67053 0.70673 0.69378 0.0
O1359 O 0.65914 0.72423 0.66367 0.0
C1360 C 0.67045 0.74967 0.59006 0.0
O1361 O 0.68231 0.73978 0.59971 0.0
C1362 C 0.63664 0.69586 0.68718 0.0
O1363 O 0.63242 0.71027 0.70093 0.0
O1364 O 0.66178 0.71323 0.75324 0.0
O1365 O 0.65798 0.73994 0.74678 0.0
H1366 H 0.70545 0.682 0.81241 0.0
H1367 H 0.63557 0.73606 0.61496 0.0
O1368 O 0.6603 0.75374 0.61978 0.0
H1369 H 0.6029 0.75618 0.74058 0.0
H1370 H 0.64339 0.80512 0.67321 0.0
H1371 H 0.67508 0.7648 0.75641 0.0
H1372 H 0.63261 0.75681 0.74419 0.0
H1373 H 0.64336 0.77658 0.65008 0.0
O1374 O 0.65151 0.69218 0.68372 0.0
H1375 H 0.69118 0.70414 0.77425 0.0
H1376 H 0.67372 0.67148 0.6764 0.0
H1377 H 0.67536 0.79317 0.78087 0.0
H1378 H 0.6059 0.73538 0.60975 0.0
H1379 H 0.65943 0.81356 0.73915 0.0
H1380 H 0.58936 0.74543 0.67295 0.0
O1381 O 0.6832 0.74666 0.6882 0.0
H1382 H 0.66747 0.69458 0.52982 0.0
H1383 H 0.70336 0.69837 0.66046 0.0
H1384 H 0.71478 0.69118 0.58718 0.0
H1385 H 0.69677 0.68921 0.52122 0.0
H1386 H 0.65659 0.70186 0.60365 0.0
H1387 H 0.68771 0.64896 0.71372 0.0
H1388 H 0.70376 0.65418 0.78214 0.0
O1389 O 0.68969 0.72092 0.70409 0.0
C1390 C 0.65866 0.72706 0.76985 0.0
C1391 C 0.69853 0.67959 0.78256 0.0
C1392 C 0.68855 0.66104 0.7272 0.0
N1393 N 0.6817 0.68912 0.72301 0.0
C1394 C 0.69045 0.69208 0.76074 0.0
C1395 C 0.68062 0.67383 0.70629 0.0
C1396 C 0.69756 0.66397 0.76558 0.0
C1397 C 0.62846 0.74064 0.64238 0.0
N1398 N 0.63582 0.74655 0.67975 0.0
C1399 C 0.61166 0.74015 0.63933 0.0
C1400 C 0.60239 0.74576 0.67484 0.0
C1401 C 0.60998 0.75178 0.71281 0.0
C1402 C 0.62681 0.75206 0.71472 0.0
C1403 C 0.65037 0.79634 0.69169 0.0
C1404 C 0.66806 0.77358 0.73818 0.0
C1405 C 0.65043 0.78017 0.67868 0.0
N1406 N 0.65915 0.76902 0.70199 0.0
C1407 C 0.66829 0.78964 0.75215 0.0
C1408 C 0.65936 0.80107 0.7287 0.0
C1409 C 0.69333 0.7358 0.69968 0.0
C1410 C 0.67544 0.69536 0.55833 0.0
C1411 C 0.69547 0.6976 0.6319 0.0
C1412 C 0.70199 0.69348 0.59051 0.0
C1413 C 0.69188 0.69237 0.55351 0.0
N1414 N 0.67932 0.70048 0.63638 0.0
C1415 C 0.66934 0.69942 0.60026 0.0
Co1416 Co 0.49588 0.41063 0.42848 0.0
Co1417 Co 0.45633 0.42384 0.43196 0.0
O1418 O 0.4739 0.41142 0.40562 0.0
C1419 C 0.50038 0.42161 0.33527 0.0
O1420 O 0.49044 0.43352 0.34388 0.0
C1421 C 0.44451 0.39024 0.42769 0.0
O1422 O 0.45865 0.38583 0.4431 0.0
O1423 O 0.46151 0.41583 0.49312 0.0
O1424 O 0.48789 0.40943 0.49118 0.0
H1425 H 0.4309 0.46188 0.54186 0.0
H1426 H 0.48544 0.38759 0.35843 0.0
O1427 O 0.50416 0.4116 0.36572 0.0
H1428 H 0.50262 0.3539 0.48527 0.0
H1429 H 0.55392 0.39284 0.42605 0.0
H1430 H 0.51321 0.42569 0.50431 0.0
H1431 H 0.50434 0.38354 0.48954 0.0
H1432 H 0.52584 0.39385 0.39899 0.0
O1433 O 0.44129 0.40514 0.42229 0.0
H1434 H 0.45315 0.44623 0.50867 0.0
H1435 H 0.42149 0.4277 0.40985 0.0
H1436 H 0.54112 0.42493 0.53269 0.0
H1437 H 0.48371 0.358 0.35249 0.0
H1438 H 0.56169 0.40841 0.49346 0.0
H1439 H 0.49226 0.34094 0.41631 0.0
O1440 O 0.49679 0.43466 0.43372 0.0
H1441 H 0.44682 0.41859 0.26709 0.0
H1442 H 0.44987 0.45639 0.39373 0.0
H1443 H 0.44437 0.46687 0.31829 0.0
H1444 H 0.4428 0.44791 0.25433 0.0
H1445 H 0.4524 0.40865 0.34303 0.0
H1446 H 0.39886 0.44306 0.44217 0.0
H1447 H 0.40351 0.46035 0.50857 0.0
O1448 O 0.471 0.44259 0.44197 0.0
C1449 C 0.4746 0.41139 0.51194 0.0
C1450 C 0.42872 0.4544 0.5129 0.0
C1451 C 0.41074 0.44382 0.45699 0.0
N1452 N 0.43863 0.43606 0.45737 0.0
C1453 C 0.44128 0.44552 0.49393 0.0
C1454 C 0.42359 0.4351 0.43894 0.0
C1455 C 0.41336 0.45352 0.49423 0.0
C1456 C 0.48936 0.38026 0.38617 0.0
N1457 N 0.49501 0.3873 0.42429 0.0
C1458 C 0.48828 0.3635 0.38267 0.0
C1459 C 0.49305 0.35394 0.41852 0.0
C1460 C 0.49885 0.3612 0.45725 0.0
C1461 C 0.49974 0.378 0.45955 0.0
C1462 C 0.54506 0.40007 0.44346 0.0
C1463 C 0.52208 0.4184 0.4872 0.0
C1464 C 0.52915 0.40072 0.42823 0.0
N1465 N 0.51788 0.40975 0.45021 0.0
C1466 C 0.53787 0.41805 0.50336 0.0
C1467 C 0.54941 0.4088 0.4813 0.0
C1468 C 0.48612 0.44546 0.44128 0.0
C1469 C 0.44743 0.42697 0.29471 0.0
C1470 C 0.44923 0.44807 0.36606 0.0
C1471 C 0.44608 0.45407 0.32343 0.0
C1472 C 0.44519 0.44342 0.28756 0.0
N1473 N 0.45137 0.43191 0.37282 0.0
C1474 C 0.45053 0.4214 0.33781 0.0
Co1475 Co 0.33914 0.74609 0.17895 0.0
Co1476 Co 0.32947 0.70589 0.19029 0.0
O1477 O 0.34001 0.72369 0.15896 0.0
C1478 C 0.3288 0.74744 0.08542 0.0
O1479 O 0.31899 0.73546 0.09439 0.0
C1480 C 0.36327 0.69527 0.17747 0.0
O1481 O 0.36778 0.70974 0.19004 0.0
O1482 O 0.33958 0.7123 0.24788 0.0
O1483 O 0.34068 0.73928 0.24226 0.0
H1484 H 0.29806 0.68015 0.31462 0.0
H1485 H 0.36309 0.73668 0.11025 0.0
O1486 O 0.33761 0.75342 0.11589 0.0
H1487 H 0.39506 0.75768 0.23612 0.0
H1488 H 0.35276 0.80517 0.17054 0.0
H1489 H 0.32228 0.76343 0.25182 0.0
H1490 H 0.36536 0.75714 0.23991 0.0
H1491 H 0.35397 0.77672 0.14678 0.0
O1492 O 0.34836 0.69158 0.17654 0.0
H1493 H 0.31111 0.70263 0.27471 0.0
H1494 H 0.32606 0.67073 0.17191 0.0
H1495 H 0.32084 0.7917 0.27692 0.0
H1496 H 0.39276 0.73716 0.10485 0.0
H1497 H 0.33615 0.8128 0.23616 0.0
H1498 H 0.40895 0.74767 0.16817 0.0
O1499 O 0.31519 0.74523 0.18319 0.0
H1500 H 0.32888 0.69392 0.02603 0.0
H1501 H 0.2959 0.69778 0.16246 0.0
H1502 H 0.28288 0.69073 0.09113 0.0
H1503 H 0.29941 0.68875 0.02227 0.0
H1504 H 0.34138 0.70105 0.09798 0.0
H1505 H 0.31326 0.64787 0.21088 0.0
H1506 H 0.29908 0.65253 0.28269 0.0
O1507 O 0.31035 0.71973 0.20473 0.0
C1508 C 0.34164 0.72628 0.26473 0.0
C1509 C 0.30415 0.67797 0.28329 0.0
C1510 C 0.31271 0.65986 0.22509 0.0
N1511 N 0.31923 0.68801 0.22087 0.0
C1512 C 0.31153 0.69066 0.26047 0.0
C1513 C 0.31996 0.67284 0.20323 0.0
C1514 C 0.30475 0.66248 0.26537 0.0
C1515 C 0.37004 0.74144 0.13775 0.0
N1516 N 0.36249 0.74692 0.17531 0.0
C1517 C 0.38684 0.74161 0.13458 0.0
C1518 C 0.39592 0.74747 0.17015 0.0
C1519 C 0.38814 0.75307 0.20831 0.0
C1520 C 0.37132 0.75269 0.21034 0.0
C1521 C 0.34606 0.79608 0.18862 0.0
C1522 C 0.32905 0.77252 0.23406 0.0
C1523 C 0.34667 0.77996 0.17527 0.0
N1524 N 0.3383 0.76841 0.1981 0.0
C1525 C 0.32816 0.78852 0.24836 0.0
C1526 C 0.33674 0.80036 0.22545 0.0
C1527 C 0.30584 0.73427 0.19821 0.0
C1528 C 0.32156 0.69469 0.05583 0.0
C1529 C 0.30317 0.69696 0.13263 0.0
C1530 C 0.29573 0.69294 0.09235 0.0
C1531 C 0.30502 0.69182 0.05373 0.0
N1532 N 0.3194 0.69974 0.13443 0.0
C1533 C 0.32858 0.69864 0.09671 0.0
Co1534 Co 0.00788 0.58733 0.92807 0.0
Co1535 Co 0.04807 0.57835 0.93837 0.0
O1536 O 0.03018 0.58903 0.90805 0.0
C1537 C 0.00509 0.57856 0.83274 0.0
O1538 O 0.01546 0.56691 0.84019 0.0
C1539 C 0.05859 0.61222 0.9275 0.0
O1540 O 0.04423 0.61658 0.94133 0.0
O1541 O 0.0417 0.58814 0.99639 0.0
O1542 O 0.01466 0.5868 0.992 0.0
H1543 H 0.07426 0.54638 0.06094 0.0
H1544 H 0.01667 0.61354 0.86522 0.0
O1545 O 1.00066 0.5878 0.86435 0.0
H1546 H 0.99575 0.64097 -0.00084 0.0
H1547 H 0.94862 0.60032 0.92219 0.0
H1548 H 0.99069 0.56802 0.99653 0.0
H1549 H 0.99679 0.61128 0.99561 0.0
H1550 H 0.97709 0.60269 0.8993 0.0
O1551 O 0.06229 0.59733 0.9251 0.0
H1552 H 0.05164 0.55959 0.02204 0.0
H1553 H 0.0832 0.57513 0.91914 0.0
H1554 H 0.96239 0.56534 0.02061 0.0
H1555 H 0.01563 0.64325 0.86713 0.0
H1556 H 0.94112 0.58157 0.98334 0.0
H1557 H 0.00518 0.65716 0.93454 0.0
O1558 O 0.00916 0.56337 0.92707 0.0
H1559 H 0.05939 0.57857 0.77377 0.0
H1560 H 0.05639 0.54499 0.90921 0.0
H1561 H 0.06335 0.53235 0.83729 0.0
H1562 H 0.06491 0.54919 0.76893 0.0
H1563 H 0.05236 0.59069 0.84633 0.0
H1564 H 0.1062 0.56221 0.95713 0.0
H1565 H 0.10178 0.54765 0.02847 0.0
O1566 O 0.03431 0.55909 0.95231 0.0
C1567 C 0.02771 0.5885 0.01396 0.0
C1568 C 0.07633 0.55265 0.02981 0.0
C1569 C 0.09426 0.56155 0.97157 0.0
N1570 N 0.06607 0.56801 0.96819 0.0
C1571 C 0.06355 0.56011 0.00756 0.0
C1572 C 0.0812 0.56887 0.95026 0.0
C1573 C 0.09177 0.55338 0.01159 0.0
C1574 C 0.01191 0.6195 0.89445 0.0
N1575 N 0.00673 0.61068 0.93018 0.0
C1576 C 0.01143 0.63633 0.89543 0.0
C1577 C 0.0056 0.64412 0.9333 0.0
C1578 C 1.00032 0.63505 0.96959 0.0
C1579 C 0.00099 0.61824 0.96744 0.0
C1580 C 0.95778 0.59321 0.93874 0.0
C1581 C 0.98152 0.57519 0.98031 0.0
C1582 C 0.97392 0.59448 0.92588 0.0
N1583 N 0.98556 0.5856 0.94679 0.0
C1584 C 0.96551 0.57359 0.99402 0.0
C1585 C 0.95358 0.58269 0.97307 0.0
C1586 C 0.02004 0.55423 0.9435 0.0
C1587 C 0.0588 0.57112 0.80335 0.0
C1588 C 0.05702 0.55239 0.8796 0.0
C1589 C 0.06099 0.54517 0.83898 0.0
C1590 C 0.06188 0.55463 0.80064 0.0
N1591 N 0.05408 0.56858 0.882 0.0
C1592 C 0.05489 0.57793 0.84455 0.0
Co1593 Co 0.16185 0.25567 0.68064 0.0
Co1594 Co 0.17084 0.29607 0.69255 0.0
O1595 O 0.1607 0.27808 0.66098 0.0
C1596 C 0.1732 0.25447 0.58798 0.0
O1597 O 0.18273 0.26661 0.59772 0.0
C1598 C 0.13673 0.30581 0.68108 0.0
O1599 O 0.13267 0.29117 0.69331 0.0
O1600 O 0.16113 0.28925 0.75038 0.0
O1601 O 0.15969 0.26231 0.74382 0.0
H1602 H 0.20214 0.32228 0.81637 0.0
H1603 H 0.13833 0.26483 0.61063 0.0
O1604 O 0.16406 0.24847 0.61764 0.0
H1605 H 0.10568 0.24297 0.73402 0.0
H1606 H 0.14938 0.19636 0.67062 0.0
H1607 H 0.17843 0.2385 0.75431 0.0
H1608 H 0.13533 0.24397 0.73967 0.0
H1609 H 0.14785 0.22482 0.64715 0.0
O1610 O 0.15153 0.30991 0.67968 0.0
H1611 H 0.18952 0.29958 0.77637 0.0
H1612 H 0.17319 0.33137 0.67495 0.0
H1613 H 0.18018 0.21021 0.77914 0.0
H1614 H 0.10872 0.26391 0.60337 0.0
H1615 H 0.16558 0.18891 0.73717 0.0
H1616 H 0.09219 0.25297 0.66544 0.0
O1617 O 0.18575 0.25695 0.68646 0.0
H1618 H 0.17058 0.30836 0.52847 0.0
H1619 H 0.20408 0.30516 0.66407 0.0
H1620 H 0.21668 0.31268 0.59253 0.0
H1621 H 0.19989 0.31433 0.52409 0.0
H1622 H 0.15849 0.30079 0.60063 0.0
H1623 H 0.18554 0.35445 0.71402 0.0
H1624 H 0.20019 0.34996 0.78518 0.0
O1625 O 0.19032 0.2827 0.70616 0.0
C1626 C 0.15887 0.27522 0.7667 0.0
C1627 C 0.19583 0.32439 0.78533 0.0
C1628 C 0.18649 0.34244 0.72792 0.0
N1629 N 0.18071 0.31413 0.72324 0.0
C1630 C 0.18869 0.31157 0.76248 0.0
C1631 C 0.17949 0.32933 0.706 0.0
C1632 C 0.19472 0.33991 0.76783 0.0
C1633 C 0.13123 0.25989 0.63759 0.0
N1634 N 0.13856 0.25442 0.67549 0.0
C1635 C 0.11446 0.25947 0.63337 0.0
C1636 C 0.10519 0.25336 0.66824 0.0
C1637 C 0.11275 0.24777 0.70675 0.0
C1638 C 0.12955 0.24841 0.70983 0.0
C1639 C 0.15577 0.20554 0.68922 0.0
C1640 C 0.17197 0.22932 0.73601 0.0
C1641 C 0.15498 0.22167 0.67604 0.0
N1642 N 0.16295 0.23333 0.69953 0.0
C1643 C 0.17304 0.21331 0.75017 0.0
C1644 C 0.16486 0.20137 0.72658 0.0
C1645 C 0.19499 0.26816 0.70059 0.0
C1646 C 0.17801 0.30775 0.55809 0.0
C1647 C 0.19669 0.30584 0.63443 0.0
C1648 C 0.20389 0.31013 0.59403 0.0
C1649 C 0.19446 0.31106 0.55565 0.0
N1650 N 0.18054 0.30263 0.63657 0.0
C1651 C 0.17122 0.30353 0.59908 0.0
Co1652 Co 0.49154 0.58425 0.06747 0.0
Co1653 Co 0.45104 0.57747 0.05505 0.0
O1654 O 0.46918 0.5878 0.08535 0.0
C1655 C 0.49175 0.57875 0.16406 0.0
O1656 O 0.47934 0.56918 0.15779 0.0
C1657 C 0.44203 0.61197 0.06174 0.0
O1658 O 0.45673 0.61554 0.04888 0.0
O1659 O 0.45849 0.58599 0.99648 0.0
O1660 O 0.48525 0.58252 0.00361 0.0
H1661 H 0.42452 0.54477 0.93453 0.0
H1662 H 0.48399 0.61244 0.12469 0.0
O1663 O 0.49836 0.58573 0.13108 0.0
H1664 H 0.50753 0.63515 0.9874 0.0
H1665 H 0.55144 0.5938 0.0747 0.0
H1666 H 0.50802 0.56219 0.00416 0.0
H1667 H 0.5046 0.60574 0.99636 0.0
H1668 H 0.52301 0.59845 0.09521 0.0
O1669 O 0.43764 0.5973 0.0649 0.0
H1670 H 0.44737 0.55756 0.97347 0.0
H1671 H 0.41562 0.57624 0.07188 0.0
H1672 H 0.53626 0.55723 0.9825 0.0
H1673 H 0.48689 0.64191 0.11736 0.0
H1674 H 0.55821 0.5731 0.01785 0.0
H1675 H 0.49868 0.65345 0.04824 0.0
O1676 O 0.48874 0.56055 0.07313 0.0
H1677 H 0.43783 0.5811 0.21827 0.0
H1678 H 0.44094 0.54503 0.08782 0.0
H1679 H 0.43265 0.534 0.16066 0.0
H1680 H 0.43103 0.55209 0.22652 0.0
H1681 H 0.4462 0.5916 0.14491 0.0
H1682 H 0.3924 0.56377 0.03377 0.0
H1683 H 0.39679 0.54784 0.96469 0.0
O1684 O 0.46395 0.55729 0.04451 0.0
C1685 C 0.47263 0.58467 0.98017 0.0
C1686 C 0.42245 0.55164 0.96468 0.0
C1687 C 0.40443 0.56232 0.02035 0.0
N1688 N 0.43285 0.56752 0.0251 0.0
C1689 C 0.43535 0.55887 0.98694 0.0
C1690 C 0.41762 0.56938 0.04172 0.0
C1691 C 0.4069 0.55338 0.9816 0.0
C1692 C 0.48931 0.61736 0.09475 0.0
N1693 N 0.49417 0.60738 0.06108 0.0
C1694 C 0.49084 0.63406 0.09069 0.0
C1695 C 0.49743 0.64053 0.05186 0.0
C1696 C 0.50238 0.63027 0.01769 0.0
C1697 C 0.50064 0.61363 0.02289 0.0
C1698 C 0.54198 0.58683 0.05899 0.0
C1699 C 0.51748 0.56922 0.01953 0.0
C1700 C 0.52586 0.58939 0.07052 0.0
N1701 N 0.51385 0.58069 0.05066 0.0
C1702 C 0.53346 0.56632 0.0072 0.0
C1703 C 0.54577 0.57522 0.02709 0.0
C1704 C 0.47773 0.55177 0.05601 0.0
C1705 C 0.43843 0.57311 0.18979 0.0
C1706 C 0.4403 0.55298 0.11634 0.0
C1707 C 0.43556 0.54667 0.15748 0.0
C1708 C 0.43464 0.55683 0.19441 0.0
N1709 N 0.44397 0.56897 0.11206 0.0
C1710 C 0.44309 0.579 0.14811 0.0
Co1711 Co 0.16672 0.74277 0.8192 0.0
Co1712 Co 0.17476 0.70261 0.80532 0.0
O1713 O 0.16424 0.72029 0.83696 0.0
C1714 C 0.1741 0.74436 0.91556 0.0
O1715 O 0.18571 0.73387 0.90879 0.0
C1716 C 0.14064 0.69264 0.81372 0.0
O1717 O 0.13666 0.70721 0.8007 0.0
O1718 O 0.16537 0.70993 0.74761 0.0
O1719 O 0.16807 0.73676 0.75489 0.0
H1720 H 0.20695 0.67749 0.68151 0.0
H1721 H 0.13939 0.73389 0.8782 0.0
O1722 O 0.16544 0.74925 0.88327 0.0
H1723 H 0.11448 0.75708 0.74339 0.0
H1724 H 0.15498 0.80221 0.82901 0.0
H1725 H 0.18748 0.76029 0.75471 0.0
H1726 H 0.14406 0.75524 0.75011 0.0
H1727 H 0.15162 0.77356 0.84897 0.0
O1728 O 0.15543 0.68861 0.81646 0.0
H1729 H 0.19392 0.69982 0.72214 0.0
H1730 H 0.17719 0.66719 0.82101 0.0
H1731 H 0.19116 0.78878 0.73358 0.0
H1732 H 0.10977 0.73571 0.87312 0.0
H1733 H 0.17483 0.80997 0.77083 0.0
H1734 H 0.09712 0.74731 0.80525 0.0
O1735 O 0.1906 0.74084 0.82275 0.0
H1736 H 0.17341 0.68913 0.96862 0.0
H1737 H 0.20779 0.69322 0.83492 0.0
H1738 H 0.21989 0.68503 0.90656 0.0
H1739 H 0.20265 0.6829 0.97403 0.0
H1740 H 0.16184 0.69739 0.89638 0.0
H1741 H 0.18991 0.64448 0.78122 0.0
H1742 H 0.20498 0.64958 0.71105 0.0
O1743 O 0.19439 0.71618 0.79362 0.0
C1744 C 0.16603 0.72412 0.73139 0.0
C1745 C 0.20046 0.67512 0.71213 0.0
C1746 C 0.19088 0.65659 0.76806 0.0
N1747 N 0.18492 0.68483 0.77408 0.0
C1748 C 0.19309 0.68772 0.73535 0.0
C1749 C 0.18367 0.66949 0.79039 0.0
C1750 C 0.19934 0.65946 0.7287 0.0
C1751 C 0.13399 0.73915 0.8488 0.0
N1752 N 0.14345 0.74451 0.81458 0.0
C1753 C 0.1172 0.74006 0.84601 0.0
C1754 C 0.11011 0.74654 0.80788 0.0
C1755 C 0.11984 0.752 0.77314 0.0
C1756 C 0.13659 0.75088 0.77707 0.0
C1757 C 0.16214 0.79308 0.81248 0.0
C1758 C 0.18026 0.76942 0.7709 0.0
C1759 C 0.16031 0.77684 0.82368 0.0
N1760 N 0.16925 0.76525 0.80277 0.0
C1761 C 0.18243 0.78554 0.75887 0.0
C1762 C 0.17328 0.79743 0.77982 0.0
C1763 C 0.19958 0.7301 0.80501 0.0
C1764 C 0.18104 0.68995 0.93942 0.0
C1765 C 0.20022 0.69235 0.86415 0.0
C1766 C 0.20713 0.68768 0.90461 0.0
C1767 C 0.19745 0.68649 0.94245 0.0
N1768 N 0.1841 0.69567 0.86142 0.0
C1769 C 0.17454 0.69457 0.89839 0.0
Co1770 Co 0.00465 0.4121 0.56937 0.0
Co1771 Co 0.04504 0.42107 0.55743 0.0
O1772 O 0.02706 0.41102 0.58923 0.0
C1773 C 0.00343 0.42343 0.66213 0.0
O1774 O 0.01565 0.43288 0.65254 0.0
C1775 C 0.05492 0.38707 0.57024 0.0
O1776 O 0.04032 0.38289 0.558 0.0
O1777 O 0.03833 0.41099 0.50003 0.0
O1778 O 0.01136 0.40986 0.50616 0.0
H1779 H 0.07124 0.45167 0.43228 0.0
H1780 H 0.01375 0.38867 0.63967 0.0
O1781 O 0.99738 0.41437 0.63235 0.0
H1782 H 0.99212 0.35586 0.51631 0.0
H1783 H 0.94535 0.39953 0.57905 0.0
H1784 H 0.98752 0.42857 0.49546 0.0
H1785 H 0.99309 0.3855 0.51041 0.0
H1786 H 0.9738 0.39809 0.60275 0.0
O1787 O 0.05895 0.40189 0.5712 0.0
H1788 H 0.04855 0.4392 0.47271 0.0
H1789 H 0.08031 0.42372 0.57524 0.0
H1790 H 0.95925 0.43023 0.47039 0.0
H1791 H 0.01285 0.35908 0.64718 0.0
H1792 H 0.93793 0.41564 0.51231 0.0
H1793 H 0.00203 0.34246 0.58512 0.0
O1794 O 0.00591 0.43599 0.56342 0.0
H1795 H 0.05726 0.42175 0.72153 0.0
H1796 H 0.05394 0.4545 0.58459 0.0
H1797 H 0.06138 0.46752 0.65563 0.0
H1798 H 0.06308 0.4511 0.72474 0.0
H1799 H 0.04976 0.40925 0.64985 0.0
H1800 H 0.10337 0.43592 0.53575 0.0
H1801 H 0.0989 0.45008 0.46381 0.0
O1802 O 0.03159 0.44044 0.54288 0.0
C1803 C 0.02431 0.40881 0.48352 0.0
C1804 C 0.07334 0.44558 0.46366 0.0
C1805 C 0.09138 0.43672 0.5217 0.0
N1806 N 0.06308 0.43085 0.52643 0.0
C1807 C 0.06053 0.43853 0.48677 0.0
C1808 C 0.07828 0.42981 0.54386 0.0
C1809 C 0.08886 0.44467 0.48135 0.0
C1810 C 0.00886 0.38154 0.61272 0.0
N1811 N 0.00343 0.38881 0.5747 0.0
C1812 C 0.00845 0.36478 0.61708 0.0
C1813 C 0.0024 0.35546 0.58222 0.0
C1814 C 0.99686 0.36297 0.54358 0.0
C1815 C 0.99749 0.37976 0.54036 0.0
C1816 C 0.95453 0.40592 0.56047 0.0
C1817 C 0.97833 0.42211 0.51373 0.0
C1818 C 0.97065 0.40517 0.57378 0.0
N1819 N 0.98232 0.41314 0.55032 0.0
C1820 C 0.96233 0.42313 0.49944 0.0
C1821 C 0.95038 0.41495 0.52301 0.0
C1822 C 0.01708 0.44515 0.54871 0.0
C1823 C 0.05662 0.42902 0.69161 0.0
C1824 C 0.05465 0.44728 0.61453 0.0
C1825 C 0.05889 0.45471 0.65464 0.0
C1826 C 0.05986 0.44549 0.6934 0.0
N1827 N 0.05151 0.43111 0.61304 0.0
C1828 C 0.05245 0.42199 0.65089 0.0
Co1829 Co 0.3418 0.25658 0.32139 0.0
Co1830 Co 0.32986 0.29627 0.31051 0.0
O1831 O 0.34142 0.27897 0.34111 0.0
C1832 C 0.33047 0.25335 0.41464 0.0
O1833 O 0.31855 0.26317 0.40499 0.0
C1834 C 0.36346 0.3078 0.31855 0.0
O1835 O 0.36801 0.29341 0.30548 0.0
O1836 O 0.33913 0.28998 0.25151 0.0
O1837 O 0.34305 0.26329 0.25793 0.0
H1838 H 0.2952 0.32029 0.1902 0.0
H1839 H 0.36508 0.26743 0.39031 0.0
O1840 O 0.34067 0.24938 0.38492 0.0
H1841 H 0.39837 0.24802 0.26509 0.0
H1842 H 0.35862 0.19836 0.33151 0.0
H1843 H 0.32631 0.23815 0.24817 0.0
H1844 H 0.36869 0.24691 0.26092 0.0
H1845 H 0.35812 0.22688 0.35474 0.0
O1846 O 0.34852 0.31123 0.32136 0.0
H1847 H 0.30971 0.29846 0.229 0.0
H1848 H 0.32578 0.33143 0.32784 0.0
H1849 H 0.32656 0.20978 0.22362 0.0
H1850 H 0.39472 0.26858 0.39609 0.0
H1851 H 0.3428 0.18966 0.26541 0.0
H1852 H 0.41157 0.25889 0.33309 0.0
O1853 O 0.31781 0.25612 0.31619 0.0
H1854 H 0.33167 0.30847 0.47458 0.0
H1855 H 0.29665 0.30388 0.34234 0.0
H1856 H 0.28464 0.3108 0.41509 0.0
H1857 H 0.3022 0.31316 0.48186 0.0
H1858 H 0.34315 0.30145 0.40123 0.0
H1859 H 0.31155 0.35366 0.28991 0.0
H1860 H 0.29607 0.34813 0.22066 0.0
O1861 O 0.31105 0.28169 0.29928 0.0
C1862 C 0.34243 0.27619 0.23492 0.0
C1863 C 0.30187 0.32285 0.22041 0.0
C1864 C 0.31106 0.34158 0.27634 0.0
N1865 N 0.3185 0.31365 0.28078 0.0
C1866 C 0.31008 0.31052 0.24259 0.0
C1867 C 0.31913 0.32895 0.2976 0.0
C1868 C 0.30237 0.33847 0.2375 0.0
C1869 C 0.37233 0.26301 0.36297 0.0
N1870 N 0.36516 0.25704 0.3254 0.0
C1871 C 0.38911 0.26376 0.36635 0.0
C1872 C 0.39856 0.25836 0.33095 0.0
C1873 C 0.39116 0.25227 0.29277 0.0
C1874 C 0.37434 0.25172 0.29054 0.0
C1875 C 0.35151 0.20702 0.313 0.0
C1876 C 0.33347 0.22948 0.26642 0.0
C1877 C 0.35115 0.22318 0.32606 0.0
N1878 N 0.34226 0.23419 0.30269 0.0
C1879 C 0.33353 0.21343 0.25241 0.0
C1880 C 0.34264 0.20214 0.2759 0.0
C1881 C 0.30759 0.26678 0.30396 0.0
C1882 C 0.32389 0.30751 0.44571 0.0
C1883 C 0.30435 0.30483 0.37125 0.0
C1884 C 0.29749 0.30879 0.41234 0.0
C1885 C 0.30736 0.31012 0.44979 0.0
N1886 N 0.32059 0.30232 0.3675 0.0
C1887 C 0.33033 0.3036 0.40406 0.0
H1888 H 0.02602 0.09713 0.68868 0.0
H1889 H 0.98591 0.06775 0.73212 0.0
H1890 H 0.03397 0.10128 0.76645 0.0
H1891 H 0.99388 0.07195 0.80948 0.0
H1892 H 0.04872 0.08715 0.9165 0.0
H1893 H 0.04365 0.08467 0.83622 0.0
H1894 H 0.99381 0.09757 0.85723 0.0
H1895 H 0.99869 0.1001 0.93652 0.0
C1896 C 0.01899 0.09145 0.71477 0.0
C1897 C 0.00528 0.08218 0.70436 0.0
C1898 C 0.02359 0.09379 0.75915 0.0
C1899 C 0.01443 0.08709 0.79377 0.0
C1900 C 0.00102 0.07744 0.7833 0.0
C1901 C 0.99652 0.07495 0.73903 0.0
C1902 C 0.03678 0.08981 0.90384 0.0
C1903 C 0.02407 0.09359 0.9331 0.0
C1904 C 0.03389 0.08834 0.85797 0.0
C1905 C 0.01826 0.09057 0.84092 0.0
C1906 C 0.00588 0.09542 0.86974 0.0
C1907 C 0.00875 0.09696 0.91521 0.0
H1908 H 0.14579 0.75642 0.94725 0.0
H1909 H 0.19501 0.74639 0.98563 0.0
H1910 H 0.14024 0.76671 0.02226 0.0
H1911 H 0.18949 0.75715 0.06022 0.0
H1912 H 0.17582 0.79459 0.16942 0.0
H1913 H 0.17876 0.78768 0.09058 0.0
H1914 H 0.14276 0.75052 0.10489 0.0
H1915 H 0.14014 0.75699 0.18412 0.0
C1916 C 0.15544 0.75653 0.9716 0.0
C1917 C 0.17084 0.75058 0.96074 0.0
C1918 C 0.15224 0.76241 0.01435 0.0
C1919 C 0.16449 0.76282 0.04652 0.0
C1920 C 0.17993 0.75708 0.03561 0.0
C1921 C 0.18304 0.75083 0.99318 0.0
C1922 C 0.16825 0.78521 0.15562 0.0
C1923 C 0.15783 0.77624 0.18308 0.0
C1924 C 0.17003 0.78121 0.11062 0.0
C1925 C 0.16109 0.7685 0.09215 0.0
C1926 C 0.14977 0.76037 0.11859 0.0
C1927 C 0.14826 0.7641 0.16382 0.0
H1928 H 0.517 0.9357 0.23345 0.0
H1929 H 0.47655 0.90703 0.18879 0.0
H1930 H 0.50898 0.93113 0.31065 0.0
H1931 H 0.4686 0.90246 0.26624 0.0
H1932 H 0.45359 0.91524 0.41587 0.0
H1933 H 0.45893 0.91824 0.33595 0.0
H1934 H 0.50881 0.90564 0.35778 0.0
H1935 H 0.50367 0.90264 0.43683 0.0
C1936 C 0.50631 0.92858 0.24008 0.0
C1937 C 0.49747 0.92165 0.20513 0.0
C1938 C 0.50179 0.92587 0.28422 0.0
C1939 C 0.48829 0.91628 0.29422 0.0
C1940 C 0.47905 0.90989 0.25932 0.0
C1941 C 0.48365 0.91247 0.21511 0.0
C1942 C 0.4656 0.91276 0.40345 0.0
C1943 C 0.47825 0.90894 0.43289 0.0
C1944 C 0.46865 0.91454 0.3578 0.0
C1945 C 0.48437 0.91256 0.34112 0.0
C1946 C 0.49668 0.90763 0.37004 0.0
C1947 C 0.49366 0.9058 0.41534 0.0
H1948 H 0.35795 0.24151 0.452 0.0
H1949 H 0.3078 0.25119 0.48068 0.0
H1950 H 0.36182 0.23192 0.52831 0.0
H1951 H 0.31168 0.24121 0.55687 0.0
H1952 H 0.32291 0.2075 0.67584 0.0
H1953 H 0.32072 0.21294 0.59584 0.0
H1954 H 0.35904 0.24793 0.60593 0.0
H1955 H 0.36097 0.24287 0.68598 0.0
C1956 C 0.34772 0.24144 0.47446 0.0
C1957 C 0.33256 0.24715 0.46045 0.0
C1958 C 0.34996 0.23596 0.51804 0.0
C1959 C 0.33703 0.23575 0.54814 0.0
C1960 C 0.32179 0.24111 0.53398 0.0
C1961 C 0.31961 0.24692 0.4906 0.0
C1962 C 0.33112 0.21607 0.66084 0.0
C1963 C 0.34206 0.22482 0.68721 0.0
C1964 C 0.32976 0.21927 0.61519 0.0
C1965 C 0.33961 0.23094 0.59505 0.0
C1966 C 0.35132 0.23886 0.62077 0.0
C1967 C 0.35242 0.23595 0.66651 0.0
H1968 H 0.00956 0.89238 0.79972 0.0
H1969 H 0.00401 0.94338 0.77473 0.0
H1970 H 0.01829 0.88841 0.72239 0.0
H1971 H 0.01326 0.93938 0.69786 0.0
H1972 H 0.0474 0.92366 0.57868 0.0
H1973 H 0.04249 0.9253 0.6591 0.0
H1974 H 0.99951 0.8966 0.64374 0.0
H1975 H 0.00393 0.89547 0.56331 0.0
C1976 C 0.01044 0.90276 0.77793 0.0
C1977 C 0.00607 0.9182 0.79315 0.0
C1978 C 0.01542 0.90046 0.73383 0.0
C1979 C 0.01653 0.91362 0.70463 0.0
C1980 C 0.01262 0.9291 0.72008 0.0
C1981 C 0.00726 0.93136 0.76385 0.0
C1982 C 0.03705 0.91748 0.59244 0.0
C1983 C 0.02598 0.90955 0.56446 0.0
C1984 C 0.03424 0.91848 0.63839 0.0
C1985 C 0.02061 0.91113 0.65721 0.0
C1986 C 0.01012 0.90232 0.62982 0.0
C1987 C 0.01268 0.90169 0.58383 0.0
H1988 H 0.33769 0.79628 0.82856 0.0
H1989 H 0.35771 0.74844 0.8124 0.0
H1990 H 0.33375 0.79094 0.90804 0.0
H1991 H 0.35361 0.74323 0.89121 0.0
H1992 H 0.32011 0.73201 0.00882 0.0
H1993 H 0.32643 0.74009 0.93249 0.0
H1994 H 0.34914 0.78346 0.98137 0.0
H1995 H 0.34291 0.7754 0.05788 0.0
C1996 C 0.34163 0.78482 0.84201 0.0
C1997 C 0.34775 0.77269 0.81389 0.0
C1998 C 0.3393 0.78176 0.88743 0.0
C1999 C 0.343 0.76654 0.90523 0.0
C2000 C 0.3503 0.75493 0.87794 0.0
C2001 C 0.35274 0.75799 0.83284 0.0
C2002 C 0.32628 0.74335 0.00328 0.0
C2003 C 0.33107 0.75304 0.03924 0.0
C2004 C 0.33002 0.74789 0.95971 0.0
C2005 C 0.33844 0.76229 0.95132 0.0
C2006 C 0.34267 0.77231 0.98708 0.0
C2007 C 0.33912 0.76766 0.03074 0.0
H2008 H 0.49154 0.1108 0.06066 0.0
H2009 H 0.45546 0.07342 0.07075 0.0
H2010 H 0.49611 0.10921 0.14101 0.0
H2011 H 0.46042 0.07155 0.15106 0.0
H2012 H 0.49818 0.05854 0.26763 0.0
H2013 H 0.48852 0.06228 0.19112 0.0
H2014 H 0.47958 0.11257 0.21821 0.0
H2015 H 0.48885 0.10884 0.29496 0.0
C2016 C 0.48437 0.10247 0.08015 0.0
C2017 C 0.47318 0.0922 0.05937 0.0
C2018 C 0.48699 0.10157 0.12607 0.0
C2019 C 0.47872 0.09015 0.15191 0.0
C2020 C 0.467 0.08038 0.13164 0.0
C2021 C 0.46409 0.08155 0.0858 0.0
C2022 C 0.49404 0.07035 0.25734 0.0
C2023 C 0.49429 0.08339 0.28721 0.0
C2024 C 0.48841 0.07245 0.21376 0.0
C2025 C 0.48326 0.08769 0.19908 0.0
C2026 C 0.48346 0.10071 0.2289 0.0
C2027 C 0.48875 0.09855 0.27272 0.0
H2028 H 0.15876 0.22677 0.55957 0.0
H2029 H 0.18437 0.26883 0.51219 0.0
H2030 H 0.15411 0.21824 0.48265 0.0
H2031 H 0.17971 0.26023 0.43544 0.0
H2032 H 0.15047 0.2527 0.3115 0.0
H2033 H 0.15376 0.25823 0.39024 0.0
H2034 H 0.16989 0.20938 0.41199 0.0
H2035 H 0.16659 0.20365 0.33234 0.0
C2036 C 0.16352 0.23411 0.53275 0.0
C2037 C 0.17183 0.24854 0.54182 0.0
C2038 C 0.16089 0.22917 0.48884 0.0
C2039 C 0.16638 0.23868 0.45333 0.0
C2040 C 0.17515 0.25282 0.46239 0.0
C2041 C 0.17792 0.25767 0.50625 0.0
C2042 C 0.15446 0.24298 0.33294 0.0
C2043 C 0.15853 0.22778 0.31538 0.0
C2044 C 0.15646 0.24623 0.37804 0.0
C2045 C 0.16248 0.23436 0.40679 0.0
C2046 C 0.16535 0.21877 0.39025 0.0
C2047 C 0.1634 0.21549 0.34475 0.0
H2048 H 1.00074 0.946 0.26962 0.0
H2049 H 0.99096 0.89607 0.30063 0.0
H2050 H 0.99093 0.94162 0.19342 0.0
H2051 H 0.98159 0.89169 0.22428 0.0
H2052 H 0.99301 0.8917 0.0664 0.0
H2053 H 0.99812 0.89429 0.14631 0.0
H2054 H 0.9624 0.93198 0.15469 0.0
H2055 H 0.95686 0.92907 0.07488 0.0
C2056 C 0.99648 0.93414 0.26021 0.0
C2057 C 0.99662 0.92139 0.29106 0.0
C2058 C 0.99078 0.93167 0.2168 0.0
C2059 C 0.98546 0.91634 0.20326 0.0
C2060 C 0.98559 0.90362 0.23405 0.0
C2061 C 0.99094 0.90616 0.27767 0.0
C2062 C 0.98595 0.90025 0.08545 0.0
C2063 C 0.97455 0.9102 0.06428 0.0
C2064 C 0.98889 0.90174 0.13113 0.0
C2065 C 0.98076 0.91344 0.15634 0.0
C2066 C 0.96889 0.92294 0.13575 0.0
C2067 C 0.96565 0.92118 0.0902 0.0
H2068 H 0.81736 0.26742 0.01166 0.0
H2069 H 0.84592 0.22702 0.05716 0.0
H2070 H 0.82256 0.25965 0.93458 0.0
H2071 H 0.85105 0.21926 0.9797 0.0
H2072 H 0.83814 0.20482 0.82849 0.0
H2073 H 0.83514 0.20981 0.90861 0.0
H2074 H 0.84871 0.25953 0.88885 0.0
H2075 H 0.85177 0.25472 0.80961 0.0
C2076 C 0.82459 0.25679 0.00524 0.0
C2077 C 0.83129 0.24788 0.04042 0.0
C2078 C 0.82765 0.25241 0.96115 0.0
C2079 C 0.83735 0.23897 0.95137 0.0
C2080 C 0.84354 0.22967 0.98646 0.0
C2081 C 0.84063 0.23416 0.03066 0.0
C2082 C 0.84085 0.21671 0.8414 0.0
C2083 C 0.84493 0.22942 0.81245 0.0
C2084 C 0.83909 0.21956 0.88719 0.0
C2085 C 0.84132 0.23515 0.9045 0.0
C2086 C 0.84654 0.2475 0.8761 0.0
C2087 C 0.8484 0.24467 0.83068 0.0
H2088 H 0.52494 0.09605 0.80613 0.0
H2089 H 0.48456 0.0674 0.76094 0.0
H2090 H 0.53293 0.1007 0.72842 0.0
H2091 H 0.49247 0.07222 0.68383 0.0
H2092 H 0.49762 0.10213 0.55895 0.0
H2093 H 0.49294 0.09908 0.63828 0.0
H2094 H 0.54208 0.08336 0.6566 0.0
H2095 H 0.54691 0.08618 0.57625 0.0
C2096 C 0.51786 0.09065 0.77969 0.0
C2097 C 0.50409 0.0814 0.78962 0.0
C2098 C 0.52247 0.09328 0.73536 0.0
C2099 C 0.51322 0.08694 0.70033 0.0
C2100 C 0.49971 0.07739 0.71032 0.0
C2101 C 0.49524 0.07456 0.75447 0.0
C2102 C 0.50758 0.09823 0.57966 0.0
C2103 C 0.52261 0.09418 0.56092 0.0
C2104 C 0.50483 0.09642 0.62517 0.0
C2105 C 0.51705 0.09069 0.65327 0.0
C2106 C 0.53244 0.08774 0.63544 0.0
C2107 C 0.5352 0.0894 0.58952 0.0
H2108 H 0.69335 0.75261 0.52498 0.0
H2109 H 0.64277 0.76058 0.55181 0.0
H2110 H 0.68951 0.76256 0.44868 0.0
H2111 H 0.63894 0.77006 0.47529 0.0
H2112 H 0.64271 0.75797 0.31655 0.0
H2113 H 0.64414 0.75289 0.39665 0.0
H2114 H 0.67829 0.79175 0.41109 0.0
H2115 H 0.67646 0.79728 0.33104 0.0
C2116 C 0.68146 0.75649 0.5146 0.0
C2117 C 0.66837 0.75581 0.54424 0.0
C2118 C 0.6793 0.76228 0.47121 0.0
C2119 C 0.66396 0.76713 0.45655 0.0
C2120 C 0.65088 0.76645 0.48608 0.0
C2121 C 0.6531 0.76102 0.52972 0.0
C2122 C 0.6502 0.7657 0.33692 0.0
C2123 C 0.65955 0.77796 0.31744 0.0
C2124 C 0.65102 0.76278 0.38268 0.0
C2125 C 0.66146 0.77183 0.40962 0.0
C2126 C 0.67024 0.78457 0.39072 0.0
C2127 C 0.6691 0.78777 0.34503 0.0
H2128 H 0.95449 0.08477 0.41783 0.0
H2129 H 0.00194 0.10562 0.43459 0.0
H2130 H 0.95999 0.08111 0.33818 0.0
H2131 H 0.00731 0.10177 0.35584 0.0
H2132 H 0.01943 0.06908 0.2376 0.0
H2133 H 0.01084 0.07453 0.31401 0.0
H2134 H 0.96758 0.09743 0.26499 0.0
H2135 H 0.97618 0.0921 0.18833 0.0
C2136 C 0.96589 0.08893 0.4045 0.0
C2137 C 0.97785 0.09525 0.4328 0.0
C2138 C 0.96905 0.08675 0.359 0.0
C2139 C 0.98422 0.09079 0.34138 0.0
C2140 C 0.99567 0.09821 0.36893 0.0
C2141 C 0.9925 0.10051 0.41403 0.0
C2142 C 0.00801 0.0751 0.24308 0.0
C2143 C 0.99853 0.08024 0.20705 0.0
C2144 C 0.00315 0.07832 0.28673 0.0
C2145 C 0.98864 0.08654 0.29515 0.0
C2146 C 0.97882 0.09108 0.25926 0.0
C2147 C 0.98378 0.08807 0.21552 0.0
H2148 H 0.6442 0.24877 0.18485 0.0
H2149 H 0.67228 0.20522 0.16975 0.0
H2150 H 0.64595 0.25351 0.10464 0.0
H2151 H 0.67455 0.21045 0.0896 0.0
H2152 H 0.69371 0.24918 0.97594 0.0
H2153 H 0.6891 0.23974 0.0524 0.0
H2154 H 0.63826 0.23515 0.02499 0.0
H2155 H 0.64284 0.24406 0.94811 0.0
C2156 C 0.65051 0.24007 0.16442 0.0
C2157 C 0.65818 0.22666 0.18384 0.0
C2158 C 0.65152 0.24281 0.11855 0.0
C2159 C 0.66049 0.23241 0.09134 0.0
C2160 C 0.66762 0.21866 0.11016 0.0
C2161 C 0.66625 0.21566 0.15596 0.0
C2162 C 0.68158 0.246 0.9861 0.0
C2163 C 0.66864 0.24735 0.9561 0.0
C2164 C 0.67898 0.24052 0.02964 0.0
C2165 C 0.66336 0.23667 0.04417 0.0
C2166 C 0.65042 0.23797 0.01429 0.0
C2167 C 0.65306 0.24306 0.97043 0.0
H2168 H 0.48207 0.93403 0.73792 0.0
H2169 H 0.5248 0.91006 0.68855 0.0
H2170 H 0.49062 0.92848 0.81427 0.0
H2171 H 0.53329 0.90452 0.76504 0.0
H2172 H 0.54744 0.91589 0.91645 0.0
H2173 H 0.54171 0.91963 0.837 0.0
H2174 H 0.49326 0.90212 0.85737 0.0
H2175 H 0.49881 0.89838 0.93601 0.0
C2176 C 0.49336 0.92775 0.74336 0.0
C2177 C 0.50271 0.9224 0.70732 0.0
C2178 C 0.49819 0.92446 0.78698 0.0
C2179 C 0.51251 0.91589 0.79534 0.0
C2180 C 0.5222 0.91113 0.75941 0.0
C2181 C 0.5173 0.91427 0.71574 0.0
C2182 C 0.53571 0.91247 0.90376 0.0
C2183 C 0.5235 0.90713 0.93278 0.0
C2184 C 0.53242 0.91467 0.85837 0.0
C2185 C 0.51691 0.91158 0.84154 0.0
C2186 C 0.50518 0.90501 0.86982 0.0
C2187 C 0.50844 0.90275 0.91485 0.0
H2188 H 0.85869 0.75575 0.6859 0.0
H2189 H 0.82809 0.79761 0.67206 0.0
H2190 H 0.85753 0.75143 0.60545 0.0
H2191 H 0.82646 0.79282 0.59162 0.0
H2192 H 0.80929 0.75475 0.47611 0.0
H2193 H 0.81343 0.76418 0.55276 0.0
H2194 H 0.86436 0.76924 0.52733 0.0
H2195 H 0.86026 0.76031 0.45033 0.0
C2196 C 0.85196 0.76419 0.66567 0.0
C2197 C 0.84338 0.77695 0.68546 0.0
C2198 C 0.8513 0.7617 0.61968 0.0
C2199 C 0.84178 0.77171 0.59276 0.0
C2200 C 0.8338 0.78492 0.61198 0.0
C2201 C 0.83481 0.78767 0.65793 0.0
C2202 C 0.82133 0.75802 0.48678 0.0
C2203 C 0.83444 0.75679 0.45735 0.0
C2204 C 0.82367 0.76351 0.53039 0.0
C2205 C 0.83919 0.7675 0.5455 0.0
C2206 C 0.85229 0.76631 0.51616 0.0
C2207 C 0.84991 0.7612 0.47226 0.0
H2208 H 0.4773 0.57105 0.2429 0.0
H2209 H 0.5195 0.59429 0.1878 0.0
H2210 H 0.48653 0.57768 0.31784 0.0
H2211 H 0.52868 0.60096 0.26303 0.0
H2212 H 0.54532 0.58883 0.41199 0.0
H2213 H 0.53821 0.58619 0.33316 0.0
H2214 H 0.49014 0.60326 0.36184 0.0
H2215 H 0.49704 0.60579 0.44008 0.0
C2216 C 0.48856 0.57751 0.24678 0.0
C2217 C 0.49765 0.58216 0.20949 0.0
C2218 C 0.49378 0.58143 0.28964 0.0
C2219 C 0.50824 0.58998 0.29609 0.0
C2220 C 0.51751 0.59436 0.25891 0.0
C2221 C 0.51221 0.59057 0.21595 0.0
C2222 C 0.53337 0.59242 0.4013 0.0
C2223 C 0.52166 0.59722 0.43252 0.0
C2224 C 0.5293 0.59087 0.35619 0.0
C2225 C 0.5135 0.59413 0.34178 0.0
C2226 C 0.50228 0.60027 0.37232 0.0
C2227 C 0.50631 0.60183 0.41713 0.0
H2228 H 0.64509 0.26216 0.44887 0.0
H2229 H 0.69511 0.25174 0.47713 0.0
H2230 H 0.64146 0.27179 0.52531 0.0
H2231 H 0.69148 0.26177 0.55335 0.0
H2232 H 0.68071 0.29572 0.67287 0.0
H2233 H 0.68294 0.2901 0.5929 0.0
H2234 H 0.64408 0.25573 0.60301 0.0
H2235 H 0.64214 0.26094 0.68299 0.0
C2236 C 0.65535 0.26209 0.47124 0.0
C2237 C 0.6704 0.25615 0.45705 0.0
C2238 C 0.65324 0.26759 0.51492 0.0
C2239 C 0.66621 0.2676 0.54497 0.0
C2240 C 0.68135 0.26204 0.53058 0.0
C2241 C 0.68338 0.2562 0.48714 0.0
C2242 C 0.67242 0.28723 0.65788 0.0
C2243 C 0.66128 0.27873 0.68427 0.0
C2244 C 0.67379 0.28393 0.61224 0.0
C2245 C 0.66376 0.27241 0.59204 0.0
C2246 C 0.65194 0.26469 0.61782 0.0
C2247 C 0.65083 0.26768 0.66356 0.0
H2248 H 0.97495 0.41047 0.69008 0.0
H2249 H 0.01868 0.43285 0.73835 0.0
H2250 H 0.96639 0.40549 0.7669 0.0
H2251 H 0.01011 0.42776 0.81498 0.0
H2252 H 0.00092 0.39676 0.93579 0.0
H2253 H 0.00628 0.40066 0.85705 0.0
H2254 H 0.95918 0.42188 0.8399 0.0
H2255 H 0.95369 0.41818 0.91954 0.0
C2256 C 0.98266 0.41445 0.71709 0.0
C2257 C 0.99754 0.42197 0.70831 0.0
C2258 C 0.97771 0.41164 0.76092 0.0
C2259 C 0.98768 0.41608 0.79659 0.0
C2260 C 0.00231 0.42404 0.78787 0.0
C2261 C 0.00716 0.42706 0.7441 0.0
C2262 C 0.99153 0.40202 0.91535 0.0
C2263 C 0.97695 0.40741 0.93424 0.0
C2264 C 0.99469 0.40434 0.87027 0.0
C2265 C 0.9833 0.41192 0.84288 0.0
C2266 C 0.96819 0.41612 0.86063 0.0
C2267 C 0.96504 0.41391 0.9061 0.0
H2268 H 0.83468 0.70396 0.16905 0.0
H2269 H 0.85257 0.75262 0.18542 0.0
H2270 H 0.83127 0.70897 0.08895 0.0
H2271 H 0.84892 0.75749 0.10638 0.0
H2272 H 0.81673 0.76716 0.98548 0.0
H2273 H 0.82173 0.759 0.06239 0.0
H2274 H 0.84832 0.71751 0.01624 0.0
H2275 H 0.8435 0.72573 0.93885 0.0
C2276 C 0.8382 0.71556 0.15561 0.0
C2277 C 0.8437 0.72794 0.18391 0.0
C2278 C 0.83618 0.71842 0.10984 0.0
C2279 C 0.83951 0.73372 0.09189 0.0
C2280 C 0.84595 0.7457 0.11962 0.0
C2281 C 0.84812 0.74283 0.16495 0.0
C2282 C 0.82349 0.7562 0.99161 0.0
C2283 C 0.82979 0.74713 0.95612 0.0
C2284 C 0.82643 0.75159 0.03561 0.0
C2285 C 0.83553 0.73771 0.04508 0.0
C2286 C 0.84127 0.72824 0.00972 0.0
C2287 C 0.83854 0.73299 0.96556 0.0
H2288 H 0.50709 0.39018 0.06378 0.0
H2289 H 0.54497 0.42584 0.07146 0.0
H2290 H 0.50282 0.39251 0.14414 0.0
H2291 H 0.54024 0.4285 0.15165 0.0
H2292 H 0.50306 0.44384 0.26836 0.0
H2293 H 0.51222 0.43922 0.1917 0.0
H2294 H 0.52002 0.38896 0.22163 0.0
H2295 H 0.51132 0.39357 0.29858 0.0
C2296 C 0.5147 0.39829 0.08268 0.0
C2297 C 0.52633 0.40787 0.06113 0.0
C2298 C 0.51224 0.39962 0.12864 0.0
C2299 C 0.5211 0.4108 0.15379 0.0
C2300 C 0.5332 0.41987 0.13279 0.0
C2301 C 0.53595 0.41826 0.08696 0.0
C2302 C 0.50689 0.43185 0.25869 0.0
C2303 C 0.50649 0.41908 0.28945 0.0
C2304 C 0.5122 0.42924 0.21499 0.0
C2305 C 0.51687 0.41376 0.20103 0.0
C2306 C 0.51652 0.401 0.23173 0.0
C2307 C 0.51157 0.40368 0.27569 0.0
H2308 H 0.83283 0.29896 0.32745 0.0
H2309 H 0.85311 0.25126 0.31079 0.0
H2310 H 0.8297 0.29374 0.40748 0.0
H2311 H 0.84977 0.24617 0.38982 0.0
H2312 H 0.81804 0.23473 0.51025 0.0
H2313 H 0.82267 0.24319 0.43335 0.0
H2314 H 0.8469 0.28607 0.4799 0.0
H2315 H 0.8424 0.2776 0.5571 0.0
C2316 C 0.83696 0.28756 0.34084 0.0
C2317 C 0.843 0.27545 0.31252 0.0
C2318 C 0.83509 0.28456 0.38654 0.0
C2319 C 0.83914 0.26942 0.40432 0.0
C2320 C 0.84622 0.25781 0.37663 0.0
C2321 C 0.84822 0.26081 0.33136 0.0
C2322 C 0.82419 0.24605 0.50415 0.0
C2323 C 0.82994 0.25545 0.53963 0.0
C2324 C 0.82692 0.25083 0.46021 0.0
C2325 C 0.83528 0.26519 0.45094 0.0
C2326 C 0.84043 0.27496 0.48631 0.0
C2327 C 0.8379 0.27006 0.53035 0.0
H2328 H 0.99295 0.60651 0.79858 0.0
H2329 H 0.00278 0.55684 0.76465 0.0
H2330 H 0.98298 0.61128 0.72283 0.0
H2331 H 0.99235 0.56158 0.68933 0.0
H2332 H 0.95685 0.57411 0.57492 0.0
H2333 H 0.96287 0.57161 0.6545 0.0
H2334 H 0.99928 0.60848 0.64249 0.0
H2335 H 0.99369 0.61066 0.56268 0.0
C2336 C 0.99283 0.59658 0.7751 0.0
C2337 C 0.99868 0.5813 0.78741 0.0
C2338 C 0.98713 0.59934 0.73189 0.0
C2339 C 0.9868 0.58676 0.70065 0.0
C2340 C 0.99234 0.57141 0.71314 0.0
C2341 C 0.9984 0.56874 0.75602 0.0
C2342 C 0.96587 0.58195 0.58938 0.0
C2343 C 0.97487 0.59251 0.56246 0.0
C2344 C 0.96938 0.58043 0.63481 0.0
C2345 C 0.98161 0.58977 0.65426 0.0
C2346 C 0.98978 0.60117 0.62814 0.0
C2347 C 0.98657 0.60241 0.58254 0.0
H2348 H 0.68491 0.76905 0.01618 0.0
H2349 H 0.65852 0.72753 0.06376 0.0
H2350 H 0.67971 0.7608 0.93948 0.0
H2351 H 0.65342 0.71925 0.98665 0.0
H2352 H 0.66598 0.70485 0.83521 0.0
H2353 H 0.66952 0.71035 0.91493 0.0
H2354 H 0.65327 0.75923 0.89471 0.0
H2355 H 0.64957 0.75388 0.8159 0.0
C2356 C 0.67817 0.75807 0.0103 0.0
C2357 C 0.67207 0.74899 0.046 0.0
C2358 C 0.6751 0.75341 0.96641 0.0
C2359 C 0.66602 0.73948 0.95728 0.0
C2360 C 0.66045 0.73003 0.99287 0.0
C2361 C 0.66333 0.73481 0.03689 0.0
C2362 C 0.66281 0.71665 0.84795 0.0
C2363 C 0.6577 0.72897 0.81892 0.0
C2364 C 0.66489 0.71979 0.89352 0.0
C2365 C 0.662 0.73531 0.91059 0.0
C2366 C 0.65593 0.74727 0.88216 0.0
C2367 C 0.65372 0.74413 0.83698 0.0
H2368 H 0.49574 0.44244 0.77451 0.0
H2369 H 0.48977 0.3913 0.79639 0.0
H2370 H 0.48691 0.43909 0.69716 0.0
H2371 H 0.48136 0.38796 0.71861 0.0
H2372 H 0.4947 0.39271 0.56218 0.0
H2373 H 0.49846 0.39364 0.6429 0.0
H2374 H 0.45999 0.42842 0.65376 0.0
H2375 H 0.45584 0.42718 0.573 0.0
C2376 C 0.49246 0.43052 0.76287 0.0
C2377 C 0.49345 0.41713 0.79145 0.0
C2378 C 0.48732 0.42863 0.71876 0.0
C2379 C 0.48342 0.41328 0.70216 0.0
C2380 C 0.48428 0.39991 0.73076 0.0
C2381 C 0.48905 0.40185 0.77518 0.0
C2382 C 0.4868 0.40028 0.58181 0.0
C2383 C 0.47501 0.40991 0.56112 0.0
C2384 C 0.48894 0.40078 0.628 0.0
C2385 C 0.47957 0.41118 0.65432 0.0
C2386 C 0.46739 0.42036 0.63402 0.0
C2387 C 0.46498 0.41957 0.58788 0.0
H2388 H 0.34924 0.75354 0.31064 0.0
H2389 H 0.33755 0.70314 0.32965 0.0
H2390 H 0.34688 0.75806 0.39016 0.0
H2391 H 0.33525 0.70785 0.41007 0.0
H2392 H 0.34833 0.72497 0.55731 0.0
H2393 H 0.35205 0.7175 0.47906 0.0
H2394 H 0.32163 0.75722 0.43925 0.0
H2395 H 0.31787 0.76472 0.51714 0.0
C2396 C 0.3464 0.74334 0.33176 0.0
C2397 C 0.34335 0.728 0.31357 0.0
C2398 C 0.34495 0.74599 0.37734 0.0
C2399 C 0.34053 0.73339 0.40592 0.0
C2400 C 0.33858 0.71778 0.3885 0.0
C2401 C 0.33995 0.7151 0.34255 0.0
C2402 C 0.34231 0.732 0.53183 0.0
C2403 C 0.33288 0.74549 0.54327 0.0
C2404 C 0.34441 0.72768 0.48718 0.0
C2405 C 0.33728 0.7369 0.45333 0.0
C2406 C 0.32744 0.75006 0.46484 0.0
C2407 C 0.3252 0.75428 0.5094 0.0
H2408 H 0.02182 0.56167 0.0603 0.0
H2409 H 0.0299 0.6127 0.07571 0.0
H2410 H 0.01607 0.55924 0.13974 0.0
H2411 H 0.02362 0.61052 0.1556 0.0
H2412 H 0.02276 0.59767 0.30491 0.0
H2413 H 0.03192 0.59973 0.2277 0.0
H2414 H 0.99423 0.56686 0.1872 0.0
H2415 H 0.98538 0.56448 0.26414 0.0
C2416 C 0.02253 0.57233 0.08113 0.0
C2417 C 0.02638 0.58733 0.0625 0.0
C2418 C 0.01908 0.571 0.12644 0.0
C2419 C 0.01917 0.58472 0.15399 0.0
C2420 C 0.02357 0.5997 0.1354 0.0
C2421 C 0.02715 0.601 0.08984 0.0
C2422 C 0.0165 0.59082 0.27949 0.0
C2423 C 0.00341 0.58082 0.2907 0.0
C2424 C 0.02169 0.59208 0.23523 0.0
C2425 C 0.01388 0.5834 0.20125 0.0
C2426 C 1.00076 0.57345 0.2126 0.0
C2427 C 0.99562 0.57214 0.25676 0.0
H2428 H 0.14997 0.24812 0.81148 0.0
H2429 H 0.1648 0.29756 0.83256 0.0
H2430 H 0.15344 0.24263 0.89025 0.0
H2431 H 0.16827 0.29189 0.91211 0.0
H2432 H 0.15817 0.27449 0.05967 0.0
H2433 H 0.1529 0.28269 0.98279 0.0
H2434 H 0.17943 0.24131 0.93534 0.0
H2435 H 0.18471 0.23304 0.01205 0.0
C2436 C 0.1537 0.25793 0.83297 0.0
C2437 C 0.15737 0.27324 0.81549 0.0
C2438 C 0.15581 0.25471 0.87808 0.0
C2439 C 0.16151 0.26673 0.90686 0.0
C2440 C 0.16396 0.28239 0.89036 0.0
C2441 C 0.16192 0.28564 0.84491 0.0
C2442 C 0.16299 0.26721 0.0328 0.0
C2443 C 0.17178 0.25306 0.0418 0.0
C2444 C 0.16001 0.27196 0.98891 0.0
C2445 C 0.1656 0.26252 0.95335 0.0
C2446 C 0.17479 0.24865 0.96232 0.0
C2447 C 0.17792 0.24399 0.00616 0.0
H2448 H 0.47668 0.58866 0.68908 0.0
H2449 H 0.5209 0.56639 0.73404 0.0
H2450 H 0.46687 0.58958 0.76556 0.0
H2451 H 0.51141 0.5679 0.8107 0.0
H2452 H 0.48608 0.55946 0.93913 0.0
H2453 H 0.49261 0.55665 0.8605 0.0
H2454 H 0.47106 0.60324 0.83454 0.0
H2455 H 0.46385 0.60555 0.91367 0.0
C2456 C 0.48432 0.58399 0.71538 0.0
C2457 C 0.49954 0.5774 0.70564 0.0
C2458 C 0.47873 0.58462 0.75924 0.0
C2459 C 0.48832 0.57882 0.79435 0.0
C2460 C 0.50354 0.57218 0.78443 0.0
C2461 C 0.50904 0.57136 0.74051 0.0
C2462 C 0.48259 0.56898 0.91634 0.0
C2463 C 0.4746 0.58276 0.932 0.0
C2464 C 0.48644 0.56746 0.87142 0.0
C2465 C 0.48266 0.57985 0.84126 0.0
C2466 C 0.47406 0.59342 0.85681 0.0
C2467 C 0.46995 0.5948 0.90196 0.0
H2468 H 0.1598 0.72712 0.43953 0.0
H2469 H 0.18344 0.77089 0.48214 0.0
H2470 H 0.15881 0.7178 0.51671 0.0
H2471 H 0.18177 0.76205 0.55911 0.0
H2472 H 0.19069 0.73777 0.68828 0.0
H2473 H 0.19291 0.74379 0.60925 0.0
H2474 H 0.14618 0.722 0.58684 0.0
H2475 H 0.14455 0.71517 0.6664 0.0
C2476 C 0.16473 0.73476 0.46545 0.0
C2477 C 0.17183 0.74967 0.45482 0.0
C2478 C 0.16406 0.72948 0.50972 0.0
C2479 C 0.17029 0.73909 0.54429 0.0
C2480 C 0.17723 0.75409 0.53341 0.0
C2481 C 0.17812 0.75924 0.48921 0.0
C2482 C 0.18099 0.73414 0.66621 0.0
C2483 C 0.1674 0.72615 0.68302 0.0
C2484 C 0.18217 0.7377 0.621 0.0
C2485 C 0.16957 0.73372 0.59162 0.0
C2486 C 0.15616 0.72518 0.60839 0.0
C2487 C 0.15515 0.7213 0.65382 0.0
H2488 H 0.9851 0.43365 0.23381 0.0
H2489 H 0.02485 0.40377 0.19041 0.0
H2490 H 0.99269 0.42893 0.31124 0.0
H2491 H 0.03243 0.39911 0.26822 0.0
H2492 H 0.04724 0.413 0.41811 0.0
H2493 H 0.04223 0.41545 0.3379 0.0
H2494 H 0.99221 0.40326 0.35886 0.0
H2495 H 0.99703 0.40075 0.43825 0.0
C2496 C 0.99555 0.42622 0.24077 0.0
C2497 C 0.00433 0.41902 0.20609 0.0
C2498 C 0.99982 0.42343 0.28505 0.0
C2499 C 0.01303 0.41351 0.2955 0.0
C2500 C 0.0222 0.40679 0.26091 0.0
C2501 C 0.01782 0.40943 0.21652 0.0
C2502 C 0.03527 0.41048 0.40548 0.0
C2503 C 0.02249 0.40693 0.43475 0.0
C2504 C 0.03241 0.41193 0.35964 0.0
C2505 C 0.01676 0.40991 0.3426 0.0
C2506 C 0.0043 0.40525 0.3714 0.0
C2507 C 0.00713 0.40371 0.41689 0.0
H2508 H 0.3514 0.24931 0.18895 0.0
H2509 H 0.33625 0.29874 0.16949 0.0
H2510 H 0.34863 0.24434 0.10966 0.0
H2511 H 0.33369 0.29361 0.08925 0.0
H2512 H 0.34651 0.2761 0.94082 0.0
H2513 H 0.35101 0.28416 0.01851 0.0
H2514 H 0.32221 0.2439 0.06294 0.0
H2515 H 0.31756 0.23591 0.98582 0.0
C2516 C 0.34773 0.25923 0.16777 0.0
C2517 C 0.34382 0.27439 0.18588 0.0
C2518 C 0.34608 0.25631 0.1223 0.0
C2519 C 0.34065 0.2685 0.09362 0.0
C2520 C 0.33783 0.284 0.11086 0.0
C2521 C 0.33934 0.28692 0.15672 0.0
C2522 C 0.34102 0.26907 0.96722 0.0
C2523 C 0.33172 0.25534 0.95724 0.0
C2524 C 0.34357 0.27372 0.01154 0.0
C2525 C 0.33709 0.26455 0.04653 0.0
C2526 C 0.3275 0.25106 0.03649 0.0
C2527 C 0.32476 0.24656 0.99234 0.0
H2528 H 0.03709 0.0341 0.0037 0.0
H2529 H 0.98961 0.03982 0.06109 0.0
H2530 H 0.02966 0.00756 0.97651 0.0
H2531 H 0.98239 0.01291 0.03546 0.0
H2532 H 0.968 0.97208 0.9445 0.0
H2533 H 0.97614 0.99869 0.96954 0.0
H2534 H 0.02404 0.98066 0.99694 0.0
H2535 H 0.01604 0.95412 0.97006 0.0
C2536 C 0.02511 0.02963 0.01108 0.0
C2537 C 0.01393 0.03919 0.03452 0.0
C2538 C 0.02087 0.01431 0.9956 0.0
C2539 C 0.00538 0.00804 0.00347 0.0
C2540 C 0.99432 0.01745 0.02788 0.0
C2541 C 0.99851 0.03285 0.043 0.0
C2542 C 0.98034 0.9738 0.95537 0.0
C2543 C 0.99136 0.96091 0.95517 0.0
C2544 C 0.98496 0.98907 0.97027 0.0
C2545 C 1.00071 0.99186 0.9859 0.0
C2546 C 0.01185 0.97905 0.98477 0.0
C2547 C 0.00726 0.96379 0.96937 0.0
H2548 H 0.2042 0.73736 0.27562 0.0
H2549 H 0.22171 0.78588 0.296 0.0
H2550 H 0.23071 0.72926 0.24918 0.0
H2551 H 0.2484 0.77763 0.27144 0.0
H2552 H 0.28994 0.76274 0.18237 0.0
H2553 H 0.26304 0.77042 0.20708 0.0
H2554 H 0.25742 0.72396 0.27052 0.0
H2555 H 0.28393 0.71605 0.24419 0.0
C2556 C 0.21377 0.74625 0.2752 0.0
C2557 C 0.21078 0.76229 0.28799 0.0
C2558 C 0.22903 0.74158 0.26011 0.0
C2559 C 0.24177 0.75278 0.25788 0.0
C2560 C 0.23884 0.76873 0.27171 0.0
C2561 C 0.22354 0.77344 0.2863 0.0
C2562 C 0.28291 0.75411 0.20126 0.0
C2563 C 0.28915 0.73876 0.21118 0.0
C2564 C 0.26751 0.75857 0.21586 0.0
C2565 C 0.25801 0.74787 0.24116 0.0
C2566 C 0.26422 0.73246 0.25062 0.0
C2567 C 0.27953 0.72794 0.23563 0.0
H2568 H 0.53298 0.03149 0.45199 0.0
H2569 H 0.4836 0.04763 0.46287 0.0
H2570 H 0.52508 0.00487 0.47734 0.0
H2571 H 0.47578 0.02116 0.49053 0.0
H2572 H 0.46443 0.96744 0.49937 0.0
H2573 H 0.47169 0.99402 0.47225 0.0
H2574 H 0.51734 0.99072 0.54132 0.0
H2575 H 0.51037 0.96373 0.56665 0.0
C2576 C 0.52041 0.02937 0.45977 0.0
C2577 C 0.50892 0.04174 0.4552 0.0
C2578 C 0.51589 0.0141 0.47491 0.0
C2579 C 0.4998 0.0108 0.48663 0.0
C2580 C 0.48825 0.02312 0.48138 0.0
C2581 C 0.49274 0.03836 0.46558 0.0
C2582 C 0.47601 0.97238 0.50899 0.0
C2583 C 0.48684 0.96335 0.53509 0.0
C2584 C 0.48015 0.98773 0.49355 0.0
C2585 C 0.49517 0.9946 0.50425 0.0
C2586 C 0.50582 0.98573 0.53144 0.0
C2587 C 0.50176 0.97027 0.54639 0.0
H2588 H 0.27894 0.21835 0.8044 0.0
H2589 H 0.29685 0.26631 0.77761 0.0
H2590 H 0.25233 0.22638 0.77899 0.0
H2591 H 0.27033 0.27418 0.75036 0.0
H2592 H 0.21691 0.28726 0.74383 0.0
H2593 H 0.24349 0.2799 0.77088 0.0
H2594 H 0.23801 0.23246 0.71313 0.0
H2595 H 0.21107 0.23961 0.68768 0.0
C2596 C 0.27721 0.23063 0.79315 0.0
C2597 C 0.29008 0.24169 0.79318 0.0
C2598 C 0.26194 0.2352 0.77805 0.0
C2599 C 0.25914 0.25089 0.76205 0.0
C2600 C 0.27195 0.26204 0.76286 0.0
C2601 C 0.2872 0.25752 0.77845 0.0
C2602 C 0.22136 0.27526 0.73667 0.0
C2603 C 0.21175 0.26401 0.71366 0.0
C2604 C 0.2367 0.27106 0.75207 0.0
C2605 C 0.24295 0.25554 0.74451 0.0
C2606 C 0.2335 0.24441 0.72048 0.0
C2607 C 0.21807 0.24857 0.70546 0.0
H2608 H 0.98895 0.9621 0.43353 0.0
H2609 H 0.03642 0.96879 0.49004 0.0
H2610 H 0.98153 0.98922 0.45732 0.0
H2611 H 0.0288 0.99532 0.51586 0.0
H2612 H 0.01608 0.04825 0.52256 0.0
H2613 H 0.02353 0.0217 0.49527 0.0
H2614 H 0.975 0.00478 0.5198 0.0
H2615 H 0.96737 0.0316 0.5447 0.0
C2616 C 0.99779 0.96931 0.45111 0.0
C2617 C 0.01329 0.96321 0.45972 0.0
C2618 C 0.99349 0.98484 0.46519 0.0
C2619 C 0.00452 0.99457 0.48881 0.0
C2620 C 0.02003 0.98842 0.49712 0.0
C2621 C 0.02439 0.97306 0.48248 0.0
C2622 C 0.00702 0.03884 0.52239 0.0
C2623 C 0.99113 0.04209 0.53597 0.0
C2624 C 0.0113 0.02353 0.50682 0.0
C2625 C 0.99989 0.01096 0.50515 0.0
C2626 C 0.98407 0.01417 0.51962 0.0
C2627 C 0.97972 0.02955 0.53446 0.0
H2628 H 0.2164 0.7575 0.82704 0.0
H2629 H 0.2209 0.71253 0.75524 0.0
H2630 H 0.24332 0.76523 0.80249 0.0
H2631 H 0.24739 0.72053 0.72923 0.0
H2632 H 0.30063 0.73315 0.72117 0.0
H2633 H 0.27444 0.72484 0.74945 0.0
H2634 H 0.25725 0.77387 0.73801 0.0
H2635 H 0.28365 0.7823 0.71157 0.0
C2636 C 0.22312 0.74924 0.80613 0.0
C2637 C 0.21643 0.73438 0.79321 0.0
C2638 C 0.23852 0.75375 0.79163 0.0
C2639 C 0.24756 0.74358 0.76349 0.0
C2640 C 0.24095 0.7286 0.75131 0.0
C2641 C 0.22565 0.72403 0.76614 0.0
C2642 C 0.29124 0.74215 0.72441 0.0
C2643 C 0.29429 0.7584 0.71397 0.0
C2644 C 0.27616 0.73737 0.74058 0.0
C2645 C 0.26366 0.74867 0.74627 0.0
C2646 C 0.26664 0.76487 0.73501 0.0
C2647 C 0.28177 0.76968 0.71932 0.0
H2648 H 0.5355 0.96678 0.00245 0.0
H2649 H 0.48783 0.96049 0.05816 0.0
H2650 H 0.52795 0.99325 0.97538 0.0
H2651 H 0.48048 0.9874 0.03272 0.0
H2652 H 0.46647 0.02885 0.94256 0.0
H2653 H 0.47437 0.00215 0.96765 0.0
H2654 H 0.52227 0.0199 0.99649 0.0
H2655 H 0.51454 0.04646 0.96949 0.0
C2656 C 0.52344 0.9711 0.00948 0.0
C2657 C 0.51227 0.96141 0.03248 0.0
C2658 C 0.51913 0.9864 0.99409 0.0
C2659 C 0.50357 0.99255 0.00167 0.0
C2660 C 0.49248 0.98298 0.02544 0.0
C2661 C 0.49674 0.96757 0.04044 0.0
C2662 C 0.47875 0.02704 0.95379 0.0
C2663 C 0.48988 0.03984 0.95381 0.0
C2664 C 0.48324 0.01172 0.9687 0.0
C2665 C 0.49893 0.00881 0.98457 0.0
C2666 C 0.51013 0.02157 0.98399 0.0
C2667 C 0.50569 0.03686 0.96856 0.0
H2668 H 0.21712 0.21616 0.25066 0.0
H2669 H 0.21258 0.26171 0.18188 0.0
H2670 H 0.24357 0.22397 0.27742 0.0
H2671 H 0.2395 0.26924 0.20679 0.0
H2672 H 0.28073 0.28561 0.29404 0.0
H2673 H 0.25406 0.27748 0.26949 0.0
H2674 H 0.27049 0.22815 0.25851 0.0
H2675 H 0.29695 0.23621 0.28542 0.0
C2676 C 0.22186 0.22777 0.24064 0.0
C2677 C 0.21265 0.23832 0.21414 0.0
C2678 C 0.23714 0.23224 0.25587 0.0
C2679 C 0.24379 0.24729 0.24451 0.0
C2680 C 0.2347 0.2577 0.21713 0.0
C2681 C 0.21929 0.25332 0.20242 0.0
C2682 C 0.27862 0.27299 0.2869 0.0
C2683 C 0.29102 0.26156 0.29193 0.0
C2684 C 0.26332 0.26833 0.27224 0.0
C2685 C 0.26003 0.25215 0.26146 0.0
C2686 C 0.27241 0.24069 0.26702 0.0
C2687 C 0.28766 0.24532 0.28237 0.0
H2688 H 0.78531 0.21654 0.74341 0.0
H2689 H 0.79083 0.26423 0.68734 0.0
H2690 H 0.75886 0.22384 0.77148 0.0
H2691 H 0.764 0.27133 0.71382 0.0
H2692 H 0.7233 0.28537 0.80533 0.0
H2693 H 0.7499 0.27732 0.78006 0.0
H2694 H 0.7319 0.22949 0.75181 0.0
H2695 H 0.70536 0.2374 0.77897 0.0
C2696 C 0.78082 0.22854 0.73651 0.0
C2697 C 0.79029 0.23981 0.71317 0.0
C2698 C 0.76554 0.2327 0.7525 0.0
C2699 C 0.75923 0.24821 0.74523 0.0
C2700 C 0.76856 0.25937 0.72096 0.0
C2701 C 0.78393 0.25526 0.70534 0.0
C2702 C 0.72503 0.27307 0.79426 0.0
C2703 C 0.71214 0.26204 0.79425 0.0
C2704 C 0.74029 0.26849 0.77922 0.0
C2705 C 0.74309 0.2528 0.76321 0.0
C2706 C 0.73029 0.24163 0.76425 0.0
C2707 C 0.71502 0.24617 0.77981 0.0
H2708 H 0.71898 0.78836 0.24311 0.0
H2709 H 0.7125 0.74067 0.18795 0.0
H2710 H 0.74553 0.78087 0.26957 0.0
H2711 H 0.73956 0.7334 0.21221 0.0
H2712 H 0.78117 0.71897 0.29996 0.0
H2713 H 0.7545 0.72701 0.27539 0.0
H2714 H 0.77212 0.77529 0.25085 0.0
H2715 H 0.79862 0.76739 0.27804 0.0
C2716 C 0.7233 0.77632 0.23599 0.0
C2717 C 0.7135 0.76509 0.21356 0.0
C2718 C 0.73866 0.77204 0.25099 0.0
C2719 C 0.7448 0.75648 0.24336 0.0
C2720 C 0.73516 0.74538 0.21975 0.0
C2721 C 0.71966 0.74959 0.20537 0.0
C2722 C 0.77932 0.73136 0.28987 0.0
C2723 C 0.79206 0.74253 0.29117 0.0
C2724 C 0.76402 0.73595 0.27515 0.0
C2725 C 0.76107 0.75178 0.26048 0.0
C2726 C 0.77379 0.76303 0.26238 0.0
C2727 C 0.78905 0.7585 0.2779 0.0
H2728 H 0.7105 0.26373 0.31399 0.0
H2729 H 0.71698 0.21629 0.25707 0.0
H2730 H 0.73752 0.27117 0.28924 0.0
H2731 H 0.74337 0.22394 0.23029 0.0
H2732 H 0.79627 0.23673 0.22187 0.0
H2733 H 0.76983 0.22921 0.24989 0.0
H2734 H 0.75273 0.27772 0.22614 0.0
H2735 H 0.77944 0.28542 0.20054 0.0
C2736 C 0.71765 0.2549 0.29613 0.0
C2737 C 0.71152 0.23941 0.28767 0.0
C2738 C 0.73311 0.25921 0.28149 0.0
C2739 C 0.74272 0.2482 0.25746 0.0
C2740 C 0.73655 0.23269 0.24932 0.0
C2741 C 0.72126 0.22832 0.26452 0.0
C2742 C 0.78684 0.24577 0.22234 0.0
C2743 C 0.79001 0.26167 0.20883 0.0
C2744 C 0.7716 0.24145 0.23834 0.0
C2745 C 0.75902 0.25284 0.24051 0.0
C2746 C 0.76214 0.26867 0.22599 0.0
C2747 C 0.77745 0.27305 0.21072 0.0
H2748 H 0.72019 0.71672 0.70518 0.0
H2749 H 0.70423 0.76595 0.72142 0.0
H2750 H 0.74714 0.72437 0.72873 0.0
H2751 H 0.73092 0.77347 0.74758 0.0
H2752 H 0.78392 0.78572 0.75415 0.0
H2753 H 0.75742 0.77813 0.72778 0.0
H2754 H 0.7627 0.73143 0.79029 0.0
H2755 H 0.78978 0.73879 0.81449 0.0
C2756 C 0.72242 0.7292 0.71381 0.0
C2757 C 0.71002 0.74073 0.71114 0.0
C2758 C 0.73789 0.73357 0.72791 0.0
C2759 C 0.74133 0.74955 0.74054 0.0
C2760 C 0.72891 0.7611 0.73748 0.0
C2761 C 0.71352 0.75678 0.72259 0.0
C2762 C 0.77947 0.77383 0.7624 0.0
C2763 C 0.78905 0.76286 0.78645 0.0
C2764 C 0.76412 0.76948 0.74745 0.0
C2765 C 0.75775 0.75414 0.75677 0.0
C2766 C 0.76725 0.74325 0.78156 0.0
C2767 C 0.78276 0.74751 0.79588 0.0
H2768 H 0.48981 0.54108 0.55795 0.0
H2769 H 0.53668 0.53605 0.49644 0.0
H2770 H 0.48265 0.51412 0.53273 0.0
H2771 H 0.52929 0.50942 0.46967 0.0
H2772 H 0.46779 0.47286 0.44394 0.0
H2773 H 0.47581 0.49964 0.46783 0.0
H2774 H 0.52432 0.48244 0.49069 0.0
H2775 H 0.51642 0.45573 0.46492 0.0
C2776 C 0.49859 0.53426 0.53896 0.0
C2777 C 0.51383 0.5408 0.5293 0.0
C2778 C 0.49443 0.51882 0.52409 0.0
C2779 C 0.50533 0.50955 0.49875 0.0
C2780 C 0.52063 0.51605 0.48953 0.0
C2781 C 0.52485 0.53142 0.50476 0.0
C2782 C 0.48022 0.47479 0.45358 0.0
C2783 C 0.49145 0.46208 0.4524 0.0
C2784 C 0.48479 0.49017 0.46781 0.0
C2785 C 0.50069 0.49326 0.48179 0.0
C2786 C 0.51201 0.48062 0.47976 0.0
C2787 C 0.50747 0.46525 0.46503 0.0
H2788 H 0.96795 0.47063 0.04075 0.0
H2789 H 0.01698 0.45344 0.02937 0.0
H2790 H 0.97636 0.49702 0.01445 0.0
H2791 H 0.02528 0.47965 0.00111 0.0
H2792 H 0.03776 0.53306 0.9933 0.0
H2793 H 0.0298 0.50672 0.0205 0.0
H2794 H 0.9846 0.5108 0.94955 0.0
H2795 H 0.99231 0.53758 0.92388 0.0
C2796 C 0.98054 0.47247 0.03267 0.0
C2797 C 0.99178 0.45988 0.03739 0.0
C2798 C 0.98534 0.48759 0.01705 0.0
C2799 C 0.00149 0.49051 0.00516 0.0
C2800 C 0.01278 0.47797 0.01043 0.0
C2801 C 0.00801 0.46288 0.02659 0.0
C2802 C 0.02615 0.52834 0.98319 0.0
C2803 C 0.01567 0.53752 0.9564 0.0
C2804 C 0.0216 0.51313 -0.0013 0.0
C2805 C 0.00651 0.50656 0.98748 0.0
C2806 C 0.99619 0.51557 0.9597 0.0
C2807 C 1.00067 0.53089 0.94457 0.0
H2808 H 0.52978 0.47054 0.9504 0.0
H2809 H 0.48204 0.4507 0.96897 0.0
H2810 H 0.52058 0.49629 0.9791 0.0
H2811 H 0.47295 0.47645 -0.00082 0.0
H2812 H 0.4592 0.53026 0.00925 0.0
H2813 H 0.4671 0.50394 0.98107 0.0
H2814 H 0.51303 0.50838 0.04805 0.0
H2815 H 0.50537 0.53497 0.07497 0.0
C2816 C 0.51729 0.47166 0.96048 0.0
C2817 C 0.50666 0.45849 0.95733 0.0
C2818 C 0.51205 0.48643 0.97747 0.0
C2819 C 0.49608 0.48843 0.99216 0.0
C2820 C 0.48531 0.47539 0.98795 0.0
C2821 C 0.49053 0.46061 0.9706 0.0
C2822 C 0.47093 0.52559 0.01839 0.0
C2823 C 0.48168 0.53485 0.04418 0.0
C2824 C 0.47545 0.51043 0.00228 0.0
C2825 C 0.49079 0.50408 0.01176 0.0
C2826 C 0.50126 0.51304 0.03916 0.0
C2827 C 0.4968 0.52825 0.05504 0.0
H2828 H 0.98873 0.46142 0.56307 0.0
H2829 H 0.03588 0.46678 0.50338 0.0
H2830 H 0.98151 0.48833 0.53758 0.0
H2831 H 0.02842 0.49333 0.47628 0.0
H2832 H 0.0152 0.54678 0.4697 0.0
H2833 H 0.02313 0.52025 0.49664 0.0
H2834 H 0.97487 0.50263 0.47223 0.0
H2835 H 0.9668 0.52927 0.44717 0.0
C2836 C 0.99756 0.46831 0.54448 0.0
C2837 C 0.01289 0.46187 0.53534 0.0
C2838 C 0.99336 0.48372 0.52944 0.0
C2839 C 0.00432 0.49304 0.50444 0.0
C2840 C 0.01972 0.48666 0.49587 0.0
C2841 C 0.02398 0.47133 0.51129 0.0
C2842 C 0.00631 0.53721 0.46973 0.0
C2843 C 0.99035 0.54021 0.45628 0.0
C2844 C 0.01087 0.52194 0.48513 0.0
C2845 C 0.99962 0.50924 0.48703 0.0
C2846 C 0.98378 0.51216 0.47231 0.0
C2847 C 0.97919 0.52745 0.45742 0.0
H2848 H 0.08562 0.10822 0.10952 0.0
H2849 H 0.05467 0.14673 0.06371 0.0
H2850 H 0.10477 0.1279 0.13766 0.0
H2851 H 0.07415 0.16653 0.09095 0.0
H2852 H 0.10549 0.19719 0.18561 0.0
H2853 H 0.08557 0.17784 0.15838 0.0
H2854 H 0.12401 0.14704 0.11141 0.0
H2855 H 0.14382 0.16606 0.13956 0.0
C2856 C 0.08294 0.12091 0.10511 0.0
C2857 C 0.06862 0.12587 0.08409 0.0
C2858 C 0.094 0.13222 0.1211 0.0
C2859 C 0.0911 0.14884 0.11638 0.0
C2860 C 0.07672 0.15384 0.09557 0.0
C2861 C 0.0656 0.14248 0.07965 0.0
C2862 C 0.10968 0.18625 0.16963 0.0
C2863 C 0.12627 0.18314 0.16512 0.0
C2864 C 0.09825 0.17521 0.1537 0.0
C2865 C 0.10315 0.16082 0.13281 0.0
C2866 C 0.11976 0.15782 0.12803 0.0
C2867 C 0.13115 0.1688 0.14403 0.0
H2868 H 0.14039 0.84086 0.31308 0.0
H2869 H 0.10854 0.80187 0.34918 0.0
H2870 H 0.12058 0.86032 0.33915 0.0
H2871 H 0.08912 0.82116 0.37843 0.0
H2872 H 0.09011 0.89179 0.42752 0.0
H2873 H 0.10935 0.87194 0.40059 0.0
H2874 H 0.0699 0.8403 0.3648 0.0
H2875 H 0.05084 0.85979 0.39491 0.0
C2876 C 0.12915 0.83648 0.32691 0.0
C2877 C 0.12597 0.81988 0.32891 0.0
C2878 C 0.11781 0.84763 0.34242 0.0
C2879 C 0.10315 0.84246 0.36155 0.0
C2880 C 0.10004 0.82576 0.3633 0.0
C2881 C 0.11122 0.81463 0.3467 0.0
C2882 C 0.08561 0.88052 0.41419 0.0
C2883 C 0.069 0.8773 0.41349 0.0
C2884 C 0.09664 0.86914 0.3982 0.0
C2885 C 0.09133 0.85441 0.3799 0.0
C2886 C 0.07461 0.85128 0.37928 0.0
C2887 C 0.06361 0.8625 0.39635 0.0
H2888 H 0.39624 0.79901 0.64566 0.0
H2889 H 0.36319 0.83736 0.67869 0.0
H2890 H 0.41541 0.81866 0.61692 0.0
H2891 H 0.38269 0.85718 0.653 0.0
H2892 H 0.41309 0.88902 0.56574 0.0
H2893 H 0.39414 0.86872 0.59152 0.0
H2894 H 0.43403 0.83842 0.63207 0.0
H2895 H 0.45288 0.85838 0.60325 0.0
C2896 C 0.39321 0.8117 0.64747 0.0
C2897 C 0.37822 0.81666 0.66431 0.0
C2898 C 0.40426 0.82303 0.63119 0.0
C2899 C 0.40072 0.83966 0.63227 0.0
C2900 C 0.38579 0.84454 0.6503 0.0
C2901 C 0.37462 0.83318 0.66554 0.0
C2902 C 0.41777 0.87795 0.5799 0.0
C2903 C 0.43445 0.87526 0.58237 0.0
C2904 C 0.40689 0.86632 0.5952 0.0
C2905 C 0.41241 0.85184 0.6145 0.0
C2906 C 0.42919 0.8492 0.61681 0.0
C2907 C 0.44007 0.8607 0.60049 0.0
H2908 H 0.44518 0.14466 0.93256 0.0
H2909 H 0.41411 0.10651 0.88508 0.0
H2910 H 0.42566 0.16466 0.90689 0.0
H2911 H 0.39486 0.12644 0.85862 0.0
H2912 H 0.35603 0.16518 0.86033 0.0
H2913 H 0.37575 0.14569 0.88664 0.0
H2914 H 0.41432 0.17621 0.83924 0.0
H2915 H 0.39453 0.19598 0.81372 0.0
C2916 C 0.4342 0.14053 0.91669 0.0
C2917 C 0.43119 0.12396 0.91118 0.0
C2918 C 0.42306 0.15201 0.90162 0.0
C2919 C 0.40865 0.14719 0.88072 0.0
C2920 C 0.40569 0.13061 0.87518 0.0
C2921 C 0.4168 0.11916 0.89022 0.0
C2922 C 0.36871 0.16775 0.85535 0.0
C2923 C 0.37367 0.18214 0.83468 0.0
C2924 C 0.38004 0.15651 0.87029 0.0
C2925 C 0.39665 0.15932 0.86497 0.0
C2926 C 0.40163 0.17373 0.84433 0.0
C2927 C 0.39028 0.18501 0.82936 0.0
H2928 H 0.85651 0.83622 0.86376 0.0
H2929 H 0.89532 0.80553 0.81851 0.0
H2930 H 0.87604 0.85561 0.89166 0.0
H2931 H 0.91493 0.82521 0.84565 0.0
H2932 H 0.94534 0.85681 0.93975 0.0
H2933 H 0.92593 0.83677 0.91368 0.0
H2934 H 0.89522 0.87493 0.86461 0.0
H2935 H 0.91436 0.8949 0.89147 0.0
C2936 C 0.86922 0.83364 0.85947 0.0
C2937 C 0.87432 0.81933 0.83864 0.0
C2938 C 0.88044 0.84483 0.87533 0.0
C2939 C 0.89709 0.84204 0.87076 0.0
C2940 C 0.90221 0.82767 0.85016 0.0
C2941 C 0.89096 0.81644 0.83428 0.0
C2942 C 0.93439 0.86092 0.92366 0.0
C2943 C 0.93138 0.87748 0.91799 0.0
C2944 C 0.92332 0.84941 0.90836 0.0
C2945 C 0.90897 0.8542 0.88705 0.0
C2946 C 0.906 0.87078 0.88146 0.0
C2947 C 0.91704 0.88226 0.89674 0.0
H2948 H 0.94815 0.14801 0.5597 0.0
H2949 H 0.91701 0.10991 0.60709 0.0
H2950 H 0.92875 0.16805 0.58592 0.0
H2951 H 0.89793 0.12985 0.6342 0.0
H2952 H 0.85914 0.16823 0.63523 0.0
H2953 H 0.8788 0.14902 0.60727 0.0
H2954 H 0.91748 0.17971 0.6532 0.0
H2955 H 0.89771 0.19925 0.68028 0.0
C2956 C 0.93719 0.1439 0.57571 0.0
C2957 C 0.93411 0.12734 0.58097 0.0
C2958 C 0.92612 0.1554 0.59107 0.0
C2959 C 0.91172 0.1506 0.61209 0.0
C2960 C 0.90873 0.13402 0.61748 0.0
C2961 C 0.91974 0.12256 0.60208 0.0
C2962 C 0.87183 0.17092 0.63949 0.0
C2963 C 0.87683 0.18527 0.66029 0.0
C2964 C 0.88313 0.15983 0.62359 0.0
C2965 C 0.89976 0.16272 0.62819 0.0
C2966 C 0.90478 0.17715 0.64869 0.0
C2967 C 0.89344 0.1883 0.66452 0.0
H2968 H 0.64334 0.16599 0.35979 0.0
H2969 H 0.60514 0.19709 0.31281 0.0
H2970 H 0.62344 0.14692 0.38735 0.0
H2971 H 0.58516 0.17773 0.3395 0.0
H2972 H 0.55395 0.1469 0.43355 0.0
H2973 H 0.57368 0.16657 0.40714 0.0
H2974 H 0.60413 0.12778 0.36063 0.0
H2975 H 0.58469 0.10819 0.38792 0.0
C2976 C 0.63069 0.16872 0.35501 0.0
C2977 C 0.62586 0.18306 0.33385 0.0
C2978 C 0.61925 0.15772 0.37067 0.0
C2979 C 0.60266 0.16071 0.36552 0.0
C2980 C 0.59782 0.1751 0.34448 0.0
C2981 C 0.60929 0.18615 0.32885 0.0
C2982 C 0.5649 0.14257 0.4179 0.0
C2983 C 0.56776 0.12595 0.41316 0.0
C2984 C 0.57616 0.15386 0.40242 0.0
C2985 C 0.59054 0.14879 0.3818 0.0
C2986 C 0.59334 0.13215 0.37699 0.0
C2987 C 0.58212 0.12089 0.39249 0.0
H2988 H 0.55432 0.85466 0.06588 0.0
H2989 H 0.58502 0.89374 0.10923 0.0
H2990 H 0.57408 0.83522 0.09361 0.0
H2991 H 0.60444 0.87443 0.13779 0.0
H2992 H 0.64393 0.83674 0.13914 0.0
H2993 H 0.62374 0.85534 0.11106 0.0
H2994 H 0.58595 0.82449 0.1616 0.0
H2995 H 0.60627 0.80554 0.18887 0.0
C2996 C 0.56525 0.85911 0.08136 0.0
C2997 C 0.56813 0.87577 0.08495 0.0
C2998 C 0.57653 0.84796 0.09757 0.0
C2999 C 0.59092 0.85323 0.11778 0.0
C3000 C 0.59366 0.8699 0.1217 0.0
C3001 C 0.58245 0.88101 0.10546 0.0
C3002 C 0.63133 0.83389 0.14444 0.0
C3003 C 0.62674 0.81966 0.16654 0.0
C3004 C 0.61972 0.84463 0.12847 0.0
C3005 C 0.60318 0.8415 0.13426 0.0
C3006 C 0.59857 0.82722 0.15617 0.0
C3007 C 0.61022 0.81641 0.17212 0.0
H3008 H 0.58844 0.61419 0.56409 0.0
H3009 H 0.54897 0.64439 0.60671 0.0
H3010 H 0.60761 0.6338 0.5927 0.0
H3011 H 0.56805 0.66361 0.63819 0.0
H3012 H 0.63902 0.66312 0.68368 0.0
H3013 H 0.61918 0.64399 0.65602 0.0
H3014 H 0.58688 0.68347 0.62543 0.0
H3015 H 0.6064 0.7024 0.65601 0.0
C3016 C 0.58388 0.62502 0.57992 0.0
C3017 C 0.56722 0.62778 0.58302 0.0
C3018 C 0.59488 0.63623 0.59685 0.0
C3019 C 0.58951 0.65035 0.6184 0.0
C3020 C 0.57276 0.65309 0.62128 0.0
C3021 C 0.56176 0.64202 0.60339 0.0
C3022 C 0.6276 0.66766 0.67139 0.0
C3023 C 0.62424 0.68424 0.67213 0.0
C3024 C 0.61623 0.6567 0.655 0.0
C3025 C 0.60135 0.66207 0.6378 0.0
C3026 C 0.59801 0.67873 0.63894 0.0
C3027 C 0.60925 0.68965 0.65632 0.0
H3028 H 0.58625 0.39638 0.88517 0.0
H3029 H 0.55677 0.35686 0.93173 0.0
H3030 H 0.60607 0.37728 0.85696 0.0
H3031 H 0.57682 0.33773 0.90432 0.0
H3032 H 0.6081 0.3079 0.80888 0.0
H3033 H 0.58797 0.32712 0.83543 0.0
H3034 H 0.62599 0.35832 0.88292 0.0
H3035 H 0.64607 0.33934 0.8556 0.0
C3036 C 0.58404 0.38361 0.88972 0.0
C3037 C 0.56993 0.37817 0.91091 0.0
C3038 C 0.59547 0.37265 0.87367 0.0
C3039 C 0.59308 0.35594 0.87837 0.0
C3040 C 0.57896 0.3505 0.89962 0.0
C3041 C 0.56753 0.36148 0.9157 0.0
C3042 C 0.61216 0.31892 0.8247 0.0
C3043 C 0.62872 0.32209 0.82989 0.0
C3044 C 0.60061 0.32988 0.84028 0.0
C3045 C 0.60533 0.34428 0.8614 0.0
C3046 C 0.6219 0.34747 0.8663 0.0
C3047 C 0.63343 0.33653 0.85077 0.0
H3048 H 0.89554 0.30527 0.18449 0.0
H3049 H 0.8572 0.33632 0.13811 0.0
H3050 H 0.91544 0.32466 0.15744 0.0
H3051 H 0.877 0.3554 0.11019 0.0
H3052 H 0.91569 0.39412 0.10844 0.0
H3053 H 0.89638 0.37456 0.13646 0.0
H3054 H 0.92666 0.33574 0.08931 0.0
H3055 H 0.94628 0.35539 0.06217 0.0
C3056 C 0.89135 0.31621 0.16854 0.0
C3057 C 0.87476 0.31927 0.16377 0.0
C3058 C 0.90277 0.32727 0.1527 0.0
C3059 C 0.89785 0.34163 0.13168 0.0
C3060 C 0.88125 0.34462 0.12685 0.0
C3061 C 0.86987 0.33361 0.14272 0.0
C3062 C 0.91825 0.38142 0.10388 0.0
C3063 C 0.93252 0.37634 0.08282 0.0
C3064 C 0.90711 0.37018 0.11981 0.0
C3065 C 0.9099 0.35354 0.11503 0.0
C3066 C 0.9242 0.34844 0.09401 0.0
C3067 C 0.93539 0.35972 0.07811 0.0
H3068 H 0.94588 0.64502 0.43577 0.0
H3069 H 0.91454 0.60692 0.38936 0.0
H3070 H 0.92674 0.66507 0.40821 0.0
H3071 H 0.89571 0.62688 0.36094 0.0
H3072 H 0.85742 0.66603 0.35781 0.0
H3073 H 0.87669 0.64654 0.38641 0.0
H3074 H 0.91598 0.67629 0.33966 0.0
H3075 H 0.89661 0.69609 0.31192 0.0
C3076 C 0.93491 0.64092 0.41976 0.0
C3077 C 0.93171 0.62435 0.41509 0.0
C3078 C 0.924 0.65242 0.4036 0.0
C3079 C 0.90965 0.64762 0.38236 0.0
C3080 C 0.90649 0.63104 0.37773 0.0
C3081 C 0.91736 0.61957 0.39391 0.0
C3082 C 0.87016 0.66843 0.35344 0.0
C3083 C 0.87545 0.68262 0.33233 0.0
C3084 C 0.88124 0.65718 0.36971 0.0
C3085 C 0.89792 0.65977 0.36525 0.0
C3086 C 0.90323 0.67398 0.34414 0.0
C3087 C 0.89212 0.68527 0.32788 0.0
H3088 H 0.36113 0.34057 0.31591 0.0
H3089 H 0.39305 0.30197 0.35461 0.0
H3090 H 0.38083 0.36029 0.34109 0.0
H3091 H 0.41232 0.32152 0.38315 0.0
H3092 H 0.4507 0.35997 0.39684 0.0
H3093 H 0.43153 0.34032 0.36846 0.0
H3094 H 0.39232 0.37279 0.40054 0.0
H3095 H 0.41175 0.39282 0.42554 0.0
C3096 C 0.37235 0.33633 0.33021 0.0
C3097 C 0.37561 0.31976 0.33306 0.0
C3098 C 0.38364 0.34764 0.34521 0.0
C3099 C 0.3983 0.34267 0.36469 0.0
C3100 C 0.40143 0.32598 0.3676 0.0
C3101 C 0.39032 0.3147 0.35145 0.0
C3102 C 0.43796 0.36284 0.39785 0.0
C3103 C 0.43271 0.37791 0.41337 0.0
C3104 C 0.42689 0.35151 0.38179 0.0
C3105 C 0.4102 0.35479 0.38193 0.0
C3106 C 0.40501 0.36983 0.39858 0.0
C3107 C 0.41614 0.38132 0.41347 0.0
H3108 H 0.36072 0.66257 0.17799 0.0
H3109 H 0.39293 0.70121 0.14134 0.0
H3110 H 0.38003 0.64292 0.15046 0.0
H3111 H 0.41192 0.68167 0.11084 0.0
H3112 H 0.44945 0.64175 0.09492 0.0
H3113 H 0.43089 0.66191 0.12433 0.0
H3114 H 0.39058 0.63157 0.0874 0.0
H3115 H 0.40924 0.6111 0.06098 0.0
C3116 C 0.37193 0.66685 0.16366 0.0
C3117 C 0.37534 0.68341 0.1619 0.0
C3118 C 0.38298 0.65558 0.14734 0.0
C3119 C 0.39759 0.66058 0.1277 0.0
C3120 C 0.40099 0.67723 0.12623 0.0
C3121 C 0.39006 0.68849 0.14355 0.0
C3122 C 0.4366 0.63949 0.09297 0.0
C3123 C 0.43079 0.62484 0.07583 0.0
C3124 C 0.4259 0.65108 0.10968 0.0
C3125 C 0.4091 0.64845 0.10878 0.0
C3126 C 0.40338 0.63395 0.09008 0.0
C3127 C 0.41408 0.62223 0.07439 0.0
H3128 H 0.05233 0.64205 0.89307 0.0
H3129 H 0.09132 0.60991 0.92728 0.0
H3130 H 0.07164 0.6614 0.86328 0.0
H3131 H 0.11075 0.62958 0.90059 0.0
H3132 H 0.14215 0.65987 0.81239 0.0
H3133 H 0.12203 0.64077 0.83846 0.0
H3134 H 0.09113 0.68044 0.87722 0.0
H3135 H 0.11091 0.69942 0.84805 0.0
C3136 C 0.06508 0.63927 0.89491 0.0
C3137 C 0.07033 0.62447 0.91235 0.0
C3138 C 0.07621 0.65041 0.87802 0.0
C3139 C 0.0929 0.64716 0.87909 0.0
C3140 C 0.09806 0.63245 0.89781 0.0
C3141 C 0.08692 0.62118 0.91364 0.0
C3142 C 0.13097 0.66446 0.82616 0.0
C3143 C 0.12808 0.68111 0.8281 0.0
C3144 C 0.11945 0.65351 0.84165 0.0
C3145 C 0.10488 0.65893 0.86067 0.0
C3146 C 0.102 0.67568 0.86225 0.0
C3147 C 0.11339 0.68662 0.84571 0.0
H3148 H 0.08768 0.38901 0.569 0.0
H3149 H 0.04856 0.35731 0.60511 0.0
H3150 H 0.10706 0.36912 0.59477 0.0
H3151 H 0.06785 0.33771 0.63381 0.0
H3152 H 0.1069 0.29928 0.64677 0.0
H3153 H 0.08716 0.31847 0.6183 0.0
H3154 H 0.11844 0.35784 0.65691 0.0
H3155 H 0.13848 0.33857 0.68244 0.0
C3156 C 0.08324 0.3778 0.58285 0.0
C3157 C 0.06662 0.3747 0.58498 0.0
C3158 C 0.09435 0.3664 0.59813 0.0
C3159 C 0.08915 0.35173 0.61703 0.0
C3160 C 0.07243 0.34867 0.61892 0.0
C3161 C 0.06132 0.35995 0.60266 0.0
C3162 C 0.10948 0.31206 0.6492 0.0
C3163 C 0.12425 0.31743 0.66666 0.0
C3164 C 0.09812 0.32311 0.63307 0.0
C3165 C 0.10111 0.33984 0.63487 0.0
C3166 C 0.11577 0.34512 0.65362 0.0
C3167 C 0.12726 0.33407 0.66876 0.0
loop_
_geom_bond_atom_site_label_1
_geom_bond_atom_site_label_2
_geom_bond_distance
_geom_bond_site_symmetry_2
_ccdc_geom_bond_type
Co0 O2 2.143 . S
Co0 O8 2.074 . S
Co0 O11 2.093 1_455 S
Co0 O24 2.097 . S
Co0 N41 2.151 1_455 S
Co0 N49 2.214 1_455 S
Co1 O2 2.160 . S
Co1 O7 2.058 . S
Co1 O17 2.057 . S
Co1 O32 2.037 . S
Co1 N36 2.145 . S
Co1 N57 2.257 . S
O2 Co0 2.143 . S
O2 Co1 2.160 . S
C3 O4 1.278 . S
C3 O11 1.224 1_455 S
O4 C3 1.278 . S
C5 O6 1.245 . S
C5 O17 1.232 . S
O6 C5 1.245 . S
O7 Co1 2.058 . S
O7 C33 1.274 . S
O8 Co0 2.074 . S
O8 C33 1.274 . S
H9 C34 0.930 . S
H10 C40 0.930 1_455 S
O11 Co0 2.093 1_655 S
O11 C3 1.224 1_655 S
H12 C44 0.929 . S
H13 C46 0.930 . S
H14 C47 0.930 . S
H15 C45 0.929 . S
H16 C48 0.928 . S
O17 Co1 2.057 . S
O17 C5 1.232 . S
H18 C37 0.929 . S
H19 C38 0.929 . S
H20 C50 0.931 . S
H21 C42 0.929 . S
H22 C51 0.930 . S
H23 C43 0.931 . S
O24 Co0 2.097 . S
O24 C52 1.214 . S
H25 C53 0.929 . S
H26 C54 0.929 . S
H27 C55 0.930 . S
H28 C56 0.929 . S
H29 C58 0.930 . S
H30 C35 0.930 . S
H31 C39 0.930 . S
O32 Co1 2.037 . S
O32 C52 1.234 . S
C33 O7 1.274 . S
C33 O8 1.274 . S
C34 H9 0.930 . S
C34 C37 1.388 . S
C34 C39 1.418 . S
C35 H30 0.930 . S
C35 C38 1.404 1_556 S
C35 C39 1.353 . S
N36 Co1 2.145 . S
N36 C37 1.397 1_554 S
N36 C38 1.334 . S
C37 H18 0.929 . S
C37 C34 1.388 . S
C37 N36 1.397 1_556 S
C38 H19 0.929 . S
C38 C35 1.404 1_554 S
C38 N36 1.334 . S
C39 H31 0.930 . S
C39 C34 1.418 . S
C39 C35 1.353 . S
C40 H10 0.930 1_655 S
C40 N41 1.330 . S
C40 C42 1.446 . S
N41 Co0 2.151 1_655 S
N41 C40 1.330 . S
N41 C45 1.418 . S
C42 H21 0.929 . S
C42 C40 1.446 . S
C42 C43 1.332 . S
C43 H23 0.931 . S
C43 C42 1.332 . S
C43 C44 1.267 . S
C44 H12 0.929 . S
C44 C43 1.267 . S
C44 C45 1.251 . S
C45 H15 0.929 . S
C45 N41 1.418 . S
C45 C44 1.251 . S
C46 H13 0.930 . S
C46 C48 1.406 . S
C46 C51 1.261 . S
C47 H14 0.930 . S
C47 N49 1.325 . S
C47 C50 1.357 . S
C48 H16 0.928 . S
C48 C46 1.406 . S
C48 N49 1.261 . S
N49 Co0 2.214 1_655 S
N49 C47 1.325 . S
N49 C48 1.261 . S
C50 H20 0.931 . S
C50 C47 1.357 . S
C50 C51 1.312 . S
C51 H22 0.930 . S
C51 C46 1.261 . S
C51 C50 1.312 . S
C52 O24 1.214 . S
C52 O32 1.234 . S
C53 H25 0.929 . S
C53 C56 1.391 . S
C53 C58 1.391 . S
C54 H26 0.929 . S
C54 C55 1.390 . S
C54 N57 1.391 . S
C55 H27 0.930 . S
C55 C54 1.390 . S
C55 C56 1.392 . S
C56 H28 0.929 . S
C56 C53 1.391 . S
C56 C55 1.392 . S
N57 Co1 2.257 . S
N57 C54 1.391 . S
N57 C58 1.388 . S
C58 H29 0.930 . S
C58 C53 1.391 . S
C58 N57 1.388 . S
Co59 O61 2.143 . S
Co59 O67 2.074 . S
Co59 O70 2.093 . S
Co59 O83 2.097 . S
Co59 N100 2.151 . S
Co59 N108 2.214 . S
Co60 O61 2.160 . S
Co60 O66 2.058 . S
Co60 O76 2.057 . S
Co60 O91 2.037 . S
Co60 N95 2.145 . S
Co60 N116 2.257 . S
O61 Co59 2.143 . S
O61 Co60 2.160 . S
C62 O63 1.278 . S
C62 O70 1.224 . S
O63 C62 1.278 . S
C64 O65 1.245 . S
C64 O76 1.232 . S
O65 C64 1.245 . S
O66 Co60 2.058 . S
O66 C92 1.269 . S
O67 Co59 2.074 . S
O67 C92 1.257 . S
H68 C93 0.930 . S
H69 C99 0.930 . S
O70 Co59 2.093 . S
O70 C62 1.224 . S
H71 C103 0.929 . S
H72 C105 0.930 . S
H73 C106 0.930 . S
H74 C104 0.929 . S
H75 C107 0.928 . S
O76 Co60 2.057 . S
O76 C64 1.232 . S
H77 C96 0.929 . S
H78 C97 0.929 . S
H79 C109 0.931 . S
H80 C101 0.929 . S
H81 C110 0.930 . S
H82 C102 0.931 . S
O83 Co59 2.097 . S
O83 C111 1.214 . S
H84 C112 0.929 . S
H85 C113 0.929 . S
H86 C114 0.930 . S
H87 C115 0.929 . S
H88 C117 0.930 . S
H89 C94 0.930 . S
H90 C98 0.930 . S
O91 Co60 2.037 . S
O91 C111 1.234 . S
C92 O66 1.269 . S
C92 O67 1.257 . S
C93 H68 0.930 . S
C93 C96 1.388 . S
C93 C98 1.418 . S
C94 H89 0.930 . S
C94 C97 1.404 . S
C94 C98 1.353 . S
N95 Co60 2.145 . S
N95 C96 1.397 . S
N95 C97 1.334 . S
C96 H77 0.929 . S
C96 C93 1.388 . S
C96 N95 1.397 . S
C97 H78 0.929 . S
C97 C94 1.404 . S
C97 N95 1.334 . S
C98 H90 0.930 . S
C98 C93 1.418 . S
C98 C94 1.353 . S
C99 H69 0.930 . S
C99 N100 1.330 . S
C99 C101 1.446 . S
N100 Co59 2.151 . S
N100 C99 1.330 . S
N100 C104 1.418 . S
C101 H80 0.929 . S
C101 C99 1.446 . S
C101 C102 1.332 . S
C102 H82 0.931 . S
C102 C101 1.332 . S
C102 C103 1.267 . S
C103 H71 0.929 . S
C103 C102 1.267 . S
C103 C104 1.251 . S
C104 H74 0.929 . S
C104 N100 1.418 . S
C104 C103 1.251 . S
C105 H72 0.930 . S
C105 C107 1.406 . S
C105 C110 1.261 . S
C106 H73 0.930 . S
C106 N108 1.325 . S
C106 C109 1.357 . S
C107 H75 0.928 . S
C107 C105 1.406 . S
C107 N108 1.261 . S
N108 Co59 2.214 . S
N108 C106 1.325 . S
N108 C107 1.261 . S
C109 H79 0.931 . S
C109 C106 1.357 . S
C109 C110 1.312 . S
C110 H81 0.930 . S
C110 C105 1.261 . S
C110 C109 1.312 . S
C111 O83 1.214 . S
C111 O91 1.234 . S
C112 H84 0.929 . S
C112 C115 1.391 . S
C112 C117 1.391 . S
C113 H85 0.929 . S
C113 C114 1.390 . S
C113 N116 1.391 . S
C114 H86 0.930 . S
C114 C113 1.390 . S
C114 C115 1.392 . S
C115 H87 0.929 . S
C115 C112 1.391 . S
C115 C114 1.392 . S
N116 Co60 2.257 . S
N116 C113 1.391 . S
N116 C117 1.388 . S
C117 H88 0.930 . S
C117 C112 1.391 . S
C117 N116 1.388 . S
Co118 O120 2.143 . S
Co118 O126 2.074 . S
Co118 O129 2.093 . S
Co118 O142 2.097 . S
Co118 N159 2.151 . S
Co118 N167 2.214 . S
Co119 O120 2.160 . S
Co119 O125 2.058 . S
Co119 O135 2.057 . S
Co119 O150 2.037 . S
Co119 N154 2.145 . S
Co119 N175 2.257 . S
O120 Co118 2.143 . S
O120 Co119 2.160 . S
C121 O122 1.278 . S
C121 O129 1.224 . S
O122 C121 1.278 . S
C123 O124 1.245 . S
C123 O135 1.232 . S
O124 C123 1.245 . S
O125 Co119 2.058 . S
O125 C151 1.269 . S
O126 Co118 2.074 . S
O126 C151 1.257 . S
H127 C152 0.930 . S
H128 C158 0.930 . S
O129 Co118 2.093 . S
O129 C121 1.224 . S
H130 C162 0.929 . S
H131 C164 0.930 . S
H132 C165 0.930 . S
H133 C163 0.929 . S
H134 C166 0.928 . S
O135 Co119 2.057 . S
O135 C123 1.232 . S
H136 C155 0.929 . S
H137 C156 0.929 . S
H138 C168 0.931 . S
H139 C160 0.929 . S
H140 C169 0.930 . S
H141 C161 0.931 . S
O142 Co118 2.097 . S
O142 C170 1.214 . S
H143 C171 0.929 . S
H144 C172 0.929 . S
H145 C173 0.930 . S
H146 C174 0.929 . S
H147 C176 0.930 . S
H148 C153 0.930 . S
H149 C157 0.930 . S
O150 Co119 2.037 . S
O150 C170 1.234 . S
C151 O125 1.269 . S
C151 O126 1.257 . S
C152 H127 0.930 . S
C152 C155 1.388 . S
C152 C157 1.418 . S
C153 H148 0.930 . S
C153 C156 1.404 . S
C153 C157 1.353 . S
N154 Co119 2.145 . S
N154 C155 1.397 . S
N154 C156 1.334 . S
C155 H136 0.929 . S
C155 C152 1.388 . S
C155 N154 1.397 . S
C156 H137 0.929 . S
C156 C153 1.404 . S
C156 N154 1.334 . S
C157 H149 0.930 . S
C157 C152 1.418 . S
C157 C153 1.353 . S
C158 H128 0.930 . S
C158 N159 1.330 . S
C158 C160 1.446 . S
N159 Co118 2.151 . S
N159 C158 1.330 . S
N159 C163 1.418 . S
C160 H139 0.929 . S
C160 C158 1.446 . S
C160 C161 1.332 . S
C161 H141 0.931 . S
C161 C160 1.332 . S
C161 C162 1.267 . S
C162 H130 0.929 . S
C162 C161 1.267 . S
C162 C163 1.251 . S
C163 H133 0.929 . S
C163 N159 1.418 . S
C163 C162 1.251 . S
C164 H131 0.930 . S
C164 C166 1.406 . S
C164 C169 1.261 . S
C165 H132 0.930 . S
C165 N167 1.325 . S
C165 C168 1.357 . S
C166 H134 0.928 . S
C166 C164 1.406 . S
C166 N167 1.261 . S
N167 Co118 2.214 . S
N167 C165 1.325 . S
N167 C166 1.261 . S
C168 H138 0.931 . S
C168 C165 1.357 . S
C168 C169 1.312 . S
C169 H140 0.930 . S
C169 C164 1.261 . S
C169 C168 1.312 . S
C170 O142 1.214 . S
C170 O150 1.234 . S
C171 H143 0.929 . S
C171 C174 1.391 . S
C171 C176 1.391 . S
C172 H144 0.929 . S
C172 C173 1.390 . S
C172 N175 1.391 . S
C173 H145 0.930 . S
C173 C172 1.390 . S
C173 C174 1.392 . S
C174 H146 0.929 . S
C174 C171 1.391 . S
C174 C173 1.392 . S
N175 Co119 2.257 . S
N175 C172 1.391 . S
N175 C176 1.388 . S
C176 H147 0.930 . S
C176 C171 1.391 . S
C176 N175 1.388 . S
Co177 O179 2.143 . S
Co177 O185 2.074 . S
Co177 O188 2.093 . S
Co177 O201 2.097 . S
Co177 N218 2.151 . S
Co177 N226 2.214 . S
Co178 O179 2.160 . S
Co178 O184 2.058 . S
Co178 O194 2.057 . S
Co178 O209 2.037 . S
Co178 N213 2.145 . S
Co178 N234 2.257 . S
O179 Co177 2.143 . S
O179 Co178 2.160 . S
C180 O181 1.278 . S
C180 O188 1.224 . S
O181 C180 1.278 . S
C182 O183 1.245 . S
C182 O194 1.232 . S
O183 C182 1.245 . S
O184 Co178 2.058 . S
O184 C210 1.269 . S
O185 Co177 2.074 . S
O185 C210 1.257 . S
H186 C211 0.930 . S
H187 C217 0.930 . S
O188 Co177 2.093 . S
O188 C180 1.224 . S
H189 C221 0.929 . S
H190 C223 0.930 . S
H191 C224 0.930 . S
H192 C222 0.929 . S
H193 C225 0.928 . S
O194 Co178 2.057 . S
O194 C182 1.232 . S
H195 C214 0.929 . S
H196 C215 0.929 . S
H197 C227 0.931 . S
H198 C219 0.929 . S
H199 C228 0.930 . S
H200 C220 0.931 . S
O201 Co177 2.097 . S
O201 C229 1.214 . S
H202 C230 0.929 . S
H203 C231 0.929 . S
H204 C232 0.930 . S
H205 C233 0.929 . S
H206 C235 0.930 . S
H207 C212 0.930 . S
H208 C216 0.930 . S
O209 Co178 2.037 . S
O209 C229 1.234 . S
C210 O184 1.269 . S
C210 O185 1.257 . S
C211 H186 0.930 . S
C211 C214 1.388 . S
C211 C216 1.418 . S
C212 H207 0.930 . S
C212 C215 1.404 . S
C212 C216 1.353 . S
N213 Co178 2.145 . S
N213 C214 1.397 . S
N213 C215 1.334 . S
C214 H195 0.929 . S
C214 C211 1.388 . S
C214 N213 1.397 . S
C215 H196 0.929 . S
C215 C212 1.404 . S
C215 N213 1.334 . S
C216 H208 0.930 . S
C216 C211 1.418 . S
C216 C212 1.353 . S
C217 H187 0.930 . S
C217 N218 1.330 . S
C217 C219 1.446 . S
N218 Co177 2.151 . S
N218 C217 1.330 . S
N218 C222 1.418 . S
C219 H198 0.929 . S
C219 C217 1.446 . S
C219 C220 1.332 . S
C220 H200 0.931 . S
C220 C219 1.332 . S
C220 C221 1.267 . S
C221 H189 0.929 . S
C221 C220 1.267 . S
C221 C222 1.251 . S
C222 H192 0.929 . S
C222 N218 1.418 . S
C222 C221 1.251 . S
C223 H190 0.930 . S
C223 C225 1.406 . S
C223 C228 1.261 . S
C224 H191 0.930 . S
C224 N226 1.325 . S
C224 C227 1.357 . S
C225 H193 0.928 . S
C225 C223 1.406 . S
C225 N226 1.261 . S
N226 Co177 2.214 . S
N226 C224 1.325 . S
N226 C225 1.261 . S
C227 H197 0.931 . S
C227 C224 1.357 . S
C227 C228 1.312 . S
C228 H199 0.930 . S
C228 C223 1.261 . S
C228 C227 1.312 . S
C229 O201 1.214 . S
C229 O209 1.234 . S
C230 H202 0.929 . S
C230 C233 1.391 . S
C230 C235 1.391 . S
C231 H203 0.929 . S
C231 C232 1.390 . S
C231 N234 1.391 . S
C232 H204 0.930 . S
C232 C231 1.390 . S
C232 C233 1.392 . S
C233 H205 0.929 . S
C233 C230 1.391 . S
C233 C232 1.392 . S
N234 Co178 2.257 . S
N234 C231 1.391 . S
N234 C235 1.388 . S
C235 H206 0.930 . S
C235 C230 1.391 . S
C235 N234 1.388 . S
Co236 O238 2.143 . S
Co236 O244 2.074 . S
Co236 O247 2.093 1_455 S
Co236 O260 2.097 . S
Co236 N277 2.151 1_455 S
Co236 N285 2.214 1_455 S
Co237 O238 2.160 . S
Co237 O243 2.058 . S
Co237 O253 2.057 . S
Co237 O268 2.037 . S
Co237 N272 2.145 . S
Co237 N293 2.257 . S
O238 Co236 2.143 . S
O238 Co237 2.160 . S
C239 O240 1.278 . S
C239 O247 1.224 1_455 S
O240 C239 1.278 . S
C241 O242 1.245 . S
C241 O253 1.232 . S
O242 C241 1.245 . S
O243 Co237 2.058 . S
O243 C269 1.269 . S
O244 Co236 2.074 . S
O244 C269 1.257 . S
H245 C270 0.930 . S
H246 C276 0.930 1_455 S
O247 Co236 2.093 1_655 S
O247 C239 1.224 1_655 S
H248 C280 0.929 . S
H249 C282 0.930 . S
H250 C283 0.930 . S
H251 C281 0.929 . S
H252 C284 0.928 . S
O253 Co237 2.057 . S
O253 C241 1.232 . S
H254 C273 0.929 . S
H255 C274 0.929 . S
H256 C286 0.931 . S
H257 C278 0.929 . S
H258 C287 0.930 . S
H259 C279 0.931 . S
O260 Co236 2.097 . S
O260 C288 1.214 . S
H261 C289 0.929 . S
H262 C290 0.929 . S
H263 C291 0.930 . S
H264 C292 0.929 . S
H265 C294 0.930 . S
H266 C271 0.930 . S
H267 C275 0.930 . S
O268 Co237 2.037 . S
O268 C288 1.234 . S
C269 O243 1.269 . S
C269 O244 1.257 . S
C270 H245 0.930 . S
C270 C273 1.388 . S
C270 C275 1.418 . S
C271 H266 0.930 . S
C271 C274 1.404 . S
C271 C275 1.353 . S
N272 Co237 2.145 . S
N272 C273 1.397 . S
N272 C274 1.334 . S
C273 H254 0.929 . S
C273 C270 1.388 . S
C273 N272 1.397 . S
C274 H255 0.929 . S
C274 C271 1.404 . S
C274 N272 1.334 . S
C275 H267 0.930 . S
C275 C270 1.418 . S
C275 C271 1.353 . S
C276 H246 0.930 1_655 S
C276 N277 1.330 . S
C276 C278 1.446 . S
N277 Co236 2.151 1_655 S
N277 C276 1.330 . S
N277 C281 1.418 . S
C278 H257 0.929 . S
C278 C276 1.446 . S
C278 C279 1.332 . S
C279 H259 0.931 . S
C279 C278 1.332 . S
C279 C280 1.267 . S
C280 H248 0.929 . S
C280 C279 1.267 . S
C280 C281 1.251 . S
C281 H251 0.929 . S
C281 N277 1.418 . S
C281 C280 1.251 . S
C282 H249 0.930 . S
C282 C284 1.406 . S
C282 C287 1.261 . S
C283 H250 0.930 . S
C283 N285 1.325 . S
C283 C286 1.357 . S
C284 H252 0.928 . S
C284 C282 1.406 . S
C284 N285 1.261 . S
N285 Co236 2.214 1_655 S
N285 C283 1.325 . S
N285 C284 1.261 . S
C286 H256 0.931 . S
C286 C283 1.357 . S
C286 C287 1.312 . S
C287 H258 0.930 . S
C287 C282 1.261 . S
C287 C286 1.312 . S
C288 O260 1.214 . S
C288 O268 1.234 . S
C289 H261 0.929 . S
C289 C292 1.391 . S
C289 C294 1.391 . S
C290 H262 0.929 . S
C290 C291 1.390 . S
C290 N293 1.391 . S
C291 H263 0.930 . S
C291 C290 1.390 . S
C291 C292 1.392 . S
C292 H264 0.929 . S
C292 C289 1.391 . S
C292 C291 1.392 . S
N293 Co237 2.257 . S
N293 C290 1.391 . S
N293 C294 1.388 . S
C294 H265 0.930 . S
C294 C289 1.391 . S
C294 N293 1.388 . S
Co295 O297 2.143 . S
Co295 O303 2.074 . S
Co295 O306 2.093 . S
Co295 O319 2.097 . S
Co295 N336 2.151 . S
Co295 N344 2.214 . S
Co296 O297 2.160 . S
Co296 O302 2.058 . S
Co296 O312 2.057 . S
Co296 O327 2.037 . S
Co296 N331 2.145 . S
Co296 N352 2.257 . S
O297 Co295 2.143 . S
O297 Co296 2.160 . S
C298 O299 1.278 . S
C298 O306 1.224 . S
O299 C298 1.278 . S
C300 O301 1.245 . S
C300 O312 1.232 . S
O301 C300 1.245 . S
O302 Co296 2.058 . S
O302 C328 1.269 . S
O303 Co295 2.074 . S
O303 C328 1.257 . S
H304 C329 0.930 . S
H305 C335 0.930 . S
O306 Co295 2.093 . S
O306 C298 1.224 . S
H307 C339 0.929 . S
H308 C341 0.930 . S
H309 C342 0.930 . S
H310 C340 0.929 . S
H311 C343 0.928 . S
O312 Co296 2.057 . S
O312 C300 1.232 . S
H313 C332 0.929 . S
H314 C333 0.929 . S
H315 C345 0.931 . S
H316 C337 0.929 . S
H317 C346 0.930 . S
H318 C338 0.931 . S
O319 Co295 2.097 . S
O319 C347 1.214 . S
H320 C348 0.929 . S
H321 C349 0.929 . S
H322 C350 0.930 . S
H323 C351 0.929 . S
H324 C353 0.930 . S
H325 C330 0.930 . S
H326 C334 0.930 . S
O327 Co296 2.037 . S
O327 C347 1.234 . S
C328 O302 1.269 . S
C328 O303 1.257 . S
C329 H304 0.930 . S
C329 C332 1.388 . S
C329 C334 1.418 . S
C330 H325 0.930 . S
C330 C333 1.404 . S
C330 C334 1.353 . S
N331 Co296 2.145 . S
N331 C332 1.397 . S
N331 C333 1.334 . S
C332 H313 0.929 . S
C332 C329 1.388 . S
C332 N331 1.397 . S
C333 H314 0.929 . S
C333 C330 1.404 . S
C333 N331 1.334 . S
C334 H326 0.930 . S
C334 C329 1.418 . S
C334 C330 1.353 . S
C335 H305 0.930 . S
C335 N336 1.330 . S
C335 C337 1.446 . S
N336 Co295 2.151 . S
N336 C335 1.330 . S
N336 C340 1.418 . S
C337 H316 0.929 . S
C337 C335 1.446 . S
C337 C338 1.332 . S
C338 H318 0.931 . S
C338 C337 1.332 . S
C338 C339 1.267 . S
C339 H307 0.929 . S
C339 C338 1.267 . S
C339 C340 1.251 . S
C340 H310 0.929 . S
C340 N336 1.418 . S
C340 C339 1.251 . S
C341 H308 0.930 . S
C341 C343 1.406 . S
C341 C346 1.261 . S
C342 H309 0.930 . S
C342 N344 1.325 . S
C342 C345 1.357 . S
C343 H311 0.928 . S
C343 C341 1.406 . S
C343 N344 1.261 . S
N344 Co295 2.214 . S
N344 C342 1.325 . S
N344 C343 1.261 . S
C345 H315 0.931 . S
C345 C342 1.357 . S
C345 C346 1.312 . S
C346 H317 0.930 . S
C346 C341 1.261 . S
C346 C345 1.312 . S
C347 O319 1.214 . S
C347 O327 1.234 . S
C348 H320 0.929 . S
C348 C351 1.391 . S
C348 C353 1.391 . S
C349 H321 0.929 . S
C349 C350 1.390 . S
C349 N352 1.391 . S
C350 H322 0.930 . S
C350 C349 1.390 . S
C350 C351 1.392 . S
C351 H323 0.929 . S
C351 C348 1.391 . S
C351 C350 1.392 . S
N352 Co296 2.257 . S
N352 C349 1.391 . S
N352 C353 1.388 . S
C353 H324 0.930 . S
C353 C348 1.391 . S
C353 N352 1.388 . S
Co354 O356 2.143 . S
Co354 O362 2.074 . S
Co354 O365 2.093 . S
Co354 O378 2.097 . S
Co354 N395 2.151 . S
Co354 N403 2.214 . S
Co355 O356 2.160 . S
Co355 O361 2.058 . S
Co355 O371 2.057 . S
Co355 O386 2.037 . S
Co355 N390 2.145 . S
Co355 N411 2.257 . S
O356 Co354 2.143 . S
O356 Co355 2.160 . S
C357 O358 1.278 . S
C357 O365 1.224 . S
O358 C357 1.278 . S
C359 O360 1.245 . S
C359 O371 1.232 . S
O360 C359 1.245 . S
O361 Co355 2.058 . S
O361 C387 1.275 . S
O362 Co354 2.074 . S
O362 C387 1.274 . S
H363 C388 0.930 . S
H364 C394 0.930 . S
O365 Co354 2.093 . S
O365 C357 1.224 . S
H366 C398 0.929 . S
H367 C400 0.930 . S
H368 C401 0.930 . S
H369 C399 0.929 . S
H370 C402 0.928 . S
O371 Co355 2.057 . S
O371 C359 1.232 . S
H372 C391 0.929 . S
H373 C392 0.929 . S
H374 C404 0.931 . S
H375 C396 0.929 . S
H376 C405 0.930 . S
H377 C397 0.931 . S
O378 Co354 2.097 . S
O378 C406 1.214 . S
H379 C407 0.929 . S
H380 C408 0.929 . S
H381 C409 0.930 . S
H382 C410 0.929 . S
H383 C412 0.930 . S
H384 C389 0.930 . S
H385 C393 0.930 . S
O386 Co355 2.037 . S
O386 C406 1.234 . S
C387 O361 1.275 . S
C387 O362 1.274 . S
C388 H363 0.930 . S
C388 C391 1.388 . S
C388 C393 1.418 . S
C389 H384 0.930 . S
C389 C392 1.404 1_554 S
C389 C393 1.353 . S
N390 Co355 2.145 . S
N390 C391 1.397 1_556 S
N390 C392 1.334 . S
C391 H372 0.929 . S
C391 C388 1.388 . S
C391 N390 1.397 1_554 S
C392 H373 0.929 . S
C392 C389 1.404 1_556 S
C392 N390 1.334 . S
C393 H385 0.930 . S
C393 C388 1.418 . S
C393 C389 1.353 . S
C394 H364 0.930 . S
C394 N395 1.330 . S
C394 C396 1.446 . S
N395 Co354 2.151 . S
N395 C394 1.330 . S
N395 C399 1.418 . S
C396 H375 0.929 . S
C396 C394 1.446 . S
C396 C397 1.332 . S
C397 H377 0.931 . S
C397 C396 1.332 . S
C397 C398 1.267 . S
C398 H366 0.929 . S
C398 C397 1.267 . S
C398 C399 1.251 . S
C399 H369 0.929 . S
C399 N395 1.418 . S
C399 C398 1.251 . S
C400 H367 0.930 . S
C400 C402 1.406 . S
C400 C405 1.261 . S
C401 H368 0.930 . S
C401 N403 1.325 . S
C401 C404 1.357 . S
C402 H370 0.928 . S
C402 C400 1.406 . S
C402 N403 1.261 . S
N403 Co354 2.214 . S
N403 C401 1.325 . S
N403 C402 1.261 . S
C404 H374 0.931 . S
C404 C401 1.357 . S
C404 C405 1.312 . S
C405 H376 0.930 . S
C405 C400 1.261 . S
C405 C404 1.312 . S
C406 O378 1.214 . S
C406 O386 1.234 . S
C407 H379 0.929 . S
C407 C410 1.391 . S
C407 C412 1.391 . S
C408 H380 0.929 . S
C408 C409 1.390 . S
C408 N411 1.391 . S
C409 H381 0.930 . S
C409 C408 1.390 . S
C409 C410 1.392 . S
C410 H382 0.929 . S
C410 C407 1.391 . S
C410 C409 1.392 . S
N411 Co355 2.257 . S
N411 C408 1.391 . S
N411 C412 1.388 . S
C412 H383 0.930 . S
C412 C407 1.391 . S
C412 N411 1.388 . S
Co413 O415 2.143 . S
Co413 O421 2.074 . S
Co413 O424 2.093 . S
Co413 O437 2.097 . S
Co413 N454 2.151 . S
Co413 N462 2.214 . S
Co414 O415 2.160 . S
Co414 O420 2.058 . S
Co414 O430 2.057 . S
Co414 O445 2.037 . S
Co414 N449 2.145 . S
Co414 N470 2.257 . S
O415 Co413 2.143 . S
O415 Co414 2.160 . S
C416 O417 1.278 . S
C416 O424 1.224 . S
O417 C416 1.278 . S
C418 O419 1.245 . S
C418 O430 1.232 . S
O419 C418 1.245 . S
O420 Co414 2.058 . S
O420 C446 1.269 . S
O421 Co413 2.074 . S
O421 C446 1.257 . S
H422 C447 0.930 . S
H423 C453 0.930 . S
O424 Co413 2.093 . S
O424 C416 1.224 . S
H425 C457 0.929 . S
H426 C459 0.930 . S
H427 C460 0.930 . S
H428 C458 0.929 . S
H429 C461 0.928 . S
O430 Co414 2.057 . S
O430 C418 1.232 . S
H431 C450 0.929 . S
H432 C451 0.929 . S
H433 C463 0.931 . S
H434 C455 0.929 . S
H435 C464 0.930 . S
H436 C456 0.931 . S
O437 Co413 2.097 . S
O437 C465 1.214 . S
H438 C466 0.929 . S
H439 C467 0.929 . S
H440 C468 0.930 . S
H441 C469 0.929 . S
H442 C471 0.930 . S
H443 C448 0.930 . S
H444 C452 0.930 . S
O445 Co414 2.037 . S
O445 C465 1.234 . S
C446 O420 1.269 . S
C446 O421 1.257 . S
C447 H422 0.930 . S
C447 C450 1.388 . S
C447 C452 1.418 . S
C448 H443 0.930 . S
C448 C451 1.404 . S
C448 C452 1.353 . S
N449 Co414 2.145 . S
N449 C450 1.397 . S
N449 C451 1.334 . S
C450 H431 0.929 . S
C450 C447 1.388 . S
C450 N449 1.397 . S
C451 H432 0.929 . S
C451 C448 1.404 . S
C451 N449 1.334 . S
C452 H444 0.930 . S
C452 C447 1.418 . S
C452 C448 1.353 . S
C453 H423 0.930 . S
C453 N454 1.330 . S
C453 C455 1.446 . S
N454 Co413 2.151 . S
N454 C453 1.330 . S
N454 C458 1.418 . S
C455 H434 0.929 . S
C455 C453 1.446 . S
C455 C456 1.332 . S
C456 H436 0.931 . S
C456 C455 1.332 . S
C456 C457 1.267 . S
C457 H425 0.929 . S
C457 C456 1.267 . S
C457 C458 1.251 . S
C458 H428 0.929 . S
C458 N454 1.418 . S
C458 C457 1.251 . S
C459 H426 0.930 . S
C459 C461 1.406 . S
C459 C464 1.261 . S
C460 H427 0.930 . S
C460 N462 1.325 . S
C460 C463 1.357 . S
C461 H429 0.928 . S
C461 C459 1.406 . S
C461 N462 1.261 . S
N462 Co413 2.214 . S
N462 C460 1.325 . S
N462 C461 1.261 . S
C463 H433 0.931 . S
C463 C460 1.357 . S
C463 C464 1.312 . S
C464 H435 0.930 . S
C464 C459 1.261 . S
C464 C463 1.312 . S
C465 O437 1.214 . S
C465 O445 1.234 . S
C466 H438 0.929 . S
C466 C469 1.391 . S
C466 C471 1.391 . S
C467 H439 0.929 . S
C467 C468 1.390 . S
C467 N470 1.391 . S
C468 H440 0.930 . S
C468 C467 1.390 . S
C468 C469 1.392 . S
C469 H441 0.929 . S
C469 C466 1.391 . S
C469 C468 1.392 . S
N470 Co414 2.257 . S
N470 C467 1.391 . S
N470 C471 1.388 . S
C471 H442 0.930 . S
C471 C466 1.391 . S
C471 N470 1.388 . S
Co472 O474 2.143 . S
Co472 O480 2.074 . S
Co472 O483 2.093 1_655 S
Co472 O496 2.097 . S
Co472 N513 2.151 1_655 S
Co472 N521 2.214 1_655 S
Co473 O474 2.160 . S
Co473 O479 2.058 . S
Co473 O489 2.057 . S
Co473 O504 2.037 . S
Co473 N508 2.145 . S
Co473 N529 2.257 . S
O474 Co472 2.143 . S
O474 Co473 2.160 . S
C475 O476 1.278 . S
C475 O483 1.224 1_655 S
O476 C475 1.278 . S
C477 O478 1.245 . S
C477 O489 1.232 . S
O478 C477 1.245 . S
O479 Co473 2.058 . S
O479 C505 1.274 . S
O480 Co472 2.074 . S
O480 C505 1.274 . S
H481 C506 0.930 . S
H482 C512 0.930 1_655 S
O483 Co472 2.093 1_455 S
O483 C475 1.224 1_455 S
H484 C516 0.929 . S
H485 C518 0.930 . S
H486 C519 0.930 . S
H487 C517 0.929 . S
H488 C520 0.928 . S
O489 Co473 2.057 . S
O489 C477 1.232 . S
H490 C509 0.929 . S
H491 C510 0.929 . S
H492 C522 0.931 . S
H493 C514 0.929 . S
H494 C523 0.930 . S
H495 C515 0.931 . S
O496 Co472 2.097 . S
O496 C524 1.214 . S
H497 C525 0.929 . S
H498 C526 0.929 . S
H499 C527 0.930 . S
H500 C528 0.929 . S
H501 C530 0.930 . S
H502 C507 0.930 . S
H503 C511 0.930 . S
O504 Co473 2.037 . S
O504 C524 1.234 . S
C505 O479 1.274 . S
C505 O480 1.274 . S
C506 H481 0.930 . S
C506 C509 1.388 . S
C506 C511 1.418 . S
C507 H502 0.930 . S
C507 C510 1.404 1_554 S
C507 C511 1.353 . S
N508 Co473 2.145 . S
N508 C509 1.397 1_556 S
N508 C510 1.334 . S
C509 H490 0.929 . S
C509 C506 1.388 . S
C509 N508 1.397 1_554 S
C510 H491 0.929 . S
C510 C507 1.404 1_556 S
C510 N508 1.334 . S
C511 H503 0.930 . S
C511 C506 1.418 . S
C511 C507 1.353 . S
C512 H482 0.930 1_455 S
C512 N513 1.330 . S
C512 C514 1.446 . S
N513 Co472 2.151 1_455 S
N513 C512 1.330 . S
N513 C517 1.418 . S
C514 H493 0.929 . S
C514 C512 1.446 . S
C514 C515 1.332 . S
C515 H495 0.931 . S
C515 C514 1.332 . S
C515 C516 1.267 . S
C516 H484 0.929 . S
C516 C515 1.267 . S
C516 C517 1.251 . S
C517 H487 0.929 . S
C517 N513 1.418 . S
C517 C516 1.251 . S
C518 H485 0.930 . S
C518 C520 1.406 . S
C518 C523 1.261 . S
C519 H486 0.930 . S
C519 N521 1.325 . S
C519 C522 1.357 . S
C520 H488 0.928 . S
C520 C518 1.406 . S
C520 N521 1.261 . S
N521 Co472 2.214 1_455 S
N521 C519 1.325 . S
N521 C520 1.261 . S
C522 H492 0.931 . S
C522 C519 1.357 . S
C522 C523 1.312 . S
C523 H494 0.930 . S
C523 C518 1.261 . S
C523 C522 1.312 . S
C524 O496 1.214 . S
C524 O504 1.234 . S
C525 H497 0.929 . S
C525 C528 1.391 . S
C525 C530 1.391 . S
C526 H498 0.929 . S
C526 C527 1.390 . S
C526 N529 1.391 . S
C527 H499 0.930 . S
C527 C526 1.390 . S
C527 C528 1.392 . S
C528 H500 0.929 . S
C528 C525 1.391 . S
C528 C527 1.392 . S
N529 Co473 2.257 . S
N529 C526 1.391 . S
N529 C530 1.388 . S
C530 H501 0.930 . S
C530 C525 1.391 . S
C530 N529 1.388 . S
Co531 O533 2.143 . S
Co531 O539 2.074 . S
Co531 O542 2.093 . S
Co531 O555 2.097 . S
Co531 N572 2.151 . S
Co531 N580 2.214 . S
Co532 O533 2.160 . S
Co532 O538 2.058 . S
Co532 O548 2.057 . S
Co532 O563 2.037 . S
Co532 N567 2.145 . S
Co532 N588 2.257 . S
O533 Co531 2.143 . S
O533 Co532 2.160 . S
C534 O535 1.278 . S
C534 O542 1.224 . S
O535 C534 1.278 . S
C536 O537 1.245 . S
C536 O548 1.232 . S
O537 C536 1.245 . S
O538 Co532 2.058 . S
O538 C564 1.269 . S
O539 Co531 2.074 . S
O539 C564 1.257 . S
H540 C565 0.930 . S
H541 C571 0.930 . S
O542 Co531 2.093 . S
O542 C534 1.224 . S
H543 C575 0.929 . S
H544 C577 0.930 . S
H545 C578 0.930 . S
H546 C576 0.929 . S
H547 C579 0.928 . S
O548 Co532 2.057 . S
O548 C536 1.232 . S
H549 C568 0.929 . S
H550 C569 0.929 . S
H551 C581 0.931 . S
H552 C573 0.929 . S
H553 C582 0.930 . S
H554 C574 0.931 . S
O555 Co531 2.097 . S
O555 C583 1.214 . S
H556 C584 0.929 . S
H557 C585 0.929 . S
H558 C586 0.930 . S
H559 C587 0.929 . S
H560 C589 0.930 . S
H561 C566 0.930 . S
H562 C570 0.930 . S
O563 Co532 2.037 . S
O563 C583 1.234 . S
C564 O538 1.269 . S
C564 O539 1.257 . S
C565 H540 0.930 . S
C565 C568 1.388 . S
C565 C570 1.418 . S
C566 H561 0.930 . S
C566 C569 1.404 . S
C566 C570 1.353 . S
N567 Co532 2.145 . S
N567 C568 1.397 . S
N567 C569 1.334 . S
C568 H549 0.929 . S
C568 C565 1.388 . S
C568 N567 1.397 . S
C569 H550 0.929 . S
C569 C566 1.404 . S
C569 N567 1.334 . S
C570 H562 0.930 . S
C570 C565 1.418 . S
C570 C566 1.353 . S
C571 H541 0.930 . S
C571 N572 1.330 . S
C571 C573 1.446 . S
N572 Co531 2.151 . S
N572 C571 1.330 . S
N572 C576 1.418 . S
C573 H552 0.929 . S
C573 C571 1.446 . S
C573 C574 1.332 . S
C574 H554 0.931 . S
C574 C573 1.332 . S
C574 C575 1.267 . S
C575 H543 0.929 . S
C575 C574 1.267 . S
C575 C576 1.251 . S
C576 H546 0.929 . S
C576 N572 1.418 . S
C576 C575 1.251 . S
C577 H544 0.930 . S
C577 C579 1.406 . S
C577 C582 1.261 . S
C578 H545 0.930 . S
C578 N580 1.325 . S
C578 C581 1.357 . S
C579 H547 0.928 . S
C579 C577 1.406 . S
C579 N580 1.261 . S
N580 Co531 2.214 . S
N580 C578 1.325 . S
N580 C579 1.261 . S
C581 H551 0.931 . S
C581 C578 1.357 . S
C581 C582 1.312 . S
C582 H553 0.930 . S
C582 C577 1.261 . S
C582 C581 1.312 . S
C583 O555 1.214 . S
C583 O563 1.234 . S
C584 H556 0.929 . S
C584 C587 1.391 . S
C584 C589 1.391 . S
C585 H557 0.929 . S
C585 C586 1.390 . S
C585 N588 1.391 . S
C586 H558 0.930 . S
C586 C585 1.390 . S
C586 C587 1.392 . S
C587 H559 0.929 . S
C587 C584 1.391 . S
C587 C586 1.392 . S
N588 Co532 2.257 . S
N588 C585 1.391 . S
N588 C589 1.388 . S
C589 H560 0.930 . S
C589 C584 1.391 . S
C589 N588 1.388 . S
Co590 O592 2.143 . S
Co590 O598 2.074 . S
Co590 O601 2.093 . S
Co590 O614 2.097 . S
Co590 N631 2.151 . S
Co590 N639 2.214 . S
Co591 O592 2.160 . S
Co591 O597 2.058 . S
Co591 O607 2.057 . S
Co591 O622 2.037 . S
Co591 N626 2.145 . S
Co591 N647 2.257 . S
O592 Co590 2.143 . S
O592 Co591 2.160 . S
C593 O594 1.278 . S
C593 O601 1.224 . S
O594 C593 1.278 . S
C595 O596 1.245 . S
C595 O607 1.232 . S
O596 C595 1.245 . S
O597 Co591 2.058 . S
O597 C623 1.269 . S
O598 Co590 2.074 . S
O598 C623 1.257 . S
H599 C624 0.930 . S
H600 C630 0.930 . S
O601 Co590 2.093 . S
O601 C593 1.224 . S
H602 C634 0.929 . S
H603 C636 0.930 . S
H604 C637 0.930 . S
H605 C635 0.929 . S
H606 C638 0.928 . S
O607 Co591 2.057 . S
O607 C595 1.232 . S
H608 C627 0.929 . S
H609 C628 0.929 . S
H610 C640 0.931 . S
H611 C632 0.929 . S
H612 C641 0.930 . S
H613 C633 0.931 . S
O614 Co590 2.097 . S
O614 C642 1.214 . S
H615 C643 0.929 . S
H616 C644 0.929 . S
H617 C645 0.930 . S
H618 C646 0.929 . S
H619 C648 0.930 . S
H620 C625 0.930 . S
H621 C629 0.930 . S
O622 Co591 2.037 . S
O622 C642 1.234 . S
C623 O597 1.269 . S
C623 O598 1.257 . S
C624 H599 0.930 . S
C624 C627 1.388 . S
C624 C629 1.418 . S
C625 H620 0.930 . S
C625 C628 1.404 . S
C625 C629 1.353 . S
N626 Co591 2.145 . S
N626 C627 1.397 . S
N626 C628 1.334 . S
C627 H608 0.929 . S
C627 C624 1.388 . S
C627 N626 1.397 . S
C628 H609 0.929 . S
C628 C625 1.404 . S
C628 N626 1.334 . S
C629 H621 0.930 . S
C629 C624 1.418 . S
C629 C625 1.353 . S
C630 H600 0.930 . S
C630 N631 1.330 . S
C630 C632 1.446 . S
N631 Co590 2.151 . S
N631 C630 1.330 . S
N631 C635 1.418 . S
C632 H611 0.929 . S
C632 C630 1.446 . S
C632 C633 1.332 . S
C633 H613 0.931 . S
C633 C632 1.332 . S
C633 C634 1.267 . S
C634 H602 0.929 . S
C634 C633 1.267 . S
C634 C635 1.251 . S
C635 H605 0.929 . S
C635 N631 1.418 . S
C635 C634 1.251 . S
C636 H603 0.930 . S
C636 C638 1.406 . S
C636 C641 1.261 . S
C637 H604 0.930 . S
C637 N639 1.325 . S
C637 C640 1.357 . S
C638 H606 0.928 . S
C638 C636 1.406 . S
C638 N639 1.261 . S
N639 Co590 2.214 . S
N639 C637 1.325 . S
N639 C638 1.261 . S
C640 H610 0.931 . S
C640 C637 1.357 . S
C640 C641 1.312 . S
C641 H612 0.930 . S
C641 C636 1.261 . S
C641 C640 1.312 . S
C642 O614 1.214 . S
C642 O622 1.234 . S
C643 H615 0.929 . S
C643 C646 1.391 . S
C643 C648 1.391 . S
C644 H616 0.929 . S
C644 C645 1.390 . S
C644 N647 1.391 . S
C645 H617 0.930 . S
C645 C644 1.390 . S
C645 C646 1.392 . S
C646 H618 0.929 . S
C646 C643 1.391 . S
C646 C645 1.392 . S
N647 Co591 2.257 . S
N647 C644 1.391 . S
N647 C648 1.388 . S
C648 H619 0.930 . S
C648 C643 1.391 . S
C648 N647 1.388 . S
Co649 O651 2.143 . S
Co649 O657 2.074 . S
Co649 O660 2.093 . S
Co649 O673 2.097 . S
Co649 N690 2.151 . S
Co649 N698 2.214 . S
Co650 O651 2.160 . S
Co650 O656 2.058 . S
Co650 O666 2.057 . S
Co650 O681 2.037 . S
Co650 N685 2.145 . S
Co650 N706 2.257 . S
O651 Co649 2.143 . S
O651 Co650 2.160 . S
C652 O653 1.278 . S
C652 O660 1.224 . S
O653 C652 1.278 . S
C654 O655 1.245 . S
C654 O666 1.232 . S
O655 C654 1.245 . S
O656 Co650 2.058 . S
O656 C682 1.269 . S
O657 Co649 2.074 . S
O657 C682 1.257 . S
H658 C683 0.930 . S
H659 C689 0.930 . S
O660 Co649 2.093 . S
O660 C652 1.224 . S
H661 C693 0.929 . S
H662 C695 0.930 . S
H663 C696 0.930 . S
H664 C694 0.929 . S
H665 C697 0.928 . S
O666 Co650 2.057 . S
O666 C654 1.232 . S
H667 C686 0.929 . S
H668 C687 0.929 . S
H669 C699 0.931 . S
H670 C691 0.929 . S
H671 C700 0.930 . S
H672 C692 0.931 . S
O673 Co649 2.097 . S
O673 C701 1.214 . S
H674 C702 0.929 . S
H675 C703 0.929 . S
H676 C704 0.930 . S
H677 C705 0.929 . S
H678 C707 0.930 . S
H679 C684 0.930 . S
H680 C688 0.930 . S
O681 Co650 2.037 . S
O681 C701 1.234 . S
C682 O656 1.269 . S
C682 O657 1.257 . S
C683 H658 0.930 . S
C683 C686 1.388 . S
C683 C688 1.418 . S
C684 H679 0.930 . S
C684 C687 1.404 . S
C684 C688 1.353 . S
N685 Co650 2.145 . S
N685 C686 1.397 . S
N685 C687 1.334 . S
C686 H667 0.929 . S
C686 C683 1.388 . S
C686 N685 1.397 . S
C687 H668 0.929 . S
C687 C684 1.404 . S
C687 N685 1.334 . S
C688 H680 0.930 . S
C688 C683 1.418 . S
C688 C684 1.353 . S
C689 H659 0.930 . S
C689 N690 1.330 . S
C689 C691 1.446 . S
N690 Co649 2.151 . S
N690 C689 1.330 . S
N690 C694 1.418 . S
C691 H670 0.929 . S
C691 C689 1.446 . S
C691 C692 1.332 . S
C692 H672 0.931 . S
C692 C691 1.332 . S
C692 C693 1.267 . S
C693 H661 0.929 . S
C693 C692 1.267 . S
C693 C694 1.251 . S
C694 H664 0.929 . S
C694 N690 1.418 . S
C694 C693 1.251 . S
C695 H662 0.930 . S
C695 C697 1.406 . S
C695 C700 1.261 . S
C696 H663 0.930 . S
C696 N698 1.325 . S
C696 C699 1.357 . S
C697 H665 0.928 . S
C697 C695 1.406 . S
C697 N698 1.261 . S
N698 Co649 2.214 . S
N698 C696 1.325 . S
N698 C697 1.261 . S
C699 H669 0.931 . S
C699 C696 1.357 . S
C699 C700 1.312 . S
C700 H671 0.930 . S
C700 C695 1.261 . S
C700 C699 1.312 . S
C701 O673 1.214 . S
C701 O681 1.234 . S
C702 H674 0.929 . S
C702 C705 1.391 . S
C702 C707 1.391 . S
C703 H675 0.929 . S
C703 C704 1.390 . S
C703 N706 1.391 . S
C704 H676 0.930 . S
C704 C703 1.390 . S
C704 C705 1.392 . S
C705 H677 0.929 . S
C705 C702 1.391 . S
C705 C704 1.392 . S
N706 Co650 2.257 . S
N706 C703 1.391 . S
N706 C707 1.388 . S
C707 H678 0.930 . S
C707 C702 1.391 . S
C707 N706 1.388 . S
Co708 O710 2.143 . S
Co708 O716 2.074 . S
Co708 O719 2.093 1_655 S
Co708 O732 2.097 . S
Co708 N749 2.151 1_655 S
Co708 N757 2.214 1_655 S
Co709 O710 2.160 . S
Co709 O715 2.058 . S
Co709 O725 2.057 . S
Co709 O740 2.037 . S
Co709 N744 2.145 . S
Co709 N765 2.257 . S
O710 Co708 2.143 . S
O710 Co709 2.160 . S
C711 O712 1.278 . S
C711 O719 1.224 1_655 S
O712 C711 1.278 . S
C713 O714 1.245 . S
C713 O725 1.232 . S
O714 C713 1.245 . S
O715 Co709 2.058 . S
O715 C741 1.269 . S
O716 Co708 2.074 . S
O716 C741 1.257 . S
H717 C742 0.930 . S
H718 C748 0.930 1_655 S
O719 Co708 2.093 1_455 S
O719 C711 1.224 1_455 S
H720 C752 0.929 . S
H721 C754 0.930 . S
H722 C755 0.930 . S
H723 C753 0.929 . S
H724 C756 0.928 . S
O725 Co709 2.057 . S
O725 C713 1.232 . S
H726 C745 0.929 . S
H727 C746 0.929 . S
H728 C758 0.931 . S
H729 C750 0.929 . S
H730 C759 0.930 . S
H731 C751 0.931 . S
O732 Co708 2.097 . S
O732 C760 1.214 . S
H733 C761 0.929 . S
H734 C762 0.929 . S
H735 C763 0.930 . S
H736 C764 0.929 . S
H737 C766 0.930 . S
H738 C743 0.930 . S
H739 C747 0.930 . S
O740 Co709 2.037 . S
O740 C760 1.234 . S
C741 O715 1.269 . S
C741 O716 1.257 . S
C742 H717 0.930 . S
C742 C745 1.388 . S
C742 C747 1.418 . S
C743 H738 0.930 . S
C743 C746 1.404 . S
C743 C747 1.353 . S
N744 Co709 2.145 . S
N744 C745 1.397 . S
N744 C746 1.334 . S
C745 H726 0.929 . S
C745 C742 1.388 . S
C745 N744 1.397 . S
C746 H727 0.929 . S
C746 C743 1.404 . S
C746 N744 1.334 . S
C747 H739 0.930 . S
C747 C742 1.418 . S
C747 C743 1.353 . S
C748 H718 0.930 1_455 S
C748 N749 1.330 . S
C748 C750 1.446 . S
N749 Co708 2.151 1_455 S
N749 C748 1.330 . S
N749 C753 1.418 . S
C750 H729 0.929 . S
C750 C748 1.446 . S
C750 C751 1.332 . S
C751 H731 0.931 . S
C751 C750 1.332 . S
C751 C752 1.267 . S
C752 H720 0.929 . S
C752 C751 1.267 . S
C752 C753 1.251 . S
C753 H723 0.929 . S
C753 N749 1.418 . S
C753 C752 1.251 . S
C754 H721 0.930 . S
C754 C756 1.406 . S
C754 C759 1.261 . S
C755 H722 0.930 . S
C755 N757 1.325 . S
C755 C758 1.357 . S
C756 H724 0.928 . S
C756 C754 1.406 . S
C756 N757 1.261 . S
N757 Co708 2.214 1_455 S
N757 C755 1.325 . S
N757 C756 1.261 . S
C758 H728 0.931 . S
C758 C755 1.357 . S
C758 C759 1.312 . S
C759 H730 0.930 . S
C759 C754 1.261 . S
C759 C758 1.312 . S
C760 O732 1.214 . S
C760 O740 1.234 . S
C761 H733 0.929 . S
C761 C764 1.391 . S
C761 C766 1.391 . S
C762 H734 0.929 . S
C762 C763 1.390 . S
C762 N765 1.391 . S
C763 H735 0.930 . S
C763 C762 1.390 . S
C763 C764 1.392 . S
C764 H736 0.929 . S
C764 C761 1.391 . S
C764 C763 1.392 . S
N765 Co709 2.257 . S
N765 C762 1.391 . S
N765 C766 1.388 . S
C766 H737 0.930 . S
C766 C761 1.391 . S
C766 N765 1.388 . S
Co767 O769 2.143 . S
Co767 O775 2.074 . S
Co767 O778 2.093 . S
Co767 O791 2.097 . S
Co767 N808 2.151 . S
Co767 N816 2.214 . S
Co768 O769 2.160 . S
Co768 O774 2.058 . S
Co768 O784 2.057 . S
Co768 O799 2.037 . S
Co768 N803 2.145 . S
Co768 N824 2.257 . S
O769 Co767 2.143 . S
O769 Co768 2.160 . S
C770 O771 1.278 . S
C770 O778 1.224 . S
O771 C770 1.278 . S
C772 O773 1.245 . S
C772 O784 1.232 . S
O773 C772 1.245 . S
O774 Co768 2.058 . S
O774 C800 1.269 . S
O775 Co767 2.074 . S
O775 C800 1.257 . S
H776 C801 0.930 . S
H777 C807 0.930 . S
O778 Co767 2.093 . S
O778 C770 1.224 . S
H779 C811 0.929 . S
H780 C813 0.930 . S
H781 C814 0.930 . S
H782 C812 0.929 . S
H783 C815 0.928 . S
O784 Co768 2.057 . S
O784 C772 1.232 . S
H785 C804 0.929 . S
H786 C805 0.929 . S
H787 C817 0.931 . S
H788 C809 0.929 . S
H789 C818 0.930 . S
H790 C810 0.931 . S
O791 Co767 2.097 . S
O791 C819 1.214 . S
H792 C820 0.929 . S
H793 C821 0.929 . S
H794 C822 0.930 . S
H795 C823 0.929 . S
H796 C825 0.930 . S
H797 C802 0.930 . S
H798 C806 0.930 . S
O799 Co768 2.037 . S
O799 C819 1.234 . S
C800 O774 1.269 . S
C800 O775 1.257 . S
C801 H776 0.930 . S
C801 C804 1.388 . S
C801 C806 1.418 . S
C802 H797 0.930 . S
C802 C805 1.404 . S
C802 C806 1.353 . S
N803 Co768 2.145 . S
N803 C804 1.397 . S
N803 C805 1.334 . S
C804 H785 0.929 . S
C804 C801 1.388 . S
C804 N803 1.397 . S
C805 H786 0.929 . S
C805 C802 1.404 . S
C805 N803 1.334 . S
C806 H798 0.930 . S
C806 C801 1.418 . S
C806 C802 1.353 . S
C807 H777 0.930 . S
C807 N808 1.330 . S
C807 C809 1.446 . S
N808 Co767 2.151 . S
N808 C807 1.330 . S
N808 C812 1.418 . S
C809 H788 0.929 . S
C809 C807 1.446 . S
C809 C810 1.332 . S
C810 H790 0.931 . S
C810 C809 1.332 . S
C810 C811 1.267 . S
C811 H779 0.929 . S
C811 C810 1.267 . S
C811 C812 1.251 . S
C812 H782 0.929 . S
C812 N808 1.418 . S
C812 C811 1.251 . S
C813 H780 0.930 . S
C813 C815 1.406 . S
C813 C818 1.261 . S
C814 H781 0.930 . S
C814 N816 1.325 . S
C814 C817 1.357 . S
C815 H783 0.928 . S
C815 C813 1.406 . S
C815 N816 1.261 . S
N816 Co767 2.214 . S
N816 C814 1.325 . S
N816 C815 1.261 . S
C817 H787 0.931 . S
C817 C814 1.357 . S
C817 C818 1.312 . S
C818 H789 0.930 . S
C818 C813 1.261 . S
C818 C817 1.312 . S
C819 O791 1.214 . S
C819 O799 1.234 . S
C820 H792 0.929 . S
C820 C823 1.391 . S
C820 C825 1.391 . S
C821 H793 0.929 . S
C821 C822 1.390 . S
C821 N824 1.391 . S
C822 H794 0.930 . S
C822 C821 1.390 . S
C822 C823 1.392 . S
C823 H795 0.929 . S
C823 C820 1.391 . S
C823 C822 1.392 . S
N824 Co768 2.257 . S
N824 C821 1.391 . S
N824 C825 1.388 . S
C825 H796 0.930 . S
C825 C820 1.391 . S
C825 N824 1.388 . S
Co826 O828 2.143 . S
Co826 O834 2.074 . S
Co826 O837 2.093 . S
Co826 O850 2.097 . S
Co826 N867 2.151 . S
Co826 N875 2.214 . S
Co827 O828 2.160 . S
Co827 O833 2.058 . S
Co827 O843 2.057 . S
Co827 O858 2.037 . S
Co827 N862 2.145 . S
Co827 N883 2.257 . S
O828 Co826 2.143 . S
O828 Co827 2.160 . S
C829 O830 1.278 . S
C829 O837 1.224 . S
O830 C829 1.278 . S
C831 O832 1.245 . S
C831 O843 1.232 . S
O832 C831 1.245 . S
O833 Co827 2.058 . S
O833 C859 1.275 . S
O834 Co826 2.074 . S
O834 C859 1.274 . S
H835 C860 0.930 . S
H836 C866 0.930 . S
O837 Co826 2.093 . S
O837 C829 1.224 . S
H838 C870 0.929 . S
H839 C872 0.930 . S
H840 C873 0.930 . S
H841 C871 0.929 . S
H842 C874 0.928 . S
O843 Co827 2.057 . S
O843 C831 1.232 . S
H844 C863 0.929 . S
H845 C864 0.929 . S
H846 C876 0.931 . S
H847 C868 0.929 . S
H848 C877 0.930 . S
H849 C869 0.931 . S
O850 Co826 2.097 . S
O850 C878 1.214 . S
H851 C879 0.929 . S
H852 C880 0.929 . S
H853 C881 0.930 . S
H854 C882 0.929 . S
H855 C884 0.930 . S
H856 C861 0.930 . S
H857 C865 0.930 . S
O858 Co827 2.037 . S
O858 C878 1.234 . S
C859 O833 1.275 . S
C859 O834 1.274 . S
C860 H835 0.930 . S
C860 C863 1.388 . S
C860 C865 1.418 . S
C861 H856 0.930 . S
C861 C864 1.404 1_556 S
C861 C865 1.353 . S
N862 Co827 2.145 . S
N862 C863 1.397 1_554 S
N862 C864 1.334 . S
C863 H844 0.929 . S
C863 C860 1.388 . S
C863 N862 1.397 1_556 S
C864 H845 0.929 . S
C864 C861 1.404 1_554 S
C864 N862 1.334 . S
C865 H857 0.930 . S
C865 C860 1.418 . S
C865 C861 1.353 . S
C866 H836 0.930 . S
C866 N867 1.330 . S
C866 C868 1.446 . S
N867 Co826 2.151 . S
N867 C866 1.330 . S
N867 C871 1.418 . S
C868 H847 0.929 . S
C868 C866 1.446 . S
C868 C869 1.332 . S
C869 H849 0.931 . S
C869 C868 1.332 . S
C869 C870 1.267 . S
C870 H838 0.929 . S
C870 C869 1.267 . S
C870 C871 1.251 . S
C871 H841 0.929 . S
C871 N867 1.418 . S
C871 C870 1.251 . S
C872 H839 0.930 . S
C872 C874 1.406 . S
C872 C877 1.261 . S
C873 H840 0.930 . S
C873 N875 1.325 . S
C873 C876 1.357 . S
C874 H842 0.928 . S
C874 C872 1.406 . S
C874 N875 1.261 . S
N875 Co826 2.214 . S
N875 C873 1.325 . S
N875 C874 1.261 . S
C876 H846 0.931 . S
C876 C873 1.357 . S
C876 C877 1.312 . S
C877 H848 0.930 . S
C877 C872 1.261 . S
C877 C876 1.312 . S
C878 O850 1.214 . S
C878 O858 1.234 . S
C879 H851 0.929 . S
C879 C882 1.391 . S
C879 C884 1.391 . S
C880 H852 0.929 . S
C880 C881 1.390 . S
C880 N883 1.391 . S
C881 H853 0.930 . S
C881 C880 1.390 . S
C881 C882 1.392 . S
C882 H854 0.929 . S
C882 C879 1.391 . S
C882 C881 1.392 . S
N883 Co827 2.257 . S
N883 C880 1.391 . S
N883 C884 1.388 . S
C884 H855 0.930 . S
C884 C879 1.391 . S
C884 N883 1.388 . S
Co885 O887 2.143 . S
Co885 O893 2.074 . S
Co885 O896 2.093 . S
Co885 O909 2.097 . S
Co885 N926 2.151 . S
Co885 N934 2.214 . S
Co886 O887 2.160 . S
Co886 O892 2.058 . S
Co886 O902 2.057 . S
Co886 O917 2.037 . S
Co886 N921 2.145 . S
Co886 N942 2.257 . S
O887 Co885 2.143 . S
O887 Co886 2.160 . S
C888 O889 1.278 . S
C888 O896 1.224 . S
O889 C888 1.278 . S
C890 O891 1.245 . S
C890 O902 1.232 . S
O891 C890 1.245 . S
O892 Co886 2.058 . S
O892 C918 1.269 . S
O893 Co885 2.074 . S
O893 C918 1.257 . S
H894 C919 0.930 . S
H895 C925 0.930 . S
O896 Co885 2.093 . S
O896 C888 1.224 . S
H897 C929 0.929 . S
H898 C931 0.930 . S
H899 C932 0.930 . S
H900 C930 0.929 . S
H901 C933 0.928 . S
O902 Co886 2.057 . S
O902 C890 1.232 . S
H903 C922 0.929 . S
H904 C923 0.929 . S
H905 C935 0.931 . S
H906 C927 0.929 . S
H907 C936 0.930 . S
H908 C928 0.931 . S
O909 Co885 2.097 . S
O909 C937 1.214 . S
H910 C938 0.929 . S
H911 C939 0.929 . S
H912 C940 0.930 . S
H913 C941 0.929 . S
H914 C943 0.930 . S
H915 C920 0.930 . S
H916 C924 0.930 . S
O917 Co886 2.037 . S
O917 C937 1.234 . S
C918 O892 1.269 . S
C918 O893 1.257 . S
C919 H894 0.930 . S
C919 C922 1.388 . S
C919 C924 1.418 . S
C920 H915 0.930 . S
C920 C923 1.404 . S
C920 C924 1.353 . S
N921 Co886 2.145 . S
N921 C922 1.397 . S
N921 C923 1.334 . S
C922 H903 0.929 . S
C922 C919 1.388 . S
C922 N921 1.397 . S
C923 H904 0.929 . S
C923 C920 1.404 . S
C923 N921 1.334 . S
C924 H916 0.930 . S
C924 C919 1.418 . S
C924 C920 1.353 . S
C925 H895 0.930 . S
C925 N926 1.330 . S
C925 C927 1.446 . S
N926 Co885 2.151 . S
N926 C925 1.330 . S
N926 C930 1.418 . S
C927 H906 0.929 . S
C927 C925 1.446 . S
C927 C928 1.332 . S
C928 H908 0.931 . S
C928 C927 1.332 . S
C928 C929 1.267 . S
C929 H897 0.929 . S
C929 C928 1.267 . S
C929 C930 1.251 . S
C930 H900 0.929 . S
C930 N926 1.418 . S
C930 C929 1.251 . S
C931 H898 0.930 . S
C931 C933 1.406 . S
C931 C936 1.261 . S
C932 H899 0.930 . S
C932 N934 1.325 . S
C932 C935 1.357 . S
C933 H901 0.928 . S
C933 C931 1.406 . S
C933 N934 1.261 . S
N934 Co885 2.214 . S
N934 C932 1.325 . S
N934 C933 1.261 . S
C935 H905 0.931 . S
C935 C932 1.357 . S
C935 C936 1.312 . S
C936 H907 0.930 . S
C936 C931 1.261 . S
C936 C935 1.312 . S
C937 O909 1.214 . S
C937 O917 1.234 . S
C938 H910 0.929 . S
C938 C941 1.391 . S
C938 C943 1.391 . S
C939 H911 0.929 . S
C939 C940 1.390 . S
C939 N942 1.391 . S
C940 H912 0.930 . S
C940 C939 1.390 . S
C940 C941 1.392 . S
C941 H913 0.929 . S
C941 C938 1.391 . S
C941 C940 1.392 . S
N942 Co886 2.257 . S
N942 C939 1.391 . S
N942 C943 1.388 . S
C943 H914 0.930 . S
C943 C938 1.391 . S
C943 N942 1.388 . S
Co944 O946 2.143 . S
Co944 O952 2.074 . S
Co944 O955 2.093 . S
Co944 O968 2.097 . S
Co944 N985 2.151 . S
Co944 N993 2.214 . S
Co945 O946 2.160 . S
Co945 O951 2.058 . S
Co945 O961 2.057 . S
Co945 O976 2.037 . S
Co945 N980 2.145 . S
Co945 N1001 2.257 . S
O946 Co944 2.143 . S
O946 Co945 2.160 . S
C947 O948 1.278 . S
C947 O955 1.224 . S
O948 C947 1.278 . S
C949 O950 1.245 . S
C949 O961 1.232 . S
O950 C949 1.245 . S
O951 Co945 2.058 . S
O951 C977 1.269 . S
O952 Co944 2.074 . S
O952 C977 1.257 . S
H953 C978 0.930 . S
H954 C984 0.930 . S
O955 Co944 2.093 . S
O955 C947 1.224 . S
H956 C988 0.929 . S
H957 C990 0.930 . S
H958 C991 0.930 . S
H959 C989 0.929 . S
H960 C992 0.928 . S
O961 Co945 2.057 . S
O961 C949 1.232 . S
H962 C981 0.929 . S
H963 C982 0.929 . S
H964 C994 0.931 . S
H965 C986 0.929 . S
H966 C995 0.930 . S
H967 C987 0.931 . S
O968 Co944 2.097 . S
O968 C996 1.214 . S
H969 C997 0.929 . S
H970 C998 0.929 . S
H971 C999 0.930 . S
H972 C1000 0.929 . S
H973 C1002 0.930 . S
H974 C979 0.930 . S
H975 C983 0.930 . S
O976 Co945 2.037 . S
O976 C996 1.234 . S
C977 O951 1.269 . S
C977 O952 1.257 . S
C978 H953 0.930 . S
C978 C981 1.388 . S
C978 C983 1.418 . S
C979 H974 0.930 . S
C979 C982 1.404 . S
C979 C983 1.353 . S
N980 Co945 2.145 . S
N980 C981 1.397 . S
N980 C982 1.334 . S
C981 H962 0.929 . S
C981 C978 1.388 . S
C981 N980 1.397 . S
C982 H963 0.929 . S
C982 C979 1.404 . S
C982 N980 1.334 . S
C983 H975 0.930 . S
C983 C978 1.418 . S
C983 C979 1.353 . S
C984 H954 0.930 . S
C984 N985 1.330 . S
C984 C986 1.446 . S
N985 Co944 2.151 . S
N985 C984 1.330 . S
N985 C989 1.418 . S
C986 H965 0.929 . S
C986 C984 1.446 . S
C986 C987 1.332 . S
C987 H967 0.931 . S
C987 C986 1.332 . S
C987 C988 1.267 . S
C988 H956 0.929 . S
C988 C987 1.267 . S
C988 C989 1.251 . S
C989 H959 0.929 . S
C989 N985 1.418 . S
C989 C988 1.251 . S
C990 H957 0.930 . S
C990 C992 1.406 . S
C990 C995 1.261 . S
C991 H958 0.930 . S
C991 N993 1.325 . S
C991 C994 1.357 . S
C992 H960 0.928 . S
C992 C990 1.406 . S
C992 N993 1.261 . S
N993 Co944 2.214 . S
N993 C991 1.325 . S
N993 C992 1.261 . S
C994 H964 0.931 . S
C994 C991 1.357 . S
C994 C995 1.312 . S
C995 H966 0.930 . S
C995 C990 1.261 . S
C995 C994 1.312 . S
C996 O968 1.214 . S
C996 O976 1.234 . S
C997 H969 0.929 . S
C997 C1000 1.391 . S
C997 C1002 1.391 . S
C998 H970 0.929 . S
C998 C999 1.390 . S
C998 N1001 1.391 . S
C999 H971 0.930 . S
C999 C998 1.390 . S
C999 C1000 1.392 . S
C1000 H972 0.929 . S
C1000 C997 1.391 . S
C1000 C999 1.392 . S
N1001 Co945 2.257 . S
N1001 C998 1.391 . S
N1001 C1002 1.388 . S
C1002 H973 0.930 . S
C1002 C997 1.391 . S
C1002 N1001 1.388 . S
Co1003 O1005 2.143 . S
Co1003 O1011 2.074 . S
Co1003 O1014 2.093 . S
Co1003 O1027 2.097 . S
Co1003 N1044 2.151 . S
Co1003 N1052 2.214 . S
Co1004 O1005 2.160 . S
Co1004 O1010 2.058 . S
Co1004 O1020 2.057 . S
Co1004 O1035 2.037 . S
Co1004 N1039 2.145 . S
Co1004 N1060 2.257 . S
O1005 Co1003 2.143 . S
O1005 Co1004 2.160 . S
C1006 O1007 1.278 . S
C1006 O1014 1.224 . S
O1007 C1006 1.278 . S
C1008 O1009 1.245 . S
C1008 O1020 1.232 . S
O1009 C1008 1.245 . S
O1010 Co1004 2.058 . S
O1010 C1036 1.269 . S
O1011 Co1003 2.074 . S
O1011 C1036 1.257 . S
H1012 C1037 0.930 . S
H1013 C1043 0.930 . S
O1014 Co1003 2.093 . S
O1014 C1006 1.224 . S
H1015 C1047 0.929 . S
H1016 C1049 0.930 . S
H1017 C1050 0.930 . S
H1018 C1048 0.929 . S
H1019 C1051 0.928 . S
O1020 Co1004 2.057 . S
O1020 C1008 1.232 . S
H1021 C1040 0.929 . S
H1022 C1041 0.929 . S
H1023 C1053 0.931 . S
H1024 C1045 0.929 . S
H1025 C1054 0.930 . S
H1026 C1046 0.931 . S
O1027 Co1003 2.097 . S
O1027 C1055 1.214 . S
H1028 C1056 0.929 . S
H1029 C1057 0.929 . S
H1030 C1058 0.930 . S
H1031 C1059 0.929 . S
H1032 C1061 0.930 . S
H1033 C1038 0.930 . S
H1034 C1042 0.930 . S
O1035 Co1004 2.037 . S
O1035 C1055 1.234 . S
C1036 O1010 1.269 . S
C1036 O1011 1.257 . S
C1037 H1012 0.930 . S
C1037 C1040 1.388 . S
C1037 C1042 1.418 . S
C1038 H1033 0.930 . S
C1038 C1041 1.404 . S
C1038 C1042 1.353 . S
N1039 Co1004 2.145 . S
N1039 C1040 1.397 . S
N1039 C1041 1.334 . S
C1040 H1021 0.929 . S
C1040 C1037 1.388 . S
C1040 N1039 1.397 . S
C1041 H1022 0.929 . S
C1041 C1038 1.404 . S
C1041 N1039 1.334 . S
C1042 H1034 0.930 . S
C1042 C1037 1.418 . S
C1042 C1038 1.353 . S
C1043 H1013 0.930 . S
C1043 N1044 1.330 . S
C1043 C1045 1.446 . S
N1044 Co1003 2.151 . S
N1044 C1043 1.330 . S
N1044 C1048 1.418 . S
C1045 H1024 0.929 . S
C1045 C1043 1.446 . S
C1045 C1046 1.332 . S
C1046 H1026 0.931 . S
C1046 C1045 1.332 . S
C1046 C1047 1.267 . S
C1047 H1015 0.929 . S
C1047 C1046 1.267 . S
C1047 C1048 1.251 . S
C1048 H1018 0.929 . S
C1048 N1044 1.418 . S
C1048 C1047 1.251 . S
C1049 H1016 0.930 . S
C1049 C1051 1.406 . S
C1049 C1054 1.261 . S
C1050 H1017 0.930 . S
C1050 N1052 1.325 . S
C1050 C1053 1.357 . S
C1051 H1019 0.928 . S
C1051 C1049 1.406 . S
C1051 N1052 1.261 . S
N1052 Co1003 2.214 . S
N1052 C1050 1.325 . S
N1052 C1051 1.261 . S
C1053 H1023 0.931 . S
C1053 C1050 1.357 . S
C1053 C1054 1.312 . S
C1054 H1025 0.930 . S
C1054 C1049 1.261 . S
C1054 C1053 1.312 . S
C1055 O1027 1.214 . S
C1055 O1035 1.234 . S
C1056 H1028 0.929 . S
C1056 C1059 1.391 . S
C1056 C1061 1.391 . S
C1057 H1029 0.929 . S
C1057 C1058 1.390 . S
C1057 N1060 1.391 . S
C1058 H1030 0.930 . S
C1058 C1057 1.390 . S
C1058 C1059 1.392 . S
C1059 H1031 0.929 . S
C1059 C1056 1.391 . S
C1059 C1058 1.392 . S
N1060 Co1004 2.257 . S
N1060 C1057 1.391 . S
N1060 C1061 1.388 . S
C1061 H1032 0.930 . S
C1061 C1056 1.391 . S
C1061 N1060 1.388 . S
Co1062 O1064 2.143 . S
Co1062 O1070 2.074 . S
Co1062 O1073 2.093 1_655 S
Co1062 O1086 2.097 . S
Co1062 N1103 2.151 1_655 S
Co1062 N1111 2.214 1_655 S
Co1063 O1064 2.160 . S
Co1063 O1069 2.058 . S
Co1063 O1079 2.057 . S
Co1063 O1094 2.037 . S
Co1063 N1098 2.145 . S
Co1063 N1119 2.257 . S
O1064 Co1062 2.143 . S
O1064 Co1063 2.160 . S
C1065 O1066 1.278 . S
C1065 O1073 1.224 1_655 S
O1066 C1065 1.278 . S
C1067 O1068 1.245 . S
C1067 O1079 1.232 . S
O1068 C1067 1.245 . S
O1069 Co1063 2.058 . S
O1069 C1095 1.274 . S
O1070 Co1062 2.074 . S
O1070 C1095 1.274 . S
H1071 C1096 0.930 . S
H1072 C1102 0.930 1_655 S
O1073 Co1062 2.093 1_455 S
O1073 C1065 1.224 1_455 S
H1074 C1106 0.929 . S
H1075 C1108 0.930 . S
H1076 C1109 0.930 . S
H1077 C1107 0.929 . S
H1078 C1110 0.928 . S
O1079 Co1063 2.057 . S
O1079 C1067 1.232 . S
H1080 C1099 0.929 . S
H1081 C1100 0.929 . S
H1082 C1112 0.931 . S
H1083 C1104 0.929 . S
H1084 C1113 0.930 . S
H1085 C1105 0.931 . S
O1086 Co1062 2.097 . S
O1086 C1114 1.214 . S
H1087 C1115 0.929 . S
H1088 C1116 0.929 . S
H1089 C1117 0.930 . S
H1090 C1118 0.929 . S
H1091 C1120 0.930 . S
H1092 C1097 0.930 . S
H1093 C1101 0.930 . S
O1094 Co1063 2.037 . S
O1094 C1114 1.234 . S
C1095 O1069 1.274 . S
C1095 O1070 1.274 . S
C1096 H1071 0.930 . S
C1096 C1099 1.388 . S
C1096 C1101 1.418 . S
C1097 H1092 0.930 . S
C1097 C1100 1.404 1_556 S
C1097 C1101 1.353 . S
N1098 Co1063 2.145 . S
N1098 C1099 1.397 1_554 S
N1098 C1100 1.334 . S
C1099 H1080 0.929 . S
C1099 C1096 1.388 . S
C1099 N1098 1.397 1_556 S
C1100 H1081 0.929 . S
C1100 C1097 1.404 1_554 S
C1100 N1098 1.334 . S
C1101 H1093 0.930 . S
C1101 C1096 1.418 . S
C1101 C1097 1.353 . S
C1102 H1072 0.930 1_455 S
C1102 N1103 1.330 . S
C1102 C1104 1.446 . S
N1103 Co1062 2.151 1_455 S
N1103 C1102 1.330 . S
N1103 C1107 1.418 . S
C1104 H1083 0.929 . S
C1104 C1102 1.446 . S
C1104 C1105 1.332 . S
C1105 H1085 0.931 . S
C1105 C1104 1.332 . S
C1105 C1106 1.267 . S
C1106 H1074 0.929 . S
C1106 C1105 1.267 . S
C1106 C1107 1.251 . S
C1107 H1077 0.929 . S
C1107 N1103 1.418 . S
C1107 C1106 1.251 . S
C1108 H1075 0.930 . S
C1108 C1110 1.406 . S
C1108 C1113 1.261 . S
C1109 H1076 0.930 . S
C1109 N1111 1.325 . S
C1109 C1112 1.357 . S
C1110 H1078 0.928 . S
C1110 C1108 1.406 . S
C1110 N1111 1.261 . S
N1111 Co1062 2.214 1_455 S
N1111 C1109 1.325 . S
N1111 C1110 1.261 . S
C1112 H1082 0.931 . S
C1112 C1109 1.357 . S
C1112 C1113 1.312 . S
C1113 H1084 0.930 . S
C1113 C1108 1.261 . S
C1113 C1112 1.312 . S
C1114 O1086 1.214 . S
C1114 O1094 1.234 . S
C1115 H1087 0.929 . S
C1115 C1118 1.391 . S
C1115 C1120 1.391 . S
C1116 H1088 0.929 . S
C1116 C1117 1.390 . S
C1116 N1119 1.391 . S
C1117 H1089 0.930 . S
C1117 C1116 1.390 . S
C1117 C1118 1.392 . S
C1118 H1090 0.929 . S
C1118 C1115 1.391 . S
C1118 C1117 1.392 . S
N1119 Co1063 2.257 . S
N1119 C1116 1.391 . S
N1119 C1120 1.388 . S
C1120 H1091 0.930 . S
C1120 C1115 1.391 . S
C1120 N1119 1.388 . S
Co1121 O1123 2.143 . S
Co1121 O1129 2.074 . S
Co1121 O1132 2.093 . S
Co1121 O1145 2.097 . S
Co1121 N1162 2.151 . S
Co1121 N1170 2.214 . S
Co1122 O1123 2.160 . S
Co1122 O1128 2.058 . S
Co1122 O1138 2.057 . S
Co1122 O1153 2.037 . S
Co1122 N1157 2.145 . S
Co1122 N1178 2.257 . S
O1123 Co1121 2.143 . S
O1123 Co1122 2.160 . S
C1124 O1125 1.278 . S
C1124 O1132 1.224 . S
O1125 C1124 1.278 . S
C1126 O1127 1.245 . S
C1126 O1138 1.232 . S
O1127 C1126 1.245 . S
O1128 Co1122 2.058 . S
O1128 C1154 1.269 . S
O1129 Co1121 2.074 . S
O1129 C1154 1.257 . S
H1130 C1155 0.930 . S
H1131 C1161 0.930 . S
O1132 Co1121 2.093 . S
O1132 C1124 1.224 . S
H1133 C1165 0.929 . S
H1134 C1167 0.930 . S
H1135 C1168 0.930 . S
H1136 C1166 0.929 . S
H1137 C1169 0.928 . S
O1138 Co1122 2.057 . S
O1138 C1126 1.232 . S
H1139 C1158 0.929 . S
H1140 C1159 0.929 . S
H1141 C1171 0.931 . S
H1142 C1163 0.929 . S
H1143 C1172 0.930 . S
H1144 C1164 0.931 . S
O1145 Co1121 2.097 . S
O1145 C1173 1.214 . S
H1146 C1174 0.929 . S
H1147 C1175 0.929 . S
H1148 C1176 0.930 . S
H1149 C1177 0.929 . S
H1150 C1179 0.930 . S
H1151 C1156 0.930 . S
H1152 C1160 0.930 . S
O1153 Co1122 2.037 . S
O1153 C1173 1.234 . S
C1154 O1128 1.269 . S
C1154 O1129 1.257 . S
C1155 H1130 0.930 . S
C1155 C1158 1.388 . S
C1155 C1160 1.418 . S
C1156 H1151 0.930 . S
C1156 C1159 1.404 . S
C1156 C1160 1.353 . S
N1157 Co1122 2.145 . S
N1157 C1158 1.397 . S
N1157 C1159 1.334 . S
C1158 H1139 0.929 . S
C1158 C1155 1.388 . S
C1158 N1157 1.397 . S
C1159 H1140 0.929 . S
C1159 C1156 1.404 . S
C1159 N1157 1.334 . S
C1160 H1152 0.930 . S
C1160 C1155 1.418 . S
C1160 C1156 1.353 . S
C1161 H1131 0.930 . S
C1161 N1162 1.330 . S
C1161 C1163 1.446 . S
N1162 Co1121 2.151 . S
N1162 C1161 1.330 . S
N1162 C1166 1.418 . S
C1163 H1142 0.929 . S
C1163 C1161 1.446 . S
C1163 C1164 1.332 . S
C1164 H1144 0.931 . S
C1164 C1163 1.332 . S
C1164 C1165 1.267 . S
C1165 H1133 0.929 . S
C1165 C1164 1.267 . S
C1165 C1166 1.251 . S
C1166 H1136 0.929 . S
C1166 N1162 1.418 . S
C1166 C1165 1.251 . S
C1167 H1134 0.930 . S
C1167 C1169 1.406 . S
C1167 C1172 1.261 . S
C1168 H1135 0.930 . S
C1168 N1170 1.325 . S
C1168 C1171 1.357 . S
C1169 H1137 0.928 . S
C1169 C1167 1.406 . S
C1169 N1170 1.261 . S
N1170 Co1121 2.214 . S
N1170 C1168 1.325 . S
N1170 C1169 1.261 . S
C1171 H1141 0.931 . S
C1171 C1168 1.357 . S
C1171 C1172 1.312 . S
C1172 H1143 0.930 . S
C1172 C1167 1.261 . S
C1172 C1171 1.312 . S
C1173 O1145 1.214 . S
C1173 O1153 1.234 . S
C1174 H1146 0.929 . S
C1174 C1177 1.391 . S
C1174 C1179 1.391 . S
C1175 H1147 0.929 . S
C1175 C1176 1.390 . S
C1175 N1178 1.391 . S
C1176 H1148 0.930 . S
C1176 C1175 1.390 . S
C1176 C1177 1.392 . S
C1177 H1149 0.929 . S
C1177 C1174 1.391 . S
C1177 C1176 1.392 . S
N1178 Co1122 2.257 . S
N1178 C1175 1.391 . S
N1178 C1179 1.388 . S
C1179 H1150 0.930 . S
C1179 C1174 1.391 . S
C1179 N1178 1.388 . S
Co1180 O1182 2.143 . S
Co1180 O1188 2.074 . S
Co1180 O1191 2.093 . S
Co1180 O1204 2.097 . S
Co1180 N1221 2.151 . S
Co1180 N1229 2.214 . S
Co1181 O1182 2.160 . S
Co1181 O1187 2.058 . S
Co1181 O1197 2.057 . S
Co1181 O1212 2.037 . S
Co1181 N1216 2.145 . S
Co1181 N1237 2.257 . S
O1182 Co1180 2.143 . S
O1182 Co1181 2.160 . S
C1183 O1184 1.278 . S
C1183 O1191 1.224 . S
O1184 C1183 1.278 . S
C1185 O1186 1.245 . S
C1185 O1197 1.232 . S
O1186 C1185 1.245 . S
O1187 Co1181 2.058 . S
O1187 C1213 1.275 . S
O1188 Co1180 2.074 . S
O1188 C1213 1.274 . S
H1189 C1214 0.930 . S
H1190 C1220 0.930 . S
O1191 Co1180 2.093 . S
O1191 C1183 1.224 . S
H1192 C1224 0.929 . S
H1193 C1226 0.930 . S
H1194 C1227 0.930 . S
H1195 C1225 0.929 . S
H1196 C1228 0.928 . S
O1197 Co1181 2.057 . S
O1197 C1185 1.232 . S
H1198 C1217 0.929 . S
H1199 C1218 0.929 . S
H1200 C1230 0.931 . S
H1201 C1222 0.929 . S
H1202 C1231 0.930 . S
H1203 C1223 0.931 . S
O1204 Co1180 2.097 . S
O1204 C1232 1.214 . S
H1205 C1233 0.929 . S
H1206 C1234 0.929 . S
H1207 C1235 0.930 . S
H1208 C1236 0.929 . S
H1209 C1238 0.930 . S
H1210 C1215 0.930 . S
H1211 C1219 0.930 . S
O1212 Co1181 2.037 . S
O1212 C1232 1.234 . S
C1213 O1187 1.275 . S
C1213 O1188 1.274 . S
C1214 H1189 0.930 . S
C1214 C1217 1.388 . S
C1214 C1219 1.418 . S
C1215 H1210 0.930 . S
C1215 C1218 1.404 1_554 S
C1215 C1219 1.353 . S
N1216 Co1181 2.145 . S
N1216 C1217 1.397 1_556 S
N1216 C1218 1.334 . S
C1217 H1198 0.929 . S
C1217 C1214 1.388 . S
C1217 N1216 1.397 1_554 S
C1218 H1199 0.929 . S
C1218 C1215 1.404 1_556 S
C1218 N1216 1.334 . S
C1219 H1211 0.930 . S
C1219 C1214 1.418 . S
C1219 C1215 1.353 . S
C1220 H1190 0.930 . S
C1220 N1221 1.330 . S
C1220 C1222 1.446 . S
N1221 Co1180 2.151 . S
N1221 C1220 1.330 . S
N1221 C1225 1.418 . S
C1222 H1201 0.929 . S
C1222 C1220 1.446 . S
C1222 C1223 1.332 . S
C1223 H1203 0.931 . S
C1223 C1222 1.332 . S
C1223 C1224 1.267 . S
C1224 H1192 0.929 . S
C1224 C1223 1.267 . S
C1224 C1225 1.251 . S
C1225 H1195 0.929 . S
C1225 N1221 1.418 . S
C1225 C1224 1.251 . S
C1226 H1193 0.930 . S
C1226 C1228 1.406 . S
C1226 C1231 1.261 . S
C1227 H1194 0.930 . S
C1227 N1229 1.325 . S
C1227 C1230 1.357 . S
C1228 H1196 0.928 . S
C1228 C1226 1.406 . S
C1228 N1229 1.261 . S
N1229 Co1180 2.214 . S
N1229 C1227 1.325 . S
N1229 C1228 1.261 . S
C1230 H1200 0.931 . S
C1230 C1227 1.357 . S
C1230 C1231 1.312 . S
C1231 H1202 0.930 . S
C1231 C1226 1.261 . S
C1231 C1230 1.312 . S
C1232 O1204 1.214 . S
C1232 O1212 1.234 . S
C1233 H1205 0.929 . S
C1233 C1236 1.391 . S
C1233 C1238 1.391 . S
C1234 H1206 0.929 . S
C1234 C1235 1.390 . S
C1234 N1237 1.391 . S
C1235 H1207 0.930 . S
C1235 C1234 1.390 . S
C1235 C1236 1.392 . S
C1236 H1208 0.929 . S
C1236 C1233 1.391 . S
C1236 C1235 1.392 . S
N1237 Co1181 2.257 . S
N1237 C1234 1.391 . S
N1237 C1238 1.388 . S
C1238 H1209 0.930 . S
C1238 C1233 1.391 . S
C1238 N1237 1.388 . S
Co1239 O1241 2.143 . S
Co1239 O1247 2.074 . S
Co1239 O1250 2.093 . S
Co1239 O1263 2.097 . S
Co1239 N1280 2.151 . S
Co1239 N1288 2.214 . S
Co1240 O1241 2.160 . S
Co1240 O1246 2.058 . S
Co1240 O1256 2.057 . S
Co1240 O1271 2.037 . S
Co1240 N1275 2.145 . S
Co1240 N1296 2.257 . S
O1241 Co1239 2.143 . S
O1241 Co1240 2.160 . S
C1242 O1243 1.278 . S
C1242 O1250 1.224 . S
O1243 C1242 1.278 . S
C1244 O1245 1.245 . S
C1244 O1256 1.232 . S
O1245 C1244 1.245 . S
O1246 Co1240 2.058 . S
O1246 C1272 1.269 . S
O1247 Co1239 2.074 . S
O1247 C1272 1.257 . S
H1248 C1273 0.930 . S
H1249 C1279 0.930 . S
O1250 Co1239 2.093 . S
O1250 C1242 1.224 . S
H1251 C1283 0.929 . S
H1252 C1285 0.930 . S
H1253 C1286 0.930 . S
H1254 C1284 0.929 . S
H1255 C1287 0.928 . S
O1256 Co1240 2.057 . S
O1256 C1244 1.232 . S
H1257 C1276 0.929 . S
H1258 C1277 0.929 . S
H1259 C1289 0.931 . S
H1260 C1281 0.929 . S
H1261 C1290 0.930 . S
H1262 C1282 0.931 . S
O1263 Co1239 2.097 . S
O1263 C1291 1.214 . S
H1264 C1292 0.929 . S
H1265 C1293 0.929 . S
H1266 C1294 0.930 . S
H1267 C1295 0.929 . S
H1268 C1297 0.930 . S
H1269 C1274 0.930 . S
H1270 C1278 0.930 . S
O1271 Co1240 2.037 . S
O1271 C1291 1.234 . S
C1272 O1246 1.269 . S
C1272 O1247 1.257 . S
C1273 H1248 0.930 . S
C1273 C1276 1.388 . S
C1273 C1278 1.418 . S
C1274 H1269 0.930 . S
C1274 C1277 1.404 . S
C1274 C1278 1.353 . S
N1275 Co1240 2.145 . S
N1275 C1276 1.397 . S
N1275 C1277 1.334 . S
C1276 H1257 0.929 . S
C1276 C1273 1.388 . S
C1276 N1275 1.397 . S
C1277 H1258 0.929 . S
C1277 C1274 1.404 . S
C1277 N1275 1.334 . S
C1278 H1270 0.930 . S
C1278 C1273 1.418 . S
C1278 C1274 1.353 . S
C1279 H1249 0.930 . S
C1279 N1280 1.330 . S
C1279 C1281 1.446 . S
N1280 Co1239 2.151 . S
N1280 C1279 1.330 . S
N1280 C1284 1.418 . S
C1281 H1260 0.929 . S
C1281 C1279 1.446 . S
C1281 C1282 1.332 . S
C1282 H1262 0.931 . S
C1282 C1281 1.332 . S
C1282 C1283 1.267 . S
C1283 H1251 0.929 . S
C1283 C1282 1.267 . S
C1283 C1284 1.251 . S
C1284 H1254 0.929 . S
C1284 N1280 1.418 . S
C1284 C1283 1.251 . S
C1285 H1252 0.930 . S
C1285 C1287 1.406 . S
C1285 C1290 1.261 . S
C1286 H1253 0.930 . S
C1286 N1288 1.325 . S
C1286 C1289 1.357 . S
C1287 H1255 0.928 . S
C1287 C1285 1.406 . S
C1287 N1288 1.261 . S
N1288 Co1239 2.214 . S
N1288 C1286 1.325 . S
N1288 C1287 1.261 . S
C1289 H1259 0.931 . S
C1289 C1286 1.357 . S
C1289 C1290 1.312 . S
C1290 H1261 0.930 . S
C1290 C1285 1.261 . S
C1290 C1289 1.312 . S
C1291 O1263 1.214 . S
C1291 O1271 1.234 . S
C1292 H1264 0.929 . S
C1292 C1295 1.391 . S
C1292 C1297 1.391 . S
C1293 H1265 0.929 . S
C1293 C1294 1.390 . S
C1293 N1296 1.391 . S
C1294 H1266 0.930 . S
C1294 C1293 1.390 . S
C1294 C1295 1.392 . S
C1295 H1267 0.929 . S
C1295 C1292 1.391 . S
C1295 C1294 1.392 . S
N1296 Co1240 2.257 . S
N1296 C1293 1.391 . S
N1296 C1297 1.388 . S
C1297 H1268 0.930 . S
C1297 C1292 1.391 . S
C1297 N1296 1.388 . S
Co1298 O1300 2.143 . S
Co1298 O1306 2.074 . S
Co1298 O1309 2.093 1_655 S
Co1298 O1322 2.097 . S
Co1298 N1339 2.151 1_655 S
Co1298 N1347 2.214 1_655 S
Co1299 O1300 2.160 . S
Co1299 O1305 2.058 . S
Co1299 O1315 2.057 . S
Co1299 O1330 2.037 . S
Co1299 N1334 2.145 . S
Co1299 N1355 2.257 . S
O1300 Co1298 2.143 . S
O1300 Co1299 2.160 . S
C1301 O1302 1.278 . S
C1301 O1309 1.224 1_655 S
O1302 C1301 1.278 . S
C1303 O1304 1.245 . S
C1303 O1315 1.232 . S
O1304 C1303 1.245 . S
O1305 Co1299 2.058 . S
O1305 C1331 1.269 . S
O1306 Co1298 2.074 . S
O1306 C1331 1.257 . S
H1307 C1332 0.930 . S
H1308 C1338 0.930 1_655 S
O1309 Co1298 2.093 1_455 S
O1309 C1301 1.224 1_455 S
H1310 C1342 0.929 . S
H1311 C1344 0.930 . S
H1312 C1345 0.930 . S
H1313 C1343 0.929 . S
H1314 C1346 0.928 . S
O1315 Co1299 2.057 . S
O1315 C1303 1.232 . S
H1316 C1335 0.929 . S
H1317 C1336 0.929 . S
H1318 C1348 0.931 . S
H1319 C1340 0.929 . S
H1320 C1349 0.930 . S
H1321 C1341 0.931 . S
O1322 Co1298 2.097 . S
O1322 C1350 1.214 . S
H1323 C1351 0.929 . S
H1324 C1352 0.929 . S
H1325 C1353 0.930 . S
H1326 C1354 0.929 . S
H1327 C1356 0.930 . S
H1328 C1333 0.930 . S
H1329 C1337 0.930 . S
O1330 Co1299 2.037 . S
O1330 C1350 1.234 . S
C1331 O1305 1.269 . S
C1331 O1306 1.257 . S
C1332 H1307 0.930 . S
C1332 C1335 1.388 . S
C1332 C1337 1.418 . S
C1333 H1328 0.930 . S
C1333 C1336 1.404 . S
C1333 C1337 1.353 . S
N1334 Co1299 2.145 . S
N1334 C1335 1.397 . S
N1334 C1336 1.334 . S
C1335 H1316 0.929 . S
C1335 C1332 1.388 . S
C1335 N1334 1.397 . S
C1336 H1317 0.929 . S
C1336 C1333 1.404 . S
C1336 N1334 1.334 . S
C1337 H1329 0.930 . S
C1337 C1332 1.418 . S
C1337 C1333 1.353 . S
C1338 H1308 0.930 1_455 S
C1338 N1339 1.330 . S
C1338 C1340 1.446 . S
N1339 Co1298 2.151 1_455 S
N1339 C1338 1.330 . S
N1339 C1343 1.418 . S
C1340 H1319 0.929 . S
C1340 C1338 1.446 . S
C1340 C1341 1.332 . S
C1341 H1321 0.931 . S
C1341 C1340 1.332 . S
C1341 C1342 1.267 . S
C1342 H1310 0.929 . S
C1342 C1341 1.267 . S
C1342 C1343 1.251 . S
C1343 H1313 0.929 . S
C1343 N1339 1.418 . S
C1343 C1342 1.251 . S
C1344 H1311 0.930 . S
C1344 C1346 1.406 . S
C1344 C1349 1.261 . S
C1345 H1312 0.930 . S
C1345 N1347 1.325 . S
C1345 C1348 1.357 . S
C1346 H1314 0.928 . S
C1346 C1344 1.406 . S
C1346 N1347 1.261 . S
N1347 Co1298 2.214 1_455 S
N1347 C1345 1.325 . S
N1347 C1346 1.261 . S
C1348 H1318 0.931 . S
C1348 C1345 1.357 . S
C1348 C1349 1.312 . S
C1349 H1320 0.930 . S
C1349 C1344 1.261 . S
C1349 C1348 1.312 . S
C1350 O1322 1.214 . S
C1350 O1330 1.234 . S
C1351 H1323 0.929 . S
C1351 C1354 1.391 . S
C1351 C1356 1.391 . S
C1352 H1324 0.929 . S
C1352 C1353 1.390 . S
C1352 N1355 1.391 . S
C1353 H1325 0.930 . S
C1353 C1352 1.390 . S
C1353 C1354 1.392 . S
C1354 H1326 0.929 . S
C1354 C1351 1.391 . S
C1354 C1353 1.392 . S
N1355 Co1299 2.257 . S
N1355 C1352 1.391 . S
N1355 C1356 1.388 . S
C1356 H1327 0.930 . S
C1356 C1351 1.391 . S
C1356 N1355 1.388 . S
Co1357 O1359 2.143 . S
Co1357 O1365 2.074 . S
Co1357 O1368 2.093 . S
Co1357 O1381 2.097 . S
Co1357 N1398 2.151 . S
Co1357 N1406 2.214 . S
Co1358 O1359 2.160 . S
Co1358 O1364 2.058 . S
Co1358 O1374 2.057 . S
Co1358 O1389 2.037 . S
Co1358 N1393 2.145 . S
Co1358 N1414 2.257 . S
O1359 Co1357 2.143 . S
O1359 Co1358 2.160 . S
C1360 O1361 1.278 . S
C1360 O1368 1.224 . S
O1361 C1360 1.278 . S
C1362 O1363 1.245 . S
C1362 O1374 1.232 . S
O1363 C1362 1.245 . S
O1364 Co1358 2.058 . S
O1364 C1390 1.269 . S
O1365 Co1357 2.074 . S
O1365 C1390 1.257 . S
H1366 C1391 0.930 . S
H1367 C1397 0.930 . S
O1368 Co1357 2.093 . S
O1368 C1360 1.224 . S
H1369 C1401 0.929 . S
H1370 C1403 0.930 . S
H1371 C1404 0.930 . S
H1372 C1402 0.929 . S
H1373 C1405 0.928 . S
O1374 Co1358 2.057 . S
O1374 C1362 1.232 . S
H1375 C1394 0.929 . S
H1376 C1395 0.929 . S
H1377 C1407 0.931 . S
H1378 C1399 0.929 . S
H1379 C1408 0.930 . S
H1380 C1400 0.931 . S
O1381 Co1357 2.097 . S
O1381 C1409 1.214 . S
H1382 C1410 0.929 . S
H1383 C1411 0.929 . S
H1384 C1412 0.930 . S
H1385 C1413 0.929 . S
H1386 C1415 0.930 . S
H1387 C1392 0.930 . S
H1388 C1396 0.930 . S
O1389 Co1358 2.037 . S
O1389 C1409 1.234 . S
C1390 O1364 1.269 . S
C1390 O1365 1.257 . S
C1391 H1366 0.930 . S
C1391 C1394 1.388 . S
C1391 C1396 1.418 . S
C1392 H1387 0.930 . S
C1392 C1395 1.404 . S
C1392 C1396 1.353 . S
N1393 Co1358 2.145 . S
N1393 C1394 1.397 . S
N1393 C1395 1.334 . S
C1394 H1375 0.929 . S
C1394 C1391 1.388 . S
C1394 N1393 1.397 . S
C1395 H1376 0.929 . S
C1395 C1392 1.404 . S
C1395 N1393 1.334 . S
C1396 H1388 0.930 . S
C1396 C1391 1.418 . S
C1396 C1392 1.353 . S
C1397 H1367 0.930 . S
C1397 N1398 1.330 . S
C1397 C1399 1.446 . S
N1398 Co1357 2.151 . S
N1398 C1397 1.330 . S
N1398 C1402 1.418 . S
C1399 H1378 0.929 . S
C1399 C1397 1.446 . S
C1399 C1400 1.332 . S
C1400 H1380 0.931 . S
C1400 C1399 1.332 . S
C1400 C1401 1.267 . S
C1401 H1369 0.929 . S
C1401 C1400 1.267 . S
C1401 C1402 1.251 . S
C1402 H1372 0.929 . S
C1402 N1398 1.418 . S
C1402 C1401 1.251 . S
C1403 H1370 0.930 . S
C1403 C1405 1.406 . S
C1403 C1408 1.261 . S
C1404 H1371 0.930 . S
C1404 N1406 1.325 . S
C1404 C1407 1.357 . S
C1405 H1373 0.928 . S
C1405 C1403 1.406 . S
C1405 N1406 1.261 . S
N1406 Co1357 2.214 . S
N1406 C1404 1.325 . S
N1406 C1405 1.261 . S
C1407 H1377 0.931 . S
C1407 C1404 1.357 . S
C1407 C1408 1.312 . S
C1408 H1379 0.930 . S
C1408 C1403 1.261 . S
C1408 C1407 1.312 . S
C1409 O1381 1.214 . S
C1409 O1389 1.234 . S
C1410 H1382 0.929 . S
C1410 C1413 1.391 . S
C1410 C1415 1.391 . S
C1411 H1383 0.929 . S
C1411 C1412 1.390 . S
C1411 N1414 1.391 . S
C1412 H1384 0.930 . S
C1412 C1411 1.390 . S
C1412 C1413 1.392 . S
C1413 H1385 0.929 . S
C1413 C1410 1.391 . S
C1413 C1412 1.392 . S
N1414 Co1358 2.257 . S
N1414 C1411 1.391 . S
N1414 C1415 1.388 . S
C1415 H1386 0.930 . S
C1415 C1410 1.391 . S
C1415 N1414 1.388 . S
Co1416 O1418 2.143 . S
Co1416 O1424 2.074 . S
Co1416 O1427 2.093 . S
Co1416 O1440 2.097 . S
Co1416 N1457 2.151 . S
Co1416 N1465 2.214 . S
Co1417 O1418 2.160 . S
Co1417 O1423 2.058 . S
Co1417 O1433 2.057 . S
Co1417 O1448 2.037 . S
Co1417 N1452 2.145 . S
Co1417 N1473 2.257 . S
O1418 Co1416 2.143 . S
O1418 Co1417 2.160 . S
C1419 O1420 1.278 . S
C1419 O1427 1.224 . S
O1420 C1419 1.278 . S
C1421 O1422 1.245 . S
C1421 O1433 1.232 . S
O1422 C1421 1.245 . S
O1423 Co1417 2.058 . S
O1423 C1449 1.269 . S
O1424 Co1416 2.074 . S
O1424 C1449 1.257 . S
H1425 C1450 0.930 . S
H1426 C1456 0.930 . S
O1427 Co1416 2.093 . S
O1427 C1419 1.224 . S
H1428 C1460 0.929 . S
H1429 C1462 0.930 . S
H1430 C1463 0.930 . S
H1431 C1461 0.929 . S
H1432 C1464 0.928 . S
O1433 Co1417 2.057 . S
O1433 C1421 1.232 . S
H1434 C1453 0.929 . S
H1435 C1454 0.929 . S
H1436 C1466 0.931 . S
H1437 C1458 0.929 . S
H1438 C1467 0.930 . S
H1439 C1459 0.931 . S
O1440 Co1416 2.097 . S
O1440 C1468 1.214 . S
H1441 C1469 0.929 . S
H1442 C1470 0.929 . S
H1443 C1471 0.930 . S
H1444 C1472 0.929 . S
H1445 C1474 0.930 . S
H1446 C1451 0.930 . S
H1447 C1455 0.930 . S
O1448 Co1417 2.037 . S
O1448 C1468 1.234 . S
C1449 O1423 1.269 . S
C1449 O1424 1.257 . S
C1450 H1425 0.930 . S
C1450 C1453 1.388 . S
C1450 C1455 1.418 . S
C1451 H1446 0.930 . S
C1451 C1454 1.404 . S
C1451 C1455 1.353 . S
N1452 Co1417 2.145 . S
N1452 C1453 1.397 . S
N1452 C1454 1.334 . S
C1453 H1434 0.929 . S
C1453 C1450 1.388 . S
C1453 N1452 1.397 . S
C1454 H1435 0.929 . S
C1454 C1451 1.404 . S
C1454 N1452 1.334 . S
C1455 H1447 0.930 . S
C1455 C1450 1.418 . S
C1455 C1451 1.353 . S
C1456 H1426 0.930 . S
C1456 N1457 1.330 . S
C1456 C1458 1.446 . S
N1457 Co1416 2.151 . S
N1457 C1456 1.330 . S
N1457 C1461 1.418 . S
C1458 H1437 0.929 . S
C1458 C1456 1.446 . S
C1458 C1459 1.332 . S
C1459 H1439 0.931 . S
C1459 C1458 1.332 . S
C1459 C1460 1.267 . S
C1460 H1428 0.929 . S
C1460 C1459 1.267 . S
C1460 C1461 1.251 . S
C1461 H1431 0.929 . S
C1461 N1457 1.418 . S
C1461 C1460 1.251 . S
C1462 H1429 0.930 . S
C1462 C1464 1.406 . S
C1462 C1467 1.261 . S
C1463 H1430 0.930 . S
C1463 N1465 1.325 . S
C1463 C1466 1.357 . S
C1464 H1432 0.928 . S
C1464 C1462 1.406 . S
C1464 N1465 1.261 . S
N1465 Co1416 2.214 . S
N1465 C1463 1.325 . S
N1465 C1464 1.261 . S
C1466 H1436 0.931 . S
C1466 C1463 1.357 . S
C1466 C1467 1.312 . S
C1467 H1438 0.930 . S
C1467 C1462 1.261 . S
C1467 C1466 1.312 . S
C1468 O1440 1.214 . S
C1468 O1448 1.234 . S
C1469 H1441 0.929 . S
C1469 C1472 1.391 . S
C1469 C1474 1.391 . S
C1470 H1442 0.929 . S
C1470 C1471 1.390 . S
C1470 N1473 1.391 . S
C1471 H1443 0.930 . S
C1471 C1470 1.390 . S
C1471 C1472 1.392 . S
C1472 H1444 0.929 . S
C1472 C1469 1.391 . S
C1472 C1471 1.392 . S
N1473 Co1417 2.257 . S
N1473 C1470 1.391 . S
N1473 C1474 1.388 . S
C1474 H1445 0.930 . S
C1474 C1469 1.391 . S
C1474 N1473 1.388 . S
Co1475 O1477 2.143 . S
Co1475 O1483 2.074 . S
Co1475 O1486 2.093 . S
Co1475 O1499 2.097 . S
Co1475 N1516 2.151 . S
Co1475 N1524 2.214 . S
Co1476 O1477 2.160 . S
Co1476 O1482 2.058 . S
Co1476 O1492 2.057 . S
Co1476 O1507 2.037 . S
Co1476 N1511 2.145 . S
Co1476 N1532 2.257 . S
O1477 Co1475 2.143 . S
O1477 Co1476 2.160 . S
C1478 O1479 1.278 . S
C1478 O1486 1.224 . S
O1479 C1478 1.278 . S
C1480 O1481 1.245 . S
C1480 O1492 1.232 . S
O1481 C1480 1.245 . S
O1482 Co1476 2.058 . S
O1482 C1508 1.269 . S
O1483 Co1475 2.074 . S
O1483 C1508 1.257 . S
H1484 C1509 0.930 . S
H1485 C1515 0.930 . S
O1486 Co1475 2.093 . S
O1486 C1478 1.224 . S
H1487 C1519 0.929 . S
H1488 C1521 0.930 . S
H1489 C1522 0.930 . S
H1490 C1520 0.929 . S
H1491 C1523 0.928 . S
O1492 Co1476 2.057 . S
O1492 C1480 1.232 . S
H1493 C1512 0.929 . S
H1494 C1513 0.929 . S
H1495 C1525 0.931 . S
H1496 C1517 0.929 . S
H1497 C1526 0.930 . S
H1498 C1518 0.931 . S
O1499 Co1475 2.097 . S
O1499 C1527 1.214 . S
H1500 C1528 0.929 . S
H1501 C1529 0.929 . S
H1502 C1530 0.930 . S
H1503 C1531 0.929 . S
H1504 C1533 0.930 . S
H1505 C1510 0.930 . S
H1506 C1514 0.930 . S
O1507 Co1476 2.037 . S
O1507 C1527 1.234 . S
C1508 O1482 1.269 . S
C1508 O1483 1.257 . S
C1509 H1484 0.930 . S
C1509 C1512 1.388 . S
C1509 C1514 1.418 . S
C1510 H1505 0.930 . S
C1510 C1513 1.404 . S
C1510 C1514 1.353 . S
N1511 Co1476 2.145 . S
N1511 C1512 1.397 . S
N1511 C1513 1.334 . S
C1512 H1493 0.929 . S
C1512 C1509 1.388 . S
C1512 N1511 1.397 . S
C1513 H1494 0.929 . S
C1513 C1510 1.404 . S
C1513 N1511 1.334 . S
C1514 H1506 0.930 . S
C1514 C1509 1.418 . S
C1514 C1510 1.353 . S
C1515 H1485 0.930 . S
C1515 N1516 1.330 . S
C1515 C1517 1.446 . S
N1516 Co1475 2.151 . S
N1516 C1515 1.330 . S
N1516 C1520 1.418 . S
C1517 H1496 0.929 . S
C1517 C1515 1.446 . S
C1517 C1518 1.332 . S
C1518 H1498 0.931 . S
C1518 C1517 1.332 . S
C1518 C1519 1.267 . S
C1519 H1487 0.929 . S
C1519 C1518 1.267 . S
C1519 C1520 1.251 . S
C1520 H1490 0.929 . S
C1520 N1516 1.418 . S
C1520 C1519 1.251 . S
C1521 H1488 0.930 . S
C1521 C1523 1.406 . S
C1521 C1526 1.261 . S
C1522 H1489 0.930 . S
C1522 N1524 1.325 . S
C1522 C1525 1.357 . S
C1523 H1491 0.928 . S
C1523 C1521 1.406 . S
C1523 N1524 1.261 . S
N1524 Co1475 2.214 . S
N1524 C1522 1.325 . S
N1524 C1523 1.261 . S
C1525 H1495 0.931 . S
C1525 C1522 1.357 . S
C1525 C1526 1.312 . S
C1526 H1497 0.930 . S
C1526 C1521 1.261 . S
C1526 C1525 1.312 . S
C1527 O1499 1.214 . S
C1527 O1507 1.234 . S
C1528 H1500 0.929 . S
C1528 C1531 1.391 . S
C1528 C1533 1.391 . S
C1529 H1501 0.929 . S
C1529 C1530 1.390 . S
C1529 N1532 1.391 . S
C1530 H1502 0.930 . S
C1530 C1529 1.390 . S
C1530 C1531 1.392 . S
C1531 H1503 0.929 . S
C1531 C1528 1.391 . S
C1531 C1530 1.392 . S
N1532 Co1476 2.257 . S
N1532 C1529 1.391 . S
N1532 C1533 1.388 . S
C1533 H1504 0.930 . S
C1533 C1528 1.391 . S
C1533 N1532 1.388 . S
Co1534 O1536 2.143 . S
Co1534 O1542 2.074 . S
Co1534 O1545 2.093 1_455 S
Co1534 O1558 2.097 . S
Co1534 N1575 2.151 1_455 S
Co1534 N1583 2.214 1_455 S
Co1535 O1536 2.160 . S
Co1535 O1541 2.058 . S
Co1535 O1551 2.057 . S
Co1535 O1566 2.037 . S
Co1535 N1570 2.145 . S
Co1535 N1591 2.257 . S
O1536 Co1534 2.143 . S
O1536 Co1535 2.160 . S
C1537 O1538 1.278 . S
C1537 O1545 1.224 1_455 S
O1538 C1537 1.278 . S
C1539 O1540 1.245 . S
C1539 O1551 1.232 . S
O1540 C1539 1.245 . S
O1541 Co1535 2.058 . S
O1541 C1567 1.274 . S
O1542 Co1534 2.074 . S
O1542 C1567 1.274 . S
H1543 C1568 0.930 . S
H1544 C1574 0.930 1_455 S
O1545 Co1534 2.093 1_655 S
O1545 C1537 1.224 1_655 S
H1546 C1578 0.929 . S
H1547 C1580 0.930 . S
H1548 C1581 0.930 . S
H1549 C1579 0.929 . S
H1550 C1582 0.928 . S
O1551 Co1535 2.057 . S
O1551 C1539 1.232 . S
H1552 C1571 0.929 . S
H1553 C1572 0.929 . S
H1554 C1584 0.931 . S
H1555 C1576 0.929 . S
H1556 C1585 0.930 . S
H1557 C1577 0.931 . S
O1558 Co1534 2.097 . S
O1558 C1586 1.214 . S
H1559 C1587 0.929 . S
H1560 C1588 0.929 . S
H1561 C1589 0.930 . S
H1562 C1590 0.929 . S
H1563 C1592 0.930 . S
H1564 C1569 0.930 . S
H1565 C1573 0.930 . S
O1566 Co1535 2.037 . S
O1566 C1586 1.234 . S
C1567 O1541 1.274 . S
C1567 O1542 1.274 . S
C1568 H1543 0.930 . S
C1568 C1571 1.388 . S
C1568 C1573 1.418 . S
C1569 H1564 0.930 . S
C1569 C1572 1.404 1_554 S
C1569 C1573 1.353 . S
N1570 Co1535 2.145 . S
N1570 C1571 1.397 1_556 S
N1570 C1572 1.334 . S
C1571 H1552 0.929 . S
C1571 C1568 1.388 . S
C1571 N1570 1.397 1_554 S
C1572 H1553 0.929 . S
C1572 C1569 1.404 1_556 S
C1572 N1570 1.334 . S
C1573 H1565 0.930 . S
C1573 C1568 1.418 . S
C1573 C1569 1.353 . S
C1574 H1544 0.930 1_655 S
C1574 N1575 1.330 . S
C1574 C1576 1.446 . S
N1575 Co1534 2.151 1_655 S
N1575 C1574 1.330 . S
N1575 C1579 1.418 . S
C1576 H1555 0.929 . S
C1576 C1574 1.446 . S
C1576 C1577 1.332 . S
C1577 H1557 0.931 . S
C1577 C1576 1.332 . S
C1577 C1578 1.267 . S
C1578 H1546 0.929 . S
C1578 C1577 1.267 . S
C1578 C1579 1.251 . S
C1579 H1549 0.929 . S
C1579 N1575 1.418 . S
C1579 C1578 1.251 . S
C1580 H1547 0.930 . S
C1580 C1582 1.406 . S
C1580 C1585 1.261 . S
C1581 H1548 0.930 . S
C1581 N1583 1.325 . S
C1581 C1584 1.357 . S
C1582 H1550 0.928 . S
C1582 C1580 1.406 . S
C1582 N1583 1.261 . S
N1583 Co1534 2.214 1_655 S
N1583 C1581 1.325 . S
N1583 C1582 1.261 . S
C1584 H1554 0.931 . S
C1584 C1581 1.357 . S
C1584 C1585 1.312 . S
C1585 H1556 0.930 . S
C1585 C1580 1.261 . S
C1585 C1584 1.312 . S
C1586 O1558 1.214 . S
C1586 O1566 1.234 . S
C1587 H1559 0.929 . S
C1587 C1590 1.391 . S
C1587 C1592 1.391 . S
C1588 H1560 0.929 . S
C1588 C1589 1.390 . S
C1588 N1591 1.391 . S
C1589 H1561 0.930 . S
C1589 C1588 1.390 . S
C1589 C1590 1.392 . S
C1590 H1562 0.929 . S
C1590 C1587 1.391 . S
C1590 C1589 1.392 . S
N1591 Co1535 2.257 . S
N1591 C1588 1.391 . S
N1591 C1592 1.388 . S
C1592 H1563 0.930 . S
C1592 C1587 1.391 . S
C1592 N1591 1.388 . S
Co1593 O1595 2.143 . S
Co1593 O1601 2.074 . S
Co1593 O1604 2.093 . S
Co1593 O1617 2.097 . S
Co1593 N1634 2.151 . S
Co1593 N1642 2.214 . S
Co1594 O1595 2.160 . S
Co1594 O1600 2.058 . S
Co1594 O1610 2.057 . S
Co1594 O1625 2.037 . S
Co1594 N1629 2.145 . S
Co1594 N1650 2.257 . S
O1595 Co1593 2.143 . S
O1595 Co1594 2.160 . S
C1596 O1597 1.278 . S
C1596 O1604 1.224 . S
O1597 C1596 1.278 . S
C1598 O1599 1.245 . S
C1598 O1610 1.232 . S
O1599 C1598 1.245 . S
O1600 Co1594 2.058 . S
O1600 C1626 1.269 . S
O1601 Co1593 2.074 . S
O1601 C1626 1.257 . S
H1602 C1627 0.930 . S
H1603 C1633 0.930 . S
O1604 Co1593 2.093 . S
O1604 C1596 1.224 . S
H1605 C1637 0.929 . S
H1606 C1639 0.930 . S
H1607 C1640 0.930 . S
H1608 C1638 0.929 . S
H1609 C1641 0.928 . S
O1610 Co1594 2.057 . S
O1610 C1598 1.232 . S
H1611 C1630 0.929 . S
H1612 C1631 0.929 . S
H1613 C1643 0.931 . S
H1614 C1635 0.929 . S
H1615 C1644 0.930 . S
H1616 C1636 0.931 . S
O1617 Co1593 2.097 . S
O1617 C1645 1.214 . S
H1618 C1646 0.929 . S
H1619 C1647 0.929 . S
H1620 C1648 0.930 . S
H1621 C1649 0.929 . S
H1622 C1651 0.930 . S
H1623 C1628 0.930 . S
H1624 C1632 0.930 . S
O1625 Co1594 2.037 . S
O1625 C1645 1.234 . S
C1626 O1600 1.269 . S
C1626 O1601 1.257 . S
C1627 H1602 0.930 . S
C1627 C1630 1.388 . S
C1627 C1632 1.418 . S
C1628 H1623 0.930 . S
C1628 C1631 1.404 . S
C1628 C1632 1.353 . S
N1629 Co1594 2.145 . S
N1629 C1630 1.397 . S
N1629 C1631 1.334 . S
C1630 H1611 0.929 . S
C1630 C1627 1.388 . S
C1630 N1629 1.397 . S
C1631 H1612 0.929 . S
C1631 C1628 1.404 . S
C1631 N1629 1.334 . S
C1632 H1624 0.930 . S
C1632 C1627 1.418 . S
C1632 C1628 1.353 . S
C1633 H1603 0.930 . S
C1633 N1634 1.330 . S
C1633 C1635 1.446 . S
N1634 Co1593 2.151 . S
N1634 C1633 1.330 . S
N1634 C1638 1.418 . S
C1635 H1614 0.929 . S
C1635 C1633 1.446 . S
C1635 C1636 1.332 . S
C1636 H1616 0.931 . S
C1636 C1635 1.332 . S
C1636 C1637 1.267 . S
C1637 H1605 0.929 . S
C1637 C1636 1.267 . S
C1637 C1638 1.251 . S
C1638 H1608 0.929 . S
C1638 N1634 1.418 . S
C1638 C1637 1.251 . S
C1639 H1606 0.930 . S
C1639 C1641 1.406 . S
C1639 C1644 1.261 . S
C1640 H1607 0.930 . S
C1640 N1642 1.325 . S
C1640 C1643 1.357 . S
C1641 H1609 0.928 . S
C1641 C1639 1.406 . S
C1641 N1642 1.261 . S
N1642 Co1593 2.214 . S
N1642 C1640 1.325 . S
N1642 C1641 1.261 . S
C1643 H1613 0.931 . S
C1643 C1640 1.357 . S
C1643 C1644 1.312 . S
C1644 H1615 0.930 . S
C1644 C1639 1.261 . S
C1644 C1643 1.312 . S
C1645 O1617 1.214 . S
C1645 O1625 1.234 . S
C1646 H1618 0.929 . S
C1646 C1649 1.391 . S
C1646 C1651 1.391 . S
C1647 H1619 0.929 . S
C1647 C1648 1.390 . S
C1647 N1650 1.391 . S
C1648 H1620 0.930 . S
C1648 C1647 1.390 . S
C1648 C1649 1.392 . S
C1649 H1621 0.929 . S
C1649 C1646 1.391 . S
C1649 C1648 1.392 . S
N1650 Co1594 2.257 . S
N1650 C1647 1.391 . S
N1650 C1651 1.388 . S
C1651 H1622 0.930 . S
C1651 C1646 1.391 . S
C1651 N1650 1.388 . S
Co1652 O1654 2.143 . S
Co1652 O1660 2.074 . S
Co1652 O1663 2.093 . S
Co1652 O1676 2.097 . S
Co1652 N1693 2.151 . S
Co1652 N1701 2.214 . S
Co1653 O1654 2.160 . S
Co1653 O1659 2.058 . S
Co1653 O1669 2.057 . S
Co1653 O1684 2.037 . S
Co1653 N1688 2.145 . S
Co1653 N1709 2.257 . S
O1654 Co1652 2.143 . S
O1654 Co1653 2.160 . S
C1655 O1656 1.278 . S
C1655 O1663 1.224 . S
O1656 C1655 1.278 . S
C1657 O1658 1.245 . S
C1657 O1669 1.232 . S
O1658 C1657 1.245 . S
O1659 Co1653 2.058 . S
O1659 C1685 1.275 . S
O1660 Co1652 2.074 . S
O1660 C1685 1.274 . S
H1661 C1686 0.930 . S
H1662 C1692 0.930 . S
O1663 Co1652 2.093 . S
O1663 C1655 1.224 . S
H1664 C1696 0.929 . S
H1665 C1698 0.930 . S
H1666 C1699 0.930 . S
H1667 C1697 0.929 . S
H1668 C1700 0.928 . S
O1669 Co1653 2.057 . S
O1669 C1657 1.232 . S
H1670 C1689 0.929 . S
H1671 C1690 0.929 . S
H1672 C1702 0.931 . S
H1673 C1694 0.929 . S
H1674 C1703 0.930 . S
H1675 C1695 0.931 . S
O1676 Co1652 2.097 . S
O1676 C1704 1.214 . S
H1677 C1705 0.929 . S
H1678 C1706 0.929 . S
H1679 C1707 0.930 . S
H1680 C1708 0.929 . S
H1681 C1710 0.930 . S
H1682 C1687 0.930 . S
H1683 C1691 0.930 . S
O1684 Co1653 2.037 . S
O1684 C1704 1.234 . S
C1685 O1659 1.275 . S
C1685 O1660 1.274 . S
C1686 H1661 0.930 . S
C1686 C1689 1.388 . S
C1686 C1691 1.418 . S
C1687 H1682 0.930 . S
C1687 C1690 1.404 1_556 S
C1687 C1691 1.353 . S
N1688 Co1653 2.145 . S
N1688 C1689 1.397 1_554 S
N1688 C1690 1.334 . S
C1689 H1670 0.929 . S
C1689 C1686 1.388 . S
C1689 N1688 1.397 1_556 S
C1690 H1671 0.929 . S
C1690 C1687 1.404 1_554 S
C1690 N1688 1.334 . S
C1691 H1683 0.930 . S
C1691 C1686 1.418 . S
C1691 C1687 1.353 . S
C1692 H1662 0.930 . S
C1692 N1693 1.330 . S
C1692 C1694 1.446 . S
N1693 Co1652 2.151 . S
N1693 C1692 1.330 . S
N1693 C1697 1.418 . S
C1694 H1673 0.929 . S
C1694 C1692 1.446 . S
C1694 C1695 1.332 . S
C1695 H1675 0.931 . S
C1695 C1694 1.332 . S
C1695 C1696 1.267 . S
C1696 H1664 0.929 . S
C1696 C1695 1.267 . S
C1696 C1697 1.251 . S
C1697 H1667 0.929 . S
C1697 N1693 1.418 . S
C1697 C1696 1.251 . S
C1698 H1665 0.930 . S
C1698 C1700 1.406 . S
C1698 C1703 1.261 . S
C1699 H1666 0.930 . S
C1699 N1701 1.325 . S
C1699 C1702 1.357 . S
C1700 H1668 0.928 . S
C1700 C1698 1.406 . S
C1700 N1701 1.261 . S
N1701 Co1652 2.214 . S
N1701 C1699 1.325 . S
N1701 C1700 1.261 . S
C1702 H1672 0.931 . S
C1702 C1699 1.357 . S
C1702 C1703 1.312 . S
C1703 H1674 0.930 . S
C1703 C1698 1.261 . S
C1703 C1702 1.312 . S
C1704 O1676 1.214 . S
C1704 O1684 1.234 . S
C1705 H1677 0.929 . S
C1705 C1708 1.391 . S
C1705 C1710 1.391 . S
C1706 H1678 0.929 . S
C1706 C1707 1.390 . S
C1706 N1709 1.391 . S
C1707 H1679 0.930 . S
C1707 C1706 1.390 . S
C1707 C1708 1.392 . S
C1708 H1680 0.929 . S
C1708 C1705 1.391 . S
C1708 C1707 1.392 . S
N1709 Co1653 2.257 . S
N1709 C1706 1.391 . S
N1709 C1710 1.388 . S
C1710 H1681 0.930 . S
C1710 C1705 1.391 . S
C1710 N1709 1.388 . S
Co1711 O1713 2.143 . S
Co1711 O1719 2.074 . S
Co1711 O1722 2.093 . S
Co1711 O1735 2.097 . S
Co1711 N1752 2.151 . S
Co1711 N1760 2.214 . S
Co1712 O1713 2.160 . S
Co1712 O1718 2.058 . S
Co1712 O1728 2.057 . S
Co1712 O1743 2.037 . S
Co1712 N1747 2.145 . S
Co1712 N1768 2.257 . S
O1713 Co1711 2.143 . S
O1713 Co1712 2.160 . S
C1714 O1715 1.278 . S
C1714 O1722 1.224 . S
O1715 C1714 1.278 . S
C1716 O1717 1.245 . S
C1716 O1728 1.232 . S
O1717 C1716 1.245 . S
O1718 Co1712 2.058 . S
O1718 C1744 1.269 . S
O1719 Co1711 2.074 . S
O1719 C1744 1.257 . S
H1720 C1745 0.930 . S
H1721 C1751 0.930 . S
O1722 Co1711 2.093 . S
O1722 C1714 1.224 . S
H1723 C1755 0.929 . S
H1724 C1757 0.930 . S
H1725 C1758 0.930 . S
H1726 C1756 0.929 . S
H1727 C1759 0.928 . S
O1728 Co1712 2.057 . S
O1728 C1716 1.232 . S
H1729 C1748 0.929 . S
H1730 C1749 0.929 . S
H1731 C1761 0.931 . S
H1732 C1753 0.929 . S
H1733 C1762 0.930 . S
H1734 C1754 0.931 . S
O1735 Co1711 2.097 . S
O1735 C1763 1.214 . S
H1736 C1764 0.929 . S
H1737 C1765 0.929 . S
H1738 C1766 0.930 . S
H1739 C1767 0.929 . S
H1740 C1769 0.930 . S
H1741 C1746 0.930 . S
H1742 C1750 0.930 . S
O1743 Co1712 2.037 . S
O1743 C1763 1.234 . S
C1744 O1718 1.269 . S
C1744 O1719 1.257 . S
C1745 H1720 0.930 . S
C1745 C1748 1.388 . S
C1745 C1750 1.418 . S
C1746 H1741 0.930 . S
C1746 C1749 1.404 . S
C1746 C1750 1.353 . S
N1747 Co1712 2.145 . S
N1747 C1748 1.397 . S
N1747 C1749 1.334 . S
C1748 H1729 0.929 . S
C1748 C1745 1.388 . S
C1748 N1747 1.397 . S
C1749 H1730 0.929 . S
C1749 C1746 1.404 . S
C1749 N1747 1.334 . S
C1750 H1742 0.930 . S
C1750 C1745 1.418 . S
C1750 C1746 1.353 . S
C1751 H1721 0.930 . S
C1751 N1752 1.330 . S
C1751 C1753 1.446 . S
N1752 Co1711 2.151 . S
N1752 C1751 1.330 . S
N1752 C1756 1.418 . S
C1753 H1732 0.929 . S
C1753 C1751 1.446 . S
C1753 C1754 1.332 . S
C1754 H1734 0.931 . S
C1754 C1753 1.332 . S
C1754 C1755 1.267 . S
C1755 H1723 0.929 . S
C1755 C1754 1.267 . S
C1755 C1756 1.251 . S
C1756 H1726 0.929 . S
C1756 N1752 1.418 . S
C1756 C1755 1.251 . S
C1757 H1724 0.930 . S
C1757 C1759 1.406 . S
C1757 C1762 1.261 . S
C1758 H1725 0.930 . S
C1758 N1760 1.325 . S
C1758 C1761 1.357 . S
C1759 H1727 0.928 . S
C1759 C1757 1.406 . S
C1759 N1760 1.261 . S
N1760 Co1711 2.214 . S
N1760 C1758 1.325 . S
N1760 C1759 1.261 . S
C1761 H1731 0.931 . S
C1761 C1758 1.357 . S
C1761 C1762 1.312 . S
C1762 H1733 0.930 . S
C1762 C1757 1.261 . S
C1762 C1761 1.312 . S
C1763 O1735 1.214 . S
C1763 O1743 1.234 . S
C1764 H1736 0.929 . S
C1764 C1767 1.391 . S
C1764 C1769 1.391 . S
C1765 H1737 0.929 . S
C1765 C1766 1.390 . S
C1765 N1768 1.391 . S
C1766 H1738 0.930 . S
C1766 C1765 1.390 . S
C1766 C1767 1.392 . S
C1767 H1739 0.929 . S
C1767 C1764 1.391 . S
C1767 C1766 1.392 . S
N1768 Co1712 2.257 . S
N1768 C1765 1.391 . S
N1768 C1769 1.388 . S
C1769 H1740 0.930 . S
C1769 C1764 1.391 . S
C1769 N1768 1.388 . S
Co1770 O1772 2.143 . S
Co1770 O1778 2.074 . S
Co1770 O1781 2.093 1_455 S
Co1770 O1794 2.097 . S
Co1770 N1811 2.151 1_455 S
Co1770 N1819 2.214 1_455 S
Co1771 O1772 2.160 . S
Co1771 O1777 2.058 . S
Co1771 O1787 2.057 . S
Co1771 O1802 2.037 . S
Co1771 N1806 2.145 . S
Co1771 N1827 2.257 . S
O1772 Co1770 2.143 . S
O1772 Co1771 2.160 . S
C1773 O1774 1.278 . S
C1773 O1781 1.224 1_455 S
O1774 C1773 1.278 . S
C1775 O1776 1.245 . S
C1775 O1787 1.232 . S
O1776 C1775 1.245 . S
O1777 Co1771 2.058 . S
O1777 C1803 1.269 . S
O1778 Co1770 2.074 . S
O1778 C1803 1.257 . S
H1779 C1804 0.930 . S
H1780 C1810 0.930 1_455 S
O1781 Co1770 2.093 1_655 S
O1781 C1773 1.224 1_655 S
H1782 C1814 0.929 . S
H1783 C1816 0.930 . S
H1784 C1817 0.930 . S
H1785 C1815 0.929 . S
H1786 C1818 0.928 . S
O1787 Co1771 2.057 . S
O1787 C1775 1.232 . S
H1788 C1807 0.929 . S
H1789 C1808 0.929 . S
H1790 C1820 0.931 . S
H1791 C1812 0.929 . S
H1792 C1821 0.930 . S
H1793 C1813 0.931 . S
O1794 Co1770 2.097 . S
O1794 C1822 1.214 . S
H1795 C1823 0.929 . S
H1796 C1824 0.929 . S
H1797 C1825 0.930 . S
H1798 C1826 0.929 . S
H1799 C1828 0.930 . S
H1800 C1805 0.930 . S
H1801 C1809 0.930 . S
O1802 Co1771 2.037 . S
O1802 C1822 1.234 . S
C1803 O1777 1.269 . S
C1803 O1778 1.257 . S
C1804 H1779 0.930 . S
C1804 C1807 1.388 . S
C1804 C1809 1.418 . S
C1805 H1800 0.930 . S
C1805 C1808 1.404 . S
C1805 C1809 1.353 . S
N1806 Co1771 2.145 . S
N1806 C1807 1.397 . S
N1806 C1808 1.334 . S
C1807 H1788 0.929 . S
C1807 C1804 1.388 . S
C1807 N1806 1.397 . S
C1808 H1789 0.929 . S
C1808 C1805 1.404 . S
C1808 N1806 1.334 . S
C1809 H1801 0.930 . S
C1809 C1804 1.418 . S
C1809 C1805 1.353 . S
C1810 H1780 0.930 1_655 S
C1810 N1811 1.330 . S
C1810 C1812 1.446 . S
N1811 Co1770 2.151 1_655 S
N1811 C1810 1.330 . S
N1811 C1815 1.418 . S
C1812 H1791 0.929 . S
C1812 C1810 1.446 . S
C1812 C1813 1.332 . S
C1813 H1793 0.931 . S
C1813 C1812 1.332 . S
C1813 C1814 1.267 . S
C1814 H1782 0.929 . S
C1814 C1813 1.267 . S
C1814 C1815 1.251 . S
C1815 H1785 0.929 . S
C1815 N1811 1.418 . S
C1815 C1814 1.251 . S
C1816 H1783 0.930 . S
C1816 C1818 1.406 . S
C1816 C1821 1.261 . S
C1817 H1784 0.930 . S
C1817 N1819 1.325 . S
C1817 C1820 1.357 . S
C1818 H1786 0.928 . S
C1818 C1816 1.406 . S
C1818 N1819 1.261 . S
N1819 Co1770 2.214 1_655 S
N1819 C1817 1.325 . S
N1819 C1818 1.261 . S
C1820 H1790 0.931 . S
C1820 C1817 1.357 . S
C1820 C1821 1.312 . S
C1821 H1792 0.930 . S
C1821 C1816 1.261 . S
C1821 C1820 1.312 . S
C1822 O1794 1.214 . S
C1822 O1802 1.234 . S
C1823 H1795 0.929 . S
C1823 C1826 1.391 . S
C1823 C1828 1.391 . S
C1824 H1796 0.929 . S
C1824 C1825 1.390 . S
C1824 N1827 1.391 . S
C1825 H1797 0.930 . S
C1825 C1824 1.390 . S
C1825 C1826 1.392 . S
C1826 H1798 0.929 . S
C1826 C1823 1.391 . S
C1826 C1825 1.392 . S
N1827 Co1771 2.257 . S
N1827 C1824 1.391 . S
N1827 C1828 1.388 . S
C1828 H1799 0.930 . S
C1828 C1823 1.391 . S
C1828 N1827 1.388 . S
Co1829 O1831 2.143 . S
Co1829 O1837 2.074 . S
Co1829 O1840 2.093 . S
Co1829 O1853 2.097 . S
Co1829 N1870 2.151 . S
Co1829 N1878 2.214 . S
Co1830 O1831 2.160 . S
Co1830 O1836 2.058 . S
Co1830 O1846 2.057 . S
Co1830 O1861 2.037 . S
Co1830 N1865 2.145 . S
Co1830 N1886 2.257 . S
O1831 Co1829 2.143 . S
O1831 Co1830 2.160 . S
C1832 O1833 1.278 . S
C1832 O1840 1.224 . S
O1833 C1832 1.278 . S
C1834 O1835 1.245 . S
C1834 O1846 1.232 . S
O1835 C1834 1.245 . S
O1836 Co1830 2.058 . S
O1836 C1862 1.269 . S
O1837 Co1829 2.074 . S
O1837 C1862 1.257 . S
H1838 C1863 0.930 . S
H1839 C1869 0.930 . S
O1840 Co1829 2.093 . S
O1840 C1832 1.224 . S
H1841 C1873 0.929 . S
H1842 C1875 0.930 . S
H1843 C1876 0.930 . S
H1844 C1874 0.929 . S
H1845 C1877 0.928 . S
O1846 Co1830 2.057 . S
O1846 C1834 1.232 . S
H1847 C1866 0.929 . S
H1848 C1867 0.929 . S
H1849 C1879 0.931 . S
H1850 C1871 0.929 . S
H1851 C1880 0.930 . S
H1852 C1872 0.931 . S
O1853 Co1829 2.097 . S
O1853 C1881 1.214 . S
H1854 C1882 0.929 . S
H1855 C1883 0.929 . S
H1856 C1884 0.930 . S
H1857 C1885 0.929 . S
H1858 C1887 0.930 . S
H1859 C1864 0.930 . S
H1860 C1868 0.930 . S
O1861 Co1830 2.037 . S
O1861 C1881 1.234 . S
C1862 O1836 1.269 . S
C1862 O1837 1.257 . S
C1863 H1838 0.930 . S
C1863 C1866 1.388 . S
C1863 C1868 1.418 . S
C1864 H1859 0.930 . S
C1864 C1867 1.404 . S
C1864 C1868 1.353 . S
N1865 Co1830 2.145 . S
N1865 C1866 1.397 . S
N1865 C1867 1.334 . S
C1866 H1847 0.929 . S
C1866 C1863 1.388 . S
C1866 N1865 1.397 . S
C1867 H1848 0.929 . S
C1867 C1864 1.404 . S
C1867 N1865 1.334 . S
C1868 H1860 0.930 . S
C1868 C1863 1.418 . S
C1868 C1864 1.353 . S
C1869 H1839 0.930 . S
C1869 N1870 1.330 . S
C1869 C1871 1.446 . S
N1870 Co1829 2.151 . S
N1870 C1869 1.330 . S
N1870 C1874 1.418 . S
C1871 H1850 0.929 . S
C1871 C1869 1.446 . S
C1871 C1872 1.332 . S
C1872 H1852 0.931 . S
C1872 C1871 1.332 . S
C1872 C1873 1.267 . S
C1873 H1841 0.929 . S
C1873 C1872 1.267 . S
C1873 C1874 1.251 . S
C1874 H1844 0.929 . S
C1874 N1870 1.418 . S
C1874 C1873 1.251 . S
C1875 H1842 0.930 . S
C1875 C1877 1.406 . S
C1875 C1880 1.261 . S
C1876 H1843 0.930 . S
C1876 N1878 1.325 . S
C1876 C1879 1.357 . S
C1877 H1845 0.928 . S
C1877 C1875 1.406 . S
C1877 N1878 1.261 . S
N1878 Co1829 2.214 . S
N1878 C1876 1.325 . S
N1878 C1877 1.261 . S
C1879 H1849 0.931 . S
C1879 C1876 1.357 . S
C1879 C1880 1.312 . S
C1880 H1851 0.930 . S
C1880 C1875 1.261 . S
C1880 C1879 1.312 . S
C1881 O1853 1.214 . S
C1881 O1861 1.234 . S
C1882 H1854 0.929 . S
C1882 C1885 1.391 . S
C1882 C1887 1.391 . S
C1883 H1855 0.929 . S
C1883 C1884 1.390 . S
C1883 N1886 1.391 . S
C1884 H1856 0.930 . S
C1884 C1883 1.390 . S
C1884 C1885 1.392 . S
C1885 H1857 0.929 . S
C1885 C1882 1.391 . S
C1885 C1884 1.392 . S
N1886 Co1830 2.257 . S
N1886 C1883 1.391 . S
N1886 C1887 1.388 . S
C1887 H1858 0.930 . S
C1887 C1882 1.391 . S
C1887 N1886 1.388 . S
H1888 C1896 0.950 . S
H1889 C1901 0.946 1_455 S
H1890 C1898 0.950 . S
H1891 C1900 0.950 . S
H1892 C1902 0.950 . S
H1893 C1904 0.950 . S
H1894 C1906 0.941 1_655 S
H1895 C1907 0.950 . S
C1896 H1888 0.950 . S
C1896 C1897 1.386 . S
C1896 C1898 1.391 . S
C1897 C1896 1.386 . S
C1897 C1901 1.401 . S
C1898 H1890 0.950 . S
C1898 C1896 1.391 . S
C1898 C1899 1.380 1_655 S
C1899 C1898 1.380 1_455 S
C1899 C1900 1.406 . S
C1899 C1905 1.505 . S
C1900 H1891 0.950 . S
C1900 C1899 1.406 . S
C1900 C1901 1.386 1_455 S
C1901 H1889 0.946 1_655 S
C1901 C1897 1.401 . S
C1901 C1900 1.386 1_655 S
C1902 H1892 0.950 . S
C1902 C1903 1.386 . S
C1902 C1904 1.391 . S
C1903 C1902 1.386 . S
C1903 C1907 1.393 . S
C1904 H1893 0.950 . S
C1904 C1902 1.391 . S
C1904 C1905 1.400 . S
C1905 C1899 1.505 . S
C1905 C1904 1.400 . S
C1905 C1906 1.398 . S
C1906 H1894 0.941 1_455 S
C1906 C1905 1.398 . S
C1906 C1907 1.391 . S
C1907 H1895 0.950 . S
C1907 C1903 1.393 . S
C1907 C1906 1.391 . S
H1908 C1916 0.943 1_556 S
H1909 C1921 0.950 . S
H1910 C1918 0.950 . S
H1911 C1920 0.950 . S
H1912 C1922 0.950 . S
H1913 C1924 0.950 . S
H1914 C1926 0.950 . S
H1915 C1927 0.950 . S
C1916 H1908 0.943 1_554 S
C1916 C1917 1.386 1_554 S
C1916 C1918 1.391 . S
C1917 C1916 1.386 1_556 S
C1917 C1921 1.393 . S
C1918 H1910 0.950 . S
C1918 C1916 1.391 . S
C1918 C1919 1.400 . S
C1919 C1918 1.400 . S
C1919 C1920 1.398 . S
C1919 C1925 1.491 . S
C1920 H1911 0.950 . S
C1920 C1919 1.398 . S
C1920 C1921 1.391 1_554 S
C1921 H1909 0.950 . S
C1921 C1917 1.393 . S
C1921 C1920 1.391 1_556 S
C1922 H1912 0.950 . S
C1922 C1923 1.386 . S
C1922 C1924 1.391 . S
C1923 C1922 1.386 . S
C1923 C1927 1.393 . S
C1924 H1913 0.950 . S
C1924 C1922 1.391 . S
C1924 C1925 1.400 . S
C1925 C1919 1.491 . S
C1925 C1924 1.400 . S
C1925 C1926 1.398 . S
C1926 H1914 0.950 . S
C1926 C1925 1.398 . S
C1926 C1927 1.391 . S
C1927 H1915 0.950 . S
C1927 C1923 1.393 . S
C1927 C1926 1.391 . S
H1928 C1936 0.950 . S
H1929 C1941 0.950 . S
H1930 C1938 0.950 . S
H1931 C1940 0.950 . S
H1932 C1942 0.950 . S
H1933 C1944 0.950 . S
H1934 C1946 0.950 . S
H1935 C1947 0.950 . S
C1936 H1928 0.950 . S
C1936 C1937 1.386 . S
C1936 C1938 1.391 . S
C1937 C1936 1.386 . S
C1937 C1941 1.393 . S
C1938 H1930 0.950 . S
C1938 C1936 1.391 . S
C1938 C1939 1.400 . S
C1939 C1938 1.400 . S
C1939 C1940 1.398 . S
C1939 C1945 1.491 . S
C1940 H1931 0.950 . S
C1940 C1939 1.398 . S
C1940 C1941 1.391 . S
C1941 H1929 0.950 . S
C1941 C1937 1.393 . S
C1941 C1940 1.391 . S
C1942 H1932 0.950 . S
C1942 C1943 1.386 . S
C1942 C1944 1.391 . S
C1943 C1942 1.386 . S
C1943 C1947 1.393 . S
C1944 H1933 0.950 . S
C1944 C1942 1.391 . S
C1944 C1945 1.400 . S
C1945 C1939 1.491 . S
C1945 C1944 1.400 . S
C1945 C1946 1.398 . S
C1946 H1934 0.950 . S
C1946 C1945 1.398 . S
C1946 C1947 1.391 . S
C1947 H1935 0.950 . S
C1947 C1943 1.393 . S
C1947 C1946 1.391 . S
H1948 C1956 0.950 . S
H1949 C1961 0.950 . S
H1950 C1958 0.950 . S
H1951 C1960 0.950 . S
H1952 C1962 0.950 . S
H1953 C1964 0.950 . S
H1954 C1966 0.950 . S
H1955 C1967 0.950 . S
C1956 H1948 0.950 . S
C1956 C1957 1.386 . S
C1956 C1958 1.391 . S
C1957 C1956 1.386 . S
C1957 C1961 1.393 . S
C1958 H1950 0.950 . S
C1958 C1956 1.391 . S
C1958 C1959 1.400 . S
C1959 C1958 1.400 . S
C1959 C1960 1.398 . S
C1959 C1965 1.491 . S
C1960 H1951 0.950 . S
C1960 C1959 1.398 . S
C1960 C1961 1.391 . S
C1961 H1949 0.950 . S
C1961 C1957 1.393 . S
C1961 C1960 1.391 . S
C1962 H1952 0.950 . S
C1962 C1963 1.386 . S
C1962 C1964 1.391 . S
C1963 C1962 1.386 . S
C1963 C1967 1.393 . S
C1964 H1953 0.950 . S
C1964 C1962 1.391 . S
C1964 C1965 1.400 . S
C1965 C1959 1.491 . S
C1965 C1964 1.400 . S
C1965 C1966 1.398 . S
C1966 H1954 0.950 . S
C1966 C1965 1.398 . S
C1966 C1967 1.391 . S
C1967 H1955 0.950 . S
C1967 C1963 1.393 . S
C1967 C1966 1.391 . S
H1968 C1976 0.950 . S
H1969 C1981 0.950 . S
H1970 C1978 0.950 . S
H1971 C1980 0.950 . S
H1972 C1982 0.950 . S
H1973 C1984 0.950 . S
H1974 C1986 0.950 . S
H1975 C1987 0.950 . S
C1976 H1968 0.950 . S
C1976 C1977 1.386 . S
C1976 C1978 1.391 1_655 S
C1977 C1976 1.386 . S
C1977 C1981 1.393 . S
C1978 H1970 0.950 . S
C1978 C1976 1.391 1_455 S
C1978 C1979 1.403 . S
C1979 C1978 1.403 . S
C1979 C1980 1.384 1_455 S
C1979 C1985 1.505 . S
C1980 H1971 0.950 . S
C1980 C1979 1.384 1_655 S
C1980 C1981 1.391 . S
C1981 H1969 0.950 . S
C1981 C1977 1.393 . S
C1981 C1980 1.391 . S
C1982 H1972 0.950 . S
C1982 C1983 1.386 . S
C1982 C1984 1.391 . S
C1983 C1982 1.386 . S
C1983 C1987 1.393 . S
C1984 H1973 0.950 . S
C1984 C1982 1.391 . S
C1984 C1985 1.400 . S
C1985 C1979 1.505 . S
C1985 C1984 1.400 . S
C1985 C1986 1.398 . S
C1986 H1974 0.950 . S
C1986 C1985 1.398 . S
C1986 C1987 1.391 . S
C1987 H1975 0.950 . S
C1987 C1983 1.393 . S
C1987 C1986 1.391 . S
H1988 C1996 0.950 . S
H1989 C2001 0.950 . S
H1990 C1998 0.950 . S
H1991 C2000 0.950 . S
H1992 C2002 0.950 . S
H1993 C2004 0.950 . S
H1994 C2006 0.950 . S
H1995 C2007 0.950 . S
C1996 H1988 0.950 . S
C1996 C1997 1.386 . S
C1996 C1998 1.391 . S
C1997 C1996 1.386 . S
C1997 C2001 1.393 . S
C1998 H1990 0.950 . S
C1998 C1996 1.391 . S
C1998 C1999 1.400 . S
C1999 C1998 1.400 . S
C1999 C2000 1.398 . S
C1999 C2005 1.491 . S
C2000 H1991 0.950 . S
C2000 C1999 1.398 . S
C2000 C2001 1.391 . S
C2001 H1989 0.950 . S
C2001 C1997 1.393 . S
C2001 C2000 1.391 . S
C2002 H1992 0.950 . S
C2002 C2003 1.386 1_556 S
C2002 C2004 1.391 . S
C2003 C2002 1.386 1_554 S
C2003 C2007 1.393 . S
C2004 H1993 0.950 . S
C2004 C2002 1.391 . S
C2004 C2005 1.400 . S
C2005 C1999 1.491 . S
C2005 C2004 1.400 . S
C2005 C2006 1.398 . S
C2006 H1994 0.950 . S
C2006 C2005 1.398 . S
C2006 C2007 1.391 1_556 S
C2007 H1995 0.950 . S
C2007 C2003 1.393 . S
C2007 C2006 1.391 1_554 S
H2008 C2016 0.950 . S
H2009 C2021 0.950 . S
H2010 C2018 0.950 . S
H2011 C2020 0.950 . S
H2012 C2022 0.950 . S
H2013 C2024 0.950 . S
H2014 C2026 0.950 . S
H2015 C2027 0.950 . S
C2016 H2008 0.950 . S
C2016 C2017 1.386 . S
C2016 C2018 1.391 . S
C2017 C2016 1.386 . S
C2017 C2021 1.393 . S
C2018 H2010 0.950 . S
C2018 C2016 1.391 . S
C2018 C2019 1.400 . S
C2019 C2018 1.400 . S
C2019 C2020 1.398 . S
C2019 C2025 1.491 . S
C2020 H2011 0.950 . S
C2020 C2019 1.398 . S
C2020 C2021 1.391 . S
C2021 H2009 0.950 . S
C2021 C2017 1.393 . S
C2021 C2020 1.391 . S
C2022 H2012 0.950 . S
C2022 C2023 1.386 . S
C2022 C2024 1.391 . S
C2023 C2022 1.386 . S
C2023 C2027 1.393 . S
C2024 H2013 0.950 . S
C2024 C2022 1.391 . S
C2024 C2025 1.400 . S
C2025 C2019 1.491 . S
C2025 C2024 1.400 . S
C2025 C2026 1.398 . S
C2026 H2014 0.950 . S
C2026 C2025 1.398 . S
C2026 C2027 1.391 . S
C2027 H2015 0.950 . S
C2027 C2023 1.393 . S
C2027 C2026 1.391 . S
H2028 C2036 0.950 . S
H2029 C2041 0.950 . S
H2030 C2038 0.950 . S
H2031 C2040 0.950 . S
H2032 C2042 0.950 . S
H2033 C2044 0.950 . S
H2034 C2046 0.950 . S
H2035 C2047 0.950 . S
C2036 H2028 0.950 . S
C2036 C2037 1.386 . S
C2036 C2038 1.391 . S
C2037 C2036 1.386 . S
C2037 C2041 1.393 . S
C2038 H2030 0.950 . S
C2038 C2036 1.391 . S
C2038 C2039 1.400 . S
C2039 C2038 1.400 . S
C2039 C2040 1.398 . S
C2039 C2045 1.491 . S
C2040 H2031 0.950 . S
C2040 C2039 1.398 . S
C2040 C2041 1.391 . S
C2041 H2029 0.950 . S
C2041 C2037 1.393 . S
C2041 C2040 1.391 . S
C2042 H2032 0.950 . S
C2042 C2043 1.386 . S
C2042 C2044 1.391 . S
C2043 C2042 1.386 . S
C2043 C2047 1.393 . S
C2044 H2033 0.950 . S
C2044 C2042 1.391 . S
C2044 C2045 1.400 . S
C2045 C2039 1.491 . S
C2045 C2044 1.400 . S
C2045 C2046 1.398 . S
C2046 H2034 0.950 . S
C2046 C2045 1.398 . S
C2046 C2047 1.391 . S
C2047 H2035 0.950 . S
C2047 C2043 1.393 . S
C2047 C2046 1.391 . S
H2048 C2056 0.950 . S
H2049 C2061 0.950 . S
H2050 C2058 0.950 . S
H2051 C2060 0.950 . S
H2052 C2062 0.950 . S
H2053 C2064 0.950 . S
H2054 C2066 0.950 . S
H2055 C2067 0.950 . S
C2056 H2048 0.950 . S
C2056 C2057 1.386 1_655 S
C2056 C2058 1.391 . S
C2057 C2056 1.386 1_455 S
C2057 C2061 1.393 . S
C2058 H2050 0.950 . S
C2058 C2056 1.391 . S
C2058 C2059 1.400 . S
C2059 C2058 1.400 . S
C2059 C2060 1.398 1_655 S
C2059 C2065 1.491 . S
C2060 H2051 0.950 . S
C2060 C2059 1.398 1_455 S
C2060 C2061 1.391 . S
C2061 H2049 0.950 . S
C2061 C2057 1.393 . S
C2061 C2060 1.391 . S
C2062 H2052 0.950 . S
C2062 C2063 1.386 1_455 S
C2062 C2064 1.391 . S
C2063 C2062 1.386 1_655 S
C2063 C2067 1.393 . S
C2064 H2053 0.950 . S
C2064 C2062 1.391 . S
C2064 C2065 1.400 1_455 S
C2065 C2059 1.491 . S
C2065 C2064 1.400 1_655 S
C2065 C2066 1.398 . S
C2066 H2054 0.950 . S
C2066 C2065 1.398 . S
C2066 C2067 1.391 . S
C2067 H2055 0.950 . S
C2067 C2063 1.393 . S
C2067 C2066 1.391 . S
H2068 C2076 0.950 1_554 S
H2069 C2081 0.943 1_554 S
H2070 C2078 0.950 . S
H2071 C2080 0.950 . S
H2072 C2082 0.950 . S
H2073 C2084 0.950 . S
H2074 C2086 0.950 . S
H2075 C2087 0.950 . S
C2076 H2068 0.950 1_556 S
C2076 C2077 1.386 1_556 S
C2076 C2078 1.391 . S
C2077 C2076 1.386 1_554 S
C2077 C2081 1.388 1_554 S
C2078 H2070 0.950 . S
C2078 C2076 1.391 . S
C2078 C2079 1.400 . S
C2079 C2078 1.400 . S
C2079 C2080 1.398 . S
C2079 C2085 1.491 . S
C2080 H2071 0.950 . S
C2080 C2079 1.398 . S
C2080 C2081 1.403 . S
C2081 H2069 0.943 1_556 S
C2081 C2077 1.388 1_556 S
C2081 C2080 1.403 . S
C2082 H2072 0.950 . S
C2082 C2083 1.386 . S
C2082 C2084 1.391 . S
C2083 C2082 1.386 . S
C2083 C2087 1.393 . S
C2084 H2073 0.950 . S
C2084 C2082 1.391 . S
C2084 C2085 1.400 . S
C2085 C2079 1.491 . S
C2085 C2084 1.400 . S
C2085 C2086 1.398 . S
C2086 H2074 0.950 . S
C2086 C2085 1.398 . S
C2086 C2087 1.391 . S
C2087 H2075 0.950 . S
C2087 C2083 1.393 . S
C2087 C2086 1.391 . S
H2088 C2096 0.950 . S
H2089 C2101 0.950 . S
H2090 C2098 0.950 . S
H2091 C2100 0.950 . S
H2092 C2102 0.950 . S
H2093 C2104 0.950 . S
H2094 C2106 0.950 . S
H2095 C2107 0.950 . S
C2096 H2088 0.950 . S
C2096 C2097 1.386 . S
C2096 C2098 1.391 . S
C2097 C2096 1.386 . S
C2097 C2101 1.393 . S
C2098 H2090 0.950 . S
C2098 C2096 1.391 . S
C2098 C2099 1.400 . S
C2099 C2098 1.400 . S
C2099 C2100 1.398 . S
C2099 C2105 1.491 . S
C2100 H2091 0.950 . S
C2100 C2099 1.398 . S
C2100 C2101 1.391 . S
C2101 H2089 0.950 . S
C2101 C2097 1.393 . S
C2101 C2100 1.391 . S
C2102 H2092 0.950 . S
C2102 C2103 1.386 . S
C2102 C2104 1.391 . S
C2103 C2102 1.386 . S
C2103 C2107 1.393 . S
C2104 H2093 0.950 . S
C2104 C2102 1.391 . S
C2104 C2105 1.400 . S
C2105 C2099 1.491 . S
C2105 C2104 1.400 . S
C2105 C2106 1.398 . S
C2106 H2094 0.950 . S
C2106 C2105 1.398 . S
C2106 C2107 1.391 . S
C2107 H2095 0.950 . S
C2107 C2103 1.393 . S
C2107 C2106 1.391 . S
H2108 C2116 0.950 . S
H2109 C2121 0.950 . S
H2110 C2118 0.950 . S
H2111 C2120 0.950 . S
H2112 C2122 0.950 . S
H2113 C2124 0.950 . S
H2114 C2126 0.950 . S
H2115 C2127 0.950 . S
C2116 H2108 0.950 . S
C2116 C2117 1.386 . S
C2116 C2118 1.391 . S
C2117 C2116 1.386 . S
C2117 C2121 1.393 . S
C2118 H2110 0.950 . S
C2118 C2116 1.391 . S
C2118 C2119 1.400 . S
C2119 C2118 1.400 . S
C2119 C2120 1.398 . S
C2119 C2125 1.491 . S
C2120 H2111 0.950 . S
C2120 C2119 1.398 . S
C2120 C2121 1.391 . S
C2121 H2109 0.950 . S
C2121 C2117 1.393 . S
C2121 C2120 1.391 . S
C2122 H2112 0.950 . S
C2122 C2123 1.386 . S
C2122 C2124 1.391 . S
C2123 C2122 1.386 . S
C2123 C2127 1.393 . S
C2124 H2113 0.950 . S
C2124 C2122 1.391 . S
C2124 C2125 1.400 . S
C2125 C2119 1.491 . S
C2125 C2124 1.400 . S
C2125 C2126 1.398 . S
C2126 H2114 0.950 . S
C2126 C2125 1.398 . S
C2126 C2127 1.391 . S
C2127 H2115 0.950 . S
C2127 C2123 1.393 . S
C2127 C2126 1.391 . S
H2128 C2136 0.950 . S
H2129 C2141 0.950 1_455 S
H2130 C2138 0.950 . S
H2131 C2140 0.950 . S
H2132 C2142 0.950 . S
H2133 C2144 0.950 . S
H2134 C2146 0.950 . S
H2135 C2147 0.950 . S
C2136 H2128 0.950 . S
C2136 C2137 1.386 . S
C2136 C2138 1.391 . S
C2137 C2136 1.386 . S
C2137 C2141 1.393 . S
C2138 H2130 0.950 . S
C2138 C2136 1.391 . S
C2138 C2139 1.400 . S
C2139 C2138 1.400 . S
C2139 C2140 1.398 1_655 S
C2139 C2145 1.507 . S
C2140 H2131 0.950 . S
C2140 C2139 1.398 1_455 S
C2140 C2141 1.391 1_455 S
C2141 H2129 0.950 1_655 S
C2141 C2137 1.393 . S
C2141 C2140 1.391 1_655 S
C2142 H2132 0.950 . S
C2142 C2143 1.386 . S
C2142 C2144 1.391 . S
C2143 C2142 1.386 . S
C2143 C2147 1.393 1_455 S
C2144 H2133 0.950 . S
C2144 C2142 1.391 . S
C2144 C2145 1.361 1_455 S
C2145 C2139 1.507 . S
C2145 C2144 1.361 1_655 S
C2145 C2146 1.425 . S
C2146 H2134 0.950 . S
C2146 C2145 1.425 . S
C2146 C2147 1.391 . S
C2147 H2135 0.950 . S
C2147 C2143 1.393 1_655 S
C2147 C2146 1.391 . S
H2148 C2156 0.950 . S
H2149 C2161 0.950 . S
H2150 C2158 0.950 . S
H2151 C2160 0.950 . S
H2152 C2162 0.943 1_556 S
H2153 C2164 0.950 . S
H2154 C2166 0.950 . S
H2155 C2167 0.950 . S
C2156 H2148 0.950 . S
C2156 C2157 1.386 . S
C2156 C2158 1.391 . S
C2157 C2156 1.386 . S
C2157 C2161 1.393 . S
C2158 H2150 0.950 . S
C2158 C2156 1.391 . S
C2158 C2159 1.400 . S
C2159 C2158 1.400 . S
C2159 C2160 1.398 . S
C2159 C2165 1.491 . S
C2160 H2151 0.950 . S
C2160 C2159 1.398 . S
C2160 C2161 1.391 . S
C2161 H2149 0.950 . S
C2161 C2157 1.393 . S
C2161 C2160 1.391 . S
C2162 H2152 0.943 1_554 S
C2162 C2163 1.386 1_554 S
C2162 C2164 1.391 . S
C2163 C2162 1.386 1_556 S
C2163 C2167 1.393 . S
C2164 H2153 0.950 . S
C2164 C2162 1.391 . S
C2164 C2165 1.400 . S
C2165 C2159 1.491 . S
C2165 C2164 1.400 . S
C2165 C2166 1.398 . S
C2166 H2154 0.950 . S
C2166 C2165 1.398 . S
C2166 C2167 1.391 1_554 S
C2167 H2155 0.950 . S
C2167 C2163 1.393 . S
C2167 C2166 1.391 1_556 S
H2168 C2176 0.950 . S
H2169 C2181 0.950 . S
H2170 C2178 0.950 . S
H2171 C2180 0.950 . S
H2172 C2182 0.950 . S
H2173 C2184 0.950 . S
H2174 C2186 0.950 . S
H2175 C2187 0.950 . S
C2176 H2168 0.950 . S
C2176 C2177 1.386 . S
C2176 C2178 1.391 . S
C2177 C2176 1.386 . S
C2177 C2181 1.393 . S
C2178 H2170 0.950 . S
C2178 C2176 1.391 . S
C2178 C2179 1.400 . S
C2179 C2178 1.400 . S
C2179 C2180 1.398 . S
C2179 C2185 1.491 . S
C2180 H2171 0.950 . S
C2180 C2179 1.398 . S
C2180 C2181 1.391 . S
C2181 H2169 0.950 . S
C2181 C2177 1.393 . S
C2181 C2180 1.391 . S
C2182 H2172 0.950 . S
C2182 C2183 1.386 . S
C2182 C2184 1.391 . S
C2183 C2182 1.386 . S
C2183 C2187 1.393 . S
C2184 H2173 0.950 . S
C2184 C2182 1.391 . S
C2184 C2185 1.400 . S
C2185 C2179 1.491 . S
C2185 C2184 1.400 . S
C2185 C2186 1.398 . S
C2186 H2174 0.950 . S
C2186 C2185 1.398 . S
C2186 C2187 1.391 . S
C2187 H2175 0.950 . S
C2187 C2183 1.393 . S
C2187 C2186 1.391 . S
H2188 C2196 0.950 . S
H2189 C2201 0.950 . S
H2190 C2198 0.950 . S
H2191 C2200 0.950 . S
H2192 C2202 0.950 . S
H2193 C2204 0.950 . S
H2194 C2206 0.950 . S
H2195 C2207 0.950 . S
C2196 H2188 0.950 . S
C2196 C2197 1.386 . S
C2196 C2198 1.391 . S
C2197 C2196 1.386 . S
C2197 C2201 1.393 . S
C2198 H2190 0.950 . S
C2198 C2196 1.391 . S
C2198 C2199 1.400 . S
C2199 C2198 1.400 . S
C2199 C2200 1.398 . S
C2199 C2205 1.491 . S
C2200 H2191 0.950 . S
C2200 C2199 1.398 . S
C2200 C2201 1.391 . S
C2201 H2189 0.950 . S
C2201 C2197 1.393 . S
C2201 C2200 1.391 . S
C2202 H2192 0.950 . S
C2202 C2203 1.386 . S
C2202 C2204 1.391 . S
C2203 C2202 1.386 . S
C2203 C2207 1.393 . S
C2204 H2193 0.950 . S
C2204 C2202 1.391 . S
C2204 C2205 1.400 . S
C2205 C2199 1.491 . S
C2205 C2204 1.400 . S
C2205 C2206 1.398 . S
C2206 H2194 0.950 . S
C2206 C2205 1.398 . S
C2206 C2207 1.391 . S
C2207 H2195 0.950 . S
C2207 C2203 1.393 . S
C2207 C2206 1.391 . S
H2208 C2216 0.950 . S
H2209 C2221 0.950 . S
H2210 C2218 0.950 . S
H2211 C2220 0.950 . S
H2212 C2222 0.950 . S
H2213 C2224 0.950 . S
H2214 C2226 0.950 . S
H2215 C2227 0.950 . S
C2216 H2208 0.950 . S
C2216 C2217 1.386 . S
C2216 C2218 1.391 . S
C2217 C2216 1.386 . S
C2217 C2221 1.393 . S
C2218 H2210 0.950 . S
C2218 C2216 1.391 . S
C2218 C2219 1.400 . S
C2219 C2218 1.400 . S
C2219 C2220 1.398 . S
C2219 C2225 1.491 . S
C2220 H2211 0.950 . S
C2220 C2219 1.398 . S
C2220 C2221 1.391 . S
C2221 H2209 0.950 . S
C2221 C2217 1.393 . S
C2221 C2220 1.391 . S
C2222 H2212 0.950 . S
C2222 C2223 1.386 . S
C2222 C2224 1.391 . S
C2223 C2222 1.386 . S
C2223 C2227 1.393 . S
C2224 H2213 0.950 . S
C2224 C2222 1.391 . S
C2224 C2225 1.400 . S
C2225 C2219 1.491 . S
C2225 C2224 1.400 . S
C2225 C2226 1.398 . S
C2226 H2214 0.950 . S
C2226 C2225 1.398 . S
C2226 C2227 1.391 . S
C2227 H2215 0.950 . S
C2227 C2223 1.393 . S
C2227 C2226 1.391 . S
H2228 C2236 0.950 . S
H2229 C2241 0.950 . S
H2230 C2238 0.950 . S
H2231 C2240 0.950 . S
H2232 C2242 0.950 . S
H2233 C2244 0.950 . S
H2234 C2246 0.950 . S
H2235 C2247 0.950 . S
C2236 H2228 0.950 . S
C2236 C2237 1.386 . S
C2236 C2238 1.391 . S
C2237 C2236 1.386 . S
C2237 C2241 1.393 . S
C2238 H2230 0.950 . S
C2238 C2236 1.391 . S
C2238 C2239 1.400 . S
C2239 C2238 1.400 . S
C2239 C2240 1.398 . S
C2239 C2245 1.491 . S
C2240 H2231 0.950 . S
C2240 C2239 1.398 . S
C2240 C2241 1.391 . S
C2241 H2229 0.950 . S
C2241 C2237 1.393 . S
C2241 C2240 1.391 . S
C2242 H2232 0.950 . S
C2242 C2243 1.386 . S
C2242 C2244 1.391 . S
C2243 C2242 1.386 . S
C2243 C2247 1.393 . S
C2244 H2233 0.950 . S
C2244 C2242 1.391 . S
C2244 C2245 1.400 . S
C2245 C2239 1.491 . S
C2245 C2244 1.400 . S
C2245 C2246 1.398 . S
C2246 H2234 0.950 . S
C2246 C2245 1.398 . S
C2246 C2247 1.391 . S
C2247 H2235 0.950 . S
C2247 C2243 1.393 . S
C2247 C2246 1.391 . S
H2248 C2256 0.950 . S
H2249 C2261 0.950 1_655 S
H2250 C2258 0.950 . S
H2251 C2260 0.950 . S
H2252 C2262 0.950 . S
H2253 C2264 0.950 . S
H2254 C2266 0.967 . S
H2255 C2267 0.950 . S
C2256 H2248 0.950 . S
C2256 C2257 1.386 . S
C2256 C2258 1.391 . S
C2257 C2256 1.386 . S
C2257 C2261 1.393 . S
C2258 H2250 0.950 . S
C2258 C2256 1.391 . S
C2258 C2259 1.383 1_455 S
C2259 C2258 1.383 1_655 S
C2259 C2260 1.404 . S
C2259 C2265 1.505 . S
C2260 H2251 0.950 . S
C2260 C2259 1.404 . S
C2260 C2261 1.391 1_655 S
C2261 H2249 0.950 1_455 S
C2261 C2257 1.393 . S
C2261 C2260 1.391 1_455 S
C2262 H2252 0.950 . S
C2262 C2263 1.386 . S
C2262 C2264 1.391 . S
C2263 C2262 1.386 . S
C2263 C2267 1.393 . S
C2264 H2253 0.950 . S
C2264 C2262 1.391 . S
C2264 C2265 1.400 . S
C2265 C2259 1.505 . S
C2265 C2264 1.400 . S
C2265 C2266 1.398 . S
C2266 H2254 0.967 . S
C2266 C2265 1.398 . S
C2266 C2267 1.391 . S
C2267 H2255 0.950 . S
C2267 C2263 1.393 . S
C2267 C2266 1.391 . S
H2268 C2276 0.950 . S
H2269 C2281 0.950 . S
H2270 C2278 0.950 . S
H2271 C2280 0.950 . S
H2272 C2282 0.950 1_556 S
H2273 C2284 0.950 . S
H2274 C2286 0.950 . S
H2275 C2287 0.951 . S
C2276 H2268 0.950 . S
C2276 C2277 1.386 . S
C2276 C2278 1.391 . S
C2277 C2276 1.386 . S
C2277 C2281 1.393 . S
C2278 H2270 0.950 . S
C2278 C2276 1.391 . S
C2278 C2279 1.400 . S
C2279 C2278 1.400 . S
C2279 C2280 1.398 . S
C2279 C2285 1.491 . S
C2280 H2271 0.950 . S
C2280 C2279 1.398 . S
C2280 C2281 1.391 . S
C2281 H2269 0.950 . S
C2281 C2277 1.393 . S
C2281 C2280 1.391 . S
C2282 H2272 0.950 1_554 S
C2282 C2283 1.386 1_554 S
C2282 C2284 1.391 . S
C2283 C2282 1.386 1_556 S
C2283 C2287 1.394 . S
C2284 H2273 0.950 . S
C2284 C2282 1.391 . S
C2284 C2285 1.400 . S
C2285 C2279 1.491 . S
C2285 C2284 1.400 . S
C2285 C2286 1.398 . S
C2286 H2274 0.950 . S
C2286 C2285 1.398 . S
C2286 C2287 1.388 1_554 S
C2287 H2275 0.951 . S
C2287 C2283 1.394 . S
C2287 C2286 1.388 1_556 S
H2288 C2296 0.950 . S
H2289 C2301 0.950 . S
H2290 C2298 0.950 . S
H2291 C2300 0.950 . S
H2292 C2302 0.950 . S
H2293 C2304 0.950 . S
H2294 C2306 0.950 . S
H2295 C2307 0.950 . S
C2296 H2288 0.950 . S
C2296 C2297 1.386 . S
C2296 C2298 1.391 . S
C2297 C2296 1.386 . S
C2297 C2301 1.393 . S
C2298 H2290 0.950 . S
C2298 C2296 1.391 . S
C2298 C2299 1.400 . S
C2299 C2298 1.400 . S
C2299 C2300 1.398 . S
C2299 C2305 1.491 . S
C2300 H2291 0.950 . S
C2300 C2299 1.398 . S
C2300 C2301 1.391 . S
C2301 H2289 0.950 . S
C2301 C2297 1.393 . S
C2301 C2300 1.391 . S
C2302 H2292 0.950 . S
C2302 C2303 1.386 . S
C2302 C2304 1.391 . S
C2303 C2302 1.386 . S
C2303 C2307 1.393 . S
C2304 H2293 0.950 . S
C2304 C2302 1.391 . S
C2304 C2305 1.400 . S
C2305 C2299 1.491 . S
C2305 C2304 1.400 . S
C2305 C2306 1.398 . S
C2306 H2294 0.950 . S
C2306 C2305 1.398 . S
C2306 C2307 1.391 . S
C2307 H2295 0.950 . S
C2307 C2303 1.393 . S
C2307 C2306 1.391 . S
H2308 C2316 0.950 . S
H2309 C2321 0.950 . S
H2310 C2318 0.950 . S
H2311 C2320 0.950 . S
H2312 C2322 0.950 . S
H2313 C2324 0.950 . S
H2314 C2326 0.950 . S
H2315 C2327 0.950 . S
C2316 H2308 0.950 . S
C2316 C2317 1.386 . S
C2316 C2318 1.391 . S
C2317 C2316 1.386 . S
C2317 C2321 1.393 . S
C2318 H2310 0.950 . S
C2318 C2316 1.391 . S
C2318 C2319 1.400 . S
C2319 C2318 1.400 . S
C2319 C2320 1.398 . S
C2319 C2325 1.491 . S
C2320 H2311 0.950 . S
C2320 C2319 1.398 . S
C2320 C2321 1.391 . S
C2321 H2309 0.950 . S
C2321 C2317 1.393 . S
C2321 C2320 1.391 . S
C2322 H2312 0.950 . S
C2322 C2323 1.386 . S
C2322 C2324 1.391 . S
C2323 C2322 1.386 . S
C2323 C2327 1.393 . S
C2324 H2313 0.950 . S
C2324 C2322 1.391 . S
C2324 C2325 1.400 . S
C2325 C2319 1.491 . S
C2325 C2324 1.400 . S
C2325 C2326 1.398 . S
C2326 H2314 0.950 . S
C2326 C2325 1.398 . S
C2326 C2327 1.391 . S
C2327 H2315 0.950 . S
C2327 C2323 1.393 . S
C2327 C2326 1.391 . S
H2328 C2336 0.950 . S
H2329 C2341 0.950 . S
H2330 C2338 0.950 . S
H2331 C2340 0.950 . S
H2332 C2342 0.950 . S
H2333 C2344 0.950 . S
H2334 C2346 0.950 . S
H2335 C2347 0.950 . S
C2336 H2328 0.950 . S
C2336 C2337 1.386 . S
C2336 C2338 1.391 . S
C2337 C2336 1.386 . S
C2337 C2341 1.393 1_455 S
C2338 H2330 0.950 . S
C2338 C2336 1.391 . S
C2338 C2339 1.400 1_455 S
C2339 C2338 1.400 1_655 S
C2339 C2340 1.398 . S
C2339 C2345 1.491 . S
C2340 H2331 0.950 . S
C2340 C2339 1.398 . S
C2340 C2341 1.391 . S
C2341 H2329 0.950 . S
C2341 C2337 1.393 1_655 S
C2341 C2340 1.391 . S
C2342 H2332 0.950 . S
C2342 C2343 1.386 . S
C2342 C2344 1.391 . S
C2343 C2342 1.386 . S
C2343 C2347 1.393 1_655 S
C2344 H2333 0.950 . S
C2344 C2342 1.391 . S
C2344 C2345 1.400 . S
C2345 C2339 1.491 . S
C2345 C2344 1.400 . S
C2345 C2346 1.398 1_655 S
C2346 H2334 0.950 . S
C2346 C2345 1.398 1_455 S
C2346 C2347 1.391 . S
C2347 H2335 0.950 . S
C2347 C2343 1.393 1_455 S
C2347 C2346 1.391 . S
H2348 C2356 0.950 1_554 S
H2349 C2361 0.950 . S
H2350 C2358 0.950 . S
H2351 C2360 0.950 . S
H2352 C2362 0.950 . S
H2353 C2364 0.950 . S
H2354 C2366 0.950 . S
H2355 C2367 0.950 . S
C2356 H2348 0.950 1_556 S
C2356 C2357 1.386 1_556 S
C2356 C2358 1.391 . S
C2357 C2356 1.386 1_554 S
C2357 C2361 1.393 . S
C2358 H2350 0.950 . S
C2358 C2356 1.391 . S
C2358 C2359 1.400 . S
C2359 C2358 1.400 . S
C2359 C2360 1.398 . S
C2359 C2365 1.491 . S
C2360 H2351 0.950 . S
C2360 C2359 1.398 . S
C2360 C2361 1.391 1_556 S
C2361 H2349 0.950 . S
C2361 C2357 1.393 . S
C2361 C2360 1.391 1_554 S
C2362 H2352 0.950 . S
C2362 C2363 1.386 . S
C2362 C2364 1.391 . S
C2363 C2362 1.386 . S
C2363 C2367 1.393 . S
C2364 H2353 0.950 . S
C2364 C2362 1.391 . S
C2364 C2365 1.400 . S
C2365 C2359 1.491 . S
C2365 C2364 1.400 . S
C2365 C2366 1.398 . S
C2366 H2354 0.950 . S
C2366 C2365 1.398 . S
C2366 C2367 1.391 . S
C2367 H2355 0.950 . S
C2367 C2363 1.393 . S
C2367 C2366 1.391 . S
H2368 C2376 0.950 . S
H2369 C2381 0.950 . S
H2370 C2378 0.950 . S
H2371 C2380 0.950 . S
H2372 C2382 0.950 . S
H2373 C2384 0.950 . S
H2374 C2386 0.950 . S
H2375 C2387 0.950 . S
C2376 H2368 0.950 . S
C2376 C2377 1.386 . S
C2376 C2378 1.391 . S
C2377 C2376 1.386 . S
C2377 C2381 1.393 . S
C2378 H2370 0.950 . S
C2378 C2376 1.391 . S
C2378 C2379 1.400 . S
C2379 C2378 1.400 . S
C2379 C2380 1.398 . S
C2379 C2385 1.491 . S
C2380 H2371 0.950 . S
C2380 C2379 1.398 . S
C2380 C2381 1.391 . S
C2381 H2369 0.950 . S
C2381 C2377 1.393 . S
C2381 C2380 1.391 . S
C2382 H2372 0.950 . S
C2382 C2383 1.386 . S
C2382 C2384 1.391 . S
C2383 C2382 1.386 . S
C2383 C2387 1.393 . S
C2384 H2373 0.950 . S
C2384 C2382 1.391 . S
C2384 C2385 1.400 . S
C2385 C2379 1.491 . S
C2385 C2384 1.400 . S
C2385 C2386 1.398 . S
C2386 H2374 0.950 . S
C2386 C2385 1.398 . S
C2386 C2387 1.391 . S
C2387 H2375 0.950 . S
C2387 C2383 1.393 . S
C2387 C2386 1.391 . S
H2388 C2396 0.950 . S
H2389 C2401 0.950 . S
H2390 C2398 0.950 . S
H2391 C2400 0.950 . S
H2392 C2402 0.950 . S
H2393 C2404 0.950 . S
H2394 C2406 0.950 . S
H2395 C2407 0.950 . S
C2396 H2388 0.950 . S
C2396 C2397 1.386 . S
C2396 C2398 1.391 . S
C2397 C2396 1.386 . S
C2397 C2401 1.393 . S
C2398 H2390 0.950 . S
C2398 C2396 1.391 . S
C2398 C2399 1.400 . S
C2399 C2398 1.400 . S
C2399 C2400 1.398 . S
C2399 C2405 1.491 . S
C2400 H2391 0.950 . S
C2400 C2399 1.398 . S
C2400 C2401 1.391 . S
C2401 H2389 0.950 . S
C2401 C2397 1.393 . S
C2401 C2400 1.391 . S
C2402 H2392 0.950 . S
C2402 C2403 1.386 . S
C2402 C2404 1.391 . S
C2403 C2402 1.386 . S
C2403 C2407 1.393 . S
C2404 H2393 0.950 . S
C2404 C2402 1.391 . S
C2404 C2405 1.400 . S
C2405 C2399 1.491 . S
C2405 C2404 1.400 . S
C2405 C2406 1.398 . S
C2406 H2394 0.950 . S
C2406 C2405 1.398 . S
C2406 C2407 1.391 . S
C2407 H2395 0.950 . S
C2407 C2403 1.393 . S
C2407 C2406 1.391 . S
H2408 C2416 0.950 . S
H2409 C2421 0.950 . S
H2410 C2418 0.942 1_655 S
H2411 C2420 0.950 . S
H2412 C2422 0.945 1_455 S
H2413 C2424 0.950 . S
H2414 C2426 0.950 . S
H2415 C2427 0.950 . S
C2416 H2408 0.950 . S
C2416 C2417 1.386 . S
C2416 C2418 1.391 . S
C2417 C2416 1.386 . S
C2417 C2421 1.393 . S
C2418 H2410 0.942 1_455 S
C2418 C2416 1.391 . S
C2418 C2419 1.400 . S
C2419 C2418 1.400 . S
C2419 C2420 1.398 . S
C2419 C2425 1.505 . S
C2420 H2411 0.950 . S
C2420 C2419 1.398 . S
C2420 C2421 1.391 . S
C2421 H2409 0.950 . S
C2421 C2417 1.393 . S
C2421 C2420 1.391 . S
C2422 H2412 0.945 1_655 S
C2422 C2423 1.408 . S
C2422 C2424 1.379 1_655 S
C2423 C2422 1.408 . S
C2423 C2427 1.393 . S
C2424 H2413 0.950 . S
C2424 C2422 1.379 1_455 S
C2424 C2425 1.407 . S
C2425 C2419 1.505 . S
C2425 C2424 1.407 . S
C2425 C2426 1.379 1_455 S
C2426 H2414 0.950 . S
C2426 C2425 1.379 1_655 S
C2426 C2427 1.391 . S
C2427 H2415 0.950 . S
C2427 C2423 1.393 . S
C2427 C2426 1.391 . S
H2428 C2436 0.950 . S
H2429 C2441 0.950 . S
H2430 C2438 0.950 . S
H2431 C2440 0.950 . S
H2432 C2442 0.950 . S
H2433 C2444 0.950 . S
H2434 C2446 0.950 . S
H2435 C2447 0.950 1_554 S
C2436 H2428 0.950 . S
C2436 C2437 1.386 . S
C2436 C2438 1.391 . S
C2437 C2436 1.386 . S
C2437 C2441 1.393 . S
C2438 H2430 0.950 . S
C2438 C2436 1.391 . S
C2438 C2439 1.400 . S
C2439 C2438 1.400 . S
C2439 C2440 1.398 . S
C2439 C2445 1.491 . S
C2440 H2431 0.950 . S
C2440 C2439 1.398 . S
C2440 C2441 1.391 . S
C2441 H2429 0.950 . S
C2441 C2437 1.393 . S
C2441 C2440 1.391 . S
C2442 H2432 0.950 . S
C2442 C2443 1.386 . S
C2442 C2444 1.391 1_554 S
C2443 C2442 1.386 . S
C2443 C2447 1.393 1_554 S
C2444 H2433 0.950 . S
C2444 C2442 1.391 1_556 S
C2444 C2445 1.400 . S
C2445 C2439 1.491 . S
C2445 C2444 1.400 . S
C2445 C2446 1.398 . S
C2446 H2434 0.950 . S
C2446 C2445 1.398 . S
C2446 C2447 1.391 . S
C2447 H2435 0.950 1_556 S
C2447 C2443 1.393 1_556 S
C2447 C2446 1.391 . S
H2448 C2456 0.950 . S
H2449 C2461 0.950 . S
H2450 C2458 0.950 . S
H2451 C2460 0.950 . S
H2452 C2462 0.950 . S
H2453 C2464 0.950 . S
H2454 C2466 0.950 . S
H2455 C2467 0.950 . S
C2456 H2448 0.950 . S
C2456 C2457 1.386 . S
C2456 C2458 1.391 . S
C2457 C2456 1.386 . S
C2457 C2461 1.393 . S
C2458 H2450 0.950 . S
C2458 C2456 1.391 . S
C2458 C2459 1.400 . S
C2459 C2458 1.400 . S
C2459 C2460 1.398 . S
C2459 C2465 1.491 . S
C2460 H2451 0.950 . S
C2460 C2459 1.398 . S
C2460 C2461 1.391 . S
C2461 H2449 0.950 . S
C2461 C2457 1.393 . S
C2461 C2460 1.391 . S
C2462 H2452 0.950 . S
C2462 C2463 1.386 . S
C2462 C2464 1.391 . S
C2463 C2462 1.386 . S
C2463 C2467 1.393 . S
C2464 H2453 0.950 . S
C2464 C2462 1.391 . S
C2464 C2465 1.400 . S
C2465 C2459 1.491 . S
C2465 C2464 1.400 . S
C2465 C2466 1.398 . S
C2466 H2454 0.950 . S
C2466 C2465 1.398 . S
C2466 C2467 1.391 . S
C2467 H2455 0.950 . S
C2467 C2463 1.393 . S
C2467 C2466 1.391 . S
H2468 C2476 0.950 . S
H2469 C2481 0.950 . S
H2470 C2478 0.950 . S
H2471 C2480 0.950 . S
H2472 C2482 0.950 . S
H2473 C2484 0.950 . S
H2474 C2486 0.950 . S
H2475 C2487 0.950 . S
C2476 H2468 0.950 . S
C2476 C2477 1.386 . S
C2476 C2478 1.391 . S
C2477 C2476 1.386 . S
C2477 C2481 1.393 . S
C2478 H2470 0.950 . S
C2478 C2476 1.391 . S
C2478 C2479 1.400 . S
C2479 C2478 1.400 . S
C2479 C2480 1.398 . S
C2479 C2485 1.491 . S
C2480 H2471 0.950 . S
C2480 C2479 1.398 . S
C2480 C2481 1.391 . S
C2481 H2469 0.950 . S
C2481 C2477 1.393 . S
C2481 C2480 1.391 . S
C2482 H2472 0.950 . S
C2482 C2483 1.386 . S
C2482 C2484 1.391 . S
C2483 C2482 1.386 . S
C2483 C2487 1.393 . S
C2484 H2473 0.950 . S
C2484 C2482 1.391 . S
C2484 C2485 1.400 . S
C2485 C2479 1.491 . S
C2485 C2484 1.400 . S
C2485 C2486 1.398 . S
C2486 H2474 0.950 . S
C2486 C2485 1.398 . S
C2486 C2487 1.391 . S
C2487 H2475 0.950 . S
C2487 C2483 1.393 . S
C2487 C2486 1.391 . S
H2488 C2496 0.950 . S
H2489 C2501 0.950 . S
H2490 C2498 0.950 . S
H2491 C2500 0.950 . S
H2492 C2502 0.950 . S
H2493 C2504 0.950 . S
H2494 C2506 0.950 . S
H2495 C2507 0.950 . S
C2496 H2488 0.950 . S
C2496 C2497 1.386 . S
C2496 C2498 1.391 . S
C2497 C2496 1.386 . S
C2497 C2501 1.393 1_655 S
C2498 H2490 0.950 . S
C2498 C2496 1.391 . S
C2498 C2499 1.400 1_655 S
C2499 C2498 1.400 1_455 S
C2499 C2500 1.398 . S
C2499 C2505 1.491 . S
C2500 H2491 0.950 . S
C2500 C2499 1.398 . S
C2500 C2501 1.391 . S
C2501 H2489 0.950 . S
C2501 C2497 1.393 1_455 S
C2501 C2500 1.391 . S
C2502 H2492 0.950 . S
C2502 C2503 1.386 . S
C2502 C2504 1.391 . S
C2503 C2502 1.386 . S
C2503 C2507 1.393 1_455 S
C2504 H2493 0.950 . S
C2504 C2502 1.391 . S
C2504 C2505 1.400 . S
C2505 C2499 1.491 . S
C2505 C2504 1.400 . S
C2505 C2506 1.398 1_455 S
C2506 H2494 0.950 . S
C2506 C2505 1.398 1_655 S
C2506 C2507 1.391 . S
C2507 H2495 0.950 . S
C2507 C2503 1.393 1_655 S
C2507 C2506 1.391 . S
H2508 C2516 0.950 . S
H2509 C2521 0.950 . S
H2510 C2518 0.950 . S
H2511 C2520 0.950 . S
H2512 C2522 0.950 . S
H2513 C2524 0.950 . S
H2514 C2526 0.950 . S
H2515 C2527 0.950 . S
C2516 H2508 0.950 . S
C2516 C2517 1.386 . S
C2516 C2518 1.391 . S
C2517 C2516 1.386 . S
C2517 C2521 1.393 . S
C2518 H2510 0.950 . S
C2518 C2516 1.391 . S
C2518 C2519 1.400 . S
C2519 C2518 1.400 . S
C2519 C2520 1.398 . S
C2519 C2525 1.491 . S
C2520 H2511 0.950 . S
C2520 C2519 1.398 . S
C2520 C2521 1.391 . S
C2521 H2509 0.950 . S
C2521 C2517 1.393 . S
C2521 C2520 1.391 . S
C2522 H2512 0.950 . S
C2522 C2523 1.386 . S
C2522 C2524 1.391 1_556 S
C2523 C2522 1.386 . S
C2523 C2527 1.393 1_556 S
C2524 H2513 0.950 . S
C2524 C2522 1.391 1_554 S
C2524 C2525 1.400 . S
C2525 C2519 1.491 . S
C2525 C2524 1.400 . S
C2525 C2526 1.398 . S
C2526 H2514 0.950 . S
C2526 C2525 1.398 . S
C2526 C2527 1.391 . S
C2527 H2515 0.950 . S
C2527 C2523 1.393 1_554 S
C2527 C2526 1.391 . S
H2528 C2536 0.950 1_556 S
H2529 C2541 0.950 . S
H2530 C2538 0.950 1_655 S
H2531 C2540 0.950 1_565 S
H2532 C2542 0.950 1_554 S
H2533 C2544 0.950 1_455 S
H2534 C2546 0.950 1_545 S
H2535 C2547 0.950 . S
C2536 H2528 0.950 1_554 S
C2536 C2537 1.386 . S
C2536 C2538 1.391 1_554 S
C2537 C2536 1.386 . S
C2537 C2541 1.393 . S
C2538 H2530 0.950 1_455 S
C2538 C2536 1.391 1_556 S
C2538 C2539 1.400 1_556 S
C2539 C2538 1.400 1_554 S
C2539 C2540 1.398 . S
C2539 C2545 1.491 1_444 S
C2540 H2531 0.950 1_545 S
C2540 C2539 1.398 . S
C2540 C2541 1.391 . S
C2541 H2529 0.950 . S
C2541 C2537 1.393 . S
C2541 C2540 1.391 . S
C2542 H2532 0.950 1_556 S
C2542 C2543 1.386 . S
C2542 C2544 1.391 1_556 S
C2543 C2542 1.386 . S
C2543 C2547 1.393 . S
C2544 H2533 0.950 1_655 S
C2544 C2542 1.391 1_554 S
C2544 C2545 1.400 1_554 S
C2545 C2539 1.491 1_666 S
C2545 C2544 1.400 1_556 S
C2545 C2546 1.398 . S
C2546 H2534 0.950 1_565 S
C2546 C2545 1.398 . S
C2546 C2547 1.391 . S
C2547 H2535 0.950 . S
C2547 C2543 1.393 . S
C2547 C2546 1.391 . S
H2548 C2556 0.950 . S
H2549 C2561 0.950 . S
H2550 C2558 0.950 . S
H2551 C2560 0.950 . S
H2552 C2562 0.950 . S
H2553 C2564 0.950 . S
H2554 C2566 0.950 . S
H2555 C2567 0.950 . S
C2556 H2548 0.950 . S
C2556 C2557 1.386 . S
C2556 C2558 1.391 . S
C2557 C2556 1.386 . S
C2557 C2561 1.393 . S
C2558 H2550 0.950 . S
C2558 C2556 1.391 . S
C2558 C2559 1.400 . S
C2559 C2558 1.400 . S
C2559 C2560 1.398 . S
C2559 C2565 1.491 . S
C2560 H2551 0.950 . S
C2560 C2559 1.398 . S
C2560 C2561 1.391 . S
C2561 H2549 0.950 . S
C2561 C2557 1.393 . S
C2561 C2560 1.391 . S
C2562 H2552 0.950 . S
C2562 C2563 1.386 . S
C2562 C2564 1.391 . S
C2563 C2562 1.386 . S
C2563 C2567 1.393 . S
C2564 H2553 0.950 . S
C2564 C2562 1.391 . S
C2564 C2565 1.400 . S
C2565 C2559 1.491 . S
C2565 C2564 1.400 . S
C2565 C2566 1.398 . S
C2566 H2554 0.950 . S
C2566 C2565 1.398 . S
C2566 C2567 1.391 . S
C2567 H2555 0.950 . S
C2567 C2563 1.393 . S
C2567 C2566 1.391 . S
H2568 C2576 0.950 . S
H2569 C2581 0.950 . S
H2570 C2578 0.897 1_565 S
H2571 C2580 0.950 . S
H2572 C2582 0.950 . S
H2573 C2584 0.897 1_545 S
H2574 C2586 0.950 . S
H2575 C2587 0.950 . S
C2576 H2568 0.950 . S
C2576 C2577 1.386 . S
C2576 C2578 1.391 . S
C2577 C2576 1.386 . S
C2577 C2581 1.393 . S
C2578 H2570 0.897 1_545 S
C2578 C2576 1.391 . S
C2578 C2579 1.400 . S
C2579 C2578 1.400 . S
C2579 C2580 1.398 . S
C2579 C2585 1.491 1_545 S
C2580 H2571 0.950 . S
C2580 C2579 1.398 . S
C2580 C2581 1.391 . S
C2581 H2569 0.950 . S
C2581 C2577 1.393 . S
C2581 C2580 1.391 . S
C2582 H2572 0.950 . S
C2582 C2583 1.386 . S
C2582 C2584 1.391 . S
C2583 C2582 1.386 . S
C2583 C2587 1.393 . S
C2584 H2573 0.897 1_565 S
C2584 C2582 1.391 . S
C2584 C2585 1.400 . S
C2585 C2579 1.491 1_565 S
C2585 C2584 1.400 . S
C2585 C2586 1.398 . S
C2586 H2574 0.950 . S
C2586 C2585 1.398 . S
C2586 C2587 1.391 . S
C2587 H2575 0.950 . S
C2587 C2583 1.393 . S
C2587 C2586 1.391 . S
H2588 C2596 0.950 . S
H2589 C2601 0.950 . S
H2590 C2598 0.950 . S
H2591 C2600 0.950 . S
H2592 C2602 0.950 . S
H2593 C2604 0.950 . S
H2594 C2606 0.950 . S
H2595 C2607 0.950 . S
C2596 H2588 0.950 . S
C2596 C2597 1.386 . S
C2596 C2598 1.391 . S
C2597 C2596 1.386 . S
C2597 C2601 1.393 . S
C2598 H2590 0.950 . S
C2598 C2596 1.391 . S
C2598 C2599 1.400 . S
C2599 C2598 1.400 . S
C2599 C2600 1.398 . S
C2599 C2605 1.491 . S
C2600 H2591 0.950 . S
C2600 C2599 1.398 . S
C2600 C2601 1.391 . S
C2601 H2589 0.950 . S
C2601 C2597 1.393 . S
C2601 C2600 1.391 . S
C2602 H2592 0.950 . S
C2602 C2603 1.386 . S
C2602 C2604 1.391 . S
C2603 C2602 1.386 . S
C2603 C2607 1.393 . S
C2604 H2593 0.950 . S
C2604 C2602 1.391 . S
C2604 C2605 1.400 . S
C2605 C2599 1.491 . S
C2605 C2604 1.400 . S
C2605 C2606 1.398 . S
C2606 H2594 0.950 . S
C2606 C2605 1.398 . S
C2606 C2607 1.391 . S
C2607 H2595 0.950 . S
C2607 C2603 1.393 . S
C2607 C2606 1.391 . S
H2608 C2616 0.936 1_655 S
H2609 C2621 0.950 . S
H2610 C2618 0.950 . S
H2611 C2620 0.950 . S
H2612 C2622 0.936 1_455 S
H2613 C2624 0.950 . S
H2614 C2626 0.950 . S
H2615 C2627 0.950 . S
C2616 H2608 0.936 1_455 S
C2616 C2617 1.408 . S
C2616 C2618 1.382 1_455 S
C2617 C2616 1.408 . S
C2617 C2621 1.393 . S
C2618 H2610 0.950 . S
C2618 C2616 1.382 1_655 S
C2618 C2619 1.400 1_655 S
C2619 C2618 1.400 1_455 S
C2619 C2620 1.398 . S
C2619 C2625 1.491 1_465 S
C2620 H2611 0.950 . S
C2620 C2619 1.398 . S
C2620 C2621 1.391 . S
C2621 H2609 0.950 . S
C2621 C2617 1.393 . S
C2621 C2620 1.391 . S
C2622 H2612 0.936 1_655 S
C2622 C2623 1.408 . S
C2622 C2624 1.382 1_655 S
C2623 C2622 1.408 . S
C2623 C2627 1.393 . S
C2624 H2613 0.950 . S
C2624 C2622 1.382 1_455 S
C2624 C2625 1.400 1_455 S
C2625 C2619 1.491 1_645 S
C2625 C2624 1.400 1_655 S
C2625 C2626 1.398 . S
C2626 H2614 0.950 . S
C2626 C2625 1.398 . S
C2626 C2627 1.391 . S
C2627 H2615 0.950 . S
C2627 C2623 1.393 . S
C2627 C2626 1.391 . S
H2628 C2636 0.950 . S
H2629 C2641 0.950 . S
H2630 C2638 0.950 . S
H2631 C2640 0.950 . S
H2632 C2642 0.950 . S
H2633 C2644 0.950 . S
H2634 C2646 0.950 . S
H2635 C2647 0.950 . S
C2636 H2628 0.950 . S
C2636 C2637 1.386 . S
C2636 C2638 1.391 . S
C2637 C2636 1.386 . S
C2637 C2641 1.393 . S
C2638 H2630 0.950 . S
C2638 C2636 1.391 . S
C2638 C2639 1.400 . S
C2639 C2638 1.400 . S
C2639 C2640 1.398 . S
C2639 C2645 1.491 . S
C2640 H2631 0.950 . S
C2640 C2639 1.398 . S
C2640 C2641 1.391 . S
C2641 H2629 0.950 . S
C2641 C2637 1.393 . S
C2641 C2640 1.391 . S
C2642 H2632 0.950 . S
C2642 C2643 1.386 . S
C2642 C2644 1.391 . S
C2643 C2642 1.386 . S
C2643 C2647 1.393 . S
C2644 H2633 0.950 . S
C2644 C2642 1.391 . S
C2644 C2645 1.400 . S
C2645 C2639 1.491 . S
C2645 C2644 1.400 . S
C2645 C2646 1.398 . S
C2646 H2634 0.950 . S
C2646 C2645 1.398 . S
C2646 C2647 1.391 . S
C2647 H2635 0.950 . S
C2647 C2643 1.393 . S
C2647 C2646 1.391 . S
H2648 C2656 0.950 . S
H2649 C2661 0.950 . S
H2650 C2658 0.895 1_545 S
H2651 C2660 0.950 1_556 S
H2652 C2662 0.950 . S
H2653 C2664 0.895 1_565 S
H2654 C2666 0.950 1_554 S
H2655 C2667 0.950 . S
C2656 H2648 0.950 . S
C2656 C2657 1.386 . S
C2656 C2658 1.391 . S
C2657 C2656 1.386 . S
C2657 C2661 1.393 . S
C2658 H2650 0.895 1_565 S
C2658 C2656 1.391 . S
C2658 C2659 1.400 . S
C2659 C2658 1.400 . S
C2659 C2660 1.398 . S
C2659 C2665 1.491 1_564 S
C2660 H2651 0.950 1_554 S
C2660 C2659 1.398 . S
C2660 C2661 1.391 . S
C2661 H2649 0.950 . S
C2661 C2657 1.393 . S
C2661 C2660 1.391 . S
C2662 H2652 0.950 . S
C2662 C2663 1.386 . S
C2662 C2664 1.391 . S
C2663 C2662 1.386 . S
C2663 C2667 1.393 . S
C2664 H2653 0.895 1_545 S
C2664 C2662 1.391 . S
C2664 C2665 1.400 . S
C2665 C2659 1.491 1_546 S
C2665 C2664 1.400 . S
C2665 C2666 1.398 . S
C2666 H2654 0.950 1_556 S
C2666 C2665 1.398 . S
C2666 C2667 1.391 . S
C2667 H2655 0.950 . S
C2667 C2663 1.393 . S
C2667 C2666 1.391 . S
H2668 C2676 0.950 . S
H2669 C2681 0.950 . S
H2670 C2678 0.950 . S
H2671 C2680 0.950 . S
H2672 C2682 0.950 . S
H2673 C2684 0.950 . S
H2674 C2686 0.950 . S
H2675 C2687 0.950 . S
C2676 H2668 0.950 . S
C2676 C2677 1.386 . S
C2676 C2678 1.391 . S
C2677 C2676 1.386 . S
C2677 C2681 1.393 . S
C2678 H2670 0.950 . S
C2678 C2676 1.391 . S
C2678 C2679 1.400 . S
C2679 C2678 1.400 . S
C2679 C2680 1.398 . S
C2679 C2685 1.491 . S
C2680 H2671 0.950 . S
C2680 C2679 1.398 . S
C2680 C2681 1.391 . S
C2681 H2669 0.950 . S
C2681 C2677 1.393 . S
C2681 C2680 1.391 . S
C2682 H2672 0.950 . S
C2682 C2683 1.386 . S
C2682 C2684 1.391 . S
C2683 C2682 1.386 . S
C2683 C2687 1.393 . S
C2684 H2673 0.950 . S
C2684 C2682 1.391 . S
C2684 C2685 1.400 . S
C2685 C2679 1.491 . S
C2685 C2684 1.400 . S
C2685 C2686 1.398 . S
C2686 H2674 0.950 . S
C2686 C2685 1.398 . S
C2686 C2687 1.391 . S
C2687 H2675 0.950 . S
C2687 C2683 1.393 . S
C2687 C2686 1.391 . S
H2688 C2696 0.950 . S
H2689 C2701 0.950 . S
H2690 C2698 0.950 . S
H2691 C2700 0.950 . S
H2692 C2702 0.950 . S
H2693 C2704 0.950 . S
H2694 C2706 0.950 . S
H2695 C2707 0.950 . S
C2696 H2688 0.950 . S
C2696 C2697 1.386 . S
C2696 C2698 1.391 . S
C2697 C2696 1.386 . S
C2697 C2701 1.393 . S
C2698 H2690 0.950 . S
C2698 C2696 1.391 . S
C2698 C2699 1.400 . S
C2699 C2698 1.400 . S
C2699 C2700 1.398 . S
C2699 C2705 1.491 . S
C2700 H2691 0.950 . S
C2700 C2699 1.398 . S
C2700 C2701 1.391 . S
C2701 H2689 0.950 . S
C2701 C2697 1.393 . S
C2701 C2700 1.391 . S
C2702 H2692 0.950 . S
C2702 C2703 1.386 . S
C2702 C2704 1.391 . S
C2703 C2702 1.386 . S
C2703 C2707 1.393 . S
C2704 H2693 0.950 . S
C2704 C2702 1.391 . S
C2704 C2705 1.400 . S
C2705 C2699 1.491 . S
C2705 C2704 1.400 . S
C2705 C2706 1.398 . S
C2706 H2694 0.950 . S
C2706 C2705 1.398 . S
C2706 C2707 1.391 . S
C2707 H2695 0.950 . S
C2707 C2703 1.393 . S
C2707 C2706 1.391 . S
H2708 C2716 0.950 . S
H2709 C2721 0.950 . S
H2710 C2718 0.950 . S
H2711 C2720 0.950 . S
H2712 C2722 0.950 . S
H2713 C2724 0.950 . S
H2714 C2726 0.950 . S
H2715 C2727 0.950 . S
C2716 H2708 0.950 . S
C2716 C2717 1.386 . S
C2716 C2718 1.391 . S
C2717 C2716 1.386 . S
C2717 C2721 1.393 . S
C2718 H2710 0.950 . S
C2718 C2716 1.391 . S
C2718 C2719 1.400 . S
C2719 C2718 1.400 . S
C2719 C2720 1.398 . S
C2719 C2725 1.491 . S
C2720 H2711 0.950 . S
C2720 C2719 1.398 . S
C2720 C2721 1.391 . S
C2721 H2709 0.950 . S
C2721 C2717 1.393 . S
C2721 C2720 1.391 . S
C2722 H2712 0.950 . S
C2722 C2723 1.386 . S
C2722 C2724 1.391 . S
C2723 C2722 1.386 . S
C2723 C2727 1.393 . S
C2724 H2713 0.950 . S
C2724 C2722 1.391 . S
C2724 C2725 1.400 . S
C2725 C2719 1.491 . S
C2725 C2724 1.400 . S
C2725 C2726 1.398 . S
C2726 H2714 0.950 . S
C2726 C2725 1.398 . S
C2726 C2727 1.391 . S
C2727 H2715 0.950 . S
C2727 C2723 1.393 . S
C2727 C2726 1.391 . S
H2728 C2736 0.950 . S
H2729 C2741 0.950 . S
H2730 C2738 0.950 . S
H2731 C2740 0.950 . S
H2732 C2742 0.950 . S
H2733 C2744 0.950 . S
H2734 C2746 0.950 . S
H2735 C2747 0.950 . S
C2736 H2728 0.950 . S
C2736 C2737 1.386 . S
C2736 C2738 1.391 . S
C2737 C2736 1.386 . S
C2737 C2741 1.393 . S
C2738 H2730 0.950 . S
C2738 C2736 1.391 . S
C2738 C2739 1.400 . S
C2739 C2738 1.400 . S
C2739 C2740 1.398 . S
C2739 C2745 1.491 . S
C2740 H2731 0.950 . S
C2740 C2739 1.398 . S
C2740 C2741 1.391 . S
C2741 H2729 0.950 . S
C2741 C2737 1.393 . S
C2741 C2740 1.391 . S
C2742 H2732 0.950 . S
C2742 C2743 1.386 . S
C2742 C2744 1.391 . S
C2743 C2742 1.386 . S
C2743 C2747 1.393 . S
C2744 H2733 0.950 . S
C2744 C2742 1.391 . S
C2744 C2745 1.400 . S
C2745 C2739 1.491 . S
C2745 C2744 1.400 . S
C2745 C2746 1.398 . S
C2746 H2734 0.950 . S
C2746 C2745 1.398 . S
C2746 C2747 1.391 . S
C2747 H2735 0.950 . S
C2747 C2743 1.393 . S
C2747 C2746 1.391 . S
H2748 C2756 0.950 . S
H2749 C2761 0.950 . S
H2750 C2758 0.950 . S
H2751 C2760 0.950 . S
H2752 C2762 0.950 . S
H2753 C2764 0.950 . S
H2754 C2766 0.950 . S
H2755 C2767 0.950 . S
C2756 H2748 0.950 . S
C2756 C2757 1.386 . S
C2756 C2758 1.391 . S
C2757 C2756 1.386 . S
C2757 C2761 1.393 . S
C2758 H2750 0.950 . S
C2758 C2756 1.391 . S
C2758 C2759 1.400 . S
C2759 C2758 1.400 . S
C2759 C2760 1.398 . S
C2759 C2765 1.491 . S
C2760 H2751 0.950 . S
C2760 C2759 1.398 . S
C2760 C2761 1.391 . S
C2761 H2749 0.950 . S
C2761 C2757 1.393 . S
C2761 C2760 1.391 . S
C2762 H2752 0.950 . S
C2762 C2763 1.386 . S
C2762 C2764 1.391 . S
C2763 C2762 1.386 . S
C2763 C2767 1.393 . S
C2764 H2753 0.950 . S
C2764 C2762 1.391 . S
C2764 C2765 1.400 . S
C2765 C2759 1.491 . S
C2765 C2764 1.400 . S
C2765 C2766 1.398 . S
C2766 H2754 0.950 . S
C2766 C2765 1.398 . S
C2766 C2767 1.391 . S
C2767 H2755 0.950 . S
C2767 C2763 1.393 . S
C2767 C2766 1.391 . S
H2768 C2776 0.950 . S
H2769 C2781 0.950 . S
H2770 C2778 0.950 . S
H2771 C2780 0.950 . S
H2772 C2782 0.950 . S
H2773 C2784 0.950 . S
H2774 C2786 0.950 . S
H2775 C2787 0.950 . S
C2776 H2768 0.950 . S
C2776 C2777 1.386 . S
C2776 C2778 1.391 . S
C2777 C2776 1.386 . S
C2777 C2781 1.393 . S
C2778 H2770 0.950 . S
C2778 C2776 1.391 . S
C2778 C2779 1.400 . S
C2779 C2778 1.400 . S
C2779 C2780 1.398 . S
C2779 C2785 1.491 . S
C2780 H2771 0.950 . S
C2780 C2779 1.398 . S
C2780 C2781 1.391 . S
C2781 H2769 0.950 . S
C2781 C2777 1.393 . S
C2781 C2780 1.391 . S
C2782 H2772 0.950 . S
C2782 C2783 1.386 . S
C2782 C2784 1.391 . S
C2783 C2782 1.386 . S
C2783 C2787 1.393 . S
C2784 H2773 0.950 . S
C2784 C2782 1.391 . S
C2784 C2785 1.400 . S
C2785 C2779 1.491 . S
C2785 C2784 1.400 . S
C2785 C2786 1.398 . S
C2786 H2774 0.950 . S
C2786 C2785 1.398 . S
C2786 C2787 1.391 . S
C2787 H2775 0.950 . S
C2787 C2783 1.393 . S
C2787 C2786 1.391 . S
H2788 C2796 0.950 1_556 S
H2789 C2801 0.939 1_455 S
H2790 C2798 0.950 . S
H2791 C2800 0.950 . S
H2792 C2802 0.950 1_554 S
H2793 C2804 0.950 . S
H2794 C2806 0.950 . S
H2795 C2807 0.939 1_655 S
C2796 H2788 0.950 1_554 S
C2796 C2797 1.386 . S
C2796 C2798 1.391 1_554 S
C2797 C2796 1.386 . S
C2797 C2801 1.393 . S
C2798 H2790 0.950 . S
C2798 C2796 1.391 1_556 S
C2798 C2799 1.400 1_556 S
C2799 C2798 1.400 1_554 S
C2799 C2800 1.398 1_655 S
C2799 C2805 1.491 1_654 S
C2800 H2791 0.950 . S
C2800 C2799 1.398 1_455 S
C2800 C2801 1.391 1_455 S
C2801 H2789 0.939 1_655 S
C2801 C2797 1.393 . S
C2801 C2800 1.391 1_655 S
C2802 H2792 0.950 1_556 S
C2802 C2803 1.386 . S
C2802 C2804 1.391 1_556 S
C2803 C2802 1.386 . S
C2803 C2807 1.393 . S
C2804 H2793 0.950 . S
C2804 C2802 1.391 1_554 S
C2804 C2805 1.400 1_554 S
C2805 C2799 1.491 1_456 S
C2805 C2804 1.400 1_556 S
C2805 C2806 1.398 1_455 S
C2806 H2794 0.950 . S
C2806 C2805 1.398 1_655 S
C2806 C2807 1.391 1_655 S
C2807 H2795 0.939 1_455 S
C2807 C2803 1.393 . S
C2807 C2806 1.391 1_455 S
H2808 C2816 0.950 . S
H2809 C2821 0.950 . S
H2810 C2818 0.950 . S
H2811 C2820 0.950 . S
H2812 C2822 0.950 . S
H2813 C2824 0.950 . S
H2814 C2826 0.950 . S
H2815 C2827 0.950 . S
C2816 H2808 0.950 . S
C2816 C2817 1.386 . S
C2816 C2818 1.391 . S
C2817 C2816 1.386 . S
C2817 C2821 1.393 . S
C2818 H2810 0.950 . S
C2818 C2816 1.391 . S
C2818 C2819 1.400 . S
C2819 C2818 1.400 . S
C2819 C2820 1.398 . S
C2819 C2825 1.491 1_556 S
C2820 H2811 0.950 . S
C2820 C2819 1.398 . S
C2820 C2821 1.391 . S
C2821 H2809 0.950 . S
C2821 C2817 1.393 . S
C2821 C2820 1.391 . S
C2822 H2812 0.950 . S
C2822 C2823 1.386 . S
C2822 C2824 1.391 . S
C2823 C2822 1.386 . S
C2823 C2827 1.393 . S
C2824 H2813 0.950 . S
C2824 C2822 1.391 . S
C2824 C2825 1.400 . S
C2825 C2819 1.491 1_554 S
C2825 C2824 1.400 . S
C2825 C2826 1.398 . S
C2826 H2814 0.950 . S
C2826 C2825 1.398 . S
C2826 C2827 1.391 . S
C2827 H2815 0.950 . S
C2827 C2823 1.393 . S
C2827 C2826 1.391 . S
H2828 C2836 0.943 1_655 S
H2829 C2841 0.950 . S
H2830 C2838 0.950 . S
H2831 C2840 0.950 . S
H2832 C2842 0.943 1_455 S
H2833 C2844 0.950 . S
H2834 C2846 0.950 . S
H2835 C2847 0.950 . S
C2836 H2828 0.943 1_455 S
C2836 C2837 1.397 . S
C2836 C2838 1.387 1_455 S
C2837 C2836 1.397 . S
C2837 C2841 1.393 . S
C2838 H2830 0.950 . S
C2838 C2836 1.387 1_655 S
C2838 C2839 1.400 1_655 S
C2839 C2838 1.400 1_455 S
C2839 C2840 1.398 . S
C2839 C2845 1.491 1_455 S
C2840 H2831 0.950 . S
C2840 C2839 1.398 . S
C2840 C2841 1.391 . S
C2841 H2829 0.950 . S
C2841 C2837 1.393 . S
C2841 C2840 1.391 . S
C2842 H2832 0.943 1_655 S
C2842 C2843 1.397 . S
C2842 C2844 1.387 1_655 S
C2843 C2842 1.397 . S
C2843 C2847 1.393 . S
C2844 H2833 0.950 . S
C2844 C2842 1.387 1_455 S
C2844 C2845 1.400 1_455 S
C2845 C2839 1.491 1_655 S
C2845 C2844 1.400 1_655 S
C2845 C2846 1.398 . S
C2846 H2834 0.950 . S
C2846 C2845 1.398 . S
C2846 C2847 1.391 . S
C2847 H2835 0.950 . S
C2847 C2843 1.393 . S
C2847 C2846 1.391 . S
H2848 C2856 0.950 . S
H2849 C2861 0.950 . S
H2850 C2858 0.950 . S
H2851 C2860 0.950 . S
H2852 C2862 0.950 . S
H2853 C2864 0.950 . S
H2854 C2866 0.950 . S
H2855 C2867 0.950 . S
C2856 H2848 0.950 . S
C2856 C2857 1.386 . S
C2856 C2858 1.391 . S
C2857 C2856 1.386 . S
C2857 C2861 1.393 . S
C2858 H2850 0.950 . S
C2858 C2856 1.391 . S
C2858 C2859 1.400 . S
C2859 C2858 1.400 . S
C2859 C2860 1.398 . S
C2859 C2865 1.491 . S
C2860 H2851 0.950 . S
C2860 C2859 1.398 . S
C2860 C2861 1.391 . S
C2861 H2849 0.950 . S
C2861 C2857 1.393 . S
C2861 C2860 1.391 . S
C2862 H2852 0.950 . S
C2862 C2863 1.386 . S
C2862 C2864 1.391 . S
C2863 C2862 1.386 . S
C2863 C2867 1.393 . S
C2864 H2853 0.950 . S
C2864 C2862 1.391 . S
C2864 C2865 1.400 . S
C2865 C2859 1.491 . S
C2865 C2864 1.400 . S
C2865 C2866 1.398 . S
C2866 H2854 0.950 . S
C2866 C2865 1.398 . S
C2866 C2867 1.391 . S
C2867 H2855 0.950 . S
C2867 C2863 1.393 . S
C2867 C2866 1.391 . S
H2868 C2876 0.950 . S
H2869 C2881 0.950 . S
H2870 C2878 0.950 . S
H2871 C2880 0.950 . S
H2872 C2882 0.950 . S
H2873 C2884 0.950 . S
H2874 C2886 0.950 . S
H2875 C2887 0.950 . S
C2876 H2868 0.950 . S
C2876 C2877 1.386 . S
C2876 C2878 1.391 . S
C2877 C2876 1.386 . S
C2877 C2881 1.393 . S
C2878 H2870 0.950 . S
C2878 C2876 1.391 . S
C2878 C2879 1.400 . S
C2879 C2878 1.400 . S
C2879 C2880 1.398 . S
C2879 C2885 1.491 . S
C2880 H2871 0.950 . S
C2880 C2879 1.398 . S
C2880 C2881 1.391 . S
C2881 H2869 0.950 . S
C2881 C2877 1.393 . S
C2881 C2880 1.391 . S
C2882 H2872 0.950 . S
C2882 C2883 1.386 . S
C2882 C2884 1.391 . S
C2883 C2882 1.386 . S
C2883 C2887 1.393 . S
C2884 H2873 0.950 . S
C2884 C2882 1.391 . S
C2884 C2885 1.400 . S
C2885 C2879 1.491 . S
C2885 C2884 1.400 . S
C2885 C2886 1.398 . S
C2886 H2874 0.950 . S
C2886 C2885 1.398 . S
C2886 C2887 1.391 . S
C2887 H2875 0.950 . S
C2887 C2883 1.393 . S
C2887 C2886 1.391 . S
H2888 C2896 0.950 . S
H2889 C2901 0.950 . S
H2890 C2898 0.950 . S
H2891 C2900 0.950 . S
H2892 C2902 0.950 . S
H2893 C2904 0.950 . S
H2894 C2906 0.950 . S
H2895 C2907 0.950 . S
C2896 H2888 0.950 . S
C2896 C2897 1.386 . S
C2896 C2898 1.391 . S
C2897 C2896 1.386 . S
C2897 C2901 1.393 . S
C2898 H2890 0.950 . S
C2898 C2896 1.391 . S
C2898 C2899 1.400 . S
C2899 C2898 1.400 . S
C2899 C2900 1.398 . S
C2899 C2905 1.491 . S
C2900 H2891 0.950 . S
C2900 C2899 1.398 . S
C2900 C2901 1.391 . S
C2901 H2889 0.950 . S
C2901 C2897 1.393 . S
C2901 C2900 1.391 . S
C2902 H2892 0.950 . S
C2902 C2903 1.386 . S
C2902 C2904 1.391 . S
C2903 C2902 1.386 . S
C2903 C2907 1.393 . S
C2904 H2893 0.950 . S
C2904 C2902 1.391 . S
C2904 C2905 1.400 . S
C2905 C2899 1.491 . S
C2905 C2904 1.400 . S
C2905 C2906 1.398 . S
C2906 H2894 0.950 . S
C2906 C2905 1.398 . S
C2906 C2907 1.391 . S
C2907 H2895 0.950 . S
C2907 C2903 1.393 . S
C2907 C2906 1.391 . S
H2908 C2916 0.950 . S
H2909 C2921 0.950 . S
H2910 C2918 0.950 . S
H2911 C2920 0.950 . S
H2912 C2922 0.950 . S
H2913 C2924 0.950 . S
H2914 C2926 0.950 . S
H2915 C2927 0.950 . S
C2916 H2908 0.950 . S
C2916 C2917 1.386 . S
C2916 C2918 1.391 . S
C2917 C2916 1.386 . S
C2917 C2921 1.393 . S
C2918 H2910 0.950 . S
C2918 C2916 1.391 . S
C2918 C2919 1.400 . S
C2919 C2918 1.400 . S
C2919 C2920 1.398 . S
C2919 C2925 1.491 . S
C2920 H2911 0.950 . S
C2920 C2919 1.398 . S
C2920 C2921 1.391 . S
C2921 H2909 0.950 . S
C2921 C2917 1.393 . S
C2921 C2920 1.391 . S
C2922 H2912 0.950 . S
C2922 C2923 1.386 . S
C2922 C2924 1.391 . S
C2923 C2922 1.386 . S
C2923 C2927 1.393 . S
C2924 H2913 0.950 . S
C2924 C2922 1.391 . S
C2924 C2925 1.400 . S
C2925 C2919 1.491 . S
C2925 C2924 1.400 . S
C2925 C2926 1.398 . S
C2926 H2914 0.950 . S
C2926 C2925 1.398 . S
C2926 C2927 1.391 . S
C2927 H2915 0.950 . S
C2927 C2923 1.393 . S
C2927 C2926 1.391 . S
H2928 C2936 0.950 . S
H2929 C2941 0.950 . S
H2930 C2938 0.950 . S
H2931 C2940 0.950 . S
H2932 C2942 0.950 . S
H2933 C2944 0.950 . S
H2934 C2946 0.950 . S
H2935 C2947 0.950 . S
C2936 H2928 0.950 . S
C2936 C2937 1.386 . S
C2936 C2938 1.391 . S
C2937 C2936 1.386 . S
C2937 C2941 1.393 . S
C2938 H2930 0.950 . S
C2938 C2936 1.391 . S
C2938 C2939 1.400 . S
C2939 C2938 1.400 . S
C2939 C2940 1.398 . S
C2939 C2945 1.491 . S
C2940 H2931 0.950 . S
C2940 C2939 1.398 . S
C2940 C2941 1.391 . S
C2941 H2929 0.950 . S
C2941 C2937 1.393 . S
C2941 C2940 1.391 . S
C2942 H2932 0.950 . S
C2942 C2943 1.386 . S
C2942 C2944 1.391 . S
C2943 C2942 1.386 . S
C2943 C2947 1.393 . S
C2944 H2933 0.950 . S
C2944 C2942 1.391 . S
C2944 C2945 1.400 . S
C2945 C2939 1.491 . S
C2945 C2944 1.400 . S
C2945 C2946 1.398 . S
C2946 H2934 0.950 . S
C2946 C2945 1.398 . S
C2946 C2947 1.391 . S
C2947 H2935 0.950 . S
C2947 C2943 1.393 . S
C2947 C2946 1.391 . S
H2948 C2956 0.950 . S
H2949 C2961 0.950 . S
H2950 C2958 0.950 . S
H2951 C2960 0.950 . S
H2952 C2962 0.950 . S
H2953 C2964 0.950 . S
H2954 C2966 0.950 . S
H2955 C2967 0.950 . S
C2956 H2948 0.950 . S
C2956 C2957 1.386 . S
C2956 C2958 1.391 . S
C2957 C2956 1.386 . S
C2957 C2961 1.393 . S
C2958 H2950 0.950 . S
C2958 C2956 1.391 . S
C2958 C2959 1.400 . S
C2959 C2958 1.400 . S
C2959 C2960 1.398 . S
C2959 C2965 1.491 . S
C2960 H2951 0.950 . S
C2960 C2959 1.398 . S
C2960 C2961 1.391 . S
C2961 H2949 0.950 . S
C2961 C2957 1.393 . S
C2961 C2960 1.391 . S
C2962 H2952 0.950 . S
C2962 C2963 1.386 . S
C2962 C2964 1.391 . S
C2963 C2962 1.386 . S
C2963 C2967 1.393 . S
C2964 H2953 0.950 . S
C2964 C2962 1.391 . S
C2964 C2965 1.400 . S
C2965 C2959 1.491 . S
C2965 C2964 1.400 . S
C2965 C2966 1.398 . S
C2966 H2954 0.950 . S
C2966 C2965 1.398 . S
C2966 C2967 1.391 . S
C2967 H2955 0.950 . S
C2967 C2963 1.393 . S
C2967 C2966 1.391 . S
H2968 C2976 0.950 . S
H2969 C2981 0.950 . S
H2970 C2978 0.950 . S
H2971 C2980 0.950 . S
H2972 C2982 0.950 . S
H2973 C2984 0.950 . S
H2974 C2986 0.950 . S
H2975 C2987 0.950 . S
C2976 H2968 0.950 . S
C2976 C2977 1.386 . S
C2976 C2978 1.391 . S
C2977 C2976 1.386 . S
C2977 C2981 1.393 . S
C2978 H2970 0.950 . S
C2978 C2976 1.391 . S
C2978 C2979 1.400 . S
C2979 C2978 1.400 . S
C2979 C2980 1.398 . S
C2979 C2985 1.491 . S
C2980 H2971 0.950 . S
C2980 C2979 1.398 . S
C2980 C2981 1.391 . S
C2981 H2969 0.950 . S
C2981 C2977 1.393 . S
C2981 C2980 1.391 . S
C2982 H2972 0.950 . S
C2982 C2983 1.386 . S
C2982 C2984 1.391 . S
C2983 C2982 1.386 . S
C2983 C2987 1.393 . S
C2984 H2973 0.950 . S
C2984 C2982 1.391 . S
C2984 C2985 1.400 . S
C2985 C2979 1.491 . S
C2985 C2984 1.400 . S
C2985 C2986 1.398 . S
C2986 H2974 0.950 . S
C2986 C2985 1.398 . S
C2986 C2987 1.391 . S
C2987 H2975 0.950 . S
C2987 C2983 1.393 . S
C2987 C2986 1.391 . S
H2988 C2996 0.950 . S
H2989 C3001 0.950 . S
H2990 C2998 0.950 . S
H2991 C3000 0.950 . S
H2992 C3002 0.950 . S
H2993 C3004 0.950 . S
H2994 C3006 0.950 . S
H2995 C3007 0.950 . S
C2996 H2988 0.950 . S
C2996 C2997 1.386 . S
C2996 C2998 1.391 . S
C2997 C2996 1.386 . S
C2997 C3001 1.393 . S
C2998 H2990 0.950 . S
C2998 C2996 1.391 . S
C2998 C2999 1.400 . S
C2999 C2998 1.400 . S
C2999 C3000 1.398 . S
C2999 C3005 1.491 . S
C3000 H2991 0.950 . S
C3000 C2999 1.398 . S
C3000 C3001 1.391 . S
C3001 H2989 0.950 . S
C3001 C2997 1.393 . S
C3001 C3000 1.391 . S
C3002 H2992 0.950 . S
C3002 C3003 1.386 . S
C3002 C3004 1.391 . S
C3003 C3002 1.386 . S
C3003 C3007 1.393 . S
C3004 H2993 0.950 . S
C3004 C3002 1.391 . S
C3004 C3005 1.400 . S
C3005 C2999 1.491 . S
C3005 C3004 1.400 . S
C3005 C3006 1.398 . S
C3006 H2994 0.950 . S
C3006 C3005 1.398 . S
C3006 C3007 1.391 . S
C3007 H2995 0.950 . S
C3007 C3003 1.393 . S
C3007 C3006 1.391 . S
H3008 C3016 0.950 . S
H3009 C3021 0.950 . S
H3010 C3018 0.950 . S
H3011 C3020 0.950 . S
H3012 C3022 0.950 . S
H3013 C3024 0.950 . S
H3014 C3026 0.950 . S
H3015 C3027 0.950 . S
C3016 H3008 0.950 . S
C3016 C3017 1.386 . S
C3016 C3018 1.391 . S
C3017 C3016 1.386 . S
C3017 C3021 1.393 . S
C3018 H3010 0.950 . S
C3018 C3016 1.391 . S
C3018 C3019 1.400 . S
C3019 C3018 1.400 . S
C3019 C3020 1.398 . S
C3019 C3025 1.491 . S
C3020 H3011 0.950 . S
C3020 C3019 1.398 . S
C3020 C3021 1.391 . S
C3021 H3009 0.950 . S
C3021 C3017 1.393 . S
C3021 C3020 1.391 . S
C3022 H3012 0.950 . S
C3022 C3023 1.386 . S
C3022 C3024 1.391 . S
C3023 C3022 1.386 . S
C3023 C3027 1.393 . S
C3024 H3013 0.950 . S
C3024 C3022 1.391 . S
C3024 C3025 1.400 . S
C3025 C3019 1.491 . S
C3025 C3024 1.400 . S
C3025 C3026 1.398 . S
C3026 H3014 0.950 . S
C3026 C3025 1.398 . S
C3026 C3027 1.391 . S
C3027 H3015 0.950 . S
C3027 C3023 1.393 . S
C3027 C3026 1.391 . S
H3028 C3036 0.950 . S
H3029 C3041 0.950 . S
H3030 C3038 0.950 . S
H3031 C3040 0.950 . S
H3032 C3042 0.950 . S
H3033 C3044 0.950 . S
H3034 C3046 0.950 . S
H3035 C3047 0.950 . S
C3036 H3028 0.950 . S
C3036 C3037 1.386 . S
C3036 C3038 1.391 . S
C3037 C3036 1.386 . S
C3037 C3041 1.393 . S
C3038 H3030 0.950 . S
C3038 C3036 1.391 . S
C3038 C3039 1.400 . S
C3039 C3038 1.400 . S
C3039 C3040 1.398 . S
C3039 C3045 1.491 . S
C3040 H3031 0.950 . S
C3040 C3039 1.398 . S
C3040 C3041 1.391 . S
C3041 H3029 0.950 . S
C3041 C3037 1.393 . S
C3041 C3040 1.391 . S
C3042 H3032 0.950 . S
C3042 C3043 1.386 . S
C3042 C3044 1.391 . S
C3043 C3042 1.386 . S
C3043 C3047 1.393 . S
C3044 H3033 0.950 . S
C3044 C3042 1.391 . S
C3044 C3045 1.400 . S
C3045 C3039 1.491 . S
C3045 C3044 1.400 . S
C3045 C3046 1.398 . S
C3046 H3034 0.950 . S
C3046 C3045 1.398 . S
C3046 C3047 1.391 . S
C3047 H3035 0.950 . S
C3047 C3043 1.393 . S
C3047 C3046 1.391 . S
H3048 C3056 0.950 . S
H3049 C3061 0.950 . S
H3050 C3058 0.950 . S
H3051 C3060 0.950 . S
H3052 C3062 0.950 . S
H3053 C3064 0.950 . S
H3054 C3066 0.950 . S
H3055 C3067 0.950 . S
C3056 H3048 0.950 . S
C3056 C3057 1.386 . S
C3056 C3058 1.391 . S
C3057 C3056 1.386 . S
C3057 C3061 1.393 . S
C3058 H3050 0.950 . S
C3058 C3056 1.391 . S
C3058 C3059 1.400 . S
C3059 C3058 1.400 . S
C3059 C3060 1.398 . S
C3059 C3065 1.491 . S
C3060 H3051 0.950 . S
C3060 C3059 1.398 . S
C3060 C3061 1.391 . S
C3061 H3049 0.950 . S
C3061 C3057 1.393 . S
C3061 C3060 1.391 . S
C3062 H3052 0.950 . S
C3062 C3063 1.386 . S
C3062 C3064 1.391 . S
C3063 C3062 1.386 . S
C3063 C3067 1.393 . S
C3064 H3053 0.950 . S
C3064 C3062 1.391 . S
C3064 C3065 1.400 . S
C3065 C3059 1.491 . S
C3065 C3064 1.400 . S
C3065 C3066 1.398 . S
C3066 H3054 0.950 . S
C3066 C3065 1.398 . S
C3066 C3067 1.391 . S
C3067 H3055 0.950 . S
C3067 C3063 1.393 . S
C3067 C3066 1.391 . S
H3068 C3076 0.950 . S
H3069 C3081 0.950 . S
H3070 C3078 0.950 . S
H3071 C3080 0.950 . S
H3072 C3082 0.950 . S
H3073 C3084 0.950 . S
H3074 C3086 0.950 . S
H3075 C3087 0.950 . S
C3076 H3068 0.950 . S
C3076 C3077 1.386 . S
C3076 C3078 1.391 . S
C3077 C3076 1.386 . S
C3077 C3081 1.393 . S
C3078 H3070 0.950 . S
C3078 C3076 1.391 . S
C3078 C3079 1.400 . S
C3079 C3078 1.400 . S
C3079 C3080 1.398 . S
C3079 C3085 1.491 . S
C3080 H3071 0.950 . S
C3080 C3079 1.398 . S
C3080 C3081 1.391 . S
C3081 H3069 0.950 . S
C3081 C3077 1.393 . S
C3081 C3080 1.391 . S
C3082 H3072 0.950 . S
C3082 C3083 1.386 . S
C3082 C3084 1.391 . S
C3083 C3082 1.386 . S
C3083 C3087 1.393 . S
C3084 H3073 0.950 . S
C3084 C3082 1.391 . S
C3084 C3085 1.400 . S
C3085 C3079 1.491 . S
C3085 C3084 1.400 . S
C3085 C3086 1.398 . S
C3086 H3074 0.950 . S
C3086 C3085 1.398 . S
C3086 C3087 1.391 . S
C3087 H3075 0.950 . S
C3087 C3083 1.393 . S
C3087 C3086 1.391 . S
H3088 C3096 0.950 . S
H3089 C3101 0.950 . S
H3090 C3098 0.950 . S
H3091 C3100 0.950 . S
H3092 C3102 0.950 . S
H3093 C3104 0.950 . S
H3094 C3106 0.950 . S
H3095 C3107 0.950 . S
C3096 H3088 0.950 . S
C3096 C3097 1.386 . S
C3096 C3098 1.391 . S
C3097 C3096 1.386 . S
C3097 C3101 1.393 . S
C3098 H3090 0.950 . S
C3098 C3096 1.391 . S
C3098 C3099 1.400 . S
C3099 C3098 1.400 . S
C3099 C3100 1.398 . S
C3099 C3105 1.491 . S
C3100 H3091 0.950 . S
C3100 C3099 1.398 . S
C3100 C3101 1.391 . S
C3101 H3089 0.950 . S
C3101 C3097 1.393 . S
C3101 C3100 1.391 . S
C3102 H3092 0.950 . S
C3102 C3103 1.386 . S
C3102 C3104 1.391 . S
C3103 C3102 1.386 . S
C3103 C3107 1.393 . S
C3104 H3093 0.950 . S
C3104 C3102 1.391 . S
C3104 C3105 1.400 . S
C3105 C3099 1.491 . S
C3105 C3104 1.400 . S
C3105 C3106 1.398 . S
C3106 H3094 0.950 . S
C3106 C3105 1.398 . S
C3106 C3107 1.391 . S
C3107 H3095 0.950 . S
C3107 C3103 1.393 . S
C3107 C3106 1.391 . S
H3108 C3116 0.950 . S
H3109 C3121 0.950 . S
H3110 C3118 0.950 . S
H3111 C3120 0.950 . S
H3112 C3122 0.950 . S
H3113 C3124 0.950 . S
H3114 C3126 0.950 . S
H3115 C3127 0.950 . S
C3116 H3108 0.950 . S
C3116 C3117 1.386 . S
C3116 C3118 1.391 . S
C3117 C3116 1.386 . S
C3117 C3121 1.393 . S
C3118 H3110 0.950 . S
C3118 C3116 1.391 . S
C3118 C3119 1.400 . S
C3119 C3118 1.400 . S
C3119 C3120 1.398 . S
C3119 C3125 1.491 . S
C3120 H3111 0.950 . S
C3120 C3119 1.398 . S
C3120 C3121 1.391 . S
C3121 H3109 0.950 . S
C3121 C3117 1.393 . S
C3121 C3120 1.391 . S
C3122 H3112 0.950 . S
C3122 C3123 1.386 . S
C3122 C3124 1.391 . S
C3123 C3122 1.386 . S
C3123 C3127 1.393 . S
C3124 H3113 0.950 . S
C3124 C3122 1.391 . S
C3124 C3125 1.400 . S
C3125 C3119 1.491 . S
C3125 C3124 1.400 . S
C3125 C3126 1.398 . S
C3126 H3114 0.950 . S
C3126 C3125 1.398 . S
C3126 C3127 1.391 . S
C3127 H3115 0.950 . S
C3127 C3123 1.393 . S
C3127 C3126 1.391 . S
H3128 C3136 0.950 . S
H3129 C3141 0.950 . S
H3130 C3138 0.950 . S
H3131 C3140 0.950 . S
H3132 C3142 0.950 . S
H3133 C3144 0.950 . S
H3134 C3146 0.950 . S
H3135 C3147 0.950 . S
C3136 H3128 0.950 . S
C3136 C3137 1.386 . S
C3136 C3138 1.391 . S
C3137 C3136 1.386 . S
C3137 C3141 1.393 . S
C3138 H3130 0.950 . S
C3138 C3136 1.391 . S
C3138 C3139 1.400 . S
C3139 C3138 1.400 . S
C3139 C3140 1.398 . S
C3139 C3145 1.491 . S
C3140 H3131 0.950 . S
C3140 C3139 1.398 . S
C3140 C3141 1.391 . S
C3141 H3129 0.950 . S
C3141 C3137 1.393 . S
C3141 C3140 1.391 . S
C3142 H3132 0.950 . S
C3142 C3143 1.386 . S
C3142 C3144 1.391 . S
C3143 C3142 1.386 . S
C3143 C3147 1.393 . S
C3144 H3133 0.950 . S
C3144 C3142 1.391 . S
C3144 C3145 1.400 . S
C3145 C3139 1.491 . S
C3145 C3144 1.400 . S
C3145 C3146 1.398 . S
C3146 H3134 0.950 . S
C3146 C3145 1.398 . S
C3146 C3147 1.391 . S
C3147 H3135 0.950 . S
C3147 C3143 1.393 . S
C3147 C3146 1.391 . S
H3148 C3156 0.950 . S
H3149 C3161 0.950 . S
H3150 C3158 0.950 . S
H3151 C3160 0.950 . S
H3152 C3162 0.950 . S
H3153 C3164 0.950 . S
H3154 C3166 0.950 . S
H3155 C3167 0.950 . S
C3156 H3148 0.950 . S
C3156 C3157 1.386 . S
C3156 C3158 1.391 . S
C3157 C3156 1.386 . S
C3157 C3161 1.393 . S
C3158 H3150 0.950 . S
C3158 C3156 1.391 . S
C3158 C3159 1.400 . S
C3159 C3158 1.400 . S
C3159 C3160 1.398 . S
C3159 C3165 1.491 . S
C3160 H3151 0.950 . S
C3160 C3159 1.398 . S
C3160 C3161 1.391 . S
C3161 H3149 0.950 . S
C3161 C3157 1.393 . S
C3161 C3160 1.391 . S
C3162 H3152 0.950 . S
C3162 C3163 1.386 . S
C3162 C3164 1.391 . S
C3163 C3162 1.386 . S
C3163 C3167 1.393 . S
C3164 H3153 0.950 . S
C3164 C3162 1.391 . S
C3164 C3165 1.400 . S
C3165 C3159 1.491 . S
C3165 C3164 1.400 . S
C3165 C3166 1.398 . S
C3166 H3154 0.950 . S
C3166 C3165 1.398 . S
C3166 C3167 1.391 . S
C3167 H3155 0.950 . S
C3167 C3163 1.393 . S
C3167 C3166 1.391 . S
C1897 C711 1.156 . S
C1903 C33 1.123 1_556 S
C1917 C1714 1.156 . S
C1923 C92 1.155 . S
C1937 C829 1.157 . S
C1943 C151 1.158 . S
C1957 C1832 1.156 . S
C1963 C210 1.154 . S
C1977 C475 1.158 . S
C1983 C269 1.142 . S
C1997 C328 1.136 . S
C2003 C1478 1.164 . S
C2017 C387 1.111 1_554 S
C2023 C593 1.162 . S
C2037 C1596 1.165 . S
C2043 C446 1.145 . S
C2057 C239 1.156 . S
C2063 C505 1.134 1_554 S
C2077 C1242 1.165 . S
C2083 C564 1.144 . S
C2097 C357 1.157 . S
C2103 C623 1.147 . S
C2117 C1360 1.160 . S
C2123 C682 1.139 . S
C2137 C741 1.150 . S
C2143 C3 1.156 . S
C2157 C800 1.155 . S
C2163 C1006 1.161 . S
C2177 C121 1.165 . S
C2183 C859 1.112 1_556 S
C2197 C918 1.152 . S
C2203 C1124 1.163 . S
C2217 C1655 1.159 . S
C2223 C977 1.157 . S
C2237 C770 1.161 . S
C2243 C1036 1.137 . S
C2257 C1773 1.157 . S
C2263 C1095 1.122 1_556 S
C2277 C1154 1.143 . S
C2283 C888 1.165 . S
C2297 C1213 1.128 1_554 S
C2303 C1419 1.156 . S
C2317 C1272 1.144 . S
C2323 C534 1.158 . S
C2337 C1537 1.156 . S
C2343 C1331 1.157 . S
C2357 C652 1.162 . S
C2363 C1390 1.154 . S
C2377 C1183 1.160 . S
C2383 C1449 1.138 . S
C2397 C1508 1.136 . S
C2403 C298 1.163 . S
C2417 C1567 1.117 1_554 S
C2423 C1301 1.159 . S
C2437 C1626 1.139 . S
C2443 C416 1.165 . S
C2457 C947 1.159 . S
C2463 C1685 1.133 1_556 S
C2477 C62 1.160 . S
C2483 C1744 1.156 . S
C2497 C1065 1.164 . S
C2503 C1803 1.136 . S
C2517 C1862 1.136 . S
C2523 C180 1.162 . S
C2537 C52 1.447 . S
C2543 C524 1.447 . S
C2557 C111 1.438 . S
C2563 C1527 1.438 . S
C2577 C642 1.440 . S
C2583 C170 1.440 . S
C2597 C229 1.449 . S
C2603 C1645 1.449 . S
C2617 C288 1.437 . S
C2623 C760 1.437 . S
C2637 C1763 1.450 . S
C2643 C347 1.450 . S
C2657 C878 1.440 . S
C2663 C406 1.440 . S
C2677 C465 1.449 . S
C2683 C1881 1.449 . S
C2697 C583 1.441 . S
C2703 C1055 1.441 . S
C2717 C701 1.441 . S
C2723 C1173 1.441 . S
C2737 C819 1.449 . S
C2743 C1291 1.449 . S
C2757 C1409 1.445 . S
C2763 C937 1.445 . S
C2777 C996 1.444 . S
C2783 C1468 1.444 . S
C2797 C1114 1.451 . S
C2803 C1586 1.451 . S
C2817 C1232 1.447 . S
C2823 C1704 1.447 . S
C2837 C1822 1.450 . S
C2843 C1350 1.450 . S
C2857 C5 1.441 . S
C2863 C418 1.446 . S
C2877 C64 1.440 . S
C2883 C241 1.445 . S
C2897 C300 1.443 . S
C2903 C123 1.439 . S
C2917 C359 1.445 . S
C2923 C182 1.440 . S
C2937 C890 1.440 . S
C2943 C477 1.445 . S
C2957 C713 1.446 . S
C2963 C536 1.445 . S
C2977 C772 1.444 . S
C2983 C595 1.439 . S
C2997 C831 1.442 . S
C3003 C654 1.447 . S
C3017 C949 1.440 . S
C3023 C1362 1.446 . S
C3037 C1185 1.446 . S
C3043 C1008 1.445 . S
C3057 C1244 1.439 . S
C3063 C1067 1.444 . S
C3077 C1303 1.446 . S
C3083 C1126 1.440 . S
C3097 C1834 1.439 . S
C3103 C1421 1.444 . S
C3117 C1480 1.441 . S
C3123 C1657 1.441 . S
C3137 C1539 1.447 . S
C3143 C1716 1.442 . S
C3157 C1775 1.439 . S
C3163 C1598 1.444 . S
