# Generated by pormake.
# Topology zfq, (5)-cn, num edge types: 1
# Building blocks:
#     Node 0, Type 0, BuildingBlock: BEQFEK_clean_sbu_0, # of connection points: 5
#     Node 1, Type 0, BuildingBlock: BEQFEK_clean_sbu_0, # of connection points: 5
#     Node 2, Type 0, BuildingBlock: BEQFEK_clean_sbu_0, # of connection points: 5
#     Node 3, Type 0, BuildingBlock: BEQFEK_clean_sbu_0, # of connection points: 5
#     Node 4, Type 0, BuildingBlock: BEQFEK_clean_sbu_0, # of connection points: 5
#     Node 5, Type 0, BuildingBlock: BEQFEK_clean_sbu_0, # of connection points: 5
#     Node 6, Type 0, BuildingBlock: BEQFEK_clean_sbu_0, # of connection points: 5
#     Node 7, Type 0, BuildingBlock: BEQFEK_clean_sbu_0, # of connection points: 5
#     Node 8, Type 0, BuildingBlock: BEQFEK_clean_sbu_0, # of connection points: 5
#     Node 9, Type 0, BuildingBlock: BEQFEK_clean_sbu_0, # of connection points: 5
#     Node 10, Type 0, BuildingBlock: BEQFEK_clean_sbu_0, # of connection points: 5
#     Node 11, Type 0, BuildingBlock: BEQFEK_clean_sbu_0, # of connection points: 5
#     Node 12, Type 0, BuildingBlock: BEQFEK_clean_sbu_0, # of connection points: 5
#     Node 13, Type 0, BuildingBlock: BEQFEK_clean_sbu_0, # of connection points: 5
#     Node 14, Type 0, BuildingBlock: BEQFEK_clean_sbu_0, # of connection points: 5
#     Node 15, Type 0, BuildingBlock: BEQFEK_clean_sbu_0, # of connection points: 5
#     Edge 16, Type (0, 0), BuildingBlock: CIFDUS_clean_linker_0, # of connection points: 2
#     Edge 17, Type (0, 0), BuildingBlock: CIFDUS_clean_linker_0, # of connection points: 2
#     Edge 18, Type (0, 0), BuildingBlock: CIFDUS_clean_linker_0, # of connection points: 2
#     Edge 19, Type (0, 0), BuildingBlock: CIFDUS_clean_linker_0, # of connection points: 2
#     Edge 20, Type (0, 0), BuildingBlock: CIFDUS_clean_linker_0, # of connection points: 2
#     Edge 21, Type (0, 0), BuildingBlock: CIFDUS_clean_linker_0, # of connection points: 2
#     Edge 22, Type (0, 0), BuildingBlock: CIFDUS_clean_linker_0, # of connection points: 2
#     Edge 23, Type (0, 0), BuildingBlock: CIFDUS_clean_linker_0, # of connection points: 2
#     Edge 24, Type (0, 0), BuildingBlock: CIFDUS_clean_linker_0, # of connection points: 2
#     Edge 25, Type (0, 0), BuildingBlock: CIFDUS_clean_linker_0, # of connection points: 2
#     Edge 26, Type (0, 0), BuildingBlock: CIFDUS_clean_linker_0, # of connection points: 2
#     Edge 27, Type (0, 0), BuildingBlock: CIFDUS_clean_linker_0, # of connection points: 2
#     Edge 28, Type (0, 0), BuildingBlock: CIFDUS_clean_linker_0, # of connection points: 2
#     Edge 29, Type (0, 0), BuildingBlock: CIFDUS_clean_linker_0, # of connection points: 2
#     Edge 30, Type (0, 0), BuildingBlock: CIFDUS_clean_linker_0, # of connection points: 2
#     Edge 31, Type (0, 0), BuildingBlock: CIFDUS_clean_linker_0, # of connection points: 2
#     Edge 32, Type (0, 0), BuildingBlock: CIFDUS_clean_linker_0, # of connection points: 2
#     Edge 33, Type (0, 0), BuildingBlock: CIFDUS_clean_linker_0, # of connection points: 2
#     Edge 34, Type (0, 0), BuildingBlock: CIFDUS_clean_linker_0, # of connection points: 2
#     Edge 35, Type (0, 0), BuildingBlock: CIFDUS_clean_linker_0, # of connection points: 2
#     Edge 36, Type (0, 0), BuildingBlock: CIFDUS_clean_linker_0, # of connection points: 2
#     Edge 37, Type (0, 0), BuildingBlock: CIFDUS_clean_linker_0, # of connection points: 2
#     Edge 38, Type (0, 0), BuildingBlock: CIFDUS_clean_linker_0, # of connection points: 2
#     Edge 39, Type (0, 0), BuildingBlock: CIFDUS_clean_linker_0, # of connection points: 2
#     Edge 40, Type (0, 0), BuildingBlock: CIFDUS_clean_linker_0, # of connection points: 2
#     Edge 41, Type (0, 0), BuildingBlock: CIFDUS_clean_linker_0, # of connection points: 2
#     Edge 42, Type (0, 0), BuildingBlock: CIFDUS_clean_linker_0, # of connection points: 2
#     Edge 43, Type (0, 0), BuildingBlock: CIFDUS_clean_linker_0, # of connection points: 2
#     Edge 44, Type (0, 0), BuildingBlock: CIFDUS_clean_linker_0, # of connection points: 2
#     Edge 45, Type (0, 0), BuildingBlock: CIFDUS_clean_linker_0, # of connection points: 2
#     Edge 46, Type (0, 0), BuildingBlock: CIFDUS_clean_linker_0, # of connection points: 2
#     Edge 47, Type (0, 0), BuildingBlock: CIFDUS_clean_linker_0, # of connection points: 2
#     Edge 48, Type (0, 0), BuildingBlock: CIFDUS_clean_linker_0, # of connection points: 2
#     Edge 49, Type (0, 0), BuildingBlock: CIFDUS_clean_linker_0, # of connection points: 2
#     Edge 50, Type (0, 0), BuildingBlock: CIFDUS_clean_linker_0, # of connection points: 2
#     Edge 51, Type (0, 0), BuildingBlock: CIFDUS_clean_linker_0, # of connection points: 2
#     Edge 52, Type (0, 0), BuildingBlock: CIFDUS_clean_linker_0, # of connection points: 2
#     Edge 53, Type (0, 0), BuildingBlock: CIFDUS_clean_linker_0, # of connection points: 2
#     Edge 54, Type (0, 0), BuildingBlock: CIFDUS_clean_linker_0, # of connection points: 2
#     Edge 55, Type (0, 0), BuildingBlock: CIFDUS_clean_linker_0, # of connection points: 2
# Relax obj value: 0.113
# Max RMSD: 0.177
# Mean RMSD: 0.177
data_MOF--net-zfq--node1-BEQFEK_clean_sbu_0--edge1-CIFDUS_clean_linker_0
_symmetry_space_group_name_H-M    P1
_symmetry_Int_Tables_number       1
_symmetry_cell_setting            triclinic
loop_
_symmetry_equiv_pos_as_xyz
'x, y, z'
_cell_length_a     25.793582
_cell_length_b     25.843762
_cell_length_c     68.955153
_cell_angle_alpha  89.99387
_cell_angle_beta   89.865371
_cell_angle_gamma 90.104571
loop_
_atom_site_label
_atom_site_type_symbol
_atom_site_fract_x
_atom_site_fract_y
_atom_site_fract_z
_atom_type_partial_charge
Co0 Co 0.19005 0.15222 0.15884 0.0
Co1 Co 0.18552 0.17389 0.11383 0.0
C2 C 0.12829 0.24082 0.14066 0.0
O3 O 0.14477 0.21335 0.15471 0.0
O4 O 0.14378 0.23277 0.12336 0.0
C5 C 0.19658 0.18072 0.19918 0.0
O6 O 0.1832 0.22669 0.19281 0.0
C7 C 0.20024 0.21646 0.074 0.0
C8 C 0.21117 0.14379 0.05761 0.0
C9 C 0.21151 0.19709 0.05566 0.0
N10 N 0.19472 0.17625 0.08628 0.0
N11 N 0.20057 0.13303 0.07628 0.0
C12 C 0.19361 0.27202 0.07964 0.0
H13 H 0.16216 0.27575 0.09052 0.0
H14 H 0.22989 0.28668 0.08627 0.0
H15 H 0.18435 0.29619 0.06681 0.0
C16 C 0.30198 0.14534 0.14993 0.0
N17 N 0.25264 0.15471 0.14467 0.0
N18 N 0.25139 0.16778 0.12627 0.0
C19 C 0.3004 0.16959 0.11942 0.0
C20 C 0.33444 0.15468 0.1341 0.0
C21 C 0.31656 0.12405 0.16935 0.0
H22 H 0.28576 0.09758 0.17468 0.0
H23 H 0.32024 0.15639 0.17985 0.0
H24 H 0.35376 0.10264 0.16864 0.0
O25 O 0.1474 0.09406 0.15042 0.0
O26 O 0.14099 0.11198 0.119 0.0
H27 H 0.31044 0.1581 0.08892 0.0
H28 H 0.35426 0.20538 0.09926 0.0
C29 C 0.31426 0.18969 0.09972 0.0
H30 H 0.28758 0.22125 0.09574 0.0
H31 H 0.19875 0.09608 0.08235 0.0
O32 O 0.20276 0.14404 0.1871 0.0
C33 C 0.12864 0.08473 0.13375 0.0
Co34 Co 0.16032 0.82715 0.84978 0.0
Co35 Co 0.15942 0.82397 0.89603 0.0
C36 C 0.23827 0.88534 0.87311 0.0
O37 O 0.21983 0.86926 0.85711 0.0
O38 O 0.22034 0.86972 0.88938 0.0
C39 C 0.19822 0.8292 0.81019 0.0
O40 O 0.24198 0.84198 0.81865 0.0
C41 C 0.19234 0.79545 0.9362 0.0
C42 C 0.11997 0.81132 0.95229 0.0
C43 C 0.17043 0.79427 0.95474 0.0
N44 N 0.15619 0.81211 0.92357 0.0
N45 N 0.11313 0.82151 0.93336 0.0
C46 C 0.24707 0.78365 0.93054 0.0
H47 H 0.25695 0.80272 0.9166 0.0
H48 H 0.25139 0.74128 0.92858 0.0
H49 H 0.27426 0.7965 0.94204 0.0
C50 C 0.16237 0.71375 0.85574 0.0
N51 N 0.16115 0.76241 0.86268 0.0
N52 N 0.1565 0.76098 0.88167 0.0
C53 C 0.15078 0.71138 0.88731 0.0
C54 C 0.15516 0.67928 0.87109 0.0
C55 C 0.17515 0.70123 0.83507 0.0
H56 H 0.20038 0.73173 0.82885 0.0
H57 H 0.19569 0.66371 0.83388 0.0
H58 H 0.13882 0.69947 0.82651 0.0
O59 O 0.09966 0.87019 0.85762 0.0
O60 O 0.09862 0.8659 0.88985 0.0
H61 H 0.10944 0.72521 0.91384 0.0
H62 H 0.11577 0.65789 0.90766 0.0
C63 C 0.13581 0.69591 0.9075 0.0
H64 H 0.17105 0.69367 0.91663 0.0
H65 H 0.07893 0.835 0.92711 0.0
O66 O 0.15856 0.81987 0.82069 0.0
C67 C 0.08021 0.8827 0.87399 0.0
Co68 Co 0.82771 0.8092 0.16143 0.0
Co69 Co 0.822 0.83458 0.11676 0.0
C70 C 0.88658 0.74643 0.13347 0.0
O71 O 0.87205 0.75256 0.15103 0.0
O72 O 0.86869 0.77479 0.11995 0.0
C73 C 0.83455 0.76781 0.20103 0.0
O74 O 0.85908 0.72848 0.19321 0.0
C75 C 0.79701 0.805 0.07707 0.0
C76 C 0.7995 0.87971 0.06153 0.0
C77 C 0.79048 0.82725 0.05893 0.0
N78 N 0.80946 0.84248 0.08973 0.0
N79 N 0.81135 0.88702 0.08034 0.0
C80 C 0.78785 0.7499 0.08278 0.0
H81 H 0.77858 0.74729 0.09849 0.0
H82 H 0.75582 0.73284 0.07415 0.0
H83 H 0.82362 0.72729 0.08 0.0
C84 C 0.71299 0.80491 0.15552 0.0
N85 N 0.76171 0.81257 0.14897 0.0
N86 N 0.75965 0.82741 0.13077 0.0
C87 C 0.70978 0.83222 0.12538 0.0
C88 C 0.67804 0.81737 0.14078 0.0
C89 C 0.70092 0.78233 0.17501 0.0
H90 H 0.73301 0.7569 0.17979 0.0
H91 H 0.66447 0.7595 0.17465 0.0
H92 H 0.69664 0.81414 0.1857 0.0
O93 O 0.86959 0.87361 0.15705 0.0
O94 O 0.86208 0.89356 0.12584 0.0
H95 H 0.65387 0.87147 0.10726 0.0
H96 H 0.69379 0.82397 0.09511 0.0
C97 C 0.69336 0.8547 0.10634 0.0
H98 H 0.72078 0.88557 0.10189 0.0
H99 H 0.81999 0.92247 0.08683 0.0
O100 O 0.81825 0.80409 0.19017 0.0
C101 C 0.88063 0.90242 0.14258 0.0
Co102 Co 0.83804 0.19188 0.84454 0.0
Co103 Co 0.81862 0.18737 0.88954 0.0
C104 C 0.75509 0.12395 0.86302 0.0
O105 O 0.78098 0.14137 0.84866 0.0
O106 O 0.76282 0.14082 0.88014 0.0
C107 C 0.80905 0.20057 0.8045 0.0
O108 O 0.76232 0.18952 0.8109 0.0
C109 C 0.77329 0.20071 0.92913 0.0
C110 C 0.84495 0.20839 0.94639 0.0
C111 C 0.79144 0.20884 0.94784 0.0
N112 N 0.81441 0.19639 0.91712 0.0
N113 N 0.857 0.20063 0.92763 0.0
C114 C 0.71788 0.19499 0.92302 0.0
H115 H 0.71491 0.17211 0.90951 0.0
H116 H 0.70089 0.23368 0.92032 0.0
H117 H 0.6949 0.17611 0.93468 0.0
C118 C 0.83118 0.3033 0.85178 0.0
N119 N 0.82943 0.25416 0.85807 0.0
N120 N 0.81901 0.25341 0.87673 0.0
C121 C 0.81189 0.30267 0.8828 0.0
C122 C 0.81935 0.33613 0.86712 0.0
C123 C 0.84677 0.31821 0.83159 0.0
H124 H 0.87956 0.2937 0.82672 0.0
H125 H 0.81369 0.3115 0.82164 0.0
H126 H 0.85875 0.3594 0.83077 0.0
O127 O 0.90048 0.1572 0.853 0.0
O128 O 0.88402 0.14724 0.88442 0.0
H129 H 0.82693 0.31141 0.91308 0.0
H130 H 0.77988 0.35688 0.90371 0.0
C131 C 0.7943 0.31662 0.90281 0.0
H132 H 0.7626 0.29034 0.90722 0.0
H133 H 0.89446 0.19887 0.92192 0.0
O134 O 0.8462 0.20419 0.81647 0.0
C135 C 0.91214 0.13882 0.86949 0.0
Co136 Co 0.81158 0.16529 0.64938 0.0
Co137 Co 0.817 0.15984 0.60383 0.0
C138 C 0.87484 0.24061 0.62541 0.0
O139 O 0.85709 0.22412 0.64153 0.0
O140 O 0.86098 0.22049 0.60936 0.0
C141 C 0.82911 0.1878 0.68925 0.0
O142 O 0.87625 0.19812 0.68308 0.0
C143 C 0.80672 0.1849 0.5619 0.0
C144 C 0.78841 0.10771 0.54994 0.0
C145 C 0.79366 0.15929 0.54484 0.0
N146 N 0.80794 0.15007 0.57644 0.0
N147 N 0.79756 0.10398 0.5691 0.0
C148 C 0.81903 0.24116 0.56437 0.0
H149 H 0.85335 0.24572 0.57384 0.0
H150 H 0.78587 0.26084 0.57149 0.0
H151 H 0.82718 0.26001 0.55023 0.0
C152 C 0.70071 0.15513 0.64133 0.0
N153 N 0.74987 0.16039 0.63519 0.0
N154 N 0.75083 0.16393 0.61623 0.0
C155 C 0.70152 0.16498 0.60969 0.0
C156 C 0.66764 0.15898 0.62542 0.0
C157 C 0.68703 0.14111 0.6618 0.0
H158 H 0.71738 0.11564 0.66797 0.0
H159 H 0.68525 0.17679 0.67073 0.0
H160 H 0.64926 0.12058 0.66258 0.0
O161 O 0.85222 0.10276 0.64588 0.0
O162 O 0.85844 0.09946 0.61371 0.0
H163 H 0.6856 0.13935 0.58082 0.0
H164 H 0.64989 0.19643 0.58801 0.0
C165 C 0.68763 0.17619 0.58905 0.0
H166 H 0.71752 0.20118 0.58236 0.0
H167 H 0.79545 0.07008 0.57729 0.0
O168 O 0.7951 0.17313 0.67716 0.0
C169 C 0.86952 0.08179 0.6305 0.0
Co170 Co 0.17178 0.18222 0.35522 0.0
Co171 Co 0.1634 0.17606 0.40074 0.0
C172 C 0.24349 0.11643 0.37737 0.0
O173 O 0.23058 0.13639 0.36123 0.0
O174 O 0.22066 0.12892 0.39311 0.0
C175 C 0.18668 0.16433 0.31485 0.0
O176 O 0.19891 0.11787 0.32106 0.0
C177 C 0.19951 0.19211 0.44097 0.0
C178 C 0.12629 0.18292 0.4573 0.0
C179 C 0.17859 0.19371 0.45961 0.0
N180 N 0.16109 0.18165 0.42838 0.0
N181 N 0.11755 0.17588 0.43827 0.0
C182 C 0.25511 0.19825 0.43511 0.0
H183 H 0.26257 0.17877 0.42108 0.0
H184 H 0.26409 0.23994 0.43324 0.0
H185 H 0.28111 0.18215 0.4464 0.0
C186 C 0.18372 0.29405 0.36511 0.0
N187 N 0.17512 0.24429 0.37008 0.0
N188 N 0.16798 0.2416 0.38893 0.0
C189 C 0.16871 0.28962 0.39643 0.0
C190 C 0.17985 0.32467 0.3817 0.0
C191 C 0.20026 0.31073 0.34524 0.0
H192 H 0.22261 0.27948 0.33808 0.0
H193 H 0.22457 0.34614 0.34582 0.0
H194 H 0.1653 0.31882 0.33641 0.0
O195 O 0.10708 0.14076 0.36047 0.0
O196 O 0.10013 0.14186 0.39261 0.0
H197 H 0.12391 0.27592 0.4222 0.0
H198 H 0.14201 0.34263 0.41855 0.0
C199 C 0.15521 0.30198 0.41706 0.0
H200 H 0.18971 0.29624 0.42634 0.0
H201 H 0.0817 0.16758 0.432 0.0
O202 O 0.17338 0.19861 0.3271 0.0
C203 C 0.08335 0.12829 0.37606 0.0
Co204 Co 0.17042 0.82313 0.65682 0.0
Co205 Co 0.17856 0.81446 0.6109 0.0
C206 C 0.11642 0.73903 0.63365 0.0
O207 O 0.12914 0.76051 0.64961 0.0
O208 O 0.13444 0.75476 0.61745 0.0
C209 C 0.13713 0.81594 0.69624 0.0
O210 O 0.09243 0.80753 0.68768 0.0
C211 C 0.19942 0.78298 0.56963 0.0
C212 C 0.2102 0.86031 0.55654 0.0
C213 C 0.21038 0.80802 0.5522 0.0
N214 N 0.19368 0.81907 0.58362 0.0
N215 N 0.20001 0.86508 0.57558 0.0
C216 C 0.19267 0.72608 0.5728 0.0
H217 H 0.16601 0.7187 0.5851 0.0
H218 H 0.23077 0.70864 0.57631 0.0
H219 H 0.17747 0.70719 0.55952 0.0
C220 C 0.28459 0.83409 0.65169 0.0
N221 N 0.23666 0.82547 0.64462 0.0
N222 N 0.23997 0.81738 0.62584 0.0
C223 C 0.29016 0.81804 0.62048 0.0
C224 C 0.32051 0.82964 0.63661 0.0
C225 C 0.29473 0.8499 0.67222 0.0
H226 H 0.26234 0.87406 0.67768 0.0
H227 H 0.29712 0.81477 0.68143 0.0
H228 H 0.33148 0.87203 0.67343 0.0
O229 O 0.12747 0.88225 0.64842 0.0
O230 O 0.13455 0.87533 0.61637 0.0
H231 H 0.30725 0.83726 0.59096 0.0
H232 H 0.34831 0.78719 0.60091 0.0
C233 C 0.30839 0.80297 0.60063 0.0
H234 H 0.28251 0.77284 0.59464 0.0
H235 H 0.19752 0.89994 0.58316 0.0
O236 O 0.17703 0.82407 0.68577 0.0
C237 C 0.11619 0.89751 0.63137 0.0
Co238 Co 0.81318 0.81925 0.35306 0.0
Co239 Co 0.83015 0.82772 0.39834 0.0
C240 C 0.74253 0.88196 0.37741 0.0
O241 O 0.75327 0.86413 0.36064 0.0
O242 O 0.76877 0.86866 0.39215 0.0
C243 C 0.79505 0.83863 0.31316 0.0
O244 O 0.78233 0.88395 0.32036 0.0
C245 C 0.79063 0.80978 0.43714 0.0
C246 C 0.85517 0.83369 0.4561 0.0
C247 C 0.80442 0.81548 0.45657 0.0
N248 N 0.83095 0.82418 0.426 0.0
N249 N 0.86942 0.83862 0.43738 0.0
C250 C 0.74127 0.78886 0.42883 0.0
H251 H 0.74712 0.77659 0.41357 0.0
H252 H 0.72717 0.75544 0.43748 0.0
H253 H 0.71137 0.81967 0.42894 0.0
C254 C 0.81426 0.70669 0.36382 0.0
N255 N 0.81803 0.75741 0.3683 0.0
N256 N 0.82879 0.76171 0.38687 0.0
C257 C 0.83412 0.71429 0.39463 0.0
C258 C 0.8243 0.67756 0.38042 0.0
C259 C 0.79796 0.68698 0.34437 0.0
H260 H 0.77164 0.71508 0.33729 0.0
H261 H 0.77814 0.64898 0.34563 0.0
H262 H 0.83284 0.68231 0.33509 0.0
O263 O 0.87585 0.86418 0.35657 0.0
O264 O 0.88811 0.86897 0.38851 0.0
H265 H 0.87891 0.73483 0.41972 0.0
H266 H 0.87029 0.66601 0.41627 0.0
C267 C 0.85132 0.70438 0.41503 0.0
H268 H 0.81723 0.70503 0.42483 0.0
H269 H 0.90518 0.85216 0.43238 0.0
O270 O 0.80916 0.80299 0.32473 0.0
C271 C 0.9004 0.88162 0.37124 0.0
Co272 Co 0.67916 0.66491 0.65978 0.0
Co273 Co 0.66565 0.6802 0.61466 0.0
C274 C 0.61155 0.74798 0.6441 0.0
O275 O 0.63284 0.72458 0.65818 0.0
O276 O 0.62228 0.73618 0.62658 0.0
C277 C 0.68934 0.6879 0.70025 0.0
O278 O 0.67469 0.73406 0.69451 0.0
C279 C 0.6941 0.72991 0.57774 0.0
C280 C 0.66136 0.67537 0.55634 0.0
C281 C 0.69033 0.72031 0.55799 0.0
N282 N 0.66921 0.69188 0.58731 0.0
N283 N 0.64915 0.65979 0.57442 0.0
C284 C 0.71912 0.77542 0.58738 0.0
H285 H 0.7114 0.77497 0.60322 0.0
H286 H 0.76156 0.775 0.58488 0.0
H287 H 0.70394 0.81169 0.58093 0.0
C288 C 0.79061 0.67486 0.6481 0.0
N289 N 0.73943 0.67355 0.64411 0.0
N290 N 0.73319 0.67352 0.62521 0.0
C291 C 0.77988 0.66997 0.61658 0.0
C292 C 0.81831 0.67268 0.63069 0.0
C293 C 0.81187 0.68123 0.66813 0.0
H294 H 0.82134 0.64258 0.67415 0.0
H295 H 0.78282 0.6999 0.67768 0.0
H296 H 0.84761 0.70519 0.66793 0.0
O297 O 0.63525 0.60518 0.65095 0.0
O298 O 0.62759 0.61619 0.61907 0.0
H299 H 0.75333 0.63202 0.59063 0.0
H300 H 0.82273 0.63057 0.59412 0.0
C301 C 0.78728 0.65447 0.5958 0.0
H302 H 0.79175 0.68915 0.58657 0.0
H303 H 0.62827 0.62647 0.57796 0.0
O304 O 0.6961 0.65254 0.68765 0.0
C305 C 0.61736 0.59123 0.6345 0.0
Co306 Co 0.6979 0.32158 0.34685 0.0
Co307 Co 0.67442 0.32132 0.39146 0.0
C308 C 0.76514 0.37978 0.37322 0.0
O309 O 0.7568 0.36265 0.35623 0.0
O310 O 0.73718 0.36548 0.38755 0.0
C311 C 0.7435 0.32072 0.30843 0.0
O312 O 0.78646 0.33602 0.31688 0.0
C313 C 0.69921 0.29029 0.43138 0.0
C314 C 0.62949 0.31566 0.44739 0.0
C315 C 0.67752 0.29256 0.44987 0.0
N316 N 0.66541 0.31081 0.41871 0.0
N317 N 0.62378 0.32577 0.42837 0.0
C318 C 0.75222 0.2721 0.4258 0.0
H319 H 0.76398 0.2888 0.41164 0.0
H320 H 0.75181 0.22937 0.42432 0.0
H321 H 0.78085 0.28273 0.43712 0.0
C322 C 0.69196 0.20856 0.35309 0.0
N323 N 0.69065 0.25747 0.35975 0.0
N324 N 0.67569 0.25732 0.37794 0.0
C325 C 0.66357 0.20851 0.38316 0.0
C326 C 0.67398 0.17533 0.36761 0.0
C327 C 0.71394 0.19449 0.33367 0.0
H328 H 0.74353 0.22331 0.32922 0.0
H329 H 0.73239 0.15578 0.33402 0.0
H330 H 0.68244 0.19446 0.32274 0.0
O331 O 0.63557 0.3663 0.35033 0.0
O332 O 0.61803 0.36484 0.38193 0.0
H333 H 0.61249 0.22816 0.40667 0.0
H334 H 0.61231 0.16047 0.40029 0.0
C335 C 0.63704 0.19538 0.40188 0.0
H336 H 0.66659 0.18808 0.4132 0.0
H337 H 0.59173 0.3435 0.422 0.0
O338 O 0.70353 0.3114 0.31865 0.0
C339 C 0.60867 0.38089 0.36484 0.0
Co340 Co 0.30695 0.32286 0.65767 0.0
Co341 Co 0.32512 0.32671 0.61238 0.0
C342 C 0.37717 0.2479 0.63746 0.0
O343 O 0.35482 0.26518 0.6526 0.0
O344 O 0.36743 0.26647 0.62076 0.0
C345 C 0.3295 0.32204 0.69659 0.0
O346 O 0.37531 0.3238 0.68823 0.0
C347 C 0.3136 0.29246 0.57178 0.0
C348 C 0.32884 0.3652 0.55591 0.0
C349 C 0.31484 0.31387 0.55324 0.0
N350 N 0.32517 0.3298 0.58467 0.0
N351 N 0.33488 0.37297 0.57506 0.0
C352 C 0.30345 0.23729 0.57728 0.0
H353 H 0.32363 0.22754 0.59095 0.0
H354 H 0.26132 0.23153 0.5797 0.0
H355 H 0.31643 0.21071 0.5656 0.0
C356 C 0.197 0.31497 0.64432 0.0
N357 N 0.2483 0.32051 0.64102 0.0
N358 N 0.25614 0.32629 0.62228 0.0
C359 C 0.21 0.32773 0.61321 0.0
C360 C 0.17078 0.31927 0.62672 0.0
C361 C 0.17441 0.30183 0.66371 0.0
H362 H 0.20366 0.28224 0.67287 0.0
H363 H 0.14 0.27635 0.66214 0.0
H364 H 0.16224 0.33804 0.67106 0.0
O365 O 0.34959 0.38643 0.6536 0.0
O366 O 0.36353 0.38698 0.62182 0.0
H367 H 0.16393 0.35806 0.58967 0.0
H368 H 0.20837 0.30738 0.5831 0.0
C369 C 0.20319 0.34207 0.59231 0.0
H370 H 0.23235 0.37151 0.58807 0.0
H371 H 0.34455 0.40807 0.58161 0.0
O372 O 0.28943 0.32113 0.68586 0.0
C373 C 0.37111 0.40584 0.63862 0.0
Co374 Co 0.34149 0.68407 0.35175 0.0
Co375 Co 0.35218 0.67571 0.39744 0.0
C376 C 0.27159 0.61626 0.37411 0.0
O377 O 0.28316 0.63663 0.35783 0.0
O378 O 0.29522 0.62902 0.38961 0.0
C379 C 0.33031 0.66767 0.31077 0.0
O380 O 0.31959 0.62038 0.31655 0.0
C381 C 0.31572 0.69027 0.43784 0.0
C382 C 0.38717 0.67392 0.45432 0.0
C383 C 0.3356 0.6877 0.45657 0.0
N384 N 0.35403 0.6791 0.42521 0.0
N385 N 0.39652 0.66917 0.4352 0.0
C386 C 0.26082 0.70034 0.43197 0.0
H387 H 0.25302 0.684 0.4174 0.0
H388 H 0.25403 0.74264 0.43128 0.0
H389 H 0.23354 0.68355 0.44275 0.0
C390 C 0.32972 0.7955 0.36304 0.0
N391 N 0.33852 0.74535 0.36736 0.0
N392 N 0.347 0.74145 0.38611 0.0
C393 C 0.34697 0.78884 0.3941 0.0
C394 C 0.33472 0.82485 0.37991 0.0
C395 C 0.31262 0.81388 0.34349 0.0
H396 H 0.29122 0.78277 0.33584 0.0
H397 H 0.28741 0.84846 0.34475 0.0
H398 H 0.3473 0.82424 0.33476 0.0
O399 O 0.40649 0.64281 0.3566 0.0
O400 O 0.41531 0.64265 0.38868 0.0
H401 H 0.39351 0.77257 0.41916 0.0
H402 H 0.37744 0.84003 0.41609 0.0
C403 C 0.36275 0.79984 0.41459 0.0
H404 H 0.32895 0.79496 0.42435 0.0
H405 H 0.432 0.65917 0.42896 0.0
O406 O 0.3405 0.70198 0.32346 0.0
C407 C 0.43115 0.62991 0.37189 0.0
Co408 Co 0.32893 0.65458 0.15341 0.0
Co409 Co 0.31924 0.64411 0.10769 0.0
C410 C 0.38784 0.72456 0.12811 0.0
O411 O 0.37246 0.71337 0.14519 0.0
O412 O 0.36965 0.70122 0.11325 0.0
C413 C 0.33527 0.68509 0.19464 0.0
O414 O 0.35422 0.72929 0.1884 0.0
C415 C 0.29127 0.67903 0.06781 0.0
C416 C 0.29967 0.60577 0.05163 0.0
C417 C 0.28765 0.65764 0.04925 0.0
N418 N 0.30465 0.64135 0.08035 0.0
N419 N 0.30946 0.59773 0.07053 0.0
C420 C 0.28506 0.73448 0.07355 0.0
H421 H 0.30472 0.74212 0.08755 0.0
H422 H 0.24322 0.74304 0.07544 0.0
H423 H 0.30094 0.76038 0.06214 0.0
C424 C 0.2146 0.66097 0.14937 0.0
N425 N 0.26231 0.65611 0.14161 0.0
N426 N 0.25806 0.6478 0.12288 0.0
C427 C 0.20749 0.64399 0.11826 0.0
C428 C 0.17773 0.65281 0.13488 0.0
C429 C 0.20535 0.67747 0.1699 0.0
H430 H 0.23772 0.70228 0.17493 0.0
H431 H 0.16867 0.6995 0.1713 0.0
H432 H 0.20341 0.64271 0.17932 0.0
O433 O 0.36957 0.59216 0.1455 0.0
O434 O 0.35721 0.58103 0.1139 0.0
H435 H 0.14986 0.60924 0.09955 0.0
H436 H 0.18707 0.66157 0.08896 0.0
C437 C 0.1888 0.6274 0.09867 0.0
H438 H 0.21617 0.59908 0.0923 0.0
H439 H 0.31995 0.56243 0.07671 0.0
O440 O 0.32234 0.65054 0.18238 0.0
C441 C 0.37755 0.56717 0.12982 0.0
Co442 Co 0.65812 0.6878 0.85639 0.0
Co443 Co 0.66709 0.69106 0.90194 0.0
C444 C 0.7417 0.63039 0.87963 0.0
O445 O 0.71795 0.64456 0.8643 0.0
O446 O 0.72913 0.64816 0.89626 0.0
C447 C 0.67631 0.66512 0.81577 0.0
O448 O 0.69067 0.61935 0.82204 0.0
C449 C 0.69231 0.71484 0.94325 0.0
C450 C 0.61392 0.73572 0.95362 0.0
C451 C 0.66541 0.73408 0.95918 0.0
N452 N 0.65809 0.70635 0.92886 0.0
N453 N 0.61128 0.71786 0.93536 0.0
C454 C 0.74983 0.71041 0.941 0.0
H455 H 0.76078 0.70819 0.92546 0.0
H456 H 0.76946 0.7439 0.94792 0.0
H457 H 0.76315 0.67471 0.94839 0.0
C458 C 0.65159 0.80059 0.86195 0.0
N459 N 0.65678 0.75231 0.86898 0.0
N460 N 0.66571 0.75443 0.88769 0.0
C461 C 0.66907 0.80457 0.89305 0.0
C462 C 0.65967 0.83586 0.87692 0.0
C463 C 0.63633 0.81195 0.84145 0.0
H464 H 0.60893 0.78197 0.83619 0.0
H465 H 0.67136 0.81096 0.83208 0.0
H466 H 0.61771 0.85048 0.84022 0.0
O467 O 0.59766 0.64574 0.86313 0.0
O468 O 0.60728 0.64508 0.89516 0.0
H469 H 0.6528 0.82197 0.92276 0.0
H470 H 0.7042 0.86078 0.91234 0.0
C471 C 0.68647 0.8217 0.91272 0.0
H472 H 0.71577 0.79441 0.91832 0.0
H473 H 0.57775 0.71603 0.92695 0.0
O474 O 0.661 0.69886 0.8279 0.0
C475 C 0.58415 0.62979 0.87987 0.0
Co476 Co 0.6926 0.32152 0.15738 0.0
Co477 Co 0.68296 0.30522 0.11255 0.0
C478 C 0.62741 0.2358 0.13886 0.0
O479 O 0.64559 0.26223 0.15285 0.0
O480 O 0.64123 0.24507 0.12145 0.0
C481 C 0.6687 0.31757 0.19645 0.0
O482 O 0.62217 0.31531 0.18879 0.0
C483 C 0.6922 0.26591 0.07227 0.0
C484 C 0.70125 0.33921 0.05611 0.0
C485 C 0.70067 0.28598 0.05383 0.0
N486 N 0.68891 0.30557 0.08488 0.0
N487 N 0.69367 0.34922 0.07505 0.0
C488 C 0.68576 0.21023 0.07783 0.0
H489 H 0.65023 0.20572 0.08675 0.0
H490 H 0.71907 0.19773 0.08681 0.0
H491 H 0.68263 0.18493 0.06489 0.0
C492 C 0.80279 0.32748 0.14783 0.0
N493 N 0.75331 0.31938 0.14264 0.0
N494 N 0.75086 0.30858 0.12406 0.0
C495 C 0.79974 0.30669 0.11697 0.0
C496 C 0.83464 0.31896 0.13181 0.0
C497 C 0.81785 0.34789 0.16736 0.0
H498 H 0.78735 0.37429 0.17289 0.0
H499 H 0.82136 0.31514 0.17768 0.0
H500 H 0.85518 0.36924 0.1667 0.0
O501 O 0.65295 0.38276 0.15105 0.0
O502 O 0.63965 0.36733 0.11972 0.0
H503 H 0.81111 0.3243 0.08697 0.0
H504 H 0.85159 0.27239 0.09588 0.0
C505 C 0.81257 0.29018 0.09672 0.0
H506 H 0.78397 0.26143 0.09165 0.0
H507 H 0.69303 0.3859 0.08137 0.0
O508 O 0.70775 0.32162 0.18532 0.0
C509 C 0.6315 0.39401 0.13503 0.0
Co510 Co 0.3177 0.33351 0.84889 0.0
Co511 Co 0.32719 0.32008 0.89423 0.0
C512 C 0.24753 0.38931 0.87659 0.0
O513 O 0.26062 0.37819 0.85923 0.0
O514 O 0.26935 0.36787 0.891 0.0
C515 C 0.27051 0.32905 0.81059 0.0
O516 O 0.22611 0.3294 0.81996 0.0
C517 C 0.29201 0.29725 0.93372 0.0
C518 C 0.36522 0.27958 0.94888 0.0
C519 C 0.31205 0.28243 0.9515 0.0
N520 N 0.33148 0.30234 0.92108 0.0
N521 N 0.3752 0.29219 0.93028 0.0
C522 C 0.23662 0.30854 0.92883 0.0
H523 H 0.23172 0.35106 0.9276 0.0
H524 H 0.22675 0.29142 0.91455 0.0
H525 H 0.20948 0.29421 0.9401 0.0
C526 C 0.31753 0.21916 0.8511 0.0
N527 N 0.31897 0.26596 0.85962 0.0
N528 N 0.31952 0.25997 0.87855 0.0
C529 C 0.3155 0.20908 0.88272 0.0
C530 C 0.31446 0.18115 0.86541 0.0
C531 C 0.32235 0.21135 0.82965 0.0
H532 H 0.35059 0.23941 0.82355 0.0
H533 H 0.2842 0.21833 0.82274 0.0
H534 H 0.33556 0.1716 0.82614 0.0
O535 O 0.38218 0.37019 0.8551 0.0
O536 O 0.38964 0.36176 0.88709 0.0
H537 H 0.34484 0.18856 0.91068 0.0
H538 H 0.29059 0.14917 0.90289 0.0
C539 C 0.30733 0.18864 0.90283 0.0
H540 H 0.28011 0.21399 0.91073 0.0
H541 H 0.41177 0.29323 0.92379 0.0
O542 O 0.31264 0.33051 0.82013 0.0
C543 C 0.40573 0.3797 0.87091 0.0
H544 H 0.17462 0.24695 0.22876 0.0
H545 H 0.22792 0.09176 0.21702 0.0
H546 H 0.2304 0.07346 0.25173 0.0
H547 H 0.21502 0.10051 0.28534 0.0
H548 H 0.16118 0.25547 0.29713 0.0
H549 H 0.16135 0.27473 0.26247 0.0
C550 C 0.18709 0.2092 0.23378 0.0
C551 C 0.20089 0.17076 0.22027 0.0
C552 C 0.18809 0.19877 0.25377 0.0
C553 C 0.2169 0.12205 0.22707 0.0
C554 C 0.2183 0.1115 0.24693 0.0
C555 C 0.2034 0.13855 0.28035 0.0
C556 C 0.18788 0.17636 0.29384 0.0
C557 C 0.20352 0.14939 0.2604 0.0
C558 C 0.17315 0.22553 0.28709 0.0
C559 C 0.17325 0.23663 0.26725 0.0
H560 H 0.22254 0.83314 0.71879 0.0
H561 H 0.05907 0.79812 0.72222 0.0
H562 H 0.06352 0.79803 0.75754 0.0
H563 H 0.11344 0.80883 0.78765 0.0
H564 H 0.27678 0.84447 0.7842 0.0
H565 H 0.27261 0.84317 0.74888 0.0
C566 C 0.18788 0.82545 0.72725 0.0
C567 C 0.14054 0.81575 0.71777 0.0
C568 C 0.1906 0.82551 0.74765 0.0
C569 C 0.09606 0.80582 0.72905 0.0
C570 C 0.09852 0.80571 0.7493 0.0
C571 C 0.14817 0.81617 0.77919 0.0
C572 C 0.19531 0.82677 0.78866 0.0
C573 C 0.14554 0.81563 0.75878 0.0
C574 C 0.23989 0.83623 0.77738 0.0
C575 C 0.23759 0.83554 0.75713 0.0
H576 H 0.8321 0.7555 0.2928 0.0
H577 H 0.75859 0.90417 0.28546 0.0
H578 H 0.76252 0.89444 0.25035 0.0
H579 H 0.7895 0.8456 0.22165 0.0
H580 H 0.86473 0.69772 0.22859 0.0
H581 H 0.85722 0.70528 0.26382 0.0
C582 C 0.81666 0.78562 0.28352 0.0
C583 C 0.79526 0.8306 0.29183 0.0
C584 C 0.81948 0.78006 0.26322 0.0
C585 C 0.7755 0.86924 0.27954 0.0
C586 C 0.77772 0.86375 0.25941 0.0
C587 C 0.80411 0.81484 0.23083 0.0
C588 C 0.82784 0.77125 0.22241 0.0
C589 C 0.80008 0.81961 0.25108 0.0
C590 C 0.84639 0.73181 0.23462 0.0
C591 C 0.84215 0.7361 0.2548 0.0
H592 H 0.89269 0.2161 0.71877 0.0
H593 H 0.73586 0.16756 0.70653 0.0
H594 H 0.71506 0.16986 0.74104 0.0
H595 H 0.74232 0.18211 0.7748 0.0
H596 H 0.89953 0.22947 0.78701 0.0
H597 H 0.91902 0.23146 0.7524 0.0
C598 C 0.8539 0.20623 0.72363 0.0
C599 C 0.81604 0.19141 0.71009 0.0
C600 C 0.84221 0.20734 0.74351 0.0
C601 C 0.76587 0.17892 0.71664 0.0
C602 C 0.75388 0.18021 0.73639 0.0
C603 C 0.78073 0.19325 0.7699 0.0
C604 C 0.81944 0.2053 0.78349 0.0
C605 C 0.79189 0.19387 0.74996 0.0
C606 C 0.86904 0.21969 0.77687 0.0
C607 C 0.88028 0.22082 0.75707 0.0
H608 H 0.66599 0.75158 0.7303 0.0
H609 H 0.72201 0.59806 0.71741 0.0
H610 H 0.72378 0.57769 0.75204 0.0
H611 H 0.70679 0.60269 0.78593 0.0
H612 H 0.64946 0.75607 0.79842 0.0
H613 H 0.6508 0.77707 0.76398 0.0
C614 C 0.67895 0.71373 0.73502 0.0
C615 C 0.69377 0.6764 0.72124 0.0
C616 C 0.67935 0.7021 0.75491 0.0
C617 C 0.71031 0.62753 0.72769 0.0
C618 C 0.71125 0.6158 0.74749 0.0
C619 C 0.69466 0.64074 0.78113 0.0
C620 C 0.6779 0.67763 0.79479 0.0
C621 C 0.69537 0.65264 0.76123 0.0
C622 C 0.66244 0.7268 0.78828 0.0
C623 C 0.66321 0.73893 0.76855 0.0
H624 H 0.65781 0.30003 0.28728 0.0
H625 H 0.82065 0.33617 0.28162 0.0
H626 H 0.81219 0.33717 0.24629 0.0
H627 H 0.7576 0.33072 0.21713 0.0
H628 H 0.5943 0.29704 0.22339 0.0
H629 H 0.60403 0.29234 0.25847 0.0
C630 C 0.69164 0.30785 0.27836 0.0
C631 C 0.73977 0.31813 0.28708 0.0
C632 C 0.68634 0.30914 0.25818 0.0
C633 C 0.78311 0.3282 0.27527 0.0
C634 C 0.77828 0.32889 0.25508 0.0
C635 C 0.72419 0.32226 0.22618 0.0
C636 C 0.67527 0.31447 0.21767 0.0
C637 C 0.72993 0.31994 0.24639 0.0
C638 C 0.63234 0.30353 0.22957 0.0
C639 C 0.63784 0.3007 0.24963 0.0
H640 H 0.35562 0.32457 0.78746 0.0
H641 H 0.18847 0.32818 0.78533 0.0
H642 H 0.19145 0.32554 0.74988 0.0
H643 H 0.242 0.32338 0.71933 0.0
H644 H 0.40925 0.3202 0.72221 0.0
H645 H 0.40552 0.32147 0.75742 0.0
C646 C 0.31974 0.32479 0.77929 0.0
C647 C 0.27192 0.32674 0.78909 0.0
C648 C 0.32172 0.32336 0.75896 0.0
C649 C 0.22588 0.32677 0.77819 0.0
C650 C 0.22754 0.32528 0.75789 0.0
C651 C 0.27757 0.32287 0.72768 0.0
C652 C 0.3258 0.32182 0.71806 0.0
C653 C 0.27529 0.32374 0.7481 0.0
C654 C 0.37153 0.32114 0.72914 0.0
C655 C 0.36953 0.32185 0.74934 0.0
H656 H 0.30619 0.6043 0.28057 0.0
H657 H 0.35827 0.75925 0.29355 0.0
H658 H 0.36377 0.7786 0.25889 0.0
H659 H 0.35549 0.7509 0.2248 0.0
H660 H 0.30252 0.59597 0.21212 0.0
H661 H 0.29566 0.57748 0.2467 0.0
C662 C 0.31866 0.64239 0.27586 0.0
C663 C 0.332 0.68014 0.28972 0.0
C664 C 0.32168 0.6533 0.25591 0.0
C665 C 0.34783 0.72935 0.28326 0.0
C666 C 0.35104 0.74046 0.26341 0.0
C667 C 0.34234 0.71311 0.22958 0.0
C668 C 0.32978 0.67487 0.21578 0.0
C669 C 0.33834 0.70263 0.24959 0.0
C670 C 0.31259 0.6262 0.22233 0.0
C671 C 0.30865 0.61551 0.24215 0.0
H672 H 0.07326 0.04163 0.16314 0.0
H673 H 0.08549 0.04553 0.10066 0.0
H674 H 0.00699 0.99306 0.09802 0.0
H675 H 0.93494 0.94708 0.11335 0.0
H676 H 0.92291 0.94221 0.17581 0.0
H677 H 0.00093 0.99557 0.17851 0.0
C678 C 0.05927 0.03044 0.14892 0.0
C679 C 0.08552 0.04721 0.13212 0.0
C680 C 0.01363 0.00116 0.1475 0.0
C681 C 0.06627 0.03291 0.11383 0.0
C682 C 0.02117 0.00326 0.1123 0.0
C683 C 0.94879 0.95827 0.12759 0.0
C684 C 0.92282 0.94093 0.14437 0.0
C685 C 0.99429 0.98769 0.12903 0.0
C686 C 0.94193 0.95527 0.16267 0.0
C687 C 0.98677 0.9854 0.16422 0.0
H688 H 0.91993 0.05789 0.89442 0.0
H689 H 0.99437 0.12923 0.84504 0.0
H690 H 0.05021 0.05385 0.84115 0.0
H691 H 0.07506 0.96619 0.85077 0.0
H692 H 0.00282 0.89511 0.90055 0.0
H693 H 0.94776 0.97135 0.90499 0.0
C694 C 0.94923 0.05745 0.88311 0.0
C695 C 0.95314 0.09914 0.87008 0.0
C696 C 0.98036 0.01341 0.88064 0.0
C697 C 0.99074 0.09764 0.85529 0.0
C698 C 0.02229 0.05436 0.85292 0.0
C699 C 0.04653 0.96704 0.86235 0.0
C700 C 0.04197 0.92479 0.87504 0.0
C701 C 0.01654 0.01156 0.86521 0.0
C702 C 0.00622 0.92698 0.89042 0.0
C703 C 0.97522 0.9707 0.89307 0.0
H704 H 0.94394 0.05444 0.6045 0.0
H705 H 0.88522 0.01927 0.66169 0.0
H706 H 0.95849 0.96184 0.66748 0.0
H707 H 0.04025 0.92339 0.65671 0.0
H708 H 0.09907 0.9576 0.59948 0.0
H709 H 0.02526 0.01454 0.59347 0.0
C710 C 0.94669 0.03347 0.61809 0.0
C711 C 0.90906 0.04092 0.6326 0.0
C712 C 0.98952 0.00131 0.6215 0.0
C713 C 0.91362 0.0141 0.65026 0.0
C714 C 0.95569 0.98155 0.65365 0.0
C715 C 0.03736 0.94392 0.64303 0.0
C716 C 0.07536 0.93679 0.62866 0.0
C717 C 0.99428 0.97553 0.6395 0.0
C718 C 0.07046 0.96278 0.61084 0.0
C719 C 0.02811 0.99503 0.60734 0.0
H720 H 0.06135 0.05612 0.34828 0.0
H721 H 0.00931 0.11554 0.40353 0.0
H722 H 0.94979 0.04303 0.40703 0.0
H723 H 0.91686 0.96036 0.3957 0.0
H724 H 0.96467 0.90036 0.34015 0.0
H725 H 0.02227 0.97523 0.33555 0.0
C726 C 0.03605 0.05378 0.36084 0.0
C727 C 0.03992 0.09104 0.37567 0.0
C728 C 0.00229 0.0113 0.36295 0.0
C729 C 0.00723 0.08726 0.39195 0.0
C730 C 0.97345 0.04562 0.39405 0.0
C731 C 0.94033 0.96328 0.38266 0.0
C732 C 0.93768 0.92435 0.36851 0.0
C733 C 0.97177 0.00679 0.37992 0.0
C734 C 0.96687 0.92955 0.35139 0.0
C735 C -0.00057 0.97244 0.34872 0.0
H736 H 0.44173 0.43514 0.61176 0.0
H737 H 0.39521 0.46275 0.67105 0.0
H738 H 0.47053 0.51921 0.67564 0.0
H739 H 0.54963 0.56074 0.66261 0.0
H740 H 0.595 0.53137 0.60332 0.0
H741 H 0.52061 0.47419 0.59913 0.0
C742 C 0.4475 0.45391 0.62566 0.0
C743 C 0.41245 0.44512 0.64097 0.0
C744 C 0.49133 0.48507 0.62832 0.0
C745 C 0.42127 0.46924 0.65895 0.0
C746 C 0.46457 0.50116 0.66163 0.0
C747 C 0.54376 0.54094 0.64892 0.0
C748 C 0.57792 0.54996 0.63333 0.0
C749 C 0.50012 0.50897 0.64645 0.0
C750 C 0.56933 0.52486 0.61555 0.0
C751 C 0.52661 0.49251 0.61309 0.0
H752 H 0.4511 0.55875 0.34356 0.0
H753 H 0.50679 0.61615 0.39854 0.0
H754 H 0.56516 0.54271 0.40131 0.0
H755 H 0.59545 0.45934 0.38958 0.0
H756 H 0.54425 0.40168 0.33418 0.0
H757 H 0.48823 0.47778 0.3302 0.0
C758 C 0.47698 0.55581 0.35588 0.0
C759 C 0.47438 0.59267 0.37088 0.0
C760 C 0.51004 0.51281 0.35757 0.0
C761 C 0.50786 0.58815 0.38685 0.0
C762 C 0.54096 0.54596 0.38854 0.0
C763 C 0.57156 0.46314 0.37672 0.0
C764 C 0.5726 0.42448 0.36245 0.0
C765 C 0.54115 0.50737 0.37431 0.0
C766 C 0.54311 0.43068 0.34552 0.0
C767 C 0.51149 0.47426 0.3432 0.0
H768 H 0.54989 0.4027 0.11039 0.0
H769 H 0.61958 0.47262 0.16089 0.0
H770 H 0.54467 0.52918 0.16471 0.0
H771 H 0.45897 0.55771 0.15414 0.0
H772 H 0.38926 0.4893 0.1034 0.0
H773 H 0.46409 0.43218 0.09955 0.0
C774 C 0.54909 0.43097 0.12201 0.0
C775 C 0.5904 0.43369 0.13525 0.0
C776 C 0.50538 0.46268 0.12439 0.0
C777 C 0.58837 0.46992 0.15045 0.0
C778 C 0.54537 0.50198 0.15275 0.0
C779 C 0.45967 0.52964 0.14245 0.0
C780 C 0.41835 0.52723 0.12923 0.0
C781 C 0.50336 0.49813 0.13999 0.0
C782 C 0.42042 0.4915 0.11388 0.0
C783 C 0.46337 0.4592 0.11157 0.0
H784 H 0.43475 0.44372 0.90024 0.0
H785 H 0.46719 0.40651 0.84041 0.0
H786 H 0.523 0.48249 0.83771 0.0
H787 H 0.55927 0.56128 0.85177 0.0
H788 H 0.52798 0.59915 0.91161 0.0
H789 H 0.474 0.52156 0.91476 0.0
C790 C 0.45493 0.45164 0.88674 0.0
C791 C 0.447 0.4194 0.87056 0.0
C792 C 0.48599 0.49617 0.88514 0.0
C793 C 0.47276 0.43066 0.85308 0.0
C794 C 0.50432 0.47432 0.85147 0.0
C795 C 0.54006 0.55305 0.86544 0.0
C796 C 0.54691 0.58642 0.88134 0.0
C797 C 0.51026 0.50791 0.86727 0.0
C798 C 0.52281 0.57438 0.89909 0.0
C799 C 0.49231 0.52984 0.90094 0.0
H800 H 0.32645 0.31609 0.98825 0.0
H801 H 0.23611 0.21003 0.95388 0.0
H802 H 0.1937 0.17698 0.98315 0.0
H803 H 0.18658 0.17443 0.01867 0.0
H804 H 0.2774 0.27986 0.0532 0.0
H805 H 0.31471 0.31766 0.02382 0.0
C806 C 0.297 0.2862 0.98725 0.0
C807 C 0.28373 0.26592 0.96904 0.0
C808 C 0.27284 0.26744 0.00415 0.0
C809 C 0.24597 0.2269 0.96778 0.0
C810 C 0.22204 0.20779 0.98449 0.0
C811 C 0.21394 0.20625 0.0197 0.0
C812 C 0.2286 0.22487 0.03802 0.0
C813 C 0.23563 0.22733 1.00276 0.0
C814 C 0.26437 0.2658 0.03924 0.0
C815 C 0.28625 0.28698 0.02245 0.0
H816 H 0.22244 0.73957 0.04174 0.0
H817 H 0.32258 0.62869 0.01374 0.0
H818 H 0.29769 0.66217 0.98205 0.0
H819 H 0.24358 0.71941 0.96221 0.0
H820 H 0.14527 0.83183 0.99025 0.0
H821 H 0.17384 0.80156 0.02195 0.0
C822 C 0.24017 0.72369 0.02882 0.0
C823 C 0.27503 0.68206 0.03028 0.0
C824 C 0.22572 0.7432 0.01055 0.0
C825 C 0.29565 0.66076 0.01313 0.0
C826 C 0.2815 0.67992 0.99495 0.0
C827 C 0.22957 0.73849 0.97516 0.0
C828 C 0.19281 0.77845 0.97371 0.0
C829 C 0.24612 0.7208 0.99345 0.0
C830 C 0.17363 0.80101 0.99087 0.0
C831 C 0.18994 0.78373 0.00905 0.0
H832 H 0.7387 0.696 0.9839 0.0
H833 H 0.63748 0.8261 0.97432 0.0
H834 H 0.66836 0.86695 0.00403 0.0
H835 H 0.72268 0.8652 0.03303 0.0
H836 H 0.82199 0.73438 0.0437 0.0
H837 H 0.79343 0.69419 0.01338 0.0
C838 C 0.72393 0.73347 0.98829 0.0
C839 C 0.68616 0.75821 0.97695 0.0
C840 C 0.74119 0.75638 0.00564 0.0
C841 C 0.66646 0.8063 0.98291 0.0
C842 C 0.68414 0.82973 0.99985 0.0
C843 C 0.73814 0.82794 0.02867 0.0
C844 C 0.77382 0.80248 0.04065 0.0
C845 C 0.72123 0.80502 0.01137 0.0
C846 C 0.79355 0.75419 0.03491 0.0
C847 C 0.77753 0.7314 0.0175 0.0
H848 H 0.80978 0.17328 0.984 0.0
H849 H 0.70928 0.27459 0.95171 0.0
H850 H 0.66872 0.30393 0.98179 0.0
H851 H 0.66769 0.30684 0.01751 0.0
H852 H 0.76912 0.20648 0.0498 0.0
H853 H 0.80309 0.17032 0.01961 0.0
C854 C 0.7784 0.20116 0.98359 0.0
C855 C 0.76212 0.22129 0.96568 0.0
C856 C 0.7556 0.21816 1.00096 0.0
C857 C 0.72162 0.25752 0.96526 0.0
C858 C 0.69883 0.27478 0.98249 0.0
C859 C 0.69655 0.27636 0.01787 0.0
C860 C 0.71536 0.25879 0.0358 0.0
C861 C 0.71624 0.25615 1.00044 0.0
C862 C 0.75307 0.21966 0.03617 0.0
C863 C 0.77294 0.19942 0.01891 0.0
H864 H 0.73956 0.24705 0.53668 0.0
H865 H 0.81642 0.11765 0.50971 0.0
H866 H 0.78901 0.148 0.47772 0.0
H867 H 0.73929 0.20884 0.45771 0.0
H868 H 0.66279 0.33844 0.4848 0.0
H869 H 0.69402 0.31049 0.5165 0.0
C870 C 0.7517 0.22638 0.52378 0.0
C871 C 0.78109 0.18087 0.52551 0.0
C872 C 0.7354 0.24381 0.50548 0.0
C873 C 0.79426 0.15312 0.5087 0.0
C874 C 0.77853 0.1704 0.49042 0.0
C875 C 0.73065 0.23185 0.47042 0.0
C876 C 0.69951 0.27627 0.46878 0.0
C877 C 0.74867 0.21547 0.48865 0.0
C878 C 0.68681 0.30416 0.48563 0.0
C879 C 0.70473 0.28829 0.50377 0.0
H880 H 0.26011 0.25969 0.46668 0.0
H881 H 0.1508 0.15823 0.49516 0.0
H882 H 0.18458 0.18428 0.5267 0.0
H883 H 0.24074 0.24022 0.54607 0.0
H884 H 0.35287 0.33865 0.51769 0.0
H885 H 0.32251 0.30889 0.48607 0.0
C886 C 0.24485 0.24167 0.47965 0.0
C887 C 0.20352 0.20622 0.47843 0.0
C888 C 0.26465 0.25661 0.49778 0.0
C889 C 0.18271 0.18552 0.49564 0.0
C890 C 0.20201 0.20035 0.5137 0.0
C891 C 0.26008 0.25375 0.53309 0.0
C892 C 0.2999 0.29084 0.53435 0.0
C893 C 0.24256 0.23634 0.51496 0.0
C894 C 0.32233 0.30986 0.51716 0.0
C895 C 0.30498 0.29289 0.49906 0.0
H896 H 0.26853 0.72262 0.54358 0.0
H897 H 0.1822 0.84685 0.51731 0.0
H898 H 0.21008 0.81861 0.48514 0.0
H899 H 0.26456 0.76301 0.46477 0.0
H900 H 0.35215 0.63958 0.49097 0.0
H901 H 0.31805 0.66293 0.52289 0.0
C902 C 0.25452 0.74253 0.53081 0.0
C903 C 0.22266 0.78631 0.53284 0.0
C904 C 0.27138 0.72652 0.51234 0.0
C905 C 0.2066 0.81291 0.51612 0.0
C906 C 0.22257 0.79683 0.49772 0.0
C907 C 0.27492 0.74014 0.47732 0.0
C908 C 0.31018 0.69902 0.47541 0.0
C909 C 0.25565 0.7542 0.49567 0.0
C910 C 0.32491 0.67131 0.49205 0.0
C911 C 0.30544 0.68464 0.51031 0.0
H912 H 0.84266 0.79414 0.49229 0.0
H913 H 0.69766 0.81425 0.46207 0.0
H914 H 0.65021 0.78706 0.4907 0.0
H915 H 0.64956 0.75361 0.5242 0.0
H916 H 0.79367 0.74041 0.55526 0.0
H917 H 0.84145 0.77048 0.52677 0.0
C918 C 0.80065 0.79289 0.49193 0.0
C919 C 0.77427 0.80352 0.4745 0.0
C920 C 0.77322 0.77916 0.5088 0.0
C921 C 0.71969 0.80296 0.47463 0.0
C922 C 0.69219 0.78834 0.49123 0.0
C923 C 0.69135 0.75822 0.52475 0.0
C924 C 0.71804 0.74558 0.54182 0.0
C925 C 0.71856 0.77549 0.5083 0.0
C926 C 0.77216 0.75126 0.54244 0.0
C927 C 0.79956 0.76781 0.52606 0.0
H928 H 0.57095 0.17697 0.11321 0.0
H929 H 0.57641 0.22449 0.17326 0.0
H930 H 0.48615 0.2006 0.17744 0.0
H931 H 0.40236 0.18251 0.16247 0.0
H932 H 0.3971 0.12257 0.10413 0.0
H933 H 0.49042 0.13657 0.10073 0.0
C934 C 0.55292 0.18061 0.12737 0.0
C935 C 0.58022 0.20431 0.14266 0.0
C936 C 0.50058 0.16636 0.12983 0.0
C937 C 0.55635 0.20754 0.16103 0.0
C938 C 0.50438 0.19421 0.16346 0.0
C939 C 0.42155 0.17046 0.14924 0.0
C940 C 0.39218 0.15333 0.13334 0.0
C941 C 0.47551 0.1761 0.1477 0.0
C942 C 0.41831 0.13831 0.11631 0.0
C943 C 0.47184 0.14567 0.11442 0.0
H944 H 0.1955 0.61515 0.89837 0.0
H945 H 0.11944 0.61297 0.84271 0.0
H946 H 0.13739 0.52047 0.83968 0.0
H947 H 0.18351 0.44244 0.85175 0.0
H948 H 0.24494 0.4445 0.91002 0.0
H949 H 0.21996 0.5342 0.91366 0.0
C950 C 0.18055 0.59454 0.88591 0.0
C951 C 0.15744 0.6217 0.87057 0.0
C952 C 0.18793 0.54098 0.8848 0.0
C953 C 0.13958 0.59368 0.85439 0.0
C954 C 0.14914 0.54054 0.85275 0.0
C955 C 0.19 0.46209 0.86543 0.0
C956 C 0.21729 0.43693 0.88035 0.0
C957 C 0.17475 0.51405 0.86767 0.0
C958 C 0.22454 0.46274 0.89814 0.0
C959 C 0.21071 0.51443 0.90023 0.0
H960 H 0.43899 0.78121 0.1557 0.0
H961 H 0.44696 0.73532 0.0955 0.0
H962 H 0.53744 0.76144 0.0941 0.0
H963 H 0.61707 0.78372 0.11124 0.0
H964 H 0.60925 0.83846 0.17027 0.0
H965 H 0.5162 0.82018 0.17107 0.0
C966 C 0.46006 0.77819 0.14212 0.0
C967 C 0.43622 0.75522 0.12586 0.0
C968 C 0.51254 0.79306 0.14138 0.0
C969 C 0.46412 0.75237 0.10833 0.0
C970 C 0.51621 0.76681 0.10753 0.0
C971 C 0.595 0.79354 0.1241 0.0
C972 C 0.62055 0.81173 0.14077 0.0
C973 C 0.54128 0.78514 0.12418 0.0
C974 C 0.59103 0.82283 0.15742 0.0
C975 C 0.53763 0.81302 0.15781 0.0
H976 H 0.74273 0.56181 0.85032 0.0
H977 H 0.80978 0.59009 0.90661 0.0
H978 H 0.84483 0.50177 0.90692 0.0
H979 H 0.8479 0.41347 0.89244 0.0
H980 H 0.76557 0.38532 0.83902 0.0
H981 H 0.74558 0.47667 0.83623 0.0
C982 C 0.76599 0.54944 0.86254 0.0
C983 C 0.77372 0.58283 0.87839 0.0
C984 C 0.78273 0.49805 0.8632 0.0
C985 C 0.80345 0.56535 0.89416 0.0
C986 C 0.82301 0.51467 0.89442 0.0
C987 C 0.82532 0.42743 0.88029 0.0
C988 C 0.80869 0.39251 0.86586 0.0
C989 C 0.81129 0.48008 0.87929 0.0
C990 C 0.78002 0.41131 0.85007 0.0
C991 C 0.76814 0.4636 0.84853 0.0
H992 H 0.42716 0.18597 0.61098 0.0
H993 H 0.43671 0.24378 0.66967 0.0
H994 H 0.52764 0.2209 0.67104 0.0
H995 H 0.60655 0.19971 0.65368 0.0
H996 H 0.59757 0.12468 0.59788 0.0
H997 H 0.50438 0.14182 0.59683 0.0
C998 C 0.44877 0.19193 0.62427 0.0
C999 C 0.42528 0.21763 0.64001 0.0
C1000 C 0.5014 0.17773 0.62519 0.0
C1001 C 0.4536 0.22441 0.65725 0.0
C1002 C 0.50597 0.2119 0.65801 0.0
C1003 C 0.58449 0.18454 0.64163 0.0
C1004 C 0.60988 0.16196 0.6257 0.0
C1005 C 0.53064 0.19071 0.64178 0.0
C1006 C 0.57976 0.14443 0.61 0.0
C1007 C 0.5262 0.15338 0.60953 0.0
H1008 H 0.15473 0.40631 0.3581 0.0
H1009 H 0.23765 0.36703 0.41038 0.0
H1010 H 0.26332 0.45659 0.41456 0.0
H1011 H 0.27056 0.54333 0.40188 0.0
H1012 H 0.2012 0.58221 0.3469 0.0
H1013 H 0.16177 0.49583 0.34525 0.0
C1014 C 0.17851 0.41749 0.37036 0.0
C1015 C 0.19356 0.38005 0.38406 0.0
C1016 C 0.19566 0.469 0.37216 0.0
C1017 C 0.22409 0.39514 0.39993 0.0
C1018 C 0.23933 0.44637 0.40225 0.0
C1019 C 0.24592 0.53357 0.38968 0.0
C1020 C 0.23874 0.56928 0.37456 0.0
C1021 C 0.22615 0.48334 0.3883 0.0
C1022 C 0.20721 0.55545 0.35877 0.0
C1023 C 0.18504 0.50595 0.35775 0.0
H1024 H 0.55907 0.81389 0.61993 0.0
H1025 H 0.5561 0.74908 0.67769 0.0
H1026 H 0.46562 0.77273 0.68121 0.0
H1027 H 0.38396 0.79557 0.66547 0.0
H1028 H 0.38714 0.87154 0.60978 0.0
H1029 H 0.48078 0.85865 0.60774 0.0
C1030 C 0.53909 0.80644 0.63351 0.0
C1031 C 0.56412 0.77837 0.64825 0.0
C1032 C 0.48669 0.8205 0.6356 0.0
C1033 C 0.53788 0.77 0.66593 0.0
C1034 C 0.48576 0.78307 0.66795 0.0
C1035 C 0.40507 0.81127 0.65321 0.0
C1036 C 0.3781 0.83255 0.63745 0.0
C1037 C 0.45917 0.8059 0.65251 0.0
C1038 C 0.40661 0.85257 0.62171 0.0
C1039 C 0.46029 0.84576 0.62061 0.0
H1040 H 0.86064 0.59852 0.35778 0.0
H1041 H 0.77263 0.63015 0.4097 0.0
H1042 H 0.75777 0.53813 0.41455 0.0
H1043 H 0.75994 0.45043 0.40203 0.0
H1044 H 0.83868 0.41798 0.34812 0.0
H1045 H 0.86818 0.5079 0.34633 0.0
C1046 C 0.83839 0.58505 0.37015 0.0
C1047 C 0.81794 0.62109 0.38339 0.0
C1048 C 0.82855 0.53182 0.37256 0.0
C1049 C 0.78958 0.60322 0.39948 0.0
C1050 C 0.78079 0.55054 0.40222 0.0
C1051 C 0.78487 0.46242 0.39016 0.0
C1052 C 0.79675 0.42745 0.37517 0.0
C1053 C 0.79907 0.51463 0.38864 0.0
C1054 C 0.82888 0.44407 0.35986 0.0
C1055 C 0.84523 0.49568 0.3587 0.0
H1056 H 0.04325 0.74019 0.60633 0.0
H1057 H 0.08094 0.67051 0.66129 0.0
H1058 H 0.99192 0.63729 0.66413 0.0
H1059 H 0.90083 0.63751 0.65254 0.0
H1060 H 0.86367 0.72583 0.60124 0.0
H1061 H 0.95468 0.74098 0.59513 0.0
C1062 C 0.03259 0.71634 0.61867 0.0
C1063 C 0.06882 0.70714 0.63344 0.0
C1064 C 0.98083 0.70118 0.62091 0.0
C1065 C 0.05384 0.6775 0.64961 0.0
C1066 C 0.00282 0.65909 0.65132 0.0
C1067 C 0.91257 0.66039 0.64013 0.0
C1068 C 0.87492 0.67964 0.62722 0.0
C1069 C 0.96542 0.67246 0.63739 0.0
C1070 C 0.89132 0.70857 0.61104 0.0
C1071 C 0.94362 0.71803 0.60764 0.0
H1072 H 0.69319 0.93784 0.34892 0.0
H1073 H 0.71864 0.93278 0.41083 0.0
H1074 H 0.69709 0.02377 0.41342 0.0
H1075 H 0.6896 0.10724 0.39726 0.0
H1076 H 0.64849 0.11254 0.33667 0.0
H1077 H 0.65976 0.019 0.33433 0.0
C1078 C 0.69222 0.95607 0.36307 0.0
C1079 C 0.70969 0.92878 0.37949 0.0
C1080 C 0.67923 0.00885 0.36462 0.0
C1081 C 0.70686 0.95296 0.39779 0.0
C1082 C 0.69491 0.00531 0.39933 0.0
C1083 C 0.68071 0.08826 0.38368 0.0
C1084 C 0.6703 0.1177 0.367 0.0
C1085 C 0.68394 0.03418 0.38269 0.0
C1086 C 0.65961 0.09148 0.34955 0.0
C1087 C 0.66515 0.03772 0.34825 0.0
H1088 H 0.08472 0.34912 0.64746 0.0
H1089 H 0.13216 0.26362 0.59667 0.0
H1090 H 0.04255 0.24291 0.58946 0.0
H1091 H 0.95244 0.23975 0.59938 0.0
H1092 H 0.90469 0.31144 0.65297 0.0
H1093 H 0.99211 0.34715 0.65725 0.0
C1094 C 0.07536 0.32587 0.63487 0.0
C1095 C 0.11528 0.30863 0.6225 0.0
C1096 C 0.02349 0.31163 0.63129 0.0
C1097 C 0.10237 0.27886 0.60614 0.0
C1098 C 0.05101 0.26646 0.60207 0.0
C1099 C 0.96059 0.26445 0.61173 0.0
C1100 C 0.92199 0.27329 0.62574 0.0
C1101 C 0.01142 0.28178 0.61472 0.0
C1102 C 0.93368 0.30442 0.64189 0.0
C1103 C 0.98379 0.32434 0.64443 0.0
H1104 H 0.24525 0.04097 0.40421 0.0
H1105 H 0.31403 0.08621 0.34968 0.0
H1106 H 0.35283 0.00014 0.34634 0.0
H1107 H 0.35898 0.90903 0.35743 0.0
H1108 H 0.2779 0.86365 0.40957 0.0
H1109 H 0.25272 0.95264 0.41544 0.0
C1110 C 0.26977 0.0326 0.39179 0.0
C1111 C 0.27682 0.06998 0.37724 0.0
C1112 C 0.28926 0.98253 0.38944 0.0
C1113 C 0.30813 0.05808 0.36112 0.0
C1114 C 0.32991 0.00875 0.35913 0.0
C1115 C 0.33576 0.91878 0.37003 0.0
C1116 C 0.32098 0.8798 0.38317 0.0
C1117 C 0.3192 0.97009 0.37289 0.0
C1118 C 0.29114 0.89299 0.39951 0.0
C1119 C 0.27624 0.94391 0.40281 0.0
H1120 H 0.94287 0.68424 0.15801 0.0
H1121 H 0.93778 0.74037 0.09898 0.0
H1122 H 0.02727 0.71502 0.09412 0.0
H1123 H 0.11035 0.69115 0.1082 0.0
H1124 H 0.11486 0.62229 0.16516 0.0
H1125 H 0.02261 0.64046 0.16949 0.0
C1126 C 0.96081 0.68956 0.14391 0.0
C1127 C 0.93378 0.71566 0.12912 0.0
C1128 C 0.01271 0.67442 0.14103 0.0
C1129 C 0.95758 0.72129 0.11082 0.0
C1130 C 0.00912 0.70716 0.108 0.0
C1131 C 0.09116 0.67804 0.12129 0.0
C1132 C 0.1202 0.65655 0.1365 0.0
C1133 C 0.03764 0.68585 0.12326 0.0
C1134 C 0.09413 0.641 0.15349 0.0
C1135 C 0.04111 0.65068 0.15589 0.0
H1136 H 0.70106 0.89331 0.84763 0.0
H1137 H 0.62559 0.90811 0.90322 0.0
H1138 H 0.6436 0.00108 0.90324 0.0
H1139 H 0.68941 0.07608 0.88877 0.0
H1140 H 0.75512 0.06104 0.83134 0.0
H1141 H 0.729 0.9708 0.83025 0.0
C1142 C 0.68668 0.91684 0.85946 0.0
C1143 C 0.66313 0.89331 0.87562 0.0
C1144 C 0.69508 0.97047 0.85899 0.0
C1145 C 0.64562 0.92485 0.89091 0.0
C1146 C 0.65539 0.97815 0.89084 0.0
C1147 C 0.69677 0.05347 0.87581 0.0
C1148 C 0.72531 0.07526 0.86038 0.0
C1149 C 0.68147 0.00116 0.87517 0.0
C1150 C 0.73373 0.04546 0.84357 0.0
C1151 C 0.71922 0.9935 0.84295 0.0
H1152 H 0.89987 0.2875 0.16035 0.0
H1153 H 0.90039 0.35007 0.10235 0.0
H1154 H 0.99424 0.33747 0.10042 0.0
H1155 H 0.07425 0.29958 0.11434 0.0
H1156 H 0.0729 0.24971 0.17419 0.0
H1157 H 0.98161 0.27095 0.17673 0.0
C1158 C 0.92028 0.30059 0.14753 0.0
C1159 C 0.89247 0.3185 0.13135 0.0
C1160 C 0.97439 0.2962 0.14693 0.0
C1161 C 0.92028 0.33396 0.11475 0.0
C1162 C 0.97415 0.32755 0.11373 0.0
C1163 C 0.05447 0.29489 0.12813 0.0
C1164 C 0.08034 0.27144 0.14384 0.0
C1165 C 0.00146 0.30731 0.1296 0.0
C1166 C 0.05411 0.26672 0.16169 0.0
C1167 C 0.00155 0.27838 0.16316 0.0
H1168 H 0.22963 0.95943 0.84647 0.0
H1169 H 0.31275 0.92116 0.89872 0.0
H1170 H 0.3503 0.00885 0.89931 0.0
H1171 H 0.35243 0.09866 0.88627 0.0
H1172 H 0.25127 0.13728 0.83858 0.0
H1173 H 0.22941 0.04682 0.8344 0.0
C1174 C 0.257 0.9696 0.85779 0.0
C1175 C 0.26915 0.93356 0.87236 0.0
C1176 C 0.27504 0.02047 0.85879 0.0
C1177 C 0.30335 0.94809 0.88722 0.0
C1178 C 0.32442 -0.00174 0.88761 0.0
C1179 C 0.32521 0.08729 0.8751 0.0
C1180 C 0.30398 0.12502 0.86264 0.0
C1181 C 0.30926 0.03526 0.87375 0.0
C1182 C 0.2696 0.10932 0.848 0.0
C1183 C 0.2564 0.0575 0.84575 0.0
loop_
_geom_bond_atom_site_label_1
_geom_bond_atom_site_label_2
_geom_bond_distance
_geom_bond_site_symmetry_2
_ccdc_geom_bond_type
Co0 O3 1.970 . S
Co0 N17 1.989 . S
Co0 O25 1.967 . S
Co0 O32 1.920 . S
Co1 O4 1.966 . S
Co1 N10 2.022 . S
Co1 N18 1.993 . S
Co1 O26 1.941 . S
C2 O3 1.258 . S
C2 O4 1.263 . S
O3 Co0 1.970 . S
O3 C2 1.258 . S
O4 Co1 1.966 . S
O4 C2 1.263 . S
C5 O6 1.235 . S
C5 O32 1.289 . S
O6 C5 1.235 . S
C7 C9 1.400 . S
C7 N10 1.351 . S
C7 C12 1.501 . S
C8 C9 1.387 . S
C8 N11 1.341 . S
C9 C7 1.400 . S
C9 C8 1.387 . S
N10 Co1 2.022 . S
N10 C7 1.351 . S
N10 N11 1.365 . S
N11 C8 1.341 . S
N11 N10 1.365 . S
N11 H31 0.862 . S
C12 C7 1.501 . S
C12 H13 0.961 . S
C12 H14 0.961 . S
C12 H15 0.960 . S
H13 C12 0.961 . S
H14 C12 0.961 . S
H15 C12 0.960 . S
C16 N17 1.342 . S
C16 C20 1.401 . S
C16 C21 1.499 . S
N17 Co0 1.989 . S
N17 C16 1.342 . S
N17 N18 1.388 . S
N18 Co1 1.993 . S
N18 N17 1.388 . S
N18 C19 1.346 . S
C19 N18 1.346 . S
C19 C20 1.396 . S
C19 C29 1.510 . S
C20 C16 1.401 . S
C20 C19 1.396 . S
C21 C16 1.499 . S
C21 H22 0.959 . S
C21 H23 0.960 . S
C21 H24 0.961 . S
H22 C21 0.959 . S
H23 C21 0.960 . S
H24 C21 0.961 . S
O25 Co0 1.967 . S
O25 C33 1.258 . S
O26 Co1 1.941 . S
O26 C33 1.266 . S
H27 C29 0.959 . S
H28 C29 0.961 . S
C29 C19 1.510 . S
C29 H27 0.959 . S
C29 H28 0.961 . S
C29 H30 0.960 . S
H30 C29 0.960 . S
H31 N11 0.862 . S
O32 Co0 1.920 . S
O32 C5 1.289 . S
C33 O25 1.258 . S
C33 O26 1.266 . S
Co34 O37 1.970 . S
Co34 N51 1.989 . S
Co34 O59 1.967 . S
Co34 O66 1.920 . S
Co35 O38 1.966 . S
Co35 N44 2.022 . S
Co35 N52 1.993 . S
Co35 O60 1.941 . S
C36 O37 1.258 . S
C36 O38 1.263 . S
O37 Co34 1.970 . S
O37 C36 1.258 . S
O38 Co35 1.966 . S
O38 C36 1.263 . S
C39 O40 1.235 . S
C39 O66 1.289 . S
O40 C39 1.235 . S
C41 C43 1.400 . S
C41 N44 1.351 . S
C41 C46 1.501 . S
C42 C43 1.387 . S
C42 N45 1.341 . S
C43 C41 1.400 . S
C43 C42 1.387 . S
N44 Co35 2.022 . S
N44 C41 1.351 . S
N44 N45 1.365 . S
N45 C42 1.341 . S
N45 N44 1.365 . S
N45 H65 0.862 . S
C46 C41 1.501 . S
C46 H47 0.961 . S
C46 H48 0.961 . S
C46 H49 0.960 . S
H47 C46 0.961 . S
H48 C46 0.961 . S
H49 C46 0.960 . S
C50 N51 1.342 . S
C50 C54 1.401 . S
C50 C55 1.499 . S
N51 Co34 1.989 . S
N51 C50 1.342 . S
N51 N52 1.388 . S
N52 Co35 1.993 . S
N52 N51 1.388 . S
N52 C53 1.346 . S
C53 N52 1.346 . S
C53 C54 1.396 . S
C53 C63 1.510 . S
C54 C50 1.401 . S
C54 C53 1.396 . S
C55 C50 1.499 . S
C55 H56 0.959 . S
C55 H57 0.960 . S
C55 H58 0.961 . S
H56 C55 0.959 . S
H57 C55 0.960 . S
H58 C55 0.961 . S
O59 Co34 1.967 . S
O59 C67 1.258 . S
O60 Co35 1.941 . S
O60 C67 1.266 . S
H61 C63 0.959 . S
H62 C63 0.961 . S
C63 C53 1.510 . S
C63 H61 0.959 . S
C63 H62 0.961 . S
C63 H64 0.960 . S
H64 C63 0.960 . S
H65 N45 0.862 . S
O66 Co34 1.920 . S
O66 C39 1.289 . S
C67 O59 1.258 . S
C67 O60 1.266 . S
Co68 O71 1.970 . S
Co68 N85 1.989 . S
Co68 O93 1.967 . S
Co68 O100 1.920 . S
Co69 O72 1.966 . S
Co69 N78 2.022 . S
Co69 N86 1.993 . S
Co69 O94 1.941 . S
C70 O71 1.258 . S
C70 O72 1.263 . S
O71 Co68 1.970 . S
O71 C70 1.258 . S
O72 Co69 1.966 . S
O72 C70 1.263 . S
C73 O74 1.235 . S
C73 O100 1.289 . S
O74 C73 1.235 . S
C75 C77 1.400 . S
C75 N78 1.351 . S
C75 C80 1.501 . S
C76 C77 1.387 . S
C76 N79 1.341 . S
C77 C75 1.400 . S
C77 C76 1.387 . S
N78 Co69 2.022 . S
N78 C75 1.351 . S
N78 N79 1.365 . S
N79 C76 1.341 . S
N79 N78 1.365 . S
N79 H99 0.862 . S
C80 C75 1.501 . S
C80 H81 0.961 . S
C80 H82 0.961 . S
C80 H83 0.960 . S
H81 C80 0.961 . S
H82 C80 0.961 . S
H83 C80 0.960 . S
C84 N85 1.342 . S
C84 C88 1.401 . S
C84 C89 1.499 . S
N85 Co68 1.989 . S
N85 C84 1.342 . S
N85 N86 1.388 . S
N86 Co69 1.993 . S
N86 N85 1.388 . S
N86 C87 1.346 . S
C87 N86 1.346 . S
C87 C88 1.396 . S
C87 C97 1.510 . S
C88 C84 1.401 . S
C88 C87 1.396 . S
C89 C84 1.499 . S
C89 H90 0.959 . S
C89 H91 0.960 . S
C89 H92 0.961 . S
H90 C89 0.959 . S
H91 C89 0.960 . S
H92 C89 0.961 . S
O93 Co68 1.967 . S
O93 C101 1.258 . S
O94 Co69 1.941 . S
O94 C101 1.266 . S
H95 C97 0.959 . S
H96 C97 0.961 . S
C97 C87 1.510 . S
C97 H95 0.959 . S
C97 H96 0.961 . S
C97 H98 0.960 . S
H98 C97 0.960 . S
H99 N79 0.862 . S
O100 Co68 1.920 . S
O100 C73 1.289 . S
C101 O93 1.258 . S
C101 O94 1.266 . S
Co102 O105 1.970 . S
Co102 N119 1.989 . S
Co102 O127 1.967 . S
Co102 O134 1.920 . S
Co103 O106 1.966 . S
Co103 N112 2.022 . S
Co103 N120 1.993 . S
Co103 O128 1.941 . S
C104 O105 1.258 . S
C104 O106 1.263 . S
O105 Co102 1.970 . S
O105 C104 1.258 . S
O106 Co103 1.966 . S
O106 C104 1.263 . S
C107 O108 1.235 . S
C107 O134 1.289 . S
O108 C107 1.235 . S
C109 C111 1.400 . S
C109 N112 1.351 . S
C109 C114 1.501 . S
C110 C111 1.387 . S
C110 N113 1.341 . S
C111 C109 1.400 . S
C111 C110 1.387 . S
N112 Co103 2.022 . S
N112 C109 1.351 . S
N112 N113 1.365 . S
N113 C110 1.341 . S
N113 N112 1.365 . S
N113 H133 0.862 . S
C114 C109 1.501 . S
C114 H115 0.961 . S
C114 H116 0.961 . S
C114 H117 0.960 . S
H115 C114 0.961 . S
H116 C114 0.961 . S
H117 C114 0.960 . S
C118 N119 1.342 . S
C118 C122 1.401 . S
C118 C123 1.499 . S
N119 Co102 1.989 . S
N119 C118 1.342 . S
N119 N120 1.388 . S
N120 Co103 1.993 . S
N120 N119 1.388 . S
N120 C121 1.346 . S
C121 N120 1.346 . S
C121 C122 1.396 . S
C121 C131 1.510 . S
C122 C118 1.401 . S
C122 C121 1.396 . S
C123 C118 1.499 . S
C123 H124 0.959 . S
C123 H125 0.960 . S
C123 H126 0.961 . S
H124 C123 0.959 . S
H125 C123 0.960 . S
H126 C123 0.961 . S
O127 Co102 1.967 . S
O127 C135 1.258 . S
O128 Co103 1.941 . S
O128 C135 1.266 . S
H129 C131 0.959 . S
H130 C131 0.961 . S
C131 C121 1.510 . S
C131 H129 0.959 . S
C131 H130 0.961 . S
C131 H132 0.960 . S
H132 C131 0.960 . S
H133 N113 0.862 . S
O134 Co102 1.920 . S
O134 C107 1.289 . S
C135 O127 1.258 . S
C135 O128 1.266 . S
Co136 O139 1.970 . S
Co136 N153 1.989 . S
Co136 O161 1.967 . S
Co136 O168 1.920 . S
Co137 O140 1.966 . S
Co137 N146 2.022 . S
Co137 N154 1.993 . S
Co137 O162 1.941 . S
C138 O139 1.258 . S
C138 O140 1.263 . S
O139 Co136 1.970 . S
O139 C138 1.258 . S
O140 Co137 1.966 . S
O140 C138 1.263 . S
C141 O142 1.235 . S
C141 O168 1.289 . S
O142 C141 1.235 . S
C143 C145 1.400 . S
C143 N146 1.351 . S
C143 C148 1.501 . S
C144 C145 1.387 . S
C144 N147 1.341 . S
C145 C143 1.400 . S
C145 C144 1.387 . S
N146 Co137 2.022 . S
N146 C143 1.351 . S
N146 N147 1.365 . S
N147 C144 1.341 . S
N147 N146 1.365 . S
N147 H167 0.862 . S
C148 C143 1.501 . S
C148 H149 0.961 . S
C148 H150 0.961 . S
C148 H151 0.960 . S
H149 C148 0.961 . S
H150 C148 0.961 . S
H151 C148 0.960 . S
C152 N153 1.342 . S
C152 C156 1.401 . S
C152 C157 1.499 . S
N153 Co136 1.989 . S
N153 C152 1.342 . S
N153 N154 1.388 . S
N154 Co137 1.993 . S
N154 N153 1.388 . S
N154 C155 1.346 . S
C155 N154 1.346 . S
C155 C156 1.396 . S
C155 C165 1.510 . S
C156 C152 1.401 . S
C156 C155 1.396 . S
C157 C152 1.499 . S
C157 H158 0.959 . S
C157 H159 0.960 . S
C157 H160 0.961 . S
H158 C157 0.959 . S
H159 C157 0.960 . S
H160 C157 0.961 . S
O161 Co136 1.967 . S
O161 C169 1.258 . S
O162 Co137 1.941 . S
O162 C169 1.266 . S
H163 C165 0.959 . S
H164 C165 0.961 . S
C165 C155 1.510 . S
C165 H163 0.959 . S
C165 H164 0.961 . S
C165 H166 0.960 . S
H166 C165 0.960 . S
H167 N147 0.862 . S
O168 Co136 1.920 . S
O168 C141 1.289 . S
C169 O161 1.258 . S
C169 O162 1.266 . S
Co170 O173 1.970 . S
Co170 N187 1.989 . S
Co170 O195 1.967 . S
Co170 O202 1.920 . S
Co171 O174 1.966 . S
Co171 N180 2.022 . S
Co171 N188 1.993 . S
Co171 O196 1.941 . S
C172 O173 1.258 . S
C172 O174 1.263 . S
O173 Co170 1.970 . S
O173 C172 1.258 . S
O174 Co171 1.966 . S
O174 C172 1.263 . S
C175 O176 1.235 . S
C175 O202 1.289 . S
O176 C175 1.235 . S
C177 C179 1.400 . S
C177 N180 1.351 . S
C177 C182 1.501 . S
C178 C179 1.387 . S
C178 N181 1.341 . S
C179 C177 1.400 . S
C179 C178 1.387 . S
N180 Co171 2.022 . S
N180 C177 1.351 . S
N180 N181 1.365 . S
N181 C178 1.341 . S
N181 N180 1.365 . S
N181 H201 0.862 . S
C182 C177 1.501 . S
C182 H183 0.961 . S
C182 H184 0.961 . S
C182 H185 0.960 . S
H183 C182 0.961 . S
H184 C182 0.961 . S
H185 C182 0.960 . S
C186 N187 1.342 . S
C186 C190 1.401 . S
C186 C191 1.499 . S
N187 Co170 1.989 . S
N187 C186 1.342 . S
N187 N188 1.388 . S
N188 Co171 1.993 . S
N188 N187 1.388 . S
N188 C189 1.346 . S
C189 N188 1.346 . S
C189 C190 1.396 . S
C189 C199 1.510 . S
C190 C186 1.401 . S
C190 C189 1.396 . S
C191 C186 1.499 . S
C191 H192 0.959 . S
C191 H193 0.960 . S
C191 H194 0.961 . S
H192 C191 0.959 . S
H193 C191 0.960 . S
H194 C191 0.961 . S
O195 Co170 1.967 . S
O195 C203 1.258 . S
O196 Co171 1.941 . S
O196 C203 1.266 . S
H197 C199 0.959 . S
H198 C199 0.961 . S
C199 C189 1.510 . S
C199 H197 0.959 . S
C199 H198 0.961 . S
C199 H200 0.960 . S
H200 C199 0.960 . S
H201 N181 0.862 . S
O202 Co170 1.920 . S
O202 C175 1.289 . S
C203 O195 1.258 . S
C203 O196 1.266 . S
Co204 O207 1.970 . S
Co204 N221 1.989 . S
Co204 O229 1.967 . S
Co204 O236 1.920 . S
Co205 O208 1.966 . S
Co205 N214 2.022 . S
Co205 N222 1.993 . S
Co205 O230 1.941 . S
C206 O207 1.258 . S
C206 O208 1.263 . S
O207 Co204 1.970 . S
O207 C206 1.258 . S
O208 Co205 1.966 . S
O208 C206 1.263 . S
C209 O210 1.235 . S
C209 O236 1.289 . S
O210 C209 1.235 . S
C211 C213 1.400 . S
C211 N214 1.351 . S
C211 C216 1.501 . S
C212 C213 1.387 . S
C212 N215 1.341 . S
C213 C211 1.400 . S
C213 C212 1.387 . S
N214 Co205 2.022 . S
N214 C211 1.351 . S
N214 N215 1.365 . S
N215 C212 1.341 . S
N215 N214 1.365 . S
N215 H235 0.862 . S
C216 C211 1.501 . S
C216 H217 0.961 . S
C216 H218 0.961 . S
C216 H219 0.960 . S
H217 C216 0.961 . S
H218 C216 0.961 . S
H219 C216 0.960 . S
C220 N221 1.342 . S
C220 C224 1.401 . S
C220 C225 1.499 . S
N221 Co204 1.989 . S
N221 C220 1.342 . S
N221 N222 1.388 . S
N222 Co205 1.993 . S
N222 N221 1.388 . S
N222 C223 1.346 . S
C223 N222 1.346 . S
C223 C224 1.396 . S
C223 C233 1.510 . S
C224 C220 1.401 . S
C224 C223 1.396 . S
C225 C220 1.499 . S
C225 H226 0.959 . S
C225 H227 0.960 . S
C225 H228 0.961 . S
H226 C225 0.959 . S
H227 C225 0.960 . S
H228 C225 0.961 . S
O229 Co204 1.967 . S
O229 C237 1.258 . S
O230 Co205 1.941 . S
O230 C237 1.266 . S
H231 C233 0.959 . S
H232 C233 0.961 . S
C233 C223 1.510 . S
C233 H231 0.959 . S
C233 H232 0.961 . S
C233 H234 0.960 . S
H234 C233 0.960 . S
H235 N215 0.862 . S
O236 Co204 1.920 . S
O236 C209 1.289 . S
C237 O229 1.258 . S
C237 O230 1.266 . S
Co238 O241 1.970 . S
Co238 N255 1.989 . S
Co238 O263 1.967 . S
Co238 O270 1.920 . S
Co239 O242 1.966 . S
Co239 N248 2.022 . S
Co239 N256 1.993 . S
Co239 O264 1.941 . S
C240 O241 1.258 . S
C240 O242 1.263 . S
O241 Co238 1.970 . S
O241 C240 1.258 . S
O242 Co239 1.966 . S
O242 C240 1.263 . S
C243 O244 1.235 . S
C243 O270 1.289 . S
O244 C243 1.235 . S
C245 C247 1.400 . S
C245 N248 1.351 . S
C245 C250 1.501 . S
C246 C247 1.387 . S
C246 N249 1.341 . S
C247 C245 1.400 . S
C247 C246 1.387 . S
N248 Co239 2.022 . S
N248 C245 1.351 . S
N248 N249 1.365 . S
N249 C246 1.341 . S
N249 N248 1.365 . S
N249 H269 0.862 . S
C250 C245 1.501 . S
C250 H251 0.961 . S
C250 H252 0.961 . S
C250 H253 0.960 . S
H251 C250 0.961 . S
H252 C250 0.961 . S
H253 C250 0.960 . S
C254 N255 1.342 . S
C254 C258 1.401 . S
C254 C259 1.499 . S
N255 Co238 1.989 . S
N255 C254 1.342 . S
N255 N256 1.388 . S
N256 Co239 1.993 . S
N256 N255 1.388 . S
N256 C257 1.346 . S
C257 N256 1.346 . S
C257 C258 1.396 . S
C257 C267 1.510 . S
C258 C254 1.401 . S
C258 C257 1.396 . S
C259 C254 1.499 . S
C259 H260 0.959 . S
C259 H261 0.960 . S
C259 H262 0.961 . S
H260 C259 0.959 . S
H261 C259 0.960 . S
H262 C259 0.961 . S
O263 Co238 1.967 . S
O263 C271 1.258 . S
O264 Co239 1.941 . S
O264 C271 1.266 . S
H265 C267 0.959 . S
H266 C267 0.961 . S
C267 C257 1.510 . S
C267 H265 0.959 . S
C267 H266 0.961 . S
C267 H268 0.960 . S
H268 C267 0.960 . S
H269 N249 0.862 . S
O270 Co238 1.920 . S
O270 C243 1.289 . S
C271 O263 1.258 . S
C271 O264 1.266 . S
Co272 O275 1.970 . S
Co272 N289 1.989 . S
Co272 O297 1.967 . S
Co272 O304 1.920 . S
Co273 O276 1.966 . S
Co273 N282 2.022 . S
Co273 N290 1.993 . S
Co273 O298 1.941 . S
C274 O275 1.258 . S
C274 O276 1.263 . S
O275 Co272 1.970 . S
O275 C274 1.258 . S
O276 Co273 1.966 . S
O276 C274 1.263 . S
C277 O278 1.235 . S
C277 O304 1.289 . S
O278 C277 1.235 . S
C279 C281 1.400 . S
C279 N282 1.351 . S
C279 C284 1.501 . S
C280 C281 1.387 . S
C280 N283 1.341 . S
C281 C279 1.400 . S
C281 C280 1.387 . S
N282 Co273 2.022 . S
N282 C279 1.351 . S
N282 N283 1.365 . S
N283 C280 1.341 . S
N283 N282 1.365 . S
N283 H303 0.862 . S
C284 C279 1.501 . S
C284 H285 0.961 . S
C284 H286 0.961 . S
C284 H287 0.960 . S
H285 C284 0.961 . S
H286 C284 0.961 . S
H287 C284 0.960 . S
C288 N289 1.342 . S
C288 C292 1.401 . S
C288 C293 1.499 . S
N289 Co272 1.989 . S
N289 C288 1.342 . S
N289 N290 1.388 . S
N290 Co273 1.993 . S
N290 N289 1.388 . S
N290 C291 1.346 . S
C291 N290 1.346 . S
C291 C292 1.396 . S
C291 C301 1.510 . S
C292 C288 1.401 . S
C292 C291 1.396 . S
C293 C288 1.499 . S
C293 H294 0.959 . S
C293 H295 0.960 . S
C293 H296 0.961 . S
H294 C293 0.959 . S
H295 C293 0.960 . S
H296 C293 0.961 . S
O297 Co272 1.967 . S
O297 C305 1.258 . S
O298 Co273 1.941 . S
O298 C305 1.266 . S
H299 C301 0.959 . S
H300 C301 0.961 . S
C301 C291 1.510 . S
C301 H299 0.959 . S
C301 H300 0.961 . S
C301 H302 0.960 . S
H302 C301 0.960 . S
H303 N283 0.862 . S
O304 Co272 1.920 . S
O304 C277 1.289 . S
C305 O297 1.258 . S
C305 O298 1.266 . S
Co306 O309 1.970 . S
Co306 N323 1.989 . S
Co306 O331 1.967 . S
Co306 O338 1.920 . S
Co307 O310 1.966 . S
Co307 N316 2.022 . S
Co307 N324 1.993 . S
Co307 O332 1.941 . S
C308 O309 1.258 . S
C308 O310 1.263 . S
O309 Co306 1.970 . S
O309 C308 1.258 . S
O310 Co307 1.966 . S
O310 C308 1.263 . S
C311 O312 1.235 . S
C311 O338 1.289 . S
O312 C311 1.235 . S
C313 C315 1.400 . S
C313 N316 1.351 . S
C313 C318 1.501 . S
C314 C315 1.387 . S
C314 N317 1.341 . S
C315 C313 1.400 . S
C315 C314 1.387 . S
N316 Co307 2.022 . S
N316 C313 1.351 . S
N316 N317 1.365 . S
N317 C314 1.341 . S
N317 N316 1.365 . S
N317 H337 0.862 . S
C318 C313 1.501 . S
C318 H319 0.961 . S
C318 H320 0.961 . S
C318 H321 0.960 . S
H319 C318 0.961 . S
H320 C318 0.961 . S
H321 C318 0.960 . S
C322 N323 1.342 . S
C322 C326 1.401 . S
C322 C327 1.499 . S
N323 Co306 1.989 . S
N323 C322 1.342 . S
N323 N324 1.388 . S
N324 Co307 1.993 . S
N324 N323 1.388 . S
N324 C325 1.346 . S
C325 N324 1.346 . S
C325 C326 1.396 . S
C325 C335 1.510 . S
C326 C322 1.401 . S
C326 C325 1.396 . S
C327 C322 1.499 . S
C327 H328 0.959 . S
C327 H329 0.960 . S
C327 H330 0.961 . S
H328 C327 0.959 . S
H329 C327 0.960 . S
H330 C327 0.961 . S
O331 Co306 1.967 . S
O331 C339 1.258 . S
O332 Co307 1.941 . S
O332 C339 1.266 . S
H333 C335 0.959 . S
H334 C335 0.961 . S
C335 C325 1.510 . S
C335 H333 0.959 . S
C335 H334 0.961 . S
C335 H336 0.960 . S
H336 C335 0.960 . S
H337 N317 0.862 . S
O338 Co306 1.920 . S
O338 C311 1.289 . S
C339 O331 1.258 . S
C339 O332 1.266 . S
Co340 O343 1.970 . S
Co340 N357 1.989 . S
Co340 O365 1.967 . S
Co340 O372 1.920 . S
Co341 O344 1.966 . S
Co341 N350 2.022 . S
Co341 N358 1.993 . S
Co341 O366 1.941 . S
C342 O343 1.258 . S
C342 O344 1.263 . S
O343 Co340 1.970 . S
O343 C342 1.258 . S
O344 Co341 1.966 . S
O344 C342 1.263 . S
C345 O346 1.235 . S
C345 O372 1.289 . S
O346 C345 1.235 . S
C347 C349 1.400 . S
C347 N350 1.351 . S
C347 C352 1.501 . S
C348 C349 1.387 . S
C348 N351 1.341 . S
C349 C347 1.400 . S
C349 C348 1.387 . S
N350 Co341 2.022 . S
N350 C347 1.351 . S
N350 N351 1.365 . S
N351 C348 1.341 . S
N351 N350 1.365 . S
N351 H371 0.862 . S
C352 C347 1.501 . S
C352 H353 0.961 . S
C352 H354 0.961 . S
C352 H355 0.960 . S
H353 C352 0.961 . S
H354 C352 0.961 . S
H355 C352 0.960 . S
C356 N357 1.342 . S
C356 C360 1.401 . S
C356 C361 1.499 . S
N357 Co340 1.989 . S
N357 C356 1.342 . S
N357 N358 1.388 . S
N358 Co341 1.993 . S
N358 N357 1.388 . S
N358 C359 1.346 . S
C359 N358 1.346 . S
C359 C360 1.396 . S
C359 C369 1.510 . S
C360 C356 1.401 . S
C360 C359 1.396 . S
C361 C356 1.499 . S
C361 H362 0.959 . S
C361 H363 0.960 . S
C361 H364 0.961 . S
H362 C361 0.959 . S
H363 C361 0.960 . S
H364 C361 0.961 . S
O365 Co340 1.967 . S
O365 C373 1.258 . S
O366 Co341 1.941 . S
O366 C373 1.266 . S
H367 C369 0.959 . S
H368 C369 0.961 . S
C369 C359 1.510 . S
C369 H367 0.959 . S
C369 H368 0.961 . S
C369 H370 0.960 . S
H370 C369 0.960 . S
H371 N351 0.862 . S
O372 Co340 1.920 . S
O372 C345 1.289 . S
C373 O365 1.258 . S
C373 O366 1.266 . S
Co374 O377 1.970 . S
Co374 N391 1.989 . S
Co374 O399 1.967 . S
Co374 O406 1.920 . S
Co375 O378 1.966 . S
Co375 N384 2.022 . S
Co375 N392 1.993 . S
Co375 O400 1.941 . S
C376 O377 1.258 . S
C376 O378 1.263 . S
O377 Co374 1.970 . S
O377 C376 1.258 . S
O378 Co375 1.966 . S
O378 C376 1.263 . S
C379 O380 1.235 . S
C379 O406 1.289 . S
O380 C379 1.235 . S
C381 C383 1.400 . S
C381 N384 1.351 . S
C381 C386 1.501 . S
C382 C383 1.387 . S
C382 N385 1.341 . S
C383 C381 1.400 . S
C383 C382 1.387 . S
N384 Co375 2.022 . S
N384 C381 1.351 . S
N384 N385 1.365 . S
N385 C382 1.341 . S
N385 N384 1.365 . S
N385 H405 0.862 . S
C386 C381 1.501 . S
C386 H387 0.961 . S
C386 H388 0.961 . S
C386 H389 0.960 . S
H387 C386 0.961 . S
H388 C386 0.961 . S
H389 C386 0.960 . S
C390 N391 1.342 . S
C390 C394 1.401 . S
C390 C395 1.499 . S
N391 Co374 1.989 . S
N391 C390 1.342 . S
N391 N392 1.388 . S
N392 Co375 1.993 . S
N392 N391 1.388 . S
N392 C393 1.346 . S
C393 N392 1.346 . S
C393 C394 1.396 . S
C393 C403 1.510 . S
C394 C390 1.401 . S
C394 C393 1.396 . S
C395 C390 1.499 . S
C395 H396 0.959 . S
C395 H397 0.960 . S
C395 H398 0.961 . S
H396 C395 0.959 . S
H397 C395 0.960 . S
H398 C395 0.961 . S
O399 Co374 1.967 . S
O399 C407 1.258 . S
O400 Co375 1.941 . S
O400 C407 1.266 . S
H401 C403 0.959 . S
H402 C403 0.961 . S
C403 C393 1.510 . S
C403 H401 0.959 . S
C403 H402 0.961 . S
C403 H404 0.960 . S
H404 C403 0.960 . S
H405 N385 0.862 . S
O406 Co374 1.920 . S
O406 C379 1.289 . S
C407 O399 1.258 . S
C407 O400 1.266 . S
Co408 O411 1.970 . S
Co408 N425 1.989 . S
Co408 O433 1.967 . S
Co408 O440 1.920 . S
Co409 O412 1.966 . S
Co409 N418 2.022 . S
Co409 N426 1.993 . S
Co409 O434 1.941 . S
C410 O411 1.258 . S
C410 O412 1.263 . S
O411 Co408 1.970 . S
O411 C410 1.258 . S
O412 Co409 1.966 . S
O412 C410 1.263 . S
C413 O414 1.235 . S
C413 O440 1.289 . S
O414 C413 1.235 . S
C415 C417 1.400 . S
C415 N418 1.351 . S
C415 C420 1.501 . S
C416 C417 1.387 . S
C416 N419 1.341 . S
C417 C415 1.400 . S
C417 C416 1.387 . S
N418 Co409 2.022 . S
N418 C415 1.351 . S
N418 N419 1.365 . S
N419 C416 1.341 . S
N419 N418 1.365 . S
N419 H439 0.862 . S
C420 C415 1.501 . S
C420 H421 0.961 . S
C420 H422 0.961 . S
C420 H423 0.960 . S
H421 C420 0.961 . S
H422 C420 0.961 . S
H423 C420 0.960 . S
C424 N425 1.342 . S
C424 C428 1.401 . S
C424 C429 1.499 . S
N425 Co408 1.989 . S
N425 C424 1.342 . S
N425 N426 1.388 . S
N426 Co409 1.993 . S
N426 N425 1.388 . S
N426 C427 1.346 . S
C427 N426 1.346 . S
C427 C428 1.396 . S
C427 C437 1.510 . S
C428 C424 1.401 . S
C428 C427 1.396 . S
C429 C424 1.499 . S
C429 H430 0.959 . S
C429 H431 0.960 . S
C429 H432 0.961 . S
H430 C429 0.959 . S
H431 C429 0.960 . S
H432 C429 0.961 . S
O433 Co408 1.967 . S
O433 C441 1.258 . S
O434 Co409 1.941 . S
O434 C441 1.266 . S
H435 C437 0.959 . S
H436 C437 0.961 . S
C437 C427 1.510 . S
C437 H435 0.959 . S
C437 H436 0.961 . S
C437 H438 0.960 . S
H438 C437 0.960 . S
H439 N419 0.862 . S
O440 Co408 1.920 . S
O440 C413 1.289 . S
C441 O433 1.258 . S
C441 O434 1.266 . S
Co442 O445 1.970 . S
Co442 N459 1.989 . S
Co442 O467 1.967 . S
Co442 O474 1.920 . S
Co443 O446 1.966 . S
Co443 N452 2.022 . S
Co443 N460 1.993 . S
Co443 O468 1.941 . S
C444 O445 1.258 . S
C444 O446 1.263 . S
O445 Co442 1.970 . S
O445 C444 1.258 . S
O446 Co443 1.966 . S
O446 C444 1.263 . S
C447 O448 1.235 . S
C447 O474 1.289 . S
O448 C447 1.235 . S
C449 C451 1.400 . S
C449 N452 1.351 . S
C449 C454 1.501 . S
C450 C451 1.387 . S
C450 N453 1.341 . S
C451 C449 1.400 . S
C451 C450 1.387 . S
N452 Co443 2.022 . S
N452 C449 1.351 . S
N452 N453 1.365 . S
N453 C450 1.341 . S
N453 N452 1.365 . S
N453 H473 0.862 . S
C454 C449 1.501 . S
C454 H455 0.961 . S
C454 H456 0.961 . S
C454 H457 0.960 . S
H455 C454 0.961 . S
H456 C454 0.961 . S
H457 C454 0.960 . S
C458 N459 1.342 . S
C458 C462 1.401 . S
C458 C463 1.499 . S
N459 Co442 1.989 . S
N459 C458 1.342 . S
N459 N460 1.388 . S
N460 Co443 1.993 . S
N460 N459 1.388 . S
N460 C461 1.346 . S
C461 N460 1.346 . S
C461 C462 1.396 . S
C461 C471 1.510 . S
C462 C458 1.401 . S
C462 C461 1.396 . S
C463 C458 1.499 . S
C463 H464 0.959 . S
C463 H465 0.960 . S
C463 H466 0.961 . S
H464 C463 0.959 . S
H465 C463 0.960 . S
H466 C463 0.961 . S
O467 Co442 1.967 . S
O467 C475 1.258 . S
O468 Co443 1.941 . S
O468 C475 1.266 . S
H469 C471 0.959 . S
H470 C471 0.961 . S
C471 C461 1.510 . S
C471 H469 0.959 . S
C471 H470 0.961 . S
C471 H472 0.960 . S
H472 C471 0.960 . S
H473 N453 0.862 . S
O474 Co442 1.920 . S
O474 C447 1.289 . S
C475 O467 1.258 . S
C475 O468 1.266 . S
Co476 O479 1.970 . S
Co476 N493 1.989 . S
Co476 O501 1.967 . S
Co476 O508 1.920 . S
Co477 O480 1.966 . S
Co477 N486 2.022 . S
Co477 N494 1.993 . S
Co477 O502 1.941 . S
C478 O479 1.258 . S
C478 O480 1.263 . S
O479 Co476 1.970 . S
O479 C478 1.258 . S
O480 Co477 1.966 . S
O480 C478 1.263 . S
C481 O482 1.235 . S
C481 O508 1.289 . S
O482 C481 1.235 . S
C483 C485 1.400 . S
C483 N486 1.351 . S
C483 C488 1.501 . S
C484 C485 1.387 . S
C484 N487 1.341 . S
C485 C483 1.400 . S
C485 C484 1.387 . S
N486 Co477 2.022 . S
N486 C483 1.351 . S
N486 N487 1.365 . S
N487 C484 1.341 . S
N487 N486 1.365 . S
N487 H507 0.862 . S
C488 C483 1.501 . S
C488 H489 0.961 . S
C488 H490 0.961 . S
C488 H491 0.960 . S
H489 C488 0.961 . S
H490 C488 0.961 . S
H491 C488 0.960 . S
C492 N493 1.342 . S
C492 C496 1.401 . S
C492 C497 1.499 . S
N493 Co476 1.989 . S
N493 C492 1.342 . S
N493 N494 1.388 . S
N494 Co477 1.993 . S
N494 N493 1.388 . S
N494 C495 1.346 . S
C495 N494 1.346 . S
C495 C496 1.396 . S
C495 C505 1.510 . S
C496 C492 1.401 . S
C496 C495 1.396 . S
C497 C492 1.499 . S
C497 H498 0.959 . S
C497 H499 0.960 . S
C497 H500 0.961 . S
H498 C497 0.959 . S
H499 C497 0.960 . S
H500 C497 0.961 . S
O501 Co476 1.967 . S
O501 C509 1.258 . S
O502 Co477 1.941 . S
O502 C509 1.266 . S
H503 C505 0.959 . S
H504 C505 0.961 . S
C505 C495 1.510 . S
C505 H503 0.959 . S
C505 H504 0.961 . S
C505 H506 0.960 . S
H506 C505 0.960 . S
H507 N487 0.862 . S
O508 Co476 1.920 . S
O508 C481 1.289 . S
C509 O501 1.258 . S
C509 O502 1.266 . S
Co510 O513 1.970 . S
Co510 N527 1.989 . S
Co510 O535 1.967 . S
Co510 O542 1.920 . S
Co511 O514 1.966 . S
Co511 N520 2.022 . S
Co511 N528 1.993 . S
Co511 O536 1.941 . S
C512 O513 1.258 . S
C512 O514 1.263 . S
O513 Co510 1.970 . S
O513 C512 1.258 . S
O514 Co511 1.966 . S
O514 C512 1.263 . S
C515 O516 1.235 . S
C515 O542 1.289 . S
O516 C515 1.235 . S
C517 C519 1.400 . S
C517 N520 1.351 . S
C517 C522 1.501 . S
C518 C519 1.387 . S
C518 N521 1.341 . S
C519 C517 1.400 . S
C519 C518 1.387 . S
N520 Co511 2.022 . S
N520 C517 1.351 . S
N520 N521 1.365 . S
N521 C518 1.341 . S
N521 N520 1.365 . S
N521 H541 0.862 . S
C522 C517 1.501 . S
C522 H523 0.961 . S
C522 H524 0.961 . S
C522 H525 0.960 . S
H523 C522 0.961 . S
H524 C522 0.961 . S
H525 C522 0.960 . S
C526 N527 1.342 . S
C526 C530 1.401 . S
C526 C531 1.499 . S
N527 Co510 1.989 . S
N527 C526 1.342 . S
N527 N528 1.388 . S
N528 Co511 1.993 . S
N528 N527 1.388 . S
N528 C529 1.346 . S
C529 N528 1.346 . S
C529 C530 1.396 . S
C529 C539 1.510 . S
C530 C526 1.401 . S
C530 C529 1.396 . S
C531 C526 1.499 . S
C531 H532 0.959 . S
C531 H533 0.960 . S
C531 H534 0.961 . S
H532 C531 0.959 . S
H533 C531 0.960 . S
H534 C531 0.961 . S
O535 Co510 1.967 . S
O535 C543 1.258 . S
O536 Co511 1.941 . S
O536 C543 1.266 . S
H537 C539 0.959 . S
H538 C539 0.961 . S
C539 C529 1.510 . S
C539 H537 0.959 . S
C539 H538 0.961 . S
C539 H540 0.960 . S
H540 C539 0.960 . S
H541 N521 0.862 . S
O542 Co510 1.920 . S
O542 C515 1.289 . S
C543 O535 1.258 . S
C543 O536 1.266 . S
H544 C550 0.930 . S
H545 C553 0.930 . S
H546 C554 0.930 . S
H547 C555 0.930 . S
H548 C558 0.930 . S
H549 C559 0.930 . S
C550 H544 0.930 . S
C550 C551 1.355 . S
C550 C552 1.415 . S
C551 C550 1.355 . S
C551 C553 1.419 . S
C552 C550 1.415 . S
C552 C557 1.425 . S
C552 C559 1.409 . S
C553 H545 0.930 . S
C553 C551 1.419 . S
C553 C554 1.362 . S
C554 H546 0.930 . S
C554 C553 1.362 . S
C554 C557 1.409 . S
C555 H547 0.930 . S
C555 C556 1.355 . S
C555 C557 1.415 . S
C556 C555 1.355 . S
C556 C558 1.419 . S
C557 C552 1.425 . S
C557 C554 1.409 . S
C557 C555 1.415 . S
C558 H548 0.930 . S
C558 C556 1.419 . S
C558 C559 1.362 . S
C559 H549 0.930 . S
C559 C552 1.409 . S
C559 C558 1.362 . S
H560 C566 0.930 . S
H561 C569 0.930 . S
H562 C570 0.930 . S
H563 C571 0.930 . S
H564 C574 0.930 . S
H565 C575 0.930 . S
C566 H560 0.930 . S
C566 C567 1.355 . S
C566 C568 1.415 . S
C567 C566 1.355 . S
C567 C569 1.419 . S
C568 C566 1.415 . S
C568 C573 1.425 . S
C568 C575 1.409 . S
C569 H561 0.930 . S
C569 C567 1.419 . S
C569 C570 1.362 . S
C570 H562 0.930 . S
C570 C569 1.362 . S
C570 C573 1.409 . S
C571 H563 0.930 . S
C571 C572 1.355 . S
C571 C573 1.415 . S
C572 C571 1.355 . S
C572 C574 1.419 . S
C573 C568 1.425 . S
C573 C570 1.409 . S
C573 C571 1.415 . S
C574 H564 0.930 . S
C574 C572 1.419 . S
C574 C575 1.362 . S
C575 H565 0.930 . S
C575 C568 1.409 . S
C575 C574 1.362 . S
H576 C582 0.930 . S
H577 C585 0.930 . S
H578 C586 0.930 . S
H579 C587 0.930 . S
H580 C590 0.930 . S
H581 C591 0.930 . S
C582 H576 0.930 . S
C582 C583 1.355 . S
C582 C584 1.415 . S
C583 C582 1.355 . S
C583 C585 1.419 . S
C584 C582 1.415 . S
C584 C589 1.425 . S
C584 C591 1.409 . S
C585 H577 0.930 . S
C585 C583 1.419 . S
C585 C586 1.362 . S
C586 H578 0.930 . S
C586 C585 1.362 . S
C586 C589 1.409 . S
C587 H579 0.930 . S
C587 C588 1.355 . S
C587 C589 1.415 . S
C588 C587 1.355 . S
C588 C590 1.419 . S
C589 C584 1.425 . S
C589 C586 1.409 . S
C589 C587 1.415 . S
C590 H580 0.930 . S
C590 C588 1.419 . S
C590 C591 1.362 . S
C591 H581 0.930 . S
C591 C584 1.409 . S
C591 C590 1.362 . S
H592 C598 0.930 . S
H593 C601 0.930 . S
H594 C602 0.930 . S
H595 C603 0.930 . S
H596 C606 0.930 . S
H597 C607 0.930 . S
C598 H592 0.930 . S
C598 C599 1.355 . S
C598 C600 1.415 . S
C599 C598 1.355 . S
C599 C601 1.419 . S
C600 C598 1.415 . S
C600 C605 1.425 . S
C600 C607 1.409 . S
C601 H593 0.930 . S
C601 C599 1.419 . S
C601 C602 1.362 . S
C602 H594 0.930 . S
C602 C601 1.362 . S
C602 C605 1.409 . S
C603 H595 0.930 . S
C603 C604 1.355 . S
C603 C605 1.415 . S
C604 C603 1.355 . S
C604 C606 1.419 . S
C605 C600 1.425 . S
C605 C602 1.409 . S
C605 C603 1.415 . S
C606 H596 0.930 . S
C606 C604 1.419 . S
C606 C607 1.362 . S
C607 H597 0.930 . S
C607 C600 1.409 . S
C607 C606 1.362 . S
H608 C614 0.930 . S
H609 C617 0.930 . S
H610 C618 0.930 . S
H611 C619 0.930 . S
H612 C622 0.930 . S
H613 C623 0.930 . S
C614 H608 0.930 . S
C614 C615 1.355 . S
C614 C616 1.415 . S
C615 C614 1.355 . S
C615 C617 1.419 . S
C616 C614 1.415 . S
C616 C621 1.425 . S
C616 C623 1.409 . S
C617 H609 0.930 . S
C617 C615 1.419 . S
C617 C618 1.362 . S
C618 H610 0.930 . S
C618 C617 1.362 . S
C618 C621 1.409 . S
C619 H611 0.930 . S
C619 C620 1.355 . S
C619 C621 1.415 . S
C620 C619 1.355 . S
C620 C622 1.419 . S
C621 C616 1.425 . S
C621 C618 1.409 . S
C621 C619 1.415 . S
C622 H612 0.930 . S
C622 C620 1.419 . S
C622 C623 1.362 . S
C623 H613 0.930 . S
C623 C616 1.409 . S
C623 C622 1.362 . S
H624 C630 0.930 . S
H625 C633 0.930 . S
H626 C634 0.930 . S
H627 C635 0.930 . S
H628 C638 0.930 . S
H629 C639 0.930 . S
C630 H624 0.930 . S
C630 C631 1.355 . S
C630 C632 1.415 . S
C631 C630 1.355 . S
C631 C633 1.419 . S
C632 C630 1.415 . S
C632 C637 1.425 . S
C632 C639 1.409 . S
C633 H625 0.930 . S
C633 C631 1.419 . S
C633 C634 1.362 . S
C634 H626 0.930 . S
C634 C633 1.362 . S
C634 C637 1.409 . S
C635 H627 0.930 . S
C635 C636 1.355 . S
C635 C637 1.415 . S
C636 C635 1.355 . S
C636 C638 1.419 . S
C637 C632 1.425 . S
C637 C634 1.409 . S
C637 C635 1.415 . S
C638 H628 0.930 . S
C638 C636 1.419 . S
C638 C639 1.362 . S
C639 H629 0.930 . S
C639 C632 1.409 . S
C639 C638 1.362 . S
H640 C646 0.930 . S
H641 C649 0.930 . S
H642 C650 0.930 . S
H643 C651 0.930 . S
H644 C654 0.930 . S
H645 C655 0.930 . S
C646 H640 0.930 . S
C646 C647 1.355 . S
C646 C648 1.415 . S
C647 C646 1.355 . S
C647 C649 1.419 . S
C648 C646 1.415 . S
C648 C653 1.425 . S
C648 C655 1.409 . S
C649 H641 0.930 . S
C649 C647 1.419 . S
C649 C650 1.362 . S
C650 H642 0.930 . S
C650 C649 1.362 . S
C650 C653 1.409 . S
C651 H643 0.930 . S
C651 C652 1.355 . S
C651 C653 1.415 . S
C652 C651 1.355 . S
C652 C654 1.419 . S
C653 C648 1.425 . S
C653 C650 1.409 . S
C653 C651 1.415 . S
C654 H644 0.930 . S
C654 C652 1.419 . S
C654 C655 1.362 . S
C655 H645 0.930 . S
C655 C648 1.409 . S
C655 C654 1.362 . S
H656 C662 0.930 . S
H657 C665 0.930 . S
H658 C666 0.930 . S
H659 C667 0.930 . S
H660 C670 0.930 . S
H661 C671 0.930 . S
C662 H656 0.930 . S
C662 C663 1.355 . S
C662 C664 1.415 . S
C663 C662 1.355 . S
C663 C665 1.419 . S
C664 C662 1.415 . S
C664 C669 1.425 . S
C664 C671 1.409 . S
C665 H657 0.930 . S
C665 C663 1.419 . S
C665 C666 1.362 . S
C666 H658 0.930 . S
C666 C665 1.362 . S
C666 C669 1.409 . S
C667 H659 0.930 . S
C667 C668 1.355 . S
C667 C669 1.415 . S
C668 C667 1.355 . S
C668 C670 1.419 . S
C669 C664 1.425 . S
C669 C666 1.409 . S
C669 C667 1.415 . S
C670 H660 0.930 . S
C670 C668 1.419 . S
C670 C671 1.362 . S
C671 H661 0.930 . S
C671 C664 1.409 . S
C671 C670 1.362 . S
H672 C678 0.939 . S
H673 C681 0.930 . S
H674 C682 0.930 . S
H675 C683 0.939 . S
H676 C686 0.930 . S
H677 C687 0.930 . S
C678 H672 0.939 . S
C678 C679 1.355 . S
C678 C680 1.415 1_545 S
C679 C678 1.355 . S
C679 C681 1.419 . S
C680 C678 1.415 1_565 S
C680 C685 1.425 1_465 S
C680 C687 1.409 . S
C681 H673 0.930 . S
C681 C679 1.419 . S
C681 C682 1.362 1_455 S
C682 H674 0.930 . S
C682 C681 1.362 1_655 S
C682 C685 1.409 . S
C683 H675 0.939 . S
C683 C684 1.355 . S
C683 C685 1.415 1_565 S
C684 C683 1.355 . S
C684 C686 1.419 . S
C685 C680 1.425 1_645 S
C685 C682 1.409 . S
C685 C683 1.415 1_545 S
C686 H676 0.930 . S
C686 C684 1.419 . S
C686 C687 1.362 1_655 S
C687 H677 0.930 . S
C687 C680 1.409 . S
C687 C686 1.362 1_455 S
H688 C694 0.930 . S
H689 C697 0.930 . S
H690 C698 0.930 . S
H691 C699 0.930 . S
H692 C702 0.930 . S
H693 C703 0.930 . S
C694 H688 0.930 . S
C694 C695 1.355 . S
C694 C696 1.415 1_545 S
C695 C694 1.355 . S
C695 C697 1.419 . S
C696 C694 1.415 1_565 S
C696 C701 1.425 1_665 S
C696 C703 1.409 . S
C697 H689 0.930 . S
C697 C695 1.419 . S
C697 C698 1.362 1_655 S
C698 H690 0.930 . S
C698 C697 1.362 1_455 S
C698 C701 1.409 . S
C699 H691 0.930 . S
C699 C700 1.355 . S
C699 C701 1.415 1_565 S
C700 C699 1.355 . S
C700 C702 1.419 . S
C701 C696 1.425 1_445 S
C701 C698 1.409 . S
C701 C699 1.415 1_545 S
C702 H692 0.930 . S
C702 C700 1.419 . S
C702 C703 1.362 1_455 S
C703 H693 0.930 . S
C703 C696 1.409 . S
C703 C702 1.362 1_655 S
H704 C710 0.930 . S
H705 C713 0.930 . S
H706 C714 0.930 1_455 S
H707 C715 0.930 . S
H708 C718 0.930 . S
H709 C719 0.930 1_655 S
C710 H704 0.930 . S
C710 C711 1.355 . S
C710 C712 1.415 . S
C711 C710 1.355 . S
C711 C713 1.419 . S
C712 C710 1.415 . S
C712 C717 1.425 1_645 S
C712 C719 1.409 1_645 S
C713 H705 0.930 . S
C713 C711 1.419 . S
C713 C714 1.362 . S
C714 H706 0.930 1_655 S
C714 C713 1.362 . S
C714 C717 1.409 1_645 S
C715 H707 0.930 . S
C715 C716 1.355 . S
C715 C717 1.415 . S
C716 C715 1.355 . S
C716 C718 1.419 . S
C717 C712 1.425 1_465 S
C717 C714 1.409 1_465 S
C717 C715 1.415 . S
C718 H708 0.930 . S
C718 C716 1.419 . S
C718 C719 1.362 . S
C719 H709 0.930 1_455 S
C719 C712 1.409 1_465 S
C719 C718 1.362 . S
H720 C726 0.930 . S
H721 C729 0.930 . S
H722 C730 0.930 . S
H723 C731 0.930 . S
H724 C734 0.930 . S
H725 C735 0.930 . S
C726 H720 0.930 . S
C726 C727 1.355 . S
C726 C728 1.415 1_455 S
C727 C726 1.355 . S
C727 C729 1.419 . S
C728 C726 1.415 1_655 S
C728 C733 1.425 1_645 S
C728 C735 1.409 . S
C729 H721 0.930 . S
C729 C727 1.419 . S
C729 C730 1.362 1_545 S
C730 H722 0.930 . S
C730 C729 1.362 1_565 S
C730 C733 1.409 . S
C731 H723 0.930 . S
C731 C732 1.355 . S
C731 C733 1.415 1_655 S
C732 C731 1.355 . S
C732 C734 1.419 . S
C733 C728 1.425 1_465 S
C733 C730 1.409 . S
C733 C731 1.415 1_455 S
C734 H724 0.930 . S
C734 C732 1.419 . S
C734 C735 1.362 1_565 S
C735 H725 0.930 . S
C735 C728 1.409 . S
C735 C734 1.362 1_545 S
H736 C742 0.930 . S
H737 C745 0.930 . S
H738 C746 0.930 . S
H739 C747 0.930 . S
H740 C750 0.930 . S
H741 C751 0.930 . S
C742 H736 0.930 . S
C742 C743 1.355 . S
C742 C744 1.415 . S
C743 C742 1.355 . S
C743 C745 1.419 . S
C744 C742 1.415 . S
C744 C749 1.425 . S
C744 C751 1.409 . S
C745 H737 0.930 . S
C745 C743 1.419 . S
C745 C746 1.362 . S
C746 H738 0.930 . S
C746 C745 1.362 . S
C746 C749 1.409 . S
C747 H739 0.930 . S
C747 C748 1.355 . S
C747 C749 1.415 . S
C748 C747 1.355 . S
C748 C750 1.419 . S
C749 C744 1.425 . S
C749 C746 1.409 . S
C749 C747 1.415 . S
C750 H740 0.930 . S
C750 C748 1.419 . S
C750 C751 1.362 . S
C751 H741 0.930 . S
C751 C744 1.409 . S
C751 C750 1.362 . S
H752 C758 0.930 . S
H753 C761 0.930 . S
H754 C762 0.930 . S
H755 C763 0.930 . S
H756 C766 0.930 . S
H757 C767 0.930 . S
C758 H752 0.930 . S
C758 C759 1.355 . S
C758 C760 1.415 . S
C759 C758 1.355 . S
C759 C761 1.419 . S
C760 C758 1.415 . S
C760 C765 1.425 . S
C760 C767 1.409 . S
C761 H753 0.930 . S
C761 C759 1.419 . S
C761 C762 1.362 . S
C762 H754 0.930 . S
C762 C761 1.362 . S
C762 C765 1.409 . S
C763 H755 0.930 . S
C763 C764 1.355 . S
C763 C765 1.415 . S
C764 C763 1.355 . S
C764 C766 1.419 . S
C765 C760 1.425 . S
C765 C762 1.409 . S
C765 C763 1.415 . S
C766 H756 0.930 . S
C766 C764 1.419 . S
C766 C767 1.362 . S
C767 H757 0.930 . S
C767 C760 1.409 . S
C767 C766 1.362 . S
H768 C774 0.930 . S
H769 C777 0.930 . S
H770 C778 0.930 . S
H771 C779 0.930 . S
H772 C782 0.930 . S
H773 C783 0.930 . S
C774 H768 0.930 . S
C774 C775 1.355 . S
C774 C776 1.415 . S
C775 C774 1.355 . S
C775 C777 1.419 . S
C776 C774 1.415 . S
C776 C781 1.425 . S
C776 C783 1.409 . S
C777 H769 0.930 . S
C777 C775 1.419 . S
C777 C778 1.362 . S
C778 H770 0.930 . S
C778 C777 1.362 . S
C778 C781 1.409 . S
C779 H771 0.930 . S
C779 C780 1.355 . S
C779 C781 1.415 . S
C780 C779 1.355 . S
C780 C782 1.419 . S
C781 C776 1.425 . S
C781 C778 1.409 . S
C781 C779 1.415 . S
C782 H772 0.930 . S
C782 C780 1.419 . S
C782 C783 1.362 . S
C783 H773 0.930 . S
C783 C776 1.409 . S
C783 C782 1.362 . S
H784 C790 0.930 . S
H785 C793 0.930 . S
H786 C794 0.930 . S
H787 C795 0.930 . S
H788 C798 0.930 . S
H789 C799 0.930 . S
C790 H784 0.930 . S
C790 C791 1.355 . S
C790 C792 1.415 . S
C791 C790 1.355 . S
C791 C793 1.419 . S
C792 C790 1.415 . S
C792 C797 1.425 . S
C792 C799 1.409 . S
C793 H785 0.930 . S
C793 C791 1.419 . S
C793 C794 1.362 . S
C794 H786 0.930 . S
C794 C793 1.362 . S
C794 C797 1.409 . S
C795 H787 0.930 . S
C795 C796 1.355 . S
C795 C797 1.415 . S
C796 C795 1.355 . S
C796 C798 1.419 . S
C797 C792 1.425 . S
C797 C794 1.409 . S
C797 C795 1.415 . S
C798 H788 0.930 . S
C798 C796 1.419 . S
C798 C799 1.362 . S
C799 H789 0.930 . S
C799 C792 1.409 . S
C799 C798 1.362 . S
H800 C806 0.930 . S
H801 C809 0.930 . S
H802 C810 0.930 . S
H803 C811 0.930 . S
H804 C814 0.930 . S
H805 C815 0.930 . S
C806 H800 0.930 . S
C806 C807 1.355 . S
C806 C808 1.389 1_556 S
C807 C806 1.355 . S
C807 C809 1.419 . S
C808 C806 1.389 1_554 S
C808 C813 1.423 1_554 S
C808 C815 1.436 . S
C809 H801 0.930 . S
C809 C807 1.419 . S
C809 C810 1.362 . S
C810 H802 0.930 . S
C810 C809 1.362 . S
C810 C813 1.436 . S
C811 H803 0.930 . S
C811 C812 1.355 . S
C811 C813 1.389 1_554 S
C812 C811 1.355 . S
C812 C814 1.419 . S
C813 C808 1.423 1_556 S
C813 C810 1.436 . S
C813 C811 1.389 1_556 S
C814 H804 0.930 . S
C814 C812 1.419 . S
C814 C815 1.362 . S
C815 H805 0.930 . S
C815 C808 1.436 . S
C815 C814 1.362 . S
H816 C822 0.930 . S
H817 C825 0.930 . S
H818 C826 0.937 . S
H819 C827 0.930 . S
H820 C830 0.930 . S
H821 C831 0.937 . S
C822 H816 0.930 . S
C822 C823 1.355 . S
C822 C824 1.415 . S
C823 C822 1.355 . S
C823 C825 1.419 . S
C824 C822 1.415 . S
C824 C829 1.425 1_554 S
C824 C831 1.409 1_554 S
C825 H817 0.930 . S
C825 C823 1.419 . S
C825 C826 1.362 . S
C826 H818 0.937 . S
C826 C825 1.362 . S
C826 C829 1.409 1_554 S
C827 H819 0.930 . S
C827 C828 1.355 . S
C827 C829 1.415 . S
C828 C827 1.355 . S
C828 C830 1.419 . S
C829 C824 1.425 1_556 S
C829 C826 1.409 1_556 S
C829 C827 1.415 . S
C830 H820 0.930 . S
C830 C828 1.419 . S
C830 C831 1.362 . S
C831 H821 0.937 . S
C831 C824 1.409 1_556 S
C831 C830 1.362 . S
H832 C838 0.930 . S
H833 C841 0.930 . S
H834 C842 0.930 . S
H835 C843 0.930 . S
H836 C846 0.930 . S
H837 C847 0.930 . S
C838 H832 0.930 . S
C838 C839 1.355 . S
C838 C840 1.415 . S
C839 C838 1.355 . S
C839 C841 1.419 . S
C840 C838 1.415 . S
C840 C845 1.425 1_556 S
C840 C847 1.409 1_556 S
C841 H833 0.930 . S
C841 C839 1.419 . S
C841 C842 1.362 . S
C842 H834 0.930 . S
C842 C841 1.362 . S
C842 C845 1.409 1_556 S
C843 H835 0.930 . S
C843 C844 1.355 . S
C843 C845 1.415 . S
C844 C843 1.355 . S
C844 C846 1.419 . S
C845 C840 1.425 1_554 S
C845 C842 1.409 1_554 S
C845 C843 1.415 . S
C846 H836 0.930 . S
C846 C844 1.419 . S
C846 C847 1.362 . S
C847 H837 0.930 . S
C847 C840 1.409 1_554 S
C847 C846 1.362 . S
H848 C854 0.930 . S
H849 C857 0.930 . S
H850 C858 0.930 . S
H851 C859 0.930 . S
H852 C862 0.930 . S
H853 C863 0.930 . S
C854 H848 0.930 . S
C854 C855 1.355 . S
C854 C856 1.394 1_556 S
C855 C854 1.355 . S
C855 C857 1.419 . S
C856 C854 1.394 1_554 S
C856 C861 1.424 1_554 S
C856 C863 1.431 . S
C857 H849 0.930 . S
C857 C855 1.419 . S
C857 C858 1.362 . S
C858 H850 0.930 . S
C858 C857 1.362 . S
C858 C861 1.431 . S
C859 H851 0.930 . S
C859 C860 1.355 . S
C859 C861 1.394 1_554 S
C860 C859 1.355 . S
C860 C862 1.419 . S
C861 C856 1.424 1_556 S
C861 C858 1.431 . S
C861 C859 1.394 1_556 S
C862 H852 0.930 . S
C862 C860 1.419 . S
C862 C863 1.362 . S
C863 H853 0.930 . S
C863 C856 1.431 . S
C863 C862 1.362 . S
H864 C870 0.930 . S
H865 C873 0.930 . S
H866 C874 0.930 . S
H867 C875 0.930 . S
H868 C878 0.930 . S
H869 C879 0.930 . S
C870 H864 0.930 . S
C870 C871 1.355 . S
C870 C872 1.415 . S
C871 C870 1.355 . S
C871 C873 1.419 . S
C872 C870 1.415 . S
C872 C877 1.425 . S
C872 C879 1.409 . S
C873 H865 0.930 . S
C873 C871 1.419 . S
C873 C874 1.362 . S
C874 H866 0.930 . S
C874 C873 1.362 . S
C874 C877 1.409 . S
C875 H867 0.930 . S
C875 C876 1.355 . S
C875 C877 1.415 . S
C876 C875 1.355 . S
C876 C878 1.419 . S
C877 C872 1.425 . S
C877 C874 1.409 . S
C877 C875 1.415 . S
C878 H868 0.930 . S
C878 C876 1.419 . S
C878 C879 1.362 . S
C879 H869 0.930 . S
C879 C872 1.409 . S
C879 C878 1.362 . S
H880 C886 0.930 . S
H881 C889 0.930 . S
H882 C890 0.930 . S
H883 C891 0.930 . S
H884 C894 0.930 . S
H885 C895 0.930 . S
C886 H880 0.930 . S
C886 C887 1.355 . S
C886 C888 1.415 . S
C887 C886 1.355 . S
C887 C889 1.419 . S
C888 C886 1.415 . S
C888 C893 1.425 . S
C888 C895 1.409 . S
C889 H881 0.930 . S
C889 C887 1.419 . S
C889 C890 1.362 . S
C890 H882 0.930 . S
C890 C889 1.362 . S
C890 C893 1.409 . S
C891 H883 0.930 . S
C891 C892 1.355 . S
C891 C893 1.415 . S
C892 C891 1.355 . S
C892 C894 1.419 . S
C893 C888 1.425 . S
C893 C890 1.409 . S
C893 C891 1.415 . S
C894 H884 0.930 . S
C894 C892 1.419 . S
C894 C895 1.362 . S
C895 H885 0.930 . S
C895 C888 1.409 . S
C895 C894 1.362 . S
H896 C902 0.930 . S
H897 C905 0.930 . S
H898 C906 0.930 . S
H899 C907 0.930 . S
H900 C910 0.930 . S
H901 C911 0.930 . S
C902 H896 0.930 . S
C902 C903 1.355 . S
C902 C904 1.415 . S
C903 C902 1.355 . S
C903 C905 1.419 . S
C904 C902 1.415 . S
C904 C909 1.425 . S
C904 C911 1.409 . S
C905 H897 0.930 . S
C905 C903 1.419 . S
C905 C906 1.362 . S
C906 H898 0.930 . S
C906 C905 1.362 . S
C906 C909 1.409 . S
C907 H899 0.930 . S
C907 C908 1.355 . S
C907 C909 1.415 . S
C908 C907 1.355 . S
C908 C910 1.419 . S
C909 C904 1.425 . S
C909 C906 1.409 . S
C909 C907 1.415 . S
C910 H900 0.930 . S
C910 C908 1.419 . S
C910 C911 1.362 . S
C911 H901 0.930 . S
C911 C904 1.409 . S
C911 C910 1.362 . S
H912 C918 0.930 . S
H913 C921 0.930 . S
H914 C922 0.930 . S
H915 C923 0.930 . S
H916 C926 0.930 . S
H917 C927 0.930 . S
C918 H912 0.930 . S
C918 C919 1.355 . S
C918 C920 1.415 . S
C919 C918 1.355 . S
C919 C921 1.419 . S
C920 C918 1.415 . S
C920 C925 1.425 . S
C920 C927 1.409 . S
C921 H913 0.930 . S
C921 C919 1.419 . S
C921 C922 1.362 . S
C922 H914 0.930 . S
C922 C921 1.362 . S
C922 C925 1.409 . S
C923 H915 0.930 . S
C923 C924 1.355 . S
C923 C925 1.415 . S
C924 C923 1.355 . S
C924 C926 1.419 . S
C925 C920 1.425 . S
C925 C922 1.409 . S
C925 C923 1.415 . S
C926 H916 0.930 . S
C926 C924 1.419 . S
C926 C927 1.362 . S
C927 H917 0.930 . S
C927 C920 1.409 . S
C927 C926 1.362 . S
H928 C934 0.930 . S
H929 C937 0.930 . S
H930 C938 0.930 . S
H931 C939 0.930 . S
H932 C942 0.930 . S
H933 C943 0.930 . S
C934 H928 0.930 . S
C934 C935 1.355 . S
C934 C936 1.415 . S
C935 C934 1.355 . S
C935 C937 1.419 . S
C936 C934 1.415 . S
C936 C941 1.425 . S
C936 C943 1.409 . S
C937 H929 0.930 . S
C937 C935 1.419 . S
C937 C938 1.362 . S
C938 H930 0.930 . S
C938 C937 1.362 . S
C938 C941 1.409 . S
C939 H931 0.930 . S
C939 C940 1.355 . S
C939 C941 1.415 . S
C940 C939 1.355 . S
C940 C942 1.419 . S
C941 C936 1.425 . S
C941 C938 1.409 . S
C941 C939 1.415 . S
C942 H932 0.930 . S
C942 C940 1.419 . S
C942 C943 1.362 . S
C943 H933 0.930 . S
C943 C936 1.409 . S
C943 C942 1.362 . S
H944 C950 0.930 . S
H945 C953 0.930 . S
H946 C954 0.930 . S
H947 C955 0.930 . S
H948 C958 0.930 . S
H949 C959 0.930 . S
C950 H944 0.930 . S
C950 C951 1.355 . S
C950 C952 1.415 . S
C951 C950 1.355 . S
C951 C953 1.419 . S
C952 C950 1.415 . S
C952 C957 1.425 . S
C952 C959 1.409 . S
C953 H945 0.930 . S
C953 C951 1.419 . S
C953 C954 1.362 . S
C954 H946 0.930 . S
C954 C953 1.362 . S
C954 C957 1.409 . S
C955 H947 0.930 . S
C955 C956 1.355 . S
C955 C957 1.415 . S
C956 C955 1.355 . S
C956 C958 1.419 . S
C957 C952 1.425 . S
C957 C954 1.409 . S
C957 C955 1.415 . S
C958 H948 0.930 . S
C958 C956 1.419 . S
C958 C959 1.362 . S
C959 H949 0.930 . S
C959 C952 1.409 . S
C959 C958 1.362 . S
H960 C966 0.930 . S
H961 C969 0.930 . S
H962 C970 0.930 . S
H963 C971 0.930 . S
H964 C974 0.930 . S
H965 C975 0.930 . S
C966 H960 0.930 . S
C966 C967 1.355 . S
C966 C968 1.415 . S
C967 C966 1.355 . S
C967 C969 1.419 . S
C968 C966 1.415 . S
C968 C973 1.425 . S
C968 C975 1.409 . S
C969 H961 0.930 . S
C969 C967 1.419 . S
C969 C970 1.362 . S
C970 H962 0.930 . S
C970 C969 1.362 . S
C970 C973 1.409 . S
C971 H963 0.930 . S
C971 C972 1.355 . S
C971 C973 1.415 . S
C972 C971 1.355 . S
C972 C974 1.419 . S
C973 C968 1.425 . S
C973 C970 1.409 . S
C973 C971 1.415 . S
C974 H964 0.930 . S
C974 C972 1.419 . S
C974 C975 1.362 . S
C975 H965 0.930 . S
C975 C968 1.409 . S
C975 C974 1.362 . S
H976 C982 0.930 . S
H977 C985 0.930 . S
H978 C986 0.930 . S
H979 C987 0.930 . S
H980 C990 0.930 . S
H981 C991 0.930 . S
C982 H976 0.930 . S
C982 C983 1.355 . S
C982 C984 1.415 . S
C983 C982 1.355 . S
C983 C985 1.419 . S
C984 C982 1.415 . S
C984 C989 1.425 . S
C984 C991 1.409 . S
C985 H977 0.930 . S
C985 C983 1.419 . S
C985 C986 1.362 . S
C986 H978 0.930 . S
C986 C985 1.362 . S
C986 C989 1.409 . S
C987 H979 0.930 . S
C987 C988 1.355 . S
C987 C989 1.415 . S
C988 C987 1.355 . S
C988 C990 1.419 . S
C989 C984 1.425 . S
C989 C986 1.409 . S
C989 C987 1.415 . S
C990 H980 0.930 . S
C990 C988 1.419 . S
C990 C991 1.362 . S
C991 H981 0.930 . S
C991 C984 1.409 . S
C991 C990 1.362 . S
H992 C998 0.930 . S
H993 C1001 0.930 . S
H994 C1002 0.930 . S
H995 C1003 0.930 . S
H996 C1006 0.930 . S
H997 C1007 0.930 . S
C998 H992 0.930 . S
C998 C999 1.355 . S
C998 C1000 1.415 . S
C999 C998 1.355 . S
C999 C1001 1.419 . S
C1000 C998 1.415 . S
C1000 C1005 1.425 . S
C1000 C1007 1.409 . S
C1001 H993 0.930 . S
C1001 C999 1.419 . S
C1001 C1002 1.362 . S
C1002 H994 0.930 . S
C1002 C1001 1.362 . S
C1002 C1005 1.409 . S
C1003 H995 0.930 . S
C1003 C1004 1.355 . S
C1003 C1005 1.415 . S
C1004 C1003 1.355 . S
C1004 C1006 1.419 . S
C1005 C1000 1.425 . S
C1005 C1002 1.409 . S
C1005 C1003 1.415 . S
C1006 H996 0.930 . S
C1006 C1004 1.419 . S
C1006 C1007 1.362 . S
C1007 H997 0.930 . S
C1007 C1000 1.409 . S
C1007 C1006 1.362 . S
H1008 C1014 0.930 . S
H1009 C1017 0.930 . S
H1010 C1018 0.930 . S
H1011 C1019 0.930 . S
H1012 C1022 0.930 . S
H1013 C1023 0.930 . S
C1014 H1008 0.930 . S
C1014 C1015 1.355 . S
C1014 C1016 1.415 . S
C1015 C1014 1.355 . S
C1015 C1017 1.419 . S
C1016 C1014 1.415 . S
C1016 C1021 1.425 . S
C1016 C1023 1.409 . S
C1017 H1009 0.930 . S
C1017 C1015 1.419 . S
C1017 C1018 1.362 . S
C1018 H1010 0.930 . S
C1018 C1017 1.362 . S
C1018 C1021 1.409 . S
C1019 H1011 0.930 . S
C1019 C1020 1.355 . S
C1019 C1021 1.415 . S
C1020 C1019 1.355 . S
C1020 C1022 1.419 . S
C1021 C1016 1.425 . S
C1021 C1018 1.409 . S
C1021 C1019 1.415 . S
C1022 H1012 0.930 . S
C1022 C1020 1.419 . S
C1022 C1023 1.362 . S
C1023 H1013 0.930 . S
C1023 C1016 1.409 . S
C1023 C1022 1.362 . S
H1024 C1030 0.930 . S
H1025 C1033 0.930 . S
H1026 C1034 0.930 . S
H1027 C1035 0.930 . S
H1028 C1038 0.930 . S
H1029 C1039 0.930 . S
C1030 H1024 0.930 . S
C1030 C1031 1.355 . S
C1030 C1032 1.415 . S
C1031 C1030 1.355 . S
C1031 C1033 1.419 . S
C1032 C1030 1.415 . S
C1032 C1037 1.425 . S
C1032 C1039 1.409 . S
C1033 H1025 0.930 . S
C1033 C1031 1.419 . S
C1033 C1034 1.362 . S
C1034 H1026 0.930 . S
C1034 C1033 1.362 . S
C1034 C1037 1.409 . S
C1035 H1027 0.930 . S
C1035 C1036 1.355 . S
C1035 C1037 1.415 . S
C1036 C1035 1.355 . S
C1036 C1038 1.419 . S
C1037 C1032 1.425 . S
C1037 C1034 1.409 . S
C1037 C1035 1.415 . S
C1038 H1028 0.930 . S
C1038 C1036 1.419 . S
C1038 C1039 1.362 . S
C1039 H1029 0.930 . S
C1039 C1032 1.409 . S
C1039 C1038 1.362 . S
H1040 C1046 0.930 . S
H1041 C1049 0.930 . S
H1042 C1050 0.930 . S
H1043 C1051 0.930 . S
H1044 C1054 0.930 . S
H1045 C1055 0.930 . S
C1046 H1040 0.930 . S
C1046 C1047 1.355 . S
C1046 C1048 1.415 . S
C1047 C1046 1.355 . S
C1047 C1049 1.419 . S
C1048 C1046 1.415 . S
C1048 C1053 1.425 . S
C1048 C1055 1.409 . S
C1049 H1041 0.930 . S
C1049 C1047 1.419 . S
C1049 C1050 1.362 . S
C1050 H1042 0.930 . S
C1050 C1049 1.362 . S
C1050 C1053 1.409 . S
C1051 H1043 0.930 . S
C1051 C1052 1.355 . S
C1051 C1053 1.415 . S
C1052 C1051 1.355 . S
C1052 C1054 1.419 . S
C1053 C1048 1.425 . S
C1053 C1050 1.409 . S
C1053 C1051 1.415 . S
C1054 H1044 0.930 . S
C1054 C1052 1.419 . S
C1054 C1055 1.362 . S
C1055 H1045 0.930 . S
C1055 C1048 1.409 . S
C1055 C1054 1.362 . S
H1056 C1062 0.930 . S
H1057 C1065 0.930 1_455 S
H1058 C1066 0.930 . S
H1059 C1067 0.930 . S
H1060 C1070 0.930 . S
H1061 C1071 0.930 . S
C1062 H1056 0.930 . S
C1062 C1063 1.355 1_655 S
C1062 C1064 1.415 . S
C1063 C1062 1.355 1_455 S
C1063 C1065 1.419 1_455 S
C1064 C1062 1.415 . S
C1064 C1069 1.425 . S
C1064 C1071 1.409 . S
C1065 H1057 0.930 1_655 S
C1065 C1063 1.419 1_655 S
C1065 C1066 1.362 . S
C1066 H1058 0.930 . S
C1066 C1065 1.362 . S
C1066 C1069 1.409 . S
C1067 H1059 0.930 . S
C1067 C1068 1.355 . S
C1067 C1069 1.415 . S
C1068 C1067 1.355 . S
C1068 C1070 1.419 . S
C1069 C1064 1.425 . S
C1069 C1066 1.409 . S
C1069 C1067 1.415 . S
C1070 H1060 0.930 . S
C1070 C1068 1.419 . S
C1070 C1071 1.362 . S
C1071 H1061 0.930 . S
C1071 C1064 1.409 . S
C1071 C1070 1.362 . S
H1072 C1078 0.930 . S
H1073 C1081 0.930 1_565 S
H1074 C1082 0.930 . S
H1075 C1083 0.930 . S
H1076 C1086 0.930 . S
H1077 C1087 0.930 . S
C1078 H1072 0.930 . S
C1078 C1079 1.355 1_545 S
C1078 C1080 1.415 . S
C1079 C1078 1.355 1_565 S
C1079 C1081 1.419 1_565 S
C1080 C1078 1.415 . S
C1080 C1085 1.425 . S
C1080 C1087 1.409 . S
C1081 H1073 0.930 1_545 S
C1081 C1079 1.419 1_545 S
C1081 C1082 1.362 . S
C1082 H1074 0.930 . S
C1082 C1081 1.362 . S
C1082 C1085 1.409 . S
C1083 H1075 0.930 . S
C1083 C1084 1.355 . S
C1083 C1085 1.415 . S
C1084 C1083 1.355 . S
C1084 C1086 1.419 . S
C1085 C1080 1.425 . S
C1085 C1082 1.409 . S
C1085 C1083 1.415 . S
C1086 H1076 0.930 . S
C1086 C1084 1.419 . S
C1086 C1087 1.362 . S
C1087 H1077 0.930 . S
C1087 C1080 1.409 . S
C1087 C1086 1.362 . S
H1088 C1094 0.930 . S
H1089 C1097 0.930 . S
H1090 C1098 0.930 . S
H1091 C1099 0.930 . S
H1092 C1102 0.930 1_655 S
H1093 C1103 0.930 . S
C1094 H1088 0.930 . S
C1094 C1095 1.355 . S
C1094 C1096 1.415 . S
C1095 C1094 1.355 . S
C1095 C1097 1.419 . S
C1096 C1094 1.415 . S
C1096 C1101 1.425 . S
C1096 C1103 1.409 . S
C1097 H1089 0.930 . S
C1097 C1095 1.419 . S
C1097 C1098 1.362 . S
C1098 H1090 0.930 . S
C1098 C1097 1.362 . S
C1098 C1101 1.409 . S
C1099 H1091 0.930 . S
C1099 C1100 1.355 1_455 S
C1099 C1101 1.415 . S
C1100 C1099 1.355 1_655 S
C1100 C1102 1.419 1_655 S
C1101 C1096 1.425 . S
C1101 C1098 1.409 . S
C1101 C1099 1.415 . S
C1102 H1092 0.930 1_455 S
C1102 C1100 1.419 1_455 S
C1102 C1103 1.362 . S
C1103 H1093 0.930 . S
C1103 C1096 1.409 . S
C1103 C1102 1.362 . S
H1104 C1110 0.930 . S
H1105 C1113 0.930 1_545 S
H1106 C1114 0.930 . S
H1107 C1115 0.930 . S
H1108 C1118 0.930 . S
H1109 C1119 0.930 . S
C1110 H1104 0.930 . S
C1110 C1111 1.355 1_565 S
C1110 C1112 1.415 . S
C1111 C1110 1.355 1_545 S
C1111 C1113 1.419 1_545 S
C1112 C1110 1.415 . S
C1112 C1117 1.425 . S
C1112 C1119 1.409 . S
C1113 H1105 0.930 1_565 S
C1113 C1111 1.419 1_565 S
C1113 C1114 1.362 . S
C1114 H1106 0.930 . S
C1114 C1113 1.362 . S
C1114 C1117 1.409 . S
C1115 H1107 0.930 . S
C1115 C1116 1.355 . S
C1115 C1117 1.415 . S
C1116 C1115 1.355 . S
C1116 C1118 1.419 . S
C1117 C1112 1.425 . S
C1117 C1114 1.409 . S
C1117 C1115 1.415 . S
C1118 H1108 0.930 . S
C1118 C1116 1.419 . S
C1118 C1119 1.362 . S
C1119 H1109 0.930 . S
C1119 C1112 1.409 . S
C1119 C1118 1.362 . S
H1120 C1126 0.930 . S
H1121 C1129 0.930 1_655 S
H1122 C1130 0.930 . S
H1123 C1131 0.930 . S
H1124 C1134 0.930 . S
H1125 C1135 0.930 . S
C1126 H1120 0.930 . S
C1126 C1127 1.355 1_455 S
C1126 C1128 1.415 . S
C1127 C1126 1.355 1_655 S
C1127 C1129 1.419 1_655 S
C1128 C1126 1.415 . S
C1128 C1133 1.425 . S
C1128 C1135 1.409 . S
C1129 H1121 0.930 1_455 S
C1129 C1127 1.419 1_455 S
C1129 C1130 1.362 . S
C1130 H1122 0.930 . S
C1130 C1129 1.362 . S
C1130 C1133 1.409 . S
C1131 H1123 0.930 . S
C1131 C1132 1.355 . S
C1131 C1133 1.415 . S
C1132 C1131 1.355 . S
C1132 C1134 1.419 . S
C1133 C1128 1.425 . S
C1133 C1130 1.409 . S
C1133 C1131 1.415 . S
C1134 H1124 0.930 . S
C1134 C1132 1.419 . S
C1134 C1135 1.362 . S
C1135 H1125 0.930 . S
C1135 C1128 1.409 . S
C1135 C1134 1.362 . S
H1136 C1142 0.930 . S
H1137 C1145 0.930 . S
H1138 C1146 0.930 . S
H1139 C1147 0.930 . S
H1140 C1150 0.930 1_545 S
H1141 C1151 0.930 . S
C1142 H1136 0.930 . S
C1142 C1143 1.355 . S
C1142 C1144 1.415 . S
C1143 C1142 1.355 . S
C1143 C1145 1.419 . S
C1144 C1142 1.415 . S
C1144 C1149 1.425 . S
C1144 C1151 1.409 . S
C1145 H1137 0.930 . S
C1145 C1143 1.419 . S
C1145 C1146 1.362 . S
C1146 H1138 0.930 . S
C1146 C1145 1.362 . S
C1146 C1149 1.409 . S
C1147 H1139 0.930 . S
C1147 C1148 1.355 1_565 S
C1147 C1149 1.415 . S
C1148 C1147 1.355 1_545 S
C1148 C1150 1.419 1_545 S
C1149 C1144 1.425 . S
C1149 C1146 1.409 . S
C1149 C1147 1.415 . S
C1150 H1140 0.930 1_565 S
C1150 C1148 1.419 1_565 S
C1150 C1151 1.362 . S
C1151 H1141 0.930 . S
C1151 C1144 1.409 . S
C1151 C1150 1.362 . S
H1152 C1158 0.930 . S
H1153 C1161 0.930 . S
H1154 C1162 0.930 . S
H1155 C1163 0.930 . S
H1156 C1166 0.930 1_455 S
H1157 C1167 0.930 . S
C1158 H1152 0.930 . S
C1158 C1159 1.355 . S
C1158 C1160 1.415 . S
C1159 C1158 1.355 . S
C1159 C1161 1.419 . S
C1160 C1158 1.415 . S
C1160 C1165 1.425 . S
C1160 C1167 1.409 . S
C1161 H1153 0.930 . S
C1161 C1159 1.419 . S
C1161 C1162 1.362 . S
C1162 H1154 0.930 . S
C1162 C1161 1.362 . S
C1162 C1165 1.409 . S
C1163 H1155 0.930 . S
C1163 C1164 1.355 1_655 S
C1163 C1165 1.415 . S
C1164 C1163 1.355 1_455 S
C1164 C1166 1.419 1_455 S
C1165 C1160 1.425 . S
C1165 C1162 1.409 . S
C1165 C1163 1.415 . S
C1166 H1156 0.930 1_655 S
C1166 C1164 1.419 1_655 S
C1166 C1167 1.362 . S
C1167 H1157 0.930 . S
C1167 C1160 1.409 . S
C1167 C1166 1.362 . S
H1168 C1174 0.930 . S
H1169 C1177 0.930 1_565 S
H1170 C1178 0.930 . S
H1171 C1179 0.930 . S
H1172 C1182 0.930 . S
H1173 C1183 0.930 . S
C1174 H1168 0.930 . S
C1174 C1175 1.355 1_545 S
C1174 C1176 1.415 . S
C1175 C1174 1.355 1_565 S
C1175 C1177 1.419 1_565 S
C1176 C1174 1.415 . S
C1176 C1181 1.425 . S
C1176 C1183 1.409 . S
C1177 H1169 0.930 1_545 S
C1177 C1175 1.419 1_545 S
C1177 C1178 1.362 . S
C1178 H1170 0.930 . S
C1178 C1177 1.362 . S
C1178 C1181 1.409 . S
C1179 H1171 0.930 . S
C1179 C1180 1.355 . S
C1179 C1181 1.415 . S
C1180 C1179 1.355 . S
C1180 C1182 1.419 . S
C1181 C1176 1.425 . S
C1181 C1178 1.409 . S
C1181 C1179 1.415 . S
C1182 H1172 0.930 . S
C1182 C1180 1.419 . S
C1182 C1183 1.362 . S
C1183 H1173 0.930 . S
C1183 C1176 1.409 . S
C1183 C1182 1.362 . S
C551 C5 1.678 . S
C556 C175 1.667 . S
C567 C209 1.697 . S
C572 C39 1.694 . S
C583 C243 1.700 . S
C588 C73 1.688 . S
C599 C141 1.678 . S
C604 C107 1.667 . S
C615 C277 1.678 . S
C620 C447 1.668 . S
C631 C311 1.690 . S
C636 C481 1.700 . S
C647 C515 1.678 . S
C652 C345 1.700 . S
C663 C379 1.670 . S
C668 C413 1.674 . S
C679 C33 1.219 . S
C684 C101 1.223 . S
C695 C135 1.288 . S
C700 C67 1.285 . S
C711 C169 1.259 . S
C716 C237 1.254 . S
C727 C203 1.218 . S
C732 C271 1.221 . S
C743 C373 1.279 . S
C748 C305 1.276 . S
C759 C407 1.283 . S
C764 C339 1.286 . S
C775 C509 1.249 . S
C780 C441 1.244 . S
C791 C543 1.283 . S
C796 C475 1.280 . S
C807 C519 1.533 . S
C812 C9 1.566 . S
C823 C417 1.559 . S
C828 C43 1.504 . S
C839 C451 1.502 . S
C844 C77 1.570 . S
C855 C111 1.554 . S
C860 C485 1.549 . S
C871 C145 1.502 . S
C876 C315 1.567 . S
C887 C179 1.519 . S
C892 C349 1.535 . S
C903 C213 1.505 . S
C908 C383 1.557 . S
C919 C247 1.576 . S
C924 C281 1.509 . S
C935 C478 0.995 . S
C940 C20 1.057 . S
C951 C54 1.058 . S
C956 C512 1.009 . S
C967 C410 1.026 . S
C972 C88 1.060 . S
C983 C444 1.029 . S
C988 C122 1.061 . S
C999 C342 1.039 . S
C1004 C156 1.063 . S
C1015 C190 1.069 . S
C1020 C376 1.077 . S
C1031 C274 1.019 . S
C1036 C224 1.061 . S
C1047 C258 1.069 . S
C1052 C308 1.080 . S
C1063 C206 1.075 . S
C1068 C292 1.068 . S
C1079 C240 0.998 . S
C1084 C326 1.057 . S
C1095 C360 1.068 . S
C1100 C138 1.074 . S
C1111 C172 1.079 . S
C1116 C394 1.069 . S
C1127 C70 1.015 . S
C1132 C428 1.059 . S
C1143 C462 1.060 . S
C1148 C104 1.018 . S
C1159 C496 1.057 . S
C1164 C2 0.996 . S
C1175 C36 1.080 . S
C1180 C530 1.069 . S
