# Generated by pormake.
# Topology vba, (4)-cn, num edge types: 1
# Building blocks:
#     Node 0, Type 0, BuildingBlock: QUQFOY_clean_sbu_1, # of connection points: 4
#     Node 1, Type 0, BuildingBlock: QUQFOY_clean_sbu_1, # of connection points: 4
#     Node 2, Type 0, BuildingBlock: QUQFOY_clean_sbu_1, # of connection points: 4
#     Node 3, Type 0, BuildingBlock: QUQFOY_clean_sbu_1, # of connection points: 4
#     Node 4, Type 0, BuildingBlock: QUQFOY_clean_sbu_1, # of connection points: 4
#     Node 5, Type 0, BuildingBlock: QUQFOY_clean_sbu_1, # of connection points: 4
#     Node 6, Type 0, BuildingBlock: QUQFOY_clean_sbu_1, # of connection points: 4
#     Node 7, Type 0, BuildingBlock: QUQFOY_clean_sbu_1, # of connection points: 4
#     Node 8, Type 0, BuildingBlock: QUQFOY_clean_sbu_1, # of connection points: 4
#     Node 9, Type 0, BuildingBlock: QUQFOY_clean_sbu_1, # of connection points: 4
#     Node 10, Type 0, BuildingBlock: QUQFOY_clean_sbu_1, # of connection points: 4
#     Node 11, Type 0, BuildingBlock: QUQFOY_clean_sbu_1, # of connection points: 4
#     Node 12, Type 0, BuildingBlock: QUQFOY_clean_sbu_1, # of connection points: 4
#     Node 13, Type 0, BuildingBlock: QUQFOY_clean_sbu_1, # of connection points: 4
#     Node 14, Type 0, BuildingBlock: QUQFOY_clean_sbu_1, # of connection points: 4
#     Node 15, Type 0, BuildingBlock: QUQFOY_clean_sbu_1, # of connection points: 4
#     Node 16, Type 0, BuildingBlock: QUQFOY_clean_sbu_1, # of connection points: 4
#     Node 17, Type 0, BuildingBlock: QUQFOY_clean_sbu_1, # of connection points: 4
#     Node 18, Type 0, BuildingBlock: QUQFOY_clean_sbu_1, # of connection points: 4
#     Node 19, Type 0, BuildingBlock: QUQFOY_clean_sbu_1, # of connection points: 4
#     Node 20, Type 0, BuildingBlock: QUQFOY_clean_sbu_1, # of connection points: 4
#     Node 21, Type 0, BuildingBlock: QUQFOY_clean_sbu_1, # of connection points: 4
#     Node 22, Type 0, BuildingBlock: QUQFOY_clean_sbu_1, # of connection points: 4
#     Node 23, Type 0, BuildingBlock: QUQFOY_clean_sbu_1, # of connection points: 4
#     Node 24, Type 0, BuildingBlock: QUQFOY_clean_sbu_1, # of connection points: 4
#     Node 25, Type 0, BuildingBlock: QUQFOY_clean_sbu_1, # of connection points: 4
#     Node 26, Type 0, BuildingBlock: QUQFOY_clean_sbu_1, # of connection points: 4
#     Node 27, Type 0, BuildingBlock: QUQFOY_clean_sbu_1, # of connection points: 4
#     Node 28, Type 0, BuildingBlock: QUQFOY_clean_sbu_1, # of connection points: 4
#     Node 29, Type 0, BuildingBlock: QUQFOY_clean_sbu_1, # of connection points: 4
#     Node 30, Type 0, BuildingBlock: QUQFOY_clean_sbu_1, # of connection points: 4
#     Node 31, Type 0, BuildingBlock: QUQFOY_clean_sbu_1, # of connection points: 4
#     Edge 32, Type (0, 0), BuildingBlock: ZUJKAS_clean_linker_0, # of connection points: 2
#     Edge 33, Type (0, 0), BuildingBlock: ZUJKAS_clean_linker_0, # of connection points: 2
#     Edge 34, Type (0, 0), BuildingBlock: ZUJKAS_clean_linker_0, # of connection points: 2
#     Edge 35, Type (0, 0), BuildingBlock: ZUJKAS_clean_linker_0, # of connection points: 2
#     Edge 36, Type (0, 0), BuildingBlock: ZUJKAS_clean_linker_0, # of connection points: 2
#     Edge 37, Type (0, 0), BuildingBlock: ZUJKAS_clean_linker_0, # of connection points: 2
#     Edge 38, Type (0, 0), BuildingBlock: ZUJKAS_clean_linker_0, # of connection points: 2
#     Edge 39, Type (0, 0), BuildingBlock: ZUJKAS_clean_linker_0, # of connection points: 2
#     Edge 40, Type (0, 0), BuildingBlock: ZUJKAS_clean_linker_0, # of connection points: 2
#     Edge 41, Type (0, 0), BuildingBlock: ZUJKAS_clean_linker_0, # of connection points: 2
#     Edge 42, Type (0, 0), BuildingBlock: ZUJKAS_clean_linker_0, # of connection points: 2
#     Edge 43, Type (0, 0), BuildingBlock: ZUJKAS_clean_linker_0, # of connection points: 2
#     Edge 44, Type (0, 0), BuildingBlock: ZUJKAS_clean_linker_0, # of connection points: 2
#     Edge 45, Type (0, 0), BuildingBlock: ZUJKAS_clean_linker_0, # of connection points: 2
#     Edge 46, Type (0, 0), BuildingBlock: ZUJKAS_clean_linker_0, # of connection points: 2
#     Edge 47, Type (0, 0), BuildingBlock: ZUJKAS_clean_linker_0, # of connection points: 2
#     Edge 48, Type (0, 0), BuildingBlock: ZUJKAS_clean_linker_0, # of connection points: 2
#     Edge 49, Type (0, 0), BuildingBlock: ZUJKAS_clean_linker_0, # of connection points: 2
#     Edge 50, Type (0, 0), BuildingBlock: ZUJKAS_clean_linker_0, # of connection points: 2
#     Edge 51, Type (0, 0), BuildingBlock: ZUJKAS_clean_linker_0, # of connection points: 2
#     Edge 52, Type (0, 0), BuildingBlock: ZUJKAS_clean_linker_0, # of connection points: 2
#     Edge 53, Type (0, 0), BuildingBlock: ZUJKAS_clean_linker_0, # of connection points: 2
#     Edge 54, Type (0, 0), BuildingBlock: ZUJKAS_clean_linker_0, # of connection points: 2
#     Edge 55, Type (0, 0), BuildingBlock: ZUJKAS_clean_linker_0, # of connection points: 2
#     Edge 56, Type (0, 0), BuildingBlock: ZUJKAS_clean_linker_0, # of connection points: 2
#     Edge 57, Type (0, 0), BuildingBlock: ZUJKAS_clean_linker_0, # of connection points: 2
#     Edge 58, Type (0, 0), BuildingBlock: ZUJKAS_clean_linker_0, # of connection points: 2
#     Edge 59, Type (0, 0), BuildingBlock: ZUJKAS_clean_linker_0, # of connection points: 2
#     Edge 60, Type (0, 0), BuildingBlock: ZUJKAS_clean_linker_0, # of connection points: 2
#     Edge 61, Type (0, 0), BuildingBlock: ZUJKAS_clean_linker_0, # of connection points: 2
#     Edge 62, Type (0, 0), BuildingBlock: ZUJKAS_clean_linker_0, # of connection points: 2
#     Edge 63, Type (0, 0), BuildingBlock: ZUJKAS_clean_linker_0, # of connection points: 2
#     Edge 64, Type (0, 0), BuildingBlock: ZUJKAS_clean_linker_0, # of connection points: 2
#     Edge 65, Type (0, 0), BuildingBlock: ZUJKAS_clean_linker_0, # of connection points: 2
#     Edge 66, Type (0, 0), BuildingBlock: ZUJKAS_clean_linker_0, # of connection points: 2
#     Edge 67, Type (0, 0), BuildingBlock: ZUJKAS_clean_linker_0, # of connection points: 2
#     Edge 68, Type (0, 0), BuildingBlock: ZUJKAS_clean_linker_0, # of connection points: 2
#     Edge 69, Type (0, 0), BuildingBlock: ZUJKAS_clean_linker_0, # of connection points: 2
#     Edge 70, Type (0, 0), BuildingBlock: ZUJKAS_clean_linker_0, # of connection points: 2
#     Edge 71, Type (0, 0), BuildingBlock: ZUJKAS_clean_linker_0, # of connection points: 2
#     Edge 72, Type (0, 0), BuildingBlock: ZUJKAS_clean_linker_0, # of connection points: 2
#     Edge 73, Type (0, 0), BuildingBlock: ZUJKAS_clean_linker_0, # of connection points: 2
#     Edge 74, Type (0, 0), BuildingBlock: ZUJKAS_clean_linker_0, # of connection points: 2
#     Edge 75, Type (0, 0), BuildingBlock: ZUJKAS_clean_linker_0, # of connection points: 2
#     Edge 76, Type (0, 0), BuildingBlock: ZUJKAS_clean_linker_0, # of connection points: 2
#     Edge 77, Type (0, 0), BuildingBlock: ZUJKAS_clean_linker_0, # of connection points: 2
#     Edge 78, Type (0, 0), BuildingBlock: ZUJKAS_clean_linker_0, # of connection points: 2
#     Edge 79, Type (0, 0), BuildingBlock: ZUJKAS_clean_linker_0, # of connection points: 2
#     Edge 80, Type (0, 0), BuildingBlock: ZUJKAS_clean_linker_0, # of connection points: 2
#     Edge 81, Type (0, 0), BuildingBlock: ZUJKAS_clean_linker_0, # of connection points: 2
#     Edge 82, Type (0, 0), BuildingBlock: ZUJKAS_clean_linker_0, # of connection points: 2
#     Edge 83, Type (0, 0), BuildingBlock: ZUJKAS_clean_linker_0, # of connection points: 2
#     Edge 84, Type (0, 0), BuildingBlock: ZUJKAS_clean_linker_0, # of connection points: 2
#     Edge 85, Type (0, 0), BuildingBlock: ZUJKAS_clean_linker_0, # of connection points: 2
#     Edge 86, Type (0, 0), BuildingBlock: ZUJKAS_clean_linker_0, # of connection points: 2
#     Edge 87, Type (0, 0), BuildingBlock: ZUJKAS_clean_linker_0, # of connection points: 2
#     Edge 88, Type (0, 0), BuildingBlock: ZUJKAS_clean_linker_0, # of connection points: 2
#     Edge 89, Type (0, 0), BuildingBlock: ZUJKAS_clean_linker_0, # of connection points: 2
#     Edge 90, Type (0, 0), BuildingBlock: ZUJKAS_clean_linker_0, # of connection points: 2
#     Edge 91, Type (0, 0), BuildingBlock: ZUJKAS_clean_linker_0, # of connection points: 2
#     Edge 92, Type (0, 0), BuildingBlock: ZUJKAS_clean_linker_0, # of connection points: 2
#     Edge 93, Type (0, 0), BuildingBlock: ZUJKAS_clean_linker_0, # of connection points: 2
#     Edge 94, Type (0, 0), BuildingBlock: ZUJKAS_clean_linker_0, # of connection points: 2
#     Edge 95, Type (0, 0), BuildingBlock: ZUJKAS_clean_linker_0, # of connection points: 2
# Relax obj value: 0.112
# Max RMSD: 0.328
# Mean RMSD: 0.327
data_MOF--net-vba--node1-QUQFOY_clean_sbu_1--edge1-ZUJKAS_clean_linker_0
_symmetry_space_group_name_H-M    P1
_symmetry_Int_Tables_number       1
_symmetry_cell_setting            triclinic
loop_
_symmetry_equiv_pos_as_xyz
'x, y, z'
_cell_length_a     19.938381
_cell_length_b     140.3531
_cell_length_c     73.400274
_cell_angle_alpha  90.01646
_cell_angle_beta   89.993558
_cell_angle_gamma 90.022834
loop_
_atom_site_label
_atom_site_type_symbol
_atom_site_fract_x
_atom_site_fract_y
_atom_site_fract_z
_atom_type_partial_charge
O0 O 0.30583 0.0607 0.98257 0.0
Cd1 Cd 0.32874 0.06425 0.00884 0.0
Cd2 Cd 0.18855 0.06024 0.01108 0.0
O3 O 0.20277 0.05489 0.98473 0.0
O4 O 0.42571 0.06012 0.01144 0.0
O5 O 0.34036 0.05311 0.02509 0.0
C6 C 0.40277 0.053 0.02073 0.0
C7 C 0.15832 0.05175 0.03733 0.0
C8 C 0.25581 0.05649 0.97548 0.0
C9 C 0.23847 0.08059 0.01781 0.0
O10 O 0.19076 0.07482 0.01442 0.0
O11 O 0.2994 0.07776 0.01779 0.0
O12 O 0.11231 0.05482 0.0264 0.0
O13 O 0.21969 0.05298 0.03258 0.0
O14 O 0.94844 0.19307 0.9695 0.0
Cd15 Cd 0.92535 0.1927 0.99631 0.0
Cd16 Cd 0.05091 0.19824 1.00026 0.0
O17 O 0.02092 0.20457 0.97507 0.0
O18 O 0.83188 0.19816 1.00077 0.0
O19 O 0.92647 0.20602 0.00513 0.0
C20 C 0.86215 0.20604 0.00489 0.0
C21 C 0.07564 0.20526 0.02883 0.0
C22 C 0.98311 0.20006 0.96388 0.0
C23 C 0.02386 0.17807 0.00732 0.0
O24 O 0.06604 0.18379 1.00024 0.0
O25 O 0.96366 0.18083 0.01024 0.0
O26 O 0.12006 0.2052 0.01597 0.0
O27 O 0.0178 0.20171 0.0252 0.0
O28 O 0.28611 0.19595 0.28403 0.0
Cd29 Cd 0.32775 0.19484 0.25893 0.0
Cd30 Cd 0.20501 0.20069 0.24859 0.0
O31 O 0.21826 0.20733 0.27444 0.0
O32 O 0.4218 0.20045 0.25934 0.0
O33 O 0.33278 0.20758 0.24775 0.0
C34 C 0.39496 0.20799 0.25226 0.0
C35 C 0.18334 0.20791 0.22009 0.0
C36 C 0.24835 0.203 0.28743 0.0
C37 C 0.24033 0.18 0.24436 0.0
O38 O 0.19446 0.18604 0.24787 0.0
O39 O 0.3019 0.18249 0.24497 0.0
O40 O 0.13536 0.2066 0.23168 0.0
O41 O 0.24296 0.20561 0.22506 0.0
O42 O 0.91039 0.06695 0.28183 0.0
Cd43 Cd 0.9111 0.06751 0.25453 0.0
Cd44 Cd 0.03815 0.06303 0.25617 0.0
O45 O 0.99572 0.05693 0.28027 0.0
O46 O 0.82524 0.06175 0.24407 0.0
O47 O 0.9206 0.05389 0.24714 0.0
C48 C 0.8584 0.05385 0.24269 0.0
C49 C 0.06188 0.05643 0.22716 0.0
C50 C 0.94656 0.06057 0.28912 0.0
C51 C 0.01666 0.08279 0.24879 0.0
O52 O 0.05606 0.07721 0.25728 0.0
O53 O 0.95875 0.07982 0.24366 0.0
O54 O 0.10298 0.05516 0.24059 0.0
O55 O 0.00868 0.0613 0.23029 0.0
O56 O 0.68922 0.94337 0.03176 0.0
Cd57 Cd 0.67578 0.94376 1.00451 0.0
Cd58 Cd 0.80117 0.94852 1.00411 0.0
O59 O 0.76533 0.95463 0.0289 0.0
O60 O 0.5842 0.94948 0.99857 0.0
O61 O 0.67967 0.95745 0.99752 0.0
C62 C 0.61552 0.95747 0.99621 0.0
C63 C 0.82577 0.95539 0.97543 0.0
C64 C 0.72309 0.95009 0.03878 0.0
C65 C 0.77526 0.92881 0.9955 0.0
O66 O 0.81496 0.93414 1.00449 0.0
O67 O 0.71793 0.93202 0.99056 0.0
O68 O 0.86942 0.95573 0.98847 0.0
O69 O 0.76916 0.95142 0.97886 0.0
O70 O 0.09226 0.81633 0.02852 0.0
Cd71 Cd 0.09196 0.81624 1.00107 0.0
Cd72 Cd 0.96277 0.81314 0.00475 0.0
O73 O 0.0035 0.80691 0.0287 0.0
O74 O 0.1776 0.80993 0.99173 0.0
O75 O 0.0801 0.80258 0.99436 0.0
C76 C 0.14287 0.80215 0.99062 0.0
C77 C 0.92953 0.80624 0.97684 0.0
C78 C 0.05485 0.81042 0.03677 0.0
C79 C 0.99602 0.83242 0.99525 0.0
O80 O 0.95658 0.82754 0.00517 0.0
O81 O 0.04958 0.82862 0.98888 0.0
O82 O 0.88833 0.80637 0.99046 0.0
O83 O 0.98772 0.80994 0.97916 0.0
O84 O 0.6834 0.81144 0.73291 0.0
Cd85 Cd 0.66214 0.81495 0.75935 0.0
Cd86 Cd 0.80245 0.81119 0.76073 0.0
O87 O 0.78733 0.80588 0.73442 0.0
O88 O 0.56607 0.81054 0.76254 0.0
O89 O 0.65353 0.80375 0.77558 0.0
C90 C 0.59079 0.80347 0.77161 0.0
C91 C 0.83713 0.80284 0.7867 0.0
C92 C 0.73336 0.80737 0.72552 0.0
C93 C 0.7513 0.83141 0.76809 0.0
O94 O 0.79905 0.82573 0.76427 0.0
O95 O 0.69058 0.8285 0.76836 0.0
O96 O 0.88126 0.80617 0.77545 0.0
O97 O 0.77502 0.80369 0.78236 0.0
O98 O 0.03562 0.94341 0.72442 0.0
Cd99 Cd 0.06293 0.94334 0.75087 0.0
Cd100 Cd 0.93788 0.94916 0.75591 0.0
O101 O 0.96477 0.9551 0.73012 0.0
O102 O 0.15742 0.94877 0.75399 0.0
O103 O 0.06397 0.95679 0.75889 0.0
C104 C 0.1282 0.95674 0.75796 0.0
C105 C 0.91888 0.95658 0.78438 0.0
C106 C 0.00076 0.95038 0.71881 0.0
C107 C 0.96465 0.92899 0.76334 0.0
O108 O 0.92195 0.93476 0.75666 0.0
O109 O 0.02555 0.93164 0.76552 0.0
O110 O 0.87184 0.95634 0.77224 0.0
O111 O 0.97578 0.95293 0.78012 0.0
O112 O 0.28957 0.56802 0.47569 0.0
Cd113 Cd 0.31396 0.56796 0.50234 0.0
Cd114 Cd 0.18833 0.56221 0.5065 0.0
O115 O 0.21712 0.55644 0.48075 0.0
O116 O 0.40809 0.56255 0.50635 0.0
O117 O 0.31424 0.55442 0.50984 0.0
C118 C 0.37853 0.55453 0.50979 0.0
C119 C 0.17001 0.55458 0.53476 0.0
C120 C 0.25454 0.56114 0.46975 0.0
C121 C 0.21406 0.58224 0.51465 0.0
O122 O 0.17174 0.57656 0.50752 0.0
O123 O 0.27476 0.57954 0.51706 0.0
O124 O 0.12313 0.55472 0.52257 0.0
O125 O 0.22614 0.55853 0.53073 0.0
O126 O 0.9314 0.6942 0.47898 0.0
Cd127 Cd 0.89736 0.69358 0.50503 0.0
Cd128 Cd 0.02765 0.69926 0.51147 0.0
O129 O 0.01315 0.70445 0.48465 0.0
O130 O 0.80544 0.69981 0.50633 0.0
O131 O 0.89965 0.70627 0.51622 0.0
C132 C 0.83679 0.70715 0.51279 0.0
C133 C 0.06734 0.70754 0.53725 0.0
C134 C 0.97416 0.70024 0.47338 0.0
C135 C 0.98482 0.67878 0.51954 0.0
O136 O 0.03067 0.68466 0.51516 0.0
O137 O 0.92331 0.68127 0.51903 0.0
O138 O 0.10888 0.70426 0.52528 0.0
O139 O 0.00438 0.70672 0.53396 0.0
O140 O 0.31491 0.69432 0.78119 0.0
Cd141 Cd 0.33283 0.6941 0.75389 0.0
Cd142 Cd 0.20119 0.69861 0.754 0.0
O143 O 0.22981 0.70433 0.77946 0.0
O144 O 0.42578 0.69971 0.74979 0.0
O145 O 0.33066 0.70715 0.74393 0.0
C146 C 0.39487 0.70743 0.74506 0.0
C147 C 0.15731 0.70642 0.72829 0.0
C148 C 0.27586 0.70027 0.78878 0.0
C149 C 0.241 0.67867 0.74412 0.0
O150 O 0.1984 0.68399 0.75208 0.0
O151 O 0.2991 0.68191 0.74016 0.0
O152 O 0.11785 0.70386 0.7414 0.0
O153 O 0.22038 0.70495 0.73023 0.0
O154 O 0.92251 0.56644 0.77833 0.0
Cd155 Cd 0.92191 0.5663 0.75088 0.0
Cd156 Cd 0.04901 0.56271 0.7535 0.0
O157 O 0.00836 0.55654 0.77758 0.0
O158 O 0.83647 0.56005 0.74123 0.0
O159 O 0.93328 0.55257 0.74434 0.0
C160 C 0.87082 0.55223 0.74019 0.0
C161 C 0.07715 0.55605 0.7249 0.0
C162 C 0.9592 0.56031 0.78621 0.0
C163 C 0.02118 0.58212 0.74482 0.0
O164 O 0.06021 0.57704 0.75448 0.0
O165 O 0.96642 0.57855 0.73868 0.0
O166 O 0.11875 0.55546 0.73839 0.0
O167 O 0.02111 0.56028 0.72775 0.0
O168 O 0.66269 0.44428 0.52996 0.0
Cd169 Cd 0.65619 0.44479 0.50253 0.0
Cd170 Cd 0.78333 0.44867 0.50412 0.0
O171 O 0.7457 0.45464 0.52883 0.0
O172 O 0.56817 0.45094 0.49449 0.0
O173 O 0.66499 0.45854 0.49617 0.0
C174 C 0.60172 0.45881 0.49305 0.0
C175 C 0.81323 0.45564 0.47592 0.0
C176 C 0.69897 0.45048 0.53782 0.0
C177 C 0.75381 0.42927 0.49461 0.0
O178 O 0.79336 0.43427 0.50427 0.0
O179 O 0.69843 0.43285 0.48901 0.0
O180 O 0.85563 0.45556 0.48928 0.0
O181 O 0.75522 0.45196 0.47871 0.0
O182 O 0.06886 0.31801 0.52722 0.0
Cd183 Cd 0.07139 0.31733 0.49987 0.0
Cd184 Cd 0.94396 0.31354 0.50222 0.0
O185 O 0.98322 0.30804 0.52706 0.0
O186 O 0.15814 0.31113 0.49096 0.0
O187 O 0.06232 0.30343 0.49442 0.0
C188 C 0.12494 0.3032 0.49043 0.0
C189 C 0.91943 0.30617 0.47407 0.0
C190 C 0.03177 0.31208 0.53552 0.0
C191 C 0.97131 0.33288 0.49245 0.0
O192 O 0.93169 0.32784 0.50201 0.0
O193 O 0.02694 0.32934 0.48684 0.0
O194 O 0.8761 0.30587 0.48719 0.0
O195 O 0.9748 0.31056 0.47699 0.0
O196 O 0.6823 0.31728 0.22888 0.0
Cd197 Cd 0.67627 0.3175 0.25622 0.0
Cd198 Cd 0.80359 0.31275 0.25575 0.0
O199 O 0.765 0.30689 0.23106 0.0
O200 O 0.58703 0.31198 0.26498 0.0
O201 O 0.68175 0.30386 0.26353 0.0
C202 C 0.61865 0.30399 0.2669 0.0
C203 C 0.82681 0.30568 0.28426 0.0
C204 C 0.71843 0.31085 0.22171 0.0
C205 C 0.78115 0.33246 0.26412 0.0
O206 O 0.82108 0.32697 0.2556 0.0
O207 O 0.7225 0.32951 0.26855 0.0
O208 O 0.86961 0.30498 0.27107 0.0
O209 O 0.77213 0.3102 0.28113 0.0
O210 O 0.09044 0.44768 0.23435 0.0
Cd211 Cd 0.10686 0.4449 0.26126 0.0
Cd212 Cd 0.96695 0.44933 0.26104 0.0
O213 O 0.98931 0.45425 0.23467 0.0
O214 O 0.2011 0.44979 0.26596 0.0
O215 O 0.10874 0.45653 0.27633 0.0
C216 C 0.17237 0.45698 0.27375 0.0
C217 C 0.92495 0.45792 0.28605 0.0
C218 C 0.04347 0.45211 0.22629 0.0
C219 C 0.01358 0.42903 0.2702 0.0
O220 O 0.96776 0.43482 0.26536 0.0
O221 O 0.07475 0.4317 0.2711 0.0
O222 O 0.88414 0.45451 0.27401 0.0
O223 O 0.98802 0.45706 0.283 0.0
O224 O 0.81344 0.06567 0.48138 0.0
Cd225 Cd 0.83453 0.06734 0.50815 0.0
Cd226 Cd 0.69969 0.06279 0.51082 0.0
O227 O 0.72356 0.05664 0.48528 0.0
O228 O 0.92979 0.06244 0.51183 0.0
O229 O 0.83815 0.05472 0.51998 0.0
C230 C 0.90205 0.05473 0.51794 0.0
C231 C 0.67075 0.0553 0.53846 0.0
C232 C 0.77075 0.0598 0.47513 0.0
C233 C 0.74017 0.08302 0.51779 0.0
O234 O 0.69483 0.07737 0.51205 0.0
O235 O 0.80046 0.08009 0.51988 0.0
O236 O 0.62518 0.0568 0.52624 0.0
O237 O 0.73116 0.05766 0.53453 0.0
O238 O 0.43986 0.19446 0.47197 0.0
Cd239 Cd 0.41597 0.19417 0.49878 0.0
Cd240 Cd 0.54368 0.20018 0.5022 0.0
O241 O 0.51425 0.20587 0.47646 0.0
O242 O 0.32248 0.1997 0.50274 0.0
O243 O 0.41726 0.20736 0.50794 0.0
C244 C 0.35298 0.20752 0.50715 0.0
C245 C 0.57791 0.20804 0.52915 0.0
C246 C 0.47532 0.20123 0.46576 0.0
C247 C 0.51432 0.17988 0.51084 0.0
O248 O 0.55645 0.18568 0.50397 0.0
O249 O 0.45324 0.1824 0.513 0.0
O250 O 0.61982 0.20679 0.51591 0.0
O251 O 0.5171 0.20534 0.52663 0.0
O252 O 0.77501 0.19478 0.78433 0.0
Cd253 Cd 0.82215 0.19322 0.75992 0.0
Cd254 Cd 0.70936 0.20043 0.74868 0.0
O255 O 0.72547 0.20761 0.77374 0.0
O256 O 0.91869 0.19702 0.76401 0.0
O257 O 0.8445 0.2057 0.74888 0.0
C258 C 0.90305 0.20496 0.75611 0.0
C259 C 0.69715 0.20729 0.71955 0.0
C260 C 0.74705 0.20275 0.78723 0.0
C261 C 0.73075 0.1794 0.74537 0.0
O262 O 0.68879 0.18593 0.74933 0.0
O263 O 0.79337 0.18127 0.74523 0.0
O264 O 0.64698 0.20693 0.7307 0.0
O265 O 0.75416 0.20422 0.72529 0.0
O266 O 0.38531 0.0669 0.77968 0.0
Cd267 Cd 0.38955 0.06695 0.75228 0.0
Cd268 Cd 0.51706 0.06404 0.75661 0.0
O269 O 0.47422 0.05755 0.78009 0.0
O270 O 0.30644 0.06053 0.74169 0.0
O271 O 0.4039 0.0533 0.7455 0.0
C272 C 0.34196 0.05281 0.74084 0.0
C273 C 0.54969 0.05771 0.72806 0.0
C274 C 0.42233 0.06098 0.78802 0.0
C275 C 0.48495 0.08335 0.74814 0.0
O276 O 0.52368 0.07842 0.75815 0.0
O277 O 0.43269 0.07953 0.74102 0.0
O278 O 0.59003 0.05721 0.74185 0.0
O279 O 0.49261 0.0617 0.73059 0.0
O280 O 0.18146 0.94513 0.5301 0.0
Cd281 Cd 0.17405 0.94554 0.50272 0.0
Cd282 Cd 0.29945 0.9503 0.50397 0.0
O283 O 0.25916 0.95624 0.52841 0.0
O284 O 0.08402 0.95123 0.49512 0.0
O285 O 0.17913 0.95929 0.49614 0.0
C286 C 0.11554 0.95926 0.49351 0.0
C287 C 0.32579 0.95731 0.47553 0.0
C288 C 0.21453 0.95177 0.53763 0.0
C289 C 0.27626 0.93064 0.49495 0.0
O290 O 0.31445 0.93597 0.5044 0.0
O291 O 0.2196 0.93382 0.48939 0.0
O292 O 0.36793 0.95781 0.48891 0.0
O293 O 0.26993 0.95303 0.47843 0.0
O294 O 0.6 0.8191 0.53058 0.0
Cd295 Cd 0.60242 0.81882 0.50312 0.0
Cd296 Cd 0.47528 0.81527 0.50541 0.0
O297 O 0.51474 0.8091 0.52962 0.0
O298 O 0.68799 0.81236 0.49407 0.0
O299 O 0.59008 0.80512 0.49668 0.0
C300 C 0.65286 0.80462 0.49297 0.0
C301 C 0.44523 0.80857 0.477 0.0
C302 C 0.56321 0.81295 0.53841 0.0
C303 C 0.50467 0.83464 0.49652 0.0
O304 O 0.46529 0.82963 0.50621 0.0
O305 O 0.55936 0.83101 0.4905 0.0
O306 O 0.40399 0.80818 0.4906 0.0
O307 O 0.5022 0.81259 0.47967 0.0
O308 O 0.18552 0.81899 0.23164 0.0
Cd309 Cd 0.16919 0.81841 0.25866 0.0
Cd310 Cd 0.2982 0.81411 0.26008 0.0
O311 O 0.26846 0.80868 0.23418 0.0
O312 O 0.07845 0.81226 0.2641 0.0
O313 O 0.17563 0.80476 0.26532 0.0
C314 C 0.11149 0.80441 0.26644 0.0
C315 C 0.3243 0.80645 0.2878 0.0
C316 C 0.22449 0.81293 0.22438 0.0
C317 C 0.26504 0.83368 0.26961 0.0
O318 O 0.30836 0.8285 0.26161 0.0
O319 O 0.20638 0.83037 0.2729 0.0
O320 O 0.36906 0.80707 0.27508 0.0
O321 O 0.26595 0.80989 0.28453 0.0
O322 O 0.54995 0.94462 0.2256 0.0
Cd323 Cd 0.58372 0.94429 0.25158 0.0
Cd324 Cd 0.45752 0.95078 0.25837 0.0
O325 O 0.47894 0.95625 0.23192 0.0
O326 O 0.67837 0.94981 0.25323 0.0
O327 O 0.58566 0.95745 0.26072 0.0
C328 C 0.64941 0.95761 0.25842 0.0
C329 C 0.4329 0.95901 0.28567 0.0
C330 C 0.51324 0.95147 0.22032 0.0
C331 C 0.48793 0.93035 0.2664 0.0
O332 O 0.44425 0.9363 0.26085 0.0
O333 O 0.54992 0.93266 0.26678 0.0
O334 O 0.38652 0.95762 0.27364 0.0
O335 O 0.49239 0.95618 0.28179 0.0
O336 O 0.81158 0.56263 0.97886 0.0
Cd337 Cd 0.82401 0.56386 0.00619 0.0
Cd338 Cd 0.68871 0.56163 0.00495 0.0
O339 O 0.71624 0.55463 0.98067 0.0
O340 O 0.9167 0.55843 0.01154 0.0
O341 O 0.82171 0.55092 0.01723 0.0
C342 C 0.886 0.55074 0.01655 0.0
C343 C 0.65899 0.55527 0.03348 0.0
C344 C 0.76791 0.55724 0.97165 0.0
C345 C 0.73771 0.58091 0.01256 0.0
O346 O 0.69285 0.57613 1.00428 0.0
O347 O 0.79204 0.57689 0.01784 0.0
O348 O 0.61347 0.55635 0.02108 0.0
O349 O 0.71935 0.55757 0.02936 0.0
O350 O 0.44163 0.69247 0.97872 0.0
Cd351 Cd 0.42432 0.6928 0.00582 0.0
Cd352 Cd 0.54951 0.69788 0.00718 0.0
O353 O 0.51569 0.70396 0.98221 0.0
O354 O 0.33189 0.69849 0.01085 0.0
O355 O 0.42721 0.70643 0.01298 0.0
C356 C 0.36291 0.70648 0.0135 0.0
C357 C 0.57476 0.70489 0.03566 0.0
C358 C 0.47534 0.69928 0.97199 0.0
C359 C 0.52318 0.678 0.01531 0.0
O360 O 0.56336 0.68348 0.00684 0.0
O361 O 0.46515 0.68106 0.01995 0.0
O362 O 0.61869 0.70495 0.02267 0.0
O363 O 0.51742 0.70112 0.03228 0.0
O364 O 0.82368 0.6939 0.28189 0.0
Cd365 Cd 0.83409 0.69442 0.25458 0.0
Cd366 Cd 0.70785 0.69865 0.25499 0.0
O367 O 0.74423 0.70475 0.27974 0.0
O368 O 0.92347 0.70053 0.24756 0.0
O369 O 0.82669 0.70817 0.2482 0.0
C370 C 0.89042 0.70843 0.24589 0.0
C371 C 0.68272 0.70538 0.22625 0.0
C372 C 0.78838 0.70036 0.28927 0.0
C373 C 0.73602 0.67908 0.2464 0.0
O374 O 0.69621 0.68427 0.2556 0.0
O375 O 0.79216 0.6825 0.24095 0.0
O376 O 0.6388 0.70565 0.23923 0.0
O377 O 0.73957 0.70151 0.22971 0.0
O378 O 0.42185 0.56769 0.28115 0.0
Cd379 Cd 0.40935 0.56735 0.25392 0.0
Cd380 Cd 0.53507 0.56302 0.25371 0.0
O381 O 0.49925 0.55662 0.2782 0.0
O382 O 0.31888 0.56131 0.24781 0.0
O383 O 0.41565 0.55366 0.24694 0.0
C384 C 0.35153 0.55342 0.24557 0.0
C385 C 0.55883 0.55651 0.2247 0.0
C386 C 0.45607 0.56098 0.28808 0.0
C387 C 0.50688 0.58268 0.24575 0.0
O388 O 0.54693 0.57741 0.25472 0.0
O389 O 0.45044 0.57933 0.24039 0.0
O390 O 0.60296 0.55605 0.2376 0.0
O391 O 0.50242 0.56046 0.2284 0.0
O392 O 0.15682 0.44419 0.02913 0.0
Cd393 Cd 0.14032 0.44221 1.002 0.0
Cd394 Cd 0.27777 0.44747 1.00189 0.0
O395 O 0.25268 0.45215 0.02833 0.0
O396 O 0.04605 0.44711 0.99723 0.0
O397 O 0.13901 0.45428 0.98838 0.0
C398 C 0.07504 0.45453 0.99033 0.0
C399 C 0.32076 0.45651 0.97749 0.0
C400 C 0.20122 0.44918 0.03707 0.0
C401 C 0.23693 0.42706 0.99185 0.0
O402 O 0.28123 0.43297 0.9972 0.0
O403 O 0.17531 0.42949 0.99085 0.0
O404 O 0.36082 0.4532 0.98981 0.0
O405 O 0.25765 0.45524 0.97984 0.0
O406 O 0.55962 0.31424 0.03128 0.0
Cd407 Cd 0.56964 0.31506 1.00407 0.0
Cd408 Cd 0.43962 0.3106 1.00315 0.0
O409 O 0.47434 0.30431 0.02779 0.0
O410 O 0.66048 0.30967 0.99637 0.0
O411 O 0.56532 0.30163 0.9956 0.0
C412 C 0.62915 0.30173 0.99346 0.0
C413 C 0.41847 0.30362 0.97446 0.0
C414 C 0.52101 0.30787 0.03766 0.0
C415 C 0.46816 0.33043 0.99587 0.0
O416 O 0.42596 0.32493 1.00352 0.0
O417 O 0.52708 0.32738 0.99199 0.0
O418 O 0.37325 0.30327 0.98709 0.0
O419 O 0.4739 0.30782 0.9782 0.0
O420 O 0.16665 0.31759 0.73403 0.0
Cd421 Cd 0.17487 0.31606 0.76108 0.0
Cd422 Cd 0.30103 0.31291 0.75709 0.0
O423 O 0.25685 0.30849 0.73183 0.0
O424 O 0.10065 0.30805 0.77304 0.0
O425 O 0.19511 0.30207 0.76244 0.0
C426 C 0.13737 0.30064 0.76965 0.0
C427 C 0.3258 0.30508 0.78487 0.0
C428 C 0.20485 0.31231 0.72453 0.0
C429 C 0.27783 0.33175 0.76878 0.0
O430 O 0.31757 0.32701 0.75875 0.0
O431 O 0.2218 0.32808 0.77382 0.0
O432 O 0.36686 0.30451 0.77124 0.0
O433 O 0.27163 0.30987 0.78261 0.0
O434 O 0.55273 0.44304 0.72799 0.0
Cd435 Cd 0.58912 0.44274 0.75375 0.0
Cd436 Cd 0.46324 0.44899 0.76123 0.0
O437 O 0.47972 0.45438 0.73451 0.0
O438 O 0.68333 0.44836 0.75414 0.0
O439 O 0.59201 0.45581 0.76342 0.0
C440 C 0.65505 0.45611 0.75989 0.0
C441 C 0.43516 0.45729 0.78817 0.0
C442 C 0.51399 0.44968 0.7228 0.0
C443 C 0.49801 0.4285 0.7691 0.0
O444 O 0.4532 0.43444 0.76423 0.0
O445 O 0.55986 0.43086 0.7688 0.0
O446 O 0.38946 0.45525 0.77629 0.0
O447 O 0.49607 0.45515 0.78423 0.0
H448 H 0.24369 0.04255 0.06024 0.0
H449 H 0.2284 0.03966 0.09275 0.0
H450 H 0.02547 0.05011 0.08921 0.0
H451 H 0.04025 0.05296 0.0565 0.0
H452 H 0.20241 0.05465 0.11609 0.0
H453 H 0.00612 0.0269 0.12286 0.0
H454 H 0.05235 0.02878 0.10199 0.0
H455 H 0.98369 0.03649 0.10786 0.0
C456 C 0.19511 0.044 0.06624 0.0
C457 C 0.14321 0.04803 0.05579 0.0
C458 C 0.18655 0.04235 0.08486 0.0
C459 C 0.12583 0.04464 0.09344 0.0
C460 C 0.07244 0.04813 0.08284 0.0
H461 H 0.97498 0.05664 0.19876 0.0
H462 H 0.99618 0.05241 0.16719 0.0
C463 C 0.08094 0.04977 0.06413 0.0
C464 C 0.12153 0.04456 0.11366 0.0
H465 H 0.03062 0.03605 0.14956 0.0
C466 C 0.16553 0.05047 0.12346 0.0
C467 C 0.07335 0.03913 0.12322 0.0
C468 C 0.02654 0.03239 0.11348 0.0
C469 C 0.16063 0.05144 0.14246 0.0
C470 C 0.11131 0.04618 0.15202 0.0
C471 C 0.06866 0.04004 0.14226 0.0
C472 C 0.09827 0.04779 0.17174 0.0
C473 C 0.20595 0.05849 0.15195 0.0
C474 C 0.14814 0.04636 0.18505 0.0
C475 C 0.13633 0.04887 0.2033 0.0
C476 C 0.07432 0.05279 0.20849 0.0
C477 C 0.02368 0.05375 0.19525 0.0
C478 C 0.03553 0.05128 0.17714 0.0
H479 H 0.23115 0.06336 0.14218 0.0
H480 H 0.17724 0.06285 0.16188 0.0
H481 H 0.24541 0.05457 0.15951 0.0
H482 H 0.19655 0.04349 0.18126 0.0
H483 H 0.17612 0.04799 0.21319 0.0
H484 H 0.27647 0.21347 0.19516 0.0
H485 H 0.26051 0.21597 0.16256 0.0
H486 H 0.04778 0.21153 0.16889 0.0
H487 H 0.06332 0.2091 0.20172 0.0
H488 H 0.21082 0.202 0.13997 0.0
H489 H 0.05503 0.23461 0.13474 0.0
H490 H 0.10053 0.23151 0.15518 0.0
H491 H 0.02226 0.22575 0.15 0.0
C492 C 0.22599 0.21322 0.18972 0.0
C493 C 0.17113 0.21104 0.20106 0.0
C494 C 0.21702 0.21465 0.17105 0.0
C495 C 0.15299 0.21398 0.16324 0.0
C496 C 0.09756 0.21224 0.17463 0.0
H497 H 0.9868 0.20734 0.05663 0.0
H498 H 0.0106 0.2105 0.08859 0.0
C499 C 0.1065 0.21083 0.1934 0.0
C500 C 0.14565 0.21411 0.14306 0.0
H501 H 0.06595 0.22524 0.10777 0.0
C502 C 0.17977 0.20715 0.1329 0.0
C503 C 0.10495 0.22081 0.13386 0.0
C504 C 0.06902 0.22865 0.14396 0.0
C505 C 0.17257 0.20649 0.1139 0.0
C506 C 0.13126 0.21313 0.10467 0.0
C507 C 0.09799 0.2202 0.11481 0.0
C508 C 0.11742 0.2123 0.0848 0.0
C509 C 0.20691 0.19842 0.10402 0.0
C510 C 0.1693 0.21257 0.07179 0.0
C511 C 0.15587 0.2107 0.05335 0.0
C512 C 0.09025 0.20858 0.04763 0.0
C513 C 0.03809 0.20886 0.06055 0.0
C514 C 0.05153 0.2107 0.07888 0.0
H515 H 0.22395 0.19275 0.11353 0.0
H516 H 0.17291 0.19516 0.09378 0.0
H517 H 0.25165 0.20121 0.09678 0.0
H518 H 0.2204 0.214 0.07597 0.0
H519 H 0.19707 0.21059 0.04374 0.0
H520 H 0.80013 0.95906 0.80294 0.0
H521 H 0.78742 0.962 0.83576 0.0
H522 H 0.00188 0.96491 0.841 0.0
H523 H 0.01491 0.96187 0.80849 0.0
H524 H 0.9492 0.95143 0.86392 0.0
H525 H 0.80537 0.98512 0.86961 0.0
H526 H 0.76846 0.97643 0.85468 0.0
H527 H 0.84813 0.98163 0.84896 0.0
C528 C 0.84429 0.96059 0.81103 0.0
C529 C 0.90849 0.96017 0.80316 0.0
C530 C 0.83702 0.96229 0.82978 0.0
C531 C 0.89376 0.96371 0.84086 0.0
C532 C 0.95743 0.96382 0.83276 0.0
H533 H 0.947 0.96045 0.96005 0.0
H534 H 0.96858 0.96388 0.92772 0.0
C535 C 0.96473 0.96208 0.81415 0.0
C536 C 0.88804 0.96398 0.86106 0.0
H537 H 0.81572 0.97582 0.89668 0.0
C538 C 0.92067 0.95683 0.87111 0.0
C539 C 0.85066 0.97101 0.87041 0.0
C540 C 0.81659 0.97904 0.8604 0.0
C541 C 0.91519 0.95633 0.89016 0.0
C542 C 0.87716 0.96329 0.89953 0.0
C543 C 0.84535 0.97054 0.88952 0.0
C544 C 0.86465 0.96259 0.91947 0.0
C545 C 0.94772 0.94808 0.89996 0.0
C546 C 0.79895 0.96122 0.92572 0.0
C547 C 0.78658 0.95935 0.94408 0.0
C548 C 0.83964 0.95882 0.95669 0.0
C549 C 0.90516 0.96076 0.95067 0.0
C550 C 0.91754 0.96265 0.93218 0.0
H551 H 0.96268 0.9423 0.89044 0.0
H552 H 0.99353 0.95063 0.90703 0.0
H553 H 0.9133 0.94504 0.91035 0.0
H554 H 0.75731 0.9612 0.91623 0.0
H555 H 0.73534 0.958 0.94827 0.0
H556 H 0.95184 0.80638 0.80607 0.0
H557 H 0.96754 0.80405 0.83893 0.0
H558 H 0.77667 0.78971 0.84208 0.0
H559 H 0.76044 0.79205 0.80938 0.0
H560 H 0.86658 0.81211 0.86381 0.0
H561 H 0.90708 0.7733 0.87444 0.0
H562 H 0.92578 0.77916 0.85311 0.0
H563 H 0.84046 0.77664 0.85918 0.0
C564 C 0.91433 0.80245 0.81365 0.0
C565 C 0.85488 0.79942 0.80515 0.0
C566 C 0.92314 0.80118 0.83243 0.0
C567 C 0.87329 0.7967 0.84292 0.0
C568 C 0.81606 0.79309 0.83423 0.0
H569 H 0.80629 0.80579 0.95996 0.0
H570 H 0.78541 0.80239 0.92751 0.0
C571 C 0.80688 0.79445 0.81553 0.0
C572 C 0.87691 0.79686 0.8631 0.0
H573 H 0.89093 0.78275 0.90086 0.0
C574 C 0.87186 0.8057 0.87192 0.0
C575 C 0.88337 0.78847 0.87359 0.0
C576 C 0.88995 0.77883 0.86468 0.0
C577 C 0.87335 0.80638 0.891 0.0
C578 C 0.87973 0.798 0.90153 0.0
C579 C 0.88491 0.78914 0.89273 0.0
C580 C 0.88817 0.7985 0.92158 0.0
C581 C 0.86983 0.81609 0.89979 0.0
C582 C 0.95203 0.79709 0.92903 0.0
C583 C 0.964 0.79909 0.94735 0.0
C584 C 0.91214 0.80242 0.95868 0.0
C585 C 0.84699 0.80318 0.95156 0.0
C586 C 0.83516 0.80129 0.93304 0.0
H587 H 0.87326 0.82194 0.88964 0.0
H588 H 0.82157 0.8168 0.9072 0.0
H589 H 0.91097 0.81695 0.90985 0.0
H590 H 0.99353 0.79494 0.92042 0.0
H591 H 0.0147 0.79838 0.95251 0.0
H592 H 0.26696 0.54891 0.5582 0.0
H593 H 0.2555 0.5456 0.59065 0.0
H594 H 0.04089 0.5487 0.58632 0.0
H595 H 0.05204 0.55192 0.55356 0.0
H596 H 0.20472 0.55906 0.61385 0.0
H597 H 0.05971 0.52549 0.61988 0.0
H598 H 0.10156 0.52898 0.59909 0.0
H599 H 0.02228 0.53419 0.60511 0.0
C600 C 0.21707 0.54867 0.56404 0.0
C601 C 0.16034 0.55074 0.55335 0.0
C602 C 0.21067 0.54677 0.58261 0.0
C603 C 0.14743 0.54688 0.59095 0.0
C604 C 0.09015 0.54841 0.58014 0.0
H605 H 0.98839 0.55329 0.69747 0.0
H606 H 0.01198 0.54974 0.66568 0.0
C607 C 0.09652 0.55027 0.56142 0.0
C608 C 0.14279 0.54657 0.61115 0.0
H609 H 0.07036 0.53488 0.64691 0.0
C610 C 0.1761 0.55369 0.6211 0.0
C611 C 0.10533 0.53958 0.62058 0.0
C612 C 0.07063 0.53157 0.61066 0.0
C613 C 0.17089 0.55425 0.64014 0.0
C614 C 0.13244 0.54737 0.64959 0.0
C615 C 0.10031 0.5401 0.63968 0.0
C616 C 0.11903 0.54824 0.66945 0.0
C617 C 0.20391 0.5625 0.64986 0.0
C618 C 0.17121 0.54825 0.68237 0.0
C619 C 0.15788 0.55035 0.70073 0.0
C620 C 0.09216 0.55245 0.70637 0.0
C621 C 0.0398 0.55184 0.69356 0.0
C622 C 0.05308 0.54976 0.67534 0.0
H623 H 0.21987 0.56819 0.64026 0.0
H624 H 0.16936 0.56567 0.66006 0.0
H625 H 0.24912 0.55991 0.65714 0.0
H626 H 0.2224 0.54691 0.67817 0.0
H627 H 0.19915 0.55071 0.7103 0.0
H628 H 0.16429 0.69976 0.55857 0.0
H629 H 0.17718 0.702 0.59144 0.0
H630 H 0.03257 0.72487 0.58996 0.0
H631 H 0.01587 0.7221 0.55733 0.0
H632 H 0.21317 0.71433 0.61454 0.0
H633 H 0.94163 0.7087 0.62593 0.0
H634 H 0.97954 0.70734 0.60383 0.0
H635 H 0.95726 0.71901 0.6122 0.0
C636 C 0.13645 0.70541 0.56522 0.0
C637 C 0.08895 0.71074 0.55548 0.0
C638 C 0.14344 0.70665 0.58406 0.0
C639 C 0.10395 0.71337 0.59343 0.0
C640 C 0.06139 0.71934 0.58329 0.0
H641 H 0.20048 0.72179 0.70919 0.0
H642 H 0.18128 0.72493 0.67679 0.0
C643 C 0.05278 0.71789 0.56458 0.0
C644 C 0.10533 0.71377 0.61378 0.0
H645 H 0.00565 0.7131 0.65171 0.0
C646 C 0.16771 0.71405 0.62264 0.0
C647 C 0.04615 0.7132 0.62449 0.0
C648 C 0.97749 0.71194 0.61613 0.0
C649 C 0.17279 0.71365 0.64173 0.0
C650 C 0.11351 0.71351 0.65246 0.0
C651 C 0.0511 0.71335 0.6436 0.0
C652 C 0.11523 0.71285 0.67278 0.0
C653 C 0.24192 0.71287 0.65002 0.0
C654 C 0.07918 0.70563 0.68182 0.0
C655 C 0.08738 0.70415 0.70057 0.0
C656 C 0.1326 0.70977 0.71051 0.0
C657 C 0.16512 0.71738 0.70178 0.0
C658 C 0.15519 0.71905 0.68319 0.0
H659 H 0.27905 0.7101 0.64006 0.0
H660 H 0.25909 0.72005 0.65433 0.0
H661 H 0.24194 0.70809 0.66207 0.0
H662 H 0.04751 0.70077 0.67422 0.0
H663 H 0.06264 0.69814 0.70694 0.0
H664 H 0.80727 0.45393 0.30377 0.0
H665 H 0.7846 0.45632 0.33633 0.0
H666 H 0.97079 0.47166 0.3419 0.0
H667 H 0.9939 0.46927 0.30953 0.0
H668 H 0.88014 0.44886 0.36277 0.0
H669 H 0.83296 0.48758 0.37226 0.0
H670 H 0.8207 0.48162 0.35068 0.0
H671 H 0.90382 0.48451 0.35827 0.0
C672 C 0.84216 0.4581 0.31179 0.0
C673 C 0.90235 0.46141 0.30409 0.0
C674 C 0.8294 0.4594 0.33042 0.0
C675 C 0.87597 0.46419 0.34153 0.0
C676 C 0.9338 0.46806 0.33357 0.0
H677 H 0.93608 0.45633 0.45888 0.0
H678 H 0.95627 0.45937 0.42629 0.0
C679 C 0.94694 0.46667 0.31505 0.0
C680 C 0.86864 0.4641 0.36166 0.0
H681 H 0.84915 0.47837 0.39906 0.0
C682 C 0.87321 0.45531 0.3707 0.0
C683 C 0.85999 0.47252 0.37197 0.0
C684 C 0.85356 0.48211 0.36286 0.0
C685 C 0.86967 0.45472 0.38978 0.0
C686 C 0.86162 0.46315 0.40011 0.0
C687 C 0.85641 0.47194 0.3911 0.0
C688 C 0.8528 0.46276 0.42017 0.0
C689 C 0.87333 0.44507 0.39879 0.0
C690 C 0.78862 0.46398 0.42756 0.0
C691 C 0.77702 0.46219 0.446 0.0
C692 C 0.82956 0.45925 0.4575 0.0
C693 C 0.89482 0.45864 0.45037 0.0
C694 C 0.90628 0.46033 0.43177 0.0
H695 H 0.87122 0.43916 0.38875 0.0
H696 H 0.92104 0.44449 0.4065 0.0
H697 H 0.83148 0.44421 0.40864 0.0
H698 H 0.74675 0.46585 0.41886 0.0
H699 H 0.72621 0.46276 0.45113 0.0
H700 H 0.73527 0.30319 0.31114 0.0
H701 H 0.75605 0.29983 0.34316 0.0
H702 H 0.96688 0.29632 0.33187 0.0
H703 H 0.94652 0.29992 0.29954 0.0
H704 H 0.81196 0.28515 0.36321 0.0
H705 H 0.9636 0.31833 0.36828 0.0
H706 H 0.91393 0.31552 0.34847 0.0
H707 H 0.99332 0.30975 0.35202 0.0
C708 C 0.78612 0.30161 0.31537 0.0
C709 C 0.83954 0.30199 0.30285 0.0
C710 C 0.79779 0.29963 0.33371 0.0
C711 C 0.86312 0.29801 0.34 0.0
C712 C 0.91617 0.29774 0.32735 0.0
H713 H 0.01335 0.29985 0.45051 0.0
H714 H -0.001 0.29608 0.41834 0.0
C715 C 0.90448 0.29973 0.30888 0.0
C716 C 0.87533 0.29746 0.35994 0.0
H717 H 0.94823 0.30955 0.39511 0.0
C718 C 0.84225 0.29042 0.3702 0.0
C719 C 0.91407 0.30444 0.36907 0.0
C720 C 0.94786 0.31249 0.35897 0.0
C721 C 0.84708 0.29017 0.38933 0.0
C722 C 0.88531 0.2972 0.3984 0.0
C723 C 0.91909 0.30414 0.38812 0.0
C724 C 0.89114 0.29767 0.41856 0.0
C725 C 0.81159 0.28237 0.39965 0.0
C726 C 0.83486 0.29952 0.4296 0.0
C727 C 0.84291 0.30162 0.44818 0.0
C728 C 0.90742 0.30205 0.45583 0.0
C729 C 0.963 0.29966 0.44496 0.0
C730 C 0.95494 0.29749 0.42656 0.0
H731 H 0.79898 0.27624 0.39069 0.0
H732 H 0.84284 0.27977 0.41115 0.0
H733 H 0.76414 0.28522 0.40536 0.0
H734 H 0.78521 0.29986 0.42366 0.0
H735 H 0.79934 0.30352 0.45622 0.0
H736 H 0.54941 0.05514 0.55642 0.0
H737 H 0.53209 0.05254 0.58924 0.0
H738 H 0.74107 0.04539 0.59539 0.0
H739 H 0.75881 0.04797 0.56288 0.0
H740 H 0.56759 0.03622 0.61486 0.0
H741 H 0.70768 0.06991 0.62725 0.0
H742 H 0.67265 0.06695 0.60529 0.0
H743 H 0.74824 0.06127 0.61292 0.0
C744 C 0.59117 0.05277 0.5647 0.0
C745 C 0.65557 0.05186 0.5571 0.0
C746 C 0.5813 0.05133 0.58344 0.0
C747 C 0.63564 0.04894 0.59475 0.0
C748 C 0.69874 0.04736 0.58694 0.0
H749 H 0.67426 0.05348 0.71374 0.0
H750 H 0.69996 0.04967 0.68174 0.0
C751 C 0.70866 0.04882 0.56833 0.0
C752 C 0.62822 0.0489 0.61487 0.0
H753 H 0.67202 0.06137 0.65303 0.0
C754 C 0.59045 0.0417 0.62324 0.0
C755 C 0.65878 0.056 0.62577 0.0
C756 C 0.69878 0.06402 0.61743 0.0
C757 C 0.58213 0.04144 0.64227 0.0
C758 C 0.61117 0.0487 0.65314 0.0
C759 C 0.65016 0.05577 0.64475 0.0
C760 C 0.59629 0.0497 0.67291 0.0
C761 C 0.5426 0.03336 0.65054 0.0
C762 C 0.52974 0.0509 0.67861 0.0
C763 C 0.51517 0.05306 0.69672 0.0
C764 C 0.56681 0.05416 0.70962 0.0
C765 C 0.63346 0.05263 0.70413 0.0
C766 C 0.64811 0.05048 0.68587 0.0
H767 H 0.54458 0.0269 0.64181 0.0
H768 H 0.56154 0.0315 0.66432 0.0
H769 H 0.48925 0.03551 0.65177 0.0
H770 H 0.48898 0.05057 0.66887 0.0
H771 H 0.46319 0.05416 0.70048 0.0
H772 H 0.49642 0.21396 0.55658 0.0
H773 H 0.52617 0.21669 0.5883 0.0
H774 H 0.73507 0.21252 0.57534 0.0
H775 H 0.70528 0.20959 0.54334 0.0
H776 H 0.69304 0.20119 0.60323 0.0
H777 H 0.61029 0.2381 0.61693 0.0
H778 H 0.54534 0.23109 0.60663 0.0
H779 H 0.62106 0.23354 0.5941 0.0
C780 C 0.54896 0.21383 0.56034 0.0
C781 C 0.59851 0.21153 0.5474 0.0
C782 C 0.56594 0.21547 0.57853 0.0
C783 C 0.63295 0.21493 0.58425 0.0
C784 C 0.68303 0.21305 0.57122 0.0
H785 H 0.79622 0.21013 0.69451 0.0
H786 H 0.78395 0.21294 0.66185 0.0
C787 C 0.66603 0.21142 0.55292 0.0
C788 C 0.64904 0.21519 0.60406 0.0
H789 H 0.62403 0.22797 0.64318 0.0
C790 C 0.67902 0.20712 0.61191 0.0
C791 C 0.63009 0.22288 0.61546 0.0
C792 C 0.60051 0.23193 0.60782 0.0
C793 C 0.68829 0.20638 0.63083 0.0
C794 C 0.66808 0.21399 0.64226 0.0
C795 C 0.63927 0.22214 0.63442 0.0
C796 C 0.67557 0.21345 0.6624 0.0
C797 C 0.71733 0.1973 0.6385 0.0
C798 C 0.6188 0.21325 0.67374 0.0
C799 C 0.62562 0.2117 0.69253 0.0
C800 C 0.68942 0.21034 0.70029 0.0
C801 C 0.74627 0.21106 0.68899 0.0
C802 C 0.7394 0.21263 0.67027 0.0
H803 H 0.71573 0.19137 0.62846 0.0
H804 H 0.77052 0.19852 0.64227 0.0
H805 H 0.68983 0.19506 0.65094 0.0
H806 H 0.56905 0.21393 0.66795 0.0
H807 H 0.58086 0.21119 0.70083 0.0
H808 H 0.44777 0.96228 0.46054 0.0
H809 H 0.47011 0.96615 0.42841 0.0
H810 H 0.25864 0.96411 0.41668 0.0
H811 H 0.23608 0.96045 0.44846 0.0
H812 H 0.4429 0.95411 0.40017 0.0
H813 H 0.30673 0.98788 0.38877 0.0
H814 H 0.32621 0.98351 0.4113 0.0
H815 H 0.25435 0.97903 0.39915 0.0
C816 C 0.40604 0.9629 0.45117 0.0
C817 C 0.34026 0.96102 0.45703 0.0
C818 C 0.41881 0.96509 0.43282 0.0
C819 C 0.36593 0.96555 0.42014 0.0
C820 C 0.30013 0.96403 0.4262 0.0
H821 H 0.31259 0.95969 0.30399 0.0
H822 H 0.29723 0.96261 0.33677 0.0
C823 C 0.28742 0.96183 0.44441 0.0
C824 C 0.37935 0.9665 0.40027 0.0
H825 H 0.33147 0.97859 0.36193 0.0
C826 C 0.41951 0.95957 0.39187 0.0
C827 C 0.34819 0.97356 0.38938 0.0
C828 C 0.307 0.98147 0.39764 0.0
C829 C 0.42738 0.95928 0.37287 0.0
C830 C 0.39504 0.9662 0.36194 0.0
C831 C 0.35592 0.97326 0.37032 0.0
C832 C 0.40138 0.96607 0.34179 0.0
C833 C 0.46838 0.95134 0.36457 0.0
C834 C 0.46417 0.9675 0.33366 0.0
C835 C 0.47302 0.96584 0.31506 0.0
C836 C 0.41909 0.96277 0.30416 0.0
C837 C 0.35498 0.96207 0.31202 0.0
C838 C 0.34623 0.9637 0.33074 0.0
H839 H 0.47766 0.94547 0.3744 0.0
H840 H 0.44286 0.94835 0.35239 0.0
H841 H 0.51768 0.95421 0.36018 0.0
H842 H 0.50711 0.96948 0.34188 0.0
H843 H 0.52294 0.96653 0.30938 0.0
H844 H 0.53123 0.80614 0.44877 0.0
H845 H 0.50458 0.80259 0.41717 0.0
H846 H 0.29602 0.79919 0.43136 0.0
H847 H 0.32229 0.80302 0.46329 0.0
H848 H 0.44713 0.78765 0.39885 0.0
H849 H 0.29034 0.82031 0.39339 0.0
H850 H 0.34311 0.81798 0.41283 0.0
H851 H 0.26406 0.81194 0.41047 0.0
C852 C 0.47959 0.80458 0.44527 0.0
C853 C 0.4286 0.80503 0.45852 0.0
C854 C 0.46456 0.80249 0.42716 0.0
C855 C 0.39819 0.8008 0.42179 0.0
C856 C 0.34747 0.80067 0.43514 0.0
H857 H 0.23385 0.79996 0.31237 0.0
H858 H 0.25192 0.79687 0.34468 0.0
C859 C 0.36254 0.80279 0.45339 0.0
C860 C 0.3827 0.79986 0.40206 0.0
H861 H 0.30287 0.81108 0.36696 0.0
C862 C 0.41511 0.79272 0.39188 0.0
C863 C 0.34154 0.80655 0.39294 0.0
C864 C 0.30815 0.81468 0.40288 0.0
C865 C 0.40761 0.79212 0.37285 0.0
C866 C 0.36718 0.79888 0.36376 0.0
C867 C 0.33376 0.80589 0.37397 0.0
C868 C 0.35921 0.79904 0.34364 0.0
C869 C 0.4428 0.78426 0.36263 0.0
C870 C 0.41397 0.801 0.33214 0.0
C871 C 0.40382 0.80274 0.3135 0.0
C872 C 0.33865 0.80266 0.30622 0.0
C873 C 0.28467 0.80015 0.3176 0.0
C874 C 0.29484 0.79837 0.33609 0.0
H875 H 0.4577 0.77834 0.37182 0.0
H876 H 0.4103 0.78137 0.35166 0.0
H877 H 0.48889 0.78716 0.35622 0.0
H878 H 0.464 0.8017 0.33772 0.0
H879 H 0.44622 0.80474 0.30511 0.0
H880 H 0.53804 0.55545 0.05172 0.0
H881 H 0.5213 0.55299 0.08464 0.0
H882 H 0.7303 0.54579 0.09057 0.0
H883 H 0.74745 0.54824 0.05803 0.0
H884 H 0.55648 0.53667 0.11008 0.0
H885 H 0.69836 0.57016 0.12272 0.0
H886 H 0.66301 0.56727 0.10076 0.0
H887 H 0.73886 0.56159 0.10822 0.0
C888 C 0.57994 0.55313 0.06 0.0
C889 C 0.64417 0.55215 0.05233 0.0
C890 C 0.57041 0.55176 0.07878 0.0
C891 C 0.62492 0.54938 0.09005 0.0
C892 C 0.68786 0.54777 0.08217 0.0
H893 H 0.67967 0.55219 0.20838 0.0
H894 H 0.69879 0.54889 0.17587 0.0
C895 C 0.69745 0.54916 0.06354 0.0
C896 C 0.61795 0.54927 0.11017 0.0
H897 H 0.66637 0.56125 0.14848 0.0
C898 C 0.58036 0.54204 0.11851 0.0
C899 C 0.64977 0.55624 0.12112 0.0
C900 C 0.68941 0.56431 0.11282 0.0
C901 C 0.57395 0.54158 0.13759 0.0
C902 C 0.60489 0.54864 0.14854 0.0
C903 C 0.64316 0.55579 0.14013 0.0
C904 C 0.59362 0.5493 0.16853 0.0
C905 C 0.53472 0.53346 0.14583 0.0
C906 C 0.52836 0.55052 0.17522 0.0
C907 C 0.51748 0.55239 0.19365 0.0
C908 C 0.57164 0.55316 0.20586 0.0
C909 C 0.63697 0.55159 0.19934 0.0
C910 C 0.64788 0.54973 0.18078 0.0
H911 H 0.53423 0.52715 0.13669 0.0
H912 H 0.55574 0.53131 0.15923 0.0
H913 H 0.48198 0.53574 0.14789 0.0
H914 H 0.48581 0.55045 0.16605 0.0
H915 H 0.46644 0.55354 0.19821 0.0
H916 H 0.56124 0.70739 0.20874 0.0
H917 H 0.54435 0.71012 0.1759 0.0
H918 H 0.7575 0.71374 0.16887 0.0
H919 H 0.77472 0.71094 0.20132 0.0
H920 H 0.58611 0.72523 0.15011 0.0
H921 H 0.70849 0.69033 0.13699 0.0
H922 H 0.67882 0.69378 0.15926 0.0
H923 H 0.7566 0.69844 0.15068 0.0
C924 C 0.60418 0.70898 0.20023 0.0
C925 C 0.66932 0.70882 0.20754 0.0
C926 C 0.59456 0.71051 0.18149 0.0
C927 C 0.64989 0.71193 0.16991 0.0
C928 C 0.71428 0.71247 0.17748 0.0
H929 H 0.6973 0.70858 0.0515 0.0
H930 H 0.71875 0.7119 0.08388 0.0
C931 C 0.72394 0.71089 0.19606 0.0
C932 C 0.64166 0.71209 0.1498 0.0
H933 H 0.6816 0.69965 0.1113 0.0
C934 C 0.60687 0.71964 0.1416 0.0
C935 C 0.66913 0.70481 0.13872 0.0
C936 C 0.70489 0.69633 0.14681 0.0
C937 C 0.59929 0.72014 0.12255 0.0
C938 C 0.62627 0.71281 0.11148 0.0
C939 C 0.66157 0.70532 0.11973 0.0
C940 C 0.61387 0.71226 0.09152 0.0
C941 C 0.56308 0.72857 0.11444 0.0
C942 C 0.54799 0.7115 0.08502 0.0
C943 C 0.53577 0.70962 0.06665 0.0
C944 C 0.58915 0.70838 0.05431 0.0
C945 C 0.65517 0.70955 0.06063 0.0
C946 C 0.66743 0.71141 0.07913 0.0
H947 H 0.56523 0.73485 0.12362 0.0
H948 H 0.58462 0.73057 0.10102 0.0
H949 H 0.50951 0.7267 0.11244 0.0
H950 H 0.50588 0.71191 0.09431 0.0
H951 H 0.48424 0.70877 0.06224 0.0
H952 H 0.52004 0.46598 0.81196 0.0
H953 H 0.50205 0.46867 0.84451 0.0
H954 H 0.29781 0.45899 0.83922 0.0
H955 H 0.3153 0.45631 0.80647 0.0
H956 H 0.39545 0.47926 0.86618 0.0
H957 H 0.40135 0.43985 0.87472 0.0
H958 H 0.43329 0.44568 0.85458 0.0
H959 H 0.34451 0.44451 0.85788 0.0
C960 C 0.47072 0.46464 0.81762 0.0
C961 C 0.41915 0.46087 0.80667 0.0
C962 C 0.46058 0.46619 0.83623 0.0
C963 C 0.39893 0.46392 0.84429 0.0
C964 C 0.34592 0.46074 0.83323 0.0
H965 H 0.25161 0.46783 0.95407 0.0
H966 H 0.27811 0.47093 0.92215 0.0
C967 C 0.35584 0.45927 0.81451 0.0
C968 C 0.39266 0.46396 0.86444 0.0
H969 H 0.38312 0.44904 0.9011 0.0
C970 C 0.3926 0.47267 0.87385 0.0
C971 C 0.39039 0.45534 0.8744 0.0
C972 C 0.39283 0.44579 0.86498 0.0
C973 C 0.38866 0.47297 0.893 0.0
C974 C 0.38484 0.46434 0.90292 0.0
C975 C 0.38629 0.45565 0.89348 0.0
C976 C 0.37522 0.46409 0.92299 0.0
C977 C 0.38911 0.4825 0.9025 0.0
C978 C 0.42174 0.4594 0.93426 0.0
C979 C 0.4069 0.45767 0.95264 0.0
C980 C 0.34471 0.46044 0.95993 0.0
C981 C 0.30006 0.46562 0.94887 0.0
C982 C 0.31519 0.46743 0.93061 0.0
H983 H 0.40939 0.48821 0.89359 0.0
H984 H 0.33698 0.48444 0.90627 0.0
H985 H 0.41937 0.48219 0.91519 0.0
H986 H 0.46823 0.45671 0.92862 0.0
H987 H 0.44195 0.45357 0.96075 0.0
H988 H 0.23576 0.30159 0.81165 0.0
H989 H 0.25846 0.29782 0.84341 0.0
H990 H 0.46947 0.29536 0.83136 0.0
H991 H 0.44707 0.29939 0.7993 0.0
H992 H 0.31846 0.28318 0.86273 0.0
H993 H 0.46273 0.317 0.86859 0.0
H994 H 0.4129 0.31417 0.84882 0.0
H995 H 0.49355 0.30869 0.85196 0.0
C996 C 0.28705 0.30013 0.81565 0.0
C997 C 0.33988 0.30096 0.80303 0.0
C998 C 0.29984 0.29792 0.83384 0.0
C999 C 0.36574 0.29651 0.83986 0.0
C1000 C 0.4183 0.29662 0.82705 0.0
H1001 H 0.5149 0.29826 0.95069 0.0
H1002 H 0.50248 0.29478 0.91835 0.0
C1003 C 0.40547 0.29884 0.80873 0.0
C1004 C 0.37882 0.29582 0.85975 0.0
H1005 H 0.44897 0.30801 0.8952 0.0
C1006 C 0.34757 0.28855 0.86984 0.0
C1007 C 0.41602 0.30291 0.86903 0.0
C1008 C 0.44782 0.31119 0.85913 0.0
C1009 C 0.35253 0.28819 0.88896 0.0
C1010 C 0.38897 0.29535 0.8982 0.0
C1011 C 0.42116 0.30251 0.88808 0.0
C1012 C 0.39425 0.29576 0.91838 0.0
C1013 C 0.31898 0.28015 0.89908 0.0
C1014 C 0.33723 0.2972 0.92936 0.0
C1015 C 0.34417 0.29914 0.94803 0.0
C1016 C 0.40828 0.29982 0.95587 0.0
C1017 C 0.4648 0.29787 0.94501 0.0
C1018 C 0.45785 0.29587 0.92651 0.0
H1019 H 0.30842 0.274 0.88999 0.0
H1020 H 0.35055 0.27769 0.91062 0.0
H1021 H 0.27054 0.2827 0.90471 0.0
H1022 H 0.28768 0.29731 0.92333 0.0
H1023 H 0.29985 0.30068 0.95604 0.0
H1024 H 0.37139 0.03795 0.04248 0.0
H1025 H 0.411 0.02161 0.03887 0.0
H1026 H 0.55643 0.03104 0.99933 0.0
H1027 H 0.51702 0.04746 1.00285 0.0
H1028 H 0.40064 0.01278 1.00385 0.0
H1029 H 0.66069 0.01152 0.03099 0.0
H1030 H 0.60143 0.02063 0.03753 0.0
H1031 H 0.64269 0.02124 0.01582 0.0
C1032 C 0.41342 0.03662 0.03347 0.0
C1033 C 0.44088 0.04402 0.02288 0.0
C1034 C 0.43567 0.02725 0.03135 0.0
C1035 C 0.48629 0.02509 0.01876 0.0
C1036 C 0.51766 0.03256 0.00925 0.0
H1037 H 0.65989 0.97295 0.97792 0.0
H1038 H 0.62182 0.98936 0.9818 0.0
C1039 C 0.49532 0.04196 0.01135 0.0
C1040 C 0.50063 0.015 0.01412 0.0
H1041 H 0.62315 0.99805 0.01444 0.0
C1042 C 0.4492 0.00953 0.00624 0.0
C1043 C 0.56404 0.01082 0.01712 0.0
C1044 C 0.62039 0.01631 0.02595 0.0
C1045 C 0.45982 1.00001 1.00099 0.0
C1046 C 0.52322 0.9958 1.00407 0.0
C1047 C 0.57456 1.00129 0.01202 0.0
C1048 C 0.53806 0.98572 0.99921 0.0
C1049 C 0.40361 0.99466 0.99178 0.0
C1050 C 0.50185 0.97815 0.00703 0.0
C1051 C 0.52288 0.9687 1.00452 0.0
C1052 C 0.58108 0.96673 0.99442 0.0
C1053 C 0.61466 0.97427 0.98572 0.0
C1054 C 0.59327 0.98366 0.98804 0.0
H1055 H 0.36612 0.99959 0.98575 0.0
H1056 H 0.42307 0.98993 0.98087 0.0
H1057 H 0.37743 0.99018 1.00201 0.0
H1058 H 0.45979 0.97956 0.01596 0.0
H1059 H 0.49692 0.96304 0.01167 0.0
H1060 H 0.57863 0.28636 0.97593 0.0
H1061 H 0.62046 0.27004 0.97739 0.0
H1062 H 0.79757 0.27985 0.00543 0.0
H1063 H 0.7554 0.2963 1.00414 0.0
H1064 H 0.73942 0.26055 0.96669 0.0
H1065 H 0.70646 0.2614 0.04191 0.0
H1066 H 0.67241 0.27047 0.02714 0.0
H1067 H 0.76019 0.27047 0.03263 0.0
C1068 C 0.62737 0.28509 0.982 0.0
C1069 C 0.66364 0.29259 0.99003 0.0
C1070 C 0.65109 0.27575 0.98286 0.0
C1071 C 0.71128 0.27371 0.99189 0.0
C1072 C 0.75032 0.28127 0.99868 0.0
H1073 H 0.90848 0.22172 0.0223 0.0
H1074 H 0.86586 0.23793 0.01977 0.0
C1075 C 0.72669 0.29067 0.99773 0.0
C1076 C 0.72991 0.26362 0.99529 0.0
H1077 H 0.74873 0.24717 0.02921 0.0
C1078 C 0.74154 0.25761 0.98035 0.0
C1079 C 0.73174 0.2598 0.01312 0.0
C1080 C 0.71652 0.26582 0.02965 0.0
C1081 C 0.75663 0.24791 0.98278 0.0
C1082 C 0.75858 0.24408 1.00062 0.0
C1083 C 0.74665 0.2501 0.01555 0.0
C1084 C 0.77812 0.23403 1.00413 0.0
C1085 C 0.77225 0.24191 0.96624 0.0
C1086 C 0.74107 0.22636 0.99698 0.0
C1087 C 0.76532 0.217 0.99848 0.0
C1088 C 0.8269 0.21523 0.00714 0.0
C1089 C 0.86103 0.22286 0.01544 0.0
C1090 C 0.83682 0.23215 0.01398 0.0
H1091 H 0.78294 0.24635 0.95406 0.0
H1092 H 0.81607 0.23722 0.96882 0.0
H1093 H 0.72846 0.23732 0.96308 0.0
H1094 H 0.69477 0.22764 0.98967 0.0
H1095 H 0.73812 0.21127 0.9919 0.0
H1096 H 0.35634 0.22371 0.23344 0.0
H1097 H 0.39678 0.23997 0.23741 0.0
H1098 H 0.55005 0.22993 0.27411 0.0
H1099 H 0.50962 0.21352 0.27021 0.0
H1100 H 0.39863 0.249 0.27268 0.0
H1101 H 0.64905 0.24875 0.23923 0.0
H1102 H 0.58541 0.23996 0.23424 0.0
H1103 H 0.6324 0.23924 0.25504 0.0
C1104 C 0.3997 0.2249 0.24204 0.0
C1105 C 0.42976 0.21731 0.25154 0.0
C1106 C 0.42249 0.23422 0.24435 0.0
C1107 C 0.47616 0.23617 0.25609 0.0
C1108 C 0.50885 0.22857 0.26485 0.0
H1109 H 0.66973 0.28916 0.28581 0.0
H1110 H 0.62955 0.27273 0.28557 0.0
C1111 C 0.48594 0.21919 0.26255 0.0
C1112 C 0.49421 0.24621 0.26008 0.0
H1113 H 0.61771 0.26279 0.25466 0.0
C1114 C 0.44657 0.25203 0.26877 0.0
C1115 C 0.55673 0.25012 0.25502 0.0
C1116 C 0.60888 0.24425 0.24525 0.0
C1117 C 0.46 0.26165 0.27266 0.0
C1118 C 0.52225 0.26562 0.26736 0.0
C1119 C 0.57002 0.25976 0.25877 0.0
C1120 C 0.53929 0.27582 0.27032 0.0
C1121 C 0.40789 0.26742 0.28268 0.0
C1122 C 0.50048 0.28314 0.26251 0.0
C1123 C 0.52287 0.29262 0.26294 0.0
C1124 C 0.58493 0.29486 0.2709 0.0
C1125 C 0.62155 0.28763 0.27963 0.0
C1126 C 0.59887 0.27822 0.2794 0.0
H1127 H 0.37298 0.26278 0.29045 0.0
H1128 H 0.4316 0.27254 0.29225 0.0
H1129 H 0.3778 0.27152 0.27267 0.0
H1130 H 0.45498 0.28146 0.25513 0.0
H1131 H 0.49439 0.29803 0.25581 0.0
H1132 H 0.76765 0.96306 0.24212 0.0
H1133 H 0.809 0.97949 0.23883 0.0
H1134 H 0.64764 0.98953 0.27294 0.0
H1135 H 0.60752 0.97329 0.27661 0.0
H1136 H 0.73774 0.99388 0.22283 0.0
H1137 H 0.80209 1.00446 0.29325 0.0
H1138 H 0.79002 0.99217 0.28677 0.0
H1139 H 0.719 0.99964 0.2919 0.0
C1140 C 0.74263 0.96875 0.24944 0.0
C1141 C 0.68451 0.96688 0.25966 0.0
C1142 C 0.76582 0.97813 0.2474 0.0
C1143 C 0.73169 0.98575 0.25574 0.0
C1144 C 0.67572 0.98379 0.26668 0.0
H1145 H 0.7334 0.04759 0.25233 0.0
H1146 H 0.69704 0.03086 0.25325 0.0
C1147 C 0.65265 0.97448 0.2687 0.0
C1148 C 0.74992 0.99581 0.25177 0.0
H1149 H 0.78292 0.01721 0.27211 0.0
C1150 C 0.74844 0.99896 0.23359 0.0
C1151 C 0.76339 1.00247 0.26581 0.0
C1152 C 0.7694 0.99949 0.28549 0.0
C1153 C 0.75838 0.0086 0.22914 0.0
C1154 C 0.77027 0.01526 0.24322 0.0
C1155 C 0.77255 0.01211 0.26135 0.0
C1156 C 0.78508 0.02543 0.23948 0.0
C1157 C 0.75485 0.01165 0.20946 0.0
C1158 C 0.84535 0.02793 0.23089 0.0
C1159 C 0.86609 0.03742 0.2304 0.0
C1160 C 0.82679 0.04461 0.23841 0.0
C1161 C 0.76402 0.04222 0.24578 0.0
C1162 C 0.7436 0.03266 0.24647 0.0
H1163 H 0.73004 0.00619 0.20081 0.0
H1164 H 0.72726 0.01848 0.2081 0.0
H1165 H 0.80647 0.01275 0.20422 0.0
H1166 H 0.87851 0.02247 0.22563 0.0
H1167 H 0.91498 0.03908 0.22477 0.0
H1168 H 0.23881 0.71142 1.00018 0.0
H1169 H 0.19786 0.72777 0.99529 0.0
H1170 H 0.37012 0.73885 0.02377 0.0
H1171 H 0.41106 0.72267 0.02869 0.0
H1172 H 0.17598 0.74438 0.02063 0.0
H1173 H 0.38105 0.74977 0.97038 0.0
H1174 H 0.35421 0.73809 0.97772 0.0
H1175 H 0.40666 0.74523 0.9922 0.0
C1176 C 0.26669 0.71733 0.00589 0.0
C1177 C 0.32831 0.71578 0.0147 0.0
C1178 C 0.24363 0.72666 1.00295 0.0
C1179 C 0.28195 0.73449 0.00879 0.0
C1180 C 0.34056 0.7329 0.01885 0.0
H1181 H 0.26931 0.79607 0.99965 0.0
H1182 H 0.30508 0.77937 1.0025 0.0
C1183 C 0.36357 0.72364 0.02175 0.0
C1184 C 0.26352 0.74435 1.00354 0.0
H1185 H 0.31764 0.76342 0.97852 0.0
C1186 C 0.20649 0.74853 0.01131 0.0
C1187 C 0.30383 0.74974 0.99145 0.0
C1188 C 0.36462 0.74549 0.98231 0.0
C1189 C 0.18955 0.75806 0.00767 0.0
C1190 C 0.22997 0.76347 0.9956 0.0
C1191 C 0.28678 0.75926 0.98774 0.0
C1192 C 0.21374 0.77353 0.99112 0.0
C1193 C 0.1296 0.76233 0.01721 0.0
C1194 C 0.15252 0.77576 0.98277 0.0
C1195 C 0.13221 0.78524 0.98113 0.0
C1196 C 0.17311 0.79267 0.98759 0.0
C1197 C 0.2371 0.79049 0.99442 0.0
C1198 C 0.25725 0.78096 0.9962 0.0
H1199 H 0.1146 0.7581 0.02933 0.0
H1200 H 0.14013 0.76975 0.02161 0.0
H1201 H 0.08646 0.76249 0.00766 0.0
H1202 H 0.11897 0.77016 0.97832 0.0
H1203 H 0.08273 0.78672 0.97572 0.0
H1204 H 0.47643 0.79764 0.75416 0.0
H1205 H 0.43903 0.78112 0.75063 0.0
H1206 H 0.58912 0.772 0.78916 0.0
H1207 H 0.62571 0.78843 0.79301 0.0
H1208 H 0.52392 0.76764 0.73653 0.0
H1209 H 0.432 0.75557 0.80389 0.0
H1210 H 0.44174 0.76801 0.79827 0.0
H1211 H 0.51323 0.76103 0.80502 0.0
C1212 C 0.49947 0.79217 0.76248 0.0
C1213 C 0.55414 0.79436 0.77384 0.0
C1214 C 0.47852 0.78271 0.7603 0.0
C1215 C 0.5113 0.7753 0.7696 0.0
C1216 C 0.56229 0.77757 0.78203 0.0
H1217 H 0.51046 0.71321 0.76195 0.0
H1218 H 0.54641 0.72979 0.76651 0.0
C1219 C 0.58324 0.78701 0.78421 0.0
C1220 C 0.49844 0.76518 0.76467 0.0
H1221 H 0.45835 0.74339 0.7823 0.0
C1222 C 0.50897 0.76236 0.74652 0.0
C1223 C 0.4799 0.75825 0.77774 0.0
C1224 C 0.46544 0.76087 0.79728 0.0
C1225 C 0.50216 0.7528 0.74112 0.0
C1226 C 0.48364 0.74588 0.75418 0.0
C1227 C 0.47332 0.74868 0.77234 0.0
C1228 C 0.46984 0.73583 0.7491 0.0
C1229 C 0.51586 0.75017 0.72155 0.0
C1230 C 0.41639 0.73372 0.73736 0.0
C1231 C 0.39603 0.7243 0.73472 0.0
C1232 C 0.42865 0.71679 0.74378 0.0
C1233 C 0.48505 0.71883 0.75457 0.0
C1234 C 0.50514 0.7283 0.75734 0.0
H1235 H 0.54764 0.75558 0.71466 0.0
H1236 H 0.54103 0.74313 0.72059 0.0
H1237 H 0.4676 0.74973 0.71406 0.0
H1238 H 0.3878 0.73939 0.73106 0.0
H1239 H 0.35207 0.72295 0.72642 0.0
H1240 H 0.25065 0.96172 0.74349 0.0
H1241 H 0.29475 0.978 0.74025 0.0
H1242 H 0.12715 0.9888 0.77115 0.0
H1243 H 0.08427 0.9727 0.77477 0.0
H1244 H 0.22937 0.99235 0.72249 0.0
H1245 H 0.27804 1.00368 0.79338 0.0
H1246 H 0.26607 0.99134 0.78726 0.0
H1247 H 0.19487 0.99901 0.79087 0.0
C1248 C 0.22475 0.96754 0.75014 0.0
C1249 C 0.16416 0.96593 0.75942 0.0
C1250 C 0.24955 0.97685 0.74813 0.0
C1251 C 0.21453 0.98464 0.75557 0.0
C1252 C 0.15592 0.98293 0.76561 0.0
H1253 H 0.21582 0.04634 0.74882 0.0
H1254 H 0.1811 0.02954 0.75021 0.0
C1255 C 0.13126 0.9737 0.7676 0.0
C1256 C 0.23475 0.99462 0.75149 0.0
H1257 H 0.26385 0.01622 0.77144 0.0
C1258 C 0.23781 0.99754 0.73319 0.0
C1259 C 0.24533 1.00142 0.76545 0.0
C1260 C 0.24659 0.99868 0.78532 0.0
C1261 C 0.24923 0.00712 0.72851 0.0
C1262 C 0.25791 0.01394 0.74249 0.0
C1263 C 0.25591 0.011 0.76075 0.0
C1264 C 0.27312 0.02408 0.73857 0.0
C1265 C 0.2505 0.00994 0.70869 0.0
C1266 C 0.33531 0.02656 0.73104 0.0
C1267 C 0.35514 0.0361 0.73029 0.0
C1268 C 0.31303 0.04334 0.73698 0.0
C1269 C 0.24878 0.04092 0.74331 0.0
C1270 C 0.22922 0.03133 0.74426 0.0
H1271 H 0.22858 1.00434 0.69981 0.0
H1272 H 0.22259 0.0167 0.70654 0.0
H1273 H 0.30322 0.01113 0.70441 0.0
H1274 H 0.37025 0.02109 0.72677 0.0
H1275 H 0.40514 0.03777 0.72544 0.0
H1276 H 0.47622 0.46472 0.50329 0.0
H1277 H 0.43777 0.48135 0.5051 0.0
H1278 H 0.61979 0.49065 0.47881 0.0
H1279 H 0.65816 0.47417 0.47698 0.0
H1280 H 0.51604 0.49521 0.52484 0.0
H1281 H 0.47313 0.5065 0.45329 0.0
H1282 H 0.4737 0.49414 0.46014 0.0
H1283 H 0.55127 0.50047 0.45723 0.0
C1284 C 0.50671 0.47029 0.49729 0.0
C1285 C 0.57002 0.46817 0.48996 0.0
C1286 C 0.48507 0.47978 0.49848 0.0
C1287 C 0.52589 0.48723 0.49203 0.0
C1288 C 0.58707 0.48503 0.48364 0.0
H1289 H 0.50159 0.54948 0.4959 0.0
H1290 H 0.54554 0.53316 0.49318 0.0
C1291 C 0.60894 0.4756 0.48263 0.0
C1292 C 0.50876 0.49732 0.49586 0.0
H1293 H 0.47771 0.51876 0.47556 0.0
C1294 C 0.50713 0.50035 0.51408 0.0
C1295 C 0.49859 0.50405 0.48179 0.0
C1296 C 0.49868 0.50114 0.462 0.0
C1297 C 0.49595 0.50994 0.51863 0.0
C1298 C 0.48467 0.51666 0.50458 0.0
C1299 C 0.4869 0.51363 0.48633 0.0
C1300 C 0.46476 0.52665 0.50849 0.0
C1301 C 0.49746 0.5128 0.53844 0.0
C1302 C 0.40593 0.52844 0.51838 0.0
C1303 C 0.38128 0.53769 0.52004 0.0
C1304 C 0.41453 0.54538 0.51171 0.0
C1305 C 0.47545 0.54371 0.50265 0.0
C1306 C 0.50016 0.53438 0.50095 0.0
H1307 H 0.52852 0.50781 0.54662 0.0
H1308 H 0.51747 0.52013 0.5402 0.0
H1309 H 0.44571 0.51259 0.54399 0.0
H1310 H 0.37696 0.52261 0.52401 0.0
H1311 H 0.33401 0.53875 0.52704 0.0
H1312 H 0.59273 0.78946 0.47711 0.0
H1313 H 0.62716 0.7728 0.4794 0.0
H1314 H 0.81202 0.78143 0.50502 0.0
H1315 H 0.7777 0.79822 0.50272 0.0
H1316 H 0.74754 0.76203 0.46867 0.0
H1317 H 0.70793 0.76476 0.54356 0.0
H1318 H 0.67613 0.77354 0.5278 0.0
H1319 H 0.76367 0.77335 0.53346 0.0
C1320 C 0.64165 0.78783 0.48275 0.0
C1321 C 0.68253 0.79512 0.4898 0.0
C1322 C 0.66113 0.77831 0.48408 0.0
C1323 C 0.72146 0.77588 0.49268 0.0
C1324 C 0.76483 0.78317 0.49852 0.0
H1325 H 0.88611 0.72271 0.53026 0.0
H1326 H 0.85323 0.73925 0.52569 0.0
C1327 C 0.7456 0.79276 0.49701 0.0
C1328 C 0.73548 0.76574 0.4969 0.0
H1329 H 0.74232 0.74987 0.53214 0.0
C1330 C 0.74661 0.75935 0.48253 0.0
C1331 C 0.73346 0.76228 0.515 0.0
C1332 C 0.71919 0.76879 0.53089 0.0
C1333 C 0.75735 0.74959 0.4858 0.0
C1334 C 0.75495 0.74611 0.50391 0.0
C1335 C 0.7436 0.75252 0.51826 0.0
C1336 C 0.7686 0.73595 0.50835 0.0
C1337 C 0.77309 0.74317 0.46986 0.0
C1338 C 0.72984 0.72853 0.50091 0.0
C1339 C 0.74858 0.719 0.50352 0.0
C1340 C 0.80619 0.71676 0.51369 0.0
C1341 C 0.84164 0.72418 0.52226 0.0
C1342 C 0.82302 0.73367 0.51962 0.0
H1343 H 0.78907 0.74729 0.45769 0.0
H1344 H 0.81335 0.73803 0.47339 0.0
H1345 H 0.7275 0.73907 0.46616 0.0
H1346 H 0.68649 0.73013 0.49257 0.0
H1347 H 0.72032 0.71345 0.49672 0.0
H1348 H 0.93041 0.53718 0.72387 0.0
H1349 H 0.89352 0.52059 0.72469 0.0
H1350 H 0.70897 0.52923 0.75056 0.0
H1351 H 0.74517 0.54593 0.74927 0.0
H1352 H 0.87455 0.51117 0.75578 0.0
H1353 H 0.64062 0.50956 0.7152 0.0
H1354 H 0.69775 0.51951 0.71394 0.0
H1355 H 0.63849 0.51865 0.73236 0.0
C1356 C 0.88094 0.53557 0.72917 0.0
C1357 C 0.84046 0.54283 0.73645 0.0
C1358 C 0.8601 0.52608 0.72973 0.0
C1359 C 0.79848 0.52363 0.73768 0.0
C1360 C 0.75616 0.53094 0.74403 0.0
H1361 H 0.61281 0.47229 0.77655 0.0
H1362 H 0.65354 0.48845 0.77146 0.0
C1363 C 0.77675 0.54049 0.74326 0.0
C1364 C 0.78232 0.51342 0.74105 0.0
H1365 H 0.66242 0.49633 0.73488 0.0
C1366 C 0.82846 0.5079 0.75102 0.0
C1367 C 0.72221 0.50914 0.73489 0.0
C1368 C 0.67224 0.51449 0.72335 0.0
C1369 C 0.81537 0.49833 0.75536 0.0
C1370 C 0.75472 0.49414 0.74952 0.0
C1371 C 0.70889 0.49959 0.73939 0.0
C1372 C 0.73636 0.4842 0.7543 0.0
C1373 C 0.86549 0.49283 0.7666 0.0
C1374 C 0.77088 0.47639 0.7468 0.0
C1375 C 0.74778 0.46707 0.74975 0.0
C1376 C 0.68963 0.46545 0.76015 0.0
C1377 C 0.65769 0.47328 0.76844 0.0
C1378 C 0.68066 0.48254 0.76548 0.0
H1379 H 0.90444 0.49754 0.77261 0.0
H1380 H 0.83976 0.48893 0.77775 0.0
H1381 H 0.89083 0.48749 0.75782 0.0
H1382 H 0.81375 0.47753 0.73801 0.0
H1383 H 0.77297 0.46121 0.74301 0.0
H1384 H 0.25263 0.29754 0.49912 0.0
H1385 H 0.29269 0.28098 0.50091 0.0
H1386 H 0.10659 0.27118 0.47757 0.0
H1387 H 0.06658 0.28757 0.4758 0.0
H1388 H 0.21914 0.2671 0.52212 0.0
H1389 H 0.24999 0.25541 0.45033 0.0
H1390 H 0.24991 0.26782 0.45692 0.0
H1391 H 0.17229 0.26138 0.45519 0.0
C1392 C 0.22144 0.29187 0.49377 0.0
C1393 C 0.15665 0.29383 0.48728 0.0
C1394 C 0.24404 0.28242 0.49494 0.0
C1395 C 0.20265 0.27485 0.48931 0.0
C1396 C 0.13973 0.27689 0.48176 0.0
H1397 H 0.22883 0.2127 0.49416 0.0
H1398 H 0.18546 0.22904 0.49146 0.0
C1399 C 0.11692 0.28627 0.48078 0.0
C1400 C 0.2214 0.26482 0.49312 0.0
H1401 H 0.25019 0.24329 0.47289 0.0
C1402 C 0.22651 0.2619 0.51136 0.0
C1403 C 0.22958 0.25802 0.47909 0.0
C1404 C 0.22573 0.2608 0.45926 0.0
C1405 C 0.23903 0.25235 0.51596 0.0
C1406 C 0.2482 0.24556 0.50192 0.0
C1407 C 0.24267 0.24847 0.48366 0.0
C1408 C 0.26856 0.23557 0.50578 0.0
C1409 C 0.24097 0.24961 0.53583 0.0
C1410 C 0.32861 0.23378 0.51511 0.0
C1411 C 0.35297 0.22451 0.51679 0.0
C1412 C 0.31821 0.21679 0.50902 0.0
C1413 C 0.25628 0.21849 0.50048 0.0
C1414 C 0.23184 0.22782 0.49878 0.0
H1415 H 0.21127 0.25464 0.5443 0.0
H1416 H 0.22139 0.24229 0.53799 0.0
H1417 H 0.29361 0.24986 0.54071 0.0
H1418 H 0.35859 0.23962 0.52031 0.0
H1419 H 0.40101 0.22346 0.52339 0.0
H1420 H 0.28792 0.4632 0.2574 0.0
H1421 H 0.32131 0.47988 0.25348 0.0
H1422 H 0.16262 0.48863 0.28973 0.0
H1423 H 0.13001 0.47206 0.29396 0.0
H1424 H 0.23523 0.49271 0.23775 0.0
H1425 H 0.31253 0.5061 0.30557 0.0
H1426 H 0.30709 0.49354 0.30041 0.0
H1427 H 0.23273 0.5002 0.30598 0.0
C1428 C 0.26212 0.46864 0.26517 0.0
C1429 C 0.2063 0.4663 0.27598 0.0
C1430 C 0.28076 0.47819 0.26276 0.0
C1431 C 0.24445 0.48553 0.27129 0.0
C1432 C 0.19213 0.48312 0.28322 0.0
H1433 H 0.23341 0.54755 0.26097 0.0
H1434 H 0.199 0.5309 0.26566 0.0
C1435 C 0.17349 0.47361 0.28561 0.0
C1436 C 0.25535 0.49565 0.26605 0.0
H1437 H 0.28663 0.51785 0.28313 0.0
C1438 C 0.24707 0.49819 0.24766 0.0
C1439 C 0.26977 0.50283 0.279 0.0
C1440 C 0.28167 0.50053 0.29881 0.0
C1441 C 0.25222 0.50771 0.24192 0.0
C1442 C 0.26673 0.51489 0.25486 0.0
C1443 C 0.27468 0.51236 0.27325 0.0
C1444 C 0.2794 0.52493 0.24947 0.0
C1445 C 0.24119 0.51003 0.22207 0.0
C1446 C 0.33448 0.52708 0.23833 0.0
C1447 C 0.35393 0.53653 0.23563 0.0
C1448 C 0.31869 0.54403 0.244 0.0
C1449 C 0.26071 0.54193 0.2541 0.0
C1450 C 0.24154 0.53242 0.25695 0.0
H1451 H 0.21161 0.5044 0.2151 0.0
H1452 H 0.21485 0.51695 0.22046 0.0
H1453 H 0.29052 0.51056 0.21514 0.0
H1454 H 0.36506 0.52144 0.23264 0.0
H1455 H 0.3992 0.53794 0.22791 0.0
H1456 H 0.99252 0.96472 0.50639 0.0
H1457 H 0.95331 0.98124 0.50975 0.0
H1458 H 0.12549 0.99117 0.47968 0.0
H1459 H 0.16456 0.97479 0.47631 0.0
H1460 H 0.03596 0.99484 0.52834 0.0
H1461 H 0.97145 0.00731 0.45879 0.0
H1462 H 0.97507 0.99483 0.46476 0.0
H1463 H 0.05097 1.00136 0.46043 0.0
C1464 C 0.02035 0.97041 0.49987 0.0
C1465 C 0.08135 0.96849 0.49103 0.0
C1466 C 0.99836 0.97984 0.50195 0.0
C1467 C 0.03644 0.98743 0.49493 0.0
C1468 C 0.0948 0.98544 0.48499 0.0
H1469 H 0.0203 0.04942 0.50169 0.0
H1470 H 0.06063 0.03302 0.4978 0.0
C1471 C 0.11707 0.97607 0.48308 0.0
C1472 C 0.0203 0.99745 0.49975 0.0
H1473 H 0.98502 0.01925 0.4815 0.0
C1474 C 0.02419 1.00017 0.51813 0.0
C1475 C 0.00626 1.00441 0.48638 0.0
C1476 C 9e-05 1.00185 0.46649 0.0
C1477 C 0.01526 0.0097 0.52349 0.0
C1478 C 0.00065 0.01667 0.51013 0.0
C1479 C 0.99686 0.01393 0.49173 0.0
C1480 C 0.98435 0.0267 0.51498 0.0
C1481 C 0.02305 0.01222 0.54336 0.0
C1482 C 0.9297 0.02864 0.52642 0.0
C1483 C 0.90722 0.03797 0.52881 0.0
C1484 C 0.93838 0.04558 0.51964 0.0
C1485 C 0.99583 0.04373 0.50913 0.0
C1486 C 0.01841 0.03435 0.50674 0.0
H1487 H 0.0557 0.00702 0.55054 0.0
H1488 H 0.04458 0.01946 0.5451 0.0
H1489 H 0.97309 0.01205 0.55001 0.0
H1490 H 0.90172 0.02288 0.53266 0.0
H1491 H 0.86255 0.03914 0.53692 0.0
H1492 H 0.9768 0.21045 0.7855 0.0
H1493 H 0.01728 0.2266 0.79187 0.0
H1494 H 0.96211 0.23523 0.73748 0.0
H1495 H 0.91808 0.21926 0.7315 0.0
H1496 H 0.10551 0.23854 0.78014 0.0
H1497 H 0.85755 0.25419 0.76569 0.0
H1498 H 0.87066 0.24149 0.76666 0.0
H1499 H 0.88815 0.24802 0.74602 0.0
C1500 C 0.97497 0.21574 0.77477 0.0
C1501 C 0.94442 0.21363 0.758 0.0
C1502 C 0.99747 0.225 0.77848 0.0
C1503 C 0.99047 0.23226 0.7654 0.0
C1504 C 0.96549 0.22989 0.74807 0.0
H1505 H 0.19801 0.28467 0.75735 0.0
H1506 H 0.16012 0.26835 0.75942 0.0
C1507 C 0.94152 0.22071 0.74453 0.0
C1508 C 0.00781 0.24232 0.76991 0.0
H1509 H 0.95033 0.26518 0.76621 0.0
C1510 C 0.07119 0.24435 0.77729 0.0
C1511 C 0.96231 0.24994 0.76694 0.0
C1512 C 0.89063 0.24828 0.76111 0.0
C1513 C 0.0917 0.25376 0.7807 0.0
C1514 C 0.04878 0.26142 0.7759 0.0
C1515 C 0.98393 0.25937 0.76958 0.0
C1516 C 0.07231 0.2715 0.77569 0.0
C1517 C 0.15925 0.25535 0.78947 0.0
C1518 C 0.03426 0.27891 0.78351 0.0
C1519 C 0.05517 0.28845 0.78192 0.0
C1520 C 0.11459 0.29069 0.77256 0.0
C1521 C 0.15246 0.28324 0.76491 0.0
C1522 C 0.13117 0.27382 0.76624 0.0
H1523 H 0.17203 0.24939 0.7988 0.0
H1524 H 0.19843 0.25558 0.77874 0.0
H1525 H 0.16077 0.26212 0.7973 0.0
H1526 H 0.98812 0.27733 0.79069 0.0
H1527 H 0.02475 0.29403 0.78787 0.0
H1528 H 0.16467 0.78861 0.28182 0.0
H1529 H 0.12598 0.77222 0.27821 0.0
H1530 H 0.94861 0.78224 0.25064 0.0
H1531 H 0.98709 0.7988 0.25433 0.0
H1532 H 0.929 0.7663 0.27579 0.0
H1533 H 0.13642 0.76006 0.22669 0.0
H1534 H 0.16215 0.76472 0.24839 0.0
H1535 H 0.1107 0.77185 0.23362 0.0
C1536 C 0.11663 0.78736 0.27534 0.0
C1537 C 0.07909 0.79498 0.26822 0.0
C1538 C 0.09491 0.77798 0.27317 0.0
C1539 C 0.03546 0.77602 0.26372 0.0
C1540 C 0.99508 0.78363 0.25782 0.0
H1541 H 0.83617 0.7241 0.23035 0.0
H1542 H 0.8749 0.74052 0.2335 0.0
C1543 C 0.01677 0.79307 0.26006 0.0
C1544 C 0.01785 0.76602 0.2592 0.0
H1545 H 0.07279 0.74654 0.23548 0.0
C1546 C 0.96013 0.76199 0.26691 0.0
C1547 C 0.05885 0.76041 0.24764 0.0
C1548 C 0.12022 0.76448 0.23846 0.0
C1549 C 0.94294 0.75243 0.26364 0.0
C1550 C 0.98389 0.74682 0.25206 0.0
C1551 C 0.04162 0.75085 0.24435 0.0
C1552 C 0.96642 0.73681 0.24761 0.0
C1553 C 0.88177 0.74835 0.27292 0.0
C1554 C 0.00738 0.72923 0.25338 0.0
C1555 C 0.98573 0.71977 0.25135 0.0
C1556 C 0.92283 0.71782 0.24357 0.0
C1557 C 0.88469 0.7254 0.23653 0.0
C1558 C 0.90643 0.73479 0.23845 0.0
H1559 H 0.86596 0.75275 0.28475 0.0
H1560 H 0.83956 0.74814 0.26308 0.0
H1561 H 0.8913 0.74097 0.27769 0.0
H1562 H 0.05426 0.73065 0.26032 0.0
H1563 H 0.01581 0.71408 0.25704 0.0
H1564 H 0.95855 0.46047 0.00654 0.0
H1565 H 0.9228 0.47707 0.01027 0.0
H1566 H 0.08119 0.48618 0.97425 0.0
H1567 H 0.11635 0.46969 0.97028 0.0
H1568 H 0.00845 0.4903 0.0259 0.0
H1569 H 0.92728 0.503 0.95793 0.0
H1570 H 0.93387 0.4905 0.96346 0.0
H1571 H 0.00755 0.49723 0.95755 0.0
C1572 C 0.98383 0.46597 0.99879 0.0
C1573 C 0.04024 0.46377 0.98811 0.0
C1574 C 0.96384 0.47547 1.00109 0.0
C1575 C -0.00068 0.48288 0.99254 0.0
C1576 C 0.05234 0.4806 0.98077 0.0
H1577 H 0.00255 0.54488 1.0003 0.0
H1578 H 0.03802 0.52826 0.99612 0.0
C1579 C 0.07244 0.47115 0.97852 0.0
C1580 C 0.98682 0.49299 0.9976 0.0
H1581 H 0.952 0.51497 0.98004 0.0
C1582 C 0.99548 0.49568 0.01589 0.0
C1583 C 0.97092 0.50003 0.98452 0.0
C1584 C 0.95875 0.49754 0.9648 0.0
C1585 C 0.98951 0.50523 0.02141 0.0
C1586 C 0.97358 0.51227 0.00833 0.0
C1587 C 0.965 0.50958 0.99004 0.0
C1588 C 0.96068 0.52235 0.01345 0.0
C1589 C 0.0015 0.50772 0.04114 0.0
C1590 C 0.90712 0.52455 0.0251 0.0
C1591 C 0.88718 0.534 0.02757 0.0
C1592 C 0.92018 0.54144 0.01839 0.0
C1593 C 0.97686 0.53931 0.00777 0.0
C1594 C 0.99663 0.52982 0.00521 0.0
H1595 H 0.03271 0.50225 0.04805 0.0
H1596 H 0.02656 0.51475 0.04249 0.0
H1597 H 0.95261 0.50807 0.04834 0.0
H1598 H 0.87793 0.51893 0.03137 0.0
H1599 H 0.84298 0.53542 0.03573 0.0
H1600 H 0.15857 0.05614 0.94882 0.0
H1601 H 0.1775 0.05405 0.91587 0.0
H1602 H 0.38684 0.04846 0.92602 0.0
H1603 H 0.36847 0.05055 0.95858 0.0
H1604 H 0.27048 0.06614 0.89717 0.0
H1605 H 0.33766 0.02813 0.88782 0.0
H1606 H 0.29173 0.0324 0.90743 0.0
H1607 H 0.38119 0.03387 0.90623 0.0
C1608 C 0.20806 0.05419 0.944 0.0
C1609 C 0.26208 0.05355 0.95621 0.0
C1610 C 0.21891 0.05303 0.92522 0.0
C1611 C 0.28351 0.05101 0.91852 0.0
C1612 C 0.33644 0.04984 0.93086 0.0
H1613 H 0.50099 0.0539 0.81587 0.0
H1614 H 0.4655 0.05082 0.84749 0.0
C1615 C 0.32589 0.05112 0.94947 0.0
C1616 C 0.29835 0.05136 0.89872 0.0
H1617 H 0.36851 0.03876 0.8637 0.0
C1618 C 0.29087 0.06012 0.88976 0.0
C1619 C 0.32633 0.04354 0.88921 0.0
C1620 C 0.33426 0.03392 0.8981 0.0
C1621 C 0.31228 0.06135 0.87171 0.0
C1622 C 0.34031 0.05354 0.86214 0.0
C1623 C 0.34717 0.04474 0.87104 0.0
C1624 C 0.36132 0.05442 0.8428 0.0
C1625 C 0.30685 0.07114 0.86328 0.0
C1626 C 0.31425 0.05711 0.8296 0.0
C1627 C 0.33441 0.05897 0.81178 0.0
C1628 C 0.40203 0.05802 0.80659 0.0
C1629 C 0.44868 0.05474 0.8195 0.0
C1630 C 0.42844 0.05298 0.83753 0.0
H1631 H 0.30292 0.0768 0.87381 0.0
H1632 H 0.35083 0.07271 0.85449 0.0
H1633 H 0.261 0.07147 0.85474 0.0
H1634 H 0.26194 0.058 0.83321 0.0
H1635 H 0.29689 0.0613 0.80208 0.0
H1636 H 0.94362 0.18918 0.93544 0.0
H1637 H 0.90396 0.19446 0.90572 0.0
H1638 H 0.95417 0.22346 0.91931 0.0
H1639 H 0.99448 0.21819 0.94947 0.0
H1640 H 0.79479 0.21184 0.90487 0.0
H1641 H 0.02819 0.21465 0.86347 0.0
H1642 H 0.02341 0.20589 0.88143 0.0
H1643 H 0.02577 0.2183 0.88709 0.0
C1644 C 0.94753 0.19667 0.93205 0.0
C1645 C 0.97209 0.20327 0.94485 0.0
C1646 C 0.92467 0.19967 0.91505 0.0
C1647 C 0.92575 0.20934 0.91038 0.0
C1648 C 0.95309 0.21596 0.9227 0.0
H1649 H 0.79033 0.22041 0.79782 0.0
H1650 H 0.82737 0.22487 0.82868 0.0
C1651 C 0.97648 0.21293 0.93984 0.0
C1652 C 0.89357 0.21231 0.89307 0.0
H1653 H 0.92521 0.2141 0.8475 0.0
C1654 C 0.82326 0.2126 0.89236 0.0
C1655 C 0.93078 0.21332 0.87682 0.0
C1656 C 0.00632 0.21306 0.87705 0.0
C1657 C 0.78912 0.21328 0.87566 0.0
C1658 C 0.82625 0.2135 0.85924 0.0
C1659 C 0.89666 0.21392 0.86007 0.0
C1660 C 0.79389 0.21176 0.84127 0.0
C1661 C 0.71349 0.21335 0.87571 0.0
C1662 C 0.76152 0.20303 0.83817 0.0
C1663 C 0.74077 0.20048 0.82067 0.0
C1664 C 0.75128 0.20664 0.80588 0.0
C1665 C 0.78001 0.21564 0.80908 0.0
C1666 C 0.80183 0.21814 0.82665 0.0
H1667 H 0.69364 0.21644 0.88856 0.0
H1668 H 0.69332 0.21746 0.86401 0.0
H1669 H 0.69484 0.20591 0.8747 0.0
H1670 H 0.75607 0.19789 0.84909 0.0
H1671 H 0.7199 0.19344 0.81851 0.0
H1672 H 0.4325 0.18987 0.43838 0.0
H1673 H 0.39166 0.19463 0.40849 0.0
H1674 H 0.44804 0.22372 0.41942 0.0
H1675 H 0.48944 0.21897 0.44978 0.0
H1676 H 0.2847 0.21034 0.40577 0.0
H1677 H 0.51762 0.21604 0.36515 0.0
H1678 H 0.51711 0.20786 0.38415 0.0
H1679 H 0.51146 0.22042 0.38822 0.0
C1680 C 0.4375 0.19727 0.43438 0.0
C1681 C 0.46404 0.20406 0.44651 0.0
C1682 C 0.41391 0.19997 0.41727 0.0
C1683 C 0.41635 0.20952 0.41179 0.0
C1684 C 0.44591 0.2163 0.42341 0.0
H1685 H 0.27797 0.22095 0.29949 0.0
H1686 H 0.31098 0.22522 0.33081 0.0
C1687 C 0.4699 0.21357 0.44068 0.0
C1688 C 0.38338 0.21222 0.3944 0.0
H1689 H 0.41551 0.21524 0.34908 0.0
C1690 C 0.31316 0.21164 0.39342 0.0
C1691 C 0.42049 0.21397 0.37836 0.0
C1692 C 0.49592 0.21462 0.37882 0.0
C1693 C 0.2794 0.2122 0.37666 0.0
C1694 C 0.31687 0.2132 0.36041 0.0
C1695 C 0.38673 0.21447 0.36153 0.0
C1696 C 0.28629 0.21144 0.34222 0.0
C1697 C 0.20401 0.21133 0.37642 0.0
C1698 C 0.25998 0.20238 0.33834 0.0
C1699 C 0.24151 0.19996 0.32059 0.0
C1700 C 0.2482 0.20656 0.30635 0.0
C1701 C 0.27059 0.21583 0.31034 0.0
C1702 C 0.29016 0.21822 0.32816 0.0
H1703 H 0.1818 0.21386 0.38944 0.0
H1704 H 0.18186 0.21546 0.365 0.0
H1705 H 0.19005 0.20373 0.37468 0.0
H1706 H 0.25775 0.19696 0.34883 0.0
H1707 H 0.22576 0.19272 0.31778 0.0
H1708 H 0.88869 0.05818 0.45742 0.0
H1709 H 0.90781 0.0549 0.4253 0.0
H1710 H 0.6956 0.05069 0.41735 0.0
H1711 H 0.67577 0.054 0.44995 0.0
H1712 H 0.87198 0.03902 0.40141 0.0
H1713 H 0.75108 0.07358 0.3836 0.0
H1714 H 0.77723 0.07084 0.40654 0.0
H1715 H 0.70368 0.06532 0.39723 0.0
C1716 C 0.8459 0.05646 0.44893 0.0
C1717 C 0.78049 0.0565 0.45615 0.0
C1718 C 0.8571 0.05452 0.43058 0.0
C1719 C 0.8032 0.05265 0.41891 0.0
C1720 C 0.73787 0.05219 0.42616 0.0
H1721 H 0.82026 0.05809 0.30128 0.0
H1722 H 0.7833 0.05439 0.33211 0.0
C1723 C 0.72658 0.05405 0.44474 0.0
C1724 C 0.81621 0.05209 0.39904 0.0
H1725 H 0.80439 0.06527 0.36016 0.0
C1726 C 0.85639 0.04467 0.39227 0.0
C1727 C 0.79644 0.05952 0.38723 0.0
C1728 C 0.75506 0.06782 0.39392 0.0
C1729 C 0.87766 0.04452 0.37398 0.0
C1730 C 0.85973 0.05213 0.36231 0.0
C1731 C 0.81826 0.05943 0.36906 0.0
C1732 C 0.88343 0.05286 0.3431 0.0
C1733 C 0.91878 0.03619 0.36737 0.0
C1734 C 0.9523 0.05299 0.33876 0.0
C1735 C 0.97367 0.05495 0.32091 0.0
C1736 C 0.92647 0.05705 0.30731 0.0
C1737 C 0.85781 0.05659 0.31156 0.0
C1738 C 0.83657 0.05447 0.32919 0.0
H1739 H 0.9099 0.02975 0.37583 0.0
H1740 H 0.90722 0.03445 0.35295 0.0
H1741 H 0.97281 0.03801 0.36839 0.0
H1742 H 0.9896 0.05199 0.3493 0.0
H1743 H 0.02686 0.05533 0.31799 0.0
H1744 H 0.76251 0.96621 0.05786 0.0
H1745 H 0.726 0.97096 0.08867 0.0
H1746 H 0.61128 0.94503 0.09321 0.0
H1747 H 0.64697 0.94027 0.06296 0.0
H1748 H 0.53946 0.96269 0.10224 0.0
H1749 H 0.78323 0.9581 0.13849 0.0
H1750 H 0.78056 0.96496 0.11774 0.0
H1751 H 0.76734 0.95234 0.11691 0.0
C1752 C 0.73016 0.9615 0.06555 0.0
C1753 C 0.70769 0.95287 0.05788 0.0
C1754 C 0.70916 0.96423 0.0831 0.0
C1755 C 0.66556 0.95836 0.09316 0.0
C1756 C 0.64438 0.94971 0.08563 0.0
H1757 H 0.53483 0.93968 0.19189 0.0
H1758 H 0.56777 0.94398 0.161 0.0
C1759 C 0.66521 0.94698 0.0683 0.0
C1760 C 0.64108 0.96096 0.11162 0.0
H1761 H 0.68643 0.95972 0.15641 0.0
C1762 C 0.57182 0.96234 0.1141 0.0
C1763 C 0.68334 0.96044 0.12704 0.0
C1764 C 0.75781 0.95886 0.1251 0.0
C1765 C 0.5433 0.9626 0.13161 0.0
C1766 C 0.58501 0.96142 0.14696 0.0
C1767 C 0.6547 0.96068 0.14455 0.0
C1768 C 0.55679 0.95914 0.16513 0.0
C1769 C 0.4683 0.9634 0.13365 0.0
C1770 C 0.53732 0.96626 0.17752 0.0
C1771 C 0.51767 0.9638 0.19532 0.0
C1772 C 0.51799 0.9542 0.20087 0.0
C1773 C 0.53418 0.94713 0.18804 0.0
C1774 C 0.5533 0.94957 0.1704 0.0
H1775 H 0.44315 0.96504 0.12052 0.0
H1776 H 0.448 0.95659 0.13901 0.0
H1777 H 0.45589 0.96907 0.14366 0.0
H1778 H 0.53972 0.9737 0.17364 0.0
H1779 H 0.50625 0.9694 0.20498 0.0
H1780 H 0.18113 0.8091 0.04971 0.0
H1781 H 0.21709 0.80635 0.08094 0.0
H1782 H 0.01093 0.80267 0.09738 0.0
H1783 H 0.97456 0.80515 0.06569 0.0
H1784 H 0.18594 0.81808 0.10774 0.0
H1785 H 0.10218 0.7817 0.12628 0.0
H1786 H 0.10596 0.78578 0.10296 0.0
H1787 H 0.03614 0.78899 0.11722 0.0
C1788 C 0.14338 0.80754 0.0599 0.0
C1789 C 0.07491 0.80744 0.05531 0.0
C1790 C 0.1641 0.80593 0.07776 0.0
C1791 C 0.11692 0.80427 0.09156 0.0
C1792 C 0.04846 0.80375 0.08693 0.0
H1793 H 0.13455 0.82113 0.20152 0.0
H1794 H 0.11517 0.81788 0.16954 0.0
C1795 C 0.02761 0.80523 0.06885 0.0
C1796 C 0.13944 0.80431 0.11089 0.0
H1797 H 0.13439 0.79196 0.15104 0.0
C1798 C 0.17541 0.81229 0.11708 0.0
C1799 C 0.12634 0.79673 0.12311 0.0
C1800 C 0.09112 0.78777 0.11704 0.0
C1801 C 0.19655 0.81305 0.13522 0.0
C1802 C 0.18049 0.80572 0.14766 0.0
C1803 C 0.14663 0.79757 0.14144 0.0
C1804 C 0.19167 0.80704 0.16744 0.0
C1805 C 0.2346 0.82183 0.14109 0.0
C1806 C 0.24085 0.8019 0.17701 0.0
C1807 C 0.25252 0.80376 0.19557 0.0
C1808 C 0.21485 0.81076 0.20474 0.0
C1809 C 0.16506 0.81574 0.195 0.0
C1810 C 0.15361 0.81388 0.17665 0.0
H1811 H 0.2576 0.82556 0.1293 0.0
H1812 H 0.19951 0.82684 0.14786 0.0
H1813 H 0.27468 0.81997 0.15098 0.0
H1814 H 0.27076 0.79658 0.17006 0.0
H1815 H 0.29087 0.79976 0.20269 0.0
H1816 H 0.62532 0.79877 0.71096 0.0
H1817 H 0.59965 0.79653 0.67876 0.0
H1818 H 0.79471 0.80758 0.6645 0.0
H1819 H 0.82149 0.8095 0.697 0.0
H1820 H 0.58843 0.81098 0.65614 0.0
H1821 H 0.77807 0.78607 0.62844 0.0
H1822 H 0.76414 0.7875 0.65259 0.0
H1823 H 0.81485 0.79594 0.64032 0.0
C1824 C 0.66351 0.80045 0.70096 0.0
C1825 C 0.7254 0.8043 0.70641 0.0
C1826 C 0.64871 0.79919 0.68255 0.0
C1827 C 0.69514 0.80186 0.66913 0.0
C1828 C 0.75851 0.80528 0.67457 0.0
H1829 H 0.67577 0.81756 0.55735 0.0
H1830 H 0.70404 0.81364 0.58868 0.0
C1831 C 0.77383 0.8064 0.69312 0.0
C1832 C 0.67361 0.80214 0.64972 0.0
H1833 H 0.71565 0.79518 0.60659 0.0
C1834 C 0.61575 0.8074 0.64535 0.0
C1835 C 0.70922 0.79749 0.63562 0.0
C1836 C 0.76964 0.79135 0.63947 0.0
C1837 C 0.59379 0.80838 0.62729 0.0
C1838 C 0.63031 0.80393 0.61316 0.0
C1839 C 0.68751 0.79854 0.61749 0.0
C1840 C 0.61351 0.80559 0.59374 0.0
C1841 C 0.53324 0.81449 0.62335 0.0
C1842 C 0.55327 0.80226 0.58606 0.0
C1843 C 0.53665 0.8045 0.56797 0.0
C1844 C 0.57993 0.81015 0.55738 0.0
C1845 C 0.64077 0.81328 0.56511 0.0
C1846 C 0.65739 0.81099 0.58303 0.0
H1847 H 0.51671 0.81859 0.6355 0.0
H1848 H 0.54423 0.81957 0.61215 0.0
H1849 H 0.49107 0.80988 0.61891 0.0
H1850 H 0.51893 0.79801 0.59411 0.0
H1851 H 0.48967 0.80194 0.5624 0.0
H1852 H 0.12147 0.9433 0.55922 0.0
H1853 H 0.08478 0.94788 0.58943 0.0
H1854 H 0.22665 0.97106 0.58976 0.0
H1855 H 0.26443 0.96649 0.55896 0.0
H1856 H 0.22583 0.95976 0.62204 0.0
H1857 H 0.96819 0.97069 0.60418 0.0
H1858 H 0.98884 0.95937 0.59433 0.0
H1859 H 0.03451 0.96984 0.58745 0.0
C1860 C 0.14513 0.94942 0.56555 0.0
C1861 C 0.19591 0.95456 0.55652 0.0
C1862 C 0.12343 0.95207 0.58284 0.0
C1863 C 0.15156 0.95996 0.59167 0.0
C1864 C 0.20348 0.96503 0.58303 0.0
H1865 H 0.98327 0.96819 0.70327 0.0
H1866 H 0.01978 0.9731 0.67252 0.0
C1867 C 0.22524 0.96239 0.5655 0.0
C1868 C 0.12843 0.96232 0.61038 0.0
H1869 H 0.98394 0.96467 0.63508 0.0
C1870 C 0.17334 0.96114 0.6249 0.0
C1871 C 0.06005 0.96424 0.61418 0.0
C1872 C 0.01029 0.96621 0.59918 0.0
C1873 C 0.15049 0.9609 0.64301 0.0
C1874 C 0.08103 0.96179 0.64662 0.0
C1875 C 0.03706 0.96388 0.63228 0.0
C1876 C 0.05283 0.95902 0.66456 0.0
C1877 C 0.2003 0.95914 0.65809 0.0
C1878 C 0.05653 0.94945 0.66983 0.0
C1879 C 0.0354 0.94665 0.68709 0.0
C1880 C 0.00987 0.95334 0.69957 0.0
C1881 C 0.00238 0.96286 0.69393 0.0
C1882 C 0.02369 0.96569 0.67647 0.0
H1883 H 0.25175 0.96132 0.65402 0.0
H1884 H 0.18594 0.96305 0.67065 0.0
H1885 H 0.20127 0.95141 0.6613 0.0
H1886 H 0.07757 0.94417 0.66071 0.0
H1887 H 0.0413 0.93923 0.69089 0.0
H1888 H 0.22982 0.5437 0.45342 0.0
H1889 H 0.26513 0.53877 0.42258 0.0
H1890 H 0.33892 0.56713 0.4123 0.0
H1891 H 0.30397 0.57208 0.44256 0.0
H1892 H 0.23382 0.54743 0.38619 0.0
H1893 H 0.5034 0.54896 0.40373 0.0
H1894 H 0.43825 0.54779 0.42073 0.0
H1895 H 0.4581 0.55928 0.41131 0.0
C1896 C 0.25249 0.5489 0.44442 0.0
C1897 C 0.26463 0.55826 0.4505 0.0
C1898 C 0.27309 0.54606 0.42691 0.0
C1899 C 0.30626 0.55253 0.41539 0.0
C1900 C 0.31495 0.56196 0.42114 0.0
H1901 H 0.3691 0.56956 0.31127 0.0
H1902 H 0.33492 0.56454 0.34142 0.0
C1903 C 0.29451 0.56479 0.43844 0.0
C1904 C 0.33246 0.54973 0.39726 0.0
H1905 H 0.47567 0.55136 0.3719 0.0
C1906 C 0.28688 0.54799 0.38311 0.0
C1907 C 0.40183 0.55029 0.39326 0.0
C1908 C 0.45335 0.55159 0.4081 0.0
C1909 C 0.30831 0.54775 0.36487 0.0
C1910 C 0.37674 0.54942 0.36075 0.0
C1911 C 0.42313 0.55018 0.37502 0.0
C1912 C 0.39857 0.55207 0.34208 0.0
C1913 C 0.25692 0.54622 0.35008 0.0
C1914 C 0.44805 0.54693 0.33259 0.0
C1915 C 0.46832 0.54983 0.31508 0.0
C1916 C 0.43993 0.55798 0.307 0.0
C1917 C 0.39187 0.5632 0.3169 0.0
C1918 C 0.37163 0.56029 0.33416 0.0
H1919 H 0.21425 0.54186 0.3551 0.0
H1920 H 0.23665 0.55323 0.34574 0.0
H1921 H 0.27936 0.54266 0.33802 0.0
H1922 H 0.47031 0.54064 0.33863 0.0
H1923 H 0.50541 0.54566 0.30784 0.0
H1924 H 0.86874 0.69076 0.31271 0.0
H1925 H 0.90143 0.6951 0.34342 0.0
H1926 H 0.77744 0.72021 0.34057 0.0
H1927 H 0.74367 0.71586 0.30933 0.0
H1928 H 0.96654 0.71228 0.3551 0.0
H1929 H 0.71825 0.70631 0.38822 0.0
H1930 H 0.73708 0.70155 0.36595 0.0
H1931 H 0.72254 0.71407 0.36872 0.0
C1932 C 0.84793 0.69721 0.3185 0.0
C1933 C 0.80338 0.70296 0.30847 0.0
C1934 C 0.86708 0.6997 0.3361 0.0
C1935 C 0.8422 0.70798 0.34428 0.0
C1936 C 0.79703 0.71375 0.33452 0.0
H1937 H -0.00136 0.71757 0.45687 0.0
H1938 H 0.97025 0.72187 0.42518 0.0
C1939 C 0.77765 0.71125 0.31672 0.0
C1940 C 0.8637 0.71023 0.36318 0.0
H1941 H 0.81149 0.70813 0.40729 0.0
C1942 C 0.93244 0.71164 0.36655 0.0
C1943 C 0.81915 0.70934 0.37807 0.0
C1944 C 0.74511 0.70769 0.37522 0.0
C1945 C 0.9583 0.71157 0.38438 0.0
C1946 C 0.91427 0.71007 0.39916 0.0
C1947 C 0.84505 0.70931 0.39588 0.0
C1948 C 0.93939 0.70763 0.41759 0.0
C1949 C 0.03293 0.71238 0.38729 0.0
C1950 C 0.9334 0.69819 0.42354 0.0
C1951 C 0.94964 0.69574 0.44139 0.0
C1952 C 0.9723 0.70268 0.45376 0.0
C1953 C 0.98208 0.71206 0.44756 0.0
C1954 C 0.96541 0.71454 0.42955 0.0
H1955 H 0.06063 0.71344 0.37431 0.0
H1956 H 0.04378 0.71847 0.39649 0.0
H1957 H 0.05193 0.70582 0.394 0.0
H1958 H 0.91396 0.69274 0.4145 0.0
H1959 H 0.94176 0.68845 0.44573 0.0
H1960 H 0.50551 0.71613 0.95407 0.0
H1961 H 0.46845 0.7208 0.92325 0.0
H1962 H 0.37614 0.69326 0.91624 0.0
H1963 H 0.41244 0.68858 0.94649 0.0
H1964 H 0.49211 0.71186 0.88843 0.0
H1965 H 0.22221 0.71206 0.90532 0.0
H1966 H 0.28694 0.71266 0.92253 0.0
H1967 H 0.26236 0.70135 0.91302 0.0
C1968 C 0.47794 0.71106 0.94584 0.0
C1969 C 0.46145 0.70202 0.95282 0.0
C1970 C 0.45641 0.71376 0.92832 0.0
C1971 C 0.4178 0.70747 0.91769 0.0
C1972 C 0.40406 0.69833 0.92439 0.0
H1973 H 0.35676 0.69076 0.81223 0.0
H1974 H 0.38884 0.69515 0.84295 0.0
C1975 C 0.4254 0.69565 0.9417 0.0
C1976 C 0.39265 0.71009 0.89932 0.0
H1977 H 0.25001 0.70894 0.8736 0.0
C1978 C 0.43906 0.71149 0.88523 0.0
C1979 C 0.3233 0.70981 0.89514 0.0
C1980 C 0.27079 0.70899 0.90985 0.0
C1981 C 0.41836 0.7117 0.86693 0.0
C1982 C 0.34973 0.71032 0.86266 0.0
C1983 C 0.30271 0.70986 0.87684 0.0
C1984 C 0.3278 0.70787 0.84389 0.0
C1985 C 0.47061 0.71295 0.85227 0.0
C1986 C 0.28004 0.71333 0.8344 0.0
C1987 C 0.2609 0.71078 0.8166 0.0
C1988 C 0.28891 0.7027 0.80817 0.0
C1989 C 0.33463 0.6971 0.81812 0.0
C1990 C 0.35361 0.69964 0.8357 0.0
H1991 H 0.51411 0.71712 0.85736 0.0
H1992 H 0.48939 0.70584 0.84803 0.0
H1993 H 0.44947 0.71659 0.84012 0.0
H1994 H 0.25864 0.71963 0.84062 0.0
H1995 H 0.22561 0.71524 0.80932 0.0
H1996 H 0.84169 0.5636 0.8038 0.0
H1997 H 0.81237 0.55987 0.83518 0.0
H1998 H 0.00577 0.54679 0.84307 0.0
H1999 H 0.03599 0.55051 0.81131 0.0
H2000 H 0.81297 0.54139 0.85486 0.0
H2001 H 0.98856 0.5688 0.8822 0.0
H2002 H 0.96146 0.56881 0.85873 0.0
H2003 H 0.02156 0.56019 0.86638 0.0
C2004 C 0.87822 0.5599 0.81212 0.0
C2005 C 0.94165 0.55745 0.80508 0.0
C2006 C 0.86103 0.55772 0.83004 0.0
C2007 C 0.90692 0.55311 0.84145 0.0
C2008 C 0.96977 0.5504 0.83445 0.0
H2009 H 0.88503 0.55034 0.95923 0.0
H2010 H 0.91729 0.54742 0.92766 0.0
C2011 C 0.98694 0.55252 0.81634 0.0
C2012 C 0.8895 0.55175 0.86091 0.0
H2013 H 0.91951 0.56094 0.90313 0.0
C2014 C 0.8367 0.54556 0.8655 0.0
C2015 C 0.92026 0.55725 0.87468 0.0
C2016 C 0.97588 0.56419 0.87038 0.0
C2017 C 0.81371 0.54476 0.88357 0.0
C2018 C 0.84319 0.55049 0.89728 0.0
C2019 C 0.89684 0.55653 0.89266 0.0
C2020 C 0.81928 0.55055 0.9165 0.0
C2021 C 0.7585 0.53776 0.88778 0.0
C2022 C 0.75258 0.55295 0.92091 0.0
C2023 C 0.73362 0.55444 0.93912 0.0
C2024 C 0.78154 0.55375 0.95305 0.0
C2025 C 0.84718 0.55093 0.94869 0.0
C2026 C 0.86571 0.54928 0.93065 0.0
H2027 H 0.7565 0.53195 0.87749 0.0
H2028 H 0.76519 0.53453 0.90147 0.0
H2029 H 0.70957 0.54151 0.88751 0.0
H2030 H 0.71611 0.55418 0.91024 0.0
H2031 H 0.68299 0.55674 0.94215 0.0
H2032 H 0.75697 0.46421 0.56002 0.0
H2033 H 0.72521 0.46819 0.59157 0.0
H2034 H 0.57264 0.44643 0.59027 0.0
H2035 H 0.6031 0.44248 0.5592 0.0
H2036 H 0.5277 0.46393 0.6051 0.0
H2037 H 0.76625 0.45131 0.63652 0.0
H2038 H 0.77155 0.46008 0.61869 0.0
H2039 H 0.74347 0.44824 0.61345 0.0
C2040 C 0.71684 0.46027 0.56651 0.0
C2041 C 0.68294 0.45299 0.55704 0.0
C2042 C 0.69871 0.46255 0.58452 0.0
C2043 C 0.64652 0.45759 0.59329 0.0
C2044 C 0.6127 0.4504 0.58378 0.0
H2045 H 0.53392 0.43771 0.69458 0.0
H2046 H 0.56336 0.44182 0.66335 0.0
C2047 C 0.63064 0.44812 0.56597 0.0
C2048 C 0.6273 0.45946 0.61254 0.0
H2049 H 0.67725 0.45485 0.65615 0.0
C2050 C 0.56083 0.46218 0.61633 0.0
C2051 C 0.67048 0.4571 0.62714 0.0
C2052 C 0.74187 0.45397 0.62389 0.0
C2053 C 0.5354 0.46208 0.63421 0.0
C2054 C 0.57759 0.45922 0.64865 0.0
C2055 C 0.64509 0.45706 0.64501 0.0
C2056 C 0.55093 0.457 0.66706 0.0
C2057 C 0.46255 0.46439 0.63747 0.0
C2058 C 0.53157 0.46417 0.67939 0.0
C2059 C 0.51393 0.4618 0.6974 0.0
C2060 C 0.51608 0.45226 0.70324 0.0
C2061 C 0.53193 0.44512 0.69051 0.0
C2062 C 0.54911 0.44747 0.67267 0.0
H2063 H 0.43552 0.46608 0.62464 0.0
H2064 H 0.43732 0.45828 0.6442 0.0
H2065 H 0.45865 0.4706 0.64677 0.0
H2066 H 0.53294 0.47158 0.67534 0.0
H2067 H 0.50283 0.46746 0.70698 0.0
H2068 H 0.9527 0.30322 0.56146 0.0
H2069 H 0.97906 0.30122 0.59406 0.0
H2070 H 0.17342 0.31387 0.58535 0.0
H2071 H 0.14793 0.31595 0.55322 0.0
H2072 H 0.10135 0.29221 0.61317 0.0
H2073 H 0.07102 0.33121 0.62327 0.0
H2074 H 0.03648 0.32501 0.60385 0.0
H2075 H 0.12429 0.32785 0.60458 0.0
C2076 C 0.00124 0.30547 0.5665 0.0
C2077 C 0.04769 0.30989 0.5548 0.0
C2078 C 0.01628 0.3043 0.58507 0.0
C2079 C 0.07791 0.3075 0.59207 0.0
C2080 C 0.12534 0.31145 0.58023 0.0
H2081 H 0.2789 0.30349 0.69754 0.0
H2082 H 0.24677 0.30134 0.66545 0.0
C2083 C 0.11041 0.31266 0.56185 0.0
C2084 C 0.09187 0.30746 0.61189 0.0
H2085 H 0.12017 0.32256 0.64749 0.0
C2086 C 0.10491 0.29881 0.62078 0.0
C2087 C 0.09632 0.3161 0.62172 0.0
C2088 C 0.08079 0.32558 0.61295 0.0
C2089 C 0.12358 0.29861 0.63929 0.0
C2090 C 0.13002 0.30729 0.64895 0.0
C2091 C 0.11579 0.31591 0.64004 0.0
C2092 C 0.14854 0.30772 0.66852 0.0
C2093 C 0.13549 0.28913 0.6484 0.0
C2094 C 0.10441 0.31208 0.68082 0.0
C2095 C 0.12286 0.31342 0.69894 0.0
C2096 C 0.18607 0.31043 0.7053 0.0
C2097 C 0.2299 0.30586 0.69308 0.0
C2098 C 0.21138 0.30456 0.67479 0.0
H2099 H 0.11361 0.28316 0.64045 0.0
H2100 H 0.19027 0.2879 0.64961 0.0
H2101 H 0.11373 0.28906 0.66233 0.0
H2102 H 0.05577 0.31459 0.67631 0.0
H2103 H 0.08743 0.31689 0.70794 0.0
H2104 H 0.64038 0.30114 0.0486 0.0
H2105 H 0.67663 0.29782 0.07973 0.0
H2106 H 0.47643 0.30365 0.09914 0.0
H2107 H 0.43947 0.3066 0.06768 0.0
H2108 H 0.68001 0.31087 0.10495 0.0
H2109 H 0.52324 0.28122 0.13048 0.0
H2110 H 0.52876 0.28413 0.10657 0.0
H2111 H 0.47347 0.29072 0.12132 0.0
C2112 C 0.60367 0.30141 0.05949 0.0
C2113 C 0.53714 0.30408 0.05584 0.0
C2114 C 0.62445 0.29954 0.07727 0.0
C2115 C 0.57939 0.30043 0.09185 0.0
C2116 C 0.51189 0.30269 0.08812 0.0
H2117 H 0.60232 0.31398 0.20346 0.0
H2118 H 0.57473 0.30989 0.17216 0.0
C2119 C 0.49072 0.3044 0.07018 0.0
C2120 C 0.60528 0.3002 0.11088 0.0
H2121 H 0.57806 0.29087 0.15326 0.0
C2122 C 0.65851 0.30634 0.11541 0.0
C2123 C 0.57738 0.29431 0.12458 0.0
C2124 C 0.52303 0.28716 0.12046 0.0
C2125 C 0.68259 0.30705 0.13332 0.0
C2126 C 0.65288 0.30146 0.14712 0.0
C2127 C 0.60096 0.29512 0.14259 0.0
C2128 C 0.66945 0.30302 0.16657 0.0
C2129 C 0.73744 0.31412 0.13758 0.0
C2130 C 0.73186 0.30038 0.17393 0.0
C2131 C 0.74803 0.30269 0.19203 0.0
C2132 C 0.70221 0.30778 0.20287 0.0
C2133 C 0.63928 0.31017 0.19547 0.0
C2134 C 0.62305 0.30778 0.17758 0.0
H2135 H 0.75085 0.31857 0.1256 0.0
H2136 H 0.72163 0.31889 0.14888 0.0
H2137 H 0.78298 0.31025 0.14211 0.0
H2138 H 0.76829 0.29666 0.1656 0.0
H2139 H 0.79673 0.30072 0.19737 0.0
H2140 H 0.16158 0.45746 0.21166 0.0
H2141 H 0.18916 0.45968 0.17964 0.0
H2142 H 0.98227 0.45477 0.16519 0.0
H2143 H 0.95389 0.45279 0.19762 0.0
H2144 H 0.17876 0.44598 0.15478 0.0
H2145 H 0.02841 0.47708 0.13253 0.0
H2146 H 0.0416 0.47426 0.15626 0.0
H2147 H 0.9794 0.46793 0.14325 0.0
C2148 C 0.12156 0.45704 0.2017 0.0
C2149 C 0.05556 0.4549 0.20712 0.0
C2150 C 0.13748 0.45831 0.18338 0.0
C2151 C 0.08797 0.45741 0.16994 0.0
C2152 C 0.02122 0.45567 0.17532 0.0
H2153 H 0.08395 0.44772 0.05559 0.0
H2154 H 0.06241 0.45078 0.08761 0.0
C2155 C 0.00497 0.45451 0.19383 0.0
C2156 C 0.10823 0.45739 0.15041 0.0
H2157 H 0.07854 0.46769 0.10901 0.0
C2158 C 0.1574 0.45082 0.14483 0.0
C2159 C 0.08051 0.46369 0.1374 0.0
C2160 C 0.03003 0.47121 0.14266 0.0
C2161 C 0.17806 0.45019 0.12658 0.0
C2162 C 0.14935 0.45635 0.11351 0.0
C2163 C 0.10091 0.46302 0.11909 0.0
C2164 C 0.1636 0.45525 0.09376 0.0
C2165 C 0.22848 0.44266 0.12127 0.0
C2166 C 0.22781 0.4569 0.08642 0.0
C2167 C 0.24065 0.45514 0.06788 0.0
C2168 C 0.18948 0.45165 0.0565 0.0
C2169 C 0.12499 0.45028 0.06393 0.0
C2170 C 0.11225 0.45209 0.08227 0.0
H2171 H 0.2378 0.4375 0.13245 0.0
H2172 H 0.21098 0.43869 0.10908 0.0
H2173 H 0.27679 0.44614 0.11776 0.0
H2174 H 0.26804 0.45944 0.09506 0.0
H2175 H 0.29065 0.45632 0.06258 0.0
H2176 H 0.15009 0.17068 0.00477 0.0
H2177 H 0.18574 0.15427 0.00966 0.0
H2178 H 0.9838 0.14653 0.02454 0.0
H2179 H 0.94713 0.16301 0.01946 0.0
H2180 H 0.17925 0.14233 0.04046 0.0
H2181 H 0.0292 0.12811 0.9827 0.0
H2182 H 0.04435 0.14069 0.98578 0.0
H2183 H 0.98242 0.1347 0.9994 0.0
C2184 C 0.11302 0.16552 0.00914 0.0
C2185 C 0.04544 0.16817 0.01154 0.0
C2186 C 0.13369 0.15613 0.01198 0.0
C2187 C 0.08736 0.14914 0.01722 0.0
C2188 C 0.02023 0.15178 0.0202 0.0
H2189 H 0.11635 0.08784 0.02677 0.0
H2190 H 0.0828 0.1045 0.02844 0.0
C2191 C -0.00061 0.16121 0.01738 0.0
C2192 C 0.10948 0.13906 0.01896 0.0
H2193 H 0.08888 0.11695 1.00036 0.0
C2194 C 0.15944 0.13677 0.03173 0.0
C2195 C 0.08394 0.13183 0.00747 0.0
C2196 C 0.03244 0.13392 0.99294 0.0
C2197 C 0.18377 0.1274 0.03351 0.0
C2198 C 0.15834 0.12017 0.02197 0.0
C2199 C 0.10832 0.12249 0.00923 0.0
C2200 C 0.18174 0.11011 0.02289 0.0
C2201 C 0.23547 0.12529 0.04795 0.0
C2202 C 0.24907 0.10767 0.01954 0.0
C2203 C 0.26875 0.09807 0.01869 0.0
C2204 C 0.22117 0.09076 0.02093 0.0
C2205 C 0.15433 0.09327 0.02484 0.0
C2206 C 0.13493 0.10281 0.0258 0.0
H2207 H 0.23638 0.13089 0.05867 0.0
H2208 H 0.22578 0.1183 0.0545 0.0
H2209 H 0.28587 0.12503 0.04156 0.0
H2210 H 0.28594 0.11317 0.0169 0.0
H2211 H 0.32046 0.09639 0.01553 0.0
H2212 H 0.32021 0.16401 0.24472 0.0
H2213 H 0.28384 0.14735 0.24211 0.0
H2214 H 0.08007 0.15662 0.23374 0.0
H2215 H 0.11566 0.1732 0.23627 0.0
H2216 H 0.18598 0.13895 0.26584 0.0
H2217 H 0.10795 0.13644 0.19339 0.0
H2218 H 0.16311 0.14569 0.20169 0.0
H2219 H 0.07434 0.14645 0.20561 0.0
C2220 C 0.26789 0.16251 0.24199 0.0
C2221 C 0.22088 0.16995 0.24075 0.0
C2222 C 0.24716 0.15299 0.24054 0.0
C2223 C 0.17933 0.15075 0.23754 0.0
C2224 C 0.13278 0.15817 0.23574 0.0
H2225 H 0.94132 0.09834 0.23831 0.0
H2226 H 0.98016 0.11489 0.23502 0.0
C2227 C 0.15327 0.16766 0.23732 0.0
C2228 C 0.156 0.14069 0.23789 0.0
H2229 H 0.07681 0.12356 0.21268 0.0
C2230 C 0.16265 0.13556 0.25417 0.0
C2231 C 0.12459 0.13633 0.22274 0.0
C2232 C 0.11741 0.14146 0.2048 0.0
C2233 C 0.13795 0.12623 0.25583 0.0
C2234 C 0.10722 0.1218 0.24062 0.0
C2235 C 0.10033 0.12695 0.22432 0.0
C2236 C 0.08384 0.11173 0.24134 0.0
C2237 C 0.14355 0.12129 0.27404 0.0
C2238 C 0.12943 0.10444 0.24541 0.0
C2239 C 0.10743 0.09506 0.24743 0.0
C2240 C 0.0393 0.09269 0.24516 0.0
C2241 C 0.99402 0.09993 0.24022 0.0
C2242 C 0.01615 0.10938 0.23834 0.0
H2243 H 0.14946 0.12649 0.28536 0.0
H2244 H 0.09874 0.11682 0.27682 0.0
H2245 H 0.1884 0.11661 0.274 0.0
H2246 H 0.18215 0.10602 0.24729 0.0
H2247 H 0.144 0.08966 0.25095 0.0
H2248 H 0.91389 0.84367 0.01525 0.0
H2249 H 0.8775 0.85984 0.00899 0.0
H2250 H 0.99778 0.86028 0.96015 0.0
H2251 H 0.03675 0.84398 0.96677 0.0
H2252 H 0.0081 0.87673 0.97745 0.0
H2253 H 0.73918 0.86825 0.97339 0.0
H2254 H 0.77157 0.86407 0.99468 0.0
H2255 H 0.80262 0.85908 0.97364 0.0
C2256 C 0.93265 0.84716 1.00311 0.0
C2257 C 0.97773 0.84248 0.99139 0.0
C2258 C 0.91116 0.85641 0.99945 0.0
C2259 C 0.93279 0.8612 0.98374 0.0
C2260 C 0.97947 0.85668 0.97221 0.0
H2261 H 0.72435 0.9164 0.96975 0.0
H2262 H 0.76432 0.90021 0.96283 0.0
C2263 C 0.00191 0.84739 0.97603 0.0
C2264 C 0.90821 0.87105 0.9801 0.0
H2265 H 0.76604 0.88461 0.98173 0.0
C2266 C 0.95508 0.87843 0.97803 0.0
C2267 C 0.83891 0.87332 0.98022 0.0
C2268 C 0.78531 0.86573 0.98038 0.0
C2269 C 0.93486 0.88803 0.97753 0.0
C2270 C 0.8661 0.89034 0.97983 0.0
C2271 C 0.81889 0.88292 0.98043 0.0
C2272 C 0.84291 0.90029 0.98322 0.0
C2273 C 0.98776 0.89558 0.97472 0.0
C2274 C 0.87253 0.90566 0.99719 0.0
C2275 C 0.85042 0.91488 1.00098 0.0
C2276 C 0.79685 0.91893 0.9912 0.0
C2277 C 0.76578 0.91349 0.9775 0.0
C2278 C 0.78873 0.90425 0.97352 0.0
H2279 H 0.02948 0.89283 0.96617 0.0
H2280 H 0.96679 0.90204 0.96812 0.0
H2281 H 0.00932 0.89761 0.98811 0.0
H2282 H 0.91238 0.90268 0.00542 0.0
H2283 H 0.87492 0.91879 0.01182 0.0
H2284 H 0.66861 0.8472 0.76699 0.0
H2285 H 0.70308 0.86401 0.76907 0.0
H2286 H 0.90694 0.85527 0.77917 0.0
H2287 H 0.87358 0.83862 0.77691 0.0
H2288 H 0.77146 0.87486 0.79673 0.0
H2289 H 0.92253 0.87196 0.73348 0.0
H2290 H 0.86161 0.86309 0.74003 0.0
H2291 H 0.94327 0.86323 0.75043 0.0
C2292 C 0.72058 0.84887 0.76986 0.0
C2293 C 0.76846 0.84156 0.77151 0.0
C2294 C 0.74023 0.85847 0.77101 0.0
C2295 C 0.8079 0.86088 0.77385 0.0
C2296 C 0.85481 0.85358 0.77652 0.0
H2297 H 0.04254 0.91344 0.77216 0.0
H2298 H 0.00471 0.89695 0.77665 0.0
C2299 C 0.83547 0.84405 0.77527 0.0
C2300 C 0.83068 0.87096 0.77338 0.0
H2301 H 0.93549 0.88614 0.75066 0.0
C2302 C 0.80704 0.87735 0.78662 0.0
C2303 C 0.87732 0.87419 0.7602 0.0
C2304 C 0.90227 0.8678 0.74512 0.0
C2305 C 0.82979 0.88685 0.78722 0.0
C2306 C 0.87666 0.89005 0.77407 0.0
C2307 C 0.90015 0.88365 0.76085 0.0
C2308 C 0.89931 0.90013 0.77308 0.0
C2309 C 0.80433 0.89331 0.8021 0.0
C2310 C 0.85275 0.90739 0.76962 0.0
C2311 C 0.87414 0.91677 0.76702 0.0
C2312 C 0.94278 0.91913 0.76772 0.0
C2313 C 0.98938 0.91189 0.77159 0.0
C2314 C 0.96782 0.90246 0.77413 0.0
H2315 H 0.7848 0.88919 0.81389 0.0
H2316 H 0.84447 0.89818 0.80697 0.0
H2317 H 0.76267 0.89772 0.79669 0.0
H2318 H 0.79985 0.90575 0.76835 0.0
H2319 H 0.83672 0.92214 0.76406 0.0
H2320 H 0.10837 0.67256 0.52978 0.0
H2321 H 0.14698 0.65616 0.53285 0.0
H2322 H 0.94697 0.64598 0.52193 0.0
H2323 H 0.9073 0.6625 0.51908 0.0
H2324 H 0.0164 0.63565 0.54985 0.0
H2325 H 0.17125 0.63953 0.48741 0.0
H2326 H 0.18805 0.6483 0.50461 0.0
H2327 H 0.10741 0.64803 0.49366 0.0
C2328 C 0.07222 0.66686 0.5282 0.0
C2329 C 0.00482 0.66885 0.52394 0.0
C2330 C 0.09455 0.65747 0.5299 0.0
C2331 C 0.05028 0.64985 0.52717 0.0
C2332 C 0.98211 0.65178 0.52394 0.0
H2333 H 0.08605 0.58902 0.5154 0.0
H2334 H 0.04874 0.60532 0.52046 0.0
C2335 C 0.95948 0.66121 0.52235 0.0
C2336 C 0.0762 0.63992 0.52684 0.0
H2337 H 0.18447 0.62525 0.5041 0.0
C2338 C 0.05304 0.63336 0.53984 0.0
C2339 C 0.1242 0.63695 0.51379 0.0
C2340 C 0.14884 0.64353 0.49896 0.0
C2341 C 0.07715 0.62394 0.54025 0.0
C2342 C 0.12491 0.62097 0.52714 0.0
C2343 C 0.14837 0.62755 0.51425 0.0
C2344 C 0.14794 0.61092 0.52569 0.0
C2345 C 0.05186 0.61728 0.55483 0.0
C2346 C 0.21647 0.60862 0.52676 0.0
C2347 C 0.23829 0.59924 0.52378 0.0
C2348 C 0.19194 0.59203 0.51944 0.0
C2349 C 0.12329 0.59437 0.51871 0.0
C2350 C 0.10163 0.6037 0.52175 0.0
H2351 H 0.03198 0.62125 0.56676 0.0
H2352 H 0.01044 0.61289 0.5492 0.0
H2353 H 0.09215 0.61241 0.55954 0.0
H2354 H 0.25316 0.61412 0.52963 0.0
H2355 H 0.29146 0.59771 0.52438 0.0
H2356 H 0.29547 0.66614 0.71906 0.0
H2357 H 0.25757 0.64979 0.71248 0.0
H2358 H 0.10756 0.65224 0.75458 0.0
H2359 H 0.14287 0.66848 0.76061 0.0
H2360 H 0.25522 0.63418 0.73155 0.0
H2361 H 0.99252 0.64227 0.715 0.0
H2362 H 0.05504 0.65151 0.71703 0.0
H2363 H 0.01151 0.64715 0.73693 0.0
C2364 C 0.25414 0.66318 0.72679 0.0
C2365 C 0.22166 0.66866 0.74018 0.0
C2366 C 0.23236 0.65385 0.723 0.0
C2367 C 0.17807 0.64985 0.73261 0.0
C2368 C 0.14745 0.65525 0.74639 0.0
H2369 H 0.10592 0.59309 0.76463 0.0
H2370 H 0.14395 0.6092 0.75841 0.0
C2371 C 0.16831 0.66454 0.74996 0.0
C2372 C 0.15523 0.63988 0.72927 0.0
H2373 H 0.01335 0.62626 0.72667 0.0
C2374 C 0.20243 0.63247 0.73012 0.0
C2375 C 0.08659 0.63755 0.72678 0.0
C2376 C 0.03379 0.64507 0.72366 0.0
C2377 C 0.18242 0.62286 0.72998 0.0
C2378 C 0.11311 0.62058 0.72969 0.0
C2379 C 0.06636 0.62795 0.72738 0.0
C2380 C 0.08819 0.61073 0.73327 0.0
C2381 C 0.23607 0.61529 0.7303 0.0
C2382 C 0.04072 0.60632 0.72181 0.0
C2383 C 0.01722 0.59709 0.72564 0.0
C2384 C 0.04116 0.5921 0.74094 0.0
C2385 C 0.08729 0.59665 0.75255 0.0
C2386 C 0.10976 0.60586 0.7489 0.0
H2387 H 0.28225 0.61779 0.72331 0.0
H2388 H 0.24969 0.6137 0.74465 0.0
H2389 H 0.21892 0.60861 0.72366 0.0
H2390 H 0.02244 0.60997 0.70981 0.0
H2391 H 0.98161 0.59378 0.71646 0.0
H2392 H 0.84437 0.41838 0.51262 0.0
H2393 H 0.8811 0.4023 0.50568 0.0
H2394 H 0.74759 0.40145 0.45947 0.0
H2395 H 0.70824 0.41762 0.46686 0.0
H2396 H 0.74216 0.38524 0.47679 0.0
H2397 H 0.00982 0.39348 0.46813 0.0
H2398 H 0.98302 0.39771 0.48996 0.0
H2399 H 0.94707 0.40271 0.46951 0.0
C2400 C 0.82286 0.41483 0.50089 0.0
C2401 C 0.77372 0.41934 0.49019 0.0
C2402 C 0.84458 0.40563 0.49682 0.0
C2403 C 0.81908 0.40074 0.48165 0.0
C2404 C 0.76887 0.40512 0.47109 0.0
H2405 H 0.019 0.34491 0.46551 0.0
H2406 H 0.9804 0.36121 0.4588 0.0
C2407 C 0.74623 0.41434 0.47534 0.0
C2408 C 0.84267 0.39086 0.47776 0.0
H2409 H 0.98439 0.37716 0.47735 0.0
C2410 C 0.79515 0.3835 0.47654 0.0
C2411 C 0.9118 0.38852 0.4768 0.0
C2412 C 0.96566 0.39606 0.47594 0.0
C2413 C 0.81482 0.37389 0.47588 0.0
C2414 C 0.88384 0.37153 0.47715 0.0
C2415 C 0.93143 0.3789 0.47684 0.0
C2416 C 0.90696 0.36158 0.48055 0.0
C2417 C 0.76109 0.36638 0.47407 0.0
C2418 C 0.88007 0.35646 0.49524 0.0
C2419 C 0.90136 0.3472 0.49892 0.0
C2420 C 0.95143 0.34285 0.48829 0.0
C2421 C 0.98022 0.34805 0.47391 0.0
C2422 C 0.95804 0.35735 0.47005 0.0
H2423 H 0.71774 0.36911 0.46613 0.0
H2424 H 0.78035 0.35985 0.4673 0.0
H2425 H 0.74232 0.36445 0.48782 0.0
H2426 H 0.8428 0.35966 0.50406 0.0
H2427 H 0.87883 0.34349 0.51032 0.0
H2428 H 0.90881 0.33931 0.26261 0.0
H2429 H 0.94733 0.35557 0.2676 0.0
H2430 H 0.74551 0.36424 0.28056 0.0
H2431 H 0.70599 0.34785 0.27551 0.0
H2432 H 0.81172 0.37557 0.25366 0.0
H2433 H 0.97154 0.37099 0.31488 0.0
H2434 H 0.98832 0.36262 0.29694 0.0
H2435 H 0.90846 0.36241 0.3083 0.0
C2436 C 0.87243 0.34463 0.2667 0.0
C2437 C 0.80411 0.34226 0.26861 0.0
C2438 C 0.8948 0.35392 0.2697 0.0
C2439 C 0.84956 0.3611 0.2747 0.0
C2440 C 0.78139 0.35878 0.27686 0.0
H2441 H 0.88992 0.42264 0.27977 0.0
H2442 H 0.85155 0.40621 0.28229 0.0
C2443 C 0.75889 0.34942 0.27399 0.0
C2444 C 0.87312 0.37112 0.27619 0.0
H2445 H 0.98423 0.38557 0.29851 0.0
C2446 C 0.84884 0.37779 0.2636 0.0
C2447 C 0.92231 0.37396 0.289 0.0
C2448 C 0.94887 0.36715 0.30316 0.0
C2449 C 0.87344 0.38716 0.26318 0.0
C2450 C 0.92259 0.39003 0.27601 0.0
C2451 C 0.94669 0.38337 0.28868 0.0
C2452 C 0.94842 0.39998 0.27654 0.0
C2453 C 0.84796 0.39383 0.24859 0.0
C2454 C 0.01667 0.40197 0.27349 0.0
C2455 C 0.03922 0.41143 0.27227 0.0
C2456 C 0.99368 0.41903 0.27402 0.0
C2457 C 0.92619 0.41696 0.27805 0.0
C2458 C 0.90399 0.40756 0.27942 0.0
H2459 H 0.82566 0.38987 0.23696 0.0
H2460 H 0.80838 0.39847 0.25444 0.0
H2461 H 0.88885 0.39845 0.24335 0.0
H2462 H 0.05199 0.39621 0.27139 0.0
H2463 H 0.09148 0.41278 0.26918 0.0
H2464 H 0.6142 0.09041 0.52015 0.0
H2465 H 0.58144 0.10707 0.52261 0.0
H2466 H 0.78941 0.11532 0.52579 0.0
H2467 H 0.82312 0.09852 0.52314 0.0
H2468 H 0.60765 0.12129 0.5492 0.0
H2469 H 0.71603 0.13026 0.4815 0.0
H2470 H 0.70312 0.11812 0.48884 0.0
H2471 H 0.77261 0.12488 0.49754 0.0
C2472 C 0.65327 0.09573 0.52148 0.0
C2473 C 0.72149 0.09311 0.52123 0.0
C2474 C 0.63427 0.10527 0.52296 0.0
C2475 C 0.68288 0.11245 0.52412 0.0
C2476 C 0.75105 0.10988 0.52463 0.0
H2477 H 0.64322 0.17381 0.51454 0.0
H2478 H 0.68349 0.15766 0.51974 0.0
C2479 C 0.77025 0.10029 0.52321 0.0
C2480 C 0.66148 0.1226 0.5239 0.0
H2481 H 0.66415 0.14268 0.49767 0.0
C2482 C 0.62027 0.126 0.538 0.0
C2483 C 0.67755 0.1287 0.5092 0.0
C2484 C 0.71929 0.12533 0.4933 0.0
C2485 C 0.5952 0.13538 0.53788 0.0
C2486 C 0.61061 0.14144 0.52305 0.0
C2487 C 0.65231 0.13804 0.50905 0.0
C2488 C 0.58469 0.15137 0.52166 0.0
C2489 C 0.55334 0.13873 0.55375 0.0
C2490 C 0.51543 0.15329 0.52121 0.0
C2491 C 0.49199 0.1626 0.51835 0.0
C2492 C 0.53746 0.17013 0.51562 0.0
C2493 C 0.60666 0.16819 0.51647 0.0
C2494 C 0.62991 0.15894 0.51945 0.0
H2495 H 0.56203 0.13431 0.56608 0.0
H2496 H 0.56435 0.14628 0.55712 0.0
H2497 H 0.49946 0.13816 0.55012 0.0
H2498 H 0.47946 0.14754 0.52249 0.0
H2499 H 0.43844 0.16384 0.51766 0.0
H2500 H 0.54102 0.09528 0.77259 0.0
H2501 H 0.57944 0.11156 0.76798 0.0
H2502 H 0.51133 0.11051 0.71219 0.0
H2503 H 0.46924 0.09423 0.71716 0.0
H2504 H 0.67373 0.11766 0.74709 0.0
H2505 H 0.43877 0.13584 0.7263 0.0
H2506 H 0.43924 0.12389 0.7353 0.0
H2507 H 0.46159 0.12603 0.7119 0.0
C2508 C 0.53323 0.09856 0.7594 0.0
C2509 C 0.50192 0.0935 0.74525 0.0
C2510 C 0.55551 0.10788 0.75675 0.0
C2511 C 0.54824 0.11235 0.73976 0.0
C2512 C 0.51627 0.10734 0.72556 0.0
H2513 H 0.79245 0.16475 0.72688 0.0
H2514 H 0.75009 0.1485 0.72237 0.0
C2515 C 0.49241 0.09803 0.72837 0.0
C2516 C 0.57704 0.12208 0.73712 0.0
H2517 H 0.53788 0.14503 0.7258 0.0
C2518 C 0.64394 0.12364 0.74241 0.0
C2519 C 0.53837 0.12991 0.73102 0.0
C2520 C 0.46537 0.12888 0.72596 0.0
C2521 C 0.6723 0.13281 0.74257 0.0
C2522 C 0.63375 0.14066 0.73644 0.0
C2523 C 0.56767 0.13903 0.73044 0.0
C2524 C 0.65847 0.15068 0.73772 0.0
C2525 C 0.742 0.134 0.75031 0.0
C2526 C 0.61995 0.15749 0.74704 0.0
C2527 C 0.64313 0.16682 0.74914 0.0
C2528 C 0.70597 0.16956 0.7422 0.0
C2529 C 0.74426 0.16282 0.73259 0.0
C2530 C 0.72023 0.1535 0.73013 0.0
H2531 H 0.75686 0.12782 0.75886 0.0
H2532 H 0.77855 0.13455 0.73896 0.0
H2533 H 0.7457 0.14055 0.75874 0.0
H2534 H 0.57223 0.15555 0.75305 0.0
H2535 H 0.61236 0.17182 0.75665 0.0
H2536 H 0.37451 0.92071 0.51208 0.0
H2537 H 0.41343 0.90464 0.50596 0.0
H2538 H 0.27031 0.90205 0.46217 0.0
H2539 H 0.22885 0.91819 0.46876 0.0
H2540 H 0.2708 0.88643 0.48117 0.0
H2541 H 0.53519 0.89497 0.46754 0.0
H2542 H 0.51248 0.89974 0.48931 0.0
H2543 H 0.47172 0.9041 0.46899 0.0
C2544 C 0.35141 0.91678 0.50103 0.0
C2545 C 0.2988 0.92079 0.49081 0.0
C2546 C 0.37437 0.90759 0.49741 0.0
C2547 C 0.34657 0.90219 0.4832 0.0
C2548 C 0.29332 0.90611 0.47305 0.0
H2549 H 0.54684 0.84628 0.46838 0.0
H2550 H 0.50667 0.86247 0.46141 0.0
C2551 C 0.26952 0.91532 0.47685 0.0
C2552 C 0.37065 0.89227 0.47999 0.0
H2553 H 0.51369 0.87886 0.4787 0.0
C2554 C 0.32387 0.8848 0.48026 0.0
C2555 C 0.43975 0.89005 0.4782 0.0
C2556 C 0.49243 0.89767 0.47577 0.0
C2557 C 0.3445 0.87522 0.48023 0.0
C2558 C 0.41393 0.87304 0.48063 0.0
C2559 C 0.46052 0.88049 0.47888 0.0
C2560 C 0.43885 0.86323 0.48443 0.0
C2561 C 0.29138 0.86756 0.48 0.0
C2562 C 0.41588 0.85838 0.49993 0.0
C2563 C 0.43804 0.84918 0.50377 0.0
C2564 C 0.48513 0.84462 0.49247 0.0
C2565 C 0.51045 0.84959 0.47732 0.0
C2566 C 0.48734 0.85882 0.47331 0.0
H2567 H 0.24586 0.87002 0.47264 0.0
H2568 H 0.30981 0.86094 0.47343 0.0
H2569 H 0.27623 0.86591 0.4942 0.0
H2570 H 0.38075 0.86172 0.50919 0.0
H2571 H 0.41831 0.84563 0.51574 0.0
H2572 H 0.36027 0.92455 0.27352 0.0
H2573 H 0.31993 0.9084 0.27884 0.0
H2574 H 0.5226 0.89782 0.27551 0.0
H2575 H 0.5638 0.91409 0.27051 0.0
H2576 H 0.32992 0.89387 0.25519 0.0
H2577 H 0.45352 0.88384 0.32002 0.0
H2578 H 0.44939 0.896 0.31212 0.0
H2579 H 0.51113 0.88797 0.30297 0.0
C2580 C 0.39659 0.91883 0.27416 0.0
C2581 C 0.46538 0.92063 0.27152 0.0
C2582 C 0.37332 0.90958 0.27722 0.0
C2583 C 0.41811 0.90189 0.27773 0.0
C2584 C 0.48712 0.90366 0.27556 0.0
H2585 H 0.39042 0.84131 0.27036 0.0
H2586 H 0.42206 0.85793 0.2743 0.0
C2587 C 0.51063 0.91296 0.27262 0.0
C2588 C 0.39163 0.89199 0.279 0.0
H2589 H 0.40296 0.87119 0.30303 0.0
C2590 C 0.34529 0.88895 0.26579 0.0
C2591 C 0.41164 0.88556 0.29282 0.0
C2592 C 0.45865 0.88852 0.3079 0.0
C2593 C 0.32014 0.8796 0.26566 0.0
C2594 C 0.34111 0.87312 0.27927 0.0
C2595 C 0.38664 0.87619 0.29266 0.0
C2596 C 0.32089 0.86293 0.27882 0.0
C2597 C 0.2734 0.87662 0.25052 0.0
C2598 C 0.25341 0.86014 0.28056 0.0
C2599 C 0.23488 0.85056 0.2783 0.0
C2600 C 0.28361 0.84364 0.27422 0.0
C2601 C 0.35137 0.84644 0.27331 0.0
C2602 C 0.36974 0.85596 0.27563 0.0
H2603 H 0.2722 0.88191 0.23926 0.0
H2604 H 0.28857 0.86961 0.24485 0.0
H2605 H 0.2218 0.8759 0.25601 0.0
H2606 H 0.21498 0.86541 0.28329 0.0
H2607 H 0.18236 0.84864 0.27915 0.0
H2608 H 0.62394 0.66835 0.99871 0.0
H2609 H 0.65988 0.65203 1.00363 0.0
H2610 H 0.5101 0.64873 0.04559 0.0
H2611 H 0.47152 0.66512 0.0401 0.0
H2612 H 0.71254 0.64314 0.03149 0.0
H2613 H 0.46853 0.62604 0.01494 0.0
H2614 H 0.48343 0.63855 0.01125 0.0
H2615 H 0.46587 0.63417 0.03379 0.0
C2616 C 0.59832 0.66418 0.009 0.0
C2617 C 0.54446 0.66804 0.01894 0.0
C2618 C 0.61921 0.65482 0.01184 0.0
C2619 C 0.58741 0.64905 0.02484 0.0
C2620 C 0.5345 0.65294 0.03516 0.0
H2621 H 0.77615 0.59213 0.04164 0.0
H2622 H 0.74082 0.60863 0.04775 0.0
C2623 C 0.51265 0.66232 0.03208 0.0
C2624 C 0.60988 0.63898 0.027 0.0
H2625 H 0.55811 0.61592 0.02216 0.0
C2626 C 0.67867 0.63718 0.02957 0.0
C2627 C 0.56581 0.63117 0.02447 0.0
C2628 C 0.49193 0.63254 0.0208 0.0
C2629 C 0.70505 0.62789 0.02874 0.0
C2630 C 0.6611 0.62011 0.02589 0.0
C2631 C 0.59189 0.62187 0.02432 0.0
C2632 C 0.68565 0.61023 0.02249 0.0
C2633 C 0.78006 0.62659 0.02989 0.0
C2634 C 0.66618 0.60558 0.00641 0.0
C2635 C 0.68503 0.59617 1.00314 0.0
C2636 C 0.72474 0.59117 0.01572 0.0
C2637 C 0.74626 0.59586 0.0316 0.0
C2638 C 0.72616 0.60529 0.03507 0.0
H2639 H 0.80739 0.63339 0.02775 0.0
H2640 H 0.79335 0.62387 0.04361 0.0
H2641 H 0.79778 0.62135 0.01962 0.0
H2642 H 0.63548 0.6092 0.9964 0.0
H2643 H 0.66789 0.59276 0.99073 0.0
H2644 H 0.64743 0.66844 0.26553 0.0
H2645 H 0.6107 0.65222 0.25975 0.0
H2646 H 0.73884 0.65088 0.21244 0.0
H2647 H 0.77841 0.66716 0.21872 0.0
H2648 H 0.54445 0.64476 0.23255 0.0
H2649 H 0.79214 0.62676 0.23731 0.0
H2650 H 0.78066 0.63907 0.24362 0.0
H2651 H 0.78646 0.63575 0.22 0.0
C2652 C 0.66826 0.6647 0.25392 0.0
C2653 C 0.7161 0.66909 0.24262 0.0
C2654 C 0.64694 0.65541 0.25059 0.0
C2655 C 0.67216 0.65024 0.23573 0.0
C2656 C 0.71962 0.65461 0.22423 0.0
H2657 H 0.46332 0.59479 0.21854 0.0
H2658 H 0.50286 0.61109 0.21247 0.0
C2659 C 0.74205 0.66393 0.22778 0.0
C2660 C 0.6478 0.64031 0.23269 0.0
H2661 H 0.69839 0.61706 0.23194 0.0
C2662 C 0.57816 0.6387 0.23228 0.0
C2663 C 0.69168 0.63238 0.23233 0.0
C2664 C 0.76685 0.63353 0.23349 0.0
C2665 C 0.55117 0.62944 0.23258 0.0
C2666 C 0.59506 0.62151 0.2326 0.0
C2667 C 0.66468 0.62313 0.23194 0.0
C2668 C 0.57083 0.61157 0.2355 0.0
C2669 C 0.47607 0.62829 0.23403 0.0
C2670 C 0.59681 0.60629 0.25012 0.0
C2671 C 0.5755 0.59698 0.25332 0.0
C2672 C 0.52691 0.59269 0.24212 0.0
C2673 C 0.50026 0.59795 0.22751 0.0
C2674 C 0.52267 0.60727 0.22409 0.0
H2675 H 0.45104 0.63503 0.23813 0.0
H2676 H 0.45569 0.62616 0.22056 0.0
H2677 H 0.4628 0.62269 0.24407 0.0
H2678 H 0.63361 0.60941 0.2592 0.0
H2679 H 0.5969 0.59317 0.26476 0.0
H2680 H 0.36342 0.42103 0.9841 0.0
H2681 H 0.40337 0.40474 0.98061 0.0
H2682 H 0.20146 0.39428 0.98736 0.0
H2683 H 0.16061 0.41069 0.99047 0.0
H2684 H 0.39774 0.39121 0.00616 0.0
H2685 H 0.26427 0.37852 0.94453 0.0
H2686 H 0.26866 0.39096 0.95063 0.0
H2687 H 0.20915 0.38323 0.96163 0.0
C2688 C 0.32715 0.41529 0.98458 0.0
C2689 C 0.25872 0.41718 0.98763 0.0
C2690 C 0.3502 0.40596 0.98257 0.0
C2691 C 0.30556 0.39825 0.98359 0.0
C2692 C 0.2368 0.4001 0.98613 0.0
H2693 H 0.34222 0.33788 0.99784 0.0
H2694 H 0.3074 0.35433 0.99333 0.0
C2695 C 0.21348 0.40949 0.98799 0.0
C2696 C 0.3322 0.38834 0.98348 0.0
H2697 H 0.31871 0.36665 0.96258 0.0
C2698 C 0.38096 0.38587 0.99649 0.0
C2699 C 0.31039 0.38136 0.97087 0.0
C2700 C 0.26072 0.38366 0.95601 0.0
C2701 C 0.40703 0.37659 0.99757 0.0
C2702 C 0.38441 0.36958 0.98517 0.0
C2703 C 0.33624 0.37205 0.97202 0.0
C2704 C 0.40646 0.35949 0.98657 0.0
C2705 C 0.45684 0.37427 0.0124 0.0
C2706 C 0.47381 0.35685 0.98391 0.0
C2707 C 0.4942 0.34737 0.98648 0.0
C2708 C 0.4475 0.34039 0.9918 0.0
C2709 C 0.37982 0.34305 0.9939 0.0
C2710 C 0.35959 0.35247 0.99125 0.0
H2711 H 0.45943 0.37996 0.02291 0.0
H2712 H 0.44363 0.36745 0.01917 0.0
H2713 H 0.50745 0.37347 0.00631 0.0
H2714 H 0.51069 0.36215 0.98004 0.0
H2715 H 0.54657 0.34556 0.98467 0.0
H2716 H 0.57411 0.41212 0.77016 0.0
H2717 H 0.53335 0.39574 0.77434 0.0
H2718 H 0.33338 0.40638 0.78356 0.0
H2719 H 0.37308 0.42264 0.77904 0.0
H2720 H 0.46594 0.38614 0.80241 0.0
H2721 H 0.30602 0.3885 0.74068 0.0
H2722 H 0.36912 0.39728 0.74599 0.0
H2723 H 0.28906 0.39757 0.75728 0.0
C2724 C 0.52164 0.41097 0.77328 0.0
C2725 C 0.47672 0.41868 0.77399 0.0
C2726 C 0.49837 0.40161 0.77564 0.0
C2727 C 0.42994 0.39982 0.77881 0.0
C2728 C 0.38597 0.40755 0.78062 0.0
H2729 H 0.19751 0.34652 0.78054 0.0
H2730 H 0.23163 0.36316 0.7857 0.0
C2731 C 0.40893 0.41686 0.77811 0.0
C2732 C 0.4038 0.38989 0.77952 0.0
H2733 H 0.29513 0.37457 0.75849 0.0
C2734 C 0.42858 0.38362 0.79282 0.0
C2735 C 0.35486 0.38658 0.76702 0.0
C2736 C 0.32859 0.39279 0.75182 0.0
C2737 C 0.40565 0.37415 0.79396 0.0
C2738 C 0.35721 0.37084 0.78136 0.0
C2739 C 0.33168 0.37715 0.76827 0.0
C2740 C 0.33691 0.36066 0.78034 0.0
C2741 C 0.43335 0.36776 0.80867 0.0
C2742 C 0.38467 0.35375 0.77571 0.0
C2743 C 0.36535 0.34433 0.77264 0.0
C2744 C 0.29768 0.34156 0.77413 0.0
C2745 C 0.25 0.34841 0.77939 0.0
C2746 C 0.26942 0.35791 0.78229 0.0
H2747 H 0.45412 0.37196 0.82021 0.0
H2748 H 0.39413 0.36287 0.81395 0.0
H2749 H 0.47454 0.36338 0.80291 0.0
H2750 H 0.43674 0.35572 0.77379 0.0
H2751 H 0.40349 0.33924 0.76867 0.0
loop_
_geom_bond_atom_site_label_1
_geom_bond_atom_site_label_2
_geom_bond_distance
_geom_bond_site_symmetry_2
_ccdc_geom_bond_type
O0 Cd1 2.223 . S
O0 C8 1.315 . S
Cd1 O0 2.223 . S
Cd1 O4 2.297 . S
Cd1 O5 2.439 1_556 S
Cd1 O11 2.240 1_556 S
Cd2 O3 2.240 1_554 S
Cd2 O10 2.223 1_554 S
Cd2 O12 2.297 . S
Cd2 O13 2.439 . S
O3 Cd2 2.240 1_556 S
O3 C8 1.279 . S
O4 Cd1 2.297 . S
O4 C6 1.223 1_556 S
O5 Cd1 2.439 1_554 S
O5 C6 1.228 . S
C6 O4 1.223 1_554 S
C6 O5 1.228 . S
C7 O12 1.247 . S
C7 O13 1.208 . S
C8 O0 1.315 . S
C8 O3 1.279 . S
C9 O10 1.315 1_554 S
C9 O11 1.279 . S
O10 Cd2 2.223 1_556 S
O10 C9 1.315 1_556 S
O11 Cd1 2.240 1_554 S
O11 C9 1.279 . S
O12 Cd2 2.297 . S
O12 C7 1.247 . S
O13 Cd2 2.439 . S
O13 C7 1.208 . S
O14 Cd15 2.223 . S
O14 C22 1.315 . S
Cd15 O14 2.223 . S
Cd15 O18 2.297 . S
Cd15 O19 2.439 1_556 S
Cd15 O25 2.240 1_556 S
Cd16 O17 2.238 1_454 S
Cd16 O24 2.222 1_454 S
Cd16 O26 2.299 . S
Cd16 O27 2.438 1_455 S
O17 Cd16 2.238 1_656 S
O17 C22 1.279 . S
O18 Cd15 2.297 . S
O18 C20 1.223 1_556 S
O19 Cd15 2.439 1_554 S
O19 C20 1.229 . S
C20 O18 1.223 1_554 S
C20 O19 1.229 . S
C21 O26 1.247 . S
C21 O27 1.208 1_455 S
C22 O14 1.315 . S
C22 O17 1.279 . S
C23 O24 1.315 1_554 S
C23 O25 1.279 . S
O24 Cd16 2.222 1_656 S
O24 C23 1.315 1_556 S
O25 Cd15 2.240 1_554 S
O25 C23 1.279 . S
O26 Cd16 2.299 . S
O26 C21 1.247 . S
O27 Cd16 2.438 1_655 S
O27 C21 1.208 1_655 S
O28 Cd29 2.223 . S
O28 C36 1.315 . S
Cd29 O28 2.223 . S
Cd29 O32 2.297 . S
Cd29 O33 2.439 . S
Cd29 O39 2.240 . S
Cd30 O31 2.240 . S
Cd30 O38 2.223 . S
Cd30 O40 2.297 . S
Cd30 O41 2.439 . S
O31 Cd30 2.240 . S
O31 C36 1.279 . S
O32 Cd29 2.297 . S
O32 C34 1.247 . S
O33 Cd29 2.439 . S
O33 C34 1.208 . S
C34 O32 1.247 . S
C34 O33 1.208 . S
C35 O40 1.247 . S
C35 O41 1.208 . S
C36 O28 1.315 . S
C36 O31 1.279 . S
C37 O38 1.315 . S
C37 O39 1.279 . S
O38 Cd30 2.223 . S
O38 C37 1.315 . S
O39 Cd29 2.240 . S
O39 C37 1.279 . S
O40 Cd30 2.297 . S
O40 C35 1.247 . S
O41 Cd30 2.439 . S
O41 C35 1.208 . S
O42 Cd43 2.223 . S
O42 C50 1.315 . S
Cd43 O42 2.223 . S
Cd43 O46 2.297 . S
Cd43 O47 2.439 . S
Cd43 O53 2.240 . S
Cd44 O45 2.239 1_455 S
Cd44 O52 2.223 1_455 S
Cd44 O54 2.298 . S
Cd44 O55 2.438 1_455 S
O45 Cd44 2.239 1_655 S
O45 C50 1.279 . S
O46 Cd43 2.297 . S
O46 C48 1.247 . S
O47 Cd43 2.439 . S
O47 C48 1.208 . S
C48 O46 1.247 . S
C48 O47 1.208 . S
C49 O54 1.247 . S
C49 O55 1.208 1_455 S
C50 O42 1.315 . S
C50 O45 1.279 . S
C51 O52 1.315 . S
C51 O53 1.279 . S
O52 Cd44 2.223 1_655 S
O52 C51 1.315 . S
O53 Cd43 2.240 . S
O53 C51 1.279 . S
O54 Cd44 2.298 . S
O54 C49 1.247 . S
O55 Cd44 2.438 1_655 S
O55 C49 1.208 1_655 S
O56 Cd57 2.223 . S
O56 C64 1.315 . S
Cd57 O56 2.223 . S
Cd57 O60 2.297 . S
Cd57 O61 2.439 1_554 S
Cd57 O67 2.240 1_554 S
Cd58 O59 2.240 1_556 S
Cd58 O66 2.223 1_556 S
Cd58 O68 2.297 . S
Cd58 O69 2.439 . S
O59 Cd58 2.240 1_554 S
O59 C64 1.279 . S
O60 Cd57 2.297 . S
O60 C62 1.223 1_554 S
O61 Cd57 2.439 1_556 S
O61 C62 1.228 . S
C62 O60 1.223 1_556 S
C62 O61 1.228 . S
C63 O68 1.247 . S
C63 O69 1.208 . S
C64 O56 1.315 . S
C64 O59 1.279 . S
C65 O66 1.315 1_556 S
C65 O67 1.279 . S
O66 Cd58 2.223 1_554 S
O66 C65 1.315 1_554 S
O67 Cd57 2.240 1_556 S
O67 C65 1.279 . S
O68 Cd58 2.297 . S
O68 C63 1.247 . S
O69 Cd58 2.439 . S
O69 C63 1.208 . S
O70 Cd71 2.223 . S
O70 C78 1.315 . S
Cd71 O70 2.223 . S
Cd71 O74 2.297 . S
Cd71 O75 2.439 1_554 S
Cd71 O81 2.240 1_554 S
Cd72 O73 2.238 1_656 S
Cd72 O80 2.222 1_656 S
Cd72 O82 2.299 . S
Cd72 O83 2.438 1_655 S
O73 Cd72 2.238 1_454 S
O73 C78 1.279 . S
O74 Cd71 2.297 . S
O74 C76 1.223 1_554 S
O75 Cd71 2.439 1_556 S
O75 C76 1.229 . S
C76 O74 1.223 1_556 S
C76 O75 1.229 . S
C77 O82 1.247 . S
C77 O83 1.208 1_655 S
C78 O70 1.315 . S
C78 O73 1.279 . S
C79 O80 1.315 1_556 S
C79 O81 1.279 . S
O80 Cd72 2.222 1_454 S
O80 C79 1.315 1_554 S
O81 Cd71 2.240 1_556 S
O81 C79 1.279 . S
O82 Cd72 2.299 . S
O82 C77 1.247 . S
O83 Cd72 2.438 1_455 S
O83 C77 1.208 1_455 S
O84 Cd85 2.223 . S
O84 C92 1.315 . S
Cd85 O84 2.223 . S
Cd85 O88 2.297 . S
Cd85 O89 2.439 . S
Cd85 O95 2.240 . S
Cd86 O87 2.240 . S
Cd86 O94 2.223 . S
Cd86 O96 2.297 . S
Cd86 O97 2.439 . S
O87 Cd86 2.240 . S
O87 C92 1.279 . S
O88 Cd85 2.297 . S
O88 C90 1.247 . S
O89 Cd85 2.439 . S
O89 C90 1.208 . S
C90 O88 1.247 . S
C90 O89 1.208 . S
C91 O96 1.247 . S
C91 O97 1.208 . S
C92 O84 1.315 . S
C92 O87 1.279 . S
C93 O94 1.315 . S
C93 O95 1.279 . S
O94 Cd86 2.223 . S
O94 C93 1.315 . S
O95 Cd85 2.240 . S
O95 C93 1.279 . S
O96 Cd86 2.297 . S
O96 C91 1.247 . S
O97 Cd86 2.439 . S
O97 C91 1.208 . S
O98 Cd99 2.223 . S
O98 C106 1.315 . S
Cd99 O98 2.223 . S
Cd99 O102 2.297 . S
Cd99 O103 2.439 . S
Cd99 O109 2.240 . S
Cd100 O101 2.239 1_655 S
Cd100 O108 2.223 1_655 S
Cd100 O110 2.298 . S
Cd100 O111 2.438 1_655 S
O101 Cd100 2.239 1_455 S
O101 C106 1.279 . S
O102 Cd99 2.297 . S
O102 C104 1.247 . S
O103 Cd99 2.439 . S
O103 C104 1.208 . S
C104 O102 1.247 . S
C104 O103 1.208 . S
C105 O110 1.247 . S
C105 O111 1.208 1_655 S
C106 O98 1.315 . S
C106 O101 1.279 . S
C107 O108 1.315 . S
C107 O109 1.279 . S
O108 Cd100 2.223 1_455 S
O108 C107 1.315 . S
O109 Cd99 2.240 . S
O109 C107 1.279 . S
O110 Cd100 2.298 . S
O110 C105 1.247 . S
O111 Cd100 2.438 1_455 S
O111 C105 1.208 1_455 S
O112 Cd113 2.223 . S
O112 C120 1.315 . S
Cd113 O112 2.223 . S
Cd113 O116 2.297 . S
Cd113 O117 2.439 . S
Cd113 O123 2.240 . S
Cd114 O115 2.240 . S
Cd114 O122 2.223 . S
Cd114 O124 2.297 . S
Cd114 O125 2.439 . S
O115 Cd114 2.240 . S
O115 C120 1.279 . S
O116 Cd113 2.297 . S
O116 C118 1.247 . S
O117 Cd113 2.439 . S
O117 C118 1.208 . S
C118 O116 1.247 . S
C118 O117 1.208 . S
C119 O124 1.247 . S
C119 O125 1.208 . S
C120 O112 1.315 . S
C120 O115 1.279 . S
C121 O122 1.315 . S
C121 O123 1.279 . S
O122 Cd114 2.223 . S
O122 C121 1.315 . S
O123 Cd113 2.240 . S
O123 C121 1.279 . S
O124 Cd114 2.297 . S
O124 C119 1.247 . S
O125 Cd114 2.439 . S
O125 C119 1.208 . S
O126 Cd127 2.223 . S
O126 C134 1.315 . S
Cd127 O126 2.223 . S
Cd127 O130 2.297 . S
Cd127 O131 2.439 . S
Cd127 O137 2.240 . S
Cd128 O129 2.239 1_455 S
Cd128 O136 2.223 1_455 S
Cd128 O138 2.298 . S
Cd128 O139 2.438 1_455 S
O129 Cd128 2.239 1_655 S
O129 C134 1.279 . S
O130 Cd127 2.297 . S
O130 C132 1.247 . S
O131 Cd127 2.439 . S
O131 C132 1.208 . S
C132 O130 1.247 . S
C132 O131 1.208 . S
C133 O138 1.247 . S
C133 O139 1.208 1_455 S
C134 O126 1.315 . S
C134 O129 1.279 . S
C135 O136 1.315 . S
C135 O137 1.279 . S
O136 Cd128 2.223 1_655 S
O136 C135 1.315 . S
O137 Cd127 2.240 . S
O137 C135 1.279 . S
O138 Cd128 2.298 . S
O138 C133 1.247 . S
O139 Cd128 2.438 1_655 S
O139 C133 1.208 1_655 S
O140 Cd141 2.223 . S
O140 C148 1.315 . S
Cd141 O140 2.223 . S
Cd141 O144 2.297 . S
Cd141 O145 2.439 . S
Cd141 O151 2.240 . S
Cd142 O143 2.240 . S
Cd142 O150 2.223 . S
Cd142 O152 2.297 . S
Cd142 O153 2.439 . S
O143 Cd142 2.240 . S
O143 C148 1.279 . S
O144 Cd141 2.297 . S
O144 C146 1.247 . S
O145 Cd141 2.439 . S
O145 C146 1.208 . S
C146 O144 1.247 . S
C146 O145 1.208 . S
C147 O152 1.247 . S
C147 O153 1.208 . S
C148 O140 1.315 . S
C148 O143 1.279 . S
C149 O150 1.315 . S
C149 O151 1.279 . S
O150 Cd142 2.223 . S
O150 C149 1.315 . S
O151 Cd141 2.240 . S
O151 C149 1.279 . S
O152 Cd142 2.297 . S
O152 C147 1.247 . S
O153 Cd142 2.439 . S
O153 C147 1.208 . S
O154 Cd155 2.223 . S
O154 C162 1.315 . S
Cd155 O154 2.223 . S
Cd155 O158 2.297 . S
Cd155 O159 2.439 . S
Cd155 O165 2.240 . S
Cd156 O157 2.243 . S
Cd156 O164 2.224 . S
Cd156 O166 2.295 1_655 S
Cd156 O167 2.440 . S
O157 Cd156 2.243 . S
O157 C162 1.279 . S
O158 Cd155 2.297 . S
O158 C160 1.247 . S
O159 Cd155 2.439 . S
O159 C160 1.208 . S
C160 O158 1.247 . S
C160 O159 1.208 . S
C161 O166 1.247 . S
C161 O167 1.208 1_455 S
C162 O154 1.315 . S
C162 O157 1.279 . S
C163 O164 1.315 . S
C163 O165 1.279 . S
O164 Cd156 2.224 . S
O164 C163 1.315 . S
O165 Cd155 2.240 . S
O165 C163 1.279 . S
O166 Cd156 2.295 1_455 S
O166 C161 1.247 . S
O167 Cd156 2.440 . S
O167 C161 1.208 1_655 S
O168 Cd169 2.223 . S
O168 C176 1.315 . S
Cd169 O168 2.223 . S
Cd169 O172 2.297 . S
Cd169 O173 2.439 . S
Cd169 O179 2.240 . S
Cd170 O171 2.240 . S
Cd170 O178 2.223 . S
Cd170 O180 2.297 . S
Cd170 O181 2.439 . S
O171 Cd170 2.240 . S
O171 C176 1.279 . S
O172 Cd169 2.297 . S
O172 C174 1.247 . S
O173 Cd169 2.439 . S
O173 C174 1.208 . S
C174 O172 1.247 . S
C174 O173 1.208 . S
C175 O180 1.247 . S
C175 O181 1.208 . S
C176 O168 1.315 . S
C176 O171 1.279 . S
C177 O178 1.315 . S
C177 O179 1.279 . S
O178 Cd170 2.223 . S
O178 C177 1.315 . S
O179 Cd169 2.240 . S
O179 C177 1.279 . S
O180 Cd170 2.297 . S
O180 C175 1.247 . S
O181 Cd170 2.439 . S
O181 C175 1.208 . S
O182 Cd183 2.223 . S
O182 C190 1.315 . S
Cd183 O182 2.223 . S
Cd183 O186 2.297 . S
Cd183 O187 2.439 . S
Cd183 O193 2.240 . S
Cd184 O185 2.239 1_655 S
Cd184 O192 2.223 1_655 S
Cd184 O194 2.298 . S
Cd184 O195 2.438 1_655 S
O185 Cd184 2.239 1_455 S
O185 C190 1.279 . S
O186 Cd183 2.297 . S
O186 C188 1.247 . S
O187 Cd183 2.439 . S
O187 C188 1.208 . S
C188 O186 1.247 . S
C188 O187 1.208 . S
C189 O194 1.247 . S
C189 O195 1.208 1_655 S
C190 O182 1.315 . S
C190 O185 1.279 . S
C191 O192 1.315 . S
C191 O193 1.279 . S
O192 Cd184 2.223 1_455 S
O192 C191 1.315 . S
O193 Cd183 2.240 . S
O193 C191 1.279 . S
O194 Cd184 2.298 . S
O194 C189 1.247 . S
O195 Cd184 2.438 1_455 S
O195 C189 1.208 1_455 S
O196 Cd197 2.223 . S
O196 C204 1.315 . S
Cd197 O196 2.223 . S
Cd197 O200 2.297 . S
Cd197 O201 2.439 . S
Cd197 O207 2.240 . S
Cd198 O199 2.240 . S
Cd198 O206 2.223 . S
Cd198 O208 2.297 . S
Cd198 O209 2.439 . S
O199 Cd198 2.240 . S
O199 C204 1.279 . S
O200 Cd197 2.297 . S
O200 C202 1.247 . S
O201 Cd197 2.439 . S
O201 C202 1.208 . S
C202 O200 1.247 . S
C202 O201 1.208 . S
C203 O208 1.247 . S
C203 O209 1.208 . S
C204 O196 1.315 . S
C204 O199 1.279 . S
C205 O206 1.315 . S
C205 O207 1.279 . S
O206 Cd198 2.223 . S
O206 C205 1.315 . S
O207 Cd197 2.240 . S
O207 C205 1.279 . S
O208 Cd198 2.297 . S
O208 C203 1.247 . S
O209 Cd198 2.439 . S
O209 C203 1.208 . S
O210 Cd211 2.223 . S
O210 C218 1.315 . S
Cd211 O210 2.223 . S
Cd211 O214 2.297 . S
Cd211 O215 2.439 . S
Cd211 O221 2.240 . S
Cd212 O213 2.243 . S
Cd212 O220 2.224 . S
Cd212 O222 2.295 1_455 S
Cd212 O223 2.440 . S
O213 Cd212 2.243 . S
O213 C218 1.279 . S
O214 Cd211 2.297 . S
O214 C216 1.247 . S
O215 Cd211 2.439 . S
O215 C216 1.208 . S
C216 O214 1.247 . S
C216 O215 1.208 . S
C217 O222 1.247 . S
C217 O223 1.208 1_655 S
C218 O210 1.315 . S
C218 O213 1.279 . S
C219 O220 1.315 . S
C219 O221 1.279 . S
O220 Cd212 2.224 . S
O220 C219 1.315 . S
O221 Cd211 2.240 . S
O221 C219 1.279 . S
O222 Cd212 2.295 1_655 S
O222 C217 1.247 . S
O223 Cd212 2.440 . S
O223 C217 1.208 1_455 S
O224 Cd225 2.223 . S
O224 C232 1.315 . S
Cd225 O224 2.223 . S
Cd225 O228 2.297 1_655 S
Cd225 O229 2.439 . S
Cd225 O235 2.240 . S
Cd226 O227 2.240 . S
Cd226 O234 2.223 . S
Cd226 O236 2.297 . S
Cd226 O237 2.439 . S
O227 Cd226 2.240 . S
O227 C232 1.279 . S
O228 Cd225 2.297 1_455 S
O228 C230 1.247 1_455 S
O229 Cd225 2.439 . S
O229 C230 1.208 . S
C230 O228 1.247 1_655 S
C230 O229 1.208 . S
C231 O236 1.247 . S
C231 O237 1.208 . S
C232 O224 1.315 . S
C232 O227 1.279 . S
C233 O234 1.315 . S
C233 O235 1.279 . S
O234 Cd226 2.223 . S
O234 C233 1.315 . S
O235 Cd225 2.240 . S
O235 C233 1.279 . S
O236 Cd226 2.297 . S
O236 C231 1.247 . S
O237 Cd226 2.439 . S
O237 C231 1.208 . S
O238 Cd239 2.223 . S
O238 C246 1.315 . S
Cd239 O238 2.223 . S
Cd239 O242 2.297 . S
Cd239 O243 2.439 . S
Cd239 O249 2.240 . S
Cd240 O241 2.240 . S
Cd240 O248 2.223 . S
Cd240 O250 2.297 . S
Cd240 O251 2.439 . S
O241 Cd240 2.240 . S
O241 C246 1.279 . S
O242 Cd239 2.297 . S
O242 C244 1.247 . S
O243 Cd239 2.439 . S
O243 C244 1.208 . S
C244 O242 1.247 . S
C244 O243 1.208 . S
C245 O250 1.247 . S
C245 O251 1.208 . S
C246 O238 1.315 . S
C246 O241 1.279 . S
C247 O248 1.315 . S
C247 O249 1.279 . S
O248 Cd240 2.223 . S
O248 C247 1.315 . S
O249 Cd239 2.240 . S
O249 C247 1.279 . S
O250 Cd240 2.297 . S
O250 C245 1.247 . S
O251 Cd240 2.439 . S
O251 C245 1.208 . S
O252 Cd253 2.223 . S
O252 C260 1.315 . S
Cd253 O252 2.223 . S
Cd253 O256 2.297 1_655 S
Cd253 O257 2.439 . S
Cd253 O263 2.240 . S
Cd254 O255 2.240 . S
Cd254 O262 2.223 . S
Cd254 O264 2.297 . S
Cd254 O265 2.439 . S
O255 Cd254 2.240 . S
O255 C260 1.279 . S
O256 Cd253 2.297 1_455 S
O256 C258 1.247 1_455 S
O257 Cd253 2.439 . S
O257 C258 1.208 . S
C258 O256 1.247 1_655 S
C258 O257 1.208 . S
C259 O264 1.247 . S
C259 O265 1.208 . S
C260 O252 1.315 . S
C260 O255 1.279 . S
C261 O262 1.315 . S
C261 O263 1.279 . S
O262 Cd254 2.223 . S
O262 C261 1.315 . S
O263 Cd253 2.240 . S
O263 C261 1.279 . S
O264 Cd254 2.297 . S
O264 C259 1.247 . S
O265 Cd254 2.439 . S
O265 C259 1.208 . S
O266 Cd267 2.223 . S
O266 C274 1.315 . S
Cd267 O266 2.223 . S
Cd267 O270 2.297 . S
Cd267 O271 2.439 . S
Cd267 O277 2.240 . S
Cd268 O269 2.240 . S
Cd268 O276 2.223 . S
Cd268 O278 2.297 . S
Cd268 O279 2.439 . S
O269 Cd268 2.240 . S
O269 C274 1.279 . S
O270 Cd267 2.297 . S
O270 C272 1.247 . S
O271 Cd267 2.439 . S
O271 C272 1.208 . S
C272 O270 1.247 . S
C272 O271 1.208 . S
C273 O278 1.247 . S
C273 O279 1.208 . S
C274 O266 1.315 . S
C274 O269 1.279 . S
C275 O276 1.315 . S
C275 O277 1.279 . S
O276 Cd268 2.223 . S
O276 C275 1.315 . S
O277 Cd267 2.240 . S
O277 C275 1.279 . S
O278 Cd268 2.297 . S
O278 C273 1.247 . S
O279 Cd268 2.439 . S
O279 C273 1.208 . S
O280 Cd281 2.223 . S
O280 C288 1.315 . S
Cd281 O280 2.223 . S
Cd281 O284 2.297 1_455 S
Cd281 O285 2.439 . S
Cd281 O291 2.240 . S
Cd282 O283 2.240 . S
Cd282 O290 2.223 . S
Cd282 O292 2.297 . S
Cd282 O293 2.439 . S
O283 Cd282 2.240 . S
O283 C288 1.279 . S
O284 Cd281 2.297 1_655 S
O284 C286 1.247 1_655 S
O285 Cd281 2.439 . S
O285 C286 1.208 . S
C286 O284 1.247 1_455 S
C286 O285 1.208 . S
C287 O292 1.247 . S
C287 O293 1.208 . S
C288 O280 1.315 . S
C288 O283 1.279 . S
C289 O290 1.315 . S
C289 O291 1.279 . S
O290 Cd282 2.223 . S
O290 C289 1.315 . S
O291 Cd281 2.240 . S
O291 C289 1.279 . S
O292 Cd282 2.297 . S
O292 C287 1.247 . S
O293 Cd282 2.439 . S
O293 C287 1.208 . S
O294 Cd295 2.223 . S
O294 C302 1.315 . S
Cd295 O294 2.223 . S
Cd295 O298 2.297 . S
Cd295 O299 2.439 . S
Cd295 O305 2.240 . S
Cd296 O297 2.240 . S
Cd296 O304 2.223 . S
Cd296 O306 2.297 . S
Cd296 O307 2.439 . S
O297 Cd296 2.240 . S
O297 C302 1.279 . S
O298 Cd295 2.297 . S
O298 C300 1.247 . S
O299 Cd295 2.439 . S
O299 C300 1.208 . S
C300 O298 1.247 . S
C300 O299 1.208 . S
C301 O306 1.247 . S
C301 O307 1.208 . S
C302 O294 1.315 . S
C302 O297 1.279 . S
C303 O304 1.315 . S
C303 O305 1.279 . S
O304 Cd296 2.223 . S
O304 C303 1.315 . S
O305 Cd295 2.240 . S
O305 C303 1.279 . S
O306 Cd296 2.297 . S
O306 C301 1.247 . S
O307 Cd296 2.439 . S
O307 C301 1.208 . S
O308 Cd309 2.223 . S
O308 C316 1.315 . S
Cd309 O308 2.223 . S
Cd309 O312 2.297 1_455 S
Cd309 O313 2.439 . S
Cd309 O319 2.240 . S
Cd310 O311 2.240 . S
Cd310 O318 2.223 . S
Cd310 O320 2.297 . S
Cd310 O321 2.439 . S
O311 Cd310 2.240 . S
O311 C316 1.279 . S
O312 Cd309 2.297 1_655 S
O312 C314 1.247 1_655 S
O313 Cd309 2.439 . S
O313 C314 1.208 . S
C314 O312 1.247 1_455 S
C314 O313 1.208 . S
C315 O320 1.247 . S
C315 O321 1.208 . S
C316 O308 1.315 . S
C316 O311 1.279 . S
C317 O318 1.315 . S
C317 O319 1.279 . S
O318 Cd310 2.223 . S
O318 C317 1.315 . S
O319 Cd309 2.240 . S
O319 C317 1.279 . S
O320 Cd310 2.297 . S
O320 C315 1.247 . S
O321 Cd310 2.439 . S
O321 C315 1.208 . S
O322 Cd323 2.223 . S
O322 C330 1.315 . S
Cd323 O322 2.223 . S
Cd323 O326 2.297 . S
Cd323 O327 2.439 . S
Cd323 O333 2.240 . S
Cd324 O325 2.240 . S
Cd324 O332 2.223 . S
Cd324 O334 2.297 . S
Cd324 O335 2.439 . S
O325 Cd324 2.240 . S
O325 C330 1.279 . S
O326 Cd323 2.297 . S
O326 C328 1.247 . S
O327 Cd323 2.439 . S
O327 C328 1.208 . S
C328 O326 1.247 . S
C328 O327 1.208 . S
C329 O334 1.247 . S
C329 O335 1.208 . S
C330 O322 1.315 . S
C330 O325 1.279 . S
C331 O332 1.315 . S
C331 O333 1.279 . S
O332 Cd324 2.223 . S
O332 C331 1.315 . S
O333 Cd323 2.240 . S
O333 C331 1.279 . S
O334 Cd324 2.297 . S
O334 C329 1.247 . S
O335 Cd324 2.439 . S
O335 C329 1.208 . S
O336 Cd337 2.223 . S
O336 C344 1.315 . S
Cd337 O336 2.223 . S
Cd337 O340 2.297 1_655 S
Cd337 O341 2.439 1_556 S
Cd337 O347 2.240 1_556 S
Cd338 O339 2.240 1_554 S
Cd338 O346 2.223 1_554 S
Cd338 O348 2.297 . S
Cd338 O349 2.439 . S
O339 Cd338 2.240 1_556 S
O339 C344 1.279 . S
O340 Cd337 2.297 1_455 S
O340 C342 1.224 1_456 S
O341 Cd337 2.439 1_554 S
O341 C342 1.228 . S
C342 O340 1.224 1_654 S
C342 O341 1.228 . S
C343 O348 1.247 . S
C343 O349 1.208 . S
C344 O336 1.315 . S
C344 O339 1.279 . S
C345 O346 1.315 1_554 S
C345 O347 1.279 . S
O346 Cd338 2.223 1_556 S
O346 C345 1.315 1_556 S
O347 Cd337 2.240 1_554 S
O347 C345 1.279 . S
O348 Cd338 2.297 . S
O348 C343 1.247 . S
O349 Cd338 2.439 . S
O349 C343 1.208 . S
O350 Cd351 2.223 . S
O350 C358 1.315 . S
Cd351 O350 2.223 . S
Cd351 O354 2.297 . S
Cd351 O355 2.439 1_556 S
Cd351 O361 2.240 1_556 S
Cd352 O353 2.240 1_554 S
Cd352 O360 2.223 1_554 S
Cd352 O362 2.297 . S
Cd352 O363 2.439 . S
O353 Cd352 2.240 1_556 S
O353 C358 1.279 . S
O354 Cd351 2.297 . S
O354 C356 1.223 1_556 S
O355 Cd351 2.439 1_554 S
O355 C356 1.229 . S
C356 O354 1.223 1_554 S
C356 O355 1.229 . S
C357 O362 1.247 . S
C357 O363 1.208 . S
C358 O350 1.315 . S
C358 O353 1.279 . S
C359 O360 1.315 1_554 S
C359 O361 1.279 . S
O360 Cd352 2.223 1_556 S
O360 C359 1.315 1_556 S
O361 Cd351 2.240 1_554 S
O361 C359 1.279 . S
O362 Cd352 2.297 . S
O362 C357 1.247 . S
O363 Cd352 2.439 . S
O363 C357 1.208 . S
O364 Cd365 2.223 . S
O364 C372 1.315 . S
Cd365 O364 2.223 . S
Cd365 O368 2.297 1_655 S
Cd365 O369 2.439 . S
Cd365 O375 2.240 . S
Cd366 O367 2.240 . S
Cd366 O374 2.223 . S
Cd366 O376 2.297 . S
Cd366 O377 2.439 . S
O367 Cd366 2.240 . S
O367 C372 1.279 . S
O368 Cd365 2.297 1_455 S
O368 C370 1.247 1_455 S
O369 Cd365 2.439 . S
O369 C370 1.208 . S
C370 O368 1.247 1_655 S
C370 O369 1.208 . S
C371 O376 1.247 . S
C371 O377 1.208 . S
C372 O364 1.315 . S
C372 O367 1.279 . S
C373 O374 1.315 . S
C373 O375 1.279 . S
O374 Cd366 2.223 . S
O374 C373 1.315 . S
O375 Cd365 2.240 . S
O375 C373 1.279 . S
O376 Cd366 2.297 . S
O376 C371 1.247 . S
O377 Cd366 2.439 . S
O377 C371 1.208 . S
O378 Cd379 2.223 . S
O378 C386 1.315 . S
Cd379 O378 2.223 . S
Cd379 O382 2.297 . S
Cd379 O383 2.439 . S
Cd379 O389 2.240 . S
Cd380 O381 2.240 . S
Cd380 O388 2.223 . S
Cd380 O390 2.297 . S
Cd380 O391 2.439 . S
O381 Cd380 2.240 . S
O381 C386 1.279 . S
O382 Cd379 2.297 . S
O382 C384 1.247 . S
O383 Cd379 2.439 . S
O383 C384 1.208 . S
C384 O382 1.247 . S
C384 O383 1.208 . S
C385 O390 1.247 . S
C385 O391 1.208 . S
C386 O378 1.315 . S
C386 O381 1.279 . S
C387 O388 1.315 . S
C387 O389 1.279 . S
O388 Cd380 2.223 . S
O388 C387 1.315 . S
O389 Cd379 2.240 . S
O389 C387 1.279 . S
O390 Cd380 2.297 . S
O390 C385 1.247 . S
O391 Cd380 2.439 . S
O391 C385 1.208 . S
O392 Cd393 2.223 . S
O392 C400 1.315 . S
Cd393 O392 2.223 . S
Cd393 O396 2.297 1_455 S
Cd393 O397 2.439 1_554 S
Cd393 O403 2.240 1_554 S
Cd394 O395 2.240 1_556 S
Cd394 O402 2.223 1_556 S
Cd394 O404 2.297 . S
Cd394 O405 2.439 . S
O395 Cd394 2.240 1_554 S
O395 C400 1.279 . S
O396 Cd393 2.297 1_655 S
O396 C398 1.224 1_654 S
O397 Cd393 2.439 1_556 S
O397 C398 1.228 . S
C398 O396 1.224 1_456 S
C398 O397 1.228 . S
C399 O404 1.247 . S
C399 O405 1.208 . S
C400 O392 1.315 . S
C400 O395 1.279 . S
C401 O402 1.315 1_556 S
C401 O403 1.279 . S
O402 Cd394 2.223 1_554 S
O402 C401 1.315 1_554 S
O403 Cd393 2.240 1_556 S
O403 C401 1.279 . S
O404 Cd394 2.297 . S
O404 C399 1.247 . S
O405 Cd394 2.439 . S
O405 C399 1.208 . S
O406 Cd407 2.223 . S
O406 C414 1.315 . S
Cd407 O406 2.223 . S
Cd407 O410 2.297 . S
Cd407 O411 2.439 1_554 S
Cd407 O417 2.240 1_554 S
Cd408 O409 2.240 1_556 S
Cd408 O416 2.223 1_556 S
Cd408 O418 2.297 . S
Cd408 O419 2.439 . S
O409 Cd408 2.240 1_554 S
O409 C414 1.279 . S
O410 Cd407 2.297 . S
O410 C412 1.223 1_554 S
O411 Cd407 2.439 1_556 S
O411 C412 1.229 . S
C412 O410 1.223 1_556 S
C412 O411 1.229 . S
C413 O418 1.247 . S
C413 O419 1.208 . S
C414 O406 1.315 . S
C414 O409 1.279 . S
C415 O416 1.315 1_556 S
C415 O417 1.279 . S
O416 Cd408 2.223 1_554 S
O416 C415 1.315 1_554 S
O417 Cd407 2.240 1_556 S
O417 C415 1.279 . S
O418 Cd408 2.297 . S
O418 C413 1.247 . S
O419 Cd408 2.439 . S
O419 C413 1.208 . S
O420 Cd421 2.223 . S
O420 C428 1.315 . S
Cd421 O420 2.223 . S
Cd421 O424 2.297 1_455 S
Cd421 O425 2.439 . S
Cd421 O431 2.240 . S
Cd422 O423 2.240 . S
Cd422 O430 2.223 . S
Cd422 O432 2.297 . S
Cd422 O433 2.439 . S
O423 Cd422 2.240 . S
O423 C428 1.279 . S
O424 Cd421 2.297 1_655 S
O424 C426 1.247 1_655 S
O425 Cd421 2.439 . S
O425 C426 1.208 . S
C426 O424 1.247 1_455 S
C426 O425 1.208 . S
C427 O432 1.247 . S
C427 O433 1.208 . S
C428 O420 1.315 . S
C428 O423 1.279 . S
C429 O430 1.315 . S
C429 O431 1.279 . S
O430 Cd422 2.223 . S
O430 C429 1.315 . S
O431 Cd421 2.240 . S
O431 C429 1.279 . S
O432 Cd422 2.297 . S
O432 C427 1.247 . S
O433 Cd422 2.439 . S
O433 C427 1.208 . S
O434 Cd435 2.223 . S
O434 C442 1.315 . S
Cd435 O434 2.223 . S
Cd435 O438 2.297 . S
Cd435 O439 2.439 . S
Cd435 O445 2.240 . S
Cd436 O437 2.240 . S
Cd436 O444 2.223 . S
Cd436 O446 2.297 . S
Cd436 O447 2.439 . S
O437 Cd436 2.240 . S
O437 C442 1.279 . S
O438 Cd435 2.297 . S
O438 C440 1.247 . S
O439 Cd435 2.439 . S
O439 C440 1.208 . S
C440 O438 1.247 . S
C440 O439 1.208 . S
C441 O446 1.247 . S
C441 O447 1.208 . S
C442 O434 1.315 . S
C442 O437 1.279 . S
C443 O444 1.315 . S
C443 O445 1.279 . S
O444 Cd436 2.223 . S
O444 C443 1.315 . S
O445 Cd435 2.240 . S
O445 C443 1.279 . S
O446 Cd436 2.297 . S
O446 C441 1.247 . S
O447 Cd436 2.439 . S
O447 C441 1.208 . S
H448 C456 0.929 . S
H449 C458 0.930 . S
H450 C460 0.930 . S
H451 C463 0.929 . S
H452 C466 0.930 . S
H453 C468 0.960 1_655 S
H454 C468 0.960 . S
H455 C468 0.960 . S
C456 H448 0.929 . S
C456 C457 1.377 . S
C456 C458 1.384 . S
C457 C456 1.377 . S
C457 C463 1.390 . S
C458 H449 0.930 . S
C458 C456 1.384 . S
C458 C459 1.372 . S
C459 C458 1.372 . S
C459 C460 1.400 . S
C459 C464 1.490 . S
C460 H450 0.930 . S
C460 C459 1.400 . S
C460 C463 1.386 . S
H461 C477 0.930 . S
H462 C478 0.931 . S
C463 H451 0.929 . S
C463 C457 1.390 . S
C463 C460 1.386 . S
C464 C459 1.490 . S
C464 C466 1.395 . S
C464 C467 1.403 . S
H465 C471 0.930 . S
C466 H452 0.930 . S
C466 C464 1.395 . S
C466 C469 1.403 . S
C467 C464 1.403 . S
C467 C468 1.524 . S
C467 C471 1.400 . S
C468 H453 0.960 1_455 S
C468 H454 0.960 . S
C468 H455 0.960 . S
C468 C467 1.524 . S
C469 C466 1.403 . S
C469 C470 1.392 . S
C469 C473 1.495 . S
C470 C469 1.392 . S
C470 C471 1.385 . S
C470 C472 1.478 . S
C471 H465 0.930 . S
C471 C467 1.400 . S
C471 C470 1.385 . S
C472 C470 1.478 . S
C472 C474 1.381 . S
C472 C478 1.383 . S
C473 C469 1.495 . S
C473 H479 0.959 . S
C473 H480 0.961 . S
C473 H481 0.960 . S
C474 C472 1.381 . S
C474 C475 1.394 . S
C474 H482 0.930 . S
C475 C474 1.394 . S
C475 C476 1.383 . S
C475 H483 0.929 . S
C476 C475 1.383 . S
C476 C477 1.377 . S
C477 H461 0.930 . S
C477 C476 1.377 . S
C477 C478 1.379 . S
C478 H462 0.931 . S
C478 C472 1.383 . S
C478 C477 1.379 . S
H479 C473 0.959 . S
H480 C473 0.961 . S
H481 C473 0.960 . S
H482 C474 0.930 . S
H483 C475 0.929 . S
H484 C492 0.929 . S
H485 C494 0.930 . S
H486 C496 0.930 . S
H487 C499 0.929 . S
H488 C502 0.930 . S
H489 C504 0.960 1_655 S
H490 C504 0.960 . S
H491 C504 0.960 . S
C492 H484 0.929 . S
C492 C493 1.377 . S
C492 C494 1.384 . S
C493 C492 1.377 . S
C493 C499 1.390 . S
C494 H485 0.930 . S
C494 C492 1.384 . S
C494 C495 1.372 . S
C495 C494 1.372 . S
C495 C496 1.400 . S
C495 C500 1.490 . S
C496 H486 0.930 . S
C496 C495 1.400 . S
C496 C499 1.386 . S
H497 C513 0.930 . S
H498 C514 0.931 . S
C499 H487 0.929 . S
C499 C493 1.390 . S
C499 C496 1.386 . S
C500 C495 1.490 . S
C500 C502 1.395 . S
C500 C503 1.403 . S
H501 C507 0.930 . S
C502 H488 0.930 . S
C502 C500 1.395 . S
C502 C505 1.403 . S
C503 C500 1.403 . S
C503 C504 1.524 . S
C503 C507 1.400 . S
C504 H489 0.960 1_455 S
C504 H490 0.960 . S
C504 H491 0.960 . S
C504 C503 1.524 . S
C505 C502 1.403 . S
C505 C506 1.392 . S
C505 C509 1.495 . S
C506 C505 1.392 . S
C506 C507 1.385 . S
C506 C508 1.478 . S
C507 H501 0.930 . S
C507 C503 1.400 . S
C507 C506 1.385 . S
C508 C506 1.478 . S
C508 C510 1.381 . S
C508 C514 1.383 . S
C509 C505 1.495 . S
C509 H515 0.959 . S
C509 H516 0.961 . S
C509 H517 0.960 . S
C510 C508 1.381 . S
C510 C511 1.394 . S
C510 H518 0.930 . S
C511 C510 1.394 . S
C511 C512 1.383 . S
C511 H519 0.929 . S
C512 C511 1.383 . S
C512 C513 1.377 . S
C513 H497 0.930 . S
C513 C512 1.377 . S
C513 C514 1.379 . S
C514 H498 0.931 . S
C514 C508 1.383 . S
C514 C513 1.379 . S
H515 C509 0.959 . S
H516 C509 0.961 . S
H517 C509 0.960 . S
H518 C510 0.930 . S
H519 C511 0.929 . S
H520 C528 0.929 . S
H521 C530 0.930 . S
H522 C532 0.930 . S
H523 C535 0.929 . S
H524 C538 0.930 . S
H525 C540 0.960 . S
H526 C540 0.960 . S
H527 C540 0.960 . S
C528 H520 0.929 . S
C528 C529 1.377 . S
C528 C530 1.384 . S
C529 C528 1.377 . S
C529 C535 1.390 . S
C530 H521 0.930 . S
C530 C528 1.384 . S
C530 C531 1.372 . S
C531 C530 1.372 . S
C531 C532 1.400 . S
C531 C536 1.490 . S
C532 H522 0.930 . S
C532 C531 1.400 . S
C532 C535 1.386 . S
H533 C549 0.930 . S
H534 C550 0.931 . S
C535 H523 0.929 . S
C535 C529 1.390 . S
C535 C532 1.386 . S
C536 C531 1.490 . S
C536 C538 1.395 . S
C536 C539 1.403 . S
H537 C543 0.930 . S
C538 H524 0.930 . S
C538 C536 1.395 . S
C538 C541 1.403 . S
C539 C536 1.403 . S
C539 C540 1.524 . S
C539 C543 1.400 . S
C540 H525 0.960 . S
C540 H526 0.960 . S
C540 H527 0.960 . S
C540 C539 1.524 . S
C541 C538 1.403 . S
C541 C542 1.392 . S
C541 C545 1.495 . S
C542 C541 1.392 . S
C542 C543 1.385 . S
C542 C544 1.478 . S
C543 H537 0.930 . S
C543 C539 1.400 . S
C543 C542 1.385 . S
C544 C542 1.478 . S
C544 C546 1.381 . S
C544 C550 1.383 . S
C545 C541 1.495 . S
C545 H551 0.959 . S
C545 H552 0.961 . S
C545 H553 0.960 . S
C546 C544 1.381 . S
C546 C547 1.394 . S
C546 H554 0.930 . S
C547 C546 1.394 . S
C547 C548 1.383 . S
C547 H555 0.929 . S
C548 C547 1.383 . S
C548 C549 1.377 . S
C549 H533 0.930 . S
C549 C548 1.377 . S
C549 C550 1.379 . S
C550 H534 0.931 . S
C550 C544 1.383 . S
C550 C549 1.379 . S
H551 C545 0.959 . S
H552 C545 0.961 . S
H553 C545 0.960 . S
H554 C546 0.930 . S
H555 C547 0.929 . S
H556 C564 0.929 . S
H557 C566 0.930 . S
H558 C568 0.930 . S
H559 C571 0.929 . S
H560 C574 0.930 . S
H561 C576 0.960 . S
H562 C576 0.960 . S
H563 C576 0.960 . S
C564 H556 0.929 . S
C564 C565 1.377 . S
C564 C566 1.384 . S
C565 C564 1.377 . S
C565 C571 1.390 . S
C566 H557 0.930 . S
C566 C564 1.384 . S
C566 C567 1.372 . S
C567 C566 1.372 . S
C567 C568 1.400 . S
C567 C572 1.490 . S
C568 H558 0.930 . S
C568 C567 1.400 . S
C568 C571 1.386 . S
H569 C585 0.930 . S
H570 C586 0.931 . S
C571 H559 0.929 . S
C571 C565 1.390 . S
C571 C568 1.386 . S
C572 C567 1.490 . S
C572 C574 1.395 . S
C572 C575 1.403 . S
H573 C579 0.930 . S
C574 H560 0.930 . S
C574 C572 1.395 . S
C574 C577 1.403 . S
C575 C572 1.403 . S
C575 C576 1.524 . S
C575 C579 1.400 . S
C576 H561 0.960 . S
C576 H562 0.960 . S
C576 H563 0.960 . S
C576 C575 1.524 . S
C577 C574 1.403 . S
C577 C578 1.392 . S
C577 C581 1.495 . S
C578 C577 1.392 . S
C578 C579 1.385 . S
C578 C580 1.478 . S
C579 H573 0.930 . S
C579 C575 1.400 . S
C579 C578 1.385 . S
C580 C578 1.478 . S
C580 C582 1.381 . S
C580 C586 1.383 . S
C581 C577 1.495 . S
C581 H587 0.959 . S
C581 H588 0.961 . S
C581 H589 0.960 . S
C582 C580 1.381 . S
C582 C583 1.394 . S
C582 H590 0.930 . S
C583 C582 1.394 . S
C583 C584 1.383 . S
C583 H591 0.929 1_655 S
C584 C583 1.383 . S
C584 C585 1.377 . S
C585 H569 0.930 . S
C585 C584 1.377 . S
C585 C586 1.379 . S
C586 H570 0.931 . S
C586 C580 1.383 . S
C586 C585 1.379 . S
H587 C581 0.959 . S
H588 C581 0.961 . S
H589 C581 0.960 . S
H590 C582 0.930 . S
H591 C583 0.929 1_455 S
H592 C600 0.929 . S
H593 C602 0.930 . S
H594 C604 0.930 . S
H595 C607 0.929 . S
H596 C610 0.930 . S
H597 C612 0.960 . S
H598 C612 0.960 . S
H599 C612 0.960 . S
C600 H592 0.929 . S
C600 C601 1.377 . S
C600 C602 1.384 . S
C601 C600 1.377 . S
C601 C607 1.390 . S
C602 H593 0.930 . S
C602 C600 1.384 . S
C602 C603 1.372 . S
C603 C602 1.372 . S
C603 C604 1.400 . S
C603 C608 1.490 . S
C604 H594 0.930 . S
C604 C603 1.400 . S
C604 C607 1.386 . S
H605 C621 0.930 . S
H606 C622 0.931 1_655 S
C607 H595 0.929 . S
C607 C601 1.390 . S
C607 C604 1.386 . S
C608 C603 1.490 . S
C608 C610 1.395 . S
C608 C611 1.403 . S
H609 C615 0.930 . S
C610 H596 0.930 . S
C610 C608 1.395 . S
C610 C613 1.403 . S
C611 C608 1.403 . S
C611 C612 1.524 . S
C611 C615 1.400 . S
C612 H597 0.960 . S
C612 H598 0.960 . S
C612 H599 0.960 . S
C612 C611 1.524 . S
C613 C610 1.403 . S
C613 C614 1.392 . S
C613 C617 1.495 . S
C614 C613 1.392 . S
C614 C615 1.385 . S
C614 C616 1.478 . S
C615 H609 0.930 . S
C615 C611 1.400 . S
C615 C614 1.385 . S
C616 C614 1.478 . S
C616 C618 1.381 . S
C616 C622 1.383 . S
C617 C613 1.495 . S
C617 H623 0.959 . S
C617 H624 0.961 . S
C617 H625 0.960 . S
C618 C616 1.381 . S
C618 C619 1.394 . S
C618 H626 0.930 . S
C619 C618 1.394 . S
C619 C620 1.383 . S
C619 H627 0.929 . S
C620 C619 1.383 . S
C620 C621 1.377 1_455 S
C621 H605 0.930 . S
C621 C620 1.377 1_655 S
C621 C622 1.379 1_655 S
C622 H606 0.931 1_455 S
C622 C616 1.383 . S
C622 C621 1.379 1_455 S
H623 C617 0.959 . S
H624 C617 0.961 . S
H625 C617 0.960 . S
H626 C618 0.930 . S
H627 C619 0.929 . S
H628 C636 0.929 . S
H629 C638 0.930 . S
H630 C640 0.930 . S
H631 C643 0.929 . S
H632 C646 0.930 . S
H633 C648 0.960 1_655 S
H634 C648 0.960 1_655 S
H635 C648 0.960 . S
C636 H628 0.929 . S
C636 C637 1.377 . S
C636 C638 1.384 . S
C637 C636 1.377 . S
C637 C643 1.390 . S
C638 H629 0.930 . S
C638 C636 1.384 . S
C638 C639 1.372 . S
C639 C638 1.372 . S
C639 C640 1.400 . S
C639 C644 1.490 . S
C640 H630 0.930 . S
C640 C639 1.400 . S
C640 C643 1.386 . S
H641 C657 0.930 . S
H642 C658 0.931 . S
C643 H631 0.929 . S
C643 C637 1.390 . S
C643 C640 1.386 . S
C644 C639 1.490 . S
C644 C646 1.395 . S
C644 C647 1.403 . S
H645 C651 0.930 . S
C646 H632 0.930 . S
C646 C644 1.395 . S
C646 C649 1.403 . S
C647 C644 1.403 . S
C647 C648 1.524 . S
C647 C651 1.400 . S
C648 H633 0.960 1_455 S
C648 H634 0.960 1_455 S
C648 H635 0.960 . S
C648 C647 1.524 . S
C649 C646 1.403 . S
C649 C650 1.392 . S
C649 C653 1.495 . S
C650 C649 1.392 . S
C650 C651 1.385 . S
C650 C652 1.478 . S
C651 H645 0.930 . S
C651 C647 1.400 . S
C651 C650 1.385 . S
C652 C650 1.478 . S
C652 C654 1.381 . S
C652 C658 1.383 . S
C653 C649 1.495 . S
C653 H659 0.959 . S
C653 H660 0.961 . S
C653 H661 0.960 . S
C654 C652 1.381 . S
C654 C655 1.394 . S
C654 H662 0.930 . S
C655 C654 1.394 . S
C655 C656 1.383 . S
C655 H663 0.929 . S
C656 C655 1.383 . S
C656 C657 1.377 . S
C657 H641 0.930 . S
C657 C656 1.377 . S
C657 C658 1.379 . S
C658 H642 0.931 . S
C658 C652 1.383 . S
C658 C657 1.379 . S
H659 C653 0.959 . S
H660 C653 0.961 . S
H661 C653 0.960 . S
H662 C654 0.930 . S
H663 C655 0.929 . S
H664 C672 0.929 . S
H665 C674 0.930 . S
H666 C676 0.930 . S
H667 C679 0.929 1_455 S
H668 C682 0.930 . S
H669 C684 0.960 . S
H670 C684 0.960 . S
H671 C684 0.960 . S
C672 H664 0.929 . S
C672 C673 1.377 . S
C672 C674 1.384 . S
C673 C672 1.377 . S
C673 C679 1.390 . S
C674 H665 0.930 . S
C674 C672 1.384 . S
C674 C675 1.372 . S
C675 C674 1.372 . S
C675 C676 1.400 . S
C675 C680 1.490 . S
C676 H666 0.930 . S
C676 C675 1.400 . S
C676 C679 1.386 . S
H677 C693 0.930 . S
H678 C694 0.931 . S
C679 H667 0.929 1_655 S
C679 C673 1.390 . S
C679 C676 1.386 . S
C680 C675 1.490 . S
C680 C682 1.395 . S
C680 C683 1.403 . S
H681 C687 0.930 . S
C682 H668 0.930 . S
C682 C680 1.395 . S
C682 C685 1.403 . S
C683 C680 1.403 . S
C683 C684 1.524 . S
C683 C687 1.400 . S
C684 H669 0.960 . S
C684 H670 0.960 . S
C684 H671 0.960 . S
C684 C683 1.524 . S
C685 C682 1.403 . S
C685 C686 1.392 . S
C685 C689 1.495 . S
C686 C685 1.392 . S
C686 C687 1.385 . S
C686 C688 1.478 . S
C687 H681 0.930 . S
C687 C683 1.400 . S
C687 C686 1.385 . S
C688 C686 1.478 . S
C688 C690 1.381 . S
C688 C694 1.383 . S
C689 C685 1.495 . S
C689 H695 0.959 . S
C689 H696 0.961 . S
C689 H697 0.960 . S
C690 C688 1.381 . S
C690 C691 1.394 . S
C690 H698 0.930 . S
C691 C690 1.394 . S
C691 C692 1.383 . S
C691 H699 0.929 . S
C692 C691 1.383 . S
C692 C693 1.377 . S
C693 H677 0.930 . S
C693 C692 1.377 . S
C693 C694 1.379 . S
C694 H678 0.931 . S
C694 C688 1.383 . S
C694 C693 1.379 . S
H695 C689 0.959 . S
H696 C689 0.961 . S
H697 C689 0.960 . S
H698 C690 0.930 . S
H699 C691 0.929 . S
H700 C708 0.929 . S
H701 C710 0.930 . S
H702 C712 0.930 . S
H703 C715 0.929 . S
H704 C718 0.930 . S
H705 C720 0.960 . S
H706 C720 0.960 . S
H707 C720 0.960 . S
C708 H700 0.929 . S
C708 C709 1.377 . S
C708 C710 1.384 . S
C709 C708 1.377 . S
C709 C715 1.390 . S
C710 H701 0.930 . S
C710 C708 1.384 . S
C710 C711 1.372 . S
C711 C710 1.372 . S
C711 C712 1.400 . S
C711 C716 1.490 . S
C712 H702 0.930 . S
C712 C711 1.400 . S
C712 C715 1.386 . S
H713 C729 0.930 . S
H714 C730 0.931 1_455 S
C715 H703 0.929 . S
C715 C709 1.390 . S
C715 C712 1.386 . S
C716 C711 1.490 . S
C716 C718 1.395 . S
C716 C719 1.403 . S
H717 C723 0.930 . S
C718 H704 0.930 . S
C718 C716 1.395 . S
C718 C721 1.403 . S
C719 C716 1.403 . S
C719 C720 1.524 . S
C719 C723 1.400 . S
C720 H705 0.960 . S
C720 H706 0.960 . S
C720 H707 0.960 . S
C720 C719 1.524 . S
C721 C718 1.403 . S
C721 C722 1.392 . S
C721 C725 1.495 . S
C722 C721 1.392 . S
C722 C723 1.385 . S
C722 C724 1.478 . S
C723 H717 0.930 . S
C723 C719 1.400 . S
C723 C722 1.385 . S
C724 C722 1.478 . S
C724 C726 1.381 . S
C724 C730 1.383 . S
C725 C721 1.495 . S
C725 H731 0.959 . S
C725 H732 0.961 . S
C725 H733 0.960 . S
C726 C724 1.381 . S
C726 C727 1.394 . S
C726 H734 0.930 . S
C727 C726 1.394 . S
C727 C728 1.383 . S
C727 H735 0.929 . S
C728 C727 1.383 . S
C728 C729 1.377 1_655 S
C729 H713 0.930 . S
C729 C728 1.377 1_455 S
C729 C730 1.379 1_455 S
C730 H714 0.931 1_655 S
C730 C724 1.383 . S
C730 C729 1.379 1_655 S
H731 C725 0.959 . S
H732 C725 0.961 . S
H733 C725 0.960 . S
H734 C726 0.930 . S
H735 C727 0.929 . S
H736 C744 0.929 . S
H737 C746 0.930 . S
H738 C748 0.930 . S
H739 C751 0.929 . S
H740 C754 0.930 . S
H741 C756 0.960 . S
H742 C756 0.960 . S
H743 C756 0.960 . S
C744 H736 0.929 . S
C744 C745 1.377 . S
C744 C746 1.384 . S
C745 C744 1.377 . S
C745 C751 1.390 . S
C746 H737 0.930 . S
C746 C744 1.384 . S
C746 C747 1.372 . S
C747 C746 1.372 . S
C747 C748 1.400 . S
C747 C752 1.490 . S
C748 H738 0.930 . S
C748 C747 1.400 . S
C748 C751 1.386 . S
H749 C765 0.930 . S
H750 C766 0.931 . S
C751 H739 0.929 . S
C751 C745 1.390 . S
C751 C748 1.386 . S
C752 C747 1.490 . S
C752 C754 1.395 . S
C752 C755 1.403 . S
H753 C759 0.930 . S
C754 H740 0.930 . S
C754 C752 1.395 . S
C754 C757 1.403 . S
C755 C752 1.403 . S
C755 C756 1.524 . S
C755 C759 1.400 . S
C756 H741 0.960 . S
C756 H742 0.960 . S
C756 H743 0.960 . S
C756 C755 1.524 . S
C757 C754 1.403 . S
C757 C758 1.392 . S
C757 C761 1.495 . S
C758 C757 1.392 . S
C758 C759 1.385 . S
C758 C760 1.478 . S
C759 H753 0.930 . S
C759 C755 1.400 . S
C759 C758 1.385 . S
C760 C758 1.478 . S
C760 C762 1.381 . S
C760 C766 1.383 . S
C761 C757 1.495 . S
C761 H767 0.959 . S
C761 H768 0.961 . S
C761 H769 0.960 . S
C762 C760 1.381 . S
C762 C763 1.394 . S
C762 H770 0.930 . S
C763 C762 1.394 . S
C763 C764 1.383 . S
C763 H771 0.929 . S
C764 C763 1.383 . S
C764 C765 1.377 . S
C765 H749 0.930 . S
C765 C764 1.377 . S
C765 C766 1.379 . S
C766 H750 0.931 . S
C766 C760 1.383 . S
C766 C765 1.379 . S
H767 C761 0.959 . S
H768 C761 0.961 . S
H769 C761 0.960 . S
H770 C762 0.930 . S
H771 C763 0.929 . S
H772 C780 0.929 . S
H773 C782 0.930 . S
H774 C784 0.930 . S
H775 C787 0.929 . S
H776 C790 0.930 . S
H777 C792 0.960 . S
H778 C792 0.960 . S
H779 C792 0.960 . S
C780 H772 0.929 . S
C780 C781 1.377 . S
C780 C782 1.384 . S
C781 C780 1.377 . S
C781 C787 1.390 . S
C782 H773 0.930 . S
C782 C780 1.384 . S
C782 C783 1.372 . S
C783 C782 1.372 . S
C783 C784 1.400 . S
C783 C788 1.490 . S
C784 H774 0.930 . S
C784 C783 1.400 . S
C784 C787 1.386 . S
H785 C801 0.930 . S
H786 C802 0.931 . S
C787 H775 0.929 . S
C787 C781 1.390 . S
C787 C784 1.386 . S
C788 C783 1.490 . S
C788 C790 1.395 . S
C788 C791 1.403 . S
H789 C795 0.930 . S
C790 H776 0.930 . S
C790 C788 1.395 . S
C790 C793 1.403 . S
C791 C788 1.403 . S
C791 C792 1.524 . S
C791 C795 1.400 . S
C792 H777 0.960 . S
C792 H778 0.960 . S
C792 H779 0.960 . S
C792 C791 1.524 . S
C793 C790 1.403 . S
C793 C794 1.392 . S
C793 C797 1.495 . S
C794 C793 1.392 . S
C794 C795 1.385 . S
C794 C796 1.478 . S
C795 H789 0.930 . S
C795 C791 1.400 . S
C795 C794 1.385 . S
C796 C794 1.478 . S
C796 C798 1.381 . S
C796 C802 1.383 . S
C797 C793 1.495 . S
C797 H803 0.959 . S
C797 H804 0.961 . S
C797 H805 0.960 . S
C798 C796 1.381 . S
C798 C799 1.394 . S
C798 H806 0.930 . S
C799 C798 1.394 . S
C799 C800 1.383 . S
C799 H807 0.929 . S
C800 C799 1.383 . S
C800 C801 1.377 . S
C801 H785 0.930 . S
C801 C800 1.377 . S
C801 C802 1.379 . S
C802 H786 0.931 . S
C802 C796 1.383 . S
C802 C801 1.379 . S
H803 C797 0.959 . S
H804 C797 0.961 . S
H805 C797 0.960 . S
H806 C798 0.930 . S
H807 C799 0.929 . S
H808 C816 0.929 . S
H809 C818 0.930 . S
H810 C820 0.930 . S
H811 C823 0.929 . S
H812 C826 0.930 . S
H813 C828 0.960 . S
H814 C828 0.960 . S
H815 C828 0.960 . S
C816 H808 0.929 . S
C816 C817 1.377 . S
C816 C818 1.384 . S
C817 C816 1.377 . S
C817 C823 1.390 . S
C818 H809 0.930 . S
C818 C816 1.384 . S
C818 C819 1.372 . S
C819 C818 1.372 . S
C819 C820 1.400 . S
C819 C824 1.490 . S
C820 H810 0.930 . S
C820 C819 1.400 . S
C820 C823 1.386 . S
H821 C837 0.930 . S
H822 C838 0.931 . S
C823 H811 0.929 . S
C823 C817 1.390 . S
C823 C820 1.386 . S
C824 C819 1.490 . S
C824 C826 1.395 . S
C824 C827 1.403 . S
H825 C831 0.930 . S
C826 H812 0.930 . S
C826 C824 1.395 . S
C826 C829 1.403 . S
C827 C824 1.403 . S
C827 C828 1.524 . S
C827 C831 1.400 . S
C828 H813 0.960 . S
C828 H814 0.960 . S
C828 H815 0.960 . S
C828 C827 1.524 . S
C829 C826 1.403 . S
C829 C830 1.392 . S
C829 C833 1.495 . S
C830 C829 1.392 . S
C830 C831 1.385 . S
C830 C832 1.478 . S
C831 H825 0.930 . S
C831 C827 1.400 . S
C831 C830 1.385 . S
C832 C830 1.478 . S
C832 C834 1.381 . S
C832 C838 1.383 . S
C833 C829 1.495 . S
C833 H839 0.959 . S
C833 H840 0.961 . S
C833 H841 0.960 . S
C834 C832 1.381 . S
C834 C835 1.394 . S
C834 H842 0.930 . S
C835 C834 1.394 . S
C835 C836 1.383 . S
C835 H843 0.929 . S
C836 C835 1.383 . S
C836 C837 1.377 . S
C837 H821 0.930 . S
C837 C836 1.377 . S
C837 C838 1.379 . S
C838 H822 0.931 . S
C838 C832 1.383 . S
C838 C837 1.379 . S
H839 C833 0.959 . S
H840 C833 0.961 . S
H841 C833 0.960 . S
H842 C834 0.930 . S
H843 C835 0.929 . S
H844 C852 0.929 . S
H845 C854 0.930 . S
H846 C856 0.930 . S
H847 C859 0.929 . S
H848 C862 0.930 . S
H849 C864 0.960 . S
H850 C864 0.960 . S
H851 C864 0.960 . S
C852 H844 0.929 . S
C852 C853 1.377 . S
C852 C854 1.384 . S
C853 C852 1.377 . S
C853 C859 1.390 . S
C854 H845 0.930 . S
C854 C852 1.384 . S
C854 C855 1.372 . S
C855 C854 1.372 . S
C855 C856 1.400 . S
C855 C860 1.490 . S
C856 H846 0.930 . S
C856 C855 1.400 . S
C856 C859 1.386 . S
H857 C873 0.930 . S
H858 C874 0.931 . S
C859 H847 0.929 . S
C859 C853 1.390 . S
C859 C856 1.386 . S
C860 C855 1.490 . S
C860 C862 1.395 . S
C860 C863 1.403 . S
H861 C867 0.930 . S
C862 H848 0.930 . S
C862 C860 1.395 . S
C862 C865 1.403 . S
C863 C860 1.403 . S
C863 C864 1.524 . S
C863 C867 1.400 . S
C864 H849 0.960 . S
C864 H850 0.960 . S
C864 H851 0.960 . S
C864 C863 1.524 . S
C865 C862 1.403 . S
C865 C866 1.392 . S
C865 C869 1.495 . S
C866 C865 1.392 . S
C866 C867 1.385 . S
C866 C868 1.478 . S
C867 H861 0.930 . S
C867 C863 1.400 . S
C867 C866 1.385 . S
C868 C866 1.478 . S
C868 C870 1.381 . S
C868 C874 1.383 . S
C869 C865 1.495 . S
C869 H875 0.959 . S
C869 H876 0.961 . S
C869 H877 0.960 . S
C870 C868 1.381 . S
C870 C871 1.394 . S
C870 H878 0.930 . S
C871 C870 1.394 . S
C871 C872 1.383 . S
C871 H879 0.929 . S
C872 C871 1.383 . S
C872 C873 1.377 . S
C873 H857 0.930 . S
C873 C872 1.377 . S
C873 C874 1.379 . S
C874 H858 0.931 . S
C874 C868 1.383 . S
C874 C873 1.379 . S
H875 C869 0.959 . S
H876 C869 0.961 . S
H877 C869 0.960 . S
H878 C870 0.930 . S
H879 C871 0.929 . S
H880 C888 0.929 . S
H881 C890 0.930 . S
H882 C892 0.930 . S
H883 C895 0.929 . S
H884 C898 0.930 . S
H885 C900 0.960 . S
H886 C900 0.960 . S
H887 C900 0.960 . S
C888 H880 0.929 . S
C888 C889 1.377 . S
C888 C890 1.384 . S
C889 C888 1.377 . S
C889 C895 1.390 . S
C890 H881 0.930 . S
C890 C888 1.384 . S
C890 C891 1.372 . S
C891 C890 1.372 . S
C891 C892 1.400 . S
C891 C896 1.490 . S
C892 H882 0.930 . S
C892 C891 1.400 . S
C892 C895 1.386 . S
H893 C909 0.930 . S
H894 C910 0.931 . S
C895 H883 0.929 . S
C895 C889 1.390 . S
C895 C892 1.386 . S
C896 C891 1.490 . S
C896 C898 1.395 . S
C896 C899 1.403 . S
H897 C903 0.930 . S
C898 H884 0.930 . S
C898 C896 1.395 . S
C898 C901 1.403 . S
C899 C896 1.403 . S
C899 C900 1.524 . S
C899 C903 1.400 . S
C900 H885 0.960 . S
C900 H886 0.960 . S
C900 H887 0.960 . S
C900 C899 1.524 . S
C901 C898 1.403 . S
C901 C902 1.392 . S
C901 C905 1.495 . S
C902 C901 1.392 . S
C902 C903 1.385 . S
C902 C904 1.478 . S
C903 H897 0.930 . S
C903 C899 1.400 . S
C903 C902 1.385 . S
C904 C902 1.478 . S
C904 C906 1.381 . S
C904 C910 1.383 . S
C905 C901 1.495 . S
C905 H911 0.959 . S
C905 H912 0.961 . S
C905 H913 0.960 . S
C906 C904 1.381 . S
C906 C907 1.394 . S
C906 H914 0.930 . S
C907 C906 1.394 . S
C907 C908 1.383 . S
C907 H915 0.929 . S
C908 C907 1.383 . S
C908 C909 1.377 . S
C909 H893 0.930 . S
C909 C908 1.377 . S
C909 C910 1.379 . S
C910 H894 0.931 . S
C910 C904 1.383 . S
C910 C909 1.379 . S
H911 C905 0.959 . S
H912 C905 0.961 . S
H913 C905 0.960 . S
H914 C906 0.930 . S
H915 C907 0.929 . S
H916 C924 0.929 . S
H917 C926 0.930 . S
H918 C928 0.930 . S
H919 C931 0.929 . S
H920 C934 0.930 . S
H921 C936 0.960 . S
H922 C936 0.960 . S
H923 C936 0.960 . S
C924 H916 0.929 . S
C924 C925 1.377 . S
C924 C926 1.384 . S
C925 C924 1.377 . S
C925 C931 1.390 . S
C926 H917 0.930 . S
C926 C924 1.384 . S
C926 C927 1.372 . S
C927 C926 1.372 . S
C927 C928 1.400 . S
C927 C932 1.490 . S
C928 H918 0.930 . S
C928 C927 1.400 . S
C928 C931 1.386 . S
H929 C945 0.930 . S
H930 C946 0.931 . S
C931 H919 0.929 . S
C931 C925 1.390 . S
C931 C928 1.386 . S
C932 C927 1.490 . S
C932 C934 1.395 . S
C932 C935 1.403 . S
H933 C939 0.930 . S
C934 H920 0.930 . S
C934 C932 1.395 . S
C934 C937 1.403 . S
C935 C932 1.403 . S
C935 C936 1.524 . S
C935 C939 1.400 . S
C936 H921 0.960 . S
C936 H922 0.960 . S
C936 H923 0.960 . S
C936 C935 1.524 . S
C937 C934 1.403 . S
C937 C938 1.392 . S
C937 C941 1.495 . S
C938 C937 1.392 . S
C938 C939 1.385 . S
C938 C940 1.478 . S
C939 H933 0.930 . S
C939 C935 1.400 . S
C939 C938 1.385 . S
C940 C938 1.478 . S
C940 C942 1.381 . S
C940 C946 1.383 . S
C941 C937 1.495 . S
C941 H947 0.959 . S
C941 H948 0.961 . S
C941 H949 0.960 . S
C942 C940 1.381 . S
C942 C943 1.394 . S
C942 H950 0.930 . S
C943 C942 1.394 . S
C943 C944 1.383 . S
C943 H951 0.929 . S
C944 C943 1.383 . S
C944 C945 1.377 . S
C945 H929 0.930 . S
C945 C944 1.377 . S
C945 C946 1.379 . S
C946 H930 0.931 . S
C946 C940 1.383 . S
C946 C945 1.379 . S
H947 C941 0.959 . S
H948 C941 0.961 . S
H949 C941 0.960 . S
H950 C942 0.930 . S
H951 C943 0.929 . S
H952 C960 0.929 . S
H953 C962 0.930 . S
H954 C964 0.930 . S
H955 C967 0.929 . S
H956 C970 0.930 . S
H957 C972 0.960 . S
H958 C972 0.960 . S
H959 C972 0.960 . S
C960 H952 0.929 . S
C960 C961 1.377 . S
C960 C962 1.384 . S
C961 C960 1.377 . S
C961 C967 1.390 . S
C962 H953 0.930 . S
C962 C960 1.384 . S
C962 C963 1.372 . S
C963 C962 1.372 . S
C963 C964 1.400 . S
C963 C968 1.490 . S
C964 H954 0.930 . S
C964 C963 1.400 . S
C964 C967 1.386 . S
H965 C981 0.930 . S
H966 C982 0.931 . S
C967 H955 0.929 . S
C967 C961 1.390 . S
C967 C964 1.386 . S
C968 C963 1.490 . S
C968 C970 1.395 . S
C968 C971 1.403 . S
H969 C975 0.930 . S
C970 H956 0.930 . S
C970 C968 1.395 . S
C970 C973 1.403 . S
C971 C968 1.403 . S
C971 C972 1.524 . S
C971 C975 1.400 . S
C972 H957 0.960 . S
C972 H958 0.960 . S
C972 H959 0.960 . S
C972 C971 1.524 . S
C973 C970 1.403 . S
C973 C974 1.392 . S
C973 C977 1.495 . S
C974 C973 1.392 . S
C974 C975 1.385 . S
C974 C976 1.478 . S
C975 H969 0.930 . S
C975 C971 1.400 . S
C975 C974 1.385 . S
C976 C974 1.478 . S
C976 C978 1.381 . S
C976 C982 1.383 . S
C977 C973 1.495 . S
C977 H983 0.959 . S
C977 H984 0.961 . S
C977 H985 0.960 . S
C978 C976 1.381 . S
C978 C979 1.394 . S
C978 H986 0.930 . S
C979 C978 1.394 . S
C979 C980 1.383 . S
C979 H987 0.929 . S
C980 C979 1.383 . S
C980 C981 1.377 . S
C981 H965 0.930 . S
C981 C980 1.377 . S
C981 C982 1.379 . S
C982 H966 0.931 . S
C982 C976 1.383 . S
C982 C981 1.379 . S
H983 C977 0.959 . S
H984 C977 0.961 . S
H985 C977 0.960 . S
H986 C978 0.930 . S
H987 C979 0.929 . S
H988 C996 0.929 . S
H989 C998 0.930 . S
H990 C1000 0.930 . S
H991 C1003 0.929 . S
H992 C1006 0.930 . S
H993 C1008 0.960 . S
H994 C1008 0.960 . S
H995 C1008 0.960 . S
C996 H988 0.929 . S
C996 C997 1.377 . S
C996 C998 1.384 . S
C997 C996 1.377 . S
C997 C1003 1.390 . S
C998 H989 0.930 . S
C998 C996 1.384 . S
C998 C999 1.372 . S
C999 C998 1.372 . S
C999 C1000 1.400 . S
C999 C1004 1.490 . S
C1000 H990 0.930 . S
C1000 C999 1.400 . S
C1000 C1003 1.386 . S
H1001 C1017 0.930 . S
H1002 C1018 0.931 . S
C1003 H991 0.929 . S
C1003 C997 1.390 . S
C1003 C1000 1.386 . S
C1004 C999 1.490 . S
C1004 C1006 1.395 . S
C1004 C1007 1.403 . S
H1005 C1011 0.930 . S
C1006 H992 0.930 . S
C1006 C1004 1.395 . S
C1006 C1009 1.403 . S
C1007 C1004 1.403 . S
C1007 C1008 1.524 . S
C1007 C1011 1.400 . S
C1008 H993 0.960 . S
C1008 H994 0.960 . S
C1008 H995 0.960 . S
C1008 C1007 1.524 . S
C1009 C1006 1.403 . S
C1009 C1010 1.392 . S
C1009 C1013 1.495 . S
C1010 C1009 1.392 . S
C1010 C1011 1.385 . S
C1010 C1012 1.478 . S
C1011 H1005 0.930 . S
C1011 C1007 1.400 . S
C1011 C1010 1.385 . S
C1012 C1010 1.478 . S
C1012 C1014 1.381 . S
C1012 C1018 1.383 . S
C1013 C1009 1.495 . S
C1013 H1019 0.959 . S
C1013 H1020 0.961 . S
C1013 H1021 0.960 . S
C1014 C1012 1.381 . S
C1014 C1015 1.394 . S
C1014 H1022 0.930 . S
C1015 C1014 1.394 . S
C1015 C1016 1.383 . S
C1015 H1023 0.929 . S
C1016 C1015 1.383 . S
C1016 C1017 1.377 . S
C1017 H1001 0.930 . S
C1017 C1016 1.377 . S
C1017 C1018 1.379 . S
C1018 H1002 0.931 . S
C1018 C1012 1.383 . S
C1018 C1017 1.379 . S
H1019 C1013 0.959 . S
H1020 C1013 0.961 . S
H1021 C1013 0.960 . S
H1022 C1014 0.930 . S
H1023 C1015 0.929 . S
H1024 C1032 0.929 . S
H1025 C1034 0.930 . S
H1026 C1036 0.930 . S
H1027 C1039 0.929 . S
H1028 C1042 0.930 . S
H1029 C1044 0.960 . S
H1030 C1044 0.960 . S
H1031 C1044 0.960 . S
C1032 H1024 0.929 . S
C1032 C1033 1.377 1_556 S
C1032 C1034 1.384 . S
C1033 C1032 1.377 1_554 S
C1033 C1039 1.390 . S
C1034 H1025 0.930 . S
C1034 C1032 1.384 . S
C1034 C1035 1.365 1_556 S
C1035 C1034 1.365 1_554 S
C1035 C1036 1.410 . S
C1035 C1040 1.488 1_554 S
C1036 H1026 0.930 . S
C1036 C1035 1.410 . S
C1036 C1039 1.386 . S
H1037 C1053 0.934 . S
H1038 C1054 0.931 . S
C1039 H1027 0.929 . S
C1039 C1033 1.390 . S
C1039 C1036 1.386 . S
C1040 C1035 1.488 1_556 S
C1040 C1042 1.404 . S
C1040 C1043 1.394 1_556 S
H1041 C1047 0.930 . S
C1042 H1028 0.930 . S
C1042 C1040 1.404 . S
C1042 C1045 1.403 1_545 S
C1043 C1040 1.394 1_554 S
C1043 C1044 1.524 . S
C1043 C1047 1.400 1_545 S
C1044 H1029 0.960 . S
C1044 H1030 0.960 . S
C1044 H1031 0.960 . S
C1044 C1043 1.524 . S
C1045 C1042 1.403 1_565 S
C1045 C1046 1.392 . S
C1045 C1049 1.495 . S
C1046 C1045 1.392 . S
C1046 C1047 1.385 1_556 S
C1046 C1048 1.478 . S
C1047 H1041 0.930 . S
C1047 C1043 1.400 1_565 S
C1047 C1046 1.385 1_554 S
C1048 C1046 1.478 . S
C1048 C1050 1.381 . S
C1048 C1054 1.383 . S
C1049 C1045 1.495 . S
C1049 H1055 0.959 . S
C1049 H1056 0.961 . S
C1049 H1057 0.960 . S
C1050 C1048 1.381 . S
C1050 C1051 1.394 . S
C1050 H1058 0.930 . S
C1051 C1050 1.394 . S
C1051 C1052 1.383 . S
C1051 H1059 0.929 . S
C1052 C1051 1.383 . S
C1052 C1053 1.377 . S
C1053 H1037 0.934 . S
C1053 C1052 1.377 . S
C1053 C1054 1.379 . S
C1054 H1038 0.931 . S
C1054 C1048 1.383 . S
C1054 C1053 1.379 . S
H1055 C1049 0.959 . S
H1056 C1049 0.961 . S
H1057 C1049 0.960 . S
H1058 C1050 0.930 . S
H1059 C1051 0.929 . S
H1060 C1068 0.929 . S
H1061 C1070 0.930 . S
H1062 C1072 0.930 . S
H1063 C1075 0.929 . S
H1064 C1078 0.930 . S
H1065 C1080 0.960 . S
H1066 C1080 0.924 1_554 S
H1067 C1080 0.960 . S
C1068 H1060 0.929 . S
C1068 C1069 1.377 1_554 S
C1068 C1070 1.384 . S
C1069 C1068 1.377 1_556 S
C1069 C1075 1.390 . S
C1070 H1061 0.930 . S
C1070 C1068 1.384 . S
C1070 C1071 1.378 . S
C1071 C1070 1.378 . S
C1071 C1072 1.394 1_554 S
C1071 C1076 1.489 . S
C1072 H1062 0.930 . S
C1072 C1071 1.394 1_556 S
C1072 C1075 1.386 . S
H1073 C1089 0.930 . S
H1074 C1090 0.931 . S
C1075 H1063 0.929 . S
C1075 C1069 1.390 . S
C1075 C1072 1.386 . S
C1076 C1071 1.489 . S
C1076 C1078 1.411 . S
C1076 C1079 1.390 1_554 S
H1077 C1083 0.930 . S
C1078 H1064 0.930 . S
C1078 C1076 1.411 . S
C1078 C1081 1.403 . S
C1079 C1076 1.390 1_556 S
C1079 C1080 1.524 . S
C1079 C1083 1.400 . S
C1080 H1065 0.960 . S
C1080 H1066 0.924 1_556 S
C1080 H1067 0.960 . S
C1080 C1079 1.524 . S
C1081 C1078 1.403 . S
C1081 C1082 1.392 . S
C1081 C1085 1.495 . S
C1082 C1081 1.392 . S
C1082 C1083 1.385 1_554 S
C1082 C1084 1.478 . S
C1083 H1077 0.930 . S
C1083 C1079 1.400 . S
C1083 C1082 1.385 1_556 S
C1084 C1082 1.478 . S
C1084 C1086 1.381 . S
C1084 C1090 1.383 1_554 S
C1085 C1081 1.495 . S
C1085 H1091 0.959 . S
C1085 H1092 0.961 . S
C1085 H1093 0.960 . S
C1086 C1084 1.381 . S
C1086 C1087 1.394 . S
C1086 H1094 0.930 . S
C1087 C1086 1.394 . S
C1087 C1088 1.383 . S
C1087 H1095 0.929 . S
C1088 C1087 1.383 . S
C1088 C1089 1.377 1_554 S
C1089 H1073 0.930 . S
C1089 C1088 1.377 1_556 S
C1089 C1090 1.379 . S
C1090 H1074 0.931 . S
C1090 C1084 1.383 1_556 S
C1090 C1089 1.379 . S
H1091 C1085 0.959 . S
H1092 C1085 0.961 . S
H1093 C1085 0.960 . S
H1094 C1086 0.930 . S
H1095 C1087 0.929 . S
H1096 C1104 0.929 . S
H1097 C1106 0.930 . S
H1098 C1108 0.930 . S
H1099 C1111 0.929 . S
H1100 C1114 0.930 . S
H1101 C1116 0.960 . S
H1102 C1116 0.960 . S
H1103 C1116 0.960 . S
C1104 H1096 0.929 . S
C1104 C1105 1.377 . S
C1104 C1106 1.384 . S
C1105 C1104 1.377 . S
C1105 C1111 1.390 . S
C1106 H1097 0.930 . S
C1106 C1104 1.384 . S
C1106 C1107 1.372 . S
C1107 C1106 1.372 . S
C1107 C1108 1.400 . S
C1107 C1112 1.490 . S
C1108 H1098 0.930 . S
C1108 C1107 1.400 . S
C1108 C1111 1.386 . S
H1109 C1125 0.930 . S
H1110 C1126 0.931 . S
C1111 H1099 0.929 . S
C1111 C1105 1.390 . S
C1111 C1108 1.386 . S
C1112 C1107 1.490 . S
C1112 C1114 1.395 . S
C1112 C1115 1.403 . S
H1113 C1119 0.930 . S
C1114 H1100 0.930 . S
C1114 C1112 1.395 . S
C1114 C1117 1.403 . S
C1115 C1112 1.403 . S
C1115 C1116 1.524 . S
C1115 C1119 1.400 . S
C1116 H1101 0.960 . S
C1116 H1102 0.960 . S
C1116 H1103 0.960 . S
C1116 C1115 1.524 . S
C1117 C1114 1.403 . S
C1117 C1118 1.392 . S
C1117 C1121 1.495 . S
C1118 C1117 1.392 . S
C1118 C1119 1.385 . S
C1118 C1120 1.478 . S
C1119 H1113 0.930 . S
C1119 C1115 1.400 . S
C1119 C1118 1.385 . S
C1120 C1118 1.478 . S
C1120 C1122 1.381 . S
C1120 C1126 1.383 . S
C1121 C1117 1.495 . S
C1121 H1127 0.959 . S
C1121 H1128 0.961 . S
C1121 H1129 0.960 . S
C1122 C1120 1.381 . S
C1122 C1123 1.394 . S
C1122 H1130 0.930 . S
C1123 C1122 1.394 . S
C1123 C1124 1.383 . S
C1123 H1131 0.929 . S
C1124 C1123 1.383 . S
C1124 C1125 1.377 . S
C1125 H1109 0.930 . S
C1125 C1124 1.377 . S
C1125 C1126 1.379 . S
C1126 H1110 0.931 . S
C1126 C1120 1.383 . S
C1126 C1125 1.379 . S
H1127 C1121 0.959 . S
H1128 C1121 0.961 . S
H1129 C1121 0.960 . S
H1130 C1122 0.930 . S
H1131 C1123 0.929 . S
H1132 C1140 0.929 . S
H1133 C1142 0.930 . S
H1134 C1144 0.930 . S
H1135 C1147 0.929 . S
H1136 C1150 0.930 . S
H1137 C1152 0.960 . S
H1138 C1152 0.960 . S
H1139 C1152 0.960 . S
C1140 H1132 0.929 . S
C1140 C1141 1.377 . S
C1140 C1142 1.384 . S
C1141 C1140 1.377 . S
C1141 C1147 1.390 . S
C1142 H1133 0.930 . S
C1142 C1140 1.384 . S
C1142 C1143 1.372 . S
C1143 C1142 1.372 . S
C1143 C1144 1.400 . S
C1143 C1148 1.490 . S
C1144 H1134 0.930 . S
C1144 C1143 1.400 . S
C1144 C1147 1.386 . S
H1145 C1161 0.930 . S
H1146 C1162 0.931 . S
C1147 H1135 0.929 . S
C1147 C1141 1.390 . S
C1147 C1144 1.386 . S
C1148 C1143 1.490 . S
C1148 C1150 1.395 . S
C1148 C1151 1.403 . S
H1149 C1155 0.930 . S
C1150 H1136 0.930 . S
C1150 C1148 1.395 . S
C1150 C1153 1.403 1_565 S
C1151 C1148 1.403 . S
C1151 C1152 1.524 . S
C1151 C1155 1.400 1_565 S
C1152 H1137 0.960 . S
C1152 H1138 0.960 . S
C1152 H1139 0.960 . S
C1152 C1151 1.524 . S
C1153 C1150 1.403 1_545 S
C1153 C1154 1.392 . S
C1153 C1157 1.495 . S
C1154 C1153 1.392 . S
C1154 C1155 1.385 . S
C1154 C1156 1.478 . S
C1155 H1149 0.930 . S
C1155 C1151 1.400 1_545 S
C1155 C1154 1.385 . S
C1156 C1154 1.478 . S
C1156 C1158 1.381 . S
C1156 C1162 1.383 . S
C1157 C1153 1.495 . S
C1157 H1163 0.959 . S
C1157 H1164 0.961 . S
C1157 H1165 0.960 . S
C1158 C1156 1.381 . S
C1158 C1159 1.394 . S
C1158 H1166 0.930 . S
C1159 C1158 1.394 . S
C1159 C1160 1.383 . S
C1159 H1167 0.929 . S
C1160 C1159 1.383 . S
C1160 C1161 1.377 . S
C1161 H1145 0.930 . S
C1161 C1160 1.377 . S
C1161 C1162 1.379 . S
C1162 H1146 0.931 . S
C1162 C1156 1.383 . S
C1162 C1161 1.379 . S
H1163 C1157 0.959 . S
H1164 C1157 0.961 . S
H1165 C1157 0.960 . S
H1166 C1158 0.930 . S
H1167 C1159 0.929 . S
H1168 C1176 0.929 . S
H1169 C1178 0.930 . S
H1170 C1180 0.930 . S
H1171 C1183 0.929 . S
H1172 C1186 0.930 . S
H1173 C1188 0.960 . S
H1174 C1188 0.960 . S
H1175 C1188 0.960 . S
C1176 H1168 0.929 . S
C1176 C1177 1.377 1_556 S
C1176 C1178 1.384 . S
C1177 C1176 1.377 1_554 S
C1177 C1183 1.390 . S
C1178 H1169 0.930 . S
C1178 C1176 1.384 . S
C1178 C1179 1.371 1_556 S
C1179 C1178 1.371 1_554 S
C1179 C1180 1.401 . S
C1179 C1184 1.490 . S
C1180 H1170 0.930 . S
C1180 C1179 1.401 . S
C1180 C1183 1.386 . S
H1181 C1197 0.930 . S
H1182 C1198 0.931 . S
C1183 H1171 0.929 . S
C1183 C1177 1.390 . S
C1183 C1180 1.386 . S
C1184 C1179 1.490 . S
C1184 C1186 1.393 . S
C1184 C1187 1.405 1_554 S
H1185 C1191 0.930 . S
C1186 H1172 0.930 . S
C1186 C1184 1.393 . S
C1186 C1189 1.403 . S
C1187 C1184 1.405 1_556 S
C1187 C1188 1.524 . S
C1187 C1191 1.400 . S
C1188 H1173 0.960 . S
C1188 H1174 0.960 . S
C1188 H1175 0.960 . S
C1188 C1187 1.524 . S
C1189 C1186 1.403 . S
C1189 C1190 1.418 . S
C1189 C1193 1.495 . S
C1190 C1189 1.418 . S
C1190 C1191 1.361 1_554 S
C1190 C1192 1.478 . S
C1191 H1185 0.930 . S
C1191 C1187 1.400 . S
C1191 C1190 1.361 1_556 S
C1192 C1190 1.478 . S
C1192 C1194 1.347 1_554 S
C1192 C1198 1.416 . S
C1193 C1189 1.495 . S
C1193 H1199 0.959 . S
C1193 H1200 0.961 . S
C1193 H1201 0.960 . S
C1194 C1192 1.347 1_556 S
C1194 C1195 1.394 . S
C1194 H1202 0.930 . S
C1195 C1194 1.394 . S
C1195 C1196 1.411 . S
C1195 H1203 0.929 . S
C1196 C1195 1.411 . S
C1196 C1197 1.348 1_556 S
C1197 H1181 0.930 . S
C1197 C1196 1.348 1_554 S
C1197 C1198 1.379 . S
C1198 H1182 0.931 . S
C1198 C1192 1.416 . S
C1198 C1197 1.379 . S
H1199 C1193 0.959 . S
H1200 C1193 0.961 . S
H1201 C1193 0.960 . S
H1202 C1194 0.930 . S
H1203 C1195 0.929 . S
H1204 C1212 0.929 . S
H1205 C1214 0.930 . S
H1206 C1216 0.930 . S
H1207 C1219 0.929 . S
H1208 C1222 0.930 . S
H1209 C1224 0.960 . S
H1210 C1224 0.960 . S
H1211 C1224 0.960 . S
C1212 H1204 0.929 . S
C1212 C1213 1.377 . S
C1212 C1214 1.384 . S
C1213 C1212 1.377 . S
C1213 C1219 1.390 . S
C1214 H1205 0.930 . S
C1214 C1212 1.384 . S
C1214 C1215 1.372 . S
C1215 C1214 1.372 . S
C1215 C1216 1.400 . S
C1215 C1220 1.490 . S
C1216 H1206 0.930 . S
C1216 C1215 1.400 . S
C1216 C1219 1.386 . S
H1217 C1233 0.930 . S
H1218 C1234 0.931 . S
C1219 H1207 0.929 . S
C1219 C1213 1.390 . S
C1219 C1216 1.386 . S
C1220 C1215 1.490 . S
C1220 C1222 1.395 . S
C1220 C1223 1.403 . S
H1221 C1227 0.930 . S
C1222 H1208 0.930 . S
C1222 C1220 1.395 . S
C1222 C1225 1.403 . S
C1223 C1220 1.403 . S
C1223 C1224 1.524 . S
C1223 C1227 1.400 . S
C1224 H1209 0.960 . S
C1224 H1210 0.960 . S
C1224 H1211 0.960 . S
C1224 C1223 1.524 . S
C1225 C1222 1.403 . S
C1225 C1226 1.392 . S
C1225 C1229 1.495 . S
C1226 C1225 1.392 . S
C1226 C1227 1.385 . S
C1226 C1228 1.478 . S
C1227 H1221 0.930 . S
C1227 C1223 1.400 . S
C1227 C1226 1.385 . S
C1228 C1226 1.478 . S
C1228 C1230 1.381 . S
C1228 C1234 1.383 . S
C1229 C1225 1.495 . S
C1229 H1235 0.959 . S
C1229 H1236 0.961 . S
C1229 H1237 0.960 . S
C1230 C1228 1.381 . S
C1230 C1231 1.394 . S
C1230 H1238 0.930 . S
C1231 C1230 1.394 . S
C1231 C1232 1.383 . S
C1231 H1239 0.929 . S
C1232 C1231 1.383 . S
C1232 C1233 1.377 . S
C1233 H1217 0.930 . S
C1233 C1232 1.377 . S
C1233 C1234 1.379 . S
C1234 H1218 0.931 . S
C1234 C1228 1.383 . S
C1234 C1233 1.379 . S
H1235 C1229 0.959 . S
H1236 C1229 0.961 . S
H1237 C1229 0.960 . S
H1238 C1230 0.930 . S
H1239 C1231 0.929 . S
H1240 C1248 0.929 . S
H1241 C1250 0.930 . S
H1242 C1252 0.930 . S
H1243 C1255 0.929 . S
H1244 C1258 0.930 . S
H1245 C1260 0.960 . S
H1246 C1260 0.960 . S
H1247 C1260 0.960 . S
C1248 H1240 0.929 . S
C1248 C1249 1.377 . S
C1248 C1250 1.384 . S
C1249 C1248 1.377 . S
C1249 C1255 1.390 . S
C1250 H1241 0.930 . S
C1250 C1248 1.384 . S
C1250 C1251 1.372 . S
C1251 C1250 1.372 . S
C1251 C1252 1.400 . S
C1251 C1256 1.490 . S
C1252 H1242 0.930 . S
C1252 C1251 1.400 . S
C1252 C1255 1.386 . S
H1253 C1269 0.930 . S
H1254 C1270 0.931 . S
C1255 H1243 0.929 . S
C1255 C1249 1.390 . S
C1255 C1252 1.386 . S
C1256 C1251 1.490 . S
C1256 C1258 1.395 . S
C1256 C1259 1.403 . S
H1257 C1263 0.930 . S
C1258 H1244 0.930 . S
C1258 C1256 1.395 . S
C1258 C1261 1.403 1_565 S
C1259 C1256 1.403 . S
C1259 C1260 1.524 . S
C1259 C1263 1.400 1_565 S
C1260 H1245 0.960 . S
C1260 H1246 0.960 . S
C1260 H1247 0.960 . S
C1260 C1259 1.524 . S
C1261 C1258 1.403 1_545 S
C1261 C1262 1.392 . S
C1261 C1265 1.495 . S
C1262 C1261 1.392 . S
C1262 C1263 1.385 . S
C1262 C1264 1.478 . S
C1263 H1257 0.930 . S
C1263 C1259 1.400 1_545 S
C1263 C1262 1.385 . S
C1264 C1262 1.478 . S
C1264 C1266 1.381 . S
C1264 C1270 1.383 . S
C1265 C1261 1.495 . S
C1265 H1271 0.959 . S
C1265 H1272 0.961 . S
C1265 H1273 0.960 . S
C1266 C1264 1.381 . S
C1266 C1267 1.394 . S
C1266 H1274 0.930 . S
C1267 C1266 1.394 . S
C1267 C1268 1.383 . S
C1267 H1275 0.929 . S
C1268 C1267 1.383 . S
C1268 C1269 1.377 . S
C1269 H1253 0.930 . S
C1269 C1268 1.377 . S
C1269 C1270 1.379 . S
C1270 H1254 0.931 . S
C1270 C1264 1.383 . S
C1270 C1269 1.379 . S
H1271 C1265 0.959 . S
H1272 C1265 0.961 . S
H1273 C1265 0.960 . S
H1274 C1266 0.930 . S
H1275 C1267 0.929 . S
H1276 C1284 0.929 . S
H1277 C1286 0.930 . S
H1278 C1288 0.930 . S
H1279 C1291 0.929 . S
H1280 C1294 0.930 . S
H1281 C1296 0.960 . S
H1282 C1296 0.960 . S
H1283 C1296 0.960 . S
C1284 H1276 0.929 . S
C1284 C1285 1.377 . S
C1284 C1286 1.384 . S
C1285 C1284 1.377 . S
C1285 C1291 1.390 . S
C1286 H1277 0.930 . S
C1286 C1284 1.384 . S
C1286 C1287 1.372 . S
C1287 C1286 1.372 . S
C1287 C1288 1.400 . S
C1287 C1292 1.490 . S
C1288 H1278 0.930 . S
C1288 C1287 1.400 . S
C1288 C1291 1.386 . S
H1289 C1305 0.930 . S
H1290 C1306 0.931 . S
C1291 H1279 0.929 . S
C1291 C1285 1.390 . S
C1291 C1288 1.386 . S
C1292 C1287 1.490 . S
C1292 C1294 1.395 . S
C1292 C1295 1.403 . S
H1293 C1299 0.930 . S
C1294 H1280 0.930 . S
C1294 C1292 1.395 . S
C1294 C1297 1.403 . S
C1295 C1292 1.403 . S
C1295 C1296 1.524 . S
C1295 C1299 1.400 . S
C1296 H1281 0.960 . S
C1296 H1282 0.960 . S
C1296 H1283 0.960 . S
C1296 C1295 1.524 . S
C1297 C1294 1.403 . S
C1297 C1298 1.392 . S
C1297 C1301 1.495 . S
C1298 C1297 1.392 . S
C1298 C1299 1.385 . S
C1298 C1300 1.478 . S
C1299 H1293 0.930 . S
C1299 C1295 1.400 . S
C1299 C1298 1.385 . S
C1300 C1298 1.478 . S
C1300 C1302 1.381 . S
C1300 C1306 1.383 . S
C1301 C1297 1.495 . S
C1301 H1307 0.959 . S
C1301 H1308 0.961 . S
C1301 H1309 0.960 . S
C1302 C1300 1.381 . S
C1302 C1303 1.394 . S
C1302 H1310 0.930 . S
C1303 C1302 1.394 . S
C1303 C1304 1.383 . S
C1303 H1311 0.929 . S
C1304 C1303 1.383 . S
C1304 C1305 1.377 . S
C1305 H1289 0.930 . S
C1305 C1304 1.377 . S
C1305 C1306 1.379 . S
C1306 H1290 0.931 . S
C1306 C1300 1.383 . S
C1306 C1305 1.379 . S
H1307 C1301 0.959 . S
H1308 C1301 0.961 . S
H1309 C1301 0.960 . S
H1310 C1302 0.930 . S
H1311 C1303 0.929 . S
H1312 C1320 0.929 . S
H1313 C1322 0.930 . S
H1314 C1324 0.930 . S
H1315 C1327 0.929 . S
H1316 C1330 0.930 . S
H1317 C1332 0.960 . S
H1318 C1332 0.960 . S
H1319 C1332 0.960 . S
C1320 H1312 0.929 . S
C1320 C1321 1.377 . S
C1320 C1322 1.384 . S
C1321 C1320 1.377 . S
C1321 C1327 1.390 . S
C1322 H1313 0.930 . S
C1322 C1320 1.384 . S
C1322 C1323 1.372 . S
C1323 C1322 1.372 . S
C1323 C1324 1.400 . S
C1323 C1328 1.490 . S
C1324 H1314 0.930 . S
C1324 C1323 1.400 . S
C1324 C1327 1.386 . S
H1325 C1341 0.930 . S
H1326 C1342 0.931 . S
C1327 H1315 0.929 . S
C1327 C1321 1.390 . S
C1327 C1324 1.386 . S
C1328 C1323 1.490 . S
C1328 C1330 1.395 . S
C1328 C1331 1.403 . S
H1329 C1335 0.930 . S
C1330 H1316 0.930 . S
C1330 C1328 1.395 . S
C1330 C1333 1.403 . S
C1331 C1328 1.403 . S
C1331 C1332 1.524 . S
C1331 C1335 1.400 . S
C1332 H1317 0.960 . S
C1332 H1318 0.960 . S
C1332 H1319 0.960 . S
C1332 C1331 1.524 . S
C1333 C1330 1.403 . S
C1333 C1334 1.392 . S
C1333 C1337 1.495 . S
C1334 C1333 1.392 . S
C1334 C1335 1.385 . S
C1334 C1336 1.478 . S
C1335 H1329 0.930 . S
C1335 C1331 1.400 . S
C1335 C1334 1.385 . S
C1336 C1334 1.478 . S
C1336 C1338 1.381 . S
C1336 C1342 1.383 . S
C1337 C1333 1.495 . S
C1337 H1343 0.959 . S
C1337 H1344 0.961 . S
C1337 H1345 0.960 . S
C1338 C1336 1.381 . S
C1338 C1339 1.394 . S
C1338 H1346 0.930 . S
C1339 C1338 1.394 . S
C1339 C1340 1.383 . S
C1339 H1347 0.929 . S
C1340 C1339 1.383 . S
C1340 C1341 1.377 . S
C1341 H1325 0.930 . S
C1341 C1340 1.377 . S
C1341 C1342 1.379 . S
C1342 H1326 0.931 . S
C1342 C1336 1.383 . S
C1342 C1341 1.379 . S
H1343 C1337 0.959 . S
H1344 C1337 0.961 . S
H1345 C1337 0.960 . S
H1346 C1338 0.930 . S
H1347 C1339 0.929 . S
H1348 C1356 0.929 . S
H1349 C1358 0.930 . S
H1350 C1360 0.930 . S
H1351 C1363 0.929 . S
H1352 C1366 0.930 . S
H1353 C1368 0.960 . S
H1354 C1368 0.960 . S
H1355 C1368 0.960 . S
C1356 H1348 0.929 . S
C1356 C1357 1.377 . S
C1356 C1358 1.384 . S
C1357 C1356 1.377 . S
C1357 C1363 1.390 . S
C1358 H1349 0.930 . S
C1358 C1356 1.384 . S
C1358 C1359 1.372 . S
C1359 C1358 1.372 . S
C1359 C1360 1.400 . S
C1359 C1364 1.490 . S
C1360 H1350 0.930 . S
C1360 C1359 1.400 . S
C1360 C1363 1.386 . S
H1361 C1377 0.930 . S
H1362 C1378 0.931 . S
C1363 H1351 0.929 . S
C1363 C1357 1.390 . S
C1363 C1360 1.386 . S
C1364 C1359 1.490 . S
C1364 C1366 1.395 . S
C1364 C1367 1.403 . S
H1365 C1371 0.930 . S
C1366 H1352 0.930 . S
C1366 C1364 1.395 . S
C1366 C1369 1.403 . S
C1367 C1364 1.403 . S
C1367 C1368 1.524 . S
C1367 C1371 1.400 . S
C1368 H1353 0.960 . S
C1368 H1354 0.960 . S
C1368 H1355 0.960 . S
C1368 C1367 1.524 . S
C1369 C1366 1.403 . S
C1369 C1370 1.392 . S
C1369 C1373 1.495 . S
C1370 C1369 1.392 . S
C1370 C1371 1.385 . S
C1370 C1372 1.478 . S
C1371 H1365 0.930 . S
C1371 C1367 1.400 . S
C1371 C1370 1.385 . S
C1372 C1370 1.478 . S
C1372 C1374 1.381 . S
C1372 C1378 1.383 . S
C1373 C1369 1.495 . S
C1373 H1379 0.959 . S
C1373 H1380 0.961 . S
C1373 H1381 0.960 . S
C1374 C1372 1.381 . S
C1374 C1375 1.394 . S
C1374 H1382 0.930 . S
C1375 C1374 1.394 . S
C1375 C1376 1.383 . S
C1375 H1383 0.929 . S
C1376 C1375 1.383 . S
C1376 C1377 1.377 . S
C1377 H1361 0.930 . S
C1377 C1376 1.377 . S
C1377 C1378 1.379 . S
C1378 H1362 0.931 . S
C1378 C1372 1.383 . S
C1378 C1377 1.379 . S
H1379 C1373 0.959 . S
H1380 C1373 0.961 . S
H1381 C1373 0.960 . S
H1382 C1374 0.930 . S
H1383 C1375 0.929 . S
H1384 C1392 0.929 . S
H1385 C1394 0.930 . S
H1386 C1396 0.930 . S
H1387 C1399 0.929 . S
H1388 C1402 0.930 . S
H1389 C1404 0.960 . S
H1390 C1404 0.960 . S
H1391 C1404 0.960 . S
C1392 H1384 0.929 . S
C1392 C1393 1.377 . S
C1392 C1394 1.384 . S
C1393 C1392 1.377 . S
C1393 C1399 1.390 . S
C1394 H1385 0.930 . S
C1394 C1392 1.384 . S
C1394 C1395 1.372 . S
C1395 C1394 1.372 . S
C1395 C1396 1.400 . S
C1395 C1400 1.490 . S
C1396 H1386 0.930 . S
C1396 C1395 1.400 . S
C1396 C1399 1.386 . S
H1397 C1413 0.930 . S
H1398 C1414 0.931 . S
C1399 H1387 0.929 . S
C1399 C1393 1.390 . S
C1399 C1396 1.386 . S
C1400 C1395 1.490 . S
C1400 C1402 1.395 . S
C1400 C1403 1.403 . S
H1401 C1407 0.930 . S
C1402 H1388 0.930 . S
C1402 C1400 1.395 . S
C1402 C1405 1.403 . S
C1403 C1400 1.403 . S
C1403 C1404 1.524 . S
C1403 C1407 1.400 . S
C1404 H1389 0.960 . S
C1404 H1390 0.960 . S
C1404 H1391 0.960 . S
C1404 C1403 1.524 . S
C1405 C1402 1.403 . S
C1405 C1406 1.392 . S
C1405 C1409 1.495 . S
C1406 C1405 1.392 . S
C1406 C1407 1.385 . S
C1406 C1408 1.478 . S
C1407 H1401 0.930 . S
C1407 C1403 1.400 . S
C1407 C1406 1.385 . S
C1408 C1406 1.478 . S
C1408 C1410 1.381 . S
C1408 C1414 1.383 . S
C1409 C1405 1.495 . S
C1409 H1415 0.959 . S
C1409 H1416 0.961 . S
C1409 H1417 0.960 . S
C1410 C1408 1.381 . S
C1410 C1411 1.394 . S
C1410 H1418 0.930 . S
C1411 C1410 1.394 . S
C1411 C1412 1.383 . S
C1411 H1419 0.929 . S
C1412 C1411 1.383 . S
C1412 C1413 1.377 . S
C1413 H1397 0.930 . S
C1413 C1412 1.377 . S
C1413 C1414 1.379 . S
C1414 H1398 0.931 . S
C1414 C1408 1.383 . S
C1414 C1413 1.379 . S
H1415 C1409 0.959 . S
H1416 C1409 0.961 . S
H1417 C1409 0.960 . S
H1418 C1410 0.930 . S
H1419 C1411 0.929 . S
H1420 C1428 0.929 . S
H1421 C1430 0.930 . S
H1422 C1432 0.930 . S
H1423 C1435 0.929 . S
H1424 C1438 0.930 . S
H1425 C1440 0.960 . S
H1426 C1440 0.960 . S
H1427 C1440 0.960 . S
C1428 H1420 0.929 . S
C1428 C1429 1.377 . S
C1428 C1430 1.384 . S
C1429 C1428 1.377 . S
C1429 C1435 1.390 . S
C1430 H1421 0.930 . S
C1430 C1428 1.384 . S
C1430 C1431 1.372 . S
C1431 C1430 1.372 . S
C1431 C1432 1.400 . S
C1431 C1436 1.490 . S
C1432 H1422 0.930 . S
C1432 C1431 1.400 . S
C1432 C1435 1.386 . S
H1433 C1449 0.930 . S
H1434 C1450 0.931 . S
C1435 H1423 0.929 . S
C1435 C1429 1.390 . S
C1435 C1432 1.386 . S
C1436 C1431 1.490 . S
C1436 C1438 1.395 . S
C1436 C1439 1.403 . S
H1437 C1443 0.930 . S
C1438 H1424 0.930 . S
C1438 C1436 1.395 . S
C1438 C1441 1.403 . S
C1439 C1436 1.403 . S
C1439 C1440 1.524 . S
C1439 C1443 1.400 . S
C1440 H1425 0.960 . S
C1440 H1426 0.960 . S
C1440 H1427 0.960 . S
C1440 C1439 1.524 . S
C1441 C1438 1.403 . S
C1441 C1442 1.392 . S
C1441 C1445 1.495 . S
C1442 C1441 1.392 . S
C1442 C1443 1.385 . S
C1442 C1444 1.478 . S
C1443 H1437 0.930 . S
C1443 C1439 1.400 . S
C1443 C1442 1.385 . S
C1444 C1442 1.478 . S
C1444 C1446 1.381 . S
C1444 C1450 1.383 . S
C1445 C1441 1.495 . S
C1445 H1451 0.959 . S
C1445 H1452 0.961 . S
C1445 H1453 0.960 . S
C1446 C1444 1.381 . S
C1446 C1447 1.394 . S
C1446 H1454 0.930 . S
C1447 C1446 1.394 . S
C1447 C1448 1.383 . S
C1447 H1455 0.929 . S
C1448 C1447 1.383 . S
C1448 C1449 1.377 . S
C1449 H1433 0.930 . S
C1449 C1448 1.377 . S
C1449 C1450 1.379 . S
C1450 H1434 0.931 . S
C1450 C1444 1.383 . S
C1450 C1449 1.379 . S
H1451 C1445 0.959 . S
H1452 C1445 0.961 . S
H1453 C1445 0.960 . S
H1454 C1446 0.930 . S
H1455 C1447 0.929 . S
H1456 C1464 0.929 . S
H1457 C1466 0.930 . S
H1458 C1468 0.930 . S
H1459 C1471 0.929 . S
H1460 C1474 0.930 . S
H1461 C1476 0.960 . S
H1462 C1476 0.960 . S
H1463 C1476 0.960 . S
C1464 H1456 0.929 . S
C1464 C1465 1.377 1_655 S
C1464 C1466 1.384 . S
C1465 C1464 1.377 1_455 S
C1465 C1471 1.390 . S
C1466 H1457 0.930 . S
C1466 C1464 1.384 . S
C1466 C1467 1.368 1_655 S
C1467 C1466 1.368 1_455 S
C1467 C1468 1.404 . S
C1467 C1472 1.490 1_455 S
C1468 H1458 0.930 . S
C1468 C1467 1.404 . S
C1468 C1471 1.386 . S
H1469 C1485 0.930 . S
H1470 C1486 0.931 . S
C1471 H1459 0.929 . S
C1471 C1465 1.390 . S
C1471 C1468 1.386 . S
C1472 C1467 1.490 1_655 S
C1472 C1474 1.395 1_655 S
C1472 C1475 1.403 . S
H1473 C1479 0.930 . S
C1474 H1460 0.930 . S
C1474 C1472 1.395 1_455 S
C1474 C1477 1.403 1_565 S
C1475 C1472 1.403 . S
C1475 C1476 1.524 . S
C1475 C1479 1.400 1_565 S
C1476 H1461 0.960 . S
C1476 H1462 0.960 . S
C1476 H1463 0.960 . S
C1476 C1475 1.524 . S
C1477 C1474 1.403 1_545 S
C1477 C1478 1.392 . S
C1477 C1481 1.495 . S
C1478 C1477 1.392 . S
C1478 C1479 1.385 1_455 S
C1478 C1480 1.478 . S
C1479 H1473 0.930 . S
C1479 C1475 1.400 1_545 S
C1479 C1478 1.385 1_655 S
C1480 C1478 1.478 . S
C1480 C1482 1.381 1_455 S
C1480 C1486 1.383 . S
C1481 C1477 1.495 . S
C1481 H1487 0.959 . S
C1481 H1488 0.961 . S
C1481 H1489 0.960 . S
C1482 C1480 1.381 1_655 S
C1482 C1483 1.394 . S
C1482 H1490 0.930 . S
C1483 C1482 1.394 . S
C1483 C1484 1.383 . S
C1483 H1491 0.929 . S
C1484 C1483 1.383 . S
C1484 C1485 1.377 1_655 S
C1485 H1469 0.930 . S
C1485 C1484 1.377 1_455 S
C1485 C1486 1.379 . S
C1486 H1470 0.931 . S
C1486 C1480 1.383 . S
C1486 C1485 1.379 . S
H1487 C1481 0.959 . S
H1488 C1481 0.961 . S
H1489 C1481 0.960 . S
H1490 C1482 0.930 . S
H1491 C1483 0.929 . S
H1492 C1500 0.929 . S
H1493 C1502 0.930 . S
H1494 C1504 0.930 . S
H1495 C1507 0.929 . S
H1496 C1510 0.930 . S
H1497 C1512 0.960 . S
H1498 C1512 0.960 . S
H1499 C1512 0.960 . S
C1500 H1492 0.929 . S
C1500 C1501 1.377 . S
C1500 C1502 1.384 . S
C1501 C1500 1.377 . S
C1501 C1507 1.390 1_655 S
C1502 H1493 0.930 . S
C1502 C1500 1.384 . S
C1502 C1503 1.372 . S
C1503 C1502 1.372 . S
C1503 C1504 1.400 1_655 S
C1503 C1508 1.491 . S
C1504 H1494 0.930 . S
C1504 C1503 1.400 1_455 S
C1504 C1507 1.386 . S
H1505 C1521 0.930 . S
H1506 C1522 0.931 . S
C1507 H1495 0.929 . S
C1507 C1501 1.390 1_455 S
C1507 C1504 1.386 . S
C1508 C1503 1.491 . S
C1508 C1510 1.385 1_655 S
C1508 C1511 1.412 . S
H1509 C1515 0.930 . S
C1510 H1496 0.930 . S
C1510 C1508 1.385 1_455 S
C1510 C1513 1.403 . S
C1511 C1508 1.412 . S
C1511 C1512 1.524 . S
C1511 C1515 1.400 . S
C1512 H1497 0.960 . S
C1512 H1498 0.960 . S
C1512 H1499 0.960 . S
C1512 C1511 1.524 . S
C1513 C1510 1.403 . S
C1513 C1514 1.392 . S
C1513 C1517 1.495 . S
C1514 C1513 1.392 . S
C1514 C1515 1.385 1_455 S
C1514 C1516 1.478 . S
C1515 H1509 0.930 . S
C1515 C1511 1.400 . S
C1515 C1514 1.385 1_655 S
C1516 C1514 1.478 . S
C1516 C1518 1.381 1_455 S
C1516 C1522 1.383 . S
C1517 C1513 1.495 . S
C1517 H1523 0.959 . S
C1517 H1524 0.961 . S
C1517 H1525 0.960 . S
C1518 C1516 1.381 1_655 S
C1518 C1519 1.394 . S
C1518 H1526 0.930 . S
C1519 C1518 1.394 . S
C1519 C1520 1.383 1_655 S
C1519 H1527 0.929 . S
C1520 C1519 1.383 1_455 S
C1520 C1521 1.377 . S
C1521 H1505 0.930 . S
C1521 C1520 1.377 . S
C1521 C1522 1.379 . S
C1522 H1506 0.931 . S
C1522 C1516 1.383 . S
C1522 C1521 1.379 . S
H1523 C1517 0.959 . S
H1524 C1517 0.961 . S
H1525 C1517 0.960 . S
H1526 C1518 0.930 . S
H1527 C1519 0.929 . S
H1528 C1536 0.929 . S
H1529 C1538 0.930 . S
H1530 C1540 0.930 . S
H1531 C1543 0.929 . S
H1532 C1546 0.930 . S
H1533 C1548 0.960 . S
H1534 C1548 0.960 . S
H1535 C1548 0.960 . S
C1536 H1528 0.929 . S
C1536 C1537 1.377 1_655 S
C1536 C1538 1.384 . S
C1537 C1536 1.377 1_455 S
C1537 C1543 1.390 . S
C1538 H1529 0.930 . S
C1538 C1536 1.384 . S
C1538 C1539 1.372 1_655 S
C1539 C1538 1.372 1_455 S
C1539 C1540 1.400 . S
C1539 C1544 1.490 1_455 S
C1540 H1530 0.930 . S
C1540 C1539 1.400 . S
C1540 C1543 1.386 . S
H1541 C1557 0.930 . S
H1542 C1558 0.931 . S
C1543 H1531 0.929 . S
C1543 C1537 1.390 . S
C1543 C1540 1.386 . S
C1544 C1539 1.490 1_655 S
C1544 C1546 1.395 . S
C1544 C1547 1.403 1_655 S
H1545 C1551 0.930 . S
C1546 H1532 0.930 . S
C1546 C1544 1.395 . S
C1546 C1549 1.403 . S
C1547 C1544 1.403 1_455 S
C1547 C1548 1.524 . S
C1547 C1551 1.400 . S
C1548 H1533 0.960 . S
C1548 H1534 0.960 . S
C1548 H1535 0.960 . S
C1548 C1547 1.524 . S
C1549 C1546 1.403 . S
C1549 C1550 1.392 . S
C1549 C1553 1.495 . S
C1550 C1549 1.392 . S
C1550 C1551 1.385 1_655 S
C1550 C1552 1.478 . S
C1551 H1545 0.930 . S
C1551 C1547 1.400 . S
C1551 C1550 1.385 1_455 S
C1552 C1550 1.478 . S
C1552 C1554 1.381 . S
C1552 C1558 1.383 . S
C1553 C1549 1.495 . S
C1553 H1559 0.959 . S
C1553 H1560 0.961 . S
C1553 H1561 0.960 . S
C1554 C1552 1.381 . S
C1554 C1555 1.394 . S
C1554 H1562 0.930 . S
C1555 C1554 1.394 . S
C1555 C1556 1.383 . S
C1555 H1563 0.929 . S
C1556 C1555 1.383 . S
C1556 C1557 1.377 . S
C1557 H1541 0.930 . S
C1557 C1556 1.377 . S
C1557 C1558 1.379 . S
C1558 H1542 0.931 . S
C1558 C1552 1.383 . S
C1558 C1557 1.379 . S
H1559 C1553 0.959 . S
H1560 C1553 0.961 . S
H1561 C1553 0.960 . S
H1562 C1554 0.930 . S
H1563 C1555 0.929 . S
H1564 C1572 0.929 . S
H1565 C1574 0.930 . S
H1566 C1576 0.930 . S
H1567 C1579 0.929 . S
H1568 C1582 0.930 . S
H1569 C1584 0.960 . S
H1570 C1584 0.960 . S
H1571 C1584 0.960 . S
C1572 H1564 0.929 . S
C1572 C1573 1.377 1_655 S
C1572 C1574 1.384 . S
C1573 C1572 1.377 1_455 S
C1573 C1579 1.390 1_556 S
C1574 H1565 0.930 . S
C1574 C1572 1.384 . S
C1574 C1575 1.367 1_655 S
C1575 C1574 1.367 1_455 S
C1575 C1576 1.405 1_556 S
C1575 C1580 1.492 1_455 S
C1576 H1566 0.930 . S
C1576 C1575 1.405 1_554 S
C1576 C1579 1.386 . S
H1577 C1593 0.930 . S
H1578 C1594 0.931 . S
C1579 H1567 0.929 . S
C1579 C1573 1.390 1_554 S
C1579 C1576 1.386 . S
C1580 C1575 1.492 1_655 S
C1580 C1582 1.374 1_556 S
C1580 C1583 1.422 1_655 S
H1581 C1587 0.930 . S
C1582 H1568 0.930 . S
C1582 C1580 1.374 1_554 S
C1582 C1585 1.403 . S
C1583 C1580 1.422 1_455 S
C1583 C1584 1.524 . S
C1583 C1587 1.400 . S
C1584 H1569 0.960 . S
C1584 H1570 0.960 . S
C1584 H1571 0.960 . S
C1584 C1583 1.524 . S
C1585 C1582 1.403 . S
C1585 C1586 1.392 . S
C1585 C1589 1.495 . S
C1586 C1585 1.392 . S
C1586 C1587 1.385 1_654 S
C1586 C1588 1.478 . S
C1587 H1581 0.930 . S
C1587 C1583 1.400 . S
C1587 C1586 1.385 1_456 S
C1588 C1586 1.478 . S
C1588 C1590 1.381 1_554 S
C1588 C1594 1.383 1_655 S
C1589 C1585 1.495 . S
C1589 H1595 0.959 . S
C1589 H1596 0.961 . S
C1589 H1597 0.960 . S
C1590 C1588 1.381 1_556 S
C1590 C1591 1.394 . S
C1590 H1598 0.930 . S
C1591 C1590 1.394 . S
C1591 C1592 1.383 1_556 S
C1591 H1599 0.929 . S
C1592 C1591 1.383 1_554 S
C1592 C1593 1.377 1_655 S
C1593 H1577 0.930 . S
C1593 C1592 1.377 1_455 S
C1593 C1594 1.379 . S
C1594 H1578 0.931 . S
C1594 C1588 1.383 1_455 S
C1594 C1593 1.379 . S
H1595 C1589 0.959 . S
H1596 C1589 0.961 . S
H1597 C1589 0.960 . S
H1598 C1590 0.930 . S
H1599 C1591 0.929 . S
H1600 C1608 0.929 . S
H1601 C1610 0.930 . S
H1602 C1612 0.930 . S
H1603 C1615 0.929 . S
H1604 C1618 0.930 . S
H1605 C1620 0.960 . S
H1606 C1620 0.960 . S
H1607 C1620 0.960 . S
C1608 H1600 0.929 . S
C1608 C1609 1.377 . S
C1608 C1610 1.384 . S
C1609 C1608 1.377 . S
C1609 C1615 1.390 . S
C1610 H1601 0.930 . S
C1610 C1608 1.384 . S
C1610 C1611 1.372 . S
C1611 C1610 1.372 . S
C1611 C1612 1.400 . S
C1611 C1616 1.490 . S
C1612 H1602 0.930 . S
C1612 C1611 1.400 . S
C1612 C1615 1.386 . S
H1613 C1629 0.930 . S
H1614 C1630 0.931 . S
C1615 H1603 0.929 . S
C1615 C1609 1.390 . S
C1615 C1612 1.386 . S
C1616 C1611 1.490 . S
C1616 C1618 1.395 . S
C1616 C1619 1.403 . S
H1617 C1623 0.930 . S
C1618 H1604 0.930 . S
C1618 C1616 1.395 . S
C1618 C1621 1.403 . S
C1619 C1616 1.403 . S
C1619 C1620 1.524 . S
C1619 C1623 1.400 . S
C1620 H1605 0.960 . S
C1620 H1606 0.960 . S
C1620 H1607 0.960 . S
C1620 C1619 1.524 . S
C1621 C1618 1.403 . S
C1621 C1622 1.392 . S
C1621 C1625 1.495 . S
C1622 C1621 1.392 . S
C1622 C1623 1.385 . S
C1622 C1624 1.478 . S
C1623 H1617 0.930 . S
C1623 C1619 1.400 . S
C1623 C1622 1.385 . S
C1624 C1622 1.478 . S
C1624 C1626 1.381 . S
C1624 C1630 1.383 . S
C1625 C1621 1.495 . S
C1625 H1631 0.959 . S
C1625 H1632 0.961 . S
C1625 H1633 0.960 . S
C1626 C1624 1.381 . S
C1626 C1627 1.394 . S
C1626 H1634 0.930 . S
C1627 C1626 1.394 . S
C1627 C1628 1.383 . S
C1627 H1635 0.929 . S
C1628 C1627 1.383 . S
C1628 C1629 1.377 . S
C1629 H1613 0.930 . S
C1629 C1628 1.377 . S
C1629 C1630 1.379 . S
C1630 H1614 0.931 . S
C1630 C1624 1.383 . S
C1630 C1629 1.379 . S
H1631 C1625 0.959 . S
H1632 C1625 0.961 . S
H1633 C1625 0.960 . S
H1634 C1626 0.930 . S
H1635 C1627 0.929 . S
H1636 C1644 0.929 . S
H1637 C1646 0.930 . S
H1638 C1648 0.930 . S
H1639 C1651 0.929 . S
H1640 C1654 0.930 . S
H1641 C1656 0.960 1_455 S
H1642 C1656 0.960 . S
H1643 C1656 0.960 1_455 S
C1644 H1636 0.929 . S
C1644 C1645 1.377 . S
C1644 C1646 1.384 . S
C1645 C1644 1.377 . S
C1645 C1651 1.390 . S
C1646 H1637 0.930 . S
C1646 C1644 1.384 . S
C1646 C1647 1.372 . S
C1647 C1646 1.372 . S
C1647 C1648 1.400 . S
C1647 C1652 1.490 . S
C1648 H1638 0.930 . S
C1648 C1647 1.400 . S
C1648 C1651 1.386 . S
H1649 C1665 0.930 . S
H1650 C1666 0.931 . S
C1651 H1639 0.929 . S
C1651 C1645 1.390 . S
C1651 C1648 1.386 . S
C1652 C1647 1.490 . S
C1652 C1654 1.395 . S
C1652 C1655 1.403 . S
H1653 C1659 0.930 . S
C1654 H1640 0.930 . S
C1654 C1652 1.395 . S
C1654 C1657 1.403 . S
C1655 C1652 1.403 . S
C1655 C1656 1.524 . S
C1655 C1659 1.400 . S
C1656 H1641 0.960 1_655 S
C1656 H1642 0.960 . S
C1656 H1643 0.960 1_655 S
C1656 C1655 1.524 . S
C1657 C1654 1.403 . S
C1657 C1658 1.392 . S
C1657 C1661 1.495 . S
C1658 C1657 1.392 . S
C1658 C1659 1.385 . S
C1658 C1660 1.478 . S
C1659 H1653 0.930 . S
C1659 C1655 1.400 . S
C1659 C1658 1.385 . S
C1660 C1658 1.478 . S
C1660 C1662 1.381 . S
C1660 C1666 1.383 . S
C1661 C1657 1.495 . S
C1661 H1667 0.959 . S
C1661 H1668 0.961 . S
C1661 H1669 0.960 . S
C1662 C1660 1.381 . S
C1662 C1663 1.394 . S
C1662 H1670 0.930 . S
C1663 C1662 1.394 . S
C1663 C1664 1.383 . S
C1663 H1671 0.929 . S
C1664 C1663 1.383 . S
C1664 C1665 1.377 . S
C1665 H1649 0.930 . S
C1665 C1664 1.377 . S
C1665 C1666 1.379 . S
C1666 H1650 0.931 . S
C1666 C1660 1.383 . S
C1666 C1665 1.379 . S
H1667 C1661 0.959 . S
H1668 C1661 0.961 . S
H1669 C1661 0.960 . S
H1670 C1662 0.930 . S
H1671 C1663 0.929 . S
H1672 C1680 0.929 . S
H1673 C1682 0.930 . S
H1674 C1684 0.930 . S
H1675 C1687 0.929 . S
H1676 C1690 0.930 . S
H1677 C1692 0.960 . S
H1678 C1692 0.960 . S
H1679 C1692 0.960 . S
C1680 H1672 0.929 . S
C1680 C1681 1.377 . S
C1680 C1682 1.384 . S
C1681 C1680 1.377 . S
C1681 C1687 1.390 . S
C1682 H1673 0.930 . S
C1682 C1680 1.384 . S
C1682 C1683 1.372 . S
C1683 C1682 1.372 . S
C1683 C1684 1.400 . S
C1683 C1688 1.490 . S
C1684 H1674 0.930 . S
C1684 C1683 1.400 . S
C1684 C1687 1.386 . S
H1685 C1701 0.930 . S
H1686 C1702 0.931 . S
C1687 H1675 0.929 . S
C1687 C1681 1.390 . S
C1687 C1684 1.386 . S
C1688 C1683 1.490 . S
C1688 C1690 1.395 . S
C1688 C1691 1.403 . S
H1689 C1695 0.930 . S
C1690 H1676 0.930 . S
C1690 C1688 1.395 . S
C1690 C1693 1.403 . S
C1691 C1688 1.403 . S
C1691 C1692 1.524 . S
C1691 C1695 1.400 . S
C1692 H1677 0.960 . S
C1692 H1678 0.960 . S
C1692 H1679 0.960 . S
C1692 C1691 1.524 . S
C1693 C1690 1.403 . S
C1693 C1694 1.392 . S
C1693 C1697 1.495 . S
C1694 C1693 1.392 . S
C1694 C1695 1.385 . S
C1694 C1696 1.478 . S
C1695 H1689 0.930 . S
C1695 C1691 1.400 . S
C1695 C1694 1.385 . S
C1696 C1694 1.478 . S
C1696 C1698 1.381 . S
C1696 C1702 1.383 . S
C1697 C1693 1.495 . S
C1697 H1703 0.959 . S
C1697 H1704 0.961 . S
C1697 H1705 0.960 . S
C1698 C1696 1.381 . S
C1698 C1699 1.394 . S
C1698 H1706 0.930 . S
C1699 C1698 1.394 . S
C1699 C1700 1.383 . S
C1699 H1707 0.929 . S
C1700 C1699 1.383 . S
C1700 C1701 1.377 . S
C1701 H1685 0.930 . S
C1701 C1700 1.377 . S
C1701 C1702 1.379 . S
C1702 H1686 0.931 . S
C1702 C1696 1.383 . S
C1702 C1701 1.379 . S
H1703 C1697 0.959 . S
H1704 C1697 0.961 . S
H1705 C1697 0.960 . S
H1706 C1698 0.930 . S
H1707 C1699 0.929 . S
H1708 C1716 0.929 . S
H1709 C1718 0.930 . S
H1710 C1720 0.930 . S
H1711 C1723 0.929 . S
H1712 C1726 0.930 . S
H1713 C1728 0.960 . S
H1714 C1728 0.960 . S
H1715 C1728 0.960 . S
C1716 H1708 0.929 . S
C1716 C1717 1.377 . S
C1716 C1718 1.384 . S
C1717 C1716 1.377 . S
C1717 C1723 1.390 . S
C1718 H1709 0.930 . S
C1718 C1716 1.384 . S
C1718 C1719 1.372 . S
C1719 C1718 1.372 . S
C1719 C1720 1.400 . S
C1719 C1724 1.490 . S
C1720 H1710 0.930 . S
C1720 C1719 1.400 . S
C1720 C1723 1.386 . S
H1721 C1737 0.930 . S
H1722 C1738 0.931 . S
C1723 H1711 0.929 . S
C1723 C1717 1.390 . S
C1723 C1720 1.386 . S
C1724 C1719 1.490 . S
C1724 C1726 1.395 . S
C1724 C1727 1.403 . S
H1725 C1731 0.930 . S
C1726 H1712 0.930 . S
C1726 C1724 1.395 . S
C1726 C1729 1.403 . S
C1727 C1724 1.403 . S
C1727 C1728 1.524 . S
C1727 C1731 1.400 . S
C1728 H1713 0.960 . S
C1728 H1714 0.960 . S
C1728 H1715 0.960 . S
C1728 C1727 1.524 . S
C1729 C1726 1.403 . S
C1729 C1730 1.392 . S
C1729 C1733 1.495 . S
C1730 C1729 1.392 . S
C1730 C1731 1.385 . S
C1730 C1732 1.478 . S
C1731 H1725 0.930 . S
C1731 C1727 1.400 . S
C1731 C1730 1.385 . S
C1732 C1730 1.478 . S
C1732 C1734 1.381 . S
C1732 C1738 1.383 . S
C1733 C1729 1.495 . S
C1733 H1739 0.959 . S
C1733 H1740 0.961 . S
C1733 H1741 0.960 1_655 S
C1734 C1732 1.381 . S
C1734 C1735 1.394 . S
C1734 H1742 0.930 1_655 S
C1735 C1734 1.394 . S
C1735 C1736 1.383 . S
C1735 H1743 0.929 1_655 S
C1736 C1735 1.383 . S
C1736 C1737 1.377 . S
C1737 H1721 0.930 . S
C1737 C1736 1.377 . S
C1737 C1738 1.379 . S
C1738 H1722 0.931 . S
C1738 C1732 1.383 . S
C1738 C1737 1.379 . S
H1739 C1733 0.959 . S
H1740 C1733 0.961 . S
H1741 C1733 0.960 1_455 S
H1742 C1734 0.930 1_455 S
H1743 C1735 0.929 1_455 S
H1744 C1752 0.929 . S
H1745 C1754 0.930 . S
H1746 C1756 0.930 . S
H1747 C1759 0.929 . S
H1748 C1762 0.930 . S
H1749 C1764 0.960 . S
H1750 C1764 0.960 . S
H1751 C1764 0.960 . S
C1752 H1744 0.929 . S
C1752 C1753 1.377 . S
C1752 C1754 1.384 . S
C1753 C1752 1.377 . S
C1753 C1759 1.390 . S
C1754 H1745 0.930 . S
C1754 C1752 1.384 . S
C1754 C1755 1.372 . S
C1755 C1754 1.372 . S
C1755 C1756 1.400 . S
C1755 C1760 1.490 . S
C1756 H1746 0.930 . S
C1756 C1755 1.400 . S
C1756 C1759 1.386 . S
H1757 C1773 0.930 . S
H1758 C1774 0.931 . S
C1759 H1747 0.929 . S
C1759 C1753 1.390 . S
C1759 C1756 1.386 . S
C1760 C1755 1.490 . S
C1760 C1762 1.395 . S
C1760 C1763 1.403 . S
H1761 C1767 0.930 . S
C1762 H1748 0.930 . S
C1762 C1760 1.395 . S
C1762 C1765 1.403 . S
C1763 C1760 1.403 . S
C1763 C1764 1.524 . S
C1763 C1767 1.400 . S
C1764 H1749 0.960 . S
C1764 H1750 0.960 . S
C1764 H1751 0.960 . S
C1764 C1763 1.524 . S
C1765 C1762 1.403 . S
C1765 C1766 1.392 . S
C1765 C1769 1.495 . S
C1766 C1765 1.392 . S
C1766 C1767 1.385 . S
C1766 C1768 1.478 . S
C1767 H1761 0.930 . S
C1767 C1763 1.400 . S
C1767 C1766 1.385 . S
C1768 C1766 1.478 . S
C1768 C1770 1.381 . S
C1768 C1774 1.383 . S
C1769 C1765 1.495 . S
C1769 H1775 0.959 . S
C1769 H1776 0.961 . S
C1769 H1777 0.960 . S
C1770 C1768 1.381 . S
C1770 C1771 1.394 . S
C1770 H1778 0.930 . S
C1771 C1770 1.394 . S
C1771 C1772 1.383 . S
C1771 H1779 0.929 . S
C1772 C1771 1.383 . S
C1772 C1773 1.377 . S
C1773 H1757 0.930 . S
C1773 C1772 1.377 . S
C1773 C1774 1.379 . S
C1774 H1758 0.931 . S
C1774 C1768 1.383 . S
C1774 C1773 1.379 . S
H1775 C1769 0.959 . S
H1776 C1769 0.961 . S
H1777 C1769 0.960 . S
H1778 C1770 0.930 . S
H1779 C1771 0.929 . S
H1780 C1788 0.929 . S
H1781 C1790 0.930 . S
H1782 C1792 0.930 . S
H1783 C1795 0.929 . S
H1784 C1798 0.930 . S
H1785 C1800 0.960 . S
H1786 C1800 0.960 . S
H1787 C1800 0.960 . S
C1788 H1780 0.929 . S
C1788 C1789 1.377 . S
C1788 C1790 1.384 . S
C1789 C1788 1.377 . S
C1789 C1795 1.390 . S
C1790 H1781 0.930 . S
C1790 C1788 1.384 . S
C1790 C1791 1.372 . S
C1791 C1790 1.372 . S
C1791 C1792 1.400 . S
C1791 C1796 1.490 . S
C1792 H1782 0.930 . S
C1792 C1791 1.400 . S
C1792 C1795 1.386 . S
H1793 C1809 0.930 . S
H1794 C1810 0.931 . S
C1795 H1783 0.929 . S
C1795 C1789 1.390 . S
C1795 C1792 1.386 . S
C1796 C1791 1.490 . S
C1796 C1798 1.395 . S
C1796 C1799 1.403 . S
H1797 C1803 0.930 . S
C1798 H1784 0.930 . S
C1798 C1796 1.395 . S
C1798 C1801 1.403 . S
C1799 C1796 1.403 . S
C1799 C1800 1.524 . S
C1799 C1803 1.400 . S
C1800 H1785 0.960 . S
C1800 H1786 0.960 . S
C1800 H1787 0.960 . S
C1800 C1799 1.524 . S
C1801 C1798 1.403 . S
C1801 C1802 1.392 . S
C1801 C1805 1.495 . S
C1802 C1801 1.392 . S
C1802 C1803 1.385 . S
C1802 C1804 1.478 . S
C1803 H1797 0.930 . S
C1803 C1799 1.400 . S
C1803 C1802 1.385 . S
C1804 C1802 1.478 . S
C1804 C1806 1.381 . S
C1804 C1810 1.383 . S
C1805 C1801 1.495 . S
C1805 H1811 0.959 . S
C1805 H1812 0.961 . S
C1805 H1813 0.960 . S
C1806 C1804 1.381 . S
C1806 C1807 1.394 . S
C1806 H1814 0.930 . S
C1807 C1806 1.394 . S
C1807 C1808 1.383 . S
C1807 H1815 0.929 . S
C1808 C1807 1.383 . S
C1808 C1809 1.377 . S
C1809 H1793 0.930 . S
C1809 C1808 1.377 . S
C1809 C1810 1.379 . S
C1810 H1794 0.931 . S
C1810 C1804 1.383 . S
C1810 C1809 1.379 . S
H1811 C1805 0.959 . S
H1812 C1805 0.961 . S
H1813 C1805 0.960 . S
H1814 C1806 0.930 . S
H1815 C1807 0.929 . S
H1816 C1824 0.929 . S
H1817 C1826 0.930 . S
H1818 C1828 0.930 . S
H1819 C1831 0.929 . S
H1820 C1834 0.930 . S
H1821 C1836 0.960 . S
H1822 C1836 0.960 . S
H1823 C1836 0.960 . S
C1824 H1816 0.929 . S
C1824 C1825 1.377 . S
C1824 C1826 1.384 . S
C1825 C1824 1.377 . S
C1825 C1831 1.390 . S
C1826 H1817 0.930 . S
C1826 C1824 1.384 . S
C1826 C1827 1.372 . S
C1827 C1826 1.372 . S
C1827 C1828 1.400 . S
C1827 C1832 1.490 . S
C1828 H1818 0.930 . S
C1828 C1827 1.400 . S
C1828 C1831 1.386 . S
H1829 C1845 0.930 . S
H1830 C1846 0.931 . S
C1831 H1819 0.929 . S
C1831 C1825 1.390 . S
C1831 C1828 1.386 . S
C1832 C1827 1.490 . S
C1832 C1834 1.395 . S
C1832 C1835 1.403 . S
H1833 C1839 0.930 . S
C1834 H1820 0.930 . S
C1834 C1832 1.395 . S
C1834 C1837 1.403 . S
C1835 C1832 1.403 . S
C1835 C1836 1.524 . S
C1835 C1839 1.400 . S
C1836 H1821 0.960 . S
C1836 H1822 0.960 . S
C1836 H1823 0.960 . S
C1836 C1835 1.524 . S
C1837 C1834 1.403 . S
C1837 C1838 1.392 . S
C1837 C1841 1.495 . S
C1838 C1837 1.392 . S
C1838 C1839 1.385 . S
C1838 C1840 1.478 . S
C1839 H1833 0.930 . S
C1839 C1835 1.400 . S
C1839 C1838 1.385 . S
C1840 C1838 1.478 . S
C1840 C1842 1.381 . S
C1840 C1846 1.383 . S
C1841 C1837 1.495 . S
C1841 H1847 0.959 . S
C1841 H1848 0.961 . S
C1841 H1849 0.960 . S
C1842 C1840 1.381 . S
C1842 C1843 1.394 . S
C1842 H1850 0.930 . S
C1843 C1842 1.394 . S
C1843 C1844 1.383 . S
C1843 H1851 0.929 . S
C1844 C1843 1.383 . S
C1844 C1845 1.377 . S
C1845 H1829 0.930 . S
C1845 C1844 1.377 . S
C1845 C1846 1.379 . S
C1846 H1830 0.931 . S
C1846 C1840 1.383 . S
C1846 C1845 1.379 . S
H1847 C1841 0.959 . S
H1848 C1841 0.961 . S
H1849 C1841 0.960 . S
H1850 C1842 0.930 . S
H1851 C1843 0.929 . S
H1852 C1860 0.929 . S
H1853 C1862 0.930 . S
H1854 C1864 0.930 . S
H1855 C1867 0.929 . S
H1856 C1870 0.930 . S
H1857 C1872 0.960 1_655 S
H1858 C1872 0.959 . S
H1859 C1872 0.960 . S
C1860 H1852 0.929 . S
C1860 C1861 1.377 . S
C1860 C1862 1.384 . S
C1861 C1860 1.377 . S
C1861 C1867 1.390 . S
C1862 H1853 0.930 . S
C1862 C1860 1.384 . S
C1862 C1863 1.372 . S
C1863 C1862 1.372 . S
C1863 C1864 1.400 . S
C1863 C1868 1.490 . S
C1864 H1854 0.930 . S
C1864 C1863 1.400 . S
C1864 C1867 1.386 . S
H1865 C1881 0.930 . S
H1866 C1882 0.931 . S
C1867 H1855 0.929 . S
C1867 C1861 1.390 . S
C1867 C1864 1.386 . S
C1868 C1863 1.490 . S
C1868 C1870 1.395 . S
C1868 C1871 1.403 . S
H1869 C1875 0.930 . S
C1870 H1856 0.930 . S
C1870 C1868 1.395 . S
C1870 C1873 1.403 . S
C1871 C1868 1.403 . S
C1871 C1872 1.524 . S
C1871 C1875 1.400 . S
C1872 H1857 0.960 1_455 S
C1872 H1858 0.959 . S
C1872 H1859 0.960 . S
C1872 C1871 1.524 . S
C1873 C1870 1.403 . S
C1873 C1874 1.392 . S
C1873 C1877 1.495 . S
C1874 C1873 1.392 . S
C1874 C1875 1.385 . S
C1874 C1876 1.478 . S
C1875 H1869 0.930 . S
C1875 C1871 1.400 . S
C1875 C1874 1.385 . S
C1876 C1874 1.478 . S
C1876 C1878 1.381 . S
C1876 C1882 1.383 . S
C1877 C1873 1.495 . S
C1877 H1883 0.959 . S
C1877 H1884 0.961 . S
C1877 H1885 0.960 . S
C1878 C1876 1.381 . S
C1878 C1879 1.394 . S
C1878 H1886 0.930 . S
C1879 C1878 1.394 . S
C1879 C1880 1.383 . S
C1879 H1887 0.929 . S
C1880 C1879 1.383 . S
C1880 C1881 1.377 . S
C1881 H1865 0.930 . S
C1881 C1880 1.377 . S
C1881 C1882 1.379 . S
C1882 H1866 0.931 . S
C1882 C1876 1.383 . S
C1882 C1881 1.379 . S
H1883 C1877 0.959 . S
H1884 C1877 0.961 . S
H1885 C1877 0.960 . S
H1886 C1878 0.930 . S
H1887 C1879 0.929 . S
H1888 C1896 0.929 . S
H1889 C1898 0.930 . S
H1890 C1900 0.930 . S
H1891 C1903 0.929 . S
H1892 C1906 0.930 . S
H1893 C1908 0.960 . S
H1894 C1908 0.960 . S
H1895 C1908 0.960 . S
C1896 H1888 0.929 . S
C1896 C1897 1.377 . S
C1896 C1898 1.384 . S
C1897 C1896 1.377 . S
C1897 C1903 1.390 . S
C1898 H1889 0.930 . S
C1898 C1896 1.384 . S
C1898 C1899 1.372 . S
C1899 C1898 1.372 . S
C1899 C1900 1.400 . S
C1899 C1904 1.490 . S
C1900 H1890 0.930 . S
C1900 C1899 1.400 . S
C1900 C1903 1.386 . S
H1901 C1917 0.930 . S
H1902 C1918 0.931 . S
C1903 H1891 0.929 . S
C1903 C1897 1.390 . S
C1903 C1900 1.386 . S
C1904 C1899 1.490 . S
C1904 C1906 1.395 . S
C1904 C1907 1.403 . S
H1905 C1911 0.930 . S
C1906 H1892 0.930 . S
C1906 C1904 1.395 . S
C1906 C1909 1.403 . S
C1907 C1904 1.403 . S
C1907 C1908 1.524 . S
C1907 C1911 1.400 . S
C1908 H1893 0.960 . S
C1908 H1894 0.960 . S
C1908 H1895 0.960 . S
C1908 C1907 1.524 . S
C1909 C1906 1.403 . S
C1909 C1910 1.392 . S
C1909 C1913 1.495 . S
C1910 C1909 1.392 . S
C1910 C1911 1.385 . S
C1910 C1912 1.478 . S
C1911 H1905 0.930 . S
C1911 C1907 1.400 . S
C1911 C1910 1.385 . S
C1912 C1910 1.478 . S
C1912 C1914 1.381 . S
C1912 C1918 1.383 . S
C1913 C1909 1.495 . S
C1913 H1919 0.959 . S
C1913 H1920 0.961 . S
C1913 H1921 0.960 . S
C1914 C1912 1.381 . S
C1914 C1915 1.394 . S
C1914 H1922 0.930 . S
C1915 C1914 1.394 . S
C1915 C1916 1.383 . S
C1915 H1923 0.929 . S
C1916 C1915 1.383 . S
C1916 C1917 1.377 . S
C1917 H1901 0.930 . S
C1917 C1916 1.377 . S
C1917 C1918 1.379 . S
C1918 H1902 0.931 . S
C1918 C1912 1.383 . S
C1918 C1917 1.379 . S
H1919 C1913 0.959 . S
H1920 C1913 0.961 . S
H1921 C1913 0.960 . S
H1922 C1914 0.930 . S
H1923 C1915 0.929 . S
H1924 C1932 0.929 . S
H1925 C1934 0.930 . S
H1926 C1936 0.930 . S
H1927 C1939 0.929 . S
H1928 C1942 0.930 . S
H1929 C1944 0.960 . S
H1930 C1944 0.960 . S
H1931 C1944 0.960 . S
C1932 H1924 0.929 . S
C1932 C1933 1.377 . S
C1932 C1934 1.384 . S
C1933 C1932 1.377 . S
C1933 C1939 1.390 . S
C1934 H1925 0.930 . S
C1934 C1932 1.384 . S
C1934 C1935 1.372 . S
C1935 C1934 1.372 . S
C1935 C1936 1.400 . S
C1935 C1940 1.490 . S
C1936 H1926 0.930 . S
C1936 C1935 1.400 . S
C1936 C1939 1.386 . S
H1937 C1953 0.930 . S
H1938 C1954 0.931 . S
C1939 H1927 0.929 . S
C1939 C1933 1.390 . S
C1939 C1936 1.386 . S
C1940 C1935 1.490 . S
C1940 C1942 1.395 . S
C1940 C1943 1.403 . S
H1941 C1947 0.930 . S
C1942 H1928 0.930 . S
C1942 C1940 1.395 . S
C1942 C1945 1.403 . S
C1943 C1940 1.403 . S
C1943 C1944 1.524 . S
C1943 C1947 1.400 . S
C1944 H1929 0.960 . S
C1944 H1930 0.960 . S
C1944 H1931 0.960 . S
C1944 C1943 1.524 . S
C1945 C1942 1.403 . S
C1945 C1946 1.392 . S
C1945 C1949 1.495 1_655 S
C1946 C1945 1.392 . S
C1946 C1947 1.385 . S
C1946 C1948 1.478 . S
C1947 H1941 0.930 . S
C1947 C1943 1.400 . S
C1947 C1946 1.385 . S
C1948 C1946 1.478 . S
C1948 C1950 1.381 . S
C1948 C1954 1.383 . S
C1949 C1945 1.495 1_455 S
C1949 H1955 0.959 . S
C1949 H1956 0.961 . S
C1949 H1957 0.960 . S
C1950 C1948 1.381 . S
C1950 C1951 1.394 . S
C1950 H1958 0.930 . S
C1951 C1950 1.394 . S
C1951 C1952 1.383 . S
C1951 H1959 0.929 . S
C1952 C1951 1.383 . S
C1952 C1953 1.377 . S
C1953 H1937 0.930 . S
C1953 C1952 1.377 . S
C1953 C1954 1.379 . S
C1954 H1938 0.931 . S
C1954 C1948 1.383 . S
C1954 C1953 1.379 . S
H1955 C1949 0.959 . S
H1956 C1949 0.961 . S
H1957 C1949 0.960 . S
H1958 C1950 0.930 . S
H1959 C1951 0.929 . S
H1960 C1968 0.929 . S
H1961 C1970 0.930 . S
H1962 C1972 0.930 . S
H1963 C1975 0.929 . S
H1964 C1978 0.930 . S
H1965 C1980 0.960 . S
H1966 C1980 0.960 . S
H1967 C1980 0.960 . S
C1968 H1960 0.929 . S
C1968 C1969 1.377 . S
C1968 C1970 1.384 . S
C1969 C1968 1.377 . S
C1969 C1975 1.390 . S
C1970 H1961 0.930 . S
C1970 C1968 1.384 . S
C1970 C1971 1.372 . S
C1971 C1970 1.372 . S
C1971 C1972 1.400 . S
C1971 C1976 1.490 . S
C1972 H1962 0.930 . S
C1972 C1971 1.400 . S
C1972 C1975 1.386 . S
H1973 C1989 0.930 . S
H1974 C1990 0.931 . S
C1975 H1963 0.929 . S
C1975 C1969 1.390 . S
C1975 C1972 1.386 . S
C1976 C1971 1.490 . S
C1976 C1978 1.395 . S
C1976 C1979 1.403 . S
H1977 C1983 0.930 . S
C1978 H1964 0.930 . S
C1978 C1976 1.395 . S
C1978 C1981 1.403 . S
C1979 C1976 1.403 . S
C1979 C1980 1.524 . S
C1979 C1983 1.400 . S
C1980 H1965 0.960 . S
C1980 H1966 0.960 . S
C1980 H1967 0.960 . S
C1980 C1979 1.524 . S
C1981 C1978 1.403 . S
C1981 C1982 1.392 . S
C1981 C1985 1.495 . S
C1982 C1981 1.392 . S
C1982 C1983 1.385 . S
C1982 C1984 1.478 . S
C1983 H1977 0.930 . S
C1983 C1979 1.400 . S
C1983 C1982 1.385 . S
C1984 C1982 1.478 . S
C1984 C1986 1.381 . S
C1984 C1990 1.383 . S
C1985 C1981 1.495 . S
C1985 H1991 0.959 . S
C1985 H1992 0.961 . S
C1985 H1993 0.960 . S
C1986 C1984 1.381 . S
C1986 C1987 1.394 . S
C1986 H1994 0.930 . S
C1987 C1986 1.394 . S
C1987 C1988 1.383 . S
C1987 H1995 0.929 . S
C1988 C1987 1.383 . S
C1988 C1989 1.377 . S
C1989 H1973 0.930 . S
C1989 C1988 1.377 . S
C1989 C1990 1.379 . S
C1990 H1974 0.931 . S
C1990 C1984 1.383 . S
C1990 C1989 1.379 . S
H1991 C1985 0.959 . S
H1992 C1985 0.961 . S
H1993 C1985 0.960 . S
H1994 C1986 0.930 . S
H1995 C1987 0.929 . S
H1996 C2004 0.929 . S
H1997 C2006 0.930 . S
H1998 C2008 0.930 . S
H1999 C2011 0.929 . S
H2000 C2014 0.930 . S
H2001 C2016 0.960 1_455 S
H2002 C2016 0.960 . S
H2003 C2016 0.960 1_455 S
C2004 H1996 0.929 . S
C2004 C2005 1.377 . S
C2004 C2006 1.384 . S
C2005 C2004 1.377 . S
C2005 C2011 1.390 . S
C2006 H1997 0.930 . S
C2006 C2004 1.384 . S
C2006 C2007 1.372 . S
C2007 C2006 1.372 . S
C2007 C2008 1.400 . S
C2007 C2012 1.490 . S
C2008 H1998 0.930 . S
C2008 C2007 1.400 . S
C2008 C2011 1.386 . S
H2009 C2025 0.930 . S
H2010 C2026 0.931 . S
C2011 H1999 0.929 . S
C2011 C2005 1.390 . S
C2011 C2008 1.386 . S
C2012 C2007 1.490 . S
C2012 C2014 1.395 . S
C2012 C2015 1.403 . S
H2013 C2019 0.930 . S
C2014 H2000 0.930 . S
C2014 C2012 1.395 . S
C2014 C2017 1.403 . S
C2015 C2012 1.403 . S
C2015 C2016 1.524 . S
C2015 C2019 1.400 . S
C2016 H2001 0.960 1_655 S
C2016 H2002 0.960 . S
C2016 H2003 0.960 1_655 S
C2016 C2015 1.524 . S
C2017 C2014 1.403 . S
C2017 C2018 1.392 . S
C2017 C2021 1.495 . S
C2018 C2017 1.392 . S
C2018 C2019 1.385 . S
C2018 C2020 1.478 . S
C2019 H2013 0.930 . S
C2019 C2015 1.400 . S
C2019 C2018 1.385 . S
C2020 C2018 1.478 . S
C2020 C2022 1.381 . S
C2020 C2026 1.383 . S
C2021 C2017 1.495 . S
C2021 H2027 0.959 . S
C2021 H2028 0.961 . S
C2021 H2029 0.960 . S
C2022 C2020 1.381 . S
C2022 C2023 1.394 . S
C2022 H2030 0.930 . S
C2023 C2022 1.394 . S
C2023 C2024 1.383 . S
C2023 H2031 0.929 . S
C2024 C2023 1.383 . S
C2024 C2025 1.377 . S
C2025 H2009 0.930 . S
C2025 C2024 1.377 . S
C2025 C2026 1.379 . S
C2026 H2010 0.931 . S
C2026 C2020 1.383 . S
C2026 C2025 1.379 . S
H2027 C2021 0.959 . S
H2028 C2021 0.961 . S
H2029 C2021 0.960 . S
H2030 C2022 0.930 . S
H2031 C2023 0.929 . S
H2032 C2040 0.929 . S
H2033 C2042 0.930 . S
H2034 C2044 0.930 . S
H2035 C2047 0.929 . S
H2036 C2050 0.930 . S
H2037 C2052 0.960 . S
H2038 C2052 0.960 . S
H2039 C2052 0.960 . S
C2040 H2032 0.929 . S
C2040 C2041 1.377 . S
C2040 C2042 1.384 . S
C2041 C2040 1.377 . S
C2041 C2047 1.390 . S
C2042 H2033 0.930 . S
C2042 C2040 1.384 . S
C2042 C2043 1.372 . S
C2043 C2042 1.372 . S
C2043 C2044 1.400 . S
C2043 C2048 1.490 . S
C2044 H2034 0.930 . S
C2044 C2043 1.400 . S
C2044 C2047 1.386 . S
H2045 C2061 0.930 . S
H2046 C2062 0.931 . S
C2047 H2035 0.929 . S
C2047 C2041 1.390 . S
C2047 C2044 1.386 . S
C2048 C2043 1.490 . S
C2048 C2050 1.395 . S
C2048 C2051 1.403 . S
H2049 C2055 0.930 . S
C2050 H2036 0.930 . S
C2050 C2048 1.395 . S
C2050 C2053 1.403 . S
C2051 C2048 1.403 . S
C2051 C2052 1.524 . S
C2051 C2055 1.400 . S
C2052 H2037 0.960 . S
C2052 H2038 0.960 . S
C2052 H2039 0.960 . S
C2052 C2051 1.524 . S
C2053 C2050 1.403 . S
C2053 C2054 1.392 . S
C2053 C2057 1.495 . S
C2054 C2053 1.392 . S
C2054 C2055 1.385 . S
C2054 C2056 1.478 . S
C2055 H2049 0.930 . S
C2055 C2051 1.400 . S
C2055 C2054 1.385 . S
C2056 C2054 1.478 . S
C2056 C2058 1.381 . S
C2056 C2062 1.383 . S
C2057 C2053 1.495 . S
C2057 H2063 0.959 . S
C2057 H2064 0.961 . S
C2057 H2065 0.960 . S
C2058 C2056 1.381 . S
C2058 C2059 1.394 . S
C2058 H2066 0.930 . S
C2059 C2058 1.394 . S
C2059 C2060 1.383 . S
C2059 H2067 0.929 . S
C2060 C2059 1.383 . S
C2060 C2061 1.377 . S
C2061 H2045 0.930 . S
C2061 C2060 1.377 . S
C2061 C2062 1.379 . S
C2062 H2046 0.931 . S
C2062 C2056 1.383 . S
C2062 C2061 1.379 . S
H2063 C2057 0.959 . S
H2064 C2057 0.961 . S
H2065 C2057 0.960 . S
H2066 C2058 0.930 . S
H2067 C2059 0.929 . S
H2068 C2076 0.929 1_655 S
H2069 C2078 0.942 . S
H2070 C2080 0.930 . S
H2071 C2083 0.929 . S
H2072 C2086 0.930 . S
H2073 C2088 0.960 . S
H2074 C2088 0.960 . S
H2075 C2088 0.960 . S
C2076 H2068 0.929 1_455 S
C2076 C2077 1.377 . S
C2076 C2078 1.384 . S
C2077 C2076 1.377 . S
C2077 C2083 1.390 . S
C2078 H2069 0.942 . S
C2078 C2076 1.384 . S
C2078 C2079 1.372 . S
C2079 C2078 1.372 . S
C2079 C2080 1.400 . S
C2079 C2084 1.490 . S
C2080 H2070 0.930 . S
C2080 C2079 1.400 . S
C2080 C2083 1.386 . S
H2081 C2097 0.930 . S
H2082 C2098 0.931 . S
C2083 H2071 0.929 . S
C2083 C2077 1.390 . S
C2083 C2080 1.386 . S
C2084 C2079 1.490 . S
C2084 C2086 1.395 . S
C2084 C2087 1.403 . S
H2085 C2091 0.930 . S
C2086 H2072 0.930 . S
C2086 C2084 1.395 . S
C2086 C2089 1.403 . S
C2087 C2084 1.403 . S
C2087 C2088 1.524 . S
C2087 C2091 1.400 . S
C2088 H2073 0.960 . S
C2088 H2074 0.960 . S
C2088 H2075 0.960 . S
C2088 C2087 1.524 . S
C2089 C2086 1.403 . S
C2089 C2090 1.392 . S
C2089 C2093 1.495 . S
C2090 C2089 1.392 . S
C2090 C2091 1.385 . S
C2090 C2092 1.478 . S
C2091 H2085 0.930 . S
C2091 C2087 1.400 . S
C2091 C2090 1.385 . S
C2092 C2090 1.478 . S
C2092 C2094 1.381 . S
C2092 C2098 1.383 . S
C2093 C2089 1.495 . S
C2093 H2099 0.959 . S
C2093 H2100 0.961 . S
C2093 H2101 0.960 . S
C2094 C2092 1.381 . S
C2094 C2095 1.394 . S
C2094 H2102 0.930 . S
C2095 C2094 1.394 . S
C2095 C2096 1.383 . S
C2095 H2103 0.929 . S
C2096 C2095 1.383 . S
C2096 C2097 1.377 . S
C2097 H2081 0.930 . S
C2097 C2096 1.377 . S
C2097 C2098 1.379 . S
C2098 H2082 0.931 . S
C2098 C2092 1.383 . S
C2098 C2097 1.379 . S
H2099 C2093 0.959 . S
H2100 C2093 0.961 . S
H2101 C2093 0.960 . S
H2102 C2094 0.930 . S
H2103 C2095 0.929 . S
H2104 C2112 0.929 . S
H2105 C2114 0.930 . S
H2106 C2116 0.930 . S
H2107 C2119 0.929 . S
H2108 C2122 0.930 . S
H2109 C2124 0.960 . S
H2110 C2124 0.960 . S
H2111 C2124 0.960 . S
C2112 H2104 0.929 . S
C2112 C2113 1.377 . S
C2112 C2114 1.384 . S
C2113 C2112 1.377 . S
C2113 C2119 1.390 . S
C2114 H2105 0.930 . S
C2114 C2112 1.384 . S
C2114 C2115 1.372 . S
C2115 C2114 1.372 . S
C2115 C2116 1.400 . S
C2115 C2120 1.490 . S
C2116 H2106 0.930 . S
C2116 C2115 1.400 . S
C2116 C2119 1.386 . S
H2117 C2133 0.930 . S
H2118 C2134 0.931 . S
C2119 H2107 0.929 . S
C2119 C2113 1.390 . S
C2119 C2116 1.386 . S
C2120 C2115 1.490 . S
C2120 C2122 1.395 . S
C2120 C2123 1.403 . S
H2121 C2127 0.930 . S
C2122 H2108 0.930 . S
C2122 C2120 1.395 . S
C2122 C2125 1.403 . S
C2123 C2120 1.403 . S
C2123 C2124 1.524 . S
C2123 C2127 1.400 . S
C2124 H2109 0.960 . S
C2124 H2110 0.960 . S
C2124 H2111 0.960 . S
C2124 C2123 1.524 . S
C2125 C2122 1.403 . S
C2125 C2126 1.392 . S
C2125 C2129 1.495 . S
C2126 C2125 1.392 . S
C2126 C2127 1.385 . S
C2126 C2128 1.478 . S
C2127 H2121 0.930 . S
C2127 C2123 1.400 . S
C2127 C2126 1.385 . S
C2128 C2126 1.478 . S
C2128 C2130 1.381 . S
C2128 C2134 1.383 . S
C2129 C2125 1.495 . S
C2129 H2135 0.959 . S
C2129 H2136 0.961 . S
C2129 H2137 0.960 . S
C2130 C2128 1.381 . S
C2130 C2131 1.394 . S
C2130 H2138 0.930 . S
C2131 C2130 1.394 . S
C2131 C2132 1.383 . S
C2131 H2139 0.929 . S
C2132 C2131 1.383 . S
C2132 C2133 1.377 . S
C2133 H2117 0.930 . S
C2133 C2132 1.377 . S
C2133 C2134 1.379 . S
C2134 H2118 0.931 . S
C2134 C2128 1.383 . S
C2134 C2133 1.379 . S
H2135 C2129 0.959 . S
H2136 C2129 0.961 . S
H2137 C2129 0.960 . S
H2138 C2130 0.930 . S
H2139 C2131 0.929 . S
H2140 C2148 0.929 . S
H2141 C2150 0.930 . S
H2142 C2152 0.930 . S
H2143 C2155 0.929 1_655 S
H2144 C2158 0.930 . S
H2145 C2160 0.960 . S
H2146 C2160 0.960 . S
H2147 C2160 0.960 . S
C2148 H2140 0.929 . S
C2148 C2149 1.377 . S
C2148 C2150 1.384 . S
C2149 C2148 1.377 . S
C2149 C2155 1.390 . S
C2150 H2141 0.930 . S
C2150 C2148 1.384 . S
C2150 C2151 1.372 . S
C2151 C2150 1.372 . S
C2151 C2152 1.400 . S
C2151 C2156 1.490 . S
C2152 H2142 0.930 . S
C2152 C2151 1.400 . S
C2152 C2155 1.386 . S
H2153 C2169 0.930 . S
H2154 C2170 0.931 . S
C2155 H2143 0.929 1_455 S
C2155 C2149 1.390 . S
C2155 C2152 1.386 . S
C2156 C2151 1.490 . S
C2156 C2158 1.395 . S
C2156 C2159 1.403 . S
H2157 C2163 0.930 . S
C2158 H2144 0.930 . S
C2158 C2156 1.395 . S
C2158 C2161 1.403 . S
C2159 C2156 1.403 . S
C2159 C2160 1.524 . S
C2159 C2163 1.400 . S
C2160 H2145 0.960 . S
C2160 H2146 0.960 . S
C2160 H2147 0.960 . S
C2160 C2159 1.524 . S
C2161 C2158 1.403 . S
C2161 C2162 1.392 . S
C2161 C2165 1.495 . S
C2162 C2161 1.392 . S
C2162 C2163 1.385 . S
C2162 C2164 1.478 . S
C2163 H2157 0.930 . S
C2163 C2159 1.400 . S
C2163 C2162 1.385 . S
C2164 C2162 1.478 . S
C2164 C2166 1.381 . S
C2164 C2170 1.383 . S
C2165 C2161 1.495 . S
C2165 H2171 0.959 . S
C2165 H2172 0.961 . S
C2165 H2173 0.960 . S
C2166 C2164 1.381 . S
C2166 C2167 1.394 . S
C2166 H2174 0.930 . S
C2167 C2166 1.394 . S
C2167 C2168 1.383 . S
C2167 H2175 0.929 . S
C2168 C2167 1.383 . S
C2168 C2169 1.377 . S
C2169 H2153 0.930 . S
C2169 C2168 1.377 . S
C2169 C2170 1.379 . S
C2170 H2154 0.931 . S
C2170 C2164 1.383 . S
C2170 C2169 1.379 . S
H2171 C2165 0.959 . S
H2172 C2165 0.961 . S
H2173 C2165 0.960 . S
H2174 C2166 0.930 . S
H2175 C2167 0.929 . S
H2176 C2184 0.929 1_455 S
H2177 C2186 0.930 . S
H2178 C2188 0.930 . S
H2179 C2191 0.929 . S
H2180 C2194 0.930 . S
H2181 C2196 0.960 . S
H2182 C2196 0.960 . S
H2183 C2196 0.960 . S
C2184 H2176 0.929 1_655 S
C2184 C2185 1.390 . S
C2184 C2186 1.384 1_655 S
C2185 C2184 1.390 . S
C2185 C2191 1.378 1_554 S
C2186 H2177 0.930 . S
C2186 C2184 1.384 1_455 S
C2186 C2187 1.372 . S
C2187 C2186 1.372 . S
C2187 C2188 1.400 1_454 S
C2187 C2192 1.490 . S
C2188 H2178 0.930 . S
C2188 C2187 1.400 1_656 S
C2188 C2191 1.386 . S
H2189 C2205 0.927 1_556 S
H2190 C2206 0.932 . S
C2191 H2179 0.929 . S
C2191 C2185 1.378 1_556 S
C2191 C2188 1.386 . S
C2192 C2187 1.490 . S
C2192 C2194 1.395 . S
C2192 C2195 1.403 1_554 S
H2193 C2199 0.930 . S
C2194 H2180 0.930 . S
C2194 C2192 1.395 . S
C2194 C2197 1.403 . S
C2195 C2192 1.403 1_556 S
C2195 C2196 1.524 . S
C2195 C2199 1.400 . S
C2196 H2181 0.960 . S
C2196 H2182 0.960 . S
C2196 H2183 0.960 . S
C2196 C2195 1.524 . S
C2197 C2194 1.403 . S
C2197 C2198 1.392 . S
C2197 C2201 1.495 . S
C2198 C2197 1.392 . S
C2198 C2199 1.385 1_554 S
C2198 C2200 1.478 . S
C2199 H2193 0.930 . S
C2199 C2195 1.400 . S
C2199 C2198 1.385 1_556 S
C2200 C2198 1.478 . S
C2200 C2202 1.381 . S
C2200 C2206 1.383 . S
C2201 C2197 1.495 . S
C2201 H2207 0.959 . S
C2201 H2208 0.961 . S
C2201 H2209 0.960 . S
C2202 C2200 1.381 . S
C2202 C2203 1.394 . S
C2202 H2210 0.930 . S
C2203 C2202 1.394 . S
C2203 C2204 1.383 . S
C2203 H2211 0.929 . S
C2204 C2203 1.383 . S
C2204 C2205 1.379 . S
C2205 H2189 0.927 1_554 S
C2205 C2204 1.379 . S
C2205 C2206 1.381 . S
C2206 H2190 0.932 . S
C2206 C2200 1.383 . S
C2206 C2205 1.381 . S
H2207 C2201 0.959 . S
H2208 C2201 0.961 . S
H2209 C2201 0.960 . S
H2210 C2202 0.930 . S
H2211 C2203 0.929 . S
H2212 C2220 0.929 . S
H2213 C2222 0.930 . S
H2214 C2224 0.930 . S
H2215 C2227 0.929 . S
H2216 C2230 0.930 . S
H2217 C2232 0.960 . S
H2218 C2232 0.960 . S
H2219 C2232 0.960 . S
C2220 H2212 0.929 . S
C2220 C2221 1.377 . S
C2220 C2222 1.384 . S
C2221 C2220 1.377 . S
C2221 C2227 1.390 . S
C2222 H2213 0.930 . S
C2222 C2220 1.384 . S
C2222 C2223 1.372 . S
C2223 C2222 1.372 . S
C2223 C2224 1.400 . S
C2223 C2228 1.490 . S
C2224 H2214 0.930 . S
C2224 C2223 1.400 . S
C2224 C2227 1.386 . S
H2225 C2241 0.930 . S
H2226 C2242 0.931 . S
C2227 H2215 0.929 . S
C2227 C2221 1.390 . S
C2227 C2224 1.386 . S
C2228 C2223 1.490 . S
C2228 C2230 1.395 . S
C2228 C2231 1.403 . S
H2229 C2235 0.930 . S
C2230 H2216 0.930 . S
C2230 C2228 1.395 . S
C2230 C2233 1.403 . S
C2231 C2228 1.403 . S
C2231 C2232 1.524 . S
C2231 C2235 1.400 . S
C2232 H2217 0.960 . S
C2232 H2218 0.960 . S
C2232 H2219 0.960 . S
C2232 C2231 1.524 . S
C2233 C2230 1.403 . S
C2233 C2234 1.392 . S
C2233 C2237 1.495 . S
C2234 C2233 1.392 . S
C2234 C2235 1.385 . S
C2234 C2236 1.478 . S
C2235 H2229 0.930 . S
C2235 C2231 1.400 . S
C2235 C2234 1.385 . S
C2236 C2234 1.478 . S
C2236 C2238 1.381 . S
C2236 C2242 1.383 1_455 S
C2237 C2233 1.495 . S
C2237 H2243 0.959 . S
C2237 H2244 0.961 . S
C2237 H2245 0.960 . S
C2238 C2236 1.381 . S
C2238 C2239 1.394 1_455 S
C2238 H2246 0.930 . S
C2239 C2238 1.394 1_655 S
C2239 C2240 1.383 . S
C2239 H2247 0.929 1_655 S
C2240 C2239 1.383 . S
C2240 C2241 1.377 . S
C2241 H2225 0.930 . S
C2241 C2240 1.377 . S
C2241 C2242 1.379 . S
C2242 H2226 0.931 . S
C2242 C2236 1.383 1_655 S
C2242 C2241 1.379 . S
H2243 C2237 0.959 . S
H2244 C2237 0.961 . S
H2245 C2237 0.960 . S
H2246 C2238 0.930 . S
H2247 C2239 0.929 1_455 S
H2248 C2256 0.929 . S
H2249 C2258 0.930 . S
H2250 C2260 0.930 . S
H2251 C2263 0.927 1_655 S
H2252 C2266 0.930 . S
H2253 C2268 0.960 . S
H2254 C2268 0.960 . S
H2255 C2268 0.960 . S
C2256 H2248 0.929 . S
C2256 C2257 1.359 1_554 S
C2256 C2258 1.384 . S
C2257 C2256 1.359 1_556 S
C2257 C2263 1.408 . S
C2258 H2249 0.930 . S
C2258 C2256 1.384 . S
C2258 C2259 1.365 1_454 S
C2259 C2258 1.365 1_656 S
C2259 C2260 1.407 . S
C2259 C2264 1.490 . S
C2260 H2250 0.930 . S
C2260 C2259 1.407 . S
C2260 C2263 1.386 1_655 S
H2261 C2277 0.930 . S
H2262 C2278 0.931 . S
C2263 H2251 0.927 1_455 S
C2263 C2257 1.408 . S
C2263 C2260 1.386 1_455 S
C2264 C2259 1.490 . S
C2264 C2266 1.415 . S
C2264 C2267 1.384 1_556 S
H2265 C2271 0.930 . S
C2266 H2252 0.930 . S
C2266 C2264 1.415 . S
C2266 C2269 1.403 . S
C2267 C2264 1.384 1_554 S
C2267 C2268 1.524 . S
C2267 C2271 1.400 . S
C2268 H2253 0.960 . S
C2268 H2254 0.960 . S
C2268 H2255 0.960 . S
C2268 C2267 1.524 . S
C2269 C2266 1.403 . S
C2269 C2270 1.392 . S
C2269 C2273 1.495 . S
C2270 C2269 1.392 . S
C2270 C2271 1.385 1_556 S
C2270 C2272 1.478 . S
C2271 H2265 0.930 . S
C2271 C2267 1.400 . S
C2271 C2270 1.385 1_554 S
C2272 C2270 1.478 . S
C2272 C2274 1.381 1_556 S
C2272 C2278 1.383 . S
C2273 C2269 1.495 . S
C2273 H2279 0.959 . S
C2273 H2280 0.961 . S
C2273 H2281 0.960 . S
C2274 C2272 1.381 1_554 S
C2274 C2275 1.394 . S
C2274 H2282 0.930 . S
C2275 C2274 1.394 . S
C2275 C2276 1.383 1_554 S
C2275 H2283 0.929 . S
C2276 C2275 1.383 1_556 S
C2276 C2277 1.377 . S
C2277 H2261 0.930 . S
C2277 C2276 1.377 . S
C2277 C2278 1.379 . S
C2278 H2262 0.931 . S
C2278 C2272 1.383 . S
C2278 C2277 1.379 . S
H2279 C2273 0.959 . S
H2280 C2273 0.961 . S
H2281 C2273 0.960 . S
H2282 C2274 0.930 . S
H2283 C2275 0.929 . S
H2284 C2292 0.929 . S
H2285 C2294 0.930 . S
H2286 C2296 0.930 . S
H2287 C2299 0.929 . S
H2288 C2302 0.930 . S
H2289 C2304 0.960 . S
H2290 C2304 0.960 . S
H2291 C2304 0.960 . S
C2292 H2284 0.929 . S
C2292 C2293 1.377 . S
C2292 C2294 1.384 . S
C2293 C2292 1.377 . S
C2293 C2299 1.390 . S
C2294 H2285 0.930 . S
C2294 C2292 1.384 . S
C2294 C2295 1.372 . S
C2295 C2294 1.372 . S
C2295 C2296 1.400 . S
C2295 C2300 1.490 . S
C2296 H2286 0.930 . S
C2296 C2295 1.400 . S
C2296 C2299 1.386 . S
H2297 C2313 0.930 . S
H2298 C2314 0.931 . S
C2299 H2287 0.929 . S
C2299 C2293 1.390 . S
C2299 C2296 1.386 . S
C2300 C2295 1.490 . S
C2300 C2302 1.395 . S
C2300 C2303 1.403 . S
H2301 C2307 0.930 . S
C2302 H2288 0.930 . S
C2302 C2300 1.395 . S
C2302 C2305 1.403 . S
C2303 C2300 1.403 . S
C2303 C2304 1.524 . S
C2303 C2307 1.400 . S
C2304 H2289 0.960 . S
C2304 H2290 0.960 . S
C2304 H2291 0.960 . S
C2304 C2303 1.524 . S
C2305 C2302 1.403 . S
C2305 C2306 1.392 . S
C2305 C2309 1.495 . S
C2306 C2305 1.392 . S
C2306 C2307 1.385 . S
C2306 C2308 1.478 . S
C2307 H2301 0.930 . S
C2307 C2303 1.400 . S
C2307 C2306 1.385 . S
C2308 C2306 1.478 . S
C2308 C2310 1.381 . S
C2308 C2314 1.383 1_655 S
C2309 C2305 1.495 . S
C2309 H2315 0.959 . S
C2309 H2316 0.961 . S
C2309 H2317 0.960 . S
C2310 C2308 1.381 . S
C2310 C2311 1.394 1_655 S
C2310 H2318 0.930 . S
C2311 C2310 1.394 1_455 S
C2311 C2312 1.383 . S
C2311 H2319 0.929 . S
C2312 C2311 1.383 . S
C2312 C2313 1.377 . S
C2313 H2297 0.930 . S
C2313 C2312 1.377 . S
C2313 C2314 1.379 . S
C2314 H2298 0.931 . S
C2314 C2308 1.383 1_455 S
C2314 C2313 1.379 . S
H2315 C2309 0.959 . S
H2316 C2309 0.961 . S
H2317 C2309 0.960 . S
H2318 C2310 0.930 . S
H2319 C2311 0.929 . S
H2320 C2328 0.929 . S
H2321 C2330 0.933 . S
H2322 C2332 0.930 . S
H2323 C2335 0.929 . S
H2324 C2338 0.930 . S
H2325 C2340 0.960 . S
H2326 C2340 0.960 . S
H2327 C2340 0.960 . S
C2328 H2320 0.929 . S
C2328 C2329 1.377 . S
C2328 C2330 1.384 . S
C2329 C2328 1.377 . S
C2329 C2335 1.390 . S
C2330 H2321 0.933 . S
C2330 C2328 1.384 . S
C2330 C2331 1.372 1_655 S
C2331 C2330 1.372 1_455 S
C2331 C2332 1.400 . S
C2331 C2336 1.490 . S
C2332 H2322 0.930 . S
C2332 C2331 1.400 . S
C2332 C2335 1.386 1_455 S
H2333 C2349 0.930 . S
H2334 C2350 0.931 . S
C2335 H2323 0.929 . S
C2335 C2329 1.390 . S
C2335 C2332 1.386 1_655 S
C2336 C2331 1.490 . S
C2336 C2338 1.395 . S
C2336 C2339 1.403 . S
H2337 C2343 0.930 . S
C2338 H2324 0.930 . S
C2338 C2336 1.395 . S
C2338 C2341 1.403 . S
C2339 C2336 1.403 . S
C2339 C2340 1.524 . S
C2339 C2343 1.400 . S
C2340 H2325 0.960 . S
C2340 H2326 0.960 . S
C2340 H2327 0.960 . S
C2340 C2339 1.524 . S
C2341 C2338 1.403 . S
C2341 C2342 1.392 . S
C2341 C2345 1.495 . S
C2342 C2341 1.392 . S
C2342 C2343 1.385 . S
C2342 C2344 1.478 . S
C2343 H2337 0.930 . S
C2343 C2339 1.400 . S
C2343 C2342 1.385 . S
C2344 C2342 1.478 . S
C2344 C2346 1.381 . S
C2344 C2350 1.383 . S
C2345 C2341 1.495 . S
C2345 H2351 0.959 . S
C2345 H2352 0.961 . S
C2345 H2353 0.960 . S
C2346 C2344 1.381 . S
C2346 C2347 1.394 . S
C2346 H2354 0.930 . S
C2347 C2346 1.394 . S
C2347 C2348 1.383 . S
C2347 H2355 0.929 . S
C2348 C2347 1.383 . S
C2348 C2349 1.377 . S
C2349 H2333 0.930 . S
C2349 C2348 1.377 . S
C2349 C2350 1.379 . S
C2350 H2334 0.931 . S
C2350 C2344 1.383 . S
C2350 C2349 1.379 . S
H2351 C2345 0.959 . S
H2352 C2345 0.961 . S
H2353 C2345 0.960 . S
H2354 C2346 0.930 . S
H2355 C2347 0.929 . S
H2356 C2364 0.929 . S
H2357 C2366 0.930 . S
H2358 C2368 0.930 . S
H2359 C2371 0.929 . S
H2360 C2374 0.930 . S
H2361 C2376 0.960 . S
H2362 C2376 0.960 . S
H2363 C2376 0.960 . S
C2364 H2356 0.929 . S
C2364 C2365 1.377 . S
C2364 C2366 1.384 . S
C2365 C2364 1.377 . S
C2365 C2371 1.390 . S
C2366 H2357 0.930 . S
C2366 C2364 1.384 . S
C2366 C2367 1.372 . S
C2367 C2366 1.372 . S
C2367 C2368 1.400 . S
C2367 C2372 1.490 . S
C2368 H2358 0.930 . S
C2368 C2367 1.400 . S
C2368 C2371 1.386 . S
H2369 C2385 0.930 . S
H2370 C2386 0.931 1_455 S
C2371 H2359 0.929 . S
C2371 C2365 1.390 . S
C2371 C2368 1.386 . S
C2372 C2367 1.490 . S
C2372 C2374 1.395 . S
C2372 C2375 1.403 . S
H2373 C2379 0.930 . S
C2374 H2360 0.930 . S
C2374 C2372 1.395 . S
C2374 C2377 1.403 . S
C2375 C2372 1.403 . S
C2375 C2376 1.524 . S
C2375 C2379 1.400 . S
C2376 H2361 0.960 . S
C2376 H2362 0.960 . S
C2376 H2363 0.960 . S
C2376 C2375 1.524 . S
C2377 C2374 1.403 . S
C2377 C2378 1.392 . S
C2377 C2381 1.495 . S
C2378 C2377 1.392 . S
C2378 C2379 1.385 . S
C2378 C2380 1.478 . S
C2379 H2373 0.930 . S
C2379 C2375 1.400 . S
C2379 C2378 1.385 . S
C2380 C2378 1.478 . S
C2380 C2382 1.381 . S
C2380 C2386 1.383 1_455 S
C2381 C2377 1.495 . S
C2381 H2387 0.959 . S
C2381 H2388 0.961 . S
C2381 H2389 0.960 . S
C2382 C2380 1.381 . S
C2382 C2383 1.394 1_455 S
C2382 H2390 0.930 . S
C2383 C2382 1.394 1_655 S
C2383 C2384 1.383 . S
C2383 H2391 0.929 . S
C2384 C2383 1.383 . S
C2384 C2385 1.377 . S
C2385 H2369 0.930 . S
C2385 C2384 1.377 . S
C2385 C2386 1.379 . S
C2386 H2370 0.931 1_655 S
C2386 C2380 1.383 1_655 S
C2386 C2385 1.379 . S
H2387 C2381 0.959 . S
H2388 C2381 0.961 . S
H2389 C2381 0.960 . S
H2390 C2382 0.930 . S
H2391 C2383 0.929 . S
H2392 C2400 0.929 . S
H2393 C2402 0.930 . S
H2394 C2404 0.930 . S
H2395 C2407 0.929 . S
H2396 C2410 0.930 . S
H2397 C2412 0.960 . S
H2398 C2412 0.960 . S
H2399 C2412 0.960 . S
C2400 H2392 0.929 . S
C2400 C2401 1.377 . S
C2400 C2402 1.384 . S
C2401 C2400 1.377 . S
C2401 C2407 1.390 . S
C2402 H2393 0.930 . S
C2402 C2400 1.384 . S
C2402 C2403 1.372 . S
C2403 C2402 1.372 . S
C2403 C2404 1.400 . S
C2403 C2408 1.490 . S
C2404 H2394 0.930 . S
C2404 C2403 1.400 . S
C2404 C2407 1.386 . S
H2405 C2421 0.930 . S
H2406 C2422 0.931 . S
C2407 H2395 0.929 . S
C2407 C2401 1.390 . S
C2407 C2404 1.386 . S
C2408 C2403 1.490 . S
C2408 C2410 1.395 . S
C2408 C2411 1.403 . S
H2409 C2415 0.930 . S
C2410 H2396 0.930 . S
C2410 C2408 1.395 . S
C2410 C2413 1.403 . S
C2411 C2408 1.403 . S
C2411 C2412 1.524 . S
C2411 C2415 1.400 . S
C2412 H2397 0.960 . S
C2412 H2398 0.960 . S
C2412 H2399 0.960 . S
C2412 C2411 1.524 . S
C2413 C2410 1.403 . S
C2413 C2414 1.392 . S
C2413 C2417 1.495 . S
C2414 C2413 1.392 . S
C2414 C2415 1.385 . S
C2414 C2416 1.478 . S
C2415 H2409 0.930 . S
C2415 C2411 1.400 . S
C2415 C2414 1.385 . S
C2416 C2414 1.478 . S
C2416 C2418 1.381 . S
C2416 C2422 1.383 1_655 S
C2417 C2413 1.495 . S
C2417 H2423 0.959 . S
C2417 H2424 0.961 . S
C2417 H2425 0.960 . S
C2418 C2416 1.381 . S
C2418 C2419 1.394 1_655 S
C2418 H2426 0.930 . S
C2419 C2418 1.394 1_455 S
C2419 C2420 1.383 . S
C2419 H2427 0.929 . S
C2420 C2419 1.383 . S
C2420 C2421 1.377 . S
C2421 H2405 0.930 . S
C2421 C2420 1.377 . S
C2421 C2422 1.379 . S
C2422 H2406 0.931 . S
C2422 C2416 1.383 1_455 S
C2422 C2421 1.379 . S
H2423 C2417 0.959 . S
H2424 C2417 0.961 . S
H2425 C2417 0.960 . S
H2426 C2418 0.930 . S
H2427 C2419 0.929 . S
H2428 C2436 0.929 . S
H2429 C2438 0.930 . S
H2430 C2440 0.930 . S
H2431 C2443 0.929 . S
H2432 C2446 0.930 . S
H2433 C2448 0.960 . S
H2434 C2448 0.960 . S
H2435 C2448 0.960 . S
C2436 H2428 0.929 . S
C2436 C2437 1.377 . S
C2436 C2438 1.384 . S
C2437 C2436 1.377 . S
C2437 C2443 1.390 . S
C2438 H2429 0.930 . S
C2438 C2436 1.384 . S
C2438 C2439 1.372 . S
C2439 C2438 1.372 . S
C2439 C2440 1.400 . S
C2439 C2444 1.490 . S
C2440 H2430 0.930 . S
C2440 C2439 1.400 . S
C2440 C2443 1.386 . S
H2441 C2457 0.930 . S
H2442 C2458 0.931 1_655 S
C2443 H2431 0.929 . S
C2443 C2437 1.390 . S
C2443 C2440 1.386 . S
C2444 C2439 1.490 . S
C2444 C2446 1.395 . S
C2444 C2447 1.403 . S
H2445 C2451 0.930 . S
C2446 H2432 0.930 . S
C2446 C2444 1.395 . S
C2446 C2449 1.403 . S
C2447 C2444 1.403 . S
C2447 C2448 1.524 . S
C2447 C2451 1.400 . S
C2448 H2433 0.960 . S
C2448 H2434 0.960 . S
C2448 H2435 0.960 . S
C2448 C2447 1.524 . S
C2449 C2446 1.403 . S
C2449 C2450 1.392 . S
C2449 C2453 1.495 . S
C2450 C2449 1.392 . S
C2450 C2451 1.385 . S
C2450 C2452 1.478 . S
C2451 H2445 0.930 . S
C2451 C2447 1.400 . S
C2451 C2450 1.385 . S
C2452 C2450 1.478 . S
C2452 C2454 1.381 . S
C2452 C2458 1.383 1_655 S
C2453 C2449 1.495 . S
C2453 H2459 0.959 . S
C2453 H2460 0.961 . S
C2453 H2461 0.960 . S
C2454 C2452 1.381 . S
C2454 C2455 1.394 1_655 S
C2454 H2462 0.930 . S
C2455 C2454 1.394 1_455 S
C2455 C2456 1.383 . S
C2455 H2463 0.929 . S
C2456 C2455 1.383 . S
C2456 C2457 1.377 . S
C2457 H2441 0.930 . S
C2457 C2456 1.377 . S
C2457 C2458 1.379 . S
C2458 H2442 0.931 1_455 S
C2458 C2452 1.383 1_455 S
C2458 C2457 1.379 . S
H2459 C2453 0.959 . S
H2460 C2453 0.961 . S
H2461 C2453 0.960 . S
H2462 C2454 0.930 . S
H2463 C2455 0.929 . S
H2464 C2472 0.929 . S
H2465 C2474 0.930 . S
H2466 C2476 0.930 . S
H2467 C2479 0.929 . S
H2468 C2482 0.930 . S
H2469 C2484 0.960 . S
H2470 C2484 0.960 . S
H2471 C2484 0.960 . S
C2472 H2464 0.929 . S
C2472 C2473 1.377 . S
C2472 C2474 1.384 . S
C2473 C2472 1.377 . S
C2473 C2479 1.390 . S
C2474 H2465 0.930 . S
C2474 C2472 1.384 . S
C2474 C2475 1.372 . S
C2475 C2474 1.372 . S
C2475 C2476 1.400 . S
C2475 C2480 1.490 . S
C2476 H2466 0.930 . S
C2476 C2475 1.400 . S
C2476 C2479 1.386 . S
H2477 C2493 0.930 . S
H2478 C2494 0.931 . S
C2479 H2467 0.929 . S
C2479 C2473 1.390 . S
C2479 C2476 1.386 . S
C2480 C2475 1.490 . S
C2480 C2482 1.395 . S
C2480 C2483 1.403 . S
H2481 C2487 0.930 . S
C2482 H2468 0.930 . S
C2482 C2480 1.395 . S
C2482 C2485 1.403 . S
C2483 C2480 1.403 . S
C2483 C2484 1.524 . S
C2483 C2487 1.400 . S
C2484 H2469 0.960 . S
C2484 H2470 0.960 . S
C2484 H2471 0.960 . S
C2484 C2483 1.524 . S
C2485 C2482 1.403 . S
C2485 C2486 1.392 . S
C2485 C2489 1.495 . S
C2486 C2485 1.392 . S
C2486 C2487 1.385 . S
C2486 C2488 1.478 . S
C2487 H2481 0.930 . S
C2487 C2483 1.400 . S
C2487 C2486 1.385 . S
C2488 C2486 1.478 . S
C2488 C2490 1.381 . S
C2488 C2494 1.383 . S
C2489 C2485 1.495 . S
C2489 H2495 0.959 . S
C2489 H2496 0.961 . S
C2489 H2497 0.960 . S
C2490 C2488 1.381 . S
C2490 C2491 1.394 . S
C2490 H2498 0.930 . S
C2491 C2490 1.394 . S
C2491 C2492 1.383 . S
C2491 H2499 0.929 . S
C2492 C2491 1.383 . S
C2492 C2493 1.377 . S
C2493 H2477 0.930 . S
C2493 C2492 1.377 . S
C2493 C2494 1.379 . S
C2494 H2478 0.931 . S
C2494 C2488 1.383 . S
C2494 C2493 1.379 . S
H2495 C2489 0.959 . S
H2496 C2489 0.961 . S
H2497 C2489 0.960 . S
H2498 C2490 0.930 . S
H2499 C2491 0.929 . S
H2500 C2508 0.929 . S
H2501 C2510 0.930 . S
H2502 C2512 0.930 . S
H2503 C2515 0.929 . S
H2504 C2518 0.930 . S
H2505 C2520 0.960 . S
H2506 C2520 0.960 . S
H2507 C2520 0.960 . S
C2508 H2500 0.929 . S
C2508 C2509 1.377 . S
C2508 C2510 1.384 . S
C2509 C2508 1.377 . S
C2509 C2515 1.390 . S
C2510 H2501 0.930 . S
C2510 C2508 1.384 . S
C2510 C2511 1.372 . S
C2511 C2510 1.372 . S
C2511 C2512 1.400 . S
C2511 C2516 1.490 . S
C2512 H2502 0.930 . S
C2512 C2511 1.400 . S
C2512 C2515 1.386 . S
H2513 C2529 0.930 . S
H2514 C2530 0.931 . S
C2515 H2503 0.929 . S
C2515 C2509 1.390 . S
C2515 C2512 1.386 . S
C2516 C2511 1.490 . S
C2516 C2518 1.395 . S
C2516 C2519 1.403 . S
H2517 C2523 0.930 . S
C2518 H2504 0.930 . S
C2518 C2516 1.395 . S
C2518 C2521 1.403 . S
C2519 C2516 1.403 . S
C2519 C2520 1.524 . S
C2519 C2523 1.400 . S
C2520 H2505 0.960 . S
C2520 H2506 0.960 . S
C2520 H2507 0.960 . S
C2520 C2519 1.524 . S
C2521 C2518 1.403 . S
C2521 C2522 1.392 . S
C2521 C2525 1.495 . S
C2522 C2521 1.392 . S
C2522 C2523 1.385 . S
C2522 C2524 1.478 . S
C2523 H2517 0.930 . S
C2523 C2519 1.400 . S
C2523 C2522 1.385 . S
C2524 C2522 1.478 . S
C2524 C2526 1.381 . S
C2524 C2530 1.383 . S
C2525 C2521 1.495 . S
C2525 H2531 0.959 . S
C2525 H2532 0.961 . S
C2525 H2533 0.960 . S
C2526 C2524 1.381 . S
C2526 C2527 1.394 . S
C2526 H2534 0.930 . S
C2527 C2526 1.394 . S
C2527 C2528 1.383 . S
C2527 H2535 0.929 . S
C2528 C2527 1.383 . S
C2528 C2529 1.377 . S
C2529 H2513 0.930 . S
C2529 C2528 1.377 . S
C2529 C2530 1.379 . S
C2530 H2514 0.931 . S
C2530 C2524 1.383 . S
C2530 C2529 1.379 . S
H2531 C2525 0.959 . S
H2532 C2525 0.961 . S
H2533 C2525 0.960 . S
H2534 C2526 0.930 . S
H2535 C2527 0.929 . S
H2536 C2544 0.929 . S
H2537 C2546 0.930 . S
H2538 C2548 0.930 . S
H2539 C2551 0.929 . S
H2540 C2554 0.930 . S
H2541 C2556 0.960 . S
H2542 C2556 0.960 . S
H2543 C2556 0.960 . S
C2544 H2536 0.929 . S
C2544 C2545 1.377 . S
C2544 C2546 1.384 . S
C2545 C2544 1.377 . S
C2545 C2551 1.390 . S
C2546 H2537 0.930 . S
C2546 C2544 1.384 . S
C2546 C2547 1.372 . S
C2547 C2546 1.372 . S
C2547 C2548 1.400 . S
C2547 C2552 1.490 . S
C2548 H2538 0.930 . S
C2548 C2547 1.400 . S
C2548 C2551 1.386 . S
H2549 C2565 0.930 . S
H2550 C2566 0.931 . S
C2551 H2539 0.929 . S
C2551 C2545 1.390 . S
C2551 C2548 1.386 . S
C2552 C2547 1.490 . S
C2552 C2554 1.395 . S
C2552 C2555 1.403 . S
H2553 C2559 0.930 . S
C2554 H2540 0.930 . S
C2554 C2552 1.395 . S
C2554 C2557 1.403 . S
C2555 C2552 1.403 . S
C2555 C2556 1.524 . S
C2555 C2559 1.400 . S
C2556 H2541 0.960 . S
C2556 H2542 0.960 . S
C2556 H2543 0.960 . S
C2556 C2555 1.524 . S
C2557 C2554 1.403 . S
C2557 C2558 1.392 . S
C2557 C2561 1.495 . S
C2558 C2557 1.392 . S
C2558 C2559 1.385 . S
C2558 C2560 1.478 . S
C2559 H2553 0.930 . S
C2559 C2555 1.400 . S
C2559 C2558 1.385 . S
C2560 C2558 1.478 . S
C2560 C2562 1.381 . S
C2560 C2566 1.383 . S
C2561 C2557 1.495 . S
C2561 H2567 0.959 . S
C2561 H2568 0.961 . S
C2561 H2569 0.960 . S
C2562 C2560 1.381 . S
C2562 C2563 1.394 . S
C2562 H2570 0.930 . S
C2563 C2562 1.394 . S
C2563 C2564 1.383 . S
C2563 H2571 0.929 . S
C2564 C2563 1.383 . S
C2564 C2565 1.377 . S
C2565 H2549 0.930 . S
C2565 C2564 1.377 . S
C2565 C2566 1.379 . S
C2566 H2550 0.931 . S
C2566 C2560 1.383 . S
C2566 C2565 1.379 . S
H2567 C2561 0.959 . S
H2568 C2561 0.961 . S
H2569 C2561 0.960 . S
H2570 C2562 0.930 . S
H2571 C2563 0.929 . S
H2572 C2580 0.929 . S
H2573 C2582 0.930 . S
H2574 C2584 0.930 . S
H2575 C2587 0.929 . S
H2576 C2590 0.930 . S
H2577 C2592 0.960 . S
H2578 C2592 0.960 . S
H2579 C2592 0.960 . S
C2580 H2572 0.929 . S
C2580 C2581 1.377 . S
C2580 C2582 1.384 . S
C2581 C2580 1.377 . S
C2581 C2587 1.390 . S
C2582 H2573 0.930 . S
C2582 C2580 1.384 . S
C2582 C2583 1.372 . S
C2583 C2582 1.372 . S
C2583 C2584 1.400 . S
C2583 C2588 1.490 . S
C2584 H2574 0.930 . S
C2584 C2583 1.400 . S
C2584 C2587 1.386 . S
H2585 C2601 0.930 . S
H2586 C2602 0.931 . S
C2587 H2575 0.929 . S
C2587 C2581 1.390 . S
C2587 C2584 1.386 . S
C2588 C2583 1.490 . S
C2588 C2590 1.395 . S
C2588 C2591 1.403 . S
H2589 C2595 0.930 . S
C2590 H2576 0.930 . S
C2590 C2588 1.395 . S
C2590 C2593 1.403 . S
C2591 C2588 1.403 . S
C2591 C2592 1.524 . S
C2591 C2595 1.400 . S
C2592 H2577 0.960 . S
C2592 H2578 0.960 . S
C2592 H2579 0.960 . S
C2592 C2591 1.524 . S
C2593 C2590 1.403 . S
C2593 C2594 1.392 . S
C2593 C2597 1.495 . S
C2594 C2593 1.392 . S
C2594 C2595 1.385 . S
C2594 C2596 1.478 . S
C2595 H2589 0.930 . S
C2595 C2591 1.400 . S
C2595 C2594 1.385 . S
C2596 C2594 1.478 . S
C2596 C2598 1.381 . S
C2596 C2602 1.383 . S
C2597 C2593 1.495 . S
C2597 H2603 0.959 . S
C2597 H2604 0.961 . S
C2597 H2605 0.960 . S
C2598 C2596 1.381 . S
C2598 C2599 1.394 . S
C2598 H2606 0.930 . S
C2599 C2598 1.394 . S
C2599 C2600 1.383 . S
C2599 H2607 0.929 . S
C2600 C2599 1.383 . S
C2600 C2601 1.377 . S
C2601 H2585 0.930 . S
C2601 C2600 1.377 . S
C2601 C2602 1.379 . S
C2602 H2586 0.931 . S
C2602 C2596 1.383 . S
C2602 C2601 1.379 . S
H2603 C2597 0.959 . S
H2604 C2597 0.961 . S
H2605 C2597 0.960 . S
H2606 C2598 0.930 . S
H2607 C2599 0.929 . S
H2608 C2616 0.929 . S
H2609 C2618 0.930 . S
H2610 C2620 0.930 . S
H2611 C2623 0.929 . S
H2612 C2626 0.930 . S
H2613 C2628 0.960 . S
H2614 C2628 0.960 . S
H2615 C2628 0.960 . S
C2616 H2608 0.929 . S
C2616 C2617 1.359 1_556 S
C2616 C2618 1.384 . S
C2617 C2616 1.359 1_554 S
C2617 C2623 1.409 . S
C2618 H2609 0.930 . S
C2618 C2616 1.384 . S
C2618 C2619 1.365 1_556 S
C2619 C2618 1.365 1_554 S
C2619 C2620 1.407 . S
C2619 C2624 1.490 . S
C2620 H2610 0.930 . S
C2620 C2619 1.407 . S
C2620 C2623 1.386 . S
H2621 C2637 0.930 . S
H2622 C2638 0.931 . S
C2623 H2611 0.929 . S
C2623 C2617 1.409 . S
C2623 C2620 1.386 . S
C2624 C2619 1.490 . S
C2624 C2626 1.415 . S
C2624 C2627 1.384 1_554 S
H2625 C2631 0.930 . S
C2626 H2612 0.930 . S
C2626 C2624 1.415 . S
C2626 C2629 1.403 . S
C2627 C2624 1.384 1_556 S
C2627 C2628 1.524 . S
C2627 C2631 1.400 . S
C2628 H2613 0.960 . S
C2628 H2614 0.960 . S
C2628 H2615 0.960 . S
C2628 C2627 1.524 . S
C2629 C2626 1.403 . S
C2629 C2630 1.392 . S
C2629 C2633 1.495 . S
C2630 C2629 1.392 . S
C2630 C2631 1.385 1_554 S
C2630 C2632 1.478 . S
C2631 H2625 0.930 . S
C2631 C2627 1.400 . S
C2631 C2630 1.385 1_556 S
C2632 C2630 1.478 . S
C2632 C2634 1.381 1_554 S
C2632 C2638 1.383 . S
C2633 C2629 1.495 . S
C2633 H2639 0.959 . S
C2633 H2640 0.961 . S
C2633 H2641 0.960 . S
C2634 C2632 1.381 1_556 S
C2634 C2635 1.394 . S
C2634 H2642 0.930 . S
C2635 C2634 1.394 . S
C2635 C2636 1.383 1_556 S
C2635 H2643 0.929 . S
C2636 C2635 1.383 1_554 S
C2636 C2637 1.377 . S
C2637 H2621 0.930 . S
C2637 C2636 1.377 . S
C2637 C2638 1.379 . S
C2638 H2622 0.931 . S
C2638 C2632 1.383 . S
C2638 C2637 1.379 . S
H2639 C2633 0.959 . S
H2640 C2633 0.961 . S
H2641 C2633 0.960 . S
H2642 C2634 0.930 . S
H2643 C2635 0.929 . S
H2644 C2652 0.929 . S
H2645 C2654 0.930 . S
H2646 C2656 0.930 . S
H2647 C2659 0.929 . S
H2648 C2662 0.930 . S
H2649 C2664 0.960 . S
H2650 C2664 0.960 . S
H2651 C2664 0.960 . S
C2652 H2644 0.929 . S
C2652 C2653 1.377 . S
C2652 C2654 1.384 . S
C2653 C2652 1.377 . S
C2653 C2659 1.390 . S
C2654 H2645 0.930 . S
C2654 C2652 1.384 . S
C2654 C2655 1.372 . S
C2655 C2654 1.372 . S
C2655 C2656 1.400 . S
C2655 C2660 1.490 . S
C2656 H2646 0.930 . S
C2656 C2655 1.400 . S
C2656 C2659 1.386 . S
H2657 C2673 0.930 . S
H2658 C2674 0.931 . S
C2659 H2647 0.929 . S
C2659 C2653 1.390 . S
C2659 C2656 1.386 . S
C2660 C2655 1.490 . S
C2660 C2662 1.395 . S
C2660 C2663 1.403 . S
H2661 C2667 0.930 . S
C2662 H2648 0.930 . S
C2662 C2660 1.395 . S
C2662 C2665 1.403 . S
C2663 C2660 1.403 . S
C2663 C2664 1.524 . S
C2663 C2667 1.400 . S
C2664 H2649 0.960 . S
C2664 H2650 0.960 . S
C2664 H2651 0.960 . S
C2664 C2663 1.524 . S
C2665 C2662 1.403 . S
C2665 C2666 1.392 . S
C2665 C2669 1.495 . S
C2666 C2665 1.392 . S
C2666 C2667 1.385 . S
C2666 C2668 1.478 . S
C2667 H2661 0.930 . S
C2667 C2663 1.400 . S
C2667 C2666 1.385 . S
C2668 C2666 1.478 . S
C2668 C2670 1.381 . S
C2668 C2674 1.383 . S
C2669 C2665 1.495 . S
C2669 H2675 0.959 . S
C2669 H2676 0.961 . S
C2669 H2677 0.960 . S
C2670 C2668 1.381 . S
C2670 C2671 1.394 . S
C2670 H2678 0.930 . S
C2671 C2670 1.394 . S
C2671 C2672 1.383 . S
C2671 H2679 0.929 . S
C2672 C2671 1.383 . S
C2672 C2673 1.377 . S
C2673 H2657 0.930 . S
C2673 C2672 1.377 . S
C2673 C2674 1.379 . S
C2674 H2658 0.931 . S
C2674 C2668 1.383 . S
C2674 C2673 1.379 . S
H2675 C2669 0.959 . S
H2676 C2669 0.961 . S
H2677 C2669 0.960 . S
H2678 C2670 0.930 . S
H2679 C2671 0.929 . S
H2680 C2688 0.929 . S
H2681 C2690 0.930 . S
H2682 C2692 0.930 . S
H2683 C2695 0.929 . S
H2684 C2698 0.930 . S
H2685 C2700 0.960 . S
H2686 C2700 0.960 . S
H2687 C2700 0.960 . S
C2688 H2680 0.929 . S
C2688 C2689 1.377 . S
C2688 C2690 1.384 . S
C2689 C2688 1.377 . S
C2689 C2695 1.390 1_556 S
C2690 H2681 0.930 . S
C2690 C2688 1.384 . S
C2690 C2691 1.372 . S
C2691 C2690 1.372 . S
C2691 C2692 1.400 1_556 S
C2691 C2696 1.490 . S
C2692 H2682 0.930 . S
C2692 C2691 1.400 1_554 S
C2692 C2695 1.386 . S
H2693 C2709 0.930 . S
H2694 C2710 0.931 . S
C2695 H2683 0.929 . S
C2695 C2689 1.390 1_554 S
C2695 C2692 1.386 . S
C2696 C2691 1.490 . S
C2696 C2698 1.395 1_556 S
C2696 C2699 1.403 . S
H2697 C2703 0.930 . S
C2698 H2684 0.930 . S
C2698 C2696 1.395 1_554 S
C2698 C2701 1.403 . S
C2699 C2696 1.403 . S
C2699 C2700 1.524 . S
C2699 C2703 1.400 . S
C2700 H2685 0.960 . S
C2700 H2686 0.960 . S
C2700 H2687 0.960 . S
C2700 C2699 1.524 . S
C2701 C2698 1.403 . S
C2701 C2702 1.391 1_554 S
C2701 C2705 1.495 . S
C2702 C2701 1.391 1_556 S
C2702 C2703 1.387 . S
C2702 C2704 1.477 1_556 S
C2703 H2697 0.930 . S
C2703 C2699 1.400 . S
C2703 C2702 1.387 . S
C2704 C2702 1.477 1_554 S
C2704 C2706 1.372 1_554 S
C2704 C2710 1.392 . S
C2705 C2701 1.495 . S
C2705 H2711 0.959 . S
C2705 H2712 0.961 . S
C2705 H2713 0.960 . S
C2706 C2704 1.372 1_556 S
C2706 C2707 1.394 . S
C2706 H2714 0.930 . S
C2707 C2706 1.394 . S
C2707 C2708 1.396 . S
C2707 H2715 0.929 . S
C2708 C2707 1.396 . S
C2708 C2709 1.364 1_556 S
C2709 H2693 0.930 . S
C2709 C2708 1.364 1_554 S
C2709 C2710 1.379 . S
C2710 H2694 0.931 . S
C2710 C2704 1.392 . S
C2710 C2709 1.379 . S
H2711 C2705 0.959 . S
H2712 C2705 0.961 . S
H2713 C2705 0.960 . S
H2714 C2706 0.930 . S
H2715 C2707 0.929 . S
H2716 C2724 0.929 . S
H2717 C2726 0.930 . S
H2718 C2728 0.930 . S
H2719 C2731 0.929 . S
H2720 C2734 0.930 . S
H2721 C2736 0.960 . S
H2722 C2736 0.960 . S
H2723 C2736 0.960 . S
C2724 H2716 0.929 . S
C2724 C2725 1.377 . S
C2724 C2726 1.384 . S
C2725 C2724 1.377 . S
C2725 C2731 1.390 . S
C2726 H2717 0.930 . S
C2726 C2724 1.384 . S
C2726 C2727 1.372 . S
C2727 C2726 1.372 . S
C2727 C2728 1.400 . S
C2727 C2732 1.490 . S
C2728 H2718 0.930 . S
C2728 C2727 1.400 . S
C2728 C2731 1.386 . S
H2729 C2745 0.930 . S
H2730 C2746 0.931 . S
C2731 H2719 0.929 . S
C2731 C2725 1.390 . S
C2731 C2728 1.386 . S
C2732 C2727 1.490 . S
C2732 C2734 1.395 . S
C2732 C2735 1.403 . S
H2733 C2739 0.930 . S
C2734 H2720 0.930 . S
C2734 C2732 1.395 . S
C2734 C2737 1.403 . S
C2735 C2732 1.403 . S
C2735 C2736 1.524 . S
C2735 C2739 1.400 . S
C2736 H2721 0.960 . S
C2736 H2722 0.960 . S
C2736 H2723 0.960 . S
C2736 C2735 1.524 . S
C2737 C2734 1.403 . S
C2737 C2738 1.392 . S
C2737 C2741 1.495 . S
C2738 C2737 1.392 . S
C2738 C2739 1.385 . S
C2738 C2740 1.478 . S
C2739 H2733 0.930 . S
C2739 C2735 1.400 . S
C2739 C2738 1.385 . S
C2740 C2738 1.478 . S
C2740 C2742 1.381 . S
C2740 C2746 1.383 . S
C2741 C2737 1.495 . S
C2741 H2747 0.959 . S
C2741 H2748 0.961 . S
C2741 H2749 0.960 . S
C2742 C2740 1.381 . S
C2742 C2743 1.394 . S
C2742 H2750 0.930 . S
C2743 C2742 1.394 . S
C2743 C2744 1.383 . S
C2743 H2751 0.929 . S
C2744 C2743 1.383 . S
C2744 C2745 1.377 . S
C2745 H2729 0.930 . S
C2745 C2744 1.377 . S
C2745 C2746 1.379 . S
C2746 H2730 0.931 . S
C2746 C2740 1.383 . S
C2746 C2745 1.379 . S
H2747 C2741 0.959 . S
H2748 C2741 0.961 . S
H2749 C2741 0.960 . S
H2750 C2742 0.930 . S
H2751 C2743 0.929 . S
C457 C7 1.092 . S
C476 C49 1.086 . S
C493 C35 1.092 . S
C512 C21 1.085 . S
C529 C105 1.089 . S
C548 C63 1.078 . S
C565 C91 1.089 . S
C584 C77 1.077 . S
C601 C119 1.094 . S
C620 C161 1.078 . S
C637 C133 1.091 . S
C656 C147 1.089 . S
C673 C217 1.091 . S
C692 C175 1.078 . S
C709 C203 1.090 . S
C728 C189 1.097 . S
C745 C231 1.089 . S
C764 C273 1.100 . S
C781 C245 1.093 . S
C800 C259 1.077 . S
C817 C287 1.093 . S
C836 C329 1.082 . S
C853 C301 1.089 . S
C872 C315 1.094 . S
C889 C343 1.090 . S
C908 C385 1.093 . S
C925 C371 1.089 . S
C944 C357 1.098 . S
C961 C441 1.090 . S
C980 C399 1.098 . S
C997 C427 1.090 . S
C1016 C413 1.098 . S
C1033 C6 1.813 . S
C1052 C62 1.822 . S
C1069 C412 1.816 . S
C1088 C20 1.827 . S
C1105 C34 1.815 . S
C1124 C202 1.826 . S
C1141 C328 1.817 . S
C1160 C48 1.807 . S
C1177 C356 1.814 . S
C1196 C76 1.794 . S
C1213 C90 1.817 . S
C1232 C146 1.819 . S
C1249 C104 1.817 . S
C1268 C272 1.809 . S
C1285 C174 1.816 . S
C1304 C118 1.813 . S
C1321 C300 1.812 . S
C1340 C132 1.822 . S
C1357 C160 1.817 . S
C1376 C440 1.822 . S
C1393 C188 1.814 . S
C1412 C244 1.800 . S
C1429 C216 1.814 . S
C1448 C384 1.796 . S
C1465 C286 1.815 . S
C1484 C230 1.821 . S
C1501 C258 1.811 . S
C1520 C426 1.802 . S
C1537 C314 1.814 . S
C1556 C370 1.795 . S
C1573 C398 1.817 . S
C1592 C342 1.803 . S
C1609 C8 1.366 . S
C1628 C274 1.344 . S
C1645 C22 1.363 . S
C1664 C260 1.386 . S
C1681 C246 1.365 . S
C1700 C36 1.391 . S
C1717 C232 1.360 . S
C1736 C50 1.376 . S
C1753 C64 1.370 . S
C1772 C330 1.387 . S
C1789 C78 1.357 . S
C1808 C316 1.359 . S
C1825 C92 1.361 . S
C1844 C302 1.387 . S
C1861 C288 1.358 . S
C1880 C106 1.330 . S
C1897 C120 1.357 . S
C1916 C386 1.335 . S
C1933 C372 1.368 . S
C1952 C134 1.392 . S
C1969 C358 1.358 . S
C1988 C148 1.329 . S
C2005 C162 1.364 . S
C2024 C344 1.388 . S
C2041 C176 1.369 . S
C2060 C442 1.385 . S
C2077 C190 1.368 . S
C2096 C428 1.345 . S
C2113 C414 1.359 . S
C2132 C204 1.375 . S
C2149 C218 1.360 . S
C2168 C400 1.381 . S
C2185 C23 1.330 . S
C2204 C9 1.334 . S
C2221 C37 1.341 . S
C2240 C51 1.319 . S
C2257 C79 1.340 . S
C2276 C65 1.286 . S
C2293 C93 1.333 . S
C2312 C107 1.281 . S
C2329 C135 1.326 . S
C2348 C121 1.279 . S
C2365 C149 1.330 . S
C2384 C163 1.282 . S
C2401 C177 1.337 . S
C2420 C191 1.289 . S
C2437 C205 1.331 . S
C2456 C219 1.282 . S
C2473 C233 1.325 . S
C2492 C247 1.337 . S
C2509 C275 1.338 . S
C2528 C261 1.376 . S
C2545 C289 1.323 . S
C2564 C303 1.295 . S
C2581 C331 1.336 . S
C2600 C317 1.382 . S
C2617 C359 1.336 . S
C2636 C345 1.368 . S
C2653 C373 1.345 . S
C2672 C387 1.381 . S
C2689 C401 1.332 . S
C2708 C415 1.380 . S
C2725 C443 1.343 . S
C2744 C429 1.311 . S
