# Generated by pormake.
# Topology zfh, (5)-cn, num edge types: 1
# Building blocks:
#     Node 0, Type 0, BuildingBlock: XOMCOT_clean_sbu_1, # of connection points: 5
#     Node 1, Type 0, BuildingBlock: XOMCOT_clean_sbu_1, # of connection points: 5
#     Node 2, Type 0, BuildingBlock: XOMCOT_clean_sbu_1, # of connection points: 5
#     Node 3, Type 0, BuildingBlock: XOMCOT_clean_sbu_1, # of connection points: 5
#     Node 4, Type 0, BuildingBlock: XOMCOT_clean_sbu_1, # of connection points: 5
#     Node 5, Type 0, BuildingBlock: XOMCOT_clean_sbu_1, # of connection points: 5
#     Node 6, Type 0, BuildingBlock: XOMCOT_clean_sbu_1, # of connection points: 5
#     Node 7, Type 0, BuildingBlock: XOMCOT_clean_sbu_1, # of connection points: 5
#     Node 8, Type 0, BuildingBlock: XOMCOT_clean_sbu_1, # of connection points: 5
#     Node 9, Type 0, BuildingBlock: XOMCOT_clean_sbu_1, # of connection points: 5
#     Node 10, Type 0, BuildingBlock: XOMCOT_clean_sbu_1, # of connection points: 5
#     Node 11, Type 0, BuildingBlock: XOMCOT_clean_sbu_1, # of connection points: 5
#     Node 12, Type 0, BuildingBlock: XOMCOT_clean_sbu_1, # of connection points: 5
#     Node 13, Type 0, BuildingBlock: XOMCOT_clean_sbu_1, # of connection points: 5
#     Node 14, Type 0, BuildingBlock: XOMCOT_clean_sbu_1, # of connection points: 5
#     Node 15, Type 0, BuildingBlock: XOMCOT_clean_sbu_1, # of connection points: 5
#     Edge 16, Type (0, 0), BuildingBlock: XIVTED_clean_linker_0, # of connection points: 2
#     Edge 17, Type (0, 0), BuildingBlock: XIVTED_clean_linker_0, # of connection points: 2
#     Edge 18, Type (0, 0), BuildingBlock: XIVTED_clean_linker_0, # of connection points: 2
#     Edge 19, Type (0, 0), BuildingBlock: XIVTED_clean_linker_0, # of connection points: 2
#     Edge 20, Type (0, 0), BuildingBlock: XIVTED_clean_linker_0, # of connection points: 2
#     Edge 21, Type (0, 0), BuildingBlock: XIVTED_clean_linker_0, # of connection points: 2
#     Edge 22, Type (0, 0), BuildingBlock: XIVTED_clean_linker_0, # of connection points: 2
#     Edge 23, Type (0, 0), BuildingBlock: XIVTED_clean_linker_0, # of connection points: 2
#     Edge 24, Type (0, 0), BuildingBlock: XIVTED_clean_linker_0, # of connection points: 2
#     Edge 25, Type (0, 0), BuildingBlock: XIVTED_clean_linker_0, # of connection points: 2
#     Edge 26, Type (0, 0), BuildingBlock: XIVTED_clean_linker_0, # of connection points: 2
#     Edge 27, Type (0, 0), BuildingBlock: XIVTED_clean_linker_0, # of connection points: 2
#     Edge 28, Type (0, 0), BuildingBlock: XIVTED_clean_linker_0, # of connection points: 2
#     Edge 29, Type (0, 0), BuildingBlock: XIVTED_clean_linker_0, # of connection points: 2
#     Edge 30, Type (0, 0), BuildingBlock: XIVTED_clean_linker_0, # of connection points: 2
#     Edge 31, Type (0, 0), BuildingBlock: XIVTED_clean_linker_0, # of connection points: 2
#     Edge 32, Type (0, 0), BuildingBlock: XIVTED_clean_linker_0, # of connection points: 2
#     Edge 33, Type (0, 0), BuildingBlock: XIVTED_clean_linker_0, # of connection points: 2
#     Edge 34, Type (0, 0), BuildingBlock: XIVTED_clean_linker_0, # of connection points: 2
#     Edge 35, Type (0, 0), BuildingBlock: XIVTED_clean_linker_0, # of connection points: 2
#     Edge 36, Type (0, 0), BuildingBlock: XIVTED_clean_linker_0, # of connection points: 2
#     Edge 37, Type (0, 0), BuildingBlock: XIVTED_clean_linker_0, # of connection points: 2
#     Edge 38, Type (0, 0), BuildingBlock: XIVTED_clean_linker_0, # of connection points: 2
#     Edge 39, Type (0, 0), BuildingBlock: XIVTED_clean_linker_0, # of connection points: 2
#     Edge 40, Type (0, 0), BuildingBlock: XIVTED_clean_linker_0, # of connection points: 2
#     Edge 41, Type (0, 0), BuildingBlock: XIVTED_clean_linker_0, # of connection points: 2
#     Edge 42, Type (0, 0), BuildingBlock: XIVTED_clean_linker_0, # of connection points: 2
#     Edge 43, Type (0, 0), BuildingBlock: XIVTED_clean_linker_0, # of connection points: 2
#     Edge 44, Type (0, 0), BuildingBlock: XIVTED_clean_linker_0, # of connection points: 2
#     Edge 45, Type (0, 0), BuildingBlock: XIVTED_clean_linker_0, # of connection points: 2
#     Edge 46, Type (0, 0), BuildingBlock: XIVTED_clean_linker_0, # of connection points: 2
#     Edge 47, Type (0, 0), BuildingBlock: XIVTED_clean_linker_0, # of connection points: 2
#     Edge 48, Type (0, 0), BuildingBlock: XIVTED_clean_linker_0, # of connection points: 2
#     Edge 49, Type (0, 0), BuildingBlock: XIVTED_clean_linker_0, # of connection points: 2
#     Edge 50, Type (0, 0), BuildingBlock: XIVTED_clean_linker_0, # of connection points: 2
#     Edge 51, Type (0, 0), BuildingBlock: XIVTED_clean_linker_0, # of connection points: 2
#     Edge 52, Type (0, 0), BuildingBlock: XIVTED_clean_linker_0, # of connection points: 2
#     Edge 53, Type (0, 0), BuildingBlock: XIVTED_clean_linker_0, # of connection points: 2
#     Edge 54, Type (0, 0), BuildingBlock: XIVTED_clean_linker_0, # of connection points: 2
#     Edge 55, Type (0, 0), BuildingBlock: XIVTED_clean_linker_0, # of connection points: 2
# Relax obj value: 0.226
# Max RMSD: 0.218
# Mean RMSD: 0.218
data_MOF--net-zfh--node1-XOMCOT_clean_sbu_1--edge1-XIVTED_clean_linker_0
_symmetry_space_group_name_H-M    P1
_symmetry_Int_Tables_number       1
_symmetry_cell_setting            triclinic
loop_
_symmetry_equiv_pos_as_xyz
'x, y, z'
_cell_length_a     40.170576
_cell_length_b     40.163277
_cell_length_c     52.596052
_cell_angle_alpha  90.017348
_cell_angle_beta   89.975157
_cell_angle_gamma 90.047506
loop_
_atom_site_label
_atom_site_type_symbol
_atom_site_fract_x
_atom_site_fract_y
_atom_site_fract_z
_atom_type_partial_charge
C0 C 0.51222 0.2204 0.37419 0.0
C1 C 0.49207 0.24772 0.37055 0.0
N2 N 0.47282 0.25141 0.3913 0.0
N3 N 0.50538 0.20661 0.39704 0.0
C4 C 0.4812 0.22614 0.40692 0.0
H5 H 0.5316 0.21218 0.3614 0.0
Co6 Co 0.52707 0.17179 0.41398 0.0
C7 C 0.47757 0.11782 0.41586 0.0
O8 O 0.50196 0.09697 0.41097 0.0
N9 N 0.5492 0.13737 0.43218 0.0
C10 C 0.56147 0.10342 0.4644 0.0
C11 C 0.53755 0.12361 0.4539 0.0
C12 C 0.58079 0.12575 0.43043 0.0
N13 N 0.58881 0.10494 0.44967 0.0
O14 O 0.5217 0.19544 0.44534 0.0
H15 H 0.51361 0.12919 0.4623 0.0
H16 H 0.59843 0.1336 0.41626 0.0
O17 O 0.48386 0.14896 0.41815 0.0
C18 C 0.549 0.20961 0.45128 0.0
O19 O 0.57529 0.20424 0.43697 0.0
N20 N 0.53521 0.15084 0.3824 0.0
C21 C 0.55504 0.12732 0.33472 0.0
C22 C 0.52151 0.1259 0.34215 0.0
C23 C 0.51195 0.13864 0.36582 0.0
C24 C 0.56734 0.15449 0.37464 0.0
C25 C 0.578 0.14216 0.35129 0.0
H26 H 0.48574 0.13985 0.37018 0.0
H27 H 0.58462 0.16835 0.38628 0.0
H28 H 0.47075 0.22269 0.42571 0.0
H29 H 0.49307 0.26483 0.35466 0.0
H30 H 0.55962 0.09052 0.48241 0.0
H31 H 0.50265 0.11628 0.32941 0.0
H32 H 0.604 0.14467 0.34619 0.0
C33 C 0.27804 0.52949 0.3724 0.0
C34 C 0.24912 0.51281 0.3667 0.0
N35 N 0.24563 0.4871 0.38303 0.0
N36 N 0.29308 0.5143 0.39209 0.0
C37 C 0.2729 0.48852 0.39808 0.0
H38 H 0.28628 0.5525 0.3638 0.0
Co39 Co 0.32828 0.53058 0.41129 0.0
C40 C 0.37589 0.47478 0.41586 0.0
O41 O 0.40064 0.49604 0.414 0.0
N42 N 0.36305 0.54785 0.43185 0.0
C43 C 0.39423 0.55634 0.46634 0.0
C44 C 0.37299 0.53465 0.45424 0.0
C45 C 0.37802 0.57807 0.43124 0.0
N46 N 0.39716 0.58382 0.4519 0.0
O47 O 0.30144 0.52539 0.44109 0.0
H48 H 0.36393 0.5114 0.46198 0.0
H49 H 0.37358 0.59658 0.41686 0.0
O50 O 0.34576 0.48505 0.41478 0.0
C51 C 0.28926 0.55304 0.44842 0.0
O52 O 0.29838 0.58042 0.43663 0.0
N53 N 0.35253 0.53819 0.38111 0.0
C54 C 0.37777 0.55714 0.33367 0.0
C55 C 0.37747 0.52355 0.34104 0.0
C56 C 0.36409 0.51449 0.36464 0.0
C57 C 0.35159 0.57069 0.37376 0.0
C58 C 0.36476 0.58082 0.35054 0.0
H59 H 0.3614 0.48835 0.36879 0.0
H60 H 0.33874 0.58871 0.38543 0.0
H61 H 0.27735 0.47237 0.41416 0.0
H62 H 0.23097 0.5207 0.35277 0.0
H63 H 0.40462 0.55317 0.48517 0.0
H64 H 0.38589 0.50424 0.32819 0.0
H65 H 0.36389 0.60698 0.34561 0.0
C66 C 0.97777 0.28044 0.38023 0.0
C67 C 0.99672 0.2531 0.37435 0.0
N68 N 0.02284 0.25199 0.39042 0.0
N69 N 0.99201 0.2969 0.39972 0.0
C70 C 0.01939 0.27894 0.40559 0.0
H71 H 0.95418 0.28681 0.37166 0.0
Co72 Co 0.97354 0.33221 0.41759 0.0
C73 C 0.02404 0.38514 0.41617 0.0
O74 O 0.99959 0.40624 0.41217 0.0
N75 N 0.95406 0.36723 0.43674 0.0
C76 C 0.94412 0.40159 0.46922 0.0
C77 C 0.96744 0.38156 0.45765 0.0
C78 C 0.92229 0.37844 0.43652 0.0
N79 N 0.91558 0.39935 0.45596 0.0
O80 O 0.98214 0.30857 0.44847 0.0
H81 H 0.99209 0.37634 0.46487 0.0
H82 H 0.90356 0.36998 0.42347 0.0
O83 O 0.01753 0.35415 0.4192 0.0
C84 C 0.95626 0.29595 0.45862 0.0
O85 O 0.92693 0.30306 0.44904 0.0
N86 N 0.9631 0.35296 0.38627 0.0
C87 C 0.94246 0.37446 0.33826 0.0
C88 C 0.97629 0.37431 0.34476 0.0
C89 C 0.98616 0.36257 0.36856 0.0
C90 C 0.93042 0.35081 0.37951 0.0
C91 C 0.91941 0.36225 0.35596 0.0
H92 H 0.01245 0.35965 0.37205 0.0
H93 H 0.91302 0.33811 0.39176 0.0
H94 H 0.03558 0.28475 0.42142 0.0
H95 H 0.99042 0.23426 0.36044 0.0
H96 H 0.94725 0.41475 0.48702 0.0
H97 H 0.99513 0.38166 0.33113 0.0
H98 H 0.89314 0.36074 0.35149 0.0
C99 C 0.22166 0.97383 0.37849 0.0
C100 C 0.25109 0.98967 0.37309 0.0
N101 N 0.2545 0.01587 0.38896 0.0
N102 N 0.20617 0.99005 0.39751 0.0
C103 C 0.22673 0.01552 0.40355 0.0
H104 H 0.21305 0.95084 0.37006 0.0
Co105 Co 0.16917 0.97451 0.41496 0.0
C106 C 0.12144 0.02957 0.41476 0.0
O107 O 0.09835 0.00725 0.40988 0.0
N108 N 0.13252 0.9576 0.43379 0.0
C109 C 0.09751 0.94974 0.46621 0.0
C110 C 0.11895 0.97182 0.45468 0.0
C111 C 0.11961 0.92647 0.43368 0.0
N112 N 0.09816 0.92104 0.45302 0.0
O113 O 0.1934 0.97936 0.44591 0.0
H114 H 0.12574 0.99603 0.46203 0.0
H115 H 0.12748 0.90714 0.42092 0.0
O116 O 0.15169 0.02033 0.41785 0.0
C117 C 0.20452 0.95193 0.4545 0.0
O118 O 0.19588 0.9241 0.44312 0.0
N119 N 0.14728 0.96788 0.38336 0.0
C120 C 0.1199 0.95361 0.33574 0.0
C121 C 0.12658 0.98655 0.34289 0.0
C122 C 0.14117 0.99306 0.36645 0.0
C123 C 0.14382 0.93567 0.37562 0.0
C124 C 0.12928 0.92794 0.35228 0.0
H125 H 0.14841 0.01835 0.37064 0.0
H126 H 0.15423 0.91582 0.38684 0.0
H127 H 0.22206 0.03239 0.41918 0.0
H128 H 0.26952 0.98105 0.35961 0.0
H129 H 0.08457 0.95368 0.484 0.0
H130 H 0.12101 0.00713 0.3303 0.0
H131 H 0.12676 0.90207 0.34677 0.0
C132 C 0.0298 0.77558 0.12342 0.0
C133 C 0.01259 0.74678 0.12868 0.0
N134 N 0.98811 0.74319 0.1113 0.0
N135 N 0.01615 0.79027 0.10294 0.0
C136 C 0.99087 0.77006 0.09597 0.0
H137 H 0.05168 0.78457 0.13326 0.0
Co138 Co 0.03243 0.82712 0.08564 0.0
C139 C 0.96968 0.84998 0.06138 0.0
O140 O 0.98227 0.8479 0.03838 0.0
N141 N 0.04927 0.86404 0.06816 0.0
C142 C 0.06061 0.91554 0.05525 0.0
C143 C 0.03749 0.89548 0.06714 0.0
C144 C 0.07946 0.86566 0.05699 0.0
N145 N 0.08718 0.89673 0.04906 0.0
O146 O 0.03206 0.80151 0.05492 0.0
H147 H 0.0144 0.9037 0.07564 0.0
H148 H 0.09598 0.84456 0.05548 0.0
O149 O 0.9874 0.84234 0.08057 0.0
C150 C 0.05826 0.78365 0.05462 0.0
O151 O 0.07963 0.78698 0.07339 0.0
N152 N 0.03528 0.85075 0.11611 0.0
C153 C 0.04646 0.88176 0.16269 0.0
C154 C 0.01419 0.87229 0.15547 0.0
C155 C 0.00911 0.85666 0.13205 0.0
C156 C 0.06681 0.8594 0.12297 0.0
C157 C 0.07293 0.87527 0.14604 0.0
H158 H 0.98442 0.8483 0.12717 0.0
H159 H 0.08747 0.85329 0.11064 0.0
H160 H 0.97555 0.77454 0.07941 0.0
H161 H 0.01885 0.72906 0.1434 0.0
H162 H 0.05864 0.94218 0.05256 0.0
H163 H 0.99313 0.87659 0.16791 0.0
H164 H 0.09834 0.88132 0.15115 0.0
C165 C 0.73537 0.02098 0.11939 0.0
C166 C 0.76416 0.00263 0.12191 0.0
N167 N 0.76555 0.98055 0.10263 0.0
N168 N 0.71854 0.01017 0.0988 0.0
C169 C 0.73754 0.98555 0.08904 0.0
H170 H 0.72779 0.0416 0.13128 0.0
Co171 Co 0.68032 0.02783 0.08409 0.0
C172 C 0.65346 0.96517 0.06267 0.0
O173 O 0.65586 0.97678 0.03939 0.0
N174 N 0.64218 0.04584 0.0691 0.0
C175 C 0.59054 0.05796 0.05702 0.0
C176 C 0.61044 0.0348 0.06902 0.0
C177 C 0.64085 0.0757 0.05747 0.0
N178 N 0.60982 0.08375 0.04974 0.0
O179 O 0.7014 0.02489 0.05154 0.0
H180 H 0.60208 0.01183 0.07764 0.0
H181 H 0.66215 0.0919 0.05567 0.0
O182 O 0.6622 0.98328 0.08142 0.0
C183 C 0.71964 0.05039 0.04795 0.0
O184 O 0.72067 0.0735 0.06563 0.0
N185 N 0.66115 0.03356 0.11606 0.0
C186 C 0.63714 0.05075 0.164 0.0
C187 C 0.64095 0.01717 0.15712 0.0
C188 C 0.6533 0.00905 0.133 0.0
C189 C 0.65762 0.06621 0.12244 0.0
C190 C 0.64538 0.07536 0.14616 0.0
H191 H 0.65754 0.98327 0.12834 0.0
H192 H 0.66483 0.08533 0.10905 0.0
H193 H 0.7313 0.97212 0.07185 0.0
H194 H 0.78332 0.00634 0.1361 0.0
H195 H 0.56397 0.05591 0.05405 0.0
H196 H 0.63547 0.99742 0.1705 0.0
H197 H 0.64256 0.10157 0.15051 0.0
C198 C 0.48496 0.72818 0.11697 0.0
C199 C 0.50455 0.75591 0.12061 0.0
N200 N 0.52741 0.75707 0.10187 0.0
N201 N 0.49571 0.71163 0.09622 0.0
C202 C 0.52163 0.72981 0.0875 0.0
H203 H 0.46322 0.72156 0.12799 0.0
Co204 Co 0.47528 0.67624 0.07954 0.0
C205 C 0.52473 0.62259 0.0783 0.0
O206 O 0.50012 0.60239 0.08417 0.0
N207 N 0.45415 0.64115 0.06133 0.0
C208 C 0.44417 0.60615 0.02928 0.0
C209 C 0.46697 0.62737 0.03999 0.0
C210 C 0.4228 0.62869 0.06247 0.0
N211 N 0.41629 0.60713 0.04338 0.0
O212 O 0.48085 0.69963 0.04808 0.0
H213 H 0.49098 0.63358 0.03197 0.0
H214 H 0.40421 0.63651 0.07596 0.0
O215 O 0.519 0.65384 0.07582 0.0
C216 C 0.45344 0.71259 0.04103 0.0
O217 O 0.42646 0.70649 0.05438 0.0
N218 N 0.46729 0.65566 0.11132 0.0
C219 C 0.44924 0.63353 0.15984 0.0
C220 C 0.48275 0.63398 0.15229 0.0
C221 C 0.49134 0.64594 0.12818 0.0
C222 C 0.43498 0.65734 0.11903 0.0
C223 C 0.42526 0.64563 0.14284 0.0
H224 H 0.5174 0.6486 0.12362 0.0
H225 H 0.41678 0.66948 0.10714 0.0
H226 H 0.53505 0.72388 0.07024 0.0
H227 H 0.50082 0.77487 0.13496 0.0
H228 H 0.44701 0.59295 0.01146 0.0
H229 H 0.50229 0.6265 0.16525 0.0
H230 H 0.39917 0.64665 0.14798 0.0
C231 C 0.77717 0.47256 0.1187 0.0
C232 C 0.74701 0.48777 0.1225 0.0
N233 N 0.74354 0.51206 0.10506 0.0
N234 N 0.79298 0.48737 0.0991 0.0
C235 C 0.77191 0.51157 0.09127 0.0
H236 H 0.78583 0.4506 0.12853 0.0
Co237 Co 0.83033 0.47062 0.08242 0.0
C238 C 0.88069 0.5232 0.08524 0.0
O239 O 0.90213 0.49944 0.09042 0.0
N240 N 0.86725 0.45272 0.06437 0.0
C241 C 0.90343 0.44474 0.03274 0.0
C242 C 0.88207 0.46705 0.04403 0.0
C243 C 0.87945 0.4213 0.06442 0.0
N244 N 0.90155 0.41579 0.04552 0.0
O245 O 0.80786 0.47698 0.05073 0.0
H246 H 0.87623 0.4916 0.03688 0.0
H247 H 0.87074 0.40189 0.07679 0.0
O248 O 0.85013 0.5158 0.08094 0.0
C249 C 0.79633 0.44967 0.04213 0.0
O250 O 0.80352 0.42189 0.05411 0.0
N251 N 0.85017 0.46203 0.11446 0.0
C252 C 0.87168 0.44402 0.16309 0.0
C253 C 0.86841 0.47762 0.15637 0.0
C254 C 0.85668 0.48608 0.13224 0.0
C255 C 0.85088 0.42936 0.12143 0.0
C256 C 0.8624 0.41973 0.14531 0.0
H257 H 0.85148 0.51194 0.12841 0.0
H258 H 0.84032 0.41071 0.10911 0.0
H259 H 0.77592 0.52643 0.07437 0.0
H260 H 0.72817 0.48015 0.13602 0.0
H261 H 0.91722 0.44876 0.01532 0.0
H262 H 0.87342 0.49721 0.16999 0.0
H263 H 0.86327 0.39348 0.14995 0.0
C264 C 0.48204 0.78257 0.61874 0.0
C265 C 0.50113 0.75546 0.6249 0.0
N266 N 0.52532 0.75216 0.6073 0.0
N267 N 0.49424 0.79681 0.59749 0.0
C268 C 0.52061 0.77772 0.59094 0.0
H269 H 0.4595 0.79006 0.62837 0.0
Co270 Co 0.47379 0.83007 0.57845 0.0
C271 C 0.52227 0.88433 0.57393 0.0
O272 O 0.49726 0.90475 0.578 0.0
N273 N 0.45234 0.86279 0.55811 0.0
C274 C 0.44073 0.89384 0.52407 0.0
C275 C 0.46412 0.87392 0.53555 0.0
C276 C 0.42124 0.87569 0.55942 0.0
N277 N 0.41365 0.89475 0.53908 0.0
O278 O 0.48062 0.80379 0.54853 0.0
H279 H 0.48783 0.86686 0.52743 0.0
H280 H 0.40359 0.87016 0.5742 0.0
O281 O 0.51711 0.85281 0.57385 0.0
C282 C 0.45368 0.78989 0.54143 0.0
O283 O 0.42606 0.79656 0.55381 0.0
N284 N 0.46474 0.85356 0.60883 0.0
C285 C 0.44545 0.87729 0.65661 0.0
C286 C 0.47886 0.87873 0.64891 0.0
C287 C 0.48813 0.86599 0.62519 0.0
C288 C 0.43252 0.8506 0.6166 0.0
C289 C 0.42216 0.86304 0.64001 0.0
H290 H 0.51431 0.86455 0.62076 0.0
H291 H 0.41508 0.83655 0.60523 0.0
H292 H 0.53496 0.78158 0.57378 0.0
H293 H 0.49594 0.73812 0.64014 0.0
H294 H 0.44271 0.90495 0.50539 0.0
H295 H 0.49795 0.88802 0.66161 0.0
H296 H 0.39621 0.86061 0.64529 0.0
C297 C 0.72202 0.47521 0.61863 0.0
C298 C 0.75065 0.49259 0.62385 0.0
N299 N 0.75273 0.51863 0.60772 0.0
N300 N 0.70575 0.49035 0.59949 0.0
C301 C 0.72503 0.51668 0.59317 0.0
H302 H 0.71444 0.45203 0.62734 0.0
Co303 Co 0.66928 0.47316 0.58236 0.0
C304 C 0.62017 0.52729 0.58326 0.0
O305 O 0.59768 0.50483 0.5893 0.0
N306 N 0.63318 0.45453 0.56384 0.0
C307 C 0.59657 0.44504 0.53273 0.0
C308 C 0.61626 0.4686 0.54438 0.0
C309 C 0.62433 0.42204 0.56268 0.0
N310 N 0.60189 0.41562 0.54422 0.0
O311 O 0.6931 0.4784 0.55125 0.0
H312 H 0.61963 0.4939 0.53784 0.0
H313 H 0.63605 0.40274 0.57364 0.0
O314 O 0.65031 0.51833 0.57922 0.0
C315 C 0.70648 0.45129 0.54404 0.0
O316 O 0.70019 0.42394 0.55687 0.0
N317 N 0.64784 0.46616 0.61413 0.0
C318 C 0.62218 0.45134 0.66222 0.0
C319 C 0.62861 0.48436 0.65519 0.0
C320 C 0.6422 0.49117 0.6313 0.0
C321 C 0.64437 0.43387 0.62166 0.0
C322 C 0.63069 0.42589 0.64523 0.0
H323 H 0.64913 0.51654 0.62703 0.0
H324 H 0.65428 0.41408 0.61018 0.0
H325 H 0.71951 0.53309 0.57742 0.0
H326 H 0.76951 0.48519 0.63739 0.0
H327 H 0.58162 0.44877 0.51585 0.0
H328 H 0.62362 0.50474 0.66813 0.0
H329 H 0.62826 0.39995 0.65058 0.0
C330 C 0.02129 0.72577 0.61777 0.0
C331 C 0.00303 0.75344 0.62406 0.0
N332 N 0.97721 0.75589 0.6078 0.0
N333 N 0.00691 0.71039 0.59782 0.0
C334 C 0.98015 0.72937 0.5921 0.0
H335 H 0.04455 0.71841 0.62642 0.0
Co336 Co 0.02488 0.67526 0.57929 0.0
C337 C 0.97393 0.62294 0.58005 0.0
O338 O 0.99826 0.60162 0.5838 0.0
N339 N 0.04387 0.64056 0.55938 0.0
C340 C 0.05259 0.60707 0.52616 0.0
C341 C 0.02978 0.62688 0.53848 0.0
C342 C 0.07564 0.62932 0.55874 0.0
N343 N 0.08158 0.60885 0.53887 0.0
O344 O 0.01679 0.69984 0.54882 0.0
H345 H 0.00495 0.63243 0.53177 0.0
H346 H 0.09489 0.6375 0.57147 0.0
O347 O 0.98057 0.65396 0.57738 0.0
C348 C 0.04353 0.71298 0.54057 0.0
O349 O 0.07167 0.70627 0.55221 0.0
N350 N 0.03513 0.65332 0.61022 0.0
C351 C 0.05602 0.62882 0.65734 0.0
C352 C 0.02208 0.63027 0.65125 0.0
C353 C 0.01211 0.64353 0.62791 0.0
C354 C 0.06797 0.65421 0.61667 0.0
C355 C 0.07907 0.6413 0.63975 0.0
H356 H 0.98586 0.64722 0.62471 0.0
H357 H 0.08551 0.66692 0.60456 0.0
H358 H 0.96403 0.72456 0.57603 0.0
H359 H 0.00962 0.77154 0.63845 0.0
H360 H 0.04879 0.59438 0.50824 0.0
H361 H 0.00331 0.62269 0.66486 0.0
H362 H 0.10545 0.64184 0.64395 0.0
C363 C 0.77365 0.03766 0.60973 0.0
C364 C 0.74295 0.02332 0.61316 0.0
N365 N 0.74072 0.99653 0.59784 0.0
N366 N 0.79093 0.01984 0.59248 0.0
C367 C 0.77028 0.99477 0.58566 0.0
H368 H 0.78194 0.06082 0.61808 0.0
Co369 Co 0.83001 0.03373 0.57683 0.0
C370 C 0.87673 0.97835 0.58455 0.0
O371 O 0.89901 1.00073 0.59116 0.0
N372 N 0.86892 0.04888 0.55977 0.0
C373 C 0.91071 0.05311 0.532 0.0
C374 C 0.88777 0.03197 0.54284 0.0
C375 C 0.87991 0.08062 0.55768 0.0
N376 N 0.90572 0.08393 0.54136 0.0
O377 O 0.8095 0.02586 0.54461 0.0
H378 H 0.88414 0.00618 0.53766 0.0
H379 H 0.86722 0.10154 0.56595 0.0
O380 O 0.8475 0.98765 0.57782 0.0
C381 C 0.79831 0.05256 0.53476 0.0
O382 O 0.80525 0.08107 0.5458 0.0
N383 N 0.84798 0.04381 0.60936 0.0
C384 C 0.86802 0.06425 0.65783 0.0
C385 C 0.86228 0.03051 0.65261 0.0
C386 C 0.85127 0.02093 0.62849 0.0
C387 C 0.85101 0.07685 0.61483 0.0
C388 C 0.8618 0.08758 0.63864 0.0
H389 H 0.84436 0.99524 0.62557 0.0
H390 H 0.84299 0.09522 0.60131 0.0
H391 H 0.77567 0.97739 0.57048 0.0
H392 H 0.72308 0.03294 0.62498 0.0
H393 H 0.92861 0.04634 0.51755 0.0
H394 H 0.86499 0.01182 0.66731 0.0
H395 H 0.86463 0.11402 0.64206 0.0
C396 C 0.97847 0.23415 0.8768 0.0
C397 C 0.99753 0.26227 0.87344 0.0
N398 N 0.02203 0.26213 0.89093 0.0
N399 N 0.99117 0.21606 0.89609 0.0
C400 C 0.01767 0.23378 0.90432 0.0
H401 H 0.9559 0.22814 0.86659 0.0
Co402 Co 0.97244 0.17882 0.91147 0.0
C403 C 0.02322 0.1266 0.90703 0.0
O404 O 0.99891 0.10621 0.90084 0.0
N405 N 0.95286 0.14178 0.9283 0.0
C406 C 0.94395 0.10361 0.95837 0.0
C407 C 0.96698 0.12468 0.94764 0.0
C408 C 0.92078 0.13136 0.92842 0.0
N409 N 0.91477 0.10804 0.94634 0.0
O410 O 0.9798 0.19921 0.94385 0.0
H411 H 0.99198 0.12873 0.95462 0.0
H412 H 0.9014 0.14222 0.91703 0.0
O413 O 0.01666 0.15705 0.91238 0.0
C414 C 0.95303 0.21138 0.95288 0.0
O415 O 0.92497 0.20616 0.94068 0.0
N416 N 0.96292 0.16111 0.87887 0.0
C417 C 0.94333 0.14039 0.83042 0.0
C418 C 0.97714 0.14249 0.83679 0.0
C419 C 0.98643 0.15392 0.86085 0.0
C420 C 0.93019 0.16197 0.87214 0.0
C421 C 0.91973 0.15094 0.84831 0.0
H422 H 0.01255 0.15786 0.86459 0.0
H423 H 0.91215 0.17287 0.88482 0.0
H424 H 0.03267 0.2266 0.9205 0.0
H425 H 0.99251 0.28224 0.86017 0.0
H426 H 0.94772 0.0883 0.97505 0.0
H427 H 0.99628 0.13646 0.82303 0.0
H428 H 0.8934 0.15101 0.84391 0.0
C429 C 0.27308 0.97392 0.87458 0.0
C430 C 0.24488 0.99171 0.86893 0.0
N431 N 0.24311 0.01808 0.88476 0.0
N432 N 0.2894 0.98913 0.8937 0.0
C433 C 0.27052 0.01589 0.89959 0.0
H434 H 0.2803 0.95049 0.86612 0.0
Co435 Co 0.32572 0.9721 0.91114 0.0
C436 C 0.37596 0.02514 0.90981 0.0
O437 O 0.39786 0.00177 0.90467 0.0
N438 N 0.36179 0.95398 0.92999 0.0
C439 C 0.39729 0.94625 0.96208 0.0
C440 C 0.3762 0.96847 0.95044 0.0
C441 C 0.3738 0.92248 0.93032 0.0
N442 N 0.39558 0.91718 0.94946 0.0
O443 O 0.30178 0.97813 0.94223 0.0
H444 H 0.37032 0.99313 0.95738 0.0
H445 H 0.36529 0.90293 0.91796 0.0
O446 O 0.34539 0.01725 0.91346 0.0
C447 C 0.28896 0.95062 0.94928 0.0
O448 O 0.29589 0.92359 0.93623 0.0
N449 N 0.34691 0.96374 0.87953 0.0
C450 C 0.36981 0.94554 0.83124 0.0
C451 C 0.36662 0.97917 0.83795 0.0
C452 C 0.35423 0.98774 0.86191 0.0
C453 C 0.3477 0.93107 0.87257 0.0
C454 C 0.35994 0.92135 0.84891 0.0
H455 H 0.34916 0.01364 0.8657 0.0
H456 H 0.33671 0.91248 0.88472 0.0
H457 H 0.27615 0.03259 0.91516 0.0
H458 H 0.22609 0.9845 0.85525 0.0
H459 H 0.41085 0.95045 0.97957 0.0
H460 H 0.37215 0.99873 0.82441 0.0
H461 H 0.36083 0.89508 0.84435 0.0
C462 C 0.52788 0.27506 0.87628 0.0
C463 C 0.50952 0.24736 0.87014 0.0
N464 N 0.48388 0.24485 0.88661 0.0
N465 N 0.51375 0.29034 0.89636 0.0
C466 C 0.48707 0.27134 0.90232 0.0
H467 H 0.55096 0.28266 0.86743 0.0
Co468 Co 0.53211 0.32552 0.91449 0.0
C469 C 0.48014 0.37651 0.91607 0.0
O470 O 0.5041 0.3981 0.91174 0.0
N471 N 0.55163 0.36023 0.93409 0.0
C472 C 0.56079 0.39379 0.9672 0.0
C473 C 0.53811 0.37331 0.95543 0.0
C474 C 0.58318 0.3722 0.93408 0.0
N475 N 0.58927 0.39294 0.95377 0.0
O476 O 0.52785 0.29981 0.94491 0.0
H477 H 0.51374 0.36703 0.96276 0.0
H478 H 0.60221 0.36441 0.921 0.0
O479 O 0.48728 0.34556 0.9187 0.0
C480 C 0.55588 0.28572 0.9484 0.0
O481 O 0.58023 0.29252 0.93251 0.0
N482 N 0.53878 0.34857 0.8834 0.0
C483 C 0.55317 0.37618 0.83589 0.0
C484 C 0.52015 0.37062 0.84334 0.0
C485 C 0.51353 0.35597 0.86687 0.0
C486 C 0.57096 0.35122 0.87542 0.0
C487 C 0.57878 0.36586 0.85213 0.0
H488 H 0.48808 0.34956 0.87128 0.0
H489 H 0.59063 0.33997 0.88632 0.0
H490 H 0.47118 0.27619 0.91851 0.0
H491 H 0.51589 0.22936 0.85562 0.0
H492 H 0.55732 0.40641 0.98519 0.0
H493 H 0.49959 0.37701 0.83096 0.0
H494 H 0.60462 0.36761 0.84637 0.0
C495 C 0.23184 0.52834 0.8733 0.0
C496 C 0.26049 0.51063 0.86873 0.0
N497 N 0.26222 0.48531 0.88554 0.0
N498 N 0.21535 0.51413 0.89277 0.0
C499 C 0.2344 0.48803 0.89985 0.0
H500 H 0.22423 0.55095 0.86378 0.0
Co501 Co 0.17801 0.53088 0.9091 0.0
C502 C 0.15157 0.46793 0.93005 0.0
O503 O 0.15465 0.47906 0.95342 0.0
N504 N 0.14078 0.54827 0.92571 0.0
C505 C 0.08973 0.56102 0.93894 0.0
C506 C 0.10865 0.53837 0.92547 0.0
C507 C 0.14069 0.5769 0.93907 0.0
N508 N 0.1101 0.58522 0.94752 0.0
O509 O 0.20081 0.52653 0.94084 0.0
H510 H 0.09942 0.5166 0.91563 0.0
H511 H 0.16251 0.59222 0.94163 0.0
O512 O 0.15996 0.48633 0.91138 0.0
C513 C 0.21942 0.55167 0.94472 0.0
O514 O 0.22014 0.5756 0.92769 0.0
N515 N 0.1572 0.53762 0.87785 0.0
C516 C 0.13283 0.55524 0.83014 0.0
C517 C 0.13811 0.52167 0.83639 0.0
C518 C 0.15063 0.51336 0.86037 0.0
C519 C 0.15195 0.57027 0.87218 0.0
C520 C 0.13952 0.57962 0.84854 0.0
H521 H 0.15642 0.4877 0.86443 0.0
H522 H 0.15827 0.58927 0.88592 0.0
H523 H 0.22846 0.47212 0.91582 0.0
H524 H 0.27946 0.51714 0.85498 0.0
H525 H 0.06313 0.55978 0.94207 0.0
H526 H 0.13392 0.50214 0.82255 0.0
H527 H 0.1356 0.60579 0.84462 0.0
H528 H 0.30334 0.02604 0.3541 0.0
H529 H 0.41982 0.14369 0.43653 0.0
H530 H 0.27353 0.05287 0.43034 0.0
H531 H 0.4566 0.06512 0.3881 0.0
H532 H 0.36262 0.12258 0.42982 0.0
H533 H 0.35638 0.05383 0.36104 0.0
C534 C 0.30776 0.03776 0.3723 0.0
C535 C 0.28398 0.03624 0.39184 0.0
C536 C 0.3834 0.11012 0.42079 0.0
C537 C 0.34469 0.069 0.3996 0.0
C538 C 0.41587 0.12209 0.42456 0.0
C539 C 0.44295 0.10591 0.41305 0.0
C540 C 0.37822 0.08258 0.40479 0.0
C541 C 0.43655 0.07813 0.39762 0.0
C542 C 0.33807 0.05378 0.37617 0.0
C543 C 0.291 0.05316 0.41471 0.0
N544 N 0.40491 0.06757 0.39378 0.0
N545 N 0.32086 0.06872 0.41803 0.0
H546 H 0.34368 0.42454 0.39058 0.0
H547 H 0.46982 0.28343 0.4364 0.0
H548 H 0.42632 0.44407 0.44072 0.0
H549 H 0.43109 0.28501 0.36006 0.0
H550 H 0.44071 0.33575 0.44529 0.0
H551 H 0.36282 0.36649 0.38628 0.0
C552 C 0.36537 0.41637 0.4011 0.0
C553 C 0.3836 0.43893 0.41597 0.0
C554 C 0.43821 0.32435 0.42671 0.0
C555 C 0.40515 0.37311 0.41139 0.0
C556 C 0.45458 0.29445 0.42171 0.0
C557 C 0.45282 0.28 0.39747 0.0
C558 C 0.41945 0.3396 0.40748 0.0
C559 C 0.43316 0.29559 0.37891 0.0
C560 C 0.37636 0.38347 0.39849 0.0
C561 C 0.41174 0.42737 0.42898 0.0
N562 N 0.41717 0.32463 0.38429 0.0
N563 N 0.42163 0.39522 0.42645 0.0
H564 H 0.08274 0.36018 0.43571 0.0
H565 H 0.19555 0.47712 0.34899 0.0
H566 H 0.0436 0.43562 0.38558 0.0
H567 H 0.22792 0.44945 0.42446 0.0
H568 H 0.1429 0.44894 0.3568 0.0
H569 H 0.13951 0.38099 0.42684 0.0
C570 C 0.08611 0.38099 0.42287 0.0
C571 C 0.0585 0.3965 0.4116 0.0
C572 C 0.16172 0.44892 0.37155 0.0
C573 C 0.12273 0.4195 0.40091 0.0
C574 C 0.19183 0.46516 0.36719 0.0
C575 C 0.21626 0.46659 0.38627 0.0
C576 C 0.15596 0.43338 0.395 0.0
C577 C 0.21003 0.44935 0.40914 0.0
C578 C 0.11833 0.3928 0.41786 0.0
C579 C 0.06412 0.42325 0.39499 0.0
N580 N 0.18039 0.4336 0.41293 0.0
N581 N 0.09553 0.43372 0.39003 0.0
H582 H 0.08407 0.05361 0.37662 0.0
H583 H 0.05507 0.23158 0.43343 0.0
H584 H 0.1404 0.08513 0.44211 0.0
H585 H 0.0428 0.20923 0.35372 0.0
H586 H 0.08607 0.17943 0.43857 0.0
H587 H 0.06699 0.11092 0.36941 0.0
C588 C 0.09287 0.07277 0.38949 0.0
C589 C 0.11337 0.06477 0.41011 0.0
C590 C 0.07704 0.18633 0.41991 0.0
C591 C 0.09367 0.13053 0.40212 0.0
C592 C 0.0594 0.21614 0.41691 0.0
C593 C 0.04567 0.22452 0.39316 0.0
C594 C 0.08058 0.16477 0.39908 0.0
C595 C 0.05205 0.20337 0.3725 0.0
C596 C 0.08333 0.10552 0.38525 0.0
C597 C 0.12448 0.09051 0.42602 0.0
N598 N 0.06856 0.1743 0.37602 0.0
N599 N 0.11399 0.12237 0.42196 0.0
H600 H 0.8073 0.94989 0.13549 0.0
H601 H 0.92947 0.88297 0.02726 0.0
H602 H 0.78621 0.96152 0.05562 0.0
H603 H 0.93381 0.85095 0.1055 0.0
H604 H 0.87743 0.91244 0.0367 0.0
H605 H 0.85501 0.91486 0.12465 0.0
C606 C 0.81272 0.94501 0.11568 0.0
C607 C 0.79278 0.95864 0.09646 0.0
C608 C 0.88975 0.89877 0.05173 0.0
C609 C 0.84739 0.91863 0.08381 0.0
C610 C 0.91941 0.88189 0.04634 0.0
C611 C 0.93642 0.86492 0.06572 0.0
C612 C 0.87718 0.89882 0.07669 0.0
C613 C 0.9221 0.86432 0.09009 0.0
C614 C 0.83982 0.92487 0.10947 0.0
C615 C 0.80072 0.95125 0.07105 0.0
N616 N 0.89357 0.88126 0.09491 0.0
N617 N 0.82757 0.93198 0.06544 0.0
H618 H 0.55638 0.799 0.13561 0.0
H619 H 0.62557 0.92179 0.02823 0.0
H620 H 0.54876 0.77793 0.05542 0.0
H621 H 0.64712 0.93268 0.10818 0.0
H622 H 0.59784 0.8688 0.03743 0.0
H623 H 0.59003 0.84805 0.12574 0.0
C624 C 0.5619 0.80463 0.11593 0.0
C625 C 0.5496 0.78438 0.09634 0.0
C626 C 0.6088 0.88277 0.05292 0.0
C627 C 0.58805 0.84062 0.0848 0.0
C628 C 0.62463 0.91304 0.04769 0.0
C629 C 0.63838 0.93204 0.0675 0.0
C630 C 0.60656 0.87147 0.07816 0.0
C631 C 0.63648 0.9193 0.09233 0.0
C632 C 0.58122 0.83258 0.11028 0.0
C633 C 0.55788 0.79265 0.07115 0.0
N634 N 0.6207 0.89001 0.09695 0.0
N635 N 0.57633 0.82029 0.06609 0.0
H636 H 0.58532 0.65563 0.0802 0.0
H637 H 0.68174 0.48629 0.10687 0.0
H638 H 0.54175 0.55763 0.07447 0.0
H639 H 0.73577 0.57592 0.0887 0.0
H640 H 0.62986 0.51448 0.09712 0.0
H641 H 0.64069 0.62955 0.0842 0.0
C642 C 0.58742 0.62876 0.07942 0.0
C643 C 0.55884 0.60875 0.07735 0.0
C644 C 0.65296 0.52816 0.09516 0.0
C645 C 0.62156 0.57901 0.08215 0.0
C646 C 0.68259 0.5121 0.10098 0.0
C647 C 0.71301 0.52896 0.0989 0.0
C648 C 0.65342 0.56161 0.0874 0.0
C649 C 0.71271 0.56219 0.09057 0.0
C650 C 0.61893 0.61394 0.08176 0.0
C651 C 0.56294 0.57409 0.07645 0.0
N652 N 0.68326 0.57766 0.08533 0.0
N653 N 0.59354 0.56043 0.07909 0.0
H654 H 0.95497 0.72336 0.06839 0.0
H655 H 0.92035 0.54428 0.12318 0.0
H656 H 0.97131 0.69739 0.14709 0.0
H657 H 0.86458 0.58048 0.05887 0.0
H658 H 0.9414 0.60023 0.13067 0.0
H659 H 0.92307 0.67194 0.06296 0.0
C660 C 0.95157 0.70725 0.08465 0.0
C661 C 0.96645 0.7147 0.10821 0.0
C662 C 0.92436 0.59616 0.11501 0.0
C663 C 0.93035 0.65552 0.10185 0.0
C664 C 0.9125 0.56417 0.11063 0.0
C665 C 0.89096 0.55782 0.09024 0.0
C666 C 0.91526 0.62208 0.09858 0.0
C667 C 0.8812 0.58452 0.07477 0.0
C668 C 0.93335 0.67782 0.08146 0.0
C669 C 0.9612 0.69248 0.12842 0.0
N670 N 0.89388 0.61557 0.07901 0.0
N671 N 0.94399 0.6638 0.12469 0.0
H672 H 0.53856 0.94852 0.56445 0.0
H673 H 0.73473 0.93072 0.58635 0.0
H674 H 0.58317 0.85297 0.5801 0.0
H675 H 0.67852 0.02133 0.59526 0.0
H676 H 0.6824 0.90078 0.57692 0.0
H677 H 0.59299 0.97441 0.56737 0.0
C678 C 0.5599 0.93288 0.56836 0.0
C679 C 0.5562 0.89857 0.57242 0.0
C680 C 0.6817 0.92721 0.58096 0.0
C681 C 0.61899 0.92833 0.57599 0.0
C682 C 0.71142 0.94423 0.58625 0.0
C683 C 0.71078 0.97839 0.59194 0.0
C684 C 0.65146 0.94479 0.58084 0.0
C685 C 0.68007 0.99489 0.59152 0.0
C686 C 0.59105 0.94775 0.57009 0.0
C687 C 0.58494 0.87955 0.57698 0.0
N688 N 0.65177 0.97799 0.58604 0.0
N689 N 0.61524 0.89476 0.57889 0.0
H690 H 0.64207 0.58149 0.55566 0.0
H691 H 0.54638 0.71058 0.64451 0.0
H692 H 0.57916 0.55341 0.61859 0.0
H693 H 0.55427 0.72842 0.56377 0.0
H694 H 0.57474 0.65749 0.63875 0.0
H695 H 0.62463 0.64007 0.56167 0.0
C696 C 0.62483 0.58772 0.57077 0.0
C697 C 0.61164 0.56272 0.58646 0.0
C698 C 0.57055 0.67326 0.62236 0.0
C699 C 0.59264 0.62893 0.59383 0.0
C700 C 0.55425 0.70353 0.62559 0.0
C701 C 0.54708 0.72376 0.60453 0.0
C702 C 0.58026 0.66316 0.59795 0.0
C703 C 0.55903 0.71366 0.58056 0.0
C704 C 0.61491 0.62093 0.57414 0.0
C705 C 0.58949 0.57189 0.60583 0.0
N706 N 0.57479 0.68383 0.57786 0.0
N707 N 0.58085 0.60422 0.60904 0.0
H708 H 0.77074 0.55406 0.56536 0.0
H709 H 0.95433 0.57502 0.61271 0.0
H710 H 0.8002 0.53312 0.64269 0.0
H711 H 0.91546 0.64509 0.55814 0.0
H712 H 0.89817 0.55471 0.62047 0.0
H713 H 0.82301 0.58459 0.55923 0.0
C714 C 0.78778 0.55622 0.58119 0.0
C715 C 0.78115 0.54033 0.60451 0.0
C716 C 0.9018 0.57463 0.60687 0.0
C717 C 0.84114 0.57465 0.5973 0.0
C718 C 0.93389 0.58606 0.60225 0.0
C719 C 0.9395 0.61158 0.5846 0.0
C720 C 0.87501 0.58825 0.59336 0.0
C721 C 0.91204 0.62531 0.57188 0.0
C722 C 0.81765 0.57362 0.57759 0.0
C723 C 0.80449 0.544 0.62418 0.0
N724 N 0.88082 0.61312 0.57624 0.0
N725 N 0.83357 0.56029 0.62001 0.0
H726 H 0.85768 0.92377 0.55612 0.0
H727 H 0.95828 0.79788 0.64538 0.0
H728 H 0.91409 0.95265 0.6223 0.0
H729 H 0.94491 0.77828 0.56534 0.0
H730 H 0.92781 0.84992 0.64048 0.0
H731 H 0.87639 0.8657 0.56243 0.0
C732 C 0.87361 0.91778 0.57209 0.0
C733 C 0.88473 0.94291 0.58857 0.0
C734 C 0.93129 0.83406 0.62403 0.0
C735 C 0.90545 0.8772 0.59611 0.0
C736 C 0.94879 0.80438 0.62679 0.0
C737 C 0.95487 0.78392 0.60566 0.0
C738 C 0.91947 0.84347 0.59999 0.0
C739 C 0.94096 0.79326 0.58216 0.0
C740 C 0.88433 0.88484 0.57561 0.0
C741 C 0.90535 0.93406 0.60895 0.0
N742 N 0.92417 0.82259 0.57987 0.0
N743 N 0.91496 0.902 0.61216 0.0
H744 H 0.22376 0.05302 0.92693 0.0
H745 H 0.04446 0.08289 0.87167 0.0
H746 H 0.19826 0.03456 0.84845 0.0
H747 H 0.08033 0.14464 0.93295 0.0
H748 H 0.10052 0.06174 0.86528 0.0
H749 H 0.17207 0.08492 0.93174 0.0
C750 C 0.2077 0.05606 0.9106 0.0
C751 C 0.21521 0.0405 0.88731 0.0
C752 C 0.09632 0.08007 0.88004 0.0
C753 C 0.1559 0.0764 0.89292 0.0
C754 C 0.06425 0.09197 0.88385 0.0
C755 C 0.05777 0.11533 0.90302 0.0
C756 C 0.12223 0.09099 0.89585 0.0
C757 C 0.08443 0.12659 0.91798 0.0
C758 C 0.17815 0.0742 0.91342 0.0
C759 C 0.19319 0.04523 0.86692 0.0
N760 N 0.11559 0.11391 0.91434 0.0
N761 N 0.16441 0.06231 0.8703 0.0
H762 H 0.35629 0.08113 0.93641 0.0
H763 H 0.46573 0.20195 0.8493 0.0
H764 H 0.41839 0.04843 0.87435 0.0
H765 H 0.44983 0.22379 0.92877 0.0
H766 H 0.4342 0.15056 0.85435 0.0
H767 H 0.37748 0.13844 0.93018 0.0
C768 C 0.37408 0.0861 0.9214 0.0
C769 C 0.38599 0.06012 0.90606 0.0
C770 C 0.43739 0.16677 0.87064 0.0
C771 C 0.40943 0.12495 0.89852 0.0
C772 C 0.45554 0.19609 0.86781 0.0
C773 C 0.46122 0.217 0.88875 0.0
C774 C 0.42443 0.15824 0.89452 0.0
C775 C 0.44628 0.20846 0.91209 0.0
C776 C 0.38617 0.1186 0.91792 0.0
C777 C 0.40896 0.06769 0.88684 0.0
N778 N 0.42878 0.17952 0.91443 0.0
N779 N 0.41981 0.09935 0.88357 0.0
H780 H 0.46068 0.41749 0.87858 0.0
H781 H 0.27956 0.45174 0.92885 0.0
H782 H 0.42176 0.3599 0.94108 0.0
H783 H 0.30897 0.46779 0.85082 0.0
H784 H 0.33052 0.41943 0.93554 0.0
H785 H 0.40515 0.43863 0.87005 0.0
C786 C 0.44028 0.40929 0.89055 0.0
C787 C 0.44576 0.38719 0.91072 0.0
C788 C 0.32547 0.4297 0.9169 0.0
C789 C 0.3819 0.41158 0.90113 0.0
C790 C 0.29633 0.44813 0.91299 0.0
C791 C 0.29007 0.46309 0.88927 0.0
C792 C 0.34861 0.42659 0.89706 0.0
C793 C 0.31302 0.4576 0.86959 0.0
C794 C 0.40852 0.4212 0.88554 0.0
C795 C 0.41841 0.37699 0.92538 0.0
N796 N 0.34137 0.44021 0.87402 0.0
N797 N 0.38754 0.38972 0.92055 0.0
H798 H 0.12653 0.4229 0.96456 0.0
H799 H 0.04819 0.30582 0.85724 0.0
H800 H 0.14135 0.43769 0.88407 0.0
H801 H 0.04757 0.28014 0.93684 0.0
H802 H 0.08278 0.35421 0.86695 0.0
H803 H 0.09808 0.37032 0.95523 0.0
C804 C 0.12398 0.41509 0.94495 0.0
C805 C 0.1361 0.43503 0.92506 0.0
C806 C 0.07531 0.33788 0.88231 0.0
C807 C 0.10345 0.37496 0.91426 0.0
C808 C 0.05545 0.31032 0.87676 0.0
C809 C 0.04481 0.289 0.89625 0.0
C810 C 0.08438 0.34448 0.90762 0.0
C811 C 0.05534 0.29578 0.9212 0.0
C812 C 0.10775 0.38504 0.93964 0.0
C813 C 0.13215 0.42349 0.90003 0.0
N814 N 0.07427 0.3231 0.92621 0.0
N815 N 0.11601 0.39442 0.89536 0.0
H816 H 0.53497 0.07087 0.30928 0.0
H817 H 0.66127 0.1009 0.19382 0.0
H818 H 0.59976 0.15619 0.30222 0.0
H819 H 0.58743 0.02276 0.19314 0.0
H820 H 0.64078 0.11901 0.23506 0.0
H821 H 0.55488 0.05088 0.26791 0.0
C822 C 0.55324 0.08547 0.29901 0.0
C823 C 0.56593 0.11512 0.30938 0.0
C824 C 0.62895 0.09791 0.22594 0.0
C825 C 0.58901 0.09223 0.26228 0.0
C826 C 0.64058 0.08762 0.2023 0.0
C827 C 0.62576 0.06052 0.18981 0.0
C828 C 0.60231 0.08098 0.23741 0.0
C829 C 0.59963 0.04373 0.20211 0.0
C830 C 0.5647 0.07395 0.27548 0.0
C831 C 0.58977 0.13285 0.29532 0.0
N832 N 0.58862 0.05431 0.22523 0.0
N833 N 0.60054 0.1211 0.27259 0.0
H834 H 0.43126 0.53357 0.3062 0.0
H835 H 0.4025 0.6611 0.1914 0.0
H836 H 0.35004 0.60372 0.30215 0.0
H837 H 0.47392 0.58097 0.18766 0.0
H838 H 0.38547 0.64191 0.23328 0.0
H839 H 0.44945 0.55167 0.26387 0.0
C840 C 0.41721 0.55268 0.29643 0.0
C841 C 0.38926 0.56736 0.30793 0.0
C842 C 0.40482 0.62841 0.22332 0.0
C843 C 0.4101 0.58834 0.25966 0.0
C844 C 0.41445 0.63926 0.19927 0.0
C845 C 0.43944 0.6224 0.18577 0.0
C846 C 0.42035 0.60054 0.2342 0.0
C847 C 0.45466 0.59483 0.19741 0.0
C848 C 0.42769 0.56308 0.27233 0.0
C849 C 0.37217 0.59218 0.2944 0.0
N850 N 0.44483 0.5847 0.22094 0.0
N851 N 0.3829 0.60189 0.2711 0.0
H852 H 0.92126 0.47188 0.19198 0.0
H853 H 0.89537 0.34535 0.30782 0.0
H854 H 0.8466 0.39452 0.19341 0.0
H855 H 0.96504 0.42722 0.30991 0.0
H856 H 0.87793 0.36276 0.26553 0.0
H857 H 0.93843 0.45568 0.23485 0.0
C858 C 0.90843 0.45156 0.20133 0.0
C859 C 0.88258 0.43442 0.18901 0.0
C860 C 0.89697 0.37701 0.27524 0.0
C861 C 0.90223 0.41561 0.23795 0.0
C862 C 0.9068 0.36721 0.2995 0.0
C863 C 0.93156 0.385 0.31254 0.0
C864 C 0.91206 0.40477 0.2638 0.0
C865 C 0.94604 0.41263 0.30047 0.0
C866 C 0.91832 0.44225 0.22575 0.0
C867 C 0.86705 0.40806 0.20194 0.0
N868 N 0.93606 0.42169 0.27677 0.0
N869 N 0.87713 0.39948 0.22567 0.0
H870 H 0.07234 0.9071 0.32436 0.0
H871 H 0.08754 0.93398 0.17424 0.0
H872 H 0.1345 0.98214 0.28971 0.0
H873 H 0.0209 0.86279 0.20875 0.0
H874 H 0.10255 0.95422 0.21651 0.0
H875 H 0.05094 0.89242 0.28232 0.0
C876 C 0.08143 0.92053 0.3079 0.0
C877 C 0.10533 0.9458 0.31054 0.0
C878 C 0.08443 0.93436 0.21486 0.0
C879 C 0.08088 0.92924 0.26239 0.0
C880 C 0.07594 0.92274 0.19074 0.0
C881 C 0.05311 0.89653 0.18801 0.0
C882 C 0.07019 0.9195 0.23645 0.0
C883 C 0.03846 0.88319 0.20999 0.0
C884 C 0.06908 0.91227 0.28393 0.0
C885 C 0.11587 0.96271 0.28861 0.0
N886 N 0.04747 0.89462 0.23331 0.0
N887 N 0.10375 0.95397 0.26545 0.0
H888 H 0.34527 0.89564 0.80105 0.0
H889 H 0.46656 0.93214 0.68356 0.0
H890 H 0.41962 0.97332 0.80223 0.0
H891 H 0.40133 0.84692 0.68883 0.0
H892 H 0.44879 0.94927 0.7262 0.0
H893 H 0.36431 0.87924 0.75898 0.0
C894 C 0.36585 0.90909 0.79258 0.0
C895 C 0.38109 0.93571 0.80539 0.0
C896 C 0.43838 0.92686 0.71795 0.0
C897 C 0.40271 0.91734 0.75677 0.0
C898 C 0.4486 0.917 0.69367 0.0
C899 C 0.43521 0.88821 0.68245 0.0
C900 C 0.41461 0.90778 0.73108 0.0
C901 C 0.41181 0.86969 0.6964 0.0
C902 C 0.37659 0.89982 0.76842 0.0
C903 C 0.40702 0.95277 0.79303 0.0
N904 N 0.40226 0.87982 0.71989 0.0
N905 N 0.41705 0.94327 0.7694 0.0
H906 H 0.60037 0.42285 0.82413 0.0
H907 H 0.5741 0.40578 0.67415 0.0
H908 H 0.52421 0.36153 0.79008 0.0
H909 H 0.64025 0.47772 0.70827 0.0
H910 H 0.55509 0.38962 0.71653 0.0
H911 H 0.61512 0.44368 0.7819 0.0
C912 C 0.58671 0.41385 0.80775 0.0
C913 C 0.56107 0.3904 0.8106 0.0
C914 C 0.57358 0.40912 0.71477 0.0
C915 C 0.57777 0.41408 0.76226 0.0
C916 C 0.58453 0.41824 0.69059 0.0
C917 C 0.60884 0.44305 0.68771 0.0
C918 C 0.58727 0.42471 0.73627 0.0
C919 C 0.62125 0.45867 0.70962 0.0
C920 C 0.59502 0.42585 0.78368 0.0
C921 C 0.54392 0.37984 0.78879 0.0
N922 N 0.61051 0.44906 0.733 0.0
N923 N 0.55274 0.39159 0.76553 0.0
H924 H 0.03307 0.57485 0.68426 0.0
H925 H 0.15627 0.60678 0.80141 0.0
H926 H 0.10413 0.65538 0.68813 0.0
H927 H 0.08519 0.52616 0.79977 0.0
H928 H 0.13765 0.62404 0.75942 0.0
H929 H 0.05176 0.55586 0.72616 0.0
C930 C 0.05255 0.58855 0.69392 0.0
C931 C 0.06717 0.61664 0.68258 0.0
C932 C 0.12605 0.60257 0.76818 0.0
C933 C 0.08877 0.59499 0.73039 0.0
C934 C 0.13655 0.59281 0.79227 0.0
C935 C 0.12202 0.56518 0.80426 0.0
C936 C 0.10078 0.58461 0.75584 0.0
C937 C 0.09715 0.54754 0.79118 0.0
C938 C 0.0633 0.57762 0.71777 0.0
C939 C 0.09252 0.63326 0.69587 0.0
N940 N 0.0872 0.55764 0.76769 0.0
N941 N 0.10245 0.62221 0.71903 0.0
H942 H 0.96799 0.08793 0.80291 0.0
H943 H 0.84507 0.11747 0.68526 0.0
H944 H 0.89478 0.16642 0.79971 0.0
H945 H 0.91495 0.03603 0.68894 0.0
H946 H 0.86369 0.13603 0.72703 0.0
H947 H 0.94984 0.06894 0.76093 0.0
C948 C 0.94819 0.10125 0.79333 0.0
C949 C 0.93279 0.12873 0.80489 0.0
C950 C 0.875 0.11409 0.71874 0.0
C951 C 0.91176 0.10702 0.75695 0.0
C952 C 0.86451 0.10359 0.6948 0.0
C953 C 0.87866 0.07528 0.6835 0.0
C954 C 0.89989 0.09623 0.73156 0.0
C955 C 0.90323 0.05787 0.69702 0.0
C956 C 0.93772 0.09029 0.76944 0.0
C957 C 0.90702 0.14482 0.79172 0.0
N958 N 0.91316 0.06869 0.72032 0.0
N959 N 0.89736 0.13375 0.76848 0.0
H960 H 0.64917 0.13029 0.43621 0.0
H961 H 0.74972 0.00576 0.52647 0.0
H962 H 0.60294 0.0495 0.47726 0.0
H963 H 0.78761 0.09938 0.49864 0.0
H964 H 0.69973 0.01337 0.50021 0.0
H965 H 0.70344 0.11109 0.45062 0.0
C966 C 0.65036 0.10815 0.44787 0.0
C967 C 0.62126 0.09171 0.45574 0.0
C968 C 0.71934 0.03187 0.49945 0.0
C969 C 0.68364 0.06982 0.47266 0.0
C970 C 0.74799 0.02736 0.51421 0.0
C971 C 0.77266 0.05209 0.51474 0.0
C972 C 0.71567 0.06114 0.48505 0.0
C973 C 0.76901 0.07985 0.49885 0.0
C974 C 0.68146 0.09731 0.45626 0.0
C975 C 0.62464 0.06332 0.47115 0.0
N976 N 0.74093 0.08377 0.48483 0.0
N977 N 0.65522 0.05343 0.4793 0.0
H978 H 0.45077 0.59296 0.48259 0.0
H979 H 0.40635 0.78179 0.50556 0.0
H980 H 0.37716 0.64615 0.43887 0.0
H981 H 0.49797 0.73917 0.53298 0.0
H982 H 0.39799 0.73315 0.47853 0.0
H983 H 0.47107 0.64621 0.4994 0.0
C984 C 0.43913 0.61582 0.47632 0.0
C985 C 0.41204 0.615 0.45946 0.0
C986 C 0.4203 0.73457 0.49003 0.0
C987 C 0.43505 0.67592 0.47857 0.0
C988 C 0.42508 0.76238 0.50541 0.0
C989 C 0.45285 0.76434 0.52141 0.0
C990 C 0.44299 0.70803 0.4912 0.0
C991 C 0.47636 0.73857 0.52068 0.0
C992 C 0.45086 0.6462 0.48578 0.0
C993 C 0.39818 0.64542 0.45168 0.0
N994 N 0.47056 0.71104 0.50618 0.0
N995 N 0.40954 0.67452 0.46156 0.0
H996 H 0.85515 0.37206 0.44532 0.0
H997 H 0.75394 0.49852 0.5337 0.0
H998 H 0.90181 0.45453 0.48413 0.0
H999 H 0.71922 0.40138 0.51095 0.0
H1000 H 0.80408 0.49033 0.50751 0.0
H1001 H 0.8014 0.39039 0.46104 0.0
C1002 C 0.85417 0.39439 0.45678 0.0
C1003 C 0.88328 0.41167 0.46349 0.0
C1004 C 0.78514 0.47113 0.50791 0.0
C1005 C 0.82135 0.43251 0.48203 0.0
C1006 C 0.75644 0.47594 0.52259 0.0
C1007 C 0.73261 0.4505 0.52443 0.0
C1008 C 0.78957 0.4409 0.49485 0.0
C1009 C 0.73717 0.42149 0.51008 0.0
C1010 C 0.82333 0.40471 0.46595 0.0
C1011 C 0.88011 0.44016 0.47882 0.0
N1012 N 0.76516 0.4174 0.49601 0.0
N1013 N 0.84972 0.44959 0.48775 0.0
H1014 H 0.04288 0.91058 0.48193 0.0
H1015 H 0.08899 0.72084 0.50329 0.0
H1016 H 0.12128 0.85897 0.44194 0.0
H1017 H 0.99943 0.76425 0.53384 0.0
H1018 H 0.09703 0.77002 0.47688 0.0
H1019 H 0.02296 0.85694 0.49822 0.0
C1020 C 0.05574 0.88805 0.4764 0.0
C1021 C 0.08402 0.88951 0.46068 0.0
C1022 C 0.07522 0.76872 0.48895 0.0
C1023 C 0.06124 0.82807 0.47909 0.0
C1024 C 0.07059 0.74055 0.50394 0.0
C1025 C 0.04356 0.73864 0.52066 0.0
C1026 C 0.05313 0.79567 0.49122 0.0
C1027 C 0.02046 0.76481 0.52096 0.0
C1028 C 0.0442 0.85742 0.48554 0.0
C1029 C 0.09931 0.85938 0.45379 0.0
N1030 N 0.02612 0.79265 0.5068 0.0
N1031 N 0.08795 0.83008 0.46325 0.0
H1032 H 0.24124 0.99668 0.96215 0.0
H1033 H 0.14785 0.86731 0.05362 0.0
H1034 H 0.27818 0.89909 0.98126 0.0
H1035 H 0.09827 0.95174 0.01983 0.0
H1036 H 0.19949 0.88451 0.03344 0.0
H1037 H 0.19283 0.98678 0.98992 0.0
C1038 C 0.23958 0.97359 0.97273 0.0
C1039 C 0.26359 0.9486 0.96947 0.0
C1040 C 0.17735 0.89937 0.03047 0.0
C1041 C 0.20854 0.93703 0.00083 0.0
C1042 C 0.14765 0.88938 0.04185 0.0
C1043 C 0.11831 0.9077 0.0381 0.0
C1044 C 0.17799 0.928 0.01517 0.0
C1045 C 0.12018 0.93679 0.02326 0.0
C1046 C 0.21185 0.96781 0.98831 0.0
C1047 C 0.26009 0.91891 0.9832 0.0
N1048 N 0.14946 0.94592 0.01219 0.0
N1049 N 0.23305 0.9139 -0.00184 0.0
H1050 H 0.54726 0.11043 0.04594 0.0
H1051 H 0.61478 0.2684 0.9691 0.0
H1052 H 0.64954 0.12665 0.0237 0.0
H1053 H 0.51011 0.24454 0.97204 0.0
H1054 H 0.62657 0.22075 0.99599 0.0
H1055 H 0.53195 0.16228 0.02423 0.0
C1056 C 0.56651 0.12469 0.03656 0.0
C1057 C 0.59989 0.114 0.03692 0.0
C1058 C 0.60094 0.22589 0.99096 0.0
C1059 C 0.5825 0.17361 0.01249 0.0
C1060 C 0.59417 0.25324 0.97567 0.0
C1061 C 0.56146 0.26022 0.96814 0.0
C1062 C 0.57487 0.20498 -0.00124 0.0
C1063 C 0.53569 0.23997 0.97748 0.0
C1064 C 0.55772 0.15439 0.02429 0.0
C1065 C 0.62367 0.13389 0.02455 0.0
N1066 N 0.54298 0.21291 0.99215 0.0
N1067 N 0.61451 0.16258 0.01296 0.0
H1068 H 0.2277 0.60531 0.97487 0.0
H1069 H 0.40499 0.54852 0.01946 0.0
H1070 H 0.26185 0.50467 0.96387 0.0
H1071 H 0.35522 0.63438 0.05066 0.0
H1072 H 0.35191 0.52959 0.0016 0.0
H1073 H 0.27228 0.61437 0.00564 0.0
C1074 C 0.24428 0.58489 0.97945 0.0
C1075 C 0.24131 0.55426 0.96696 0.0
C1076 C 0.35248 0.55222 0.01279 0.0
C1077 C 0.29301 0.56465 0.00144 0.0
C1078 C 0.38277 0.56311 0.02284 0.0
C1079 C 0.38456 0.59323 0.03631 0.0
C1080 C 0.3239 0.57193 0.01587 0.0
C1081 C 0.355 0.611 0.04046 0.0
C1082 C 0.26972 0.59003 -0.00302 0.0
C1083 C 0.26333 0.52857 0.97335 0.0
N1084 N 0.32602 0.60038 0.0299 0.0
N1085 N 0.28881 0.53455 0.98981 0.0
H1086 H 0.95802 0.40475 0.01822 0.0
H1087 H 0.90615 0.21836 0.98933 0.0
H1088 H 0.87598 0.35411 0.05454 0.0
H1089 H 0.9989 0.26006 0.96319 0.0
H1090 H 0.89873 0.26606 0.01742 0.0
H1091 H 0.97698 0.35123 0.00112 0.0
C1092 C 0.94417 0.38241 0.0228 0.0
C1093 C 0.91516 0.38414 0.03768 0.0
C1094 C 0.92109 0.26464 0.00596 0.0
C1095 C 0.93678 0.32282 0.0183 0.0
C1096 C 0.92536 0.23731 0.99001 0.0
C1097 C 0.95311 0.23545 0.97397 0.0
C1098 C 0.94431 0.29081 0.00537 0.0
C1099 C 0.97726 0.26061 0.97544 0.0
C1100 C 0.95515 0.35184 0.01319 0.0
C1101 C 0.89854 0.35425 0.04336 0.0
N1102 N 0.97198 0.2877 0.9905 0.0
N1103 N 0.90936 0.32501 0.03343 0.0
H1104 H 0.25387 0.99767 0.46325 0.0
H1105 H 0.35287 0.87167 0.55338 0.0
H1106 H 0.21588 0.90296 0.48882 0.0
H1107 H 0.40102 0.94899 0.50985 0.0
H1108 H 0.29899 0.89174 0.5387 0.0
H1109 H 0.30404 0.98874 0.48911 0.0
C1110 C 0.25569 0.97549 0.47489 0.0
C1111 C 0.23092 0.95088 0.47388 0.0
C1112 C 0.32132 0.90457 0.53258 0.0
C1113 C 0.28794 0.94047 0.50316 0.0
C1114 C 0.35215 0.89326 0.54111 0.0
C1115 C 0.3816 0.90851 0.53266 0.0
C1116 C 0.3198 0.93138 0.51551 0.0
C1117 C 0.37896 0.93618 0.51646 0.0
C1118 C 0.28439 0.97027 0.48941 0.0
C1119 C 0.23459 0.92239 0.48898 0.0
N1120 N 0.3486 0.94661 0.50824 0.0
N1121 N 0.26267 0.91786 0.50287 0.0
H1122 H 0.50079 0.2528 0.46833 0.0
H1123 H 0.63404 0.3564 0.54922 0.0
H1124 H 0.60304 0.22407 0.47981 0.0
H1125 H 0.54425 0.40071 0.51952 0.0
H1126 H 0.6166 0.30288 0.53236 0.0
H1127 H 0.51024 0.30203 0.49539 0.0
C1128 C 0.52493 0.25648 0.47702 0.0
C1129 C 0.55132 0.23473 0.47163 0.0
C1130 C 0.60052 0.32423 0.5297 0.0
C1131 C 0.56223 0.29038 0.50246 0.0
C1132 C 0.61036 0.35489 0.53953 0.0
C1133 C 0.59065 0.38332 0.53574 0.0
C1134 C 0.57073 0.32172 0.5159 0.0
C1135 C 0.56043 0.37957 0.52255 0.0
C1136 C 0.53038 0.28459 0.49227 0.0
C1137 C 0.58215 0.24048 0.48329 0.0
N1138 N 0.55145 0.34936 0.51296 0.0
N1139 N 0.5868 0.26779 0.49802 0.0
H1140 H 0.23988 0.50746 0.45833 0.0
H1141 H 0.14258 0.63571 0.54808 0.0
H1142 H 0.27715 0.6037 0.48102 0.0
H1143 H 0.09376 0.55379 0.51018 0.0
H1144 H 0.19559 0.61698 0.53104 0.0
H1145 H 0.18998 0.51703 0.48453 0.0
C1146 C 0.23793 0.53018 0.46934 0.0
C1147 C 0.26249 0.55492 0.46753 0.0
C1148 C 0.17334 0.60289 0.5266 0.0
C1149 C 0.2058 0.56607 0.49719 0.0
C1150 C 0.14297 0.61344 0.53652 0.0
C1151 C 0.11347 0.5964 0.5305 0.0
C1152 C 0.17447 0.57506 0.51047 0.0
C1153 C 0.11578 0.56796 0.515 0.0
C1154 C 0.20938 0.53576 0.48406 0.0
C1155 C 0.25863 0.58411 0.48182 0.0
N1156 N 0.14573 0.55826 0.50539 0.0
N1157 N 0.23079 0.58893 0.49594 0.0
H1158 H 0.91694 0.28624 0.49978 0.0
H1159 H 0.94578 0.09451 0.4999 0.0
H1160 H 0.999 0.24312 0.45855 0.0
H1161 H 0.90214 0.14472 0.56454 0.0
H1162 H 0.96634 0.14795 0.48458 0.0
H1163 H 0.91164 0.23479 0.52434 0.0
C1164 C 0.93441 0.26616 0.49643 0.0
C1165 C 0.95854 0.26883 0.47732 0.0
C1166 C 0.95256 0.14709 0.50228 0.0
C1167 C 0.95183 0.20954 0.5045 0.0
C1168 C 0.94066 0.11648 0.51109 0.0
C1169 C 0.92119 0.11479 0.53332 0.0
C1170 C 0.94461 0.17635 0.51552 0.0
C1171 C 0.91585 0.14455 0.54687 0.0
C1172 C 0.93134 0.2368 0.51036 0.0
C1173 C 0.98034 0.24206 0.47339 0.0
N1174 N 0.92694 0.17407 0.53753 0.0
N1175 N 0.976 0.21314 0.48649 0.0
H1176 H 0.75836 0.00262 0.02532 0.0
H1177 H 0.85504 0.13941 0.94292 0.0
H1178 H 0.73162 0.10637 0.02117 0.0
H1179 H 0.90138 0.04866 0.9688 0.0
H1180 H 0.80254 0.12094 0.96134 0.0
H1181 H 0.80366 0.013 0.99468 0.0
C1182 C 0.76148 0.02731 0.01737 0.0
C1183 C 0.74157 0.05378 0.02574 0.0
C1184 C 0.82409 0.10485 0.9627 0.0
C1185 C 0.79277 0.06577 0.99103 0.0
C1186 C 0.85408 0.11527 0.95201 0.0
C1187 C 0.8828 0.09566 0.95449 0.0
C1188 C 0.82265 0.07455 0.97595 0.0
C1189 C 0.87995 0.06476 0.96684 0.0
C1190 C 0.78739 0.03327 0.00012 0.0
C1191 C 0.74668 0.0854 0.01523 0.0
N1192 N 0.85046 0.05524 0.97731 0.0
N1193 N 0.77186 0.09056 -0.00149 0.0
H1194 H 0.45261 0.90681 0.97611 0.0
H1195 H 0.40336 0.72037 0.00733 0.0
H1196 H 0.36989 0.85536 0.94147 0.0
H1197 H 0.49812 0.76184 0.02907 0.0
H1198 H 0.39364 0.76829 0.9799 0.0
H1199 H 0.47236 0.85359 0.99324 0.0
C1200 C 0.43876 0.88434 0.97193 0.0
C1201 C 0.40939 0.88571 0.95747 0.0
C1202 C 0.41688 0.76678 0.99025 0.0
C1203 C 0.43186 0.82476 0.97691 0.0
C1204 C 0.42246 0.73935 0.00584 0.0
C1205 C 0.45153 0.7373 0.02042 0.0
C1206 C 0.44018 0.79288 0.98973 0.0
C1207 C 0.47549 0.76251 0.01794 0.0
C1208 C 0.45018 0.85395 0.98155 0.0
C1209 C 0.39274 0.8557 0.95231 0.0
N1210 N 0.469 0.78969 0.00324 0.0
N1211 N 0.40398 0.82663 0.96226 0.0
H1212 H 0.7887 0.40194 0.00635 0.0
H1213 H 0.60007 0.44897 0.98152 0.0
H1214 H 0.74566 0.4938 0.03305 0.0
H1215 H 0.65101 0.36857 0.9435 0.0
H1216 H 0.65368 0.46884 -0.00223 0.0
H1217 H 0.73995 0.39281 0.97962 0.0
C1218 C 0.76921 0.42058 0.00608 0.0
C1219 C 0.77108 0.44861 0.02186 0.0
C1220 C 0.65313 0.44715 0.98555 0.0
C1221 C 0.71461 0.43786 0.99199 0.0
C1222 C 0.62252 0.43565 0.97643 0.0
C1223 C 0.62091 0.40687 0.9613 0.0
C1224 C 0.68234 0.42952 0.97972 0.0
C1225 C 0.65088 0.39093 0.95494 0.0
C1226 C 0.7413 0.41533 0.9909 0.0
C1227 C 0.74519 0.47198 0.02095 0.0
N1228 N 0.68023 0.40223 0.96442 0.0
N1229 N 0.71763 0.46576 0.00662 0.0
H1230 H 0.01325 0.75219 0.02283 0.0
H1231 H 0.15086 0.6202 0.97861 0.0
H1232 H 0.11735 0.7556 0.04287 0.0
H1233 H 0.05007 0.61707 0.95027 0.0
H1234 H 0.13767 0.67045 0.00192 0.0
H1235 H 0.02488 0.70399 0.99516 0.0
C1236 C 0.03855 0.74315 0.0211 0.0
C1237 C 0.06436 0.75773 0.03525 0.0
C1238 C 0.11833 0.65898 0.99057 0.0
C1239 C 0.0777 0.70277 0.00413 0.0
C1240 C 0.12594 0.63021 0.97709 0.0
C1241 C 0.10167 0.61443 0.96217 0.0
C1242 C 0.08605 0.6723 0.98941 0.0
C1243 C 0.06952 0.62828 0.96163 0.0
C1244 C 0.04513 0.71558 0.00548 0.0
C1245 C 0.09662 0.74494 0.03253 0.0
N1246 N 0.06261 0.65649 0.97506 0.0
N1247 N 0.10228 0.71822 0.01745 0.0
loop_
_geom_bond_atom_site_label_1
_geom_bond_atom_site_label_2
_geom_bond_distance
_geom_bond_site_symmetry_2
_ccdc_geom_bond_type
C0 C1 1.351 . S
C0 N3 1.368 . S
C0 H5 0.931 . S
C1 C0 1.351 . S
C1 N2 1.373 . S
C1 H29 0.930 . S
N2 C1 1.373 . S
N2 C4 1.340 . S
N3 C0 1.368 . S
N3 C4 1.321 . S
N3 Co6 2.135 . S
C4 N2 1.340 . S
C4 N3 1.321 . S
C4 H28 0.930 . S
H5 C0 0.931 . S
Co6 N3 2.135 . S
Co6 N9 2.121 . S
Co6 O14 2.055 . S
Co6 O17 2.039 . S
Co6 N20 2.140 . S
C7 O8 1.227 . S
C7 O17 1.265 . S
O8 C7 1.227 . S
N9 Co6 2.121 . S
N9 C11 1.375 . S
N9 C12 1.313 . S
C10 C11 1.338 . S
C10 N13 1.377 . S
C10 H30 0.930 . S
C11 N9 1.375 . S
C11 C10 1.338 . S
C11 H15 0.931 . S
C12 N9 1.313 . S
C12 N13 1.344 . S
C12 H16 0.930 . S
N13 C10 1.377 . S
N13 C12 1.344 . S
O14 Co6 2.055 . S
O14 C18 1.253 . S
H15 C11 0.931 . S
H16 C12 0.930 . S
O17 Co6 2.039 . S
O17 C7 1.265 . S
C18 O14 1.253 . S
C18 O19 1.227 . S
O19 C18 1.227 . S
N20 Co6 2.140 . S
N20 C23 1.346 . S
N20 C24 1.345 . S
C21 C22 1.387 . S
C21 C25 1.391 . S
C22 C21 1.387 . S
C22 C23 1.369 . S
C22 H31 0.929 . S
C23 N20 1.346 . S
C23 C22 1.369 . S
C23 H26 0.928 . S
C24 N20 1.345 . S
C24 C25 1.371 . S
C24 H27 0.931 . S
C25 C21 1.391 . S
C25 C24 1.371 . S
C25 H32 0.930 . S
H26 C23 0.928 . S
H27 C24 0.931 . S
H28 C4 0.930 . S
H29 C1 0.930 . S
H30 C10 0.930 . S
H31 C22 0.929 . S
H32 C25 0.930 . S
C33 C34 1.351 . S
C33 N36 1.368 . S
C33 H38 0.931 . S
C34 C33 1.351 . S
C34 N35 1.373 . S
C34 H62 0.930 . S
N35 C34 1.373 . S
N35 C37 1.340 . S
N36 C33 1.368 . S
N36 C37 1.321 . S
N36 Co39 2.135 . S
C37 N35 1.340 . S
C37 N36 1.321 . S
C37 H61 0.930 . S
H38 C33 0.931 . S
Co39 N36 2.135 . S
Co39 N42 2.121 . S
Co39 O47 2.055 . S
Co39 O50 2.039 . S
Co39 N53 2.140 . S
C40 O41 1.227 . S
C40 O50 1.265 . S
O41 C40 1.227 . S
N42 Co39 2.121 . S
N42 C44 1.375 . S
N42 C45 1.313 . S
C43 C44 1.338 . S
C43 N46 1.377 . S
C43 H63 0.930 . S
C44 N42 1.375 . S
C44 C43 1.338 . S
C44 H48 0.931 . S
C45 N42 1.313 . S
C45 N46 1.344 . S
C45 H49 0.930 . S
N46 C43 1.377 . S
N46 C45 1.344 . S
O47 Co39 2.055 . S
O47 C51 1.253 . S
H48 C44 0.931 . S
H49 C45 0.930 . S
O50 Co39 2.039 . S
O50 C40 1.265 . S
C51 O47 1.253 . S
C51 O52 1.227 . S
O52 C51 1.227 . S
N53 Co39 2.140 . S
N53 C56 1.346 . S
N53 C57 1.345 . S
C54 C55 1.387 . S
C54 C58 1.391 . S
C55 C54 1.387 . S
C55 C56 1.369 . S
C55 H64 0.929 . S
C56 N53 1.346 . S
C56 C55 1.369 . S
C56 H59 0.928 . S
C57 N53 1.345 . S
C57 C58 1.371 . S
C57 H60 0.931 . S
C58 C54 1.391 . S
C58 C57 1.371 . S
C58 H65 0.930 . S
H59 C56 0.928 . S
H60 C57 0.931 . S
H61 C37 0.930 . S
H62 C34 0.930 . S
H63 C43 0.930 . S
H64 C55 0.929 . S
H65 C58 0.930 . S
C66 C67 1.359 . S
C66 N69 1.368 . S
C66 H71 0.931 . S
C67 C66 1.359 . S
C67 N68 1.362 1_655 S
C67 H95 0.932 . S
N68 C67 1.362 1_455 S
N68 C70 1.340 . S
N69 C66 1.368 . S
N69 C70 1.321 1_655 S
N69 Co72 2.135 . S
C70 N68 1.340 . S
C70 N69 1.321 1_455 S
C70 H94 0.930 . S
H71 C66 0.931 . S
Co72 N69 2.135 . S
Co72 N75 2.121 . S
Co72 O80 2.055 . S
Co72 O83 2.039 1_655 S
Co72 N86 2.140 . S
C73 O74 1.227 . S
C73 O83 1.265 . S
O74 C73 1.227 . S
N75 Co72 2.121 . S
N75 C77 1.375 . S
N75 C78 1.313 . S
C76 C77 1.338 . S
C76 N79 1.377 . S
C76 H96 0.930 . S
C77 N75 1.375 . S
C77 C76 1.338 . S
C77 H81 0.931 . S
C78 N75 1.313 . S
C78 N79 1.344 . S
C78 H82 0.930 . S
N79 C76 1.377 . S
N79 C78 1.344 . S
O80 Co72 2.055 . S
O80 C84 1.253 . S
H81 C77 0.931 . S
H82 C78 0.930 . S
O83 Co72 2.039 1_455 S
O83 C73 1.265 . S
C84 O80 1.253 . S
C84 O85 1.227 . S
O85 C84 1.227 . S
N86 Co72 2.140 . S
N86 C89 1.346 . S
N86 C90 1.345 . S
C87 C88 1.387 . S
C87 C91 1.391 . S
C88 C87 1.387 . S
C88 C89 1.369 . S
C88 H97 0.929 . S
C89 N86 1.346 . S
C89 C88 1.369 . S
C89 H92 0.928 . S
C90 N86 1.345 . S
C90 C91 1.371 . S
C90 H93 0.931 . S
C91 C87 1.391 . S
C91 C90 1.371 . S
C91 H98 0.930 . S
H92 C89 0.928 . S
H93 C90 0.931 . S
H94 C70 0.930 . S
H95 C67 0.932 . S
H96 C76 0.930 . S
H97 C88 0.929 . S
H98 C91 0.930 . S
C99 C100 1.359 . S
C99 N102 1.368 . S
C99 H104 0.931 . S
C100 C99 1.359 . S
C100 N101 1.362 1_565 S
C100 H128 0.932 . S
N101 C100 1.362 1_545 S
N101 C103 1.340 . S
N102 C99 1.368 . S
N102 C103 1.321 1_565 S
N102 Co105 2.135 . S
C103 N101 1.340 . S
C103 N102 1.321 1_545 S
C103 H127 0.930 . S
H104 C99 0.931 . S
Co105 N102 2.135 . S
Co105 N108 2.121 . S
Co105 O113 2.055 . S
Co105 O116 2.039 1_565 S
Co105 N119 2.140 . S
C106 O107 1.227 . S
C106 O116 1.265 . S
O107 C106 1.227 . S
N108 Co105 2.121 . S
N108 C110 1.375 . S
N108 C111 1.313 . S
C109 C110 1.338 . S
C109 N112 1.377 . S
C109 H129 0.930 . S
C110 N108 1.375 . S
C110 C109 1.338 . S
C110 H114 0.931 . S
C111 N108 1.313 . S
C111 N112 1.344 . S
C111 H115 0.930 . S
N112 C109 1.377 . S
N112 C111 1.344 . S
O113 Co105 2.055 . S
O113 C117 1.253 . S
H114 C110 0.931 . S
H115 C111 0.930 . S
O116 Co105 2.039 1_545 S
O116 C106 1.265 . S
C117 O113 1.253 . S
C117 O118 1.227 . S
O118 C117 1.227 . S
N119 Co105 2.140 . S
N119 C122 1.346 . S
N119 C123 1.345 . S
C120 C121 1.387 . S
C120 C124 1.391 . S
C121 C120 1.387 . S
C121 C122 1.369 . S
C121 H130 0.929 . S
C122 N119 1.346 . S
C122 C121 1.369 . S
C122 H125 0.928 . S
C123 N119 1.345 . S
C123 C124 1.371 . S
C123 H126 0.931 . S
C124 C120 1.391 . S
C124 C123 1.371 . S
C124 H131 0.930 . S
H125 C122 0.928 . S
H126 C123 0.931 . S
H127 C103 0.930 . S
H128 C100 0.932 . S
H129 C109 0.930 . S
H130 C121 0.929 . S
H131 C124 0.930 . S
C132 C133 1.359 . S
C132 N135 1.368 . S
C132 H137 0.931 . S
C133 C132 1.359 . S
C133 N134 1.362 1_455 S
C133 H161 0.932 . S
N134 C133 1.362 1_655 S
N134 C136 1.340 . S
N135 C132 1.368 . S
N135 C136 1.321 1_455 S
N135 Co138 2.135 . S
C136 N134 1.340 . S
C136 N135 1.321 1_655 S
C136 H160 0.930 . S
H137 C132 0.931 . S
Co138 N135 2.135 . S
Co138 N141 2.121 . S
Co138 O146 2.055 . S
Co138 O149 2.039 1_455 S
Co138 N152 2.140 . S
C139 O140 1.227 . S
C139 O149 1.265 . S
O140 C139 1.227 . S
N141 Co138 2.121 . S
N141 C143 1.375 . S
N141 C144 1.313 . S
C142 C143 1.338 . S
C142 N145 1.377 . S
C142 H162 0.930 . S
C143 N141 1.375 . S
C143 C142 1.338 . S
C143 H147 0.931 . S
C144 N141 1.313 . S
C144 N145 1.344 . S
C144 H148 0.930 . S
N145 C142 1.377 . S
N145 C144 1.344 . S
O146 Co138 2.055 . S
O146 C150 1.253 . S
H147 C143 0.931 . S
H148 C144 0.930 . S
O149 Co138 2.039 1_655 S
O149 C139 1.265 . S
C150 O146 1.253 . S
C150 O151 1.227 . S
O151 C150 1.227 . S
N152 Co138 2.140 . S
N152 C155 1.346 . S
N152 C156 1.345 . S
C153 C154 1.387 . S
C153 C157 1.391 . S
C154 C153 1.387 . S
C154 C155 1.369 . S
C154 H163 0.929 . S
C155 N152 1.346 . S
C155 C154 1.369 . S
C155 H158 0.928 . S
C156 N152 1.345 . S
C156 C157 1.371 . S
C156 H159 0.931 . S
C157 C153 1.391 . S
C157 C156 1.371 . S
C157 H164 0.930 . S
H158 C155 0.928 . S
H159 C156 0.931 . S
H160 C136 0.930 . S
H161 C133 0.932 . S
H162 C142 0.930 . S
H163 C154 0.929 . S
H164 C157 0.930 . S
C165 C166 1.359 . S
C165 N168 1.368 . S
C165 H170 0.931 . S
C166 C165 1.359 . S
C166 N167 1.362 1_545 S
C166 H194 0.932 . S
N167 C166 1.362 1_565 S
N167 C169 1.340 . S
N168 C165 1.368 . S
N168 C169 1.321 1_545 S
N168 Co171 2.135 . S
C169 N167 1.340 . S
C169 N168 1.321 1_565 S
C169 H193 0.930 . S
H170 C165 0.931 . S
Co171 N168 2.135 . S
Co171 N174 2.121 . S
Co171 O179 2.055 . S
Co171 O182 2.039 1_545 S
Co171 N185 2.140 . S
C172 O173 1.227 . S
C172 O182 1.265 . S
O173 C172 1.227 . S
N174 Co171 2.121 . S
N174 C176 1.375 . S
N174 C177 1.313 . S
C175 C176 1.338 . S
C175 N178 1.377 . S
C175 H195 0.930 . S
C176 N174 1.375 . S
C176 C175 1.338 . S
C176 H180 0.931 . S
C177 N174 1.313 . S
C177 N178 1.344 . S
C177 H181 0.930 . S
N178 C175 1.377 . S
N178 C177 1.344 . S
O179 Co171 2.055 . S
O179 C183 1.253 . S
H180 C176 0.931 . S
H181 C177 0.930 . S
O182 Co171 2.039 1_565 S
O182 C172 1.265 . S
C183 O179 1.253 . S
C183 O184 1.227 . S
O184 C183 1.227 . S
N185 Co171 2.140 . S
N185 C188 1.346 . S
N185 C189 1.345 . S
C186 C187 1.387 . S
C186 C190 1.391 . S
C187 C186 1.387 . S
C187 C188 1.369 . S
C187 H196 0.929 . S
C188 N185 1.346 . S
C188 C187 1.369 . S
C188 H191 0.928 . S
C189 N185 1.345 . S
C189 C190 1.371 . S
C189 H192 0.931 . S
C190 C186 1.391 . S
C190 C189 1.371 . S
C190 H197 0.930 . S
H191 C188 0.928 . S
H192 C189 0.931 . S
H193 C169 0.930 . S
H194 C166 0.932 . S
H195 C175 0.930 . S
H196 C187 0.929 . S
H197 C190 0.930 . S
C198 C199 1.351 . S
C198 N201 1.368 . S
C198 H203 0.931 . S
C199 C198 1.351 . S
C199 N200 1.373 . S
C199 H227 0.930 . S
N200 C199 1.373 . S
N200 C202 1.340 . S
N201 C198 1.368 . S
N201 C202 1.321 . S
N201 Co204 2.135 . S
C202 N200 1.340 . S
C202 N201 1.321 . S
C202 H226 0.930 . S
H203 C198 0.931 . S
Co204 N201 2.135 . S
Co204 N207 2.121 . S
Co204 O212 2.055 . S
Co204 O215 2.039 . S
Co204 N218 2.140 . S
C205 O206 1.227 . S
C205 O215 1.265 . S
O206 C205 1.227 . S
N207 Co204 2.121 . S
N207 C209 1.375 . S
N207 C210 1.313 . S
C208 C209 1.338 . S
C208 N211 1.377 . S
C208 H228 0.930 . S
C209 N207 1.375 . S
C209 C208 1.338 . S
C209 H213 0.931 . S
C210 N207 1.313 . S
C210 N211 1.344 . S
C210 H214 0.930 . S
N211 C208 1.377 . S
N211 C210 1.344 . S
O212 Co204 2.055 . S
O212 C216 1.253 . S
H213 C209 0.931 . S
H214 C210 0.930 . S
O215 Co204 2.039 . S
O215 C205 1.265 . S
C216 O212 1.253 . S
C216 O217 1.227 . S
O217 C216 1.227 . S
N218 Co204 2.140 . S
N218 C221 1.346 . S
N218 C222 1.345 . S
C219 C220 1.387 . S
C219 C223 1.391 . S
C220 C219 1.387 . S
C220 C221 1.369 . S
C220 H229 0.929 . S
C221 N218 1.346 . S
C221 C220 1.369 . S
C221 H224 0.928 . S
C222 N218 1.345 . S
C222 C223 1.371 . S
C222 H225 0.931 . S
C223 C219 1.391 . S
C223 C222 1.371 . S
C223 H230 0.930 . S
H224 C221 0.928 . S
H225 C222 0.931 . S
H226 C202 0.930 . S
H227 C199 0.930 . S
H228 C208 0.930 . S
H229 C220 0.929 . S
H230 C223 0.930 . S
C231 C232 1.351 . S
C231 N234 1.368 . S
C231 H236 0.931 . S
C232 C231 1.351 . S
C232 N233 1.373 . S
C232 H260 0.930 . S
N233 C232 1.373 . S
N233 C235 1.340 . S
N234 C231 1.368 . S
N234 C235 1.321 . S
N234 Co237 2.135 . S
C235 N233 1.340 . S
C235 N234 1.321 . S
C235 H259 0.930 . S
H236 C231 0.931 . S
Co237 N234 2.135 . S
Co237 N240 2.121 . S
Co237 O245 2.055 . S
Co237 O248 2.039 . S
Co237 N251 2.140 . S
C238 O239 1.227 . S
C238 O248 1.265 . S
O239 C238 1.227 . S
N240 Co237 2.121 . S
N240 C242 1.375 . S
N240 C243 1.313 . S
C241 C242 1.338 . S
C241 N244 1.377 . S
C241 H261 0.930 . S
C242 N240 1.375 . S
C242 C241 1.338 . S
C242 H246 0.931 . S
C243 N240 1.313 . S
C243 N244 1.344 . S
C243 H247 0.930 . S
N244 C241 1.377 . S
N244 C243 1.344 . S
O245 Co237 2.055 . S
O245 C249 1.253 . S
H246 C242 0.931 . S
H247 C243 0.930 . S
O248 Co237 2.039 . S
O248 C238 1.265 . S
C249 O245 1.253 . S
C249 O250 1.227 . S
O250 C249 1.227 . S
N251 Co237 2.140 . S
N251 C254 1.346 . S
N251 C255 1.345 . S
C252 C253 1.387 . S
C252 C256 1.391 . S
C253 C252 1.387 . S
C253 C254 1.369 . S
C253 H262 0.929 . S
C254 N251 1.346 . S
C254 C253 1.369 . S
C254 H257 0.928 . S
C255 N251 1.345 . S
C255 C256 1.371 . S
C255 H258 0.931 . S
C256 C252 1.391 . S
C256 C255 1.371 . S
C256 H263 0.930 . S
H257 C254 0.928 . S
H258 C255 0.931 . S
H259 C235 0.930 . S
H260 C232 0.930 . S
H261 C241 0.930 . S
H262 C253 0.929 . S
H263 C256 0.930 . S
C264 C265 1.351 . S
C264 N267 1.368 . S
C264 H269 0.931 . S
C265 C264 1.351 . S
C265 N266 1.373 . S
C265 H293 0.930 . S
N266 C265 1.373 . S
N266 C268 1.340 . S
N267 C264 1.368 . S
N267 C268 1.321 . S
N267 Co270 2.135 . S
C268 N266 1.340 . S
C268 N267 1.321 . S
C268 H292 0.930 . S
H269 C264 0.931 . S
Co270 N267 2.135 . S
Co270 N273 2.121 . S
Co270 O278 2.055 . S
Co270 O281 2.039 . S
Co270 N284 2.140 . S
C271 O272 1.227 . S
C271 O281 1.265 . S
O272 C271 1.227 . S
N273 Co270 2.121 . S
N273 C275 1.375 . S
N273 C276 1.313 . S
C274 C275 1.338 . S
C274 N277 1.377 . S
C274 H294 0.930 . S
C275 N273 1.375 . S
C275 C274 1.338 . S
C275 H279 0.931 . S
C276 N273 1.313 . S
C276 N277 1.344 . S
C276 H280 0.930 . S
N277 C274 1.377 . S
N277 C276 1.344 . S
O278 Co270 2.055 . S
O278 C282 1.253 . S
H279 C275 0.931 . S
H280 C276 0.930 . S
O281 Co270 2.039 . S
O281 C271 1.265 . S
C282 O278 1.253 . S
C282 O283 1.227 . S
O283 C282 1.227 . S
N284 Co270 2.140 . S
N284 C287 1.346 . S
N284 C288 1.345 . S
C285 C286 1.387 . S
C285 C289 1.391 . S
C286 C285 1.387 . S
C286 C287 1.369 . S
C286 H295 0.929 . S
C287 N284 1.346 . S
C287 C286 1.369 . S
C287 H290 0.928 . S
C288 N284 1.345 . S
C288 C289 1.371 . S
C288 H291 0.931 . S
C289 C285 1.391 . S
C289 C288 1.371 . S
C289 H296 0.930 . S
H290 C287 0.928 . S
H291 C288 0.931 . S
H292 C268 0.930 . S
H293 C265 0.930 . S
H294 C274 0.930 . S
H295 C286 0.929 . S
H296 C289 0.930 . S
C297 C298 1.351 . S
C297 N300 1.368 . S
C297 H302 0.931 . S
C298 C297 1.351 . S
C298 N299 1.373 . S
C298 H326 0.930 . S
N299 C298 1.373 . S
N299 C301 1.340 . S
N300 C297 1.368 . S
N300 C301 1.321 . S
N300 Co303 2.135 . S
C301 N299 1.340 . S
C301 N300 1.321 . S
C301 H325 0.930 . S
H302 C297 0.931 . S
Co303 N300 2.135 . S
Co303 N306 2.121 . S
Co303 O311 2.055 . S
Co303 O314 2.039 . S
Co303 N317 2.140 . S
C304 O305 1.227 . S
C304 O314 1.265 . S
O305 C304 1.227 . S
N306 Co303 2.121 . S
N306 C308 1.375 . S
N306 C309 1.313 . S
C307 C308 1.338 . S
C307 N310 1.377 . S
C307 H327 0.930 . S
C308 N306 1.375 . S
C308 C307 1.338 . S
C308 H312 0.931 . S
C309 N306 1.313 . S
C309 N310 1.344 . S
C309 H313 0.930 . S
N310 C307 1.377 . S
N310 C309 1.344 . S
O311 Co303 2.055 . S
O311 C315 1.253 . S
H312 C308 0.931 . S
H313 C309 0.930 . S
O314 Co303 2.039 . S
O314 C304 1.265 . S
C315 O311 1.253 . S
C315 O316 1.227 . S
O316 C315 1.227 . S
N317 Co303 2.140 . S
N317 C320 1.346 . S
N317 C321 1.345 . S
C318 C319 1.387 . S
C318 C322 1.391 . S
C319 C318 1.387 . S
C319 C320 1.369 . S
C319 H328 0.929 . S
C320 N317 1.346 . S
C320 C319 1.369 . S
C320 H323 0.928 . S
C321 N317 1.345 . S
C321 C322 1.371 . S
C321 H324 0.931 . S
C322 C318 1.391 . S
C322 C321 1.371 . S
C322 H329 0.930 . S
H323 C320 0.928 . S
H324 C321 0.931 . S
H325 C301 0.930 . S
H326 C298 0.930 . S
H327 C307 0.930 . S
H328 C319 0.929 . S
H329 C322 0.930 . S
C330 C331 1.359 . S
C330 N333 1.368 . S
C330 H335 0.931 . S
C331 C330 1.359 . S
C331 N332 1.362 1_455 S
C331 H359 0.932 . S
N332 C331 1.362 1_655 S
N332 C334 1.340 . S
N333 C330 1.368 . S
N333 C334 1.321 1_455 S
N333 Co336 2.135 . S
C334 N332 1.340 . S
C334 N333 1.321 1_655 S
C334 H358 0.930 . S
H335 C330 0.931 . S
Co336 N333 2.135 . S
Co336 N339 2.121 . S
Co336 O344 2.055 . S
Co336 O347 2.039 1_455 S
Co336 N350 2.140 . S
C337 O338 1.227 . S
C337 O347 1.265 . S
O338 C337 1.227 . S
N339 Co336 2.121 . S
N339 C341 1.375 . S
N339 C342 1.313 . S
C340 C341 1.338 . S
C340 N343 1.377 . S
C340 H360 0.930 . S
C341 N339 1.375 . S
C341 C340 1.338 . S
C341 H345 0.931 . S
C342 N339 1.313 . S
C342 N343 1.344 . S
C342 H346 0.930 . S
N343 C340 1.377 . S
N343 C342 1.344 . S
O344 Co336 2.055 . S
O344 C348 1.253 . S
H345 C341 0.931 . S
H346 C342 0.930 . S
O347 Co336 2.039 1_655 S
O347 C337 1.265 . S
C348 O344 1.253 . S
C348 O349 1.227 . S
O349 C348 1.227 . S
N350 Co336 2.140 . S
N350 C353 1.346 . S
N350 C354 1.345 . S
C351 C352 1.387 . S
C351 C355 1.391 . S
C352 C351 1.387 . S
C352 C353 1.369 . S
C352 H361 0.929 . S
C353 N350 1.346 . S
C353 C352 1.369 . S
C353 H356 0.928 . S
C354 N350 1.345 . S
C354 C355 1.371 . S
C354 H357 0.931 . S
C355 C351 1.391 . S
C355 C354 1.371 . S
C355 H362 0.930 . S
H356 C353 0.928 . S
H357 C354 0.931 . S
H358 C334 0.930 . S
H359 C331 0.932 . S
H360 C340 0.930 . S
H361 C352 0.929 . S
H362 C355 0.930 . S
C363 C364 1.359 . S
C363 N366 1.368 . S
C363 H368 0.931 . S
C364 C363 1.359 . S
C364 N365 1.362 1_545 S
C364 H392 0.932 . S
N365 C364 1.362 1_565 S
N365 C367 1.340 . S
N366 C363 1.368 . S
N366 C367 1.321 1_545 S
N366 Co369 2.135 . S
C367 N365 1.340 . S
C367 N366 1.321 1_565 S
C367 H391 0.930 . S
H368 C363 0.931 . S
Co369 N366 2.135 . S
Co369 N372 2.121 . S
Co369 O377 2.055 . S
Co369 O380 2.039 1_545 S
Co369 N383 2.140 . S
C370 O371 1.227 . S
C370 O380 1.265 . S
O371 C370 1.227 . S
N372 Co369 2.121 . S
N372 C374 1.375 . S
N372 C375 1.313 . S
C373 C374 1.338 . S
C373 N376 1.377 . S
C373 H393 0.930 . S
C374 N372 1.375 . S
C374 C373 1.338 . S
C374 H378 0.931 . S
C375 N372 1.313 . S
C375 N376 1.344 . S
C375 H379 0.930 . S
N376 C373 1.377 . S
N376 C375 1.344 . S
O377 Co369 2.055 . S
O377 C381 1.253 . S
H378 C374 0.931 . S
H379 C375 0.930 . S
O380 Co369 2.039 1_565 S
O380 C370 1.265 . S
C381 O377 1.253 . S
C381 O382 1.227 . S
O382 C381 1.227 . S
N383 Co369 2.140 . S
N383 C386 1.346 . S
N383 C387 1.345 . S
C384 C385 1.387 . S
C384 C388 1.391 . S
C385 C384 1.387 . S
C385 C386 1.369 . S
C385 H394 0.929 . S
C386 N383 1.346 . S
C386 C385 1.369 . S
C386 H389 0.928 . S
C387 N383 1.345 . S
C387 C388 1.371 . S
C387 H390 0.931 . S
C388 C384 1.391 . S
C388 C387 1.371 . S
C388 H395 0.930 . S
H389 C386 0.928 . S
H390 C387 0.931 . S
H391 C367 0.930 . S
H392 C364 0.932 . S
H393 C373 0.930 . S
H394 C385 0.929 . S
H395 C388 0.930 . S
C396 C397 1.359 . S
C396 N399 1.368 . S
C396 H401 0.931 . S
C397 C396 1.359 . S
C397 N398 1.362 1_655 S
C397 H425 0.932 . S
N398 C397 1.362 1_455 S
N398 C400 1.340 . S
N399 C396 1.368 . S
N399 C400 1.321 1_655 S
N399 Co402 2.135 . S
C400 N398 1.340 . S
C400 N399 1.321 1_455 S
C400 H424 0.930 . S
H401 C396 0.931 . S
Co402 N399 2.135 . S
Co402 N405 2.121 . S
Co402 O410 2.055 . S
Co402 O413 2.039 1_655 S
Co402 N416 2.140 . S
C403 O404 1.227 . S
C403 O413 1.265 . S
O404 C403 1.227 . S
N405 Co402 2.121 . S
N405 C407 1.375 . S
N405 C408 1.313 . S
C406 C407 1.338 . S
C406 N409 1.377 . S
C406 H426 0.930 . S
C407 N405 1.375 . S
C407 C406 1.338 . S
C407 H411 0.931 . S
C408 N405 1.313 . S
C408 N409 1.344 . S
C408 H412 0.930 . S
N409 C406 1.377 . S
N409 C408 1.344 . S
O410 Co402 2.055 . S
O410 C414 1.253 . S
H411 C407 0.931 . S
H412 C408 0.930 . S
O413 Co402 2.039 1_455 S
O413 C403 1.265 . S
C414 O410 1.253 . S
C414 O415 1.227 . S
O415 C414 1.227 . S
N416 Co402 2.140 . S
N416 C419 1.346 . S
N416 C420 1.345 . S
C417 C418 1.387 . S
C417 C421 1.391 . S
C418 C417 1.387 . S
C418 C419 1.369 . S
C418 H427 0.929 . S
C419 N416 1.346 . S
C419 C418 1.369 . S
C419 H422 0.928 . S
C420 N416 1.345 . S
C420 C421 1.371 . S
C420 H423 0.931 . S
C421 C417 1.391 . S
C421 C420 1.371 . S
C421 H428 0.930 . S
H422 C419 0.928 . S
H423 C420 0.931 . S
H424 C400 0.930 . S
H425 C397 0.932 . S
H426 C406 0.930 . S
H427 C418 0.929 . S
H428 C421 0.930 . S
C429 C430 1.359 . S
C429 N432 1.368 . S
C429 H434 0.931 . S
C430 C429 1.359 . S
C430 N431 1.362 1_565 S
C430 H458 0.932 . S
N431 C430 1.362 1_545 S
N431 C433 1.340 . S
N432 C429 1.368 . S
N432 C433 1.321 1_565 S
N432 Co435 2.135 . S
C433 N431 1.340 . S
C433 N432 1.321 1_545 S
C433 H457 0.930 . S
H434 C429 0.931 . S
Co435 N432 2.135 . S
Co435 N438 2.121 . S
Co435 O443 2.055 . S
Co435 O446 2.039 1_565 S
Co435 N449 2.140 . S
C436 O437 1.227 . S
C436 O446 1.265 . S
O437 C436 1.227 . S
N438 Co435 2.121 . S
N438 C440 1.375 . S
N438 C441 1.313 . S
C439 C440 1.338 . S
C439 N442 1.377 . S
C439 H459 0.930 . S
C440 N438 1.375 . S
C440 C439 1.338 . S
C440 H444 0.931 . S
C441 N438 1.313 . S
C441 N442 1.344 . S
C441 H445 0.930 . S
N442 C439 1.377 . S
N442 C441 1.344 . S
O443 Co435 2.055 . S
O443 C447 1.253 . S
H444 C440 0.931 . S
H445 C441 0.930 . S
O446 Co435 2.039 1_545 S
O446 C436 1.265 . S
C447 O443 1.253 . S
C447 O448 1.227 . S
O448 C447 1.227 . S
N449 Co435 2.140 . S
N449 C452 1.346 . S
N449 C453 1.345 . S
C450 C451 1.387 . S
C450 C454 1.391 . S
C451 C450 1.387 . S
C451 C452 1.369 . S
C451 H460 0.929 . S
C452 N449 1.346 . S
C452 C451 1.369 . S
C452 H455 0.928 . S
C453 N449 1.345 . S
C453 C454 1.371 . S
C453 H456 0.931 . S
C454 C450 1.391 . S
C454 C453 1.371 . S
C454 H461 0.930 . S
H455 C452 0.928 . S
H456 C453 0.931 . S
H457 C433 0.930 . S
H458 C430 0.932 . S
H459 C439 0.930 . S
H460 C451 0.929 . S
H461 C454 0.930 . S
C462 C463 1.351 . S
C462 N465 1.368 . S
C462 H467 0.931 . S
C463 C462 1.351 . S
C463 N464 1.373 . S
C463 H491 0.930 . S
N464 C463 1.373 . S
N464 C466 1.340 . S
N465 C462 1.368 . S
N465 C466 1.321 . S
N465 Co468 2.135 . S
C466 N464 1.340 . S
C466 N465 1.321 . S
C466 H490 0.930 . S
H467 C462 0.931 . S
Co468 N465 2.135 . S
Co468 N471 2.121 . S
Co468 O476 2.055 . S
Co468 O479 2.039 . S
Co468 N482 2.140 . S
C469 O470 1.227 . S
C469 O479 1.265 . S
O470 C469 1.227 . S
N471 Co468 2.121 . S
N471 C473 1.375 . S
N471 C474 1.313 . S
C472 C473 1.338 . S
C472 N475 1.377 . S
C472 H492 0.930 . S
C473 N471 1.375 . S
C473 C472 1.338 . S
C473 H477 0.931 . S
C474 N471 1.313 . S
C474 N475 1.344 . S
C474 H478 0.930 . S
N475 C472 1.377 . S
N475 C474 1.344 . S
O476 Co468 2.055 . S
O476 C480 1.253 . S
H477 C473 0.931 . S
H478 C474 0.930 . S
O479 Co468 2.039 . S
O479 C469 1.265 . S
C480 O476 1.253 . S
C480 O481 1.227 . S
O481 C480 1.227 . S
N482 Co468 2.140 . S
N482 C485 1.346 . S
N482 C486 1.345 . S
C483 C484 1.387 . S
C483 C487 1.391 . S
C484 C483 1.387 . S
C484 C485 1.369 . S
C484 H493 0.929 . S
C485 N482 1.346 . S
C485 C484 1.369 . S
C485 H488 0.928 . S
C486 N482 1.345 . S
C486 C487 1.371 . S
C486 H489 0.931 . S
C487 C483 1.391 . S
C487 C486 1.371 . S
C487 H494 0.930 . S
H488 C485 0.928 . S
H489 C486 0.931 . S
H490 C466 0.930 . S
H491 C463 0.930 . S
H492 C472 0.930 . S
H493 C484 0.929 . S
H494 C487 0.930 . S
C495 C496 1.351 . S
C495 N498 1.368 . S
C495 H500 0.931 . S
C496 C495 1.351 . S
C496 N497 1.373 . S
C496 H524 0.930 . S
N497 C496 1.373 . S
N497 C499 1.340 . S
N498 C495 1.368 . S
N498 C499 1.321 . S
N498 Co501 2.135 . S
C499 N497 1.340 . S
C499 N498 1.321 . S
C499 H523 0.930 . S
H500 C495 0.931 . S
Co501 N498 2.135 . S
Co501 N504 2.121 . S
Co501 O509 2.055 . S
Co501 O512 2.039 . S
Co501 N515 2.140 . S
C502 O503 1.227 . S
C502 O512 1.265 . S
O503 C502 1.227 . S
N504 Co501 2.121 . S
N504 C506 1.375 . S
N504 C507 1.313 . S
C505 C506 1.338 . S
C505 N508 1.377 . S
C505 H525 0.930 . S
C506 N504 1.375 . S
C506 C505 1.338 . S
C506 H510 0.931 . S
C507 N504 1.313 . S
C507 N508 1.344 . S
C507 H511 0.930 . S
N508 C505 1.377 . S
N508 C507 1.344 . S
O509 Co501 2.055 . S
O509 C513 1.253 . S
H510 C506 0.931 . S
H511 C507 0.930 . S
O512 Co501 2.039 . S
O512 C502 1.265 . S
C513 O509 1.253 . S
C513 O514 1.227 . S
O514 C513 1.227 . S
N515 Co501 2.140 . S
N515 C518 1.346 . S
N515 C519 1.345 . S
C516 C517 1.387 . S
C516 C520 1.391 . S
C517 C516 1.387 . S
C517 C518 1.369 . S
C517 H526 0.929 . S
C518 N515 1.346 . S
C518 C517 1.369 . S
C518 H521 0.928 . S
C519 N515 1.345 . S
C519 C520 1.371 . S
C519 H522 0.931 . S
C520 C516 1.391 . S
C520 C519 1.371 . S
C520 H527 0.930 . S
H521 C518 0.928 . S
H522 C519 0.931 . S
H523 C499 0.930 . S
H524 C496 0.930 . S
H525 C505 0.930 . S
H526 C517 0.929 . S
H527 C520 0.930 . S
H528 C534 0.930 . S
H529 C538 0.930 . S
H530 C543 0.929 . S
H531 C541 0.929 . S
H532 C536 0.929 . S
H533 C542 0.929 . S
C534 H528 0.930 . S
C534 C535 1.367 . S
C534 C542 1.378 . S
C535 C534 1.367 . S
C535 C543 1.433 . S
C536 H532 0.929 . S
C536 C538 1.378 . S
C536 C540 1.350 . S
C537 C540 1.463 . S
C537 C542 1.350 . S
C537 N545 1.427 . S
C538 H529 0.930 . S
C538 C536 1.378 . S
C538 C539 1.367 . S
C539 C538 1.367 . S
C539 C541 1.433 . S
C540 C536 1.350 . S
C540 C537 1.463 . S
C540 N544 1.427 . S
C541 H531 0.929 . S
C541 C539 1.433 . S
C541 N544 1.384 . S
C542 H533 0.929 . S
C542 C534 1.378 . S
C542 C537 1.350 . S
C543 H530 0.929 . S
C543 C535 1.433 . S
C543 N545 1.384 . S
N544 C540 1.427 . S
N544 C541 1.384 . S
N545 C537 1.427 . S
N545 C543 1.384 . S
H546 C552 0.930 . S
H547 C556 0.930 . S
H548 C561 0.929 . S
H549 C559 0.929 . S
H550 C554 0.929 . S
H551 C560 0.929 . S
C552 H546 0.930 . S
C552 C553 1.367 . S
C552 C560 1.378 . S
C553 C552 1.367 . S
C553 C561 1.433 . S
C554 H550 0.929 . S
C554 C556 1.378 . S
C554 C558 1.350 . S
C555 C558 1.463 . S
C555 C560 1.350 . S
C555 N563 1.427 . S
C556 H547 0.930 . S
C556 C554 1.378 . S
C556 C557 1.367 . S
C557 C556 1.367 . S
C557 C559 1.433 . S
C558 C554 1.350 . S
C558 C555 1.463 . S
C558 N562 1.427 . S
C559 H549 0.929 . S
C559 C557 1.433 . S
C559 N562 1.384 . S
C560 H551 0.929 . S
C560 C552 1.378 . S
C560 C555 1.350 . S
C561 H548 0.929 . S
C561 C553 1.433 . S
C561 N563 1.384 . S
N562 C558 1.427 . S
N562 C559 1.384 . S
N563 C555 1.427 . S
N563 C561 1.384 . S
H564 C570 0.930 . S
H565 C574 0.930 . S
H566 C579 0.929 . S
H567 C577 0.929 . S
H568 C572 0.929 . S
H569 C578 0.929 . S
C570 H564 0.930 . S
C570 C571 1.367 . S
C570 C578 1.378 . S
C571 C570 1.367 . S
C571 C579 1.433 . S
C572 H568 0.929 . S
C572 C574 1.378 . S
C572 C576 1.350 . S
C573 C576 1.463 . S
C573 C578 1.350 . S
C573 N581 1.427 . S
C574 H565 0.930 . S
C574 C572 1.378 . S
C574 C575 1.367 . S
C575 C574 1.367 . S
C575 C577 1.433 . S
C576 C572 1.350 . S
C576 C573 1.463 . S
C576 N580 1.427 . S
C577 H567 0.929 . S
C577 C575 1.433 . S
C577 N580 1.384 . S
C578 H569 0.929 . S
C578 C570 1.378 . S
C578 C573 1.350 . S
C579 H566 0.929 . S
C579 C571 1.433 . S
C579 N581 1.384 . S
N580 C576 1.427 . S
N580 C577 1.384 . S
N581 C573 1.427 . S
N581 C579 1.384 . S
H582 C588 0.930 . S
H583 C592 0.930 . S
H584 C597 0.929 . S
H585 C595 0.929 . S
H586 C590 0.929 . S
H587 C596 0.929 . S
C588 H582 0.930 . S
C588 C589 1.367 . S
C588 C596 1.378 . S
C589 C588 1.367 . S
C589 C597 1.433 . S
C590 H586 0.929 . S
C590 C592 1.378 . S
C590 C594 1.350 . S
C591 C594 1.463 . S
C591 C596 1.350 . S
C591 N599 1.427 . S
C592 H583 0.930 . S
C592 C590 1.378 . S
C592 C593 1.367 . S
C593 C592 1.367 . S
C593 C595 1.433 . S
C594 C590 1.350 . S
C594 C591 1.463 . S
C594 N598 1.427 . S
C595 H585 0.929 . S
C595 C593 1.433 . S
C595 N598 1.384 . S
C596 H587 0.929 . S
C596 C588 1.378 . S
C596 C591 1.350 . S
C597 H584 0.929 . S
C597 C589 1.433 . S
C597 N599 1.384 . S
N598 C594 1.427 . S
N598 C595 1.384 . S
N599 C591 1.427 . S
N599 C597 1.384 . S
H600 C606 0.930 . S
H601 C610 0.930 . S
H602 C615 0.929 . S
H603 C613 0.929 . S
H604 C608 0.929 . S
H605 C614 0.929 . S
C606 H600 0.930 . S
C606 C607 1.367 . S
C606 C614 1.378 . S
C607 C606 1.367 . S
C607 C615 1.433 . S
C608 H604 0.929 . S
C608 C610 1.378 . S
C608 C612 1.350 . S
C609 C612 1.463 . S
C609 C614 1.350 . S
C609 N617 1.427 . S
C610 H601 0.930 . S
C610 C608 1.378 . S
C610 C611 1.367 . S
C611 C610 1.367 . S
C611 C613 1.433 . S
C612 C608 1.350 . S
C612 C609 1.463 . S
C612 N616 1.427 . S
C613 H603 0.929 . S
C613 C611 1.433 . S
C613 N616 1.384 . S
C614 H605 0.929 . S
C614 C606 1.378 . S
C614 C609 1.350 . S
C615 H602 0.929 . S
C615 C607 1.433 . S
C615 N617 1.384 . S
N616 C612 1.427 . S
N616 C613 1.384 . S
N617 C609 1.427 . S
N617 C615 1.384 . S
H618 C624 0.930 . S
H619 C628 0.930 . S
H620 C633 0.929 . S
H621 C631 0.929 . S
H622 C626 0.929 . S
H623 C632 0.929 . S
C624 H618 0.930 . S
C624 C625 1.367 . S
C624 C632 1.378 . S
C625 C624 1.367 . S
C625 C633 1.433 . S
C626 H622 0.929 . S
C626 C628 1.378 . S
C626 C630 1.350 . S
C627 C630 1.463 . S
C627 C632 1.350 . S
C627 N635 1.427 . S
C628 H619 0.930 . S
C628 C626 1.378 . S
C628 C629 1.367 . S
C629 C628 1.367 . S
C629 C631 1.433 . S
C630 C626 1.350 . S
C630 C627 1.463 . S
C630 N634 1.427 . S
C631 H621 0.929 . S
C631 C629 1.433 . S
C631 N634 1.384 . S
C632 H623 0.929 . S
C632 C624 1.378 . S
C632 C627 1.350 . S
C633 H620 0.929 . S
C633 C625 1.433 . S
C633 N635 1.384 . S
N634 C630 1.427 . S
N634 C631 1.384 . S
N635 C627 1.427 . S
N635 C633 1.384 . S
H636 C642 0.930 . S
H637 C646 0.930 . S
H638 C651 0.929 . S
H639 C649 0.929 . S
H640 C644 0.929 . S
H641 C650 0.929 . S
C642 H636 0.930 . S
C642 C643 1.367 . S
C642 C650 1.378 . S
C643 C642 1.367 . S
C643 C651 1.433 . S
C644 H640 0.929 . S
C644 C646 1.378 . S
C644 C648 1.350 . S
C645 C648 1.463 . S
C645 C650 1.350 . S
C645 N653 1.427 . S
C646 H637 0.930 . S
C646 C644 1.378 . S
C646 C647 1.367 . S
C647 C646 1.367 . S
C647 C649 1.433 . S
C648 C644 1.350 . S
C648 C645 1.463 . S
C648 N652 1.427 . S
C649 H639 0.929 . S
C649 C647 1.433 . S
C649 N652 1.384 . S
C650 H641 0.929 . S
C650 C642 1.378 . S
C650 C645 1.350 . S
C651 H638 0.929 . S
C651 C643 1.433 . S
C651 N653 1.384 . S
N652 C648 1.427 . S
N652 C649 1.384 . S
N653 C645 1.427 . S
N653 C651 1.384 . S
H654 C660 0.930 . S
H655 C664 0.930 . S
H656 C669 0.929 . S
H657 C667 0.929 . S
H658 C662 0.929 . S
H659 C668 0.929 . S
C660 H654 0.930 . S
C660 C661 1.367 . S
C660 C668 1.378 . S
C661 C660 1.367 . S
C661 C669 1.433 . S
C662 H658 0.929 . S
C662 C664 1.378 . S
C662 C666 1.350 . S
C663 C666 1.463 . S
C663 C668 1.350 . S
C663 N671 1.427 . S
C664 H655 0.930 . S
C664 C662 1.378 . S
C664 C665 1.367 . S
C665 C664 1.367 . S
C665 C667 1.433 . S
C666 C662 1.350 . S
C666 C663 1.463 . S
C666 N670 1.427 . S
C667 H657 0.929 . S
C667 C665 1.433 . S
C667 N670 1.384 . S
C668 H659 0.929 . S
C668 C660 1.378 . S
C668 C663 1.350 . S
C669 H656 0.929 . S
C669 C661 1.433 . S
C669 N671 1.384 . S
N670 C666 1.427 . S
N670 C667 1.384 . S
N671 C663 1.427 . S
N671 C669 1.384 . S
H672 C678 0.930 . S
H673 C682 0.930 . S
H674 C687 0.929 . S
H675 C685 0.929 . S
H676 C680 0.929 . S
H677 C686 0.929 . S
C678 H672 0.930 . S
C678 C679 1.367 . S
C678 C686 1.378 . S
C679 C678 1.367 . S
C679 C687 1.433 . S
C680 H676 0.929 . S
C680 C682 1.378 . S
C680 C684 1.350 . S
C681 C684 1.463 . S
C681 C686 1.350 . S
C681 N689 1.427 . S
C682 H673 0.930 . S
C682 C680 1.378 . S
C682 C683 1.367 . S
C683 C682 1.367 . S
C683 C685 1.433 . S
C684 C680 1.350 . S
C684 C681 1.463 . S
C684 N688 1.427 . S
C685 H675 0.929 . S
C685 C683 1.433 . S
C685 N688 1.384 . S
C686 H677 0.929 . S
C686 C678 1.378 . S
C686 C681 1.350 . S
C687 H674 0.929 . S
C687 C679 1.433 . S
C687 N689 1.384 . S
N688 C684 1.427 . S
N688 C685 1.384 . S
N689 C681 1.427 . S
N689 C687 1.384 . S
H690 C696 0.930 . S
H691 C700 0.930 . S
H692 C705 0.929 . S
H693 C703 0.929 . S
H694 C698 0.929 . S
H695 C704 0.929 . S
C696 H690 0.930 . S
C696 C697 1.367 . S
C696 C704 1.378 . S
C697 C696 1.367 . S
C697 C705 1.433 . S
C698 H694 0.929 . S
C698 C700 1.378 . S
C698 C702 1.350 . S
C699 C702 1.463 . S
C699 C704 1.350 . S
C699 N707 1.427 . S
C700 H691 0.930 . S
C700 C698 1.378 . S
C700 C701 1.367 . S
C701 C700 1.367 . S
C701 C703 1.433 . S
C702 C698 1.350 . S
C702 C699 1.463 . S
C702 N706 1.427 . S
C703 H693 0.929 . S
C703 C701 1.433 . S
C703 N706 1.384 . S
C704 H695 0.929 . S
C704 C696 1.378 . S
C704 C699 1.350 . S
C705 H692 0.929 . S
C705 C697 1.433 . S
C705 N707 1.384 . S
N706 C702 1.427 . S
N706 C703 1.384 . S
N707 C699 1.427 . S
N707 C705 1.384 . S
H708 C714 0.930 . S
H709 C718 0.930 . S
H710 C723 0.929 . S
H711 C721 0.929 . S
H712 C716 0.929 . S
H713 C722 0.929 . S
C714 H708 0.930 . S
C714 C715 1.367 . S
C714 C722 1.378 . S
C715 C714 1.367 . S
C715 C723 1.433 . S
C716 H712 0.929 . S
C716 C718 1.378 . S
C716 C720 1.350 . S
C717 C720 1.463 . S
C717 C722 1.350 . S
C717 N725 1.427 . S
C718 H709 0.930 . S
C718 C716 1.378 . S
C718 C719 1.367 . S
C719 C718 1.367 . S
C719 C721 1.433 . S
C720 C716 1.350 . S
C720 C717 1.463 . S
C720 N724 1.427 . S
C721 H711 0.929 . S
C721 C719 1.433 . S
C721 N724 1.384 . S
C722 H713 0.929 . S
C722 C714 1.378 . S
C722 C717 1.350 . S
C723 H710 0.929 . S
C723 C715 1.433 . S
C723 N725 1.384 . S
N724 C720 1.427 . S
N724 C721 1.384 . S
N725 C717 1.427 . S
N725 C723 1.384 . S
H726 C732 0.930 . S
H727 C736 0.930 . S
H728 C741 0.929 . S
H729 C739 0.929 . S
H730 C734 0.929 . S
H731 C740 0.929 . S
C732 H726 0.930 . S
C732 C733 1.367 . S
C732 C740 1.378 . S
C733 C732 1.367 . S
C733 C741 1.433 . S
C734 H730 0.929 . S
C734 C736 1.378 . S
C734 C738 1.350 . S
C735 C738 1.463 . S
C735 C740 1.350 . S
C735 N743 1.427 . S
C736 H727 0.930 . S
C736 C734 1.378 . S
C736 C737 1.367 . S
C737 C736 1.367 . S
C737 C739 1.433 . S
C738 C734 1.350 . S
C738 C735 1.463 . S
C738 N742 1.427 . S
C739 H729 0.929 . S
C739 C737 1.433 . S
C739 N742 1.384 . S
C740 H731 0.929 . S
C740 C732 1.378 . S
C740 C735 1.350 . S
C741 H728 0.929 . S
C741 C733 1.433 . S
C741 N743 1.384 . S
N742 C738 1.427 . S
N742 C739 1.384 . S
N743 C735 1.427 . S
N743 C741 1.384 . S
H744 C750 0.930 . S
H745 C754 0.930 . S
H746 C759 0.929 . S
H747 C757 0.929 . S
H748 C752 0.929 . S
H749 C758 0.929 . S
C750 H744 0.930 . S
C750 C751 1.367 . S
C750 C758 1.378 . S
C751 C750 1.367 . S
C751 C759 1.433 . S
C752 H748 0.929 . S
C752 C754 1.378 . S
C752 C756 1.350 . S
C753 C756 1.463 . S
C753 C758 1.350 . S
C753 N761 1.427 . S
C754 H745 0.930 . S
C754 C752 1.378 . S
C754 C755 1.367 . S
C755 C754 1.367 . S
C755 C757 1.433 . S
C756 C752 1.350 . S
C756 C753 1.463 . S
C756 N760 1.427 . S
C757 H747 0.929 . S
C757 C755 1.433 . S
C757 N760 1.384 . S
C758 H749 0.929 . S
C758 C750 1.378 . S
C758 C753 1.350 . S
C759 H746 0.929 . S
C759 C751 1.433 . S
C759 N761 1.384 . S
N760 C756 1.427 . S
N760 C757 1.384 . S
N761 C753 1.427 . S
N761 C759 1.384 . S
H762 C768 0.930 . S
H763 C772 0.930 . S
H764 C777 0.929 . S
H765 C775 0.929 . S
H766 C770 0.929 . S
H767 C776 0.929 . S
C768 H762 0.930 . S
C768 C769 1.367 . S
C768 C776 1.378 . S
C769 C768 1.367 . S
C769 C777 1.433 . S
C770 H766 0.929 . S
C770 C772 1.378 . S
C770 C774 1.350 . S
C771 C774 1.463 . S
C771 C776 1.350 . S
C771 N779 1.427 . S
C772 H763 0.930 . S
C772 C770 1.378 . S
C772 C773 1.367 . S
C773 C772 1.367 . S
C773 C775 1.433 . S
C774 C770 1.350 . S
C774 C771 1.463 . S
C774 N778 1.427 . S
C775 H765 0.929 . S
C775 C773 1.433 . S
C775 N778 1.384 . S
C776 H767 0.929 . S
C776 C768 1.378 . S
C776 C771 1.350 . S
C777 H764 0.929 . S
C777 C769 1.433 . S
C777 N779 1.384 . S
N778 C774 1.427 . S
N778 C775 1.384 . S
N779 C771 1.427 . S
N779 C777 1.384 . S
H780 C786 0.930 . S
H781 C790 0.930 . S
H782 C795 0.929 . S
H783 C793 0.929 . S
H784 C788 0.929 . S
H785 C794 0.929 . S
C786 H780 0.930 . S
C786 C787 1.367 . S
C786 C794 1.378 . S
C787 C786 1.367 . S
C787 C795 1.433 . S
C788 H784 0.929 . S
C788 C790 1.378 . S
C788 C792 1.350 . S
C789 C792 1.463 . S
C789 C794 1.350 . S
C789 N797 1.427 . S
C790 H781 0.930 . S
C790 C788 1.378 . S
C790 C791 1.367 . S
C791 C790 1.367 . S
C791 C793 1.433 . S
C792 C788 1.350 . S
C792 C789 1.463 . S
C792 N796 1.427 . S
C793 H783 0.929 . S
C793 C791 1.433 . S
C793 N796 1.384 . S
C794 H785 0.929 . S
C794 C786 1.378 . S
C794 C789 1.350 . S
C795 H782 0.929 . S
C795 C787 1.433 . S
C795 N797 1.384 . S
N796 C792 1.427 . S
N796 C793 1.384 . S
N797 C789 1.427 . S
N797 C795 1.384 . S
H798 C804 0.930 . S
H799 C808 0.930 . S
H800 C813 0.929 . S
H801 C811 0.929 . S
H802 C806 0.929 . S
H803 C812 0.929 . S
C804 H798 0.930 . S
C804 C805 1.367 . S
C804 C812 1.378 . S
C805 C804 1.367 . S
C805 C813 1.433 . S
C806 H802 0.929 . S
C806 C808 1.378 . S
C806 C810 1.350 . S
C807 C810 1.463 . S
C807 C812 1.350 . S
C807 N815 1.427 . S
C808 H799 0.930 . S
C808 C806 1.378 . S
C808 C809 1.367 . S
C809 C808 1.367 . S
C809 C811 1.433 . S
C810 C806 1.350 . S
C810 C807 1.463 . S
C810 N814 1.427 . S
C811 H801 0.929 . S
C811 C809 1.433 . S
C811 N814 1.384 . S
C812 H803 0.929 . S
C812 C804 1.378 . S
C812 C807 1.350 . S
C813 H800 0.929 . S
C813 C805 1.433 . S
C813 N815 1.384 . S
N814 C810 1.427 . S
N814 C811 1.384 . S
N815 C807 1.427 . S
N815 C813 1.384 . S
H816 C822 0.930 . S
H817 C826 0.930 . S
H818 C831 0.929 . S
H819 C829 0.929 . S
H820 C824 0.929 . S
H821 C830 0.929 . S
C822 H816 0.930 . S
C822 C823 1.367 . S
C822 C830 1.378 . S
C823 C822 1.367 . S
C823 C831 1.433 . S
C824 H820 0.929 . S
C824 C826 1.378 . S
C824 C828 1.350 . S
C825 C828 1.463 . S
C825 C830 1.350 . S
C825 N833 1.427 . S
C826 H817 0.930 . S
C826 C824 1.378 . S
C826 C827 1.367 . S
C827 C826 1.367 . S
C827 C829 1.433 . S
C828 C824 1.350 . S
C828 C825 1.463 . S
C828 N832 1.427 . S
C829 H819 0.929 . S
C829 C827 1.433 . S
C829 N832 1.384 . S
C830 H821 0.929 . S
C830 C822 1.378 . S
C830 C825 1.350 . S
C831 H818 0.929 . S
C831 C823 1.433 . S
C831 N833 1.384 . S
N832 C828 1.427 . S
N832 C829 1.384 . S
N833 C825 1.427 . S
N833 C831 1.384 . S
H834 C840 0.930 . S
H835 C844 0.930 . S
H836 C849 0.929 . S
H837 C847 0.929 . S
H838 C842 0.929 . S
H839 C848 0.929 . S
C840 H834 0.930 . S
C840 C841 1.367 . S
C840 C848 1.378 . S
C841 C840 1.367 . S
C841 C849 1.433 . S
C842 H838 0.929 . S
C842 C844 1.378 . S
C842 C846 1.350 . S
C843 C846 1.463 . S
C843 C848 1.350 . S
C843 N851 1.427 . S
C844 H835 0.930 . S
C844 C842 1.378 . S
C844 C845 1.367 . S
C845 C844 1.367 . S
C845 C847 1.433 . S
C846 C842 1.350 . S
C846 C843 1.463 . S
C846 N850 1.427 . S
C847 H837 0.929 . S
C847 C845 1.433 . S
C847 N850 1.384 . S
C848 H839 0.929 . S
C848 C840 1.378 . S
C848 C843 1.350 . S
C849 H836 0.929 . S
C849 C841 1.433 . S
C849 N851 1.384 . S
N850 C846 1.427 . S
N850 C847 1.384 . S
N851 C843 1.427 . S
N851 C849 1.384 . S
H852 C858 0.930 . S
H853 C862 0.930 . S
H854 C867 0.929 . S
H855 C865 0.929 . S
H856 C860 0.929 . S
H857 C866 0.929 . S
C858 H852 0.930 . S
C858 C859 1.367 . S
C858 C866 1.378 . S
C859 C858 1.367 . S
C859 C867 1.433 . S
C860 H856 0.929 . S
C860 C862 1.378 . S
C860 C864 1.350 . S
C861 C864 1.463 . S
C861 C866 1.350 . S
C861 N869 1.427 . S
C862 H853 0.930 . S
C862 C860 1.378 . S
C862 C863 1.367 . S
C863 C862 1.367 . S
C863 C865 1.433 . S
C864 C860 1.350 . S
C864 C861 1.463 . S
C864 N868 1.427 . S
C865 H855 0.929 . S
C865 C863 1.433 . S
C865 N868 1.384 . S
C866 H857 0.929 . S
C866 C858 1.378 . S
C866 C861 1.350 . S
C867 H854 0.929 . S
C867 C859 1.433 . S
C867 N869 1.384 . S
N868 C864 1.427 . S
N868 C865 1.384 . S
N869 C861 1.427 . S
N869 C867 1.384 . S
H870 C876 0.930 . S
H871 C880 0.930 . S
H872 C885 0.929 . S
H873 C883 0.929 . S
H874 C878 0.929 . S
H875 C884 0.929 . S
C876 H870 0.930 . S
C876 C877 1.367 . S
C876 C884 1.378 . S
C877 C876 1.367 . S
C877 C885 1.433 . S
C878 H874 0.929 . S
C878 C880 1.378 . S
C878 C882 1.350 . S
C879 C882 1.463 . S
C879 C884 1.350 . S
C879 N887 1.427 . S
C880 H871 0.930 . S
C880 C878 1.378 . S
C880 C881 1.367 . S
C881 C880 1.367 . S
C881 C883 1.433 . S
C882 C878 1.350 . S
C882 C879 1.463 . S
C882 N886 1.427 . S
C883 H873 0.929 . S
C883 C881 1.433 . S
C883 N886 1.384 . S
C884 H875 0.929 . S
C884 C876 1.378 . S
C884 C879 1.350 . S
C885 H872 0.929 . S
C885 C877 1.433 . S
C885 N887 1.384 . S
N886 C882 1.427 . S
N886 C883 1.384 . S
N887 C879 1.427 . S
N887 C885 1.384 . S
H888 C894 0.930 . S
H889 C898 0.930 . S
H890 C903 0.929 . S
H891 C901 0.929 . S
H892 C896 0.929 . S
H893 C902 0.929 . S
C894 H888 0.930 . S
C894 C895 1.367 . S
C894 C902 1.378 . S
C895 C894 1.367 . S
C895 C903 1.433 . S
C896 H892 0.929 . S
C896 C898 1.378 . S
C896 C900 1.350 . S
C897 C900 1.463 . S
C897 C902 1.350 . S
C897 N905 1.427 . S
C898 H889 0.930 . S
C898 C896 1.378 . S
C898 C899 1.367 . S
C899 C898 1.367 . S
C899 C901 1.433 . S
C900 C896 1.350 . S
C900 C897 1.463 . S
C900 N904 1.427 . S
C901 H891 0.929 . S
C901 C899 1.433 . S
C901 N904 1.384 . S
C902 H893 0.929 . S
C902 C894 1.378 . S
C902 C897 1.350 . S
C903 H890 0.929 . S
C903 C895 1.433 . S
C903 N905 1.384 . S
N904 C900 1.427 . S
N904 C901 1.384 . S
N905 C897 1.427 . S
N905 C903 1.384 . S
H906 C912 0.930 . S
H907 C916 0.930 . S
H908 C921 0.929 . S
H909 C919 0.929 . S
H910 C914 0.929 . S
H911 C920 0.929 . S
C912 H906 0.930 . S
C912 C913 1.367 . S
C912 C920 1.378 . S
C913 C912 1.367 . S
C913 C921 1.433 . S
C914 H910 0.929 . S
C914 C916 1.378 . S
C914 C918 1.350 . S
C915 C918 1.463 . S
C915 C920 1.350 . S
C915 N923 1.427 . S
C916 H907 0.930 . S
C916 C914 1.378 . S
C916 C917 1.367 . S
C917 C916 1.367 . S
C917 C919 1.433 . S
C918 C914 1.350 . S
C918 C915 1.463 . S
C918 N922 1.427 . S
C919 H909 0.929 . S
C919 C917 1.433 . S
C919 N922 1.384 . S
C920 H911 0.929 . S
C920 C912 1.378 . S
C920 C915 1.350 . S
C921 H908 0.929 . S
C921 C913 1.433 . S
C921 N923 1.384 . S
N922 C918 1.427 . S
N922 C919 1.384 . S
N923 C915 1.427 . S
N923 C921 1.384 . S
H924 C930 0.930 . S
H925 C934 0.930 . S
H926 C939 0.929 . S
H927 C937 0.929 . S
H928 C932 0.929 . S
H929 C938 0.929 . S
C930 H924 0.930 . S
C930 C931 1.367 . S
C930 C938 1.378 . S
C931 C930 1.367 . S
C931 C939 1.433 . S
C932 H928 0.929 . S
C932 C934 1.378 . S
C932 C936 1.350 . S
C933 C936 1.463 . S
C933 C938 1.350 . S
C933 N941 1.427 . S
C934 H925 0.930 . S
C934 C932 1.378 . S
C934 C935 1.367 . S
C935 C934 1.367 . S
C935 C937 1.433 . S
C936 C932 1.350 . S
C936 C933 1.463 . S
C936 N940 1.427 . S
C937 H927 0.929 . S
C937 C935 1.433 . S
C937 N940 1.384 . S
C938 H929 0.929 . S
C938 C930 1.378 . S
C938 C933 1.350 . S
C939 H926 0.929 . S
C939 C931 1.433 . S
C939 N941 1.384 . S
N940 C936 1.427 . S
N940 C937 1.384 . S
N941 C933 1.427 . S
N941 C939 1.384 . S
H942 C948 0.930 . S
H943 C952 0.930 . S
H944 C957 0.929 . S
H945 C955 0.929 . S
H946 C950 0.929 . S
H947 C956 0.929 . S
C948 H942 0.930 . S
C948 C949 1.367 . S
C948 C956 1.378 . S
C949 C948 1.367 . S
C949 C957 1.433 . S
C950 H946 0.929 . S
C950 C952 1.378 . S
C950 C954 1.350 . S
C951 C954 1.463 . S
C951 C956 1.350 . S
C951 N959 1.427 . S
C952 H943 0.930 . S
C952 C950 1.378 . S
C952 C953 1.367 . S
C953 C952 1.367 . S
C953 C955 1.433 . S
C954 C950 1.350 . S
C954 C951 1.463 . S
C954 N958 1.427 . S
C955 H945 0.929 . S
C955 C953 1.433 . S
C955 N958 1.384 . S
C956 H947 0.929 . S
C956 C948 1.378 . S
C956 C951 1.350 . S
C957 H944 0.929 . S
C957 C949 1.433 . S
C957 N959 1.384 . S
N958 C954 1.427 . S
N958 C955 1.384 . S
N959 C951 1.427 . S
N959 C957 1.384 . S
H960 C966 0.930 . S
H961 C970 0.930 . S
H962 C975 0.929 . S
H963 C973 0.929 . S
H964 C968 0.929 . S
H965 C974 0.929 . S
C966 H960 0.930 . S
C966 C967 1.367 . S
C966 C974 1.378 . S
C967 C966 1.367 . S
C967 C975 1.433 . S
C968 H964 0.929 . S
C968 C970 1.378 . S
C968 C972 1.350 . S
C969 C972 1.463 . S
C969 C974 1.350 . S
C969 N977 1.427 . S
C970 H961 0.930 . S
C970 C968 1.378 . S
C970 C971 1.367 . S
C971 C970 1.367 . S
C971 C973 1.433 . S
C972 C968 1.350 . S
C972 C969 1.463 . S
C972 N976 1.427 . S
C973 H963 0.929 . S
C973 C971 1.433 . S
C973 N976 1.384 . S
C974 H965 0.929 . S
C974 C966 1.378 . S
C974 C969 1.350 . S
C975 H962 0.929 . S
C975 C967 1.433 . S
C975 N977 1.384 . S
N976 C972 1.427 . S
N976 C973 1.384 . S
N977 C969 1.427 . S
N977 C975 1.384 . S
H978 C984 0.930 . S
H979 C988 0.930 . S
H980 C993 0.929 . S
H981 C991 0.929 . S
H982 C986 0.929 . S
H983 C992 0.929 . S
C984 H978 0.930 . S
C984 C985 1.367 . S
C984 C992 1.378 . S
C985 C984 1.367 . S
C985 C993 1.433 . S
C986 H982 0.929 . S
C986 C988 1.378 . S
C986 C990 1.350 . S
C987 C990 1.463 . S
C987 C992 1.350 . S
C987 N995 1.427 . S
C988 H979 0.930 . S
C988 C986 1.378 . S
C988 C989 1.367 . S
C989 C988 1.367 . S
C989 C991 1.433 . S
C990 C986 1.350 . S
C990 C987 1.463 . S
C990 N994 1.427 . S
C991 H981 0.929 . S
C991 C989 1.433 . S
C991 N994 1.384 . S
C992 H983 0.929 . S
C992 C984 1.378 . S
C992 C987 1.350 . S
C993 H980 0.929 . S
C993 C985 1.433 . S
C993 N995 1.384 . S
N994 C990 1.427 . S
N994 C991 1.384 . S
N995 C987 1.427 . S
N995 C993 1.384 . S
H996 C1002 0.930 . S
H997 C1006 0.930 . S
H998 C1011 0.929 . S
H999 C1009 0.929 . S
H1000 C1004 0.929 . S
H1001 C1010 0.929 . S
C1002 H996 0.930 . S
C1002 C1003 1.367 . S
C1002 C1010 1.378 . S
C1003 C1002 1.367 . S
C1003 C1011 1.433 . S
C1004 H1000 0.929 . S
C1004 C1006 1.378 . S
C1004 C1008 1.350 . S
C1005 C1008 1.463 . S
C1005 C1010 1.350 . S
C1005 N1013 1.427 . S
C1006 H997 0.930 . S
C1006 C1004 1.378 . S
C1006 C1007 1.367 . S
C1007 C1006 1.367 . S
C1007 C1009 1.433 . S
C1008 C1004 1.350 . S
C1008 C1005 1.463 . S
C1008 N1012 1.427 . S
C1009 H999 0.929 . S
C1009 C1007 1.433 . S
C1009 N1012 1.384 . S
C1010 H1001 0.929 . S
C1010 C1002 1.378 . S
C1010 C1005 1.350 . S
C1011 H998 0.929 . S
C1011 C1003 1.433 . S
C1011 N1013 1.384 . S
N1012 C1008 1.427 . S
N1012 C1009 1.384 . S
N1013 C1005 1.427 . S
N1013 C1011 1.384 . S
H1014 C1020 0.930 . S
H1015 C1024 0.930 . S
H1016 C1029 0.929 . S
H1017 C1027 0.929 . S
H1018 C1022 0.929 . S
H1019 C1028 0.929 . S
C1020 H1014 0.930 . S
C1020 C1021 1.367 . S
C1020 C1028 1.378 . S
C1021 C1020 1.367 . S
C1021 C1029 1.433 . S
C1022 H1018 0.929 . S
C1022 C1024 1.378 . S
C1022 C1026 1.350 . S
C1023 C1026 1.463 . S
C1023 C1028 1.350 . S
C1023 N1031 1.427 . S
C1024 H1015 0.930 . S
C1024 C1022 1.378 . S
C1024 C1025 1.367 . S
C1025 C1024 1.367 . S
C1025 C1027 1.433 . S
C1026 C1022 1.350 . S
C1026 C1023 1.463 . S
C1026 N1030 1.427 . S
C1027 H1017 0.929 . S
C1027 C1025 1.433 . S
C1027 N1030 1.384 . S
C1028 H1019 0.929 . S
C1028 C1020 1.378 . S
C1028 C1023 1.350 . S
C1029 H1016 0.929 . S
C1029 C1021 1.433 . S
C1029 N1031 1.384 . S
N1030 C1026 1.427 . S
N1030 C1027 1.384 . S
N1031 C1023 1.427 . S
N1031 C1029 1.384 . S
H1032 C1038 0.930 . S
H1033 C1042 0.930 . S
H1034 C1047 0.929 . S
H1035 C1045 0.929 . S
H1036 C1040 0.929 . S
H1037 C1046 0.929 . S
C1038 H1032 0.930 . S
C1038 C1039 1.367 . S
C1038 C1046 1.378 . S
C1039 C1038 1.367 . S
C1039 C1047 1.433 . S
C1040 H1036 0.929 . S
C1040 C1042 1.378 . S
C1040 C1044 1.350 . S
C1041 C1044 1.463 1_556 S
C1041 C1046 1.350 . S
C1041 N1049 1.427 . S
C1042 H1033 0.930 . S
C1042 C1040 1.378 . S
C1042 C1043 1.367 . S
C1043 C1042 1.367 . S
C1043 C1045 1.433 . S
C1044 C1040 1.350 . S
C1044 C1041 1.463 1_554 S
C1044 N1048 1.427 . S
C1045 H1035 0.929 . S
C1045 C1043 1.433 . S
C1045 N1048 1.384 . S
C1046 H1037 0.929 . S
C1046 C1038 1.378 . S
C1046 C1041 1.350 . S
C1047 H1034 0.929 . S
C1047 C1039 1.433 . S
C1047 N1049 1.384 . S
N1048 C1044 1.427 . S
N1048 C1045 1.384 . S
N1049 C1041 1.427 . S
N1049 C1047 1.384 . S
H1050 C1056 0.930 . S
H1051 C1060 0.930 . S
H1052 C1065 0.929 . S
H1053 C1063 0.929 . S
H1054 C1058 0.929 . S
H1055 C1064 0.929 . S
C1056 H1050 0.930 . S
C1056 C1057 1.367 . S
C1056 C1064 1.378 . S
C1057 C1056 1.367 . S
C1057 C1065 1.433 . S
C1058 H1054 0.929 . S
C1058 C1060 1.378 . S
C1058 C1062 1.350 . S
C1059 C1062 1.463 1_554 S
C1059 C1064 1.350 . S
C1059 N1067 1.427 . S
C1060 H1051 0.930 . S
C1060 C1058 1.378 . S
C1060 C1061 1.367 . S
C1061 C1060 1.367 . S
C1061 C1063 1.433 . S
C1062 C1058 1.350 . S
C1062 C1059 1.463 1_556 S
C1062 N1066 1.427 . S
C1063 H1053 0.929 . S
C1063 C1061 1.433 . S
C1063 N1066 1.384 . S
C1064 H1055 0.929 . S
C1064 C1056 1.378 . S
C1064 C1059 1.350 . S
C1065 H1052 0.929 . S
C1065 C1057 1.433 . S
C1065 N1067 1.384 . S
N1066 C1062 1.427 . S
N1066 C1063 1.384 . S
N1067 C1059 1.427 . S
N1067 C1065 1.384 . S
H1068 C1074 0.930 . S
H1069 C1078 0.930 . S
H1070 C1083 0.929 . S
H1071 C1081 0.929 . S
H1072 C1076 0.929 1_556 S
H1073 C1082 0.924 1_554 S
C1074 H1068 0.930 . S
C1074 C1075 1.367 . S
C1074 C1082 1.378 . S
C1075 C1074 1.367 . S
C1075 C1083 1.433 . S
C1076 H1072 0.929 1_554 S
C1076 C1078 1.378 . S
C1076 C1080 1.350 . S
C1077 C1080 1.463 1_556 S
C1077 C1082 1.350 . S
C1077 N1085 1.427 . S
C1078 H1069 0.930 . S
C1078 C1076 1.378 . S
C1078 C1079 1.367 . S
C1079 C1078 1.367 . S
C1079 C1081 1.433 . S
C1080 C1076 1.350 . S
C1080 C1077 1.463 1_554 S
C1080 N1084 1.427 . S
C1081 H1071 0.929 . S
C1081 C1079 1.433 . S
C1081 N1084 1.384 . S
C1082 H1073 0.924 1_556 S
C1082 C1074 1.378 . S
C1082 C1077 1.350 . S
C1083 H1070 0.929 . S
C1083 C1075 1.433 . S
C1083 N1085 1.384 . S
N1084 C1080 1.427 . S
N1084 C1081 1.384 . S
N1085 C1077 1.427 . S
N1085 C1083 1.384 . S
H1086 C1092 0.930 . S
H1087 C1096 0.930 . S
H1088 C1101 0.929 . S
H1089 C1099 0.929 . S
H1090 C1094 0.929 . S
H1091 C1100 0.929 . S
C1092 H1086 0.930 . S
C1092 C1093 1.367 . S
C1092 C1100 1.378 . S
C1093 C1092 1.367 . S
C1093 C1101 1.433 . S
C1094 H1090 0.929 . S
C1094 C1096 1.378 . S
C1094 C1098 1.350 . S
C1095 C1098 1.463 1_554 S
C1095 C1100 1.350 . S
C1095 N1103 1.427 . S
C1096 H1087 0.930 . S
C1096 C1094 1.378 . S
C1096 C1097 1.367 . S
C1097 C1096 1.367 . S
C1097 C1099 1.433 . S
C1098 C1094 1.350 . S
C1098 C1095 1.463 1_556 S
C1098 N1102 1.427 . S
C1099 H1089 0.929 . S
C1099 C1097 1.433 . S
C1099 N1102 1.384 . S
C1100 H1091 0.929 . S
C1100 C1092 1.378 . S
C1100 C1095 1.350 . S
C1101 H1088 0.929 . S
C1101 C1093 1.433 . S
C1101 N1103 1.384 . S
N1102 C1098 1.427 . S
N1102 C1099 1.384 . S
N1103 C1095 1.427 . S
N1103 C1101 1.384 . S
H1104 C1110 0.930 . S
H1105 C1114 0.930 . S
H1106 C1119 0.929 . S
H1107 C1117 0.929 . S
H1108 C1112 0.929 . S
H1109 C1118 0.929 . S
C1110 H1104 0.930 . S
C1110 C1111 1.367 . S
C1110 C1118 1.378 . S
C1111 C1110 1.367 . S
C1111 C1119 1.433 . S
C1112 H1108 0.929 . S
C1112 C1114 1.378 . S
C1112 C1116 1.350 . S
C1113 C1116 1.463 . S
C1113 C1118 1.350 . S
C1113 N1121 1.427 . S
C1114 H1105 0.930 . S
C1114 C1112 1.378 . S
C1114 C1115 1.367 . S
C1115 C1114 1.367 . S
C1115 C1117 1.433 . S
C1116 C1112 1.350 . S
C1116 C1113 1.463 . S
C1116 N1120 1.427 . S
C1117 H1107 0.929 . S
C1117 C1115 1.433 . S
C1117 N1120 1.384 . S
C1118 H1109 0.929 . S
C1118 C1110 1.378 . S
C1118 C1113 1.350 . S
C1119 H1106 0.929 . S
C1119 C1111 1.433 . S
C1119 N1121 1.384 . S
N1120 C1116 1.427 . S
N1120 C1117 1.384 . S
N1121 C1113 1.427 . S
N1121 C1119 1.384 . S
H1122 C1128 0.930 . S
H1123 C1132 0.930 . S
H1124 C1137 0.929 . S
H1125 C1135 0.929 . S
H1126 C1130 0.929 . S
H1127 C1136 0.929 . S
C1128 H1122 0.930 . S
C1128 C1129 1.367 . S
C1128 C1136 1.378 . S
C1129 C1128 1.367 . S
C1129 C1137 1.433 . S
C1130 H1126 0.929 . S
C1130 C1132 1.378 . S
C1130 C1134 1.350 . S
C1131 C1134 1.463 . S
C1131 C1136 1.350 . S
C1131 N1139 1.427 . S
C1132 H1123 0.930 . S
C1132 C1130 1.378 . S
C1132 C1133 1.367 . S
C1133 C1132 1.367 . S
C1133 C1135 1.433 . S
C1134 C1130 1.350 . S
C1134 C1131 1.463 . S
C1134 N1138 1.427 . S
C1135 H1125 0.929 . S
C1135 C1133 1.433 . S
C1135 N1138 1.384 . S
C1136 H1127 0.929 . S
C1136 C1128 1.378 . S
C1136 C1131 1.350 . S
C1137 H1124 0.929 . S
C1137 C1129 1.433 . S
C1137 N1139 1.384 . S
N1138 C1134 1.427 . S
N1138 C1135 1.384 . S
N1139 C1131 1.427 . S
N1139 C1137 1.384 . S
H1140 C1146 0.930 . S
H1141 C1150 0.930 . S
H1142 C1155 0.929 . S
H1143 C1153 0.929 . S
H1144 C1148 0.929 . S
H1145 C1154 0.929 . S
C1146 H1140 0.930 . S
C1146 C1147 1.367 . S
C1146 C1154 1.378 . S
C1147 C1146 1.367 . S
C1147 C1155 1.433 . S
C1148 H1144 0.929 . S
C1148 C1150 1.378 . S
C1148 C1152 1.350 . S
C1149 C1152 1.463 . S
C1149 C1154 1.350 . S
C1149 N1157 1.427 . S
C1150 H1141 0.930 . S
C1150 C1148 1.378 . S
C1150 C1151 1.367 . S
C1151 C1150 1.367 . S
C1151 C1153 1.433 . S
C1152 C1148 1.350 . S
C1152 C1149 1.463 . S
C1152 N1156 1.427 . S
C1153 H1143 0.929 . S
C1153 C1151 1.433 . S
C1153 N1156 1.384 . S
C1154 H1145 0.929 . S
C1154 C1146 1.378 . S
C1154 C1149 1.350 . S
C1155 H1142 0.929 . S
C1155 C1147 1.433 . S
C1155 N1157 1.384 . S
N1156 C1152 1.427 . S
N1156 C1153 1.384 . S
N1157 C1149 1.427 . S
N1157 C1155 1.384 . S
H1158 C1164 0.930 . S
H1159 C1168 0.930 . S
H1160 C1173 0.929 . S
H1161 C1171 0.929 . S
H1162 C1166 0.929 . S
H1163 C1172 0.929 . S
C1164 H1158 0.930 . S
C1164 C1165 1.367 . S
C1164 C1172 1.378 . S
C1165 C1164 1.367 . S
C1165 C1173 1.433 . S
C1166 H1162 0.929 . S
C1166 C1168 1.378 . S
C1166 C1170 1.350 . S
C1167 C1170 1.463 . S
C1167 C1172 1.350 . S
C1167 N1175 1.427 . S
C1168 H1159 0.930 . S
C1168 C1166 1.378 . S
C1168 C1169 1.367 . S
C1169 C1168 1.367 . S
C1169 C1171 1.433 . S
C1170 C1166 1.350 . S
C1170 C1167 1.463 . S
C1170 N1174 1.427 . S
C1171 H1161 0.929 . S
C1171 C1169 1.433 . S
C1171 N1174 1.384 . S
C1172 H1163 0.929 . S
C1172 C1164 1.378 . S
C1172 C1167 1.350 . S
C1173 H1160 0.929 . S
C1173 C1165 1.433 . S
C1173 N1175 1.384 . S
N1174 C1170 1.427 . S
N1174 C1171 1.384 . S
N1175 C1167 1.427 . S
N1175 C1173 1.384 . S
H1176 C1182 0.930 . S
H1177 C1186 0.930 . S
H1178 C1191 0.929 . S
H1179 C1189 0.929 . S
H1180 C1184 0.929 1_554 S
H1181 C1190 0.929 1_556 S
C1182 H1176 0.930 . S
C1182 C1183 1.367 . S
C1182 C1190 1.378 . S
C1183 C1182 1.367 . S
C1183 C1191 1.433 . S
C1184 H1180 0.929 1_556 S
C1184 C1186 1.378 . S
C1184 C1188 1.350 . S
C1185 C1188 1.463 1_554 S
C1185 C1190 1.350 . S
C1185 N1193 1.427 . S
C1186 H1177 0.930 . S
C1186 C1184 1.378 . S
C1186 C1187 1.367 . S
C1187 C1186 1.367 . S
C1187 C1189 1.433 . S
C1188 C1184 1.350 . S
C1188 C1185 1.463 1_556 S
C1188 N1192 1.427 . S
C1189 H1179 0.929 . S
C1189 C1187 1.433 . S
C1189 N1192 1.384 . S
C1190 H1181 0.929 1_554 S
C1190 C1182 1.378 . S
C1190 C1185 1.350 . S
C1191 H1178 0.929 . S
C1191 C1183 1.433 . S
C1191 N1193 1.384 . S
N1192 C1188 1.427 . S
N1192 C1189 1.384 . S
N1193 C1185 1.427 . S
N1193 C1191 1.384 . S
H1194 C1200 0.930 . S
H1195 C1204 0.930 . S
H1196 C1209 0.929 . S
H1197 C1207 0.929 . S
H1198 C1202 0.929 . S
H1199 C1208 0.929 . S
C1200 H1194 0.930 . S
C1200 C1201 1.367 . S
C1200 C1208 1.378 . S
C1201 C1200 1.367 . S
C1201 C1209 1.433 . S
C1202 H1198 0.929 . S
C1202 C1204 1.378 . S
C1202 C1206 1.350 . S
C1203 C1206 1.463 1_556 S
C1203 C1208 1.350 . S
C1203 N1211 1.427 . S
C1204 H1195 0.930 . S
C1204 C1202 1.378 . S
C1204 C1205 1.367 . S
C1205 C1204 1.367 . S
C1205 C1207 1.433 . S
C1206 C1202 1.350 . S
C1206 C1203 1.463 1_554 S
C1206 N1210 1.427 . S
C1207 H1197 0.929 . S
C1207 C1205 1.433 . S
C1207 N1210 1.384 . S
C1208 H1199 0.929 . S
C1208 C1200 1.378 . S
C1208 C1203 1.350 . S
C1209 H1196 0.929 . S
C1209 C1201 1.433 . S
C1209 N1211 1.384 . S
N1210 C1206 1.427 . S
N1210 C1207 1.384 . S
N1211 C1203 1.427 . S
N1211 C1209 1.384 . S
H1212 C1218 0.930 . S
H1213 C1222 0.930 . S
H1214 C1227 0.929 . S
H1215 C1225 0.929 . S
H1216 C1220 0.929 . S
H1217 C1226 0.929 . S
C1218 H1212 0.930 . S
C1218 C1219 1.367 . S
C1218 C1226 1.378 . S
C1219 C1218 1.367 . S
C1219 C1227 1.433 . S
C1220 H1216 0.929 . S
C1220 C1222 1.378 . S
C1220 C1224 1.350 . S
C1221 C1224 1.463 1_554 S
C1221 C1226 1.350 . S
C1221 N1229 1.427 . S
C1222 H1213 0.930 . S
C1222 C1220 1.378 . S
C1222 C1223 1.367 . S
C1223 C1222 1.367 . S
C1223 C1225 1.433 . S
C1224 C1220 1.350 . S
C1224 C1221 1.463 1_556 S
C1224 N1228 1.427 . S
C1225 H1215 0.929 . S
C1225 C1223 1.433 . S
C1225 N1228 1.384 . S
C1226 H1217 0.929 . S
C1226 C1218 1.378 . S
C1226 C1221 1.350 . S
C1227 H1214 0.929 . S
C1227 C1219 1.433 . S
C1227 N1229 1.384 . S
N1228 C1224 1.427 . S
N1228 C1225 1.384 . S
N1229 C1221 1.427 . S
N1229 C1227 1.384 . S
H1230 C1236 0.930 . S
H1231 C1240 0.930 . S
H1232 C1245 0.929 . S
H1233 C1243 0.929 . S
H1234 C1238 0.929 1_554 S
H1235 C1244 0.929 1_556 S
C1236 H1230 0.930 . S
C1236 C1237 1.367 . S
C1236 C1244 1.378 . S
C1237 C1236 1.367 . S
C1237 C1245 1.433 . S
C1238 H1234 0.929 1_556 S
C1238 C1240 1.378 . S
C1238 C1242 1.350 . S
C1239 C1242 1.463 1_554 S
C1239 C1244 1.350 . S
C1239 N1247 1.427 . S
C1240 H1231 0.930 . S
C1240 C1238 1.378 . S
C1240 C1241 1.367 . S
C1241 C1240 1.367 . S
C1241 C1243 1.433 . S
C1242 C1238 1.350 . S
C1242 C1239 1.463 1_556 S
C1242 N1246 1.427 . S
C1243 H1233 0.929 . S
C1243 C1241 1.433 . S
C1243 N1246 1.384 . S
C1244 H1235 0.929 1_554 S
C1244 C1236 1.378 . S
C1244 C1239 1.350 . S
C1245 H1232 0.929 . S
C1245 C1237 1.433 . S
C1245 N1247 1.384 . S
N1246 C1242 1.427 . S
N1246 C1243 1.384 . S
N1247 C1239 1.427 . S
N1247 C1245 1.384 . S
C535 N101 1.453 . S
C539 C7 1.587 . S
C553 C40 1.583 . S
C557 N2 1.435 . S
C571 C73 1.589 . S
C575 N35 1.452 . S
C589 C106 1.575 . S
C593 N68 1.432 . S
C607 N167 1.446 . S
C611 C139 1.588 . S
C625 N200 1.446 . S
C629 C172 1.588 . S
C643 C205 1.583 . S
C647 N233 1.435 . S
C661 N134 1.429 . S
C665 C238 1.575 . S
C679 C271 1.586 . S
C683 N365 1.453 . S
C697 C304 1.589 . S
C701 N266 1.453 . S
C715 N299 1.429 . S
C719 C337 1.578 . S
C733 C370 1.587 . S
C737 N332 1.453 . S
C751 N431 1.433 . S
C755 C403 1.575 . S
C769 C436 1.589 . S
C773 N464 1.451 . S
C787 C469 1.575 . S
C791 N497 1.429 . S
C805 C502 1.589 . S
C809 N398 1.453 . S
C823 C21 1.604 . S
C827 C186 1.608 . S
C841 C54 1.608 . S
C845 C219 1.612 . S
C859 C252 1.604 . S
C863 C87 1.609 . S
C877 C120 1.604 . S
C881 C153 1.603 . S
C895 C450 1.610 . S
C899 C285 1.605 . S
C913 C483 1.605 . S
C917 C318 1.603 . S
C931 C351 1.605 . S
C935 C516 1.610 . S
C949 C417 1.603 . S
C953 C384 1.605 . S
C967 N13 1.131 . S
C971 C381 1.140 . S
C985 N46 1.126 . S
C989 C282 1.140 . S
C1003 N79 1.131 . S
C1007 C315 1.140 . S
C1021 N112 1.129 . S
C1025 C348 1.142 . S
C1039 C447 1.141 . S
C1043 N145 1.134 . S
C1057 N178 1.136 . S
C1061 C480 1.144 . S
C1075 C513 1.141 . S
C1079 N211 1.127 . S
C1093 N244 1.134 . S
C1097 C414 1.144 . S
C1111 C117 1.143 . S
C1115 N277 1.137 . S
C1129 C18 1.143 . S
C1133 N310 1.137 . S
C1147 C51 1.140 . S
C1151 N343 1.129 . S
C1165 C84 1.140 . S
C1169 N376 1.126 . S
C1183 C183 1.140 . S
C1187 N409 1.130 . S
C1201 N442 1.132 . S
C1205 C216 1.143 . S
C1219 C249 1.142 . S
C1223 N475 1.128 . S
C1237 C150 1.140 . S
C1241 N508 1.127 . S
