# Generated by pormake.
# Topology svj, (7)-cn, num edge types: 1
# Building blocks:
#     Node 0, Type 0, BuildingBlock: HICVOG_clean_sbu_0, # of connection points: 7
#     Node 1, Type 0, BuildingBlock: HICVOG_clean_sbu_0, # of connection points: 7
#     Node 2, Type 0, BuildingBlock: HICVOG_clean_sbu_0, # of connection points: 7
#     Node 3, Type 0, BuildingBlock: HICVOG_clean_sbu_0, # of connection points: 7
#     Node 4, Type 0, BuildingBlock: HICVOG_clean_sbu_0, # of connection points: 7
#     Node 5, Type 0, BuildingBlock: HICVOG_clean_sbu_0, # of connection points: 7
#     Edge 6, Type (0, 0), BuildingBlock: AJUNOK_clean_linker_0, # of connection points: 2
#     Edge 7, Type (0, 0), BuildingBlock: AJUNOK_clean_linker_0, # of connection points: 2
#     Edge 8, Type (0, 0), BuildingBlock: AJUNOK_clean_linker_0, # of connection points: 2
#     Edge 9, Type (0, 0), BuildingBlock: AJUNOK_clean_linker_0, # of connection points: 2
#     Edge 10, Type (0, 0), BuildingBlock: AJUNOK_clean_linker_0, # of connection points: 2
#     Edge 11, Type (0, 0), BuildingBlock: AJUNOK_clean_linker_0, # of connection points: 2
#     Edge 12, Type (0, 0), BuildingBlock: AJUNOK_clean_linker_0, # of connection points: 2
#     Edge 13, Type (0, 0), BuildingBlock: AJUNOK_clean_linker_0, # of connection points: 2
#     Edge 14, Type (0, 0), BuildingBlock: AJUNOK_clean_linker_0, # of connection points: 2
#     Edge 15, Type (0, 0), BuildingBlock: AJUNOK_clean_linker_0, # of connection points: 2
#     Edge 16, Type (0, 0), BuildingBlock: AJUNOK_clean_linker_0, # of connection points: 2
#     Edge 17, Type (0, 0), BuildingBlock: AJUNOK_clean_linker_0, # of connection points: 2
#     Edge 18, Type (0, 0), BuildingBlock: AJUNOK_clean_linker_0, # of connection points: 2
#     Edge 19, Type (0, 0), BuildingBlock: AJUNOK_clean_linker_0, # of connection points: 2
#     Edge 20, Type (0, 0), BuildingBlock: AJUNOK_clean_linker_0, # of connection points: 2
#     Edge 21, Type (0, 0), BuildingBlock: AJUNOK_clean_linker_0, # of connection points: 2
#     Edge 22, Type (0, 0), BuildingBlock: AJUNOK_clean_linker_0, # of connection points: 2
#     Edge 23, Type (0, 0), BuildingBlock: AJUNOK_clean_linker_0, # of connection points: 2
#     Edge 24, Type (0, 0), BuildingBlock: AJUNOK_clean_linker_0, # of connection points: 2
#     Edge 25, Type (0, 0), BuildingBlock: AJUNOK_clean_linker_0, # of connection points: 2
#     Edge 26, Type (0, 0), BuildingBlock: AJUNOK_clean_linker_0, # of connection points: 2
# Relax obj value: 0.283
# Max RMSD: 0.258
# Mean RMSD: 0.241
data_MOF--net-svj--node1-HICVOG_clean_sbu_0--edge1-AJUNOK_clean_linker_0
_symmetry_space_group_name_H-M    P1
_symmetry_Int_Tables_number       1
_symmetry_cell_setting            triclinic
loop_
_symmetry_equiv_pos_as_xyz
'x, y, z'
_cell_length_a     30.591648
_cell_length_b     30.625834
_cell_length_c     16.258105
_cell_angle_alpha  90.076314
_cell_angle_beta   90.079976
_cell_angle_gamma 119.88739
loop_
_atom_site_label
_atom_site_type_symbol
_atom_site_fract_x
_atom_site_fract_y
_atom_site_fract_z
_atom_type_partial_charge
Zn0 Zn 0.23253 0.46062 0.9782 0.0
C1 C 0.12291 0.46699 0.09998 0.0
N2 N 0.13739 0.50878 0.05547 0.0
C3 C 0.17784 0.51371 0.01509 0.0
N4 N 0.18751 0.47656 0.03461 0.0
N5 N 0.15328 0.44736 0.08891 0.0
C6 C 0.05622 0.32548 0.11057 0.0
O7 O 0.07856 0.34182 0.03931 0.0
O8 O 0.29185 0.52286 0.9297 0.0
Zn9 Zn 0.1551 0.39862 0.16282 0.0
N10 N 0.19436 0.41285 0.8924 0.0
C11 C 0.13621 0.32821 0.85476 0.0
C12 C 0.16577 0.3637 0.91395 0.0
C13 C 0.19493 0.42809 0.81367 0.0
N14 N 0.13653 0.34332 0.77621 0.0
C15 C 0.16481 0.39247 0.75356 0.0
O16 O 0.20476 0.37349 0.13852 0.0
C17 C 0.2481 0.39421 0.10455 0.0
O18 O 0.26171 0.4291 0.05159 0.0
H19 H 0.16584 0.35227 0.97678 0.0
H20 H 0.21934 0.4673 0.79839 0.0
C21 C 0.16351 0.41839 0.34156 0.0
C22 C 0.18696 0.45008 0.40983 0.0
C23 C 0.24368 0.51431 0.31994 0.0
C24 C 0.22125 0.48254 0.253 0.0
N25 N 0.18101 0.4358 0.26457 0.0
N26 N 0.22618 0.49736 0.39656 0.0
H27 H 0.13218 0.38056 0.34941 0.0
C28 C 0.32346 0.55124 0.98343 0.0
O29 O 0.31415 0.53839 0.06118 0.0
O30 O 0.0827 0.34209 0.17574 0.0
H31 H 0.23576 0.49485 0.19183 0.0
H32 H 0.11321 0.28893 0.87104 0.0
H33 H 0.27531 0.55185 0.31134 0.0
Zn34 Zn 0.63673 0.11376 0.26927 0.0
C35 C 0.72314 0.24389 0.21783 0.0
N36 N 0.68469 0.25007 0.24264 0.0
C37 C 0.64362 0.2056 0.22611 0.0
N38 N 0.6573 0.17248 0.19868 0.0
N39 N 0.70642 0.19752 0.18529 0.0
C40 C 0.83667 0.21508 0.14019 0.0
O41 O 0.81754 0.19066 0.209 0.0
O42 O 0.56014 0.07611 0.2851 0.0
Zn43 Zn 0.73199 0.16657 0.10734 0.0
N44 N 0.67666 0.1382 0.37097 0.0
C45 C 0.76195 0.18006 0.41752 0.0
C46 C 0.72664 0.15899 0.35464 0.0
C47 C 0.66026 0.1356 0.44991 0.0
N48 N 0.74592 0.1776 0.4958 0.0
C49 C 0.69608 0.15532 0.51476 0.0
O50 O 0.72249 0.09882 0.14429 0.0
C51 C 0.68859 0.06032 0.1821 0.0
O52 O 0.65403 0.06199 0.22353 0.0
H53 H 0.73887 0.15899 0.29264 0.0
H54 H 0.62028 0.11844 0.46189 0.0
C55 C 0.69859 0.15702 0.92847 0.0
C56 C 0.65955 0.13322 0.86893 0.0
C57 C 0.60129 0.08964 0.97605 0.0
C58 C 0.63993 0.11119 0.03341 0.0
N59 N 0.68748 0.14556 1.00991 0.0
N60 N 0.612 0.101 0.89569 0.0
H61 H 0.73715 0.18237 0.91035 0.0
C62 C 0.53433 0.07683 0.22405 0.0
O63 O 0.55825 0.10368 0.15964 0.0
O64 O 0.80661 0.21209 0.08325 0.0
H65 H 0.63215 0.10011 0.09683 0.0
H66 H 0.80182 0.19747 0.40444 0.0
H67 H 0.56321 0.06306 0.99491 0.0
Zn68 Zn 0.63443 0.75499 0.15377 0.0
C69 C 0.53078 0.67398 0.98062 0.0
N70 N 0.5378 0.63701 1.0102 0.0
C71 C 0.57668 0.66139 0.06217 0.0
N72 N 0.59259 0.71104 0.06594 0.0
N73 N 0.56447 0.71911 0.01316 0.0
C74 C 0.49393 0.78637 0.98224 0.0
O75 O 0.50846 0.78724 0.05864 0.0
O76 O 0.69038 0.73774 0.17025 0.0
Zn77 Zn 0.58243 0.78315 0.96506 0.0
N78 N 0.59063 0.7377 0.24848 0.0
C79 C 0.50802 0.71325 0.29606 0.0
C80 C 0.54138 0.72193 0.23195 0.0
C81 C 0.60843 0.7472 0.32704 0.0
N82 N 0.52566 0.72288 0.3743 0.0
C83 C 0.57513 0.74017 0.392 0.0
O84 O 0.61965 0.84296 0.03991 0.0
C85 C 0.6491 0.85916 0.10164 0.0
O86 O 0.66035 0.83081 0.14329 0.0
H87 H 0.52813 0.71644 0.16929 0.0
H88 H 0.64832 0.76236 0.33807 0.0
C89 C 0.60861 0.78024 0.7969 0.0
C90 C 0.64206 0.78881 0.73169 0.0
C91 C 0.71014 0.82134 0.82666 0.0
C92 C 0.67696 0.81407 0.89071 0.0
N93 N 0.62695 0.79348 0.87456 0.0
N94 N 0.69201 0.80866 0.74878 0.0
H95 H 0.5684 0.76289 0.78663 0.0
C96 C 0.7164 0.74182 0.10658 0.0
O97 O 0.70849 0.76084 0.03965 0.0
O98 O 0.52057 0.784 0.9246 0.0
H99 H 0.69082 0.82462 0.95292 0.0
H100 H 0.46862 0.70008 0.28369 0.0
H101 H 0.75002 0.83726 0.8386 0.0
Zn102 Zn 0.91944 0.52648 0.28084 0.0
C103 C 0.78566 0.48172 0.22542 0.0
N104 N 0.77837 0.43891 0.26059 0.0
C105 C 0.82357 0.44204 0.25584 0.0
N106 N 0.8575 0.48613 0.22133 0.0
N107 N 0.83336 0.5098 0.19767 0.0
C108 C 0.83536 0.64104 0.07914 0.0
O109 O 0.88192 0.66538 0.05185 0.0
O110 O 0.95648 0.48773 0.30365 0.0
Zn111 Zn 0.86335 0.56558 0.11785 0.0
N112 N 0.90066 0.55166 0.37765 0.0
C113 C 0.86567 0.60278 0.41726 0.0
C114 C 0.88347 0.58346 0.35686 0.0
C115 C 0.90129 0.53883 0.45785 0.0
N116 N 0.86647 0.59036 0.49696 0.0
C117 C 0.88418 0.55931 0.51982 0.0
O118 O 0.93365 0.62316 0.14764 0.0
C119 C 0.97294 0.62457 0.17728 0.0
O120 O 0.9705 0.58831 0.21918 0.0
H121 H 0.88295 0.59324 0.2932 0.0
H122 H 0.91409 0.51261 0.47278 0.0
C123 C 0.87004 0.54625 0.93529 0.0
C124 C 0.88902 0.52737 0.87334 0.0
C125 C 0.91877 0.49406 0.97688 0.0
C126 C 0.90275 0.51502 0.03693 0.0
N127 N 0.8771 0.53904 0.0163 0.0
N128 N 0.91177 0.50091 0.89697 0.0
H129 H 0.8524 0.56821 0.91956 0.0
C130 C 0.95518 0.45984 0.24441 0.0
O131 O 0.92549 0.45347 0.18197 0.0
O132 O 0.81788 0.59636 0.10589 0.0
H133 H 0.91235 0.51377 0.09993 0.0
H134 H 0.85142 0.62764 0.401 0.0
H135 H 0.93832 0.47407 0.99348 0.0
Zn136 Zn 0.27004 0.87919 0.14421 0.0
C137 C 0.36422 0.8646 0.98801 0.0
N138 N 0.3986 0.90669 0.0263 0.0
C139 C 0.37045 0.91848 0.07441 0.0
N140 N 0.32085 0.88493 0.06726 0.0
N141 N 0.31698 0.8516 1.01184 0.0
C142 C 0.2624 0.72013 0.98008 0.0
O143 O 0.26051 0.73715 0.05338 0.0
O144 O 0.28386 0.95024 0.16188 0.0
Zn145 Zn 0.25568 0.80357 0.9589 0.0
N146 N 0.28337 0.85268 0.24295 0.0
C147 C 0.30476 0.79373 0.29788 0.0
C148 C 0.29585 0.81634 0.23074 0.0
C149 C 0.27788 0.86642 0.32014 0.0
N150 N 0.29905 0.8071 0.3749 0.0
C151 C 0.28514 0.84238 0.38834 0.0
O152 O 0.19491 0.77365 0.0327 0.0
C153 C 0.17307 0.78615 0.08654 0.0
O154 O 0.19515 0.82922 0.12151 0.0
H155 H 0.29933 0.80539 0.16913 0.0
H156 H 0.26769 0.8953 0.32789 0.0
C157 C 0.25477 0.83571 0.79207 0.0
C158 C 0.24451 0.86219 0.73141 0.0
C159 C 0.21057 0.89186 0.83423 0.0
C160 C 0.22049 0.86532 0.89377 0.0
N161 N 0.24236 0.83786 0.87162 0.0
N162 N 0.22265 0.8896 0.75469 0.0
H163 H 0.27158 0.81295 0.7765 0.0
C164 C 0.2902 0.977 0.09833 0.0
O165 O 0.28142 0.95538 0.0257 0.0
O166 O 0.26134 0.74448 0.91775 0.0
H167 H 0.21094 0.86658 0.95736 0.0
H168 H 0.31549 0.76533 0.28892 0.0
H169 H 0.19326 0.91397 0.85096 0.0
Zn170 Zn 0.45756 0.29794 0.07095 0.0
C171 C 0.59291 0.38185 0.13109 0.0
N172 N 0.59763 0.34495 0.09526 0.0
C173 C 0.55122 0.30451 0.10022 0.0
N174 N 0.51875 0.31743 0.13322 0.0
N175 N 0.54523 0.36494 0.15746 0.0
C176 C 0.57745 0.49275 0.18551 0.0
O177 O 0.57384 0.46838 0.11727 0.0
O178 O 0.42227 0.22277 0.04746 0.0
Zn179 Zn 0.51596 0.39132 0.23686 0.0
N180 N 0.47854 0.34202 0.97444 0.0
C181 C 0.5099 0.4283 0.94096 0.0
C182 C 0.49308 0.38986 0.99841 0.0
C183 C 0.47953 0.33081 0.89334 0.0
N184 N 0.51082 0.41741 0.86062 0.0
C185 C 0.49583 0.36982 0.83417 0.0
O186 O 0.4476 0.38028 0.202 0.0
C187 C 0.4074 0.34787 0.16585 0.0
O188 O 0.40559 0.31172 0.12437 0.0
H189 H 0.49154 0.39804 0.06233 0.0
H190 H 0.4669 0.29231 0.87529 0.0
C191 C 0.51197 0.36873 0.41729 0.0
C192 C 0.49622 0.33343 0.48244 0.0
C193 C 0.463 0.26681 0.38515 0.0
C194 C 0.47677 0.30149 0.32176 0.0
N195 N 0.50201 0.35167 0.33804 0.0
N196 N 0.47282 0.28351 0.46373 0.0
H197 H 0.53139 0.40883 0.42916 0.0
C198 C 0.39901 0.19646 0.11007 0.0
O199 O 0.399 0.21976 0.17781 0.0
O200 O 0.55789 0.46759 0.25077 0.0
H201 H 0.46694 0.28844 0.25961 0.0
H202 H 0.52181 0.4665 0.95992 0.0
H203 H 0.44363 0.22683 0.37218 0.0
C204 C 0.37388 0.4072 0.16137 0.0
C205 C 0.36428 0.35722 0.16085 0.0
C206 C 0.33556 0.41833 0.14495 0.0
C207 C 0.2858 0.37996 0.12943 0.0
H208 H 0.41182 0.43829 0.1707 0.0
H209 H 0.34515 0.4575 0.14312 0.0
S210 S 0.23967 0.24286 0.1272 0.0
N211 N 0.30063 0.26876 0.14687 0.0
N212 N 0.22815 0.28996 0.11878 0.0
C213 C 0.27494 0.32974 0.13265 0.0
C214 C 0.31432 0.31832 0.14751 0.0
C215 C 0.97641 0.27847 0.19191 0.0
C216 C 1.00017 0.29518 0.11523 0.0
C217 C 0.92374 0.25307 0.19898 0.0
C218 C 0.89237 0.2436 0.12983 0.0
H219 H 0.99862 0.28536 0.24733 0.0
H220 H 0.90756 0.24107 0.25963 0.0
S221 S 0.93528 0.27979 0.91463 0.0
N222 N 0.98784 0.30026 0.96811 0.0
N223 N 0.88902 0.2531 0.98198 0.0
C224 C 0.91548 0.2602 0.05273 0.0
C225 C 0.96923 0.28567 0.04528 0.0
C226 C 0.68782 0.95087 0.07028 0.0
C227 C 0.66706 0.91172 0.12832 0.0
C228 C 0.69753 0.99958 0.0901 0.0
C229 C 0.68525 1.01068 0.16796 0.0
H230 H 0.69535 0.9434 1.00827 0.0
H231 H 0.71222 0.02804 0.04246 0.0
S232 S 0.63113 0.92141 0.34241 0.0
N233 N 0.6364 0.88758 0.26789 0.0
N234 N 0.65269 0.97855 0.30438 0.0
C235 C 0.66551 0.97206 0.22721 0.0
C236 C 0.65695 0.92277 0.20761 0.0
C237 C 0.76856 0.65368 0.14695 0.0
C238 C 0.80548 0.66718 0.08541 0.0
C239 C 0.74168 0.67962 0.15631 0.0
C240 C 0.74956 0.71909 0.10293 0.0
H241 H 0.76073 0.62319 0.18892 0.0
H242 H 0.71337 0.66754 0.2041 0.0
S243 S 0.84247 0.76952 0.93252 0.0
N244 N 0.84935 0.72362 0.97178 0.0
N245 N 0.79794 0.77108 0.98748 0.0
C246 C 0.7866 0.73309 0.04154 0.0
C247 C 0.81467 0.70744 0.03317 0.0
C248 C 0.11214 0.69756 0.12445 0.0
C249 C 0.12193 0.74716 0.11294 0.0
C250 C 0.06424 0.6588 0.14721 0.0
C251 C 0.02361 0.66763 0.1574 0.0
H252 H 0.14194 0.68859 0.11611 0.0
H253 H 0.05876 0.62126 0.15489 0.0
S254 S 0.02931 0.79093 0.13445 0.0
N255 N 0.08742 0.80341 0.11488 0.0
N256 N 0.99653 0.73003 0.15477 0.0
C257 C 0.03278 0.7171 0.14602 0.0
C258 C 0.08215 0.757 0.12476 0.0
C259 C 0.32429 0.06167 0.03199 0.0
C260 C 0.31526 0.03285 0.10412 0.0
C261 C 0.35208 0.11451 0.03387 0.0
C262 C 0.37154 0.14066 0.10808 0.0
H263 H 0.31037 0.04334 0.97307 0.0
H264 H 0.35787 0.13498 0.9769 0.0
S265 S 0.36128 0.08358 0.31369 0.0
N266 N 0.32989 0.03499 0.25167 0.0
N267 N 0.38168 0.13398 0.25516 0.0
C268 C 0.36302 0.11247 0.18064 0.0
C269 C 0.33494 0.05871 0.17874 0.0
C270 C 0.1632 0.37311 0.60386 0.0
C271 C 0.16522 0.40629 0.66583 0.0
C272 C 0.16725 0.38613 0.52042 0.0
C273 C 0.17333 0.43281 0.49583 0.0
H274 H 0.16047 0.33753 0.62005 0.0
H275 H 0.16817 0.36052 0.47535 0.0
S276 S 0.17193 0.52938 0.63198 0.0
N277 N 0.16673 0.48499 0.69545 0.0
N278 N 0.17566 0.50994 0.53883 0.0
C279 C 0.17258 0.46513 0.55661 0.0
C280 C 0.16814 0.45177 0.64153 0.0
C281 C 0.71176 0.1904 0.65789 0.0
C282 C 0.6823 0.15047 0.60331 0.0
C283 C 0.70463 0.18502 0.74353 0.0
C284 C 0.66802 0.13919 0.77817 0.0
H285 H 0.74106 0.22612 0.63414 0.0
H286 H 0.72781 0.21707 0.78254 0.0
S287 S 0.58348 0.02172 0.6624 0.0
N288 N 0.61664 0.06298 0.5905 0.0
N289 N 0.60313 0.05236 0.75044 0.0
C290 C 0.63834 0.0989 0.72398 0.0
C291 C 0.64546 0.10461 0.63695 0.0
C292 C 0.64448 0.75447 0.59341 0.0
C293 C 0.62441 0.77682 0.64544 0.0
C294 C 0.62882 0.74294 0.51123 0.0
C295 C 0.59272 0.75369 0.47809 0.0
H296 H 0.67201 0.74514 0.61674 0.0
H297 H 0.64444 0.72471 0.47396 0.0
S298 S 0.53305 0.81756 0.58585 0.0
N299 N 0.56968 0.81309 0.65596 0.0
N300 N 0.53995 0.79112 0.50203 0.0
C301 C 0.57323 0.77709 0.52902 0.0
C302 C 0.58918 0.78883 0.61251 0.0
C303 C 0.84695 0.53714 0.74611 0.0
C304 C 0.88848 0.53737 0.7837 0.0
C305 C 0.84557 0.54318 0.6605 0.0
C306 C 0.8854 0.54928 0.6091 0.0
H307 H 0.81491 0.53131 0.78264 0.0
H308 H 0.8128 0.54276 0.63419 0.0
S309 S 1.00517 0.5582 0.67807 0.0
N310 N 0.97214 0.54801 0.76315 0.0
N311 N 0.96917 0.55919 0.60329 0.0
C312 C 0.92749 0.55059 0.64612 0.0
C313 C 0.92908 0.54471 0.73303 0.0
C314 C 0.3089 0.85409 0.53665 0.0
C315 C 0.27632 0.85243 0.47403 0.0
C316 C 0.29896 0.85802 0.61959 0.0
C317 C 0.2557 0.85994 0.6432 0.0
H318 H 0.34222 0.85188 0.52142 0.0
H319 H 0.32543 0.85954 0.66539 0.0
S320 S 0.15723 0.8548 0.50321 0.0
N321 N 0.19838 0.85177 0.44137 0.0
N322 N 0.17977 0.85946 0.59711 0.0
C323 C 0.22314 0.859 0.58105 0.0
C324 C 0.23333 0.85507 0.49654 0.0
C325 C 0.5116 0.31955 0.62838 0.0
C326 C 0.50111 0.34749 0.57074 0.0
C327 C 0.50955 0.32641 0.71337 0.0
C328 C 0.49654 0.36133 0.74416 0.0
H329 H 0.52098 0.2916 0.60753 0.0
H330 H 0.51861 0.30447 0.75499 0.0
S331 S 0.46267 0.44191 0.61945 0.0
N332 N 0.47539 0.41009 0.5508 0.0
N333 N 0.47171 0.42336 0.70999 0.0
C334 C 0.48613 0.38968 0.68709 0.0
C335 C 0.48835 0.38273 0.60062 0.0
C336 C 0.22868 0.637 0.90884 0.0
C337 C 0.25717 0.66972 0.97319 0.0
C338 C 0.208 0.58466 0.91683 0.0
C339 C 0.21616 0.5641 0.98848 0.0
H340 H 0.21778 0.6512 0.85634 0.0
H341 H 0.18151 0.56007 0.87072 0.0
S342 S 0.29349 0.63452 0.16899 0.0
N343 N 0.29829 0.67844 0.10505 0.0
N344 N 0.25756 0.58059 0.1214 0.0
C345 C 0.24887 0.59694 0.04884 0.0
C346 C 0.2701 0.64981 0.04062 0.0
C347 C 0.54403 0.24232 0.20418 0.0
C348 C 0.54966 0.25668 0.12071 0.0
C349 C 0.57009 0.21948 0.23775 0.0
C350 C 0.60114 0.20873 0.18833 0.0
H351 H 0.52558 0.25523 0.24629 0.0
H352 H 0.56995 0.21491 0.30383 0.0
S353 S 0.61943 0.22878 0.96308 0.0
N354 N 0.58163 0.2508 0.98748 0.0
N355 N 0.62971 0.20711 0.04954 0.0
C356 C 0.60109 0.21629 0.10288 0.0
C357 C 0.5751 0.24003 0.06915 0.0
C358 C 0.39729 0.63421 0.01675 0.0
C359 C 0.37321 0.59405 0.96096 0.0
C360 C 0.44938 0.66673 0.0139 0.0
C361 C 0.47938 0.6605 0.95497 0.0
H362 H 0.37661 0.63763 0.06794 0.0
H363 H 0.46665 0.69219 0.06507 0.0
S364 S 0.43352 0.56659 0.78629 0.0
N365 N 0.382 0.55417 0.83758 0.0
N366 N 0.4805 0.61542 0.83301 0.0
C367 C 0.45501 0.62421 0.89308 0.0
C368 C 0.40166 0.59098 0.89569 0.0
C369 C 0.81604 0.36208 0.30741 0.0
C370 C 0.82341 0.39421 0.24101 0.0
C371 C 0.79286 0.3097 0.29568 0.0
C372 C 0.77444 0.28775 0.21782 0.0
H373 H 0.82287 0.37678 0.36963 0.0
H374 H 0.78181 0.28598 0.34985 0.0
S375 S 0.79425 0.35633 0.02212 0.0
N376 N 0.81917 0.40108 0.0927 0.0
N377 N 0.77421 0.30267 0.07176 0.0
C378 C 0.78868 0.31992 0.14975 0.0
C379 C 0.8129 0.37326 0.16127 0.0
C380 C 0.41289 0.77822 0.02687 0.0
C381 C 0.44999 0.79282 0.96586 0.0
C382 C 0.37878 0.79596 0.02622 0.0
C383 C 0.37987 0.82824 0.96394 0.0
H384 H 0.41294 0.75649 0.07941 0.0
H385 H 0.35576 0.78935 0.08033 0.0
S386 S 0.4646 0.87147 0.78342 0.0
N387 N 0.48189 0.83629 0.8357 0.0
N388 N 0.41738 0.86986 0.83525 0.0
C389 C 0.41333 0.83895 0.8982 0.0
C390 C 0.44834 0.82087 0.89867 0.0
C391 C 0.72801 0.48026 0.11874 0.0
C392 C 0.74145 0.48589 0.20217 0.0
C393 C 0.67718 0.45203 0.09526 0.0
C394 C 0.63872 0.42899 0.1545 0.0
H395 H 0.75665 0.4907 0.07184 0.0
H396 H 0.6685 0.44293 0.03069 0.0
S397 S 0.65467 0.44402 0.38016 0.0
N398 N 0.71249 0.47644 0.34329 0.0
N399 N 0.61722 0.42148 0.29921 0.0
C400 C 0.65137 0.44125 0.23737 0.0
C401 C 0.70296 0.47076 0.2611 0.0
C402 C 0.99007 0.41517 0.16505 0.0
C403 C 0.99541 0.44698 0.23169 0.0
C404 C 0.03222 0.41742 0.12757 0.0
C405 C 0.08083 0.44933 0.15795 0.0
H406 H 0.95373 0.39259 0.13557 0.0
H407 H 0.02708 0.39811 0.06947 0.0
S408 S 0.11472 0.53215 0.3409 0.0
N409 N 0.05276 0.50576 0.33412 0.0
N410 N 0.13186 0.50848 0.26434 0.0
C411 C 0.08624 0.4765 0.23045 0.0
C412 C 0.04338 0.47514 0.26798 0.0
C413 C 0.45318 0.04787 0.15176 0.0
C414 C 0.48033 0.0392 0.2135 0.0
C415 C 0.41157 1.00777 0.11325 0.0
C416 C 0.39451 0.95794 0.13726 0.0
H417 H 0.46762 0.08527 0.12635 0.0
H418 H 0.39649 0.01549 0.05836 0.0
S419 S 0.44622 0.91582 0.30607 0.0
N420 N 0.48242 0.97771 0.30537 0.0
N421 N 0.40386 0.90245 0.23296 0.0
C422 C 0.41727 0.94936 0.20574 0.0
C423 C 0.46005 0.99015 0.24464 0.0
C424 C 0.62448 0.57473 0.11426 0.0
C425 C 0.59188 0.54631 0.17847 0.0
C426 C 0.62443 0.61733 0.0832 0.0
C427 C 0.59241 0.63332 0.11612 0.0
H428 H 0.64665 0.56124 0.08261 0.0
H429 H 0.64605 0.63496 0.02823 0.0
S430 S 0.50423 0.5756 0.29056 0.0
N431 N 0.53095 0.54052 0.2799 0.0
N432 N 0.53015 0.61994 0.21994 0.0
C433 C 0.56329 0.60816 0.18523 0.0
C434 C 0.56352 0.56494 0.21738 0.0
loop_
_geom_bond_atom_site_label_1
_geom_bond_atom_site_label_2
_geom_bond_distance
_geom_bond_site_symmetry_2
_ccdc_geom_bond_type
Zn0 N4 2.020 1_556 S
Zn0 O8 2.019 . S
Zn0 N10 2.119 . S
Zn0 O18 1.975 1_556 S
C1 N2 1.334 . S
C1 N5 1.336 . S
N2 C1 1.334 . S
N2 C3 1.334 . S
C3 N2 1.334 . S
C3 N4 1.336 . S
N4 Zn0 2.020 1_554 S
N4 C3 1.336 . S
N4 N5 1.354 . S
N5 C1 1.336 . S
N5 N4 1.354 . S
N5 Zn9 2.020 . S
C6 O7 1.244 . S
C6 O30 1.257 . S
O7 C6 1.244 . S
O8 Zn0 2.019 . S
O8 C28 1.257 . S
Zn9 N5 2.020 . S
Zn9 O16 1.975 . S
Zn9 N25 2.119 . S
Zn9 O30 2.019 . S
N10 Zn0 2.119 . S
N10 C12 1.334 . S
N10 C13 1.328 . S
C11 C12 1.391 . S
C11 N14 1.329 . S
C11 H32 0.930 . S
C12 N10 1.334 . S
C12 C11 1.391 . S
C12 H19 0.930 . S
C13 N10 1.328 . S
C13 C15 1.392 . S
C13 H20 0.930 . S
N14 C11 1.329 . S
N14 C15 1.331 . S
C15 C13 1.392 . S
C15 N14 1.331 . S
O16 Zn9 1.975 . S
O16 C17 1.252 . S
C17 O16 1.252 . S
C17 O18 1.252 . S
O18 Zn0 1.975 1_554 S
O18 C17 1.252 . S
H19 C12 0.930 . S
H20 C13 0.930 . S
C21 C22 1.392 . S
C21 N25 1.328 . S
C21 H27 0.930 . S
C22 C21 1.392 . S
C22 N26 1.331 . S
C23 C24 1.391 . S
C23 N26 1.329 . S
C23 H33 0.930 . S
C24 C23 1.391 . S
C24 N25 1.334 . S
C24 H31 0.930 . S
N25 Zn9 2.119 . S
N25 C21 1.328 . S
N25 C24 1.334 . S
N26 C22 1.331 . S
N26 C23 1.329 . S
H27 C21 0.930 . S
C28 O8 1.257 . S
C28 O29 1.244 1_556 S
O29 C28 1.244 1_554 S
O30 C6 1.257 . S
O30 Zn9 2.019 . S
H31 C24 0.930 . S
H32 C11 0.930 . S
H33 C23 0.930 . S
Zn34 N38 2.020 . S
Zn34 O42 2.019 . S
Zn34 N44 2.119 . S
Zn34 O52 1.975 . S
C35 N36 1.334 . S
C35 N39 1.336 . S
N36 C35 1.334 . S
N36 C37 1.334 . S
C37 N36 1.334 . S
C37 N38 1.336 . S
N38 Zn34 2.020 . S
N38 C37 1.336 . S
N38 N39 1.354 . S
N39 C35 1.336 . S
N39 N38 1.354 . S
N39 Zn43 2.020 . S
C40 O41 1.244 . S
C40 O64 1.257 . S
O41 C40 1.244 . S
O42 Zn34 2.019 . S
O42 C62 1.257 . S
Zn43 N39 2.020 . S
Zn43 O50 1.975 . S
Zn43 N59 2.119 1_554 S
Zn43 O64 2.019 . S
N44 Zn34 2.119 . S
N44 C46 1.334 . S
N44 C47 1.328 . S
C45 C46 1.391 . S
C45 N48 1.329 . S
C45 H66 0.930 . S
C46 N44 1.334 . S
C46 C45 1.391 . S
C46 H53 0.930 . S
C47 N44 1.328 . S
C47 C49 1.392 . S
C47 H54 0.930 . S
N48 C45 1.329 . S
N48 C49 1.331 . S
C49 C47 1.392 . S
C49 N48 1.331 . S
O50 Zn43 1.975 . S
O50 C51 1.252 . S
C51 O50 1.252 . S
C51 O52 1.252 . S
O52 Zn34 1.975 . S
O52 C51 1.252 . S
H53 C46 0.930 . S
H54 C47 0.930 . S
C55 C56 1.392 . S
C55 N59 1.328 . S
C55 H61 0.930 . S
C56 C55 1.392 . S
C56 N60 1.331 . S
C57 C58 1.391 . S
C57 N60 1.329 . S
C57 H67 0.930 . S
C58 C57 1.391 . S
C58 N59 1.334 . S
C58 H65 0.930 1_556 S
N59 Zn43 2.119 1_556 S
N59 C55 1.328 . S
N59 C58 1.334 . S
N60 C56 1.331 . S
N60 C57 1.329 . S
H61 C55 0.930 . S
C62 O42 1.257 . S
C62 O63 1.244 . S
O63 C62 1.244 . S
O64 C40 1.257 . S
O64 Zn43 2.019 . S
H65 C58 0.930 1_554 S
H66 C45 0.930 . S
H67 C57 0.930 . S
Zn68 N72 2.020 . S
Zn68 O76 2.019 . S
Zn68 N78 2.119 . S
Zn68 O86 1.975 . S
C69 N70 1.334 . S
C69 N73 1.336 . S
N70 C69 1.334 . S
N70 C71 1.334 . S
C71 N70 1.334 . S
C71 N72 1.336 . S
N72 Zn68 2.020 . S
N72 C71 1.336 . S
N72 N73 1.354 . S
N73 C69 1.336 . S
N73 N72 1.354 . S
N73 Zn77 2.020 1_554 S
C74 O75 1.244 1_556 S
C74 O98 1.257 . S
O75 C74 1.244 1_554 S
O76 Zn68 2.019 . S
O76 C96 1.257 . S
Zn77 N73 2.020 1_556 S
Zn77 O84 1.975 1_556 S
Zn77 N93 2.119 . S
Zn77 O98 2.019 . S
N78 Zn68 2.119 . S
N78 C80 1.334 . S
N78 C81 1.328 . S
C79 C80 1.391 . S
C79 N82 1.329 . S
C79 H100 0.930 . S
C80 N78 1.334 . S
C80 C79 1.391 . S
C80 H87 0.930 . S
C81 N78 1.328 . S
C81 C83 1.392 . S
C81 H88 0.930 . S
N82 C79 1.329 . S
N82 C83 1.331 . S
C83 C81 1.392 . S
C83 N82 1.331 . S
O84 Zn77 1.975 1_554 S
O84 C85 1.252 . S
C85 O84 1.252 . S
C85 O86 1.252 . S
O86 Zn68 1.975 . S
O86 C85 1.252 . S
H87 C80 0.930 . S
H88 C81 0.930 . S
C89 C90 1.392 . S
C89 N93 1.328 . S
C89 H95 0.930 . S
C90 C89 1.392 . S
C90 N94 1.331 . S
C91 C92 1.391 . S
C91 N94 1.329 . S
C91 H101 0.930 . S
C92 C91 1.391 . S
C92 N93 1.334 . S
C92 H99 0.930 . S
N93 Zn77 2.119 . S
N93 C89 1.328 . S
N93 C92 1.334 . S
N94 C90 1.331 . S
N94 C91 1.329 . S
H95 C89 0.930 . S
C96 O76 1.257 . S
C96 O97 1.244 . S
O97 C96 1.244 . S
O98 C74 1.257 . S
O98 Zn77 2.019 . S
H99 C92 0.930 . S
H100 C79 0.930 . S
H101 C91 0.930 . S
Zn102 N106 2.020 . S
Zn102 O110 2.019 . S
Zn102 N112 2.119 . S
Zn102 O120 1.975 . S
C103 N104 1.334 . S
C103 N107 1.336 . S
N104 C103 1.334 . S
N104 C105 1.334 . S
C105 N104 1.334 . S
C105 N106 1.336 . S
N106 Zn102 2.020 . S
N106 C105 1.336 . S
N106 N107 1.354 . S
N107 C103 1.336 . S
N107 N106 1.354 . S
N107 Zn111 2.020 . S
C108 O109 1.244 . S
C108 O132 1.257 . S
O109 C108 1.244 . S
O110 Zn102 2.019 . S
O110 C130 1.257 . S
Zn111 N107 2.020 . S
Zn111 O118 1.975 . S
Zn111 N127 2.119 1_554 S
Zn111 O132 2.019 . S
N112 Zn102 2.119 . S
N112 C114 1.334 . S
N112 C115 1.328 . S
C113 C114 1.391 . S
C113 N116 1.329 . S
C113 H134 0.930 . S
C114 N112 1.334 . S
C114 C113 1.391 . S
C114 H121 0.930 . S
C115 N112 1.328 . S
C115 C117 1.392 . S
C115 H122 0.930 . S
N116 C113 1.329 . S
N116 C117 1.331 . S
C117 C115 1.392 . S
C117 N116 1.331 . S
O118 Zn111 1.975 . S
O118 C119 1.252 . S
C119 O118 1.252 . S
C119 O120 1.252 . S
O120 Zn102 1.975 . S
O120 C119 1.252 . S
H121 C114 0.930 . S
H122 C115 0.930 . S
C123 C124 1.392 . S
C123 N127 1.328 . S
C123 H129 0.930 . S
C124 C123 1.392 . S
C124 N128 1.331 . S
C125 C126 1.391 . S
C125 N128 1.329 . S
C125 H135 0.930 . S
C126 C125 1.391 . S
C126 N127 1.334 . S
C126 H133 0.930 1_556 S
N127 Zn111 2.119 1_556 S
N127 C123 1.328 . S
N127 C126 1.334 . S
N128 C124 1.331 . S
N128 C125 1.329 . S
H129 C123 0.930 . S
C130 O110 1.257 . S
C130 O131 1.244 . S
O131 C130 1.244 . S
O132 C108 1.257 . S
O132 Zn111 2.019 . S
H133 C126 0.930 1_554 S
H134 C113 0.930 . S
H135 C125 0.930 . S
Zn136 N140 2.020 . S
Zn136 O144 2.019 . S
Zn136 N146 2.119 . S
Zn136 O154 1.975 . S
C137 N138 1.334 . S
C137 N141 1.336 . S
N138 C137 1.334 . S
N138 C139 1.334 . S
C139 N138 1.334 . S
C139 N140 1.336 . S
N140 Zn136 2.020 . S
N140 C139 1.336 . S
N140 N141 1.354 . S
N141 C137 1.336 . S
N141 N140 1.354 . S
N141 Zn145 2.020 1_554 S
C142 O143 1.244 1_556 S
C142 O166 1.257 . S
O143 C142 1.244 1_554 S
O144 Zn136 2.019 . S
O144 C164 1.257 . S
Zn145 N141 2.020 1_556 S
Zn145 O152 1.975 1_556 S
Zn145 N161 2.119 . S
Zn145 O166 2.019 . S
N146 Zn136 2.119 . S
N146 C148 1.334 . S
N146 C149 1.328 . S
C147 C148 1.391 . S
C147 N150 1.329 . S
C147 H168 0.930 . S
C148 N146 1.334 . S
C148 C147 1.391 . S
C148 H155 0.930 . S
C149 N146 1.328 . S
C149 C151 1.392 . S
C149 H156 0.930 . S
N150 C147 1.329 . S
N150 C151 1.331 . S
C151 C149 1.392 . S
C151 N150 1.331 . S
O152 Zn145 1.975 1_554 S
O152 C153 1.252 . S
C153 O152 1.252 . S
C153 O154 1.252 . S
O154 Zn136 1.975 . S
O154 C153 1.252 . S
H155 C148 0.930 . S
H156 C149 0.930 . S
C157 C158 1.392 . S
C157 N161 1.328 . S
C157 H163 0.930 . S
C158 C157 1.392 . S
C158 N162 1.331 . S
C159 C160 1.391 . S
C159 N162 1.329 . S
C159 H169 0.930 . S
C160 C159 1.391 . S
C160 N161 1.334 . S
C160 H167 0.930 . S
N161 Zn145 2.119 . S
N161 C157 1.328 . S
N161 C160 1.334 . S
N162 C158 1.331 . S
N162 C159 1.329 . S
H163 C157 0.930 . S
C164 O144 1.257 . S
C164 O165 1.244 . S
O165 C164 1.244 . S
O166 C142 1.257 . S
O166 Zn145 2.019 . S
H167 C160 0.930 . S
H168 C147 0.930 . S
H169 C159 0.930 . S
Zn170 N174 2.020 . S
Zn170 O178 2.019 . S
Zn170 N180 2.119 1_554 S
Zn170 O188 1.975 . S
C171 N172 1.334 . S
C171 N175 1.336 . S
N172 C171 1.334 . S
N172 C173 1.334 . S
C173 N172 1.334 . S
C173 N174 1.336 . S
N174 Zn170 2.020 . S
N174 C173 1.336 . S
N174 N175 1.354 . S
N175 C171 1.336 . S
N175 N174 1.354 . S
N175 Zn179 2.020 . S
C176 O177 1.244 . S
C176 O200 1.257 . S
O177 C176 1.244 . S
O178 Zn170 2.019 . S
O178 C198 1.257 . S
Zn179 N175 2.020 . S
Zn179 O186 1.975 . S
Zn179 N195 2.119 . S
Zn179 O200 2.019 . S
N180 Zn170 2.119 1_556 S
N180 C182 1.334 . S
N180 C183 1.328 . S
C181 C182 1.391 . S
C181 N184 1.329 . S
C181 H202 0.930 . S
C182 N180 1.334 . S
C182 C181 1.391 . S
C182 H189 0.930 1_556 S
C183 N180 1.328 . S
C183 C185 1.392 . S
C183 H190 0.930 . S
N184 C181 1.329 . S
N184 C185 1.331 . S
C185 C183 1.392 . S
C185 N184 1.331 . S
O186 Zn179 1.975 . S
O186 C187 1.252 . S
C187 O186 1.252 . S
C187 O188 1.252 . S
O188 Zn170 1.975 . S
O188 C187 1.252 . S
H189 C182 0.930 1_554 S
H190 C183 0.930 . S
C191 C192 1.392 . S
C191 N195 1.328 . S
C191 H197 0.930 . S
C192 C191 1.392 . S
C192 N196 1.331 . S
C193 C194 1.391 . S
C193 N196 1.329 . S
C193 H203 0.930 . S
C194 C193 1.391 . S
C194 N195 1.334 . S
C194 H201 0.930 . S
N195 Zn179 2.119 . S
N195 C191 1.328 . S
N195 C194 1.334 . S
N196 C192 1.331 . S
N196 C193 1.329 . S
H197 C191 0.930 . S
C198 O178 1.257 . S
C198 O199 1.244 . S
O199 C198 1.244 . S
O200 C176 1.257 . S
O200 Zn179 2.019 . S
H201 C194 0.930 . S
H202 C181 0.930 . S
H203 C193 0.930 . S
C204 C205 1.369 . S
C204 C206 1.419 . S
C204 H208 0.930 . S
C205 C204 1.369 . S
C205 C214 1.429 . S
C206 C204 1.419 . S
C206 C207 1.363 . S
C206 H209 0.929 . S
C207 C206 1.363 . S
C207 C213 1.428 . S
H208 C204 0.930 . S
H209 C206 0.929 . S
S210 N211 1.613 . S
S210 N212 1.610 . S
N211 S210 1.613 . S
N211 C214 1.350 . S
N212 S210 1.610 . S
N212 C213 1.351 . S
C213 C207 1.428 . S
C213 N212 1.351 . S
C213 C214 1.434 . S
C214 C205 1.429 . S
C214 N211 1.350 . S
C214 C213 1.434 . S
C215 C216 1.369 . S
C215 C217 1.419 . S
C215 H219 0.930 . S
C216 C215 1.369 . S
C216 C225 1.429 . S
C217 C215 1.419 . S
C217 C218 1.363 . S
C217 H220 0.929 . S
C218 C217 1.363 . S
C218 C224 1.428 . S
H219 C215 0.930 . S
H220 C217 0.929 . S
S221 N222 1.613 . S
S221 N223 1.610 1_556 S
N222 S221 1.613 . S
N222 C225 1.350 1_556 S
N223 S221 1.610 1_554 S
N223 C224 1.351 . S
C224 C218 1.428 . S
C224 N223 1.351 . S
C224 C225 1.434 . S
C225 C216 1.429 . S
C225 N222 1.350 1_554 S
C225 C224 1.434 . S
C226 C227 1.369 . S
C226 C228 1.419 . S
C226 H230 0.930 1_554 S
C227 C226 1.369 . S
C227 C236 1.429 . S
C228 C226 1.419 . S
C228 C229 1.363 . S
C228 H231 0.929 1_565 S
C229 C228 1.363 . S
C229 C235 1.428 . S
H230 C226 0.930 1_556 S
H231 C228 0.929 1_545 S
S232 N233 1.613 . S
S232 N234 1.610 . S
N233 S232 1.613 . S
N233 C236 1.350 . S
N234 S232 1.610 . S
N234 C235 1.351 . S
C235 C229 1.428 . S
C235 N234 1.351 . S
C235 C236 1.434 . S
C236 C227 1.429 . S
C236 N233 1.350 . S
C236 C235 1.434 . S
C237 C238 1.369 . S
C237 C239 1.419 . S
C237 H241 0.930 . S
C238 C237 1.369 . S
C238 C247 1.429 . S
C239 C237 1.419 . S
C239 C240 1.363 . S
C239 H242 0.929 . S
C240 C239 1.363 . S
C240 C246 1.428 . S
H241 C237 0.930 . S
H242 C239 0.929 . S
S243 N244 1.613 . S
S243 N245 1.610 . S
N244 S243 1.613 . S
N244 C247 1.350 . S
N245 S243 1.610 . S
N245 C246 1.351 . S
C246 C240 1.428 . S
C246 N245 1.351 . S
C246 C247 1.434 . S
C247 C238 1.429 . S
C247 N244 1.350 . S
C247 C246 1.434 . S
C248 C249 1.369 . S
C248 C250 1.419 . S
C248 H252 0.930 . S
C249 C248 1.369 . S
C249 C258 1.429 . S
C250 C248 1.419 . S
C250 C251 1.363 . S
C250 H253 0.929 . S
C251 C250 1.363 . S
C251 C257 1.428 . S
H252 C248 0.930 . S
H253 C250 0.929 . S
S254 N255 1.613 1_655 S
S254 N256 1.610 . S
N255 S254 1.613 1_455 S
N255 C258 1.350 . S
N256 S254 1.610 . S
N256 C257 1.351 1_655 S
C257 C251 1.428 . S
C257 N256 1.351 1_455 S
C257 C258 1.434 . S
C258 C249 1.429 . S
C258 N255 1.350 . S
C258 C257 1.434 . S
C259 C260 1.369 . S
C259 C261 1.419 . S
C259 H263 0.930 1_554 S
C260 C259 1.369 . S
C260 C269 1.429 . S
C261 C259 1.419 . S
C261 C262 1.363 . S
C261 H264 0.929 . S
C262 C261 1.363 . S
C262 C268 1.428 . S
H263 C259 0.930 1_556 S
H264 C261 0.929 . S
S265 N266 1.613 . S
S265 N267 1.610 . S
N266 S265 1.613 . S
N266 C269 1.350 . S
N267 S265 1.610 . S
N267 C268 1.351 . S
C268 C262 1.428 . S
C268 N267 1.351 . S
C268 C269 1.434 . S
C269 C260 1.429 . S
C269 N266 1.350 . S
C269 C268 1.434 . S
C270 C271 1.369 . S
C270 C272 1.419 . S
C270 H274 0.930 . S
C271 C270 1.369 . S
C271 C280 1.429 . S
C272 C270 1.419 . S
C272 C273 1.363 . S
C272 H275 0.929 . S
C273 C272 1.363 . S
C273 C279 1.428 . S
H274 C270 0.930 . S
H275 C272 0.929 . S
S276 N277 1.613 . S
S276 N278 1.610 . S
N277 S276 1.613 . S
N277 C280 1.350 . S
N278 S276 1.610 . S
N278 C279 1.351 . S
C279 C273 1.428 . S
C279 N278 1.351 . S
C279 C280 1.434 . S
C280 C271 1.429 . S
C280 N277 1.350 . S
C280 C279 1.434 . S
C281 C282 1.369 . S
C281 C283 1.419 . S
C281 H285 0.930 . S
C282 C281 1.369 . S
C282 C291 1.429 . S
C283 C281 1.419 . S
C283 C284 1.363 . S
C283 H286 0.929 . S
C284 C283 1.363 . S
C284 C290 1.428 . S
H285 C281 0.930 . S
H286 C283 0.929 . S
S287 N288 1.613 . S
S287 N289 1.610 1_565 S
N288 S287 1.613 . S
N288 C291 1.350 1_565 S
N289 S287 1.610 1_545 S
N289 C290 1.351 . S
C290 C284 1.428 . S
C290 N289 1.351 . S
C290 C291 1.434 . S
C291 C282 1.429 . S
C291 N288 1.350 1_545 S
C291 C290 1.434 . S
C292 C293 1.369 . S
C292 C294 1.419 . S
C292 H296 0.930 . S
C293 C292 1.369 . S
C293 C302 1.429 . S
C294 C292 1.419 . S
C294 C295 1.363 . S
C294 H297 0.929 . S
C295 C294 1.363 . S
C295 C301 1.428 . S
H296 C292 0.930 . S
H297 C294 0.929 . S
S298 N299 1.613 . S
S298 N300 1.610 . S
N299 S298 1.613 . S
N299 C302 1.350 . S
N300 S298 1.610 . S
N300 C301 1.351 . S
C301 C295 1.428 . S
C301 N300 1.351 . S
C301 C302 1.434 . S
C302 C293 1.429 . S
C302 N299 1.350 . S
C302 C301 1.434 . S
C303 C304 1.369 . S
C303 C305 1.419 . S
C303 H307 0.930 . S
C304 C303 1.369 . S
C304 C313 1.429 . S
C305 C303 1.419 . S
C305 C306 1.363 . S
C305 H308 0.929 . S
C306 C305 1.363 . S
C306 C312 1.428 . S
H307 C303 0.930 . S
H308 C305 0.929 . S
S309 N310 1.613 1_455 S
S309 N311 1.610 1_455 S
N310 S309 1.613 1_655 S
N310 C313 1.350 . S
N311 S309 1.610 1_655 S
N311 C312 1.351 . S
C312 C306 1.428 . S
C312 N311 1.351 . S
C312 C313 1.434 . S
C313 C304 1.429 . S
C313 N310 1.350 . S
C313 C312 1.434 . S
C314 C315 1.369 . S
C314 C316 1.419 . S
C314 H318 0.930 . S
C315 C314 1.369 . S
C315 C324 1.429 . S
C316 C314 1.419 . S
C316 C317 1.363 . S
C316 H319 0.929 . S
C317 C316 1.363 . S
C317 C323 1.428 . S
H318 C314 0.930 . S
H319 C316 0.929 . S
S320 N321 1.613 . S
S320 N322 1.610 . S
N321 S320 1.613 . S
N321 C324 1.350 . S
N322 S320 1.610 . S
N322 C323 1.351 . S
C323 C317 1.428 . S
C323 N322 1.351 . S
C323 C324 1.434 . S
C324 C315 1.429 . S
C324 N321 1.350 . S
C324 C323 1.434 . S
C325 C326 1.369 . S
C325 C327 1.419 . S
C325 H329 0.930 . S
C326 C325 1.369 . S
C326 C335 1.429 . S
C327 C325 1.419 . S
C327 C328 1.363 . S
C327 H330 0.929 . S
C328 C327 1.363 . S
C328 C334 1.428 . S
H329 C325 0.930 . S
H330 C327 0.929 . S
S331 N332 1.613 . S
S331 N333 1.610 . S
N332 S331 1.613 . S
N332 C335 1.350 . S
N333 S331 1.610 . S
N333 C334 1.351 . S
C334 C328 1.428 . S
C334 N333 1.351 . S
C334 C335 1.434 . S
C335 C326 1.429 . S
C335 N332 1.350 . S
C335 C334 1.434 . S
C336 C337 1.369 . S
C336 C338 1.419 . S
C336 H340 0.930 . S
C337 C336 1.369 . S
C337 C346 1.429 1_556 S
C338 C336 1.419 . S
C338 C339 1.363 . S
C338 H341 0.929 . S
C339 C338 1.363 . S
C339 C345 1.428 1_556 S
H340 C336 0.930 . S
H341 C338 0.929 . S
S342 N343 1.613 . S
S342 N344 1.610 . S
N343 S342 1.613 . S
N343 C346 1.350 . S
N344 S342 1.610 . S
N344 C345 1.351 . S
C345 C339 1.428 1_554 S
C345 N344 1.351 . S
C345 C346 1.434 . S
C346 C337 1.429 1_554 S
C346 N343 1.350 . S
C346 C345 1.434 . S
C347 C348 1.369 . S
C347 C349 1.419 . S
C347 H351 0.930 . S
C348 C347 1.369 . S
C348 C357 1.429 . S
C349 C347 1.419 . S
C349 C350 1.363 . S
C349 H352 0.929 . S
C350 C349 1.363 . S
C350 C356 1.428 . S
H351 C347 0.930 . S
H352 C349 0.929 . S
S353 N354 1.613 1_556 S
S353 N355 1.610 1_556 S
N354 S353 1.613 1_554 S
N354 C357 1.350 . S
N355 S353 1.610 1_554 S
N355 C356 1.351 . S
C356 C350 1.428 . S
C356 N355 1.351 . S
C356 C357 1.434 . S
C357 C348 1.429 . S
C357 N354 1.350 . S
C357 C356 1.434 . S
C358 C359 1.369 1_554 S
C358 C360 1.419 . S
C358 H362 0.930 . S
C359 C358 1.369 1_556 S
C359 C368 1.429 . S
C360 C358 1.419 . S
C360 C361 1.363 1_554 S
C360 H363 0.929 . S
C361 C360 1.363 1_556 S
C361 C367 1.428 . S
H362 C358 0.930 . S
H363 C360 0.929 . S
S364 N365 1.613 . S
S364 N366 1.610 . S
N365 S364 1.613 . S
N365 C368 1.350 . S
N366 S364 1.610 . S
N366 C367 1.351 . S
C367 C361 1.428 . S
C367 N366 1.351 . S
C367 C368 1.434 . S
C368 C359 1.429 . S
C368 N365 1.350 . S
C368 C367 1.434 . S
C369 C370 1.369 . S
C369 C371 1.419 . S
C369 H373 0.930 . S
C370 C369 1.369 . S
C370 C379 1.429 . S
C371 C369 1.419 . S
C371 C372 1.363 . S
C371 H374 0.929 . S
C372 C371 1.363 . S
C372 C378 1.428 . S
H373 C369 0.930 . S
H374 C371 0.929 . S
S375 N376 1.613 1_556 S
S375 N377 1.610 1_556 S
N376 S375 1.613 1_554 S
N376 C379 1.350 . S
N377 S375 1.610 1_554 S
N377 C378 1.351 . S
C378 C372 1.428 . S
C378 N377 1.351 . S
C378 C379 1.434 . S
C379 C370 1.429 . S
C379 N376 1.350 . S
C379 C378 1.434 . S
C380 C381 1.369 . S
C380 C382 1.419 . S
C380 H384 0.930 . S
C381 C380 1.369 . S
C381 C390 1.429 . S
C382 C380 1.419 . S
C382 C383 1.363 . S
C382 H385 0.929 . S
C383 C382 1.363 . S
C383 C389 1.428 . S
H384 C380 0.930 . S
H385 C382 0.929 . S
S386 N387 1.613 . S
S386 N388 1.610 . S
N387 S386 1.613 . S
N387 C390 1.350 1_554 S
N388 S386 1.610 . S
N388 C389 1.351 1_554 S
C389 C383 1.428 . S
C389 N388 1.351 1_556 S
C389 C390 1.434 . S
C390 C381 1.429 . S
C390 N387 1.350 1_556 S
C390 C389 1.434 . S
C391 C392 1.369 . S
C391 C393 1.419 . S
C391 H395 0.930 . S
C392 C391 1.369 . S
C392 C401 1.429 . S
C393 C391 1.419 . S
C393 C394 1.363 . S
C393 H396 0.929 . S
C394 C393 1.363 . S
C394 C400 1.428 . S
H395 C391 0.930 . S
H396 C393 0.929 . S
S397 N398 1.613 . S
S397 N399 1.610 . S
N398 S397 1.613 . S
N398 C401 1.350 . S
N399 S397 1.610 . S
N399 C400 1.351 . S
C400 C394 1.428 . S
C400 N399 1.351 . S
C400 C401 1.434 . S
C401 C392 1.429 . S
C401 N398 1.350 . S
C401 C400 1.434 . S
C402 C403 1.369 . S
C402 C404 1.419 . S
C402 H406 0.930 . S
C403 C402 1.369 . S
C403 C412 1.429 . S
C404 C402 1.419 . S
C404 C405 1.363 . S
C404 H407 0.929 . S
C405 C404 1.363 . S
C405 C411 1.428 . S
H406 C402 0.930 . S
H407 C404 0.929 . S
S408 N409 1.613 1_455 S
S408 N410 1.610 . S
N409 S408 1.613 1_655 S
N409 C412 1.350 1_655 S
N410 S408 1.610 . S
N410 C411 1.351 . S
C411 C405 1.428 . S
C411 N410 1.351 . S
C411 C412 1.434 . S
C412 C403 1.429 . S
C412 N409 1.350 1_455 S
C412 C411 1.434 . S
C413 C414 1.369 1_545 S
C413 C415 1.419 1_545 S
C413 H417 0.930 . S
C414 C413 1.369 1_565 S
C414 C423 1.429 . S
C415 C413 1.419 1_565 S
C415 C416 1.363 . S
C415 H418 0.929 . S
C416 C415 1.363 . S
C416 C422 1.428 . S
H417 C413 0.930 . S
H418 C415 0.929 . S
S419 N420 1.613 . S
S419 N421 1.610 . S
N420 S419 1.613 . S
N420 C423 1.350 . S
N421 S419 1.610 . S
N421 C422 1.351 . S
C422 C416 1.428 . S
C422 N421 1.351 . S
C422 C423 1.434 . S
C423 C414 1.429 . S
C423 N420 1.350 . S
C423 C422 1.434 . S
C424 C425 1.369 . S
C424 C426 1.419 . S
C424 H428 0.930 . S
C425 C424 1.369 . S
C425 C434 1.429 . S
C426 C424 1.419 . S
C426 C427 1.363 . S
C426 H429 0.929 . S
C427 C426 1.363 . S
C427 C433 1.428 . S
H428 C424 0.930 . S
H429 C426 0.929 . S
S430 N431 1.613 . S
S430 N432 1.610 . S
N431 S430 1.613 . S
N431 C434 1.350 . S
N432 S430 1.610 . S
N432 C433 1.351 . S
C433 C427 1.428 . S
C433 N432 1.351 . S
C433 C434 1.434 . S
C434 C425 1.429 . S
C434 N431 1.350 . S
C434 C433 1.434 . S
C205 C187 1.683 . S
C207 C17 1.624 . S
C216 C6 1.238 1_655 S
C218 C40 1.286 . S
C227 C85 1.616 . S
C229 C51 1.684 1_565 S
C238 C108 1.287 . S
C240 C96 1.241 . S
C249 C153 1.623 . S
C251 C119 1.684 1_455 S
C260 C164 1.239 1_545 S
C262 C198 1.287 . S
C271 C15 1.708 . S
C273 C22 1.712 . S
C282 C49 1.909 . S
C284 C56 1.908 . S
C293 C90 1.716 . S
C295 C83 1.707 . S
C304 C124 1.908 . S
C306 C117 1.907 . S
C315 C151 1.719 . S
C317 C158 1.704 . S
C326 C192 1.910 . S
C328 C185 1.906 . S
C337 C142 1.434 . S
C339 C3 1.264 1_556 S
C348 C173 1.917 . S
C350 C37 1.903 . S
C359 C28 1.435 . S
C361 C69 1.275 1_556 S
C370 C105 1.900 . S
C372 C35 1.912 . S
C381 C74 1.436 . S
C383 C137 1.264 1_556 S
C392 C103 1.910 . S
C394 C171 1.903 . S
C403 C130 1.492 1_455 S
C405 C1 1.409 . S
C414 C62 1.486 1_565 S
C416 C139 1.401 . S
C425 C176 1.488 . S
C427 C71 1.401 . S
