# Generated by pormake.
# Topology can, (4)-cn, num edge types: 1
# Building blocks:
#     Node 0, Type 0, BuildingBlock: QUQFOY_clean_sbu_3, # of connection points: 4
#     Node 1, Type 0, BuildingBlock: QUQFOY_clean_sbu_3, # of connection points: 4
#     Node 2, Type 0, BuildingBlock: QUQFOY_clean_sbu_3, # of connection points: 4
#     Node 3, Type 0, BuildingBlock: QUQFOY_clean_sbu_3, # of connection points: 4
#     Node 4, Type 0, BuildingBlock: QUQFOY_clean_sbu_3, # of connection points: 4
#     Node 5, Type 0, BuildingBlock: QUQFOY_clean_sbu_3, # of connection points: 4
#     Node 6, Type 0, BuildingBlock: QUQFOY_clean_sbu_3, # of connection points: 4
#     Node 7, Type 0, BuildingBlock: QUQFOY_clean_sbu_3, # of connection points: 4
#     Node 8, Type 0, BuildingBlock: QUQFOY_clean_sbu_3, # of connection points: 4
#     Node 9, Type 0, BuildingBlock: QUQFOY_clean_sbu_3, # of connection points: 4
#     Node 10, Type 0, BuildingBlock: QUQFOY_clean_sbu_3, # of connection points: 4
#     Node 11, Type 0, BuildingBlock: QUQFOY_clean_sbu_3, # of connection points: 4
#     Edge 12, Type (0, 0), BuildingBlock: MIFKUJ_clean_linker_0, # of connection points: 2
#     Edge 13, Type (0, 0), BuildingBlock: MIFKUJ_clean_linker_0, # of connection points: 2
#     Edge 14, Type (0, 0), BuildingBlock: MIFKUJ_clean_linker_0, # of connection points: 2
#     Edge 15, Type (0, 0), BuildingBlock: MIFKUJ_clean_linker_0, # of connection points: 2
#     Edge 16, Type (0, 0), BuildingBlock: MIFKUJ_clean_linker_0, # of connection points: 2
#     Edge 17, Type (0, 0), BuildingBlock: MIFKUJ_clean_linker_0, # of connection points: 2
#     Edge 18, Type (0, 0), BuildingBlock: MIFKUJ_clean_linker_0, # of connection points: 2
#     Edge 19, Type (0, 0), BuildingBlock: MIFKUJ_clean_linker_0, # of connection points: 2
#     Edge 20, Type (0, 0), BuildingBlock: MIFKUJ_clean_linker_0, # of connection points: 2
#     Edge 21, Type (0, 0), BuildingBlock: MIFKUJ_clean_linker_0, # of connection points: 2
#     Edge 22, Type (0, 0), BuildingBlock: MIFKUJ_clean_linker_0, # of connection points: 2
#     Edge 23, Type (0, 0), BuildingBlock: MIFKUJ_clean_linker_0, # of connection points: 2
#     Edge 24, Type (0, 0), BuildingBlock: MIFKUJ_clean_linker_0, # of connection points: 2
#     Edge 25, Type (0, 0), BuildingBlock: MIFKUJ_clean_linker_0, # of connection points: 2
#     Edge 26, Type (0, 0), BuildingBlock: MIFKUJ_clean_linker_0, # of connection points: 2
#     Edge 27, Type (0, 0), BuildingBlock: MIFKUJ_clean_linker_0, # of connection points: 2
#     Edge 28, Type (0, 0), BuildingBlock: MIFKUJ_clean_linker_0, # of connection points: 2
#     Edge 29, Type (0, 0), BuildingBlock: MIFKUJ_clean_linker_0, # of connection points: 2
#     Edge 30, Type (0, 0), BuildingBlock: MIFKUJ_clean_linker_0, # of connection points: 2
#     Edge 31, Type (0, 0), BuildingBlock: MIFKUJ_clean_linker_0, # of connection points: 2
#     Edge 32, Type (0, 0), BuildingBlock: MIFKUJ_clean_linker_0, # of connection points: 2
#     Edge 33, Type (0, 0), BuildingBlock: MIFKUJ_clean_linker_0, # of connection points: 2
#     Edge 34, Type (0, 0), BuildingBlock: MIFKUJ_clean_linker_0, # of connection points: 2
#     Edge 35, Type (0, 0), BuildingBlock: MIFKUJ_clean_linker_0, # of connection points: 2
# Relax obj value: 0.050
# Max RMSD: 0.036
# Mean RMSD: 0.036
data_MOF--net-can--node1-QUQFOY_clean_sbu_3--edge1-MIFKUJ_clean_linker_0
_symmetry_space_group_name_H-M    P1
_symmetry_Int_Tables_number       1
_symmetry_cell_setting            triclinic
loop_
_symmetry_equiv_pos_as_xyz
'x, y, z'
_cell_length_a     72.676296
_cell_length_b     72.642125
_cell_length_c     36.532491
_cell_angle_alpha  90.056011
_cell_angle_beta   90.022682
_cell_angle_gamma 119.96566
loop_
_atom_site_label
_atom_site_type_symbol
_atom_site_fract_x
_atom_site_fract_y
_atom_site_fract_z
_atom_type_partial_charge
C0 C 0.01799 0.35922 0.30162 0.0
O1 O 0.00308 0.35345 0.27841 0.0
Cd2 Cd 0.00911 0.36481 0.21568 0.0
O3 O 0.03725 0.37135 0.29223 0.0
Cd4 Cd 0.05833 0.38959 0.2377 0.0
C5 C 0.03383 0.41857 0.23053 0.0
O6 O 0.03802 0.36021 0.19611 0.0
O7 O 0.06063 0.3898 0.17103 0.0
O8 O 0.08503 0.38275 0.26415 0.0
C9 C 0.04721 0.37023 0.16728 0.0
O10 O 0.01799 0.40218 0.21681 0.0
C11 C 0.10068 0.40074 0.25574 0.0
O12 O 0.04985 0.41781 0.24267 0.0
O13 O 0.09659 0.41374 0.2396 0.0
C14 C 0.65119 0.01368 0.79556 0.0
O15 O 0.64157 -0.00058 0.77144 0.0
Cd16 Cd 0.63647 0.00751 0.70997 0.0
O17 O 0.65873 0.03324 0.78774 0.0
Cd18 Cd 0.66152 0.05508 0.73424 0.0
C19 C 0.60846 0.03295 0.72634 0.0
O20 O 0.67058 0.0356 0.69096 0.0
O21 O 0.66245 0.05779 0.66732 0.0
O22 O 0.69697 0.08074 0.75444 0.0
C23 C 0.66989 0.04545 0.66293 0.0
O24 O 0.60862 0.01721 0.71129 0.0
C25 C 0.69467 0.09686 0.75117 0.0
O26 O 0.62533 0.04823 0.73985 0.0
O27 O 0.67644 0.09347 0.74153 0.0
C28 C 0.64281 0.65693 0.28879 0.0
O29 O 0.6469 0.64758 0.26333 0.0
Cd30 Cd 0.6339 0.64415 0.2019 0.0
O31 O 0.63137 0.66536 0.28267 0.0
Cd32 Cd 0.61216 0.67088 0.23206 0.0
C33 C 0.58032 0.61754 0.21923 0.0
O34 O 0.63952 0.67869 0.18729 0.0
O35 O 0.61113 0.67734 0.16644 0.0
O36 O 0.62272 0.70567 0.25739 0.0
C37 C 0.62972 0.68071 0.16036 0.0
O38 O 0.59632 0.61722 0.20576 0.0
C39 C 0.60417 0.70326 0.25741 0.0
O40 O 0.58205 0.63468 0.23188 0.0
O41 O 0.58912 0.68539 0.24676 0.0
C42 C 0.97385 0.62993 0.7936 0.0
O43 O 0.98959 0.63661 0.77196 0.0
Cd44 Cd 0.98666 0.62955 0.7075 0.0
O45 O 0.95488 0.61903 0.78168 0.0
Cd46 Cd 0.93528 0.60507 0.72375 0.0
C47 C 0.9586 0.57485 0.70983 0.0
O48 O 0.95902 0.63646 0.69019 0.0
O49 O 0.93432 0.61166 0.65784 0.0
O50 O 0.90939 0.61336 0.74849 0.0
C51 C 0.95027 0.63026 0.65926 0.0
O52 O 0.97596 0.59187 0.70311 0.0
C53 C 0.89332 0.59533 0.74169 0.0
O54 O 0.94199 0.57546 0.71893 0.0
O55 O 0.8968 0.5815 0.72701 0.0
C56 C 0.33452 0.97283 0.30739 0.0
O57 O 0.34489 0.98866 0.28639 0.0
Cd58 Cd 0.35402 0.98668 0.22438 0.0
O59 O 0.32755 0.95389 0.29596 0.0
Cd60 Cd 0.32606 0.93494 0.2387 0.0
C61 C 0.37991 0.95801 0.23554 0.0
O62 O 0.32128 0.95917 0.20102 0.0
O63 O 0.32412 0.9351 0.17135 0.0
O64 O 0.28969 0.90931 0.25324 0.0
C65 C 0.3213 0.95096 0.17055 0.0
O66 O 0.38056 0.97544 0.22798 0.0
C67 C 0.29171 0.89303 0.24959 0.0
O68 O 0.36231 0.94115 0.24172 0.0
O69 O 0.31015 0.89623 0.24208 0.0
C70 C 0.35509 0.34177 0.79567 0.0
O71 O 0.35089 0.3513 0.77073 0.0
Cd72 Cd 0.36409 0.35557 0.70938 0.0
O73 O 0.36651 0.3334 0.78884 0.0
Cd74 Cd 0.38536 0.32857 0.7368 0.0
C75 C 0.41754 0.38187 0.72805 0.0
O76 O 0.35823 0.32133 0.69113 0.0
O77 O 0.38781 0.32506 0.67101 0.0
O78 O 0.37438 0.29303 0.75865 0.0
C79 C 0.3689 0.32052 0.66438 0.0
O80 O 0.40166 0.38243 0.71463 0.0
C81 C 0.39281 0.29516 0.75755 0.0
O82 O 0.41571 0.3645 0.73958 0.0
O83 O 0.408 0.31326 0.74831 0.0
C84 C 0.6384 0.97414 0.17506 0.0
O85 O 0.64368 0.99072 0.19399 0.0
Cd86 Cd 0.63371 0.99022 0.25644 0.0
O87 O 0.62737 0.95574 0.18911 0.0
Cd88 Cd 0.6115 0.94026 0.24907 0.0
C89 C 0.57947 0.96167 0.24782 0.0
O90 O 0.64112 0.9654 0.28663 0.0
O91 O 0.61208 0.94452 0.31524 0.0
O92 O 0.62205 0.91368 0.24136 0.0
C93 C 0.63162 0.95839 0.31682 0.0
O94 O 0.59598 0.97933 0.25531 0.0
C95 C 0.60374 0.89779 0.24688 0.0
O96 O 0.5808 0.94508 0.24214 0.0
O97 O 0.58868 0.90159 0.25215 0.0
C98 C 0.66036 0.63486 0.66926 0.0
O99 O 0.64947 0.64111 0.68704 0.0
Cd100 Cd 0.64032 0.63401 0.7504 0.0
O101 O 0.66773 0.62423 0.68494 0.0
Cd102 Cd 0.66836 0.61063 0.74662 0.0
C103 C 0.61446 0.57949 0.74956 0.0
O104 O 0.67292 0.64175 0.779 0.0
O105 O 0.66912 0.61582 0.81296 0.0
O106 O 0.70495 0.61953 0.73784 0.0
C107 C 0.67238 0.63463 0.8108 0.0
O108 O 0.61346 0.5964 0.75332 0.0
C109 C 0.70166 0.60088 0.74349 0.0
O110 O 0.63226 0.58035 0.74533 0.0
O111 O 0.68263 0.58649 0.74965 0.0
C112 C 0.01236 0.65583 0.17851 0.0
O113 O -0.00257 0.64579 0.20134 0.0
Cd114 Cd 0.00298 0.64133 0.26495 0.0
O115 O 0.03171 0.66417 0.18835 0.0
Cd116 Cd 0.05264 0.66772 0.2433 0.0
C117 C 0.02969 0.61415 0.25353 0.0
O118 O 0.031 0.67535 0.28427 0.0
O119 O 0.0562 0.67227 0.30949 0.0
O120 O 0.07908 0.70264 0.22185 0.0
C121 C 0.04133 0.67646 0.31291 0.0
O122 O 0.01331 0.61406 0.26612 0.0
C123 C 0.09478 0.69971 0.22623 0.0
O124 O 0.0454 0.63115 0.24132 0.0
O125 O 0.09071 0.68147 0.23716 0.0
C126 C 0.3487 0.01585 0.68678 0.0
O127 O 0.34465 0.00097 0.70929 0.0
Cd128 Cd 0.35753 0.00665 0.77114 0.0
O129 O 0.36042 0.03523 0.69604 0.0
Cd130 Cd 0.38034 0.05635 0.7495 0.0
C131 C 0.41105 0.03324 0.75418 0.0
O132 O 0.3529 0.03499 0.79312 0.0
O133 O 0.38218 0.05976 0.81623 0.0
O134 O 0.37038 0.08246 0.73297 0.0
C135 C 0.36325 0.04497 0.82124 0.0
O136 O 0.39497 0.01689 0.76732 0.0
C137 C 0.38904 0.09835 0.73479 0.0
O138 O 0.40968 0.04917 0.74329 0.0
O139 O 0.40396 0.09456 0.74178 0.0
C140 C 0.33697 0.36516 0.17732 0.0
O141 O 0.3467 0.35812 0.19651 0.0
Cd142 Cd 0.3554 0.36661 0.25964 0.0
O143 O 0.33041 0.37685 0.19159 0.0
Cd144 Cd 0.32926 0.39157 0.25208 0.0
C145 C 0.38292 0.42122 0.25302 0.0
O146 O 0.32277 0.36032 0.28668 0.0
O147 O 0.32905 0.38789 0.3183 0.0
O148 O 0.29445 0.38508 0.23317 0.0
C149 C 0.32415 0.36854 0.31785 0.0
O150 O 0.38327 0.40412 0.25908 0.0
C151 C 0.29685 0.4024 0.246 0.0
O152 O 0.36544 0.42091 0.24809 0.0
O153 O 0.31457 0.41495 0.26087 0.0
C154 C 0.97202 0.33184 0.6832 0.0
O155 O 0.98748 0.34157 0.7052 0.0
Cd156 Cd 0.98349 0.3502 0.76665 0.0
O157 O 0.95302 0.32514 0.69378 0.0
Cd158 Cd 0.93381 0.32395 0.75038 0.0
C159 C 0.95708 0.37748 0.74879 0.0
O160 O 0.95586 0.31798 0.79293 0.0
O161 O 0.93431 0.32688 0.81697 0.0
O162 O 0.90737 0.28749 0.73705 0.0
C163 C 0.94764 0.32068 0.82153 0.0
O164 O 0.97403 0.37802 0.75944 0.0
C165 C 0.89151 0.29028 0.73934 0.0
O166 O 0.94035 0.35987 0.74214 0.0
O167 O 0.89535 0.30905 0.74599 0.0
H168 H 0.05711 0.39055 0.1015 0.0
H169 H 0.04046 0.37589 0.04256 0.0
H170 H 0.00402 0.31376 0.09132 0.0
H171 H 0.02014 0.32853 0.15083 0.0
H172 H 0.03676 0.34693 -0.00427 0.0
H173 H 0.95418 0.28974 0.05523 0.0
H174 H 0.93347 0.28497 0.11153 0.0
H175 H 0.96889 0.35218 0.13168 0.0
H176 H 0.98957 0.35736 0.07527 0.0
H177 H 0.97065 0.30191 0.8408 0.0
H178 H 0.98671 0.30343 0.90044 0.0
H179 H 0.9597 0.3401 0.94357 0.0
H180 H 0.9429 0.3378 0.88465 0.0
H181 H 0.95833 0.31446 -0.00641 0.0
H182 H 0.01197 0.36335 0.90954 0.0
H183 H 0.03325 0.37324 0.8529 0.0
H184 H 0.05682 0.3314 0.88122 0.0
H185 H 0.03544 0.32107 0.93784 0.0
C186 C 0.04577 0.37371 0.0996 0.0
C187 C 0.03963 0.36074 0.13084 0.0
C188 C 0.03634 0.36532 0.06585 0.0
C189 C 0.02074 0.34381 0.06272 0.0
C190 C 0.01573 0.33049 0.09333 0.0
C191 C 0.02497 0.33894 0.12725 0.0
C192 C 0.0085 0.33603 0.02829 0.0
C193 C 0.01959 0.33959 -0.00475 0.0
C194 C 0.98612 0.32675 0.02767 0.0
C195 C 0.97358 0.32387 0.06134 0.0
C196 C 0.95749 0.30349 0.07166 0.0
C197 C 0.94576 0.30072 0.10357 0.0
C198 C 0.94992 0.31825 0.12524 0.0
C199 C 0.96573 0.33861 0.11495 0.0
C200 C 0.97747 0.34146 0.08303 0.0
C201 C 0.96795 0.31005 0.8632 0.0
C202 C 0.95574 0.31994 0.85809 0.0
C203 C 0.97717 0.31096 0.89718 0.0
C204 C 0.97474 0.32222 0.92625 0.0
C205 C 0.9618 0.33132 0.92154 0.0
C206 C 0.95227 0.33008 0.88781 0.0
C207 C 0.98662 0.32579 0.96091 0.0
C208 C 0.97545 0.32134 -0.00596 0.0
C209 C 0.009 0.33497 0.96154 0.0
C210 C 0.02194 0.34126 0.92766 0.0
C211 C 0.02159 0.35616 0.90355 0.0
C212 C 0.03367 0.36186 0.87148 0.0
C213 C 0.04633 0.3529 0.86341 0.0
C214 C 0.04697 0.33829 0.88747 0.0
C215 C 0.03488 0.33251 0.91955 0.0
H216 H 0.05568 0.35733 0.83857 0.0
H217 H 0.94085 0.31607 0.14996 0.0
H218 H 0.67358 0.98699 0.32851 0.0
H219 H 0.6907 0.00309 0.38686 0.0
H220 H 0.63057 0.96678 0.44214 0.0
H221 H 0.61359 0.95029 0.38441 0.0
H222 H 0.68465 0.02791 0.42976 0.0
H223 H 0.63541 0.95483 0.52625 0.0
H224 H 0.62165 0.91619 0.52551 0.0
H225 H 0.66866 0.92443 0.44602 0.0
H226 H 0.68293 0.96316 0.44665 0.0
H227 H 0.65881 0.05427 0.59674 0.0
H228 H 0.66352 0.04242 0.53685 0.0
H229 H 0.69763 0.01439 0.58668 0.0
H230 H 0.69215 0.02547 0.64696 0.0
H231 H 0.66968 0.98708 0.54529 0.0
H232 H 0.72261 0.05768 0.52614 0.0
H233 H 0.74027 0.09679 0.52655 0.0
H234 H 0.69374 0.0945 0.45139 0.0
H235 H 0.67558 0.05537 0.45093 0.0
C236 C 0.6641 0.98229 0.35323 0.0
C237 C 0.64225 0.96741 0.35198 0.0
C238 C 0.6739 0.99149 0.38648 0.0
C239 C 0.66199 0.98592 0.4189 0.0
C240 C 0.6402 0.97093 0.41763 0.0
C241 C 0.63046 0.96163 0.38454 0.0
C242 C 0.67166 0.9968 0.45381 0.0
C243 C 0.68166 0.01905 0.45505 0.0
C244 C 0.66859 0.98527 0.48656 0.0
C245 C 0.66021 0.96195 0.48642 0.0
C246 C 0.64293 0.94844 0.5088 0.0
C247 C 0.63501 0.9265 0.50835 0.0
C248 C 0.64426 0.91786 0.4857 0.0
C249 C 0.66148 0.93114 0.46349 0.0
C250 C 0.66947 0.95309 0.46385 0.0
C251 C 0.66759 0.04587 0.59485 0.0
C252 C 0.67492 0.04058 0.62644 0.0
C253 C 0.67047 0.03926 0.56055 0.0
C254 C 0.68116 0.0277 0.55716 0.0
C255 C 0.68934 0.02328 0.58862 0.0
C256 C 0.68617 0.02958 0.62301 0.0
C257 C 0.68138 0.01812 0.52148 0.0
C258 C 0.67326 0.99607 0.52006 0.0
C259 C 0.68685 0.02994 0.48857 0.0
C260 C 0.69769 0.05353 0.48859 0.0
C261 C 0.71605 0.0655 0.50986 0.0
C262 C 0.72617 0.08768 0.51008 0.0
C263 C 0.71813 0.09812 0.48903 0.0
C264 C 0.69996 0.08639 0.46766 0.0
C265 C 0.68978 0.0642 0.46735 0.0
H266 H 0.72598 0.1153 0.48924 0.0
H267 H 0.63809 0.90087 0.48538 0.0
H268 H 0.61754 0.69451 0.10068 0.0
H269 H 0.62953 0.69638 0.03748 0.0
H270 H 0.67243 0.67496 0.07279 0.0
H271 H 0.66129 0.67412 0.13601 0.0
H272 H 0.69006 0.70169 0.01981 0.0
H273 H 0.62083 0.6402 0.04015 0.0
H274 H 0.583 0.62141 0.05766 0.0
H275 H 0.56975 0.65474 0.97414 0.0
H276 H 0.60759 0.67392 0.95645 0.0
H277 H 0.68275 0.62954 0.88006 0.0
H278 H 0.68066 0.64733 0.93558 0.0
H279 H 0.66039 0.68378 0.8713 0.0
H280 H 0.66304 0.66649 0.81542 0.0
H281 H 0.63254 0.65655 0.93274 0.0
H282 H 0.70312 0.7119 0.9057 0.0
H283 H 0.74077 0.72673 0.88903 0.0
H284 H 0.75127 0.70026 0.9865 0.0
H285 H 0.71359 0.68497 0.00349 0.0
C286 C 0.62976 0.69052 0.09491 0.0
C287 C 0.63831 0.6839 0.12302 0.0
C288 C 0.63657 0.69156 0.05886 0.0
C289 C 0.65154 0.68536 0.05032 0.0
C290 C 0.66085 0.67981 0.0787 0.0
C291 C 0.6544 0.67921 0.1148 0.0
C292 C 0.6562 0.68278 0.01182 0.0
C293 C 0.67749 0.69183 0.00077 0.0
C294 C 0.63978 0.67019 0.98673 0.0
C295 C 0.61705 0.65869 -0.00268 0.0
C296 C 0.60987 0.64363 0.02572 0.0
C297 C 0.58843 0.6329 0.03565 0.0
C298 C 0.57399 0.63694 0.01711 0.0
C299 C 0.58096 0.65167 0.98854 0.0
C300 C 0.60239 0.66248 0.97854 0.0
C301 C 0.67819 0.64159 0.87774 0.0
C302 C 0.67296 0.64661 0.84363 0.0
C303 C 0.67713 0.6518 0.90933 0.0
C304 C 0.6705 0.66688 0.90726 0.0
C305 C 0.66571 0.67228 0.87318 0.0
C306 C 0.66722 0.66241 0.84144 0.0
C307 C 0.66631 0.67503 0.94125 0.0
C308 C 0.64508 0.6669 0.95148 0.0
C309 C 0.68277 0.68796 0.96579 0.0
C310 C 0.70547 0.69715 0.95573 0.0
C311 C 0.7134 0.70907 0.92342 0.0
C312 C 0.73477 0.7176 0.91395 0.0
C313 C 0.7484 0.71441 0.93666 0.0
C314 C 0.7407 0.70271 0.96893 0.0
C315 C 0.71934 0.69414 0.97852 0.0
H316 H 0.76494 0.72103 0.92928 0.0
H317 H 0.5574 0.62861 0.02483 0.0
H318 H 0.00249 0.66997 0.33269 0.0
H319 H 0.9904 0.67143 0.39426 0.0
H320 H 0.05358 0.69318 0.43612 0.0
H321 H 0.06542 0.69057 0.37464 0.0
H322 H 0.02796 0.66283 0.47505 0.0
H323 H 0.02896 0.72522 0.43578 0.0
H324 H 0.0226 0.74876 0.3957 0.0
H325 H 0.95526 0.70791 0.40722 0.0
H326 H 0.96118 0.68394 0.44695 0.0
H327 H 0.99005 0.66437 0.65225 0.0
H328 H 0.0082 0.68154 0.59535 0.0
H329 H 0.95104 0.64151 0.53433 0.0
H330 H 0.93281 0.62394 0.59109 0.0
H331 H 0.9781 0.68779 0.51022 0.0
H332 H 0.98025 0.62275 0.53993 0.0
H333 H 0.98801 0.60112 0.58242 0.0
H334 H 0.05284 0.65144 0.59076 0.0
H335 H 0.04532 0.67349 0.54874 0.0
C336 C 0.01386 0.67538 0.35496 0.0
C337 C 0.03481 0.67997 0.34911 0.0
C338 C 0.007 0.67643 0.39014 0.0
C339 C 0.02113 0.68267 0.41988 0.0
C340 C 0.04238 0.68828 0.41364 0.0
C341 C 0.04912 0.68678 0.37858 0.0
C342 C 0.01308 0.68075 0.45778 0.0
C343 C 0.01754 0.66885 0.48285 0.0
C344 C -0.00076 0.68833 0.46812 0.0
C345 C 0.99554 0.7027 0.44421 0.0
C346 C 0.01279 0.72116 0.42957 0.0
C347 C 0.00926 0.7346 0.40693 0.0
C348 C 0.98854 0.72982 0.39887 0.0
C349 C 0.9713 0.7116 0.41349 0.0
C350 C 0.97474 0.69809 0.43612 0.0
C351 C 0.98121 0.65951 0.62682 0.0
C352 C 0.96012 0.64262 0.62591 0.0
C353 C 0.99157 0.66941 0.59445 0.0
C354 C 0.98089 0.66271 0.5609 0.0
C355 C 0.95942 0.64691 0.56015 0.0
C356 C 0.94912 0.63679 0.59246 0.0
C357 C 0.99285 0.66974 0.52638 0.0
C358 C 0.98901 0.68241 0.50222 0.0
C359 C 0.00758 0.66325 0.51696 0.0
C360 C 0.01217 0.64983 0.54159 0.0
C361 C 0.99611 0.62925 0.55107 0.0
C362 C 0.00047 0.61691 0.57502 0.0
C363 C 0.02089 0.62492 0.58937 0.0
C364 C 0.03702 0.64527 0.57968 0.0
C365 C 0.03272 0.65769 0.5558 0.0
H366 H 0.02424 0.61535 0.60793 0.0
H367 H 0.98584 0.74025 0.38134 0.0
H368 H 0.33203 0.00568 0.84122 0.0
H369 H 0.32081 0.99247 0.90315 0.0
H370 H 0.36353 0.05499 0.94646 0.0
H371 H 0.37569 0.06796 0.88436 0.0
H372 H 0.36911 0.02858 0.98181 0.0
H373 H 0.30695 0.03059 0.95029 0.0
H374 H 0.27617 0.0248 0.91316 0.0
H375 H 0.24982 0.95727 0.92119 0.0
H376 H 0.28059 0.96264 0.95794 0.0
H377 H 0.32916 0.99137 0.16125 0.0
H378 H 0.332 0.00946 0.10332 0.0
H379 H 0.31546 0.95181 0.04425 0.0
H380 H 0.31306 0.93364 0.10213 0.0
H381 H 0.29513 0.97916 0.02151 0.0
H382 H 0.36217 0.98014 0.0457 0.0
H383 H 0.39266 0.98764 0.08526 0.0
H384 H 0.40882 0.053 0.09364 0.0
H385 H 0.37819 0.04577 0.05455 0.0
C386 C 0.33879 0.01666 0.86394 0.0
C387 C 0.35479 0.03778 0.85819 0.0
C388 C 0.33222 0.00915 0.89935 0.0
C389 C 0.34109 0.0228 0.92953 0.0
C390 C 0.35647 0.04417 0.92361 0.0
C391 C 0.3634 0.05156 0.88821 0.0
C392 C 0.33594 0.01417 0.96718 0.0
C393 C 0.35287 0.01819 0.99063 0.0
C394 C 0.31478 0.00038 0.97877 0.0
C395 C 0.29617 0.99704 0.95671 0.0
C396 C 0.29467 0.0145 0.94393 0.0
C397 C 0.27721 0.01129 0.92298 0.0
C398 C 0.26107 0.99068 0.91477 0.0
C399 C 0.26234 0.97323 0.92757 0.0
C400 C 0.27977 0.97635 0.94852 0.0
C401 C 0.32585 0.98246 0.13596 0.0
C402 C 0.32105 0.96116 0.136 0.0
C403 C 0.32744 0.9928 0.10303 0.0
C404 C 0.32389 0.98187 0.06985 0.0
C405 C 0.31811 0.96035 0.06982 0.0
C406 C 0.3169 0.95009 0.10274 0.0
C407 C 0.32826 0.99343 0.03507 0.0
C408 C 0.31124 0.9899 0.01247 0.0
C409 C 0.34927 0.008 0.02444 0.0
C410 C 0.36776 0.01236 0.04762 0.0
C411 C 0.3721 0.99605 0.05628 0.0
C412 C 0.38943 0.00026 0.07855 0.0
C413 C 0.40263 0.02076 0.09206 0.0
C414 C 0.39856 0.03711 0.08323 0.0
C415 C 0.38123 0.03297 0.06101 0.0
H416 H 0.41604 0.02399 0.10928 0.0
H417 H 0.24756 0.98823 0.89854 0.0
H418 H 0.33069 0.38408 0.3873 0.0
H419 H 0.33459 0.36749 0.44251 0.0
H420 H 0.32068 0.31135 0.3808 0.0
H421 H 0.31677 0.3279 0.32504 0.0
H422 H 0.30203 0.30389 0.4547 0.0
H423 H 0.36852 0.34127 0.39217 0.0
H424 H 0.39718 0.37167 0.35919 0.0
H425 H 0.40941 0.41123 0.45387 0.0
H426 H 0.38056 0.38115 0.48721 0.0
H427 H 0.38664 0.3143 0.60333 0.0
H428 H 0.3751 0.31257 0.53996 0.0
H429 H 0.32145 0.31773 0.57696 0.0
H430 H 0.33257 0.31888 0.64033 0.0
H431 H 0.37464 0.34375 0.50728 0.0
H432 H 0.2819 0.29788 0.51519 0.0
H433 H 0.2534 0.26648 0.54637 0.0
H434 H 0.29471 0.24048 0.55833 0.0
H435 H 0.32336 0.27157 0.52675 0.0
C436 C 0.32815 0.36809 0.38549 0.0
C437 C 0.32373 0.35739 0.35179 0.0
C438 C 0.33035 0.35864 0.41704 0.0
C439 C 0.32813 0.33835 0.41544 0.0
C440 C 0.32244 0.32705 0.38238 0.0
C441 C 0.32033 0.33656 0.35063 0.0
C442 C 0.33379 0.33007 0.44771 0.0
C443 C 0.31789 0.3124 0.46625 0.0
C444 C 0.35468 0.3409 0.46183 0.0
C445 C 0.37228 0.35898 0.4421 0.0
C446 C 0.37722 0.35649 0.40587 0.0
C447 C 0.39351 0.37366 0.38712 0.0
C448 C 0.40509 0.39338 0.4044 0.0
C449 C 0.40043 0.39595 0.44051 0.0
C450 C 0.38412 0.37884 0.45937 0.0
C451 C 0.37217 0.31467 0.59796 0.0
C452 C 0.36063 0.31699 0.62667 0.0
C453 C 0.36557 0.31362 0.56178 0.0
C454 C 0.34738 0.31493 0.55373 0.0
C455 C 0.33531 0.31627 0.58252 0.0
C456 C 0.34179 0.31713 0.61873 0.0
C457 C 0.34267 0.31791 0.51549 0.0
C458 C 0.35882 0.33477 0.49568 0.0
C459 C 0.3221 0.30605 0.50007 0.0
C460 C 0.30484 0.28716 0.51876 0.0
C461 C 0.28488 0.28542 0.52427 0.0
C462 C 0.2687 0.26767 0.54207 0.0
C463 C 0.27226 0.25151 0.55439 0.0
C464 C 0.29199 0.25304 0.54887 0.0
C465 C 0.30822 0.27074 0.53107 0.0
H466 H 0.25972 0.2378 0.56818 0.0
H467 H 0.41769 0.40666 0.38984 0.0
H468 H 0.9445 0.61469 0.84865 0.0
H469 H 0.95075 0.62213 0.91402 0.0
H470 H 0.0175 0.66394 0.89326 0.0
H471 H 0.01149 0.65624 0.82787 0.0
H472 H 0.01183 0.63767 0.9476 0.0
H473 H 0.98424 0.68337 0.91606 0.0
H474 H 0.95851 0.69232 0.88943 0.0
H475 H 0.91017 0.64832 0.96222 0.0
H476 H 0.93555 0.6389 0.98898 0.0
H477 H 0.03996 0.67942 0.12446 0.0
H478 H 0.03266 0.67809 0.05908 0.0
H479 H 0.96655 0.63306 0.07877 0.0
H480 H 0.97362 0.63452 0.14451 0.0
H481 H 0.97202 0.66205 0.0251 0.0
H482 H -0.00106 0.61524 0.05435 0.0
H483 H 0.02444 0.60599 0.08107 0.0
H484 H 0.0738 0.6519 0.01195 0.0
H485 H 0.04865 0.66164 0.98518 0.0
C486 C 0.9605 0.62556 0.85794 0.0
C487 C 0.97752 0.63485 0.83306 0.0
C488 C 0.96402 0.62989 0.8953 0.0
C489 C 0.98454 0.6438 0.90841 0.0
C490 C 0.00153 0.65319 0.88365 0.0
C491 C -0.00194 0.64877 0.84631 0.0
C492 C 0.98849 0.64771 0.94814 0.0
C493 C 0.00338 0.64336 0.96441 0.0
C494 C 0.97702 0.65456 0.97019 0.0
C495 C 0.96176 0.6603 0.9543 0.0
C496 C 0.96809 0.67549 0.92621 0.0
C497 C 0.95357 0.68067 0.91113 0.0
C498 C 0.9327 0.67086 0.92406 0.0
C499 C 0.92633 0.65589 0.9522 0.0
C500 C 0.94078 0.65065 0.96737 0.0
C501 C 0.0238 0.66941 0.11501 0.0
C502 C 0.00741 0.65683 0.13961 0.0
C503 C 0.01968 0.66867 0.07763 0.0
C504 C -0.00084 0.65519 0.06415 0.0
C505 C 0.98251 0.6435 0.08873 0.0
C506 C 0.9866 0.64431 0.12623 0.0
C507 C 0.99544 0.65216 0.02429 0.0
C508 C 0.98054 0.65654 0.00812 0.0
C509 C 0.00687 0.6453 0.00222 0.0
C510 C 0.02196 0.63931 0.01802 0.0
C511 C 0.01527 0.62347 0.04504 0.0
C512 C 0.02965 0.61812 0.06016 0.0
C513 C 0.05074 0.62839 0.04828 0.0
C514 C 0.05747 0.64398 0.02116 0.0
C515 C 0.04315 0.64941 0.00598 0.0
H516 H 0.06185 0.62424 0.06003 0.0
H517 H 0.92149 0.67488 0.91234 0.0
H518 H 0.34007 0.00965 0.33746 0.0
H519 H 0.33638 0.01649 0.40165 0.0
H520 H 0.31724 0.95151 0.42828 0.0
H521 H 0.32037 0.94433 0.36385 0.0
H522 H 0.29492 0.96559 0.46764 0.0
H523 H 0.36834 0.99005 0.43878 0.0
H524 H 0.40161 0.01037 0.40396 0.0
H525 H 0.40337 0.06865 0.43201 0.0
H526 H 0.36994 0.04863 0.46661 0.0
H527 H 0.32931 0.9769 0.65336 0.0
H528 H 0.32065 0.96946 0.58848 0.0
H529 H 0.34132 0.03561 0.56958 0.0
H530 H 0.35039 0.04328 0.6342 0.0
H531 H 0.3609 0.02205 0.52556 0.0
H532 H 0.28891 0.99716 0.56067 0.0
H533 H 0.25604 0.97627 0.59618 0.0
H534 H 0.25181 0.91836 0.55799 0.0
H535 H 0.28483 0.9389 0.52263 0.0
C536 C 0.33491 0.99675 0.3569 0.0
C537 C 0.33083 0.97653 0.34571 0.0
C538 C 0.33278 0.00069 0.39353 0.0
C539 C 0.32689 0.98459 0.41971 0.0
C540 C 0.32184 0.96413 0.40844 0.0
C541 C 0.32376 0.96011 0.37168 0.0
C542 C 0.32761 0.98953 0.45909 0.0
C543 C 0.30935 0.97783 0.48048 0.0
C544 C 0.34636 0.00576 0.47552 0.0
C545 C 0.36653 0.01783 0.45494 0.0
C546 C 0.37575 0.00718 0.4373 0.0
C547 C 0.39464 0.01865 0.41764 0.0
C548 C 0.40456 0.04079 0.41569 0.0
C549 C 0.39564 0.05151 0.43349 0.0
C550 C 0.37673 0.04011 0.45314 0.0
C551 C 0.33167 0.98981 0.63552 0.0
C552 C 0.3408 0.01073 0.6488 0.0
C553 C 0.32658 0.9855 0.59849 0.0
C554 C 0.33029 0.00199 0.57429 0.0
C555 C 0.33837 0.02268 0.58785 0.0
C556 C 0.34359 0.02703 0.62476 0.0
C557 C 0.32818 -0.00183 0.53437 0.0
C558 C 0.34631 0.01001 0.51281 0.0
C559 C 0.30935 0.98201 0.51801 0.0
C560 C 0.28946 0.96959 0.53922 0.0
C561 C 0.28108 0.97997 0.56007 0.0
C562 C 0.26239 0.96819 0.58013 0.0
C563 C 0.25187 0.946 0.5794 0.0
C564 C 0.25999 0.93555 0.55855 0.0
C565 C 0.27867 0.94725 0.53845 0.0
H566 H 0.2374 0.93691 0.59495 0.0
H567 H 0.41919 0.04964 0.40045 0.0
H568 H 0.3578 0.3198 0.85404 0.0
H569 H 0.34841 0.32156 0.91752 0.0
H570 H 0.32625 0.36447 0.88662 0.0
H571 H 0.33569 0.36291 0.82289 0.0
H572 H 0.35408 0.37937 0.94391 0.0
H573 H 0.29093 0.31513 0.91259 0.0
H574 H 0.26964 0.27905 0.88705 0.0
H575 H 0.29773 0.25557 0.96386 0.0
H576 H 0.31943 0.29158 0.98954 0.0
H577 H 0.32137 0.38131 0.12617 0.0
H578 H 0.31875 0.37515 0.06009 0.0
H579 H 0.34301 0.33212 0.0729 0.0
H580 H 0.34563 0.33807 0.13895 0.0
H581 H 0.30977 0.31738 0.02341 0.0
H582 H 0.37597 0.3815 0.04857 0.0
H583 H 0.39843 0.41745 0.07403 0.0
H584 H 0.36551 0.44087 0.00841 0.0
H585 H 0.34265 0.40497 0.98291 0.0
C586 C 0.35071 0.32943 0.86061 0.0
C587 C 0.34759 0.3413 0.83344 0.0
C588 C 0.34524 0.33032 0.89688 0.0
C589 C 0.33651 0.34304 0.90665 0.0
C590 C 0.33292 0.35453 0.87953 0.0
C591 C 0.33829 0.35357 0.84315 0.0
C592 C 0.33273 0.34553 0.94561 0.0
C593 C 0.344 0.36589 0.96114 0.0
C594 C 0.31998 0.32783 0.96814 0.0
C595 C 0.30693 0.30611 0.95282 0.0
C596 C 0.2927 0.30232 0.92386 0.0
C597 C 0.28053 0.28186 0.90939 0.0
C598 C 0.28236 0.26504 0.92378 0.0
C599 C 0.29634 0.26862 0.95273 0.0
C600 C 0.30855 0.28905 0.96729 0.0
C601 C 0.32596 0.37038 0.115 0.0
C602 C 0.33389 0.36032 0.13777 0.0
C603 C 0.32447 0.36691 0.07726 0.0
C604 C 0.33087 0.35334 0.06173 0.0
C605 C 0.338 0.34265 0.08447 0.0
C606 C 0.33958 0.34617 0.12216 0.0
C607 C 0.33131 0.35115 0.0216 0.0
C608 C 0.31951 0.33088 0.00596 0.0
C609 C 0.34368 0.3689 -0.00105 0.0
C610 C 0.35743 0.3905 0.01418 0.0
C611 C 0.3734 0.39428 0.03982 0.0
C612 C 0.38622 0.41465 0.05421 0.0
C613 C 0.38335 0.43142 0.04294 0.0
C614 C 0.36768 0.42786 0.01717 0.0
C615 C 0.3548 0.40751 0.00273 0.0
H616 H 0.3933 0.44718 0.05411 0.0
H617 H 0.27293 0.24921 0.91254 0.0
H618 H 0.01061 0.34679 0.6502 0.0
H619 H 0.0177 0.34742 0.58482 0.0
H620 H 0.95042 0.31322 0.56259 0.0
H621 H 0.94307 0.31238 0.62809 0.0
H622 H 0.97355 0.30011 0.51864 0.0
H623 H 0.97477 0.36439 0.5539 0.0
H624 H 0.98561 0.39655 0.59115 0.0
H625 H 0.05071 0.42028 0.56089 0.0
H626 H 0.04027 0.38813 0.52379 0.0
H627 H 0.97892 0.33358 0.33231 0.0
H628 H 0.97083 0.32501 0.39715 0.0
H629 H 0.03761 0.36125 0.42304 0.0
H630 H 0.04587 0.37002 0.35852 0.0
H631 H 0.01394 0.37239 0.46512 0.0
H632 H 0.01195 0.30802 0.42745 0.0
H633 H 0.00036 0.27587 0.38985 0.0
H634 H 0.93584 0.25232 0.42372 0.0
H635 H 0.94702 0.28449 0.46115 0.0
C636 C -0.00272 0.33911 0.63154 0.0
C637 C 0.97626 0.32978 0.64431 0.0
C638 C 0.00138 0.33952 0.5942 0.0
C639 C 0.98457 0.33064 0.56901 0.0
C640 C 0.96358 0.3202 0.58172 0.0
C641 C 0.95944 0.31982 0.61911 0.0
C642 C 0.98899 0.33372 0.52939 0.0
C643 C 0.98218 0.31587 0.50676 0.0
C644 C 0.00044 0.35433 0.51421 0.0
C645 C 0.00676 0.37374 0.53638 0.0
C646 C 0.99142 0.37638 0.55543 0.0
C647 C -0.00252 0.39463 0.57646 0.0
C648 C 0.01884 0.41041 0.57848 0.0
C649 C 0.03417 0.40802 0.55935 0.0
C650 C 0.02819 0.3898 0.53828 0.0
C651 C 0.9919 0.33956 0.35175 0.0
C652 C 0.01303 0.35259 0.34027 0.0
C653 C 0.98726 0.33456 0.38874 0.0
C654 C 0.00365 0.34245 0.41477 0.0
C655 C 0.02476 0.35504 0.40331 0.0
C656 C 0.02942 0.36 0.3664 0.0
C657 C -0.00122 0.33878 0.45424 0.0
C658 C 0.0054 0.35659 0.4769 0.0
C659 C 0.98705 0.31814 0.46927 0.0
C660 C 0.9803 0.29877 0.44681 0.0
C661 C 0.99527 0.29608 0.42663 0.0
C662 C 0.98878 0.27783 0.4054 0.0
C663 C 0.96737 0.26209 0.40431 0.0
C664 C 0.95242 0.26454 0.42454 0.0
C665 C 0.95882 0.28277 0.4458 0.0
H666 H 0.96238 0.24797 0.38787 0.0
H667 H 0.02352 0.42451 0.59481 0.0
H668 H 0.64124 0.97427 0.82075 0.0
H669 H 0.64363 0.96427 0.88375 0.0
H670 H 0.66813 0.02923 0.91828 0.0
H671 H 0.66631 0.03946 0.85547 0.0
H672 H 0.68864 0.01208 0.95201 0.0
H673 H 0.61509 0.99154 0.92677 0.0
H674 H 0.58124 0.97238 0.89299 0.0
H675 H 0.57749 0.91285 0.91802 0.0
H676 H 0.61147 0.9317 0.9516 0.0
H677 H 0.65842 0.01054 0.1347 0.0
H678 H 0.66516 0.0137 0.06912 0.0
H679 H 0.63881 0.94584 0.06112 0.0
H680 H 0.63154 0.94243 0.12686 0.0
H681 H 0.62163 0.95923 0.01203 0.0
H682 H 0.69238 0.98028 0.04766 0.0
H683 H 0.72573 1e-05 0.08257 0.0
H684 H 0.7348 0.0589 0.03931 0.0
H685 H 0.70135 0.03958 0.00452 0.0
C686 C 0.64726 0.98645 0.84173 0.0
C687 C 0.6534 0.00762 0.83319 0.0
C688 C 0.64861 0.9807 0.87768 0.0
C689 C 0.65582 0.99597 0.9057 0.0
C690 C 0.66256 0.01721 0.89703 0.0
C691 C 0.66139 0.023 0.86112 0.0
C692 C 0.65534 0.98985 0.94444 0.0
C693 C 0.67401 0.00056 0.96525 0.0
C694 C 0.63637 0.97434 0.96133 0.0
C695 C 0.61592 0.96303 0.94128 0.0
C696 C 0.60712 0.97437 0.92483 0.0
C697 C 0.5879 0.96357 0.90577 0.0
C698 C 0.57726 0.94142 0.90326 0.0
C699 C 0.58577 0.93001 0.91991 0.0
C700 C 0.605 0.94074 0.93897 0.0
C701 C 0.6543 0.99629 0.11916 0.0
C702 C 0.64431 0.97622 0.13598 0.0
C703 C 0.65832 -0.00185 0.08165 0.0
C704 C 0.65272 0.98003 0.0603 0.0
C705 C 0.64332 0.96002 0.07716 0.0
C706 C 0.63917 0.95812 0.1147 0.0
C707 C 0.65483 0.98191 0.02001 0.0
C708 C 0.63643 0.97039 -0.00119 0.0
C709 C 0.67405 0.99674 0.00287 0.0
C710 C 0.69427 0.00846 0.02359 0.0
C711 C 0.70141 0.99745 0.04576 0.0
C712 C 0.72035 0.00856 0.06551 0.0
C713 C 0.73236 0.03069 0.06319 0.0
C714 C 0.72548 0.04176 0.04107 0.0
C715 C 0.70655 0.03073 0.02127 0.0
H716 H 0.74701 0.03927 0.07852 0.0
H717 H 0.56238 0.93308 0.88848 0.0
H718 H 0.63979 0.67809 0.34814 0.0
H719 H 0.65028 0.67672 0.41095 0.0
H720 H 0.67421 0.63562 0.37745 0.0
H721 H 0.66356 0.63673 0.3143 0.0
H722 H 0.64787 0.61986 0.43536 0.0
H723 H 0.70862 0.68562 0.40448 0.0
H724 H 0.72864 0.72185 0.37921 0.0
H725 H 0.69905 0.74339 0.45663 0.0
H726 H 0.6786 0.70722 0.48205 0.0
H727 H 0.6785 0.61997 0.62055 0.0
H728 H 0.68246 0.62603 0.55445 0.0
H729 H 0.65457 0.66618 0.56255 0.0
H730 H 0.65062 0.66033 0.62853 0.0
H731 H 0.68912 0.68247 0.51569 0.0
H732 H 0.62438 0.61582 0.53841 0.0
H733 H 0.60354 0.57953 0.56323 0.0
H734 H 0.64062 0.55989 0.50018 0.0
H735 H 0.66188 0.59618 0.47536 0.0
C736 C 0.64748 0.66892 0.35397 0.0
C737 C 0.65073 0.65742 0.32624 0.0
C738 C 0.65362 0.66829 0.38987 0.0
C739 C 0.66321 0.65624 0.39874 0.0
C740 C 0.6669 0.64509 0.37106 0.0
C741 C 0.66082 0.64576 0.33503 0.0
C742 C 0.66763 0.65395 0.43746 0.0
C743 C 0.65735 0.63352 0.45275 0.0
C744 C 0.67967 0.67181 0.46018 0.0
C745 C 0.69196 0.69364 0.44503 0.0
C746 C 0.70625 0.69804 0.41595 0.0
C747 C 0.7177 0.71858 0.40163 0.0
C748 C 0.7151 0.73491 0.41627 0.0
C749 C 0.70105 0.73073 0.44532 0.0
C750 C 0.68955 0.71021 0.45973 0.0
C751 C 0.67338 0.63024 0.60833 0.0
C752 C 0.66406 0.63952 0.62974 0.0
C753 C 0.67565 0.63367 0.57059 0.0
C754 C 0.66866 0.64642 0.55372 0.0
C755 C 0.66009 0.65632 0.57516 0.0
C756 C 0.65772 0.65284 0.61281 0.0
C757 C 0.66898 0.64848 0.51349 0.0
C758 C 0.68009 0.66883 0.49803 0.0
C759 C 0.65767 0.63056 0.49056 0.0
C760 C 0.64489 0.60876 0.50542 0.0
C761 C 0.62821 0.60381 0.5301 0.0
C762 C 0.6163 0.58324 0.54412 0.0
C763 C 0.6208 0.56744 0.53339 0.0
C764 C 0.63719 0.57216 0.50853 0.0
C765 C 0.64917 0.59273 0.49448 0.0
H766 H 0.61156 0.55151 0.54426 0.0
H767 H 0.72398 0.7508 0.40514 0.0
H768 H 0.0072 0.57887 0.29578 0.0
H769 H 0.00841 0.54585 0.29408 0.0
H770 H 0.05376 0.57083 0.20563 0.0
H771 H 0.05339 0.60422 0.20851 0.0
H772 H -0.00217 0.51659 0.24719 0.0
H773 H 0.08625 0.55085 0.20558 0.0
H774 H 0.12081 0.58348 0.21469 0.0
H775 H 0.09792 0.59665 0.31402 0.0
H776 H 0.06333 0.56397 0.30575 0.0
H777 H 0.01144 0.43159 0.18827 0.0
H778 H 0.01104 0.46497 0.19302 0.0
H779 H 0.05413 0.48365 0.28489 0.0
H780 H 0.05545 0.45087 0.27891 0.0
H781 H 0.06573 0.51592 0.2456 0.0
H782 H -0.0015 0.46416 0.2937 0.0
H783 H 0.96377 0.43112 0.29442 0.0
H784 H 0.94401 0.4522 0.20027 0.0
H785 H 0.97874 0.48527 0.19871 0.0
C786 C 0.01752 0.57734 0.27613 0.0
C787 C 0.03033 0.59416 0.25248 0.0
C788 C 0.01815 0.55844 0.2751 0.0
C789 C 0.03139 0.55591 0.25007 0.0
C790 C 0.04384 0.57257 0.22586 0.0
C791 C 0.04355 0.59162 0.22741 0.0
C792 C 0.03196 0.53576 0.24898 0.0
C793 C 0.01268 0.51646 0.24694 0.0
C794 C 0.0513 0.53548 0.24942 0.0
C795 C 0.07213 0.55507 0.25482 0.0
C796 C 0.08862 0.56067 0.22943 0.0
C797 C 0.10821 0.57918 0.23444 0.0
C798 C 0.11153 0.59216 0.26485 0.0
C799 C 0.0953 0.58662 0.2904 0.0
C800 C 0.07569 0.56812 0.28554 0.0
C801 C 0.02083 0.44286 0.20943 0.0
C802 C 0.03345 0.43864 0.23326 0.0
C803 C 0.0205 0.46187 0.21228 0.0
C804 C 0.03227 0.47672 0.23974 0.0
C805 C 0.04494 0.47251 0.26344 0.0
C806 C 0.04565 0.45374 0.26006 0.0
C807 C 0.03159 0.49674 0.24365 0.0
C808 C 0.05086 0.51603 0.24601 0.0
C809 C 0.01222 0.49694 0.24501 0.0
C810 C 0.99129 0.4771 0.2459 0.0
C811 C 0.9868 0.46168 0.273 0.0
C812 C 0.96711 0.44296 0.27358 0.0
C813 C 0.95171 0.43953 0.24735 0.0
C814 C 0.95596 0.45486 0.22054 0.0
C815 C 0.97564 0.4736 0.21982 0.0
H816 H 0.93647 0.42503 0.24785 0.0
H817 H 0.1267 0.60649 0.26866 0.0
H818 H 0.42307 0.00826 0.79082 0.0
H819 H 0.45691 0.00893 0.78685 0.0
H820 H 0.47876 0.05892 0.70628 0.0
H821 H 0.44523 0.05893 0.71132 0.0
H822 H 0.47545 0.00041 0.73619 0.0
H823 H 0.53178 0.09055 0.71025 0.0
H824 H 0.53435 0.1248 0.72606 0.0
H825 H 0.49636 0.09677 0.82192 0.0
H826 H 0.4938 0.06245 0.80695 0.0
H827 H 0.57443 0.01417 0.68016 0.0
H828 H 0.54126 0.01497 0.68421 0.0
H829 H 0.56372 0.05253 0.78297 0.0
H830 H 0.59735 0.0528 0.7777 0.0
H831 H 0.54478 0.0671 0.74607 0.0
H832 H 0.5262 0.99654 0.78166 0.0
H833 H 0.52356 0.96147 0.77566 0.0
H834 H 0.4859 0.94888 0.67839 0.0
H835 H 0.48854 0.98399 0.68357 0.0
C836 C 0.43512 0.01946 0.77235 0.0
C837 C 0.43153 0.03363 0.75152 0.0
C838 C 0.45444 0.01978 0.77003 0.0
C839 C 0.47051 0.03412 0.74656 0.0
C840 C 0.46681 0.04804 0.72521 0.0
C841 C 0.44761 0.04797 0.728 0.0
C842 C 0.49101 0.0343 0.74427 0.0
C843 C 0.49061 0.015 0.73839 0.0
C844 C 0.51082 0.05325 0.74784 0.0
C845 C 0.51242 0.07388 0.75723 0.0
C846 C 0.52404 0.09172 0.73476 0.0
C847 C 0.52548 0.11114 0.74356 0.0
C848 C 0.51547 0.11294 0.7749 0.0
C849 C 0.50404 0.09533 0.79757 0.0
C850 C 0.50257 0.07589 0.78891 0.0
C851 C 0.57225 0.02261 0.70268 0.0
C852 C 0.58839 0.03335 0.7287 0.0
C853 C 0.55325 0.02297 0.70511 0.0
C854 C 0.54975 0.03347 0.73431 0.0
C855 C 0.56599 0.04434 0.76015 0.0
C856 C 0.58519 0.04443 0.7572 0.0
C857 C 0.52924 0.03319 0.73801 0.0
C858 C 0.52963 0.0525 0.74393 0.0
C859 C 0.50941 0.01412 0.73596 0.0
C860 C 0.50774 0.99297 0.73282 0.0
C861 C 0.51747 0.98634 0.75886 0.0
C862 C 0.51596 0.96646 0.75563 0.0
C863 C 0.50462 0.95298 0.72661 0.0
C864 C 0.49471 0.95935 0.70082 0.0
C865 C 0.49619 0.97923 0.70391 0.0
H866 H 0.50347 0.93759 0.72415 0.0
H867 H 0.51659 0.12798 0.78166 0.0
H868 H 0.54169 0.61275 0.23786 0.0
H869 H 0.50779 0.57966 0.24271 0.0
H870 H 0.5382 0.54413 0.2106 0.0
H871 H 0.57205 0.57716 0.20474 0.0
H872 H 0.50118 0.52868 0.17751 0.0
H873 H 0.52616 0.54756 0.30093 0.0
H874 H 0.53953 0.57079 0.35522 0.0
H875 H 0.48245 0.57457 0.35879 0.0
H876 H 0.46885 0.55157 0.30418 0.0
H877 H 0.42293 0.42734 0.24415 0.0
H878 H 0.45608 0.46119 0.2378 0.0
H879 H 0.42178 0.49502 0.25063 0.0
H880 H 0.38848 0.46125 0.2566 0.0
H881 H 0.46006 0.51126 0.2932 0.0
H882 H 0.43512 0.49117 0.16958 0.0
H883 H 0.42193 0.46669 0.11684 0.0
H884 H 0.47965 0.46405 0.11548 0.0
H885 H 0.49305 0.48826 0.16862 0.0
C886 C 0.54117 0.5979 0.23172 0.0
C887 C 0.55961 0.5976 0.22111 0.0
C888 C 0.52178 0.57899 0.23465 0.0
C889 C 0.52053 0.55939 0.22758 0.0
C890 C 0.53881 0.55907 0.21625 0.0
C891 C 0.55816 0.57798 0.213 0.0
C892 C 0.50022 0.53918 0.23234 0.0
C893 C 0.49234 0.52479 0.20297 0.0
C894 C 0.48847 0.53423 0.26535 0.0
C895 C 0.49659 0.54803 0.29824 0.0
C896 C 0.51653 0.55348 0.31312 0.0
C897 C 0.52414 0.56658 0.34398 0.0
C898 C 0.51188 0.5742 0.36038 0.0
C899 C 0.49195 0.56868 0.34601 0.0
C900 C 0.48427 0.5556 0.31513 0.0
C901 C 0.42244 0.44197 0.2458 0.0
C902 C 0.40308 0.44163 0.25074 0.0
C903 C 0.44136 0.46126 0.24204 0.0
C904 C 0.44127 0.48051 0.24352 0.0
C905 C 0.4221 0.48028 0.24937 0.0
C906 C 0.40312 0.46099 0.25263 0.0
C907 C 0.46119 0.50089 0.23848 0.0
C908 C 0.46895 0.51526 0.26778 0.0
C909 C 0.47291 0.50572 0.20556 0.0
C910 C 0.465 0.49136 0.17332 0.0
C911 C 0.44493 0.48523 0.15823 0.0
C912 C 0.43743 0.47143 0.12823 0.0
C913 C 0.44992 0.46377 0.11288 0.0
C914 C 0.46998 0.46997 0.12743 0.0
C915 C 0.47754 0.48375 0.15747 0.0
H916 H 0.44407 0.45308 0.08967 0.0
H917 H 0.5178 0.58434 0.38427 0.0
H918 H 0.92375 0.53508 0.7147 0.0
H919 H 0.92308 0.50117 0.71757 0.0
H920 H 0.99129 0.53383 0.70663 0.0
H921 H 0.99207 0.56779 0.70277 0.0
H922 H 0.97389 0.4981 0.66797 0.0
H923 H 0.96739 0.5177 0.79054 0.0
H924 H 0.95213 0.52869 0.84049 0.0
H925 H 0.89213 0.47143 0.82689 0.0
H926 H 0.90696 0.46023 0.77649 0.0
H927 H 0.99119 0.41774 0.74502 0.0
H928 H 0.99079 0.45083 0.73497 0.0
H929 H 0.92235 0.41584 0.73053 0.0
H930 H 0.92255 0.38263 0.7403 0.0
H931 H 0.93948 0.45221 0.77596 0.0
H932 H 0.94776 0.43234 0.65409 0.0
H933 H 0.96463 0.4217 0.60644 0.0
H934 H 0.02334 0.48018 0.62134 0.0
H935 H 0.00691 0.49103 0.66956 0.0
C936 C 0.93861 0.53506 0.71262 0.0
C937 C 0.95799 0.55417 0.70886 0.0
C938 C 0.9382 0.51566 0.71439 0.0
C939 C 0.95718 0.51501 0.71301 0.0
C940 C 0.97646 0.53397 0.70787 0.0
C941 C 0.97687 0.55337 0.70577 0.0
C942 C 0.95698 0.49467 0.71828 0.0
C943 C 0.96656 0.48818 0.69177 0.0
C944 C 0.94718 0.48158 0.74912 0.0
C945 C 0.93823 0.48824 0.77949 0.0
C946 C 0.95089 0.50753 0.79801 0.0
C947 C 0.94233 0.51379 0.82643 0.0
C948 C 0.92115 0.50079 0.83679 0.0
C949 C 0.90852 0.48149 0.8188 0.0
C950 C 0.917 0.47517 0.79032 0.0
C951 C 0.97605 0.41707 0.74198 0.0
C952 C 0.9569 0.39756 0.74342 0.0
C953 C 0.97586 0.43597 0.73607 0.0
C954 C 0.95655 0.43569 0.73176 0.0
C955 C 0.93741 0.41632 0.73371 0.0
C956 C 0.93757 0.39739 0.73921 0.0
C957 C 0.95631 0.45569 0.72566 0.0
C958 C 0.9467 0.46211 0.75209 0.0
C959 C 0.96629 0.4688 0.695 0.0
C960 C 0.97615 0.46241 0.66571 0.0
C961 C 0.96431 0.44286 0.64743 0.0
C962 C 0.97379 0.4368 0.62028 0.0
C963 C 0.99505 0.45023 0.61093 0.0
C964 C 0.00687 0.46978 0.62865 0.0
C965 C -0.00252 0.4759 0.65588 0.0
H966 H 0.00235 0.44552 0.58987 0.0
H967 H 0.91455 0.50566 0.85881 0.0
H968 H 0.42024 0.99169 0.24033 0.0
H969 H 0.45339 0.99095 0.24184 0.0
H970 H 0.41833 0.92251 0.2345 0.0
H971 H 0.38495 0.92309 0.23428 0.0
H972 H 0.44916 0.93443 0.28213 0.0
H973 H 0.44452 0.95457 0.15933 0.0
H974 H 0.43979 0.97559 0.11112 0.0
H975 H 0.49505 0.03201 0.14951 0.0
H976 H 0.49994 0.01138 0.1983 0.0
H977 H 0.54045 0.9264 0.23664 0.0
H978 H 0.50599 0.92464 0.23364 0.0
H979 H 0.53659 0.9923 0.25148 0.0
H980 H 0.5711 0.99428 0.25426 0.0
H981 H 0.50739 0.97911 0.19613 0.0
H982 H 0.51081 0.95844 0.3204 0.0
H983 H 0.51517 0.93691 0.3681 0.0
H984 H 0.46175 0.8805 0.32498 0.0
H985 H 0.45725 0.90167 0.27669 0.0
C986 C 0.41955 0.97647 0.23901 0.0
C987 C 0.39996 0.95745 0.23694 0.0
C988 C 0.43855 0.97607 0.23971 0.0
C989 C 0.43839 0.9567 0.23752 0.0
C990 C 0.41884 0.93765 0.23606 0.0
C991 C 0.39979 0.93801 0.23588 0.0
C992 C 0.45865 0.95638 0.23698 0.0
C993 C 0.46175 0.94393 0.26291 0.0
C994 C 0.47523 0.96904 0.21229 0.0
C995 C 0.47249 0.98145 0.18266 0.0
C996 C 0.45559 0.97148 0.15763 0.0
C997 C 0.45289 0.98332 0.13018 0.0
C998 C 0.46708 0.00513 0.1273 0.0
C999 C 0.48406 0.01512 0.15179 0.0
C1000 C 0.48682 0.00336 0.17932 0.0
C1001 C 0.53987 0.94092 0.23991 0.0
C1002 C 0.55855 0.96048 0.24579 0.0
C1003 C 0.52015 0.93986 0.23831 0.0
C1004 C 0.51875 0.95832 0.24264 0.0
C1005 C 0.53735 0.97788 0.24808 0.0
C1006 C 0.55705 0.97895 0.24978 0.0
C1007 C 0.4979 0.95733 0.24145 0.0
C1008 C 0.49471 0.96952 0.21515 0.0
C1009 C 0.4812 0.94432 0.26559 0.0
C1010 C 0.48384 0.93161 0.29471 0.0
C1011 C 0.5001 0.94142 0.32091 0.0
C1012 C 0.50258 0.92929 0.34809 0.0
C1013 C 0.48878 0.90735 0.34951 0.0
C1014 C 0.47244 0.8975 0.32381 0.0
C1015 C 0.46991 0.90955 0.29655 0.0
H1016 H 0.49073 0.89798 0.37057 0.0
H1017 H 0.46495 0.01427 0.10606 0.0
H1018 H 0.57368 0.57185 0.74648 0.0
H1019 H 0.54102 0.53752 0.74509 0.0
H1020 H 0.57749 0.50557 0.75197 0.0
H1021 H 0.61036 0.53993 0.75232 0.0
H1022 H 0.54763 0.48704 0.70259 0.0
H1023 H 0.54951 0.50868 0.8264 0.0
H1024 H 0.55263 0.53257 0.87699 0.0
H1025 H 0.49722 0.53333 0.83824 0.0
H1026 H 0.49394 0.50967 0.7871 0.0
H1027 H 0.45637 0.38612 0.74328 0.0
H1028 H 0.49049 0.41912 0.74852 0.0
H1029 H 0.4597 0.45541 0.72491 0.0
H1030 H 0.42557 0.42257 0.7194 0.0
H1031 H 0.48731 0.47045 0.78566 0.0
H1032 H 0.48709 0.4495 0.66002 0.0
H1033 H 0.48424 0.42485 0.61099 0.0
H1034 H 0.53717 0.42179 0.65635 0.0
H1035 H 0.54014 0.44622 0.70598 0.0
C1036 C 0.57479 0.55754 0.74787 0.0
C1037 C 0.59464 0.55864 0.74961 0.0
C1038 C 0.55607 0.53791 0.74725 0.0
C1039 C 0.55677 0.51896 0.74901 0.0
C1040 C 0.57657 0.51999 0.75068 0.0
C1041 C 0.59533 0.53964 0.75094 0.0
C1042 C 0.53685 0.49811 0.74806 0.0
C1043 C 0.53459 0.48328 0.7212 0.0
C1044 C 0.51969 0.49331 0.77197 0.0
C1045 C 0.52159 0.50754 0.80272 0.0
C1046 C 0.53809 0.51407 0.8285 0.0
C1047 C 0.53987 0.52755 0.8573 0.0
C1048 C 0.52516 0.5345 0.86078 0.0
C1049 C 0.50862 0.52795 0.83549 0.0
C1050 C 0.50677 0.51448 0.80661 0.0
C1051 C 0.45686 0.40111 0.73916 0.0
C1052 C 0.43826 0.40172 0.73085 0.0
C1053 C 0.47636 0.41993 0.74208 0.0
C1054 C 0.47757 0.43964 0.73696 0.0
C1055 C 0.45905 0.44032 0.72897 0.0
C1056 C 0.43959 0.42153 0.72567 0.0
C1057 C 0.49813 0.45962 0.74004 0.0
C1058 C 0.50046 0.47423 0.76731 0.0
C1059 C 0.51542 0.46412 0.71681 0.0
C1060 C 0.51368 0.44949 0.68693 0.0
C1061 C 0.498 0.44342 0.65972 0.0
C1062 C 0.49638 0.42952 0.63179 0.0
C1063 C 0.51047 0.42171 0.63062 0.0
C1064 C 0.52624 0.42783 0.65733 0.0
C1065 C 0.52791 0.44171 0.68535 0.0
H1066 H 0.5092 0.41095 0.60896 0.0
H1067 H 0.52657 0.54494 0.8831 0.0
H1068 H 0.11464 0.3828 0.30588 0.0
H1069 H 0.15042 0.38792 0.31141 0.0
H1070 H 0.17154 0.43348 0.22314 0.0
H1071 H 0.13612 0.42927 0.21905 0.0
H1072 H 0.16929 0.37754 0.26632 0.0
H1073 H 0.22419 0.46603 0.2231 0.0
H1074 H 0.22651 0.50078 0.23214 0.0
H1075 H 0.18998 0.47806 0.33092 0.0
H1076 H 0.18769 0.44328 0.32276 0.0
H1077 H 0.26259 0.386 0.20055 0.0
H1078 H 0.23136 0.3902 0.20541 0.0
H1079 H 0.25956 0.43208 0.29799 0.0
H1080 H 0.29131 0.42878 0.29196 0.0
H1081 H 0.23808 0.44508 0.26087 0.0
H1082 H 0.22317 0.37816 0.30912 0.0
H1083 H 0.22132 0.34332 0.30947 0.0
H1084 H 0.17818 0.32294 0.21838 0.0
H1085 H 0.18 0.35777 0.21718 0.0
C1086 C 0.12708 0.39424 0.28824 0.0
C1087 C 0.12267 0.40561 0.26201 0.0
C1088 C 0.14749 0.39713 0.29133 0.0
C1089 C 0.16376 0.41113 0.26777 0.0
C1090 C 0.15946 0.42295 0.24222 0.0
C1091 C 0.13916 0.42043 0.23973 0.0
C1092 C 0.18449 0.41175 0.26741 0.0
C1093 C 0.1843 0.39236 0.26542 0.0
C1094 C 0.20418 0.43102 0.26684 0.0
C1095 C 0.20562 0.45197 0.27211 0.0
C1096 C 0.21673 0.46847 0.24683 0.0
C1097 C 0.21802 0.48817 0.25179 0.0
C1098 C 0.20834 0.4916 0.28203 0.0
C1099 C 0.1974 0.47535 0.30743 0.0
C1100 C 0.19607 0.45563 0.30262 0.0
C1101 C 0.26223 0.39635 0.22156 0.0
C1102 C 0.27921 0.40689 0.24612 0.0
C1103 C 0.24436 0.39867 0.22445 0.0
C1104 C 0.24287 0.41099 0.25272 0.0
C1105 C 0.2603 0.4224 0.2761 0.0
C1106 C 0.27841 0.42048 0.27267 0.0
C1107 C 0.22269 0.41092 0.25913 0.0
C1108 C 0.22301 0.43034 0.26212 0.0
C1109 C 0.20312 0.39167 0.26212 0.0
C1110 C 0.20185 0.37063 0.26289 0.0
C1111 C 0.21338 0.36629 0.28903 0.0
C1112 C 0.21234 0.34654 0.2894 0.0
C1113 C 0.19968 0.33095 0.26392 0.0
C1114 C 0.188 0.33504 0.23808 0.0
C1115 C 0.18901 0.35478 0.23757 0.0
H1116 H 0.19889 0.31567 0.26424 0.0
H1117 H 0.20935 0.50686 0.28581 0.0
H1118 H 0.87922 0.24843 0.73268 0.0
H1119 H 0.84321 0.21832 0.7319 0.0
H1120 H 0.8181 0.26098 0.7379 0.0
H1121 H 0.85437 0.29139 0.73975 0.0
H1122 H 0.79792 0.22935 0.78435 0.0
H1123 H 0.81432 0.23399 0.65825 0.0
H1124 H 0.83539 0.2376 0.60309 0.0
H1125 H 0.83347 0.17897 0.62858 0.0
H1126 H 0.81265 0.17515 0.6842 0.0
H1127 H 0.69485 0.13464 0.74696 0.0
H1128 H 0.72615 0.17039 0.74418 0.0
H1129 H 0.76691 0.14366 0.75919 0.0
H1130 H 0.73594 0.10811 0.76244 0.0
H1131 H 0.77547 0.1702 0.69557 0.0
H1132 H 0.76219 0.1692 0.82649 0.0
H1133 H 0.74028 0.16623 0.88012 0.0
H1134 H 0.73473 0.21907 0.84153 0.0
H1135 H 0.75638 0.22216 0.78737 0.0
C1136 C 0.86607 0.25147 0.73348 0.0
C1137 C 0.86962 0.27228 0.73618 0.0
C1138 C 0.84546 0.23422 0.73284 0.0
C1139 C 0.82795 0.23741 0.73426 0.0
C1140 C 0.8314 0.25819 0.73663 0.0
C1141 C 0.8521 0.27551 0.73756 0.0
C1142 C 0.80617 0.21882 0.73499 0.0
C1143 C 0.79282 0.21662 0.76446 0.0
C1144 C 0.79951 0.20218 0.70908 0.0
C1145 C 0.812 0.20435 0.67555 0.0
C1146 C 0.81851 0.22193 0.65224 0.0
C1147 C 0.8304 0.22401 0.62086 0.0
C1148 C 0.83579 0.20854 0.61236 0.0
C1149 C 0.82928 0.19094 0.63519 0.0
C1150 C 0.8174 0.18879 0.66663 0.0
C1151 C 0.71048 0.13645 0.75032 0.0
C1152 C 0.71296 0.11858 0.75471 0.0
C1153 C 0.72828 0.15684 0.7487 0.0
C1154 C 0.74874 0.15952 0.75122 0.0
C1155 C 0.7512 0.14181 0.75701 0.0
C1156 C 0.73348 0.12153 0.759 0.0
C1157 C 0.76777 0.18052 0.74558 0.0
C1158 C 0.7805 0.18315 0.71501 0.0
C1159 C 0.77365 0.19761 0.77011 0.0
C1160 C 0.76066 0.19573 0.80266 0.0
C1161 C 0.75611 0.18004 0.82925 0.0
C1162 C 0.74378 0.17838 0.85979 0.0
C1163 C 0.73605 0.19241 0.86417 0.0
C1164 C 0.74069 0.20818 0.83806 0.0
C1165 C 0.75299 0.20991 0.80746 0.0
H1166 H 0.72652 0.1911 0.88784 0.0
H1167 H 0.845 0.21018 0.58805 0.0
H1168 H 0.6341 0.74416 0.27261 0.0
H1169 H 0.62886 0.77457 0.27884 0.0
H1170 H 0.56108 0.73333 0.2688 0.0
H1171 H 0.56629 0.70274 0.26138 0.0
H1172 H 0.57349 0.76543 0.22471 0.0
H1173 H 0.58429 0.75922 0.35077 0.0
H1174 H 0.60126 0.75475 0.40588 0.0
H1175 H 0.65844 0.81323 0.38233 0.0
H1176 H 0.64195 0.81792 0.32678 0.0
H1177 H 0.56616 0.8603 0.25363 0.0
H1178 H 0.56145 0.82467 0.26187 0.0
H1179 H 0.62926 0.85087 0.25492 0.0
H1180 H 0.63411 0.88634 0.24649 0.0
H1181 H 0.61027 0.8236 0.31518 0.0
H1182 H 0.59977 0.82572 0.18388 0.0
H1183 H 0.58199 0.8297 0.12941 0.0
H1184 H 0.52235 0.7779 0.16585 0.0
H1185 H 0.53975 0.77382 0.22081 0.0
C1186 C 0.61803 0.74147 0.27235 0.0
C1187 C 0.60061 0.72106 0.26637 0.0
C1188 C 0.61504 0.75889 0.27615 0.0
C1189 C 0.59454 0.75623 0.2747 0.0
C1190 C 0.57703 0.73574 0.27007 0.0
C1191 C 0.58003 0.71829 0.26594 0.0
C1192 C 0.59181 0.77514 0.27465 0.0
C1193 C 0.58108 0.77791 0.24505 0.0
C1194 C 0.60187 0.79154 0.30095 0.0
C1195 C 0.61189 0.78886 0.33445 0.0
C1196 C 0.60054 0.77106 0.35719 0.0
C1197 C 0.61006 0.7685 0.38854 0.0
C1198 C 0.63092 0.78368 0.39758 0.0
C1199 C 0.64228 0.80149 0.37531 0.0
C1200 C 0.63284 0.80412 0.34391 0.0
C1201 C 0.58003 0.85841 0.25359 0.0
C1202 C 0.6005 0.87609 0.24937 0.0
C1203 C 0.57731 0.8381 0.25833 0.0
C1204 C 0.59503 0.83524 0.25912 0.0
C1205 C 0.61542 0.85282 0.2546 0.0
C1206 C 0.61813 0.87305 0.24955 0.0
C1207 C 0.59259 0.814 0.26475 0.0
C1208 C 0.6023 0.81085 0.29541 0.0
C1209 C 0.58142 0.79719 0.23969 0.0
C1210 C 0.571 0.79965 0.20666 0.0
C1211 C 0.58283 0.81532 0.18044 0.0
C1212 C 0.57283 0.81756 0.14945 0.0
C1213 C 0.55104 0.80411 0.14424 0.0
C1214 C 0.53921 0.78834 0.16996 0.0
C1215 C 0.54914 0.78605 0.20102 0.0
H1216 H 0.54333 0.80587 0.12022 0.0
H1217 H 0.63827 0.78167 0.42186 0.0
H1218 H 0.88175 0.6234 0.76641 0.0
H1219 H 0.84602 0.61783 0.77261 0.0
H1220 H 0.8198 0.55238 0.73952 0.0
H1221 H 0.8558 0.55807 0.73217 0.0
H1222 H 0.80133 0.56962 0.70328 0.0
H1223 H 0.81447 0.56552 0.82871 0.0
H1224 H 0.83428 0.57549 0.88694 0.0
H1225 H 0.83455 0.63472 0.88729 0.0
H1226 H 0.81501 0.62528 0.82877 0.0
H1227 H 0.69949 0.56215 0.74175 0.0
H1228 H 0.72921 0.55521 0.74611 0.0
H1229 H 0.77318 0.62256 0.75338 0.0
H1230 H 0.74378 0.62966 0.74841 0.0
H1231 H 0.77802 0.59618 0.80848 0.0
H1232 H 0.76992 0.60098 0.67661 0.0
H1233 H 0.74963 0.58984 0.61886 0.0
H1234 H 0.73857 0.52646 0.63355 0.0
H1235 H 0.75857 0.53719 0.6917 0.0
C1236 C 0.86841 0.60773 0.76088 0.0
C1237 C 0.87159 0.59118 0.74875 0.0
C1238 C 0.84795 0.60452 0.76469 0.0
C1239 C 0.83019 0.58459 0.75707 0.0
C1240 C 0.83328 0.56786 0.7457 0.0
C1241 C 0.85383 0.57112 0.74159 0.0
C1242 C 0.80863 0.58197 0.75837 0.0
C1243 C 0.796 0.57491 0.72668 0.0
C1244 C 0.80167 0.58894 0.78881 0.0
C1245 C 0.81333 0.59471 0.8242 0.0
C1246 C 0.81886 0.58074 0.84107 0.0
C1247 C 0.83003 0.58629 0.87416 0.0
C1248 C 0.83569 0.60574 0.89078 0.0
C1249 C 0.83015 0.61966 0.87438 0.0
C1250 C 0.81898 0.61419 0.84128 0.0
C1251 C 0.71551 0.57545 0.74411 0.0
C1252 C 0.71936 0.59645 0.74464 0.0
C1253 C 0.73241 0.57146 0.74662 0.0
C1254 C 0.75328 0.58839 0.75021 0.0
C1255 C 0.75713 0.60931 0.75081 0.0
C1256 C 0.74034 0.61333 0.74772 0.0
C1257 C 0.77135 0.58459 0.75309 0.0
C1258 C 0.78322 0.59041 0.78557 0.0
C1259 C 0.77745 0.5762 0.72364 0.0
C1260 C 0.76547 0.5698 0.68871 0.0
C1261 C 0.76297 0.58462 0.66771 0.0
C1262 C 0.75157 0.5784 0.63486 0.0
C1263 C 0.74275 0.55744 0.62261 0.0
C1264 C 0.74537 0.54268 0.64312 0.0
C1265 C 0.75673 0.54882 0.67601 0.0
H1266 H 0.73393 0.55265 0.59716 0.0
H1267 H 0.84435 0.61001 0.91639 0.0
H1268 H 0.29101 0.85494 0.25132 0.0
H1269 H 0.25961 0.8193 0.24965 0.0
H1270 H 0.21918 0.84711 0.24806 0.0
H1271 H 0.25025 0.88245 0.25124 0.0
H1272 H 0.20272 0.81471 0.29065 0.0
H1273 H 0.23319 0.82837 0.16864 0.0
H1274 H 0.26148 0.8366 0.12346 0.0
H1275 H 0.26356 0.78083 0.15566 0.0
H1276 H 0.23543 0.77241 0.20135 0.0
H1277 H 0.10773 0.74093 0.20958 0.0
H1278 H 0.1437 0.77122 0.21391 0.0
H1279 H 0.16768 0.72912 0.23959 0.0
H1280 H 0.13158 0.69856 0.23548 0.0
H1281 H 0.19421 0.76494 0.19025 0.0
H1282 H 0.15984 0.7499 0.3079 0.0
H1283 H 0.13013 0.742 0.34962 0.0
H1284 H 0.13453 0.80154 0.32225 0.0
H1285 H 0.16405 0.80964 0.2799 0.0
C1286 C 0.27539 0.85337 0.25102 0.0
C1287 C 0.27306 0.87146 0.25133 0.0
C1288 C 0.25748 0.83303 0.24982 0.0
C1289 C 0.23704 0.83053 0.24814 0.0
C1290 C 0.23477 0.84861 0.24938 0.0
C1291 C 0.25257 0.86884 0.25115 0.0
C1292 C 0.21782 0.80928 0.24437 0.0
C1293 C 0.2009 0.80391 0.26858 0.0
C1294 C 0.21556 0.79487 0.21617 0.0
C1295 C 0.23241 0.79991 0.18868 0.0
C1296 C 0.2398 0.81795 0.16625 0.0
C1297 C 0.25578 0.82263 0.14053 0.0
C1298 C 0.26436 0.80928 0.13677 0.0
C1299 C 0.25693 0.79118 0.15865 0.0
C1300 C 0.24096 0.78644 0.18445 0.0
C1301 C 0.12067 0.73802 0.21547 0.0
C1302 C 0.11681 0.71739 0.22262 0.0
C1303 C 0.14119 0.75535 0.21797 0.0
C1304 C 0.15818 0.75233 0.22756 0.0
C1305 C 0.15468 0.73168 0.23226 0.0
C1306 C 0.13407 0.71429 0.22997 0.0
C1307 C 0.17912 0.77095 0.2357 0.0
C1308 C 0.19628 0.77569 0.21255 0.0
C1309 C 0.18157 0.78496 0.26458 0.0
C1310 C 0.16406 0.7803 0.29054 0.0
C1311 C 0.15438 0.76124 0.31059 0.0
C1312 C 0.13759 0.75674 0.33438 0.0
C1313 C 0.13042 0.77125 0.33854 0.0
C1314 C 0.14009 0.79032 0.31899 0.0
C1315 C 0.15687 0.79488 0.29513 0.0
H1316 H 0.11741 0.76772 0.35694 0.0
H1317 H 0.27673 0.81293 0.11684 0.0
H1318 H 0.4301 0.29451 0.75429 0.0
H1319 H 0.43433 0.26313 0.75444 0.0
H1320 H 0.36694 0.22308 0.77182 0.0
H1321 H 0.36268 0.2543 0.77252 0.0
H1322 H 0.38826 0.20882 0.80996 0.0
H1323 H 0.38886 0.23203 0.68574 0.0
H1324 H 0.40203 0.25766 0.63472 0.0
H1325 H 0.46336 0.26281 0.64337 0.0
H1326 H 0.45061 0.2374 0.69481 0.0
H1327 H 0.35931 0.11058 0.73115 0.0
H1328 H 0.36506 0.14652 0.73745 0.0
H1329 H 0.43277 0.17167 0.74073 0.0
H1330 H 0.4272 0.13556 0.73487 0.0
H1331 H 0.41704 0.19545 0.69607 0.0
H1332 H 0.41339 0.16771 0.81685 0.0
H1333 H 0.39791 0.14045 0.86511 0.0
H1334 H 0.33995 0.14256 0.86041 0.0
H1335 H 0.35497 0.16959 0.81165 0.0
C1336 C 0.41626 0.27905 0.75881 0.0
C1337 C 0.39602 0.27683 0.76304 0.0
C1338 C 0.41869 0.26114 0.75869 0.0
C1339 C 0.40089 0.24076 0.76244 0.0
C1340 C 0.38088 0.23866 0.76876 0.0
C1341 C 0.37846 0.25652 0.76908 0.0
C1342 C 0.40266 0.22147 0.7576 0.0
C1343 C 0.39454 0.20592 0.78505 0.0
C1344 C 0.41121 0.21783 0.72534 0.0
C1345 C 0.41887 0.23304 0.69439 0.0
C1346 C 0.4052 0.23877 0.67695 0.0
C1347 C 0.41258 0.25322 0.64793 0.0
C1348 C 0.43354 0.26191 0.6359 0.0
C1349 C 0.44714 0.25611 0.65279 0.0
C1350 C 0.43985 0.24168 0.68186 0.0
C1351 C 0.37546 0.12375 0.73261 0.0
C1352 C 0.39281 0.12025 0.73281 0.0
C1353 C 0.37869 0.14424 0.73632 0.0
C1354 C 0.3993 0.16159 0.74001 0.0
C1355 C 0.41676 0.15838 0.73804 0.0
C1356 C 0.41353 0.13779 0.73472 0.0
C1357 C 0.40226 0.1828 0.74809 0.0
C1358 C 0.4112 0.19862 0.72126 0.0
C1359 C 0.39425 0.18662 0.78072 0.0
C1360 C 0.38526 0.17057 0.8104 0.0
C1361 C 0.39728 0.16225 0.8259 0.0
C1362 C 0.3886 0.14685 0.85338 0.0
C1363 C 0.36794 0.13975 0.86577 0.0
C1364 C 0.35595 0.14807 0.85077 0.0
C1365 C 0.36455 0.16345 0.82324 0.0
H1366 H 0.36125 0.12782 0.88704 0.0
H1367 H 0.43922 0.2731 0.61342 0.0
loop_
_geom_bond_atom_site_label_1
_geom_bond_atom_site_label_2
_geom_bond_distance
_geom_bond_site_symmetry_2
_ccdc_geom_bond_type
C0 O1 1.306 . S
C0 O3 1.160 . S
O1 C0 1.306 . S
O1 Cd2 2.228 . S
Cd2 O1 2.228 . S
Cd2 O6 2.273 . S
Cd2 O10 2.277 . S
O3 C0 1.160 . S
O3 Cd4 2.203 . S
Cd4 O3 2.203 . S
Cd4 O6 2.411 . S
Cd4 O7 2.333 . S
Cd4 O8 2.352 . S
Cd4 O12 2.277 . S
Cd4 O13 2.356 . S
C5 O10 1.209 . S
C5 O12 1.226 . S
O6 Cd2 2.273 . S
O6 Cd4 2.411 . S
O6 C9 1.320 . S
O7 Cd4 2.333 . S
O7 C9 1.214 . S
O8 Cd4 2.352 . S
O8 C11 1.258 . S
C9 O6 1.320 . S
C9 O7 1.214 . S
O10 Cd2 2.277 . S
O10 C5 1.209 . S
C11 O8 1.258 . S
C11 O13 1.282 . S
O12 Cd4 2.277 . S
O12 C5 1.226 . S
O13 Cd4 2.356 . S
O13 C11 1.282 . S
C14 O15 1.306 . S
C14 O17 1.160 . S
O15 C14 1.306 . S
O15 Cd16 2.228 . S
Cd16 O15 2.228 . S
Cd16 O20 2.273 . S
Cd16 O24 2.277 . S
O17 C14 1.160 . S
O17 Cd18 2.203 . S
Cd18 O17 2.203 . S
Cd18 O20 2.411 . S
Cd18 O21 2.333 . S
Cd18 O22 2.352 . S
Cd18 O26 2.277 . S
Cd18 O27 2.356 . S
C19 O24 1.209 . S
C19 O26 1.226 . S
O20 Cd16 2.273 . S
O20 Cd18 2.411 . S
O20 C23 1.320 . S
O21 Cd18 2.333 . S
O21 C23 1.214 . S
O22 Cd18 2.352 . S
O22 C25 1.258 . S
C23 O20 1.320 . S
C23 O21 1.214 . S
O24 Cd16 2.277 . S
O24 C19 1.209 . S
C25 O22 1.258 . S
C25 O27 1.282 . S
O26 Cd18 2.277 . S
O26 C19 1.226 . S
O27 Cd18 2.356 . S
O27 C25 1.282 . S
C28 O29 1.306 . S
C28 O31 1.160 . S
O29 C28 1.306 . S
O29 Cd30 2.228 . S
Cd30 O29 2.228 . S
Cd30 O34 2.273 . S
Cd30 O38 2.277 . S
O31 C28 1.160 . S
O31 Cd32 2.203 . S
Cd32 O31 2.203 . S
Cd32 O34 2.411 . S
Cd32 O35 2.333 . S
Cd32 O36 2.352 . S
Cd32 O40 2.277 . S
Cd32 O41 2.356 . S
C33 O38 1.209 . S
C33 O40 1.226 . S
O34 Cd30 2.273 . S
O34 Cd32 2.411 . S
O34 C37 1.320 . S
O35 Cd32 2.333 . S
O35 C37 1.214 . S
O36 Cd32 2.352 . S
O36 C39 1.258 . S
C37 O34 1.320 . S
C37 O35 1.214 . S
O38 Cd30 2.277 . S
O38 C33 1.209 . S
C39 O36 1.258 . S
C39 O41 1.282 . S
O40 Cd32 2.277 . S
O40 C33 1.226 . S
O41 Cd32 2.356 . S
O41 C39 1.282 . S
C42 O43 1.306 . S
C42 O45 1.160 . S
O43 C42 1.306 . S
O43 Cd44 2.228 . S
Cd44 O43 2.228 . S
Cd44 O48 2.273 . S
Cd44 O52 2.277 . S
O45 C42 1.160 . S
O45 Cd46 2.203 . S
Cd46 O45 2.203 . S
Cd46 O48 2.411 . S
Cd46 O49 2.333 . S
Cd46 O50 2.352 . S
Cd46 O54 2.277 . S
Cd46 O55 2.356 . S
C47 O52 1.209 . S
C47 O54 1.226 . S
O48 Cd44 2.273 . S
O48 Cd46 2.411 . S
O48 C51 1.320 . S
O49 Cd46 2.333 . S
O49 C51 1.214 . S
O50 Cd46 2.352 . S
O50 C53 1.258 . S
C51 O48 1.320 . S
C51 O49 1.214 . S
O52 Cd44 2.277 . S
O52 C47 1.209 . S
C53 O50 1.258 . S
C53 O55 1.282 . S
O54 Cd46 2.277 . S
O54 C47 1.226 . S
O55 Cd46 2.356 . S
O55 C53 1.282 . S
C56 O57 1.306 . S
C56 O59 1.160 . S
O57 C56 1.306 . S
O57 Cd58 2.228 . S
Cd58 O57 2.228 . S
Cd58 O62 2.273 . S
Cd58 O66 2.277 . S
O59 C56 1.160 . S
O59 Cd60 2.203 . S
Cd60 O59 2.203 . S
Cd60 O62 2.411 . S
Cd60 O63 2.333 . S
Cd60 O64 2.352 . S
Cd60 O68 2.277 . S
Cd60 O69 2.356 . S
C61 O66 1.209 . S
C61 O68 1.226 . S
O62 Cd58 2.273 . S
O62 Cd60 2.411 . S
O62 C65 1.320 . S
O63 Cd60 2.333 . S
O63 C65 1.214 . S
O64 Cd60 2.352 . S
O64 C67 1.258 . S
C65 O62 1.320 . S
C65 O63 1.214 . S
O66 Cd58 2.277 . S
O66 C61 1.209 . S
C67 O64 1.258 . S
C67 O69 1.282 . S
O68 Cd60 2.277 . S
O68 C61 1.226 . S
O69 Cd60 2.356 . S
O69 C67 1.282 . S
C70 O71 1.306 . S
C70 O73 1.160 . S
O71 C70 1.306 . S
O71 Cd72 2.228 . S
Cd72 O71 2.228 . S
Cd72 O76 2.273 . S
Cd72 O80 2.277 . S
O73 C70 1.160 . S
O73 Cd74 2.203 . S
Cd74 O73 2.203 . S
Cd74 O76 2.411 . S
Cd74 O77 2.333 . S
Cd74 O78 2.352 . S
Cd74 O82 2.277 . S
Cd74 O83 2.356 . S
C75 O80 1.209 . S
C75 O82 1.226 . S
O76 Cd72 2.273 . S
O76 Cd74 2.411 . S
O76 C79 1.320 . S
O77 Cd74 2.333 . S
O77 C79 1.214 . S
O78 Cd74 2.352 . S
O78 C81 1.258 . S
C79 O76 1.320 . S
C79 O77 1.214 . S
O80 Cd72 2.277 . S
O80 C75 1.209 . S
C81 O78 1.258 . S
C81 O83 1.282 . S
O82 Cd74 2.277 . S
O82 C75 1.226 . S
O83 Cd74 2.356 . S
O83 C81 1.282 . S
C84 O85 1.306 . S
C84 O87 1.160 . S
O85 C84 1.306 . S
O85 Cd86 2.228 . S
Cd86 O85 2.228 . S
Cd86 O90 2.273 . S
Cd86 O94 2.277 . S
O87 C84 1.160 . S
O87 Cd88 2.203 . S
Cd88 O87 2.203 . S
Cd88 O90 2.411 . S
Cd88 O91 2.333 . S
Cd88 O92 2.352 . S
Cd88 O96 2.277 . S
Cd88 O97 2.356 . S
C89 O94 1.209 . S
C89 O96 1.226 . S
O90 Cd86 2.273 . S
O90 Cd88 2.411 . S
O90 C93 1.320 . S
O91 Cd88 2.333 . S
O91 C93 1.214 . S
O92 Cd88 2.352 . S
O92 C95 1.258 . S
C93 O90 1.320 . S
C93 O91 1.214 . S
O94 Cd86 2.277 . S
O94 C89 1.209 . S
C95 O92 1.258 . S
C95 O97 1.282 . S
O96 Cd88 2.277 . S
O96 C89 1.226 . S
O97 Cd88 2.356 . S
O97 C95 1.282 . S
C98 O99 1.306 . S
C98 O101 1.160 . S
O99 C98 1.306 . S
O99 Cd100 2.228 . S
Cd100 O99 2.228 . S
Cd100 O104 2.273 . S
Cd100 O108 2.277 . S
O101 C98 1.160 . S
O101 Cd102 2.203 . S
Cd102 O101 2.203 . S
Cd102 O104 2.411 . S
Cd102 O105 2.333 . S
Cd102 O106 2.352 . S
Cd102 O110 2.277 . S
Cd102 O111 2.356 . S
C103 O108 1.209 . S
C103 O110 1.226 . S
O104 Cd100 2.273 . S
O104 Cd102 2.411 . S
O104 C107 1.320 . S
O105 Cd102 2.333 . S
O105 C107 1.214 . S
O106 Cd102 2.352 . S
O106 C109 1.258 . S
C107 O104 1.320 . S
C107 O105 1.214 . S
O108 Cd100 2.277 . S
O108 C103 1.209 . S
C109 O106 1.258 . S
C109 O111 1.282 . S
O110 Cd102 2.277 . S
O110 C103 1.226 . S
O111 Cd102 2.356 . S
O111 C109 1.282 . S
C112 O113 1.306 . S
C112 O115 1.160 . S
O113 C112 1.306 . S
O113 Cd114 2.228 . S
Cd114 O113 2.228 . S
Cd114 O118 2.273 . S
Cd114 O122 2.277 . S
O115 C112 1.160 . S
O115 Cd116 2.203 . S
Cd116 O115 2.203 . S
Cd116 O118 2.411 . S
Cd116 O119 2.333 . S
Cd116 O120 2.352 . S
Cd116 O124 2.277 . S
Cd116 O125 2.356 . S
C117 O122 1.209 . S
C117 O124 1.226 . S
O118 Cd114 2.273 . S
O118 Cd116 2.411 . S
O118 C121 1.320 . S
O119 Cd116 2.333 . S
O119 C121 1.214 . S
O120 Cd116 2.352 . S
O120 C123 1.258 . S
C121 O118 1.320 . S
C121 O119 1.214 . S
O122 Cd114 2.277 . S
O122 C117 1.209 . S
C123 O120 1.258 . S
C123 O125 1.282 . S
O124 Cd116 2.277 . S
O124 C117 1.226 . S
O125 Cd116 2.356 . S
O125 C123 1.282 . S
C126 O127 1.306 . S
C126 O129 1.160 . S
O127 C126 1.306 . S
O127 Cd128 2.228 . S
Cd128 O127 2.228 . S
Cd128 O132 2.273 . S
Cd128 O136 2.277 . S
O129 C126 1.160 . S
O129 Cd130 2.203 . S
Cd130 O129 2.203 . S
Cd130 O132 2.411 . S
Cd130 O133 2.333 . S
Cd130 O134 2.352 . S
Cd130 O138 2.277 . S
Cd130 O139 2.356 . S
C131 O136 1.209 . S
C131 O138 1.226 . S
O132 Cd128 2.273 . S
O132 Cd130 2.411 . S
O132 C135 1.320 . S
O133 Cd130 2.333 . S
O133 C135 1.214 . S
O134 Cd130 2.352 . S
O134 C137 1.258 . S
C135 O132 1.320 . S
C135 O133 1.214 . S
O136 Cd128 2.277 . S
O136 C131 1.209 . S
C137 O134 1.258 . S
C137 O139 1.282 . S
O138 Cd130 2.277 . S
O138 C131 1.226 . S
O139 Cd130 2.356 . S
O139 C137 1.282 . S
C140 O141 1.306 . S
C140 O143 1.160 . S
O141 C140 1.306 . S
O141 Cd142 2.228 . S
Cd142 O141 2.228 . S
Cd142 O146 2.273 . S
Cd142 O150 2.277 . S
O143 C140 1.160 . S
O143 Cd144 2.203 . S
Cd144 O143 2.203 . S
Cd144 O146 2.411 . S
Cd144 O147 2.333 . S
Cd144 O148 2.352 . S
Cd144 O152 2.277 . S
Cd144 O153 2.356 . S
C145 O150 1.209 . S
C145 O152 1.226 . S
O146 Cd142 2.273 . S
O146 Cd144 2.411 . S
O146 C149 1.320 . S
O147 Cd144 2.333 . S
O147 C149 1.214 . S
O148 Cd144 2.352 . S
O148 C151 1.258 . S
C149 O146 1.320 . S
C149 O147 1.214 . S
O150 Cd142 2.277 . S
O150 C145 1.209 . S
C151 O148 1.258 . S
C151 O153 1.282 . S
O152 Cd144 2.277 . S
O152 C145 1.226 . S
O153 Cd144 2.356 . S
O153 C151 1.282 . S
C154 O155 1.306 . S
C154 O157 1.160 . S
O155 C154 1.306 . S
O155 Cd156 2.228 . S
Cd156 O155 2.228 . S
Cd156 O160 2.273 . S
Cd156 O164 2.277 . S
O157 C154 1.160 . S
O157 Cd158 2.203 . S
Cd158 O157 2.203 . S
Cd158 O160 2.411 . S
Cd158 O161 2.333 . S
Cd158 O162 2.352 . S
Cd158 O166 2.277 . S
Cd158 O167 2.356 . S
C159 O164 1.209 . S
C159 O166 1.226 . S
O160 Cd156 2.273 . S
O160 Cd158 2.411 . S
O160 C163 1.320 . S
O161 Cd158 2.333 . S
O161 C163 1.214 . S
O162 Cd158 2.352 . S
O162 C165 1.258 . S
C163 O160 1.320 . S
C163 O161 1.214 . S
O164 Cd156 2.277 . S
O164 C159 1.209 . S
C165 O162 1.258 . S
C165 O167 1.282 . S
O166 Cd158 2.277 . S
O166 C159 1.226 . S
O167 Cd158 2.356 . S
O167 C165 1.282 . S
H168 C186 0.951 . S
H169 C188 0.951 . S
H170 C190 0.950 . S
H171 C191 0.950 . S
H172 C193 0.950 . S
H173 C196 0.950 . S
H174 C197 0.950 . S
H175 C199 0.950 . S
H176 C200 0.950 . S
H177 C201 0.951 . S
H178 C203 0.951 . S
H179 C205 0.950 . S
H180 C206 0.950 . S
H181 C208 0.950 . S
H182 C211 0.950 . S
H183 C212 0.950 . S
H184 C214 0.950 . S
H185 C215 0.950 . S
C186 H168 0.951 . S
C186 C187 1.366 . S
C186 C188 1.388 . S
C187 C186 1.366 . S
C187 C191 1.385 . S
C188 H169 0.951 . S
C188 C186 1.388 . S
C188 C189 1.366 . S
C189 C188 1.366 . S
C189 C190 1.414 . S
C189 C192 1.499 . S
C190 H170 0.950 . S
C190 C189 1.414 . S
C190 C191 1.374 . S
C191 H171 0.950 . S
C191 C187 1.385 . S
C191 C190 1.374 . S
C192 C189 1.499 . S
C192 C193 1.373 . S
C192 C194 1.389 1_455 S
C193 H172 0.950 . S
C193 C192 1.373 . S
C193 C209 1.377 1_554 S
C194 C192 1.389 1_655 S
C194 C195 1.524 . S
C194 C208 1.377 1_554 S
C195 C194 1.524 . S
C195 C196 1.397 . S
C195 C200 1.363 . S
C196 H173 0.950 . S
C196 C195 1.397 . S
C196 C197 1.334 . S
C197 H174 0.950 . S
C197 C196 1.334 . S
C197 C198 1.287 . S
C198 C197 1.287 . S
C198 C199 1.524 . S
C198 H217 0.913 . S
C199 H175 0.950 . S
C199 C198 1.524 . S
C199 C200 1.415 . S
C200 H176 0.950 . S
C200 C195 1.363 . S
C200 C199 1.415 . S
C201 H177 0.951 . S
C201 C202 1.366 . S
C201 C203 1.388 . S
C202 C201 1.366 . S
C202 C206 1.385 . S
C203 H178 0.951 . S
C203 C201 1.388 . S
C203 C204 1.366 . S
C204 C203 1.366 . S
C204 C205 1.414 . S
C204 C207 1.499 . S
C205 H179 0.950 . S
C205 C204 1.414 . S
C205 C206 1.374 . S
C206 H180 0.950 . S
C206 C202 1.385 . S
C206 C205 1.374 . S
C207 C204 1.499 . S
C207 C208 1.373 . S
C207 C209 1.389 1_655 S
C208 H181 0.950 . S
C208 C194 1.377 1_556 S
C208 C207 1.373 . S
C209 C193 1.377 1_556 S
C209 C207 1.389 1_455 S
C209 C210 1.524 . S
C210 C209 1.524 . S
C210 C211 1.397 . S
C210 C215 1.363 . S
C211 H182 0.950 . S
C211 C210 1.397 . S
C211 C212 1.334 . S
C212 H183 0.950 . S
C212 C211 1.334 . S
C212 C213 1.287 . S
C213 C212 1.287 . S
C213 C214 1.524 . S
C213 H216 0.999 . S
C214 H184 0.950 . S
C214 C213 1.524 . S
C214 C215 1.415 . S
C215 H185 0.950 . S
C215 C210 1.363 . S
C215 C214 1.415 . S
H216 C213 0.999 . S
H217 C198 0.913 . S
H218 C236 0.951 . S
H219 C238 0.951 . S
H220 C240 0.950 . S
H221 C241 0.950 . S
H222 C243 0.950 . S
H223 C246 0.950 . S
H224 C247 0.950 . S
H225 C249 0.950 . S
H226 C250 0.950 . S
H227 C251 0.951 . S
H228 C253 0.951 . S
H229 C255 0.950 . S
H230 C256 0.950 . S
H231 C258 0.950 . S
H232 C261 0.950 . S
H233 C262 0.950 . S
H234 C264 0.950 . S
H235 C265 0.950 . S
C236 H218 0.951 . S
C236 C237 1.366 . S
C236 C238 1.388 . S
C237 C236 1.366 . S
C237 C241 1.385 . S
C238 H219 0.951 . S
C238 C236 1.388 . S
C238 C239 1.366 . S
C239 C238 1.366 . S
C239 C240 1.414 . S
C239 C242 1.499 . S
C240 H220 0.950 . S
C240 C239 1.414 . S
C240 C241 1.374 . S
C241 H221 0.950 . S
C241 C237 1.385 . S
C241 C240 1.374 . S
C242 C239 1.499 . S
C242 C243 1.373 1_565 S
C242 C244 1.389 . S
C243 H222 0.950 . S
C243 C242 1.373 1_545 S
C243 C259 1.377 . S
C244 C242 1.389 . S
C244 C245 1.524 . S
C244 C258 1.377 . S
C245 C244 1.524 . S
C245 C246 1.397 . S
C245 C250 1.363 . S
C246 H223 0.950 . S
C246 C245 1.397 . S
C246 C247 1.334 . S
C247 H224 0.950 . S
C247 C246 1.334 . S
C247 C248 1.287 . S
C248 C247 1.287 . S
C248 C249 1.524 . S
C248 H267 0.913 . S
C249 H225 0.950 . S
C249 C248 1.524 . S
C249 C250 1.415 . S
C250 H226 0.950 . S
C250 C245 1.363 . S
C250 C249 1.415 . S
C251 H227 0.951 . S
C251 C252 1.366 . S
C251 C253 1.388 . S
C252 C251 1.366 . S
C252 C256 1.385 . S
C253 H228 0.951 . S
C253 C251 1.388 . S
C253 C254 1.366 . S
C254 C253 1.366 . S
C254 C255 1.414 . S
C254 C257 1.499 . S
C255 H229 0.950 . S
C255 C254 1.414 . S
C255 C256 1.374 . S
C256 H230 0.950 . S
C256 C252 1.385 . S
C256 C255 1.374 . S
C257 C254 1.499 . S
C257 C258 1.373 1_545 S
C257 C259 1.389 . S
C258 H231 0.950 . S
C258 C244 1.377 . S
C258 C257 1.373 1_565 S
C259 C243 1.377 . S
C259 C257 1.389 . S
C259 C260 1.524 . S
C260 C259 1.524 . S
C260 C261 1.397 . S
C260 C265 1.363 . S
C261 H232 0.950 . S
C261 C260 1.397 . S
C261 C262 1.334 . S
C262 H233 0.950 . S
C262 C261 1.334 . S
C262 C263 1.287 . S
C263 C262 1.287 . S
C263 C264 1.524 . S
C263 H266 0.999 . S
C264 H234 0.950 . S
C264 C263 1.524 . S
C264 C265 1.415 . S
C265 H235 0.950 . S
C265 C260 1.363 . S
C265 C264 1.415 . S
H266 C263 0.999 . S
H267 C248 0.913 . S
H268 C286 0.951 . S
H269 C288 0.951 . S
H270 C290 0.950 . S
H271 C291 0.950 . S
H272 C293 0.950 . S
H273 C296 0.950 . S
H274 C297 0.950 . S
H275 C299 0.950 . S
H276 C300 0.950 1_556 S
H277 C301 0.951 . S
H278 C303 0.951 . S
H279 C305 0.950 . S
H280 C306 0.950 . S
H281 C308 0.950 . S
H282 C311 0.950 . S
H283 C312 0.950 . S
H284 C314 0.950 . S
H285 C315 0.950 1_554 S
C286 H268 0.951 . S
C286 C287 1.366 . S
C286 C288 1.388 . S
C287 C286 1.366 . S
C287 C291 1.385 . S
C288 H269 0.951 . S
C288 C286 1.388 . S
C288 C289 1.366 . S
C289 C288 1.366 . S
C289 C290 1.414 . S
C289 C292 1.499 . S
C290 H270 0.950 . S
C290 C289 1.414 . S
C290 C291 1.374 . S
C291 H271 0.950 . S
C291 C287 1.385 . S
C291 C290 1.374 . S
C292 C289 1.499 . S
C292 C293 1.373 . S
C292 C294 1.389 . S
C293 H272 0.950 . S
C293 C292 1.373 . S
C293 C309 1.377 1_554 S
C294 C292 1.389 . S
C294 C295 1.524 . S
C294 C308 1.377 1_554 S
C295 C294 1.524 . S
C295 C296 1.397 . S
C295 C300 1.363 . S
C296 H273 0.950 . S
C296 C295 1.397 . S
C296 C297 1.334 . S
C297 H274 0.950 . S
C297 C296 1.334 . S
C297 C298 1.287 . S
C298 C297 1.287 . S
C298 C299 1.524 . S
C298 H317 0.913 . S
C299 H275 0.950 . S
C299 C298 1.524 . S
C299 C300 1.415 . S
C300 H276 0.950 1_554 S
C300 C295 1.363 . S
C300 C299 1.415 . S
C301 H277 0.951 . S
C301 C302 1.366 . S
C301 C303 1.388 . S
C302 C301 1.366 . S
C302 C306 1.385 . S
C303 H278 0.951 . S
C303 C301 1.388 . S
C303 C304 1.366 . S
C304 C303 1.366 . S
C304 C305 1.414 . S
C304 C307 1.499 . S
C305 H279 0.950 . S
C305 C304 1.414 . S
C305 C306 1.374 . S
C306 H280 0.950 . S
C306 C302 1.385 . S
C306 C305 1.374 . S
C307 C304 1.499 . S
C307 C308 1.373 . S
C307 C309 1.389 . S
C308 H281 0.950 . S
C308 C294 1.377 1_556 S
C308 C307 1.373 . S
C309 C293 1.377 1_556 S
C309 C307 1.389 . S
C309 C310 1.524 . S
C310 C309 1.524 . S
C310 C311 1.397 . S
C310 C315 1.363 . S
C311 H282 0.950 . S
C311 C310 1.397 . S
C311 C312 1.334 . S
C312 H283 0.950 . S
C312 C311 1.334 . S
C312 C313 1.287 . S
C313 C312 1.287 . S
C313 C314 1.524 . S
C313 H316 0.999 . S
C314 H284 0.950 . S
C314 C313 1.524 . S
C314 C315 1.415 . S
C315 H285 0.950 1_556 S
C315 C310 1.363 . S
C315 C314 1.415 . S
H316 C313 0.999 . S
H317 C298 0.913 . S
H318 C336 0.951 1_655 S
H319 C338 0.938 1_655 S
H320 C340 0.950 . S
H321 C341 0.950 . S
H322 C343 0.950 . S
H323 C346 0.950 . S
H324 C347 0.950 . S
H325 C349 0.950 . S
H326 C350 0.950 . S
H327 C351 0.951 1_455 S
H328 C353 0.938 1_455 S
H329 C355 0.950 . S
H330 C356 0.950 . S
H331 C358 0.950 . S
H332 C361 0.950 . S
H333 C362 0.950 . S
H334 C364 0.950 . S
H335 C365 0.950 . S
C336 H318 0.951 1_455 S
C336 C337 1.366 . S
C336 C338 1.391 . S
C337 C336 1.366 . S
C337 C341 1.385 . S
C338 H319 0.938 1_455 S
C338 C336 1.391 . S
C338 C339 1.375 . S
C339 C338 1.375 . S
C339 C340 1.414 . S
C339 C342 1.499 . S
C340 H320 0.950 . S
C340 C339 1.414 . S
C340 C341 1.374 . S
C341 H321 0.950 . S
C341 C337 1.385 . S
C341 C340 1.374 . S
C342 C339 1.499 . S
C342 C343 1.373 . S
C342 C344 1.389 1_455 S
C343 H322 0.950 . S
C343 C342 1.373 . S
C343 C359 1.377 . S
C344 C342 1.389 1_655 S
C344 C345 1.524 . S
C344 C358 1.377 . S
C345 C344 1.524 . S
C345 C346 1.397 1_655 S
C345 C350 1.363 . S
C346 H323 0.950 . S
C346 C345 1.397 1_455 S
C346 C347 1.334 . S
C347 H324 0.950 . S
C347 C346 1.334 . S
C347 C348 1.287 1_455 S
C348 C347 1.287 1_655 S
C348 C349 1.524 . S
C348 H367 0.913 . S
C349 H325 0.950 . S
C349 C348 1.524 . S
C349 C350 1.415 . S
C350 H326 0.950 . S
C350 C345 1.363 . S
C350 C349 1.415 . S
C351 H327 0.951 1_655 S
C351 C352 1.366 . S
C351 C353 1.391 . S
C352 C351 1.366 . S
C352 C356 1.385 . S
C353 H328 0.938 1_655 S
C353 C351 1.391 . S
C353 C354 1.375 . S
C354 C353 1.375 . S
C354 C355 1.414 . S
C354 C357 1.499 . S
C355 H329 0.950 . S
C355 C354 1.414 . S
C355 C356 1.374 . S
C356 H330 0.950 . S
C356 C352 1.385 . S
C356 C355 1.374 . S
C357 C354 1.499 . S
C357 C358 1.373 . S
C357 C359 1.389 1_655 S
C358 H331 0.950 . S
C358 C344 1.377 . S
C358 C357 1.373 . S
C359 C343 1.377 . S
C359 C357 1.389 1_455 S
C359 C360 1.524 . S
C360 C359 1.524 . S
C360 C361 1.397 1_455 S
C360 C365 1.363 . S
C361 H332 0.950 . S
C361 C360 1.397 1_655 S
C361 C362 1.334 . S
C362 H333 0.950 . S
C362 C361 1.334 . S
C362 C363 1.287 1_655 S
C363 C362 1.287 1_455 S
C363 C364 1.524 . S
C363 H366 0.999 . S
C364 H334 0.950 . S
C364 C363 1.524 . S
C364 C365 1.415 . S
C365 H335 0.950 . S
C365 C360 1.363 . S
C365 C364 1.415 . S
H366 C363 0.999 . S
H367 C348 0.913 . S
H368 C386 0.951 1_565 S
H369 C388 0.956 . S
H370 C390 0.950 . S
H371 C391 0.950 . S
H372 C393 0.950 . S
H373 C396 0.950 1_545 S
H374 C397 0.950 . S
H375 C399 0.950 . S
H376 C400 0.950 . S
H377 C401 0.951 1_545 S
H378 C403 0.956 . S
H379 C405 0.950 . S
H380 C406 0.950 . S
H381 C408 0.950 . S
H382 C411 0.950 1_565 S
H383 C412 0.950 . S
H384 C414 0.950 . S
H385 C415 0.950 . S
C386 H368 0.951 1_545 S
C386 C387 1.366 . S
C386 C388 1.386 1_545 S
C387 C386 1.366 . S
C387 C391 1.385 . S
C388 H369 0.956 . S
C388 C386 1.386 1_565 S
C388 C389 1.362 1_565 S
C389 C388 1.362 1_545 S
C389 C390 1.414 . S
C389 C392 1.499 . S
C390 H370 0.950 . S
C390 C389 1.414 . S
C390 C391 1.374 . S
C391 H371 0.950 . S
C391 C387 1.385 . S
C391 C390 1.374 . S
C392 C389 1.499 . S
C392 C393 1.373 . S
C392 C394 1.389 1_545 S
C393 H372 0.950 . S
C393 C392 1.373 . S
C393 C409 1.377 1_556 S
C394 C392 1.389 1_565 S
C394 C395 1.524 . S
C394 C408 1.377 1_556 S
C395 C394 1.524 . S
C395 C396 1.397 . S
C395 C400 1.363 . S
C396 H373 0.950 1_565 S
C396 C395 1.397 . S
C396 C397 1.334 . S
C397 H374 0.950 . S
C397 C396 1.334 . S
C397 C398 1.287 . S
C398 C397 1.287 . S
C398 C399 1.524 . S
C398 H417 0.913 . S
C399 H375 0.950 . S
C399 C398 1.524 . S
C399 C400 1.415 . S
C400 H376 0.950 . S
C400 C395 1.363 . S
C400 C399 1.415 . S
C401 H377 0.951 1_565 S
C401 C402 1.366 . S
C401 C403 1.386 1_565 S
C402 C401 1.366 . S
C402 C406 1.385 . S
C403 H378 0.956 . S
C403 C401 1.386 1_545 S
C403 C404 1.362 1_545 S
C404 C403 1.362 1_565 S
C404 C405 1.414 . S
C404 C407 1.499 . S
C405 H379 0.950 . S
C405 C404 1.414 . S
C405 C406 1.374 . S
C406 H380 0.950 . S
C406 C402 1.385 . S
C406 C405 1.374 . S
C407 C404 1.499 . S
C407 C408 1.373 . S
C407 C409 1.389 1_565 S
C408 H381 0.950 . S
C408 C394 1.377 1_554 S
C408 C407 1.373 . S
C409 C393 1.377 1_554 S
C409 C407 1.389 1_545 S
C409 C410 1.524 . S
C410 C409 1.524 . S
C410 C411 1.397 . S
C410 C415 1.363 . S
C411 H382 0.950 1_545 S
C411 C410 1.397 . S
C411 C412 1.334 . S
C412 H383 0.950 . S
C412 C411 1.334 . S
C412 C413 1.287 . S
C413 C412 1.287 . S
C413 C414 1.524 . S
C413 H416 0.999 . S
C414 H384 0.950 . S
C414 C413 1.524 . S
C414 C415 1.415 . S
C415 H385 0.950 . S
C415 C410 1.363 . S
C415 C414 1.415 . S
H416 C413 0.999 . S
H417 C398 0.913 . S
H418 C436 0.951 . S
H419 C438 0.951 . S
H420 C440 0.950 . S
H421 C441 0.950 . S
H422 C443 0.950 . S
H423 C446 0.950 . S
H424 C447 0.950 . S
H425 C449 0.950 . S
H426 C450 0.950 . S
H427 C451 0.951 . S
H428 C453 0.951 . S
H429 C455 0.950 . S
H430 C456 0.950 . S
H431 C458 0.950 . S
H432 C461 0.950 . S
H433 C462 0.950 . S
H434 C464 0.950 . S
H435 C465 0.950 . S
C436 H418 0.951 . S
C436 C437 1.366 . S
C436 C438 1.388 . S
C437 C436 1.366 . S
C437 C441 1.385 . S
C438 H419 0.951 . S
C438 C436 1.388 . S
C438 C439 1.366 . S
C439 C438 1.366 . S
C439 C440 1.414 . S
C439 C442 1.499 . S
C440 H420 0.950 . S
C440 C439 1.414 . S
C440 C441 1.374 . S
C441 H421 0.950 . S
C441 C437 1.385 . S
C441 C440 1.374 . S
C442 C439 1.499 . S
C442 C443 1.373 . S
C442 C444 1.389 . S
C443 H422 0.950 . S
C443 C442 1.373 . S
C443 C459 1.377 . S
C444 C442 1.389 . S
C444 C445 1.524 . S
C444 C458 1.377 . S
C445 C444 1.524 . S
C445 C446 1.397 . S
C445 C450 1.363 . S
C446 H423 0.950 . S
C446 C445 1.397 . S
C446 C447 1.334 . S
C447 H424 0.950 . S
C447 C446 1.334 . S
C447 C448 1.287 . S
C448 C447 1.287 . S
C448 C449 1.524 . S
C448 H467 0.913 . S
C449 H425 0.950 . S
C449 C448 1.524 . S
C449 C450 1.415 . S
C450 H426 0.950 . S
C450 C445 1.363 . S
C450 C449 1.415 . S
C451 H427 0.951 . S
C451 C452 1.366 . S
C451 C453 1.388 . S
C452 C451 1.366 . S
C452 C456 1.385 . S
C453 H428 0.951 . S
C453 C451 1.388 . S
C453 C454 1.366 . S
C454 C453 1.366 . S
C454 C455 1.414 . S
C454 C457 1.499 . S
C455 H429 0.950 . S
C455 C454 1.414 . S
C455 C456 1.374 . S
C456 H430 0.950 . S
C456 C452 1.385 . S
C456 C455 1.374 . S
C457 C454 1.499 . S
C457 C458 1.373 . S
C457 C459 1.389 . S
C458 H431 0.950 . S
C458 C444 1.377 . S
C458 C457 1.373 . S
C459 C443 1.377 . S
C459 C457 1.389 . S
C459 C460 1.524 . S
C460 C459 1.524 . S
C460 C461 1.397 . S
C460 C465 1.363 . S
C461 H432 0.950 . S
C461 C460 1.397 . S
C461 C462 1.334 . S
C462 H433 0.950 . S
C462 C461 1.334 . S
C462 C463 1.287 . S
C463 C462 1.287 . S
C463 C464 1.524 . S
C463 H466 0.999 . S
C464 H434 0.950 . S
C464 C463 1.524 . S
C464 C465 1.415 . S
C465 H435 0.950 . S
C465 C460 1.363 . S
C465 C464 1.415 . S
H466 C463 0.999 . S
H467 C448 0.913 . S
H468 C486 0.951 . S
H469 C488 0.951 . S
H470 C490 0.945 1_455 S
H471 C491 0.950 1_455 S
H472 C493 0.950 . S
H473 C496 0.950 . S
H474 C497 0.950 . S
H475 C499 0.950 1_554 S
H476 C500 0.950 . S
H477 C501 0.951 . S
H478 C503 0.951 . S
H479 C505 0.945 1_655 S
H480 C506 0.950 1_655 S
H481 C508 0.950 . S
H482 C511 0.950 . S
H483 C512 0.950 . S
H484 C514 0.950 1_556 S
H485 C515 0.950 . S
C486 H468 0.951 . S
C486 C487 1.366 . S
C486 C488 1.388 . S
C487 C486 1.366 . S
C487 C491 1.385 . S
C488 H469 0.951 . S
C488 C486 1.388 . S
C488 C489 1.366 . S
C489 C488 1.366 . S
C489 C490 1.417 . S
C489 C492 1.499 . S
C490 H470 0.945 1_655 S
C490 C489 1.417 . S
C490 C491 1.376 . S
C491 H471 0.950 1_655 S
C491 C487 1.385 . S
C491 C490 1.376 . S
C492 C489 1.499 . S
C492 C493 1.373 1_655 S
C492 C494 1.389 . S
C493 H472 0.950 . S
C493 C492 1.373 1_455 S
C493 C509 1.377 1_556 S
C494 C492 1.389 . S
C494 C495 1.524 . S
C494 C508 1.377 1_556 S
C495 C494 1.524 . S
C495 C496 1.397 . S
C495 C500 1.363 1_556 S
C496 H473 0.950 . S
C496 C495 1.397 . S
C496 C497 1.334 . S
C497 H474 0.950 . S
C497 C496 1.334 . S
C497 C498 1.287 . S
C498 C497 1.287 . S
C498 C499 1.524 . S
C498 H517 0.913 . S
C499 H475 0.950 1_556 S
C499 C498 1.524 . S
C499 C500 1.415 1_556 S
C500 H476 0.950 . S
C500 C495 1.363 1_554 S
C500 C499 1.415 1_554 S
C501 H477 0.951 . S
C501 C502 1.366 . S
C501 C503 1.388 . S
C502 C501 1.366 . S
C502 C506 1.385 . S
C503 H478 0.951 . S
C503 C501 1.388 . S
C503 C504 1.366 . S
C504 C503 1.366 . S
C504 C505 1.417 . S
C504 C507 1.499 . S
C505 H479 0.945 1_455 S
C505 C504 1.417 . S
C505 C506 1.376 . S
C506 H480 0.950 1_455 S
C506 C502 1.385 . S
C506 C505 1.376 . S
C507 C504 1.499 . S
C507 C508 1.373 1_455 S
C507 C509 1.389 . S
C508 H481 0.950 . S
C508 C494 1.377 1_554 S
C508 C507 1.373 1_655 S
C509 C493 1.377 1_554 S
C509 C507 1.389 . S
C509 C510 1.524 . S
C510 C509 1.524 . S
C510 C511 1.397 . S
C510 C515 1.363 1_554 S
C511 H482 0.950 . S
C511 C510 1.397 . S
C511 C512 1.334 . S
C512 H483 0.950 . S
C512 C511 1.334 . S
C512 C513 1.287 . S
C513 C512 1.287 . S
C513 C514 1.524 . S
C513 H516 0.999 . S
C514 H484 0.950 1_554 S
C514 C513 1.524 . S
C514 C515 1.415 1_554 S
C515 H485 0.950 . S
C515 C510 1.363 1_556 S
C515 C514 1.415 1_556 S
H516 C513 0.999 . S
H517 C498 0.913 . S
H518 C536 0.951 1_545 S
H519 C538 0.917 1_545 S
H520 C540 0.950 . S
H521 C541 0.950 . S
H522 C543 0.950 . S
H523 C546 0.950 . S
H524 C547 0.950 . S
H525 C549 0.950 . S
H526 C550 0.950 . S
H527 C551 0.951 1_565 S
H528 C553 0.917 1_565 S
H529 C555 0.950 . S
H530 C556 0.950 . S
H531 C558 0.950 . S
H532 C561 0.950 . S
H533 C562 0.950 . S
H534 C564 0.950 . S
H535 C565 0.950 . S
C536 H518 0.951 1_565 S
C536 C537 1.366 . S
C536 C538 1.397 . S
C537 C536 1.366 . S
C537 C541 1.385 . S
C538 H519 0.917 1_565 S
C538 C536 1.397 . S
C538 C539 1.390 . S
C539 C538 1.390 . S
C539 C540 1.414 . S
C539 C542 1.499 . S
C540 H520 0.950 . S
C540 C539 1.414 . S
C540 C541 1.374 . S
C541 H521 0.950 . S
C541 C537 1.385 . S
C541 C540 1.374 . S
C542 C539 1.499 . S
C542 C543 1.373 . S
C542 C544 1.389 1_565 S
C543 H522 0.950 . S
C543 C542 1.373 . S
C543 C559 1.377 . S
C544 C542 1.389 1_545 S
C544 C545 1.524 . S
C544 C558 1.377 . S
C545 C544 1.524 . S
C545 C546 1.397 . S
C545 C550 1.363 . S
C546 H523 0.950 . S
C546 C545 1.397 . S
C546 C547 1.334 . S
C547 H524 0.950 . S
C547 C546 1.334 . S
C547 C548 1.287 . S
C548 C547 1.287 . S
C548 C549 1.524 . S
C548 H567 0.913 . S
C549 H525 0.950 . S
C549 C548 1.524 . S
C549 C550 1.415 . S
C550 H526 0.950 . S
C550 C545 1.363 . S
C550 C549 1.415 . S
C551 H527 0.951 1_545 S
C551 C552 1.366 . S
C551 C553 1.397 . S
C552 C551 1.366 . S
C552 C556 1.385 . S
C553 H528 0.917 1_545 S
C553 C551 1.397 . S
C553 C554 1.390 . S
C554 C553 1.390 . S
C554 C555 1.414 . S
C554 C557 1.499 . S
C555 H529 0.950 . S
C555 C554 1.414 . S
C555 C556 1.374 . S
C556 H530 0.950 . S
C556 C552 1.385 . S
C556 C555 1.374 . S
C557 C554 1.499 . S
C557 C558 1.373 . S
C557 C559 1.389 1_545 S
C558 H531 0.950 . S
C558 C544 1.377 . S
C558 C557 1.373 . S
C559 C543 1.377 . S
C559 C557 1.389 1_565 S
C559 C560 1.524 . S
C560 C559 1.524 . S
C560 C561 1.397 . S
C560 C565 1.363 . S
C561 H532 0.950 . S
C561 C560 1.397 . S
C561 C562 1.334 . S
C562 H533 0.950 . S
C562 C561 1.334 . S
C562 C563 1.287 . S
C563 C562 1.287 . S
C563 C564 1.524 . S
C563 H566 0.999 . S
C564 H534 0.950 . S
C564 C563 1.524 . S
C564 C565 1.415 . S
C565 H535 0.950 . S
C565 C560 1.363 . S
C565 C564 1.415 . S
H566 C563 0.999 . S
H567 C548 0.913 . S
H568 C586 0.951 . S
H569 C588 0.951 . S
H570 C590 0.950 . S
H571 C591 0.950 . S
H572 C593 0.950 . S
H573 C596 0.950 . S
H574 C597 0.950 . S
H575 C599 0.950 . S
H576 C600 0.950 1_554 S
H577 C601 0.951 . S
H578 C603 0.951 . S
H579 C605 0.950 . S
H580 C606 0.950 . S
H581 C608 0.950 . S
H582 C611 0.950 . S
H583 C612 0.950 . S
H584 C614 0.950 . S
H585 C615 0.950 1_556 S
C586 H568 0.951 . S
C586 C587 1.366 . S
C586 C588 1.388 . S
C587 C586 1.366 . S
C587 C591 1.385 . S
C588 H569 0.951 . S
C588 C586 1.388 . S
C588 C589 1.366 . S
C589 C588 1.366 . S
C589 C590 1.414 . S
C589 C592 1.499 . S
C590 H570 0.950 . S
C590 C589 1.414 . S
C590 C591 1.374 . S
C591 H571 0.950 . S
C591 C587 1.385 . S
C591 C590 1.374 . S
C592 C589 1.499 . S
C592 C593 1.373 . S
C592 C594 1.389 . S
C593 H572 0.950 . S
C593 C592 1.373 . S
C593 C609 1.377 1_556 S
C594 C592 1.389 . S
C594 C595 1.524 . S
C594 C608 1.377 1_556 S
C595 C594 1.524 . S
C595 C596 1.397 . S
C595 C600 1.363 . S
C596 H573 0.950 . S
C596 C595 1.397 . S
C596 C597 1.334 . S
C597 H574 0.950 . S
C597 C596 1.334 . S
C597 C598 1.287 . S
C598 C597 1.287 . S
C598 C599 1.524 . S
C598 H617 0.913 . S
C599 H575 0.950 . S
C599 C598 1.524 . S
C599 C600 1.415 . S
C600 H576 0.950 1_556 S
C600 C595 1.363 . S
C600 C599 1.415 . S
C601 H577 0.951 . S
C601 C602 1.366 . S
C601 C603 1.388 . S
C602 C601 1.366 . S
C602 C606 1.385 . S
C603 H578 0.951 . S
C603 C601 1.388 . S
C603 C604 1.366 . S
C604 C603 1.366 . S
C604 C605 1.414 . S
C604 C607 1.499 . S
C605 H579 0.950 . S
C605 C604 1.414 . S
C605 C606 1.374 . S
C606 H580 0.950 . S
C606 C602 1.385 . S
C606 C605 1.374 . S
C607 C604 1.499 . S
C607 C608 1.373 . S
C607 C609 1.389 . S
C608 H581 0.950 . S
C608 C594 1.377 1_554 S
C608 C607 1.373 . S
C609 C593 1.377 1_554 S
C609 C607 1.389 . S
C609 C610 1.524 . S
C610 C609 1.524 . S
C610 C611 1.397 . S
C610 C615 1.363 . S
C611 H582 0.950 . S
C611 C610 1.397 . S
C611 C612 1.334 . S
C612 H583 0.950 . S
C612 C611 1.334 . S
C612 C613 1.287 . S
C613 C612 1.287 . S
C613 C614 1.524 . S
C613 H616 0.999 . S
C614 H584 0.950 . S
C614 C613 1.524 . S
C614 C615 1.415 . S
C615 H585 0.950 1_554 S
C615 C610 1.363 . S
C615 C614 1.415 . S
H616 C613 0.999 . S
H617 C598 0.913 . S
H618 C636 0.951 1_455 S
H619 C638 0.951 . S
H620 C640 0.950 . S
H621 C641 0.950 . S
H622 C643 0.950 . S
H623 C646 0.937 1_655 S
H624 C647 0.950 1_655 S
H625 C649 0.950 . S
H626 C650 0.950 . S
H627 C651 0.951 1_655 S
H628 C653 0.951 . S
H629 C655 0.950 . S
H630 C656 0.950 . S
H631 C658 0.950 . S
H632 C661 0.937 1_455 S
H633 C662 0.950 1_455 S
H634 C664 0.950 . S
H635 C665 0.950 . S
C636 H618 0.951 1_655 S
C636 C637 1.366 . S
C636 C638 1.388 1_655 S
C637 C636 1.366 . S
C637 C641 1.385 . S
C638 H619 0.951 . S
C638 C636 1.388 1_455 S
C638 C639 1.366 1_455 S
C639 C638 1.366 1_655 S
C639 C640 1.414 . S
C639 C642 1.499 . S
C640 H620 0.950 . S
C640 C639 1.414 . S
C640 C641 1.374 . S
C641 H621 0.950 . S
C641 C637 1.385 . S
C641 C640 1.374 . S
C642 C639 1.499 . S
C642 C643 1.373 . S
C642 C644 1.389 1_655 S
C643 H622 0.950 . S
C643 C642 1.373 . S
C643 C659 1.377 . S
C644 C642 1.389 1_455 S
C644 C645 1.524 . S
C644 C658 1.377 . S
C645 C644 1.524 . S
C645 C646 1.412 . S
C645 C650 1.363 . S
C646 H623 0.937 1_455 S
C646 C645 1.412 . S
C646 C647 1.331 . S
C647 H624 0.950 1_455 S
C647 C646 1.331 . S
C647 C648 1.287 . S
C648 C647 1.287 . S
C648 C649 1.524 . S
C648 H667 0.913 . S
C649 H625 0.950 . S
C649 C648 1.524 . S
C649 C650 1.415 . S
C650 H626 0.950 . S
C650 C645 1.363 . S
C650 C649 1.415 . S
C651 H627 0.951 1_455 S
C651 C652 1.366 . S
C651 C653 1.388 1_455 S
C652 C651 1.366 . S
C652 C656 1.385 . S
C653 H628 0.951 . S
C653 C651 1.388 1_655 S
C653 C654 1.366 1_655 S
C654 C653 1.366 1_455 S
C654 C655 1.414 . S
C654 C657 1.499 . S
C655 H629 0.950 . S
C655 C654 1.414 . S
C655 C656 1.374 . S
C656 H630 0.950 . S
C656 C652 1.385 . S
C656 C655 1.374 . S
C657 C654 1.499 . S
C657 C658 1.373 . S
C657 C659 1.389 1_455 S
C658 H631 0.950 . S
C658 C644 1.377 . S
C658 C657 1.373 . S
C659 C643 1.377 . S
C659 C657 1.389 1_655 S
C659 C660 1.524 . S
C660 C659 1.524 . S
C660 C661 1.412 . S
C660 C665 1.363 . S
C661 H632 0.937 1_655 S
C661 C660 1.412 . S
C661 C662 1.331 . S
C662 H633 0.950 1_655 S
C662 C661 1.331 . S
C662 C663 1.287 . S
C663 C662 1.287 . S
C663 C664 1.524 . S
C663 H666 0.999 . S
C664 H634 0.950 . S
C664 C663 1.524 . S
C664 C665 1.415 . S
C665 H635 0.950 . S
C665 C660 1.363 . S
C665 C664 1.415 . S
H666 C663 0.999 . S
H667 C648 0.913 . S
H668 C686 0.951 . S
H669 C688 0.951 1_565 S
H670 C690 0.950 . S
H671 C691 0.950 . S
H672 C693 0.950 . S
H673 C696 0.950 . S
H674 C697 0.950 . S
H675 C699 0.950 . S
H676 C700 0.950 . S
H677 C701 0.951 . S
H678 C703 0.951 1_545 S
H679 C705 0.950 . S
H680 C706 0.950 . S
H681 C708 0.950 . S
H682 C711 0.950 . S
H683 C712 0.950 . S
H684 C714 0.950 . S
H685 C715 0.950 . S
C686 H668 0.951 . S
C686 C687 1.366 . S
C686 C688 1.388 . S
C687 C686 1.366 . S
C687 C691 1.385 . S
C688 H669 0.951 1_545 S
C688 C686 1.388 . S
C688 C689 1.366 . S
C689 C688 1.366 . S
C689 C690 1.414 . S
C689 C692 1.499 . S
C690 H670 0.950 . S
C690 C689 1.414 . S
C690 C691 1.374 . S
C691 H671 0.950 . S
C691 C687 1.385 . S
C691 C690 1.374 . S
C692 C689 1.499 . S
C692 C693 1.373 . S
C692 C694 1.389 1_545 S
C693 H672 0.950 . S
C693 C692 1.373 . S
C693 C709 1.377 1_556 S
C694 C692 1.389 1_565 S
C694 C695 1.524 . S
C694 C708 1.377 1_556 S
C695 C694 1.524 . S
C695 C696 1.397 . S
C695 C700 1.363 . S
C696 H673 0.950 . S
C696 C695 1.397 . S
C696 C697 1.334 . S
C697 H674 0.950 . S
C697 C696 1.334 . S
C697 C698 1.287 . S
C698 C697 1.287 . S
C698 C699 1.524 . S
C698 H717 0.913 . S
C699 H675 0.950 . S
C699 C698 1.524 . S
C699 C700 1.415 . S
C700 H676 0.950 . S
C700 C695 1.363 . S
C700 C699 1.415 . S
C701 H677 0.951 . S
C701 C702 1.366 . S
C701 C703 1.388 . S
C702 C701 1.366 . S
C702 C706 1.385 . S
C703 H678 0.951 1_565 S
C703 C701 1.388 . S
C703 C704 1.366 . S
C704 C703 1.366 . S
C704 C705 1.414 . S
C704 C707 1.499 . S
C705 H679 0.950 . S
C705 C704 1.414 . S
C705 C706 1.374 . S
C706 H680 0.950 . S
C706 C702 1.385 . S
C706 C705 1.374 . S
C707 C704 1.499 . S
C707 C708 1.373 . S
C707 C709 1.389 1_565 S
C708 H681 0.950 . S
C708 C694 1.377 1_554 S
C708 C707 1.373 . S
C709 C693 1.377 1_554 S
C709 C707 1.389 1_545 S
C709 C710 1.524 . S
C710 C709 1.524 . S
C710 C711 1.397 . S
C710 C715 1.363 . S
C711 H682 0.950 . S
C711 C710 1.397 . S
C711 C712 1.334 . S
C712 H683 0.950 . S
C712 C711 1.334 . S
C712 C713 1.287 . S
C713 C712 1.287 . S
C713 C714 1.524 . S
C713 H716 0.999 . S
C714 H684 0.950 . S
C714 C713 1.524 . S
C714 C715 1.415 . S
C715 H685 0.950 . S
C715 C710 1.363 . S
C715 C714 1.415 . S
H716 C713 0.999 . S
H717 C698 0.913 . S
H718 C736 0.951 . S
H719 C738 0.951 . S
H720 C740 0.950 . S
H721 C741 0.950 . S
H722 C743 0.950 . S
H723 C746 0.950 . S
H724 C747 0.950 . S
H725 C749 0.950 . S
H726 C750 0.950 . S
H727 C751 0.951 . S
H728 C753 0.951 . S
H729 C755 0.950 . S
H730 C756 0.950 . S
H731 C758 0.950 . S
H732 C761 0.950 . S
H733 C762 0.950 . S
H734 C764 0.950 . S
H735 C765 0.950 . S
C736 H718 0.951 . S
C736 C737 1.366 . S
C736 C738 1.388 . S
C737 C736 1.366 . S
C737 C741 1.385 . S
C738 H719 0.951 . S
C738 C736 1.388 . S
C738 C739 1.366 . S
C739 C738 1.366 . S
C739 C740 1.414 . S
C739 C742 1.499 . S
C740 H720 0.950 . S
C740 C739 1.414 . S
C740 C741 1.374 . S
C741 H721 0.950 . S
C741 C737 1.385 . S
C741 C740 1.374 . S
C742 C739 1.499 . S
C742 C743 1.373 . S
C742 C744 1.389 . S
C743 H722 0.950 . S
C743 C742 1.373 . S
C743 C759 1.377 . S
C744 C742 1.389 . S
C744 C745 1.524 . S
C744 C758 1.377 . S
C745 C744 1.524 . S
C745 C746 1.397 . S
C745 C750 1.363 . S
C746 H723 0.950 . S
C746 C745 1.397 . S
C746 C747 1.334 . S
C747 H724 0.950 . S
C747 C746 1.334 . S
C747 C748 1.287 . S
C748 C747 1.287 . S
C748 C749 1.524 . S
C748 H767 0.913 . S
C749 H725 0.950 . S
C749 C748 1.524 . S
C749 C750 1.415 . S
C750 H726 0.950 . S
C750 C745 1.363 . S
C750 C749 1.415 . S
C751 H727 0.951 . S
C751 C752 1.366 . S
C751 C753 1.388 . S
C752 C751 1.366 . S
C752 C756 1.385 . S
C753 H728 0.951 . S
C753 C751 1.388 . S
C753 C754 1.366 . S
C754 C753 1.366 . S
C754 C755 1.414 . S
C754 C757 1.499 . S
C755 H729 0.950 . S
C755 C754 1.414 . S
C755 C756 1.374 . S
C756 H730 0.950 . S
C756 C752 1.385 . S
C756 C755 1.374 . S
C757 C754 1.499 . S
C757 C758 1.373 . S
C757 C759 1.389 . S
C758 H731 0.950 . S
C758 C744 1.377 . S
C758 C757 1.373 . S
C759 C743 1.377 . S
C759 C757 1.389 . S
C759 C760 1.524 . S
C760 C759 1.524 . S
C760 C761 1.397 . S
C760 C765 1.363 . S
C761 H732 0.950 . S
C761 C760 1.397 . S
C761 C762 1.334 . S
C762 H733 0.950 . S
C762 C761 1.334 . S
C762 C763 1.287 . S
C763 C762 1.287 . S
C763 C764 1.524 . S
C763 H766 0.999 . S
C764 H734 0.950 . S
C764 C763 1.524 . S
C764 C765 1.415 . S
C765 H735 0.950 . S
C765 C760 1.363 . S
C765 C764 1.415 . S
H766 C763 0.999 . S
H767 C748 0.913 . S
H768 C786 0.951 . S
H769 C788 0.951 . S
H770 C790 0.950 . S
H771 C791 0.950 . S
H772 C793 0.950 . S
H773 C796 0.950 . S
H774 C797 0.950 . S
H775 C799 0.950 . S
H776 C800 0.950 . S
H777 C801 0.951 . S
H778 C803 0.951 . S
H779 C805 0.950 . S
H780 C806 0.950 . S
H781 C808 0.950 . S
H782 C811 0.950 1_455 S
H783 C812 0.950 . S
H784 C814 0.950 . S
H785 C815 0.950 . S
C786 H768 0.951 . S
C786 C787 1.366 . S
C786 C788 1.388 . S
C787 C786 1.366 . S
C787 C791 1.385 . S
C788 H769 0.951 . S
C788 C786 1.388 . S
C788 C789 1.366 . S
C789 C788 1.366 . S
C789 C790 1.414 . S
C789 C792 1.499 . S
C790 H770 0.950 . S
C790 C789 1.414 . S
C790 C791 1.374 . S
C791 H771 0.950 . S
C791 C787 1.385 . S
C791 C790 1.374 . S
C792 C789 1.499 . S
C792 C793 1.373 . S
C792 C794 1.389 . S
C793 H772 0.950 . S
C793 C792 1.373 . S
C793 C809 1.377 . S
C794 C792 1.389 . S
C794 C795 1.524 . S
C794 C808 1.377 . S
C795 C794 1.524 . S
C795 C796 1.397 . S
C795 C800 1.363 . S
C796 H773 0.950 . S
C796 C795 1.397 . S
C796 C797 1.334 . S
C797 H774 0.950 . S
C797 C796 1.334 . S
C797 C798 1.287 . S
C798 C797 1.287 . S
C798 C799 1.524 . S
C798 H817 0.913 . S
C799 H775 0.950 . S
C799 C798 1.524 . S
C799 C800 1.415 . S
C800 H776 0.950 . S
C800 C795 1.363 . S
C800 C799 1.415 . S
C801 H777 0.951 . S
C801 C802 1.366 . S
C801 C803 1.388 . S
C802 C801 1.366 . S
C802 C806 1.385 . S
C803 H778 0.951 . S
C803 C801 1.388 . S
C803 C804 1.366 . S
C804 C803 1.366 . S
C804 C805 1.414 . S
C804 C807 1.499 . S
C805 H779 0.950 . S
C805 C804 1.414 . S
C805 C806 1.374 . S
C806 H780 0.950 . S
C806 C802 1.385 . S
C806 C805 1.374 . S
C807 C804 1.499 . S
C807 C808 1.373 . S
C807 C809 1.389 . S
C808 H781 0.950 . S
C808 C794 1.377 . S
C808 C807 1.373 . S
C809 C793 1.377 . S
C809 C807 1.389 . S
C809 C810 1.524 . S
C810 C809 1.524 . S
C810 C811 1.397 1_455 S
C810 C815 1.363 . S
C811 H782 0.950 1_655 S
C811 C810 1.397 1_655 S
C811 C812 1.334 . S
C812 H783 0.950 . S
C812 C811 1.334 . S
C812 C813 1.287 . S
C813 C812 1.287 . S
C813 C814 1.524 . S
C813 H816 0.999 . S
C814 H784 0.950 . S
C814 C813 1.524 . S
C814 C815 1.415 1_655 S
C815 H785 0.950 . S
C815 C810 1.363 . S
C815 C814 1.415 1_455 S
H816 C813 0.999 . S
H817 C798 0.913 . S
H818 C836 0.951 . S
H819 C838 0.951 . S
H820 C840 0.950 . S
H821 C841 0.950 . S
H822 C843 0.950 . S
H823 C846 0.950 . S
H824 C847 0.950 . S
H825 C849 0.950 . S
H826 C850 0.950 . S
H827 C851 0.951 . S
H828 C853 0.951 . S
H829 C855 0.950 . S
H830 C856 0.950 . S
H831 C858 0.950 . S
H832 C861 0.950 . S
H833 C862 0.950 . S
H834 C864 0.950 . S
H835 C865 0.950 . S
C836 H818 0.951 . S
C836 C837 1.366 . S
C836 C838 1.388 . S
C837 C836 1.366 . S
C837 C841 1.385 . S
C838 H819 0.951 . S
C838 C836 1.388 . S
C838 C839 1.366 . S
C839 C838 1.366 . S
C839 C840 1.414 . S
C839 C842 1.499 . S
C840 H820 0.950 . S
C840 C839 1.414 . S
C840 C841 1.374 . S
C841 H821 0.950 . S
C841 C837 1.385 . S
C841 C840 1.374 . S
C842 C839 1.499 . S
C842 C843 1.373 . S
C842 C844 1.389 . S
C843 H822 0.950 . S
C843 C842 1.373 . S
C843 C859 1.377 . S
C844 C842 1.389 . S
C844 C845 1.524 . S
C844 C858 1.377 . S
C845 C844 1.524 . S
C845 C846 1.397 . S
C845 C850 1.363 . S
C846 H823 0.950 . S
C846 C845 1.397 . S
C846 C847 1.334 . S
C847 H824 0.950 . S
C847 C846 1.334 . S
C847 C848 1.287 . S
C848 C847 1.287 . S
C848 C849 1.524 . S
C848 H867 0.913 . S
C849 H825 0.950 . S
C849 C848 1.524 . S
C849 C850 1.415 . S
C850 H826 0.950 . S
C850 C845 1.363 . S
C850 C849 1.415 . S
C851 H827 0.951 . S
C851 C852 1.366 . S
C851 C853 1.388 . S
C852 C851 1.366 . S
C852 C856 1.385 . S
C853 H828 0.951 . S
C853 C851 1.388 . S
C853 C854 1.366 . S
C854 C853 1.366 . S
C854 C855 1.414 . S
C854 C857 1.499 . S
C855 H829 0.950 . S
C855 C854 1.414 . S
C855 C856 1.374 . S
C856 H830 0.950 . S
C856 C852 1.385 . S
C856 C855 1.374 . S
C857 C854 1.499 . S
C857 C858 1.373 . S
C857 C859 1.389 . S
C858 H831 0.950 . S
C858 C844 1.377 . S
C858 C857 1.373 . S
C859 C843 1.377 . S
C859 C857 1.389 . S
C859 C860 1.524 . S
C860 C859 1.524 . S
C860 C861 1.397 . S
C860 C865 1.363 . S
C861 H832 0.950 . S
C861 C860 1.397 . S
C861 C862 1.334 1_545 S
C862 H833 0.950 . S
C862 C861 1.334 1_565 S
C862 C863 1.287 . S
C863 C862 1.287 . S
C863 C864 1.524 1_565 S
C863 H866 0.999 . S
C864 H834 0.950 . S
C864 C863 1.524 1_545 S
C864 C865 1.415 . S
C865 H835 0.950 . S
C865 C860 1.363 . S
C865 C864 1.415 . S
H866 C863 0.999 . S
H867 C848 0.913 . S
H868 C886 0.951 . S
H869 C888 0.951 . S
H870 C890 0.950 . S
H871 C891 0.950 . S
H872 C893 0.950 . S
H873 C896 0.950 . S
H874 C897 0.950 . S
H875 C899 0.950 . S
H876 C900 0.950 . S
H877 C901 0.951 . S
H878 C903 0.951 . S
H879 C905 0.950 . S
H880 C906 0.950 . S
H881 C908 0.950 . S
H882 C911 0.950 . S
H883 C912 0.950 . S
H884 C914 0.950 . S
H885 C915 0.950 . S
C886 H868 0.951 . S
C886 C887 1.366 . S
C886 C888 1.388 . S
C887 C886 1.366 . S
C887 C891 1.385 . S
C888 H869 0.951 . S
C888 C886 1.388 . S
C888 C889 1.366 . S
C889 C888 1.366 . S
C889 C890 1.414 . S
C889 C892 1.499 . S
C890 H870 0.950 . S
C890 C889 1.414 . S
C890 C891 1.374 . S
C891 H871 0.950 . S
C891 C887 1.385 . S
C891 C890 1.374 . S
C892 C889 1.499 . S
C892 C893 1.373 . S
C892 C894 1.389 . S
C893 H872 0.950 . S
C893 C892 1.373 . S
C893 C909 1.377 . S
C894 C892 1.389 . S
C894 C895 1.524 . S
C894 C908 1.377 . S
C895 C894 1.524 . S
C895 C896 1.397 . S
C895 C900 1.363 . S
C896 H873 0.950 . S
C896 C895 1.397 . S
C896 C897 1.334 . S
C897 H874 0.950 . S
C897 C896 1.334 . S
C897 C898 1.287 . S
C898 C897 1.287 . S
C898 C899 1.524 . S
C898 H917 0.913 . S
C899 H875 0.950 . S
C899 C898 1.524 . S
C899 C900 1.415 . S
C900 H876 0.950 . S
C900 C895 1.363 . S
C900 C899 1.415 . S
C901 H877 0.951 . S
C901 C902 1.366 . S
C901 C903 1.388 . S
C902 C901 1.366 . S
C902 C906 1.385 . S
C903 H878 0.951 . S
C903 C901 1.388 . S
C903 C904 1.366 . S
C904 C903 1.366 . S
C904 C905 1.414 . S
C904 C907 1.499 . S
C905 H879 0.950 . S
C905 C904 1.414 . S
C905 C906 1.374 . S
C906 H880 0.950 . S
C906 C902 1.385 . S
C906 C905 1.374 . S
C907 C904 1.499 . S
C907 C908 1.373 . S
C907 C909 1.389 . S
C908 H881 0.950 . S
C908 C894 1.377 . S
C908 C907 1.373 . S
C909 C893 1.377 . S
C909 C907 1.389 . S
C909 C910 1.524 . S
C910 C909 1.524 . S
C910 C911 1.397 . S
C910 C915 1.363 . S
C911 H882 0.950 . S
C911 C910 1.397 . S
C911 C912 1.334 . S
C912 H883 0.950 . S
C912 C911 1.334 . S
C912 C913 1.287 . S
C913 C912 1.287 . S
C913 C914 1.524 . S
C913 H916 0.999 . S
C914 H884 0.950 . S
C914 C913 1.524 . S
C914 C915 1.415 . S
C915 H885 0.950 . S
C915 C910 1.363 . S
C915 C914 1.415 . S
H916 C913 0.999 . S
H917 C898 0.913 . S
H918 C936 0.951 . S
H919 C938 0.951 . S
H920 C940 0.950 . S
H921 C941 0.950 . S
H922 C943 0.950 . S
H923 C946 0.950 . S
H924 C947 0.950 . S
H925 C949 0.950 . S
H926 C950 0.950 . S
H927 C951 0.951 . S
H928 C953 0.951 . S
H929 C955 0.950 . S
H930 C956 0.950 . S
H931 C958 0.950 . S
H932 C961 0.950 . S
H933 C962 0.950 . S
H934 C964 0.950 . S
H935 C965 0.950 . S
C936 H918 0.951 . S
C936 C937 1.366 . S
C936 C938 1.388 . S
C937 C936 1.366 . S
C937 C941 1.385 . S
C938 H919 0.951 . S
C938 C936 1.388 . S
C938 C939 1.366 . S
C939 C938 1.366 . S
C939 C940 1.414 . S
C939 C942 1.499 . S
C940 H920 0.950 . S
C940 C939 1.414 . S
C940 C941 1.374 . S
C941 H921 0.950 . S
C941 C937 1.385 . S
C941 C940 1.374 . S
C942 C939 1.499 . S
C942 C943 1.373 . S
C942 C944 1.389 . S
C943 H922 0.950 . S
C943 C942 1.373 . S
C943 C959 1.377 . S
C944 C942 1.389 . S
C944 C945 1.524 . S
C944 C958 1.377 . S
C945 C944 1.524 . S
C945 C946 1.397 . S
C945 C950 1.363 . S
C946 H923 0.950 . S
C946 C945 1.397 . S
C946 C947 1.334 . S
C947 H924 0.950 . S
C947 C946 1.334 . S
C947 C948 1.287 . S
C948 C947 1.287 . S
C948 C949 1.524 . S
C948 H967 0.913 . S
C949 H925 0.950 . S
C949 C948 1.524 . S
C949 C950 1.415 . S
C950 H926 0.950 . S
C950 C945 1.363 . S
C950 C949 1.415 . S
C951 H927 0.951 . S
C951 C952 1.366 . S
C951 C953 1.388 . S
C952 C951 1.366 . S
C952 C956 1.385 . S
C953 H928 0.951 . S
C953 C951 1.388 . S
C953 C954 1.366 . S
C954 C953 1.366 . S
C954 C955 1.414 . S
C954 C957 1.499 . S
C955 H929 0.950 . S
C955 C954 1.414 . S
C955 C956 1.374 . S
C956 H930 0.950 . S
C956 C952 1.385 . S
C956 C955 1.374 . S
C957 C954 1.499 . S
C957 C958 1.373 . S
C957 C959 1.389 . S
C958 H931 0.950 . S
C958 C944 1.377 . S
C958 C957 1.373 . S
C959 C943 1.377 . S
C959 C957 1.389 . S
C959 C960 1.524 . S
C960 C959 1.524 . S
C960 C961 1.397 . S
C960 C965 1.363 . S
C961 H932 0.950 . S
C961 C960 1.397 . S
C961 C962 1.334 . S
C962 H933 0.950 . S
C962 C961 1.334 . S
C962 C963 1.287 . S
C963 C962 1.287 . S
C963 C964 1.524 . S
C963 H966 0.999 . S
C964 H934 0.950 . S
C964 C963 1.524 . S
C964 C965 1.415 . S
C965 H935 0.950 . S
C965 C960 1.363 . S
C965 C964 1.415 . S
H966 C963 0.999 . S
H967 C948 0.913 . S
H968 C986 0.951 . S
H969 C988 0.951 . S
H970 C990 0.950 . S
H971 C991 0.950 . S
H972 C993 0.950 . S
H973 C996 0.950 . S
H974 C997 0.950 . S
H975 C999 0.950 . S
H976 C1000 0.950 . S
H977 C1001 0.951 . S
H978 C1003 0.951 . S
H979 C1005 0.950 . S
H980 C1006 0.950 . S
H981 C1008 0.950 . S
H982 C1011 0.950 . S
H983 C1012 0.950 . S
H984 C1014 0.950 . S
H985 C1015 0.950 . S
C986 H968 0.951 . S
C986 C987 1.366 . S
C986 C988 1.388 . S
C987 C986 1.366 . S
C987 C991 1.385 . S
C988 H969 0.951 . S
C988 C986 1.388 . S
C988 C989 1.366 . S
C989 C988 1.366 . S
C989 C990 1.414 . S
C989 C992 1.499 . S
C990 H970 0.950 . S
C990 C989 1.414 . S
C990 C991 1.374 . S
C991 H971 0.950 . S
C991 C987 1.385 . S
C991 C990 1.374 . S
C992 C989 1.499 . S
C992 C993 1.373 . S
C992 C994 1.389 . S
C993 H972 0.950 . S
C993 C992 1.373 . S
C993 C1009 1.377 . S
C994 C992 1.389 . S
C994 C995 1.524 . S
C994 C1008 1.377 . S
C995 C994 1.524 . S
C995 C996 1.397 . S
C995 C1000 1.363 1_565 S
C996 H973 0.950 . S
C996 C995 1.397 . S
C996 C997 1.334 1_565 S
C997 H974 0.950 . S
C997 C996 1.334 1_545 S
C997 C998 1.287 . S
C998 C997 1.287 . S
C998 C999 1.524 . S
C998 H1017 0.913 . S
C999 H975 0.950 . S
C999 C998 1.524 . S
C999 C1000 1.415 . S
C1000 H976 0.950 . S
C1000 C995 1.363 1_545 S
C1000 C999 1.415 . S
C1001 H977 0.951 . S
C1001 C1002 1.366 . S
C1001 C1003 1.388 . S
C1002 C1001 1.366 . S
C1002 C1006 1.385 . S
C1003 H978 0.951 . S
C1003 C1001 1.388 . S
C1003 C1004 1.366 . S
C1004 C1003 1.366 . S
C1004 C1005 1.414 . S
C1004 C1007 1.499 . S
C1005 H979 0.950 . S
C1005 C1004 1.414 . S
C1005 C1006 1.374 . S
C1006 H980 0.950 . S
C1006 C1002 1.385 . S
C1006 C1005 1.374 . S
C1007 C1004 1.499 . S
C1007 C1008 1.373 . S
C1007 C1009 1.389 . S
C1008 H981 0.950 . S
C1008 C994 1.377 . S
C1008 C1007 1.373 . S
C1009 C993 1.377 . S
C1009 C1007 1.389 . S
C1009 C1010 1.524 . S
C1010 C1009 1.524 . S
C1010 C1011 1.397 . S
C1010 C1015 1.363 . S
C1011 H982 0.950 . S
C1011 C1010 1.397 . S
C1011 C1012 1.334 . S
C1012 H983 0.950 . S
C1012 C1011 1.334 . S
C1012 C1013 1.287 . S
C1013 C1012 1.287 . S
C1013 C1014 1.524 . S
C1013 H1016 0.999 . S
C1014 H984 0.950 . S
C1014 C1013 1.524 . S
C1014 C1015 1.415 . S
C1015 H985 0.950 . S
C1015 C1010 1.363 . S
C1015 C1014 1.415 . S
H1016 C1013 0.999 . S
H1017 C998 0.913 . S
H1018 C1036 0.951 . S
H1019 C1038 0.951 . S
H1020 C1040 0.950 . S
H1021 C1041 0.950 . S
H1022 C1043 0.950 . S
H1023 C1046 0.950 . S
H1024 C1047 0.950 . S
H1025 C1049 0.950 . S
H1026 C1050 0.950 . S
H1027 C1051 0.951 . S
H1028 C1053 0.951 . S
H1029 C1055 0.950 . S
H1030 C1056 0.950 . S
H1031 C1058 0.950 . S
H1032 C1061 0.950 . S
H1033 C1062 0.950 . S
H1034 C1064 0.950 . S
H1035 C1065 0.950 . S
C1036 H1018 0.951 . S
C1036 C1037 1.366 . S
C1036 C1038 1.388 . S
C1037 C1036 1.366 . S
C1037 C1041 1.385 . S
C1038 H1019 0.951 . S
C1038 C1036 1.388 . S
C1038 C1039 1.366 . S
C1039 C1038 1.366 . S
C1039 C1040 1.414 . S
C1039 C1042 1.499 . S
C1040 H1020 0.950 . S
C1040 C1039 1.414 . S
C1040 C1041 1.374 . S
C1041 H1021 0.950 . S
C1041 C1037 1.385 . S
C1041 C1040 1.374 . S
C1042 C1039 1.499 . S
C1042 C1043 1.373 . S
C1042 C1044 1.389 . S
C1043 H1022 0.950 . S
C1043 C1042 1.373 . S
C1043 C1059 1.377 . S
C1044 C1042 1.389 . S
C1044 C1045 1.524 . S
C1044 C1058 1.377 . S
C1045 C1044 1.524 . S
C1045 C1046 1.397 . S
C1045 C1050 1.363 . S
C1046 H1023 0.950 . S
C1046 C1045 1.397 . S
C1046 C1047 1.334 . S
C1047 H1024 0.950 . S
C1047 C1046 1.334 . S
C1047 C1048 1.287 . S
C1048 C1047 1.287 . S
C1048 C1049 1.524 . S
C1048 H1067 0.913 . S
C1049 H1025 0.950 . S
C1049 C1048 1.524 . S
C1049 C1050 1.415 . S
C1050 H1026 0.950 . S
C1050 C1045 1.363 . S
C1050 C1049 1.415 . S
C1051 H1027 0.951 . S
C1051 C1052 1.366 . S
C1051 C1053 1.388 . S
C1052 C1051 1.366 . S
C1052 C1056 1.385 . S
C1053 H1028 0.951 . S
C1053 C1051 1.388 . S
C1053 C1054 1.366 . S
C1054 C1053 1.366 . S
C1054 C1055 1.414 . S
C1054 C1057 1.499 . S
C1055 H1029 0.950 . S
C1055 C1054 1.414 . S
C1055 C1056 1.374 . S
C1056 H1030 0.950 . S
C1056 C1052 1.385 . S
C1056 C1055 1.374 . S
C1057 C1054 1.499 . S
C1057 C1058 1.373 . S
C1057 C1059 1.389 . S
C1058 H1031 0.950 . S
C1058 C1044 1.377 . S
C1058 C1057 1.373 . S
C1059 C1043 1.377 . S
C1059 C1057 1.389 . S
C1059 C1060 1.524 . S
C1060 C1059 1.524 . S
C1060 C1061 1.397 . S
C1060 C1065 1.363 . S
C1061 H1032 0.950 . S
C1061 C1060 1.397 . S
C1061 C1062 1.334 . S
C1062 H1033 0.950 . S
C1062 C1061 1.334 . S
C1062 C1063 1.287 . S
C1063 C1062 1.287 . S
C1063 C1064 1.524 . S
C1063 H1066 0.999 . S
C1064 H1034 0.950 . S
C1064 C1063 1.524 . S
C1064 C1065 1.415 . S
C1065 H1035 0.950 . S
C1065 C1060 1.363 . S
C1065 C1064 1.415 . S
H1066 C1063 0.999 . S
H1067 C1048 0.913 . S
H1068 C1086 0.951 . S
H1069 C1088 0.951 . S
H1070 C1090 0.950 . S
H1071 C1091 0.950 . S
H1072 C1093 0.950 . S
H1073 C1096 0.950 . S
H1074 C1097 0.950 . S
H1075 C1099 0.950 . S
H1076 C1100 0.950 . S
H1077 C1101 0.951 . S
H1078 C1103 0.951 . S
H1079 C1105 0.950 . S
H1080 C1106 0.950 . S
H1081 C1108 0.950 . S
H1082 C1111 0.950 . S
H1083 C1112 0.950 . S
H1084 C1114 0.950 . S
H1085 C1115 0.950 . S
C1086 H1068 0.951 . S
C1086 C1087 1.366 . S
C1086 C1088 1.388 . S
C1087 C1086 1.366 . S
C1087 C1091 1.385 . S
C1088 H1069 0.951 . S
C1088 C1086 1.388 . S
C1088 C1089 1.366 . S
C1089 C1088 1.366 . S
C1089 C1090 1.414 . S
C1089 C1092 1.499 . S
C1090 H1070 0.950 . S
C1090 C1089 1.414 . S
C1090 C1091 1.374 . S
C1091 H1071 0.950 . S
C1091 C1087 1.385 . S
C1091 C1090 1.374 . S
C1092 C1089 1.499 . S
C1092 C1093 1.373 . S
C1092 C1094 1.389 . S
C1093 H1072 0.950 . S
C1093 C1092 1.373 . S
C1093 C1109 1.377 . S
C1094 C1092 1.389 . S
C1094 C1095 1.524 . S
C1094 C1108 1.377 . S
C1095 C1094 1.524 . S
C1095 C1096 1.397 . S
C1095 C1100 1.363 . S
C1096 H1073 0.950 . S
C1096 C1095 1.397 . S
C1096 C1097 1.334 . S
C1097 H1074 0.950 . S
C1097 C1096 1.334 . S
C1097 C1098 1.287 . S
C1098 C1097 1.287 . S
C1098 C1099 1.524 . S
C1098 H1117 0.913 . S
C1099 H1075 0.950 . S
C1099 C1098 1.524 . S
C1099 C1100 1.415 . S
C1100 H1076 0.950 . S
C1100 C1095 1.363 . S
C1100 C1099 1.415 . S
C1101 H1077 0.951 . S
C1101 C1102 1.366 . S
C1101 C1103 1.388 . S
C1102 C1101 1.366 . S
C1102 C1106 1.385 . S
C1103 H1078 0.951 . S
C1103 C1101 1.388 . S
C1103 C1104 1.366 . S
C1104 C1103 1.366 . S
C1104 C1105 1.414 . S
C1104 C1107 1.499 . S
C1105 H1079 0.950 . S
C1105 C1104 1.414 . S
C1105 C1106 1.374 . S
C1106 H1080 0.950 . S
C1106 C1102 1.385 . S
C1106 C1105 1.374 . S
C1107 C1104 1.499 . S
C1107 C1108 1.373 . S
C1107 C1109 1.389 . S
C1108 H1081 0.950 . S
C1108 C1094 1.377 . S
C1108 C1107 1.373 . S
C1109 C1093 1.377 . S
C1109 C1107 1.389 . S
C1109 C1110 1.524 . S
C1110 C1109 1.524 . S
C1110 C1111 1.397 . S
C1110 C1115 1.363 . S
C1111 H1082 0.950 . S
C1111 C1110 1.397 . S
C1111 C1112 1.334 . S
C1112 H1083 0.950 . S
C1112 C1111 1.334 . S
C1112 C1113 1.287 . S
C1113 C1112 1.287 . S
C1113 C1114 1.524 . S
C1113 H1116 0.999 . S
C1114 H1084 0.950 . S
C1114 C1113 1.524 . S
C1114 C1115 1.415 . S
C1115 H1085 0.950 . S
C1115 C1110 1.363 . S
C1115 C1114 1.415 . S
H1116 C1113 0.999 . S
H1117 C1098 0.913 . S
H1118 C1136 0.951 . S
H1119 C1138 0.951 . S
H1120 C1140 0.950 . S
H1121 C1141 0.950 . S
H1122 C1143 0.950 . S
H1123 C1146 0.950 . S
H1124 C1147 0.950 . S
H1125 C1149 0.950 . S
H1126 C1150 0.950 . S
H1127 C1151 0.951 . S
H1128 C1153 0.951 . S
H1129 C1155 0.950 . S
H1130 C1156 0.950 . S
H1131 C1158 0.950 . S
H1132 C1161 0.950 . S
H1133 C1162 0.950 . S
H1134 C1164 0.950 . S
H1135 C1165 0.950 . S
C1136 H1118 0.951 . S
C1136 C1137 1.366 . S
C1136 C1138 1.388 . S
C1137 C1136 1.366 . S
C1137 C1141 1.385 . S
C1138 H1119 0.951 . S
C1138 C1136 1.388 . S
C1138 C1139 1.366 . S
C1139 C1138 1.366 . S
C1139 C1140 1.414 . S
C1139 C1142 1.499 . S
C1140 H1120 0.950 . S
C1140 C1139 1.414 . S
C1140 C1141 1.374 . S
C1141 H1121 0.950 . S
C1141 C1137 1.385 . S
C1141 C1140 1.374 . S
C1142 C1139 1.499 . S
C1142 C1143 1.373 . S
C1142 C1144 1.389 . S
C1143 H1122 0.950 . S
C1143 C1142 1.373 . S
C1143 C1159 1.377 . S
C1144 C1142 1.389 . S
C1144 C1145 1.524 . S
C1144 C1158 1.377 . S
C1145 C1144 1.524 . S
C1145 C1146 1.397 . S
C1145 C1150 1.363 . S
C1146 H1123 0.950 . S
C1146 C1145 1.397 . S
C1146 C1147 1.334 . S
C1147 H1124 0.950 . S
C1147 C1146 1.334 . S
C1147 C1148 1.287 . S
C1148 C1147 1.287 . S
C1148 C1149 1.524 . S
C1148 H1167 0.913 . S
C1149 H1125 0.950 . S
C1149 C1148 1.524 . S
C1149 C1150 1.415 . S
C1150 H1126 0.950 . S
C1150 C1145 1.363 . S
C1150 C1149 1.415 . S
C1151 H1127 0.951 . S
C1151 C1152 1.366 . S
C1151 C1153 1.388 . S
C1152 C1151 1.366 . S
C1152 C1156 1.385 . S
C1153 H1128 0.951 . S
C1153 C1151 1.388 . S
C1153 C1154 1.366 . S
C1154 C1153 1.366 . S
C1154 C1155 1.414 . S
C1154 C1157 1.499 . S
C1155 H1129 0.950 . S
C1155 C1154 1.414 . S
C1155 C1156 1.374 . S
C1156 H1130 0.950 . S
C1156 C1152 1.385 . S
C1156 C1155 1.374 . S
C1157 C1154 1.499 . S
C1157 C1158 1.373 . S
C1157 C1159 1.389 . S
C1158 H1131 0.950 . S
C1158 C1144 1.377 . S
C1158 C1157 1.373 . S
C1159 C1143 1.377 . S
C1159 C1157 1.389 . S
C1159 C1160 1.524 . S
C1160 C1159 1.524 . S
C1160 C1161 1.397 . S
C1160 C1165 1.363 . S
C1161 H1132 0.950 . S
C1161 C1160 1.397 . S
C1161 C1162 1.334 . S
C1162 H1133 0.950 . S
C1162 C1161 1.334 . S
C1162 C1163 1.287 . S
C1163 C1162 1.287 . S
C1163 C1164 1.524 . S
C1163 H1166 0.999 . S
C1164 H1134 0.950 . S
C1164 C1163 1.524 . S
C1164 C1165 1.415 . S
C1165 H1135 0.950 . S
C1165 C1160 1.363 . S
C1165 C1164 1.415 . S
H1166 C1163 0.999 . S
H1167 C1148 0.913 . S
H1168 C1186 0.951 . S
H1169 C1188 0.951 . S
H1170 C1190 0.950 . S
H1171 C1191 0.950 . S
H1172 C1193 0.950 . S
H1173 C1196 0.950 . S
H1174 C1197 0.950 . S
H1175 C1199 0.950 . S
H1176 C1200 0.950 . S
H1177 C1201 0.951 . S
H1178 C1203 0.951 . S
H1179 C1205 0.950 . S
H1180 C1206 0.950 . S
H1181 C1208 0.950 . S
H1182 C1211 0.950 . S
H1183 C1212 0.950 . S
H1184 C1214 0.950 . S
H1185 C1215 0.950 . S
C1186 H1168 0.951 . S
C1186 C1187 1.366 . S
C1186 C1188 1.388 . S
C1187 C1186 1.366 . S
C1187 C1191 1.385 . S
C1188 H1169 0.951 . S
C1188 C1186 1.388 . S
C1188 C1189 1.366 . S
C1189 C1188 1.366 . S
C1189 C1190 1.414 . S
C1189 C1192 1.499 . S
C1190 H1170 0.950 . S
C1190 C1189 1.414 . S
C1190 C1191 1.374 . S
C1191 H1171 0.950 . S
C1191 C1187 1.385 . S
C1191 C1190 1.374 . S
C1192 C1189 1.499 . S
C1192 C1193 1.373 . S
C1192 C1194 1.389 . S
C1193 H1172 0.950 . S
C1193 C1192 1.373 . S
C1193 C1209 1.377 . S
C1194 C1192 1.389 . S
C1194 C1195 1.524 . S
C1194 C1208 1.377 . S
C1195 C1194 1.524 . S
C1195 C1196 1.397 . S
C1195 C1200 1.363 . S
C1196 H1173 0.950 . S
C1196 C1195 1.397 . S
C1196 C1197 1.334 . S
C1197 H1174 0.950 . S
C1197 C1196 1.334 . S
C1197 C1198 1.287 . S
C1198 C1197 1.287 . S
C1198 C1199 1.524 . S
C1198 H1217 0.913 . S
C1199 H1175 0.950 . S
C1199 C1198 1.524 . S
C1199 C1200 1.415 . S
C1200 H1176 0.950 . S
C1200 C1195 1.363 . S
C1200 C1199 1.415 . S
C1201 H1177 0.951 . S
C1201 C1202 1.366 . S
C1201 C1203 1.388 . S
C1202 C1201 1.366 . S
C1202 C1206 1.385 . S
C1203 H1178 0.951 . S
C1203 C1201 1.388 . S
C1203 C1204 1.366 . S
C1204 C1203 1.366 . S
C1204 C1205 1.414 . S
C1204 C1207 1.499 . S
C1205 H1179 0.950 . S
C1205 C1204 1.414 . S
C1205 C1206 1.374 . S
C1206 H1180 0.950 . S
C1206 C1202 1.385 . S
C1206 C1205 1.374 . S
C1207 C1204 1.499 . S
C1207 C1208 1.373 . S
C1207 C1209 1.389 . S
C1208 H1181 0.950 . S
C1208 C1194 1.377 . S
C1208 C1207 1.373 . S
C1209 C1193 1.377 . S
C1209 C1207 1.389 . S
C1209 C1210 1.524 . S
C1210 C1209 1.524 . S
C1210 C1211 1.397 . S
C1210 C1215 1.363 . S
C1211 H1182 0.950 . S
C1211 C1210 1.397 . S
C1211 C1212 1.334 . S
C1212 H1183 0.950 . S
C1212 C1211 1.334 . S
C1212 C1213 1.287 . S
C1213 C1212 1.287 . S
C1213 C1214 1.524 . S
C1213 H1216 0.999 . S
C1214 H1184 0.950 . S
C1214 C1213 1.524 . S
C1214 C1215 1.415 . S
C1215 H1185 0.950 . S
C1215 C1210 1.363 . S
C1215 C1214 1.415 . S
H1216 C1213 0.999 . S
H1217 C1198 0.913 . S
H1218 C1236 0.951 . S
H1219 C1238 0.951 . S
H1220 C1240 0.950 . S
H1221 C1241 0.950 . S
H1222 C1243 0.950 . S
H1223 C1246 0.950 . S
H1224 C1247 0.950 . S
H1225 C1249 0.950 . S
H1226 C1250 0.950 . S
H1227 C1251 0.951 . S
H1228 C1253 0.951 . S
H1229 C1255 0.950 . S
H1230 C1256 0.950 . S
H1231 C1258 0.950 . S
H1232 C1261 0.950 . S
H1233 C1262 0.950 . S
H1234 C1264 0.950 . S
H1235 C1265 0.950 . S
C1236 H1218 0.951 . S
C1236 C1237 1.366 . S
C1236 C1238 1.388 . S
C1237 C1236 1.366 . S
C1237 C1241 1.385 . S
C1238 H1219 0.951 . S
C1238 C1236 1.388 . S
C1238 C1239 1.366 . S
C1239 C1238 1.366 . S
C1239 C1240 1.414 . S
C1239 C1242 1.499 . S
C1240 H1220 0.950 . S
C1240 C1239 1.414 . S
C1240 C1241 1.374 . S
C1241 H1221 0.950 . S
C1241 C1237 1.385 . S
C1241 C1240 1.374 . S
C1242 C1239 1.499 . S
C1242 C1243 1.373 . S
C1242 C1244 1.389 . S
C1243 H1222 0.950 . S
C1243 C1242 1.373 . S
C1243 C1259 1.377 . S
C1244 C1242 1.389 . S
C1244 C1245 1.524 . S
C1244 C1258 1.377 . S
C1245 C1244 1.524 . S
C1245 C1246 1.397 . S
C1245 C1250 1.363 . S
C1246 H1223 0.950 . S
C1246 C1245 1.397 . S
C1246 C1247 1.334 . S
C1247 H1224 0.950 . S
C1247 C1246 1.334 . S
C1247 C1248 1.287 . S
C1248 C1247 1.287 . S
C1248 C1249 1.524 . S
C1248 H1267 0.913 . S
C1249 H1225 0.950 . S
C1249 C1248 1.524 . S
C1249 C1250 1.415 . S
C1250 H1226 0.950 . S
C1250 C1245 1.363 . S
C1250 C1249 1.415 . S
C1251 H1227 0.951 . S
C1251 C1252 1.366 . S
C1251 C1253 1.388 . S
C1252 C1251 1.366 . S
C1252 C1256 1.385 . S
C1253 H1228 0.951 . S
C1253 C1251 1.388 . S
C1253 C1254 1.366 . S
C1254 C1253 1.366 . S
C1254 C1255 1.414 . S
C1254 C1257 1.499 . S
C1255 H1229 0.950 . S
C1255 C1254 1.414 . S
C1255 C1256 1.374 . S
C1256 H1230 0.950 . S
C1256 C1252 1.385 . S
C1256 C1255 1.374 . S
C1257 C1254 1.499 . S
C1257 C1258 1.373 . S
C1257 C1259 1.389 . S
C1258 H1231 0.950 . S
C1258 C1244 1.377 . S
C1258 C1257 1.373 . S
C1259 C1243 1.377 . S
C1259 C1257 1.389 . S
C1259 C1260 1.524 . S
C1260 C1259 1.524 . S
C1260 C1261 1.397 . S
C1260 C1265 1.363 . S
C1261 H1232 0.950 . S
C1261 C1260 1.397 . S
C1261 C1262 1.334 . S
C1262 H1233 0.950 . S
C1262 C1261 1.334 . S
C1262 C1263 1.287 . S
C1263 C1262 1.287 . S
C1263 C1264 1.524 . S
C1263 H1266 0.999 . S
C1264 H1234 0.950 . S
C1264 C1263 1.524 . S
C1264 C1265 1.415 . S
C1265 H1235 0.950 . S
C1265 C1260 1.363 . S
C1265 C1264 1.415 . S
H1266 C1263 0.999 . S
H1267 C1248 0.913 . S
H1268 C1286 0.951 . S
H1269 C1288 0.951 . S
H1270 C1290 0.950 . S
H1271 C1291 0.950 . S
H1272 C1293 0.950 . S
H1273 C1296 0.950 . S
H1274 C1297 0.950 . S
H1275 C1299 0.950 . S
H1276 C1300 0.950 . S
H1277 C1301 0.951 . S
H1278 C1303 0.951 . S
H1279 C1305 0.950 . S
H1280 C1306 0.950 . S
H1281 C1308 0.950 . S
H1282 C1311 0.950 . S
H1283 C1312 0.950 . S
H1284 C1314 0.950 . S
H1285 C1315 0.950 . S
C1286 H1268 0.951 . S
C1286 C1287 1.366 . S
C1286 C1288 1.388 . S
C1287 C1286 1.366 . S
C1287 C1291 1.385 . S
C1288 H1269 0.951 . S
C1288 C1286 1.388 . S
C1288 C1289 1.366 . S
C1289 C1288 1.366 . S
C1289 C1290 1.414 . S
C1289 C1292 1.499 . S
C1290 H1270 0.950 . S
C1290 C1289 1.414 . S
C1290 C1291 1.374 . S
C1291 H1271 0.950 . S
C1291 C1287 1.385 . S
C1291 C1290 1.374 . S
C1292 C1289 1.499 . S
C1292 C1293 1.373 . S
C1292 C1294 1.389 . S
C1293 H1272 0.950 . S
C1293 C1292 1.373 . S
C1293 C1309 1.377 . S
C1294 C1292 1.389 . S
C1294 C1295 1.524 . S
C1294 C1308 1.377 . S
C1295 C1294 1.524 . S
C1295 C1296 1.397 . S
C1295 C1300 1.363 . S
C1296 H1273 0.950 . S
C1296 C1295 1.397 . S
C1296 C1297 1.334 . S
C1297 H1274 0.950 . S
C1297 C1296 1.334 . S
C1297 C1298 1.287 . S
C1298 C1297 1.287 . S
C1298 C1299 1.524 . S
C1298 H1317 0.913 . S
C1299 H1275 0.950 . S
C1299 C1298 1.524 . S
C1299 C1300 1.415 . S
C1300 H1276 0.950 . S
C1300 C1295 1.363 . S
C1300 C1299 1.415 . S
C1301 H1277 0.951 . S
C1301 C1302 1.366 . S
C1301 C1303 1.388 . S
C1302 C1301 1.366 . S
C1302 C1306 1.385 . S
C1303 H1278 0.951 . S
C1303 C1301 1.388 . S
C1303 C1304 1.366 . S
C1304 C1303 1.366 . S
C1304 C1305 1.414 . S
C1304 C1307 1.499 . S
C1305 H1279 0.950 . S
C1305 C1304 1.414 . S
C1305 C1306 1.374 . S
C1306 H1280 0.950 . S
C1306 C1302 1.385 . S
C1306 C1305 1.374 . S
C1307 C1304 1.499 . S
C1307 C1308 1.373 . S
C1307 C1309 1.389 . S
C1308 H1281 0.950 . S
C1308 C1294 1.377 . S
C1308 C1307 1.373 . S
C1309 C1293 1.377 . S
C1309 C1307 1.389 . S
C1309 C1310 1.524 . S
C1310 C1309 1.524 . S
C1310 C1311 1.397 . S
C1310 C1315 1.363 . S
C1311 H1282 0.950 . S
C1311 C1310 1.397 . S
C1311 C1312 1.334 . S
C1312 H1283 0.950 . S
C1312 C1311 1.334 . S
C1312 C1313 1.287 . S
C1313 C1312 1.287 . S
C1313 C1314 1.524 . S
C1313 H1316 0.999 . S
C1314 H1284 0.950 . S
C1314 C1313 1.524 . S
C1314 C1315 1.415 . S
C1315 H1285 0.950 . S
C1315 C1310 1.363 . S
C1315 C1314 1.415 . S
H1316 C1313 0.999 . S
H1317 C1298 0.913 . S
H1318 C1336 0.951 . S
H1319 C1338 0.951 . S
H1320 C1340 0.950 . S
H1321 C1341 0.950 . S
H1322 C1343 0.950 . S
H1323 C1346 0.950 . S
H1324 C1347 0.950 . S
H1325 C1349 0.950 . S
H1326 C1350 0.950 . S
H1327 C1351 0.951 . S
H1328 C1353 0.951 . S
H1329 C1355 0.950 . S
H1330 C1356 0.950 . S
H1331 C1358 0.950 . S
H1332 C1361 0.950 . S
H1333 C1362 0.950 . S
H1334 C1364 0.950 . S
H1335 C1365 0.950 . S
C1336 H1318 0.951 . S
C1336 C1337 1.366 . S
C1336 C1338 1.388 . S
C1337 C1336 1.366 . S
C1337 C1341 1.385 . S
C1338 H1319 0.951 . S
C1338 C1336 1.388 . S
C1338 C1339 1.366 . S
C1339 C1338 1.366 . S
C1339 C1340 1.414 . S
C1339 C1342 1.499 . S
C1340 H1320 0.950 . S
C1340 C1339 1.414 . S
C1340 C1341 1.374 . S
C1341 H1321 0.950 . S
C1341 C1337 1.385 . S
C1341 C1340 1.374 . S
C1342 C1339 1.499 . S
C1342 C1343 1.373 . S
C1342 C1344 1.389 . S
C1343 H1322 0.950 . S
C1343 C1342 1.373 . S
C1343 C1359 1.377 . S
C1344 C1342 1.389 . S
C1344 C1345 1.524 . S
C1344 C1358 1.377 . S
C1345 C1344 1.524 . S
C1345 C1346 1.397 . S
C1345 C1350 1.363 . S
C1346 H1323 0.950 . S
C1346 C1345 1.397 . S
C1346 C1347 1.334 . S
C1347 H1324 0.950 . S
C1347 C1346 1.334 . S
C1347 C1348 1.287 . S
C1348 C1347 1.287 . S
C1348 C1349 1.524 . S
C1348 H1367 0.913 . S
C1349 H1325 0.950 . S
C1349 C1348 1.524 . S
C1349 C1350 1.415 . S
C1350 H1326 0.950 . S
C1350 C1345 1.363 . S
C1350 C1349 1.415 . S
C1351 H1327 0.951 . S
C1351 C1352 1.366 . S
C1351 C1353 1.388 . S
C1352 C1351 1.366 . S
C1352 C1356 1.385 . S
C1353 H1328 0.951 . S
C1353 C1351 1.388 . S
C1353 C1354 1.366 . S
C1354 C1353 1.366 . S
C1354 C1355 1.414 . S
C1354 C1357 1.499 . S
C1355 H1329 0.950 . S
C1355 C1354 1.414 . S
C1355 C1356 1.374 . S
C1356 H1330 0.950 . S
C1356 C1352 1.385 . S
C1356 C1355 1.374 . S
C1357 C1354 1.499 . S
C1357 C1358 1.373 . S
C1357 C1359 1.389 . S
C1358 H1331 0.950 . S
C1358 C1344 1.377 . S
C1358 C1357 1.373 . S
C1359 C1343 1.377 . S
C1359 C1357 1.389 . S
C1359 C1360 1.524 . S
C1360 C1359 1.524 . S
C1360 C1361 1.397 . S
C1360 C1365 1.363 . S
C1361 H1332 0.950 . S
C1361 C1360 1.397 . S
C1361 C1362 1.334 . S
C1362 H1333 0.950 . S
C1362 C1361 1.334 . S
C1362 C1363 1.287 . S
C1363 C1362 1.287 . S
C1363 C1364 1.524 . S
C1363 H1366 0.999 . S
C1364 H1334 0.950 . S
C1364 C1363 1.524 . S
C1364 C1365 1.415 . S
C1365 H1335 0.950 . S
C1365 C1360 1.363 . S
C1365 C1364 1.415 . S
H1366 C1363 0.999 . S
H1367 C1348 0.913 . S
C187 C9 1.317 . S
C202 C163 1.317 . S
C237 C93 1.318 . S
C252 C23 1.318 . S
C287 C37 1.318 . S
C302 C107 1.317 . S
C337 C121 1.317 . S
C352 C51 1.318 . S
C387 C135 1.317 . S
C402 C65 1.318 . S
C437 C149 1.318 . S
C452 C79 1.317 . S
C487 C42 1.232 . S
C502 C112 1.233 . S
C537 C56 1.233 . S
C552 C126 1.232 . S
C587 C70 1.232 . S
C602 C140 1.233 . S
C637 C154 1.233 . S
C652 C0 1.232 . S
C687 C14 1.232 . S
C702 C84 1.232 . S
C737 C28 1.232 . S
C752 C98 1.233 . S
C787 C117 1.704 . S
C802 C5 1.704 . S
C837 C131 1.704 . S
C852 C19 1.704 . S
C887 C33 1.704 . S
C902 C145 1.704 . S
C937 C47 1.704 . S
C952 C159 1.704 . S
C987 C61 1.704 . S
C1002 C89 1.704 . S
C1037 C103 1.704 . S
C1052 C75 1.704 . S
C1087 C11 1.619 . S
C1102 C151 1.619 . S
C1137 C165 1.619 . S
C1152 C25 1.619 . S
C1187 C39 1.619 . S
C1202 C95 1.619 . S
C1237 C53 1.619 . S
C1252 C109 1.619 . S
C1287 C67 1.619 . S
C1302 C123 1.618 . S
C1337 C81 1.619 . S
C1352 C137 1.619 . S
