# Generated by pormake.
# Topology tsi, (8)-cn, num edge types: 1
# Building blocks:
#     Node 0, Type 0, BuildingBlock: AJUNOK_clean_sbu_0, # of connection points: 8
#     Node 1, Type 0, BuildingBlock: AJUNOK_clean_sbu_0, # of connection points: 8
#     Node 2, Type 0, BuildingBlock: AJUNOK_clean_sbu_0, # of connection points: 8
#     Node 3, Type 0, BuildingBlock: AJUNOK_clean_sbu_0, # of connection points: 8
#     Edge 4, Type (0, 0), BuildingBlock: EYOCIG_clean_linker_4, # of connection points: 2
#     Edge 5, Type (0, 0), BuildingBlock: EYOCIG_clean_linker_4, # of connection points: 2
#     Edge 6, Type (0, 0), BuildingBlock: EYOCIG_clean_linker_4, # of connection points: 2
#     Edge 7, Type (0, 0), BuildingBlock: EYOCIG_clean_linker_4, # of connection points: 2
#     Edge 8, Type (0, 0), BuildingBlock: EYOCIG_clean_linker_4, # of connection points: 2
#     Edge 9, Type (0, 0), BuildingBlock: EYOCIG_clean_linker_4, # of connection points: 2
#     Edge 10, Type (0, 0), BuildingBlock: EYOCIG_clean_linker_4, # of connection points: 2
#     Edge 11, Type (0, 0), BuildingBlock: EYOCIG_clean_linker_4, # of connection points: 2
#     Edge 12, Type (0, 0), BuildingBlock: EYOCIG_clean_linker_4, # of connection points: 2
#     Edge 13, Type (0, 0), BuildingBlock: EYOCIG_clean_linker_4, # of connection points: 2
#     Edge 14, Type (0, 0), BuildingBlock: EYOCIG_clean_linker_4, # of connection points: 2
#     Edge 15, Type (0, 0), BuildingBlock: EYOCIG_clean_linker_4, # of connection points: 2
#     Edge 16, Type (0, 0), BuildingBlock: EYOCIG_clean_linker_4, # of connection points: 2
#     Edge 17, Type (0, 0), BuildingBlock: EYOCIG_clean_linker_4, # of connection points: 2
#     Edge 18, Type (0, 0), BuildingBlock: EYOCIG_clean_linker_4, # of connection points: 2
#     Edge 19, Type (0, 0), BuildingBlock: EYOCIG_clean_linker_4, # of connection points: 2
# Relax obj value: 0.184
# Max RMSD: 0.219
# Mean RMSD: 0.219
data_MOF--net-tsi--node1-AJUNOK_clean_sbu_0--edge1-EYOCIG_clean_linker_4
_symmetry_space_group_name_H-M    P1
_symmetry_Int_Tables_number       1
_symmetry_cell_setting            triclinic
loop_
_symmetry_equiv_pos_as_xyz
'x, y, z'
_cell_length_a     13.221169
_cell_length_b     13.268827
_cell_length_c     63.324834
_cell_angle_alpha  90.033306
_cell_angle_beta   90.032371
_cell_angle_gamma 90.363405
loop_
_atom_site_label
_atom_site_type_symbol
_atom_site_fract_x
_atom_site_fract_y
_atom_site_fract_z
_atom_type_partial_charge
Cd0 Cd 0.00682 0.12417 0.40073 0.0
Cd1 Cd 0.00234 0.35384 0.40098 0.0
C2 C 0.12966 0.11046 0.35688 0.0
N3 N 0.03332 0.12672 0.36364 0.0
C4 C 0.97471 0.12413 0.32771 0.0
C5 C 0.07536 0.12017 0.3207 0.0
C6 C 0.15257 0.10894 0.33546 0.0
C7 C 0.95518 0.1277 0.34954 0.0
H8 H 0.18988 0.09807 0.36794 0.0
H9 H 0.87825 0.13405 0.35518 0.0
C10 C 0.76574 0.23601 0.39961 0.0
C11 C 0.88841 0.36636 0.44588 0.0
C12 C 0.87497 0.40304 0.46622 0.0
C13 C 0.9595 0.42342 0.47864 0.0
C14 C 0.05581 0.39757 0.47127 0.0
C15 C 0.06615 0.36106 0.45061 0.0
N16 N 0.98314 0.35002 0.43807 0.0
H17 H 0.82274 0.36104 0.43601 0.0
H18 H 0.14073 0.35001 0.44405 0.0
C19 C 0.86434 0.38177 0.35784 0.0
N20 N 0.96045 0.35756 0.36385 0.0
C21 C 0.01029 0.35352 0.32732 0.0
C22 C 0.90858 0.36139 0.3212 0.0
C23 C 0.83609 0.38046 0.33663 0.0
C24 C 0.03469 0.35089 0.34896 0.0
H25 H 0.80825 0.40324 0.36923 0.0
H26 H 0.11232 0.34033 0.35384 0.0
C27 C 0.24451 0.24064 0.40184 0.0
C28 C 0.94821 0.93541 0.39437 0.0
N29 N 0.02565 0.11836 0.43763 0.0
C30 C 0.11628 0.09212 0.44618 0.0
C31 C 0.12185 0.05744 0.46686 0.0
C32 C 0.03339 0.04758 0.47868 0.0
C33 C 0.94163 0.0811 0.47025 0.0
C34 C 0.93941 0.11621 0.44941 0.0
C35 C -0.00697 0.55069 0.3957 0.0
O36 O 0.81642 0.15554 0.3988 0.0
O37 O 0.81396 0.31816 0.4008 0.0
O38 O 0.19392 0.32177 0.40097 0.0
O39 O 0.1966 0.1576 0.40266 0.0
O40 O 0.89224 -0.00503 0.40434 0.0
O41 O 0.04111 0.95633 0.39172 0.0
O42 O 0.06908 0.50506 0.38857 0.0
O43 O 0.94011 0.51068 0.40999 0.0
H44 H 0.18352 0.08908 0.43668 0.0
H45 H 0.86778 0.13446 0.44214 0.0
H46 H 0.91291 0.13062 0.31657 0.0
H47 H 0.23065 0.10169 0.33052 0.0
H48 H 0.79966 0.42268 0.47154 0.0
H49 H 0.12256 0.41255 0.48071 0.0
H50 H 0.06911 0.34301 0.31565 0.0
H51 H 0.75767 0.39257 0.33238 0.0
H52 H 0.19362 0.03134 0.473 0.0
H53 H 0.87183 0.07384 0.47909 0.0
Cd54 Cd 0.10772 0.73198 0.64903 0.0
Cd55 Cd 0.87651 0.72319 0.64863 0.0
C56 C 0.12731 0.85727 0.60609 0.0
N57 N 0.11377 0.75936 0.61203 0.0
C58 C 0.10979 0.70898 0.57565 0.0
C59 C 0.11204 0.81073 0.56962 0.0
C60 C 0.12458 0.88482 0.58497 0.0
C61 C 0.10981 0.68464 0.59726 0.0
H62 H 0.13976 0.91546 0.61759 0.0
H63 H 0.10309 0.60688 0.6022 0.0
C64 C -0.00365 0.48766 0.64888 0.0
C65 C 0.84269 0.62163 0.69438 0.0
C66 C 0.80591 0.61363 0.71494 0.0
C67 C 0.79463 0.7003 0.72717 0.0
C68 C 0.82708 0.79328 0.71899 0.0
C69 C 0.8639 0.79808 0.69819 0.0
N70 N 0.86918 0.71296 0.68615 0.0
H71 H 0.84169 0.5553 0.68462 0.0
H72 H 0.8816 0.8705 0.69126 0.0
C73 C 0.85954 0.59539 0.60542 0.0
N74 N 0.87755 0.6909 0.61236 0.0
C75 C 0.87629 0.75214 0.57678 0.0
C76 C 0.87007 0.65258 0.56953 0.0
C77 C 0.85785 0.57422 0.58396 0.0
C78 C 0.88098 0.76973 0.59857 0.0
H79 H 0.84594 0.5348 0.61633 0.0
H80 H 0.88937 0.84584 0.60449 0.0
C81 C 0.98291 0.9666 0.6505 0.0
C82 C 0.30295 0.74926 0.65776 0.0
N83 N 0.10605 0.75684 0.68653 0.0
C84 C 0.13833 0.8486 0.69376 0.0
C85 C 0.17656 0.85989 0.71416 0.0
C86 C 0.18466 0.77595 0.72727 0.0
C87 C 0.14794 0.68261 0.72004 0.0
C88 C 0.10896 0.67456 0.69942 0.0
C89 C 0.68384 0.77214 0.64973 0.0
O90 O 0.07762 0.53895 0.64692 0.0
O91 O 0.91357 0.53485 0.65055 0.0
O92 O 0.90192 0.91532 0.64974 0.0
O93 O 0.06525 0.91896 0.65072 0.0
O94 O 0.26094 0.66503 0.66098 0.0
O95 O 0.26172 0.81282 0.64581 0.0
O96 O 0.74336 0.82341 0.63853 0.0
O97 O 0.70825 0.68414 0.65552 0.0
H98 H 0.14482 0.91212 0.68334 0.0
H99 H 0.08906 0.6012 0.69316 0.0
H100 H 0.10174 0.64987 0.56396 0.0
H101 H 0.1293 0.96388 0.58073 0.0
H102 H 0.78067 0.54089 0.72076 0.0
H103 H 0.81881 0.8619 0.72809 0.0
H104 H 0.88366 0.81448 0.56584 0.0
H105 H 0.84956 0.49684 0.5787 0.0
H106 H 0.20581 0.93265 0.71913 0.0
H107 H 0.15443 0.61578 0.72975 0.0
Cd108 Cd 0.50899 0.62394 0.90095 0.0
Cd109 Cd 0.50352 0.85406 0.9005 0.0
C110 C 0.62961 0.60582 0.85701 0.0
N111 N 0.53334 0.62251 0.86376 0.0
C112 C 0.47512 0.62204 0.8278 0.0
C113 C 0.57584 0.61794 0.82082 0.0
C114 C 0.65277 0.60525 0.8356 0.0
C115 C 0.45535 0.6247 0.84963 0.0
H116 H 0.68963 0.59294 0.8681 0.0
H117 H 0.37845 0.63192 0.85523 0.0
C118 C 0.26759 0.73225 0.89914 0.0
C119 C 0.39022 0.87179 0.9454 0.0
C120 C 0.37668 0.9066 0.96589 0.0
C121 C 0.46112 0.9247 0.97849 0.0
C122 C 0.55732 0.89853 0.97109 0.0
C123 C 0.56773 0.86371 0.9503 0.0
N124 N 0.4849 0.8546 0.93764 0.0
H125 H 0.32479 0.86827 0.93541 0.0
H126 H 0.6423 0.85172 0.9438 0.0
C127 C 0.36477 0.87838 0.85765 0.0
N128 N 0.46106 0.85437 0.86355 0.0
C129 C 0.51043 0.85141 0.827 0.0
C130 C 0.40864 0.85947 0.82097 0.0
C131 C 0.33625 0.87779 0.83646 0.0
C132 C 0.53511 0.84804 0.84861 0.0
H133 H 0.3089 0.89941 0.86914 0.0
H134 H 0.61286 0.83777 0.85344 0.0
C135 C 0.74634 0.7417 0.90147 0.0
C136 C 0.45194 0.43299 0.8979 0.0
N137 N 0.5289 0.62492 0.9378 0.0
C138 C 0.61925 0.59738 0.94629 0.0
C139 C 0.62446 0.56171 0.9669 0.0
C140 C 0.5359 0.55221 0.9787 0.0
C141 C 0.44451 0.58711 0.97036 0.0
C142 C 0.44266 0.62327 0.9496 0.0
C143 C 0.48706 0.04991 0.89387 0.0
O144 O 0.3182 0.65188 0.89785 0.0
O145 O 0.31592 0.81412 0.90083 0.0
O146 O 0.69574 0.82292 0.9006 0.0
O147 O 0.69845 0.65867 0.90239 0.0
O148 O 0.4025 0.49242 0.90929 0.0
O149 O 0.54114 0.45574 0.8922 0.0
O150 O 0.56266 0.00538 0.88625 0.0
O151 O 0.4383 0.01042 0.90886 0.0
H152 H 0.68628 0.59342 0.93674 0.0
H153 H 0.37111 0.64184 0.94232 0.0
H154 H 0.41352 0.62971 0.81665 0.0
H155 H 0.73089 0.59798 0.83068 0.0
H156 H 0.30148 0.92657 0.97121 0.0
H157 H 0.624 0.91177 0.98067 0.0
H158 H 0.5691 0.84149 0.81528 0.0
H159 H 0.25777 0.88995 0.83228 0.0
H160 H 0.69591 0.53443 0.97297 0.0
H161 H 0.37463 0.58 0.97918 0.0
Cd162 Cd 0.61117 0.23701 0.14893 0.0
Cd163 Cd 0.37273 0.23562 0.1484 0.0
C164 C 0.63739 0.36513 0.10602 0.0
N165 N 0.61883 0.26842 0.11221 0.0
C166 C 0.60936 0.21621 0.07601 0.0
C167 C 0.61557 0.31737 0.06973 0.0
C168 C 0.63346 0.3917 0.08483 0.0
C169 C 0.60964 0.19324 0.09765 0.0
H170 H 0.65456 0.42296 0.11737 0.0
H171 H 0.59914 0.11621 0.10282 0.0
C172 C 0.48887 -0.00281 0.14894 0.0
C173 C 0.33782 0.12361 0.19365 0.0
C174 C 0.30181 0.11438 0.21424 0.0
C175 C 0.29335 0.19996 0.22688 0.0
C176 C 0.3281 0.29286 0.21908 0.0
C177 C 0.36488 0.29879 0.19829 0.0
N178 N 0.36751 0.21494 0.18583 0.0
H179 H 0.33297 0.05842 0.18364 0.0
H180 H 0.38421 0.37145 0.19164 0.0
C181 C 0.3527 0.1049 0.10559 0.0
N182 N 0.37108 0.20122 0.11205 0.0
C183 C 0.37672 0.25672 0.07608 0.0
C184 C 0.36997 0.15615 0.06943 0.0
C185 C 0.35444 0.0803 0.08429 0.0
C186 C 0.37854 0.27771 0.09778 0.0
H187 H 0.33641 0.04611 0.11675 0.0
H188 H 0.3882 0.35443 0.10325 0.0
C189 C 0.49452 0.47546 0.14958 0.0
C190 C 0.8047 0.198 0.15788 0.0
N191 N 0.60897 0.26262 0.18638 0.0
C192 C 0.63938 0.3541 0.19406 0.0
C193 C 0.67657 0.36386 0.21459 0.0
C194 C 0.68549 0.27873 0.22734 0.0
C195 C 0.65009 0.18571 0.21968 0.0
C196 C 0.61203 0.17925 0.19896 0.0
C197 C 0.18017 0.2919 0.15273 0.0
O198 O 0.57009 0.048 0.14713 0.0
O199 O 0.40639 0.04499 0.15045 0.0
O200 O 0.41336 0.42439 0.1485 0.0
O201 O 0.5772 0.42778 0.15028 0.0
O202 O 0.74442 0.12463 0.15622 0.0
O203 O 0.7791 0.28374 0.15101 0.0
O204 O 0.24416 0.35714 0.14713 0.0
O205 O 0.20245 0.19921 0.15173 0.0
H206 H 0.64457 0.41892 0.18399 0.0
H207 H 0.59293 0.1063 0.19239 0.0
H208 H 0.59772 0.15682 0.06452 0.0
H209 H 0.6416 0.47019 0.08035 0.0
H210 H 0.27448 0.04181 0.21973 0.0
H211 H 0.32166 0.36076 0.22848 0.0
H212 H 0.38665 0.3172 0.06478 0.0
H213 H 0.34596 0.00222 0.07951 0.0
H214 H 0.70441 0.43653 0.21994 0.0
H215 H 0.65695 0.11803 0.22911 0.0
C216 C 0.92773 0.5314 0.51294 0.0
C217 C 0.94665 0.48212 0.4975 0.0
C218 C 0.90396 0.58803 0.53105 0.0
C219 C 0.88887 0.62691 0.5479 0.0
C220 C 0.64255 0.65454 0.78219 0.0
C221 C 0.60414 0.6383 0.79919 0.0
C222 C 0.69587 0.67704 0.76332 0.0
C223 C 0.74135 0.69287 0.74707 0.0
C224 C 0.55302 0.44679 1.0138 0.0
C225 C 0.53907 0.49559 0.99804 0.0
C226 C 0.57524 0.38961 0.03197 0.0
C227 C 0.59277 0.3486 0.04852 0.0
C228 C 0.83639 0.325 0.28277 0.0
C229 C 0.87533 0.34079 0.29979 0.0
C230 C 0.78376 0.30326 0.26368 0.0
C231 C 0.73845 0.28748 0.24735 0.0
C232 C 0.19483 0.1759 0.26303 0.0
C233 C 0.24033 0.19185 0.24679 0.0
C234 C 0.14152 0.15407 0.28193 0.0
C235 C 0.10324 0.13896 0.29899 0.0
C236 C 0.28349 0.80248 0.76348 0.0
C237 C 0.23791 0.78607 0.74721 0.0
C238 C 0.33625 0.8243 0.78253 0.0
C239 C 0.37524 0.83958 0.79956 0.0
C240 C 0.42983 0.0301 1.01319 0.0
C241 C 0.44853 0.98192 0.99757 0.0
C242 C 0.40618 0.08675 0.03133 0.0
C243 C 0.39033 0.12696 0.04803 0.0
C244 C 0.05125 0.94297 0.51388 0.0
C245 C 0.03701 -0.00863 0.49808 0.0
C246 C 0.07337 0.88499 0.53196 0.0
C247 C 0.09056 0.84265 0.54839 0.0
C248 C 0.87897 0.78324 0.37396 0.0
C249 C 0.90358 0.85488 0.38378 0.0
C250 C 0.90049 0.68323 0.3736 0.0
C251 C 0.94709 0.62223 0.38297 0.0
C252 C 0.45121 0.82457 0.67834 0.0
C253 C 0.38334 0.78089 0.6703 0.0
C254 C 0.54875 0.84837 0.67353 0.0
C255 C 0.61269 0.82387 0.66163 0.0
C256 C 0.36932 0.28755 0.87753 0.0
C257 C 0.39962 0.35608 0.88765 0.0
C258 C 0.38975 0.18827 0.87456 0.0
C259 C 0.43999 0.12462 0.88216 0.0
C260 C 0.03444 0.29799 0.17767 0.0
C261 C 0.10148 0.31952 0.16616 0.0
C262 C 0.95477 0.23292 0.18059 0.0
C263 C 0.88617 0.19355 0.17185 0.0
C264 C 0.98668 0.17203 0.65029 0.0
C265 C 0.98274 0.0788 0.65037 0.0
C266 C -0.00719 0.28222 0.64981 0.0
C267 C -0.00321 0.37543 0.64934 0.0
C268 C 0.95187 0.73962 0.90016 0.0
C269 C 0.85857 0.74259 0.90074 0.0
C270 C 0.06206 0.73469 0.8995 0.0
C271 C 0.15537 0.73146 0.89929 0.0
C272 C 0.49188 0.68112 0.14985 0.0
C273 C 0.49288 0.58778 0.14972 0.0
C274 C 0.49105 0.79155 0.14966 0.0
C275 C 0.49027 0.88488 0.14933 0.0
C276 C 0.56025 0.23686 0.40006 0.0
C277 C 0.65357 0.23482 0.39984 0.0
C278 C 0.45003 0.2401 0.40069 0.0
C279 C 0.35671 0.24188 0.4012 0.0
loop_
_geom_bond_atom_site_label_1
_geom_bond_atom_site_label_2
_geom_bond_distance
_geom_bond_site_symmetry_2
_ccdc_geom_bond_type
Cd0 N3 2.334 . S
Cd0 N29 2.304 . S
Cd0 O36 2.268 1_455 S
Cd0 O39 2.273 . S
Cd0 O40 2.417 1_445 S
Cd0 O41 2.330 1_545 S
Cd1 N16 2.304 . S
Cd1 N20 2.334 . S
Cd1 O37 2.273 . S
Cd1 O38 2.268 1_655 S
Cd1 O42 2.417 1_655 S
Cd1 O43 2.330 . S
C2 N3 1.332 . S
C2 C6 1.381 . S
C2 H8 0.931 . S
N3 Cd0 2.334 . S
N3 C2 1.332 . S
N3 C7 1.328 1_455 S
C4 C5 1.396 1_655 S
C4 C7 1.378 . S
C4 H46 0.931 . S
C5 C4 1.396 1_455 S
C5 C6 1.382 . S
C6 C2 1.381 . S
C6 C5 1.382 . S
C6 H47 0.930 . S
C7 N3 1.328 1_655 S
C7 C4 1.378 . S
C7 H9 0.930 . S
H8 C2 0.931 . S
H9 C7 0.930 . S
C10 O36 1.238 . S
C10 O37 1.253 . S
C11 C12 1.379 . S
C11 N16 1.337 . S
C11 H17 0.929 . S
C12 C11 1.379 . S
C12 C13 1.380 . S
C12 H48 0.929 . S
C13 C12 1.380 . S
C13 C14 1.399 1_655 S
C14 C13 1.399 1_455 S
C14 C15 1.376 . S
C14 H49 0.931 . S
C15 C14 1.376 . S
C15 N16 1.338 1_455 S
C15 H18 0.930 . S
N16 Cd1 2.304 . S
N16 C11 1.337 . S
N16 C15 1.338 1_655 S
H17 C11 0.929 . S
H18 C15 0.930 . S
C19 N20 1.332 . S
C19 C23 1.381 . S
C19 H25 0.931 . S
N20 Cd1 2.334 . S
N20 C19 1.332 . S
N20 C24 1.328 1_655 S
C21 C22 1.396 1_455 S
C21 C24 1.378 . S
C21 H50 0.931 . S
C22 C21 1.396 1_655 S
C22 C23 1.382 . S
C23 C19 1.381 . S
C23 C22 1.382 . S
C23 H51 0.930 . S
C24 N20 1.328 1_455 S
C24 C21 1.378 . S
C24 H26 0.930 . S
H25 C19 0.931 . S
H26 C24 0.930 . S
C27 O38 1.238 . S
C27 O39 1.253 . S
C28 O40 1.239 1_455 S
C28 O41 1.230 . S
N29 Cd0 2.304 . S
N29 C30 1.337 . S
N29 C34 1.338 1_455 S
C30 N29 1.337 . S
C30 C31 1.379 . S
C30 H44 0.929 . S
C31 C30 1.379 . S
C31 C32 1.380 . S
C31 H52 0.929 . S
C32 C31 1.380 . S
C32 C33 1.399 1_455 S
C33 C32 1.399 1_655 S
C33 C34 1.376 . S
C33 H53 0.931 . S
C34 N29 1.338 1_655 S
C34 C33 1.376 . S
C34 H45 0.930 . S
C35 O42 1.239 1_655 S
C35 O43 1.230 . S
O36 Cd0 2.268 1_655 S
O36 C10 1.238 . S
O37 Cd1 2.273 . S
O37 C10 1.253 . S
O38 Cd1 2.268 1_455 S
O38 C27 1.238 . S
O39 Cd0 2.273 . S
O39 C27 1.253 . S
O40 Cd0 2.417 1_665 S
O40 C28 1.239 1_655 S
O41 Cd0 2.330 1_565 S
O41 C28 1.230 . S
O42 Cd1 2.417 1_455 S
O42 C35 1.239 1_455 S
O43 Cd1 2.330 . S
O43 C35 1.230 . S
H44 C30 0.929 . S
H45 C34 0.930 . S
H46 C4 0.931 . S
H47 C6 0.930 . S
H48 C12 0.929 . S
H49 C14 0.931 . S
H50 C21 0.931 . S
H51 C23 0.930 . S
H52 C31 0.929 . S
H53 C33 0.931 . S
Cd54 N57 2.334 . S
Cd54 N83 2.304 . S
Cd54 O90 2.268 . S
Cd54 O93 2.273 . S
Cd54 O94 2.417 . S
Cd54 O95 2.330 . S
Cd55 N70 2.304 . S
Cd55 N74 2.334 . S
Cd55 O91 2.273 . S
Cd55 O92 2.268 . S
Cd55 O96 2.417 . S
Cd55 O97 2.330 . S
C56 N57 1.332 . S
C56 C60 1.381 . S
C56 H62 0.931 . S
N57 Cd54 2.334 . S
N57 C56 1.332 . S
N57 C61 1.328 . S
C58 C59 1.396 . S
C58 C61 1.378 . S
C58 H100 0.931 . S
C59 C58 1.396 . S
C59 C60 1.382 . S
C60 C56 1.381 . S
C60 C59 1.382 . S
C60 H101 0.930 . S
C61 N57 1.328 . S
C61 C58 1.378 . S
C61 H63 0.930 . S
H62 C56 0.931 . S
H63 C61 0.930 . S
C64 O90 1.238 1_655 S
C64 O91 1.253 . S
C65 C66 1.379 . S
C65 N70 1.337 . S
C65 H71 0.929 . S
C66 C65 1.379 . S
C66 C67 1.380 . S
C66 H102 0.929 . S
C67 C66 1.380 . S
C67 C68 1.399 . S
C68 C67 1.399 . S
C68 C69 1.376 . S
C68 H103 0.931 . S
C69 C68 1.376 . S
C69 N70 1.338 . S
C69 H72 0.930 . S
N70 Cd55 2.304 . S
N70 C65 1.337 . S
N70 C69 1.338 . S
H71 C65 0.929 . S
H72 C69 0.930 . S
C73 N74 1.332 . S
C73 C77 1.381 . S
C73 H79 0.931 . S
N74 Cd55 2.334 . S
N74 C73 1.332 . S
N74 C78 1.328 . S
C75 C76 1.396 . S
C75 C78 1.378 . S
C75 H104 0.931 . S
C76 C75 1.396 . S
C76 C77 1.382 . S
C77 C73 1.381 . S
C77 C76 1.382 . S
C77 H105 0.930 . S
C78 N74 1.328 . S
C78 C75 1.378 . S
C78 H80 0.930 . S
H79 C73 0.931 . S
H80 C78 0.930 . S
C81 O92 1.238 1_455 S
C81 O93 1.253 . S
C82 O94 1.239 . S
C82 O95 1.230 . S
N83 Cd54 2.304 . S
N83 C84 1.337 . S
N83 C88 1.338 . S
C84 N83 1.337 . S
C84 C85 1.379 . S
C84 H98 0.929 . S
C85 C84 1.379 . S
C85 C86 1.380 . S
C85 H106 0.929 . S
C86 C85 1.380 . S
C86 C87 1.399 . S
C87 C86 1.399 . S
C87 C88 1.376 . S
C87 H107 0.931 . S
C88 N83 1.338 . S
C88 C87 1.376 . S
C88 H99 0.930 . S
C89 O96 1.239 . S
C89 O97 1.230 . S
O90 Cd54 2.268 . S
O90 C64 1.238 1_455 S
O91 Cd55 2.273 . S
O91 C64 1.253 . S
O92 Cd55 2.268 . S
O92 C81 1.238 1_655 S
O93 Cd54 2.273 . S
O93 C81 1.253 . S
O94 Cd54 2.417 . S
O94 C82 1.239 . S
O95 Cd54 2.330 . S
O95 C82 1.230 . S
O96 Cd55 2.417 . S
O96 C89 1.239 . S
O97 Cd55 2.330 . S
O97 C89 1.230 . S
H98 C84 0.929 . S
H99 C88 0.930 . S
H100 C58 0.931 . S
H101 C60 0.930 . S
H102 C66 0.929 . S
H103 C68 0.931 . S
H104 C75 0.931 . S
H105 C77 0.930 . S
H106 C85 0.929 . S
H107 C87 0.931 . S
Cd108 N111 2.334 . S
Cd108 N137 2.304 . S
Cd108 O144 2.268 . S
Cd108 O147 2.273 . S
Cd108 O148 2.417 . S
Cd108 O149 2.330 . S
Cd109 N124 2.304 . S
Cd109 N128 2.334 . S
Cd109 O145 2.273 . S
Cd109 O146 2.268 . S
Cd109 O150 2.417 1_565 S
Cd109 O151 2.330 1_565 S
C110 N111 1.332 . S
C110 C114 1.381 . S
C110 H116 0.931 . S
N111 Cd108 2.334 . S
N111 C110 1.332 . S
N111 C115 1.328 . S
C112 C113 1.396 . S
C112 C115 1.378 . S
C112 H154 0.931 . S
C113 C112 1.396 . S
C113 C114 1.382 . S
C114 C110 1.381 . S
C114 C113 1.382 . S
C114 H155 0.930 . S
C115 N111 1.328 . S
C115 C112 1.378 . S
C115 H117 0.930 . S
H116 C110 0.931 . S
H117 C115 0.930 . S
C118 O144 1.238 . S
C118 O145 1.253 . S
C119 C120 1.379 . S
C119 N124 1.337 . S
C119 H125 0.929 . S
C120 C119 1.379 . S
C120 C121 1.380 . S
C120 H156 0.929 . S
C121 C120 1.380 . S
C121 C122 1.399 . S
C122 C121 1.399 . S
C122 C123 1.376 . S
C122 H157 0.931 . S
C123 C122 1.376 . S
C123 N124 1.338 . S
C123 H126 0.930 . S
N124 Cd109 2.304 . S
N124 C119 1.337 . S
N124 C123 1.338 . S
H125 C119 0.929 . S
H126 C123 0.930 . S
C127 N128 1.332 . S
C127 C131 1.381 . S
C127 H133 0.931 . S
N128 Cd109 2.334 . S
N128 C127 1.332 . S
N128 C132 1.328 . S
C129 C130 1.396 . S
C129 C132 1.378 . S
C129 H158 0.931 . S
C130 C129 1.396 . S
C130 C131 1.382 . S
C131 C127 1.381 . S
C131 C130 1.382 . S
C131 H159 0.930 . S
C132 N128 1.328 . S
C132 C129 1.378 . S
C132 H134 0.930 . S
H133 C127 0.931 . S
H134 C132 0.930 . S
C135 O146 1.238 . S
C135 O147 1.253 . S
C136 O148 1.239 . S
C136 O149 1.230 . S
N137 Cd108 2.304 . S
N137 C138 1.337 . S
N137 C142 1.338 . S
C138 N137 1.337 . S
C138 C139 1.379 . S
C138 H152 0.929 . S
C139 C138 1.379 . S
C139 C140 1.380 . S
C139 H160 0.929 . S
C140 C139 1.380 . S
C140 C141 1.399 . S
C141 C140 1.399 . S
C141 C142 1.376 . S
C141 H161 0.931 . S
C142 N137 1.338 . S
C142 C141 1.376 . S
C142 H153 0.930 . S
C143 O150 1.239 . S
C143 O151 1.230 . S
O144 Cd108 2.268 . S
O144 C118 1.238 . S
O145 Cd109 2.273 . S
O145 C118 1.253 . S
O146 Cd109 2.268 . S
O146 C135 1.238 . S
O147 Cd108 2.273 . S
O147 C135 1.253 . S
O148 Cd108 2.417 . S
O148 C136 1.239 . S
O149 Cd108 2.330 . S
O149 C136 1.230 . S
O150 Cd109 2.417 1_545 S
O150 C143 1.239 . S
O151 Cd109 2.330 1_545 S
O151 C143 1.230 . S
H152 C138 0.929 . S
H153 C142 0.930 . S
H154 C112 0.931 . S
H155 C114 0.930 . S
H156 C120 0.929 . S
H157 C122 0.931 . S
H158 C129 0.931 . S
H159 C131 0.930 . S
H160 C139 0.929 . S
H161 C141 0.931 . S
Cd162 N165 2.334 . S
Cd162 N191 2.304 . S
Cd162 O198 2.268 . S
Cd162 O201 2.273 . S
Cd162 O202 2.417 . S
Cd162 O203 2.330 . S
Cd163 N178 2.304 . S
Cd163 N182 2.334 . S
Cd163 O199 2.273 . S
Cd163 O200 2.268 . S
Cd163 O204 2.417 . S
Cd163 O205 2.330 . S
C164 N165 1.332 . S
C164 C168 1.381 . S
C164 H170 0.931 . S
N165 Cd162 2.334 . S
N165 C164 1.332 . S
N165 C169 1.328 . S
C166 C167 1.396 . S
C166 C169 1.378 . S
C166 H208 0.931 . S
C167 C166 1.396 . S
C167 C168 1.382 . S
C168 C164 1.381 . S
C168 C167 1.382 . S
C168 H209 0.930 . S
C169 N165 1.328 . S
C169 C166 1.378 . S
C169 H171 0.930 . S
H170 C164 0.931 . S
H171 C169 0.930 . S
C172 O198 1.238 . S
C172 O199 1.253 . S
C173 C174 1.379 . S
C173 N178 1.337 . S
C173 H179 0.929 . S
C174 C173 1.379 . S
C174 C175 1.380 . S
C174 H210 0.929 . S
C175 C174 1.380 . S
C175 C176 1.399 . S
C176 C175 1.399 . S
C176 C177 1.376 . S
C176 H211 0.931 . S
C177 C176 1.376 . S
C177 N178 1.338 . S
C177 H180 0.930 . S
N178 Cd163 2.304 . S
N178 C173 1.337 . S
N178 C177 1.338 . S
H179 C173 0.929 . S
H180 C177 0.930 . S
C181 N182 1.332 . S
C181 C185 1.381 . S
C181 H187 0.931 . S
N182 Cd163 2.334 . S
N182 C181 1.332 . S
N182 C186 1.328 . S
C183 C184 1.396 . S
C183 C186 1.378 . S
C183 H212 0.931 . S
C184 C183 1.396 . S
C184 C185 1.382 . S
C185 C181 1.381 . S
C185 C184 1.382 . S
C185 H213 0.930 . S
C186 N182 1.328 . S
C186 C183 1.378 . S
C186 H188 0.930 . S
H187 C181 0.931 . S
H188 C186 0.930 . S
C189 O200 1.238 . S
C189 O201 1.253 . S
C190 O202 1.239 . S
C190 O203 1.230 . S
N191 Cd162 2.304 . S
N191 C192 1.337 . S
N191 C196 1.338 . S
C192 N191 1.337 . S
C192 C193 1.379 . S
C192 H206 0.929 . S
C193 C192 1.379 . S
C193 C194 1.380 . S
C193 H214 0.929 . S
C194 C193 1.380 . S
C194 C195 1.399 . S
C195 C194 1.399 . S
C195 C196 1.376 . S
C195 H215 0.931 . S
C196 N191 1.338 . S
C196 C195 1.376 . S
C196 H207 0.930 . S
C197 O204 1.239 . S
C197 O205 1.230 . S
O198 Cd162 2.268 . S
O198 C172 1.238 . S
O199 Cd163 2.273 . S
O199 C172 1.253 . S
O200 Cd163 2.268 . S
O200 C189 1.238 . S
O201 Cd162 2.273 . S
O201 C189 1.253 . S
O202 Cd162 2.417 . S
O202 C190 1.239 . S
O203 Cd162 2.330 . S
O203 C190 1.230 . S
O204 Cd163 2.417 . S
O204 C197 1.239 . S
O205 Cd163 2.330 . S
O205 C197 1.230 . S
H206 C192 0.929 . S
H207 C196 0.930 . S
H208 C166 0.931 . S
H209 C168 0.930 . S
H210 C174 0.929 . S
H211 C176 0.931 . S
H212 C183 0.931 . S
H213 C185 0.930 . S
H214 C193 0.929 . S
H215 C195 0.931 . S
C216 C217 1.170 . S
C216 C218 1.380 . S
C217 C216 1.170 . S
C218 C216 1.380 . S
C218 C219 1.170 . S
C219 C218 1.170 . S
C220 C221 1.170 . S
C220 C222 1.380 . S
C221 C220 1.170 . S
C222 C220 1.380 . S
C222 C223 1.170 . S
C223 C222 1.170 . S
C224 C225 1.170 . S
C224 C226 1.380 1_556 S
C225 C224 1.170 . S
C226 C224 1.380 1_554 S
C226 C227 1.170 . S
C227 C226 1.170 . S
C228 C229 1.170 . S
C228 C230 1.380 . S
C229 C228 1.170 . S
C230 C228 1.380 . S
C230 C231 1.170 . S
C231 C230 1.170 . S
C232 C233 1.170 . S
C232 C234 1.380 . S
C233 C232 1.170 . S
C234 C232 1.380 . S
C234 C235 1.170 . S
C235 C234 1.170 . S
C236 C237 1.170 . S
C236 C238 1.380 . S
C237 C236 1.170 . S
C238 C236 1.380 . S
C238 C239 1.170 . S
C239 C238 1.170 . S
C240 C241 1.170 1_545 S
C240 C242 1.380 1_556 S
C241 C240 1.170 1_565 S
C242 C240 1.380 1_554 S
C242 C243 1.170 . S
C243 C242 1.170 . S
C244 C245 1.170 1_565 S
C244 C246 1.380 . S
C245 C244 1.170 1_545 S
C246 C244 1.380 . S
C246 C247 1.170 . S
C247 C246 1.170 . S
C248 C249 1.170 1_655 S
C248 C250 1.380 . S
C249 C248 1.170 1_455 S
C250 C248 1.380 . S
C250 C251 1.170 . S
C251 C250 1.170 . S
C252 C253 1.170 . S
C252 C254 1.380 . S
C253 C252 1.170 . S
C254 C252 1.380 . S
C254 C255 1.170 . S
C255 C254 1.170 . S
C256 C257 1.170 . S
C256 C258 1.380 . S
C257 C256 1.170 . S
C258 C256 1.380 . S
C258 C259 1.170 . S
C259 C258 1.170 . S
C260 C261 1.170 . S
C260 C262 1.380 1_455 S
C261 C260 1.170 . S
C262 C260 1.380 1_655 S
C262 C263 1.170 . S
C263 C262 1.170 . S
C264 C265 1.170 1_455 S
C264 C266 1.380 . S
C265 C264 1.170 1_655 S
C266 C264 1.380 . S
C266 C267 1.170 . S
C267 C266 1.170 . S
C268 C269 1.170 . S
C268 C270 1.380 1_655 S
C269 C268 1.170 . S
C270 C268 1.380 1_455 S
C270 C271 1.170 . S
C271 C270 1.170 . S
C272 C273 1.170 . S
C272 C274 1.380 . S
C273 C272 1.170 . S
C274 C272 1.380 . S
C274 C275 1.170 . S
C275 C274 1.170 . S
C276 C277 1.170 . S
C276 C278 1.380 . S
C277 C276 1.170 . S
C278 C276 1.380 . S
C278 C279 1.170 . S
C279 C278 1.170 . S
C217 C13 2.106 . S
C219 C76 2.105 . S
C221 C113 2.095 . S
C223 C67 2.114 . S
C225 C140 2.107 . S
C227 C167 2.103 . S
C229 C22 2.121 . S
C231 C194 2.084 . S
C233 C175 2.091 . S
C235 C5 2.117 . S
C237 C86 2.079 . S
C239 C130 2.118 . S
C241 C121 2.115 . S
C243 C184 2.090 . S
C245 C32 2.082 . S
C247 C59 2.108 . S
C249 C28 0.086 . S
C251 C35 0.091 . S
C253 C82 0.102 . S
C255 C89 0.097 . S
C257 C136 0.087 . S
C259 C143 0.092 . S
C261 C197 0.102 . S
C263 C190 0.103 . S
C265 C81 2.072 1_645 S
C267 C64 2.083 1_455 S
C269 C135 2.074 . S
C271 C118 2.092 . S
C273 C189 2.070 . S
C275 C172 2.087 1_565 S
C277 C10 2.088 . S
C279 C27 2.069 . S
