# Generated by pormake.
# Topology zfj, (5)-cn, num edge types: 1
# Building blocks:
#     Node 0, Type 0, BuildingBlock: XOMCOT_clean_sbu_1, # of connection points: 5
#     Node 1, Type 0, BuildingBlock: XOMCOT_clean_sbu_1, # of connection points: 5
#     Node 2, Type 0, BuildingBlock: XOMCOT_clean_sbu_1, # of connection points: 5
#     Node 3, Type 0, BuildingBlock: XOMCOT_clean_sbu_1, # of connection points: 5
#     Node 4, Type 0, BuildingBlock: XOMCOT_clean_sbu_1, # of connection points: 5
#     Node 5, Type 0, BuildingBlock: XOMCOT_clean_sbu_1, # of connection points: 5
#     Node 6, Type 0, BuildingBlock: XOMCOT_clean_sbu_1, # of connection points: 5
#     Node 7, Type 0, BuildingBlock: XOMCOT_clean_sbu_1, # of connection points: 5
#     Node 8, Type 0, BuildingBlock: XOMCOT_clean_sbu_1, # of connection points: 5
#     Node 9, Type 0, BuildingBlock: XOMCOT_clean_sbu_1, # of connection points: 5
#     Node 10, Type 0, BuildingBlock: XOMCOT_clean_sbu_1, # of connection points: 5
#     Node 11, Type 0, BuildingBlock: XOMCOT_clean_sbu_1, # of connection points: 5
#     Node 12, Type 0, BuildingBlock: XOMCOT_clean_sbu_1, # of connection points: 5
#     Node 13, Type 0, BuildingBlock: XOMCOT_clean_sbu_1, # of connection points: 5
#     Node 14, Type 0, BuildingBlock: XOMCOT_clean_sbu_1, # of connection points: 5
#     Node 15, Type 0, BuildingBlock: XOMCOT_clean_sbu_1, # of connection points: 5
#     Edge 16, Type (0, 0), BuildingBlock: EZIPEK_clean_linker_0, # of connection points: 2
#     Edge 17, Type (0, 0), BuildingBlock: EZIPEK_clean_linker_0, # of connection points: 2
#     Edge 18, Type (0, 0), BuildingBlock: EZIPEK_clean_linker_0, # of connection points: 2
#     Edge 19, Type (0, 0), BuildingBlock: EZIPEK_clean_linker_0, # of connection points: 2
#     Edge 20, Type (0, 0), BuildingBlock: EZIPEK_clean_linker_0, # of connection points: 2
#     Edge 21, Type (0, 0), BuildingBlock: EZIPEK_clean_linker_0, # of connection points: 2
#     Edge 22, Type (0, 0), BuildingBlock: EZIPEK_clean_linker_0, # of connection points: 2
#     Edge 23, Type (0, 0), BuildingBlock: EZIPEK_clean_linker_0, # of connection points: 2
#     Edge 24, Type (0, 0), BuildingBlock: EZIPEK_clean_linker_0, # of connection points: 2
#     Edge 25, Type (0, 0), BuildingBlock: EZIPEK_clean_linker_0, # of connection points: 2
#     Edge 26, Type (0, 0), BuildingBlock: EZIPEK_clean_linker_0, # of connection points: 2
#     Edge 27, Type (0, 0), BuildingBlock: EZIPEK_clean_linker_0, # of connection points: 2
#     Edge 28, Type (0, 0), BuildingBlock: EZIPEK_clean_linker_0, # of connection points: 2
#     Edge 29, Type (0, 0), BuildingBlock: EZIPEK_clean_linker_0, # of connection points: 2
#     Edge 30, Type (0, 0), BuildingBlock: EZIPEK_clean_linker_0, # of connection points: 2
#     Edge 31, Type (0, 0), BuildingBlock: EZIPEK_clean_linker_0, # of connection points: 2
#     Edge 32, Type (0, 0), BuildingBlock: EZIPEK_clean_linker_0, # of connection points: 2
#     Edge 33, Type (0, 0), BuildingBlock: EZIPEK_clean_linker_0, # of connection points: 2
#     Edge 34, Type (0, 0), BuildingBlock: EZIPEK_clean_linker_0, # of connection points: 2
#     Edge 35, Type (0, 0), BuildingBlock: EZIPEK_clean_linker_0, # of connection points: 2
#     Edge 36, Type (0, 0), BuildingBlock: EZIPEK_clean_linker_0, # of connection points: 2
#     Edge 37, Type (0, 0), BuildingBlock: EZIPEK_clean_linker_0, # of connection points: 2
#     Edge 38, Type (0, 0), BuildingBlock: EZIPEK_clean_linker_0, # of connection points: 2
#     Edge 39, Type (0, 0), BuildingBlock: EZIPEK_clean_linker_0, # of connection points: 2
#     Edge 40, Type (0, 0), BuildingBlock: EZIPEK_clean_linker_0, # of connection points: 2
#     Edge 41, Type (0, 0), BuildingBlock: EZIPEK_clean_linker_0, # of connection points: 2
#     Edge 42, Type (0, 0), BuildingBlock: EZIPEK_clean_linker_0, # of connection points: 2
#     Edge 43, Type (0, 0), BuildingBlock: EZIPEK_clean_linker_0, # of connection points: 2
#     Edge 44, Type (0, 0), BuildingBlock: EZIPEK_clean_linker_0, # of connection points: 2
#     Edge 45, Type (0, 0), BuildingBlock: EZIPEK_clean_linker_0, # of connection points: 2
#     Edge 46, Type (0, 0), BuildingBlock: EZIPEK_clean_linker_0, # of connection points: 2
#     Edge 47, Type (0, 0), BuildingBlock: EZIPEK_clean_linker_0, # of connection points: 2
#     Edge 48, Type (0, 0), BuildingBlock: EZIPEK_clean_linker_0, # of connection points: 2
#     Edge 49, Type (0, 0), BuildingBlock: EZIPEK_clean_linker_0, # of connection points: 2
#     Edge 50, Type (0, 0), BuildingBlock: EZIPEK_clean_linker_0, # of connection points: 2
#     Edge 51, Type (0, 0), BuildingBlock: EZIPEK_clean_linker_0, # of connection points: 2
#     Edge 52, Type (0, 0), BuildingBlock: EZIPEK_clean_linker_0, # of connection points: 2
#     Edge 53, Type (0, 0), BuildingBlock: EZIPEK_clean_linker_0, # of connection points: 2
#     Edge 54, Type (0, 0), BuildingBlock: EZIPEK_clean_linker_0, # of connection points: 2
#     Edge 55, Type (0, 0), BuildingBlock: EZIPEK_clean_linker_0, # of connection points: 2
# Relax obj value: 0.177
# Max RMSD: 0.148
# Mean RMSD: 0.148
data_MOF--net-zfj--node1-XOMCOT_clean_sbu_1--edge1-EZIPEK_clean_linker_0
_symmetry_space_group_name_H-M    P1
_symmetry_Int_Tables_number       1
_symmetry_cell_setting            triclinic
loop_
_symmetry_equiv_pos_as_xyz
'x, y, z'
_cell_length_a     27.108045
_cell_length_b     27.137536
_cell_length_c     36.420402
_cell_angle_alpha  90.307677
_cell_angle_beta   90.236173
_cell_angle_gamma 89.857858
loop_
_atom_site_label
_atom_site_type_symbol
_atom_site_fract_x
_atom_site_fract_y
_atom_site_fract_z
_atom_type_partial_charge
C0 C 0.53135 0.27794 0.21698 0.0
C1 C 0.53675 0.32796 0.2218 0.0
N2 N 0.51126 0.3509 0.19511 0.0
N3 N 0.50263 0.26899 0.18735 0.0
C4 C 0.48993 0.31446 0.17506 0.0
H5 H 0.54983 0.24966 0.23273 0.0
Co6 Co 0.49535 0.20406 0.16884 0.0
C7 C 0.47356 0.22618 0.08941 0.0
O8 O 0.51341 0.20178 0.07982 0.0
N9 N 0.48842 0.13644 0.15316 0.0
C10 C 0.47421 0.06493 0.1241 0.0
C11 C 0.47203 0.1154 0.1216 0.0
C12 C 0.49892 0.09693 0.17478 0.0
N13 N 0.4914 0.05333 0.15752 0.0
O14 O 0.43329 0.19934 0.19324 0.0
H15 H 0.45844 0.13429 0.09795 0.0
H16 H 0.51277 0.09993 0.20258 0.0
O17 O 0.46141 0.22929 0.12341 0.0
C18 C 0.43789 0.18343 0.22592 0.0
O19 O 0.48259 0.17511 0.23858 0.0
N20 N 0.55901 0.20853 0.14748 0.0
C21 C 0.65822 0.22103 0.12999 0.0
C22 C 0.6237 0.25753 0.1214 0.0
C23 C 0.57427 0.25041 0.13013 0.0
C24 C 0.59251 0.1725 0.15559 0.0
C25 C 0.64194 0.1772 0.14587 0.0
H26 H 0.54863 0.27954 0.12398 0.0
H27 H 0.58217 0.14112 0.17165 0.0
H28 H 0.46818 0.32086 0.15066 0.0
H29 H 0.56032 0.34609 0.24175 0.0
H30 H 0.46337 0.03862 0.10314 0.0
H31 H 0.63514 0.29205 0.10934 0.0
H32 H 0.66794 0.14853 0.15334 0.0
C33 C 0.23753 0.53549 0.69838 0.0
C34 C 0.18775 0.54083 0.70362 0.0
N35 N 0.16492 0.50434 0.68541 0.0
N36 N 0.24664 0.49674 0.67587 0.0
C37 C 0.20132 0.47694 0.66994 0.0
H38 H 0.26551 0.55995 0.70918 0.0
Co39 Co 0.31268 0.48729 0.66006 0.0
C40 C 0.26248 0.44957 0.58593 0.0
O41 O 0.21552 0.45515 0.59326 0.0
N42 N 0.37982 0.47948 0.64693 0.0
C43 C 0.45048 0.45912 0.61945 0.0
C44 C 0.39986 0.45625 0.61754 0.0
C45 C 0.41938 0.4945 0.66688 0.0
N46 N 0.46251 0.48333 0.65044 0.0
O47 O 0.31489 0.42357 0.68268 0.0
H48 H 0.37953 0.43744 0.59614 0.0
H49 H 0.41693 0.51271 0.69329 0.0
O50 O 0.29492 0.46003 0.61048 0.0
C51 C 0.33191 0.4285 0.71527 0.0
O52 O 0.33889 0.47343 0.72789 0.0
N53 N 0.31171 0.55153 0.64088 0.0
C54 C 0.29413 0.65109 0.63022 0.0
C55 C 0.26925 0.61621 0.60895 0.0
C56 C 0.27776 0.56646 0.61533 0.0
C57 C 0.33847 0.58558 0.66008 0.0
C58 C 0.33027 0.6358 0.65512 0.0
H59 H 0.25371 0.54074 0.60194 0.0
H60 H 0.36243 0.57415 0.68211 0.0
H61 H 0.19463 0.44344 0.65471 0.0
H62 H 0.16949 0.57045 0.7183 0.0
H63 H 0.47654 0.44388 0.59998 0.0
H64 H 0.24023 0.62725 0.59014 0.0
H65 H 0.3492 0.66227 0.6725 0.0
C66 C 0.02213 0.23077 0.19586 0.0
C67 C 0.01929 0.18022 0.1975 0.0
N68 N 0.02524 0.16208 0.16339 0.0
N69 N 0.03049 0.24474 0.16093 0.0
C70 C 0.03196 0.20174 0.14172 0.0
H71 H 0.01545 0.25572 0.2185 0.0
Co72 Co 0.02631 0.31051 0.14483 0.0
C73 C 0.0918 0.27771 0.08187 0.0
O74 O 0.13162 0.26854 0.10134 0.0
N75 N 0.02044 0.37612 0.12852 0.0
C76 C 1.00299 0.43954 0.09195 0.0
C77 C 0.01086 0.38959 0.09347 0.0
C78 C 0.01727 0.41873 0.14794 0.0
N79 N 1.00703 0.45767 0.12617 0.0
O80 O 0.09138 0.32414 0.16478 0.0
H81 H 1.00701 0.3644 0.07056 0.0
H82 H 0.02027 0.42104 0.17751 0.0
O83 O 0.05246 0.29292 0.0972 0.0
C84 C 0.09049 0.33799 0.19842 0.0
O85 O 0.04776 0.34244 0.21492 0.0
N86 N 0.96239 0.29846 0.12874 0.0
C87 C 0.86371 0.27456 0.12011 0.0
C88 C 0.89928 0.25313 0.09723 0.0
C89 C 0.94871 0.26638 0.10152 0.0
C90 C 0.92801 0.321 0.15016 0.0
C91 C 0.8782 0.31034 0.1458 0.0
H92 H 0.97586 0.24882 0.08425 0.0
H93 H 0.93963 0.34592 0.17179 0.0
H94 H 0.03505 0.19929 0.11222 0.0
H95 H 0.0109 0.15851 0.22153 0.0
H96 H 0.99308 0.46071 0.0679 0.0
H97 H 0.88912 0.22525 0.07721 0.0
H98 H 0.85151 0.32749 0.1639 0.0
C99 C 0.29407 0.03712 0.72042 0.0
C100 C 0.34454 0.03227 0.72315 0.0
N101 N 0.36125 0.01563 0.69077 0.0
N102 N 0.2787 0.02391 0.68632 0.0
C103 C 0.32112 0.01082 0.66903 0.0
H104 H 0.27028 0.04799 0.7427 0.0
Co105 Co 0.21102 0.01955 0.67079 0.0
C106 C 0.25138 0.02549 0.5924 0.0
O107 O 0.26868 0.98034 0.59214 0.0
N108 N 0.1436 0.01682 0.65615 0.0
C109 C 0.0736 0.03145 0.62577 0.0
C110 C 0.12374 0.03829 0.6261 0.0
C111 C 0.10412 0.99806 0.67414 0.0
N112 N 0.06093 1.00712 0.65637 0.0
O113 O 0.20013 0.08582 0.68732 0.0
H114 H 0.14374 0.05985 0.60633 0.0
H115 H 0.10666 0.98055 0.70072 0.0
O116 O 0.22985 0.04334 0.62091 0.0
C117 C 0.1829 0.08557 0.71989 0.0
O118 O 0.17707 0.04307 0.73645 0.0
N119 N 0.2192 0.95263 0.65823 0.0
C120 C 0.23528 0.85338 0.64445 0.0
C121 C 0.25425 0.8753 0.67621 0.0
C122 C 0.24432 0.92466 0.68318 0.0
C123 C 0.19682 0.93049 0.62875 0.0
C124 C 0.20489 0.88073 0.62108 0.0
H125 H 0.25719 0.9405 0.70872 0.0
H126 H 0.17381 0.9514 0.61038 0.0
H127 H 0.32308 0.99584 0.64174 0.0
H128 H 0.36709 0.03915 0.74723 0.0
H129 H 0.04786 0.04636 0.60588 0.0
H130 H 0.27597 0.85421 0.69566 0.0
H131 H 0.18829 0.86394 0.59699 0.0
C132 C 0.48047 0.19167 0.82972 0.0
C133 C 0.48025 0.141 0.82865 0.0
N134 N 0.48165 0.1245 0.86328 0.0
N135 N 0.48172 0.20776 0.86495 0.0
C136 C 0.48224 0.16535 0.88476 0.0
H137 H 0.48315 0.2145 0.80591 0.0
Co138 Co 0.49281 0.27369 0.88267 0.0
C139 C 0.45712 0.25284 0.94777 0.0
O140 O 0.50394 0.24051 0.94933 0.0
N141 N 0.5049 0.33758 0.90187 0.0
C142 C 0.54413 0.39468 0.93505 0.0
C143 C 0.53736 0.34502 0.92958 0.0
C144 C 0.49243 0.38369 0.89085 0.0
N145 N 0.51661 0.41893 0.91021 0.0
O146 O 0.44588 0.30008 0.84484 0.0
H147 H 0.55738 0.31612 0.94351 0.0
H148 H 0.46974 0.39139 0.86708 0.0
O149 O 0.43936 0.26736 0.91715 0.0
C150 C 0.44692 0.30869 0.8102 0.0
O151 O 0.48759 0.30007 0.7918 0.0
N152 N 0.54966 0.28001 0.85296 0.0
C153 C 0.64941 0.29966 0.84311 0.0
C154 C 0.63384 0.25273 0.85369 0.0
C155 C 0.58391 0.24413 0.85943 0.0
C156 C 0.56413 0.32393 0.83807 0.0
C157 C 0.61399 0.33475 0.83345 0.0
H158 H 0.57373 0.21066 0.87324 0.0
H159 H 0.53789 0.35301 0.8331 0.0
H160 H 0.4856 0.1639 0.91427 0.0
H161 H 0.4811 0.11795 0.8043 0.0
H162 H 0.57022 0.41165 0.95379 0.0
H163 H 0.66044 0.22483 0.86162 0.0
H164 H 0.62482 0.37144 0.82518 0.0
C165 C 0.3026 0.52846 0.31256 0.0
C166 C 0.35292 0.53481 0.31114 0.0
N167 N 0.37363 0.50872 0.33851 0.0
N168 N 0.29126 0.49795 0.34044 0.0
C169 C 0.33562 0.48608 0.35558 0.0
H170 H 0.27558 0.54688 0.29551 0.0
Co171 Co 0.22513 0.48837 0.35566 0.0
C172 C 0.24526 0.47626 0.43658 0.0
O173 O 0.21849 0.51566 0.44325 0.0
N174 N 0.1575 0.47898 0.36946 0.0
C175 C 0.08671 0.46588 0.39899 0.0
C176 C 0.13715 0.4647 0.40157 0.0
C177 C 0.1177 0.48575 0.3471 0.0
N178 N 0.07437 0.47956 0.36484 0.0
O179 O 0.22199 0.42314 0.33234 0.0
H180 H 0.15647 0.45296 0.42569 0.0
H181 H 0.12047 0.49645 0.31859 0.0
O182 O 0.24962 0.45994 0.4035 0.0
C183 C 0.23728 0.41112 0.30025 0.0
O184 O 0.27663 0.43226 0.28676 0.0
N185 N 0.22508 0.55408 0.37461 0.0
C186 C 0.22446 0.6545 0.39179 0.0
C187 C 0.26522 0.62516 0.40082 0.0
C188 C 0.26458 0.57494 0.39233 0.0
C189 C 0.18607 0.58307 0.36473 0.0
C190 C 0.18377 0.63248 0.37479 0.0
H191 H 0.29635 0.55318 0.39941 0.0
H192 H 0.1575 0.5692 0.34714 0.0
H193 H 0.33987 0.46421 0.38012 0.0
H194 H 0.37261 0.55923 0.29295 0.0
H195 H 0.06085 0.45668 0.42046 0.0
H196 H 0.29772 0.64115 0.4135 0.0
H197 H 0.1521 0.65431 0.36659 0.0
C198 C 0.02008 0.32711 0.80082 0.0
C199 C 0.02028 0.37747 0.79757 0.0
N200 N 0.03182 0.39699 0.83048 0.0
N201 N 0.03204 0.31442 0.83554 0.0
C202 C 0.03928 0.3581 0.85299 0.0
H203 H 1.0077 0.30148 0.77996 0.0
Co204 Co 0.01855 0.25026 0.85172 0.0
C205 C 0.02704 0.25869 0.93435 0.0
O206 O 0.9822 0.24212 0.9389 0.0
N207 N 1.00203 0.18384 0.86591 0.0
C208 C 0.9585 0.11818 0.88383 0.0
C209 C 0.96215 0.16857 0.88515 0.0
C210 C 0.02167 0.14095 0.8529 0.0
N211 N 0.99575 0.10088 0.86344 0.0
O212 O 0.08366 0.22697 0.83776 0.0
H213 H 0.93454 0.19224 0.89725 0.0
H214 H 0.0528 0.13893 0.83454 0.0
O215 O 0.04435 0.26503 0.90198 0.0
C216 C 0.11552 0.24229 0.8147 0.0
O217 O 0.11932 0.28936 0.80731 0.0
N218 N 0.95472 0.27167 0.86125 0.0
C219 C 0.85699 0.30168 0.86061 0.0
C220 C 0.8908 0.32424 0.8845 0.0
C221 C 0.93992 0.30853 0.88441 0.0
C222 C 0.92276 0.25184 0.83635 0.0
C223 C 0.87343 0.26541 0.83615 0.0
H224 H 0.966 0.32685 0.90213 0.0
H225 H 0.93589 0.22494 0.81662 0.0
H226 H 0.04536 0.36168 0.88213 0.0
H227 H 0.00829 0.39809 0.77384 0.0
H228 H 0.92934 0.09601 0.8954 0.0
H229 H 0.87927 0.35351 0.90291 0.0
H230 H 0.84833 0.24807 0.81681 0.0
C231 C 0.19389 0.08354 0.37086 0.0
C232 C 0.14382 0.07854 0.36636 0.0
N233 N 0.13408 0.03172 0.35638 0.0
N234 N 0.21622 0.0399 0.3644 0.0
C235 C 0.17881 0.00931 0.35444 0.0
H236 H 0.21252 0.11627 0.38071 0.0
Co237 Co 0.28303 0.02697 0.37628 0.0
C238 C 0.29103 0.08397 0.44662 0.0
O239 O 0.33124 0.10591 0.43536 0.0
N240 N 0.34963 0.01389 0.38855 0.0
C241 C 0.41583 0.98701 0.41898 0.0
C242 C 0.36594 0.99585 0.42096 0.0
C243 C 0.3904 0.01516 0.36715 0.0
N244 N 0.43095 0.99897 0.38511 0.0
O245 O 0.30119 0.09041 0.35816 0.0
H246 H 0.34279 0.98862 0.44443 0.0
H247 H 0.39057 0.02707 0.33888 0.0
O248 O 0.27067 0.05226 0.4255 0.0
C249 C 0.30973 0.08653 0.3239 0.0
O250 O 0.30132 0.04371 0.30802 0.0
N251 N 0.26699 0.9638 0.39076 0.0
C252 C 0.2473 0.86485 0.40146 0.0
C253 C 0.22562 0.90056 0.42429 0.0
C254 C 0.23684 0.95032 0.4189 0.0
C255 C 0.28808 0.92946 0.36845 0.0
C256 C 0.27981 0.87973 0.37394 0.0
H257 H 0.21963 0.97791 0.43612 0.0
H258 H 0.31131 0.94101 0.34602 0.0
H259 H 0.18376 0.97052 0.34839 0.0
H260 H 0.11629 0.1066 0.37179 0.0
H261 H 0.43931 0.9729 0.44065 0.0
H262 H 0.19968 0.89014 0.4454 0.0
H263 H 0.2969 0.85307 0.35571 0.0
C264 C 0.5386 0.68626 0.83629 0.0
C265 C 0.53935 0.63573 0.83756 0.0
N266 N 0.53543 0.6222 0.87275 0.0
N267 N 0.53463 0.70523 0.87061 0.0
C268 C 0.53298 0.66463 0.89233 0.0
H269 H 0.5372 0.7069 0.81135 0.0
Co270 Co 0.52163 0.77246 0.8841 0.0
C271 C 0.55336 0.75843 0.95072 0.0
O272 O 0.5063 0.74711 0.95106 0.0
N273 N 0.508 0.83838 0.89869 0.0
C274 C 0.46651 0.89915 0.92617 0.0
C275 C 0.4733 0.84901 0.92404 0.0
C276 C 0.52193 0.88311 0.88576 0.0
N277 N 0.49664 0.92055 0.90178 0.0
O278 O 0.5697 0.7945 0.84721 0.0
H279 H 0.45202 0.82184 0.93862 0.0
H280 H 0.5471 0.88808 0.86313 0.0
O281 O 0.57313 0.77014 0.92032 0.0
C282 C 0.57119 0.79986 0.81236 0.0
O283 O 0.5318 0.79054 0.79247 0.0
N284 N 0.46673 0.77472 0.85216 0.0
C285 C 0.36783 0.78819 0.8355 0.0
C286 C 0.38417 0.74383 0.85048 0.0
C287 C 0.43356 0.73842 0.8595 0.0
C288 C 0.45183 0.8161 0.83367 0.0
C289 C 0.40218 0.82356 0.82499 0.0
H290 H 0.44363 0.70766 0.87654 0.0
H291 H 0.47712 0.84586 0.82863 0.0
H292 H 0.52729 0.66564 0.92165 0.0
H293 H 0.54037 0.61071 0.81431 0.0
H294 H 0.43922 0.9183 0.94256 0.0
H295 H 0.35805 0.7163 0.85953 0.0
H296 H 0.39024 0.8585 0.81374 0.0
C297 C 0.79361 0.47644 0.32023 0.0
C298 C 0.84228 0.47062 0.311 0.0
N299 N 0.86916 0.50103 0.33229 0.0
N300 N 0.78922 0.51013 0.34748 0.0
C301 C 0.83602 0.52636 0.35281 0.0
H302 H 0.76319 0.45527 0.30914 0.0
Co303 Co 0.72539 0.5196 0.36757 0.0
C304 C 0.78495 0.54439 0.44038 0.0
O305 O 0.8299 0.53216 0.43084 0.0
N306 N 0.65931 0.52826 0.3842 0.0
C307 C 0.59101 0.54039 0.41712 0.0
C308 C 0.64187 0.54082 0.41772 0.0
C309 C 0.61795 0.52215 0.36346 0.0
N310 N 0.57605 0.52835 0.38301 0.0
O311 O 0.72503 0.58535 0.35026 0.0
H312 H 0.66419 0.55022 0.44129 0.0
H313 H 0.61847 0.51224 0.33464 0.0
O314 O 0.74907 0.54071 0.41738 0.0
C315 C 0.71172 0.58479 0.31675 0.0
O316 O 0.70345 0.54184 0.30107 0.0
N317 N 0.72528 0.45328 0.38259 0.0
C318 C 0.73406 0.35206 0.39141 0.0
C319 C 0.77037 0.38348 0.40513 0.0
C320 C 0.76523 0.43394 0.40048 0.0
C321 C 0.68919 0.42286 0.36948 0.0
C322 C 0.69217 0.37206 0.37451 0.0
H323 H 0.79554 0.45672 0.40862 0.0
H324 H 0.65961 0.43715 0.35285 0.0
H325 H 0.84618 0.55582 0.37127 0.0
H326 H 0.85721 0.44321 0.29237 0.0
H327 H 0.56679 0.54849 0.43994 0.0
H328 H 0.80374 0.36895 0.41754 0.0
H329 H 0.66398 0.34835 0.36289 0.0
C330 C 0.02379 0.82273 0.80725 0.0
C331 C 0.02634 0.87291 0.80243 0.0
N332 N 1.00213 0.89485 0.83021 0.0
N333 N 0.99831 0.81265 0.8381 0.0
C334 C 0.98488 0.85762 0.85127 0.0
H335 H 0.04225 0.79529 0.79058 0.0
Co336 Co 0.99735 0.74803 0.85782 0.0
C337 C 0.99249 0.77302 0.93907 0.0
O338 O 0.03365 0.74848 0.9446 0.0
N339 N 0.99676 0.68115 0.87527 0.0
C340 C 0.98848 0.61089 0.90662 0.0
C341 C 0.98457 0.6614 0.90807 0.0
C342 C 1.00628 0.64082 0.85402 0.0
N343 N 1.00245 0.59811 0.87264 0.0
O344 O 0.93129 0.73914 0.84092 0.0
H345 H 0.97245 0.68128 0.93181 0.0
H346 H 0.01559 0.64248 0.82521 0.0
O347 O 0.97361 0.77487 0.90663 0.0
C348 C 0.93414 0.72225 0.80825 0.0
O349 O 0.978 0.7198 0.79308 0.0
N350 N 0.06424 0.75528 0.86994 0.0
C351 C 0.16344 0.77858 0.86331 0.0
C352 C 0.13178 0.80977 0.88275 0.0
C353 C 0.08229 0.79708 0.88606 0.0
C354 C 0.09522 0.7243 0.85146 0.0
C355 C 0.14521 0.73459 0.84863 0.0
H356 H 0.05783 0.82289 0.89889 0.0
H357 H 0.081 0.69378 0.83584 0.0
H358 H 0.96509 0.86324 0.87663 0.0
H359 H 0.04644 0.89198 0.78119 0.0
H360 H 0.98099 0.58538 0.92865 0.0
H361 H 0.14485 0.84441 0.89402 0.0
H362 H 0.16882 0.71012 0.83293 0.0
C363 C 0.70399 0.01962 0.3233 0.0
C364 C 0.65375 0.02396 0.31972 0.0
N365 N 0.63275 0.99022 0.34142 0.0
N366 N 0.71514 0.98403 0.34784 0.0
C367 C 0.67056 0.96535 0.35724 0.0
H368 H 0.73093 0.04315 0.31041 0.0
Co369 Co 0.7821 0.97607 0.3624 0.0
C370 C 0.7345 0.94964 0.43932 0.0
O371 O 0.68787 0.96041 0.43412 0.0
N372 N 0.85045 0.96989 0.37501 0.0
C373 C 0.92052 0.96794 0.40725 0.0
C374 C 0.8702 0.96383 0.40885 0.0
C375 C 0.89055 0.97547 0.35305 0.0
N376 N 0.93361 0.97554 0.37218 0.0
O377 O 0.78356 0.90879 0.34447 0.0
H378 H 0.85 0.95734 0.43371 0.0
H379 H 0.88827 0.98175 0.32386 0.0
O380 O 0.76599 0.95479 0.41341 0.0
C381 C 0.76673 0.89311 0.31367 0.0
O382 O 0.72392 0.90877 0.3015 0.0
N383 N 0.78231 0.0423 0.3775 0.0
C384 C 0.77399 0.14341 0.38745 0.0
C385 C 0.7412 0.11164 0.40472 0.0
C386 C 0.74607 0.06119 0.39942 0.0
C387 C 0.81462 0.07299 0.36051 0.0
C388 C 0.81205 0.1238 0.36596 0.0
H389 H 0.7186 0.03783 0.41108 0.0
H390 H 0.84039 0.05851 0.34077 0.0
H391 H 0.66546 0.93439 0.37526 0.0
H392 H 0.63407 0.05194 0.3044 0.0
H393 H 0.94578 0.96605 0.43032 0.0
H394 H 0.71073 0.12583 0.42082 0.0
H395 H 0.83726 0.14775 0.35154 0.0
C396 C 0.4996 0.77964 0.22432 0.0
C397 C 0.49592 0.82987 0.22916 0.0
N398 N 0.51631 0.85189 0.19992 0.0
N399 N 0.52234 0.76972 0.19222 0.0
C400 C 0.5332 0.81475 0.17837 0.0
H401 H 0.48391 0.752 0.24204 0.0
Co402 Co 0.52704 0.70492 0.17279 0.0
C403 C 0.53552 0.73392 0.09325 0.0
O404 O 0.49164 0.71631 0.0855 0.0
N405 N 0.53248 0.63782 0.15537 0.0
C406 C 0.53383 0.56836 0.12199 0.0
C407 C 0.53505 0.61896 0.12092 0.0
C408 C 0.53068 0.59696 0.17692 0.0
N409 N 0.53061 0.55453 0.15717 0.0
O410 O 0.5925 0.70092 0.19113 0.0
H411 H 0.53664 0.63954 0.09595 0.0
H412 H 0.5271 0.59824 0.20647 0.0
O413 O 0.55316 0.73078 0.12583 0.0
C414 C 0.59369 0.68741 0.22446 0.0
O415 O 0.5517 0.67958 0.24133 0.0
N416 N 0.46002 0.70859 0.15729 0.0
C417 C 0.35824 0.71443 0.14623 0.0
C418 C 0.38837 0.75513 0.13938 0.0
C419 C 0.43918 0.75116 0.14439 0.0
C420 C 0.43055 0.66924 0.16493 0.0
C421 C 0.38016 0.67043 0.15766 0.0
H422 H 0.46152 0.78268 0.13804 0.0
H423 H 0.44513 0.63728 0.17837 0.0
H424 H 0.54986 0.82038 0.15185 0.0
H425 H 0.47654 0.84877 0.25105 0.0
H426 H 0.53434 0.5435 0.09864 0.0
H427 H 0.37269 0.78992 0.13062 0.0
H428 H 0.35793 0.63833 0.16361 0.0
C429 C 0.73055 0.51027 0.72587 0.0
C430 C 0.68001 0.50985 0.72906 0.0
N431 N 0.66058 0.52096 0.6961 0.0
N432 N 0.74302 0.52187 0.69115 0.0
C433 C 0.69939 0.52892 0.67381 0.0
H434 H 0.75641 0.4982 0.74664 0.0
Co435 Co 0.80689 0.51111 0.67359 0.0
C436 C 0.79894 0.52471 0.59144 0.0
O437 O 0.82432 0.48426 0.58614 0.0
N438 N 0.87418 0.49796 0.65789 0.0
C439 C 0.94089 0.45509 0.64009 0.0
C440 C 0.89045 0.45702 0.63995 0.0
C441 C 0.91695 0.52038 0.66847 0.0
N442 N 0.95763 0.49467 0.65823 0.0
O443 O 0.8245 0.57607 0.69008 0.0
H444 H 0.8676 0.42826 0.62846 0.0
H445 H 0.91882 0.55334 0.68509 0.0
O446 O 0.7887 0.53908 0.6242 0.0
C447 C 0.8393 0.57884 0.7233 0.0
O448 O 0.84535 0.53766 0.74163 0.0
N449 N 0.78774 0.44694 0.66109 0.0
C450 C 0.76233 0.34903 0.65009 0.0
C451 C 0.74042 0.38583 0.62889 0.0
C452 C 0.75335 0.43477 0.63511 0.0
C453 C 0.80647 0.41177 0.68383 0.0
C454 C 0.79512 0.36226 0.67827 0.0
H455 H 0.7349 0.46261 0.61954 0.0
H456 H 0.83133 0.42231 0.70581 0.0
H457 H 0.69579 0.53552 0.64486 0.0
H458 H 0.65918 0.49773 0.75264 0.0
H459 H 0.96369 0.42594 0.62882 0.0
H460 H 0.71323 0.37679 0.60805 0.0
H461 H 0.81132 0.3346 0.69599 0.0
C462 C 0.96239 0.72004 0.20386 0.0
C463 C 0.96063 0.66967 0.20119 0.0
N464 N 0.96726 0.65722 0.16588 0.0
N465 N 0.96959 0.73981 0.17034 0.0
C466 C 0.97213 0.70018 0.14753 0.0
H467 H 0.9623 0.7405 0.22932 0.0
Co468 Co 0.98827 0.80628 0.16603 0.0
C469 C 0.98448 0.8286 0.08574 0.0
O470 O 0.02677 0.85174 0.08961 0.0
N471 N 0.00799 0.87417 0.16533 0.0
C472 C 0.04278 0.9425 0.18793 0.0
C473 C 0.03831 0.89267 0.19159 0.0
C474 C 0.99275 0.91507 0.14682 0.0
N475 N 0.01428 0.95683 0.15983 0.0
O476 O 0.92444 0.82661 0.18245 0.0
H477 H 0.05399 0.87236 0.21405 0.0
H478 H 0.96524 0.9147 0.12525 0.0
O479 O 0.96531 0.80839 0.11404 0.0
C480 C 0.92311 0.83546 0.21684 0.0
O481 O 0.96393 0.83238 0.23624 0.0
N482 N 0.05195 0.78476 0.1531 0.0
C483 C 0.14878 0.75208 0.14559 0.0
C484 C 0.11473 0.74502 0.11706 0.0
C485 C 0.06643 0.76209 0.12122 0.0
C486 C 0.08324 0.78596 0.18237 0.0
C487 C 0.13239 0.77257 0.17871 0.0
H488 H 0.04082 0.75524 0.09913 0.0
H489 H 0.06965 0.79598 0.20915 0.0
H490 H 0.9812 0.70214 0.11873 0.0
H491 H 0.95837 0.64396 0.22376 0.0
H492 H 0.06415 0.96688 0.20541 0.0
H493 H 0.12551 0.72689 0.09175 0.0
H494 H 0.157 0.7765 0.20206 0.0
C495 C 0.78473 1.00397 0.71852 0.0
C496 C 0.83492 0.00733 0.72363 0.0
N497 N 0.85736 0.9852 0.69504 0.0
N498 N 0.77519 0.98001 0.68676 0.0
C499 C 0.8204 0.96825 0.6733 0.0
H500 H 0.75687 0.02042 0.73588 0.0
Co501 Co 0.7103 0.97339 0.66813 0.0
C502 C 0.72817 0.96254 0.58847 0.0
O503 O 0.69747 0.99945 0.58355 0.0
N504 N 0.64308 0.96507 0.65195 0.0
C505 C 0.57331 0.94082 0.62411 0.0
C506 C 0.62406 0.93974 0.62303 0.0
C507 C 0.60235 0.97817 0.67141 0.0
N508 N 0.5599 0.96533 0.65451 0.0
O509 O 0.70708 0.90961 0.68888 0.0
H510 H 0.64497 0.92014 0.60269 0.0
H511 H 0.60351 0.9968 0.69774 0.0
O512 O 0.73647 0.94638 0.62095 0.0
C513 C 0.68849 0.91414 0.72077 0.0
O514 O 0.67937 0.95875 0.73325 0.0
N515 N 0.71291 0.03966 0.65057 0.0
C516 C 0.72328 0.14069 0.63912 0.0
C517 C 0.76138 0.10826 0.62983 0.0
C518 C 0.75504 0.05783 0.63511 0.0
C519 C 0.67534 0.07135 0.65898 0.0
C520 C 0.67881 0.12146 0.6518 0.0
H521 H 0.78525 0.03386 0.62855 0.0
H522 H 0.64356 0.05951 0.67366 0.0
H523 H 0.82632 0.95091 0.64686 0.0
H524 H 0.85348 0.0277 0.74523 0.0
H525 H 0.54817 0.92472 0.60427 0.0
H526 H 0.79646 0.12191 0.62007 0.0
H527 H 0.64873 0.14567 0.6596 0.0
C528 C 0.41326 0.21198 0.03898 0.0
C529 C 0.44226 0.24596 0.05921 0.0
C530 C 0.44431 0.29896 1.00512 0.0
C531 C 0.43092 0.2581 0.98315 0.0
N532 N 0.3955 0.17748 0.9786 0.0
N533 N 0.48055 0.32569 0.06276 0.0
C534 C 0.41182 0.2155 1.0 0.0
C535 C 0.45507 0.29144 0.04291 0.0
N536 N 0.38807 0.17636 0.05719 0.0
N537 N 0.44865 0.34406 0.98921 0.0
H538 H 0.48752 0.32123 0.09065 0.0
H539 H 0.49602 0.35716 0.05135 0.0
H540 H 0.43953 0.34927 0.96162 0.0
H541 H 0.45603 0.37627 1.0039 0.0
H542 H 0.36431 0.1516 0.04424 0.0
H543 H 0.38712 0.17586 0.08585 0.0
H544 H 0.38605 0.1431 0.98899 0.0
H545 H 0.39312 0.18058 0.95006 0.0
C546 C 0.24277 0.41316 0.48687 0.0
C547 C 0.26804 0.45164 0.46897 0.0
C548 C 0.3062 0.47703 0.5271 0.0
C549 C 0.27606 0.44246 0.5462 0.0
N550 N 0.23004 0.3669 0.54315 0.0
N551 N 0.33852 0.50419 0.46843 0.0
C552 C 0.2493 0.4067 0.52551 0.0
C553 C 0.30493 0.47793 0.48805 0.0
N554 N 0.21109 0.38437 0.46707 0.0
N555 N 0.33315 0.51162 0.54561 0.0
H556 H 0.33836 0.50374 0.43981 0.0
H557 H 0.36935 0.52107 0.48007 0.0
H558 H 0.33896 0.51138 0.57368 0.0
H559 H 0.34873 0.54218 0.533 0.0
H560 H 0.18662 0.3595 0.47872 0.0
H561 H 0.20926 0.38619 0.43848 0.0
H562 H 0.21277 0.33765 0.52975 0.0
H563 H 0.23549 0.36121 0.57121 0.0
C564 C 0.075 0.2224 0.98641 0.0
C565 C 0.05814 0.26516 0.96779 0.0
C566 C 0.08446 0.316 0.02014 0.0
C567 C 0.09155 0.27288 0.04121 0.0
N568 N 0.09586 0.18445 0.04481 0.0
N569 N 0.04438 0.35295 0.9676 0.0
C570 C 0.08848 0.22581 0.02426 0.0
C571 C 0.0631 0.31223 0.98453 0.0
N572 N 0.07763 0.1786 0.96782 0.0
N573 N 0.09816 0.36058 0.03442 0.0
H574 H 0.0284 0.35149 0.94164 0.0
H575 H 0.04151 0.38731 0.9803 0.0
H576 H 0.11424 0.36399 0.06042 0.0
H577 H 0.09791 0.39312 0.01938 0.0
H578 H 0.09325 0.14675 0.97869 0.0
H579 H 0.06798 0.1753 0.94013 0.0
H580 H 0.08815 0.14894 0.03552 0.0
H581 H 0.10796 0.18588 0.072 0.0
C582 C 0.22699 0.06796 0.49476 0.0
C583 C 0.27384 0.08744 0.4859 0.0
C584 C 0.29755 0.0831 0.55108 0.0
C585 C 0.25497 0.05419 0.55791 0.0
N586 N 0.17926 0.01767 0.53581 0.0
N587 N 0.34084 0.13714 0.50916 0.0
C588 C 0.21923 0.04701 0.52982 0.0
C589 C 0.30563 0.10223 0.5151 0.0
N590 N 0.18918 0.07205 0.4701 0.0
N591 N 0.33126 0.09031 0.57858 0.0
H592 H 0.3424 0.15732 0.48498 0.0
H593 H 0.36353 0.15149 0.52967 0.0
H594 H 0.32501 0.07915 0.60552 0.0
H595 H 0.36615 0.10519 0.57453 0.0
H596 H 0.15295 0.06199 0.47574 0.0
H597 H 0.19313 0.09189 0.44588 0.0
H598 H 0.15552 1.00597 0.51497 0.0
H599 H 0.17174 1.00214 0.5612 0.0
C600 C 0.56371 0.80474 1.00807 0.0
C601 C 0.57837 0.76393 0.98656 0.0
C602 C 0.59453 0.71737 0.04256 0.0
C603 C 0.56541 0.75193 0.06217 0.0
N604 N 0.52652 0.83162 0.06522 0.0
N605 N 0.61506 0.68373 0.98244 0.0
C606 C 0.55253 0.79736 0.04569 0.0
C607 C 0.59754 0.72138 1.00369 0.0
N608 N 0.55822 0.84952 0.99174 0.0
N609 N 0.61767 0.68035 0.06109 0.0
H610 H 0.61863 0.68729 0.95403 0.0
H611 H 0.62452 0.64921 0.99268 0.0
H612 H 0.61665 0.67834 0.08968 0.0
H613 H 0.64146 0.65516 0.04869 0.0
H614 H 0.54989 0.88179 1.00604 0.0
H615 H 0.56709 0.85453 0.96413 0.0
H616 H 0.51127 0.86323 0.05367 0.0
H617 H 0.51855 0.82704 0.09297 0.0
C618 C 0.74238 0.52375 0.50044 0.0
C619 C 0.776 0.55334 0.48032 0.0
C620 C 0.81341 0.58107 0.53855 0.0
C621 C 0.78066 0.55031 0.55798 0.0
N622 N 0.7009 0.51255 0.55831 0.0
N623 N 0.83289 0.62148 0.48101 0.0
C624 C 0.74055 0.52878 0.53912 0.0
C625 C 0.80781 0.58611 0.49976 0.0
N626 N 0.71542 0.48755 0.48371 0.0
N627 N 0.85134 0.6032 0.557 0.0
H628 H 0.82868 0.62628 0.45275 0.0
H629 H 0.85388 0.64872 0.49385 0.0
H630 H 0.85452 0.60148 0.58556 0.0
H631 H 0.88014 0.62141 0.54401 0.0
H632 H 0.69506 0.46174 0.49834 0.0
H633 H 0.71647 0.48016 0.45577 0.0
H634 H 0.66891 0.49922 0.54579 0.0
H635 H 0.69785 0.5195 0.58626 0.0
C636 C 0.97734 0.85796 0.02094 0.0
C637 C 0.96474 0.82169 0.04726 0.0
C638 C 0.94168 0.76661 0.99608 0.0
C639 C 0.96876 0.79656 0.97178 0.0
N640 N 1.00586 0.87499 0.9594 0.0
N641 N 0.92362 0.74396 0.0588 0.0
C642 C 0.98386 0.84396 0.98358 0.0
C643 C 0.94265 0.77698 0.03461 0.0
N644 N 0.98221 0.90595 0.03179 0.0
N645 N 0.91354 0.72949 0.98186 0.0
H646 H 0.91527 0.75276 0.08586 0.0
H647 H 0.91513 0.70774 0.05166 0.0
H648 H 0.90923 0.72505 0.95355 0.0
H649 H 0.88999 0.70781 0.99744 0.0
H650 H 0.98779 0.9349 0.01363 0.0
H651 H 0.97494 0.91727 0.05867 0.0
H652 H 0.02391 0.90727 0.96717 0.0
H653 H 1.00644 0.86755 0.93141 0.0
C654 C 0.72932 0.90046 0.49723 0.0
C655 C 0.75072 0.9404 0.47787 0.0
C656 C 0.78385 0.97211 0.53605 0.0
C657 C 0.75158 0.94113 0.5552 0.0
N658 N 0.70335 0.86757 0.55634 0.0
N659 N 0.79892 0.01566 0.47991 0.0
C660 C 0.72801 0.90199 0.53644 0.0
C661 C 0.77942 0.97593 0.49739 0.0
N662 N 0.7099 0.8618 0.47789 0.0
N663 N 0.81823 0.9983 0.55526 0.0
H664 H 0.79751 0.02013 0.4517 0.0
H665 H 0.81425 0.04567 0.49375 0.0
H666 H 0.82296 0.9931 0.58341 0.0
H667 H 0.84549 0.01944 0.54288 0.0
H668 H 0.69566 0.83022 0.4899 0.0
H669 H 0.71138 0.85999 0.44926 0.0
H670 H 0.68069 0.84058 0.54498 0.0
H671 H 0.70638 0.86638 0.58491 0.0
C672 C 0.55188 0.93487 0.18948 0.0
C673 C 0.51045 0.90318 0.18999 0.0
C674 C 0.4563 0.97341 0.17602 0.0
C675 C 0.49808 1.00392 0.17149 0.0
N676 N 0.58625 0.01272 0.16922 0.0
N677 N 0.42414 0.89023 0.17752 0.0
C678 C 0.54616 0.98446 0.17718 0.0
C679 C 0.46281 0.92195 0.18165 0.0
N680 N 0.5964 0.91765 0.20154 0.0
N681 N 0.41035 0.99412 0.17575 0.0
H682 H 0.42789 0.85222 0.1804 0.0
H683 H 0.38955 0.90099 0.16788 0.0
H684 H 0.40481 0.03192 0.17249 0.0
H685 H 0.37844 0.97483 0.18232 0.0
H686 H 0.62718 0.93999 0.20539 0.0
H687 H 0.60129 0.88147 0.21044 0.0
H688 H 0.62227 0.99933 0.1693 0.0
H689 H 0.58306 0.04878 0.15975 0.0
C690 C 0.59334 0.46262 0.68141 0.0
C691 C 0.61042 0.51181 0.68469 0.0
C692 C 0.52982 0.54243 0.66402 0.0
C693 C 0.51172 0.49343 0.66361 0.0
N694 N 0.52272 0.40799 0.67851 0.0
N695 N 0.5945 0.59875 0.68382 0.0
C696 C 0.54256 0.45379 0.67421 0.0
C697 C 0.57843 0.55186 0.67734 0.0
N698 N 0.6261 0.42444 0.68382 0.0
N699 N 0.50114 0.5795 0.6503 0.0
H700 H 0.6302 0.60625 0.69312 0.0
H701 H 0.57176 0.62966 0.68253 0.0
H702 H 0.46569 0.57347 0.64002 0.0
H703 H 0.51364 0.61536 0.64655 0.0
H704 H 0.61686 0.38798 0.67805 0.0
H705 H 0.66373 0.42972 0.68833 0.0
H706 H 0.5421 0.37837 0.68959 0.0
H707 H 0.48532 0.40089 0.6742 0.0
C708 C 0.0366 0.54202 0.13866 0.0
C709 C 0.99728 0.5079 0.13693 0.0
C710 C 0.93782 0.5743 0.14908 0.0
C711 C 0.97738 0.60786 0.15311 0.0
N712 N 0.06457 0.62353 0.15692 0.0
N713 N 0.91136 0.48893 0.14333 0.0
C714 C 0.02692 0.59174 0.14912 0.0
C715 C 0.94801 0.52338 0.14294 0.0
N716 N 0.08303 0.52671 0.12959 0.0
N717 N 0.89056 0.59176 0.15063 0.0
H718 H 0.91812 0.45158 0.13854 0.0
H719 H 0.87502 0.49649 0.15054 0.0
H720 H 0.88264 0.62898 0.15507 0.0
H721 H 0.85946 0.57052 0.1452 0.0
H722 H 0.11287 0.55039 0.12658 0.0
H723 H 0.09101 0.49016 0.12276 0.0
H724 H 0.10149 0.61306 0.15808 0.0
H725 H 0.05864 0.66006 0.16476 0.0
C726 C 0.94086 0.94851 0.68707 0.0
C727 C 0.90897 0.98994 0.68569 0.0
C728 C 0.9797 0.0431 0.67266 0.0
C729 C 0.0108 1.00108 0.66948 0.0
N730 N 0.01969 0.91283 0.66942 0.0
N731 N 0.89633 0.07517 0.67047 0.0
C732 C 0.99111 0.95341 0.67583 0.0
C733 C 0.928 0.03686 0.67668 0.0
N734 N 0.92317 0.90483 0.69983 0.0
N735 N 0.99983 0.08917 0.67294 0.0
H736 H 0.85813 0.07151 0.6721 0.0
H737 H 0.90756 0.10903 0.66012 0.0
H738 H 0.03765 0.09527 0.67099 0.0
H739 H 0.9797 0.12091 0.67902 0.0
H740 H 0.94545 0.87436 0.70515 0.0
H741 H 0.8865 0.90053 0.70782 0.0
H742 H 1.00624 0.87694 0.67012 0.0
H743 H 0.05612 0.91526 0.66057 0.0
C744 C 0.57256 0.54057 0.88305 0.0
C745 C 0.53108 0.57208 0.8854 0.0
C746 C 0.48065 0.50284 0.90681 0.0
C747 C 0.52106 0.47054 0.90122 0.0
N748 N 0.60301 0.45685 0.87793 0.0
N749 N 0.44381 0.58266 0.89418 0.0
C750 C 0.56648 0.48897 0.88777 0.0
C751 C 0.48455 0.55312 0.89602 0.0
N752 N 0.61797 0.56045 0.87683 0.0
N753 N 0.43906 0.4855 0.92328 0.0
H754 H 0.44558 0.61938 0.8861 0.0
H755 H 0.408 0.56993 0.89792 0.0
H756 H 0.43545 0.44883 0.93131 0.0
H757 H 0.40992 0.508 0.9315 0.0
H758 H 0.65068 0.54034 0.87818 0.0
H759 H 0.62321 0.59826 0.87353 0.0
H760 H 0.63506 0.46742 0.86446 0.0
H761 H 0.59928 0.41882 0.88018 0.0
C762 C 0.94077 0.45075 0.35202 0.0
C763 C 0.92156 0.49622 0.33913 0.0
C764 C 1.00479 0.5316 0.34194 0.0
C765 C 0.02431 0.48468 0.35144 0.0
N766 N 0.01224 0.3974 0.35655 0.0
N767 N 0.93598 0.57747 0.31582 0.0
C768 C 0.99256 0.44354 0.35347 0.0
C769 C 0.95388 0.53597 0.33218 0.0
N770 N 0.90962 0.41548 0.36499 0.0
N771 N 0.03404 0.57232 0.34426 0.0
H772 H 0.89888 0.58133 0.3086 0.0
H773 H 0.95845 0.60599 0.30678 0.0
H774 H 0.07084 0.57052 0.35241 0.0
H775 H 0.02075 0.60811 0.34116 0.0
H776 H 0.92194 0.3834 0.37771 0.0
H777 H 0.87163 0.42078 0.36695 0.0
H778 H 0.9911 0.36543 0.35501 0.0
H779 H 0.05026 0.39118 0.35668 0.0
C780 C 0.97684 0.03149 0.82128 0.0
C781 C 1.00205 0.04997 0.85263 0.0
C782 C 0.03175 0.96669 0.86661 0.0
C783 C 1.0018 0.94727 0.83797 0.0
N784 N 0.9441 0.95994 0.7888 0.0
N785 N 0.05006 0.03583 0.90702 0.0
C786 C 0.97413 0.97949 0.81528 0.0
C787 C 0.0286 0.01765 0.87581 0.0
N788 N 0.95575 0.06396 0.79735 0.0
N789 N 0.06515 0.93678 0.88359 0.0
H790 H 0.0499 0.07334 0.91351 0.0
H791 H 0.06528 0.01362 0.92739 0.0
H792 H 0.0701 0.90026 0.87565 0.0
H793 H 0.09113 0.94918 0.90261 0.0
H794 H 0.94072 0.05382 0.77209 0.0
H795 H 0.95662 0.10198 0.80171 0.0
H796 H 0.91984 0.98062 0.77295 0.0
H797 H 0.94113 0.92206 0.78429 0.0
C798 C 0.49748 0.95869 0.34917 0.0
C799 C 0.48117 0.99768 0.37224 0.0
C800 C 0.56575 0.02846 0.37753 0.0
C801 C 0.58185 0.99112 0.35288 0.0
N802 N 0.56344 0.92471 0.3114 0.0
N803 N 0.49688 0.07423 0.40328 0.0
C804 C 0.54772 0.95727 0.33758 0.0
C805 C 0.51461 0.03388 0.38496 0.0
N806 N 0.46508 0.92247 0.33936 0.0
N807 N 0.59975 0.05797 0.39445 0.0
H808 H 0.45941 0.07913 0.40872 0.0
H809 H 0.51833 0.10464 0.41028 0.0
H810 H 0.6374 0.05514 0.38932 0.0
H811 H 0.59129 0.08256 0.41554 0.0
H812 H 0.47522 0.89052 0.32533 0.0
H813 H 0.42814 0.92317 0.3473 0.0
H814 H 0.53992 0.90199 0.29633 0.0
H815 H 0.60025 0.92272 0.30319 0.0
C816 C 0.53066 0.05443 0.88815 0.0
C817 C 0.48552 0.07338 0.87414 0.0
C818 C 0.45103 0.9898 0.87324 0.0
C819 C 0.49429 0.97163 0.89062 0.0
N820 N 0.57301 0.98689 0.91875 0.0
N821 N 0.40051 0.06093 0.85806 0.0
C822 C 0.53359 1.00407 0.89916 0.0
C823 C 0.44507 0.04144 0.86798 0.0
N824 N 0.5712 0.08412 0.88948 0.0
N825 N 0.4164 0.9573 0.86068 0.0
H826 H 0.39513 0.0987 0.85455 0.0
H827 H 0.36813 0.04046 0.85646 0.0
H828 H 0.42037 0.9193 0.86348 0.0
H829 H 0.38621 0.96749 0.84464 0.0
H830 H 0.60645 0.0715 0.89599 0.0
H831 H 0.57027 0.12075 0.88106 0.0
H832 H 0.60073 0.00951 0.92921 0.0
H833 H 0.57604 0.95016 0.92682 0.0
C834 C 0.45687 0.47192 0.34766 0.0
C835 C 0.42439 0.5127 0.35085 0.0
C836 C 0.49382 0.56479 0.37061 0.0
C837 C 0.5254 0.52313 0.37065 0.0
N838 N 0.53536 0.43531 0.36518 0.0
N839 N 0.40977 0.59547 0.37223 0.0
C840 C 0.50649 0.47612 0.3607 0.0
C841 C 0.44233 0.55851 0.36428 0.0
N842 N 0.44055 0.42968 0.33118 0.0
N843 N 0.51352 0.61064 0.3754 0.0
H844 H 0.37178 0.59149 0.36892 0.0
H845 H 0.41988 0.62811 0.38539 0.0
H846 H 0.55128 0.61632 0.3791 0.0
H847 H 0.49333 0.64304 0.37217 0.0
H848 H 0.46357 0.40022 0.32452 0.0
H849 H 0.40444 0.4258 0.32156 0.0
H850 H 0.52244 0.39947 0.36173 0.0
H851 H 0.57123 0.4372 0.37552 0.0
C852 C 0.97614 0.46713 0.84438 0.0
C853 C 0.02469 0.44793 0.84103 0.0
C854 C 0.05882 0.52884 0.85772 0.0
C855 C 0.01035 0.54845 0.85939 0.0
N856 N 0.92351 0.53959 0.84876 0.0
N857 N 0.11211 0.46072 0.83938 0.0
C858 C 0.96916 0.51843 0.85103 0.0
C859 C 0.06607 0.47896 0.84627 0.0
N860 N 0.93684 0.43582 0.84239 0.0
N861 N 0.09762 0.55772 0.86822 0.0
H862 H 0.11803 0.42418 0.83143 0.0
H863 H 0.14383 0.48223 0.8391 0.0
H864 H 0.09317 0.59448 0.87611 0.0
H865 H 0.13357 0.54475 0.87118 0.0
H866 H 0.9007 0.44627 0.84811 0.0
H867 H 0.94084 0.39812 0.83769 0.0
H868 H 0.89225 0.52125 0.83927 0.0
H869 H 0.91783 0.57708 0.85365 0.0
C870 C 0.99751 0.02671 0.34027 0.0
C871 C 0.98392 0.98372 0.35997 0.0
C872 C 0.071 0.9693 0.37503 0.0
C873 C 0.08496 0.01063 0.35366 0.0
N874 N 0.06215 0.06787 0.30636 0.0
N875 N 0.01 0.90553 0.38407 0.0
C876 C 0.0483 0.03549 0.33289 0.0
C877 C 0.02164 0.95197 0.37299 0.0
N878 N 0.9631 0.06133 0.33123 0.0
N879 N 0.1029 0.94927 0.39986 0.0
H880 H 0.97422 0.89166 0.38175 0.0
H881 H 0.03664 0.87958 0.39143 0.0
H882 H 0.13723 0.96438 0.40561 0.0
H883 H 0.09271 0.92161 0.41806 0.0
H884 H 0.97227 0.09527 0.31989 0.0
H885 H 0.92626 0.05869 0.33859 0.0
H886 H 0.03706 0.08424 0.28837 0.0
H887 H 0.09914 0.07381 0.29992 0.0
C888 C 0.56086 0.42053 0.17158 0.0
C889 C 0.51565 0.40246 0.18565 0.0
C890 C 0.47987 0.48554 0.1812 0.0
C891 C 0.52621 0.5042 0.16976 0.0
N892 N 0.61269 0.49161 0.15973 0.0
N893 N 0.4346 0.41823 0.20917 0.0
C894 C 0.56728 0.47217 0.16668 0.0
C895 C 0.47582 0.43521 0.19203 0.0
N896 N 0.59695 0.38797 0.16162 0.0
N897 N 0.43934 0.51539 0.18002 0.0
H898 H 0.43077 0.38145 0.21687 0.0
H899 H 0.40609 0.44103 0.21815 0.0
H900 H 0.44118 0.55191 0.17151 0.0
H901 H 0.40357 0.50303 0.18458 0.0
H902 H 0.62889 0.3981 0.14784 0.0
H903 H 0.59296 0.34998 0.16432 0.0
H904 H 0.64523 0.47118 0.16046 0.0
H905 H 0.61819 0.52939 0.15641 0.0
C906 C 0.08014 0.48902 0.70735 0.0
C907 C 0.11241 0.50228 0.67857 0.0
C908 C 0.04142 0.51658 0.63781 0.0
C909 C 0.00904 0.50354 0.66661 0.0
N910 N 0.99618 0.48504 0.73034 0.0
N911 N 0.12435 0.53916 0.61941 0.0
C912 C 0.02804 0.49238 0.70198 0.0
C913 C 0.09318 0.51893 0.64454 0.0
N914 N 0.0997 0.47144 0.73934 0.0
N915 N 0.02229 0.52627 0.60385 0.0
H916 H 0.16221 0.54228 0.62389 0.0
H917 H 0.11252 0.55642 0.59548 0.0
H918 H 0.98438 0.52833 0.59894 0.0
H919 H 0.04363 0.53022 0.58036 0.0
H920 H 0.07878 0.45709 0.7606 0.0
H921 H 0.13766 0.46821 0.7436 0.0
H922 H 1.00721 0.48364 0.75771 0.0
H923 H 0.95804 0.48407 0.72682 0.0
C924 C 0.05368 0.03097 0.13561 0.0
C925 C 0.01032 0.00752 0.14811 0.0
C926 C 0.97201 0.08859 0.15756 0.0
C927 C 0.01857 0.1112 0.1525 0.0
N928 N 0.10417 0.1048 0.13624 0.0
N929 N 0.92678 0.01322 0.16944 0.0
C930 C 0.05935 0.08277 0.1405 0.0
C931 C 0.96859 0.03617 0.1579 0.0
N932 N 0.08972 1.00283 0.1199 0.0
N933 N 0.93124 0.11767 0.16181 0.0
H934 H 0.92255 0.97513 0.16803 0.0
H935 H 0.89715 0.03161 0.18144 0.0
H936 H 0.93317 0.15605 0.16079 0.0
H937 H 0.89541 0.10405 0.16288 0.0
H938 H 0.12108 0.01731 0.10763 0.0
H939 H 0.08558 0.96484 0.1163 0.0
H940 H 0.13668 0.0855 0.13116 0.0
H941 H 0.10939 0.14254 0.13998 0.0
C942 C 0.4412 0.03739 0.66303 0.0
C943 C 0.41155 1.00298 0.68187 0.0
C944 C 0.48162 0.94556 0.68569 0.0
C945 C 0.51033 0.97871 0.6649 0.0
N946 N 0.51798 0.05393 0.63104 0.0
N947 N 0.40041 0.92301 0.70838 0.0
C948 C 0.49022 0.02415 0.65287 0.0
C949 C 0.431 0.95665 0.69257 0.0
N950 N 0.42247 0.08309 0.65573 0.0
N951 N 0.50338 0.90396 0.69924 0.0
H952 H 0.36335 0.93056 0.71371 0.0
H953 H 0.41055 0.88688 0.7142 0.0
H954 H 0.5402 0.89512 0.69402 0.0
H955 H 0.48633 0.87991 0.71733 0.0
H956 H 0.44299 0.1119 0.64496 0.0
H957 H 0.38649 0.09319 0.66261 0.0
H958 H 0.50456 0.08543 0.61823 0.0
H959 H 0.55436 0.04556 0.62407 0.0
C960 C 0.78082 0.2614 0.08956 0.0
C961 C 0.81229 0.25611 0.12054 0.0
C962 C 0.74248 0.2306 0.15783 0.0
C963 C 0.71173 0.23112 0.12619 0.0
N964 N 0.70462 0.23596 0.06018 0.0
N965 N 0.82557 0.22044 0.18045 0.0
C966 C 0.73183 0.24308 0.09141 0.0
C967 C 0.79392 0.2357 0.15348 0.0
N968 N 0.79677 0.2857 0.0591 0.0
N969 N 0.72269 0.2283 0.19225 0.0
H970 H 0.86385 0.22183 0.17772 0.0
H971 H 0.8138 0.20141 0.2036 0.0
H972 H 0.68484 0.22806 0.19717 0.0
H973 H 0.74382 0.23241 0.21605 0.0
H974 H 0.77357 0.29485 0.03728 0.0
H975 H 0.83206 0.30058 0.05698 0.0
H976 H 0.71913 0.23988 0.03391 0.0
H977 H 0.66905 0.22139 0.06048 0.0
C978 C 0.30058 0.73872 0.60994 0.0
C979 C 0.27638 0.70245 0.63106 0.0
C980 C 0.22168 0.76464 0.65802 0.0
C981 C 0.24599 0.80101 0.63701 0.0
N982 N 0.30335 0.82373 0.58957 0.0
N983 N 0.21022 0.67803 0.6713 0.0
C984 C 0.28374 0.78829 0.61172 0.0
C985 C 0.23568 0.71457 0.65388 0.0
N986 N 0.34054 0.72575 0.58914 0.0
N987 N 0.18619 0.77839 0.68271 0.0
H988 H 0.22079 0.6411 0.67067 0.0
H989 H 0.17688 0.68344 0.68478 0.0
H990 H 0.1724 0.81424 0.6846 0.0
H991 H 0.17168 0.75513 0.70252 0.0
H992 H 0.36338 0.75083 0.57605 0.0
H993 H 0.35261 0.6894 0.58629 0.0
H994 H 0.32727 0.8164 0.56796 0.0
H995 H 0.29346 0.86082 0.59126 0.0
C996 C 0.78387 0.33433 0.827 0.0
C997 C 0.80421 0.3155 0.86 0.0
C998 C 0.7215 0.30817 0.88519 0.0
C999 C 0.70168 0.31373 0.84934 0.0
N1000 N 0.7139 0.33408 0.78557 0.0
N1001 N 0.79196 0.28199 0.92075 0.0
C1002 C 0.73262 0.32846 0.82012 0.0
C1003 C 0.77304 0.30264 0.88956 0.0
N1004 N 0.81386 0.3571 0.80228 0.0
N1005 N 0.69095 0.30826 0.91495 0.0
H1006 H 0.82954 0.27633 0.9251 0.0
H1007 H 0.7699 0.26691 0.94117 0.0
H1008 H 0.65297 0.31398 0.9126 0.0
H1009 H 0.70392 0.30832 0.94193 0.0
H1010 H 0.8008 0.37531 0.77907 0.0
H1011 H 0.85152 0.36205 0.80714 0.0
H1012 H 0.7359 0.34057 0.76278 0.0
H1013 H 0.67673 0.32915 0.77923 0.0
C1014 C 0.21384 0.79062 0.37036 0.0
C1015 C 0.2331 0.81219 0.40281 0.0
C1016 C 0.23573 0.73068 0.43115 0.0
C1017 C 0.22628 0.7089 0.39625 0.0
N1018 N 0.21898 0.72008 0.33039 0.0
N1019 N 0.2681 0.80188 0.46346 0.0
C1020 C 0.21849 0.73935 0.36516 0.0
C1021 C 0.24532 0.78212 0.4333 0.0
N1022 N 0.19158 0.81923 0.34433 0.0
N1023 N 0.23453 0.70267 0.46218 0.0
H1024 H 0.27634 0.83925 0.46592 0.0
H1025 H 0.28233 0.78048 0.48471 0.0
H1026 H 0.22608 0.66519 0.46171 0.0
H1027 H 0.23696 0.71767 0.48852 0.0
H1028 H 0.17371 0.8044 0.32141 0.0
H1029 H 0.18631 0.85709 0.34788 0.0
H1030 H 0.21757 0.74201 0.30699 0.0
H1031 H 0.22686 0.6832 0.32475 0.0
C1032 C 0.24912 0.79749 0.88526 0.0
C1033 C 0.21492 0.79296 0.85592 0.0
C1034 C 0.28167 0.79789 0.81105 0.0
C1035 C 0.31552 0.80122 0.84052 0.0
N1036 N 0.331 0.82289 0.90378 0.0
N1037 N 0.19636 0.80531 0.79167 0.0
C1038 C 0.29884 0.80784 0.87701 0.0
C1039 C 0.23049 0.79871 0.81894 0.0
N1040 N 0.23522 0.78828 0.92061 0.0
N1041 N 0.29838 0.79184 0.77599 0.0
H1042 H 0.15857 0.80738 0.79688 0.0
H1043 H 0.2057 0.81359 0.76468 0.0
H1044 H 0.33582 0.79275 0.76949 0.0
H1045 H 0.2754 0.78358 0.75381 0.0
H1046 H 0.26026 0.78587 0.94231 0.0
H1047 H 0.19944 0.77863 0.92795 0.0
H1048 H 0.31994 0.83224 0.93029 0.0
H1049 H 0.36782 0.83103 0.89827 0.0
C1050 C 0.75251 0.22212 0.35574 0.0
C1051 C 0.76467 0.19703 0.38863 0.0
C1052 C 0.74912 0.27222 0.42401 0.0
C1053 C 0.74332 0.29843 0.39068 0.0
N1054 N 0.75297 0.30023 0.32462 0.0
N1055 N 0.78355 0.2001 0.45348 0.0
C1056 C 0.74892 0.274 0.35641 0.0
C1057 C 0.76561 0.22263 0.4227 0.0
N1058 N 0.74231 0.19652 0.32418 0.0
N1059 N 0.73764 0.29422 0.45674 0.0
H1060 H 0.79705 0.16407 0.45333 0.0
H1061 H 0.7894 0.21863 0.47824 0.0
H1062 H 0.72446 0.33029 0.45863 0.0
H1063 H 0.73676 0.27526 0.48153 0.0
H1064 H 0.72874 0.21336 0.30053 0.0
H1065 H 0.74214 0.15814 0.32271 0.0
H1066 H 0.76185 0.28386 0.29953 0.0
H1067 H 0.75291 0.33863 0.32385 0.0
C1068 C 0.28127 0.73868 0.11185 0.0
C1069 C 0.30371 0.71909 0.1439 0.0
C1070 C 0.22212 0.70678 0.1701 0.0
C1071 C 0.20106 0.73633 0.14213 0.0
N1072 N 0.2142 0.78868 0.08928 0.0
N1073 N 0.29419 0.69624 0.20786 0.0
C1074 C 0.23143 0.75437 0.11349 0.0
C1075 C 0.27386 0.70598 0.17427 0.0
N1076 N 0.30707 0.74171 0.07982 0.0
N1077 N 0.1929 0.67953 0.19267 0.0
H1078 H 0.3317 0.69995 0.21352 0.0
H1079 H 0.27283 0.69048 0.2312 0.0
H1080 H 0.15469 0.67773 0.18943 0.0
H1081 H 0.20731 0.65473 0.21171 0.0
H1082 H 0.29073 0.75221 0.05509 0.0
H1083 H 0.34306 0.72848 0.07719 0.0
H1084 H 0.23689 0.80581 0.07018 0.0
H1085 H 0.17899 0.80398 0.09075 0.0
C1086 C 0.72438 0.22039 0.67399 0.0
C1087 C 0.73183 0.19461 0.64043 0.0
C1088 C 0.76124 0.27075 0.61233 0.0
C1089 C 0.74845 0.29682 0.64484 0.0
N1090 N 0.70145 0.29826 0.70085 0.0
N1091 N 0.74651 0.19799 0.57507 0.0
C1092 C 0.72476 0.27223 0.67386 0.0
C1093 C 0.74703 0.22058 0.60868 0.0
N1094 N 0.7198 0.19578 0.70644 0.0
N1095 N 0.78824 0.29312 0.58561 0.0
H1096 H 0.73478 0.16174 0.57125 0.0
H1097 H 0.75297 0.21673 0.55066 0.0
H1098 H 0.79989 0.32964 0.58751 0.0
H1099 H 0.80255 0.27417 0.56306 0.0
H1100 H 0.71823 0.21394 0.73173 0.0
H1101 H 0.72362 0.15767 0.70861 0.0
H1102 H 0.67953 0.28128 0.72053 0.0
H1103 H 0.69943 0.33668 0.70088 0.0
C1104 C 0.37419 0.15376 0.31401 0.0
C1105 C 0.33271 0.12621 0.30154 0.0
C1106 C 0.35334 0.1457 0.23775 0.0
C1107 C 0.39514 0.17264 0.25018 0.0
N1108 N 0.43135 0.21933 0.29986 0.0
N1109 N 0.2723 0.1152 0.2535 0.0
C1110 C 0.40062 0.18254 0.28828 0.0
C1111 C 0.31866 0.12907 0.26402 0.0
N1112 N 0.39119 0.15009 0.34924 0.0
N1113 N 0.34814 0.13229 0.20174 0.0
H1114 H 0.24574 0.10434 0.27249 0.0
H1115 H 0.25888 0.12004 0.22689 0.0
H1116 H 0.3728 0.14183 0.18121 0.0
H1117 H 0.32103 0.10781 0.19274 0.0
H1118 H 0.42491 0.16481 0.35763 0.0
H1119 H 0.3742 0.12963 0.36956 0.0
H1120 H 0.43377 0.23063 0.32721 0.0
H1121 H 0.44976 0.24217 0.28147 0.0
C1122 C 0.37043 0.36478 0.80252 0.0
C1123 C 0.40318 0.32789 0.78888 0.0
C1124 C 0.37835 0.34777 0.72564 0.0
C1125 C 0.34773 0.38639 0.73895 0.0
N1126 N 0.29982 0.4173 0.7896 0.0
N1127 N 0.41661 0.26954 0.73975 0.0
C1128 C 0.33893 0.39005 0.77733 0.0
C1129 C 0.39977 0.3145 0.75115 0.0
N1130 N 0.37023 0.37757 0.83881 0.0
N1131 N 0.39029 0.34427 0.68932 0.0
H1132 H 0.42963 0.24324 0.75822 0.0
H1133 H 0.41165 0.25638 0.71304 0.0
H1134 H 0.37664 0.36765 0.66918 0.0
H1135 H 0.41727 0.3201 0.67963 0.0
H1136 H 0.35292 0.4093 0.84865 0.0
H1137 H 0.38791 0.3576 0.85922 0.0
H1138 H 0.28865 0.41802 0.81694 0.0
H1139 H 0.27524 0.43462 0.77165 0.0
C1140 C 0.18019 0.42216 0.24651 0.0
C1141 C 0.20132 0.39031 0.27327 0.0
C1142 C 0.15456 0.32093 0.24703 0.0
C1143 C 0.13556 0.3525 0.21928 0.0
N1144 N 0.13934 0.42971 0.18742 0.0
N1145 N 0.21447 0.30831 0.29613 0.0
C1146 C 0.15153 0.40198 0.21733 0.0
C1147 C 0.19023 0.33927 0.27268 0.0
N1148 N 0.18527 0.47211 0.25008 0.0
N1149 N 0.13762 0.27368 0.24922 0.0
H1150 H 0.23978 0.32094 0.31567 0.0
H1151 H 0.21202 0.27008 0.29475 0.0
H1152 H 0.11434 0.25834 0.22938 0.0
H1153 H 0.14507 0.25036 0.27116 0.0
H1154 H 0.16637 0.49733 0.23376 0.0
H1155 H 0.20438 0.48871 0.27174 0.0
H1156 H 0.15348 0.46474 0.18269 0.0
H1157 H 0.11926 0.41546 0.16533 0.0
C1158 C 0.18466 0.20138 0.77919 0.0
C1159 C 0.13364 0.20632 0.78704 0.0
C1160 C 0.11506 0.13534 0.74796 0.0
C1161 C 0.16573 0.13092 0.73885 0.0
N1162 N 0.24771 0.16528 0.74 0.0
N1163 N 0.04976 0.18923 0.76794 0.0
C1164 C 0.20022 0.16606 0.75237 0.0
C1165 C 0.09869 0.17675 0.76808 0.0
N1166 N 0.21825 0.22879 0.79846 0.0
N1167 N 0.08229 0.09937 0.73833 0.0
H1168 H 0.03592 0.22032 0.78123 0.0
H1169 H 0.02366 0.17161 0.7514 0.0
H1170 H 0.09149 0.06971 0.72161 0.0
H1171 H 0.04667 0.0975 0.74894 0.0
H1172 H 0.25622 0.22338 0.7969 0.0
H1173 H 0.20796 0.25491 0.81812 0.0
H1174 H 0.27346 0.1925 0.74624 0.0
H1175 H 0.26035 0.13953 0.72089 0.0
C1176 C 0.64477 0.83264 0.73022 0.0
C1177 C 0.67421 0.87178 0.74396 0.0
C1178 C 0.64965 0.85227 0.80699 0.0
C1179 C 0.61677 0.81597 0.79274 0.0
N1180 N 0.6053 0.75547 0.74476 0.0
N1181 N 0.72094 0.90366 0.79502 0.0
C1182 C 0.622 0.80069 0.75561 0.0
C1183 C 0.68213 0.87633 0.78234 0.0
N1184 N 0.63518 0.82757 0.69355 0.0
N1185 N 0.64895 0.8658 0.84314 0.0
H1186 H 0.74592 0.92037 0.77726 0.0
H1187 H 0.73138 0.90511 0.82257 0.0
H1188 H 0.63102 0.84629 0.86352 0.0
H1189 H 0.66626 0.89751 0.85298 0.0
H1190 H 0.60874 0.80319 0.68334 0.0
H1191 H 0.65076 0.84945 0.67338 0.0
H1192 H 0.6114 0.74106 0.71857 0.0
H1193 H 0.59106 0.73027 0.76344 0.0
C1194 C 0.6778 0.64745 0.23165 0.0
C1195 C 0.64025 0.67926 0.2451 0.0
C1196 C 0.66881 0.66693 0.30825 0.0
C1197 C 0.70127 0.62983 0.29508 0.0
N1198 N 0.75337 0.60302 0.2458 0.0
N1199 N 0.61548 0.73582 0.29258 0.0
C1200 C 0.71178 0.62702 0.25712 0.0
C1201 C 0.64136 0.6948 0.28231 0.0
N1202 N 0.67883 0.63326 0.19562 0.0
N1203 N 0.66151 0.67341 0.34501 0.0
H1204 H 0.59596 0.757 0.27352 0.0
H1205 H 0.61758 0.75145 0.31872 0.0
H1206 H 0.68378 0.65731 0.36495 0.0
H1207 H 0.63279 0.69453 0.35574 0.0
H1208 H 0.70134 0.60494 0.18588 0.0
H1209 H 0.65596 0.64805 0.17551 0.0
H1210 H 0.7653 0.60263 0.21863 0.0
H1211 H 0.77837 0.58799 0.2646 0.0
C1212 C 0.83492 0.63114 0.77989 0.0
C1213 C 0.84912 0.62667 0.74247 0.0
C1214 C 0.8933 0.7048 0.74879 0.0
C1215 C 0.89207 0.7001 0.78751 0.0
N1216 N 0.85625 0.66068 0.84062 0.0
N1217 N 0.89174 0.66223 0.69045 0.0
C1218 C 0.8604 0.66458 0.8034 0.0
C1219 C 0.87718 0.66499 0.72627 0.0
N1220 N 0.79634 0.60397 0.79269 0.0
N1221 N 0.91101 0.7472 0.73379 0.0
H1222 H 0.881 0.63452 0.67236 0.0
H1223 H 0.91742 0.68623 0.67916 0.0
H1224 H 0.92231 0.77691 0.75012 0.0
H1225 H 0.90932 0.75475 0.70578 0.0
H1226 H 0.78151 0.60852 0.81883 0.0
H1227 H 0.77546 0.58118 0.77555 0.0
H1228 H 0.83948 0.63082 0.85333 0.0
H1229 H 0.87036 0.68641 0.85906 0.0
C1230 C 0.84212 0.81603 0.24631 0.0
C1231 C 0.87754 0.85155 0.23552 0.0
C1232 C 0.83296 0.91533 0.26951 0.0
C1233 C 0.80306 0.87844 0.28551 0.0
N1234 N 0.77794 0.79366 0.28963 0.0
N1235 N 0.90968 0.93429 0.2393 0.0
C1236 C 0.80695 0.82871 0.27381 0.0
C1237 C 0.87363 0.90109 0.24762 0.0
N1238 N 0.84219 0.77044 0.23023 0.0
N1239 N 0.82166 0.96406 0.27428 0.0
H1240 H 0.93926 0.92587 0.22216 0.0
H1241 H 0.9119 0.96919 0.25127 0.0
H1242 H 0.79255 0.97629 0.29056 0.0
H1243 H 0.83884 0.9922 0.25981 0.0
H1244 H 0.81511 0.74403 0.23465 0.0
H1245 H 0.86709 0.76057 0.20973 0.0
H1246 H 0.78221 0.75598 0.28515 0.0
H1247 H 0.75107 0.80222 0.30911 0.0
loop_
_geom_bond_atom_site_label_1
_geom_bond_atom_site_label_2
_geom_bond_distance
_geom_bond_site_symmetry_2
_ccdc_geom_bond_type
C0 C1 1.351 . S
C0 N3 1.368 . S
C0 H5 0.931 . S
C1 C0 1.351 . S
C1 N2 1.373 . S
C1 H29 0.930 . S
N2 C1 1.373 . S
N2 C4 1.340 . S
N3 C0 1.368 . S
N3 C4 1.321 . S
N3 Co6 2.135 . S
C4 N2 1.340 . S
C4 N3 1.321 . S
C4 H28 0.930 . S
H5 C0 0.931 . S
Co6 N3 2.135 . S
Co6 N9 2.121 . S
Co6 O14 2.055 . S
Co6 O17 2.039 . S
Co6 N20 2.140 . S
C7 O8 1.227 . S
C7 O17 1.265 . S
O8 C7 1.227 . S
N9 Co6 2.121 . S
N9 C11 1.375 . S
N9 C12 1.313 . S
C10 C11 1.338 . S
C10 N13 1.377 . S
C10 H30 0.930 . S
C11 N9 1.375 . S
C11 C10 1.338 . S
C11 H15 0.931 . S
C12 N9 1.313 . S
C12 N13 1.344 . S
C12 H16 0.930 . S
N13 C10 1.377 . S
N13 C12 1.344 . S
O14 Co6 2.055 . S
O14 C18 1.253 . S
H15 C11 0.931 . S
H16 C12 0.930 . S
O17 Co6 2.039 . S
O17 C7 1.265 . S
C18 O14 1.253 . S
C18 O19 1.227 . S
O19 C18 1.227 . S
N20 Co6 2.140 . S
N20 C23 1.346 . S
N20 C24 1.345 . S
C21 C22 1.387 . S
C21 C25 1.391 . S
C22 C21 1.387 . S
C22 C23 1.369 . S
C22 H31 0.929 . S
C23 N20 1.346 . S
C23 C22 1.369 . S
C23 H26 0.928 . S
C24 N20 1.345 . S
C24 C25 1.371 . S
C24 H27 0.931 . S
C25 C21 1.391 . S
C25 C24 1.371 . S
C25 H32 0.930 . S
H26 C23 0.928 . S
H27 C24 0.931 . S
H28 C4 0.930 . S
H29 C1 0.930 . S
H30 C10 0.930 . S
H31 C22 0.929 . S
H32 C25 0.930 . S
C33 C34 1.351 . S
C33 N36 1.368 . S
C33 H38 0.931 . S
C34 C33 1.351 . S
C34 N35 1.373 . S
C34 H62 0.930 . S
N35 C34 1.373 . S
N35 C37 1.340 . S
N36 C33 1.368 . S
N36 C37 1.321 . S
N36 Co39 2.135 . S
C37 N35 1.340 . S
C37 N36 1.321 . S
C37 H61 0.930 . S
H38 C33 0.931 . S
Co39 N36 2.135 . S
Co39 N42 2.121 . S
Co39 O47 2.055 . S
Co39 O50 2.039 . S
Co39 N53 2.140 . S
C40 O41 1.227 . S
C40 O50 1.265 . S
O41 C40 1.227 . S
N42 Co39 2.121 . S
N42 C44 1.375 . S
N42 C45 1.313 . S
C43 C44 1.338 . S
C43 N46 1.377 . S
C43 H63 0.930 . S
C44 N42 1.375 . S
C44 C43 1.338 . S
C44 H48 0.931 . S
C45 N42 1.313 . S
C45 N46 1.344 . S
C45 H49 0.930 . S
N46 C43 1.377 . S
N46 C45 1.344 . S
O47 Co39 2.055 . S
O47 C51 1.253 . S
H48 C44 0.931 . S
H49 C45 0.930 . S
O50 Co39 2.039 . S
O50 C40 1.265 . S
C51 O47 1.253 . S
C51 O52 1.227 . S
O52 C51 1.227 . S
N53 Co39 2.140 . S
N53 C56 1.346 . S
N53 C57 1.345 . S
C54 C55 1.387 . S
C54 C58 1.391 . S
C55 C54 1.387 . S
C55 C56 1.369 . S
C55 H64 0.929 . S
C56 N53 1.346 . S
C56 C55 1.369 . S
C56 H59 0.928 . S
C57 N53 1.345 . S
C57 C58 1.371 . S
C57 H60 0.931 . S
C58 C54 1.391 . S
C58 C57 1.371 . S
C58 H65 0.930 . S
H59 C56 0.928 . S
H60 C57 0.931 . S
H61 C37 0.930 . S
H62 C34 0.930 . S
H63 C43 0.930 . S
H64 C55 0.929 . S
H65 C58 0.930 . S
C66 C67 1.351 . S
C66 N69 1.368 . S
C66 H71 0.931 . S
C67 C66 1.351 . S
C67 N68 1.373 . S
C67 H95 0.930 . S
N68 C67 1.373 . S
N68 C70 1.340 . S
N69 C66 1.368 . S
N69 C70 1.321 . S
N69 Co72 2.135 . S
C70 N68 1.340 . S
C70 N69 1.321 . S
C70 H94 0.930 . S
H71 C66 0.931 . S
Co72 N69 2.135 . S
Co72 N75 2.121 . S
Co72 O80 2.055 . S
Co72 O83 2.039 . S
Co72 N86 2.140 1_455 S
C73 O74 1.227 1_455 S
C73 O83 1.265 . S
O74 C73 1.227 1_655 S
N75 Co72 2.121 . S
N75 C77 1.375 1_455 S
N75 C78 1.313 . S
C76 C77 1.338 . S
C76 N79 1.377 1_655 S
C76 H96 0.930 . S
C77 N75 1.375 1_655 S
C77 C76 1.338 . S
C77 H81 0.931 . S
C78 N75 1.313 . S
C78 N79 1.344 . S
C78 H82 0.930 . S
N79 C76 1.377 1_455 S
N79 C78 1.344 . S
O80 Co72 2.055 . S
O80 C84 1.253 . S
H81 C77 0.931 . S
H82 C78 0.930 . S
O83 Co72 2.039 . S
O83 C73 1.265 . S
C84 O80 1.253 . S
C84 O85 1.227 . S
O85 C84 1.227 . S
N86 Co72 2.140 1_655 S
N86 C89 1.346 . S
N86 C90 1.345 . S
C87 C88 1.387 . S
C87 C91 1.391 . S
C88 C87 1.387 . S
C88 C89 1.369 . S
C88 H97 0.929 . S
C89 N86 1.346 . S
C89 C88 1.369 . S
C89 H92 0.928 . S
C90 N86 1.345 . S
C90 C91 1.371 . S
C90 H93 0.931 . S
C91 C87 1.391 . S
C91 C90 1.371 . S
C91 H98 0.930 . S
H92 C89 0.928 . S
H93 C90 0.931 . S
H94 C70 0.930 . S
H95 C67 0.930 . S
H96 C76 0.930 . S
H97 C88 0.929 . S
H98 C91 0.930 . S
C99 C100 1.351 . S
C99 N102 1.368 . S
C99 H104 0.931 . S
C100 C99 1.351 . S
C100 N101 1.373 . S
C100 H128 0.930 . S
N101 C100 1.373 . S
N101 C103 1.340 . S
N102 C99 1.368 . S
N102 C103 1.321 . S
N102 Co105 2.135 . S
C103 N101 1.340 . S
C103 N102 1.321 . S
C103 H127 0.930 . S
H104 C99 0.931 . S
Co105 N102 2.135 . S
Co105 N108 2.121 . S
Co105 O113 2.055 . S
Co105 O116 2.039 . S
Co105 N119 2.140 1_545 S
C106 O107 1.227 1_545 S
C106 O116 1.265 . S
O107 C106 1.227 1_565 S
N108 Co105 2.121 . S
N108 C110 1.375 1_545 S
N108 C111 1.313 . S
C109 C110 1.338 . S
C109 N112 1.377 1_565 S
C109 H129 0.930 . S
C110 N108 1.375 1_565 S
C110 C109 1.338 . S
C110 H114 0.931 . S
C111 N108 1.313 . S
C111 N112 1.344 . S
C111 H115 0.930 . S
N112 C109 1.377 1_545 S
N112 C111 1.344 . S
O113 Co105 2.055 . S
O113 C117 1.253 . S
H114 C110 0.931 . S
H115 C111 0.930 . S
O116 Co105 2.039 . S
O116 C106 1.265 . S
C117 O113 1.253 . S
C117 O118 1.227 . S
O118 C117 1.227 . S
N119 Co105 2.140 1_565 S
N119 C122 1.346 . S
N119 C123 1.345 . S
C120 C121 1.387 . S
C120 C124 1.391 . S
C121 C120 1.387 . S
C121 C122 1.369 . S
C121 H130 0.929 . S
C122 N119 1.346 . S
C122 C121 1.369 . S
C122 H125 0.928 . S
C123 N119 1.345 . S
C123 C124 1.371 . S
C123 H126 0.931 . S
C124 C120 1.391 . S
C124 C123 1.371 . S
C124 H131 0.930 . S
H125 C122 0.928 . S
H126 C123 0.931 . S
H127 C103 0.930 . S
H128 C100 0.930 . S
H129 C109 0.930 . S
H130 C121 0.929 . S
H131 C124 0.930 . S
C132 C133 1.351 . S
C132 N135 1.368 . S
C132 H137 0.931 . S
C133 C132 1.351 . S
C133 N134 1.373 . S
C133 H161 0.930 . S
N134 C133 1.373 . S
N134 C136 1.340 . S
N135 C132 1.368 . S
N135 C136 1.321 . S
N135 Co138 2.135 . S
C136 N134 1.340 . S
C136 N135 1.321 . S
C136 H160 0.930 . S
H137 C132 0.931 . S
Co138 N135 2.135 . S
Co138 N141 2.121 . S
Co138 O146 2.055 . S
Co138 O149 2.039 . S
Co138 N152 2.140 . S
C139 O140 1.227 . S
C139 O149 1.265 . S
O140 C139 1.227 . S
N141 Co138 2.121 . S
N141 C143 1.375 . S
N141 C144 1.313 . S
C142 C143 1.338 . S
C142 N145 1.377 . S
C142 H162 0.930 . S
C143 N141 1.375 . S
C143 C142 1.338 . S
C143 H147 0.931 . S
C144 N141 1.313 . S
C144 N145 1.344 . S
C144 H148 0.930 . S
N145 C142 1.377 . S
N145 C144 1.344 . S
O146 Co138 2.055 . S
O146 C150 1.253 . S
H147 C143 0.931 . S
H148 C144 0.930 . S
O149 Co138 2.039 . S
O149 C139 1.265 . S
C150 O146 1.253 . S
C150 O151 1.227 . S
O151 C150 1.227 . S
N152 Co138 2.140 . S
N152 C155 1.346 . S
N152 C156 1.345 . S
C153 C154 1.387 . S
C153 C157 1.391 . S
C154 C153 1.387 . S
C154 C155 1.369 . S
C154 H163 0.929 . S
C155 N152 1.346 . S
C155 C154 1.369 . S
C155 H158 0.928 . S
C156 N152 1.345 . S
C156 C157 1.371 . S
C156 H159 0.931 . S
C157 C153 1.391 . S
C157 C156 1.371 . S
C157 H164 0.930 . S
H158 C155 0.928 . S
H159 C156 0.931 . S
H160 C136 0.930 . S
H161 C133 0.930 . S
H162 C142 0.930 . S
H163 C154 0.929 . S
H164 C157 0.930 . S
C165 C166 1.351 . S
C165 N168 1.368 . S
C165 H170 0.931 . S
C166 C165 1.351 . S
C166 N167 1.373 . S
C166 H194 0.930 . S
N167 C166 1.373 . S
N167 C169 1.340 . S
N168 C165 1.368 . S
N168 C169 1.321 . S
N168 Co171 2.135 . S
C169 N167 1.340 . S
C169 N168 1.321 . S
C169 H193 0.930 . S
H170 C165 0.931 . S
Co171 N168 2.135 . S
Co171 N174 2.121 . S
Co171 O179 2.055 . S
Co171 O182 2.039 . S
Co171 N185 2.140 . S
C172 O173 1.227 . S
C172 O182 1.265 . S
O173 C172 1.227 . S
N174 Co171 2.121 . S
N174 C176 1.375 . S
N174 C177 1.313 . S
C175 C176 1.338 . S
C175 N178 1.377 . S
C175 H195 0.930 . S
C176 N174 1.375 . S
C176 C175 1.338 . S
C176 H180 0.931 . S
C177 N174 1.313 . S
C177 N178 1.344 . S
C177 H181 0.930 . S
N178 C175 1.377 . S
N178 C177 1.344 . S
O179 Co171 2.055 . S
O179 C183 1.253 . S
H180 C176 0.931 . S
H181 C177 0.930 . S
O182 Co171 2.039 . S
O182 C172 1.265 . S
C183 O179 1.253 . S
C183 O184 1.227 . S
O184 C183 1.227 . S
N185 Co171 2.140 . S
N185 C188 1.346 . S
N185 C189 1.345 . S
C186 C187 1.387 . S
C186 C190 1.391 . S
C187 C186 1.387 . S
C187 C188 1.369 . S
C187 H196 0.929 . S
C188 N185 1.346 . S
C188 C187 1.369 . S
C188 H191 0.928 . S
C189 N185 1.345 . S
C189 C190 1.371 . S
C189 H192 0.931 . S
C190 C186 1.391 . S
C190 C189 1.371 . S
C190 H197 0.930 . S
H191 C188 0.928 . S
H192 C189 0.931 . S
H193 C169 0.930 . S
H194 C166 0.930 . S
H195 C175 0.930 . S
H196 C187 0.929 . S
H197 C190 0.930 . S
C198 C199 1.351 . S
C198 N201 1.368 . S
C198 H203 0.931 . S
C199 C198 1.351 . S
C199 N200 1.373 . S
C199 H227 0.930 . S
N200 C199 1.373 . S
N200 C202 1.340 . S
N201 C198 1.368 . S
N201 C202 1.321 . S
N201 Co204 2.135 . S
C202 N200 1.340 . S
C202 N201 1.321 . S
C202 H226 0.930 . S
H203 C198 0.931 . S
Co204 N201 2.135 . S
Co204 N207 2.121 . S
Co204 O212 2.055 . S
Co204 O215 2.039 . S
Co204 N218 2.140 1_455 S
C205 O206 1.227 1_455 S
C205 O215 1.265 . S
O206 C205 1.227 1_655 S
N207 Co204 2.121 . S
N207 C209 1.375 1_455 S
N207 C210 1.313 . S
C208 C209 1.338 . S
C208 N211 1.377 1_655 S
C208 H228 0.930 . S
C209 N207 1.375 1_655 S
C209 C208 1.338 . S
C209 H213 0.931 . S
C210 N207 1.313 . S
C210 N211 1.344 . S
C210 H214 0.930 . S
N211 C208 1.377 1_455 S
N211 C210 1.344 . S
O212 Co204 2.055 . S
O212 C216 1.253 . S
H213 C209 0.931 . S
H214 C210 0.930 . S
O215 Co204 2.039 . S
O215 C205 1.265 . S
C216 O212 1.253 . S
C216 O217 1.227 . S
O217 C216 1.227 . S
N218 Co204 2.140 1_655 S
N218 C221 1.346 . S
N218 C222 1.345 . S
C219 C220 1.387 . S
C219 C223 1.391 . S
C220 C219 1.387 . S
C220 C221 1.369 . S
C220 H229 0.929 . S
C221 N218 1.346 . S
C221 C220 1.369 . S
C221 H224 0.928 . S
C222 N218 1.345 . S
C222 C223 1.371 . S
C222 H225 0.931 . S
C223 C219 1.391 . S
C223 C222 1.371 . S
C223 H230 0.930 . S
H224 C221 0.928 . S
H225 C222 0.931 . S
H226 C202 0.930 . S
H227 C199 0.930 . S
H228 C208 0.930 . S
H229 C220 0.929 . S
H230 C223 0.930 . S
C231 C232 1.351 . S
C231 N234 1.368 . S
C231 H236 0.931 . S
C232 C231 1.351 . S
C232 N233 1.373 . S
C232 H260 0.930 . S
N233 C232 1.373 . S
N233 C235 1.340 . S
N234 C231 1.368 . S
N234 C235 1.321 . S
N234 Co237 2.135 . S
C235 N233 1.340 . S
C235 N234 1.321 . S
C235 H259 0.930 . S
H236 C231 0.931 . S
Co237 N234 2.135 . S
Co237 N240 2.121 . S
Co237 O245 2.055 . S
Co237 O248 2.039 . S
Co237 N251 2.140 1_545 S
C238 O239 1.227 1_545 S
C238 O248 1.265 . S
O239 C238 1.227 1_565 S
N240 Co237 2.121 . S
N240 C242 1.375 1_545 S
N240 C243 1.313 . S
C241 C242 1.338 . S
C241 N244 1.377 1_565 S
C241 H261 0.930 . S
C242 N240 1.375 1_565 S
C242 C241 1.338 . S
C242 H246 0.931 . S
C243 N240 1.313 . S
C243 N244 1.344 . S
C243 H247 0.930 . S
N244 C241 1.377 1_545 S
N244 C243 1.344 . S
O245 Co237 2.055 . S
O245 C249 1.253 . S
H246 C242 0.931 . S
H247 C243 0.930 . S
O248 Co237 2.039 . S
O248 C238 1.265 . S
C249 O245 1.253 . S
C249 O250 1.227 . S
O250 C249 1.227 . S
N251 Co237 2.140 1_565 S
N251 C254 1.346 . S
N251 C255 1.345 . S
C252 C253 1.387 . S
C252 C256 1.391 . S
C253 C252 1.387 . S
C253 C254 1.369 . S
C253 H262 0.929 . S
C254 N251 1.346 . S
C254 C253 1.369 . S
C254 H257 0.928 . S
C255 N251 1.345 . S
C255 C256 1.371 . S
C255 H258 0.931 . S
C256 C252 1.391 . S
C256 C255 1.371 . S
C256 H263 0.930 . S
H257 C254 0.928 . S
H258 C255 0.931 . S
H259 C235 0.930 . S
H260 C232 0.930 . S
H261 C241 0.930 . S
H262 C253 0.929 . S
H263 C256 0.930 . S
C264 C265 1.351 . S
C264 N267 1.368 . S
C264 H269 0.931 . S
C265 C264 1.351 . S
C265 N266 1.373 . S
C265 H293 0.930 . S
N266 C265 1.373 . S
N266 C268 1.340 . S
N267 C264 1.368 . S
N267 C268 1.321 . S
N267 Co270 2.135 . S
C268 N266 1.340 . S
C268 N267 1.321 . S
C268 H292 0.930 . S
H269 C264 0.931 . S
Co270 N267 2.135 . S
Co270 N273 2.121 . S
Co270 O278 2.055 . S
Co270 O281 2.039 . S
Co270 N284 2.140 . S
C271 O272 1.227 . S
C271 O281 1.265 . S
O272 C271 1.227 . S
N273 Co270 2.121 . S
N273 C275 1.375 . S
N273 C276 1.313 . S
C274 C275 1.338 . S
C274 N277 1.377 . S
C274 H294 0.930 . S
C275 N273 1.375 . S
C275 C274 1.338 . S
C275 H279 0.931 . S
C276 N273 1.313 . S
C276 N277 1.344 . S
C276 H280 0.930 . S
N277 C274 1.377 . S
N277 C276 1.344 . S
O278 Co270 2.055 . S
O278 C282 1.253 . S
H279 C275 0.931 . S
H280 C276 0.930 . S
O281 Co270 2.039 . S
O281 C271 1.265 . S
C282 O278 1.253 . S
C282 O283 1.227 . S
O283 C282 1.227 . S
N284 Co270 2.140 . S
N284 C287 1.346 . S
N284 C288 1.345 . S
C285 C286 1.387 . S
C285 C289 1.391 . S
C286 C285 1.387 . S
C286 C287 1.369 . S
C286 H295 0.929 . S
C287 N284 1.346 . S
C287 C286 1.369 . S
C287 H290 0.928 . S
C288 N284 1.345 . S
C288 C289 1.371 . S
C288 H291 0.931 . S
C289 C285 1.391 . S
C289 C288 1.371 . S
C289 H296 0.930 . S
H290 C287 0.928 . S
H291 C288 0.931 . S
H292 C268 0.930 . S
H293 C265 0.930 . S
H294 C274 0.930 . S
H295 C286 0.929 . S
H296 C289 0.930 . S
C297 C298 1.351 . S
C297 N300 1.368 . S
C297 H302 0.931 . S
C298 C297 1.351 . S
C298 N299 1.373 . S
C298 H326 0.930 . S
N299 C298 1.373 . S
N299 C301 1.340 . S
N300 C297 1.368 . S
N300 C301 1.321 . S
N300 Co303 2.135 . S
C301 N299 1.340 . S
C301 N300 1.321 . S
C301 H325 0.930 . S
H302 C297 0.931 . S
Co303 N300 2.135 . S
Co303 N306 2.121 . S
Co303 O311 2.055 . S
Co303 O314 2.039 . S
Co303 N317 2.140 . S
C304 O305 1.227 . S
C304 O314 1.265 . S
O305 C304 1.227 . S
N306 Co303 2.121 . S
N306 C308 1.375 . S
N306 C309 1.313 . S
C307 C308 1.338 . S
C307 N310 1.377 . S
C307 H327 0.930 . S
C308 N306 1.375 . S
C308 C307 1.338 . S
C308 H312 0.931 . S
C309 N306 1.313 . S
C309 N310 1.344 . S
C309 H313 0.930 . S
N310 C307 1.377 . S
N310 C309 1.344 . S
O311 Co303 2.055 . S
O311 C315 1.253 . S
H312 C308 0.931 . S
H313 C309 0.930 . S
O314 Co303 2.039 . S
O314 C304 1.265 . S
C315 O311 1.253 . S
C315 O316 1.227 . S
O316 C315 1.227 . S
N317 Co303 2.140 . S
N317 C320 1.346 . S
N317 C321 1.345 . S
C318 C319 1.387 . S
C318 C322 1.391 . S
C319 C318 1.387 . S
C319 C320 1.369 . S
C319 H328 0.929 . S
C320 N317 1.346 . S
C320 C319 1.369 . S
C320 H323 0.928 . S
C321 N317 1.345 . S
C321 C322 1.371 . S
C321 H324 0.931 . S
C322 C318 1.391 . S
C322 C321 1.371 . S
C322 H329 0.930 . S
H323 C320 0.928 . S
H324 C321 0.931 . S
H325 C301 0.930 . S
H326 C298 0.930 . S
H327 C307 0.930 . S
H328 C319 0.929 . S
H329 C322 0.930 . S
C330 C331 1.351 . S
C330 N333 1.368 . S
C330 H335 0.931 . S
C331 C330 1.351 . S
C331 N332 1.373 . S
C331 H359 0.930 . S
N332 C331 1.373 . S
N332 C334 1.340 . S
N333 C330 1.368 . S
N333 C334 1.321 . S
N333 Co336 2.135 . S
C334 N332 1.340 . S
C334 N333 1.321 . S
C334 H358 0.930 . S
H335 C330 0.931 . S
Co336 N333 2.135 . S
Co336 N339 2.121 . S
Co336 O344 2.055 . S
Co336 O347 2.039 . S
Co336 N350 2.140 1_655 S
C337 O338 1.227 1_655 S
C337 O347 1.265 . S
O338 C337 1.227 1_455 S
N339 Co336 2.121 . S
N339 C341 1.375 1_655 S
N339 C342 1.313 . S
C340 C341 1.338 . S
C340 N343 1.377 1_455 S
C340 H360 0.930 . S
C341 N339 1.375 1_455 S
C341 C340 1.338 . S
C341 H345 0.931 . S
C342 N339 1.313 . S
C342 N343 1.344 . S
C342 H346 0.930 . S
N343 C340 1.377 1_655 S
N343 C342 1.344 . S
O344 Co336 2.055 . S
O344 C348 1.253 . S
H345 C341 0.931 . S
H346 C342 0.930 . S
O347 Co336 2.039 . S
O347 C337 1.265 . S
C348 O344 1.253 . S
C348 O349 1.227 . S
O349 C348 1.227 . S
N350 Co336 2.140 1_455 S
N350 C353 1.346 . S
N350 C354 1.345 . S
C351 C352 1.387 . S
C351 C355 1.391 . S
C352 C351 1.387 . S
C352 C353 1.369 . S
C352 H361 0.929 . S
C353 N350 1.346 . S
C353 C352 1.369 . S
C353 H356 0.928 . S
C354 N350 1.345 . S
C354 C355 1.371 . S
C354 H357 0.931 . S
C355 C351 1.391 . S
C355 C354 1.371 . S
C355 H362 0.930 . S
H356 C353 0.928 . S
H357 C354 0.931 . S
H358 C334 0.930 . S
H359 C331 0.930 . S
H360 C340 0.930 . S
H361 C352 0.929 . S
H362 C355 0.930 . S
C363 C364 1.351 . S
C363 N366 1.368 . S
C363 H368 0.931 . S
C364 C363 1.351 . S
C364 N365 1.373 . S
C364 H392 0.930 . S
N365 C364 1.373 . S
N365 C367 1.340 . S
N366 C363 1.368 . S
N366 C367 1.321 . S
N366 Co369 2.135 . S
C367 N365 1.340 . S
C367 N366 1.321 . S
C367 H391 0.930 . S
H368 C363 0.931 . S
Co369 N366 2.135 . S
Co369 N372 2.121 . S
Co369 O377 2.055 . S
Co369 O380 2.039 . S
Co369 N383 2.140 1_565 S
C370 O371 1.227 1_565 S
C370 O380 1.265 . S
O371 C370 1.227 1_545 S
N372 Co369 2.121 . S
N372 C374 1.375 1_565 S
N372 C375 1.313 . S
C373 C374 1.338 . S
C373 N376 1.377 1_545 S
C373 H393 0.930 . S
C374 N372 1.375 1_545 S
C374 C373 1.338 . S
C374 H378 0.931 . S
C375 N372 1.313 . S
C375 N376 1.344 . S
C375 H379 0.930 . S
N376 C373 1.377 1_565 S
N376 C375 1.344 . S
O377 Co369 2.055 . S
O377 C381 1.253 . S
H378 C374 0.931 . S
H379 C375 0.930 . S
O380 Co369 2.039 . S
O380 C370 1.265 . S
C381 O377 1.253 . S
C381 O382 1.227 . S
O382 C381 1.227 . S
N383 Co369 2.140 1_545 S
N383 C386 1.346 . S
N383 C387 1.345 . S
C384 C385 1.387 . S
C384 C388 1.391 . S
C385 C384 1.387 . S
C385 C386 1.369 . S
C385 H394 0.929 . S
C386 N383 1.346 . S
C386 C385 1.369 . S
C386 H389 0.928 . S
C387 N383 1.345 . S
C387 C388 1.371 . S
C387 H390 0.931 . S
C388 C384 1.391 . S
C388 C387 1.371 . S
C388 H395 0.930 . S
H389 C386 0.928 . S
H390 C387 0.931 . S
H391 C367 0.930 . S
H392 C364 0.930 . S
H393 C373 0.930 . S
H394 C385 0.929 . S
H395 C388 0.930 . S
C396 C397 1.351 . S
C396 N399 1.368 . S
C396 H401 0.931 . S
C397 C396 1.351 . S
C397 N398 1.373 . S
C397 H425 0.930 . S
N398 C397 1.373 . S
N398 C400 1.340 . S
N399 C396 1.368 . S
N399 C400 1.321 . S
N399 Co402 2.135 . S
C400 N398 1.340 . S
C400 N399 1.321 . S
C400 H424 0.930 . S
H401 C396 0.931 . S
Co402 N399 2.135 . S
Co402 N405 2.121 . S
Co402 O410 2.055 . S
Co402 O413 2.039 . S
Co402 N416 2.140 . S
C403 O404 1.227 . S
C403 O413 1.265 . S
O404 C403 1.227 . S
N405 Co402 2.121 . S
N405 C407 1.375 . S
N405 C408 1.313 . S
C406 C407 1.338 . S
C406 N409 1.377 . S
C406 H426 0.930 . S
C407 N405 1.375 . S
C407 C406 1.338 . S
C407 H411 0.931 . S
C408 N405 1.313 . S
C408 N409 1.344 . S
C408 H412 0.930 . S
N409 C406 1.377 . S
N409 C408 1.344 . S
O410 Co402 2.055 . S
O410 C414 1.253 . S
H411 C407 0.931 . S
H412 C408 0.930 . S
O413 Co402 2.039 . S
O413 C403 1.265 . S
C414 O410 1.253 . S
C414 O415 1.227 . S
O415 C414 1.227 . S
N416 Co402 2.140 . S
N416 C419 1.346 . S
N416 C420 1.345 . S
C417 C418 1.387 . S
C417 C421 1.391 . S
C418 C417 1.387 . S
C418 C419 1.369 . S
C418 H427 0.929 . S
C419 N416 1.346 . S
C419 C418 1.369 . S
C419 H422 0.928 . S
C420 N416 1.345 . S
C420 C421 1.371 . S
C420 H423 0.931 . S
C421 C417 1.391 . S
C421 C420 1.371 . S
C421 H428 0.930 . S
H422 C419 0.928 . S
H423 C420 0.931 . S
H424 C400 0.930 . S
H425 C397 0.930 . S
H426 C406 0.930 . S
H427 C418 0.929 . S
H428 C421 0.930 . S
C429 C430 1.351 . S
C429 N432 1.368 . S
C429 H434 0.931 . S
C430 C429 1.351 . S
C430 N431 1.373 . S
C430 H458 0.930 . S
N431 C430 1.373 . S
N431 C433 1.340 . S
N432 C429 1.368 . S
N432 C433 1.321 . S
N432 Co435 2.135 . S
C433 N431 1.340 . S
C433 N432 1.321 . S
C433 H457 0.930 . S
H434 C429 0.931 . S
Co435 N432 2.135 . S
Co435 N438 2.121 . S
Co435 O443 2.055 . S
Co435 O446 2.039 . S
Co435 N449 2.140 . S
C436 O437 1.227 . S
C436 O446 1.265 . S
O437 C436 1.227 . S
N438 Co435 2.121 . S
N438 C440 1.375 . S
N438 C441 1.313 . S
C439 C440 1.338 . S
C439 N442 1.377 . S
C439 H459 0.930 . S
C440 N438 1.375 . S
C440 C439 1.338 . S
C440 H444 0.931 . S
C441 N438 1.313 . S
C441 N442 1.344 . S
C441 H445 0.930 . S
N442 C439 1.377 . S
N442 C441 1.344 . S
O443 Co435 2.055 . S
O443 C447 1.253 . S
H444 C440 0.931 . S
H445 C441 0.930 . S
O446 Co435 2.039 . S
O446 C436 1.265 . S
C447 O443 1.253 . S
C447 O448 1.227 . S
O448 C447 1.227 . S
N449 Co435 2.140 . S
N449 C452 1.346 . S
N449 C453 1.345 . S
C450 C451 1.387 . S
C450 C454 1.391 . S
C451 C450 1.387 . S
C451 C452 1.369 . S
C451 H460 0.929 . S
C452 N449 1.346 . S
C452 C451 1.369 . S
C452 H455 0.928 . S
C453 N449 1.345 . S
C453 C454 1.371 . S
C453 H456 0.931 . S
C454 C450 1.391 . S
C454 C453 1.371 . S
C454 H461 0.930 . S
H455 C452 0.928 . S
H456 C453 0.931 . S
H457 C433 0.930 . S
H458 C430 0.930 . S
H459 C439 0.930 . S
H460 C451 0.929 . S
H461 C454 0.930 . S
C462 C463 1.351 . S
C462 N465 1.368 . S
C462 H467 0.931 . S
C463 C462 1.351 . S
C463 N464 1.373 . S
C463 H491 0.930 . S
N464 C463 1.373 . S
N464 C466 1.340 . S
N465 C462 1.368 . S
N465 C466 1.321 . S
N465 Co468 2.135 . S
C466 N464 1.340 . S
C466 N465 1.321 . S
C466 H490 0.930 . S
H467 C462 0.931 . S
Co468 N465 2.135 . S
Co468 N471 2.121 . S
Co468 O476 2.055 . S
Co468 O479 2.039 . S
Co468 N482 2.140 1_655 S
C469 O470 1.227 1_655 S
C469 O479 1.265 . S
O470 C469 1.227 1_455 S
N471 Co468 2.121 . S
N471 C473 1.375 1_655 S
N471 C474 1.313 . S
C472 C473 1.338 . S
C472 N475 1.377 1_455 S
C472 H492 0.930 . S
C473 N471 1.375 1_455 S
C473 C472 1.338 . S
C473 H477 0.931 . S
C474 N471 1.313 . S
C474 N475 1.344 . S
C474 H478 0.930 . S
N475 C472 1.377 1_655 S
N475 C474 1.344 . S
O476 Co468 2.055 . S
O476 C480 1.253 . S
H477 C473 0.931 . S
H478 C474 0.930 . S
O479 Co468 2.039 . S
O479 C469 1.265 . S
C480 O476 1.253 . S
C480 O481 1.227 . S
O481 C480 1.227 . S
N482 Co468 2.140 1_455 S
N482 C485 1.346 . S
N482 C486 1.345 . S
C483 C484 1.387 . S
C483 C487 1.391 . S
C484 C483 1.387 . S
C484 C485 1.369 . S
C484 H493 0.929 . S
C485 N482 1.346 . S
C485 C484 1.369 . S
C485 H488 0.928 . S
C486 N482 1.345 . S
C486 C487 1.371 . S
C486 H489 0.931 . S
C487 C483 1.391 . S
C487 C486 1.371 . S
C487 H494 0.930 . S
H488 C485 0.928 . S
H489 C486 0.931 . S
H490 C466 0.930 . S
H491 C463 0.930 . S
H492 C472 0.930 . S
H493 C484 0.929 . S
H494 C487 0.930 . S
C495 C496 1.351 . S
C495 N498 1.368 . S
C495 H500 0.931 . S
C496 C495 1.351 . S
C496 N497 1.373 . S
C496 H524 0.930 . S
N497 C496 1.373 . S
N497 C499 1.340 . S
N498 C495 1.368 . S
N498 C499 1.321 . S
N498 Co501 2.135 . S
C499 N497 1.340 . S
C499 N498 1.321 . S
C499 H523 0.930 . S
H500 C495 0.931 . S
Co501 N498 2.135 . S
Co501 N504 2.121 . S
Co501 O509 2.055 . S
Co501 O512 2.039 . S
Co501 N515 2.140 1_565 S
C502 O503 1.227 1_565 S
C502 O512 1.265 . S
O503 C502 1.227 1_545 S
N504 Co501 2.121 . S
N504 C506 1.375 1_565 S
N504 C507 1.313 . S
C505 C506 1.338 . S
C505 N508 1.377 1_545 S
C505 H525 0.930 . S
C506 N504 1.375 1_545 S
C506 C505 1.338 . S
C506 H510 0.931 . S
C507 N504 1.313 . S
C507 N508 1.344 . S
C507 H511 0.930 . S
N508 C505 1.377 1_565 S
N508 C507 1.344 . S
O509 Co501 2.055 . S
O509 C513 1.253 . S
H510 C506 0.931 . S
H511 C507 0.930 . S
O512 Co501 2.039 . S
O512 C502 1.265 . S
C513 O509 1.253 . S
C513 O514 1.227 . S
O514 C513 1.227 . S
N515 Co501 2.140 1_545 S
N515 C518 1.346 . S
N515 C519 1.345 . S
C516 C517 1.387 . S
C516 C520 1.391 . S
C517 C516 1.387 . S
C517 C518 1.369 . S
C517 H526 0.929 . S
C518 N515 1.346 . S
C518 C517 1.369 . S
C518 H521 0.928 . S
C519 N515 1.345 . S
C519 C520 1.371 . S
C519 H522 0.931 . S
C520 C516 1.391 . S
C520 C519 1.371 . S
C520 H527 0.930 . S
H521 C518 0.928 . S
H522 C519 0.931 . S
H523 C499 0.930 . S
H524 C496 0.930 . S
H525 C505 0.930 . S
H526 C517 0.929 . S
H527 C520 0.930 . S
C528 C529 1.363 . S
C528 C534 1.379 1_554 S
C528 N536 1.356 . S
C529 C528 1.363 . S
C529 C535 1.363 . S
C530 C531 1.363 . S
C530 C535 1.379 1_556 S
C530 N537 1.356 . S
C531 C530 1.363 . S
C531 C534 1.363 . S
N532 C534 1.356 . S
N532 H544 0.984 . S
N532 H545 0.985 . S
N533 C535 1.356 . S
N533 H538 0.984 . S
N533 H539 0.985 . S
C534 C528 1.379 1_556 S
C534 C531 1.363 . S
C534 N532 1.356 . S
C535 C529 1.363 . S
C535 C530 1.379 1_554 S
C535 N533 1.356 . S
N536 C528 1.356 . S
N536 H542 0.984 . S
N536 H543 0.984 . S
N537 C530 1.356 . S
N537 H540 0.984 . S
N537 H541 0.985 . S
H538 N533 0.984 . S
H539 N533 0.985 . S
H540 N537 0.984 . S
H541 N537 0.985 . S
H542 N536 0.984 . S
H543 N536 0.984 . S
H544 N532 0.984 . S
H545 N532 0.985 . S
C546 C547 1.363 . S
C546 C552 1.379 . S
C546 N554 1.356 . S
C547 C546 1.363 . S
C547 C553 1.363 . S
C548 C549 1.363 . S
C548 C553 1.379 . S
C548 N555 1.356 . S
C549 C548 1.363 . S
C549 C552 1.363 . S
N550 C552 1.356 . S
N550 H562 0.984 . S
N550 H563 0.985 . S
N551 C553 1.356 . S
N551 H556 0.984 . S
N551 H557 0.985 . S
C552 C546 1.379 . S
C552 C549 1.363 . S
C552 N550 1.356 . S
C553 C547 1.363 . S
C553 C548 1.379 . S
C553 N551 1.356 . S
N554 C546 1.356 . S
N554 H560 0.984 . S
N554 H561 0.984 . S
N555 C548 1.356 . S
N555 H558 0.984 . S
N555 H559 0.985 . S
H556 N551 0.984 . S
H557 N551 0.985 . S
H558 N555 0.984 . S
H559 N555 0.985 . S
H560 N554 0.984 . S
H561 N554 0.984 . S
H562 N550 0.984 . S
H563 N550 0.985 . S
C564 C565 1.363 . S
C564 C570 1.379 1_556 S
C564 N572 1.356 . S
C565 C564 1.363 . S
C565 C571 1.363 . S
C566 C567 1.363 . S
C566 C571 1.379 1_554 S
C566 N573 1.356 . S
C567 C566 1.363 . S
C567 C570 1.363 . S
N568 C570 1.356 . S
N568 H580 0.984 1_455 S
N568 H581 0.985 . S
N569 C571 1.356 . S
N569 H574 0.984 . S
N569 H575 0.985 . S
C570 C564 1.379 1_554 S
C570 C567 1.363 . S
C570 N568 1.356 . S
C571 C565 1.363 . S
C571 C566 1.379 1_556 S
C571 N569 1.356 . S
N572 C564 1.356 . S
N572 H578 0.984 1_455 S
N572 H579 0.984 . S
N573 C566 1.356 . S
N573 H576 0.984 . S
N573 H577 0.985 . S
H574 N569 0.984 . S
H575 N569 0.985 . S
H576 N573 0.984 . S
H577 N573 0.985 . S
H578 N572 0.984 1_655 S
H579 N572 0.984 . S
H580 N568 0.984 1_655 S
H581 N568 0.985 . S
C582 C583 1.363 . S
C582 C588 1.379 . S
C582 N590 1.356 1_545 S
C583 C582 1.363 . S
C583 C589 1.363 . S
C584 C585 1.363 . S
C584 C589 1.379 . S
C584 N591 1.356 . S
C585 C584 1.363 . S
C585 C588 1.363 . S
N586 C588 1.356 1_565 S
N586 H598 0.984 . S
N586 H599 0.985 . S
N587 C589 1.356 . S
N587 H592 0.984 . S
N587 H593 0.985 . S
C588 C582 1.379 . S
C588 C585 1.363 . S
C588 N586 1.356 1_545 S
C589 C583 1.363 . S
C589 C584 1.379 . S
C589 N587 1.356 . S
N590 C582 1.356 1_565 S
N590 H596 0.984 . S
N590 H597 0.984 . S
N591 C584 1.356 . S
N591 H594 0.984 . S
N591 H595 0.985 . S
H592 N587 0.984 . S
H593 N587 0.985 . S
H594 N591 0.984 . S
H595 N591 0.985 . S
H596 N590 0.984 . S
H597 N590 0.984 . S
H598 N586 0.984 . S
H599 N586 0.985 . S
C600 C601 1.363 . S
C600 C606 1.379 1_556 S
C600 N608 1.356 . S
C601 C600 1.363 . S
C601 C607 1.363 . S
C602 C603 1.363 . S
C602 C607 1.379 1_554 S
C602 N609 1.356 . S
C603 C602 1.363 . S
C603 C606 1.363 . S
N604 C606 1.356 . S
N604 H616 0.984 . S
N604 H617 0.985 . S
N605 C607 1.356 . S
N605 H610 0.984 . S
N605 H611 0.985 . S
C606 C600 1.379 1_554 S
C606 C603 1.363 . S
C606 N604 1.356 . S
C607 C601 1.363 . S
C607 C602 1.379 1_556 S
C607 N605 1.356 . S
N608 C600 1.356 . S
N608 H614 0.984 . S
N608 H615 0.984 . S
N609 C602 1.356 . S
N609 H612 0.984 . S
N609 H613 0.985 . S
H610 N605 0.984 . S
H611 N605 0.985 . S
H612 N609 0.984 . S
H613 N609 0.985 . S
H614 N608 0.984 . S
H615 N608 0.984 . S
H616 N604 0.984 . S
H617 N604 0.985 . S
C618 C619 1.363 . S
C618 C624 1.379 . S
C618 N626 1.356 . S
C619 C618 1.363 . S
C619 C625 1.363 . S
C620 C621 1.363 . S
C620 C625 1.379 . S
C620 N627 1.356 . S
C621 C620 1.363 . S
C621 C624 1.363 . S
N622 C624 1.356 . S
N622 H634 0.984 . S
N622 H635 0.985 . S
N623 C625 1.356 . S
N623 H628 0.984 . S
N623 H629 0.985 . S
C624 C618 1.379 . S
C624 C621 1.363 . S
C624 N622 1.356 . S
C625 C619 1.363 . S
C625 C620 1.379 . S
C625 N623 1.356 . S
N626 C618 1.356 . S
N626 H632 0.984 . S
N626 H633 0.984 . S
N627 C620 1.356 . S
N627 H630 0.984 . S
N627 H631 0.985 . S
H628 N623 0.984 . S
H629 N623 0.985 . S
H630 N627 0.984 . S
H631 N627 0.985 . S
H632 N626 0.984 . S
H633 N626 0.984 . S
H634 N622 0.984 . S
H635 N622 0.985 . S
C636 C637 1.363 . S
C636 C642 1.379 1_554 S
C636 N644 1.356 . S
C637 C636 1.363 . S
C637 C643 1.363 . S
C638 C639 1.363 . S
C638 C643 1.379 1_556 S
C638 N645 1.356 1_655 S
C639 C638 1.363 . S
C639 C642 1.363 . S
N640 C642 1.356 . S
N640 H652 0.984 . S
N640 H653 0.985 . S
N641 C643 1.356 1_455 S
N641 H646 0.984 . S
N641 H647 0.985 . S
C642 C636 1.379 1_556 S
C642 C639 1.363 . S
C642 N640 1.356 . S
C643 C637 1.363 . S
C643 C638 1.379 1_554 S
C643 N641 1.356 1_655 S
N644 C636 1.356 . S
N644 H650 0.984 . S
N644 H651 0.984 . S
N645 C638 1.356 1_455 S
N645 H648 0.984 . S
N645 H649 0.985 . S
H646 N641 0.984 . S
H647 N641 0.985 . S
H648 N645 0.984 . S
H649 N645 0.985 . S
H650 N644 0.984 . S
H651 N644 0.984 . S
H652 N640 0.984 . S
H653 N640 0.985 . S
C654 C655 1.363 . S
C654 C660 1.379 . S
C654 N662 1.356 . S
C655 C654 1.363 . S
C655 C661 1.363 . S
C656 C657 1.363 . S
C656 C661 1.379 . S
C656 N663 1.356 1_565 S
C657 C656 1.363 . S
C657 C660 1.363 . S
N658 C660 1.356 . S
N658 H670 0.984 . S
N658 H671 0.985 . S
N659 C661 1.356 1_545 S
N659 H664 0.984 . S
N659 H665 0.985 . S
C660 C654 1.379 . S
C660 C657 1.363 . S
C660 N658 1.356 . S
C661 C655 1.363 . S
C661 C656 1.379 . S
C661 N659 1.356 1_565 S
N662 C654 1.356 . S
N662 H668 0.984 . S
N662 H669 0.984 . S
N663 C656 1.356 1_545 S
N663 H666 0.984 . S
N663 H667 0.985 . S
H664 N659 0.984 . S
H665 N659 0.985 . S
H666 N663 0.984 . S
H667 N663 0.985 . S
H668 N662 0.984 . S
H669 N662 0.984 . S
H670 N658 0.984 . S
H671 N658 0.985 . S
C672 C673 1.363 . S
C672 C678 1.379 . S
C672 N680 1.356 . S
C673 C672 1.363 . S
C673 C679 1.363 . S
C674 C675 1.363 1_565 S
C674 C679 1.379 . S
C674 N681 1.356 1_565 S
C675 C674 1.363 1_545 S
C675 C678 1.363 1_545 S
N676 C678 1.356 1_545 S
N676 H688 0.984 . S
N676 H689 0.985 . S
N677 C679 1.356 . S
N677 H682 0.984 . S
N677 H683 0.985 . S
C678 C672 1.379 . S
C678 C675 1.363 1_565 S
C678 N676 1.356 1_565 S
C679 C673 1.363 . S
C679 C674 1.379 . S
C679 N677 1.356 . S
N680 C672 1.356 . S
N680 H686 0.984 . S
N680 H687 0.984 . S
N681 C674 1.356 1_545 S
N681 H684 0.984 . S
N681 H685 0.985 . S
H682 N677 0.984 . S
H683 N677 0.985 . S
H684 N681 0.984 . S
H685 N681 0.985 . S
H686 N680 0.984 . S
H687 N680 0.984 . S
H688 N676 0.984 . S
H689 N676 0.985 . S
C690 C691 1.363 . S
C690 C696 1.379 . S
C690 N698 1.356 . S
C691 C690 1.363 . S
C691 C697 1.363 . S
C692 C693 1.363 . S
C692 C697 1.379 . S
C692 N699 1.356 . S
C693 C692 1.363 . S
C693 C696 1.363 . S
N694 C696 1.356 . S
N694 H706 0.984 . S
N694 H707 0.985 . S
N695 C697 1.356 . S
N695 H700 0.984 . S
N695 H701 0.985 . S
C696 C690 1.379 . S
C696 C693 1.363 . S
C696 N694 1.356 . S
C697 C691 1.363 . S
C697 C692 1.379 . S
C697 N695 1.356 . S
N698 C690 1.356 . S
N698 H704 0.984 . S
N698 H705 0.984 . S
N699 C692 1.356 . S
N699 H702 0.984 . S
N699 H703 0.985 . S
H700 N695 0.984 . S
H701 N695 0.985 . S
H702 N699 0.984 . S
H703 N699 0.985 . S
H704 N698 0.984 . S
H705 N698 0.984 . S
H706 N694 0.984 . S
H707 N694 0.985 . S
C708 C709 1.363 . S
C708 C714 1.379 1_455 S
C708 N716 1.356 . S
C709 C708 1.363 . S
C709 C715 1.363 1_455 S
C710 C711 1.363 . S
C710 C715 1.379 . S
C710 N717 1.356 . S
C711 C710 1.363 . S
C711 C714 1.363 . S
N712 C714 1.356 1_455 S
N712 H724 0.984 . S
N712 H725 0.985 1_455 S
N713 C715 1.356 . S
N713 H718 0.984 . S
N713 H719 0.985 . S
C714 C708 1.379 1_655 S
C714 C711 1.363 . S
C714 N712 1.356 1_655 S
C715 C709 1.363 1_655 S
C715 C710 1.379 . S
C715 N713 1.356 . S
N716 C708 1.356 . S
N716 H722 0.984 . S
N716 H723 0.984 . S
N717 C710 1.356 . S
N717 H720 0.984 . S
N717 H721 0.985 . S
H718 N713 0.984 . S
H719 N713 0.985 . S
H720 N717 0.984 . S
H721 N717 0.985 . S
H722 N716 0.984 . S
H723 N716 0.984 . S
H724 N712 0.984 . S
H725 N712 0.985 1_655 S
C726 C727 1.363 . S
C726 C732 1.379 1_655 S
C726 N734 1.356 . S
C727 C726 1.363 . S
C727 C733 1.363 1_565 S
C728 C729 1.363 1_655 S
C728 C733 1.379 . S
C728 N735 1.356 1_655 S
C729 C728 1.363 1_455 S
C729 C732 1.363 1_545 S
N730 C732 1.356 . S
N730 H742 0.984 . S
N730 H743 0.985 . S
N731 C733 1.356 . S
N731 H736 0.984 . S
N731 H737 0.985 . S
C732 C726 1.379 1_455 S
C732 C729 1.363 1_565 S
C732 N730 1.356 . S
C733 C727 1.363 1_545 S
C733 C728 1.379 . S
C733 N731 1.356 . S
N734 C726 1.356 . S
N734 H740 0.984 . S
N734 H741 0.984 . S
N735 C728 1.356 1_455 S
N735 H738 0.984 . S
N735 H739 0.985 1_455 S
H736 N731 0.984 . S
H737 N731 0.985 . S
H738 N735 0.984 . S
H739 N735 0.985 1_655 S
H740 N734 0.984 . S
H741 N734 0.984 . S
H742 N730 0.984 . S
H743 N730 0.985 . S
C744 C745 1.363 . S
C744 C750 1.379 . S
C744 N752 1.356 . S
C745 C744 1.363 . S
C745 C751 1.363 . S
C746 C747 1.363 . S
C746 C751 1.379 . S
C746 N753 1.356 . S
C747 C746 1.363 . S
C747 C750 1.363 . S
N748 C750 1.356 . S
N748 H760 0.984 . S
N748 H761 0.985 . S
N749 C751 1.356 . S
N749 H754 0.984 . S
N749 H755 0.985 . S
C750 C744 1.379 . S
C750 C747 1.363 . S
C750 N748 1.356 . S
C751 C745 1.363 . S
C751 C746 1.379 . S
C751 N749 1.356 . S
N752 C744 1.356 . S
N752 H758 0.984 . S
N752 H759 0.984 . S
N753 C746 1.356 . S
N753 H756 0.984 . S
N753 H757 0.985 . S
H754 N749 0.984 . S
H755 N749 0.985 . S
H756 N753 0.984 . S
H757 N753 0.985 . S
H758 N752 0.984 . S
H759 N752 0.984 . S
H760 N748 0.984 . S
H761 N748 0.985 . S
C762 C763 1.363 . S
C762 C768 1.379 . S
C762 N770 1.356 . S
C763 C762 1.363 . S
C763 C769 1.363 . S
C764 C765 1.363 . S
C764 C769 1.379 1_455 S
C764 N771 1.356 . S
C765 C764 1.363 . S
C765 C768 1.363 1_455 S
N766 C768 1.356 1_455 S
N766 H778 0.984 1_455 S
N766 H779 0.985 . S
N767 C769 1.356 . S
N767 H772 0.984 . S
N767 H773 0.985 . S
C768 C762 1.379 . S
C768 C765 1.363 1_655 S
C768 N766 1.356 1_655 S
C769 C763 1.363 . S
C769 C764 1.379 1_655 S
C769 N767 1.356 . S
N770 C762 1.356 . S
N770 H776 0.984 . S
N770 H777 0.984 . S
N771 C764 1.356 . S
N771 H774 0.984 . S
N771 H775 0.985 . S
H772 N767 0.984 . S
H773 N767 0.985 . S
H774 N771 0.984 . S
H775 N771 0.985 . S
H776 N770 0.984 . S
H777 N770 0.984 . S
H778 N766 0.984 1_655 S
H779 N766 0.985 . S
C780 C781 1.363 1_655 S
C780 C786 1.379 1_545 S
C780 N788 1.356 . S
C781 C780 1.363 1_455 S
C781 C787 1.363 1_545 S
C782 C783 1.375 . S
C782 C787 1.372 1_655 S
C782 N789 1.354 1_655 S
C783 C782 1.375 . S
C783 C786 1.363 . S
N784 C786 1.356 . S
N784 H796 0.984 . S
N784 H797 0.985 . S
N785 C787 1.356 1_545 S
N785 H790 0.984 . S
N785 H791 0.985 1_545 S
C786 C780 1.379 1_565 S
C786 C783 1.363 . S
C786 N784 1.356 . S
C787 C781 1.363 1_565 S
C787 C782 1.372 1_455 S
C787 N785 1.356 1_565 S
N788 C780 1.356 . S
N788 H794 0.984 . S
N788 H795 0.984 . S
N789 C782 1.354 1_455 S
N789 H792 0.984 1_455 S
N789 H793 0.985 . S
H790 N785 0.984 . S
H791 N785 0.985 1_565 S
H792 N789 0.984 1_655 S
H793 N789 0.985 . S
H794 N788 0.984 . S
H795 N788 0.984 . S
H796 N784 0.984 . S
H797 N784 0.985 . S
C798 C799 1.363 1_565 S
C798 C804 1.379 . S
C798 N806 1.356 . S
C799 C798 1.363 1_545 S
C799 C805 1.363 . S
C800 C801 1.363 . S
C800 C805 1.379 1_565 S
C800 N807 1.356 . S
C801 C800 1.363 . S
C801 C804 1.363 . S
N802 C804 1.356 . S
N802 H814 0.984 . S
N802 H815 0.985 . S
N803 C805 1.356 . S
N803 H808 0.984 . S
N803 H809 0.985 . S
C804 C798 1.379 . S
C804 C801 1.363 . S
C804 N802 1.356 . S
C805 C799 1.363 . S
C805 C800 1.379 1_545 S
C805 N803 1.356 . S
N806 C798 1.356 . S
N806 H812 0.984 . S
N806 H813 0.981 1_565 S
N807 C800 1.356 . S
N807 H810 0.984 . S
N807 H811 0.985 . S
H808 N803 0.984 . S
H809 N803 0.985 . S
H810 N807 0.984 . S
H811 N807 0.985 . S
H812 N806 0.984 . S
H813 N806 0.981 1_545 S
H814 N802 0.984 . S
H815 N802 0.985 . S
C816 C817 1.363 . S
C816 C822 1.379 . S
C816 N824 1.356 . S
C817 C816 1.363 . S
C817 C823 1.363 . S
C818 C819 1.363 . S
C818 C823 1.379 1_565 S
C818 N825 1.356 . S
C819 C818 1.363 . S
C819 C822 1.363 1_565 S
N820 C822 1.356 1_565 S
N820 H832 0.984 1_565 S
N820 H833 0.985 . S
N821 C823 1.356 . S
N821 H826 0.984 . S
N821 H827 0.985 . S
C822 C816 1.379 . S
C822 C819 1.363 1_545 S
C822 N820 1.356 1_545 S
C823 C817 1.363 . S
C823 C818 1.379 1_545 S
C823 N821 1.356 . S
N824 C816 1.356 . S
N824 H830 0.984 . S
N824 H831 0.984 . S
N825 C818 1.356 . S
N825 H828 0.984 . S
N825 H829 0.985 . S
H826 N821 0.984 . S
H827 N821 0.985 . S
H828 N825 0.984 . S
H829 N825 0.985 . S
H830 N824 0.984 . S
H831 N824 0.984 . S
H832 N820 0.984 1_545 S
H833 N820 0.985 . S
C834 C835 1.363 . S
C834 C840 1.379 . S
C834 N842 1.356 . S
C835 C834 1.363 . S
C835 C841 1.363 . S
C836 C837 1.363 . S
C836 C841 1.379 . S
C836 N843 1.356 . S
C837 C836 1.363 . S
C837 C840 1.363 . S
N838 C840 1.356 . S
N838 H850 0.984 . S
N838 H851 0.985 . S
N839 C841 1.356 . S
N839 H844 0.984 . S
N839 H845 0.985 . S
C840 C834 1.379 . S
C840 C837 1.363 . S
C840 N838 1.356 . S
C841 C835 1.363 . S
C841 C836 1.379 . S
C841 N839 1.356 . S
N842 C834 1.356 . S
N842 H848 0.984 . S
N842 H849 0.984 . S
N843 C836 1.356 . S
N843 H846 0.984 . S
N843 H847 0.985 . S
H844 N839 0.984 . S
H845 N839 0.985 . S
H846 N843 0.984 . S
H847 N843 0.985 . S
H848 N842 0.984 . S
H849 N842 0.984 . S
H850 N838 0.984 . S
H851 N838 0.985 . S
C852 C853 1.363 1_655 S
C852 C858 1.379 . S
C852 N860 1.356 . S
C853 C852 1.363 1_455 S
C853 C859 1.363 . S
C854 C855 1.363 1_455 S
C854 C859 1.379 . S
C854 N861 1.356 . S
C855 C854 1.363 1_655 S
C855 C858 1.363 . S
N856 C858 1.356 . S
N856 H868 0.984 . S
N856 H869 0.985 . S
N857 C859 1.356 . S
N857 H862 0.984 . S
N857 H863 0.985 . S
C858 C852 1.379 . S
C858 C855 1.363 . S
C858 N856 1.356 . S
C859 C853 1.363 . S
C859 C854 1.379 . S
C859 N857 1.356 . S
N860 C852 1.356 . S
N860 H866 0.984 . S
N860 H867 0.984 . S
N861 C854 1.356 . S
N861 H864 0.984 . S
N861 H865 0.985 . S
H862 N857 0.984 . S
H863 N857 0.985 . S
H864 N861 0.984 . S
H865 N861 0.985 . S
H866 N860 0.984 . S
H867 N860 0.984 . S
H868 N856 0.984 . S
H869 N856 0.985 . S
C870 C871 1.363 1_455 S
C870 C876 1.375 1_565 S
C870 N878 1.356 1_455 S
C871 C870 1.363 1_655 S
C871 C877 1.363 1_665 S
C872 C873 1.363 . S
C872 C877 1.379 . S
C872 N879 1.356 . S
C873 C872 1.363 . S
C873 C876 1.371 . S
N874 C876 1.355 1_565 S
N874 H886 0.984 . S
N874 H887 0.985 1_565 S
N875 C877 1.356 1_655 S
N875 H880 0.984 . S
N875 H881 0.985 . S
C876 C870 1.375 1_545 S
C876 C873 1.371 . S
C876 N874 1.355 1_545 S
C877 C871 1.363 1_445 S
C877 C872 1.379 . S
C877 N875 1.356 1_455 S
N878 C870 1.356 1_655 S
N878 H884 0.984 . S
N878 H885 0.984 . S
N879 C872 1.356 . S
N879 H882 0.984 . S
N879 H883 0.985 . S
H880 N875 0.984 . S
H881 N875 0.985 . S
H882 N879 0.984 . S
H883 N879 0.985 . S
H884 N878 0.984 . S
H885 N878 0.984 . S
H886 N874 0.984 . S
H887 N874 0.985 1_545 S
C888 C889 1.363 . S
C888 C894 1.379 . S
C888 N896 1.356 . S
C889 C888 1.363 . S
C889 C895 1.363 . S
C890 C891 1.363 . S
C890 C895 1.379 . S
C890 N897 1.356 . S
C891 C890 1.363 . S
C891 C894 1.363 . S
N892 C894 1.356 . S
N892 H904 0.984 . S
N892 H905 0.985 . S
N893 C895 1.356 . S
N893 H898 0.984 . S
N893 H899 0.985 . S
C894 C888 1.379 . S
C894 C891 1.363 . S
C894 N892 1.356 . S
C895 C889 1.363 . S
C895 C890 1.379 . S
C895 N893 1.356 . S
N896 C888 1.356 . S
N896 H902 0.984 . S
N896 H903 0.984 . S
N897 C890 1.356 . S
N897 H900 0.984 . S
N897 H901 0.985 . S
H898 N893 0.984 . S
H899 N893 0.985 . S
H900 N897 0.984 . S
H901 N897 0.985 . S
H902 N896 0.984 . S
H903 N896 0.984 . S
H904 N892 0.984 . S
H905 N892 0.985 . S
C906 C907 1.363 . S
C906 C912 1.379 1_455 S
C906 N914 1.356 . S
C907 C906 1.363 . S
C907 C913 1.363 . S
C908 C909 1.363 1_455 S
C908 C913 1.379 . S
C908 N915 1.356 1_455 S
C909 C908 1.363 1_655 S
C909 C912 1.363 . S
N910 C912 1.356 . S
N910 H922 0.984 . S
N910 H923 0.985 . S
N911 C913 1.356 . S
N911 H916 0.984 . S
N911 H917 0.985 . S
C912 C906 1.379 1_655 S
C912 C909 1.363 . S
C912 N910 1.356 . S
C913 C907 1.363 . S
C913 C908 1.379 . S
C913 N911 1.356 . S
N914 C906 1.356 . S
N914 H920 0.984 . S
N914 H921 0.984 . S
N915 C908 1.356 1_655 S
N915 H918 0.984 . S
N915 H919 0.985 1_655 S
H916 N911 0.984 . S
H917 N911 0.985 . S
H918 N915 0.984 . S
H919 N915 0.985 1_455 S
H920 N914 0.984 . S
H921 N914 0.984 . S
H922 N910 0.984 . S
H923 N910 0.985 . S
C924 C925 1.363 1_445 S
C924 C930 1.379 . S
C924 N932 1.356 1_545 S
C925 C924 1.363 1_665 S
C925 C931 1.363 1_565 S
C926 C927 1.354 1_655 S
C926 C931 1.383 . S
C926 N933 1.358 . S
C927 C926 1.354 1_455 S
C927 C930 1.363 . S
N928 C930 1.356 . S
N928 H940 0.984 . S
N928 H941 0.985 . S
N929 C931 1.356 1_565 S
N929 H934 0.984 . S
N929 H935 0.985 . S
C930 C924 1.379 . S
C930 C927 1.363 . S
C930 N928 1.356 . S
C931 C925 1.363 1_545 S
C931 C926 1.383 . S
C931 N929 1.356 1_545 S
N932 C924 1.356 1_565 S
N932 H938 0.984 . S
N932 H939 0.984 . S
N933 C926 1.358 . S
N933 H936 0.984 1_655 S
N933 H937 0.985 . S
H934 N929 0.984 . S
H935 N929 0.985 . S
H936 N933 0.984 1_455 S
H937 N933 0.985 . S
H938 N932 0.984 . S
H939 N932 0.984 . S
H940 N928 0.984 . S
H941 N928 0.985 . S
C942 C943 1.363 . S
C942 C948 1.379 . S
C942 N950 1.356 . S
C943 C942 1.363 . S
C943 C949 1.363 . S
C944 C945 1.363 . S
C944 C949 1.379 1_565 S
C944 N951 1.356 . S
C945 C944 1.363 . S
C945 C948 1.363 1_565 S
N946 C948 1.356 . S
N946 H958 0.984 . S
N946 H959 0.985 . S
N947 C949 1.356 . S
N947 H952 0.984 . S
N947 H953 0.985 1_545 S
C948 C942 1.379 . S
C948 C945 1.363 1_545 S
C948 N946 1.356 . S
C949 C943 1.363 . S
C949 C944 1.379 1_545 S
C949 N947 1.356 . S
N950 C942 1.356 . S
N950 H956 0.984 . S
N950 H957 0.984 . S
N951 C944 1.356 . S
N951 H954 0.984 . S
N951 H955 0.985 . S
H952 N947 0.984 . S
H953 N947 0.985 1_565 S
H954 N951 0.984 . S
H955 N951 0.985 . S
H956 N950 0.984 . S
H957 N950 0.984 . S
H958 N946 0.984 . S
H959 N946 0.985 . S
C960 C961 1.363 . S
C960 C966 1.379 . S
C960 N968 1.356 . S
C961 C960 1.363 . S
C961 C967 1.363 . S
C962 C963 1.363 . S
C962 C967 1.379 . S
C962 N969 1.356 . S
C963 C962 1.363 . S
C963 C966 1.363 . S
N964 C966 1.356 . S
N964 H976 0.984 . S
N964 H977 0.985 . S
N965 C967 1.356 . S
N965 H970 0.984 . S
N965 H971 0.985 . S
C966 C960 1.379 . S
C966 C963 1.363 . S
C966 N964 1.356 . S
C967 C961 1.363 . S
C967 C962 1.379 . S
C967 N965 1.356 . S
N968 C960 1.356 . S
N968 H974 0.984 . S
N968 H975 0.984 . S
N969 C962 1.356 . S
N969 H972 0.984 . S
N969 H973 0.985 . S
H970 N965 0.984 . S
H971 N965 0.985 . S
H972 N969 0.984 . S
H973 N969 0.985 . S
H974 N968 0.984 . S
H975 N968 0.984 . S
H976 N964 0.984 . S
H977 N964 0.985 . S
C978 C979 1.363 . S
C978 C984 1.379 . S
C978 N986 1.356 . S
C979 C978 1.363 . S
C979 C985 1.363 . S
C980 C981 1.363 . S
C980 C985 1.379 . S
C980 N987 1.356 . S
C981 C980 1.363 . S
C981 C984 1.363 . S
N982 C984 1.356 . S
N982 H994 0.984 . S
N982 H995 0.985 . S
N983 C985 1.356 . S
N983 H988 0.984 . S
N983 H989 0.985 . S
C984 C978 1.379 . S
C984 C981 1.363 . S
C984 N982 1.356 . S
C985 C979 1.363 . S
C985 C980 1.379 . S
C985 N983 1.356 . S
N986 C978 1.356 . S
N986 H992 0.984 . S
N986 H993 0.984 . S
N987 C980 1.356 . S
N987 H990 0.984 . S
N987 H991 0.985 . S
H988 N983 0.984 . S
H989 N983 0.985 . S
H990 N987 0.984 . S
H991 N987 0.985 . S
H992 N986 0.984 . S
H993 N986 0.984 . S
H994 N982 0.984 . S
H995 N982 0.985 . S
C996 C997 1.363 . S
C996 C1002 1.379 . S
C996 N1004 1.356 . S
C997 C996 1.363 . S
C997 C1003 1.363 . S
C998 C999 1.363 . S
C998 C1003 1.379 . S
C998 N1005 1.356 . S
C999 C998 1.363 . S
C999 C1002 1.363 . S
N1000 C1002 1.356 . S
N1000 H1012 0.984 . S
N1000 H1013 0.985 . S
N1001 C1003 1.356 . S
N1001 H1006 0.984 . S
N1001 H1007 0.985 . S
C1002 C996 1.379 . S
C1002 C999 1.363 . S
C1002 N1000 1.356 . S
C1003 C997 1.363 . S
C1003 C998 1.379 . S
C1003 N1001 1.356 . S
N1004 C996 1.356 . S
N1004 H1010 0.984 . S
N1004 H1011 0.984 . S
N1005 C998 1.356 . S
N1005 H1008 0.984 . S
N1005 H1009 0.985 . S
H1006 N1001 0.984 . S
H1007 N1001 0.985 . S
H1008 N1005 0.984 . S
H1009 N1005 0.985 . S
H1010 N1004 0.984 . S
H1011 N1004 0.984 . S
H1012 N1000 0.984 . S
H1013 N1000 0.985 . S
C1014 C1015 1.363 . S
C1014 C1020 1.379 . S
C1014 N1022 1.356 . S
C1015 C1014 1.363 . S
C1015 C1021 1.363 . S
C1016 C1017 1.363 . S
C1016 C1021 1.379 . S
C1016 N1023 1.356 . S
C1017 C1016 1.363 . S
C1017 C1020 1.363 . S
N1018 C1020 1.356 . S
N1018 H1030 0.984 . S
N1018 H1031 0.985 . S
N1019 C1021 1.356 . S
N1019 H1024 0.984 . S
N1019 H1025 0.985 . S
C1020 C1014 1.379 . S
C1020 C1017 1.363 . S
C1020 N1018 1.356 . S
C1021 C1015 1.363 . S
C1021 C1016 1.379 . S
C1021 N1019 1.356 . S
N1022 C1014 1.356 . S
N1022 H1028 0.984 . S
N1022 H1029 0.984 . S
N1023 C1016 1.356 . S
N1023 H1026 0.984 . S
N1023 H1027 0.985 . S
H1024 N1019 0.984 . S
H1025 N1019 0.985 . S
H1026 N1023 0.984 . S
H1027 N1023 0.985 . S
H1028 N1022 0.984 . S
H1029 N1022 0.984 . S
H1030 N1018 0.984 . S
H1031 N1018 0.985 . S
C1032 C1033 1.363 . S
C1032 C1038 1.379 . S
C1032 N1040 1.356 . S
C1033 C1032 1.363 . S
C1033 C1039 1.363 . S
C1034 C1035 1.363 . S
C1034 C1039 1.379 . S
C1034 N1041 1.356 . S
C1035 C1034 1.363 . S
C1035 C1038 1.363 . S
N1036 C1038 1.356 . S
N1036 H1048 0.984 . S
N1036 H1049 0.985 . S
N1037 C1039 1.356 . S
N1037 H1042 0.984 . S
N1037 H1043 0.985 . S
C1038 C1032 1.379 . S
C1038 C1035 1.363 . S
C1038 N1036 1.356 . S
C1039 C1033 1.363 . S
C1039 C1034 1.379 . S
C1039 N1037 1.356 . S
N1040 C1032 1.356 . S
N1040 H1046 0.984 . S
N1040 H1047 0.984 . S
N1041 C1034 1.356 . S
N1041 H1044 0.984 . S
N1041 H1045 0.985 . S
H1042 N1037 0.984 . S
H1043 N1037 0.985 . S
H1044 N1041 0.984 . S
H1045 N1041 0.985 . S
H1046 N1040 0.984 . S
H1047 N1040 0.984 . S
H1048 N1036 0.984 . S
H1049 N1036 0.985 . S
C1050 C1051 1.363 . S
C1050 C1056 1.379 . S
C1050 N1058 1.356 . S
C1051 C1050 1.363 . S
C1051 C1057 1.363 . S
C1052 C1053 1.363 . S
C1052 C1057 1.379 . S
C1052 N1059 1.356 . S
C1053 C1052 1.363 . S
C1053 C1056 1.363 . S
N1054 C1056 1.356 . S
N1054 H1066 0.984 . S
N1054 H1067 0.985 . S
N1055 C1057 1.356 . S
N1055 H1060 0.984 . S
N1055 H1061 0.985 . S
C1056 C1050 1.379 . S
C1056 C1053 1.363 . S
C1056 N1054 1.356 . S
C1057 C1051 1.363 . S
C1057 C1052 1.379 . S
C1057 N1055 1.356 . S
N1058 C1050 1.356 . S
N1058 H1064 0.984 . S
N1058 H1065 0.984 . S
N1059 C1052 1.356 . S
N1059 H1062 0.984 . S
N1059 H1063 0.985 . S
H1060 N1055 0.984 . S
H1061 N1055 0.985 . S
H1062 N1059 0.984 . S
H1063 N1059 0.985 . S
H1064 N1058 0.984 . S
H1065 N1058 0.984 . S
H1066 N1054 0.984 . S
H1067 N1054 0.985 . S
C1068 C1069 1.363 . S
C1068 C1074 1.379 . S
C1068 N1076 1.356 . S
C1069 C1068 1.363 . S
C1069 C1075 1.363 . S
C1070 C1071 1.363 . S
C1070 C1075 1.379 . S
C1070 N1077 1.356 . S
C1071 C1070 1.363 . S
C1071 C1074 1.363 . S
N1072 C1074 1.356 . S
N1072 H1084 0.984 . S
N1072 H1085 0.985 . S
N1073 C1075 1.356 . S
N1073 H1078 0.984 . S
N1073 H1079 0.985 . S
C1074 C1068 1.379 . S
C1074 C1071 1.363 . S
C1074 N1072 1.356 . S
C1075 C1069 1.363 . S
C1075 C1070 1.379 . S
C1075 N1073 1.356 . S
N1076 C1068 1.356 . S
N1076 H1082 0.984 . S
N1076 H1083 0.984 . S
N1077 C1070 1.356 . S
N1077 H1080 0.984 . S
N1077 H1081 0.985 . S
H1078 N1073 0.984 . S
H1079 N1073 0.985 . S
H1080 N1077 0.984 . S
H1081 N1077 0.985 . S
H1082 N1076 0.984 . S
H1083 N1076 0.984 . S
H1084 N1072 0.984 . S
H1085 N1072 0.985 . S
C1086 C1087 1.363 . S
C1086 C1092 1.379 . S
C1086 N1094 1.356 . S
C1087 C1086 1.363 . S
C1087 C1093 1.363 . S
C1088 C1089 1.363 . S
C1088 C1093 1.379 . S
C1088 N1095 1.356 . S
C1089 C1088 1.363 . S
C1089 C1092 1.363 . S
N1090 C1092 1.356 . S
N1090 H1102 0.984 . S
N1090 H1103 0.985 . S
N1091 C1093 1.356 . S
N1091 H1096 0.984 . S
N1091 H1097 0.985 . S
C1092 C1086 1.379 . S
C1092 C1089 1.363 . S
C1092 N1090 1.356 . S
C1093 C1087 1.363 . S
C1093 C1088 1.379 . S
C1093 N1091 1.356 . S
N1094 C1086 1.356 . S
N1094 H1100 0.984 . S
N1094 H1101 0.984 . S
N1095 C1088 1.356 . S
N1095 H1098 0.984 . S
N1095 H1099 0.985 . S
H1096 N1091 0.984 . S
H1097 N1091 0.985 . S
H1098 N1095 0.984 . S
H1099 N1095 0.985 . S
H1100 N1094 0.984 . S
H1101 N1094 0.984 . S
H1102 N1090 0.984 . S
H1103 N1090 0.985 . S
C1104 C1105 1.363 . S
C1104 C1110 1.379 . S
C1104 N1112 1.356 . S
C1105 C1104 1.363 . S
C1105 C1111 1.363 . S
C1106 C1107 1.363 . S
C1106 C1111 1.379 . S
C1106 N1113 1.356 . S
C1107 C1106 1.363 . S
C1107 C1110 1.363 . S
N1108 C1110 1.356 . S
N1108 H1120 0.984 . S
N1108 H1121 0.985 . S
N1109 C1111 1.356 . S
N1109 H1114 0.984 . S
N1109 H1115 0.985 . S
C1110 C1104 1.379 . S
C1110 C1107 1.363 . S
C1110 N1108 1.356 . S
C1111 C1105 1.363 . S
C1111 C1106 1.379 . S
C1111 N1109 1.356 . S
N1112 C1104 1.356 . S
N1112 H1118 0.984 . S
N1112 H1119 0.984 . S
N1113 C1106 1.356 . S
N1113 H1116 0.984 . S
N1113 H1117 0.985 . S
H1114 N1109 0.984 . S
H1115 N1109 0.985 . S
H1116 N1113 0.984 . S
H1117 N1113 0.985 . S
H1118 N1112 0.984 . S
H1119 N1112 0.984 . S
H1120 N1108 0.984 . S
H1121 N1108 0.985 . S
C1122 C1123 1.363 . S
C1122 C1128 1.379 . S
C1122 N1130 1.356 . S
C1123 C1122 1.363 . S
C1123 C1129 1.363 . S
C1124 C1125 1.363 . S
C1124 C1129 1.379 . S
C1124 N1131 1.356 . S
C1125 C1124 1.363 . S
C1125 C1128 1.363 . S
N1126 C1128 1.356 . S
N1126 H1138 0.984 . S
N1126 H1139 0.985 . S
N1127 C1129 1.356 . S
N1127 H1132 0.984 . S
N1127 H1133 0.985 . S
C1128 C1122 1.379 . S
C1128 C1125 1.363 . S
C1128 N1126 1.356 . S
C1129 C1123 1.363 . S
C1129 C1124 1.379 . S
C1129 N1127 1.356 . S
N1130 C1122 1.356 . S
N1130 H1136 0.984 . S
N1130 H1137 0.984 . S
N1131 C1124 1.356 . S
N1131 H1134 0.984 . S
N1131 H1135 0.985 . S
H1132 N1127 0.984 . S
H1133 N1127 0.985 . S
H1134 N1131 0.984 . S
H1135 N1131 0.985 . S
H1136 N1130 0.984 . S
H1137 N1130 0.984 . S
H1138 N1126 0.984 . S
H1139 N1126 0.985 . S
C1140 C1141 1.363 . S
C1140 C1146 1.379 . S
C1140 N1148 1.356 . S
C1141 C1140 1.363 . S
C1141 C1147 1.363 . S
C1142 C1143 1.363 . S
C1142 C1147 1.379 . S
C1142 N1149 1.356 . S
C1143 C1142 1.363 . S
C1143 C1146 1.363 . S
N1144 C1146 1.356 . S
N1144 H1156 0.984 . S
N1144 H1157 0.985 . S
N1145 C1147 1.356 . S
N1145 H1150 0.984 . S
N1145 H1151 0.985 . S
C1146 C1140 1.379 . S
C1146 C1143 1.363 . S
C1146 N1144 1.356 . S
C1147 C1141 1.363 . S
C1147 C1142 1.379 . S
C1147 N1145 1.356 . S
N1148 C1140 1.356 . S
N1148 H1154 0.984 . S
N1148 H1155 0.984 . S
N1149 C1142 1.356 . S
N1149 H1152 0.984 . S
N1149 H1153 0.985 . S
H1150 N1145 0.984 . S
H1151 N1145 0.985 . S
H1152 N1149 0.984 . S
H1153 N1149 0.985 . S
H1154 N1148 0.984 . S
H1155 N1148 0.984 . S
H1156 N1144 0.984 . S
H1157 N1144 0.985 . S
C1158 C1159 1.363 . S
C1158 C1164 1.379 . S
C1158 N1166 1.356 . S
C1159 C1158 1.363 . S
C1159 C1165 1.363 . S
C1160 C1161 1.363 . S
C1160 C1165 1.379 . S
C1160 N1167 1.356 . S
C1161 C1160 1.363 . S
C1161 C1164 1.363 . S
N1162 C1164 1.356 . S
N1162 H1174 0.984 . S
N1162 H1175 0.985 . S
N1163 C1165 1.356 . S
N1163 H1168 0.984 . S
N1163 H1169 0.985 . S
C1164 C1158 1.379 . S
C1164 C1161 1.363 . S
C1164 N1162 1.356 . S
C1165 C1159 1.363 . S
C1165 C1160 1.379 . S
C1165 N1163 1.356 . S
N1166 C1158 1.356 . S
N1166 H1172 0.984 . S
N1166 H1173 0.984 . S
N1167 C1160 1.356 . S
N1167 H1170 0.984 . S
N1167 H1171 0.985 . S
H1168 N1163 0.984 . S
H1169 N1163 0.985 . S
H1170 N1167 0.984 . S
H1171 N1167 0.985 . S
H1172 N1166 0.984 . S
H1173 N1166 0.984 . S
H1174 N1162 0.984 . S
H1175 N1162 0.985 . S
C1176 C1177 1.363 . S
C1176 C1182 1.379 . S
C1176 N1184 1.356 . S
C1177 C1176 1.363 . S
C1177 C1183 1.363 . S
C1178 C1179 1.363 . S
C1178 C1183 1.379 . S
C1178 N1185 1.356 . S
C1179 C1178 1.363 . S
C1179 C1182 1.363 . S
N1180 C1182 1.356 . S
N1180 H1192 0.984 . S
N1180 H1193 0.985 . S
N1181 C1183 1.356 . S
N1181 H1186 0.984 . S
N1181 H1187 0.985 . S
C1182 C1176 1.379 . S
C1182 C1179 1.363 . S
C1182 N1180 1.356 . S
C1183 C1177 1.363 . S
C1183 C1178 1.379 . S
C1183 N1181 1.356 . S
N1184 C1176 1.356 . S
N1184 H1190 0.984 . S
N1184 H1191 0.984 . S
N1185 C1178 1.356 . S
N1185 H1188 0.984 . S
N1185 H1189 0.985 . S
H1186 N1181 0.984 . S
H1187 N1181 0.985 . S
H1188 N1185 0.984 . S
H1189 N1185 0.985 . S
H1190 N1184 0.984 . S
H1191 N1184 0.984 . S
H1192 N1180 0.984 . S
H1193 N1180 0.985 . S
C1194 C1195 1.363 . S
C1194 C1200 1.379 . S
C1194 N1202 1.356 . S
C1195 C1194 1.363 . S
C1195 C1201 1.363 . S
C1196 C1197 1.363 . S
C1196 C1201 1.379 . S
C1196 N1203 1.356 . S
C1197 C1196 1.363 . S
C1197 C1200 1.363 . S
N1198 C1200 1.356 . S
N1198 H1210 0.984 . S
N1198 H1211 0.985 . S
N1199 C1201 1.356 . S
N1199 H1204 0.984 . S
N1199 H1205 0.985 . S
C1200 C1194 1.379 . S
C1200 C1197 1.363 . S
C1200 N1198 1.356 . S
C1201 C1195 1.363 . S
C1201 C1196 1.379 . S
C1201 N1199 1.356 . S
N1202 C1194 1.356 . S
N1202 H1208 0.984 . S
N1202 H1209 0.984 . S
N1203 C1196 1.356 . S
N1203 H1206 0.984 . S
N1203 H1207 0.985 . S
H1204 N1199 0.984 . S
H1205 N1199 0.985 . S
H1206 N1203 0.984 . S
H1207 N1203 0.985 . S
H1208 N1202 0.984 . S
H1209 N1202 0.984 . S
H1210 N1198 0.984 . S
H1211 N1198 0.985 . S
C1212 C1213 1.363 . S
C1212 C1218 1.379 . S
C1212 N1220 1.356 . S
C1213 C1212 1.363 . S
C1213 C1219 1.363 . S
C1214 C1215 1.363 . S
C1214 C1219 1.379 . S
C1214 N1221 1.356 . S
C1215 C1214 1.363 . S
C1215 C1218 1.363 . S
N1216 C1218 1.356 . S
N1216 H1228 0.984 . S
N1216 H1229 0.985 . S
N1217 C1219 1.356 . S
N1217 H1222 0.984 . S
N1217 H1223 0.985 . S
C1218 C1212 1.379 . S
C1218 C1215 1.363 . S
C1218 N1216 1.356 . S
C1219 C1213 1.363 . S
C1219 C1214 1.379 . S
C1219 N1217 1.356 . S
N1220 C1212 1.356 . S
N1220 H1226 0.984 . S
N1220 H1227 0.984 . S
N1221 C1214 1.356 . S
N1221 H1224 0.984 . S
N1221 H1225 0.985 . S
H1222 N1217 0.984 . S
H1223 N1217 0.985 . S
H1224 N1221 0.984 . S
H1225 N1221 0.985 . S
H1226 N1220 0.984 . S
H1227 N1220 0.984 . S
H1228 N1216 0.984 . S
H1229 N1216 0.985 . S
C1230 C1231 1.363 . S
C1230 C1236 1.379 . S
C1230 N1238 1.356 . S
C1231 C1230 1.363 . S
C1231 C1237 1.363 . S
C1232 C1233 1.363 . S
C1232 C1237 1.379 . S
C1232 N1239 1.356 . S
C1233 C1232 1.363 . S
C1233 C1236 1.363 . S
N1234 C1236 1.356 . S
N1234 H1246 0.984 . S
N1234 H1247 0.985 . S
N1235 C1237 1.356 . S
N1235 H1240 0.984 . S
N1235 H1241 0.985 . S
C1236 C1230 1.379 . S
C1236 C1233 1.363 . S
C1236 N1234 1.356 . S
C1237 C1231 1.363 . S
C1237 C1232 1.379 . S
C1237 N1235 1.356 . S
N1238 C1230 1.356 . S
N1238 H1244 0.984 . S
N1238 H1245 0.984 . S
N1239 C1232 1.356 . S
N1239 H1242 0.984 . S
N1239 H1243 0.985 . S
H1240 N1235 0.984 . S
H1241 N1235 0.985 . S
H1242 N1239 0.984 . S
H1243 N1239 0.985 . S
H1244 N1238 0.984 . S
H1245 N1238 0.984 . S
H1246 N1234 0.984 . S
H1247 N1234 0.985 . S
C529 C7 1.513 . S
C531 C139 1.513 . S
C547 C172 1.513 . S
C549 C40 1.513 . S
C565 C205 1.513 . S
C567 C73 1.513 . S
C583 C238 1.513 . S
C585 C106 1.513 . S
C601 C271 1.513 . S
C603 C403 1.513 . S
C619 C304 1.513 . S
C621 C436 1.513 . S
C637 C469 1.513 . S
C639 C337 1.513 . S
C655 C370 1.513 . S
C657 C502 1.513 . S
C673 N398 1.402 . S
C675 N13 1.385 . S
C691 N431 1.402 . S
C693 N46 1.385 . S
C709 N79 1.385 . S
C711 N464 1.402 . S
C727 N497 1.402 . S
C729 N112 1.385 . S
C745 N266 1.402 . S
C747 N145 1.385 . S
C763 N299 1.402 . S
C765 N178 1.385 . S
C781 N211 1.385 . S
C783 N332 1.402 . S
C799 N244 1.385 . S
C801 N365 1.402 . S
C817 N134 1.402 . S
C819 N277 1.385 . S
C835 N167 1.402 . S
C837 N310 1.385 . S
C853 N200 1.402 . S
C855 N343 1.385 . S
C871 N376 1.385 . S
C873 N233 1.402 . S
C889 N2 1.402 . S
C891 N409 1.385 . S
C907 N35 1.402 . S
C909 N442 1.385 . S
C925 N475 1.385 . S
C927 N68 1.402 . S
C943 N101 1.402 . S
C945 N508 1.385 . S
C961 C87 1.404 . S
C963 C21 1.404 . S
C979 C54 1.404 . S
C981 C120 1.404 . S
C997 C219 1.404 . S
C999 C153 1.404 . S
C1015 C252 1.404 . S
C1017 C186 1.404 . S
C1033 C351 1.404 . S
C1035 C285 1.404 . S
C1051 C384 1.404 . S
C1053 C318 1.404 . S
C1069 C417 1.404 . S
C1071 C483 1.404 . S
C1087 C516 1.404 . S
C1089 C450 1.404 . S
C1105 C249 1.394 . S
C1107 C18 1.394 . S
C1123 C150 1.394 . S
C1125 C51 1.394 . S
C1141 C183 1.394 . S
C1143 C84 1.394 . S
C1159 C216 1.394 . S
C1161 C117 1.394 . S
C1177 C513 1.394 . S
C1179 C282 1.394 . S
C1195 C414 1.394 . S
C1197 C315 1.394 . S
C1213 C447 1.394 . S
C1215 C348 1.394 . S
C1231 C480 1.394 . S
C1233 C381 1.394 . S
