# Generated by pormake.
# Topology ung, (4)-cn, num edge types: 1
# Building blocks:
#     Node 0, Type 0, BuildingBlock: QUQFOY_clean_sbu_1, # of connection points: 4
#     Node 1, Type 0, BuildingBlock: QUQFOY_clean_sbu_1, # of connection points: 4
#     Node 2, Type 0, BuildingBlock: QUQFOY_clean_sbu_1, # of connection points: 4
#     Node 3, Type 0, BuildingBlock: QUQFOY_clean_sbu_1, # of connection points: 4
#     Node 4, Type 0, BuildingBlock: QUQFOY_clean_sbu_1, # of connection points: 4
#     Node 5, Type 0, BuildingBlock: QUQFOY_clean_sbu_1, # of connection points: 4
#     Node 6, Type 0, BuildingBlock: QUQFOY_clean_sbu_1, # of connection points: 4
#     Node 7, Type 0, BuildingBlock: QUQFOY_clean_sbu_1, # of connection points: 4
#     Node 8, Type 0, BuildingBlock: QUQFOY_clean_sbu_1, # of connection points: 4
#     Node 9, Type 0, BuildingBlock: QUQFOY_clean_sbu_1, # of connection points: 4
#     Node 10, Type 0, BuildingBlock: QUQFOY_clean_sbu_1, # of connection points: 4
#     Node 11, Type 0, BuildingBlock: QUQFOY_clean_sbu_1, # of connection points: 4
#     Node 12, Type 0, BuildingBlock: QUQFOY_clean_sbu_1, # of connection points: 4
#     Node 13, Type 0, BuildingBlock: QUQFOY_clean_sbu_1, # of connection points: 4
#     Node 14, Type 0, BuildingBlock: QUQFOY_clean_sbu_1, # of connection points: 4
#     Node 15, Type 0, BuildingBlock: QUQFOY_clean_sbu_1, # of connection points: 4
#     Node 16, Type 0, BuildingBlock: QUQFOY_clean_sbu_1, # of connection points: 4
#     Node 17, Type 0, BuildingBlock: QUQFOY_clean_sbu_1, # of connection points: 4
#     Edge 18, Type (0, 0), BuildingBlock: XIVTED_clean_linker_0, # of connection points: 2
#     Edge 19, Type (0, 0), BuildingBlock: XIVTED_clean_linker_0, # of connection points: 2
#     Edge 20, Type (0, 0), BuildingBlock: XIVTED_clean_linker_0, # of connection points: 2
#     Edge 21, Type (0, 0), BuildingBlock: XIVTED_clean_linker_0, # of connection points: 2
#     Edge 22, Type (0, 0), BuildingBlock: XIVTED_clean_linker_0, # of connection points: 2
#     Edge 23, Type (0, 0), BuildingBlock: XIVTED_clean_linker_0, # of connection points: 2
#     Edge 24, Type (0, 0), BuildingBlock: XIVTED_clean_linker_0, # of connection points: 2
#     Edge 25, Type (0, 0), BuildingBlock: XIVTED_clean_linker_0, # of connection points: 2
#     Edge 26, Type (0, 0), BuildingBlock: XIVTED_clean_linker_0, # of connection points: 2
#     Edge 27, Type (0, 0), BuildingBlock: XIVTED_clean_linker_0, # of connection points: 2
#     Edge 28, Type (0, 0), BuildingBlock: XIVTED_clean_linker_0, # of connection points: 2
#     Edge 29, Type (0, 0), BuildingBlock: XIVTED_clean_linker_0, # of connection points: 2
#     Edge 30, Type (0, 0), BuildingBlock: XIVTED_clean_linker_0, # of connection points: 2
#     Edge 31, Type (0, 0), BuildingBlock: XIVTED_clean_linker_0, # of connection points: 2
#     Edge 32, Type (0, 0), BuildingBlock: XIVTED_clean_linker_0, # of connection points: 2
#     Edge 33, Type (0, 0), BuildingBlock: XIVTED_clean_linker_0, # of connection points: 2
#     Edge 34, Type (0, 0), BuildingBlock: XIVTED_clean_linker_0, # of connection points: 2
#     Edge 35, Type (0, 0), BuildingBlock: XIVTED_clean_linker_0, # of connection points: 2
#     Edge 36, Type (0, 0), BuildingBlock: XIVTED_clean_linker_0, # of connection points: 2
#     Edge 37, Type (0, 0), BuildingBlock: XIVTED_clean_linker_0, # of connection points: 2
#     Edge 38, Type (0, 0), BuildingBlock: XIVTED_clean_linker_0, # of connection points: 2
#     Edge 39, Type (0, 0), BuildingBlock: XIVTED_clean_linker_0, # of connection points: 2
#     Edge 40, Type (0, 0), BuildingBlock: XIVTED_clean_linker_0, # of connection points: 2
#     Edge 41, Type (0, 0), BuildingBlock: XIVTED_clean_linker_0, # of connection points: 2
#     Edge 42, Type (0, 0), BuildingBlock: XIVTED_clean_linker_0, # of connection points: 2
#     Edge 43, Type (0, 0), BuildingBlock: XIVTED_clean_linker_0, # of connection points: 2
#     Edge 44, Type (0, 0), BuildingBlock: XIVTED_clean_linker_0, # of connection points: 2
#     Edge 45, Type (0, 0), BuildingBlock: XIVTED_clean_linker_0, # of connection points: 2
#     Edge 46, Type (0, 0), BuildingBlock: XIVTED_clean_linker_0, # of connection points: 2
#     Edge 47, Type (0, 0), BuildingBlock: XIVTED_clean_linker_0, # of connection points: 2
#     Edge 48, Type (0, 0), BuildingBlock: XIVTED_clean_linker_0, # of connection points: 2
#     Edge 49, Type (0, 0), BuildingBlock: XIVTED_clean_linker_0, # of connection points: 2
#     Edge 50, Type (0, 0), BuildingBlock: XIVTED_clean_linker_0, # of connection points: 2
#     Edge 51, Type (0, 0), BuildingBlock: XIVTED_clean_linker_0, # of connection points: 2
#     Edge 52, Type (0, 0), BuildingBlock: XIVTED_clean_linker_0, # of connection points: 2
#     Edge 53, Type (0, 0), BuildingBlock: XIVTED_clean_linker_0, # of connection points: 2
# Relax obj value: 0.071
# Max RMSD: 0.175
# Mean RMSD: 0.149
data_MOF--net-ung--node1-QUQFOY_clean_sbu_1--edge1-XIVTED_clean_linker_0
_symmetry_space_group_name_H-M    P1
_symmetry_Int_Tables_number       1
_symmetry_cell_setting            triclinic
loop_
_symmetry_equiv_pos_as_xyz
'x, y, z'
_cell_length_a     70.687628
_cell_length_b     83.955972
_cell_length_c     22.713956
_cell_angle_alpha  90.536639
_cell_angle_beta   94.134823
_cell_angle_gamma 125.05332
loop_
_atom_site_label
_atom_site_type_symbol
_atom_site_fract_x
_atom_site_fract_y
_atom_site_fract_z
_atom_type_partial_charge
O0 O 0.04317 0.56864 0.31633 0.0
Cd1 Cd 0.04748 0.58545 0.24738 0.0
Cd2 Cd 0.01136 0.58261 0.2914 0.0
O3 O 0.00936 0.56084 0.34101 0.0
O4 O 0.06239 0.57851 0.19092 0.0
O5 O 0.02729 0.57192 0.17198 0.0
C6 C 0.04324 0.57009 0.15695 0.0
C7 C 0.98073 0.57866 0.2298 0.0
C8 C 0.02604 0.55895 0.34685 0.0
C9 C 0.0585 0.62216 0.30087 0.0
O10 O 0.03789 0.61151 0.31605 0.0
O11 O 0.06622 0.61501 0.26864 0.0
O12 O 0.98177 0.58098 0.28652 0.0
O13 O 0.99626 0.57732 0.20865 0.0
O14 O 0.47618 0.47197 0.31137 0.0
Cd15 Cd 0.45269 0.45396 0.24317 0.0
Cd16 Cd 0.46352 0.43099 0.29176 0.0
O17 O 0.49178 0.45626 0.33613 0.0
O18 O 0.4537 0.4727 0.18714 0.0
O19 O 0.46623 0.45452 0.1684 0.0
C20 C 0.46459 0.46853 0.15403 0.0
C21 C 0.46284 0.40969 0.22336 0.0
C22 C 0.49139 0.47118 0.34162 0.0
C23 C 0.4171 0.42304 0.31122 0.0
O24 O 0.43302 0.42087 0.32799 0.0
O25 O 0.41977 0.43391 0.26912 0.0
O26 O 0.46715 0.40909 0.27932 0.0
O27 O 0.46041 0.42312 0.20678 0.0
O28 O 0.57153 0.01702 0.21475 0.0
Cd29 Cd 0.59334 0.02082 0.28541 0.0
Cd30 Cd 0.58352 0.98761 0.2357 0.0
O31 O 0.55781 0.98702 0.18266 0.0
O32 O 0.59069 0.03726 0.34374 0.0
O33 O 0.57833 0.00672 0.35654 0.0
C34 C 0.57937 0.02193 0.3736 0.0
C35 C 0.57995 0.96384 0.29625 0.0
C36 C 0.55797 1.00226 0.17934 0.0
C37 C 0.63129 0.02483 0.22686 0.0
O38 O 0.61616 0.00702 0.21021 0.0
O39 O 0.62689 0.03351 0.26393 0.0
O40 O 0.57919 0.96179 0.23948 0.0
O41 O 0.58102 0.97864 0.31779 0.0
O42 O 0.03074 0.48078 0.81413 0.0
Cd43 Cd 0.03847 0.46881 0.7495 0.0
Cd44 Cd 0.00428 0.43529 0.79229 0.0
O45 O 1.00102 0.45365 0.84621 0.0
O46 O 0.05493 0.48988 0.69386 0.0
O47 O 0.01993 0.46275 0.67096 0.0
C48 C 0.03659 0.47984 0.65707 0.0
C49 C 0.97414 0.40945 0.72955 0.0
C50 C 0.01454 0.47219 0.84792 0.0
C51 C 0.05253 0.44451 0.80492 0.0
O52 O 0.03147 0.43321 0.81606 0.0
O53 O 0.05933 0.45961 0.77632 0.0
O54 O 0.97548 0.40797 0.786 0.0
O55 O 0.98919 0.42606 0.70921 0.0
O56 O 0.57279 0.56456 0.72971 0.0
Cd57 Cd 0.59246 0.58206 0.80291 0.0
Cd58 Cd 0.58098 0.60435 0.75311 0.0
O59 O 0.55709 0.57966 0.6981 0.0
O60 O 0.58988 0.56364 0.86213 0.0
O61 O 0.575 0.58059 0.87028 0.0
C62 C 0.57697 0.56709 0.88902 0.0
C63 C 0.57489 0.62434 0.80849 0.0
C64 C 0.55883 0.5654 0.69384 0.0
C65 C 0.63038 0.6164 0.75097 0.0
O66 O 0.61446 0.61828 0.73186 0.0
O67 O 0.62628 0.60348 0.78704 0.0
O68 O 0.57474 0.62485 0.75163 0.0
O69 O 0.57651 0.61131 0.83301 0.0
O70 O 0.47868 0.0186 0.80087 0.0
Cd71 Cd 0.45527 0.01353 0.73283 0.0
Cd72 Cd 0.46782 0.04879 0.77801 0.0
O73 O 0.4945 0.04955 0.82662 0.0
O74 O 0.45592 0.99544 0.67596 0.0
O75 O 0.46856 0.02576 0.65835 0.0
C76 C 0.46675 0.01008 0.64314 0.0
C77 C 0.46916 0.06975 0.70906 0.0
C78 C 0.49371 0.03408 0.83208 0.0
C79 C 0.42003 0.01303 0.79606 0.0
O80 O 0.43613 0.03085 0.80998 0.0
O81 O 0.42283 1.00312 0.75934 0.0
O82 O 0.47299 0.07472 0.76502 0.0
O83 O 0.46662 0.05381 0.69302 0.0
O84 O 0.70421 0.89929 0.6518 0.0
Cd85 Cd 0.70814 0.9168 0.58415 0.0
Cd86 Cd 0.6736 0.91357 0.63486 0.0
O87 O 0.66964 0.88983 0.67517 0.0
O88 O 0.72446 0.91115 0.52822 0.0
O89 O 0.68897 0.90342 0.50706 0.0
C90 C 0.70564 0.90245 0.49294 0.0
C91 C 0.6457 0.9127 0.57024 0.0
C92 C 0.68666 0.8884 0.68019 0.0
C93 C 0.72055 0.95232 0.64948 0.0
O94 O 0.70108 0.94081 0.67011 0.0
O95 O 0.72631 0.94646 0.60688 0.0
O96 O 0.64475 0.91311 0.62682 0.0
O97 O 0.6618 0.91183 0.55074 0.0
O98 O 0.14385 0.80847 0.62551 0.0
Cd99 Cd 0.11981 0.78994 0.55936 0.0
Cd100 Cd 0.13499 0.76856 0.60016 0.0
O101 O 0.16203 0.79451 0.6452 0.0
O102 O 0.11832 0.80764 0.5034 0.0
O103 O 0.13249 0.79079 0.48324 0.0
C104 C 0.12943 0.80405 0.4691 0.0
C105 C 0.13542 0.74846 0.52952 0.0
C106 C 0.16022 0.80864 0.65304 0.0
C107 C 0.08729 0.7565 0.62641 0.0
O108 O 0.10435 0.75539 0.63807 0.0
O109 O 0.08842 0.76824 0.5892 0.0
O110 O 0.14122 0.74833 0.58475 0.0
O111 O 0.13145 0.76113 0.5147 0.0
O112 O 0.19755 0.30947 0.61229 0.0
Cd113 Cd 0.21372 0.3038 0.55253 0.0
Cd114 Cd 0.25278 0.33892 0.60824 0.0
O115 O 0.22634 0.3404 0.63626 0.0
O116 O 0.19504 0.29342 0.4719 0.0
O117 O 0.22601 0.32339 0.49328 0.0
C118 C 0.20924 0.31094 0.45563 0.0
C119 C 0.28412 0.36316 0.55865 0.0
C120 C 0.20525 0.3259 0.63824 0.0
C121 C 0.24716 0.3007 0.62926 0.0
O122 O 0.25604 0.31834 0.64613 0.0
O123 O 0.23155 0.29231 0.58574 0.0
O124 O 0.28473 0.36491 0.61545 0.0
O125 O 0.26588 0.34822 0.53102 0.0
O126 O 0.69745 0.8146 0.14869 0.0
Cd127 Cd 0.70476 0.80212 0.08441 0.0
Cd128 Cd 0.67083 0.7689 0.12943 0.0
O129 O 0.66794 0.78769 0.18236 0.0
O130 O 0.7208 0.82257 0.02668 0.0
O131 O 0.68566 0.79534 0.00639 0.0
C132 C 0.70226 0.81219 0.99072 0.0
C133 C 0.64037 0.74224 0.06982 0.0
C134 C 0.68146 0.80622 0.18316 0.0
C135 C 0.71899 0.77804 0.14055 0.0
O136 O 0.69807 0.76692 0.15283 0.0
O137 O 0.72565 0.79297 0.11121 0.0
O138 O 0.64222 0.74155 0.12656 0.0
O139 O 0.65497 0.75858 0.04739 0.0
O140 O 0.23629 0.9013 0.04131 0.0
Cd141 Cd 0.25556 0.91818 0.11578 0.0
Cd142 Cd 0.24493 0.94103 0.06607 0.0
O143 O 0.22118 0.91682 0.00924 0.0
O144 O 0.25285 0.89913 0.17272 0.0
O145 O 0.23787 0.91587 0.18374 0.0
C146 C 0.23989 0.90225 0.20073 0.0
C147 C 0.23918 0.96039 0.12571 0.0
C148 C 0.22279 0.90249 0.00472 0.0
C149 C 0.29414 0.95262 0.0657 0.0
O150 O 0.27851 0.95478 0.04601 0.0
O151 O 0.28959 0.93952 0.1015 0.0
O152 O 0.23926 0.96187 0.06911 0.0
O153 O 0.24033 0.94677 0.14728 0.0
O154 O 0.14079 0.34515 0.09743 0.0
Cd155 Cd 0.11718 0.3452 0.03994 0.0
Cd156 Cd 0.13789 0.38006 0.10455 0.0
O157 O 0.16377 0.37611 0.12991 0.0
O158 O 0.10882 0.325 0.97479 0.0
O159 O 0.12841 0.35652 0.96224 0.0
C160 C 0.12042 0.33927 0.94123 0.0
C161 C 0.13597 0.39967 0.03566 0.0
C162 C 0.15911 0.35899 0.12719 0.0
C163 C 0.08976 0.34789 0.12771 0.0
O164 O 0.10887 0.36339 0.1484 0.0
O165 O 0.08814 0.33959 0.07831 0.0
O166 O 0.14494 0.40674 0.08922 0.0
O167 O 0.12993 0.38236 0.02176 0.0
O168 O 0.36689 0.22888 0.9947 0.0
Cd169 Cd 0.37754 0.2483 0.93017 0.0
Cd170 Cd 0.34173 0.24887 0.95988 0.0
O171 O 0.33525 0.22661 0.01388 0.0
O172 O 0.39268 0.24038 0.87835 0.0
O173 O 0.35989 0.23723 0.85059 0.0
C174 C 0.37493 0.23372 0.84009 0.0
C175 C 0.31343 0.2473 0.89469 0.0
C176 C 0.34882 0.2213 0.02191 0.0
C177 C 0.39051 0.28619 0.98189 0.0
O178 O 0.36896 0.27702 0.98784 0.0
O179 O 0.39842 0.27776 0.95717 0.0
O180 O 0.31397 0.24968 0.95115 0.0
O181 O 0.3281 0.24451 0.87536 0.0
O182 O 0.80516 0.14166 0.9473 0.0
Cd183 Cd 0.78378 0.12325 0.87731 0.0
Cd184 Cd 0.79868 0.10289 0.9208 0.0
O185 O 0.82398 0.12848 0.97057 0.0
O186 O 0.78409 0.14058 0.81728 0.0
O187 O 0.79984 0.12436 0.8073 0.0
C188 C 0.79688 0.13735 0.78875 0.0
C189 C 0.80236 0.08145 0.86506 0.0
C190 C 0.82116 0.14205 0.97796 0.0
C191 C 0.74953 0.08936 0.93742 0.0
O192 O 0.76675 0.08875 0.95233 0.0
O193 O 0.75121 0.10128 0.90023 0.0
O194 O 0.80563 0.0829 0.9221 0.0
O195 O 0.79941 0.09365 0.83961 0.0
O196 O 0.90608 0.6833 0.88629 0.0
Cd197 Cd 0.92624 0.68567 0.959 0.0
Cd198 Cd 0.91707 0.65312 0.90588 0.0
O199 O 0.89277 0.65376 0.8503 0.0
O200 O 0.92272 0.70134 0.01816 0.0
O201 O 0.90949 0.67042 0.02697 0.0
C202 C 0.91057 0.68552 0.04549 0.0
C203 C 0.91198 0.6282 0.96309 0.0
C204 C 0.89319 0.66914 0.84839 0.0
C205 C 0.96556 0.69021 0.90635 0.0
O206 O 0.95058 0.67272 0.88641 0.0
O207 O 0.96037 0.69846 0.94275 0.0
O208 O 0.91231 0.62712 0.90641 0.0
O209 O 0.91261 0.64262 0.98615 0.0
O210 O 0.35975 0.14588 0.49103 0.0
Cd211 Cd 0.36938 0.13607 0.42479 0.0
Cd212 Cd 0.33664 0.10145 0.46598 0.0
O213 O 0.33177 0.11797 0.52372 0.0
O214 O 0.3847 0.15902 0.37565 0.0
O215 O 0.35225 0.1306 0.34434 0.0
C216 C 0.36741 0.14877 0.33601 0.0
C217 C 0.3071 0.0756 0.40231 0.0
C218 C 0.34404 0.13651 0.52568 0.0
C219 C 0.38621 0.11328 0.47535 0.0
O220 O 0.36525 0.10097 0.4859 0.0
O221 O 0.39213 0.12865 0.44932 0.0
O222 O 0.30907 0.07361 0.45826 0.0
O223 O 0.32117 0.09267 0.38309 0.0
O224 O 0.90084 0.2356 0.36553 0.0
Cd225 Cd 0.92113 0.25357 0.43786 0.0
Cd226 Cd 0.90704 0.27399 0.3883 0.0
O227 O 0.88163 0.24829 0.33992 0.0
O228 O 0.92044 0.2355 0.49613 0.0
O229 O 0.90405 0.2511 0.50723 0.0
C230 C 0.90716 0.23811 0.52466 0.0
C231 C 0.90361 0.29436 0.45031 0.0
C232 C 0.88491 0.23496 0.33351 0.0
C233 C 0.95614 0.28687 0.37708 0.0
O234 O 0.93889 0.28689 0.35727 0.0
O235 O 0.95423 0.27623 0.41918 0.0
O236 O 0.9009 0.29456 0.39347 0.0
O237 O 0.90643 0.28156 0.47132 0.0
O238 O 0.81306 0.68414 0.47108 0.0
Cd239 Cd 0.7881 0.67791 0.40604 0.0
Cd240 Cd 0.80048 0.71332 0.44963 0.0
O241 O 0.82827 0.71506 0.49551 0.0
O242 O 0.78804 0.65925 0.35002 0.0
O243 O 0.79949 0.68905 0.32898 0.0
C244 C 0.79787 0.67336 0.31502 0.0
C245 C 0.80021 0.73318 0.37887 0.0
C246 C 0.82825 0.69994 0.50067 0.0
C247 C 0.75373 0.67743 0.47387 0.0
O248 O 0.76961 0.69544 0.48557 0.0
O249 O 0.75627 0.66738 0.437 0.0
O250 O 0.80493 0.73888 0.43436 0.0
O251 O 0.79756 0.7171 0.36412 0.0
H252 H 0.01048 0.46721 0.96586 0.0
H253 H 0.01483 0.56056 0.05449 0.0
H254 H 0.01658 0.50509 0.83026 0.0
H255 H 0.05981 0.54806 0.14787 0.0
H256 H 0.00433 0.53518 0.97738 0.0
H257 H 0.01629 0.4913 0.04114 0.0
C258 C 0.01235 0.48032 0.95198 0.0
C259 C 0.01305 0.48426 0.8921 0.0
C260 C 0.01654 0.53813 0.01482 0.0
C261 C 0.01951 0.51155 0.9771 0.0
C262 C 0.0226 0.55259 0.05844 0.0
C263 C 0.03844 0.55654 0.107 0.0
C264 C 0.02572 0.52716 0.02133 0.0
C265 C 0.04783 0.54567 0.1106 0.0
C266 C 0.0159 0.49408 0.99474 0.0
C267 C 0.01595 0.50161 0.87618 0.0
N268 N 0.0411 0.53128 0.0687 0.0
N269 N 0.01904 0.51466 0.91851 0.0
H270 H 0.54686 0.56961 0.95117 0.0
H271 H 0.49133 0.46481 0.08183 0.0
H272 H 0.57253 0.53435 0.92709 0.0
H273 H 0.46967 0.50211 0.12177 0.0
H274 H 0.51938 0.48931 0.01939 0.0
H275 H 0.51794 0.54495 0.01206 0.0
C276 C 0.54667 0.55684 0.95942 0.0
C277 C 0.56218 0.55407 0.93395 0.0
C278 C 0.50838 0.4921 0.04142 0.0
C279 C 0.52875 0.52556 1.00257 0.0
C280 C 0.49217 0.47801 0.07668 0.0
C281 C 0.47813 0.48141 0.10728 0.0
C282 C 0.51063 0.50977 0.03661 0.0
C283 C 0.4801 0.49884 0.09899 0.0
C284 C 0.53001 0.54268 0.99382 0.0
C285 C 0.56099 0.53715 0.94591 0.0
N286 N 0.49617 0.51243 0.06477 0.0
N287 N 0.54446 0.5235 0.97897 0.0
H288 H 0.54058 0.98189 0.07097 0.0
H289 H 0.51295 0.0555 0.93839 0.0
H290 H 0.54723 0.02856 0.17435 0.0
H291 H 0.50516 0.00827 0.8355 0.0
H292 H 0.52759 0.04693 0.02456 0.0
H293 H 0.52703 0.99104 0.98401 0.0
C294 C 0.53872 0.99377 0.07566 0.0
C295 C 0.54513 1.00452 0.12984 0.0
C296 C 0.52289 0.03858 0.98291 0.0
C297 C 0.53031 0.01541 0.03057 0.0
C298 C 0.51487 0.04366 0.93357 0.0
C299 C 0.50772 0.03251 0.87993 0.0
C300 C 0.52375 0.02227 0.97829 0.0
C301 C 0.5103 0.01715 0.87627 0.0
C302 C 0.5313 0.99917 0.0259 0.0
C303 C 0.54264 0.01995 0.13327 0.0
N304 N 0.5179 0.01237 0.92487 0.0
N305 N 0.5356 0.02501 0.08429 0.0
H306 H 0.55215 0.99121 0.44112 0.0
H307 H 0.49134 0.03884 0.5679 0.0
H308 H 0.57279 0.04952 0.40908 0.0
H309 H 0.47372 0.98224 0.6125 0.0
H310 H 0.51963 0.04202 0.50469 0.0
H311 H 0.5231 0.98735 0.50326 0.0
C312 C 0.55085 1.00333 0.44792 0.0
C313 C 0.56494 0.02073 0.41977 0.0
C314 C 0.50947 0.02883 0.52789 0.0
C315 C 0.53134 0.01622 0.48979 0.0
C316 C 0.49311 0.02691 0.5636 0.0
C317 C 0.48016 0.01026 0.59575 0.0
C318 C 0.51297 0.01401 0.52424 0.0
C319 C 0.48329 0.99531 0.58847 0.0
C320 C 0.53411 1.00105 0.48302 0.0
C321 C 0.56237 0.03587 0.42996 0.0
N322 N 0.49951 0.9976 0.55383 0.0
N323 N 0.54578 0.03321 0.46376 0.0
H324 H 0.06247 0.55727 0.38046 0.0
H325 H 0.99636 0.46948 0.59246 0.0
H326 H 0.99077 0.53069 0.41029 0.0
H327 H 0.07079 0.51081 0.60235 0.0
H328 H 0.99249 0.4876 0.51372 0.0
H329 H 0.06408 0.53627 0.44996 0.0
C330 C 0.04696 0.54697 0.40153 0.0
C331 C 0.02644 0.54585 0.38953 0.0
C332 C 0.00963 0.49255 0.5329 0.0
C333 C 0.02827 0.52154 0.46972 0.0
C334 C 0.01189 0.48214 0.57733 0.0
C335 C 0.03396 0.48867 0.60392 0.0
C336 C 0.02961 0.50939 0.51452 0.0
C337 C 0.05346 0.50527 0.58318 0.0
C338 C 0.04796 0.53497 0.44143 0.0
C339 C 0.00699 0.53214 0.41848 0.0
N340 N 0.05082 0.51504 0.5398 0.0
N341 N 0.00836 0.52046 0.45732 0.0
H342 H 0.55177 0.52998 0.68588 0.0
H343 H 0.50311 0.50818 0.34522 0.0
H344 H 0.53962 0.56743 0.58692 0.0
H345 H 0.51207 0.46925 0.44589 0.0
H346 H 0.51922 0.53116 0.43134 0.0
H347 H 0.53818 0.50799 0.59809 0.0
C348 C 0.54597 0.53347 0.64576 0.0
C349 C 0.54688 0.55062 0.64369 0.0
C350 C 0.5179 0.51771 0.43457 0.0
C351 C 0.53164 0.52557 0.54254 0.0
C352 C 0.50888 0.50463 0.38526 0.0
C353 C 0.5061 0.48671 0.38858 0.0
C354 C 0.52412 0.51283 0.48784 0.0
C355 C 0.51398 0.48292 0.44138 0.0
C356 C 0.53835 0.52094 0.59553 0.0
C357 C 0.53908 0.55434 0.59059 0.0
N358 N 0.5224 0.4958 0.48927 0.0
N359 N 0.53192 0.54196 0.54194 0.0
H360 H 0.67647 0.80109 0.30083 0.0
H361 H 0.67833 0.89305 0.38845 0.0
H362 H 0.68465 0.83965 0.16525 0.0
H363 H 0.72372 0.88153 0.48481 0.0
H364 H 0.66958 0.86841 0.31064 0.0
H365 H 0.68165 0.825 0.37576 0.0
C366 C 0.67873 0.81434 0.28682 0.0
C367 C 0.68014 0.81849 0.22707 0.0
C368 C 0.68151 0.87144 0.34886 0.0
C369 C 0.68582 0.84555 0.31172 0.0
C370 C 0.68658 0.88547 0.39289 0.0
C371 C 0.70201 0.88947 0.44255 0.0
C372 C 0.69124 0.8609 0.35601 0.0
C373 C 0.71203 0.8791 0.44673 0.0
C374 C 0.6819 0.82799 0.32942 0.0
C375 C 0.68348 0.836 0.21106 0.0
N376 N 0.70622 0.86508 0.40441 0.0
N377 N 0.68614 0.84892 0.2532 0.0
H378 H 0.13256 0.83694 0.43763 0.0
H379 H 0.23663 0.86989 0.23756 0.0
H380 H 0.15577 0.80103 0.39371 0.0
H381 H 0.20893 0.90354 0.26297 0.0
H382 H 0.20794 0.84515 0.29834 0.0
H383 H 0.15992 0.86144 0.3734 0.0
C384 C 0.14304 0.83401 0.41359 0.0
C385 C 0.14191 0.81692 0.42129 0.0
C386 C 0.20819 0.85798 0.29089 0.0
C387 C 0.17366 0.8451 0.34895 0.0
C388 C 0.22474 0.87223 0.25663 0.0
C389 C 0.22522 0.88884 0.24511 0.0
C390 C 0.19195 0.86033 0.31397 0.0
C391 C 0.20924 0.89099 0.27076 0.0
C392 C 0.15883 0.8481 0.37735 0.0
C393 C 0.15606 0.814 0.3893 0.0
N394 N 0.1932 0.87686 0.3038 0.0
N395 N 0.17148 0.82802 0.35506 0.0
H396 H 0.17602 0.28924 0.3626 0.0
H397 H 0.19431 0.38164 0.21582 0.0
H398 H 0.2342 0.34789 0.41865 0.0
H399 H 0.15436 0.3244 0.12571 0.0
H400 H 0.21014 0.37003 0.28953 0.0
H401 H 0.16804 0.30185 0.2744 0.0
C402 C 0.18727 0.30469 0.356 0.0
C403 C 0.20566 0.31751 0.39827 0.0
C404 C 0.19818 0.36014 0.25299 0.0
C405 C 0.19648 0.33209 0.29822 0.0
C406 C 0.18923 0.36679 0.21078 0.0
C407 C 0.17272 0.35393 0.16494 0.0
C408 C 0.19032 0.34045 0.2496 0.0
C409 C 0.16677 0.3348 0.16075 0.0
C410 C 0.18275 0.3119 0.30569 0.0
C411 C 0.21972 0.33744 0.38744 0.0
N412 N 0.17524 0.32857 0.20302 0.0
N413 N 0.21464 0.34415 0.33899 0.0
H414 H 0.14761 0.36732 0.86672 0.0
H415 H 0.1621 0.29671 0.66753 0.0
H416 H 0.11 0.3054 0.88675 0.0
H417 H 0.21268 0.35911 0.68934 0.0
H418 H 0.1377 0.29948 0.73154 0.0
H419 H 0.16573 0.36403 0.78443 0.0
C420 C 0.1428 0.35295 0.85313 0.0
C421 C 0.12745 0.33662 0.88421 0.0
C422 C 0.15406 0.31257 0.72193 0.0
C423 C 0.14832 0.33284 0.79018 0.0
C424 C 0.16802 0.31104 0.68529 0.0
C425 C 0.18963 0.32771 0.6734 0.0
C426 C 0.1616 0.33091 0.74653 0.0
C427 C 0.19628 0.34585 0.69767 0.0
C428 C 0.15329 0.35113 0.80634 0.0
C429 C 0.12183 0.31839 0.86432 0.0
N430 N 0.18235 0.34696 0.73325 0.0
N431 N 0.13244 0.31701 0.81887 0.0
H432 H 0.7362 0.84173 0.93128 0.0
H433 H 0.65186 0.86035 0.74455 0.0
H434 H 0.66175 0.80191 0.92815 0.0
H435 H 0.72253 0.88533 0.70774 0.0
H436 H 0.6546 0.83933 0.81418 0.0
H437 H 0.73126 0.85842 0.85072 0.0
C438 C 0.7188 0.83634 0.91303 0.0
C439 C 0.69937 0.82041 0.93635 0.0
C440 C 0.66938 0.84933 0.79033 0.0
C441 C 0.69352 0.83974 0.84493 0.0
C442 C 0.66786 0.86137 0.75082 0.0
C443 C 0.68702 0.87474 0.72046 0.0
C444 C 0.69029 0.85089 0.79995 0.0
C445 C 0.7073 0.87535 0.73018 0.0
C446 C 0.71596 0.84588 0.86707 0.0
C447 C 0.6772 0.81407 0.91112 0.0
N448 N 0.70844 0.86376 0.76931 0.0
N449 N 0.67485 0.82393 0.86724 0.0
H450 H 0.20413 0.90514 0.89772 0.0
H451 H 0.18287 0.80766 0.75497 0.0
H452 H 0.2166 0.86745 0.9942 0.0
H453 H 0.16944 0.84479 0.65874 0.0
H454 H 0.19814 0.83078 0.84146 0.0
H455 H 0.1918 0.88343 0.80885 0.0
C456 C 0.2039 0.89216 0.90047 0.0
C457 C 0.21145 0.88814 0.95337 0.0
C458 C 0.1921 0.83397 0.80113 0.0
C459 C 0.19795 0.86353 0.85188 0.0
C460 C 0.1837 0.8209 0.75158 0.0
C461 C 0.17474 0.82425 0.69989 0.0
C462 C 0.19148 0.85043 0.7987 0.0
C463 C 0.17598 0.84156 0.69803 0.0
C464 C 0.19714 0.87989 0.84962 0.0
C465 C 0.21104 0.8712 0.95426 0.0
N466 N 0.18393 0.85388 0.74688 0.0
N467 N 0.20454 0.8596 0.90429 0.0
H468 H 0.39181 0.21182 0.83162 0.0
H469 H 0.34061 0.16672 0.50907 0.0
H470 H 0.34652 0.22384 0.73724 0.0
H471 H 0.34466 0.13301 0.64482 0.0
H472 H 0.34633 0.19029 0.58581 0.0
H473 H 0.38003 0.18601 0.75613 0.0
C474 C 0.37969 0.20926 0.79446 0.0
C475 C 0.37024 0.22008 0.7904 0.0
C476 C 0.34548 0.17752 0.59874 0.0
C477 C 0.35665 0.19051 0.70433 0.0
C478 C 0.34212 0.16407 0.5552 0.0
C479 C 0.34193 0.14787 0.571 0.0
C480 C 0.34954 0.17507 0.65817 0.0
C481 C 0.34436 0.14519 0.63111 0.0
C482 C 0.37275 0.19435 0.75197 0.0
C483 C 0.35429 0.21589 0.7418 0.0
N484 N 0.34856 0.15891 0.67265 0.0
N485 N 0.34812 0.20151 0.70019 0.0
H486 H 0.82759 0.13601 0.72553 0.0
H487 H 0.87679 0.23925 0.58956 0.0
H488 H 0.79866 0.16881 0.74866 0.0
H489 H 0.9046 0.20586 0.56063 0.0
H490 H 0.84881 0.21396 0.65038 0.0
H491 H 0.85547 0.16104 0.66365 0.0
C492 C 0.82681 0.1483 0.71679 0.0
C493 C 0.81074 0.1503 0.74246 0.0
C494 C 0.86112 0.2122 0.6311 0.0
C495 C 0.843 0.17925 0.67262 0.0
C496 C 0.87727 0.22674 0.59673 0.0
C497 C 0.8931 0.22469 0.56986 0.0
C498 C 0.8607 0.19542 0.63867 0.0
C499 C 0.89278 0.2081 0.58058 0.0
C500 C 0.8429 0.16268 0.68184 0.0
C501 C 0.81069 0.16662 0.72979 0.0
N502 N 0.87675 0.19405 0.61385 0.0
N503 N 0.82667 0.18051 0.69617 0.0
H504 H 0.88232 0.69537 0.84571 0.0
H505 H 0.84304 0.67644 0.49924 0.0
H506 H 0.878 0.65075 0.73698 0.0
H507 H 0.84642 0.7205 0.60835 0.0
H508 H 0.85853 0.66848 0.5843 0.0
H509 H 0.86974 0.70504 0.75913 0.0
C510 C 0.8784 0.68741 0.80364 0.0
C511 C 0.88126 0.67223 0.79853 0.0
C512 C 0.85619 0.68006 0.58962 0.0
C513 C 0.86724 0.68354 0.69879 0.0
C514 C 0.84756 0.68476 0.54095 0.0
C515 C 0.84334 0.6991 0.54692 0.0
C516 C 0.8605 0.68968 0.64491 0.0
C517 C 0.84953 0.70943 0.6018 0.0
C518 C 0.87139 0.69306 0.75412 0.0
C519 C 0.87587 0.66243 0.743 0.0
N520 N 0.85753 0.70433 0.64899 0.0
N521 N 0.86927 0.66835 0.69512 0.0
H522 H 0.82097 0.70127 0.23634 0.0
H523 H 0.88219 0.65405 0.10938 0.0
H524 H 0.80496 0.64551 0.28544 0.0
H525 H 0.9038 0.71288 0.08211 0.0
H526 H 0.85269 0.64983 0.17059 0.0
H527 H 0.84886 0.70423 0.17208 0.0
C528 C 0.82298 0.68946 0.23278 0.0
C529 C 0.81066 0.67315 0.26662 0.0
C530 C 0.86401 0.6637 0.15157 0.0
C531 C 0.84302 0.67666 0.19387 0.0
C532 C 0.88099 0.66619 0.11699 0.0
C533 C 0.89553 0.68387 0.09058 0.0
C534 C 0.86143 0.67895 0.15944 0.0
C535 C 0.89305 0.69902 0.1017 0.0
C536 C 0.83912 0.69126 0.19648 0.0
C537 C 0.81406 0.65833 0.26016 0.0
N538 N 0.87623 0.69617 0.13491 0.0
N539 N 0.83008 0.66051 0.22491 0.0
H540 H 0.38348 0.18685 0.33335 0.0
H541 H 0.3478 0.18886 0.00355 0.0
H542 H 0.34192 0.13229 0.22834 0.0
H543 H 0.34253 0.22219 0.13852 0.0
H544 H 0.3496 0.1691 0.07988 0.0
H545 H 0.3742 0.20221 0.25674 0.0
C546 C 0.37266 0.17816 0.29376 0.0
C547 C 0.36359 0.1583 0.28687 0.0
C548 C 0.34755 0.18046 0.0925 0.0
C549 C 0.35293 0.17583 0.19938 0.0
C550 C 0.34647 0.19166 0.0492 0.0
C551 C 0.34481 0.20698 0.06509 0.0
C552 C 0.34787 0.18516 0.15209 0.0
C553 C 0.34349 0.21032 0.12467 0.0
C554 C 0.36713 0.18688 0.25055 0.0
C555 C 0.34933 0.14767 0.23511 0.0
N556 N 0.34557 0.19975 0.16636 0.0
N557 N 0.34464 0.15664 0.19278 0.0
H558 H 0.88088 0.20079 0.32363 0.0
H559 H 0.82719 0.177 0.98683 0.0
H560 H 0.8618 0.23494 0.23078 0.0
H561 H 0.84375 0.14142 0.08082 0.0
H562 H 0.8414 0.19909 0.07455 0.0
H563 H 0.86718 0.17881 0.2357 0.0
C564 C 0.87349 0.20352 0.2849 0.0
C565 C 0.87257 0.2198 0.28444 0.0
C566 C 0.84212 0.18656 0.07602 0.0
C567 C 0.85721 0.1948 0.18312 0.0
C568 C 0.83416 0.17399 0.02578 0.0
C569 C 0.83418 0.15727 0.02664 0.0
C570 C 0.85011 0.1824 0.12781 0.0
C571 C 0.84351 0.15417 0.07816 0.0
C572 C 0.86581 0.19101 0.23457 0.0
C573 C 0.86275 0.22254 0.23316 0.0
N574 N 0.85093 0.16654 0.12698 0.0
N575 N 0.85562 0.21025 0.18432 0.0
H576 H 0.10436 0.64316 0.34348 0.0
H577 H 0.11299 0.74007 0.41902 0.0
H578 H 0.04672 0.6476 0.31168 0.0
H579 H 0.14487 0.72092 0.54066 0.0
H580 H 0.09735 0.71079 0.35498 0.0
H581 H 0.12748 0.67617 0.39296 0.0
C582 C 0.09678 0.65125 0.34586 0.0
C583 C 0.07364 0.64273 0.32369 0.0
C584 C 0.10812 0.71321 0.39521 0.0
C585 C 0.0999 0.68026 0.37879 0.0
C586 C 0.11718 0.72996 0.43171 0.0
C587 C 0.13008 0.73287 0.48574 0.0
C588 C 0.1123 0.6994 0.41211 0.0
C589 C 0.13487 0.71918 0.49966 0.0
C590 C 0.10988 0.66994 0.3743 0.0
C591 C 0.06448 0.65366 0.32843 0.0
N592 N 0.12586 0.70293 0.46316 0.0
N593 N 0.07766 0.6719 0.35523 0.0
H594 H 0.41256 0.40808 0.41923 0.0
H595 H 0.28301 0.37139 0.44363 0.0
H596 H 0.37617 0.41981 0.28546 0.0
H597 H 0.33043 0.38435 0.59692 0.0
H598 H 0.31574 0.38783 0.38293 0.0
H599 H 0.38121 0.39698 0.48187 0.0
C600 C 0.39786 0.40817 0.40264 0.0
C601 C 0.39697 0.4148 0.34661 0.0
C602 C 0.31903 0.38739 0.42999 0.0
C603 C 0.36097 0.40216 0.41892 0.0
C604 C 0.30041 0.37806 0.46469 0.0
C605 C 0.30409 0.3765 0.52532 0.0
C606 C 0.34141 0.3948 0.45588 0.0
C607 C 0.3269 0.38533 0.55041 0.0
C608 C 0.38009 0.40203 0.4389 0.0
C609 C 0.37754 0.41475 0.32814 0.0
N610 N 0.3447 0.39382 0.51532 0.0
N611 N 0.36017 0.40836 0.36407 0.0
H612 H 0.64004 0.90816 0.44931 0.0
H613 H 0.57787 0.96228 0.41619 0.0
H614 H 0.61652 0.92282 0.59706 0.0
H615 H 0.58864 0.93697 0.26735 0.0
H616 H 0.58904 0.94573 0.48283 0.0
H617 H 0.61877 0.91639 0.38179 0.0
C618 C 0.63015 0.91287 0.46758 0.0
C619 C 0.63023 0.91495 0.52902 0.0
C620 C 0.58862 0.94354 0.43557 0.0
C621 C 0.60603 0.92467 0.4518 0.0
C622 C 0.5822 0.95297 0.39743 0.0
C623 C 0.58249 0.95115 0.33604 0.0
C624 C 0.59572 0.93239 0.4123 0.0
C625 C 0.58822 0.93885 0.31434 0.0
C626 C 0.61798 0.91756 0.42894 0.0
C627 C 0.61701 0.92104 0.55005 0.0
N628 N 0.59494 0.93019 0.35243 0.0
N629 N 0.60572 0.92594 0.51157 0.0
H630 H 0.65591 0.06337 0.20234 0.0
H631 H 0.73212 0.05392 0.98035 0.0
H632 H 0.65259 0.01094 0.1728 0.0
H633 H 0.72182 0.09979 0.97462 0.0
H634 H 0.70473 0.03883 0.05527 0.0
H635 H 0.68361 0.07875 0.1273 0.0
C636 C 0.6615 0.05529 0.18127 0.0
C637 C 0.65199 0.03586 0.19382 0.0
C638 C 0.70818 0.05206 0.03718 0.0
C639 C 0.68309 0.05313 0.10722 0.0
C640 C 0.72365 0.06057 0.99403 0.0
C641 C 0.72909 0.07803 0.97107 0.0
C642 C 0.69833 0.06124 0.0584 0.0
C643 C 0.71783 0.08617 0.99069 0.0
C644 C 0.67698 0.06395 0.13777 0.0
C645 C 0.65949 0.02594 0.16442 0.0
N646 N 0.70316 0.07783 0.03391 0.0
N647 N 0.6745 0.03465 0.12237 0.0
H648 H 0.90877 0.62517 0.08247 0.0
H649 H 0.97267 0.57236 0.10916 0.0
H650 H 0.92094 0.60168 0.93158 0.0
H651 H 0.95111 0.58799 0.25919 0.0
H652 H 0.95002 0.57963 0.04323 0.0
H653 H 0.92004 0.60834 0.14739 0.0
C654 C 0.91339 0.61617 0.06286 0.0
C655 C 0.91412 0.61501 1.00145 0.0
C656 C 0.94993 0.58119 0.09056 0.0
C657 C 0.92748 0.59594 0.07578 0.0
C658 C 0.96287 0.57701 0.1283 0.0
C659 C 0.96399 0.57974 0.18987 0.0
C660 C 0.93824 0.58838 0.11445 0.0
C661 C 0.95085 0.58576 0.21204 0.0
C662 C 0.91989 0.60658 0.10003 0.0
C663 C 0.9202 0.60308 0.97864 0.0
N664 N 0.93881 0.59014 0.1744 0.0
N665 N 0.927 0.59427 0.01583 0.0
H666 H 0.43322 0.30401 0.04471 0.0
H667 H 0.44525 0.4034 0.10802 0.0
H668 H 0.38276 0.31428 0.97721 0.0
H669 H 0.4693 0.38054 0.23967 0.0
H670 H 0.4317 0.3751 0.04142 0.0
H671 H 0.4555 0.33631 0.09867 0.0
C672 C 0.42716 0.31325 0.04017 0.0
C673 C 0.40615 0.30654 0.00667 0.0
C674 C 0.44025 0.37644 0.08459 0.0
C675 C 0.43146 0.34326 0.06726 0.0
C676 C 0.44809 0.39263 0.12263 0.0
C677 C 0.4582 0.39426 0.17991 0.0
C678 C 0.44277 0.36185 0.10343 0.0
C679 C 0.46142 0.37979 0.19613 0.0
C680 C 0.43974 0.33154 0.07121 0.0
C681 C 0.39884 0.31892 1.00277 0.0
N682 N 0.4536 0.3641 0.15816 0.0
N683 N 0.41148 0.33667 0.03262 0.0
H684 H 0.91068 0.32893 0.42108 0.0
H685 H 0.94419 0.37161 0.75797 0.0
H686 H 0.90394 0.29534 0.57083 0.0
H687 H 0.96638 0.40764 0.60863 0.0
H688 H 0.9214 0.34265 0.68981 0.0
H689 H 0.92292 0.35671 0.4892 0.0
C690 C 0.91127 0.32724 0.46825 0.0
C691 C 0.90648 0.30982 0.49027 0.0
C692 C 0.93102 0.35691 0.67195 0.0
C693 C 0.92063 0.34161 0.56839 0.0
C694 C 0.94399 0.37348 0.71087 0.0
C695 C 0.95745 0.39211 0.68904 0.0
C696 C 0.93142 0.35893 0.61065 0.0
C697 C 0.95642 0.39357 0.62747 0.0
C698 C 0.91842 0.34316 0.5071 0.0
C699 C 0.90765 0.30853 0.55186 0.0
N700 N 0.94382 0.3772 0.59045 0.0
N701 N 0.91478 0.32424 0.58869 0.0
H702 H 0.65804 0.60459 0.72604 0.0
H703 H 0.73574 0.69433 0.52772 0.0
H704 H 0.65129 0.65224 0.70745 0.0
H705 H 0.72751 0.63951 0.50515 0.0
H706 H 0.70784 0.68052 0.60173 0.0
H707 H 0.68811 0.61932 0.65663 0.0
C708 C 0.66337 0.61842 0.70871 0.0
C709 C 0.65221 0.62724 0.72242 0.0
C710 C 0.71196 0.67143 0.58028 0.0
C711 C 0.68603 0.64385 0.64241 0.0
C712 C 0.72777 0.67926 0.53774 0.0
C713 C 0.73384 0.668 0.51004 0.0
C714 C 0.70236 0.65226 0.596 0.0
C715 C 0.72309 0.64861 0.52496 0.0
C716 C 0.68022 0.62664 0.66842 0.0
C717 C 0.65945 0.64497 0.69792 0.0
N718 N 0.70799 0.64138 0.56745 0.0
N719 N 0.67581 0.65263 0.65892 0.0
H720 H 0.42942 0.13952 0.53228 0.0
H721 H 0.45332 0.05873 0.59268 0.0
H722 H 0.38218 0.07913 0.47022 0.0
H723 H 0.47317 0.10421 0.72529 0.0
H724 H 0.43746 0.0719 0.52642 0.0
H725 H 0.45514 0.13188 0.5829 0.0
C726 C 0.4248 0.12479 0.5281 0.0
C727 C 0.40371 0.10989 0.49724 0.0
C728 C 0.44569 0.07919 0.56964 0.0
C729 C 0.43292 0.10121 0.55391 0.0
C730 C 0.45486 0.07176 0.6075 0.0
C731 C 0.46432 0.08022 0.66509 0.0
C732 C 0.44624 0.09536 0.58899 0.0
C733 C 0.46584 0.09713 0.6815 0.0
C734 C 0.43934 0.12045 0.55723 0.0
C735 C 0.39828 0.09099 0.49376 0.0
N736 N 0.45668 0.10408 0.64377 0.0
N737 N 0.4128 0.08719 0.5217 0.0
H738 H 0.32156 0.9404 0.04266 0.0
H739 H 0.40143 0.02997 0.84608 0.0
H740 H 0.31568 0.98846 0.02193 0.0
H741 H 0.39301 0.97502 0.82602 0.0
H742 H 0.37266 0.01621 0.91793 0.0
H743 H 0.35201 0.95486 0.97435 0.0
C744 C 0.32715 0.95427 0.0251 0.0
C745 C 0.31614 0.96329 0.0379 0.0
C746 C 0.37691 0.00708 0.89745 0.0
C747 C 0.35039 0.97958 0.95906 0.0
C748 C 0.3932 0.01488 0.85612 0.0
C749 C 0.3995 1.00358 0.82987 0.0
C750 C 0.36705 0.9879 0.91344 0.0
C751 C 0.38842 0.98415 0.84474 0.0
C752 C 0.34422 0.96233 0.98541 0.0
C753 C 0.32372 0.98104 0.01311 0.0
N754 N 0.37287 0.97695 0.88611 0.0
N755 N 0.34029 0.98855 0.9747 0.0
H756 H 0.09705 0.47015 0.85609 0.0
H757 H 0.1152 0.38653 0.92358 0.0
H758 H 0.04527 0.40911 0.80916 0.0
H759 H 0.14224 0.43527 0.05001 0.0
H760 H 0.09843 0.39944 0.85996 0.0
H761 H 0.12193 0.46172 0.90724 0.0
C762 C 0.09117 0.45506 0.85549 0.0
C763 C 0.06912 0.44027 0.82847 0.0
C764 C 0.10832 0.40746 0.90123 0.0
C765 C 0.09739 0.43066 0.88574 0.0
C766 C 0.11802 0.40016 0.93764 0.0
C767 C 0.12991 0.40968 0.99284 0.0
C768 C 0.11071 0.42456 0.91947 0.0
C769 C 0.13307 0.42738 0.00809 0.0
C770 C 0.10525 0.45028 0.88496 0.0
C771 C 0.06213 0.42092 0.82958 0.0
N772 N 0.12334 0.43421 0.97174 0.0
N773 N 0.07623 0.41669 0.85754 0.0
H774 H 0.58088 0.65792 0.77242 0.0
H775 H 0.61122 0.70489 0.10325 0.0
H776 H 0.57345 0.62654 0.9284 0.0
H777 H 0.63222 0.73855 0.94873 0.0
H778 H 0.58924 0.67499 0.03894 0.0
H779 H 0.59138 0.68614 0.83563 0.0
C780 C 0.58096 0.65679 0.81989 0.0
C781 C 0.57651 0.63988 0.84514 0.0
C782 C 0.5984 0.68892 0.01907 0.0
C783 C 0.58874 0.67223 0.91776 0.0
C784 C 0.6109 0.70603 0.05578 0.0
C785 C 0.62383 0.7243 0.03142 0.0
C786 C 0.59877 0.69003 0.95746 0.0
C787 C 0.62267 0.72481 0.96952 0.0
C788 C 0.58711 0.67298 0.85597 0.0
C789 C 0.57693 0.63932 0.90697 0.0
N790 N 0.61058 0.70793 0.93471 0.0
N791 N 0.58318 0.65531 0.94114 0.0
H792 H 0.75308 0.98635 0.5997 0.0
H793 H 0.79761 0.0492 0.90824 0.0
H794 H 0.72504 0.96324 0.76513 0.0
H795 H 0.7963 0.07428 0.74426 0.0
H796 H 0.78149 0.01816 0.85343 0.0
H797 H 0.77832 0.01921 0.65021 0.0
C798 C 0.7524 0.98817 0.6466 0.0
C799 C 0.7368 0.97213 0.67823 0.0
C800 C 0.78512 0.03057 0.82938 0.0
C801 C 0.76585 0.00927 0.73606 0.0
C802 C 0.7945 0.04835 0.86055 0.0
C803 C 0.79806 0.06434 0.83093 0.0
C804 C 0.77949 0.02875 0.76804 0.0
C805 C 0.79365 0.06229 0.76895 0.0
C806 C 0.76673 0.00685 0.67524 0.0
C807 C 0.73659 0.97524 0.73891 0.0
N808 N 0.78437 0.04473 0.73951 0.0
N809 N 0.75092 0.99339 0.76582 0.0
H810 H 0.05765 0.76581 0.65628 0.0
H811 H 0.98965 0.6772 0.86394 0.0
H812 H 0.07295 0.72331 0.68188 0.0
H813 H 0.98964 0.72843 0.87961 0.0
H814 H 0.01916 0.69325 0.79429 0.0
H815 H 0.02991 0.75083 0.73146 0.0
C816 C 0.05482 0.7531 0.67682 0.0
C817 C 0.06755 0.74575 0.66281 0.0
C818 C 0.01301 0.70114 0.81361 0.0
C819 C 0.03635 0.72886 0.74927 0.0
C820 C 0.99633 0.69204 0.85376 0.0
C821 C 0.98732 0.70156 0.8777 0.0
C822 C 0.02042 0.71975 0.79632 0.0
C823 C 0.99637 0.7207 0.86263 0.0
C824 C 0.03929 0.74476 0.7203 0.0
C825 C 0.06351 0.72945 0.69143 0.0
N826 N 0.0122 0.72908 0.82208 0.0
N827 N 0.04829 0.72158 0.73326 0.0
H828 H 0.24885 0.26991 0.59378 0.0
H829 H 0.28489 0.25767 0.92306 0.0
H830 H 0.26058 0.30653 0.74644 0.0
H831 H 0.30801 0.24367 0.77279 0.0
H832 H 0.26554 0.26771 0.85606 0.0
H833 H 0.26151 0.25319 0.65678 0.0
C834 C 0.25393 0.27433 0.64041 0.0
C835 C 0.25392 0.28975 0.66486 0.0
C836 C 0.27463 0.26222 0.8377 0.0
C837 C 0.26768 0.27051 0.73673 0.0
C838 C 0.28559 0.25638 0.8759 0.0
C839 C 0.29837 0.25004 0.85363 0.0
C840 C 0.27624 0.26161 0.7766 0.0
C841 C 0.29851 0.24862 0.7919 0.0
C842 C 0.26115 0.26484 0.67614 0.0
C843 C 0.26062 0.2949 0.72553 0.0
N844 N 0.28776 0.25452 0.75542 0.0
N845 N 0.26709 0.28527 0.75928 0.0
H846 H 1.00039 0.29744 0.41246 0.0
H847 H 0.04323 0.32339 0.09114 0.0
H848 H 0.95926 0.29926 0.26607 0.0
H849 H 0.09137 0.35181 0.24733 0.0
H850 H 0.011 0.30883 0.15415 0.0
H851 H 0.03351 0.31251 0.35176 0.0
C852 C 0.99837 0.3011 0.36794 0.0
C853 C 0.9771 0.29721 0.34451 0.0
C854 C 0.02867 0.31829 0.1744 0.0
C855 C 0.01438 0.31377 0.27489 0.0
C856 C 0.04699 0.32653 0.13857 0.0
C857 C 0.06993 0.33894 0.16403 0.0
C858 C 0.03341 0.32213 0.23604 0.0
C859 C 0.07389 0.3425 0.22585 0.0
C860 C 0.01718 0.30964 0.33344 0.0
C861 C 0.97536 0.30214 0.28632 0.0
N862 N 0.05582 0.33402 0.25985 0.0
N863 N 0.99365 0.30996 0.25338 0.0
H864 H 0.78142 0.72019 0.26502 0.0
H865 H 0.76328 0.80364 0.19268 0.0
H866 H 0.80584 0.76844 0.39122 0.0
H867 H 0.71198 0.74271 0.14312 0.0
H868 H 0.78794 0.79515 0.24471 0.0
H869 H 0.76545 0.73315 0.19815 0.0
C870 C 0.7839 0.73375 0.27826 0.0
C871 C 0.79476 0.74312 0.33426 0.0
C872 C 0.77145 0.78375 0.22152 0.0
C873 C 0.77658 0.75803 0.25743 0.0
C874 C 0.7575 0.78857 0.19159 0.0
C875 C 0.73561 0.77381 0.16376 0.0
C876 C 0.76363 0.76415 0.22198 0.0
C877 C 0.72872 0.75448 0.16423 0.0
C878 C 0.77466 0.74106 0.24007 0.0
C879 C 0.79744 0.76066 0.3487 0.0
N880 N 0.7427 0.7502 0.19277 0.0
N881 N 0.78824 0.76752 0.31063 0.0
H882 H 0.23593 0.95991 0.24515 0.0
H883 H 0.29902 0.07456 0.28174 0.0
H884 H 0.24791 0.9956 0.09753 0.0
H885 H 0.27839 0.03736 0.4283 0.0
H886 H 0.27662 0.04556 0.21346 0.0
H887 H 0.2472 0.98745 0.31251 0.0
C888 C 0.24051 0.97343 0.22679 0.0
C889 C 0.24118 0.97548 0.16557 0.0
C890 C 0.27671 0.04373 0.26059 0.0
C891 C 0.25458 0.00727 0.24269 0.0
C892 C 0.2895 0.06031 0.29965 0.0
C893 C 0.29081 0.05842 0.3609 0.0
C894 C 0.26531 0.0251 0.28285 0.0
C895 C 0.27804 0.03955 0.38146 0.0
C896 C 0.24702 0.9892 0.26535 0.0
C897 C 0.2472 0.99336 0.1444 0.0
N898 N 0.2661 0.02367 0.34256 0.0
N899 N 0.25402 0.00865 0.18292 0.0
loop_
_geom_bond_atom_site_label_1
_geom_bond_atom_site_label_2
_geom_bond_distance
_geom_bond_site_symmetry_2
_ccdc_geom_bond_type
O0 Cd1 2.223 . S
O0 C8 1.315 . S
Cd1 O0 2.223 . S
Cd1 O4 2.297 . S
Cd1 O5 2.439 . S
Cd1 O11 2.240 . S
Cd2 O3 2.198 1_655 S
Cd2 O10 2.203 1_655 S
Cd2 O12 2.334 . S
Cd2 O13 2.448 1_655 S
O3 Cd2 2.198 1_455 S
O3 C8 1.279 . S
O4 Cd1 2.297 . S
O4 C6 1.247 . S
O5 Cd1 2.439 . S
O5 C6 1.208 . S
C6 O4 1.247 . S
C6 O5 1.208 . S
C7 O12 1.247 . S
C7 O13 1.172 1_655 S
C8 O0 1.315 . S
C8 O3 1.279 . S
C9 O10 1.315 . S
C9 O11 1.279 . S
O10 Cd2 2.203 1_455 S
O10 C9 1.315 . S
O11 Cd1 2.240 . S
O11 C9 1.279 . S
O12 Cd2 2.334 . S
O12 C7 1.247 . S
O13 Cd2 2.448 1_455 S
O13 C7 1.172 1_455 S
O14 Cd15 2.223 . S
O14 C22 1.315 . S
Cd15 O14 2.223 . S
Cd15 O18 2.297 . S
Cd15 O19 2.439 . S
Cd15 O25 2.240 . S
Cd16 O17 2.240 . S
Cd16 O24 2.223 . S
Cd16 O26 2.297 . S
Cd16 O27 2.439 . S
O17 Cd16 2.240 . S
O17 C22 1.279 . S
O18 Cd15 2.297 . S
O18 C20 1.247 . S
O19 Cd15 2.439 . S
O19 C20 1.208 . S
C20 O18 1.247 . S
C20 O19 1.208 . S
C21 O26 1.247 . S
C21 O27 1.208 . S
C22 O14 1.315 . S
C22 O17 1.279 . S
C23 O24 1.315 . S
C23 O25 1.279 . S
O24 Cd16 2.223 . S
O24 C23 1.315 . S
O25 Cd15 2.240 . S
O25 C23 1.279 . S
O26 Cd16 2.297 . S
O26 C21 1.247 . S
O27 Cd16 2.439 . S
O27 C21 1.208 . S
O28 Cd29 2.223 . S
O28 C36 1.315 . S
Cd29 O28 2.223 . S
Cd29 O32 2.297 . S
Cd29 O33 2.439 . S
Cd29 O39 2.240 . S
Cd30 O31 2.240 . S
Cd30 O38 2.223 1_565 S
Cd30 O40 2.297 . S
Cd30 O41 2.439 . S
O31 Cd30 2.240 . S
O31 C36 1.279 1_565 S
O32 Cd29 2.297 . S
O32 C34 1.247 . S
O33 Cd29 2.439 . S
O33 C34 1.208 . S
C34 O32 1.247 . S
C34 O33 1.208 . S
C35 O40 1.247 . S
C35 O41 1.208 . S
C36 O28 1.315 . S
C36 O31 1.279 1_545 S
C37 O38 1.315 . S
C37 O39 1.279 . S
O38 Cd30 2.223 1_545 S
O38 C37 1.315 . S
O39 Cd29 2.240 . S
O39 C37 1.279 . S
O40 Cd30 2.297 . S
O40 C35 1.247 . S
O41 Cd30 2.439 . S
O41 C35 1.208 . S
O42 Cd43 2.223 . S
O42 C50 1.315 . S
Cd43 O42 2.223 . S
Cd43 O46 2.297 . S
Cd43 O47 2.439 . S
Cd43 O53 2.240 . S
Cd44 O45 2.240 . S
Cd44 O52 2.223 1_655 S
Cd44 O54 2.297 . S
Cd44 O55 2.439 . S
O45 Cd44 2.240 . S
O45 C50 1.279 1_655 S
O46 Cd43 2.297 . S
O46 C48 1.247 . S
O47 Cd43 2.439 . S
O47 C48 1.208 . S
C48 O46 1.247 . S
C48 O47 1.208 . S
C49 O54 1.247 . S
C49 O55 1.208 . S
C50 O42 1.315 . S
C50 O45 1.279 1_455 S
C51 O52 1.315 . S
C51 O53 1.279 . S
O52 Cd44 2.223 1_455 S
O52 C51 1.315 . S
O53 Cd43 2.240 . S
O53 C51 1.279 . S
O54 Cd44 2.297 . S
O54 C49 1.247 . S
O55 Cd44 2.439 . S
O55 C49 1.208 . S
O56 Cd57 2.223 . S
O56 C64 1.315 . S
Cd57 O56 2.223 . S
Cd57 O60 2.297 . S
Cd57 O61 2.439 . S
Cd57 O67 2.240 . S
Cd58 O59 2.240 . S
Cd58 O66 2.223 . S
Cd58 O68 2.297 . S
Cd58 O69 2.439 . S
O59 Cd58 2.240 . S
O59 C64 1.279 . S
O60 Cd57 2.297 . S
O60 C62 1.247 . S
O61 Cd57 2.439 . S
O61 C62 1.208 . S
C62 O60 1.247 . S
C62 O61 1.208 . S
C63 O68 1.247 . S
C63 O69 1.208 . S
C64 O56 1.315 . S
C64 O59 1.279 . S
C65 O66 1.315 . S
C65 O67 1.279 . S
O66 Cd58 2.223 . S
O66 C65 1.315 . S
O67 Cd57 2.240 . S
O67 C65 1.279 . S
O68 Cd58 2.297 . S
O68 C63 1.247 . S
O69 Cd58 2.439 . S
O69 C63 1.208 . S
O70 Cd71 2.223 . S
O70 C78 1.315 . S
Cd71 O70 2.223 . S
Cd71 O74 2.297 . S
Cd71 O75 2.439 . S
Cd71 O81 2.240 . S
Cd72 O73 2.240 . S
Cd72 O80 2.223 . S
Cd72 O82 2.297 . S
Cd72 O83 2.439 . S
O73 Cd72 2.240 . S
O73 C78 1.279 . S
O74 Cd71 2.297 . S
O74 C76 1.247 . S
O75 Cd71 2.439 . S
O75 C76 1.208 . S
C76 O74 1.247 . S
C76 O75 1.208 . S
C77 O82 1.247 . S
C77 O83 1.208 . S
C78 O70 1.315 . S
C78 O73 1.279 . S
C79 O80 1.315 . S
C79 O81 1.279 . S
O80 Cd72 2.223 . S
O80 C79 1.315 . S
O81 Cd71 2.240 . S
O81 C79 1.279 . S
O82 Cd72 2.297 . S
O82 C77 1.247 . S
O83 Cd72 2.439 . S
O83 C77 1.208 . S
O84 Cd85 2.223 . S
O84 C92 1.315 . S
Cd85 O84 2.223 . S
Cd85 O88 2.297 . S
Cd85 O89 2.439 . S
Cd85 O95 2.240 . S
Cd86 O87 2.240 . S
Cd86 O94 2.223 . S
Cd86 O96 2.297 . S
Cd86 O97 2.439 . S
O87 Cd86 2.240 . S
O87 C92 1.279 . S
O88 Cd85 2.297 . S
O88 C90 1.247 . S
O89 Cd85 2.439 . S
O89 C90 1.208 . S
C90 O88 1.247 . S
C90 O89 1.208 . S
C91 O96 1.247 . S
C91 O97 1.208 . S
C92 O84 1.315 . S
C92 O87 1.279 . S
C93 O94 1.315 . S
C93 O95 1.279 . S
O94 Cd86 2.223 . S
O94 C93 1.315 . S
O95 Cd85 2.240 . S
O95 C93 1.279 . S
O96 Cd86 2.297 . S
O96 C91 1.247 . S
O97 Cd86 2.439 . S
O97 C91 1.208 . S
O98 Cd99 2.223 . S
O98 C106 1.315 . S
Cd99 O98 2.223 . S
Cd99 O102 2.297 . S
Cd99 O103 2.439 . S
Cd99 O109 2.240 . S
Cd100 O101 2.240 . S
Cd100 O108 2.223 . S
Cd100 O110 2.297 . S
Cd100 O111 2.439 . S
O101 Cd100 2.240 . S
O101 C106 1.279 . S
O102 Cd99 2.297 . S
O102 C104 1.247 . S
O103 Cd99 2.439 . S
O103 C104 1.208 . S
C104 O102 1.247 . S
C104 O103 1.208 . S
C105 O110 1.247 . S
C105 O111 1.208 . S
C106 O98 1.315 . S
C106 O101 1.279 . S
C107 O108 1.315 . S
C107 O109 1.279 . S
O108 Cd100 2.223 . S
O108 C107 1.315 . S
O109 Cd99 2.240 . S
O109 C107 1.279 . S
O110 Cd100 2.297 . S
O110 C105 1.247 . S
O111 Cd100 2.439 . S
O111 C105 1.208 . S
O112 Cd113 2.223 . S
O112 C120 1.315 . S
Cd113 O112 2.223 . S
Cd113 O116 2.297 . S
Cd113 O117 2.439 . S
Cd113 O123 2.240 . S
Cd114 O115 2.240 . S
Cd114 O122 2.223 . S
Cd114 O124 2.297 . S
Cd114 O125 2.439 . S
O115 Cd114 2.240 . S
O115 C120 1.279 . S
O116 Cd113 2.297 . S
O116 C118 1.247 . S
O117 Cd113 2.439 . S
O117 C118 1.208 . S
C118 O116 1.247 . S
C118 O117 1.208 . S
C119 O124 1.247 . S
C119 O125 1.208 . S
C120 O112 1.315 . S
C120 O115 1.279 . S
C121 O122 1.315 . S
C121 O123 1.279 . S
O122 Cd114 2.223 . S
O122 C121 1.315 . S
O123 Cd113 2.240 . S
O123 C121 1.279 . S
O124 Cd114 2.297 . S
O124 C119 1.247 . S
O125 Cd114 2.439 . S
O125 C119 1.208 . S
O126 Cd127 2.223 . S
O126 C134 1.315 . S
Cd127 O126 2.223 . S
Cd127 O130 2.297 . S
Cd127 O131 2.439 1_554 S
Cd127 O137 2.240 . S
Cd128 O129 2.240 . S
Cd128 O136 2.223 . S
Cd128 O138 2.297 . S
Cd128 O139 2.439 . S
O129 Cd128 2.240 . S
O129 C134 1.279 . S
O130 Cd127 2.297 . S
O130 C132 1.247 1_554 S
O131 Cd127 2.439 1_556 S
O131 C132 1.208 . S
C132 O130 1.247 1_556 S
C132 O131 1.208 . S
C133 O138 1.247 . S
C133 O139 1.208 . S
C134 O126 1.315 . S
C134 O129 1.279 . S
C135 O136 1.315 . S
C135 O137 1.279 . S
O136 Cd128 2.223 . S
O136 C135 1.315 . S
O137 Cd127 2.240 . S
O137 C135 1.279 . S
O138 Cd128 2.297 . S
O138 C133 1.247 . S
O139 Cd128 2.439 . S
O139 C133 1.208 . S
O140 Cd141 2.223 . S
O140 C148 1.315 1_554 S
Cd141 O140 2.223 . S
Cd141 O144 2.297 . S
Cd141 O145 2.439 . S
Cd141 O151 2.240 . S
Cd142 O143 2.240 . S
Cd142 O150 2.223 1_554 S
Cd142 O152 2.297 . S
Cd142 O153 2.439 . S
O143 Cd142 2.240 . S
O143 C148 1.279 1_554 S
O144 Cd141 2.297 . S
O144 C146 1.247 . S
O145 Cd141 2.439 . S
O145 C146 1.208 . S
C146 O144 1.247 . S
C146 O145 1.208 . S
C147 O152 1.247 . S
C147 O153 1.208 . S
C148 O140 1.315 1_556 S
C148 O143 1.279 1_556 S
C149 O150 1.315 1_554 S
C149 O151 1.279 . S
O150 Cd142 2.223 1_556 S
O150 C149 1.315 1_556 S
O151 Cd141 2.240 . S
O151 C149 1.279 . S
O152 Cd142 2.297 . S
O152 C147 1.247 . S
O153 Cd142 2.439 . S
O153 C147 1.208 . S
O154 Cd155 2.223 . S
O154 C162 1.315 . S
Cd155 O154 2.223 . S
Cd155 O158 2.297 . S
Cd155 O159 2.439 1_554 S
Cd155 O165 2.240 . S
Cd156 O157 2.240 . S
Cd156 O164 2.223 . S
Cd156 O166 2.297 . S
Cd156 O167 2.439 . S
O157 Cd156 2.240 . S
O157 C162 1.279 . S
O158 Cd155 2.297 . S
O158 C160 1.247 1_554 S
O159 Cd155 2.439 1_556 S
O159 C160 1.208 . S
C160 O158 1.247 1_556 S
C160 O159 1.208 . S
C161 O166 1.247 . S
C161 O167 1.208 . S
C162 O154 1.315 . S
C162 O157 1.279 . S
C163 O164 1.315 . S
C163 O165 1.279 . S
O164 Cd156 2.223 . S
O164 C163 1.315 . S
O165 Cd155 2.240 . S
O165 C163 1.279 . S
O166 Cd156 2.297 . S
O166 C161 1.247 . S
O167 Cd156 2.439 . S
O167 C161 1.208 . S
O168 Cd169 2.223 1_554 S
O168 C176 1.315 . S
Cd169 O168 2.223 1_556 S
Cd169 O172 2.297 . S
Cd169 O173 2.439 . S
Cd169 O179 2.240 . S
Cd170 O171 2.240 . S
Cd170 O178 2.223 1_556 S
Cd170 O180 2.297 . S
Cd170 O181 2.439 . S
O171 Cd170 2.240 . S
O171 C176 1.279 1_556 S
O172 Cd169 2.297 . S
O172 C174 1.247 . S
O173 Cd169 2.439 . S
O173 C174 1.208 . S
C174 O172 1.247 . S
C174 O173 1.208 . S
C175 O180 1.247 . S
C175 O181 1.208 . S
C176 O168 1.315 . S
C176 O171 1.279 1_554 S
C177 O178 1.325 . S
C177 O179 1.262 1_554 S
O178 Cd170 2.223 1_554 S
O178 C177 1.325 . S
O179 Cd169 2.240 . S
O179 C177 1.262 1_556 S
O180 Cd170 2.297 . S
O180 C175 1.247 . S
O181 Cd170 2.439 . S
O181 C175 1.208 . S
O182 Cd183 2.223 . S
O182 C190 1.315 1_556 S
Cd183 O182 2.223 . S
Cd183 O186 2.297 . S
Cd183 O187 2.439 . S
Cd183 O193 2.240 . S
Cd184 O185 2.240 . S
Cd184 O192 2.223 1_556 S
Cd184 O194 2.297 . S
Cd184 O195 2.439 . S
O185 Cd184 2.240 . S
O185 C190 1.279 1_556 S
O186 Cd183 2.297 . S
O186 C188 1.247 . S
O187 Cd183 2.439 . S
O187 C188 1.208 . S
C188 O186 1.247 . S
C188 O187 1.208 . S
C189 O194 1.247 . S
C189 O195 1.208 . S
C190 O182 1.315 1_554 S
C190 O185 1.279 1_554 S
C191 O192 1.315 1_556 S
C191 O193 1.279 . S
O192 Cd184 2.223 1_554 S
O192 C191 1.315 1_554 S
O193 Cd183 2.240 . S
O193 C191 1.279 . S
O194 Cd184 2.297 . S
O194 C189 1.247 . S
O195 Cd184 2.439 . S
O195 C189 1.208 . S
O196 Cd197 2.223 . S
O196 C204 1.315 . S
Cd197 O196 2.223 . S
Cd197 O200 2.297 . S
Cd197 O201 2.439 1_556 S
Cd197 O207 2.240 . S
Cd198 O199 2.240 . S
Cd198 O206 2.223 . S
Cd198 O208 2.297 . S
Cd198 O209 2.439 . S
O199 Cd198 2.240 . S
O199 C204 1.279 . S
O200 Cd197 2.297 . S
O200 C202 1.247 1_556 S
O201 Cd197 2.439 1_554 S
O201 C202 1.208 . S
C202 O200 1.247 1_554 S
C202 O201 1.208 . S
C203 O208 1.247 . S
C203 O209 1.208 . S
C204 O196 1.315 . S
C204 O199 1.279 . S
C205 O206 1.315 . S
C205 O207 1.279 . S
O206 Cd198 2.223 . S
O206 C205 1.315 . S
O207 Cd197 2.240 . S
O207 C205 1.279 . S
O208 Cd198 2.297 . S
O208 C203 1.247 . S
O209 Cd198 2.439 . S
O209 C203 1.208 . S
O210 Cd211 2.223 . S
O210 C218 1.315 . S
Cd211 O210 2.223 . S
Cd211 O214 2.297 . S
Cd211 O215 2.439 . S
Cd211 O221 2.240 . S
Cd212 O213 2.240 . S
Cd212 O220 2.223 . S
Cd212 O222 2.297 . S
Cd212 O223 2.439 . S
O213 Cd212 2.240 . S
O213 C218 1.279 . S
O214 Cd211 2.297 . S
O214 C216 1.247 . S
O215 Cd211 2.439 . S
O215 C216 1.208 . S
C216 O214 1.247 . S
C216 O215 1.208 . S
C217 O222 1.247 . S
C217 O223 1.208 . S
C218 O210 1.315 . S
C218 O213 1.279 . S
C219 O220 1.315 . S
C219 O221 1.279 . S
O220 Cd212 2.223 . S
O220 C219 1.315 . S
O221 Cd211 2.240 . S
O221 C219 1.279 . S
O222 Cd212 2.297 . S
O222 C217 1.247 . S
O223 Cd212 2.439 . S
O223 C217 1.208 . S
O224 Cd225 2.223 . S
O224 C232 1.315 . S
Cd225 O224 2.223 . S
Cd225 O228 2.297 . S
Cd225 O229 2.439 . S
Cd225 O235 2.240 . S
Cd226 O227 2.240 . S
Cd226 O234 2.223 . S
Cd226 O236 2.297 . S
Cd226 O237 2.439 . S
O227 Cd226 2.240 . S
O227 C232 1.279 . S
O228 Cd225 2.297 . S
O228 C230 1.247 . S
O229 Cd225 2.439 . S
O229 C230 1.208 . S
C230 O228 1.247 . S
C230 O229 1.208 . S
C231 O236 1.247 . S
C231 O237 1.208 . S
C232 O224 1.315 . S
C232 O227 1.279 . S
C233 O234 1.315 . S
C233 O235 1.279 . S
O234 Cd226 2.223 . S
O234 C233 1.315 . S
O235 Cd225 2.240 . S
O235 C233 1.279 . S
O236 Cd226 2.297 . S
O236 C231 1.247 . S
O237 Cd226 2.439 . S
O237 C231 1.208 . S
O238 Cd239 2.223 . S
O238 C246 1.315 . S
Cd239 O238 2.223 . S
Cd239 O242 2.297 . S
Cd239 O243 2.439 . S
Cd239 O249 2.240 . S
Cd240 O241 2.240 . S
Cd240 O248 2.223 . S
Cd240 O250 2.297 . S
Cd240 O251 2.439 . S
O241 Cd240 2.240 . S
O241 C246 1.279 . S
O242 Cd239 2.297 . S
O242 C244 1.247 . S
O243 Cd239 2.439 . S
O243 C244 1.208 . S
C244 O242 1.247 . S
C244 O243 1.208 . S
C245 O250 1.247 . S
C245 O251 1.208 . S
C246 O238 1.315 . S
C246 O241 1.279 . S
C247 O248 1.315 . S
C247 O249 1.279 . S
O248 Cd240 2.223 . S
O248 C247 1.315 . S
O249 Cd239 2.240 . S
O249 C247 1.279 . S
O250 Cd240 2.297 . S
O250 C245 1.247 . S
O251 Cd240 2.439 . S
O251 C245 1.208 . S
H252 C258 0.930 . S
H253 C262 0.930 . S
H254 C267 0.938 . S
H255 C265 0.929 . S
H256 C260 0.929 . S
H257 C266 0.929 . S
C258 H252 0.930 . S
C258 C259 1.367 . S
C258 C266 1.378 . S
C259 C258 1.367 . S
C259 C267 1.420 1_455 S
C260 H256 0.929 . S
C260 C262 1.378 1_556 S
C260 C264 1.350 . S
C261 C264 1.463 . S
C261 C266 1.350 . S
C261 N269 1.427 . S
C262 H253 0.930 . S
C262 C260 1.378 1_554 S
C262 C263 1.367 . S
C263 C262 1.367 . S
C263 C265 1.433 . S
C264 C260 1.350 . S
C264 C261 1.463 . S
C264 N268 1.427 1_556 S
C265 H255 0.929 . S
C265 C263 1.433 . S
C265 N268 1.384 . S
C266 H257 0.929 . S
C266 C258 1.378 . S
C266 C261 1.350 . S
C267 H254 0.938 . S
C267 C259 1.420 1_655 S
C267 N269 1.388 1_655 S
N268 C264 1.427 1_554 S
N268 C265 1.384 . S
N269 C261 1.427 . S
N269 C267 1.388 1_455 S
H270 C276 0.930 . S
H271 C280 0.930 . S
H272 C285 0.929 . S
H273 C283 0.929 . S
H274 C278 0.929 . S
H275 C284 0.931 . S
C276 H270 0.930 . S
C276 C277 1.367 . S
C276 C284 1.375 1_556 S
C277 C276 1.367 . S
C277 C285 1.433 . S
C278 H274 0.929 . S
C278 C280 1.378 . S
C278 C282 1.350 . S
C279 C282 1.463 . S
C279 C284 1.350 . S
C279 N287 1.427 1_554 S
C280 H271 0.930 . S
C280 C278 1.378 . S
C280 C281 1.367 . S
C281 C280 1.367 . S
C281 C283 1.433 . S
C282 C278 1.350 . S
C282 C279 1.463 . S
C282 N286 1.427 . S
C283 H273 0.929 . S
C283 C281 1.433 . S
C283 N286 1.384 . S
C284 H275 0.931 . S
C284 C276 1.375 1_554 S
C284 C279 1.350 . S
C285 H272 0.929 . S
C285 C277 1.433 . S
C285 N287 1.384 . S
N286 C282 1.427 . S
N286 C283 1.384 . S
N287 C279 1.427 1_556 S
N287 C285 1.384 . S
H288 C294 0.930 . S
H289 C298 0.930 . S
H290 C303 0.929 . S
H291 C301 0.929 . S
H292 C296 0.929 1_554 S
H293 C302 0.929 1_565 S
C294 H288 0.930 . S
C294 C295 1.367 1_565 S
C294 C302 1.378 1_565 S
C295 C294 1.367 1_545 S
C295 C303 1.433 . S
C296 H292 0.929 1_556 S
C296 C298 1.378 . S
C296 C300 1.350 . S
C297 C300 1.463 1_554 S
C297 C302 1.350 . S
C297 N305 1.427 . S
C298 H289 0.930 . S
C298 C296 1.378 . S
C298 C299 1.367 . S
C299 C298 1.367 . S
C299 C301 1.433 . S
C300 C296 1.350 . S
C300 C297 1.463 1_556 S
C300 N304 1.427 . S
C301 H291 0.929 . S
C301 C299 1.433 . S
C301 N304 1.384 . S
C302 H293 0.929 1_545 S
C302 C294 1.378 1_545 S
C302 C297 1.350 . S
C303 H290 0.929 . S
C303 C295 1.433 . S
C303 N305 1.384 . S
N304 C300 1.427 . S
N304 C301 1.384 . S
N305 C297 1.427 . S
N305 C303 1.384 . S
H306 C312 0.930 . S
H307 C316 0.930 . S
H308 C321 0.929 . S
H309 C319 0.929 . S
H310 C314 0.929 . S
H311 C320 0.929 . S
C312 H306 0.930 . S
C312 C313 1.367 . S
C312 C320 1.378 . S
C313 C312 1.367 . S
C313 C321 1.433 . S
C314 H310 0.929 . S
C314 C316 1.378 . S
C314 C318 1.350 . S
C315 C318 1.463 . S
C315 C320 1.350 . S
C315 N323 1.427 . S
C316 H307 0.930 . S
C316 C314 1.378 . S
C316 C317 1.367 . S
C317 C316 1.367 . S
C317 C319 1.433 . S
C318 C314 1.350 . S
C318 C315 1.463 . S
C318 N322 1.427 . S
C319 H309 0.929 . S
C319 C317 1.433 . S
C319 N322 1.384 . S
C320 H311 0.929 . S
C320 C312 1.378 . S
C320 C315 1.350 . S
C321 H308 0.929 . S
C321 C313 1.433 . S
C321 N323 1.384 . S
N322 C318 1.427 . S
N322 C319 1.384 . S
N323 C315 1.427 . S
N323 C321 1.384 . S
H324 C330 0.930 . S
H325 C334 0.927 1_655 S
H326 C339 0.929 1_655 S
H327 C337 0.929 . S
H328 C332 0.929 1_655 S
H329 C338 0.929 . S
C330 H324 0.930 . S
C330 C331 1.367 . S
C330 C338 1.378 . S
C331 C330 1.367 . S
C331 C339 1.433 . S
C332 H328 0.929 1_455 S
C332 C334 1.361 . S
C332 C336 1.350 . S
C333 C336 1.463 . S
C333 C338 1.350 . S
C333 N341 1.427 . S
C334 H325 0.927 1_455 S
C334 C332 1.361 . S
C334 C335 1.391 . S
C335 C334 1.391 . S
C335 C337 1.433 . S
C336 C332 1.350 . S
C336 C333 1.463 . S
C336 N340 1.427 . S
C337 H327 0.929 . S
C337 C335 1.433 . S
C337 N340 1.384 . S
C338 H329 0.929 . S
C338 C330 1.378 . S
C338 C333 1.350 . S
C339 H326 0.929 1_455 S
C339 C331 1.433 . S
C339 N341 1.384 . S
N340 C336 1.427 . S
N340 C337 1.384 . S
N341 C333 1.427 . S
N341 C339 1.384 . S
H342 C348 0.930 . S
H343 C352 0.930 . S
H344 C357 0.929 . S
H345 C355 0.929 . S
H346 C350 0.929 . S
H347 C356 0.929 . S
C348 H342 0.930 . S
C348 C349 1.367 . S
C348 C356 1.378 . S
C349 C348 1.367 . S
C349 C357 1.433 . S
C350 H346 0.929 . S
C350 C352 1.378 . S
C350 C354 1.350 . S
C351 C354 1.463 . S
C351 C356 1.350 . S
C351 N359 1.427 . S
C352 H343 0.930 . S
C352 C350 1.378 . S
C352 C353 1.367 . S
C353 C352 1.367 . S
C353 C355 1.433 . S
C354 C350 1.350 . S
C354 C351 1.463 . S
C354 N358 1.427 . S
C355 H345 0.929 . S
C355 C353 1.433 . S
C355 N358 1.384 . S
C356 H347 0.929 . S
C356 C348 1.378 . S
C356 C351 1.350 . S
C357 H344 0.929 . S
C357 C349 1.433 . S
C357 N359 1.384 . S
N358 C354 1.427 . S
N358 C355 1.384 . S
N359 C351 1.427 . S
N359 C357 1.384 . S
H360 C366 0.930 . S
H361 C370 0.930 . S
H362 C375 0.929 . S
H363 C373 0.929 . S
H364 C368 0.929 . S
H365 C374 0.929 . S
C366 H360 0.930 . S
C366 C367 1.367 . S
C366 C374 1.378 . S
C367 C366 1.367 . S
C367 C375 1.433 . S
C368 H364 0.929 . S
C368 C370 1.378 . S
C368 C372 1.350 . S
C369 C372 1.463 . S
C369 C374 1.350 . S
C369 N377 1.427 . S
C370 H361 0.930 . S
C370 C368 1.378 . S
C370 C371 1.367 . S
C371 C370 1.367 . S
C371 C373 1.433 . S
C372 C368 1.350 . S
C372 C369 1.463 . S
C372 N376 1.427 . S
C373 H363 0.929 . S
C373 C371 1.433 . S
C373 N376 1.384 . S
C374 H365 0.929 . S
C374 C366 1.378 . S
C374 C369 1.350 . S
C375 H362 0.929 . S
C375 C367 1.433 . S
C375 N377 1.384 . S
N376 C372 1.427 . S
N376 C373 1.384 . S
N377 C369 1.427 . S
N377 C375 1.384 . S
H378 C384 0.930 . S
H379 C388 0.930 . S
H380 C393 0.929 . S
H381 C391 0.929 . S
H382 C386 0.929 . S
H383 C392 0.929 . S
C384 H378 0.930 . S
C384 C385 1.367 . S
C384 C392 1.378 . S
C385 C384 1.367 . S
C385 C393 1.433 . S
C386 H382 0.929 . S
C386 C388 1.378 . S
C386 C390 1.350 . S
C387 C390 1.463 . S
C387 C392 1.350 . S
C387 N395 1.427 . S
C388 H379 0.930 . S
C388 C386 1.378 . S
C388 C389 1.367 . S
C389 C388 1.367 . S
C389 C391 1.433 . S
C390 C386 1.350 . S
C390 C387 1.463 . S
C390 N394 1.427 . S
C391 H381 0.929 . S
C391 C389 1.433 . S
C391 N394 1.384 . S
C392 H383 0.929 . S
C392 C384 1.378 . S
C392 C387 1.350 . S
C393 H380 0.929 . S
C393 C385 1.433 . S
C393 N395 1.384 . S
N394 C390 1.427 . S
N394 C391 1.384 . S
N395 C387 1.427 . S
N395 C393 1.384 . S
H396 C402 0.930 . S
H397 C406 0.930 . S
H398 C411 0.929 . S
H399 C409 0.929 . S
H400 C404 0.929 . S
H401 C410 0.929 . S
C402 H396 0.930 . S
C402 C403 1.367 . S
C402 C410 1.378 . S
C403 C402 1.367 . S
C403 C411 1.433 . S
C404 H400 0.929 . S
C404 C406 1.378 . S
C404 C408 1.350 . S
C405 C408 1.463 . S
C405 C410 1.350 . S
C405 N413 1.427 . S
C406 H397 0.930 . S
C406 C404 1.378 . S
C406 C407 1.367 . S
C407 C406 1.367 . S
C407 C409 1.433 . S
C408 C404 1.350 . S
C408 C405 1.463 . S
C408 N412 1.427 . S
C409 H399 0.929 . S
C409 C407 1.433 . S
C409 N412 1.384 . S
C410 H401 0.929 . S
C410 C402 1.378 . S
C410 C405 1.350 . S
C411 H398 0.929 . S
C411 C403 1.433 . S
C411 N413 1.384 . S
N412 C408 1.427 . S
N412 C409 1.384 . S
N413 C405 1.427 . S
N413 C411 1.384 . S
H414 C420 0.930 . S
H415 C424 0.930 . S
H416 C429 0.929 . S
H417 C427 0.929 . S
H418 C422 0.929 . S
H419 C428 0.929 . S
C420 H414 0.930 . S
C420 C421 1.367 . S
C420 C428 1.378 . S
C421 C420 1.367 . S
C421 C429 1.433 . S
C422 H418 0.929 . S
C422 C424 1.378 . S
C422 C426 1.350 . S
C423 C426 1.463 . S
C423 C428 1.350 . S
C423 N431 1.427 . S
C424 H415 0.930 . S
C424 C422 1.378 . S
C424 C425 1.367 . S
C425 C424 1.367 . S
C425 C427 1.433 . S
C426 C422 1.350 . S
C426 C423 1.463 . S
C426 N430 1.427 . S
C427 H417 0.929 . S
C427 C425 1.433 . S
C427 N430 1.384 . S
C428 H419 0.929 . S
C428 C420 1.378 . S
C428 C423 1.350 . S
C429 H416 0.929 . S
C429 C421 1.433 . S
C429 N431 1.384 . S
N430 C426 1.427 . S
N430 C427 1.384 . S
N431 C423 1.427 . S
N431 C429 1.384 . S
H432 C438 0.930 . S
H433 C442 0.930 . S
H434 C447 0.929 . S
H435 C445 0.929 . S
H436 C440 0.929 . S
H437 C446 0.929 . S
C438 H432 0.930 . S
C438 C439 1.367 . S
C438 C446 1.378 . S
C439 C438 1.367 . S
C439 C447 1.433 . S
C440 H436 0.929 . S
C440 C442 1.378 . S
C440 C444 1.350 . S
C441 C444 1.463 . S
C441 C446 1.350 . S
C441 N449 1.427 . S
C442 H433 0.930 . S
C442 C440 1.378 . S
C442 C443 1.367 . S
C443 C442 1.367 . S
C443 C445 1.433 . S
C444 C440 1.350 . S
C444 C441 1.463 . S
C444 N448 1.427 . S
C445 H435 0.929 . S
C445 C443 1.433 . S
C445 N448 1.384 . S
C446 H437 0.929 . S
C446 C438 1.378 . S
C446 C441 1.350 . S
C447 H434 0.929 . S
C447 C439 1.433 . S
C447 N449 1.384 . S
N448 C444 1.427 . S
N448 C445 1.384 . S
N449 C441 1.427 . S
N449 C447 1.384 . S
H450 C456 0.930 . S
H451 C460 0.930 . S
H452 C465 0.929 . S
H453 C463 0.929 . S
H454 C458 0.929 . S
H455 C464 0.929 . S
C456 H450 0.930 . S
C456 C457 1.367 . S
C456 C464 1.378 . S
C457 C456 1.367 . S
C457 C465 1.433 . S
C458 H454 0.929 . S
C458 C460 1.378 . S
C458 C462 1.350 . S
C459 C462 1.463 . S
C459 C464 1.350 . S
C459 N467 1.427 . S
C460 H451 0.930 . S
C460 C458 1.378 . S
C460 C461 1.367 . S
C461 C460 1.367 . S
C461 C463 1.433 . S
C462 C458 1.350 . S
C462 C459 1.463 . S
C462 N466 1.427 . S
C463 H453 0.929 . S
C463 C461 1.433 . S
C463 N466 1.384 . S
C464 H455 0.929 . S
C464 C456 1.378 . S
C464 C459 1.350 . S
C465 H452 0.929 . S
C465 C457 1.433 . S
C465 N467 1.384 . S
N466 C462 1.427 . S
N466 C463 1.384 . S
N467 C459 1.427 . S
N467 C465 1.384 . S
H468 C474 0.930 . S
H469 C478 0.930 . S
H470 C483 0.929 . S
H471 C481 0.929 . S
H472 C476 0.929 . S
H473 C482 0.929 . S
C474 H468 0.930 . S
C474 C475 1.367 . S
C474 C482 1.378 . S
C475 C474 1.367 . S
C475 C483 1.433 . S
C476 H472 0.929 . S
C476 C478 1.378 . S
C476 C480 1.350 . S
C477 C480 1.463 . S
C477 C482 1.350 . S
C477 N485 1.427 . S
C478 H469 0.930 . S
C478 C476 1.378 . S
C478 C479 1.367 . S
C479 C478 1.367 . S
C479 C481 1.433 . S
C480 C476 1.350 . S
C480 C477 1.463 . S
C480 N484 1.427 . S
C481 H471 0.929 . S
C481 C479 1.433 . S
C481 N484 1.384 . S
C482 H473 0.929 . S
C482 C474 1.378 . S
C482 C477 1.350 . S
C483 H470 0.929 . S
C483 C475 1.433 . S
C483 N485 1.384 . S
N484 C480 1.427 . S
N484 C481 1.384 . S
N485 C477 1.427 . S
N485 C483 1.384 . S
H486 C492 0.930 . S
H487 C496 0.930 . S
H488 C501 0.929 . S
H489 C499 0.929 . S
H490 C494 0.929 . S
H491 C500 0.929 . S
C492 H486 0.930 . S
C492 C493 1.367 . S
C492 C500 1.378 . S
C493 C492 1.367 . S
C493 C501 1.433 . S
C494 H490 0.929 . S
C494 C496 1.378 . S
C494 C498 1.350 . S
C495 C498 1.463 . S
C495 C500 1.350 . S
C495 N503 1.427 . S
C496 H487 0.930 . S
C496 C494 1.378 . S
C496 C497 1.367 . S
C497 C496 1.367 . S
C497 C499 1.433 . S
C498 C494 1.350 . S
C498 C495 1.463 . S
C498 N502 1.427 . S
C499 H489 0.929 . S
C499 C497 1.433 . S
C499 N502 1.384 . S
C500 H491 0.929 . S
C500 C492 1.378 . S
C500 C495 1.350 . S
C501 H488 0.929 . S
C501 C493 1.433 . S
C501 N503 1.384 . S
N502 C498 1.427 . S
N502 C499 1.384 . S
N503 C495 1.427 . S
N503 C501 1.384 . S
H504 C510 0.930 . S
H505 C514 0.930 . S
H506 C519 0.929 . S
H507 C517 0.929 . S
H508 C512 0.929 . S
H509 C518 0.929 . S
C510 H504 0.930 . S
C510 C511 1.367 . S
C510 C518 1.378 . S
C511 C510 1.367 . S
C511 C519 1.433 . S
C512 H508 0.929 . S
C512 C514 1.378 . S
C512 C516 1.350 . S
C513 C516 1.463 . S
C513 C518 1.350 . S
C513 N521 1.427 . S
C514 H505 0.930 . S
C514 C512 1.378 . S
C514 C515 1.367 . S
C515 C514 1.367 . S
C515 C517 1.433 . S
C516 C512 1.350 . S
C516 C513 1.463 . S
C516 N520 1.427 . S
C517 H507 0.929 . S
C517 C515 1.433 . S
C517 N520 1.384 . S
C518 H509 0.929 . S
C518 C510 1.378 . S
C518 C513 1.350 . S
C519 H506 0.929 . S
C519 C511 1.433 . S
C519 N521 1.384 . S
N520 C516 1.427 . S
N520 C517 1.384 . S
N521 C513 1.427 . S
N521 C519 1.384 . S
H522 C528 0.930 . S
H523 C532 0.930 . S
H524 C537 0.929 . S
H525 C535 0.929 . S
H526 C530 0.929 . S
H527 C536 0.929 . S
C528 H522 0.930 . S
C528 C529 1.367 . S
C528 C536 1.378 . S
C529 C528 1.367 . S
C529 C537 1.433 . S
C530 H526 0.929 . S
C530 C532 1.378 . S
C530 C534 1.350 . S
C531 C534 1.463 . S
C531 C536 1.350 . S
C531 N539 1.427 . S
C532 H523 0.930 . S
C532 C530 1.378 . S
C532 C533 1.367 . S
C533 C532 1.367 . S
C533 C535 1.433 . S
C534 C530 1.350 . S
C534 C531 1.463 . S
C534 N538 1.427 . S
C535 H525 0.929 . S
C535 C533 1.433 . S
C535 N538 1.384 . S
C536 H527 0.929 . S
C536 C528 1.378 . S
C536 C531 1.350 . S
C537 H524 0.929 . S
C537 C529 1.433 . S
C537 N539 1.384 . S
N538 C534 1.427 . S
N538 C535 1.384 . S
N539 C531 1.427 . S
N539 C537 1.384 . S
H540 C546 0.930 . S
H541 C550 0.930 . S
H542 C555 0.929 . S
H543 C553 0.929 . S
H544 C548 0.929 . S
H545 C554 0.929 . S
C546 H540 0.930 . S
C546 C547 1.367 . S
C546 C554 1.378 . S
C547 C546 1.367 . S
C547 C555 1.433 . S
C548 H544 0.929 . S
C548 C550 1.378 . S
C548 C552 1.350 . S
C549 C552 1.463 . S
C549 C554 1.350 . S
C549 N557 1.427 . S
C550 H541 0.930 . S
C550 C548 1.378 . S
C550 C551 1.367 . S
C551 C550 1.367 . S
C551 C553 1.433 . S
C552 C548 1.350 . S
C552 C549 1.463 . S
C552 N556 1.427 . S
C553 H543 0.929 . S
C553 C551 1.433 . S
C553 N556 1.384 . S
C554 H545 0.929 . S
C554 C546 1.378 . S
C554 C549 1.350 . S
C555 H542 0.929 . S
C555 C547 1.433 . S
C555 N557 1.384 . S
N556 C552 1.427 . S
N556 C553 1.384 . S
N557 C549 1.427 . S
N557 C555 1.384 . S
H558 C564 0.930 . S
H559 C568 0.930 . S
H560 C573 0.929 . S
H561 C571 0.929 . S
H562 C566 0.929 . S
H563 C572 0.929 . S
C564 H558 0.930 . S
C564 C565 1.367 . S
C564 C572 1.378 . S
C565 C564 1.367 . S
C565 C573 1.433 . S
C566 H562 0.929 . S
C566 C568 1.378 . S
C566 C570 1.350 . S
C567 C570 1.463 . S
C567 C572 1.350 . S
C567 N575 1.427 . S
C568 H559 0.930 . S
C568 C566 1.378 . S
C568 C569 1.367 . S
C569 C568 1.367 . S
C569 C571 1.433 . S
C570 C566 1.350 . S
C570 C567 1.463 . S
C570 N574 1.427 . S
C571 H561 0.929 . S
C571 C569 1.433 . S
C571 N574 1.384 . S
C572 H563 0.929 . S
C572 C564 1.378 . S
C572 C567 1.350 . S
C573 H560 0.929 . S
C573 C565 1.433 . S
C573 N575 1.384 . S
N574 C570 1.427 . S
N574 C571 1.384 . S
N575 C567 1.427 . S
N575 C573 1.384 . S
H576 C582 0.930 . S
H577 C586 0.930 . S
H578 C591 0.929 . S
H579 C589 0.929 . S
H580 C584 0.929 . S
H581 C590 0.929 . S
C582 H576 0.930 . S
C582 C583 1.367 . S
C582 C590 1.378 . S
C583 C582 1.367 . S
C583 C591 1.433 . S
C584 H580 0.929 . S
C584 C586 1.378 . S
C584 C588 1.350 . S
C585 C588 1.463 . S
C585 C590 1.350 . S
C585 N593 1.427 . S
C586 H577 0.930 . S
C586 C584 1.378 . S
C586 C587 1.367 . S
C587 C586 1.367 . S
C587 C589 1.433 . S
C588 C584 1.350 . S
C588 C585 1.463 . S
C588 N592 1.427 . S
C589 H579 0.929 . S
C589 C587 1.433 . S
C589 N592 1.384 . S
C590 H581 0.929 . S
C590 C582 1.378 . S
C590 C585 1.350 . S
C591 H578 0.929 . S
C591 C583 1.433 . S
C591 N593 1.384 . S
N592 C588 1.427 . S
N592 C589 1.384 . S
N593 C585 1.427 . S
N593 C591 1.384 . S
H594 C600 0.930 . S
H595 C604 0.930 . S
H596 C609 0.929 . S
H597 C607 0.929 . S
H598 C602 0.929 . S
H599 C608 0.929 . S
C600 H594 0.930 . S
C600 C601 1.367 . S
C600 C608 1.378 . S
C601 C600 1.367 . S
C601 C609 1.433 . S
C602 H598 0.929 . S
C602 C604 1.378 . S
C602 C606 1.350 . S
C603 C606 1.463 . S
C603 C608 1.350 . S
C603 N611 1.427 . S
C604 H595 0.930 . S
C604 C602 1.378 . S
C604 C605 1.367 . S
C605 C604 1.367 . S
C605 C607 1.433 . S
C606 C602 1.350 . S
C606 C603 1.463 . S
C606 N610 1.427 . S
C607 H597 0.929 . S
C607 C605 1.433 . S
C607 N610 1.384 . S
C608 H599 0.929 . S
C608 C600 1.378 . S
C608 C603 1.350 . S
C609 H596 0.929 . S
C609 C601 1.433 . S
C609 N611 1.384 . S
N610 C606 1.427 . S
N610 C607 1.384 . S
N611 C603 1.427 . S
N611 C609 1.384 . S
H612 C618 0.930 . S
H613 C622 0.930 . S
H614 C627 0.929 . S
H615 C625 0.929 . S
H616 C620 0.929 . S
H617 C626 0.929 . S
C618 H612 0.930 . S
C618 C619 1.367 . S
C618 C626 1.378 . S
C619 C618 1.367 . S
C619 C627 1.433 . S
C620 H616 0.929 . S
C620 C622 1.378 . S
C620 C624 1.350 . S
C621 C624 1.463 . S
C621 C626 1.350 . S
C621 N629 1.427 . S
C622 H613 0.930 . S
C622 C620 1.378 . S
C622 C623 1.367 . S
C623 C622 1.367 . S
C623 C625 1.433 . S
C624 C620 1.350 . S
C624 C621 1.463 . S
C624 N628 1.427 . S
C625 H615 0.929 . S
C625 C623 1.433 . S
C625 N628 1.384 . S
C626 H617 0.929 . S
C626 C618 1.378 . S
C626 C621 1.350 . S
C627 H614 0.929 . S
C627 C619 1.433 . S
C627 N629 1.384 . S
N628 C624 1.427 . S
N628 C625 1.384 . S
N629 C621 1.427 . S
N629 C627 1.384 . S
H630 C636 0.930 . S
H631 C640 0.930 1_556 S
H632 C645 0.929 . S
H633 C643 0.929 . S
H634 C638 0.929 . S
H635 C644 0.929 . S
C636 H630 0.930 . S
C636 C637 1.367 . S
C636 C644 1.378 . S
C637 C636 1.367 . S
C637 C645 1.433 . S
C638 H634 0.929 . S
C638 C640 1.378 . S
C638 C642 1.350 . S
C639 C642 1.463 . S
C639 C644 1.350 . S
C639 N647 1.427 . S
C640 H631 0.930 1_554 S
C640 C638 1.378 . S
C640 C641 1.367 . S
C641 C640 1.367 . S
C641 C643 1.433 . S
C642 C638 1.350 . S
C642 C639 1.463 . S
C642 N646 1.427 . S
C643 H633 0.929 . S
C643 C641 1.433 . S
C643 N646 1.384 . S
C644 H635 0.929 . S
C644 C636 1.378 . S
C644 C639 1.350 . S
C645 H632 0.929 . S
C645 C637 1.433 . S
C645 N647 1.384 . S
N646 C642 1.427 . S
N646 C643 1.384 . S
N647 C639 1.427 . S
N647 C645 1.384 . S
H648 C654 0.930 . S
H649 C658 0.930 . S
H650 C663 0.929 . S
H651 C661 0.911 1_455 S
H652 C656 0.929 . S
H653 C662 0.929 . S
C654 H648 0.930 . S
C654 C655 1.367 1_554 S
C654 C662 1.378 . S
C655 C654 1.367 1_556 S
C655 C663 1.433 . S
C656 H652 0.929 . S
C656 C658 1.378 . S
C656 C660 1.350 . S
C657 C660 1.463 . S
C657 C662 1.350 . S
C657 N665 1.427 . S
C658 H649 0.930 . S
C658 C656 1.378 . S
C658 C659 1.367 . S
C659 C658 1.367 . S
C659 C661 1.430 . S
C660 C656 1.350 . S
C660 C657 1.463 . S
C660 N664 1.427 . S
C661 H651 0.911 1_655 S
C661 C659 1.430 . S
C661 N664 1.407 . S
C662 H653 0.929 . S
C662 C654 1.378 . S
C662 C657 1.350 . S
C663 H650 0.929 . S
C663 C655 1.433 . S
C663 N665 1.384 1_556 S
N664 C660 1.427 . S
N664 C661 1.407 . S
N665 C657 1.427 . S
N665 C663 1.384 1_554 S
H666 C672 0.930 . S
H667 C676 0.930 . S
H668 C681 0.929 . S
H669 C679 0.929 . S
H670 C674 0.929 . S
H671 C680 0.929 . S
C672 H666 0.930 . S
C672 C673 1.367 . S
C672 C680 1.378 . S
C673 C672 1.367 . S
C673 C681 1.433 . S
C674 H670 0.929 . S
C674 C676 1.378 . S
C674 C678 1.350 . S
C675 C678 1.463 . S
C675 C680 1.350 . S
C675 N683 1.427 . S
C676 H667 0.930 . S
C676 C674 1.378 . S
C676 C677 1.367 . S
C677 C676 1.367 . S
C677 C679 1.433 . S
C678 C674 1.350 . S
C678 C675 1.463 . S
C678 N682 1.427 . S
C679 H669 0.929 . S
C679 C677 1.433 . S
C679 N682 1.384 . S
C680 H671 0.929 . S
C680 C672 1.378 . S
C680 C675 1.350 . S
C681 H668 0.929 . S
C681 C673 1.433 . S
C681 N683 1.384 . S
N682 C678 1.427 . S
N682 C679 1.384 . S
N683 C675 1.427 . S
N683 C681 1.384 . S
H684 C690 0.930 . S
H685 C694 0.930 . S
H686 C699 0.929 . S
H687 C697 0.929 . S
H688 C692 0.929 . S
H689 C698 0.929 . S
C690 H684 0.930 . S
C690 C691 1.367 . S
C690 C698 1.378 . S
C691 C690 1.367 . S
C691 C699 1.433 . S
C692 H688 0.929 . S
C692 C694 1.378 . S
C692 C696 1.350 . S
C693 C696 1.463 . S
C693 C698 1.350 . S
C693 N701 1.427 . S
C694 H685 0.930 . S
C694 C692 1.378 . S
C694 C695 1.367 . S
C695 C694 1.367 . S
C695 C697 1.433 . S
C696 C692 1.350 . S
C696 C693 1.463 . S
C696 N700 1.427 . S
C697 H687 0.929 . S
C697 C695 1.433 . S
C697 N700 1.384 . S
C698 H689 0.929 . S
C698 C690 1.378 . S
C698 C693 1.350 . S
C699 H686 0.929 . S
C699 C691 1.433 . S
C699 N701 1.384 . S
N700 C696 1.427 . S
N700 C697 1.384 . S
N701 C693 1.427 . S
N701 C699 1.384 . S
H702 C708 0.930 . S
H703 C712 0.930 . S
H704 C717 0.929 . S
H705 C715 0.929 . S
H706 C710 0.929 . S
H707 C716 0.929 . S
C708 H702 0.930 . S
C708 C709 1.367 . S
C708 C716 1.378 . S
C709 C708 1.367 . S
C709 C717 1.433 . S
C710 H706 0.929 . S
C710 C712 1.378 . S
C710 C714 1.350 . S
C711 C714 1.463 . S
C711 C716 1.350 . S
C711 N719 1.427 . S
C712 H703 0.930 . S
C712 C710 1.378 . S
C712 C713 1.367 . S
C713 C712 1.367 . S
C713 C715 1.433 . S
C714 C710 1.350 . S
C714 C711 1.463 . S
C714 N718 1.427 . S
C715 H705 0.929 . S
C715 C713 1.433 . S
C715 N718 1.384 . S
C716 H707 0.929 . S
C716 C708 1.378 . S
C716 C711 1.350 . S
C717 H704 0.929 . S
C717 C709 1.433 . S
C717 N719 1.384 . S
N718 C714 1.427 . S
N718 C715 1.384 . S
N719 C711 1.427 . S
N719 C717 1.384 . S
H720 C726 0.930 . S
H721 C730 0.930 . S
H722 C735 0.929 . S
H723 C733 0.929 . S
H724 C728 0.929 . S
H725 C734 0.929 . S
C726 H720 0.930 . S
C726 C727 1.367 . S
C726 C734 1.378 . S
C727 C726 1.367 . S
C727 C735 1.433 . S
C728 H724 0.929 . S
C728 C730 1.378 . S
C728 C732 1.350 . S
C729 C732 1.463 . S
C729 C734 1.350 . S
C729 N737 1.427 . S
C730 H721 0.930 . S
C730 C728 1.378 . S
C730 C731 1.367 . S
C731 C730 1.367 . S
C731 C733 1.433 . S
C732 C728 1.350 . S
C732 C729 1.463 . S
C732 N736 1.427 . S
C733 H723 0.929 . S
C733 C731 1.433 . S
C733 N736 1.384 . S
C734 H725 0.929 . S
C734 C726 1.378 . S
C734 C729 1.350 . S
C735 H722 0.929 . S
C735 C727 1.433 . S
C735 N737 1.384 . S
N736 C732 1.427 . S
N736 C733 1.384 . S
N737 C729 1.427 . S
N737 C735 1.384 . S
H738 C744 0.930 . S
H739 C748 0.930 . S
H740 C753 0.929 1_554 S
H741 C751 0.929 . S
H742 C746 0.929 . S
H743 C752 0.929 . S
C744 H738 0.930 . S
C744 C745 1.367 . S
C744 C752 1.378 . S
C745 C744 1.367 . S
C745 C753 1.433 . S
C746 H742 0.929 . S
C746 C748 1.378 . S
C746 C750 1.350 1_545 S
C747 C750 1.463 . S
C747 C752 1.350 . S
C747 N755 1.427 . S
C748 H739 0.930 . S
C748 C746 1.378 . S
C748 C749 1.367 . S
C749 C748 1.367 . S
C749 C751 1.433 1_545 S
C750 C746 1.350 1_565 S
C750 C747 1.463 . S
C750 N754 1.427 . S
C751 H741 0.929 . S
C751 C749 1.433 1_565 S
C751 N754 1.384 . S
C752 H743 0.929 . S
C752 C744 1.378 . S
C752 C747 1.350 . S
C753 H740 0.929 1_556 S
C753 C745 1.433 . S
C753 N755 1.384 . S
N754 C750 1.427 . S
N754 C751 1.384 . S
N755 C747 1.427 . S
N755 C753 1.384 . S
H756 C762 0.930 . S
H757 C766 0.930 . S
H758 C771 0.929 . S
H759 C769 0.929 . S
H760 C764 0.929 . S
H761 C770 0.929 . S
C762 H756 0.930 . S
C762 C763 1.367 . S
C762 C770 1.378 . S
C763 C762 1.367 . S
C763 C771 1.433 . S
C764 H760 0.929 . S
C764 C766 1.378 . S
C764 C768 1.350 . S
C765 C768 1.463 . S
C765 C770 1.350 . S
C765 N773 1.427 . S
C766 H757 0.930 . S
C766 C764 1.378 . S
C766 C767 1.367 . S
C767 C766 1.367 . S
C767 C769 1.433 1_556 S
C768 C764 1.350 . S
C768 C765 1.463 . S
C768 N772 1.427 . S
C769 H759 0.929 . S
C769 C767 1.433 1_554 S
C769 N772 1.384 1_554 S
C770 H761 0.929 . S
C770 C762 1.378 . S
C770 C765 1.350 . S
C771 H758 0.929 . S
C771 C763 1.433 . S
C771 N773 1.384 . S
N772 C768 1.427 . S
N772 C769 1.384 1_556 S
N773 C765 1.427 . S
N773 C771 1.384 . S
H774 C780 0.930 . S
H775 C784 0.930 . S
H776 C789 0.929 . S
H777 C787 0.929 . S
H778 C782 0.929 . S
H779 C788 0.929 . S
C780 H774 0.930 . S
C780 C781 1.367 . S
C780 C788 1.378 . S
C781 C780 1.367 . S
C781 C789 1.433 . S
C782 H778 0.929 . S
C782 C784 1.378 1_556 S
C782 C786 1.350 . S
C783 C786 1.463 . S
C783 C788 1.350 . S
C783 N791 1.427 . S
C784 H775 0.930 . S
C784 C782 1.378 1_554 S
C784 C785 1.367 1_554 S
C785 C784 1.367 1_556 S
C785 C787 1.433 . S
C786 C782 1.350 . S
C786 C783 1.463 . S
C786 N790 1.427 . S
C787 H777 0.929 . S
C787 C785 1.433 . S
C787 N790 1.384 . S
C788 H779 0.929 . S
C788 C780 1.378 . S
C788 C783 1.350 . S
C789 H776 0.929 . S
C789 C781 1.433 . S
C789 N791 1.384 . S
N790 C786 1.427 . S
N790 C787 1.384 . S
N791 C783 1.427 . S
N791 C789 1.384 . S
H792 C798 0.930 . S
H793 C802 0.930 . S
H794 C807 0.929 . S
H795 C805 0.929 . S
H796 C800 0.929 . S
H797 C806 0.929 . S
C798 H792 0.930 . S
C798 C799 1.367 . S
C798 C806 1.378 . S
C799 C798 1.367 . S
C799 C807 1.433 . S
C800 H796 0.929 . S
C800 C802 1.378 1_565 S
C800 C804 1.350 . S
C801 C804 1.463 . S
C801 C806 1.350 . S
C801 N809 1.427 . S
C802 H793 0.930 . S
C802 C800 1.378 1_545 S
C802 C803 1.367 . S
C803 C802 1.367 . S
C803 C805 1.433 . S
C804 C800 1.350 . S
C804 C801 1.463 . S
C804 N808 1.427 1_565 S
C805 H795 0.929 . S
C805 C803 1.433 . S
C805 N808 1.384 . S
C806 H797 0.929 . S
C806 C798 1.378 . S
C806 C801 1.350 . S
C807 H794 0.929 . S
C807 C799 1.433 . S
C807 N809 1.384 . S
N808 C804 1.427 1_545 S
N808 C805 1.384 . S
N809 C801 1.427 . S
N809 C807 1.384 . S
H810 C816 0.930 . S
H811 C820 0.930 . S
H812 C825 0.929 . S
H813 C823 0.929 . S
H814 C818 0.929 . S
H815 C824 0.929 . S
C816 H810 0.930 . S
C816 C817 1.367 . S
C816 C824 1.378 . S
C817 C816 1.367 . S
C817 C825 1.433 . S
C818 H814 0.929 . S
C818 C820 1.378 1_455 S
C818 C822 1.350 . S
C819 C822 1.463 . S
C819 C824 1.350 . S
C819 N827 1.427 . S
C820 H811 0.930 . S
C820 C818 1.378 1_655 S
C820 C821 1.367 . S
C821 C820 1.367 . S
C821 C823 1.433 . S
C822 C818 1.350 . S
C822 C819 1.463 . S
C822 N826 1.427 . S
C823 H813 0.929 . S
C823 C821 1.433 . S
C823 N826 1.384 1_655 S
C824 H815 0.929 . S
C824 C816 1.378 . S
C824 C819 1.350 . S
C825 H812 0.929 . S
C825 C817 1.433 . S
C825 N827 1.384 . S
N826 C822 1.427 . S
N826 C823 1.384 1_455 S
N827 C819 1.427 . S
N827 C825 1.384 . S
H828 C834 0.930 . S
H829 C838 0.930 . S
H830 C843 0.929 . S
H831 C841 0.929 . S
H832 C836 0.929 . S
H833 C842 0.929 . S
C834 H828 0.930 . S
C834 C835 1.367 . S
C834 C842 1.378 . S
C835 C834 1.367 . S
C835 C843 1.433 . S
C836 H832 0.929 . S
C836 C838 1.378 . S
C836 C840 1.350 . S
C837 C840 1.463 . S
C837 C842 1.350 . S
C837 N845 1.427 . S
C838 H829 0.930 . S
C838 C836 1.378 . S
C838 C839 1.367 . S
C839 C838 1.367 . S
C839 C841 1.433 . S
C840 C836 1.350 . S
C840 C837 1.463 . S
C840 N844 1.427 . S
C841 H831 0.929 . S
C841 C839 1.433 . S
C841 N844 1.384 . S
C842 H833 0.929 . S
C842 C834 1.378 . S
C842 C837 1.350 . S
C843 H830 0.929 . S
C843 C835 1.433 . S
C843 N845 1.384 . S
N844 C840 1.427 . S
N844 C841 1.384 . S
N845 C837 1.427 . S
N845 C843 1.384 . S
H846 C852 0.930 . S
H847 C856 0.930 . S
H848 C861 0.929 . S
H849 C859 0.929 . S
H850 C854 0.929 . S
H851 C860 0.929 . S
C852 H846 0.930 . S
C852 C853 1.367 . S
C852 C860 1.378 1_655 S
C853 C852 1.367 . S
C853 C861 1.433 . S
C854 H850 0.929 . S
C854 C856 1.378 . S
C854 C858 1.350 . S
C855 C858 1.463 . S
C855 C860 1.350 . S
C855 N863 1.427 1_455 S
C856 H847 0.930 . S
C856 C854 1.378 . S
C856 C857 1.367 . S
C857 C856 1.367 . S
C857 C859 1.433 . S
C858 C854 1.350 . S
C858 C855 1.463 . S
C858 N862 1.427 . S
C859 H849 0.929 . S
C859 C857 1.433 . S
C859 N862 1.384 . S
C860 H851 0.929 . S
C860 C852 1.378 1_455 S
C860 C855 1.350 . S
C861 H848 0.929 . S
C861 C853 1.433 . S
C861 N863 1.384 . S
N862 C858 1.427 . S
N862 C859 1.384 . S
N863 C855 1.427 1_655 S
N863 C861 1.384 . S
H864 C870 0.930 . S
H865 C874 0.930 . S
H866 C879 0.929 . S
H867 C877 0.929 . S
H868 C872 0.929 . S
H869 C878 0.929 . S
C870 H864 0.930 . S
C870 C871 1.367 . S
C870 C878 1.378 . S
C871 C870 1.367 . S
C871 C879 1.433 . S
C872 H868 0.929 . S
C872 C874 1.378 . S
C872 C876 1.350 . S
C873 C876 1.463 . S
C873 C878 1.350 . S
C873 N881 1.427 . S
C874 H865 0.930 . S
C874 C872 1.378 . S
C874 C875 1.367 . S
C875 C874 1.367 . S
C875 C877 1.433 . S
C876 C872 1.350 . S
C876 C873 1.463 . S
C876 N880 1.427 . S
C877 H867 0.929 . S
C877 C875 1.433 . S
C877 N880 1.384 . S
C878 H869 0.929 . S
C878 C870 1.378 . S
C878 C873 1.350 . S
C879 H866 0.929 . S
C879 C871 1.433 . S
C879 N881 1.384 . S
N880 C876 1.427 . S
N880 C877 1.384 . S
N881 C873 1.427 . S
N881 C879 1.384 . S
H882 C888 0.930 . S
H883 C892 0.930 . S
H884 C897 0.929 . S
H885 C895 0.929 . S
H886 C890 0.929 . S
H887 C896 0.929 1_545 S
C888 H882 0.930 . S
C888 C889 1.367 . S
C888 C896 1.378 . S
C889 C888 1.367 . S
C889 C897 1.433 . S
C890 H886 0.929 . S
C890 C892 1.378 . S
C890 C894 1.350 . S
C891 C894 1.463 . S
C891 C896 1.350 1_545 S
C891 N899 1.427 1_545 S
C892 H883 0.930 . S
C892 C890 1.378 . S
C892 C893 1.367 . S
C893 C892 1.367 . S
C893 C895 1.433 . S
C894 C890 1.350 . S
C894 C891 1.463 . S
C894 N898 1.427 . S
C895 H885 0.929 . S
C895 C893 1.433 . S
C895 N898 1.384 . S
C896 H887 0.929 1_565 S
C896 C888 1.378 . S
C896 C891 1.350 1_565 S
C897 H884 0.929 . S
C897 C889 1.433 . S
C897 N899 1.384 . S
N898 C894 1.427 . S
N898 C895 1.384 . S
N899 C891 1.427 1_565 S
N899 C897 1.384 . S
C259 C50 1.322 . S
C263 C6 1.384 . S
C277 C62 1.510 . S
C281 C20 1.490 . S
C295 C36 1.600 . S
C299 C78 1.575 . S
C313 C34 1.418 . S
C317 C76 1.407 . S
C331 C8 1.353 . S
C335 C48 1.385 . S
C349 C64 1.541 . S
C353 C22 1.485 . S
C367 C134 1.272 . S
C371 C90 1.309 . S
C385 C104 1.394 . S
C389 C146 1.404 . S
C403 C118 1.379 . S
C407 C162 1.338 . S
C421 C160 1.546 . S
C425 C120 1.487 . S
C439 C132 1.429 . S
C443 C92 1.388 . S
C457 C148 1.619 . S
C461 C106 1.595 . S
C475 C174 1.487 . S
C479 C218 1.452 . S
C493 C188 1.440 . S
C497 C230 1.448 . S
C511 C204 1.545 . S
C515 C246 1.516 . S
C529 C244 1.394 . S
C533 C202 1.402 . S
C547 C216 1.374 . S
C551 C176 1.304 . S
C565 C232 1.504 . S
C569 C190 1.485 . S
C583 C9 1.387 . S
C587 C105 1.438 . S
C601 C23 1.413 . S
C605 C119 1.423 . S
C619 C91 1.136 . S
C623 C35 1.138 . S
C637 C37 1.588 . S
C641 C191 1.615 1_554 S
C655 C203 1.051 . S
C659 C7 1.050 . S
C673 C177 1.507 . S
C677 C21 1.484 . S
C691 C231 1.102 . S
C695 C49 1.098 . S
C709 C65 1.526 . S
C713 C247 1.567 . S
C727 C219 1.384 . S
C731 C77 1.416 . S
C745 C149 1.572 1_556 S
C749 C79 1.596 . S
C763 C51 1.255 . S
C767 C161 1.299 1_556 S
C781 C63 1.035 . S
C785 C133 1.031 1_556 S
C799 C93 1.286 . S
C803 C189 1.321 . S
C817 C107 1.554 . S
C821 C205 1.506 . S
C835 C121 1.233 . S
C839 C175 1.255 . S
C853 C233 1.513 . S
C857 C163 1.523 . S
C871 C245 1.410 . S
C875 C135 1.368 . S
C889 C147 1.132 . S
C893 C217 1.132 . S
