# Generated by pormake.
# Topology umg, (4)-cn, num edge types: 1
# Building blocks:
#     Node 0, Type 0, BuildingBlock: GALJAG_clean_sbu_0, # of connection points: 4
#     Node 1, Type 0, BuildingBlock: GALJAG_clean_sbu_0, # of connection points: 4
#     Node 2, Type 0, BuildingBlock: GALJAG_clean_sbu_0, # of connection points: 4
#     Node 3, Type 0, BuildingBlock: GALJAG_clean_sbu_0, # of connection points: 4
#     Node 4, Type 0, BuildingBlock: GALJAG_clean_sbu_0, # of connection points: 4
#     Node 5, Type 0, BuildingBlock: GALJAG_clean_sbu_0, # of connection points: 4
#     Node 6, Type 0, BuildingBlock: GALJAG_clean_sbu_0, # of connection points: 4
#     Node 7, Type 0, BuildingBlock: GALJAG_clean_sbu_0, # of connection points: 4
#     Node 8, Type 0, BuildingBlock: GALJAG_clean_sbu_0, # of connection points: 4
#     Node 9, Type 0, BuildingBlock: GALJAG_clean_sbu_0, # of connection points: 4
#     Node 10, Type 0, BuildingBlock: GALJAG_clean_sbu_0, # of connection points: 4
#     Node 11, Type 0, BuildingBlock: GALJAG_clean_sbu_0, # of connection points: 4
#     Edge 12, Type (0, 0), BuildingBlock: EYOCIG_clean_linker_4, # of connection points: 2
#     Edge 13, Type (0, 0), BuildingBlock: EYOCIG_clean_linker_4, # of connection points: 2
#     Edge 14, Type (0, 0), BuildingBlock: EYOCIG_clean_linker_4, # of connection points: 2
#     Edge 15, Type (0, 0), BuildingBlock: EYOCIG_clean_linker_4, # of connection points: 2
#     Edge 16, Type (0, 0), BuildingBlock: EYOCIG_clean_linker_4, # of connection points: 2
#     Edge 17, Type (0, 0), BuildingBlock: EYOCIG_clean_linker_4, # of connection points: 2
#     Edge 18, Type (0, 0), BuildingBlock: EYOCIG_clean_linker_4, # of connection points: 2
#     Edge 19, Type (0, 0), BuildingBlock: EYOCIG_clean_linker_4, # of connection points: 2
#     Edge 20, Type (0, 0), BuildingBlock: EYOCIG_clean_linker_4, # of connection points: 2
#     Edge 21, Type (0, 0), BuildingBlock: EYOCIG_clean_linker_4, # of connection points: 2
#     Edge 22, Type (0, 0), BuildingBlock: EYOCIG_clean_linker_4, # of connection points: 2
#     Edge 23, Type (0, 0), BuildingBlock: EYOCIG_clean_linker_4, # of connection points: 2
#     Edge 24, Type (0, 0), BuildingBlock: EYOCIG_clean_linker_4, # of connection points: 2
#     Edge 25, Type (0, 0), BuildingBlock: EYOCIG_clean_linker_4, # of connection points: 2
#     Edge 26, Type (0, 0), BuildingBlock: EYOCIG_clean_linker_4, # of connection points: 2
#     Edge 27, Type (0, 0), BuildingBlock: EYOCIG_clean_linker_4, # of connection points: 2
#     Edge 28, Type (0, 0), BuildingBlock: EYOCIG_clean_linker_4, # of connection points: 2
#     Edge 29, Type (0, 0), BuildingBlock: EYOCIG_clean_linker_4, # of connection points: 2
#     Edge 30, Type (0, 0), BuildingBlock: EYOCIG_clean_linker_4, # of connection points: 2
#     Edge 31, Type (0, 0), BuildingBlock: EYOCIG_clean_linker_4, # of connection points: 2
#     Edge 32, Type (0, 0), BuildingBlock: EYOCIG_clean_linker_4, # of connection points: 2
#     Edge 33, Type (0, 0), BuildingBlock: EYOCIG_clean_linker_4, # of connection points: 2
#     Edge 34, Type (0, 0), BuildingBlock: EYOCIG_clean_linker_4, # of connection points: 2
#     Edge 35, Type (0, 0), BuildingBlock: EYOCIG_clean_linker_4, # of connection points: 2
# Relax obj value: 0.078
# Max RMSD: 0.205
# Mean RMSD: 0.205
data_MOF--net-umg--node1-GALJAG_clean_sbu_0--edge1-EYOCIG_clean_linker_4
_symmetry_space_group_name_H-M    P1
_symmetry_Int_Tables_number       1
_symmetry_cell_setting            triclinic
loop_
_symmetry_equiv_pos_as_xyz
'x, y, z'
_cell_length_a     22.901164
_cell_length_b     22.893825
_cell_length_c     68.729867
_cell_angle_alpha  90.001427
_cell_angle_beta   90.00673
_cell_angle_gamma 119.98176
loop_
_atom_site_label
_atom_site_type_symbol
_atom_site_fract_x
_atom_site_fract_y
_atom_site_fract_z
_atom_type_partial_charge
In0 In 0.29507 0.59397 0.07647 0.0
O1 O 0.3408 0.68716 0.05666 0.0
O2 O 0.29205 0.58905 0.04368 0.0
C3 C 0.3189 0.63486 0.11357 0.0
C4 C 0.37956 0.54458 0.07504 0.0
C5 C 0.16102 0.54532 0.07618 0.0
O6 O 0.33878 0.67674 0.09968 0.0
O7 O 0.2872 0.57351 0.10878 0.0
O8 O 0.1856 0.50666 0.07506 0.0
O9 O 0.20341 0.60736 0.07744 0.0
C10 C 0.32331 0.65207 0.04127 0.0
O11 O 0.31622 0.50609 0.0745 0.0
O12 O 0.39967 0.60673 0.07623 0.0
In13 In 0.70001 0.29653 0.40995 0.0
O14 O 0.80892 0.31746 0.40808 0.0
O15 O 0.79187 0.40107 0.40962 0.0
C16 C 0.61437 0.16252 0.40976 0.0
C17 C 0.67038 0.32435 0.37466 0.0
C18 C 0.68308 0.32087 0.44701 0.0
O19 O 0.67755 0.18692 0.40866 0.0
O20 O 0.59487 0.20507 0.41096 0.0
O21 O 0.66119 0.34073 0.43308 0.0
O22 O 0.71253 0.28892 0.44228 0.0
C23 C 0.83383 0.38084 0.40853 0.0
O24 O 0.65275 0.34212 0.38999 0.0
O25 O 0.70206 0.29306 0.37718 0.0
In26 In 0.40027 0.7003 0.74323 0.0
O27 O 0.30747 0.65336 0.72326 0.0
O28 O 0.4058 0.70256 0.71045 0.0
C29 C 0.35914 0.68325 0.7803 0.0
C30 C 0.45003 0.83422 0.74188 0.0
C31 C 0.44841 0.61444 0.74297 0.0
O32 O 0.31734 0.66148 0.76638 0.0
O33 O 0.42049 0.71263 0.77555 0.0
O34 O 0.48725 0.67764 0.7419 0.0
O35 O 0.38642 0.59503 0.74417 0.0
C36 C 0.34285 0.67102 0.70793 0.0
O37 O 0.48837 0.80917 0.74138 0.0
O38 O 0.38785 0.79237 0.74298 0.0
In39 In 0.69854 0.40215 0.07648 0.0
O40 O 0.65301 0.30924 0.05655 0.0
O41 O 0.70186 0.40756 0.04371 0.0
C42 C 0.67444 0.36116 0.11357 0.0
C43 C 0.61406 0.45152 0.07505 0.0
C44 C 0.83254 0.45054 0.07624 0.0
O45 O 0.65456 0.3193 0.09966 0.0
O46 O 0.7063 0.42252 0.1088 0.0
O47 O 0.80808 0.48931 0.07514 0.0
O48 O 0.79006 0.38852 0.07747 0.0
C49 C 0.67066 0.34458 0.04121 0.0
O50 O 0.67741 0.49004 0.07458 0.0
O51 O 0.59394 0.38936 0.07616 0.0
In52 In 0.29494 0.70007 0.40989 0.0
O53 O 0.18591 0.67878 0.40803 0.0
O54 O 0.2033 0.59538 0.40961 0.0
C55 C 0.38044 0.83409 0.4097 0.0
C56 C 0.32438 0.67232 0.37457 0.0
C57 C 0.31209 0.67603 0.44696 0.0
O58 O 0.31723 0.80962 0.40862 0.0
O59 O 0.40002 0.79161 0.41086 0.0
O60 O 0.33406 0.6562 0.43304 0.0
O61 O 0.28244 0.70778 0.44221 0.0
C62 C 0.16119 0.61542 0.40851 0.0
O63 O 0.34217 0.65459 0.38988 0.0
O64 O 0.29266 0.70355 0.37712 0.0
In65 In 0.59255 0.29575 0.74328 0.0
O66 O 0.50486 0.18666 0.74145 0.0
O67 O 0.60558 0.20402 0.74304 0.0
C68 C 0.54349 0.38085 0.74301 0.0
C69 C 0.65008 0.32543 0.70801 0.0
C70 C 0.63402 0.3134 0.78034 0.0
O71 O 0.50499 0.31759 0.74196 0.0
O72 O 0.60557 0.40068 0.74419 0.0
O73 O 0.67567 0.33526 0.76639 0.0
O74 O 0.57262 0.28358 0.77563 0.0
C75 C 0.54346 0.16191 0.74194 0.0
O76 O 0.6854 0.3432 0.72335 0.0
O77 O 0.58713 0.29356 0.7105 0.0
In78 In 0.40128 0.70058 0.57923 0.0
O79 O 0.48916 0.67951 0.58119 0.0
O80 O 0.38855 0.59598 0.57955 0.0
C81 C 0.44983 0.83464 0.57944 0.0
C82 C 0.34347 0.67266 0.61447 0.0
C83 C 0.36039 0.67645 0.54214 0.0
O84 O 0.4885 0.81009 0.58059 0.0
O85 O 0.38782 0.79222 0.5782 0.0
O86 O 0.31851 0.6566 0.55603 0.0
O87 O 0.42171 0.70828 0.54693 0.0
C88 C 0.45069 0.61614 0.5807 0.0
O89 O 0.30826 0.65506 0.59911 0.0
O90 O 0.40645 0.70386 0.61202 0.0
In91 In 0.70027 0.40358 0.91259 0.0
O92 O 0.80924 0.49134 0.9146 0.0
O93 O 0.792 0.39065 0.91289 0.0
C94 C 0.61492 0.45231 0.91286 0.0
C95 C 0.67025 0.34547 0.94779 0.0
C96 C 0.68333 0.36282 0.87547 0.0
O97 O 0.67813 0.49094 0.914 0.0
O98 O 0.59527 0.39027 0.9116 0.0
O99 O 0.66129 0.32089 0.88936 0.0
O100 O 0.71297 0.42415 0.88028 0.0
C101 C 0.83404 0.45277 0.91409 0.0
O102 O 0.65272 0.31038 0.9324 0.0
O103 O 0.70203 0.40849 0.94537 0.0
In104 In 0.29471 0.70083 0.24579 0.0
O105 O 0.31585 0.80986 0.24767 0.0
O106 O 0.3993 0.7926 0.24606 0.0
C107 C 0.16071 0.61537 0.24601 0.0
C108 C 0.32265 0.67125 0.28107 0.0
C109 C 0.31873 0.68362 0.20872 0.0
O110 O 0.18521 0.6786 0.24709 0.0
O111 O 0.20314 0.59575 0.24482 0.0
O112 O 0.33856 0.66168 0.22265 0.0
O113 O 0.28699 0.71328 0.21346 0.0
C114 C 0.3792 0.83466 0.24718 0.0
O115 O 0.3403 0.65355 0.26573 0.0
O116 O 0.29139 0.70297 0.27857 0.0
In117 In 0.59333 0.29729 0.57921 0.0
O118 O 0.68607 0.34275 0.5992 0.0
O119 O 0.5877 0.29377 0.61198 0.0
C120 C 0.6346 0.32142 0.54215 0.0
C121 C 0.54396 0.38178 0.58064 0.0
C122 C 0.54479 0.16325 0.57942 0.0
O123 O 0.67634 0.34126 0.55609 0.0
O124 O 0.57323 0.28963 0.54689 0.0
O125 O 0.50609 0.18778 0.58049 0.0
O126 O 0.60683 0.20567 0.57825 0.0
C127 C 0.65064 0.32499 0.61452 0.0
O128 O 0.50546 0.31841 0.58109 0.0
O129 O 0.60611 0.40192 0.57954 0.0
In130 In 0.29522 0.59507 0.91263 0.0
O131 O 0.18633 0.50715 0.91462 0.0
O132 O 0.20338 0.60779 0.91296 0.0
C133 C 0.381 0.54687 0.91287 0.0
C134 C 0.32499 0.65287 0.94786 0.0
C135 C 0.31169 0.63562 0.87551 0.0
O136 O 0.31783 0.50804 0.91401 0.0
O137 O 0.40041 0.60887 0.9116 0.0
O138 O 0.33375 0.67765 0.88937 0.0
O139 O 0.28233 0.57432 0.88033 0.0
C140 C 0.16143 0.54563 0.91413 0.0
O141 O 0.34253 0.68812 0.93251 0.0
O142 O 0.29334 0.58987 0.9454 0.0
In143 In 0.69839 0.29588 0.24581 0.0
O144 O 0.67719 0.18685 0.24766 0.0
O145 O 0.59377 0.20417 0.24613 0.0
C146 C 0.83235 0.38148 0.246 0.0
C147 C 0.6708 0.32542 0.28114 0.0
C148 C 0.67424 0.31292 0.20875 0.0
O149 O 0.80794 0.31826 0.24708 0.0
O150 O 0.78985 0.40102 0.24482 0.0
O151 O 0.65439 0.33487 0.22266 0.0
O152 O 0.70607 0.28336 0.21349 0.0
C153 C 0.61385 0.16208 0.24721 0.0
O154 O 0.653 0.34316 0.26584 0.0
O155 O 0.70201 0.29367 0.27858 0.0
C156 C 0.34452 0.69274 0.98432 0.0
C157 C 0.33889 0.68106 0.9671 0.0
C158 C 0.34397 0.6925 0.00486 0.0
C159 C 0.33771 0.68047 0.02206 0.0
C160 C 0.6507 0.34454 0.3382 0.0
C161 C 0.65646 0.33849 0.35541 0.0
C162 C 0.65091 0.34493 0.31764 0.0
C163 C 0.65681 0.33928 0.30042 0.0
C164 C 0.3032 0.65179 0.67146 0.0
C165 C 0.31484 0.65732 0.68868 0.0
C166 C 0.30335 0.65229 0.65091 0.0
C167 C 0.31524 0.65842 0.6337 0.0
C168 C 0.65051 0.30485 0.00474 0.0
C169 C 0.6565 0.3165 0.02196 0.0
C170 C 0.65029 0.30508 0.9842 0.0
C171 C 0.65614 0.31708 0.967 0.0
C172 C 0.3431 0.65176 0.31752 0.0
C173 C 0.33693 0.65742 0.30032 0.0
C174 C 0.34365 0.65213 0.33807 0.0
C175 C 0.33811 0.65816 0.3553 0.0
C176 C 0.69003 0.34519 0.67156 0.0
C177 C 0.67819 0.33941 0.68876 0.0
C178 C 0.6902 0.34497 0.65101 0.0
C179 C 0.67859 0.33904 0.63379 0.0
C180 C 0.33549 0.67069 0.17137 0.0
C181 C 0.32977 0.67478 0.18867 0.0
C182 C 0.33551 0.66431 0.15094 0.0
C183 C 0.32984 0.65458 0.13364 0.0
C184 C 0.6705 0.33799 0.48437 0.0
C185 C 0.67443 0.33212 0.46707 0.0
C186 C 0.66423 0.33812 0.50479 0.0
C187 C 0.65449 0.33245 0.5221 0.0
C188 C 0.32977 0.67069 0.81767 0.0
C189 C 0.33935 0.67458 0.80036 0.0
C190 C 0.32376 0.66461 0.83811 0.0
C191 C 0.32006 0.65513 0.85542 0.0
C192 C 0.65749 0.33177 0.15094 0.0
C193 C 0.66328 0.34142 0.13364 0.0
C194 C 0.65743 0.32557 0.17137 0.0
C195 C 0.66314 0.32163 0.18868 0.0
C196 C 0.33107 0.65945 0.50476 0.0
C197 C 0.3407 0.66527 0.52207 0.0
C198 C 0.32484 0.65934 0.48433 0.0
C199 C 0.32087 0.665 0.46702 0.0
C200 C 0.67048 0.33337 0.8381 0.0
C201 C 0.67457 0.34316 0.8554 0.0
C202 C 0.66397 0.32681 0.81768 0.0
C203 C 0.65404 0.32251 0.80038 0.0
C204 C 0.9626 0.4898 0.07601 0.0
C205 C 0.90385 0.47443 0.07606 0.0
C206 C 0.03092 0.50587 0.076 0.0
C207 C 0.08969 0.5213 0.07602 0.0
C208 C 0.52351 0.03247 0.40958 0.0
C209 C 0.56691 0.09121 0.4096 0.0
C210 C 0.4712 0.96417 0.40956 0.0
C211 C 0.42782 0.90542 0.40957 0.0
C212 C 0.50369 0.47128 0.74279 0.0
C213 C 0.51925 0.42802 0.74283 0.0
C214 C 0.48755 0.5235 0.74279 0.0
C215 C 0.47219 0.5669 0.74282 0.0
C216 C 0.50539 0.03312 0.5796 0.0
C217 C 0.52082 0.0919 0.57957 0.0
C218 C 0.48927 0.96477 0.57961 0.0
C219 C 0.47382 0.90599 0.5796 0.0
C220 C 0.47196 0.50779 0.91308 0.0
C221 C 0.42852 0.52308 0.91303 0.0
C222 C 0.52426 0.49178 0.91307 0.0
C223 C 0.56762 0.47637 0.91304 0.0
C224 C 0.03065 0.52463 0.24617 0.0
C225 C 0.08939 0.56801 0.24615 0.0
C226 C 0.96237 0.47233 0.24616 0.0
C227 C 0.90365 0.42892 0.24614 0.0
C228 C 0.52326 0.49054 0.07426 0.0
C229 C 0.567 0.47574 0.07457 0.0
C230 C 0.47035 0.50555 0.07426 0.0
C231 C 0.42662 0.52036 0.07456 0.0
C232 C 0.96361 0.47154 0.40776 0.0
C233 C 0.90509 0.42782 0.40806 0.0
C234 C 0.03148 0.52448 0.40776 0.0
C235 C 0.08997 0.56827 0.40805 0.0
C236 C 0.50455 0.0321 0.74119 0.0
C237 C 0.51937 0.09065 0.74148 0.0
C238 C 0.48943 0.96414 0.74118 0.0
C239 C 0.47446 0.90555 0.74145 0.0
C240 C 0.4898 0.5254 0.58146 0.0
C241 C 0.47495 0.56911 0.58117 0.0
C242 C 0.50488 0.47253 0.58144 0.0
C243 C 0.51973 0.42883 0.58112 0.0
C244 C 0.03165 0.50659 0.91494 0.0
C245 C 0.09017 0.52138 0.91463 0.0
C246 C 0.96378 0.49164 0.91493 0.0
C247 C 0.90527 0.4769 0.9146 0.0
C248 C 0.47003 0.96444 0.24795 0.0
C249 C 0.42627 0.90592 0.24765 0.0
C250 C 0.52297 0.03232 0.24795 0.0
C251 C 0.56675 0.09083 0.24766 0.0
loop_
_geom_bond_atom_site_label_1
_geom_bond_atom_site_label_2
_geom_bond_distance
_geom_bond_site_symmetry_2
_ccdc_geom_bond_type
In0 O1 2.294 . S
In0 O2 2.326 . S
In0 O6 2.266 . S
In0 O7 2.326 . S
In0 O8 2.266 . S
In0 O9 2.326 . S
In0 O11 2.294 . S
In0 O12 2.326 . S
O1 In0 2.294 . S
O1 C10 1.240 . S
O2 In0 2.326 . S
O2 C10 1.252 . S
C3 O6 1.252 . S
C3 O7 1.260 . S
C4 O11 1.240 . S
C4 O12 1.252 . S
C5 O8 1.252 . S
C5 O9 1.260 . S
O6 In0 2.266 . S
O6 C3 1.252 . S
O7 In0 2.326 . S
O7 C3 1.260 . S
O8 In0 2.266 . S
O8 C5 1.252 . S
O9 In0 2.326 . S
O9 C5 1.260 . S
C10 O1 1.240 . S
C10 O2 1.252 . S
O11 In0 2.294 . S
O11 C4 1.240 . S
O12 In0 2.326 . S
O12 C4 1.252 . S
In13 O14 2.294 . S
In13 O15 2.326 . S
In13 O19 2.266 . S
In13 O20 2.326 . S
In13 O21 2.266 . S
In13 O22 2.326 . S
In13 O24 2.294 . S
In13 O25 2.326 . S
O14 In13 2.294 . S
O14 C23 1.240 . S
O15 In13 2.326 . S
O15 C23 1.252 . S
C16 O19 1.252 . S
C16 O20 1.260 . S
C17 O24 1.240 . S
C17 O25 1.252 . S
C18 O21 1.252 . S
C18 O22 1.260 . S
O19 In13 2.266 . S
O19 C16 1.252 . S
O20 In13 2.326 . S
O20 C16 1.260 . S
O21 In13 2.266 . S
O21 C18 1.252 . S
O22 In13 2.326 . S
O22 C18 1.260 . S
C23 O14 1.240 . S
C23 O15 1.252 . S
O24 In13 2.294 . S
O24 C17 1.240 . S
O25 In13 2.326 . S
O25 C17 1.252 . S
In26 O27 2.294 . S
In26 O28 2.326 . S
In26 O32 2.266 . S
In26 O33 2.326 . S
In26 O34 2.266 . S
In26 O35 2.326 . S
In26 O37 2.294 . S
In26 O38 2.326 . S
O27 In26 2.294 . S
O27 C36 1.240 . S
O28 In26 2.326 . S
O28 C36 1.252 . S
C29 O32 1.252 . S
C29 O33 1.260 . S
C30 O37 1.240 . S
C30 O38 1.252 . S
C31 O34 1.252 . S
C31 O35 1.260 . S
O32 In26 2.266 . S
O32 C29 1.252 . S
O33 In26 2.326 . S
O33 C29 1.260 . S
O34 In26 2.266 . S
O34 C31 1.252 . S
O35 In26 2.326 . S
O35 C31 1.260 . S
C36 O27 1.240 . S
C36 O28 1.252 . S
O37 In26 2.294 . S
O37 C30 1.240 . S
O38 In26 2.326 . S
O38 C30 1.252 . S
In39 O40 2.294 . S
In39 O41 2.326 . S
In39 O45 2.266 . S
In39 O46 2.326 . S
In39 O47 2.266 . S
In39 O48 2.326 . S
In39 O50 2.294 . S
In39 O51 2.326 . S
O40 In39 2.294 . S
O40 C49 1.240 . S
O41 In39 2.326 . S
O41 C49 1.252 . S
C42 O45 1.252 . S
C42 O46 1.260 . S
C43 O50 1.240 . S
C43 O51 1.252 . S
C44 O47 1.252 . S
C44 O48 1.260 . S
O45 In39 2.266 . S
O45 C42 1.252 . S
O46 In39 2.326 . S
O46 C42 1.260 . S
O47 In39 2.266 . S
O47 C44 1.252 . S
O48 In39 2.326 . S
O48 C44 1.260 . S
C49 O40 1.240 . S
C49 O41 1.252 . S
O50 In39 2.294 . S
O50 C43 1.240 . S
O51 In39 2.326 . S
O51 C43 1.252 . S
In52 O53 2.294 . S
In52 O54 2.326 . S
In52 O58 2.266 . S
In52 O59 2.326 . S
In52 O60 2.266 . S
In52 O61 2.326 . S
In52 O63 2.294 . S
In52 O64 2.326 . S
O53 In52 2.294 . S
O53 C62 1.240 . S
O54 In52 2.326 . S
O54 C62 1.252 . S
C55 O58 1.252 . S
C55 O59 1.260 . S
C56 O63 1.240 . S
C56 O64 1.252 . S
C57 O60 1.252 . S
C57 O61 1.260 . S
O58 In52 2.266 . S
O58 C55 1.252 . S
O59 In52 2.326 . S
O59 C55 1.260 . S
O60 In52 2.266 . S
O60 C57 1.252 . S
O61 In52 2.326 . S
O61 C57 1.260 . S
C62 O53 1.240 . S
C62 O54 1.252 . S
O63 In52 2.294 . S
O63 C56 1.240 . S
O64 In52 2.326 . S
O64 C56 1.252 . S
In65 O66 2.294 . S
In65 O67 2.326 . S
In65 O71 2.266 . S
In65 O72 2.326 . S
In65 O73 2.266 . S
In65 O74 2.326 . S
In65 O76 2.294 . S
In65 O77 2.326 . S
O66 In65 2.294 . S
O66 C75 1.240 . S
O67 In65 2.326 . S
O67 C75 1.252 . S
C68 O71 1.252 . S
C68 O72 1.260 . S
C69 O76 1.240 . S
C69 O77 1.252 . S
C70 O73 1.252 . S
C70 O74 1.260 . S
O71 In65 2.266 . S
O71 C68 1.252 . S
O72 In65 2.326 . S
O72 C68 1.260 . S
O73 In65 2.266 . S
O73 C70 1.252 . S
O74 In65 2.326 . S
O74 C70 1.260 . S
C75 O66 1.240 . S
C75 O67 1.252 . S
O76 In65 2.294 . S
O76 C69 1.240 . S
O77 In65 2.326 . S
O77 C69 1.252 . S
In78 O79 2.294 . S
In78 O80 2.326 . S
In78 O84 2.266 . S
In78 O85 2.326 . S
In78 O86 2.266 . S
In78 O87 2.326 . S
In78 O89 2.294 . S
In78 O90 2.326 . S
O79 In78 2.294 . S
O79 C88 1.240 . S
O80 In78 2.326 . S
O80 C88 1.252 . S
C81 O84 1.252 . S
C81 O85 1.260 . S
C82 O89 1.240 . S
C82 O90 1.252 . S
C83 O86 1.252 . S
C83 O87 1.260 . S
O84 In78 2.266 . S
O84 C81 1.252 . S
O85 In78 2.326 . S
O85 C81 1.260 . S
O86 In78 2.266 . S
O86 C83 1.252 . S
O87 In78 2.326 . S
O87 C83 1.260 . S
C88 O79 1.240 . S
C88 O80 1.252 . S
O89 In78 2.294 . S
O89 C82 1.240 . S
O90 In78 2.326 . S
O90 C82 1.252 . S
In91 O92 2.294 . S
In91 O93 2.326 . S
In91 O97 2.266 . S
In91 O98 2.326 . S
In91 O99 2.266 . S
In91 O100 2.326 . S
In91 O102 2.294 . S
In91 O103 2.326 . S
O92 In91 2.294 . S
O92 C101 1.240 . S
O93 In91 2.326 . S
O93 C101 1.252 . S
C94 O97 1.252 . S
C94 O98 1.260 . S
C95 O102 1.240 . S
C95 O103 1.252 . S
C96 O99 1.252 . S
C96 O100 1.260 . S
O97 In91 2.266 . S
O97 C94 1.252 . S
O98 In91 2.326 . S
O98 C94 1.260 . S
O99 In91 2.266 . S
O99 C96 1.252 . S
O100 In91 2.326 . S
O100 C96 1.260 . S
C101 O92 1.240 . S
C101 O93 1.252 . S
O102 In91 2.294 . S
O102 C95 1.240 . S
O103 In91 2.326 . S
O103 C95 1.252 . S
In104 O105 2.294 . S
In104 O106 2.326 . S
In104 O110 2.266 . S
In104 O111 2.326 . S
In104 O112 2.266 . S
In104 O113 2.326 . S
In104 O115 2.294 . S
In104 O116 2.326 . S
O105 In104 2.294 . S
O105 C114 1.240 . S
O106 In104 2.326 . S
O106 C114 1.252 . S
C107 O110 1.252 . S
C107 O111 1.260 . S
C108 O115 1.240 . S
C108 O116 1.252 . S
C109 O112 1.252 . S
C109 O113 1.260 . S
O110 In104 2.266 . S
O110 C107 1.252 . S
O111 In104 2.326 . S
O111 C107 1.260 . S
O112 In104 2.266 . S
O112 C109 1.252 . S
O113 In104 2.326 . S
O113 C109 1.260 . S
C114 O105 1.240 . S
C114 O106 1.252 . S
O115 In104 2.294 . S
O115 C108 1.240 . S
O116 In104 2.326 . S
O116 C108 1.252 . S
In117 O118 2.294 . S
In117 O119 2.326 . S
In117 O123 2.266 . S
In117 O124 2.326 . S
In117 O125 2.266 . S
In117 O126 2.326 . S
In117 O128 2.294 . S
In117 O129 2.326 . S
O118 In117 2.294 . S
O118 C127 1.240 . S
O119 In117 2.326 . S
O119 C127 1.252 . S
C120 O123 1.252 . S
C120 O124 1.260 . S
C121 O128 1.240 . S
C121 O129 1.252 . S
C122 O125 1.252 . S
C122 O126 1.260 . S
O123 In117 2.266 . S
O123 C120 1.252 . S
O124 In117 2.326 . S
O124 C120 1.260 . S
O125 In117 2.266 . S
O125 C122 1.252 . S
O126 In117 2.326 . S
O126 C122 1.260 . S
C127 O118 1.240 . S
C127 O119 1.252 . S
O128 In117 2.294 . S
O128 C121 1.240 . S
O129 In117 2.326 . S
O129 C121 1.252 . S
In130 O131 2.294 . S
In130 O132 2.326 . S
In130 O136 2.266 . S
In130 O137 2.326 . S
In130 O138 2.266 . S
In130 O139 2.326 . S
In130 O141 2.294 . S
In130 O142 2.326 . S
O131 In130 2.294 . S
O131 C140 1.240 . S
O132 In130 2.326 . S
O132 C140 1.252 . S
C133 O136 1.252 . S
C133 O137 1.260 . S
C134 O141 1.240 . S
C134 O142 1.252 . S
C135 O138 1.252 . S
C135 O139 1.260 . S
O136 In130 2.266 . S
O136 C133 1.252 . S
O137 In130 2.326 . S
O137 C133 1.260 . S
O138 In130 2.266 . S
O138 C135 1.252 . S
O139 In130 2.326 . S
O139 C135 1.260 . S
C140 O131 1.240 . S
C140 O132 1.252 . S
O141 In130 2.294 . S
O141 C134 1.240 . S
O142 In130 2.326 . S
O142 C134 1.252 . S
In143 O144 2.294 . S
In143 O145 2.326 . S
In143 O149 2.266 . S
In143 O150 2.326 . S
In143 O151 2.266 . S
In143 O152 2.326 . S
In143 O154 2.294 . S
In143 O155 2.326 . S
O144 In143 2.294 . S
O144 C153 1.240 . S
O145 In143 2.326 . S
O145 C153 1.252 . S
C146 O149 1.252 . S
C146 O150 1.260 . S
C147 O154 1.240 . S
C147 O155 1.252 . S
C148 O151 1.252 . S
C148 O152 1.260 . S
O149 In143 2.266 . S
O149 C146 1.252 . S
O150 In143 2.326 . S
O150 C146 1.260 . S
O151 In143 2.266 . S
O151 C148 1.252 . S
O152 In143 2.326 . S
O152 C148 1.260 . S
C153 O144 1.240 . S
C153 O145 1.252 . S
O154 In143 2.294 . S
O154 C147 1.240 . S
O155 In143 2.326 . S
O155 C147 1.252 . S
C156 C157 1.170 . S
C156 C158 1.380 1_556 S
C157 C156 1.170 . S
C158 C156 1.380 1_554 S
C158 C159 1.170 . S
C159 C158 1.170 . S
C160 C161 1.170 . S
C160 C162 1.380 . S
C161 C160 1.170 . S
C162 C160 1.380 . S
C162 C163 1.170 . S
C163 C162 1.170 . S
C164 C165 1.170 . S
C164 C166 1.380 . S
C165 C164 1.170 . S
C166 C164 1.380 . S
C166 C167 1.170 . S
C167 C166 1.170 . S
C168 C169 1.170 . S
C168 C170 1.380 1_554 S
C169 C168 1.170 . S
C170 C168 1.380 1_556 S
C170 C171 1.170 . S
C171 C170 1.170 . S
C172 C173 1.170 . S
C172 C174 1.380 . S
C173 C172 1.170 . S
C174 C172 1.380 . S
C174 C175 1.170 . S
C175 C174 1.170 . S
C176 C177 1.170 . S
C176 C178 1.380 . S
C177 C176 1.170 . S
C178 C176 1.380 . S
C178 C179 1.170 . S
C179 C178 1.170 . S
C180 C181 1.170 . S
C180 C182 1.380 . S
C181 C180 1.170 . S
C182 C180 1.380 . S
C182 C183 1.170 . S
C183 C182 1.170 . S
C184 C185 1.170 . S
C184 C186 1.380 . S
C185 C184 1.170 . S
C186 C184 1.380 . S
C186 C187 1.170 . S
C187 C186 1.170 . S
C188 C189 1.170 . S
C188 C190 1.380 . S
C189 C188 1.170 . S
C190 C188 1.380 . S
C190 C191 1.170 . S
C191 C190 1.170 . S
C192 C193 1.170 . S
C192 C194 1.380 . S
C193 C192 1.170 . S
C194 C192 1.380 . S
C194 C195 1.170 . S
C195 C194 1.170 . S
C196 C197 1.170 . S
C196 C198 1.380 . S
C197 C196 1.170 . S
C198 C196 1.380 . S
C198 C199 1.170 . S
C199 C198 1.170 . S
C200 C201 1.170 . S
C200 C202 1.380 . S
C201 C200 1.170 . S
C202 C200 1.380 . S
C202 C203 1.170 . S
C203 C202 1.170 . S
C204 C205 1.170 . S
C204 C206 1.380 1_655 S
C205 C204 1.170 . S
C206 C204 1.380 1_455 S
C206 C207 1.170 . S
C207 C206 1.170 . S
C208 C209 1.170 . S
C208 C210 1.380 1_545 S
C209 C208 1.170 . S
C210 C208 1.380 1_565 S
C210 C211 1.170 . S
C211 C210 1.170 . S
C212 C213 1.170 . S
C212 C214 1.380 . S
C213 C212 1.170 . S
C214 C212 1.380 . S
C214 C215 1.170 . S
C215 C214 1.170 . S
C216 C217 1.170 . S
C216 C218 1.380 1_545 S
C217 C216 1.170 . S
C218 C216 1.380 1_565 S
C218 C219 1.170 . S
C219 C218 1.170 . S
C220 C221 1.170 . S
C220 C222 1.380 . S
C221 C220 1.170 . S
C222 C220 1.380 . S
C222 C223 1.170 . S
C223 C222 1.170 . S
C224 C225 1.170 . S
C224 C226 1.380 1_455 S
C225 C224 1.170 . S
C226 C224 1.380 1_655 S
C226 C227 1.170 . S
C227 C226 1.170 . S
C228 C229 1.170 . S
C228 C230 1.380 . S
C229 C228 1.170 . S
C230 C228 1.380 . S
C230 C231 1.170 . S
C231 C230 1.170 . S
C232 C233 1.170 . S
C232 C234 1.380 1_655 S
C233 C232 1.170 . S
C234 C232 1.380 1_455 S
C234 C235 1.170 . S
C235 C234 1.170 . S
C236 C237 1.170 . S
C236 C238 1.380 1_545 S
C237 C236 1.170 . S
C238 C236 1.380 1_565 S
C238 C239 1.170 . S
C239 C238 1.170 . S
C240 C241 1.170 . S
C240 C242 1.380 . S
C241 C240 1.170 . S
C242 C240 1.380 . S
C242 C243 1.170 . S
C243 C242 1.170 . S
C244 C245 1.170 . S
C244 C246 1.380 1_455 S
C245 C244 1.170 . S
C246 C244 1.380 1_655 S
C246 C247 1.170 . S
C247 C246 1.170 . S
C248 C249 1.170 . S
C248 C250 1.380 1_565 S
C249 C248 1.170 . S
C250 C248 1.380 1_545 S
C250 C251 1.170 . S
C251 C250 1.170 . S
C157 C134 1.404 . S
C159 C10 1.408 . S
C161 C17 1.386 . S
C163 C147 1.385 . S
C165 C36 1.410 . S
C167 C82 1.408 . S
C169 C49 1.385 . S
C171 C95 1.385 . S
C173 C108 1.385 . S
C175 C56 1.387 . S
C177 C69 1.387 . S
C179 C127 1.391 . S
C181 C109 1.393 . S
C183 C3 1.422 . S
C185 C18 1.423 . S
C187 C120 1.432 . S
C189 C29 1.438 . S
C191 C135 1.401 . S
C193 C42 1.425 . S
C195 C148 1.430 . S
C197 C83 1.427 . S
C199 C57 1.392 . S
C201 C96 1.394 . S
C203 C70 1.419 . S
C205 C44 1.290 . S
C207 C5 1.301 . S
C209 C16 1.299 . S
C211 C55 1.290 . S
C213 C68 1.304 . S
C215 C31 1.286 . S
C217 C122 1.296 . S
C219 C81 1.294 . S
C221 C133 1.285 . S
C223 C94 1.305 . S
C225 C107 1.303 . S
C227 C146 1.286 . S
C229 C43 1.589 . S
C231 C4 1.603 . S
C233 C23 1.596 . S
C235 C62 1.586 . S
C237 C75 1.596 . S
C239 C30 1.600 . S
C241 C88 1.596 . S
C243 C121 1.586 . S
C245 C140 1.587 . S
C247 C101 1.595 . S
C249 C114 1.600 . S
C251 C153 1.585 . S
