# Generated by pormake.
# Topology umz, (4)-cn, num edge types: 1
# Building blocks:
#     Node 0, Type 0, BuildingBlock: QUQFOY_clean_sbu_1, # of connection points: 4
#     Node 1, Type 0, BuildingBlock: QUQFOY_clean_sbu_1, # of connection points: 4
#     Node 2, Type 0, BuildingBlock: QUQFOY_clean_sbu_1, # of connection points: 4
#     Node 3, Type 0, BuildingBlock: QUQFOY_clean_sbu_1, # of connection points: 4
#     Node 4, Type 0, BuildingBlock: QUQFOY_clean_sbu_1, # of connection points: 4
#     Node 5, Type 0, BuildingBlock: QUQFOY_clean_sbu_1, # of connection points: 4
#     Node 6, Type 0, BuildingBlock: QUQFOY_clean_sbu_1, # of connection points: 4
#     Node 7, Type 0, BuildingBlock: QUQFOY_clean_sbu_1, # of connection points: 4
#     Node 8, Type 0, BuildingBlock: QUQFOY_clean_sbu_1, # of connection points: 4
#     Node 9, Type 0, BuildingBlock: QUQFOY_clean_sbu_1, # of connection points: 4
#     Node 10, Type 0, BuildingBlock: QUQFOY_clean_sbu_1, # of connection points: 4
#     Node 11, Type 0, BuildingBlock: QUQFOY_clean_sbu_1, # of connection points: 4
#     Node 12, Type 0, BuildingBlock: QUQFOY_clean_sbu_1, # of connection points: 4
#     Node 13, Type 0, BuildingBlock: QUQFOY_clean_sbu_1, # of connection points: 4
#     Node 14, Type 0, BuildingBlock: QUQFOY_clean_sbu_1, # of connection points: 4
#     Node 15, Type 0, BuildingBlock: QUQFOY_clean_sbu_1, # of connection points: 4
#     Edge 16, Type (0, 0), BuildingBlock: TEMPAE_clean_linker_10, # of connection points: 2
#     Edge 17, Type (0, 0), BuildingBlock: TEMPAE_clean_linker_10, # of connection points: 2
#     Edge 18, Type (0, 0), BuildingBlock: TEMPAE_clean_linker_10, # of connection points: 2
#     Edge 19, Type (0, 0), BuildingBlock: TEMPAE_clean_linker_10, # of connection points: 2
#     Edge 20, Type (0, 0), BuildingBlock: TEMPAE_clean_linker_10, # of connection points: 2
#     Edge 21, Type (0, 0), BuildingBlock: TEMPAE_clean_linker_10, # of connection points: 2
#     Edge 22, Type (0, 0), BuildingBlock: TEMPAE_clean_linker_10, # of connection points: 2
#     Edge 23, Type (0, 0), BuildingBlock: TEMPAE_clean_linker_10, # of connection points: 2
#     Edge 24, Type (0, 0), BuildingBlock: TEMPAE_clean_linker_10, # of connection points: 2
#     Edge 25, Type (0, 0), BuildingBlock: TEMPAE_clean_linker_10, # of connection points: 2
#     Edge 26, Type (0, 0), BuildingBlock: TEMPAE_clean_linker_10, # of connection points: 2
#     Edge 27, Type (0, 0), BuildingBlock: TEMPAE_clean_linker_10, # of connection points: 2
#     Edge 28, Type (0, 0), BuildingBlock: TEMPAE_clean_linker_10, # of connection points: 2
#     Edge 29, Type (0, 0), BuildingBlock: TEMPAE_clean_linker_10, # of connection points: 2
#     Edge 30, Type (0, 0), BuildingBlock: TEMPAE_clean_linker_10, # of connection points: 2
#     Edge 31, Type (0, 0), BuildingBlock: TEMPAE_clean_linker_10, # of connection points: 2
#     Edge 32, Type (0, 0), BuildingBlock: TEMPAE_clean_linker_10, # of connection points: 2
#     Edge 33, Type (0, 0), BuildingBlock: TEMPAE_clean_linker_10, # of connection points: 2
#     Edge 34, Type (0, 0), BuildingBlock: TEMPAE_clean_linker_10, # of connection points: 2
#     Edge 35, Type (0, 0), BuildingBlock: TEMPAE_clean_linker_10, # of connection points: 2
#     Edge 36, Type (0, 0), BuildingBlock: TEMPAE_clean_linker_10, # of connection points: 2
#     Edge 37, Type (0, 0), BuildingBlock: TEMPAE_clean_linker_10, # of connection points: 2
#     Edge 38, Type (0, 0), BuildingBlock: TEMPAE_clean_linker_10, # of connection points: 2
#     Edge 39, Type (0, 0), BuildingBlock: TEMPAE_clean_linker_10, # of connection points: 2
#     Edge 40, Type (0, 0), BuildingBlock: TEMPAE_clean_linker_10, # of connection points: 2
#     Edge 41, Type (0, 0), BuildingBlock: TEMPAE_clean_linker_10, # of connection points: 2
#     Edge 42, Type (0, 0), BuildingBlock: TEMPAE_clean_linker_10, # of connection points: 2
#     Edge 43, Type (0, 0), BuildingBlock: TEMPAE_clean_linker_10, # of connection points: 2
#     Edge 44, Type (0, 0), BuildingBlock: TEMPAE_clean_linker_10, # of connection points: 2
#     Edge 45, Type (0, 0), BuildingBlock: TEMPAE_clean_linker_10, # of connection points: 2
#     Edge 46, Type (0, 0), BuildingBlock: TEMPAE_clean_linker_10, # of connection points: 2
#     Edge 47, Type (0, 0), BuildingBlock: TEMPAE_clean_linker_10, # of connection points: 2
# Relax obj value: 0.237
# Max RMSD: 0.190
# Mean RMSD: 0.190
data_MOF--net-umz--node1-QUQFOY_clean_sbu_1--edge1-TEMPAE_clean_linker_10
_symmetry_space_group_name_H-M    P1
_symmetry_Int_Tables_number       1
_symmetry_cell_setting            triclinic
loop_
_symmetry_equiv_pos_as_xyz
'x, y, z'
_cell_length_a     65.851885
_cell_length_b     65.844114
_cell_length_c     22.038184
_cell_angle_alpha  90.035991
_cell_angle_beta   89.989111
_cell_angle_gamma 89.996825
loop_
_atom_site_label
_atom_site_type_symbol
_atom_site_fract_x
_atom_site_fract_y
_atom_site_fract_z
_atom_type_partial_charge
O0 O 0.04965 0.63485 0.04082 0.0
Cd1 Cd 0.04076 0.65271 0.11214 0.0
Cd2 Cd 0.01577 0.62078 0.13906 0.0
O3 O 0.0276 0.6103 0.058 0.0
O4 O 0.04872 0.68093 0.09126 0.0
O5 O 0.01666 0.67105 0.09987 0.0
C6 C 0.02964 0.68517 0.08731 0.0
C7 C 0.98262 0.61061 0.16377 0.0
C8 C 0.04196 0.61781 0.02669 0.0
C9 C 0.05003 0.63065 0.22608 0.0
O10 O 0.03518 0.6193 0.21195 0.0
O11 O 0.05467 0.64584 0.19339 0.0
O12 O 0.99724 0.59785 0.15794 0.0
O13 O 0.98652 0.62953 0.15405 0.0
O14 O 0.86332 0.05043 0.57016 0.0
Cd15 Cd 0.85174 0.03155 0.63612 0.0
Cd16 Cd 0.88305 0.0116 0.60704 0.0
O17 O 0.88076 0.02634 0.52473 0.0
O18 O 0.82211 0.03677 0.64124 0.0
O19 O 0.83525 0.00796 0.60656 0.0
C20 C 0.81947 0.01917 0.61653 0.0
C21 C 0.8915 0.97765 0.62297 0.0
C22 C 0.87392 0.04441 0.52544 0.0
C23 C 0.88433 0.03616 0.72052 0.0
O24 O 0.89433 0.02955 0.67542 0.0
O25 O 0.86506 0.03508 0.72013 0.0
O26 O 0.9042 0.99025 0.59916 0.0
O27 O 0.87315 0.98389 0.63234 0.0
O28 O 0.44901 0.85902 0.06345 0.0
Cd29 Cd 0.46804 0.84769 0.12933 0.0
Cd30 Cd 0.48919 0.87767 0.0956 0.0
O31 O 0.4737 0.87448 0.01483 0.0
O32 O 0.46359 0.81791 0.13462 0.0
O33 O 0.4919 0.83183 0.09911 0.0
C34 C 0.48113 0.81574 0.10902 0.0
C35 C 0.52348 0.8858 0.10549 0.0
C36 C 0.45534 0.86853 0.01702 0.0
C37 C 0.4657 0.88143 0.21093 0.0
O38 O 0.47247 0.89057 0.16441 0.0
O39 O 0.46565 0.86212 0.21224 0.0
O40 O 0.51074 0.89824 0.08124 0.0
O41 O 0.51709 0.86783 0.11925 0.0
O42 O 0.63764 0.45324 0.56245 0.0
Cd43 Cd 0.64966 0.47156 0.6292 0.0
Cd44 Cd 0.61823 0.49165 0.60212 0.0
O45 O 0.62013 0.47757 0.51861 0.0
O46 O 0.67917 0.46557 0.63267 0.0
O47 O 0.66665 0.49502 0.60123 0.0
C48 C 0.68219 0.48332 0.60939 0.0
C49 C 0.60993 0.52541 0.62196 0.0
C50 C 0.6269 0.45947 0.51835 0.0
C51 C 0.61733 0.4662 0.71376 0.0
O52 O 0.60724 0.47303 0.66918 0.0
O53 O 0.63659 0.46746 0.71337 0.0
O54 O 0.59711 0.51312 0.59724 0.0
O55 O 0.62831 0.51903 0.62989 0.0
O56 O 0.04948 0.86441 0.93488 0.0
Cd57 Cd 0.03194 0.85196 0.86696 0.0
Cd58 Cd 0.0111 0.88296 0.89288 0.0
O59 O 0.02433 0.88113 0.97746 0.0
O60 O 0.03857 0.82259 0.86317 0.0
O61 O 0.00869 0.83443 0.89348 0.0
C62 C 0.02075 0.81916 0.88537 0.0
C63 C 0.97743 0.89122 0.87143 0.0
C64 C 0.04262 0.87491 0.97871 0.0
C65 C 0.03763 0.8844 0.78352 0.0
O66 O 0.0303 0.89432 0.82778 0.0
O67 O 0.03646 0.86514 0.78319 0.0
O68 O 0.98955 0.90402 0.89697 0.0
O69 O 0.98392 0.8729 0.86317 0.0
O70 O 0.63431 0.04418 0.46379 0.0
Cd71 Cd 0.65234 0.03628 0.39178 0.0
Cd72 Cd 0.61923 0.0124 0.36078 0.0
O73 O 0.60895 0.02337 0.44326 0.0
O74 O 0.68024 0.04486 0.41451 0.0
O75 O 0.67151 0.01264 0.40184 0.0
C76 C 0.68515 0.02592 0.41618 0.0
C77 C 0.60803 0.98012 0.32996 0.0
C78 C 0.61698 0.03692 0.47666 0.0
C79 C 0.63072 0.0476 0.27856 0.0
O80 O 0.61889 0.03292 0.29059 0.0
O81 O 0.64588 0.05143 0.31225 0.0
O82 O 0.59575 0.99506 0.33772 0.0
O83 O 0.62698 0.98314 0.34169 0.0
O84 O 0.45284 0.63863 0.93861 0.0
Cd85 Cd 0.47101 0.6511 0.87234 0.0
Cd86 Cd 0.49134 0.61966 0.89801 0.0
O87 O 0.47735 0.62115 0.9817 0.0
O88 O 0.46508 0.68064 0.87091 0.0
O89 O 0.49459 0.66785 0.90078 0.0
C90 C 0.48289 0.68347 0.89395 0.0
C91 C 0.52501 0.61099 0.87795 0.0
C92 C 0.45919 0.62775 0.98225 0.0
C93 C 0.46563 0.61918 0.78661 0.0
O94 O 0.47264 0.60897 0.83071 0.0
O95 O 0.46678 0.63845 0.7876 0.0
O96 O 0.51255 0.59825 0.90221 0.0
O97 O 0.51887 0.62948 0.87059 0.0
O98 O 0.86081 0.44874 0.42843 0.0
Cd99 Cd 0.84545 0.46511 0.36438 0.0
Cd100 Cd 0.87666 0.48976 0.37459 0.0
O101 O 0.88031 0.47434 0.45585 0.0
O102 O 0.81612 0.45893 0.37299 0.0
O103 O 0.82937 0.48923 0.39239 0.0
C104 C 0.81374 0.47733 0.39208 0.0
C105 C 0.88662 0.52378 0.36663 0.0
C106 C 0.87398 0.4563 0.46382 0.0
C107 C 0.87324 0.463 0.26293 0.0
O108 O 0.8844 0.47383 0.29705 0.0
O109 O 0.85504 0.45907 0.27783 0.0
O110 O 0.89935 0.50957 0.37893 0.0
O111 O 0.86768 0.51896 0.36216 0.0
O112 O 0.94867 0.37071 0.9314 0.0
Cd113 Cd 0.96322 0.35329 0.86782 0.0
Cd114 Cd 0.98737 0.38591 0.86273 0.0
O115 O 0.97389 0.39225 0.94578 0.0
O116 O 0.95463 0.32481 0.88198 0.0
O117 O 0.98634 0.33536 0.89424 0.0
C118 C 0.9731 0.3209 0.8974 0.0
C119 C 0.02081 0.39608 0.84234 0.0
C120 C 0.95647 0.38545 0.96022 0.0
C121 C 0.95781 0.37786 0.75982 0.0
O122 O 0.96921 0.39034 0.78753 0.0
O123 O 0.95477 0.36021 0.78099 0.0
O124 O 0.00661 0.40896 0.85356 0.0
O125 O 0.01641 0.37703 0.84645 0.0
O126 O 0.13665 0.9511 0.4527 0.0
Cd127 Cd 0.15283 0.96111 0.37922 0.0
Cd128 Cd 0.12181 0.98735 0.36294 0.0
O129 O 0.11281 0.97442 0.44387 0.0
O130 O 0.1815 0.95294 0.39174 0.0
O131 O 0.17131 0.98507 0.39126 0.0
C132 C 0.18574 0.97195 0.39804 0.0
C133 C 0.11258 0.02134 0.3472 0.0
C134 C 0.12029 0.95918 0.47126 0.0
C135 C 0.12775 0.95439 0.2693 0.0
O136 O 0.11732 0.9694 0.28768 0.0
O137 O 0.14355 0.94884 0.29786 0.0
O138 O 0.09935 0.00719 0.35379 0.0
O139 O 0.13151 0.01645 0.35061 0.0
O140 O 0.55677 0.13853 0.94215 0.0
Cd141 Cd 0.53791 0.14925 0.87485 0.0
Cd142 Cd 0.51676 0.1196 0.91021 0.0
O143 O 0.53194 0.12347 0.99126 0.0
O144 O 0.54292 0.17882 0.86569 0.0
O145 O 0.51445 0.16596 0.90363 0.0
C146 C 0.5255 0.18168 0.89138 0.0
C147 C 0.48237 0.11237 0.8984 0.0
C148 C 0.5503 0.12945 0.98918 0.0
C149 C 0.54027 0.1147 0.79594 0.0
O150 O 0.53365 0.1059 0.84319 0.0
O151 O 0.54018 0.13399 0.79325 0.0
O152 O 0.49453 0.09979 0.92466 0.0
O153 O 0.48939 0.13004 0.88383 0.0
O154 O 0.36655 0.55281 0.45514 0.0
Cd155 Cd 0.34945 0.54265 0.38378 0.0
Cd156 Cd 0.3809 0.51688 0.36333 0.0
O157 O 0.39092 0.53021 0.44268 0.0
O158 O 0.32092 0.55037 0.40121 0.0
O159 O 0.33147 0.51841 0.3975 0.0
C160 C 0.31701 0.53128 0.40737 0.0
C161 C 0.39105 0.48319 0.34624 0.0
C162 C 0.38341 0.54521 0.47125 0.0
C163 C 0.37266 0.54969 0.27048 0.0
O164 O 0.38352 0.53479 0.28736 0.0
O165 O 0.35732 0.55516 0.30138 0.0
O166 O 0.40385 0.49782 0.35053 0.0
O167 O 0.37205 0.48741 0.35284 0.0
O168 O 0.94887 0.13664 0.05052 0.0
Cd169 Cd 0.95807 0.15408 0.12245 0.0
Cd170 Cd 0.98425 0.12296 0.14613 0.0
O171 O 0.97119 0.1123 0.06715 0.0
O172 O 0.94972 0.18242 0.10501 0.0
O173 O 0.98193 0.17269 0.11026 0.0
C174 C 0.96874 0.18685 0.10025 0.0
C175 C 0.01787 0.11263 0.16369 0.0
C176 C 0.95657 0.11961 0.03651 0.0
C177 C 0.95084 0.13138 0.23689 0.0
O178 O 0.9662 0.12086 0.22201 0.0
O179 O 0.94509 0.14617 0.20415 0.0
O180 O 0.00309 0.09997 0.16069 0.0
O181 O 0.01383 0.13161 0.15585 0.0
O182 O 0.37202 0.95311 0.54351 0.0
Cd183 Cd 0.3541 0.96203 0.61473 0.0
Cd184 Cd 0.38744 0.98565 0.64397 0.0
O185 O 0.39772 0.97367 0.56274 0.0
O186 O 0.32614 0.95327 0.59364 0.0
O187 O 0.33502 0.98561 0.60208 0.0
C188 C 0.32129 0.97218 0.58997 0.0
C189 C 0.39864 0.0182 0.67209 0.0
C190 C 0.38952 0.95993 0.53038 0.0
C191 C 0.3755 0.95152 0.72913 0.0
O192 O 0.38758 0.96588 0.716 0.0
O193 O 0.36031 0.94765 0.69561 0.0
O194 O 0.41091 0.00318 0.66575 0.0
O195 O 0.3797 0.0151 0.66024 0.0
O196 O 0.55266 0.36612 0.04442 0.0
Cd197 Cd 0.54317 0.34873 0.11592 0.0
Cd198 Cd 0.51681 0.37985 0.13776 0.0
O199 O 0.52964 0.39004 0.05789 0.0
O200 O 0.5515 0.32041 0.09788 0.0
O201 O 0.51932 0.3302 0.10256 0.0
C202 C 0.53249 0.31606 0.09212 0.0
C203 C 0.48321 0.39004 0.1562 0.0
C204 C 0.54465 0.38283 0.0287 0.0
C205 C 0.55019 0.37198 0.2293 0.0
O206 O 0.53504 0.38259 0.21305 0.0
O207 O 0.55584 0.35678 0.19803 0.0
O208 O 0.49783 0.40282 0.15136 0.0
O209 O 0.48738 0.37104 0.1495 0.0
O210 O 0.13959 0.55354 0.56141 0.0
Cd211 Cd 0.15079 0.53455 0.62772 0.0
Cd212 Cd 0.12049 0.51401 0.59463 0.0
O213 O 0.12373 0.52902 0.51307 0.0
O214 O 0.18035 0.53982 0.63528 0.0
O215 O 0.16755 0.51119 0.59823 0.0
C216 C 0.18322 0.52239 0.60971 0.0
C217 C 0.11278 0.47981 0.60842 0.0
C218 C 0.12994 0.54731 0.51508 0.0
C219 C 0.11708 0.5378 0.70886 0.0
O220 O 0.10778 0.53138 0.6622 0.0
O221 O 0.13637 0.53712 0.71049 0.0
O222 O 0.10014 0.4921 0.58294 0.0
O223 O 0.13074 0.48655 0.62085 0.0
C224 C 0.03566 0.72216 0.07398 0.0
C225 C 0.0232 0.70523 0.06452 0.0
C226 C 0.03157 0.74072 0.04542 0.0
C227 C 0.01491 0.74224 0.00502 0.0
C228 C 0.00173 0.72542 -0.00271 0.0
C229 C 0.00592 0.70713 0.02778 0.0
C230 C 0.04571 0.75842 0.05624 0.0
C231 C 0.98402 0.72632 0.95396 0.0
C232 C 0.00267 0.79633 0.95794 0.0
C233 C 0.01555 0.79865 0.90772 0.0
C234 C 0.00125 0.77761 0.98833 0.0
C235 C 0.01268 0.76082 0.96711 0.0
C236 C 0.02426 0.7627 0.91322 0.0
C237 C 0.02575 0.78166 0.88461 0.0
C238 C 0.98889 0.77631 0.04585 0.0
C239 C 0.03626 0.74505 0.8881 0.0
H240 H 0.04895 0.72074 0.10272 0.0
H241 H 0.99636 0.69398 0.02001 0.0
H242 H 0.05451 0.76158 0.01437 0.0
H243 H 0.0369 0.77231 0.06726 0.0
H244 H 0.05657 0.75544 0.09376 0.0
H245 H 0.97372 0.71308 0.95921 0.0
H246 H 0.97515 0.74046 0.96077 0.0
H247 H 0.98979 0.72651 0.90666 0.0
H248 H 0.99484 0.80947 0.97618 0.0
H249 H 0.03558 0.78338 0.84548 0.0
H250 H 0.99928 0.77599 0.08547 0.0
H251 H 0.97982 0.76212 0.0469 0.0
H252 H 0.97848 0.78948 0.05099 0.0
H253 H 0.04938 0.74187 0.91821 0.0
H254 H 0.0421 0.74816 0.84174 0.0
H255 H 0.02675 0.73114 0.88663 0.0
C256 C 0.72182 0.03327 0.43108 0.0
C257 C 0.70546 0.0199 0.43815 0.0
C258 C 0.74054 0.02943 0.45902 0.0
C259 C 0.7428 0.01206 0.4963 0.0
C260 C 0.72659 0.99802 0.50146 0.0
C261 C 0.70811 0.00201 0.47169 0.0
C262 C 0.75759 0.04454 0.45097 0.0
C263 C 0.7283 0.97948 0.54137 0.0
C264 C 0.79743 0.00143 0.54109 0.0
C265 C 0.7992 0.0134 0.5935 0.0
C266 C 0.77876 0.99972 0.51056 0.0
C267 C 0.76148 0.00989 0.53383 0.0
C268 C 0.76287 0.02044 0.58971 0.0
C269 C 0.78178 0.02228 0.61847 0.0
C270 C 0.77799 0.9885 0.45087 0.0
C271 C 0.7447 0.03105 0.61698 0.0
H272 H 0.71983 0.04703 0.40475 0.0
H273 H 0.6954 0.99174 0.47756 0.0
H274 H 0.76038 0.05258 0.49444 0.0
H275 H 0.77185 0.0366 0.43836 0.0
H276 H 0.75412 0.05603 0.41557 0.0
H277 H 0.71552 0.96874 0.53413 0.0
H278 H 0.74281 0.97141 0.53294 0.0
H279 H 0.72827 0.98426 0.58967 0.0
H280 H 0.8109 0.99463 0.52143 0.0
H281 H 0.78308 0.03141 0.65926 0.0
H282 H 0.77725 0.99966 0.41322 0.0
H283 H 0.7642 0.97888 0.44798 0.0
H284 H 0.79159 0.97878 0.44399 0.0
H285 H 0.74089 0.04462 0.5894 0.0
H286 H 0.74757 0.03605 0.66436 0.0
H287 H 0.73125 0.0209 0.6166 0.0
C288 C 0.50231 0.79425 0.03973 0.0
C289 C 0.48738 0.79567 0.085 0.0
C290 C 0.50544 0.77602 0.00783 0.0
C291 C 0.49345 0.7588 0.02196 0.0
C292 C 0.47947 0.75976 0.07074 0.0
C293 C 0.47654 0.77819 0.10146 0.0
C294 C 0.52053 0.77562 0.9563 0.0
C295 C 0.46661 0.74167 0.08799 0.0
C296 C 0.47697 0.72076 0.90286 0.0
C297 C 0.48853 0.70366 0.91833 0.0
C298 C 0.4794 0.73922 0.9338 0.0
C299 C 0.49362 0.74057 0.98187 0.0
C300 C 0.50627 0.72376 0.99509 0.0
C301 C 0.50364 0.70549 0.96292 0.0
C302 C 0.46583 0.75688 0.91747 0.0
C303 C 0.52162 0.7246 0.04586 0.0
H304 H 0.51074 0.8077 0.02668 0.0
H305 H 0.4651 0.77912 0.13673 0.0
H306 H 0.52984 0.76159 0.95785 0.0
H307 H 0.51223 0.77561 0.91248 0.0
H308 H 0.53081 0.78899 0.95721 0.0
H309 H 0.45811 0.74422 0.13086 0.0
H310 H 0.45551 0.7385 0.05129 0.0
H311 H 0.47622 0.72795 0.09331 0.0
H312 H 0.46539 0.71951 0.86809 0.0
H313 H 0.51261 0.69232 0.97523 0.0
H314 H 0.47496 0.77091 0.91155 0.0
H315 H 0.45491 0.75969 0.95491 0.0
H316 H 0.4571 0.75407 0.87516 0.0
H317 H 0.53047 0.73892 0.04394 0.0
H318 H 0.53231 0.71155 0.04434 0.0
H319 H 0.51357 0.72432 0.09009 0.0
C320 C 0.70451 0.50298 0.53876 0.0
C321 C 0.70251 0.48877 0.58583 0.0
C322 C 0.7229 0.50497 0.50686 0.0
C323 C 0.73967 0.49264 0.52302 0.0
C324 C 0.73818 0.47957 0.57384 0.0
C325 C 0.71959 0.47769 0.60433 0.0
C326 C 0.72385 0.51909 0.45302 0.0
C327 C 0.75581 0.46645 0.59341 0.0
C328 C 0.77651 0.47239 0.40581 0.0
C329 C 0.79403 0.48374 0.41806 0.0
C330 C 0.75836 0.47603 0.43721 0.0
C331 C 0.75777 0.49124 0.48269 0.0
C332 C 0.77509 0.50352 0.49297 0.0
C333 C 0.79303 0.49969 0.4602 0.0
C334 C 0.74013 0.46283 0.42397 0.0
C335 C 0.77509 0.51982 0.54113 0.0
H336 H 0.69135 0.51157 0.52413 0.0
H337 H 0.71818 0.46683 0.64106 0.0
H338 H 0.73825 0.52782 0.45296 0.0
H339 H 0.72342 0.51002 0.41059 0.0
H340 H 0.71091 0.52992 0.45241 0.0
H341 H 0.75304 0.45907 0.63797 0.0
H342 H 0.75843 0.4544 0.55905 0.0
H343 H 0.76992 0.4756 0.59652 0.0
H344 H 0.77715 0.46016 0.37289 0.0
H345 H 0.80655 0.50848 0.47003 0.0
H346 H 0.72646 0.47235 0.4166 0.0
H347 H 0.73704 0.45286 0.4635 0.0
H348 H 0.74245 0.45308 0.38339 0.0
H349 H 0.76114 0.52921 0.53814 0.0
H350 H 0.78856 0.52991 0.53749 0.0
H351 H 0.77521 0.51261 0.58662 0.0
C352 C 0.99227 0.29884 0.96971 0.0
C353 C 0.97828 0.30074 0.92212 0.0
C354 C 0.9944 0.28035 0.00104 0.0
C355 C 0.9826 0.26338 0.98319 0.0
C356 C 0.96965 0.2649 0.93208 0.0
C357 C 0.96743 0.28365 0.90276 0.0
C358 C 0.00813 0.27944 0.05578 0.0
C359 C 0.9572 0.24704 0.91044 0.0
C360 C 0.99136 0.20955 0.03962 0.0
C361 C 0.97484 0.2072 0.07913 0.0
C362 C 0.99483 0.22814 0.01 0.0
C363 C 0.98174 0.24478 0.02148 0.0
C364 C 0.96605 0.24284 0.06509 0.0
C365 C 0.9626 0.22398 0.09266 0.0
C366 C 0.0115 0.22948 0.9632 0.0
C367 C 0.95209 0.26035 0.07998 0.0
H368 H 1.00057 0.31211 0.98497 0.0
H369 H 0.95673 0.28508 0.8656 0.0
H370 H 0.99872 0.27907 0.09754 0.0
H371 H 0.01743 0.2654 0.05522 0.0
H372 H 0.01842 0.29279 0.05835 0.0
H373 H 0.94994 0.24999 0.86581 0.0
H374 H 0.96685 0.23329 0.90652 0.0
H375 H 0.94509 0.2437 0.94398 0.0
H376 H 0.00074 0.19651 0.02879 0.0
H377 H 0.94992 0.2222 0.12361 0.0
H378 H 0.02023 0.24378 0.96844 0.0
H379 H 0.00465 0.22962 0.91719 0.0
H380 H 0.02215 0.21643 0.96609 0.0
H381 H 0.961 0.27435 0.08868 0.0
H382 H 0.94246 0.25717 0.12028 0.0
H383 H 0.94198 0.26341 0.04075 0.0
C384 C 0.29846 0.99355 0.52599 0.0
C385 C 0.3009 0.97791 0.56843 0.0
C386 C 0.27975 0.99643 0.49637 0.0
C387 C 0.26312 0.98369 0.511 0.0
C388 C 0.26521 0.96894 0.55737 0.0
C389 C 0.28418 0.966 0.58474 0.0
C390 C 0.27827 0.01203 0.44646 0.0
C391 C 0.24771 0.95544 0.57573 0.0
C392 C 0.20868 0.99327 0.46175 0.0
C393 C 0.20622 0.97804 0.4179 0.0
C394 C 0.22751 0.99617 0.49056 0.0
C395 C 0.24427 0.9839 0.47375 0.0
C396 C 0.24218 0.96974 0.42572 0.0
C397 C 0.22309 0.96674 0.39912 0.0
C398 C 0.22899 0.01117 0.54218 0.0
C399 C 0.2598 0.95678 0.40506 0.0
H400 H 0.31149 0.00263 0.513 0.0
H401 H 0.28609 0.95398 0.61789 0.0
H402 H 0.27792 0.00418 0.40191 0.0
H403 H 0.26402 0.02092 0.45046 0.0
H404 H 0.29136 0.02267 0.44681 0.0
H405 H 0.25107 0.94667 0.61759 0.0
H406 H 0.23382 0.96463 0.58347 0.0
H407 H 0.24436 0.94455 0.53864 0.0
H408 H 0.19556 0.00189 0.47664 0.0
H409 H 0.22119 0.95506 0.36488 0.0
H410 H 0.24315 0.02022 0.53894 0.0
H411 H 0.22949 0.00276 0.58579 0.0
H412 H 0.2158 0.02169 0.54329 0.0
H413 H 0.27359 0.96622 0.39868 0.0
H414 H 0.25646 0.94872 0.3619 0.0
H415 H 0.26329 0.94527 0.44032 0.0
C416 C 0.50735 0.20425 0.9646 0.0
C417 C 0.51985 0.20212 0.91343 0.0
C418 C 0.50566 0.22299 0.99471 0.0
C419 C 0.51645 0.24002 0.97235 0.0
C420 C 0.52758 0.23833 0.91756 0.0
C421 C 0.52933 0.21934 0.88913 0.0
C422 C 0.49375 0.2241 0.05313 0.0
C423 C 0.53888 0.25623 0.89129 0.0
C424 C 0.50892 0.29357 0.03361 0.0
C425 C 0.52639 0.29586 0.06937 0.0
C426 C 0.50495 0.27519 0.00327 0.0
C427 C 0.51858 0.2587 0.00998 0.0
C428 C 0.53549 0.26059 0.0493 0.0
C429 C 0.53931 0.27921 0.07791 0.0
C430 C 0.48691 0.27386 0.96125 0.0
C431 C 0.55014 0.24323 0.05895 0.0
H432 H 0.50005 0.19096 0.98375 0.0
H433 H 0.53886 0.21781 0.84927 0.0
H434 H 0.50446 0.2247 0.09196 0.0
H435 H 0.48438 0.23809 0.05477 0.0
H436 H 0.48368 0.21071 0.05913 0.0
H437 H 0.54437 0.25319 0.84449 0.0
H438 H 0.52902 0.26989 0.89048 0.0
H439 H 0.5522 0.25979 0.92026 0.0
H440 H 0.49899 0.30648 0.02656 0.0
H441 H 0.55274 0.2809 0.10591 0.0
H442 H 0.47843 0.25952 0.96873 0.0
H443 H 0.49229 0.27377 0.91353 0.0
H444 H 0.47635 0.28686 0.96725 0.0
H445 H 0.54177 0.22917 0.07087 0.0
H446 H 0.56131 0.24651 0.09544 0.0
H447 H 0.55858 0.24022 0.01631 0.0
C448 C 0.29491 0.50716 0.46518 0.0
C449 C 0.29691 0.52478 0.42995 0.0
C450 C 0.27661 0.50282 0.49548 0.0
C451 C 0.25993 0.51624 0.48934 0.0
C452 C 0.26153 0.53329 0.45046 0.0
C453 C 0.28006 0.53746 0.4218 0.0
C454 C 0.27557 0.48461 0.53693 0.0
C455 C 0.24398 0.54775 0.44145 0.0
C456 C 0.2057 0.50449 0.53567 0.0
C457 C 0.20363 0.51687 0.58713 0.0
C458 C 0.22438 0.50298 0.50515 0.0
C459 C 0.24139 0.51383 0.52737 0.0
C460 C 0.23977 0.52481 0.58246 0.0
C461 C 0.22085 0.52638 0.61132 0.0
C462 C 0.22542 0.4912 0.44646 0.0
C463 C 0.25766 0.53619 0.60859 0.0
H464 H 0.30796 0.49739 0.47188 0.0
H465 H 0.28153 0.551 0.39417 0.0
H466 H 0.27562 0.48983 0.58482 0.0
H467 H 0.26128 0.47604 0.52962 0.0
H468 H 0.28864 0.47418 0.53015 0.0
H469 H 0.24703 0.55905 0.40518 0.0
H470 H 0.22999 0.53923 0.4296 0.0
H471 H 0.24095 0.55605 0.48435 0.0
H472 H 0.1924 0.49716 0.51664 0.0
H473 H 0.21936 0.53581 0.65142 0.0
H474 H 0.23951 0.482 0.44419 0.0
H475 H 0.22575 0.502 0.40783 0.0
H476 H 0.21213 0.48099 0.44067 0.0
H477 H 0.27139 0.52642 0.60887 0.0
H478 H 0.2547 0.54154 0.65558 0.0
H479 H 0.26104 0.5496 0.57983 0.0
C480 C 0.06401 0.61501 0.93481 0.0
C481 C 0.05122 0.60573 0.97742 0.0
C482 C 0.07443 0.60343 0.89141 0.0
C483 C 0.07227 0.58204 0.89138 0.0
C484 C 0.05921 0.57259 0.93381 0.0
C485 C 0.04869 0.58457 0.976 0.0
C486 C 0.0879 0.61407 0.84595 0.0
C487 C 0.05673 0.54979 0.93552 0.0
C488 C 0.08533 0.55398 0.74661 0.0
C489 C 0.10539 0.54779 0.75775 0.0
C490 C 0.07434 0.56498 0.78993 0.0
C491 C 0.08349 0.5696 0.84628 0.0
C492 C 0.10349 0.56286 0.85871 0.0
C493 C 0.11431 0.55218 0.81397 0.0
C494 C 0.05316 0.57217 0.77465 0.0
C495 C 0.11355 0.56721 0.91888 0.0
H496 H 0.06599 0.63136 0.93567 0.0
H497 H 0.039 0.57727 0.00926 0.0
H498 H 0.10383 0.60892 0.8515 0.0
H499 H 0.08315 0.61008 0.79912 0.0
H500 H 0.08744 0.63085 0.85096 0.0
H501 H 0.046 0.54482 0.97148 0.0
H502 H 0.0511 0.5442 0.89112 0.0
H503 H 0.07167 0.54249 0.94369 0.0
H504 H 0.07835 0.55077 0.70311 0.0
H505 H 0.12977 0.54737 0.82287 0.0
H506 H 0.05263 0.58902 0.77571 0.0
H507 H 0.04219 0.5666 0.809 0.0
H508 H 0.04811 0.56696 0.72915 0.0
H509 H 0.11543 0.58384 0.92478 0.0
H510 H 0.12871 0.5599 0.9227 0.0
H511 H 0.10382 0.56175 0.95661 0.0
C512 C 0.94646 0.11318 0.33488 0.0
C513 C 0.93783 0.12395 0.28658 0.0
C514 C 0.93425 0.10223 0.37541 0.0
C515 C 0.91297 0.10159 0.36621 0.0
C516 C 0.90409 0.1133 0.31935 0.0
C517 C 0.91665 0.12458 0.28046 0.0
C518 C 0.94424 0.09048 0.4261 0.0
C519 C 0.88151 0.11275 0.3075 0.0
C520 C 0.88926 0.05292 0.42471 0.0
C521 C 0.88102 0.05934 0.48007 0.0
C522 C 0.8987 0.06681 0.38549 0.0
C523 C 0.90037 0.08747 0.40291 0.0
C524 C 0.89136 0.09417 0.4576 0.0
C525 C 0.88158 0.08006 0.49519 0.0
C526 C 0.90764 0.0592 0.32663 0.0
C527 C 0.89315 0.11597 0.47831 0.0
H528 H 0.96284 0.11272 0.33964 0.0
H529 H 0.90996 0.13268 0.24258 0.0
H530 H 0.9364 0.09347 0.46977 0.0
H531 H 0.94304 0.07396 0.41683 0.0
H532 H 0.96056 0.09441 0.4312 0.0
H533 H 0.87676 0.12437 0.27385 0.0
H534 H 0.87726 0.09754 0.28988 0.0
H535 H 0.87289 0.11519 0.35011 0.0
H536 H 0.88876 0.03696 0.41271 0.0
H537 H 0.87537 0.08512 0.53818 0.0
H538 H 0.92446 0.05995 0.32891 0.0
H539 H 0.90273 0.06899 0.28836 0.0
H540 H 0.90315 0.04328 0.31672 0.0
H541 H 0.90922 0.11931 0.48976 0.0
H542 H 0.88365 0.11915 0.51887 0.0
H543 H 0.88866 0.12651 0.44146 0.0
C544 C 0.42002 0.87743 0.98629 0.0
C545 C 0.44065 0.87566 0.97107 0.0
C546 C 0.40645 0.88783 0.94837 0.0
C547 C 0.41363 0.89627 0.89344 0.0
C548 C 0.43408 0.89314 0.87564 0.0
C549 C 0.44742 0.88306 0.91504 0.0
C550 C 0.38486 0.89107 0.96932 0.0
C551 C 0.44217 0.90146 0.81656 0.0
C552 C 0.37851 0.91657 0.77123 0.0
C553 C 0.38124 0.93755 0.7784 0.0
C554 C 0.38827 0.90277 0.81008 0.0
C555 C 0.40059 0.91025 0.85772 0.0
C556 C 0.40196 0.93144 0.86806 0.0
C557 C 0.39247 0.94485 0.82774 0.0
C558 C 0.38663 0.88031 0.79722 0.0
C559 C 0.41446 0.94001 0.9195 0.0
H560 H 0.41468 0.87182 0.0297 0.0
H561 H 0.4633 0.88158 0.90289 0.0
H562 H 0.38284 0.90717 0.98297 0.0
H563 H 0.37398 0.888 0.932 0.0
H564 H 0.38092 0.88128 0.00863 0.0
H565 H 0.4576 0.89561 0.80603 0.0
H566 H 0.43184 0.89748 0.77858 0.0
H567 H 0.44291 0.91827 0.81913 0.0
H568 H 0.37001 0.91091 0.73263 0.0
H569 H 0.3945 0.96109 0.83338 0.0
H570 H 0.38379 0.87169 0.83959 0.0
H571 H 0.40121 0.8748 0.77809 0.0
H572 H 0.37433 0.87686 0.7643 0.0
H573 H 0.41069 0.93221 0.96268 0.0
H574 H 0.41203 0.95658 0.9255 0.0
H575 H 0.43082 0.93737 0.91035 0.0
C576 C 0.58428 0.37934 0.27271 0.0
C577 C 0.56309 0.37973 0.2788 0.0
C578 C 0.59669 0.39089 0.31138 0.0
C579 C 0.58766 0.40259 0.35805 0.0
C580 C 0.56638 0.40177 0.36712 0.0
C581 C 0.55431 0.39059 0.32674 0.0
C582 C 0.61926 0.39165 0.29962 0.0
C583 C 0.55624 0.4135 0.41764 0.0
C584 C 0.61898 0.42394 0.48749 0.0
C585 C 0.61958 0.44469 0.4728 0.0
C586 C 0.60915 0.40991 0.44971 0.0
C587 C 0.60015 0.41671 0.39517 0.0
C588 C 0.60179 0.43742 0.37824 0.0
C589 C 0.61125 0.45124 0.41772 0.0
C590 C 0.60736 0.38808 0.47001 0.0
C591 C 0.59285 0.44512 0.31953 0.0
H592 H 0.59106 0.3712 0.23502 0.0
H593 H 0.53792 0.39089 0.33138 0.0
H594 H 0.62342 0.40696 0.28265 0.0
H595 H 0.62787 0.3891 0.34217 0.0
H596 H 0.62413 0.3802 0.26554 0.0
H597 H 0.53993 0.40951 0.42249 0.0
H598 H 0.56401 0.41055 0.46143 0.0
H599 H 0.55739 0.43002 0.40843 0.0
H600 H 0.62524 0.41878 0.53029 0.0
H601 H 0.61176 0.46722 0.40607 0.0
H602 H 0.61209 0.37762 0.43318 0.0
H603 H 0.59125 0.38464 0.48068 0.0
H604 H 0.61668 0.38487 0.51092 0.0
H605 H 0.59781 0.43543 0.28106 0.0
H606 H 0.5973 0.46108 0.31 0.0
H607 H 0.57604 0.44432 0.32172 0.0
C608 C 0.12086 0.92037 0.22466 0.0
C609 C 0.11942 0.94157 0.22046 0.0
C610 C 0.10948 0.90777 0.18615 0.0
C611 C 0.09686 0.91663 0.14143 0.0
C612 C 0.09638 0.93801 0.13458 0.0
C613 C 0.10742 0.95025 0.17488 0.0
C614 C 0.11005 0.88507 0.19568 0.0
C615 C 0.08363 0.94801 0.08611 0.0
C616 C 0.07746 0.8852 0.00955 0.0
C617 C 0.05687 0.88291 0.02463 0.0
C618 C 0.0908 0.89575 0.04779 0.0
C619 C 0.0835 0.90369 0.10325 0.0
C620 C 0.06301 0.90039 0.12043 0.0
C621 C 0.04983 0.89029 0.08039 0.0
C622 C 0.11237 0.8994 0.02714 0.0
C623 C 0.05484 0.90813 0.18012 0.0
H624 H 0.12987 0.91364 0.26059 0.0
H625 H 0.1063 0.96664 0.17171 0.0
H626 H 0.09494 0.87977 0.21137 0.0
H627 H 0.11336 0.87714 0.15239 0.0
H628 H 0.1216 0.88051 0.22979 0.0
H629 H 0.08643 0.96462 0.08319 0.0
H630 H 0.08684 0.94109 0.04119 0.0
H631 H 0.0673 0.94555 0.09596 0.0
H632 H 0.08296 0.87973 0.96614 0.0
H633 H 0.03395 0.8885 0.09222 0.0
H634 H 0.12327 0.89473 0.06283 0.0
H635 H 0.11467 0.91588 0.01908 0.0
H636 H 0.11603 0.89107 0.98467 0.0
H637 H 0.06496 0.90348 0.21789 0.0
H638 H 0.03927 0.90245 0.1895 0.0
H639 H 0.05444 0.92497 0.17959 0.0
C640 C 0.55464 0.111 0.69107 0.0
C641 C 0.54966 0.10239 0.74727 0.0
C642 C 0.56477 0.09957 0.64654 0.0
C643 C 0.57031 0.0792 0.65906 0.0
C644 C 0.56503 0.07035 0.7153 0.0
C645 C 0.55463 0.08199 0.75848 0.0
C646 C 0.56987 0.10938 0.58654 0.0
C647 C 0.57093 0.04878 0.73066 0.0
C648 C 0.58397 0.04431 0.52807 0.0
C649 C 0.60521 0.04596 0.52704 0.0
C650 C 0.57239 0.05501 0.57092 0.0
C651 C 0.58232 0.06736 0.61429 0.0
C652 C 0.60379 0.06848 0.6149 0.0
C653 C 0.61497 0.05789 0.57095 0.0
C654 C 0.54951 0.0536 0.56859 0.0
C655 C 0.61493 0.08117 0.66131 0.0
H656 H 0.55077 0.12671 0.68205 0.0
H657 H 0.55094 0.07522 0.80193 0.0
H658 H 0.5866 0.11035 0.58122 0.0
H659 H 0.56403 0.09996 0.5486 0.0
H660 H 0.56342 0.12491 0.58252 0.0
H661 H 0.56514 0.04398 0.77577 0.0
H662 H 0.565 0.03817 0.69581 0.0
H663 H 0.58772 0.04733 0.73061 0.0
H664 H 0.57632 0.03527 0.4939 0.0
H665 H 0.63138 0.05917 0.57048 0.0
H666 H 0.54298 0.06884 0.55967 0.0
H667 H 0.54349 0.04843 0.61298 0.0
H668 H 0.54415 0.04299 0.5328 0.0
H669 H 0.6108 0.09739 0.6558 0.0
H670 H 0.63169 0.07971 0.65721 0.0
H671 H 0.61038 0.07658 0.7078 0.0
C672 C 0.37942 0.58377 0.2263 0.0
C673 C 0.38026 0.56257 0.22078 0.0
C674 C 0.3908 0.5963 0.18761 0.0
C675 C 0.40281 0.58737 0.14147 0.0
C676 C 0.40245 0.56605 0.13292 0.0
C677 C 0.39142 0.55387 0.17335 0.0
C678 C 0.39108 0.61892 0.19882 0.0
C679 C 0.41452 0.556 0.08293 0.0
C680 C 0.42381 0.61894 0.01214 0.0
C681 C 0.44449 0.62005 0.0274 0.0
C682 C 0.40992 0.60881 0.04961 0.0
C683 C 0.41677 0.60004 0.10443 0.0
C684 C 0.43739 0.60217 0.12186 0.0
C685 C 0.45109 0.61191 0.08265 0.0
C686 C 0.3882 0.60647 0.02873 0.0
C687 C 0.44513 0.5935 0.18089 0.0
H688 H 0.37104 0.5905 0.26361 0.0
H689 H 0.39207 0.53748 0.16914 0.0
H690 H 0.40627 0.62344 0.21593 0.0
H691 H 0.38843 0.62735 0.15601 0.0
H692 H 0.37947 0.62365 0.23258 0.0
H693 H 0.41084 0.53961 0.07834 0.0
H694 H 0.41155 0.5636 0.03889 0.0
H695 H 0.43098 0.55749 0.09255 0.0
H696 H 0.41863 0.62504 0.96916 0.0
H697 H 0.46703 0.61281 0.09469 0.0
H698 H 0.37752 0.61109 0.06513 0.0
H699 H 0.38514 0.59025 0.01845 0.0
H700 H 0.38491 0.61557 0.98747 0.0
H701 H 0.43525 0.59834 0.21905 0.0
H702 H 0.46097 0.59829 0.1907 0.0
H703 H 0.44466 0.57667 0.17898 0.0
C704 C 0.92449 0.38211 0.7094 0.0
C705 C 0.94551 0.38532 0.70897 0.0
C706 C 0.9118 0.39262 0.66912 0.0
C707 C 0.9205 0.40602 0.62618 0.0
C708 C 0.94187 0.40825 0.62308 0.0
C709 C 0.95412 0.39819 0.66554 0.0
C710 C 0.88906 0.39034 0.67509 0.0
C711 C 0.95175 0.42179 0.57635 0.0
C712 C 0.88856 0.42294 0.49246 0.0
C713 C 0.88413 0.44309 0.50827 0.0
C714 C 0.90038 0.41065 0.53045 0.0
C715 C 0.90726 0.41851 0.58652 0.0
C716 C 0.90206 0.43859 0.60388 0.0
C717 C 0.89089 0.45082 0.56384 0.0
C718 C 0.90622 0.38961 0.50942 0.0
C719 C 0.90856 0.44724 0.6643 0.0
H720 H 0.91786 0.37245 0.74395 0.0
H721 H 0.9704 0.40068 0.66563 0.0
H722 H 0.88236 0.40504 0.68952 0.0
H723 H 0.8822 0.38637 0.63072 0.0
H724 H 0.88478 0.37854 0.70873 0.0
H725 H 0.96853 0.42 0.57555 0.0
H726 H 0.9457 0.41837 0.53047 0.0
H727 H 0.94817 0.4379 0.58641 0.0
H728 H 0.8836 0.41709 0.44891 0.0
H729 H 0.88742 0.46641 0.5759 0.0
H730 H 0.90155 0.37812 0.54342 0.0
H731 H 0.92297 0.38861 0.50492 0.0
H732 H 0.89924 0.38564 0.46508 0.0
H733 H 0.90415 0.43679 0.70154 0.0
H734 H 0.90173 0.46238 0.67314 0.0
H735 H 0.92532 0.44877 0.66555 0.0
C736 C 0.95142 0.40239 0.06062 0.0
C737 C 0.94383 0.3966 0.00396 0.0
C738 C 0.93914 0.41317 0.1017 0.0
C739 C 0.91924 0.419 0.08423 0.0
C740 C 0.91178 0.41355 0.02628 0.0
C741 C 0.92404 0.40205 0.98733 0.0
C742 C 0.94735 0.41811 0.16393 0.0
C743 C 0.89099 0.42015 0.00504 0.0
C744 C 0.8804 0.43136 0.20599 0.0
C745 C 0.88271 0.45242 0.2115 0.0
C746 C 0.89226 0.42026 0.16479 0.0
C747 C 0.90613 0.43063 0.12671 0.0
C748 C 0.90769 0.45207 0.12995 0.0
C749 C 0.89627 0.46267 0.17343 0.0
C750 C 0.89064 0.39738 0.16409 0.0
C751 C 0.92167 0.46374 0.08837 0.0
H752 H 0.96675 0.39812 0.07317 0.0
H753 H 0.91835 0.39779 0.94292 0.0
H754 H 0.94817 0.4348 0.17011 0.0
H755 H 0.93695 0.41211 0.19928 0.0
H756 H 0.96272 0.41162 0.17143 0.0
H757 H 0.88786 0.41544 0.95754 0.0
H758 H 0.87911 0.41358 0.03479 0.0
H759 H 0.88964 0.43693 0.0081 0.0
H760 H 0.8702 0.42343 0.23649 0.0
H761 H 0.89809 0.47897 0.17819 0.0
H762 H 0.90557 0.39061 0.17577 0.0
H763 H 0.88659 0.39196 0.11802 0.0
H764 H 0.8791 0.39166 0.19667 0.0
H765 H 0.9377 0.45997 0.09892 0.0
H766 H 0.91966 0.48043 0.09281 0.0
H767 H 0.9189 0.45935 0.04045 0.0
C768 C 0.05713 0.91467 0.75 0.0
C769 C 0.04926 0.89537 0.7366 0.0
C770 C 0.06912 0.92517 0.70805 0.0
C771 C 0.07297 0.91636 0.6507 0.0
C772 C 0.06486 0.89701 0.6364 0.0
C773 C 0.05325 0.8866 0.67994 0.0
C774 C 0.07783 0.9456 0.72538 0.0
C775 C 0.06836 0.88738 0.57511 0.0
C776 C 0.08762 0.95261 0.5247 0.0
C777 C 0.10863 0.94938 0.5204 0.0
C778 C 0.0758 0.94175 0.56638 0.0
C779 C 0.08529 0.92764 0.60557 0.0
C780 C 0.10657 0.92471 0.60266 0.0
C781 C 0.11798 0.93548 0.5596 0.0
C782 C 0.0531 0.94509 0.5677 0.0
C783 C 0.11725 0.91014 0.64485 0.0
H784 H 0.05432 0.92144 0.79406 0.0
H785 H 0.04718 0.8717 0.66948 0.0
H786 H 0.09461 0.9453 0.72113 0.0
H787 H 0.07213 0.95748 0.69404 0.0
H788 H 0.07384 0.95005 0.77254 0.0
H789 H 0.06069 0.87242 0.57077 0.0
H790 H 0.06266 0.89757 0.53881 0.0
H791 H 0.08486 0.88524 0.56731 0.0
H792 H 0.08025 0.96316 0.49401 0.0
H793 H 0.13421 0.93294 0.55641 0.0
H794 H 0.04837 0.95056 0.61316 0.0
H795 H 0.04512 0.93051 0.55938 0.0
H796 H 0.04804 0.9563 0.53322 0.0
H797 H 0.11414 0.91435 0.69272 0.0
H798 H 0.13395 0.90998 0.63769 0.0
H799 H 0.11134 0.89454 0.63794 0.0
C800 C 0.61404 0.05456 0.17974 0.0
C801 C 0.62474 0.06181 0.23016 0.0
C802 C 0.60437 0.06798 0.13983 0.0
C803 C 0.60499 0.08912 0.15165 0.0
C804 C 0.61673 0.0966 0.20061 0.0
C805 C 0.62669 0.08281 0.23905 0.0
C806 C 0.59248 0.05942 0.08705 0.0
C807 C 0.61756 0.11899 0.2151 0.0
C808 C 0.58566 0.12186 0.02282 0.0
C809 C 0.56484 0.12283 0.03631 0.0
C810 C 0.59925 0.11186 0.06165 0.0
C811 C 0.59186 0.10297 0.11571 0.0
C812 C 0.57118 0.10536 0.13194 0.0
C813 C 0.55786 0.1151 0.09172 0.0
C814 C 0.62113 0.10947 0.04245 0.0
C815 C 0.56284 0.09654 0.19005 0.0
H816 H 0.61258 0.03832 0.17284 0.0
H817 H 0.63476 0.08841 0.27853 0.0
H818 H 0.576 0.06162 0.09513 0.0
H819 H 0.59641 0.06757 0.04458 0.0
H820 H 0.59537 0.04295 0.08035 0.0
H821 H 0.6295 0.12257 0.24907 0.0
H822 H 0.62042 0.12802 0.17352 0.0
H823 H 0.60267 0.12389 0.23362 0.0
H824 H 0.5912 0.12777 0.98001 0.0
H825 H 0.54183 0.11598 0.10264 0.0
H826 H 0.62381 0.09353 0.02816 0.0
H827 H 0.63153 0.11269 0.08085 0.0
H828 H 0.62509 0.11962 0.004 0.0
H829 H 0.56255 0.07972 0.18667 0.0
H830 H 0.54718 0.10193 0.19969 0.0
H831 H 0.57274 0.10058 0.22895 0.0
C832 C 0.41658 0.55285 0.52066 0.0
C833 C 0.39542 0.55522 0.51928 0.0
C834 C 0.42851 0.56376 0.56203 0.0
C835 C 0.41899 0.577 0.60383 0.0
C836 C 0.3976 0.57917 0.60348 0.0
C837 C 0.38607 0.5684 0.56072 0.0
C838 C 0.45131 0.56126 0.56059 0.0
C839 C 0.38691 0.59281 0.6484 0.0
C840 C 0.44751 0.58861 0.74863 0.0
C841 C 0.45447 0.60845 0.73808 0.0
C842 C 0.43585 0.57831 0.70543 0.0
C843 C 0.43137 0.5879 0.64969 0.0
C844 C 0.43865 0.60778 0.63807 0.0
C845 C 0.44998 0.61794 0.68281 0.0
C846 C 0.42807 0.55727 0.7199 0.0
C847 C 0.43445 0.61827 0.57851 0.0
H848 H 0.42392 0.5429 0.48815 0.0
H849 H 0.36972 0.57028 0.55973 0.0
H850 H 0.45868 0.57626 0.55412 0.0
H851 H 0.45674 0.55512 0.60454 0.0
H852 H 0.45638 0.55092 0.52373 0.0
H853 H 0.37016 0.59272 0.64228 0.0
H854 H 0.39043 0.58788 0.69537 0.0
H855 H 0.39244 0.60863 0.64356 0.0
H856 H 0.45074 0.58123 0.79151 0.0
H857 H 0.45536 0.63324 0.67447 0.0
H858 H 0.43385 0.54621 0.68604 0.0
H859 H 0.41125 0.55703 0.7172 0.0
H860 H 0.4327 0.55209 0.76583 0.0
H861 H 0.44007 0.60881 0.54035 0.0
H862 H 0.44173 0.63346 0.57586 0.0
H863 H 0.41784 0.62013 0.57222 0.0
C864 C 0.91538 0.05308 0.76033 0.0
C865 C 0.89521 0.04691 0.76963 0.0
C866 C 0.92566 0.06476 0.80358 0.0
C867 C 0.91567 0.0701 0.85806 0.0
C868 C 0.89552 0.06346 0.86867 0.0
C869 C 0.88542 0.05207 0.82397 0.0
C870 C 0.94705 0.07179 0.79027 0.0
C871 C 0.88457 0.06856 0.92691 0.0
C872 C 0.94927 0.08599 0.98933 0.0
C873 C 0.94712 0.10719 0.98839 0.0
C874 C 0.93885 0.07371 0.94779 0.0
C875 C 0.92633 0.08289 0.90343 0.0
C876 C 0.92446 0.1043 0.90134 0.0
C877 C 0.93471 0.1162 0.94434 0.0
C878 C 0.94097 0.05091 0.95193 0.0
C879 C 0.91161 0.11462 0.8537 0.0
H880 H 0.92303 0.04929 0.71828 0.0
H881 H 0.86987 0.0473 0.83143 0.0
H882 H 0.94764 0.08864 0.79046 0.0
H883 H 0.95755 0.06638 0.82613 0.0
H884 H 0.95266 0.06627 0.74568 0.0
H885 H 0.8693 0.06145 0.92934 0.0
H886 H 0.89365 0.06342 0.96644 0.0
H887 H 0.8828 0.08526 0.93098 0.0
H888 H 0.95863 0.07892 0.02383 0.0
H889 H 0.93302 0.13258 0.94349 0.0
H890 H 0.94737 0.04482 0.90907 0.0
H891 H 0.92581 0.04386 0.95818 0.0
H892 H 0.95093 0.04616 0.99006 0.0
H893 H 0.91698 0.11029 0.80775 0.0
H894 H 0.91203 0.13144 0.85768 0.0
H895 H 0.89561 0.10952 0.85765 0.0
C896 C 0.4225 0.95125 0.48073 0.0
C897 C 0.40122 0.95024 0.48096 0.0
C898 C 0.43394 0.94016 0.43842 0.0
C899 C 0.42383 0.9281 0.39466 0.0
C900 C 0.40234 0.92752 0.39351 0.0
C901 C 0.3913 0.93846 0.43703 0.0
C902 C 0.45684 0.94097 0.44141 0.0
C903 C 0.39102 0.91518 0.34666 0.0
C904 C 0.45162 0.91401 0.25019 0.0
C905 C 0.45629 0.89347 0.26021 0.0
C906 C 0.44124 0.92548 0.29381 0.0
C907 C 0.43569 0.91632 0.34936 0.0
C908 C 0.44089 0.89578 0.3607 0.0
C909 C 0.451 0.88452 0.31569 0.0
C910 C 0.4357 0.94724 0.27967 0.0
C911 C 0.4355 0.88564 0.41997 0.0
H912 H 0.43027 0.96014 0.515 0.0
H913 H 0.37485 0.93765 0.43696 0.0
H914 H 0.46299 0.92548 0.44899 0.0
H915 H 0.46309 0.94647 0.39767 0.0
H916 H 0.46237 0.95106 0.4783 0.0
H917 H 0.37429 0.91681 0.3509 0.0
H918 H 0.39561 0.91995 0.30036 0.0
H919 H 0.39498 0.89888 0.35138 0.0
H920 H 0.45554 0.92105 0.20732 0.0
H921 H 0.45463 0.8687 0.32378 0.0
H922 H 0.44187 0.95753 0.31501 0.0
H923 H 0.41894 0.94899 0.27998 0.0
H924 H 0.44153 0.95222 0.23476 0.0
H925 H 0.44144 0.89468 0.45859 0.0
H926 H 0.44167 0.86997 0.4231 0.0
H927 H 0.41875 0.88494 0.42496 0.0
C928 C 0.55149 0.41618 0.97939 0.0
C929 C 0.5542 0.39505 0.98037 0.0
C930 C 0.56206 0.42835 0.93791 0.0
C931 C 0.57531 0.4191 0.89558 0.0
C932 C 0.57776 0.39774 0.89539 0.0
C933 C 0.56732 0.38597 0.93828 0.0
C934 C 0.55928 0.45111 0.93994 0.0
C935 C 0.59141 0.38733 0.8499 0.0
C936 C 0.58673 0.44808 0.75149 0.0
C937 C 0.60654 0.45508 0.7622 0.0
C938 C 0.57646 0.43631 0.79447 0.0
C939 C 0.58607 0.43174 0.85013 0.0
C940 C 0.60589 0.43911 0.86198 0.0
C941 C 0.61602 0.45055 0.81748 0.0
C942 C 0.55547 0.42844 0.77979 0.0
C943 C 0.61641 0.43483 0.92146 0.0
H944 H 0.54157 0.42331 0.01239 0.0
H945 H 0.56946 0.36964 0.93892 0.0
H946 H 0.57418 0.45864 0.94685 0.0
H947 H 0.55314 0.4566 0.89606 0.0
H948 H 0.54882 0.45595 0.97679 0.0
H949 H 0.59141 0.37056 0.85529 0.0
H950 H 0.58642 0.39105 0.80311 0.0
H951 H 0.6072 0.39293 0.85491 0.0
H952 H 0.57935 0.45135 0.70862 0.0
H953 H 0.6313 0.45596 0.82595 0.0
H954 H 0.5444 0.43395 0.81399 0.0
H955 H 0.55537 0.4116 0.78168 0.0
H956 H 0.55021 0.43326 0.73411 0.0
H957 H 0.60686 0.44018 0.95977 0.0
H958 H 0.6315 0.4423 0.92447 0.0
H959 H 0.61849 0.41822 0.92716 0.0
C960 C 0.12171 0.58278 0.48418 0.0
C961 C 0.12302 0.5621 0.46907 0.0
C962 C 0.11171 0.59659 0.44606 0.0
C963 C 0.10322 0.5896 0.39095 0.0
C964 C 0.10581 0.56906 0.37338 0.0
C965 C 0.11548 0.55547 0.41303 0.0
C966 C 0.109 0.61827 0.46686 0.0
C967 C 0.09743 0.56116 0.31412 0.0
C968 C 0.0557 0.61279 0.32391 0.0
C969 C 0.06361 0.62398 0.27535 0.0
C970 C 0.06858 0.60255 0.36419 0.0
C971 C 0.08984 0.6031 0.3546 0.0
C972 C 0.09796 0.61527 0.30758 0.0
C973 C 0.08471 0.6258 0.2688 0.0
C974 C 0.05934 0.59022 0.41496 0.0
C975 C 0.12051 0.61602 0.29544 0.0
H976 H 0.12741 0.58801 0.5276 0.0
H977 H 0.11659 0.53955 0.40097 0.0
H978 H 0.11277 0.62903 0.42983 0.0
H979 H 0.09286 0.62083 0.4792 0.0
H980 H 0.11857 0.62189 0.50694 0.0
H981 H 0.10282 0.54554 0.30389 0.0
H982 H 0.0806 0.56096 0.31615 0.0
H983 H 0.10186 0.57132 0.2762 0.0
H984 H 0.03938 0.61143 0.32904 0.0
H985 H 0.09084 0.63424 0.23075 0.0
H986 H 0.06703 0.59366 0.45856 0.0
H987 H 0.06149 0.5738 0.40563 0.0
H988 H 0.04282 0.59319 0.42025 0.0
H989 H 0.12906 0.61869 0.33805 0.0
H990 H 0.12456 0.62807 0.2623 0.0
H991 H 0.12555 0.60117 0.27697 0.0
C992 C 0.88489 0.55522 0.30337 0.0
C993 C 0.89434 0.54404 0.34955 0.0
C994 C 0.89541 0.57085 0.27324 0.0
C995 C 0.91568 0.5753 0.29018 0.0
C996 C 0.92418 0.56577 0.34188 0.0
C997 C 0.91344 0.55016 0.37069 0.0
C998 C 0.88562 0.58098 0.21932 0.0
C999 C 0.94556 0.57034 0.36255 0.0
C1000 C 0.95716 0.5832 0.17489 0.0
C1001 C 0.96266 0.60343 0.18542 0.0
C1002 C 0.94068 0.5744 0.20508 0.0
C1003 C 0.92951 0.58608 0.24755 0.0
C1004 C 0.93391 0.60702 0.25461 0.0
C1005 C 0.95049 0.61552 0.22317 0.0
C1006 C 0.93634 0.55211 0.19508 0.0
C1007 C 0.92223 0.62007 0.29874 0.0
H1008 H 0.87008 0.55057 0.287 0.0
H1009 H 0.92065 0.54172 0.40703 0.0
H1010 H 0.88991 0.59724 0.21666 0.0
H1011 H 0.89094 0.57348 0.1771 0.0
H1012 H 0.8688 0.57976 0.2211 0.0
H1013 H 0.94872 0.56405 0.40835 0.0
H1014 H 0.95652 0.56356 0.33006 0.0
H1015 H 0.94829 0.58696 0.36351 0.0
H1016 H 0.9664 0.57391 0.14503 0.0
H1017 H 0.95471 0.63119 0.23139 0.0
H1018 H 0.91991 0.54965 0.18676 0.0
H1019 H 0.94052 0.54343 0.23639 0.0
H1020 H 0.94499 0.5458 0.1561 0.0
H1021 H 0.90588 0.616 0.29911 0.0
H1022 H 0.92378 0.63646 0.28778 0.0
H1023 H 0.92825 0.6176 0.34517 0.0
C1024 C 0.88739 0.94737 0.691 0.0
C1025 C 0.89893 0.95813 0.64815 0.0
C1026 C 0.89637 0.93226 0.72734 0.0
C1027 C 0.91734 0.92801 0.72084 0.0
C1028 C 0.92845 0.93737 0.67343 0.0
C1029 C 0.91908 0.95224 0.63755 0.0
C1030 C 0.88382 0.92217 0.77599 0.0
C1031 C 0.95079 0.93317 0.66424 0.0
C1032 C 0.95186 0.91849 0.8546 0.0
C1033 C 0.95824 0.8985 0.84381 0.0
C1034 C 0.93724 0.92776 0.81763 0.0
C1035 C 0.92862 0.91672 0.76882 0.0
C1036 C 0.93342 0.89589 0.76161 0.0
C1037 C 0.94827 0.88701 0.79913 0.0
C1038 C 0.93245 0.94996 0.82753 0.0
C1039 C 0.92415 0.88341 0.71134 0.0
H1040 H 0.87175 0.9517 0.69924 0.0
H1041 H 0.92804 0.96025 0.60394 0.0
H1042 H 0.88798 0.90592 0.78086 0.0
H1043 H 0.88674 0.92972 0.82014 0.0
H1044 H 0.86731 0.92329 0.76612 0.0
H1045 H 0.95667 0.93999 0.62162 0.0
H1046 H 0.95952 0.93954 0.7029 0.0
H1047 H 0.95369 0.91658 0.66304 0.0
H1048 H 0.95927 0.92741 0.88954 0.0
H1049 H 0.953 0.8715 0.79065 0.0
H1050 H 0.9158 0.95245 0.82799 0.0
H1051 H 0.93883 0.95903 0.7896 0.0
H1052 H 0.93888 0.9558 0.87076 0.0
H1053 H 0.90791 0.8873 0.70481 0.0
H1054 H 0.92545 0.86687 0.72061 0.0
H1055 H 0.93219 0.88667 0.6682 0.0
C1056 C 0.55058 0.91212 0.10533 0.0
C1057 C 0.54339 0.89342 0.12674 0.0
C1058 C 0.56553 0.9229 0.13715 0.0
C1059 C 0.57336 0.91482 0.19191 0.0
C1060 C 0.56796 0.89487 0.2096 0.0
C1061 C 0.55301 0.88433 0.17662 0.0
C1062 C 0.57118 0.94394 0.11577 0.0
C1063 C 0.57628 0.88551 0.26689 0.0
C1064 C 0.61291 0.94829 0.2688 0.0
C1065 C 0.60038 0.96089 0.30391 0.0
C1066 C 0.60461 0.93225 0.2345 0.0
C1067 C 0.58337 0.92881 0.23584 0.0
C1068 C 0.57098 0.94057 0.27496 0.0
C1069 C 0.57962 0.95648 0.30821 0.0
C1070 C 0.61837 0.91995 0.19392 0.0
C1071 C 0.54829 0.93728 0.27875 0.0
H1072 H 0.54343 0.91908 0.06621 0.0
H1073 H 0.54763 0.86981 0.19326 0.0
H1074 H 0.56365 0.95539 0.14516 0.0
H1075 H 0.5878 0.94636 0.1192 0.0
H1076 H 0.56639 0.94667 0.06813 0.0
H1077 H 0.57443 0.86874 0.26695 0.0
H1078 H 0.59259 0.88923 0.27277 0.0
H1079 H 0.56797 0.89175 0.30656 0.0
H1080 H 0.62898 0.95167 0.26528 0.0
H1081 H 0.56992 0.96604 0.33591 0.0
H1082 H 0.61712 0.92566 0.14672 0.0
H1083 H 0.61389 0.90371 0.19367 0.0
H1084 H 0.6345 0.92116 0.20817 0.0
H1085 H 0.54116 0.94137 0.23481 0.0
H1086 H 0.54114 0.94656 0.31505 0.0
H1087 H 0.54488 0.92105 0.28757 0.0
C1088 C 0.61429 0.55476 0.69352 0.0
C1089 C 0.60264 0.54463 0.64956 0.0
C1090 C 0.60548 0.56954 0.7315 0.0
C1091 C 0.58456 0.57412 0.72548 0.0
C1092 C 0.57333 0.56536 0.67729 0.0
C1093 C 0.58252 0.5508 0.63984 0.0
C1094 C 0.61816 0.57894 0.78112 0.0
C1095 C 0.55104 0.56994 0.66861 0.0
C1096 C 0.5501 0.58335 0.85971 0.0
C1097 C 0.54414 0.60354 0.85026 0.0
C1098 C 0.56457 0.57405 0.82221 0.0
C1099 C 0.57347 0.58526 0.77422 0.0
C1100 C 0.5691 0.60624 0.76844 0.0
C1101 C 0.55441 0.61515 0.80649 0.0
C1102 C 0.56891 0.5517 0.83061 0.0
C1103 C 0.57866 0.61888 0.71905 0.0
H1104 H 0.62989 0.55019 0.70118 0.0
H1105 H 0.57347 0.54326 0.60548 0.0
H1106 H 0.61428 0.5952 0.78741 0.0
H1107 H 0.61504 0.57103 0.82457 0.0
H1108 H 0.63465 0.57762 0.77132 0.0
H1109 H 0.54504 0.56354 0.62552 0.0
H1110 H 0.54224 0.56336 0.70683 0.0
H1111 H 0.54836 0.58656 0.66872 0.0
H1112 H 0.54245 0.57433 0.89392 0.0
H1113 H 0.55 0.63081 0.79902 0.0
H1114 H 0.58551 0.54886 0.83067 0.0
H1115 H 0.5623 0.54303 0.79218 0.0
H1116 H 0.5624 0.5457 0.87353 0.0
H1117 H 0.59488 0.61484 0.71278 0.0
H1118 H 0.57751 0.63538 0.72909 0.0
H1119 H 0.57073 0.61591 0.67552 0.0
C1120 C 0.08627 0.45297 0.61481 0.0
C1121 C 0.10543 0.46012 0.63239 0.0
C1122 C 0.07606 0.43826 0.64919 0.0
C1123 C 0.08526 0.4305 0.70245 0.0
C1124 C 0.10557 0.43585 0.71623 0.0
C1125 C 0.11546 0.45067 0.68096 0.0
C1126 C 0.05456 0.43272 0.63201 0.0
C1127 C 0.11615 0.42751 0.77154 0.0
C1128 C 0.04554 0.42391 0.8243 0.0
C1129 C 0.04047 0.40335 0.81809 0.0
C1130 C 0.06125 0.43255 0.79016 0.0
C1131 C 0.07223 0.42032 0.74862 0.0
C1132 C 0.06845 0.39915 0.74625 0.0
C1133 C 0.05254 0.39088 0.7811 0.0
C1134 C 0.06492 0.45515 0.795 0.0
C1135 C 0.08007 0.3855 0.70365 0.0
H1136 H 0.07855 0.45997 0.57673 0.0
H1137 H 0.13035 0.45599 0.69463 0.0
H1138 H 0.05227 0.41606 0.63477 0.0
H1139 H 0.04384 0.43995 0.66436 0.0
H1140 H 0.05064 0.43785 0.58545 0.0
H1141 H 0.1329 0.42913 0.76801 0.0
H1142 H 0.111 0.43597 0.81229 0.0
H1143 H 0.11237 0.41125 0.77846 0.0
H1144 H 0.03645 0.43357 0.85346 0.0
H1145 H 0.04873 0.37494 0.77617 0.0
H1146 H 0.06008 0.46267 0.75232 0.0
H1147 H 0.08133 0.45832 0.80126 0.0
H1148 H 0.05643 0.46211 0.8333 0.0
H1149 H 0.0736 0.38684 0.65735 0.0
H1150 H 0.07907 0.36933 0.71773 0.0
H1151 H 0.0963 0.38997 0.7012 0.0
C1152 C 0.04342 0.08513 0.16534 0.0
C1153 C 0.03828 0.10518 0.17988 0.0
C1154 C 0.06025 0.0757 0.19173 0.0
C1155 C 0.07217 0.08654 0.23435 0.0
C1156 C 0.06827 0.10743 0.24457 0.0
C1157 C 0.05128 0.11659 0.21697 0.0
C1158 C 0.06401 0.05349 0.17837 0.0
C1159 C 0.08085 0.11966 0.28854 0.0
C1160 C 0.08692 0.04863 0.35317 0.0
C1161 C 0.10566 0.04191 0.331 0.0
C1162 C 0.07688 0.06506 0.32637 0.0
C1163 C 0.08569 0.07476 0.2754 0.0
C1164 C 0.10568 0.06953 0.25735 0.0
C1165 C 0.11553 0.05309 0.28565 0.0
C1166 C 0.05581 0.07041 0.34828 0.0
C1167 C 0.11581 0.07982 0.20427 0.0
H1168 H 0.03354 0.07641 0.1358 0.0
H1169 H 0.04737 0.13214 0.22809 0.0
H1170 H 0.08031 0.05078 0.16869 0.0
H1171 H 0.05988 0.04428 0.21868 0.0
H1172 H 0.05495 0.04801 0.13912 0.0
H1173 H 0.07985 0.13617 0.27866 0.0
H1174 H 0.07512 0.11713 0.33527 0.0
H1175 H 0.09702 0.11495 0.28736 0.0
H1176 H 0.07944 0.04014 0.38894 0.0
H1177 H 0.13009 0.04792 0.26859 0.0
H1178 H 0.04443 0.06473 0.31523 0.0
H1179 H 0.05397 0.08711 0.35166 0.0
H1180 H 0.05243 0.06359 0.39327 0.0
H1181 H 0.11036 0.0728 0.16147 0.0
H1182 H 0.13258 0.07809 0.20615 0.0
H1183 H 0.11198 0.09622 0.20274 0.0
C1184 C 0.39352 0.05061 0.73034 0.0
C1185 C 0.40623 0.03761 0.69715 0.0
C1186 C 0.40168 0.06681 0.76427 0.0
C1187 C 0.42297 0.06998 0.76461 0.0
C1188 C 0.43558 0.05783 0.72721 0.0
C1189 C 0.42706 0.0418 0.69418 0.0
C1190 C 0.38768 0.07957 0.80279 0.0
C1191 C 0.45833 0.06082 0.72521 0.0
C1192 C 0.45355 0.11415 0.82473 0.0
C1193 C 0.46249 0.10511 0.87584 0.0
C1194 C 0.43871 0.10376 0.79089 0.0
C1195 C 0.43274 0.08401 0.80891 0.0
C1196 C 0.43982 0.07606 0.86472 0.0
C1197 C 0.45466 0.08669 0.89745 0.0
C1198 C 0.43115 0.11302 0.73252 0.0
C1199 C 0.43353 0.05525 0.88647 0.0
H1200 H 0.37739 0.04743 0.73277 0.0
H1201 H 0.43691 0.03195 0.66791 0.0
H1202 H 0.38818 0.07401 0.85028 0.0
H1203 H 0.3925 0.09571 0.80304 0.0
H1204 H 0.37172 0.07864 0.78668 0.0
H1205 H 0.46571 0.05123 0.69005 0.0
H1206 H 0.46204 0.07694 0.71582 0.0
H1207 H 0.46498 0.0569 0.76997 0.0
H1208 H 0.45941 0.12847 0.80794 0.0
H1209 H 0.46127 0.07979 0.9375 0.0
H1210 H 0.41486 0.10951 0.7252 0.0
H1211 H 0.43979 0.10652 0.69388 0.0
H1212 H 0.43325 0.12976 0.73211 0.0
H1213 H 0.4169 0.05316 0.88177 0.0
H1214 H 0.43782 0.05264 0.9346 0.0
H1215 H 0.44107 0.0435 0.85817 0.0
C1216 C 0.451 0.38682 0.21579 0.0
C1217 C 0.4629 0.39743 0.17366 0.0
C1218 C 0.43457 0.39645 0.24489 0.0
C1219 C 0.43006 0.41697 0.23095 0.0
C1220 C 0.44067 0.42679 0.18336 0.0
C1221 C 0.45705 0.41694 0.15567 0.0
C1222 C 0.42338 0.38529 0.29441 0.0
C1223 C 0.43616 0.44852 0.1659 0.0
C1224 C 0.38755 0.45065 0.28835 0.0
C1225 C 0.39838 0.4628 0.32935 0.0
C1226 C 0.39702 0.43405 0.25961 0.0
C1227 C 0.41762 0.42964 0.27275 0.0
C1228 C 0.42771 0.44053 0.31929 0.0
C1229 C 0.418 0.45706 0.34665 0.0
C1230 C 0.3856 0.42256 0.21124 0.0
C1231 C 0.44954 0.43614 0.33587 0.0
H1232 H 0.45551 0.37168 0.22965 0.0
H1233 H 0.4661 0.42502 0.1224 0.0
H1234 H 0.42999 0.38947 0.33902 0.0
H1235 H 0.40707 0.3895 0.29515 0.0
H1236 H 0.42472 0.36857 0.2889 0.0
H1237 H 0.44386 0.45295 0.12304 0.0
H1238 H 0.41959 0.45085 0.16037 0.0
H1239 H 0.44144 0.45884 0.2025 0.0
H1240 H 0.37233 0.45505 0.27503 0.0
H1241 H 0.42626 0.46631 0.37908 0.0
H1242 H 0.38981 0.40625 0.21116 0.0
H1243 H 0.38952 0.4289 0.1661 0.0
H1244 H 0.36891 0.42393 0.21751 0.0
H1245 H 0.45192 0.4196 0.34213 0.0
H1246 H 0.45421 0.44409 0.3781 0.0
H1247 H 0.45963 0.44121 0.29849 0.0
loop_
_geom_bond_atom_site_label_1
_geom_bond_atom_site_label_2
_geom_bond_distance
_geom_bond_site_symmetry_2
_ccdc_geom_bond_type
O0 Cd1 2.223 . S
O0 C8 1.315 . S
Cd1 O0 2.223 . S
Cd1 O4 2.297 . S
Cd1 O5 2.439 . S
Cd1 O11 2.240 . S
Cd2 O3 2.240 . S
Cd2 O10 2.223 . S
Cd2 O12 2.297 1_455 S
Cd2 O13 2.439 1_455 S
O3 Cd2 2.240 . S
O3 C8 1.279 . S
O4 Cd1 2.297 . S
O4 C6 1.247 . S
O5 Cd1 2.439 . S
O5 C6 1.208 . S
C6 O4 1.247 . S
C6 O5 1.208 . S
C7 O12 1.247 . S
C7 O13 1.208 . S
C8 O0 1.315 . S
C8 O3 1.279 . S
C9 O10 1.315 . S
C9 O11 1.279 . S
O10 Cd2 2.223 . S
O10 C9 1.315 . S
O11 Cd1 2.240 . S
O11 C9 1.279 . S
O12 Cd2 2.297 1_655 S
O12 C7 1.247 . S
O13 Cd2 2.439 1_655 S
O13 C7 1.208 . S
O14 Cd15 2.223 . S
O14 C22 1.315 . S
Cd15 O14 2.223 . S
Cd15 O18 2.297 . S
Cd15 O19 2.439 . S
Cd15 O25 2.240 . S
Cd16 O17 2.240 . S
Cd16 O24 2.223 . S
Cd16 O26 2.297 1_545 S
Cd16 O27 2.439 1_545 S
O17 Cd16 2.240 . S
O17 C22 1.279 . S
O18 Cd15 2.297 . S
O18 C20 1.247 . S
O19 Cd15 2.439 . S
O19 C20 1.208 . S
C20 O18 1.247 . S
C20 O19 1.208 . S
C21 O26 1.247 . S
C21 O27 1.208 . S
C22 O14 1.315 . S
C22 O17 1.279 . S
C23 O24 1.315 . S
C23 O25 1.279 . S
O24 Cd16 2.223 . S
O24 C23 1.315 . S
O25 Cd15 2.240 . S
O25 C23 1.279 . S
O26 Cd16 2.297 1_565 S
O26 C21 1.247 . S
O27 Cd16 2.439 1_565 S
O27 C21 1.208 . S
O28 Cd29 2.223 . S
O28 C36 1.315 . S
Cd29 O28 2.223 . S
Cd29 O32 2.297 . S
Cd29 O33 2.439 . S
Cd29 O39 2.240 . S
Cd30 O31 2.240 . S
Cd30 O38 2.223 . S
Cd30 O40 2.297 . S
Cd30 O41 2.439 . S
O31 Cd30 2.240 . S
O31 C36 1.279 . S
O32 Cd29 2.297 . S
O32 C34 1.247 . S
O33 Cd29 2.439 . S
O33 C34 1.208 . S
C34 O32 1.247 . S
C34 O33 1.208 . S
C35 O40 1.247 . S
C35 O41 1.208 . S
C36 O28 1.315 . S
C36 O31 1.279 . S
C37 O38 1.315 . S
C37 O39 1.279 . S
O38 Cd30 2.223 . S
O38 C37 1.315 . S
O39 Cd29 2.240 . S
O39 C37 1.279 . S
O40 Cd30 2.297 . S
O40 C35 1.247 . S
O41 Cd30 2.439 . S
O41 C35 1.208 . S
O42 Cd43 2.223 . S
O42 C50 1.315 . S
Cd43 O42 2.223 . S
Cd43 O46 2.297 . S
Cd43 O47 2.439 . S
Cd43 O53 2.240 . S
Cd44 O45 2.240 . S
Cd44 O52 2.223 . S
Cd44 O54 2.297 . S
Cd44 O55 2.439 . S
O45 Cd44 2.240 . S
O45 C50 1.279 . S
O46 Cd43 2.297 . S
O46 C48 1.247 . S
O47 Cd43 2.439 . S
O47 C48 1.208 . S
C48 O46 1.247 . S
C48 O47 1.208 . S
C49 O54 1.247 . S
C49 O55 1.208 . S
C50 O42 1.315 . S
C50 O45 1.279 . S
C51 O52 1.315 . S
C51 O53 1.279 . S
O52 Cd44 2.223 . S
O52 C51 1.315 . S
O53 Cd43 2.240 . S
O53 C51 1.279 . S
O54 Cd44 2.297 . S
O54 C49 1.247 . S
O55 Cd44 2.439 . S
O55 C49 1.208 . S
O56 Cd57 2.223 . S
O56 C64 1.315 . S
Cd57 O56 2.223 . S
Cd57 O60 2.297 . S
Cd57 O61 2.439 . S
Cd57 O67 2.240 . S
Cd58 O59 2.240 . S
Cd58 O66 2.223 . S
Cd58 O68 2.297 1_455 S
Cd58 O69 2.439 1_455 S
O59 Cd58 2.240 . S
O59 C64 1.279 . S
O60 Cd57 2.297 . S
O60 C62 1.247 . S
O61 Cd57 2.439 . S
O61 C62 1.208 . S
C62 O60 1.247 . S
C62 O61 1.208 . S
C63 O68 1.247 . S
C63 O69 1.208 . S
C64 O56 1.315 . S
C64 O59 1.279 . S
C65 O66 1.315 . S
C65 O67 1.279 . S
O66 Cd58 2.223 . S
O66 C65 1.315 . S
O67 Cd57 2.240 . S
O67 C65 1.279 . S
O68 Cd58 2.297 1_655 S
O68 C63 1.247 . S
O69 Cd58 2.439 1_655 S
O69 C63 1.208 . S
O70 Cd71 2.223 . S
O70 C78 1.315 . S
Cd71 O70 2.223 . S
Cd71 O74 2.297 . S
Cd71 O75 2.439 . S
Cd71 O81 2.240 . S
Cd72 O73 2.240 . S
Cd72 O80 2.223 . S
Cd72 O82 2.297 1_545 S
Cd72 O83 2.439 1_545 S
O73 Cd72 2.240 . S
O73 C78 1.279 . S
O74 Cd71 2.297 . S
O74 C76 1.247 . S
O75 Cd71 2.439 . S
O75 C76 1.208 . S
C76 O74 1.247 . S
C76 O75 1.208 . S
C77 O82 1.247 . S
C77 O83 1.208 . S
C78 O70 1.315 . S
C78 O73 1.279 . S
C79 O80 1.315 . S
C79 O81 1.279 . S
O80 Cd72 2.223 . S
O80 C79 1.315 . S
O81 Cd71 2.240 . S
O81 C79 1.279 . S
O82 Cd72 2.297 1_565 S
O82 C77 1.247 . S
O83 Cd72 2.439 1_565 S
O83 C77 1.208 . S
O84 Cd85 2.223 . S
O84 C92 1.315 . S
Cd85 O84 2.223 . S
Cd85 O88 2.297 . S
Cd85 O89 2.439 . S
Cd85 O95 2.240 . S
Cd86 O87 2.240 . S
Cd86 O94 2.223 . S
Cd86 O96 2.297 . S
Cd86 O97 2.439 . S
O87 Cd86 2.240 . S
O87 C92 1.279 . S
O88 Cd85 2.297 . S
O88 C90 1.247 . S
O89 Cd85 2.439 . S
O89 C90 1.208 . S
C90 O88 1.247 . S
C90 O89 1.208 . S
C91 O96 1.247 . S
C91 O97 1.208 . S
C92 O84 1.315 . S
C92 O87 1.279 . S
C93 O94 1.315 . S
C93 O95 1.279 . S
O94 Cd86 2.223 . S
O94 C93 1.315 . S
O95 Cd85 2.240 . S
O95 C93 1.279 . S
O96 Cd86 2.297 . S
O96 C91 1.247 . S
O97 Cd86 2.439 . S
O97 C91 1.208 . S
O98 Cd99 2.223 . S
O98 C106 1.315 . S
Cd99 O98 2.223 . S
Cd99 O102 2.297 . S
Cd99 O103 2.439 . S
Cd99 O109 2.240 . S
Cd100 O101 2.240 . S
Cd100 O108 2.223 . S
Cd100 O110 2.297 . S
Cd100 O111 2.439 . S
O101 Cd100 2.240 . S
O101 C106 1.279 . S
O102 Cd99 2.297 . S
O102 C104 1.247 . S
O103 Cd99 2.439 . S
O103 C104 1.208 . S
C104 O102 1.247 . S
C104 O103 1.208 . S
C105 O110 1.247 . S
C105 O111 1.208 . S
C106 O98 1.315 . S
C106 O101 1.279 . S
C107 O108 1.315 . S
C107 O109 1.279 . S
O108 Cd100 2.223 . S
O108 C107 1.315 . S
O109 Cd99 2.240 . S
O109 C107 1.279 . S
O110 Cd100 2.297 . S
O110 C105 1.247 . S
O111 Cd100 2.439 . S
O111 C105 1.208 . S
O112 Cd113 2.223 . S
O112 C120 1.315 . S
Cd113 O112 2.223 . S
Cd113 O116 2.297 . S
Cd113 O117 2.439 . S
Cd113 O123 2.240 . S
Cd114 O115 2.240 . S
Cd114 O122 2.223 . S
Cd114 O124 2.297 1_655 S
Cd114 O125 2.439 1_655 S
O115 Cd114 2.240 . S
O115 C120 1.279 . S
O116 Cd113 2.297 . S
O116 C118 1.247 . S
O117 Cd113 2.439 . S
O117 C118 1.208 . S
C118 O116 1.247 . S
C118 O117 1.208 . S
C119 O124 1.247 . S
C119 O125 1.208 . S
C120 O112 1.315 . S
C120 O115 1.279 . S
C121 O122 1.315 . S
C121 O123 1.279 . S
O122 Cd114 2.223 . S
O122 C121 1.315 . S
O123 Cd113 2.240 . S
O123 C121 1.279 . S
O124 Cd114 2.297 1_455 S
O124 C119 1.247 . S
O125 Cd114 2.439 1_455 S
O125 C119 1.208 . S
O126 Cd127 2.223 . S
O126 C134 1.315 . S
Cd127 O126 2.223 . S
Cd127 O130 2.297 . S
Cd127 O131 2.439 . S
Cd127 O137 2.240 . S
Cd128 O129 2.240 . S
Cd128 O136 2.223 . S
Cd128 O138 2.297 1_565 S
Cd128 O139 2.439 1_565 S
O129 Cd128 2.240 . S
O129 C134 1.279 . S
O130 Cd127 2.297 . S
O130 C132 1.247 . S
O131 Cd127 2.439 . S
O131 C132 1.208 . S
C132 O130 1.247 . S
C132 O131 1.208 . S
C133 O138 1.247 . S
C133 O139 1.208 . S
C134 O126 1.315 . S
C134 O129 1.279 . S
C135 O136 1.315 . S
C135 O137 1.279 . S
O136 Cd128 2.223 . S
O136 C135 1.315 . S
O137 Cd127 2.240 . S
O137 C135 1.279 . S
O138 Cd128 2.297 1_545 S
O138 C133 1.247 . S
O139 Cd128 2.439 1_545 S
O139 C133 1.208 . S
O140 Cd141 2.223 . S
O140 C148 1.315 . S
Cd141 O140 2.223 . S
Cd141 O144 2.297 . S
Cd141 O145 2.439 . S
Cd141 O151 2.240 . S
Cd142 O143 2.240 . S
Cd142 O150 2.223 . S
Cd142 O152 2.297 . S
Cd142 O153 2.439 . S
O143 Cd142 2.240 . S
O143 C148 1.279 . S
O144 Cd141 2.297 . S
O144 C146 1.247 . S
O145 Cd141 2.439 . S
O145 C146 1.208 . S
C146 O144 1.247 . S
C146 O145 1.208 . S
C147 O152 1.247 . S
C147 O153 1.208 . S
C148 O140 1.315 . S
C148 O143 1.279 . S
C149 O150 1.315 . S
C149 O151 1.279 . S
O150 Cd142 2.223 . S
O150 C149 1.315 . S
O151 Cd141 2.240 . S
O151 C149 1.279 . S
O152 Cd142 2.297 . S
O152 C147 1.247 . S
O153 Cd142 2.439 . S
O153 C147 1.208 . S
O154 Cd155 2.223 . S
O154 C162 1.315 . S
Cd155 O154 2.223 . S
Cd155 O158 2.297 . S
Cd155 O159 2.439 . S
Cd155 O165 2.240 . S
Cd156 O157 2.240 . S
Cd156 O164 2.223 . S
Cd156 O166 2.297 . S
Cd156 O167 2.439 . S
O157 Cd156 2.240 . S
O157 C162 1.279 . S
O158 Cd155 2.297 . S
O158 C160 1.247 . S
O159 Cd155 2.439 . S
O159 C160 1.208 . S
C160 O158 1.247 . S
C160 O159 1.208 . S
C161 O166 1.247 . S
C161 O167 1.208 . S
C162 O154 1.315 . S
C162 O157 1.279 . S
C163 O164 1.315 . S
C163 O165 1.279 . S
O164 Cd156 2.223 . S
O164 C163 1.315 . S
O165 Cd155 2.240 . S
O165 C163 1.279 . S
O166 Cd156 2.297 . S
O166 C161 1.247 . S
O167 Cd156 2.439 . S
O167 C161 1.208 . S
O168 Cd169 2.223 . S
O168 C176 1.315 . S
Cd169 O168 2.223 . S
Cd169 O172 2.297 . S
Cd169 O173 2.439 . S
Cd169 O179 2.240 . S
Cd170 O171 2.240 . S
Cd170 O178 2.223 . S
Cd170 O180 2.297 1_655 S
Cd170 O181 2.439 1_655 S
O171 Cd170 2.240 . S
O171 C176 1.279 . S
O172 Cd169 2.297 . S
O172 C174 1.247 . S
O173 Cd169 2.439 . S
O173 C174 1.208 . S
C174 O172 1.247 . S
C174 O173 1.208 . S
C175 O180 1.247 . S
C175 O181 1.208 . S
C176 O168 1.315 . S
C176 O171 1.279 . S
C177 O178 1.315 . S
C177 O179 1.279 . S
O178 Cd170 2.223 . S
O178 C177 1.315 . S
O179 Cd169 2.240 . S
O179 C177 1.279 . S
O180 Cd170 2.297 1_455 S
O180 C175 1.247 . S
O181 Cd170 2.439 1_455 S
O181 C175 1.208 . S
O182 Cd183 2.223 . S
O182 C190 1.315 . S
Cd183 O182 2.223 . S
Cd183 O186 2.297 . S
Cd183 O187 2.439 . S
Cd183 O193 2.240 . S
Cd184 O185 2.240 . S
Cd184 O192 2.223 . S
Cd184 O194 2.297 1_565 S
Cd184 O195 2.439 1_565 S
O185 Cd184 2.240 . S
O185 C190 1.279 . S
O186 Cd183 2.297 . S
O186 C188 1.247 . S
O187 Cd183 2.439 . S
O187 C188 1.208 . S
C188 O186 1.247 . S
C188 O187 1.208 . S
C189 O194 1.247 . S
C189 O195 1.208 . S
C190 O182 1.315 . S
C190 O185 1.279 . S
C191 O192 1.315 . S
C191 O193 1.279 . S
O192 Cd184 2.223 . S
O192 C191 1.315 . S
O193 Cd183 2.240 . S
O193 C191 1.279 . S
O194 Cd184 2.297 1_545 S
O194 C189 1.247 . S
O195 Cd184 2.439 1_545 S
O195 C189 1.208 . S
O196 Cd197 2.223 . S
O196 C204 1.315 . S
Cd197 O196 2.223 . S
Cd197 O200 2.297 . S
Cd197 O201 2.439 . S
Cd197 O207 2.240 . S
Cd198 O199 2.240 . S
Cd198 O206 2.223 . S
Cd198 O208 2.297 . S
Cd198 O209 2.439 . S
O199 Cd198 2.240 . S
O199 C204 1.279 . S
O200 Cd197 2.297 . S
O200 C202 1.247 . S
O201 Cd197 2.439 . S
O201 C202 1.208 . S
C202 O200 1.247 . S
C202 O201 1.208 . S
C203 O208 1.247 . S
C203 O209 1.208 . S
C204 O196 1.315 . S
C204 O199 1.279 . S
C205 O206 1.315 . S
C205 O207 1.279 . S
O206 Cd198 2.223 . S
O206 C205 1.315 . S
O207 Cd197 2.240 . S
O207 C205 1.279 . S
O208 Cd198 2.297 . S
O208 C203 1.247 . S
O209 Cd198 2.439 . S
O209 C203 1.208 . S
O210 Cd211 2.223 . S
O210 C218 1.315 . S
Cd211 O210 2.223 . S
Cd211 O214 2.297 . S
Cd211 O215 2.439 . S
Cd211 O221 2.240 . S
Cd212 O213 2.240 . S
Cd212 O220 2.223 . S
Cd212 O222 2.297 . S
Cd212 O223 2.439 . S
O213 Cd212 2.240 . S
O213 C218 1.279 . S
O214 Cd211 2.297 . S
O214 C216 1.247 . S
O215 Cd211 2.439 . S
O215 C216 1.208 . S
C216 O214 1.247 . S
C216 O215 1.208 . S
C217 O222 1.247 . S
C217 O223 1.208 . S
C218 O210 1.315 . S
C218 O213 1.279 . S
C219 O220 1.315 . S
C219 O221 1.279 . S
O220 Cd212 2.223 . S
O220 C219 1.315 . S
O221 Cd211 2.240 . S
O221 C219 1.279 . S
O222 Cd212 2.297 . S
O222 C217 1.247 . S
O223 Cd212 2.439 . S
O223 C217 1.208 . S
C224 C225 1.391 . S
C224 C226 1.394 . S
C224 H240 0.931 . S
C225 C224 1.391 . S
C225 C229 1.376 . S
C226 C224 1.394 . S
C226 C227 1.369 . S
C226 C230 1.531 . S
C227 C226 1.369 . S
C227 C228 1.410 1_554 S
C227 C235 1.503 1_554 S
C228 C227 1.410 1_556 S
C228 C229 1.392 1_556 S
C228 C231 1.511 . S
C229 C225 1.376 . S
C229 C228 1.392 1_554 S
C229 H241 0.929 1_554 S
C230 C226 1.531 . S
C230 H242 0.960 . S
C230 H243 0.962 1_455 S
C230 H244 0.960 . S
C231 C228 1.511 . S
C231 H245 0.961 . S
C231 H246 0.961 . S
C231 H247 0.961 . S
C232 C233 1.370 . S
C232 C234 1.363 . S
C232 H248 0.931 1_455 S
C233 C232 1.370 . S
C233 C237 1.408 . S
C234 C232 1.363 . S
C234 C235 1.370 . S
C234 C238 1.524 1_455 S
C235 C227 1.503 1_556 S
C235 C234 1.370 . S
C235 C236 1.403 1_556 S
C236 C235 1.403 1_554 S
C236 C237 1.404 1_554 S
C236 C239 1.539 . S
C237 C233 1.408 . S
C237 C236 1.404 1_556 S
C237 H249 0.930 . S
C238 C234 1.524 1_655 S
C238 H250 0.956 . S
C238 H251 0.961 . S
C238 H252 0.961 . S
C239 C236 1.539 . S
C239 H253 0.958 . S
C239 H254 0.961 . S
C239 H255 0.960 . S
H240 C224 0.931 . S
H241 C229 0.929 1_556 S
H242 C230 0.960 . S
H243 C230 0.962 1_655 S
H244 C230 0.960 . S
H245 C231 0.961 . S
H246 C231 0.961 . S
H247 C231 0.961 . S
H248 C232 0.931 1_655 S
H249 C237 0.930 . S
H250 C238 0.956 . S
H251 C238 0.961 . S
H252 C238 0.961 . S
H253 C239 0.958 . S
H254 C239 0.961 . S
H255 C239 0.960 . S
C256 C257 1.391 . S
C256 C258 1.394 . S
C256 H272 0.931 . S
C257 C256 1.391 . S
C257 C261 1.376 . S
C258 C256 1.394 . S
C258 C259 1.369 . S
C258 C262 1.531 . S
C259 C258 1.369 . S
C259 C260 1.410 . S
C259 C267 1.503 . S
C260 C259 1.410 . S
C260 C261 1.392 . S
C260 C263 1.511 1_545 S
C261 C257 1.376 . S
C261 C260 1.392 . S
C261 H273 0.960 . S
C262 C258 1.531 . S
C262 H274 0.960 . S
C262 H275 0.962 . S
C262 H276 0.960 . S
C263 C260 1.511 1_565 S
C263 H277 0.961 . S
C263 H278 0.961 . S
C263 H279 0.961 1_565 S
C264 C265 1.370 . S
C264 C266 1.363 . S
C264 H280 0.931 1_545 S
C265 C264 1.370 . S
C265 C269 1.408 . S
C266 C264 1.363 . S
C266 C267 1.370 . S
C266 C270 1.524 1_545 S
C267 C259 1.503 . S
C267 C266 1.370 . S
C267 C268 1.403 . S
C268 C267 1.403 . S
C268 C269 1.404 . S
C268 C271 1.539 . S
C269 C265 1.408 . S
C269 C268 1.404 . S
C269 H281 0.930 . S
C270 C266 1.524 1_565 S
C270 H282 0.956 . S
C270 H283 0.961 . S
C270 H284 0.961 . S
C271 C268 1.539 . S
C271 H285 0.958 . S
C271 H286 0.961 . S
C271 H287 0.960 . S
H272 C256 0.931 . S
H273 C261 0.960 . S
H274 C262 0.960 . S
H275 C262 0.962 . S
H276 C262 0.960 . S
H277 C263 0.961 . S
H278 C263 0.961 . S
H279 C263 0.961 1_545 S
H280 C264 0.931 1_565 S
H281 C269 0.930 . S
H282 C270 0.956 . S
H283 C270 0.961 . S
H284 C270 0.961 . S
H285 C271 0.958 . S
H286 C271 0.961 . S
H287 C271 0.960 . S
C288 C289 1.391 . S
C288 C290 1.394 . S
C288 H304 0.931 . S
C289 C288 1.391 . S
C289 C293 1.376 . S
C290 C288 1.394 . S
C290 C291 1.369 . S
C290 C294 1.531 . S
C291 C290 1.369 . S
C291 C292 1.410 . S
C291 C299 1.503 1_554 S
C292 C291 1.410 . S
C292 C293 1.392 . S
C292 C295 1.511 1_554 S
C293 C289 1.376 . S
C293 C292 1.392 . S
C293 H305 0.929 . S
C294 C290 1.531 . S
C294 H306 0.960 . S
C294 H307 0.962 . S
C294 H308 0.960 . S
C295 C292 1.511 1_556 S
C295 H309 0.961 . S
C295 H310 0.961 . S
C295 H311 0.961 1_556 S
C296 C297 1.370 . S
C296 C298 1.363 . S
C296 H312 0.931 . S
C297 C296 1.370 . S
C297 C301 1.408 1_556 S
C298 C296 1.363 . S
C298 C299 1.370 . S
C298 C302 1.524 . S
C299 C291 1.503 1_556 S
C299 C298 1.370 . S
C299 C300 1.403 1_556 S
C300 C299 1.403 1_554 S
C300 C301 1.404 . S
C300 C303 1.539 . S
C301 C297 1.408 1_554 S
C301 C300 1.404 . S
C301 H313 0.930 . S
C302 C298 1.524 . S
C302 H314 0.956 . S
C302 H315 0.961 . S
C302 H316 0.961 . S
C303 C300 1.539 . S
C303 H317 0.958 . S
C303 H318 0.961 . S
C303 H319 0.960 . S
H304 C288 0.931 . S
H305 C293 0.929 . S
H306 C294 0.960 . S
H307 C294 0.962 . S
H308 C294 0.960 . S
H309 C295 0.961 . S
H310 C295 0.961 . S
H311 C295 0.961 1_554 S
H312 C296 0.931 . S
H313 C301 0.930 . S
H314 C302 0.956 . S
H315 C302 0.961 . S
H316 C302 0.961 . S
H317 C303 0.958 . S
H318 C303 0.961 . S
H319 C303 0.960 . S
C320 C321 1.391 . S
C320 C322 1.394 . S
C320 H336 0.931 . S
C321 C320 1.391 . S
C321 C325 1.376 . S
C322 C320 1.394 . S
C322 C323 1.369 . S
C322 C326 1.531 . S
C323 C322 1.369 . S
C323 C324 1.410 . S
C323 C331 1.503 . S
C324 C323 1.410 . S
C324 C325 1.392 . S
C324 C327 1.511 . S
C325 C321 1.376 . S
C325 C324 1.392 . S
C325 H337 0.929 . S
C326 C322 1.531 . S
C326 H338 0.960 . S
C326 H339 0.962 . S
C326 H340 0.960 . S
C327 C324 1.511 . S
C327 H341 0.961 . S
C327 H342 0.961 . S
C327 H343 0.961 . S
C328 C329 1.370 . S
C328 C330 1.363 . S
C328 H344 0.931 . S
C329 C328 1.370 . S
C329 C333 1.408 . S
C330 C328 1.363 . S
C330 C331 1.370 . S
C330 C334 1.524 . S
C331 C323 1.503 . S
C331 C330 1.370 . S
C331 C332 1.403 . S
C332 C331 1.403 . S
C332 C333 1.404 . S
C332 C335 1.539 . S
C333 C329 1.408 . S
C333 C332 1.404 . S
C333 H345 0.930 . S
C334 C330 1.524 . S
C334 H346 0.956 . S
C334 H347 0.961 . S
C334 H348 0.961 . S
C335 C332 1.539 . S
C335 H349 0.958 . S
C335 H350 0.961 . S
C335 H351 0.960 . S
H336 C320 0.931 . S
H337 C325 0.929 . S
H338 C326 0.960 . S
H339 C326 0.962 . S
H340 C326 0.960 . S
H341 C327 0.961 . S
H342 C327 0.961 . S
H343 C327 0.961 . S
H344 C328 0.931 . S
H345 C333 0.930 . S
H346 C334 0.956 . S
H347 C334 0.961 . S
H348 C334 0.961 . S
H349 C335 0.958 . S
H350 C335 0.961 . S
H351 C335 0.960 . S
C352 C353 1.391 1_455 S
C352 C354 1.394 . S
C352 H368 0.931 . S
C353 C352 1.391 1_655 S
C353 C357 1.376 . S
C354 C352 1.394 . S
C354 C355 1.362 1_456 S
C354 C358 1.531 . S
C355 C354 1.362 1_654 S
C355 C356 1.410 . S
C355 C363 1.508 . S
C356 C355 1.410 . S
C356 C357 1.392 1_554 S
C356 C359 1.511 . S
C357 C353 1.376 . S
C357 C356 1.392 1_556 S
C357 H369 0.929 . S
C358 C354 1.531 . S
C358 H370 0.960 1_556 S
C358 H371 0.962 . S
C358 H372 0.960 . S
C359 C356 1.511 . S
C359 H373 0.961 . S
C359 H374 0.961 . S
C359 H375 0.961 . S
C360 C361 1.370 1_556 S
C360 C362 1.363 . S
C360 H376 0.931 . S
C361 C360 1.370 1_554 S
C361 C365 1.408 . S
C362 C360 1.363 . S
C362 C363 1.370 1_556 S
C362 C366 1.524 . S
C363 C355 1.508 . S
C363 C362 1.370 1_554 S
C363 C364 1.403 . S
C364 C363 1.403 . S
C364 C365 1.404 . S
C364 C367 1.539 . S
C365 C361 1.408 . S
C365 C364 1.404 . S
C365 H377 0.930 . S
C366 C362 1.524 . S
C366 H378 0.956 . S
C366 H379 0.961 . S
C366 H380 0.961 . S
C367 C364 1.539 . S
C367 H381 0.958 1_655 S
C367 H382 0.961 . S
C367 H383 0.960 . S
H368 C352 0.931 . S
H369 C357 0.929 . S
H370 C358 0.960 1_554 S
H371 C358 0.962 . S
H372 C358 0.960 . S
H373 C359 0.961 . S
H374 C359 0.961 . S
H375 C359 0.961 . S
H376 C360 0.931 . S
H377 C365 0.930 . S
H378 C366 0.956 . S
H379 C366 0.961 . S
H380 C366 0.961 . S
H381 C367 0.958 1_455 S
H382 C367 0.961 . S
H383 C367 0.960 . S
C384 C385 1.391 . S
C384 C386 1.394 . S
C384 H400 0.931 . S
C385 C384 1.391 . S
C385 C389 1.376 . S
C386 C384 1.394 . S
C386 C387 1.369 . S
C386 C390 1.548 . S
C387 C386 1.369 . S
C387 C388 1.410 . S
C387 C395 1.503 . S
C388 C387 1.410 . S
C388 C389 1.392 . S
C388 C391 1.511 . S
C389 C385 1.376 . S
C389 C388 1.392 . S
C389 H401 0.929 . S
C390 C386 1.548 . S
C390 H402 0.980 . S
C390 H403 0.925 1_565 S
C390 H404 0.960 . S
C391 C388 1.511 . S
C391 H405 0.961 . S
C391 H406 0.961 . S
C391 H407 0.961 . S
C392 C393 1.370 . S
C392 C394 1.363 . S
C392 H408 0.931 1_565 S
C393 C392 1.370 . S
C393 C397 1.408 . S
C394 C392 1.363 . S
C394 C395 1.370 . S
C394 C398 1.524 1_565 S
C395 C387 1.503 . S
C395 C394 1.370 . S
C395 C396 1.403 . S
C396 C395 1.403 . S
C396 C397 1.404 . S
C396 C399 1.539 . S
C397 C393 1.408 . S
C397 C396 1.404 . S
C397 H409 0.930 . S
C398 C394 1.524 1_545 S
C398 H410 0.956 . S
C398 H411 0.961 . S
C398 H412 0.961 . S
C399 C396 1.539 . S
C399 H413 0.958 . S
C399 H414 0.961 . S
C399 H415 0.960 . S
H400 C384 0.931 . S
H401 C389 0.929 . S
H402 C390 0.980 . S
H403 C390 0.925 1_545 S
H404 C390 0.960 . S
H405 C391 0.961 . S
H406 C391 0.961 . S
H407 C391 0.961 . S
H408 C392 0.931 1_545 S
H409 C397 0.930 . S
H410 C398 0.956 . S
H411 C398 0.961 . S
H412 C398 0.961 . S
H413 C399 0.958 . S
H414 C399 0.961 . S
H415 C399 0.960 . S
C416 C417 1.391 . S
C416 C418 1.394 1_556 S
C416 H432 0.931 1_556 S
C417 C416 1.391 . S
C417 C421 1.376 . S
C418 C416 1.394 1_554 S
C418 C419 1.365 1_554 S
C418 C422 1.531 . S
C419 C418 1.365 1_556 S
C419 C420 1.418 . S
C419 C427 1.500 1_556 S
C420 C419 1.418 . S
C420 C421 1.392 . S
C420 C423 1.511 . S
C421 C417 1.376 . S
C421 C420 1.392 . S
C421 H433 0.929 . S
C422 C418 1.531 . S
C422 H434 0.960 . S
C422 H435 0.962 . S
C422 H436 0.960 . S
C423 C420 1.511 . S
C423 H437 0.961 . S
C423 H438 0.961 . S
C423 H439 0.961 . S
C424 C425 1.370 . S
C424 C426 1.363 1_554 S
C424 H440 0.931 1_554 S
C425 C424 1.370 . S
C425 C429 1.408 . S
C426 C424 1.363 1_556 S
C426 C427 1.370 1_556 S
C426 C430 1.524 . S
C427 C419 1.500 1_554 S
C427 C426 1.370 1_554 S
C427 C428 1.403 . S
C428 C427 1.403 . S
C428 C429 1.404 . S
C428 C431 1.539 . S
C429 C425 1.408 . S
C429 C428 1.404 . S
C429 H441 0.930 . S
C430 C426 1.524 . S
C430 H442 0.956 . S
C430 H443 0.961 . S
C430 H444 0.961 . S
C431 C428 1.539 . S
C431 H445 0.958 . S
C431 H446 0.961 . S
C431 H447 0.960 . S
H432 C416 0.931 1_554 S
H433 C421 0.929 . S
H434 C422 0.960 . S
H435 C422 0.962 . S
H436 C422 0.960 . S
H437 C423 0.961 . S
H438 C423 0.961 . S
H439 C423 0.961 . S
H440 C424 0.931 1_556 S
H441 C429 0.930 . S
H442 C430 0.956 . S
H443 C430 0.961 . S
H444 C430 0.961 . S
H445 C431 0.958 . S
H446 C431 0.961 . S
H447 C431 0.960 . S
C448 C449 1.391 . S
C448 C450 1.394 . S
C448 H464 0.931 . S
C449 C448 1.391 . S
C449 C453 1.376 . S
C450 C448 1.394 . S
C450 C451 1.369 . S
C450 C454 1.531 . S
C451 C450 1.369 . S
C451 C452 1.410 . S
C451 C459 1.503 . S
C452 C451 1.410 . S
C452 C453 1.392 . S
C452 C455 1.511 . S
C453 C449 1.376 . S
C453 C452 1.392 . S
C453 H465 0.929 . S
C454 C450 1.531 . S
C454 H466 0.960 . S
C454 H467 0.962 . S
C454 H468 0.960 . S
C455 C452 1.511 . S
C455 H469 0.961 . S
C455 H470 0.961 . S
C455 H471 0.961 . S
C456 C457 1.370 . S
C456 C458 1.363 . S
C456 H472 0.931 . S
C457 C456 1.370 . S
C457 C461 1.408 . S
C458 C456 1.363 . S
C458 C459 1.370 . S
C458 C462 1.524 . S
C459 C451 1.503 . S
C459 C458 1.370 . S
C459 C460 1.403 . S
C460 C459 1.403 . S
C460 C461 1.404 . S
C460 C463 1.539 . S
C461 C457 1.408 . S
C461 C460 1.404 . S
C461 H473 0.930 . S
C462 C458 1.524 . S
C462 H474 0.956 . S
C462 H475 0.961 . S
C462 H476 0.961 . S
C463 C460 1.539 . S
C463 H477 0.958 . S
C463 H478 0.961 . S
C463 H479 0.960 . S
H464 C448 0.931 . S
H465 C453 0.929 . S
H466 C454 0.960 . S
H467 C454 0.962 . S
H468 C454 0.960 . S
H469 C455 0.961 . S
H470 C455 0.961 . S
H471 C455 0.961 . S
H472 C456 0.931 . S
H473 C461 0.930 . S
H474 C462 0.956 . S
H475 C462 0.961 . S
H476 C462 0.961 . S
H477 C463 0.958 . S
H478 C463 0.961 . S
H479 C463 0.960 . S
C480 C481 1.391 1_556 S
C480 C482 1.394 . S
C480 H496 0.931 1_556 S
C481 C480 1.391 1_554 S
C481 C485 1.376 1_554 S
C482 C480 1.394 . S
C482 C483 1.369 . S
C482 C486 1.531 . S
C483 C482 1.369 . S
C483 C484 1.410 . S
C483 C491 1.503 . S
C484 C483 1.410 . S
C484 C485 1.392 . S
C484 C487 1.511 . S
C485 C481 1.376 1_556 S
C485 C484 1.392 . S
C485 H497 0.929 . S
C486 C482 1.531 . S
C486 H498 0.960 . S
C486 H499 0.962 . S
C486 H500 0.960 . S
C487 C484 1.511 . S
C487 H501 0.961 . S
C487 H502 0.961 . S
C487 H503 0.961 . S
C488 C489 1.370 . S
C488 C490 1.363 . S
C488 H504 0.931 . S
C489 C488 1.370 . S
C489 C493 1.408 . S
C490 C488 1.363 . S
C490 C491 1.370 . S
C490 C494 1.524 . S
C491 C483 1.503 . S
C491 C490 1.370 . S
C491 C492 1.403 . S
C492 C491 1.403 . S
C492 C493 1.404 . S
C492 C495 1.539 . S
C493 C489 1.408 . S
C493 C492 1.404 . S
C493 H505 0.930 . S
C494 C490 1.524 . S
C494 H506 0.956 . S
C494 H507 0.961 . S
C494 H508 0.961 . S
C495 C492 1.539 . S
C495 H509 0.958 . S
C495 H510 0.961 . S
C495 H511 0.960 . S
H496 C480 0.931 1_554 S
H497 C485 0.929 . S
H498 C486 0.960 . S
H499 C486 0.962 . S
H500 C486 0.960 . S
H501 C487 0.961 . S
H502 C487 0.961 . S
H503 C487 0.961 . S
H504 C488 0.931 . S
H505 C493 0.930 . S
H506 C494 0.956 . S
H507 C494 0.961 . S
H508 C494 0.961 . S
H509 C495 0.958 . S
H510 C495 0.961 . S
H511 C495 0.960 . S
C512 C513 1.391 . S
C512 C514 1.394 . S
C512 H528 0.931 . S
C513 C512 1.391 . S
C513 C517 1.376 . S
C514 C512 1.394 . S
C514 C515 1.369 . S
C514 C518 1.531 . S
C515 C514 1.369 . S
C515 C516 1.410 . S
C515 C523 1.503 . S
C516 C515 1.410 . S
C516 C517 1.392 . S
C516 C519 1.511 . S
C517 C513 1.376 . S
C517 C516 1.392 . S
C517 H529 0.929 . S
C518 C514 1.531 . S
C518 H530 0.960 . S
C518 H531 0.962 . S
C518 H532 0.960 . S
C519 C516 1.511 . S
C519 H533 0.961 . S
C519 H534 0.961 . S
C519 H535 0.961 . S
C520 C521 1.370 . S
C520 C522 1.363 . S
C520 H536 0.931 . S
C521 C520 1.370 . S
C521 C525 1.408 . S
C522 C520 1.363 . S
C522 C523 1.370 . S
C522 C526 1.524 . S
C523 C515 1.503 . S
C523 C522 1.370 . S
C523 C524 1.403 . S
C524 C523 1.403 . S
C524 C525 1.404 . S
C524 C527 1.539 . S
C525 C521 1.408 . S
C525 C524 1.404 . S
C525 H537 0.930 . S
C526 C522 1.524 . S
C526 H538 0.956 . S
C526 H539 0.961 . S
C526 H540 0.961 . S
C527 C524 1.539 . S
C527 H541 0.958 . S
C527 H542 0.961 . S
C527 H543 0.960 . S
H528 C512 0.931 . S
H529 C517 0.929 . S
H530 C518 0.960 . S
H531 C518 0.962 . S
H532 C518 0.960 . S
H533 C519 0.961 . S
H534 C519 0.961 . S
H535 C519 0.961 . S
H536 C520 0.931 . S
H537 C525 0.930 . S
H538 C526 0.956 . S
H539 C526 0.961 . S
H540 C526 0.961 . S
H541 C527 0.958 . S
H542 C527 0.961 . S
H543 C527 0.960 . S
C544 C545 1.391 1_554 S
C544 C546 1.394 1_554 S
C544 H560 0.931 . S
C545 C544 1.391 1_556 S
C545 C549 1.377 . S
C546 C544 1.394 1_556 S
C546 C547 1.369 . S
C546 C550 1.531 . S
C547 C546 1.369 . S
C547 C548 1.410 . S
C547 C555 1.503 . S
C548 C547 1.410 . S
C548 C549 1.392 . S
C548 C551 1.511 . S
C549 C545 1.377 . S
C549 C548 1.392 . S
C549 H561 0.929 . S
C550 C546 1.531 . S
C550 H562 0.960 . S
C550 H563 0.962 . S
C550 H564 0.960 1_556 S
C551 C548 1.511 . S
C551 H565 0.961 . S
C551 H566 0.961 . S
C551 H567 0.961 . S
C552 C553 1.370 . S
C552 C554 1.363 . S
C552 H568 0.931 . S
C553 C552 1.370 . S
C553 C557 1.408 . S
C554 C552 1.363 . S
C554 C555 1.370 . S
C554 C558 1.524 . S
C555 C547 1.503 . S
C555 C554 1.370 . S
C555 C556 1.403 . S
C556 C555 1.403 . S
C556 C557 1.404 . S
C556 C559 1.539 . S
C557 C553 1.408 . S
C557 C556 1.404 . S
C557 H569 0.930 . S
C558 C554 1.524 . S
C558 H570 0.956 . S
C558 H571 0.961 . S
C558 H572 0.961 . S
C559 C556 1.539 . S
C559 H573 0.958 . S
C559 H574 0.961 . S
C559 H575 0.960 . S
H560 C544 0.931 . S
H561 C549 0.929 . S
H562 C550 0.960 . S
H563 C550 0.962 . S
H564 C550 0.960 1_554 S
H565 C551 0.961 . S
H566 C551 0.961 . S
H567 C551 0.961 . S
H568 C552 0.931 . S
H569 C557 0.930 . S
H570 C558 0.956 . S
H571 C558 0.961 . S
H572 C558 0.961 . S
H573 C559 0.958 . S
H574 C559 0.961 . S
H575 C559 0.960 . S
C576 C577 1.391 . S
C576 C578 1.394 . S
C576 H592 0.931 . S
C577 C576 1.391 . S
C577 C581 1.376 . S
C578 C576 1.394 . S
C578 C579 1.369 . S
C578 C582 1.531 . S
C579 C578 1.369 . S
C579 C580 1.410 . S
C579 C587 1.503 . S
C580 C579 1.410 . S
C580 C581 1.392 . S
C580 C583 1.511 . S
C581 C577 1.376 . S
C581 C580 1.392 . S
C581 H593 0.929 . S
C582 C578 1.531 . S
C582 H594 0.960 . S
C582 H595 0.962 . S
C582 H596 0.960 . S
C583 C580 1.511 . S
C583 H597 0.961 . S
C583 H598 0.961 . S
C583 H599 0.961 . S
C584 C585 1.370 . S
C584 C586 1.363 . S
C584 H600 0.931 . S
C585 C584 1.370 . S
C585 C589 1.408 . S
C586 C584 1.363 . S
C586 C587 1.370 . S
C586 C590 1.524 . S
C587 C579 1.503 . S
C587 C586 1.370 . S
C587 C588 1.403 . S
C588 C587 1.403 . S
C588 C589 1.404 . S
C588 C591 1.539 . S
C589 C585 1.408 . S
C589 C588 1.404 . S
C589 H601 0.930 . S
C590 C586 1.524 . S
C590 H602 0.956 . S
C590 H603 0.961 . S
C590 H604 0.961 . S
C591 C588 1.539 . S
C591 H605 0.958 . S
C591 H606 0.961 . S
C591 H607 0.960 . S
H592 C576 0.931 . S
H593 C581 0.929 . S
H594 C582 0.960 . S
H595 C582 0.962 . S
H596 C582 0.960 . S
H597 C583 0.961 . S
H598 C583 0.961 . S
H599 C583 0.961 . S
H600 C584 0.931 . S
H601 C589 0.930 . S
H602 C590 0.956 . S
H603 C590 0.961 . S
H604 C590 0.961 . S
H605 C591 0.958 . S
H606 C591 0.961 . S
H607 C591 0.960 . S
C608 C609 1.391 . S
C608 C610 1.394 . S
C608 H624 0.931 . S
C609 C608 1.391 . S
C609 C613 1.376 . S
C610 C608 1.394 . S
C610 C611 1.369 . S
C610 C614 1.531 . S
C611 C610 1.369 . S
C611 C612 1.410 . S
C611 C619 1.503 . S
C612 C611 1.410 . S
C612 C613 1.392 . S
C612 C615 1.511 . S
C613 C609 1.376 . S
C613 C612 1.392 . S
C613 H625 0.929 . S
C614 C610 1.531 . S
C614 H626 0.960 . S
C614 H627 0.962 . S
C614 H628 0.960 . S
C615 C612 1.511 . S
C615 H629 0.961 . S
C615 H630 0.961 . S
C615 H631 0.961 . S
C616 C617 1.370 1_556 S
C616 C618 1.363 1_556 S
C616 H632 0.931 . S
C617 C616 1.370 1_554 S
C617 C621 1.408 . S
C618 C616 1.363 1_554 S
C618 C619 1.370 . S
C618 C622 1.524 . S
C619 C611 1.503 . S
C619 C618 1.370 . S
C619 C620 1.403 . S
C620 C619 1.403 . S
C620 C621 1.404 . S
C620 C623 1.539 . S
C621 C617 1.408 . S
C621 C620 1.404 . S
C621 H633 0.930 . S
C622 C618 1.524 . S
C622 H634 0.956 . S
C622 H635 0.961 . S
C622 H636 0.961 1_554 S
C623 C620 1.539 . S
C623 H637 0.958 . S
C623 H638 0.961 . S
C623 H639 0.960 . S
H624 C608 0.931 . S
H625 C613 0.929 . S
H626 C614 0.960 . S
H627 C614 0.962 . S
H628 C614 0.960 . S
H629 C615 0.961 . S
H630 C615 0.961 . S
H631 C615 0.961 . S
H632 C616 0.931 . S
H633 C621 0.930 . S
H634 C622 0.956 . S
H635 C622 0.961 . S
H636 C622 0.961 1_556 S
H637 C623 0.958 . S
H638 C623 0.961 . S
H639 C623 0.960 . S
C640 C641 1.391 . S
C640 C642 1.394 . S
C640 H656 0.931 . S
C641 C640 1.391 . S
C641 C645 1.376 . S
C642 C640 1.394 . S
C642 C643 1.369 . S
C642 C646 1.531 . S
C643 C642 1.369 . S
C643 C644 1.410 . S
C643 C651 1.503 . S
C644 C643 1.410 . S
C644 C645 1.392 . S
C644 C647 1.511 . S
C645 C641 1.376 . S
C645 C644 1.392 . S
C645 H657 0.929 . S
C646 C642 1.531 . S
C646 H658 0.960 . S
C646 H659 0.962 . S
C646 H660 0.960 . S
C647 C644 1.511 . S
C647 H661 0.961 . S
C647 H662 0.961 . S
C647 H663 0.961 . S
C648 C649 1.370 . S
C648 C650 1.363 . S
C648 H664 0.931 . S
C649 C648 1.370 . S
C649 C653 1.408 . S
C650 C648 1.363 . S
C650 C651 1.370 . S
C650 C654 1.524 . S
C651 C643 1.503 . S
C651 C650 1.370 . S
C651 C652 1.403 . S
C652 C651 1.403 . S
C652 C653 1.404 . S
C652 C655 1.539 . S
C653 C649 1.408 . S
C653 C652 1.404 . S
C653 H665 0.930 . S
C654 C650 1.524 . S
C654 H666 0.956 . S
C654 H667 0.961 . S
C654 H668 0.961 . S
C655 C652 1.539 . S
C655 H669 0.958 . S
C655 H670 0.961 . S
C655 H671 0.960 . S
H656 C640 0.931 . S
H657 C645 0.929 . S
H658 C646 0.960 . S
H659 C646 0.962 . S
H660 C646 0.960 . S
H661 C647 0.961 . S
H662 C647 0.961 . S
H663 C647 0.961 . S
H664 C648 0.931 . S
H665 C653 0.930 . S
H666 C654 0.956 . S
H667 C654 0.961 . S
H668 C654 0.961 . S
H669 C655 0.958 . S
H670 C655 0.961 . S
H671 C655 0.960 . S
C672 C673 1.391 . S
C672 C674 1.394 . S
C672 H688 0.931 . S
C673 C672 1.391 . S
C673 C677 1.376 . S
C674 C672 1.394 . S
C674 C675 1.369 . S
C674 C678 1.531 . S
C675 C674 1.369 . S
C675 C676 1.410 . S
C675 C683 1.503 . S
C676 C675 1.410 . S
C676 C677 1.392 . S
C676 C679 1.511 . S
C677 C673 1.376 . S
C677 C676 1.392 . S
C677 H689 0.929 . S
C678 C674 1.531 . S
C678 H690 0.960 . S
C678 H691 0.962 . S
C678 H692 0.960 . S
C679 C676 1.511 . S
C679 H693 0.961 . S
C679 H694 0.961 . S
C679 H695 0.961 . S
C680 C681 1.370 1_556 S
C680 C682 1.363 1_556 S
C680 H696 0.931 . S
C681 C680 1.370 1_554 S
C681 C685 1.408 . S
C682 C680 1.363 1_554 S
C682 C683 1.370 . S
C682 C686 1.524 . S
C683 C675 1.503 . S
C683 C682 1.370 . S
C683 C684 1.403 . S
C684 C683 1.403 . S
C684 C685 1.404 . S
C684 C687 1.539 . S
C685 C681 1.408 . S
C685 C684 1.404 . S
C685 H697 0.930 . S
C686 C682 1.524 . S
C686 H698 0.956 . S
C686 H699 0.961 . S
C686 H700 0.961 1_554 S
C687 C684 1.539 . S
C687 H701 0.958 . S
C687 H702 0.961 . S
C687 H703 0.960 . S
H688 C672 0.931 . S
H689 C677 0.929 . S
H690 C678 0.960 . S
H691 C678 0.962 . S
H692 C678 0.960 . S
H693 C679 0.961 . S
H694 C679 0.961 . S
H695 C679 0.961 . S
H696 C680 0.931 . S
H697 C685 0.930 . S
H698 C686 0.956 . S
H699 C686 0.961 . S
H700 C686 0.961 1_556 S
H701 C687 0.958 . S
H702 C687 0.961 . S
H703 C687 0.960 . S
C704 C705 1.391 . S
C704 C706 1.394 . S
C704 H720 0.931 . S
C705 C704 1.391 . S
C705 C709 1.376 . S
C706 C704 1.394 . S
C706 C707 1.369 . S
C706 C710 1.531 . S
C707 C706 1.369 . S
C707 C708 1.410 . S
C707 C715 1.503 . S
C708 C707 1.410 . S
C708 C709 1.392 . S
C708 C711 1.511 . S
C709 C705 1.376 . S
C709 C708 1.392 . S
C709 H721 0.929 . S
C710 C706 1.531 . S
C710 H722 0.960 . S
C710 H723 0.962 . S
C710 H724 0.960 . S
C711 C708 1.511 . S
C711 H725 0.961 . S
C711 H726 0.961 . S
C711 H727 0.961 . S
C712 C713 1.370 . S
C712 C714 1.363 . S
C712 H728 0.931 . S
C713 C712 1.370 . S
C713 C717 1.408 . S
C714 C712 1.363 . S
C714 C715 1.370 . S
C714 C718 1.524 . S
C715 C707 1.503 . S
C715 C714 1.370 . S
C715 C716 1.403 . S
C716 C715 1.403 . S
C716 C717 1.404 . S
C716 C719 1.539 . S
C717 C713 1.408 . S
C717 C716 1.404 . S
C717 H729 0.930 . S
C718 C714 1.524 . S
C718 H730 0.956 . S
C718 H731 0.961 . S
C718 H732 0.961 . S
C719 C716 1.539 . S
C719 H733 0.958 . S
C719 H734 0.961 . S
C719 H735 0.960 . S
H720 C704 0.931 . S
H721 C709 0.929 . S
H722 C710 0.960 . S
H723 C710 0.962 . S
H724 C710 0.960 . S
H725 C711 0.961 . S
H726 C711 0.961 . S
H727 C711 0.961 . S
H728 C712 0.931 . S
H729 C717 0.930 . S
H730 C718 0.956 . S
H731 C718 0.961 . S
H732 C718 0.961 . S
H733 C719 0.958 . S
H734 C719 0.961 . S
H735 C719 0.960 . S
C736 C737 1.391 . S
C736 C738 1.394 . S
C736 H752 0.931 . S
C737 C736 1.391 . S
C737 C741 1.376 1_554 S
C738 C736 1.394 . S
C738 C739 1.369 . S
C738 C742 1.531 . S
C739 C738 1.369 . S
C739 C740 1.410 . S
C739 C747 1.503 . S
C740 C739 1.410 . S
C740 C741 1.392 1_554 S
C740 C743 1.511 . S
C741 C737 1.376 1_556 S
C741 C740 1.392 1_556 S
C741 H753 0.929 . S
C742 C738 1.531 . S
C742 H754 0.960 . S
C742 H755 0.962 . S
C742 H756 0.960 . S
C743 C740 1.511 . S
C743 H757 0.961 1_554 S
C743 H758 0.961 . S
C743 H759 0.961 . S
C744 C745 1.370 . S
C744 C746 1.363 . S
C744 H760 0.931 . S
C745 C744 1.370 . S
C745 C749 1.408 . S
C746 C744 1.363 . S
C746 C747 1.370 . S
C746 C750 1.524 . S
C747 C739 1.503 . S
C747 C746 1.370 . S
C747 C748 1.403 . S
C748 C747 1.403 . S
C748 C749 1.404 . S
C748 C751 1.539 . S
C749 C745 1.408 . S
C749 C748 1.404 . S
C749 H761 0.930 . S
C750 C746 1.524 . S
C750 H762 0.956 . S
C750 H763 0.961 . S
C750 H764 0.961 . S
C751 C748 1.539 . S
C751 H765 0.958 . S
C751 H766 0.961 . S
C751 H767 0.960 . S
H752 C736 0.931 . S
H753 C741 0.929 . S
H754 C742 0.960 . S
H755 C742 0.962 . S
H756 C742 0.960 . S
H757 C743 0.961 1_556 S
H758 C743 0.961 . S
H759 C743 0.961 . S
H760 C744 0.931 . S
H761 C749 0.930 . S
H762 C750 0.956 . S
H763 C750 0.961 . S
H764 C750 0.961 . S
H765 C751 0.958 . S
H766 C751 0.961 . S
H767 C751 0.960 . S
C768 C769 1.391 . S
C768 C770 1.394 . S
C768 H784 0.931 . S
C769 C768 1.391 . S
C769 C773 1.376 . S
C770 C768 1.394 . S
C770 C771 1.369 . S
C770 C774 1.531 . S
C771 C770 1.369 . S
C771 C772 1.410 . S
C771 C779 1.503 . S
C772 C771 1.410 . S
C772 C773 1.392 . S
C772 C775 1.511 . S
C773 C769 1.376 . S
C773 C772 1.392 . S
C773 H785 0.929 . S
C774 C770 1.531 . S
C774 H786 0.960 . S
C774 H787 0.962 . S
C774 H788 0.960 . S
C775 C772 1.511 . S
C775 H789 0.961 . S
C775 H790 0.961 . S
C775 H791 0.961 . S
C776 C777 1.370 . S
C776 C778 1.363 . S
C776 H792 0.931 . S
C777 C776 1.370 . S
C777 C781 1.408 . S
C778 C776 1.363 . S
C778 C779 1.370 . S
C778 C782 1.524 . S
C779 C771 1.503 . S
C779 C778 1.370 . S
C779 C780 1.403 . S
C780 C779 1.403 . S
C780 C781 1.404 . S
C780 C783 1.539 . S
C781 C777 1.408 . S
C781 C780 1.404 . S
C781 H793 0.930 . S
C782 C778 1.524 . S
C782 H794 0.956 . S
C782 H795 0.961 . S
C782 H796 0.961 . S
C783 C780 1.539 . S
C783 H797 0.958 . S
C783 H798 0.961 . S
C783 H799 0.960 . S
H784 C768 0.931 . S
H785 C773 0.929 . S
H786 C774 0.960 . S
H787 C774 0.962 . S
H788 C774 0.960 . S
H789 C775 0.961 . S
H790 C775 0.961 . S
H791 C775 0.961 . S
H792 C776 0.931 . S
H793 C781 0.930 . S
H794 C782 0.956 . S
H795 C782 0.961 . S
H796 C782 0.961 . S
H797 C783 0.958 . S
H798 C783 0.961 . S
H799 C783 0.960 . S
C800 C801 1.391 . S
C800 C802 1.394 . S
C800 H816 0.931 . S
C801 C800 1.391 . S
C801 C805 1.376 . S
C802 C800 1.394 . S
C802 C803 1.369 . S
C802 C806 1.531 . S
C803 C802 1.369 . S
C803 C804 1.410 . S
C803 C811 1.503 . S
C804 C803 1.410 . S
C804 C805 1.392 . S
C804 C807 1.511 . S
C805 C801 1.376 . S
C805 C804 1.392 . S
C805 H817 0.929 . S
C806 C802 1.531 . S
C806 H818 0.960 . S
C806 H819 0.962 . S
C806 H820 0.960 . S
C807 C804 1.511 . S
C807 H821 0.961 . S
C807 H822 0.961 . S
C807 H823 0.961 . S
C808 C809 1.370 . S
C808 C810 1.363 . S
C808 H824 0.931 1_554 S
C809 C808 1.370 . S
C809 C813 1.408 . S
C810 C808 1.363 . S
C810 C811 1.370 . S
C810 C814 1.524 . S
C811 C803 1.503 . S
C811 C810 1.370 . S
C811 C812 1.403 . S
C812 C811 1.403 . S
C812 C813 1.404 . S
C812 C815 1.539 . S
C813 C809 1.408 . S
C813 C812 1.404 . S
C813 H825 0.930 . S
C814 C810 1.524 . S
C814 H826 0.956 . S
C814 H827 0.961 . S
C814 H828 0.961 . S
C815 C812 1.539 . S
C815 H829 0.958 . S
C815 H830 0.961 . S
C815 H831 0.960 . S
H816 C800 0.931 . S
H817 C805 0.929 . S
H818 C806 0.960 . S
H819 C806 0.962 . S
H820 C806 0.960 . S
H821 C807 0.961 . S
H822 C807 0.961 . S
H823 C807 0.961 . S
H824 C808 0.931 1_556 S
H825 C813 0.930 . S
H826 C814 0.956 . S
H827 C814 0.961 . S
H828 C814 0.961 . S
H829 C815 0.958 . S
H830 C815 0.961 . S
H831 C815 0.960 . S
C832 C833 1.391 . S
C832 C834 1.394 . S
C832 H848 0.931 . S
C833 C832 1.391 . S
C833 C837 1.376 . S
C834 C832 1.394 . S
C834 C835 1.369 . S
C834 C838 1.531 . S
C835 C834 1.369 . S
C835 C836 1.410 . S
C835 C843 1.503 . S
C836 C835 1.410 . S
C836 C837 1.392 . S
C836 C839 1.511 . S
C837 C833 1.376 . S
C837 C836 1.392 . S
C837 H849 0.929 . S
C838 C834 1.531 . S
C838 H850 0.960 . S
C838 H851 0.962 . S
C838 H852 0.960 . S
C839 C836 1.511 . S
C839 H853 0.961 . S
C839 H854 0.961 . S
C839 H855 0.961 . S
C840 C841 1.370 . S
C840 C842 1.363 . S
C840 H856 0.931 . S
C841 C840 1.370 . S
C841 C845 1.408 . S
C842 C840 1.363 . S
C842 C843 1.370 . S
C842 C846 1.524 . S
C843 C835 1.503 . S
C843 C842 1.370 . S
C843 C844 1.403 . S
C844 C843 1.403 . S
C844 C845 1.404 . S
C844 C847 1.539 . S
C845 C841 1.408 . S
C845 C844 1.404 . S
C845 H857 0.930 . S
C846 C842 1.524 . S
C846 H858 0.956 . S
C846 H859 0.961 . S
C846 H860 0.961 . S
C847 C844 1.539 . S
C847 H861 0.958 . S
C847 H862 0.961 . S
C847 H863 0.960 . S
H848 C832 0.931 . S
H849 C837 0.929 . S
H850 C838 0.960 . S
H851 C838 0.962 . S
H852 C838 0.960 . S
H853 C839 0.961 . S
H854 C839 0.961 . S
H855 C839 0.961 . S
H856 C840 0.931 . S
H857 C845 0.930 . S
H858 C846 0.956 . S
H859 C846 0.961 . S
H860 C846 0.961 . S
H861 C847 0.958 . S
H862 C847 0.961 . S
H863 C847 0.960 . S
C864 C865 1.391 . S
C864 C866 1.394 . S
C864 H880 0.931 . S
C865 C864 1.391 . S
C865 C869 1.376 . S
C866 C864 1.394 . S
C866 C867 1.369 . S
C866 C870 1.531 . S
C867 C866 1.369 . S
C867 C868 1.410 . S
C867 C875 1.503 . S
C868 C867 1.410 . S
C868 C869 1.392 . S
C868 C871 1.511 . S
C869 C865 1.376 . S
C869 C868 1.392 . S
C869 H881 0.929 . S
C870 C866 1.531 . S
C870 H882 0.960 . S
C870 H883 0.962 . S
C870 H884 0.960 . S
C871 C868 1.511 . S
C871 H885 0.961 . S
C871 H886 0.961 . S
C871 H887 0.961 . S
C872 C873 1.370 1_554 S
C872 C874 1.363 1_554 S
C872 H888 0.931 . S
C873 C872 1.370 1_556 S
C873 C877 1.408 . S
C874 C872 1.363 1_556 S
C874 C875 1.370 . S
C874 C878 1.524 . S
C875 C867 1.503 . S
C875 C874 1.370 . S
C875 C876 1.403 . S
C876 C875 1.403 . S
C876 C877 1.404 . S
C876 C879 1.539 . S
C877 C873 1.408 . S
C877 C876 1.404 . S
C877 H889 0.930 . S
C878 C874 1.524 . S
C878 H890 0.956 . S
C878 H891 0.961 . S
C878 H892 0.961 1_556 S
C879 C876 1.539 . S
C879 H893 0.958 . S
C879 H894 0.961 . S
C879 H895 0.960 . S
H880 C864 0.931 . S
H881 C869 0.929 . S
H882 C870 0.960 . S
H883 C870 0.962 . S
H884 C870 0.960 . S
H885 C871 0.961 . S
H886 C871 0.961 . S
H887 C871 0.961 . S
H888 C872 0.931 . S
H889 C877 0.930 . S
H890 C878 0.956 . S
H891 C878 0.961 . S
H892 C878 0.961 1_554 S
H893 C879 0.958 . S
H894 C879 0.961 . S
H895 C879 0.960 . S
C896 C897 1.391 . S
C896 C898 1.394 . S
C896 H912 0.931 . S
C897 C896 1.391 . S
C897 C901 1.376 . S
C898 C896 1.394 . S
C898 C899 1.369 . S
C898 C902 1.531 . S
C899 C898 1.369 . S
C899 C900 1.410 . S
C899 C907 1.503 . S
C900 C899 1.410 . S
C900 C901 1.392 . S
C900 C903 1.511 . S
C901 C897 1.376 . S
C901 C900 1.392 . S
C901 H913 0.929 . S
C902 C898 1.531 . S
C902 H914 0.960 . S
C902 H915 0.962 . S
C902 H916 0.960 . S
C903 C900 1.511 . S
C903 H917 0.961 . S
C903 H918 0.961 . S
C903 H919 0.961 . S
C904 C905 1.370 . S
C904 C906 1.363 . S
C904 H920 0.931 . S
C905 C904 1.370 . S
C905 C909 1.408 . S
C906 C904 1.363 . S
C906 C907 1.370 . S
C906 C910 1.524 . S
C907 C899 1.503 . S
C907 C906 1.370 . S
C907 C908 1.403 . S
C908 C907 1.403 . S
C908 C909 1.404 . S
C908 C911 1.539 . S
C909 C905 1.408 . S
C909 C908 1.404 . S
C909 H921 0.930 . S
C910 C906 1.524 . S
C910 H922 0.956 . S
C910 H923 0.961 . S
C910 H924 0.961 . S
C911 C908 1.539 . S
C911 H925 0.958 . S
C911 H926 0.961 . S
C911 H927 0.960 . S
H912 C896 0.931 . S
H913 C901 0.929 . S
H914 C902 0.960 . S
H915 C902 0.962 . S
H916 C902 0.960 . S
H917 C903 0.961 . S
H918 C903 0.961 . S
H919 C903 0.961 . S
H920 C904 0.931 . S
H921 C909 0.930 . S
H922 C910 0.956 . S
H923 C910 0.961 . S
H924 C910 0.961 . S
H925 C911 0.958 . S
H926 C911 0.961 . S
H927 C911 0.960 . S
C928 C929 1.392 . S
C928 C930 1.394 1_554 S
C928 H944 0.931 . S
C929 C928 1.392 . S
C929 C933 1.373 1_554 S
C930 C928 1.394 1_556 S
C930 C931 1.369 . S
C930 C934 1.531 . S
C931 C930 1.369 . S
C931 C932 1.410 . S
C931 C939 1.503 . S
C932 C931 1.410 . S
C932 C933 1.392 . S
C932 C935 1.511 . S
C933 C929 1.373 1_556 S
C933 C932 1.392 . S
C933 H945 0.929 . S
C934 C930 1.531 . S
C934 H946 0.960 . S
C934 H947 0.962 . S
C934 H948 0.960 1_556 S
C935 C932 1.511 . S
C935 H949 0.961 . S
C935 H950 0.961 . S
C935 H951 0.961 . S
C936 C937 1.370 . S
C936 C938 1.363 . S
C936 H952 0.931 . S
C937 C936 1.370 . S
C937 C941 1.408 . S
C938 C936 1.363 . S
C938 C939 1.370 . S
C938 C942 1.524 . S
C939 C931 1.503 . S
C939 C938 1.370 . S
C939 C940 1.403 . S
C940 C939 1.403 . S
C940 C941 1.404 . S
C940 C943 1.539 . S
C941 C937 1.408 . S
C941 C940 1.404 . S
C941 H953 0.930 . S
C942 C938 1.524 . S
C942 H954 0.956 . S
C942 H955 0.961 . S
C942 H956 0.961 . S
C943 C940 1.539 . S
C943 H957 0.958 . S
C943 H958 0.961 . S
C943 H959 0.960 . S
H944 C928 0.931 . S
H945 C933 0.929 . S
H946 C934 0.960 . S
H947 C934 0.962 . S
H948 C934 0.960 1_554 S
H949 C935 0.961 . S
H950 C935 0.961 . S
H951 C935 0.961 . S
H952 C936 0.931 . S
H953 C941 0.930 . S
H954 C942 0.956 . S
H955 C942 0.961 . S
H956 C942 0.961 . S
H957 C943 0.958 . S
H958 C943 0.961 . S
H959 C943 0.960 . S
C960 C961 1.391 . S
C960 C962 1.394 . S
C960 H976 0.931 . S
C961 C960 1.391 . S
C961 C965 1.376 . S
C962 C960 1.394 . S
C962 C963 1.369 . S
C962 C966 1.531 . S
C963 C962 1.369 . S
C963 C964 1.410 . S
C963 C971 1.503 . S
C964 C963 1.410 . S
C964 C965 1.392 . S
C964 C967 1.511 . S
C965 C961 1.376 . S
C965 C964 1.392 . S
C965 H977 0.929 . S
C966 C962 1.531 . S
C966 H978 0.960 . S
C966 H979 0.962 . S
C966 H980 0.960 . S
C967 C964 1.511 . S
C967 H981 0.961 . S
C967 H982 0.961 . S
C967 H983 0.961 . S
C968 C969 1.370 . S
C968 C970 1.363 . S
C968 H984 0.931 . S
C969 C968 1.370 . S
C969 C973 1.408 . S
C970 C968 1.363 . S
C970 C971 1.370 . S
C970 C974 1.524 . S
C971 C963 1.503 . S
C971 C970 1.370 . S
C971 C972 1.403 . S
C972 C971 1.403 . S
C972 C973 1.404 . S
C972 C975 1.539 . S
C973 C969 1.408 . S
C973 C972 1.404 . S
C973 H985 0.930 . S
C974 C970 1.524 . S
C974 H986 0.956 . S
C974 H987 0.961 . S
C974 H988 0.961 . S
C975 C972 1.539 . S
C975 H989 0.958 . S
C975 H990 0.961 . S
C975 H991 0.960 . S
H976 C960 0.931 . S
H977 C965 0.929 . S
H978 C966 0.960 . S
H979 C966 0.962 . S
H980 C966 0.960 . S
H981 C967 0.961 . S
H982 C967 0.961 . S
H983 C967 0.961 . S
H984 C968 0.931 . S
H985 C973 0.930 . S
H986 C974 0.956 . S
H987 C974 0.961 . S
H988 C974 0.961 . S
H989 C975 0.958 . S
H990 C975 0.961 . S
H991 C975 0.960 . S
C992 C993 1.391 . S
C992 C994 1.394 . S
C992 H1008 0.931 . S
C993 C992 1.391 . S
C993 C997 1.376 . S
C994 C992 1.394 . S
C994 C995 1.369 . S
C994 C998 1.531 . S
C995 C994 1.369 . S
C995 C996 1.410 . S
C995 C1003 1.503 . S
C996 C995 1.410 . S
C996 C997 1.392 . S
C996 C999 1.511 . S
C997 C993 1.376 . S
C997 C996 1.392 . S
C997 H1009 0.929 . S
C998 C994 1.531 . S
C998 H1010 0.960 . S
C998 H1011 0.962 . S
C998 H1012 0.960 . S
C999 C996 1.511 . S
C999 H1013 0.961 . S
C999 H1014 0.961 . S
C999 H1015 0.961 . S
C1000 C1001 1.370 . S
C1000 C1002 1.363 . S
C1000 H1016 0.931 . S
C1001 C1000 1.370 . S
C1001 C1005 1.408 . S
C1002 C1000 1.363 . S
C1002 C1003 1.370 . S
C1002 C1006 1.524 . S
C1003 C995 1.503 . S
C1003 C1002 1.370 . S
C1003 C1004 1.403 . S
C1004 C1003 1.403 . S
C1004 C1005 1.404 . S
C1004 C1007 1.539 . S
C1005 C1001 1.408 . S
C1005 C1004 1.404 . S
C1005 H1017 0.930 . S
C1006 C1002 1.524 . S
C1006 H1018 0.956 . S
C1006 H1019 0.961 . S
C1006 H1020 0.961 . S
C1007 C1004 1.539 . S
C1007 H1021 0.958 . S
C1007 H1022 0.961 . S
C1007 H1023 0.960 . S
H1008 C992 0.931 . S
H1009 C997 0.929 . S
H1010 C998 0.960 . S
H1011 C998 0.962 . S
H1012 C998 0.960 . S
H1013 C999 0.961 . S
H1014 C999 0.961 . S
H1015 C999 0.961 . S
H1016 C1000 0.931 . S
H1017 C1005 0.930 . S
H1018 C1006 0.956 . S
H1019 C1006 0.961 . S
H1020 C1006 0.961 . S
H1021 C1007 0.958 . S
H1022 C1007 0.961 . S
H1023 C1007 0.960 . S
C1024 C1025 1.391 . S
C1024 C1026 1.394 . S
C1024 H1040 0.931 . S
C1025 C1024 1.391 . S
C1025 C1029 1.376 . S
C1026 C1024 1.394 . S
C1026 C1027 1.369 . S
C1026 C1030 1.531 . S
C1027 C1026 1.369 . S
C1027 C1028 1.410 . S
C1027 C1035 1.503 . S
C1028 C1027 1.410 . S
C1028 C1029 1.392 . S
C1028 C1031 1.511 . S
C1029 C1025 1.376 . S
C1029 C1028 1.392 . S
C1029 H1041 0.929 . S
C1030 C1026 1.531 . S
C1030 H1042 0.960 . S
C1030 H1043 0.962 . S
C1030 H1044 0.960 . S
C1031 C1028 1.511 . S
C1031 H1045 0.961 . S
C1031 H1046 0.961 . S
C1031 H1047 0.961 . S
C1032 C1033 1.370 . S
C1032 C1034 1.363 . S
C1032 H1048 0.931 . S
C1033 C1032 1.370 . S
C1033 C1037 1.408 . S
C1034 C1032 1.363 . S
C1034 C1035 1.370 . S
C1034 C1038 1.524 . S
C1035 C1027 1.503 . S
C1035 C1034 1.370 . S
C1035 C1036 1.403 . S
C1036 C1035 1.403 . S
C1036 C1037 1.404 . S
C1036 C1039 1.539 . S
C1037 C1033 1.408 . S
C1037 C1036 1.404 . S
C1037 H1049 0.930 . S
C1038 C1034 1.524 . S
C1038 H1050 0.956 . S
C1038 H1051 0.961 . S
C1038 H1052 0.961 . S
C1039 C1036 1.539 . S
C1039 H1053 0.958 . S
C1039 H1054 0.961 . S
C1039 H1055 0.960 . S
H1040 C1024 0.931 . S
H1041 C1029 0.929 . S
H1042 C1030 0.960 . S
H1043 C1030 0.962 . S
H1044 C1030 0.960 . S
H1045 C1031 0.961 . S
H1046 C1031 0.961 . S
H1047 C1031 0.961 . S
H1048 C1032 0.931 . S
H1049 C1037 0.930 . S
H1050 C1038 0.956 . S
H1051 C1038 0.961 . S
H1052 C1038 0.961 . S
H1053 C1039 0.958 . S
H1054 C1039 0.961 . S
H1055 C1039 0.960 . S
C1056 C1057 1.391 . S
C1056 C1058 1.394 . S
C1056 H1072 0.931 . S
C1057 C1056 1.391 . S
C1057 C1061 1.376 . S
C1058 C1056 1.394 . S
C1058 C1059 1.369 . S
C1058 C1062 1.531 . S
C1059 C1058 1.369 . S
C1059 C1060 1.410 . S
C1059 C1067 1.503 . S
C1060 C1059 1.410 . S
C1060 C1061 1.392 . S
C1060 C1063 1.511 . S
C1061 C1057 1.376 . S
C1061 C1060 1.392 . S
C1061 H1073 0.929 . S
C1062 C1058 1.531 . S
C1062 H1074 0.960 . S
C1062 H1075 0.962 . S
C1062 H1076 0.960 . S
C1063 C1060 1.511 . S
C1063 H1077 0.961 . S
C1063 H1078 0.961 . S
C1063 H1079 0.961 . S
C1064 C1065 1.370 . S
C1064 C1066 1.363 . S
C1064 H1080 0.931 . S
C1065 C1064 1.370 . S
C1065 C1069 1.408 . S
C1066 C1064 1.363 . S
C1066 C1067 1.370 . S
C1066 C1070 1.524 . S
C1067 C1059 1.503 . S
C1067 C1066 1.370 . S
C1067 C1068 1.403 . S
C1068 C1067 1.403 . S
C1068 C1069 1.404 . S
C1068 C1071 1.539 . S
C1069 C1065 1.408 . S
C1069 C1068 1.404 . S
C1069 H1081 0.930 . S
C1070 C1066 1.524 . S
C1070 H1082 0.956 . S
C1070 H1083 0.961 . S
C1070 H1084 0.961 . S
C1071 C1068 1.539 . S
C1071 H1085 0.958 . S
C1071 H1086 0.961 . S
C1071 H1087 0.960 . S
H1072 C1056 0.931 . S
H1073 C1061 0.929 . S
H1074 C1062 0.960 . S
H1075 C1062 0.962 . S
H1076 C1062 0.960 . S
H1077 C1063 0.961 . S
H1078 C1063 0.961 . S
H1079 C1063 0.961 . S
H1080 C1064 0.931 . S
H1081 C1069 0.930 . S
H1082 C1070 0.956 . S
H1083 C1070 0.961 . S
H1084 C1070 0.961 . S
H1085 C1071 0.958 . S
H1086 C1071 0.961 . S
H1087 C1071 0.960 . S
C1088 C1089 1.391 . S
C1088 C1090 1.394 . S
C1088 H1104 0.931 . S
C1089 C1088 1.391 . S
C1089 C1093 1.376 . S
C1090 C1088 1.394 . S
C1090 C1091 1.369 . S
C1090 C1094 1.531 . S
C1091 C1090 1.369 . S
C1091 C1092 1.410 . S
C1091 C1099 1.503 . S
C1092 C1091 1.410 . S
C1092 C1093 1.392 . S
C1092 C1095 1.511 . S
C1093 C1089 1.376 . S
C1093 C1092 1.392 . S
C1093 H1105 0.929 . S
C1094 C1090 1.531 . S
C1094 H1106 0.960 . S
C1094 H1107 0.962 . S
C1094 H1108 0.960 . S
C1095 C1092 1.511 . S
C1095 H1109 0.961 . S
C1095 H1110 0.961 . S
C1095 H1111 0.961 . S
C1096 C1097 1.370 . S
C1096 C1098 1.363 . S
C1096 H1112 0.931 . S
C1097 C1096 1.370 . S
C1097 C1101 1.408 . S
C1098 C1096 1.363 . S
C1098 C1099 1.370 . S
C1098 C1102 1.524 . S
C1099 C1091 1.503 . S
C1099 C1098 1.370 . S
C1099 C1100 1.403 . S
C1100 C1099 1.403 . S
C1100 C1101 1.404 . S
C1100 C1103 1.539 . S
C1101 C1097 1.408 . S
C1101 C1100 1.404 . S
C1101 H1113 0.930 . S
C1102 C1098 1.524 . S
C1102 H1114 0.956 . S
C1102 H1115 0.961 . S
C1102 H1116 0.961 . S
C1103 C1100 1.539 . S
C1103 H1117 0.958 . S
C1103 H1118 0.961 . S
C1103 H1119 0.960 . S
H1104 C1088 0.931 . S
H1105 C1093 0.929 . S
H1106 C1094 0.960 . S
H1107 C1094 0.962 . S
H1108 C1094 0.960 . S
H1109 C1095 0.961 . S
H1110 C1095 0.961 . S
H1111 C1095 0.961 . S
H1112 C1096 0.931 . S
H1113 C1101 0.930 . S
H1114 C1102 0.956 . S
H1115 C1102 0.961 . S
H1116 C1102 0.961 . S
H1117 C1103 0.958 . S
H1118 C1103 0.961 . S
H1119 C1103 0.960 . S
C1120 C1121 1.391 . S
C1120 C1122 1.394 . S
C1120 H1136 0.931 . S
C1121 C1120 1.391 . S
C1121 C1125 1.376 . S
C1122 C1120 1.394 . S
C1122 C1123 1.369 . S
C1122 C1126 1.531 . S
C1123 C1122 1.369 . S
C1123 C1124 1.410 . S
C1123 C1131 1.503 . S
C1124 C1123 1.410 . S
C1124 C1125 1.392 . S
C1124 C1127 1.511 . S
C1125 C1121 1.376 . S
C1125 C1124 1.392 . S
C1125 H1137 0.929 . S
C1126 C1122 1.531 . S
C1126 H1138 0.960 . S
C1126 H1139 0.962 . S
C1126 H1140 0.960 . S
C1127 C1124 1.511 . S
C1127 H1141 0.961 . S
C1127 H1142 0.961 . S
C1127 H1143 0.961 . S
C1128 C1129 1.370 . S
C1128 C1130 1.363 . S
C1128 H1144 0.931 . S
C1129 C1128 1.370 . S
C1129 C1133 1.408 . S
C1130 C1128 1.363 . S
C1130 C1131 1.370 . S
C1130 C1134 1.524 . S
C1131 C1123 1.503 . S
C1131 C1130 1.370 . S
C1131 C1132 1.403 . S
C1132 C1131 1.403 . S
C1132 C1133 1.404 . S
C1132 C1135 1.539 . S
C1133 C1129 1.408 . S
C1133 C1132 1.404 . S
C1133 H1145 0.930 . S
C1134 C1130 1.524 . S
C1134 H1146 0.956 . S
C1134 H1147 0.961 . S
C1134 H1148 0.961 . S
C1135 C1132 1.539 . S
C1135 H1149 0.958 . S
C1135 H1150 0.961 . S
C1135 H1151 0.960 . S
H1136 C1120 0.931 . S
H1137 C1125 0.929 . S
H1138 C1126 0.960 . S
H1139 C1126 0.962 . S
H1140 C1126 0.960 . S
H1141 C1127 0.961 . S
H1142 C1127 0.961 . S
H1143 C1127 0.961 . S
H1144 C1128 0.931 . S
H1145 C1133 0.930 . S
H1146 C1134 0.956 . S
H1147 C1134 0.961 . S
H1148 C1134 0.961 . S
H1149 C1135 0.958 . S
H1150 C1135 0.961 . S
H1151 C1135 0.960 . S
C1152 C1153 1.391 . S
C1152 C1154 1.394 . S
C1152 H1168 0.931 . S
C1153 C1152 1.391 . S
C1153 C1157 1.376 . S
C1154 C1152 1.394 . S
C1154 C1155 1.369 . S
C1154 C1158 1.531 . S
C1155 C1154 1.369 . S
C1155 C1156 1.410 . S
C1155 C1163 1.503 . S
C1156 C1155 1.410 . S
C1156 C1157 1.392 . S
C1156 C1159 1.511 . S
C1157 C1153 1.376 . S
C1157 C1156 1.392 . S
C1157 H1169 0.929 . S
C1158 C1154 1.531 . S
C1158 H1170 0.960 . S
C1158 H1171 0.962 . S
C1158 H1172 0.960 . S
C1159 C1156 1.511 . S
C1159 H1173 0.961 . S
C1159 H1174 0.961 . S
C1159 H1175 0.961 . S
C1160 C1161 1.370 . S
C1160 C1162 1.363 . S
C1160 H1176 0.931 . S
C1161 C1160 1.370 . S
C1161 C1165 1.408 . S
C1162 C1160 1.363 . S
C1162 C1163 1.370 . S
C1162 C1166 1.524 . S
C1163 C1155 1.503 . S
C1163 C1162 1.370 . S
C1163 C1164 1.403 . S
C1164 C1163 1.403 . S
C1164 C1165 1.404 . S
C1164 C1167 1.539 . S
C1165 C1161 1.408 . S
C1165 C1164 1.404 . S
C1165 H1177 0.930 . S
C1166 C1162 1.524 . S
C1166 H1178 0.956 . S
C1166 H1179 0.961 . S
C1166 H1180 0.961 . S
C1167 C1164 1.539 . S
C1167 H1181 0.958 . S
C1167 H1182 0.961 . S
C1167 H1183 0.960 . S
H1168 C1152 0.931 . S
H1169 C1157 0.929 . S
H1170 C1158 0.960 . S
H1171 C1158 0.962 . S
H1172 C1158 0.960 . S
H1173 C1159 0.961 . S
H1174 C1159 0.961 . S
H1175 C1159 0.961 . S
H1176 C1160 0.931 . S
H1177 C1165 0.930 . S
H1178 C1166 0.956 . S
H1179 C1166 0.961 . S
H1180 C1166 0.961 . S
H1181 C1167 0.958 . S
H1182 C1167 0.961 . S
H1183 C1167 0.960 . S
C1184 C1185 1.391 . S
C1184 C1186 1.394 . S
C1184 H1200 0.931 . S
C1185 C1184 1.391 . S
C1185 C1189 1.376 . S
C1186 C1184 1.394 . S
C1186 C1187 1.369 . S
C1186 C1190 1.531 . S
C1187 C1186 1.369 . S
C1187 C1188 1.410 . S
C1187 C1195 1.503 . S
C1188 C1187 1.410 . S
C1188 C1189 1.392 . S
C1188 C1191 1.511 . S
C1189 C1185 1.376 . S
C1189 C1188 1.392 . S
C1189 H1201 0.929 . S
C1190 C1186 1.531 . S
C1190 H1202 0.960 . S
C1190 H1203 0.962 . S
C1190 H1204 0.960 . S
C1191 C1188 1.511 . S
C1191 H1205 0.961 . S
C1191 H1206 0.961 . S
C1191 H1207 0.961 . S
C1192 C1193 1.370 . S
C1192 C1194 1.363 . S
C1192 H1208 0.931 . S
C1193 C1192 1.370 . S
C1193 C1197 1.408 . S
C1194 C1192 1.363 . S
C1194 C1195 1.370 . S
C1194 C1198 1.524 . S
C1195 C1187 1.503 . S
C1195 C1194 1.370 . S
C1195 C1196 1.403 . S
C1196 C1195 1.403 . S
C1196 C1197 1.404 . S
C1196 C1199 1.539 . S
C1197 C1193 1.408 . S
C1197 C1196 1.404 . S
C1197 H1209 0.930 . S
C1198 C1194 1.524 . S
C1198 H1210 0.956 . S
C1198 H1211 0.961 . S
C1198 H1212 0.961 . S
C1199 C1196 1.539 . S
C1199 H1213 0.958 . S
C1199 H1214 0.961 . S
C1199 H1215 0.960 . S
H1200 C1184 0.931 . S
H1201 C1189 0.929 . S
H1202 C1190 0.960 . S
H1203 C1190 0.962 . S
H1204 C1190 0.960 . S
H1205 C1191 0.961 . S
H1206 C1191 0.961 . S
H1207 C1191 0.961 . S
H1208 C1192 0.931 . S
H1209 C1197 0.930 . S
H1210 C1198 0.956 . S
H1211 C1198 0.961 . S
H1212 C1198 0.961 . S
H1213 C1199 0.958 . S
H1214 C1199 0.961 . S
H1215 C1199 0.960 . S
C1216 C1217 1.391 . S
C1216 C1218 1.394 . S
C1216 H1232 0.931 . S
C1217 C1216 1.391 . S
C1217 C1221 1.376 . S
C1218 C1216 1.394 . S
C1218 C1219 1.369 . S
C1218 C1222 1.531 . S
C1219 C1218 1.369 . S
C1219 C1220 1.410 . S
C1219 C1227 1.503 . S
C1220 C1219 1.410 . S
C1220 C1221 1.392 . S
C1220 C1223 1.511 . S
C1221 C1217 1.376 . S
C1221 C1220 1.392 . S
C1221 H1233 0.929 . S
C1222 C1218 1.531 . S
C1222 H1234 0.960 . S
C1222 H1235 0.962 . S
C1222 H1236 0.960 . S
C1223 C1220 1.511 . S
C1223 H1237 0.961 . S
C1223 H1238 0.961 . S
C1223 H1239 0.961 . S
C1224 C1225 1.370 . S
C1224 C1226 1.363 . S
C1224 H1240 0.931 . S
C1225 C1224 1.370 . S
C1225 C1229 1.408 . S
C1226 C1224 1.363 . S
C1226 C1227 1.370 . S
C1226 C1230 1.524 . S
C1227 C1219 1.503 . S
C1227 C1226 1.370 . S
C1227 C1228 1.403 . S
C1228 C1227 1.403 . S
C1228 C1229 1.404 . S
C1228 C1231 1.539 . S
C1229 C1225 1.408 . S
C1229 C1228 1.404 . S
C1229 H1241 0.930 . S
C1230 C1226 1.524 . S
C1230 H1242 0.956 . S
C1230 H1243 0.961 . S
C1230 H1244 0.961 . S
C1231 C1228 1.539 . S
C1231 H1245 0.958 . S
C1231 H1246 0.961 . S
C1231 H1247 0.960 . S
H1232 C1216 0.931 . S
H1233 C1221 0.929 . S
H1234 C1222 0.960 . S
H1235 C1222 0.962 . S
H1236 C1222 0.960 . S
H1237 C1223 0.961 . S
H1238 C1223 0.961 . S
H1239 C1223 0.961 . S
H1240 C1224 0.931 . S
H1241 C1229 0.930 . S
H1242 C1230 0.956 . S
H1243 C1230 0.961 . S
H1244 C1230 0.961 . S
H1245 C1231 0.958 . S
H1246 C1231 0.961 . S
H1247 C1231 0.960 . S
C225 C6 0.958 . S
C233 C62 0.989 . S
C257 C76 0.978 . S
C265 C20 0.986 . S
C289 C34 0.975 . S
C297 C90 1.000 . S
C321 C48 1.025 . S
C329 C104 1.019 . S
C353 C118 1.024 . S
C361 C174 0.997 . S
C385 C188 0.975 . S
C393 C132 0.984 . S
C417 C146 0.989 . S
C425 C202 0.986 . S
C449 C160 1.030 . S
C457 C216 1.000 . S
C481 C8 1.711 . S
C489 C219 1.672 . S
C513 C177 1.692 . S
C521 C22 1.712 . S
C545 C36 1.709 1_556 S
C553 C191 1.670 . S
C577 C205 1.659 . S
C585 C50 1.711 . S
C609 C135 1.679 . S
C617 C64 1.710 1_554 S
C641 C149 1.695 . S
C649 C78 1.710 . S
C673 C163 1.682 . S
C681 C92 1.710 1_554 S
C705 C121 1.659 . S
C713 C106 1.711 . S
C737 C120 1.710 1_554 S
C745 C107 1.671 . S
C769 C65 1.686 . S
C777 C134 1.710 . S
C801 C79 1.655 . S
C809 C148 1.711 1_554 S
C833 C162 1.709 . S
C841 C93 1.685 . S
C865 C23 1.682 . S
C873 C176 1.710 1_556 S
C897 C190 1.708 . S
C905 C37 1.686 . S
C929 C204 1.711 . S
C937 C51 1.686 . S
C961 C218 1.706 . S
C969 C9 1.687 . S
C993 C105 1.227 . S
C1001 C7 1.267 . S
C1025 C21 1.240 . S
C1033 C63 1.274 . S
C1057 C35 1.296 . S
C1065 C77 1.263 . S
C1089 C49 1.291 . S
C1097 C91 1.287 . S
C1121 C217 1.312 . S
C1129 C119 1.276 . S
C1153 C175 1.221 . S
C1161 C133 1.269 . S
C1185 C189 1.227 . S
C1193 C147 1.247 . S
C1217 C203 1.232 . S
C1225 C161 1.246 . S
