# Generated by pormake.
# Topology smd, (6)-cn, num edge types: 1
# Building blocks:
#     Node 0, Type 0, BuildingBlock: CUWYAW_clean_sbu_0, # of connection points: 6
#     Node 1, Type 0, BuildingBlock: CUWYAW_clean_sbu_0, # of connection points: 6
#     Node 2, Type 0, BuildingBlock: CUWYAW_clean_sbu_0, # of connection points: 6
#     Node 3, Type 0, BuildingBlock: CUWYAW_clean_sbu_0, # of connection points: 6
#     Node 4, Type 0, BuildingBlock: CUWYAW_clean_sbu_0, # of connection points: 6
#     Node 5, Type 0, BuildingBlock: CUWYAW_clean_sbu_0, # of connection points: 6
#     Node 6, Type 0, BuildingBlock: CUWYAW_clean_sbu_0, # of connection points: 6
#     Node 7, Type 0, BuildingBlock: CUWYAW_clean_sbu_0, # of connection points: 6
#     Node 8, Type 0, BuildingBlock: CUWYAW_clean_sbu_0, # of connection points: 6
#     Node 9, Type 0, BuildingBlock: CUWYAW_clean_sbu_0, # of connection points: 6
#     Node 10, Type 0, BuildingBlock: CUWYAW_clean_sbu_0, # of connection points: 6
#     Node 11, Type 0, BuildingBlock: CUWYAW_clean_sbu_0, # of connection points: 6
#     Node 12, Type 0, BuildingBlock: CUWYAW_clean_sbu_0, # of connection points: 6
#     Node 13, Type 0, BuildingBlock: CUWYAW_clean_sbu_0, # of connection points: 6
#     Node 14, Type 0, BuildingBlock: CUWYAW_clean_sbu_0, # of connection points: 6
#     Node 15, Type 0, BuildingBlock: CUWYAW_clean_sbu_0, # of connection points: 6
#     Node 16, Type 0, BuildingBlock: CUWYAW_clean_sbu_0, # of connection points: 6
#     Node 17, Type 0, BuildingBlock: CUWYAW_clean_sbu_0, # of connection points: 6
#     Edge 18, Type (0, 0), BuildingBlock: XUDNAN_clean_linker_2, # of connection points: 2
#     Edge 19, Type (0, 0), BuildingBlock: XUDNAN_clean_linker_2, # of connection points: 2
#     Edge 20, Type (0, 0), BuildingBlock: XUDNAN_clean_linker_2, # of connection points: 2
#     Edge 21, Type (0, 0), BuildingBlock: XUDNAN_clean_linker_2, # of connection points: 2
#     Edge 22, Type (0, 0), BuildingBlock: XUDNAN_clean_linker_2, # of connection points: 2
#     Edge 23, Type (0, 0), BuildingBlock: XUDNAN_clean_linker_2, # of connection points: 2
#     Edge 24, Type (0, 0), BuildingBlock: XUDNAN_clean_linker_2, # of connection points: 2
#     Edge 25, Type (0, 0), BuildingBlock: XUDNAN_clean_linker_2, # of connection points: 2
#     Edge 26, Type (0, 0), BuildingBlock: XUDNAN_clean_linker_2, # of connection points: 2
#     Edge 27, Type (0, 0), BuildingBlock: XUDNAN_clean_linker_2, # of connection points: 2
#     Edge 28, Type (0, 0), BuildingBlock: XUDNAN_clean_linker_2, # of connection points: 2
#     Edge 29, Type (0, 0), BuildingBlock: XUDNAN_clean_linker_2, # of connection points: 2
#     Edge 30, Type (0, 0), BuildingBlock: XUDNAN_clean_linker_2, # of connection points: 2
#     Edge 31, Type (0, 0), BuildingBlock: XUDNAN_clean_linker_2, # of connection points: 2
#     Edge 32, Type (0, 0), BuildingBlock: XUDNAN_clean_linker_2, # of connection points: 2
#     Edge 33, Type (0, 0), BuildingBlock: XUDNAN_clean_linker_2, # of connection points: 2
#     Edge 34, Type (0, 0), BuildingBlock: XUDNAN_clean_linker_2, # of connection points: 2
#     Edge 35, Type (0, 0), BuildingBlock: XUDNAN_clean_linker_2, # of connection points: 2
#     Edge 36, Type (0, 0), BuildingBlock: XUDNAN_clean_linker_2, # of connection points: 2
#     Edge 37, Type (0, 0), BuildingBlock: XUDNAN_clean_linker_2, # of connection points: 2
#     Edge 38, Type (0, 0), BuildingBlock: XUDNAN_clean_linker_2, # of connection points: 2
#     Edge 39, Type (0, 0), BuildingBlock: XUDNAN_clean_linker_2, # of connection points: 2
#     Edge 40, Type (0, 0), BuildingBlock: XUDNAN_clean_linker_2, # of connection points: 2
#     Edge 41, Type (0, 0), BuildingBlock: XUDNAN_clean_linker_2, # of connection points: 2
#     Edge 42, Type (0, 0), BuildingBlock: XUDNAN_clean_linker_2, # of connection points: 2
#     Edge 43, Type (0, 0), BuildingBlock: XUDNAN_clean_linker_2, # of connection points: 2
#     Edge 44, Type (0, 0), BuildingBlock: XUDNAN_clean_linker_2, # of connection points: 2
#     Edge 45, Type (0, 0), BuildingBlock: XUDNAN_clean_linker_2, # of connection points: 2
#     Edge 46, Type (0, 0), BuildingBlock: XUDNAN_clean_linker_2, # of connection points: 2
#     Edge 47, Type (0, 0), BuildingBlock: XUDNAN_clean_linker_2, # of connection points: 2
#     Edge 48, Type (0, 0), BuildingBlock: XUDNAN_clean_linker_2, # of connection points: 2
#     Edge 49, Type (0, 0), BuildingBlock: XUDNAN_clean_linker_2, # of connection points: 2
#     Edge 50, Type (0, 0), BuildingBlock: XUDNAN_clean_linker_2, # of connection points: 2
#     Edge 51, Type (0, 0), BuildingBlock: XUDNAN_clean_linker_2, # of connection points: 2
#     Edge 52, Type (0, 0), BuildingBlock: XUDNAN_clean_linker_2, # of connection points: 2
#     Edge 53, Type (0, 0), BuildingBlock: XUDNAN_clean_linker_2, # of connection points: 2
#     Edge 54, Type (0, 0), BuildingBlock: XUDNAN_clean_linker_2, # of connection points: 2
#     Edge 55, Type (0, 0), BuildingBlock: XUDNAN_clean_linker_2, # of connection points: 2
#     Edge 56, Type (0, 0), BuildingBlock: XUDNAN_clean_linker_2, # of connection points: 2
#     Edge 57, Type (0, 0), BuildingBlock: XUDNAN_clean_linker_2, # of connection points: 2
#     Edge 58, Type (0, 0), BuildingBlock: XUDNAN_clean_linker_2, # of connection points: 2
#     Edge 59, Type (0, 0), BuildingBlock: XUDNAN_clean_linker_2, # of connection points: 2
#     Edge 60, Type (0, 0), BuildingBlock: XUDNAN_clean_linker_2, # of connection points: 2
#     Edge 61, Type (0, 0), BuildingBlock: XUDNAN_clean_linker_2, # of connection points: 2
#     Edge 62, Type (0, 0), BuildingBlock: XUDNAN_clean_linker_2, # of connection points: 2
#     Edge 63, Type (0, 0), BuildingBlock: XUDNAN_clean_linker_2, # of connection points: 2
#     Edge 64, Type (0, 0), BuildingBlock: XUDNAN_clean_linker_2, # of connection points: 2
#     Edge 65, Type (0, 0), BuildingBlock: XUDNAN_clean_linker_2, # of connection points: 2
#     Edge 66, Type (0, 0), BuildingBlock: XUDNAN_clean_linker_2, # of connection points: 2
#     Edge 67, Type (0, 0), BuildingBlock: XUDNAN_clean_linker_2, # of connection points: 2
#     Edge 68, Type (0, 0), BuildingBlock: XUDNAN_clean_linker_2, # of connection points: 2
#     Edge 69, Type (0, 0), BuildingBlock: XUDNAN_clean_linker_2, # of connection points: 2
#     Edge 70, Type (0, 0), BuildingBlock: XUDNAN_clean_linker_2, # of connection points: 2
#     Edge 71, Type (0, 0), BuildingBlock: XUDNAN_clean_linker_2, # of connection points: 2
# Relax obj value: 0.265
# Max RMSD: 0.347
# Mean RMSD: 0.320
data_MOF--net-smd--node1-CUWYAW_clean_sbu_0--edge1-XUDNAN_clean_linker_2
_symmetry_space_group_name_H-M    P1
_symmetry_Int_Tables_number       1
_symmetry_cell_setting            triclinic
loop_
_symmetry_equiv_pos_as_xyz
'x, y, z'
_cell_length_a     65.199374
_cell_length_b     65.666078
_cell_length_c     25.350833
_cell_angle_alpha  92.724096
_cell_angle_beta   92.50396
_cell_angle_gamma 119.80686
loop_
_atom_site_label
_atom_site_type_symbol
_atom_site_fract_x
_atom_site_fract_y
_atom_site_fract_z
_atom_type_partial_charge
C0 C 0.99495 0.22859 0.37423 0.0
Eu1 Eu 1.00912 0.23755 0.47422 0.0
C2 C 1.00554 0.23486 0.32339 0.0
C3 C 0.99358 0.23967 0.28305 0.0
C4 C 1.00163 0.24295 0.23239 0.0
C5 C 0.02165 0.24123 0.22131 0.0
C6 C 0.03463 0.23811 0.2627 0.0
C7 C 0.02671 0.2351 0.31363 0.0
C8 C 0.99089 0.25728 0.54193 0.0
C9 C 0.0562 0.28839 0.48217 0.0
C10 C 0.03775 0.26974 0.68196 0.0
Eu11 Eu 0.03497 0.25663 0.58217 0.0
C12 C 0.03602 0.26054 0.73468 0.0
C13 C 0.05217 0.25426 0.75616 0.0
C14 C 0.04999 0.2464 0.80727 0.0
C15 C 0.03175 0.24489 0.83747 0.0
C16 C 1.01513 0.25023 0.81497 0.0
C17 C 1.01726 0.25799 0.76425 0.0
C18 C 0.05618 0.23443 0.53883 0.0
C19 C 0.9924 0.20042 0.55795 0.0
O20 O 0.99971 0.21482 0.40158 0.0
O21 O 0.99522 0.24563 0.40354 0.0
O22 O 0.97787 0.23738 0.51412 0.0
O23 O 1.01221 0.26491 0.53329 0.0
O24 O 0.0434 0.2682 0.45368 0.0
O25 O 0.05488 0.28957 0.53467 0.0
O26 O 1.01804 0.25898 0.65149 0.0
O27 O 0.05666 0.27543 0.65593 0.0
O28 O 0.06245 0.24588 0.58505 0.0
O29 O 0.03911 0.23558 0.51545 0.0
O30 O 1.00438 0.21888 0.59311 0.0
O31 O 0.99347 0.20264 0.50695 0.0
H32 H 0.97743 0.23991 0.29018 0.0
H33 H 0.99131 0.24534 0.20115 0.0
H34 H 0.05035 0.23714 0.25516 0.0
H35 H 0.03658 0.23205 0.3447 0.0
H36 H 0.06663 0.25579 0.73399 0.0
H37 H 0.06305 0.24242 0.82397 0.0
H38 H 1.00073 0.24889 0.83717 0.0
H39 H 1.00438 0.26241 0.74835 0.0
C40 C 0.787 0.80342 0.6638 0.0
Eu41 Eu 0.79144 0.79471 0.56529 0.0
C42 C 0.78869 0.79544 0.71639 0.0
C43 C 0.7695 0.78837 0.74798 0.0
C44 C 0.77206 0.78523 0.80143 0.0
C45 C 0.79386 0.78918 0.82392 0.0
C46 C 0.8124 0.79412 0.79145 0.0
C47 C 0.80981 0.79711 0.73776 0.0
C48 C 0.75492 0.77929 0.48802 0.0
C49 C 0.78323 0.74199 0.55413 0.0
C50 C 0.79558 0.76325 0.3632 0.0
Eu51 Eu 0.79929 0.77861 0.46147 0.0
C52 C 0.80086 0.77439 0.31227 0.0
C53 C 0.81803 0.77368 0.28195 0.0
C54 C 0.82134 0.7819 0.23136 0.0
C55 C 0.80767 0.79114 0.21051 0.0
C56 C 0.79144 0.79312 0.24172 0.0
C57 C 0.78799 0.78476 0.29212 0.0
C58 C 0.84008 0.80095 0.527 0.0
C59 C 0.81082 0.83239 0.48437 0.0
O60 O 0.80668 0.81544 0.6406 0.0
O61 O 0.76913 0.7886 0.63096 0.0
O62 O 0.76208 0.79838 0.51853 0.0
O63 O 0.76724 0.7703 0.49988 0.0
O64 O 0.78675 0.76012 0.58557 0.0
O65 O 0.78631 0.74396 0.50257 0.0
O66 O 0.77819 0.76324 0.38698 0.0
O67 O 0.81353 0.76752 0.3963 0.0
O68 O 0.83858 0.8046 0.4775 0.0
O69 O 0.81949 0.7868 0.53993 0.0
O70 O 0.80124 0.81402 0.44873 0.0
O71 O 0.81417 0.82942 0.53407 0.0
H72 H 0.75301 0.78677 0.73218 0.0
H73 H 0.75764 0.7816 0.8261 0.0
H74 H 0.82939 0.79731 0.8084 0.0
H75 H 0.82478 0.80214 0.71402 0.0
H76 H 0.82835 0.76606 0.29666 0.0
H77 H 0.83407 0.7804 0.20781 0.0
H78 H 0.78063 0.80008 0.22613 0.0
H79 H 0.7747 0.78578 0.31446 0.0
C80 C 0.23512 0.03247 0.35979 0.0
Eu81 Eu 0.24107 0.02619 0.45811 0.0
C82 C 0.23901 0.02476 0.30758 0.0
C83 C 0.25797 0.04074 0.28009 0.0
C84 C 0.25999 0.035 0.22776 0.0
C85 C 0.24316 0.01318 0.20235 0.0
C86 C 0.22517 0.99649 0.23065 0.0
C87 C 0.22302 1.00227 0.28299 0.0
C88 C 0.28291 0.04797 0.51957 0.0
C89 C 0.25485 0.98429 0.4605 0.0
C90 C 0.25729 1.00902 0.66181 0.0
Eu91 Eu 0.24271 1.00677 0.56429 0.0
C92 C 0.24865 1.01146 0.71317 0.0
C93 C 0.22637 0.99436 0.72779 0.0
C94 C 0.22026 0.99522 0.77958 0.0
C95 C 0.23628 0.01319 0.81709 0.0
C96 C 0.25717 0.03182 0.80079 0.0
C97 C 0.26337 0.03089 0.74907 0.0
C98 C 0.1967 0.98296 0.52552 0.0
C99 C 0.22967 0.04946 0.55284 0.0
O100 O 0.21825 0.01654 0.38558 0.0
O101 O 0.25405 0.04698 0.39045 0.0
O102 O 0.27448 0.05976 0.49616 0.0
O103 O 0.26902 0.02641 0.50969 0.0
O104 O 0.24841 0.99697 0.43233 0.0
O105 O 0.25523 0.98553 0.51332 0.0
O106 O 0.26513 0.02748 0.63431 0.0
O107 O 0.2449 0.98894 0.63273 0.0
O108 O 0.20434 0.97994 0.57071 0.0
O109 O 0.2137 0.99902 0.50339 0.0
O110 O 0.23994 0.04012 0.58158 0.0
O111 O 0.22376 0.04308 0.50219 0.0
H112 H 0.27063 0.0581 0.29823 0.0
H113 H 0.27408 0.04798 0.20633 0.0
H114 H 0.21199 0.97958 0.21133 0.0
H115 H 0.20829 0.9895 0.30325 0.0
H116 H 0.21428 0.9796 0.70036 0.0
H117 H 0.20401 0.98073 0.79161 0.0
H118 H 0.26978 0.0458 0.82926 0.0
H119 H 0.28033 0.04461 0.73809 0.0
C120 C 0.99495 0.76518 0.4014 0.0
Eu121 Eu 1.0106 0.78102 0.49935 0.0
C122 C 1.00241 0.77479 0.34982 0.0
C123 C 0.9856 0.77434 0.31267 0.0
C124 C 0.99207 0.78255 0.26283 0.0
C125 C 1.01549 0.79127 0.24912 0.0
C126 C 0.0326 0.79283 0.2874 0.0
C127 C 0.02613 0.78477 0.33744 0.0
C128 C 0.98903 0.79965 0.55834 0.0
C129 C 0.05322 0.83382 0.52091 0.0
C130 C 0.04693 0.81009 0.7045 0.0
Eu131 Eu 0.0313 0.79488 0.60607 0.0
C132 C 0.04031 0.80237 0.75823 0.0
C133 C 0.05511 0.79706 0.78945 0.0
C134 C 0.05169 0.79346 0.84292 0.0
C135 C 0.03337 0.79505 0.86625 0.0
C136 C 1.01728 0.79833 0.83429 0.0
C137 C 0.02076 0.80205 0.78059 0.0
C138 C 0.05199 0.77628 0.54275 0.0
C139 C 0.9908 0.74268 0.58871 0.0
O140 O 1.00894 0.75987 0.4286 0.0
O141 O 0.98654 0.77568 0.43091 0.0
O142 O 0.9966 0.80601 0.5123 0.0
O143 O 0.99496 0.78504 0.57299 0.0
O144 O 0.04264 0.81572 0.48506 0.0
O145 O 0.04889 0.83074 0.57125 0.0
O146 O 0.03389 0.81649 0.67705 0.0
O147 O 0.05392 0.79808 0.67541 0.0
O148 O 0.04602 0.77033 0.5901 0.0
O149 O 0.04646 0.79125 0.53054 0.0
O150 O 0.99936 0.76113 0.62283 0.0
O151 O 0.9957 0.74557 0.53836 0.0
H152 H 0.96735 0.76732 0.32198 0.0
H153 H 0.97865 0.78171 0.23464 0.0
H154 H 0.0508 0.7995 0.27809 0.0
H155 H 0.03954 0.786 0.36618 0.0
H156 H 0.07015 0.79693 0.77322 0.0
H157 H 0.06423 0.79084 0.86689 0.0
H158 H 1.00307 0.79971 0.85163 0.0
H159 H 1.00885 0.8058 0.75743 0.0
C160 C 0.25686 0.27279 0.69933 0.0
Eu161 Eu 0.24496 0.2561 0.60064 0.0
C162 C 0.25065 0.26224 0.75097 0.0
C163 C 0.23274 0.26287 0.77878 0.0
C164 C 0.2281 0.25434 0.82903 0.0
C165 C 0.24113 0.24486 0.85219 0.0
C166 C 0.25828 0.24325 0.82362 0.0
C167 C 0.26311 0.252 0.77377 0.0
C168 C 0.19961 0.23234 0.55741 0.0
C169 C 0.23035 0.19882 0.58471 0.0
C170 C 0.23693 0.21899 0.39414 0.0
Eu171 Eu 0.24532 0.23143 0.4946 0.0
C172 C 0.24243 0.23029 0.34365 0.0
C173 C 0.26342 0.23536 0.32028 0.0
C174 C 0.26605 0.241 0.26771 0.0
C175 C 0.24784 0.24183 0.23808 0.0
C176 C 0.22811 0.23946 0.26302 0.0
C177 C 0.22533 0.23356 0.31544 0.0
C178 C 0.28522 0.24912 0.56227 0.0
C179 C 0.25922 0.28616 0.49466 0.0
O180 O 0.26943 0.26675 0.67073 0.0
O181 O 0.24039 0.27401 0.67054 0.0
O182 O 0.20614 0.24484 0.60224 0.0
O183 O 0.21747 0.23295 0.53808 0.0
O184 O 0.24005 0.21895 0.61594 0.0
O185 O 0.22548 0.1986 0.53407 0.0
O186 O 0.2226 0.22266 0.42252 0.0
O187 O 0.25412 0.21881 0.42281 0.0
O188 O 0.27628 0.22907 0.53369 0.0
O189 O 0.27302 0.25878 0.55232 0.0
O190 O 0.26029 0.26819 0.4731 0.0
O191 O 0.25399 0.2867 0.54512 0.0
H192 H 0.22268 0.27044 0.76228 0.0
H193 H 0.21466 0.25558 0.85031 0.0
H194 H 0.26871 0.2362 0.84087 0.0
H195 H 0.27704 0.25124 0.75374 0.0
H196 H 0.27707 0.23335 0.34119 0.0
H197 H 0.2814 0.2428 0.24887 0.0
H198 H 0.21383 0.23992 0.24059 0.0
H199 H 0.20906 0.23004 0.3326 0.0
C200 C 0.79833 0.0288 0.37695 0.0
Eu201 Eu 0.80255 0.02591 0.47812 0.0
C202 C 0.80623 0.02313 0.32779 0.0
C203 C 0.82815 0.0392 0.30978 0.0
C204 C 0.83246 0.03711 0.25707 0.0
C205 C 0.8148 0.01915 0.22199 0.0
C206 C 0.79449 1.00114 0.24177 0.0
C207 C 0.79019 1.00316 0.29456 0.0
C208 C 0.84307 0.05492 0.53853 0.0
C209 C 0.8145 0.98354 0.49784 0.0
C210 C 0.80012 1.00158 0.67761 0.0
Eu211 Eu 0.7997 1.00971 0.57822 0.0
C212 C 0.79713 1.00912 0.73067 0.0
C213 C 0.77931 0.99245 0.7594 0.0
C214 C 0.77844 0.99749 0.81287 0.0
C215 C 0.79539 0.01928 0.83831 0.0
C216 C 0.81224 0.03662 0.80884 0.0
C217 C 0.81317 0.03155 0.75522 0.0
C218 C 0.75822 0.98484 0.513 0.0
C219 C 0.78753 0.0502 0.56719 0.0
O220 O 0.78349 1.01091 0.4015 0.0
O221 O 0.81394 0.04639 0.40923 0.0
O222 O 0.83168 0.06176 0.50785 0.0
O223 O 0.8326 0.03247 0.53661 0.0
O224 O 0.80764 0.99382 0.46323 0.0
O225 O 0.81636 0.98961 0.54831 0.0
O226 O 0.81909 0.01576 0.65468 0.0
O227 O 0.78123 0.99075 0.64481 0.0
O228 O 0.76775 0.97518 0.54075 0.0
O229 O 0.77095 1.00678 0.52031 0.0
O230 O 0.79905 0.04322 0.59823 0.0
O231 O 0.78259 0.0422 0.5167 0.0
H232 H 0.84107 0.05449 0.33483 0.0
H233 H 0.84837 0.05102 0.24233 0.0
H234 H 0.78068 0.98711 0.21528 0.0
H235 H 0.77335 0.99022 0.30787 0.0
H236 H 0.76675 0.97508 0.74112 0.0
H237 H 0.76512 0.98401 0.83489 0.0
H238 H 0.82553 0.05353 0.82793 0.0
H239 H 0.82706 0.04476 0.73382 0.0
C240 C 0.71683 0.59408 0.97479 0.0
Eu241 Eu 0.70123 0.58401 0.87535 0.0
C242 C 0.70602 0.58941 0.02606 0.0
C243 C 0.71504 0.60733 0.06725 0.0
C244 C 0.70598 0.60286 0.11711 0.0
C245 C 0.68797 0.58016 0.12733 0.0
C246 C 0.67819 0.56258 0.08475 0.0
C247 C 0.68694 0.56723 0.03466 0.0
C248 C 0.72035 0.61788 0.80441 0.0
C249 C 0.65217 0.58461 0.87557 0.0
C250 C 0.66162 0.57626 0.67306 0.0
Eu251 Eu 0.67317 0.57348 0.7717 0.0
C252 C 0.66695 0.57116 0.61908 0.0
C253 C 0.65657 0.54803 0.59532 0.0
C254 C 0.6594 0.54392 0.54199 0.0
C255 C 0.67241 0.56284 0.51084 0.0
C256 C 0.68394 0.58583 0.53589 0.0
C257 C 0.68122 0.58989 0.5891 0.0
C258 C 0.65109 0.53238 0.81763 0.0
C259 C 0.71787 0.56275 0.78794 0.0
O260 O 0.71508 0.57602 0.94624 0.0
O261 O 0.71333 0.60833 0.94637 0.0
O262 O 0.73244 0.611 0.83251 0.0
O263 O 0.69898 0.60665 0.81512 0.0
O264 O 0.66713 0.57982 0.90045 0.0
O265 O 0.65213 0.58598 0.82324 0.0
O266 O 0.67868 0.59385 0.7026 0.0
O267 O 0.64876 0.55851 0.70045 0.0
O268 O 0.64623 0.53594 0.77039 0.0
O269 O 0.66917 0.55076 0.8403 0.0
O270 O 0.70568 0.56912 0.75583 0.0
O271 O 0.71507 0.56221 0.83887 0.0
H272 H 0.72939 0.62475 0.06111 0.0
H273 H 0.71345 0.61724 0.14769 0.0
H274 H 0.66442 0.54483 0.09017 0.0
H275 H 0.67922 0.55322 1.0031 0.0
H276 H 0.64563 0.53309 0.61732 0.0
H277 H 0.65078 0.5259 0.5249 0.0
H278 H 0.69398 0.601 0.51382 0.0
H279 H 0.68946 0.6079 0.60614 0.0
C280 C 0.4544 0.13938 0.96168 0.0
Eu281 Eu 0.45676 0.12862 0.86328 0.0
C282 C 0.45602 0.13095 1.01371 0.0
C283 C 0.43673 0.1234 0.04516 0.0
C284 C 0.43895 0.11897 0.09776 0.0
C285 C 0.46055 0.12216 0.11962 0.0
C286 C 0.4792 0.12769 0.0871 0.0
C287 C 0.47691 0.13191 0.03419 0.0
C288 C 0.4172 0.10985 0.79294 0.0
C289 C 0.44859 0.07645 0.86156 0.0
C290 C 0.45586 0.0923 0.66266 0.0
Eu291 Eu 0.46116 0.10989 0.76026 0.0
C292 C 0.46099 0.10191 0.60969 0.0
C293 C 0.47801 0.10037 0.58022 0.0
C294 C 0.48128 0.1075 0.52847 0.0
C295 C 0.46773 0.11647 0.50549 0.0
C296 C 0.45133 0.11882 0.53529 0.0
C297 C 0.44788 0.11152 0.58669 0.0
C298 C 0.50429 0.13433 0.81717 0.0
C299 C 0.47155 0.16395 0.77707 0.0
O300 O 0.47384 0.15025 0.93696 0.0
O301 O 0.43578 0.12515 0.93006 0.0
O302 O 0.42539 0.13001 0.81974 0.0
O303 O 0.43042 0.1017 0.80368 0.0
O304 O 0.45397 0.09573 0.89064 0.0
O305 O 0.449 0.07661 0.80864 0.0
O306 O 0.43966 0.09452 0.68637 0.0
O307 O 0.47361 0.09603 0.69577 0.0
O308 O 0.50027 0.1371 0.76829 0.0
O309 O 0.48455 0.12056 0.83485 0.0
O310 O 0.46122 0.14447 0.74441 0.0
O311 O 0.47707 0.16261 0.82662 0.0
H312 H 0.42036 0.12225 0.02996 0.0
H313 H 0.42446 0.1149 0.12249 0.0
H314 H 0.49603 0.13029 0.10356 0.0
H315 H 0.49191 0.13718 1.01044 0.0
H316 H 0.4884 0.09315 0.59674 0.0
H317 H 0.49416 0.10573 0.50607 0.0
H318 H 0.44065 0.12562 0.51816 0.0
H319 H 0.43454 0.11299 0.60786 0.0
C320 C 0.89151 0.3337 0.96331 0.0
Eu321 Eu 0.89985 0.33714 0.86405 0.0
C322 C 0.90335 0.33956 1.01739 0.0
C323 C 0.90311 0.32191 0.04686 0.0
C324 C 0.90979 0.32639 0.10118 0.0
C325 C 0.91692 0.34861 0.12673 0.0
C326 C 0.91885 0.36675 0.09657 0.0
C327 C 0.91193 0.36223 0.0426 0.0
C328 C 0.9179 0.31616 0.79904 0.0
C329 C 0.95463 0.37874 0.87503 0.0
C330 C 0.92462 0.36975 0.67387 0.0
Eu331 Eu 0.91691 0.36014 0.77207 0.0
C332 C 0.91316 0.36062 0.61966 0.0
C333 C 0.90353 0.37259 0.5929 0.0
C334 C 0.89796 0.36829 0.53831 0.0
C335 C 0.90199 0.35201 0.50957 0.0
C336 C 0.9089 0.33803 0.53688 0.0
C337 C 0.91453 0.34234 0.59172 0.0
C338 C 0.90235 0.38448 0.83398 0.0
C339 C 0.86136 0.31475 0.77745 0.0
O340 O 0.89505 0.35168 0.93699 0.0
O341 O 0.89037 0.31623 0.93328 0.0
O342 O 0.89825 0.30417 0.82206 0.0
O343 O 0.92685 0.33769 0.81261 0.0
O344 O 0.93699 0.36057 0.8934 0.0
O345 O 0.95269 0.38307 0.82474 0.0
O346 O 0.93289 0.35814 0.69933 0.0
O347 O 0.91477 0.37835 0.70456 0.0
O348 O 0.92239 0.39371 0.81264 0.0
O349 O 0.89124 0.36222 0.82322 0.0
O350 O 0.88002 0.32486 0.7481 0.0
O351 O 0.86435 0.32229 0.82679 0.0
H352 H 0.89658 0.30433 0.02858 0.0
H353 H 0.90847 0.31221 0.12365 0.0
H354 H 0.92417 0.38401 0.11527 0.0
H355 H 0.91229 0.37631 0.02129 0.0
H356 H 0.90208 0.38663 0.61336 0.0
H357 H 0.89278 0.37934 0.51782 0.0
H358 H 0.91229 0.32551 0.51524 0.0
H359 H 0.9216 0.33259 0.61131 0.0
C360 C 0.65783 0.09061 0.68815 0.0
Eu361 Eu 0.6716 0.10762 0.78672 0.0
C362 C 0.66152 0.10057 0.63519 0.0
C363 C 0.64331 0.10192 0.60675 0.0
C364 C 0.64557 0.10791 0.55405 0.0
C365 C 0.66607 0.1127 0.52845 0.0
C366 C 0.68503 0.11317 0.55796 0.0
C367 C 0.68276 0.10708 0.61058 0.0
C368 C 0.65568 0.13406 0.83826 0.0
C369 C 0.71634 0.16113 0.80008 0.0
C370 C 0.71347 0.14138 0.99053 0.0
Eu371 Eu 0.69766 0.12775 0.89168 0.0
C372 C 0.70491 0.13541 0.04358 0.0
C373 C 0.72089 0.13753 0.08523 0.0
C374 C 0.71352 0.13256 0.13634 0.0
C375 C 0.68995 0.1252 0.14666 0.0
C376 C 0.67375 0.12243 0.10451 0.0
C377 C 0.68118 0.12754 0.05335 0.0
C378 C 0.71666 0.10805 0.82555 0.0
C379 C 0.65249 0.07566 0.89052 0.0
O380 O 0.67671 0.09292 0.7137 0.0
O381 O 0.64404 0.09365 0.71993 0.0
O382 O 0.66159 0.13599 0.78992 0.0
O383 O 0.66156 0.12029 0.8589 0.0
O384 O 0.70563 0.14127 0.76908 0.0
O385 O 0.71176 0.1609 0.85008 0.0
O386 O 0.70446 0.15148 0.9616 0.0
O387 O 0.71597 0.12548 0.96319 0.0
O388 O 0.72937 0.12811 0.85289 0.0
O389 O 0.6954 0.10019 0.83416 0.0
O390 O 0.6681 0.0949 0.91896 0.0
O391 O 0.65051 0.07529 0.83731 0.0
H392 H 0.62686 0.09728 0.62437 0.0
H393 H 0.63071 0.10755 0.53226 0.0
H394 H 0.70095 0.11659 0.53925 0.0
H395 H 0.69732 0.1064 0.63105 0.0
H396 H 0.73916 0.14317 0.07824 0.0
H397 H 0.72623 0.13431 0.16776 0.0
H398 H 0.65545 0.1167 0.1113 0.0
H399 H 0.66845 0.12547 0.0216 0.0
C400 C 0.93143 0.56849 0.70085 0.0
Eu401 Eu 0.92237 0.57038 0.79996 0.0
C402 C 0.91969 0.56384 0.64678 0.0
C403 C 0.91599 0.54405 0.61515 0.0
C404 C 0.90835 0.54106 0.5616 0.0
C405 C 0.90421 0.55784 0.53821 0.0
C406 C 0.9066 0.57701 0.57065 0.0
C407 C 0.91431 0.58003 0.62437 0.0
C408 C 0.90614 0.53174 0.85578 0.0
C409 C 0.86908 0.56508 0.80708 0.0
C410 C 0.90082 0.58695 0.99556 0.0
Eu411 Eu 0.90788 0.57945 0.89769 0.0
C412 C 0.90798 0.58501 0.05001 0.0
C413 C 0.90681 0.59933 0.09106 0.0
C414 C 0.90978 0.59549 0.14381 0.0
C415 C 0.91396 0.57717 0.15641 0.0
C416 C 0.91711 0.56411 0.11503 0.0
C417 C 0.91412 0.56798 0.06214 0.0
C418 C 0.92833 0.61724 0.83533 0.0
C419 C 0.95863 0.58451 0.9022 0.0
O420 O 0.93561 0.58765 0.72798 0.0
O421 O 0.92471 0.55078 0.73023 0.0
O422 O 0.92556 0.54091 0.83189 0.0
O423 O 0.89629 0.54432 0.85152 0.0
O424 O 0.88719 0.57012 0.77778 0.0
O425 O 0.8716 0.56426 0.8582 0.0
O426 O 0.88741 0.56728 0.96647 0.0
O427 O 0.91701 0.60309 0.96926 0.0
O428 O 0.90848 0.61072 0.85664 0.0
O429 O 0.93548 0.60342 0.84699 0.0
O430 O 0.93878 0.57504 0.9259 0.0
O431 O 0.95779 0.58804 0.85115 0.0
H432 H 0.92005 0.53135 0.63127 0.0
H433 H 0.90701 0.52621 0.538 0.0
H434 H 0.90316 0.59005 0.55424 0.0
H435 H 0.91684 0.59546 0.64774 0.0
H436 H 0.90238 0.61275 0.08232 0.0
H437 H 0.90719 0.60586 0.17448 0.0
H438 H 0.92092 0.55026 0.12347 0.0
H439 H 0.91556 0.55704 0.03086 0.0
C440 C 0.46649 0.37732 0.69567 0.0
Eu441 Eu 0.46867 0.36221 0.78747 0.0
C442 C 0.46875 0.36967 0.6414 0.0
C443 C 0.48725 0.38506 0.61207 0.0
C444 C 0.48895 0.37828 0.56002 0.0
C445 C 0.47171 0.35618 0.53549 0.0
C446 C 0.45392 0.34037 0.56617 0.0
C447 C 0.45286 0.34688 0.61876 0.0
C448 C 0.51107 0.37844 0.84342 0.0
C449 C 0.47558 0.31609 0.79331 0.0
C450 C 0.47816 0.33938 0.98802 0.0
Eu451 Eu 0.46489 0.3399 0.89066 0.0
C452 C 0.47236 0.34384 0.04102 0.0
C453 C 0.44908 0.33183 0.05641 0.0
C454 C 0.44477 0.33394 0.10926 0.0
C455 C 0.46366 0.34814 0.14711 0.0
C456 C 0.48648 0.36207 0.13035 0.0
C457 C 0.4908 0.35984 0.07764 0.0
C458 C 0.42221 0.31452 0.8309 0.0
C459 C 0.44892 0.37793 0.89303 0.0
O460 O 0.44766 0.36303 0.71917 0.0
O461 O 0.48575 0.38689 0.72751 0.0
O462 O 0.50671 0.37091 0.79374 0.0
O463 O 0.49172 0.37461 0.8617 0.0
O464 O 0.46731 0.32694 0.76299 0.0
O465 O 0.48096 0.32239 0.84429 0.0
O466 O 0.48856 0.35787 0.9609 0.0
O467 O 0.46247 0.32029 0.95924 0.0
O468 O 0.42634 0.30903 0.87738 0.0
O469 O 0.44076 0.33241 0.81981 0.0
O470 O 0.44546 0.35829 0.91154 0.0
O471 O 0.45878 0.38442 0.84681 0.0
H472 H 0.50032 0.40246 0.62929 0.0
H473 H 0.50356 0.39061 0.53885 0.0
H474 H 0.44023 0.32318 0.54945 0.0
H475 H 0.43942 0.33417 0.64162 0.0
H476 H 0.43443 0.31999 0.02833 0.0
H477 H 0.42693 0.32342 0.12117 0.0
H478 H 0.50135 0.37323 0.15864 0.0
H479 H 0.50879 0.36971 0.06608 0.0
C480 C 0.32175 0.88624 0.02427 0.0
Eu481 Eu 0.33704 0.89983 0.12387 0.0
C482 C 0.33061 0.89309 0.9713 0.0
C483 C 0.31537 0.8933 0.93074 0.0
C484 C 0.32283 0.89862 0.87965 0.0
C485 C 0.34586 0.9042 0.86818 0.0
C486 C 0.36139 0.90465 0.90916 0.0
C487 C 0.35377 0.89889 0.96006 0.0
C488 C 0.31558 0.91575 0.19304 0.0
C489 C 0.38177 0.95254 0.11975 0.0
C490 C 0.37092 0.93917 0.32602 0.0
Eu491 Eu 0.36436 0.92342 0.22623 0.0
C492 C 0.3693 0.92953 0.379 0.0
C493 C 0.38839 0.92846 0.40406 0.0
C494 C 0.3877 0.92244 0.45666 0.0
C495 C 0.3679 0.91726 0.48548 0.0
C496 C 0.34813 0.91658 0.45922 0.0
C497 C 0.34889 0.9228 0.40683 0.0
C498 C 0.38886 0.90396 0.18578 0.0
C499 C 0.32356 0.86564 0.21211 0.0
O500 O 0.33156 0.87692 0.0532 0.0
O501 O 0.31764 0.90089 0.05226 0.0
O502 O 0.30508 0.89499 0.16797 0.0
O503 O 0.33687 0.92665 0.18129 0.0
O504 O 0.366 0.9322 0.09598 0.0
O505 O 0.38405 0.95537 0.17292 0.0
O506 O 0.35104 0.93121 0.29713 0.0
O507 O 0.38834 0.94222 0.2974 0.0
O508 O 0.39342 0.91539 0.23152 0.0
O509 O 0.37024 0.90205 0.16133 0.0
O510 O 0.33547 0.88527 0.24447 0.0
O511 O 0.32518 0.86657 0.16099 0.0
H512 H 0.29751 0.88904 0.93846 0.0
H513 H 0.31062 0.8985 0.8491 0.0
H514 H 0.37926 0.90893 0.90149 0.0
H515 H 0.36595 0.89887 0.99049 0.0
H516 H 0.40429 0.93321 0.38389 0.0
H517 H 0.40314 0.9229 0.47573 0.0
H518 H 0.33269 0.91284 0.48033 0.0
H519 H 0.33383 0.92338 0.38894 0.0
C520 C 0.12524 0.47498 0.33349 0.0
Eu521 Eu 0.124 0.46196 0.23448 0.0
C522 C 0.12602 0.46685 0.38623 0.0
C523 C 0.10971 0.46599 0.42153 0.0
C524 C 0.1109 0.46015 0.47325 0.0
C525 C 0.12836 0.4549 0.49042 0.0
C526 C 0.14398 0.45454 0.4544 0.0
C527 C 0.14291 0.46061 0.40257 0.0
C528 C 0.08865 0.4523 0.15538 0.0
C529 C 0.11453 0.41003 0.22413 0.0
C530 C 0.13915 0.43468 0.0362 0.0
Eu531 Eu 0.13764 0.44959 0.13192 0.0
C532 C 0.14156 0.44408 0.9834 0.0
C533 C 0.16253 0.45093 0.95825 0.0
C534 C 0.16403 0.45673 0.90576 0.0
C535 C 0.14455 0.45574 0.87736 0.0
C536 C 0.12434 0.451 0.90368 0.0
C537 C 0.12285 0.4452 0.95644 0.0
C538 C 0.17469 0.46804 0.20564 0.0
C539 C 0.14707 0.50293 0.1575 0.0
O540 O 0.14423 0.48266 0.30709 0.0
O541 O 0.10555 0.46225 0.30364 0.0
O542 O 0.08801 0.45791 0.20474 0.0
O543 O 0.10774 0.4524 0.15205 0.0
O544 O 0.10871 0.42436 0.24749 0.0
O545 O 0.1263 0.4158 0.17994 0.0
O546 O 0.11925 0.4282 0.05841 0.0
O547 O 0.15777 0.44566 0.06995 0.0
O548 O 0.17537 0.47565 0.159 0.0
O549 O 0.15308 0.45347 0.21371 0.0
O550 O 0.14225 0.48639 0.11879 0.0
O551 O 0.14488 0.49787 0.20705 0.0
H552 H 0.09633 0.4704 0.4094 0.0
H553 H 0.09842 0.4601 0.50016 0.0
H554 H 0.15754 0.45045 0.4669 0.0
H555 H 0.15556 0.46091 0.37585 0.0
H556 H 0.17736 0.45056 0.97824 0.0
H557 H 0.17973 0.46023 0.88601 0.0
H558 H 0.10904 0.44991 0.88224 0.0
H559 H 0.10667 0.44038 0.97526 0.0
C560 C 0.57874 0.70281 0.04954 0.0
Eu561 Eu 0.57886 0.69275 0.1472 0.0
C562 C 0.58027 0.69338 0.9968 0.0
C563 C 0.60161 0.70478 0.97223 0.0
C564 C 0.60193 0.70021 0.91817 0.0
C565 C 0.58089 0.6843 0.88797 0.0
C566 C 0.56028 0.67064 0.91353 0.0
C567 C 0.55993 0.6752 0.96779 0.0
C568 C 0.62003 0.71271 0.21316 0.0
C569 C 0.58828 0.64963 0.1407 0.0
C570 C 0.58052 0.66344 0.342 0.0
Eu571 Eu 0.57586 0.67134 0.24344 0.0
C572 C 0.57582 0.6697 0.39521 0.0
C573 C 0.55654 0.65295 0.42077 0.0
C574 C 0.55339 0.65767 0.47319 0.0
C575 C 0.56954 0.67921 0.50123 0.0
C576 C 0.58827 0.69636 0.47496 0.0
C577 C 0.59141 0.69166 0.42255 0.0
C578 C 0.53524 0.6454 0.182 0.0
C579 C 0.56556 0.71658 0.23608 0.0
O580 O 0.55938 0.69051 0.07331 0.0
O581 O 0.59786 0.71239 0.08194 0.0
O582 O 0.61159 0.72499 0.19246 0.0
O583 O 0.60626 0.69144 0.19927 0.0
O584 O 0.57875 0.66021 0.11551 0.0
O585 O 0.59189 0.653 0.19331 0.0
O586 O 0.59736 0.68022 0.31809 0.0
O587 O 0.56219 0.64933 0.30953 0.0
O588 O 0.54619 0.63704 0.2093 0.0
O589 O 0.54632 0.66793 0.18812 0.0
O590 O 0.57131 0.70395 0.26694 0.0
O591 O 0.56402 0.71292 0.18467 0.0
H592 H 0.61765 0.7186 0.99373 0.0
H593 H 0.61806 0.71077 0.89903 0.0
H594 H 0.54388 0.65824 0.89081 0.0
H595 H 0.54329 0.66579 0.98588 0.0
H596 H 0.54424 0.63589 0.40072 0.0
H597 H 0.53861 0.64425 0.49217 0.0
H598 H 0.60118 0.71305 0.49561 0.0
H599 H 0.60651 0.70497 0.40417 0.0
C600 C 0.32295 0.4309 0.04462 0.0
Eu601 Eu 0.34083 0.44513 0.14226 0.0
C602 C 0.32963 0.44014 0.99197 0.0
C603 C 0.31371 0.44349 0.95952 0.0
C604 C 0.3192 0.45098 0.90861 0.0
C605 C 0.34053 0.4548 0.88877 0.0
C606 C 0.35679 0.45216 0.92168 0.0
C607 C 0.35154 0.44531 0.9731 0.0
C608 C 0.32511 0.46602 0.21221 0.0
C609 C 0.38641 0.49776 0.17009 0.0
C610 C 0.38467 0.46893 0.34861 0.0
Eu611 Eu 0.36886 0.45781 0.24939 0.0
C612 C 0.37547 0.46445 0.40162 0.0
C613 C 0.38779 0.45976 0.44158 0.0
C614 C 0.38074 0.45739 0.49334 0.0
C615 C 0.36129 0.45984 0.50618 0.0
C616 C 0.34806 0.46305 0.46533 0.0
C617 C 0.35503 0.46524 0.41344 0.0
C618 C 0.39092 0.44392 0.17406 0.0
C619 C 0.32181 0.40758 0.23787 0.0
O620 O 0.33625 0.42398 0.06907 0.0
O621 O 0.31639 0.44237 0.07677 0.0
O622 O 0.33061 0.47218 0.16472 0.0
O623 O 0.33174 0.45122 0.22295 0.0
O624 O 0.37423 0.48077 0.13158 0.0
O625 O 0.38332 0.49346 0.22009 0.0
O626 O 0.37998 0.48243 0.31965 0.0
O627 O 0.38311 0.45078 0.32108 0.0
O628 O 0.39815 0.44988 0.2236 0.0
O629 O 0.37265 0.44554 0.1687 0.0
O630 O 0.33881 0.42433 0.26935 0.0
O631 O 0.31943 0.41041 0.18618 0.0
H632 H 0.29683 0.43997 0.97328 0.0
H633 H 0.30642 0.45301 0.88402 0.0
H634 H 0.37353 0.45539 0.9076 0.0
H635 H 0.36451 0.44382 0.99785 0.0
H636 H 0.40339 0.45869 0.4331 0.0
H637 H 0.39129 0.45493 0.52384 0.0
H638 H 0.33271 0.46455 0.47386 0.0
H639 H 0.34484 0.46822 0.383 0.0
C640 C 0.59168 0.93921 0.36169 0.0
Eu641 Eu 0.58182 0.92442 0.26114 0.0
C642 C 0.58363 0.92977 0.41398 0.0
C643 C 0.56282 0.92765 0.43339 0.0
C644 C 0.55751 0.92201 0.48564 0.0
C645 C 0.57281 0.91831 0.51966 0.0
C646 C 0.59253 0.91851 0.49898 0.0
C647 C 0.59795 0.92431 0.44688 0.0
C648 C 0.53735 0.90407 0.21355 0.0
C649 C 0.56673 0.86731 0.24626 0.0
C650 C 0.58798 0.89037 0.06287 0.0
Eu651 Eu 0.58587 0.90261 0.16083 0.0
C652 C 0.58623 0.89828 1.01013 0.0
C653 C 0.60269 0.90043 0.9739 0.0
C654 C 0.60074 0.90647 0.92256 0.0
C655 C 0.58239 0.91069 0.90657 0.0
C656 C 0.5665 0.90964 0.94358 0.0
C657 C 0.5683 0.90332 0.99492 0.0
C658 C 0.62413 0.91956 0.23475 0.0
C659 C 0.59243 0.95455 0.15557 0.0
O660 O 0.60256 0.93028 0.33564 0.0
O661 O 0.57785 0.94333 0.3303 0.0
O662 O 0.54409 0.91517 0.25999 0.0
O663 O 0.55447 0.90319 0.19269 0.0
O664 O 0.57423 0.88657 0.27916 0.0
O665 O 0.56541 0.86863 0.19511 0.0
O666 O 0.56865 0.88035 0.08795 0.0
O667 O 0.60672 0.9047 0.09411 0.0
O668 O 0.61407 0.89886 0.2095 0.0
O669 O 0.61297 0.92984 0.22093 0.0
O670 O 0.58762 0.93448 0.13134 0.0
O671 O 0.59364 0.95686 0.20877 0.0
H672 H 0.55115 0.93133 0.40909 0.0
H673 H 0.542 0.92168 0.50037 0.0
H674 H 0.60471 0.91584 0.52417 0.0
H675 H 0.61403 0.92561 0.43314 0.0
H676 H 0.61684 0.89698 0.98506 0.0
H677 H 0.61347 0.9076 0.89507 0.0
H678 H 0.55224 0.9129 0.93225 0.0
H679 H 0.55547 0.90201 0.02229 0.0
C680 C 0.13341 0.70354 0.0738 0.0
Eu681 Eu 0.13537 0.69538 0.1736 0.0
C682 C 0.13776 0.6961 0.02128 0.0
C683 C 0.15725 0.71164 0.99447 0.0
C684 C 0.15934 0.70594 0.94172 0.0
C685 C 0.14183 0.68467 0.91456 0.0
C686 C 0.12297 0.66867 0.94247 0.0
C687 C 0.12097 0.67426 0.99503 0.0
C688 C 0.17454 0.71969 0.23878 0.0
C689 C 0.14596 0.64928 0.17976 0.0
C690 C 0.13525 0.66825 0.36292 0.0
Eu691 Eu 0.12834 0.67007 0.26176 0.0
C692 C 0.13046 0.67404 0.4165 0.0
C693 C 0.10832 0.66062 0.43685 0.0
C694 C 0.10588 0.66298 0.49102 0.0
C695 C 0.12559 0.67856 0.52583 0.0
C696 C 0.147 0.69376 0.50447 0.0
C697 C 0.14941 0.69147 0.45031 0.0
C698 C 0.08845 0.65116 0.19124 0.0
C699 C 0.11347 0.70914 0.27383 0.0
O700 O 0.11618 0.68728 0.09717 0.0
O701 O 0.1514 0.71737 0.10734 0.0
O702 O 0.16342 0.72878 0.21464 0.0
O703 O 0.16338 0.69711 0.22921 0.0
O704 O 0.14575 0.66612 0.1521 0.0
O705 O 0.13969 0.64686 0.22789 0.0
O706 O 0.14909 0.68608 0.33648 0.0
O707 O 0.11834 0.65051 0.33266 0.0
O708 O 0.09548 0.63829 0.21544 0.0
O709 O 0.10223 0.67245 0.20665 0.0
O710 O 0.10995 0.68867 0.28572 0.0
O711 O 0.1229 0.71697 0.22815 0.0
H712 H 0.17045 0.72855 1.01366 0.0
H713 H 0.17434 0.71852 0.92184 0.0
H714 H 0.10888 0.65227 0.92303 0.0
H715 H 0.1056 0.66179 1.01415 0.0
H716 H 0.09325 0.64738 0.41164 0.0
H717 H 0.08898 0.65144 0.50627 0.0
H718 H 0.1625 0.70598 0.53009 0.0
H719 H 0.16665 0.70224 0.4356 0.0
H720 H 0.08879 0.35967 0.21803 0.0
H721 H 0.13853 0.42181 0.31848 0.0
H722 H 0.12948 0.39843 0.39577 0.0
H723 H 0.04565 0.33069 0.30374 0.0
H724 H 0.04081 0.30137 0.28975 0.0
H725 H 0.05204 0.32232 0.2404 0.0
H726 H 0.08832 0.3165 0.23456 0.0
H727 H 0.07691 0.29524 0.28347 0.0
H728 H 0.10644 0.32026 0.29405 0.0
H729 H 0.11022 0.36923 0.46631 0.0
H730 H 0.08847 0.33493 0.5195 0.0
H731 H 0.05541 0.29046 0.37376 0.0
C732 C 0.09863 0.3681 0.25566 0.0
C733 C 0.11465 0.39283 0.26144 0.0
C734 C 0.12648 0.40299 0.31237 0.0
C735 C 0.12127 0.38984 0.357 0.0
C736 C 0.1048 0.36589 0.35071 0.0
C737 C 0.09445 0.35482 0.30094 0.0
C738 C 0.07814 0.32851 0.30565 0.0
C739 C 0.05265 0.32026 0.28359 0.0
C740 C 0.08804 0.31428 0.27776 0.0
C741 C 0.07964 0.32708 0.3656 0.0
C742 C 0.09517 0.34881 0.39102 0.0
C743 C 0.09849 0.35197 0.44655 0.0
C744 C 0.08602 0.33235 0.47669 0.0
C745 C 0.07043 0.30965 0.45154 0.0
C746 C 0.06741 0.30731 0.39498 0.0
H747 H 0.73057 0.79717 0.42873 0.0
H748 H 0.73148 0.73309 0.4595 0.0
H749 H 0.69813 0.71063 0.39331 0.0
H750 H 0.66619 0.77025 0.40578 0.0
H751 H 0.66723 0.78751 0.35166 0.0
H752 H 0.69127 0.79936 0.40267 0.0
H753 H 0.72102 0.80662 0.33172 0.0
H754 H 0.6971 0.79475 0.28037 0.0
H755 H 0.71635 0.78248 0.2863 0.0
H756 H 0.66634 0.69473 0.32379 0.0
H757 H 0.63513 0.68507 0.2541 0.0
H758 H 0.65145 0.75794 0.26372 0.0
C759 C 0.72344 0.77838 0.42184 0.0
C760 C 0.73362 0.76689 0.44978 0.0
C761 C 0.72409 0.74234 0.43888 0.0
C762 C 0.70508 0.72934 0.40119 0.0
C763 C 0.69561 0.74101 0.37393 0.0
C764 C 0.70426 0.7649 0.38339 0.0
C765 C 0.69062 0.77261 0.34658 0.0
C766 C 0.67808 0.78305 0.37859 0.0
C767 C 0.70727 0.79016 0.30902 0.0
C768 C 0.6728 0.74922 0.31615 0.0
C769 C 0.67646 0.73146 0.33271 0.0
C770 C 0.66315 0.70842 0.31063 0.0
C771 C 0.64538 0.70314 0.27081 0.0
C772 C 0.64049 0.7206 0.25343 0.0
C773 C 0.6546 0.74414 0.27624 0.0
H774 H 0.27296 0.99247 0.36345 0.0
H775 H 0.25864 0.9457 0.48914 0.0
H776 H 0.27281 0.92309 0.43527 0.0
H777 H 0.25552 0.94996 0.25397 0.0
H778 H 0.2787 0.96932 0.21444 0.0
H779 H 0.26749 0.98133 0.26316 0.0
H780 H 0.30989 1.00772 0.3075 0.0
H781 H 0.32138 0.99591 0.25896 0.0
H782 H 0.32706 0.9945 0.32856 0.0
H783 H 0.28489 0.90312 0.36044 0.0
H784 H 0.29912 0.89172 0.28133 0.0
H785 H 0.31016 0.95473 0.21026 0.0
C786 C 0.2727 0.97743 0.37994 0.0
C787 C 0.2642 0.97068 0.43052 0.0
C788 C 0.26479 0.95117 0.45052 0.0
C789 C 0.27279 0.9382 0.41999 0.0
C790 C 0.28063 0.94518 0.3698 0.0
C791 C 0.28106 0.9647 0.35062 0.0
C792 C 0.29083 0.96919 0.29636 0.0
C793 C 0.27202 0.96734 0.25452 0.0
C794 C 0.31365 0.99325 0.29797 0.0
C795 C 0.29584 0.94908 0.28729 0.0
C796 C 0.28935 0.93507 0.32957 0.0
C797 C 0.2904 0.9143 0.32786 0.0
C798 C 0.29843 0.90788 0.28254 0.0
C799 C 0.30622 0.92251 0.23985 0.0
C800 C 0.30488 0.94343 0.24265 0.0
H801 H 0.30525 0.087 0.59479 0.0
H802 H 0.30999 0.02813 0.52402 0.0
H803 H 0.34387 0.03771 0.58684 0.0
H804 H 0.36789 0.12771 0.62467 0.0
H805 H 0.36495 0.13856 0.68895 0.0
H806 H 0.34095 0.12773 0.63811 0.0
H807 H 0.31217 0.09783 0.7004 0.0
H808 H 0.3362 0.10923 0.75145 0.0
H809 H 0.32019 0.07826 0.73088 0.0
H810 H 0.37372 0.05013 0.66087 0.0
H811 H 0.40335 0.06885 0.73612 0.0
H812 H 0.38407 0.123 0.75832 0.0
C813 C 0.31377 0.07651 0.59201 0.0
C814 C 0.30514 0.05695 0.55394 0.0
C815 C 0.31639 0.04325 0.55251 0.0
C816 C 0.33557 0.04846 0.58825 0.0
C817 C 0.34333 0.06737 0.62596 0.0
C818 C 0.33305 0.08136 0.62829 0.0
C819 C 0.3449 0.10021 0.67449 0.0
C820 C 0.3553 0.12503 0.65538 0.0
C821 C 0.32731 0.09615 0.71677 0.0
C822 C 0.36425 0.09536 0.69533 0.0
C823 C 0.36217 0.07571 0.66763 0.0
C824 C 0.37605 0.06597 0.68186 0.0
C825 C 0.393 0.07691 0.72464 0.0
C826 C 0.39705 0.09818 0.75147 0.0
C827 C 0.38204 0.10728 0.73734 0.0
H828 H 0.90144 0.28029 0.71618 0.0
H829 H 0.96476 0.33277 0.81027 0.0
H830 H 0.9894 0.32346 0.75446 0.0
H831 H 0.92022 0.23699 0.68918 0.0
H832 H 0.90822 0.22972 0.6211 0.0
H833 H 0.89483 0.23966 0.66902 0.0
H834 H 0.90023 0.27304 0.61053 0.0
H835 H 0.91375 0.26323 0.56259 0.0
H836 H 0.92933 0.29324 0.59098 0.0
H837 H 1.00786 0.31246 0.68383 0.0
H838 H 1.01909 0.29536 0.61004 0.0
H839 H 0.94486 0.24626 0.56378 0.0
C840 C 0.92042 0.28929 0.72574 0.0
C841 C 0.93113 0.30702 0.76848 0.0
C842 C 0.95612 0.31901 0.77831 0.0
C843 C 0.97032 0.31394 0.74658 0.0
C844 C 0.95945 0.29687 0.70431 0.0
C845 C 0.9351 0.28448 0.69382 0.0
C846 C 0.92846 0.26752 0.64438 0.0
C847 C 0.91195 0.24195 0.65669 0.0
C848 C 0.91727 0.27467 0.59948 0.0
C849 C 0.95273 0.27157 0.63081 0.0
C850 C 0.97031 0.28927 0.66495 0.0
C851 C 0.99423 0.29808 0.65783 0.0
C852 C 1.00044 0.28816 0.61569 0.0
C853 C 0.98297 0.26862 0.58258 0.0
C854 C 0.95868 0.26054 0.58965 0.0
H855 H 0.77749 0.73635 0.65889 0.0
H856 H 0.76913 0.69645 0.51002 0.0
H857 H 0.75265 0.65983 0.55781 0.0
H858 H 0.79365 0.70391 0.74411 0.0
H859 H 0.77751 0.70676 0.79721 0.0
H860 H 0.78973 0.72919 0.75119 0.0
H861 H 0.74831 0.72424 0.72962 0.0
H862 H 0.73575 0.70169 0.7752 0.0
H863 H 0.72375 0.69557 0.70718 0.0
H864 H 0.73777 0.62763 0.62617 0.0
H865 H 0.72347 0.60354 0.70236 0.0
H866 H 0.73863 0.66539 0.80262 0.0
C867 C 0.77245 0.72007 0.63561 0.0
C868 C 0.77488 0.7195 0.58026 0.0
C869 C 0.76776 0.69752 0.55236 0.0
C870 C 0.75831 0.67664 0.5793 0.0
C871 C 0.75598 0.67807 0.63395 0.0
C872 C 0.7628 0.69937 0.66138 0.0
C873 C 0.75785 0.69671 0.71924 0.0
C874 C 0.78107 0.70992 0.75504 0.0
C875 C 0.74037 0.70504 0.73361 0.0
C876 C 0.74681 0.67036 0.72079 0.0
C877 C 0.74625 0.65988 0.67155 0.0
C878 C 0.73787 0.63576 0.6644 0.0
C879 C 0.7297 0.62215 0.70817 0.0
C880 C 0.72927 0.63242 0.75836 0.0
C881 C 0.73819 0.65692 0.76454 0.0
H882 H 0.95358 0.72409 0.65269 0.0
H883 H 1.004 0.70961 0.57806 0.0
H884 H 0.993 0.67601 0.63299 0.0
H885 H 0.96153 0.71102 0.78047 0.0
H886 H 0.93083 0.69618 0.79493 0.0
H887 H 0.94104 0.71803 0.74733 0.0
H888 H 0.9095 0.68791 0.67609 0.0
H889 H 0.89886 0.66604 0.72374 0.0
H890 H 0.90791 0.66 0.66151 0.0
H891 H 0.983 0.65028 0.70867 0.0
H892 H 0.9666 0.6256 0.78256 0.0
H893 H 0.91637 0.65019 0.79898 0.0
C894 C 0.96161 0.71323 0.64661 0.0
C895 C 0.97944 0.71922 0.61049 0.0
C896 C 0.98996 0.70501 0.60444 0.0
C897 C 0.98401 0.68608 0.63601 0.0
C898 C 0.96696 0.68111 0.67245 0.0
C899 C 0.95516 0.69362 0.67647 0.0
C900 C 0.9373 0.68424 0.71857 0.0
C901 C 0.94303 0.70352 0.76294 0.0
C902 C 0.91188 0.67393 0.69348 0.0
C903 C 0.94147 0.665 0.73877 0.0
C904 C 0.95911 0.66404 0.71225 0.0
C905 C 0.9684 0.65005 0.72787 0.0
C906 C 0.95885 0.63601 0.77006 0.0
C907 C 0.93922 0.63478 0.79488 0.0
C908 C 0.93071 0.64994 0.77955 0.0
H909 H 0.33075 0.28712 0.57617 0.0
H910 H 0.27907 0.22907 0.65748 0.0
H911 H 0.3084 0.23846 0.73157 0.0
H912 H 0.38214 0.28355 0.61901 0.0
H913 H 0.40072 0.3151 0.62637 0.0
H914 H 0.37517 0.30194 0.58004 0.0
H915 H 0.36172 0.32895 0.62774 0.0
H916 H 0.38698 0.34067 0.67551 0.0
H917 H 0.35744 0.32705 0.6975 0.0
H918 H 0.34336 0.25422 0.79831 0.0
H919 H 0.38152 0.27548 0.85277 0.0
H920 H 0.41117 0.32475 0.7322 0.0
C921 C 0.32567 0.27641 0.60961 0.0
C922 C 0.30283 0.2563 0.609 0.0
C923 C 0.29681 0.24317 0.6542 0.0
C924 C 0.3133 0.24887 0.69765 0.0
C925 C 0.33579 0.26836 0.69651 0.0
C926 C 0.34194 0.28217 0.65408 0.0
C927 C 0.36741 0.30219 0.66321 0.0
C928 C 0.38223 0.30054 0.61958 0.0
C929 C 0.36843 0.32613 0.66616 0.0
C930 C 0.3747 0.2972 0.71692 0.0
C931 C 0.356 0.27768 0.73552 0.0
C932 C 0.35814 0.26957 0.78422 0.0
C933 C 0.37992 0.28175 0.81491 0.0
C934 C 0.39942 0.30183 0.79701 0.0
C935 C 0.39668 0.30955 0.74715 0.0
H936 H 0.76263 0.11948 0.80252 0.0
H937 H 0.68857 0.06864 0.76125 0.0
H938 H 0.69909 0.0539 0.68196 0.0
H939 H 0.78765 0.13028 0.67869 0.0
H940 H 0.81242 0.12637 0.69719 0.0
H941 H 0.79944 0.13598 0.74685 0.0
H942 H 0.79233 0.10095 0.80158 0.0
H943 H 0.80574 0.09158 0.75251 0.0
H944 H 0.7763 0.07143 0.77027 0.0
H945 H 0.71735 0.04781 0.60192 0.0
H946 H 0.74183 0.03849 0.5449 0.0
H947 H 0.80415 0.08441 0.65005 0.0
C948 C 0.7487 0.10542 0.77639 0.0
C949 C 0.72452 0.09691 0.78474 0.0
C950 C 0.70699 0.07708 0.75253 0.0
C951 C 0.7128 0.06834 0.70769 0.0
C952 C 0.73656 0.07814 0.69824 0.0
C953 C 0.75433 0.09498 0.73366 0.0
C954 C 0.77832 0.09857 0.7199 0.0
C955 C 0.79546 0.12434 0.71006 0.0
C956 C 0.78879 0.09014 0.76365 0.0
C957 C 0.77128 0.08248 0.66919 0.0
C958 C 0.74711 0.07131 0.65696 0.0
C959 C 0.73628 0.0561 0.61145 0.0
C960 C 0.75035 0.05117 0.57888 0.0
C961 C 0.77483 0.06084 0.59289 0.0
C962 C 0.78549 0.07701 0.63817 0.0
H963 H 0.66607 0.96187 0.26218 0.0
H964 H 0.62074 0.8929 0.31637 0.0
H965 H 0.64851 0.9029 0.39561 0.0
H966 H 0.72083 0.9624 0.30343 0.0
H967 H 0.73725 0.99373 0.32033 0.0
H968 H 0.71304 0.98146 0.26975 0.0
H969 H 0.69363 1.00179 0.32118 0.0
H970 H 0.71783 0.01364 0.37172 0.0
H971 H 0.68776 0.99616 0.38943 0.0
H972 H 0.68303 0.91912 0.466 0.0
H973 H 0.7207 0.9408 0.52263 0.0
H974 H 0.7433 1.00024 0.42703 0.0
C975 C 0.66192 0.94902 0.29112 0.0
C976 C 0.64105 0.92657 0.28309 0.0
C977 C 0.63657 0.9101 0.32139 0.0
C978 C 0.65226 0.91568 0.3667 0.0
C979 C 0.67288 0.93769 0.37304 0.0
C980 C 0.67783 0.95412 0.3362 0.0
C981 C 0.70209 0.97585 0.35086 0.0
C982 C 0.71931 0.97851 0.30857 0.0
C983 C 0.70019 0.99818 0.3588 0.0
C984 C 0.70943 0.9695 0.40271 0.0
C985 C 0.69257 0.94717 0.41409 0.0
C986 C 0.69625 0.93669 0.45752 0.0
C987 C 0.71776 0.94912 0.48952 0.0
C988 C 0.73524 0.97214 0.47919 0.0
C989 C 0.7306 0.98257 0.43575 0.0
H990 H 0.07182 0.79054 0.44544 0.0
H991 H 0.05614 0.73854 0.56025 0.0
H992 H 0.07216 0.7193 0.50432 0.0
H993 H 0.05789 0.75426 0.32868 0.0
H994 H 0.08287 0.77206 0.29141 0.0
H995 H 0.07361 0.78596 0.34004 0.0
H996 H 0.11382 0.80752 0.39173 0.0
H997 H 0.12502 0.79593 0.34178 0.0
H998 H 0.12854 0.7916 0.41052 0.0
H999 H 0.08817 0.70534 0.44183 0.0
H1000 H 0.10222 0.69316 0.36986 0.0
H1001 H 0.10886 0.7516 0.28176 0.0
C1002 C 0.07196 0.77515 0.45855 0.0
C1003 C 0.06267 0.76596 0.50753 0.0
C1004 C 0.06319 0.74595 0.5235 0.0
C1005 C 0.07231 0.7349 0.49187 0.0
C1006 C 0.0812 0.74416 0.4443 0.0
C1007 C 0.08142 0.76382 0.42716 0.0
C1008 C 0.09246 0.76933 0.37344 0.0
C1009 C 0.07564 0.7704 0.33086 0.0
C1010 C 0.11638 0.79247 0.37972 0.0
C1011 C 0.09625 0.74835 0.3615 0.0
C1012 C 0.09027 0.735 0.40479 0.0
C1013 C 0.09259 0.71542 0.40736 0.0
C1014 C 0.10067 0.70858 0.36455 0.0
C1015 C 0.10622 0.72062 0.31699 0.0
C1016 C 0.10441 0.74144 0.31607 0.0
H1017 H 0.31466 0.4063 0.34363 0.0
H1018 H 0.29276 0.36081 0.19788 0.0
H1019 H 0.2712 0.32619 0.25029 0.0
H1020 H 0.32768 0.37252 0.42414 0.0
H1021 H 0.31616 0.37813 0.48308 0.0
H1022 H 0.32665 0.39936 0.43423 0.0
H1023 H 0.28633 0.39783 0.42642 0.0
H1024 H 0.27567 0.37666 0.47565 0.0
H1025 H 0.2595 0.36993 0.4118 0.0
H1026 H 0.25239 0.29706 0.31789 0.0
H1027 H 0.24197 0.27374 0.39408 0.0
H1028 H 0.28122 0.33712 0.50057 0.0
C1029 C 0.30505 0.38908 0.3222 0.0
C1030 C 0.30535 0.38641 0.26586 0.0
C1031 C 0.2925 0.3635 0.24026 0.0
C1032 C 0.28031 0.34376 0.26999 0.0
C1033 C 0.28097 0.34717 0.32532 0.0
C1034 C 0.29305 0.36927 0.35127 0.0
C1035 C 0.29213 0.36799 0.41143 0.0
C1036 C 0.31715 0.38021 0.43985 0.0
C1037 C 0.27755 0.37875 0.43259 0.0
C1038 C 0.27904 0.34142 0.41576 0.0
C1039 C 0.27189 0.33006 0.36517 0.0
C1040 C 0.25829 0.30581 0.35737 0.0
C1041 C 0.25254 0.29268 0.40159 0.0
C1042 C 0.26132 0.30319 0.45419 0.0
C1043 C 0.27427 0.32824 0.46147 0.0
H1044 H 1.00549 0.41381 0.87419 0.0
H1045 H 0.94858 0.37798 0.97808 0.0
H1046 H 0.97641 0.39077 0.05334 0.0
H1047 H 0.05351 0.4108 0.94156 0.0
H1048 H 0.07484 0.4416 0.93804 0.0
H1049 H 0.04985 0.4271 0.89013 0.0
H1050 H 0.04144 0.46104 0.91723 0.0
H1051 H 0.0655 0.47323 0.96835 0.0
H1052 H 0.03594 0.465 0.98494 0.0
H1053 H 1.00803 0.40284 0.11828 0.0
H1054 H 0.04446 0.42218 0.1771 0.0
H1055 H 0.08493 0.45645 0.0447 0.0
C1056 C 0.99896 0.40894 0.91277 0.0
C1057 C 0.97433 0.39321 0.91806 0.0
C1058 C 0.967 0.38849 0.97051 0.0
C1059 C 0.98283 0.3959 1.01477 0.0
C1060 C 1.00659 0.40985 1.00835 0.0
C1061 C 1.01492 0.41757 0.95977 0.0
C1062 C 0.04165 0.43517 0.96845 0.0
C1063 C 0.05578 0.42815 0.93244 0.0
C1064 C 0.04642 0.46008 0.95914 0.0
C1065 C 0.04681 0.43349 0.02762 0.0
C1066 C 0.02581 0.41904 0.04915 0.0
C1067 C 0.02469 0.41457 0.1024 0.0
C1068 C 0.04553 0.42566 0.13565 0.0
C1069 C 0.06755 0.44088 0.116 0.0
C1070 C 0.06833 0.44473 0.06082 0.0
H1071 H 0.63365 0.61606 0.87524 0.0
H1072 H 0.6345 0.56057 0.96035 0.0
H1073 H 0.61929 0.57136 0.03671 0.0
H1074 H 0.64936 0.65858 0.98012 0.0
H1075 H 0.62819 0.6678 0.96361 0.0
H1076 H 0.63792 0.65541 0.91231 0.0
H1077 H 0.59445 0.6238 0.88422 0.0
H1078 H 0.58468 0.63641 0.9351 0.0
H1079 H 0.57589 0.60565 0.93299 0.0
H1080 H 0.61013 0.59179 0.11053 0.0
H1081 H 0.59817 0.6149 0.16894 0.0
H1082 H 0.5976 0.65388 0.03586 0.0
C1083 C 0.62973 0.6056 0.90903 0.0
C1084 C 0.63573 0.58752 0.91132 0.0
C1085 C 0.63045 0.57462 0.95716 0.0
C1086 C 0.62184 0.58067 1.0013 0.0
C1087 C 0.6174 0.59922 0.99927 0.0
C1088 C 0.6201 0.61089 0.95365 0.0
C1089 C 0.61288 0.62959 0.96259 0.0
C1090 C 0.63333 0.65431 0.95417 0.0
C1091 C 0.59066 0.6235 0.92658 0.0
C1092 C 0.60723 0.62731 0.02067 0.0
C1093 C 0.61008 0.60974 0.04111 0.0
C1094 C 0.60719 0.60521 0.09459 0.0
C1095 C 0.60052 0.61849 0.12772 0.0
C1096 C 0.59646 0.63594 0.10725 0.0
C1097 C 0.60008 0.64037 0.05289 0.0
H1098 H 0.45084 0.07442 0.97003 0.0
H1099 H 0.4271 0.02923 0.82356 0.0
H1100 H 0.41067 0.99434 0.87636 0.0
H1101 H 0.46562 0.03656 0.04788 0.0
H1102 H 0.45596 0.04361 0.10813 0.0
H1103 H 0.46762 0.06482 0.05916 0.0
H1104 H 0.42946 0.06749 0.05534 0.0
H1105 H 0.41761 0.04633 0.10418 0.0
H1106 H 0.40109 0.04106 0.0412 0.0
H1107 H 0.39874 0.965 0.94432 0.0
H1108 H 0.38587 0.94145 1.01881 0.0
H1109 H 0.41086 1.00429 0.12621 0.0
C1110 C 0.44244 0.05721 0.9486 0.0
C1111 C 0.44065 0.0548 0.89183 0.0
C1112 C 0.42924 0.0318 0.86638 0.0
C1113 C 0.41977 1.01186 0.89632 0.0
C1114 C 0.42174 0.01507 0.95189 0.0
C1115 C 0.43267 0.03715 0.97787 0.0
C1116 C 0.43155 0.0356 0.03806 0.0
C1117 C 0.45668 0.04575 0.06491 0.0
C1118 C 0.41917 0.04836 0.06103 0.0
C1119 C 0.41706 1.00894 0.0421 0.0
C1120 C 0.41264 0.99781 0.99156 0.0
C1121 C 0.40155 0.97359 0.98362 0.0
C1122 C 0.39403 0.96025 0.0273 0.0
C1123 C 0.39592 0.97032 0.07987 0.0
C1124 C 0.40842 0.99549 0.08735 0.0
H1125 H 0.65307 0.07464 0.99956 0.0
H1126 H 0.62026 0.0287 0.85551 0.0
H1127 H 0.59953 0.99489 0.91053 0.0
H1128 H 0.66476 0.03748 0.07439 0.0
H1129 H 0.65707 0.04539 0.13657 0.0
H1130 H 0.66742 0.06603 0.08643 0.0
H1131 H 0.62964 0.06928 0.08858 0.0
H1132 H 0.61882 0.04841 0.13864 0.0
H1133 H 0.60098 0.04312 0.07785 0.0
H1134 H 0.58045 0.96688 0.98153 0.0
H1135 H 0.57015 0.94413 0.0585 0.0
H1136 H 0.62047 1.00611 0.15976 0.0
C1137 C 0.64143 0.05754 0.97903 0.0
C1138 C 0.63828 0.05466 0.92225 0.0
C1139 C 0.62286 0.03173 0.89825 0.0
C1140 C 0.61101 1.01238 0.92948 0.0
C1141 C 0.61465 0.01603 0.98499 0.0
C1142 C 0.62968 0.03802 1.00957 0.0
C1143 C 0.63091 0.03702 0.06997 0.0
C1144 C 0.65657 0.04706 0.09318 0.0
C1145 C 0.61945 0.05027 0.09532 0.0
C1146 C 0.6157 1.01056 0.07572 0.0
C1147 C 0.60556 0.99928 0.02598 0.0
C1148 C 0.58891 0.97551 0.02012 0.0
C1149 C 0.58325 0.96265 0.06496 0.0
C1150 C 0.59508 0.97257 0.11626 0.0
C1151 C 0.61117 0.99744 0.12182 0.0
H1152 H 0.04735 0.60635 0.16127 0.0
H1153 H 0.08026 0.67958 0.12967 0.0
H1154 H 0.05695 0.66899 0.04391 0.0
H1155 H 0.02551 0.57291 0.03966 0.0
H1156 H 0.99483 0.55531 0.05323 0.0
H1157 H 1.01767 0.56721 0.10693 0.0
H1158 H 0.99705 0.58752 0.15283 0.0
H1159 H 0.97395 0.57535 0.09955 0.0
H1160 H 0.99028 0.60664 0.11647 0.0
H1161 H 0.03346 0.64868 0.95459 0.0
H1162 H 0.99901 0.62577 0.88938 0.0
H1163 H 0.96947 0.5692 0.99404 0.0
C1164 C 0.04991 0.62003 0.13568 0.0
C1165 C 0.06879 0.64357 0.14782 0.0
C1166 C 0.06901 0.66114 0.11696 0.0
C1167 C 0.05525 0.65533 0.06868 0.0
C1168 C 0.03845 0.63188 0.05508 0.0
C1169 C 0.03395 0.61494 0.0903 0.0
C1170 C 1.01004 0.59303 0.07344 0.0
C1171 C 1.01217 0.5708 0.06797 0.0
C1172 C 0.99175 0.59046 0.11291 0.0
C1173 C 1.00381 0.59926 0.01998 0.0
C1174 C 0.02073 0.62175 1.01007 0.0
C1175 C 1.01967 0.63128 0.96257 0.0
C1176 C 1.00016 0.61799 0.92534 0.0
C1177 C 0.98147 0.59566 0.93624 0.0
C1178 C 0.98353 0.58615 0.98422 0.0
H1179 H 0.38968 0.44291 0.06146 0.0
H1180 H 0.41634 0.42316 0.19778 0.0
H1181 H 0.436 0.40846 0.13951 0.0
H1182 H 0.37854 0.393 0.96819 0.0
H1183 H 0.38938 0.41018 0.91191 0.0
H1184 H 0.3769 0.41938 0.96313 0.0
H1185 H 0.41559 0.46001 0.97468 0.0
H1186 H 0.42817 0.4504 0.92391 0.0
H1187 H 0.4435 0.46117 0.98875 0.0
H1188 H 0.45516 0.39846 0.07105 0.0
H1189 H 0.4668 0.38528 0.99251 0.0
H1190 H 0.42557 0.40582 0.89177 0.0
C1191 C 0.39936 0.43514 0.07856 0.0
C1192 C 0.40133 0.43424 0.13477 0.0
C1193 C 0.41465 0.42438 0.15551 0.0
C1194 C 0.42599 0.41598 0.12253 0.0
C1195 C 0.42424 0.41755 0.06805 0.0
C1196 C 0.41102 0.42648 0.0455 0.0
C1197 C 0.4125 0.42566 0.98492 0.0
C1198 C 0.38786 0.41119 0.95534 0.0
C1199 C 0.4257 0.4508 0.96698 0.0
C1200 C 0.42726 0.41353 0.97739 0.0
C1201 C 0.43453 0.41017 0.02668 0.0
C1202 C 0.44924 0.40066 0.03229 0.0
C1203 C 0.45583 0.39323 0.98683 0.0
C1204 C 0.44692 0.3939 0.93506 0.0
C1205 C 0.43287 0.40498 0.93023 0.0
H1206 H 0.09837 0.26033 0.49935 0.0
H1207 H 0.04878 0.18966 0.5367 0.0
H1208 H 0.07996 0.17871 0.52935 0.0
H1209 H 0.13491 0.24581 0.40897 0.0
H1210 H 0.16181 0.27161 0.43611 0.0
H1211 H 0.13426 0.27188 0.43196 0.0
H1212 H 0.13998 0.28408 0.53265 0.0
H1213 H 0.16733 0.2837 0.5372 0.0
H1214 H 0.14409 0.26603 0.57855 0.0
H1215 H 0.11904 0.17816 0.53505 0.0
H1216 H 0.1609 0.18807 0.55248 0.0
H1217 H 0.18461 0.25911 0.51148 0.0
C1218 C 0.09373 0.24216 0.50256 0.0
C1219 C 0.07088 0.22549 0.51581 0.0
C1220 C 0.06583 0.20232 0.52378 0.0
C1221 C 0.08357 0.19607 0.52024 0.0
C1222 C 0.10629 0.21323 0.50877 0.0
C1223 C 0.11126 0.23578 0.49948 0.0
C1224 C 0.13756 0.25198 0.49538 0.0
C1225 C 0.14242 0.26084 0.43978 0.0
C1226 C 0.14783 0.27264 0.53851 0.0
C1227 C 0.14684 0.23532 0.50502 0.0
C1228 C 0.1286 0.21293 0.5122 0.0
C1229 C 0.13332 0.19539 0.52758 0.0
C1230 C 0.15714 0.20105 0.53689 0.0
C1231 C 0.17592 0.22401 0.53067 0.0
C1232 C 0.17058 0.2411 0.51365 0.0
H1233 H 0.82726 0.95854 0.56168 0.0
H1234 H 0.80733 0.96146 0.39782 0.0
H1235 H 0.80746 0.92446 0.37415 0.0
H1236 H 0.86555 0.93351 0.53643 0.0
H1237 H 0.85569 0.91535 0.59139 0.0
H1238 H 0.85631 0.94312 0.59389 0.0
H1239 H 0.81188 0.92197 0.61187 0.0
H1240 H 0.81113 0.89419 0.60936 0.0
H1241 H 0.79063 0.89791 0.56651 0.0
H1242 H 0.80606 0.88462 0.37058 0.0
H1243 H 0.80391 0.84672 0.38749 0.0
H1244 H 0.82532 0.87114 0.55345 0.0
C1245 C 0.82339 0.95176 0.5205 0.0
C1246 C 0.81745 0.96311 0.48149 0.0
C1247 C 0.81216 0.95328 0.42833 0.0
C1248 C 0.81215 0.93222 0.41456 0.0
C1249 C 0.81757 0.92123 0.45431 0.0
C1250 C 0.82325 0.93083 0.50619 0.0
C1251 C 0.82707 0.91508 0.54228 0.0
C1252 C 0.85268 0.92751 0.56746 0.0
C1253 C 0.8091 0.9068 0.58499 0.0
C1254 C 0.82234 0.8949 0.50278 0.0
C1255 C 0.81695 0.89869 0.45219 0.0
C1256 C 0.81059 0.88166 0.40995 0.0
C1257 C 0.80944 0.86017 0.41986 0.0
C1258 C 0.81462 0.85589 0.47162 0.0
C1259 C 0.82152 0.87379 0.51316 0.0
H1260 H 0.07156 0.87824 0.57144 0.0
H1261 H 0.07974 0.84044 0.43653 0.0
H1262 H 0.11425 0.87719 0.41345 0.0
H1263 H 0.09035 0.93385 0.50315 0.0
H1264 H 0.10504 0.95231 0.56319 0.0
H1265 H 0.0793 0.92361 0.56621 0.0
H1266 H 0.10298 0.91185 0.6305 0.0
H1267 H 0.12845 0.94062 0.62876 0.0
H1268 H 0.1307 0.91484 0.61195 0.0
H1269 H 0.1505 0.91735 0.41016 0.0
H1270 H 0.18667 0.95615 0.43231 0.0
H1271 H 0.15472 0.96799 0.56773 0.0
C1272 C 0.08037 0.87784 0.5365 0.0
C1273 C 0.07273 0.85651 0.50545 0.0
C1274 C 0.08492 0.85664 0.46036 0.0
C1275 C 0.10458 0.87746 0.44684 0.0
C1276 C 0.11163 0.89825 0.47805 0.0
C1277 C 0.09981 0.89861 0.52183 0.0
C1278 C 0.11177 0.92301 0.55041 0.0
C1279 C 0.09566 0.93383 0.54545 0.0
C1280 C 0.11891 0.92253 0.60883 0.0
C1281 C 0.13321 0.93574 0.51863 0.0
C1282 C 0.1324 0.92144 0.47584 0.0
C1283 C 0.15105 0.92889 0.44282 0.0
C1284 C 0.17144 0.95108 0.45523 0.0
C1285 C 0.17314 0.96525 0.50083 0.0
C1286 C 0.15348 0.95776 0.5317 0.0
H1287 H 0.19541 0.15166 0.58152 0.0
H1288 H 0.271 0.19867 0.60769 0.0
H1289 H 0.27743 0.16554 0.61545 0.0
H1290 H 0.19338 0.10359 0.66512 0.0
H1291 H 0.17164 0.08034 0.6189 0.0
H1292 H 0.17187 0.10788 0.62771 0.0
H1293 H 0.17492 0.11228 0.52708 0.0
H1294 H 0.1749 0.08494 0.51802 0.0
H1295 H 0.1988 0.11143 0.49563 0.0
H1296 H 0.27697 0.12798 0.61224 0.0
H1297 H 0.26977 0.08785 0.59169 0.0
H1298 H 0.1951 0.06286 0.55518 0.0
C1299 C 0.21312 0.15487 0.59181 0.0
C1300 C 0.23255 0.17829 0.60003 0.0
C1301 C 0.25562 0.18157 0.60848 0.0
C1302 C 0.25952 0.16253 0.61105 0.0
C1303 C 0.24018 0.13986 0.60358 0.0
C1304 C 0.21736 0.13575 0.59385 0.0
C1305 C 0.2002 0.10942 0.58167 0.0
C1306 C 0.18326 0.09973 0.62596 0.0
C1307 C 0.18641 0.10423 0.52734 0.0
C1308 C 0.21728 0.09983 0.58227 0.0
C1309 C 0.24009 0.11775 0.5971 0.0
C1310 C 0.25914 0.11373 0.60122 0.0
C1311 C 0.25488 0.09083 0.58973 0.0
C1312 C 0.23194 0.07219 0.5727 0.0
C1313 C 0.2128 0.07675 0.56881 0.0
H1314 H 0.86019 0.10027 0.57371 0.0
H1315 H 0.88234 0.0488 0.54549 0.0
H1316 H 0.92451 0.08066 0.56046 0.0
H1317 H 0.90161 0.14357 0.50589 0.0
H1318 H 0.90622 0.16799 0.55031 0.0
H1319 H 0.87843 0.14084 0.54635 0.0
H1320 H 0.88309 0.13826 0.6475 0.0
H1321 H 0.9109 0.16561 0.65181 0.0
H1322 H 0.9096 0.1397 0.6763 0.0
H1323 H 0.96434 0.11994 0.56266 0.0
H1324 H 0.99666 0.16109 0.55696 0.0
H1325 H 0.94808 0.18626 0.58801 0.0
C1326 C 0.87392 0.09557 0.57247 0.0
C1327 C 0.86797 0.07201 0.55896 0.0
C1328 C 0.88643 0.06662 0.55675 0.0
C1329 C 0.91045 0.08469 0.56492 0.0
C1330 C 0.91568 0.10797 0.5763 0.0
C1331 C 0.89778 0.11326 0.58113 0.0
C1332 C 0.90765 0.13963 0.58971 0.0
C1333 C 0.89791 0.14851 0.54543 0.0
C1334 C 0.9025 0.14618 0.6446 0.0
C1335 C 0.93391 0.14865 0.58675 0.0
C1336 C 0.93834 0.13018 0.57943 0.0
C1337 C 0.96106 0.1344 0.57006 0.0
C1338 C 0.97938 0.15785 0.56717 0.0
C1339 C 0.97507 0.17688 0.57428 0.0
C1340 C 0.95211 0.17213 0.58501 0.0
H1341 H 0.97601 0.83334 0.551 0.0
H1342 H 0.9504 0.76153 0.59068 0.0
H1343 H 0.91007 0.75557 0.5945 0.0
H1344 H 0.93432 0.84206 0.63871 0.0
H1345 H 0.93112 0.86089 0.59366 0.0
H1346 H 0.95858 0.86051 0.60056 0.0
H1347 H 0.95558 0.85071 0.49954 0.0
H1348 H 0.92807 0.85079 0.49224 0.0
H1349 H 0.92941 0.82519 0.46846 0.0
H1350 H 0.87215 0.75587 0.58509 0.0
H1351 H 0.83875 0.76243 0.56485 0.0
H1352 H 0.88789 0.83417 0.53077 0.0
C1353 C 0.96199 0.81665 0.56213 0.0
C1354 C 0.96636 0.798 0.57128 0.0
C1355 C 0.94758 0.77622 0.58476 0.0
C1356 C 0.92456 0.77263 0.58675 0.0
C1357 C 0.92069 0.79118 0.57655 0.0
C1358 C 0.93891 0.81293 0.56552 0.0
C1359 C 0.92964 0.82962 0.5548 0.0
C1360 C 0.93897 0.84945 0.59957 0.0
C1361 C 0.93604 0.83964 0.5005 0.0
C1362 C 0.90311 0.81317 0.5565 0.0
C1363 C 0.89853 0.79134 0.57098 0.0
C1364 C 0.87552 0.77301 0.57477 0.0
C1365 C 0.85663 0.77698 0.56341 0.0
C1366 C 0.86069 0.79895 0.54716 0.0
C1367 C 0.8843 0.81733 0.54388 0.0
H1368 H 0.8216 0.53081 0.80361 0.0
H1369 H 0.86906 0.60276 0.76904 0.0
H1370 H 0.83472 0.6085 0.75171 0.0
H1371 H 0.77333 0.52248 0.69789 0.0
H1372 H 0.74987 0.50315 0.7368 0.0
H1373 H 0.7778 0.50361 0.7405 0.0
H1374 H 0.7819 0.51248 0.84214 0.0
H1375 H 0.7541 0.51206 0.83872 0.0
H1376 H 0.78041 0.53759 0.86922 0.0
H1377 H 0.79576 0.60766 0.74566 0.0
H1378 H 0.75525 0.60066 0.75322 0.0
H1379 H 0.73197 0.52924 0.7919 0.0
C1380 C 0.82459 0.54748 0.79057 0.0
C1381 C 0.848 0.56621 0.78621 0.0
C1382 C 0.8513 0.58798 0.77074 0.0
C1383 C 0.83187 0.59143 0.76115 0.0
C1384 C 0.80905 0.57273 0.76587 0.0
C1385 C 0.80521 0.55101 0.77929 0.0
C1386 C 0.77879 0.53407 0.78251 0.0
C1387 C 0.76939 0.51467 0.73674 0.0
C1388 C 0.77351 0.52346 0.8364 0.0
C1389 C 0.76875 0.55038 0.77461 0.0
C1390 C 0.78644 0.5723 0.76278 0.0
C1391 C 0.78173 0.59042 0.75387 0.0
C1392 C 0.75852 0.58621 0.75775 0.0
C1393 C 0.74022 0.56423 0.77166 0.0
C1394 C 0.74546 0.54604 0.77999 0.0
H1395 H 0.49566 0.29395 0.84568 0.0
H1396 H 0.45749 0.28909 0.69684 0.0
H1397 H 0.45526 0.25094 0.67155 0.0
H1398 H 0.52914 0.26646 0.79541 0.0
H1399 H 0.52671 0.25183 0.85513 0.0
H1400 H 0.52746 0.27966 0.85789 0.0
H1401 H 0.48791 0.26103 0.90292 0.0
H1402 H 0.48702 0.23319 0.90015 0.0
H1403 H 0.4624 0.23514 0.871 0.0
H1404 H 0.45415 0.21039 0.66736 0.0
H1405 H 0.45437 0.17358 0.68483 0.0
H1406 H 0.49328 0.2063 0.83662 0.0
C1407 C 0.48716 0.28521 0.80718 0.0
C1408 C 0.47682 0.29482 0.77318 0.0
C1409 C 0.46577 0.2824 0.72348 0.0
C1410 C 0.46436 0.26061 0.70889 0.0
C1411 C 0.47421 0.25141 0.7442 0.0
C1412 C 0.4856 0.26359 0.7922 0.0
C1413 C 0.49367 0.2497 0.82483 0.0
C1414 C 0.52086 0.26269 0.83382 0.0
C1415 C 0.48204 0.24445 0.87783 0.0
C1416 C 0.48454 0.22742 0.78854 0.0
C1417 C 0.47356 0.22866 0.74189 0.0
C1418 C 0.46294 0.20949 0.70363 0.0
C1419 C 0.46321 0.18859 0.71379 0.0
C1420 C 0.4739 0.18684 0.762 0.0
C1421 C 0.48503 0.20685 0.79911 0.0
H1422 H 0.74971 0.19964 0.86131 0.0
H1423 H 0.72731 0.17332 0.6969 0.0
H1424 H 0.76094 0.21038 0.66928 0.0
H1425 H 0.76939 0.26048 0.84812 0.0
H1426 H 0.79422 0.27027 0.8964 0.0
H1427 H 0.76778 0.24237 0.90084 0.0
H1428 H 0.7926 0.22146 0.89976 0.0
H1429 H 0.81913 0.24927 0.89535 0.0
H1430 H 0.81122 0.22526 0.84628 0.0
H1431 H 0.8007 0.25208 0.66207 0.0
H1432 H 0.83868 0.29057 0.67743 0.0
H1433 H 0.83192 0.28611 0.84668 0.0
C1434 C 0.75153 0.20163 0.81933 0.0
C1435 C 0.73563 0.1835 0.78137 0.0
C1436 C 0.7392 0.18692 0.7269 0.0
C1437 C 0.7583 0.20798 0.71087 0.0
C1438 C 0.77388 0.22544 0.74973 0.0
C1439 C 0.77046 0.22219 0.80291 0.0
C1440 C 0.78985 0.24246 0.8379 0.0
C1441 C 0.7797 0.25462 0.87283 0.0
C1442 C 0.80403 0.23411 0.8718 0.0
C1443 C 0.80463 0.25807 0.79654 0.0
C1444 C 0.79562 0.24826 0.74568 0.0
C1445 C 0.80767 0.25982 0.702 0.0
C1446 C 0.82931 0.28171 0.71091 0.0
C1447 C 0.83854 0.29193 0.76312 0.0
C1448 C 0.82562 0.27955 0.80582 0.0
H1449 H 0.91181 0.50504 0.928 0.0
H1450 H 0.87433 0.50026 0.77884 0.0
H1451 H 0.86332 0.45842 0.76311 0.0
H1452 H 0.93765 0.47446 0.89122 0.0
H1453 H 0.93396 0.45855 0.94941 0.0
H1454 H 0.93433 0.48609 0.95416 0.0
H1455 H 0.89334 0.46607 0.99323 0.0
H1456 H 0.8929 0.43835 0.98892 0.0
H1457 H 0.86879 0.44054 0.95768 0.0
H1458 H 0.86248 0.41907 0.75696 0.0
H1459 H 0.87183 0.38691 0.76131 0.0
H1460 H 0.90984 0.41714 0.91449 0.0
C1461 C 0.90014 0.49474 0.89356 0.0
C1462 C 0.8931 0.50565 0.85569 0.0
C1463 C 0.87898 0.49199 0.80951 0.0
C1464 C 0.87284 0.46822 0.80006 0.0
C1465 C 0.88059 0.4581 0.8376 0.0
C1466 C 0.89353 0.47084 0.88405 0.0
C1467 C 0.90136 0.45655 0.91601 0.0
C1468 C 0.92843 0.4697 0.92835 0.0
C1469 C 0.88833 0.45 0.967 0.0
C1470 C 0.89295 0.4348 0.87814 0.0
C1471 C 0.88021 0.43557 0.83395 0.0
C1472 C 0.87185 0.41804 0.79213 0.0
C1473 C 0.87705 0.39967 0.79508 0.0
C1474 C 0.89082 0.39905 0.83911 0.0
C1475 C 0.89853 0.4167 0.88135 0.0
H1476 H 0.52411 0.41964 0.80201 0.0
H1477 H 0.54904 0.38746 0.91365 0.0
H1478 H 0.58809 0.42474 0.92675 0.0
H1479 H 0.57744 0.44933 0.73979 0.0
H1480 H 0.57403 0.47438 0.72813 0.0
H1481 H 0.54826 0.44596 0.73225 0.0
H1482 H 0.53425 0.46351 0.80685 0.0
H1483 H 0.56006 0.49199 0.80307 0.0
H1484 H 0.55378 0.47877 0.86537 0.0
H1485 H 0.62642 0.46721 0.92172 0.0
H1486 H 0.65735 0.50679 0.89704 0.0
H1487 H 0.60472 0.50832 0.78952 0.0
C1488 C 0.53762 0.42059 0.83012 0.0
C1489 C 0.53349 0.40091 0.85763 0.0
C1490 C 0.55177 0.40258 0.893 0.0
C1491 C 0.574 0.42366 0.90042 0.0
C1492 C 0.57761 0.44283 0.87202 0.0
C1493 C 0.55968 0.44123 0.83757 0.0
C1494 C 0.56775 0.46325 0.80894 0.0
C1495 C 0.56682 0.4579 0.74875 0.0
C1496 C 0.55309 0.47508 0.82187 0.0
C1497 C 0.59299 0.47782 0.83265 0.0
C1498 C 0.59875 0.46609 0.86896 0.0
C1499 C 0.62184 0.47647 0.89358 0.0
C1500 C 0.63932 0.49902 0.87972 0.0
C1501 C 0.63351 0.51071 0.84137 0.0
C1502 C 0.60989 0.49995 0.81894 0.0
H1503 H 0.64175 0.16779 0.83899 0.0
H1504 H 0.61555 0.09328 0.85028 0.0
H1505 H 0.57464 0.08594 0.84855 0.0
H1506 H 0.59715 0.16938 0.92497 0.0
H1507 H 0.59451 0.19083 0.88795 0.0
H1508 H 0.62212 0.19069 0.8925 0.0
H1509 H 0.6212 0.18728 0.7902 0.0
H1510 H 0.59358 0.18729 0.7853 0.0
H1511 H 0.59569 0.16347 0.75263 0.0
H1512 H 0.53654 0.08593 0.84185 0.0
H1513 H 0.50312 0.09333 0.83226 0.0
H1514 H 0.55238 0.16791 0.82554 0.0
C1515 C 0.62739 0.15008 0.8425 0.0
C1516 C 0.63195 0.13119 0.84623 0.0
C1517 C 0.61263 0.10813 0.84922 0.0
C1518 C 0.58925 0.10374 0.84777 0.0
C1519 C 0.5853 0.12262 0.84418 0.0
C1520 C 0.60376 0.1454 0.84227 0.0
C1521 C 0.59426 0.16238 0.83873 0.0
C1522 C 0.60251 0.17934 0.88901 0.0
C1523 C 0.60162 0.17589 0.78871 0.0
C1524 C 0.5676 0.14541 0.83617 0.0
C1525 C 0.563 0.12262 0.84036 0.0
C1526 C 0.53994 0.10374 0.83937 0.0
C1527 C 0.52104 0.10816 0.83431 0.0
C1528 C 0.52509 0.13127 0.82951 0.0
C1529 C 0.54876 0.15014 0.83011 0.0
H1530 H 0.52107 0.93419 0.21428 0.0
H1531 H 0.50089 0.86309 0.15747 0.0
H1532 H 0.45992 0.8552 0.13247 0.0
H1533 H 0.46914 0.91924 0.2748 0.0
H1534 H 0.46921 0.94594 0.26102 0.0
H1535 H 0.49669 0.94579 0.26728 0.0
H1536 H 0.50627 0.96118 0.17396 0.0
H1537 H 0.47872 0.96133 0.16738 0.0
H1538 H 0.48529 0.94519 0.11791 0.0
H1539 H 0.4183 0.85503 0.12495 0.0
H1540 H 0.38481 0.86284 0.13547 0.0
H1541 H 0.43521 0.93446 0.19454 0.0
C1542 C 0.50828 0.91712 0.19496 0.0
C1543 C 0.51439 0.89945 0.18675 0.0
C1544 C 0.49686 0.87715 0.16278 0.0
C1545 C 0.47345 0.87251 0.14894 0.0
C1546 C 0.46791 0.8904 0.15901 0.0
C1547 C 0.48521 0.91235 0.18115 0.0
C1548 C 0.47525 0.92839 0.19249 0.0
C1549 C 0.47772 0.93523 0.25241 0.0
C1550 C 0.48709 0.95031 0.16103 0.0
C1551 C 0.4496 0.91244 0.17279 0.0
C1552 C 0.44523 0.89043 0.15393 0.0
C1553 C 0.42189 0.87244 0.13857 0.0
C1554 C 0.40289 0.87705 0.144 0.0
C1555 C 0.40738 0.89948 0.16448 0.0
C1556 C 0.43115 0.9173 0.17743 0.0
H1557 H 0.12709 0.61112 0.10384 0.0
H1558 H 0.18478 0.65099 0.22406 0.0
H1559 H 0.19433 0.61913 0.22204 0.0
H1560 H 0.10635 0.55682 0.14817 0.0
H1561 H 0.10029 0.54012 0.08524 0.0
H1562 H 0.10045 0.56761 0.08858 0.0
H1563 H 0.13201 0.58335 0.0198 0.0
H1564 H 0.13181 0.55573 1.01598 0.0
H1565 H 0.15924 0.58295 0.03192 0.0
H1566 H 0.19414 0.58127 0.21758 0.0
H1567 H 0.18465 0.53997 0.21001 0.0
H1568 H 0.12745 0.52284 0.09116 0.0
C1569 C 0.14263 0.6137 0.12714 0.0
C1570 C 0.15592 0.6342 0.16227 0.0
C1571 C 0.17509 0.63609 0.195 0.0
C1572 C 0.18051 0.61789 0.19455 0.0
C1573 C 0.16684 0.59776 0.16049 0.0
C1574 C 0.14854 0.59562 0.12662 0.0
C1575 C 0.13575 0.57125 0.09672 0.0
C1576 C 0.10914 0.55819 0.10524 0.0
C1577 C 0.13993 0.57344 0.03758 0.0
C1578 C 0.14842 0.55948 0.12218 0.0
C1579 C 0.16672 0.57547 0.15785 0.0
C1580 C 0.18026 0.56881 0.18876 0.0
C1581 C 0.17479 0.54524 0.18397 0.0
C1582 C 0.15579 0.52819 0.14885 0.0
C1583 C 0.14267 0.53557 0.11674 0.0
H1584 H 0.50348 0.62007 0.25084 0.0
H1585 H 0.50959 0.6337 0.08537 0.0
H1586 H 0.46958 0.5987 0.06333 0.0
H1587 H 0.47961 0.56071 0.23204 0.0
H1588 H 0.46015 0.55312 0.28505 0.0
H1589 H 0.4867 0.5814 0.28863 0.0
H1590 H 0.46216 0.60224 0.30024 0.0
H1591 H 0.43549 0.57395 0.29768 0.0
H1592 H 0.43776 0.5953 0.25268 0.0
H1593 H 0.43122 0.55774 0.059 0.0
H1594 H 0.39809 0.51794 0.0738 0.0
H1595 H 0.41833 0.53248 0.24258 0.0
C1596 C 0.49589 0.61633 0.21026 0.0
C1597 C 0.50931 0.62998 0.16991 0.0
C1598 C 0.49927 0.62396 0.11701 0.0
C1599 C 0.47666 0.60393 0.10419 0.0
C1600 C 0.46431 0.59018 0.14481 0.0
C1601 C 0.47352 0.5965 0.19702 0.0
C1602 C 0.45813 0.57796 0.23307 0.0
C1603 C 0.47198 0.5677 0.26131 0.0
C1604 C 0.44776 0.58796 0.27327 0.0
C1605 C 0.43903 0.55988 0.19306 0.0
C1606 C 0.44269 0.56708 0.14232 0.0
C1607 C 0.42802 0.55221 0.09879 0.0
C1608 C 0.40926 0.52956 0.10747 0.0
C1609 C 0.40528 0.52196 0.15931 0.0
C1610 C 0.42041 0.53763 0.20235 0.0
H1611 H 0.5866 0.75864 0.19516 0.0
H1612 H 0.54175 0.72288 0.31972 0.0
H1613 H 0.53761 0.75819 0.3409 0.0
H1614 H 0.61728 0.81705 0.26288 0.0
H1615 H 0.61871 0.831 0.20256 0.0
H1616 H 0.61839 0.80339 0.2005 0.0
H1617 H 0.58174 0.78492 0.13234 0.0
H1618 H 0.58198 0.81245 0.1341 0.0
H1619 H 0.55558 0.78599 0.14819 0.0
H1620 H 0.5379 0.79959 0.34375 0.0
H1621 H 0.54253 0.8389 0.32754 0.0
H1622 H 0.5873 0.8449 0.2012 0.0
C1623 C 0.5761 0.75823 0.22748 0.0
C1624 C 0.56468 0.73799 0.25607 0.0
C1625 C 0.55105 0.73829 0.29784 0.0
C1626 C 0.54849 0.75828 0.30979 0.0
C1627 C 0.5599 0.77795 0.28001 0.0
C1628 C 0.57357 0.77785 0.2399 0.0
C1629 C 0.58396 0.80045 0.21245 0.0
C1630 C 0.6112 0.81376 0.22007 0.0
C1631 C 0.57528 0.79565 0.1533 0.0
C1632 C 0.57383 0.81347 0.24238 0.0
C1633 C 0.56006 0.80058 0.28158 0.0
C1634 C 0.54883 0.80967 0.31328 0.0
C1635 C 0.55164 0.83212 0.30413 0.0
C1636 C 0.56533 0.8451 0.26317 0.0
C1637 C 0.57665 0.8355 0.2328 0.0
H1638 H 0.28897 0.82821 0.14978 0.0
H1639 H 0.31492 0.8504 0.31464 0.0
H1640 H 0.28224 0.81211 0.33997 0.0
H1641 H 0.22849 0.80214 0.17254 0.0
H1642 H 0.21925 0.77946 0.11931 0.0
H1643 H 0.24579 0.80735 0.11599 0.0
H1644 H 0.26964 0.78585 0.10311 0.0
H1645 H 0.24321 0.75785 0.10723 0.0
H1646 H 0.2691 0.76629 0.15128 0.0
H1647 H 0.24334 0.77094 0.34589 0.0
H1648 H 0.20313 0.73542 0.33242 0.0
H1649 H 0.20438 0.74174 0.16347 0.0
C1650 C 0.28831 0.82507 0.19138 0.0
C1651 C 0.30507 0.84244 0.23011 0.0
C1652 C 0.30264 0.83745 0.28402 0.0
C1653 C 0.28408 0.81565 0.29868 0.0
C1654 C 0.26788 0.799 0.25908 0.0
C1655 C 0.26992 0.80377 0.20649 0.0
C1656 C 0.24948 0.78437 0.17115 0.0
C1657 C 0.2349 0.7939 0.14313 0.0
C1658 C 0.2584 0.77291 0.13083 0.0
C1659 C 0.23549 0.76751 0.21165 0.0
C1660 C 0.24622 0.77605 0.26231 0.0
C1661 C 0.23516 0.76407 0.3062 0.0
C1662 C 0.21239 0.74364 0.29824 0.0
C1663 C 0.20087 0.73518 0.24676 0.0
C1664 C 0.21306 0.7471 0.20314 0.0
H1665 H 0.31086 0.4984 0.23949 0.0
H1666 H 0.28436 0.42388 0.20452 0.0
H1667 H 0.24328 0.41628 0.20337 0.0
H1668 H 0.26243 0.48944 0.32733 0.0
H1669 H 0.26143 0.51478 0.30627 0.0
H1670 H 0.2889 0.51435 0.30766 0.0
H1671 H 0.29237 0.52287 0.20884 0.0
H1672 H 0.26492 0.52321 0.20707 0.0
H1673 H 0.26837 0.50363 0.16074 0.0
H1674 H 0.20473 0.41676 0.20127 0.0
H1675 H 0.17188 0.42527 0.19909 0.0
H1676 H 0.22214 0.49948 0.23553 0.0
C1677 C 0.29637 0.48041 0.2335 0.0
C1678 C 0.30099 0.46161 0.22404 0.0
C1679 C 0.28145 0.43844 0.21415 0.0
C1680 C 0.25795 0.43398 0.2128 0.0
C1681 C 0.25397 0.45279 0.22232 0.0
C1682 C 0.27262 0.47555 0.23318 0.0
C1683 C 0.26324 0.49253 0.24163 0.0
C1684 C 0.26938 0.50344 0.29913 0.0
C1685 C 0.27279 0.51168 0.20218 0.0
C1686 C 0.23657 0.47598 0.23125 0.0
C1687 C 0.23165 0.45306 0.22113 0.0
C1688 C 0.2084 0.43459 0.21026 0.0
C1689 C 0.18974 0.43957 0.20975 0.0
C1690 C 0.19417 0.46292 0.21923 0.0
C1691 C 0.21804 0.48135 0.2299 0.0
H1692 H 0.02579 0.27076 0.14456 0.0
H1693 H 0.02808 0.20728 0.17262 0.0
H1694 H 0.03116 0.20099 0.07704 0.0
H1695 H 0.99032 0.25013 0.02469 0.0
H1696 H 1.0059 0.27731 0.99338 0.0
H1697 H 1.00557 0.27784 0.06437 0.0
H1698 H 0.05148 0.30092 0.07454 0.0
H1699 H 0.05205 0.30085 1.00353 0.0
H1700 H 0.06769 0.28933 0.04066 0.0
H1701 H 0.03208 0.20074 0.97721 0.0
H1702 H 0.03279 0.20789 0.88176 0.0
H1703 H 0.02951 0.27119 0.92029 0.0
C1704 C 0.02729 0.25575 0.13053 0.0
C1705 C 0.0269 0.23959 0.16572 0.0
C1706 C 0.02881 0.22008 0.14621 0.0
C1707 C 0.03036 0.21626 0.09202 0.0
C1708 C 0.03021 0.23226 0.05809 0.0
C1709 C 0.02904 0.25179 0.07669 0.0
C1710 C 0.02906 0.26624 0.03204 0.0
C1711 C 1.00635 0.26796 0.02842 0.0
C1712 C 0.0514 0.29079 0.03806 0.0
C1713 C 0.02973 0.25146 0.9853 0.0
C1714 C 0.03059 0.23203 1.00098 0.0
C1715 C 0.03157 0.21599 0.96447 0.0
C1716 C 0.03201 0.22017 0.91053 0.0
C1717 C 0.03115 0.24003 0.89395 0.0
C1718 C 0.02992 0.25573 0.93193 0.0
H1719 H 0.79522 0.75972 0.12559 0.0
H1720 H 0.82068 0.83343 0.16964 0.0
H1721 H 0.82084 0.84096 0.0745 0.0
H1722 H 0.82727 0.76639 1.01038 0.0
H1723 H 0.80308 0.7412 0.97294 0.0
H1724 H 0.8058 0.7421 0.04414 0.0
H1725 H 0.76315 0.73532 0.04749 0.0
H1726 H 0.76033 0.73432 0.97629 0.0
H1727 H 0.7555 0.7549 1.01577 0.0
H1728 H 0.81879 0.84026 0.97531 0.0
H1729 H 0.81219 0.83125 0.87814 0.0
H1730 H 0.78601 0.75743 0.89866 0.0
C1731 C 0.80105 0.77747 0.11497 0.0
C1732 C 0.80836 0.79614 0.15434 0.0
C1733 C 0.81529 0.81905 0.13963 0.0
C1734 C 0.81542 0.82342 0.08591 0.0
C1735 C 0.80817 0.80457 0.0479 0.0
C1736 C 0.80084 0.78201 0.06176 0.0
C1737 C 0.79288 0.76465 1.01341 0.0
C1738 C 0.80818 0.7529 1.01002 0.0
C1739 C 0.76639 0.74621 1.01324 0.0
C1740 C 0.79734 0.78103 0.96988 0.0
C1741 C 0.80621 0.804 0.99075 0.0
C1742 C 0.81184 0.82237 0.95857 0.0
C1743 C 0.80813 0.81714 0.90366 0.0
C1744 C 0.79882 0.79378 0.88165 0.0
C1745 C 0.79333 0.77545 0.91496 0.0
H1746 H 0.23729 0.0386 0.12872 0.0
H1747 H 0.24694 0.97855 0.14768 0.0
H1748 H 0.2448 0.9717 0.05002 0.0
H1749 H 0.19497 1.01218 1.01334 0.0
H1750 H 0.20587 0.03964 0.98311 0.0
H1751 H 0.20803 0.03953 0.05419 0.0
H1752 H 0.25328 0.0682 0.05677 0.0
H1753 H 0.25125 0.06839 0.98577 0.0
H1754 H 0.27126 0.06047 1.01782 0.0
H1755 H 0.24171 0.97147 0.95294 0.0
H1756 H 0.2392 0.97816 0.85879 0.0
H1757 H 0.23186 0.03887 0.90145 0.0
C1758 C 0.23911 0.02414 0.112 0.0
C1759 C 0.24252 1.00916 0.14486 0.0
C1760 C 0.24439 0.99012 0.12252 0.0
C1761 C 0.24316 0.98614 0.06744 0.0
C1762 C 0.23968 1.00119 0.03598 0.0
C1763 C 0.23763 0.01977 0.05727 0.0
C1764 C 0.23375 0.03314 1.0145 0.0
C1765 C 0.2092 0.03099 1.0164 0.0
C1766 C 0.25358 0.05908 1.01897 0.0
C1767 C 0.23486 0.01965 0.96559 0.0
C1768 C 0.23785 1.00106 0.97924 0.0
C1769 C 0.23919 0.9858 0.9416 0.0
C1770 C 0.23759 0.98964 0.8884 0.0
C1771 C 0.23495 1.00872 0.87336 0.0
C1772 C 0.2336 0.02401 0.91228 0.0
H1773 H 0.9996 0.76733 0.93327 0.0
H1774 H 0.06888 0.82948 0.93009 0.0
H1775 H 0.07125 0.83633 0.02726 0.0
H1776 H 0.97821 0.78882 0.03833 0.0
H1777 H 0.96393 0.76151 0.06956 0.0
H1778 H 0.96701 0.76119 0.99931 0.0
H1779 H 0.98863 0.73728 1.00866 0.0
H1780 H 0.98529 0.73722 0.07881 0.0
H1781 H 1.01431 0.74831 0.05502 0.0
H1782 H 0.06643 0.83666 0.12418 0.0
H1783 H 0.05528 0.82903 0.2162 0.0
H1784 H 0.98974 0.76613 0.15759 0.0
C1785 C 1.01517 0.78235 0.9533 0.0
C1786 C 0.03411 0.79795 0.92458 0.0
C1787 C 0.05432 0.81732 0.95176 0.0
C1788 C 0.05578 0.8214 1.00678 0.0
C1789 C 0.03692 0.80581 0.03419 0.0
C1790 C 1.01709 0.78651 1.00865 0.0
C1791 C 0.99985 0.77203 0.04822 0.0
C1792 C 0.97583 0.77083 0.03824 0.0
C1793 C 0.99685 0.74725 0.04761 0.0
C1794 C 1.01292 0.7865 0.09946 0.0
C1795 C 0.03427 0.80588 0.0905 0.0
C1796 C 0.04973 0.82152 0.13182 0.0
C1797 C 0.04331 0.81702 0.18389 0.0
C1798 C 0.02161 0.79705 0.19404 0.0
C1799 C 1.00622 0.78178 0.15106 0.0
H1800 H 0.25053 0.27283 0.16515 0.0
H1801 H 0.24117 0.20335 0.18135 0.0
H1802 H 0.23619 0.1955 0.08409 0.0
H1803 H 0.20901 0.25798 0.05235 0.0
H1804 H 0.22716 0.28437 0.02015 0.0
H1805 H 0.22977 0.28478 0.09128 0.0
H1806 H 0.27477 0.30007 0.09023 0.0
H1807 H 0.27247 0.29997 0.01914 0.0
H1808 H 0.28489 0.28394 0.05 0.0
H1809 H 0.23308 0.19535 0.98586 0.0
H1810 H 0.23334 0.20364 0.89146 0.0
H1811 H 0.24455 0.27303 0.93822 0.0
C1812 C 0.24752 0.25608 0.14785 0.0
C1813 C 0.2464 0.23869 0.18004 0.0
C1814 C 0.24238 0.2169 0.15673 0.0
C1815 C 0.23939 0.21225 0.10175 0.0
C1816 C 0.24062 0.22967 0.07073 0.0
C1817 C 0.2448 0.25123 0.09272 0.0
C1818 C 0.24619 0.26714 0.05002 0.0
C1819 C 0.22687 0.27396 0.05369 0.0
C1820 C 0.27105 0.28908 0.05251 0.0
C1821 C 0.24164 0.25096 1.00089 0.0
C1822 C 0.23861 0.22948 1.01375 0.0
C1823 C 0.23527 0.21204 0.97514 0.0
C1824 C 0.23543 0.21686 0.92181 0.0
C1825 C 0.23863 0.23882 0.90786 0.0
C1826 C 0.2415 0.25591 0.94794 0.0
H1827 H 0.80979 0.98993 0.13447 0.0
H1828 H 0.81614 0.05712 0.18419 0.0
H1829 H 0.81037 0.06374 0.09145 0.0
H1830 H 0.84168 1.01009 1.01593 0.0
H1831 H 0.82329 0.98266 0.97673 0.0
H1832 H 0.8278 0.98282 0.04739 0.0
H1833 H 0.78239 0.96086 0.0543 0.0
H1834 H 0.77769 0.96072 0.98372 0.0
H1835 H 0.76514 0.97316 0.0279 0.0
H1836 H 0.80397 0.06351 0.99528 0.0
H1837 H 0.79864 0.05673 0.89752 0.0
H1838 H 0.79679 0.99011 0.90893 0.0
C1839 C 0.81028 1.00611 0.12539 0.0
C1840 C 0.81394 0.02331 0.16586 0.0
C1841 C 0.81407 0.04412 0.15323 0.0
C1842 C 0.81055 0.04793 0.10089 0.0
C1843 C 0.80705 0.03078 0.06173 0.0
C1844 C 0.80709 1.01038 0.07297 0.0
C1845 C 0.8035 0.99521 0.02276 0.0
C1846 C 0.82537 0.99255 1.01527 0.0
C1847 C 0.78082 0.97106 0.02217 0.0
C1848 C 0.80106 1.01019 0.98208 0.0
C1849 C 0.8032 0.03062 1.0055 0.0
C1850 C 0.80221 0.04757 0.97618 0.0
C1851 C 0.79921 0.04363 0.92098 0.0
C1852 C 0.79709 0.02287 0.89627 0.0
C1853 C 0.7979 1.00592 0.9272 0.0
H1854 H 0.71461 0.601 0.22288 0.0
H1855 H 0.64446 0.54624 0.1587 0.0
H1856 H 0.63454 0.5336 0.24833 0.0
H1857 H 0.7251 0.57202 0.32229 0.0
H1858 H 0.73793 0.59663 0.3717 0.0
H1859 H 0.73999 0.60172 0.30248 0.0
H1860 H 0.71997 0.62714 0.31213 0.0
H1861 H 0.71862 0.6229 0.38186 0.0
H1862 H 0.69199 0.61531 0.34147 0.0
H1863 H 0.63255 0.5262 0.34545 0.0
H1864 H 0.63609 0.52858 0.44274 0.0
H1865 H 0.70718 0.58893 0.44365 0.0
C1866 C 0.69694 0.58663 0.2271 0.0
C1867 C 0.68064 0.57435 0.18249 0.0
C1868 C 0.65779 0.55552 0.19124 0.0
C1869 C 0.65185 0.54825 0.24231 0.0
C1870 C 0.66866 0.56029 0.28478 0.0
C1871 C 0.69047 0.5795 0.27786 0.0
C1872 C 0.70485 0.59032 0.33044 0.0
C1873 C 0.72835 0.59014 0.33179 0.0
C1874 C 0.70911 0.6154 0.34215 0.0
C1875 C 0.68806 0.57363 0.36789 0.0
C1876 C 0.66726 0.55648 0.34079 0.0
C1877 C 0.64875 0.53962 0.3671 0.0
C1878 C 0.6511 0.54098 0.42269 0.0
C1879 C 0.67187 0.55908 0.45179 0.0
C1880 C 0.69084 0.57509 0.42333 0.0
H1881 H 0.45393 0.08576 0.41779 0.0
H1882 H 0.48502 0.15984 0.46785 0.0
H1883 H 0.48761 0.16921 0.37384 0.0
H1884 H 0.48708 0.09162 0.3041 0.0
H1885 H 0.46228 0.0683 0.26377 0.0
H1886 H 0.46363 0.06761 0.33475 0.0
H1887 H 0.42241 0.06459 0.33612 0.0
H1888 H 0.42102 0.06512 0.26511 0.0
H1889 H 0.41775 0.08641 0.30591 0.0
H1890 H 0.48764 0.17047 0.27537 0.0
H1891 H 0.48213 0.16347 0.17777 0.0
H1892 H 0.44871 0.08825 0.19078 0.0
C1893 C 0.46147 0.10395 0.40869 0.0
C1894 C 0.4697 0.12219 0.44959 0.0
C1895 C 0.47892 0.14575 0.43676 0.0
C1896 C 0.48044 0.15118 0.38367 0.0
C1897 C 0.47228 0.13277 0.34415 0.0
C1898 C 0.46268 0.1096 0.35592 0.0
C1899 C 0.45423 0.09306 0.30592 0.0
C1900 C 0.46761 0.07934 0.30191 0.0
C1901 C 0.42725 0.07631 0.30311 0.0
C1902 C 0.46093 0.11058 0.26412 0.0
C1903 C 0.47146 0.1334 0.28716 0.0
C1904 C 0.47942 0.15271 0.25694 0.0
C1905 C 0.47634 0.1486 0.20175 0.0
C1906 C 0.46525 0.12543 0.17749 0.0
C1907 C 0.45742 0.10613 0.20884 0.0
H1908 H 0.88683 0.31999 0.1963 0.0
H1909 H 0.95246 0.38593 0.18829 0.0
H1910 H 0.95448 0.39391 0.2852 0.0
H1911 H 0.86335 0.34165 0.2959 0.0
H1912 H 0.84969 0.31465 0.3284 0.0
H1913 H 0.85354 0.31392 0.25852 0.0
H1914 H 0.8766 0.29168 0.27253 0.0
H1915 H 0.8726 0.29213 0.34233 0.0
H1916 H 0.902 0.30401 0.32006 0.0
H1917 H 0.94894 0.39544 0.38041 0.0
H1918 H 0.93799 0.38934 0.47246 0.0
H1919 H 0.87639 0.32171 0.42103 0.0
C1920 C 0.90188 0.33586 0.21518 0.0
C1921 C 0.91965 0.35227 0.18511 0.0
C1922 C 0.93872 0.37317 0.21079 0.0
C1923 C 0.93997 0.37784 0.26563 0.0
C1924 C 0.92196 0.36148 0.29394 0.0
C1925 C 0.90335 0.34084 0.26985 0.0
C1926 C 0.8862 0.32639 0.30962 0.0
C1927 C 0.86175 0.32402 0.29738 0.0
C1928 C 0.88426 0.30212 0.31124 0.0
C1929 C 0.89853 0.34185 0.36026 0.0
C1930 C 0.91887 0.3622 0.34975 0.0
C1931 C 0.93315 0.37959 0.38928 0.0
C1932 C 0.92676 0.37602 0.44123 0.0
C1933 C 0.90643 0.35516 0.45333 0.0
C1934 C 0.89202 0.33779 0.41246 0.0
H1935 H 0.71181 0.15246 0.23992 0.0
H1936 H 0.65104 0.08648 0.17646 0.0
H1937 H 0.63815 0.07736 0.26665 0.0
H1938 H 0.72489 0.13229 0.35765 0.0
H1939 H 0.73249 0.15853 0.39909 0.0
H1940 H 0.73635 0.16021 0.32923 0.0
H1941 H 0.71015 0.17937 0.32041 0.0
H1942 H 0.70619 0.17779 0.39031 0.0
H1943 H 0.68072 0.16467 0.3429 0.0
H1944 H 0.63203 0.07503 0.36204 0.0
H1945 H 0.6331 0.07856 0.45928 0.0
H1946 H 0.69843 0.14574 0.46468 0.0
C1947 C 0.69581 0.13609 0.24521 0.0
C1948 C 0.68228 0.12013 0.20115 0.0
C1949 C 0.66139 0.09902 0.20947 0.0
C1950 C 0.65402 0.09369 0.26059 0.0
C1951 C 0.66768 0.10978 0.30309 0.0
C1952 C 0.6881 0.13058 0.29615 0.0
C1953 C 0.69942 0.14473 0.34897 0.0
C1954 C 0.72479 0.14918 0.35935 0.0
C1955 C 0.6991 0.16802 0.35076 0.0
C1956 C 0.68264 0.12809 0.38695 0.0
C1957 C 0.66425 0.1083 0.35909 0.0
C1958 C 0.64624 0.09045 0.38436 0.0
C1959 C 0.64693 0.09268 0.43962 0.0
C1960 C 0.66564 0.11246 0.46958 0.0
C1961 C 0.68385 0.13044 0.4428 0.0
H1962 H 0.93032 0.6054 0.25041 0.0
H1963 H 0.89177 0.53228 0.18707 0.0
H1964 H 0.88313 0.51974 0.27729 0.0
H1965 H 0.95603 0.59668 0.37049 0.0
H1966 H 0.95273 0.61823 0.41022 0.0
H1967 H 0.95645 0.62124 0.34056 0.0
H1968 H 0.91767 0.62296 0.32954 0.0
H1969 H 0.91347 0.61928 0.39896 0.0
H1970 H 0.89053 0.59914 0.34989 0.0
H1971 H 0.87641 0.51503 0.37319 0.0
H1972 H 0.87752 0.51812 0.47064 0.0
H1973 H 0.92126 0.59417 0.47245 0.0
C1974 C 0.92017 0.58675 0.25553 0.0
C1975 C 0.91177 0.56984 0.21146 0.0
C1976 C 0.89875 0.54558 0.22006 0.0
C1977 C 0.89345 0.53827 0.27116 0.0
C1978 C 0.90128 0.55539 0.31337 0.0
C1979 C 0.9147 0.5791 0.30633 0.0
C1980 C 0.92114 0.59384 0.35869 0.0
C1981 C 0.9482 0.60834 0.37069 0.0
C1982 C 0.91004 0.60974 0.35929 0.0
C1983 C 0.90965 0.57462 0.39629 0.0
C1984 C 0.89789 0.55262 0.36912 0.0
C1985 C 0.88582 0.53214 0.39504 0.0
C1986 C 0.88664 0.53408 0.45046 0.0
C1987 C 0.8998 0.55634 0.47957 0.0
C1988 C 0.91087 0.57688 0.4517 0.0
H1989 H 0.48044 0.38251 0.22996 0.0
H1990 H 0.44112 0.30683 0.1926 0.0
H1991 H 0.44113 0.3007 0.28767 0.0
H1992 H 0.5173 0.38261 0.33852 0.0
H1993 H 0.51683 0.40578 0.37855 0.0
H1994 H 0.51354 0.40477 0.30738 0.0
H1995 H 0.47379 0.40449 0.31162 0.0
H1996 H 0.47724 0.4062 0.3828 0.0
H1997 H 0.45068 0.38272 0.34767 0.0
H1998 H 0.44813 0.30265 0.38571 0.0
H1999 H 0.45509 0.31236 0.48204 0.0
H2000 H 0.48687 0.38674 0.45608 0.0
C2001 C 0.47158 0.36469 0.24199 0.0
C2002 C 0.46064 0.34513 0.2041 0.0
C2003 C 0.44924 0.32205 0.2211 0.0
C2004 C 0.44943 0.31838 0.27493 0.0
C2005 C 0.46095 0.33798 0.31124 0.0
C2006 C 0.47136 0.36068 0.29571 0.0
C2007 C 0.48196 0.37861 0.34311 0.0
C2008 C 0.50901 0.39384 0.34179 0.0
C2009 C 0.4702 0.3939 0.34649 0.0
C2010 C 0.47553 0.36236 0.38758 0.0
C2011 C 0.46395 0.33905 0.36822 0.0
C2012 C 0.45676 0.32084 0.40153 0.0
C2013 C 0.46065 0.32659 0.45636 0.0
C2014 C 0.47107 0.35035 0.47751 0.0
C2015 C 0.47906 0.3684 0.4421 0.0
H2016 H 0.33626 0.8842 0.54996 0.0
H2017 H 0.40291 0.95004 0.55425 0.0
H2018 H 0.40485 0.95327 0.65171 0.0
H2019 H 0.3113 0.898 0.65557 0.0
H2020 H 0.29921 0.87015 0.68453 0.0
H2021 H 0.30331 0.87147 0.61477 0.0
H2022 H 0.32894 0.85169 0.62393 0.0
H2023 H 0.32469 0.85003 0.69372 0.0
H2024 H 0.35423 0.86434 0.67182 0.0
H2025 H 0.39871 0.95121 0.74811 0.0
H2026 H 0.38569 0.9424 0.83859 0.0
H2027 H 0.3234 0.87766 0.77454 0.0
C2028 C 0.35139 0.89908 0.57161 0.0
C2029 C 0.36957 0.91686 0.54436 0.0
C2030 C 0.38903 0.93607 0.57412 0.0
C2031 C 0.39023 0.93812 0.62958 0.0
C2032 C 0.37202 0.92061 0.65526 0.0
C2033 C 0.35316 0.90118 0.62752 0.0
C2034 C 0.33614 0.88487 0.66563 0.0
C2035 C 0.31101 0.88091 0.65444 0.0
C2036 C 0.33599 0.86134 0.66363 0.0
C2037 C 0.34764 0.899 0.71839 0.0
C2038 C 0.36856 0.91933 0.71146 0.0
C2039 C 0.38248 0.93521 0.75413 0.0
C2040 C 0.37498 0.93008 0.80537 0.0
C2041 C 0.35359 0.90938 0.81357 0.0
C2042 C 0.33975 0.89371 0.76934 0.0
H2043 H 0.14289 0.48545 0.80448 0.0
H2044 H 0.14236 0.41967 0.81949 0.0
H2045 H 0.13837 0.41243 0.72239 0.0
H2046 H 0.10083 0.4668 0.6923 0.0
H2047 H 0.11621 0.49352 0.65928 0.0
H2048 H 0.11965 0.49448 0.73036 0.0
H2049 H 0.16518 0.5145 0.72731 0.0
H2050 H 0.16188 0.51374 0.65618 0.0
H2051 H 0.17758 0.50069 0.68667 0.0
H2052 H 0.13396 0.41153 0.62517 0.0
H2053 H 0.12965 0.41766 0.5306 0.0
H2054 H 0.13314 0.48387 0.57636 0.0
C2055 C 0.14203 0.46965 0.78696 0.0
C2056 C 0.14303 0.45307 0.81901 0.0
C2057 C 0.14184 0.43257 0.79522 0.0
C2058 C 0.13953 0.4283 0.74026 0.0
C2059 C 0.13863 0.44482 0.70949 0.0
C2060 C 0.14003 0.46521 0.73161 0.0
C2061 C 0.1389 0.48004 0.68861 0.0
C2062 C 0.11762 0.48392 0.69292 0.0
C2063 C 0.16228 0.50364 0.68979 0.0
C2064 C 0.13577 0.4643 0.63955 0.0
C2065 C 0.13599 0.44424 0.65259 0.0
C2066 C 0.13381 0.42719 0.61423 0.0
C2067 C 0.13143 0.43079 0.56081 0.0
C2068 C 0.13098 0.45113 0.54663 0.0
C2069 C 0.13316 0.46804 0.58648 0.0
H2070 H 0.56776 0.65051 0.80442 0.0
H2071 H 0.58927 0.72375 0.844 0.0
H2072 H 0.58494 0.72929 0.74963 0.0
H2073 H 0.59937 0.66073 0.68779 0.0
H2074 H 0.57715 0.63411 0.6506 0.0
H2075 H 0.5802 0.63527 0.72175 0.0
H2076 H 0.53588 0.62281 0.72488 0.0
H2077 H 0.53269 0.62189 0.65368 0.0
H2078 H 0.52475 0.63992 0.69389 0.0
H2079 H 0.57956 0.72762 0.65246 0.0
H2080 H 0.5766 0.71958 0.55555 0.0
H2081 H 0.56006 0.6479 0.57708 0.0
C2082 C 0.57148 0.66762 0.79283 0.0
C2083 C 0.57904 0.68681 0.83092 0.0
C2084 C 0.5838 0.709 0.81494 0.0
C2085 C 0.58117 0.71225 0.76163 0.0
C2086 C 0.5738 0.69312 0.72479 0.0
C2087 C 0.56923 0.67129 0.73936 0.0
C2088 C 0.56305 0.65423 0.69104 0.0
C2089 C 0.58102 0.64559 0.6876 0.0
C2090 C 0.53758 0.63348 0.69089 0.0
C2091 C 0.56526 0.67006 0.64738 0.0
C2092 C 0.57111 0.69229 0.6679 0.0
C2093 C 0.57493 0.71027 0.63569 0.0
C2094 C 0.57332 0.70557 0.58077 0.0
C2095 C 0.56814 0.68315 0.55873 0.0
C2096 C 0.56362 0.66509 0.59263 0.0
H2097 H 0.34994 0.43077 0.81137 0.0
H2098 H 0.3409 0.4913 0.84079 0.0
H2099 H 0.34537 0.49905 0.74611 0.0
H2100 H 0.39297 0.45432 0.71196 0.0
H2101 H 0.38001 0.42664 0.67236 0.0
H2102 H 0.37768 0.42699 0.74289 0.0
H2103 H 0.33201 0.40138 0.72704 0.0
H2104 H 0.3342 0.40127 0.65645 0.0
H2105 H 0.31599 0.41144 0.68633 0.0
H2106 H 0.34878 0.49906 0.64833 0.0
H2107 H 0.35328 0.49295 0.55383 0.0
H2108 H 0.35947 0.43184 0.58632 0.0
C2109 C 0.3493 0.44586 0.79785 0.0
C2110 C 0.34519 0.46055 0.83315 0.0
C2111 C 0.344 0.47988 0.81416 0.0
C2112 C 0.34652 0.48438 0.76058 0.0
C2113 C 0.34996 0.46924 0.72647 0.0
C2114 C 0.35145 0.45041 0.74428 0.0
C2115 C 0.35422 0.43627 0.69883 0.0
C2116 C 0.37762 0.43606 0.70701 0.0
C2117 C 0.33283 0.4111 0.69175 0.0
C2118 C 0.3545 0.45036 0.65281 0.0
C2119 C 0.35179 0.46915 0.66972 0.0
C2120 C 0.35095 0.48444 0.63461 0.0
C2121 C 0.35331 0.48068 0.5809 0.0
C2122 C 0.35661 0.46187 0.56257 0.0
C2123 C 0.35708 0.44644 0.59917 0.0
H2124 H 0.57991 0.88416 0.81766 0.0
H2125 H 0.57782 0.94691 0.86975 0.0
H2126 H 0.57299 0.95412 0.77615 0.0
H2127 H 0.61262 0.90518 0.70563 0.0
H2128 H 0.59573 0.87795 0.6647 0.0
H2129 H 0.59809 0.87755 0.73559 0.0
H2130 H 0.55237 0.85472 0.73536 0.0
H2131 H 0.54981 0.85512 0.66437 0.0
H2132 H 0.5355 0.8667 0.70545 0.0
H2133 H 0.56897 0.95473 0.67791 0.0
H2134 H 0.56817 0.95042 0.58071 0.0
H2135 H 0.57351 0.88741 0.59068 0.0
C2136 C 0.57847 0.89943 0.80919 0.0
C2137 C 0.57927 0.91504 0.85071 0.0
C2138 C 0.57706 0.93469 0.83842 0.0
C2139 C 0.57433 0.93889 0.78546 0.0
C2140 C 0.57352 0.92309 0.74542 0.0
C2141 C 0.57548 0.90373 0.7566 0.0
C2142 C 0.57407 0.88951 0.70616 0.0
C2143 C 0.59647 0.88745 0.70283 0.0
C2144 C 0.55161 0.86506 0.70261 0.0
C2145 C 0.57233 0.90464 0.66458 0.0
C2146 C 0.57142 0.92356 0.68837 0.0
C2147 C 0.56956 0.93996 0.65881 0.0
C2148 C 0.56897 0.93727 0.60355 0.0
C2149 C 0.5706 0.91853 0.57798 0.0
C2150 C 0.57219 0.90189 0.60908 0.0
H2151 H 0.14436 0.7131 0.60998 0.0
H2152 H 0.1069 0.63738 0.57231 0.0
H2153 H 0.11013 0.63136 0.66647 0.0
H2154 H 0.18496 0.71466 0.71406 0.0
H2155 H 0.18417 0.73705 0.75641 0.0
H2156 H 0.1794 0.73626 0.68559 0.0
H2157 H 0.13906 0.73416 0.69588 0.0
H2158 H 0.144 0.73554 0.7667 0.0
H2159 H 0.11733 0.7116 0.73304 0.0
H2160 H 0.11944 0.63305 0.76264 0.0
H2161 H 0.12724 0.64205 0.85915 0.0
H2162 H 0.15592 0.7164 0.83746 0.0
C2163 C 0.13669 0.69528 0.62173 0.0
C2164 C 0.12521 0.67569 0.58365 0.0
C2165 C 0.11537 0.65265 0.60065 0.0
C2166 C 0.11741 0.64902 0.65404 0.0
C2167 C 0.12925 0.66859 0.69028 0.0
C2168 C 0.13829 0.69128 0.67532 0.0
C2169 C 0.14925 0.70905 0.72325 0.0
C2170 C 0.17603 0.72521 0.71958 0.0
C2171 C 0.13664 0.72342 0.73011 0.0
C2172 C 0.14449 0.69267 0.76719 0.0
C2173 C 0.13352 0.66949 0.74693 0.0
C2174 C 0.12764 0.65111 0.77922 0.0
C2175 C 0.13205 0.65642 0.83409 0.0
C2176 C 0.14169 0.67989 0.85639 0.0
C2177 C 0.14864 0.69828 0.82208 0.0
loop_
_geom_bond_atom_site_label_1
_geom_bond_atom_site_label_2
_geom_bond_distance
_geom_bond_site_symmetry_2
_ccdc_geom_bond_type
C0 Eu1 2.835 . S
C0 C2 1.496 1_655 S
C0 O20 1.257 1_655 S
C0 O21 1.260 . S
Eu1 C0 2.835 . S
Eu1 O20 2.473 1_655 S
Eu1 O21 2.480 . S
Eu1 O22 2.430 . S
Eu1 O23 2.670 . S
Eu1 O24 2.394 1_655 S
Eu1 O29 2.355 1_655 S
Eu1 O31 2.374 . S
C2 C0 1.496 1_455 S
C2 C3 1.348 1_455 S
C2 C7 1.411 . S
C3 C2 1.348 1_655 S
C3 C4 1.395 . S
C3 H32 0.931 . S
C4 C3 1.395 . S
C4 C5 1.383 1_655 S
C4 H33 0.931 . S
C5 C4 1.383 1_455 S
C5 C6 1.394 . S
C6 C5 1.394 . S
C6 C7 1.378 . S
C6 H34 0.931 . S
C7 C2 1.411 . S
C7 C6 1.378 . S
C7 H35 0.931 . S
C8 O22 1.259 . S
C8 O23 1.270 . S
C9 O24 1.251 . S
C9 O25 1.251 . S
C10 Eu11 2.835 . S
C10 C12 1.500 . S
C10 O26 1.257 1_455 S
C10 O27 1.260 . S
Eu11 C10 2.835 . S
Eu11 O23 2.355 1_455 S
Eu11 O25 2.374 . S
Eu11 O26 2.473 1_455 S
Eu11 O27 2.480 . S
Eu11 O28 2.430 . S
Eu11 O29 2.670 . S
Eu11 O30 2.394 1_455 S
C12 C10 1.500 . S
C12 C13 1.377 . S
C12 C17 1.377 1_455 S
C13 C12 1.377 . S
C13 C14 1.395 . S
C13 H36 0.931 . S
C14 C13 1.395 . S
C14 C15 1.383 . S
C14 H37 0.931 . S
C15 C14 1.383 . S
C15 C16 1.394 1_455 S
C16 C15 1.394 1_655 S
C16 C17 1.378 . S
C16 H38 0.931 . S
C17 C12 1.377 1_655 S
C17 C16 1.378 . S
C17 H39 0.931 . S
C18 O28 1.259 . S
C18 O29 1.270 . S
C19 O30 1.251 . S
C19 O31 1.251 . S
O20 C0 1.257 1_455 S
O20 Eu1 2.473 1_455 S
O21 C0 1.260 . S
O21 Eu1 2.480 . S
O22 Eu1 2.430 . S
O22 C8 1.259 . S
O23 Eu1 2.670 . S
O23 C8 1.270 . S
O23 Eu11 2.355 1_655 S
O24 Eu1 2.394 1_455 S
O24 C9 1.251 . S
O25 C9 1.251 . S
O25 Eu11 2.374 . S
O26 C10 1.257 1_655 S
O26 Eu11 2.473 1_655 S
O27 C10 1.260 . S
O27 Eu11 2.480 . S
O28 Eu11 2.430 . S
O28 C18 1.259 . S
O29 Eu1 2.355 1_455 S
O29 Eu11 2.670 . S
O29 C18 1.270 . S
O30 Eu11 2.394 1_655 S
O30 C19 1.251 . S
O31 Eu1 2.374 . S
O31 C19 1.251 . S
H32 C3 0.931 . S
H33 C4 0.931 . S
H34 C6 0.931 . S
H35 C7 0.931 . S
H36 C13 0.931 . S
H37 C14 0.931 . S
H38 C16 0.931 . S
H39 C17 0.931 . S
C40 Eu41 2.835 . S
C40 C42 1.500 . S
C40 O60 1.257 . S
C40 O61 1.260 . S
Eu41 C40 2.835 . S
Eu41 O60 2.473 . S
Eu41 O61 2.480 . S
Eu41 O62 2.430 . S
Eu41 O63 2.670 . S
Eu41 O64 2.394 . S
Eu41 O69 2.355 . S
Eu41 O71 2.374 . S
C42 C40 1.500 . S
C42 C43 1.377 . S
C42 C47 1.377 . S
C43 C42 1.377 . S
C43 C44 1.395 . S
C43 H72 0.931 . S
C44 C43 1.395 . S
C44 C45 1.383 . S
C44 H73 0.931 . S
C45 C44 1.383 . S
C45 C46 1.394 . S
C46 C45 1.394 . S
C46 C47 1.378 . S
C46 H74 0.931 . S
C47 C42 1.377 . S
C47 C46 1.378 . S
C47 H75 0.931 . S
C48 O62 1.259 . S
C48 O63 1.270 . S
C49 O64 1.251 . S
C49 O65 1.251 . S
C50 Eu51 2.835 . S
C50 C52 1.500 . S
C50 O66 1.257 . S
C50 O67 1.260 . S
Eu51 C50 2.835 . S
Eu51 O63 2.355 . S
Eu51 O65 2.374 . S
Eu51 O66 2.473 . S
Eu51 O67 2.480 . S
Eu51 O68 2.430 . S
Eu51 O69 2.670 . S
Eu51 O70 2.394 . S
C52 C50 1.500 . S
C52 C53 1.377 . S
C52 C57 1.377 . S
C53 C52 1.377 . S
C53 C54 1.395 . S
C53 H76 0.931 . S
C54 C53 1.395 . S
C54 C55 1.383 . S
C54 H77 0.931 . S
C55 C54 1.383 . S
C55 C56 1.394 . S
C56 C55 1.394 . S
C56 C57 1.378 . S
C56 H78 0.931 . S
C57 C52 1.377 . S
C57 C56 1.378 . S
C57 H79 0.931 . S
C58 O68 1.259 . S
C58 O69 1.270 . S
C59 O70 1.251 . S
C59 O71 1.251 . S
O60 C40 1.257 . S
O60 Eu41 2.473 . S
O61 C40 1.260 . S
O61 Eu41 2.480 . S
O62 Eu41 2.430 . S
O62 C48 1.259 . S
O63 Eu41 2.670 . S
O63 C48 1.270 . S
O63 Eu51 2.355 . S
O64 Eu41 2.394 . S
O64 C49 1.251 . S
O65 C49 1.251 . S
O65 Eu51 2.374 . S
O66 C50 1.257 . S
O66 Eu51 2.473 . S
O67 C50 1.260 . S
O67 Eu51 2.480 . S
O68 Eu51 2.430 . S
O68 C58 1.259 . S
O69 Eu41 2.355 . S
O69 Eu51 2.670 . S
O69 C58 1.270 . S
O70 Eu51 2.394 . S
O70 C59 1.251 . S
O71 Eu41 2.374 . S
O71 C59 1.251 . S
H72 C43 0.931 . S
H73 C44 0.931 . S
H74 C46 0.931 . S
H75 C47 0.931 . S
H76 C53 0.931 . S
H77 C54 0.931 . S
H78 C56 0.931 . S
H79 C57 0.931 . S
C80 Eu81 2.835 . S
C80 C82 1.500 1_545 S
C80 O100 1.257 1_545 S
C80 O101 1.260 . S
Eu81 C80 2.835 . S
Eu81 O100 2.473 1_545 S
Eu81 O101 2.480 . S
Eu81 O102 2.430 . S
Eu81 O103 2.670 . S
Eu81 O104 2.394 1_545 S
Eu81 O109 2.355 1_545 S
Eu81 O111 2.374 . S
C82 C80 1.500 1_565 S
C82 C83 1.377 1_565 S
C82 C87 1.377 . S
C83 C82 1.377 1_545 S
C83 C84 1.395 . S
C83 H112 0.931 . S
C84 C83 1.395 . S
C84 C85 1.383 1_545 S
C84 H113 0.931 . S
C85 C84 1.383 1_565 S
C85 C86 1.394 . S
C86 C85 1.394 . S
C86 C87 1.378 . S
C86 H114 0.931 . S
C87 C82 1.377 . S
C87 C86 1.378 . S
C87 H115 0.931 . S
C88 O102 1.259 . S
C88 O103 1.270 . S
C89 O104 1.251 . S
C89 O105 1.251 . S
C90 Eu91 2.835 . S
C90 C92 1.500 1_565 S
C90 O106 1.257 1_565 S
C90 O107 1.260 . S
Eu91 C90 2.835 . S
Eu91 O103 2.355 1_565 S
Eu91 O105 2.374 . S
Eu91 O106 2.473 1_565 S
Eu91 O107 2.480 . S
Eu91 O108 2.430 . S
Eu91 O109 2.670 . S
Eu91 O110 2.394 1_565 S
C92 C90 1.500 1_545 S
C92 C93 1.377 1_545 S
C92 C97 1.377 . S
C93 C92 1.377 1_565 S
C93 C94 1.395 . S
C93 H116 0.931 . S
C94 C93 1.395 . S
C94 C95 1.383 1_565 S
C94 H117 0.931 . S
C95 C94 1.383 1_545 S
C95 C96 1.394 . S
C96 C95 1.394 . S
C96 C97 1.378 . S
C96 H118 0.931 . S
C97 C92 1.377 . S
C97 C96 1.378 . S
C97 H119 0.931 . S
C98 O108 1.259 . S
C98 O109 1.270 . S
C99 O110 1.251 . S
C99 O111 1.251 . S
O100 C80 1.257 1_565 S
O100 Eu81 2.473 1_565 S
O101 C80 1.260 . S
O101 Eu81 2.480 . S
O102 Eu81 2.430 . S
O102 C88 1.259 . S
O103 Eu81 2.670 . S
O103 C88 1.270 . S
O103 Eu91 2.355 1_545 S
O104 Eu81 2.394 1_565 S
O104 C89 1.251 . S
O105 C89 1.251 . S
O105 Eu91 2.374 . S
O106 C90 1.257 1_545 S
O106 Eu91 2.473 1_545 S
O107 C90 1.260 . S
O107 Eu91 2.480 . S
O108 Eu91 2.430 . S
O108 C98 1.259 . S
O109 Eu81 2.355 1_565 S
O109 Eu91 2.670 . S
O109 C98 1.270 . S
O110 Eu91 2.394 1_545 S
O110 C99 1.251 . S
O111 Eu81 2.374 . S
O111 C99 1.251 . S
H112 C83 0.931 . S
H113 C84 0.931 . S
H114 C86 0.931 . S
H115 C87 0.931 . S
H116 C93 0.931 . S
H117 C94 0.931 . S
H118 C96 0.931 . S
H119 C97 0.931 . S
C120 Eu121 2.835 . S
C120 C122 1.500 . S
C120 O140 1.257 1_655 S
C120 O141 1.260 . S
Eu121 C120 2.835 . S
Eu121 O140 2.473 1_655 S
Eu121 O141 2.480 . S
Eu121 O142 2.430 . S
Eu121 O143 2.670 . S
Eu121 O144 2.394 1_655 S
Eu121 O149 2.355 1_655 S
Eu121 O151 2.374 . S
C122 C120 1.500 . S
C122 C123 1.377 . S
C122 C127 1.377 1_655 S
C123 C122 1.377 . S
C123 C124 1.395 . S
C123 H152 0.931 . S
C124 C123 1.395 . S
C124 C125 1.383 1_655 S
C124 H153 0.931 . S
C125 C124 1.383 1_455 S
C125 C126 1.394 . S
C126 C125 1.394 . S
C126 C127 1.378 . S
C126 H154 0.931 . S
C127 C122 1.377 1_455 S
C127 C126 1.378 . S
C127 H155 0.931 . S
C128 O142 1.259 . S
C128 O143 1.270 . S
C129 O144 1.251 . S
C129 O145 1.251 . S
C130 Eu131 2.835 . S
C130 C132 1.500 . S
C130 O146 1.257 1_455 S
C130 O147 1.260 . S
Eu131 C130 2.835 . S
Eu131 O143 2.355 1_455 S
Eu131 O145 2.374 . S
Eu131 O146 2.473 1_455 S
Eu131 O147 2.480 . S
Eu131 O148 2.430 . S
Eu131 O149 2.670 . S
Eu131 O150 2.394 1_455 S
C132 C130 1.500 . S
C132 C133 1.377 . S
C132 C137 1.377 1_455 S
C133 C132 1.377 . S
C133 C134 1.395 . S
C133 H156 0.931 . S
C134 C133 1.395 . S
C134 C135 1.409 . S
C134 H157 0.931 . S
C135 C134 1.409 . S
C135 C136 1.372 1_455 S
C136 C135 1.372 1_655 S
C136 C137 1.378 . S
C136 H158 0.931 . S
C137 C132 1.377 1_655 S
C137 C136 1.378 . S
C137 H159 0.931 . S
C138 O148 1.259 . S
C138 O149 1.270 . S
C139 O150 1.251 . S
C139 O151 1.251 . S
O140 C120 1.257 1_455 S
O140 Eu121 2.473 1_455 S
O141 C120 1.260 . S
O141 Eu121 2.480 . S
O142 Eu121 2.430 . S
O142 C128 1.259 . S
O143 Eu121 2.670 . S
O143 C128 1.270 . S
O143 Eu131 2.355 1_655 S
O144 Eu121 2.394 1_455 S
O144 C129 1.251 . S
O145 C129 1.251 . S
O145 Eu131 2.374 . S
O146 C130 1.257 1_655 S
O146 Eu131 2.473 1_655 S
O147 C130 1.260 . S
O147 Eu131 2.480 . S
O148 Eu131 2.430 . S
O148 C138 1.259 . S
O149 Eu121 2.355 1_455 S
O149 Eu131 2.670 . S
O149 C138 1.270 . S
O150 Eu131 2.394 1_655 S
O150 C139 1.251 . S
O151 Eu121 2.374 . S
O151 C139 1.251 . S
H152 C123 0.931 . S
H153 C124 0.931 . S
H154 C126 0.931 . S
H155 C127 0.931 . S
H156 C133 0.931 . S
H157 C134 0.931 . S
H158 C136 0.931 . S
H159 C137 0.931 . S
C160 Eu161 2.835 . S
C160 C162 1.500 . S
C160 O180 1.257 . S
C160 O181 1.260 . S
Eu161 C160 2.835 . S
Eu161 O180 2.473 . S
Eu161 O181 2.480 . S
Eu161 O182 2.430 . S
Eu161 O183 2.670 . S
Eu161 O184 2.394 . S
Eu161 O189 2.355 . S
Eu161 O191 2.374 . S
C162 C160 1.500 . S
C162 C163 1.377 . S
C162 C167 1.377 . S
C163 C162 1.377 . S
C163 C164 1.395 . S
C163 H192 0.931 . S
C164 C163 1.395 . S
C164 C165 1.383 . S
C164 H193 0.931 . S
C165 C164 1.383 . S
C165 C166 1.394 . S
C166 C165 1.394 . S
C166 C167 1.378 . S
C166 H194 0.931 . S
C167 C162 1.377 . S
C167 C166 1.378 . S
C167 H195 0.931 . S
C168 O182 1.259 . S
C168 O183 1.270 . S
C169 O184 1.251 . S
C169 O185 1.251 . S
C170 Eu171 2.835 . S
C170 C172 1.500 . S
C170 O186 1.257 . S
C170 O187 1.260 . S
Eu171 C170 2.835 . S
Eu171 O183 2.355 . S
Eu171 O185 2.374 . S
Eu171 O186 2.473 . S
Eu171 O187 2.480 . S
Eu171 O188 2.430 . S
Eu171 O189 2.670 . S
Eu171 O190 2.394 . S
C172 C170 1.500 . S
C172 C173 1.377 . S
C172 C177 1.377 . S
C173 C172 1.377 . S
C173 C174 1.395 . S
C173 H196 0.931 . S
C174 C173 1.395 . S
C174 C175 1.383 . S
C174 H197 0.931 . S
C175 C174 1.383 . S
C175 C176 1.394 . S
C176 C175 1.394 . S
C176 C177 1.378 . S
C176 H198 0.931 . S
C177 C172 1.377 . S
C177 C176 1.378 . S
C177 H199 0.931 . S
C178 O188 1.259 . S
C178 O189 1.270 . S
C179 O190 1.251 . S
C179 O191 1.251 . S
O180 C160 1.257 . S
O180 Eu161 2.473 . S
O181 C160 1.260 . S
O181 Eu161 2.480 . S
O182 Eu161 2.430 . S
O182 C168 1.259 . S
O183 Eu161 2.670 . S
O183 C168 1.270 . S
O183 Eu171 2.355 . S
O184 Eu161 2.394 . S
O184 C169 1.251 . S
O185 C169 1.251 . S
O185 Eu171 2.374 . S
O186 C170 1.257 . S
O186 Eu171 2.473 . S
O187 C170 1.260 . S
O187 Eu171 2.480 . S
O188 Eu171 2.430 . S
O188 C178 1.259 . S
O189 Eu161 2.355 . S
O189 Eu171 2.670 . S
O189 C178 1.270 . S
O190 Eu171 2.394 . S
O190 C179 1.251 . S
O191 Eu161 2.374 . S
O191 C179 1.251 . S
H192 C163 0.931 . S
H193 C164 0.931 . S
H194 C166 0.931 . S
H195 C167 0.931 . S
H196 C173 0.931 . S
H197 C174 0.931 . S
H198 C176 0.931 . S
H199 C177 0.931 . S
C200 Eu201 2.835 . S
C200 C202 1.500 . S
C200 O220 1.257 1_545 S
C200 O221 1.260 . S
Eu201 C200 2.835 . S
Eu201 O220 2.473 1_545 S
Eu201 O221 2.480 . S
Eu201 O222 2.430 . S
Eu201 O223 2.670 . S
Eu201 O224 2.394 1_545 S
Eu201 O229 2.355 1_545 S
Eu201 O231 2.374 . S
C202 C200 1.500 . S
C202 C203 1.377 . S
C202 C207 1.377 1_545 S
C203 C202 1.377 . S
C203 C204 1.395 . S
C203 H232 0.931 . S
C204 C203 1.395 . S
C204 C205 1.383 1_545 S
C204 H233 0.931 . S
C205 C204 1.383 1_565 S
C205 C206 1.394 . S
C206 C205 1.394 . S
C206 C207 1.378 . S
C206 H234 0.931 . S
C207 C202 1.377 1_565 S
C207 C206 1.378 . S
C207 H235 0.931 . S
C208 O222 1.259 . S
C208 O223 1.270 . S
C209 O224 1.251 . S
C209 O225 1.251 . S
C210 Eu211 2.835 1_545 S
C210 C212 1.500 . S
C210 O226 1.257 . S
C210 O227 1.260 1_545 S
Eu211 C210 2.835 1_565 S
Eu211 O223 2.355 1_565 S
Eu211 O225 2.374 . S
Eu211 O226 2.473 1_565 S
Eu211 O227 2.480 . S
Eu211 O228 2.430 . S
Eu211 O229 2.670 . S
Eu211 O230 2.394 1_565 S
C212 C210 1.500 . S
C212 C213 1.377 1_545 S
C212 C217 1.377 . S
C213 C212 1.377 1_565 S
C213 C214 1.395 . S
C213 H236 0.931 . S
C214 C213 1.395 . S
C214 C215 1.383 1_565 S
C214 H237 0.931 . S
C215 C214 1.383 1_545 S
C215 C216 1.394 . S
C216 C215 1.394 . S
C216 C217 1.378 . S
C216 H238 0.931 . S
C217 C212 1.377 . S
C217 C216 1.378 . S
C217 H239 0.931 . S
C218 O228 1.259 . S
C218 O229 1.270 . S
C219 O230 1.251 . S
C219 O231 1.251 . S
O220 C200 1.257 1_565 S
O220 Eu201 2.473 1_565 S
O221 C200 1.260 . S
O221 Eu201 2.480 . S
O222 Eu201 2.430 . S
O222 C208 1.259 . S
O223 Eu201 2.670 . S
O223 C208 1.270 . S
O223 Eu211 2.355 1_545 S
O224 Eu201 2.394 1_565 S
O224 C209 1.251 . S
O225 C209 1.251 . S
O225 Eu211 2.374 . S
O226 C210 1.257 . S
O226 Eu211 2.473 1_545 S
O227 C210 1.260 1_565 S
O227 Eu211 2.480 . S
O228 Eu211 2.430 . S
O228 C218 1.259 . S
O229 Eu201 2.355 1_565 S
O229 Eu211 2.670 . S
O229 C218 1.270 . S
O230 Eu211 2.394 1_545 S
O230 C219 1.251 . S
O231 Eu201 2.374 . S
O231 C219 1.251 . S
H232 C203 0.931 . S
H233 C204 0.931 . S
H234 C206 0.931 . S
H235 C207 0.931 . S
H236 C213 0.931 . S
H237 C214 0.931 . S
H238 C216 0.931 . S
H239 C217 0.931 . S
C240 Eu241 2.835 . S
C240 C242 1.500 1_556 S
C240 O260 1.257 . S
C240 O261 1.260 . S
Eu241 C240 2.835 . S
Eu241 O260 2.473 . S
Eu241 O261 2.480 . S
Eu241 O262 2.430 . S
Eu241 O263 2.670 . S
Eu241 O264 2.394 . S
Eu241 O269 2.355 . S
Eu241 O271 2.374 . S
C242 C240 1.500 1_554 S
C242 C243 1.377 . S
C242 C247 1.377 . S
C243 C242 1.377 . S
C243 C244 1.395 . S
C243 H272 0.931 . S
C244 C243 1.395 . S
C244 C245 1.383 . S
C244 H273 0.931 . S
C245 C244 1.383 . S
C245 C246 1.394 . S
C246 C245 1.394 . S
C246 C247 1.378 . S
C246 H274 0.931 . S
C247 C242 1.377 . S
C247 C246 1.378 . S
C247 H275 0.931 . S
C248 O262 1.259 . S
C248 O263 1.270 . S
C249 O264 1.251 . S
C249 O265 1.251 . S
C250 Eu251 2.835 . S
C250 C252 1.500 . S
C250 O266 1.257 . S
C250 O267 1.260 . S
Eu251 C250 2.835 . S
Eu251 O263 2.355 . S
Eu251 O265 2.374 . S
Eu251 O266 2.473 . S
Eu251 O267 2.480 . S
Eu251 O268 2.430 . S
Eu251 O269 2.670 . S
Eu251 O270 2.394 . S
C252 C250 1.500 . S
C252 C253 1.377 . S
C252 C257 1.377 . S
C253 C252 1.377 . S
C253 C254 1.395 . S
C253 H276 0.931 . S
C254 C253 1.395 . S
C254 C255 1.383 . S
C254 H277 0.931 . S
C255 C254 1.383 . S
C255 C256 1.394 . S
C256 C255 1.394 . S
C256 C257 1.378 . S
C256 H278 0.931 . S
C257 C252 1.377 . S
C257 C256 1.378 . S
C257 H279 0.931 . S
C258 O268 1.259 . S
C258 O269 1.270 . S
C259 O270 1.251 . S
C259 O271 1.251 . S
O260 C240 1.257 . S
O260 Eu241 2.473 . S
O261 C240 1.260 . S
O261 Eu241 2.480 . S
O262 Eu241 2.430 . S
O262 C248 1.259 . S
O263 Eu241 2.670 . S
O263 C248 1.270 . S
O263 Eu251 2.355 . S
O264 Eu241 2.394 . S
O264 C249 1.251 . S
O265 C249 1.251 . S
O265 Eu251 2.374 . S
O266 C250 1.257 . S
O266 Eu251 2.473 . S
O267 C250 1.260 . S
O267 Eu251 2.480 . S
O268 Eu251 2.430 . S
O268 C258 1.259 . S
O269 Eu241 2.355 . S
O269 Eu251 2.670 . S
O269 C258 1.270 . S
O270 Eu251 2.394 . S
O270 C259 1.251 . S
O271 Eu241 2.374 . S
O271 C259 1.251 . S
H272 C243 0.931 . S
H273 C244 0.931 . S
H274 C246 0.931 . S
H275 C247 0.931 . S
H276 C253 0.931 . S
H277 C254 0.931 . S
H278 C256 0.931 . S
H279 C257 0.931 . S
C280 Eu281 2.835 . S
C280 C282 1.500 . S
C280 O300 1.257 . S
C280 O301 1.260 . S
Eu281 C280 2.835 . S
Eu281 O300 2.473 . S
Eu281 O301 2.480 . S
Eu281 O302 2.430 . S
Eu281 O303 2.670 . S
Eu281 O304 2.394 . S
Eu281 O309 2.355 . S
Eu281 O311 2.374 . S
C282 C280 1.500 . S
C282 C283 1.377 1_556 S
C282 C287 1.377 1_556 S
C283 C282 1.377 1_554 S
C283 C284 1.395 . S
C283 H312 0.931 . S
C284 C283 1.395 . S
C284 C285 1.383 . S
C284 H313 0.931 . S
C285 C284 1.383 . S
C285 C286 1.394 . S
C286 C285 1.394 . S
C286 C287 1.378 . S
C286 H314 0.931 . S
C287 C282 1.377 1_554 S
C287 C286 1.378 . S
C287 H315 0.919 1_554 S
C288 O302 1.259 . S
C288 O303 1.270 . S
C289 O304 1.251 . S
C289 O305 1.251 . S
C290 Eu291 2.835 . S
C290 C292 1.500 . S
C290 O306 1.257 . S
C290 O307 1.260 . S
Eu291 C290 2.835 . S
Eu291 O303 2.355 . S
Eu291 O305 2.374 . S
Eu291 O306 2.473 . S
Eu291 O307 2.480 . S
Eu291 O308 2.430 . S
Eu291 O309 2.670 . S
Eu291 O310 2.394 . S
C292 C290 1.500 . S
C292 C293 1.377 . S
C292 C297 1.377 . S
C293 C292 1.377 . S
C293 C294 1.395 . S
C293 H316 0.931 . S
C294 C293 1.395 . S
C294 C295 1.383 . S
C294 H317 0.931 . S
C295 C294 1.383 . S
C295 C296 1.394 . S
C296 C295 1.394 . S
C296 C297 1.378 . S
C296 H318 0.931 . S
C297 C292 1.377 . S
C297 C296 1.378 . S
C297 H319 0.931 . S
C298 O308 1.259 . S
C298 O309 1.270 . S
C299 O310 1.251 . S
C299 O311 1.251 . S
O300 C280 1.257 . S
O300 Eu281 2.473 . S
O301 C280 1.260 . S
O301 Eu281 2.480 . S
O302 Eu281 2.430 . S
O302 C288 1.259 . S
O303 Eu281 2.670 . S
O303 C288 1.270 . S
O303 Eu291 2.355 . S
O304 Eu281 2.394 . S
O304 C289 1.251 . S
O305 C289 1.251 . S
O305 Eu291 2.374 . S
O306 C290 1.257 . S
O306 Eu291 2.473 . S
O307 C290 1.260 . S
O307 Eu291 2.480 . S
O308 Eu291 2.430 . S
O308 C298 1.259 . S
O309 Eu281 2.355 . S
O309 Eu291 2.670 . S
O309 C298 1.270 . S
O310 Eu291 2.394 . S
O310 C299 1.251 . S
O311 Eu281 2.374 . S
O311 C299 1.251 . S
H312 C283 0.931 . S
H313 C284 0.931 . S
H314 C286 0.931 . S
H315 C287 0.919 1_556 S
H316 C293 0.931 . S
H317 C294 0.931 . S
H318 C296 0.931 . S
H319 C297 0.931 . S
C320 Eu321 2.835 . S
C320 C322 1.500 1_556 S
C320 O340 1.257 . S
C320 O341 1.260 . S
Eu321 C320 2.835 . S
Eu321 O340 2.473 . S
Eu321 O341 2.480 . S
Eu321 O342 2.430 . S
Eu321 O343 2.670 . S
Eu321 O344 2.394 . S
Eu321 O349 2.355 . S
Eu321 O351 2.374 . S
C322 C320 1.500 1_554 S
C322 C323 1.377 . S
C322 C327 1.377 . S
C323 C322 1.377 . S
C323 C324 1.395 . S
C323 H352 0.931 . S
C324 C323 1.395 . S
C324 C325 1.383 . S
C324 H353 0.931 . S
C325 C324 1.383 . S
C325 C326 1.394 . S
C326 C325 1.394 . S
C326 C327 1.378 . S
C326 H354 0.931 . S
C327 C322 1.377 . S
C327 C326 1.378 . S
C327 H355 0.931 . S
C328 O342 1.259 . S
C328 O343 1.270 . S
C329 O344 1.251 . S
C329 O345 1.251 . S
C330 Eu331 2.835 . S
C330 C332 1.500 . S
C330 O346 1.257 . S
C330 O347 1.260 . S
Eu331 C330 2.835 . S
Eu331 O343 2.355 . S
Eu331 O345 2.374 . S
Eu331 O346 2.473 . S
Eu331 O347 2.480 . S
Eu331 O348 2.430 . S
Eu331 O349 2.670 . S
Eu331 O350 2.394 . S
C332 C330 1.500 . S
C332 C333 1.377 . S
C332 C337 1.377 . S
C333 C332 1.377 . S
C333 C334 1.395 . S
C333 H356 0.931 . S
C334 C333 1.395 . S
C334 C335 1.383 . S
C334 H357 0.931 . S
C335 C334 1.383 . S
C335 C336 1.394 . S
C336 C335 1.394 . S
C336 C337 1.378 . S
C336 H358 0.931 . S
C337 C332 1.377 . S
C337 C336 1.378 . S
C337 H359 0.931 . S
C338 O348 1.259 . S
C338 O349 1.270 . S
C339 O350 1.251 . S
C339 O351 1.251 . S
O340 C320 1.257 . S
O340 Eu321 2.473 . S
O341 C320 1.260 . S
O341 Eu321 2.480 . S
O342 Eu321 2.430 . S
O342 C328 1.259 . S
O343 Eu321 2.670 . S
O343 C328 1.270 . S
O343 Eu331 2.355 . S
O344 Eu321 2.394 . S
O344 C329 1.251 . S
O345 C329 1.251 . S
O345 Eu331 2.374 . S
O346 C330 1.257 . S
O346 Eu331 2.473 . S
O347 C330 1.260 . S
O347 Eu331 2.480 . S
O348 Eu331 2.430 . S
O348 C338 1.259 . S
O349 Eu321 2.355 . S
O349 Eu331 2.670 . S
O349 C338 1.270 . S
O350 Eu331 2.394 . S
O350 C339 1.251 . S
O351 Eu321 2.374 . S
O351 C339 1.251 . S
H352 C323 0.931 . S
H353 C324 0.931 . S
H354 C326 0.931 . S
H355 C327 0.931 . S
H356 C333 0.931 . S
H357 C334 0.931 . S
H358 C336 0.931 . S
H359 C337 0.931 . S
C360 Eu361 2.835 . S
C360 C362 1.500 . S
C360 O380 1.257 . S
C360 O381 1.260 . S
Eu361 C360 2.835 . S
Eu361 O380 2.473 . S
Eu361 O381 2.480 . S
Eu361 O382 2.430 . S
Eu361 O383 2.670 . S
Eu361 O384 2.394 . S
Eu361 O389 2.355 . S
Eu361 O391 2.374 . S
C362 C360 1.500 . S
C362 C363 1.377 . S
C362 C367 1.377 . S
C363 C362 1.377 . S
C363 C364 1.395 . S
C363 H392 0.931 . S
C364 C363 1.395 . S
C364 C365 1.383 . S
C364 H393 0.931 . S
C365 C364 1.383 . S
C365 C366 1.394 . S
C366 C365 1.394 . S
C366 C367 1.378 . S
C366 H394 0.931 . S
C367 C362 1.377 . S
C367 C366 1.378 . S
C367 H395 0.931 . S
C368 O382 1.259 . S
C368 O383 1.270 . S
C369 O384 1.251 . S
C369 O385 1.251 . S
C370 Eu371 2.835 . S
C370 C372 1.500 1_556 S
C370 O386 1.257 . S
C370 O387 1.260 . S
Eu371 C370 2.835 . S
Eu371 O383 2.355 . S
Eu371 O385 2.374 . S
Eu371 O386 2.473 . S
Eu371 O387 2.480 . S
Eu371 O388 2.430 . S
Eu371 O389 2.670 . S
Eu371 O390 2.394 . S
C372 C370 1.500 1_554 S
C372 C373 1.377 . S
C372 C377 1.377 . S
C373 C372 1.377 . S
C373 C374 1.395 . S
C373 H396 0.931 . S
C374 C373 1.395 . S
C374 C375 1.383 . S
C374 H397 0.931 . S
C375 C374 1.383 . S
C375 C376 1.394 . S
C376 C375 1.394 . S
C376 C377 1.378 . S
C376 H398 0.931 . S
C377 C372 1.377 . S
C377 C376 1.378 . S
C377 H399 0.931 . S
C378 O388 1.259 . S
C378 O389 1.270 . S
C379 O390 1.251 . S
C379 O391 1.251 . S
O380 C360 1.257 . S
O380 Eu361 2.473 . S
O381 C360 1.260 . S
O381 Eu361 2.480 . S
O382 Eu361 2.430 . S
O382 C368 1.259 . S
O383 Eu361 2.670 . S
O383 C368 1.270 . S
O383 Eu371 2.355 . S
O384 Eu361 2.394 . S
O384 C369 1.251 . S
O385 C369 1.251 . S
O385 Eu371 2.374 . S
O386 C370 1.257 . S
O386 Eu371 2.473 . S
O387 C370 1.260 . S
O387 Eu371 2.480 . S
O388 Eu371 2.430 . S
O388 C378 1.259 . S
O389 Eu361 2.355 . S
O389 Eu371 2.670 . S
O389 C378 1.270 . S
O390 Eu371 2.394 . S
O390 C379 1.251 . S
O391 Eu361 2.374 . S
O391 C379 1.251 . S
H392 C363 0.931 . S
H393 C364 0.931 . S
H394 C366 0.931 . S
H395 C367 0.931 . S
H396 C373 0.931 . S
H397 C374 0.931 . S
H398 C376 0.931 . S
H399 C377 0.931 . S
C400 Eu401 2.835 . S
C400 C402 1.500 . S
C400 O420 1.257 . S
C400 O421 1.260 . S
Eu401 C400 2.835 . S
Eu401 O420 2.473 . S
Eu401 O421 2.480 . S
Eu401 O422 2.430 . S
Eu401 O423 2.670 . S
Eu401 O424 2.394 . S
Eu401 O429 2.355 . S
Eu401 O431 2.374 . S
C402 C400 1.500 . S
C402 C403 1.377 . S
C402 C407 1.377 . S
C403 C402 1.377 . S
C403 C404 1.395 . S
C403 H432 0.931 . S
C404 C403 1.395 . S
C404 C405 1.383 . S
C404 H433 0.931 . S
C405 C404 1.383 . S
C405 C406 1.394 . S
C406 C405 1.394 . S
C406 C407 1.378 . S
C406 H434 0.931 . S
C407 C402 1.377 . S
C407 C406 1.378 . S
C407 H435 0.931 . S
C408 O422 1.259 . S
C408 O423 1.270 . S
C409 O424 1.251 . S
C409 O425 1.251 . S
C410 Eu411 2.835 . S
C410 C412 1.500 1_556 S
C410 O426 1.257 . S
C410 O427 1.260 . S
Eu411 C410 2.835 . S
Eu411 O423 2.355 . S
Eu411 O425 2.374 . S
Eu411 O426 2.473 . S
Eu411 O427 2.480 . S
Eu411 O428 2.430 . S
Eu411 O429 2.670 . S
Eu411 O430 2.394 . S
C412 C410 1.500 1_554 S
C412 C413 1.377 . S
C412 C417 1.377 . S
C413 C412 1.377 . S
C413 C414 1.395 . S
C413 H436 0.931 . S
C414 C413 1.395 . S
C414 C415 1.383 . S
C414 H437 0.931 . S
C415 C414 1.383 . S
C415 C416 1.394 . S
C416 C415 1.394 . S
C416 C417 1.378 . S
C416 H438 0.931 . S
C417 C412 1.377 . S
C417 C416 1.378 . S
C417 H439 0.931 . S
C418 O428 1.259 . S
C418 O429 1.270 . S
C419 O430 1.251 . S
C419 O431 1.251 . S
O420 C400 1.257 . S
O420 Eu401 2.473 . S
O421 C400 1.260 . S
O421 Eu401 2.480 . S
O422 Eu401 2.430 . S
O422 C408 1.259 . S
O423 Eu401 2.670 . S
O423 C408 1.270 . S
O423 Eu411 2.355 . S
O424 Eu401 2.394 . S
O424 C409 1.251 . S
O425 C409 1.251 . S
O425 Eu411 2.374 . S
O426 C410 1.257 . S
O426 Eu411 2.473 . S
O427 C410 1.260 . S
O427 Eu411 2.480 . S
O428 Eu411 2.430 . S
O428 C418 1.259 . S
O429 Eu401 2.355 . S
O429 Eu411 2.670 . S
O429 C418 1.270 . S
O430 Eu411 2.394 . S
O430 C419 1.251 . S
O431 Eu401 2.374 . S
O431 C419 1.251 . S
H432 C403 0.931 . S
H433 C404 0.931 . S
H434 C406 0.931 . S
H435 C407 0.931 . S
H436 C413 0.931 . S
H437 C414 0.931 . S
H438 C416 0.931 . S
H439 C417 0.931 . S
C440 Eu441 2.835 . S
C440 C442 1.500 . S
C440 O460 1.257 . S
C440 O461 1.260 . S
Eu441 C440 2.835 . S
Eu441 O460 2.473 . S
Eu441 O461 2.480 . S
Eu441 O462 2.430 . S
Eu441 O463 2.670 . S
Eu441 O464 2.394 . S
Eu441 O469 2.355 . S
Eu441 O471 2.374 . S
C442 C440 1.500 . S
C442 C443 1.377 . S
C442 C447 1.377 . S
C443 C442 1.377 . S
C443 C444 1.395 . S
C443 H472 0.931 . S
C444 C443 1.395 . S
C444 C445 1.383 . S
C444 H473 0.931 . S
C445 C444 1.383 . S
C445 C446 1.394 . S
C446 C445 1.394 . S
C446 C447 1.378 . S
C446 H474 0.931 . S
C447 C442 1.377 . S
C447 C446 1.378 . S
C447 H475 0.931 . S
C448 O462 1.259 . S
C448 O463 1.270 . S
C449 O464 1.251 . S
C449 O465 1.251 . S
C450 Eu451 2.835 . S
C450 C452 1.500 1_556 S
C450 O466 1.257 . S
C450 O467 1.260 . S
Eu451 C450 2.835 . S
Eu451 O463 2.355 . S
Eu451 O465 2.374 . S
Eu451 O466 2.473 . S
Eu451 O467 2.480 . S
Eu451 O468 2.430 . S
Eu451 O469 2.670 . S
Eu451 O470 2.394 . S
C452 C450 1.500 1_554 S
C452 C453 1.377 . S
C452 C457 1.377 . S
C453 C452 1.377 . S
C453 C454 1.395 . S
C453 H476 0.931 . S
C454 C453 1.395 . S
C454 C455 1.383 . S
C454 H477 0.931 . S
C455 C454 1.383 . S
C455 C456 1.394 . S
C456 C455 1.394 . S
C456 C457 1.378 . S
C456 H478 0.931 . S
C457 C452 1.377 . S
C457 C456 1.378 . S
C457 H479 0.931 . S
C458 O468 1.259 . S
C458 O469 1.270 . S
C459 O470 1.251 . S
C459 O471 1.251 . S
O460 C440 1.257 . S
O460 Eu441 2.473 . S
O461 C440 1.260 . S
O461 Eu441 2.480 . S
O462 Eu441 2.430 . S
O462 C448 1.259 . S
O463 Eu441 2.670 . S
O463 C448 1.270 . S
O463 Eu451 2.355 . S
O464 Eu441 2.394 . S
O464 C449 1.251 . S
O465 C449 1.251 . S
O465 Eu451 2.374 . S
O466 C450 1.257 . S
O466 Eu451 2.473 . S
O467 C450 1.260 . S
O467 Eu451 2.480 . S
O468 Eu451 2.430 . S
O468 C458 1.259 . S
O469 Eu441 2.355 . S
O469 Eu451 2.670 . S
O469 C458 1.270 . S
O470 Eu451 2.394 . S
O470 C459 1.251 . S
O471 Eu441 2.374 . S
O471 C459 1.251 . S
H472 C443 0.931 . S
H473 C444 0.931 . S
H474 C446 0.931 . S
H475 C447 0.931 . S
H476 C453 0.931 . S
H477 C454 0.931 . S
H478 C456 0.931 . S
H479 C457 0.931 . S
C480 Eu481 2.835 1_556 S
C480 C482 1.500 . S
C480 O500 1.257 1_556 S
C480 O501 1.260 1_556 S
Eu481 C480 2.835 1_554 S
Eu481 O500 2.473 . S
Eu481 O501 2.480 . S
Eu481 O502 2.430 . S
Eu481 O503 2.670 . S
Eu481 O504 2.394 . S
Eu481 O509 2.355 . S
Eu481 O511 2.374 . S
C482 C480 1.500 . S
C482 C483 1.377 . S
C482 C487 1.377 . S
C483 C482 1.377 . S
C483 C484 1.395 . S
C483 H512 0.931 . S
C484 C483 1.395 . S
C484 C485 1.383 . S
C484 H513 0.931 . S
C485 C484 1.383 . S
C485 C486 1.394 . S
C486 C485 1.394 . S
C486 C487 1.378 . S
C486 H514 0.931 . S
C487 C482 1.377 . S
C487 C486 1.378 . S
C487 H515 0.931 . S
C488 O502 1.259 . S
C488 O503 1.270 . S
C489 O504 1.251 . S
C489 O505 1.251 . S
C490 Eu491 2.835 . S
C490 C492 1.500 . S
C490 O506 1.257 . S
C490 O507 1.260 . S
Eu491 C490 2.835 . S
Eu491 O503 2.355 . S
Eu491 O505 2.374 . S
Eu491 O506 2.473 . S
Eu491 O507 2.480 . S
Eu491 O508 2.430 . S
Eu491 O509 2.670 . S
Eu491 O510 2.394 . S
C492 C490 1.500 . S
C492 C493 1.377 . S
C492 C497 1.377 . S
C493 C492 1.377 . S
C493 C494 1.395 . S
C493 H516 0.931 . S
C494 C493 1.395 . S
C494 C495 1.383 . S
C494 H517 0.931 . S
C495 C494 1.383 . S
C495 C496 1.394 . S
C496 C495 1.394 . S
C496 C497 1.378 . S
C496 H518 0.931 . S
C497 C492 1.377 . S
C497 C496 1.378 . S
C497 H519 0.931 . S
C498 O508 1.259 . S
C498 O509 1.270 . S
C499 O510 1.251 . S
C499 O511 1.251 . S
O500 C480 1.257 1_554 S
O500 Eu481 2.473 . S
O501 C480 1.260 1_554 S
O501 Eu481 2.480 . S
O502 Eu481 2.430 . S
O502 C488 1.259 . S
O503 Eu481 2.670 . S
O503 C488 1.270 . S
O503 Eu491 2.355 . S
O504 Eu481 2.394 . S
O504 C489 1.251 . S
O505 C489 1.251 . S
O505 Eu491 2.374 . S
O506 C490 1.257 . S
O506 Eu491 2.473 . S
O507 C490 1.260 . S
O507 Eu491 2.480 . S
O508 Eu491 2.430 . S
O508 C498 1.259 . S
O509 Eu481 2.355 . S
O509 Eu491 2.670 . S
O509 C498 1.270 . S
O510 Eu491 2.394 . S
O510 C499 1.251 . S
O511 Eu481 2.374 . S
O511 C499 1.251 . S
H512 C483 0.931 . S
H513 C484 0.931 . S
H514 C486 0.931 . S
H515 C487 0.931 . S
H516 C493 0.931 . S
H517 C494 0.931 . S
H518 C496 0.931 . S
H519 C497 0.931 . S
C520 Eu521 2.835 . S
C520 C522 1.500 . S
C520 O540 1.257 . S
C520 O541 1.260 . S
Eu521 C520 2.835 . S
Eu521 O540 2.473 . S
Eu521 O541 2.480 . S
Eu521 O542 2.430 . S
Eu521 O543 2.670 . S
Eu521 O544 2.394 . S
Eu521 O549 2.355 . S
Eu521 O551 2.374 . S
C522 C520 1.500 . S
C522 C523 1.377 . S
C522 C527 1.377 . S
C523 C522 1.377 . S
C523 C524 1.395 . S
C523 H552 0.931 . S
C524 C523 1.395 . S
C524 C525 1.383 . S
C524 H553 0.931 . S
C525 C524 1.383 . S
C525 C526 1.394 . S
C526 C525 1.394 . S
C526 C527 1.378 . S
C526 H554 0.931 . S
C527 C522 1.377 . S
C527 C526 1.378 . S
C527 H555 0.931 . S
C528 O542 1.259 . S
C528 O543 1.270 . S
C529 O544 1.251 . S
C529 O545 1.251 . S
C530 Eu531 2.835 1_556 S
C530 C532 1.500 . S
C530 O546 1.257 1_556 S
C530 O547 1.260 1_556 S
Eu531 C530 2.835 1_554 S
Eu531 O543 2.355 . S
Eu531 O545 2.374 . S
Eu531 O546 2.473 . S
Eu531 O547 2.480 . S
Eu531 O548 2.430 . S
Eu531 O549 2.670 . S
Eu531 O550 2.394 . S
C532 C530 1.500 . S
C532 C533 1.377 . S
C532 C537 1.377 . S
C533 C532 1.377 . S
C533 C534 1.395 . S
C533 H556 0.931 . S
C534 C533 1.395 . S
C534 C535 1.383 . S
C534 H557 0.931 . S
C535 C534 1.383 . S
C535 C536 1.394 . S
C536 C535 1.394 . S
C536 C537 1.378 . S
C536 H558 0.931 . S
C537 C532 1.377 . S
C537 C536 1.378 . S
C537 H559 0.931 . S
C538 O548 1.259 . S
C538 O549 1.270 . S
C539 O550 1.251 . S
C539 O551 1.251 . S
O540 C520 1.257 . S
O540 Eu521 2.473 . S
O541 C520 1.260 . S
O541 Eu521 2.480 . S
O542 Eu521 2.430 . S
O542 C528 1.259 . S
O543 Eu521 2.670 . S
O543 C528 1.270 . S
O543 Eu531 2.355 . S
O544 Eu521 2.394 . S
O544 C529 1.251 . S
O545 C529 1.251 . S
O545 Eu531 2.374 . S
O546 C530 1.257 1_554 S
O546 Eu531 2.473 . S
O547 C530 1.260 1_554 S
O547 Eu531 2.480 . S
O548 Eu531 2.430 . S
O548 C538 1.259 . S
O549 Eu521 2.355 . S
O549 Eu531 2.670 . S
O549 C538 1.270 . S
O550 Eu531 2.394 . S
O550 C539 1.251 . S
O551 Eu521 2.374 . S
O551 C539 1.251 . S
H552 C523 0.931 . S
H553 C524 0.931 . S
H554 C526 0.931 . S
H555 C527 0.931 . S
H556 C533 0.931 . S
H557 C534 0.931 . S
H558 C536 0.931 . S
H559 C537 0.931 . S
C560 Eu561 2.835 . S
C560 C562 1.500 1_554 S
C560 O580 1.257 . S
C560 O581 1.260 . S
Eu561 C560 2.835 . S
Eu561 O580 2.473 . S
Eu561 O581 2.480 . S
Eu561 O582 2.430 . S
Eu561 O583 2.670 . S
Eu561 O584 2.394 . S
Eu561 O589 2.355 . S
Eu561 O591 2.374 . S
C562 C560 1.500 1_556 S
C562 C563 1.377 . S
C562 C567 1.377 . S
C563 C562 1.377 . S
C563 C564 1.395 . S
C563 H592 0.931 . S
C564 C563 1.395 . S
C564 C565 1.383 . S
C564 H593 0.931 . S
C565 C564 1.383 . S
C565 C566 1.394 . S
C566 C565 1.394 . S
C566 C567 1.378 . S
C566 H594 0.931 . S
C567 C562 1.377 . S
C567 C566 1.378 . S
C567 H595 0.931 . S
C568 O582 1.259 . S
C568 O583 1.270 . S
C569 O584 1.251 . S
C569 O585 1.251 . S
C570 Eu571 2.835 . S
C570 C572 1.500 . S
C570 O586 1.257 . S
C570 O587 1.260 . S
Eu571 C570 2.835 . S
Eu571 O583 2.355 . S
Eu571 O585 2.374 . S
Eu571 O586 2.473 . S
Eu571 O587 2.480 . S
Eu571 O588 2.430 . S
Eu571 O589 2.670 . S
Eu571 O590 2.394 . S
C572 C570 1.500 . S
C572 C573 1.377 . S
C572 C577 1.377 . S
C573 C572 1.377 . S
C573 C574 1.395 . S
C573 H596 0.931 . S
C574 C573 1.395 . S
C574 C575 1.383 . S
C574 H597 0.931 . S
C575 C574 1.383 . S
C575 C576 1.394 . S
C576 C575 1.394 . S
C576 C577 1.378 . S
C576 H598 0.931 . S
C577 C572 1.377 . S
C577 C576 1.378 . S
C577 H599 0.931 . S
C578 O588 1.259 . S
C578 O589 1.270 . S
C579 O590 1.251 . S
C579 O591 1.251 . S
O580 C560 1.257 . S
O580 Eu561 2.473 . S
O581 C560 1.260 . S
O581 Eu561 2.480 . S
O582 Eu561 2.430 . S
O582 C568 1.259 . S
O583 Eu561 2.670 . S
O583 C568 1.270 . S
O583 Eu571 2.355 . S
O584 Eu561 2.394 . S
O584 C569 1.251 . S
O585 C569 1.251 . S
O585 Eu571 2.374 . S
O586 C570 1.257 . S
O586 Eu571 2.473 . S
O587 C570 1.260 . S
O587 Eu571 2.480 . S
O588 Eu571 2.430 . S
O588 C578 1.259 . S
O589 Eu561 2.355 . S
O589 Eu571 2.670 . S
O589 C578 1.270 . S
O590 Eu571 2.394 . S
O590 C579 1.251 . S
O591 Eu561 2.374 . S
O591 C579 1.251 . S
H592 C563 0.931 . S
H593 C564 0.931 . S
H594 C566 0.931 . S
H595 C567 0.931 . S
H596 C573 0.931 . S
H597 C574 0.931 . S
H598 C576 0.931 . S
H599 C577 0.931 . S
C600 Eu601 2.835 . S
C600 C602 1.500 1_554 S
C600 O620 1.257 . S
C600 O621 1.260 . S
Eu601 C600 2.835 . S
Eu601 O620 2.473 . S
Eu601 O621 2.480 . S
Eu601 O622 2.430 . S
Eu601 O623 2.670 . S
Eu601 O624 2.394 . S
Eu601 O629 2.355 . S
Eu601 O631 2.374 . S
C602 C600 1.500 1_556 S
C602 C603 1.377 . S
C602 C607 1.377 . S
C603 C602 1.377 . S
C603 C604 1.395 . S
C603 H632 0.931 . S
C604 C603 1.395 . S
C604 C605 1.383 . S
C604 H633 0.931 . S
C605 C604 1.383 . S
C605 C606 1.394 . S
C606 C605 1.394 . S
C606 C607 1.378 . S
C606 H634 0.931 . S
C607 C602 1.377 . S
C607 C606 1.378 . S
C607 H635 0.931 . S
C608 O622 1.259 . S
C608 O623 1.270 . S
C609 O624 1.251 . S
C609 O625 1.251 . S
C610 Eu611 2.835 . S
C610 C612 1.500 . S
C610 O626 1.257 . S
C610 O627 1.260 . S
Eu611 C610 2.835 . S
Eu611 O623 2.355 . S
Eu611 O625 2.374 . S
Eu611 O626 2.473 . S
Eu611 O627 2.480 . S
Eu611 O628 2.430 . S
Eu611 O629 2.670 . S
Eu611 O630 2.394 . S
C612 C610 1.500 . S
C612 C613 1.377 . S
C612 C617 1.377 . S
C613 C612 1.377 . S
C613 C614 1.395 . S
C613 H636 0.931 . S
C614 C613 1.395 . S
C614 C615 1.383 . S
C614 H637 0.931 . S
C615 C614 1.383 . S
C615 C616 1.394 . S
C616 C615 1.394 . S
C616 C617 1.378 . S
C616 H638 0.931 . S
C617 C612 1.377 . S
C617 C616 1.378 . S
C617 H639 0.931 . S
C618 O628 1.259 . S
C618 O629 1.270 . S
C619 O630 1.251 . S
C619 O631 1.251 . S
O620 C600 1.257 . S
O620 Eu601 2.473 . S
O621 C600 1.260 . S
O621 Eu601 2.480 . S
O622 Eu601 2.430 . S
O622 C608 1.259 . S
O623 Eu601 2.670 . S
O623 C608 1.270 . S
O623 Eu611 2.355 . S
O624 Eu601 2.394 . S
O624 C609 1.251 . S
O625 C609 1.251 . S
O625 Eu611 2.374 . S
O626 C610 1.257 . S
O626 Eu611 2.473 . S
O627 C610 1.260 . S
O627 Eu611 2.480 . S
O628 Eu611 2.430 . S
O628 C618 1.259 . S
O629 Eu601 2.355 . S
O629 Eu611 2.670 . S
O629 C618 1.270 . S
O630 Eu611 2.394 . S
O630 C619 1.251 . S
O631 Eu601 2.374 . S
O631 C619 1.251 . S
H632 C603 0.931 . S
H633 C604 0.931 . S
H634 C606 0.931 . S
H635 C607 0.931 . S
H636 C613 0.931 . S
H637 C614 0.931 . S
H638 C616 0.931 . S
H639 C617 0.931 . S
C640 Eu641 2.835 . S
C640 C642 1.500 . S
C640 O660 1.257 . S
C640 O661 1.260 . S
Eu641 C640 2.835 . S
Eu641 O660 2.473 . S
Eu641 O661 2.480 . S
Eu641 O662 2.430 . S
Eu641 O663 2.670 . S
Eu641 O664 2.394 . S
Eu641 O669 2.355 . S
Eu641 O671 2.374 . S
C642 C640 1.500 . S
C642 C643 1.377 . S
C642 C647 1.377 . S
C643 C642 1.377 . S
C643 C644 1.395 . S
C643 H672 0.931 . S
C644 C643 1.395 . S
C644 C645 1.383 . S
C644 H673 0.931 . S
C645 C644 1.383 . S
C645 C646 1.394 . S
C646 C645 1.394 . S
C646 C647 1.378 . S
C646 H674 0.931 . S
C647 C642 1.377 . S
C647 C646 1.378 . S
C647 H675 0.931 . S
C648 O662 1.259 . S
C648 O663 1.270 . S
C649 O664 1.251 . S
C649 O665 1.251 . S
C650 Eu651 2.835 . S
C650 C652 1.500 1_554 S
C650 O666 1.257 . S
C650 O667 1.260 . S
Eu651 C650 2.835 . S
Eu651 O663 2.355 . S
Eu651 O665 2.374 . S
Eu651 O666 2.473 . S
Eu651 O667 2.480 . S
Eu651 O668 2.430 . S
Eu651 O669 2.670 . S
Eu651 O670 2.394 . S
C652 C650 1.500 1_556 S
C652 C653 1.377 . S
C652 C657 1.377 . S
C653 C652 1.377 . S
C653 C654 1.395 . S
C653 H676 0.931 . S
C654 C653 1.395 . S
C654 C655 1.383 . S
C654 H677 0.931 . S
C655 C654 1.383 . S
C655 C656 1.394 . S
C656 C655 1.394 . S
C656 C657 1.378 . S
C656 H678 0.931 . S
C657 C652 1.377 . S
C657 C656 1.378 . S
C657 H679 0.931 . S
C658 O668 1.259 . S
C658 O669 1.270 . S
C659 O670 1.251 . S
C659 O671 1.251 . S
O660 C640 1.257 . S
O660 Eu641 2.473 . S
O661 C640 1.260 . S
O661 Eu641 2.480 . S
O662 Eu641 2.430 . S
O662 C648 1.259 . S
O663 Eu641 2.670 . S
O663 C648 1.270 . S
O663 Eu651 2.355 . S
O664 Eu641 2.394 . S
O664 C649 1.251 . S
O665 C649 1.251 . S
O665 Eu651 2.374 . S
O666 C650 1.257 . S
O666 Eu651 2.473 . S
O667 C650 1.260 . S
O667 Eu651 2.480 . S
O668 Eu651 2.430 . S
O668 C658 1.259 . S
O669 Eu641 2.355 . S
O669 Eu651 2.670 . S
O669 C658 1.270 . S
O670 Eu651 2.394 . S
O670 C659 1.251 . S
O671 Eu641 2.374 . S
O671 C659 1.251 . S
H672 C643 0.931 . S
H673 C644 0.931 . S
H674 C646 0.931 . S
H675 C647 0.931 . S
H676 C653 0.931 . S
H677 C654 0.931 . S
H678 C656 0.931 . S
H679 C657 0.931 . S
C680 Eu681 2.835 . S
C680 C682 1.500 1_554 S
C680 O700 1.257 . S
C680 O701 1.260 . S
Eu681 C680 2.835 . S
Eu681 O700 2.473 . S
Eu681 O701 2.480 . S
Eu681 O702 2.430 . S
Eu681 O703 2.670 . S
Eu681 O704 2.394 . S
Eu681 O709 2.355 . S
Eu681 O711 2.374 . S
C682 C680 1.500 1_556 S
C682 C683 1.377 . S
C682 C687 1.377 . S
C683 C682 1.377 . S
C683 C684 1.395 . S
C683 H712 0.931 . S
C684 C683 1.395 . S
C684 C685 1.383 . S
C684 H713 0.931 . S
C685 C684 1.383 . S
C685 C686 1.394 . S
C686 C685 1.394 . S
C686 C687 1.378 . S
C686 H714 0.931 . S
C687 C682 1.377 . S
C687 C686 1.378 . S
C687 H715 0.931 . S
C688 O702 1.259 . S
C688 O703 1.270 . S
C689 O704 1.251 . S
C689 O705 1.251 . S
C690 Eu691 2.835 . S
C690 C692 1.500 . S
C690 O706 1.257 . S
C690 O707 1.260 . S
Eu691 C690 2.835 . S
Eu691 O703 2.355 . S
Eu691 O705 2.374 . S
Eu691 O706 2.473 . S
Eu691 O707 2.480 . S
Eu691 O708 2.430 . S
Eu691 O709 2.670 . S
Eu691 O710 2.394 . S
C692 C690 1.500 . S
C692 C693 1.377 . S
C692 C697 1.377 . S
C693 C692 1.377 . S
C693 C694 1.395 . S
C693 H716 0.931 . S
C694 C693 1.395 . S
C694 C695 1.383 . S
C694 H717 0.931 . S
C695 C694 1.383 . S
C695 C696 1.394 . S
C696 C695 1.394 . S
C696 C697 1.378 . S
C696 H718 0.931 . S
C697 C692 1.377 . S
C697 C696 1.378 . S
C697 H719 0.931 . S
C698 O708 1.259 . S
C698 O709 1.270 . S
C699 O710 1.251 . S
C699 O711 1.251 . S
O700 C680 1.257 . S
O700 Eu681 2.473 . S
O701 C680 1.260 . S
O701 Eu681 2.480 . S
O702 Eu681 2.430 . S
O702 C688 1.259 . S
O703 Eu681 2.670 . S
O703 C688 1.270 . S
O703 Eu691 2.355 . S
O704 Eu681 2.394 . S
O704 C689 1.251 . S
O705 C689 1.251 . S
O705 Eu691 2.374 . S
O706 C690 1.257 . S
O706 Eu691 2.473 . S
O707 C690 1.260 . S
O707 Eu691 2.480 . S
O708 Eu691 2.430 . S
O708 C698 1.259 . S
O709 Eu681 2.355 . S
O709 Eu691 2.670 . S
O709 C698 1.270 . S
O710 Eu691 2.394 . S
O710 C699 1.251 . S
O711 Eu681 2.374 . S
O711 C699 1.251 . S
H712 C683 0.931 . S
H713 C684 0.931 . S
H714 C686 0.931 . S
H715 C687 0.931 . S
H716 C693 0.931 . S
H717 C694 0.931 . S
H718 C696 0.931 . S
H719 C697 0.931 . S
H720 C732 0.930 . S
H721 C734 0.930 . S
H722 C735 0.930 . S
H723 C739 0.959 . S
H724 C739 0.959 . S
H725 C739 0.961 . S
H726 C740 0.960 . S
H727 C740 0.961 . S
H728 C740 0.959 . S
H729 C743 0.929 . S
H730 C744 0.931 . S
H731 C746 0.930 . S
C732 H720 0.930 . S
C732 C733 1.399 . S
C732 C737 1.399 . S
C733 C732 1.399 . S
C733 C734 1.376 . S
C734 H721 0.930 . S
C734 C733 1.376 . S
C734 C735 1.388 . S
C735 H722 0.930 . S
C735 C734 1.388 . S
C735 C736 1.390 . S
C736 C735 1.390 . S
C736 C737 1.394 . S
C736 C742 1.465 . S
C737 C732 1.399 . S
C737 C736 1.394 . S
C737 C738 1.516 . S
C738 C737 1.516 . S
C738 C739 1.502 . S
C738 C740 1.561 . S
C738 C741 1.526 . S
C739 H723 0.959 . S
C739 H724 0.959 . S
C739 H725 0.961 . S
C739 C738 1.502 . S
C740 H726 0.960 . S
C740 H727 0.961 . S
C740 H728 0.959 . S
C740 C738 1.561 . S
C741 C738 1.526 . S
C741 C742 1.396 . S
C741 C746 1.390 . S
C742 C736 1.465 . S
C742 C741 1.396 . S
C742 C743 1.399 . S
C743 H729 0.929 . S
C743 C742 1.399 . S
C743 C744 1.385 . S
C744 H730 0.931 . S
C744 C743 1.385 . S
C744 C745 1.389 . S
C745 C744 1.389 . S
C745 C746 1.387 . S
C746 H731 0.930 . S
C746 C741 1.390 . S
C746 C745 1.387 . S
H747 C759 0.930 . S
H748 C761 0.930 . S
H749 C762 0.930 . S
H750 C766 0.959 . S
H751 C766 0.959 . S
H752 C766 0.961 . S
H753 C767 0.960 . S
H754 C767 0.961 . S
H755 C767 0.959 . S
H756 C770 0.929 . S
H757 C771 0.931 . S
H758 C773 0.930 . S
C759 H747 0.930 . S
C759 C760 1.399 . S
C759 C764 1.399 . S
C760 C759 1.399 . S
C760 C761 1.376 . S
C761 H748 0.930 . S
C761 C760 1.376 . S
C761 C762 1.388 . S
C762 H749 0.930 . S
C762 C761 1.388 . S
C762 C763 1.390 . S
C763 C762 1.390 . S
C763 C764 1.394 . S
C763 C769 1.465 . S
C764 C759 1.399 . S
C764 C763 1.394 . S
C764 C765 1.516 . S
C765 C764 1.516 . S
C765 C766 1.502 . S
C765 C767 1.561 . S
C765 C768 1.526 . S
C766 H750 0.959 . S
C766 H751 0.959 . S
C766 H752 0.961 . S
C766 C765 1.502 . S
C767 H753 0.960 . S
C767 H754 0.961 . S
C767 H755 0.959 . S
C767 C765 1.561 . S
C768 C765 1.526 . S
C768 C769 1.396 . S
C768 C773 1.390 . S
C769 C763 1.465 . S
C769 C768 1.396 . S
C769 C770 1.399 . S
C770 H756 0.929 . S
C770 C769 1.399 . S
C770 C771 1.385 . S
C771 H757 0.931 . S
C771 C770 1.385 . S
C771 C772 1.389 . S
C772 C771 1.389 . S
C772 C773 1.387 . S
C773 H758 0.930 . S
C773 C768 1.390 . S
C773 C772 1.387 . S
H774 C786 0.930 . S
H775 C788 0.930 . S
H776 C789 0.930 . S
H777 C793 0.959 . S
H778 C793 0.959 . S
H779 C793 0.961 . S
H780 C794 0.960 . S
H781 C794 0.961 . S
H782 C794 0.959 . S
H783 C797 0.929 . S
H784 C798 0.931 . S
H785 C800 0.930 . S
C786 H774 0.930 . S
C786 C787 1.399 . S
C786 C791 1.399 . S
C787 C786 1.399 . S
C787 C788 1.376 . S
C788 H775 0.930 . S
C788 C787 1.376 . S
C788 C789 1.388 . S
C789 H776 0.930 . S
C789 C788 1.388 . S
C789 C790 1.390 . S
C790 C789 1.390 . S
C790 C791 1.394 . S
C790 C796 1.465 . S
C791 C786 1.399 . S
C791 C790 1.394 . S
C791 C792 1.516 . S
C792 C791 1.516 . S
C792 C793 1.502 . S
C792 C794 1.561 . S
C792 C795 1.526 . S
C793 H777 0.959 . S
C793 H778 0.959 . S
C793 H779 0.961 . S
C793 C792 1.502 . S
C794 H780 0.960 . S
C794 H781 0.961 . S
C794 H782 0.959 . S
C794 C792 1.561 . S
C795 C792 1.526 . S
C795 C796 1.396 . S
C795 C800 1.390 . S
C796 C790 1.465 . S
C796 C795 1.396 . S
C796 C797 1.399 . S
C797 H783 0.929 . S
C797 C796 1.399 . S
C797 C798 1.385 . S
C798 H784 0.931 . S
C798 C797 1.385 . S
C798 C799 1.389 . S
C799 C798 1.389 . S
C799 C800 1.387 . S
C800 H785 0.930 . S
C800 C795 1.390 . S
C800 C799 1.387 . S
H801 C813 0.930 . S
H802 C815 0.930 . S
H803 C816 0.930 . S
H804 C820 0.959 . S
H805 C820 0.959 . S
H806 C820 0.961 . S
H807 C821 0.960 . S
H808 C821 0.961 . S
H809 C821 0.959 . S
H810 C824 0.929 . S
H811 C825 0.931 . S
H812 C827 0.930 . S
C813 H801 0.930 . S
C813 C814 1.399 . S
C813 C818 1.399 . S
C814 C813 1.399 . S
C814 C815 1.376 . S
C815 H802 0.930 . S
C815 C814 1.376 . S
C815 C816 1.388 . S
C816 H803 0.930 . S
C816 C815 1.388 . S
C816 C817 1.390 . S
C817 C816 1.390 . S
C817 C818 1.394 . S
C817 C823 1.465 . S
C818 C813 1.399 . S
C818 C817 1.394 . S
C818 C819 1.516 . S
C819 C818 1.516 . S
C819 C820 1.502 . S
C819 C821 1.561 . S
C819 C822 1.526 . S
C820 H804 0.959 . S
C820 H805 0.959 . S
C820 H806 0.961 . S
C820 C819 1.502 . S
C821 H807 0.960 . S
C821 H808 0.961 . S
C821 H809 0.959 . S
C821 C819 1.561 . S
C822 C819 1.526 . S
C822 C823 1.396 . S
C822 C827 1.390 . S
C823 C817 1.465 . S
C823 C822 1.396 . S
C823 C824 1.399 . S
C824 H810 0.929 . S
C824 C823 1.399 . S
C824 C825 1.385 . S
C825 H811 0.931 . S
C825 C824 1.385 . S
C825 C826 1.389 . S
C826 C825 1.389 . S
C826 C827 1.387 . S
C827 H812 0.930 . S
C827 C822 1.390 . S
C827 C826 1.387 . S
H828 C840 0.930 . S
H829 C842 0.930 . S
H830 C843 0.930 . S
H831 C847 0.959 . S
H832 C847 0.959 . S
H833 C847 0.961 . S
H834 C848 0.960 . S
H835 C848 0.961 . S
H836 C848 0.959 . S
H837 C851 0.929 . S
H838 C852 0.931 . S
H839 C854 0.930 . S
C840 H828 0.930 . S
C840 C841 1.399 . S
C840 C845 1.399 . S
C841 C840 1.399 . S
C841 C842 1.376 . S
C842 H829 0.930 . S
C842 C841 1.376 . S
C842 C843 1.388 . S
C843 H830 0.930 . S
C843 C842 1.388 . S
C843 C844 1.390 . S
C844 C843 1.390 . S
C844 C845 1.394 . S
C844 C850 1.465 . S
C845 C840 1.399 . S
C845 C844 1.394 . S
C845 C846 1.516 . S
C846 C845 1.516 . S
C846 C847 1.502 . S
C846 C848 1.561 . S
C846 C849 1.526 . S
C847 H831 0.959 . S
C847 H832 0.959 . S
C847 H833 0.961 . S
C847 C846 1.502 . S
C848 H834 0.960 . S
C848 H835 0.961 . S
C848 H836 0.959 . S
C848 C846 1.561 . S
C849 C846 1.526 . S
C849 C850 1.396 . S
C849 C854 1.390 . S
C850 C844 1.465 . S
C850 C849 1.396 . S
C850 C851 1.399 . S
C851 H837 0.929 . S
C851 C850 1.399 . S
C851 C852 1.385 . S
C852 H838 0.931 . S
C852 C851 1.385 . S
C852 C853 1.389 . S
C853 C852 1.389 . S
C853 C854 1.387 . S
C854 H839 0.930 . S
C854 C849 1.390 . S
C854 C853 1.387 . S
H855 C867 0.930 . S
H856 C869 0.930 . S
H857 C870 0.930 . S
H858 C874 0.959 . S
H859 C874 0.959 . S
H860 C874 0.961 . S
H861 C875 0.960 . S
H862 C875 0.961 . S
H863 C875 0.959 . S
H864 C878 0.929 . S
H865 C879 0.931 . S
H866 C881 0.930 . S
C867 H855 0.930 . S
C867 C868 1.399 . S
C867 C872 1.399 . S
C868 C867 1.399 . S
C868 C869 1.376 . S
C869 H856 0.930 . S
C869 C868 1.376 . S
C869 C870 1.388 . S
C870 H857 0.930 . S
C870 C869 1.388 . S
C870 C871 1.390 . S
C871 C870 1.390 . S
C871 C872 1.394 . S
C871 C877 1.465 . S
C872 C867 1.399 . S
C872 C871 1.394 . S
C872 C873 1.516 . S
C873 C872 1.516 . S
C873 C874 1.502 . S
C873 C875 1.561 . S
C873 C876 1.526 . S
C874 H858 0.959 . S
C874 H859 0.959 . S
C874 H860 0.961 . S
C874 C873 1.502 . S
C875 H861 0.960 . S
C875 H862 0.961 . S
C875 H863 0.959 . S
C875 C873 1.561 . S
C876 C873 1.526 . S
C876 C877 1.396 . S
C876 C881 1.390 . S
C877 C871 1.465 . S
C877 C876 1.396 . S
C877 C878 1.399 . S
C878 H864 0.929 . S
C878 C877 1.399 . S
C878 C879 1.385 . S
C879 H865 0.931 . S
C879 C878 1.385 . S
C879 C880 1.389 . S
C880 C879 1.389 . S
C880 C881 1.387 . S
C881 H866 0.930 . S
C881 C876 1.390 . S
C881 C880 1.387 . S
H882 C894 0.930 . S
H883 C896 0.930 . S
H884 C897 0.930 . S
H885 C901 0.959 . S
H886 C901 0.959 . S
H887 C901 0.961 . S
H888 C902 0.960 . S
H889 C902 0.961 . S
H890 C902 0.959 . S
H891 C905 0.929 . S
H892 C906 0.931 . S
H893 C908 0.930 . S
C894 H882 0.930 . S
C894 C895 1.399 . S
C894 C899 1.399 . S
C895 C894 1.399 . S
C895 C896 1.376 . S
C896 H883 0.930 . S
C896 C895 1.376 . S
C896 C897 1.388 . S
C897 H884 0.930 . S
C897 C896 1.388 . S
C897 C898 1.390 . S
C898 C897 1.390 . S
C898 C899 1.394 . S
C898 C904 1.465 . S
C899 C894 1.399 . S
C899 C898 1.394 . S
C899 C900 1.516 . S
C900 C899 1.516 . S
C900 C901 1.502 . S
C900 C902 1.561 . S
C900 C903 1.526 . S
C901 H885 0.959 . S
C901 H886 0.959 . S
C901 H887 0.961 . S
C901 C900 1.502 . S
C902 H888 0.960 . S
C902 H889 0.961 . S
C902 H890 0.959 . S
C902 C900 1.561 . S
C903 C900 1.526 . S
C903 C904 1.396 . S
C903 C908 1.390 . S
C904 C898 1.465 . S
C904 C903 1.396 . S
C904 C905 1.399 . S
C905 H891 0.929 . S
C905 C904 1.399 . S
C905 C906 1.385 . S
C906 H892 0.931 . S
C906 C905 1.385 . S
C906 C907 1.389 . S
C907 C906 1.389 . S
C907 C908 1.387 . S
C908 H893 0.930 . S
C908 C903 1.390 . S
C908 C907 1.387 . S
H909 C921 0.930 . S
H910 C923 0.930 . S
H911 C924 0.930 . S
H912 C928 0.959 . S
H913 C928 0.959 . S
H914 C928 0.961 . S
H915 C929 0.960 . S
H916 C929 0.961 . S
H917 C929 0.959 . S
H918 C932 0.929 . S
H919 C933 0.931 . S
H920 C935 0.930 . S
C921 H909 0.930 . S
C921 C922 1.399 . S
C921 C926 1.399 . S
C922 C921 1.399 . S
C922 C923 1.376 . S
C923 H910 0.930 . S
C923 C922 1.376 . S
C923 C924 1.388 . S
C924 H911 0.930 . S
C924 C923 1.388 . S
C924 C925 1.390 . S
C925 C924 1.390 . S
C925 C926 1.394 . S
C925 C931 1.465 . S
C926 C921 1.399 . S
C926 C925 1.394 . S
C926 C927 1.516 . S
C927 C926 1.516 . S
C927 C928 1.502 . S
C927 C929 1.561 . S
C927 C930 1.526 . S
C928 H912 0.959 . S
C928 H913 0.959 . S
C928 H914 0.961 . S
C928 C927 1.502 . S
C929 H915 0.960 . S
C929 H916 0.961 . S
C929 H917 0.959 . S
C929 C927 1.561 . S
C930 C927 1.526 . S
C930 C931 1.396 . S
C930 C935 1.390 . S
C931 C925 1.465 . S
C931 C930 1.396 . S
C931 C932 1.399 . S
C932 H918 0.929 . S
C932 C931 1.399 . S
C932 C933 1.385 . S
C933 H919 0.931 . S
C933 C932 1.385 . S
C933 C934 1.389 . S
C934 C933 1.389 . S
C934 C935 1.387 . S
C935 H920 0.930 . S
C935 C930 1.390 . S
C935 C934 1.387 . S
H936 C948 0.930 . S
H937 C950 0.930 . S
H938 C951 0.930 . S
H939 C955 0.959 . S
H940 C955 0.959 . S
H941 C955 0.961 . S
H942 C956 0.960 . S
H943 C956 0.961 . S
H944 C956 0.959 . S
H945 C959 0.929 . S
H946 C960 0.931 . S
H947 C962 0.930 . S
C948 H936 0.930 . S
C948 C949 1.399 . S
C948 C953 1.399 . S
C949 C948 1.399 . S
C949 C950 1.376 . S
C950 H937 0.930 . S
C950 C949 1.376 . S
C950 C951 1.388 . S
C951 H938 0.930 . S
C951 C950 1.388 . S
C951 C952 1.390 . S
C952 C951 1.390 . S
C952 C953 1.394 . S
C952 C958 1.465 . S
C953 C948 1.399 . S
C953 C952 1.394 . S
C953 C954 1.516 . S
C954 C953 1.516 . S
C954 C955 1.502 . S
C954 C956 1.561 . S
C954 C957 1.526 . S
C955 H939 0.959 . S
C955 H940 0.959 . S
C955 H941 0.961 . S
C955 C954 1.502 . S
C956 H942 0.960 . S
C956 H943 0.961 . S
C956 H944 0.959 . S
C956 C954 1.561 . S
C957 C954 1.526 . S
C957 C958 1.396 . S
C957 C962 1.390 . S
C958 C952 1.465 . S
C958 C957 1.396 . S
C958 C959 1.399 . S
C959 H945 0.929 . S
C959 C958 1.399 . S
C959 C960 1.385 . S
C960 H946 0.931 . S
C960 C959 1.385 . S
C960 C961 1.389 . S
C961 C960 1.389 . S
C961 C962 1.387 . S
C962 H947 0.930 . S
C962 C957 1.390 . S
C962 C961 1.387 . S
H963 C975 0.930 . S
H964 C977 0.930 . S
H965 C978 0.930 . S
H966 C982 0.959 . S
H967 C982 0.959 . S
H968 C982 0.961 . S
H969 C983 0.960 . S
H970 C983 0.961 . S
H971 C983 0.959 . S
H972 C986 0.929 . S
H973 C987 0.931 . S
H974 C989 0.930 . S
C975 H963 0.930 . S
C975 C976 1.399 . S
C975 C980 1.399 . S
C976 C975 1.399 . S
C976 C977 1.376 . S
C977 H964 0.930 . S
C977 C976 1.376 . S
C977 C978 1.388 . S
C978 H965 0.930 . S
C978 C977 1.388 . S
C978 C979 1.390 . S
C979 C978 1.390 . S
C979 C980 1.394 . S
C979 C985 1.465 . S
C980 C975 1.399 . S
C980 C979 1.394 . S
C980 C981 1.516 . S
C981 C980 1.516 . S
C981 C982 1.502 . S
C981 C983 1.561 . S
C981 C984 1.526 . S
C982 H966 0.959 . S
C982 H967 0.959 . S
C982 H968 0.961 . S
C982 C981 1.502 . S
C983 H969 0.960 . S
C983 H970 0.961 . S
C983 H971 0.959 . S
C983 C981 1.561 . S
C984 C981 1.526 . S
C984 C985 1.396 . S
C984 C989 1.390 . S
C985 C979 1.465 . S
C985 C984 1.396 . S
C985 C986 1.399 . S
C986 H972 0.929 . S
C986 C985 1.399 . S
C986 C987 1.385 . S
C987 H973 0.931 . S
C987 C986 1.385 . S
C987 C988 1.389 . S
C988 C987 1.389 . S
C988 C989 1.387 . S
C989 H974 0.930 . S
C989 C984 1.390 . S
C989 C988 1.387 . S
H990 C1002 0.930 . S
H991 C1004 0.930 . S
H992 C1005 0.930 . S
H993 C1009 0.959 . S
H994 C1009 0.959 . S
H995 C1009 0.961 . S
H996 C1010 0.960 . S
H997 C1010 0.961 . S
H998 C1010 0.959 . S
H999 C1013 0.929 . S
H1000 C1014 0.931 . S
H1001 C1016 0.930 . S
C1002 H990 0.930 . S
C1002 C1003 1.399 . S
C1002 C1007 1.399 . S
C1003 C1002 1.399 . S
C1003 C1004 1.376 . S
C1004 H991 0.930 . S
C1004 C1003 1.376 . S
C1004 C1005 1.388 . S
C1005 H992 0.930 . S
C1005 C1004 1.388 . S
C1005 C1006 1.390 . S
C1006 C1005 1.390 . S
C1006 C1007 1.394 . S
C1006 C1012 1.465 . S
C1007 C1002 1.399 . S
C1007 C1006 1.394 . S
C1007 C1008 1.516 . S
C1008 C1007 1.516 . S
C1008 C1009 1.502 . S
C1008 C1010 1.561 . S
C1008 C1011 1.526 . S
C1009 H993 0.959 . S
C1009 H994 0.959 . S
C1009 H995 0.961 . S
C1009 C1008 1.502 . S
C1010 H996 0.960 . S
C1010 H997 0.961 . S
C1010 H998 0.959 . S
C1010 C1008 1.561 . S
C1011 C1008 1.526 . S
C1011 C1012 1.396 . S
C1011 C1016 1.390 . S
C1012 C1006 1.465 . S
C1012 C1011 1.396 . S
C1012 C1013 1.399 . S
C1013 H999 0.929 . S
C1013 C1012 1.399 . S
C1013 C1014 1.385 . S
C1014 H1000 0.931 . S
C1014 C1013 1.385 . S
C1014 C1015 1.389 . S
C1015 C1014 1.389 . S
C1015 C1016 1.387 . S
C1016 H1001 0.930 . S
C1016 C1011 1.390 . S
C1016 C1015 1.387 . S
H1017 C1029 0.930 . S
H1018 C1031 0.930 . S
H1019 C1032 0.930 . S
H1020 C1036 0.959 . S
H1021 C1036 0.959 . S
H1022 C1036 0.961 . S
H1023 C1037 0.960 . S
H1024 C1037 0.961 . S
H1025 C1037 0.959 . S
H1026 C1040 0.929 . S
H1027 C1041 0.931 . S
H1028 C1043 0.930 . S
C1029 H1017 0.930 . S
C1029 C1030 1.399 . S
C1029 C1034 1.399 . S
C1030 C1029 1.399 . S
C1030 C1031 1.376 . S
C1031 H1018 0.930 . S
C1031 C1030 1.376 . S
C1031 C1032 1.388 . S
C1032 H1019 0.930 . S
C1032 C1031 1.388 . S
C1032 C1033 1.390 . S
C1033 C1032 1.390 . S
C1033 C1034 1.394 . S
C1033 C1039 1.465 . S
C1034 C1029 1.399 . S
C1034 C1033 1.394 . S
C1034 C1035 1.516 . S
C1035 C1034 1.516 . S
C1035 C1036 1.502 . S
C1035 C1037 1.561 . S
C1035 C1038 1.526 . S
C1036 H1020 0.959 . S
C1036 H1021 0.959 . S
C1036 H1022 0.961 . S
C1036 C1035 1.502 . S
C1037 H1023 0.960 . S
C1037 H1024 0.961 . S
C1037 H1025 0.959 . S
C1037 C1035 1.561 . S
C1038 C1035 1.526 . S
C1038 C1039 1.396 . S
C1038 C1043 1.390 . S
C1039 C1033 1.465 . S
C1039 C1038 1.396 . S
C1039 C1040 1.399 . S
C1040 H1026 0.929 . S
C1040 C1039 1.399 . S
C1040 C1041 1.385 . S
C1041 H1027 0.931 . S
C1041 C1040 1.385 . S
C1041 C1042 1.389 . S
C1042 C1041 1.389 . S
C1042 C1043 1.387 . S
C1043 H1028 0.930 . S
C1043 C1038 1.390 . S
C1043 C1042 1.387 . S
H1044 C1056 0.930 . S
H1045 C1058 0.930 . S
H1046 C1059 0.930 1_554 S
H1047 C1063 0.959 . S
H1048 C1063 0.959 . S
H1049 C1063 0.961 . S
H1050 C1064 0.960 . S
H1051 C1064 0.961 . S
H1052 C1064 0.959 . S
H1053 C1067 0.929 1_655 S
H1054 C1068 0.931 . S
H1055 C1070 0.930 . S
C1056 H1044 0.930 . S
C1056 C1057 1.399 . S
C1056 C1061 1.399 . S
C1057 C1056 1.399 . S
C1057 C1058 1.376 . S
C1058 H1045 0.930 . S
C1058 C1057 1.376 . S
C1058 C1059 1.388 . S
C1059 H1046 0.930 1_556 S
C1059 C1058 1.388 . S
C1059 C1060 1.390 . S
C1060 C1059 1.390 . S
C1060 C1061 1.394 . S
C1060 C1066 1.465 1_656 S
C1061 C1056 1.399 . S
C1061 C1060 1.394 . S
C1061 C1062 1.516 1_655 S
C1062 C1061 1.516 1_455 S
C1062 C1063 1.502 . S
C1062 C1064 1.561 . S
C1062 C1065 1.526 1_556 S
C1063 H1047 0.959 . S
C1063 H1048 0.959 . S
C1063 H1049 0.961 . S
C1063 C1062 1.502 . S
C1064 H1050 0.960 . S
C1064 H1051 0.961 . S
C1064 H1052 0.959 . S
C1064 C1062 1.561 . S
C1065 C1062 1.526 1_554 S
C1065 C1066 1.396 . S
C1065 C1070 1.390 . S
C1066 C1060 1.465 1_454 S
C1066 C1065 1.396 . S
C1066 C1067 1.399 . S
C1067 H1053 0.929 1_455 S
C1067 C1066 1.399 . S
C1067 C1068 1.385 . S
C1068 H1054 0.931 . S
C1068 C1067 1.385 . S
C1068 C1069 1.389 . S
C1069 C1068 1.389 . S
C1069 C1070 1.387 . S
C1070 H1055 0.930 . S
C1070 C1065 1.390 . S
C1070 C1069 1.387 . S
H1071 C1083 0.930 . S
H1072 C1085 0.930 . S
H1073 C1086 0.930 1_554 S
H1074 C1090 0.959 . S
H1075 C1090 0.959 . S
H1076 C1090 0.961 . S
H1077 C1091 0.960 . S
H1078 C1091 0.961 . S
H1079 C1091 0.959 . S
H1080 C1094 0.929 . S
H1081 C1095 0.931 . S
H1082 C1097 0.930 . S
C1083 H1071 0.930 . S
C1083 C1084 1.399 . S
C1083 C1088 1.399 . S
C1084 C1083 1.399 . S
C1084 C1085 1.376 . S
C1085 H1072 0.930 . S
C1085 C1084 1.376 . S
C1085 C1086 1.388 . S
C1086 H1073 0.930 1_556 S
C1086 C1085 1.388 . S
C1086 C1087 1.390 . S
C1087 C1086 1.390 . S
C1087 C1088 1.394 . S
C1087 C1093 1.465 1_556 S
C1088 C1083 1.399 . S
C1088 C1087 1.394 . S
C1088 C1089 1.516 . S
C1089 C1088 1.516 . S
C1089 C1090 1.502 . S
C1089 C1091 1.561 . S
C1089 C1092 1.526 1_556 S
C1090 H1074 0.959 . S
C1090 H1075 0.959 . S
C1090 H1076 0.961 . S
C1090 C1089 1.502 . S
C1091 H1077 0.960 . S
C1091 H1078 0.961 . S
C1091 H1079 0.959 . S
C1091 C1089 1.561 . S
C1092 C1089 1.526 1_554 S
C1092 C1093 1.396 . S
C1092 C1097 1.390 . S
C1093 C1087 1.465 1_554 S
C1093 C1092 1.396 . S
C1093 C1094 1.399 . S
C1094 H1080 0.929 . S
C1094 C1093 1.399 . S
C1094 C1095 1.385 . S
C1095 H1081 0.931 . S
C1095 C1094 1.385 . S
C1095 C1096 1.389 . S
C1096 C1095 1.389 . S
C1096 C1097 1.387 . S
C1097 H1082 0.930 . S
C1097 C1092 1.390 . S
C1097 C1096 1.387 . S
H1098 C1110 0.930 . S
H1099 C1112 0.930 . S
H1100 C1113 0.930 . S
H1101 C1117 0.959 . S
H1102 C1117 0.959 . S
H1103 C1117 0.961 . S
H1104 C1118 0.960 . S
H1105 C1118 0.961 . S
H1106 C1118 0.959 . S
H1107 C1121 0.929 . S
H1108 C1122 0.931 . S
H1109 C1124 0.930 . S
C1110 H1098 0.930 . S
C1110 C1111 1.399 . S
C1110 C1115 1.399 . S
C1111 C1110 1.399 . S
C1111 C1112 1.376 . S
C1112 H1099 0.930 . S
C1112 C1111 1.376 . S
C1112 C1113 1.388 1_545 S
C1113 H1100 0.930 . S
C1113 C1112 1.388 1_565 S
C1113 C1114 1.390 1_565 S
C1114 C1113 1.390 1_545 S
C1114 C1115 1.394 . S
C1114 C1120 1.465 1_545 S
C1115 C1110 1.399 . S
C1115 C1114 1.394 . S
C1115 C1116 1.516 1_556 S
C1116 C1115 1.516 1_554 S
C1116 C1117 1.502 . S
C1116 C1118 1.561 . S
C1116 C1119 1.526 1_545 S
C1117 H1101 0.959 . S
C1117 H1102 0.959 . S
C1117 H1103 0.961 . S
C1117 C1116 1.502 . S
C1118 H1104 0.960 . S
C1118 H1105 0.961 . S
C1118 H1106 0.959 . S
C1118 C1116 1.561 . S
C1119 C1116 1.526 1_565 S
C1119 C1120 1.396 1_554 S
C1119 C1124 1.390 . S
C1120 C1114 1.465 1_565 S
C1120 C1119 1.396 1_556 S
C1120 C1121 1.399 . S
C1121 H1107 0.929 . S
C1121 C1120 1.399 . S
C1121 C1122 1.385 1_556 S
C1122 H1108 0.931 . S
C1122 C1121 1.385 1_554 S
C1122 C1123 1.389 . S
C1123 C1122 1.389 . S
C1123 C1124 1.387 . S
C1124 H1109 0.930 . S
C1124 C1119 1.390 . S
C1124 C1123 1.387 . S
H1125 C1137 0.930 . S
H1126 C1139 0.930 . S
H1127 C1140 0.930 . S
H1128 C1144 0.959 . S
H1129 C1144 0.959 . S
H1130 C1144 0.961 . S
H1131 C1145 0.960 . S
H1132 C1145 0.961 . S
H1133 C1145 0.959 . S
H1134 C1148 0.929 1_556 S
H1135 C1149 0.931 . S
H1136 C1151 0.943 . S
C1137 H1125 0.930 . S
C1137 C1138 1.399 . S
C1137 C1142 1.399 . S
C1138 C1137 1.399 . S
C1138 C1139 1.376 . S
C1139 H1126 0.930 . S
C1139 C1138 1.376 . S
C1139 C1140 1.388 1_545 S
C1140 H1127 0.930 . S
C1140 C1139 1.388 1_565 S
C1140 C1141 1.390 1_565 S
C1141 C1140 1.390 1_545 S
C1141 C1142 1.394 . S
C1141 C1147 1.465 1_546 S
C1142 C1137 1.399 . S
C1142 C1141 1.394 . S
C1142 C1143 1.516 1_556 S
C1143 C1142 1.516 1_554 S
C1143 C1144 1.502 . S
C1143 C1145 1.561 . S
C1143 C1146 1.559 . S
C1144 H1128 0.959 . S
C1144 H1129 0.959 . S
C1144 H1130 0.961 . S
C1144 C1143 1.502 . S
C1145 H1131 0.960 . S
C1145 H1132 0.961 . S
C1145 H1133 0.959 . S
C1145 C1143 1.561 . S
C1146 C1143 1.559 . S
C1146 C1147 1.379 1_545 S
C1146 C1151 1.374 1_545 S
C1147 C1141 1.465 1_564 S
C1147 C1146 1.379 1_565 S
C1147 C1148 1.399 . S
C1148 H1134 0.929 1_554 S
C1148 C1147 1.399 . S
C1148 C1149 1.385 . S
C1149 H1135 0.931 . S
C1149 C1148 1.385 . S
C1149 C1150 1.389 . S
C1150 C1149 1.389 . S
C1150 C1151 1.387 . S
C1151 H1136 0.943 . S
C1151 C1146 1.374 1_565 S
C1151 C1150 1.387 . S
H1152 C1164 0.930 . S
H1153 C1166 0.930 . S
H1154 C1167 0.930 . S
H1155 C1171 0.959 . S
H1156 C1171 0.959 . S
H1157 C1171 0.961 . S
H1158 C1172 0.960 . S
H1159 C1172 0.961 . S
H1160 C1172 0.959 . S
H1161 C1175 0.908 1_455 S
H1162 C1176 0.931 . S
H1163 C1178 0.930 . S
C1164 H1152 0.930 . S
C1164 C1165 1.399 . S
C1164 C1169 1.399 . S
C1165 C1164 1.399 . S
C1165 C1166 1.376 . S
C1166 H1153 0.930 . S
C1166 C1165 1.376 . S
C1166 C1167 1.388 . S
C1167 H1154 0.930 . S
C1167 C1166 1.388 . S
C1167 C1168 1.390 . S
C1168 C1167 1.390 . S
C1168 C1169 1.394 . S
C1168 C1174 1.463 1_554 S
C1169 C1164 1.399 . S
C1169 C1168 1.394 . S
C1169 C1170 1.516 1_455 S
C1170 C1169 1.516 1_655 S
C1170 C1171 1.502 . S
C1170 C1172 1.561 . S
C1170 C1173 1.526 . S
C1171 H1155 0.959 . S
C1171 H1156 0.959 . S
C1171 H1157 0.961 . S
C1171 C1170 1.502 . S
C1172 H1158 0.960 . S
C1172 H1159 0.961 . S
C1172 H1160 0.959 . S
C1172 C1170 1.561 . S
C1173 C1170 1.526 . S
C1173 C1174 1.398 1_654 S
C1173 C1178 1.390 1_554 S
C1174 C1168 1.463 1_556 S
C1174 C1173 1.398 1_456 S
C1174 C1175 1.390 1_455 S
C1175 H1161 0.908 1_655 S
C1175 C1174 1.390 1_655 S
C1175 C1176 1.419 . S
C1176 H1162 0.931 . S
C1176 C1175 1.419 . S
C1176 C1177 1.389 . S
C1177 C1176 1.389 . S
C1177 C1178 1.387 . S
C1178 H1163 0.930 . S
C1178 C1173 1.390 1_556 S
C1178 C1177 1.387 . S
H1179 C1191 0.930 . S
H1180 C1193 0.930 . S
H1181 C1194 0.930 . S
H1182 C1198 0.959 . S
H1183 C1198 0.959 . S
H1184 C1198 0.961 . S
H1185 C1199 0.960 . S
H1186 C1199 0.961 . S
H1187 C1199 0.959 . S
H1188 C1202 0.929 . S
H1189 C1203 0.931 . S
H1190 C1205 0.930 . S
C1191 H1179 0.930 . S
C1191 C1192 1.399 . S
C1191 C1196 1.399 . S
C1192 C1191 1.399 . S
C1192 C1193 1.376 . S
C1193 H1180 0.930 . S
C1193 C1192 1.376 . S
C1193 C1194 1.388 . S
C1194 H1181 0.930 . S
C1194 C1193 1.388 . S
C1194 C1195 1.390 . S
C1195 C1194 1.390 . S
C1195 C1196 1.394 . S
C1195 C1201 1.465 . S
C1196 C1191 1.399 . S
C1196 C1195 1.394 . S
C1196 C1197 1.516 1_554 S
C1197 C1196 1.516 1_556 S
C1197 C1198 1.502 . S
C1197 C1199 1.561 . S
C1197 C1200 1.526 . S
C1198 H1182 0.959 . S
C1198 H1183 0.959 . S
C1198 H1184 0.961 . S
C1198 C1197 1.502 . S
C1199 H1185 0.960 . S
C1199 H1186 0.961 . S
C1199 H1187 0.959 . S
C1199 C1197 1.561 . S
C1200 C1197 1.526 . S
C1200 C1201 1.396 1_556 S
C1200 C1205 1.390 . S
C1201 C1195 1.465 . S
C1201 C1200 1.396 1_554 S
C1201 C1202 1.399 . S
C1202 H1188 0.929 . S
C1202 C1201 1.399 . S
C1202 C1203 1.385 1_554 S
C1203 H1189 0.931 . S
C1203 C1202 1.385 1_556 S
C1203 C1204 1.389 . S
C1204 C1203 1.389 . S
C1204 C1205 1.387 . S
C1205 H1190 0.930 . S
C1205 C1200 1.390 . S
C1205 C1204 1.387 . S
H1206 C1218 0.930 . S
H1207 C1220 0.930 . S
H1208 C1221 0.930 . S
H1209 C1225 0.959 . S
H1210 C1225 0.959 . S
H1211 C1225 0.961 . S
H1212 C1226 0.960 . S
H1213 C1226 0.961 . S
H1214 C1226 0.959 . S
H1215 C1229 0.929 . S
H1216 C1230 0.931 . S
H1217 C1232 0.930 . S
C1218 H1206 0.930 . S
C1218 C1219 1.399 . S
C1218 C1223 1.399 . S
C1219 C1218 1.399 . S
C1219 C1220 1.376 . S
C1220 H1207 0.930 . S
C1220 C1219 1.376 . S
C1220 C1221 1.388 . S
C1221 H1208 0.930 . S
C1221 C1220 1.388 . S
C1221 C1222 1.390 . S
C1222 C1221 1.390 . S
C1222 C1223 1.394 . S
C1222 C1228 1.465 . S
C1223 C1218 1.399 . S
C1223 C1222 1.394 . S
C1223 C1224 1.516 . S
C1224 C1223 1.516 . S
C1224 C1225 1.502 . S
C1224 C1226 1.561 . S
C1224 C1227 1.526 . S
C1225 H1209 0.959 . S
C1225 H1210 0.959 . S
C1225 H1211 0.961 . S
C1225 C1224 1.502 . S
C1226 H1212 0.960 . S
C1226 H1213 0.961 . S
C1226 H1214 0.959 . S
C1226 C1224 1.561 . S
C1227 C1224 1.526 . S
C1227 C1228 1.396 . S
C1227 C1232 1.390 . S
C1228 C1222 1.465 . S
C1228 C1227 1.396 . S
C1228 C1229 1.399 . S
C1229 H1215 0.929 . S
C1229 C1228 1.399 . S
C1229 C1230 1.385 . S
C1230 H1216 0.931 . S
C1230 C1229 1.385 . S
C1230 C1231 1.389 . S
C1231 C1230 1.389 . S
C1231 C1232 1.387 . S
C1232 H1217 0.930 . S
C1232 C1227 1.390 . S
C1232 C1231 1.387 . S
H1233 C1245 0.930 . S
H1234 C1247 0.930 . S
H1235 C1248 0.930 . S
H1236 C1252 0.959 . S
H1237 C1252 0.959 . S
H1238 C1252 0.961 . S
H1239 C1253 0.960 . S
H1240 C1253 0.961 . S
H1241 C1253 0.959 . S
H1242 C1256 0.929 . S
H1243 C1257 0.931 . S
H1244 C1259 0.930 . S
C1245 H1233 0.930 . S
C1245 C1246 1.399 . S
C1245 C1250 1.399 . S
C1246 C1245 1.399 . S
C1246 C1247 1.376 . S
C1247 H1234 0.930 . S
C1247 C1246 1.376 . S
C1247 C1248 1.388 . S
C1248 H1235 0.930 . S
C1248 C1247 1.388 . S
C1248 C1249 1.390 . S
C1249 C1248 1.390 . S
C1249 C1250 1.394 . S
C1249 C1255 1.465 . S
C1250 C1245 1.399 . S
C1250 C1249 1.394 . S
C1250 C1251 1.516 . S
C1251 C1250 1.516 . S
C1251 C1252 1.502 . S
C1251 C1253 1.561 . S
C1251 C1254 1.526 . S
C1252 H1236 0.959 . S
C1252 H1237 0.959 . S
C1252 H1238 0.961 . S
C1252 C1251 1.502 . S
C1253 H1239 0.960 . S
C1253 H1240 0.961 . S
C1253 H1241 0.959 . S
C1253 C1251 1.561 . S
C1254 C1251 1.526 . S
C1254 C1255 1.396 . S
C1254 C1259 1.390 . S
C1255 C1249 1.465 . S
C1255 C1254 1.396 . S
C1255 C1256 1.399 . S
C1256 H1242 0.929 . S
C1256 C1255 1.399 . S
C1256 C1257 1.385 . S
C1257 H1243 0.931 . S
C1257 C1256 1.385 . S
C1257 C1258 1.389 . S
C1258 C1257 1.389 . S
C1258 C1259 1.387 . S
C1259 H1244 0.930 . S
C1259 C1254 1.390 . S
C1259 C1258 1.387 . S
H1260 C1272 0.930 . S
H1261 C1274 0.930 . S
H1262 C1275 0.930 . S
H1263 C1279 0.959 . S
H1264 C1279 0.959 . S
H1265 C1279 0.961 . S
H1266 C1280 0.960 . S
H1267 C1280 0.961 . S
H1268 C1280 0.959 . S
H1269 C1283 0.929 . S
H1270 C1284 0.931 . S
H1271 C1286 0.930 . S
C1272 H1260 0.930 . S
C1272 C1273 1.399 . S
C1272 C1277 1.399 . S
C1273 C1272 1.399 . S
C1273 C1274 1.376 . S
C1274 H1261 0.930 . S
C1274 C1273 1.376 . S
C1274 C1275 1.388 . S
C1275 H1262 0.930 . S
C1275 C1274 1.388 . S
C1275 C1276 1.390 . S
C1276 C1275 1.390 . S
C1276 C1277 1.394 . S
C1276 C1282 1.465 . S
C1277 C1272 1.399 . S
C1277 C1276 1.394 . S
C1277 C1278 1.516 . S
C1278 C1277 1.516 . S
C1278 C1279 1.502 . S
C1278 C1280 1.561 . S
C1278 C1281 1.526 . S
C1279 H1263 0.959 . S
C1279 H1264 0.959 . S
C1279 H1265 0.961 . S
C1279 C1278 1.502 . S
C1280 H1266 0.960 . S
C1280 H1267 0.961 . S
C1280 H1268 0.959 . S
C1280 C1278 1.561 . S
C1281 C1278 1.526 . S
C1281 C1282 1.396 . S
C1281 C1286 1.390 . S
C1282 C1276 1.465 . S
C1282 C1281 1.396 . S
C1282 C1283 1.399 . S
C1283 H1269 0.929 . S
C1283 C1282 1.399 . S
C1283 C1284 1.385 . S
C1284 H1270 0.931 . S
C1284 C1283 1.385 . S
C1284 C1285 1.389 . S
C1285 C1284 1.389 . S
C1285 C1286 1.387 . S
C1286 H1271 0.930 . S
C1286 C1281 1.390 . S
C1286 C1285 1.387 . S
H1287 C1299 0.930 . S
H1288 C1301 0.930 . S
H1289 C1302 0.930 . S
H1290 C1306 0.959 . S
H1291 C1306 0.959 . S
H1292 C1306 0.961 . S
H1293 C1307 0.960 . S
H1294 C1307 0.961 . S
H1295 C1307 0.959 . S
H1296 C1310 0.929 . S
H1297 C1311 0.931 . S
H1298 C1313 0.930 . S
C1299 H1287 0.930 . S
C1299 C1300 1.399 . S
C1299 C1304 1.399 . S
C1300 C1299 1.399 . S
C1300 C1301 1.376 . S
C1301 H1288 0.930 . S
C1301 C1300 1.376 . S
C1301 C1302 1.388 . S
C1302 H1289 0.930 . S
C1302 C1301 1.388 . S
C1302 C1303 1.390 . S
C1303 C1302 1.390 . S
C1303 C1304 1.394 . S
C1303 C1309 1.465 . S
C1304 C1299 1.399 . S
C1304 C1303 1.394 . S
C1304 C1305 1.516 . S
C1305 C1304 1.516 . S
C1305 C1306 1.502 . S
C1305 C1307 1.561 . S
C1305 C1308 1.526 . S
C1306 H1290 0.959 . S
C1306 H1291 0.959 . S
C1306 H1292 0.961 . S
C1306 C1305 1.502 . S
C1307 H1293 0.960 . S
C1307 H1294 0.961 . S
C1307 H1295 0.959 . S
C1307 C1305 1.561 . S
C1308 C1305 1.526 . S
C1308 C1309 1.396 . S
C1308 C1313 1.390 . S
C1309 C1303 1.465 . S
C1309 C1308 1.396 . S
C1309 C1310 1.399 . S
C1310 H1296 0.929 . S
C1310 C1309 1.399 . S
C1310 C1311 1.385 . S
C1311 H1297 0.931 . S
C1311 C1310 1.385 . S
C1311 C1312 1.389 . S
C1312 C1311 1.389 . S
C1312 C1313 1.387 . S
C1313 H1298 0.930 . S
C1313 C1308 1.390 . S
C1313 C1312 1.387 . S
H1314 C1326 0.930 . S
H1315 C1328 0.930 . S
H1316 C1329 0.930 . S
H1317 C1333 0.959 . S
H1318 C1333 0.959 . S
H1319 C1333 0.961 . S
H1320 C1334 0.960 . S
H1321 C1334 0.961 . S
H1322 C1334 0.959 . S
H1323 C1337 0.929 . S
H1324 C1338 0.931 . S
H1325 C1340 0.930 . S
C1326 H1314 0.930 . S
C1326 C1327 1.399 . S
C1326 C1331 1.399 . S
C1327 C1326 1.399 . S
C1327 C1328 1.376 . S
C1328 H1315 0.930 . S
C1328 C1327 1.376 . S
C1328 C1329 1.388 . S
C1329 H1316 0.930 . S
C1329 C1328 1.388 . S
C1329 C1330 1.390 . S
C1330 C1329 1.390 . S
C1330 C1331 1.394 . S
C1330 C1336 1.465 . S
C1331 C1326 1.399 . S
C1331 C1330 1.394 . S
C1331 C1332 1.516 . S
C1332 C1331 1.516 . S
C1332 C1333 1.502 . S
C1332 C1334 1.561 . S
C1332 C1335 1.526 . S
C1333 H1317 0.959 . S
C1333 H1318 0.959 . S
C1333 H1319 0.961 . S
C1333 C1332 1.502 . S
C1334 H1320 0.960 . S
C1334 H1321 0.961 . S
C1334 H1322 0.959 . S
C1334 C1332 1.561 . S
C1335 C1332 1.526 . S
C1335 C1336 1.396 . S
C1335 C1340 1.390 . S
C1336 C1330 1.465 . S
C1336 C1335 1.396 . S
C1336 C1337 1.399 . S
C1337 H1323 0.929 . S
C1337 C1336 1.399 . S
C1337 C1338 1.385 . S
C1338 H1324 0.931 . S
C1338 C1337 1.385 . S
C1338 C1339 1.389 . S
C1339 C1338 1.389 . S
C1339 C1340 1.387 . S
C1340 H1325 0.930 . S
C1340 C1335 1.390 . S
C1340 C1339 1.387 . S
H1341 C1353 0.930 . S
H1342 C1355 0.930 . S
H1343 C1356 0.930 . S
H1344 C1360 0.959 . S
H1345 C1360 0.959 . S
H1346 C1360 0.961 . S
H1347 C1361 0.960 . S
H1348 C1361 0.961 . S
H1349 C1361 0.959 . S
H1350 C1364 0.929 . S
H1351 C1365 0.931 . S
H1352 C1367 0.930 . S
C1353 H1341 0.930 . S
C1353 C1354 1.399 . S
C1353 C1358 1.399 . S
C1354 C1353 1.399 . S
C1354 C1355 1.376 . S
C1355 H1342 0.930 . S
C1355 C1354 1.376 . S
C1355 C1356 1.388 . S
C1356 H1343 0.930 . S
C1356 C1355 1.388 . S
C1356 C1357 1.390 . S
C1357 C1356 1.390 . S
C1357 C1358 1.394 . S
C1357 C1363 1.465 . S
C1358 C1353 1.399 . S
C1358 C1357 1.394 . S
C1358 C1359 1.516 . S
C1359 C1358 1.516 . S
C1359 C1360 1.502 . S
C1359 C1361 1.561 . S
C1359 C1362 1.526 . S
C1360 H1344 0.959 . S
C1360 H1345 0.959 . S
C1360 H1346 0.961 . S
C1360 C1359 1.502 . S
C1361 H1347 0.960 . S
C1361 H1348 0.961 . S
C1361 H1349 0.959 . S
C1361 C1359 1.561 . S
C1362 C1359 1.526 . S
C1362 C1363 1.396 . S
C1362 C1367 1.390 . S
C1363 C1357 1.465 . S
C1363 C1362 1.396 . S
C1363 C1364 1.399 . S
C1364 H1350 0.929 . S
C1364 C1363 1.399 . S
C1364 C1365 1.385 . S
C1365 H1351 0.931 . S
C1365 C1364 1.385 . S
C1365 C1366 1.389 . S
C1366 C1365 1.389 . S
C1366 C1367 1.387 . S
C1367 H1352 0.930 . S
C1367 C1362 1.390 . S
C1367 C1366 1.387 . S
H1368 C1380 0.930 . S
H1369 C1382 0.930 . S
H1370 C1383 0.930 . S
H1371 C1387 0.959 . S
H1372 C1387 0.959 . S
H1373 C1387 0.961 . S
H1374 C1388 0.960 . S
H1375 C1388 0.961 . S
H1376 C1388 0.959 . S
H1377 C1391 0.929 . S
H1378 C1392 0.931 . S
H1379 C1394 0.930 . S
C1380 H1368 0.930 . S
C1380 C1381 1.399 . S
C1380 C1385 1.399 . S
C1381 C1380 1.399 . S
C1381 C1382 1.376 . S
C1382 H1369 0.930 . S
C1382 C1381 1.376 . S
C1382 C1383 1.388 . S
C1383 H1370 0.930 . S
C1383 C1382 1.388 . S
C1383 C1384 1.390 . S
C1384 C1383 1.390 . S
C1384 C1385 1.394 . S
C1384 C1390 1.465 . S
C1385 C1380 1.399 . S
C1385 C1384 1.394 . S
C1385 C1386 1.516 . S
C1386 C1385 1.516 . S
C1386 C1387 1.502 . S
C1386 C1388 1.561 . S
C1386 C1389 1.526 . S
C1387 H1371 0.959 . S
C1387 H1372 0.959 . S
C1387 H1373 0.961 . S
C1387 C1386 1.502 . S
C1388 H1374 0.960 . S
C1388 H1375 0.961 . S
C1388 H1376 0.959 . S
C1388 C1386 1.561 . S
C1389 C1386 1.526 . S
C1389 C1390 1.396 . S
C1389 C1394 1.390 . S
C1390 C1384 1.465 . S
C1390 C1389 1.396 . S
C1390 C1391 1.399 . S
C1391 H1377 0.929 . S
C1391 C1390 1.399 . S
C1391 C1392 1.385 . S
C1392 H1378 0.931 . S
C1392 C1391 1.385 . S
C1392 C1393 1.389 . S
C1393 C1392 1.389 . S
C1393 C1394 1.387 . S
C1394 H1379 0.930 . S
C1394 C1389 1.390 . S
C1394 C1393 1.387 . S
H1395 C1407 0.930 . S
H1396 C1409 0.930 . S
H1397 C1410 0.930 . S
H1398 C1414 0.959 . S
H1399 C1414 0.959 . S
H1400 C1414 0.961 . S
H1401 C1415 0.960 . S
H1402 C1415 0.961 . S
H1403 C1415 0.959 . S
H1404 C1418 0.929 . S
H1405 C1419 0.931 . S
H1406 C1421 0.930 . S
C1407 H1395 0.930 . S
C1407 C1408 1.399 . S
C1407 C1412 1.399 . S
C1408 C1407 1.399 . S
C1408 C1409 1.376 . S
C1409 H1396 0.930 . S
C1409 C1408 1.376 . S
C1409 C1410 1.388 . S
C1410 H1397 0.930 . S
C1410 C1409 1.388 . S
C1410 C1411 1.390 . S
C1411 C1410 1.390 . S
C1411 C1412 1.394 . S
C1411 C1417 1.465 . S
C1412 C1407 1.399 . S
C1412 C1411 1.394 . S
C1412 C1413 1.516 . S
C1413 C1412 1.516 . S
C1413 C1414 1.502 . S
C1413 C1415 1.561 . S
C1413 C1416 1.526 . S
C1414 H1398 0.959 . S
C1414 H1399 0.959 . S
C1414 H1400 0.961 . S
C1414 C1413 1.502 . S
C1415 H1401 0.960 . S
C1415 H1402 0.961 . S
C1415 H1403 0.959 . S
C1415 C1413 1.561 . S
C1416 C1413 1.526 . S
C1416 C1417 1.396 . S
C1416 C1421 1.390 . S
C1417 C1411 1.465 . S
C1417 C1416 1.396 . S
C1417 C1418 1.399 . S
C1418 H1404 0.929 . S
C1418 C1417 1.399 . S
C1418 C1419 1.385 . S
C1419 H1405 0.931 . S
C1419 C1418 1.385 . S
C1419 C1420 1.389 . S
C1420 C1419 1.389 . S
C1420 C1421 1.387 . S
C1421 H1406 0.930 . S
C1421 C1416 1.390 . S
C1421 C1420 1.387 . S
H1422 C1434 0.930 . S
H1423 C1436 0.930 . S
H1424 C1437 0.930 . S
H1425 C1441 0.959 . S
H1426 C1441 0.959 . S
H1427 C1441 0.961 . S
H1428 C1442 0.960 . S
H1429 C1442 0.961 . S
H1430 C1442 0.959 . S
H1431 C1445 0.929 . S
H1432 C1446 0.931 . S
H1433 C1448 0.930 . S
C1434 H1422 0.930 . S
C1434 C1435 1.399 . S
C1434 C1439 1.399 . S
C1435 C1434 1.399 . S
C1435 C1436 1.376 . S
C1436 H1423 0.930 . S
C1436 C1435 1.376 . S
C1436 C1437 1.388 . S
C1437 H1424 0.930 . S
C1437 C1436 1.388 . S
C1437 C1438 1.390 . S
C1438 C1437 1.390 . S
C1438 C1439 1.394 . S
C1438 C1444 1.465 . S
C1439 C1434 1.399 . S
C1439 C1438 1.394 . S
C1439 C1440 1.516 . S
C1440 C1439 1.516 . S
C1440 C1441 1.502 . S
C1440 C1442 1.561 . S
C1440 C1443 1.526 . S
C1441 H1425 0.959 . S
C1441 H1426 0.959 . S
C1441 H1427 0.961 . S
C1441 C1440 1.502 . S
C1442 H1428 0.960 . S
C1442 H1429 0.961 . S
C1442 H1430 0.959 . S
C1442 C1440 1.561 . S
C1443 C1440 1.526 . S
C1443 C1444 1.396 . S
C1443 C1448 1.390 . S
C1444 C1438 1.465 . S
C1444 C1443 1.396 . S
C1444 C1445 1.399 . S
C1445 H1431 0.929 . S
C1445 C1444 1.399 . S
C1445 C1446 1.385 . S
C1446 H1432 0.931 . S
C1446 C1445 1.385 . S
C1446 C1447 1.389 . S
C1447 C1446 1.389 . S
C1447 C1448 1.387 . S
C1448 H1433 0.930 . S
C1448 C1443 1.390 . S
C1448 C1447 1.387 . S
H1449 C1461 0.930 . S
H1450 C1463 0.930 . S
H1451 C1464 0.930 . S
H1452 C1468 0.959 . S
H1453 C1468 0.959 . S
H1454 C1468 0.961 . S
H1455 C1469 0.960 . S
H1456 C1469 0.961 . S
H1457 C1469 0.959 . S
H1458 C1472 0.929 . S
H1459 C1473 0.931 . S
H1460 C1475 0.930 . S
C1461 H1449 0.930 . S
C1461 C1462 1.399 . S
C1461 C1466 1.399 . S
C1462 C1461 1.399 . S
C1462 C1463 1.376 . S
C1463 H1450 0.930 . S
C1463 C1462 1.376 . S
C1463 C1464 1.388 . S
C1464 H1451 0.930 . S
C1464 C1463 1.388 . S
C1464 C1465 1.390 . S
C1465 C1464 1.390 . S
C1465 C1466 1.394 . S
C1465 C1471 1.465 . S
C1466 C1461 1.399 . S
C1466 C1465 1.394 . S
C1466 C1467 1.516 . S
C1467 C1466 1.516 . S
C1467 C1468 1.502 . S
C1467 C1469 1.561 . S
C1467 C1470 1.526 . S
C1468 H1452 0.959 . S
C1468 H1453 0.959 . S
C1468 H1454 0.961 . S
C1468 C1467 1.502 . S
C1469 H1455 0.960 . S
C1469 H1456 0.961 . S
C1469 H1457 0.959 . S
C1469 C1467 1.561 . S
C1470 C1467 1.526 . S
C1470 C1471 1.396 . S
C1470 C1475 1.390 . S
C1471 C1465 1.465 . S
C1471 C1470 1.396 . S
C1471 C1472 1.399 . S
C1472 H1458 0.929 . S
C1472 C1471 1.399 . S
C1472 C1473 1.385 . S
C1473 H1459 0.931 . S
C1473 C1472 1.385 . S
C1473 C1474 1.389 . S
C1474 C1473 1.389 . S
C1474 C1475 1.387 . S
C1475 H1460 0.930 . S
C1475 C1470 1.390 . S
C1475 C1474 1.387 . S
H1476 C1488 0.930 . S
H1477 C1490 0.930 . S
H1478 C1491 0.930 . S
H1479 C1495 0.959 . S
H1480 C1495 0.959 . S
H1481 C1495 0.961 . S
H1482 C1496 0.960 . S
H1483 C1496 0.961 . S
H1484 C1496 0.959 . S
H1485 C1499 0.929 . S
H1486 C1500 0.931 . S
H1487 C1502 0.930 . S
C1488 H1476 0.930 . S
C1488 C1489 1.399 . S
C1488 C1493 1.399 . S
C1489 C1488 1.399 . S
C1489 C1490 1.376 . S
C1490 H1477 0.930 . S
C1490 C1489 1.376 . S
C1490 C1491 1.388 . S
C1491 H1478 0.930 . S
C1491 C1490 1.388 . S
C1491 C1492 1.390 . S
C1492 C1491 1.390 . S
C1492 C1493 1.394 . S
C1492 C1498 1.465 . S
C1493 C1488 1.399 . S
C1493 C1492 1.394 . S
C1493 C1494 1.516 . S
C1494 C1493 1.516 . S
C1494 C1495 1.502 . S
C1494 C1496 1.561 . S
C1494 C1497 1.526 . S
C1495 H1479 0.959 . S
C1495 H1480 0.959 . S
C1495 H1481 0.961 . S
C1495 C1494 1.502 . S
C1496 H1482 0.960 . S
C1496 H1483 0.961 . S
C1496 H1484 0.959 . S
C1496 C1494 1.561 . S
C1497 C1494 1.526 . S
C1497 C1498 1.396 . S
C1497 C1502 1.390 . S
C1498 C1492 1.465 . S
C1498 C1497 1.396 . S
C1498 C1499 1.399 . S
C1499 H1485 0.929 . S
C1499 C1498 1.399 . S
C1499 C1500 1.385 . S
C1500 H1486 0.931 . S
C1500 C1499 1.385 . S
C1500 C1501 1.389 . S
C1501 C1500 1.389 . S
C1501 C1502 1.387 . S
C1502 H1487 0.930 . S
C1502 C1497 1.390 . S
C1502 C1501 1.387 . S
H1503 C1515 0.930 . S
H1504 C1517 0.930 . S
H1505 C1518 0.930 . S
H1506 C1522 0.959 . S
H1507 C1522 0.959 . S
H1508 C1522 0.961 . S
H1509 C1523 0.960 . S
H1510 C1523 0.961 . S
H1511 C1523 0.959 . S
H1512 C1526 0.929 . S
H1513 C1527 0.931 . S
H1514 C1529 0.930 . S
C1515 H1503 0.930 . S
C1515 C1516 1.399 . S
C1515 C1520 1.399 . S
C1516 C1515 1.399 . S
C1516 C1517 1.376 . S
C1517 H1504 0.930 . S
C1517 C1516 1.376 . S
C1517 C1518 1.388 . S
C1518 H1505 0.930 . S
C1518 C1517 1.388 . S
C1518 C1519 1.390 . S
C1519 C1518 1.390 . S
C1519 C1520 1.394 . S
C1519 C1525 1.465 . S
C1520 C1515 1.399 . S
C1520 C1519 1.394 . S
C1520 C1521 1.516 . S
C1521 C1520 1.516 . S
C1521 C1522 1.502 . S
C1521 C1523 1.561 . S
C1521 C1524 1.526 . S
C1522 H1506 0.959 . S
C1522 H1507 0.959 . S
C1522 H1508 0.961 . S
C1522 C1521 1.502 . S
C1523 H1509 0.960 . S
C1523 H1510 0.961 . S
C1523 H1511 0.959 . S
C1523 C1521 1.561 . S
C1524 C1521 1.526 . S
C1524 C1525 1.396 . S
C1524 C1529 1.390 . S
C1525 C1519 1.465 . S
C1525 C1524 1.396 . S
C1525 C1526 1.399 . S
C1526 H1512 0.929 . S
C1526 C1525 1.399 . S
C1526 C1527 1.385 . S
C1527 H1513 0.931 . S
C1527 C1526 1.385 . S
C1527 C1528 1.389 . S
C1528 C1527 1.389 . S
C1528 C1529 1.387 . S
C1529 H1514 0.930 . S
C1529 C1524 1.390 . S
C1529 C1528 1.387 . S
H1530 C1542 0.930 . S
H1531 C1544 0.930 . S
H1532 C1545 0.930 . S
H1533 C1549 0.959 . S
H1534 C1549 0.959 . S
H1535 C1549 0.961 . S
H1536 C1550 0.960 . S
H1537 C1550 0.961 . S
H1538 C1550 0.959 . S
H1539 C1553 0.929 . S
H1540 C1554 0.931 . S
H1541 C1556 0.930 . S
C1542 H1530 0.930 . S
C1542 C1543 1.399 . S
C1542 C1547 1.399 . S
C1543 C1542 1.399 . S
C1543 C1544 1.376 . S
C1544 H1531 0.930 . S
C1544 C1543 1.376 . S
C1544 C1545 1.388 . S
C1545 H1532 0.930 . S
C1545 C1544 1.388 . S
C1545 C1546 1.390 . S
C1546 C1545 1.390 . S
C1546 C1547 1.394 . S
C1546 C1552 1.465 . S
C1547 C1542 1.399 . S
C1547 C1546 1.394 . S
C1547 C1548 1.516 . S
C1548 C1547 1.516 . S
C1548 C1549 1.502 . S
C1548 C1550 1.561 . S
C1548 C1551 1.526 . S
C1549 H1533 0.959 . S
C1549 H1534 0.959 . S
C1549 H1535 0.961 . S
C1549 C1548 1.502 . S
C1550 H1536 0.960 . S
C1550 H1537 0.961 . S
C1550 H1538 0.959 . S
C1550 C1548 1.561 . S
C1551 C1548 1.526 . S
C1551 C1552 1.396 . S
C1551 C1556 1.390 . S
C1552 C1546 1.465 . S
C1552 C1551 1.396 . S
C1552 C1553 1.399 . S
C1553 H1539 0.929 . S
C1553 C1552 1.399 . S
C1553 C1554 1.385 . S
C1554 H1540 0.931 . S
C1554 C1553 1.385 . S
C1554 C1555 1.389 . S
C1555 C1554 1.389 . S
C1555 C1556 1.387 . S
C1556 H1541 0.930 . S
C1556 C1551 1.390 . S
C1556 C1555 1.387 . S
H1557 C1569 0.930 . S
H1558 C1571 0.930 . S
H1559 C1572 0.930 . S
H1560 C1576 0.959 . S
H1561 C1576 0.959 . S
H1562 C1576 0.961 . S
H1563 C1577 0.960 . S
H1564 C1577 0.961 1_556 S
H1565 C1577 0.959 . S
H1566 C1580 0.929 . S
H1567 C1581 0.931 . S
H1568 C1583 0.930 . S
C1569 H1557 0.930 . S
C1569 C1570 1.399 . S
C1569 C1574 1.399 . S
C1570 C1569 1.399 . S
C1570 C1571 1.376 . S
C1571 H1558 0.930 . S
C1571 C1570 1.376 . S
C1571 C1572 1.388 . S
C1572 H1559 0.930 . S
C1572 C1571 1.388 . S
C1572 C1573 1.390 . S
C1573 C1572 1.390 . S
C1573 C1574 1.394 . S
C1573 C1579 1.465 . S
C1574 C1569 1.399 . S
C1574 C1573 1.394 . S
C1574 C1575 1.516 . S
C1575 C1574 1.516 . S
C1575 C1576 1.502 . S
C1575 C1577 1.561 . S
C1575 C1578 1.526 . S
C1576 H1560 0.959 . S
C1576 H1561 0.959 . S
C1576 H1562 0.961 . S
C1576 C1575 1.502 . S
C1577 H1563 0.960 . S
C1577 H1564 0.961 1_554 S
C1577 H1565 0.959 . S
C1577 C1575 1.561 . S
C1578 C1575 1.526 . S
C1578 C1579 1.396 . S
C1578 C1583 1.390 . S
C1579 C1573 1.465 . S
C1579 C1578 1.396 . S
C1579 C1580 1.399 . S
C1580 H1566 0.929 . S
C1580 C1579 1.399 . S
C1580 C1581 1.385 . S
C1581 H1567 0.931 . S
C1581 C1580 1.385 . S
C1581 C1582 1.389 . S
C1582 C1581 1.389 . S
C1582 C1583 1.387 . S
C1583 H1568 0.930 . S
C1583 C1578 1.390 . S
C1583 C1582 1.387 . S
H1584 C1596 0.930 . S
H1585 C1598 0.930 . S
H1586 C1599 0.930 . S
H1587 C1603 0.959 . S
H1588 C1603 0.959 . S
H1589 C1603 0.961 . S
H1590 C1604 0.960 . S
H1591 C1604 0.961 . S
H1592 C1604 0.959 . S
H1593 C1607 0.929 . S
H1594 C1608 0.931 . S
H1595 C1610 0.930 . S
C1596 H1584 0.930 . S
C1596 C1597 1.399 . S
C1596 C1601 1.399 . S
C1597 C1596 1.399 . S
C1597 C1598 1.376 . S
C1598 H1585 0.930 . S
C1598 C1597 1.376 . S
C1598 C1599 1.388 . S
C1599 H1586 0.930 . S
C1599 C1598 1.388 . S
C1599 C1600 1.390 . S
C1600 C1599 1.390 . S
C1600 C1601 1.394 . S
C1600 C1606 1.465 . S
C1601 C1596 1.399 . S
C1601 C1600 1.394 . S
C1601 C1602 1.516 . S
C1602 C1601 1.516 . S
C1602 C1603 1.502 . S
C1602 C1604 1.561 . S
C1602 C1605 1.526 . S
C1603 H1587 0.959 . S
C1603 H1588 0.959 . S
C1603 H1589 0.961 . S
C1603 C1602 1.502 . S
C1604 H1590 0.960 . S
C1604 H1591 0.961 . S
C1604 H1592 0.959 . S
C1604 C1602 1.561 . S
C1605 C1602 1.526 . S
C1605 C1606 1.396 . S
C1605 C1610 1.390 . S
C1606 C1600 1.465 . S
C1606 C1605 1.396 . S
C1606 C1607 1.399 . S
C1607 H1593 0.929 . S
C1607 C1606 1.399 . S
C1607 C1608 1.385 . S
C1608 H1594 0.931 . S
C1608 C1607 1.385 . S
C1608 C1609 1.389 . S
C1609 C1608 1.389 . S
C1609 C1610 1.387 . S
C1610 H1595 0.930 . S
C1610 C1605 1.390 . S
C1610 C1609 1.387 . S
H1611 C1623 0.930 . S
H1612 C1625 0.930 . S
H1613 C1626 0.930 . S
H1614 C1630 0.959 . S
H1615 C1630 0.959 . S
H1616 C1630 0.961 . S
H1617 C1631 0.960 . S
H1618 C1631 0.961 . S
H1619 C1631 0.959 . S
H1620 C1634 0.929 . S
H1621 C1635 0.931 . S
H1622 C1637 0.930 . S
C1623 H1611 0.930 . S
C1623 C1624 1.399 . S
C1623 C1628 1.399 . S
C1624 C1623 1.399 . S
C1624 C1625 1.376 . S
C1625 H1612 0.930 . S
C1625 C1624 1.376 . S
C1625 C1626 1.388 . S
C1626 H1613 0.930 . S
C1626 C1625 1.388 . S
C1626 C1627 1.390 . S
C1627 C1626 1.390 . S
C1627 C1628 1.394 . S
C1627 C1633 1.465 . S
C1628 C1623 1.399 . S
C1628 C1627 1.394 . S
C1628 C1629 1.516 . S
C1629 C1628 1.516 . S
C1629 C1630 1.502 . S
C1629 C1631 1.561 . S
C1629 C1632 1.526 . S
C1630 H1614 0.959 . S
C1630 H1615 0.959 . S
C1630 H1616 0.961 . S
C1630 C1629 1.502 . S
C1631 H1617 0.960 . S
C1631 H1618 0.961 . S
C1631 H1619 0.959 . S
C1631 C1629 1.561 . S
C1632 C1629 1.526 . S
C1632 C1633 1.396 . S
C1632 C1637 1.390 . S
C1633 C1627 1.465 . S
C1633 C1632 1.396 . S
C1633 C1634 1.399 . S
C1634 H1620 0.929 . S
C1634 C1633 1.399 . S
C1634 C1635 1.385 . S
C1635 H1621 0.931 . S
C1635 C1634 1.385 . S
C1635 C1636 1.389 . S
C1636 C1635 1.389 . S
C1636 C1637 1.387 . S
C1637 H1622 0.930 . S
C1637 C1632 1.390 . S
C1637 C1636 1.387 . S
H1638 C1650 0.930 . S
H1639 C1652 0.930 . S
H1640 C1653 0.930 . S
H1641 C1657 0.959 . S
H1642 C1657 0.959 . S
H1643 C1657 0.961 . S
H1644 C1658 0.960 . S
H1645 C1658 0.961 . S
H1646 C1658 0.959 . S
H1647 C1661 0.929 . S
H1648 C1662 0.931 . S
H1649 C1664 0.930 . S
C1650 H1638 0.930 . S
C1650 C1651 1.399 . S
C1650 C1655 1.399 . S
C1651 C1650 1.399 . S
C1651 C1652 1.376 . S
C1652 H1639 0.930 . S
C1652 C1651 1.376 . S
C1652 C1653 1.388 . S
C1653 H1640 0.930 . S
C1653 C1652 1.388 . S
C1653 C1654 1.390 . S
C1654 C1653 1.390 . S
C1654 C1655 1.394 . S
C1654 C1660 1.465 . S
C1655 C1650 1.399 . S
C1655 C1654 1.394 . S
C1655 C1656 1.516 . S
C1656 C1655 1.516 . S
C1656 C1657 1.502 . S
C1656 C1658 1.561 . S
C1656 C1659 1.526 . S
C1657 H1641 0.959 . S
C1657 H1642 0.959 . S
C1657 H1643 0.961 . S
C1657 C1656 1.502 . S
C1658 H1644 0.960 . S
C1658 H1645 0.961 . S
C1658 H1646 0.959 . S
C1658 C1656 1.561 . S
C1659 C1656 1.526 . S
C1659 C1660 1.396 . S
C1659 C1664 1.390 . S
C1660 C1654 1.465 . S
C1660 C1659 1.396 . S
C1660 C1661 1.399 . S
C1661 H1647 0.929 . S
C1661 C1660 1.399 . S
C1661 C1662 1.385 . S
C1662 H1648 0.931 . S
C1662 C1661 1.385 . S
C1662 C1663 1.389 . S
C1663 C1662 1.389 . S
C1663 C1664 1.387 . S
C1664 H1649 0.930 . S
C1664 C1659 1.390 . S
C1664 C1663 1.387 . S
H1665 C1677 0.930 . S
H1666 C1679 0.930 . S
H1667 C1680 0.930 . S
H1668 C1684 0.959 . S
H1669 C1684 0.959 . S
H1670 C1684 0.961 . S
H1671 C1685 0.960 . S
H1672 C1685 0.961 . S
H1673 C1685 0.959 . S
H1674 C1688 0.929 . S
H1675 C1689 0.931 . S
H1676 C1691 0.930 . S
C1677 H1665 0.930 . S
C1677 C1678 1.399 . S
C1677 C1682 1.399 . S
C1678 C1677 1.399 . S
C1678 C1679 1.376 . S
C1679 H1666 0.930 . S
C1679 C1678 1.376 . S
C1679 C1680 1.388 . S
C1680 H1667 0.930 . S
C1680 C1679 1.388 . S
C1680 C1681 1.390 . S
C1681 C1680 1.390 . S
C1681 C1682 1.394 . S
C1681 C1687 1.465 . S
C1682 C1677 1.399 . S
C1682 C1681 1.394 . S
C1682 C1683 1.516 . S
C1683 C1682 1.516 . S
C1683 C1684 1.502 . S
C1683 C1685 1.561 . S
C1683 C1686 1.526 . S
C1684 H1668 0.959 . S
C1684 H1669 0.959 . S
C1684 H1670 0.961 . S
C1684 C1683 1.502 . S
C1685 H1671 0.960 . S
C1685 H1672 0.961 . S
C1685 H1673 0.959 . S
C1685 C1683 1.561 . S
C1686 C1683 1.526 . S
C1686 C1687 1.396 . S
C1686 C1691 1.390 . S
C1687 C1681 1.465 . S
C1687 C1686 1.396 . S
C1687 C1688 1.399 . S
C1688 H1674 0.929 . S
C1688 C1687 1.399 . S
C1688 C1689 1.385 . S
C1689 H1675 0.931 . S
C1689 C1688 1.385 . S
C1689 C1690 1.389 . S
C1690 C1689 1.389 . S
C1690 C1691 1.387 . S
C1691 H1676 0.930 . S
C1691 C1686 1.390 . S
C1691 C1690 1.387 . S
H1692 C1704 0.930 . S
H1693 C1706 0.930 . S
H1694 C1707 0.930 . S
H1695 C1711 0.959 . S
H1696 C1711 0.959 1_556 S
H1697 C1711 0.961 . S
H1698 C1712 0.960 . S
H1699 C1712 0.961 1_556 S
H1700 C1712 0.959 . S
H1701 C1715 0.929 . S
H1702 C1716 0.969 1_655 S
H1703 C1718 0.930 . S
C1704 H1692 0.930 . S
C1704 C1705 1.399 . S
C1704 C1709 1.399 . S
C1705 C1704 1.399 . S
C1705 C1706 1.376 . S
C1706 H1693 0.930 . S
C1706 C1705 1.376 . S
C1706 C1707 1.388 . S
C1707 H1694 0.930 . S
C1707 C1706 1.388 . S
C1707 C1708 1.390 . S
C1708 C1707 1.390 . S
C1708 C1709 1.394 . S
C1708 C1714 1.474 . S
C1709 C1704 1.399 . S
C1709 C1708 1.394 . S
C1709 C1710 1.516 . S
C1710 C1709 1.516 . S
C1710 C1711 1.502 1_455 S
C1710 C1712 1.561 . S
C1710 C1713 1.526 1_554 S
C1711 H1695 0.959 . S
C1711 H1696 0.959 1_554 S
C1711 H1697 0.961 . S
C1711 C1710 1.502 1_655 S
C1712 H1698 0.960 . S
C1712 H1699 0.961 1_554 S
C1712 H1700 0.959 . S
C1712 C1710 1.561 . S
C1713 C1710 1.526 1_556 S
C1713 C1714 1.391 1_556 S
C1713 C1718 1.390 . S
C1714 C1708 1.474 . S
C1714 C1713 1.391 1_554 S
C1714 C1715 1.395 1_554 S
C1715 H1701 0.929 . S
C1715 C1714 1.395 1_556 S
C1715 C1716 1.387 . S
C1716 H1702 0.969 1_455 S
C1716 C1715 1.387 . S
C1716 C1717 1.390 . S
C1717 C1716 1.390 . S
C1717 C1718 1.369 . S
C1718 H1703 0.930 . S
C1718 C1713 1.390 . S
C1718 C1717 1.369 . S
H1719 C1731 0.930 . S
H1720 C1733 0.930 . S
H1721 C1734 0.930 . S
H1722 C1738 0.964 . S
H1723 C1738 0.959 1_556 S
H1724 C1738 0.961 . S
H1725 C1739 0.960 . S
H1726 C1739 0.961 1_556 S
H1727 C1739 0.959 . S
H1728 C1742 0.929 . S
H1729 C1743 0.931 . S
H1730 C1745 0.930 . S
C1731 H1719 0.930 . S
C1731 C1732 1.399 . S
C1731 C1736 1.399 . S
C1732 C1731 1.399 . S
C1732 C1733 1.376 . S
C1733 H1720 0.930 . S
C1733 C1732 1.376 . S
C1733 C1734 1.388 . S
C1734 H1721 0.930 . S
C1734 C1733 1.388 . S
C1734 C1735 1.390 . S
C1735 C1734 1.390 . S
C1735 C1736 1.394 . S
C1735 C1741 1.465 1_554 S
C1736 C1731 1.399 . S
C1736 C1735 1.394 . S
C1736 C1737 1.516 . S
C1737 C1736 1.516 . S
C1737 C1738 1.502 . S
C1737 C1739 1.561 . S
C1737 C1740 1.526 1_554 S
C1738 H1722 0.964 . S
C1738 H1723 0.959 1_554 S
C1738 H1724 0.961 . S
C1738 C1737 1.502 . S
C1739 H1725 0.960 . S
C1739 H1726 0.961 1_554 S
C1739 H1727 0.959 . S
C1739 C1737 1.561 . S
C1740 C1737 1.526 1_556 S
C1740 C1741 1.396 . S
C1740 C1745 1.390 . S
C1741 C1735 1.465 1_556 S
C1741 C1740 1.396 . S
C1741 C1742 1.399 . S
C1742 H1728 0.929 . S
C1742 C1741 1.399 . S
C1742 C1743 1.385 . S
C1743 H1729 0.931 . S
C1743 C1742 1.385 . S
C1743 C1744 1.389 . S
C1744 C1743 1.389 . S
C1744 C1745 1.387 . S
C1745 H1730 0.930 . S
C1745 C1740 1.390 . S
C1745 C1744 1.387 . S
H1746 C1758 0.930 . S
H1747 C1760 0.930 . S
H1748 C1761 0.930 . S
H1749 C1765 0.959 . S
H1750 C1765 0.959 . S
H1751 C1765 0.961 . S
H1752 C1766 0.960 . S
H1753 C1766 0.961 . S
H1754 C1766 0.959 . S
H1755 C1769 0.929 . S
H1756 C1770 0.931 . S
H1757 C1772 0.930 . S
C1758 H1746 0.930 . S
C1758 C1759 1.399 1_545 S
C1758 C1763 1.399 . S
C1759 C1758 1.399 1_565 S
C1759 C1760 1.376 . S
C1760 H1747 0.930 . S
C1760 C1759 1.376 . S
C1760 C1761 1.388 . S
C1761 H1748 0.930 . S
C1761 C1760 1.388 . S
C1761 C1762 1.390 . S
C1762 C1761 1.390 . S
C1762 C1763 1.394 1_565 S
C1762 C1768 1.465 1_554 S
C1763 C1758 1.399 . S
C1763 C1762 1.394 1_545 S
C1763 C1764 1.516 . S
C1764 C1763 1.516 . S
C1764 C1765 1.502 . S
C1764 C1766 1.561 . S
C1764 C1767 1.526 1_554 S
C1765 H1749 0.959 . S
C1765 H1750 0.959 . S
C1765 H1751 0.961 . S
C1765 C1764 1.502 . S
C1766 H1752 0.960 . S
C1766 H1753 0.961 . S
C1766 H1754 0.959 . S
C1766 C1764 1.561 . S
C1767 C1764 1.526 1_556 S
C1767 C1768 1.396 1_545 S
C1767 C1772 1.390 . S
C1768 C1762 1.465 1_556 S
C1768 C1767 1.396 1_565 S
C1768 C1769 1.399 . S
C1769 H1755 0.929 . S
C1769 C1768 1.399 . S
C1769 C1770 1.385 . S
C1770 H1756 0.931 . S
C1770 C1769 1.385 . S
C1770 C1771 1.389 1_565 S
C1771 C1770 1.389 1_545 S
C1771 C1772 1.387 . S
C1772 H1757 0.930 . S
C1772 C1767 1.390 . S
C1772 C1771 1.387 . S
H1773 C1785 0.930 . S
H1774 C1787 0.930 . S
H1775 C1788 0.930 . S
H1776 C1792 0.959 . S
H1777 C1792 0.959 . S
H1778 C1792 0.961 . S
H1779 C1793 0.960 . S
H1780 C1793 0.961 . S
H1781 C1793 0.959 . S
H1782 C1796 0.929 . S
H1783 C1797 0.931 . S
H1784 C1799 0.930 . S
C1785 H1773 0.930 . S
C1785 C1786 1.399 1_655 S
C1785 C1790 1.399 . S
C1786 C1785 1.399 1_455 S
C1786 C1787 1.376 . S
C1787 H1774 0.930 . S
C1787 C1786 1.376 . S
C1787 C1788 1.388 . S
C1788 H1775 0.930 . S
C1788 C1787 1.388 . S
C1788 C1789 1.390 1_556 S
C1789 C1788 1.390 1_554 S
C1789 C1790 1.394 1_454 S
C1789 C1795 1.465 . S
C1790 C1785 1.399 . S
C1790 C1789 1.394 1_656 S
C1790 C1791 1.516 1_556 S
C1791 C1790 1.516 1_554 S
C1791 C1792 1.502 . S
C1791 C1793 1.561 . S
C1791 C1794 1.526 . S
C1792 H1776 0.959 . S
C1792 H1777 0.959 . S
C1792 H1778 0.961 . S
C1792 C1791 1.502 . S
C1793 H1779 0.960 . S
C1793 H1780 0.961 . S
C1793 H1781 0.959 . S
C1793 C1791 1.561 . S
C1794 C1791 1.526 . S
C1794 C1795 1.396 1_655 S
C1794 C1799 1.390 . S
C1795 C1789 1.465 . S
C1795 C1794 1.396 1_455 S
C1795 C1796 1.399 . S
C1796 H1782 0.929 . S
C1796 C1795 1.399 . S
C1796 C1797 1.385 . S
C1797 H1783 0.931 . S
C1797 C1796 1.385 . S
C1797 C1798 1.389 . S
C1798 C1797 1.389 . S
C1798 C1799 1.387 1_455 S
C1799 H1784 0.930 . S
C1799 C1794 1.390 . S
C1799 C1798 1.387 1_655 S
H1800 C1812 0.930 . S
H1801 C1814 0.930 . S
H1802 C1815 0.930 . S
H1803 C1819 0.959 . S
H1804 C1819 0.959 1_556 S
H1805 C1819 0.961 . S
H1806 C1820 0.960 . S
H1807 C1820 0.945 1_556 S
H1808 C1820 0.959 . S
H1809 C1823 0.929 1_554 S
H1810 C1824 0.931 . S
H1811 C1826 0.930 . S
C1812 H1800 0.930 . S
C1812 C1813 1.399 . S
C1812 C1817 1.399 . S
C1813 C1812 1.399 . S
C1813 C1814 1.376 . S
C1814 H1801 0.930 . S
C1814 C1813 1.376 . S
C1814 C1815 1.388 . S
C1815 H1802 0.930 . S
C1815 C1814 1.388 . S
C1815 C1816 1.390 . S
C1816 C1815 1.390 . S
C1816 C1817 1.394 . S
C1816 C1822 1.465 . S
C1817 C1812 1.399 . S
C1817 C1816 1.394 . S
C1817 C1818 1.516 . S
C1818 C1817 1.516 . S
C1818 C1819 1.502 . S
C1818 C1820 1.561 . S
C1818 C1821 1.526 1_554 S
C1819 H1803 0.959 . S
C1819 H1804 0.959 1_554 S
C1819 H1805 0.961 . S
C1819 C1818 1.502 . S
C1820 H1806 0.960 . S
C1820 H1807 0.945 1_554 S
C1820 H1808 0.959 . S
C1820 C1818 1.561 . S
C1821 C1818 1.526 1_556 S
C1821 C1822 1.396 1_556 S
C1821 C1826 1.390 . S
C1822 C1816 1.465 . S
C1822 C1821 1.396 1_554 S
C1822 C1823 1.399 1_554 S
C1823 H1809 0.929 1_556 S
C1823 C1822 1.399 1_556 S
C1823 C1824 1.385 . S
C1824 H1810 0.931 . S
C1824 C1823 1.385 . S
C1824 C1825 1.389 . S
C1825 C1824 1.389 . S
C1825 C1826 1.387 . S
C1826 H1811 0.930 . S
C1826 C1821 1.390 . S
C1826 C1825 1.387 . S
H1827 C1839 0.930 . S
H1828 C1841 0.930 . S
H1829 C1842 0.930 . S
H1830 C1846 0.959 . S
H1831 C1846 0.959 . S
H1832 C1846 0.961 . S
H1833 C1847 0.960 1_554 S
H1834 C1847 0.961 . S
H1835 C1847 0.959 . S
H1836 C1850 0.929 1_554 S
H1837 C1851 0.931 . S
H1838 C1853 0.910 1_565 S
C1839 H1827 0.930 . S
C1839 C1840 1.399 . S
C1839 C1844 1.399 . S
C1840 C1839 1.399 . S
C1840 C1841 1.376 1_565 S
C1841 H1828 0.930 . S
C1841 C1840 1.376 1_545 S
C1841 C1842 1.388 . S
C1842 H1829 0.930 . S
C1842 C1841 1.388 . S
C1842 C1843 1.390 . S
C1843 C1842 1.390 . S
C1843 C1844 1.394 1_545 S
C1843 C1849 1.465 1_554 S
C1844 C1839 1.399 . S
C1844 C1843 1.394 1_565 S
C1844 C1845 1.516 1_554 S
C1845 C1844 1.516 1_556 S
C1845 C1846 1.502 . S
C1845 C1847 1.561 . S
C1845 C1848 1.577 . S
C1846 H1830 0.959 . S
C1846 H1831 0.959 . S
C1846 H1832 0.961 . S
C1846 C1845 1.502 . S
C1847 H1833 0.960 1_556 S
C1847 H1834 0.961 . S
C1847 H1835 0.959 . S
C1847 C1845 1.561 . S
C1848 C1845 1.577 . S
C1848 C1849 1.353 1_565 S
C1848 C1853 1.376 1_565 S
C1849 C1843 1.465 1_556 S
C1849 C1848 1.353 1_545 S
C1849 C1850 1.399 . S
C1850 H1836 0.929 1_556 S
C1850 C1849 1.399 . S
C1850 C1851 1.385 . S
C1851 H1837 0.931 . S
C1851 C1850 1.385 . S
C1851 C1852 1.389 . S
C1852 C1851 1.389 . S
C1852 C1853 1.412 . S
C1853 H1838 0.910 1_545 S
C1853 C1848 1.376 1_545 S
C1853 C1852 1.412 . S
H1854 C1866 0.930 . S
H1855 C1868 0.930 . S
H1856 C1869 0.930 . S
H1857 C1873 0.959 . S
H1858 C1873 0.959 . S
H1859 C1873 0.961 . S
H1860 C1874 0.960 . S
H1861 C1874 0.961 . S
H1862 C1874 0.959 . S
H1863 C1877 0.929 . S
H1864 C1878 0.931 . S
H1865 C1880 0.930 . S
C1866 H1854 0.930 . S
C1866 C1867 1.399 . S
C1866 C1871 1.399 . S
C1867 C1866 1.399 . S
C1867 C1868 1.376 . S
C1868 H1855 0.930 . S
C1868 C1867 1.376 . S
C1868 C1869 1.388 . S
C1869 H1856 0.930 . S
C1869 C1868 1.388 . S
C1869 C1870 1.390 . S
C1870 C1869 1.390 . S
C1870 C1871 1.394 . S
C1870 C1876 1.465 . S
C1871 C1866 1.399 . S
C1871 C1870 1.394 . S
C1871 C1872 1.516 . S
C1872 C1871 1.516 . S
C1872 C1873 1.502 . S
C1872 C1874 1.561 . S
C1872 C1875 1.526 . S
C1873 H1857 0.959 . S
C1873 H1858 0.959 . S
C1873 H1859 0.961 . S
C1873 C1872 1.502 . S
C1874 H1860 0.960 . S
C1874 H1861 0.961 . S
C1874 H1862 0.959 . S
C1874 C1872 1.561 . S
C1875 C1872 1.526 . S
C1875 C1876 1.396 . S
C1875 C1880 1.390 . S
C1876 C1870 1.465 . S
C1876 C1875 1.396 . S
C1876 C1877 1.399 . S
C1877 H1863 0.929 . S
C1877 C1876 1.399 . S
C1877 C1878 1.385 . S
C1878 H1864 0.931 . S
C1878 C1877 1.385 . S
C1878 C1879 1.389 . S
C1879 C1878 1.389 . S
C1879 C1880 1.387 . S
C1880 H1865 0.930 . S
C1880 C1875 1.390 . S
C1880 C1879 1.387 . S
H1881 C1893 0.930 . S
H1882 C1895 0.930 . S
H1883 C1896 0.930 . S
H1884 C1900 0.959 . S
H1885 C1900 0.959 . S
H1886 C1900 0.961 . S
H1887 C1901 0.960 . S
H1888 C1901 0.961 . S
H1889 C1901 0.959 . S
H1890 C1904 0.929 . S
H1891 C1905 0.931 . S
H1892 C1907 0.930 . S
C1893 H1881 0.930 . S
C1893 C1894 1.399 . S
C1893 C1898 1.399 . S
C1894 C1893 1.399 . S
C1894 C1895 1.376 . S
C1895 H1882 0.930 . S
C1895 C1894 1.376 . S
C1895 C1896 1.388 . S
C1896 H1883 0.930 . S
C1896 C1895 1.388 . S
C1896 C1897 1.390 . S
C1897 C1896 1.390 . S
C1897 C1898 1.394 . S
C1897 C1903 1.465 . S
C1898 C1893 1.399 . S
C1898 C1897 1.394 . S
C1898 C1899 1.516 . S
C1899 C1898 1.516 . S
C1899 C1900 1.502 . S
C1899 C1901 1.561 . S
C1899 C1902 1.526 . S
C1900 H1884 0.959 . S
C1900 H1885 0.959 . S
C1900 H1886 0.961 . S
C1900 C1899 1.502 . S
C1901 H1887 0.960 . S
C1901 H1888 0.961 . S
C1901 H1889 0.959 . S
C1901 C1899 1.561 . S
C1902 C1899 1.526 . S
C1902 C1903 1.396 . S
C1902 C1907 1.390 . S
C1903 C1897 1.465 . S
C1903 C1902 1.396 . S
C1903 C1904 1.399 . S
C1904 H1890 0.929 . S
C1904 C1903 1.399 . S
C1904 C1905 1.385 . S
C1905 H1891 0.931 . S
C1905 C1904 1.385 . S
C1905 C1906 1.389 . S
C1906 C1905 1.389 . S
C1906 C1907 1.387 . S
C1907 H1892 0.930 . S
C1907 C1902 1.390 . S
C1907 C1906 1.387 . S
H1908 C1920 0.930 . S
H1909 C1922 0.930 . S
H1910 C1923 0.930 . S
H1911 C1927 0.959 . S
H1912 C1927 0.959 . S
H1913 C1927 0.961 . S
H1914 C1928 0.960 . S
H1915 C1928 0.961 . S
H1916 C1928 0.959 . S
H1917 C1931 0.929 . S
H1918 C1932 0.931 . S
H1919 C1934 0.930 . S
C1920 H1908 0.930 . S
C1920 C1921 1.399 . S
C1920 C1925 1.399 . S
C1921 C1920 1.399 . S
C1921 C1922 1.376 . S
C1922 H1909 0.930 . S
C1922 C1921 1.376 . S
C1922 C1923 1.388 . S
C1923 H1910 0.930 . S
C1923 C1922 1.388 . S
C1923 C1924 1.390 . S
C1924 C1923 1.390 . S
C1924 C1925 1.394 . S
C1924 C1930 1.465 . S
C1925 C1920 1.399 . S
C1925 C1924 1.394 . S
C1925 C1926 1.516 . S
C1926 C1925 1.516 . S
C1926 C1927 1.502 . S
C1926 C1928 1.561 . S
C1926 C1929 1.526 . S
C1927 H1911 0.959 . S
C1927 H1912 0.959 . S
C1927 H1913 0.961 . S
C1927 C1926 1.502 . S
C1928 H1914 0.960 . S
C1928 H1915 0.961 . S
C1928 H1916 0.959 . S
C1928 C1926 1.561 . S
C1929 C1926 1.526 . S
C1929 C1930 1.396 . S
C1929 C1934 1.390 . S
C1930 C1924 1.465 . S
C1930 C1929 1.396 . S
C1930 C1931 1.399 . S
C1931 H1917 0.929 . S
C1931 C1930 1.399 . S
C1931 C1932 1.385 . S
C1932 H1918 0.931 . S
C1932 C1931 1.385 . S
C1932 C1933 1.389 . S
C1933 C1932 1.389 . S
C1933 C1934 1.387 . S
C1934 H1919 0.930 . S
C1934 C1929 1.390 . S
C1934 C1933 1.387 . S
H1935 C1947 0.930 . S
H1936 C1949 0.930 . S
H1937 C1950 0.930 . S
H1938 C1954 0.959 . S
H1939 C1954 0.959 . S
H1940 C1954 0.961 . S
H1941 C1955 0.960 . S
H1942 C1955 0.961 . S
H1943 C1955 0.959 . S
H1944 C1958 0.929 . S
H1945 C1959 0.931 . S
H1946 C1961 0.930 . S
C1947 H1935 0.930 . S
C1947 C1948 1.399 . S
C1947 C1952 1.399 . S
C1948 C1947 1.399 . S
C1948 C1949 1.376 . S
C1949 H1936 0.930 . S
C1949 C1948 1.376 . S
C1949 C1950 1.388 . S
C1950 H1937 0.930 . S
C1950 C1949 1.388 . S
C1950 C1951 1.390 . S
C1951 C1950 1.390 . S
C1951 C1952 1.394 . S
C1951 C1957 1.465 . S
C1952 C1947 1.399 . S
C1952 C1951 1.394 . S
C1952 C1953 1.516 . S
C1953 C1952 1.516 . S
C1953 C1954 1.502 . S
C1953 C1955 1.561 . S
C1953 C1956 1.526 . S
C1954 H1938 0.959 . S
C1954 H1939 0.959 . S
C1954 H1940 0.961 . S
C1954 C1953 1.502 . S
C1955 H1941 0.960 . S
C1955 H1942 0.961 . S
C1955 H1943 0.959 . S
C1955 C1953 1.561 . S
C1956 C1953 1.526 . S
C1956 C1957 1.396 . S
C1956 C1961 1.390 . S
C1957 C1951 1.465 . S
C1957 C1956 1.396 . S
C1957 C1958 1.399 . S
C1958 H1944 0.929 . S
C1958 C1957 1.399 . S
C1958 C1959 1.385 . S
C1959 H1945 0.931 . S
C1959 C1958 1.385 . S
C1959 C1960 1.389 . S
C1960 C1959 1.389 . S
C1960 C1961 1.387 . S
C1961 H1946 0.930 . S
C1961 C1956 1.390 . S
C1961 C1960 1.387 . S
H1962 C1974 0.930 . S
H1963 C1976 0.930 . S
H1964 C1977 0.930 . S
H1965 C1981 0.959 . S
H1966 C1981 0.959 . S
H1967 C1981 0.961 . S
H1968 C1982 0.960 . S
H1969 C1982 0.961 . S
H1970 C1982 0.959 . S
H1971 C1985 0.929 . S
H1972 C1986 0.931 . S
H1973 C1988 0.930 . S
C1974 H1962 0.930 . S
C1974 C1975 1.399 . S
C1974 C1979 1.399 . S
C1975 C1974 1.399 . S
C1975 C1976 1.376 . S
C1976 H1963 0.930 . S
C1976 C1975 1.376 . S
C1976 C1977 1.388 . S
C1977 H1964 0.930 . S
C1977 C1976 1.388 . S
C1977 C1978 1.390 . S
C1978 C1977 1.390 . S
C1978 C1979 1.394 . S
C1978 C1984 1.465 . S
C1979 C1974 1.399 . S
C1979 C1978 1.394 . S
C1979 C1980 1.516 . S
C1980 C1979 1.516 . S
C1980 C1981 1.502 . S
C1980 C1982 1.561 . S
C1980 C1983 1.526 . S
C1981 H1965 0.959 . S
C1981 H1966 0.959 . S
C1981 H1967 0.961 . S
C1981 C1980 1.502 . S
C1982 H1968 0.960 . S
C1982 H1969 0.961 . S
C1982 H1970 0.959 . S
C1982 C1980 1.561 . S
C1983 C1980 1.526 . S
C1983 C1984 1.396 . S
C1983 C1988 1.390 . S
C1984 C1978 1.465 . S
C1984 C1983 1.396 . S
C1984 C1985 1.399 . S
C1985 H1971 0.929 . S
C1985 C1984 1.399 . S
C1985 C1986 1.385 . S
C1986 H1972 0.931 . S
C1986 C1985 1.385 . S
C1986 C1987 1.389 . S
C1987 C1986 1.389 . S
C1987 C1988 1.387 . S
C1988 H1973 0.930 . S
C1988 C1983 1.390 . S
C1988 C1987 1.387 . S
H1989 C2001 0.930 . S
H1990 C2003 0.930 . S
H1991 C2004 0.930 . S
H1992 C2008 0.959 . S
H1993 C2008 0.959 . S
H1994 C2008 0.961 . S
H1995 C2009 0.960 . S
H1996 C2009 0.961 . S
H1997 C2009 0.959 . S
H1998 C2012 0.929 . S
H1999 C2013 0.931 . S
H2000 C2015 0.930 . S
C2001 H1989 0.930 . S
C2001 C2002 1.399 . S
C2001 C2006 1.399 . S
C2002 C2001 1.399 . S
C2002 C2003 1.376 . S
C2003 H1990 0.930 . S
C2003 C2002 1.376 . S
C2003 C2004 1.388 . S
C2004 H1991 0.930 . S
C2004 C2003 1.388 . S
C2004 C2005 1.390 . S
C2005 C2004 1.390 . S
C2005 C2006 1.394 . S
C2005 C2011 1.465 . S
C2006 C2001 1.399 . S
C2006 C2005 1.394 . S
C2006 C2007 1.516 . S
C2007 C2006 1.516 . S
C2007 C2008 1.502 . S
C2007 C2009 1.561 . S
C2007 C2010 1.526 . S
C2008 H1992 0.959 . S
C2008 H1993 0.959 . S
C2008 H1994 0.961 . S
C2008 C2007 1.502 . S
C2009 H1995 0.960 . S
C2009 H1996 0.961 . S
C2009 H1997 0.959 . S
C2009 C2007 1.561 . S
C2010 C2007 1.526 . S
C2010 C2011 1.396 . S
C2010 C2015 1.390 . S
C2011 C2005 1.465 . S
C2011 C2010 1.396 . S
C2011 C2012 1.399 . S
C2012 H1998 0.929 . S
C2012 C2011 1.399 . S
C2012 C2013 1.385 . S
C2013 H1999 0.931 . S
C2013 C2012 1.385 . S
C2013 C2014 1.389 . S
C2014 C2013 1.389 . S
C2014 C2015 1.387 . S
C2015 H2000 0.930 . S
C2015 C2010 1.390 . S
C2015 C2014 1.387 . S
H2016 C2028 0.930 . S
H2017 C2030 0.930 . S
H2018 C2031 0.930 . S
H2019 C2035 0.959 . S
H2020 C2035 0.959 . S
H2021 C2035 0.961 . S
H2022 C2036 0.960 . S
H2023 C2036 0.961 . S
H2024 C2036 0.959 . S
H2025 C2039 0.929 . S
H2026 C2040 0.931 . S
H2027 C2042 0.930 . S
C2028 H2016 0.930 . S
C2028 C2029 1.399 . S
C2028 C2033 1.399 . S
C2029 C2028 1.399 . S
C2029 C2030 1.376 . S
C2030 H2017 0.930 . S
C2030 C2029 1.376 . S
C2030 C2031 1.388 . S
C2031 H2018 0.930 . S
C2031 C2030 1.388 . S
C2031 C2032 1.390 . S
C2032 C2031 1.390 . S
C2032 C2033 1.394 . S
C2032 C2038 1.465 . S
C2033 C2028 1.399 . S
C2033 C2032 1.394 . S
C2033 C2034 1.516 . S
C2034 C2033 1.516 . S
C2034 C2035 1.502 . S
C2034 C2036 1.561 . S
C2034 C2037 1.526 . S
C2035 H2019 0.959 . S
C2035 H2020 0.959 . S
C2035 H2021 0.961 . S
C2035 C2034 1.502 . S
C2036 H2022 0.960 . S
C2036 H2023 0.961 . S
C2036 H2024 0.959 . S
C2036 C2034 1.561 . S
C2037 C2034 1.526 . S
C2037 C2038 1.396 . S
C2037 C2042 1.390 . S
C2038 C2032 1.465 . S
C2038 C2037 1.396 . S
C2038 C2039 1.399 . S
C2039 H2025 0.929 . S
C2039 C2038 1.399 . S
C2039 C2040 1.385 . S
C2040 H2026 0.931 . S
C2040 C2039 1.385 . S
C2040 C2041 1.389 . S
C2041 C2040 1.389 . S
C2041 C2042 1.387 . S
C2042 H2027 0.930 . S
C2042 C2037 1.390 . S
C2042 C2041 1.387 . S
H2043 C2055 0.930 . S
H2044 C2057 0.930 . S
H2045 C2058 0.930 . S
H2046 C2062 0.959 . S
H2047 C2062 0.959 . S
H2048 C2062 0.961 . S
H2049 C2063 0.960 . S
H2050 C2063 0.961 . S
H2051 C2063 0.959 . S
H2052 C2066 0.929 . S
H2053 C2067 0.931 . S
H2054 C2069 0.930 . S
C2055 H2043 0.930 . S
C2055 C2056 1.399 . S
C2055 C2060 1.399 . S
C2056 C2055 1.399 . S
C2056 C2057 1.376 . S
C2057 H2044 0.930 . S
C2057 C2056 1.376 . S
C2057 C2058 1.388 . S
C2058 H2045 0.930 . S
C2058 C2057 1.388 . S
C2058 C2059 1.390 . S
C2059 C2058 1.390 . S
C2059 C2060 1.394 . S
C2059 C2065 1.465 . S
C2060 C2055 1.399 . S
C2060 C2059 1.394 . S
C2060 C2061 1.516 . S
C2061 C2060 1.516 . S
C2061 C2062 1.502 . S
C2061 C2063 1.561 . S
C2061 C2064 1.526 . S
C2062 H2046 0.959 . S
C2062 H2047 0.959 . S
C2062 H2048 0.961 . S
C2062 C2061 1.502 . S
C2063 H2049 0.960 . S
C2063 H2050 0.961 . S
C2063 H2051 0.959 . S
C2063 C2061 1.561 . S
C2064 C2061 1.526 . S
C2064 C2065 1.396 . S
C2064 C2069 1.390 . S
C2065 C2059 1.465 . S
C2065 C2064 1.396 . S
C2065 C2066 1.399 . S
C2066 H2052 0.929 . S
C2066 C2065 1.399 . S
C2066 C2067 1.385 . S
C2067 H2053 0.931 . S
C2067 C2066 1.385 . S
C2067 C2068 1.389 . S
C2068 C2067 1.389 . S
C2068 C2069 1.387 . S
C2069 H2054 0.930 . S
C2069 C2064 1.390 . S
C2069 C2068 1.387 . S
H2070 C2082 0.930 . S
H2071 C2084 0.930 . S
H2072 C2085 0.930 . S
H2073 C2089 0.959 . S
H2074 C2089 0.959 . S
H2075 C2089 0.961 . S
H2076 C2090 0.960 . S
H2077 C2090 0.961 . S
H2078 C2090 0.959 . S
H2079 C2093 0.929 . S
H2080 C2094 0.931 . S
H2081 C2096 0.930 . S
C2082 H2070 0.930 . S
C2082 C2083 1.399 . S
C2082 C2087 1.399 . S
C2083 C2082 1.399 . S
C2083 C2084 1.376 . S
C2084 H2071 0.930 . S
C2084 C2083 1.376 . S
C2084 C2085 1.388 . S
C2085 H2072 0.930 . S
C2085 C2084 1.388 . S
C2085 C2086 1.390 . S
C2086 C2085 1.390 . S
C2086 C2087 1.394 . S
C2086 C2092 1.465 . S
C2087 C2082 1.399 . S
C2087 C2086 1.394 . S
C2087 C2088 1.516 . S
C2088 C2087 1.516 . S
C2088 C2089 1.502 . S
C2088 C2090 1.561 . S
C2088 C2091 1.526 . S
C2089 H2073 0.959 . S
C2089 H2074 0.959 . S
C2089 H2075 0.961 . S
C2089 C2088 1.502 . S
C2090 H2076 0.960 . S
C2090 H2077 0.961 . S
C2090 H2078 0.959 . S
C2090 C2088 1.561 . S
C2091 C2088 1.526 . S
C2091 C2092 1.396 . S
C2091 C2096 1.390 . S
C2092 C2086 1.465 . S
C2092 C2091 1.396 . S
C2092 C2093 1.399 . S
C2093 H2079 0.929 . S
C2093 C2092 1.399 . S
C2093 C2094 1.385 . S
C2094 H2080 0.931 . S
C2094 C2093 1.385 . S
C2094 C2095 1.389 . S
C2095 C2094 1.389 . S
C2095 C2096 1.387 . S
C2096 H2081 0.930 . S
C2096 C2091 1.390 . S
C2096 C2095 1.387 . S
H2097 C2109 0.930 . S
H2098 C2111 0.930 . S
H2099 C2112 0.930 . S
H2100 C2116 0.959 . S
H2101 C2116 0.959 . S
H2102 C2116 0.961 . S
H2103 C2117 0.960 . S
H2104 C2117 0.961 . S
H2105 C2117 0.959 . S
H2106 C2120 0.929 . S
H2107 C2121 0.931 . S
H2108 C2123 0.930 . S
C2109 H2097 0.930 . S
C2109 C2110 1.399 . S
C2109 C2114 1.399 . S
C2110 C2109 1.399 . S
C2110 C2111 1.376 . S
C2111 H2098 0.930 . S
C2111 C2110 1.376 . S
C2111 C2112 1.388 . S
C2112 H2099 0.930 . S
C2112 C2111 1.388 . S
C2112 C2113 1.390 . S
C2113 C2112 1.390 . S
C2113 C2114 1.394 . S
C2113 C2119 1.465 . S
C2114 C2109 1.399 . S
C2114 C2113 1.394 . S
C2114 C2115 1.516 . S
C2115 C2114 1.516 . S
C2115 C2116 1.502 . S
C2115 C2117 1.561 . S
C2115 C2118 1.526 . S
C2116 H2100 0.959 . S
C2116 H2101 0.959 . S
C2116 H2102 0.961 . S
C2116 C2115 1.502 . S
C2117 H2103 0.960 . S
C2117 H2104 0.961 . S
C2117 H2105 0.959 . S
C2117 C2115 1.561 . S
C2118 C2115 1.526 . S
C2118 C2119 1.396 . S
C2118 C2123 1.390 . S
C2119 C2113 1.465 . S
C2119 C2118 1.396 . S
C2119 C2120 1.399 . S
C2120 H2106 0.929 . S
C2120 C2119 1.399 . S
C2120 C2121 1.385 . S
C2121 H2107 0.931 . S
C2121 C2120 1.385 . S
C2121 C2122 1.389 . S
C2122 C2121 1.389 . S
C2122 C2123 1.387 . S
C2123 H2108 0.930 . S
C2123 C2118 1.390 . S
C2123 C2122 1.387 . S
H2124 C2136 0.930 . S
H2125 C2138 0.930 . S
H2126 C2139 0.930 . S
H2127 C2143 0.959 . S
H2128 C2143 0.959 . S
H2129 C2143 0.961 . S
H2130 C2144 0.960 . S
H2131 C2144 0.961 . S
H2132 C2144 0.959 . S
H2133 C2147 0.929 . S
H2134 C2148 0.931 . S
H2135 C2150 0.930 . S
C2136 H2124 0.930 . S
C2136 C2137 1.399 . S
C2136 C2141 1.399 . S
C2137 C2136 1.399 . S
C2137 C2138 1.376 . S
C2138 H2125 0.930 . S
C2138 C2137 1.376 . S
C2138 C2139 1.388 . S
C2139 H2126 0.930 . S
C2139 C2138 1.388 . S
C2139 C2140 1.390 . S
C2140 C2139 1.390 . S
C2140 C2141 1.394 . S
C2140 C2146 1.465 . S
C2141 C2136 1.399 . S
C2141 C2140 1.394 . S
C2141 C2142 1.516 . S
C2142 C2141 1.516 . S
C2142 C2143 1.502 . S
C2142 C2144 1.561 . S
C2142 C2145 1.526 . S
C2143 H2127 0.959 . S
C2143 H2128 0.959 . S
C2143 H2129 0.961 . S
C2143 C2142 1.502 . S
C2144 H2130 0.960 . S
C2144 H2131 0.961 . S
C2144 H2132 0.959 . S
C2144 C2142 1.561 . S
C2145 C2142 1.526 . S
C2145 C2146 1.396 . S
C2145 C2150 1.390 . S
C2146 C2140 1.465 . S
C2146 C2145 1.396 . S
C2146 C2147 1.399 . S
C2147 H2133 0.929 . S
C2147 C2146 1.399 . S
C2147 C2148 1.385 . S
C2148 H2134 0.931 . S
C2148 C2147 1.385 . S
C2148 C2149 1.389 . S
C2149 C2148 1.389 . S
C2149 C2150 1.387 . S
C2150 H2135 0.930 . S
C2150 C2145 1.390 . S
C2150 C2149 1.387 . S
H2151 C2163 0.930 . S
H2152 C2165 0.930 . S
H2153 C2166 0.930 . S
H2154 C2170 0.959 . S
H2155 C2170 0.959 . S
H2156 C2170 0.961 . S
H2157 C2171 0.960 . S
H2158 C2171 0.961 . S
H2159 C2171 0.959 . S
H2160 C2174 0.929 . S
H2161 C2175 0.931 . S
H2162 C2177 0.930 . S
C2163 H2151 0.930 . S
C2163 C2164 1.399 . S
C2163 C2168 1.399 . S
C2164 C2163 1.399 . S
C2164 C2165 1.376 . S
C2165 H2152 0.930 . S
C2165 C2164 1.376 . S
C2165 C2166 1.388 . S
C2166 H2153 0.930 . S
C2166 C2165 1.388 . S
C2166 C2167 1.390 . S
C2167 C2166 1.390 . S
C2167 C2168 1.394 . S
C2167 C2173 1.465 . S
C2168 C2163 1.399 . S
C2168 C2167 1.394 . S
C2168 C2169 1.516 . S
C2169 C2168 1.516 . S
C2169 C2170 1.502 . S
C2169 C2171 1.561 . S
C2169 C2172 1.526 . S
C2170 H2154 0.959 . S
C2170 H2155 0.959 . S
C2170 H2156 0.961 . S
C2170 C2169 1.502 . S
C2171 H2157 0.960 . S
C2171 H2158 0.961 . S
C2171 H2159 0.959 . S
C2171 C2169 1.561 . S
C2172 C2169 1.526 . S
C2172 C2173 1.396 . S
C2172 C2177 1.390 . S
C2173 C2167 1.465 . S
C2173 C2172 1.396 . S
C2173 C2174 1.399 . S
C2174 H2160 0.929 . S
C2174 C2173 1.399 . S
C2174 C2175 1.385 . S
C2175 H2161 0.931 . S
C2175 C2174 1.385 . S
C2175 C2176 1.389 . S
C2176 C2175 1.389 . S
C2176 C2177 1.387 . S
C2177 H2162 0.930 . S
C2177 C2172 1.390 . S
C2177 C2176 1.387 . S
C733 C529 2.397 . S
C745 C9 2.414 . S
C760 C48 1.823 . S
C772 C568 1.823 . S
C787 C89 2.122 . S
C799 C488 2.142 . S
C814 C88 1.678 . S
C826 C288 1.679 . S
C841 C328 1.975 . S
C853 C8 1.970 . S
C868 C49 2.194 . S
C880 C248 2.225 . S
C895 C139 2.114 . S
C907 C418 2.148 . S
C922 C178 1.559 . S
C934 C458 1.563 . S
C949 C378 1.875 . S
C961 C219 1.807 . S
C976 C658 1.815 . S
C988 C218 1.834 . S
C1003 C138 2.158 . S
C1015 C699 2.105 . S
C1030 C619 2.426 . S
C1042 C179 2.384 . S
C1057 C329 1.998 . S
C1069 C528 2.051 . S
C1084 C249 2.298 . S
C1096 C569 2.300 . S
C1111 C289 2.545 . S
C1123 C489 2.553 . S
C1138 C379 2.679 . S
C1150 C659 2.650 . S
C1165 C698 2.163 . S
C1177 C419 2.130 . S
C1192 C618 2.445 . S
C1204 C459 2.393 . S
C1219 C18 1.375 . S
C1231 C168 1.394 . S
C1246 C209 1.798 . S
C1258 C59 1.805 . S
C1273 C129 1.605 . S
C1285 C98 1.441 . S
C1300 C169 1.783 . S
C1312 C99 1.828 . S
C1327 C208 1.619 . S
C1339 C19 1.666 . S
C1354 C128 1.422 . S
C1366 C58 1.472 . S
C1381 C409 1.840 . S
C1393 C259 1.838 . S
C1408 C449 1.948 . S
C1420 C299 1.948 . S
C1435 C369 1.950 . S
C1447 C339 1.896 . S
C1462 C408 1.440 . S
C1474 C338 1.427 . S
C1489 C448 1.449 . S
C1501 C258 1.515 . S
C1516 C368 1.336 . S
C1528 C298 1.354 . S
C1543 C648 1.555 . S
C1555 C498 1.523 . S
C1570 C689 1.815 . S
C1582 C539 1.771 . S
C1597 C578 1.612 . S
C1609 C609 1.682 . S
C1624 C579 1.973 . S
C1636 C649 1.982 . S
C1651 C499 1.776 . S
C1663 C688 1.647 . S
C1678 C608 1.433 . S
C1690 C538 1.435 . S
C1705 C5 1.219 . S
C1717 C15 1.264 . S
C1732 C55 1.374 . S
C1744 C45 1.316 . S
C1759 C85 1.348 . S
C1771 C95 1.287 . S
C1786 C135 1.285 . S
C1798 C125 1.314 . S
C1813 C175 1.243 . S
C1825 C165 1.299 . S
C1840 C205 1.388 . S
C1852 C215 1.462 . S
C1867 C245 1.457 . S
C1879 C255 1.463 . S
C1894 C295 1.263 . S
C1906 C285 1.210 . S
C1921 C325 1.573 . S
C1933 C335 1.497 . S
C1948 C375 1.208 . S
C1960 C365 1.181 . S
C1975 C415 1.421 . S
C1987 C405 1.481 . S
C2002 C455 1.277 . S
C2014 C445 1.314 . S
C2029 C495 1.196 . S
C2041 C485 1.218 . S
C2056 C535 1.304 . S
C2068 C525 1.348 . S
C2083 C565 1.259 . S
C2095 C575 1.322 . S
C2110 C605 1.342 . S
C2122 C615 1.288 . S
C2137 C655 1.249 . S
C2149 C645 1.212 . S
C2164 C695 1.345 . S
C2176 C685 1.366 . S
