# Generated by pormake.
# Topology upc, (4)-cn, num edge types: 1
# Building blocks:
#     Node 0, Type 0, BuildingBlock: GALJAG_clean_sbu_0, # of connection points: 4
#     Node 1, Type 0, BuildingBlock: GALJAG_clean_sbu_0, # of connection points: 4
#     Node 2, Type 0, BuildingBlock: GALJAG_clean_sbu_0, # of connection points: 4
#     Node 3, Type 0, BuildingBlock: GALJAG_clean_sbu_0, # of connection points: 4
#     Node 4, Type 0, BuildingBlock: GALJAG_clean_sbu_0, # of connection points: 4
#     Node 5, Type 0, BuildingBlock: GALJAG_clean_sbu_0, # of connection points: 4
#     Node 6, Type 0, BuildingBlock: GALJAG_clean_sbu_0, # of connection points: 4
#     Node 7, Type 0, BuildingBlock: GALJAG_clean_sbu_0, # of connection points: 4
#     Node 8, Type 0, BuildingBlock: GALJAG_clean_sbu_0, # of connection points: 4
#     Node 9, Type 0, BuildingBlock: GALJAG_clean_sbu_0, # of connection points: 4
#     Node 10, Type 0, BuildingBlock: GALJAG_clean_sbu_0, # of connection points: 4
#     Node 11, Type 0, BuildingBlock: GALJAG_clean_sbu_0, # of connection points: 4
#     Node 12, Type 0, BuildingBlock: GALJAG_clean_sbu_0, # of connection points: 4
#     Node 13, Type 0, BuildingBlock: GALJAG_clean_sbu_0, # of connection points: 4
#     Node 14, Type 0, BuildingBlock: GALJAG_clean_sbu_0, # of connection points: 4
#     Node 15, Type 0, BuildingBlock: GALJAG_clean_sbu_0, # of connection points: 4
#     Edge 16, Type (0, 0), BuildingBlock: MIFKUJ_clean_linker_0, # of connection points: 2
#     Edge 17, Type (0, 0), BuildingBlock: MIFKUJ_clean_linker_0, # of connection points: 2
#     Edge 18, Type (0, 0), BuildingBlock: MIFKUJ_clean_linker_0, # of connection points: 2
#     Edge 19, Type (0, 0), BuildingBlock: MIFKUJ_clean_linker_0, # of connection points: 2
#     Edge 20, Type (0, 0), BuildingBlock: MIFKUJ_clean_linker_0, # of connection points: 2
#     Edge 21, Type (0, 0), BuildingBlock: MIFKUJ_clean_linker_0, # of connection points: 2
#     Edge 22, Type (0, 0), BuildingBlock: MIFKUJ_clean_linker_0, # of connection points: 2
#     Edge 23, Type (0, 0), BuildingBlock: MIFKUJ_clean_linker_0, # of connection points: 2
#     Edge 24, Type (0, 0), BuildingBlock: MIFKUJ_clean_linker_0, # of connection points: 2
#     Edge 25, Type (0, 0), BuildingBlock: MIFKUJ_clean_linker_0, # of connection points: 2
#     Edge 26, Type (0, 0), BuildingBlock: MIFKUJ_clean_linker_0, # of connection points: 2
#     Edge 27, Type (0, 0), BuildingBlock: MIFKUJ_clean_linker_0, # of connection points: 2
#     Edge 28, Type (0, 0), BuildingBlock: MIFKUJ_clean_linker_0, # of connection points: 2
#     Edge 29, Type (0, 0), BuildingBlock: MIFKUJ_clean_linker_0, # of connection points: 2
#     Edge 30, Type (0, 0), BuildingBlock: MIFKUJ_clean_linker_0, # of connection points: 2
#     Edge 31, Type (0, 0), BuildingBlock: MIFKUJ_clean_linker_0, # of connection points: 2
#     Edge 32, Type (0, 0), BuildingBlock: MIFKUJ_clean_linker_0, # of connection points: 2
#     Edge 33, Type (0, 0), BuildingBlock: MIFKUJ_clean_linker_0, # of connection points: 2
#     Edge 34, Type (0, 0), BuildingBlock: MIFKUJ_clean_linker_0, # of connection points: 2
#     Edge 35, Type (0, 0), BuildingBlock: MIFKUJ_clean_linker_0, # of connection points: 2
#     Edge 36, Type (0, 0), BuildingBlock: MIFKUJ_clean_linker_0, # of connection points: 2
#     Edge 37, Type (0, 0), BuildingBlock: MIFKUJ_clean_linker_0, # of connection points: 2
#     Edge 38, Type (0, 0), BuildingBlock: MIFKUJ_clean_linker_0, # of connection points: 2
#     Edge 39, Type (0, 0), BuildingBlock: MIFKUJ_clean_linker_0, # of connection points: 2
#     Edge 40, Type (0, 0), BuildingBlock: MIFKUJ_clean_linker_0, # of connection points: 2
#     Edge 41, Type (0, 0), BuildingBlock: MIFKUJ_clean_linker_0, # of connection points: 2
#     Edge 42, Type (0, 0), BuildingBlock: MIFKUJ_clean_linker_0, # of connection points: 2
#     Edge 43, Type (0, 0), BuildingBlock: MIFKUJ_clean_linker_0, # of connection points: 2
#     Edge 44, Type (0, 0), BuildingBlock: MIFKUJ_clean_linker_0, # of connection points: 2
#     Edge 45, Type (0, 0), BuildingBlock: MIFKUJ_clean_linker_0, # of connection points: 2
#     Edge 46, Type (0, 0), BuildingBlock: MIFKUJ_clean_linker_0, # of connection points: 2
#     Edge 47, Type (0, 0), BuildingBlock: MIFKUJ_clean_linker_0, # of connection points: 2
# Relax obj value: 0.220
# Max RMSD: 0.228
# Mean RMSD: 0.228
data_MOF--net-upc--node1-GALJAG_clean_sbu_0--edge1-MIFKUJ_clean_linker_0
_symmetry_space_group_name_H-M    P1
_symmetry_Int_Tables_number       1
_symmetry_cell_setting            triclinic
loop_
_symmetry_equiv_pos_as_xyz
'x, y, z'
_cell_length_a     46.228609
_cell_length_b     46.244429
_cell_length_c     51.674035
_cell_angle_alpha  89.976681
_cell_angle_beta   89.996335
_cell_angle_gamma 89.953381
loop_
_atom_site_label
_atom_site_type_symbol
_atom_site_fract_x
_atom_site_fract_y
_atom_site_fract_z
_atom_type_partial_charge
In0 In 0.08671 0.6049 0.1453 0.0
O1 O 0.10649 0.56371 0.16292 0.0
O2 O 0.07647 0.58774 0.18532 0.0
C3 C 0.13573 0.63565 0.138 0.0
C4 C 0.06498 0.57749 0.10353 0.0
C5 C 0.04702 0.64367 0.16111 0.0
O6 O 0.12684 0.62825 0.16009 0.0
O7 O 0.12068 0.62632 0.11947 0.0
O8 O 0.04337 0.61675 0.1635 0.0
O9 O 0.07017 0.65084 0.14988 0.0
C10 C 0.09232 0.56566 0.18374 0.0
O11 O 0.05621 0.60196 0.11077 0.0
O12 O 0.08513 0.56705 0.11702 0.0
In13 In 0.88896 0.10005 0.12367 0.0
O14 O 0.89058 0.07994 0.08325 0.0
O15 O 0.92902 0.09875 0.09798 0.0
C16 C 0.8462 0.06264 0.13556 0.0
C17 C 0.92577 0.09344 0.16377 0.0
C18 C 0.86307 0.15256 0.12343 0.0
O19 O 0.87238 0.05504 0.13415 0.0
O20 O 0.84151 0.08854 0.12914 0.0
O21 O 0.87162 0.14039 0.14388 0.0
O22 O 0.86908 0.13902 0.10294 0.0
C23 C 0.91696 0.0855 0.07965 0.0
O24 O 0.92944 0.11315 0.14712 0.0
O25 O 0.90363 0.07813 0.16029 0.0
In26 In 0.39008 0.8906 0.13405 0.0
O27 O 0.37857 0.93321 0.15483 0.0
O28 O 0.42226 0.91863 0.15469 0.0
C29 C 0.33819 0.86661 0.12417 0.0
C30 C 0.41188 0.91077 0.08964 0.0
C31 C 0.41196 0.847 0.16235 0.0
O32 O 0.34228 0.88329 0.14318 0.0
O33 O 0.35981 0.8633 0.1096 0.0
O34 O 0.41862 0.85047 0.13885 0.0
O35 O 0.39453 0.86546 0.17127 0.0
C36 C 0.40451 0.93788 0.16145 0.0
O37 O 0.42374 0.89056 0.10225 0.0
O38 O 0.38822 0.91982 0.09884 0.0
In39 In 0.60434 0.4105 0.13459 0.0
O40 O 0.56022 0.39356 0.14892 0.0
O41 O 0.57262 0.43676 0.15769 0.0
C42 C 0.63367 0.36077 0.12637 0.0
C43 C 0.58668 0.43482 0.09011 0.0
C44 C 0.64354 0.43583 0.16566 0.0
O45 O 0.61652 0.36396 0.14515 0.0
O46 O 0.63482 0.38201 0.11113 0.0
O47 O 0.64282 0.44068 0.1416 0.0
O48 O 0.62463 0.41841 0.17375 0.0
C49 C 0.55369 0.41729 0.15963 0.0
O50 O 0.60434 0.44703 0.10521 0.0
O51 O 0.57876 0.40985 0.09703 0.0
In52 In 0.09407 0.88655 0.37328 0.0
O53 O 0.06582 0.88499 0.40915 0.0
O54 O 0.09589 0.91967 0.4057 0.0
C55 C 0.06998 0.84247 0.34721 0.0
C56 C 0.07975 0.9311 0.34205 0.0
C57 C 0.1453 0.86095 0.38309 0.0
O58 O 0.05778 0.85371 0.36663 0.0
O59 O 0.09402 0.85341 0.34119 0.0
O60 O 0.14198 0.87878 0.36476 0.0
O61 O 0.12329 0.85746 0.39719 0.0
C62 C 0.07583 0.90807 0.41865 0.0
O63 O 0.10543 0.92766 0.34994 0.0
O64 O 0.06219 0.91212 0.34965 0.0
In65 In 0.61348 0.09854 0.36164 0.0
O66 O 0.61382 0.0637 0.39291 0.0
O67 O 0.57876 0.09347 0.39251 0.0
C68 C 0.65983 0.07577 0.33739 0.0
C69 C 0.57201 0.09543 0.32479 0.0
C70 C 0.63673 0.14903 0.37735 0.0
O71 O 0.64236 0.06026 0.35009 0.0
O72 O 0.65416 0.10244 0.33755 0.0
O73 O 0.6229 0.14645 0.35641 0.0
O74 O 0.63777 0.1264 0.39098 0.0
C75 C 0.59026 0.07168 0.40299 0.0
O76 O 0.57122 0.11429 0.34241 0.0
O77 O 0.59338 0.07865 0.32592 0.0
In78 In 0.3896 0.58911 0.36127 0.0
O79 O 0.36391 0.55944 0.33369 0.0
O80 O 0.40256 0.54354 0.35052 0.0
C81 C 0.34286 0.624 0.3662 0.0
C82 C 0.41321 0.57374 0.40668 0.0
C83 C 0.42793 0.62108 0.33427 0.0
O84 O 0.35588 0.61994 0.34513 0.0
O85 O 0.35238 0.60919 0.38486 0.0
O86 O 0.41743 0.62924 0.35559 0.0
O87 O 0.41976 0.5964 0.32699 0.0
C88 C 0.38186 0.53893 0.33528 0.0
O89 O 0.42518 0.59123 0.39129 0.0
O90 O 0.38855 0.56489 0.39966 0.0
In91 In 0.9008 0.3941 0.36533 0.0
O92 O 0.94652 0.37829 0.35598 0.0
O93 O 0.91836 0.38755 0.32468 0.0
C94 C 0.86802 0.348 0.37872 0.0
C95 C 0.92893 0.42386 0.40241 0.0
C96 C 0.86367 0.43105 0.34238 0.0
O97 O 0.87963 0.35063 0.35678 0.0
O98 O 0.87412 0.36792 0.39444 0.0
O99 O 0.89 0.42937 0.33614 0.0
O100 O 0.8563 0.41483 0.3609 0.0
C101 C 0.94345 0.38041 0.3318 0.0
O102 O 0.91029 0.43538 0.38789 0.0
O103 O 0.93248 0.3971 0.39897 0.0
In104 In 0.8968 0.39086 0.86339 0.0
O105 O 0.92821 0.39431 0.89708 0.0
O106 O 0.89725 0.42787 0.89263 0.0
C107 C 0.93508 0.35072 0.84758 0.0
C108 C 0.89489 0.42798 0.82307 0.0
C109 C 0.84615 0.36323 0.87208 0.0
O110 O 0.9408 0.37741 0.84743 0.0
O111 O 0.9105 0.34438 0.85659 0.0
O112 O 0.85164 0.37598 0.85109 0.0
O113 O 0.86554 0.3657 0.88905 0.0
C114 C 0.91836 0.41798 0.9053 0.0
O115 O 0.88565 0.43493 0.84521 0.0
O116 O 0.90383 0.40234 0.82131 0.0
In117 In 0.09303 0.8921 0.85185 0.0
O118 O 0.0815 0.93778 0.8649 0.0
O119 O 0.07667 0.90347 0.89202 0.0
C120 C 0.13297 0.91962 0.82286 0.0
C121 C 0.04207 0.88046 0.82847 0.0
C122 C 0.12349 0.84404 0.86433 0.0
O123 O 0.13631 0.91542 0.8468 0.0
O124 O 0.10912 0.91104 0.81394 0.0
O125 O 0.10828 0.84581 0.84418 0.0
O126 O 0.12179 0.8657 0.87899 0.0
C127 C 0.07405 0.93016 0.8874 0.0
O128 O 0.04483 0.88003 0.85277 0.0
O129 O 0.06524 0.88501 0.8163 0.0
In130 In 0.59697 0.09829 0.86692 0.0
O131 O 0.55958 0.098 0.89513 0.0
O132 O 0.59778 0.075 0.9057 0.0
C133 C 0.57116 0.13521 0.8337 0.0
C134 C 0.59413 0.04585 0.84454 0.0
C135 C 0.64543 0.12881 0.8769 0.0
O136 O 0.56871 0.13769 0.85788 0.0
O137 O 0.58621 0.11403 0.82641 0.0
O138 O 0.64428 0.11022 0.85905 0.0
O139 O 0.62277 0.1308 0.8903 0.0
C140 C 0.57214 0.08203 0.91146 0.0
O141 O 0.61815 0.05793 0.84907 0.0
O142 O 0.57219 0.06024 0.85122 0.0
In143 In 0.40923 0.62158 0.85677 0.0
O144 O 0.45802 0.62862 0.85212 0.0
O145 O 0.43247 0.62701 0.81815 0.0
C146 C 0.37824 0.67104 0.86211 0.0
C147 C 0.42886 0.59485 0.89955 0.0
C148 C 0.37215 0.58373 0.835 0.0
O149 O 0.38911 0.66315 0.84091 0.0
O150 O 0.3843 0.65486 0.88096 0.0
O151 O 0.39855 0.58493 0.82893 0.0
O152 O 0.36468 0.60092 0.85275 0.0
C153 C 0.45745 0.62881 0.82775 0.0
O154 O 0.41413 0.58203 0.8825 0.0
O155 O 0.43304 0.62144 0.89538 0.0
In156 In 0.8937 0.10532 0.6416 0.0
O157 O 0.92657 0.10085 0.6092 0.0
O158 O 0.89415 0.06844 0.61241 0.0
C159 C 0.92031 0.14956 0.66544 0.0
C160 C 0.8963 0.06428 0.67877 0.0
C161 C 0.8467 0.13476 0.62533 0.0
O162 O 0.93357 0.13321 0.64986 0.0
O163 O 0.89402 0.14342 0.66891 0.0
O164 O 0.8462 0.11824 0.6448 0.0
O165 O 0.87036 0.13491 0.61317 0.0
C166 C 0.91646 0.07733 0.60079 0.0
O167 O 0.87402 0.06753 0.66488 0.0
O168 O 0.9165 0.0817 0.67394 0.0
In169 In 0.41333 0.88527 0.63931 0.0
O170 O 0.42141 0.92461 0.61389 0.0
O171 O 0.4431 0.88562 0.60399 0.0
C172 C 0.37096 0.92024 0.6566 0.0
C173 C 0.45554 0.87921 0.6751 0.0
C174 C 0.38355 0.83548 0.63275 0.0
O175 O 0.39657 0.92154 0.66498 0.0
O176 O 0.36714 0.9024 0.63845 0.0
O177 O 0.39533 0.84232 0.65385 0.0
O178 O 0.38866 0.85267 0.61438 0.0
C179 C 0.4388 0.91197 0.59888 0.0
O180 O 0.45988 0.87394 0.65145 0.0
O181 O 0.42997 0.88642 0.68051 0.0
In182 In 0.60644 0.4068 0.63888 0.0
O183 O 0.57178 0.40507 0.60802 0.0
O184 O 0.60815 0.43229 0.60116 0.0
C185 C 0.57282 0.36714 0.66244 0.0
C186 C 0.60624 0.45727 0.66526 0.0
C187 C 0.65663 0.37702 0.63481 0.0
O188 O 0.58228 0.36396 0.63973 0.0
O189 O 0.5796 0.39076 0.673 0.0
O190 O 0.6436 0.3809 0.65593 0.0
O191 O 0.64533 0.38973 0.6157 0.0
C192 C 0.58387 0.42323 0.59335 0.0
O193 O 0.62828 0.44112 0.66474 0.0
O194 O 0.58495 0.44794 0.65263 0.0
In195 In 0.10831 0.604 0.63312 0.0
O196 O 0.06398 0.61477 0.65128 0.0
O197 O 0.07795 0.57093 0.64967 0.0
C198 C 0.13316 0.65659 0.62839 0.0
C199 C 0.09308 0.58481 0.58614 0.0
C200 C 0.14944 0.57886 0.66243 0.0
O201 O 0.11789 0.64986 0.64771 0.0
O202 O 0.13442 0.63752 0.61104 0.0
O203 O 0.14884 0.5759 0.63814 0.0
O204 O 0.12941 0.59423 0.67162 0.0
C205 C 0.05843 0.58851 0.65617 0.0
O206 O 0.11286 0.57305 0.59938 0.0
O207 O 0.08171 0.60697 0.59627 0.0
H208 H 0.1598 0.65397 0.09253 0.0
H209 H 0.19326 0.69455 0.08655 0.0
H210 H 0.19667 0.70699 0.1692 0.0
H211 H 0.16354 0.66639 0.17536 0.0
H212 H 0.18279 0.75754 0.14036 0.0
H213 H 0.25312 0.67947 0.14041 0.0
H214 H 0.27393 0.6336 0.12471 0.0
H215 H 0.28318 0.66979 0.04862 0.0
H216 H 0.26206 0.71578 0.06381 0.0
H217 H 0.2983 0.85406 0.16121 0.0
H218 H 0.26133 0.81658 0.15938 0.0
H219 H 0.28195 0.80095 0.07907 0.0
H220 H 0.32005 0.83754 0.0813 0.0
H221 H 0.281 0.75269 0.10202 0.0
H222 H 0.21489 0.83115 0.10031 0.0
H223 H 0.19258 0.87734 0.11334 0.0
H224 H 0.17256 0.84194 0.18804 0.0
H225 H 0.19511 0.79564 0.17561 0.0
C226 C 0.16812 0.66503 0.10943 0.0
C227 C 0.15907 0.65704 0.13441 0.0
C228 C 0.18715 0.6882 0.10598 0.0
C229 C 0.19724 0.7038 0.12745 0.0
C230 C 0.18897 0.69527 0.15241 0.0
C231 C 0.17021 0.67196 0.15589 0.0
C232 C 0.2154 0.72983 0.12396 0.0
C233 C 0.2044 0.75657 0.13221 0.0
C234 C 0.24298 0.72857 0.11227 0.0
C235 C 0.25571 0.70094 0.10318 0.0
C236 C 0.25934 0.67756 0.12028 0.0
C237 C 0.27125 0.65156 0.11148 0.0
C238 C 0.27979 0.64875 0.08566 0.0
C239 C 0.27651 0.67198 0.0686 0.0
C240 C 0.2646 0.69802 0.0773 0.0
C241 C 0.29445 0.84314 0.14299 0.0
C242 C 0.31204 0.84865 0.12141 0.0
C243 C 0.27321 0.82172 0.14191 0.0
C244 C 0.26862 0.80595 0.11901 0.0
C245 C 0.28513 0.81268 0.09699 0.0
C246 C 0.30676 0.83371 0.09823 0.0
C247 C 0.2487 0.78071 0.11886 0.0
C248 C 0.25929 0.754 0.10991 0.0
C249 C 0.22047 0.78212 0.12945 0.0
C250 C 0.20691 0.80996 0.13707 0.0
C251 C 0.20593 0.83327 0.11959 0.0
C252 C 0.1932 0.85947 0.12686 0.0
C253 C 0.18121 0.86259 0.15152 0.0
C254 C 0.18187 0.8395 0.16895 0.0
C255 C 0.19459 0.81325 0.16179 0.0
H256 H 0.17136 0.88289 0.15711 0.0
H257 H 0.28901 0.62861 0.07889 0.0
H258 H 0.84351 0.18392 0.08213 0.0
H259 H 0.80498 0.22033 0.08225 0.0
H260 H 0.79868 0.2135 0.1653 0.0
H261 H 0.83733 0.17733 0.16537 0.0
H262 H 0.74565 0.2065 0.1394 0.0
H263 H 0.82605 0.2727 0.14066 0.0
H264 H 0.87202 0.29333 0.12506 0.0
H265 H 0.83293 0.31238 0.05162 0.0
H266 H 0.7868 0.29149 0.06668 0.0
H267 H 0.64848 0.32222 0.16402 0.0
H268 H 0.68749 0.28663 0.16261 0.0
H269 H 0.70341 0.30794 0.08251 0.0
H270 H 0.66522 0.34453 0.08426 0.0
H271 H 0.75186 0.30694 0.10622 0.0
H272 H 0.67196 0.24152 0.10325 0.0
H273 H 0.62577 0.21967 0.11689 0.0
H274 H 0.66288 0.19726 0.19038 0.0
H275 H 0.70921 0.21932 0.17732 0.0
C276 C 0.83434 0.19064 0.10046 0.0
C277 C 0.84344 0.1778 0.12374 0.0
C278 C 0.81231 0.21139 0.10049 0.0
C279 C 0.79895 0.2195 0.12379 0.0
C280 C 0.80869 0.20745 0.14713 0.0
C281 C 0.8309 0.18695 0.14714 0.0
C282 C 0.77367 0.23923 0.12366 0.0
C283 C 0.74701 0.22862 0.13247 0.0
C284 C 0.77534 0.26767 0.11377 0.0
C285 C 0.80305 0.28026 0.10471 0.0
C286 C 0.82732 0.28105 0.12111 0.0
C287 C 0.8534 0.29284 0.11238 0.0
C288 C 0.85542 0.30408 0.08734 0.0
C289 C 0.83134 0.30363 0.071 0.0
C290 C 0.80522 0.29184 0.07963 0.0
C291 C 0.65993 0.3189 0.14598 0.0
C292 C 0.65379 0.33607 0.12423 0.0
C293 C 0.68223 0.29848 0.14515 0.0
C294 C 0.69834 0.29434 0.12237 0.0
C295 C 0.69141 0.31076 0.10034 0.0
C296 C 0.66946 0.33153 0.1013 0.0
C297 C 0.72355 0.2743 0.12198 0.0
C298 C 0.75029 0.28482 0.11307 0.0
C299 C 0.72184 0.24559 0.13145 0.0
C300 C 0.69398 0.23233 0.13938 0.0
C301 C 0.67021 0.23214 0.1224 0.0
C302 C 0.64401 0.21968 0.13001 0.0
C303 C 0.64137 0.20715 0.15451 0.0
C304 C 0.66495 0.207 0.17143 0.0
C305 C 0.69119 0.21945 0.16392 0.0
H306 H 0.62107 0.19751 0.16037 0.0
H307 H 0.87563 0.31321 0.08063 0.0
H308 H 0.15918 0.82477 0.4229 0.0
H309 H 0.19541 0.78616 0.42245 0.0
H310 H 0.22426 0.81418 0.34715 0.0
H311 H 0.18822 0.85301 0.34754 0.0
H312 H 0.2078 0.75605 0.34924 0.0
H313 H 0.26811 0.82187 0.3968 0.0
H314 H 0.28013 0.85538 0.43229 0.0
H315 H 0.26769 0.78735 0.48775 0.0
H316 H 0.25518 0.7535 0.4526 0.0
H317 H 0.32558 0.66265 0.32992 0.0
H318 H 0.29313 0.70363 0.33528 0.0
H319 H 0.27731 0.67835 0.41444 0.0
H320 H 0.31085 0.63755 0.4093 0.0
H321 H 0.2861 0.73456 0.41201 0.0
H322 H 0.22563 0.66873 0.36613 0.0
H323 H 0.2121 0.63441 0.33169 0.0
H324 H 0.22224 0.70113 0.2746 0.0
H325 H 0.23621 0.73578 0.30867 0.0
C326 C 0.17375 0.82317 0.40654 0.0
C327 C 0.17082 0.84183 0.38521 0.0
C328 C 0.19444 0.80111 0.40633 0.0
C329 C 0.21241 0.79726 0.38472 0.0
C330 C 0.21053 0.81679 0.36398 0.0
C331 C 0.19007 0.83906 0.36431 0.0
C332 C 0.23105 0.77127 0.38265 0.0
C333 C 0.22524 0.75154 0.36271 0.0
C334 C 0.25293 0.76489 0.4009 0.0
C335 C 0.2604 0.78522 0.42207 0.0
C336 C 0.26765 0.81411 0.41658 0.0
C337 C 0.27462 0.83316 0.43663 0.0
C338 C 0.27459 0.82353 0.46226 0.0
C339 C 0.26766 0.7948 0.46789 0.0
C340 C 0.26065 0.77567 0.4479 0.0
C341 C 0.31493 0.66555 0.34836 0.0
C342 C 0.32062 0.64676 0.36911 0.0
C343 C 0.29629 0.689 0.35141 0.0
C344 C 0.2824 0.69392 0.37517 0.0
C345 C 0.28773 0.67496 0.39591 0.0
C346 C 0.30671 0.65156 0.39291 0.0
C347 C 0.26312 0.71941 0.37835 0.0
C348 C 0.26866 0.739 0.39854 0.0
C349 C 0.24068 0.72555 0.3605 0.0
C350 C 0.23219 0.70479 0.33994 0.0
C351 C 0.22517 0.67604 0.34621 0.0
C352 C 0.21739 0.65653 0.32676 0.0
C353 C 0.21637 0.66557 0.30097 0.0
C354 C 0.22306 0.69416 0.29459 0.0
C355 C 0.23088 0.71375 0.31396 0.0
H356 H 0.21034 0.65044 0.28594 0.0
H357 H 0.28001 0.8383 0.47776 0.0
H358 H 0.842 0.33563 0.42508 0.0
H359 H 0.80013 0.30385 0.43218 0.0
H360 H 0.80105 0.28024 0.35149 0.0
H361 H 0.84302 0.31128 0.34434 0.0
H362 H 0.74588 0.30413 0.37384 0.0
H363 H 0.82316 0.23311 0.39004 0.0
H364 H 0.86535 0.21497 0.41435 0.0
H365 H 0.81587 0.21632 0.4847 0.0
H366 H 0.77352 0.2349 0.46082 0.0
H367 H 0.65591 0.18921 0.34333 0.0
H368 H 0.69205 0.22632 0.35085 0.0
H369 H 0.69338 0.20479 0.43221 0.0
H370 H 0.65846 0.16593 0.42421 0.0
H371 H 0.7444 0.2094 0.4188 0.0
H372 H 0.66624 0.27289 0.4063 0.0
H373 H 0.62233 0.29383 0.38674 0.0
H374 H 0.66929 0.31223 0.31697 0.0
H375 H 0.7134 0.29102 0.33594 0.0
C376 C 0.8336 0.3232 0.409 0.0
C377 C 0.84575 0.32593 0.38415 0.0
C378 C 0.80969 0.30517 0.41308 0.0
C379 C 0.7975 0.28996 0.3923 0.0
C380 C 0.81016 0.29195 0.36771 0.0
C381 C 0.83423 0.30955 0.36371 0.0
C382 C 0.77061 0.27307 0.39551 0.0
C383 C 0.7454 0.28333 0.38355 0.0
C384 C 0.76979 0.24688 0.40951 0.0
C385 C 0.79532 0.23576 0.42372 0.0
C386 C 0.82139 0.22985 0.41073 0.0
C387 C 0.84531 0.21942 0.42442 0.0
C388 C 0.84334 0.2146 0.45107 0.0
C389 C 0.81741 0.22013 0.46407 0.0
C390 C 0.79345 0.2306 0.45047 0.0
C391 C 0.66342 0.19279 0.36293 0.0
C392 C 0.65435 0.17477 0.38321 0.0
C393 C 0.68402 0.21423 0.3673 0.0
C394 C 0.69526 0.21891 0.39224 0.0
C395 C 0.68514 0.20171 0.41279 0.0
C396 C 0.66506 0.17963 0.40826 0.0
C397 C 0.71948 0.23973 0.39606 0.0
C398 C 0.7443 0.2304 0.40946 0.0
C399 C 0.71963 0.26734 0.38412 0.0
C400 C 0.69314 0.28021 0.37255 0.0
C401 C 0.66718 0.28123 0.38673 0.0
C402 C 0.64225 0.29318 0.37575 0.0
C403 C 0.64301 0.30432 0.35062 0.0
C404 C 0.66873 0.30359 0.33644 0.0
C405 C 0.69373 0.29166 0.34732 0.0
H406 H 0.62368 0.31356 0.34216 0.0
H407 H 0.86187 0.2065 0.46163 0.0
H408 H 0.83405 0.3287 0.91341 0.0
H409 H 0.79902 0.28919 0.9151 0.0
H410 H 0.76829 0.31208 0.83899 0.0
H411 H 0.80331 0.35175 0.83714 0.0
H412 H 0.7239 0.29525 0.87184 0.0
H413 H 0.81601 0.26082 0.84321 0.0
H414 H 0.86892 0.25448 0.84548 0.0
H415 H 0.86008 0.20885 0.91743 0.0
H416 H 0.80712 0.21538 0.91582 0.0
H417 H 0.69337 0.13426 0.84621 0.0
H418 H 0.72815 0.17425 0.84641 0.0
H419 H 0.68607 0.21052 0.91346 0.0
H420 H 0.65125 0.17085 0.91333 0.0
H421 H 0.76714 0.19747 0.88148 0.0
H422 H 0.67895 0.28351 0.90265 0.0
H423 H 0.62631 0.28961 0.89695 0.0
H424 H 0.62775 0.23102 0.83256 0.0
H425 H 0.68048 0.22509 0.83744 0.0
C426 C 0.81943 0.32573 0.89725 0.0
C427 C 0.82156 0.34316 0.87505 0.0
C428 C 0.79953 0.30307 0.8982 0.0
C429 C 0.78145 0.29747 0.87699 0.0
C430 C 0.78216 0.31602 0.85551 0.0
C431 C 0.80216 0.33865 0.85449 0.0
C432 C 0.76337 0.27107 0.8765 0.0
C433 C 0.73331 0.27389 0.87403 0.0
C434 C 0.77581 0.24316 0.87865 0.0
C435 C 0.80761 0.23883 0.87951 0.0
C436 C 0.82536 0.24962 0.85961 0.0
C437 C 0.85536 0.24598 0.86077 0.0
C438 C 0.86785 0.23133 0.88162 0.0
C439 C 0.85037 0.22023 0.90131 0.0
C440 C 0.82036 0.22388 0.90028 0.0
C441 C 0.69193 0.15044 0.86131 0.0
C442 C 0.66946 0.14959 0.87962 0.0
C443 C 0.71179 0.17325 0.86139 0.0
C444 C 0.70932 0.19555 0.87968 0.0
C445 C 0.68804 0.19373 0.89896 0.0
C446 C 0.66824 0.17098 0.8989 0.0
C447 C 0.7276 0.22172 0.87763 0.0
C448 C 0.75771 0.21884 0.87945 0.0
C449 C 0.71525 0.24952 0.87429 0.0
C450 C 0.68365 0.25364 0.87062 0.0
C451 C 0.66807 0.27209 0.88716 0.0
C452 C 0.63821 0.27552 0.88405 0.0
C453 C 0.6237 0.26067 0.86442 0.0
C454 C 0.63903 0.24248 0.84775 0.0
C455 C 0.6689 0.23908 0.85069 0.0
H456 H 0.60057 0.26327 0.86211 0.0
H457 H 0.89108 0.22853 0.88248 0.0
H458 H 0.34899 0.6964 0.82247 0.0
H459 H 0.30676 0.72769 0.82555 0.0
H460 H 0.31585 0.72993 0.90871 0.0
H461 H 0.35735 0.69719 0.9057 0.0
H462 H 0.26397 0.71931 0.89922 0.0
H463 H 0.32714 0.79121 0.86658 0.0
H464 H 0.36264 0.81573 0.83856 0.0
H465 H 0.30454 0.80899 0.77403 0.0
H466 H 0.26889 0.78395 0.80151 0.0
H467 H 0.15648 0.83385 0.90723 0.0
H468 H 0.19999 0.80364 0.90966 0.0
H469 H 0.18533 0.77458 0.83148 0.0
H470 H 0.14165 0.80431 0.82902 0.0
H471 H 0.24027 0.80119 0.84103 0.0
H472 H 0.17777 0.72781 0.87713 0.0
H473 H 0.14227 0.70876 0.90839 0.0
H474 H 0.20126 0.72533 0.97082 0.0
H475 H 0.23698 0.74487 0.93995 0.0
C476 C 0.34238 0.70407 0.84138 0.0
C477 C 0.35643 0.69433 0.86386 0.0
C478 C 0.31824 0.72214 0.84313 0.0
C479 C 0.30807 0.73149 0.86737 0.0
C480 C 0.32311 0.72296 0.88977 0.0
C481 C 0.34694 0.70439 0.88805 0.0
C482 C 0.2803 0.74771 0.8694 0.0
C483 C 0.25916 0.73763 0.88682 0.0
C484 C 0.27355 0.77137 0.853 0.0
C485 C 0.29545 0.78535 0.83609 0.0
C486 C 0.32208 0.79457 0.84633 0.0
C487 C 0.3422 0.80866 0.83055 0.0
C488 C 0.33589 0.81383 0.80452 0.0
C489 C 0.30945 0.80488 0.79418 0.0
C490 C 0.28929 0.79072 0.80985 0.0
C491 C 0.1621 0.82038 0.89084 0.0
C492 C 0.14573 0.82147 0.86792 0.0
C493 C 0.18695 0.8032 0.89224 0.0
C494 C 0.19587 0.78706 0.87069 0.0
C495 C 0.17875 0.78695 0.84829 0.0
C496 C 0.15372 0.8038 0.84698 0.0
C497 C 0.22441 0.77259 0.87054 0.0
C498 C 0.24553 0.78306 0.8535 0.0
C499 C 0.23138 0.74989 0.88771 0.0
C500 C 0.20992 0.73809 0.90625 0.0
C501 C 0.18307 0.72765 0.89755 0.0
C502 C 0.16293 0.7167 0.91519 0.0
C503 C 0.16947 0.71591 0.94159 0.0
C504 C 0.1962 0.726 0.95038 0.0
C505 C 0.21641 0.73698 0.93281 0.0
H506 H 0.15385 0.70743 0.95521 0.0
H507 H 0.35146 0.82483 0.79236 0.0
H508 H 0.67395 0.33772 0.67052 0.0
H509 H 0.708 0.29822 0.6648 0.0
H510 H 0.72759 0.32863 0.58776 0.0
H511 H 0.69203 0.36764 0.593 0.0
H512 H 0.7218 0.27399 0.58555 0.0
H513 H 0.7773 0.33395 0.64036 0.0
H514 H 0.78885 0.36539 0.67746 0.0
H515 H 0.77282 0.29507 0.72979 0.0
H516 H 0.7608 0.26328 0.69303 0.0
H517 H 0.84357 0.17353 0.58547 0.0
H518 H 0.81165 0.21574 0.58268 0.0
H519 H 0.76718 0.18787 0.65166 0.0
H520 H 0.79882 0.14563 0.65453 0.0
H521 H 0.79062 0.24428 0.65422 0.0
H522 H 0.733 0.18578 0.5951 0.0
H523 H 0.7262 0.15638 0.55575 0.0
H524 H 0.7535 0.22784 0.50864 0.0
H525 H 0.76075 0.25757 0.54775 0.0
C526 C 0.68584 0.33635 0.6525 0.0
C527 C 0.68046 0.3559 0.63226 0.0
C528 C 0.70548 0.31375 0.64927 0.0
C529 C 0.72087 0.3106 0.62599 0.0
C530 C 0.71607 0.33059 0.60592 0.0
C531 C 0.69591 0.35298 0.60899 0.0
C532 C 0.7406 0.28544 0.62239 0.0
C533 C 0.73724 0.26786 0.60038 0.0
C534 C 0.76082 0.27722 0.64166 0.0
C535 C 0.76795 0.29628 0.66391 0.0
C536 C 0.77603 0.32524 0.65978 0.0
C537 C 0.7827 0.34312 0.68076 0.0
C538 C 0.78152 0.33225 0.70597 0.0
C539 C 0.77372 0.30346 0.71025 0.0
C540 C 0.76702 0.28549 0.68935 0.0
C541 C 0.82648 0.17599 0.59964 0.0
C542 C 0.82378 0.15636 0.6203 0.0
C543 C 0.8083 0.20013 0.59802 0.0
C544 C 0.78722 0.20498 0.61707 0.0
C545 C 0.78342 0.18453 0.63684 0.0
C546 C 0.80141 0.16032 0.63836 0.0
C547 C 0.77099 0.2326 0.61796 0.0
C548 C 0.77528 0.25068 0.6394 0.0
C549 C 0.75234 0.24162 0.59785 0.0
C550 C 0.74767 0.2238 0.57436 0.0
C551 C 0.73775 0.19515 0.57636 0.0
C552 C 0.73376 0.17845 0.5541 0.0
C553 C 0.73948 0.19021 0.52971 0.0
C554 C 0.7491 0.21875 0.52754 0.0
C555 C 0.7531 0.23554 0.54974 0.0
H556 H 0.7364 0.17724 0.5125 0.0
H557 H 0.78669 0.34613 0.72218 0.0
H558 H 0.15767 0.68211 0.58633 0.0
H559 H 0.19824 0.71598 0.58637 0.0
H560 H 0.19462 0.72025 0.66974 0.0
H561 H 0.15318 0.68736 0.66966 0.0
H562 H 0.2123 0.77045 0.65134 0.0
H563 H 0.23718 0.67166 0.63806 0.0
H564 H 0.23524 0.6238 0.61716 0.0
H565 H 0.26704 0.66062 0.54638 0.0
H566 H 0.26846 0.70888 0.56669 0.0
H567 H 0.35968 0.80508 0.67253 0.0
H568 H 0.31569 0.77579 0.67114 0.0
H569 H 0.31158 0.78652 0.58832 0.0
H570 H 0.35548 0.81617 0.58956 0.0
H571 H 0.29815 0.72932 0.60678 0.0
H572 H 0.27264 0.82941 0.62286 0.0
H573 H 0.27604 0.87549 0.64666 0.0
H574 H 0.24815 0.83322 0.71631 0.0
H575 H 0.24496 0.78675 0.69298 0.0
C576 C 0.16498 0.69099 0.60459 0.0
C577 C 0.15251 0.68194 0.628 0.0
C578 C 0.18828 0.71018 0.60462 0.0
C579 C 0.20006 0.71994 0.62811 0.0
C580 C 0.18606 0.71284 0.65139 0.0
C581 C 0.16234 0.69406 0.65133 0.0
C582 C 0.22849 0.73494 0.62854 0.0
C583 C 0.23108 0.76133 0.64176 0.0
C584 C 0.25313 0.72303 0.61607 0.0
C585 C 0.25266 0.69395 0.60385 0.0
C586 C 0.24357 0.66959 0.61799 0.0
C587 C 0.24252 0.6424 0.60624 0.0
C588 C 0.25098 0.63917 0.58045 0.0
C589 C 0.26047 0.66316 0.56635 0.0
C590 C 0.26135 0.69045 0.57797 0.0
C591 C 0.34981 0.80067 0.65394 0.0
C592 C 0.36095 0.813 0.63114 0.0
C593 C 0.32457 0.78412 0.65322 0.0
C594 C 0.3102 0.77945 0.62969 0.0
C595 C 0.32233 0.79006 0.60668 0.0
C596 C 0.34742 0.80689 0.60741 0.0
C597 C 0.28174 0.76484 0.62926 0.0
C598 C 0.27924 0.73845 0.61618 0.0
C599 C 0.25741 0.77647 0.64227 0.0
C600 C 0.25882 0.80453 0.65621 0.0
C601 C 0.26743 0.82988 0.64329 0.0
C602 C 0.26929 0.85609 0.65669 0.0
C603 C 0.2624 0.85727 0.683 0.0
C604 C 0.25351 0.83226 0.69593 0.0
C605 C 0.25164 0.80599 0.68262 0.0
H606 H 0.26388 0.87757 0.69336 0.0
H607 H 0.25024 0.61808 0.5714 0.0
H608 H 0.00073 0.37202 0.3431 0.0
H609 H 0.04138 0.39041 0.31762 0.0
H610 H 0.98276 0.41238 0.25565 0.0
H611 H 0.94249 0.39312 0.28046 0.0
H612 H 0.03395 0.40341 0.2361 0.0
H613 H 0.9939 0.45841 0.30784 0.0
H614 H 0.98117 0.46532 0.35381 0.0
H615 H 0.07051 0.45615 0.37507 0.0
H616 H 0.08367 0.44867 0.32921 0.0
H617 H 0.05873 0.56413 0.22668 0.0
H618 H 0.04811 0.52245 0.2536 0.0
H619 H 0.11193 0.47234 0.21218 0.0
H620 H 0.12188 0.51411 0.18427 0.0
H621 H 0.07124 0.48738 0.28567 0.0
H622 H 0.08611 0.40379 0.20482 0.0
H623 H 0.08873 0.40137 0.15712 0.0
H624 H 0.03472 0.4767 0.15127 0.0
H625 H 0.03152 0.47931 0.19888 0.0
C626 C 0.99674 0.37961 0.32359 0.0
C627 C 0.96837 0.38183 0.314 0.0
C628 C 0.01998 0.39023 0.30909 0.0
C629 C 0.01497 0.40366 0.28511 0.0
C630 C 0.98718 0.40238 0.27421 0.0
C631 C 0.96407 0.39143 0.28849 0.0
C632 C 0.03656 0.42361 0.27357 0.0
C633 C 0.04269 0.42142 0.24704 0.0
C634 C 0.04745 0.44751 0.28771 0.0
C635 C 0.03972 0.45263 0.31519 0.0
C636 C 0.0108 0.45776 0.32235 0.0
C637 C 0.0035 0.46174 0.34837 0.0
C638 C 0.025 0.46109 0.36736 0.0
C639 C 0.05386 0.45656 0.36034 0.0
C640 C 0.06126 0.45242 0.33435 0.0
C641 C 0.07097 0.54445 0.22358 0.0
C642 C 0.09082 0.54224 0.20311 0.0
C643 C 0.06496 0.52058 0.23911 0.0
C644 C 0.07881 0.49402 0.23466 0.0
C645 C 0.10054 0.49245 0.21566 0.0
C646 C 0.10632 0.51634 0.19981 0.0
C647 C 0.06777 0.46775 0.24797 0.0
C648 C 0.06365 0.46874 0.27488 0.0
C649 C 0.05745 0.44351 0.23395 0.0
C650 C 0.05895 0.44195 0.20534 0.0
C651 C 0.07478 0.41978 0.19331 0.0
C652 C 0.07635 0.41838 0.16632 0.0
C653 C 0.06201 0.43894 0.15118 0.0
C654 C 0.04591 0.46085 0.16301 0.0
C655 C 0.04422 0.4623 0.18999 0.0
H656 H 0.06329 0.43785 0.13029 0.0
H657 H 0.01931 0.46416 0.3875 0.0
H658 H 0.91842 0.05439 0.20204 0.0
H659 H 0.95262 0.04011 0.23527 0.0
H660 H 0.01424 0.10242 0.20664 0.0
H661 H 0.97955 0.1171 0.17284 0.0
H662 H 0.03765 0.04668 0.21461 0.0
H663 H 0.98488 0.11566 0.26383 0.0
H664 H 0.94075 0.14051 0.27881 0.0
H665 H 0.91019 0.0616 0.31298 0.0
H666 H 0.9539 0.03614 0.29787 0.0
H667 H 0.11221 0.97545 0.3212 0.0
H668 H 0.09445 0.01557 0.2941 0.0
H669 H 0.00783 0.98133 0.29925 0.0
H670 H 0.02514 0.94187 0.32606 0.0
H671 H 0.00809 0.03902 0.30665 0.0
H672 H 0.05068 0.969 0.24655 0.0
H673 H 0.0912 0.94069 0.22852 0.0
H674 H 0.13814 0.01901 0.21347 0.0
H675 H 0.09797 0.04775 0.2317 0.0
C676 C 0.93904 0.06546 0.20296 0.0
C677 C 0.94622 0.08704 0.18495 0.0
C678 C 0.95859 0.05729 0.22204 0.0
C679 C 0.98582 0.07048 0.22366 0.0
C680 C 0.9932 0.09217 0.20581 0.0
C681 C 0.97339 0.10058 0.18664 0.0
C682 C 0.00659 0.05991 0.24335 0.0
C683 C 0.03178 0.0458 0.23492 0.0
C684 C 0.9987 0.05856 0.26977 0.0
C685 C 0.97277 0.074 0.27974 0.0
C686 C 0.96874 0.10359 0.27452 0.0
C687 C 0.94377 0.11777 0.28301 0.0
C688 C 0.92269 0.10265 0.29686 0.0
C689 C 0.92659 0.07331 0.30232 0.0
C690 C 0.9515 0.059 0.29385 0.0
C691 C 0.08941 0.97664 0.31653 0.0
C692 C 0.07009 0.9555 0.3257 0.0
C693 C 0.0793 -0.00048 0.3011 0.0
C694 C 0.04979 0.00147 0.29474 0.0
C695 C 0.03063 0.98045 0.3041 0.0
C696 C 0.04063 0.95775 0.31932 0.0
C697 C 0.03821 0.02449 0.27762 0.0
C698 C 0.01474 0.04096 0.28659 0.0
C699 C 0.04747 0.02772 0.25167 0.0
C700 C 0.07157 0.01046 0.24081 0.0
C701 C 0.06976 0.98014 0.2396 0.0
C702 C 0.09263 0.96403 0.22931 0.0
C703 C 0.11728 0.97804 0.21995 0.0
C704 C 0.11907 0.00819 0.22079 0.0
C705 C 0.09627 0.0244 0.2311 0.0
H706 H 0.13496 0.96553 0.21197 0.0
H707 H 0.90333 0.11364 0.30333 0.0
H708 H 0.51726 0.11867 0.32385 0.0
H709 H 0.4786 0.10751 0.29266 0.0
H710 H 0.53762 0.05296 0.25014 0.0
H711 H 0.57589 0.06397 0.28086 0.0
H712 H 0.50288 0.08415 0.21774 0.0
H713 H 0.49341 0.02498 0.29678 0.0
H714 H 0.48531 0.01931 0.34372 0.0
H715 H 0.40445 0.06454 0.33728 0.0
H716 H 0.41227 0.0707 0.29031 0.0
H717 H 0.45976 0.95373 0.17053 0.0
H718 H 0.47721 0.99539 0.19434 0.0
H719 H 0.38942 0.02303 0.20824 0.0
H720 H 0.37149 0.98067 0.18409 0.0
H721 H 0.42403 0.02273 0.25267 0.0
H722 H 0.42909 0.06387 0.16906 0.0
H723 H 0.43889 0.06521 0.12218 0.0
H724 H 0.52938 0.05177 0.13652 0.0
H725 H 0.52012 0.04989 0.18346 0.0
C726 C 0.52198 0.10472 0.30756 0.0
C727 C 0.54943 0.09195 0.30487 0.0
C728 C 0.49994 0.09835 0.28982 0.0
C729 C 0.50523 0.0793 0.26917 0.0
C730 C 0.53307 0.06781 0.26585 0.0
C731 C 0.55489 0.07396 0.28355 0.0
C732 C 0.48173 0.06869 0.25216 0.0
C733 C 0.48536 0.07102 0.22529 0.0
C734 C 0.45828 0.05242 0.26205 0.0
C735 C 0.45359 0.04863 0.29018 0.0
C736 C 0.47401 0.03387 0.30544 0.0
C737 C 0.46946 0.03055 0.33202 0.0
C738 C 0.44443 0.04166 0.34349 0.0
C739 C 0.42386 0.05602 0.32838 0.0
C740 C 0.42834 0.05944 0.30179 0.0
C741 C 0.44404 0.96868 0.17847 0.0
C742 C 0.41423 0.96391 0.17549 0.0
C743 C 0.45409 0.99268 0.1919 0.0
C744 C 0.43463 0.0126 0.20264 0.0
C745 C 0.40476 0.00802 0.19982 0.0
C746 C 0.39458 0.9839 0.18609 0.0
C747 C 0.44634 0.03673 0.21827 0.0
C748 C 0.44054 0.03698 0.24492 0.0
C749 C 0.46799 0.05518 0.20814 0.0
C750 C 0.47386 0.0568 0.17987 0.0
C751 C 0.45107 0.06111 0.16224 0.0
C752 C 0.45654 0.06195 0.13563 0.0
C753 C 0.48474 0.0586 0.12638 0.0
C754 C 0.50755 0.05444 0.14372 0.0
C755 C 0.50221 0.05356 0.17035 0.0
H756 H 0.48892 0.05921 0.10577 0.0
H757 H 0.44094 0.03906 0.36407 0.0
H758 H 0.54067 0.46396 0.18869 0.0
H759 H 0.49648 0.47401 0.21221 0.0
H760 H 0.45977 0.39357 0.18548 0.0
H761 H 0.505 0.38289 0.1621 0.0
H762 H 0.44357 0.48299 0.19748 0.0
H763 H 0.41087 0.37187 0.23394 0.0
H764 H 0.43156 0.3234 0.24182 0.0
H765 H 0.51448 0.36142 0.2574 0.0
H766 H 0.49417 0.41007 0.24985 0.0
H767 H 0.34781 0.52936 0.29251 0.0
H768 H 0.35896 0.49588 0.25707 0.0
H769 H 0.42937 0.46042 0.3019 0.0
H770 H 0.41757 0.49258 0.33739 0.0
H771 H 0.41218 0.42091 0.2705 0.0
H772 H 0.43518 0.52467 0.26289 0.0
H773 H 0.42282 0.57643 0.25876 0.0
H774 H 0.37168 0.55804 0.1914 0.0
H775 H 0.38342 0.5061 0.19538 0.0
C776 C 0.52326 0.44833 0.18771 0.0
C777 C 0.52633 0.42259 0.17359 0.0
C778 C 0.49785 0.45421 0.20107 0.0
C779 C 0.47467 0.43466 0.20055 0.0
C780 C 0.47743 0.40892 0.18625 0.0
C781 C 0.50321 0.40284 0.17295 0.0
C782 C 0.4485 0.44157 0.21605 0.0
C783 C 0.43622 0.46915 0.21312 0.0
C784 C 0.43867 0.4235 0.23631 0.0
C785 C 0.45111 0.39447 0.24095 0.0
C786 C 0.43351 0.36983 0.23904 0.0
C787 C 0.44516 0.34235 0.24346 0.0
C788 C 0.47435 0.33932 0.24999 0.0
C789 C 0.49192 0.36378 0.25222 0.0
C790 C 0.48036 0.39129 0.24785 0.0
C791 C 0.36488 0.51357 0.29513 0.0
C792 C 0.38231 0.51403 0.31742 0.0
C793 C 0.37134 0.49454 0.27482 0.0
C794 C 0.3956 0.47624 0.27646 0.0
C795 C 0.41068 0.47442 0.29998 0.0
C796 C 0.40404 0.49305 0.32028 0.0
C797 C 0.40897 0.46315 0.25305 0.0
C798 C 0.4185 0.43429 0.2542 0.0
C799 C 0.41731 0.48048 0.23169 0.0
C800 C 0.40979 0.51154 0.22964 0.0
C801 C 0.42111 0.53168 0.24733 0.0
C802 C 0.41425 0.56102 0.24501 0.0
C803 C 0.39645 0.5705 0.22485 0.0
C804 C 0.3854 0.55065 0.20704 0.0
C805 C 0.39209 0.52126 0.20934 0.0
H806 H 0.39136 0.59323 0.22294 0.0
H807 H 0.48333 0.31804 0.25339 0.0
H808 H 0.01404 0.62087 0.67706 0.0
H809 H 0.97141 0.60243 0.70039 0.0
H810 H 0.0005 0.51498 0.68707 0.0
H811 H 0.0423 0.53301 0.66375 0.0
H812 H 0.9431 0.51865 0.68112 0.0
H813 H 0.01595 0.55279 0.74396 0.0
H814 H 0.04557 0.59101 0.76414 0.0
H815 H 0.96878 0.63955 0.78165 0.0
H816 H 0.93876 0.6017 0.76132 0.0
H817 H 0.92302 0.4188 0.77798 0.0
H818 H 0.93608 0.45413 0.7454 0.0
H819 H 0.88843 0.5199 0.78669 0.0
H820 H 0.87623 0.48436 0.82033 0.0
H821 H 0.93907 0.53943 0.7752 0.0
H822 H 0.86655 0.49497 0.72395 0.0
H823 H 0.83884 0.4543 0.70561 0.0
H824 H 0.91497 0.42366 0.66669 0.0
H825 H 0.94322 0.46394 0.68497 0.0
C826 C 0.01105 0.59774 0.67893 0.0
C827 C 0.03162 0.57839 0.66881 0.0
C828 C 0.98675 0.58724 0.69223 0.0
C829 C 0.98285 0.5573 0.69557 0.0
C830 C 0.00291 0.53813 0.68462 0.0
C831 C 0.02698 0.54852 0.67145 0.0
C832 C 0.95948 0.54523 0.71201 0.0
C833 C 0.94193 0.52332 0.70167 0.0
C834 C 0.95716 0.55207 0.73861 0.0
C835 C 0.9752 0.57467 0.75086 0.0
C836 C 0.00544 0.57172 0.75198 0.0
C837 C 0.02228 0.59328 0.76346 0.0
C838 C 0.00907 0.61774 0.77409 0.0
C839 C 0.97899 0.62063 0.77335 0.0
C840 C 0.96205 0.59914 0.76185 0.0
C841 C 0.91472 0.4406 0.77989 0.0
C842 C 0.89855 0.4488 0.80167 0.0
C843 C 0.92203 0.46084 0.76106 0.0
C844 C 0.91274 0.48967 0.76319 0.0
C845 C 0.89565 0.49774 0.78451 0.0
C846 C 0.88863 0.47745 0.80366 0.0
C847 C 0.92392 0.51154 0.74462 0.0
C848 C 0.93912 0.53539 0.75452 0.0
C849 C 0.92413 0.50638 0.7176 0.0
C850 C 0.907 0.48258 0.70582 0.0
C851 C 0.87739 0.47957 0.71148 0.0
C852 C 0.86159 0.45656 0.70111 0.0
C853 C 0.87513 0.43643 0.68498 0.0
C854 C 0.90448 0.43932 0.67912 0.0
C855 C 0.92038 0.46231 0.68941 0.0
H856 H 0.86287 0.41858 0.67704 0.0
H857 H 0.02215 0.63442 0.78297 0.0
H858 H 0.03181 0.88088 0.77676 0.0
H859 H 0.98937 0.90113 0.75574 0.0
H860 H 0.94537 0.90511 0.82931 0.0
H861 H 0.98843 0.88557 0.85069 0.0
H862 H 0.93297 0.89847 0.74773 0.0
H863 H 0.91701 0.9722 0.83486 0.0
H864 H 0.94214 0.98748 0.87477 0.0
H865 H 0.02434 0.97363 0.83806 0.0
H866 H -0.00033 0.95875 0.79786 0.0
H867 H 0.85828 0.0206 0.69143 0.0
H868 H 0.86671 0.98083 0.72221 0.0
H869 H 0.95066 0.01637 0.74018 0.0
H870 H 0.94217 0.05595 0.71034 0.0
H871 H 0.92647 0.99819 0.78261 0.0
H872 H 0.94002 0.96074 0.69474 0.0
H873 H 0.92311 0.94825 0.65085 0.0
H874 H 0.85769 0.89315 0.68322 0.0
H875 H 0.87407 0.9056 0.72732 0.0
C876 C 0.01276 0.88508 0.78838 0.0
C877 C 0.01371 0.88241 0.81544 0.0
C878 C 0.98835 0.89653 0.77629 0.0
C879 C 0.96446 0.90542 0.79104 0.0
C880 C 0.9638 0.89889 0.81762 0.0
C881 C 0.9884 0.88762 0.82981 0.0
C882 C 0.94397 0.92655 0.77949 0.0
C883 C 0.93089 0.9201 0.75564 0.0
C884 C 0.94149 0.95493 0.7896 0.0
C885 C 0.9565 0.96403 0.81357 0.0
C886 C 0.94043 0.97248 0.83535 0.0
C887 C 0.95459 0.98109 0.85798 0.0
C888 C 0.9848 0.98146 0.85893 0.0
C889 C 0.00095 0.97329 0.83728 0.0
C890 C 0.98689 0.9648 0.81458 0.0
C891 C 0.87833 0.02 0.70226 0.0
C892 C 0.89963 0.04128 0.6984 0.0
C893 C 0.88315 0.99727 0.71975 0.0
C894 C 0.90939 0.99552 0.73344 0.0
C895 C 0.93016 0.01729 0.73004 0.0
C896 C 0.92534 0.03988 0.71279 0.0
C897 C 0.91671 0.97051 0.75026 0.0
C898 C 0.92721 0.97624 0.77521 0.0
C899 C 0.91777 0.94184 0.74068 0.0
C900 C 0.90798 0.93439 0.71425 0.0
C901 C 0.9219 0.94613 0.69246 0.0
C902 C 0.91244 0.93903 0.66757 0.0
C903 C 0.88927 0.92 0.66425 0.0
C904 C 0.87557 0.90795 0.68582 0.0
C905 C 0.88493 0.91502 0.71076 0.0
H906 H 0.88198 0.91452 0.64496 0.0
H907 H 0.99569 0.98825 0.87639 0.0
H908 H 0.54683 0.01157 0.84392 0.0
H909 H 0.53865 0.96862 0.81785 0.0
H910 H 0.62601 0.97349 0.78874 0.0
H911 H 0.63437 0.01702 0.8151 0.0
H912 H 0.58644 0.97063 0.75021 0.0
H913 H 0.60665 0.9148 0.82429 0.0
H914 H 0.60567 0.901 0.87036 0.0
H915 H 0.51379 0.88835 0.86624 0.0
H916 H 0.5141 0.90248 0.82026 0.0
H917 H 0.514 0.87243 0.66768 0.0
H918 H 0.55241 0.88493 0.69849 0.0
H919 H 0.48787 0.90365 0.7565 0.0
H920 H 0.44983 0.89041 0.72633 0.0
H921 H 0.53451 0.88248 0.77902 0.0
H922 H 0.51472 0.95614 0.71159 0.0
H923 H 0.51401 0.97257 0.6661 0.0
H924 H 0.60448 0.95296 0.65895 0.0
H925 H 0.6056 0.93617 0.70431 0.0
C926 C 0.56452 0.00323 0.83235 0.0
C927 C 0.59117 0.01771 0.83138 0.0
C928 C 0.55991 0.97847 0.81763 0.0
C929 C 0.58183 0.96759 0.80156 0.0
C930 C 0.6089 0.9814 0.8012 0.0
C931 C 0.61365 0.00618 0.81623 0.0
C932 C 0.5746 0.9443 0.78294 0.0
C933 C 0.57597 0.95082 0.75646 0.0
C934 C 0.56081 0.91854 0.79107 0.0
C935 C 0.56044 0.90971 0.81874 0.0
C936 C 0.58621 0.9092 0.83321 0.0
C937 C 0.58577 0.90131 0.85933 0.0
C938 C 0.55969 0.89379 0.87121 0.0
C939 C 0.53399 0.89412 0.85699 0.0
C940 C 0.5343 0.902 0.83087 0.0
C941 C 0.50814 0.87843 0.68725 0.0
C942 C 0.47893 0.88089 0.6945 0.0
C943 C 0.53008 0.88568 0.70479 0.0
C944 C 0.52301 0.89582 0.72965 0.0
C945 C 0.49393 0.89596 0.73744 0.0
C946 C 0.47213 0.88853 0.72008 0.0
C947 C 0.54477 0.90989 0.74662 0.0
C948 C 0.54613 0.90161 0.77275 0.0
C949 C 0.56087 0.93421 0.73824 0.0
C950 C 0.56016 0.94458 0.71114 0.0
C951 C 0.5344 0.95524 0.70024 0.0
C952 C 0.53393 0.9646 0.67451 0.0
C953 C 0.55917 0.96369 0.65962 0.0
C954 C 0.58494 0.95356 0.67048 0.0
C955 C 0.58551 0.94412 0.69618 0.0
H956 H 0.5588 0.97085 0.6397 0.0
H957 H 0.55939 0.88771 0.89144 0.0
H958 H 0.56787 0.50082 0.65876 0.0
H959 H 0.55873 0.54129 0.68774 0.0
H960 H 0.62999 0.51451 0.73607 0.0
H961 H 0.6394 0.47366 0.70676 0.0
H962 H 0.57909 0.51951 0.76256 0.0
H963 H 0.63371 0.57956 0.70692 0.0
H964 H 0.65056 0.59975 0.66542 0.0
H965 H 0.56539 0.63255 0.64995 0.0
H966 H 0.54787 0.61219 0.69116 0.0
H967 H 0.51311 0.62118 0.84438 0.0
H968 H 0.55379 0.60369 0.81838 0.0
H969 H 0.50154 0.61036 0.74945 0.0
H970 H 0.46107 0.62814 0.77519 0.0
H971 H 0.55794 0.62129 0.7387 0.0
H972 H 0.50168 0.54925 0.78531 0.0
H973 H 0.48155 0.52604 0.82434 0.0
H974 H 0.56732 0.51324 0.85417 0.0
H975 H 0.58792 0.53688 0.81548 0.0
C976 C 0.58203 0.50389 0.67524 0.0
C977 C 0.60421 0.48404 0.68065 0.0
C978 C 0.57694 0.5272 0.69169 0.0
C979 C 0.59384 0.5311 0.71396 0.0
C980 C 0.61687 0.512 0.71886 0.0
C981 C 0.62223 0.48875 0.70213 0.0
C982 C 0.58445 0.55254 0.73356 0.0
C983 C 0.57541 0.54205 0.75771 0.0
C984 C 0.57905 0.58176 0.72697 0.0
C985 C 0.58947 0.59427 0.70218 0.0
C986 C 0.61851 0.59093 0.69461 0.0
C987 C 0.62819 0.60243 0.67114 0.0
C988 C 0.60906 0.61742 0.65506 0.0
C989 C 0.5802 0.62097 0.66244 0.0
C990 C 0.5704 0.60951 0.6859 0.0
C991 C 0.51062 0.61984 0.82357 0.0
C992 C 0.48379 0.62561 0.81183 0.0
C993 C 0.53386 0.60975 0.80876 0.0
C994 C 0.5305 0.6052 0.78206 0.0
C995 C 0.50461 0.61363 0.77003 0.0
C996 C 0.48142 0.6237 0.78479 0.0
C997 C 0.55178 0.58789 0.76717 0.0
C998 C 0.56281 0.5991 0.74394 0.0
C999 C 0.55868 0.55913 0.77437 0.0
C1000 C 0.54631 0.54521 0.79772 0.0
C1001 C 0.51622 0.54174 0.80032 0.0
C1002 C 0.50473 0.52847 0.82235 0.0
C1003 C 0.52314 0.51821 0.84173 0.0
C1004 C 0.55309 0.52122 0.83913 0.0
C1005 C 0.56468 0.53461 0.8172 0.0
H1006 H 0.51422 0.50792 0.85877 0.0
H1007 H 0.61659 0.62629 0.63689 0.0
H1008 H 0.0514 0.70226 0.15932 0.0
H1009 H 0.03465 0.73541 0.1927 0.0
H1010 H 0.98585 0.66657 0.22828 0.0
H1011 H 0.00289 0.63305 0.195 0.0
H1012 H 0.98801 0.75661 0.2204 0.0
H1013 H 0.00851 0.66455 0.29057 0.0
H1014 H 0.02954 0.61542 0.29133 0.0
H1015 H 0.08986 0.63956 0.23192 0.0
H1016 H 0.0695 0.68893 0.23119 0.0
H1017 H 0.01289 0.82702 0.34407 0.0
H1018 H 0.9917 0.7906 0.31496 0.0
H1019 H 0.07703 0.76894 0.28721 0.0
H1020 H 0.09808 0.80531 0.31566 0.0
H1021 H 0.0418 0.72039 0.29702 0.0
H1022 H 0.03996 0.81457 0.25393 0.0
H1023 H 0.025 0.86563 0.25029 0.0
H1024 H 0.93571 0.84014 0.25197 0.0
H1025 H 0.95021 0.78891 0.25597 0.0
C1026 C 0.03618 0.69442 0.17364 0.0
C1027 C 0.02913 0.66494 0.17507 0.0
C1028 C 0.02642 0.71347 0.19263 0.0
C1029 C 0.0096 0.70323 0.21328 0.0
C1030 C 0.99912 0.67476 0.21263 0.0
C1031 C 0.00893 0.65563 0.19362 0.0
C1032 C 0.00944 0.71998 0.23765 0.0
C1033 C 0.99898 0.74847 0.23748 0.0
C1034 C 0.02425 0.7095 0.25976 0.0
C1035 C 0.03726 0.68022 0.26063 0.0
C1036 C 0.02634 0.65936 0.27778 0.0
C1037 C 0.03815 0.6315 0.27821 0.0
C1038 C 0.06097 0.62436 0.26164 0.0
C1039 C 0.07216 0.64511 0.24472 0.0
C1040 C 0.06053 0.67303 0.24432 0.0
C1041 C 0.02704 0.81415 0.33197 0.0
C1042 C 0.05706 0.81897 0.33193 0.0
C1043 C 0.01495 0.79347 0.3154 0.0
C1044 C 0.03286 0.77716 0.29903 0.0
C1045 C 0.0629 0.78122 0.29983 0.0
C1046 C 0.07487 0.8021 0.31596 0.0
C1047 C 0.02083 0.75714 0.27958 0.0
C1048 C 0.0293 0.72807 0.28061 0.0
C1049 C 0.00482 0.76732 0.25809 0.0
C1050 C 0.99614 0.79802 0.25563 0.0
C1051 C 0.01714 0.8199 0.25377 0.0
C1052 C 0.00875 0.84885 0.25159 0.0
C1053 C 0.97942 0.85614 0.251 0.0
C1054 C 0.95842 0.83447 0.25251 0.0
C1055 C 0.9667 0.80548 0.25473 0.0
H1056 H 0.97296 0.87856 0.2493 0.0
H1057 H 0.07003 0.60278 0.26198 0.0
H1058 H 0.78832 0.07265 0.13879 0.0
H1059 H 0.75711 0.05715 0.17421 0.0
H1060 H 0.8244 0.00051 0.20215 0.0
H1061 H 0.85579 0.0159 0.16664 0.0
H1062 H 0.73471 0.00936 0.19948 0.0
H1063 H 0.83191 0.01903 0.26793 0.0
H1064 H 0.88137 0.03915 0.26933 0.0
H1065 H 0.85779 0.10316 0.21292 0.0
H1066 H 0.8081 0.08379 0.21158 0.0
H1067 H 0.6703 0.01897 0.32515 0.0
H1068 H 0.70486 0.00084 0.29287 0.0
H1069 H 0.73573 0.0878 0.28045 0.0
H1070 H 0.70183 0.10581 0.31266 0.0
H1071 H 0.77951 0.05042 0.27864 0.0
H1072 H 0.68192 0.05846 0.24298 0.0
H1073 H 0.63004 0.04604 0.24131 0.0
H1074 H 0.65158 0.95658 0.22994 0.0
H1075 H 0.7036 0.96848 0.23189 0.0
C1076 C 0.79603 0.05597 0.15181 0.0
C1077 C 0.82463 0.0459 0.15027 0.0
C1078 C 0.77814 0.04706 0.17204 0.0
C1079 C 0.78873 0.02818 0.19109 0.0
C1080 C 0.81598 0.01533 0.18775 0.0
C1081 C 0.83384 0.02409 0.16738 0.0
C1082 C 0.77362 0.02672 0.2163 0.0
C1083 C 0.74466 0.01768 0.21698 0.0
C1084 C 0.78653 0.03801 0.23902 0.0
C1085 C 0.81645 0.04964 0.23937 0.0
C1086 C 0.83732 0.03738 0.25582 0.0
C1087 C 0.86535 0.04871 0.25667 0.0
C1088 C 0.8727 0.07242 0.24125 0.0
C1089 C 0.85207 0.08478 0.22486 0.0
C1090 C 0.82398 0.07362 0.22403 0.0
C1091 C 0.68494 0.03405 0.3159 0.0
C1092 C 0.68325 0.06383 0.32121 0.0
C1093 C 0.70455 0.0237 0.29743 0.0
C1094 C 0.72263 0.04302 0.28406 0.0
C1095 C 0.72205 0.07247 0.29054 0.0
C1096 C 0.70254 0.08278 0.30888 0.0
C1097 C 0.74041 0.03364 0.26172 0.0
C1098 C 0.76989 0.04079 0.26154 0.0
C1099 C 0.72778 0.02136 0.2393 0.0
C1100 C 0.69657 0.01429 0.2379 0.0
C1101 C 0.67556 0.03612 0.24029 0.0
C1102 C 0.64615 0.02919 0.23927 0.0
C1103 C 0.63752 0.00053 0.2356 0.0
C1104 C 0.65829 0.97876 0.23285 0.0
C1105 C 0.68773 0.98558 0.23391 0.0
H1106 H 0.61475 0.99519 0.23481 0.0
H1107 H 0.89434 0.08128 0.24209 0.0
H1108 H 0.4386 0.67826 0.3419 0.0
H1109 H 0.45072 0.7133 0.30833 0.0
H1110 H 0.46479 0.64407 0.25395 0.0
H1111 H 0.45237 0.60869 0.28744 0.0
H1112 H 0.5 0.71272 0.25549 0.0
H1113 H 0.41143 0.65307 0.23821 0.0
H1114 H 0.36909 0.62649 0.25502 0.0
H1115 H 0.34128 0.70223 0.29611 0.0
H1116 H 0.38384 0.72903 0.28003 0.0
H1117 H 0.44935 0.80364 0.14823 0.0
H1118 H 0.46407 0.76184 0.17456 0.0
H1119 H 0.41331 0.7943 0.23832 0.0
H1120 H 0.39861 0.83575 0.21238 0.0
H1121 H 0.40089 0.73788 0.22597 0.0
H1122 H 0.48443 0.79895 0.24045 0.0
H1123 H 0.52692 0.82738 0.22692 0.0
H1124 H 0.56478 0.75158 0.19288 0.0
H1125 H 0.52227 0.72277 0.20591 0.0
C1126 C 0.44539 0.67038 0.32312 0.0
C1127 C 0.44384 0.64084 0.31703 0.0
C1128 C 0.45251 0.69043 0.30402 0.0
C1129 C 0.45839 0.68115 0.27874 0.0
C1130 C 0.46039 0.65152 0.27343 0.0
C1131 C 0.45306 0.6314 0.29251 0.0
C1132 C 0.45476 0.702 0.25747 0.0
C1133 C 0.47851 0.71786 0.24842 0.0
C1134 C 0.42663 0.70885 0.24877 0.0
C1135 C 0.40087 0.69292 0.25811 0.0
C1136 C 0.39639 0.66395 0.25099 0.0
C1137 C 0.37238 0.64886 0.26037 0.0
C1138 C 0.35254 0.66265 0.2766 0.0
C1139 C 0.35669 0.69156 0.28355 0.0
C1140 C 0.38075 0.70669 0.27434 0.0
C1141 C 0.44159 0.8019 0.16794 0.0
C1142 C 0.42268 0.82279 0.17823 0.0
C1143 C 0.45007 0.77813 0.18293 0.0
C1144 C 0.43969 0.77505 0.20831 0.0
C1145 C 0.42144 0.79628 0.21872 0.0
C1146 C 0.41308 0.81995 0.20388 0.0
C1147 C 0.44612 0.74903 0.22385 0.0
C1148 C 0.42263 0.73227 0.23213 0.0
C1149 C 0.4745 0.74149 0.23164 0.0
C1150 C 0.50001 0.7588 0.22384 0.0
C1151 C 0.50168 0.78841 0.22985 0.0
C1152 C 0.52579 0.80458 0.22233 0.0
C1153 C 0.54849 0.79132 0.20897 0.0
C1154 C 0.54715 0.76184 0.20318 0.0
C1155 C 0.52306 0.74558 0.21063 0.0
H1156 H 0.56715 0.80388 0.20317 0.0
H1157 H 0.3339 0.65093 0.2837 0.0
H1158 H 0.69111 0.46803 0.15267 0.0
H1159 H 0.73006 0.48373 0.18171 0.0
H1160 H 0.68436 0.44705 0.24669 0.0
H1161 H 0.64549 0.43162 0.218 0.0
H1162 H 0.71114 0.4978 0.25974 0.0
H1163 H 0.73424 0.40781 0.21511 0.0
H1164 H 0.74247 0.37786 0.1763 0.0
H1165 H 0.81005 0.43532 0.15172 0.0
H1166 H 0.80192 0.46583 0.19027 0.0
H1167 H 0.80527 0.43345 0.34913 0.0
H1168 H 0.76968 0.45142 0.31826 0.0
H1169 H 0.83833 0.48314 0.26931 0.0
H1170 H 0.87415 0.46469 0.30001 0.0
H1171 H 0.80439 0.44784 0.24361 0.0
H1172 H 0.78841 0.53019 0.29613 0.0
H1173 H 0.77998 0.55776 0.33624 0.0
H1174 H 0.69925 0.51368 0.34754 0.0
H1175 H 0.70736 0.48551 0.3077 0.0
C1176 C 0.68921 0.46378 0.17321 0.0
C1177 C 0.6655 0.44829 0.18307 0.0
C1178 C 0.71142 0.47276 0.18975 0.0
C1179 C 0.71016 0.46632 0.2163 0.0
C1180 C 0.68571 0.45232 0.22629 0.0
C1181 C 0.66362 0.44331 0.20983 0.0
C1182 C 0.73538 0.47108 0.23341 0.0
C1183 C 0.73163 0.48703 0.25627 0.0
C1184 C 0.7623 0.45764 0.22845 0.0
C1185 C 0.76722 0.43929 0.20534 0.0
C1186 C 0.75069 0.41417 0.20131 0.0
C1187 C 0.75536 0.39708 0.17939 0.0
C1188 C 0.7767 0.40474 0.16151 0.0
C1189 C 0.79347 0.42946 0.16556 0.0
C1190 C 0.78885 0.44666 0.18742 0.0
C1191 C 0.81278 0.44497 0.33216 0.0
C1192 C 0.84246 0.44738 0.32682 0.0
C1193 C 0.79239 0.45542 0.31457 0.0
C1194 C 0.80132 0.46873 0.29147 0.0
C1195 C 0.83097 0.47296 0.28701 0.0
C1196 C 0.85139 0.46243 0.30458 0.0
C1197 C 0.78001 0.47388 0.27052 0.0
C1198 C 0.78439 0.45959 0.24688 0.0
C1199 C 0.75366 0.48868 0.27493 0.0
C1200 C 0.74858 0.50564 0.29892 0.0
C1201 C 0.76894 0.52622 0.30724 0.0
C1202 C 0.7642 0.54199 0.32993 0.0
C1203 C 0.73911 0.53746 0.34444 0.0
C1204 C 0.71868 0.51718 0.33627 0.0
C1205 C 0.72331 0.50134 0.3136 0.0
H1206 H 0.73548 0.54969 0.362 0.0
H1207 H 0.7803 0.39147 0.14456 0.0
H1208 H 0.9783 0.15881 0.67299 0.0
H1209 H 0.00037 0.19605 0.70068 0.0
H1210 H 0.91562 0.23075 0.717 0.0
H1211 H 0.89368 0.19388 0.68977 0.0
H1212 H 0.95624 0.27353 0.70949 0.0
H1213 H 0.94457 0.18174 0.75676 0.0
H1214 H 0.95513 0.12998 0.76359 0.0
H1215 H 0.04593 0.14881 0.76847 0.0
H1216 H 0.03585 0.20068 0.76134 0.0
H1217 H 0.92737 0.29253 0.84628 0.0
H1218 H 0.94645 0.25973 0.81369 0.0
H1219 H 0.00173 0.32744 0.78446 0.0
H1220 H 0.98231 0.36069 0.817 0.0
H1221 H 0.99517 0.23711 0.79286 0.0
H1222 H 0.99166 0.32674 0.7177 0.0
H1223 H 0.97353 0.37651 0.71135 0.0
H1224 H 0.90376 0.36003 0.76419 0.0
H1225 H 0.92121 0.31005 0.77047 0.0
C1226 C 0.96454 0.17474 0.6822 0.0
C1227 C 0.9343 0.17341 0.6795 0.0
C1228 C 0.97714 0.19592 0.69794 0.0
C1229 C 0.95959 0.21608 0.71085 0.0
C1230 C 0.92956 0.21551 0.70707 0.0
C1231 C 0.91702 0.1943 0.69167 0.0
C1232 C 0.97141 0.2362 0.73037 0.0
C1233 C 0.9656 0.26577 0.72746 0.0
C1234 C 0.98352 0.22599 0.75378 0.0
C1235 C 0.98952 0.19493 0.75819 0.0
C1236 C 0.96679 0.17478 0.75911 0.0
C1237 C 0.97268 0.14545 0.76305 0.0
C1238 C 0.0012 0.1361 0.76637 0.0
C1239 C 0.02387 0.15608 0.76582 0.0
C1240 C 0.01808 0.18543 0.76182 0.0
C1241 C 0.94431 0.3002 0.83352 0.0
C1242 C 0.95287 0.3293 0.83374 0.0
C1243 C 0.95537 0.28135 0.81496 0.0
C1244 C 0.97506 0.29135 0.79632 0.0
C1245 C 0.98628 0.31944 0.79851 0.0
C1246 C 0.97517 0.33838 0.81712 0.0
C1247 C 0.97881 0.27428 0.77235 0.0
C1248 C 0.9875 0.24527 0.7744 0.0
C1249 C 0.96866 0.28488 0.74827 0.0
C1250 C 0.95802 0.31488 0.74484 0.0
C1251 C 0.97247 0.33379 0.72796 0.0
C1252 C 0.96228 0.36199 0.72433 0.0
C1253 C 0.93755 0.37144 0.7374 0.0
C1254 C 0.92294 0.3527 0.75411 0.0
C1255 C 0.93297 0.32444 0.75771 0.0
H1256 H 0.92966 0.39324 0.73447 0.0
H1257 H 0.00572 0.11339 0.76943 0.0
H1258 H 0.31385 0.91906 0.64332 0.0
H1259 H 0.27304 0.93147 0.67131 0.0
H1260 H 0.33213 0.96395 0.72896 0.0
H1261 H 0.37304 0.95176 0.70105 0.0
H1262 H 0.29693 0.91844 0.74563 0.0
H1263 H 0.2867 0.00972 0.70232 0.0
H1264 H 0.28168 0.04184 0.66449 0.0
H1265 H 0.20248 -0.00053 0.64349 0.0
H1266 H 0.20723 0.96681 0.681 0.0
H1267 H 0.18618 0.93981 0.8372 0.0
H1268 H 0.22699 0.95085 0.80866 0.0
H1269 H 0.17362 0.9331 0.742 0.0
H1270 H 0.13265 0.92299 0.77033 0.0
H1271 H 0.20787 0.97614 0.73138 0.0
H1272 H 0.21965 0.8816 0.76875 0.0
H1273 H 0.22476 0.84493 0.80317 0.0
H1274 H 0.30057 0.88805 0.83159 0.0
H1275 H 0.29564 0.92525 0.79761 0.0
C1276 C 0.31809 0.92971 0.66159 0.0
C1277 C 0.3466 0.93417 0.67014 0.0
C1278 C 0.29476 0.93684 0.67753 0.0
C1279 C 0.29966 0.94849 0.70221 0.0
C1280 C 0.32799 0.95495 0.70996 0.0
C1281 C 0.3513 0.94804 0.69396 0.0
C1282 C 0.27583 0.94975 0.72123 0.0
C1283 C 0.27771 0.93159 0.7429 0.0
C1284 C 0.2504 0.96599 0.71693 0.0
C1285 C 0.24744 0.98567 0.69439 0.0
C1286 C 0.26834 0.00709 0.68952 0.0
C1287 C 0.26551 0.02543 0.66816 0.0
C1288 C 0.24181 0.02266 0.65157 0.0
C1289 C 0.22084 0.00158 0.65635 0.0
C1290 C 0.22356 0.98318 0.67769 0.0
C1291 C 0.18306 0.9388 0.81645 0.0
C1292 C 0.15634 0.93032 0.80597 0.0
C1293 C 0.20641 0.94492 0.80017 0.0
C1294 C 0.20352 0.9422 0.77321 0.0
C1295 C 0.1764 0.93526 0.76273 0.0
C1296 C 0.153 0.92943 0.77896 0.0
C1297 C 0.22897 0.94485 0.75592 0.0
C1298 C 0.22731 0.96345 0.73445 0.0
C1299 C 0.25447 0.92847 0.76004 0.0
C1300 C 0.25699 0.90649 0.78089 0.0
C1301 C 0.23719 0.88347 0.78254 0.0
C1302 C 0.2401 0.86255 0.80193 0.0
C1303 C 0.26287 0.86429 0.81964 0.0
C1304 C 0.28285 0.88685 0.81794 0.0
C1305 C 0.28 0.90786 0.79864 0.0
H1306 H 0.26514 0.84812 0.83464 0.0
H1307 H 0.23966 0.03689 0.63504 0.0
H1308 H 0.56753 0.13011 0.78146 0.0
H1309 H 0.55586 0.16818 0.75041 0.0
H1310 H 0.53824 0.2271 0.81319 0.0
H1311 H 0.54936 0.1888 0.84447 0.0
H1312 H 0.50184 0.23635 0.77097 0.0
H1313 H 0.60301 0.22742 0.78865 0.0
H1314 H 0.64955 0.20184 0.79358 0.0
H1315 H 0.64685 0.17685 0.71359 0.0
H1316 H 0.60006 0.20192 0.70832 0.0
H1317 H 0.55098 0.36865 0.7115 0.0
H1318 H 0.53786 0.32699 0.73823 0.0
H1319 H 0.55091 0.27043 0.67292 0.0
H1320 H 0.56391 0.31192 0.64605 0.0
H1321 H 0.58633 0.2589 0.71526 0.0
H1322 H 0.48573 0.27495 0.69788 0.0
H1323 H 0.44071 0.3034 0.69528 0.0
H1324 H 0.44424 0.31924 0.77709 0.0
H1325 H 0.48954 0.29123 0.78013 0.0
C1326 C 0.5606 0.151 0.78865 0.0
C1327 C 0.55971 0.15669 0.81532 0.0
C1328 C 0.55391 0.17269 0.77092 0.0
C1329 C 0.54665 0.20052 0.77956 0.0
C1330 C 0.54379 0.20573 0.80618 0.0
C1331 C 0.55027 0.1839 0.82399 0.0
C1332 C 0.54557 0.22478 0.76094 0.0
C1333 C 0.5203 0.24147 0.75885 0.0
C1334 C 0.56969 0.23126 0.74514 0.0
C1335 C 0.59789 0.21625 0.74818 0.0
C1336 C 0.61224 0.21626 0.77218 0.0
C1337 C 0.63867 0.20189 0.77503 0.0
C1338 C 0.6511 0.18766 0.75393 0.0
C1339 C 0.63716 0.18783 0.72993 0.0
C1340 C 0.61069 0.20212 0.727 0.0
C1341 C 0.55023 0.34744 0.70266 0.0
C1342 C 0.55883 0.34344 0.67682 0.0
C1343 C 0.5426 0.32369 0.71791 0.0
C1344 C 0.54352 0.29569 0.70751 0.0
C1345 C 0.55006 0.29192 0.68123 0.0
C1346 C 0.55748 0.31564 0.66593 0.0
C1347 C 0.54243 0.27033 0.72486 0.0
C1348 C 0.56759 0.25357 0.72699 0.0
C1349 C 0.51843 0.2643 0.74095 0.0
C1350 C 0.4912 0.28118 0.73919 0.0
C1351 C 0.47707 0.28472 0.71528 0.0
C1352 C 0.45146 0.30072 0.71374 0.0
C1353 C 0.43966 0.31318 0.736 0.0
C1354 C 0.45342 0.3096 0.75986 0.0
C1355 C 0.47905 0.29363 0.76151 0.0
H1356 H 0.41982 0.32555 0.73476 0.0
H1357 H 0.67157 0.17656 0.75616 0.0
H1358 H 0.31383 0.58108 0.84215 0.0
H1359 H 0.27823 0.56213 0.81182 0.0
H1360 H 0.34685 0.52934 0.76337 0.0
H1361 H 0.38269 0.54869 0.79356 0.0
H1362 H 0.31306 0.56494 0.73748 0.0
H1363 H 0.29672 0.4828 0.79007 0.0
H1364 H 0.28823 0.45529 0.83022 0.0
H1365 H 0.20772 0.49987 0.84156 0.0
H1366 H 0.21589 0.52798 0.8017 0.0
H1367 H 0.19783 0.54884 0.64753 0.0
H1368 H 0.23773 0.53275 0.67538 0.0
H1369 H 0.19259 0.56575 0.74227 0.0
H1370 H 0.15273 0.58133 0.71479 0.0
H1371 H 0.21943 0.51598 0.75385 0.0
H1372 H 0.2435 0.60654 0.71055 0.0
H1373 H 0.25287 0.63814 0.67306 0.0
H1374 H 0.31901 0.58001 0.64653 0.0
H1375 H 0.30985 0.54794 0.68386 0.0
C1376 C 0.32134 0.5691 0.82543 0.0
C1377 C 0.35101 0.5667 0.82003 0.0
C1378 C 0.30094 0.55806 0.80817 0.0
C1379 C 0.30986 0.54423 0.78532 0.0
C1380 C 0.33951 0.5399 0.7809 0.0
C1381 C 0.35994 0.55098 0.79816 0.0
C1382 C 0.28857 0.53904 0.76438 0.0
C1383 C 0.29297 0.55337 0.74077 0.0
C1384 C 0.26213 0.5245 0.76885 0.0
C1385 C 0.257 0.50758 0.79287 0.0
C1386 C 0.27729 0.48689 0.8012 0.0
C1387 C 0.27251 0.47116 0.82391 0.0
C1388 C 0.24746 0.47584 0.83844 0.0
C1389 C 0.22711 0.49624 0.83027 0.0
C1390 C 0.23178 0.51204 0.80758 0.0
C1391 C 0.1963 0.55224 0.66822 0.0
C1392 C 0.17235 0.56659 0.67899 0.0
C1393 C 0.21907 0.54307 0.68409 0.0
C1394 C 0.21822 0.54829 0.71086 0.0
C1395 C 0.19367 0.56139 0.72168 0.0
C1396 C 0.17099 0.57048 0.70591 0.0
C1397 C 0.24368 0.54278 0.72757 0.0
C1398 C 0.24 0.52654 0.75031 0.0
C1399 C 0.27074 0.55584 0.72251 0.0
C1400 C 0.27572 0.57468 0.69974 0.0
C1401 C 0.25982 0.60036 0.69656 0.0
C1402 C 0.26515 0.61839 0.67538 0.0
C1403 C 0.28647 0.61105 0.65736 0.0
C1404 C 0.30246 0.58563 0.66047 0.0
C1405 C 0.29722 0.56753 0.68163 0.0
H1406 H 0.29072 0.62512 0.64106 0.0
H1407 H 0.24381 0.46365 0.85602 0.0
H1408 H 0.02386 0.59717 0.07013 0.0
H1409 H 0.99909 0.56979 0.0363 0.0
H1410 H 0.05019 0.49448 0.055 0.0
H1411 H 0.07549 0.52195 0.08854 0.0
H1412 H 0.045 0.50114 0.0036 0.0
H1413 H 0.98099 0.50112 0.07689 0.0
H1414 H 0.95241 0.52333 0.11195 0.0
H1415 H 0.90248 0.57058 0.05603 0.0
H1416 H 0.93103 0.54894 0.02064 0.0
H1417 H 0.95966 0.39805 0.93833 0.0
H1418 H 0.98417 0.42493 0.97261 0.0
H1419 H 0.93232 0.50012 0.95519 0.0
H1420 H 0.90714 0.47304 0.92132 0.0
H1421 H 0.93796 0.49334 0.00613 0.0
H1422 H 0.00221 0.49348 0.93282 0.0
H1423 H 0.03089 0.47129 0.89781 0.0
H1424 H 0.08048 0.4238 0.95381 0.0
H1425 H 0.05182 0.44543 0.98914 0.0
C1426 C 0.02995 0.57484 0.06689 0.0
C1427 C 0.05148 0.56161 0.082 0.0
C1428 C 0.0157 0.5592 0.04767 0.0
C1429 C 0.02249 0.52999 0.04347 0.0
C1430 C 0.04459 0.51698 0.05801 0.0
C1431 C 0.05898 0.53267 0.07715 0.0
C1432 C 0.00622 0.51287 0.02418 0.0
C1433 C 0.02163 0.49911 0.00432 0.0
C1434 C 0.97569 0.51076 0.02489 0.0
C1435 C 0.95832 0.5236 0.04613 0.0
C1436 C 0.96405 0.5164 0.07208 0.0
C1437 C 0.94783 0.52886 0.09201 0.0
C1438 C 0.92569 0.5484 0.08623 0.0
C1439 C 0.91966 0.55546 0.06049 0.0
C1440 C 0.93583 0.54308 0.04049 0.0
C1441 C 0.95335 0.42025 0.94195 0.0
C1442 C 0.93165 0.43356 0.9271 0.0
C1443 C 0.96745 0.43561 0.96143 0.0
C1444 C 0.96044 0.46468 0.96608 0.0
C1445 C 0.93813 0.47773 0.95182 0.0
C1446 C 0.9238 0.46228 0.93249 0.0
C1447 C 0.97673 0.48163 0.9855 0.0
C1448 C 0.96133 0.49536 0.00539 0.0
C1449 C 0.00728 0.48371 0.98482 0.0
C1450 C 0.0247 0.47088 0.9636 0.0
C1451 C 0.01911 0.47816 0.93765 0.0
C1452 C 0.03538 0.46571 0.91776 0.0
C1453 C 0.05745 0.44609 0.92358 0.0
C1454 C 0.06335 0.43897 0.94932 0.0
C1455 C 0.04712 0.45134 0.96929 0.0
H1456 H 0.07001 0.43646 0.90815 0.0
H1457 H 0.91316 0.55804 0.10168 0.0
H1458 H 0.05895 0.91893 0.9373 0.0
H1459 H 0.03306 0.9507 0.96706 0.0
H1460 H 0.03325 0.01849 0.90966 0.0
H1461 H 0.05985 0.98694 0.87993 0.0
H1462 H 0.04074 0.04109 0.9561 0.0
H1463 H 0.97275 0.97768 0.91788 0.0
H1464 H 0.95346 0.93081 0.90302 0.0
H1465 H 0.95057 0.90056 0.98158 0.0
H1466 H 0.97035 0.94713 0.99677 0.0
H1467 H 0.8947 0.06651 0.03382 0.0
H1468 H 0.92138 0.04673 0.99694 0.0
H1469 H 0.00178 0.06053 0.03764 0.0
H1470 H 0.97529 0.08158 0.07386 0.0
H1471 H 0.95045 0.00107 0.99367 0.0
H1472 H 0.05828 0.06685 0.99798 0.0
H1473 H 0.07418 0.1167 0.00717 0.0
H1474 H 0.98982 0.14875 0.98745 0.0
H1475 H 0.97351 0.09917 0.97779 0.0
C1476 C 0.05378 0.94071 0.93111 0.0
C1477 C 0.06112 0.95037 0.90621 0.0
C1478 C 0.03887 0.9588 0.94809 0.0
C1479 C 0.03064 0.98673 0.94036 0.0
C1480 C 0.03926 0.99697 0.91598 0.0
C1481 C 0.05438 0.97891 0.899 0.0
C1482 C 0.01193 0.00457 0.95735 0.0
C1483 C 0.02096 0.03245 0.96432 0.0
C1484 C 0.98555 0.9937 0.96725 0.0
C1485 C 0.97329 0.96576 0.95838 0.0
C1486 C 0.96821 0.96092 0.93191 0.0
C1487 C 0.95716 0.93444 0.92345 0.0
C1488 C 0.95085 0.91268 0.94135 0.0
C1489 C 0.9555 0.91742 0.96774 0.0
C1490 C 0.96661 0.94387 0.97628 0.0
C1491 C 0.9181 0.06574 0.03464 0.0
C1492 C 0.93296 0.07558 0.05663 0.0
C1493 C 0.93333 0.05438 0.01362 0.0
C1494 C 0.96366 0.05232 0.01434 0.0
C1495 C 0.97849 0.06251 0.03624 0.0
C1496 C 0.96331 0.07437 0.05704 0.0
C1497 C 0.97961 0.03747 0.99319 0.0
C1498 C 0.97007 0.01001 0.9854 0.0
C1499 C 0.00489 0.04927 0.98182 0.0
C1500 C 0.01462 0.07923 0.98737 0.0
C1501 C 0.04316 0.08454 0.99548 0.0
C1502 C 0.05224 0.11276 0.0008 0.0
C1503 C 0.033 0.13586 0.99797 0.0
C1504 C 0.00467 0.13082 0.98973 0.0
C1505 C 0.99548 0.10266 0.98437 0.0
H1506 H 0.04007 0.15768 0.00211 0.0
H1507 H 0.9423 0.89218 0.93478 0.0
H1508 H 0.39019 0.95302 0.05831 0.0
H1509 H 0.41727 0.98278 0.02753 0.0
H1510 H 0.49407 0.93242 0.04242 0.0
H1511 H 0.46714 0.90244 0.07306 0.0
H1512 H 0.50172 0.99221 0.04855 0.0
H1513 H 0.46295 0.92549 0.98628 0.0
H1514 H 0.42456 0.89814 0.96402 0.0
H1515 H 0.38392 0.97759 0.94092 0.0
H1516 H 0.42188 0.00544 0.96337 0.0
H1517 H 0.59293 0.04381 0.94719 0.0
H1518 H 0.56481 0.01706 0.97934 0.0
H1519 H 0.4883 0.06486 0.95781 0.0
H1520 H 0.51621 0.09154 0.92554 0.0
H1521 H 0.47947 0.0075 0.95565 0.0
H1522 H 0.51804 0.07458 0.01647 0.0
H1523 H 0.55523 0.10278 0.03949 0.0
H1524 H 0.59501 0.02428 0.06609 0.0
H1525 H 0.55829 0.99556 0.04291 0.0
C1526 C 0.41269 0.94793 0.05461 0.0
C1527 C 0.4266 0.92549 0.06809 0.0
C1528 C 0.42811 0.96494 0.03707 0.0
C1529 C 0.45764 0.95979 0.03287 0.0
C1530 C 0.47129 0.93671 0.04554 0.0
C1531 C 0.45584 0.91953 0.06288 0.0
C1532 C 0.47471 0.97961 0.01653 0.0
C1533 C 0.4972 0.9953 0.02813 0.0
C1534 C 0.46799 0.98424 0.99019 0.0
C1535 C 0.44509 0.96755 0.97676 0.0
C1536 C 0.44567 0.93714 0.97668 0.0
C1537 C 0.42403 0.92154 0.96397 0.0
C1538 C 0.40177 0.93611 0.95113 0.0
C1539 C 0.40115 0.96632 0.95091 0.0
C1540 C 0.42274 0.98202 0.96361 0.0
C1541 C 0.57026 0.04904 0.94971 0.0
C1542 C 0.55669 0.06958 0.93376 0.0
C1543 C 0.55424 0.0338 0.96811 0.0
C1544 C 0.52448 0.03898 0.97088 0.0
C1545 C 0.51123 0.06051 0.95587 0.0
C1546 C 0.52723 0.07577 0.93752 0.0
C1547 C 0.5067 0.02008 0.9876 0.0
C1548 C 0.48402 0.00453 0.97608 0.0
C1549 C 0.51316 0.01572 0.01405 0.0
C1550 C 0.53558 0.0329 0.0277 0.0
C1551 C 0.5349 0.06331 0.02699 0.0
C1552 C 0.55586 0.07939 0.04012 0.0
C1553 C 0.57752 0.06533 0.05418 0.0
C1554 C 0.57825 0.03514 0.05516 0.0
C1555 C 0.55735 0.01895 0.04204 0.0
H1556 H 0.5937 0.07783 0.06437 0.0
H1557 H 0.38504 0.924 0.94129 0.0
H1558 H 0.46678 0.61622 0.93521 0.0
H1559 H 0.49361 0.58884 0.96792 0.0
H1560 H 0.44905 0.51095 0.94522 0.0
H1561 H 0.42204 0.53817 0.9126 0.0
H1562 H 0.45505 0.51603 0.99839 0.0
H1563 H 0.51376 0.52523 0.92177 0.0
H1564 H 0.53825 0.55272 0.88728 0.0
H1565 H 0.59075 0.59574 0.94386 0.0
H1566 H 0.56587 0.56929 0.97884 0.0
H1567 H 0.54744 0.41353 0.05562 0.0
H1568 H 0.52137 0.44052 0.02224 0.0
H1569 H 0.56999 0.51722 0.04129 0.0
H1570 H 0.59652 0.49023 0.07437 0.0
H1571 H 0.56198 0.51296 0.9899 0.0
H1572 H 0.50338 0.50701 0.06619 0.0
H1573 H 0.47837 0.48231 0.10208 0.0
H1574 H 0.42623 0.43541 0.04765 0.0
H1575 H 0.45127 0.45951 0.01141 0.0
C1576 C 0.46241 0.59335 0.93745 0.0
C1577 C 0.44248 0.57926 0.92127 0.0
C1578 C 0.47783 0.57774 0.95604 0.0
C1579 C 0.47358 0.54783 0.95867 0.0
C1580 C 0.45268 0.53401 0.9434 0.0
C1581 C 0.43733 0.54957 0.92476 0.0
C1582 C 0.49184 0.53066 0.97647 0.0
C1583 C 0.4784 0.51506 0.99637 0.0
C1584 C 0.52235 0.52999 0.97408 0.0
C1585 C 0.53772 0.54547 0.95298 0.0
C1586 C 0.53035 0.54072 0.9269 0.0
C1587 C 0.54432 0.55609 0.90725 0.0
C1588 C 0.56607 0.57589 0.91335 0.0
C1589 C 0.57388 0.5804 0.93916 0.0
C1590 C 0.55981 0.56527 0.95892 0.0
C1591 C 0.5529 0.43602 0.0524 0.0
C1592 C 0.57383 0.44986 0.06772 0.0
C1593 C 0.53789 0.45144 0.03344 0.0
C1594 C 0.54338 0.48101 0.02967 0.0
C1595 C 0.56535 0.49446 0.04398 0.0
C1596 C 0.58045 0.47902 0.06288 0.0
C1597 C 0.52519 0.49826 0.01181 0.0
C1598 C 0.53864 0.51388 0.9919 0.0
C1599 C 0.4947 0.4992 0.01433 0.0
C1600 C 0.47941 0.48485 0.03608 0.0
C1601 C 0.48673 0.49127 0.06187 0.0
C1602 C 0.47253 0.4774 0.08228 0.0
C1603 C 0.45078 0.45724 0.07715 0.0
C1604 C 0.44312 0.45099 0.05159 0.0
C1605 C 0.4573 0.46476 0.03111 0.0
H1606 H 0.43981 0.44652 0.09297 0.0
H1607 H 0.57687 0.58773 0.89809 0.0
H1608 H 0.09055 0.9599 0.44001 0.0
H1609 H 0.06409 0.98651 0.4733 0.0
H1610 H 0.00481 0.91507 0.48159 0.0
H1611 H 0.03095 0.88848 0.44802 0.0
H1612 H 0.97662 0.96507 0.47442 0.0
H1613 H 0.05284 0.93139 0.5294 0.0
H1614 H 0.10333 0.92291 0.54278 0.0
H1615 H 0.11882 0.01443 0.54379 0.0
H1616 H 0.06851 0.02347 0.53006 0.0
H1617 H 0.90223 0.02351 0.58336 0.0
H1618 H 0.9298 0.99328 0.55337 0.0
H1619 H 0.99165 0.06217 0.54301 0.0
H1620 H 0.96445 0.09233 0.57332 0.0
H1621 H 0.01824 0.01174 0.55238 0.0
H1622 H 0.943 0.04539 0.49572 0.0
H1623 H 0.8927 0.0542 0.48191 0.0
H1624 H 0.87567 0.96296 0.48369 0.0
H1625 H 0.92578 0.95362 0.49785 0.0
C1626 C 0.07221 0.94964 0.44928 0.0
C1627 C 0.06273 0.92217 0.44138 0.0
C1628 C 0.05715 0.96484 0.46833 0.0
C1629 C 0.03252 0.95272 0.47995 0.0
C1630 C 0.02372 0.92481 0.47282 0.0
C1631 C 0.03875 0.90962 0.45373 0.0
C1632 C 0.01473 0.97004 0.49803 0.0
C1633 C 0.98558 0.97486 0.49174 0.0
C1634 C 0.02668 0.98345 0.52017 0.0
C1635 C 0.05695 0.97809 0.52848 0.0
C1636 C 0.06707 0.9497 0.53227 0.0
C1637 C 0.09565 0.9448 0.53996 0.0
C1638 C 0.11429 0.96811 0.54408 0.0
C1639 C 0.10437 0.99639 0.54057 0.0
C1640 C 0.07581 0.00142 0.53287 0.0
C1641 C 0.92149 0.03234 0.57443 0.0
C1642 C 0.9312 0.06027 0.58063 0.0
C1643 C 0.93721 0.01506 0.55729 0.0
C1644 C 0.9627 0.02554 0.5459 0.0
C1645 C 0.97207 0.05366 0.55166 0.0
C1646 C 0.95643 0.0709 0.56885 0.0
C1647 C 0.98019 0.00685 0.52869 0.0
C1648 C 0.00927 0.00181 0.53514 0.0
C1649 C 0.9682 0.99328 0.50665 0.0
C1650 C 0.93806 0.99884 0.49811 0.0
C1651 C 0.92846 0.02722 0.49338 0.0
C1652 C 0.9 0.03231 0.48545 0.0
C1653 C 0.88098 0.00916 0.482 0.0
C1654 C 0.89041 0.98087 0.48641 0.0
C1655 C 0.91885 0.97567 0.49437 0.0
H1656 H 0.85895 0.01314 0.47585 0.0
H1657 H 0.13641 0.96427 0.55003 0.0
H1658 H 0.6072 0.0205 0.42454 0.0
H1659 H 0.58237 0.99302 0.45843 0.0
H1660 H 0.51735 0.05972 0.46378 0.0
H1661 H 0.54202 0.08729 0.42991 0.0
H1662 H 0.53593 0.04007 0.51183 0.0
H1663 H 0.50223 0.00074 0.43105 0.0
H1664 H 0.508 0.97915 0.38773 0.0
H1665 H 0.55202 0.90629 0.42105 0.0
H1666 H 0.54687 0.92767 0.46456 0.0
H1667 H 0.42718 0.96577 0.58019 0.0
H1668 H 0.45373 0.99232 0.54694 0.0
H1669 H 0.51168 0.91987 0.53745 0.0
H1670 H 0.48455 0.89282 0.57017 0.0
H1671 H 0.49843 0.94203 0.49191 0.0
H1672 H 0.53017 0.98051 0.57332 0.0
H1673 H 0.52405 0.00233 0.61652 0.0
H1674 H 0.4844 0.0771 0.58233 0.0
H1675 H 0.48969 0.0555 0.53895 0.0
C1676 C 0.58773 0.02939 0.43308 0.0
C1677 C 0.57646 0.05596 0.42455 0.0
C1678 C 0.57354 0.01364 0.45234 0.0
C1679 C 0.54791 0.02425 0.46339 0.0
C1680 C 0.5371 0.05118 0.45545 0.0
C1681 C 0.55117 0.06684 0.43608 0.0
C1682 C 0.53193 0.00698 0.48279 0.0
C1683 C 0.52746 0.01875 0.50746 0.0
C1684 C 0.52149 0.97894 0.47714 0.0
C1685 C 0.52443 0.96595 0.45102 0.0
C1686 C 0.51335 0.98023 0.42912 0.0
C1687 C 0.51647 0.96801 0.40453 0.0
C1688 C 0.53044 0.9414 0.40163 0.0
C1689 C 0.54124 0.92692 0.42332 0.0
C1690 C 0.53821 0.93907 0.44795 0.0
C1691 C 0.44548 0.95545 0.57091 0.0
C1692 C 0.45392 0.92731 0.57783 0.0
C1693 C 0.46074 0.9707 0.55202 0.0
C1694 C 0.48507 0.95832 0.54009 0.0
C1695 C 0.49306 0.9299 0.5465 0.0
C1696 C 0.47757 0.91448 0.56519 0.0
C1697 C 0.50227 0.97512 0.52108 0.0
C1698 C 0.507 0.96327 0.49643 0.0
C1699 C 0.51301 0.0031 0.52679 0.0
C1700 C 0.51011 0.01626 0.55288 0.0
C1701 C 0.51996 0.00151 0.57501 0.0
C1702 C 0.51667 0.01385 0.59954 0.0
C1703 C 0.50385 0.04105 0.60217 0.0
C1704 C 0.49432 0.05601 0.58027 0.0
C1705 C 0.49745 0.04373 0.55571 0.0
H1706 H 0.50133 0.05056 0.62117 0.0
H1707 H 0.53284 0.93198 0.38258 0.0
H1708 H 0.53082 0.40861 0.57474 0.0
H1709 H 0.50269 0.43419 0.54201 0.0
H1710 H 0.57447 0.49182 0.5284 0.0
H1711 H 0.60265 0.46655 0.56157 0.0
H1712 H 0.52546 0.52123 0.53651 0.0
H1713 H 0.55433 0.4418 0.48311 0.0
H1714 H 0.56118 0.39059 0.4713 0.0
H1715 H 0.46949 0.37664 0.47561 0.0
H1716 H 0.46211 0.42769 0.48779 0.0
H1717 H 0.46665 0.58862 0.42427 0.0
H1718 H 0.49547 0.56338 0.45678 0.0
H1719 H 0.42396 0.50595 0.47208 0.0
H1720 H 0.39506 0.53093 0.43925 0.0
H1721 H 0.47328 0.47659 0.46281 0.0
H1722 H 0.4446 0.55612 0.51648 0.0
H1723 H 0.43793 0.60737 0.5282 0.0
H1724 H 0.5296 0.62117 0.52317 0.0
H1725 H 0.53679 0.57008 0.51106 0.0
C1726 C 0.54083 0.42639 0.56445 0.0
C1727 C 0.5689 0.43565 0.57074 0.0
C1728 C 0.52474 0.44095 0.54569 0.0
C1729 C 0.53652 0.46485 0.53272 0.0
C1730 C 0.56498 0.47344 0.53824 0.0
C1731 C 0.5811 0.4589 0.55706 0.0
C1732 C 0.51837 0.48207 0.51482 0.0
C1733 C 0.51443 0.51159 0.52011 0.0
C1734 C 0.50333 0.46925 0.49394 0.0
C1735 C 0.50769 0.43853 0.48659 0.0
C1736 C 0.53564 0.42776 0.48175 0.0
C1737 C 0.53962 0.39877 0.47494 0.0
C1738 C 0.51579 0.38036 0.47277 0.0
C1739 C 0.48793 0.39092 0.47733 0.0
C1740 C 0.48383 0.41989 0.48415 0.0
C1741 C 0.45686 0.57097 0.43491 0.0
C1742 C 0.42864 0.56167 0.42919 0.0
C1743 C 0.47335 0.5566 0.45351 0.0
C1744 C 0.46183 0.53282 0.46685 0.0
C1745 C 0.43324 0.52422 0.46193 0.0
C1746 C 0.41672 0.53861 0.4433 0.0
C1747 C 0.48034 0.51571 0.48453 0.0
C1748 C 0.48434 0.48622 0.47919 0.0
C1749 C 0.49547 0.52856 0.50534 0.0
C1750 C 0.4912 0.55932 0.51261 0.0
C1751 C 0.46332 0.57013 0.51765 0.0
C1752 C 0.45945 0.59915 0.52441 0.0
C1753 C 0.48332 0.61753 0.52637 0.0
C1754 C 0.51112 0.60692 0.52162 0.0
C1755 C 0.51511 0.57792 0.51483 0.0
H1756 H 0.48027 0.63999 0.53161 0.0
H1757 H 0.51892 0.35792 0.46749 0.0
H1758 H 0.97716 0.40602 0.42809 0.0
H1759 H 0.00828 0.43476 0.45631 0.0
H1760 H 0.95218 0.5085 0.44589 0.0
H1761 H 0.92142 0.48005 0.41697 0.0
H1762 H 0.00693 0.52471 0.44301 0.0
H1763 H 0.95054 0.46739 0.5017 0.0
H1764 H 0.92995 0.42255 0.5198 0.0
H1765 H 0.01544 0.39018 0.53468 0.0
H1766 H 0.03655 0.43469 0.51635 0.0
H1767 H 0.04918 0.60458 0.55553 0.0
H1768 H 0.0252 0.57847 0.52043 0.0
H1769 H 0.08672 0.50879 0.52815 0.0
H1770 H 0.11072 0.53469 0.56334 0.0
H1771 H 0.03108 0.49032 0.53135 0.0
H1772 H 0.08691 0.55055 0.47472 0.0
H1773 H 0.10602 0.59651 0.45763 0.0
H1774 H 0.01974 0.62495 0.44025 0.0
H1775 H 6e-05 0.57931 0.45758 0.0
C1776 C 0.97134 0.4283 0.43198 0.0
C1777 C 0.94672 0.44075 0.42059 0.0
C1778 C 0.98914 0.4447 0.44809 0.0
C1779 C 0.98234 0.47367 0.45348 0.0
C1780 C 0.95781 0.48618 0.44201 0.0
C1781 C 0.94017 0.46987 0.42565 0.0
C1782 C 0.00074 0.49089 0.47118 0.0
C1783 C 0.01196 0.51737 0.46244 0.0
C1784 C 0.00777 0.48101 0.49633 0.0
C1785 C 0.99513 0.45424 0.50741 0.0
C1786 C 0.96495 0.45061 0.50865 0.0
C1787 C 0.95319 0.42528 0.51898 0.0
C1788 C 0.97138 0.4035 0.52832 0.0
C1789 C 0.00137 0.40705 0.5274 0.0
C1790 C 0.01325 0.43233 0.51706 0.0
C1791 C 0.05797 0.58398 0.54937 0.0
C1792 C 0.08169 0.57157 0.56227 0.0
C1793 C 0.0443 0.56913 0.52927 0.0
C1794 C 0.05421 0.54171 0.52172 0.0
C1795 C 0.07874 0.52992 0.53374 0.0
C1796 C 0.09246 0.54478 0.55378 0.0
C1797 C 0.03731 0.52412 0.5032 0.0
C1798 C 0.02625 0.49758 0.51185 0.0
C1799 C 0.03021 0.53413 0.47813 0.0
C1800 C 0.042 0.56159 0.46767 0.0
C1801 C 0.07199 0.5667 0.46746 0.0
C1802 C 0.08293 0.59268 0.45769 0.0
C1803 C 0.06411 0.61367 0.44792 0.0
C1804 C 0.0343 0.60869 0.44785 0.0
C1805 C 0.02324 0.58275 0.45762 0.0
H1806 H 0.07262 0.63376 0.44036 0.0
H1807 H 0.96223 0.3839 0.53632 0.0
loop_
_geom_bond_atom_site_label_1
_geom_bond_atom_site_label_2
_geom_bond_distance
_geom_bond_site_symmetry_2
_ccdc_geom_bond_type
In0 O1 2.294 . S
In0 O2 2.326 . S
In0 O6 2.266 . S
In0 O7 2.326 . S
In0 O8 2.266 . S
In0 O9 2.326 . S
In0 O11 2.294 . S
In0 O12 2.326 . S
O1 In0 2.294 . S
O1 C10 1.240 . S
O2 In0 2.326 . S
O2 C10 1.252 . S
C3 O6 1.252 . S
C3 O7 1.260 . S
C4 O11 1.240 . S
C4 O12 1.252 . S
C5 O8 1.252 . S
C5 O9 1.260 . S
O6 In0 2.266 . S
O6 C3 1.252 . S
O7 In0 2.326 . S
O7 C3 1.260 . S
O8 In0 2.266 . S
O8 C5 1.252 . S
O9 In0 2.326 . S
O9 C5 1.260 . S
C10 O1 1.240 . S
C10 O2 1.252 . S
O11 In0 2.294 . S
O11 C4 1.240 . S
O12 In0 2.326 . S
O12 C4 1.252 . S
In13 O14 2.294 . S
In13 O15 2.326 . S
In13 O19 2.266 . S
In13 O20 2.326 . S
In13 O21 2.266 . S
In13 O22 2.326 . S
In13 O24 2.294 . S
In13 O25 2.326 . S
O14 In13 2.294 . S
O14 C23 1.240 . S
O15 In13 2.326 . S
O15 C23 1.252 . S
C16 O19 1.252 . S
C16 O20 1.260 . S
C17 O24 1.240 . S
C17 O25 1.252 . S
C18 O21 1.252 . S
C18 O22 1.260 . S
O19 In13 2.266 . S
O19 C16 1.252 . S
O20 In13 2.326 . S
O20 C16 1.260 . S
O21 In13 2.266 . S
O21 C18 1.252 . S
O22 In13 2.326 . S
O22 C18 1.260 . S
C23 O14 1.240 . S
C23 O15 1.252 . S
O24 In13 2.294 . S
O24 C17 1.240 . S
O25 In13 2.326 . S
O25 C17 1.252 . S
In26 O27 2.294 . S
In26 O28 2.326 . S
In26 O32 2.266 . S
In26 O33 2.326 . S
In26 O34 2.266 . S
In26 O35 2.326 . S
In26 O37 2.294 . S
In26 O38 2.326 . S
O27 In26 2.294 . S
O27 C36 1.240 . S
O28 In26 2.326 . S
O28 C36 1.252 . S
C29 O32 1.252 . S
C29 O33 1.260 . S
C30 O37 1.240 . S
C30 O38 1.252 . S
C31 O34 1.252 . S
C31 O35 1.260 . S
O32 In26 2.266 . S
O32 C29 1.252 . S
O33 In26 2.326 . S
O33 C29 1.260 . S
O34 In26 2.266 . S
O34 C31 1.252 . S
O35 In26 2.326 . S
O35 C31 1.260 . S
C36 O27 1.240 . S
C36 O28 1.252 . S
O37 In26 2.294 . S
O37 C30 1.240 . S
O38 In26 2.326 . S
O38 C30 1.252 . S
In39 O40 2.294 . S
In39 O41 2.326 . S
In39 O45 2.266 . S
In39 O46 2.326 . S
In39 O47 2.266 . S
In39 O48 2.326 . S
In39 O50 2.294 . S
In39 O51 2.326 . S
O40 In39 2.294 . S
O40 C49 1.240 . S
O41 In39 2.326 . S
O41 C49 1.252 . S
C42 O45 1.252 . S
C42 O46 1.260 . S
C43 O50 1.240 . S
C43 O51 1.252 . S
C44 O47 1.252 . S
C44 O48 1.260 . S
O45 In39 2.266 . S
O45 C42 1.252 . S
O46 In39 2.326 . S
O46 C42 1.260 . S
O47 In39 2.266 . S
O47 C44 1.252 . S
O48 In39 2.326 . S
O48 C44 1.260 . S
C49 O40 1.240 . S
C49 O41 1.252 . S
O50 In39 2.294 . S
O50 C43 1.240 . S
O51 In39 2.326 . S
O51 C43 1.252 . S
In52 O53 2.294 . S
In52 O54 2.326 . S
In52 O58 2.266 . S
In52 O59 2.326 . S
In52 O60 2.266 . S
In52 O61 2.326 . S
In52 O63 2.294 . S
In52 O64 2.326 . S
O53 In52 2.294 . S
O53 C62 1.240 . S
O54 In52 2.326 . S
O54 C62 1.252 . S
C55 O58 1.252 . S
C55 O59 1.260 . S
C56 O63 1.240 . S
C56 O64 1.252 . S
C57 O60 1.252 . S
C57 O61 1.260 . S
O58 In52 2.266 . S
O58 C55 1.252 . S
O59 In52 2.326 . S
O59 C55 1.260 . S
O60 In52 2.266 . S
O60 C57 1.252 . S
O61 In52 2.326 . S
O61 C57 1.260 . S
C62 O53 1.240 . S
C62 O54 1.252 . S
O63 In52 2.294 . S
O63 C56 1.240 . S
O64 In52 2.326 . S
O64 C56 1.252 . S
In65 O66 2.294 . S
In65 O67 2.326 . S
In65 O71 2.266 . S
In65 O72 2.326 . S
In65 O73 2.266 . S
In65 O74 2.326 . S
In65 O76 2.294 . S
In65 O77 2.326 . S
O66 In65 2.294 . S
O66 C75 1.240 . S
O67 In65 2.326 . S
O67 C75 1.252 . S
C68 O71 1.252 . S
C68 O72 1.260 . S
C69 O76 1.240 . S
C69 O77 1.252 . S
C70 O73 1.252 . S
C70 O74 1.260 . S
O71 In65 2.266 . S
O71 C68 1.252 . S
O72 In65 2.326 . S
O72 C68 1.260 . S
O73 In65 2.266 . S
O73 C70 1.252 . S
O74 In65 2.326 . S
O74 C70 1.260 . S
C75 O66 1.240 . S
C75 O67 1.252 . S
O76 In65 2.294 . S
O76 C69 1.240 . S
O77 In65 2.326 . S
O77 C69 1.252 . S
In78 O79 2.294 . S
In78 O80 2.326 . S
In78 O84 2.266 . S
In78 O85 2.326 . S
In78 O86 2.266 . S
In78 O87 2.326 . S
In78 O89 2.294 . S
In78 O90 2.326 . S
O79 In78 2.294 . S
O79 C88 1.240 . S
O80 In78 2.326 . S
O80 C88 1.252 . S
C81 O84 1.252 . S
C81 O85 1.260 . S
C82 O89 1.240 . S
C82 O90 1.252 . S
C83 O86 1.252 . S
C83 O87 1.260 . S
O84 In78 2.266 . S
O84 C81 1.252 . S
O85 In78 2.326 . S
O85 C81 1.260 . S
O86 In78 2.266 . S
O86 C83 1.252 . S
O87 In78 2.326 . S
O87 C83 1.260 . S
C88 O79 1.240 . S
C88 O80 1.252 . S
O89 In78 2.294 . S
O89 C82 1.240 . S
O90 In78 2.326 . S
O90 C82 1.252 . S
In91 O92 2.294 . S
In91 O93 2.326 . S
In91 O97 2.266 . S
In91 O98 2.326 . S
In91 O99 2.266 . S
In91 O100 2.326 . S
In91 O102 2.294 . S
In91 O103 2.326 . S
O92 In91 2.294 . S
O92 C101 1.240 . S
O93 In91 2.326 . S
O93 C101 1.252 . S
C94 O97 1.252 . S
C94 O98 1.260 . S
C95 O102 1.240 . S
C95 O103 1.252 . S
C96 O99 1.252 . S
C96 O100 1.260 . S
O97 In91 2.266 . S
O97 C94 1.252 . S
O98 In91 2.326 . S
O98 C94 1.260 . S
O99 In91 2.266 . S
O99 C96 1.252 . S
O100 In91 2.326 . S
O100 C96 1.260 . S
C101 O92 1.240 . S
C101 O93 1.252 . S
O102 In91 2.294 . S
O102 C95 1.240 . S
O103 In91 2.326 . S
O103 C95 1.252 . S
In104 O105 2.294 . S
In104 O106 2.326 . S
In104 O110 2.266 . S
In104 O111 2.326 . S
In104 O112 2.266 . S
In104 O113 2.326 . S
In104 O115 2.294 . S
In104 O116 2.326 . S
O105 In104 2.294 . S
O105 C114 1.240 . S
O106 In104 2.326 . S
O106 C114 1.252 . S
C107 O110 1.252 . S
C107 O111 1.260 . S
C108 O115 1.240 . S
C108 O116 1.252 . S
C109 O112 1.252 . S
C109 O113 1.260 . S
O110 In104 2.266 . S
O110 C107 1.252 . S
O111 In104 2.326 . S
O111 C107 1.260 . S
O112 In104 2.266 . S
O112 C109 1.252 . S
O113 In104 2.326 . S
O113 C109 1.260 . S
C114 O105 1.240 . S
C114 O106 1.252 . S
O115 In104 2.294 . S
O115 C108 1.240 . S
O116 In104 2.326 . S
O116 C108 1.252 . S
In117 O118 2.294 . S
In117 O119 2.326 . S
In117 O123 2.266 . S
In117 O124 2.326 . S
In117 O125 2.266 . S
In117 O126 2.326 . S
In117 O128 2.294 . S
In117 O129 2.326 . S
O118 In117 2.294 . S
O118 C127 1.240 . S
O119 In117 2.326 . S
O119 C127 1.252 . S
C120 O123 1.252 . S
C120 O124 1.260 . S
C121 O128 1.240 . S
C121 O129 1.252 . S
C122 O125 1.252 . S
C122 O126 1.260 . S
O123 In117 2.266 . S
O123 C120 1.252 . S
O124 In117 2.326 . S
O124 C120 1.260 . S
O125 In117 2.266 . S
O125 C122 1.252 . S
O126 In117 2.326 . S
O126 C122 1.260 . S
C127 O118 1.240 . S
C127 O119 1.252 . S
O128 In117 2.294 . S
O128 C121 1.240 . S
O129 In117 2.326 . S
O129 C121 1.252 . S
In130 O131 2.294 . S
In130 O132 2.326 . S
In130 O136 2.266 . S
In130 O137 2.326 . S
In130 O138 2.266 . S
In130 O139 2.326 . S
In130 O141 2.294 . S
In130 O142 2.326 . S
O131 In130 2.294 . S
O131 C140 1.240 . S
O132 In130 2.326 . S
O132 C140 1.252 . S
C133 O136 1.252 . S
C133 O137 1.260 . S
C134 O141 1.240 . S
C134 O142 1.252 . S
C135 O138 1.252 . S
C135 O139 1.260 . S
O136 In130 2.266 . S
O136 C133 1.252 . S
O137 In130 2.326 . S
O137 C133 1.260 . S
O138 In130 2.266 . S
O138 C135 1.252 . S
O139 In130 2.326 . S
O139 C135 1.260 . S
C140 O131 1.240 . S
C140 O132 1.252 . S
O141 In130 2.294 . S
O141 C134 1.240 . S
O142 In130 2.326 . S
O142 C134 1.252 . S
In143 O144 2.294 . S
In143 O145 2.326 . S
In143 O149 2.266 . S
In143 O150 2.326 . S
In143 O151 2.266 . S
In143 O152 2.326 . S
In143 O154 2.294 . S
In143 O155 2.326 . S
O144 In143 2.294 . S
O144 C153 1.240 . S
O145 In143 2.326 . S
O145 C153 1.252 . S
C146 O149 1.252 . S
C146 O150 1.260 . S
C147 O154 1.240 . S
C147 O155 1.252 . S
C148 O151 1.252 . S
C148 O152 1.260 . S
O149 In143 2.266 . S
O149 C146 1.252 . S
O150 In143 2.326 . S
O150 C146 1.260 . S
O151 In143 2.266 . S
O151 C148 1.252 . S
O152 In143 2.326 . S
O152 C148 1.260 . S
C153 O144 1.240 . S
C153 O145 1.252 . S
O154 In143 2.294 . S
O154 C147 1.240 . S
O155 In143 2.326 . S
O155 C147 1.252 . S
In156 O157 2.294 . S
In156 O158 2.326 . S
In156 O162 2.266 . S
In156 O163 2.326 . S
In156 O164 2.266 . S
In156 O165 2.326 . S
In156 O167 2.294 . S
In156 O168 2.326 . S
O157 In156 2.294 . S
O157 C166 1.240 . S
O158 In156 2.326 . S
O158 C166 1.252 . S
C159 O162 1.252 . S
C159 O163 1.260 . S
C160 O167 1.240 . S
C160 O168 1.252 . S
C161 O164 1.252 . S
C161 O165 1.260 . S
O162 In156 2.266 . S
O162 C159 1.252 . S
O163 In156 2.326 . S
O163 C159 1.260 . S
O164 In156 2.266 . S
O164 C161 1.252 . S
O165 In156 2.326 . S
O165 C161 1.260 . S
C166 O157 1.240 . S
C166 O158 1.252 . S
O167 In156 2.294 . S
O167 C160 1.240 . S
O168 In156 2.326 . S
O168 C160 1.252 . S
In169 O170 2.294 . S
In169 O171 2.326 . S
In169 O175 2.266 . S
In169 O176 2.326 . S
In169 O177 2.266 . S
In169 O178 2.326 . S
In169 O180 2.294 . S
In169 O181 2.326 . S
O170 In169 2.294 . S
O170 C179 1.240 . S
O171 In169 2.326 . S
O171 C179 1.252 . S
C172 O175 1.252 . S
C172 O176 1.260 . S
C173 O180 1.240 . S
C173 O181 1.252 . S
C174 O177 1.252 . S
C174 O178 1.260 . S
O175 In169 2.266 . S
O175 C172 1.252 . S
O176 In169 2.326 . S
O176 C172 1.260 . S
O177 In169 2.266 . S
O177 C174 1.252 . S
O178 In169 2.326 . S
O178 C174 1.260 . S
C179 O170 1.240 . S
C179 O171 1.252 . S
O180 In169 2.294 . S
O180 C173 1.240 . S
O181 In169 2.326 . S
O181 C173 1.252 . S
In182 O183 2.294 . S
In182 O184 2.326 . S
In182 O188 2.266 . S
In182 O189 2.326 . S
In182 O190 2.266 . S
In182 O191 2.326 . S
In182 O193 2.294 . S
In182 O194 2.326 . S
O183 In182 2.294 . S
O183 C192 1.240 . S
O184 In182 2.326 . S
O184 C192 1.252 . S
C185 O188 1.252 . S
C185 O189 1.260 . S
C186 O193 1.240 . S
C186 O194 1.252 . S
C187 O190 1.252 . S
C187 O191 1.260 . S
O188 In182 2.266 . S
O188 C185 1.252 . S
O189 In182 2.326 . S
O189 C185 1.260 . S
O190 In182 2.266 . S
O190 C187 1.252 . S
O191 In182 2.326 . S
O191 C187 1.260 . S
C192 O183 1.240 . S
C192 O184 1.252 . S
O193 In182 2.294 . S
O193 C186 1.240 . S
O194 In182 2.326 . S
O194 C186 1.252 . S
In195 O196 2.294 . S
In195 O197 2.326 . S
In195 O201 2.266 . S
In195 O202 2.326 . S
In195 O203 2.266 . S
In195 O204 2.326 . S
In195 O206 2.294 . S
In195 O207 2.326 . S
O196 In195 2.294 . S
O196 C205 1.240 . S
O197 In195 2.326 . S
O197 C205 1.252 . S
C198 O201 1.252 . S
C198 O202 1.260 . S
C199 O206 1.240 . S
C199 O207 1.252 . S
C200 O203 1.252 . S
C200 O204 1.260 . S
O201 In195 2.266 . S
O201 C198 1.252 . S
O202 In195 2.326 . S
O202 C198 1.260 . S
O203 In195 2.266 . S
O203 C200 1.252 . S
O204 In195 2.326 . S
O204 C200 1.260 . S
C205 O196 1.240 . S
C205 O197 1.252 . S
O206 In195 2.294 . S
O206 C199 1.240 . S
O207 In195 2.326 . S
O207 C199 1.252 . S
H208 C226 0.951 . S
H209 C228 0.951 . S
H210 C230 0.950 . S
H211 C231 0.950 . S
H212 C233 0.950 . S
H213 C236 0.950 . S
H214 C237 0.950 . S
H215 C239 0.950 . S
H216 C240 0.950 . S
H217 C241 0.951 . S
H218 C243 0.951 . S
H219 C245 0.950 . S
H220 C246 0.950 . S
H221 C248 0.950 . S
H222 C251 0.950 . S
H223 C252 0.950 . S
H224 C254 0.950 . S
H225 C255 0.950 . S
C226 H208 0.951 . S
C226 C227 1.366 . S
C226 C228 1.388 . S
C227 C226 1.366 . S
C227 C231 1.385 . S
C228 H209 0.951 . S
C228 C226 1.388 . S
C228 C229 1.366 . S
C229 C228 1.366 . S
C229 C230 1.414 . S
C229 C232 1.499 . S
C230 H210 0.950 . S
C230 C229 1.414 . S
C230 C231 1.374 . S
C231 H211 0.950 . S
C231 C227 1.385 . S
C231 C230 1.374 . S
C232 C229 1.499 . S
C232 C233 1.373 . S
C232 C234 1.389 . S
C233 H212 0.950 . S
C233 C232 1.373 . S
C233 C249 1.377 . S
C234 C232 1.389 . S
C234 C235 1.524 . S
C234 C248 1.377 . S
C235 C234 1.524 . S
C235 C236 1.397 . S
C235 C240 1.363 . S
C236 H213 0.950 . S
C236 C235 1.397 . S
C236 C237 1.334 . S
C237 H214 0.950 . S
C237 C236 1.334 . S
C237 C238 1.287 . S
C238 C237 1.287 . S
C238 C239 1.524 . S
C238 H257 0.913 . S
C239 H215 0.950 . S
C239 C238 1.524 . S
C239 C240 1.415 . S
C240 H216 0.950 . S
C240 C235 1.363 . S
C240 C239 1.415 . S
C241 H217 0.951 . S
C241 C242 1.366 . S
C241 C243 1.388 . S
C242 C241 1.366 . S
C242 C246 1.385 . S
C243 H218 0.951 . S
C243 C241 1.388 . S
C243 C244 1.366 . S
C244 C243 1.366 . S
C244 C245 1.414 . S
C244 C247 1.499 . S
C245 H219 0.950 . S
C245 C244 1.414 . S
C245 C246 1.374 . S
C246 H220 0.950 . S
C246 C242 1.385 . S
C246 C245 1.374 . S
C247 C244 1.499 . S
C247 C248 1.373 . S
C247 C249 1.389 . S
C248 H221 0.950 . S
C248 C234 1.377 . S
C248 C247 1.373 . S
C249 C233 1.377 . S
C249 C247 1.389 . S
C249 C250 1.524 . S
C250 C249 1.524 . S
C250 C251 1.397 . S
C250 C255 1.363 . S
C251 H222 0.950 . S
C251 C250 1.397 . S
C251 C252 1.334 . S
C252 H223 0.950 . S
C252 C251 1.334 . S
C252 C253 1.287 . S
C253 C252 1.287 . S
C253 C254 1.524 . S
C253 H256 0.999 . S
C254 H224 0.950 . S
C254 C253 1.524 . S
C254 C255 1.415 . S
C255 H225 0.950 . S
C255 C250 1.363 . S
C255 C254 1.415 . S
H256 C253 0.999 . S
H257 C238 0.913 . S
H258 C276 0.951 . S
H259 C278 0.951 . S
H260 C280 0.950 . S
H261 C281 0.950 . S
H262 C283 0.950 . S
H263 C286 0.950 . S
H264 C287 0.950 . S
H265 C289 0.950 . S
H266 C290 0.950 . S
H267 C291 0.951 . S
H268 C293 0.951 . S
H269 C295 0.950 . S
H270 C296 0.950 . S
H271 C298 0.950 . S
H272 C301 0.950 . S
H273 C302 0.950 . S
H274 C304 0.950 . S
H275 C305 0.950 . S
C276 H258 0.951 . S
C276 C277 1.366 . S
C276 C278 1.388 . S
C277 C276 1.366 . S
C277 C281 1.385 . S
C278 H259 0.951 . S
C278 C276 1.388 . S
C278 C279 1.366 . S
C279 C278 1.366 . S
C279 C280 1.414 . S
C279 C282 1.499 . S
C280 H260 0.950 . S
C280 C279 1.414 . S
C280 C281 1.374 . S
C281 H261 0.950 . S
C281 C277 1.385 . S
C281 C280 1.374 . S
C282 C279 1.499 . S
C282 C283 1.373 . S
C282 C284 1.389 . S
C283 H262 0.950 . S
C283 C282 1.373 . S
C283 C299 1.377 . S
C284 C282 1.389 . S
C284 C285 1.524 . S
C284 C298 1.377 . S
C285 C284 1.524 . S
C285 C286 1.397 . S
C285 C290 1.363 . S
C286 H263 0.950 . S
C286 C285 1.397 . S
C286 C287 1.334 . S
C287 H264 0.950 . S
C287 C286 1.334 . S
C287 C288 1.287 . S
C288 C287 1.287 . S
C288 C289 1.524 . S
C288 H307 0.913 . S
C289 H265 0.950 . S
C289 C288 1.524 . S
C289 C290 1.415 . S
C290 H266 0.950 . S
C290 C285 1.363 . S
C290 C289 1.415 . S
C291 H267 0.951 . S
C291 C292 1.366 . S
C291 C293 1.388 . S
C292 C291 1.366 . S
C292 C296 1.385 . S
C293 H268 0.951 . S
C293 C291 1.388 . S
C293 C294 1.366 . S
C294 C293 1.366 . S
C294 C295 1.414 . S
C294 C297 1.499 . S
C295 H269 0.950 . S
C295 C294 1.414 . S
C295 C296 1.374 . S
C296 H270 0.950 . S
C296 C292 1.385 . S
C296 C295 1.374 . S
C297 C294 1.499 . S
C297 C298 1.373 . S
C297 C299 1.389 . S
C298 H271 0.950 . S
C298 C284 1.377 . S
C298 C297 1.373 . S
C299 C283 1.377 . S
C299 C297 1.389 . S
C299 C300 1.524 . S
C300 C299 1.524 . S
C300 C301 1.397 . S
C300 C305 1.363 . S
C301 H272 0.950 . S
C301 C300 1.397 . S
C301 C302 1.334 . S
C302 H273 0.950 . S
C302 C301 1.334 . S
C302 C303 1.287 . S
C303 C302 1.287 . S
C303 C304 1.524 . S
C303 H306 0.999 . S
C304 H274 0.950 . S
C304 C303 1.524 . S
C304 C305 1.415 . S
C305 H275 0.950 . S
C305 C300 1.363 . S
C305 C304 1.415 . S
H306 C303 0.999 . S
H307 C288 0.913 . S
H308 C326 0.951 . S
H309 C328 0.951 . S
H310 C330 0.950 . S
H311 C331 0.950 . S
H312 C333 0.950 . S
H313 C336 0.950 . S
H314 C337 0.950 . S
H315 C339 0.950 . S
H316 C340 0.950 . S
H317 C341 0.951 . S
H318 C343 0.951 . S
H319 C345 0.950 . S
H320 C346 0.950 . S
H321 C348 0.950 . S
H322 C351 0.950 . S
H323 C352 0.950 . S
H324 C354 0.950 . S
H325 C355 0.950 . S
C326 H308 0.951 . S
C326 C327 1.366 . S
C326 C328 1.388 . S
C327 C326 1.366 . S
C327 C331 1.385 . S
C328 H309 0.951 . S
C328 C326 1.388 . S
C328 C329 1.366 . S
C329 C328 1.366 . S
C329 C330 1.414 . S
C329 C332 1.499 . S
C330 H310 0.950 . S
C330 C329 1.414 . S
C330 C331 1.374 . S
C331 H311 0.950 . S
C331 C327 1.385 . S
C331 C330 1.374 . S
C332 C329 1.499 . S
C332 C333 1.373 . S
C332 C334 1.389 . S
C333 H312 0.950 . S
C333 C332 1.373 . S
C333 C349 1.377 . S
C334 C332 1.389 . S
C334 C335 1.524 . S
C334 C348 1.377 . S
C335 C334 1.524 . S
C335 C336 1.397 . S
C335 C340 1.363 . S
C336 H313 0.950 . S
C336 C335 1.397 . S
C336 C337 1.334 . S
C337 H314 0.950 . S
C337 C336 1.334 . S
C337 C338 1.287 . S
C338 C337 1.287 . S
C338 C339 1.524 . S
C338 H357 0.913 . S
C339 H315 0.950 . S
C339 C338 1.524 . S
C339 C340 1.415 . S
C340 H316 0.950 . S
C340 C335 1.363 . S
C340 C339 1.415 . S
C341 H317 0.951 . S
C341 C342 1.366 . S
C341 C343 1.388 . S
C342 C341 1.366 . S
C342 C346 1.385 . S
C343 H318 0.951 . S
C343 C341 1.388 . S
C343 C344 1.366 . S
C344 C343 1.366 . S
C344 C345 1.414 . S
C344 C347 1.499 . S
C345 H319 0.950 . S
C345 C344 1.414 . S
C345 C346 1.374 . S
C346 H320 0.950 . S
C346 C342 1.385 . S
C346 C345 1.374 . S
C347 C344 1.499 . S
C347 C348 1.373 . S
C347 C349 1.389 . S
C348 H321 0.950 . S
C348 C334 1.377 . S
C348 C347 1.373 . S
C349 C333 1.377 . S
C349 C347 1.389 . S
C349 C350 1.524 . S
C350 C349 1.524 . S
C350 C351 1.397 . S
C350 C355 1.363 . S
C351 H322 0.950 . S
C351 C350 1.397 . S
C351 C352 1.334 . S
C352 H323 0.950 . S
C352 C351 1.334 . S
C352 C353 1.287 . S
C353 C352 1.287 . S
C353 C354 1.524 . S
C353 H356 0.999 . S
C354 H324 0.950 . S
C354 C353 1.524 . S
C354 C355 1.415 . S
C355 H325 0.950 . S
C355 C350 1.363 . S
C355 C354 1.415 . S
H356 C353 0.999 . S
H357 C338 0.913 . S
H358 C376 0.951 . S
H359 C378 0.951 . S
H360 C380 0.950 . S
H361 C381 0.950 . S
H362 C383 0.950 . S
H363 C386 0.950 . S
H364 C387 0.950 . S
H365 C389 0.950 . S
H366 C390 0.950 . S
H367 C391 0.951 . S
H368 C393 0.951 . S
H369 C395 0.950 . S
H370 C396 0.950 . S
H371 C398 0.950 . S
H372 C401 0.950 . S
H373 C402 0.950 . S
H374 C404 0.950 . S
H375 C405 0.950 . S
C376 H358 0.951 . S
C376 C377 1.366 . S
C376 C378 1.388 . S
C377 C376 1.366 . S
C377 C381 1.385 . S
C378 H359 0.951 . S
C378 C376 1.388 . S
C378 C379 1.366 . S
C379 C378 1.366 . S
C379 C380 1.414 . S
C379 C382 1.499 . S
C380 H360 0.950 . S
C380 C379 1.414 . S
C380 C381 1.374 . S
C381 H361 0.950 . S
C381 C377 1.385 . S
C381 C380 1.374 . S
C382 C379 1.499 . S
C382 C383 1.373 . S
C382 C384 1.389 . S
C383 H362 0.950 . S
C383 C382 1.373 . S
C383 C399 1.377 . S
C384 C382 1.389 . S
C384 C385 1.524 . S
C384 C398 1.377 . S
C385 C384 1.524 . S
C385 C386 1.397 . S
C385 C390 1.363 . S
C386 H363 0.950 . S
C386 C385 1.397 . S
C386 C387 1.334 . S
C387 H364 0.950 . S
C387 C386 1.334 . S
C387 C388 1.287 . S
C388 C387 1.287 . S
C388 C389 1.524 . S
C388 H407 0.913 . S
C389 H365 0.950 . S
C389 C388 1.524 . S
C389 C390 1.415 . S
C390 H366 0.950 . S
C390 C385 1.363 . S
C390 C389 1.415 . S
C391 H367 0.951 . S
C391 C392 1.366 . S
C391 C393 1.388 . S
C392 C391 1.366 . S
C392 C396 1.385 . S
C393 H368 0.951 . S
C393 C391 1.388 . S
C393 C394 1.366 . S
C394 C393 1.366 . S
C394 C395 1.414 . S
C394 C397 1.499 . S
C395 H369 0.950 . S
C395 C394 1.414 . S
C395 C396 1.374 . S
C396 H370 0.950 . S
C396 C392 1.385 . S
C396 C395 1.374 . S
C397 C394 1.499 . S
C397 C398 1.373 . S
C397 C399 1.389 . S
C398 H371 0.950 . S
C398 C384 1.377 . S
C398 C397 1.373 . S
C399 C383 1.377 . S
C399 C397 1.389 . S
C399 C400 1.524 . S
C400 C399 1.524 . S
C400 C401 1.397 . S
C400 C405 1.363 . S
C401 H372 0.950 . S
C401 C400 1.397 . S
C401 C402 1.334 . S
C402 H373 0.950 . S
C402 C401 1.334 . S
C402 C403 1.287 . S
C403 C402 1.287 . S
C403 C404 1.524 . S
C403 H406 0.999 . S
C404 H374 0.950 . S
C404 C403 1.524 . S
C404 C405 1.415 . S
C405 H375 0.950 . S
C405 C400 1.363 . S
C405 C404 1.415 . S
H406 C403 0.999 . S
H407 C388 0.913 . S
H408 C426 0.951 . S
H409 C428 0.951 . S
H410 C430 0.950 . S
H411 C431 0.950 . S
H412 C433 0.950 . S
H413 C436 0.950 . S
H414 C437 0.950 . S
H415 C439 0.950 . S
H416 C440 0.950 . S
H417 C441 0.951 . S
H418 C443 0.951 . S
H419 C445 0.950 . S
H420 C446 0.950 . S
H421 C448 0.950 . S
H422 C451 0.950 . S
H423 C452 0.950 . S
H424 C454 0.950 . S
H425 C455 0.950 . S
C426 H408 0.951 . S
C426 C427 1.366 . S
C426 C428 1.388 . S
C427 C426 1.366 . S
C427 C431 1.385 . S
C428 H409 0.951 . S
C428 C426 1.388 . S
C428 C429 1.366 . S
C429 C428 1.366 . S
C429 C430 1.414 . S
C429 C432 1.499 . S
C430 H410 0.950 . S
C430 C429 1.414 . S
C430 C431 1.374 . S
C431 H411 0.950 . S
C431 C427 1.385 . S
C431 C430 1.374 . S
C432 C429 1.499 . S
C432 C433 1.373 . S
C432 C434 1.389 . S
C433 H412 0.950 . S
C433 C432 1.373 . S
C433 C449 1.377 . S
C434 C432 1.389 . S
C434 C435 1.524 . S
C434 C448 1.377 . S
C435 C434 1.524 . S
C435 C436 1.397 . S
C435 C440 1.363 . S
C436 H413 0.950 . S
C436 C435 1.397 . S
C436 C437 1.334 . S
C437 H414 0.950 . S
C437 C436 1.334 . S
C437 C438 1.287 . S
C438 C437 1.287 . S
C438 C439 1.524 . S
C438 H457 0.913 . S
C439 H415 0.950 . S
C439 C438 1.524 . S
C439 C440 1.415 . S
C440 H416 0.950 . S
C440 C435 1.363 . S
C440 C439 1.415 . S
C441 H417 0.951 . S
C441 C442 1.366 . S
C441 C443 1.388 . S
C442 C441 1.366 . S
C442 C446 1.385 . S
C443 H418 0.951 . S
C443 C441 1.388 . S
C443 C444 1.366 . S
C444 C443 1.366 . S
C444 C445 1.414 . S
C444 C447 1.499 . S
C445 H419 0.950 . S
C445 C444 1.414 . S
C445 C446 1.374 . S
C446 H420 0.950 . S
C446 C442 1.385 . S
C446 C445 1.374 . S
C447 C444 1.499 . S
C447 C448 1.373 . S
C447 C449 1.389 . S
C448 H421 0.950 . S
C448 C434 1.377 . S
C448 C447 1.373 . S
C449 C433 1.377 . S
C449 C447 1.389 . S
C449 C450 1.524 . S
C450 C449 1.524 . S
C450 C451 1.397 . S
C450 C455 1.363 . S
C451 H422 0.950 . S
C451 C450 1.397 . S
C451 C452 1.334 . S
C452 H423 0.950 . S
C452 C451 1.334 . S
C452 C453 1.287 . S
C453 C452 1.287 . S
C453 C454 1.524 . S
C453 H456 0.999 . S
C454 H424 0.950 . S
C454 C453 1.524 . S
C454 C455 1.415 . S
C455 H425 0.950 . S
C455 C450 1.363 . S
C455 C454 1.415 . S
H456 C453 0.999 . S
H457 C438 0.913 . S
H458 C476 0.951 . S
H459 C478 0.951 . S
H460 C480 0.950 . S
H461 C481 0.950 . S
H462 C483 0.950 . S
H463 C486 0.950 . S
H464 C487 0.950 . S
H465 C489 0.950 . S
H466 C490 0.950 . S
H467 C491 0.951 . S
H468 C493 0.951 . S
H469 C495 0.950 . S
H470 C496 0.950 . S
H471 C498 0.950 . S
H472 C501 0.950 . S
H473 C502 0.950 . S
H474 C504 0.950 . S
H475 C505 0.950 . S
C476 H458 0.951 . S
C476 C477 1.366 . S
C476 C478 1.388 . S
C477 C476 1.366 . S
C477 C481 1.385 . S
C478 H459 0.951 . S
C478 C476 1.388 . S
C478 C479 1.366 . S
C479 C478 1.366 . S
C479 C480 1.414 . S
C479 C482 1.499 . S
C480 H460 0.950 . S
C480 C479 1.414 . S
C480 C481 1.374 . S
C481 H461 0.950 . S
C481 C477 1.385 . S
C481 C480 1.374 . S
C482 C479 1.499 . S
C482 C483 1.373 . S
C482 C484 1.389 . S
C483 H462 0.950 . S
C483 C482 1.373 . S
C483 C499 1.377 . S
C484 C482 1.389 . S
C484 C485 1.524 . S
C484 C498 1.377 . S
C485 C484 1.524 . S
C485 C486 1.397 . S
C485 C490 1.363 . S
C486 H463 0.950 . S
C486 C485 1.397 . S
C486 C487 1.334 . S
C487 H464 0.950 . S
C487 C486 1.334 . S
C487 C488 1.287 . S
C488 C487 1.287 . S
C488 C489 1.524 . S
C488 H507 0.913 . S
C489 H465 0.950 . S
C489 C488 1.524 . S
C489 C490 1.415 . S
C490 H466 0.950 . S
C490 C485 1.363 . S
C490 C489 1.415 . S
C491 H467 0.951 . S
C491 C492 1.366 . S
C491 C493 1.388 . S
C492 C491 1.366 . S
C492 C496 1.385 . S
C493 H468 0.951 . S
C493 C491 1.388 . S
C493 C494 1.366 . S
C494 C493 1.366 . S
C494 C495 1.414 . S
C494 C497 1.499 . S
C495 H469 0.950 . S
C495 C494 1.414 . S
C495 C496 1.374 . S
C496 H470 0.950 . S
C496 C492 1.385 . S
C496 C495 1.374 . S
C497 C494 1.499 . S
C497 C498 1.373 . S
C497 C499 1.389 . S
C498 H471 0.950 . S
C498 C484 1.377 . S
C498 C497 1.373 . S
C499 C483 1.377 . S
C499 C497 1.389 . S
C499 C500 1.524 . S
C500 C499 1.524 . S
C500 C501 1.397 . S
C500 C505 1.363 . S
C501 H472 0.950 . S
C501 C500 1.397 . S
C501 C502 1.334 . S
C502 H473 0.950 . S
C502 C501 1.334 . S
C502 C503 1.287 . S
C503 C502 1.287 . S
C503 C504 1.524 . S
C503 H506 0.999 . S
C504 H474 0.950 . S
C504 C503 1.524 . S
C504 C505 1.415 . S
C505 H475 0.950 . S
C505 C500 1.363 . S
C505 C504 1.415 . S
H506 C503 0.999 . S
H507 C488 0.913 . S
H508 C526 0.951 . S
H509 C528 0.951 . S
H510 C530 0.950 . S
H511 C531 0.950 . S
H512 C533 0.950 . S
H513 C536 0.950 . S
H514 C537 0.950 . S
H515 C539 0.950 . S
H516 C540 0.950 . S
H517 C541 0.951 . S
H518 C543 0.951 . S
H519 C545 0.950 . S
H520 C546 0.950 . S
H521 C548 0.950 . S
H522 C551 0.950 . S
H523 C552 0.950 . S
H524 C554 0.950 . S
H525 C555 0.950 . S
C526 H508 0.951 . S
C526 C527 1.366 . S
C526 C528 1.388 . S
C527 C526 1.366 . S
C527 C531 1.385 . S
C528 H509 0.951 . S
C528 C526 1.388 . S
C528 C529 1.366 . S
C529 C528 1.366 . S
C529 C530 1.414 . S
C529 C532 1.499 . S
C530 H510 0.950 . S
C530 C529 1.414 . S
C530 C531 1.374 . S
C531 H511 0.950 . S
C531 C527 1.385 . S
C531 C530 1.374 . S
C532 C529 1.499 . S
C532 C533 1.373 . S
C532 C534 1.389 . S
C533 H512 0.950 . S
C533 C532 1.373 . S
C533 C549 1.377 . S
C534 C532 1.389 . S
C534 C535 1.524 . S
C534 C548 1.377 . S
C535 C534 1.524 . S
C535 C536 1.397 . S
C535 C540 1.363 . S
C536 H513 0.950 . S
C536 C535 1.397 . S
C536 C537 1.334 . S
C537 H514 0.950 . S
C537 C536 1.334 . S
C537 C538 1.287 . S
C538 C537 1.287 . S
C538 C539 1.524 . S
C538 H557 0.913 . S
C539 H515 0.950 . S
C539 C538 1.524 . S
C539 C540 1.415 . S
C540 H516 0.950 . S
C540 C535 1.363 . S
C540 C539 1.415 . S
C541 H517 0.951 . S
C541 C542 1.366 . S
C541 C543 1.388 . S
C542 C541 1.366 . S
C542 C546 1.385 . S
C543 H518 0.951 . S
C543 C541 1.388 . S
C543 C544 1.366 . S
C544 C543 1.366 . S
C544 C545 1.414 . S
C544 C547 1.499 . S
C545 H519 0.950 . S
C545 C544 1.414 . S
C545 C546 1.374 . S
C546 H520 0.950 . S
C546 C542 1.385 . S
C546 C545 1.374 . S
C547 C544 1.499 . S
C547 C548 1.373 . S
C547 C549 1.389 . S
C548 H521 0.950 . S
C548 C534 1.377 . S
C548 C547 1.373 . S
C549 C533 1.377 . S
C549 C547 1.389 . S
C549 C550 1.524 . S
C550 C549 1.524 . S
C550 C551 1.397 . S
C550 C555 1.363 . S
C551 H522 0.950 . S
C551 C550 1.397 . S
C551 C552 1.334 . S
C552 H523 0.950 . S
C552 C551 1.334 . S
C552 C553 1.287 . S
C553 C552 1.287 . S
C553 C554 1.524 . S
C553 H556 0.999 . S
C554 H524 0.950 . S
C554 C553 1.524 . S
C554 C555 1.415 . S
C555 H525 0.950 . S
C555 C550 1.363 . S
C555 C554 1.415 . S
H556 C553 0.999 . S
H557 C538 0.913 . S
H558 C576 0.951 . S
H559 C578 0.951 . S
H560 C580 0.950 . S
H561 C581 0.950 . S
H562 C583 0.950 . S
H563 C586 0.950 . S
H564 C587 0.950 . S
H565 C589 0.950 . S
H566 C590 0.950 . S
H567 C591 0.951 . S
H568 C593 0.951 . S
H569 C595 0.950 . S
H570 C596 0.950 . S
H571 C598 0.950 . S
H572 C601 0.950 . S
H573 C602 0.950 . S
H574 C604 0.950 . S
H575 C605 0.950 . S
C576 H558 0.951 . S
C576 C577 1.366 . S
C576 C578 1.388 . S
C577 C576 1.366 . S
C577 C581 1.385 . S
C578 H559 0.951 . S
C578 C576 1.388 . S
C578 C579 1.366 . S
C579 C578 1.366 . S
C579 C580 1.414 . S
C579 C582 1.499 . S
C580 H560 0.950 . S
C580 C579 1.414 . S
C580 C581 1.374 . S
C581 H561 0.950 . S
C581 C577 1.385 . S
C581 C580 1.374 . S
C582 C579 1.499 . S
C582 C583 1.373 . S
C582 C584 1.389 . S
C583 H562 0.950 . S
C583 C582 1.373 . S
C583 C599 1.377 . S
C584 C582 1.389 . S
C584 C585 1.524 . S
C584 C598 1.377 . S
C585 C584 1.524 . S
C585 C586 1.397 . S
C585 C590 1.363 . S
C586 H563 0.950 . S
C586 C585 1.397 . S
C586 C587 1.334 . S
C587 H564 0.950 . S
C587 C586 1.334 . S
C587 C588 1.287 . S
C588 C587 1.287 . S
C588 C589 1.524 . S
C588 H607 0.913 . S
C589 H565 0.950 . S
C589 C588 1.524 . S
C589 C590 1.415 . S
C590 H566 0.950 . S
C590 C585 1.363 . S
C590 C589 1.415 . S
C591 H567 0.951 . S
C591 C592 1.366 . S
C591 C593 1.388 . S
C592 C591 1.366 . S
C592 C596 1.385 . S
C593 H568 0.951 . S
C593 C591 1.388 . S
C593 C594 1.366 . S
C594 C593 1.366 . S
C594 C595 1.414 . S
C594 C597 1.499 . S
C595 H569 0.950 . S
C595 C594 1.414 . S
C595 C596 1.374 . S
C596 H570 0.950 . S
C596 C592 1.385 . S
C596 C595 1.374 . S
C597 C594 1.499 . S
C597 C598 1.373 . S
C597 C599 1.389 . S
C598 H571 0.950 . S
C598 C584 1.377 . S
C598 C597 1.373 . S
C599 C583 1.377 . S
C599 C597 1.389 . S
C599 C600 1.524 . S
C600 C599 1.524 . S
C600 C601 1.397 . S
C600 C605 1.363 . S
C601 H572 0.950 . S
C601 C600 1.397 . S
C601 C602 1.334 . S
C602 H573 0.950 . S
C602 C601 1.334 . S
C602 C603 1.287 . S
C603 C602 1.287 . S
C603 C604 1.524 . S
C603 H606 0.999 . S
C604 H574 0.950 . S
C604 C603 1.524 . S
C604 C605 1.415 . S
C605 H575 0.950 . S
C605 C600 1.363 . S
C605 C604 1.415 . S
H606 C603 0.999 . S
H607 C588 0.913 . S
H608 C626 0.951 . S
H609 C628 0.951 1_455 S
H610 C630 0.950 . S
H611 C631 0.950 . S
H612 C633 0.950 . S
H613 C636 0.950 . S
H614 C637 0.950 . S
H615 C639 0.950 . S
H616 C640 0.950 . S
H617 C641 0.951 . S
H618 C643 0.951 1_655 S
H619 C645 0.950 . S
H620 C646 0.950 . S
H621 C648 0.950 . S
H622 C651 0.950 . S
H623 C652 0.942 1_455 S
H624 C654 0.950 . S
H625 C655 0.950 . S
C626 H608 0.951 . S
C626 C627 1.366 . S
C626 C628 1.388 . S
C627 C626 1.366 . S
C627 C631 1.385 . S
C628 H609 0.951 1_655 S
C628 C626 1.388 . S
C628 C629 1.366 . S
C629 C628 1.366 . S
C629 C630 1.414 . S
C629 C632 1.499 . S
C630 H610 0.950 . S
C630 C629 1.414 . S
C630 C631 1.374 . S
C631 H611 0.950 . S
C631 C627 1.385 . S
C631 C630 1.374 . S
C632 C629 1.499 . S
C632 C633 1.373 . S
C632 C634 1.389 1_655 S
C633 H612 0.950 . S
C633 C632 1.373 . S
C633 C649 1.377 . S
C634 C632 1.389 1_455 S
C634 C635 1.524 . S
C634 C648 1.377 . S
C635 C634 1.524 . S
C635 C636 1.397 1_455 S
C635 C640 1.363 . S
C636 H613 0.950 . S
C636 C635 1.397 1_655 S
C636 C637 1.334 . S
C637 H614 0.950 . S
C637 C636 1.334 . S
C637 C638 1.287 1_655 S
C638 C637 1.287 1_455 S
C638 C639 1.524 . S
C638 H657 0.913 . S
C639 H615 0.950 . S
C639 C638 1.524 . S
C639 C640 1.415 . S
C640 H616 0.950 . S
C640 C635 1.363 . S
C640 C639 1.415 . S
C641 H617 0.951 . S
C641 C642 1.366 . S
C641 C643 1.388 . S
C642 C641 1.366 . S
C642 C646 1.385 . S
C643 H618 0.951 1_455 S
C643 C641 1.388 . S
C643 C644 1.366 . S
C644 C643 1.366 . S
C644 C645 1.414 . S
C644 C647 1.499 . S
C645 H619 0.950 . S
C645 C644 1.414 . S
C645 C646 1.374 . S
C646 H620 0.950 . S
C646 C642 1.385 . S
C646 C645 1.374 . S
C647 C644 1.499 . S
C647 C648 1.373 . S
C647 C649 1.389 1_455 S
C648 H621 0.950 . S
C648 C634 1.377 . S
C648 C647 1.373 . S
C649 C633 1.377 . S
C649 C647 1.389 1_655 S
C649 C650 1.524 . S
C650 C649 1.524 . S
C650 C651 1.397 1_655 S
C650 C655 1.363 . S
C651 H622 0.950 . S
C651 C650 1.397 1_455 S
C651 C652 1.332 1_455 S
C652 H623 0.942 1_655 S
C652 C651 1.332 1_655 S
C652 C653 1.298 . S
C653 C652 1.298 . S
C653 C654 1.524 . S
C653 H656 0.999 . S
C654 H624 0.950 . S
C654 C653 1.524 . S
C654 C655 1.415 . S
C655 H625 0.950 . S
C655 C650 1.363 . S
C655 C654 1.415 . S
H656 C653 0.999 . S
H657 C638 0.913 . S
H658 C676 0.951 . S
H659 C678 0.951 . S
H660 C680 0.950 . S
H661 C681 0.950 . S
H662 C683 0.950 . S
H663 C686 0.950 . S
H664 C687 0.950 . S
H665 C689 0.941 1_565 S
H666 C690 0.928 1_565 S
H667 C691 0.951 . S
H668 C693 0.951 . S
H669 C695 0.950 1_655 S
H670 C696 0.950 . S
H671 C698 0.950 . S
H672 C701 0.950 . S
H673 C702 0.950 . S
H674 C704 0.950 . S
H675 C705 0.950 1_545 S
C676 H658 0.951 . S
C676 C677 1.366 . S
C676 C678 1.388 . S
C677 C676 1.366 . S
C677 C681 1.385 . S
C678 H659 0.951 . S
C678 C676 1.388 . S
C678 C679 1.366 . S
C679 C678 1.366 . S
C679 C680 1.414 . S
C679 C682 1.499 . S
C680 H660 0.950 . S
C680 C679 1.414 . S
C680 C681 1.374 . S
C681 H661 0.950 . S
C681 C677 1.385 . S
C681 C680 1.374 . S
C682 C679 1.499 . S
C682 C683 1.373 1_655 S
C682 C684 1.389 . S
C683 H662 0.950 . S
C683 C682 1.373 1_455 S
C683 C699 1.377 1_545 S
C684 C682 1.389 . S
C684 C685 1.524 . S
C684 C698 1.377 1_545 S
C685 C684 1.524 . S
C685 C686 1.397 . S
C685 C690 1.377 . S
C686 H663 0.950 . S
C686 C685 1.397 . S
C686 C687 1.334 . S
C687 H664 0.950 . S
C687 C686 1.334 . S
C687 C688 1.287 . S
C688 C687 1.287 . S
C688 C689 1.524 . S
C688 H707 0.913 . S
C689 H665 0.941 1_545 S
C689 C688 1.524 . S
C689 C690 1.423 . S
C690 H666 0.928 1_545 S
C690 C685 1.377 . S
C690 C689 1.423 . S
C691 H667 0.951 . S
C691 C692 1.366 . S
C691 C693 1.388 . S
C692 C691 1.366 . S
C692 C696 1.385 . S
C693 H668 0.951 . S
C693 C691 1.388 . S
C693 C694 1.366 . S
C694 C693 1.366 . S
C694 C695 1.414 . S
C694 C697 1.499 . S
C695 H669 0.950 1_455 S
C695 C694 1.414 . S
C695 C696 1.374 . S
C696 H670 0.950 . S
C696 C692 1.385 . S
C696 C695 1.374 . S
C697 C694 1.499 . S
C697 C698 1.373 1_455 S
C697 C699 1.389 . S
C698 H671 0.950 . S
C698 C684 1.377 1_565 S
C698 C697 1.373 1_655 S
C699 C683 1.377 1_565 S
C699 C697 1.389 . S
C699 C700 1.524 . S
C700 C699 1.524 . S
C700 C701 1.397 . S
C700 C705 1.363 . S
C701 H672 0.950 . S
C701 C700 1.397 . S
C701 C702 1.334 . S
C702 H673 0.950 . S
C702 C701 1.334 . S
C702 C703 1.287 . S
C703 C702 1.287 . S
C703 C704 1.524 . S
C703 H706 0.999 . S
C704 H674 0.950 . S
C704 C703 1.524 . S
C704 C705 1.415 . S
C705 H675 0.950 1_565 S
C705 C700 1.363 . S
C705 C704 1.415 . S
H706 C703 0.999 . S
H707 C688 0.913 . S
H708 C726 0.951 . S
H709 C728 0.951 . S
H710 C730 0.950 . S
H711 C731 0.950 . S
H712 C733 0.950 . S
H713 C736 0.950 . S
H714 C737 0.950 . S
H715 C739 0.950 . S
H716 C740 0.950 . S
H717 C741 0.951 . S
H718 C743 0.951 . S
H719 C745 0.950 . S
H720 C746 0.950 . S
H721 C748 0.950 . S
H722 C751 0.950 . S
H723 C752 0.950 . S
H724 C754 0.950 . S
H725 C755 0.950 . S
C726 H708 0.951 . S
C726 C727 1.366 . S
C726 C728 1.388 . S
C727 C726 1.366 . S
C727 C731 1.385 . S
C728 H709 0.951 . S
C728 C726 1.388 . S
C728 C729 1.366 . S
C729 C728 1.366 . S
C729 C730 1.414 . S
C729 C732 1.499 . S
C730 H710 0.950 . S
C730 C729 1.414 . S
C730 C731 1.374 . S
C731 H711 0.950 . S
C731 C727 1.385 . S
C731 C730 1.374 . S
C732 C729 1.499 . S
C732 C733 1.373 . S
C732 C734 1.389 . S
C733 H712 0.950 . S
C733 C732 1.373 . S
C733 C749 1.377 1_545 S
C734 C732 1.389 . S
C734 C735 1.524 . S
C734 C748 1.377 1_545 S
C735 C734 1.524 . S
C735 C736 1.397 1_545 S
C735 C740 1.363 . S
C736 H713 0.950 . S
C736 C735 1.397 1_565 S
C736 C737 1.334 . S
C737 H714 0.950 . S
C737 C736 1.334 . S
C737 C738 1.287 . S
C738 C737 1.287 . S
C738 C739 1.524 1_565 S
C738 H757 0.913 . S
C739 H715 0.950 . S
C739 C738 1.524 1_545 S
C739 C740 1.415 . S
C740 H716 0.950 . S
C740 C735 1.363 . S
C740 C739 1.415 . S
C741 H717 0.951 . S
C741 C742 1.366 . S
C741 C743 1.388 . S
C742 C741 1.366 . S
C742 C746 1.385 . S
C743 H718 0.951 . S
C743 C741 1.388 . S
C743 C744 1.366 . S
C744 C743 1.366 . S
C744 C745 1.414 . S
C744 C747 1.499 . S
C745 H719 0.950 . S
C745 C744 1.414 . S
C745 C746 1.374 . S
C746 H720 0.950 . S
C746 C742 1.385 . S
C746 C745 1.374 . S
C747 C744 1.499 . S
C747 C748 1.373 . S
C747 C749 1.389 . S
C748 H721 0.950 . S
C748 C734 1.377 1_565 S
C748 C747 1.373 . S
C749 C733 1.377 1_565 S
C749 C747 1.389 . S
C749 C750 1.524 . S
C750 C749 1.524 . S
C750 C751 1.397 1_565 S
C750 C755 1.363 . S
C751 H722 0.950 . S
C751 C750 1.397 1_545 S
C751 C752 1.334 . S
C752 H723 0.950 . S
C752 C751 1.334 . S
C752 C753 1.287 1_545 S
C753 C752 1.287 1_565 S
C753 C754 1.524 . S
C753 H756 0.999 . S
C754 H724 0.950 . S
C754 C753 1.524 . S
C754 C755 1.415 . S
C755 H725 0.950 . S
C755 C750 1.363 . S
C755 C754 1.415 . S
H756 C753 0.999 . S
H757 C738 0.913 . S
H758 C776 0.951 . S
H759 C778 0.951 . S
H760 C780 0.950 . S
H761 C781 0.950 . S
H762 C783 0.950 . S
H763 C786 0.950 . S
H764 C787 0.950 . S
H765 C789 0.950 . S
H766 C790 0.950 . S
H767 C791 0.951 . S
H768 C793 0.951 . S
H769 C795 0.950 . S
H770 C796 0.950 . S
H771 C798 0.950 . S
H772 C801 0.950 . S
H773 C802 0.950 . S
H774 C804 0.950 . S
H775 C805 0.950 . S
C776 H758 0.951 . S
C776 C777 1.366 . S
C776 C778 1.388 . S
C777 C776 1.366 . S
C777 C781 1.385 . S
C778 H759 0.951 . S
C778 C776 1.388 . S
C778 C779 1.366 . S
C779 C778 1.366 . S
C779 C780 1.414 . S
C779 C782 1.499 . S
C780 H760 0.950 . S
C780 C779 1.414 . S
C780 C781 1.374 . S
C781 H761 0.950 . S
C781 C777 1.385 . S
C781 C780 1.374 . S
C782 C779 1.499 . S
C782 C783 1.373 . S
C782 C784 1.389 . S
C783 H762 0.950 . S
C783 C782 1.373 . S
C783 C799 1.377 . S
C784 C782 1.389 . S
C784 C785 1.524 . S
C784 C798 1.377 . S
C785 C784 1.524 . S
C785 C786 1.397 . S
C785 C790 1.363 . S
C786 H763 0.950 . S
C786 C785 1.397 . S
C786 C787 1.334 . S
C787 H764 0.950 . S
C787 C786 1.334 . S
C787 C788 1.287 . S
C788 C787 1.287 . S
C788 C789 1.524 . S
C788 H807 0.913 . S
C789 H765 0.950 . S
C789 C788 1.524 . S
C789 C790 1.415 . S
C790 H766 0.950 . S
C790 C785 1.363 . S
C790 C789 1.415 . S
C791 H767 0.951 . S
C791 C792 1.366 . S
C791 C793 1.388 . S
C792 C791 1.366 . S
C792 C796 1.385 . S
C793 H768 0.951 . S
C793 C791 1.388 . S
C793 C794 1.366 . S
C794 C793 1.366 . S
C794 C795 1.414 . S
C794 C797 1.499 . S
C795 H769 0.950 . S
C795 C794 1.414 . S
C795 C796 1.374 . S
C796 H770 0.950 . S
C796 C792 1.385 . S
C796 C795 1.374 . S
C797 C794 1.499 . S
C797 C798 1.373 . S
C797 C799 1.389 . S
C798 H771 0.950 . S
C798 C784 1.377 . S
C798 C797 1.373 . S
C799 C783 1.377 . S
C799 C797 1.389 . S
C799 C800 1.524 . S
C800 C799 1.524 . S
C800 C801 1.397 . S
C800 C805 1.363 . S
C801 H772 0.950 . S
C801 C800 1.397 . S
C801 C802 1.334 . S
C802 H773 0.950 . S
C802 C801 1.334 . S
C802 C803 1.287 . S
C803 C802 1.287 . S
C803 C804 1.524 . S
C803 H806 0.999 . S
C804 H774 0.950 . S
C804 C803 1.524 . S
C804 C805 1.415 . S
C805 H775 0.950 . S
C805 C800 1.363 . S
C805 C804 1.415 . S
H806 C803 0.999 . S
H807 C788 0.913 . S
H808 C826 0.951 . S
H809 C828 0.961 . S
H810 C830 0.950 . S
H811 C831 0.950 . S
H812 C833 0.950 . S
H813 C836 0.950 . S
H814 C837 0.950 . S
H815 C839 0.950 . S
H816 C840 0.950 . S
H817 C841 0.951 . S
H818 C843 0.951 1_455 S
H819 C845 0.950 . S
H820 C846 0.950 . S
H821 C848 0.950 . S
H822 C851 0.950 . S
H823 C852 0.950 . S
H824 C854 0.950 . S
H825 C855 0.950 . S
C826 H808 0.951 . S
C826 C827 1.366 . S
C826 C828 1.388 . S
C827 C826 1.366 . S
C827 C831 1.385 . S
C828 H809 0.961 . S
C828 C826 1.388 . S
C828 C829 1.366 . S
C829 C828 1.366 . S
C829 C830 1.414 . S
C829 C832 1.499 . S
C830 H810 0.950 . S
C830 C829 1.414 . S
C830 C831 1.374 . S
C831 H811 0.950 . S
C831 C827 1.385 . S
C831 C830 1.374 . S
C832 C829 1.499 . S
C832 C833 1.373 . S
C832 C834 1.389 . S
C833 H812 0.950 . S
C833 C832 1.373 . S
C833 C849 1.377 . S
C834 C832 1.389 . S
C834 C835 1.524 . S
C834 C848 1.377 1_455 S
C835 C834 1.524 . S
C835 C836 1.397 . S
C835 C840 1.363 1_455 S
C836 H813 0.950 . S
C836 C835 1.397 . S
C836 C837 1.334 . S
C837 H814 0.950 . S
C837 C836 1.334 . S
C837 C838 1.287 . S
C838 C837 1.287 . S
C838 C839 1.524 1_455 S
C838 H857 0.913 . S
C839 H815 0.950 . S
C839 C838 1.524 1_655 S
C839 C840 1.415 . S
C840 H816 0.950 . S
C840 C835 1.363 1_655 S
C840 C839 1.415 . S
C841 H817 0.951 . S
C841 C842 1.366 . S
C841 C843 1.388 . S
C842 C841 1.366 . S
C842 C846 1.385 . S
C843 H818 0.951 1_655 S
C843 C841 1.388 . S
C843 C844 1.366 . S
C844 C843 1.366 . S
C844 C845 1.414 . S
C844 C847 1.499 . S
C845 H819 0.950 . S
C845 C844 1.414 . S
C845 C846 1.374 . S
C846 H820 0.950 . S
C846 C842 1.385 . S
C846 C845 1.374 . S
C847 C844 1.499 . S
C847 C848 1.373 . S
C847 C849 1.389 1_655 S
C848 H821 0.950 . S
C848 C834 1.377 1_655 S
C848 C847 1.373 . S
C849 C833 1.377 . S
C849 C847 1.389 1_455 S
C849 C850 1.524 . S
C850 C849 1.524 . S
C850 C851 1.397 1_455 S
C850 C855 1.363 . S
C851 H822 0.950 . S
C851 C850 1.397 1_655 S
C851 C852 1.334 . S
C852 H823 0.950 . S
C852 C851 1.334 . S
C852 C853 1.287 . S
C853 C852 1.287 . S
C853 C854 1.524 1_655 S
C853 H856 0.999 . S
C854 H824 0.950 . S
C854 C853 1.524 1_455 S
C854 C855 1.415 . S
C855 H825 0.950 . S
C855 C850 1.363 . S
C855 C854 1.415 . S
H856 C853 0.999 . S
H857 C838 0.913 . S
H858 C876 0.951 . S
H859 C878 0.951 . S
H860 C880 0.950 1_655 S
H861 C881 0.950 . S
H862 C883 0.950 . S
H863 C886 0.950 . S
H864 C887 0.950 . S
H865 C889 0.950 . S
H866 C890 0.950 . S
H867 C891 0.951 . S
H868 C893 0.951 . S
H869 C895 0.950 1_455 S
H870 C896 0.950 . S
H871 C898 0.950 . S
H872 C901 0.950 . S
H873 C902 0.950 . S
H874 C904 0.950 . S
H875 C905 0.950 . S
C876 H858 0.951 . S
C876 C877 1.366 . S
C876 C878 1.388 . S
C877 C876 1.366 . S
C877 C881 1.385 . S
C878 H859 0.951 . S
C878 C876 1.388 . S
C878 C879 1.366 . S
C879 C878 1.366 . S
C879 C880 1.414 . S
C879 C882 1.499 . S
C880 H860 0.950 1_455 S
C880 C879 1.414 . S
C880 C881 1.374 . S
C881 H861 0.950 . S
C881 C877 1.385 . S
C881 C880 1.374 . S
C882 C879 1.499 . S
C882 C883 1.373 1_455 S
C882 C884 1.389 1_565 S
C883 H862 0.950 . S
C883 C882 1.373 1_655 S
C883 C899 1.377 . S
C884 C882 1.389 1_545 S
C884 C885 1.524 . S
C884 C898 1.377 . S
C885 C884 1.524 . S
C885 C886 1.397 . S
C885 C890 1.363 . S
C886 H863 0.950 . S
C886 C885 1.397 . S
C886 C887 1.334 . S
C887 H864 0.950 . S
C887 C886 1.334 . S
C887 C888 1.287 . S
C888 C887 1.287 . S
C888 C889 1.524 . S
C888 H907 0.913 . S
C889 H865 0.950 . S
C889 C888 1.524 . S
C889 C890 1.415 . S
C890 H866 0.950 . S
C890 C885 1.363 . S
C890 C889 1.415 . S
C891 H867 0.951 . S
C891 C892 1.366 . S
C891 C893 1.388 . S
C892 C891 1.366 . S
C892 C896 1.385 . S
C893 H868 0.951 . S
C893 C891 1.388 . S
C893 C894 1.366 . S
C894 C893 1.366 . S
C894 C895 1.414 . S
C894 C897 1.499 . S
C895 H869 0.950 1_655 S
C895 C894 1.414 . S
C895 C896 1.374 . S
C896 H870 0.950 . S
C896 C892 1.385 . S
C896 C895 1.374 . S
C897 C894 1.499 . S
C897 C898 1.373 1_655 S
C897 C899 1.389 1_545 S
C898 H871 0.950 . S
C898 C884 1.377 . S
C898 C897 1.373 1_455 S
C899 C883 1.377 . S
C899 C897 1.389 1_565 S
C899 C900 1.524 . S
C900 C899 1.524 . S
C900 C901 1.397 . S
C900 C905 1.363 . S
C901 H872 0.950 . S
C901 C900 1.397 . S
C901 C902 1.334 . S
C902 H873 0.950 . S
C902 C901 1.334 . S
C902 C903 1.287 . S
C903 C902 1.287 . S
C903 C904 1.524 . S
C903 H906 0.999 . S
C904 H874 0.950 . S
C904 C903 1.524 . S
C904 C905 1.415 . S
C905 H875 0.950 . S
C905 C900 1.363 . S
C905 C904 1.415 . S
H906 C903 0.999 . S
H907 C888 0.913 . S
H908 C926 0.951 . S
H909 C928 0.951 . S
H910 C930 0.950 . S
H911 C931 0.950 . S
H912 C933 0.950 . S
H913 C936 0.950 . S
H914 C937 0.950 . S
H915 C939 0.950 . S
H916 C940 0.950 . S
H917 C941 0.951 . S
H918 C943 0.951 . S
H919 C945 0.950 . S
H920 C946 0.950 . S
H921 C948 0.950 . S
H922 C951 0.950 . S
H923 C952 0.950 . S
H924 C954 0.950 . S
H925 C955 0.950 . S
C926 H908 0.951 . S
C926 C927 1.366 . S
C926 C928 1.388 . S
C927 C926 1.366 . S
C927 C931 1.385 . S
C928 H909 0.951 . S
C928 C926 1.388 . S
C928 C929 1.366 . S
C929 C928 1.366 . S
C929 C930 1.414 . S
C929 C932 1.499 . S
C930 H910 0.950 . S
C930 C929 1.414 . S
C930 C931 1.374 . S
C931 H911 0.950 . S
C931 C927 1.385 . S
C931 C930 1.374 . S
C932 C929 1.499 . S
C932 C933 1.373 . S
C932 C934 1.389 . S
C933 H912 0.950 . S
C933 C932 1.373 . S
C933 C949 1.390 . S
C934 C932 1.389 . S
C934 C935 1.525 . S
C934 C948 1.377 1_545 S
C935 C934 1.525 . S
C935 C936 1.392 1_545 S
C935 C940 1.366 . S
C936 H913 0.950 . S
C936 C935 1.392 1_565 S
C936 C937 1.334 . S
C937 H914 0.950 . S
C937 C936 1.334 . S
C937 C938 1.287 . S
C938 C937 1.287 . S
C938 C939 1.524 1_565 S
C938 H957 0.913 . S
C939 H915 0.950 . S
C939 C938 1.524 1_545 S
C939 C940 1.415 . S
C940 H916 0.950 . S
C940 C935 1.366 . S
C940 C939 1.415 . S
C941 H917 0.951 . S
C941 C942 1.366 . S
C941 C943 1.388 . S
C942 C941 1.366 . S
C942 C946 1.385 . S
C943 H918 0.951 . S
C943 C941 1.388 . S
C943 C944 1.366 . S
C944 C943 1.366 . S
C944 C945 1.414 . S
C944 C947 1.499 . S
C945 H919 0.950 . S
C945 C944 1.414 . S
C945 C946 1.374 . S
C946 H920 0.950 . S
C946 C942 1.385 . S
C946 C945 1.374 . S
C947 C944 1.499 . S
C947 C948 1.373 . S
C947 C949 1.377 1_565 S
C948 H921 0.950 . S
C948 C934 1.377 1_565 S
C948 C947 1.373 . S
C949 C933 1.390 . S
C949 C947 1.377 1_545 S
C949 C950 1.527 . S
C950 C949 1.527 . S
C950 C951 1.397 . S
C950 C955 1.363 1_545 S
C951 H922 0.950 . S
C951 C950 1.397 . S
C951 C952 1.334 . S
C952 H923 0.950 . S
C952 C951 1.334 . S
C952 C953 1.287 . S
C953 C952 1.287 . S
C953 C954 1.524 1_545 S
C953 H956 0.999 . S
C954 H924 0.950 . S
C954 C953 1.524 1_565 S
C954 C955 1.415 . S
C955 H925 0.950 . S
C955 C950 1.363 1_565 S
C955 C954 1.415 . S
H956 C953 0.999 . S
H957 C938 0.913 . S
H958 C976 0.951 . S
H959 C978 0.951 . S
H960 C980 0.950 . S
H961 C981 0.950 . S
H962 C983 0.950 . S
H963 C986 0.950 . S
H964 C987 0.950 . S
H965 C989 0.950 . S
H966 C990 0.950 . S
H967 C991 0.951 . S
H968 C993 0.951 . S
H969 C995 0.950 . S
H970 C996 0.950 . S
H971 C998 0.950 . S
H972 C1001 0.950 . S
H973 C1002 0.950 . S
H974 C1004 0.950 . S
H975 C1005 0.950 . S
C976 H958 0.951 . S
C976 C977 1.366 . S
C976 C978 1.388 . S
C977 C976 1.366 . S
C977 C981 1.385 . S
C978 H959 0.951 . S
C978 C976 1.388 . S
C978 C979 1.366 . S
C979 C978 1.366 . S
C979 C980 1.414 . S
C979 C982 1.499 . S
C980 H960 0.950 . S
C980 C979 1.414 . S
C980 C981 1.374 . S
C981 H961 0.950 . S
C981 C977 1.385 . S
C981 C980 1.374 . S
C982 C979 1.499 . S
C982 C983 1.373 . S
C982 C984 1.389 . S
C983 H962 0.950 . S
C983 C982 1.373 . S
C983 C999 1.377 . S
C984 C982 1.389 . S
C984 C985 1.524 . S
C984 C998 1.377 . S
C985 C984 1.524 . S
C985 C986 1.397 . S
C985 C990 1.363 . S
C986 H963 0.950 . S
C986 C985 1.397 . S
C986 C987 1.334 . S
C987 H964 0.950 . S
C987 C986 1.334 . S
C987 C988 1.287 . S
C988 C987 1.287 . S
C988 C989 1.524 . S
C988 H1007 0.913 . S
C989 H965 0.950 . S
C989 C988 1.524 . S
C989 C990 1.415 . S
C990 H966 0.950 . S
C990 C985 1.363 . S
C990 C989 1.415 . S
C991 H967 0.951 . S
C991 C992 1.366 . S
C991 C993 1.388 . S
C992 C991 1.366 . S
C992 C996 1.385 . S
C993 H968 0.951 . S
C993 C991 1.388 . S
C993 C994 1.366 . S
C994 C993 1.366 . S
C994 C995 1.414 . S
C994 C997 1.499 . S
C995 H969 0.950 . S
C995 C994 1.414 . S
C995 C996 1.374 . S
C996 H970 0.950 . S
C996 C992 1.385 . S
C996 C995 1.374 . S
C997 C994 1.499 . S
C997 C998 1.373 . S
C997 C999 1.389 . S
C998 H971 0.950 . S
C998 C984 1.377 . S
C998 C997 1.373 . S
C999 C983 1.377 . S
C999 C997 1.389 . S
C999 C1000 1.524 . S
C1000 C999 1.524 . S
C1000 C1001 1.397 . S
C1000 C1005 1.363 . S
C1001 H972 0.950 . S
C1001 C1000 1.397 . S
C1001 C1002 1.334 . S
C1002 H973 0.950 . S
C1002 C1001 1.334 . S
C1002 C1003 1.287 . S
C1003 C1002 1.287 . S
C1003 C1004 1.524 . S
C1003 H1006 0.999 . S
C1004 H974 0.950 . S
C1004 C1003 1.524 . S
C1004 C1005 1.415 . S
C1005 H975 0.950 . S
C1005 C1000 1.363 . S
C1005 C1004 1.415 . S
H1006 C1003 0.999 . S
H1007 C988 0.913 . S
H1008 C1026 0.951 . S
H1009 C1028 0.951 . S
H1010 C1030 0.950 . S
H1011 C1031 0.950 . S
H1012 C1033 0.950 . S
H1013 C1036 0.950 . S
H1014 C1037 0.950 . S
H1015 C1039 0.950 . S
H1016 C1040 0.950 . S
H1017 C1041 0.951 . S
H1018 C1043 0.951 . S
H1019 C1045 0.950 . S
H1020 C1046 0.950 . S
H1021 C1048 0.950 . S
H1022 C1051 0.950 . S
H1023 C1052 0.950 . S
H1024 C1054 0.950 . S
H1025 C1055 0.950 . S
C1026 H1008 0.951 . S
C1026 C1027 1.366 . S
C1026 C1028 1.388 . S
C1027 C1026 1.366 . S
C1027 C1031 1.385 . S
C1028 H1009 0.951 . S
C1028 C1026 1.388 . S
C1028 C1029 1.366 . S
C1029 C1028 1.366 . S
C1029 C1030 1.414 . S
C1029 C1032 1.499 . S
C1030 H1010 0.950 . S
C1030 C1029 1.414 . S
C1030 C1031 1.374 . S
C1031 H1011 0.950 . S
C1031 C1027 1.385 . S
C1031 C1030 1.374 . S
C1032 C1029 1.499 . S
C1032 C1033 1.373 . S
C1032 C1034 1.389 . S
C1033 H1012 0.950 . S
C1033 C1032 1.373 . S
C1033 C1049 1.377 . S
C1034 C1032 1.389 . S
C1034 C1035 1.524 . S
C1034 C1048 1.377 . S
C1035 C1034 1.524 . S
C1035 C1036 1.397 . S
C1035 C1040 1.363 . S
C1036 H1013 0.950 . S
C1036 C1035 1.397 . S
C1036 C1037 1.334 . S
C1037 H1014 0.950 . S
C1037 C1036 1.334 . S
C1037 C1038 1.287 . S
C1038 C1037 1.287 . S
C1038 C1039 1.524 . S
C1038 H1057 0.913 . S
C1039 H1015 0.950 . S
C1039 C1038 1.524 . S
C1039 C1040 1.415 . S
C1040 H1016 0.950 . S
C1040 C1035 1.363 . S
C1040 C1039 1.415 . S
C1041 H1017 0.951 . S
C1041 C1042 1.366 . S
C1041 C1043 1.388 . S
C1042 C1041 1.366 . S
C1042 C1046 1.385 . S
C1043 H1018 0.951 . S
C1043 C1041 1.388 . S
C1043 C1044 1.366 . S
C1044 C1043 1.366 . S
C1044 C1045 1.414 . S
C1044 C1047 1.499 . S
C1045 H1019 0.950 . S
C1045 C1044 1.414 . S
C1045 C1046 1.374 . S
C1046 H1020 0.950 . S
C1046 C1042 1.385 . S
C1046 C1045 1.374 . S
C1047 C1044 1.499 . S
C1047 C1048 1.373 . S
C1047 C1049 1.389 . S
C1048 H1021 0.950 . S
C1048 C1034 1.377 . S
C1048 C1047 1.373 . S
C1049 C1033 1.377 . S
C1049 C1047 1.389 . S
C1049 C1050 1.524 . S
C1050 C1049 1.524 . S
C1050 C1051 1.397 . S
C1050 C1055 1.363 . S
C1051 H1022 0.950 . S
C1051 C1050 1.397 . S
C1051 C1052 1.334 . S
C1052 H1023 0.950 . S
C1052 C1051 1.334 . S
C1052 C1053 1.287 . S
C1053 C1052 1.287 . S
C1053 C1054 1.524 . S
C1053 H1056 0.999 . S
C1054 H1024 0.950 . S
C1054 C1053 1.524 . S
C1054 C1055 1.415 . S
C1055 H1025 0.950 . S
C1055 C1050 1.363 . S
C1055 C1054 1.415 . S
H1056 C1053 0.999 . S
H1057 C1038 0.913 . S
H1058 C1076 0.951 . S
H1059 C1078 0.951 . S
H1060 C1080 0.950 . S
H1061 C1081 0.950 . S
H1062 C1083 0.950 . S
H1063 C1086 0.950 . S
H1064 C1087 0.950 . S
H1065 C1089 0.950 . S
H1066 C1090 0.950 . S
H1067 C1091 0.951 . S
H1068 C1093 0.951 . S
H1069 C1095 0.950 . S
H1070 C1096 0.950 . S
H1071 C1098 0.950 . S
H1072 C1101 0.950 . S
H1073 C1102 0.950 . S
H1074 C1104 0.950 . S
H1075 C1105 0.953 . S
C1076 H1058 0.951 . S
C1076 C1077 1.366 . S
C1076 C1078 1.388 . S
C1077 C1076 1.366 . S
C1077 C1081 1.385 . S
C1078 H1059 0.951 . S
C1078 C1076 1.388 . S
C1078 C1079 1.366 . S
C1079 C1078 1.366 . S
C1079 C1080 1.414 . S
C1079 C1082 1.499 . S
C1080 H1060 0.950 . S
C1080 C1079 1.414 . S
C1080 C1081 1.374 . S
C1081 H1061 0.950 . S
C1081 C1077 1.385 . S
C1081 C1080 1.374 . S
C1082 C1079 1.499 . S
C1082 C1083 1.373 . S
C1082 C1084 1.389 . S
C1083 H1062 0.950 . S
C1083 C1082 1.373 . S
C1083 C1099 1.377 . S
C1084 C1082 1.389 . S
C1084 C1085 1.524 . S
C1084 C1098 1.377 . S
C1085 C1084 1.524 . S
C1085 C1086 1.397 . S
C1085 C1090 1.363 . S
C1086 H1063 0.950 . S
C1086 C1085 1.397 . S
C1086 C1087 1.334 . S
C1087 H1064 0.950 . S
C1087 C1086 1.334 . S
C1087 C1088 1.287 . S
C1088 C1087 1.287 . S
C1088 C1089 1.524 . S
C1088 H1107 0.913 . S
C1089 H1065 0.950 . S
C1089 C1088 1.524 . S
C1089 C1090 1.415 . S
C1090 H1066 0.950 . S
C1090 C1085 1.363 . S
C1090 C1089 1.415 . S
C1091 H1067 0.951 . S
C1091 C1092 1.366 . S
C1091 C1093 1.388 . S
C1092 C1091 1.366 . S
C1092 C1096 1.385 . S
C1093 H1068 0.951 . S
C1093 C1091 1.388 . S
C1093 C1094 1.366 . S
C1094 C1093 1.366 . S
C1094 C1095 1.414 . S
C1094 C1097 1.499 . S
C1095 H1069 0.950 . S
C1095 C1094 1.414 . S
C1095 C1096 1.374 . S
C1096 H1070 0.950 . S
C1096 C1092 1.385 . S
C1096 C1095 1.374 . S
C1097 C1094 1.499 . S
C1097 C1098 1.373 . S
C1097 C1099 1.389 . S
C1098 H1071 0.950 . S
C1098 C1084 1.377 . S
C1098 C1097 1.373 . S
C1099 C1083 1.377 . S
C1099 C1097 1.389 . S
C1099 C1100 1.524 . S
C1100 C1099 1.524 . S
C1100 C1101 1.397 . S
C1100 C1105 1.395 . S
C1101 H1072 0.950 . S
C1101 C1100 1.397 . S
C1101 C1102 1.350 . S
C1102 H1073 0.950 . S
C1102 C1101 1.350 . S
C1102 C1103 1.271 1_545 S
C1103 C1102 1.271 1_565 S
C1103 C1104 1.524 . S
C1103 H1106 0.999 . S
C1104 H1074 0.950 . S
C1104 C1103 1.524 . S
C1104 C1105 1.381 1_565 S
C1105 H1075 0.953 . S
C1105 C1100 1.395 . S
C1105 C1104 1.381 1_545 S
H1106 C1103 0.999 . S
H1107 C1088 0.913 . S
H1108 C1126 0.951 . S
H1109 C1128 0.951 . S
H1110 C1130 0.950 . S
H1111 C1131 0.950 . S
H1112 C1133 0.950 . S
H1113 C1136 0.950 . S
H1114 C1137 0.950 . S
H1115 C1139 0.950 . S
H1116 C1140 0.950 . S
H1117 C1141 0.951 . S
H1118 C1143 0.951 . S
H1119 C1145 0.950 . S
H1120 C1146 0.950 . S
H1121 C1148 0.950 . S
H1122 C1151 0.950 . S
H1123 C1152 0.950 . S
H1124 C1154 0.950 . S
H1125 C1155 0.950 . S
C1126 H1108 0.951 . S
C1126 C1127 1.366 . S
C1126 C1128 1.388 . S
C1127 C1126 1.366 . S
C1127 C1131 1.385 . S
C1128 H1109 0.951 . S
C1128 C1126 1.388 . S
C1128 C1129 1.366 . S
C1129 C1128 1.366 . S
C1129 C1130 1.414 . S
C1129 C1132 1.499 . S
C1130 H1110 0.950 . S
C1130 C1129 1.414 . S
C1130 C1131 1.374 . S
C1131 H1111 0.950 . S
C1131 C1127 1.385 . S
C1131 C1130 1.374 . S
C1132 C1129 1.499 . S
C1132 C1133 1.373 . S
C1132 C1134 1.389 . S
C1133 H1112 0.950 . S
C1133 C1132 1.373 . S
C1133 C1149 1.377 . S
C1134 C1132 1.389 . S
C1134 C1135 1.524 . S
C1134 C1148 1.377 . S
C1135 C1134 1.524 . S
C1135 C1136 1.397 . S
C1135 C1140 1.363 . S
C1136 H1113 0.950 . S
C1136 C1135 1.397 . S
C1136 C1137 1.334 . S
C1137 H1114 0.950 . S
C1137 C1136 1.334 . S
C1137 C1138 1.287 . S
C1138 C1137 1.287 . S
C1138 C1139 1.524 . S
C1138 H1157 0.913 . S
C1139 H1115 0.950 . S
C1139 C1138 1.524 . S
C1139 C1140 1.415 . S
C1140 H1116 0.950 . S
C1140 C1135 1.363 . S
C1140 C1139 1.415 . S
C1141 H1117 0.951 . S
C1141 C1142 1.366 . S
C1141 C1143 1.388 . S
C1142 C1141 1.366 . S
C1142 C1146 1.385 . S
C1143 H1118 0.951 . S
C1143 C1141 1.388 . S
C1143 C1144 1.366 . S
C1144 C1143 1.366 . S
C1144 C1145 1.414 . S
C1144 C1147 1.499 . S
C1145 H1119 0.950 . S
C1145 C1144 1.414 . S
C1145 C1146 1.374 . S
C1146 H1120 0.950 . S
C1146 C1142 1.385 . S
C1146 C1145 1.374 . S
C1147 C1144 1.499 . S
C1147 C1148 1.373 . S
C1147 C1149 1.389 . S
C1148 H1121 0.950 . S
C1148 C1134 1.377 . S
C1148 C1147 1.373 . S
C1149 C1133 1.377 . S
C1149 C1147 1.389 . S
C1149 C1150 1.524 . S
C1150 C1149 1.524 . S
C1150 C1151 1.397 . S
C1150 C1155 1.363 . S
C1151 H1122 0.950 . S
C1151 C1150 1.397 . S
C1151 C1152 1.334 . S
C1152 H1123 0.950 . S
C1152 C1151 1.334 . S
C1152 C1153 1.287 . S
C1153 C1152 1.287 . S
C1153 C1154 1.524 . S
C1153 H1156 0.999 . S
C1154 H1124 0.950 . S
C1154 C1153 1.524 . S
C1154 C1155 1.415 . S
C1155 H1125 0.950 . S
C1155 C1150 1.363 . S
C1155 C1154 1.415 . S
H1156 C1153 0.999 . S
H1157 C1138 0.913 . S
H1158 C1176 0.951 . S
H1159 C1178 0.951 . S
H1160 C1180 0.950 . S
H1161 C1181 0.950 . S
H1162 C1183 0.950 . S
H1163 C1186 0.950 . S
H1164 C1187 0.950 . S
H1165 C1189 0.950 . S
H1166 C1190 0.950 . S
H1167 C1191 0.951 . S
H1168 C1193 0.951 . S
H1169 C1195 0.950 . S
H1170 C1196 0.950 . S
H1171 C1198 0.950 . S
H1172 C1201 0.950 . S
H1173 C1202 0.950 . S
H1174 C1204 0.950 . S
H1175 C1205 0.950 . S
C1176 H1158 0.951 . S
C1176 C1177 1.366 . S
C1176 C1178 1.388 . S
C1177 C1176 1.366 . S
C1177 C1181 1.385 . S
C1178 H1159 0.951 . S
C1178 C1176 1.388 . S
C1178 C1179 1.366 . S
C1179 C1178 1.366 . S
C1179 C1180 1.414 . S
C1179 C1182 1.499 . S
C1180 H1160 0.950 . S
C1180 C1179 1.414 . S
C1180 C1181 1.374 . S
C1181 H1161 0.950 . S
C1181 C1177 1.385 . S
C1181 C1180 1.374 . S
C1182 C1179 1.499 . S
C1182 C1183 1.373 . S
C1182 C1184 1.389 . S
C1183 H1162 0.950 . S
C1183 C1182 1.373 . S
C1183 C1199 1.377 . S
C1184 C1182 1.389 . S
C1184 C1185 1.524 . S
C1184 C1198 1.377 . S
C1185 C1184 1.524 . S
C1185 C1186 1.397 . S
C1185 C1190 1.363 . S
C1186 H1163 0.950 . S
C1186 C1185 1.397 . S
C1186 C1187 1.334 . S
C1187 H1164 0.950 . S
C1187 C1186 1.334 . S
C1187 C1188 1.287 . S
C1188 C1187 1.287 . S
C1188 C1189 1.524 . S
C1188 H1207 0.913 . S
C1189 H1165 0.950 . S
C1189 C1188 1.524 . S
C1189 C1190 1.415 . S
C1190 H1166 0.950 . S
C1190 C1185 1.363 . S
C1190 C1189 1.415 . S
C1191 H1167 0.951 . S
C1191 C1192 1.366 . S
C1191 C1193 1.388 . S
C1192 C1191 1.366 . S
C1192 C1196 1.385 . S
C1193 H1168 0.951 . S
C1193 C1191 1.388 . S
C1193 C1194 1.366 . S
C1194 C1193 1.366 . S
C1194 C1195 1.414 . S
C1194 C1197 1.499 . S
C1195 H1169 0.950 . S
C1195 C1194 1.414 . S
C1195 C1196 1.374 . S
C1196 H1170 0.950 . S
C1196 C1192 1.385 . S
C1196 C1195 1.374 . S
C1197 C1194 1.499 . S
C1197 C1198 1.373 . S
C1197 C1199 1.389 . S
C1198 H1171 0.950 . S
C1198 C1184 1.377 . S
C1198 C1197 1.373 . S
C1199 C1183 1.377 . S
C1199 C1197 1.389 . S
C1199 C1200 1.524 . S
C1200 C1199 1.524 . S
C1200 C1201 1.397 . S
C1200 C1205 1.363 . S
C1201 H1172 0.950 . S
C1201 C1200 1.397 . S
C1201 C1202 1.334 . S
C1202 H1173 0.950 . S
C1202 C1201 1.334 . S
C1202 C1203 1.287 . S
C1203 C1202 1.287 . S
C1203 C1204 1.524 . S
C1203 H1206 0.999 . S
C1204 H1174 0.950 . S
C1204 C1203 1.524 . S
C1204 C1205 1.415 . S
C1205 H1175 0.950 . S
C1205 C1200 1.363 . S
C1205 C1204 1.415 . S
H1206 C1203 0.999 . S
H1207 C1188 0.913 . S
H1208 C1226 0.951 . S
H1209 C1228 0.951 . S
H1210 C1230 0.950 . S
H1211 C1231 0.950 . S
H1212 C1233 0.950 . S
H1213 C1236 0.950 . S
H1214 C1237 0.950 . S
H1215 C1239 0.950 . S
H1216 C1240 0.950 . S
H1217 C1241 0.951 . S
H1218 C1243 0.951 . S
H1219 C1245 0.950 . S
H1220 C1246 0.950 . S
H1221 C1248 0.950 . S
H1222 C1251 0.950 . S
H1223 C1252 0.950 . S
H1224 C1254 0.950 . S
H1225 C1255 0.950 . S
C1226 H1208 0.951 . S
C1226 C1227 1.366 . S
C1226 C1228 1.388 . S
C1227 C1226 1.366 . S
C1227 C1231 1.385 . S
C1228 H1209 0.951 . S
C1228 C1226 1.388 . S
C1228 C1229 1.366 . S
C1229 C1228 1.366 . S
C1229 C1230 1.414 . S
C1229 C1232 1.499 . S
C1230 H1210 0.950 . S
C1230 C1229 1.414 . S
C1230 C1231 1.374 . S
C1231 H1211 0.950 . S
C1231 C1227 1.385 . S
C1231 C1230 1.374 . S
C1232 C1229 1.499 . S
C1232 C1233 1.373 . S
C1232 C1234 1.389 . S
C1233 H1212 0.950 . S
C1233 C1232 1.373 . S
C1233 C1249 1.377 . S
C1234 C1232 1.389 . S
C1234 C1235 1.524 . S
C1234 C1248 1.377 . S
C1235 C1234 1.524 . S
C1235 C1236 1.397 . S
C1235 C1240 1.363 . S
C1236 H1213 0.950 . S
C1236 C1235 1.397 . S
C1236 C1237 1.334 . S
C1237 H1214 0.950 . S
C1237 C1236 1.334 . S
C1237 C1238 1.287 . S
C1238 C1237 1.287 . S
C1238 C1239 1.524 . S
C1238 H1257 0.913 . S
C1239 H1215 0.950 . S
C1239 C1238 1.524 . S
C1239 C1240 1.415 . S
C1240 H1216 0.950 . S
C1240 C1235 1.363 . S
C1240 C1239 1.415 . S
C1241 H1217 0.951 . S
C1241 C1242 1.366 . S
C1241 C1243 1.388 . S
C1242 C1241 1.366 . S
C1242 C1246 1.385 . S
C1243 H1218 0.951 . S
C1243 C1241 1.388 . S
C1243 C1244 1.366 . S
C1244 C1243 1.366 . S
C1244 C1245 1.414 . S
C1244 C1247 1.499 . S
C1245 H1219 0.950 . S
C1245 C1244 1.414 . S
C1245 C1246 1.374 . S
C1246 H1220 0.950 . S
C1246 C1242 1.385 . S
C1246 C1245 1.374 . S
C1247 C1244 1.499 . S
C1247 C1248 1.373 . S
C1247 C1249 1.389 . S
C1248 H1221 0.950 . S
C1248 C1234 1.377 . S
C1248 C1247 1.373 . S
C1249 C1233 1.377 . S
C1249 C1247 1.389 . S
C1249 C1250 1.524 . S
C1250 C1249 1.524 . S
C1250 C1251 1.397 . S
C1250 C1255 1.363 . S
C1251 H1222 0.950 . S
C1251 C1250 1.397 . S
C1251 C1252 1.334 . S
C1252 H1223 0.950 . S
C1252 C1251 1.334 . S
C1252 C1253 1.287 . S
C1253 C1252 1.287 . S
C1253 C1254 1.524 . S
C1253 H1256 0.999 . S
C1254 H1224 0.950 . S
C1254 C1253 1.524 . S
C1254 C1255 1.415 . S
C1255 H1225 0.950 . S
C1255 C1250 1.363 . S
C1255 C1254 1.415 . S
H1256 C1253 0.999 . S
H1257 C1238 0.913 . S
H1258 C1276 0.951 . S
H1259 C1278 0.951 . S
H1260 C1280 0.950 . S
H1261 C1281 0.950 . S
H1262 C1283 0.950 . S
H1263 C1286 0.950 . S
H1264 C1287 0.950 1_545 S
H1265 C1289 0.950 . S
H1266 C1290 0.950 . S
H1267 C1291 0.951 . S
H1268 C1293 0.951 . S
H1269 C1295 0.950 . S
H1270 C1296 0.950 . S
H1271 C1298 0.950 . S
H1272 C1301 0.950 . S
H1273 C1302 0.950 . S
H1274 C1304 0.950 . S
H1275 C1305 0.950 . S
C1276 H1258 0.951 . S
C1276 C1277 1.366 . S
C1276 C1278 1.388 . S
C1277 C1276 1.366 . S
C1277 C1281 1.385 . S
C1278 H1259 0.951 . S
C1278 C1276 1.388 . S
C1278 C1279 1.366 . S
C1279 C1278 1.366 . S
C1279 C1280 1.414 . S
C1279 C1282 1.499 . S
C1280 H1260 0.950 . S
C1280 C1279 1.414 . S
C1280 C1281 1.374 . S
C1281 H1261 0.950 . S
C1281 C1277 1.385 . S
C1281 C1280 1.374 . S
C1282 C1279 1.499 . S
C1282 C1283 1.373 . S
C1282 C1284 1.389 . S
C1283 H1262 0.950 . S
C1283 C1282 1.373 . S
C1283 C1299 1.377 . S
C1284 C1282 1.389 . S
C1284 C1285 1.524 . S
C1284 C1298 1.377 . S
C1285 C1284 1.524 . S
C1285 C1286 1.397 . S
C1285 C1290 1.363 . S
C1286 H1263 0.950 . S
C1286 C1285 1.397 . S
C1286 C1287 1.334 . S
C1287 H1264 0.950 1_565 S
C1287 C1286 1.334 . S
C1287 C1288 1.287 . S
C1288 C1287 1.287 . S
C1288 C1289 1.524 . S
C1288 H1307 0.913 . S
C1289 H1265 0.950 . S
C1289 C1288 1.524 . S
C1289 C1290 1.415 . S
C1290 H1266 0.950 . S
C1290 C1285 1.363 . S
C1290 C1289 1.415 . S
C1291 H1267 0.951 . S
C1291 C1292 1.366 . S
C1291 C1293 1.388 . S
C1292 C1291 1.366 . S
C1292 C1296 1.385 . S
C1293 H1268 0.951 . S
C1293 C1291 1.388 . S
C1293 C1294 1.366 . S
C1294 C1293 1.366 . S
C1294 C1295 1.414 . S
C1294 C1297 1.499 . S
C1295 H1269 0.950 . S
C1295 C1294 1.414 . S
C1295 C1296 1.374 . S
C1296 H1270 0.950 . S
C1296 C1292 1.385 . S
C1296 C1295 1.374 . S
C1297 C1294 1.499 . S
C1297 C1298 1.373 . S
C1297 C1299 1.389 . S
C1298 H1271 0.950 . S
C1298 C1284 1.377 . S
C1298 C1297 1.373 . S
C1299 C1283 1.377 . S
C1299 C1297 1.389 . S
C1299 C1300 1.524 . S
C1300 C1299 1.524 . S
C1300 C1301 1.397 . S
C1300 C1305 1.363 . S
C1301 H1272 0.950 . S
C1301 C1300 1.397 . S
C1301 C1302 1.334 . S
C1302 H1273 0.950 . S
C1302 C1301 1.334 . S
C1302 C1303 1.287 . S
C1303 C1302 1.287 . S
C1303 C1304 1.524 . S
C1303 H1306 0.999 . S
C1304 H1274 0.950 . S
C1304 C1303 1.524 . S
C1304 C1305 1.415 . S
C1305 H1275 0.950 . S
C1305 C1300 1.363 . S
C1305 C1304 1.415 . S
H1306 C1303 0.999 . S
H1307 C1288 0.913 . S
H1308 C1326 0.951 . S
H1309 C1328 0.951 . S
H1310 C1330 0.950 . S
H1311 C1331 0.950 . S
H1312 C1333 0.950 . S
H1313 C1336 0.950 . S
H1314 C1337 0.950 . S
H1315 C1339 0.950 . S
H1316 C1340 0.950 . S
H1317 C1341 0.951 . S
H1318 C1343 0.951 . S
H1319 C1345 0.950 . S
H1320 C1346 0.950 . S
H1321 C1348 0.950 . S
H1322 C1351 0.950 . S
H1323 C1352 0.950 . S
H1324 C1354 0.950 . S
H1325 C1355 0.950 . S
C1326 H1308 0.951 . S
C1326 C1327 1.366 . S
C1326 C1328 1.388 . S
C1327 C1326 1.366 . S
C1327 C1331 1.385 . S
C1328 H1309 0.951 . S
C1328 C1326 1.388 . S
C1328 C1329 1.366 . S
C1329 C1328 1.366 . S
C1329 C1330 1.414 . S
C1329 C1332 1.499 . S
C1330 H1310 0.950 . S
C1330 C1329 1.414 . S
C1330 C1331 1.374 . S
C1331 H1311 0.950 . S
C1331 C1327 1.385 . S
C1331 C1330 1.374 . S
C1332 C1329 1.499 . S
C1332 C1333 1.373 . S
C1332 C1334 1.389 . S
C1333 H1312 0.950 . S
C1333 C1332 1.373 . S
C1333 C1349 1.377 . S
C1334 C1332 1.389 . S
C1334 C1335 1.524 . S
C1334 C1348 1.377 . S
C1335 C1334 1.524 . S
C1335 C1336 1.397 . S
C1335 C1340 1.363 . S
C1336 H1313 0.950 . S
C1336 C1335 1.397 . S
C1336 C1337 1.334 . S
C1337 H1314 0.950 . S
C1337 C1336 1.334 . S
C1337 C1338 1.287 . S
C1338 C1337 1.287 . S
C1338 C1339 1.524 . S
C1338 H1357 0.913 . S
C1339 H1315 0.950 . S
C1339 C1338 1.524 . S
C1339 C1340 1.415 . S
C1340 H1316 0.950 . S
C1340 C1335 1.363 . S
C1340 C1339 1.415 . S
C1341 H1317 0.951 . S
C1341 C1342 1.366 . S
C1341 C1343 1.388 . S
C1342 C1341 1.366 . S
C1342 C1346 1.385 . S
C1343 H1318 0.951 . S
C1343 C1341 1.388 . S
C1343 C1344 1.366 . S
C1344 C1343 1.366 . S
C1344 C1345 1.414 . S
C1344 C1347 1.499 . S
C1345 H1319 0.950 . S
C1345 C1344 1.414 . S
C1345 C1346 1.374 . S
C1346 H1320 0.950 . S
C1346 C1342 1.385 . S
C1346 C1345 1.374 . S
C1347 C1344 1.499 . S
C1347 C1348 1.373 . S
C1347 C1349 1.389 . S
C1348 H1321 0.950 . S
C1348 C1334 1.377 . S
C1348 C1347 1.373 . S
C1349 C1333 1.377 . S
C1349 C1347 1.389 . S
C1349 C1350 1.524 . S
C1350 C1349 1.524 . S
C1350 C1351 1.397 . S
C1350 C1355 1.363 . S
C1351 H1322 0.950 . S
C1351 C1350 1.397 . S
C1351 C1352 1.334 . S
C1352 H1323 0.950 . S
C1352 C1351 1.334 . S
C1352 C1353 1.287 . S
C1353 C1352 1.287 . S
C1353 C1354 1.524 . S
C1353 H1356 0.999 . S
C1354 H1324 0.950 . S
C1354 C1353 1.524 . S
C1354 C1355 1.415 . S
C1355 H1325 0.950 . S
C1355 C1350 1.363 . S
C1355 C1354 1.415 . S
H1356 C1353 0.999 . S
H1357 C1338 0.913 . S
H1358 C1376 0.951 . S
H1359 C1378 0.951 . S
H1360 C1380 0.950 . S
H1361 C1381 0.950 . S
H1362 C1383 0.950 . S
H1363 C1386 0.950 . S
H1364 C1387 0.950 . S
H1365 C1389 0.950 . S
H1366 C1390 0.950 . S
H1367 C1391 0.951 . S
H1368 C1393 0.951 . S
H1369 C1395 0.950 . S
H1370 C1396 0.950 . S
H1371 C1398 0.950 . S
H1372 C1401 0.950 . S
H1373 C1402 0.950 . S
H1374 C1404 0.950 . S
H1375 C1405 0.950 . S
C1376 H1358 0.951 . S
C1376 C1377 1.366 . S
C1376 C1378 1.388 . S
C1377 C1376 1.366 . S
C1377 C1381 1.385 . S
C1378 H1359 0.951 . S
C1378 C1376 1.388 . S
C1378 C1379 1.366 . S
C1379 C1378 1.366 . S
C1379 C1380 1.414 . S
C1379 C1382 1.499 . S
C1380 H1360 0.950 . S
C1380 C1379 1.414 . S
C1380 C1381 1.374 . S
C1381 H1361 0.950 . S
C1381 C1377 1.385 . S
C1381 C1380 1.374 . S
C1382 C1379 1.499 . S
C1382 C1383 1.373 . S
C1382 C1384 1.389 . S
C1383 H1362 0.950 . S
C1383 C1382 1.373 . S
C1383 C1399 1.377 . S
C1384 C1382 1.389 . S
C1384 C1385 1.524 . S
C1384 C1398 1.377 . S
C1385 C1384 1.524 . S
C1385 C1386 1.397 . S
C1385 C1390 1.363 . S
C1386 H1363 0.950 . S
C1386 C1385 1.397 . S
C1386 C1387 1.334 . S
C1387 H1364 0.950 . S
C1387 C1386 1.334 . S
C1387 C1388 1.287 . S
C1388 C1387 1.287 . S
C1388 C1389 1.524 . S
C1388 H1407 0.913 . S
C1389 H1365 0.950 . S
C1389 C1388 1.524 . S
C1389 C1390 1.415 . S
C1390 H1366 0.950 . S
C1390 C1385 1.363 . S
C1390 C1389 1.415 . S
C1391 H1367 0.951 . S
C1391 C1392 1.366 . S
C1391 C1393 1.388 . S
C1392 C1391 1.366 . S
C1392 C1396 1.385 . S
C1393 H1368 0.951 . S
C1393 C1391 1.388 . S
C1393 C1394 1.366 . S
C1394 C1393 1.366 . S
C1394 C1395 1.414 . S
C1394 C1397 1.499 . S
C1395 H1369 0.950 . S
C1395 C1394 1.414 . S
C1395 C1396 1.374 . S
C1396 H1370 0.950 . S
C1396 C1392 1.385 . S
C1396 C1395 1.374 . S
C1397 C1394 1.499 . S
C1397 C1398 1.373 . S
C1397 C1399 1.389 . S
C1398 H1371 0.950 . S
C1398 C1384 1.377 . S
C1398 C1397 1.373 . S
C1399 C1383 1.377 . S
C1399 C1397 1.389 . S
C1399 C1400 1.524 . S
C1400 C1399 1.524 . S
C1400 C1401 1.397 . S
C1400 C1405 1.363 . S
C1401 H1372 0.950 . S
C1401 C1400 1.397 . S
C1401 C1402 1.334 . S
C1402 H1373 0.950 . S
C1402 C1401 1.334 . S
C1402 C1403 1.287 . S
C1403 C1402 1.287 . S
C1403 C1404 1.524 . S
C1403 H1406 0.999 . S
C1404 H1374 0.950 . S
C1404 C1403 1.524 . S
C1404 C1405 1.415 . S
C1405 H1375 0.950 . S
C1405 C1400 1.363 . S
C1405 C1404 1.415 . S
H1406 C1403 0.999 . S
H1407 C1388 0.913 . S
H1408 C1426 0.951 . S
H1409 C1428 0.951 . S
H1410 C1430 0.950 . S
H1411 C1431 0.950 . S
H1412 C1433 0.950 . S
H1413 C1436 0.950 . S
H1414 C1437 0.950 . S
H1415 C1439 0.950 . S
H1416 C1440 0.950 . S
H1417 C1441 0.951 . S
H1418 C1443 0.951 . S
H1419 C1445 0.950 . S
H1420 C1446 0.950 . S
H1421 C1448 0.950 . S
H1422 C1451 0.950 . S
H1423 C1452 0.950 . S
H1424 C1454 0.950 . S
H1425 C1455 0.950 . S
C1426 H1408 0.951 . S
C1426 C1427 1.366 . S
C1426 C1428 1.388 . S
C1427 C1426 1.366 . S
C1427 C1431 1.385 . S
C1428 H1409 0.951 . S
C1428 C1426 1.388 . S
C1428 C1429 1.366 . S
C1429 C1428 1.366 . S
C1429 C1430 1.414 . S
C1429 C1432 1.499 . S
C1430 H1410 0.950 . S
C1430 C1429 1.414 . S
C1430 C1431 1.374 . S
C1431 H1411 0.950 . S
C1431 C1427 1.385 . S
C1431 C1430 1.374 . S
C1432 C1429 1.499 . S
C1432 C1433 1.373 . S
C1432 C1434 1.363 1_454 S
C1433 H1412 0.950 . S
C1433 C1432 1.373 . S
C1433 C1449 1.402 . S
C1434 C1432 1.363 1_656 S
C1434 C1435 1.526 . S
C1434 C1448 1.402 . S
C1435 C1434 1.526 . S
C1435 C1436 1.397 1_556 S
C1435 C1440 1.363 . S
C1436 H1413 0.950 . S
C1436 C1435 1.397 1_554 S
C1436 C1437 1.334 . S
C1437 H1414 0.950 . S
C1437 C1436 1.334 . S
C1437 C1438 1.291 . S
C1438 C1437 1.291 . S
C1438 C1439 1.519 1_554 S
C1438 H1457 0.913 . S
C1439 H1415 0.950 . S
C1439 C1438 1.519 1_556 S
C1439 C1440 1.415 . S
C1440 H1416 0.950 . S
C1440 C1435 1.363 . S
C1440 C1439 1.415 . S
C1441 H1417 0.951 . S
C1441 C1442 1.366 . S
C1441 C1443 1.388 . S
C1442 C1441 1.366 . S
C1442 C1446 1.385 . S
C1443 H1418 0.951 . S
C1443 C1441 1.388 . S
C1443 C1444 1.366 . S
C1444 C1443 1.366 . S
C1444 C1445 1.414 . S
C1444 C1447 1.499 . S
C1445 H1419 0.950 . S
C1445 C1444 1.414 . S
C1445 C1446 1.374 . S
C1446 H1420 0.950 . S
C1446 C1442 1.385 . S
C1446 C1445 1.374 . S
C1447 C1444 1.499 . S
C1447 C1448 1.373 . S
C1447 C1449 1.363 1_656 S
C1448 H1421 0.950 . S
C1448 C1434 1.402 . S
C1448 C1447 1.373 . S
C1449 C1433 1.402 . S
C1449 C1447 1.363 1_454 S
C1449 C1450 1.526 . S
C1450 C1449 1.526 . S
C1450 C1451 1.397 1_554 S
C1450 C1455 1.363 . S
C1451 H1422 0.950 . S
C1451 C1450 1.397 1_556 S
C1451 C1452 1.334 . S
C1452 H1423 0.950 . S
C1452 C1451 1.334 . S
C1452 C1453 1.291 . S
C1453 C1452 1.291 . S
C1453 C1454 1.519 1_556 S
C1453 H1456 0.999 1_556 S
C1454 H1424 0.950 . S
C1454 C1453 1.519 1_554 S
C1454 C1455 1.415 . S
C1455 H1425 0.950 . S
C1455 C1450 1.363 . S
C1455 C1454 1.415 . S
H1456 C1453 0.999 1_554 S
H1457 C1438 0.913 . S
H1458 C1476 0.951 . S
H1459 C1478 0.951 . S
H1460 C1480 0.950 . S
H1461 C1481 0.950 . S
H1462 C1483 0.950 . S
H1463 C1486 0.950 . S
H1464 C1487 0.950 . S
H1465 C1489 0.950 . S
H1466 C1490 0.950 . S
H1467 C1491 0.951 . S
H1468 C1493 0.951 . S
H1469 C1495 0.950 . S
H1470 C1496 0.950 . S
H1471 C1498 0.950 . S
H1472 C1501 0.950 . S
H1473 C1502 0.950 . S
H1474 C1504 0.950 . S
H1475 C1505 0.950 . S
C1476 H1458 0.951 . S
C1476 C1477 1.366 . S
C1476 C1478 1.388 . S
C1477 C1476 1.366 . S
C1477 C1481 1.385 . S
C1478 H1459 0.951 . S
C1478 C1476 1.388 . S
C1478 C1479 1.366 . S
C1479 C1478 1.366 . S
C1479 C1480 1.414 . S
C1479 C1482 1.499 . S
C1480 H1460 0.950 . S
C1480 C1479 1.414 . S
C1480 C1481 1.374 . S
C1481 H1461 0.950 . S
C1481 C1477 1.385 . S
C1481 C1480 1.374 . S
C1482 C1479 1.499 . S
C1482 C1483 1.373 1_565 S
C1482 C1484 1.389 1_556 S
C1483 H1462 0.950 . S
C1483 C1482 1.373 1_545 S
C1483 C1499 1.377 1_455 S
C1484 C1482 1.389 1_554 S
C1484 C1485 1.524 . S
C1484 C1498 1.377 1_455 S
C1485 C1484 1.524 . S
C1485 C1486 1.397 1_454 S
C1485 C1490 1.363 . S
C1486 H1463 0.950 . S
C1486 C1485 1.397 1_656 S
C1486 C1487 1.334 . S
C1487 H1464 0.950 . S
C1487 C1486 1.334 . S
C1487 C1488 1.287 1_656 S
C1488 C1487 1.287 1_454 S
C1488 C1489 1.524 . S
C1488 H1507 0.913 . S
C1489 H1465 0.950 . S
C1489 C1488 1.524 . S
C1489 C1490 1.415 . S
C1490 H1466 0.950 . S
C1490 C1485 1.363 . S
C1490 C1489 1.415 . S
C1491 H1467 0.951 . S
C1491 C1492 1.366 . S
C1491 C1493 1.388 . S
C1492 C1491 1.366 . S
C1492 C1496 1.385 . S
C1493 H1468 0.951 . S
C1493 C1491 1.388 . S
C1493 C1494 1.366 . S
C1494 C1493 1.366 . S
C1494 C1495 1.414 . S
C1494 C1497 1.499 . S
C1495 H1469 0.950 . S
C1495 C1494 1.414 . S
C1495 C1496 1.374 . S
C1496 H1470 0.950 . S
C1496 C1492 1.385 . S
C1496 C1495 1.374 . S
C1497 C1494 1.499 . S
C1497 C1498 1.373 1_545 S
C1497 C1499 1.389 1_554 S
C1498 H1471 0.950 . S
C1498 C1484 1.377 1_655 S
C1498 C1497 1.373 1_565 S
C1499 C1483 1.377 1_655 S
C1499 C1497 1.389 1_556 S
C1499 C1500 1.524 . S
C1500 C1499 1.524 . S
C1500 C1501 1.397 1_656 S
C1500 C1505 1.363 . S
C1501 H1472 0.950 . S
C1501 C1500 1.397 1_454 S
C1501 C1502 1.334 . S
C1502 H1473 0.950 . S
C1502 C1501 1.334 . S
C1502 C1503 1.287 1_454 S
C1503 C1502 1.287 1_656 S
C1503 C1504 1.524 . S
C1503 H1506 0.999 . S
C1504 H1474 0.950 . S
C1504 C1503 1.524 . S
C1504 C1505 1.415 . S
C1505 H1475 0.950 . S
C1505 C1500 1.363 . S
C1505 C1504 1.415 . S
H1506 C1503 0.999 . S
H1507 C1488 0.913 . S
H1508 C1526 0.951 . S
H1509 C1528 0.951 . S
H1510 C1530 0.950 . S
H1511 C1531 0.950 . S
H1512 C1533 0.950 . S
H1513 C1536 0.950 . S
H1514 C1537 0.950 . S
H1515 C1539 0.950 . S
H1516 C1540 0.950 . S
H1517 C1541 0.951 . S
H1518 C1543 0.951 . S
H1519 C1545 0.950 . S
H1520 C1546 0.950 . S
H1521 C1548 0.950 . S
H1522 C1551 0.950 . S
H1523 C1552 0.950 . S
H1524 C1554 0.950 . S
H1525 C1555 0.950 . S
C1526 H1508 0.951 . S
C1526 C1527 1.366 . S
C1526 C1528 1.388 . S
C1527 C1526 1.366 . S
C1527 C1531 1.385 . S
C1528 H1509 0.951 . S
C1528 C1526 1.388 . S
C1528 C1529 1.366 . S
C1529 C1528 1.366 . S
C1529 C1530 1.414 . S
C1529 C1532 1.499 . S
C1530 H1510 0.950 . S
C1530 C1529 1.414 . S
C1530 C1531 1.374 . S
C1531 H1511 0.950 . S
C1531 C1527 1.385 . S
C1531 C1530 1.374 . S
C1532 C1529 1.499 . S
C1532 C1533 1.366 1_565 S
C1532 C1534 1.389 1_554 S
C1533 H1512 0.950 . S
C1533 C1532 1.366 1_545 S
C1533 C1549 1.383 . S
C1534 C1532 1.389 1_556 S
C1534 C1535 1.524 . S
C1534 C1548 1.383 . S
C1535 C1534 1.524 . S
C1535 C1536 1.397 . S
C1535 C1540 1.363 . S
C1536 H1513 0.950 . S
C1536 C1535 1.397 . S
C1536 C1537 1.334 . S
C1537 H1514 0.950 . S
C1537 C1536 1.334 . S
C1537 C1538 1.287 . S
C1538 C1537 1.287 . S
C1538 C1539 1.524 . S
C1538 H1557 0.913 . S
C1539 H1515 0.950 . S
C1539 C1538 1.524 . S
C1539 C1540 1.415 . S
C1540 H1516 0.950 . S
C1540 C1535 1.363 . S
C1540 C1539 1.415 . S
C1541 H1517 0.951 . S
C1541 C1542 1.366 . S
C1541 C1543 1.388 . S
C1542 C1541 1.366 . S
C1542 C1546 1.385 . S
C1543 H1518 0.951 . S
C1543 C1541 1.388 . S
C1543 C1544 1.366 . S
C1544 C1543 1.366 . S
C1544 C1545 1.414 . S
C1544 C1547 1.499 . S
C1545 H1519 0.950 . S
C1545 C1544 1.414 . S
C1545 C1546 1.374 . S
C1546 H1520 0.950 . S
C1546 C1542 1.385 . S
C1546 C1545 1.374 . S
C1547 C1544 1.499 . S
C1547 C1548 1.366 1_545 S
C1547 C1549 1.389 1_556 S
C1548 H1521 0.950 . S
C1548 C1534 1.383 . S
C1548 C1547 1.366 1_565 S
C1549 C1533 1.383 . S
C1549 C1547 1.389 1_554 S
C1549 C1550 1.524 . S
C1550 C1549 1.524 . S
C1550 C1551 1.397 . S
C1550 C1555 1.363 . S
C1551 H1522 0.950 . S
C1551 C1550 1.397 . S
C1551 C1552 1.334 . S
C1552 H1523 0.950 . S
C1552 C1551 1.334 . S
C1552 C1553 1.287 . S
C1553 C1552 1.287 . S
C1553 C1554 1.524 . S
C1553 H1556 0.999 . S
C1554 H1524 0.950 . S
C1554 C1553 1.524 . S
C1554 C1555 1.415 . S
C1555 H1525 0.950 . S
C1555 C1550 1.363 . S
C1555 C1554 1.415 . S
H1556 C1553 0.999 . S
H1557 C1538 0.913 . S
H1558 C1576 0.951 . S
H1559 C1578 0.951 . S
H1560 C1580 0.950 . S
H1561 C1581 0.950 . S
H1562 C1583 0.950 . S
H1563 C1586 0.950 . S
H1564 C1587 0.950 . S
H1565 C1589 0.950 . S
H1566 C1590 0.950 . S
H1567 C1591 0.951 . S
H1568 C1593 0.951 . S
H1569 C1595 0.950 . S
H1570 C1596 0.950 . S
H1571 C1598 0.950 . S
H1572 C1601 0.950 . S
H1573 C1602 0.950 . S
H1574 C1604 0.950 . S
H1575 C1605 0.950 . S
C1576 H1558 0.951 . S
C1576 C1577 1.366 . S
C1576 C1578 1.388 . S
C1577 C1576 1.366 . S
C1577 C1581 1.385 . S
C1578 H1559 0.951 . S
C1578 C1576 1.388 . S
C1578 C1579 1.366 . S
C1579 C1578 1.366 . S
C1579 C1580 1.414 . S
C1579 C1582 1.499 . S
C1580 H1560 0.950 . S
C1580 C1579 1.414 . S
C1580 C1581 1.374 . S
C1581 H1561 0.950 . S
C1581 C1577 1.385 . S
C1581 C1580 1.374 . S
C1582 C1579 1.499 . S
C1582 C1583 1.373 1_556 S
C1582 C1584 1.389 . S
C1583 H1562 0.950 . S
C1583 C1582 1.373 1_554 S
C1583 C1599 1.377 . S
C1584 C1582 1.389 . S
C1584 C1585 1.524 . S
C1584 C1598 1.377 . S
C1585 C1584 1.524 . S
C1585 C1586 1.397 . S
C1585 C1590 1.363 . S
C1586 H1563 0.950 . S
C1586 C1585 1.397 . S
C1586 C1587 1.334 . S
C1587 H1564 0.950 . S
C1587 C1586 1.334 . S
C1587 C1588 1.287 . S
C1588 C1587 1.287 . S
C1588 C1589 1.524 . S
C1588 H1607 0.913 . S
C1589 H1565 0.950 . S
C1589 C1588 1.524 . S
C1589 C1590 1.415 . S
C1590 H1566 0.950 . S
C1590 C1585 1.363 . S
C1590 C1589 1.415 . S
C1591 H1567 0.951 . S
C1591 C1592 1.366 . S
C1591 C1593 1.388 . S
C1592 C1591 1.366 . S
C1592 C1596 1.385 . S
C1593 H1568 0.951 . S
C1593 C1591 1.388 . S
C1593 C1594 1.366 . S
C1594 C1593 1.366 . S
C1594 C1595 1.414 . S
C1594 C1597 1.499 . S
C1595 H1569 0.950 . S
C1595 C1594 1.414 . S
C1595 C1596 1.374 . S
C1596 H1570 0.950 . S
C1596 C1592 1.385 . S
C1596 C1595 1.374 . S
C1597 C1594 1.499 . S
C1597 C1598 1.373 1_554 S
C1597 C1599 1.389 . S
C1598 H1571 0.950 . S
C1598 C1584 1.377 . S
C1598 C1597 1.373 1_556 S
C1599 C1583 1.377 . S
C1599 C1597 1.389 . S
C1599 C1600 1.524 . S
C1600 C1599 1.524 . S
C1600 C1601 1.397 . S
C1600 C1605 1.363 . S
C1601 H1572 0.950 . S
C1601 C1600 1.397 . S
C1601 C1602 1.334 . S
C1602 H1573 0.950 . S
C1602 C1601 1.334 . S
C1602 C1603 1.287 . S
C1603 C1602 1.287 . S
C1603 C1604 1.524 . S
C1603 H1606 0.999 . S
C1604 H1574 0.950 . S
C1604 C1603 1.524 . S
C1604 C1605 1.415 . S
C1605 H1575 0.950 . S
C1605 C1600 1.363 . S
C1605 C1604 1.415 . S
H1606 C1603 0.999 . S
H1607 C1588 0.913 . S
H1608 C1626 0.951 . S
H1609 C1628 0.951 . S
H1610 C1630 0.950 1_655 S
H1611 C1631 0.950 . S
H1612 C1633 0.950 . S
H1613 C1636 0.950 . S
H1614 C1637 0.950 . S
H1615 C1639 0.950 1_545 S
H1616 C1640 0.950 . S
H1617 C1641 0.951 . S
H1618 C1643 0.951 . S
H1619 C1645 0.950 1_455 S
H1620 C1646 0.950 . S
H1621 C1648 0.950 . S
H1622 C1651 0.950 . S
H1623 C1652 0.950 . S
H1624 C1654 0.950 1_565 S
H1625 C1655 0.950 . S
C1626 H1608 0.951 . S
C1626 C1627 1.366 . S
C1626 C1628 1.388 . S
C1627 C1626 1.366 . S
C1627 C1631 1.385 . S
C1628 H1609 0.951 . S
C1628 C1626 1.388 . S
C1628 C1629 1.366 . S
C1629 C1628 1.366 . S
C1629 C1630 1.414 . S
C1629 C1632 1.499 . S
C1630 H1610 0.950 1_455 S
C1630 C1629 1.414 . S
C1630 C1631 1.374 . S
C1631 H1611 0.950 . S
C1631 C1627 1.385 . S
C1631 C1630 1.374 . S
C1632 C1629 1.499 . S
C1632 C1633 1.373 1_455 S
C1632 C1634 1.389 . S
C1633 H1612 0.950 . S
C1633 C1632 1.373 1_655 S
C1633 C1649 1.377 1_565 S
C1634 C1632 1.389 . S
C1634 C1635 1.524 . S
C1634 C1648 1.377 1_565 S
C1635 C1634 1.524 . S
C1635 C1636 1.397 . S
C1635 C1640 1.363 1_565 S
C1636 H1613 0.950 . S
C1636 C1635 1.397 . S
C1636 C1637 1.334 . S
C1637 H1614 0.950 . S
C1637 C1636 1.334 . S
C1637 C1638 1.287 . S
C1638 C1637 1.287 . S
C1638 C1639 1.524 . S
C1638 H1657 0.913 . S
C1639 H1615 0.950 1_565 S
C1639 C1638 1.524 . S
C1639 C1640 1.415 1_565 S
C1640 H1616 0.950 . S
C1640 C1635 1.363 1_545 S
C1640 C1639 1.415 1_545 S
C1641 H1617 0.951 . S
C1641 C1642 1.366 . S
C1641 C1643 1.388 . S
C1642 C1641 1.366 . S
C1642 C1646 1.385 . S
C1643 H1618 0.951 . S
C1643 C1641 1.388 . S
C1643 C1644 1.366 . S
C1644 C1643 1.366 . S
C1644 C1645 1.414 . S
C1644 C1647 1.499 . S
C1645 H1619 0.950 1_655 S
C1645 C1644 1.414 . S
C1645 C1646 1.374 . S
C1646 H1620 0.950 . S
C1646 C1642 1.385 . S
C1646 C1645 1.374 . S
C1647 C1644 1.499 . S
C1647 C1648 1.373 1_655 S
C1647 C1649 1.389 . S
C1648 H1621 0.950 . S
C1648 C1634 1.377 1_545 S
C1648 C1647 1.373 1_455 S
C1649 C1633 1.377 1_545 S
C1649 C1647 1.389 . S
C1649 C1650 1.524 . S
C1650 C1649 1.524 . S
C1650 C1651 1.397 . S
C1650 C1655 1.363 1_545 S
C1651 H1622 0.950 . S
C1651 C1650 1.397 . S
C1651 C1652 1.334 . S
C1652 H1623 0.950 . S
C1652 C1651 1.334 . S
C1652 C1653 1.287 . S
C1653 C1652 1.287 . S
C1653 C1654 1.524 . S
C1653 H1656 0.999 . S
C1654 H1624 0.950 1_545 S
C1654 C1653 1.524 . S
C1654 C1655 1.415 1_545 S
C1655 H1625 0.950 . S
C1655 C1650 1.363 1_565 S
C1655 C1654 1.415 1_565 S
H1656 C1653 0.999 . S
H1657 C1638 0.913 . S
H1658 C1676 0.951 . S
H1659 C1678 0.951 . S
H1660 C1680 0.950 . S
H1661 C1681 0.950 . S
H1662 C1683 0.950 . S
H1663 C1686 0.950 . S
H1664 C1687 0.950 . S
H1665 C1689 0.950 . S
H1666 C1690 0.950 . S
H1667 C1691 0.951 . S
H1668 C1693 0.951 . S
H1669 C1695 0.950 . S
H1670 C1696 0.950 . S
H1671 C1698 0.950 . S
H1672 C1701 0.950 . S
H1673 C1702 0.950 . S
H1674 C1704 0.950 . S
H1675 C1705 0.950 . S
C1676 H1658 0.951 . S
C1676 C1677 1.366 . S
C1676 C1678 1.388 . S
C1677 C1676 1.366 . S
C1677 C1681 1.385 . S
C1678 H1659 0.951 . S
C1678 C1676 1.388 . S
C1678 C1679 1.366 . S
C1679 C1678 1.366 . S
C1679 C1680 1.414 . S
C1679 C1682 1.499 . S
C1680 H1660 0.950 . S
C1680 C1679 1.414 . S
C1680 C1681 1.374 . S
C1681 H1661 0.950 . S
C1681 C1677 1.385 . S
C1681 C1680 1.374 . S
C1682 C1679 1.499 . S
C1682 C1683 1.373 . S
C1682 C1684 1.389 1_545 S
C1683 H1662 0.950 . S
C1683 C1682 1.373 . S
C1683 C1699 1.377 . S
C1684 C1682 1.389 1_565 S
C1684 C1685 1.524 . S
C1684 C1698 1.377 . S
C1685 C1684 1.524 . S
C1685 C1686 1.397 . S
C1685 C1690 1.363 . S
C1686 H1663 0.950 . S
C1686 C1685 1.397 . S
C1686 C1687 1.334 . S
C1687 H1664 0.950 . S
C1687 C1686 1.334 . S
C1687 C1688 1.287 . S
C1688 C1687 1.287 . S
C1688 C1689 1.524 . S
C1688 H1707 0.913 . S
C1689 H1665 0.950 . S
C1689 C1688 1.524 . S
C1689 C1690 1.415 . S
C1690 H1666 0.950 . S
C1690 C1685 1.363 . S
C1690 C1689 1.415 . S
C1691 H1667 0.951 . S
C1691 C1692 1.366 . S
C1691 C1693 1.388 . S
C1692 C1691 1.366 . S
C1692 C1696 1.385 . S
C1693 H1668 0.951 . S
C1693 C1691 1.388 . S
C1693 C1694 1.366 . S
C1694 C1693 1.366 . S
C1694 C1695 1.414 . S
C1694 C1697 1.499 . S
C1695 H1669 0.950 . S
C1695 C1694 1.414 . S
C1695 C1696 1.374 . S
C1696 H1670 0.950 . S
C1696 C1692 1.385 . S
C1696 C1695 1.374 . S
C1697 C1694 1.499 . S
C1697 C1698 1.373 . S
C1697 C1699 1.389 1_565 S
C1698 H1671 0.950 . S
C1698 C1684 1.377 . S
C1698 C1697 1.373 . S
C1699 C1683 1.377 . S
C1699 C1697 1.389 1_545 S
C1699 C1700 1.524 . S
C1700 C1699 1.524 . S
C1700 C1701 1.397 . S
C1700 C1705 1.363 . S
C1701 H1672 0.950 . S
C1701 C1700 1.397 . S
C1701 C1702 1.334 . S
C1702 H1673 0.950 . S
C1702 C1701 1.334 . S
C1702 C1703 1.287 . S
C1703 C1702 1.287 . S
C1703 C1704 1.524 . S
C1703 H1706 0.999 . S
C1704 H1674 0.950 . S
C1704 C1703 1.524 . S
C1704 C1705 1.415 . S
C1705 H1675 0.950 . S
C1705 C1700 1.363 . S
C1705 C1704 1.415 . S
H1706 C1703 0.999 . S
H1707 C1688 0.913 . S
H1708 C1726 0.951 . S
H1709 C1728 0.951 . S
H1710 C1730 0.950 . S
H1711 C1731 0.950 . S
H1712 C1733 0.950 . S
H1713 C1736 0.950 . S
H1714 C1737 0.950 . S
H1715 C1739 0.950 . S
H1716 C1740 0.950 . S
H1717 C1741 0.951 . S
H1718 C1743 0.951 . S
H1719 C1745 0.950 . S
H1720 C1746 0.950 . S
H1721 C1748 0.950 . S
H1722 C1751 0.950 . S
H1723 C1752 0.950 . S
H1724 C1754 0.950 . S
H1725 C1755 0.950 . S
C1726 H1708 0.951 . S
C1726 C1727 1.366 . S
C1726 C1728 1.388 . S
C1727 C1726 1.366 . S
C1727 C1731 1.385 . S
C1728 H1709 0.951 . S
C1728 C1726 1.388 . S
C1728 C1729 1.366 . S
C1729 C1728 1.366 . S
C1729 C1730 1.414 . S
C1729 C1732 1.499 . S
C1730 H1710 0.950 . S
C1730 C1729 1.414 . S
C1730 C1731 1.374 . S
C1731 H1711 0.950 . S
C1731 C1727 1.385 . S
C1731 C1730 1.374 . S
C1732 C1729 1.499 . S
C1732 C1733 1.373 . S
C1732 C1734 1.389 . S
C1733 H1712 0.950 . S
C1733 C1732 1.373 . S
C1733 C1749 1.377 . S
C1734 C1732 1.389 . S
C1734 C1735 1.524 . S
C1734 C1748 1.377 . S
C1735 C1734 1.524 . S
C1735 C1736 1.397 . S
C1735 C1740 1.363 . S
C1736 H1713 0.950 . S
C1736 C1735 1.397 . S
C1736 C1737 1.334 . S
C1737 H1714 0.950 . S
C1737 C1736 1.334 . S
C1737 C1738 1.287 . S
C1738 C1737 1.287 . S
C1738 C1739 1.524 . S
C1738 H1757 0.913 . S
C1739 H1715 0.950 . S
C1739 C1738 1.524 . S
C1739 C1740 1.415 . S
C1740 H1716 0.950 . S
C1740 C1735 1.363 . S
C1740 C1739 1.415 . S
C1741 H1717 0.951 . S
C1741 C1742 1.366 . S
C1741 C1743 1.388 . S
C1742 C1741 1.366 . S
C1742 C1746 1.385 . S
C1743 H1718 0.951 . S
C1743 C1741 1.388 . S
C1743 C1744 1.366 . S
C1744 C1743 1.366 . S
C1744 C1745 1.414 . S
C1744 C1747 1.499 . S
C1745 H1719 0.950 . S
C1745 C1744 1.414 . S
C1745 C1746 1.374 . S
C1746 H1720 0.950 . S
C1746 C1742 1.385 . S
C1746 C1745 1.374 . S
C1747 C1744 1.499 . S
C1747 C1748 1.373 . S
C1747 C1749 1.389 . S
C1748 H1721 0.950 . S
C1748 C1734 1.377 . S
C1748 C1747 1.373 . S
C1749 C1733 1.377 . S
C1749 C1747 1.389 . S
C1749 C1750 1.524 . S
C1750 C1749 1.524 . S
C1750 C1751 1.397 . S
C1750 C1755 1.363 . S
C1751 H1722 0.950 . S
C1751 C1750 1.397 . S
C1751 C1752 1.334 . S
C1752 H1723 0.950 . S
C1752 C1751 1.334 . S
C1752 C1753 1.287 . S
C1753 C1752 1.287 . S
C1753 C1754 1.524 . S
C1753 H1756 0.999 . S
C1754 H1724 0.950 . S
C1754 C1753 1.524 . S
C1754 C1755 1.415 . S
C1755 H1725 0.950 . S
C1755 C1750 1.363 . S
C1755 C1754 1.415 . S
H1756 C1753 0.999 . S
H1757 C1738 0.913 . S
H1758 C1776 0.951 . S
H1759 C1778 0.951 . S
H1760 C1780 0.950 . S
H1761 C1781 0.950 . S
H1762 C1783 0.950 . S
H1763 C1786 0.950 . S
H1764 C1787 0.950 . S
H1765 C1789 0.950 1_455 S
H1766 C1790 0.950 . S
H1767 C1791 0.951 . S
H1768 C1793 0.951 . S
H1769 C1795 0.950 . S
H1770 C1796 0.950 . S
H1771 C1798 0.950 . S
H1772 C1801 0.950 . S
H1773 C1802 0.950 . S
H1774 C1804 0.950 1_655 S
H1775 C1805 0.950 . S
C1776 H1758 0.951 . S
C1776 C1777 1.366 . S
C1776 C1778 1.388 . S
C1777 C1776 1.366 . S
C1777 C1781 1.385 . S
C1778 H1759 0.951 . S
C1778 C1776 1.388 . S
C1778 C1779 1.366 . S
C1779 C1778 1.366 . S
C1779 C1780 1.414 . S
C1779 C1782 1.499 . S
C1780 H1760 0.950 . S
C1780 C1779 1.414 . S
C1780 C1781 1.374 . S
C1781 H1761 0.950 . S
C1781 C1777 1.385 . S
C1781 C1780 1.374 . S
C1782 C1779 1.499 . S
C1782 C1783 1.373 . S
C1782 C1784 1.389 . S
C1783 H1762 0.950 . S
C1783 C1782 1.373 . S
C1783 C1799 1.377 1_655 S
C1784 C1782 1.389 . S
C1784 C1785 1.524 . S
C1784 C1798 1.377 1_655 S
C1785 C1784 1.524 . S
C1785 C1786 1.397 . S
C1785 C1790 1.363 1_655 S
C1786 H1763 0.950 . S
C1786 C1785 1.397 . S
C1786 C1787 1.334 . S
C1787 H1764 0.950 . S
C1787 C1786 1.334 . S
C1787 C1788 1.287 . S
C1788 C1787 1.287 . S
C1788 C1789 1.524 . S
C1788 H1807 0.913 . S
C1789 H1765 0.950 1_655 S
C1789 C1788 1.524 . S
C1789 C1790 1.415 1_655 S
C1790 H1766 0.950 . S
C1790 C1785 1.363 1_455 S
C1790 C1789 1.415 1_455 S
C1791 H1767 0.951 . S
C1791 C1792 1.366 . S
C1791 C1793 1.388 . S
C1792 C1791 1.366 . S
C1792 C1796 1.385 . S
C1793 H1768 0.951 . S
C1793 C1791 1.388 . S
C1793 C1794 1.366 . S
C1794 C1793 1.366 . S
C1794 C1795 1.414 . S
C1794 C1797 1.499 . S
C1795 H1769 0.950 . S
C1795 C1794 1.414 . S
C1795 C1796 1.374 . S
C1796 H1770 0.950 . S
C1796 C1792 1.385 . S
C1796 C1795 1.374 . S
C1797 C1794 1.499 . S
C1797 C1798 1.373 . S
C1797 C1799 1.389 . S
C1798 H1771 0.950 . S
C1798 C1784 1.377 1_455 S
C1798 C1797 1.373 . S
C1799 C1783 1.377 1_455 S
C1799 C1797 1.389 . S
C1799 C1800 1.524 . S
C1800 C1799 1.524 . S
C1800 C1801 1.397 . S
C1800 C1805 1.363 1_455 S
C1801 H1772 0.950 . S
C1801 C1800 1.397 . S
C1801 C1802 1.334 . S
C1802 H1773 0.950 . S
C1802 C1801 1.334 . S
C1802 C1803 1.287 . S
C1803 C1802 1.287 . S
C1803 C1804 1.524 . S
C1803 H1806 0.999 . S
C1804 H1774 0.950 1_455 S
C1804 C1803 1.524 . S
C1804 C1805 1.415 1_455 S
C1805 H1775 0.950 . S
C1805 C1800 1.363 1_655 S
C1805 C1804 1.415 1_655 S
H1806 C1803 0.999 . S
H1807 C1788 0.913 . S
C227 C3 1.405 . S
C242 C29 1.405 . S
C277 C18 1.405 . S
C292 C42 1.406 . S
C327 C57 1.405 . S
C342 C81 1.405 . S
C377 C94 1.405 . S
C392 C70 1.406 . S
C427 C109 1.406 . S
C442 C135 1.406 . S
C477 C146 1.406 . S
C492 C122 1.405 . S
C527 C187 1.406 . S
C542 C161 1.405 . S
C577 C198 1.406 . S
C592 C174 1.406 . S
C627 C101 0.982 . S
C642 C10 0.982 . S
C677 C17 0.983 . S
C692 C56 0.983 . S
C727 C69 0.982 . S
C742 C36 0.982 . S
C777 C49 0.982 . S
C792 C88 0.983 . S
C827 C205 0.983 . S
C842 C108 0.983 . S
C877 C121 0.983 . S
C892 C160 0.982 . S
C927 C134 0.982 . S
C942 C173 0.982 . S
C977 C186 0.982 . S
C992 C153 0.983 . S
C1027 C5 0.410 . S
C1042 C55 0.410 . S
C1077 C16 0.409 . S
C1092 C68 0.408 . S
C1127 C83 0.410 . S
C1142 C31 0.408 . S
C1177 C44 0.408 . S
C1192 C96 0.406 . S
C1227 C159 0.410 . S
C1242 C107 0.410 . S
C1277 C172 0.406 . S
C1292 C120 0.407 . S
C1327 C133 0.409 . S
C1342 C185 0.407 . S
C1377 C148 0.406 . S
C1392 C200 0.407 . S
C1427 C4 1.552 . S
C1442 C114 1.552 . S
C1477 C127 1.552 . S
C1492 C23 1.552 . S
C1527 C30 1.551 . S
C1542 C140 1.551 . S
C1577 C147 1.552 . S
C1592 C43 1.552 . S
C1627 C62 1.551 . S
C1642 C166 1.551 . S
C1677 C75 1.552 . S
C1692 C179 1.552 . S
C1727 C192 1.551 . S
C1742 C82 1.551 . S
C1777 C95 1.551 . S
C1792 C199 1.551 . S
