# Generated by pormake.
# Topology unh, (4)-cn, num edge types: 1
# Building blocks:
#     Node 0, Type 0, BuildingBlock: GALJAG_clean_sbu_0, # of connection points: 4
#     Node 1, Type 0, BuildingBlock: GALJAG_clean_sbu_0, # of connection points: 4
#     Node 2, Type 0, BuildingBlock: GALJAG_clean_sbu_0, # of connection points: 4
#     Node 3, Type 0, BuildingBlock: GALJAG_clean_sbu_0, # of connection points: 4
#     Node 4, Type 0, BuildingBlock: GALJAG_clean_sbu_0, # of connection points: 4
#     Node 5, Type 0, BuildingBlock: GALJAG_clean_sbu_0, # of connection points: 4
#     Edge 6, Type (0, 0), BuildingBlock: CIFDUS_clean_linker_0, # of connection points: 2
#     Edge 7, Type (0, 0), BuildingBlock: CIFDUS_clean_linker_0, # of connection points: 2
#     Edge 8, Type (0, 0), BuildingBlock: CIFDUS_clean_linker_0, # of connection points: 2
#     Edge 9, Type (0, 0), BuildingBlock: CIFDUS_clean_linker_0, # of connection points: 2
#     Edge 10, Type (0, 0), BuildingBlock: CIFDUS_clean_linker_0, # of connection points: 2
#     Edge 11, Type (0, 0), BuildingBlock: CIFDUS_clean_linker_0, # of connection points: 2
#     Edge 12, Type (0, 0), BuildingBlock: CIFDUS_clean_linker_0, # of connection points: 2
#     Edge 13, Type (0, 0), BuildingBlock: CIFDUS_clean_linker_0, # of connection points: 2
#     Edge 14, Type (0, 0), BuildingBlock: CIFDUS_clean_linker_0, # of connection points: 2
#     Edge 15, Type (0, 0), BuildingBlock: CIFDUS_clean_linker_0, # of connection points: 2
#     Edge 16, Type (0, 0), BuildingBlock: CIFDUS_clean_linker_0, # of connection points: 2
#     Edge 17, Type (0, 0), BuildingBlock: CIFDUS_clean_linker_0, # of connection points: 2
# Relax obj value: 0.030
# Max RMSD: 0.133
# Mean RMSD: 0.133
data_MOF--net-unh--node1-GALJAG_clean_sbu_0--edge1-CIFDUS_clean_linker_0
_symmetry_space_group_name_H-M    P1
_symmetry_Int_Tables_number       1
_symmetry_cell_setting            triclinic
loop_
_symmetry_equiv_pos_as_xyz
'x, y, z'
_cell_length_a     39.73268
_cell_length_b     39.653186
_cell_length_c     17.798711
_cell_angle_alpha  90.163181
_cell_angle_beta   89.457291
_cell_angle_gamma 120.11614
loop_
_atom_site_label
_atom_site_type_symbol
_atom_site_fract_x
_atom_site_fract_y
_atom_site_fract_z
_atom_type_partial_charge
In0 In 0.13944 0.55907 0.07547 0.0
O1 O 0.10298 0.50759 0.99667 0.0
O2 O 0.08942 0.55312 0.0096 0.0
C3 C 0.19475 0.55212 0.14577 0.0
C4 C 0.09296 0.54518 0.1953 0.0
C5 C 0.18857 0.61626 0.98274 0.0
O6 O 0.17029 0.52523 0.10366 0.0
O7 O 0.19079 0.58174 0.15196 0.0
O8 O 0.17229 0.62313 0.03773 0.0
O9 O 0.17939 0.58097 0.97506 0.0
C10 C 0.08106 0.52106 0.9793 0.0
O11 O 0.1083 0.57778 0.16143 0.0
O12 O 0.10197 0.52105 0.1694 0.0
In13 In 0.57509 0.13617 0.24597 0.0
O14 O 0.59609 0.10355 0.16931 0.0
O15 O 0.53552 0.08506 0.17421 0.0
C16 C 0.63693 0.18792 0.32571 0.0
C17 C 0.5299 0.09011 0.35787 0.0
C18 C 0.56911 0.18553 0.15074 0.0
O19 O 0.63799 0.16144 0.28764 0.0
O20 O 0.60486 0.18721 0.32447 0.0
O21 O 0.54248 0.16533 0.19793 0.0
O22 O 0.59774 0.18002 0.15117 0.0
C23 C 0.56196 0.07963 0.14757 0.0
O24 O 0.5247 0.11656 0.3306 0.0
O25 O 0.55789 0.08766 0.33001 0.0
In26 In 0.44454 0.58309 0.42543 0.0
O27 O 0.49755 0.59749 0.34976 0.0
O28 O 0.4436 0.54574 0.32935 0.0
C29 C 0.47485 0.64839 0.51 0.0
C30 C 0.44064 0.53063 0.52513 0.0
C31 C 0.38232 0.58127 0.36133 0.0
O32 O 0.48377 0.64923 0.44136 0.0
O33 O 0.45212 0.61481 0.5357 0.0
O34 O 0.38004 0.55168 0.39265 0.0
O35 O 0.41556 0.61129 0.36276 0.0
C36 C 0.47904 0.56654 0.31181 0.0
O37 O 0.41354 0.5384 0.51933 0.0
O38 O 0.46946 0.54963 0.48191 0.0
In39 In 0.85831 0.4473 0.58175 0.0
O40 O 0.88973 0.42929 0.66622 0.0
O41 O 0.90168 0.4883 0.66412 0.0
C42 C 0.80164 0.38298 0.5157 0.0
C43 C 0.91321 0.48172 0.47409 0.0
C44 C 0.81139 0.46432 0.66222 0.0
O45 O 0.82497 0.38105 0.56109 0.0
O46 O 0.80776 0.41691 0.50316 0.0
O47 O 0.82606 0.48115 0.60007 0.0
O48 O 0.82029 0.4393 0.68237 0.0
C49 C 0.90842 0.46336 0.69357 0.0
O50 O 0.89302 0.49655 0.49592 0.0
O51 O 0.90431 0.44955 0.5043 0.0
In52 In 0.42932 0.86186 0.73849 0.0
O53 O 0.40982 0.87626 0.62836 0.0
O54 O 0.44906 0.92333 0.69685 0.0
C55 C 0.35703 0.80419 0.77766 0.0
C56 C 0.46244 0.90225 0.86509 0.0
C57 C 0.46749 0.8281 0.67576 0.0
O58 O 0.36543 0.83928 0.77201 0.0
O59 O 0.38444 0.79821 0.76069 0.0
O60 O 0.46077 0.8267 0.74553 0.0
O61 O 0.45625 0.84759 0.63868 0.0
C62 C 0.43033 0.91272 0.63641 0.0
O63 O 0.48259 0.90364 0.80862 0.0
O64 O 0.42637 0.87977 0.85797 0.0
In65 In 0.555 0.42036 0.90428 0.0
O66 O 0.52065 0.39958 0.79485 0.0
O67 O 0.51709 0.44309 0.85889 0.0
C68 C 0.54547 0.35063 0.94723 0.0
C69 C 0.54101 0.45162 0.02715 0.0
C70 C 0.62575 0.4583 0.83698 0.0
O71 O 0.51718 0.35441 0.92702 0.0
O72 O 0.57801 0.38149 0.94418 0.0
O73 O 0.62164 0.45468 0.90752 0.0
O74 O 0.59436 0.44423 0.80121 0.0
C75 C 0.50717 0.42238 0.80054 0.0
O76 O 0.56805 0.47225 0.9812 0.0
O77 O 0.52265 0.41573 0.01222 0.0
H78 H 0.02929 0.5435 0.95005 0.0
H79 H 0.05845 0.45544 0.89252 0.0
H80 H 0.00489 0.42713 0.80192 0.0
H81 H 0.952 0.43046 0.73397 0.0
H82 H 0.92677 0.52133 0.79199 0.0
H83 H 0.97645 0.54532 0.88822 0.0
C84 C 0.024 0.51801 0.91796 0.0
C85 C 0.04797 0.50178 0.92735 0.0
C86 C 0.9938 0.50243 0.86612 0.0
C87 C 0.04042 0.46854 0.88589 0.0
C88 C 0.00986 0.45242 0.83416 0.0
C89 C 0.95721 0.45516 0.7685 0.0
C90 C 0.93602 0.47429 0.75585 0.0
C91 C 0.98663 0.46948 0.82308 0.0
C92 C 0.94302 0.5064 0.80036 0.0
C93 C 0.97139 0.52016 0.85537 0.0
H94 H 0.53698 0.96196 0.88583 0.0
H95 H 0.42339 0.90113 0.9913 0.0
H96 H 0.44539 0.94966 0.09061 0.0
H97 H 0.49439 0.0123 0.14077 0.0
H98 H 0.60858 0.07407 0.0392 0.0
H99 H 0.58903 0.02214 0.94524 0.0
C100 C 0.51734 0.95904 0.93132 0.0
C101 C 0.47848 0.92825 0.93071 0.0
C102 C 0.53011 0.98739 0.98833 0.0
C103 C 0.45334 0.92471 0.99008 0.0
C104 C 0.46583 0.95251 0.04685 0.0
C105 C 0.5151 0.01426 0.09832 0.0
C106 C 0.55258 0.04708 0.09581 0.0
C107 C 0.50372 0.98448 0.04529 0.0
C108 C 0.57945 0.04903 0.04173 0.0
C109 C 0.56823 0.01945 0.98803 0.0
H110 H 0.45325 0.49238 0.27347 0.0
H111 H 0.54678 0.6093 0.23025 0.0
H112 H 0.57582 0.58406 0.13958 0.0
H113 H 0.57279 0.5281 0.06988 0.0
H114 H 0.47973 0.41159 0.12108 0.0
H115 H 0.4526 0.43736 0.21218 0.0
C116 C 0.47993 0.51244 0.24398 0.0
C117 C 0.49754 0.55264 0.25729 0.0
C118 C 0.49664 0.49771 0.19383 0.0
C119 C 0.53257 0.57821 0.2202 0.0
C120 C 0.54914 0.56376 0.16859 0.0
C121 C 0.54685 0.50843 0.10168 0.0
C122 C 0.5282 0.46799 0.08834 0.0
C123 C 0.53126 0.52349 0.15464 0.0
C124 C 0.49466 0.4428 0.13006 0.0
C125 C 0.47896 0.45749 0.18203 0.0
H126 H 0.9671 0.46128 0.4474 0.0
H127 H 0.93429 0.54549 0.38279 0.0
H128 H 0.98952 0.57535 0.29411 0.0
H129 H 0.04557 0.57496 0.23073 0.0
H130 H 0.07607 0.4893 0.29843 0.0
H131 H 0.02365 0.46298 0.39106 0.0
C132 C 0.97189 0.48617 0.41392 0.0
C133 C 0.94638 0.50085 0.42085 0.0
C134 C 0.00352 0.50308 0.36398 0.0
C135 C 0.95341 0.53349 0.37795 0.0
C136 C 0.985 0.55056 0.32743 0.0
C137 C 0.04102 0.55099 0.26677 0.0
C138 C 0.06456 0.53399 0.25765 0.0
C139 C 0.01013 0.53538 0.3195 0.0
C140 C 0.05822 0.50273 0.30412 0.0
C141 C 0.02818 0.48756 0.35697 0.0
H142 H 0.48415 0.01297 0.34248 0.0
H143 H 0.52081 0.10623 0.50259 0.0
H144 H 0.48897 0.05868 0.6046 0.0
H145 H 0.45796 0.99048 0.64885 0.0
H146 H 0.41922 0.89742 0.48698 0.0
H147 H 0.44381 0.94487 0.38443 0.0
C148 C 0.48426 0.02269 0.3996 0.0
C149 C 0.50469 0.06266 0.41586 0.0
C150 C 0.46575 0.99527 0.45728 0.0
C151 C 0.50493 0.07541 0.48944 0.0
C152 C 0.48698 0.04827 0.54753 0.0
C153 C 0.45418 0.98065 0.59099 0.0
C154 C 0.4373 0.94063 0.57536 0.0
C155 C 0.46835 0.00811 0.53234 0.0
C156 C 0.43215 0.9281 0.50032 0.0
C157 C 0.44646 0.95522 0.44171 0.0
H158 H 0.45753 0.45004 0.81198 0.0
H159 H 0.51351 0.41222 0.65112 0.0
H160 H 0.4941 0.43963 0.54866 0.0
H161 H 0.46982 0.48278 0.5081 0.0
H162 H 0.41166 0.51859 0.6677 0.0
H163 H 0.42291 0.48316 0.76783 0.0
C164 C 0.46458 0.447 0.75423 0.0
C165 C 0.48729 0.4297 0.73885 0.0
C166 C 0.4534 0.46287 0.69585 0.0
C167 C 0.496 0.42543 0.66406 0.0
C168 C 0.48523 0.4414 0.60562 0.0
C169 C 0.459 0.48211 0.56462 0.0
C170 C 0.44057 0.50358 0.58135 0.0
C171 C 0.46529 0.4615 0.62131 0.0
C172 C 0.42602 0.50223 0.65405 0.0
C173 C 0.43264 0.48219 0.71118 0.0
H174 H 0.25857 0.61191 0.20675 0.0
H175 H 0.20163 0.48769 0.17165 0.0
H176 H 0.25401 0.48522 0.23874 0.0
H177 H 0.31657 0.51901 0.30668 0.0
H178 H 0.37429 0.64387 0.33382 0.0
H179 H 0.32085 0.64547 0.2709 0.0
C180 C 0.25753 0.58424 0.21391 0.0
C181 C 0.22627 0.55 0.18473 0.0
C182 C 0.28785 0.58321 0.25125 0.0
C183 C 0.2255 0.51445 0.19363 0.0
C184 C 0.25536 0.51303 0.2321 0.0
C185 C 0.3172 0.54644 0.29908 0.0
C186 C 0.34913 0.58125 0.32506 0.0
C187 C 0.28672 0.54728 0.26116 0.0
C188 C 0.34999 0.61673 0.31416 0.0
C189 C 0.31949 0.61768 0.27823 0.0
H190 H 0.64575 0.25669 0.3687 0.0
H191 H 0.70447 0.19015 0.36837 0.0
H192 H 0.7606 0.24414 0.43113 0.0
H193 H 0.79329 0.31141 0.48397 0.0
H194 H 0.73446 0.37785 0.47331 0.0
H195 H 0.67799 0.32271 0.41723 0.0
C196 C 0.67071 0.25381 0.38275 0.0
C197 C 0.67092 0.21944 0.36457 0.0
C198 C 0.70289 0.28506 0.41673 0.0
C199 C 0.70369 0.21639 0.38203 0.0
C200 C 0.73571 0.24722 0.41787 0.0
C201 C 0.76797 0.31356 0.46951 0.0
C202 C 0.76795 0.34856 0.48274 0.0
C203 C 0.73572 0.28184 0.43523 0.0
C204 C 0.73523 0.35127 0.46321 0.0
C205 C 0.70288 0.31975 0.43131 0.0
H206 H 0.4736 0.76866 0.73639 0.0
H207 H 0.49183 0.83301 0.53058 0.0
H208 H 0.50245 0.7856 0.46217 0.0
H209 H 0.49671 0.72088 0.45756 0.0
H210 H 0.47333 0.65425 0.66188 0.0
H211 H 0.47525 0.70761 0.73421 0.0
C212 C 0.48082 0.77279 0.67694 0.0
C213 C 0.48159 0.80407 0.63848 0.0
C214 C 0.4856 0.7447 0.63747 0.0
C215 C 0.49081 0.80898 0.56136 0.0
C216 C 0.49676 0.7818 0.52213 0.0
C217 C 0.49309 0.71853 0.51817 0.0
C218 C 0.48466 0.68365 0.55432 0.0
C219 C 0.49278 0.74878 0.55905 0.0
C220 C 0.47966 0.68079 0.63278 0.0
C221 C 0.48058 0.71122 0.67413 0.0
H222 H 0.68998 0.46113 0.89373 0.0
H223 H 0.6449 0.48349 0.69229 0.0
H224 H 0.70205 0.49298 0.62125 0.0
H225 H 0.7605 0.48626 0.61324 0.0
H226 H 0.80131 0.45722 0.81288 0.0
H227 H 0.75064 0.45934 0.88784 0.0
C228 C 0.69317 0.46904 0.83472 0.0
C229 C 0.66336 0.4716 0.79823 0.0
C230 C 0.7252 0.47274 0.79366 0.0
C231 C 0.66754 0.48133 0.72151 0.0
C232 C 0.7001 0.48656 0.68081 0.0
C233 C 0.75867 0.48122 0.67339 0.0
C234 C 0.78436 0.47146 0.7076 0.0
C235 C 0.72848 0.48103 0.71573 0.0
C236 C 0.78157 0.46452 0.78538 0.0
C237 C 0.75262 0.4657 0.82825 0.0
H238 H 0.32876 0.72657 0.77123 0.0
H239 H 0.30284 0.81255 0.8589 0.0
H240 H 0.24702 0.76172 0.92881 0.0
H241 H 0.20867 0.69316 0.97264 0.0
H242 H 0.235 0.60796 0.88116 0.0
H243 H 0.28738 0.65805 0.80533 0.0
C244 C 0.31058 0.73411 0.80487 0.0
C245 C 0.32002 0.77321 0.81035 0.0
C246 C 0.27878 0.70488 0.84491 0.0
C247 C 0.29607 0.78257 0.85366 0.0
C248 C 0.26432 0.75356 0.89405 0.0
C249 C 0.22573 0.68561 0.93566 0.0
C250 C 0.21816 0.64695 0.93322 0.0
C251 C 0.25589 0.71468 0.8914 0.0
C252 C 0.24025 0.6375 0.88445 0.0
C253 C 0.2703 0.66614 0.84099 0.0
H254 H 0.60156 0.33178 0.95857 0.0
H255 H 0.47992 0.288 0.0054 0.0
H256 H 0.47569 0.23162 0.0708 0.0
H257 H 0.50825 0.1974 0.12238 0.0
H258 H 0.62966 0.24141 0.07077 0.0
H259 H 0.63226 0.29494 -0.00056 0.0
C260 C 0.57402 0.30968 0.98244 0.0
C261 C 0.5412 0.31411 0.97786 0.0
C262 C 0.57185 0.27752 0.01957 0.0
C263 C 0.50558 0.28512 0.00822 0.0
C264 C 0.50322 0.25303 0.04595 0.0
C265 C 0.53511 0.21856 0.09494 0.0
C266 C 0.56878 0.21563 0.10246 0.0
C267 C 0.5364 0.24932 0.05324 0.0
C268 C 0.60334 0.24302 0.06605 0.0
C269 C 0.60492 0.27374 0.02531 0.0
loop_
_geom_bond_atom_site_label_1
_geom_bond_atom_site_label_2
_geom_bond_distance
_geom_bond_site_symmetry_2
_ccdc_geom_bond_type
In0 O1 2.294 . S
In0 O2 2.326 . S
In0 O6 2.266 . S
In0 O7 2.326 . S
In0 O8 2.266 . S
In0 O9 2.326 1_554 S
In0 O11 2.294 . S
In0 O12 2.326 . S
O1 In0 2.294 . S
O1 C10 1.240 1_554 S
O2 In0 2.326 . S
O2 C10 1.252 1_554 S
C3 O6 1.252 . S
C3 O7 1.260 . S
C4 O11 1.240 . S
C4 O12 1.252 . S
C5 O8 1.252 . S
C5 O9 1.260 1_554 S
O6 In0 2.266 . S
O6 C3 1.252 . S
O7 In0 2.326 . S
O7 C3 1.260 . S
O8 In0 2.266 . S
O8 C5 1.252 . S
O9 In0 2.326 1_556 S
O9 C5 1.260 1_556 S
C10 O1 1.240 1_556 S
C10 O2 1.252 1_556 S
O11 In0 2.294 . S
O11 C4 1.240 . S
O12 In0 2.326 . S
O12 C4 1.252 . S
In13 O14 2.294 . S
In13 O15 2.326 . S
In13 O19 2.266 . S
In13 O20 2.326 . S
In13 O21 2.266 . S
In13 O22 2.326 . S
In13 O24 2.294 . S
In13 O25 2.326 . S
O14 In13 2.294 . S
O14 C23 1.240 . S
O15 In13 2.326 . S
O15 C23 1.252 . S
C16 O19 1.252 . S
C16 O20 1.260 . S
C17 O24 1.240 . S
C17 O25 1.252 . S
C18 O21 1.252 . S
C18 O22 1.260 . S
O19 In13 2.266 . S
O19 C16 1.252 . S
O20 In13 2.326 . S
O20 C16 1.260 . S
O21 In13 2.266 . S
O21 C18 1.252 . S
O22 In13 2.326 . S
O22 C18 1.260 . S
C23 O14 1.240 . S
C23 O15 1.252 . S
O24 In13 2.294 . S
O24 C17 1.240 . S
O25 In13 2.326 . S
O25 C17 1.252 . S
In26 O27 2.294 . S
In26 O28 2.326 . S
In26 O32 2.266 . S
In26 O33 2.326 . S
In26 O34 2.266 . S
In26 O35 2.326 . S
In26 O37 2.294 . S
In26 O38 2.326 . S
O27 In26 2.294 . S
O27 C36 1.240 . S
O28 In26 2.326 . S
O28 C36 1.252 . S
C29 O32 1.252 . S
C29 O33 1.260 . S
C30 O37 1.240 . S
C30 O38 1.252 . S
C31 O34 1.252 . S
C31 O35 1.260 . S
O32 In26 2.266 . S
O32 C29 1.252 . S
O33 In26 2.326 . S
O33 C29 1.260 . S
O34 In26 2.266 . S
O34 C31 1.252 . S
O35 In26 2.326 . S
O35 C31 1.260 . S
C36 O27 1.240 . S
C36 O28 1.252 . S
O37 In26 2.294 . S
O37 C30 1.240 . S
O38 In26 2.326 . S
O38 C30 1.252 . S
In39 O40 2.294 . S
In39 O41 2.326 . S
In39 O45 2.266 . S
In39 O46 2.326 . S
In39 O47 2.266 . S
In39 O48 2.326 . S
In39 O50 2.294 . S
In39 O51 2.326 . S
O40 In39 2.294 . S
O40 C49 1.240 . S
O41 In39 2.326 . S
O41 C49 1.252 . S
C42 O45 1.252 . S
C42 O46 1.260 . S
C43 O50 1.240 . S
C43 O51 1.252 . S
C44 O47 1.252 . S
C44 O48 1.260 . S
O45 In39 2.266 . S
O45 C42 1.252 . S
O46 In39 2.326 . S
O46 C42 1.260 . S
O47 In39 2.266 . S
O47 C44 1.252 . S
O48 In39 2.326 . S
O48 C44 1.260 . S
C49 O40 1.240 . S
C49 O41 1.252 . S
O50 In39 2.294 . S
O50 C43 1.240 . S
O51 In39 2.326 . S
O51 C43 1.252 . S
In52 O53 2.294 . S
In52 O54 2.326 . S
In52 O58 2.266 . S
In52 O59 2.326 . S
In52 O60 2.266 . S
In52 O61 2.326 . S
In52 O63 2.294 . S
In52 O64 2.326 . S
O53 In52 2.294 . S
O53 C62 1.240 . S
O54 In52 2.326 . S
O54 C62 1.252 . S
C55 O58 1.252 . S
C55 O59 1.260 . S
C56 O63 1.240 . S
C56 O64 1.252 . S
C57 O60 1.252 . S
C57 O61 1.260 . S
O58 In52 2.266 . S
O58 C55 1.252 . S
O59 In52 2.326 . S
O59 C55 1.260 . S
O60 In52 2.266 . S
O60 C57 1.252 . S
O61 In52 2.326 . S
O61 C57 1.260 . S
C62 O53 1.240 . S
C62 O54 1.252 . S
O63 In52 2.294 . S
O63 C56 1.240 . S
O64 In52 2.326 . S
O64 C56 1.252 . S
In65 O66 2.294 . S
In65 O67 2.326 . S
In65 O71 2.266 . S
In65 O72 2.326 1_556 S
In65 O73 2.266 . S
In65 O74 2.326 . S
In65 O76 2.294 . S
In65 O77 2.326 . S
O66 In65 2.294 . S
O66 C75 1.240 . S
O67 In65 2.326 . S
O67 C75 1.252 . S
C68 O71 1.252 . S
C68 O72 1.260 1_556 S
C69 O76 1.240 1_554 S
C69 O77 1.252 1_554 S
C70 O73 1.252 . S
C70 O74 1.260 . S
O71 In65 2.266 . S
O71 C68 1.252 . S
O72 In65 2.326 1_554 S
O72 C68 1.260 1_554 S
O73 In65 2.266 . S
O73 C70 1.252 . S
O74 In65 2.326 . S
O74 C70 1.260 . S
C75 O66 1.240 . S
C75 O67 1.252 . S
O76 In65 2.294 . S
O76 C69 1.240 1_556 S
O77 In65 2.326 . S
O77 C69 1.252 1_556 S
H78 C84 0.930 . S
H79 C87 0.930 . S
H80 C88 0.930 . S
H81 C89 0.930 . S
H82 C92 0.930 . S
H83 C93 0.930 . S
C84 H78 0.930 . S
C84 C85 1.355 . S
C84 C86 1.415 1_455 S
C85 C84 1.355 . S
C85 C87 1.419 . S
C86 C84 1.415 1_655 S
C86 C91 1.425 1_655 S
C86 C93 1.409 . S
C87 H79 0.930 . S
C87 C85 1.419 . S
C87 C88 1.362 . S
C88 H80 0.930 . S
C88 C87 1.362 . S
C88 C91 1.409 . S
C89 H81 0.930 . S
C89 C90 1.355 . S
C89 C91 1.415 1_655 S
C90 C89 1.355 . S
C90 C92 1.419 . S
C91 C86 1.425 1_455 S
C91 C88 1.409 . S
C91 C89 1.415 1_455 S
C92 H82 0.930 . S
C92 C90 1.419 . S
C92 C93 1.362 . S
C93 H83 0.930 . S
C93 C86 1.409 . S
C93 C92 1.362 . S
H94 C100 0.930 . S
H95 C103 0.930 . S
H96 C104 0.930 . S
H97 C105 0.930 . S
H98 C108 0.930 . S
H99 C109 0.930 . S
C100 H94 0.930 . S
C100 C101 1.355 . S
C100 C102 1.415 1_565 S
C101 C100 1.355 . S
C101 C103 1.419 . S
C102 C100 1.415 1_545 S
C102 C107 1.425 1_546 S
C102 C109 1.409 . S
C103 H95 0.930 . S
C103 C101 1.419 . S
C103 C104 1.362 1_556 S
C104 H96 0.930 . S
C104 C103 1.362 1_554 S
C104 C107 1.409 . S
C105 H97 0.930 . S
C105 C106 1.355 . S
C105 C107 1.415 1_545 S
C106 C105 1.355 . S
C106 C108 1.419 . S
C107 C102 1.425 1_564 S
C107 C104 1.409 . S
C107 C105 1.415 1_565 S
C108 H98 0.930 . S
C108 C106 1.419 . S
C108 C109 1.362 1_554 S
C109 H99 0.930 . S
C109 C102 1.409 . S
C109 C108 1.362 1_556 S
H110 C116 0.930 . S
H111 C119 0.930 . S
H112 C120 0.930 . S
H113 C121 0.930 . S
H114 C124 0.930 . S
H115 C125 0.930 . S
C116 H110 0.930 . S
C116 C117 1.355 . S
C116 C118 1.415 . S
C117 C116 1.355 . S
C117 C119 1.419 . S
C118 C116 1.415 . S
C118 C123 1.425 . S
C118 C125 1.409 . S
C119 H111 0.930 . S
C119 C117 1.419 . S
C119 C120 1.362 . S
C120 H112 0.930 . S
C120 C119 1.362 . S
C120 C123 1.409 . S
C121 H113 0.930 . S
C121 C122 1.355 . S
C121 C123 1.415 . S
C122 C121 1.355 . S
C122 C124 1.419 . S
C123 C118 1.425 . S
C123 C120 1.409 . S
C123 C121 1.415 . S
C124 H114 0.930 . S
C124 C122 1.419 . S
C124 C125 1.362 . S
C125 H115 0.930 . S
C125 C118 1.409 . S
C125 C124 1.362 . S
H126 C132 0.930 . S
H127 C135 0.930 . S
H128 C136 0.930 . S
H129 C137 0.930 . S
H130 C140 0.930 . S
H131 C141 0.930 . S
C132 H126 0.930 . S
C132 C133 1.355 . S
C132 C134 1.424 . S
C133 C132 1.355 . S
C133 C135 1.419 . S
C134 C132 1.424 . S
C134 C139 1.441 1_655 S
C134 C141 1.392 1_655 S
C135 H127 0.930 . S
C135 C133 1.419 . S
C135 C136 1.362 . S
C136 H128 0.930 . S
C136 C135 1.362 . S
C136 C139 1.392 1_655 S
C137 H129 0.930 . S
C137 C138 1.355 . S
C137 C139 1.424 . S
C138 C137 1.355 . S
C138 C140 1.419 . S
C139 C134 1.441 1_455 S
C139 C136 1.392 1_455 S
C139 C137 1.424 . S
C140 H130 0.930 . S
C140 C138 1.419 . S
C140 C141 1.362 . S
C141 H131 0.930 . S
C141 C134 1.392 1_455 S
C141 C140 1.362 . S
H142 C148 0.930 . S
H143 C151 0.930 . S
H144 C152 0.930 . S
H145 C153 0.930 . S
H146 C156 0.930 . S
H147 C157 0.930 . S
C148 H142 0.930 . S
C148 C149 1.355 . S
C148 C150 1.415 1_545 S
C149 C148 1.355 . S
C149 C151 1.419 . S
C150 C148 1.415 1_565 S
C150 C155 1.425 1_565 S
C150 C157 1.409 . S
C151 H143 0.930 . S
C151 C149 1.419 . S
C151 C152 1.362 . S
C152 H144 0.930 . S
C152 C151 1.362 . S
C152 C155 1.409 . S
C153 H145 0.930 . S
C153 C154 1.355 . S
C153 C155 1.415 1_565 S
C154 C153 1.355 . S
C154 C156 1.419 . S
C155 C150 1.425 1_545 S
C155 C152 1.409 . S
C155 C153 1.415 1_545 S
C156 H146 0.930 . S
C156 C154 1.419 . S
C156 C157 1.362 . S
C157 H147 0.930 . S
C157 C150 1.409 . S
C157 C156 1.362 . S
H158 C164 0.930 . S
H159 C167 0.930 . S
H160 C168 0.930 . S
H161 C169 0.930 . S
H162 C172 0.930 . S
H163 C173 0.930 . S
C164 H158 0.930 . S
C164 C165 1.355 . S
C164 C166 1.415 . S
C165 C164 1.355 . S
C165 C167 1.419 . S
C166 C164 1.415 . S
C166 C171 1.425 . S
C166 C173 1.409 . S
C167 H159 0.930 . S
C167 C165 1.419 . S
C167 C168 1.362 . S
C168 H160 0.930 . S
C168 C167 1.362 . S
C168 C171 1.409 . S
C169 H161 0.930 . S
C169 C170 1.355 . S
C169 C171 1.415 . S
C170 C169 1.355 . S
C170 C172 1.419 . S
C171 C166 1.425 . S
C171 C168 1.409 . S
C171 C169 1.415 . S
C172 H162 0.930 . S
C172 C170 1.419 . S
C172 C173 1.362 . S
C173 H163 0.930 . S
C173 C166 1.409 . S
C173 C172 1.362 . S
H174 C180 0.930 . S
H175 C183 0.930 . S
H176 C184 0.930 . S
H177 C185 0.930 . S
H178 C188 0.930 . S
H179 C189 0.930 . S
C180 H174 0.930 . S
C180 C181 1.355 . S
C180 C182 1.415 . S
C181 C180 1.355 . S
C181 C183 1.419 . S
C182 C180 1.415 . S
C182 C187 1.425 . S
C182 C189 1.409 . S
C183 H175 0.930 . S
C183 C181 1.419 . S
C183 C184 1.362 . S
C184 H176 0.930 . S
C184 C183 1.362 . S
C184 C187 1.409 . S
C185 H177 0.930 . S
C185 C186 1.355 . S
C185 C187 1.415 . S
C186 C185 1.355 . S
C186 C188 1.419 . S
C187 C182 1.425 . S
C187 C184 1.409 . S
C187 C185 1.415 . S
C188 H178 0.930 . S
C188 C186 1.419 . S
C188 C189 1.362 . S
C189 H179 0.930 . S
C189 C182 1.409 . S
C189 C188 1.362 . S
H190 C196 0.930 . S
H191 C199 0.930 . S
H192 C200 0.930 . S
H193 C201 0.930 . S
H194 C204 0.930 . S
H195 C205 0.930 . S
C196 H190 0.930 . S
C196 C197 1.355 . S
C196 C198 1.415 . S
C197 C196 1.355 . S
C197 C199 1.419 . S
C198 C196 1.415 . S
C198 C203 1.425 . S
C198 C205 1.409 . S
C199 H191 0.930 . S
C199 C197 1.419 . S
C199 C200 1.362 . S
C200 H192 0.930 . S
C200 C199 1.362 . S
C200 C203 1.409 . S
C201 H193 0.930 . S
C201 C202 1.355 . S
C201 C203 1.415 . S
C202 C201 1.355 . S
C202 C204 1.419 . S
C203 C198 1.425 . S
C203 C200 1.409 . S
C203 C201 1.415 . S
C204 H194 0.930 . S
C204 C202 1.419 . S
C204 C205 1.362 . S
C205 H195 0.930 . S
C205 C198 1.409 . S
C205 C204 1.362 . S
H206 C212 0.930 . S
H207 C215 0.930 . S
H208 C216 0.930 . S
H209 C217 0.930 . S
H210 C220 0.930 . S
H211 C221 0.930 . S
C212 H206 0.930 . S
C212 C213 1.355 . S
C212 C214 1.415 . S
C213 C212 1.355 . S
C213 C215 1.419 . S
C214 C212 1.415 . S
C214 C219 1.425 . S
C214 C221 1.409 . S
C215 H207 0.930 . S
C215 C213 1.419 . S
C215 C216 1.362 . S
C216 H208 0.930 . S
C216 C215 1.362 . S
C216 C219 1.409 . S
C217 H209 0.930 . S
C217 C218 1.355 . S
C217 C219 1.415 . S
C218 C217 1.355 . S
C218 C220 1.419 . S
C219 C214 1.425 . S
C219 C216 1.409 . S
C219 C217 1.415 . S
C220 H210 0.930 . S
C220 C218 1.419 . S
C220 C221 1.362 . S
C221 H211 0.930 . S
C221 C214 1.409 . S
C221 C220 1.362 . S
H222 C228 0.930 . S
H223 C231 0.930 . S
H224 C232 0.930 . S
H225 C233 0.930 . S
H226 C236 0.930 . S
H227 C237 0.930 . S
C228 H222 0.930 . S
C228 C229 1.355 . S
C228 C230 1.415 . S
C229 C228 1.355 . S
C229 C231 1.419 . S
C230 C228 1.415 . S
C230 C235 1.425 . S
C230 C237 1.409 . S
C231 H223 0.930 . S
C231 C229 1.419 . S
C231 C232 1.362 . S
C232 H224 0.930 . S
C232 C231 1.362 . S
C232 C235 1.409 . S
C233 H225 0.930 . S
C233 C234 1.355 . S
C233 C235 1.415 . S
C234 C233 1.355 . S
C234 C236 1.419 . S
C235 C230 1.425 . S
C235 C232 1.409 . S
C235 C233 1.415 . S
C236 H226 0.930 . S
C236 C234 1.419 . S
C236 C237 1.362 . S
C237 H227 0.930 . S
C237 C230 1.409 . S
C237 C236 1.362 . S
H238 C244 0.930 . S
H239 C247 0.930 . S
H240 C248 0.930 . S
H241 C249 0.930 . S
H242 C252 0.930 . S
H243 C253 0.930 . S
C244 H238 0.930 . S
C244 C245 1.355 . S
C244 C246 1.415 . S
C245 C244 1.355 . S
C245 C247 1.419 . S
C246 C244 1.415 . S
C246 C251 1.425 . S
C246 C253 1.409 . S
C247 H239 0.930 . S
C247 C245 1.419 . S
C247 C248 1.362 . S
C248 H240 0.930 . S
C248 C247 1.362 . S
C248 C251 1.409 . S
C249 H241 0.930 . S
C249 C250 1.355 . S
C249 C251 1.415 . S
C250 C249 1.355 . S
C250 C252 1.419 . S
C251 C246 1.425 . S
C251 C248 1.409 . S
C251 C249 1.415 . S
C252 H242 0.930 . S
C252 C250 1.419 . S
C252 C253 1.362 . S
C253 H243 0.930 . S
C253 C246 1.409 . S
C253 C252 1.362 . S
H254 C260 0.930 1_556 S
H255 C263 0.930 . S
H256 C264 0.930 . S
H257 C265 0.930 . S
H258 C268 0.930 . S
H259 C269 0.930 . S
C260 H254 0.930 1_554 S
C260 C261 1.355 . S
C260 C262 1.415 . S
C261 C260 1.355 . S
C261 C263 1.419 . S
C262 C260 1.415 . S
C262 C267 1.425 . S
C262 C269 1.409 . S
C263 H255 0.930 . S
C263 C261 1.419 . S
C263 C264 1.362 . S
C264 H256 0.930 . S
C264 C263 1.362 . S
C264 C267 1.409 . S
C265 H257 0.930 . S
C265 C266 1.355 . S
C265 C267 1.415 . S
C266 C265 1.355 . S
C266 C268 1.419 . S
C267 C262 1.425 . S
C267 C264 1.409 . S
C267 C265 1.415 . S
C268 H258 0.930 . S
C268 C266 1.419 . S
C268 C269 1.362 . S
C269 H259 0.930 . S
C269 C262 1.409 . S
C269 C268 1.362 . S
C85 C10 1.375 . S
C90 C49 1.360 . S
C101 C56 1.366 . S
C106 C23 1.374 . S
C117 C36 1.362 . S
C122 C69 1.353 . S
C133 C43 1.373 . S
C138 C4 1.354 . S
C149 C17 1.375 . S
C154 C62 1.362 . S
C165 C75 1.371 . S
C170 C30 1.370 . S
C181 C3 1.369 . S
C186 C31 1.344 . S
C197 C16 1.374 . S
C202 C42 1.349 . S
C213 C57 1.361 . S
C218 C29 1.343 . S
C229 C70 1.350 . S
C234 C44 1.349 . S
C245 C55 1.374 . S
C250 C5 1.349 1_556 S
C261 C68 1.371 1_554 S
C266 C18 1.346 . S
