# Generated by pormake.
# Topology umj, (4)-cn, num edge types: 1
# Building blocks:
#     Node 0, Type 0, BuildingBlock: KOZSID_clean_sbu_0, # of connection points: 4
#     Node 1, Type 0, BuildingBlock: KOZSID_clean_sbu_0, # of connection points: 4
#     Node 2, Type 0, BuildingBlock: KOZSID_clean_sbu_0, # of connection points: 4
#     Node 3, Type 0, BuildingBlock: KOZSID_clean_sbu_0, # of connection points: 4
#     Node 4, Type 0, BuildingBlock: KOZSID_clean_sbu_0, # of connection points: 4
#     Node 5, Type 0, BuildingBlock: KOZSID_clean_sbu_0, # of connection points: 4
#     Node 6, Type 0, BuildingBlock: KOZSID_clean_sbu_0, # of connection points: 4
#     Node 7, Type 0, BuildingBlock: KOZSID_clean_sbu_0, # of connection points: 4
#     Node 8, Type 0, BuildingBlock: KOZSID_clean_sbu_0, # of connection points: 4
#     Node 9, Type 0, BuildingBlock: KOZSID_clean_sbu_0, # of connection points: 4
#     Node 10, Type 0, BuildingBlock: KOZSID_clean_sbu_0, # of connection points: 4
#     Node 11, Type 0, BuildingBlock: KOZSID_clean_sbu_0, # of connection points: 4
#     Edge 12, Type (0, 0), BuildingBlock: EZIPEK_clean_linker_0, # of connection points: 2
#     Edge 13, Type (0, 0), BuildingBlock: EZIPEK_clean_linker_0, # of connection points: 2
#     Edge 14, Type (0, 0), BuildingBlock: EZIPEK_clean_linker_0, # of connection points: 2
#     Edge 15, Type (0, 0), BuildingBlock: EZIPEK_clean_linker_0, # of connection points: 2
#     Edge 16, Type (0, 0), BuildingBlock: EZIPEK_clean_linker_0, # of connection points: 2
#     Edge 17, Type (0, 0), BuildingBlock: EZIPEK_clean_linker_0, # of connection points: 2
#     Edge 18, Type (0, 0), BuildingBlock: EZIPEK_clean_linker_0, # of connection points: 2
#     Edge 19, Type (0, 0), BuildingBlock: EZIPEK_clean_linker_0, # of connection points: 2
#     Edge 20, Type (0, 0), BuildingBlock: EZIPEK_clean_linker_0, # of connection points: 2
#     Edge 21, Type (0, 0), BuildingBlock: EZIPEK_clean_linker_0, # of connection points: 2
#     Edge 22, Type (0, 0), BuildingBlock: EZIPEK_clean_linker_0, # of connection points: 2
#     Edge 23, Type (0, 0), BuildingBlock: EZIPEK_clean_linker_0, # of connection points: 2
#     Edge 24, Type (0, 0), BuildingBlock: EZIPEK_clean_linker_0, # of connection points: 2
#     Edge 25, Type (0, 0), BuildingBlock: EZIPEK_clean_linker_0, # of connection points: 2
#     Edge 26, Type (0, 0), BuildingBlock: EZIPEK_clean_linker_0, # of connection points: 2
#     Edge 27, Type (0, 0), BuildingBlock: EZIPEK_clean_linker_0, # of connection points: 2
#     Edge 28, Type (0, 0), BuildingBlock: EZIPEK_clean_linker_0, # of connection points: 2
#     Edge 29, Type (0, 0), BuildingBlock: EZIPEK_clean_linker_0, # of connection points: 2
#     Edge 30, Type (0, 0), BuildingBlock: EZIPEK_clean_linker_0, # of connection points: 2
#     Edge 31, Type (0, 0), BuildingBlock: EZIPEK_clean_linker_0, # of connection points: 2
#     Edge 32, Type (0, 0), BuildingBlock: EZIPEK_clean_linker_0, # of connection points: 2
#     Edge 33, Type (0, 0), BuildingBlock: EZIPEK_clean_linker_0, # of connection points: 2
#     Edge 34, Type (0, 0), BuildingBlock: EZIPEK_clean_linker_0, # of connection points: 2
#     Edge 35, Type (0, 0), BuildingBlock: EZIPEK_clean_linker_0, # of connection points: 2
# Relax obj value: 0.053
# Max RMSD: 0.162
# Mean RMSD: 0.162
data_MOF--net-umj--node1-KOZSID_clean_sbu_0--edge1-EZIPEK_clean_linker_0
_symmetry_space_group_name_H-M    P1
_symmetry_Int_Tables_number       1
_symmetry_cell_setting            triclinic
loop_
_symmetry_equiv_pos_as_xyz
'x, y, z'
_cell_length_a     30.897936
_cell_length_b     30.930467
_cell_length_c     71.073707
_cell_angle_alpha  89.87421
_cell_angle_beta   89.969502
_cell_angle_gamma 119.9876
loop_
_atom_site_label
_atom_site_type_symbol
_atom_site_fract_x
_atom_site_fract_y
_atom_site_fract_z
_atom_type_partial_charge
C0 C 0.04354 0.26271 0.0382 0.0
C1 C 1.00958 0.251 0.02366 0.0
C2 C 0.96689 0.2468 0.03151 0.0
C3 C 0.97708 0.25632 0.05037 0.0
N4 N 0.02339 0.26604 0.05479 0.0
Co5 Co 0.05328 0.28247 0.08029 0.0
N6 N 0.9874 0.25502 0.09287 0.0
C7 C 0.94469 0.24584 0.08442 0.0
C8 C 0.90506 0.22783 0.09674 0.0
C9 C 0.92434 0.22619 0.114 0.0
C10 C 0.97482 0.24341 0.11127 0.0
N11 N 0.08463 0.29952 0.1056 0.0
C12 C 0.06418 0.28389 0.12285 0.0
C13 C 0.10006 0.30595 0.13688 0.0
C14 C 0.14417 0.33719 0.12809 0.0
C15 C 0.13295 0.33233 0.10931 0.0
N16 N 0.11957 0.31009 0.0679 0.0
C17 C 0.16429 0.34084 0.07578 0.0
C18 C 0.2039 0.34911 0.06463 0.0
C19 C 0.18301 0.32213 0.0487 0.0
C20 C 0.13145 0.29972 0.05081 0.0
N21 N 0.05636 0.34907 0.07883 0.0
C22 C 0.03888 0.43159 0.07581 0.0
C23 C 0.05589 0.41556 0.06037 0.0
C24 C 0.06454 0.37468 0.06217 0.0
C25 C 0.03348 0.40677 0.09295 0.0
C26 C 0.04264 0.36642 0.09417 0.0
N27 N 0.0466 0.21466 0.08164 0.0
C28 C 0.07717 0.15746 0.0887 0.0
C29 C 0.0316 0.11573 0.08307 0.0
C30 C 0.99415 0.12513 0.0768 0.0
C31 C 1.00222 0.17407 0.07623 0.0
C32 C 0.08391 0.20643 0.08788 0.0
H33 H 0.9719 0.17872 0.07132 0.0
H34 H 0.11924 0.23757 0.09226 0.0
H35 H 0.07612 0.36273 0.04986 0.0
H36 H 0.03657 0.34799 0.10751 0.0
C37 C 0.94239 0.2485 0.06469 0.0
C38 C 0.09548 0.27335 0.03564 0.0
C39 C 1.01064 0.25309 0.12663 0.0
C40 C 0.16803 0.35153 0.09489 0.0
H41 H 1.01513 0.24602 0.00896 0.0
H42 H 0.93203 0.23619 0.0244 0.0
H43 H 0.86655 0.21626 0.09352 0.0
H44 H 0.90397 0.21475 0.12716 0.0
H45 H 0.0949 0.30086 0.15195 0.0
H46 H 0.18036 0.35957 0.1346 0.0
H47 H 0.24322 0.3696 0.06816 0.0
H48 H 0.20372 0.3194 0.03694 0.0
H49 H 0.0613 0.43371 0.04684 0.0
H50 H 1.0211 0.41781 0.10536 0.0
H51 H 0.10745 0.15231 0.0936 0.0
H52 H 0.95846 0.09454 0.07228 0.0
C53 C 0.80322 0.01615 0.37076 0.0
C54 C 0.79039 0.9748 0.35958 0.0
C55 C 0.75175 0.93441 0.3686 0.0
C56 C 0.74367 0.95265 0.38507 0.0
N57 N 0.77515 1.00201 0.38683 0.0
Co58 Co 0.78695 0.04125 0.41021 0.0
N59 N 0.75466 0.98131 0.42644 0.0
C60 C 0.72306 0.93471 0.42045 0.0
C61 C 0.70585 0.90067 0.43498 0.0
C62 C 0.72767 0.9279 0.45101 0.0
C63 C 0.75718 0.97718 0.44538 0.0
N64 N 0.80086 0.08243 0.43312 0.0
C65 C 0.80079 0.07035 0.4514 0.0
C66 C 0.8122 0.11088 0.46298 0.0
C67 C 0.81821 0.14906 0.45149 0.0
C68 C 0.81059 0.13002 0.43363 0.0
N69 N 0.81794 0.10147 0.39413 0.0
C70 C 0.82189 0.14566 0.39837 0.0
C71 C 0.83961 0.17899 0.38368 0.0
C72 C 0.84732 0.15413 0.36932 0.0
C73 C 0.83439 0.1071 0.37622 0.0
N74 N 0.72009 0.03721 0.40763 0.0
C75 C 0.61934 0.01791 0.40489 0.0
C76 C 0.64159 0.01994 0.42231 0.0
C77 C 0.69127 0.02961 0.42336 0.0
C78 C 0.64962 0.02731 0.3888 0.0
C79 C 0.69956 0.03691 0.39045 0.0
N80 N 0.85162 0.04143 0.41304 0.0
C81 C 0.9411 0.07985 0.41878 0.0
C82 C 0.93977 0.03392 0.41601 0.0
C83 C 0.89338 0.9924 0.41215 0.0
C84 C 0.85053 0.99677 0.41086 0.0
C85 C 0.89658 0.08279 0.41728 0.0
H86 H 0.8163 0.96311 0.40795 0.0
H87 H 0.89861 0.11841 0.41923 0.0
H88 H 0.70583 0.02958 0.43706 0.0
H89 H 0.72117 0.04298 0.37776 0.0
C90 C 0.71857 0.9237 0.40105 0.0
C91 C 0.83913 0.06908 0.36561 0.0
C92 C 0.78363 0.0197 0.45839 0.0
C93 C 0.81751 0.15708 0.41702 0.0
H94 H 0.80728 0.97363 0.34641 0.0
H95 H 0.73453 0.89574 0.36434 0.0
H96 H 0.68187 0.86063 0.43401 0.0
H97 H 0.72217 0.91334 0.46521 0.0
H98 H 0.8144 0.11235 0.47818 0.0
H99 H 0.82767 0.18641 0.45566 0.0
H100 H 0.84808 0.21744 0.38366 0.0
H101 H 0.86156 0.16914 0.35547 0.0
H102 H 0.6203 1.01323 0.43516 0.0
H103 H 0.63452 0.02643 0.37497 0.0
H104 H 0.97623 0.11324 0.4218 0.0
H105 H 0.89014 0.95622 0.40999 0.0
C106 C 0.81352 0.81399 0.70266 0.0
C107 C 0.8488 0.80758 0.69295 0.0
C108 C 0.85735 0.77524 0.70338 0.0
C109 C 0.82788 0.76444 0.71914 0.0
N110 N 0.80032 0.78736 0.71915 0.0
Co111 Co 0.76587 0.79616 0.74156 0.0
N112 N 0.79167 0.76374 0.75912 0.0
C113 C 0.81593 0.73922 0.75421 0.0
C114 C 0.82961 0.72146 0.76948 0.0
C115 C 0.81322 0.73574 0.78493 0.0
C116 C 0.79055 0.76168 0.77822 0.0
N117 N 0.73364 0.80882 0.76365 0.0
C118 C 0.73928 0.80418 0.78228 0.0
C119 C 0.71243 0.82025 0.79304 0.0
C120 C 0.68915 0.83574 0.78075 0.0
C121 C 0.70325 0.82857 0.7633 0.0
N122 N 0.73845 0.82711 0.72406 0.0
C123 C 0.70297 0.83905 0.72793 0.0
C124 C 0.68761 0.85456 0.71255 0.0
C125 C 0.71605 0.8537 0.69804 0.0
C126 C 0.74797 0.83874 0.70561 0.0
N127 N 0.70367 0.72746 0.73765 0.0
C128 C 0.61913 0.62659 0.73738 0.0
C129 C 0.61345 0.66861 0.7402 0.0
C130 C 0.65555 0.71775 0.74071 0.0
C131 C 0.66812 0.63712 0.73393 0.0
C132 C 0.70842 0.68663 0.73337 0.0
N133 N 0.82867 0.86217 0.74583 0.0
C134 C 0.87654 0.95295 0.74861 0.0
C135 C 0.92217 0.95273 0.74897 0.0
C136 C 0.91939 0.90657 0.74857 0.0
C137 C 0.87338 0.86278 0.74706 0.0
C138 C 0.83018 0.9072 0.74722 0.0
H139 H 0.87556 0.82973 0.74659 0.0
H140 H 0.79601 0.9086 0.74659 0.0
H141 H 0.64801 0.74708 0.74378 0.0
H142 H 0.74324 0.69039 0.72954 0.0
C143 C 0.83269 0.74152 0.73558 0.0
C144 C 0.79211 0.84461 0.69577 0.0
C145 C 0.76919 0.78452 0.79042 0.0
C146 C 0.68935 0.84094 0.74641 0.0
H147 H 0.8672 0.82518 0.67989 0.0
H148 H 0.8846 0.76388 0.70045 0.0
H149 H 0.85115 0.7026 0.76945 0.0
H150 H 0.81837 0.72897 0.79948 0.0
H151 H 0.71005 0.82096 0.80822 0.0
H152 H 0.66538 0.8511 0.78413 0.0
H153 H 0.66084 0.86742 0.71212 0.0
H154 H 0.71564 0.86585 0.68378 0.0
H155 H 0.57656 0.66358 0.74251 0.0
H156 H 0.6756 0.60694 0.7314 0.0
H157 H 0.87671 0.98801 0.74897 0.0
H158 H 0.95323 0.90422 0.74898 0.0
C159 C 0.98132 0.76223 0.03653 0.0
C160 C 1.01662 0.77535 0.02237 0.0
C161 C 0.05876 0.77935 0.03064 0.0
C162 C 0.04692 0.76829 0.04935 0.0
N163 N 1.00005 0.75772 0.05328 0.0
Co164 Co 0.96789 0.7396 0.07842 0.0
N165 N 0.03268 0.76721 0.09171 0.0
C166 C 0.07645 0.77791 0.08373 0.0
C167 C 0.11511 0.79657 0.09644 0.0
C168 C 0.09406 0.79694 0.11346 0.0
C169 C 0.04352 0.77822 0.11021 0.0
N170 N 0.93414 0.72082 0.10332 0.0
C171 C 0.95292 0.7352 0.1208 0.0
C172 C 0.91582 0.71165 0.1344 0.0
C173 C 0.87268 0.68074 0.12507 0.0
C174 C 0.88565 0.68723 0.10643 0.0
N175 N 0.90274 0.7119 0.06527 0.0
C176 C 0.85744 0.68007 0.07255 0.0
C177 C 0.81875 0.67217 0.06098 0.0
C178 C 0.84088 0.70062 0.0454 0.0
C179 C 0.89226 0.72348 0.04813 0.0
N180 N 0.96591 0.67349 0.07704 0.0
C181 C 0.98469 0.59162 0.07476 0.0
C182 C 0.9872 0.61528 0.09188 0.0
C183 C 0.97758 0.65533 0.09272 0.0
C184 C 0.96994 0.60858 0.05889 0.0
C185 C 0.9605 0.64903 0.06033 0.0
N186 N 0.97355 0.80697 0.07984 0.0
C187 C 0.94198 0.86317 0.08713 0.0
C188 C 0.98779 0.90552 0.08202 0.0
C189 C 0.02578 0.8969 0.07581 0.0
C190 C 1.01809 0.84816 0.07486 0.0
C191 C 0.93563 0.8144 0.08595 0.0
H192 H 0.0489 0.84418 0.07007 0.0
H193 H 0.90015 0.78279 0.08998 0.0
H194 H 0.98161 0.67283 0.10611 0.0
H195 H 0.95055 0.66158 0.04772 0.0
C196 C 0.08057 0.77615 0.06405 0.0
C197 C 0.92962 0.75176 0.03351 0.0
C198 C 1.00606 0.76576 0.12523 0.0
C199 C 0.85201 0.66829 0.0916 0.0
H200 H 1.01238 0.78158 0.00766 0.0
H201 H 0.0944 0.79107 0.02393 0.0
H202 H 0.1541 0.80933 0.09364 0.0
H203 H 0.11328 0.80823 0.12682 0.0
H204 H 0.91959 0.71535 0.14953 0.0
H205 H 0.83602 0.65732 0.13114 0.0
H206 H 0.77914 0.65107 0.06404 0.0
H207 H 0.82107 0.70412 0.0335 0.0
H208 H 0.99782 0.60362 0.10461 0.0
H209 H 0.96685 0.59144 0.04532 0.0
H210 H 0.91126 0.86771 0.09197 0.0
H211 H 0.06167 0.92798 0.07166 0.0
C212 C 0.23305 0.96855 0.37017 0.0
C213 C 0.25476 1.00127 0.35519 0.0
C214 C 0.2948 0.04376 0.36237 0.0
C215 C 0.29555 0.03469 0.38129 0.0
N216 N 0.25841 0.98924 0.38635 0.0
Co217 Co 0.2461 0.96099 0.41213 0.0
N218 N 0.2865 0.02739 0.4239 0.0
C219 C 0.31987 0.06929 0.41492 0.0
C220 C 0.34197 0.10979 0.42673 0.0
C221 C 0.32157 0.09192 0.44421 0.0
C222 C 0.2882 0.0413 0.44212 0.0
N223 N 0.23299 0.93112 0.4377 0.0
C224 C 0.23976 0.95272 0.45474 0.0
C225 C 0.22696 0.91774 0.46912 0.0
C226 C 0.21267 0.87297 0.46073 0.0
C227 C 0.21729 0.88296 0.44183 0.0
N228 N 0.20528 0.89424 0.40055 0.0
C229 C 0.19118 0.84983 0.40876 0.0
C230 C 0.1579 0.80999 0.39821 0.0
C231 C 0.15063 0.83043 0.38234 0.0
C232 C 0.18109 0.88192 0.38386 0.0
N233 N 0.30849 0.95595 0.41034 0.0
C234 C 0.40709 0.96995 0.40668 0.0
C235 C 0.37292 0.95247 0.39159 0.0
C236 C 0.32409 0.94559 0.39371 0.0
C237 C 0.38951 0.97772 0.42381 0.0
C238 C 0.34068 0.9703 0.42536 0.0
N239 N 0.18622 0.96975 0.41383 0.0
C240 C 0.09978 0.94263 0.42206 0.0
C241 C 0.10465 0.98837 0.41597 0.0
C242 C 0.15127 0.0241 0.40888 0.0
C243 C 0.19094 1.01425 0.40795 0.0
C244 C 0.14088 0.93408 0.42088 0.0
H245 H 0.22578 0.04335 0.4024 0.0
H246 H 0.136 0.89872 0.42564 0.0
H247 H 0.29963 0.93357 0.38166 0.0
H248 H 0.32982 0.97822 0.43869 0.0
C249 C 0.32379 0.07015 0.39515 0.0
C250 C 0.19013 0.91729 0.36846 0.0
C251 C 0.26335 1.00648 0.45793 0.0
C252 C 0.19974 0.84698 0.42779 0.0
H253 H 0.24274 0.99511 0.34066 0.0
H254 H 0.31901 0.07793 0.35482 0.0
H255 H 0.36883 0.14798 0.42303 0.0
H256 H 0.33111 0.11326 0.45711 0.0
H257 H 0.22867 0.9239 0.48415 0.0
H258 H 0.19915 0.8372 0.46759 0.0
H259 H 0.13854 0.77093 0.40215 0.0
H260 H 0.12555 0.80947 0.37102 0.0
H261 H 0.38427 0.94531 0.37809 0.0
H262 H 0.41387 0.9906 0.43596 0.0
H263 H 0.06442 0.91363 0.4276 0.0
H264 H 0.1571 0.05981 0.40398 0.0
C265 C 0.27868 0.24262 0.70361 0.0
C266 C 0.26675 0.26625 0.68964 0.0
C267 C 0.26572 0.30585 0.69803 0.0
C268 C 0.27718 0.30442 0.71664 0.0
N269 N 0.28512 0.26631 0.72038 0.0
Co270 Co 0.30325 0.25108 0.74528 0.0
N271 N 0.28113 0.29233 0.7589 0.0
C272 C 0.27451 0.32834 0.75117 0.0
C273 C 0.25969 0.35119 0.76419 0.0
C274 C 0.25732 0.32824 0.7811 0.0
C275 C 0.27078 0.29251 0.77745 0.0
N276 N 0.32055 0.23374 0.76998 0.0
C277 C 0.30541 0.23717 0.78744 0.0
C278 C 0.32616 0.22021 0.80091 0.0
C279 C 0.35612 0.20675 0.79151 0.0
C280 C 0.35176 0.21583 0.77293 0.0
N281 N 0.32643 0.21007 0.73193 0.0
C282 C 0.35639 0.19393 0.73899 0.0
C283 C 0.36124 0.16136 0.72736 0.0
C284 C 0.33285 0.15678 0.712 0.0
C285 C 0.31318 0.18808 0.71488 0.0
N286 N 0.37165 0.31246 0.74331 0.0
C287 C 0.45474 0.4128 0.74083 0.0
C288 C 0.43734 0.38795 0.7582 0.0
C289 C 0.39561 0.3391 0.75915 0.0
C290 C 0.43111 0.3842 0.72469 0.0
C291 C 0.39153 0.33416 0.72621 0.0
N292 N 0.23393 0.19286 0.74716 0.0
C293 C 0.17309 0.10531 0.7525 0.0
C294 C 0.13294 0.11366 0.74884 0.0
C295 C 0.14483 0.16243 0.74451 0.0
C296 C 0.19478 0.20084 0.74362 0.0
C297 C 0.22323 0.14539 0.75169 0.0
H298 H 0.20135 0.23729 0.73989 0.0
H299 H 0.25324 0.138 0.75461 0.0
H300 H 0.38174 0.32408 0.7729 0.0
H301 H 0.37562 0.31411 0.71334 0.0
C302 C 0.27423 0.33315 0.73143 0.0
C303 C 0.28714 0.20016 0.7003 0.0
C304 C 0.27686 0.26183 0.79199 0.0
C305 C 0.36881 0.19959 0.75797 0.0
H306 H 0.2598 0.25604 0.67494 0.0
H307 H 0.25626 0.33161 0.69144 0.0
H308 H 0.25 0.37981 0.76164 0.0
H309 H 0.24719 0.33693 0.79457 0.0
H310 H 0.32103 0.21851 0.81601 0.0
H311 H 0.37704 0.19051 0.79744 0.0
H312 H 0.38026 0.14068 0.73026 0.0
H313 H 0.32743 0.13294 0.70007 0.0
H314 H 0.45444 0.40713 0.77119 0.0
H315 H 0.44275 0.40057 0.71083 0.0
H316 H 0.16577 0.06812 0.75591 0.0
H317 H 0.11541 0.17081 0.74152 0.0
C318 C 0.81452 0.01759 0.62849 0.0
C319 C 0.84725 0.05801 0.63932 0.0
C320 C 0.85635 0.1001 0.62963 0.0
C321 C 0.82992 0.08354 0.61314 0.0
N322 N 0.80374 0.03311 0.61199 0.0
Co323 Co 0.77331 0.99291 0.58861 0.0
N324 N 0.80329 0.05343 0.57202 0.0
C325 C 0.82888 0.10152 0.57771 0.0
C326 C 0.84615 0.13487 0.56301 0.0
C327 C 0.83101 0.10622 0.54706 0.0
C328 C 0.80532 0.05686 0.55294 0.0
N329 N 0.74381 0.95125 0.56561 0.0
C330 C 0.75186 0.96397 0.5472 0.0
C331 C 0.7255 0.9227 0.53563 0.0
C332 C 0.69993 0.88256 0.54716 0.0
C333 C 0.71222 0.90138 0.565 0.0
N334 N 0.74328 0.93222 0.60503 0.0
C335 C 0.70932 0.88515 0.60009 0.0
C336 C 0.6926 0.85205 0.61481 0.0
C337 C 0.71883 0.87941 0.63 0.0
C338 C 0.75086 0.9275 0.62347 0.0
N339 N 0.71082 0.99959 0.59167 0.0
C340 C 0.62499 1.01387 0.59231 0.0
C341 C 0.61995 0.96603 0.5915 0.0
C342 C 0.66262 0.95987 0.5908 0.0
C343 C 0.67404 0.05379 0.59329 0.0
C344 C 0.71513 0.04587 0.5936 0.0
N345 N 0.83616 0.98923 0.58528 0.0
C346 C 0.8832 0.94655 0.57925 0.0
C347 C 0.92914 0.99141 0.58146 0.0
C348 C 0.9271 0.0343 0.58524 0.0
C349 C 0.88135 0.03247 0.58699 0.0
C350 C 0.83712 0.94632 0.58116 0.0
H351 H 0.88403 0.06722 0.58988 0.0
H352 H 0.80261 0.91145 0.57962 0.0
H353 H 0.65532 0.92252 0.58944 0.0
H354 H 0.75005 0.07857 0.59539 0.0
C355 C 0.83996 0.11341 0.5969 0.0
C356 C 0.79344 0.9647 0.63425 0.0
C357 C 0.7837 1.01434 0.53997 0.0
C358 C 0.69711 0.87262 0.58131 0.0
H359 H 0.86403 0.05732 0.65258 0.0
H360 H 0.88286 0.13827 0.63341 0.0
H361 H 0.86848 0.17514 0.56377 0.0
H362 H 0.83861 0.11994 0.53272 0.0
H363 H 0.72508 0.92153 0.52041 0.0
H364 H 0.67615 0.84404 0.54304 0.0
H365 H 0.66627 0.81236 0.61439 0.0
H366 H 0.71697 0.86487 0.64403 0.0
H367 H 0.58306 0.93326 0.59101 0.0
H368 H 0.68095 0.09171 0.59411 0.0
H369 H 0.88288 0.91205 0.57635 0.0
H370 H 0.96127 0.06973 0.58701 0.0
C371 C 0.79563 0.7662 0.9599 0.0
C372 C 0.77358 0.77821 0.97443 0.0
C373 C 0.73542 0.78291 0.96656 0.0
C374 C 0.73604 0.77335 0.94771 0.0
N375 N 0.7723 0.76311 0.94331 0.0
Co376 Co 0.78568 0.74651 0.91782 0.0
N377 N 0.74825 0.77496 0.90522 0.0
C378 C 0.71526 0.785 0.91364 0.0
C379 C 0.6949 0.8043 0.90134 0.0
C380 C 0.71604 0.80584 0.88412 0.0
C381 C 0.74811 0.78721 0.88685 0.0
N382 N 0.79973 0.72905 0.89255 0.0
C383 C 0.7952 0.74474 0.8753 0.0
C384 C 0.80846 0.72212 0.86129 0.0
C385 C 0.8206 0.69041 0.87011 0.0
C386 C 0.81442 0.69559 0.88889 0.0
N387 N 0.82352 0.71809 0.93024 0.0
C388 C 0.83694 0.68687 0.92241 0.0
C389 C 0.86816 0.67843 0.93353 0.0
C390 C 0.87477 0.7058 0.94939 0.0
C391 C 0.84597 0.72856 0.94729 0.0
N392 N 0.7216 0.68041 0.9192 0.0
C393 C 0.62138 0.59819 0.92221 0.0
C394 C 0.65465 0.61359 0.93756 0.0
C395 C 0.70428 0.65434 0.93577 0.0
C396 C 0.64061 0.62359 0.90515 0.0
C397 C 0.69022 0.6638 0.90392 0.0
N398 N 0.84743 0.81392 0.91653 0.0
C399 C 0.93529 0.87044 0.90931 0.0
C400 C 0.93205 0.91244 0.91504 0.0
C401 C 0.88547 0.9035 0.92146 0.0
C402 C 0.84427 0.85477 0.92206 0.0
C403 C 0.89271 0.82167 0.91016 0.0
H404 H 0.80953 0.85053 0.92707 0.0
H405 H 0.89641 0.79031 0.90569 0.0
H406 H 0.72802 0.66583 0.94803 0.0
H407 H 0.70241 0.68271 0.89063 0.0
C408 C 0.70987 0.78203 0.93336 0.0
C409 C 0.83672 0.75528 0.96243 0.0
C410 C 0.77347 0.7764 0.8715 0.0
C411 C 0.82982 0.67604 0.90332 0.0
H412 H 0.78411 0.78318 0.98912 0.0
H413 H 0.7115 0.794 0.97365 0.0
H414 H 0.66864 0.81676 0.90454 0.0
H415 H 0.70788 0.818 0.87097 0.0
H416 H 0.80856 0.72719 0.84622 0.0
H417 H 0.83386 0.66754 0.86363 0.0
H418 H 0.88666 0.65761 0.93001 0.0
H419 H 0.89832 0.70854 0.96111 0.0
H420 H 0.64204 0.595 0.95103 0.0
H421 H 0.61698 0.61308 0.89281 0.0
H422 H 0.97051 0.87524 0.90428 0.0
H423 H 0.88084 0.93431 0.92606 0.0
C424 C 0.04151 0.78075 0.29449 0.0
C425 C 1.00517 0.75666 0.30819 0.0
C426 C 0.9648 0.71768 0.29942 0.0
C427 C 0.97864 0.71989 0.28089 0.0
N428 N 0.02504 0.75795 0.27755 0.0
Co429 Co 0.05975 0.77424 0.2529 0.0
N430 N 0.99692 0.73476 0.23877 0.0
C431 C 0.95343 0.69905 0.2461 0.0
C432 C 0.91619 0.67826 0.23282 0.0
C433 C 0.93797 0.70223 0.21618 0.0
C434 C 0.98745 0.73639 0.22022 0.0
N435 N 0.09584 0.79217 0.22849 0.0
C436 C 0.0784 0.78944 0.21089 0.0
C437 C 0.11677 0.80565 0.1977 0.0
C438 C 0.15944 0.81799 0.20745 0.0
C439 C 0.14492 0.80898 0.22592 0.0
N440 N 0.12329 0.81375 0.26677 0.0
C441 C 0.16967 0.82941 0.26008 0.0
C442 C 0.20666 0.86093 0.27208 0.0
C443 C 0.18224 0.86529 0.2873 0.0
C444 C 0.13131 0.83492 0.28396 0.0
N445 N 0.06554 0.71231 0.25459 0.0
C446 C 0.04821 0.61212 0.25686 0.0
C447 C 0.05468 0.63672 0.23951 0.0
C448 C 0.06179 0.68552 0.23866 0.0
C449 C 0.05394 0.64076 0.27307 0.0
C450 C 0.0644 0.69076 0.27163 0.0
N451 N 0.0499 0.8332 0.25125 0.0
C452 C 0.07733 0.92063 0.2453 0.0
C453 C 0.02942 0.91316 0.24954 0.0
C454 C 0.99249 0.86494 0.25451 0.0
C455 C 1.0033 0.82607 0.25526 0.0
C456 C 0.08681 0.88019 0.24623 0.0
H457 H 0.97322 0.78992 0.25919 0.0
H458 H 0.12381 0.88687 0.24295 0.0
H459 H 0.06202 0.70041 0.22495 0.0
H460 H 0.0691 0.71096 0.28451 0.0
C461 C 0.94736 0.69269 0.26577 0.0
C462 C 0.09236 0.82285 0.2982 0.0
C463 C 0.02557 0.76664 0.20599 0.0
C464 C 0.17737 0.82417 0.24115 0.0
H465 H 1.0077 0.76624 0.32294 0.0
H466 H 0.92908 0.69195 0.30571 0.0
H467 H 0.87743 0.65031 0.23505 0.0
H468 H 0.91983 0.69503 0.20261 0.0
H469 H 0.11424 0.80763 0.18257 0.0
H470 H 0.19684 0.83343 0.20179 0.0
H471 H 0.24655 0.88106 0.26953 0.0
H472 H 0.20023 0.88838 0.29944 0.0
H473 H 0.05184 0.61739 0.22648 0.0
H474 H 0.04986 0.62447 0.28691 0.0
H475 H 0.10722 0.95741 0.2414 0.0
H476 H 0.95511 0.85725 0.25791 0.0
C477 C 0.28398 0.05744 0.62652 0.0
C478 C 0.27195 0.0222 0.64064 0.0
C479 C 0.27123 0.98149 0.63246 0.0
C480 C 0.28302 0.99403 0.61383 0.0
N481 N 0.2909 0.03996 0.60989 0.0
Co482 Co 0.3091 0.07278 0.58488 0.0
N483 N 0.28622 1.00906 0.57149 0.0
C484 C 0.27881 0.9663 0.57938 0.0
C485 C 0.2627 0.92816 0.56652 0.0
C486 C 0.26036 0.94858 0.54958 0.0
C487 C 0.27529 0.99822 0.55301 0.0
N488 N 0.32706 0.10708 0.56011 0.0
C489 C 0.31266 0.08835 0.54266 0.0
C490 C 0.33479 0.12572 0.52909 0.0
C491 C 0.36476 0.1691 0.53845 0.0
C492 C 0.35911 0.15595 0.55709 0.0
N493 N 0.3326 0.13714 0.59804 0.0
C494 C 0.3631 0.18304 0.59093 0.0
C495 C 0.36787 0.2207 0.60239 0.0
C496 C 0.3388 0.19724 0.6177 0.0
C497 C 0.31881 0.1462 0.61496 0.0
N498 N 0.37706 0.07909 0.58683 0.0
C499 C 0.45982 0.06163 0.58954 0.0
C500 C 0.44138 0.06675 0.57208 0.0
C501 C 0.39985 0.07409 0.57104 0.0
C502 C 0.43738 0.06886 0.60562 0.0
C503 C 0.39773 0.07922 0.60395 0.0
N504 N 0.24009 0.06232 0.58294 0.0
C505 C 0.17956 0.08858 0.57612 0.0
C506 C 0.13936 0.04086 0.58071 0.0
C507 C 0.15104 1.00461 0.58629 0.0
C508 C 0.20086 0.0159 0.5873 0.0
C509 C 0.22963 0.09854 0.57731 0.0
H510 H 0.20725 0.98637 0.59174 0.0
H511 H 0.25977 0.13537 0.57374 0.0
H512 H 0.38503 0.07331 0.55728 0.0
H513 H 0.38235 0.08486 0.61672 0.0
C514 C 0.2792 0.96175 0.59913 0.0
C515 C 0.29172 0.10819 0.62951 0.0
C516 C 0.28309 0.0352 0.53829 0.0
C517 C 0.37613 0.18944 0.57198 0.0
H518 H 0.26449 0.02563 0.65528 0.0
H519 H 0.26143 0.94633 0.63918 0.0
H520 H 0.25223 0.88969 0.56922 0.0
H521 H 0.24964 0.92946 0.53619 0.0
H522 H 0.33055 0.12204 0.51397 0.0
H523 H 0.38664 0.20605 0.53243 0.0
H524 H 0.38725 0.26034 0.5994 0.0
H525 H 0.33308 0.21594 0.62946 0.0
H526 H 0.45748 0.06262 0.55914 0.0
H527 H 0.44997 0.06592 0.61953 0.0
H528 H 0.17236 0.11797 0.57179 0.0
H529 H 0.12155 0.96742 0.59001 0.0
C530 C 0.23335 0.2668 0.96144 0.0
C531 C 0.25572 0.25407 0.97564 0.0
C532 C 0.29435 0.25079 0.96744 0.0
C533 C 0.29364 0.26185 0.94873 0.0
N534 N 0.25692 0.27171 0.94473 0.0
Co535 Co 0.24293 0.28966 0.91954 0.0
N536 N 0.28169 0.26362 0.90632 0.0
C537 C 0.31546 0.25411 0.9144 0.0
C538 C 0.33745 0.23751 0.90171 0.0
C539 C 0.3166 0.23721 0.88458 0.0
C540 C 0.28302 0.2538 0.88777 0.0
N541 N 0.22767 0.30781 0.89454 0.0
C542 C 0.23263 0.29362 0.87707 0.0
C543 C 0.21803 0.3161 0.86343 0.0
C544 C 0.20454 0.34614 0.87269 0.0
C545 C 0.21136 0.34024 0.89135 0.0
N546 N 0.20418 0.31611 0.93259 0.0
C547 C 0.18984 0.34715 0.92522 0.0
C548 C 0.15871 0.35461 0.93678 0.0
C549 C 0.15306 0.32669 0.95244 0.0
C550 C 0.18224 0.30454 0.94977 0.0
N551 N 0.30633 0.35651 0.92111 0.0
C552 C 0.40694 0.43855 0.92341 0.0
C553 C 0.38522 0.41616 0.90619 0.0
C554 C 0.33555 0.37606 0.90535 0.0
C555 C 0.37572 0.42047 0.9394 0.0
C556 C 0.32582 0.38 0.93795 0.0
N557 N 0.18204 0.22172 0.91797 0.0
C558 C 0.09429 0.16463 0.91093 0.0
C559 C 0.09852 0.12266 0.91588 0.0
C560 C 0.14554 0.13189 0.92185 0.0
C561 C 0.18621 0.18091 0.92276 0.0
C562 C 0.13631 0.21364 0.91206 0.0
H563 H 0.22134 0.18546 0.9274 0.0
H564 H 0.1318 0.24494 0.90817 0.0
H565 H 0.32159 0.35966 0.89187 0.0
H566 H 0.30374 0.36665 0.95063 0.0
C567 C 0.32053 0.2553 0.93411 0.0
C568 C 0.19183 0.27683 0.96445 0.0
C569 C 0.25714 0.26482 0.87268 0.0
C570 C 0.1959 0.35861 0.90614 0.0
H571 H 0.24514 0.24776 0.99034 0.0
H572 H 0.31871 0.23974 0.97421 0.0
H573 H 0.36468 0.22609 0.90458 0.0
H574 H 0.32588 0.22716 0.87122 0.0
H575 H 0.21834 0.31236 0.8483 0.0
H576 H 0.19034 0.36866 0.86657 0.0
H577 H 0.13958 0.37506 0.93367 0.0
H578 H 0.12974 0.32303 0.96438 0.0
H579 H 0.40706 0.42881 0.89336 0.0
H580 H 0.39017 0.43671 0.95306 0.0
H581 H 0.05871 0.15961 0.90627 0.0
H582 H 0.15093 0.10111 0.92587 0.0
C583 C 1.009 0.21582 0.29612 0.0
C584 C 0.05056 0.22317 0.30615 0.0
C585 C 0.09163 0.25499 0.29569 0.0
C586 C 0.07322 0.26452 0.27958 0.0
N587 N 0.02269 0.24121 0.27936 0.0
Co588 Co 0.97976 0.23049 0.25666 0.0
N589 N 0.03842 0.26197 0.23921 0.0
C590 C 0.08713 0.28643 0.24423 0.0
C591 C 0.11894 0.30411 0.22906 0.0
C592 C 0.08859 0.28989 0.21353 0.0
C593 C 0.03982 0.26407 0.22011 0.0
N594 N 0.93528 0.21618 0.23432 0.0
C595 C 0.94595 0.21968 0.21573 0.0
C596 C 0.9031 0.20179 0.2048 0.0
C597 C 0.86401 0.18664 0.21693 0.0
C598 C 0.88502 0.1957 0.23446 0.0
N599 N 0.92099 0.20035 0.27401 0.0
C600 C 0.87347 0.18747 0.26984 0.0
C601 C 0.84245 0.17355 0.28517 0.0
C602 C 0.87176 0.17646 0.29999 0.0
C603 C 0.91879 0.19086 0.29266 0.0
N604 N 0.98572 0.29908 0.25976 0.0
C605 C 1.00046 0.39921 0.25992 0.0
C606 C 0.95287 0.35668 0.25751 0.0
C607 C 0.94662 0.30787 0.25701 0.0
C608 C 0.03973 0.38965 0.26282 0.0
C609 C 0.03135 0.34052 0.26343 0.0
N610 N 0.97688 0.16441 0.25325 0.0
C611 C 0.93418 0.07387 0.2496 0.0
C612 C 0.97996 0.074 0.25011 0.0
C613 C 0.02328 0.11994 0.25169 0.0
C614 C 1.02099 0.16368 0.25309 0.0
C615 C 0.93349 0.11951 0.25112 0.0
H616 H 0.05613 0.19662 0.25419 0.0
H617 H 0.89793 0.11817 0.25101 0.0
H618 H 0.90977 0.278 0.25424 0.0
H619 H 0.06309 0.33761 0.26684 0.0
C620 C 0.10129 0.28588 0.26305 0.0
C621 C 0.95684 0.18568 0.30295 0.0
C622 C 0.99595 0.24111 0.20774 0.0
C623 C 0.85829 0.18408 0.25124 0.0
H624 H 0.0512 0.20651 0.31947 0.0
H625 H 0.13021 0.26669 0.29883 0.0
H626 H 0.15936 0.32329 0.22921 0.0
H627 H 0.10086 0.2967 0.19901 0.0
H628 H 0.90029 0.19992 0.18962 0.0
H629 H 0.82485 0.17031 0.21339 0.0
H630 H 0.80278 0.16055 0.28541 0.0
H631 H 0.85912 0.16587 0.31435 0.0
H632 H 0.92051 0.36104 0.25555 0.0
H633 H 0.07737 0.42034 0.26494 0.0
H634 H 0.89935 0.03894 0.24835 0.0
H635 H 0.05943 0.12219 0.25199 0.0
C636 C 0.99579 0.28267 0.1773 0.0
C637 C 1.0008 0.24487 0.18673 0.0
C638 C 0.99649 0.20446 0.15645 0.0
C639 C 0.99533 0.24424 0.14696 0.0
N640 N 0.99335 0.32104 0.14781 0.0
N641 N 1.00758 0.17072 0.18592 0.0
C642 C 0.99402 0.2829 0.15729 0.0
C643 C 1.00146 0.20586 0.17645 0.0
N644 N 0.99151 0.31767 0.18762 0.0
N645 N 0.99275 0.16546 0.14613 0.0
H646 H 1.01103 0.17076 0.20052 0.0
H647 H 1.01198 0.14304 0.17947 0.0
H648 H 0.9884 0.16366 0.13154 0.0
H649 H 0.99046 0.13343 0.15186 0.0
H650 H 0.98154 0.34255 0.18202 0.0
H651 H 0.99592 0.32067 0.2022 0.0
H652 H 0.99971 0.35414 0.154 0.0
H653 H 0.98726 0.31996 0.13338 0.0
C654 C 0.7418 1.01152 0.48966 0.0
C655 C 0.78179 1.0127 0.47933 0.0
C656 C 0.8255 0.01843 0.50894 0.0
C657 C 0.78731 0.02121 0.51904 0.0
N658 N 0.71342 0.02863 0.51909 0.0
N659 N 0.86413 0.02249 0.47868 0.0
C660 C 0.74684 0.02043 0.50936 0.0
C661 C 0.82436 0.01756 0.48887 0.0
N662 N 0.69865 1.00112 0.48062 0.0
N663 N 0.86205 0.01523 0.51861 0.0
H664 H 0.86345 0.01951 0.46404 0.0
H665 H 0.89858 0.03197 0.48457 0.0
H666 H 0.86514 0.01798 0.53324 0.0
H667 H 0.88769 1.0073 0.51229 0.0
H668 H 0.66631 0.99484 0.48754 0.0
H669 H 0.69345 0.99396 0.46626 0.0
H670 H 0.68597 0.03367 0.51268 0.0
H671 H 0.71586 0.03484 0.53357 0.0
C672 C 0.80908 0.82434 0.82135 0.0
C673 C 0.77146 0.78267 0.81143 0.0
C674 C 0.7269 0.74656 0.84104 0.0
C675 C 0.76729 0.78519 0.85117 0.0
N676 N 0.84788 0.85979 0.85145 0.0
N677 N 0.697 0.7018 0.81156 0.0
C678 C 0.80849 0.82412 0.84142 0.0
C679 C 0.73099 0.74313 0.82123 0.0
N680 N 0.84481 0.86443 0.81154 0.0
N681 N 0.68467 0.71308 0.85044 0.0
H682 H 0.69852 0.69833 0.79701 0.0
H683 H 0.66963 0.6693 0.81799 0.0
H684 H 0.68049 0.7146 0.86491 0.0
H685 H 0.65202 0.68678 0.84383 0.0
H686 H 0.86998 0.89826 0.81775 0.0
H687 H 0.84763 0.86485 0.7969 0.0
H688 H 0.88184 0.8857 0.84544 0.0
H689 H 0.84717 0.8621 0.86609 0.0
C690 C 1.01521 0.80762 0.1564 0.0
C691 C 1.01929 0.77111 0.1457 0.0
C692 C 1.01507 0.72565 0.17465 0.0
C693 C 1.01397 0.76366 0.18544 0.0
N694 N 1.01805 0.84331 0.18713 0.0
N695 N 0.03192 0.70026 0.14461 0.0
C696 C 1.01532 0.80533 0.17644 0.0
C697 C 1.02198 0.73164 0.15485 0.0
N698 N 1.00972 0.84358 0.14731 0.0
N699 N 1.00957 0.68375 0.1834 0.0
H700 H 0.03763 0.70363 0.13014 0.0
H701 H 0.03946 0.67394 0.15053 0.0
H702 H 1.00603 0.67862 0.19792 0.0
H703 H 1.00429 0.65214 0.17627 0.0
H704 H 1.00045 0.8677 0.15405 0.0
H705 H 1.01245 0.84794 0.13271 0.0
H706 H 0.02516 0.87747 0.18164 0.0
H707 H 1.01532 0.84137 0.20178 0.0
C708 C 0.31361 0.02171 0.50738 0.0
C709 C 0.27468 0.02211 0.51787 0.0
C710 C 0.23197 0.0208 0.48852 0.0
C711 C 0.27208 0.02275 0.47806 0.0
N712 N 0.35478 0.03316 0.47725 0.0
N713 N 0.19957 0.02735 0.5189 0.0
C714 C 0.31412 0.02584 0.48745 0.0
C715 C 0.23453 0.02304 0.50854 0.0
N716 N 0.3501 0.0172 0.51654 0.0
N717 N 0.19074 0.01514 0.47921 0.0
H718 H 0.19882 0.02617 0.53358 0.0
H719 H 0.1727 0.03425 0.51308 0.0
H720 H 0.1891 0.01639 0.46456 0.0
H721 H 0.15755 1.00727 0.48584 0.0
H722 H 0.37631 1.01091 0.50978 0.0
H723 H 0.35205 0.01571 0.53112 0.0
H724 H 0.38869 0.04098 0.48318 0.0
H725 H 0.35647 0.03602 0.46266 0.0
C726 C 0.3093 0.30363 0.82314 0.0
C727 C 0.26885 0.26676 0.81247 0.0
C728 C 0.22666 0.22237 0.84154 0.0
C729 C 0.26618 0.26018 0.85223 0.0
N730 N 0.34473 0.3373 0.85367 0.0
N731 N 0.18727 0.19395 0.81087 0.0
C732 C 0.30761 0.30072 0.84311 0.0
C733 C 0.22689 0.22695 0.82154 0.0
N734 N 0.35053 0.34008 0.81405 0.0
N735 N 0.18925 0.18202 0.8507 0.0
H736 H 0.18657 0.19715 0.79626 0.0
H737 H 0.15388 0.16546 0.81632 0.0
H738 H 0.18894 0.17775 0.86528 0.0
H739 H 0.16039 0.15124 0.84402 0.0
H740 H 0.3843 0.36383 0.82061 0.0
H741 H 0.3517 0.34571 0.79957 0.0
H742 H 0.3717 0.37179 0.84839 0.0
H743 H 0.34829 0.33334 0.86801 0.0
C744 C 0.10784 0.22637 0.00853 0.0
C745 C 0.11581 0.27196 0.01644 0.0
C746 C 0.18191 0.31833 0.99328 0.0
C747 C 0.16983 0.27347 0.98375 0.0
N748 N 0.11741 0.18431 0.98125 0.0
N749 N 0.15052 0.36073 0.01266 0.0
C750 C 0.13166 0.22719 0.9911 0.0
C751 C 0.14953 0.31773 0.00753 0.0
N752 N 0.07853 0.18255 0.01784 0.0
N753 N 0.22435 0.36165 0.98865 0.0
H754 H 0.12634 0.36136 0.02276 0.0
H755 H 0.17161 0.39444 0.00553 0.0
H756 H 0.24943 0.36311 0.97848 0.0
H757 H 0.23693 0.39463 0.99621 0.0
H758 H 0.07541 0.1487 0.01389 0.0
H759 H 0.05964 0.18071 0.03026 0.0
H760 H 0.08636 0.15016 0.98478 0.0
H761 H 0.13511 0.18364 0.96884 0.0
C762 C 0.92548 0.12777 0.35278 0.0
C763 C 0.87619 0.08757 0.34933 0.0
C764 C 0.89742 0.09989 0.31581 0.0
C765 C 0.93883 0.14837 0.31916 0.0
N766 N 0.98439 0.21157 0.34266 0.0
N767 N 0.81215 0.047 0.32557 0.0
C768 C 0.95169 0.16309 0.33819 0.0
C769 C 0.86127 0.07565 0.33027 0.0
N770 N 0.94575 0.13413 0.37026 0.0
N771 N 0.8903 0.0792 0.29841 0.0
H772 H 0.78344 0.03492 0.33543 0.0
H773 H 0.80006 0.04104 0.31162 0.0
H774 H 0.91686 0.09642 0.28782 0.0
H775 H 0.86128 0.04322 0.29549 0.0
H776 H 0.98239 0.16167 0.37322 0.0
H777 H 0.92739 0.10828 0.38098 0.0
H778 H 0.99116 0.22422 0.35653 0.0
H779 H 1.00025 0.23984 0.3326 0.0
C780 C 0.82039 0.93142 0.6836 0.0
C781 C 0.81272 0.88289 0.67987 0.0
C782 C 0.82111 0.90535 0.6464 0.0
C783 C 0.8123 0.94556 0.65021 0.0
N784 N 0.7919 0.9879 0.67424 0.0
N785 N 0.79614 0.82106 0.65591 0.0
C786 C 0.80982 0.95716 0.66934 0.0
C787 C 0.81156 0.86925 0.66074 0.0
N788 N 0.83414 0.95112 0.70112 0.0
N789 N 0.83504 0.89975 0.62881 0.0
H790 H 0.78381 0.79235 0.66578 0.0
H791 H 0.79063 0.80907 0.64197 0.0
H792 H 0.84263 0.92614 0.61829 0.0
H793 H 0.84401 0.87229 0.62556 0.0
H794 H 0.84187 0.98716 0.7044 0.0
H795 H 0.84325 0.93299 0.71139 0.0
H796 H 0.78576 0.99362 0.68822 0.0
H797 H 0.77793 1.00286 0.66443 0.0
C798 C 0.91908 0.80149 0.00693 0.0
C799 C 0.91106 0.75521 0.01423 0.0
C800 C 0.84646 0.71097 0.9905 0.0
C801 C 0.85847 0.75672 0.98161 0.0
N802 N 0.91061 0.84615 0.98022 0.0
N803 N 0.87776 0.66714 0.00917 0.0
C804 C 0.8961 0.80233 0.98952 0.0
C805 C 0.87841 0.7104 0.00466 0.0
N806 N 0.9476 0.84433 0.01681 0.0
N807 N 0.80435 0.66795 0.98545 0.0
H808 H 0.90156 0.66574 0.01926 0.0
H809 H 0.85738 0.63422 0.00158 0.0
H810 H 0.77938 0.66732 0.97542 0.0
H811 H 0.79186 0.63426 0.99257 0.0
H812 H 0.95062 0.87845 0.01331 0.0
H813 H 0.96592 0.845 0.02923 0.0
H814 H 0.94132 0.88 0.98418 0.0
H815 H 0.8936 0.848 0.9678 0.0
C816 C 0.10366 0.88165 0.3252 0.0
C817 C 0.1097 0.84237 0.31779 0.0
C818 C 0.1755 0.86096 0.34079 0.0
C819 C 0.16598 0.89634 0.3497 0.0
N820 N 0.11664 0.93667 0.35168 0.0
N821 N 0.14089 0.78559 0.32222 0.0
C822 C 0.1287 0.90568 0.34227 0.0
C823 C 0.14183 0.82878 0.32699 0.0
N824 N 0.07516 0.89678 0.31569 0.0
N825 N 0.21712 0.85845 0.34537 0.0
H826 H 0.11614 0.76101 0.31224 0.0
H827 H 0.16093 0.77204 0.32951 0.0
H828 H 0.24341 0.88257 0.35506 0.0
H829 H 0.22792 0.83606 0.33815 0.0
H830 H 0.07356 0.92865 0.31916 0.0
H831 H 0.05503 0.8786 0.30364 0.0
H832 H 0.08641 0.94109 0.34808 0.0
H833 H 0.1353 0.95578 0.36382 0.0
C834 C 0.24128 0.11775 0.656 0.0
C835 C 0.28786 0.12639 0.64878 0.0
C836 C 0.33147 0.19255 0.67199 0.0
C837 C 0.28551 0.18007 0.68083 0.0
N838 N 0.1962 0.12704 0.68238 0.0
N839 N 0.3764 0.16195 0.65364 0.0
C840 C 0.24011 0.14157 0.67312 0.0
C841 C 0.33263 0.16034 0.65812 0.0
N842 N 0.19844 0.0877 0.64633 0.0
N843 N 0.37417 0.23499 0.67705 0.0
H844 H 0.37824 0.13805 0.64373 0.0
H845 H 0.40945 0.18329 0.66108 0.0
H846 H 0.3743 0.25977 0.68702 0.0
H847 H 0.40804 0.24787 0.67001 0.0
H848 H 0.16394 0.08399 0.64971 0.0
H849 H 0.19812 0.0685 0.63423 0.0
H850 H 0.16251 0.09575 0.67865 0.0
H851 H 0.19419 0.14501 0.69448 0.0
C852 C 0.04964 0.56277 0.07608 0.0
C853 C 0.99891 0.55065 0.07368 0.0
C854 C 0.97586 0.46154 0.07005 0.0
C855 C 0.0257 0.47316 0.07423 0.0
N856 N 0.10908 0.53493 0.0832 0.0
N857 N 0.91268 0.48683 0.07059 0.0
C858 C 0.06225 0.52389 0.07775 0.0
C859 C 0.96184 0.49953 0.07114 0.0
N860 N 0.08628 0.61185 0.07612 0.0
N861 N 0.9418 0.41399 0.06477 0.0
H862 H 0.90104 0.51316 0.07123 0.0
H863 H 0.88321 0.45018 0.07095 0.0
H864 H 0.95018 0.38525 0.06428 0.0
H865 H 0.90658 0.40378 0.05948 0.0
H866 H 0.12428 0.62371 0.07578 0.0
H867 H 0.07876 0.64106 0.0748 0.0
H868 H 0.1359 0.56973 0.08823 0.0
H869 H 0.12013 0.50814 0.08392 0.0
C870 C 0.52532 0.95535 0.40789 0.0
C871 C 0.5645 1.00483 0.40382 0.0
C872 C 0.49976 0.0293 0.39894 0.0
C873 C 0.46113 0.9811 0.40475 0.0
N874 N 0.43824 0.89947 0.41654 0.0
N875 N 0.58878 0.09048 0.39752 0.0
C876 C 0.47437 0.94452 0.40968 0.0
C877 C 0.55149 0.0421 0.39976 0.0
N878 N 0.53665 0.91806 0.40945 0.0
N879 N 0.48692 0.06296 0.39242 0.0
H880 H 0.62657 0.10117 0.39785 0.0
H881 H 0.58263 0.12058 0.39671 0.0
H882 H 0.45009 0.05563 0.39214 0.0
H883 H 0.51201 0.09657 0.38598 0.0
H884 H 0.50988 0.88038 0.41041 0.0
H885 H 0.57299 0.92435 0.40816 0.0
H886 H 0.44575 0.87326 0.42259 0.0
H887 H 0.40066 0.8895 0.41732 0.0
C888 C 0.49581 0.50514 0.75152 0.0
C889 C 0.49631 0.46806 0.73968 0.0
C890 C 0.5704 0.53708 0.72384 0.0
C891 C 0.57524 0.5723 0.73785 0.0
N892 N 0.54642 0.58246 0.76831 0.0
N893 N 0.54548 0.45078 0.71767 0.0
C894 C 0.53898 0.55424 0.75263 0.0
C895 C 0.53687 0.48465 0.7267 0.0
N896 N 0.45345 0.49477 0.76114 0.0
N897 N 0.59609 0.55339 0.70731 0.0
H898 H 0.52494 0.41259 0.72043 0.0
H899 H 0.5769 0.46136 0.70927 0.0
H900 H 0.6177 0.59116 0.70393 0.0
H901 H 0.59074 0.52944 0.69613 0.0
H902 H 0.45017 0.52182 0.76872 0.0
H903 H 0.41987 0.46131 0.7596 0.0
H904 H 0.52306 0.569 0.78005 0.0
H905 H 0.57887 0.61652 0.77055 0.0
C906 C 0.54358 0.07441 0.60274 0.0
C907 C 0.50122 0.04785 0.59081 0.0
C908 C 0.54172 1.00144 0.57858 0.0
C909 C 0.5805 0.02319 0.59229 0.0
N910 N 0.6069 0.06986 0.62132 0.0
N911 N 0.45507 0.9742 0.5716 0.0
C912 C 0.57793 0.0565 0.60554 0.0
C913 C 0.49885 1.00783 0.57998 0.0
N914 N 0.55303 0.11836 0.61073 0.0
N915 N 0.54641 0.97667 0.56355 0.0
H916 H 0.42192 0.97488 0.57339 0.0
H917 H 0.45043 0.94222 0.56488 0.0
H918 H 0.5782 0.97391 0.56114 0.0
H919 H 0.52121 0.9641 0.55238 0.0
H920 H 0.58567 0.14106 0.61821 0.0
H921 H 0.53155 0.13503 0.60797 0.0
H922 H 0.60339 0.09068 0.63212 0.0
H923 H 0.62978 0.05507 0.62464 0.0
C924 C 0.50063 0.46723 0.92152 0.0
C925 C 0.46221 0.47935 0.92445 0.0
C926 C 0.52858 0.5682 0.92849 0.0
C927 C 0.56659 0.55667 0.92382 0.0
N928 N 0.58774 0.49521 0.91393 0.0
N929 N 0.44012 0.54311 0.92857 0.0
C930 C 0.55216 0.50609 0.91983 0.0
C931 C 0.47648 0.53035 0.92748 0.0
N932 N 0.48801 0.41812 0.92098 0.0
N933 N 0.54236 0.61553 0.93418 0.0
H934 H 0.4021 0.51685 0.92802 0.0
H935 H 0.44738 0.57979 0.92858 0.0
H936 H 0.57953 0.64419 0.93462 0.0
H937 H 0.51756 0.62558 0.93983 0.0
H938 H 0.51405 0.40613 0.92092 0.0
H939 H 0.45124 0.38892 0.92227 0.0
H940 H 0.57954 0.46065 0.90857 0.0
H941 H 0.62561 0.52196 0.91319 0.0
C942 C 0.99656 0.51977 0.24637 0.0
C943 C 0.03476 0.55702 0.25796 0.0
C944 C 0.04105 0.48847 0.27347 0.0
C945 C 1.01007 0.45312 0.25961 0.0
N946 N 0.96914 0.44235 0.22955 0.0
N947 N 0.10257 0.57486 0.27933 0.0
C948 C 0.9908 0.4708 0.24512 0.0
C949 C 0.0596 0.54078 0.27062 0.0
N950 N 0.96389 0.52987 0.23713 0.0
N951 N 0.05143 0.47237 0.28984 0.0
H952 H 0.11998 0.61302 0.27652 0.0
H953 H 0.12397 0.56449 0.28749 0.0
H954 H 0.0356 0.43463 0.29323 0.0
H955 H 0.07056 0.49644 0.30093 0.0
H956 H 0.93317 0.50267 0.22976 0.0
H957 H 0.96373 0.56326 0.2388 0.0
H958 H 0.95843 0.45558 0.21798 0.0
H959 H 0.9675 0.40833 0.22721 0.0
C960 C 1.01316 0.03489 0.10023 0.0
C961 C 1.02238 0.06236 0.08313 0.0
C962 C 1.00184 0.98516 0.06552 0.0
C963 C 0.99679 0.9588 0.0826 0.0
N964 N 1.00515 0.96155 0.11632 0.0
N965 N 0.03341 0.06504 0.04953 0.0
C966 C 1.00445 0.98456 0.09999 0.0
C967 C 1.01886 0.03772 0.0658 0.0
N968 N 1.01103 0.05629 0.11674 0.0
N969 N 0.98874 0.95946 0.04893 0.0
H970 H 0.04642 0.10331 0.04919 0.0
H971 H 0.03703 0.05097 0.0367 0.0
H972 H 0.97572 0.92123 0.04818 0.0
H973 H 0.98628 0.97481 0.0362 0.0
H974 H 0.99891 0.03679 0.12939 0.0
H975 H 1.01775 0.09282 0.11753 0.0
H976 H 1.01612 0.97979 0.12921 0.0
H977 H 0.99841 0.92498 0.11677 0.0
C978 C 1.00506 0.02101 0.4336 0.0
C979 C 0.98562 0.02758 0.41633 0.0
C980 C 0.03977 1.0028 0.39918 0.0
C981 C 0.06176 0.9995 0.41635 0.0
N982 N 0.07049 1.01342 0.4498 0.0
N983 N 0.99098 0.03286 0.38256 0.0
C984 C 0.04574 1.01081 0.43354 0.0
C985 C 1.00506 0.02088 0.39911 0.0
N986 N 0.98352 0.0229 0.45014 0.0
N987 N 0.05064 0.98669 0.3829 0.0
H988 H 0.96589 0.04613 0.38198 0.0
H989 H 1.0074 0.03406 0.36963 0.0
H990 H 0.07505 0.97262 0.38243 0.0
H991 H 0.03219 0.98289 0.37023 0.0
H992 H 0.9915 1.01266 0.46308 0.0
H993 H 0.95505 0.03168 0.45078 0.0
H994 H 0.06473 0.02682 0.46243 0.0
H995 H 0.09968 1.00569 0.45036 0.0
C996 C 0.05276 0.05321 0.73162 0.0
C997 C 0.07848 0.07232 0.74895 0.0
C998 C 0.99856 0.02051 0.76605 0.0
C999 C 0.97373 0.99903 0.74881 0.0
N1000 N 0.97753 0.9925 0.71519 0.0
N1001 N 0.07666 0.07308 0.78279 0.0
C1002 C 1.00099 0.01512 0.7316 0.0
C1003 C 0.05143 0.05565 0.76621 0.0
N1004 N 0.07792 0.07199 0.71506 0.0
N1005 N 0.97113 1.00743 0.7823 0.0
H1006 H 0.11454 0.09975 0.78339 0.0
H1007 H 0.06124 0.05969 0.796 0.0
H1008 H 0.93289 0.98178 0.78259 0.0
H1009 H 0.9849 0.0239 0.7953 0.0
H1010 H 0.0608 0.06489 0.70195 0.0
H1011 H 0.11624 0.09702 0.71443 0.0
H1012 H 0.99586 0.99709 0.70244 0.0
H1013 H 0.93933 0.96694 0.71445 0.0
C1014 C 1.00592 1.00051 0.59785 0.0
C1015 C 0.98025 0.99592 0.58072 0.0
C1016 C 0.05826 0.01838 0.56327 0.0
C1017 C 0.08505 0.02796 0.5805 0.0
N1018 N 0.0853 0.03455 0.61426 0.0
N1019 N 0.98325 1.00542 0.54705 0.0
C1020 C 0.05894 0.02051 0.59781 0.0
C1021 C 1.00681 1.00601 0.56339 0.0
N1022 N 0.97923 0.98518 0.61425 0.0
N1023 N 0.08162 0.0197 0.54677 0.0
H1024 H 0.94542 0.99461 0.54654 0.0
H1025 H 1.00166 0.01825 0.53423 0.0
H1026 H 0.11912 0.02939 0.5461 0.0
H1027 H 0.0631 1.00779 0.53396 0.0
H1028 H 0.99429 0.9826 0.62702 0.0
H1029 H 0.94064 0.97054 0.61474 0.0
H1030 H 0.06979 0.03523 0.62718 0.0
H1031 H 0.12397 0.04997 0.61475 0.0
C1032 C 0.99462 0.99311 0.8978 0.0
C1033 C 0.97652 0.96564 0.91491 0.0
C1034 C 0.03357 0.04279 0.93248 0.0
C1035 C 0.05457 0.06918 0.91537 0.0
N1036 N 0.0598 0.06646 0.88163 0.0
N1037 N 0.98539 0.96286 0.94846 0.0
C1038 C 0.03627 0.04343 0.898 0.0
C1039 C 0.99796 0.99023 0.93221 0.0
N1040 N 0.97087 0.97171 0.88132 0.0
N1041 N 0.04647 0.06844 0.94907 0.0
H1042 H 0.96011 0.92459 0.94881 0.0
H1043 H 1.00328 0.9769 0.96126 0.0
H1044 H 0.07179 0.10664 0.94982 0.0
H1045 H 0.02885 0.05306 0.96183 0.0
H1046 H 0.97812 0.99122 0.86868 0.0
H1047 H 0.94107 0.93518 0.88055 0.0
H1048 H 0.05236 0.04823 0.86874 0.0
H1049 H 0.08967 0.10302 0.88117 0.0
C1050 C 1.0075 0.97225 0.23214 0.0
C1051 C 1.01685 0.95479 0.24938 0.0
C1052 C 0.98996 1.00686 0.26673 0.0
C1053 C 0.98513 0.02778 0.24956 0.0
N1054 N 0.99419 0.03406 0.21588 0.0
N1055 N 0.02301 0.96043 0.28314 0.0
C1056 C 0.99512 1.01128 0.23225 0.0
C1057 C 1.00946 0.97337 0.26669 0.0
N1058 N 1.00898 0.95044 0.21564 0.0
N1059 N 0.97543 0.01883 0.28315 0.0
H1060 H 0.03782 0.93666 0.28364 0.0
H1061 H 0.02375 0.97638 0.2961 0.0
H1062 H 0.96157 0.04341 0.28367 0.0
H1063 H 0.97294 1.00138 0.29596 0.0
H1064 H 0.99717 0.95713 0.2028 0.0
H1065 H 1.01883 0.92277 0.21497 0.0
H1066 H 1.00704 0.02861 0.20306 0.0
H1067 H 0.98302 0.06079 0.21532 0.0
loop_
_geom_bond_atom_site_label_1
_geom_bond_atom_site_label_2
_geom_bond_distance
_geom_bond_site_symmetry_2
_ccdc_geom_bond_type
C0 C1 1.443 1_455 S
C0 N4 1.376 1_455 S
C0 C38 1.389 . S
C1 C0 1.443 1_655 S
C1 C2 1.340 . S
C1 H41 0.951 . S
C2 C1 1.340 . S
C2 C3 1.439 . S
C2 H42 0.950 . S
C3 C2 1.439 . S
C3 N4 1.374 . S
C3 C37 1.395 . S
N4 C0 1.376 1_655 S
N4 C3 1.374 . S
N4 Co5 2.008 1_655 S
Co5 N4 2.008 1_455 S
Co5 N6 1.995 1_455 S
Co5 N11 2.008 . S
Co5 N16 1.995 . S
Co5 N21 2.282 . S
Co5 N27 2.282 . S
N6 Co5 1.995 1_655 S
N6 C7 1.376 . S
N6 C10 1.383 . S
C7 N6 1.376 . S
C7 C8 1.446 . S
C7 C37 1.391 . S
C8 C7 1.446 . S
C8 C9 1.339 . S
C8 H43 0.949 . S
C9 C8 1.339 . S
C9 C10 1.439 . S
C9 H44 0.950 . S
C10 N6 1.383 . S
C10 C9 1.439 . S
C10 C39 1.392 . S
N11 Co5 2.008 . S
N11 C12 1.376 . S
N11 C15 1.374 . S
C12 N11 1.376 . S
C12 C13 1.443 . S
C12 C39 1.389 1_455 S
C13 C12 1.443 . S
C13 C14 1.340 . S
C13 H45 0.951 . S
C14 C13 1.340 . S
C14 C15 1.439 . S
C14 H46 0.950 . S
C15 N11 1.374 . S
C15 C14 1.439 . S
C15 C40 1.395 . S
N16 Co5 1.995 . S
N16 C17 1.376 . S
N16 C20 1.383 . S
C17 N16 1.376 . S
C17 C18 1.446 . S
C17 C40 1.391 . S
C18 C17 1.446 . S
C18 C19 1.339 . S
C18 H47 0.949 . S
C19 C18 1.339 . S
C19 C20 1.439 . S
C19 H48 0.950 . S
C20 N16 1.383 . S
C20 C19 1.439 . S
C20 C38 1.392 . S
N21 Co5 2.282 . S
N21 C24 1.332 . S
N21 C26 1.332 1_455 S
C22 C23 1.386 . S
C22 C25 1.388 1_455 S
C23 C22 1.386 . S
C23 C24 1.382 . S
C23 H49 0.950 . S
C24 N21 1.332 . S
C24 C23 1.382 . S
C24 H35 0.952 . S
C25 C22 1.388 1_655 S
C25 C26 1.382 . S
C25 H50 0.950 . S
C26 N21 1.332 1_655 S
C26 C25 1.382 . S
C26 H36 0.948 . S
N27 Co5 2.282 . S
N27 C31 1.332 1_455 S
N27 C32 1.332 . S
C28 C29 1.388 . S
C28 C32 1.382 . S
C28 H51 0.950 . S
C29 C28 1.388 . S
C29 C30 1.386 1_455 S
C30 C29 1.386 1_655 S
C30 C31 1.382 . S
C30 H52 0.950 . S
C31 N27 1.332 1_655 S
C31 C30 1.382 . S
C31 H33 0.952 . S
C32 N27 1.332 . S
C32 C28 1.382 . S
C32 H34 0.948 . S
H33 C31 0.952 . S
H34 C32 0.948 . S
H35 C24 0.952 . S
H36 C26 0.948 . S
C37 C3 1.395 . S
C37 C7 1.391 . S
C38 C0 1.389 . S
C38 C20 1.392 . S
C39 C10 1.392 . S
C39 C12 1.389 1_655 S
C40 C15 1.395 . S
C40 C17 1.391 . S
H41 C1 0.951 . S
H42 C2 0.950 . S
H43 C8 0.949 . S
H44 C9 0.950 . S
H45 C13 0.951 . S
H46 C14 0.950 . S
H47 C18 0.949 . S
H48 C19 0.950 . S
H49 C23 0.950 . S
H50 C25 0.950 . S
H51 C28 0.950 . S
H52 C30 0.950 . S
C53 C54 1.443 1_545 S
C53 N57 1.376 1_545 S
C53 C91 1.389 . S
C54 C53 1.443 1_565 S
C54 C55 1.340 . S
C54 H94 0.951 . S
C55 C54 1.340 . S
C55 C56 1.439 . S
C55 H95 0.950 . S
C56 C55 1.439 . S
C56 N57 1.374 . S
C56 C90 1.395 . S
N57 C53 1.376 1_565 S
N57 C56 1.374 . S
N57 Co58 2.008 1_565 S
Co58 N57 2.008 1_545 S
Co58 N59 1.995 1_545 S
Co58 N64 2.008 . S
Co58 N69 1.995 . S
Co58 N74 2.282 . S
Co58 N80 2.282 . S
N59 Co58 1.995 1_565 S
N59 C60 1.376 . S
N59 C63 1.383 . S
C60 N59 1.376 . S
C60 C61 1.446 . S
C60 C90 1.391 . S
C61 C60 1.446 . S
C61 C62 1.339 . S
C61 H96 0.949 . S
C62 C61 1.339 . S
C62 C63 1.439 . S
C62 H97 0.950 . S
C63 N59 1.383 . S
C63 C62 1.439 . S
C63 C92 1.392 . S
N64 Co58 2.008 . S
N64 C65 1.376 . S
N64 C68 1.374 . S
C65 N64 1.376 . S
C65 C66 1.443 . S
C65 C92 1.389 1_545 S
C66 C65 1.443 . S
C66 C67 1.340 . S
C66 H98 0.951 . S
C67 C66 1.340 . S
C67 C68 1.439 . S
C67 H99 0.950 . S
C68 N64 1.374 . S
C68 C67 1.439 . S
C68 C93 1.395 . S
N69 Co58 1.995 . S
N69 C70 1.376 . S
N69 C73 1.383 . S
C70 N69 1.376 . S
C70 C71 1.446 . S
C70 C93 1.391 . S
C71 C70 1.446 . S
C71 C72 1.339 . S
C71 H100 0.949 . S
C72 C71 1.339 . S
C72 C73 1.439 . S
C72 H101 0.950 . S
C73 N69 1.383 . S
C73 C72 1.439 . S
C73 C91 1.392 . S
N74 Co58 2.282 . S
N74 C77 1.332 . S
N74 C79 1.332 1_545 S
C75 C76 1.386 . S
C75 C78 1.388 1_545 S
C76 C75 1.386 . S
C76 C77 1.382 . S
C76 H102 0.950 . S
C77 N74 1.332 . S
C77 C76 1.382 . S
C77 H88 0.952 . S
C78 C75 1.388 1_565 S
C78 C79 1.382 . S
C78 H103 0.950 . S
C79 N74 1.332 1_565 S
C79 C78 1.382 . S
C79 H89 0.948 . S
N80 Co58 2.282 . S
N80 C84 1.332 1_545 S
N80 C85 1.332 . S
C81 C82 1.388 . S
C81 C85 1.382 . S
C81 H104 0.950 . S
C82 C81 1.388 . S
C82 C83 1.386 1_545 S
C83 C82 1.386 1_565 S
C83 C84 1.382 . S
C83 H105 0.950 . S
C84 N80 1.332 1_565 S
C84 C83 1.382 . S
C84 H86 0.952 . S
C85 N80 1.332 . S
C85 C81 1.382 . S
C85 H87 0.948 . S
H86 C84 0.952 . S
H87 C85 0.948 . S
H88 C77 0.952 . S
H89 C79 0.948 . S
C90 C56 1.395 . S
C90 C60 1.391 . S
C91 C53 1.389 . S
C91 C73 1.392 . S
C92 C63 1.392 . S
C92 C65 1.389 1_565 S
C93 C68 1.395 . S
C93 C70 1.391 . S
H94 C54 0.951 . S
H95 C55 0.950 . S
H96 C61 0.949 . S
H97 C62 0.950 . S
H98 C66 0.951 . S
H99 C67 0.950 . S
H100 C71 0.949 . S
H101 C72 0.950 . S
H102 C76 0.950 . S
H103 C78 0.950 . S
H104 C81 0.950 . S
H105 C83 0.950 . S
C106 C107 1.443 . S
C106 N110 1.376 . S
C106 C144 1.389 . S
C107 C106 1.443 . S
C107 C108 1.340 . S
C107 H147 0.951 . S
C108 C107 1.340 . S
C108 C109 1.439 . S
C108 H148 0.950 . S
C109 C108 1.439 . S
C109 N110 1.374 . S
C109 C143 1.395 . S
N110 C106 1.376 . S
N110 C109 1.374 . S
N110 Co111 2.008 . S
Co111 N110 2.008 . S
Co111 N112 1.995 . S
Co111 N117 2.008 . S
Co111 N122 1.995 . S
Co111 N127 2.282 . S
Co111 N133 2.282 . S
N112 Co111 1.995 . S
N112 C113 1.376 . S
N112 C116 1.383 . S
C113 N112 1.376 . S
C113 C114 1.446 . S
C113 C143 1.391 . S
C114 C113 1.446 . S
C114 C115 1.339 . S
C114 H149 0.949 . S
C115 C114 1.339 . S
C115 C116 1.439 . S
C115 H150 0.950 . S
C116 N112 1.383 . S
C116 C115 1.439 . S
C116 C145 1.392 . S
N117 Co111 2.008 . S
N117 C118 1.376 . S
N117 C121 1.374 . S
C118 N117 1.376 . S
C118 C119 1.443 . S
C118 C145 1.389 . S
C119 C118 1.443 . S
C119 C120 1.340 . S
C119 H151 0.951 . S
C120 C119 1.340 . S
C120 C121 1.439 . S
C120 H152 0.950 . S
C121 N117 1.374 . S
C121 C120 1.439 . S
C121 C146 1.395 . S
N122 Co111 1.995 . S
N122 C123 1.376 . S
N122 C126 1.383 . S
C123 N122 1.376 . S
C123 C124 1.446 . S
C123 C146 1.391 . S
C124 C123 1.446 . S
C124 C125 1.339 . S
C124 H153 0.949 . S
C125 C124 1.339 . S
C125 C126 1.439 . S
C125 H154 0.950 . S
C126 N122 1.383 . S
C126 C125 1.439 . S
C126 C144 1.392 . S
N127 Co111 2.282 . S
N127 C130 1.332 . S
N127 C132 1.332 . S
C128 C129 1.386 . S
C128 C131 1.388 . S
C129 C128 1.386 . S
C129 C130 1.382 . S
C129 H155 0.950 . S
C130 N127 1.332 . S
C130 C129 1.382 . S
C130 H141 0.952 . S
C131 C128 1.388 . S
C131 C132 1.382 . S
C131 H156 0.950 . S
C132 N127 1.332 . S
C132 C131 1.382 . S
C132 H142 0.948 . S
N133 Co111 2.282 . S
N133 C137 1.332 . S
N133 C138 1.332 . S
C134 C135 1.388 . S
C134 C138 1.382 . S
C134 H157 0.950 . S
C135 C134 1.388 . S
C135 C136 1.386 . S
C136 C135 1.386 . S
C136 C137 1.382 . S
C136 H158 0.950 . S
C137 N133 1.332 . S
C137 C136 1.382 . S
C137 H139 0.952 . S
C138 N133 1.332 . S
C138 C134 1.382 . S
C138 H140 0.948 . S
H139 C137 0.952 . S
H140 C138 0.948 . S
H141 C130 0.952 . S
H142 C132 0.948 . S
C143 C109 1.395 . S
C143 C113 1.391 . S
C144 C106 1.389 . S
C144 C126 1.392 . S
C145 C116 1.392 . S
C145 C118 1.389 . S
C146 C121 1.395 . S
C146 C123 1.391 . S
H147 C107 0.951 . S
H148 C108 0.950 . S
H149 C114 0.949 . S
H150 C115 0.950 . S
H151 C119 0.951 . S
H152 C120 0.950 . S
H153 C124 0.949 . S
H154 C125 0.950 . S
H155 C129 0.950 . S
H156 C131 0.950 . S
H157 C134 0.950 . S
H158 C136 0.950 . S
C159 C160 1.443 1_655 S
C159 N163 1.376 1_655 S
C159 C197 1.389 . S
C160 C159 1.443 1_455 S
C160 C161 1.340 . S
C160 H200 0.951 . S
C161 C160 1.340 . S
C161 C162 1.439 . S
C161 H201 0.950 . S
C162 C161 1.439 . S
C162 N163 1.374 . S
C162 C196 1.395 . S
N163 C159 1.376 1_455 S
N163 C162 1.374 . S
N163 Co164 2.008 1_455 S
Co164 N163 2.008 1_655 S
Co164 N165 1.995 1_655 S
Co164 N170 2.008 . S
Co164 N175 1.995 . S
Co164 N180 2.282 . S
Co164 N186 2.282 . S
N165 Co164 1.995 1_455 S
N165 C166 1.376 . S
N165 C169 1.383 . S
C166 N165 1.376 . S
C166 C167 1.446 . S
C166 C196 1.391 . S
C167 C166 1.446 . S
C167 C168 1.339 . S
C167 H202 0.949 . S
C168 C167 1.339 . S
C168 C169 1.439 . S
C168 H203 0.950 . S
C169 N165 1.383 . S
C169 C168 1.439 . S
C169 C198 1.392 . S
N170 Co164 2.008 . S
N170 C171 1.376 . S
N170 C174 1.374 . S
C171 N170 1.376 . S
C171 C172 1.443 . S
C171 C198 1.389 1_655 S
C172 C171 1.443 . S
C172 C173 1.340 . S
C172 H204 0.951 . S
C173 C172 1.340 . S
C173 C174 1.439 . S
C173 H205 0.950 . S
C174 N170 1.374 . S
C174 C173 1.439 . S
C174 C199 1.395 . S
N175 Co164 1.995 . S
N175 C176 1.376 . S
N175 C179 1.383 . S
C176 N175 1.376 . S
C176 C177 1.446 . S
C176 C199 1.391 . S
C177 C176 1.446 . S
C177 C178 1.339 . S
C177 H206 0.949 . S
C178 C177 1.339 . S
C178 C179 1.439 . S
C178 H207 0.950 . S
C179 N175 1.383 . S
C179 C178 1.439 . S
C179 C197 1.392 . S
N180 Co164 2.282 . S
N180 C183 1.332 . S
N180 C185 1.332 1_655 S
C181 C182 1.386 . S
C181 C184 1.388 1_655 S
C182 C181 1.386 . S
C182 C183 1.382 . S
C182 H208 0.950 . S
C183 N180 1.332 . S
C183 C182 1.382 . S
C183 H194 0.952 . S
C184 C181 1.388 1_455 S
C184 C185 1.382 . S
C184 H209 0.950 . S
C185 N180 1.332 1_455 S
C185 C184 1.382 . S
C185 H195 0.948 . S
N186 Co164 2.282 . S
N186 C190 1.332 1_655 S
N186 C191 1.332 . S
C187 C188 1.388 . S
C187 C191 1.382 . S
C187 H210 0.950 . S
C188 C187 1.388 . S
C188 C189 1.386 1_655 S
C189 C188 1.386 1_455 S
C189 C190 1.382 . S
C189 H211 0.950 . S
C190 N186 1.332 1_455 S
C190 C189 1.382 . S
C190 H192 0.952 . S
C191 N186 1.332 . S
C191 C187 1.382 . S
C191 H193 0.948 . S
H192 C190 0.952 . S
H193 C191 0.948 . S
H194 C183 0.952 . S
H195 C185 0.948 . S
C196 C162 1.395 . S
C196 C166 1.391 . S
C197 C159 1.389 . S
C197 C179 1.392 . S
C198 C169 1.392 . S
C198 C171 1.389 1_455 S
C199 C174 1.395 . S
C199 C176 1.391 . S
H200 C160 0.951 . S
H201 C161 0.950 . S
H202 C167 0.949 . S
H203 C168 0.950 . S
H204 C172 0.951 . S
H205 C173 0.950 . S
H206 C177 0.949 . S
H207 C178 0.950 . S
H208 C182 0.950 . S
H209 C184 0.950 . S
H210 C187 0.950 . S
H211 C189 0.950 . S
C212 C213 1.443 1_565 S
C212 N216 1.376 1_565 S
C212 C250 1.389 . S
C213 C212 1.443 1_545 S
C213 C214 1.340 . S
C213 H253 0.951 . S
C214 C213 1.340 . S
C214 C215 1.439 . S
C214 H254 0.950 . S
C215 C214 1.439 . S
C215 N216 1.374 . S
C215 C249 1.395 . S
N216 C212 1.376 1_545 S
N216 C215 1.374 . S
N216 Co217 2.008 1_545 S
Co217 N216 2.008 1_565 S
Co217 N218 1.995 1_565 S
Co217 N223 2.008 . S
Co217 N228 1.995 . S
Co217 N233 2.282 . S
Co217 N239 2.282 . S
N218 Co217 1.995 1_545 S
N218 C219 1.376 . S
N218 C222 1.383 . S
C219 N218 1.376 . S
C219 C220 1.446 . S
C219 C249 1.391 . S
C220 C219 1.446 . S
C220 C221 1.339 . S
C220 H255 0.949 . S
C221 C220 1.339 . S
C221 C222 1.439 . S
C221 H256 0.950 . S
C222 N218 1.383 . S
C222 C221 1.439 . S
C222 C251 1.392 . S
N223 Co217 2.008 . S
N223 C224 1.376 . S
N223 C227 1.374 . S
C224 N223 1.376 . S
C224 C225 1.443 . S
C224 C251 1.389 1_565 S
C225 C224 1.443 . S
C225 C226 1.340 . S
C225 H257 0.951 . S
C226 C225 1.340 . S
C226 C227 1.439 . S
C226 H258 0.950 . S
C227 N223 1.374 . S
C227 C226 1.439 . S
C227 C252 1.395 . S
N228 Co217 1.995 . S
N228 C229 1.376 . S
N228 C232 1.383 . S
C229 N228 1.376 . S
C229 C230 1.446 . S
C229 C252 1.391 . S
C230 C229 1.446 . S
C230 C231 1.339 . S
C230 H259 0.949 . S
C231 C230 1.339 . S
C231 C232 1.439 . S
C231 H260 0.950 . S
C232 N228 1.383 . S
C232 C231 1.439 . S
C232 C250 1.392 . S
N233 Co217 2.282 . S
N233 C236 1.332 . S
N233 C238 1.332 1_565 S
C234 C235 1.386 . S
C234 C237 1.388 1_565 S
C235 C234 1.386 . S
C235 C236 1.382 . S
C235 H261 0.950 . S
C236 N233 1.332 . S
C236 C235 1.382 . S
C236 H247 0.952 . S
C237 C234 1.388 1_545 S
C237 C238 1.382 . S
C237 H262 0.950 . S
C238 N233 1.332 1_545 S
C238 C237 1.382 . S
C238 H248 0.948 . S
N239 Co217 2.282 . S
N239 C243 1.332 1_565 S
N239 C244 1.332 . S
C240 C241 1.388 . S
C240 C244 1.382 . S
C240 H263 0.950 . S
C241 C240 1.388 . S
C241 C242 1.386 1_565 S
C242 C241 1.386 1_545 S
C242 C243 1.382 . S
C242 H264 0.950 . S
C243 N239 1.332 1_545 S
C243 C242 1.382 . S
C243 H245 0.952 . S
C244 N239 1.332 . S
C244 C240 1.382 . S
C244 H246 0.948 . S
H245 C243 0.952 . S
H246 C244 0.948 . S
H247 C236 0.952 . S
H248 C238 0.948 . S
C249 C215 1.395 . S
C249 C219 1.391 . S
C250 C212 1.389 . S
C250 C232 1.392 . S
C251 C222 1.392 . S
C251 C224 1.389 1_545 S
C252 C227 1.395 . S
C252 C229 1.391 . S
H253 C213 0.951 . S
H254 C214 0.950 . S
H255 C220 0.949 . S
H256 C221 0.950 . S
H257 C225 0.951 . S
H258 C226 0.950 . S
H259 C230 0.949 . S
H260 C231 0.950 . S
H261 C235 0.950 . S
H262 C237 0.950 . S
H263 C240 0.950 . S
H264 C242 0.950 . S
C265 C266 1.443 . S
C265 N269 1.376 . S
C265 C303 1.389 . S
C266 C265 1.443 . S
C266 C267 1.340 . S
C266 H306 0.951 . S
C267 C266 1.340 . S
C267 C268 1.439 . S
C267 H307 0.950 . S
C268 C267 1.439 . S
C268 N269 1.374 . S
C268 C302 1.395 . S
N269 C265 1.376 . S
N269 C268 1.374 . S
N269 Co270 2.008 . S
Co270 N269 2.008 . S
Co270 N271 1.995 . S
Co270 N276 2.008 . S
Co270 N281 1.995 . S
Co270 N286 2.282 . S
Co270 N292 2.282 . S
N271 Co270 1.995 . S
N271 C272 1.376 . S
N271 C275 1.383 . S
C272 N271 1.376 . S
C272 C273 1.446 . S
C272 C302 1.391 . S
C273 C272 1.446 . S
C273 C274 1.339 . S
C273 H308 0.949 . S
C274 C273 1.339 . S
C274 C275 1.439 . S
C274 H309 0.950 . S
C275 N271 1.383 . S
C275 C274 1.439 . S
C275 C304 1.392 . S
N276 Co270 2.008 . S
N276 C277 1.376 . S
N276 C280 1.374 . S
C277 N276 1.376 . S
C277 C278 1.443 . S
C277 C304 1.389 . S
C278 C277 1.443 . S
C278 C279 1.340 . S
C278 H310 0.951 . S
C279 C278 1.340 . S
C279 C280 1.439 . S
C279 H311 0.950 . S
C280 N276 1.374 . S
C280 C279 1.439 . S
C280 C305 1.395 . S
N281 Co270 1.995 . S
N281 C282 1.376 . S
N281 C285 1.383 . S
C282 N281 1.376 . S
C282 C283 1.446 . S
C282 C305 1.391 . S
C283 C282 1.446 . S
C283 C284 1.339 . S
C283 H312 0.949 . S
C284 C283 1.339 . S
C284 C285 1.439 . S
C284 H313 0.950 . S
C285 N281 1.383 . S
C285 C284 1.439 . S
C285 C303 1.392 . S
N286 Co270 2.282 . S
N286 C289 1.332 . S
N286 C291 1.332 . S
C287 C288 1.386 . S
C287 C290 1.388 . S
C288 C287 1.386 . S
C288 C289 1.382 . S
C288 H314 0.950 . S
C289 N286 1.332 . S
C289 C288 1.382 . S
C289 H300 0.952 . S
C290 C287 1.388 . S
C290 C291 1.382 . S
C290 H315 0.950 . S
C291 N286 1.332 . S
C291 C290 1.382 . S
C291 H301 0.948 . S
N292 Co270 2.282 . S
N292 C296 1.332 . S
N292 C297 1.332 . S
C293 C294 1.388 . S
C293 C297 1.382 . S
C293 H316 0.950 . S
C294 C293 1.388 . S
C294 C295 1.386 . S
C295 C294 1.386 . S
C295 C296 1.382 . S
C295 H317 0.950 . S
C296 N292 1.332 . S
C296 C295 1.382 . S
C296 H298 0.952 . S
C297 N292 1.332 . S
C297 C293 1.382 . S
C297 H299 0.948 . S
H298 C296 0.952 . S
H299 C297 0.948 . S
H300 C289 0.952 . S
H301 C291 0.948 . S
C302 C268 1.395 . S
C302 C272 1.391 . S
C303 C265 1.389 . S
C303 C285 1.392 . S
C304 C275 1.392 . S
C304 C277 1.389 . S
C305 C280 1.395 . S
C305 C282 1.391 . S
H306 C266 0.951 . S
H307 C267 0.950 . S
H308 C273 0.949 . S
H309 C274 0.950 . S
H310 C278 0.951 . S
H311 C279 0.950 . S
H312 C283 0.949 . S
H313 C284 0.950 . S
H314 C288 0.950 . S
H315 C290 0.950 . S
H316 C293 0.950 . S
H317 C295 0.950 . S
C318 C319 1.443 1_565 S
C318 N322 1.376 1_565 S
C318 C356 1.389 . S
C319 C318 1.443 1_545 S
C319 C320 1.340 . S
C319 H359 0.951 . S
C320 C319 1.340 . S
C320 C321 1.439 . S
C320 H360 0.950 . S
C321 C320 1.439 . S
C321 N322 1.374 . S
C321 C355 1.395 . S
N322 C318 1.376 1_545 S
N322 C321 1.374 . S
N322 Co323 2.008 1_545 S
Co323 N322 2.008 1_565 S
Co323 N324 1.995 1_565 S
Co323 N329 2.008 . S
Co323 N334 1.995 . S
Co323 N339 2.282 . S
Co323 N345 2.282 . S
N324 Co323 1.995 1_545 S
N324 C325 1.376 . S
N324 C328 1.383 . S
C325 N324 1.376 . S
C325 C326 1.446 . S
C325 C355 1.391 . S
C326 C325 1.446 . S
C326 C327 1.339 . S
C326 H361 0.949 . S
C327 C326 1.339 . S
C327 C328 1.439 . S
C327 H362 0.950 . S
C328 N324 1.383 . S
C328 C327 1.439 . S
C328 C357 1.392 . S
N329 Co323 2.008 . S
N329 C330 1.376 . S
N329 C333 1.374 . S
C330 N329 1.376 . S
C330 C331 1.443 . S
C330 C357 1.389 1_565 S
C331 C330 1.443 . S
C331 C332 1.340 . S
C331 H363 0.951 . S
C332 C331 1.340 . S
C332 C333 1.439 . S
C332 H364 0.950 . S
C333 N329 1.374 . S
C333 C332 1.439 . S
C333 C358 1.395 . S
N334 Co323 1.995 . S
N334 C335 1.376 . S
N334 C338 1.383 . S
C335 N334 1.376 . S
C335 C336 1.446 . S
C335 C358 1.391 . S
C336 C335 1.446 . S
C336 C337 1.339 . S
C336 H365 0.949 . S
C337 C336 1.339 . S
C337 C338 1.439 . S
C337 H366 0.950 . S
C338 N334 1.383 . S
C338 C337 1.439 . S
C338 C356 1.392 . S
N339 Co323 2.282 . S
N339 C342 1.332 . S
N339 C344 1.332 1_565 S
C340 C341 1.386 . S
C340 C343 1.388 1_565 S
C341 C340 1.386 . S
C341 C342 1.382 . S
C341 H367 0.950 . S
C342 N339 1.332 . S
C342 C341 1.382 . S
C342 H353 0.952 . S
C343 C340 1.388 1_545 S
C343 C344 1.382 . S
C343 H368 0.950 . S
C344 N339 1.332 1_545 S
C344 C343 1.382 . S
C344 H354 0.948 . S
N345 Co323 2.282 . S
N345 C349 1.332 1_565 S
N345 C350 1.332 . S
C346 C347 1.388 . S
C346 C350 1.382 . S
C346 H369 0.950 . S
C347 C346 1.388 . S
C347 C348 1.386 1_565 S
C348 C347 1.386 1_545 S
C348 C349 1.382 . S
C348 H370 0.950 . S
C349 N345 1.332 1_545 S
C349 C348 1.382 . S
C349 H351 0.952 . S
C350 N345 1.332 . S
C350 C346 1.382 . S
C350 H352 0.948 . S
H351 C349 0.952 . S
H352 C350 0.948 . S
H353 C342 0.952 . S
H354 C344 0.948 . S
C355 C321 1.395 . S
C355 C325 1.391 . S
C356 C318 1.389 . S
C356 C338 1.392 . S
C357 C328 1.392 . S
C357 C330 1.389 1_545 S
C358 C333 1.395 . S
C358 C335 1.391 . S
H359 C319 0.951 . S
H360 C320 0.950 . S
H361 C326 0.949 . S
H362 C327 0.950 . S
H363 C331 0.951 . S
H364 C332 0.950 . S
H365 C336 0.949 . S
H366 C337 0.950 . S
H367 C341 0.950 . S
H368 C343 0.950 . S
H369 C346 0.950 . S
H370 C348 0.950 . S
C371 C372 1.443 . S
C371 N375 1.376 . S
C371 C409 1.389 . S
C372 C371 1.443 . S
C372 C373 1.340 . S
C372 H412 0.951 . S
C373 C372 1.340 . S
C373 C374 1.439 . S
C373 H413 0.950 . S
C374 C373 1.439 . S
C374 N375 1.374 . S
C374 C408 1.395 . S
N375 C371 1.376 . S
N375 C374 1.374 . S
N375 Co376 2.008 . S
Co376 N375 2.008 . S
Co376 N377 1.995 . S
Co376 N382 2.008 . S
Co376 N387 1.995 . S
Co376 N392 2.282 . S
Co376 N398 2.282 . S
N377 Co376 1.995 . S
N377 C378 1.376 . S
N377 C381 1.383 . S
C378 N377 1.376 . S
C378 C379 1.446 . S
C378 C408 1.391 . S
C379 C378 1.446 . S
C379 C380 1.339 . S
C379 H414 0.949 . S
C380 C379 1.339 . S
C380 C381 1.439 . S
C380 H415 0.950 . S
C381 N377 1.383 . S
C381 C380 1.439 . S
C381 C410 1.392 . S
N382 Co376 2.008 . S
N382 C383 1.376 . S
N382 C386 1.374 . S
C383 N382 1.376 . S
C383 C384 1.443 . S
C383 C410 1.389 . S
C384 C383 1.443 . S
C384 C385 1.340 . S
C384 H416 0.951 . S
C385 C384 1.340 . S
C385 C386 1.439 . S
C385 H417 0.950 . S
C386 N382 1.374 . S
C386 C385 1.439 . S
C386 C411 1.395 . S
N387 Co376 1.995 . S
N387 C388 1.376 . S
N387 C391 1.383 . S
C388 N387 1.376 . S
C388 C389 1.446 . S
C388 C411 1.391 . S
C389 C388 1.446 . S
C389 C390 1.339 . S
C389 H418 0.949 . S
C390 C389 1.339 . S
C390 C391 1.439 . S
C390 H419 0.950 . S
C391 N387 1.383 . S
C391 C390 1.439 . S
C391 C409 1.392 . S
N392 Co376 2.282 . S
N392 C395 1.332 . S
N392 C397 1.332 . S
C393 C394 1.386 . S
C393 C396 1.388 . S
C394 C393 1.386 . S
C394 C395 1.382 . S
C394 H420 0.950 . S
C395 N392 1.332 . S
C395 C394 1.382 . S
C395 H406 0.952 . S
C396 C393 1.388 . S
C396 C397 1.382 . S
C396 H421 0.950 . S
C397 N392 1.332 . S
C397 C396 1.382 . S
C397 H407 0.948 . S
N398 Co376 2.282 . S
N398 C402 1.332 . S
N398 C403 1.332 . S
C399 C400 1.388 . S
C399 C403 1.382 . S
C399 H422 0.950 . S
C400 C399 1.388 . S
C400 C401 1.386 . S
C401 C400 1.386 . S
C401 C402 1.382 . S
C401 H423 0.950 . S
C402 N398 1.332 . S
C402 C401 1.382 . S
C402 H404 0.952 . S
C403 N398 1.332 . S
C403 C399 1.382 . S
C403 H405 0.948 . S
H404 C402 0.952 . S
H405 C403 0.948 . S
H406 C395 0.952 . S
H407 C397 0.948 . S
C408 C374 1.395 . S
C408 C378 1.391 . S
C409 C371 1.389 . S
C409 C391 1.392 . S
C410 C381 1.392 . S
C410 C383 1.389 . S
C411 C386 1.395 . S
C411 C388 1.391 . S
H412 C372 0.951 . S
H413 C373 0.950 . S
H414 C379 0.949 . S
H415 C380 0.950 . S
H416 C384 0.951 . S
H417 C385 0.950 . S
H418 C389 0.949 . S
H419 C390 0.950 . S
H420 C394 0.950 . S
H421 C396 0.950 . S
H422 C399 0.950 . S
H423 C401 0.950 . S
C424 C425 1.443 1_455 S
C424 N428 1.376 1_455 S
C424 C462 1.389 . S
C425 C424 1.443 1_655 S
C425 C426 1.340 . S
C425 H465 0.951 . S
C426 C425 1.340 . S
C426 C427 1.439 . S
C426 H466 0.950 . S
C427 C426 1.439 . S
C427 N428 1.374 . S
C427 C461 1.395 . S
N428 C424 1.376 1_655 S
N428 C427 1.374 . S
N428 Co429 2.008 1_655 S
Co429 N428 2.008 1_455 S
Co429 N430 1.995 1_455 S
Co429 N435 2.008 . S
Co429 N440 1.995 . S
Co429 N445 2.282 . S
Co429 N451 2.282 . S
N430 Co429 1.995 1_655 S
N430 C431 1.376 . S
N430 C434 1.383 . S
C431 N430 1.376 . S
C431 C432 1.446 . S
C431 C461 1.391 . S
C432 C431 1.446 . S
C432 C433 1.339 . S
C432 H467 0.949 . S
C433 C432 1.339 . S
C433 C434 1.439 . S
C433 H468 0.950 . S
C434 N430 1.383 . S
C434 C433 1.439 . S
C434 C463 1.392 . S
N435 Co429 2.008 . S
N435 C436 1.376 . S
N435 C439 1.374 . S
C436 N435 1.376 . S
C436 C437 1.443 . S
C436 C463 1.389 1_455 S
C437 C436 1.443 . S
C437 C438 1.340 . S
C437 H469 0.951 . S
C438 C437 1.340 . S
C438 C439 1.439 . S
C438 H470 0.950 . S
C439 N435 1.374 . S
C439 C438 1.439 . S
C439 C464 1.395 . S
N440 Co429 1.995 . S
N440 C441 1.376 . S
N440 C444 1.383 . S
C441 N440 1.376 . S
C441 C442 1.446 . S
C441 C464 1.391 . S
C442 C441 1.446 . S
C442 C443 1.339 . S
C442 H471 0.949 . S
C443 C442 1.339 . S
C443 C444 1.439 . S
C443 H472 0.950 . S
C444 N440 1.383 . S
C444 C443 1.439 . S
C444 C462 1.392 . S
N445 Co429 2.282 . S
N445 C448 1.332 . S
N445 C450 1.332 1_455 S
C446 C447 1.386 . S
C446 C449 1.388 1_455 S
C447 C446 1.386 . S
C447 C448 1.382 . S
C447 H473 0.950 . S
C448 N445 1.332 . S
C448 C447 1.382 . S
C448 H459 0.952 . S
C449 C446 1.388 1_655 S
C449 C450 1.382 . S
C449 H474 0.950 . S
C450 N445 1.332 1_655 S
C450 C449 1.382 . S
C450 H460 0.948 . S
N451 Co429 2.282 . S
N451 C455 1.332 1_455 S
N451 C456 1.332 . S
C452 C453 1.388 . S
C452 C456 1.382 . S
C452 H475 0.950 . S
C453 C452 1.388 . S
C453 C454 1.386 1_455 S
C454 C453 1.386 1_655 S
C454 C455 1.382 . S
C454 H476 0.950 . S
C455 N451 1.332 1_655 S
C455 C454 1.382 . S
C455 H457 0.952 . S
C456 N451 1.332 . S
C456 C452 1.382 . S
C456 H458 0.948 . S
H457 C455 0.952 . S
H458 C456 0.948 . S
H459 C448 0.952 . S
H460 C450 0.948 . S
C461 C427 1.395 . S
C461 C431 1.391 . S
C462 C424 1.389 . S
C462 C444 1.392 . S
C463 C434 1.392 . S
C463 C436 1.389 1_655 S
C464 C439 1.395 . S
C464 C441 1.391 . S
H465 C425 0.951 . S
H466 C426 0.950 . S
H467 C432 0.949 . S
H468 C433 0.950 . S
H469 C437 0.951 . S
H470 C438 0.950 . S
H471 C442 0.949 . S
H472 C443 0.950 . S
H473 C447 0.950 . S
H474 C449 0.950 . S
H475 C452 0.950 . S
H476 C454 0.950 . S
C477 C478 1.443 1_545 S
C477 N481 1.376 1_545 S
C477 C515 1.389 . S
C478 C477 1.443 1_565 S
C478 C479 1.340 . S
C478 H518 0.951 . S
C479 C478 1.340 . S
C479 C480 1.439 . S
C479 H519 0.950 . S
C480 C479 1.439 . S
C480 N481 1.374 . S
C480 C514 1.395 . S
N481 C477 1.376 1_565 S
N481 C480 1.374 . S
N481 Co482 2.008 1_565 S
Co482 N481 2.008 1_545 S
Co482 N483 1.995 1_545 S
Co482 N488 2.008 . S
Co482 N493 1.995 . S
Co482 N498 2.282 . S
Co482 N504 2.282 . S
N483 Co482 1.995 1_565 S
N483 C484 1.376 . S
N483 C487 1.383 . S
C484 N483 1.376 . S
C484 C485 1.446 . S
C484 C514 1.391 . S
C485 C484 1.446 . S
C485 C486 1.339 . S
C485 H520 0.949 . S
C486 C485 1.339 . S
C486 C487 1.439 . S
C486 H521 0.950 . S
C487 N483 1.383 . S
C487 C486 1.439 . S
C487 C516 1.392 . S
N488 Co482 2.008 . S
N488 C489 1.376 . S
N488 C492 1.374 . S
C489 N488 1.376 . S
C489 C490 1.443 . S
C489 C516 1.389 1_545 S
C490 C489 1.443 . S
C490 C491 1.340 . S
C490 H522 0.951 . S
C491 C490 1.340 . S
C491 C492 1.439 . S
C491 H523 0.950 . S
C492 N488 1.374 . S
C492 C491 1.439 . S
C492 C517 1.395 . S
N493 Co482 1.995 . S
N493 C494 1.376 . S
N493 C497 1.383 . S
C494 N493 1.376 . S
C494 C495 1.446 . S
C494 C517 1.391 . S
C495 C494 1.446 . S
C495 C496 1.339 . S
C495 H524 0.949 . S
C496 C495 1.339 . S
C496 C497 1.439 . S
C496 H525 0.950 . S
C497 N493 1.383 . S
C497 C496 1.439 . S
C497 C515 1.392 . S
N498 Co482 2.282 . S
N498 C501 1.332 . S
N498 C503 1.332 1_545 S
C499 C500 1.386 . S
C499 C502 1.388 1_545 S
C500 C499 1.386 . S
C500 C501 1.382 . S
C500 H526 0.950 . S
C501 N498 1.332 . S
C501 C500 1.382 . S
C501 H512 0.952 . S
C502 C499 1.388 1_565 S
C502 C503 1.382 . S
C502 H527 0.950 . S
C503 N498 1.332 1_565 S
C503 C502 1.382 . S
C503 H513 0.948 . S
N504 Co482 2.282 . S
N504 C508 1.332 1_545 S
N504 C509 1.332 . S
C505 C506 1.388 . S
C505 C509 1.382 . S
C505 H528 0.950 . S
C506 C505 1.388 . S
C506 C507 1.386 1_545 S
C507 C506 1.386 1_565 S
C507 C508 1.382 . S
C507 H529 0.950 . S
C508 N504 1.332 1_565 S
C508 C507 1.382 . S
C508 H510 0.952 . S
C509 N504 1.332 . S
C509 C505 1.382 . S
C509 H511 0.948 . S
H510 C508 0.952 . S
H511 C509 0.948 . S
H512 C501 0.952 . S
H513 C503 0.948 . S
C514 C480 1.395 . S
C514 C484 1.391 . S
C515 C477 1.389 . S
C515 C497 1.392 . S
C516 C487 1.392 . S
C516 C489 1.389 1_565 S
C517 C492 1.395 . S
C517 C494 1.391 . S
H518 C478 0.951 . S
H519 C479 0.950 . S
H520 C485 0.949 . S
H521 C486 0.950 . S
H522 C490 0.951 . S
H523 C491 0.950 . S
H524 C495 0.949 . S
H525 C496 0.950 . S
H526 C500 0.950 . S
H527 C502 0.950 . S
H528 C505 0.950 . S
H529 C507 0.950 . S
C530 C531 1.443 . S
C530 N534 1.376 . S
C530 C568 1.389 . S
C531 C530 1.443 . S
C531 C532 1.340 . S
C531 H571 0.951 . S
C532 C531 1.340 . S
C532 C533 1.439 . S
C532 H572 0.950 . S
C533 C532 1.439 . S
C533 N534 1.374 . S
C533 C567 1.395 . S
N534 C530 1.376 . S
N534 C533 1.374 . S
N534 Co535 2.008 . S
Co535 N534 2.008 . S
Co535 N536 1.995 . S
Co535 N541 2.008 . S
Co535 N546 1.995 . S
Co535 N551 2.282 . S
Co535 N557 2.282 . S
N536 Co535 1.995 . S
N536 C537 1.376 . S
N536 C540 1.383 . S
C537 N536 1.376 . S
C537 C538 1.446 . S
C537 C567 1.391 . S
C538 C537 1.446 . S
C538 C539 1.339 . S
C538 H573 0.949 . S
C539 C538 1.339 . S
C539 C540 1.439 . S
C539 H574 0.950 . S
C540 N536 1.383 . S
C540 C539 1.439 . S
C540 C569 1.392 . S
N541 Co535 2.008 . S
N541 C542 1.376 . S
N541 C545 1.374 . S
C542 N541 1.376 . S
C542 C543 1.443 . S
C542 C569 1.389 . S
C543 C542 1.443 . S
C543 C544 1.340 . S
C543 H575 0.951 . S
C544 C543 1.340 . S
C544 C545 1.439 . S
C544 H576 0.950 . S
C545 N541 1.374 . S
C545 C544 1.439 . S
C545 C570 1.395 . S
N546 Co535 1.995 . S
N546 C547 1.376 . S
N546 C550 1.383 . S
C547 N546 1.376 . S
C547 C548 1.446 . S
C547 C570 1.391 . S
C548 C547 1.446 . S
C548 C549 1.339 . S
C548 H577 0.949 . S
C549 C548 1.339 . S
C549 C550 1.439 . S
C549 H578 0.950 . S
C550 N546 1.383 . S
C550 C549 1.439 . S
C550 C568 1.392 . S
N551 Co535 2.282 . S
N551 C554 1.332 . S
N551 C556 1.332 . S
C552 C553 1.386 . S
C552 C555 1.388 . S
C553 C552 1.386 . S
C553 C554 1.382 . S
C553 H579 0.950 . S
C554 N551 1.332 . S
C554 C553 1.382 . S
C554 H565 0.952 . S
C555 C552 1.388 . S
C555 C556 1.382 . S
C555 H580 0.950 . S
C556 N551 1.332 . S
C556 C555 1.382 . S
C556 H566 0.948 . S
N557 Co535 2.282 . S
N557 C561 1.332 . S
N557 C562 1.332 . S
C558 C559 1.388 . S
C558 C562 1.382 . S
C558 H581 0.950 . S
C559 C558 1.388 . S
C559 C560 1.386 . S
C560 C559 1.386 . S
C560 C561 1.382 . S
C560 H582 0.950 . S
C561 N557 1.332 . S
C561 C560 1.382 . S
C561 H563 0.952 . S
C562 N557 1.332 . S
C562 C558 1.382 . S
C562 H564 0.948 . S
H563 C561 0.952 . S
H564 C562 0.948 . S
H565 C554 0.952 . S
H566 C556 0.948 . S
C567 C533 1.395 . S
C567 C537 1.391 . S
C568 C530 1.389 . S
C568 C550 1.392 . S
C569 C540 1.392 . S
C569 C542 1.389 . S
C570 C545 1.395 . S
C570 C547 1.391 . S
H571 C531 0.951 . S
H572 C532 0.950 . S
H573 C538 0.949 . S
H574 C539 0.950 . S
H575 C543 0.951 . S
H576 C544 0.950 . S
H577 C548 0.949 . S
H578 C549 0.950 . S
H579 C553 0.950 . S
H580 C555 0.950 . S
H581 C558 0.950 . S
H582 C560 0.950 . S
C583 C584 1.443 1_655 S
C583 N587 1.376 1_655 S
C583 C621 1.389 . S
C584 C583 1.443 1_455 S
C584 C585 1.340 . S
C584 H624 0.951 . S
C585 C584 1.340 . S
C585 C586 1.439 . S
C585 H625 0.950 . S
C586 C585 1.439 . S
C586 N587 1.374 . S
C586 C620 1.395 . S
N587 C583 1.376 1_455 S
N587 C586 1.374 . S
N587 Co588 2.008 1_455 S
Co588 N587 2.008 1_655 S
Co588 N589 1.995 1_655 S
Co588 N594 2.008 . S
Co588 N599 1.995 . S
Co588 N604 2.282 . S
Co588 N610 2.282 . S
N589 Co588 1.995 1_455 S
N589 C590 1.376 . S
N589 C593 1.383 . S
C590 N589 1.376 . S
C590 C591 1.446 . S
C590 C620 1.391 . S
C591 C590 1.446 . S
C591 C592 1.339 . S
C591 H626 0.949 . S
C592 C591 1.339 . S
C592 C593 1.439 . S
C592 H627 0.950 . S
C593 N589 1.383 . S
C593 C592 1.439 . S
C593 C622 1.392 . S
N594 Co588 2.008 . S
N594 C595 1.376 . S
N594 C598 1.374 . S
C595 N594 1.376 . S
C595 C596 1.443 . S
C595 C622 1.389 1_655 S
C596 C595 1.443 . S
C596 C597 1.340 . S
C596 H628 0.951 . S
C597 C596 1.340 . S
C597 C598 1.439 . S
C597 H629 0.950 . S
C598 N594 1.374 . S
C598 C597 1.439 . S
C598 C623 1.395 . S
N599 Co588 1.995 . S
N599 C600 1.376 . S
N599 C603 1.383 . S
C600 N599 1.376 . S
C600 C601 1.446 . S
C600 C623 1.391 . S
C601 C600 1.446 . S
C601 C602 1.339 . S
C601 H630 0.949 . S
C602 C601 1.339 . S
C602 C603 1.439 . S
C602 H631 0.950 . S
C603 N599 1.383 . S
C603 C602 1.439 . S
C603 C621 1.392 . S
N604 Co588 2.282 . S
N604 C607 1.332 . S
N604 C609 1.332 1_655 S
C605 C606 1.386 . S
C605 C608 1.388 1_655 S
C606 C605 1.386 . S
C606 C607 1.382 . S
C606 H632 0.950 . S
C607 N604 1.332 . S
C607 C606 1.382 . S
C607 H618 0.952 . S
C608 C605 1.388 1_455 S
C608 C609 1.382 . S
C608 H633 0.950 . S
C609 N604 1.332 1_455 S
C609 C608 1.382 . S
C609 H619 0.948 . S
N610 Co588 2.282 . S
N610 C614 1.332 1_655 S
N610 C615 1.332 . S
C611 C612 1.388 . S
C611 C615 1.382 . S
C611 H634 0.950 . S
C612 C611 1.388 . S
C612 C613 1.386 1_655 S
C613 C612 1.386 1_455 S
C613 C614 1.382 . S
C613 H635 0.950 . S
C614 N610 1.332 1_455 S
C614 C613 1.382 . S
C614 H616 0.952 . S
C615 N610 1.332 . S
C615 C611 1.382 . S
C615 H617 0.948 . S
H616 C614 0.952 . S
H617 C615 0.948 . S
H618 C607 0.952 . S
H619 C609 0.948 . S
C620 C586 1.395 . S
C620 C590 1.391 . S
C621 C583 1.389 . S
C621 C603 1.392 . S
C622 C593 1.392 . S
C622 C595 1.389 1_455 S
C623 C598 1.395 . S
C623 C600 1.391 . S
H624 C584 0.951 . S
H625 C585 0.950 . S
H626 C591 0.949 . S
H627 C592 0.950 . S
H628 C596 0.951 . S
H629 C597 0.950 . S
H630 C601 0.949 . S
H631 C602 0.950 . S
H632 C606 0.950 . S
H633 C608 0.950 . S
H634 C611 0.950 . S
H635 C613 0.950 . S
C636 C637 1.363 . S
C636 C642 1.379 1_455 S
C636 N644 1.356 . S
C637 C636 1.363 . S
C637 C643 1.363 . S
C638 C639 1.363 . S
C638 C643 1.379 1_655 S
C638 N645 1.356 . S
C639 C638 1.363 . S
C639 C642 1.363 . S
N640 C642 1.356 . S
N640 H652 0.984 . S
N640 H653 0.985 . S
N641 C643 1.356 . S
N641 H646 0.984 . S
N641 H647 0.985 . S
C642 C636 1.379 1_655 S
C642 C639 1.363 . S
C642 N640 1.356 . S
C643 C637 1.363 . S
C643 C638 1.379 1_455 S
C643 N641 1.356 . S
N644 C636 1.356 . S
N644 H650 0.984 . S
N644 H651 0.984 . S
N645 C638 1.356 . S
N645 H648 0.984 . S
N645 H649 0.985 . S
H646 N641 0.984 . S
H647 N641 0.985 . S
H648 N645 0.984 . S
H649 N645 0.985 . S
H650 N644 0.984 . S
H651 N644 0.984 . S
H652 N640 0.984 . S
H653 N640 0.985 . S
C654 C655 1.363 . S
C654 C660 1.379 . S
C654 N662 1.356 . S
C655 C654 1.363 . S
C655 C661 1.363 1_565 S
C656 C657 1.363 . S
C656 C661 1.379 . S
C656 N663 1.356 . S
C657 C656 1.363 . S
C657 C660 1.363 1_545 S
N658 C660 1.356 . S
N658 H670 0.984 . S
N658 H671 0.985 . S
N659 C661 1.356 . S
N659 H664 0.984 . S
N659 H665 0.985 . S
C660 C654 1.379 . S
C660 C657 1.363 1_565 S
C660 N658 1.356 . S
C661 C655 1.363 1_545 S
C661 C656 1.379 . S
C661 N659 1.356 . S
N662 C654 1.356 . S
N662 H668 0.984 . S
N662 H669 0.984 . S
N663 C656 1.356 . S
N663 H666 0.984 . S
N663 H667 0.985 . S
H664 N659 0.984 . S
H665 N659 0.985 . S
H666 N663 0.984 . S
H667 N663 0.985 . S
H668 N662 0.984 . S
H669 N662 0.984 . S
H670 N658 0.984 . S
H671 N658 0.985 . S
C672 C673 1.363 . S
C672 C678 1.379 . S
C672 N680 1.356 . S
C673 C672 1.363 . S
C673 C679 1.363 . S
C674 C675 1.363 . S
C674 C679 1.379 . S
C674 N681 1.356 . S
C675 C674 1.363 . S
C675 C678 1.363 . S
N676 C678 1.356 . S
N676 H688 0.984 . S
N676 H689 0.985 . S
N677 C679 1.356 . S
N677 H682 0.984 . S
N677 H683 0.985 . S
C678 C672 1.379 . S
C678 C675 1.363 . S
C678 N676 1.356 . S
C679 C673 1.363 . S
C679 C674 1.379 . S
C679 N677 1.356 . S
N680 C672 1.356 . S
N680 H686 0.984 . S
N680 H687 0.984 . S
N681 C674 1.356 . S
N681 H684 0.984 . S
N681 H685 0.985 . S
H682 N677 0.984 . S
H683 N677 0.985 . S
H684 N681 0.984 . S
H685 N681 0.985 . S
H686 N680 0.984 . S
H687 N680 0.984 . S
H688 N676 0.984 . S
H689 N676 0.985 . S
C690 C691 1.363 . S
C690 C696 1.379 . S
C690 N698 1.356 . S
C691 C690 1.363 . S
C691 C697 1.363 1_455 S
C692 C693 1.363 . S
C692 C697 1.379 . S
C692 N699 1.356 . S
C693 C692 1.363 . S
C693 C696 1.363 1_655 S
N694 C696 1.356 . S
N694 H706 0.984 . S
N694 H707 0.985 . S
N695 C697 1.356 . S
N695 H700 0.984 . S
N695 H701 0.985 . S
C696 C690 1.379 . S
C696 C693 1.363 1_455 S
C696 N694 1.356 . S
C697 C691 1.363 1_655 S
C697 C692 1.379 . S
C697 N695 1.356 . S
N698 C690 1.356 . S
N698 H704 0.984 . S
N698 H705 0.984 . S
N699 C692 1.356 . S
N699 H702 0.984 . S
N699 H703 0.985 . S
H700 N695 0.984 . S
H701 N695 0.985 . S
H702 N699 0.984 . S
H703 N699 0.985 . S
H704 N698 0.984 . S
H705 N698 0.984 . S
H706 N694 0.984 . S
H707 N694 0.985 . S
C708 C709 1.363 . S
C708 C714 1.379 . S
C708 N716 1.356 . S
C709 C708 1.363 . S
C709 C715 1.363 1_565 S
C710 C711 1.363 . S
C710 C715 1.379 . S
C710 N717 1.356 . S
C711 C710 1.363 . S
C711 C714 1.363 1_545 S
N712 C714 1.356 . S
N712 H724 0.984 . S
N712 H725 0.985 . S
N713 C715 1.356 . S
N713 H718 0.984 . S
N713 H719 0.985 . S
C714 C708 1.379 . S
C714 C711 1.363 1_565 S
C714 N712 1.356 . S
C715 C709 1.363 1_545 S
C715 C710 1.379 . S
C715 N713 1.356 . S
N716 C708 1.356 . S
N716 H722 0.984 . S
N716 H723 0.984 . S
N717 C710 1.356 . S
N717 H720 0.984 . S
N717 H721 0.985 . S
H718 N713 0.984 . S
H719 N713 0.985 . S
H720 N717 0.984 . S
H721 N717 0.985 . S
H722 N716 0.984 . S
H723 N716 0.984 . S
H724 N712 0.984 . S
H725 N712 0.985 . S
C726 C727 1.363 . S
C726 C732 1.379 . S
C726 N734 1.356 . S
C727 C726 1.363 . S
C727 C733 1.363 . S
C728 C729 1.363 . S
C728 C733 1.379 . S
C728 N735 1.356 . S
C729 C728 1.363 . S
C729 C732 1.363 . S
N730 C732 1.356 . S
N730 H742 0.984 . S
N730 H743 0.985 . S
N731 C733 1.356 . S
N731 H736 0.984 . S
N731 H737 0.985 . S
C732 C726 1.379 . S
C732 C729 1.363 . S
C732 N730 1.356 . S
C733 C727 1.363 . S
C733 C728 1.379 . S
C733 N731 1.356 . S
N734 C726 1.356 . S
N734 H740 0.984 . S
N734 H741 0.984 . S
N735 C728 1.356 . S
N735 H738 0.984 . S
N735 H739 0.985 . S
H736 N731 0.984 . S
H737 N731 0.985 . S
H738 N735 0.984 . S
H739 N735 0.985 . S
H740 N734 0.984 . S
H741 N734 0.984 . S
H742 N730 0.984 . S
H743 N730 0.985 . S
C744 C745 1.363 . S
C744 C750 1.379 . S
C744 N752 1.356 . S
C745 C744 1.363 . S
C745 C751 1.363 1_554 S
C746 C747 1.363 . S
C746 C751 1.379 . S
C746 N753 1.356 . S
C747 C746 1.363 . S
C747 C750 1.363 1_556 S
N748 C750 1.356 1_556 S
N748 H760 0.984 1_556 S
N748 H761 0.985 . S
N749 C751 1.356 1_554 S
N749 H754 0.984 . S
N749 H755 0.985 1_554 S
C750 C744 1.379 . S
C750 C747 1.363 1_554 S
C750 N748 1.356 1_554 S
C751 C745 1.363 1_556 S
C751 C746 1.379 . S
C751 N749 1.356 1_556 S
N752 C744 1.356 . S
N752 H758 0.984 . S
N752 H759 0.984 . S
N753 C746 1.356 . S
N753 H756 0.984 . S
N753 H757 0.985 . S
H754 N749 0.984 . S
H755 N749 0.985 1_556 S
H756 N753 0.984 . S
H757 N753 0.985 . S
H758 N752 0.984 . S
H759 N752 0.984 . S
H760 N748 0.984 1_554 S
H761 N748 0.985 . S
C762 C763 1.363 . S
C762 C768 1.379 . S
C762 N770 1.356 . S
C763 C762 1.363 . S
C763 C769 1.363 . S
C764 C765 1.363 . S
C764 C769 1.379 . S
C764 N771 1.356 . S
C765 C764 1.363 . S
C765 C768 1.363 . S
N766 C768 1.356 . S
N766 H778 0.984 . S
N766 H779 0.985 . S
N767 C769 1.356 . S
N767 H772 0.984 . S
N767 H773 0.985 . S
C768 C762 1.379 . S
C768 C765 1.363 . S
C768 N766 1.356 . S
C769 C763 1.363 . S
C769 C764 1.379 . S
C769 N767 1.356 . S
N770 C762 1.356 . S
N770 H776 0.984 . S
N770 H777 0.984 . S
N771 C764 1.356 . S
N771 H774 0.984 . S
N771 H775 0.985 . S
H772 N767 0.984 . S
H773 N767 0.985 . S
H774 N771 0.984 . S
H775 N771 0.985 . S
H776 N770 0.984 . S
H777 N770 0.984 . S
H778 N766 0.984 . S
H779 N766 0.985 . S
C780 C781 1.363 . S
C780 C786 1.379 . S
C780 N788 1.356 . S
C781 C780 1.363 . S
C781 C787 1.363 . S
C782 C783 1.363 . S
C782 C787 1.379 . S
C782 N789 1.356 . S
C783 C782 1.363 . S
C783 C786 1.363 . S
N784 C786 1.356 . S
N784 H796 0.984 . S
N784 H797 0.985 . S
N785 C787 1.356 . S
N785 H790 0.984 . S
N785 H791 0.985 . S
C786 C780 1.379 . S
C786 C783 1.363 . S
C786 N784 1.356 . S
C787 C781 1.363 . S
C787 C782 1.379 . S
C787 N785 1.356 . S
N788 C780 1.356 . S
N788 H794 0.984 . S
N788 H795 0.984 . S
N789 C782 1.356 . S
N789 H792 0.984 . S
N789 H793 0.985 . S
H790 N785 0.984 . S
H791 N785 0.985 . S
H792 N789 0.984 . S
H793 N789 0.985 . S
H794 N788 0.984 . S
H795 N788 0.984 . S
H796 N784 0.984 . S
H797 N784 0.985 . S
C798 C799 1.363 . S
C798 C804 1.379 . S
C798 N806 1.356 . S
C799 C798 1.363 . S
C799 C805 1.363 1_554 S
C800 C801 1.363 . S
C800 C805 1.379 . S
C800 N807 1.356 . S
C801 C800 1.363 . S
C801 C804 1.363 1_556 S
N802 C804 1.356 1_556 S
N802 H814 0.984 1_556 S
N802 H815 0.985 . S
N803 C805 1.356 1_554 S
N803 H808 0.984 . S
N803 H809 0.985 1_554 S
C804 C798 1.379 . S
C804 C801 1.363 1_554 S
C804 N802 1.356 1_554 S
C805 C799 1.363 1_556 S
C805 C800 1.379 . S
C805 N803 1.356 1_556 S
N806 C798 1.356 . S
N806 H812 0.984 . S
N806 H813 0.984 . S
N807 C800 1.356 . S
N807 H810 0.984 . S
N807 H811 0.985 . S
H808 N803 0.984 . S
H809 N803 0.985 1_556 S
H810 N807 0.984 . S
H811 N807 0.985 . S
H812 N806 0.984 . S
H813 N806 0.984 . S
H814 N802 0.984 1_554 S
H815 N802 0.985 . S
C816 C817 1.363 . S
C816 C822 1.379 . S
C816 N824 1.356 . S
C817 C816 1.363 . S
C817 C823 1.363 . S
C818 C819 1.363 . S
C818 C823 1.379 . S
C818 N825 1.356 . S
C819 C818 1.363 . S
C819 C822 1.363 . S
N820 C822 1.356 . S
N820 H832 0.984 . S
N820 H833 0.985 . S
N821 C823 1.356 . S
N821 H826 0.984 . S
N821 H827 0.985 . S
C822 C816 1.379 . S
C822 C819 1.363 . S
C822 N820 1.356 . S
C823 C817 1.363 . S
C823 C818 1.379 . S
C823 N821 1.356 . S
N824 C816 1.356 . S
N824 H830 0.984 . S
N824 H831 0.984 . S
N825 C818 1.356 . S
N825 H828 0.984 . S
N825 H829 0.985 . S
H826 N821 0.984 . S
H827 N821 0.985 . S
H828 N825 0.984 . S
H829 N825 0.985 . S
H830 N824 0.984 . S
H831 N824 0.984 . S
H832 N820 0.984 . S
H833 N820 0.985 . S
C834 C835 1.363 . S
C834 C840 1.379 . S
C834 N842 1.356 . S
C835 C834 1.363 . S
C835 C841 1.363 . S
C836 C837 1.363 . S
C836 C841 1.379 . S
C836 N843 1.356 . S
C837 C836 1.363 . S
C837 C840 1.363 . S
N838 C840 1.356 . S
N838 H850 0.984 . S
N838 H851 0.985 . S
N839 C841 1.356 . S
N839 H844 0.984 . S
N839 H845 0.985 . S
C840 C834 1.379 . S
C840 C837 1.363 . S
C840 N838 1.356 . S
C841 C835 1.363 . S
C841 C836 1.379 . S
C841 N839 1.356 . S
N842 C834 1.356 . S
N842 H848 0.984 . S
N842 H849 0.984 . S
N843 C836 1.356 . S
N843 H846 0.984 . S
N843 H847 0.985 . S
H844 N839 0.984 . S
H845 N839 0.985 . S
H846 N843 0.984 . S
H847 N843 0.985 . S
H848 N842 0.984 . S
H849 N842 0.984 . S
H850 N838 0.984 . S
H851 N838 0.985 . S
C852 C853 1.363 1_455 S
C852 C858 1.379 . S
C852 N860 1.356 . S
C853 C852 1.363 1_655 S
C853 C859 1.363 . S
C854 C855 1.363 1_655 S
C854 C859 1.379 . S
C854 N861 1.356 . S
C855 C854 1.363 1_455 S
C855 C858 1.363 . S
N856 C858 1.356 . S
N856 H868 0.984 . S
N856 H869 0.985 . S
N857 C859 1.356 . S
N857 H862 0.984 . S
N857 H863 0.985 . S
C858 C852 1.379 . S
C858 C855 1.363 . S
C858 N856 1.356 . S
C859 C853 1.363 . S
C859 C854 1.379 . S
C859 N857 1.356 . S
N860 C852 1.356 . S
N860 H866 0.984 . S
N860 H867 0.984 . S
N861 C854 1.356 . S
N861 H864 0.984 . S
N861 H865 0.985 . S
H862 N857 0.984 . S
H863 N857 0.985 . S
H864 N861 0.984 . S
H865 N861 0.985 . S
H866 N860 0.984 . S
H867 N860 0.984 . S
H868 N856 0.984 . S
H869 N856 0.985 . S
C870 C871 1.363 1_565 S
C870 C876 1.379 . S
C870 N878 1.356 . S
C871 C870 1.363 1_545 S
C871 C877 1.363 . S
C872 C873 1.363 1_545 S
C872 C877 1.379 . S
C872 N879 1.356 . S
C873 C872 1.363 1_565 S
C873 C876 1.363 . S
N874 C876 1.356 . S
N874 H886 0.984 . S
N874 H887 0.985 . S
N875 C877 1.356 . S
N875 H880 0.984 . S
N875 H881 0.985 . S
C876 C870 1.379 . S
C876 C873 1.363 . S
C876 N874 1.356 . S
C877 C871 1.363 . S
C877 C872 1.379 . S
C877 N875 1.356 . S
N878 C870 1.356 . S
N878 H884 0.984 . S
N878 H885 0.984 . S
N879 C872 1.356 . S
N879 H882 0.984 . S
N879 H883 0.985 . S
H880 N875 0.984 . S
H881 N875 0.985 . S
H882 N879 0.984 . S
H883 N879 0.985 . S
H884 N878 0.984 . S
H885 N878 0.984 . S
H886 N874 0.984 . S
H887 N874 0.985 . S
C888 C889 1.363 . S
C888 C894 1.379 . S
C888 N896 1.356 . S
C889 C888 1.363 . S
C889 C895 1.363 . S
C890 C891 1.363 . S
C890 C895 1.379 . S
C890 N897 1.356 . S
C891 C890 1.363 . S
C891 C894 1.363 . S
N892 C894 1.356 . S
N892 H904 0.984 . S
N892 H905 0.985 . S
N893 C895 1.356 . S
N893 H898 0.984 . S
N893 H899 0.985 . S
C894 C888 1.379 . S
C894 C891 1.363 . S
C894 N892 1.356 . S
C895 C889 1.363 . S
C895 C890 1.379 . S
C895 N893 1.356 . S
N896 C888 1.356 . S
N896 H902 0.984 . S
N896 H903 0.984 . S
N897 C890 1.356 . S
N897 H900 0.984 . S
N897 H901 0.985 . S
H898 N893 0.984 . S
H899 N893 0.985 . S
H900 N897 0.984 . S
H901 N897 0.985 . S
H902 N896 0.984 . S
H903 N896 0.984 . S
H904 N892 0.984 . S
H905 N892 0.985 . S
C906 C907 1.363 . S
C906 C912 1.379 . S
C906 N914 1.356 . S
C907 C906 1.363 . S
C907 C913 1.363 1_545 S
C908 C909 1.363 . S
C908 C913 1.379 . S
C908 N915 1.356 . S
C909 C908 1.363 . S
C909 C912 1.363 1_565 S
N910 C912 1.356 . S
N910 H922 0.984 . S
N910 H923 0.985 . S
N911 C913 1.356 . S
N911 H916 0.984 . S
N911 H917 0.985 . S
C912 C906 1.379 . S
C912 C909 1.363 1_545 S
C912 N910 1.356 . S
C913 C907 1.363 1_565 S
C913 C908 1.379 . S
C913 N911 1.356 . S
N914 C906 1.356 . S
N914 H920 0.984 . S
N914 H921 0.984 . S
N915 C908 1.356 . S
N915 H918 0.984 . S
N915 H919 0.985 . S
H916 N911 0.984 . S
H917 N911 0.985 . S
H918 N915 0.984 . S
H919 N915 0.985 . S
H920 N914 0.984 . S
H921 N914 0.984 . S
H922 N910 0.984 . S
H923 N910 0.985 . S
C924 C925 1.363 . S
C924 C930 1.379 . S
C924 N932 1.356 . S
C925 C924 1.363 . S
C925 C931 1.363 . S
C926 C927 1.363 . S
C926 C931 1.379 . S
C926 N933 1.356 . S
C927 C926 1.363 . S
C927 C930 1.363 . S
N928 C930 1.356 . S
N928 H940 0.984 . S
N928 H941 0.985 . S
N929 C931 1.356 . S
N929 H934 0.984 . S
N929 H935 0.985 . S
C930 C924 1.379 . S
C930 C927 1.363 . S
C930 N928 1.356 . S
C931 C925 1.363 . S
C931 C926 1.379 . S
C931 N929 1.356 . S
N932 C924 1.356 . S
N932 H938 0.984 . S
N932 H939 0.984 . S
N933 C926 1.356 . S
N933 H936 0.984 . S
N933 H937 0.985 . S
H934 N929 0.984 . S
H935 N929 0.985 . S
H936 N933 0.984 . S
H937 N933 0.985 . S
H938 N932 0.984 . S
H939 N932 0.984 . S
H940 N928 0.984 . S
H941 N928 0.985 . S
C942 C943 1.363 1_655 S
C942 C948 1.379 . S
C942 N950 1.356 . S
C943 C942 1.363 1_455 S
C943 C949 1.363 . S
C944 C945 1.363 1_455 S
C944 C949 1.379 . S
C944 N951 1.356 . S
C945 C944 1.363 1_655 S
C945 C948 1.363 . S
N946 C948 1.356 . S
N946 H958 0.984 . S
N946 H959 0.985 . S
N947 C949 1.356 . S
N947 H952 0.984 . S
N947 H953 0.985 . S
C948 C942 1.379 . S
C948 C945 1.363 . S
C948 N946 1.356 . S
C949 C943 1.363 . S
C949 C944 1.379 . S
C949 N947 1.356 . S
N950 C942 1.356 . S
N950 H956 0.984 . S
N950 H957 0.984 . S
N951 C944 1.356 . S
N951 H954 0.984 . S
N951 H955 0.985 . S
H952 N947 0.984 . S
H953 N947 0.985 . S
H954 N951 0.984 . S
H955 N951 0.985 . S
H956 N950 0.984 . S
H957 N950 0.984 . S
H958 N946 0.984 . S
H959 N946 0.985 . S
C960 C961 1.363 . S
C960 C966 1.379 1_545 S
C960 N968 1.356 . S
C961 C960 1.363 . S
C961 C967 1.363 1_455 S
C962 C963 1.363 . S
C962 C967 1.379 1_565 S
C962 N969 1.356 . S
C963 C962 1.363 . S
C963 C966 1.363 1_655 S
N964 C966 1.356 . S
N964 H976 0.984 . S
N964 H977 0.985 . S
N965 C967 1.356 . S
N965 H970 0.984 . S
N965 H971 0.985 . S
C966 C960 1.379 1_565 S
C966 C963 1.363 1_455 S
C966 N964 1.356 . S
C967 C961 1.363 1_655 S
C967 C962 1.379 1_545 S
C967 N965 1.356 . S
N968 C960 1.356 . S
N968 H974 0.984 . S
N968 H975 0.984 . S
N969 C962 1.356 . S
N969 H972 0.984 . S
N969 H973 0.985 . S
H970 N965 0.984 . S
H971 N965 0.985 . S
H972 N969 0.984 . S
H973 N969 0.985 . S
H974 N968 0.984 . S
H975 N968 0.984 . S
H976 N964 0.984 . S
H977 N964 0.985 . S
C978 C979 1.363 1_455 S
C978 C984 1.379 . S
C978 N986 1.356 1_455 S
C979 C978 1.363 1_655 S
C979 C985 1.363 1_545 S
C980 C981 1.363 1_655 S
C980 C985 1.379 . S
C980 N987 1.356 1_655 S
C981 C980 1.363 1_455 S
C981 C984 1.363 1_565 S
N982 C984 1.356 . S
N982 H994 0.984 . S
N982 H995 0.985 . S
N983 C985 1.356 . S
N983 H988 0.984 . S
N983 H989 0.985 . S
C984 C978 1.379 . S
C984 C981 1.363 1_545 S
C984 N982 1.356 . S
C985 C979 1.363 1_565 S
C985 C980 1.379 . S
C985 N983 1.356 . S
N986 C978 1.356 1_655 S
N986 H992 0.984 1_655 S
N986 H993 0.984 . S
N987 C980 1.356 1_455 S
N987 H990 0.984 . S
N987 H991 0.985 1_455 S
H988 N983 0.984 . S
H989 N983 0.985 . S
H990 N987 0.984 . S
H991 N987 0.985 1_655 S
H992 N986 0.984 1_455 S
H993 N986 0.984 . S
H994 N982 0.984 . S
H995 N982 0.985 . S
C996 C997 1.363 . S
C996 C1002 1.379 1_455 S
C996 N1004 1.356 . S
C997 C996 1.363 . S
C997 C1003 1.363 1_545 S
C998 C999 1.363 . S
C998 C1003 1.379 1_655 S
C998 N1005 1.356 . S
C999 C998 1.363 . S
C999 C1002 1.363 1_565 S
N1000 C1002 1.356 1_565 S
N1000 H1012 0.984 1_565 S
N1000 H1013 0.985 . S
N1001 C1003 1.356 1_545 S
N1001 H1006 0.984 . S
N1001 H1007 0.985 1_545 S
C1002 C996 1.379 1_655 S
C1002 C999 1.363 1_545 S
C1002 N1000 1.356 1_545 S
C1003 C997 1.363 1_565 S
C1003 C998 1.379 1_455 S
C1003 N1001 1.356 1_565 S
N1004 C996 1.356 . S
N1004 H1010 0.984 . S
N1004 H1011 0.984 . S
N1005 C998 1.356 . S
N1005 H1008 0.984 . S
N1005 H1009 0.985 . S
H1006 N1001 0.984 . S
H1007 N1001 0.985 1_565 S
H1008 N1005 0.984 . S
H1009 N1005 0.985 . S
H1010 N1004 0.984 . S
H1011 N1004 0.984 . S
H1012 N1000 0.984 1_545 S
H1013 N1000 0.985 . S
C1014 C1015 1.363 1_545 S
C1014 C1020 1.379 1_655 S
C1014 N1022 1.356 . S
C1015 C1014 1.363 1_565 S
C1015 C1021 1.363 . S
C1016 C1017 1.363 1_565 S
C1016 C1021 1.379 1_455 S
C1016 N1023 1.356 . S
C1017 C1016 1.363 1_545 S
C1017 C1020 1.363 . S
N1018 C1020 1.356 . S
N1018 H1030 0.984 . S
N1018 H1031 0.985 . S
N1019 C1021 1.356 . S
N1019 H1024 0.984 . S
N1019 H1025 0.985 . S
C1020 C1014 1.379 1_455 S
C1020 C1017 1.363 . S
C1020 N1018 1.356 . S
C1021 C1015 1.363 . S
C1021 C1016 1.379 1_655 S
C1021 N1019 1.356 . S
N1022 C1014 1.356 . S
N1022 H1028 0.984 . S
N1022 H1029 0.984 . S
N1023 C1016 1.356 . S
N1023 H1026 0.984 . S
N1023 H1027 0.985 . S
H1024 N1019 0.984 . S
H1025 N1019 0.985 . S
H1026 N1023 0.984 . S
H1027 N1023 0.985 . S
H1028 N1022 0.984 . S
H1029 N1022 0.984 . S
H1030 N1018 0.984 . S
H1031 N1018 0.985 . S
C1032 C1033 1.363 1_455 S
C1032 C1038 1.379 1_565 S
C1032 N1040 1.356 1_455 S
C1033 C1032 1.363 1_655 S
C1033 C1039 1.363 . S
C1034 C1035 1.363 1_655 S
C1034 C1039 1.379 1_545 S
C1034 N1041 1.356 1_655 S
C1035 C1034 1.363 1_455 S
C1035 C1038 1.363 . S
N1036 C1038 1.356 . S
N1036 H1048 0.984 . S
N1036 H1049 0.985 . S
N1037 C1039 1.356 . S
N1037 H1042 0.984 . S
N1037 H1043 0.985 . S
C1038 C1032 1.379 1_545 S
C1038 C1035 1.363 . S
C1038 N1036 1.356 . S
C1039 C1033 1.363 . S
C1039 C1034 1.379 1_565 S
C1039 N1037 1.356 . S
N1040 C1032 1.356 1_655 S
N1040 H1046 0.984 1_655 S
N1040 H1047 0.984 . S
N1041 C1034 1.356 1_455 S
N1041 H1044 0.984 . S
N1041 H1045 0.985 1_455 S
H1042 N1037 0.984 . S
H1043 N1037 0.985 . S
H1044 N1041 0.984 . S
H1045 N1041 0.985 1_655 S
H1046 N1040 0.984 1_455 S
H1047 N1040 0.984 . S
H1048 N1036 0.984 . S
H1049 N1036 0.985 . S
C1050 C1051 1.363 1_545 S
C1050 C1056 1.379 . S
C1050 N1058 1.356 1_545 S
C1051 C1050 1.363 1_565 S
C1051 C1057 1.363 1_455 S
C1052 C1053 1.363 1_565 S
C1052 C1057 1.379 . S
C1052 N1059 1.356 1_565 S
C1053 C1052 1.363 1_545 S
C1053 C1056 1.363 1_655 S
N1054 C1056 1.356 . S
N1054 H1066 0.984 . S
N1054 H1067 0.985 . S
N1055 C1057 1.356 . S
N1055 H1060 0.984 . S
N1055 H1061 0.985 . S
C1056 C1050 1.379 . S
C1056 C1053 1.363 1_455 S
C1056 N1054 1.356 . S
C1057 C1051 1.363 1_655 S
C1057 C1052 1.379 . S
C1057 N1055 1.356 . S
N1058 C1050 1.356 1_565 S
N1058 H1064 0.984 1_565 S
N1058 H1065 0.984 . S
N1059 C1052 1.356 1_545 S
N1059 H1062 0.984 . S
N1059 H1063 0.985 1_545 S
H1060 N1055 0.984 . S
H1061 N1055 0.985 . S
H1062 N1059 0.984 . S
H1063 N1059 0.985 1_565 S
H1064 N1058 0.984 1_545 S
H1065 N1058 0.984 . S
H1066 N1054 0.984 . S
H1067 N1054 0.985 . S
C637 C622 1.837 . S
C639 C39 1.837 . S
C655 C92 1.837 . S
C657 C357 1.837 . S
C673 C145 1.837 . S
C675 C410 1.837 . S
C691 C198 1.837 . S
C693 C463 1.837 . S
C709 C516 1.836 . S
C711 C251 1.836 . S
C727 C304 1.836 . S
C729 C569 1.836 . S
C745 C38 1.831 . S
C747 C568 1.831 . S
C763 C91 1.831 . S
C765 C621 1.831 . S
C781 C144 1.831 . S
C783 C356 1.831 . S
C799 C197 1.831 . S
C801 C409 1.831 . S
C817 C462 1.831 . S
C819 C250 1.831 . S
C835 C515 1.831 . S
C837 C303 1.831 . S
C853 C181 1.549 . S
C855 C22 1.549 . S
C871 C75 1.549 . S
C873 C234 1.549 . S
C889 C287 1.549 . S
C891 C128 1.549 . S
C907 C499 1.549 . S
C909 C340 1.549 . S
C925 C552 1.549 . S
C927 C393 1.549 . S
C943 C446 1.549 . S
C945 C605 1.549 . S
C961 C29 1.604 . S
C963 C188 1.604 . S
C979 C82 1.604 . S
C981 C241 1.604 . S
C997 C294 1.604 . S
C999 C135 1.604 . S
C1015 C347 1.604 . S
C1017 C506 1.604 . S
C1033 C400 1.604 . S
C1035 C559 1.604 . S
C1051 C453 1.604 . S
C1053 C612 1.604 . S
