# Generated by pormake.
# Topology bcg, (8)-cn, num edge types: 1
# Building blocks:
#     Node 0, Type 0, BuildingBlock: EYACOX_clean_sbu_0, # of connection points: 8
#     Node 1, Type 0, BuildingBlock: EYACOX_clean_sbu_0, # of connection points: 8
#     Node 2, Type 0, BuildingBlock: EYACOX_clean_sbu_0, # of connection points: 8
#     Node 3, Type 0, BuildingBlock: EYACOX_clean_sbu_0, # of connection points: 8
#     Edge 4, Type (0, 0), BuildingBlock: FUNLAD_clean_linker_0, # of connection points: 2
#     Edge 5, Type (0, 0), BuildingBlock: FUNLAD_clean_linker_0, # of connection points: 2
#     Edge 6, Type (0, 0), BuildingBlock: FUNLAD_clean_linker_0, # of connection points: 2
#     Edge 7, Type (0, 0), BuildingBlock: FUNLAD_clean_linker_0, # of connection points: 2
#     Edge 8, Type (0, 0), BuildingBlock: FUNLAD_clean_linker_0, # of connection points: 2
#     Edge 9, Type (0, 0), BuildingBlock: FUNLAD_clean_linker_0, # of connection points: 2
#     Edge 10, Type (0, 0), BuildingBlock: FUNLAD_clean_linker_0, # of connection points: 2
#     Edge 11, Type (0, 0), BuildingBlock: FUNLAD_clean_linker_0, # of connection points: 2
#     Edge 12, Type (0, 0), BuildingBlock: FUNLAD_clean_linker_0, # of connection points: 2
#     Edge 13, Type (0, 0), BuildingBlock: FUNLAD_clean_linker_0, # of connection points: 2
#     Edge 14, Type (0, 0), BuildingBlock: FUNLAD_clean_linker_0, # of connection points: 2
#     Edge 15, Type (0, 0), BuildingBlock: FUNLAD_clean_linker_0, # of connection points: 2
#     Edge 16, Type (0, 0), BuildingBlock: FUNLAD_clean_linker_0, # of connection points: 2
#     Edge 17, Type (0, 0), BuildingBlock: FUNLAD_clean_linker_0, # of connection points: 2
#     Edge 18, Type (0, 0), BuildingBlock: FUNLAD_clean_linker_0, # of connection points: 2
#     Edge 19, Type (0, 0), BuildingBlock: FUNLAD_clean_linker_0, # of connection points: 2
# Relax obj value: 0.097
# Max RMSD: 0.178
# Mean RMSD: 0.178
data_MOF--net-bcg--node1-EYACOX_clean_sbu_0--edge1-FUNLAD_clean_linker_0
_symmetry_space_group_name_H-M    P1
_symmetry_Int_Tables_number       1
_symmetry_cell_setting            triclinic
loop_
_symmetry_equiv_pos_as_xyz
'x, y, z'
_cell_length_a     24.74846
_cell_length_b     23.952901
_cell_length_c     36.974427
_cell_angle_alpha  90.274254
_cell_angle_beta   118.71382
_cell_angle_gamma 89.664438
loop_
_atom_site_label
_atom_site_type_symbol
_atom_site_fract_x
_atom_site_fract_y
_atom_site_fract_z
_atom_type_partial_charge
Eu0 Eu 0.3403 0.17581 -0.01088 0.0
Eu1 Eu 0.27658 0.25315 0.03633 0.0
O2 O 0.33775 0.14318 0.9326 0.0
O3 O 0.41306 0.12092 -0.00771 0.0
O4 O 0.24101 0.1665 0.02847 0.0
O5 O 0.24564 0.14027 0.97042 0.0
O6 O 0.36737 0.13634 0.05068 0.0
O7 O 0.36575 0.21646 0.08444 0.0
C8 C 0.43571 0.12531 0.93642 0.0
C9 C 0.52129 0.13216 0.90729 0.0
C10 C 0.5369 0.15304 0.94632 0.0
C11 C 0.49448 0.14917 0.96126 0.0
C12 C 0.46422 0.10761 0.88242 0.0
C13 C 0.42073 0.10488 0.89665 0.0
C14 C 0.39122 0.11841 0.95241 0.0
C15 C 0.22015 0.13734 -0.00553 0.0
O16 O 0.26865 0.27155 0.09171 0.0
O17 O 0.20899 0.31386 0.03479 0.0
C18 C 0.38359 0.16463 0.08484 0.0
O19 O 0.34457 0.3107 0.03237 0.0
O20 O 0.40577 0.24692 0.02103 0.0
O21 O 0.21863 0.26182 0.96719 0.0
O22 O 0.2963 0.25181 0.95081 0.0
C23 C 0.16816 0.29357 0.08012 0.0
C24 C 0.12401 0.29615 0.12696 0.0
C25 C 0.1726 0.30822 0.11861 0.0
C26 C 0.07113 0.27043 0.09645 0.0
C27 C 0.0653 0.25655 0.05804 0.0
C28 C 0.11375 0.26811 0.04966 0.0
C29 C 0.22102 0.30421 0.07264 0.0
C30 C 0.39472 0.29753 0.03024 0.0
C31 C 0.24118 0.26991 0.94187 0.0
H32 H 0.55461 0.13456 0.89614 0.0
H33 H 0.50731 0.16453 -0.00806 0.0
H34 H 0.37619 0.08608 0.87734 0.0
H35 H 0.21388 0.32818 0.14207 0.0
H36 H 0.03266 0.2628 0.10215 0.0
H37 H 0.10916 0.25719 0.01984 0.0
Eu38 Eu 0.76434 0.72811 0.93973 0.0
Eu39 Eu 0.69556 0.80607 0.98544 0.0
O40 O 0.77721 0.7154 0.88549 0.0
O41 O 0.81841 0.65761 0.93646 0.0
O42 O 0.64639 0.72381 0.96718 0.0
O43 O 0.71914 0.66741 0.96283 0.0
O44 O 0.83724 0.7414 0.00543 0.0
O45 O 0.77411 0.75699 0.03461 0.0
C46 C 0.86873 0.66848 0.89568 0.0
C47 C 0.97435 0.65533 0.88679 0.0
C48 C 0.97988 0.67695 0.92356 0.0
C49 C 0.927 0.68396 0.92805 0.0
C50 C 0.91716 0.64158 0.85371 0.0
C51 C 0.86394 0.64846 0.8581 0.0
C52 C 0.8128 0.67186 0.90077 0.0
C53 C 0.66962 0.67437 0.96695 0.0
O54 O 0.69417 0.83776 0.04106 0.0
O55 O 0.61941 0.85755 0.98077 0.0
C56 C 0.82785 0.74448 0.03749 0.0
O57 O 0.76921 0.86185 -0.01374 0.0
O58 O 0.7881 0.81763 0.93746 0.0
O59 O 0.65549 0.83117 0.91873 0.0
O60 O 0.66541 0.7458 0.89453 0.0
C61 C 0.59444 0.85213 0.03567 0.0
C62 C 0.56148 0.86961 0.08775 0.0
C63 C 0.60698 0.87247 0.07512 0.0
C64 C 0.5046 0.84595 0.06124 0.0
C65 C 0.49176 0.8248 0.02278 0.0
C66 C 0.53663 0.82728 0.00996 0.0
C67 C 0.63983 0.86059 0.02047 0.0
C68 C 0.79238 0.86086 0.96075 0.0
C69 C 0.6418 0.7963 0.88807 0.0
H70 H 1.01517 0.65206 0.88304 0.0
H71 H 0.93124 0.70105 0.95649 0.0
H72 H 0.81925 0.63789 0.83262 0.0
H73 H 0.65116 0.89121 0.0954 0.0
H74 H 0.46985 0.84278 0.0711 0.0
H75 H 0.52594 0.81108 0.97985 0.0
Eu76 Eu 0.20517 0.68219 0.48945 0.0
Eu77 Eu 0.2743 0.76692 0.44864 0.0
O78 O 0.20036 0.65256 0.5439 0.0
O79 O 0.13773 0.61927 0.48393 0.0
O80 O 0.34477 0.70581 0.49154 0.0
O81 O 0.28268 0.63306 0.48947 0.0
O82 O 0.15348 0.6755 0.42003 0.0
O83 O 0.23747 0.68878 0.4112 0.0
C84 C 0.10106 0.6263 0.53326 0.0
C85 C 1.00532 0.63244 0.55339 0.0
C86 C 0.99263 0.64214 0.51293 0.0
C87 C 0.04041 0.63992 0.50275 0.0
C88 C 0.06472 0.62013 0.58431 0.0
C89 C 0.11283 0.61623 0.57425 0.0
C90 C 0.15207 0.62164 0.5228 0.0
C91 C 0.33628 0.65283 0.49633 0.0
O92 O 0.27653 0.79634 0.39307 0.0
O93 O 0.34735 0.82205 0.45338 0.0
C94 C 0.1804 0.67248 0.39693 0.0
O95 O 0.18089 0.80566 0.42944 0.0
O96 O 0.15267 0.76203 0.47384 0.0
O97 O 0.28658 0.81151 0.5057 0.0
O98 O 0.27579 0.73574 0.54015 0.0
C99 C 0.37715 0.81194 0.40118 0.0
C100 C 0.41721 0.82692 0.35268 0.0
C101 C 0.37083 0.83536 0.36409 0.0
C102 C 0.46975 0.79648 0.37887 0.0
C103 C 0.4774 0.7742 0.4158 0.0
C104 C 0.4309 0.78102 0.42682 0.0
C105 C 0.32913 0.82192 0.41386 0.0
C106 C 0.14523 0.8006 0.44668 0.0
C107 C 0.29205 0.78772 0.53926 0.0
H108 H 0.96816 0.63514 0.56107 0.0
H109 H 0.03019 0.64826 0.47131 0.0
H110 H 0.15903 0.60607 0.5981 0.0
H111 H 0.33024 0.85965 0.34431 0.0
H112 H 0.50627 0.79096 0.3708 0.0
H113 H 0.43727 0.76353 0.45559 0.0
Eu114 Eu 0.7591 0.2075 0.53071 0.0
Eu115 Eu 0.83164 0.28181 0.48768 0.0
O116 O 0.75694 0.176 0.58573 0.0
O117 O 0.67842 0.16387 0.52527 0.0
O118 O 0.87705 0.19831 0.50201 0.0
O119 O 0.84298 0.15572 0.54376 0.0
O120 O 0.73913 0.1637 0.472 0.0
O121 O 0.74641 0.24052 0.4376 0.0
C122 C 0.65756 0.17437 0.58147 0.0
C123 C 0.5769 0.2012 0.61227 0.0
C124 C 0.57065 0.22855 0.57719 0.0
C125 C 0.61104 0.2152 0.5617 0.0
C126 C 0.62121 0.15957 0.63174 0.0
C127 C 0.66163 0.14589 0.61618 0.0
C128 C 0.69992 0.1591 0.56501 0.0
C129 C 0.87845 0.1577 0.52623 0.0
O130 O 0.84662 0.2953 0.43461 0.0
O131 O 0.89034 0.34995 0.48763 0.0
C132 C 0.72781 0.18915 0.43774 0.0
O133 O 0.76496 0.34033 0.49345 0.0
O134 O 0.69555 0.27581 0.49212 0.0
O135 O 0.89101 0.28322 0.55684 0.0
O136 O 0.81113 0.27966 0.57134 0.0
C137 C 0.93965 0.33891 0.4456 0.0
C138 C 0.98253 0.35188 0.39863 0.0
C139 C 0.93133 0.34646 0.40525 0.0
C140 C 0.0416 0.34868 0.43229 0.0
C141 C 0.05096 0.33936 0.47211 0.0
C142 C 1.0001 0.33482 0.4791 0.0
C143 C 0.88442 0.33679 0.45158 0.0
C144 C 0.7107 0.32735 0.48918 0.0
C145 C 0.86868 0.29135 0.58231 0.0
H146 H 0.54406 0.21009 0.62315 0.0
H147 H 0.60562 0.23586 0.53413 0.0
H148 H 0.69576 0.11327 0.63084 0.0
H149 H 0.88525 0.34871 0.37921 0.0
H150 H 0.0813 0.35127 0.42726 0.0
H151 H 1.00755 0.32771 0.51009 0.0
C152 C 0.61906 0.21866 0.95429 0.0
C153 C 0.59992 0.17514 0.97082 0.0
C154 C 0.68155 0.22687 0.96728 0.0
C155 C 0.72612 0.19143 -0.00299 0.0
C156 C 0.7072 0.15175 0.0165 0.0
C157 C 0.64449 0.14338 0.00333 0.0
C158 C 0.79215 0.19355 0.00752 0.0
C159 C 0.81169 0.2112 0.98109 0.0
C160 C 0.87807 0.21433 -0.00707 0.0
C161 C 0.89945 0.25971 0.97947 0.0
C162 C 0.96275 0.26975 -0.00328 0.0
C163 C 1.00526 0.23397 0.02714 0.0
H164 H 0.90576 0.13827 0.02918 0.0
C165 C 0.98399 0.18474 0.03652 0.0
C166 C 0.92087 0.17498 0.01961 0.0
H167 H 1.01607 0.15666 0.06003 0.0
H168 H 0.58533 0.24352 0.92901 0.0
H169 H 0.69441 0.25965 0.95289 0.0
H170 H 0.74071 0.12464 0.04009 0.0
H171 H 0.63079 0.10904 0.01608 0.0
H172 H 0.82564 0.17832 0.03777 0.0
H173 H 0.77886 0.22688 0.95087 0.0
H174 H 0.86725 0.29 0.95829 0.0
H175 H 0.97805 0.30832 -0.01056 0.0
C176 C 0.09146 0.65897 0.96778 0.0
C177 C 0.0416 0.6964 0.95433 0.0
C178 C 0.1511 0.67875 0.98143 0.0
C179 C 0.16176 0.73638 0.98187 0.0
C180 C 0.11316 0.77375 0.97352 0.0
C181 C 0.05328 0.7539 0.95956 0.0
C182 C 0.22145 0.75867 -0.01201 0.0
C183 C 0.25759 0.73105 0.97566 0.0
C184 C 0.31523 0.75512 0.97944 0.0
C185 C 0.36544 0.7198 -0.0122 0.0
C186 C 0.42286 0.74231 -0.00276 0.0
C187 C 0.43025 0.80036 -0.00237 0.0
H188 H 0.28305 0.84108 0.96784 0.0
C189 C 0.37856 0.83522 0.98508 0.0
C190 C 0.32149 0.81286 0.97598 0.0
H191 H 0.38352 0.88019 0.9856 0.0
H192 H 0.08339 0.61438 0.96396 0.0
H193 H 0.18802 0.64879 -0.01051 0.0
H194 H 0.12051 0.81841 0.97447 0.0
H195 H 1.01549 0.78352 0.94895 0.0
H196 H 0.23376 0.80061 0.00051 0.0
H197 H 0.24565 0.68906 0.96322 0.0
H198 H 0.36138 0.67505 -0.01016 0.0
H199 H 0.46241 0.71479 0.00755 0.0
C200 C 0.58972 0.78038 0.46004 0.0
C201 C 0.53688 0.74684 0.44242 0.0
C202 C 0.64718 0.75765 0.47 0.0
C203 C 0.6527 0.70086 0.46256 0.0
C204 C 0.60112 0.66606 0.44964 0.0
C205 C 0.54323 0.68906 0.43911 0.0
C206 C 0.71087 0.67812 0.46599 0.0
C207 C 0.74566 0.70777 0.45387 0.0
C208 C 0.80615 0.68841 0.45904 0.0
C209 C 0.85021 0.7285 0.46339 0.0
C210 C 0.91107 0.71257 0.47568 0.0
C211 C 0.92838 0.65624 0.48323 0.0
H212 H 0.78899 0.59926 0.45732 0.0
C213 C 0.88292 0.61567 0.47431 0.0
C214 C 0.82222 0.63154 0.4622 0.0
H215 H 0.89558 0.57198 0.4804 0.0
H216 H 0.58564 0.82516 0.46244 0.0
H217 H 0.68664 0.78511 0.48152 0.0
H218 H 0.60463 0.62191 0.44455 0.0
H219 H 0.50288 0.66263 0.42501 0.0
H220 H 0.72385 0.63592 0.4776 0.0
H221 H 0.73104 0.74967 0.44183 0.0
H222 H 0.83877 0.77257 0.4604 0.0
H223 H 0.94562 0.74459 0.48311 0.0
C224 C 0.14495 0.2816 0.50349 0.0
C225 C 0.11542 0.33144 0.50429 0.0
C226 C 0.20861 0.28028 0.51864 0.0
C227 C 0.24391 0.3287 0.53522 0.0
C228 C 0.21539 0.37674 0.54025 0.0
C229 C 0.1513 0.37838 0.52432 0.0
C230 C 0.30969 0.33003 0.54545 0.0
C231 C 0.32834 0.30833 0.51943 0.0
C232 C 0.39388 0.30085 0.52925 0.0
C233 C 0.4069 0.26384 0.50473 0.0
C234 C 0.46724 0.24571 0.51752 0.0
C235 C 0.5156 0.2645 0.55503 0.0
H236 H 0.4362 0.35543 0.58296 0.0
C237 C 0.5038 0.30682 0.57682 0.0
C238 C 0.44352 0.32501 0.56405 0.0
H239 H 0.54055 0.32199 0.60587 0.0
H240 H 0.11806 0.24527 0.48744 0.0
H241 H 0.22979 0.24216 0.51549 0.0
H242 H 0.24193 0.41429 0.5535 0.0
H243 H 0.12932 0.41764 0.52432 0.0
H244 H 0.34198 0.34944 0.57431 0.0
H245 H 0.29349 0.29116 0.49024 0.0
H246 H 0.3698 0.24534 0.47728 0.0
H247 H 0.47499 0.21274 0.50035 0.0
C248 C 0.5936 0.63079 0.98443 0.0
C249 C 0.64042 0.62467 0.97349 0.0
C250 C 0.5688 0.58406 -0.00667 0.0
C251 C 0.59044 0.53024 -0.00844 0.0
C252 C 0.63569 0.52398 0.97932 0.0
C253 C 0.66082 0.57075 0.97066 0.0
C254 C 0.56487 0.47981 0.00058 0.0
C255 C 0.54249 0.47996 0.02733 0.0
C256 C 0.51054 0.4314 0.03286 0.0
C257 C 0.46404 0.44116 0.04352 0.0
C258 C 0.42795 0.39724 0.04439 0.0
C259 C 0.43814 0.34257 0.03501 0.0
H260 H 0.56067 0.36687 0.01951 0.0
C261 C 0.48752 0.33225 0.02712 0.0
C262 C 0.52348 0.37625 0.02613 0.0
H263 H 0.49726 0.29056 0.02037 0.0
H264 H 0.57651 0.67165 -0.01337 0.0
H265 H 0.53219 0.59035 0.00105 0.0
H266 H 0.65233 0.48285 0.97711 0.0
H267 H 0.6966 0.56454 0.96207 0.0
H268 H 0.56406 0.44183 0.98417 0.0
H269 H 0.54367 0.5181 0.04371 0.0
H270 H 0.45383 0.4832 0.04943 0.0
H271 H 0.39075 0.40659 0.05109 0.0
C272 C 0.6112 0.35892 0.48387 0.0
C273 C 0.66708 0.37222 0.48482 0.0
C274 C 0.57325 0.40094 0.48521 0.0
C275 C 0.5905 0.45717 0.48764 0.0
C276 C 0.64426 0.47079 0.48597 0.0
C277 C 0.68261 0.42859 0.48487 0.0
C278 C 0.55277 0.50212 0.49164 0.0
C279 C 0.5214 0.49475 0.51254 0.0
C280 C 0.4784 0.53695 0.51335 0.0
C281 C 0.42672 0.51876 0.51607 0.0
C282 C 0.38135 0.55675 0.51216 0.0
C283 C 0.38748 0.61367 0.50602 0.0
H284 H 0.52702 0.60995 0.5093 0.0
C285 C 0.44137 0.63229 0.50619 0.0
C286 C 0.48648 0.59429 0.50985 0.0
H287 H 0.44798 0.67601 0.50211 0.0
H288 H 0.5973 0.31596 0.48317 0.0
H289 H 0.53062 0.38918 0.48456 0.0
H290 H 0.65767 0.51401 0.48697 0.0
H291 H 0.72513 0.44017 0.48526 0.0
H292 H 0.55103 0.54175 0.47698 0.0
H293 H 0.52394 0.45497 0.5273 0.0
H294 H 0.42009 0.47477 0.5194 0.0
H295 H 0.34071 0.54121 0.51268 0.0
C296 C 0.13631 0.10578 0.00818 0.0
C297 C 0.16382 0.10448 0.98257 0.0
C298 C 0.08094 0.07874 -0.00331 0.0
C299 C 0.05125 0.04978 0.95908 0.0
C300 C 0.07919 0.0472 0.9338 0.0
C301 C 0.13491 0.07471 0.94528 0.0
C302 C 0.9939 0.01831 0.94738 0.0
C303 C 0.95407 0.03173 0.96129 0.0
C304 C 0.90489 -0.00663 0.95726 0.0
C305 C 0.88866 -0.00801 -0.0112 0.0
C306 C 0.84976 0.95027 -0.01067 0.0
C307 C 0.82639 0.9096 0.95811 0.0
H308 H 0.88659 0.95693 0.89855 0.0
C309 C 0.83879 0.91388 0.92489 0.0
C310 C 0.87737 0.95548 0.92433 0.0
H311 H 0.81994 0.88417 0.89965 0.0
H312 H 0.15725 0.12806 0.0373 0.0
H313 H 0.06255 0.07975 0.01796 0.0
H314 H 0.05765 0.0242 0.90499 0.0
H315 H 0.15492 0.07304 0.9249 0.0
H316 H 0.98668 0.98113 0.92873 0.0
H317 H 0.96128 0.06907 0.9798 0.0
H318 H 0.90866 0.02139 0.01421 0.0
H319 H 0.84039 0.94842 0.01505 0.0
C320 C 0.96602 0.11629 0.52076 0.0
C321 C 0.91641 0.10906 0.52867 0.0
C322 C 0.99191 0.0706 0.51139 0.0
C323 C 0.9684 0.01688 0.5096 0.0
C324 C 0.92329 0.00887 0.52173 0.0
C325 C 0.89713 0.05484 0.53109 0.0
C326 C 0.98916 0.96922 0.49396 0.0
C327 C 1.00299 0.97508 0.46309 0.0
C328 C 0.02958 0.9292 0.44986 0.0
C329 C 0.07341 0.94179 0.43731 0.0
C330 C 0.10804 0.89914 0.43234 0.0
C331 C 0.09873 0.84357 0.43971 0.0
H332 H 0.9799 0.86207 0.46015 0.0
C333 C 0.05005 0.83073 0.44761 0.0
C334 C 1.01557 0.87319 0.45253 0.0
H335 H 0.04096 0.78795 0.45243 0.0
H336 H 0.98259 0.15765 0.51954 0.0
H337 H 0.02888 0.07766 0.50419 0.0
H338 H 0.90562 0.9675 0.52145 0.0
H339 H 0.85894 0.0482 0.53713 0.0
H340 H 0.99238 0.92874 0.50796 0.0
H341 H 0.99934 0.01582 0.44925 0.0
H342 H 0.08398 0.98479 0.43428 0.0
H343 H 0.14512 0.91006 0.42604 0.0
C344 C 0.69196 0.17727 0.36255 0.0
C345 C 0.68959 0.16066 0.39809 0.0
C346 C 0.65252 0.15339 0.32438 0.0
C347 C 0.60938 0.11279 0.32095 0.0
C348 C 0.60823 0.09508 0.35667 0.0
C349 C 0.64857 0.11824 0.39503 0.0
C350 C 0.55905 0.0959 0.28006 0.0
C351 C 0.56531 0.09576 0.24589 0.0
C352 C 0.51203 0.10337 0.20424 0.0
C353 C 0.51583 0.08504 0.16939 0.0
C354 C 0.47163 0.10196 0.12986 0.0
C355 C 0.4243 0.13888 0.12496 0.0
H356 H 0.45832 0.15338 0.2249 0.0
C357 C 0.41894 0.15508 0.15958 0.0
C358 C 0.46204 0.13723 0.19878 0.0
H359 H 0.38253 0.18323 0.1565 0.0
H360 H 0.72336 0.20966 0.36406 0.0
H361 H 0.65356 0.16924 0.29735 0.0
H362 H 0.5748 0.06453 0.3547 0.0
H363 H 0.64568 0.10467 0.42195 0.0
H364 H 0.51383 0.08944 0.2774 0.0
H365 H 0.61104 0.09689 0.24865 0.0
H366 H 0.55429 0.05945 0.17288 0.0
H367 H 0.47662 0.08897 0.10351 0.0
C368 C 0.52959 0.92687 0.13085 0.0
C369 C 0.57046 0.88729 0.12889 0.0
C370 C 0.5167 0.92716 0.1639 0.0
C371 C 0.54467 0.88777 0.19589 0.0
C372 C 0.59047 0.85245 0.19593 0.0
C373 C 0.60319 0.85213 0.16281 0.0
C374 C 0.52238 0.87655 0.22641 0.0
C375 C 0.47986 0.90694 0.2312 0.0
C376 C 0.45401 0.88752 0.25817 0.0
C377 C 0.44147 0.92574 0.28228 0.0
C378 C 0.42289 0.90682 0.31061 0.0
C379 C 0.41521 0.84945 0.31458 0.0
H380 H 0.44867 0.80024 0.24092 0.0
C381 C 0.42253 0.81198 0.28782 0.0
C382 C 0.44177 0.83067 0.26009 0.0
H383 H 0.41743 0.7675 0.29041 0.0
H384 H 0.5029 0.95388 0.10475 0.0
H385 H 0.48143 0.95539 0.16236 0.0
H386 H 0.61331 0.82188 0.22018 0.0
H387 H 0.6339 0.82046 0.16183 0.0
H388 H 0.54034 0.83906 0.24494 0.0
H389 H 0.4642 0.94692 0.21597 0.0
H390 H 0.44949 0.96991 0.28091 0.0
H391 H 0.41877 0.93653 0.33135 0.0
C392 C 0.36993 0.85571 0.5877 0.0
C393 C 0.32134 0.81856 0.57859 0.0
C394 C 0.4044 0.87693 0.62771 0.0
C395 C 0.38992 0.8619 0.6588 0.0
C396 C 0.33785 0.82902 0.64853 0.0
C397 C 0.30433 0.8069 0.60892 0.0
C398 C 0.43237 0.87291 0.70298 0.0
C399 C 0.49327 0.86422 0.71883 0.0
C400 C 0.53321 0.85106 0.76293 0.0
C401 C 0.57649 0.80788 0.77291 0.0
C402 C 0.61086 0.78976 0.8135 0.0
C403 C 0.60383 0.81543 0.84521 0.0
H404 H 0.4941 0.91158 0.78777 0.0
C405 C 0.5623 0.86031 0.8356 0.0
C406 C 0.52668 0.87765 0.79463 0.0
H407 H 0.5566 0.88129 0.85957 0.0
H408 H 0.38365 0.86557 0.56472 0.0
H409 H 0.44382 0.90307 0.63475 0.0
H410 H 0.32564 0.81712 0.67192 0.0
H411 H 0.26642 0.77899 0.60243 0.0
H412 H 0.41259 0.87577 0.72358 0.0
H413 H 0.51187 0.85536 0.69807 0.0
H414 H 0.58235 0.78681 0.74901 0.0
H415 H 0.64336 0.75581 0.82004 0.0
C416 C 0.49246 0.04633 0.83967 0.0
C417 C 0.4531 0.08768 0.84142 0.0
C418 C 0.50514 0.04428 0.8066 0.0
C419 C 0.47832 0.08357 0.77449 0.0
C420 C 0.43325 0.12023 0.77401 0.0
C421 C 0.4208 0.12235 0.80716 0.0
C422 C 0.50282 0.09449 0.7453 0.0
C423 C 0.54454 0.06269 0.74078 0.0
C424 C 0.57508 0.08392 0.71733 0.0
C425 C 0.58095 0.05026 0.68813 0.0
C426 C 0.60249 0.07317 0.66246 0.0
C427 C 0.6196 0.12969 0.66635 0.0
H428 H 0.5952 0.16533 0.74662 0.0
C429 C 0.6195 0.16139 0.69841 0.0
C430 C 0.59723 0.13892 0.72343 0.0
H431 H 0.63235 0.20506 0.70208 0.0
H432 H 0.51872 0.01968 0.86607 0.0
H433 H 0.53998 0.01525 0.80844 0.0
H434 H 0.41141 0.15076 0.7496 0.0
H435 H 0.39118 0.15523 0.80803 0.0
H436 H 0.48866 0.13363 0.72837 0.0
H437 H 0.5567 0.02127 0.7541 0.0
H438 H 0.56514 0.00742 0.68336 0.0
H439 H 0.60131 0.04802 0.63766 0.0
C440 C 0.16731 0.67219 0.32571 0.0
C441 C 0.14424 0.65837 0.35265 0.0
C442 C 0.12988 0.66819 0.28315 0.0
C443 C 0.06895 0.64952 0.26667 0.0
C444 C 0.04733 0.63137 0.29342 0.0
C445 C 0.08447 0.63636 0.33617 0.0
C446 C 0.026 0.65391 0.22196 0.0
C447 C 0.02216 0.70159 0.2018 0.0
C448 C 0.97325 0.7117 0.15923 0.0
C449 C 0.93804 0.76069 0.1507 0.0
C450 C 0.89061 0.77112 0.11093 0.0
C451 C 0.87935 0.73377 0.07879 0.0
H452 H 0.98928 0.63631 0.13313 0.0
C453 C 0.91583 0.68554 0.08691 0.0
C454 C 0.962 0.67406 0.12714 0.0
H455 H 0.90752 0.65615 0.06243 0.0
H456 H 0.21326 0.68894 0.3373 0.0
H457 H 0.14787 0.68153 0.26306 0.0
H458 H 1.00051 0.61652 0.28124 0.0
H459 H 0.06564 0.62493 0.35617 0.0
H460 H 0.99238 0.62104 0.20679 0.0
H461 H 0.05104 0.73681 0.21856 0.0
H462 H 0.94635 0.7903 0.17507 0.0
H463 H 0.86296 0.80861 0.10519 0.0
C464 C 1.01137 0.39815 0.34995 0.0
C465 C 0.97763 0.35665 0.35711 0.0
C466 C 0.02389 0.39361 0.31695 0.0
C467 C 1.00313 0.34708 0.29038 0.0
C468 C 0.96463 0.30837 0.29546 0.0
C469 C 0.9521 0.31299 0.32853 0.0
C470 C 0.02299 0.33519 0.25872 0.0
C471 C 0.07031 0.36055 0.25676 0.0
C472 C 0.09191 0.34271 0.2271 0.0
C473 C 0.11506 0.38236 0.21012 0.0
C474 C 0.13082 0.36678 0.17966 0.0
C475 C 0.12453 0.31107 0.16622 0.0
H476 H 0.07534 0.25427 0.22954 0.0
C477 C 0.10642 0.27082 0.18583 0.0
C478 C 0.09021 0.28639 0.2158 0.0
H479 H 0.10172 0.22745 0.17635 0.0
H480 H 0.03149 0.43238 0.37156 0.0
H481 H 0.05167 0.42567 0.31358 0.0
H482 H 0.9471 0.27249 0.2752 0.0
H483 H 0.92657 0.28011 0.33354 0.0
H484 H 0.99906 0.30165 0.23708 0.0
H485 H 0.09404 0.39537 0.27687 0.0
H486 H 0.11807 0.4259 0.21894 0.0
H487 H 0.14416 0.39871 0.16488 0.0
C488 C 0.14129 0.31129 0.88834 0.0
C489 C 0.20265 0.29584 0.90109 0.0
C490 C 0.10332 0.33011 0.84812 0.0
C491 C 0.12598 0.33335 0.81975 0.0
C492 C 0.18835 0.32144 0.83343 0.0
C493 C 0.22624 0.30272 0.87356 0.0
C494 C 0.08572 0.34502 0.77518 0.0
C495 C 0.02512 0.33323 0.75541 0.0
C496 C 0.98657 0.33177 0.70982 0.0
C497 C 0.92236 0.33148 0.69326 0.0
C498 C 0.88406 0.32104 0.65143 0.0
C499 C 0.90915 0.31026 0.6251 0.0
H500 H 0.06094 0.32241 0.69454 0.0
C501 C 0.97326 0.31335 0.64109 0.0
C502 C 1.01172 0.32379 0.68308 0.0
H503 H 0.99401 0.30515 0.6216 0.0
H504 H 0.12201 0.30746 0.90905 0.0
H505 H 0.0562 0.34114 0.83938 0.0
H506 H 0.20728 0.32421 0.81246 0.0
H507 H 0.27356 0.29199 0.88248 0.0
H508 H 0.10808 0.3583 0.75764 0.0
H509 H 1.0028 0.32002 0.77299 0.0
H510 H 0.9017 0.33735 0.71306 0.0
H511 H 0.83481 0.31944 0.64012 0.0
C512 C 0.06109 0.65898 0.6454 0.0
C513 C 0.07259 0.61287 0.62639 0.0
C514 C 0.04489 0.65142 0.67646 0.0
C515 C 0.03973 0.59742 0.68926 0.0
C516 C 0.05662 0.55155 0.67285 0.0
C517 C 0.07221 0.55913 0.64131 0.0
C518 C 1.01618 0.58815 0.71917 0.0
C519 C 0.97192 0.62084 0.72006 0.0
C520 C 0.9488 0.6168 0.75079 0.0
C521 C 0.90429 0.65576 0.74847 0.0
C522 C 0.88816 0.65986 0.77996 0.0
C523 C 0.91615 0.62496 0.81454 0.0
H524 H 1.00633 0.5474 0.78704 0.0
C525 C 0.9565 0.5828 0.8152 0.0
C526 C 0.97271 0.57868 0.78381 0.0
H527 H 0.97911 0.55553 0.84169 0.0
H528 H 0.06007 0.70078 0.63399 0.0
H529 H 0.03452 0.68789 0.68946 0.0
H530 H 0.05404 0.50953 0.6826 0.0
H531 H 0.07934 0.52283 0.62651 0.0
H532 H 0.03446 0.5525 0.73949 0.0
H533 H 0.95206 0.65389 0.6973 0.0
H534 H 0.88443 0.68543 0.72333 0.0
H535 H 0.85773 0.69329 0.77888 0.0
loop_
_geom_bond_atom_site_label_1
_geom_bond_atom_site_label_2
_geom_bond_distance
_geom_bond_site_symmetry_2
_ccdc_geom_bond_type
Eu0 O2 2.486 . S
Eu0 O3 2.515 1_556 S
Eu0 O5 2.326 1_556 S
Eu0 O6 2.376 1_556 S
Eu0 C14 2.848 . S
Eu0 O20 2.397 1_556 S
Eu0 O22 2.326 . S
Eu1 O4 2.395 . S
Eu1 O7 2.323 . S
Eu1 O16 2.472 . S
Eu1 O17 2.507 1_554 S
Eu1 O19 2.336 1_554 S
Eu1 O21 2.389 1_554 S
Eu1 C29 2.835 . S
O2 Eu0 2.486 . S
O2 C14 1.258 . S
O3 Eu0 2.515 1_554 S
O3 C14 1.246 1_554 S
O4 Eu1 2.395 . S
O4 C15 1.210 . S
O5 Eu0 2.326 1_554 S
O5 C15 1.279 . S
O6 Eu0 2.376 1_554 S
O6 C18 1.239 . S
O7 Eu1 2.323 . S
O7 C18 1.249 . S
C8 C11 1.390 . S
C8 C13 1.370 . S
C8 C14 1.489 . S
C9 C10 1.344 . S
C9 C12 1.413 . S
C9 H32 0.931 . S
C10 C9 1.344 . S
C10 C11 1.423 . S
C11 C8 1.390 . S
C11 C10 1.423 . S
C11 H33 0.930 1_556 S
C12 C9 1.413 . S
C12 C13 1.397 . S
C13 C8 1.370 . S
C13 C12 1.397 . S
C13 H34 0.932 . S
C14 Eu0 2.848 . S
C14 O2 1.258 . S
C14 O3 1.246 1_556 S
C14 C8 1.489 . S
C15 O4 1.210 . S
C15 O5 1.279 . S
O16 Eu1 2.472 . S
O16 C29 1.258 . S
O17 Eu1 2.507 1_556 S
O17 C29 1.246 1_556 S
C18 O6 1.239 . S
C18 O7 1.249 . S
O19 Eu1 2.336 1_556 S
O19 C30 1.279 1_556 S
O20 Eu0 2.397 1_554 S
O20 C30 1.216 . S
O21 Eu1 2.389 1_556 S
O21 C31 1.239 . S
O22 Eu0 2.326 . S
O22 C31 1.249 . S
C23 C25 1.370 . S
C23 C28 1.390 . S
C23 C29 1.489 . S
C24 C25 1.397 . S
C24 C26 1.413 . S
C25 C23 1.370 . S
C25 C24 1.397 . S
C25 H35 0.932 . S
C26 C24 1.413 . S
C26 C27 1.344 1_455 S
C26 H36 0.931 1_455 S
C27 C26 1.344 1_655 S
C27 C28 1.423 1_655 S
C28 C23 1.390 . S
C28 C27 1.423 1_455 S
C28 H37 0.931 1_454 S
C29 Eu1 2.835 . S
C29 O16 1.258 . S
C29 O17 1.246 1_554 S
C29 C23 1.489 . S
C30 O19 1.279 1_554 S
C30 O20 1.216 . S
C31 O21 1.239 . S
C31 O22 1.249 . S
H32 C9 0.931 . S
H33 C11 0.930 1_554 S
H34 C13 0.932 . S
H35 C25 0.932 . S
H36 C26 0.931 1_655 S
H37 C28 0.931 1_656 S
Eu38 O40 2.486 . S
Eu38 O41 2.515 1_556 S
Eu38 O43 2.326 1_556 S
Eu38 O44 2.376 1_556 S
Eu38 C52 2.848 . S
Eu38 O58 2.397 1_556 S
Eu38 O60 2.326 . S
Eu39 O42 2.395 . S
Eu39 O45 2.323 . S
Eu39 O54 2.472 . S
Eu39 O55 2.507 1_554 S
Eu39 O57 2.336 1_554 S
Eu39 O59 2.389 1_554 S
Eu39 C67 2.835 . S
O40 Eu38 2.486 . S
O40 C52 1.258 . S
O41 Eu38 2.515 1_554 S
O41 C52 1.246 1_554 S
O42 Eu39 2.395 . S
O42 C53 1.210 . S
O43 Eu38 2.326 1_554 S
O43 C53 1.279 . S
O44 Eu38 2.376 1_554 S
O44 C56 1.239 . S
O45 Eu39 2.323 . S
O45 C56 1.249 . S
C46 C49 1.390 . S
C46 C51 1.370 . S
C46 C52 1.489 . S
C47 C48 1.344 1_655 S
C47 C50 1.413 . S
C47 H70 0.931 1_655 S
C48 C47 1.344 1_455 S
C48 C49 1.423 1_455 S
C49 C46 1.390 . S
C49 C48 1.423 1_655 S
C49 H71 0.930 1_656 S
C50 C47 1.413 . S
C50 C51 1.397 . S
C51 C46 1.370 . S
C51 C50 1.397 . S
C51 H72 0.932 . S
C52 Eu38 2.848 . S
C52 O40 1.258 . S
C52 O41 1.246 1_556 S
C52 C46 1.489 . S
C53 O42 1.210 . S
C53 O43 1.279 . S
O54 Eu39 2.472 . S
O54 C67 1.258 . S
O55 Eu39 2.507 1_556 S
O55 C67 1.246 1_556 S
C56 O44 1.239 . S
C56 O45 1.249 . S
O57 Eu39 2.336 1_556 S
O57 C68 1.279 1_556 S
O58 Eu38 2.397 1_554 S
O58 C68 1.216 . S
O59 Eu39 2.389 1_556 S
O59 C69 1.239 . S
O60 Eu38 2.326 . S
O60 C69 1.249 . S
C61 C63 1.370 . S
C61 C66 1.390 . S
C61 C67 1.489 . S
C62 C63 1.397 . S
C62 C64 1.413 . S
C63 C61 1.370 . S
C63 C62 1.397 . S
C63 H73 0.932 . S
C64 C62 1.413 . S
C64 C65 1.344 . S
C64 H74 0.931 . S
C65 C64 1.344 . S
C65 C66 1.423 . S
C66 C61 1.390 . S
C66 C65 1.423 . S
C66 H75 0.931 1_554 S
C67 Eu39 2.835 . S
C67 O54 1.258 . S
C67 O55 1.246 1_554 S
C67 C61 1.489 . S
C68 O57 1.279 1_554 S
C68 O58 1.216 . S
C69 O59 1.239 . S
C69 O60 1.249 . S
H70 C47 0.931 1_455 S
H71 C49 0.930 1_454 S
H72 C51 0.932 . S
H73 C63 0.932 . S
H74 C64 0.931 . S
H75 C66 0.931 1_556 S
Eu76 O78 2.472 . S
Eu76 O79 2.507 . S
Eu76 O81 2.336 . S
Eu76 O82 2.389 . S
Eu76 C90 2.835 . S
Eu76 O96 2.396 . S
Eu76 O98 2.323 . S
Eu77 O80 2.396 . S
Eu77 O83 2.323 . S
Eu77 O92 2.472 . S
Eu77 O93 2.507 . S
Eu77 O95 2.336 . S
Eu77 O97 2.389 . S
Eu77 C105 2.835 . S
O78 Eu76 2.472 . S
O78 C90 1.258 . S
O79 Eu76 2.507 . S
O79 C90 1.246 . S
O80 Eu77 2.396 . S
O80 C91 1.216 . S
O81 Eu76 2.336 . S
O81 C91 1.279 . S
O82 Eu76 2.389 . S
O82 C94 1.239 . S
O83 Eu77 2.323 . S
O83 C94 1.249 . S
C84 C87 1.390 . S
C84 C89 1.370 . S
C84 C90 1.489 . S
C85 C86 1.344 1_455 S
C85 C88 1.413 . S
C85 H108 0.931 1_455 S
C86 C85 1.344 1_655 S
C86 C87 1.423 1_655 S
C87 C84 1.390 . S
C87 C86 1.423 1_455 S
C87 H109 0.930 1_455 S
C88 C85 1.413 . S
C88 C89 1.397 . S
C89 C84 1.370 . S
C89 C88 1.397 . S
C89 H110 0.932 . S
C90 Eu76 2.835 . S
C90 O78 1.258 . S
C90 O79 1.246 . S
C90 C84 1.489 . S
C91 O80 1.216 . S
C91 O81 1.279 . S
O92 Eu77 2.472 . S
O92 C105 1.258 . S
O93 Eu77 2.507 . S
O93 C105 1.246 . S
C94 O82 1.239 . S
C94 O83 1.249 . S
O95 Eu77 2.336 . S
O95 C106 1.279 . S
O96 Eu76 2.396 . S
O96 C106 1.216 . S
O97 Eu77 2.389 . S
O97 C107 1.239 . S
O98 Eu76 2.323 . S
O98 C107 1.249 . S
C99 C101 1.370 . S
C99 C104 1.390 . S
C99 C105 1.489 . S
C100 C101 1.397 . S
C100 C102 1.413 . S
C101 C99 1.370 . S
C101 C100 1.397 . S
C101 H111 0.932 . S
C102 C100 1.413 . S
C102 C103 1.344 . S
C102 H112 0.931 . S
C103 C102 1.344 . S
C103 C104 1.423 . S
C104 C99 1.390 . S
C104 C103 1.423 . S
C104 H113 0.930 . S
C105 Eu77 2.835 . S
C105 O92 1.258 . S
C105 O93 1.246 . S
C105 C99 1.489 . S
C106 O95 1.279 . S
C106 O96 1.216 . S
C107 O97 1.239 . S
C107 O98 1.249 . S
H108 C85 0.931 1_655 S
H109 C87 0.930 1_655 S
H110 C89 0.932 . S
H111 C101 0.932 . S
H112 C102 0.931 . S
H113 C104 0.930 . S
Eu114 O116 2.472 . S
Eu114 O117 2.507 . S
Eu114 O119 2.336 . S
Eu114 O120 2.389 . S
Eu114 C128 2.835 . S
Eu114 O134 2.396 . S
Eu114 O136 2.323 . S
Eu115 O118 2.396 . S
Eu115 O121 2.323 . S
Eu115 O130 2.472 . S
Eu115 O131 2.507 . S
Eu115 O133 2.336 . S
Eu115 O135 2.389 . S
Eu115 C143 2.835 . S
O116 Eu114 2.472 . S
O116 C128 1.258 . S
O117 Eu114 2.507 . S
O117 C128 1.246 . S
O118 Eu115 2.396 . S
O118 C129 1.216 . S
O119 Eu114 2.336 . S
O119 C129 1.279 . S
O120 Eu114 2.389 . S
O120 C132 1.239 . S
O121 Eu115 2.323 . S
O121 C132 1.249 . S
C122 C125 1.390 . S
C122 C127 1.370 . S
C122 C128 1.489 . S
C123 C124 1.344 . S
C123 C126 1.413 . S
C123 H146 0.931 . S
C124 C123 1.344 . S
C124 C125 1.423 . S
C125 C122 1.390 . S
C125 C124 1.423 . S
C125 H147 0.930 . S
C126 C123 1.413 . S
C126 C127 1.397 . S
C127 C122 1.370 . S
C127 C126 1.397 . S
C127 H148 0.932 . S
C128 Eu114 2.835 . S
C128 O116 1.258 . S
C128 O117 1.246 . S
C128 C122 1.489 . S
C129 O118 1.216 . S
C129 O119 1.279 . S
O130 Eu115 2.472 . S
O130 C143 1.258 . S
O131 Eu115 2.507 . S
O131 C143 1.246 . S
C132 O120 1.239 . S
C132 O121 1.249 . S
O133 Eu115 2.336 . S
O133 C144 1.279 . S
O134 Eu114 2.396 . S
O134 C144 1.216 . S
O135 Eu115 2.389 . S
O135 C145 1.239 . S
O136 Eu114 2.323 . S
O136 C145 1.249 . S
C137 C139 1.370 . S
C137 C142 1.390 . S
C137 C143 1.489 . S
C138 C139 1.397 . S
C138 C140 1.413 . S
C139 C137 1.370 . S
C139 C138 1.397 . S
C139 H149 0.932 . S
C140 C138 1.413 . S
C140 C141 1.344 1_655 S
C140 H150 0.931 1_655 S
C141 C140 1.344 1_455 S
C141 C142 1.423 1_455 S
C142 C137 1.390 . S
C142 C141 1.423 1_655 S
C142 H151 0.930 1_655 S
C143 Eu115 2.835 . S
C143 O130 1.258 . S
C143 O131 1.246 . S
C143 C137 1.489 . S
C144 O133 1.279 . S
C144 O134 1.216 . S
C145 O135 1.239 . S
C145 O136 1.249 . S
H146 C123 0.931 . S
H147 C125 0.930 . S
H148 C127 0.932 . S
H149 C139 0.932 . S
H150 C140 0.931 1_455 S
H151 C142 0.930 1_455 S
C152 C153 1.386 . S
C152 C154 1.383 . S
C152 H168 0.951 . S
C153 C152 1.386 . S
C153 C157 1.388 . S
C154 C152 1.383 . S
C154 C155 1.402 1_556 S
C154 H169 0.951 . S
C155 C154 1.402 1_554 S
C155 C156 1.375 . S
C155 C158 1.481 . S
C156 C155 1.375 . S
C156 C157 1.376 1_554 S
C156 H170 0.951 . S
C157 C153 1.388 . S
C157 C156 1.376 1_556 S
C157 H171 0.937 1_556 S
C158 C155 1.481 . S
C158 C159 1.297 . S
C158 H172 0.950 . S
C159 C158 1.297 . S
C159 C160 1.479 . S
C159 H173 0.950 . S
C160 C159 1.479 . S
C160 C161 1.375 . S
C160 C166 1.404 . S
C161 C160 1.375 . S
C161 C162 1.369 . S
C161 H174 0.950 1_554 S
C162 C161 1.369 . S
C162 C163 1.392 . S
C162 H175 0.951 . S
C163 C162 1.392 . S
C163 C165 1.384 . S
H164 C166 0.949 . S
C165 C163 1.384 . S
C165 C166 1.385 . S
C165 H167 0.950 . S
C166 C160 1.404 . S
C166 H164 0.949 . S
C166 C165 1.385 . S
H167 C165 0.950 . S
H168 C152 0.951 . S
H169 C154 0.951 . S
H170 C156 0.951 . S
H171 C157 0.937 1_554 S
H172 C158 0.950 . S
H173 C159 0.950 . S
H174 C161 0.950 1_556 S
H175 C162 0.951 . S
C176 C177 1.386 . S
C176 C178 1.383 . S
C176 H192 0.951 . S
C177 C176 1.386 . S
C177 C181 1.383 . S
C178 C176 1.383 . S
C178 C179 1.402 . S
C178 H193 0.951 . S
C179 C178 1.402 . S
C179 C180 1.375 . S
C179 C182 1.481 . S
C180 C179 1.375 . S
C180 C181 1.367 . S
C180 H194 0.951 . S
C181 C177 1.383 . S
C181 C180 1.367 . S
C181 H195 0.950 . S
C182 C179 1.481 . S
C182 C183 1.297 . S
C182 H196 0.950 1_556 S
C183 C182 1.297 . S
C183 C184 1.479 . S
C183 H197 0.950 . S
C184 C183 1.479 . S
C184 C185 1.375 . S
C184 C190 1.404 1_556 S
C185 C184 1.375 . S
C185 C186 1.369 1_556 S
C185 H198 0.950 . S
C186 C185 1.369 1_554 S
C186 C187 1.392 . S
C186 H199 0.951 . S
C187 C186 1.392 . S
C187 C189 1.384 . S
H188 C190 0.949 . S
C189 C187 1.384 . S
C189 C190 1.385 . S
C189 H191 0.950 . S
C190 C184 1.404 1_554 S
C190 H188 0.949 . S
C190 C189 1.385 . S
H191 C189 0.950 . S
H192 C176 0.951 . S
H193 C178 0.951 . S
H194 C180 0.951 . S
H195 C181 0.950 . S
H196 C182 0.950 1_554 S
H197 C183 0.950 . S
H198 C185 0.950 . S
H199 C186 0.951 . S
C200 C201 1.386 . S
C200 C202 1.383 . S
C200 H216 0.951 . S
C201 C200 1.386 . S
C201 C205 1.383 . S
C202 C200 1.383 . S
C202 C203 1.402 . S
C202 H217 0.951 . S
C203 C202 1.402 . S
C203 C204 1.375 . S
C203 C206 1.481 . S
C204 C203 1.375 . S
C204 C205 1.367 . S
C204 H218 0.951 . S
C205 C201 1.383 . S
C205 C204 1.367 . S
C205 H219 0.950 . S
C206 C203 1.481 . S
C206 C207 1.297 . S
C206 H220 0.950 . S
C207 C206 1.297 . S
C207 C208 1.479 . S
C207 H221 0.950 . S
C208 C207 1.479 . S
C208 C209 1.375 . S
C208 C214 1.404 . S
C209 C208 1.375 . S
C209 C210 1.369 . S
C209 H222 0.950 . S
C210 C209 1.369 . S
C210 C211 1.392 . S
C210 H223 0.951 . S
C211 C210 1.392 . S
C211 C213 1.384 . S
H212 C214 0.949 . S
C213 C211 1.384 . S
C213 C214 1.385 . S
C213 H215 0.950 . S
C214 C208 1.404 . S
C214 H212 0.949 . S
C214 C213 1.385 . S
H215 C213 0.950 . S
H216 C200 0.951 . S
H217 C202 0.951 . S
H218 C204 0.951 . S
H219 C205 0.950 . S
H220 C206 0.950 . S
H221 C207 0.950 . S
H222 C209 0.950 . S
H223 C210 0.951 . S
C224 C225 1.386 . S
C224 C226 1.383 . S
C224 H240 0.951 . S
C225 C224 1.386 . S
C225 C229 1.383 . S
C226 C224 1.383 . S
C226 C227 1.402 . S
C226 H241 0.951 . S
C227 C226 1.402 . S
C227 C228 1.375 . S
C227 C230 1.481 . S
C228 C227 1.375 . S
C228 C229 1.367 . S
C228 H242 0.951 . S
C229 C225 1.383 . S
C229 C228 1.367 . S
C229 H243 0.950 . S
C230 C227 1.481 . S
C230 C231 1.297 . S
C230 H244 0.950 . S
C231 C230 1.297 . S
C231 C232 1.479 . S
C231 H245 0.950 . S
C232 C231 1.479 . S
C232 C233 1.375 . S
C232 C238 1.404 . S
C233 C232 1.375 . S
C233 C234 1.369 . S
C233 H246 0.950 . S
C234 C233 1.369 . S
C234 C235 1.392 . S
C234 H247 0.951 . S
C235 C234 1.392 . S
C235 C237 1.384 . S
H236 C238 0.949 . S
C237 C235 1.384 . S
C237 C238 1.385 . S
C237 H239 0.950 . S
C238 C232 1.404 . S
C238 H236 0.949 . S
C238 C237 1.385 . S
H239 C237 0.950 . S
H240 C224 0.951 . S
H241 C226 0.951 . S
H242 C228 0.951 . S
H243 C229 0.950 . S
H244 C230 0.950 . S
H245 C231 0.950 . S
H246 C233 0.950 . S
H247 C234 0.951 . S
C248 C249 1.386 1_554 S
C248 C250 1.383 . S
C248 H264 0.951 . S
C249 C248 1.386 1_556 S
C249 C253 1.383 . S
C250 C248 1.383 . S
C250 C251 1.402 1_554 S
C250 H265 0.951 . S
C251 C250 1.402 1_556 S
C251 C252 1.375 . S
C251 C254 1.481 . S
C252 C251 1.375 . S
C252 C253 1.367 . S
C252 H266 0.951 . S
C253 C249 1.383 . S
C253 C252 1.367 . S
C253 H267 0.950 . S
C254 C251 1.481 . S
C254 C255 1.297 . S
C254 H268 0.950 . S
C255 C254 1.297 . S
C255 C256 1.479 . S
C255 H269 0.950 1_556 S
C256 C255 1.479 . S
C256 C257 1.375 1_556 S
C256 C262 1.404 . S
C257 C256 1.375 1_554 S
C257 C258 1.369 . S
C257 H270 0.950 . S
C258 C257 1.369 . S
C258 C259 1.392 . S
C258 H271 0.951 . S
C259 C258 1.392 . S
C259 C261 1.384 1_554 S
H260 C262 0.949 . S
C261 C259 1.384 1_556 S
C261 C262 1.385 . S
C261 H263 0.950 . S
C262 C256 1.404 . S
C262 H260 0.949 . S
C262 C261 1.385 . S
H263 C261 0.950 . S
H264 C248 0.951 . S
H265 C250 0.951 . S
H266 C252 0.951 . S
H267 C253 0.950 . S
H268 C254 0.950 . S
H269 C255 0.950 1_554 S
H270 C257 0.950 . S
H271 C258 0.951 . S
C272 C273 1.386 . S
C272 C274 1.383 . S
C272 H288 0.951 . S
C273 C272 1.386 . S
C273 C277 1.383 . S
C274 C272 1.383 . S
C274 C275 1.402 . S
C274 H289 0.951 . S
C275 C274 1.402 . S
C275 C276 1.375 . S
C275 C278 1.481 . S
C276 C275 1.375 . S
C276 C277 1.367 . S
C276 H290 0.951 . S
C277 C273 1.383 . S
C277 C276 1.367 . S
C277 H291 0.950 . S
C278 C275 1.481 . S
C278 C279 1.297 . S
C278 H292 0.950 . S
C279 C278 1.297 . S
C279 C280 1.479 . S
C279 H293 0.950 . S
C280 C279 1.479 . S
C280 C281 1.375 . S
C280 C286 1.404 . S
C281 C280 1.375 . S
C281 C282 1.369 . S
C281 H294 0.950 . S
C282 C281 1.369 . S
C282 C283 1.392 . S
C282 H295 0.951 . S
C283 C282 1.392 . S
C283 C285 1.384 . S
H284 C286 0.949 . S
C285 C283 1.384 . S
C285 C286 1.385 . S
C285 H287 0.950 . S
C286 C280 1.404 . S
C286 H284 0.949 . S
C286 C285 1.385 . S
H287 C285 0.950 . S
H288 C272 0.951 . S
H289 C274 0.951 . S
H290 C276 0.951 . S
H291 C277 0.950 . S
H292 C278 0.950 . S
H293 C279 0.950 . S
H294 C281 0.950 . S
H295 C282 0.951 . S
C296 C297 1.384 . S
C296 C298 1.383 . S
C296 H312 0.951 . S
C297 C296 1.384 . S
C297 C301 1.382 1_554 S
C298 C296 1.383 . S
C298 C299 1.402 . S
C298 H313 0.951 1_545 S
C299 C298 1.402 . S
C299 C300 1.375 1_554 S
C299 C302 1.481 . S
C300 C299 1.375 1_556 S
C300 C301 1.367 . S
C300 H314 0.951 . S
C301 C297 1.382 1_556 S
C301 C300 1.367 . S
C301 H315 0.950 . S
C302 C299 1.481 . S
C302 C303 1.297 1_545 S
C302 H316 0.950 1_454 S
C303 C302 1.297 1_565 S
C303 C304 1.479 1_455 S
C303 H317 0.950 . S
C304 C303 1.479 1_655 S
C304 C305 1.375 . S
C304 C310 1.404 . S
C305 C304 1.375 . S
C305 C306 1.369 . S
C305 H318 0.950 1_655 S
C306 C305 1.369 . S
C306 C307 1.392 . S
C306 H319 0.951 . S
C307 C306 1.392 . S
C307 C309 1.377 1_554 S
H308 C310 0.949 1_546 S
C309 C307 1.377 1_556 S
C309 C310 1.398 1_556 S
C309 H311 0.946 . S
C310 C304 1.404 . S
C310 H308 0.949 1_564 S
C310 C309 1.398 1_554 S
H311 C309 0.946 . S
H312 C296 0.951 . S
H313 C298 0.951 1_565 S
H314 C300 0.951 . S
H315 C301 0.950 . S
H316 C302 0.950 1_656 S
H317 C303 0.950 . S
H318 C305 0.950 1_455 S
H319 C306 0.951 . S
C320 C321 1.386 . S
C320 C322 1.383 . S
C320 H336 0.951 . S
C321 C320 1.386 . S
C321 C325 1.383 . S
C322 C320 1.383 . S
C322 C323 1.402 . S
C322 H337 0.951 . S
C323 C322 1.402 . S
C323 C324 1.375 . S
C323 C326 1.481 1_545 S
C324 C323 1.375 . S
C324 C325 1.367 . S
C324 H338 0.951 1_545 S
C325 C321 1.383 . S
C325 C324 1.367 . S
C325 H339 0.950 . S
C326 C323 1.481 1_565 S
C326 C327 1.297 1_665 S
C326 H340 0.950 . S
C327 C326 1.297 1_445 S
C327 C328 1.479 1_545 S
C327 H341 0.950 . S
C328 C327 1.479 1_565 S
C328 C329 1.375 . S
C328 C334 1.404 . S
C329 C328 1.375 . S
C329 C330 1.369 . S
C329 H342 0.950 1_565 S
C330 C329 1.369 . S
C330 C331 1.392 . S
C330 H343 0.951 . S
C331 C330 1.392 . S
C331 C333 1.384 . S
H332 C334 0.949 . S
C333 C331 1.384 . S
C333 C334 1.385 . S
C333 H335 0.950 . S
C334 C328 1.404 . S
C334 H332 0.949 . S
C334 C333 1.385 . S
H335 C333 0.950 . S
H336 C320 0.951 . S
H337 C322 0.951 . S
H338 C324 0.951 1_565 S
H339 C325 0.950 . S
H340 C326 0.950 . S
H341 C327 0.950 . S
H342 C329 0.950 1_545 S
H343 C330 0.951 . S
C344 C345 1.386 . S
C344 C346 1.383 . S
C344 H360 0.951 . S
C345 C344 1.386 . S
C345 C349 1.383 . S
C346 C344 1.383 . S
C346 C347 1.402 . S
C346 H361 0.951 . S
C347 C346 1.402 . S
C347 C348 1.375 . S
C347 C350 1.481 . S
C348 C347 1.375 . S
C348 C349 1.367 . S
C348 H362 0.951 . S
C349 C345 1.383 . S
C349 C348 1.367 . S
C349 H363 0.950 . S
C350 C347 1.481 . S
C350 C351 1.297 . S
C350 H364 0.950 . S
C351 C350 1.297 . S
C351 C352 1.479 . S
C351 H365 0.950 . S
C352 C351 1.479 . S
C352 C353 1.375 . S
C352 C358 1.404 . S
C353 C352 1.375 . S
C353 C354 1.369 . S
C353 H366 0.950 . S
C354 C353 1.369 . S
C354 C355 1.392 . S
C354 H367 0.951 . S
C355 C354 1.392 . S
C355 C357 1.384 . S
H356 C358 0.949 . S
C357 C355 1.384 . S
C357 C358 1.385 . S
C357 H359 0.950 . S
C358 C352 1.404 . S
C358 H356 0.949 . S
C358 C357 1.385 . S
H359 C357 0.950 . S
H360 C344 0.951 . S
H361 C346 0.951 . S
H362 C348 0.951 . S
H363 C349 0.950 . S
H364 C350 0.950 . S
H365 C351 0.950 . S
H366 C353 0.950 . S
H367 C354 0.951 . S
C368 C369 1.386 . S
C368 C370 1.383 . S
C368 H384 0.951 . S
C369 C368 1.386 . S
C369 C373 1.383 . S
C370 C368 1.383 . S
C370 C371 1.402 . S
C370 H385 0.951 . S
C371 C370 1.402 . S
C371 C372 1.375 . S
C371 C374 1.481 . S
C372 C371 1.375 . S
C372 C373 1.367 . S
C372 H386 0.951 . S
C373 C369 1.383 . S
C373 C372 1.367 . S
C373 H387 0.950 . S
C374 C371 1.481 . S
C374 C375 1.297 . S
C374 H388 0.950 . S
C375 C374 1.297 . S
C375 C376 1.479 . S
C375 H389 0.950 . S
C376 C375 1.479 . S
C376 C377 1.375 . S
C376 C382 1.404 . S
C377 C376 1.375 . S
C377 C378 1.369 . S
C377 H390 0.950 . S
C378 C377 1.369 . S
C378 C379 1.392 . S
C378 H391 0.951 . S
C379 C378 1.392 . S
C379 C381 1.384 . S
H380 C382 0.949 . S
C381 C379 1.384 . S
C381 C382 1.385 . S
C381 H383 0.950 . S
C382 C376 1.404 . S
C382 H380 0.949 . S
C382 C381 1.385 . S
H383 C381 0.950 . S
H384 C368 0.951 . S
H385 C370 0.951 . S
H386 C372 0.951 . S
H387 C373 0.950 . S
H388 C374 0.950 . S
H389 C375 0.950 . S
H390 C377 0.950 . S
H391 C378 0.951 . S
C392 C393 1.386 . S
C392 C394 1.383 . S
C392 H408 0.951 . S
C393 C392 1.386 . S
C393 C397 1.383 . S
C394 C392 1.383 . S
C394 C395 1.402 . S
C394 H409 0.951 . S
C395 C394 1.402 . S
C395 C396 1.375 . S
C395 C398 1.481 . S
C396 C395 1.375 . S
C396 C397 1.367 . S
C396 H410 0.951 . S
C397 C393 1.383 . S
C397 C396 1.367 . S
C397 H411 0.950 . S
C398 C395 1.481 . S
C398 C399 1.297 . S
C398 H412 0.950 . S
C399 C398 1.297 . S
C399 C400 1.479 . S
C399 H413 0.950 . S
C400 C399 1.479 . S
C400 C401 1.375 . S
C400 C406 1.404 . S
C401 C400 1.375 . S
C401 C402 1.369 . S
C401 H414 0.950 . S
C402 C401 1.369 . S
C402 C403 1.392 . S
C402 H415 0.951 . S
C403 C402 1.392 . S
C403 C405 1.384 . S
H404 C406 0.949 . S
C405 C403 1.384 . S
C405 C406 1.385 . S
C405 H407 0.950 . S
C406 C400 1.404 . S
C406 H404 0.949 . S
C406 C405 1.385 . S
H407 C405 0.950 . S
H408 C392 0.951 . S
H409 C394 0.951 . S
H410 C396 0.951 . S
H411 C397 0.950 . S
H412 C398 0.950 . S
H413 C399 0.950 . S
H414 C401 0.950 . S
H415 C402 0.951 . S
C416 C417 1.386 . S
C416 C418 1.383 . S
C416 H432 0.951 . S
C417 C416 1.386 . S
C417 C421 1.383 . S
C418 C416 1.383 . S
C418 C419 1.402 . S
C418 H433 0.951 . S
C419 C418 1.402 . S
C419 C420 1.375 . S
C419 C422 1.481 . S
C420 C419 1.375 . S
C420 C421 1.367 . S
C420 H434 0.951 . S
C421 C417 1.383 . S
C421 C420 1.367 . S
C421 H435 0.950 . S
C422 C419 1.481 . S
C422 C423 1.297 . S
C422 H436 0.950 . S
C423 C422 1.297 . S
C423 C424 1.479 . S
C423 H437 0.950 . S
C424 C423 1.479 . S
C424 C425 1.375 . S
C424 C430 1.404 . S
C425 C424 1.375 . S
C425 C426 1.369 . S
C425 H438 0.950 . S
C426 C425 1.369 . S
C426 C427 1.392 . S
C426 H439 0.951 . S
C427 C426 1.392 . S
C427 C429 1.384 . S
H428 C430 0.949 . S
C429 C427 1.384 . S
C429 C430 1.385 . S
C429 H431 0.950 . S
C430 C424 1.404 . S
C430 H428 0.949 . S
C430 C429 1.385 . S
H431 C429 0.950 . S
H432 C416 0.951 . S
H433 C418 0.951 . S
H434 C420 0.951 . S
H435 C421 0.950 . S
H436 C422 0.950 . S
H437 C423 0.950 . S
H438 C425 0.950 . S
H439 C426 0.951 . S
C440 C441 1.386 . S
C440 C442 1.383 . S
C440 H456 0.951 . S
C441 C440 1.386 . S
C441 C445 1.383 . S
C442 C440 1.383 . S
C442 C443 1.402 . S
C442 H457 0.951 . S
C443 C442 1.402 . S
C443 C444 1.375 . S
C443 C446 1.481 . S
C444 C443 1.375 . S
C444 C445 1.367 . S
C444 H458 0.951 . S
C445 C441 1.383 . S
C445 C444 1.367 . S
C445 H459 0.950 . S
C446 C443 1.481 . S
C446 C447 1.297 . S
C446 H460 0.950 . S
C447 C446 1.297 . S
C447 C448 1.479 1_455 S
C447 H461 0.950 . S
C448 C447 1.479 1_655 S
C448 C449 1.375 . S
C448 C454 1.404 . S
C449 C448 1.375 . S
C449 C450 1.369 . S
C449 H462 0.950 . S
C450 C449 1.369 . S
C450 C451 1.392 . S
C450 H463 0.951 . S
C451 C450 1.392 . S
C451 C453 1.384 . S
H452 C454 0.949 . S
C453 C451 1.384 . S
C453 C454 1.385 . S
C453 H455 0.950 . S
C454 C448 1.404 . S
C454 H452 0.949 . S
C454 C453 1.385 . S
H455 C453 0.950 . S
H456 C440 0.951 . S
H457 C442 0.951 . S
H458 C444 0.951 . S
H459 C445 0.950 . S
H460 C446 0.950 . S
H461 C447 0.950 . S
H462 C449 0.950 . S
H463 C450 0.951 . S
C464 C465 1.386 . S
C464 C466 1.383 . S
C464 H480 0.951 . S
C465 C464 1.386 . S
C465 C469 1.383 . S
C466 C464 1.383 . S
C466 C467 1.402 . S
C466 H481 0.951 . S
C467 C466 1.402 . S
C467 C468 1.375 1_655 S
C467 C470 1.481 1_655 S
C468 C467 1.375 1_455 S
C468 C469 1.367 1_455 S
C468 H482 0.951 . S
C469 C465 1.383 . S
C469 C468 1.367 1_655 S
C469 H483 0.950 1_655 S
C470 C467 1.481 1_455 S
C470 C471 1.297 . S
C470 H484 0.950 . S
C471 C470 1.297 . S
C471 C472 1.479 . S
C471 H485 0.950 1_455 S
C472 C471 1.479 . S
C472 C473 1.375 1_455 S
C472 C478 1.404 . S
C473 C472 1.375 1_655 S
C473 C474 1.369 1_655 S
C473 H486 0.950 . S
C474 C473 1.369 1_455 S
C474 C475 1.392 . S
C474 H487 0.951 1_455 S
C475 C474 1.392 . S
C475 C477 1.384 . S
H476 C478 0.949 . S
C477 C475 1.384 . S
C477 C478 1.385 . S
C477 H479 0.950 . S
C478 C472 1.404 . S
C478 H476 0.949 . S
C478 C477 1.385 . S
H479 C477 0.950 . S
H480 C464 0.951 . S
H481 C466 0.951 . S
H482 C468 0.951 . S
H483 C469 0.950 1_455 S
H484 C470 0.950 . S
H485 C471 0.950 1_655 S
H486 C473 0.950 . S
H487 C474 0.951 1_655 S
C488 C489 1.386 . S
C488 C490 1.383 . S
C488 H504 0.951 . S
C489 C488 1.386 . S
C489 C493 1.383 . S
C490 C488 1.383 . S
C490 C491 1.402 . S
C490 H505 0.951 . S
C491 C490 1.402 . S
C491 C492 1.375 . S
C491 C494 1.481 . S
C492 C491 1.375 . S
C492 C493 1.367 . S
C492 H506 0.951 . S
C493 C489 1.383 . S
C493 C492 1.367 . S
C493 H507 0.950 . S
C494 C491 1.481 . S
C494 C495 1.297 1_455 S
C494 H508 0.950 . S
C495 C494 1.297 1_655 S
C495 C496 1.479 . S
C495 H509 0.950 . S
C496 C495 1.479 . S
C496 C497 1.375 . S
C496 C502 1.404 . S
C497 C496 1.375 . S
C497 C498 1.369 . S
C497 H510 0.950 . S
C498 C497 1.369 . S
C498 C499 1.392 . S
C498 H511 0.951 . S
C499 C498 1.392 . S
C499 C501 1.384 . S
H500 C502 0.949 . S
C501 C499 1.384 . S
C501 C502 1.385 . S
C501 H503 0.950 . S
C502 C496 1.404 . S
C502 H500 0.949 . S
C502 C501 1.385 . S
H503 C501 0.950 . S
H504 C488 0.951 . S
H505 C490 0.951 . S
H506 C492 0.951 . S
H507 C493 0.950 . S
H508 C494 0.950 . S
H509 C495 0.950 . S
H510 C497 0.950 . S
H511 C498 0.951 . S
C512 C513 1.386 . S
C512 C514 1.383 . S
C512 H528 0.951 . S
C513 C512 1.386 . S
C513 C517 1.383 . S
C514 C512 1.383 . S
C514 C515 1.402 . S
C514 H529 0.951 . S
C515 C514 1.402 . S
C515 C516 1.375 . S
C515 C518 1.481 1_455 S
C516 C515 1.375 . S
C516 C517 1.367 . S
C516 H530 0.951 . S
C517 C513 1.383 . S
C517 C516 1.367 . S
C517 H531 0.950 . S
C518 C515 1.481 1_655 S
C518 C519 1.297 . S
C518 H532 0.950 . S
C519 C518 1.297 . S
C519 C520 1.479 . S
C519 H533 0.950 . S
C520 C519 1.479 . S
C520 C521 1.375 . S
C520 C526 1.404 . S
C521 C520 1.375 . S
C521 C522 1.369 . S
C521 H534 0.950 . S
C522 C521 1.369 . S
C522 C523 1.392 . S
C522 H535 0.951 . S
C523 C522 1.392 . S
C523 C525 1.384 . S
H524 C526 0.949 . S
C525 C523 1.384 . S
C525 C526 1.385 . S
C525 H527 0.950 . S
C526 C520 1.404 . S
C526 H524 0.949 . S
C526 C525 1.385 . S
H527 C525 0.950 . S
H528 C512 0.951 . S
H529 C514 0.951 . S
H530 C516 0.951 . S
H531 C517 0.950 . S
H532 C518 0.950 . S
H533 C519 0.950 . S
H534 C521 0.950 . S
H535 C522 0.951 . S
C153 C10 0.817 . S
C163 C27 0.737 . S
C177 C48 0.705 . S
C187 C65 0.845 . S
C201 C103 0.774 . S
C211 C86 0.663 . S
C225 C141 0.782 . S
C235 C124 0.822 . S
C249 C53 1.636 1_556 S
C259 C30 1.634 . S
C273 C144 1.623 . S
C283 C91 1.651 . S
C297 C15 1.596 . S
C307 C68 1.649 . S
C321 C129 1.646 . S
C331 C106 1.608 . S
C345 C132 0.715 . S
C355 C18 0.788 . S
C369 C62 1.908 . S
C379 C100 1.973 . S
C393 C107 0.781 . S
C403 C69 0.773 . S
C417 C12 1.952 . S
C427 C126 1.873 . S
C441 C94 0.787 . S
C451 C56 0.692 . S
C465 C138 1.905 . S
C475 C24 1.946 . S
C489 C31 0.759 . S
C499 C145 0.807 . S
C513 C88 1.921 . S
C523 C50 1.980 . S
