# Generated by pormake.
# Topology wmi, (6)-cn, num edge types: 1
# Building blocks:
#     Node 0, Type 0, BuildingBlock: VOLQOD_clean_sbu_1, # of connection points: 6
#     Node 1, Type 0, BuildingBlock: VOLQOD_clean_sbu_1, # of connection points: 6
#     Node 2, Type 0, BuildingBlock: VOLQOD_clean_sbu_1, # of connection points: 6
#     Node 3, Type 0, BuildingBlock: VOLQOD_clean_sbu_1, # of connection points: 6
#     Node 4, Type 0, BuildingBlock: VOLQOD_clean_sbu_1, # of connection points: 6
#     Node 5, Type 0, BuildingBlock: VOLQOD_clean_sbu_1, # of connection points: 6
#     Node 6, Type 0, BuildingBlock: VOLQOD_clean_sbu_1, # of connection points: 6
#     Node 7, Type 0, BuildingBlock: VOLQOD_clean_sbu_1, # of connection points: 6
#     Node 8, Type 0, BuildingBlock: VOLQOD_clean_sbu_1, # of connection points: 6
#     Node 9, Type 0, BuildingBlock: VOLQOD_clean_sbu_1, # of connection points: 6
#     Node 10, Type 0, BuildingBlock: VOLQOD_clean_sbu_1, # of connection points: 6
#     Node 11, Type 0, BuildingBlock: VOLQOD_clean_sbu_1, # of connection points: 6
#     Node 12, Type 0, BuildingBlock: VOLQOD_clean_sbu_1, # of connection points: 6
#     Node 13, Type 0, BuildingBlock: VOLQOD_clean_sbu_1, # of connection points: 6
#     Node 14, Type 0, BuildingBlock: VOLQOD_clean_sbu_1, # of connection points: 6
#     Node 15, Type 0, BuildingBlock: VOLQOD_clean_sbu_1, # of connection points: 6
#     Node 16, Type 0, BuildingBlock: VOLQOD_clean_sbu_1, # of connection points: 6
#     Node 17, Type 0, BuildingBlock: VOLQOD_clean_sbu_1, # of connection points: 6
#     Edge 18, Type (0, 0), BuildingBlock: XUDNAN_clean_linker_2, # of connection points: 2
#     Edge 19, Type (0, 0), BuildingBlock: XUDNAN_clean_linker_2, # of connection points: 2
#     Edge 20, Type (0, 0), BuildingBlock: XUDNAN_clean_linker_2, # of connection points: 2
#     Edge 21, Type (0, 0), BuildingBlock: XUDNAN_clean_linker_2, # of connection points: 2
#     Edge 22, Type (0, 0), BuildingBlock: XUDNAN_clean_linker_2, # of connection points: 2
#     Edge 23, Type (0, 0), BuildingBlock: XUDNAN_clean_linker_2, # of connection points: 2
#     Edge 24, Type (0, 0), BuildingBlock: XUDNAN_clean_linker_2, # of connection points: 2
#     Edge 25, Type (0, 0), BuildingBlock: XUDNAN_clean_linker_2, # of connection points: 2
#     Edge 26, Type (0, 0), BuildingBlock: XUDNAN_clean_linker_2, # of connection points: 2
#     Edge 27, Type (0, 0), BuildingBlock: XUDNAN_clean_linker_2, # of connection points: 2
#     Edge 28, Type (0, 0), BuildingBlock: XUDNAN_clean_linker_2, # of connection points: 2
#     Edge 29, Type (0, 0), BuildingBlock: XUDNAN_clean_linker_2, # of connection points: 2
#     Edge 30, Type (0, 0), BuildingBlock: XUDNAN_clean_linker_2, # of connection points: 2
#     Edge 31, Type (0, 0), BuildingBlock: XUDNAN_clean_linker_2, # of connection points: 2
#     Edge 32, Type (0, 0), BuildingBlock: XUDNAN_clean_linker_2, # of connection points: 2
#     Edge 33, Type (0, 0), BuildingBlock: XUDNAN_clean_linker_2, # of connection points: 2
#     Edge 34, Type (0, 0), BuildingBlock: XUDNAN_clean_linker_2, # of connection points: 2
#     Edge 35, Type (0, 0), BuildingBlock: XUDNAN_clean_linker_2, # of connection points: 2
#     Edge 36, Type (0, 0), BuildingBlock: XUDNAN_clean_linker_2, # of connection points: 2
#     Edge 37, Type (0, 0), BuildingBlock: XUDNAN_clean_linker_2, # of connection points: 2
#     Edge 38, Type (0, 0), BuildingBlock: XUDNAN_clean_linker_2, # of connection points: 2
#     Edge 39, Type (0, 0), BuildingBlock: XUDNAN_clean_linker_2, # of connection points: 2
#     Edge 40, Type (0, 0), BuildingBlock: XUDNAN_clean_linker_2, # of connection points: 2
#     Edge 41, Type (0, 0), BuildingBlock: XUDNAN_clean_linker_2, # of connection points: 2
#     Edge 42, Type (0, 0), BuildingBlock: XUDNAN_clean_linker_2, # of connection points: 2
#     Edge 43, Type (0, 0), BuildingBlock: XUDNAN_clean_linker_2, # of connection points: 2
#     Edge 44, Type (0, 0), BuildingBlock: XUDNAN_clean_linker_2, # of connection points: 2
#     Edge 45, Type (0, 0), BuildingBlock: XUDNAN_clean_linker_2, # of connection points: 2
#     Edge 46, Type (0, 0), BuildingBlock: XUDNAN_clean_linker_2, # of connection points: 2
#     Edge 47, Type (0, 0), BuildingBlock: XUDNAN_clean_linker_2, # of connection points: 2
#     Edge 48, Type (0, 0), BuildingBlock: XUDNAN_clean_linker_2, # of connection points: 2
#     Edge 49, Type (0, 0), BuildingBlock: XUDNAN_clean_linker_2, # of connection points: 2
#     Edge 50, Type (0, 0), BuildingBlock: XUDNAN_clean_linker_2, # of connection points: 2
#     Edge 51, Type (0, 0), BuildingBlock: XUDNAN_clean_linker_2, # of connection points: 2
#     Edge 52, Type (0, 0), BuildingBlock: XUDNAN_clean_linker_2, # of connection points: 2
#     Edge 53, Type (0, 0), BuildingBlock: XUDNAN_clean_linker_2, # of connection points: 2
#     Edge 54, Type (0, 0), BuildingBlock: XUDNAN_clean_linker_2, # of connection points: 2
#     Edge 55, Type (0, 0), BuildingBlock: XUDNAN_clean_linker_2, # of connection points: 2
#     Edge 56, Type (0, 0), BuildingBlock: XUDNAN_clean_linker_2, # of connection points: 2
#     Edge 57, Type (0, 0), BuildingBlock: XUDNAN_clean_linker_2, # of connection points: 2
#     Edge 58, Type (0, 0), BuildingBlock: XUDNAN_clean_linker_2, # of connection points: 2
#     Edge 59, Type (0, 0), BuildingBlock: XUDNAN_clean_linker_2, # of connection points: 2
#     Edge 60, Type (0, 0), BuildingBlock: XUDNAN_clean_linker_2, # of connection points: 2
#     Edge 61, Type (0, 0), BuildingBlock: XUDNAN_clean_linker_2, # of connection points: 2
#     Edge 62, Type (0, 0), BuildingBlock: XUDNAN_clean_linker_2, # of connection points: 2
#     Edge 63, Type (0, 0), BuildingBlock: XUDNAN_clean_linker_2, # of connection points: 2
#     Edge 64, Type (0, 0), BuildingBlock: XUDNAN_clean_linker_2, # of connection points: 2
#     Edge 65, Type (0, 0), BuildingBlock: XUDNAN_clean_linker_2, # of connection points: 2
#     Edge 66, Type (0, 0), BuildingBlock: XUDNAN_clean_linker_2, # of connection points: 2
#     Edge 67, Type (0, 0), BuildingBlock: XUDNAN_clean_linker_2, # of connection points: 2
#     Edge 68, Type (0, 0), BuildingBlock: XUDNAN_clean_linker_2, # of connection points: 2
#     Edge 69, Type (0, 0), BuildingBlock: XUDNAN_clean_linker_2, # of connection points: 2
#     Edge 70, Type (0, 0), BuildingBlock: XUDNAN_clean_linker_2, # of connection points: 2
#     Edge 71, Type (0, 0), BuildingBlock: XUDNAN_clean_linker_2, # of connection points: 2
# Relax obj value: 0.312
# Max RMSD: 0.231
# Mean RMSD: 0.231
data_MOF--net-wmi--node1-VOLQOD_clean_sbu_1--edge1-XUDNAN_clean_linker_2
_symmetry_space_group_name_H-M    P1
_symmetry_Int_Tables_number       1
_symmetry_cell_setting            triclinic
loop_
_symmetry_equiv_pos_as_xyz
'x, y, z'
_cell_length_a     31.197605
_cell_length_b     31.170424
_cell_length_c     98.68917
_cell_angle_alpha  90.015241
_cell_angle_beta   89.986694
_cell_angle_gamma 120.00267
loop_
_atom_site_label
_atom_site_type_symbol
_atom_site_fract_x
_atom_site_fract_y
_atom_site_fract_z
_atom_type_partial_charge
O0 O 0.52337 0.09732 0.10015 0.0
Zn1 Zn 0.46174 0.0324 0.09688 0.0
O2 O 0.43569 0.02987 0.07873 0.0
Zn3 Zn 0.36692 0.01478 0.07988 0.0
Zn4 Zn 0.47513 0.09163 0.0693 0.0
Zn5 Zn 0.44106 0.98115 0.06828 0.0
O6 O 0.32314 0.95756 0.06746 0.0
O7 O 0.37526 0.93175 0.06138 0.0
O8 O 0.40997 0.01859 0.11094 0.0
O9 O 0.34133 -0.00508 0.09895 0.0
O10 O 0.36274 0.07656 0.07603 0.0
O11 O 0.43896 0.12837 0.06873 0.0
O12 O 0.494 0.08422 0.05021 0.0
O13 O 0.48474 0.98275 0.09922 0.0
O14 O 0.48206 0.00829 0.0518 0.0
O15 O 0.47092 0.94877 0.07881 0.0
C16 C 0.55059 0.1318 0.09195 0.0
C17 C 0.33262 0.92758 0.06112 0.0
C18 C 0.39546 0.119 0.07168 0.0
C19 C 0.36339 0.00151 0.11027 0.0
C20 C 0.49772 0.04849 0.04531 0.0
C21 C 0.48709 0.95301 0.09083 0.0
O22 O 0.53711 0.13245 0.07981 0.0
O23 O -0.01022 0.53839 0.08764 0.0
Zn24 Zn 0.04345 0.52093 0.08635 0.0
O25 O 0.022 0.46193 0.07563 0.0
Zn26 Zn 0.01227 0.40828 0.08743 0.0
Zn27 Zn 0.96229 0.44674 0.06661 0.0
Zn28 Zn 0.07037 0.47365 0.06197 0.0
O29 O 0.06348 0.38813 0.08369 0.0
O30 O 0.11191 0.44679 0.069 0.0
O31 O 0.06752 0.51518 0.10491 0.0
O32 O 0.02883 0.43307 0.10635 0.0
O33 O 0.94094 0.35303 0.08796 0.0
O34 O 0.90769 0.38785 0.07532 0.0
O35 O 0.96309 0.42988 0.04702 0.0
O36 O 0.09587 0.57816 0.07643 0.0
O37 O 0.03872 0.44113 0.04439 0.0
O38 O 0.11169 0.54683 0.05816 0.0
C39 C 0.95763 0.53208 0.07871 0.0
C40 C 0.10404 0.4118 0.07714 0.0
C41 C 0.90324 0.35336 0.0831 0.0
C42 C 0.05412 0.47569 0.11167 0.0
C43 C -0.0043 0.4276 0.03979 0.0
C44 C 0.11765 0.58378 0.06514 0.0
O45 O 0.94723 0.50154 0.06898 0.0
O46 O 0.52013 0.47878 0.10322 0.0
Zn47 Zn 0.53816 0.54822 0.10812 0.0
O48 O 0.57793 0.59308 0.09343 0.0
Zn49 Zn 0.63815 0.64802 0.10062 0.0
Zn50 Zn 0.59375 0.55877 0.07981 0.0
Zn51 Zn 0.53993 0.61738 0.0846 0.0
O52 O 0.63654 0.71232 0.10022 0.0
O53 O 0.56393 0.68651 0.09007 0.0
O54 O 0.57465 0.56769 0.12622 0.0
O55 O 0.64483 0.63424 0.11989 0.0
O56 O 0.69848 0.65314 0.09159 0.0
O57 O 0.66558 0.5808 0.0808 0.0
O58 O 0.58101 0.57325 0.0608 0.0
O59 O 0.46979 0.54046 0.10922 0.0
O60 O 0.54376 0.61672 0.0644 0.0
O61 O 0.46949 0.57498 0.08958 0.0
C62 C 0.52509 0.45928 0.09244 0.0
C63 C 0.60269 0.72017 0.09581 0.0
C64 C 0.7031 0.62063 0.08493 0.0
C65 C 0.61831 0.6028 0.12885 0.0
C66 C 0.56079 0.59714 0.05633 0.0
C67 C 0.44667 0.54805 0.09973 0.0
O68 O 0.55181 0.48566 0.08263 0.0
O69 O 0.05902 0.54246 0.89607 0.0
Zn70 Zn 0.00055 0.47662 0.89221 0.0
O71 O -0.00258 0.42624 0.90434 0.0
Zn72 Zn 0.00316 0.37659 0.89381 0.0
Zn73 Zn 0.04905 0.45757 0.91764 0.0
Zn74 Zn 0.9363 0.39633 0.91407 0.0
O75 O 0.94399 0.30803 0.89666 0.0
O76 O 0.89366 0.32902 0.9071 0.0
O77 O -0.00204 0.45889 0.87254 0.0
O78 O -0.00049 0.38861 0.87404 0.0
O79 O 0.06983 0.38221 0.89726 0.0
O80 O 0.10097 0.44164 0.91294 0.0
O81 O 0.02608 0.43371 0.93668 0.0
O82 O 0.94623 0.49024 0.89635 0.0
O83 O 0.94512 0.38861 0.93371 0.0
O84 O 0.90412 0.43778 0.91289 0.0
C85 C 0.08112 0.55979 0.90727 0.0
C86 C 0.90161 0.29718 0.90131 0.0
C87 C 0.10498 0.41146 0.90508 0.0
C88 C -0.00272 0.42167 0.86702 0.0
C89 C 0.98279 0.40583 0.94137 0.0
C90 C 0.91245 0.4741 0.9053 0.0
O91 O 0.07809 0.53157 0.91701 0.0
O92 O 0.49044 0.55256 0.9002 0.0
Zn93 Zn 0.54987 0.54782 0.90488 0.0
O94 O 0.58488 0.58827 0.92033 0.0
Zn95 Zn 0.64837 0.64165 0.91428 0.0
Zn96 Zn 0.54446 0.61183 0.92807 0.0
Zn97 Zn 0.59407 0.55 0.93409 0.0
O98 O 0.70337 0.64275 0.92511 0.0
O99 O 0.66417 0.56599 0.93333 0.0
O100 O 0.5928 0.56315 0.8884 0.0
O101 O 0.66239 0.62922 0.89518 0.0
O102 O 0.6488 0.70672 0.91434 0.0
O103 O 0.57463 0.68257 0.92338 0.0
O104 O 0.54143 0.60725 0.94836 0.0
O105 O 0.52055 0.4769 0.90991 0.0
O106 O 0.58089 0.56635 0.95281 0.0
O107 O 0.54778 0.47749 0.93078 0.0
C108 C 0.46134 0.55636 0.90849 0.0
C109 C 0.70404 0.60585 0.93047 0.0
C110 C 0.61528 0.71584 0.91831 0.0
C111 C 0.63722 0.597 0.88622 0.0
C112 C 0.55858 0.58885 0.9568 0.0
C113 C 0.52107 0.45437 0.92059 0.0
O114 O 0.47581 0.57454 0.92029 0.0
O115 O 0.47303 0.94782 0.89704 0.0
Zn116 Zn 0.45648 0.00184 0.8963 0.0
O117 O 0.42758 0.00803 0.91316 0.0
Zn118 Zn 0.36622 0.00758 0.90914 0.0
Zn119 Zn 0.41601 0.95399 0.92493 0.0
Zn120 Zn 0.47336 0.0683 0.92222 0.0
O121 O 0.36745 0.06859 0.91645 0.0
O122 O 0.44635 0.11375 0.92272 0.0
O123 O 0.41302 0.99191 0.88051 0.0
O124 O 0.35605 0.00755 0.88894 0.0
O125 O 0.30819 0.94418 0.91609 0.0
O126 O 0.34398 0.90525 0.92558 0.0
O127 O 0.44186 0.97608 0.94369 0.0
O128 O 0.52308 0.06074 0.893 0.0
O129 O 0.48491 0.0578 0.94156 0.0
O130 O 0.5389 0.09895 0.91289 0.0
C131 C 0.47254 0.92145 0.9069 0.0
C132 C 0.40365 0.10867 0.92096 0.0
C133 C 0.30539 0.90639 0.92195 0.0
C134 C 0.37598 -0.00197 0.87901 0.0
C135 C 0.46981 0.01886 0.94863 0.0
C136 C 0.5529 0.09336 0.90123 0.0
O137 O 0.45252 0.92122 0.91814 0.0
O138 O 0.17209 0.38142 0.41213 0.0
Zn139 Zn 0.10516 0.32292 0.41492 0.0
O140 O 0.05692 0.32586 0.40311 0.0
Zn141 Zn 0.00907 0.33279 0.41411 0.0
Zn142 Zn 0.09138 0.3801 0.39056 0.0
Zn143 Zn 0.02301 0.26656 0.39266 0.0
O144 O 0.93933 0.27637 0.41151 0.0
O145 O 0.95533 0.22486 0.39984 0.0
O146 O 0.08758 0.31867 0.43463 0.0
O147 O 0.02107 0.32708 0.43375 0.0
O148 O 0.01804 0.4008 0.4117 0.0
O149 O 0.07906 0.43425 0.39654 0.0
O150 O 0.06969 0.36047 0.37109 0.0
O151 O 0.11454 0.26625 0.40964 0.0
O152 O 0.01762 0.27995 0.37327 0.0
O153 O 0.06069 0.23038 0.3929 0.0
C154 C 0.1915 0.40711 0.40154 0.0
C155 C 0.92568 0.23382 0.40647 0.0
C156 C 0.0495 0.4378 0.40479 0.0
C157 C 0.05254 0.32123 0.44045 0.0
C158 C 0.03935 0.31852 0.36595 0.0
C159 C 0.09595 0.23421 0.40023 0.0
O160 O 0.16515 0.4067 0.39162 0.0
O161 O 0.59207 0.81527 0.43819 0.0
Zn162 Zn 0.64575 0.79706 0.43683 0.0
O163 O 0.63782 0.75822 0.42052 0.0
Zn164 Zn 0.63793 0.69782 0.42462 0.0
Zn165 Zn 0.57684 0.74158 0.41188 0.0
Zn166 Zn 0.68987 0.79697 0.40804 0.0
O167 O 0.70448 0.70497 0.41965 0.0
O168 O 0.74146 0.77742 0.40893 0.0
O169 O 0.64639 0.7596 0.45348 0.0
O170 O 0.63026 0.68698 0.4447 0.0
O171 O 0.57937 0.63875 0.41575 0.0
O172 O 0.52896 0.66998 0.41401 0.0
O173 O 0.58482 0.75339 0.39189 0.0
O174 O 0.70583 0.86516 0.43553 0.0
O175 O 0.66592 0.79055 0.38891 0.0
O176 O 0.71946 0.86743 0.41338 0.0
C177 C 0.55991 0.81063 0.42949 0.0
C178 C 0.74213 0.73983 0.41369 0.0
C179 C 0.53665 0.63358 0.41375 0.0
C180 C 0.63681 0.71494 0.45482 0.0
C181 C 0.62242 0.7729 0.38416 0.0
C182 C 0.72549 0.8893 0.4247 0.0
O183 O 0.55126 0.78387 0.41899 0.0
O184 O 0.18739 0.81533 0.43074 0.0
Zn185 Zn 0.19168 0.8815 0.42824 0.0
O186 O 0.23044 0.91579 0.41224 0.0
Zn187 Zn 0.28166 0.9828 0.41696 0.0
Zn188 Zn 0.26078 0.88026 0.40529 0.0
Zn189 Zn 0.18816 0.91578 0.39798 0.0
O190 O 0.27555 0.03352 0.40558 0.0
O191 O 0.20425 0.98483 0.39497 0.0
O192 O 0.21722 0.92453 0.44511 0.0
O193 O 0.27217 -0.0033 0.43604 0.0
O194 O 0.35022 0.9898 0.41703 0.0
O195 O 0.33022 0.91306 0.41111 0.0
O196 O 0.2607 0.87772 0.3851 0.0
O197 O 0.12044 0.86091 0.42509 0.0
O198 O 0.20211 0.89523 0.37991 0.0
O199 O 0.11608 0.87449 0.40312 0.0
C200 C 0.19891 0.79104 0.42258 0.0
C201 C 0.24036 0.0275 0.39778 0.0
C202 C 0.36176 0.95643 0.41501 0.0
C203 C 0.24797 0.97083 0.4462 0.0
C204 C 0.23403 0.88336 0.37637 0.0
C205 C 0.09534 0.85706 0.41451 0.0
O206 O 0.22525 0.81133 0.41214 0.0
O207 O 0.75347 0.86262 0.23522 0.0
Zn208 Zn 0.6953 0.79362 0.23465 0.0
O209 O 0.6815 0.76124 0.25217 0.0
Zn210 Zn 0.6934 0.70568 0.25129 0.0
Zn211 Zn 0.72391 0.81064 0.26487 0.0
Zn212 Zn 0.61527 0.73952 0.25798 0.0
O213 O 0.63507 0.64276 0.2586 0.0
O214 O 0.57863 0.66663 0.25874 0.0
O215 O 0.70348 0.753 0.22028 0.0
O216 O 0.69826 0.6892 0.23181 0.0
O217 O 0.75879 0.72533 0.26034 0.0
O218 O 0.78008 0.79991 0.2687 0.0
O219 O 0.69054 0.80647 0.28244 0.0
O220 O 0.63898 0.80318 0.22918 0.0
O221 O 0.6115 0.76081 0.27695 0.0
O222 O 0.58282 0.76425 0.24529 0.0
C223 C 0.76391 0.89315 0.24492 0.0
C224 C 0.59051 0.63327 0.25994 0.0
C225 C 0.78905 0.76485 0.26663 0.0
C226 C 0.70271 0.71186 0.22073 0.0
C227 C 0.64503 0.78604 0.28558 0.0
C228 C 0.59677 0.78939 0.23438 0.0
O229 O 0.74969 0.87866 0.25699 0.0
O230 O 0.14075 0.88431 0.23759 0.0
Zn231 Zn 0.19792 0.88091 0.2295 0.0
O232 O 0.25679 0.91815 0.24097 0.0
Zn233 Zn 0.31287 0.96446 0.23006 0.0
Zn234 Zn 0.24514 0.95419 0.25494 0.0
Zn235 Zn 0.27183 0.87283 0.24993 0.0
O236 O 0.36873 0.94928 0.23014 0.0
O237 O 0.33306 0.87982 0.24218 0.0
O238 O 0.21044 0.90385 0.20987 0.0
O239 O 0.29117 0.95684 0.21093 0.0
O240 O 0.33391 0.03553 0.23436 0.0
O241 O 0.27939 0.02573 0.25028 0.0
O242 O 0.2652 0.94429 0.27347 0.0
O243 O 0.17441 0.80772 0.22986 0.0
O244 O 0.28046 0.88299 0.27 0.0
O245 O 0.21927 0.80336 0.24666 0.0
C246 C 0.13597 0.90238 0.24869 0.0
C247 C 0.36844 0.91111 0.23486 0.0
C248 C 0.31423 0.05331 0.2422 0.0
C249 C 0.2513 0.93389 0.20416 0.0
C250 C 0.2768 0.91315 0.27792 0.0
C251 C 0.18457 0.78249 0.23804 0.0
O252 O 0.1729 0.92908 0.25624 0.0
O253 O 0.1816 0.28966 0.21771 0.0
Zn254 Zn 0.17623 0.35098 0.21996 0.0
O255 O 0.12625 0.34117 0.23306 0.0
Zn256 Zn 0.07141 0.34265 0.22475 0.0
Zn257 Zn 0.10392 0.27855 0.24123 0.0
Zn258 Zn 0.15457 0.39042 0.2469 0.0
O259 O 0.06498 0.39963 0.2321 0.0
O260 O 0.13588 0.44177 0.24344 0.0
O261 O 0.16496 0.3766 0.20233 0.0
O262 O 0.08721 0.35977 0.20517 0.0
O263 O 0.00835 0.27611 0.2264 0.0
O264 O 0.04021 0.22931 0.23281 0.0
O265 O 0.09016 0.28052 0.26115 0.0
O266 O 0.24307 0.3973 0.22746 0.0
O267 O 0.12633 0.36135 0.26493 0.0
O268 O 0.22812 0.41854 0.24765 0.0
C269 C 0.18013 0.26293 0.22768 0.0
C270 C 0.09683 0.4385 0.23832 0.0
C271 C 0.00421 0.23382 0.22851 0.0
C272 C 0.12595 0.37535 0.1979 0.0
C273 C 0.10129 0.3169 0.26907 0.0
C274 C 0.25804 0.41832 0.2389 0.0
O275 O 0.15493 0.25877 0.23827 0.0
O276 O 0.85733 0.67339 0.76431 0.0
Zn277 Zn 0.78428 0.62395 0.76503 0.0
O278 O 0.74505 0.64452 0.75415 0.0
Zn279 Zn 0.69871 0.65324 0.7657 0.0
Zn280 Zn 0.78947 0.70467 0.74514 0.0
Zn281 Zn 0.71075 0.59793 0.73973 0.0
O282 O 0.62759 0.6019 0.76082 0.0
O283 O 0.63942 0.56095 0.74402 0.0
O284 O 0.76321 0.61361 0.78464 0.0
O285 O 0.70636 0.63683 0.78493 0.0
O286 O 0.71432 0.72592 0.76563 0.0
O287 O 0.78203 0.75777 0.7529 0.0
O288 O 0.77864 0.70536 0.72529 0.0
O289 O 0.7813 0.56384 0.75679 0.0
O290 O 0.71939 0.62863 0.72126 0.0
O291 O 0.73736 0.55192 0.73803 0.0
C292 C 0.88111 0.70835 0.75592 0.0
C293 C 0.61113 0.56679 0.75215 0.0
C294 C 0.75178 0.76317 0.76028 0.0
C295 C 0.73203 0.62124 0.79096 0.0
C296 C 0.7492 0.67225 0.71714 0.0
C297 C 0.76435 0.54189 0.74552 0.0
O298 O 0.85881 0.7218 0.7477 0.0
O299 O 0.27784 0.14843 0.76468 0.0
Zn300 Zn 0.3319 0.13119 0.76507 0.0
O301 O 0.32421 0.08825 0.74973 0.0
Zn302 Zn 0.32686 0.03095 0.75532 0.0
Zn303 Zn 0.26269 0.06664 0.74089 0.0
Zn304 Zn 0.37505 0.12498 0.73681 0.0
O305 O 0.38949 0.0343 0.74912 0.0
O306 O 0.42821 0.10795 0.73896 0.0
O307 O 0.3317 0.09892 0.78309 0.0
O308 O 0.32774 0.03023 0.77524 0.0
O309 O 0.26554 0.96734 0.75042 0.0
O310 O 0.21533 -0.00305 0.74584 0.0
O311 O 0.26948 0.06586 0.72082 0.0
O312 O 0.3918 0.19936 0.76249 0.0
O313 O 0.35057 0.10744 0.71768 0.0
O314 O 0.4 0.19693 0.74014 0.0
C315 C 0.24638 0.14182 0.75552 0.0
C316 C 0.42751 0.06919 0.74337 0.0
C317 C 0.22253 0.96084 0.74815 0.0
C318 C 0.32916 0.05722 0.78507 0.0
C319 C 0.30681 0.08307 0.71301 0.0
C320 C 0.40713 0.22122 0.75111 0.0
O321 O 0.23799 0.11237 0.74564 0.0
O322 O 0.87283 0.14844 0.76263 0.0
Zn323 Zn 0.87287 0.21003 0.75727 0.0
O324 O 0.90988 0.23824 0.74061 0.0
Zn325 Zn 0.96267 0.30619 0.74402 0.0
Zn326 Zn 0.93529 0.19702 0.73411 0.0
Zn327 Zn 0.86663 0.23777 0.72669 0.0
O328 O 0.95381 0.35539 0.73278 0.0
O329 O 0.88025 0.30582 0.7235 0.0
O330 O 0.89778 0.25844 0.77275 0.0
O331 O 0.95894 0.32561 0.76313 0.0
O332 O 0.02998 0.31191 0.74226 0.0
O333 O 0.00751 0.23375 0.7371 0.0
O334 O 0.92524 0.18321 0.71398 0.0
O335 O 0.80102 0.18501 0.75423 0.0
O336 O 0.87644 0.2135 0.709 0.0
O337 O 0.79615 0.19632 0.73216 0.0
C338 C 0.88297 0.11981 0.75595 0.0
C339 C 0.91659 0.3488 0.72581 0.0
C340 C 0.04054 0.2781 0.73981 0.0
C341 C 0.93216 0.30351 0.77336 0.0
C342 C 0.90077 0.19276 0.70539 0.0
C343 C 0.77579 0.17929 0.74358 0.0
O344 O 0.90476 0.13264 0.74449 0.0
O345 O 0.41486 0.19839 0.57138 0.0
Zn346 Zn 0.35189 0.13855 0.56555 0.0
O347 O 0.33592 0.08317 0.5776 0.0
Zn348 Zn 0.32824 0.02731 0.56713 0.0
Zn349 Zn 0.38655 0.10149 0.59101 0.0
Zn350 Zn 0.27711 0.06708 0.5873 0.0
O351 O 0.262 0.96628 0.57099 0.0
O352 O 0.22401 0.0031 0.58059 0.0
O353 O 0.35077 0.12089 0.54586 0.0
O354 O 0.32529 0.04063 0.54743 0.0
O355 O 0.38886 0.01981 0.56939 0.0
O356 O 0.43101 0.07672 0.58515 0.0
O357 O 0.36058 0.07684 0.60982 0.0
O358 O 0.30309 0.16211 0.56764 0.0
O359 O 0.28242 0.05673 0.60689 0.0
O360 O 0.25927 0.12014 0.58561 0.0
C361 C 0.43393 0.20865 0.58319 0.0
C362 C 0.223 0.96522 0.5754 0.0
C363 C 0.42743 0.04422 0.57669 0.0
C364 C 0.33624 0.07886 0.54035 0.0
C365 C 0.31722 0.0611 0.61447 0.0
C366 C 0.2714 0.15408 0.57682 0.0
O367 O 0.42403 0.17502 0.59195 0.0
O368 O 0.80457 0.19199 0.55523 0.0
Zn369 Zn 0.87147 0.19749 0.55415 0.0
O370 O 0.91022 0.22949 0.57023 0.0
Zn371 Zn 0.96706 0.29228 0.56607 0.0
Zn372 Zn 0.86933 0.23675 0.58334 0.0
Zn373 Zn 0.93488 0.19005 0.57768 0.0
O374 O 0.0297 0.29836 0.57401 0.0
O375 O 0.0056 0.2181 0.57263 0.0
O376 O 0.91001 0.23158 0.53718 0.0
O377 O 0.97752 0.29528 0.54606 0.0
O378 O 0.95479 0.34743 0.57157 0.0
O379 O 0.88472 0.3072 0.58331 0.0
O380 O 0.88035 0.21811 0.60209 0.0
O381 O 0.85203 0.12544 0.55394 0.0
O382 O 0.931 0.18901 0.59792 0.0
O383 O 0.89298 0.12046 0.57168 0.0
C384 C 0.77863 0.18291 0.56597 0.0
C385 C 0.03948 0.26329 0.57351 0.0
C386 C 0.91961 0.34703 0.57826 0.0
C387 C 0.95284 0.26981 0.53588 0.0
C388 C 0.90686 0.20015 0.60621 0.0
C389 C 0.86162 0.10001 0.56219 0.0
O390 O 0.7986 0.194 0.57768 0.0
O391 O 0.78706 0.59616 0.56774 0.0
Zn392 Zn 0.77332 0.65173 0.56573 0.0
O393 O 0.73938 0.65662 0.58156 0.0
Zn394 Zn 0.67507 0.64723 0.57595 0.0
Zn395 Zn 0.73296 0.60886 0.59496 0.0
Zn396 Zn 0.7794 0.7204 0.58971 0.0
O397 O 0.67393 0.71161 0.57769 0.0
O398 O 0.75084 0.76208 0.58492 0.0
O399 O 0.73687 0.64601 0.54853 0.0
O400 O 0.6638 0.63191 0.55606 0.0
O401 O 0.61962 0.58901 0.58576 0.0
O402 O 0.6621 0.55961 0.5967 0.0
O403 O 0.75286 0.63801 0.61361 0.0
O404 O 0.84115 0.70949 0.56416 0.0
O405 O 0.78046 0.71764 0.60995 0.0
O406 O 0.84914 0.75189 0.58294 0.0
C407 C 0.78851 0.57229 0.57802 0.0
C408 C 0.70904 0.75468 0.58081 0.0
C409 C 0.62144 0.55683 0.59334 0.0
C410 C 0.69258 0.63592 0.54641 0.0
C411 C 0.76947 0.68185 0.61802 0.0
C412 C 0.86752 0.74442 0.57229 0.0
O413 O 0.7711 0.57504 0.58947 0.0
H414 H 0.50881 0.89762 0.07405 0.0
H415 H 0.52428 0.94735 0.11579 0.0
H416 H 0.5694 0.90271 0.12112 0.0
H417 H 0.48362 0.77848 0.08079 0.0
H418 H 0.51689 0.7752 0.06626 0.0
H419 H 0.49073 0.81503 0.06592 0.0
H420 H 0.5773 0.88962 0.06015 0.0
H421 H 0.6039 0.84994 0.06075 0.0
H422 H 0.62889 0.90462 0.07121 0.0
H423 H 0.60665 0.84585 0.12199 0.0
H424 H 0.62457 0.7773 0.11871 0.0
H425 H 0.58522 0.769 0.07635 0.0
C426 C 0.5218 0.89956 0.08433 0.0
C427 C 0.51284 0.9258 0.09452 0.0
C428 C 0.53065 0.92729 0.10782 0.0
C429 C 0.55666 0.90246 0.11091 0.0
C430 C 0.56502 0.8771 0.10052 0.0
C431 C 0.5479 0.87559 0.08752 0.0
C432 C 0.55798 0.84313 0.0783 0.0
C433 C 0.50943 0.80044 0.07249 0.0
C434 C 0.59418 0.87367 0.06694 0.0
C435 C 0.58175 0.82475 0.08825 0.0
C436 C 0.5866 0.84532 0.10098 0.0
C437 C 0.60387 0.83024 0.11202 0.0
C438 C 0.61432 0.79168 0.11007 0.0
C439 C 0.60663 0.76872 0.09725 0.0
C440 C 0.59207 0.78677 0.08618 0.0
H441 H 0.2389 0.87167 0.07034 0.0
H442 H 0.33919 0.88094 0.03866 0.0
H443 H 0.28353 0.79308 0.03305 0.0
H444 H 0.22301 0.77037 0.0835 0.0
H445 H 0.15844 0.74123 0.08799 0.0
H446 H 0.19409 0.80727 0.08637 0.0
H447 H 0.13296 0.80663 0.06853 0.0
H448 H 0.0958 0.74032 0.07038 0.0
H449 H 0.11752 0.76714 0.05386 0.0
H450 H 0.23126 0.70204 0.0351 0.0
H451 H 0.18204 0.61595 0.04349 0.0
H452 H 0.11798 0.66589 0.07444 0.0
C453 C 0.24732 0.85586 0.06167 0.0
C454 C 0.29272 0.88272 0.05483 0.0
C455 C 0.30409 0.8607 0.04391 0.0
C456 C 0.27268 0.81086 0.04064 0.0
C457 C 0.23006 0.78387 0.04837 0.0
C458 C 0.21669 0.80586 0.05848 0.0
C459 C 0.17455 0.76742 0.06693 0.0
C460 C 0.18842 0.77186 0.08208 0.0
C461 C 0.1274 0.77056 0.06479 0.0
C462 C 0.16933 0.72072 0.06075 0.0
C463 C 0.20047 0.73071 0.04981 0.0
C464 C 0.20562 0.69357 0.04341 0.0
C465 C 0.178 0.64493 0.04832 0.0
C466 C 0.14657 0.63437 0.05967 0.0
C467 C 0.14184 0.67276 0.06577 0.0
H468 H 0.18924 0.44349 0.0631 0.0
H469 H 0.11751 0.3748 0.10102 0.0
H470 H 0.19857 0.39572 0.11077 0.0
H471 H 0.29496 0.41654 0.06522 0.0
H472 H 0.33653 0.47626 0.05795 0.0
H473 H 0.27224 0.44363 0.05308 0.0
H474 H 0.26604 0.52075 0.05979 0.0
H475 H 0.32949 0.55293 0.06518 0.0
H476 H 0.28137 0.54441 0.07684 0.0
H477 H 0.28964 0.43868 0.1176 0.0
H478 H 0.38066 0.49229 0.11995 0.0
H479 H 0.38931 0.53661 0.07788 0.0
C480 C 0.19023 0.43075 0.07325 0.0
C481 C 0.14716 0.40746 0.08127 0.0
C482 C 0.15 0.39205 0.09459 0.0
C483 C 0.196 0.40417 0.10026 0.0
C484 C 0.23841 0.43105 0.0924 0.0
C485 C 0.23564 0.44312 0.07906 0.0
C486 C 0.28621 0.47741 0.07323 0.0
C487 C 0.29819 0.45192 0.06169 0.0
C488 C 0.291 0.52676 0.0685 0.0
C489 C 0.31776 0.48466 0.08552 0.0
C490 C 0.29003 0.4571 0.09645 0.0
C491 C 0.31175 0.45984 0.10903 0.0
C492 C 0.3633 0.49072 0.11032 0.0
C493 C 0.39207 0.51906 0.09916 0.0
C494 C 0.36855 0.51593 0.08669 0.0
H495 H 0.8334 0.4487 0.92208 0.0
H496 H 0.93853 0.56644 0.89586 0.0
H497 H 0.90569 0.61979 0.9033 0.0
H498 H 0.73328 0.4676 0.91539 0.0
H499 H 0.70901 0.45298 0.93239 0.0
H500 H 0.74422 0.42643 0.92576 0.0
H501 H 0.80374 0.46218 0.94633 0.0
H502 H 0.76933 0.49014 0.95277 0.0
H503 H 0.83484 0.52782 0.94966 0.0
H504 H 0.85954 0.65884 0.9126 0.0
H505 H 0.79326 0.67489 0.91971 0.0
H506 H 0.71885 0.53231 0.94009 0.0
C507 C 0.84953 0.4857 0.9179 0.0
C508 C 0.88851 0.50337 0.90842 0.0
C509 C 0.90837 0.5519 0.90309 0.0
C510 C 0.89054 0.58282 0.9074 0.0
C511 C 0.85299 0.56469 0.91704 0.0
C512 C 0.83212 0.517 0.92205 0.0
C513 C 0.789 0.50491 0.93132 0.0
C514 C 0.74106 0.46039 0.92588 0.0
C515 C 0.79991 0.49573 0.94588 0.0
C516 C 0.78775 0.55268 0.93032 0.0
C517 C 0.82582 0.58718 0.92234 0.0
C518 C 0.82983 0.63243 0.91898 0.0
C519 C 0.79208 0.64131 0.92314 0.0
C520 C 0.75064 0.60462 0.93035 0.0
C521 C 0.75016 0.56118 0.93465 0.0
H522 H 0.45583 0.18353 0.93852 0.0
H523 H 0.34185 0.13307 0.90769 0.0
H524 H 0.35015 0.21615 0.90715 0.0
H525 H 0.42737 0.27807 0.95523 0.0
H526 H 0.49253 0.31956 0.95799 0.0
H527 H 0.46768 0.25346 0.95868 0.0
H528 H 0.53162 0.26163 0.94063 0.0
H529 H 0.55585 0.32722 0.93959 0.0
H530 H 0.53345 0.28977 0.92451 0.0
H531 H 0.3856 0.30711 0.9057 0.0
H532 H 0.43888 0.39794 0.90526 0.0
H533 H 0.52923 0.38921 0.93737 0.0
C534 C 0.43117 0.18949 0.93208 0.0
C535 C 0.3983 0.15232 0.92313 0.0
C536 C 0.36686 0.16113 0.91472 0.0
C537 C 0.37141 0.20819 0.91435 0.0
C538 C 0.40668 0.24519 0.92267 0.0
C539 C 0.43514 0.23598 0.93166 0.0
C540 C 0.47484 0.28312 0.93818 0.0
C541 C 0.46499 0.28357 0.95343 0.0
C542 C 0.52696 0.29085 0.93555 0.0
C543 C 0.46682 0.32071 0.93069 0.0
C544 C 0.4268 0.29811 0.92197 0.0
C545 C 0.41601 0.32524 0.91277 0.0
C546 C 0.44687 0.37672 0.91248 0.0
C547 C 0.48807 0.40041 0.92131 0.0
C548 C 0.49749 0.37206 0.93068 0.0
H549 H 0.62796 0.13702 0.91935 0.0
H550 H 0.59811 0.10451 0.8765 0.0
H551 H 0.68777 0.13918 0.87232 0.0
H552 H 0.73551 0.2507 0.91615 0.0
H553 H 0.76502 0.24139 0.93066 0.0
H554 H 0.69876 0.21066 0.92979 0.0
H555 H 0.69545 0.12639 0.93322 0.0
H556 H 0.76209 0.15711 0.93358 0.0
H557 H 0.72791 0.10801 0.92159 0.0
H558 H 0.78143 0.18522 0.87277 0.0
H559 H 0.86917 0.24676 0.87747 0.0
H560 H 0.83524 0.24233 0.92012 0.0
C561 C 0.64011 0.13734 0.90905 0.0
C562 C 0.60623 0.11861 0.89822 0.0
C563 C 0.62366 0.11908 0.88493 0.0
C564 C 0.67433 0.13805 0.8825 0.0
C565 C 0.70664 0.15523 0.89352 0.0
C566 C 0.69003 0.15509 0.90651 0.0
C567 C 0.73198 0.17851 0.91653 0.0
C568 C 0.73288 0.22295 0.92369 0.0
C569 C 0.72917 0.1402 0.92684 0.0
C570 C 0.77528 0.1945 0.90705 0.0
C571 C 0.76015 0.17981 0.89384 0.0
C572 C 0.79381 0.19585 0.8831 0.0
C573 C 0.84363 0.2303 0.88585 0.0
C574 C 0.85844 0.24822 0.89918 0.0
C575 C 0.8246 0.22788 0.90993 0.0
H576 H 0.25881 0.10832 0.41256 0.0
H577 H 0.20793 0.03867 0.37335 0.0
H578 H 0.17376 0.09323 0.36853 0.0
H579 H 0.15695 0.10835 0.42096 0.0
H580 H 0.18336 0.16729 0.42949 0.0
H581 H 0.21752 0.13506 0.42856 0.0
H582 H 0.29144 0.21066 0.41717 0.0
H583 H 0.25834 0.24415 0.4185 0.0
H584 H 0.28113 0.23777 0.40228 0.0
H585 H 0.12795 0.13808 0.3703 0.0
H586 H 0.08342 0.18132 0.37704 0.0
H587 H 0.16288 0.22208 0.41531 0.0
C588 C 0.2432 0.10688 0.40266 0.0
C589 C 0.23644 0.07009 0.39323 0.0
C590 C 0.21384 0.06727 0.38059 0.0
C591 C 0.19427 0.09798 0.37779 0.0
C592 C 0.19796 0.13134 0.38773 0.0
C593 C 0.22295 0.13701 0.39979 0.0
C594 C 0.21549 0.17036 0.4095 0.0
C595 C 0.19192 0.14363 0.42291 0.0
C596 C 0.26452 0.21861 0.412 0.0
C597 C 0.18001 0.17983 0.40135 0.0
C598 C 0.17093 0.15753 0.38877 0.0
C599 C 0.13581 0.15698 0.37996 0.0
C600 C 0.11019 0.18102 0.38396 0.0
C601 C 0.1198 0.20517 0.39669 0.0
C602 C 0.15512 0.20438 0.40546 0.0
H603 H 0.86921 0.15338 0.39121 0.0
H604 H 0.87893 0.21683 0.43091 0.0
H605 H 0.81944 0.13385 0.43983 0.0
H606 H 0.73471 0.04675 0.39409 0.0
H607 H 0.75096 0.00682 0.38496 0.0
H608 H 0.78156 0.07204 0.38109 0.0
H609 H 0.86602 0.07712 0.38514 0.0
H610 H 0.83604 0.01274 0.3896 0.0
H611 H 0.8784 0.05875 0.40133 0.0
H612 H 0.77548 0.04245 0.44538 0.0
H613 H 0.74093 0.95162 0.44632 0.0
H614 H 0.76425 0.95034 0.40296 0.0
C615 C 0.85658 0.15006 0.40159 0.0
C616 C 0.87807 0.1911 0.41036 0.0
C617 C 0.86193 0.18574 0.42398 0.0
C618 C 0.82852 0.13868 0.42915 0.0
C619 C 0.81124 0.09804 0.42046 0.0
C620 C 0.82363 0.10357 0.40685 0.0
C621 C 0.80596 0.05424 0.4 0.0
C622 C 0.7659 0.04438 0.38941 0.0
C623 C 0.84919 0.05055 0.39366 0.0
C624 C 0.78448 0.02025 0.41202 0.0
C625 C 0.78695 0.04577 0.42371 0.0
C626 C 0.77229 0.02196 0.43622 0.0
C627 C 0.75336 0.97053 0.43669 0.0
C628 C 0.75001 0.94386 0.42472 0.0
C629 C 0.76619 0.96944 0.41231 0.0
H630 H 0.02892 0.86609 0.39832 0.0
H631 H 0.03885 0.78527 0.43284 0.0
H632 H 0.94769 0.73794 0.43441 0.0
H633 H 0.93218 0.88039 0.41152 0.0
H634 H 0.90235 0.87426 0.39543 0.0
H635 H 0.96792 0.89743 0.39609 0.0
H636 H 0.95754 0.82859 0.3794 0.0
H637 H 0.89172 0.80489 0.37881 0.0
H638 H 0.91522 0.7646 0.38349 0.0
H639 H 0.85575 0.70223 0.43294 0.0
H640 H 0.77092 0.68823 0.43027 0.0
H641 H 0.82151 0.79445 0.39726 0.0
C642 C 0.01184 0.83797 0.40609 0.0
C643 C 0.04083 0.82916 0.41541 0.0
C644 C 0.01725 0.79273 0.42561 0.0
C645 C 0.96552 0.76532 0.42651 0.0
C646 C 0.93794 0.77496 0.41718 0.0
C647 C 0.96027 0.81078 0.40725 0.0
C648 C 0.92242 0.81725 0.39931 0.0
C649 C 0.93177 0.87047 0.40068 0.0
C650 C 0.92169 0.80297 0.38437 0.0
C651 C 0.8755 0.78031 0.40652 0.0
C652 C 0.88504 0.75548 0.4166 0.0
C653 C 0.8477 0.72113 0.42501 0.0
C654 C 0.7996 0.71322 0.42338 0.0
C655 C 0.78966 0.74023 0.41356 0.0
C656 C 0.82793 0.7731 0.40482 0.0
H657 H 0.36875 0.82616 0.24025 0.0
H658 H 0.45579 0.96976 0.221 0.0
H659 H 0.51981 0.94781 0.21515 0.0
H660 H 0.46472 0.82221 0.25578 0.0
H661 H 0.43927 0.75647 0.25356 0.0
H662 H 0.39873 0.7817 0.25443 0.0
H663 H 0.3608 0.74157 0.23121 0.0
H664 H 0.40186 0.71667 0.23019 0.0
H665 H 0.40065 0.75501 0.2167 0.0
H666 H 0.57746 0.9126 0.21368 0.0
H667 H 0.62587 0.8712 0.21836 0.0
H668 H 0.4984 0.7512 0.23833 0.0
C669 C 0.40097 0.85311 0.23469 0.0
C670 C 0.40747 0.89982 0.23114 0.0
C671 C 0.4502 0.93376 0.22384 0.0
C672 C 0.48643 0.92143 0.22038 0.0
C673 C 0.47869 0.87489 0.22413 0.0
C674 C 0.43687 0.84138 0.23112 0.0
C675 C 0.43867 0.79566 0.23513 0.0
C676 C 0.43519 0.78867 0.25063 0.0
C677 C 0.39809 0.74951 0.22787 0.0
C678 C 0.48928 0.80949 0.22988 0.0
C679 C 0.5115 0.85472 0.22327 0.0
C680 C 0.56012 0.8768 0.21861 0.0
C681 C 0.58724 0.85294 0.22128 0.0
C682 C 0.56567 0.80807 0.22872 0.0
C683 C 0.51562 0.78533 0.23256 0.0
H684 H 0.19802 0.71925 0.25406 0.0
H685 H 0.10842 0.72215 0.22079 0.0
H686 H 0.06618 0.63067 0.21939 0.0
H687 H 0.22044 0.63114 0.24054 0.0
H688 H 0.21872 0.602 0.25646 0.0
H689 H 0.23583 0.66621 0.25607 0.0
H690 H 0.16612 0.64881 0.2733 0.0
H691 H 0.14865 0.58427 0.27371 0.0
H692 H 0.10328 0.60189 0.26958 0.0
H693 H 0.04076 0.53973 0.22014 0.0
H694 H 0.0378 0.45917 0.22211 0.0
H695 H 0.14484 0.51834 0.25484 0.0
C696 C 0.16888 0.70081 0.24661 0.0
C697 C 0.15648 0.72785 0.23753 0.0
C698 C 0.11846 0.70215 0.22787 0.0
C699 C 0.09411 0.65022 0.22706 0.0
C700 C 0.10797 0.62482 0.23606 0.0
C701 C 0.14446 0.64944 0.24567 0.0
C702 C 0.15629 0.6147 0.2533 0.0
C703 C 0.21103 0.62939 0.25147 0.0
C704 C 0.14276 0.61228 0.26837 0.0
C705 C 0.1221 0.56678 0.24615 0.0
C706 C 0.09375 0.57294 0.23642 0.0
C707 C 0.06216 0.5343 0.22788 0.0
C708 C 0.06066 0.48869 0.22909 0.0
C709 C 0.09114 0.48264 0.23863 0.0
C710 C 0.12098 0.5218 0.24749 0.0
H711 H 0.50787 0.60105 0.27479 0.0
H712 H 0.57997 0.55314 0.246 0.0
H713 H 0.49923 0.48048 0.24025 0.0
H714 H 0.39733 0.46925 0.28359 0.0
H715 H 0.35698 0.49503 0.2845 0.0
H716 H 0.42057 0.53131 0.28988 0.0
H717 H 0.4317 0.60078 0.27344 0.0
H718 H 0.36927 0.56438 0.26752 0.0
H719 H 0.41977 0.58722 0.25561 0.0
H720 H 0.41231 0.43149 0.2326 0.0
H721 H 0.32531 0.40018 0.22623 0.0
H722 H 0.30883 0.48036 0.25991 0.0
C723 C 0.50677 0.57338 0.26793 0.0
C724 C 0.54965 0.58208 0.26088 0.0
C725 C 0.54745 0.54633 0.25168 0.0
C726 C 0.50164 0.50519 0.2483 0.0
C727 C 0.45909 0.50022 0.25446 0.0
C728 C 0.46141 0.53247 0.26446 0.0
C729 C 0.41057 0.52435 0.26789 0.0
C730 C 0.39546 0.50373 0.28232 0.0
C731 C 0.40773 0.572 0.26599 0.0
C732 C 0.37988 0.48573 0.25744 0.0
C733 C 0.40827 0.47152 0.24998 0.0
C734 C 0.38937 0.44103 0.23866 0.0
C735 C 0.34011 0.42411 0.23499 0.0
C736 C 0.31037 0.43798 0.24259 0.0
C737 C 0.33053 0.46873 0.25402 0.0
H738 H 0.83623 0.52628 0.75632 0.0
H739 H 0.73784 0.48962 0.72172 0.0
H740 H 0.77959 0.44948 0.71068 0.0
H741 H 0.94643 0.55183 0.73733 0.0
H742 H 0.96706 0.52436 0.74994 0.0
H743 H 0.93133 0.55272 0.75492 0.0
H744 H 0.86614 0.47112 0.76653 0.0
H745 H 0.90272 0.44347 0.76201 0.0
H746 H 0.83864 0.41417 0.75699 0.0
H747 H 0.82804 0.40953 0.70404 0.0
H748 H 0.87034 0.36058 0.70401 0.0
H749 H 0.93981 0.42652 0.74234 0.0
C750 C 0.82313 0.50955 0.74646 0.0
C751 C 0.78376 0.51116 0.73989 0.0
C752 C 0.76789 0.48881 0.72697 0.0
C753 C 0.79179 0.46652 0.72054 0.0
C754 C 0.83166 0.46727 0.7271 0.0
C755 C 0.84672 0.48751 0.73986 0.0
C756 C 0.88818 0.48033 0.74514 0.0
C757 C 0.93609 0.5303 0.74694 0.0
C758 C 0.87299 0.45047 0.75844 0.0
C759 C 0.89277 0.45108 0.73356 0.0
C760 C 0.86058 0.44495 0.72311 0.0
C761 C 0.85407 0.41476 0.712 0.0
C762 C 0.8785 0.38743 0.71201 0.0
C763 C 0.90876 0.39056 0.72307 0.0
C764 C 0.91826 0.4249 0.73355 0.0
H765 H 0.56907 0.50198 0.7726 0.0
H766 H 0.54329 0.53733 0.73214 0.0
H767 H 0.47557 0.4514 0.7291 0.0
H768 H 0.56672 0.40045 0.76471 0.0
H769 H 0.53569 0.36268 0.77927 0.0
H770 H 0.56846 0.42893 0.78077 0.0
H771 H 0.48986 0.42814 0.78944 0.0
H772 H 0.45687 0.3614 0.78855 0.0
H773 H 0.43316 0.39607 0.77988 0.0
H774 H 0.43151 0.36115 0.72774 0.0
H775 H 0.40231 0.27204 0.72939 0.0
H776 H 0.45565 0.29191 0.77082 0.0
C777 C 0.54643 0.49225 0.76355 0.0
C778 C 0.55992 0.52618 0.75274 0.0
C779 C 0.53211 0.51198 0.74064 0.0
C780 C 0.4939 0.46315 0.73882 0.0
C781 C 0.48418 0.42921 0.74921 0.0
C782 C 0.50864 0.44325 0.76153 0.0
C783 C 0.49734 0.39828 0.77008 0.0
C784 C 0.54488 0.3976 0.77392 0.0
C785 C 0.46751 0.39582 0.78273 0.0
C786 C 0.46598 0.35706 0.76024 0.0
C787 C 0.45827 0.37579 0.74837 0.0
C788 C 0.43584 0.34585 0.73714 0.0
C789 C 0.42011 0.29537 0.73811 0.0
C790 C 0.42677 0.27513 0.75024 0.0
C791 C 0.44957 0.30637 0.76149 0.0
H792 H 0.50507 0.11961 0.72625 0.0
H793 H 0.454 0.01582 0.75983 0.0
H794 H 0.53732 0.02573 0.76189 0.0
H795 H 0.59568 0.08388 0.71219 0.0
H796 H 0.63859 0.14732 0.70772 0.0
H797 H 0.57291 0.12456 0.70727 0.0
H798 H 0.58533 0.19569 0.72333 0.0
H799 H 0.65068 0.21808 0.72407 0.0
H800 H 0.61503 0.2025 0.7395 0.0
H801 H 0.62834 0.0597 0.76328 0.0
H802 H 0.71964 0.10773 0.76202 0.0
H803 H 0.71029 0.18672 0.72697 0.0
C804 C 0.51107 0.09782 0.73376 0.0
C805 C 0.47344 0.06713 0.7429 0.0
C806 C 0.48243 0.03928 0.75266 0.0
C807 C 0.52958 0.04471 0.75392 0.0
C808 C 0.56662 0.0772 0.74515 0.0
C809 C 0.55759 0.10237 0.73504 0.0
C810 C 0.6045 0.13821 0.72768 0.0
C811 C 0.60281 0.12253 0.71283 0.0
C812 C 0.61444 0.19176 0.72872 0.0
C813 C 0.6417 0.13131 0.73574 0.0
C814 C 0.61916 0.09572 0.7457 0.0
C815 C 0.6464 0.08666 0.75529 0.0
C816 C 0.69809 0.11445 0.75459 0.0
C817 C 0.72165 0.15057 0.74435 0.0
C818 C 0.69306 0.15867 0.73475 0.0
H819 H 0.08909 0.24396 0.55452 0.0
H820 H 0.10064 0.30046 0.59519 0.0
H821 H 0.17416 0.29172 0.5993 0.0
H822 H 0.10822 0.15296 0.56159 0.0
H823 H 0.14532 0.15637 0.54718 0.0
H824 H 0.10365 0.18012 0.54591 0.0
H825 H 0.1754 0.26621 0.53877 0.0
H826 H 0.21748 0.24244 0.53963 0.0
H827 H 0.23021 0.29696 0.54914 0.0
H828 H 0.22749 0.25406 0.60103 0.0
H829 H 0.2672 0.20267 0.59909 0.0
H830 H 0.2265 0.17632 0.5567 0.0
C831 C 0.10906 0.25706 0.56399 0.0
C832 C 0.0904 0.2736 0.57449 0.0
C833 C 0.11561 0.28889 0.58697 0.0
C834 C 0.15715 0.28384 0.58938 0.0
C835 C 0.17321 0.26462 0.57905 0.0
C836 C 0.15095 0.25302 0.56642 0.0
C837 C 0.17108 0.22732 0.55763 0.0
C838 C 0.1296 0.17619 0.55282 0.0
C839 C 0.2003 0.26021 0.54558 0.0
C840 C 0.20505 0.22253 0.56765 0.0
C841 C 0.20618 0.24471 0.5799 0.0
C842 C 0.2286 0.23833 0.59134 0.0
C843 C 0.25046 0.2087 0.59021 0.0
C844 C 0.2501 0.18645 0.57771 0.0
C845 C 0.22814 0.19424 0.56624 0.0
H846 H 0.74723 0.83697 0.59595 0.0
H847 H 0.66792 0.77291 0.55863 0.0
H848 H 0.69191 0.85678 0.55017 0.0
H849 H 0.73022 0.95011 0.59699 0.0
H850 H 0.79222 0.98703 0.60347 0.0
H851 H 0.75609 0.92238 0.60788 0.0
H852 H 0.82718 0.90973 0.59901 0.0
H853 H 0.86261 0.97348 0.594 0.0
H854 H 0.8474 0.92527 0.58168 0.0
H855 H 0.73951 0.94863 0.54417 0.0
H856 H 0.79872 0.03881 0.54222 0.0
H857 H 0.85057 0.03883 0.58303 0.0
C858 C 0.73266 0.84053 0.58631 0.0
C859 C 0.70544 0.79893 0.57798 0.0
C860 C 0.68791 0.80453 0.56527 0.0
C861 C 0.70183 0.85205 0.56034 0.0
C862 C 0.73258 0.89293 0.56838 0.0
C863 C 0.74673 0.88737 0.58126 0.0
C864 C 0.78529 0.93622 0.58718 0.0
C865 C 0.76471 0.94974 0.59961 0.0
C866 C 0.83342 0.93611 0.59066 0.0
C867 C 0.79264 0.96989 0.5754 0.0
C868 C 0.76142 0.94484 0.56472 0.0
C869 C 0.76355 0.96869 0.55256 0.0
C870 C 0.79762 0.01968 0.55148 0.0
C871 C 0.82967 0.04568 0.5624 0.0
C872 C 0.82712 0.02005 0.57441 0.0
H873 H 0.14385 0.93925 0.5914 0.0
H874 H 0.19206 0.89242 0.55596 0.0
H875 H 0.105 0.82786 0.55143 0.0
H876 H 0.04206 0.81636 0.6015 0.0
H877 H 0.00416 0.84202 0.60673 0.0
H878 H 0.07055 0.87875 0.60797 0.0
H879 H 0.06845 0.94727 0.59357 0.0
H880 H 0.0023 0.91031 0.59196 0.0
H881 H 0.04041 0.93214 0.57699 0.0
H882 H 0.01156 0.7756 0.54954 0.0
H883 H 0.92062 0.7338 0.55167 0.0
H884 H 0.93638 0.81855 0.58815 0.0
C885 C 0.13631 0.91465 0.58285 0.0
C886 C 0.17432 0.92055 0.574 0.0
C887 C 0.16325 0.88789 0.56292 0.0
C888 C 0.11401 0.85151 0.56024 0.0
C889 C 0.07703 0.84844 0.56883 0.0
C890 C 0.08787 0.87866 0.58005 0.0
C891 C 0.0418 0.87043 0.5873 0.0
C892 C 0.03951 0.85069 0.60173 0.0
C893 C 0.03805 0.91785 0.58745 0.0
C894 C 0.00299 0.83142 0.57827 0.0
C895 C 0.02382 0.81901 0.5677 0.0
C896 C -0.00512 0.78463 0.55787 0.0
C897 C 0.9433 0.76143 0.55912 0.0
C898 C 0.92141 0.77294 0.5701 0.0
C899 C 0.95187 0.8089 0.57965 0.0
H900 H 0.50029 0.10854 0.02463 0.0
H901 H 0.52986 0.98985 0.03417 0.0
H902 H 0.5375 0.97739 0.0099 0.0
H903 H 0.42357 0.05256 -0.00128 0.0
H904 H 0.44339 0.10548 0.98778 0.0
H905 H 0.45191 0.11412 0.00578 0.0
H906 H 0.54593 0.17353 0.0025 0.0
H907 H 0.53764 0.16599 0.9844 0.0
H908 H 0.58163 0.15351 0.99275 0.0
H909 H 0.52198 0.96401 0.98547 0.0
H910 H 0.49562 0.95848 0.96163 0.0
H911 H 0.48047 0.08824 0.96725 0.0
C912 C 0.51062 0.08153 0.02161 0.0
C913 C 0.5144 0.05012 0.03125 0.0
C914 C 0.52667 0.01424 0.02694 0.0
C915 C 0.53126 0.00696 0.01317 0.0
C916 C 0.52427 0.0364 0.00386 0.0
C917 C 0.51544 0.07384 0.00785 0.0
C918 C 0.504 0.09639 -0.00424 0.0
C919 C 0.45268 0.09182 -0.0029 0.0
C920 C 0.54474 0.15058 0.99373 0.0
C921 C 0.50477 0.06369 0.98452 0.0
C922 C 0.51696 0.02962 0.98942 0.0
C923 C 0.514 0.99148 0.98138 0.0
C924 C 0.49849 0.98827 0.96794 0.0
C925 C 0.48665 0.02325 0.96269 0.0
C926 C 0.4905 0.0618 0.97101 0.0
H927 H 0.05375 0.43744 0.96128 0.0
H928 H 0.8949 0.35127 0.95471 0.0
H929 H 0.88154 0.3406 0.97934 0.0
H930 H 0.05657 0.36658 0.99126 0.0
H931 H 0.104 0.42163 -0.00055 0.0
H932 H 0.10156 0.41764 0.98122 0.0
H933 H 0.09796 0.49886 0.98002 0.0
H934 H 0.10013 0.50297 -0.00179 0.0
H935 H 0.05006 0.50305 0.98912 0.0
H936 H 0.88446 0.34819 0.00447 0.0
H937 H 0.90415 0.37041 0.02859 0.0
H938 H 0.0609 0.449 0.01893 0.0
C939 C 0.01621 0.41548 0.965 0.0
C940 C 0.97542 0.39528 0.95605 0.0
C941 C 0.92682 0.36713 0.96135 0.0
C942 C 0.91879 0.36071 0.97533 0.0
C943 C 0.95971 0.38211 0.98388 0.0
C944 C 0.0075 0.40845 0.97894 0.0
C945 C 0.04479 0.43025 0.99034 0.0
C946 C 0.07873 0.40766 0.99058 0.0
C947 C 0.07498 0.48714 0.98936 0.0
C948 C 0.01032 0.4135 0.00242 0.0
C949 C 0.96142 0.38551 -0.00152 0.0
C950 C 0.92263 0.36924 0.00773 0.0
C951 C 0.93415 0.38224 0.02138 0.0
C952 C 0.98401 0.411 0.02561 0.0
C953 C 0.02248 0.42612 0.01602 0.0
H954 H 0.58968 0.55375 0.97794 0.0
H955 H 0.5156 0.63709 0.96894 0.0
H956 H 0.50825 0.64822 0.9934 0.0
H957 H 0.51682 0.49041 0.00737 0.0
H958 H 0.56838 0.49346 0.01646 0.0
H959 H 0.56744 0.49164 -0.00179 0.0
H960 H 0.65245 0.57269 -0.00243 0.0
H961 H 0.65359 0.57483 0.01581 0.0
H962 H 0.65987 0.62692 0.00624 0.0
H963 H 0.50982 0.65127 0.01874 0.0
H964 H 0.51894 0.64486 0.04335 0.0
H965 H 0.59189 0.55941 0.03582 0.0
C966 C 0.57178 0.57425 0.98108 0.0
C967 C 0.55323 0.59455 0.97149 0.0
C968 C 0.53009 0.62114 0.97607 0.0
C969 C 0.52575 0.62771 0.98995 0.0
C970 C 0.54465 0.60743 -0.00089 0.0
C971 C 0.56708 0.58114 0.99489 0.0
C972 C 0.58439 0.56324 0.00683 0.0
C973 C 0.55765 0.50631 0.00724 0.0
C974 C 0.64093 0.58578 0.00659 0.0
C975 C 0.56833 0.58377 0.01842 0.0
C976 C 0.54548 0.60912 0.01375 0.0
C977 C 0.52758 0.63146 0.02254 0.0
C978 C 0.53301 0.62762 0.0365 0.0
C979 C 0.55615 0.60162 0.04155 0.0
C980 C 0.57406 0.57955 0.03232 0.0
H981 H 0.09382 0.38661 0.34628 0.0
H982 H 0.97344 0.23576 0.35202 0.0
H983 H 0.97391 0.21996 0.3276 0.0
H984 H 0.0536 0.4051 0.31227 0.0
H985 H 0.11656 0.4409 0.30638 0.0
H986 H 0.10254 0.4421 0.32404 0.0
H987 H 0.16643 0.41543 0.33041 0.0
H988 H 0.17997 0.41321 0.31279 0.0
H989 H 0.16023 0.35929 0.32331 0.0
H990 H -0.00566 0.21699 0.30326 0.0
H991 H 0.0276 0.23033 0.27995 0.0
H992 H 0.13336 0.38327 0.29 0.0
C993 C 0.06659 0.35072 0.34235 0.0
C994 C 0.03366 0.31247 0.35108 0.0
C995 C -0.0009 0.26572 0.34555 0.0
C996 C -0.00094 0.25629 0.33168 0.0
C997 C 0.03342 0.29411 0.32346 0.0
C998 C 0.06595 0.34067 0.32852 0.0
C999 C 0.10079 0.37399 0.31761 0.0
C1000 C 0.09288 0.41813 0.31491 0.0
C1001 C 0.15505 0.39148 0.32125 0.0
C1002 C 0.08359 0.33844 0.30575 0.0
C1003 C 0.04468 0.29258 0.30933 0.0
C1004 C 0.02429 0.25299 0.30026 0.0
C1005 C 0.04368 0.26079 0.28709 0.0
C1006 C 0.08289 0.30785 0.28315 0.0
C1007 C 0.10304 0.34698 0.29266 0.0
H1008 H 0.69413 0.81458 0.36463 0.0
H1009 H 0.53469 0.73608 0.37036 0.0
H1010 H 0.52313 0.73805 0.34568 0.0
H1011 H 0.69767 0.89364 0.33668 0.0
H1012 H 0.74667 0.88991 0.32808 0.0
H1013 H 0.74243 0.88581 0.34629 0.0
H1014 H 0.7406 0.80175 0.34543 0.0
H1015 H 0.74504 0.8057 0.32726 0.0
H1016 H 0.69458 0.75217 0.3352 0.0
H1017 H 0.52887 0.74303 0.3203 0.0
H1018 H 0.55163 0.74906 0.29612 0.0
H1019 H 0.70718 0.82539 0.30727 0.0
C1020 C 0.65675 0.79822 0.36074 0.0
C1021 C 0.61535 0.77521 0.36944 0.0
C1022 C 0.56705 0.75401 0.3639 0.0
C1023 C 0.56006 0.75509 0.3499 0.0
C1024 C 0.60173 0.77783 0.34162 0.0
C1025 C 0.64911 0.79909 0.34684 0.0
C1026 C 0.68761 0.81882 0.33573 0.0
C1027 C 0.72053 0.87541 0.33676 0.0
C1028 C 0.71876 0.79305 0.33592 0.0
C1029 C 0.65442 0.80417 0.32342 0.0
C1030 C 0.60503 0.78101 0.32701 0.0
C1031 C 0.56745 0.76165 0.31735 0.0
C1032 C 0.58074 0.76524 0.30365 0.0
C1033 C 0.63119 0.78786 0.29979 0.0
C1034 C 0.66831 0.8084 0.30984 0.0
H1035 H 0.24054 0.94629 0.29805 0.0
H1036 H 0.3197 0.86671 0.29106 0.0
H1037 H 0.31738 0.85018 0.31563 0.0
H1038 H 0.29697 0.00128 0.33052 0.0
H1039 H 0.23999 -0.00636 0.33736 0.0
H1040 H 0.25164 0.00235 0.31942 0.0
H1041 H 0.16918 0.92106 0.31486 0.0
H1042 H 0.15764 0.91169 0.33279 0.0
H1043 H 0.15866 0.86421 0.3226 0.0
H1044 H 0.3042 0.84041 0.34085 0.0
H1045 H 0.28239 0.83934 0.36497 0.0
H1046 H 0.20837 0.92187 0.35504 0.0
C1047 C 0.25832 0.92627 0.3017 0.0
C1048 C 0.28071 0.90816 0.29267 0.0
C1049 C 0.30255 0.88113 0.29782 0.0
C1050 C 0.30135 0.8715 0.31174 0.0
C1051 C 0.27785 0.88884 0.32031 0.0
C1052 C 0.25686 0.91577 0.31549 0.0
C1053 C 0.23193 0.92833 0.32671 0.0
C1054 C 0.25663 0.98475 0.32862 0.0
C1055 C 0.17604 0.90491 0.32408 0.0
C1056 C 0.24204 0.90412 0.3386 0.0
C1057 C 0.26881 0.88178 0.33473 0.0
C1058 C 0.2832 0.85773 0.34401 0.0
C1059 C 0.27055 0.85722 0.35766 0.0
C1060 C 0.24338 0.88019 0.36185 0.0
C1061 C 0.22856 0.90339 0.35213 0.0
H1062 H 0.71399 0.60695 0.6959 0.0
H1063 H 0.79409 0.76401 0.70543 0.0
H1064 H 0.80759 0.78366 0.68104 0.0
H1065 H 0.79246 0.61282 0.66932 0.0
H1066 H 0.74357 0.56675 0.65894 0.0
H1067 H 0.73666 0.56476 0.67707 0.0
H1068 H 0.65505 0.56694 0.6746 0.0
H1069 H 0.66136 0.56829 0.65644 0.0
H1070 H 0.65483 0.6159 0.66494 0.0
H1071 H 0.81507 0.78617 0.65573 0.0
H1072 H 0.81415 0.77134 0.63113 0.0
H1073 H 0.73136 0.61259 0.63828 0.0
C1074 C 0.73358 0.64549 0.69285 0.0
C1075 C 0.75276 0.68396 0.70255 0.0
C1076 C 0.77899 0.73393 0.69816 0.0
C1077 C 0.78688 0.74548 0.68434 0.0
C1078 C 0.76848 0.70664 0.67506 0.0
C1079 C 0.7422 0.65768 0.67912 0.0
C1080 C 0.72805 0.62291 0.66713 0.0
C1081 C 0.75161 0.58988 0.66819 0.0
C1082 C 0.67146 0.59168 0.6657 0.0
C1083 C 0.75074 0.66 0.65572 0.0
C1084 C 0.7737 0.70808 0.6605 0.0
C1085 C 0.79713 0.74868 0.65185 0.0
C1086 C 0.7965 0.73986 0.6379 0.0
C1087 C 0.77286 0.69082 0.63278 0.0
C1088 C 0.7501 0.65051 0.64187 0.0
H1089 H 0.384 0.09577 0.63542 0.0
H1090 H 0.22724 0.00557 0.62641 0.0
H1091 H 0.20822 -0.00165 0.6508 0.0
H1092 H 0.38223 0.03176 0.66734 0.0
H1093 H 0.42659 0.08882 0.6754 0.0
H1094 H 0.42844 0.08195 0.65731 0.0
H1095 H 0.42243 0.16118 0.65384 0.0
H1096 H 0.41981 0.1679 0.67188 0.0
H1097 H 0.37137 0.16465 0.66122 0.0
H1098 H 0.20515 0.00734 0.67565 0.0
H1099 H 0.21852 0.0281 0.69991 0.0
H1100 H 0.37729 0.11315 0.69298 0.0
C1101 C 0.34584 0.0734 0.63861 0.0
C1102 C 0.30711 0.05109 0.62905 0.0
C1103 C 0.25749 0.02299 0.63358 0.0
C1104 C 0.24628 0.0186 0.6474 0.0
C1105 C 0.28512 0.04243 0.65655 0.0
C1106 C 0.33393 0.06887 0.65239 0.0
C1107 C 0.36828 0.09343 0.66429 0.0
C1108 C 0.40345 0.07273 0.6662 0.0
C1109 C 0.39715 0.15015 0.66271 0.0
C1110 C 0.33097 0.0775 0.6757 0.0
C1111 C 0.28329 0.04788 0.671 0.0
C1112 C 0.24234 0.03002 0.67951 0.0
C1113 C 0.25035 0.04228 0.69327 0.0
C1114 C 0.29897 0.07223 0.69837 0.0
C1115 C 0.3397 0.09008 0.68941 0.0
H1116 H 0.85992 0.21831 0.62706 0.0
H1117 H 0.96016 0.16289 0.61853 0.0
H1118 H 0.96542 0.14963 0.64297 0.0
H1119 H 0.92012 0.28467 0.65674 0.0
H1120 H 0.8637 0.27025 0.66546 0.0
H1121 H 0.86589 0.27279 0.64725 0.0
H1122 H 0.79107 0.18334 0.64614 0.0
H1123 H 0.7888 0.18047 0.66438 0.0
H1124 H 0.79423 0.13412 0.65483 0.0
H1125 H 0.96262 0.14589 0.66852 0.0
H1126 H 0.95329 0.15405 0.69312 0.0
H1127 H 0.85438 0.21105 0.68458 0.0
C1128 C 0.88275 0.2031 0.63029 0.0
C1129 C 0.90956 0.19164 0.62085 0.0
C1130 C 0.93919 0.17196 0.62555 0.0
C1131 C 0.94235 0.16414 0.63942 0.0
C1132 C 0.9155 0.17595 0.64844 0.0
C1133 C 0.88628 0.19499 0.64406 0.0
C1134 C 0.8625 0.20627 0.65584 0.0
C1135 C 0.87907 0.26178 0.65635 0.0
C1136 C 0.80579 0.17412 0.65526 0.0
C1137 C 0.88358 0.19138 0.66753 0.0
C1138 C 0.91378 0.17364 0.6631 0.0
C1139 C 0.93872 0.15937 0.67213 0.0
C1140 C 0.93317 0.16408 0.68608 0.0
C1141 C 0.90304 0.18307 0.69081 0.0
C1142 C 0.87748 0.19611 0.68134 0.0
H1143 H 0.33304 -0.00315 0.18974 0.0
H1144 H 0.17734 0.88787 0.18493 0.0
H1145 H 0.18708 0.89754 0.15997 0.0
H1146 H 0.34373 0.07628 0.1613 0.0
H1147 H 0.40506 0.08828 0.15719 0.0
H1148 H 0.38373 0.07629 0.17448 0.0
H1149 H 0.40328 0.00468 0.17564 0.0
H1150 H 0.42433 0.01618 0.15836 0.0
H1151 H 0.37604 0.95537 0.16335 0.0
H1152 H 0.21669 0.91632 0.13529 0.0
H1153 H 0.26305 0.94035 0.11362 0.0
H1154 H 0.39888 0.0341 0.13563 0.0
C1155 C 0.30056 0.97535 0.18353 0.0
C1156 C 0.25434 0.94161 0.18931 0.0
C1157 C 0.21308 0.91412 0.18072 0.0
C1158 C 0.21828 0.91942 0.16655 0.0
C1159 C 0.26487 0.9524 0.16123 0.0
C1160 C 0.30515 0.97992 0.16952 0.0
C1161 C 0.35204 0.0104 0.16151 0.0
C1162 C 0.37231 0.06611 0.16375 0.0
C1163 C 0.39119 -0.00425 0.16492 0.0
C1164 C 0.33232 -0.00497 0.14734 0.0
C1165 C 0.28189 0.96215 0.14728 0.0
C1166 C 0.25609 0.94226 0.13524 0.0
C1167 C 0.28271 0.95612 0.123 0.0
C1168 C 0.33459 0.9889 0.12297 0.0
C1169 C 0.35931 0.00876 0.13532 0.0
H1170 H 0.00308 0.41606 0.13257 0.0
H1171 H 0.14741 0.53717 0.12126 0.0
H1172 H 0.18281 0.52531 0.14249 0.0
H1173 H 0.01646 0.44154 0.16968 0.0
H1174 H 0.98227 0.37634 0.17358 0.0
H1175 H 0.96858 0.39911 0.15837 0.0
H1176 H 0.98264 0.33697 0.14429 0.0
H1177 H -0.00213 0.31505 0.15938 0.0
H1178 H 0.0411 0.33858 0.14548 0.0
H1179 H 0.20366 0.49141 0.16338 0.0
H1180 H 0.20578 0.44823 0.18423 0.0
H1181 H 0.04663 0.35175 0.18177 0.0
C1182 C 0.0418 0.44111 0.13481 0.0
C1183 C 0.0726 0.47772 0.12545 0.0
C1184 C 0.1232 0.50951 0.12851 0.0
C1185 C 0.14362 0.50267 0.14044 0.0
C1186 C 0.11255 0.46454 0.1492 0.0
C1187 C 0.06242 0.43526 0.14669 0.0
C1188 C 0.03708 0.39591 0.15741 0.0
C1189 C -0.00115 0.40372 0.16522 0.0
C1190 C 0.01329 0.34355 0.15126 0.0
C1191 C 0.08093 0.40664 0.16618 0.0
C1192 C 0.12425 0.44609 0.16128 0.0
C1193 C 0.16983 0.46102 0.16743 0.0
C1194 C 0.17077 0.43595 0.17915 0.0
C1195 C 0.12633 0.39684 0.18459 0.0
C1196 C 0.08112 0.38179 0.17788 0.0
H1197 H 0.62102 0.64246 0.20792 0.0
H1198 H 0.78048 0.73011 0.20457 0.0
H1199 H 0.77594 0.69819 0.18129 0.0
H1200 H 0.60274 0.53505 0.18579 0.0
H1201 H 0.54709 0.52927 0.17852 0.0
H1202 H 0.56363 0.55005 0.19578 0.0
H1203 H 0.55929 0.62901 0.19021 0.0
H1204 H 0.54308 0.60873 0.17298 0.0
H1205 H 0.59616 0.66852 0.1765 0.0
H1206 H 0.75359 0.66829 0.15779 0.0
H1207 H 0.71562 0.64484 0.13519 0.0
H1208 H 0.56944 0.57706 0.15331 0.0
C1209 C 0.65493 0.65321 0.2024 0.0
C1210 C 0.7012 0.68757 0.20794 0.0
C1211 C 0.74495 0.70292 0.20043 0.0
C1212 C 0.74262 0.68487 0.18728 0.0
C1213 C 0.69621 0.65175 0.1819 0.0
C1214 C 0.65308 0.63588 0.18923 0.0
C1215 C 0.60771 0.60574 0.1805 0.0
C1216 C 0.57858 0.55182 0.18544 0.0
C1217 C 0.57466 0.62945 0.18002 0.0
C1218 C 0.63197 0.60927 0.16694 0.0
C1219 C 0.68305 0.63501 0.16808 0.0
C1220 C 0.71372 0.64726 0.15681 0.0
C1221 C 0.69176 0.63401 0.144 0.0
C1222 C 0.63959 0.609 0.14254 0.0
C1223 C 0.60934 0.59521 0.15418 0.0
H1224 H 0.9575 0.33448 0.85328 0.0
H1225 H 0.02137 0.49289 0.84752 0.0
H1226 H 0.00952 0.47986 0.82272 0.0
H1227 H 0.00873 0.31014 0.82409 0.0
H1228 H 0.95404 0.25169 0.82047 0.0
H1229 H 0.9678 0.27397 0.83764 0.0
H1230 H 0.88154 0.26669 0.83966 0.0
H1231 H 0.86755 0.24454 0.82247 0.0
H1232 H 0.86358 0.29802 0.82752 0.0
H1233 H -0.00556 0.44929 0.79854 0.0
H1234 H 0.97353 0.40339 0.77685 0.0
H1235 H 0.91493 0.26485 0.7989 0.0
C1236 C 0.96928 0.36652 0.8468 0.0
C1237 C -0.00915 0.41477 0.85225 0.0
C1238 C 0.00489 0.45564 0.8435 0.0
C1239 C -0.00169 0.44858 0.82944 0.0
C1240 C 0.9769 0.4004 0.82441 0.0
C1241 C 0.96218 0.36007 0.83285 0.0
C1242 C 0.9394 0.31204 0.82498 0.0
C1243 C 0.96929 0.28542 0.82691 0.0
C1244 C 0.88478 0.27835 0.82889 0.0
C1245 C 0.94437 0.33164 0.81073 0.0
C1246 C 0.96626 0.3827 0.81059 0.0
C1247 C 0.97683 0.4093 0.79853 0.0
C1248 C 0.96498 0.38297 0.78629 0.0
C1249 C 0.94234 0.33064 0.78626 0.0
C1250 C 0.93149 0.30477 0.79864 0.0
H1251 H 0.59236 0.5756 0.86149 0.0
H1252 H 0.73358 0.62447 0.88119 0.0
H1253 H 0.77213 0.62926 0.85889 0.0
H1254 H 0.60515 0.50362 0.83426 0.0
H1255 H 0.57671 0.52385 0.82184 0.0
H1256 H 0.55929 0.51939 0.83941 0.0
H1257 H 0.58121 0.61134 0.83917 0.0
H1258 H 0.59852 0.61602 0.82161 0.0
H1259 H 0.64208 0.6584 0.83382 0.0
H1260 H 0.79505 0.62912 0.83435 0.0
H1261 H 0.80302 0.63396 0.80934 0.0
H1262 H 0.64832 0.59204 0.80584 0.0
C1263 C 0.63123 0.5866 0.86109 0.0
C1264 C 0.66002 0.59912 0.87299 0.0
C1265 C 0.71101 0.61463 0.87213 0.0
C1266 C 0.73308 0.61715 0.85954 0.0
C1267 C 0.70371 0.60477 0.84795 0.0
C1268 C 0.65404 0.59046 0.84861 0.0
C1269 C 0.63168 0.58341 0.83462 0.0
C1270 C 0.59079 0.52935 0.8324 0.0
C1271 C 0.61225 0.61945 0.83216 0.0
C1272 C 0.67661 0.5964 0.82598 0.0
C1273 C 0.71755 0.60757 0.83384 0.0
C1274 C 0.76327 0.62052 0.82808 0.0
C1275 C 0.76742 0.623 0.81391 0.0
C1276 C 0.72636 0.61362 0.80573 0.0
C1277 C 0.68037 0.59969 0.81188 0.0
H1278 H 0.33845 0.10383 0.80973 0.0
H1279 H 0.31447 0.96623 0.79166 0.0
H1280 H 0.31388 0.93324 0.81416 0.0
H1281 H 0.42114 0.11136 0.83472 0.0
H1282 H 0.39859 0.13498 0.84792 0.0
H1283 H 0.39165 0.14668 0.83044 0.0
H1284 H 0.29704 0.10751 0.83392 0.0
H1285 H 0.30372 0.09556 0.85144 0.0
H1286 H 0.26187 0.04552 0.84058 0.0
H1287 H 0.32645 0.91833 0.83765 0.0
H1288 H 0.34974 0.92207 0.86171 0.0
H1289 H 0.36121 0.06598 0.86554 0.0
C1290 C 0.33232 0.06653 0.81055 0.0
C1291 C 0.32671 0.03786 0.79889 0.0
C1292 C 0.31915 0.98925 0.80039 0.0
C1293 C 0.31838 0.96985 0.81316 0.0
C1294 C 0.3247 -0.00086 0.8244 0.0
C1295 C 0.33122 0.04626 0.82332 0.0
C1296 C 0.34039 0.07074 0.83712 0.0
C1297 C 0.39095 0.11877 0.83757 0.0
C1298 C 0.29823 0.08039 0.84099 0.0
C1299 C 0.33993 0.03067 0.84594 0.0
C1300 C 0.33035 0.98956 0.83835 0.0
C1301 C 0.33277 0.94966 0.84383 0.0
C1302 C 0.34611 0.95211 0.85743 0.0
C1303 C 0.35615 -0.00621 0.86536 0.0
C1304 C 0.35213 0.03314 0.85967 0.0
H1305 H 0.9082 0.25182 0.51089 0.0
H1306 H 0.05156 0.31718 0.53066 0.0
H1307 H 0.09271 0.33623 0.50838 0.0
H1308 H 0.93625 0.19705 0.48284 0.0
H1309 H 0.90226 0.21141 0.47065 0.0
H1310 H 0.88367 0.2021 0.48818 0.0
H1311 H 0.89061 0.28851 0.48884 0.0
H1312 H 0.90898 0.29794 0.4713 0.0
H1313 H 0.9478 0.34243 0.48387 0.0
H1314 H 0.11816 0.34428 0.48406 0.0
H1315 H 0.12656 0.34882 0.45908 0.0
H1316 H 0.96745 0.28375 0.45518 0.0
C1317 C 0.94822 0.27019 0.51049 0.0
C1318 C 0.97672 0.28298 0.52246 0.0
C1319 C 0.02904 0.30738 0.52159 0.0
C1320 C 0.05277 0.31811 0.509 0.0
C1321 C 0.02367 0.30484 0.49738 0.0
C1322 C 0.97262 0.28209 0.49799 0.0
C1323 C 0.95026 0.27331 0.48395 0.0
C1324 C 0.9161 0.21766 0.48125 0.0
C1325 C 0.9228 0.30229 0.48187 0.0
C1326 C -0.00331 0.2943 0.4754 0.0
C1327 C 0.03859 0.31173 0.48334 0.0
C1328 C 0.0857 0.33122 0.47772 0.0
C1329 C 0.09011 0.33347 0.46356 0.0
C1330 C 0.04773 0.31707 0.45529 0.0
C1331 C 0.00052 0.29718 0.46131 0.0
H1332 H 0.70576 0.7567 0.47471 0.0
H1333 H 0.5645 0.62768 0.46507 0.0
H1334 H 0.56301 0.59195 0.48763 0.0
H1335 H 0.75512 0.6885 0.49129 0.0
H1336 H 0.78912 0.73575 0.50377 0.0
H1337 H 0.77722 0.75269 0.48734 0.0
H1338 H 0.73554 0.79777 0.49859 0.0
H1339 H 0.74777 0.7814 0.51506 0.0
H1340 H 0.68544 0.76457 0.51039 0.0
H1341 H 0.57573 0.57281 0.51169 0.0
H1342 H 0.60514 0.56837 0.53474 0.0
H1343 H 0.74241 0.70488 0.52721 0.0
C1344 C 0.67429 0.72127 0.47748 0.0
C1345 C 0.63478 0.6951 0.46841 0.0
C1346 C 0.59477 0.64823 0.47207 0.0
C1347 C 0.59367 0.62776 0.4848 0.0
C1348 C 0.63351 0.65424 0.49352 0.0
C1349 C 0.67336 0.69968 0.48996 0.0
C1350 C 0.71278 0.71925 0.50082 0.0
C1351 C 0.76143 0.72432 0.49548 0.0
C1352 C 0.72082 0.76866 0.50655 0.0
C1353 C 0.68866 0.67804 0.51113 0.0
C1354 C 0.64264 0.64118 0.50684 0.0
C1355 C 0.61205 0.60097 0.51507 0.0
C1356 C 0.62894 0.59865 0.52808 0.0
C1357 C 0.67632 0.63562 0.53247 0.0
C1358 C 0.70662 0.67542 0.52385 0.0
H1359 H 0.23483 0.92816 0.47134 0.0
H1360 H 0.28762 0.06948 0.4511 0.0
H1361 H 0.31538 0.11266 0.47302 0.0
H1362 H 0.19275 0.95973 0.50256 0.0
H1363 H 0.21311 0.92625 0.51315 0.0
H1364 H 0.19378 0.90628 0.49599 0.0
H1365 H 0.27806 0.91172 0.49117 0.0
H1366 H 0.2979 0.93238 0.50825 0.0
H1367 H 0.33461 0.96925 0.49416 0.0
H1368 H 0.34111 0.14096 0.4969 0.0
H1369 H 0.3602 0.15194 0.52138 0.0
H1370 H 0.29267 0.99241 0.52585 0.0
C1371 C 0.25126 0.96807 0.47157 0.0
C1372 C 0.25889 -0.00456 0.45954 0.0
C1373 C 0.28145 0.04776 0.46021 0.0
C1374 C 0.29735 0.07266 0.4726 0.0
C1375 C 0.29056 0.04475 0.48423 0.0
C1376 C 0.26782 -0.00638 0.48385 0.0
C1377 C 0.26696 0.97268 0.49774 0.0
C1378 C 0.21347 0.93927 0.50265 0.0
C1379 C 0.29613 0.94488 0.49783 0.0
C1380 C 0.29309 0.02003 0.50592 0.0
C1381 C 0.30624 0.06117 0.49796 0.0
C1382 C 0.33087 0.10902 0.50327 0.0
C1383 C 0.3417 0.11489 0.51717 0.0
C1384 C 0.32812 0.07312 0.52554 0.0
C1385 C 0.30388 0.0252 0.51975 0.0
H1386 H 0.52813 0.40393 0.07136 0.0
H1387 H 0.45114 0.39249 0.10904 0.0
H1388 H 0.39502 0.30344 0.10476 0.0
H1389 H 0.41929 0.31322 0.05189 0.0
H1390 H 0.45406 0.28921 0.0434 0.0
H1391 H 0.48434 0.35325 0.04857 0.0
H1392 H 0.54905 0.34208 0.06233 0.0
H1393 H 0.51987 0.27878 0.05684 0.0
H1394 H 0.52785 0.29301 0.07468 0.0
H1395 H 0.35244 0.21467 0.09746 0.0
H1396 H 0.33743 0.13282 0.08988 0.0
H1397 H 0.4405 0.20283 0.05674 0.0
C1398 C 0.49928 0.38287 0.07869 0.0
C1399 C 0.49406 0.40523 0.09052 0.0
C1400 C 0.45607 0.37615 0.09991 0.0
C1401 C 0.42351 0.32568 0.09748 0.0
C1402 C 0.42919 0.30501 0.08557 0.0
C1403 C 0.46655 0.33264 0.07642 0.0
C1404 C 0.46842 0.3008 0.06517 0.0
C1405 C 0.45576 0.31498 0.05144 0.0
C1406 C 0.51927 0.30382 0.06475 0.0
C1407 C 0.42782 0.25045 0.06977 0.0
C1408 C 0.40456 0.25371 0.08134 0.0
C1409 C 0.36966 0.21161 0.08827 0.0
C1410 C 0.36094 0.16517 0.08381 0.0
C1411 C 0.38781 0.16175 0.07272 0.0
C1412 C 0.41902 0.20454 0.06514 0.0
H1413 H 0.61191 0.21934 0.07965 0.0
H1414 H 0.60565 0.12323 0.11232 0.0
H1415 H 0.69657 0.1728 0.11473 0.0
H1416 H 0.71178 0.22783 0.06381 0.0
H1417 H 0.7393 0.29182 0.05879 0.0
H1418 H 0.67358 0.2555 0.06135 0.0
H1419 H 0.67688 0.31892 0.07894 0.0
H1420 H 0.74257 0.35638 0.07615 0.0
H1421 H 0.71906 0.33649 0.09304 0.0
H1422 H 0.78935 0.22516 0.11095 0.0
H1423 H 0.875 0.28217 0.10308 0.0
H1424 H 0.81728 0.34061 0.07264 0.0
C1425 C 0.62944 0.20967 0.08761 0.0
C1426 C 0.60192 0.16756 0.09577 0.0
C1427 C 0.62612 0.15576 0.10603 0.0
C1428 C 0.67775 0.1835 0.10743 0.0
C1429 C 0.70415 0.22312 0.09863 0.0
C1430 C 0.68059 0.23681 0.08913 0.0
C1431 C 0.71706 0.27811 0.08015 0.0
C1432 C 0.70999 0.26233 0.06515 0.0
C1433 C 0.7137 0.32527 0.0822 0.0
C1434 C 0.76478 0.28426 0.08572 0.0
C1435 C 0.75696 0.2527 0.09643 0.0
C1436 C 0.79598 0.25062 0.10271 0.0
C1437 C 0.84435 0.28267 0.09809 0.0
C1438 C 0.85282 0.31585 0.08727 0.0
C1439 C 0.81227 0.31597 0.08099 0.0
H1440 H 0.72819 0.56903 0.06758 0.0
H1441 H 0.78885 0.68337 0.09848 0.0
H1442 H 0.86658 0.68049 0.09827 0.0
H1443 H 0.76951 0.49661 0.08091 0.0
H1444 H 0.78354 0.47732 0.06511 0.0
H1445 H 0.73705 0.4952 0.06565 0.0
H1446 H 0.78329 0.56126 0.04704 0.0
H1447 H 0.82973 0.54305 0.04627 0.0
H1448 H 0.84765 0.60685 0.04937 0.0
H1449 H 0.93089 0.65434 0.09757 0.0
H1450 H 0.97893 0.61128 0.09523 0.0
H1451 H 0.87542 0.51494 0.06465 0.0
C1452 C 0.75833 0.59455 0.07402 0.0
C1453 C 0.75256 0.62637 0.08305 0.0
C1454 C 0.79268 0.65895 0.0914 0.0
C1455 C 0.83693 0.65753 0.09136 0.0
C1456 C 0.8405 0.62396 0.08276 0.0
C1457 C 0.80252 0.59369 0.07407 0.0
C1458 C 0.81332 0.55753 0.06678 0.0
C1459 C 0.77351 0.50351 0.06981 0.0
C1460 C 0.81884 0.56782 0.05146 0.0
C1461 C 0.86227 0.57056 0.07318 0.0
C1462 C 0.87773 0.6093 0.08226 0.0
C1463 C 0.91975 0.62473 0.09026 0.0
C1464 C 0.94655 0.59983 0.08894 0.0
C1465 C 0.93099 0.5599 0.07972 0.0
C1466 C 0.8887 0.54576 0.07165 0.0
H1467 H 0.38586 0.54477 0.92492 0.0
H1468 H 0.41674 0.51209 0.88447 0.0
H1469 H 0.32704 0.46227 0.87997 0.0
H1470 H 0.28055 0.42542 0.93145 0.0
H1471 H 0.24733 0.45 0.94048 0.0
H1472 H 0.31401 0.48307 0.94055 0.0
H1473 H 0.31574 0.56175 0.93119 0.0
H1474 H 0.2492 0.52932 0.93146 0.0
H1475 H 0.28185 0.55726 0.91595 0.0
H1476 H 0.23344 0.4165 0.87991 0.0
H1477 H 0.14452 0.38784 0.8834 0.0
H1478 H 0.17707 0.44875 0.92409 0.0
C1479 C 0.37394 0.52761 0.91505 0.0
C1480 C 0.40832 0.53236 0.90506 0.0
C1481 C 0.39102 0.50907 0.8923 0.0
C1482 C 0.34018 0.48032 0.88968 0.0
C1483 C 0.30732 0.47513 0.89994 0.0
C1484 C 0.32358 0.49864 0.91231 0.0
C1485 C 0.28098 0.48861 0.92151 0.0
C1486 C 0.28073 0.46007 0.93425 0.0
C1487 C 0.282 0.5371 0.92523 0.0
C1488 C 0.23813 0.45654 0.9123 0.0
C1489 C 0.25383 0.44852 0.89996 0.0
C1490 C 0.22062 0.42216 0.88958 0.0
C1491 C 0.17022 0.40564 0.89168 0.0
C1492 C 0.15413 0.41615 0.90401 0.0
C1493 C 0.18834 0.44005 0.91458 0.0
H1494 H 0.48992 0.87304 0.92718 0.0
H1495 H 0.52297 0.91475 0.88485 0.0
H1496 H 0.57875 0.87977 0.88447 0.0
H1497 H 0.61353 0.89802 0.93679 0.0
H1498 H 0.58921 0.84569 0.94812 0.0
H1499 H 0.55539 0.8778 0.94531 0.0
H1500 H 0.47775 0.79563 0.93794 0.0
H1501 H 0.51089 0.76337 0.94115 0.0
H1502 H 0.48361 0.75889 0.92474 0.0
H1503 H 0.62539 0.83401 0.88837 0.0
H1504 H 0.64829 0.77174 0.89531 0.0
H1505 H 0.58686 0.76442 0.93515 0.0
C1506 C 0.50881 0.87497 0.91779 0.0
C1507 C 0.50198 0.8965 0.90604 0.0
C1508 C 0.52751 0.8982 0.89398 0.0
C1509 C 0.55975 0.87905 0.89372 0.0
C1510 C 0.56643 0.85906 0.90562 0.0
C1511 C 0.54127 0.85663 0.91739 0.0
C1512 C 0.55138 0.82987 0.92854 0.0
C1513 C 0.57903 0.86496 0.94039 0.0
C1514 C 0.50306 0.78424 0.93336 0.0
C1515 C 0.58439 0.81542 0.92104 0.0
C1516 C 0.59381 0.83357 0.90793 0.0
C1517 C 0.61916 0.82043 0.89869 0.0
C1518 C 0.63249 0.78549 0.90273 0.0
C1519 C 0.61956 0.76403 0.91577 0.0
C1520 C 0.59782 0.78121 0.92521 0.0
H1521 H 0.28469 0.82106 0.93506 0.0
H1522 H 0.21901 0.88565 0.90928 0.0
H1523 H 0.14825 0.80245 0.90488 0.0
H1524 H 0.2624 0.72653 0.915 0.0
H1525 H 0.24749 0.68001 0.92784 0.0
H1526 H 0.28673 0.74433 0.93192 0.0
H1527 H 0.22803 0.73768 0.95139 0.0
H1528 H 0.18911 0.67272 0.94765 0.0
H1529 H 0.16309 0.71294 0.94798 0.0
H1530 H 0.09647 0.71375 0.89905 0.0
H1531 H 0.05906 0.62419 0.89487 0.0
H1532 H 0.15692 0.61632 0.92477 0.0
C1533 C 0.25447 0.81795 0.92893 0.0
C1534 C 0.25747 0.8598 0.92246 0.0
C1535 C 0.21743 0.85418 0.9144 0.0
C1536 C 0.1771 0.80701 0.91182 0.0
C1537 C 0.17706 0.7662 0.91758 0.0
C1538 C 0.21399 0.77122 0.92628 0.0
C1539 C 0.20799 0.72135 0.92999 0.0
C1540 C 0.25387 0.7179 0.92594 0.0
C1541 C 0.19634 0.71053 0.94516 0.0
C1542 C 0.16371 0.68778 0.92137 0.0
C1543 C 0.1462 0.71436 0.91439 0.0
C1544 C 0.10891 0.69231 0.90473 0.0
C1545 C 0.08844 0.6416 0.90229 0.0
C1546 C 0.10525 0.61353 0.90951 0.0
C1547 C 0.14308 0.6369 0.91924 0.0
H1548 H 0.21583 0.72884 0.40707 0.0
H1549 H 0.12506 0.73017 0.44027 0.0
H1550 H 0.0735 0.63898 0.43875 0.0
H1551 H 0.11892 0.64014 0.38752 0.0
H1552 H 0.1525 0.6109 0.38139 0.0
H1553 H 0.18537 0.67544 0.38598 0.0
H1554 H 0.23975 0.65998 0.40294 0.0
H1555 H 0.20812 0.5957 0.39809 0.0
H1556 H 0.21039 0.61251 0.41566 0.0
H1557 H 0.02892 0.54766 0.43245 0.0
H1558 H 0.00134 0.46344 0.42373 0.0
H1559 H 0.11994 0.52545 0.394 0.0
C1560 C 0.18579 0.71007 0.41424 0.0
C1561 C 0.17453 0.73666 0.42379 0.0
C1562 C 0.13466 0.71051 0.43293 0.0
C1563 C 0.10489 0.6588 0.43206 0.0
C1564 C 0.11565 0.6341 0.42203 0.0
C1565 C 0.15564 0.6589 0.41344 0.0
C1566 C 0.15883 0.62445 0.40328 0.0
C1567 C 0.15358 0.6386 0.38868 0.0
C1568 C 0.20712 0.62306 0.40511 0.0
C1569 C 0.11422 0.57622 0.40744 0.0
C1570 C 0.08964 0.58232 0.41825 0.0
C1571 C 0.04793 0.54244 0.42399 0.0
C1572 C 0.03231 0.49481 0.41889 0.0
C1573 C 0.05843 0.48776 0.40817 0.0
C1574 C 0.09886 0.52938 0.40214 0.0
H1575 H 0.46284 0.57019 0.43006 0.0
H1576 H 0.51468 0.59471 0.3886 0.0
H1577 H 0.43141 0.53109 0.3808 0.0
H1578 H 0.36852 0.43142 0.42621 0.0
H1579 H 0.32646 0.43739 0.43753 0.0
H1580 H 0.39235 0.47551 0.43992 0.0
H1581 H 0.38313 0.55356 0.43906 0.0
H1582 H 0.3177 0.51611 0.43622 0.0
H1583 H 0.35549 0.56438 0.42436 0.0
H1584 H 0.33993 0.48066 0.37729 0.0
H1585 H 0.24846 0.43603 0.37856 0.0
H1586 H 0.25697 0.44242 0.42246 0.0
C1587 C 0.45711 0.55977 0.41946 0.0
C1588 C 0.49487 0.58571 0.40991 0.0
C1589 C 0.48618 0.57363 0.39602 0.0
C1590 C 0.43901 0.53794 0.39152 0.0
C1591 C 0.40152 0.51462 0.40112 0.0
C1592 C 0.41039 0.52396 0.41486 0.0
C1593 C 0.36292 0.49807 0.42295 0.0
C1594 C 0.36254 0.45821 0.4322 0.0
C1595 C 0.35435 0.53527 0.43111 0.0
C1596 C 0.3258 0.47508 0.41159 0.0
C1597 C 0.34867 0.48476 0.39908 0.0
C1598 C 0.32161 0.47155 0.38705 0.0
C1599 C 0.26979 0.44684 0.38785 0.0
C1600 C 0.24585 0.43556 0.40061 0.0
C1601 C 0.27435 0.44985 0.41258 0.0
H1602 H 0.52183 0.83661 0.40856 0.0
H1603 H 0.55121 0.86004 0.45169 0.0
H1604 H 0.51832 0.91802 0.45171 0.0
H1605 H 0.55313 0.96431 0.40036 0.0
H1606 H 0.50507 0.94325 0.38772 0.0
H1607 H 0.53557 0.90816 0.39104 0.0
H1608 H 0.45089 0.82941 0.39594 0.0
H1609 H 0.42046 0.8639 0.39221 0.0
H1610 H 0.40993 0.83264 0.40827 0.0
H1611 H 0.47196 0.96464 0.44717 0.0
H1612 H 0.41064 0.98727 0.43911 0.0
H1613 H 0.41857 0.93706 0.39884 0.0
C1614 C 0.52146 0.85381 0.41806 0.0
C1615 C 0.53834 0.84328 0.43017 0.0
C1616 C 0.53797 0.86733 0.44231 0.0
C1617 C 0.51994 0.90068 0.44237 0.0
C1618 C 0.50384 0.91042 0.43014 0.0
C1619 C 0.50471 0.88758 0.41823 0.0
C1620 C 0.48219 0.90076 0.40659 0.0
C1621 C 0.52134 0.93092 0.39579 0.0
C1622 C 0.43827 0.85392 0.40041 0.0
C1623 C 0.46558 0.93237 0.41393 0.0
C1624 C 0.47931 0.9387 0.42745 0.0
C1625 C 0.46223 0.96115 0.43654 0.0
C1626 C 0.42789 0.97447 0.43187 0.0
C1627 C 0.41102 0.96464 0.41832 0.0
C1628 C 0.43232 0.94622 0.40913 0.0
H1629 H 0.84361 0.73765 0.25133 0.0
H1630 H 0.84869 0.81969 0.28735 0.0
H1631 H 0.93974 0.85963 0.28766 0.0
H1632 H 0.95803 0.7272 0.25911 0.0
H1633 H 0.97526 0.73605 0.24147 0.0
H1634 H 0.91083 0.70466 0.2462 0.0
H1635 H 0.89906 0.76721 0.23168 0.0
H1636 H 0.96363 0.80003 0.22731 0.0
H1637 H 0.93608 0.83255 0.23524 0.0
H1638 H 0.02866 0.90204 0.28158 0.0
H1639 H 0.1112 0.93696 0.27113 0.0
H1640 H 0.04785 0.82957 0.23846 0.0
C1641 C 0.86379 0.76187 0.2597 0.0
C1642 C 0.83948 0.77526 0.26942 0.0
C1643 C 0.86695 0.8087 0.27992 0.0
C1644 C 0.91858 0.83164 0.28015 0.0
C1645 C 0.94182 0.8205 0.26981 0.0
C1646 C 0.91538 0.78563 0.25994 0.0
C1647 C 0.94921 0.78507 0.24904 0.0
C1648 C 0.94829 0.73529 0.24896 0.0
C1649 C 0.93619 0.79694 0.235 0.0
C1650 C -0.00164 0.82654 0.25402 0.0
C1651 C -0.0066 0.84605 0.26609 0.0
C1652 C 0.03326 0.88642 0.27227 0.0
C1653 C 0.07985 0.90632 0.26618 0.0
C1654 C 0.08597 0.88601 0.25397 0.0
C1655 C 0.04443 0.84605 0.24776 0.0
H1656 H 0.29056 0.10722 0.25897 0.0
H1657 H 0.3529 0.11048 0.21946 0.0
H1658 H 0.33572 0.17606 0.21223 0.0
H1659 H 0.19188 0.10558 0.24802 0.0
H1660 H 0.18612 0.14398 0.26072 0.0
H1661 H 0.21802 0.11108 0.26467 0.0
H1662 H 0.29705 0.19256 0.27139 0.0
H1663 H 0.26482 0.22594 0.268 0.0
H1664 H 0.32306 0.24413 0.25978 0.0
H1665 H 0.2923 0.224 0.20748 0.0
H1666 H 0.23577 0.25814 0.20666 0.0
H1667 H 0.19882 0.21935 0.24899 0.0
C1668 C 0.30302 0.12362 0.24904 0.0
C1669 C 0.32283 0.1037 0.23977 0.0
C1670 C 0.33809 0.12552 0.22679 0.0
C1671 C 0.32818 0.16265 0.22256 0.0
C1672 C 0.30393 0.17798 0.23153 0.0
C1673 C 0.29284 0.1601 0.24466 0.0
C1674 C 0.26016 0.17628 0.25166 0.0
C1675 C 0.21119 0.13157 0.25654 0.0
C1676 C 0.28795 0.21186 0.2634 0.0
C1677 C 0.25166 0.20294 0.24014 0.0
C1678 C 0.27799 0.20467 0.2287 0.0
C1679 C 0.27251 0.22398 0.21649 0.0
C1680 C 0.2399 0.24273 0.21607 0.0
C1681 C 0.21264 0.24113 0.22773 0.0
C1682 C 0.21896 0.22107 0.23987 0.0
H1683 H 0.84438 0.94397 0.2287 0.0
H1684 H 0.74186 0.96144 0.25456 0.0
H1685 H 0.7846 0.05102 0.24925 0.0
H1686 H 0.94858 0.05097 0.24006 0.0
H1687 H 0.98021 0.06629 0.22398 0.0
H1688 H 0.93622 0.0029 0.22792 0.0
H1689 H 0.88771 -0.00306 0.20598 0.0
H1690 H 0.93131 0.0608 0.20211 0.0
H1691 H 0.86618 0.04023 0.20326 0.0
H1692 H 0.84132 0.13894 0.2423 0.0
H1693 H 0.91617 0.22003 0.2379 0.0
H1694 H 0.98505 0.14559 0.21819 0.0
C1695 C 0.83058 0.96669 0.23302 0.0
C1696 C 0.78983 0.94629 0.2419 0.0
C1697 C 0.77323 0.97686 0.24772 0.0
C1698 C 0.79682 0.02748 0.24463 0.0
C1699 C 0.83716 0.04675 0.23583 0.0
C1700 C 0.85449 0.01744 0.23032 0.0
C1701 C 0.90268 0.04821 0.22284 0.0
C1702 C 0.94436 0.04172 0.22908 0.0
C1703 C 0.89658 0.0358 0.20764 0.0
C1704 C 0.91058 0.09952 0.22538 0.0
C1705 C 0.87154 0.09784 0.23246 0.0
C1706 C 0.87187 0.14079 0.23662 0.0
C1707 C 0.91427 0.18662 0.23401 0.0
C1708 C 0.9558 0.18859 0.22765 0.0
C1709 C 0.95327 0.14475 0.22291 0.0
H1710 H 0.82208 0.8444 0.74734 0.0
H1711 H 0.70799 0.79917 0.77814 0.0
H1712 H 0.73358 0.88779 0.7819 0.0
H1713 H 0.91461 0.95331 0.76413 0.0
H1714 H 0.93745 0.98715 0.7485 0.0
H1715 H 0.91028 0.92079 0.74863 0.0
H1716 H 0.84742 0.91257 0.73016 0.0
H1717 H 0.87475 0.97882 0.72984 0.0
H1718 H 0.80936 0.94019 0.73297 0.0
H1719 H 0.77277 0.98277 0.78167 0.0
H1720 H 0.81577 0.07222 0.77639 0.0
H1721 H 0.9037 0.05064 0.74595 0.0
C1722 C 0.80218 0.85256 0.75496 0.0
C1723 C 0.76301 0.81469 0.7625 0.0
C1724 C 0.73803 0.82757 0.77223 0.0
C1725 C 0.75258 0.87773 0.77448 0.0
C1726 C 0.79214 0.91402 0.76695 0.0
C1727 C 0.81625 0.90165 0.75735 0.0
C1728 C 0.85662 0.94647 0.75022 0.0
C1729 C 0.90775 0.95225 0.75305 0.0
C1730 C 0.84639 0.94437 0.7349 0.0
C1731 C 0.85114 0.98658 0.75707 0.0
C1732 C 0.81427 0.96751 0.76682 0.0
C1733 C 0.80181 -0.00206 0.77412 0.0
C1734 C 0.82666 0.04877 0.77108 0.0
C1735 C 0.86318 0.06842 0.76073 0.0
C1736 C 0.87616 0.03688 0.75393 0.0
H1737 H 0.13954 0.92678 0.73327 0.0
H1738 H 0.20773 0.88404 0.76472 0.0
H1739 H 0.1279 0.80667 0.76851 0.0
H1740 H 0.03311 0.89388 0.74948 0.0
H1741 H -0.00694 0.87118 0.7349 0.0
H1742 H 0.05705 0.91713 0.7328 0.0
H1743 H 0.06884 0.8605 0.71576 0.0
H1744 H 0.00441 0.81446 0.71762 0.0
H1745 H 0.05145 0.79809 0.72059 0.0
H1746 H 0.03694 0.74236 0.77149 0.0
H1747 H 0.94524 0.69449 0.77221 0.0
H1748 H 0.94015 0.78116 0.73845 0.0
C1749 C 0.13799 0.90035 0.74066 0.0
C1750 C 0.17926 0.91094 0.74872 0.0
C1751 C 0.17626 0.87598 0.75837 0.0
C1752 C 0.13117 0.83213 0.76059 0.0
C1753 C 0.09028 0.8238 0.75285 0.0
C1754 C 0.09376 0.85661 0.74288 0.0
C1755 C 0.04407 0.8422 0.7368 0.0
C1756 C 0.0311 0.88354 0.73862 0.0
C1757 C 0.04209 0.82794 0.7218 0.0
C1758 C 0.01158 0.79764 0.74538 0.0
C1759 C 0.03857 0.78691 0.75448 0.0
C1760 C 0.0155 0.74973 0.7642 0.0
C1761 C 0.9635 0.723 0.7646 0.0
C1762 C 0.93558 0.73416 0.75541 0.0
C1763 C 0.96026 0.77144 0.7456 0.0
H1764 H 0.19723 0.15377 0.7345 0.0
H1765 H 0.24751 0.20419 0.77552 0.0
H1766 H 0.21503 0.26204 0.77383 0.0
H1767 H 0.22263 0.27461 0.72085 0.0
H1768 H 0.16829 0.2459 0.71027 0.0
H1769 H 0.20083 0.21325 0.7142 0.0
H1770 H 0.12013 0.13917 0.7238 0.0
H1771 H 0.08745 0.17096 0.71948 0.0
H1772 H 0.08596 0.15059 0.73666 0.0
H1773 H 0.16793 0.30632 0.76849 0.0
H1774 H 0.10225 0.32371 0.76116 0.0
H1775 H 0.08789 0.24719 0.72339 0.0
C1776 C 0.20168 0.17701 0.74316 0.0
C1777 C 0.22453 0.1742 0.75518 0.0
C1778 C 0.22983 0.20557 0.76621 0.0
C1779 C 0.21211 0.23896 0.76528 0.0
C1780 C 0.19024 0.24112 0.75317 0.0
C1781 C 0.18497 0.21075 0.74233 0.0
C1782 C 0.15616 0.21632 0.73089 0.0
C1783 C 0.18896 0.23887 0.71831 0.0
C1784 C 0.10968 0.16633 0.72753 0.0
C1785 C 0.14323 0.25238 0.73726 0.0
C1786 C 0.16432 0.26752 0.74997 0.0
C1787 C 0.15225 0.29582 0.75843 0.0
C1788 C 0.11533 0.30602 0.75416 0.0
C1789 C 0.09089 0.28715 0.74167 0.0
C1790 C 0.10716 0.26288 0.73283 0.0
H1791 H 0.50544 0.07088 0.59353 0.0
H1792 H 0.45302 0.01752 0.55289 0.0
H1793 H 0.53808 0.04079 0.54601 0.0
H1794 H 0.60663 0.17519 0.58452 0.0
H1795 H 0.64739 0.17647 0.59765 0.0
H1796 H 0.58174 0.14468 0.60049 0.0
H1797 H 0.5813 0.06319 0.60599 0.0
H1798 H 0.64745 0.0951 0.60364 0.0
H1799 H 0.60847 0.03945 0.59418 0.0
H1800 H 0.63054 0.08579 0.5425 0.0
H1801 H 0.72163 0.13811 0.54345 0.0
H1802 H 0.71221 0.16273 0.5864 0.0
C1803 C 0.51148 0.06207 0.58334 0.0
C1804 C 0.47278 0.04237 0.57375 0.0
C1805 C 0.48208 0.03197 0.56045 0.0
C1806 C 0.53036 0.04542 0.55643 0.0
C1807 C 0.56841 0.06831 0.5659 0.0
C1808 C 0.55922 0.07529 0.5792 0.0
C1809 C 0.60668 0.10522 0.58707 0.0
C1810 C 0.61081 0.15321 0.59275 0.0
C1811 C 0.61125 0.07386 0.59839 0.0
C1812 C 0.64406 0.11615 0.57598 0.0
C1813 C 0.62148 0.09422 0.56387 0.0
C1814 C 0.64865 0.10221 0.552 0.0
C1815 C 0.70031 0.13246 0.55261 0.0
C1816 C 0.72409 0.15451 0.56501 0.0
C1817 C 0.6953 0.14621 0.57678 0.0
H1818 H 0.85681 0.36345 0.59394 0.0
H1819 H 0.97136 0.43151 0.56323 0.0
H1820 H 0.95293 0.49936 0.56086 0.0
H1821 H 0.771 0.38526 0.57855 0.0
H1822 H 0.74813 0.39917 0.59372 0.0
H1823 H 0.77455 0.35949 0.59458 0.0
H1824 H 0.83776 0.41671 0.61259 0.0
H1825 H 0.81089 0.45617 0.61202 0.0
H1826 H 0.87626 0.4819 0.60908 0.0
H1827 H 0.91368 0.55159 0.55919 0.0
H1828 H 0.86357 0.5924 0.56055 0.0
H1829 H 0.77651 0.49276 0.59301 0.0
C1830 C 0.87895 0.3933 0.58697 0.0
C1831 C 0.91545 0.39213 0.57875 0.0
C1832 C 0.94342 0.43174 0.5697 0.0
C1833 C 0.93311 0.47036 0.56824 0.0
C1834 C 0.89538 0.46916 0.57607 0.0
C1835 C 0.86947 0.43232 0.58548 0.0
C1836 C 0.82903 0.43838 0.59213 0.0
C1837 C 0.77766 0.39287 0.58958 0.0
C1838 C 0.83911 0.44893 0.60736 0.0
C1839 C 0.83512 0.48337 0.58461 0.0
C1840 C 0.87358 0.50044 0.57539 0.0
C1841 C 0.88412 0.53924 0.56655 0.0
C1842 C 0.85509 0.56178 0.56731 0.0
C1843 C 0.81626 0.54568 0.5769 0.0
C1844 C 0.8063 0.50606 0.58568 0.0
H1845 H 0.45296 0.29061 0.56836 0.0
H1846 H 0.47353 0.24436 0.60822 0.0
H1847 H 0.50694 0.3296 0.61657 0.0
H1848 H 0.56365 0.40385 0.56789 0.0
H1849 H 0.538 0.43624 0.55893 0.0
H1850 H 0.51127 0.37057 0.55679 0.0
H1851 H 0.42595 0.35906 0.56388 0.0
H1852 H 0.45323 0.42484 0.56653 0.0
H1853 H 0.41962 0.38228 0.58005 0.0
H1854 H 0.54418 0.41924 0.62015 0.0
H1855 H 0.59699 0.50955 0.61747 0.0
H1856 H 0.55002 0.49823 0.57571 0.0
C1857 C 0.4645 0.29832 0.57885 0.0
C1858 C 0.46046 0.26074 0.58763 0.0
C1859 C 0.47627 0.27252 0.60127 0.0
C1860 C 0.49457 0.32066 0.60618 0.0
C1861 C 0.49649 0.35642 0.59736 0.0
C1862 C 0.48269 0.34607 0.58393 0.0
C1863 C 0.49333 0.39224 0.57622 0.0
C1864 C 0.52869 0.40126 0.56427 0.0
C1865 C 0.44515 0.38941 0.57139 0.0
C1866 C 0.51778 0.43066 0.58726 0.0
C1867 C 0.51775 0.4089 0.59949 0.0
C1868 C 0.54354 0.43679 0.61075 0.0
C1869 C 0.5731 0.48801 0.60918 0.0
C1870 C 0.5765 0.51035 0.59647 0.0
C1871 C 0.54627 0.48193 0.58565 0.0
loop_
_geom_bond_atom_site_label_1
_geom_bond_atom_site_label_2
_geom_bond_distance
_geom_bond_site_symmetry_2
_ccdc_geom_bond_type
O0 Zn1 1.953 . S
O0 C16 1.225 . S
Zn1 O0 1.953 . S
Zn1 O2 1.949 . S
Zn1 O8 1.919 . S
Zn1 O13 1.924 1_545 S
O2 Zn1 1.949 . S
O2 Zn3 1.923 . S
O2 Zn4 1.950 . S
O2 Zn5 1.945 1_545 S
Zn3 O2 1.923 . S
Zn3 O6 1.933 1_545 S
Zn3 O9 1.941 . S
Zn3 O10 1.965 . S
Zn4 O2 1.950 . S
Zn4 O11 1.938 . S
Zn4 O12 1.906 . S
Zn4 O22 1.953 . S
Zn5 O2 1.945 1_565 S
Zn5 O7 1.932 . S
Zn5 O14 1.977 . S
Zn5 O15 1.910 . S
O6 Zn3 1.933 1_565 S
O6 C17 1.226 . S
O7 Zn5 1.932 . S
O7 C17 1.307 . S
O8 Zn1 1.919 . S
O8 C19 1.253 . S
O9 Zn3 1.941 . S
O9 C19 1.283 . S
O10 Zn3 1.965 . S
O10 C18 1.303 . S
O11 Zn4 1.938 . S
O11 C18 1.247 . S
O12 Zn4 1.906 . S
O12 C20 1.317 . S
O13 Zn1 1.924 1_565 S
O13 C21 1.311 . S
O14 Zn5 1.977 . S
O14 C20 1.258 1_565 S
O15 Zn5 1.910 . S
O15 C21 1.231 . S
C16 O0 1.225 . S
C16 O22 1.298 . S
C17 O6 1.226 . S
C17 O7 1.307 . S
C18 O10 1.303 . S
C18 O11 1.247 . S
C19 O8 1.253 . S
C19 O9 1.283 . S
C20 O12 1.317 . S
C20 O14 1.258 1_545 S
C21 O13 1.311 . S
C21 O15 1.231 . S
O22 Zn4 1.953 . S
O22 C16 1.298 . S
O23 Zn24 1.953 1_655 S
O23 C39 1.225 . S
Zn24 O23 1.953 1_455 S
Zn24 O25 1.949 . S
Zn24 O31 1.919 . S
Zn24 O36 1.924 . S
O25 Zn24 1.949 . S
O25 Zn26 1.923 . S
O25 Zn27 1.950 1_455 S
O25 Zn28 1.945 . S
Zn26 O25 1.923 . S
Zn26 O29 1.933 . S
Zn26 O32 1.941 . S
Zn26 O33 1.965 1_455 S
Zn27 O25 1.950 1_655 S
Zn27 O34 1.938 . S
Zn27 O35 1.906 . S
Zn27 O45 1.953 . S
Zn28 O25 1.945 . S
Zn28 O30 1.932 . S
Zn28 O37 1.977 . S
Zn28 O38 1.910 . S
O29 Zn26 1.933 . S
O29 C40 1.226 . S
O30 Zn28 1.932 . S
O30 C40 1.307 . S
O31 Zn24 1.919 . S
O31 C42 1.253 . S
O32 Zn26 1.941 . S
O32 C42 1.283 . S
O33 Zn26 1.965 1_655 S
O33 C41 1.303 . S
O34 Zn27 1.938 . S
O34 C41 1.247 . S
O35 Zn27 1.906 . S
O35 C43 1.304 1_655 S
O36 Zn24 1.924 . S
O36 C44 1.311 . S
O37 Zn28 1.977 . S
O37 C43 1.272 . S
O38 Zn28 1.910 . S
O38 C44 1.231 . S
C39 O23 1.225 . S
C39 O45 1.298 . S
C40 O29 1.226 . S
C40 O30 1.307 . S
C41 O33 1.303 . S
C41 O34 1.247 . S
C42 O31 1.253 . S
C42 O32 1.283 . S
C43 O35 1.304 1_455 S
C43 O37 1.272 . S
C44 O36 1.311 . S
C44 O38 1.231 . S
O45 Zn27 1.953 . S
O45 C39 1.298 . S
O46 Zn47 1.953 . S
O46 C62 1.225 . S
Zn47 O46 1.953 . S
Zn47 O48 1.949 . S
Zn47 O54 1.919 . S
Zn47 O59 1.924 . S
O48 Zn47 1.949 . S
O48 Zn49 1.923 . S
O48 Zn50 1.950 . S
O48 Zn51 1.945 . S
Zn49 O48 1.923 . S
Zn49 O52 1.933 . S
Zn49 O55 1.941 . S
Zn49 O56 1.965 . S
Zn50 O48 1.950 . S
Zn50 O57 1.938 . S
Zn50 O58 1.906 . S
Zn50 O68 1.953 . S
Zn51 O48 1.945 . S
Zn51 O53 1.932 . S
Zn51 O60 1.977 . S
Zn51 O61 1.910 . S
O52 Zn49 1.933 . S
O52 C63 1.226 . S
O53 Zn51 1.932 . S
O53 C63 1.307 . S
O54 Zn47 1.919 . S
O54 C65 1.253 . S
O55 Zn49 1.941 . S
O55 C65 1.283 . S
O56 Zn49 1.965 . S
O56 C64 1.303 . S
O57 Zn50 1.938 . S
O57 C64 1.247 . S
O58 Zn50 1.906 . S
O58 C66 1.304 . S
O59 Zn47 1.924 . S
O59 C67 1.311 . S
O60 Zn51 1.977 . S
O60 C66 1.272 . S
O61 Zn51 1.910 . S
O61 C67 1.231 . S
C62 O46 1.225 . S
C62 O68 1.298 . S
C63 O52 1.226 . S
C63 O53 1.307 . S
C64 O56 1.303 . S
C64 O57 1.247 . S
C65 O54 1.253 . S
C65 O55 1.283 . S
C66 O58 1.304 . S
C66 O60 1.272 . S
C67 O59 1.311 . S
C67 O61 1.231 . S
O68 Zn50 1.953 . S
O68 C62 1.298 . S
O69 Zn70 1.953 . S
O69 C85 1.225 . S
Zn70 O69 1.953 . S
Zn70 O71 1.949 . S
Zn70 O77 1.919 . S
Zn70 O82 1.924 1_455 S
O71 Zn70 1.949 . S
O71 Zn72 1.923 . S
O71 Zn73 1.950 . S
O71 Zn74 1.945 1_455 S
Zn72 O71 1.923 . S
Zn72 O75 1.933 1_455 S
Zn72 O78 1.941 . S
Zn72 O79 1.965 . S
Zn73 O71 1.950 . S
Zn73 O80 1.938 . S
Zn73 O81 1.906 . S
Zn73 O91 1.953 . S
Zn74 O71 1.945 1_655 S
Zn74 O76 1.932 . S
Zn74 O83 1.977 . S
Zn74 O84 1.910 . S
O75 Zn72 1.933 1_655 S
O75 C86 1.226 . S
O76 Zn74 1.932 . S
O76 C86 1.307 . S
O77 Zn70 1.919 . S
O77 C88 1.253 . S
O78 Zn72 1.941 . S
O78 C88 1.283 . S
O79 Zn72 1.965 . S
O79 C87 1.303 . S
O80 Zn73 1.938 . S
O80 C87 1.247 . S
O81 Zn73 1.906 . S
O81 C89 1.317 . S
O82 Zn70 1.924 1_655 S
O82 C90 1.311 . S
O83 Zn74 1.977 . S
O83 C89 1.258 1_655 S
O84 Zn74 1.910 . S
O84 C90 1.231 . S
C85 O69 1.225 . S
C85 O91 1.298 . S
C86 O75 1.226 . S
C86 O76 1.307 . S
C87 O79 1.303 . S
C87 O80 1.247 . S
C88 O77 1.253 . S
C88 O78 1.283 . S
C89 O81 1.317 . S
C89 O83 1.258 1_455 S
C90 O82 1.311 . S
C90 O84 1.231 . S
O91 Zn73 1.953 . S
O91 C85 1.298 . S
O92 Zn93 1.953 . S
O92 C108 1.225 . S
Zn93 O92 1.953 . S
Zn93 O94 1.949 . S
Zn93 O100 1.919 . S
Zn93 O105 1.924 . S
O94 Zn93 1.949 . S
O94 Zn95 1.923 . S
O94 Zn96 1.950 . S
O94 Zn97 1.945 . S
Zn95 O94 1.923 . S
Zn95 O98 1.933 . S
Zn95 O101 1.941 . S
Zn95 O102 1.965 . S
Zn96 O94 1.950 . S
Zn96 O103 1.938 . S
Zn96 O104 1.906 . S
Zn96 O114 1.953 . S
Zn97 O94 1.945 . S
Zn97 O99 1.932 . S
Zn97 O106 1.977 . S
Zn97 O107 1.910 . S
O98 Zn95 1.933 . S
O98 C109 1.226 . S
O99 Zn97 1.932 . S
O99 C109 1.307 . S
O100 Zn93 1.919 . S
O100 C111 1.253 . S
O101 Zn95 1.941 . S
O101 C111 1.283 . S
O102 Zn95 1.965 . S
O102 C110 1.303 . S
O103 Zn96 1.938 . S
O103 C110 1.247 . S
O104 Zn96 1.906 . S
O104 C112 1.304 . S
O105 Zn93 1.924 . S
O105 C113 1.311 . S
O106 Zn97 1.977 . S
O106 C112 1.272 . S
O107 Zn97 1.910 . S
O107 C113 1.231 . S
C108 O92 1.225 . S
C108 O114 1.298 . S
C109 O98 1.226 . S
C109 O99 1.307 . S
C110 O102 1.303 . S
C110 O103 1.247 . S
C111 O100 1.253 . S
C111 O101 1.283 . S
C112 O104 1.304 . S
C112 O106 1.272 . S
C113 O105 1.311 . S
C113 O107 1.231 . S
O114 Zn96 1.953 . S
O114 C108 1.298 . S
O115 Zn116 1.953 1_565 S
O115 C131 1.225 . S
Zn116 O115 1.953 1_545 S
Zn116 O117 1.949 . S
Zn116 O123 1.919 . S
Zn116 O128 1.924 . S
O117 Zn116 1.949 . S
O117 Zn118 1.923 . S
O117 Zn119 1.950 1_545 S
O117 Zn120 1.945 . S
Zn118 O117 1.923 . S
Zn118 O121 1.933 . S
Zn118 O124 1.941 . S
Zn118 O125 1.965 1_545 S
Zn119 O117 1.950 1_565 S
Zn119 O126 1.938 . S
Zn119 O127 1.906 . S
Zn119 O137 1.953 . S
Zn120 O117 1.945 . S
Zn120 O122 1.932 . S
Zn120 O129 1.977 . S
Zn120 O130 1.910 . S
O121 Zn118 1.933 . S
O121 C132 1.226 . S
O122 Zn120 1.932 . S
O122 C132 1.307 . S
O123 Zn116 1.919 . S
O123 C134 1.253 . S
O124 Zn118 1.941 . S
O124 C134 1.283 . S
O125 Zn118 1.965 1_565 S
O125 C133 1.303 . S
O126 Zn119 1.938 . S
O126 C133 1.247 . S
O127 Zn119 1.906 . S
O127 C135 1.304 1_565 S
O128 Zn116 1.924 . S
O128 C136 1.311 . S
O129 Zn120 1.977 . S
O129 C135 1.272 . S
O130 Zn120 1.910 . S
O130 C136 1.231 . S
C131 O115 1.225 . S
C131 O137 1.298 . S
C132 O121 1.226 . S
C132 O122 1.307 . S
C133 O125 1.303 . S
C133 O126 1.247 . S
C134 O123 1.253 . S
C134 O124 1.283 . S
C135 O127 1.304 1_545 S
C135 O129 1.272 . S
C136 O128 1.311 . S
C136 O130 1.231 . S
O137 Zn119 1.953 . S
O137 C131 1.298 . S
O138 Zn139 1.953 . S
O138 C154 1.225 . S
Zn139 O138 1.953 . S
Zn139 O140 1.949 . S
Zn139 O146 1.919 . S
Zn139 O151 1.924 . S
O140 Zn139 1.949 . S
O140 Zn141 1.923 . S
O140 Zn142 1.950 . S
O140 Zn143 1.945 . S
Zn141 O140 1.923 . S
Zn141 O144 1.933 . S
Zn141 O147 1.941 . S
Zn141 O148 1.965 . S
Zn142 O140 1.950 . S
Zn142 O149 1.938 . S
Zn142 O150 1.906 . S
Zn142 O160 1.953 . S
Zn143 O140 1.945 . S
Zn143 O145 1.932 . S
Zn143 O152 1.977 . S
Zn143 O153 1.910 . S
O144 Zn141 1.933 . S
O144 C155 1.226 1_455 S
O145 Zn143 1.932 . S
O145 C155 1.307 1_455 S
O146 Zn139 1.919 . S
O146 C157 1.253 . S
O147 Zn141 1.941 . S
O147 C157 1.283 . S
O148 Zn141 1.965 . S
O148 C156 1.303 . S
O149 Zn142 1.938 . S
O149 C156 1.247 . S
O150 Zn142 1.906 . S
O150 C158 1.304 . S
O151 Zn139 1.924 . S
O151 C159 1.311 . S
O152 Zn143 1.977 . S
O152 C158 1.272 . S
O153 Zn143 1.910 . S
O153 C159 1.231 . S
C154 O138 1.225 . S
C154 O160 1.298 . S
C155 O144 1.226 1_655 S
C155 O145 1.307 1_655 S
C156 O148 1.303 . S
C156 O149 1.247 . S
C157 O146 1.253 . S
C157 O147 1.283 . S
C158 O150 1.304 . S
C158 O152 1.272 . S
C159 O151 1.311 . S
C159 O153 1.231 . S
O160 Zn142 1.953 . S
O160 C154 1.298 . S
O161 Zn162 1.953 . S
O161 C177 1.225 . S
Zn162 O161 1.953 . S
Zn162 O163 1.949 . S
Zn162 O169 1.919 . S
Zn162 O174 1.924 . S
O163 Zn162 1.949 . S
O163 Zn164 1.923 . S
O163 Zn165 1.950 . S
O163 Zn166 1.945 . S
Zn164 O163 1.923 . S
Zn164 O167 1.933 . S
Zn164 O170 1.941 . S
Zn164 O171 1.965 . S
Zn165 O163 1.950 . S
Zn165 O172 1.938 . S
Zn165 O173 1.906 . S
Zn165 O183 1.953 . S
Zn166 O163 1.945 . S
Zn166 O168 1.932 . S
Zn166 O175 1.977 . S
Zn166 O176 1.910 . S
O167 Zn164 1.933 . S
O167 C178 1.226 . S
O168 Zn166 1.932 . S
O168 C178 1.307 . S
O169 Zn162 1.919 . S
O169 C180 1.253 . S
O170 Zn164 1.941 . S
O170 C180 1.283 . S
O171 Zn164 1.965 . S
O171 C179 1.303 . S
O172 Zn165 1.938 . S
O172 C179 1.247 . S
O173 Zn165 1.906 . S
O173 C181 1.304 . S
O174 Zn162 1.924 . S
O174 C182 1.311 . S
O175 Zn166 1.977 . S
O175 C181 1.272 . S
O176 Zn166 1.910 . S
O176 C182 1.231 . S
C177 O161 1.225 . S
C177 O183 1.298 . S
C178 O167 1.226 . S
C178 O168 1.307 . S
C179 O171 1.303 . S
C179 O172 1.247 . S
C180 O169 1.253 . S
C180 O170 1.283 . S
C181 O173 1.304 . S
C181 O175 1.272 . S
C182 O174 1.311 . S
C182 O176 1.231 . S
O183 Zn165 1.953 . S
O183 C177 1.298 . S
O184 Zn185 1.953 . S
O184 C200 1.225 . S
Zn185 O184 1.953 . S
Zn185 O186 1.949 . S
Zn185 O192 1.919 . S
Zn185 O197 1.924 . S
O186 Zn185 1.949 . S
O186 Zn187 1.923 . S
O186 Zn188 1.950 . S
O186 Zn189 1.945 . S
Zn187 O186 1.923 . S
Zn187 O190 1.933 1_565 S
Zn187 O193 1.941 . S
Zn187 O194 1.965 . S
Zn188 O186 1.950 . S
Zn188 O195 1.938 . S
Zn188 O196 1.906 . S
Zn188 O206 1.953 . S
Zn189 O186 1.945 . S
Zn189 O191 1.932 . S
Zn189 O198 1.977 . S
Zn189 O199 1.910 . S
O190 Zn187 1.933 1_545 S
O190 C201 1.226 . S
O191 Zn189 1.932 . S
O191 C201 1.307 1_565 S
O192 Zn185 1.919 . S
O192 C203 1.253 . S
O193 Zn187 1.941 . S
O193 C203 1.283 . S
O194 Zn187 1.965 . S
O194 C202 1.303 . S
O195 Zn188 1.938 . S
O195 C202 1.247 . S
O196 Zn188 1.906 . S
O196 C204 1.304 . S
O197 Zn185 1.924 . S
O197 C205 1.311 . S
O198 Zn189 1.977 . S
O198 C204 1.272 . S
O199 Zn189 1.910 . S
O199 C205 1.231 . S
C200 O184 1.225 . S
C200 O206 1.298 . S
C201 O190 1.226 . S
C201 O191 1.307 1_545 S
C202 O194 1.303 . S
C202 O195 1.247 . S
C203 O192 1.253 . S
C203 O193 1.283 . S
C204 O196 1.304 . S
C204 O198 1.272 . S
C205 O197 1.311 . S
C205 O199 1.231 . S
O206 Zn188 1.953 . S
O206 C200 1.298 . S
O207 Zn208 1.953 . S
O207 C223 1.225 . S
Zn208 O207 1.953 . S
Zn208 O209 1.949 . S
Zn208 O215 1.919 . S
Zn208 O220 1.924 . S
O209 Zn208 1.949 . S
O209 Zn210 1.923 . S
O209 Zn211 1.950 . S
O209 Zn212 1.945 . S
Zn210 O209 1.923 . S
Zn210 O213 1.933 . S
Zn210 O216 1.941 . S
Zn210 O217 1.965 . S
Zn211 O209 1.950 . S
Zn211 O218 1.938 . S
Zn211 O219 1.906 . S
Zn211 O229 1.953 . S
Zn212 O209 1.945 . S
Zn212 O214 1.932 . S
Zn212 O221 1.977 . S
Zn212 O222 1.910 . S
O213 Zn210 1.933 . S
O213 C224 1.226 . S
O214 Zn212 1.932 . S
O214 C224 1.307 . S
O215 Zn208 1.919 . S
O215 C226 1.253 . S
O216 Zn210 1.941 . S
O216 C226 1.283 . S
O217 Zn210 1.965 . S
O217 C225 1.303 . S
O218 Zn211 1.938 . S
O218 C225 1.247 . S
O219 Zn211 1.906 . S
O219 C227 1.304 . S
O220 Zn208 1.924 . S
O220 C228 1.311 . S
O221 Zn212 1.977 . S
O221 C227 1.272 . S
O222 Zn212 1.910 . S
O222 C228 1.231 . S
C223 O207 1.225 . S
C223 O229 1.298 . S
C224 O213 1.226 . S
C224 O214 1.307 . S
C225 O217 1.303 . S
C225 O218 1.247 . S
C226 O215 1.253 . S
C226 O216 1.283 . S
C227 O219 1.304 . S
C227 O221 1.272 . S
C228 O220 1.311 . S
C228 O222 1.231 . S
O229 Zn211 1.953 . S
O229 C223 1.298 . S
O230 Zn231 1.953 . S
O230 C246 1.225 . S
Zn231 O230 1.953 . S
Zn231 O232 1.949 . S
Zn231 O238 1.919 . S
Zn231 O243 1.924 . S
O232 Zn231 1.949 . S
O232 Zn233 1.923 . S
O232 Zn234 1.950 . S
O232 Zn235 1.945 . S
Zn233 O232 1.923 . S
Zn233 O236 1.933 . S
Zn233 O239 1.941 . S
Zn233 O240 1.965 1_565 S
Zn234 O232 1.950 . S
Zn234 O241 1.938 . S
Zn234 O242 1.906 . S
Zn234 O252 1.953 . S
Zn235 O232 1.945 . S
Zn235 O237 1.932 . S
Zn235 O244 1.977 . S
Zn235 O245 1.910 . S
O236 Zn233 1.933 . S
O236 C247 1.226 . S
O237 Zn235 1.932 . S
O237 C247 1.307 . S
O238 Zn231 1.919 . S
O238 C249 1.253 . S
O239 Zn233 1.941 . S
O239 C249 1.283 . S
O240 Zn233 1.965 1_545 S
O240 C248 1.303 . S
O241 Zn234 1.938 . S
O241 C248 1.247 1_565 S
O242 Zn234 1.906 . S
O242 C250 1.304 . S
O243 Zn231 1.924 . S
O243 C251 1.311 . S
O244 Zn235 1.977 . S
O244 C250 1.272 . S
O245 Zn235 1.910 . S
O245 C251 1.231 . S
C246 O230 1.225 . S
C246 O252 1.298 . S
C247 O236 1.226 . S
C247 O237 1.307 . S
C248 O240 1.303 . S
C248 O241 1.247 1_545 S
C249 O238 1.253 . S
C249 O239 1.283 . S
C250 O242 1.304 . S
C250 O244 1.272 . S
C251 O243 1.311 . S
C251 O245 1.231 . S
O252 Zn234 1.953 . S
O252 C246 1.298 . S
O253 Zn254 1.953 . S
O253 C269 1.225 . S
Zn254 O253 1.953 . S
Zn254 O255 1.949 . S
Zn254 O261 1.919 . S
Zn254 O266 1.924 . S
O255 Zn254 1.949 . S
O255 Zn256 1.923 . S
O255 Zn257 1.950 . S
O255 Zn258 1.945 . S
Zn256 O255 1.923 . S
Zn256 O259 1.933 . S
Zn256 O262 1.941 . S
Zn256 O263 1.965 . S
Zn257 O255 1.950 . S
Zn257 O264 1.938 . S
Zn257 O265 1.906 . S
Zn257 O275 1.953 . S
Zn258 O255 1.945 . S
Zn258 O260 1.932 . S
Zn258 O267 1.977 . S
Zn258 O268 1.910 . S
O259 Zn256 1.933 . S
O259 C270 1.226 . S
O260 Zn258 1.932 . S
O260 C270 1.307 . S
O261 Zn254 1.919 . S
O261 C272 1.253 . S
O262 Zn256 1.941 . S
O262 C272 1.283 . S
O263 Zn256 1.965 . S
O263 C271 1.303 . S
O264 Zn257 1.938 . S
O264 C271 1.247 . S
O265 Zn257 1.906 . S
O265 C273 1.304 . S
O266 Zn254 1.924 . S
O266 C274 1.311 . S
O267 Zn258 1.977 . S
O267 C273 1.272 . S
O268 Zn258 1.910 . S
O268 C274 1.231 . S
C269 O253 1.225 . S
C269 O275 1.298 . S
C270 O259 1.226 . S
C270 O260 1.307 . S
C271 O263 1.303 . S
C271 O264 1.247 . S
C272 O261 1.253 . S
C272 O262 1.283 . S
C273 O265 1.304 . S
C273 O267 1.272 . S
C274 O266 1.311 . S
C274 O268 1.231 . S
O275 Zn257 1.953 . S
O275 C269 1.298 . S
O276 Zn277 1.953 . S
O276 C292 1.225 . S
Zn277 O276 1.953 . S
Zn277 O278 1.949 . S
Zn277 O284 1.919 . S
Zn277 O289 1.924 . S
O278 Zn277 1.949 . S
O278 Zn279 1.923 . S
O278 Zn280 1.950 . S
O278 Zn281 1.945 . S
Zn279 O278 1.923 . S
Zn279 O282 1.933 . S
Zn279 O285 1.941 . S
Zn279 O286 1.965 . S
Zn280 O278 1.950 . S
Zn280 O287 1.938 . S
Zn280 O288 1.906 . S
Zn280 O298 1.953 . S
Zn281 O278 1.945 . S
Zn281 O283 1.932 . S
Zn281 O290 1.977 . S
Zn281 O291 1.910 . S
O282 Zn279 1.933 . S
O282 C293 1.226 . S
O283 Zn281 1.932 . S
O283 C293 1.307 . S
O284 Zn277 1.919 . S
O284 C295 1.253 . S
O285 Zn279 1.941 . S
O285 C295 1.283 . S
O286 Zn279 1.965 . S
O286 C294 1.303 . S
O287 Zn280 1.938 . S
O287 C294 1.247 . S
O288 Zn280 1.906 . S
O288 C296 1.304 . S
O289 Zn277 1.924 . S
O289 C297 1.311 . S
O290 Zn281 1.977 . S
O290 C296 1.272 . S
O291 Zn281 1.910 . S
O291 C297 1.231 . S
C292 O276 1.225 . S
C292 O298 1.298 . S
C293 O282 1.226 . S
C293 O283 1.307 . S
C294 O286 1.303 . S
C294 O287 1.247 . S
C295 O284 1.253 . S
C295 O285 1.283 . S
C296 O288 1.304 . S
C296 O290 1.272 . S
C297 O289 1.311 . S
C297 O291 1.231 . S
O298 Zn280 1.953 . S
O298 C292 1.298 . S
O299 Zn300 1.953 . S
O299 C315 1.225 . S
Zn300 O299 1.953 . S
Zn300 O301 1.949 . S
Zn300 O307 1.919 . S
Zn300 O312 1.924 . S
O301 Zn300 1.949 . S
O301 Zn302 1.923 . S
O301 Zn303 1.950 . S
O301 Zn304 1.945 . S
Zn302 O301 1.923 . S
Zn302 O305 1.933 . S
Zn302 O308 1.941 . S
Zn302 O309 1.965 . S
Zn303 O301 1.950 . S
Zn303 O310 1.938 . S
Zn303 O311 1.906 . S
Zn303 O321 1.953 . S
Zn304 O301 1.945 . S
Zn304 O306 1.932 . S
Zn304 O313 1.977 . S
Zn304 O314 1.910 . S
O305 Zn302 1.933 . S
O305 C316 1.226 . S
O306 Zn304 1.932 . S
O306 C316 1.307 . S
O307 Zn300 1.919 . S
O307 C318 1.253 . S
O308 Zn302 1.941 . S
O308 C318 1.283 . S
O309 Zn302 1.965 . S
O309 C317 1.303 . S
O310 Zn303 1.938 . S
O310 C317 1.247 . S
O311 Zn303 1.906 . S
O311 C319 1.304 . S
O312 Zn300 1.924 . S
O312 C320 1.311 . S
O313 Zn304 1.977 . S
O313 C319 1.272 . S
O314 Zn304 1.910 . S
O314 C320 1.231 . S
C315 O299 1.225 . S
C315 O321 1.298 . S
C316 O305 1.226 . S
C316 O306 1.307 . S
C317 O309 1.303 . S
C317 O310 1.247 . S
C318 O307 1.253 . S
C318 O308 1.283 . S
C319 O311 1.304 . S
C319 O313 1.272 . S
C320 O312 1.311 . S
C320 O314 1.231 . S
O321 Zn303 1.953 . S
O321 C315 1.298 . S
O322 Zn323 1.953 . S
O322 C338 1.225 . S
Zn323 O322 1.953 . S
Zn323 O324 1.949 . S
Zn323 O330 1.919 . S
Zn323 O335 1.924 . S
O324 Zn323 1.949 . S
O324 Zn325 1.923 . S
O324 Zn326 1.950 . S
O324 Zn327 1.945 . S
Zn325 O324 1.923 . S
Zn325 O328 1.933 . S
Zn325 O331 1.941 . S
Zn325 O332 1.965 1_655 S
Zn326 O324 1.950 . S
Zn326 O333 1.938 . S
Zn326 O334 1.906 . S
Zn326 O344 1.953 . S
Zn327 O324 1.945 . S
Zn327 O329 1.932 . S
Zn327 O336 1.977 . S
Zn327 O337 1.910 . S
O328 Zn325 1.933 . S
O328 C339 1.226 . S
O329 Zn327 1.932 . S
O329 C339 1.307 . S
O330 Zn323 1.919 . S
O330 C341 1.253 . S
O331 Zn325 1.941 . S
O331 C341 1.283 . S
O332 Zn325 1.965 1_455 S
O332 C340 1.303 . S
O333 Zn326 1.938 . S
O333 C340 1.247 1_655 S
O334 Zn326 1.906 . S
O334 C342 1.304 . S
O335 Zn323 1.924 . S
O335 C343 1.311 . S
O336 Zn327 1.977 . S
O336 C342 1.272 . S
O337 Zn327 1.910 . S
O337 C343 1.231 . S
C338 O322 1.225 . S
C338 O344 1.298 . S
C339 O328 1.226 . S
C339 O329 1.307 . S
C340 O332 1.303 . S
C340 O333 1.247 1_455 S
C341 O330 1.253 . S
C341 O331 1.283 . S
C342 O334 1.304 . S
C342 O336 1.272 . S
C343 O335 1.311 . S
C343 O337 1.231 . S
O344 Zn326 1.953 . S
O344 C338 1.298 . S
O345 Zn346 1.953 . S
O345 C361 1.225 . S
Zn346 O345 1.953 . S
Zn346 O347 1.949 . S
Zn346 O353 1.919 . S
Zn346 O358 1.924 . S
O347 Zn346 1.949 . S
O347 Zn348 1.923 . S
O347 Zn349 1.950 . S
O347 Zn350 1.945 . S
Zn348 O347 1.923 . S
Zn348 O351 1.933 . S
Zn348 O354 1.941 . S
Zn348 O355 1.965 . S
Zn349 O347 1.950 . S
Zn349 O356 1.938 . S
Zn349 O357 1.906 . S
Zn349 O367 1.953 . S
Zn350 O347 1.945 . S
Zn350 O352 1.932 . S
Zn350 O359 1.977 . S
Zn350 O360 1.910 . S
O351 Zn348 1.933 . S
O351 C362 1.226 1_545 S
O352 Zn350 1.932 . S
O352 C362 1.307 1_545 S
O353 Zn346 1.919 . S
O353 C364 1.253 . S
O354 Zn348 1.941 . S
O354 C364 1.283 . S
O355 Zn348 1.965 . S
O355 C363 1.303 . S
O356 Zn349 1.938 . S
O356 C363 1.247 . S
O357 Zn349 1.906 . S
O357 C365 1.304 . S
O358 Zn346 1.924 . S
O358 C366 1.311 . S
O359 Zn350 1.977 . S
O359 C365 1.272 . S
O360 Zn350 1.910 . S
O360 C366 1.231 . S
C361 O345 1.225 . S
C361 O367 1.298 . S
C362 O351 1.226 1_565 S
C362 O352 1.307 1_565 S
C363 O355 1.303 . S
C363 O356 1.247 . S
C364 O353 1.253 . S
C364 O354 1.283 . S
C365 O357 1.304 . S
C365 O359 1.272 . S
C366 O358 1.311 . S
C366 O360 1.231 . S
O367 Zn349 1.953 . S
O367 C361 1.298 . S
O368 Zn369 1.953 . S
O368 C384 1.225 . S
Zn369 O368 1.953 . S
Zn369 O370 1.949 . S
Zn369 O376 1.919 . S
Zn369 O381 1.924 . S
O370 Zn369 1.949 . S
O370 Zn371 1.923 . S
O370 Zn372 1.950 . S
O370 Zn373 1.945 . S
Zn371 O370 1.923 . S
Zn371 O374 1.933 1_655 S
Zn371 O377 1.941 . S
Zn371 O378 1.965 . S
Zn372 O370 1.950 . S
Zn372 O379 1.938 . S
Zn372 O380 1.906 . S
Zn372 O390 1.953 . S
Zn373 O370 1.945 . S
Zn373 O375 1.932 . S
Zn373 O382 1.977 . S
Zn373 O383 1.910 . S
O374 Zn371 1.933 1_455 S
O374 C385 1.226 . S
O375 Zn373 1.932 . S
O375 C385 1.307 1_655 S
O376 Zn369 1.919 . S
O376 C387 1.253 . S
O377 Zn371 1.941 . S
O377 C387 1.283 . S
O378 Zn371 1.965 . S
O378 C386 1.303 . S
O379 Zn372 1.938 . S
O379 C386 1.247 . S
O380 Zn372 1.906 . S
O380 C388 1.304 . S
O381 Zn369 1.924 . S
O381 C389 1.311 . S
O382 Zn373 1.977 . S
O382 C388 1.272 . S
O383 Zn373 1.910 . S
O383 C389 1.231 . S
C384 O368 1.225 . S
C384 O390 1.298 . S
C385 O374 1.226 . S
C385 O375 1.307 1_455 S
C386 O378 1.303 . S
C386 O379 1.247 . S
C387 O376 1.253 . S
C387 O377 1.283 . S
C388 O380 1.304 . S
C388 O382 1.272 . S
C389 O381 1.311 . S
C389 O383 1.231 . S
O390 Zn372 1.953 . S
O390 C384 1.298 . S
O391 Zn392 1.953 . S
O391 C407 1.225 . S
Zn392 O391 1.953 . S
Zn392 O393 1.949 . S
Zn392 O399 1.919 . S
Zn392 O404 1.924 . S
O393 Zn392 1.949 . S
O393 Zn394 1.923 . S
O393 Zn395 1.950 . S
O393 Zn396 1.945 . S
Zn394 O393 1.923 . S
Zn394 O397 1.933 . S
Zn394 O400 1.941 . S
Zn394 O401 1.965 . S
Zn395 O393 1.950 . S
Zn395 O402 1.938 . S
Zn395 O403 1.906 . S
Zn395 O413 1.953 . S
Zn396 O393 1.945 . S
Zn396 O398 1.932 . S
Zn396 O405 1.977 . S
Zn396 O406 1.910 . S
O397 Zn394 1.933 . S
O397 C408 1.226 . S
O398 Zn396 1.932 . S
O398 C408 1.307 . S
O399 Zn392 1.919 . S
O399 C410 1.253 . S
O400 Zn394 1.941 . S
O400 C410 1.283 . S
O401 Zn394 1.965 . S
O401 C409 1.303 . S
O402 Zn395 1.938 . S
O402 C409 1.247 . S
O403 Zn395 1.906 . S
O403 C411 1.304 . S
O404 Zn392 1.924 . S
O404 C412 1.311 . S
O405 Zn396 1.977 . S
O405 C411 1.272 . S
O406 Zn396 1.910 . S
O406 C412 1.231 . S
C407 O391 1.225 . S
C407 O413 1.298 . S
C408 O397 1.226 . S
C408 O398 1.307 . S
C409 O401 1.303 . S
C409 O402 1.247 . S
C410 O399 1.253 . S
C410 O400 1.283 . S
C411 O403 1.304 . S
C411 O405 1.272 . S
C412 O404 1.311 . S
C412 O406 1.231 . S
O413 Zn395 1.953 . S
O413 C407 1.298 . S
H414 C426 0.930 . S
H415 C428 0.930 . S
H416 C429 0.930 . S
H417 C433 0.959 . S
H418 C433 0.959 . S
H419 C433 0.961 . S
H420 C434 0.960 . S
H421 C434 0.961 . S
H422 C434 0.959 . S
H423 C437 0.929 . S
H424 C438 0.931 . S
H425 C440 0.930 . S
C426 H414 0.930 . S
C426 C427 1.399 . S
C426 C431 1.399 . S
C427 C426 1.399 . S
C427 C428 1.376 . S
C428 H415 0.930 . S
C428 C427 1.376 . S
C428 C429 1.388 . S
C429 H416 0.930 . S
C429 C428 1.388 . S
C429 C430 1.390 . S
C430 C429 1.390 . S
C430 C431 1.394 . S
C430 C436 1.465 . S
C431 C426 1.399 . S
C431 C430 1.394 . S
C431 C432 1.516 . S
C432 C431 1.516 . S
C432 C433 1.502 . S
C432 C434 1.561 . S
C432 C435 1.526 . S
C433 H417 0.959 . S
C433 H418 0.959 . S
C433 H419 0.961 . S
C433 C432 1.502 . S
C434 H420 0.960 . S
C434 H421 0.961 . S
C434 H422 0.959 . S
C434 C432 1.561 . S
C435 C432 1.526 . S
C435 C436 1.396 . S
C435 C440 1.390 . S
C436 C430 1.465 . S
C436 C435 1.396 . S
C436 C437 1.399 . S
C437 H423 0.929 . S
C437 C436 1.399 . S
C437 C438 1.385 . S
C438 H424 0.931 . S
C438 C437 1.385 . S
C438 C439 1.389 . S
C439 C438 1.389 . S
C439 C440 1.387 . S
C440 H425 0.930 . S
C440 C435 1.390 . S
C440 C439 1.387 . S
H441 C453 0.930 . S
H442 C455 0.930 . S
H443 C456 0.930 . S
H444 C460 0.959 . S
H445 C460 0.959 . S
H446 C460 0.961 . S
H447 C461 0.960 . S
H448 C461 0.961 . S
H449 C461 0.959 . S
H450 C464 0.929 . S
H451 C465 0.931 . S
H452 C467 0.930 . S
C453 H441 0.930 . S
C453 C454 1.399 . S
C453 C458 1.399 . S
C454 C453 1.399 . S
C454 C455 1.376 . S
C455 H442 0.930 . S
C455 C454 1.376 . S
C455 C456 1.388 . S
C456 H443 0.930 . S
C456 C455 1.388 . S
C456 C457 1.390 . S
C457 C456 1.390 . S
C457 C458 1.394 . S
C457 C463 1.465 . S
C458 C453 1.399 . S
C458 C457 1.394 . S
C458 C459 1.516 . S
C459 C458 1.516 . S
C459 C460 1.502 . S
C459 C461 1.561 . S
C459 C462 1.526 . S
C460 H444 0.959 . S
C460 H445 0.959 . S
C460 H446 0.961 . S
C460 C459 1.502 . S
C461 H447 0.960 . S
C461 H448 0.961 . S
C461 H449 0.959 . S
C461 C459 1.561 . S
C462 C459 1.526 . S
C462 C463 1.396 . S
C462 C467 1.390 . S
C463 C457 1.465 . S
C463 C462 1.396 . S
C463 C464 1.399 . S
C464 H450 0.929 . S
C464 C463 1.399 . S
C464 C465 1.385 . S
C465 H451 0.931 . S
C465 C464 1.385 . S
C465 C466 1.389 . S
C466 C465 1.389 . S
C466 C467 1.387 . S
C467 H452 0.930 . S
C467 C462 1.390 . S
C467 C466 1.387 . S
H468 C480 0.930 . S
H469 C482 0.930 . S
H470 C483 0.930 . S
H471 C487 0.959 . S
H472 C487 0.959 . S
H473 C487 0.961 . S
H474 C488 0.960 . S
H475 C488 0.961 . S
H476 C488 0.959 . S
H477 C491 0.929 . S
H478 C492 0.931 . S
H479 C494 0.930 . S
C480 H468 0.930 . S
C480 C481 1.399 . S
C480 C485 1.399 . S
C481 C480 1.399 . S
C481 C482 1.376 . S
C482 H469 0.930 . S
C482 C481 1.376 . S
C482 C483 1.388 . S
C483 H470 0.930 . S
C483 C482 1.388 . S
C483 C484 1.390 . S
C484 C483 1.390 . S
C484 C485 1.394 . S
C484 C490 1.465 . S
C485 C480 1.399 . S
C485 C484 1.394 . S
C485 C486 1.516 . S
C486 C485 1.516 . S
C486 C487 1.502 . S
C486 C488 1.561 . S
C486 C489 1.526 . S
C487 H471 0.959 . S
C487 H472 0.959 . S
C487 H473 0.961 . S
C487 C486 1.502 . S
C488 H474 0.960 . S
C488 H475 0.961 . S
C488 H476 0.959 . S
C488 C486 1.561 . S
C489 C486 1.526 . S
C489 C490 1.396 . S
C489 C494 1.390 . S
C490 C484 1.465 . S
C490 C489 1.396 . S
C490 C491 1.399 . S
C491 H477 0.929 . S
C491 C490 1.399 . S
C491 C492 1.385 . S
C492 H478 0.931 . S
C492 C491 1.385 . S
C492 C493 1.389 . S
C493 C492 1.389 . S
C493 C494 1.387 . S
C494 H479 0.930 . S
C494 C489 1.390 . S
C494 C493 1.387 . S
H495 C507 0.930 . S
H496 C509 0.930 . S
H497 C510 0.930 . S
H498 C514 0.959 . S
H499 C514 0.959 . S
H500 C514 0.961 . S
H501 C515 0.960 . S
H502 C515 0.961 . S
H503 C515 0.959 . S
H504 C518 0.929 . S
H505 C519 0.931 . S
H506 C521 0.930 . S
C507 H495 0.930 . S
C507 C508 1.399 . S
C507 C512 1.399 . S
C508 C507 1.399 . S
C508 C509 1.376 . S
C509 H496 0.930 . S
C509 C508 1.376 . S
C509 C510 1.388 . S
C510 H497 0.930 . S
C510 C509 1.388 . S
C510 C511 1.390 . S
C511 C510 1.390 . S
C511 C512 1.394 . S
C511 C517 1.465 . S
C512 C507 1.399 . S
C512 C511 1.394 . S
C512 C513 1.516 . S
C513 C512 1.516 . S
C513 C514 1.502 . S
C513 C515 1.561 . S
C513 C516 1.526 . S
C514 H498 0.959 . S
C514 H499 0.959 . S
C514 H500 0.961 . S
C514 C513 1.502 . S
C515 H501 0.960 . S
C515 H502 0.961 . S
C515 H503 0.959 . S
C515 C513 1.561 . S
C516 C513 1.526 . S
C516 C517 1.396 . S
C516 C521 1.390 . S
C517 C511 1.465 . S
C517 C516 1.396 . S
C517 C518 1.399 . S
C518 H504 0.929 . S
C518 C517 1.399 . S
C518 C519 1.385 . S
C519 H505 0.931 . S
C519 C518 1.385 . S
C519 C520 1.389 . S
C520 C519 1.389 . S
C520 C521 1.387 . S
C521 H506 0.930 . S
C521 C516 1.390 . S
C521 C520 1.387 . S
H522 C534 0.930 . S
H523 C536 0.930 . S
H524 C537 0.930 . S
H525 C541 0.959 . S
H526 C541 0.959 . S
H527 C541 0.961 . S
H528 C542 0.960 . S
H529 C542 0.961 . S
H530 C542 0.959 . S
H531 C545 0.929 . S
H532 C546 0.931 . S
H533 C548 0.930 . S
C534 H522 0.930 . S
C534 C535 1.399 . S
C534 C539 1.399 . S
C535 C534 1.399 . S
C535 C536 1.376 . S
C536 H523 0.930 . S
C536 C535 1.376 . S
C536 C537 1.388 . S
C537 H524 0.930 . S
C537 C536 1.388 . S
C537 C538 1.390 . S
C538 C537 1.390 . S
C538 C539 1.394 . S
C538 C544 1.465 . S
C539 C534 1.399 . S
C539 C538 1.394 . S
C539 C540 1.516 . S
C540 C539 1.516 . S
C540 C541 1.502 . S
C540 C542 1.561 . S
C540 C543 1.526 . S
C541 H525 0.959 . S
C541 H526 0.959 . S
C541 H527 0.961 . S
C541 C540 1.502 . S
C542 H528 0.960 . S
C542 H529 0.961 . S
C542 H530 0.959 . S
C542 C540 1.561 . S
C543 C540 1.526 . S
C543 C544 1.396 . S
C543 C548 1.390 . S
C544 C538 1.465 . S
C544 C543 1.396 . S
C544 C545 1.399 . S
C545 H531 0.929 . S
C545 C544 1.399 . S
C545 C546 1.385 . S
C546 H532 0.931 . S
C546 C545 1.385 . S
C546 C547 1.389 . S
C547 C546 1.389 . S
C547 C548 1.387 . S
C548 H533 0.930 . S
C548 C543 1.390 . S
C548 C547 1.387 . S
H549 C561 0.930 . S
H550 C563 0.930 . S
H551 C564 0.930 . S
H552 C568 0.959 . S
H553 C568 0.959 . S
H554 C568 0.961 . S
H555 C569 0.960 . S
H556 C569 0.961 . S
H557 C569 0.959 . S
H558 C572 0.929 . S
H559 C573 0.931 . S
H560 C575 0.930 . S
C561 H549 0.930 . S
C561 C562 1.399 . S
C561 C566 1.399 . S
C562 C561 1.399 . S
C562 C563 1.376 . S
C563 H550 0.930 . S
C563 C562 1.376 . S
C563 C564 1.388 . S
C564 H551 0.930 . S
C564 C563 1.388 . S
C564 C565 1.390 . S
C565 C564 1.390 . S
C565 C566 1.394 . S
C565 C571 1.465 . S
C566 C561 1.399 . S
C566 C565 1.394 . S
C566 C567 1.516 . S
C567 C566 1.516 . S
C567 C568 1.502 . S
C567 C569 1.561 . S
C567 C570 1.526 . S
C568 H552 0.959 . S
C568 H553 0.959 . S
C568 H554 0.961 . S
C568 C567 1.502 . S
C569 H555 0.960 . S
C569 H556 0.961 . S
C569 H557 0.959 . S
C569 C567 1.561 . S
C570 C567 1.526 . S
C570 C571 1.396 . S
C570 C575 1.390 . S
C571 C565 1.465 . S
C571 C570 1.396 . S
C571 C572 1.399 . S
C572 H558 0.929 . S
C572 C571 1.399 . S
C572 C573 1.385 . S
C573 H559 0.931 . S
C573 C572 1.385 . S
C573 C574 1.389 . S
C574 C573 1.389 . S
C574 C575 1.387 . S
C575 H560 0.930 . S
C575 C570 1.390 . S
C575 C574 1.387 . S
H576 C588 0.930 . S
H577 C590 0.930 . S
H578 C591 0.930 . S
H579 C595 0.959 . S
H580 C595 0.959 . S
H581 C595 0.961 . S
H582 C596 0.960 . S
H583 C596 0.961 . S
H584 C596 0.959 . S
H585 C599 0.929 . S
H586 C600 0.931 . S
H587 C602 0.930 . S
C588 H576 0.930 . S
C588 C589 1.399 . S
C588 C593 1.399 . S
C589 C588 1.399 . S
C589 C590 1.376 . S
C590 H577 0.930 . S
C590 C589 1.376 . S
C590 C591 1.388 . S
C591 H578 0.930 . S
C591 C590 1.388 . S
C591 C592 1.390 . S
C592 C591 1.390 . S
C592 C593 1.394 . S
C592 C598 1.465 . S
C593 C588 1.399 . S
C593 C592 1.394 . S
C593 C594 1.516 . S
C594 C593 1.516 . S
C594 C595 1.502 . S
C594 C596 1.561 . S
C594 C597 1.526 . S
C595 H579 0.959 . S
C595 H580 0.959 . S
C595 H581 0.961 . S
C595 C594 1.502 . S
C596 H582 0.960 . S
C596 H583 0.961 . S
C596 H584 0.959 . S
C596 C594 1.561 . S
C597 C594 1.526 . S
C597 C598 1.396 . S
C597 C602 1.390 . S
C598 C592 1.465 . S
C598 C597 1.396 . S
C598 C599 1.399 . S
C599 H585 0.929 . S
C599 C598 1.399 . S
C599 C600 1.385 . S
C600 H586 0.931 . S
C600 C599 1.385 . S
C600 C601 1.389 . S
C601 C600 1.389 . S
C601 C602 1.387 . S
C602 H587 0.930 . S
C602 C597 1.390 . S
C602 C601 1.387 . S
H603 C615 0.930 . S
H604 C617 0.930 . S
H605 C618 0.930 . S
H606 C622 0.959 . S
H607 C622 0.959 . S
H608 C622 0.961 . S
H609 C623 0.960 . S
H610 C623 0.961 . S
H611 C623 0.959 . S
H612 C626 0.929 . S
H613 C627 0.931 . S
H614 C629 0.930 . S
C615 H603 0.930 . S
C615 C616 1.399 . S
C615 C620 1.399 . S
C616 C615 1.399 . S
C616 C617 1.376 . S
C617 H604 0.930 . S
C617 C616 1.376 . S
C617 C618 1.388 . S
C618 H605 0.930 . S
C618 C617 1.388 . S
C618 C619 1.390 . S
C619 C618 1.390 . S
C619 C620 1.394 . S
C619 C625 1.465 . S
C620 C615 1.399 . S
C620 C619 1.394 . S
C620 C621 1.516 . S
C621 C620 1.516 . S
C621 C622 1.502 . S
C621 C623 1.561 . S
C621 C624 1.526 . S
C622 H606 0.959 . S
C622 H607 0.959 . S
C622 H608 0.961 . S
C622 C621 1.502 . S
C623 H609 0.960 . S
C623 H610 0.961 . S
C623 H611 0.959 . S
C623 C621 1.561 . S
C624 C621 1.526 . S
C624 C625 1.396 . S
C624 C629 1.390 1_545 S
C625 C619 1.465 . S
C625 C624 1.396 . S
C625 C626 1.399 . S
C626 H612 0.929 . S
C626 C625 1.399 . S
C626 C627 1.385 1_545 S
C627 H613 0.931 . S
C627 C626 1.385 1_565 S
C627 C628 1.389 . S
C628 C627 1.389 . S
C628 C629 1.387 . S
C629 H614 0.930 . S
C629 C624 1.390 1_565 S
C629 C628 1.387 . S
H630 C642 0.930 . S
H631 C644 0.930 . S
H632 C645 0.930 . S
H633 C649 0.959 . S
H634 C649 0.959 . S
H635 C649 0.961 . S
H636 C650 0.960 . S
H637 C650 0.961 . S
H638 C650 0.959 . S
H639 C653 0.929 . S
H640 C654 0.931 . S
H641 C656 0.930 . S
C642 H630 0.930 . S
C642 C643 1.399 . S
C642 C647 1.399 1_455 S
C643 C642 1.399 . S
C643 C644 1.376 . S
C644 H631 0.930 . S
C644 C643 1.376 . S
C644 C645 1.388 . S
C645 H632 0.930 . S
C645 C644 1.388 . S
C645 C646 1.390 1_455 S
C646 C645 1.390 1_655 S
C646 C647 1.394 . S
C646 C652 1.465 . S
C647 C642 1.399 1_655 S
C647 C646 1.394 . S
C647 C648 1.516 . S
C648 C647 1.516 . S
C648 C649 1.502 . S
C648 C650 1.561 . S
C648 C651 1.526 . S
C649 H633 0.959 . S
C649 H634 0.959 . S
C649 H635 0.961 . S
C649 C648 1.502 . S
C650 H636 0.960 . S
C650 H637 0.961 . S
C650 H638 0.959 . S
C650 C648 1.561 . S
C651 C648 1.526 . S
C651 C652 1.396 . S
C651 C656 1.390 . S
C652 C646 1.465 . S
C652 C651 1.396 . S
C652 C653 1.399 . S
C653 H639 0.929 . S
C653 C652 1.399 . S
C653 C654 1.385 . S
C654 H640 0.931 . S
C654 C653 1.385 . S
C654 C655 1.389 . S
C655 C654 1.389 . S
C655 C656 1.387 . S
C656 H641 0.930 . S
C656 C651 1.390 . S
C656 C655 1.387 . S
H657 C669 0.930 . S
H658 C671 0.930 . S
H659 C672 0.930 . S
H660 C676 0.959 . S
H661 C676 0.959 . S
H662 C676 0.961 . S
H663 C677 0.960 . S
H664 C677 0.961 . S
H665 C677 0.959 . S
H666 C680 0.929 . S
H667 C681 0.931 . S
H668 C683 0.930 . S
C669 H657 0.930 . S
C669 C670 1.399 . S
C669 C674 1.399 . S
C670 C669 1.399 . S
C670 C671 1.376 . S
C671 H658 0.930 . S
C671 C670 1.376 . S
C671 C672 1.388 . S
C672 H659 0.930 . S
C672 C671 1.388 . S
C672 C673 1.390 . S
C673 C672 1.390 . S
C673 C674 1.394 . S
C673 C679 1.465 . S
C674 C669 1.399 . S
C674 C673 1.394 . S
C674 C675 1.516 . S
C675 C674 1.516 . S
C675 C676 1.502 . S
C675 C677 1.561 . S
C675 C678 1.526 . S
C676 H660 0.959 . S
C676 H661 0.959 . S
C676 H662 0.961 . S
C676 C675 1.502 . S
C677 H663 0.960 . S
C677 H664 0.961 . S
C677 H665 0.959 . S
C677 C675 1.561 . S
C678 C675 1.526 . S
C678 C679 1.396 . S
C678 C683 1.390 . S
C679 C673 1.465 . S
C679 C678 1.396 . S
C679 C680 1.399 . S
C680 H666 0.929 . S
C680 C679 1.399 . S
C680 C681 1.385 . S
C681 H667 0.931 . S
C681 C680 1.385 . S
C681 C682 1.389 . S
C682 C681 1.389 . S
C682 C683 1.387 . S
C683 H668 0.930 . S
C683 C678 1.390 . S
C683 C682 1.387 . S
H684 C696 0.930 . S
H685 C698 0.930 . S
H686 C699 0.930 . S
H687 C703 0.959 . S
H688 C703 0.959 . S
H689 C703 0.961 . S
H690 C704 0.960 . S
H691 C704 0.961 1_655 S
H692 C704 0.959 . S
H693 C707 0.929 . S
H694 C708 0.931 . S
H695 C710 0.930 . S
C696 H684 0.930 . S
C696 C697 1.399 . S
C696 C701 1.399 . S
C697 C696 1.399 . S
C697 C698 1.376 . S
C698 H685 0.930 . S
C698 C697 1.376 . S
C698 C699 1.388 . S
C699 H686 0.930 . S
C699 C698 1.388 . S
C699 C700 1.390 . S
C700 C699 1.390 . S
C700 C701 1.394 . S
C700 C706 1.465 . S
C701 C696 1.399 . S
C701 C700 1.394 . S
C701 C702 1.516 . S
C702 C701 1.516 . S
C702 C703 1.502 . S
C702 C704 1.561 . S
C702 C705 1.526 . S
C703 H687 0.959 . S
C703 H688 0.959 . S
C703 H689 0.961 . S
C703 C702 1.502 . S
C704 H690 0.960 . S
C704 H691 0.961 1_455 S
C704 H692 0.959 . S
C704 C702 1.561 . S
C705 C702 1.526 . S
C705 C706 1.396 . S
C705 C710 1.390 . S
C706 C700 1.465 . S
C706 C705 1.396 . S
C706 C707 1.399 . S
C707 H693 0.929 . S
C707 C706 1.399 . S
C707 C708 1.385 . S
C708 H694 0.931 . S
C708 C707 1.385 . S
C708 C709 1.389 . S
C709 C708 1.389 . S
C709 C710 1.387 . S
C710 H695 0.930 . S
C710 C705 1.390 . S
C710 C709 1.387 . S
H711 C723 0.930 . S
H712 C725 0.930 . S
H713 C726 0.930 . S
H714 C730 0.959 . S
H715 C730 0.959 . S
H716 C730 0.961 . S
H717 C731 0.960 . S
H718 C731 0.961 . S
H719 C731 0.959 . S
H720 C734 0.929 . S
H721 C735 0.931 . S
H722 C737 0.930 . S
C723 H711 0.930 . S
C723 C724 1.399 . S
C723 C728 1.399 . S
C724 C723 1.399 . S
C724 C725 1.376 . S
C725 H712 0.930 . S
C725 C724 1.376 . S
C725 C726 1.388 . S
C726 H713 0.930 . S
C726 C725 1.388 . S
C726 C727 1.390 . S
C727 C726 1.390 . S
C727 C728 1.394 . S
C727 C733 1.465 . S
C728 C723 1.399 . S
C728 C727 1.394 . S
C728 C729 1.516 . S
C729 C728 1.516 . S
C729 C730 1.502 . S
C729 C731 1.561 . S
C729 C732 1.526 . S
C730 H714 0.959 . S
C730 H715 0.959 . S
C730 H716 0.961 . S
C730 C729 1.502 . S
C731 H717 0.960 . S
C731 H718 0.961 . S
C731 H719 0.959 . S
C731 C729 1.561 . S
C732 C729 1.526 . S
C732 C733 1.396 . S
C732 C737 1.390 . S
C733 C727 1.465 . S
C733 C732 1.396 . S
C733 C734 1.399 . S
C734 H720 0.929 . S
C734 C733 1.399 . S
C734 C735 1.385 . S
C735 H721 0.931 . S
C735 C734 1.385 . S
C735 C736 1.389 . S
C736 C735 1.389 . S
C736 C737 1.387 . S
C737 H722 0.930 . S
C737 C732 1.390 . S
C737 C736 1.387 . S
H738 C750 0.930 . S
H739 C752 0.930 . S
H740 C753 0.930 . S
H741 C757 0.959 . S
H742 C757 0.959 . S
H743 C757 0.961 . S
H744 C758 0.960 . S
H745 C758 0.961 . S
H746 C758 0.959 . S
H747 C761 0.929 . S
H748 C762 0.931 . S
H749 C764 0.930 . S
C750 H738 0.930 . S
C750 C751 1.399 . S
C750 C755 1.399 . S
C751 C750 1.399 . S
C751 C752 1.376 . S
C752 H739 0.930 . S
C752 C751 1.376 . S
C752 C753 1.388 . S
C753 H740 0.930 . S
C753 C752 1.388 . S
C753 C754 1.390 . S
C754 C753 1.390 . S
C754 C755 1.394 . S
C754 C760 1.465 . S
C755 C750 1.399 . S
C755 C754 1.394 . S
C755 C756 1.516 . S
C756 C755 1.516 . S
C756 C757 1.502 . S
C756 C758 1.561 . S
C756 C759 1.526 . S
C757 H741 0.959 . S
C757 H742 0.959 . S
C757 H743 0.961 . S
C757 C756 1.502 . S
C758 H744 0.960 . S
C758 H745 0.961 . S
C758 H746 0.959 . S
C758 C756 1.561 . S
C759 C756 1.526 . S
C759 C760 1.396 . S
C759 C764 1.390 . S
C760 C754 1.465 . S
C760 C759 1.396 . S
C760 C761 1.399 . S
C761 H747 0.929 . S
C761 C760 1.399 . S
C761 C762 1.385 . S
C762 H748 0.931 . S
C762 C761 1.385 . S
C762 C763 1.389 . S
C763 C762 1.389 . S
C763 C764 1.387 . S
C764 H749 0.930 . S
C764 C759 1.390 . S
C764 C763 1.387 . S
H765 C777 0.930 . S
H766 C779 0.930 . S
H767 C780 0.930 . S
H768 C784 0.959 . S
H769 C784 0.959 . S
H770 C784 0.961 . S
H771 C785 0.960 . S
H772 C785 0.961 . S
H773 C785 0.959 . S
H774 C788 0.929 . S
H775 C789 0.931 . S
H776 C791 0.930 . S
C777 H765 0.930 . S
C777 C778 1.399 . S
C777 C782 1.399 . S
C778 C777 1.399 . S
C778 C779 1.376 . S
C779 H766 0.930 . S
C779 C778 1.376 . S
C779 C780 1.388 . S
C780 H767 0.930 . S
C780 C779 1.388 . S
C780 C781 1.390 . S
C781 C780 1.390 . S
C781 C782 1.394 . S
C781 C787 1.465 . S
C782 C777 1.399 . S
C782 C781 1.394 . S
C782 C783 1.516 . S
C783 C782 1.516 . S
C783 C784 1.502 . S
C783 C785 1.561 . S
C783 C786 1.526 . S
C784 H768 0.959 . S
C784 H769 0.959 . S
C784 H770 0.961 . S
C784 C783 1.502 . S
C785 H771 0.960 . S
C785 H772 0.961 . S
C785 H773 0.959 . S
C785 C783 1.561 . S
C786 C783 1.526 . S
C786 C787 1.396 . S
C786 C791 1.390 . S
C787 C781 1.465 . S
C787 C786 1.396 . S
C787 C788 1.399 . S
C788 H774 0.929 . S
C788 C787 1.399 . S
C788 C789 1.385 . S
C789 H775 0.931 . S
C789 C788 1.385 . S
C789 C790 1.389 . S
C790 C789 1.389 . S
C790 C791 1.387 . S
C791 H776 0.930 . S
C791 C786 1.390 . S
C791 C790 1.387 . S
H792 C804 0.930 . S
H793 C806 0.930 . S
H794 C807 0.930 . S
H795 C811 0.959 . S
H796 C811 0.959 . S
H797 C811 0.961 . S
H798 C812 0.960 . S
H799 C812 0.961 . S
H800 C812 0.959 . S
H801 C815 0.929 . S
H802 C816 0.931 . S
H803 C818 0.930 . S
C804 H792 0.930 . S
C804 C805 1.399 . S
C804 C809 1.399 . S
C805 C804 1.399 . S
C805 C806 1.376 . S
C806 H793 0.930 . S
C806 C805 1.376 . S
C806 C807 1.388 . S
C807 H794 0.930 . S
C807 C806 1.388 . S
C807 C808 1.390 . S
C808 C807 1.390 . S
C808 C809 1.394 . S
C808 C814 1.465 . S
C809 C804 1.399 . S
C809 C808 1.394 . S
C809 C810 1.516 . S
C810 C809 1.516 . S
C810 C811 1.502 . S
C810 C812 1.561 . S
C810 C813 1.526 . S
C811 H795 0.959 . S
C811 H796 0.959 . S
C811 H797 0.961 . S
C811 C810 1.502 . S
C812 H798 0.960 . S
C812 H799 0.961 . S
C812 H800 0.959 . S
C812 C810 1.561 . S
C813 C810 1.526 . S
C813 C814 1.396 . S
C813 C818 1.390 . S
C814 C808 1.465 . S
C814 C813 1.396 . S
C814 C815 1.399 . S
C815 H801 0.929 . S
C815 C814 1.399 . S
C815 C816 1.385 . S
C816 H802 0.931 . S
C816 C815 1.385 . S
C816 C817 1.389 . S
C817 C816 1.389 . S
C817 C818 1.387 . S
C818 H803 0.930 . S
C818 C813 1.390 . S
C818 C817 1.387 . S
H819 C831 0.930 . S
H820 C833 0.930 . S
H821 C834 0.930 . S
H822 C838 0.959 . S
H823 C838 0.959 . S
H824 C838 0.961 . S
H825 C839 0.960 . S
H826 C839 0.961 . S
H827 C839 0.959 . S
H828 C842 0.929 . S
H829 C843 0.931 . S
H830 C845 0.930 . S
C831 H819 0.930 . S
C831 C832 1.399 . S
C831 C836 1.399 . S
C832 C831 1.399 . S
C832 C833 1.376 . S
C833 H820 0.930 . S
C833 C832 1.376 . S
C833 C834 1.388 . S
C834 H821 0.930 . S
C834 C833 1.388 . S
C834 C835 1.390 . S
C835 C834 1.390 . S
C835 C836 1.394 . S
C835 C841 1.465 . S
C836 C831 1.399 . S
C836 C835 1.394 . S
C836 C837 1.516 . S
C837 C836 1.516 . S
C837 C838 1.502 . S
C837 C839 1.561 . S
C837 C840 1.526 . S
C838 H822 0.959 . S
C838 H823 0.959 . S
C838 H824 0.961 . S
C838 C837 1.502 . S
C839 H825 0.960 . S
C839 H826 0.961 . S
C839 H827 0.959 . S
C839 C837 1.561 . S
C840 C837 1.526 . S
C840 C841 1.396 . S
C840 C845 1.390 . S
C841 C835 1.465 . S
C841 C840 1.396 . S
C841 C842 1.399 . S
C842 H828 0.929 . S
C842 C841 1.399 . S
C842 C843 1.385 . S
C843 H829 0.931 . S
C843 C842 1.385 . S
C843 C844 1.389 . S
C844 C843 1.389 . S
C844 C845 1.387 . S
C845 H830 0.930 . S
C845 C840 1.390 . S
C845 C844 1.387 . S
H846 C858 0.930 . S
H847 C860 0.930 . S
H848 C861 0.930 . S
H849 C865 0.959 . S
H850 C865 0.959 . S
H851 C865 0.961 . S
H852 C866 0.960 . S
H853 C866 0.961 . S
H854 C866 0.959 . S
H855 C869 0.929 . S
H856 C870 0.931 . S
H857 C872 0.930 . S
C858 H846 0.930 . S
C858 C859 1.399 . S
C858 C863 1.399 . S
C859 C858 1.399 . S
C859 C860 1.376 . S
C860 H847 0.930 . S
C860 C859 1.376 . S
C860 C861 1.388 . S
C861 H848 0.930 . S
C861 C860 1.388 . S
C861 C862 1.390 . S
C862 C861 1.390 . S
C862 C863 1.394 . S
C862 C868 1.465 . S
C863 C858 1.399 . S
C863 C862 1.394 . S
C863 C864 1.516 . S
C864 C863 1.516 . S
C864 C865 1.502 . S
C864 C866 1.561 . S
C864 C867 1.526 . S
C865 H849 0.959 . S
C865 H850 0.959 . S
C865 H851 0.961 . S
C865 C864 1.502 . S
C866 H852 0.960 . S
C866 H853 0.961 . S
C866 H854 0.959 . S
C866 C864 1.561 . S
C867 C864 1.526 . S
C867 C868 1.396 . S
C867 C872 1.390 1_565 S
C868 C862 1.465 . S
C868 C867 1.396 . S
C868 C869 1.399 . S
C869 H855 0.929 . S
C869 C868 1.399 . S
C869 C870 1.385 1_565 S
C870 H856 0.931 . S
C870 C869 1.385 1_545 S
C870 C871 1.389 . S
C871 C870 1.389 . S
C871 C872 1.387 . S
C872 H857 0.930 . S
C872 C867 1.390 1_545 S
C872 C871 1.387 . S
H873 C885 0.930 . S
H874 C887 0.930 . S
H875 C888 0.930 . S
H876 C892 0.959 . S
H877 C892 0.959 . S
H878 C892 0.961 . S
H879 C893 0.960 . S
H880 C893 0.961 . S
H881 C893 0.959 . S
H882 C896 0.929 . S
H883 C897 0.931 . S
H884 C899 0.930 . S
C885 H873 0.930 . S
C885 C886 1.399 . S
C885 C890 1.399 . S
C886 C885 1.399 . S
C886 C887 1.376 . S
C887 H874 0.930 . S
C887 C886 1.376 . S
C887 C888 1.388 . S
C888 H875 0.930 . S
C888 C887 1.388 . S
C888 C889 1.390 . S
C889 C888 1.390 . S
C889 C890 1.394 . S
C889 C895 1.465 . S
C890 C885 1.399 . S
C890 C889 1.394 . S
C890 C891 1.516 . S
C891 C890 1.516 . S
C891 C892 1.502 . S
C891 C893 1.561 . S
C891 C894 1.526 . S
C892 H876 0.959 . S
C892 H877 0.959 . S
C892 H878 0.961 . S
C892 C891 1.502 . S
C893 H879 0.960 . S
C893 H880 0.961 . S
C893 H881 0.959 . S
C893 C891 1.561 . S
C894 C891 1.526 . S
C894 C895 1.396 . S
C894 C899 1.390 1_455 S
C895 C889 1.465 . S
C895 C894 1.396 . S
C895 C896 1.399 . S
C896 H882 0.929 . S
C896 C895 1.399 . S
C896 C897 1.385 1_455 S
C897 H883 0.931 . S
C897 C896 1.385 1_655 S
C897 C898 1.389 . S
C898 C897 1.389 . S
C898 C899 1.387 . S
C899 H884 0.930 . S
C899 C894 1.390 1_655 S
C899 C898 1.387 . S
H900 C912 0.930 . S
H901 C914 0.930 . S
H902 C915 0.930 . S
H903 C919 0.960 . S
H904 C919 0.959 1_556 S
H905 C919 0.961 . S
H906 C920 0.960 . S
H907 C920 0.961 1_556 S
H908 C920 0.959 . S
H909 C923 0.929 . S
H910 C924 0.931 . S
H911 C926 0.930 . S
C912 H900 0.930 . S
C912 C913 1.399 1_545 S
C912 C917 1.399 . S
C913 C912 1.399 1_565 S
C913 C914 1.376 . S
C914 H901 0.930 . S
C914 C913 1.376 . S
C914 C915 1.388 . S
C915 H902 0.930 . S
C915 C914 1.388 . S
C915 C916 1.390 . S
C916 C915 1.390 . S
C916 C917 1.394 1_565 S
C916 C922 1.465 1_554 S
C917 C912 1.399 . S
C917 C916 1.394 1_545 S
C917 C918 1.516 . S
C918 C917 1.516 . S
C918 C919 1.502 . S
C918 C920 1.561 . S
C918 C921 1.526 1_554 S
C919 H903 0.960 . S
C919 H904 0.959 1_554 S
C919 H905 0.961 . S
C919 C918 1.502 . S
C920 H906 0.960 . S
C920 H907 0.961 1_554 S
C920 H908 0.959 . S
C920 C918 1.561 . S
C921 C918 1.526 1_556 S
C921 C922 1.396 1_545 S
C921 C926 1.390 . S
C922 C916 1.465 1_556 S
C922 C921 1.396 1_565 S
C922 C923 1.399 . S
C923 H909 0.929 . S
C923 C922 1.399 . S
C923 C924 1.385 . S
C924 H910 0.931 . S
C924 C923 1.385 . S
C924 C925 1.389 1_565 S
C925 C924 1.389 1_545 S
C925 C926 1.387 . S
C926 H911 0.930 . S
C926 C921 1.390 . S
C926 C925 1.387 . S
H927 C939 0.930 . S
H928 C941 0.930 . S
H929 C942 0.930 . S
H930 C946 0.959 . S
H931 C946 0.959 1_554 S
H932 C946 0.961 . S
H933 C947 1.015 . S
H934 C947 0.917 1_554 S
H935 C947 0.946 1_554 S
H936 C950 0.929 . S
H937 C951 0.931 . S
H938 C953 0.930 . S
C939 H927 0.930 . S
C939 C940 1.399 1_455 S
C939 C944 1.399 . S
C940 C939 1.399 1_655 S
C940 C941 1.376 . S
C941 H928 0.930 . S
C941 C940 1.376 . S
C941 C942 1.388 . S
C942 H929 0.930 . S
C942 C941 1.388 . S
C942 C943 1.390 . S
C943 C942 1.390 . S
C943 C944 1.394 1_655 S
C943 C949 1.465 1_556 S
C944 C939 1.399 . S
C944 C943 1.394 1_455 S
C944 C945 1.578 . S
C945 C944 1.578 . S
C945 C946 1.509 . S
C945 C947 1.561 . S
C945 C948 1.459 1_556 S
C946 H930 0.959 . S
C946 H931 0.959 1_556 S
C946 H932 0.961 . S
C946 C945 1.509 . S
C947 H933 1.015 . S
C947 H934 0.917 1_556 S
C947 H935 0.946 1_556 S
C947 C945 1.561 . S
C948 C945 1.459 1_554 S
C948 C949 1.396 1_455 S
C948 C953 1.390 . S
C949 C943 1.465 1_554 S
C949 C948 1.396 1_655 S
C949 C950 1.399 . S
C950 H936 0.929 . S
C950 C949 1.399 . S
C950 C951 1.385 . S
C951 H937 0.931 . S
C951 C950 1.385 . S
C951 C952 1.389 1_655 S
C952 C951 1.389 1_455 S
C952 C953 1.387 . S
C953 H938 0.930 . S
C953 C948 1.390 . S
C953 C952 1.387 . S
H954 C966 0.930 . S
H955 C968 0.930 . S
H956 C969 0.930 . S
H957 C973 0.959 . S
H958 C973 0.976 . S
H959 C973 0.943 1_556 S
H960 C974 0.960 1_556 S
H961 C974 0.961 . S
H962 C974 0.959 . S
H963 C977 0.929 . S
H964 C978 0.931 . S
H965 C980 0.930 . S
C966 H954 0.930 . S
C966 C967 1.399 . S
C966 C971 1.399 . S
C967 C966 1.399 . S
C967 C968 1.376 . S
C968 H955 0.930 . S
C968 C967 1.376 . S
C968 C969 1.388 . S
C969 H956 0.930 . S
C969 C968 1.388 . S
C969 C970 1.390 . S
C970 C969 1.390 . S
C970 C971 1.394 . S
C970 C976 1.465 1_556 S
C971 C966 1.399 . S
C971 C970 1.394 . S
C971 C972 1.477 1_556 S
C972 C971 1.477 1_554 S
C972 C973 1.501 . S
C972 C974 1.566 . S
C972 C975 1.564 . S
C973 H957 0.959 . S
C973 H958 0.976 . S
C973 H959 0.943 1_554 S
C973 C972 1.501 . S
C974 H960 0.960 1_554 S
C974 H961 0.961 . S
C974 H962 0.959 . S
C974 C972 1.566 . S
C975 C972 1.564 . S
C975 C976 1.396 . S
C975 C980 1.390 . S
C976 C970 1.465 1_554 S
C976 C975 1.396 . S
C976 C977 1.399 . S
C977 H963 0.929 . S
C977 C976 1.399 . S
C977 C978 1.385 . S
C978 H964 0.931 . S
C978 C977 1.385 . S
C978 C979 1.389 . S
C979 C978 1.389 . S
C979 C980 1.387 . S
C980 H965 0.930 . S
C980 C975 1.390 . S
C980 C979 1.387 . S
H981 C993 0.930 . S
H982 C995 0.930 . S
H983 C996 0.930 . S
H984 C1000 0.959 . S
H985 C1000 0.959 . S
H986 C1000 0.961 . S
H987 C1001 0.960 . S
H988 C1001 0.961 . S
H989 C1001 0.959 . S
H990 C1004 0.929 . S
H991 C1005 0.931 . S
H992 C1007 0.930 . S
C993 H981 0.930 . S
C993 C994 1.399 . S
C993 C998 1.399 . S
C994 C993 1.399 . S
C994 C995 1.376 . S
C995 H982 0.930 . S
C995 C994 1.376 . S
C995 C996 1.388 . S
C996 H983 0.930 . S
C996 C995 1.388 . S
C996 C997 1.390 . S
C997 C996 1.390 . S
C997 C998 1.394 . S
C997 C1003 1.465 . S
C998 C993 1.399 . S
C998 C997 1.394 . S
C998 C999 1.516 . S
C999 C998 1.516 . S
C999 C1000 1.502 . S
C999 C1001 1.561 . S
C999 C1002 1.526 . S
C1000 H984 0.959 . S
C1000 H985 0.959 . S
C1000 H986 0.961 . S
C1000 C999 1.502 . S
C1001 H987 0.960 . S
C1001 H988 0.961 . S
C1001 H989 0.959 . S
C1001 C999 1.561 . S
C1002 C999 1.526 . S
C1002 C1003 1.396 . S
C1002 C1007 1.390 . S
C1003 C997 1.465 . S
C1003 C1002 1.396 . S
C1003 C1004 1.399 . S
C1004 H990 0.929 . S
C1004 C1003 1.399 . S
C1004 C1005 1.385 . S
C1005 H991 0.931 . S
C1005 C1004 1.385 . S
C1005 C1006 1.389 . S
C1006 C1005 1.389 . S
C1006 C1007 1.387 . S
C1007 H992 0.930 . S
C1007 C1002 1.390 . S
C1007 C1006 1.387 . S
H1008 C1020 0.930 . S
H1009 C1022 0.930 . S
H1010 C1023 0.930 . S
H1011 C1027 0.959 . S
H1012 C1027 0.959 . S
H1013 C1027 0.961 . S
H1014 C1028 0.960 . S
H1015 C1028 0.961 . S
H1016 C1028 0.959 . S
H1017 C1031 0.929 . S
H1018 C1032 0.931 . S
H1019 C1034 0.930 . S
C1020 H1008 0.930 . S
C1020 C1021 1.399 . S
C1020 C1025 1.399 . S
C1021 C1020 1.399 . S
C1021 C1022 1.376 . S
C1022 H1009 0.930 . S
C1022 C1021 1.376 . S
C1022 C1023 1.388 . S
C1023 H1010 0.930 . S
C1023 C1022 1.388 . S
C1023 C1024 1.390 . S
C1024 C1023 1.390 . S
C1024 C1025 1.394 . S
C1024 C1030 1.465 . S
C1025 C1020 1.399 . S
C1025 C1024 1.394 . S
C1025 C1026 1.516 . S
C1026 C1025 1.516 . S
C1026 C1027 1.502 . S
C1026 C1028 1.561 . S
C1026 C1029 1.526 . S
C1027 H1011 0.959 . S
C1027 H1012 0.959 . S
C1027 H1013 0.961 . S
C1027 C1026 1.502 . S
C1028 H1014 0.960 . S
C1028 H1015 0.961 . S
C1028 H1016 0.959 . S
C1028 C1026 1.561 . S
C1029 C1026 1.526 . S
C1029 C1030 1.396 . S
C1029 C1034 1.390 . S
C1030 C1024 1.465 . S
C1030 C1029 1.396 . S
C1030 C1031 1.399 . S
C1031 H1017 0.929 . S
C1031 C1030 1.399 . S
C1031 C1032 1.385 . S
C1032 H1018 0.931 . S
C1032 C1031 1.385 . S
C1032 C1033 1.389 . S
C1033 C1032 1.389 . S
C1033 C1034 1.387 . S
C1034 H1019 0.930 . S
C1034 C1029 1.390 . S
C1034 C1033 1.387 . S
H1035 C1047 0.930 . S
H1036 C1049 0.930 . S
H1037 C1050 0.930 . S
H1038 C1054 0.959 . S
H1039 C1054 0.959 1_545 S
H1040 C1054 0.961 . S
H1041 C1055 0.960 . S
H1042 C1055 0.961 . S
H1043 C1055 0.959 1_565 S
H1044 C1058 0.929 . S
H1045 C1059 0.931 . S
H1046 C1061 0.930 . S
C1047 H1035 0.930 . S
C1047 C1048 1.399 . S
C1047 C1052 1.399 . S
C1048 C1047 1.399 . S
C1048 C1049 1.376 . S
C1049 H1036 0.930 . S
C1049 C1048 1.376 . S
C1049 C1050 1.388 . S
C1050 H1037 0.930 . S
C1050 C1049 1.388 . S
C1050 C1051 1.390 . S
C1051 C1050 1.390 . S
C1051 C1052 1.394 . S
C1051 C1057 1.465 . S
C1052 C1047 1.399 . S
C1052 C1051 1.394 . S
C1052 C1053 1.516 . S
C1053 C1052 1.516 . S
C1053 C1054 1.502 . S
C1053 C1055 1.561 1_565 S
C1053 C1056 1.526 . S
C1054 H1038 0.959 . S
C1054 H1039 0.959 1_565 S
C1054 H1040 0.961 . S
C1054 C1053 1.502 . S
C1055 H1041 0.960 . S
C1055 H1042 0.961 . S
C1055 H1043 0.959 1_545 S
C1055 C1053 1.561 1_545 S
C1056 C1053 1.526 . S
C1056 C1057 1.396 . S
C1056 C1061 1.390 . S
C1057 C1051 1.465 . S
C1057 C1056 1.396 . S
C1057 C1058 1.399 . S
C1058 H1044 0.929 . S
C1058 C1057 1.399 . S
C1058 C1059 1.385 . S
C1059 H1045 0.931 . S
C1059 C1058 1.385 . S
C1059 C1060 1.389 . S
C1060 C1059 1.389 . S
C1060 C1061 1.387 . S
C1061 H1046 0.930 . S
C1061 C1056 1.390 . S
C1061 C1060 1.387 . S
H1062 C1074 0.930 . S
H1063 C1076 0.930 . S
H1064 C1077 0.930 . S
H1065 C1081 0.959 . S
H1066 C1081 0.959 . S
H1067 C1081 0.961 . S
H1068 C1082 0.960 . S
H1069 C1082 0.961 . S
H1070 C1082 0.959 . S
H1071 C1085 0.929 . S
H1072 C1086 0.931 . S
H1073 C1088 0.930 . S
C1074 H1062 0.930 . S
C1074 C1075 1.399 . S
C1074 C1079 1.399 . S
C1075 C1074 1.399 . S
C1075 C1076 1.376 . S
C1076 H1063 0.930 . S
C1076 C1075 1.376 . S
C1076 C1077 1.388 . S
C1077 H1064 0.930 . S
C1077 C1076 1.388 . S
C1077 C1078 1.390 . S
C1078 C1077 1.390 . S
C1078 C1079 1.394 . S
C1078 C1084 1.465 . S
C1079 C1074 1.399 . S
C1079 C1078 1.394 . S
C1079 C1080 1.516 . S
C1080 C1079 1.516 . S
C1080 C1081 1.502 . S
C1080 C1082 1.561 . S
C1080 C1083 1.526 . S
C1081 H1065 0.959 . S
C1081 H1066 0.959 . S
C1081 H1067 0.961 . S
C1081 C1080 1.502 . S
C1082 H1068 0.960 . S
C1082 H1069 0.961 . S
C1082 H1070 0.959 . S
C1082 C1080 1.561 . S
C1083 C1080 1.526 . S
C1083 C1084 1.396 . S
C1083 C1088 1.390 . S
C1084 C1078 1.465 . S
C1084 C1083 1.396 . S
C1084 C1085 1.399 . S
C1085 H1071 0.929 . S
C1085 C1084 1.399 . S
C1085 C1086 1.385 . S
C1086 H1072 0.931 . S
C1086 C1085 1.385 . S
C1086 C1087 1.389 . S
C1087 C1086 1.389 . S
C1087 C1088 1.387 . S
C1088 H1073 0.930 . S
C1088 C1083 1.390 . S
C1088 C1087 1.387 . S
H1089 C1101 0.930 . S
H1090 C1103 0.930 . S
H1091 C1104 0.930 . S
H1092 C1108 0.959 . S
H1093 C1108 0.959 . S
H1094 C1108 0.961 . S
H1095 C1109 0.960 . S
H1096 C1109 0.961 . S
H1097 C1109 0.959 . S
H1098 C1112 0.929 . S
H1099 C1113 0.931 . S
H1100 C1115 0.930 . S
C1101 H1089 0.930 . S
C1101 C1102 1.399 . S
C1101 C1106 1.399 . S
C1102 C1101 1.399 . S
C1102 C1103 1.376 . S
C1103 H1090 0.930 . S
C1103 C1102 1.376 . S
C1103 C1104 1.388 . S
C1104 H1091 0.930 . S
C1104 C1103 1.388 . S
C1104 C1105 1.390 . S
C1105 C1104 1.390 . S
C1105 C1106 1.394 . S
C1105 C1111 1.465 . S
C1106 C1101 1.399 . S
C1106 C1105 1.394 . S
C1106 C1107 1.516 . S
C1107 C1106 1.516 . S
C1107 C1108 1.502 . S
C1107 C1109 1.561 . S
C1107 C1110 1.526 . S
C1108 H1092 0.959 . S
C1108 H1093 0.959 . S
C1108 H1094 0.961 . S
C1108 C1107 1.502 . S
C1109 H1095 0.960 . S
C1109 H1096 0.961 . S
C1109 H1097 0.959 . S
C1109 C1107 1.561 . S
C1110 C1107 1.526 . S
C1110 C1111 1.396 . S
C1110 C1115 1.390 . S
C1111 C1105 1.465 . S
C1111 C1110 1.396 . S
C1111 C1112 1.399 . S
C1112 H1098 0.929 . S
C1112 C1111 1.399 . S
C1112 C1113 1.385 . S
C1113 H1099 0.931 . S
C1113 C1112 1.385 . S
C1113 C1114 1.389 . S
C1114 C1113 1.389 . S
C1114 C1115 1.387 . S
C1115 H1100 0.930 . S
C1115 C1110 1.390 . S
C1115 C1114 1.387 . S
H1116 C1128 0.930 . S
H1117 C1130 0.930 . S
H1118 C1131 0.930 . S
H1119 C1135 0.959 . S
H1120 C1135 0.959 . S
H1121 C1135 0.961 . S
H1122 C1136 0.960 . S
H1123 C1136 0.961 . S
H1124 C1136 0.959 . S
H1125 C1139 0.929 . S
H1126 C1140 0.931 . S
H1127 C1142 0.930 . S
C1128 H1116 0.930 . S
C1128 C1129 1.399 . S
C1128 C1133 1.399 . S
C1129 C1128 1.399 . S
C1129 C1130 1.376 . S
C1130 H1117 0.930 . S
C1130 C1129 1.376 . S
C1130 C1131 1.388 . S
C1131 H1118 0.930 . S
C1131 C1130 1.388 . S
C1131 C1132 1.390 . S
C1132 C1131 1.390 . S
C1132 C1133 1.394 . S
C1132 C1138 1.465 . S
C1133 C1128 1.399 . S
C1133 C1132 1.394 . S
C1133 C1134 1.516 . S
C1134 C1133 1.516 . S
C1134 C1135 1.502 . S
C1134 C1136 1.561 . S
C1134 C1137 1.526 . S
C1135 H1119 0.959 . S
C1135 H1120 0.959 . S
C1135 H1121 0.961 . S
C1135 C1134 1.502 . S
C1136 H1122 0.960 . S
C1136 H1123 0.961 . S
C1136 H1124 0.959 . S
C1136 C1134 1.561 . S
C1137 C1134 1.526 . S
C1137 C1138 1.396 . S
C1137 C1142 1.390 . S
C1138 C1132 1.465 . S
C1138 C1137 1.396 . S
C1138 C1139 1.399 . S
C1139 H1125 0.929 . S
C1139 C1138 1.399 . S
C1139 C1140 1.385 . S
C1140 H1126 0.931 . S
C1140 C1139 1.385 . S
C1140 C1141 1.389 . S
C1141 C1140 1.389 . S
C1141 C1142 1.387 . S
C1142 H1127 0.930 . S
C1142 C1137 1.390 . S
C1142 C1141 1.387 . S
H1143 C1155 0.930 . S
H1144 C1157 0.930 . S
H1145 C1158 0.930 . S
H1146 C1162 0.959 . S
H1147 C1162 0.959 . S
H1148 C1162 0.961 . S
H1149 C1163 0.960 . S
H1150 C1163 0.961 . S
H1151 C1163 0.959 1_565 S
H1152 C1166 0.929 . S
H1153 C1167 0.931 . S
H1154 C1169 0.930 . S
C1155 H1143 0.930 . S
C1155 C1156 1.399 . S
C1155 C1160 1.399 . S
C1156 C1155 1.399 . S
C1156 C1157 1.376 . S
C1157 H1144 0.930 . S
C1157 C1156 1.376 . S
C1157 C1158 1.388 . S
C1158 H1145 0.930 . S
C1158 C1157 1.388 . S
C1158 C1159 1.390 . S
C1159 C1158 1.390 . S
C1159 C1160 1.394 . S
C1159 C1165 1.465 . S
C1160 C1155 1.399 . S
C1160 C1159 1.394 . S
C1160 C1161 1.516 1_565 S
C1161 C1160 1.516 1_545 S
C1161 C1162 1.502 . S
C1161 C1163 1.561 . S
C1161 C1164 1.526 1_545 S
C1162 H1146 0.959 . S
C1162 H1147 0.959 . S
C1162 H1148 0.961 . S
C1162 C1161 1.502 . S
C1163 H1149 0.960 . S
C1163 H1150 0.961 . S
C1163 H1151 0.959 1_545 S
C1163 C1161 1.561 . S
C1164 C1161 1.526 1_565 S
C1164 C1165 1.396 . S
C1164 C1169 1.390 1_565 S
C1165 C1159 1.465 . S
C1165 C1164 1.396 . S
C1165 C1166 1.399 . S
C1166 H1152 0.929 . S
C1166 C1165 1.399 . S
C1166 C1167 1.385 . S
C1167 H1153 0.931 . S
C1167 C1166 1.385 . S
C1167 C1168 1.389 . S
C1168 C1167 1.389 . S
C1168 C1169 1.387 1_565 S
C1169 H1154 0.930 . S
C1169 C1164 1.390 1_545 S
C1169 C1168 1.387 1_545 S
H1170 C1182 0.930 1_655 S
H1171 C1184 0.930 . S
H1172 C1185 0.930 . S
H1173 C1189 0.959 . S
H1174 C1189 0.959 . S
H1175 C1189 0.961 . S
H1176 C1190 0.960 . S
H1177 C1190 0.961 . S
H1178 C1190 0.959 . S
H1179 C1193 0.929 . S
H1180 C1194 0.931 . S
H1181 C1196 0.930 . S
C1182 H1170 0.930 1_455 S
C1182 C1183 1.399 . S
C1182 C1187 1.399 . S
C1183 C1182 1.399 . S
C1183 C1184 1.376 . S
C1184 H1171 0.930 . S
C1184 C1183 1.376 . S
C1184 C1185 1.388 . S
C1185 H1172 0.930 . S
C1185 C1184 1.388 . S
C1185 C1186 1.390 . S
C1186 C1185 1.390 . S
C1186 C1187 1.394 . S
C1186 C1192 1.465 . S
C1187 C1182 1.399 . S
C1187 C1186 1.394 . S
C1187 C1188 1.516 . S
C1188 C1187 1.516 . S
C1188 C1189 1.502 1_455 S
C1188 C1190 1.561 . S
C1188 C1191 1.526 . S
C1189 H1173 0.959 . S
C1189 H1174 0.959 . S
C1189 H1175 0.961 . S
C1189 C1188 1.502 1_655 S
C1190 H1176 0.960 . S
C1190 H1177 0.961 . S
C1190 H1178 0.959 . S
C1190 C1188 1.561 . S
C1191 C1188 1.526 . S
C1191 C1192 1.396 . S
C1191 C1196 1.390 . S
C1192 C1186 1.465 . S
C1192 C1191 1.396 . S
C1192 C1193 1.399 . S
C1193 H1179 0.929 . S
C1193 C1192 1.399 . S
C1193 C1194 1.385 . S
C1194 H1180 0.931 . S
C1194 C1193 1.385 . S
C1194 C1195 1.389 . S
C1195 C1194 1.389 . S
C1195 C1196 1.387 . S
C1196 H1181 0.930 . S
C1196 C1191 1.390 . S
C1196 C1195 1.387 . S
H1197 C1209 0.930 . S
H1198 C1211 0.930 . S
H1199 C1212 0.930 . S
H1200 C1216 0.959 . S
H1201 C1216 0.959 . S
H1202 C1216 0.961 . S
H1203 C1217 0.960 . S
H1204 C1217 0.961 . S
H1205 C1217 0.959 . S
H1206 C1220 0.929 . S
H1207 C1221 0.931 . S
H1208 C1223 0.930 . S
C1209 H1197 0.930 . S
C1209 C1210 1.399 . S
C1209 C1214 1.399 . S
C1210 C1209 1.399 . S
C1210 C1211 1.376 . S
C1211 H1198 0.930 . S
C1211 C1210 1.376 . S
C1211 C1212 1.388 . S
C1212 H1199 0.930 . S
C1212 C1211 1.388 . S
C1212 C1213 1.390 . S
C1213 C1212 1.390 . S
C1213 C1214 1.394 . S
C1213 C1219 1.465 . S
C1214 C1209 1.399 . S
C1214 C1213 1.394 . S
C1214 C1215 1.516 . S
C1215 C1214 1.516 . S
C1215 C1216 1.502 . S
C1215 C1217 1.561 . S
C1215 C1218 1.526 . S
C1216 H1200 0.959 . S
C1216 H1201 0.959 . S
C1216 H1202 0.961 . S
C1216 C1215 1.502 . S
C1217 H1203 0.960 . S
C1217 H1204 0.961 . S
C1217 H1205 0.959 . S
C1217 C1215 1.561 . S
C1218 C1215 1.526 . S
C1218 C1219 1.396 . S
C1218 C1223 1.390 . S
C1219 C1213 1.465 . S
C1219 C1218 1.396 . S
C1219 C1220 1.399 . S
C1220 H1206 0.929 . S
C1220 C1219 1.399 . S
C1220 C1221 1.385 . S
C1221 H1207 0.931 . S
C1221 C1220 1.385 . S
C1221 C1222 1.389 . S
C1222 C1221 1.389 . S
C1222 C1223 1.387 . S
C1223 H1208 0.930 . S
C1223 C1218 1.390 . S
C1223 C1222 1.387 . S
H1224 C1236 0.930 . S
H1225 C1238 0.930 . S
H1226 C1239 0.930 . S
H1227 C1243 0.959 . S
H1228 C1243 0.959 . S
H1229 C1243 0.961 . S
H1230 C1244 0.960 . S
H1231 C1244 0.961 . S
H1232 C1244 0.959 . S
H1233 C1247 0.929 . S
H1234 C1248 0.931 . S
H1235 C1250 0.930 . S
C1236 H1224 0.930 . S
C1236 C1237 1.399 . S
C1236 C1241 1.399 . S
C1237 C1236 1.399 . S
C1237 C1238 1.376 . S
C1238 H1225 0.930 . S
C1238 C1237 1.376 . S
C1238 C1239 1.388 . S
C1239 H1226 0.930 . S
C1239 C1238 1.388 . S
C1239 C1240 1.390 . S
C1240 C1239 1.390 . S
C1240 C1241 1.394 . S
C1240 C1246 1.465 . S
C1241 C1236 1.399 . S
C1241 C1240 1.394 . S
C1241 C1242 1.516 . S
C1242 C1241 1.516 . S
C1242 C1243 1.502 1_655 S
C1242 C1244 1.561 . S
C1242 C1245 1.526 . S
C1243 H1227 0.959 . S
C1243 H1228 0.959 . S
C1243 H1229 0.961 . S
C1243 C1242 1.502 1_455 S
C1244 H1230 0.960 . S
C1244 H1231 0.961 . S
C1244 H1232 0.959 . S
C1244 C1242 1.561 . S
C1245 C1242 1.526 . S
C1245 C1246 1.396 . S
C1245 C1250 1.390 . S
C1246 C1240 1.465 . S
C1246 C1245 1.396 . S
C1246 C1247 1.399 . S
C1247 H1233 0.929 . S
C1247 C1246 1.399 . S
C1247 C1248 1.385 . S
C1248 H1234 0.931 . S
C1248 C1247 1.385 . S
C1248 C1249 1.389 . S
C1249 C1248 1.389 . S
C1249 C1250 1.387 . S
C1250 H1235 0.930 . S
C1250 C1245 1.390 . S
C1250 C1249 1.387 . S
H1251 C1263 0.930 . S
H1252 C1265 0.930 . S
H1253 C1266 0.930 . S
H1254 C1270 0.959 . S
H1255 C1270 0.959 . S
H1256 C1270 0.961 . S
H1257 C1271 0.960 . S
H1258 C1271 0.961 . S
H1259 C1271 0.959 . S
H1260 C1274 0.929 . S
H1261 C1275 0.931 . S
H1262 C1277 0.930 . S
C1263 H1251 0.930 . S
C1263 C1264 1.399 . S
C1263 C1268 1.399 . S
C1264 C1263 1.399 . S
C1264 C1265 1.376 . S
C1265 H1252 0.930 . S
C1265 C1264 1.376 . S
C1265 C1266 1.388 . S
C1266 H1253 0.930 . S
C1266 C1265 1.388 . S
C1266 C1267 1.390 . S
C1267 C1266 1.390 . S
C1267 C1268 1.394 . S
C1267 C1273 1.465 . S
C1268 C1263 1.399 . S
C1268 C1267 1.394 . S
C1268 C1269 1.516 . S
C1269 C1268 1.516 . S
C1269 C1270 1.502 . S
C1269 C1271 1.561 . S
C1269 C1272 1.526 . S
C1270 H1254 0.959 . S
C1270 H1255 0.959 . S
C1270 H1256 0.961 . S
C1270 C1269 1.502 . S
C1271 H1257 0.960 . S
C1271 H1258 0.961 . S
C1271 H1259 0.959 . S
C1271 C1269 1.561 . S
C1272 C1269 1.526 . S
C1272 C1273 1.396 . S
C1272 C1277 1.390 . S
C1273 C1267 1.465 . S
C1273 C1272 1.396 . S
C1273 C1274 1.399 . S
C1274 H1260 0.929 . S
C1274 C1273 1.399 . S
C1274 C1275 1.385 . S
C1275 H1261 0.931 . S
C1275 C1274 1.385 . S
C1275 C1276 1.389 . S
C1276 C1275 1.389 . S
C1276 C1277 1.387 . S
C1277 H1262 0.930 . S
C1277 C1272 1.390 . S
C1277 C1276 1.387 . S
H1278 C1290 0.930 . S
H1279 C1292 0.930 . S
H1280 C1293 0.930 1_565 S
H1281 C1297 0.959 . S
H1282 C1297 0.959 . S
H1283 C1297 0.961 . S
H1284 C1298 0.960 . S
H1285 C1298 0.961 . S
H1286 C1298 0.959 . S
H1287 C1301 0.929 . S
H1288 C1302 0.931 . S
H1289 C1304 0.930 . S
C1290 H1278 0.930 . S
C1290 C1291 1.399 . S
C1290 C1295 1.399 . S
C1291 C1290 1.399 . S
C1291 C1292 1.376 . S
C1292 H1279 0.930 . S
C1292 C1291 1.376 . S
C1292 C1293 1.388 . S
C1293 H1280 0.930 1_545 S
C1293 C1292 1.388 . S
C1293 C1294 1.390 . S
C1294 C1293 1.390 . S
C1294 C1295 1.394 . S
C1294 C1300 1.465 . S
C1295 C1290 1.399 . S
C1295 C1294 1.394 . S
C1295 C1296 1.516 . S
C1296 C1295 1.516 . S
C1296 C1297 1.502 . S
C1296 C1298 1.561 . S
C1296 C1299 1.526 . S
C1297 H1281 0.959 . S
C1297 H1282 0.959 . S
C1297 H1283 0.961 . S
C1297 C1296 1.502 . S
C1298 H1284 0.960 . S
C1298 H1285 0.961 . S
C1298 H1286 0.959 . S
C1298 C1296 1.561 . S
C1299 C1296 1.526 . S
C1299 C1300 1.396 . S
C1299 C1304 1.390 . S
C1300 C1294 1.465 . S
C1300 C1299 1.396 . S
C1300 C1301 1.399 1_545 S
C1301 H1287 0.929 . S
C1301 C1300 1.399 1_565 S
C1301 C1302 1.385 . S
C1302 H1288 0.931 . S
C1302 C1301 1.385 . S
C1302 C1303 1.389 1_565 S
C1303 C1302 1.389 1_545 S
C1303 C1304 1.387 . S
C1304 H1289 0.930 . S
C1304 C1299 1.390 . S
C1304 C1303 1.387 . S
H1305 C1317 0.930 . S
H1306 C1319 0.930 . S
H1307 C1320 0.930 . S
H1308 C1324 0.959 . S
H1309 C1324 0.959 . S
H1310 C1324 0.961 . S
H1311 C1325 0.960 . S
H1312 C1325 0.961 . S
H1313 C1325 0.959 . S
H1314 C1328 0.929 . S
H1315 C1329 0.931 . S
H1316 C1331 0.930 . S
C1317 H1305 0.930 . S
C1317 C1318 1.399 . S
C1317 C1322 1.399 . S
C1318 C1317 1.399 . S
C1318 C1319 1.376 . S
C1319 H1306 0.930 . S
C1319 C1318 1.376 . S
C1319 C1320 1.388 . S
C1320 H1307 0.930 . S
C1320 C1319 1.388 . S
C1320 C1321 1.390 . S
C1321 C1320 1.390 . S
C1321 C1322 1.394 . S
C1321 C1327 1.465 1_655 S
C1322 C1317 1.399 . S
C1322 C1321 1.394 . S
C1322 C1323 1.516 1_655 S
C1323 C1322 1.516 1_455 S
C1323 C1324 1.502 . S
C1323 C1325 1.561 1_455 S
C1323 C1326 1.526 . S
C1324 H1308 0.959 . S
C1324 H1309 0.959 . S
C1324 H1310 0.961 . S
C1324 C1323 1.502 . S
C1325 H1311 0.960 . S
C1325 H1312 0.961 . S
C1325 H1313 0.959 . S
C1325 C1323 1.561 1_655 S
C1326 C1323 1.526 . S
C1326 C1327 1.396 . S
C1326 C1331 1.390 . S
C1327 C1321 1.465 1_455 S
C1327 C1326 1.396 . S
C1327 C1328 1.399 . S
C1328 H1314 0.929 . S
C1328 C1327 1.399 . S
C1328 C1329 1.385 . S
C1329 H1315 0.931 . S
C1329 C1328 1.385 . S
C1329 C1330 1.389 . S
C1330 C1329 1.389 . S
C1330 C1331 1.387 . S
C1331 H1316 0.930 . S
C1331 C1326 1.390 . S
C1331 C1330 1.387 . S
H1332 C1344 0.930 . S
H1333 C1346 0.930 . S
H1334 C1347 0.930 . S
H1335 C1351 0.959 . S
H1336 C1351 0.959 . S
H1337 C1351 0.961 . S
H1338 C1352 0.960 . S
H1339 C1352 0.961 . S
H1340 C1352 0.959 . S
H1341 C1355 0.929 . S
H1342 C1356 0.931 . S
H1343 C1358 0.930 . S
C1344 H1332 0.930 . S
C1344 C1345 1.399 . S
C1344 C1349 1.399 . S
C1345 C1344 1.399 . S
C1345 C1346 1.376 . S
C1346 H1333 0.930 . S
C1346 C1345 1.376 . S
C1346 C1347 1.388 . S
C1347 H1334 0.930 . S
C1347 C1346 1.388 . S
C1347 C1348 1.390 . S
C1348 C1347 1.390 . S
C1348 C1349 1.394 . S
C1348 C1354 1.465 . S
C1349 C1344 1.399 . S
C1349 C1348 1.394 . S
C1349 C1350 1.516 . S
C1350 C1349 1.516 . S
C1350 C1351 1.502 . S
C1350 C1352 1.561 . S
C1350 C1353 1.526 . S
C1351 H1335 0.959 . S
C1351 H1336 0.959 . S
C1351 H1337 0.961 . S
C1351 C1350 1.502 . S
C1352 H1338 0.960 . S
C1352 H1339 0.961 . S
C1352 H1340 0.959 . S
C1352 C1350 1.561 . S
C1353 C1350 1.526 . S
C1353 C1354 1.396 . S
C1353 C1358 1.390 . S
C1354 C1348 1.465 . S
C1354 C1353 1.396 . S
C1354 C1355 1.399 . S
C1355 H1341 0.929 . S
C1355 C1354 1.399 . S
C1355 C1356 1.385 . S
C1356 H1342 0.931 . S
C1356 C1355 1.385 . S
C1356 C1357 1.389 . S
C1357 C1356 1.389 . S
C1357 C1358 1.387 . S
C1358 H1343 0.930 . S
C1358 C1353 1.390 . S
C1358 C1357 1.387 . S
H1359 C1371 0.930 . S
H1360 C1373 0.930 . S
H1361 C1374 0.930 . S
H1362 C1378 0.959 . S
H1363 C1378 0.959 . S
H1364 C1378 0.961 . S
H1365 C1379 0.960 . S
H1366 C1379 0.961 . S
H1367 C1379 0.959 . S
H1368 C1382 0.929 . S
H1369 C1383 0.931 . S
H1370 C1385 0.930 . S
C1371 H1359 0.930 . S
C1371 C1372 1.399 . S
C1371 C1376 1.399 . S
C1372 C1371 1.399 . S
C1372 C1373 1.376 1_565 S
C1373 H1360 0.930 . S
C1373 C1372 1.376 1_545 S
C1373 C1374 1.388 . S
C1374 H1361 0.930 . S
C1374 C1373 1.388 . S
C1374 C1375 1.390 . S
C1375 C1374 1.390 . S
C1375 C1376 1.394 1_545 S
C1375 C1381 1.465 . S
C1376 C1371 1.399 . S
C1376 C1375 1.394 1_565 S
C1376 C1377 1.516 . S
C1377 C1376 1.516 . S
C1377 C1378 1.502 . S
C1377 C1379 1.561 . S
C1377 C1380 1.526 1_565 S
C1378 H1362 0.959 . S
C1378 H1363 0.959 . S
C1378 H1364 0.961 . S
C1378 C1377 1.502 . S
C1379 H1365 0.960 . S
C1379 H1366 0.961 . S
C1379 H1367 0.959 . S
C1379 C1377 1.561 . S
C1380 C1377 1.526 1_545 S
C1380 C1381 1.396 . S
C1380 C1385 1.390 . S
C1381 C1375 1.465 . S
C1381 C1380 1.396 . S
C1381 C1382 1.399 . S
C1382 H1368 0.929 . S
C1382 C1381 1.399 . S
C1382 C1383 1.385 . S
C1383 H1369 0.931 . S
C1383 C1382 1.385 . S
C1383 C1384 1.389 . S
C1384 C1383 1.389 . S
C1384 C1385 1.387 . S
C1385 H1370 0.930 . S
C1385 C1380 1.390 . S
C1385 C1384 1.387 . S
H1386 C1398 0.930 . S
H1387 C1400 0.930 . S
H1388 C1401 0.930 . S
H1389 C1405 0.959 . S
H1390 C1405 0.959 . S
H1391 C1405 0.961 . S
H1392 C1406 0.960 . S
H1393 C1406 0.961 . S
H1394 C1406 0.959 . S
H1395 C1409 0.929 . S
H1396 C1410 0.931 . S
H1397 C1412 0.930 . S
C1398 H1386 0.930 . S
C1398 C1399 1.399 . S
C1398 C1403 1.399 . S
C1399 C1398 1.399 . S
C1399 C1400 1.376 . S
C1400 H1387 0.930 . S
C1400 C1399 1.376 . S
C1400 C1401 1.388 . S
C1401 H1388 0.930 . S
C1401 C1400 1.388 . S
C1401 C1402 1.390 . S
C1402 C1401 1.390 . S
C1402 C1403 1.394 . S
C1402 C1408 1.465 . S
C1403 C1398 1.399 . S
C1403 C1402 1.394 . S
C1403 C1404 1.516 . S
C1404 C1403 1.516 . S
C1404 C1405 1.502 . S
C1404 C1406 1.561 . S
C1404 C1407 1.526 . S
C1405 H1389 0.959 . S
C1405 H1390 0.959 . S
C1405 H1391 0.961 . S
C1405 C1404 1.502 . S
C1406 H1392 0.960 . S
C1406 H1393 0.961 . S
C1406 H1394 0.959 . S
C1406 C1404 1.561 . S
C1407 C1404 1.526 . S
C1407 C1408 1.396 . S
C1407 C1412 1.390 . S
C1408 C1402 1.465 . S
C1408 C1407 1.396 . S
C1408 C1409 1.399 . S
C1409 H1395 0.929 . S
C1409 C1408 1.399 . S
C1409 C1410 1.385 . S
C1410 H1396 0.931 . S
C1410 C1409 1.385 . S
C1410 C1411 1.389 . S
C1411 C1410 1.389 . S
C1411 C1412 1.387 . S
C1412 H1397 0.930 . S
C1412 C1407 1.390 . S
C1412 C1411 1.387 . S
H1413 C1425 0.930 . S
H1414 C1427 0.930 . S
H1415 C1428 0.930 . S
H1416 C1432 0.959 . S
H1417 C1432 0.959 . S
H1418 C1432 0.961 . S
H1419 C1433 0.960 . S
H1420 C1433 0.961 . S
H1421 C1433 0.959 . S
H1422 C1436 0.929 . S
H1423 C1437 0.931 . S
H1424 C1439 0.930 . S
C1425 H1413 0.930 . S
C1425 C1426 1.399 . S
C1425 C1430 1.399 . S
C1426 C1425 1.399 . S
C1426 C1427 1.376 . S
C1427 H1414 0.930 . S
C1427 C1426 1.376 . S
C1427 C1428 1.388 . S
C1428 H1415 0.930 . S
C1428 C1427 1.388 . S
C1428 C1429 1.390 . S
C1429 C1428 1.390 . S
C1429 C1430 1.394 . S
C1429 C1435 1.465 . S
C1430 C1425 1.399 . S
C1430 C1429 1.394 . S
C1430 C1431 1.516 . S
C1431 C1430 1.516 . S
C1431 C1432 1.502 . S
C1431 C1433 1.561 . S
C1431 C1434 1.526 . S
C1432 H1416 0.959 . S
C1432 H1417 0.959 . S
C1432 H1418 0.961 . S
C1432 C1431 1.502 . S
C1433 H1419 0.960 . S
C1433 H1420 0.961 . S
C1433 H1421 0.959 . S
C1433 C1431 1.561 . S
C1434 C1431 1.526 . S
C1434 C1435 1.396 . S
C1434 C1439 1.390 . S
C1435 C1429 1.465 . S
C1435 C1434 1.396 . S
C1435 C1436 1.399 . S
C1436 H1422 0.929 . S
C1436 C1435 1.399 . S
C1436 C1437 1.385 . S
C1437 H1423 0.931 . S
C1437 C1436 1.385 . S
C1437 C1438 1.389 . S
C1438 C1437 1.389 . S
C1438 C1439 1.387 . S
C1439 H1424 0.930 . S
C1439 C1434 1.390 . S
C1439 C1438 1.387 . S
H1440 C1452 0.930 . S
H1441 C1454 0.930 . S
H1442 C1455 0.930 . S
H1443 C1459 0.959 . S
H1444 C1459 0.959 . S
H1445 C1459 0.961 . S
H1446 C1460 0.960 . S
H1447 C1460 0.961 . S
H1448 C1460 0.959 . S
H1449 C1463 0.929 . S
H1450 C1464 0.931 . S
H1451 C1466 0.930 . S
C1452 H1440 0.930 . S
C1452 C1453 1.399 . S
C1452 C1457 1.399 . S
C1453 C1452 1.399 . S
C1453 C1454 1.376 . S
C1454 H1441 0.930 . S
C1454 C1453 1.376 . S
C1454 C1455 1.388 . S
C1455 H1442 0.930 . S
C1455 C1454 1.388 . S
C1455 C1456 1.390 . S
C1456 C1455 1.390 . S
C1456 C1457 1.394 . S
C1456 C1462 1.465 . S
C1457 C1452 1.399 . S
C1457 C1456 1.394 . S
C1457 C1458 1.516 . S
C1458 C1457 1.516 . S
C1458 C1459 1.502 . S
C1458 C1460 1.561 . S
C1458 C1461 1.526 . S
C1459 H1443 0.959 . S
C1459 H1444 0.959 . S
C1459 H1445 0.961 . S
C1459 C1458 1.502 . S
C1460 H1446 0.960 . S
C1460 H1447 0.961 . S
C1460 H1448 0.959 . S
C1460 C1458 1.561 . S
C1461 C1458 1.526 . S
C1461 C1462 1.396 . S
C1461 C1466 1.390 . S
C1462 C1456 1.465 . S
C1462 C1461 1.396 . S
C1462 C1463 1.399 . S
C1463 H1449 0.929 . S
C1463 C1462 1.399 . S
C1463 C1464 1.385 . S
C1464 H1450 0.931 . S
C1464 C1463 1.385 . S
C1464 C1465 1.389 . S
C1465 C1464 1.389 . S
C1465 C1466 1.387 . S
C1466 H1451 0.930 . S
C1466 C1461 1.390 . S
C1466 C1465 1.387 . S
H1467 C1479 0.930 . S
H1468 C1481 0.930 . S
H1469 C1482 0.930 . S
H1470 C1486 0.959 . S
H1471 C1486 0.959 . S
H1472 C1486 0.961 . S
H1473 C1487 0.960 . S
H1474 C1487 0.961 . S
H1475 C1487 0.959 . S
H1476 C1490 0.929 . S
H1477 C1491 0.931 . S
H1478 C1493 0.930 . S
C1479 H1467 0.930 . S
C1479 C1480 1.399 . S
C1479 C1484 1.399 . S
C1480 C1479 1.399 . S
C1480 C1481 1.376 . S
C1481 H1468 0.930 . S
C1481 C1480 1.376 . S
C1481 C1482 1.388 . S
C1482 H1469 0.930 . S
C1482 C1481 1.388 . S
C1482 C1483 1.390 . S
C1483 C1482 1.390 . S
C1483 C1484 1.394 . S
C1483 C1489 1.465 . S
C1484 C1479 1.399 . S
C1484 C1483 1.394 . S
C1484 C1485 1.516 . S
C1485 C1484 1.516 . S
C1485 C1486 1.502 . S
C1485 C1487 1.561 . S
C1485 C1488 1.526 . S
C1486 H1470 0.959 . S
C1486 H1471 0.959 . S
C1486 H1472 0.961 . S
C1486 C1485 1.502 . S
C1487 H1473 0.960 . S
C1487 H1474 0.961 . S
C1487 H1475 0.959 . S
C1487 C1485 1.561 . S
C1488 C1485 1.526 . S
C1488 C1489 1.396 . S
C1488 C1493 1.390 . S
C1489 C1483 1.465 . S
C1489 C1488 1.396 . S
C1489 C1490 1.399 . S
C1490 H1476 0.929 . S
C1490 C1489 1.399 . S
C1490 C1491 1.385 . S
C1491 H1477 0.931 . S
C1491 C1490 1.385 . S
C1491 C1492 1.389 . S
C1492 C1491 1.389 . S
C1492 C1493 1.387 . S
C1493 H1478 0.930 . S
C1493 C1488 1.390 . S
C1493 C1492 1.387 . S
H1494 C1506 0.930 . S
H1495 C1508 0.930 . S
H1496 C1509 0.930 . S
H1497 C1513 0.959 . S
H1498 C1513 0.959 . S
H1499 C1513 0.961 . S
H1500 C1514 0.960 . S
H1501 C1514 0.961 . S
H1502 C1514 0.959 . S
H1503 C1517 0.929 . S
H1504 C1518 0.931 . S
H1505 C1520 0.930 . S
C1506 H1494 0.930 . S
C1506 C1507 1.399 . S
C1506 C1511 1.399 . S
C1507 C1506 1.399 . S
C1507 C1508 1.376 . S
C1508 H1495 0.930 . S
C1508 C1507 1.376 . S
C1508 C1509 1.388 . S
C1509 H1496 0.930 . S
C1509 C1508 1.388 . S
C1509 C1510 1.390 . S
C1510 C1509 1.390 . S
C1510 C1511 1.394 . S
C1510 C1516 1.465 . S
C1511 C1506 1.399 . S
C1511 C1510 1.394 . S
C1511 C1512 1.516 . S
C1512 C1511 1.516 . S
C1512 C1513 1.502 . S
C1512 C1514 1.561 . S
C1512 C1515 1.526 . S
C1513 H1497 0.959 . S
C1513 H1498 0.959 . S
C1513 H1499 0.961 . S
C1513 C1512 1.502 . S
C1514 H1500 0.960 . S
C1514 H1501 0.961 . S
C1514 H1502 0.959 . S
C1514 C1512 1.561 . S
C1515 C1512 1.526 . S
C1515 C1516 1.396 . S
C1515 C1520 1.390 . S
C1516 C1510 1.465 . S
C1516 C1515 1.396 . S
C1516 C1517 1.399 . S
C1517 H1503 0.929 . S
C1517 C1516 1.399 . S
C1517 C1518 1.385 . S
C1518 H1504 0.931 . S
C1518 C1517 1.385 . S
C1518 C1519 1.389 . S
C1519 C1518 1.389 . S
C1519 C1520 1.387 . S
C1520 H1505 0.930 . S
C1520 C1515 1.390 . S
C1520 C1519 1.387 . S
H1521 C1533 0.930 . S
H1522 C1535 0.930 . S
H1523 C1536 0.930 . S
H1524 C1540 0.959 . S
H1525 C1540 0.959 . S
H1526 C1540 0.961 . S
H1527 C1541 0.960 . S
H1528 C1541 0.961 . S
H1529 C1541 0.959 . S
H1530 C1544 0.929 . S
H1531 C1545 0.931 . S
H1532 C1547 0.930 . S
C1533 H1521 0.930 . S
C1533 C1534 1.399 . S
C1533 C1538 1.399 . S
C1534 C1533 1.399 . S
C1534 C1535 1.376 . S
C1535 H1522 0.930 . S
C1535 C1534 1.376 . S
C1535 C1536 1.388 . S
C1536 H1523 0.930 . S
C1536 C1535 1.388 . S
C1536 C1537 1.390 . S
C1537 C1536 1.390 . S
C1537 C1538 1.394 . S
C1537 C1543 1.465 . S
C1538 C1533 1.399 . S
C1538 C1537 1.394 . S
C1538 C1539 1.516 . S
C1539 C1538 1.516 . S
C1539 C1540 1.502 . S
C1539 C1541 1.561 . S
C1539 C1542 1.526 . S
C1540 H1524 0.959 . S
C1540 H1525 0.959 . S
C1540 H1526 0.961 . S
C1540 C1539 1.502 . S
C1541 H1527 0.960 . S
C1541 H1528 0.961 . S
C1541 H1529 0.959 . S
C1541 C1539 1.561 . S
C1542 C1539 1.526 . S
C1542 C1543 1.396 . S
C1542 C1547 1.390 . S
C1543 C1537 1.465 . S
C1543 C1542 1.396 . S
C1543 C1544 1.399 . S
C1544 H1530 0.929 . S
C1544 C1543 1.399 . S
C1544 C1545 1.385 . S
C1545 H1531 0.931 . S
C1545 C1544 1.385 . S
C1545 C1546 1.389 . S
C1546 C1545 1.389 . S
C1546 C1547 1.387 . S
C1547 H1532 0.930 . S
C1547 C1542 1.390 . S
C1547 C1546 1.387 . S
H1548 C1560 0.930 . S
H1549 C1562 0.930 . S
H1550 C1563 0.930 . S
H1551 C1567 0.959 . S
H1552 C1567 0.959 . S
H1553 C1567 0.961 . S
H1554 C1568 0.960 . S
H1555 C1568 0.961 . S
H1556 C1568 0.959 . S
H1557 C1571 0.929 . S
H1558 C1572 0.931 . S
H1559 C1574 0.930 . S
C1560 H1548 0.930 . S
C1560 C1561 1.399 . S
C1560 C1565 1.399 . S
C1561 C1560 1.399 . S
C1561 C1562 1.376 . S
C1562 H1549 0.930 . S
C1562 C1561 1.376 . S
C1562 C1563 1.388 . S
C1563 H1550 0.930 . S
C1563 C1562 1.388 . S
C1563 C1564 1.390 . S
C1564 C1563 1.390 . S
C1564 C1565 1.394 . S
C1564 C1570 1.465 . S
C1565 C1560 1.399 . S
C1565 C1564 1.394 . S
C1565 C1566 1.516 . S
C1566 C1565 1.516 . S
C1566 C1567 1.502 . S
C1566 C1568 1.561 . S
C1566 C1569 1.526 . S
C1567 H1551 0.959 . S
C1567 H1552 0.959 . S
C1567 H1553 0.961 . S
C1567 C1566 1.502 . S
C1568 H1554 0.960 . S
C1568 H1555 0.961 . S
C1568 H1556 0.959 . S
C1568 C1566 1.561 . S
C1569 C1566 1.526 . S
C1569 C1570 1.396 . S
C1569 C1574 1.390 . S
C1570 C1564 1.465 . S
C1570 C1569 1.396 . S
C1570 C1571 1.399 . S
C1571 H1557 0.929 . S
C1571 C1570 1.399 . S
C1571 C1572 1.385 . S
C1572 H1558 0.931 . S
C1572 C1571 1.385 . S
C1572 C1573 1.389 . S
C1573 C1572 1.389 . S
C1573 C1574 1.387 . S
C1574 H1559 0.930 . S
C1574 C1569 1.390 . S
C1574 C1573 1.387 . S
H1575 C1587 0.930 . S
H1576 C1589 0.930 . S
H1577 C1590 0.930 . S
H1578 C1594 0.959 . S
H1579 C1594 0.959 . S
H1580 C1594 0.961 . S
H1581 C1595 0.960 . S
H1582 C1595 0.961 . S
H1583 C1595 0.959 . S
H1584 C1598 0.929 . S
H1585 C1599 0.931 . S
H1586 C1601 0.930 . S
C1587 H1575 0.930 . S
C1587 C1588 1.399 . S
C1587 C1592 1.399 . S
C1588 C1587 1.399 . S
C1588 C1589 1.376 . S
C1589 H1576 0.930 . S
C1589 C1588 1.376 . S
C1589 C1590 1.388 . S
C1590 H1577 0.930 . S
C1590 C1589 1.388 . S
C1590 C1591 1.390 . S
C1591 C1590 1.390 . S
C1591 C1592 1.394 . S
C1591 C1597 1.465 . S
C1592 C1587 1.399 . S
C1592 C1591 1.394 . S
C1592 C1593 1.516 . S
C1593 C1592 1.516 . S
C1593 C1594 1.502 . S
C1593 C1595 1.561 . S
C1593 C1596 1.526 . S
C1594 H1578 0.959 . S
C1594 H1579 0.959 . S
C1594 H1580 0.961 . S
C1594 C1593 1.502 . S
C1595 H1581 0.960 . S
C1595 H1582 0.961 . S
C1595 H1583 0.959 . S
C1595 C1593 1.561 . S
C1596 C1593 1.526 . S
C1596 C1597 1.396 . S
C1596 C1601 1.390 . S
C1597 C1591 1.465 . S
C1597 C1596 1.396 . S
C1597 C1598 1.399 . S
C1598 H1584 0.929 . S
C1598 C1597 1.399 . S
C1598 C1599 1.385 . S
C1599 H1585 0.931 . S
C1599 C1598 1.385 . S
C1599 C1600 1.389 . S
C1600 C1599 1.389 . S
C1600 C1601 1.387 . S
C1601 H1586 0.930 . S
C1601 C1596 1.390 . S
C1601 C1600 1.387 . S
H1602 C1614 0.930 . S
H1603 C1616 0.930 . S
H1604 C1617 0.930 . S
H1605 C1621 0.959 . S
H1606 C1621 0.959 . S
H1607 C1621 0.961 . S
H1608 C1622 0.960 . S
H1609 C1622 0.961 . S
H1610 C1622 0.959 . S
H1611 C1625 0.929 . S
H1612 C1626 0.931 . S
H1613 C1628 0.930 . S
C1614 H1602 0.930 . S
C1614 C1615 1.399 . S
C1614 C1619 1.399 . S
C1615 C1614 1.399 . S
C1615 C1616 1.376 . S
C1616 H1603 0.930 . S
C1616 C1615 1.376 . S
C1616 C1617 1.388 . S
C1617 H1604 0.930 . S
C1617 C1616 1.388 . S
C1617 C1618 1.390 . S
C1618 C1617 1.390 . S
C1618 C1619 1.394 . S
C1618 C1624 1.465 . S
C1619 C1614 1.399 . S
C1619 C1618 1.394 . S
C1619 C1620 1.516 . S
C1620 C1619 1.516 . S
C1620 C1621 1.502 . S
C1620 C1622 1.561 . S
C1620 C1623 1.526 . S
C1621 H1605 0.959 . S
C1621 H1606 0.959 . S
C1621 H1607 0.961 . S
C1621 C1620 1.502 . S
C1622 H1608 0.960 . S
C1622 H1609 0.961 . S
C1622 H1610 0.959 . S
C1622 C1620 1.561 . S
C1623 C1620 1.526 . S
C1623 C1624 1.396 . S
C1623 C1628 1.390 . S
C1624 C1618 1.465 . S
C1624 C1623 1.396 . S
C1624 C1625 1.399 . S
C1625 H1611 0.929 . S
C1625 C1624 1.399 . S
C1625 C1626 1.385 . S
C1626 H1612 0.931 . S
C1626 C1625 1.385 . S
C1626 C1627 1.389 . S
C1627 C1626 1.389 . S
C1627 C1628 1.387 . S
C1628 H1613 0.930 . S
C1628 C1623 1.390 . S
C1628 C1627 1.387 . S
H1629 C1641 0.930 . S
H1630 C1643 0.930 . S
H1631 C1644 0.930 . S
H1632 C1648 0.959 . S
H1633 C1648 0.959 . S
H1634 C1648 0.961 . S
H1635 C1649 0.960 . S
H1636 C1649 0.961 . S
H1637 C1649 0.959 . S
H1638 C1652 0.929 . S
H1639 C1653 0.931 . S
H1640 C1655 0.930 . S
C1641 H1629 0.930 . S
C1641 C1642 1.399 . S
C1641 C1646 1.399 . S
C1642 C1641 1.399 . S
C1642 C1643 1.376 . S
C1643 H1630 0.930 . S
C1643 C1642 1.376 . S
C1643 C1644 1.388 . S
C1644 H1631 0.930 . S
C1644 C1643 1.388 . S
C1644 C1645 1.390 . S
C1645 C1644 1.390 . S
C1645 C1646 1.394 . S
C1645 C1651 1.465 . S
C1646 C1641 1.399 . S
C1646 C1645 1.394 . S
C1646 C1647 1.516 . S
C1647 C1646 1.516 . S
C1647 C1648 1.502 . S
C1647 C1649 1.561 . S
C1647 C1650 1.526 . S
C1648 H1632 0.959 . S
C1648 H1633 0.959 . S
C1648 H1634 0.961 . S
C1648 C1647 1.502 . S
C1649 H1635 0.960 . S
C1649 H1636 0.961 . S
C1649 H1637 0.959 . S
C1649 C1647 1.561 . S
C1650 C1647 1.526 . S
C1650 C1651 1.396 . S
C1650 C1655 1.390 1_655 S
C1651 C1645 1.465 . S
C1651 C1650 1.396 . S
C1651 C1652 1.399 1_655 S
C1652 H1638 0.929 . S
C1652 C1651 1.399 1_455 S
C1652 C1653 1.385 . S
C1653 H1639 0.931 . S
C1653 C1652 1.385 . S
C1653 C1654 1.389 . S
C1654 C1653 1.389 . S
C1654 C1655 1.387 . S
C1655 H1640 0.930 . S
C1655 C1650 1.390 1_455 S
C1655 C1654 1.387 . S
H1656 C1668 0.930 . S
H1657 C1670 0.930 . S
H1658 C1671 0.930 . S
H1659 C1675 0.959 . S
H1660 C1675 0.959 . S
H1661 C1675 0.961 . S
H1662 C1676 0.960 . S
H1663 C1676 0.961 . S
H1664 C1676 0.959 . S
H1665 C1679 0.929 . S
H1666 C1680 0.931 . S
H1667 C1682 0.930 . S
C1668 H1656 0.930 . S
C1668 C1669 1.399 . S
C1668 C1673 1.399 . S
C1669 C1668 1.399 . S
C1669 C1670 1.376 . S
C1670 H1657 0.930 . S
C1670 C1669 1.376 . S
C1670 C1671 1.388 . S
C1671 H1658 0.930 . S
C1671 C1670 1.388 . S
C1671 C1672 1.390 . S
C1672 C1671 1.390 . S
C1672 C1673 1.394 . S
C1672 C1678 1.465 . S
C1673 C1668 1.399 . S
C1673 C1672 1.394 . S
C1673 C1674 1.516 . S
C1674 C1673 1.516 . S
C1674 C1675 1.502 . S
C1674 C1676 1.561 . S
C1674 C1677 1.526 . S
C1675 H1659 0.959 . S
C1675 H1660 0.959 . S
C1675 H1661 0.961 . S
C1675 C1674 1.502 . S
C1676 H1662 0.960 . S
C1676 H1663 0.961 . S
C1676 H1664 0.959 . S
C1676 C1674 1.561 . S
C1677 C1674 1.526 . S
C1677 C1678 1.396 . S
C1677 C1682 1.390 . S
C1678 C1672 1.465 . S
C1678 C1677 1.396 . S
C1678 C1679 1.399 . S
C1679 H1665 0.929 . S
C1679 C1678 1.399 . S
C1679 C1680 1.385 . S
C1680 H1666 0.931 . S
C1680 C1679 1.385 . S
C1680 C1681 1.389 . S
C1681 C1680 1.389 . S
C1681 C1682 1.387 . S
C1682 H1667 0.930 . S
C1682 C1677 1.390 . S
C1682 C1681 1.387 . S
H1683 C1695 0.930 . S
H1684 C1697 0.930 . S
H1685 C1698 0.930 . S
H1686 C1702 0.959 . S
H1687 C1702 0.959 . S
H1688 C1702 0.961 . S
H1689 C1703 0.960 . S
H1690 C1703 0.961 . S
H1691 C1703 0.959 . S
H1692 C1706 0.929 . S
H1693 C1707 0.931 . S
H1694 C1709 0.930 . S
C1695 H1683 0.930 . S
C1695 C1696 1.399 . S
C1695 C1700 1.399 1_565 S
C1696 C1695 1.399 . S
C1696 C1697 1.376 . S
C1697 H1684 0.930 . S
C1697 C1696 1.376 . S
C1697 C1698 1.388 1_565 S
C1698 H1685 0.930 . S
C1698 C1697 1.388 1_545 S
C1698 C1699 1.390 . S
C1699 C1698 1.390 . S
C1699 C1700 1.394 . S
C1699 C1705 1.465 . S
C1700 C1695 1.399 1_545 S
C1700 C1699 1.394 . S
C1700 C1701 1.516 . S
C1701 C1700 1.516 . S
C1701 C1702 1.502 . S
C1701 C1703 1.561 . S
C1701 C1704 1.526 . S
C1702 H1686 0.959 . S
C1702 H1687 0.959 . S
C1702 H1688 0.961 . S
C1702 C1701 1.502 . S
C1703 H1689 0.960 . S
C1703 H1690 0.961 . S
C1703 H1691 0.959 . S
C1703 C1701 1.561 . S
C1704 C1701 1.526 . S
C1704 C1705 1.396 . S
C1704 C1709 1.390 . S
C1705 C1699 1.465 . S
C1705 C1704 1.396 . S
C1705 C1706 1.399 . S
C1706 H1692 0.929 . S
C1706 C1705 1.399 . S
C1706 C1707 1.385 . S
C1707 H1693 0.931 . S
C1707 C1706 1.385 . S
C1707 C1708 1.389 . S
C1708 C1707 1.389 . S
C1708 C1709 1.387 . S
C1709 H1694 0.930 . S
C1709 C1704 1.390 . S
C1709 C1708 1.387 . S
H1710 C1722 0.930 . S
H1711 C1724 0.930 . S
H1712 C1725 0.930 . S
H1713 C1729 0.959 . S
H1714 C1729 0.959 . S
H1715 C1729 0.961 . S
H1716 C1730 0.960 . S
H1717 C1730 0.961 . S
H1718 C1730 0.959 . S
H1719 C1733 0.929 . S
H1720 C1734 0.931 . S
H1721 C1736 0.930 . S
C1722 H1710 0.930 . S
C1722 C1723 1.399 . S
C1722 C1727 1.399 . S
C1723 C1722 1.399 . S
C1723 C1724 1.376 . S
C1724 H1711 0.930 . S
C1724 C1723 1.376 . S
C1724 C1725 1.388 . S
C1725 H1712 0.930 . S
C1725 C1724 1.388 . S
C1725 C1726 1.390 . S
C1726 C1725 1.390 . S
C1726 C1727 1.394 . S
C1726 C1732 1.465 . S
C1727 C1722 1.399 . S
C1727 C1726 1.394 . S
C1727 C1728 1.516 . S
C1728 C1727 1.516 . S
C1728 C1729 1.502 . S
C1728 C1730 1.561 . S
C1728 C1731 1.526 . S
C1729 H1713 0.959 . S
C1729 H1714 0.959 . S
C1729 H1715 0.961 . S
C1729 C1728 1.502 . S
C1730 H1716 0.960 . S
C1730 H1717 0.961 . S
C1730 H1718 0.959 . S
C1730 C1728 1.561 . S
C1731 C1728 1.526 . S
C1731 C1732 1.396 . S
C1731 C1736 1.390 1_565 S
C1732 C1726 1.465 . S
C1732 C1731 1.396 . S
C1732 C1733 1.399 1_565 S
C1733 H1719 0.929 . S
C1733 C1732 1.399 1_545 S
C1733 C1734 1.385 . S
C1734 H1720 0.931 . S
C1734 C1733 1.385 . S
C1734 C1735 1.389 . S
C1735 C1734 1.389 . S
C1735 C1736 1.387 . S
C1736 H1721 0.930 . S
C1736 C1731 1.390 1_545 S
C1736 C1735 1.387 . S
H1737 C1749 0.930 . S
H1738 C1751 0.930 . S
H1739 C1752 0.930 . S
H1740 C1756 0.959 . S
H1741 C1756 0.959 . S
H1742 C1756 0.961 . S
H1743 C1757 0.960 . S
H1744 C1757 0.961 . S
H1745 C1757 0.959 . S
H1746 C1760 0.929 . S
H1747 C1761 0.931 . S
H1748 C1763 0.930 . S
C1749 H1737 0.930 . S
C1749 C1750 1.399 . S
C1749 C1754 1.399 . S
C1750 C1749 1.399 . S
C1750 C1751 1.376 . S
C1751 H1738 0.930 . S
C1751 C1750 1.376 . S
C1751 C1752 1.388 . S
C1752 H1739 0.930 . S
C1752 C1751 1.388 . S
C1752 C1753 1.390 . S
C1753 C1752 1.390 . S
C1753 C1754 1.394 . S
C1753 C1759 1.465 . S
C1754 C1749 1.399 . S
C1754 C1753 1.394 . S
C1754 C1755 1.516 . S
C1755 C1754 1.516 . S
C1755 C1756 1.502 . S
C1755 C1757 1.561 . S
C1755 C1758 1.526 . S
C1756 H1740 0.959 . S
C1756 H1741 0.959 . S
C1756 H1742 0.961 . S
C1756 C1755 1.502 . S
C1757 H1743 0.960 . S
C1757 H1744 0.961 . S
C1757 H1745 0.959 . S
C1757 C1755 1.561 . S
C1758 C1755 1.526 . S
C1758 C1759 1.396 . S
C1758 C1763 1.390 1_455 S
C1759 C1753 1.465 . S
C1759 C1758 1.396 . S
C1759 C1760 1.399 . S
C1760 H1746 0.929 . S
C1760 C1759 1.399 . S
C1760 C1761 1.385 1_455 S
C1761 H1747 0.931 . S
C1761 C1760 1.385 1_655 S
C1761 C1762 1.389 . S
C1762 C1761 1.389 . S
C1762 C1763 1.387 . S
C1763 H1748 0.930 . S
C1763 C1758 1.390 1_655 S
C1763 C1762 1.387 . S
H1764 C1776 0.930 . S
H1765 C1778 0.930 . S
H1766 C1779 0.930 . S
H1767 C1783 0.959 . S
H1768 C1783 0.959 . S
H1769 C1783 0.961 . S
H1770 C1784 0.960 . S
H1771 C1784 0.961 . S
H1772 C1784 0.959 . S
H1773 C1787 0.929 . S
H1774 C1788 0.931 . S
H1775 C1790 0.930 . S
C1776 H1764 0.930 . S
C1776 C1777 1.399 . S
C1776 C1781 1.399 . S
C1777 C1776 1.399 . S
C1777 C1778 1.376 . S
C1778 H1765 0.930 . S
C1778 C1777 1.376 . S
C1778 C1779 1.388 . S
C1779 H1766 0.930 . S
C1779 C1778 1.388 . S
C1779 C1780 1.390 . S
C1780 C1779 1.390 . S
C1780 C1781 1.394 . S
C1780 C1786 1.465 . S
C1781 C1776 1.399 . S
C1781 C1780 1.394 . S
C1781 C1782 1.516 . S
C1782 C1781 1.516 . S
C1782 C1783 1.502 . S
C1782 C1784 1.561 . S
C1782 C1785 1.526 . S
C1783 H1767 0.959 . S
C1783 H1768 0.959 . S
C1783 H1769 0.961 . S
C1783 C1782 1.502 . S
C1784 H1770 0.960 . S
C1784 H1771 0.961 . S
C1784 H1772 0.959 . S
C1784 C1782 1.561 . S
C1785 C1782 1.526 . S
C1785 C1786 1.396 . S
C1785 C1790 1.390 . S
C1786 C1780 1.465 . S
C1786 C1785 1.396 . S
C1786 C1787 1.399 . S
C1787 H1773 0.929 . S
C1787 C1786 1.399 . S
C1787 C1788 1.385 . S
C1788 H1774 0.931 . S
C1788 C1787 1.385 . S
C1788 C1789 1.389 . S
C1789 C1788 1.389 . S
C1789 C1790 1.387 . S
C1790 H1775 0.930 . S
C1790 C1785 1.390 . S
C1790 C1789 1.387 . S
H1791 C1803 0.930 . S
H1792 C1805 0.930 . S
H1793 C1806 0.930 . S
H1794 C1810 0.959 . S
H1795 C1810 0.959 . S
H1796 C1810 0.961 . S
H1797 C1811 0.960 . S
H1798 C1811 0.961 . S
H1799 C1811 0.959 . S
H1800 C1814 0.929 . S
H1801 C1815 0.931 . S
H1802 C1817 0.930 . S
C1803 H1791 0.930 . S
C1803 C1804 1.399 . S
C1803 C1808 1.399 . S
C1804 C1803 1.399 . S
C1804 C1805 1.376 . S
C1805 H1792 0.930 . S
C1805 C1804 1.376 . S
C1805 C1806 1.388 . S
C1806 H1793 0.930 . S
C1806 C1805 1.388 . S
C1806 C1807 1.390 . S
C1807 C1806 1.390 . S
C1807 C1808 1.394 . S
C1807 C1813 1.465 . S
C1808 C1803 1.399 . S
C1808 C1807 1.394 . S
C1808 C1809 1.516 . S
C1809 C1808 1.516 . S
C1809 C1810 1.502 . S
C1809 C1811 1.561 . S
C1809 C1812 1.526 . S
C1810 H1794 0.959 . S
C1810 H1795 0.959 . S
C1810 H1796 0.961 . S
C1810 C1809 1.502 . S
C1811 H1797 0.960 . S
C1811 H1798 0.961 . S
C1811 H1799 0.959 . S
C1811 C1809 1.561 . S
C1812 C1809 1.526 . S
C1812 C1813 1.396 . S
C1812 C1817 1.390 . S
C1813 C1807 1.465 . S
C1813 C1812 1.396 . S
C1813 C1814 1.399 . S
C1814 H1800 0.929 . S
C1814 C1813 1.399 . S
C1814 C1815 1.385 . S
C1815 H1801 0.931 . S
C1815 C1814 1.385 . S
C1815 C1816 1.389 . S
C1816 C1815 1.389 . S
C1816 C1817 1.387 . S
C1817 H1802 0.930 . S
C1817 C1812 1.390 . S
C1817 C1816 1.387 . S
H1818 C1830 0.930 . S
H1819 C1832 0.930 . S
H1820 C1833 0.930 . S
H1821 C1837 0.959 . S
H1822 C1837 0.959 . S
H1823 C1837 0.961 . S
H1824 C1838 0.960 . S
H1825 C1838 0.961 . S
H1826 C1838 0.959 . S
H1827 C1841 0.929 . S
H1828 C1842 0.931 . S
H1829 C1844 0.930 . S
C1830 H1818 0.930 . S
C1830 C1831 1.399 . S
C1830 C1835 1.399 . S
C1831 C1830 1.399 . S
C1831 C1832 1.376 . S
C1832 H1819 0.930 . S
C1832 C1831 1.376 . S
C1832 C1833 1.388 . S
C1833 H1820 0.930 . S
C1833 C1832 1.388 . S
C1833 C1834 1.390 . S
C1834 C1833 1.390 . S
C1834 C1835 1.394 . S
C1834 C1840 1.465 . S
C1835 C1830 1.399 . S
C1835 C1834 1.394 . S
C1835 C1836 1.516 . S
C1836 C1835 1.516 . S
C1836 C1837 1.502 . S
C1836 C1838 1.561 . S
C1836 C1839 1.526 . S
C1837 H1821 0.959 . S
C1837 H1822 0.959 . S
C1837 H1823 0.961 . S
C1837 C1836 1.502 . S
C1838 H1824 0.960 . S
C1838 H1825 0.961 . S
C1838 H1826 0.959 . S
C1838 C1836 1.561 . S
C1839 C1836 1.526 . S
C1839 C1840 1.396 . S
C1839 C1844 1.390 . S
C1840 C1834 1.465 . S
C1840 C1839 1.396 . S
C1840 C1841 1.399 . S
C1841 H1827 0.929 . S
C1841 C1840 1.399 . S
C1841 C1842 1.385 . S
C1842 H1828 0.931 . S
C1842 C1841 1.385 . S
C1842 C1843 1.389 . S
C1843 C1842 1.389 . S
C1843 C1844 1.387 . S
C1844 H1829 0.930 . S
C1844 C1839 1.390 . S
C1844 C1843 1.387 . S
H1845 C1857 0.930 . S
H1846 C1859 0.930 . S
H1847 C1860 0.930 . S
H1848 C1864 0.959 . S
H1849 C1864 0.959 . S
H1850 C1864 0.961 . S
H1851 C1865 0.960 . S
H1852 C1865 0.961 . S
H1853 C1865 0.959 . S
H1854 C1868 0.929 . S
H1855 C1869 0.931 . S
H1856 C1871 0.930 . S
C1857 H1845 0.930 . S
C1857 C1858 1.399 . S
C1857 C1862 1.399 . S
C1858 C1857 1.399 . S
C1858 C1859 1.376 . S
C1859 H1846 0.930 . S
C1859 C1858 1.376 . S
C1859 C1860 1.388 . S
C1860 H1847 0.930 . S
C1860 C1859 1.388 . S
C1860 C1861 1.390 . S
C1861 C1860 1.390 . S
C1861 C1862 1.394 . S
C1861 C1867 1.465 . S
C1862 C1857 1.399 . S
C1862 C1861 1.394 . S
C1862 C1863 1.516 . S
C1863 C1862 1.516 . S
C1863 C1864 1.502 . S
C1863 C1865 1.561 . S
C1863 C1866 1.526 . S
C1864 H1848 0.959 . S
C1864 H1849 0.959 . S
C1864 H1850 0.961 . S
C1864 C1863 1.502 . S
C1865 H1851 0.960 . S
C1865 H1852 0.961 . S
C1865 H1853 0.959 . S
C1865 C1863 1.561 . S
C1866 C1863 1.526 . S
C1866 C1867 1.396 . S
C1866 C1871 1.390 . S
C1867 C1861 1.465 . S
C1867 C1866 1.396 . S
C1867 C1868 1.399 . S
C1868 H1854 0.929 . S
C1868 C1867 1.399 . S
C1868 C1869 1.385 . S
C1869 H1855 0.931 . S
C1869 C1868 1.385 . S
C1869 C1870 1.389 . S
C1870 C1869 1.389 . S
C1870 C1871 1.387 . S
C1871 H1856 0.930 . S
C1871 C1866 1.390 . S
C1871 C1870 1.387 . S
C427 C21 1.121 . S
C439 C63 1.096 . S
C454 C17 1.123 . S
C466 C44 1.109 . S
C481 C40 1.059 . S
C493 C67 1.091 . S
C508 C90 1.123 . S
C520 C109 1.131 . S
C535 C132 1.044 . S
C547 C113 1.075 . S
C562 C136 1.115 . S
C574 C86 1.087 . S
C589 C201 1.127 . S
C601 C159 1.115 . S
C616 C155 1.041 . S
C628 C182 1.071 . S
C643 C205 1.063 . S
C655 C178 1.039 . S
C670 C247 1.130 . S
C682 C228 1.119 . S
C697 C251 1.075 . S
C709 C270 1.046 . S
C724 C224 1.045 . S
C736 C274 1.076 . S
C751 C297 1.080 . S
C763 C339 1.093 . S
C778 C293 1.127 . S
C790 C320 1.116 . S
C805 C316 1.038 . S
C817 C343 1.064 . S
C832 C385 1.119 . S
C844 C366 1.105 . S
C859 C408 1.040 . S
C871 C389 1.068 . S
C886 C362 1.066 . S
C898 C412 1.098 . S
C913 C20 1.506 1_565 S
C925 C135 1.494 . S
C940 C89 1.528 1_655 S
C952 C43 1.513 . S
C967 C112 1.535 . S
C979 C66 1.536 . S
C994 C158 1.500 . S
C1006 C273 1.490 . S
C1021 C181 1.528 . S
C1033 C227 1.536 . S
C1048 C250 1.489 . S
C1060 C204 1.492 . S
C1075 C296 1.521 . S
C1087 C411 1.533 . S
C1102 C365 1.528 . S
C1114 C319 1.513 . S
C1129 C388 1.537 . S
C1141 C342 1.533 . S
C1156 C249 1.551 . S
C1168 C19 1.552 1_565 S
C1183 C42 1.555 . S
C1195 C272 1.555 . S
C1210 C226 1.548 . S
C1222 C65 1.548 . S
C1237 C88 1.553 1_655 S
C1249 C341 1.553 . S
C1264 C111 1.540 . S
C1276 C295 1.540 . S
C1291 C318 1.525 . S
C1303 C134 1.525 . S
C1318 C387 1.522 . S
C1330 C157 1.523 . S
C1345 C180 1.522 . S
C1357 C410 1.523 . S
C1372 C203 1.539 . S
C1384 C364 1.539 . S
C1399 C62 1.003 . S
C1411 C18 1.005 . S
C1426 C16 0.981 . S
C1438 C41 0.969 . S
C1453 C64 1.018 . S
C1465 C39 1.001 . S
C1480 C108 0.997 . S
C1492 C87 1.012 . S
C1507 C131 1.003 . S
C1519 C110 1.005 . S
C1534 C133 1.015 . S
C1546 C85 0.999 . S
C1561 C200 0.994 . S
C1573 C156 1.006 . S
C1588 C179 0.950 . S
C1600 C154 0.982 . S
C1615 C177 0.999 . S
C1627 C202 0.987 . S
C1642 C225 0.964 . S
C1654 C246 0.991 . S
C1669 C248 1.017 . S
C1681 C269 1.001 . S
C1696 C223 0.980 . S
C1708 C271 0.959 1_655 S
C1723 C294 0.951 . S
C1735 C338 0.984 . S
C1750 C317 1.017 1_565 S
C1762 C292 1.004 . S
C1777 C315 1.003 . S
C1789 C340 1.006 . S
C1804 C363 1.014 . S
C1816 C384 0.998 . S
C1831 C386 1.017 . S
C1843 C407 1.000 . S
C1858 C361 0.980 . S
C1870 C409 0.952 . S
