# Generated by pormake.
# Topology smc, (6)-cn, num edge types: 1
# Building blocks:
#     Node 0, Type 0, BuildingBlock: OJICUG_clean_sbu_0, # of connection points: 6
#     Node 1, Type 0, BuildingBlock: OJICUG_clean_sbu_0, # of connection points: 6
#     Node 2, Type 0, BuildingBlock: OJICUG_clean_sbu_0, # of connection points: 6
#     Node 3, Type 0, BuildingBlock: OJICUG_clean_sbu_0, # of connection points: 6
#     Node 4, Type 0, BuildingBlock: OJICUG_clean_sbu_0, # of connection points: 6
#     Node 5, Type 0, BuildingBlock: OJICUG_clean_sbu_0, # of connection points: 6
#     Node 6, Type 0, BuildingBlock: OJICUG_clean_sbu_0, # of connection points: 6
#     Node 7, Type 0, BuildingBlock: OJICUG_clean_sbu_0, # of connection points: 6
#     Node 8, Type 0, BuildingBlock: OJICUG_clean_sbu_0, # of connection points: 6
#     Edge 9, Type (0, 0), BuildingBlock: TEMPAE_clean_linker_10, # of connection points: 2
#     Edge 10, Type (0, 0), BuildingBlock: TEMPAE_clean_linker_10, # of connection points: 2
#     Edge 11, Type (0, 0), BuildingBlock: TEMPAE_clean_linker_10, # of connection points: 2
#     Edge 12, Type (0, 0), BuildingBlock: TEMPAE_clean_linker_10, # of connection points: 2
#     Edge 13, Type (0, 0), BuildingBlock: TEMPAE_clean_linker_10, # of connection points: 2
#     Edge 14, Type (0, 0), BuildingBlock: TEMPAE_clean_linker_10, # of connection points: 2
#     Edge 15, Type (0, 0), BuildingBlock: TEMPAE_clean_linker_10, # of connection points: 2
#     Edge 16, Type (0, 0), BuildingBlock: TEMPAE_clean_linker_10, # of connection points: 2
#     Edge 17, Type (0, 0), BuildingBlock: TEMPAE_clean_linker_10, # of connection points: 2
#     Edge 18, Type (0, 0), BuildingBlock: TEMPAE_clean_linker_10, # of connection points: 2
#     Edge 19, Type (0, 0), BuildingBlock: TEMPAE_clean_linker_10, # of connection points: 2
#     Edge 20, Type (0, 0), BuildingBlock: TEMPAE_clean_linker_10, # of connection points: 2
#     Edge 21, Type (0, 0), BuildingBlock: TEMPAE_clean_linker_10, # of connection points: 2
#     Edge 22, Type (0, 0), BuildingBlock: TEMPAE_clean_linker_10, # of connection points: 2
#     Edge 23, Type (0, 0), BuildingBlock: TEMPAE_clean_linker_10, # of connection points: 2
#     Edge 24, Type (0, 0), BuildingBlock: TEMPAE_clean_linker_10, # of connection points: 2
#     Edge 25, Type (0, 0), BuildingBlock: TEMPAE_clean_linker_10, # of connection points: 2
#     Edge 26, Type (0, 0), BuildingBlock: TEMPAE_clean_linker_10, # of connection points: 2
#     Edge 27, Type (0, 0), BuildingBlock: TEMPAE_clean_linker_10, # of connection points: 2
#     Edge 28, Type (0, 0), BuildingBlock: TEMPAE_clean_linker_10, # of connection points: 2
#     Edge 29, Type (0, 0), BuildingBlock: TEMPAE_clean_linker_10, # of connection points: 2
#     Edge 30, Type (0, 0), BuildingBlock: TEMPAE_clean_linker_10, # of connection points: 2
#     Edge 31, Type (0, 0), BuildingBlock: TEMPAE_clean_linker_10, # of connection points: 2
#     Edge 32, Type (0, 0), BuildingBlock: TEMPAE_clean_linker_10, # of connection points: 2
#     Edge 33, Type (0, 0), BuildingBlock: TEMPAE_clean_linker_10, # of connection points: 2
#     Edge 34, Type (0, 0), BuildingBlock: TEMPAE_clean_linker_10, # of connection points: 2
#     Edge 35, Type (0, 0), BuildingBlock: TEMPAE_clean_linker_10, # of connection points: 2
# Relax obj value: 0.196
# Max RMSD: 0.270
# Mean RMSD: 0.270
data_MOF--net-smc--node1-OJICUG_clean_sbu_0--edge1-TEMPAE_clean_linker_10
_symmetry_space_group_name_H-M    P1
_symmetry_Int_Tables_number       1
_symmetry_cell_setting            triclinic
loop_
_symmetry_equiv_pos_as_xyz
'x, y, z'
_cell_length_a     30.992638
_cell_length_b     31.011142
_cell_length_c     45.522798
_cell_angle_alpha  90.004049
_cell_angle_beta   89.974237
_cell_angle_gamma 119.95917
loop_
_atom_site_label
_atom_site_type_symbol
_atom_site_fract_x
_atom_site_fract_y
_atom_site_fract_z
_atom_type_partial_charge
Sc0 Sc 0.05019 0.53084 0.97881 0.0
Sc1 Sc 0.03194 0.41279 0.99421 0.0
Sc2 Sc 0.9857 0.4689 0.04047 0.0
O3 O 0.02131 0.46938 0.00391 0.0
C4 C 0.0733 0.57539 0.04036 0.0
C5 C 0.13864 0.51024 0.98973 0.0
C6 C 0.03548 0.40678 0.06297 0.0
C7 C 0.02438 0.44792 0.9307 0.0
C8 C 0.95004 0.52074 0.99292 0.0
C9 C 0.91646 0.36358 0.01177 0.0
O10 O 0.05589 0.57689 0.01554 0.0
O11 O 0.11039 0.46338 0.98621 0.0
O12 O 0.00715 0.42491 0.06629 0.0
O13 O 0.04642 0.49353 0.93792 0.0
O14 O 0.95701 0.51216 0.01942 0.0
O15 O 0.95399 0.36099 0.00232 0.0
O16 O 0.97647 0.52007 0.97157 0.0
O17 O 0.01127 0.41317 0.9493 0.0
O18 O 0.92041 0.40166 0.02528 0.0
O19 O 0.12314 0.54143 0.98888 0.0
O20 O 0.05413 0.53491 0.05482 0.0
O21 O 0.0532 0.40489 0.03821 0.0
Sc22 Sc 0.48365 0.52572 0.9754 0.0
Sc23 Sc 0.60067 0.63008 0.98903 0.0
Sc24 Sc 0.54857 0.52922 0.03696 0.0
O25 O 0.54587 0.56185 0.99973 0.0
C26 C 0.44055 0.50675 0.03765 0.0
C27 C 0.50053 0.63467 0.9855 0.0
C28 C 0.60943 0.64167 0.05809 0.0
C29 C 0.56383 0.58534 0.9254 0.0
C30 C 0.49692 0.43804 0.99171 0.0
C31 C 0.65333 0.56671 0.00636 0.0
O32 O 0.43868 0.48737 0.01292 0.0
O33 O 0.54778 0.65531 0.983 0.0
O34 O 0.59115 0.59545 0.06204 0.0
O35 O 0.51947 0.55603 0.93372 0.0
O36 O 0.50676 0.4559 0.01765 0.0
O37 O 0.65405 0.6052 0.99551 0.0
O38 O 0.49577 0.46307 0.96973 0.0
O39 O 0.59851 0.61145 0.94336 0.0
O40 O 0.61677 0.53353 0.0214 0.0
O41 O 0.47094 0.58763 0.98391 0.0
O42 O 0.48151 0.52949 0.05159 0.0
O43 O 0.61131 0.66031 0.03304 0.0
Sc44 Sc 0.48766 0.96413 0.97878 0.0
Sc45 Sc 0.38424 0.97815 0.993 0.0
Sc46 Sc 0.48541 0.02522 0.04066 0.0
O47 O 0.45221 0.99062 0.00341 0.0
C48 C 0.50696 0.93908 0.04019 0.0
C49 C 0.3787 0.87302 0.98911 0.0
C50 C 0.37314 0.97452 0.06221 0.0
C51 C 0.42824 0.98535 0.92928 0.0
C52 C 0.57526 0.06492 0.99455 0.0
C53 C 0.4487 0.09388 0.0107 0.0
O54 O 0.52704 0.95827 0.01593 0.0
O55 O 0.35846 0.90002 0.98665 0.0
O56 O 0.41949 0.00178 0.06609 0.0
O57 O 0.45658 0.96908 0.93747 0.0
O58 O 0.5584 0.05643 0.02075 0.0
O59 O 0.40997 0.05647 0.9998 0.0
O60 O 0.54973 0.03876 0.97272 0.0
O61 O 0.40293 0.99498 0.9473 0.0
O62 O 0.48168 0.08989 0.02564 0.0
O63 O 0.42569 0.88992 0.9876 0.0
O64 O 0.48427 0.95692 0.05461 0.0
O65 O 0.3542 0.9585 0.03711 0.0
Sc66 Sc 0.69788 0.85448 0.31257 0.0
Sc67 Sc 0.6988 0.74304 0.32142 0.0
Sc68 Sc 0.65366 0.78862 0.37623 0.0
O69 O 0.68158 0.79325 0.33604 0.0
C70 C 0.72976 0.89861 0.37177 0.0
C71 C 0.79654 0.84881 0.31542 0.0
C72 C 0.72111 0.7405 0.38935 0.0
C73 C 0.67817 0.7784 0.26111 0.0
C74 C 0.59494 0.82699 0.33478 0.0
C75 C 0.58856 0.68094 0.34778 0.0
O76 O 0.69988 0.89345 0.35165 0.0
O77 O 0.77328 0.802 0.31021 0.0
O78 O 0.69288 0.75698 0.39705 0.0
O79 O 0.69535 0.82282 0.26988 0.0
O80 O 0.60894 0.81948 0.35978 0.0
O81 O 0.62502 0.68454 0.33268 0.0
O82 O 0.61967 0.83242 0.31113 0.0
O83 O 0.67012 0.74302 0.27834 0.0
O84 O 0.592 0.71554 0.36478 0.0
O85 O 0.77509 0.8747 0.318 0.0
O86 O 0.7194 0.86056 0.38711 0.0
O87 O 0.7291 0.73474 0.36268 0.0
Sc88 Sc 0.14191 0.85578 0.31175 0.0
Sc89 Sc 0.26134 0.95398 0.32638 0.0
Sc90 Sc 0.19783 0.8577 0.37656 0.0
O91 O 0.20203 0.88921 0.3378 0.0
C92 C 0.09114 0.83771 0.37133 0.0
C93 C 0.16655 0.96654 0.31898 0.0
C94 C 0.25909 0.97192 0.39473 0.0
C95 C 0.22694 0.90757 0.2639 0.0
C96 C 0.1525 0.76732 0.3306 0.0
C97 C 0.30571 0.88827 0.35219 0.0
O98 O 0.09179 0.81721 0.34752 0.0
O99 O 0.21289 0.98298 0.31424 0.0
O100 O 0.23608 0.92585 0.40056 0.0
O101 O 0.18133 0.88696 0.27102 0.0
O102 O 0.15825 0.78447 0.35673 0.0
O103 O 0.31039 0.92643 0.33861 0.0
O104 O 0.15273 0.79212 0.30804 0.0
O105 O 0.26163 0.9276 0.28268 0.0
O106 O 0.26662 0.85814 0.36663 0.0
O107 O 0.13389 0.92023 0.31962 0.0
O108 O 0.13057 0.86058 0.38647 0.0
O109 O 0.26986 0.98884 0.36875 0.0
Sc110 Sc 0.15228 0.29236 0.31212 0.0
Sc111 Sc 0.05549 0.31529 0.32714 0.0
Sc112 Sc 0.15736 0.35964 0.37338 0.0
O113 O 0.12177 0.32374 0.33699 0.0
C114 C 0.17341 0.26986 0.37437 0.0
C115 C 0.04201 0.20708 0.32289 0.0
C116 C 0.04584 0.31131 0.39578 0.0
C117 C 0.09789 0.32172 0.26383 0.0
C118 C 0.24463 0.39082 0.32612 0.0
C119 C 0.12313 0.43035 0.34491 0.0
O120 O 0.19109 0.28435 0.34892 0.0
O121 O 0.02568 0.23704 0.31836 0.0
O122 O 0.09215 0.34024 0.39917 0.0
O123 O 0.11972 0.29793 0.2712 0.0
O124 O 0.22885 0.38558 0.35249 0.0
O125 O 0.08259 0.39306 0.3359 0.0
O126 O 0.21728 0.36463 0.30483 0.0
O127 O 0.07753 0.33648 0.28237 0.0
O128 O 0.1575 0.42595 0.35779 0.0
O129 O 0.08818 0.22031 0.32204 0.0
O130 O 0.15337 0.29084 0.38838 0.0
O131 O 0.02636 0.29337 0.37105 0.0
Sc132 Sc 0.37822 0.19466 0.645 0.0
Sc133 Sc 0.36958 0.07895 0.65801 0.0
Sc134 Sc 0.32688 0.1329 0.70902 0.0
O135 O 0.35651 0.13363 0.66998 0.0
C136 C 0.40841 0.24216 0.70515 0.0
C137 C 0.47233 0.18064 0.65242 0.0
C138 C 0.38512 0.077 0.72688 0.0
C139 C 0.35599 0.11419 0.59523 0.0
C140 C 0.27674 0.17619 0.66477 0.0
C141 C 0.25703 0.02515 0.68118 0.0
O142 O 0.38528 0.24051 0.68204 0.0
O143 O 0.44665 0.13333 0.64966 0.0
O144 O 0.36054 0.09833 0.73277 0.0
O145 O 0.37143 0.15862 0.60338 0.0
O146 O 0.28817 0.16831 0.69039 0.0
O147 O 0.29271 0.02521 0.66698 0.0
O148 O 0.30202 0.17893 0.64192 0.0
O149 O 0.34872 0.07992 0.61316 0.0
O150 O 0.26266 0.06138 0.6975 0.0
O151 O 0.45385 0.20947 0.6517 0.0
O152 O 0.39405 0.20275 0.72004 0.0
O153 O 0.39273 0.06788 0.70086 0.0
Sc154 Sc 0.81398 0.19016 0.64455 0.0
Sc155 Sc 0.93145 0.2897 0.66181 0.0
Sc156 Sc 0.87254 0.18692 0.70752 0.0
O157 O 0.8741 0.22248 0.67072 0.0
C158 C 0.76666 0.16963 0.70563 0.0
C159 C 0.83437 0.2993 0.65505 0.0
C160 C 0.93495 0.29831 0.73052 0.0
C161 C 0.89967 0.24815 0.59762 0.0
C162 C 0.82256 0.09978 0.66007 0.0
C163 C 0.97863 0.22205 0.68033 0.0
O164 O 0.76573 0.15077 0.68084 0.0
O165 O 0.8815 0.31796 0.65301 0.0
O166 O 0.91645 0.25184 0.73371 0.0
O167 O 0.85375 0.22304 0.60415 0.0
O168 O 0.8291 0.11512 0.68657 0.0
O169 O 0.98238 0.26267 0.67088 0.0
O170 O 0.82473 0.12699 0.63843 0.0
O171 O 0.93327 0.27033 0.61682 0.0
O172 O 0.93967 0.18795 0.69317 0.0
O173 O 0.8032 0.25274 0.65335 0.0
O174 O 0.80656 0.19025 0.72067 0.0
O175 O 0.93761 0.31819 0.70578 0.0
Sc176 Sc 0.8248 0.63285 0.64276 0.0
Sc177 Sc 0.71842 0.64377 0.65362 0.0
Sc178 Sc 0.81457 0.68887 0.70506 0.0
O179 O 0.78587 0.65681 0.66641 0.0
C180 C 0.84048 0.60572 0.70454 0.0
C181 C 0.7158 0.54001 0.65043 0.0
C182 C 0.70023 0.63273 0.72263 0.0
C183 C 0.76826 0.65413 0.59126 0.0
C184 C 0.90941 0.73384 0.66164 0.0
C185 C 0.77787 0.7576 0.67443 0.0
O186 O 0.86189 0.62595 0.68076 0.0
O187 O 0.69478 0.56617 0.64708 0.0
O188 O 0.74607 0.65781 0.72857 0.0
O189 O 0.79715 0.63909 0.60038 0.0
O190 O 0.88919 0.72499 0.68701 0.0
O191 O 0.74218 0.72115 0.66082 0.0
O192 O 0.88679 0.70811 0.63897 0.0
O193 O 0.74073 0.66196 0.60849 0.0
O194 O 0.80838 0.75286 0.69135 0.0
O195 O 0.763 0.55783 0.64987 0.0
O196 O 0.81596 0.622 0.71832 0.0
O197 O 0.68378 0.62305 0.69657 0.0
C198 C 0.34945 0.46993 0.03736 0.0
C199 C 0.39585 0.5092 0.04614 0.0
C200 C 0.30878 0.47711 0.03315 0.0
C201 C 0.31447 0.52474 0.03818 0.0
C202 C 0.35939 0.56286 0.05054 0.0
C203 C 0.39979 0.55455 0.05448 0.0
C204 C 0.26119 0.43483 0.02067 0.0
C205 C 0.36625 0.61348 0.05736 0.0
C206 C 0.23057 0.54397 0.98594 0.0
C207 C 0.18747 0.52585 0.00294 0.0
C208 C 0.27445 0.54863 0.99812 0.0
C209 C 0.27462 0.53458 0.02782 0.0
C210 C 0.23226 0.52058 0.04558 0.0
C211 C 0.18893 0.51566 0.03279 0.0
C212 C 0.31928 0.56463 0.9786 0.0
C213 C 0.23163 0.50752 0.07757 0.0
H214 H 0.34624 0.43465 0.03118 0.0
H215 H 0.43544 0.58476 0.06164 0.0
H216 H 0.2288 0.42854 0.03421 0.0
H217 H 0.25519 0.44455 0.99815 0.0
H218 H 0.262 0.39946 0.01957 0.0
H219 H 0.39647 0.6336 0.07365 0.0
H220 H 0.37627 0.63592 0.03692 0.0
H221 H 0.33148 0.61066 0.066 0.0
H222 H 0.22915 0.55172 0.96285 0.0
H223 H 0.15524 0.50146 0.04584 0.0
H224 H 0.3244 0.53224 0.97422 0.0
H225 H 0.35346 0.59345 0.98969 0.0
H226 H 0.31531 0.57966 0.95725 0.0
H227 H 0.23243 0.47229 0.07943 0.0
H228 H 0.19805 0.50302 0.08914 0.0
H229 H 0.26528 0.53679 0.08885 0.0
C230 C 0.54136 0.88276 0.03725 0.0
C231 C 0.5029 0.89056 0.04701 0.0
C232 C 0.53298 0.8348 0.03172 0.0
C233 C 0.48492 0.7933 0.03639 0.0
C234 C 0.44758 0.80049 0.04963 0.0
C235 C 0.45708 0.84933 0.05487 0.0
C236 C 0.57462 0.82902 0.01859 0.0
C237 C 0.39662 0.75709 0.05621 0.0
C238 C 0.46511 0.6917 0.98269 0.0
C239 C 0.4827 0.66578 0.99928 0.0
C240 C 0.46043 0.73053 0.99551 0.0
C241 C 0.47418 0.74362 0.02536 0.0
C242 C 0.48751 0.71427 0.04265 0.0
C243 C 0.49234 0.67622 0.02928 0.0
C244 C 0.44499 0.76036 0.9765 0.0
C245 C 0.50038 0.72555 0.07474 0.0
H246 H 0.57706 0.91461 0.03148 0.0
H247 H 0.42752 0.85521 0.06284 0.0
H248 H 0.5805 0.80216 0.03163 0.0
H249 H 0.56446 0.81403 0.99594 0.0
H250 H 0.61036 0.86485 0.01766 0.0
H251 H 0.37701 0.76697 0.07299 0.0
H252 H 0.3741 0.74582 0.03579 0.0
H253 H 0.3988 0.72443 0.06412 0.0
H254 H 0.45809 0.68379 0.95944 0.0
H255 H 0.5067 0.65649 0.04194 0.0
H256 H 0.47788 0.79747 0.97208 0.0
H257 H 0.41691 0.76643 0.98802 0.0
H258 H 0.42923 0.74173 0.95517 0.0
H259 H 0.53471 0.76224 0.07697 0.0
H260 H 0.50626 0.69687 0.08567 0.0
H261 H 0.47028 0.72803 0.0864 0.0
C262 C 0.3215 0.78094 0.98556 0.0
C263 C 0.34705 0.82401 0.0025 0.0
C264 C 0.28236 0.73725 0.99797 0.0
C265 C 0.26887 0.73726 0.02781 0.0
C266 C 0.29783 0.77951 0.04546 0.0
C267 C 0.33596 0.82268 0.03244 0.0
C268 C 0.25262 0.69263 0.9785 0.0
C269 C 0.28626 0.78024 0.0776 0.0
C270 C 0.1297 0.6659 0.03932 0.0
C271 C 0.12155 0.61912 0.04806 0.0
C272 C 0.17783 0.70541 0.03424 0.0
C273 C 0.21907 0.6982 0.03847 0.0
C274 C 0.21146 0.65287 0.05069 0.0
C275 C 0.16246 0.61357 0.05533 0.0
C276 C 0.18404 0.75343 0.02185 0.0
C277 C 0.25452 0.64446 0.05675 0.0
H278 H 0.32992 0.78234 0.96235 0.0
H279 H 0.35543 0.85647 0.04536 0.0
H280 H 0.24687 0.65821 0.98946 0.0
H281 H 0.21532 0.68827 0.97444 0.0
H282 H 0.27113 0.69631 0.957 0.0
H283 H 0.31533 0.81407 0.08892 0.0
H284 H 0.24999 0.77883 0.07994 0.0
H285 H 0.2828 0.74687 0.08879 0.0
H286 H 0.098 0.67023 0.03384 0.0
H287 H 0.15622 0.57747 0.0622 0.0
H288 H 0.19978 0.75936 0.99933 0.0
H289 H 0.21044 0.78548 0.03546 0.0
H290 H 0.14822 0.75343 0.02078 0.0
H291 H 0.2657 0.63379 0.03607 0.0
H292 H 0.24423 0.61415 0.073 0.0
H293 H 0.28732 0.67876 0.06509 0.0
C294 C 0.41996 0.14941 0.98862 0.0
C295 C 0.45604 0.14429 0.00455 0.0
C296 C 0.42598 0.19643 0.98242 0.0
C297 C 0.46909 0.23966 0.99237 0.0
C298 C 0.50637 0.23499 0.00768 0.0
C299 C 0.49939 0.18742 0.01362 0.0
C300 C 0.3853 0.19973 0.9661 0.0
C301 C 0.55296 0.28026 0.01863 0.0
C302 C 0.50087 0.36884 0.96514 0.0
C303 C 0.48395 0.38543 0.98873 0.0
C304 C 0.49546 0.32088 0.96556 0.0
C305 C 0.47233 0.28914 0.99 0.0
C306 C 0.45306 0.3051 0.01307 0.0
C307 C 0.45919 0.35291 0.01214 0.0
C308 C 0.51629 0.30499 0.94053 0.0
C309 C 0.42753 0.27239 0.03936 0.0
H310 H 0.38646 0.11655 0.9812 0.0
H311 H 0.52782 0.1841 0.02558 0.0
H312 H 0.36684 0.21375 0.98111 0.0
H313 H 0.40125 0.22649 0.94763 0.0
H314 H 0.35657 0.1631 0.95728 0.0
H315 H 0.58045 0.27069 0.02764 0.0
H316 H 0.57083 0.30764 0.00061 0.0
H317 H 0.54307 0.29867 0.03616 0.0
H318 H 0.5204 0.39407 0.94716 0.0
H319 H 0.44563 0.36548 0.03032 0.0
H320 H 0.48784 0.2679 0.93222 0.0
H321 H 0.54826 0.30152 0.94847 0.0
H322 H 0.52914 0.33198 0.92204 0.0
H323 H 0.39625 0.23599 0.03211 0.0
H324 H 0.41276 0.28964 0.0548 0.0
H325 H 0.45421 0.26491 0.05143 0.0
C326 C 0.66125 0.11292 0.01349 0.0
C327 C 0.62731 0.10516 0.99095 0.0
C328 C 0.70853 0.1553 0.01403 0.0
C329 C 0.72237 0.19118 0.99149 0.0
C330 C 0.68919 0.18259 0.96785 0.0
C331 C 0.64184 0.13934 0.96778 0.0
C332 C 0.74294 0.1625 0.03942 0.0
C333 C 0.70285 0.22004 0.94339 0.0
C334 C 0.82298 0.3197 0.01571 0.0
C335 C 0.86618 0.32066 0.0055 0.0
C336 C 0.77556 0.27882 0.00992 0.0
C337 C 0.77123 0.23797 0.99354 0.0
C338 C 0.81447 0.23952 0.98225 0.0
C339 C 0.8613 0.28068 0.9884 0.0
C340 C 0.7302 0.27851 0.02229 0.0
C341 C 0.81146 0.1968 0.96466 0.0
H342 H 0.65016 0.08625 0.03132 0.0
H343 H 0.61541 0.13358 0.95051 0.0
H344 H 0.7793 0.1688 0.03112 0.0
H345 H 0.75024 0.19596 0.05218 0.0
H346 H 0.7272 0.13001 0.05451 0.0
H347 H 0.67509 0.20576 0.92531 0.0
H348 H 0.70526 0.25454 0.95221 0.0
H349 H 0.73997 0.23033 0.93428 0.0
H350 H 0.82617 0.35053 0.02861 0.0
H351 H 0.89422 0.28112 0.97996 0.0
H352 H 0.71323 0.24961 0.03963 0.0
H353 H 0.70177 0.2689 0.00489 0.0
H354 H 0.73933 0.31499 0.03197 0.0
H355 H 0.79918 0.16391 0.97912 0.0
H356 H 0.84784 0.20606 0.95473 0.0
H357 H 0.78348 0.18598 0.94686 0.0
C358 C 0.87756 0.51491 0.96493 0.0
C359 C 0.91129 0.53438 0.9883 0.0
C360 C 0.83517 0.52053 0.96419 0.0
C361 C 0.82705 0.54649 0.98723 0.0
C362 C 0.8628 0.5687 0.00983 0.0
C363 C 0.90429 0.56223 0.01011 0.0
C364 C 0.7979 0.49655 0.93968 0.0
C365 C 0.85606 0.59729 0.0346 0.0
C366 C 0.73655 0.59487 0.983 0.0
C367 C 0.69673 0.55998 0.00028 0.0
C368 C 0.77812 0.58956 0.97723 0.0
C369 C 0.78017 0.54849 0.98907 0.0
C370 C 0.73952 0.51225 0.00568 0.0
C371 C 0.69832 0.51842 0.0111 0.0
C372 C 0.82068 0.62895 0.95939 0.0
C373 C 0.74033 0.46784 0.01867 0.0
H374 H 0.88279 0.49305 0.9482 0.0
H375 H 0.93069 0.57771 0.02808 0.0
H376 H 0.76333 0.46458 0.94852 0.0
H377 H 0.78766 0.52325 0.93032 0.0
H378 H 0.81233 0.48285 0.92178 0.0
H379 H 0.88888 0.61485 0.04943 0.0
H380 H 0.8495 0.62682 0.02569 0.0
H381 H 0.82286 0.5718 0.0478 0.0
H382 H 0.73567 0.62688 0.97418 0.0
H383 H 0.66764 0.49093 0.02417 0.0
H384 H 0.83173 0.61149 0.94188 0.0
H385 H 0.85356 0.65016 0.97377 0.0
H386 H 0.81108 0.65555 0.94908 0.0
H387 H 0.74977 0.44847 0.00153 0.0
H388 H 0.70407 0.44076 0.02872 0.0
H389 H 0.76958 0.48055 0.03584 0.0
C390 C 0.84993 0.86604 0.35861 0.0
C391 C 0.84644 0.8687 0.32805 0.0
C392 C 0.89264 0.86999 0.37172 0.0
C393 C 0.9326 0.87653 0.35368 0.0
C394 C 0.93126 0.88466 0.32309 0.0
C395 C 0.88756 0.87958 0.31046 0.0
C396 C 0.89254 0.86176 0.40439 0.0
C397 C 0.97438 0.89446 0.3034 0.0
C398 C 0.05408 0.89095 0.3831 0.0
C399 C 0.04755 0.84392 0.3765 0.0
C400 C 0.01617 0.90213 0.37712 0.0
C401 C 0.97035 0.86468 0.36535 0.0
C402 C 0.9617 0.81552 0.36226 0.0
C403 C 0.00065 0.80595 0.36748 0.0
C404 C 0.02702 0.95488 0.38105 0.0
C405 C 0.91253 0.77374 0.35121 0.0
H406 H 0.81749 0.85646 0.3721 0.0
H407 H 0.88457 0.88132 0.28681 0.0
H408 H 0.88138 0.82227 0.40855 0.0
H409 H 0.93009 0.88536 0.41397 0.0
H410 H 0.8658 0.86989 0.4159 0.0
H411 H 0.97098 0.90781 0.28134 0.0
H412 H 0.0101 0.9226 0.31346 0.0
H413 H 0.97577 0.85962 0.30062 0.0
H414 H 0.09005 0.92008 0.39054 0.0
H415 H 0.99541 0.76939 0.36263 0.0
H416 H 0.99296 0.95655 0.38625 0.0
H417 H 0.04278 0.9757 0.36031 0.0
H418 H 0.05468 0.97391 0.39881 0.0
H419 H 0.88119 0.7726 0.36366 0.0
H420 H 0.91011 0.73687 0.35312 0.0
H421 H 0.90774 0.78021 0.32776 0.0
C422 C 0.12232 0.1806 0.38751 0.0
C423 C 0.16951 0.22275 0.3839 0.0
C424 C 0.1152 0.13262 0.3826 0.0
C425 C 0.15618 0.12734 0.37373 0.0
C426 C 0.20467 0.16946 0.37365 0.0
C427 C 0.21071 0.21662 0.37893 0.0
C428 C 0.06352 0.08805 0.38482 0.0
C429 C 0.24962 0.16558 0.36484 0.0
C430 C 0.15981 0.00813 0.36331 0.0
C431 C 0.15411 0.00172 0.33282 0.0
C432 C 0.15614 0.04626 0.3775 0.0
C433 C 0.14844 0.08001 0.36054 0.0
C434 C 0.14078 0.07244 0.32972 0.0
C435 C 0.14375 0.03323 0.31618 0.0
C436 C 0.16362 0.05179 0.41034 0.0
C437 C 0.1332 0.10798 0.31072 0.0
H438 H 0.09034 0.18534 0.39111 0.0
H439 H 0.24713 0.24935 0.37602 0.0
H440 H 0.06323 0.06207 0.40167 0.0
H441 H 0.03524 0.09854 0.39087 0.0
H442 H 0.05267 0.06762 0.36365 0.0
H443 H 0.28501 0.20125 0.3679 0.0
H444 H 0.25148 0.13638 0.37789 0.0
H445 H 0.24647 0.15473 0.34136 0.0
H446 H 0.16926 0.9844 0.376 0.0
H447 H 0.1403 0.02863 0.29253 0.0
H448 H 0.14345 0.06923 0.42041 0.0
H449 H 0.20388 0.07556 0.41519 0.0
H450 H 0.1508 0.01507 0.42093 0.0
H451 H 0.10532 0.11595 0.3207 0.0
H452 H 0.12076 0.09318 0.28819 0.0
H453 H 0.1688 0.14379 0.30908 0.0
C454 C 0.00283 0.11356 0.3254 0.0
C455 C 0.00585 0.15788 0.33499 0.0
C456 C 0.9644 0.06723 0.33565 0.0
C457 C 0.92887 0.06583 0.35593 0.0
C458 C 0.93487 0.11081 0.3675 0.0
C459 C 0.97303 0.15609 0.35677 0.0
C460 C 0.95969 0.01996 0.32324 0.0
C461 C 0.89819 0.1112 0.38925 0.0
C462 C 0.79236 0.97484 0.34598 0.0
C463 C 0.78124 0.94167 0.36957 0.0
C464 C 0.84079 0.01295 0.34044 0.0
C465 C 0.87962 0.01995 0.35959 0.0
C466 C 0.86913 0.98721 0.38372 0.0
C467 C 0.8199 0.94805 0.38836 0.0
C468 C 0.84996 0.04677 0.31437 0.0
C469 C 0.90969 0.99401 0.4047 0.0
H470 H 0.02862 0.11499 0.30884 0.0
H471 H 0.97624 0.19047 0.36482 0.0
H472 H 0.94993 0.99171 0.34076 0.0
H473 H 0.92923 0.0041 0.30677 0.0
H474 H 0.99465 0.02669 0.31239 0.0
H475 H 0.90976 0.14919 0.39739 0.0
H476 H 0.86112 0.09615 0.37875 0.0
H477 H 0.89377 0.08701 0.40829 0.0
H478 H 0.7631 0.97057 0.33117 0.0
H479 H 0.81179 0.92245 0.40648 0.0
H480 H 0.8809 0.0495 0.30073 0.0
H481 H 0.86096 0.0848 0.32216 0.0
H482 H 0.81652 0.03355 0.3002 0.0
H483 H 0.94134 0.99563 0.39241 0.0
H484 H 0.89634 0.96359 0.42117 0.0
H485 H 0.92417 0.02993 0.41647 0.0
C486 C 0.12627 0.68435 0.35205 0.0
C487 C 0.14499 0.71646 0.32778 0.0
C488 C 0.1248 0.63859 0.35238 0.0
C489 C 0.1423 0.62409 0.32774 0.0
C490 C 0.15988 0.65548 0.3027 0.0
C491 C 0.16095 0.70147 0.30298 0.0
C492 C 0.1052 0.60611 0.37942 0.0
C493 C 0.1786 0.64099 0.276 0.0
C494 C 0.17456 0.52407 0.34641 0.0
C495 C 0.13006 0.48065 0.33916 0.0
C496 C 0.18036 0.57141 0.34115 0.0
C497 C 0.14067 0.57534 0.32848 0.0
C498 C 0.09651 0.53177 0.32013 0.0
C499 C 0.09175 0.48514 0.32556 0.0
C500 C 0.22817 0.61716 0.3502 0.0
C501 C 0.05323 0.53426 0.30669 0.0
H502 H 0.11343 0.69545 0.37123 0.0
H503 H 0.17589 0.72636 0.28431 0.0
H504 H 0.07322 0.56925 0.37348 0.0
H505 H 0.13453 0.59963 0.38878 0.0
H506 H 0.09291 0.6229 0.39672 0.0
H507 H 0.18887 0.66834 0.25784 0.0
H508 H 0.21178 0.63812 0.28198 0.0
H509 H 0.14979 0.60385 0.26796 0.0
H510 H 0.20467 0.52116 0.35651 0.0
H511 H 0.0573 0.45206 0.31951 0.0
H512 H 0.22089 0.63521 0.36911 0.0
H513 H 0.24264 0.64462 0.33201 0.0
H514 H 0.2574 0.60821 0.35665 0.0
H515 H 0.03648 0.5476 0.32337 0.0
H516 H 0.02378 0.49747 0.2985 0.0
H517 H 0.06612 0.56116 0.28821 0.0
C518 C 0.33179 0.4261 0.3418 0.0
C519 C 0.29775 0.42673 0.32182 0.0
C520 C 0.38049 0.46607 0.34376 0.0
C521 C 0.39538 0.50795 0.32541 0.0
C522 C 0.36208 0.50748 0.30385 0.0
C523 C 0.31337 0.46655 0.30224 0.0
C524 C 0.4149 0.46472 0.36679 0.0
C525 C 0.37685 0.55142 0.2838 0.0
C526 C 0.49645 0.63029 0.35721 0.0
C527 C 0.53916 0.63583 0.34308 0.0
C528 C 0.44923 0.58937 0.35112 0.0
C529 C 0.44459 0.5532 0.33038 0.0
C530 C 0.48739 0.5586 0.31598 0.0
C531 C 0.53407 0.59964 0.32256 0.0
C532 C 0.40432 0.58464 0.36707 0.0
C533 C 0.4839 0.52083 0.29374 0.0
H534 H 0.31942 0.39515 0.35697 0.0
H535 H 0.28668 0.46722 0.28713 0.0
H536 H 0.45124 0.47405 0.35687 0.0
H537 H 0.42225 0.49304 0.38391 0.0
H538 H 0.39895 0.42773 0.37756 0.0
H539 H 0.34908 0.54293 0.26609 0.0
H540 H 0.38031 0.58327 0.2968 0.0
H541 H 0.41368 0.56337 0.27365 0.0
H542 H 0.49976 0.65809 0.37288 0.0
H543 H 0.56661 0.60352 0.31126 0.0
H544 H 0.38696 0.55016 0.3805 0.0
H545 H 0.37599 0.58153 0.35101 0.0
H546 H 0.41395 0.61684 0.38173 0.0
H547 H 0.46977 0.48409 0.3045 0.0
H548 H 0.52043 0.53169 0.28342 0.0
H549 H 0.45703 0.51607 0.2762 0.0
C550 C 0.33736 0.82808 0.35045 0.0
C551 C 0.34676 0.87722 0.34908 0.0
C552 C 0.37552 0.81706 0.3452 0.0
C553 C 0.42434 0.85624 0.339 0.0
C554 C 0.43392 0.90585 0.33755 0.0
C555 C 0.39498 0.91566 0.34239 0.0
C556 C 0.36375 0.76362 0.34663 0.0
C557 C 0.48563 0.9488 0.33165 0.0
C558 C 0.53311 0.84088 0.36181 0.0
C559 C 0.55058 0.83346 0.33483 0.0
C560 C 0.49178 0.84752 0.36334 0.0
C561 C 0.46655 0.84634 0.33727 0.0
C562 C 0.48325 0.8382 0.3099 0.0
C563 C 0.52542 0.83217 0.30895 0.0
C564 C 0.47577 0.85683 0.39294 0.0
C565 C 0.45676 0.83619 0.2817 0.0
H566 H 0.29995 0.79809 0.35503 0.0
H567 H 0.40246 0.95371 0.34122 0.0
H568 H 0.3771 0.75388 0.32645 0.0
H569 H 0.3835 0.75867 0.3655 0.0
H570 H 0.32321 0.73718 0.34913 0.0
H571 H 0.48633 0.98485 0.3297 0.0
H572 H 0.51095 0.9518 0.34976 0.0
H573 H 0.5007 0.94221 0.31109 0.0
H574 H 0.55227 0.84233 0.38201 0.0
H575 H 0.53843 0.82618 0.28808 0.0
H576 H 0.43639 0.82849 0.39731 0.0
H577 H 0.47818 0.89376 0.39299 0.0
H578 H 0.49903 0.85586 0.4112 0.0
H579 H 0.41665 0.80797 0.28351 0.0
H580 H 0.47271 0.82697 0.26246 0.0
H581 H 0.45922 0.87264 0.27769 0.0
C582 C 0.72889 0.22088 0.72087 0.0
C583 C 0.72297 0.17456 0.7129 0.0
C584 C 0.69006 0.23133 0.71629 0.0
C585 C 0.64485 0.19452 0.70351 0.0
C586 C 0.6371 0.14605 0.69869 0.0
C587 C 0.67621 0.13669 0.70357 0.0
C588 C 0.69868 0.28259 0.72317 0.0
C589 C 0.58897 0.10508 0.68593 0.0
C590 C 0.52174 0.18984 0.69637 0.0
C591 C 0.52116 0.19898 0.66628 0.0
C592 C 0.56421 0.19401 0.70988 0.0
C593 C 0.60679 0.20654 0.69262 0.0
C594 C 0.60784 0.22026 0.66271 0.0
C595 C 0.56458 0.21584 0.64974 0.0
C596 C 0.56137 0.18024 0.74191 0.0
C597 C 0.653 0.23488 0.64373 0.0
H598 H 0.76494 0.25011 0.72827 0.0
H599 H 0.67156 0.10073 0.69763 0.0
H600 H 0.70744 0.30457 0.70259 0.0
H601 H 0.66482 0.28053 0.7328 0.0
H602 H 0.73012 0.30266 0.73872 0.0
H603 H 0.58818 0.0689 0.68489 0.0
H604 H 0.55685 0.10006 0.69929 0.0
H605 H 0.58391 0.11537 0.66336 0.0
H606 H 0.48766 0.17597 0.70901 0.0
H607 H 0.56378 0.22243 0.62641 0.0
H608 H 0.59844 0.19985 0.75263 0.0
H609 H 0.54665 0.13958 0.74382 0.0
H610 H 0.53566 0.18914 0.75402 0.0
H611 H 0.68738 0.26235 0.65526 0.0
H612 H 0.65059 0.25105 0.62243 0.0
H613 H 0.65638 0.20151 0.63921 0.0
C614 C 0.79935 0.35637 0.65088 0.0
C615 C 0.81785 0.33191 0.66803 0.0
C616 C 0.79428 0.39542 0.6629 0.0
C617 C 0.80831 0.40995 0.69256 0.0
C618 C 0.82239 0.38189 0.71051 0.0
C619 C 0.82765 0.34362 0.69789 0.0
C620 C 0.7783 0.424 0.64318 0.0
C621 C 0.83581 0.39485 0.74241 0.0
C622 C 0.87489 0.54938 0.70195 0.0
C623 C 0.83635 0.55728 0.71133 0.0
C624 C 0.86671 0.50132 0.69735 0.0
C625 C 0.8188 0.45993 0.70258 0.0
C626 C 0.78125 0.46742 0.71522 0.0
C627 C 0.79054 0.51633 0.71953 0.0
C628 C 0.90837 0.4952 0.68454 0.0
C629 C 0.73038 0.42416 0.72219 0.0
H630 H 0.79185 0.3471 0.62778 0.0
H631 H 0.84202 0.32443 0.71107 0.0
H632 H 0.75068 0.431 0.65449 0.0
H633 H 0.81111 0.46072 0.63788 0.0
H634 H 0.76182 0.40394 0.6223 0.0
H635 H 0.87237 0.42955 0.74396 0.0
H636 H 0.808 0.40182 0.7535 0.0
H637 H 0.83818 0.36488 0.75439 0.0
H638 H 0.91051 0.58109 0.69591 0.0
H639 H 0.76082 0.52237 0.72704 0.0
H640 H 0.89795 0.47902 0.66217 0.0
H641 H 0.9147 0.4692 0.69814 0.0
H642 H 0.94396 0.5311 0.68304 0.0
H643 H 0.70859 0.41022 0.7016 0.0
H644 H 0.70962 0.43512 0.7375 0.0
H645 H 0.73313 0.39295 0.73206 0.0
C646 C 0.66169 0.44717 0.64839 0.0
C647 C 0.6845 0.49144 0.66444 0.0
C648 C 0.6225 0.4036 0.66089 0.0
C649 C 0.60575 0.40514 0.68974 0.0
C650 C 0.63216 0.44878 0.70678 0.0
C651 C 0.67087 0.4915 0.69378 0.0
C652 C 0.59608 0.35729 0.6423 0.0
C653 C 0.61697 0.45237 0.73779 0.0
C654 C 0.46566 0.33187 0.69687 0.0
C655 C 0.45759 0.28722 0.7095 0.0
C656 C 0.51381 0.37118 0.69159 0.0
C657 C 0.55521 0.36597 0.69929 0.0
C658 C 0.54753 0.32304 0.71475 0.0
C659 C 0.49853 0.284 0.71983 0.0
C660 C 0.52015 0.41706 0.67603 0.0
C661 C 0.59087 0.31727 0.72447 0.0
H662 H 0.67227 0.44737 0.62567 0.0
H663 H 0.68856 0.52606 0.70611 0.0
H664 H 0.5597 0.35235 0.63501 0.0
H665 H 0.6181 0.35936 0.62255 0.0
H666 H 0.58846 0.32394 0.65527 0.0
H667 H 0.64989 0.47846 0.75101 0.0
H668 H 0.5909 0.46713 0.73727 0.0
H669 H 0.59819 0.41571 0.74898 0.0
H670 H 0.43406 0.33483 0.6893 0.0
H671 H 0.49244 0.24991 0.73008 0.0
H672 H 0.53811 0.4208 0.65435 0.0
H673 H 0.54478 0.45085 0.68899 0.0
H674 H 0.4841 0.41585 0.67245 0.0
H675 H 0.6075 0.30938 0.70507 0.0
H676 H 0.57931 0.28648 0.74052 0.0
H677 H 0.62028 0.35216 0.73461 0.0
C678 C 0.7517 0.8137 0.65055 0.0
C679 C 0.78478 0.80795 0.6691 0.0
C680 C 0.75746 0.86072 0.64492 0.0
C681 C 0.79716 0.90321 0.65818 0.0
C682 C 0.83152 0.89804 0.67626 0.0
C683 C 0.82491 0.85047 0.68153 0.0
C684 C 0.72003 0.86469 0.62554 0.0
C685 C 0.87444 0.94264 0.69075 0.0
C686 C 0.83219 0.03421 0.63359 0.0
C687 C 0.80983 0.04767 0.65574 0.0
C688 C 0.82745 0.98661 0.6335 0.0
C689 C 0.79942 0.95212 0.65594 0.0
C690 C 0.77455 0.96488 0.67728 0.0
C691 C 0.7802 0.01248 0.67694 0.0
C692 C 0.85434 0.97414 0.61036 0.0
C693 C 0.74371 0.92905 0.70133 0.0
H694 H 0.72077 0.78132 0.64053 0.0
H695 H 0.85102 0.84664 0.69558 0.0
H696 H 0.69773 0.8764 0.63893 0.0
H697 H 0.73937 0.89348 0.6084 0.0
H698 H 0.69418 0.82885 0.61464 0.0
H699 H 0.90021 0.93296 0.70208 0.0
H700 H 0.89583 0.97197 0.67421 0.0
H701 H 0.85988 0.9587 0.70713 0.0
H702 H 0.85554 0.06166 0.6174 0.0
H703 H 0.76264 0.02287 0.69399 0.0
H704 H 0.82881 0.93754 0.60022 0.0
H705 H 0.8852 0.97123 0.62071 0.0
H706 H 0.87014 0.0028 0.59279 0.0
H707 H 0.71512 0.89317 0.69171 0.0
H708 H 0.72467 0.9439 0.71527 0.0
H709 H 0.76795 0.92111 0.71558 0.0
C710 C 0.99253 0.78099 0.68472 0.0
C711 C 0.96219 0.77347 0.66018 0.0
C712 C 0.04092 0.82157 0.68633 0.0
C713 C 0.05959 0.85598 0.66287 0.0
C714 C 0.02987 0.84782 0.63749 0.0
C715 C 0.98137 0.80627 0.63635 0.0
C716 C 0.07152 0.82827 0.71358 0.0
C717 C 0.04867 0.88386 0.61208 0.0
C718 C 0.16388 0.98404 0.68526 0.0
C719 C 0.20628 0.98185 0.67679 0.0
C720 C 0.11579 0.94411 0.67972 0.0
C721 C 0.10993 0.90077 0.66559 0.0
C722 C 0.15249 0.8985 0.65674 0.0
C723 C 0.20004 0.93899 0.6624 0.0
C724 C 0.07124 0.94794 0.68944 0.0
C725 C 0.14784 0.85278 0.64192 0.0
H726 H 0.97799 0.75531 0.70307 0.0
H727 H 0.95785 0.80067 0.61746 0.0
H728 H 0.10769 0.83148 0.70752 0.0
H729 H 0.07978 0.86326 0.7249 0.0
H730 H 0.05219 0.79692 0.7293 0.0
H731 H 0.02227 0.87076 0.5933 0.0
H732 H 0.05456 0.92056 0.61939 0.0
H733 H 0.08517 0.88965 0.60441 0.0
H734 H 0.16818 0.01716 0.696 0.0
H735 H 0.23244 0.93681 0.65565 0.0
H736 H 0.05096 0.92022 0.70698 0.0
H737 H 0.04501 0.93924 0.67086 0.0
H738 H 0.08194 0.98553 0.69799 0.0
H739 H 0.13097 0.82084 0.65736 0.0
H740 H 0.18441 0.85824 0.63455 0.0
H741 H 0.12278 0.84259 0.62262 0.0
C742 C 0.207 0.17754 0.6369 0.0
C743 C 0.23361 0.18435 0.66302 0.0
C744 C 0.1639 0.18199 0.6366 0.0
C745 C 0.14763 0.19382 0.66296 0.0
C746 C 0.17499 0.2016 0.68914 0.0
C747 C 0.21743 0.19681 0.68883 0.0
C748 C 0.13542 0.17343 0.60831 0.0
C749 C 0.15933 0.21479 0.71768 0.0
C750 C 0.06709 0.2536 0.66538 0.0
C751 C 0.02123 0.21392 0.67485 0.0
C752 C 0.10782 0.24688 0.65981 0.0
C753 C 0.10266 0.19928 0.66366 0.0
C754 C 0.05605 0.15862 0.67219 0.0
C755 C 0.01593 0.16647 0.67783 0.0
C756 C 0.15702 0.29131 0.65109 0.0
C757 C 0.04906 0.10721 0.67638 0.0
H758 H 0.21914 0.16768 0.61694 0.0
H759 H 0.23798 0.20275 0.70911 0.0
H760 H 0.09689 0.14189 0.61102 0.0
H761 H 0.13256 0.20675 0.60275 0.0
H762 H 0.15324 0.16513 0.58965 0.0
H763 H 0.18494 0.21977 0.7361 0.0
H764 H 0.15815 0.24975 0.71503 0.0
H765 H 0.12129 0.18509 0.72379 0.0
H766 H 0.07162 0.29038 0.66282 0.0
H767 H 0.98044 0.13539 0.68462 0.0
H768 H 0.1726 0.28241 0.63158 0.0
H769 H 0.18417 0.30093 0.66927 0.0
H770 H 0.15356 0.32451 0.64605 0.0
H771 H 0.06394 0.09671 0.6572 0.0
H772 H 0.00929 0.07855 0.67946 0.0
H773 H 0.0702 0.107 0.69599 0.0
C774 C 0.08811 0.2976 0.21081 0.0
C775 C 0.09586 0.33277 0.23254 0.0
C776 C 0.08187 0.30646 0.18127 0.0
C777 C 0.08495 0.35208 0.17335 0.0
C778 C 0.09592 0.38887 0.19504 0.0
C779 C 0.10034 0.3784 0.22446 0.0
C780 C 0.06993 0.26633 0.15875 0.0
C781 C 0.10147 0.43874 0.1873 0.0
C782 C 0.0954 0.39464 0.09394 0.0
C783 C 0.04745 0.38714 0.08931 0.0
C784 C 0.10805 0.38155 0.12085 0.0
C785 C 0.07149 0.35969 0.14322 0.0
C786 C 0.02218 0.34899 0.1377 0.0
C787 C 0.01097 0.36348 0.11099 0.0
C788 C 0.16125 0.39419 0.12571 0.0
C789 C 0.9816 0.32409 0.16049 0.0
H790 H 0.08476 0.26233 0.21711 0.0
H791 H 0.10722 0.40595 0.24124 0.0
H792 H 0.03197 0.2529 0.14987 0.0
H793 H 0.09631 0.2816 0.14003 0.0
H794 H 0.07163 0.23413 0.1681 0.0
H795 H 0.11536 0.46511 0.20609 0.0
H796 H 0.12759 0.45558 0.16857 0.0
H797 H 0.06492 0.43373 0.18036 0.0
H798 H 0.12363 0.41295 0.07714 0.0
H799 H 0.97363 0.35694 0.1072 0.0
H800 H 0.1787 0.39247 0.10476 0.0
H801 H 0.16429 0.36901 0.14181 0.0
H802 H 0.1828 0.43277 0.13428 0.0
H803 H 0.98096 0.2904 0.16929 0.0
H804 H 0.94419 0.31312 0.15148 0.0
H805 H 0.98911 0.34989 0.17916 0.0
C806 C 0.62567 0.72473 0.22019 0.0
C807 C 0.66885 0.7675 0.22951 0.0
C808 C 0.61781 0.71186 0.19035 0.0
C809 C 0.65505 0.74134 0.16958 0.0
C810 C 0.69814 0.78538 0.17882 0.0
C811 C 0.70415 0.79841 0.20872 0.0
C812 C 0.57035 0.6658 0.18119 0.0
C813 C 0.73883 0.81737 0.15738 0.0
C814 C 0.65345 0.66261 0.10587 0.0
C815 C 0.62846 0.67386 0.08424 0.0
C816 C 0.66552 0.68713 0.13298 0.0
C817 C 0.6509 0.72279 0.13898 0.0
C818 C 0.62824 0.73648 0.11657 0.0
C819 C 0.61762 0.71202 0.08924 0.0
C820 C 0.69173 0.67297 0.15573 0.0
C821 C 0.61197 0.77427 0.1218 0.0
H822 H 0.59811 0.70124 0.2363 0.0
H823 H 0.73761 0.83148 0.21603 0.0
H824 H 0.55321 0.67436 0.16231 0.0
H825 H 0.57887 0.63669 0.17394 0.0
H826 H 0.54278 0.6504 0.19936 0.0
H827 H 0.76865 0.85188 0.16774 0.0
H828 H 0.75573 0.79593 0.14838 0.0
H829 H 0.72312 0.8278 0.13859 0.0
H830 H 0.66249 0.63356 0.1018 0.0
H831 H 0.59829 0.72074 0.07249 0.0
H832 H 0.66537 0.65162 0.17366 0.0
H833 H 0.72311 0.7068 0.16565 0.0
H834 H 0.70639 0.64977 0.14631 0.0
H835 H 0.63436 0.8017 0.13899 0.0
H836 H 0.57249 0.75455 0.12904 0.0
H837 H 0.61457 0.79472 0.10125 0.0
C838 C 0.30204 0.91304 0.09326 0.0
C839 C 0.34108 0.96164 0.08845 0.0
C840 C 0.27693 0.89953 0.12042 0.0
C841 C 0.29089 0.93582 0.14289 0.0
C842 C 0.32797 0.98568 0.13719 0.0
C843 C 0.35303 0.99777 0.11023 0.0
C844 C 0.23793 0.84583 0.12539 0.0
C845 C 0.34271 0.02599 0.16004 0.0
C846 C 0.21193 0.91644 0.21086 0.0
C847 C 0.24029 0.90992 0.23255 0.0
C848 C 0.22684 0.92313 0.18126 0.0
C849 C 0.27029 0.92183 0.17316 0.0
C850 C 0.29724 0.91217 0.19479 0.0
C851 C 0.28243 0.90724 0.22431 0.0
C852 C 0.19739 0.93365 0.15887 0.0
C853 C 0.34259 0.90848 0.18685 0.0
H854 H 0.29291 0.88502 0.07644 0.0
H855 H 0.38286 0.03555 0.10635 0.0
H856 H 0.25646 0.82536 0.13346 0.0
H857 H 0.20977 0.84161 0.1419 0.0
H858 H 0.21846 0.82812 0.10456 0.0
H859 H 0.36798 0.06367 0.15099 0.0
H860 H 0.30915 0.02532 0.16913 0.0
H861 H 0.36197 0.01931 0.17852 0.0
H862 H 0.17927 0.91848 0.21721 0.0
H863 H 0.30393 0.90138 0.241 0.0
H864 H 0.18688 0.90727 0.14021 0.0
H865 H 0.22078 0.97173 0.14988 0.0
H866 H 0.16302 0.93077 0.16837 0.0
H867 H 0.33402 0.88251 0.16812 0.0
H868 H 0.35605 0.89539 0.20557 0.0
H869 H 0.37316 0.94549 0.17983 0.0
C870 C 0.38579 -0.00078 0.88662 0.0
C871 C 0.4255 0.9945 0.89755 0.0
C872 C 0.38361 0.00981 0.85689 0.0
C873 C 0.42248 0.01662 0.83765 0.0
C874 C 0.4623 0.01113 0.84839 0.0
C875 C 0.46316 -0.00022 0.87819 0.0
C876 C 0.34016 0.01481 0.84622 0.0
C877 C 0.50474 0.01887 0.82865 0.0
C878 C 0.38963 0.01235 0.75698 0.0
C879 C 0.4048 0.06243 0.75194 0.0
C880 C 0.39784 0.99688 0.78442 0.0
C881 C 0.42251 0.03265 0.80685 0.0
C882 C 0.44176 0.0838 0.80073 0.0
C883 C 0.43194 0.09796 0.77347 0.0
C884 C 0.37649 0.94201 0.79014 0.0
C885 C 0.46941 0.12332 0.82368 0.0
H886 H 0.35634 0.99477 0.90134 0.0
H887 H 0.49413 0.99641 0.88648 0.0
H888 H 0.35354 0.05368 0.83908 0.0
H889 H 0.32256 0.99039 0.82691 0.0
H890 H 0.31138 0.00504 0.86347 0.0
H891 H 0.53121 0.01004 0.83988 0.0
H892 H 0.49025 0.99536 0.80871 0.0
H893 H 0.52543 0.0582 0.82123 0.0
H894 H 0.36813 0.98494 0.74032 0.0
H895 H 0.44352 0.13672 0.76941 0.0
H896 H 0.34335 0.9285 0.80458 0.0
H897 H 0.40389 0.93503 0.80172 0.0
H898 H 0.36499 0.91993 0.76951 0.0
H899 H 0.44277 0.12145 0.84062 0.0
H900 H 0.48842 0.16134 0.81407 0.0
H901 H 0.49757 0.11703 0.83488 0.0
C902 C 0.04706 0.46149 0.87747 0.0
C903 C 0.0126 0.4343 0.89956 0.0
C904 C 0.03733 0.44591 0.84803 0.0
C905 C 0.99154 0.40316 0.84063 0.0
C906 C 0.95545 0.3776 0.86271 0.0
C907 C 0.96681 0.39293 0.89201 0.0
C908 C 0.07669 0.47386 0.82505 0.0
C909 C 0.90537 0.33313 0.85552 0.0
C910 C 0.94702 0.3701 0.76162 0.0
C911 C 0.95456 0.32972 0.7569 0.0
C912 C 0.96058 0.39603 0.78845 0.0
C913 C 0.98307 0.38166 0.81059 0.0
C914 C 0.9937 0.34303 0.80497 0.0
C915 C 0.97862 0.31706 0.77838 0.0
C916 C 0.94778 0.43645 0.79343 0.0
C917 C 0.0193 0.32774 0.82751 0.0
H918 H 0.08241 0.49361 0.88338 0.0
H919 H 0.93981 0.37249 0.90909 0.0
H920 H 0.08981 0.44925 0.81587 0.0
H921 H 0.06074 0.4848 0.80661 0.0
H922 H 0.10922 0.50781 0.83407 0.0
H923 H 0.87956 0.32093 0.8746 0.0
H924 H 0.8879 0.34206 0.83698 0.0
H925 H 0.91026 0.30156 0.84853 0.0
H926 H 0.92841 0.37988 0.74495 0.0
H927 H 0.98517 0.28629 0.77449 0.0
H928 H 0.97267 0.46445 0.80971 0.0
H929 H 0.90901 0.41925 0.80177 0.0
H930 H 0.94978 0.45588 0.77255 0.0
H931 H 0.05322 0.36091 0.83596 0.0
H932 H 0.03008 0.30121 0.81839 0.0
H933 H 0.99403 0.30972 0.84644 0.0
C934 C 0.67262 0.58434 0.76865 0.0
C935 C 0.66584 0.61343 0.7477 0.0
C936 C 0.64841 0.57403 0.79589 0.0
C937 C 0.61792 0.59474 0.80263 0.0
C938 C 0.6086 0.62171 0.78079 0.0
C939 C 0.63251 0.63045 0.75335 0.0
C940 C 0.65851 0.54412 0.81818 0.0
C941 C 0.57667 0.6447 0.78716 0.0
C942 C 0.54314 0.55266 0.87369 0.0
C943 C 0.57594 0.58884 0.89359 0.0
C944 C 0.55562 0.55454 0.84382 0.0
C945 C 0.60172 0.59379 0.83356 0.0
C946 C 0.63428 0.63114 0.85337 0.0
C947 C 0.62115 0.62806 0.8831 0.0
C948 C 0.52022 0.51378 0.82343 0.0
C949 C 0.68366 0.6739 0.84331 0.0
H950 H 0.6987 0.57145 0.76416 0.0
H951 H 0.62792 0.65351 0.73718 0.0
H952 H 0.68329 0.56927 0.83563 0.0
H953 H 0.62341 0.51608 0.82885 0.0
H954 H 0.67676 0.52466 0.80812 0.0
H955 H 0.56733 0.65821 0.76686 0.0
H956 H 0.54162 0.61757 0.79825 0.0
H957 H 0.59694 0.67673 0.80227 0.0
H958 H 0.50816 0.52213 0.88157 0.0
H959 H 0.64659 0.65644 0.89818 0.0
H960 H 0.5378 0.49244 0.81532 0.0
H961 H 0.51209 0.53002 0.80395 0.0
H962 H 0.48453 0.48758 0.83438 0.0
H963 H 0.7081 0.65951 0.83567 0.0
H964 H 0.70327 0.70148 0.86104 0.0
H965 H 0.67802 0.69325 0.82446 0.0
C966 C 0.7311 0.6781 0.41846 0.0
C967 C 0.74465 0.72774 0.41322 0.0
C968 C 0.74095 0.66367 0.44581 0.0
C969 C 0.76545 0.7 0.468 0.0
C970 C 0.78347 0.75084 0.46152 0.0
C971 C 0.77204 0.76394 0.43437 0.0
C972 C 0.72092 0.60909 0.45183 0.0
C973 C 0.81079 0.79103 0.48416 0.0
C974 C 0.72698 0.66716 0.54766 0.0
C975 C 0.76678 0.66332 0.55935 0.0
C976 C 0.7255 0.67739 0.51779 0.0
C977 C 0.76513 0.68468 0.49907 0.0
C978 C 0.8051 0.68012 0.51055 0.0
C979 C 0.80532 0.66918 0.54053 0.0
C980 C 0.68184 0.68141 0.5064 0.0
C981 C 0.84829 0.68828 0.49138 0.0
H982 H 0.70917 0.65008 0.40219 0.0
H983 H 0.78191 0.80225 0.43031 0.0
H984 H 0.7486 0.60319 0.46393 0.0
H985 H 0.68722 0.59485 0.46585 0.0
H986 H 0.71058 0.58687 0.43126 0.0
H987 H 0.82966 0.82875 0.47415 0.0
H988 H 0.7839 0.78949 0.50083 0.0
H989 H 0.83899 0.7853 0.49576 0.0
H990 H 0.69682 0.66224 0.56191 0.0
H991 H 0.83632 0.66643 0.54937 0.0
H992 H 0.66486 0.65643 0.48724 0.0
H993 H 0.69484 0.72 0.49885 0.0
H994 H 0.65263 0.67167 0.52338 0.0
H995 H 0.83459 0.66452 0.47149 0.0
H996 H 0.87478 0.68006 0.50312 0.0
H997 H 0.86872 0.72753 0.48382 0.0
C998 C 0.32318 0.04363 0.42369 0.0
C999 C 0.27359 0.00629 0.41976 0.0
C1000 C 0.33904 0.06885 0.45066 0.0
C1001 C 0.30411 0.05687 0.47374 0.0
C1002 C 0.25314 0.02243 0.4687 0.0
C1003 C 0.23865 0.99701 0.44189 0.0
C1004 C 0.39372 0.10514 0.45521 0.0
C1005 C 0.21442 0.00951 0.49236 0.0
C1006 C 0.34306 0.05809 0.55272 0.0
C1007 C 0.34559 0.10154 0.56367 0.0
C1008 C 0.33144 0.04432 0.52322 0.0
C1009 C 0.32132 0.07433 0.50419 0.0
C1010 C 0.32461 0.11872 0.5149 0.0
C1011 C 0.33708 0.13202 0.5445 0.0
C1012 C 0.32884 0.99692 0.51259 0.0
C1013 C 0.31337 0.15121 0.49536 0.0
H1014 H 0.35013 0.05049 0.40652 0.0
H1015 H 0.20015 0.96833 0.4386 0.0
H1016 H 0.3992 0.13914 0.46657 0.0
H1017 H 0.4099 0.08772 0.4694 0.0
H1018 H 0.41456 0.11606 0.43412 0.0
H1019 H 0.17593 0.98838 0.48349 0.0
H1020 H 0.21881 0.9864 0.5094 0.0
H1021 H 0.21933 0.04367 0.50325 0.0
H1022 H 0.35008 0.03461 0.56728 0.0
H1023 H 0.3388 0.16559 0.55283 0.0
H1024 H 0.35255 0.00452 0.49283 0.0
H1025 H 0.29004 0.96962 0.50619 0.0
H1026 H 0.34106 0.97964 0.52962 0.0
H1027 H 0.33585 0.16073 0.47494 0.0
H1028 H 0.32095 0.18623 0.50644 0.0
H1029 H 0.27361 0.13059 0.48875 0.0
C1030 C 0.88233 0.24653 0.5437 0.0
C1031 C 0.91505 0.25193 0.56653 0.0
C1032 C 0.89794 0.25282 0.51424 0.0
C1033 C 0.94702 0.2638 0.50756 0.0
C1034 C 0.97951 0.26741 0.53049 0.0
C1035 C 0.96328 0.26191 0.55968 0.0
C1036 C 0.86259 0.24948 0.49038 0.0
C1037 C 0.03184 0.27811 0.52426 0.0
C1038 C 0.98629 0.24839 0.43101 0.0
C1039 C 0.0143 0.29806 0.42205 0.0
C1040 C 0.96239 0.23623 0.45847 0.0
C1041 C 0.96599 0.27474 0.4769 0.0
C1042 C 0.9922 0.32476 0.4671 0.0
C1043 C 0.0167 0.33586 0.43993 0.0
C1044 C 0.93554 0.18261 0.4684 0.0
C1045 C 0.99644 0.36683 0.4859 0.0
H1046 H 0.84504 0.23891 0.5489 0.0
H1047 H 0.9885 0.26541 0.57722 0.0
H1048 H 0.87753 0.28621 0.47948 0.0
H1049 H 0.85928 0.22247 0.47332 0.0
H1050 H 0.82487 0.23805 0.49905 0.0
H1051 H 0.05104 0.27607 0.54437 0.0
H1052 H 0.03116 0.25122 0.50792 0.0
H1053 H 0.05406 0.31588 0.51467 0.0
H1054 H 0.98558 0.21948 0.41731 0.0
H1055 H 0.03867 0.37429 0.43287 0.0
H1056 H 0.8958 0.17023 0.47267 0.0
H1057 H 0.95178 0.17888 0.48931 0.0
H1058 H 0.93765 0.15736 0.45189 0.0
H1059 H 0.95919 0.35818 0.49401 0.0
H1060 H 0.01336 0.4027 0.47378 0.0
H1061 H 0.01985 0.3715 0.5054 0.0
loop_
_geom_bond_atom_site_label_1
_geom_bond_atom_site_label_2
_geom_bond_distance
_geom_bond_site_symmetry_2
_ccdc_geom_bond_type
Sc0 O3 2.025 1_556 S
Sc0 O10 2.116 . S
Sc0 O13 2.105 . S
Sc0 O16 2.105 1_455 S
Sc0 O19 2.105 . S
Sc1 O3 2.025 . S
Sc1 O11 2.105 1_554 S
Sc1 O15 2.105 1_455 S
Sc1 O17 2.105 1_454 S
Sc1 O21 2.105 . S
Sc2 O3 2.025 1_655 S
Sc2 O12 2.105 1_655 S
Sc2 O14 2.105 . S
Sc2 O18 2.105 . S
Sc2 O20 2.105 1_655 S
O3 Sc0 2.025 1_554 S
O3 Sc1 2.025 . S
O3 Sc2 2.025 1_455 S
C4 O10 1.251 1_554 S
C4 O20 1.268 . S
C5 O11 1.268 . S
C5 O19 1.268 . S
C6 O12 1.268 . S
C6 O21 1.268 . S
C7 O13 1.268 1_655 S
C7 O17 1.268 . S
C8 O14 1.268 1_556 S
C8 O16 1.268 . S
C9 O15 1.268 . S
C9 O18 1.268 . S
O10 Sc0 2.116 . S
O10 C4 1.251 1_556 S
O11 Sc1 2.105 1_556 S
O11 C5 1.268 . S
O12 Sc2 2.105 1_455 S
O12 C6 1.268 . S
O13 Sc0 2.105 . S
O13 C7 1.268 1_455 S
O14 Sc2 2.105 . S
O14 C8 1.268 1_554 S
O15 Sc1 2.105 1_655 S
O15 C9 1.268 . S
O16 Sc0 2.105 1_655 S
O16 C8 1.268 . S
O17 Sc1 2.105 1_656 S
O17 C7 1.268 . S
O18 Sc2 2.105 . S
O18 C9 1.268 . S
O19 Sc0 2.105 . S
O19 C5 1.268 . S
O20 Sc2 2.105 1_455 S
O20 C4 1.268 . S
O21 Sc1 2.105 . S
O21 C6 1.268 . S
Sc22 O25 2.025 1_556 S
Sc22 O32 2.116 . S
Sc22 O35 2.105 . S
Sc22 O38 2.105 . S
Sc22 O41 2.105 . S
Sc23 O25 2.025 . S
Sc23 O33 2.105 1_554 S
Sc23 O37 2.105 . S
Sc23 O39 2.105 1_554 S
Sc23 O43 2.105 . S
Sc24 O25 2.025 . S
Sc24 O34 2.105 . S
Sc24 O36 2.105 . S
Sc24 O40 2.105 . S
Sc24 O42 2.105 . S
O25 Sc22 2.025 1_554 S
O25 Sc23 2.025 . S
O25 Sc24 2.025 . S
C26 O32 1.251 1_554 S
C26 O42 1.268 . S
C27 O33 1.268 . S
C27 O41 1.268 . S
C28 O34 1.268 . S
C28 O43 1.268 . S
C29 O35 1.268 . S
C29 O39 1.268 . S
C30 O36 1.268 1_556 S
C30 O38 1.268 . S
C31 O37 1.268 . S
C31 O40 1.268 . S
O32 Sc22 2.116 . S
O32 C26 1.251 1_556 S
O33 Sc23 2.105 1_556 S
O33 C27 1.268 . S
O34 Sc24 2.105 . S
O34 C28 1.268 . S
O35 Sc22 2.105 . S
O35 C29 1.268 . S
O36 Sc24 2.105 . S
O36 C30 1.268 1_554 S
O37 Sc23 2.105 . S
O37 C31 1.268 . S
O38 Sc22 2.105 . S
O38 C30 1.268 . S
O39 Sc23 2.105 1_556 S
O39 C29 1.268 . S
O40 Sc24 2.105 . S
O40 C31 1.268 . S
O41 Sc22 2.105 . S
O41 C27 1.268 . S
O42 Sc24 2.105 . S
O42 C26 1.268 . S
O43 Sc23 2.105 . S
O43 C28 1.268 . S
Sc44 O47 2.025 1_566 S
Sc44 O54 2.116 . S
Sc44 O57 2.105 1_565 S
Sc44 O60 2.105 1_565 S
Sc44 O63 2.105 . S
Sc45 O47 2.025 . S
Sc45 O55 2.105 1_544 S
Sc45 O59 2.105 . S
Sc45 O61 2.105 1_554 S
Sc45 O65 2.105 1_545 S
Sc46 O47 2.025 . S
Sc46 O56 2.105 . S
Sc46 O58 2.105 . S
Sc46 O62 2.105 . S
Sc46 O64 2.105 1_545 S
O47 Sc44 2.025 1_544 S
O47 Sc45 2.025 . S
O47 Sc46 2.025 . S
C48 O54 1.251 1_554 S
C48 O64 1.268 . S
C49 O55 1.268 . S
C49 O63 1.268 . S
C50 O56 1.268 1_565 S
C50 O65 1.268 . S
C51 O57 1.268 . S
C51 O61 1.268 . S
C52 O58 1.268 1_556 S
C52 O60 1.268 . S
C53 O59 1.268 . S
C53 O62 1.268 . S
O54 Sc44 2.116 . S
O54 C48 1.251 1_556 S
O55 Sc45 2.105 1_566 S
O55 C49 1.268 . S
O56 Sc46 2.105 . S
O56 C50 1.268 1_545 S
O57 Sc44 2.105 1_545 S
O57 C51 1.268 . S
O58 Sc46 2.105 . S
O58 C52 1.268 1_554 S
O59 Sc45 2.105 . S
O59 C53 1.268 . S
O60 Sc44 2.105 1_545 S
O60 C52 1.268 . S
O61 Sc45 2.105 1_556 S
O61 C51 1.268 . S
O62 Sc46 2.105 . S
O62 C53 1.268 . S
O63 Sc44 2.105 . S
O63 C49 1.268 . S
O64 Sc46 2.105 1_565 S
O64 C48 1.268 . S
O65 Sc45 2.105 1_565 S
O65 C50 1.268 . S
Sc66 O69 2.025 . S
Sc66 O76 2.105 . S
Sc66 O79 2.105 . S
Sc66 O82 2.105 . S
Sc66 O85 2.105 . S
Sc67 O69 2.025 . S
Sc67 O77 2.105 . S
Sc67 O81 2.105 . S
Sc67 O83 2.105 . S
Sc67 O87 2.105 . S
Sc68 O69 2.025 . S
Sc68 O78 2.105 . S
Sc68 O80 2.105 . S
Sc68 O84 2.105 . S
Sc68 O86 2.105 . S
O69 Sc66 2.025 . S
O69 Sc67 2.025 . S
O69 Sc68 2.025 . S
C70 O76 1.268 . S
C70 O86 1.268 . S
C71 O77 1.268 . S
C71 O85 1.268 . S
C72 O78 1.268 . S
C72 O87 1.268 . S
C73 O79 1.268 . S
C73 O83 1.268 . S
C74 O80 1.268 . S
C74 O82 1.268 . S
C75 O81 1.268 . S
C75 O84 1.268 . S
O76 Sc66 2.105 . S
O76 C70 1.268 . S
O77 Sc67 2.105 . S
O77 C71 1.268 . S
O78 Sc68 2.105 . S
O78 C72 1.268 . S
O79 Sc66 2.105 . S
O79 C73 1.268 . S
O80 Sc68 2.105 . S
O80 C74 1.268 . S
O81 Sc67 2.105 . S
O81 C75 1.268 . S
O82 Sc66 2.105 . S
O82 C74 1.268 . S
O83 Sc67 2.105 . S
O83 C73 1.268 . S
O84 Sc68 2.105 . S
O84 C75 1.268 . S
O85 Sc66 2.105 . S
O85 C71 1.268 . S
O86 Sc68 2.105 . S
O86 C70 1.268 . S
O87 Sc67 2.105 . S
O87 C72 1.268 . S
Sc88 O91 2.025 . S
Sc88 O98 2.105 . S
Sc88 O101 2.105 . S
Sc88 O104 2.105 . S
Sc88 O107 2.105 . S
Sc89 O91 2.025 . S
Sc89 O99 2.105 1_565 S
Sc89 O103 2.105 . S
Sc89 O105 2.105 . S
Sc89 O109 2.105 . S
Sc90 O91 2.025 . S
Sc90 O100 2.105 . S
Sc90 O102 2.105 . S
Sc90 O106 2.105 . S
Sc90 O108 2.105 . S
O91 Sc88 2.025 . S
O91 Sc89 2.025 . S
O91 Sc90 2.025 . S
C92 O98 1.268 . S
C92 O108 1.268 . S
C93 O99 1.268 1_565 S
C93 O107 1.268 . S
C94 O100 1.268 . S
C94 O109 1.268 . S
C95 O101 1.268 . S
C95 O105 1.268 . S
C96 O102 1.268 . S
C96 O104 1.268 . S
C97 O103 1.268 . S
C97 O106 1.268 . S
O98 Sc88 2.105 . S
O98 C92 1.268 . S
O99 Sc89 2.105 1_545 S
O99 C93 1.268 1_545 S
O100 Sc90 2.105 . S
O100 C94 1.268 . S
O101 Sc88 2.105 . S
O101 C95 1.268 . S
O102 Sc90 2.105 . S
O102 C96 1.268 . S
O103 Sc89 2.105 . S
O103 C97 1.268 . S
O104 Sc88 2.105 . S
O104 C96 1.268 . S
O105 Sc89 2.105 . S
O105 C95 1.268 . S
O106 Sc90 2.105 . S
O106 C97 1.268 . S
O107 Sc88 2.105 . S
O107 C93 1.268 . S
O108 Sc90 2.105 . S
O108 C92 1.268 . S
O109 Sc89 2.105 . S
O109 C94 1.268 . S
Sc110 O113 2.025 . S
Sc110 O120 2.105 . S
Sc110 O123 2.105 . S
Sc110 O126 2.105 . S
Sc110 O129 2.105 . S
Sc111 O113 2.025 . S
Sc111 O121 2.105 . S
Sc111 O125 2.105 . S
Sc111 O127 2.105 . S
Sc111 O131 2.105 . S
Sc112 O113 2.025 . S
Sc112 O122 2.105 . S
Sc112 O124 2.105 . S
Sc112 O128 2.105 . S
Sc112 O130 2.105 . S
O113 Sc110 2.025 . S
O113 Sc111 2.025 . S
O113 Sc112 2.025 . S
C114 O120 1.268 . S
C114 O130 1.268 . S
C115 O121 1.268 . S
C115 O129 1.268 . S
C116 O122 1.268 . S
C116 O131 1.268 . S
C117 O123 1.268 . S
C117 O127 1.268 . S
C118 O124 1.268 . S
C118 O126 1.268 . S
C119 O125 1.268 . S
C119 O128 1.268 . S
O120 Sc110 2.105 . S
O120 C114 1.268 . S
O121 Sc111 2.105 . S
O121 C115 1.268 . S
O122 Sc112 2.105 . S
O122 C116 1.268 . S
O123 Sc110 2.105 . S
O123 C117 1.268 . S
O124 Sc112 2.105 . S
O124 C118 1.268 . S
O125 Sc111 2.105 . S
O125 C119 1.268 . S
O126 Sc110 2.105 . S
O126 C118 1.268 . S
O127 Sc111 2.105 . S
O127 C117 1.268 . S
O128 Sc112 2.105 . S
O128 C119 1.268 . S
O129 Sc110 2.105 . S
O129 C115 1.268 . S
O130 Sc112 2.105 . S
O130 C114 1.268 . S
O131 Sc111 2.105 . S
O131 C116 1.268 . S
Sc132 O135 2.025 . S
Sc132 O142 2.105 . S
Sc132 O145 2.105 . S
Sc132 O148 2.105 . S
Sc132 O151 2.105 . S
Sc133 O135 2.025 . S
Sc133 O143 2.105 . S
Sc133 O147 2.105 . S
Sc133 O149 2.105 . S
Sc133 O153 2.105 . S
Sc134 O135 2.025 . S
Sc134 O144 2.105 . S
Sc134 O146 2.105 . S
Sc134 O150 2.105 . S
Sc134 O152 2.105 . S
O135 Sc132 2.025 . S
O135 Sc133 2.025 . S
O135 Sc134 2.025 . S
C136 O142 1.268 . S
C136 O152 1.268 . S
C137 O143 1.268 . S
C137 O151 1.268 . S
C138 O144 1.268 . S
C138 O153 1.268 . S
C139 O145 1.268 . S
C139 O149 1.268 . S
C140 O146 1.268 . S
C140 O148 1.268 . S
C141 O147 1.268 . S
C141 O150 1.268 . S
O142 Sc132 2.105 . S
O142 C136 1.268 . S
O143 Sc133 2.105 . S
O143 C137 1.268 . S
O144 Sc134 2.105 . S
O144 C138 1.268 . S
O145 Sc132 2.105 . S
O145 C139 1.268 . S
O146 Sc134 2.105 . S
O146 C140 1.268 . S
O147 Sc133 2.105 . S
O147 C141 1.268 . S
O148 Sc132 2.105 . S
O148 C140 1.268 . S
O149 Sc133 2.105 . S
O149 C139 1.268 . S
O150 Sc134 2.105 . S
O150 C141 1.268 . S
O151 Sc132 2.105 . S
O151 C137 1.268 . S
O152 Sc134 2.105 . S
O152 C136 1.268 . S
O153 Sc133 2.105 . S
O153 C138 1.268 . S
Sc154 O157 2.025 . S
Sc154 O164 2.105 . S
Sc154 O167 2.105 . S
Sc154 O170 2.105 . S
Sc154 O173 2.105 . S
Sc155 O157 2.025 . S
Sc155 O165 2.105 . S
Sc155 O169 2.087 1_655 S
Sc155 O171 2.105 . S
Sc155 O175 2.105 . S
Sc156 O157 2.025 . S
Sc156 O166 2.105 . S
Sc156 O168 2.105 . S
Sc156 O172 2.105 . S
Sc156 O174 2.105 . S
O157 Sc154 2.025 . S
O157 Sc155 2.025 . S
O157 Sc156 2.025 . S
C158 O164 1.268 . S
C158 O174 1.268 . S
C159 O165 1.268 . S
C159 O173 1.268 . S
C160 O166 1.268 . S
C160 O175 1.268 . S
C161 O167 1.268 . S
C161 O171 1.268 . S
C162 O168 1.268 . S
C162 O170 1.268 . S
C163 O169 1.274 1_655 S
C163 O172 1.268 . S
O164 Sc154 2.105 . S
O164 C158 1.268 . S
O165 Sc155 2.105 . S
O165 C159 1.268 . S
O166 Sc156 2.105 . S
O166 C160 1.268 . S
O167 Sc154 2.105 . S
O167 C161 1.268 . S
O168 Sc156 2.105 . S
O168 C162 1.268 . S
O169 Sc155 2.087 1_455 S
O169 C163 1.274 1_455 S
O170 Sc154 2.105 . S
O170 C162 1.268 . S
O171 Sc155 2.105 . S
O171 C161 1.268 . S
O172 Sc156 2.105 . S
O172 C163 1.268 . S
O173 Sc154 2.105 . S
O173 C159 1.268 . S
O174 Sc156 2.105 . S
O174 C158 1.268 . S
O175 Sc155 2.105 . S
O175 C160 1.268 . S
Sc176 O179 2.025 . S
Sc176 O186 2.105 . S
Sc176 O189 2.105 . S
Sc176 O192 2.105 . S
Sc176 O195 2.105 . S
Sc177 O179 2.025 . S
Sc177 O187 2.105 . S
Sc177 O191 2.105 . S
Sc177 O193 2.105 . S
Sc177 O197 2.105 . S
Sc178 O179 2.025 . S
Sc178 O188 2.105 . S
Sc178 O190 2.105 . S
Sc178 O194 2.105 . S
Sc178 O196 2.105 . S
O179 Sc176 2.025 . S
O179 Sc177 2.025 . S
O179 Sc178 2.025 . S
C180 O186 1.268 . S
C180 O196 1.268 . S
C181 O187 1.268 . S
C181 O195 1.268 . S
C182 O188 1.268 . S
C182 O197 1.268 . S
C183 O189 1.268 . S
C183 O193 1.268 . S
C184 O190 1.268 . S
C184 O192 1.268 . S
C185 O191 1.268 . S
C185 O194 1.268 . S
O186 Sc176 2.105 . S
O186 C180 1.268 . S
O187 Sc177 2.105 . S
O187 C181 1.268 . S
O188 Sc178 2.105 . S
O188 C182 1.268 . S
O189 Sc176 2.105 . S
O189 C183 1.268 . S
O190 Sc178 2.105 . S
O190 C184 1.268 . S
O191 Sc177 2.105 . S
O191 C185 1.268 . S
O192 Sc176 2.105 . S
O192 C184 1.268 . S
O193 Sc177 2.105 . S
O193 C183 1.268 . S
O194 Sc178 2.105 . S
O194 C185 1.268 . S
O195 Sc176 2.105 . S
O195 C181 1.268 . S
O196 Sc178 2.105 . S
O196 C180 1.268 . S
O197 Sc177 2.105 . S
O197 C182 1.268 . S
C198 C199 1.391 . S
C198 C200 1.394 . S
C198 H214 0.931 . S
C199 C198 1.391 . S
C199 C203 1.376 . S
C200 C198 1.394 . S
C200 C201 1.369 . S
C200 C204 1.531 . S
C201 C200 1.369 . S
C201 C202 1.410 . S
C201 C209 1.503 . S
C202 C201 1.410 . S
C202 C203 1.392 . S
C202 C205 1.511 1_554 S
C203 C199 1.376 . S
C203 C202 1.392 . S
C203 H215 0.929 . S
C204 C200 1.531 . S
C204 H216 0.960 . S
C204 H217 0.962 . S
C204 H218 0.960 . S
C205 C202 1.511 1_556 S
C205 H219 0.961 . S
C205 H220 0.961 . S
C205 H221 0.961 1_556 S
C206 C207 1.370 . S
C206 C208 1.363 . S
C206 H222 0.931 . S
C207 C206 1.370 . S
C207 C211 1.408 1_556 S
C208 C206 1.363 . S
C208 C209 1.370 1_556 S
C208 C212 1.524 . S
C209 C201 1.503 . S
C209 C208 1.370 1_554 S
C209 C210 1.403 . S
C210 C209 1.403 . S
C210 C211 1.404 . S
C210 C213 1.539 . S
C211 C207 1.408 1_554 S
C211 C210 1.404 . S
C211 H223 0.930 . S
C212 C208 1.524 . S
C212 H224 0.956 . S
C212 H225 0.961 . S
C212 H226 0.961 . S
C213 C210 1.539 . S
C213 H227 0.958 . S
C213 H228 0.961 . S
C213 H229 0.960 . S
H214 C198 0.931 . S
H215 C203 0.929 . S
H216 C204 0.960 . S
H217 C204 0.962 . S
H218 C204 0.960 . S
H219 C205 0.961 . S
H220 C205 0.961 . S
H221 C205 0.961 1_554 S
H222 C206 0.931 . S
H223 C211 0.930 . S
H224 C212 0.956 . S
H225 C212 0.961 . S
H226 C212 0.961 . S
H227 C213 0.958 . S
H228 C213 0.961 . S
H229 C213 0.960 . S
C230 C231 1.391 . S
C230 C232 1.394 . S
C230 H246 0.931 . S
C231 C230 1.391 . S
C231 C235 1.376 . S
C232 C230 1.394 . S
C232 C233 1.369 . S
C232 C236 1.531 . S
C233 C232 1.369 . S
C233 C234 1.410 . S
C233 C241 1.503 . S
C234 C233 1.410 . S
C234 C235 1.392 . S
C234 C237 1.511 . S
C235 C231 1.376 . S
C235 C234 1.392 . S
C235 H247 0.929 . S
C236 C232 1.531 . S
C236 H248 0.960 . S
C236 H249 0.962 1_554 S
C236 H250 0.960 . S
C237 C234 1.511 . S
C237 H251 0.961 . S
C237 H252 0.961 . S
C237 H253 0.961 . S
C238 C239 1.370 . S
C238 C240 1.363 . S
C238 H254 0.931 . S
C239 C238 1.370 . S
C239 C243 1.408 1_556 S
C240 C238 1.363 . S
C240 C241 1.370 1_556 S
C240 C244 1.524 . S
C241 C233 1.503 . S
C241 C240 1.370 1_554 S
C241 C242 1.403 . S
C242 C241 1.403 . S
C242 C243 1.404 . S
C242 C245 1.539 . S
C243 C239 1.408 1_554 S
C243 C242 1.404 . S
C243 H255 0.930 . S
C244 C240 1.524 . S
C244 H256 0.956 . S
C244 H257 0.961 . S
C244 H258 0.961 . S
C245 C242 1.539 . S
C245 H259 0.958 . S
C245 H260 0.961 . S
C245 H261 0.960 . S
H246 C230 0.931 . S
H247 C235 0.929 . S
H248 C236 0.960 . S
H249 C236 0.962 1_556 S
H250 C236 0.960 . S
H251 C237 0.961 . S
H252 C237 0.961 . S
H253 C237 0.961 . S
H254 C238 0.931 . S
H255 C243 0.930 . S
H256 C244 0.956 . S
H257 C244 0.961 . S
H258 C244 0.961 . S
H259 C245 0.958 . S
H260 C245 0.961 . S
H261 C245 0.960 . S
C262 C263 1.391 . S
C262 C264 1.394 . S
C262 H278 0.931 . S
C263 C262 1.391 . S
C263 C267 1.376 1_556 S
C264 C262 1.394 . S
C264 C265 1.342 1_556 S
C264 C268 1.531 . S
C265 C264 1.342 1_554 S
C265 C266 1.429 . S
C265 C273 1.514 . S
C266 C265 1.429 . S
C266 C267 1.392 . S
C266 C269 1.511 . S
C267 C263 1.376 1_554 S
C267 C266 1.392 . S
C267 H279 0.929 . S
C268 C264 1.531 . S
C268 H280 0.960 . S
C268 H281 0.962 . S
C268 H282 0.960 . S
C269 C266 1.511 . S
C269 H283 0.961 . S
C269 H284 0.961 . S
C269 H285 0.961 . S
C270 C271 1.370 . S
C270 C272 1.363 . S
C270 H286 0.931 . S
C271 C270 1.370 . S
C271 C275 1.408 . S
C272 C270 1.363 . S
C272 C273 1.370 . S
C272 C276 1.524 . S
C273 C265 1.514 . S
C273 C272 1.370 . S
C273 C274 1.403 . S
C274 C273 1.403 . S
C274 C275 1.404 . S
C274 C277 1.539 1_554 S
C275 C271 1.408 . S
C275 C274 1.404 . S
C275 H287 0.930 . S
C276 C272 1.524 . S
C276 H288 0.956 . S
C276 H289 0.961 . S
C276 H290 0.961 . S
C277 C274 1.539 1_556 S
C277 H291 0.958 . S
C277 H292 0.961 . S
C277 H293 0.960 . S
H278 C262 0.931 . S
H279 C267 0.929 . S
H280 C268 0.960 . S
H281 C268 0.962 . S
H282 C268 0.960 . S
H283 C269 0.961 . S
H284 C269 0.961 . S
H285 C269 0.961 . S
H286 C270 0.931 . S
H287 C275 0.930 . S
H288 C276 0.956 . S
H289 C276 0.961 . S
H290 C276 0.961 . S
H291 C277 0.958 . S
H292 C277 0.961 . S
H293 C277 0.960 . S
C294 C295 1.391 . S
C294 C296 1.394 . S
C294 H310 0.931 . S
C295 C294 1.391 . S
C295 C299 1.376 . S
C296 C294 1.394 . S
C296 C297 1.369 . S
C296 C300 1.531 . S
C297 C296 1.369 . S
C297 C298 1.402 1_554 S
C297 C305 1.503 1_554 S
C298 C297 1.402 1_556 S
C298 C299 1.387 1_556 S
C298 C301 1.525 . S
C299 C295 1.376 . S
C299 C298 1.387 1_554 S
C299 H311 0.924 1_554 S
C300 C296 1.531 . S
C300 H312 0.960 . S
C300 H313 0.962 . S
C300 H314 0.960 . S
C301 C298 1.525 . S
C301 H315 0.961 . S
C301 H316 0.961 . S
C301 H317 0.961 . S
C302 C303 1.370 . S
C302 C304 1.363 . S
C302 H318 0.931 . S
C303 C302 1.370 . S
C303 C307 1.408 1_556 S
C304 C302 1.363 . S
C304 C305 1.370 . S
C304 C308 1.524 . S
C305 C297 1.503 1_556 S
C305 C304 1.370 . S
C305 C306 1.403 1_556 S
C306 C305 1.403 1_554 S
C306 C307 1.404 . S
C306 C309 1.539 . S
C307 C303 1.408 1_554 S
C307 C306 1.404 . S
C307 H319 0.930 . S
C308 C304 1.524 . S
C308 H320 0.956 . S
C308 H321 0.961 . S
C308 H322 0.961 . S
C309 C306 1.539 . S
C309 H323 0.958 . S
C309 H324 0.961 . S
C309 H325 0.960 . S
H310 C294 0.931 . S
H311 C299 0.924 1_556 S
H312 C300 0.960 . S
H313 C300 0.962 . S
H314 C300 0.960 . S
H315 C301 0.961 . S
H316 C301 0.961 . S
H317 C301 0.961 . S
H318 C302 0.931 . S
H319 C307 0.930 . S
H320 C308 0.956 . S
H321 C308 0.961 . S
H322 C308 0.961 . S
H323 C309 0.958 . S
H324 C309 0.961 . S
H325 C309 0.960 . S
C326 C327 1.391 . S
C326 C328 1.394 . S
C326 H342 0.931 . S
C327 C326 1.391 . S
C327 C331 1.376 . S
C328 C326 1.394 . S
C328 C329 1.369 . S
C328 C332 1.531 1_556 S
C329 C328 1.369 . S
C329 C330 1.410 . S
C329 C337 1.503 . S
C330 C329 1.410 . S
C330 C331 1.392 . S
C330 C333 1.511 . S
C331 C327 1.376 . S
C331 C330 1.392 . S
C331 H343 0.929 . S
C332 C328 1.531 1_554 S
C332 H344 0.960 . S
C332 H345 0.962 . S
C332 H346 0.960 . S
C333 C330 1.511 . S
C333 H347 0.961 . S
C333 H348 0.961 . S
C333 H349 0.961 . S
C334 C335 1.370 . S
C334 C336 1.363 . S
C334 H350 0.931 . S
C335 C334 1.370 . S
C335 C339 1.408 1_554 S
C336 C334 1.363 . S
C336 C337 1.370 1_554 S
C336 C340 1.524 . S
C337 C329 1.503 . S
C337 C336 1.370 1_556 S
C337 C338 1.403 . S
C338 C337 1.403 . S
C338 C339 1.404 . S
C338 C341 1.539 . S
C339 C335 1.408 1_556 S
C339 C338 1.404 . S
C339 H351 0.930 . S
C340 C336 1.524 . S
C340 H352 0.956 . S
C340 H353 0.961 . S
C340 H354 0.961 . S
C341 C338 1.539 . S
C341 H355 0.958 . S
C341 H356 0.961 . S
C341 H357 0.960 . S
H342 C326 0.931 . S
H343 C331 0.929 . S
H344 C332 0.960 . S
H345 C332 0.962 . S
H346 C332 0.960 . S
H347 C333 0.961 . S
H348 C333 0.961 . S
H349 C333 0.961 . S
H350 C334 0.931 . S
H351 C339 0.930 . S
H352 C340 0.956 . S
H353 C340 0.961 . S
H354 C340 0.961 . S
H355 C341 0.958 . S
H356 C341 0.961 . S
H357 C341 0.960 . S
C358 C359 1.391 . S
C358 C360 1.394 1_556 S
C358 H374 0.933 . S
C359 C358 1.391 . S
C359 C363 1.376 . S
C360 C358 1.394 1_554 S
C360 C361 1.369 . S
C360 C364 1.531 . S
C361 C360 1.369 . S
C361 C362 1.410 1_554 S
C361 C369 1.503 . S
C362 C361 1.410 1_556 S
C362 C363 1.392 . S
C362 C365 1.511 . S
C363 C359 1.376 . S
C363 C362 1.392 . S
C363 H375 0.929 . S
C364 C360 1.531 . S
C364 H376 0.960 . S
C364 H377 0.962 . S
C364 H378 0.960 . S
C365 C362 1.511 . S
C365 H379 0.961 . S
C365 H380 0.961 . S
C365 H381 0.961 . S
C366 C367 1.370 1_556 S
C366 C368 1.363 . S
C366 H382 0.931 . S
C367 C366 1.370 1_554 S
C367 C371 1.408 . S
C368 C366 1.363 . S
C368 C369 1.370 1_556 S
C368 C372 1.524 . S
C369 C361 1.503 . S
C369 C368 1.370 1_554 S
C369 C370 1.403 . S
C370 C369 1.403 . S
C370 C371 1.404 . S
C370 C373 1.539 . S
C371 C367 1.408 . S
C371 C370 1.404 . S
C371 H383 0.930 . S
C372 C368 1.524 . S
C372 H384 0.956 . S
C372 H385 0.961 . S
C372 H386 0.961 . S
C373 C370 1.539 . S
C373 H387 0.958 . S
C373 H388 0.961 . S
C373 H389 0.960 . S
H374 C358 0.933 . S
H375 C363 0.929 . S
H376 C364 0.960 . S
H377 C364 0.962 . S
H378 C364 0.960 . S
H379 C365 0.961 . S
H380 C365 0.961 . S
H381 C365 0.961 . S
H382 C366 0.931 . S
H383 C371 0.930 . S
H384 C372 0.956 . S
H385 C372 0.961 . S
H386 C372 0.961 . S
H387 C373 0.958 . S
H388 C373 0.961 . S
H389 C373 0.960 . S
C390 C391 1.391 . S
C390 C392 1.394 . S
C390 H406 0.931 . S
C391 C390 1.391 . S
C391 C395 1.376 . S
C392 C390 1.394 . S
C392 C393 1.369 . S
C392 C396 1.531 . S
C393 C392 1.369 . S
C393 C394 1.410 . S
C393 C401 1.503 . S
C394 C393 1.410 . S
C394 C395 1.392 . S
C394 C397 1.511 . S
C395 C391 1.376 . S
C395 C394 1.392 . S
C395 H407 0.929 . S
C396 C392 1.531 . S
C396 H408 0.960 . S
C396 H409 0.962 . S
C396 H410 0.960 . S
C397 C394 1.511 . S
C397 H411 0.961 . S
C397 H412 0.961 . S
C397 H413 0.961 . S
C398 C399 1.370 . S
C398 C400 1.363 . S
C398 H414 0.931 . S
C399 C398 1.370 . S
C399 C403 1.408 . S
C400 C398 1.363 . S
C400 C401 1.370 1_455 S
C400 C404 1.524 . S
C401 C393 1.503 . S
C401 C400 1.370 1_655 S
C401 C402 1.403 . S
C402 C401 1.403 . S
C402 C403 1.404 1_655 S
C402 C405 1.539 . S
C403 C399 1.408 . S
C403 C402 1.404 1_455 S
C403 H415 0.930 . S
C404 C400 1.524 . S
C404 H416 0.956 1_455 S
C404 H417 0.961 1_455 S
C404 H418 0.961 . S
C405 C402 1.539 . S
C405 H419 0.958 . S
C405 H420 0.961 . S
C405 H421 0.960 . S
H406 C390 0.931 . S
H407 C395 0.929 . S
H408 C396 0.960 . S
H409 C396 0.962 . S
H410 C396 0.960 . S
H411 C397 0.961 . S
H412 C397 0.961 . S
H413 C397 0.961 . S
H414 C398 0.931 . S
H415 C403 0.930 . S
H416 C404 0.956 1_655 S
H417 C404 0.961 1_655 S
H418 C404 0.961 . S
H419 C405 0.958 . S
H420 C405 0.961 . S
H421 C405 0.960 . S
C422 C423 1.391 . S
C422 C424 1.394 . S
C422 H438 0.931 . S
C423 C422 1.391 . S
C423 C427 1.376 . S
C424 C422 1.394 . S
C424 C425 1.369 . S
C424 C428 1.531 . S
C425 C424 1.369 . S
C425 C426 1.410 . S
C425 C433 1.503 . S
C426 C425 1.410 . S
C426 C427 1.392 . S
C426 C429 1.511 . S
C427 C423 1.376 . S
C427 C426 1.392 . S
C427 H439 0.929 . S
C428 C424 1.531 . S
C428 H440 0.960 . S
C428 H441 0.962 . S
C428 H442 0.960 . S
C429 C426 1.511 . S
C429 H443 0.961 . S
C429 H444 0.961 . S
C429 H445 0.961 . S
C430 C431 1.370 . S
C430 C432 1.363 . S
C430 H446 0.931 . S
C431 C430 1.370 . S
C431 C435 1.408 . S
C432 C430 1.363 . S
C432 C433 1.370 . S
C432 C436 1.524 . S
C433 C425 1.503 . S
C433 C432 1.370 . S
C433 C434 1.403 . S
C434 C433 1.403 . S
C434 C435 1.404 . S
C434 C437 1.539 . S
C435 C431 1.408 . S
C435 C434 1.404 . S
C435 H447 0.930 . S
C436 C432 1.524 . S
C436 H448 0.956 . S
C436 H449 0.961 . S
C436 H450 0.961 . S
C437 C434 1.539 . S
C437 H451 0.958 . S
C437 H452 0.961 . S
C437 H453 0.960 . S
H438 C422 0.931 . S
H439 C427 0.929 . S
H440 C428 0.960 . S
H441 C428 0.962 . S
H442 C428 0.960 . S
H443 C429 0.961 . S
H444 C429 0.961 . S
H445 C429 0.961 . S
H446 C430 0.931 . S
H447 C435 0.930 . S
H448 C436 0.956 . S
H449 C436 0.961 . S
H450 C436 0.961 . S
H451 C437 0.958 . S
H452 C437 0.961 . S
H453 C437 0.960 . S
C454 C455 1.391 . S
C454 C456 1.394 . S
C454 H470 0.931 1_655 S
C455 C454 1.391 . S
C455 C459 1.376 . S
C456 C454 1.394 . S
C456 C457 1.369 . S
C456 C460 1.531 . S
C457 C456 1.369 . S
C457 C458 1.410 . S
C457 C465 1.503 . S
C458 C457 1.410 . S
C458 C459 1.392 . S
C458 C461 1.511 . S
C459 C455 1.376 . S
C459 C458 1.392 . S
C459 H471 0.929 . S
C460 C456 1.531 . S
C460 H472 0.960 . S
C460 H473 0.962 . S
C460 H474 0.960 . S
C461 C458 1.511 . S
C461 H475 0.961 . S
C461 H476 0.961 . S
C461 H477 0.961 . S
C462 C463 1.370 . S
C462 C464 1.363 1_565 S
C462 H478 0.931 . S
C463 C462 1.370 . S
C463 C467 1.408 . S
C464 C462 1.363 1_545 S
C464 C465 1.370 . S
C464 C468 1.524 . S
C465 C457 1.503 . S
C465 C464 1.370 . S
C465 C466 1.403 . S
C466 C465 1.403 . S
C466 C467 1.404 1_545 S
C466 C469 1.539 . S
C467 C463 1.408 . S
C467 C466 1.404 1_565 S
C467 H479 0.930 . S
C468 C464 1.524 . S
C468 H480 0.956 . S
C468 H481 0.961 . S
C468 H482 0.961 . S
C469 C466 1.539 . S
C469 H483 0.958 . S
C469 H484 0.961 . S
C469 H485 0.960 . S
H470 C454 0.931 1_455 S
H471 C459 0.929 . S
H472 C460 0.960 . S
H473 C460 0.962 . S
H474 C460 0.960 . S
H475 C461 0.961 . S
H476 C461 0.961 . S
H477 C461 0.961 . S
H478 C462 0.931 . S
H479 C467 0.930 . S
H480 C468 0.956 . S
H481 C468 0.961 . S
H482 C468 0.961 . S
H483 C469 0.958 . S
H484 C469 0.961 . S
H485 C469 0.960 . S
C486 C487 1.391 . S
C486 C488 1.394 . S
C486 H502 0.931 . S
C487 C486 1.391 . S
C487 C491 1.376 . S
C488 C486 1.394 . S
C488 C489 1.369 . S
C488 C492 1.531 . S
C489 C488 1.369 . S
C489 C490 1.410 . S
C489 C497 1.503 . S
C490 C489 1.410 . S
C490 C491 1.392 . S
C490 C493 1.511 . S
C491 C487 1.376 . S
C491 C490 1.392 . S
C491 H503 0.929 . S
C492 C488 1.531 . S
C492 H504 0.960 . S
C492 H505 0.962 . S
C492 H506 0.960 . S
C493 C490 1.511 . S
C493 H507 0.961 . S
C493 H508 0.961 . S
C493 H509 0.961 . S
C494 C495 1.370 . S
C494 C496 1.363 . S
C494 H510 0.931 . S
C495 C494 1.370 . S
C495 C499 1.408 . S
C496 C494 1.363 . S
C496 C497 1.370 . S
C496 C500 1.524 . S
C497 C489 1.503 . S
C497 C496 1.370 . S
C497 C498 1.403 . S
C498 C497 1.403 . S
C498 C499 1.404 . S
C498 C501 1.539 . S
C499 C495 1.408 . S
C499 C498 1.404 . S
C499 H511 0.930 . S
C500 C496 1.524 . S
C500 H512 0.956 . S
C500 H513 0.961 . S
C500 H514 0.961 . S
C501 C498 1.539 . S
C501 H515 0.958 . S
C501 H516 0.961 . S
C501 H517 0.960 . S
H502 C486 0.931 . S
H503 C491 0.929 . S
H504 C492 0.960 . S
H505 C492 0.962 . S
H506 C492 0.960 . S
H507 C493 0.961 . S
H508 C493 0.961 . S
H509 C493 0.961 . S
H510 C494 0.931 . S
H511 C499 0.930 . S
H512 C500 0.956 . S
H513 C500 0.961 . S
H514 C500 0.961 . S
H515 C501 0.958 . S
H516 C501 0.961 . S
H517 C501 0.960 . S
C518 C519 1.391 . S
C518 C520 1.394 . S
C518 H534 0.931 . S
C519 C518 1.391 . S
C519 C523 1.376 . S
C520 C518 1.394 . S
C520 C521 1.369 . S
C520 C524 1.531 . S
C521 C520 1.369 . S
C521 C522 1.410 . S
C521 C529 1.503 . S
C522 C521 1.410 . S
C522 C523 1.392 . S
C522 C525 1.511 . S
C523 C519 1.376 . S
C523 C522 1.392 . S
C523 H535 0.929 . S
C524 C520 1.531 . S
C524 H536 0.960 . S
C524 H537 0.962 . S
C524 H538 0.960 . S
C525 C522 1.511 . S
C525 H539 0.961 . S
C525 H540 0.961 . S
C525 H541 0.961 . S
C526 C527 1.370 . S
C526 C528 1.363 . S
C526 H542 0.931 . S
C527 C526 1.370 . S
C527 C531 1.408 . S
C528 C526 1.363 . S
C528 C529 1.370 . S
C528 C532 1.524 . S
C529 C521 1.503 . S
C529 C528 1.370 . S
C529 C530 1.403 . S
C530 C529 1.403 . S
C530 C531 1.404 . S
C530 C533 1.539 . S
C531 C527 1.408 . S
C531 C530 1.404 . S
C531 H543 0.930 . S
C532 C528 1.524 . S
C532 H544 0.956 . S
C532 H545 0.961 . S
C532 H546 0.961 . S
C533 C530 1.539 . S
C533 H547 0.958 . S
C533 H548 0.961 . S
C533 H549 0.960 . S
H534 C518 0.931 . S
H535 C523 0.929 . S
H536 C524 0.960 . S
H537 C524 0.962 . S
H538 C524 0.960 . S
H539 C525 0.961 . S
H540 C525 0.961 . S
H541 C525 0.961 . S
H542 C526 0.931 . S
H543 C531 0.930 . S
H544 C532 0.956 . S
H545 C532 0.961 . S
H546 C532 0.961 . S
H547 C533 0.958 . S
H548 C533 0.961 . S
H549 C533 0.960 . S
C550 C551 1.391 . S
C550 C552 1.394 . S
C550 H566 0.931 . S
C551 C550 1.391 . S
C551 C555 1.376 . S
C552 C550 1.394 . S
C552 C553 1.369 . S
C552 C556 1.531 . S
C553 C552 1.369 . S
C553 C554 1.410 . S
C553 C561 1.503 . S
C554 C553 1.410 . S
C554 C555 1.392 . S
C554 C557 1.511 . S
C555 C551 1.376 . S
C555 C554 1.392 . S
C555 H567 0.929 . S
C556 C552 1.531 . S
C556 H568 0.960 . S
C556 H569 0.962 . S
C556 H570 0.960 . S
C557 C554 1.511 . S
C557 H571 0.961 . S
C557 H572 0.961 . S
C557 H573 0.961 . S
C558 C559 1.370 . S
C558 C560 1.363 . S
C558 H574 0.931 . S
C559 C558 1.370 . S
C559 C563 1.408 . S
C560 C558 1.363 . S
C560 C561 1.370 . S
C560 C564 1.524 . S
C561 C553 1.503 . S
C561 C560 1.370 . S
C561 C562 1.403 . S
C562 C561 1.403 . S
C562 C563 1.404 . S
C562 C565 1.539 . S
C563 C559 1.408 . S
C563 C562 1.404 . S
C563 H575 0.930 . S
C564 C560 1.524 . S
C564 H576 0.956 . S
C564 H577 0.961 . S
C564 H578 0.961 . S
C565 C562 1.539 . S
C565 H579 0.958 . S
C565 H580 0.961 . S
C565 H581 0.960 . S
H566 C550 0.931 . S
H567 C555 0.929 . S
H568 C556 0.960 . S
H569 C556 0.962 . S
H570 C556 0.960 . S
H571 C557 0.961 . S
H572 C557 0.961 . S
H573 C557 0.961 . S
H574 C558 0.931 . S
H575 C563 0.930 . S
H576 C564 0.956 . S
H577 C564 0.961 . S
H578 C564 0.961 . S
H579 C565 0.958 . S
H580 C565 0.961 . S
H581 C565 0.960 . S
C582 C583 1.391 . S
C582 C584 1.394 . S
C582 H598 0.931 . S
C583 C582 1.391 . S
C583 C587 1.376 . S
C584 C582 1.394 . S
C584 C585 1.369 . S
C584 C588 1.531 . S
C585 C584 1.369 . S
C585 C586 1.410 . S
C585 C593 1.503 . S
C586 C585 1.410 . S
C586 C587 1.392 . S
C586 C589 1.511 . S
C587 C583 1.376 . S
C587 C586 1.392 . S
C587 H599 0.929 . S
C588 C584 1.531 . S
C588 H600 0.960 . S
C588 H601 0.962 . S
C588 H602 0.960 . S
C589 C586 1.511 . S
C589 H603 0.961 . S
C589 H604 0.961 . S
C589 H605 0.961 . S
C590 C591 1.370 . S
C590 C592 1.363 . S
C590 H606 0.931 . S
C591 C590 1.370 . S
C591 C595 1.408 . S
C592 C590 1.363 . S
C592 C593 1.370 . S
C592 C596 1.524 . S
C593 C585 1.503 . S
C593 C592 1.370 . S
C593 C594 1.403 . S
C594 C593 1.403 . S
C594 C595 1.404 . S
C594 C597 1.539 . S
C595 C591 1.408 . S
C595 C594 1.404 . S
C595 H607 0.930 . S
C596 C592 1.524 . S
C596 H608 0.956 . S
C596 H609 0.961 . S
C596 H610 0.961 . S
C597 C594 1.539 . S
C597 H611 0.958 . S
C597 H612 0.961 . S
C597 H613 0.960 . S
H598 C582 0.931 . S
H599 C587 0.929 . S
H600 C588 0.960 . S
H601 C588 0.962 . S
H602 C588 0.960 . S
H603 C589 0.961 . S
H604 C589 0.961 . S
H605 C589 0.961 . S
H606 C590 0.931 . S
H607 C595 0.930 . S
H608 C596 0.956 . S
H609 C596 0.961 . S
H610 C596 0.961 . S
H611 C597 0.958 . S
H612 C597 0.961 . S
H613 C597 0.960 . S
C614 C615 1.391 . S
C614 C616 1.394 . S
C614 H630 0.931 . S
C615 C614 1.391 . S
C615 C619 1.376 . S
C616 C614 1.394 . S
C616 C617 1.369 . S
C616 C620 1.531 . S
C617 C616 1.369 . S
C617 C618 1.410 . S
C617 C625 1.503 . S
C618 C617 1.410 . S
C618 C619 1.392 . S
C618 C621 1.511 . S
C619 C615 1.376 . S
C619 C618 1.392 . S
C619 H631 0.929 . S
C620 C616 1.531 . S
C620 H632 0.960 . S
C620 H633 0.962 . S
C620 H634 0.960 . S
C621 C618 1.511 . S
C621 H635 0.961 . S
C621 H636 0.961 . S
C621 H637 0.961 . S
C622 C623 1.370 . S
C622 C624 1.363 . S
C622 H638 0.931 . S
C623 C622 1.370 . S
C623 C627 1.408 . S
C624 C622 1.363 . S
C624 C625 1.370 . S
C624 C628 1.524 . S
C625 C617 1.503 . S
C625 C624 1.370 . S
C625 C626 1.403 . S
C626 C625 1.403 . S
C626 C627 1.404 . S
C626 C629 1.539 . S
C627 C623 1.408 . S
C627 C626 1.404 . S
C627 H639 0.930 . S
C628 C624 1.524 . S
C628 H640 0.956 . S
C628 H641 0.961 . S
C628 H642 0.961 . S
C629 C626 1.539 . S
C629 H643 0.958 . S
C629 H644 0.961 . S
C629 H645 0.960 . S
H630 C614 0.931 . S
H631 C619 0.929 . S
H632 C620 0.960 . S
H633 C620 0.962 . S
H634 C620 0.960 . S
H635 C621 0.961 . S
H636 C621 0.961 . S
H637 C621 0.961 . S
H638 C622 0.931 . S
H639 C627 0.930 . S
H640 C628 0.956 . S
H641 C628 0.961 . S
H642 C628 0.961 . S
H643 C629 0.958 . S
H644 C629 0.961 . S
H645 C629 0.960 . S
C646 C647 1.391 . S
C646 C648 1.394 . S
C646 H662 0.931 . S
C647 C646 1.391 . S
C647 C651 1.376 . S
C648 C646 1.394 . S
C648 C649 1.369 . S
C648 C652 1.531 . S
C649 C648 1.369 . S
C649 C650 1.410 . S
C649 C657 1.503 . S
C650 C649 1.410 . S
C650 C651 1.392 . S
C650 C653 1.511 . S
C651 C647 1.376 . S
C651 C650 1.392 . S
C651 H663 0.929 . S
C652 C648 1.531 . S
C652 H664 0.960 . S
C652 H665 0.962 . S
C652 H666 0.960 . S
C653 C650 1.511 . S
C653 H667 0.961 . S
C653 H668 0.961 . S
C653 H669 0.961 . S
C654 C655 1.370 . S
C654 C656 1.363 . S
C654 H670 0.931 . S
C655 C654 1.370 . S
C655 C659 1.408 . S
C656 C654 1.363 . S
C656 C657 1.370 . S
C656 C660 1.524 . S
C657 C649 1.503 . S
C657 C656 1.370 . S
C657 C658 1.403 . S
C658 C657 1.403 . S
C658 C659 1.404 . S
C658 C661 1.539 . S
C659 C655 1.408 . S
C659 C658 1.404 . S
C659 H671 0.930 . S
C660 C656 1.524 . S
C660 H672 0.956 . S
C660 H673 0.961 . S
C660 H674 0.961 . S
C661 C658 1.539 . S
C661 H675 0.958 . S
C661 H676 0.961 . S
C661 H677 0.960 . S
H662 C646 0.931 . S
H663 C651 0.929 . S
H664 C652 0.960 . S
H665 C652 0.962 . S
H666 C652 0.960 . S
H667 C653 0.961 . S
H668 C653 0.961 . S
H669 C653 0.961 . S
H670 C654 0.931 . S
H671 C659 0.930 . S
H672 C660 0.956 . S
H673 C660 0.961 . S
H674 C660 0.961 . S
H675 C661 0.958 . S
H676 C661 0.961 . S
H677 C661 0.960 . S
C678 C679 1.391 . S
C678 C680 1.394 . S
C678 H694 0.931 . S
C679 C678 1.391 . S
C679 C683 1.376 . S
C680 C678 1.394 . S
C680 C681 1.369 . S
C680 C684 1.531 . S
C681 C680 1.369 . S
C681 C682 1.410 . S
C681 C689 1.503 . S
C682 C681 1.410 . S
C682 C683 1.392 . S
C682 C685 1.511 . S
C683 C679 1.376 . S
C683 C682 1.392 . S
C683 H695 0.929 . S
C684 C680 1.531 . S
C684 H696 0.960 . S
C684 H697 0.962 . S
C684 H698 0.960 . S
C685 C682 1.511 . S
C685 H699 0.961 . S
C685 H700 0.961 . S
C685 H701 0.961 . S
C686 C687 1.370 . S
C686 C688 1.363 1_545 S
C686 H702 0.931 . S
C687 C686 1.370 . S
C687 C691 1.408 . S
C688 C686 1.363 1_565 S
C688 C689 1.370 . S
C688 C692 1.524 . S
C689 C681 1.503 . S
C689 C688 1.370 . S
C689 C690 1.403 1_565 S
C690 C689 1.403 1_545 S
C690 C691 1.404 . S
C690 C693 1.539 . S
C691 C687 1.408 . S
C691 C690 1.404 . S
C691 H703 0.930 . S
C692 C688 1.524 . S
C692 H704 0.956 . S
C692 H705 0.961 . S
C692 H706 0.961 . S
C693 C690 1.539 . S
C693 H707 0.958 . S
C693 H708 0.961 . S
C693 H709 0.960 1_545 S
H694 C678 0.931 . S
H695 C683 0.929 . S
H696 C684 0.960 . S
H697 C684 0.962 . S
H698 C684 0.960 . S
H699 C685 0.961 . S
H700 C685 0.961 . S
H701 C685 0.961 . S
H702 C686 0.931 . S
H703 C691 0.930 . S
H704 C692 0.956 . S
H705 C692 0.961 . S
H706 C692 0.961 . S
H707 C693 0.958 . S
H708 C693 0.961 . S
H709 C693 0.960 1_565 S
C710 C711 1.391 . S
C710 C712 1.394 1_655 S
C710 H726 0.931 . S
C711 C710 1.391 . S
C711 C715 1.376 . S
C712 C710 1.394 1_455 S
C712 C713 1.369 . S
C712 C716 1.531 . S
C713 C712 1.369 . S
C713 C714 1.410 . S
C713 C721 1.503 . S
C714 C713 1.410 . S
C714 C715 1.392 1_455 S
C714 C717 1.511 . S
C715 C711 1.376 . S
C715 C714 1.392 1_655 S
C715 H727 0.929 . S
C716 C712 1.531 . S
C716 H728 0.960 . S
C716 H729 0.962 . S
C716 H730 0.960 1_455 S
C717 C714 1.511 . S
C717 H731 0.961 . S
C717 H732 0.961 . S
C717 H733 0.961 . S
C718 C719 1.370 . S
C718 C720 1.363 . S
C718 H734 0.931 1_565 S
C719 C718 1.370 . S
C719 C723 1.408 . S
C720 C718 1.363 . S
C720 C721 1.370 . S
C720 C724 1.524 . S
C721 C713 1.503 . S
C721 C720 1.370 . S
C721 C722 1.403 . S
C722 C721 1.403 . S
C722 C723 1.404 . S
C722 C725 1.539 . S
C723 C719 1.408 . S
C723 C722 1.404 . S
C723 H735 0.930 . S
C724 C720 1.524 . S
C724 H736 0.956 . S
C724 H737 0.961 . S
C724 H738 0.961 . S
C725 C722 1.539 . S
C725 H739 0.958 . S
C725 H740 0.961 . S
C725 H741 0.960 . S
H726 C710 0.931 . S
H727 C715 0.929 . S
H728 C716 0.960 . S
H729 C716 0.962 . S
H730 C716 0.960 1_655 S
H731 C717 0.961 . S
H732 C717 0.961 . S
H733 C717 0.961 . S
H734 C718 0.931 1_545 S
H735 C723 0.930 . S
H736 C724 0.956 . S
H737 C724 0.961 . S
H738 C724 0.961 . S
H739 C725 0.958 . S
H740 C725 0.961 . S
H741 C725 0.960 . S
C742 C743 1.391 . S
C742 C744 1.394 . S
C742 H758 0.931 . S
C743 C742 1.391 . S
C743 C747 1.376 . S
C744 C742 1.394 . S
C744 C745 1.369 . S
C744 C748 1.531 . S
C745 C744 1.369 . S
C745 C746 1.410 . S
C745 C753 1.503 . S
C746 C745 1.410 . S
C746 C747 1.392 . S
C746 C749 1.511 . S
C747 C743 1.376 . S
C747 C746 1.392 . S
C747 H759 0.929 . S
C748 C744 1.531 . S
C748 H760 0.960 . S
C748 H761 0.962 . S
C748 H762 0.960 . S
C749 C746 1.511 . S
C749 H763 0.961 . S
C749 H764 0.961 . S
C749 H765 0.961 . S
C750 C751 1.370 . S
C750 C752 1.363 . S
C750 H766 0.931 . S
C751 C750 1.370 . S
C751 C755 1.408 . S
C752 C750 1.363 . S
C752 C753 1.370 . S
C752 C756 1.524 . S
C753 C745 1.503 . S
C753 C752 1.370 . S
C753 C754 1.403 . S
C754 C753 1.403 . S
C754 C755 1.404 . S
C754 C757 1.539 . S
C755 C751 1.408 . S
C755 C754 1.404 . S
C755 H767 0.930 1_455 S
C756 C752 1.524 . S
C756 H768 0.956 . S
C756 H769 0.961 . S
C756 H770 0.961 . S
C757 C754 1.539 . S
C757 H771 0.958 . S
C757 H772 0.961 . S
C757 H773 0.960 . S
H758 C742 0.931 . S
H759 C747 0.929 . S
H760 C748 0.960 . S
H761 C748 0.962 . S
H762 C748 0.960 . S
H763 C749 0.961 . S
H764 C749 0.961 . S
H765 C749 0.961 . S
H766 C750 0.931 . S
H767 C755 0.930 1_655 S
H768 C756 0.956 . S
H769 C756 0.961 . S
H770 C756 0.961 . S
H771 C757 0.958 . S
H772 C757 0.961 . S
H773 C757 0.960 . S
C774 C775 1.391 . S
C774 C776 1.394 . S
C774 H790 0.931 . S
C775 C774 1.391 . S
C775 C779 1.376 . S
C776 C774 1.394 . S
C776 C777 1.369 . S
C776 C780 1.531 . S
C777 C776 1.369 . S
C777 C778 1.410 . S
C777 C785 1.503 . S
C778 C777 1.410 . S
C778 C779 1.392 . S
C778 C781 1.511 1_455 S
C779 C775 1.376 . S
C779 C778 1.392 . S
C779 H791 0.929 . S
C780 C776 1.531 . S
C780 H792 0.960 . S
C780 H793 0.962 . S
C780 H794 0.960 . S
C781 C778 1.511 1_655 S
C781 H795 0.961 . S
C781 H796 0.961 1_655 S
C781 H797 0.961 . S
C782 C783 1.370 . S
C782 C784 1.363 . S
C782 H798 0.931 . S
C783 C782 1.370 . S
C783 C787 1.408 . S
C784 C782 1.363 . S
C784 C785 1.370 . S
C784 C788 1.524 . S
C785 C777 1.503 . S
C785 C784 1.370 . S
C785 C786 1.403 . S
C786 C785 1.403 . S
C786 C787 1.404 . S
C786 C789 1.539 1_455 S
C787 C783 1.408 . S
C787 C786 1.404 . S
C787 H799 0.930 1_455 S
C788 C784 1.524 . S
C788 H800 0.956 . S
C788 H801 0.961 . S
C788 H802 0.961 . S
C789 C786 1.539 1_655 S
C789 H803 0.958 . S
C789 H804 0.961 . S
C789 H805 0.960 . S
H790 C774 0.931 . S
H791 C779 0.929 . S
H792 C780 0.960 . S
H793 C780 0.962 . S
H794 C780 0.960 . S
H795 C781 0.961 . S
H796 C781 0.961 1_455 S
H797 C781 0.961 . S
H798 C782 0.931 . S
H799 C787 0.930 1_655 S
H800 C788 0.956 . S
H801 C788 0.961 . S
H802 C788 0.961 . S
H803 C789 0.958 . S
H804 C789 0.961 . S
H805 C789 0.960 . S
C806 C807 1.391 . S
C806 C808 1.394 . S
C806 H822 0.931 . S
C807 C806 1.391 . S
C807 C811 1.376 . S
C808 C806 1.394 . S
C808 C809 1.369 . S
C808 C812 1.531 . S
C809 C808 1.369 . S
C809 C810 1.410 . S
C809 C817 1.503 . S
C810 C809 1.410 . S
C810 C811 1.392 . S
C810 C813 1.511 . S
C811 C807 1.376 . S
C811 C810 1.392 . S
C811 H823 0.929 . S
C812 C808 1.531 . S
C812 H824 0.960 . S
C812 H825 0.962 . S
C812 H826 0.960 . S
C813 C810 1.511 . S
C813 H827 0.961 . S
C813 H828 0.961 . S
C813 H829 0.961 . S
C814 C815 1.370 . S
C814 C816 1.363 . S
C814 H830 0.931 . S
C815 C814 1.370 . S
C815 C819 1.408 . S
C816 C814 1.363 . S
C816 C817 1.370 . S
C816 C820 1.524 . S
C817 C809 1.503 . S
C817 C816 1.370 . S
C817 C818 1.403 . S
C818 C817 1.403 . S
C818 C819 1.404 . S
C818 C821 1.539 . S
C819 C815 1.408 . S
C819 C818 1.404 . S
C819 H831 0.930 . S
C820 C816 1.524 . S
C820 H832 0.956 . S
C820 H833 0.961 . S
C820 H834 0.961 . S
C821 C818 1.539 . S
C821 H835 0.958 . S
C821 H836 0.961 . S
C821 H837 0.960 . S
H822 C806 0.931 . S
H823 C811 0.929 . S
H824 C812 0.960 . S
H825 C812 0.962 . S
H826 C812 0.960 . S
H827 C813 0.961 . S
H828 C813 0.961 . S
H829 C813 0.961 . S
H830 C814 0.931 . S
H831 C819 0.930 . S
H832 C820 0.956 . S
H833 C820 0.961 . S
H834 C820 0.961 . S
H835 C821 0.958 . S
H836 C821 0.961 . S
H837 C821 0.960 . S
C838 C839 1.391 . S
C838 C840 1.394 . S
C838 H854 0.931 . S
C839 C838 1.391 . S
C839 C843 1.376 . S
C840 C838 1.394 . S
C840 C841 1.369 . S
C840 C844 1.531 . S
C841 C840 1.369 . S
C841 C842 1.410 . S
C841 C849 1.503 . S
C842 C841 1.410 . S
C842 C843 1.392 . S
C842 C845 1.511 . S
C843 C839 1.376 . S
C843 C842 1.392 . S
C843 H855 0.929 1_565 S
C844 C840 1.531 . S
C844 H856 0.960 . S
C844 H857 0.962 . S
C844 H858 0.960 . S
C845 C842 1.511 . S
C845 H859 0.961 1_565 S
C845 H860 0.961 1_565 S
C845 H861 0.961 . S
C846 C847 1.370 . S
C846 C848 1.363 . S
C846 H862 0.931 . S
C847 C846 1.370 . S
C847 C851 1.408 . S
C848 C846 1.363 . S
C848 C849 1.370 . S
C848 C852 1.524 1_565 S
C849 C841 1.503 . S
C849 C848 1.370 . S
C849 C850 1.403 . S
C850 C849 1.403 . S
C850 C851 1.404 . S
C850 C853 1.539 . S
C851 C847 1.408 . S
C851 C850 1.404 . S
C851 H863 0.930 . S
C852 C848 1.524 1_545 S
C852 H864 0.956 1_545 S
C852 H865 0.961 . S
C852 H866 0.961 . S
C853 C850 1.539 . S
C853 H867 0.958 . S
C853 H868 0.961 . S
C853 H869 0.960 . S
H854 C838 0.931 . S
H855 C843 0.929 1_545 S
H856 C844 0.960 . S
H857 C844 0.962 . S
H858 C844 0.960 . S
H859 C845 0.961 1_545 S
H860 C845 0.961 1_545 S
H861 C845 0.961 . S
H862 C846 0.931 . S
H863 C851 0.930 . S
H864 C852 0.956 1_565 S
H865 C852 0.961 . S
H866 C852 0.961 . S
H867 C853 0.958 . S
H868 C853 0.961 . S
H869 C853 0.960 . S
C870 C871 1.391 . S
C870 C872 1.394 . S
C870 H886 0.931 . S
C871 C870 1.391 . S
C871 C875 1.376 . S
C872 C870 1.394 . S
C872 C873 1.369 . S
C872 C876 1.531 . S
C873 C872 1.369 . S
C873 C874 1.410 . S
C873 C881 1.503 . S
C874 C873 1.410 . S
C874 C875 1.392 . S
C874 C877 1.511 . S
C875 C871 1.376 . S
C875 C874 1.392 . S
C875 H887 0.929 . S
C876 C872 1.531 . S
C876 H888 0.960 . S
C876 H889 0.962 . S
C876 H890 0.960 . S
C877 C874 1.511 . S
C877 H891 0.961 . S
C877 H892 0.961 . S
C877 H893 0.961 . S
C878 C879 1.370 . S
C878 C880 1.363 . S
C878 H894 0.931 . S
C879 C878 1.370 . S
C879 C883 1.408 . S
C880 C878 1.363 . S
C880 C881 1.370 . S
C880 C884 1.524 1_545 S
C881 C873 1.503 . S
C881 C880 1.370 . S
C881 C882 1.403 . S
C882 C881 1.403 . S
C882 C883 1.404 . S
C882 C885 1.539 . S
C883 C879 1.408 . S
C883 C882 1.404 . S
C883 H895 0.930 . S
C884 C880 1.524 1_565 S
C884 H896 0.956 . S
C884 H897 0.961 . S
C884 H898 0.961 . S
C885 C882 1.539 . S
C885 H899 0.958 . S
C885 H900 0.961 . S
C885 H901 0.960 . S
H886 C870 0.931 . S
H887 C875 0.929 . S
H888 C876 0.960 . S
H889 C876 0.962 . S
H890 C876 0.960 . S
H891 C877 0.961 . S
H892 C877 0.961 . S
H893 C877 0.961 . S
H894 C878 0.931 . S
H895 C883 0.930 . S
H896 C884 0.956 . S
H897 C884 0.961 . S
H898 C884 0.961 . S
H899 C885 0.958 . S
H900 C885 0.961 . S
H901 C885 0.960 . S
C902 C903 1.391 . S
C902 C904 1.394 . S
C902 H918 0.931 1_655 S
C903 C902 1.391 . S
C903 C907 1.376 . S
C904 C902 1.394 . S
C904 C905 1.369 . S
C904 C908 1.531 1_655 S
C905 C904 1.369 . S
C905 C906 1.410 . S
C905 C913 1.503 . S
C906 C905 1.410 . S
C906 C907 1.392 . S
C906 C909 1.511 . S
C907 C903 1.376 . S
C907 C906 1.392 . S
C907 H919 0.929 . S
C908 C904 1.531 1_455 S
C908 H920 0.960 . S
C908 H921 0.980 . S
C908 H922 0.960 . S
C909 C906 1.511 . S
C909 H923 0.961 . S
C909 H924 0.961 . S
C909 H925 0.961 . S
C910 C911 1.370 . S
C910 C912 1.363 . S
C910 H926 0.931 . S
C911 C910 1.370 . S
C911 C915 1.408 . S
C912 C910 1.363 . S
C912 C913 1.370 . S
C912 C916 1.524 . S
C913 C905 1.503 . S
C913 C912 1.370 . S
C913 C914 1.403 . S
C914 C913 1.403 . S
C914 C915 1.404 . S
C914 C917 1.539 1_655 S
C915 C911 1.408 . S
C915 C914 1.404 . S
C915 H927 0.930 . S
C916 C912 1.524 . S
C916 H928 0.956 . S
C916 H929 0.961 . S
C916 H930 0.961 . S
C917 C914 1.539 1_455 S
C917 H931 0.958 . S
C917 H932 0.961 . S
C917 H933 0.960 . S
H918 C902 0.931 1_455 S
H919 C907 0.929 . S
H920 C908 0.960 . S
H921 C908 0.980 . S
H922 C908 0.960 . S
H923 C909 0.961 . S
H924 C909 0.961 . S
H925 C909 0.961 . S
H926 C910 0.931 . S
H927 C915 0.930 . S
H928 C916 0.956 . S
H929 C916 0.961 . S
H930 C916 0.961 . S
H931 C917 0.958 . S
H932 C917 0.961 . S
H933 C917 0.960 . S
C934 C935 1.391 . S
C934 C936 1.394 . S
C934 H950 0.931 . S
C935 C934 1.391 . S
C935 C939 1.376 . S
C936 C934 1.394 . S
C936 C937 1.369 . S
C936 C940 1.531 . S
C937 C936 1.369 . S
C937 C938 1.410 . S
C937 C945 1.503 . S
C938 C937 1.410 . S
C938 C939 1.392 . S
C938 C941 1.511 . S
C939 C935 1.376 . S
C939 C938 1.392 . S
C939 H951 0.929 . S
C940 C936 1.531 . S
C940 H952 0.960 . S
C940 H953 0.962 . S
C940 H954 0.960 . S
C941 C938 1.511 . S
C941 H955 0.961 . S
C941 H956 0.961 . S
C941 H957 0.961 . S
C942 C943 1.370 . S
C942 C944 1.363 . S
C942 H958 0.931 . S
C943 C942 1.370 . S
C943 C947 1.408 . S
C944 C942 1.363 . S
C944 C945 1.370 . S
C944 C948 1.524 . S
C945 C937 1.503 . S
C945 C944 1.370 . S
C945 C946 1.403 . S
C946 C945 1.403 . S
C946 C947 1.404 . S
C946 C949 1.539 . S
C947 C943 1.408 . S
C947 C946 1.404 . S
C947 H959 0.930 . S
C948 C944 1.524 . S
C948 H960 0.956 . S
C948 H961 0.961 . S
C948 H962 0.961 . S
C949 C946 1.539 . S
C949 H963 0.958 . S
C949 H964 0.961 . S
C949 H965 0.960 . S
H950 C934 0.931 . S
H951 C939 0.929 . S
H952 C940 0.960 . S
H953 C940 0.962 . S
H954 C940 0.960 . S
H955 C941 0.961 . S
H956 C941 0.961 . S
H957 C941 0.961 . S
H958 C942 0.931 . S
H959 C947 0.930 . S
H960 C948 0.956 . S
H961 C948 0.961 . S
H962 C948 0.961 . S
H963 C949 0.958 . S
H964 C949 0.961 . S
H965 C949 0.960 . S
C966 C967 1.391 . S
C966 C968 1.394 . S
C966 H982 0.931 . S
C967 C966 1.391 . S
C967 C971 1.376 . S
C968 C966 1.394 . S
C968 C969 1.369 . S
C968 C972 1.531 . S
C969 C968 1.369 . S
C969 C970 1.410 . S
C969 C977 1.503 . S
C970 C969 1.410 . S
C970 C971 1.392 . S
C970 C973 1.511 . S
C971 C967 1.376 . S
C971 C970 1.392 . S
C971 H983 0.929 . S
C972 C968 1.531 . S
C972 H984 0.960 . S
C972 H985 0.962 . S
C972 H986 0.960 . S
C973 C970 1.511 . S
C973 H987 0.961 . S
C973 H988 0.961 . S
C973 H989 0.961 . S
C974 C975 1.370 . S
C974 C976 1.363 . S
C974 H990 0.931 . S
C975 C974 1.370 . S
C975 C979 1.408 . S
C976 C974 1.363 . S
C976 C977 1.370 . S
C976 C980 1.524 . S
C977 C969 1.503 . S
C977 C976 1.370 . S
C977 C978 1.403 . S
C978 C977 1.403 . S
C978 C979 1.404 . S
C978 C981 1.539 . S
C979 C975 1.408 . S
C979 C978 1.404 . S
C979 H991 0.930 . S
C980 C976 1.524 . S
C980 H992 0.956 . S
C980 H993 0.961 . S
C980 H994 0.961 . S
C981 C978 1.539 . S
C981 H995 0.958 . S
C981 H996 0.961 . S
C981 H997 0.960 . S
H982 C966 0.931 . S
H983 C971 0.929 . S
H984 C972 0.960 . S
H985 C972 0.962 . S
H986 C972 0.960 . S
H987 C973 0.961 . S
H988 C973 0.961 . S
H989 C973 0.961 . S
H990 C974 0.931 . S
H991 C979 0.930 . S
H992 C980 0.956 . S
H993 C980 0.961 . S
H994 C980 0.961 . S
H995 C981 0.958 . S
H996 C981 0.961 . S
H997 C981 0.960 . S
C998 C999 1.391 . S
C998 C1000 1.394 1_565 S
C998 H1014 0.931 . S
C999 C998 1.391 . S
C999 C1003 1.376 . S
C1000 C998 1.394 1_545 S
C1000 C1001 1.369 . S
C1000 C1004 1.531 . S
C1001 C1000 1.369 . S
C1001 C1002 1.410 1_545 S
C1001 C1009 1.503 . S
C1002 C1001 1.410 1_565 S
C1002 C1003 1.392 . S
C1002 C1005 1.511 . S
C1003 C999 1.376 . S
C1003 C1002 1.392 . S
C1003 H1015 0.929 . S
C1004 C1000 1.531 . S
C1004 H1016 0.960 . S
C1004 H1017 0.962 . S
C1004 H1018 0.960 . S
C1005 C1002 1.511 . S
C1005 H1019 0.961 . S
C1005 H1020 0.961 . S
C1005 H1021 0.961 1_565 S
C1006 C1007 1.370 1_565 S
C1006 C1008 1.363 . S
C1006 H1022 0.931 . S
C1007 C1006 1.370 1_545 S
C1007 C1011 1.408 . S
C1008 C1006 1.363 . S
C1008 C1009 1.370 1_565 S
C1008 C1012 1.524 . S
C1009 C1001 1.503 . S
C1009 C1008 1.370 1_545 S
C1009 C1010 1.403 . S
C1010 C1009 1.403 . S
C1010 C1011 1.404 . S
C1010 C1013 1.539 . S
C1011 C1007 1.408 . S
C1011 C1010 1.404 . S
C1011 H1023 0.930 . S
C1012 C1008 1.524 . S
C1012 H1024 0.956 . S
C1012 H1025 0.961 . S
C1012 H1026 0.961 . S
C1013 C1010 1.539 . S
C1013 H1027 0.958 . S
C1013 H1028 0.961 . S
C1013 H1029 0.960 . S
H1014 C998 0.931 . S
H1015 C1003 0.929 . S
H1016 C1004 0.960 . S
H1017 C1004 0.962 . S
H1018 C1004 0.960 . S
H1019 C1005 0.961 . S
H1020 C1005 0.961 . S
H1021 C1005 0.961 1_545 S
H1022 C1006 0.931 . S
H1023 C1011 0.930 . S
H1024 C1012 0.956 . S
H1025 C1012 0.961 . S
H1026 C1012 0.961 . S
H1027 C1013 0.958 . S
H1028 C1013 0.961 . S
H1029 C1013 0.960 . S
C1030 C1031 1.391 . S
C1030 C1032 1.394 . S
C1030 H1046 0.931 . S
C1031 C1030 1.391 . S
C1031 C1035 1.376 . S
C1032 C1030 1.394 . S
C1032 C1033 1.369 1_655 S
C1032 C1036 1.531 . S
C1033 C1032 1.369 1_455 S
C1033 C1034 1.410 . S
C1033 C1041 1.503 . S
C1034 C1033 1.410 . S
C1034 C1035 1.392 1_455 S
C1034 C1037 1.511 . S
C1035 C1031 1.376 . S
C1035 C1034 1.392 1_655 S
C1035 H1047 0.931 . S
C1036 C1032 1.531 . S
C1036 H1048 0.960 1_655 S
C1036 H1049 0.962 . S
C1036 H1050 0.960 . S
C1037 C1034 1.511 . S
C1037 H1051 0.961 . S
C1037 H1052 0.961 . S
C1037 H1053 0.961 . S
C1038 C1039 1.370 1_655 S
C1038 C1040 1.363 . S
C1038 H1054 0.931 . S
C1039 C1038 1.370 1_455 S
C1039 C1043 1.408 . S
C1040 C1038 1.363 . S
C1040 C1041 1.370 1_655 S
C1040 C1044 1.524 . S
C1041 C1033 1.503 . S
C1041 C1040 1.370 1_455 S
C1041 C1042 1.403 . S
C1042 C1041 1.403 . S
C1042 C1043 1.404 . S
C1042 C1045 1.539 . S
C1043 C1039 1.408 . S
C1043 C1042 1.404 . S
C1043 H1055 0.930 . S
C1044 C1040 1.524 . S
C1044 H1056 0.956 . S
C1044 H1057 0.961 . S
C1044 H1058 0.961 . S
C1045 C1042 1.539 . S
C1045 H1059 0.958 . S
C1045 H1060 0.961 . S
C1045 H1061 0.960 . S
H1046 C1030 0.931 . S
H1047 C1035 0.931 . S
H1048 C1036 0.960 1_455 S
H1049 C1036 0.962 . S
H1050 C1036 0.960 . S
H1051 C1037 0.961 . S
H1052 C1037 0.961 . S
H1053 C1037 0.961 . S
H1054 C1038 0.931 . S
H1055 C1043 0.930 . S
H1056 C1044 0.956 . S
H1057 C1044 0.961 . S
H1058 C1044 0.961 . S
H1059 C1045 0.958 . S
H1060 C1045 0.961 . S
H1061 C1045 0.960 . S
C199 C26 1.411 . S
C207 C5 1.461 . S
C231 C48 1.415 . S
C239 C27 1.458 . S
C263 C49 1.472 . S
C271 C4 1.370 . S
C295 C53 1.473 . S
C303 C30 1.362 . S
C327 C52 1.408 . S
C335 C9 1.456 . S
C359 C8 1.331 . S
C367 C31 1.464 . S
C391 C71 1.447 . S
C399 C92 1.374 . S
C423 C114 1.334 . S
C431 C93 1.463 1_545 S
C455 C115 1.449 1_655 S
C463 C70 1.393 . S
C487 C96 1.340 . S
C495 C119 1.462 . S
C519 C118 1.407 . S
C527 C75 1.462 . S
C551 C97 1.444 . S
C559 C74 1.385 . S
C583 C158 1.336 . S
C591 C137 1.468 . S
C615 C159 1.465 . S
C623 C180 1.383 . S
C647 C181 1.446 . S
C655 C136 1.393 . S
C679 C185 1.473 . S
C687 C162 1.365 . S
C711 C184 1.355 . S
C719 C141 1.459 1_565 S
C743 C140 1.375 . S
C751 C163 1.467 1_455 S
C775 C117 1.354 . S
C783 C6 1.372 . S
C807 C73 1.394 . S
C815 C28 1.391 . S
C839 C50 1.396 . S
C847 C95 1.391 . S
C871 C51 1.399 . S
C879 C138 1.390 . S
C903 C7 1.359 . S
C911 C160 1.370 . S
C935 C182 1.393 . S
C943 C29 1.391 . S
C967 C72 1.395 . S
C975 C183 1.379 . S
C999 C94 1.397 . S
C1007 C139 1.379 . S
C1031 C161 1.383 . S
C1039 C116 1.373 . S
