# Generated by pormake.
# Topology umb, (4)-cn, num edge types: 1
# Building blocks:
#     Node 0, Type 0, BuildingBlock: ESEHIV_clean_sbu_0, # of connection points: 4
#     Node 1, Type 0, BuildingBlock: ESEHIV_clean_sbu_0, # of connection points: 4
#     Node 2, Type 0, BuildingBlock: ESEHIV_clean_sbu_0, # of connection points: 4
#     Node 3, Type 0, BuildingBlock: ESEHIV_clean_sbu_0, # of connection points: 4
#     Node 4, Type 0, BuildingBlock: ESEHIV_clean_sbu_0, # of connection points: 4
#     Node 5, Type 0, BuildingBlock: ESEHIV_clean_sbu_0, # of connection points: 4
#     Node 6, Type 0, BuildingBlock: ESEHIV_clean_sbu_0, # of connection points: 4
#     Node 7, Type 0, BuildingBlock: ESEHIV_clean_sbu_0, # of connection points: 4
#     Node 8, Type 0, BuildingBlock: ESEHIV_clean_sbu_0, # of connection points: 4
#     Node 9, Type 0, BuildingBlock: ESEHIV_clean_sbu_0, # of connection points: 4
#     Node 10, Type 0, BuildingBlock: ESEHIV_clean_sbu_0, # of connection points: 4
#     Node 11, Type 0, BuildingBlock: ESEHIV_clean_sbu_0, # of connection points: 4
#     Edge 12, Type (0, 0), None
#     Edge 13, Type (0, 0), None
#     Edge 14, Type (0, 0), None
#     Edge 15, Type (0, 0), None
#     Edge 16, Type (0, 0), None
#     Edge 17, Type (0, 0), None
#     Edge 18, Type (0, 0), None
#     Edge 19, Type (0, 0), None
#     Edge 20, Type (0, 0), None
#     Edge 21, Type (0, 0), None
#     Edge 22, Type (0, 0), None
#     Edge 23, Type (0, 0), None
#     Edge 24, Type (0, 0), None
#     Edge 25, Type (0, 0), None
#     Edge 26, Type (0, 0), None
#     Edge 27, Type (0, 0), None
#     Edge 28, Type (0, 0), None
#     Edge 29, Type (0, 0), None
#     Edge 30, Type (0, 0), None
#     Edge 31, Type (0, 0), None
#     Edge 32, Type (0, 0), None
#     Edge 33, Type (0, 0), None
#     Edge 34, Type (0, 0), None
#     Edge 35, Type (0, 0), None
# Relax obj value: 0.230
# Max RMSD: 0.190
# Mean RMSD: 0.161
data_MOF--net-umb--node1-ESEHIV_clean_sbu_0--edge1-none
_symmetry_space_group_name_H-M    P1
_symmetry_Int_Tables_number       1
_symmetry_cell_setting            triclinic
loop_
_symmetry_equiv_pos_as_xyz
'x, y, z'
_cell_length_a     19.937298
_cell_length_b     25.858036
_cell_length_c     19.583798
_cell_angle_alpha  90.011218
_cell_angle_beta   89.99427
_cell_angle_gamma 117.32429
loop_
_atom_site_label
_atom_site_type_symbol
_atom_site_fract_x
_atom_site_fract_y
_atom_site_fract_z
_atom_type_partial_charge
Cu0 Cu 0.68256 0.24874 0.34573 0.0
N1 N 0.61914 0.28221 0.36623 0.0
N2 N 0.64401 0.3762 0.35836 0.0
C3 C 0.65857 0.33644 0.3909 0.0
C4 C 0.58864 0.34495 0.31391 0.0
C5 C 0.57207 0.28694 0.32 0.0
O6 O 0.72354 0.28571 0.25872 0.0
C7 C 0.73008 0.25129 0.4785 0.0
O8 O 0.65681 0.22648 0.48869 0.0
H9 H 0.71194 0.34909 0.41566 0.0
H10 H 0.54025 0.25366 0.28293 0.0
N11 N 0.64021 0.16812 0.33823 0.0
N12 N 0.64177 0.0826 0.334 0.0
C13 C 0.68352 0.14079 0.33402 0.0
C14 C 0.5684 0.12579 0.34119 0.0
C15 C 0.56915 0.07252 0.33835 0.0
C16 C 0.67612 0.26552 0.21005 0.0
O17 O 0.62289 0.21144 0.21431 0.0
H18 H 0.74455 0.16341 0.33265 0.0
H19 H 0.51943 0.13313 0.3465 0.0
O20 O 0.75606 0.26725 0.41845 0.0
H21 H 0.57094 0.36346 0.27233 0.0
H22 H 0.52046 1.03012 0.34096 0.0
Cu23 Cu 0.4997 0.64672 0.66912 0.0
N24 N 0.39803 0.63077 0.66229 0.0
N25 N 0.31957 0.67079 0.65355 0.0
C26 C 0.38072 0.6723 0.68479 0.0
C27 C 0.29549 0.62482 0.61086 0.0
C28 C 0.34311 0.59931 0.61733 0.0
O29 O 0.55968 0.7174 0.62062 0.0
C30 C 0.53171 0.6399 0.81046 0.0
O31 O 0.50704 0.58362 0.80254 0.0
H32 H 0.42027 0.70949 0.71378 0.0
H33 H 0.34361 0.56586 0.58448 0.0
N34 N 0.53342 0.59301 0.64277 0.0
N35 N 0.62005 0.56192 0.62652 0.0
C36 C 0.6077 0.6083 0.63741 0.0
C37 C 0.49737 0.53482 0.63467 0.0
C38 C 0.55096 0.51538 0.62471 0.0
C39 C 0.54909 0.73286 0.56191 0.0
O40 O 0.60025 0.78269 0.53865 0.0
H41 H 0.65176 0.65227 0.64519 0.0
H42 H 0.43694 0.50824 0.63868 0.0
O43 O 0.53099 0.67092 0.76069 0.0
H44 H 0.25284 0.61497 0.57195 0.0
H45 H 0.54 0.47057 0.6189 0.0
Cu46 Cu 0.98184 0.43524 1.00099 0.0
N47 N 0.97251 0.4125 0.09332 0.0
N48 N 0.95788 0.42249 0.20509 0.0
C49 C 0.98866 0.44996 0.14588 0.0
C50 C 0.92272 0.36528 0.18994 0.0
C51 C 0.93119 0.35927 0.12081 0.0
O52 O 1.08848 0.48746 0.983 0.0
C53 C 0.87395 0.46867 0.03535 0.0
O54 O 0.83504 0.4145 0.0553 0.0
H55 H 1.01641 0.49677 0.13939 0.0
H56 H 0.90304 0.31933 0.09205 0.0
N57 N 0.94217 0.3686 0.94458 0.0
N58 N 0.88382 0.29873 0.86604 0.0
C59 C 0.8989 0.3531 0.88717 0.0
C60 C 0.95457 0.32295 0.95907 0.0
C61 C 0.91847 0.28003 0.91183 0.0
C62 C 1.11453 0.54275 0.97968 0.0
O63 O 1.06859 0.56614 0.9841 0.0
H64 H 0.88052 0.38124 0.86091 0.0
H65 H 0.98873 0.32135 1.00111 0.0
O66 O 0.92942 0.48155 0.99558 0.0
H67 H 0.88833 0.3308 0.22492 0.0
H68 H 0.92011 0.23875 0.90995 0.0
Cu69 Cu 0.62842 0.87483 0.34575 0.0
N70 N 0.69188 0.84138 0.36622 0.0
N71 N 0.66703 0.74739 0.35831 0.0
C72 C 0.65247 0.78715 0.39089 0.0
C73 C 0.72238 0.77865 0.31384 0.0
C74 C 0.73894 0.83665 0.31996 0.0
O75 O 0.58742 0.83782 0.25875 0.0
C76 C 0.58093 0.87227 0.47855 0.0
O77 O 0.6542 0.89709 0.48873 0.0
H78 H 0.59912 0.7745 0.41567 0.0
H79 H 0.77074 0.86994 0.28289 0.0
N80 N 0.67075 0.95544 0.33826 0.0
N81 N 0.66916 1.04095 0.33406 0.0
C82 C 0.62742 0.98276 0.33415 0.0
C83 C 0.74256 0.99778 0.34105 0.0
C84 C 0.74181 1.05104 0.33821 0.0
C85 C 0.63481 0.85801 0.21007 0.0
O86 O 0.68805 0.91209 0.21432 0.0
H87 H 0.56639 0.96014 0.33288 0.0
H88 H 0.79155 0.99045 0.34621 0.0
O89 O 0.55494 0.85631 0.41849 0.0
H90 H 0.74007 0.76014 0.27225 0.0
H91 H 0.7905 0.09345 0.34065 0.0
Cu92 Cu 0.81133 0.47683 0.66919 0.0
N93 N 0.91301 0.4928 0.66234 0.0
N94 N 0.99146 0.45277 0.65358 0.0
C95 C 0.93032 0.45127 0.68483 0.0
C96 C 1.01553 0.49873 0.6109 0.0
C97 C 0.96792 0.52424 0.61738 0.0
O98 O 0.75137 0.40615 0.62065 0.0
C99 C 0.77928 0.48362 0.81053 0.0
O100 O 0.80389 0.5399 0.80262 0.0
H101 H 0.89077 0.41408 0.71383 0.0
H102 H 0.96742 0.55769 0.58454 0.0
N103 N 0.77756 0.53051 0.64287 0.0
N104 N 0.69091 0.56156 0.62663 0.0
C105 C 0.70327 0.51522 0.63773 0.0
C106 C 0.81361 0.58866 0.63437 0.0
C107 C 0.76 0.60808 0.62438 0.0
C108 C 0.76196 0.39071 0.56192 0.0
O109 O 0.7108 0.34089 0.53864 0.0
H110 H 0.65922 0.47129 0.64573 0.0
H111 H 0.87407 0.61523 0.63802 0.0
O112 O 0.78004 0.45261 0.76075 0.0
H113 H 1.05818 0.50857 0.57198 0.0
H114 H 0.77097 0.65285 0.61818 0.0
Cu115 Cu 0.32914 0.68838 1.001 0.0
N116 N 0.33854 0.71113 0.09334 0.0
N117 N 0.3532 0.70114 0.20509 0.0
C118 C 0.3224 0.67367 0.14589 0.0
C119 C 0.38836 0.75836 0.18997 0.0
C120 C 0.37987 0.76436 0.12084 0.0
O121 O 0.22247 0.63618 0.98308 0.0
C122 C 0.43699 0.6549 0.03526 0.0
O123 O 0.47595 0.70906 0.05524 0.0
H124 H 0.29463 0.62686 0.13938 0.0
H125 H 0.40801 0.8043 0.09209 0.0
N126 N 0.36879 0.75501 0.94461 0.0
N127 N 0.42714 0.82487 0.86608 0.0
C128 C 0.41207 0.7705 0.88719 0.0
C129 C 0.3564 0.80067 0.95912 0.0
C130 C 0.3925 0.84357 0.91189 0.0
C131 C 0.19643 0.58089 0.97962 0.0
O132 O 0.24237 0.55749 0.98382 0.0
H133 H 0.43044 0.74236 0.86092 0.0
H134 H 0.32225 0.80228 1.00117 0.0
O135 O 0.38152 0.64204 0.99551 0.0
H136 H 0.42276 0.79284 0.22495 0.0
H137 H 0.39086 0.88486 0.91002 0.0
Cu138 Cu 0.89805 0.46067 0.38952 0.0
N139 N 0.82863 0.48428 0.35466 0.0
N140 N 0.70248 0.43265 0.34498 0.0
C141 C 0.77063 0.44014 0.32302 0.0
C142 C 0.71845 0.47822 0.38678 0.0
C143 C 0.79605 0.51073 0.39141 0.0
O144 O 0.8438 0.41004 0.46591 0.0
C145 C 0.95312 0.44835 0.26414 0.0
O146 O 0.98207 0.50535 0.26718 0.0
H147 H 0.77756 0.40464 0.30074 0.0
H148 H 0.82524 0.54398 0.42927 0.0
N149 N 0.99345 0.51814 0.41687 0.0
N150 N 1.11815 0.5583 0.4338 0.0
C151 C 1.05458 0.50876 0.42124 0.0
C152 C 1.01932 0.57563 0.42746 0.0
C153 C 1.09667 0.60068 0.43779 0.0
C154 C 0.82287 0.43011 0.51671 0.0
O155 O 0.84613 0.48623 0.52167 0.0
H156 H 1.05282 0.46693 0.41179 0.0
H157 H 0.98499 0.59802 0.42517 0.0
O158 O 0.91539 0.4182 0.31502 0.0
H159 H 0.67806 0.48193 0.42079 0.0
H160 H 1.13416 0.64645 0.44562 0.0
Cu161 Cu 0.48435 0.86499 0.6687 0.0
N162 N 0.38345 0.81949 0.64229 0.0
N163 N 0.31299 0.72203 0.64122 0.0
C164 C 0.37055 0.76872 0.61235 0.0
C165 C 0.28377 0.74475 0.68731 0.0
C166 C 0.3262 0.80463 0.68704 0.0
O167 O 0.48363 0.83249 0.76035 0.0
C168 C 0.53045 0.86626 0.53565 0.0
O169 O 0.47239 0.87616 0.52478 0.0
H170 H 0.41431 0.76419 0.58441 0.0
H171 H 0.32514 0.833 0.72714 0.0
N172 N 0.52541 0.94652 0.67276 0.0
N173 N 0.61869 1.03795 0.67417 0.0
C174 C 0.60069 0.98099 0.67679 0.0
C175 C 0.49466 0.98309 0.66694 0.0
C176 C 0.55233 1.03983 0.66817 0.0
C177 C 0.46041 0.85444 0.80761 0.0
O178 O 0.458 0.9034 0.79471 0.0
H179 H 0.64137 0.9643 0.68028 0.0
H180 H 0.43497 0.96952 0.66092 0.0
O181 O 0.54553 0.85662 0.59646 0.0
H182 H 0.24427 0.7198 0.72693 0.0
H183 H 0.54591 0.079 0.66336 0.0
Cu184 Cu 0.71573 0.45554 0.07372 0.0
N185 N 0.72192 0.44277 0.98125 0.0
N186 N 0.75261 0.45761 0.87145 0.0
C187 C 0.74942 0.48256 0.93095 0.0
C188 C 0.72575 0.40033 0.88461 0.0
C189 C 0.70692 0.39133 0.95237 0.0
O190 O 0.65111 0.4923 0.08416 0.0
C191 C 0.8745 0.51461 0.07931 0.0
O192 O 0.93917 0.55865 0.09652 0.0
H193 H 0.76905 0.52876 0.93844 0.0
H194 H 0.68693 0.35043 0.97915 0.0
N195 N 0.67618 0.38307 0.11635 0.0
N196 N 0.66642 0.30226 0.16618 0.0
C197 C 0.70947 0.36029 0.1584 0.0
C198 C 0.61012 0.33825 0.09792 0.0
C199 C 0.60423 0.28838 0.12787 0.0
C200 C 0.67978 0.5476 0.08237 0.0
O201 O 0.75296 0.57928 0.07526 0.0
H202 H 0.76474 0.3852 0.18086 0.0
H203 H 0.57055 0.3414 0.06247 0.0
O204 O 0.81428 0.50947 0.10695 0.0
H205 H 0.72178 0.3675 0.84818 0.0
H206 H 0.55688 0.24536 0.12306 0.0
Cu207 Cu 0.41299 0.66294 0.38948 0.0
N208 N 0.48241 0.63932 0.3546 0.0
N209 N 0.60856 0.69095 0.34492 0.0
C210 C 0.54041 0.68346 0.32297 0.0
C211 C 0.59259 0.64538 0.38669 0.0
C212 C 0.51498 0.61288 0.39132 0.0
O213 O 0.46725 0.71356 0.46591 0.0
C214 C 0.35795 0.67529 0.26413 0.0
O215 O 0.329 0.61828 0.26714 0.0
H216 H 0.53348 0.71897 0.30071 0.0
H217 H 0.4858 0.57962 0.42917 0.0
N218 N 0.31759 0.60548 0.41681 0.0
N219 N 0.19288 0.56531 0.4337 0.0
C220 C 0.25644 0.61485 0.4211 0.0
C221 C 0.29174 0.54801 0.42753 0.0
C222 C 0.21439 0.52295 0.43787 0.0
C223 C 0.48816 0.69347 0.51669 0.0
O224 O 0.46489 0.63735 0.52161 0.0
H225 H 0.25818 0.65666 0.41161 0.0
H226 H 0.32611 0.52564 0.42538 0.0
O227 O 0.39568 0.70543 0.31502 0.0
H228 H 0.63298 0.64167 0.42069 0.0
H229 H 0.17692 0.47721 0.44586 0.0
Cu230 Cu 0.82663 0.25858 0.66865 0.0
N231 N 0.92753 0.30406 0.64227 0.0
N232 N 0.99802 0.40152 0.64123 0.0
C233 C 0.94046 0.35483 0.61235 0.0
C234 C 1.02722 0.37879 0.68732 0.0
C235 C 0.98478 0.3189 0.68702 0.0
O236 O 0.82734 0.2911 0.76031 0.0
C237 C 0.78056 0.25731 0.53559 0.0
O238 O 0.83862 0.24741 0.52472 0.0
H239 H 0.89671 0.35937 0.5844 0.0
H240 H 0.98582 0.29054 0.72711 0.0
N241 N 0.78555 0.17705 0.6727 0.0
N242 N 0.69226 0.08561 0.67412 0.0
C243 C 0.71026 0.14258 0.6767 0.0
C244 C 0.8163 0.14047 0.66697 0.0
C245 C 0.75862 0.08373 0.66822 0.0
C246 C 0.85055 0.26916 0.80757 0.0
O247 O 0.85295 0.22018 0.79467 0.0
H248 H 0.66959 0.15928 0.68016 0.0
H249 H 0.87599 0.15403 0.66102 0.0
O250 O 0.76547 0.26694 0.59641 0.0
H251 H 1.06672 0.40374 0.72694 0.0
H252 H 0.76505 1.04455 0.6635 0.0
Cu253 Cu 0.59517 0.66797 0.07367 0.0
N254 N 0.58904 0.68075 0.9812 0.0
N255 N 0.55838 0.66591 0.87139 0.0
C256 C 0.56153 0.64095 0.93089 0.0
C257 C 0.58528 0.7232 0.88457 0.0
C258 C 0.60409 0.73219 0.95233 0.0
O259 O 0.65977 0.63119 0.08412 0.0
C260 C 0.4364 0.60893 0.0792 0.0
O261 O 0.37171 0.5649 0.09637 0.0
H262 H 0.54185 0.59474 0.93836 0.0
H263 H 0.6241 0.77309 0.97913 0.0
N264 N 0.63473 0.74044 0.11633 0.0
N265 N 0.64451 0.82126 0.16619 0.0
C266 C 0.60145 0.76323 0.15839 0.0
C267 C 0.7008 0.78524 0.09792 0.0
C268 C 0.7067 0.83512 0.12788 0.0
C269 C 0.63109 0.57589 0.08237 0.0
O270 O 0.55791 0.54421 0.07529 0.0
H271 H 0.54617 0.73833 0.18084 0.0
H272 H 0.74037 0.78209 0.06247 0.0
O273 O 0.49659 0.61405 0.10684 0.0
H274 H 0.58929 0.75603 0.84815 0.0
H275 H 0.75406 0.87814 0.12309 0.0
loop_
_geom_bond_atom_site_label_1
_geom_bond_atom_site_label_2
_geom_bond_distance
_geom_bond_site_symmetry_2
_ccdc_geom_bond_type
Cu0 N1 1.999 . S
Cu0 O6 1.974 . S
Cu0 N11 1.985 . S
Cu0 O20 1.959 . S
N1 Cu0 1.999 . S
N1 C3 1.263 . S
N1 C5 1.389 . S
N2 C3 1.358 . S
N2 C4 1.400 . S
C3 N1 1.263 . S
C3 N2 1.358 . S
C3 H9 0.930 . S
C4 N2 1.400 . S
C4 C5 1.351 . S
C4 H21 0.930 . S
C5 N1 1.389 . S
C5 C4 1.351 . S
C5 H10 0.930 . S
O6 Cu0 1.974 . S
O6 C16 1.282 . S
C7 O8 1.261 . S
C7 O20 1.251 . S
O8 C7 1.261 . S
H9 C3 0.930 . S
H10 C5 0.930 . S
N11 Cu0 1.985 . S
N11 C13 1.335 . S
N11 C14 1.390 . S
N12 C13 1.345 . S
N12 C15 1.336 . S
C13 N11 1.335 . S
C13 N12 1.345 . S
C13 H18 0.930 . S
C14 N11 1.390 . S
C14 C15 1.346 . S
C14 H19 0.930 . S
C15 N12 1.336 . S
C15 C14 1.346 . S
C15 H22 0.929 . S
C16 O6 1.282 . S
C16 O17 1.216 . S
O17 C16 1.216 . S
H18 C13 0.930 . S
H19 C14 0.930 . S
O20 Cu0 1.959 . S
O20 C7 1.251 . S
H21 C4 0.930 . S
H22 C15 0.929 . S
Cu23 N24 1.999 . S
Cu23 O29 1.974 . S
Cu23 N34 1.985 . S
Cu23 O43 1.959 . S
N24 Cu23 1.999 . S
N24 C26 1.263 . S
N24 C28 1.389 . S
N25 C26 1.358 . S
N25 C27 1.400 . S
C26 N24 1.263 . S
C26 N25 1.358 . S
C26 H32 0.930 . S
C27 N25 1.400 . S
C27 C28 1.351 . S
C27 H44 0.930 . S
C28 N24 1.389 . S
C28 C27 1.351 . S
C28 H33 0.930 . S
O29 Cu23 1.974 . S
O29 C39 1.282 . S
C30 O31 1.261 . S
C30 O43 1.251 . S
O31 C30 1.261 . S
H32 C26 0.930 . S
H33 C28 0.930 . S
N34 Cu23 1.985 . S
N34 C36 1.335 . S
N34 C37 1.390 . S
N35 C36 1.345 . S
N35 C38 1.336 . S
C36 N34 1.335 . S
C36 N35 1.345 . S
C36 H41 0.930 . S
C37 N34 1.390 . S
C37 C38 1.346 . S
C37 H42 0.930 . S
C38 N35 1.336 . S
C38 C37 1.346 . S
C38 H45 0.929 . S
C39 O29 1.282 . S
C39 O40 1.216 . S
O40 C39 1.216 . S
H41 C36 0.930 . S
H42 C37 0.930 . S
O43 Cu23 1.959 . S
O43 C30 1.251 . S
H44 C27 0.930 . S
H45 C38 0.929 . S
Cu46 N47 1.999 . S
Cu46 O52 1.974 . S
Cu46 N57 1.985 1_554 S
Cu46 O66 1.959 . S
N47 Cu46 1.999 . S
N47 C49 1.263 . S
N47 C51 1.389 . S
N48 C49 1.358 . S
N48 C50 1.400 . S
C49 N47 1.263 . S
C49 N48 1.358 . S
C49 H55 0.930 . S
C50 N48 1.400 . S
C50 C51 1.351 . S
C50 H67 0.930 . S
C51 N47 1.389 . S
C51 C50 1.351 . S
C51 H56 0.930 . S
O52 Cu46 1.974 . S
O52 C62 1.282 1_554 S
C53 O54 1.261 . S
C53 O66 1.251 1_556 S
O54 C53 1.261 . S
H55 C49 0.930 . S
H56 C51 0.930 . S
N57 Cu46 1.985 1_556 S
N57 C59 1.335 . S
N57 C60 1.390 . S
N58 C59 1.345 . S
N58 C61 1.336 . S
C59 N57 1.335 . S
C59 N58 1.345 . S
C59 H64 0.930 . S
C60 N57 1.390 . S
C60 C61 1.346 . S
C60 H65 0.930 . S
C61 N58 1.336 . S
C61 C60 1.346 . S
C61 H68 0.929 . S
C62 O52 1.282 1_556 S
C62 O63 1.216 . S
O63 C62 1.216 . S
H64 C59 0.930 . S
H65 C60 0.930 . S
O66 Cu46 1.959 . S
O66 C53 1.251 1_554 S
H67 C50 0.930 . S
H68 C61 0.929 . S
Cu69 N70 1.999 . S
Cu69 O75 1.974 . S
Cu69 N80 1.985 . S
Cu69 O89 1.959 . S
N70 Cu69 1.999 . S
N70 C72 1.263 . S
N70 C74 1.389 . S
N71 C72 1.358 . S
N71 C73 1.400 . S
C72 N70 1.263 . S
C72 N71 1.358 . S
C72 H78 0.930 . S
C73 N71 1.400 . S
C73 C74 1.351 . S
C73 H90 0.930 . S
C74 N70 1.389 . S
C74 C73 1.351 . S
C74 H79 0.930 . S
O75 Cu69 1.974 . S
O75 C85 1.282 . S
C76 O77 1.261 . S
C76 O89 1.251 . S
O77 C76 1.261 . S
H78 C72 0.930 . S
H79 C74 0.930 . S
N80 Cu69 1.985 . S
N80 C82 1.335 . S
N80 C83 1.390 . S
N81 C82 1.345 . S
N81 C84 1.336 . S
C82 N80 1.335 . S
C82 N81 1.345 . S
C82 H87 0.930 . S
C83 N80 1.390 . S
C83 C84 1.346 . S
C83 H88 0.930 . S
C84 N81 1.336 . S
C84 C83 1.346 . S
C84 H91 0.929 . S
C85 O75 1.282 . S
C85 O86 1.216 . S
O86 C85 1.216 . S
H87 C82 0.930 . S
H88 C83 0.930 . S
O89 Cu69 1.959 . S
O89 C76 1.251 . S
H90 C73 0.930 . S
H91 C84 0.929 . S
Cu92 N93 1.999 . S
Cu92 O98 1.974 . S
Cu92 N103 1.985 . S
Cu92 O112 1.959 . S
N93 Cu92 1.999 . S
N93 C95 1.263 . S
N93 C97 1.389 . S
N94 C95 1.358 . S
N94 C96 1.400 . S
C95 N93 1.263 . S
C95 N94 1.358 . S
C95 H101 0.930 . S
C96 N94 1.400 . S
C96 C97 1.351 . S
C96 H113 0.930 . S
C97 N93 1.389 . S
C97 C96 1.351 . S
C97 H102 0.930 . S
O98 Cu92 1.974 . S
O98 C108 1.282 . S
C99 O100 1.261 . S
C99 O112 1.251 . S
O100 C99 1.261 . S
H101 C95 0.930 . S
H102 C97 0.930 . S
N103 Cu92 1.985 . S
N103 C105 1.335 . S
N103 C106 1.390 . S
N104 C105 1.345 . S
N104 C107 1.336 . S
C105 N103 1.335 . S
C105 N104 1.345 . S
C105 H110 0.930 . S
C106 N103 1.390 . S
C106 C107 1.346 . S
C106 H111 0.930 . S
C107 N104 1.336 . S
C107 C106 1.346 . S
C107 H114 0.929 . S
C108 O98 1.282 . S
C108 O109 1.216 . S
O109 C108 1.216 . S
H110 C105 0.930 . S
H111 C106 0.930 . S
O112 Cu92 1.959 . S
O112 C99 1.251 . S
H113 C96 0.930 . S
H114 C107 0.929 . S
Cu115 N116 1.999 . S
Cu115 O121 1.974 . S
Cu115 N126 1.985 1_554 S
Cu115 O135 1.959 . S
N116 Cu115 1.999 . S
N116 C118 1.263 . S
N116 C120 1.389 . S
N117 C118 1.358 . S
N117 C119 1.400 . S
C118 N116 1.263 . S
C118 N117 1.358 . S
C118 H124 0.930 . S
C119 N117 1.400 . S
C119 C120 1.351 . S
C119 H136 0.930 . S
C120 N116 1.389 . S
C120 C119 1.351 . S
C120 H125 0.930 . S
O121 Cu115 1.974 . S
O121 C131 1.282 1_554 S
C122 O123 1.261 . S
C122 O135 1.251 1_556 S
O123 C122 1.261 . S
H124 C118 0.930 . S
H125 C120 0.930 . S
N126 Cu115 1.985 1_556 S
N126 C128 1.335 . S
N126 C129 1.390 . S
N127 C128 1.345 . S
N127 C130 1.336 . S
C128 N126 1.335 . S
C128 N127 1.345 . S
C128 H133 0.930 . S
C129 N126 1.390 . S
C129 C130 1.346 . S
C129 H134 0.930 . S
C130 N127 1.336 . S
C130 C129 1.346 . S
C130 H137 0.929 . S
C131 O121 1.282 1_556 S
C131 O132 1.216 . S
O132 C131 1.216 . S
H133 C128 0.930 . S
H134 C129 0.930 . S
O135 Cu115 1.959 . S
O135 C122 1.251 1_554 S
H136 C119 0.930 . S
H137 C130 0.929 . S
Cu138 N139 1.999 . S
Cu138 O144 1.974 . S
Cu138 N149 1.985 . S
Cu138 O158 1.959 . S
N139 Cu138 1.999 . S
N139 C141 1.263 . S
N139 C143 1.389 . S
N140 C141 1.358 . S
N140 C142 1.400 . S
C141 N139 1.263 . S
C141 N140 1.358 . S
C141 H147 0.930 . S
C142 N140 1.400 . S
C142 C143 1.351 . S
C142 H159 0.930 . S
C143 N139 1.389 . S
C143 C142 1.351 . S
C143 H148 0.930 . S
O144 Cu138 1.974 . S
O144 C154 1.282 . S
C145 O146 1.261 . S
C145 O158 1.251 . S
O146 C145 1.261 . S
H147 C141 0.930 . S
H148 C143 0.930 . S
N149 Cu138 1.985 . S
N149 C151 1.335 . S
N149 C152 1.390 . S
N150 C151 1.345 . S
N150 C153 1.336 . S
C151 N149 1.335 . S
C151 N150 1.345 . S
C151 H156 0.930 . S
C152 N149 1.390 . S
C152 C153 1.346 . S
C152 H157 0.930 . S
C153 N150 1.336 . S
C153 C152 1.346 . S
C153 H160 0.929 . S
C154 O144 1.282 . S
C154 O155 1.216 . S
O155 C154 1.216 . S
H156 C151 0.930 . S
H157 C152 0.930 . S
O158 Cu138 1.959 . S
O158 C145 1.251 . S
H159 C142 0.930 . S
H160 C153 0.929 . S
Cu161 N162 1.999 . S
Cu161 O167 1.974 . S
Cu161 N172 1.985 . S
Cu161 O181 1.959 . S
N162 Cu161 1.999 . S
N162 C164 1.263 . S
N162 C166 1.389 . S
N163 C164 1.358 . S
N163 C165 1.400 . S
C164 N162 1.263 . S
C164 N163 1.358 . S
C164 H170 0.930 . S
C165 N163 1.400 . S
C165 C166 1.351 . S
C165 H182 0.930 . S
C166 N162 1.389 . S
C166 C165 1.351 . S
C166 H171 0.930 . S
O167 Cu161 1.974 . S
O167 C177 1.282 . S
C168 O169 1.261 . S
C168 O181 1.251 . S
O169 C168 1.261 . S
H170 C164 0.930 . S
H171 C166 0.930 . S
N172 Cu161 1.985 . S
N172 C174 1.335 . S
N172 C175 1.390 . S
N173 C174 1.345 . S
N173 C176 1.336 . S
C174 N172 1.335 . S
C174 N173 1.345 . S
C174 H179 0.930 . S
C175 N172 1.390 . S
C175 C176 1.346 . S
C175 H180 0.930 . S
C176 N173 1.336 . S
C176 C175 1.346 . S
C176 H183 0.929 . S
C177 O167 1.282 . S
C177 O178 1.216 . S
O178 C177 1.216 . S
H179 C174 0.930 . S
H180 C175 0.930 . S
O181 Cu161 1.959 . S
O181 C168 1.251 . S
H182 C165 0.930 . S
H183 C176 0.929 . S
Cu184 N185 1.991 1_554 S
Cu184 O190 1.974 . S
Cu184 N195 1.993 . S
Cu184 O204 1.959 1_554 S
N185 Cu184 1.991 1_556 S
N185 C187 1.263 . S
N185 C189 1.389 . S
N186 C187 1.358 . S
N186 C188 1.400 . S
C187 N185 1.263 . S
C187 N186 1.358 . S
C187 H193 0.930 . S
C188 N186 1.400 . S
C188 C189 1.351 . S
C188 H205 0.930 . S
C189 N185 1.389 . S
C189 C188 1.351 . S
C189 H194 0.930 . S
O190 Cu184 1.974 . S
O190 C200 1.284 . S
C191 O192 1.261 . S
C191 O204 1.248 1_554 S
O192 C191 1.261 . S
H193 C187 0.930 . S
H194 C189 0.930 . S
N195 Cu184 1.993 . S
N195 C197 1.335 . S
N195 C198 1.390 . S
N196 C197 1.345 . S
N196 C199 1.336 . S
C197 N195 1.335 . S
C197 N196 1.345 . S
C197 H202 0.930 . S
C198 N195 1.390 . S
C198 C199 1.346 . S
C198 H203 0.930 . S
C199 N196 1.336 . S
C199 C198 1.346 . S
C199 H206 0.929 . S
C200 O190 1.284 . S
C200 O201 1.216 . S
O201 C200 1.216 . S
H202 C197 0.930 . S
H203 C198 0.930 . S
O204 Cu184 1.959 1_556 S
O204 C191 1.248 1_556 S
H205 C188 0.930 . S
H206 C199 0.929 . S
Cu207 N208 1.999 . S
Cu207 O213 1.974 . S
Cu207 N218 1.985 . S
Cu207 O227 1.959 . S
N208 Cu207 1.999 . S
N208 C210 1.263 . S
N208 C212 1.389 . S
N209 C210 1.358 . S
N209 C211 1.400 . S
C210 N208 1.263 . S
C210 N209 1.358 . S
C210 H216 0.930 . S
C211 N209 1.400 . S
C211 C212 1.351 . S
C211 H228 0.930 . S
C212 N208 1.389 . S
C212 C211 1.351 . S
C212 H217 0.930 . S
O213 Cu207 1.974 . S
O213 C223 1.282 . S
C214 O215 1.261 . S
C214 O227 1.251 . S
O215 C214 1.261 . S
H216 C210 0.930 . S
H217 C212 0.930 . S
N218 Cu207 1.985 . S
N218 C220 1.335 . S
N218 C221 1.390 . S
N219 C220 1.345 . S
N219 C222 1.336 . S
C220 N218 1.335 . S
C220 N219 1.345 . S
C220 H225 0.930 . S
C221 N218 1.390 . S
C221 C222 1.346 . S
C221 H226 0.930 . S
C222 N219 1.336 . S
C222 C221 1.346 . S
C222 H229 0.929 . S
C223 O213 1.282 . S
C223 O224 1.216 . S
O224 C223 1.216 . S
H225 C220 0.930 . S
H226 C221 0.930 . S
O227 Cu207 1.959 . S
O227 C214 1.251 . S
H228 C211 0.930 . S
H229 C222 0.929 . S
Cu230 N231 1.999 . S
Cu230 O236 1.974 . S
Cu230 N241 1.985 . S
Cu230 O250 1.959 . S
N231 Cu230 1.999 . S
N231 C233 1.263 . S
N231 C235 1.389 . S
N232 C233 1.358 . S
N232 C234 1.400 . S
C233 N231 1.263 . S
C233 N232 1.358 . S
C233 H239 0.930 . S
C234 N232 1.400 . S
C234 C235 1.351 . S
C234 H251 0.930 . S
C235 N231 1.389 . S
C235 C234 1.351 . S
C235 H240 0.930 . S
O236 Cu230 1.974 . S
O236 C246 1.282 . S
C237 O238 1.261 . S
C237 O250 1.251 . S
O238 C237 1.261 . S
H239 C233 0.930 . S
H240 C235 0.930 . S
N241 Cu230 1.985 . S
N241 C243 1.335 . S
N241 C244 1.390 . S
N242 C243 1.345 . S
N242 C245 1.336 . S
C243 N241 1.335 . S
C243 N242 1.345 . S
C243 H248 0.930 . S
C244 N241 1.390 . S
C244 C245 1.346 . S
C244 H249 0.930 . S
C245 N242 1.336 . S
C245 C244 1.346 . S
C245 H252 0.929 . S
C246 O236 1.282 . S
C246 O247 1.216 . S
O247 C246 1.216 . S
H248 C243 0.930 . S
H249 C244 0.930 . S
O250 Cu230 1.959 . S
O250 C237 1.251 . S
H251 C234 0.930 . S
H252 C245 0.929 . S
Cu253 N254 1.991 1_554 S
Cu253 O259 1.974 . S
Cu253 N264 1.993 . S
Cu253 O273 1.959 1_554 S
N254 Cu253 1.991 1_556 S
N254 C256 1.263 . S
N254 C258 1.389 . S
N255 C256 1.358 . S
N255 C257 1.400 . S
C256 N254 1.263 . S
C256 N255 1.358 . S
C256 H262 0.930 . S
C257 N255 1.400 . S
C257 C258 1.351 . S
C257 H274 0.930 . S
C258 N254 1.389 . S
C258 C257 1.351 . S
C258 H263 0.930 . S
O259 Cu253 1.974 . S
O259 C269 1.284 . S
C260 O261 1.261 . S
C260 O273 1.248 1_554 S
O261 C260 1.261 . S
H262 C256 0.930 . S
H263 C258 0.930 . S
N264 Cu253 1.993 . S
N264 C266 1.335 . S
N264 C267 1.390 . S
N265 C266 1.345 . S
N265 C268 1.336 . S
C266 N264 1.335 . S
C266 N265 1.345 . S
C266 H271 0.930 . S
C267 N264 1.390 . S
C267 C268 1.346 . S
C267 H272 0.930 . S
C268 N265 1.336 . S
C268 C267 1.346 . S
C268 H275 0.929 . S
C269 O259 1.284 . S
C269 O270 1.216 . S
O270 C269 1.216 . S
H271 C266 0.930 . S
H272 C267 0.930 . S
O273 Cu253 1.959 1_556 S
O273 C260 1.248 1_556 S
H274 C257 0.930 . S
H275 C268 0.929 . S
C7 C237 3.042 . S
C30 N255 1.881 . S
C145 N48 1.881 . S
C76 C168 3.042 . S
N186 C99 1.881 . S
C214 N117 1.881 . S
N140 N2 0.784 . S
N163 N25 0.784 . S
C191 C53 2.182 1_554 S
N71 N209 0.784 . S
N94 N232 0.784 . S
C122 C260 2.182 1_556 S
N12 N81 4.160 1_545 S
N35 N104 4.107 . S
C62 C131 3.310 1_655 S
N219 N150 4.107 1_455 S
N242 N173 4.159 1_545 S
C269 C200 3.310 . S
C16 N196 2.780 . S
C223 C39 1.873 . S
N58 C246 2.779 . S
N265 C85 2.780 . S
C108 C154 1.873 . S
N127 C177 2.779 . S
