# Generated by pormake.
# Topology uow, (4)-cn, num edge types: 1
# Building blocks:
#     Node 0, Type 0, BuildingBlock: NAHDIM_clean_sbu_0, # of connection points: 4
#     Node 1, Type 0, BuildingBlock: NAHDIM_clean_sbu_0, # of connection points: 4
#     Node 2, Type 0, BuildingBlock: NAHDIM_clean_sbu_0, # of connection points: 4
#     Node 3, Type 0, BuildingBlock: NAHDIM_clean_sbu_0, # of connection points: 4
#     Node 4, Type 0, BuildingBlock: NAHDIM_clean_sbu_0, # of connection points: 4
#     Node 5, Type 0, BuildingBlock: NAHDIM_clean_sbu_0, # of connection points: 4
#     Node 6, Type 0, BuildingBlock: NAHDIM_clean_sbu_0, # of connection points: 4
#     Node 7, Type 0, BuildingBlock: NAHDIM_clean_sbu_0, # of connection points: 4
#     Node 8, Type 0, BuildingBlock: NAHDIM_clean_sbu_0, # of connection points: 4
#     Node 9, Type 0, BuildingBlock: NAHDIM_clean_sbu_0, # of connection points: 4
#     Node 10, Type 0, BuildingBlock: NAHDIM_clean_sbu_0, # of connection points: 4
#     Node 11, Type 0, BuildingBlock: NAHDIM_clean_sbu_0, # of connection points: 4
#     Node 12, Type 0, BuildingBlock: NAHDIM_clean_sbu_0, # of connection points: 4
#     Node 13, Type 0, BuildingBlock: NAHDIM_clean_sbu_0, # of connection points: 4
#     Node 14, Type 0, BuildingBlock: NAHDIM_clean_sbu_0, # of connection points: 4
#     Node 15, Type 0, BuildingBlock: NAHDIM_clean_sbu_0, # of connection points: 4
#     Node 16, Type 0, BuildingBlock: NAHDIM_clean_sbu_0, # of connection points: 4
#     Node 17, Type 0, BuildingBlock: NAHDIM_clean_sbu_0, # of connection points: 4
#     Node 18, Type 0, BuildingBlock: NAHDIM_clean_sbu_0, # of connection points: 4
#     Node 19, Type 0, BuildingBlock: NAHDIM_clean_sbu_0, # of connection points: 4
#     Node 20, Type 0, BuildingBlock: NAHDIM_clean_sbu_0, # of connection points: 4
#     Node 21, Type 0, BuildingBlock: NAHDIM_clean_sbu_0, # of connection points: 4
#     Node 22, Type 0, BuildingBlock: NAHDIM_clean_sbu_0, # of connection points: 4
#     Node 23, Type 0, BuildingBlock: NAHDIM_clean_sbu_0, # of connection points: 4
#     Node 24, Type 0, BuildingBlock: NAHDIM_clean_sbu_0, # of connection points: 4
#     Node 25, Type 0, BuildingBlock: NAHDIM_clean_sbu_0, # of connection points: 4
#     Node 26, Type 0, BuildingBlock: NAHDIM_clean_sbu_0, # of connection points: 4
#     Node 27, Type 0, BuildingBlock: NAHDIM_clean_sbu_0, # of connection points: 4
#     Node 28, Type 0, BuildingBlock: NAHDIM_clean_sbu_0, # of connection points: 4
#     Node 29, Type 0, BuildingBlock: NAHDIM_clean_sbu_0, # of connection points: 4
#     Node 30, Type 0, BuildingBlock: NAHDIM_clean_sbu_0, # of connection points: 4
#     Node 31, Type 0, BuildingBlock: NAHDIM_clean_sbu_0, # of connection points: 4
#     Edge 32, Type (0, 0), BuildingBlock: XIVTED_clean_linker_0, # of connection points: 2
#     Edge 33, Type (0, 0), BuildingBlock: XIVTED_clean_linker_0, # of connection points: 2
#     Edge 34, Type (0, 0), BuildingBlock: XIVTED_clean_linker_0, # of connection points: 2
#     Edge 35, Type (0, 0), BuildingBlock: XIVTED_clean_linker_0, # of connection points: 2
#     Edge 36, Type (0, 0), BuildingBlock: XIVTED_clean_linker_0, # of connection points: 2
#     Edge 37, Type (0, 0), BuildingBlock: XIVTED_clean_linker_0, # of connection points: 2
#     Edge 38, Type (0, 0), BuildingBlock: XIVTED_clean_linker_0, # of connection points: 2
#     Edge 39, Type (0, 0), BuildingBlock: XIVTED_clean_linker_0, # of connection points: 2
#     Edge 40, Type (0, 0), BuildingBlock: XIVTED_clean_linker_0, # of connection points: 2
#     Edge 41, Type (0, 0), BuildingBlock: XIVTED_clean_linker_0, # of connection points: 2
#     Edge 42, Type (0, 0), BuildingBlock: XIVTED_clean_linker_0, # of connection points: 2
#     Edge 43, Type (0, 0), BuildingBlock: XIVTED_clean_linker_0, # of connection points: 2
#     Edge 44, Type (0, 0), BuildingBlock: XIVTED_clean_linker_0, # of connection points: 2
#     Edge 45, Type (0, 0), BuildingBlock: XIVTED_clean_linker_0, # of connection points: 2
#     Edge 46, Type (0, 0), BuildingBlock: XIVTED_clean_linker_0, # of connection points: 2
#     Edge 47, Type (0, 0), BuildingBlock: XIVTED_clean_linker_0, # of connection points: 2
#     Edge 48, Type (0, 0), BuildingBlock: XIVTED_clean_linker_0, # of connection points: 2
#     Edge 49, Type (0, 0), BuildingBlock: XIVTED_clean_linker_0, # of connection points: 2
#     Edge 50, Type (0, 0), BuildingBlock: XIVTED_clean_linker_0, # of connection points: 2
#     Edge 51, Type (0, 0), BuildingBlock: XIVTED_clean_linker_0, # of connection points: 2
#     Edge 52, Type (0, 0), BuildingBlock: XIVTED_clean_linker_0, # of connection points: 2
#     Edge 53, Type (0, 0), BuildingBlock: XIVTED_clean_linker_0, # of connection points: 2
#     Edge 54, Type (0, 0), BuildingBlock: XIVTED_clean_linker_0, # of connection points: 2
#     Edge 55, Type (0, 0), BuildingBlock: XIVTED_clean_linker_0, # of connection points: 2
#     Edge 56, Type (0, 0), BuildingBlock: XIVTED_clean_linker_0, # of connection points: 2
#     Edge 57, Type (0, 0), BuildingBlock: XIVTED_clean_linker_0, # of connection points: 2
#     Edge 58, Type (0, 0), BuildingBlock: XIVTED_clean_linker_0, # of connection points: 2
#     Edge 59, Type (0, 0), BuildingBlock: XIVTED_clean_linker_0, # of connection points: 2
#     Edge 60, Type (0, 0), BuildingBlock: XIVTED_clean_linker_0, # of connection points: 2
#     Edge 61, Type (0, 0), BuildingBlock: XIVTED_clean_linker_0, # of connection points: 2
#     Edge 62, Type (0, 0), BuildingBlock: XIVTED_clean_linker_0, # of connection points: 2
#     Edge 63, Type (0, 0), BuildingBlock: XIVTED_clean_linker_0, # of connection points: 2
#     Edge 64, Type (0, 0), BuildingBlock: XIVTED_clean_linker_0, # of connection points: 2
#     Edge 65, Type (0, 0), BuildingBlock: XIVTED_clean_linker_0, # of connection points: 2
#     Edge 66, Type (0, 0), BuildingBlock: XIVTED_clean_linker_0, # of connection points: 2
#     Edge 67, Type (0, 0), BuildingBlock: XIVTED_clean_linker_0, # of connection points: 2
#     Edge 68, Type (0, 0), BuildingBlock: XIVTED_clean_linker_0, # of connection points: 2
#     Edge 69, Type (0, 0), BuildingBlock: XIVTED_clean_linker_0, # of connection points: 2
#     Edge 70, Type (0, 0), BuildingBlock: XIVTED_clean_linker_0, # of connection points: 2
#     Edge 71, Type (0, 0), BuildingBlock: XIVTED_clean_linker_0, # of connection points: 2
#     Edge 72, Type (0, 0), BuildingBlock: XIVTED_clean_linker_0, # of connection points: 2
#     Edge 73, Type (0, 0), BuildingBlock: XIVTED_clean_linker_0, # of connection points: 2
#     Edge 74, Type (0, 0), BuildingBlock: XIVTED_clean_linker_0, # of connection points: 2
#     Edge 75, Type (0, 0), BuildingBlock: XIVTED_clean_linker_0, # of connection points: 2
#     Edge 76, Type (0, 0), BuildingBlock: XIVTED_clean_linker_0, # of connection points: 2
#     Edge 77, Type (0, 0), BuildingBlock: XIVTED_clean_linker_0, # of connection points: 2
#     Edge 78, Type (0, 0), BuildingBlock: XIVTED_clean_linker_0, # of connection points: 2
#     Edge 79, Type (0, 0), BuildingBlock: XIVTED_clean_linker_0, # of connection points: 2
#     Edge 80, Type (0, 0), BuildingBlock: XIVTED_clean_linker_0, # of connection points: 2
#     Edge 81, Type (0, 0), BuildingBlock: XIVTED_clean_linker_0, # of connection points: 2
#     Edge 82, Type (0, 0), BuildingBlock: XIVTED_clean_linker_0, # of connection points: 2
#     Edge 83, Type (0, 0), BuildingBlock: XIVTED_clean_linker_0, # of connection points: 2
#     Edge 84, Type (0, 0), BuildingBlock: XIVTED_clean_linker_0, # of connection points: 2
#     Edge 85, Type (0, 0), BuildingBlock: XIVTED_clean_linker_0, # of connection points: 2
#     Edge 86, Type (0, 0), BuildingBlock: XIVTED_clean_linker_0, # of connection points: 2
#     Edge 87, Type (0, 0), BuildingBlock: XIVTED_clean_linker_0, # of connection points: 2
#     Edge 88, Type (0, 0), BuildingBlock: XIVTED_clean_linker_0, # of connection points: 2
#     Edge 89, Type (0, 0), BuildingBlock: XIVTED_clean_linker_0, # of connection points: 2
#     Edge 90, Type (0, 0), BuildingBlock: XIVTED_clean_linker_0, # of connection points: 2
#     Edge 91, Type (0, 0), BuildingBlock: XIVTED_clean_linker_0, # of connection points: 2
#     Edge 92, Type (0, 0), BuildingBlock: XIVTED_clean_linker_0, # of connection points: 2
#     Edge 93, Type (0, 0), BuildingBlock: XIVTED_clean_linker_0, # of connection points: 2
#     Edge 94, Type (0, 0), BuildingBlock: XIVTED_clean_linker_0, # of connection points: 2
#     Edge 95, Type (0, 0), BuildingBlock: XIVTED_clean_linker_0, # of connection points: 2
# Relax obj value: 0.216
# Max RMSD: 0.240
# Mean RMSD: 0.240
data_MOF--net-uow--node1-NAHDIM_clean_sbu_0--edge1-XIVTED_clean_linker_0
_symmetry_space_group_name_H-M    P1
_symmetry_Int_Tables_number       1
_symmetry_cell_setting            triclinic
loop_
_symmetry_equiv_pos_as_xyz
'x, y, z'
_cell_length_a     62.475655
_cell_length_b     62.546871
_cell_length_c     39.527719
_cell_angle_alpha  89.969612
_cell_angle_beta   89.962802
_cell_angle_gamma 89.924768
loop_
_atom_site_label
_atom_site_type_symbol
_atom_site_fract_x
_atom_site_fract_y
_atom_site_fract_z
_atom_type_partial_charge
C0 C 0.04601 0.4014 0.19767 0.0
O1 O 0.03668 0.38641 0.17968 0.0
O2 O 0.01925 0.36386 0.26287 0.0
Zn3 Zn 0.04917 0.36732 0.24508 0.0
O4 O 0.05623 0.34655 0.20812 0.0
C5 C 0.06554 0.36834 0.31315 0.0
O6 O 0.04803 0.37942 0.31893 0.0
O7 O 0.05286 0.39695 0.2271 0.0
C8 C 0.04782 0.32837 0.20288 0.0
O9 O 0.03243 0.3215 0.22273 0.0
C10 C 0.00232 0.36075 0.24578 0.0
O11 O 0.00345 0.35912 0.2127 0.0
O12 O 0.06958 0.36208 0.28325 0.0
C13 C 0.82902 0.76803 0.53235 0.0
O14 O 0.84097 0.75582 0.51296 0.0
O15 O 0.87521 0.74273 0.57885 0.0
Zn16 Zn 0.86895 0.77259 0.5631 0.0
O17 O 0.88245 0.77879 0.51801 0.0
C18 C 0.89023 0.78893 0.62365 0.0
O19 O 0.88904 0.76917 0.63474 0.0
O20 O 0.83748 0.7771 0.55778 0.0
C21 C 0.88233 0.79843 0.5098 0.0
O22 O 0.87374 0.81236 0.53067 0.0
C23 C 0.88529 0.72894 0.56143 0.0
O24 O 0.89155 0.73381 0.53065 0.0
O25 O 0.88175 0.79372 0.59545 0.0
C26 C 0.43642 0.57464 0.78418 0.0
O27 O 0.44233 0.58727 0.80902 0.0
O28 O 0.46649 0.62158 0.75434 0.0
Zn29 Zn 0.43546 0.6141 0.74752 0.0
O30 O 0.42653 0.62124 0.70008 0.0
C31 C 0.41082 0.64943 0.77117 0.0
O32 O 0.41462 0.65603 0.74019 0.0
O33 O 0.43169 0.58279 0.7557 0.0
C34 C 0.43959 0.62253 0.67552 0.0
O35 O 0.45994 0.6183 0.68058 0.0
C36 C 0.48142 0.60782 0.75202 0.0
O37 O 0.47681 0.588 0.74391 0.0
O38 O 0.41796 0.63133 0.78049 0.0
C39 C 0.65791 0.19415 0.0495 0.0
O40 O 0.64449 0.18081 0.03509 0.0
O41 O 0.61469 0.25068 0.05701 0.0
Zn42 Zn 0.62059 0.21948 0.04908 0.0
O43 O 0.61443 0.21137 0.00089 0.0
C44 C 0.59859 0.20843 0.11043 0.0
O45 O 0.60835 0.22561 0.12168 0.0
O46 O 0.65121 0.21243 0.05872 0.0
C47 C 0.59637 0.20391 0.99215 0.0
O48 O 0.58113 0.2021 0.01489 0.0
C49 C 0.60157 0.26121 0.03894 0.0
O50 O 0.59249 0.25188 0.01288 0.0
O51 O 0.60174 0.20247 0.08011 0.0
C52 C 0.03852 0.55457 0.1308 0.0
O53 O 0.02454 0.56146 0.1085 0.0
O54 O 0.00804 0.60295 0.14307 0.0
Zn55 Zn 0.03933 0.59865 0.15295 0.0
O56 O 0.04557 0.60925 0.19965 0.0
C57 C 0.04926 0.62311 0.09305 0.0
O58 O 0.02959 0.61797 0.08459 0.0
O59 O 0.04698 0.56774 0.15121 0.0
C60 C 0.04098 0.62832 0.20802 0.0
O61 O 0.03212 0.64107 0.18561 0.0
C62 C 0.99374 0.60396 0.16591 0.0
O63 O -0.00089 0.60114 0.19772 0.0
O64 O 0.05703 0.61592 0.12049 0.0
C65 C 0.67581 0.7931 0.46969 0.0
O66 O 0.66688 0.78209 0.4452 0.0
O67 O 0.62335 0.77515 0.46636 0.0
Zn68 Zn 0.63219 0.80373 0.48461 0.0
O69 O 0.61936 0.80901 0.53026 0.0
C70 C 0.62227 0.82309 0.42099 0.0
O71 O 0.63127 0.80553 0.40953 0.0
O72 O 0.66409 0.80425 0.48915 0.0
C73 C 0.60003 0.80488 0.53781 0.0
O74 O 0.58742 0.79631 0.51497 0.0
C75 C 0.62027 0.75837 0.48377 0.0
O76 O 0.62234 0.75906 0.51682 0.0
O77 O 0.62164 0.82631 0.4527 0.0
C78 C 0.48051 0.42134 0.78611 0.0
O79 O 0.48487 0.41061 0.81384 0.0
O80 O 0.5177 0.37662 0.73057 0.0
Zn81 Zn 0.48886 0.38102 0.75218 0.0
O82 O 0.48561 0.36564 0.7966 0.0
C83 C 0.46908 0.36739 0.6892 0.0
O84 O 0.48641 0.37526 0.67508 0.0
O85 O 0.48195 0.41208 0.7576 0.0
C86 C 0.47994 0.34613 0.7962 0.0
O87 O 0.47838 0.33622 0.76701 0.0
C88 C 0.53048 0.36173 0.73897 0.0
O89 O 0.52582 0.3496 0.76507 0.0
O90 O 0.46677 0.36865 0.72106 0.0
C91 C 0.81547 0.18101 0.03082 0.0
O92 O 0.8288 0.18978 0.05241 0.0
O93 O 0.85205 0.21468 0.97173 0.0
Zn94 Zn 0.85187 0.18406 0.98736 0.0
O95 O 0.87229 0.17956 0.02599 0.0
C96 C 0.857 0.16957 0.91847 0.0
O97 O 0.84433 0.18579 0.91166 0.0
O98 O 0.82201 0.17641 0.00126 0.0
C99 C 0.8889 0.19088 0.03075 0.0
O100 O 0.89313 0.20679 0.01012 0.0
C101 C 0.8507 0.23074 0.99132 0.0
O102 O 0.84933 0.22774 0.02414 0.0
O103 O 0.86173 0.16552 0.94906 0.0
C104 C 0.9749 0.56951 0.80289 0.0
O105 O 0.98971 0.57931 0.82064 0.0
O106 O 0.00516 0.6058 0.73674 0.0
Zn107 Zn 0.97681 0.60727 0.76073 0.0
O108 O 0.9768 0.62777 0.8 0.0
C109 C 0.95714 0.61662 0.69571 0.0
O110 O 0.97385 0.60655 0.68324 0.0
O111 O 0.96754 0.57837 0.77642 0.0
C112 C 0.97251 0.64735 0.79455 0.0
O113 O 0.97001 0.65395 0.76324 0.0
C114 C 0.01986 0.6196 0.74045 0.0
O115 O 0.01753 0.6347 0.76324 0.0
O116 O 0.95497 0.61809 0.72758 0.0
C117 C 0.16898 0.23562 0.5473 0.0
O118 O 0.15616 0.25015 0.56022 0.0
O119 O 0.13361 0.25936 0.47757 0.0
Zn120 Zn 0.13459 0.23061 0.49997 0.0
O121 O 0.11143 0.22828 0.53494 0.0
C122 C 0.13122 0.21124 0.43339 0.0
O123 O 0.13961 0.22935 0.42302 0.0
O124 O 0.16311 0.22533 0.52123 0.0
C125 C 0.09237 0.22482 0.52519 0.0
O126 O 0.08829 0.22378 0.49262 0.0
C127 C 0.12422 0.2756 0.48995 0.0
O128 O 0.11542 0.27426 0.52006 0.0
O129 O 0.12861 0.20811 0.46489 0.0
C130 C 0.51344 0.41934 0.27569 0.0
O131 O 0.50273 0.40716 0.29683 0.0
O132 O 0.47976 0.38071 0.21643 0.0
Zn133 Zn 0.51018 0.38271 0.23246 0.0
O134 O 0.51591 0.36313 0.27162 0.0
C135 C 0.52476 0.37244 0.16422 0.0
O136 O 0.50538 0.37808 0.15491 0.0
O137 O 0.51777 0.41239 0.24629 0.0
C138 C 0.52046 0.34356 0.26676 0.0
O139 O 0.51983 0.33584 0.23587 0.0
C140 C 0.46477 0.37196 0.23316 0.0
O141 O 0.46875 0.36438 0.26351 0.0
O142 O 0.53002 0.37373 0.19518 0.0
C143 C 0.31282 0.79902 0.99222 0.0
O144 O 0.32589 0.78674 0.00957 0.0
O145 O 0.35259 0.77745 0.92224 0.0
Zn146 Zn 0.34996 0.80363 0.95116 0.0
O147 O 0.36868 0.80095 0.99222 0.0
C148 C 0.36238 0.82904 0.89289 0.0
O149 O 0.3535 0.81353 0.87546 0.0
O150 O 0.31958 0.80815 0.96556 0.0
C151 C 0.38845 0.8055 0.99002 0.0
O152 O 0.3965 0.81078 0.96046 0.0
C153 C 0.35733 0.75906 0.93363 0.0
O154 O 0.36009 0.75645 0.96632 0.0
O155 O 0.36114 0.82874 0.92496 0.0
C156 C 0.93205 0.41893 0.84906 0.0
O157 O 0.94343 0.40644 0.86884 0.0
O158 O 0.94462 0.36405 0.82956 0.0
Zn159 Zn 0.91705 0.37914 0.81915 0.0
O160 O 0.91048 0.37431 0.7701 0.0
C161 C 0.89626 0.36372 0.87903 0.0
O162 O 0.91227 0.37355 0.89386 0.0
O163 O 0.91949 0.41065 0.82747 0.0
C164 C 0.91387 0.35592 0.75756 0.0
O165 O 0.92127 0.34063 0.77716 0.0
C166 C 0.96312 0.36996 0.82008 0.0
O167 O 0.96533 0.38785 0.803 0.0
O168 O 0.89429 0.36512 0.84712 0.0
C169 C 0.32241 0.2222 0.6077 0.0
O170 O 0.33201 0.23805 0.62329 0.0
O171 O 0.3741 0.24293 0.59318 0.0
Zn172 Zn 0.36478 0.21313 0.58135 0.0
O173 O 0.37017 0.20718 0.53215 0.0
C174 C 0.40157 0.18986 0.59798 0.0
O175 O 0.40796 0.2005 0.57116 0.0
O176 O 0.33341 0.20937 0.58985 0.0
C177 C 0.369 0.18794 0.52208 0.0
O178 O 0.36352 0.17298 0.54375 0.0
C179 C 0.38606 0.25414 0.57416 0.0
O180 O 0.39215 0.24645 0.54477 0.0
O181 O 0.38256 0.19255 0.60865 0.0
C182 C 0.54972 0.5704 0.32585 0.0
O183 O 0.53798 0.58138 0.34726 0.0
O184 O 0.52349 0.61838 0.29622 0.0
Zn185 Zn 0.55475 0.6112 0.29175 0.0
O186 O 0.56409 0.61645 0.24372 0.0
C187 C 0.56531 0.63373 0.35299 0.0
O188 O 0.54777 0.62452 0.36402 0.0
O189 O 0.55903 0.58008 0.30172 0.0
C190 C 0.55279 0.6274 0.22333 0.0
O191 O 0.53484 0.636 0.23403 0.0
C192 C 0.50856 0.60544 0.2887 0.0
O193 O 0.5133 0.58617 0.27779 0.0
O194 O 0.57168 0.62998 0.32303 0.0
C195 C 0.15635 0.80253 0.04122 0.0
O196 O 0.14798 0.79278 0.06752 0.0
O197 O 0.10479 0.77242 0.0146 0.0
Zn198 Zn 0.11285 0.80352 0.01204 0.0
O199 O 0.1048 0.81463 0.96632 0.0
C200 C 0.09356 0.81139 0.07673 0.0
O201 O 0.10206 0.79268 0.08373 0.0
O202 O 0.14443 0.80806 0.01672 0.0
C203 C 0.11282 0.80545 0.94061 0.0
O204 O 0.12544 0.78886 0.94504 0.0
C205 C 0.11767 0.75668 0.0143 0.0
O206 O 0.13835 0.76011 0.01184 0.0
O207 O 0.0965 0.81953 0.04763 0.0
C208 C 0.55141 0.91801 0.84799 0.0
O209 O 0.53613 0.9128 0.8693 0.0
O210 O 0.5154 0.87583 0.83509 0.0
Zn211 Zn 0.5471 0.87429 0.82656 0.0
O212 O 0.55339 0.86322 0.78008 0.0
C213 C 0.55047 0.83884 0.87124 0.0
O214 O 0.53019 0.83717 0.86291 0.0
O215 O 0.55919 0.90376 0.82869 0.0
C216 C 0.54493 0.84692 0.7664 0.0
O217 O 0.53022 0.8361 0.78285 0.0
C218 C 0.50135 0.87874 0.81231 0.0
O219 O 0.50729 0.88091 0.78062 0.0
O220 O 0.56128 0.85443 0.85971 0.0
C221 C 0.31913 0.28568 0.97137 0.0
O222 O 0.33466 0.275 0.9566 0.0
O223 O 0.3545 0.26279 0.04207 0.0
Zn224 Zn 0.35171 0.29172 0.02056 0.0
O225 O 0.37438 0.29487 0.98492 0.0
C226 C 0.35423 0.31063 0.08724 0.0
O227 O 0.34566 0.29242 0.0968 0.0
O228 O 0.32268 0.29473 -0.0004 0.0
C229 C 0.39313 0.30092 0.99282 0.0
O230 O 0.39761 0.30507 0.02462 0.0
C231 C 0.36224 0.24675 0.02659 0.0
O232 O 0.36825 0.2488 0.99491 0.0
O233 O 0.35697 0.3142 0.05589 0.0
C234 C 0.98626 0.07954 0.26102 0.0
O235 O -0.00136 0.08971 0.23949 0.0
O236 O 0.01413 0.12706 0.303 0.0
Zn237 Zn 0.98416 0.12119 0.28711 0.0
O238 O 0.97841 0.13241 0.24049 0.0
C239 C 0.96743 0.13878 0.34953 0.0
O240 O 0.98523 0.1312 0.36255 0.0
O241 O 0.97833 0.08978 0.28579 0.0
C242 C 0.97496 0.15199 0.23395 0.0
O243 O 0.97687 0.16624 0.25817 0.0
C244 C 0.02834 0.13713 0.28644 0.0
O245 O 0.0241 0.14372 0.2556 0.0
O246 O 0.96353 0.13579 0.31836 0.0
C247 C 0.16231 0.67992 0.50285 0.0
O248 O 0.15575 0.68011 0.53444 0.0
O249 O 0.11081 0.71767 0.4905 0.0
Zn250 Zn 0.11747 0.6862 0.48817 0.0
O251 O 0.10113 0.67277 0.45004 0.0
C252 C 0.10457 0.65357 0.53662 0.0
O253 O 0.10518 0.64064 0.51045 0.0
O254 O 0.14872 0.682 0.47921 0.0
C255 C 0.08611 0.68247 0.43473 0.0
O256 O 0.08031 0.7016 0.44495 0.0
C257 C 0.1246 0.73178 0.49815 0.0
O258 O 0.14442 0.72597 0.50426 0.0
O259 O 0.10923 0.67317 0.53265 0.0
C260 C 0.55889 0.06861 0.76966 0.0
O261 O 0.54937 0.08412 0.78629 0.0
O262 O 0.53446 0.10654 0.70086 0.0
Zn263 Zn 0.56327 0.10212 0.72216 0.0
O264 O 0.56602 0.12269 0.76087 0.0
C265 C 0.58185 0.1068 0.65592 0.0
O266 O 0.56379 0.09791 0.6464 0.0
O267 O 0.56632 0.07232 0.74029 0.0
C268 C 0.58244 0.13413 0.76623 0.0
O269 O 0.59871 0.1331 0.74522 0.0
C270 C 0.5179 0.1119 0.71749 0.0
O271 O 0.51905 0.11353 0.75057 0.0
O272 O 0.58564 0.10901 0.68731 0.0
C273 C 0.16708 0.26733 0.90436 0.0
O274 O 0.16171 0.25177 0.88375 0.0
O275 O 0.11992 0.23529 0.90911 0.0
Zn276 Zn 0.12266 0.26541 0.92636 0.0
O277 O 0.11383 0.26757 0.97506 0.0
C278 C 0.0863 0.27681 0.88655 0.0
O279 O 0.08295 0.25615 0.88902 0.0
O280 O 0.15297 0.27553 0.92351 0.0
C281 C 0.09496 0.2639 0.98556 0.0
O282 O 0.08035 0.25727 0.96411 0.0
C283 C 0.11619 0.21894 0.92727 0.0
O284 O 0.11532 0.22091 0.96032 0.0
O285 O 0.10306 0.28474 0.89972 0.0
C286 C 0.94667 0.92741 0.21368 0.0
O287 O 0.95661 0.91696 0.18951 0.0
O288 O 0.96177 0.87477 0.21155 0.0
Zn289 Zn 0.93428 0.88505 0.23225 0.0
O290 O 0.93066 0.87322 0.27893 0.0
C291 C 0.90991 0.87713 0.17166 0.0
O292 O 0.92432 0.88972 0.15793 0.0
O293 O 0.93514 0.91712 0.23458 0.0
C294 C 0.92815 0.85327 0.28347 0.0
O295 O 0.9285 0.8404 0.25721 0.0
C296 C 0.97747 0.86621 0.22682 0.0
O297 O 0.97645 0.86298 0.25962 0.0
O298 O 0.91035 0.87396 0.20339 0.0
C299 C 0.31657 0.69728 0.44214 0.0
O300 O 0.32942 0.7056 0.46489 0.0
O301 O 0.3621 0.72805 0.40102 0.0
Zn302 Zn 0.35565 0.69695 0.40847 0.0
O303 O 0.3695 0.68634 0.45104 0.0
C304 C 0.37066 0.66048 0.37075 0.0
O305 O 0.36214 0.64969 0.3959 0.0
O306 O 0.32412 0.69229 0.41334 0.0
C307 C 0.38914 0.68136 0.4536 0.0
O308 O 0.40184 0.68367 0.42735 0.0
C309 C 0.3717 0.73984 0.42233 0.0
O310 O 0.37703 0.73193 0.45194 0.0
O311 O 0.36839 0.68066 0.36987 0.0
C312 C 0.42286 0.0784 0.2537 0.0
O313 O 0.40875 0.0882 0.2729 0.0
O314 O 0.46536 0.1315 0.22423 0.0
Zn315 Zn 0.43616 0.12133 0.23818 0.0
O316 O 0.42832 0.13098 0.28494 0.0
C317 C 0.41821 0.13178 0.17378 0.0
O318 O 0.43468 0.1206 0.16301 0.0
O319 O 0.43587 0.08941 0.23623 0.0
C320 C 0.4212 0.14973 0.29013 0.0
O321 O 0.41992 0.16321 0.2647 0.0
C322 C 0.47682 0.14511 0.23972 0.0
O323 O 0.46994 0.15338 0.26826 0.0
O324 O 0.41508 0.13358 0.20539 0.0
C325 C 0.67309 0.67269 0.90985 0.0
O326 O 0.6626 0.68393 0.88719 0.0
O327 O 0.61876 0.6903 0.9306 0.0
Zn328 Zn 0.63072 0.66051 0.93244 0.0
O329 O 0.62127 0.64816 0.97675 0.0
C330 C 0.61345 0.65399 0.86686 0.0
O331 O 0.61977 0.67391 0.86372 0.0
O332 O 0.66274 0.66115 0.93062 0.0
C333 C 0.60172 0.65058 0.98479 0.0
O334 O 0.58869 0.65983 0.96317 0.0
C335 C 0.62748 0.70727 0.94158 0.0
O336 O 0.64657 0.70638 0.95542 0.0
O337 O 0.61757 0.64401 0.89412 0.0
C338 C 0.04768 0.92678 0.63416 0.0
O339 O 0.03508 0.91503 0.61519 0.0
O340 O 0.03012 0.87575 0.65838 0.0
Zn341 Zn 0.06073 0.88587 0.6586 0.0
O342 O 0.07399 0.87751 0.70288 0.0
C343 C 0.06718 0.86505 0.59454 0.0
O344 O 0.04672 0.86933 0.59083 0.0
O345 O 0.06081 0.91764 0.654 0.0
C346 C 0.08112 0.85864 0.70694 0.0
O347 O 0.08064 0.84523 0.68139 0.0
C348 C 0.02053 0.86838 0.68426 0.0
O349 O 0.0307 0.86717 0.71326 0.0
O350 O 0.0768 0.87156 0.62088 0.0
C351 C 0.83099 0.2941 0.48696 0.0
O352 O 0.84368 0.28664 0.5107 0.0
O353 O 0.88036 0.26996 0.44528 0.0
Zn354 Zn 0.87121 0.29983 0.45722 0.0
O355 O 0.88312 0.30822 0.50243 0.0
C356 C 0.88202 0.31485 0.39079 0.0
O357 O 0.87141 0.29769 0.38156 0.0
O358 O 0.83918 0.30106 0.45966 0.0
C359 C 0.879 0.32656 0.5146 0.0
O360 O 0.86759 0.3401 0.49667 0.0
C361 C 0.89186 0.25823 0.46423 0.0
O362 O 0.89784 0.2654 0.49399 0.0
O363 O 0.8831 0.31955 0.422 0.0
C364 C 0.44297 0.91986 0.26931 0.0
O365 O 0.43066 0.90784 0.28836 0.0
O366 O 0.49534 0.87522 0.27043 0.0
Zn367 Zn 0.46506 0.88 0.25543 0.0
O368 O 0.46099 0.86722 0.20933 0.0
C369 C 0.44818 0.86163 0.31832 0.0
O370 O 0.46571 0.86903 0.33237 0.0
O371 O 0.45845 0.91139 0.25329 0.0
C372 C 0.45619 0.84754 0.20674 0.0
O373 O 0.4548 0.83582 0.23424 0.0
C374 C 0.50477 0.88798 0.29046 0.0
O375 O 0.49459 0.90506 0.30127 0.0
O376 O 0.44483 0.86491 0.28705 0.0
C377 C 0.82249 0.71042 0.97517 0.0
O378 O 0.83436 0.72318 0.95659 0.0
O379 O 0.85744 0.73951 0.04689 0.0
Zn380 Zn 0.85839 0.71199 0.02093 0.0
O381 O 0.8791 0.71414 0.98221 0.0
C382 C 0.87264 0.68868 0.08154 0.0
O383 O 0.86755 0.706 0.09853 0.0
O384 O 0.82944 0.70407 0.00365 0.0
C385 C 0.89896 0.7121 0.98846 0.0
O386 O 0.90527 0.71027 0.02003 0.0
C387 C 0.85896 0.75739 0.03183 0.0
O388 O 0.86074 0.75778 -0.00128 0.0
O389 O 0.8693 0.688 0.04988 0.0
C390 C 0.00589 0.0765 0.68771 0.0
O391 O 0.993 0.08825 0.66915 0.0
O392 O 0.9778 0.11335 0.75831 0.0
Zn393 Zn 0.00571 0.11275 0.73327 0.0
O394 O 0.00619 0.13391 0.69518 0.0
C395 C 0.02972 0.11788 0.79629 0.0
O396 O 0.01375 0.10763 0.81057 0.0
O397 O 0.01253 0.08363 0.71586 0.0
C398 C 0.00897 0.1535 0.70243 0.0
O399 O 0.00956 0.15924 0.73439 0.0
C400 C 0.96064 0.121 0.74601 0.0
O401 O 0.9606 0.12829 0.71484 0.0
O402 O 0.02939 0.1213 0.76463 0.0
C403 C 0.67292 0.2826 0.5218 0.0
O404 O 0.66521 0.28345 0.5527 0.0
O405 O 0.6267 0.2377 0.51385 0.0
Zn406 Zn 0.63002 0.26944 0.50743 0.0
O407 O 0.61099 0.27977 0.47008 0.0
C408 C 0.61784 0.30414 0.55074 0.0
O409 O 0.62209 0.31534 0.52343 0.0
O410 O 0.6607 0.27702 0.49769 0.0
C411 C 0.60586 0.26885 0.44427 0.0
O412 O 0.61367 0.24949 0.44053 0.0
C413 C 0.64073 0.22692 0.52972 0.0
O414 O 0.65806 0.23656 0.54064 0.0
O415 O 0.62025 0.28397 0.55004 0.0
H416 H 0.02723 0.29522 0.17102 0.0
H417 H 0.12068 0.28076 0.03453 0.0
H418 H 0.08553 0.33217 0.16911 0.0
H419 H 0.05598 0.25922 0.0169 0.0
H420 H 0.10997 0.29325 0.09039 0.0
H421 H 0.03949 0.27592 0.12042 0.0
C422 C 0.04266 0.29911 0.16017 0.0
C423 C 0.05531 0.31543 0.17402 0.0
C424 C 0.09814 0.28566 0.07439 0.0
C425 C 0.06941 0.29342 0.11672 0.0
C426 C 0.10425 0.27846 0.04251 0.0
C427 C 0.08912 0.26919 0.0208 0.0
C428 C 0.07677 0.28354 0.08479 0.0
C429 C 0.06811 0.26648 0.03269 0.0
C430 C 0.0496 0.28817 0.13132 0.0
C431 C 0.07516 0.31987 0.15902 0.0
N432 N 0.06249 0.27378 0.06387 0.0
N433 N 0.08158 0.30895 0.13119 0.0
H434 H 0.92447 0.87588 0.3423 0.0
H435 H 0.89609 0.77397 0.45632 0.0
H436 H 0.92197 0.81159 0.30273 0.0
H437 H 0.88874 0.83944 0.48896 0.0
H438 H 0.90935 0.78685 0.40161 0.0
H439 H 0.91531 0.86212 0.39811 0.0
C440 C 0.92209 0.85884 0.34536 0.0
C441 C 0.92384 0.84488 0.31773 0.0
C442 C 0.90488 0.79836 0.42083 0.0
C443 C 0.91328 0.829 0.38168 0.0
C444 C 0.89736 0.79103 0.45204 0.0
C445 C 0.89119 0.80566 0.47713 0.0
C446 C 0.90634 0.82045 0.41485 0.0
C447 C 0.89317 0.82757 0.47028 0.0
C448 C 0.91682 0.85099 0.37726 0.0
C449 C 0.92067 0.82294 0.3233 0.0
N450 N 0.90054 0.83429 0.4398 0.0
N451 N 0.91546 0.81566 0.35466 0.0
H452 H 0.39883 0.63333 0.65736 0.0
H453 H 0.42999 0.66815 0.46873 0.0
H454 H 0.46313 0.62892 0.61775 0.0
H455 H 0.36671 0.67423 0.51172 0.0
H456 H 0.44255 0.65294 0.52229 0.0
H457 H 0.38679 0.64723 0.60308 0.0
C458 C 0.41043 0.6352 0.63719 0.0
C459 C 0.43204 0.62999 0.64214 0.0
C460 C 0.42593 0.65763 0.51993 0.0
C461 C 0.41834 0.64604 0.57981 0.0
C462 C 0.41876 0.66632 0.4894 0.0
C463 C 0.39728 0.67249 0.48575 0.0
C464 C 0.41149 0.65507 0.5469 0.0
C465 C 0.38341 0.66973 0.51335 0.0
C466 C 0.40353 0.64319 0.60617 0.0
C467 C 0.44631 0.63276 0.61504 0.0
N468 N 0.39076 0.66123 0.54269 0.0
N469 N 0.43922 0.64065 0.58501 0.0
H470 H 0.61566 0.1593 0.78766 0.0
H471 H 0.56027 0.18591 0.96531 0.0
H472 H 0.55203 0.13883 0.81542 0.0
H473 H 0.62475 0.20458 0.93937 0.0
H474 H 0.55584 0.17135 0.90847 0.0
H475 H 0.61816 0.17879 0.84108 0.0
C476 C 0.60216 0.15901 0.80487 0.0
C477 C 0.58368 0.14727 0.79719 0.0
C478 C 0.57092 0.17874 0.91514 0.0
C479 C 0.58645 0.16947 0.85837 0.0
C480 C 0.57345 0.18707 0.9476 0.0
C481 C 0.59296 0.19633 0.95719 0.0
C482 C 0.58803 0.17963 0.89211 0.0
C483 C 0.60947 0.19747 0.93314 0.0
C484 C 0.60361 0.17013 0.83538 0.0
C485 C 0.56665 0.14755 0.82037 0.0
N486 N 0.60667 0.1891 0.90176 0.0
N487 N 0.5685 0.15836 0.84999 0.0
H488 H 0.03161 0.6674 0.23567 0.0
H489 H 0.09274 0.6425 0.40875 0.0
H490 H 0.06075 0.60654 0.25921 0.0
H491 H 0.05851 0.70133 0.38989 0.0
H492 H 0.07992 0.62861 0.35483 0.0
H493 H 0.04032 0.67985 0.29263 0.0
C494 C 0.0398 0.65664 0.25282 0.0
C495 C 0.04558 0.63595 0.2426 0.0
C496 C 0.07508 0.64451 0.36256 0.0
C497 C 0.05558 0.65007 0.30776 0.0
C498 C 0.0824 0.65245 0.39337 0.0
C499 C 0.07682 0.67317 0.40372 0.0
C500 C 0.0622 0.65742 0.34179 0.0
C501 C 0.06327 0.68529 0.38285 0.0
C502 C 0.04471 0.66374 0.28537 0.0
C503 C 0.05606 0.62266 0.26594 0.0
N504 N 0.05656 0.67729 0.35272 0.0
N505 N 0.06081 0.62999 0.29735 0.0
H506 H 0.62047 0.82735 0.5872 0.0
H507 H 0.52748 0.8163 0.72482 0.0
H508 H 0.56108 0.79477 0.56595 0.0
H509 H 0.57915 0.86193 0.73094 0.0
H510 H 0.54063 0.80529 0.66892 0.0
H511 H 0.60679 0.83698 0.64277 0.0
C512 C 0.60454 0.82216 0.59424 0.0
C513 C 0.59187 0.81029 0.57182 0.0
C514 C 0.549 0.81773 0.68257 0.0
C515 C 0.57608 0.8213 0.63562 0.0
C516 C 0.54155 0.82398 0.71445 0.0
C517 C 0.55223 0.84006 0.73255 0.0
C518 C 0.56735 0.82748 0.66904 0.0
C519 C 0.57036 0.84951 0.71791 0.0
C520 C 0.59671 0.82774 0.62598 0.0
C521 C 0.57135 0.80402 0.58241 0.0
N522 N 0.57737 0.84302 0.68712 0.0
N523 N 0.56407 0.80958 0.61365 0.0
H524 H 0.43044 0.32363 -0.0027 0.0
H525 H 0.45925 0.30786 0.8019 0.0
H526 H 0.3926 0.28624 0.9278 0.0
H527 H 0.48202 0.36109 0.86132 0.0
H528 H 0.44114 0.29382 0.85193 0.0
H529 H 0.45544 0.33171 0.95126 0.0
C530 C 0.42752 0.31693 0.97247 0.0
C531 C 0.4093 0.30445 0.96621 0.0
C532 C 0.4503 0.30845 0.85407 0.0
C533 C 0.43784 0.31347 0.91375 0.0
C534 C 0.46074 0.31643 0.82558 0.0
C535 C 0.47191 0.33585 0.82734 0.0
C536 C 0.45118 0.31986 0.88457 0.0
C537 C 0.47337 0.34619 0.85876 0.0
C538 C 0.44175 0.32159 0.94625 0.0
C539 C 0.40631 0.29615 0.9336 0.0
N540 N 0.46295 0.33815 0.88614 0.0
N541 N 0.4204 0.30086 0.90855 0.0
H542 H 0.91875 0.21686 0.06051 0.0
H543 H 0.96196 0.12534 0.18337 0.0
H544 H 0.89236 0.15317 0.0648 0.0
H545 H 0.96703 0.19226 0.20904 0.0
H546 H 0.9429 0.13511 0.13184 0.0
H547 H 0.94244 0.20777 0.10802 0.0
C548 C 0.91802 0.20097 0.07133 0.0
C549 C 0.90352 0.18577 0.05889 0.0
C550 C 0.94832 0.14765 0.14865 0.0
C551 C 0.93064 0.17526 0.11251 0.0
C552 C 0.95931 0.14212 0.178 0.0
C553 C 0.9659 0.15802 0.20077 0.0
C554 C 0.94407 0.16923 0.14175 0.0
C555 C 0.96206 0.1795 0.19232 0.0
C556 C 0.93147 0.19584 0.09839 0.0
C557 C 0.90318 0.16542 0.0738 0.0
N558 N 0.9513 0.18451 0.16347 0.0
N559 N 0.9166 0.16074 0.09973 0.0
H560 H 0.95206 0.68596 0.79183 0.0
H561 H 0.93896 0.69452 0.99232 0.0
H562 H 0.98013 0.64111 0.86209 0.0
H563 H 0.89343 0.72037 0.92104 0.0
H564 H 0.96134 0.68279 0.945 0.0
H565 H 0.93792 0.70641 0.83958 0.0
C566 C 0.9556 0.68062 0.81729 0.0
C567 C 0.96702 0.66161 0.82302 0.0
C568 C 0.9466 0.69132 0.93981 0.0
C569 C 0.95095 0.68498 0.87759 0.0
C570 C 0.93386 0.6981 0.96675 0.0
C571 C 0.91416 0.70817 0.96054 0.0
C572 C 0.93969 0.69487 0.90652 0.0
C573 C 0.90837 0.71241 0.92691 0.0
C574 C 0.94744 0.69226 0.84448 0.0
C575 C 0.97116 0.65551 0.85655 0.0
N576 N 0.92102 0.7056 0.90111 0.0
N577 N 0.96297 0.66708 0.88262 0.0
H578 H 0.05398 0.20521 0.51361 0.0
H579 H 0.02746 0.19276 0.71031 0.0
H580 H 0.09279 0.23182 0.59346 0.0
H581 H 0.00553 0.14869 0.63382 0.0
H582 H 0.04388 0.2146 0.66605 0.0
H583 H 0.02887 0.19186 0.55621 0.0
C584 C 0.05704 0.20856 0.54005 0.0
C585 C 0.07565 0.21936 0.5501 0.0
C586 C 0.03518 0.20031 0.65898 0.0
C587 C 0.047 0.20426 0.59873 0.0
C588 C 0.02572 0.18789 0.68417 0.0
C589 C 0.01542 0.16869 0.67574 0.0
C590 C 0.03413 0.19359 0.62516 0.0
C591 C 0.0136 0.16322 0.64144 0.0
C592 C 0.04274 0.20088 0.56429 0.0
C593 C 0.07879 0.2233 0.58468 0.0
N594 N 0.02305 0.17552 0.61738 0.0
N595 N 0.06467 0.21561 0.6078 0.0
H596 H 0.5937 0.25195 0.38308 0.0
H597 H 0.52405 0.35474 0.33334 0.0
H598 H 0.58438 0.30681 0.44776 0.0
H599 H 0.53719 0.30304 0.26398 0.0
H600 H 0.54263 0.3351 0.37776 0.0
H601 H 0.57004 0.26841 0.34104 0.0
C602 C 0.58663 0.26739 0.3885 0.0
C603 C 0.59116 0.27809 0.41886 0.0
C604 C 0.54133 0.32796 0.3529 0.0
C605 C 0.56406 0.29692 0.37106 0.0
C606 C 0.53066 0.33915 0.32751 0.0
C607 C 0.52926 0.33062 0.29478 0.0
C608 C 0.55076 0.3081 0.34554 0.0
C609 C 0.53801 0.31028 0.28881 0.0
C610 C 0.57313 0.27676 0.36452 0.0
C611 C 0.5815 0.29803 0.42461 0.0
N612 N 0.54856 0.29977 0.31389 0.0
N613 N 0.56848 0.3068 0.40091 0.0
H614 H 0.46372 0.86426 0.14388 0.0
H615 H 0.37975 0.78972 0.05306 0.0
H616 H 0.43443 0.8105 0.19434 0.0
H617 H 0.42657 0.82633 -0.00253 0.0
H618 H 0.39934 0.79713 0.10529 0.0
H619 H 0.45015 0.85089 0.08988 0.0
C620 C 0.4546 0.84955 0.14355 0.0
C621 C 0.45004 0.83856 0.17364 0.0
C622 C 0.40548 0.80329 0.08159 0.0
C623 C 0.43431 0.82334 0.11212 0.0
C624 C 0.39428 0.79912 0.05181 0.0
C625 C 0.40146 0.80757 0.02096 0.0
C626 C 0.42375 0.81633 0.08055 0.0
C627 C 0.42044 0.81955 0.02073 0.0
C628 C 0.44693 0.84189 0.11273 0.0
C629 C 0.43827 0.81951 0.17174 0.0
N630 N 0.43077 0.82385 0.05017 0.0
N631 N 0.43054 0.81265 0.14154 0.0
H632 H 0.9211 0.31901 0.72227 0.0
H633 H 0.87265 0.36408 0.54892 0.0
H634 H 0.89714 0.38337 0.71038 0.0
H635 H 0.90022 0.30111 0.55984 0.0
H636 H 0.88198 0.37174 0.6077 0.0
H637 H 0.91383 0.31235 0.66257 0.0
C638 C 0.91431 0.33176 0.70711 0.0
C639 C 0.90966 0.35177 0.72138 0.0
C640 C 0.88607 0.35628 0.59718 0.0
C641 C 0.90131 0.34424 0.65293 0.0
C642 C 0.88076 0.3519 0.56361 0.0
C643 C 0.8856 0.3319 0.54946 0.0
C644 C 0.89622 0.34052 0.61679 0.0
C645 C 0.89614 0.31674 0.56969 0.0
C646 C 0.9102 0.32795 0.67298 0.0
C647 C 0.90094 0.36769 0.70045 0.0
N648 N 0.90101 0.32134 0.60236 0.0
N649 N 0.897 0.36356 0.6673 0.0
H650 H 0.40866 0.18939 0.31196 0.0
H651 H 0.37389 0.14796 0.49532 0.0
H652 H 0.41628 0.12414 0.34566 0.0
H653 H 0.37906 0.21488 0.46975 0.0
H654 H 0.38642 0.13877 0.43868 0.0
H655 H 0.39517 0.19892 0.3681 0.0
C656 C 0.40754 0.17708 0.33116 0.0
C657 C 0.41363 0.15594 0.32413 0.0
C658 C 0.38479 0.15546 0.44544 0.0
C659 C 0.39808 0.1667 0.38823 0.0
C660 C 0.37754 0.16073 0.47774 0.0
C661 C 0.37546 0.18223 0.4873 0.0
C662 C 0.38988 0.1718 0.42243 0.0
C663 C 0.38048 0.1981 0.46346 0.0
C664 C 0.39985 0.18254 0.36319 0.0
C665 C 0.41184 0.14065 0.34997 0.0
N666 N 0.38746 0.19256 0.43209 0.0
N667 N 0.40416 0.14632 0.38083 0.0
H668 H 0.53088 0.64693 0.17202 0.0
H669 H 0.62419 0.63104 0.03575 0.0
H670 H 0.59004 0.61384 0.19353 0.0
H671 H 0.56211 0.6575 0.01208 0.0
H672 H 0.61203 0.62436 0.09357 0.0
H673 H 0.54224 0.65109 0.11332 0.0
C674 C 0.54628 0.64055 0.16442 0.0
C675 C 0.55956 0.63007 0.18776 0.0
C676 C 0.60103 0.63152 0.07566 0.0
C677 C 0.57265 0.63475 0.12052 0.0
C678 C 0.60796 0.63532 0.04263 0.0
C679 C 0.59417 0.64493 0.01907 0.0
C680 C 0.58021 0.63748 0.08525 0.0
C681 C 0.57331 0.6501 0.0294 0.0
C682 C 0.55272 0.64287 0.13085 0.0
C683 C 0.5793 0.62205 0.17641 0.0
N684 N 0.56701 0.64643 0.06176 0.0
N685 N 0.58527 0.62462 0.14361 0.0
H686 H 0.09926 0.82029 0.72413 0.0
H687 H 0.09168 0.84213 0.92287 0.0
H688 H 0.07782 0.88008 0.76704 0.0
H689 H 0.12431 0.78756 0.8801 0.0
H690 H 0.0852 0.85563 0.86582 0.0
H691 H 0.10771 0.80748 0.781 0.0
C692 C 0.09645 0.83077 0.74548 0.0
C693 C 0.08777 0.85127 0.74083 0.0
C694 C 0.09382 0.84073 0.86892 0.0
C695 C 0.09722 0.83665 0.80596 0.0
C696 C 0.09745 0.83296 0.90148 0.0
C697 C 0.10853 0.81367 0.90625 0.0
C698 C 0.10118 0.82905 0.84088 0.0
C699 C 0.11571 0.80251 0.8776 0.0
C700 C 0.10128 0.82345 0.77794 0.0
C701 C 0.08449 0.86417 0.76942 0.0
N702 N 0.11185 0.81033 0.84612 0.0
N703 N 0.0891 0.85659 0.80077 0.0
H704 H 0.10389 0.34741 0.30981 0.0
H705 H 0.09786 0.30988 0.50209 0.0
H706 H 0.05724 0.37118 0.38114 0.0
H707 H 0.14182 0.28419 0.42817 0.0
H708 H 0.08744 0.33754 0.46152 0.0
H709 H 0.12252 0.32952 0.35601 0.0
C710 C 0.09771 0.34909 0.33528 0.0
C711 C 0.07875 0.36047 0.34154 0.0
C712 C 0.0996 0.32603 0.45438 0.0
C713 C 0.09991 0.33984 0.39458 0.0
C714 C 0.10559 0.31026 0.47756 0.0
C715 C 0.12044 0.29447 0.46827 0.0
C716 C 0.10852 0.32595 0.42174 0.0
C717 C 0.13004 0.29584 0.43624 0.0
C718 C 0.10836 0.33886 0.36168 0.0
C719 C 0.07166 0.36236 0.37511 0.0
N720 N 0.12372 0.31112 0.41401 0.0
N721 N 0.08207 0.35185 0.40034 0.0
H722 H 0.89907 0.8298 0.60357 0.0
H723 H -0.00108 0.84221 0.72812 0.0
H724 H 0.9151 0.78323 0.68023 0.0
H725 H 0.99216 0.87549 0.633 0.0
H726 H 0.9637 0.82593 0.7193 0.0
H727 H 0.92821 0.85237 0.62354 0.0
C728 C 0.90848 0.82445 0.62498 0.0
C729 C 0.9049 0.80437 0.63984 0.0
C730 C 0.96987 0.83698 0.70059 0.0
C731 C 0.93837 0.83015 0.66263 0.0
C732 C 0.98992 0.8463 0.7056 0.0
C733 C -0.00143 0.86 0.68102 0.0
C734 C 0.95835 0.84162 0.67101 0.0
C735 C 0.98622 0.86479 0.65238 0.0
C736 C 0.92517 0.83733 0.63626 0.0
C737 C 0.91747 0.79845 0.66774 0.0
N738 N 0.96678 0.85553 0.64809 0.0
N739 N 0.93386 0.81118 0.678 0.0
H740 H 0.35297 0.75939 0.86488 0.0
H741 H 0.40478 0.64349 0.83935 0.0
H742 H 0.3714 0.71843 0.94791 0.0
H743 H 0.39154 0.68773 0.7581 0.0
H744 H 0.38872 0.66875 0.87931 0.0
H745 H 0.36299 0.73126 0.82535 0.0
C746 C 0.35898 0.74441 0.87485 0.0
C747 C 0.36154 0.74135 0.90979 0.0
C748 C 0.38922 0.67284 0.8527 0.0
C749 C 0.37318 0.70903 0.86451 0.0
C750 C 0.39835 0.65842 0.82987 0.0
C751 C 0.39968 0.6636 0.79537 0.0
C752 C 0.38133 0.69252 0.8409 0.0
C753 C 0.39103 0.68314 0.7845 0.0
C754 C 0.36473 0.72834 0.85222 0.0
C755 C 0.36928 0.72153 0.92118 0.0
N756 N 0.38234 0.69691 0.8072 0.0
N757 N 0.37499 0.70616 0.89857 0.0
H758 H 0.57639 0.17203 0.0953 0.0
H759 H 0.50378 0.17678 0.26191 0.0
H760 H 0.58497 0.21891 0.17427 0.0
H761 H 0.49566 0.13068 0.18166 0.0
H762 H 0.53543 0.19068 0.2328 0.0
H763 H 0.54868 0.15491 0.12918 0.0
C764 C 0.57254 0.17867 0.11988 0.0
C765 C 0.58292 0.19704 0.13185 0.0
C766 C 0.52679 0.17743 0.22172 0.0
C767 C 0.55106 0.17754 0.17079 0.0
C768 C 0.50874 0.16947 0.23834 0.0
C769 C 0.49694 0.15265 0.22408 0.0
C770 C 0.53306 0.1685 0.19063 0.0
C771 C 0.50415 0.14376 0.19351 0.0
C772 C 0.55669 0.16887 0.13924 0.0
C773 C 0.57732 0.20483 0.16398 0.0
N774 N 0.52164 0.15187 0.17775 0.0
N775 N 0.56166 0.19512 0.18225 0.0
H776 H 0.03407 0.6487 0.04228 0.0
H777 H 0.13962 0.72075 0.03376 0.0
H778 H 0.09112 0.63526 0.10017 0.0
H779 H 0.07664 0.74292 0.00559 0.0
H780 H 0.12442 0.68556 0.04666 0.0
H781 H 0.05217 0.67932 0.01672 0.0
C782 C 0.05051 0.65197 0.04924 0.0
C783 C 0.06101 0.63958 0.07376 0.0
C784 C 0.11401 0.6981 0.03733 0.0
C785 C 0.08174 0.67459 0.04464 0.0
C786 C 0.12267 0.71814 0.02988 0.0
C787 C 0.10931 0.73482 0.01898 0.0
C788 C 0.09194 0.69472 0.03342 0.0
C789 C 0.08746 0.73057 0.01435 0.0
C790 C 0.06078 0.66951 0.03474 0.0
C791 C 0.08234 0.64455 0.08168 0.0
N792 N 0.07944 0.71096 0.02172 0.0
N793 N 0.09197 0.66178 0.06734 0.0
H794 H 0.5319 0.8565 0.26893 0.0
H795 H 0.60203 0.86081 0.43592 0.0
H796 H 0.5257 0.90621 0.34404 0.0
H797 H 0.61403 0.81695 0.35373 0.0
H798 H 0.57686 0.88023 0.40001 0.0
H799 H 0.56454 0.84425 0.29671 0.0
C800 C 0.53753 0.86498 0.29109 0.0
C801 C 0.5259 0.88221 0.30448 0.0
C802 C 0.58522 0.86655 0.38965 0.0
C803 C 0.56318 0.86816 0.3366 0.0
C804 C 0.59961 0.85544 0.41016 0.0
C805 C 0.60988 0.83701 0.39798 0.0
C806 C 0.58092 0.85904 0.35688 0.0
C807 C 0.60629 0.83093 0.3643 0.0
C808 C 0.55621 0.85801 0.30691 0.0
C809 C 0.53407 0.89275 0.33301 0.0
N810 N 0.59186 0.84172 0.34509 0.0
N811 N 0.55206 0.88536 0.34842 0.0
H812 H 0.4159 0.28001 0.54397 0.0
H813 H 0.4309 0.35075 0.71013 0.0
H814 H 0.37648 0.27464 0.63335 0.0
H815 H 0.47194 0.35554 0.62252 0.0
H816 H 0.40765 0.32657 0.6789 0.0
H817 H 0.43339 0.31123 0.56881 0.0
C818 C 0.41074 0.28553 0.56864 0.0
C819 C 0.39492 0.27451 0.58683 0.0
C820 C 0.42162 0.33305 0.66634 0.0
C821 C 0.41491 0.31013 0.6154 0.0
C822 C 0.43492 0.34689 0.68418 0.0
C823 C 0.45357 0.35496 0.66906 0.0
C824 C 0.42704 0.32708 0.63319 0.0
C825 C 0.45783 0.34955 0.63526 0.0
C826 C 0.42076 0.30334 0.58281 0.0
C827 C 0.38879 0.28247 0.61858 0.0
N828 N 0.44479 0.33574 0.61857 0.0
N829 N 0.39894 0.29966 0.63197 0.0
H830 H 0.92365 0.14313 0.73253 0.0
H831 H 0.88353 0.13495 0.92393 0.0
H832 H 0.95465 0.10546 0.80991 0.0
H833 H 0.8558 0.17781 0.85031 0.0
H834 H 0.90552 0.11922 0.87948 0.0
H835 H 0.89477 0.15127 0.77235 0.0
C836 C 0.92426 0.13634 0.75772 0.0
C837 C 0.94175 0.12385 0.76806 0.0
C838 C 0.89448 0.13192 0.87294 0.0
C839 C 0.90882 0.13314 0.81369 0.0
C840 C 0.88188 0.14091 0.89833 0.0
C841 C 0.86804 0.15797 0.89093 0.0
C842 C 0.89334 0.1401 0.8399 0.0
C843 C 0.86641 0.16484 0.85721 0.0
C844 C 0.90778 0.14103 0.78045 0.0
C845 C 0.94163 0.11539 0.80096 0.0
N846 N 0.87913 0.15605 0.83299 0.0
N847 N 0.92554 0.12035 0.82266 0.0
H848 H 0.92046 0.63777 0.7131 0.0
H849 H 0.91188 0.698 0.53564 0.0
H850 H 0.96072 0.62318 0.62731 0.0
H851 H 0.87402 0.71364 0.62367 0.0
H852 H 0.92609 0.66685 0.56565 0.0
H853 H 0.89943 0.66169 0.67757 0.0
C854 C 0.92475 0.63941 0.68666 0.0
C855 C 0.94258 0.62869 0.67327 0.0
C856 C 0.91449 0.67698 0.57823 0.0
C857 C 0.91864 0.65626 0.63245 0.0
C858 C 0.90635 0.69475 0.5611 0.0
C859 C 0.89197 0.70862 0.57735 0.0
C860 C 0.90821 0.67309 0.61181 0.0
C861 C 0.88528 0.70355 0.61028 0.0
C862 C 0.91272 0.6531 0.66637 0.0
C863 C 0.94722 0.63127 0.63876 0.0
N864 N 0.89361 0.68633 0.62651 0.0
N865 N 0.93548 0.64502 0.61962 0.0
H866 H 0.05901 0.16517 0.26402 0.0
H867 H 0.11325 0.17223 0.44623 0.0
H868 H 0.04284 0.12446 0.34847 0.0
H869 H 0.12712 0.21606 0.36471 0.0
H870 H 0.09245 0.15042 0.4072 0.0
H871 H 0.08876 0.17981 0.29689 0.0
C872 C 0.0619 0.15907 0.28926 0.0
C873 C 0.04821 0.14382 0.30372 0.0
C874 C 0.10024 0.16467 0.3977 0.0
C875 C 0.08211 0.16054 0.34147 0.0
C876 C 0.11217 0.17713 0.42 0.0
C877 C 0.12166 0.1962 0.40886 0.0
C878 C 0.09763 0.17138 0.36404 0.0
C879 C 0.11989 0.2016 0.37449 0.0
C880 C 0.07886 0.16747 0.30804 0.0
C881 C 0.05279 0.13642 0.33646 0.0
N882 N 0.10782 0.18941 0.35338 0.0
N883 N 0.06919 0.14501 0.35433 0.0
H884 H 0.56924 0.28567 0.0124 0.0
H885 H 0.56653 0.36122 0.17435 0.0
H886 H 0.61669 0.285 0.09179 0.0
H887 H 0.51633 0.35922 0.09941 0.0
H888 H 0.5886 0.33865 0.13818 0.0
H889 H 0.55337 0.31765 0.03761 0.0
C890 C 0.57654 0.29243 0.03482 0.0
C891 C 0.59408 0.28242 0.05038 0.0
C892 C 0.57287 0.34334 0.12941 0.0
C893 C 0.57593 0.31891 0.0794 0.0
C894 C 0.56023 0.35625 0.15007 0.0
C895 C 0.53939 0.36178 0.14016 0.0
C896 C 0.56455 0.33574 0.09871 0.0
C897 C 0.53221 0.35513 0.10822 0.0
C898 C 0.56744 0.31067 0.04922 0.0
C899 C 0.60297 0.292 0.07921 0.0
N900 N 0.54466 0.34217 0.08883 0.0
N901 N 0.59363 0.30954 0.09302 0.0
H902 H 0.37453 0.83037 0.82614 0.0
H903 H 0.48363 0.88536 0.87435 0.0
H904 H 0.38629 0.86037 0.92271 0.0
H905 H 0.46713 0.86997 0.77122 0.0
H906 H 0.44651 0.87957 0.89087 0.0
H907 H 0.40618 0.84828 0.80333 0.0
C908 C 0.38347 0.84108 0.84235 0.0
C909 C 0.37802 0.84349 0.8766 0.0
C910 C 0.45087 0.87774 0.86452 0.0
C911 C 0.41436 0.86376 0.85081 0.0
C912 C 0.47211 0.88095 0.85511 0.0
C913 C 0.47848 0.87785 0.82147 0.0
C914 C 0.43595 0.87095 0.84024 0.0
C915 C 0.46286 0.87241 0.79749 0.0
C916 C 0.40157 0.85127 0.82932 0.0
C917 C 0.39009 0.85772 0.89632 0.0
N918 N 0.44235 0.86875 0.80745 0.0
N919 N 0.4079 0.86699 0.88331 0.0
H920 H 0.85947 0.26804 0.02493 0.0
H921 H 0.86623 0.3361 0.85405 0.0
H922 H 0.84577 0.243 0.92553 0.0
H923 H 0.89731 0.35485 0.94695 0.0
H924 H 0.85041 0.30568 0.88347 0.0
H925 H 0.86561 0.30332 -0.0003 0.0
C926 C 0.8575 0.27002 -0.00211 0.0
C927 C 0.85238 0.25252 0.97721 0.0
C928 C 0.86048 0.31661 0.89751 0.0
C929 C 0.85922 0.29273 0.94837 0.0
C930 C 0.86945 0.33406 0.88078 0.0
C931 C 0.88344 0.34784 0.89793 0.0
C932 C 0.86545 0.31296 0.93164 0.0
C933 C 0.88685 0.34446 0.93263 0.0
C934 C 0.86104 0.29012 0.98354 0.0
C935 C 0.84997 0.25599 0.94235 0.0
N936 N 0.87812 0.3272 0.94829 0.0
N937 N 0.85352 0.27567 0.92901 0.0
H938 H 0.5118 0.11401 0.64913 0.0
H939 H 0.39798 0.17227 0.66146 0.0
H940 H 0.47989 0.12619 0.74417 0.0
H941 H 0.43922 0.17418 0.57384 0.0
H942 H 0.42449 0.14975 0.69038 0.0
H943 H 0.48159 0.12995 0.61941 0.0
C944 C 0.49834 0.11982 0.66378 0.0
C945 C 0.49851 0.11901 0.69926 0.0
C946 C 0.42761 0.15503 0.66476 0.0
C947 C 0.46388 0.1374 0.66528 0.0
C948 C 0.41251 0.16782 0.64824 0.0
C949 C 0.41653 0.17526 0.61535 0.0
C950 C 0.44668 0.1495 0.64803 0.0
C951 C 0.43557 0.16901 0.59934 0.0
C952 C 0.48112 0.129 0.64676 0.0
C953 C 0.48052 0.12667 0.71681 0.0
N954 N 0.44993 0.15653 0.61585 0.0
N955 N 0.46396 0.13572 0.69964 0.0
H956 H 0.60276 0.72211 0.51142 0.0
H957 H 0.59741 0.6609 0.33399 0.0
H958 H 0.62428 0.74905 0.41676 0.0
H959 H 0.55818 0.64346 0.41964 0.0
H960 H 0.61299 0.68976 0.3674 0.0
H961 H 0.59157 0.68977 0.48109 0.0
C962 C 0.60525 0.72116 0.48434 0.0
C963 C 0.61428 0.73833 0.46652 0.0
C964 C 0.60106 0.67953 0.37893 0.0
C965 C 0.60176 0.70149 0.4319 0.0
C966 C 0.59221 0.663 0.35993 0.0
C967 C 0.5763 0.64989 0.37394 0.0
C968 C 0.59408 0.6829 0.41227 0.0
C969 C 0.57026 0.65333 0.40773 0.0
C970 C 0.59883 0.70276 0.46708 0.0
C971 C 0.61718 0.73628 0.43146 0.0
N972 N 0.5791 0.66958 0.42574 0.0
N973 N 0.61093 0.71821 0.41532 0.0
H974 H 0.06978 0.84765 0.06745 0.0
H975 H 0.01073 0.84039 0.24684 0.0
H976 H 0.08414 0.79895 0.14156 0.0
H977 H 0.98767 0.87751 0.16222 0.0
H978 H 0.04126 0.82881 0.21234 0.0
H979 H 0.04335 0.86279 0.10605 0.0
C980 C 0.06751 0.84023 0.09196 0.0
C981 C 0.07903 0.82186 0.10115 0.0
C982 C 0.02954 0.83956 0.20146 0.0
C983 C 0.04873 0.83911 0.14544 0.0
C984 C 0.01216 0.8462 0.22113 0.0
C985 C -0.00344 0.85978 0.20728 0.0
C986 C 0.03137 0.84675 0.16791 0.0
C987 C -0.0008 0.86686 0.17384 0.0
C988 C 0.05236 0.84886 0.11395 0.0
C989 C 0.07548 0.81302 0.13333 0.0
N990 N 0.01624 0.86024 0.15531 0.0
N991 N 0.06054 0.82167 0.15429 0.0
H992 H 0.64386 0.74792 0.94622 0.0
H993 H 0.53235 0.80229 0.89572 0.0
H994 H 0.58519 0.71337 0.92822 0.0
H995 H 0.59292 0.83516 0.88845 0.0
H996 H 0.5508 0.77127 0.91903 0.0
H997 H 0.62469 0.78155 0.93559 0.0
C998 C 0.62693 0.74743 0.94036 0.0
C999 C 0.61614 0.72784 0.93774 0.0
C1000 C 0.56005 0.78533 0.91259 0.0
C1001 C 0.59419 0.76607 0.92585 0.0
C1002 C 0.54951 0.80309 0.89937 0.0
C1003 C 0.56115 0.82125 0.88966 0.0
C1004 C 0.5824 0.78568 0.91618 0.0
C1005 C 0.58335 0.82141 0.89529 0.0
C1006 C 0.61604 0.76658 0.93424 0.0
C1007 C 0.59421 0.72809 0.93011 0.0
N1008 N 0.59331 0.80379 0.90791 0.0
N1009 N 0.584 0.74688 0.92435 0.0
H1010 H 0.43147 0.34727 0.25602 0.0
H1011 H 0.37414 0.34891 0.07598 0.0
H1012 H 0.45075 0.38719 0.17226 0.0
H1013 H 0.35818 0.30445 0.15566 0.0
H1014 H 0.39696 0.36832 0.11539 0.0
H1015 H 0.39972 0.33659 0.22405 0.0
C1016 C 0.42888 0.35405 0.23114 0.0
C1017 C 0.44398 0.36786 0.21655 0.0
C1018 C 0.38824 0.35449 0.12442 0.0
C1019 C 0.40776 0.35567 0.17985 0.0
C1020 C 0.37514 0.34342 0.10192 0.0
C1021 C 0.36454 0.32478 0.11235 0.0
C1022 C 0.39088 0.34681 0.15755 0.0
C1023 C 0.36627 0.31858 0.14639 0.0
C1024 C 0.41076 0.34791 0.21288 0.0
C1025 C 0.4397 0.37625 0.18431 0.0
N1026 N 0.37949 0.32938 0.16766 0.0
N1027 N 0.42213 0.36984 0.16692 0.0
H1028 H 0.92107 0.23133 0.49389 0.0
H1029 H 0.9295 0.15685 0.33018 0.0
H1030 H 0.88143 0.23818 0.40509 0.0
H1031 H 0.97307 0.15276 0.41471 0.0
H1032 H 0.90843 0.18316 0.36118 0.0
H1033 H 0.93702 0.19921 0.46909 0.0
C1034 C 0.91555 0.22597 0.46935 0.0
C1035 C 0.90007 0.23761 0.45136 0.0
C1036 C 0.9225 0.17639 0.3731 0.0
C1037 C 0.91827 0.20093 0.42285 0.0
C1038 C 0.93454 0.16133 0.35541 0.0
C1039 C 0.95324 0.15277 0.3697 0.0
C1040 C 0.92922 0.18306 0.4053 0.0
C1041 C 0.95886 0.15907 0.4026 0.0
C1042 C 0.92469 0.20765 0.45519 0.0
C1043 C 0.89347 0.22985 0.41973 0.0
N1044 N 0.94701 0.174 0.41918 0.0
N1045 N 0.90272 0.21211 0.40641 0.0
H1046 H 0.10556 0.67491 0.59687 0.0
H1047 H 0.02842 0.59194 0.68845 0.0
H1048 H 0.08602 0.61506 0.55221 0.0
H1049 H 0.05081 0.65035 0.73453 0.0
H1050 H 0.05322 0.59764 0.6416 0.0
H1051 H 0.08936 0.66391 0.65019 0.0
C1052 C 0.098 0.65936 0.59834 0.0
C1053 C 0.09686 0.64601 0.56988 0.0
C1054 C 0.05293 0.60907 0.66218 0.0
C1055 C 0.07815 0.63334 0.63094 0.0
C1056 C 0.03878 0.6058 0.689 0.0
C1057 C 0.03729 0.62087 0.71523 0.0
C1058 C 0.06558 0.6276 0.66144 0.0
C1059 C 0.05124 0.63843 0.71469 0.0
C1060 C 0.08878 0.65307 0.62887 0.0
C1061 C 0.08711 0.62594 0.57343 0.0
N1062 N 0.06459 0.64145 0.68798 0.0
N1063 N 0.07788 0.62032 0.6033 0.0
H1064 H 0.60768 0.20129 0.50918 0.0
H1065 H 0.62143 0.12438 0.66579 0.0
H1066 H 0.66315 0.202 0.57424 0.0
H1067 H 0.57272 0.11566 0.58965 0.0
H1068 H 0.63972 0.14947 0.6284 0.0
H1069 H 0.59719 0.16703 0.53367 0.0
C1070 C 0.61782 0.1941 0.52828 0.0
C1071 C 0.6361 0.20472 0.54014 0.0
C1072 C 0.62524 0.14179 0.61958 0.0
C1073 C 0.62408 0.1656 0.56851 0.0
C1074 C 0.61478 0.12744 0.64094 0.0
C1075 C 0.5953 0.11823 0.63108 0.0
C1076 C 0.61597 0.1472 0.58835 0.0
C1077 C 0.58757 0.12259 0.59846 0.0
C1078 C 0.61184 0.17449 0.54222 0.0
C1079 C 0.64878 0.19452 0.56463 0.0
N1080 N 0.5977 0.13709 0.57851 0.0
N1081 N 0.64233 0.1757 0.57842 0.0
H1082 H 0.96282 0.3284 0.84047 0.0
H1083 H 0.08787 0.32017 0.87514 0.0
H1084 H 0.00584 0.38025 0.81671 0.0
H1085 H 0.04635 0.26535 0.86569 0.0
H1086 H 0.05836 0.34316 0.85626 0.0
H1087 H 0.99348 0.30576 0.85327 0.0
C1088 C 0.97875 0.33505 0.83798 0.0
C1089 C 0.98179 0.35627 0.8276 0.0
C1090 C 0.05584 0.32607 0.85805 0.0
C1091 C 0.01704 0.33037 0.8423 0.0
C1092 C 0.07264 0.31295 0.86883 0.0
C1093 C 0.06953 0.29081 0.8722 0.0
C1094 C 0.03579 0.31698 0.85104 0.0
C1095 C 0.04949 0.28231 0.8636 0.0
C1096 C -0.00374 0.32206 0.84511 0.0
C1097 C 0.00281 0.36396 0.82461 0.0
N1098 N 0.03335 0.29543 0.85375 0.0
N1099 N 0.01969 0.35104 0.83218 0.0
H1100 H 0.85241 0.76273 0.09971 0.0
H1101 H 0.90663 0.87744 0.10251 0.0
H1102 H 0.86972 0.79739 0.00928 0.0
H1103 H 0.88229 0.84558 0.19149 0.0
H1104 H 0.88918 0.85054 0.06729 0.0
H1105 H 0.85941 0.79475 0.13307 0.0
C1106 C 0.85749 0.77715 0.08681 0.0
C1107 C 0.86078 0.77731 0.0517 0.0
C1108 C 0.88739 0.84962 0.0945 0.0
C1109 C 0.86898 0.81402 0.08981 0.0
C1110 C 0.89733 0.865 0.11464 0.0
C1111 C 0.89624 0.86356 0.15003 0.0
C1112 C 0.87645 0.83258 0.10989 0.0
C1113 C 0.8838 0.8472 0.16432 0.0
C1114 C 0.86145 0.79546 0.10588 0.0
C1115 C 0.86716 0.7965 0.03633 0.0
N1116 N 0.87467 0.83217 0.14422 0.0
N1117 N 0.87133 0.81402 0.05554 0.0
H1118 H 0.39485 0.67953 0.32166 0.0
H1119 H 0.47352 0.57986 0.29841 0.0
H1120 H 0.38368 0.61851 0.36972 0.0
H1121 H 0.49258 0.64591 0.28927 0.0
H1122 H 0.43676 0.59165 0.31052 0.0
H1123 H 0.42651 0.66467 0.2943 0.0
C1124 C 0.39879 0.66288 0.32599 0.0
C1125 C 0.38682 0.65036 0.34859 0.0
C1126 C 0.449 0.60348 0.30547 0.0
C1127 C 0.42312 0.63335 0.31739 0.0
C1128 C 0.4699 0.5968 0.29852 0.0
C1129 C 0.48609 0.61197 0.29324 0.0
C1130 C 0.4443 0.62542 0.30648 0.0
C1131 C 0.48061 0.63371 0.29366 0.0
C1132 C 0.41694 0.65446 0.31046 0.0
C1133 C 0.39261 0.62882 0.35285 0.0
N1134 N 0.46018 0.63978 0.30024 0.0
N1135 N 0.41055 0.62104 0.33772 0.0
H1136 H 0.38407 0.15765 0.18808 0.0
H1137 H 0.38362 0.21107 0.00451 0.0
H1138 H 0.42333 0.1356 0.10516 0.0
H1139 H 0.35021 0.2367 0.09116 0.0
H1140 H 0.39349 0.17972 0.0381 0.0
H1141 H 0.36659 0.18281 0.14989 0.0
C1142 C 0.38884 0.15791 0.16174 0.0
C1143 C 0.40542 0.14472 0.14991 0.0
C1144 C 0.38382 0.19212 0.04963 0.0
C1145 C 0.38556 0.17364 0.10609 0.0
C1146 C 0.37815 0.21001 0.03047 0.0
C1147 C 0.36632 0.22667 0.0452 0.0
C1148 C 0.37757 0.19089 0.08371 0.0
C1149 C 0.35957 0.22437 0.07887 0.0
C1150 C 0.37887 0.17232 0.13994 0.0
C1151 C 0.41078 0.14562 0.11544 0.0
N1152 N 0.36544 0.20691 0.09705 0.0
N1153 N 0.40104 0.16004 0.09481 0.0
H1154 H 0.49879 0.64779 0.75402 0.0
H1155 H 0.59785 0.61305 0.86383 0.0
H1156 H 0.51413 0.58137 0.77118 0.0
H1157 H 0.59414 0.67438 0.81395 0.0
H1158 H 0.56809 0.60048 0.82892 0.0
H1159 H 0.53418 0.65767 0.77496 0.0
C1160 C 0.5097 0.63528 0.76193 0.0
C1161 C 0.50349 0.61376 0.76118 0.0
C1162 C 0.57406 0.61656 0.82524 0.0
C1163 C 0.54389 0.62493 0.78548 0.0
C1164 C 0.59102 0.62375 0.84517 0.0
C1165 C 0.59828 0.64489 0.84214 0.0
C1166 C 0.56411 0.63073 0.80258 0.0
C1167 C 0.58894 0.65802 0.81739 0.0
C1168 C 0.52994 0.6409 0.77372 0.0
C1169 C 0.5183 0.59816 0.77144 0.0
N1170 N 0.57209 0.65084 0.79898 0.0
N1171 N 0.53773 0.60408 0.7837 0.0
H1172 H 0.10931 0.85297 0.5944 0.0
H1173 H 0.08572 0.74982 0.48383 0.0
H1174 H 0.04936 0.84179 0.54314 0.0
H1175 H 0.14791 0.76466 0.52511 0.0
H1176 H 0.07339 0.78548 0.49956 0.0
H1177 H 0.1251 0.82313 0.5634 0.0
C1178 C 0.09955 0.84445 0.57624 0.0
C1179 C 0.07788 0.84966 0.57176 0.0
C1180 C 0.08981 0.78105 0.50482 0.0
C1181 C 0.09578 0.81531 0.53649 0.0
C1182 C 0.09686 0.76066 0.4959 0.0
C1183 C 0.11778 0.75413 0.50366 0.0
C1184 C 0.10373 0.79496 0.52193 0.0
C1185 C 0.13158 0.76893 0.51896 0.0
C1186 C 0.10857 0.82738 0.55855 0.0
C1187 C 0.06607 0.83819 0.54767 0.0
N1188 N 0.12422 0.78856 0.52801 0.0
N1189 N 0.07508 0.82134 0.53132 0.0
H1190 H 0.90788 0.34928 0.40252 0.0
H1191 H 0.96512 0.34301 0.22174 0.0
H1192 H 0.88737 0.30657 0.32311 0.0
H1193 H 0.9928 0.37197 0.31062 0.0
H1194 H 0.93245 0.33564 0.2542 0.0
H1195 H 0.93457 0.36421 0.36425 0.0
C1196 C 0.90877 0.34323 0.37688 0.0
C1197 C 0.8956 0.32638 0.36619 0.0
C1198 C 0.94563 0.34379 0.26641 0.0
C1199 C 0.92627 0.34335 0.32232 0.0
C1200 C 0.96423 0.34804 0.24792 0.0
C1201 C 0.98177 0.35787 0.26366 0.0
C1202 C 0.94456 0.34965 0.30068 0.0
C1203 C 0.97976 0.36409 0.29761 0.0
C1204 C 0.92408 0.35173 0.35507 0.0
C1205 C 0.89736 0.31937 0.33255 0.0
N1206 N 0.96155 0.35979 0.315 0.0
N1207 N 0.91262 0.32772 0.31188 0.0
H1208 H 0.4101 0.84491 0.29723 0.0
H1209 H 0.39939 0.76647 0.45579 0.0
H1210 H 0.45282 0.84633 0.38302 0.0
H1211 H 0.36125 0.76193 0.36503 0.0
H1212 H 0.41519 0.79954 0.43414 0.0
H1213 H 0.38821 0.81847 0.32635 0.0
C1214 C 0.41478 0.83981 0.32236 0.0
C1215 C 0.43351 0.84762 0.33752 0.0
C1216 C 0.40318 0.79142 0.41916 0.0
C1217 C 0.40853 0.81719 0.37097 0.0
C1218 C 0.39411 0.77257 0.43154 0.0
C1219 C 0.3792 0.76126 0.41196 0.0
C1220 C 0.39725 0.79899 0.38704 0.0
C1221 C 0.3729 0.76997 0.3808 0.0
C1222 C 0.40226 0.82468 0.33898 0.0
C1223 C 0.43863 0.84059 0.37026 0.0
N1224 N 0.38209 0.78819 0.36919 0.0
N1225 N 0.42633 0.82558 0.38577 0.0
H1226 H 0.96336 0.62161 0.20741 0.0
H1227 H 0.88747 0.65203 0.05214 0.0
H1228 H 0.97483 0.60308 0.10379 0.0
H1229 H 0.88713 0.68617 0.14709 0.0
H1230 H 0.91336 0.62694 0.07557 0.0
H1231 H 0.92962 0.63835 0.18988 0.0
C1232 C 0.95859 0.62072 0.1811 0.0
C1233 C 0.97201 0.6112 0.1569 0.0
C1234 C 0.90742 0.63977 0.09142 0.0
C1235 C 0.93358 0.63018 0.13685 0.0
C1236 C 0.89259 0.6541 0.07811 0.0
C1237 C 0.8854 0.6715 0.09749 0.0
C1238 C 0.91515 0.64278 0.12437 0.0
C1239 C 0.89244 0.67316 0.13111 0.0
C1240 C 0.93941 0.63034 0.17114 0.0
C1241 C 0.96509 0.6105 0.12318 0.0
N1242 N 0.90716 0.65911 0.1434 0.0
N1243 N 0.94641 0.62 0.11413 0.0
H1244 H 0.09473 0.1851 0.95551 0.0
H1245 H 0.06614 0.1374 0.77404 0.0
H1246 H 0.12121 0.20764 0.86113 0.0
H1247 H 0.03243 0.12039 0.86557 0.0
H1248 H 0.09185 0.15741 0.80767 0.0
H1249 H 0.07748 0.15573 0.92503 0.0
C1250 C 0.09728 0.18363 0.92851 0.0
C1251 C 0.10913 0.19902 0.91071 0.0
C1252 C 0.07897 0.14913 0.82049 0.0
C1253 C 0.08939 0.16563 0.87579 0.0
C1254 C 0.06425 0.13769 0.80129 0.0
C1255 C 0.04687 0.12751 0.81697 0.0
C1256 C 0.07626 0.15058 0.85567 0.0
C1257 C 0.04546 0.12819 0.8524 0.0
C1258 C 0.08734 0.16693 0.91112 0.0
C1259 C 0.11194 0.19631 0.87577 0.0
N1260 N 0.05981 0.13981 0.87056 0.0
N1261 N 0.10194 0.1801 0.85942 0.0
H1262 H 0.60589 0.34601 0.55845 0.0
H1263 H 0.55705 0.32695 0.74304 0.0
H1264 H 0.60995 0.28619 0.61266 0.0
H1265 H 0.5441 0.38285 0.68221 0.0
H1266 H 0.58218 0.31454 0.69993 0.0
H1267 H 0.58869 0.3622 0.60774 0.0
C1268 C 0.60334 0.33632 0.5808 0.0
C1269 C 0.60912 0.31464 0.58128 0.0
C1270 C 0.57402 0.32964 0.69621 0.0
C1271 C 0.58947 0.33308 0.63776 0.0
C1272 C 0.55972 0.33679 0.72089 0.0
C1273 C 0.54822 0.35582 0.71602 0.0
C1274 C 0.57684 0.34162 0.66648 0.0
C1275 C 0.55244 0.36795 0.68686 0.0
C1276 C 0.5935 0.34558 0.60893 0.0
C1277 C 0.60553 0.3029 0.61103 0.0
N1278 N 0.56625 0.36054 0.66304 0.0
N1279 N 0.59581 0.31224 0.63799 0.0
H1280 H 0.06805 0.43486 0.225 0.0
H1281 H 0.0201 0.52098 0.09692 0.0
H1282 H 0.02791 0.41799 0.14026 0.0
H1283 H 0.06627 0.53556 0.17481 0.0
H1284 H 0.02435 0.48291 0.10964 0.0
H1285 H 0.06903 0.47162 0.20467 0.0
C1286 C 0.05951 0.43888 0.20202 0.0
C1287 C 0.04773 0.42339 0.18445 0.0
C1288 C 0.0337 0.49446 0.12369 0.0
C1289 C 0.0487 0.46551 0.16106 0.0
C1290 C 0.0313 0.51618 0.11641 0.0
C1291 C 0.04265 0.53148 0.13511 0.0
C1292 C 0.04746 0.48807 0.14993 0.0
C1293 C 0.05701 0.52435 0.15998 0.0
C1294 C 0.06012 0.45988 0.19035 0.0
C1295 C 0.03711 0.42946 0.15466 0.0
N1296 N 0.05885 0.5032 0.16686 0.0
N1297 N 0.03769 0.45012 0.14404 0.0
H1298 H 0.80019 0.79378 0.56514 0.0
H1299 H 0.70529 0.7693 0.43492 0.0
H1300 H 0.80651 0.75177 0.47904 0.0
H1301 H 0.69891 0.81162 0.52065 0.0
H1302 H 0.74281 0.76365 0.44963 0.0
H1303 H 0.76322 0.80107 0.54868 0.0
C1304 C 0.79379 0.78604 0.54284 0.0
C1305 C 0.80644 0.77211 0.52347 0.0
C1306 C 0.73322 0.77425 0.46515 0.0
C1307 C 0.7642 0.78046 0.50439 0.0
C1308 C 0.7118 0.77752 0.45671 0.0
C1309 C 0.69891 0.79088 0.47668 0.0
C1310 C 0.74181 0.78436 0.4938 0.0
C1311 C 0.70824 0.80114 0.50459 0.0
C1312 C 0.7727 0.79025 0.5334 0.0
C1313 C 0.79733 0.76258 0.49475 0.0
N1314 N 0.7291 0.79758 0.51241 0.0
N1315 N 0.77677 0.76694 0.4861 0.0
H1316 H 0.47819 0.44756 0.8417 0.0
H1317 H 0.42727 0.54439 0.73659 0.0
H1318 H 0.46475 0.44573 0.73458 0.0
H1319 H 0.45161 0.55159 0.83818 0.0
H1320 H 0.43617 0.50651 0.73866 0.0
H1321 H 0.46459 0.48432 0.84355 0.0
C1322 C 0.4724 0.45487 0.8186 0.0
C1323 C 0.47272 0.44361 0.7879 0.0
C1324 C 0.43945 0.51633 0.76061 0.0
C1325 C 0.45699 0.48543 0.78994 0.0
C1326 C 0.43428 0.53796 0.75951 0.0
C1327 C 0.43893 0.55124 0.78713 0.0
C1328 C 0.44936 0.50784 0.78952 0.0
C1329 C 0.44788 0.54196 0.81622 0.0
C1330 C 0.46462 0.47581 0.8197 0.0
C1331 C 0.46495 0.45382 0.75877 0.0
N1332 N 0.45298 0.52082 0.81657 0.0
N1333 N 0.45741 0.47413 0.76053 0.0
H1334 H 0.79416 0.19831 0.08472 0.0
H1335 H 0.67907 0.16081 0.01974 0.0
H1336 H 0.78457 0.15929 -0.00406 0.0
H1337 H 0.68895 0.21518 0.08514 0.0
H1338 H 0.71765 0.15419 0.01993 0.0
H1339 H 0.75548 0.1985 0.0942 0.0
C1340 C 0.78396 0.18954 0.06749 0.0
C1341 C 0.79255 0.17899 0.03925 0.0
C1342 C 0.71132 0.16745 0.03446 0.0
C1343 C 0.74839 0.17914 0.05001 0.0
C1344 C 0.68931 0.17121 0.03445 0.0
C1345 C 0.68084 0.18873 0.05214 0.0
C1346 C 0.72488 0.18118 0.05253 0.0
C1347 C 0.69485 0.20164 0.07085 0.0
C1348 C 0.7619 0.18973 0.07286 0.0
C1349 C 0.77859 0.16784 0.0178 0.0
N1350 N 0.71622 0.19766 0.07043 0.0
N1351 N 0.75716 0.16831 0.02352 0.0
H1352 H 0.96195 0.44189 0.88463 0.0
H1353 H 0.94129 0.54753 0.77606 0.0
H1354 H 0.91111 0.44902 0.8115 0.0
H1355 H 0.98988 0.5433 0.85342 0.0
H1356 H 0.92873 0.5121 0.79175 0.0
H1357 H 0.97087 0.47969 0.87716 0.0
C1358 C 0.95249 0.45144 0.86733 0.0
C1359 C 0.93592 0.44222 0.84837 0.0
C1360 C 0.94208 0.51891 0.80546 0.0
C1361 C 0.94614 0.48535 0.83953 0.0
C1362 C 0.94932 0.53915 0.79643 0.0
C1363 C 0.9668 0.54832 0.81326 0.0
C1364 C 0.95246 0.50759 0.8314 0.0
C1365 C 0.97642 0.53678 0.83966 0.0
C1366 C 0.95763 0.47301 0.86302 0.0
C1367 C 0.92417 0.45538 0.82641 0.0
N1368 N 0.96922 0.51691 0.84777 0.0
N1369 N 0.92963 0.4762 0.82239 0.0
H1370 H 0.29774 0.19143 0.57807 0.0
H1371 H 0.18924 0.25817 0.59744 0.0
H1372 H 0.29328 0.25052 0.63412 0.0
H1373 H 0.19735 0.20407 0.53082 0.0
H1374 H 0.22565 0.25256 0.61856 0.0
H1375 H 0.25922 0.19255 0.56876 0.0
C1376 C 0.28863 0.20453 0.58877 0.0
C1377 C 0.29881 0.22109 0.60646 0.0
C1378 C 0.21937 0.24185 0.5995 0.0
C1379 C 0.25466 0.22256 0.59561 0.0
C1380 C 0.1986 0.24503 0.58743 0.0
C1381 C 0.19034 0.23172 0.56204 0.0
C1382 C 0.23188 0.22519 0.58615 0.0
C1383 C 0.20314 0.21487 0.55012 0.0
C1384 C 0.26662 0.20519 0.58336 0.0
C1385 C 0.28612 0.23752 0.62005 0.0
N1386 N 0.22329 0.21217 0.56216 0.0
N1387 N 0.26471 0.23798 0.61401 0.0
H1388 H 0.52567 0.5441 0.36636 0.0
H1389 H 0.54134 0.44529 0.24215 0.0
H1390 H 0.57069 0.54303 0.28341 0.0
H1391 H 0.50325 0.44174 0.33317 0.0
H1392 H 0.55354 0.48064 0.259 0.0
H1393 H 0.51911 0.50595 0.3577 0.0
C1394 C 0.53445 0.53578 0.34671 0.0
C1395 C 0.54851 0.54684 0.32523 0.0
C1396 C 0.54261 0.47212 0.27545 0.0
C1397 C 0.54087 0.50335 0.31495 0.0
C1398 C 0.53553 0.45196 0.26573 0.0
C1399 C 0.52109 0.44064 0.28615 0.0
C1400 C 0.53505 0.48119 0.30567 0.0
C1401 C 0.5143 0.44998 0.31659 0.0
C1402 C 0.53064 0.51403 0.34171 0.0
C1403 C 0.5595 0.53523 0.3003 0.0
N1404 N 0.5212 0.46983 0.32532 0.0
N1405 N 0.55524 0.5142 0.29558 0.0
H1406 H 0.17789 0.82591 0.99407 0.0
H1407 H 0.29282 0.78113 0.04706 0.0
H1408 H 0.18804 0.7851 0.08076 0.0
H1409 H 0.28161 0.82298 0.96195 0.0
H1410 H 0.25508 0.78443 0.06266 0.0
H1411 H 0.21638 0.82732 0.98511 0.0
C1412 C 0.18824 0.81734 0.0114 0.0
C1413 C 0.17973 0.80518 0.03802 0.0
C1414 C 0.26092 0.79299 0.0407 0.0
C1415 C 0.22393 0.80661 0.02771 0.0
C1416 C 0.28245 0.79109 0.03174 0.0
C1417 C 0.29033 0.80165 0.00298 0.0
C1418 C 0.24719 0.8055 0.0207 0.0
C1419 C 0.27621 0.81443 0.98419 0.0
C1420 C 0.21026 0.81816 0.00626 0.0
C1421 C 0.19393 0.7946 0.05984 0.0
N1422 N 0.25532 0.81589 0.99328 0.0
N1423 N 0.21537 0.79539 0.054 0.0
H1424 H 0.58047 0.93419 0.80305 0.0
H1425 H 0.5421 0.05489 0.82972 0.0
H1426 H 0.53464 0.95346 0.87901 0.0
H1427 H 0.57951 0.0334 0.74432 0.0
H1428 H 0.54368 0.01886 0.85335 0.0
H1429 H 0.58516 0.97157 0.78724 0.0
C1430 C 0.57159 0.9463 0.81673 0.0
C1431 C 0.55689 0.94066 0.84209 0.0
C1432 C 0.55163 0.02206 0.82954 0.0
C1433 C 0.5621 0.98348 0.82388 0.0
C1434 C 0.55074 0.04262 0.816 0.0
C1435 C 0.56052 0.0471 0.78482 0.0
C1436 C 0.56244 0.00587 0.81183 0.0
C1437 C 0.57158 0.03061 0.76828 0.0
C1438 C 0.57423 0.96764 0.80758 0.0
C1439 C 0.54598 0.95706 0.85911 0.0
N1440 N 0.57216 0.01069 0.78193 0.0
N1441 N 0.54865 0.97774 0.84946 0.0
H1442 H 0.30496 0.26438 0.91519 0.0
H1443 H 0.1832 0.29904 0.94438 0.0
H1444 H 0.2839 0.30752 0.99375 0.0
H1445 H 0.20256 0.24989 0.87399 0.0
H1446 H 0.22072 0.30636 0.95636 0.0
H1447 H 0.26828 0.26278 0.89386 0.0
C1448 C 0.29267 0.27366 0.92779 0.0
C1449 C 0.29745 0.28592 0.95653 0.0
C1450 C 0.21679 0.29409 0.93809 0.0
C1451 C 0.2555 0.28415 0.93224 0.0
C1452 C 0.19535 0.2899 0.93118 0.0
C1453 C 0.18971 0.27361 0.90847 0.0
C1454 C 0.23277 0.28187 0.92228 0.0
C1455 C 0.20616 0.26247 0.89189 0.0
C1456 C 0.27173 0.27271 0.91561 0.0
C1457 C 0.28091 0.29769 0.97172 0.0
N1458 N 0.22697 0.26666 0.89937 0.0
N1459 N 0.26065 0.2964 0.95951 0.0
H1460 H 0.95958 0.05417 0.2987 0.0
H1461 H 0.97106 0.95383 0.17441 0.0
H1462 H -0.0009 0.05378 0.20903 0.0
H1463 H 0.932 0.95336 0.26459 0.0
H1464 H 0.98036 0.99098 0.18572 0.0
H1465 H 0.94868 0.01749 0.28624 0.0
C1466 C 0.96604 0.04635 0.27648 0.0
C1467 C 0.98029 0.05705 0.25488 0.0
C1468 C 0.96968 0.98279 0.20298 0.0
C1469 C 0.96777 0.01516 0.24037 0.0
C1470 C 0.96431 0.96158 0.19648 0.0
C1471 C 0.95081 0.95043 0.21868 0.0
C1472 C 0.96155 0.99296 0.23193 0.0
C1473 C 0.9425 0.96133 0.24683 0.0
C1474 C 0.95975 0.02543 0.26932 0.0
C1475 C 0.9881 0.04615 0.22641 0.0
N1476 N 0.94809 0.98197 0.25275 0.0
N1477 N 0.98172 0.02583 0.21997 0.0
H1478 H 0.28454 0.68346 0.4001 0.0
H1479 H 0.19609 0.68261 0.54671 0.0
H1480 H 0.29714 0.70164 0.50357 0.0
H1481 H 0.18101 0.67673 0.44051 0.0
H1482 H 0.23401 0.68517 0.53212 0.0
H1483 H 0.24713 0.67692 0.41522 0.0
C1484 C 0.27945 0.68606 0.42598 0.0
C1485 C 0.29394 0.69323 0.45057 0.0
C1486 C 0.22239 0.68323 0.51203 0.0
C1487 C 0.2513 0.68564 0.46805 0.0
C1488 C 0.20076 0.68167 0.52035 0.0
C1489 C 0.18536 0.67962 0.49477 0.0
C1490 C 0.22866 0.68262 0.47791 0.0
C1491 C 0.19233 0.67847 0.46104 0.0
C1492 C 0.25812 0.68232 0.43459 0.0
C1493 C 0.2865 0.69626 0.48373 0.0
N1494 N 0.21348 0.68006 0.45358 0.0
N1495 N 0.26569 0.69245 0.4915 0.0
H1496 H 0.44997 0.05346 0.21649 0.0
H1497 H 0.4124 0.9437 0.30184 0.0
H1498 H 0.39979 0.04971 0.29144 0.0
H1499 H 0.46431 0.94885 0.2301 0.0
H1500 H 0.40633 0.98221 0.29677 0.0
H1501 H 0.45405 0.01478 0.21923 0.0
C1502 C 0.43973 0.04449 0.23345 0.0
C1503 C 0.42457 0.05486 0.25389 0.0
C1504 C 0.41902 0.97488 0.28211 0.0
C1505 C 0.42923 0.01048 0.25724 0.0
C1506 C 0.4225 0.95291 0.28499 0.0
C1507 C 0.43892 0.94305 0.26641 0.0
C1508 C 0.43203 0.98705 0.26046 0.0
C1509 C 0.4515 0.95576 0.24497 0.0
C1510 C 0.44209 0.02238 0.23503 0.0
C1511 C 0.41171 0.04238 0.27528 0.0
N1512 N 0.4478 0.97709 0.24261 0.0
N1513 N 0.41439 0.02082 0.27649 0.0
H1514 H 0.79631 0.68072 0.00417 0.0
H1515 H 0.69994 0.69956 0.87507 0.0
H1516 H 0.80058 0.7235 0.91865 0.0
H1517 H 0.69916 0.65286 0.95559 0.0
H1518 H 0.73741 0.70726 0.88819 0.0
H1519 H 0.76115 0.66937 0.98486 0.0
C1520 C 0.78985 0.68773 0.98128 0.0
C1521 C 0.80134 0.7032 0.96312 0.0
C1522 C 0.72907 0.69519 0.90275 0.0
C1523 C 0.76098 0.69023 0.9408 0.0
C1524 C 0.7077 0.69075 0.89524 0.0
C1525 C 0.69634 0.6757 0.91449 0.0
C1526 C 0.73907 0.68455 0.92978 0.0
C1527 C 0.70722 0.66473 0.94025 0.0
C1528 C 0.76977 0.68117 0.97018 0.0
C1529 C 0.79223 0.71159 0.93349 0.0
N1530 N 0.7279 0.66951 0.94731 0.0
N1531 N 0.77249 0.70509 0.92335 0.0
H1532 H 0.99172 0.05343 0.63299 0.0
H1533 H 0.07038 0.95544 0.67188 0.0
H1534 H 0.03714 0.05158 0.71526 0.0
H1535 H 0.0177 0.9513 0.60148 0.0
H1536 H 0.06192 0.993 0.68111 0.0
H1537 H 0.00412 0.01799 0.61506 0.0
C1538 C 0.00432 0.04562 0.6472 0.0
C1539 C 0.01327 0.05537 0.67584 0.0
C1540 C 0.05229 0.98393 0.66345 0.0
C1541 C 0.02761 0.01508 0.65536 0.0
C1542 C 0.05715 0.96248 0.65807 0.0
C1543 C 0.04454 0.95013 0.63623 0.0
C1544 C 0.03465 0.99314 0.64693 0.0
C1545 C 0.02773 0.96019 0.61879 0.0
C1546 C 0.01139 0.02543 0.63695 0.0
C1547 C 0.02962 0.04459 0.69323 0.0
N1548 N 0.02313 0.9811 0.62476 0.0
N1549 N 0.03621 0.02504 0.68274 0.0
H1550 H 0.69391 0.2852 0.46095 0.0
H1551 H 0.80942 0.28756 0.54594 0.0
H1552 H 0.70425 0.28888 0.5688 0.0
H1553 H 0.7994 0.3008 0.43991 0.0
H1554 H 0.77079 0.28661 0.55423 0.0
H1555 H 0.73242 0.28975 0.45203 0.0
C1556 C 0.70425 0.28706 0.48273 0.0
C1557 C 0.69588 0.28655 0.51569 0.0
C1558 C 0.77701 0.28983 0.52917 0.0
C1559 C 0.73985 0.29161 0.50565 0.0
C1560 C 0.79908 0.29029 0.52438 0.0
C1561 C 0.80762 0.29418 0.49215 0.0
C1562 C 0.76333 0.29304 0.50146 0.0
C1563 C 0.79345 0.29775 0.46519 0.0
C1564 C 0.7262 0.2897 0.47761 0.0
C1565 C 0.71 0.28913 0.54296 0.0
N1566 N 0.77195 0.29694 0.47039 0.0
N1567 N 0.7313 0.29138 0.53733 0.0
loop_
_geom_bond_atom_site_label_1
_geom_bond_atom_site_label_2
_geom_bond_distance
_geom_bond_site_symmetry_2
_ccdc_geom_bond_type
C0 O1 1.160 . S
C0 O7 1.185 . S
O1 C0 1.160 . S
O2 Zn3 1.899 . S
O2 C10 1.284 . S
Zn3 O2 1.899 . S
Zn3 O4 2.032 . S
Zn3 O7 2.086 . S
Zn3 O12 1.977 . S
O4 Zn3 2.032 . S
O4 C8 1.278 . S
C5 O6 1.203 . S
C5 O12 1.267 . S
O6 C5 1.203 . S
O7 C0 1.185 . S
O7 Zn3 2.086 . S
C8 O4 1.278 . S
C8 O9 1.211 . S
O9 C8 1.211 . S
C10 O2 1.284 . S
C10 O11 1.273 . S
O11 C10 1.273 . S
O12 Zn3 1.977 . S
O12 C5 1.267 . S
C13 O14 1.160 . S
C13 O20 1.185 . S
O14 C13 1.160 . S
O15 Zn16 1.899 . S
O15 C23 1.284 . S
Zn16 O15 1.899 . S
Zn16 O17 2.032 . S
Zn16 O20 2.086 . S
Zn16 O25 1.977 . S
O17 Zn16 2.032 . S
O17 C21 1.278 . S
C18 O19 1.203 . S
C18 O25 1.267 . S
O19 C18 1.203 . S
O20 C13 1.185 . S
O20 Zn16 2.086 . S
C21 O17 1.278 . S
C21 O22 1.211 . S
O22 C21 1.211 . S
C23 O15 1.284 . S
C23 O24 1.273 . S
O24 C23 1.273 . S
O25 Zn16 1.977 . S
O25 C18 1.267 . S
C26 O27 1.160 . S
C26 O33 1.185 . S
O27 C26 1.160 . S
O28 Zn29 1.899 . S
O28 C36 1.284 . S
Zn29 O28 1.899 . S
Zn29 O30 2.032 . S
Zn29 O33 2.086 . S
Zn29 O38 1.977 . S
O30 Zn29 2.032 . S
O30 C34 1.278 . S
C31 O32 1.203 . S
C31 O38 1.267 . S
O32 C31 1.203 . S
O33 C26 1.185 . S
O33 Zn29 2.086 . S
C34 O30 1.278 . S
C34 O35 1.211 . S
O35 C34 1.211 . S
C36 O28 1.284 . S
C36 O37 1.273 . S
O37 C36 1.273 . S
O38 Zn29 1.977 . S
O38 C31 1.267 . S
C39 O40 1.160 . S
C39 O46 1.185 . S
O40 C39 1.160 . S
O41 Zn42 1.899 . S
O41 C49 1.284 . S
Zn42 O41 1.899 . S
Zn42 O43 2.032 1_554 S
Zn42 O46 2.086 . S
Zn42 O51 1.977 . S
O43 Zn42 2.032 1_556 S
O43 C47 1.278 . S
C44 O45 1.203 . S
C44 O51 1.267 . S
O45 C44 1.203 . S
O46 C39 1.185 . S
O46 Zn42 2.086 . S
C47 O43 1.278 . S
C47 O48 1.211 . S
O48 C47 1.211 . S
C49 O41 1.284 . S
C49 O50 1.273 . S
O50 C49 1.273 . S
O51 Zn42 1.977 . S
O51 C44 1.267 . S
C52 O53 1.160 . S
C52 O59 1.185 . S
O53 C52 1.160 . S
O54 Zn55 1.899 . S
O54 C62 1.284 . S
Zn55 O54 1.899 . S
Zn55 O56 2.032 . S
Zn55 O59 2.086 . S
Zn55 O64 1.977 . S
O56 Zn55 2.032 . S
O56 C60 1.278 . S
C57 O58 1.203 . S
C57 O64 1.267 . S
O58 C57 1.203 . S
O59 C52 1.185 . S
O59 Zn55 2.086 . S
C60 O56 1.278 . S
C60 O61 1.211 . S
O61 C60 1.211 . S
C62 O54 1.284 . S
C62 O63 1.273 . S
O63 C62 1.273 . S
O64 Zn55 1.977 . S
O64 C57 1.267 . S
C65 O66 1.160 . S
C65 O72 1.185 . S
O66 C65 1.160 . S
O67 Zn68 1.899 . S
O67 C75 1.284 . S
Zn68 O67 1.899 . S
Zn68 O69 2.032 . S
Zn68 O72 2.086 . S
Zn68 O77 1.977 . S
O69 Zn68 2.032 . S
O69 C73 1.278 . S
C70 O71 1.203 . S
C70 O77 1.267 . S
O71 C70 1.203 . S
O72 C65 1.185 . S
O72 Zn68 2.086 . S
C73 O69 1.278 . S
C73 O74 1.211 . S
O74 C73 1.211 . S
C75 O67 1.284 . S
C75 O76 1.273 . S
O76 C75 1.273 . S
O77 Zn68 1.977 . S
O77 C70 1.267 . S
C78 O79 1.160 . S
C78 O85 1.185 . S
O79 C78 1.160 . S
O80 Zn81 1.899 . S
O80 C88 1.284 . S
Zn81 O80 1.899 . S
Zn81 O82 2.032 . S
Zn81 O85 2.086 . S
Zn81 O90 1.977 . S
O82 Zn81 2.032 . S
O82 C86 1.278 . S
C83 O84 1.203 . S
C83 O90 1.267 . S
O84 C83 1.203 . S
O85 C78 1.185 . S
O85 Zn81 2.086 . S
C86 O82 1.278 . S
C86 O87 1.211 . S
O87 C86 1.211 . S
C88 O80 1.284 . S
C88 O89 1.273 . S
O89 C88 1.273 . S
O90 Zn81 1.977 . S
O90 C83 1.267 . S
C91 O92 1.160 . S
C91 O98 1.185 . S
O92 C91 1.160 . S
O93 Zn94 1.899 . S
O93 C101 1.284 . S
Zn94 O93 1.899 . S
Zn94 O95 2.032 1_556 S
Zn94 O98 2.086 . S
Zn94 O103 1.977 . S
O95 Zn94 2.032 1_554 S
O95 C99 1.278 . S
C96 O97 1.203 . S
C96 O103 1.267 . S
O97 C96 1.203 . S
O98 C91 1.185 . S
O98 Zn94 2.086 . S
C99 O95 1.278 . S
C99 O100 1.211 . S
O100 C99 1.211 . S
C101 O93 1.284 . S
C101 O102 1.273 . S
O102 C101 1.273 . S
O103 Zn94 1.977 . S
O103 C96 1.267 . S
C104 O105 1.160 . S
C104 O111 1.185 . S
O105 C104 1.160 . S
O106 Zn107 1.899 . S
O106 C114 1.284 . S
Zn107 O106 1.899 . S
Zn107 O108 2.032 . S
Zn107 O111 2.086 . S
Zn107 O116 1.977 . S
O108 Zn107 2.032 . S
O108 C112 1.278 . S
C109 O110 1.203 . S
C109 O116 1.267 . S
O110 C109 1.203 . S
O111 C104 1.185 . S
O111 Zn107 2.086 . S
C112 O108 1.278 . S
C112 O113 1.211 . S
O113 C112 1.211 . S
C114 O106 1.284 . S
C114 O115 1.273 . S
O115 C114 1.273 . S
O116 Zn107 1.977 . S
O116 C109 1.267 . S
C117 O118 1.160 . S
C117 O124 1.185 . S
O118 C117 1.160 . S
O119 Zn120 1.899 . S
O119 C127 1.284 . S
Zn120 O119 1.899 . S
Zn120 O121 2.032 . S
Zn120 O124 2.086 . S
Zn120 O129 1.977 . S
O121 Zn120 2.032 . S
O121 C125 1.278 . S
C122 O123 1.203 . S
C122 O129 1.267 . S
O123 C122 1.203 . S
O124 C117 1.185 . S
O124 Zn120 2.086 . S
C125 O121 1.278 . S
C125 O126 1.211 . S
O126 C125 1.211 . S
C127 O119 1.284 . S
C127 O128 1.273 . S
O128 C127 1.273 . S
O129 Zn120 1.977 . S
O129 C122 1.267 . S
C130 O131 1.160 . S
C130 O137 1.185 . S
O131 C130 1.160 . S
O132 Zn133 1.899 . S
O132 C140 1.284 . S
Zn133 O132 1.899 . S
Zn133 O134 2.032 . S
Zn133 O137 2.086 . S
Zn133 O142 1.977 . S
O134 Zn133 2.032 . S
O134 C138 1.278 . S
C135 O136 1.203 . S
C135 O142 1.267 . S
O136 C135 1.203 . S
O137 C130 1.185 . S
O137 Zn133 2.086 . S
C138 O134 1.278 . S
C138 O139 1.211 . S
O139 C138 1.211 . S
C140 O132 1.284 . S
C140 O141 1.273 . S
O141 C140 1.273 . S
O142 Zn133 1.977 . S
O142 C135 1.267 . S
C143 O144 1.160 . S
C143 O150 1.185 . S
O144 C143 1.160 . S
O145 Zn146 1.899 . S
O145 C153 1.284 . S
Zn146 O145 1.899 . S
Zn146 O147 2.032 1_556 S
Zn146 O150 2.086 . S
Zn146 O155 1.977 . S
O147 Zn146 2.032 1_554 S
O147 C151 1.278 . S
C148 O149 1.203 . S
C148 O155 1.267 . S
O149 C148 1.203 . S
O150 C143 1.185 . S
O150 Zn146 2.086 . S
C151 O147 1.278 . S
C151 O152 1.211 . S
O152 C151 1.211 . S
C153 O145 1.284 . S
C153 O154 1.273 . S
O154 C153 1.273 . S
O155 Zn146 1.977 . S
O155 C148 1.267 . S
C156 O157 1.160 . S
C156 O163 1.185 . S
O157 C156 1.160 . S
O158 Zn159 1.899 . S
O158 C166 1.284 . S
Zn159 O158 1.899 . S
Zn159 O160 2.032 . S
Zn159 O163 2.086 . S
Zn159 O168 1.977 . S
O160 Zn159 2.032 . S
O160 C164 1.278 . S
C161 O162 1.203 . S
C161 O168 1.267 . S
O162 C161 1.203 . S
O163 C156 1.185 . S
O163 Zn159 2.086 . S
C164 O160 1.278 . S
C164 O165 1.211 . S
O165 C164 1.211 . S
C166 O158 1.284 . S
C166 O167 1.273 . S
O167 C166 1.273 . S
O168 Zn159 1.977 . S
O168 C161 1.267 . S
C169 O170 1.160 . S
C169 O176 1.185 . S
O170 C169 1.160 . S
O171 Zn172 1.899 . S
O171 C179 1.284 . S
Zn172 O171 1.899 . S
Zn172 O173 2.032 . S
Zn172 O176 2.086 . S
Zn172 O181 1.977 . S
O173 Zn172 2.032 . S
O173 C177 1.278 . S
C174 O175 1.203 . S
C174 O181 1.267 . S
O175 C174 1.203 . S
O176 C169 1.185 . S
O176 Zn172 2.086 . S
C177 O173 1.278 . S
C177 O178 1.211 . S
O178 C177 1.211 . S
C179 O171 1.284 . S
C179 O180 1.273 . S
O180 C179 1.273 . S
O181 Zn172 1.977 . S
O181 C174 1.267 . S
C182 O183 1.160 . S
C182 O189 1.185 . S
O183 C182 1.160 . S
O184 Zn185 1.899 . S
O184 C192 1.284 . S
Zn185 O184 1.899 . S
Zn185 O186 2.032 . S
Zn185 O189 2.086 . S
Zn185 O194 1.977 . S
O186 Zn185 2.032 . S
O186 C190 1.278 . S
C187 O188 1.203 . S
C187 O194 1.267 . S
O188 C187 1.203 . S
O189 C182 1.185 . S
O189 Zn185 2.086 . S
C190 O186 1.278 . S
C190 O191 1.211 . S
O191 C190 1.211 . S
C192 O184 1.284 . S
C192 O193 1.273 . S
O193 C192 1.273 . S
O194 Zn185 1.977 . S
O194 C187 1.267 . S
C195 O196 1.160 . S
C195 O202 1.185 . S
O196 C195 1.160 . S
O197 Zn198 1.899 . S
O197 C205 1.284 . S
Zn198 O197 1.899 . S
Zn198 O199 2.032 1_554 S
Zn198 O202 2.086 . S
Zn198 O207 1.977 . S
O199 Zn198 2.032 1_556 S
O199 C203 1.278 . S
C200 O201 1.203 . S
C200 O207 1.267 . S
O201 C200 1.203 . S
O202 C195 1.185 . S
O202 Zn198 2.086 . S
C203 O199 1.278 . S
C203 O204 1.211 . S
O204 C203 1.211 . S
C205 O197 1.284 . S
C205 O206 1.273 . S
O206 C205 1.273 . S
O207 Zn198 1.977 . S
O207 C200 1.267 . S
C208 O209 1.160 . S
C208 O215 1.185 . S
O209 C208 1.160 . S
O210 Zn211 1.899 . S
O210 C218 1.284 . S
Zn211 O210 1.899 . S
Zn211 O212 2.032 . S
Zn211 O215 2.086 . S
Zn211 O220 1.977 . S
O212 Zn211 2.032 . S
O212 C216 1.278 . S
C213 O214 1.203 . S
C213 O220 1.267 . S
O214 C213 1.203 . S
O215 C208 1.185 . S
O215 Zn211 2.086 . S
C216 O212 1.278 . S
C216 O217 1.211 . S
O217 C216 1.211 . S
C218 O210 1.284 . S
C218 O219 1.273 . S
O219 C218 1.273 . S
O220 Zn211 1.977 . S
O220 C213 1.267 . S
C221 O222 1.160 . S
C221 O228 1.185 . S
O222 C221 1.160 . S
O223 Zn224 1.899 . S
O223 C231 1.284 . S
Zn224 O223 1.899 . S
Zn224 O225 2.032 1_554 S
Zn224 O228 2.086 . S
Zn224 O233 1.977 . S
O225 Zn224 2.032 1_556 S
O225 C229 1.278 . S
C226 O227 1.203 . S
C226 O233 1.267 . S
O227 C226 1.203 . S
O228 C221 1.185 . S
O228 Zn224 2.086 . S
C229 O225 1.278 . S
C229 O230 1.211 . S
O230 C229 1.211 . S
C231 O223 1.284 . S
C231 O232 1.273 . S
O232 C231 1.273 . S
O233 Zn224 1.977 . S
O233 C226 1.267 . S
C234 O235 1.160 . S
C234 O241 1.185 . S
O235 C234 1.160 . S
O236 Zn237 1.899 . S
O236 C244 1.284 . S
Zn237 O236 1.899 . S
Zn237 O238 2.032 . S
Zn237 O241 2.086 . S
Zn237 O246 1.977 . S
O238 Zn237 2.032 . S
O238 C242 1.278 . S
C239 O240 1.203 . S
C239 O246 1.267 . S
O240 C239 1.203 . S
O241 C234 1.185 . S
O241 Zn237 2.086 . S
C242 O238 1.278 . S
C242 O243 1.211 . S
O243 C242 1.211 . S
C244 O236 1.284 . S
C244 O245 1.273 . S
O245 C244 1.273 . S
O246 Zn237 1.977 . S
O246 C239 1.267 . S
C247 O248 1.160 . S
C247 O254 1.185 . S
O248 C247 1.160 . S
O249 Zn250 1.899 . S
O249 C257 1.284 . S
Zn250 O249 1.899 . S
Zn250 O251 2.032 . S
Zn250 O254 2.086 . S
Zn250 O259 1.977 . S
O251 Zn250 2.032 . S
O251 C255 1.278 . S
C252 O253 1.203 . S
C252 O259 1.267 . S
O253 C252 1.203 . S
O254 C247 1.185 . S
O254 Zn250 2.086 . S
C255 O251 1.278 . S
C255 O256 1.211 . S
O256 C255 1.211 . S
C257 O249 1.284 . S
C257 O258 1.273 . S
O258 C257 1.273 . S
O259 Zn250 1.977 . S
O259 C252 1.267 . S
C260 O261 1.160 . S
C260 O267 1.185 . S
O261 C260 1.160 . S
O262 Zn263 1.899 . S
O262 C270 1.284 . S
Zn263 O262 1.899 . S
Zn263 O264 2.032 . S
Zn263 O267 2.086 . S
Zn263 O272 1.977 . S
O264 Zn263 2.032 . S
O264 C268 1.278 . S
C265 O266 1.203 . S
C265 O272 1.267 . S
O266 C265 1.203 . S
O267 C260 1.185 . S
O267 Zn263 2.086 . S
C268 O264 1.278 . S
C268 O269 1.211 . S
O269 C268 1.211 . S
C270 O262 1.284 . S
C270 O271 1.273 . S
O271 C270 1.273 . S
O272 Zn263 1.977 . S
O272 C265 1.267 . S
C273 O274 1.160 . S
C273 O280 1.185 . S
O274 C273 1.160 . S
O275 Zn276 1.899 . S
O275 C283 1.284 . S
Zn276 O275 1.899 . S
Zn276 O277 2.032 1_556 S
Zn276 O280 2.086 . S
Zn276 O285 1.977 . S
O277 Zn276 2.032 1_554 S
O277 C281 1.278 . S
C278 O279 1.203 . S
C278 O285 1.267 . S
O279 C278 1.203 . S
O280 C273 1.185 . S
O280 Zn276 2.086 . S
C281 O277 1.278 . S
C281 O282 1.211 . S
O282 C281 1.211 . S
C283 O275 1.284 . S
C283 O284 1.273 . S
O284 C283 1.273 . S
O285 Zn276 1.977 . S
O285 C278 1.267 . S
C286 O287 1.160 . S
C286 O293 1.185 . S
O287 C286 1.160 . S
O288 Zn289 1.899 . S
O288 C296 1.284 . S
Zn289 O288 1.899 . S
Zn289 O290 2.032 . S
Zn289 O293 2.086 . S
Zn289 O298 1.977 . S
O290 Zn289 2.032 . S
O290 C294 1.278 . S
C291 O292 1.203 . S
C291 O298 1.267 . S
O292 C291 1.203 . S
O293 C286 1.185 . S
O293 Zn289 2.086 . S
C294 O290 1.278 . S
C294 O295 1.211 . S
O295 C294 1.211 . S
C296 O288 1.284 . S
C296 O297 1.273 . S
O297 C296 1.273 . S
O298 Zn289 1.977 . S
O298 C291 1.267 . S
C299 O300 1.160 . S
C299 O306 1.185 . S
O300 C299 1.160 . S
O301 Zn302 1.899 . S
O301 C309 1.284 . S
Zn302 O301 1.899 . S
Zn302 O303 2.032 . S
Zn302 O306 2.086 . S
Zn302 O311 1.977 . S
O303 Zn302 2.032 . S
O303 C307 1.278 . S
C304 O305 1.203 . S
C304 O311 1.267 . S
O305 C304 1.203 . S
O306 C299 1.185 . S
O306 Zn302 2.086 . S
C307 O303 1.278 . S
C307 O308 1.211 . S
O308 C307 1.211 . S
C309 O301 1.284 . S
C309 O310 1.273 . S
O310 C309 1.273 . S
O311 Zn302 1.977 . S
O311 C304 1.267 . S
C312 O313 1.160 . S
C312 O319 1.185 . S
O313 C312 1.160 . S
O314 Zn315 1.899 . S
O314 C322 1.284 . S
Zn315 O314 1.899 . S
Zn315 O316 2.032 . S
Zn315 O319 2.086 . S
Zn315 O324 1.977 . S
O316 Zn315 2.032 . S
O316 C320 1.278 . S
C317 O318 1.203 . S
C317 O324 1.267 . S
O318 C317 1.203 . S
O319 C312 1.185 . S
O319 Zn315 2.086 . S
C320 O316 1.278 . S
C320 O321 1.211 . S
O321 C320 1.211 . S
C322 O314 1.284 . S
C322 O323 1.273 . S
O323 C322 1.273 . S
O324 Zn315 1.977 . S
O324 C317 1.267 . S
C325 O326 1.160 . S
C325 O332 1.185 . S
O326 C325 1.160 . S
O327 Zn328 1.899 . S
O327 C335 1.284 . S
Zn328 O327 1.899 . S
Zn328 O329 2.032 1_556 S
Zn328 O332 2.086 . S
Zn328 O337 1.977 . S
O329 Zn328 2.032 1_554 S
O329 C333 1.278 . S
C330 O331 1.203 . S
C330 O337 1.267 . S
O331 C330 1.203 . S
O332 C325 1.185 . S
O332 Zn328 2.086 . S
C333 O329 1.278 . S
C333 O334 1.211 . S
O334 C333 1.211 . S
C335 O327 1.284 . S
C335 O336 1.273 . S
O336 C335 1.273 . S
O337 Zn328 1.977 . S
O337 C330 1.267 . S
C338 O339 1.160 . S
C338 O345 1.185 . S
O339 C338 1.160 . S
O340 Zn341 1.899 . S
O340 C348 1.284 . S
Zn341 O340 1.899 . S
Zn341 O342 2.032 . S
Zn341 O345 2.086 . S
Zn341 O350 1.977 . S
O342 Zn341 2.032 . S
O342 C346 1.278 . S
C343 O344 1.203 . S
C343 O350 1.267 . S
O344 C343 1.203 . S
O345 C338 1.185 . S
O345 Zn341 2.086 . S
C346 O342 1.278 . S
C346 O347 1.211 . S
O347 C346 1.211 . S
C348 O340 1.284 . S
C348 O349 1.273 . S
O349 C348 1.273 . S
O350 Zn341 1.977 . S
O350 C343 1.267 . S
C351 O352 1.160 . S
C351 O358 1.185 . S
O352 C351 1.160 . S
O353 Zn354 1.899 . S
O353 C361 1.284 . S
Zn354 O353 1.899 . S
Zn354 O355 2.032 . S
Zn354 O358 2.086 . S
Zn354 O363 1.977 . S
O355 Zn354 2.032 . S
O355 C359 1.278 . S
C356 O357 1.203 . S
C356 O363 1.267 . S
O357 C356 1.203 . S
O358 C351 1.185 . S
O358 Zn354 2.086 . S
C359 O355 1.278 . S
C359 O360 1.211 . S
O360 C359 1.211 . S
C361 O353 1.284 . S
C361 O362 1.273 . S
O362 C361 1.273 . S
O363 Zn354 1.977 . S
O363 C356 1.267 . S
C364 O365 1.160 . S
C364 O371 1.185 . S
O365 C364 1.160 . S
O366 Zn367 1.899 . S
O366 C374 1.284 . S
Zn367 O366 1.899 . S
Zn367 O368 2.032 . S
Zn367 O371 2.086 . S
Zn367 O376 1.977 . S
O368 Zn367 2.032 . S
O368 C372 1.278 . S
C369 O370 1.203 . S
C369 O376 1.267 . S
O370 C369 1.203 . S
O371 C364 1.185 . S
O371 Zn367 2.086 . S
C372 O368 1.278 . S
C372 O373 1.211 . S
O373 C372 1.211 . S
C374 O366 1.284 . S
C374 O375 1.273 . S
O375 C374 1.273 . S
O376 Zn367 1.977 . S
O376 C369 1.267 . S
C377 O378 1.160 . S
C377 O384 1.185 . S
O378 C377 1.160 . S
O379 Zn380 1.899 . S
O379 C387 1.284 . S
Zn380 O379 1.899 . S
Zn380 O381 2.032 1_554 S
Zn380 O384 2.086 . S
Zn380 O389 1.977 . S
O381 Zn380 2.032 1_556 S
O381 C385 1.278 . S
C382 O383 1.203 . S
C382 O389 1.267 . S
O383 C382 1.203 . S
O384 C377 1.185 . S
O384 Zn380 2.086 . S
C385 O381 1.278 . S
C385 O386 1.211 . S
O386 C385 1.211 . S
C387 O379 1.284 . S
C387 O388 1.273 . S
O388 C387 1.273 . S
O389 Zn380 1.977 . S
O389 C382 1.267 . S
C390 O391 1.160 . S
C390 O397 1.185 . S
O391 C390 1.160 . S
O392 Zn393 1.899 . S
O392 C400 1.284 . S
Zn393 O392 1.899 . S
Zn393 O394 2.032 . S
Zn393 O397 2.086 . S
Zn393 O402 1.977 . S
O394 Zn393 2.032 . S
O394 C398 1.278 . S
C395 O396 1.203 . S
C395 O402 1.267 . S
O396 C395 1.203 . S
O397 C390 1.185 . S
O397 Zn393 2.086 . S
C398 O394 1.278 . S
C398 O399 1.211 . S
O399 C398 1.211 . S
C400 O392 1.284 . S
C400 O401 1.273 . S
O401 C400 1.273 . S
O402 Zn393 1.977 . S
O402 C395 1.267 . S
C403 O404 1.160 . S
C403 O410 1.185 . S
O404 C403 1.160 . S
O405 Zn406 1.899 . S
O405 C413 1.284 . S
Zn406 O405 1.899 . S
Zn406 O407 2.032 . S
Zn406 O410 2.086 . S
Zn406 O415 1.977 . S
O407 Zn406 2.032 . S
O407 C411 1.278 . S
C408 O409 1.203 . S
C408 O415 1.267 . S
O409 C408 1.203 . S
O410 C403 1.185 . S
O410 Zn406 2.086 . S
C411 O407 1.278 . S
C411 O412 1.211 . S
O412 C411 1.211 . S
C413 O405 1.284 . S
C413 O414 1.273 . S
O414 C413 1.273 . S
O415 Zn406 1.977 . S
O415 C408 1.267 . S
H416 C422 0.930 . S
H417 C426 0.930 . S
H418 C431 0.929 . S
H419 C429 0.929 . S
H420 C424 0.929 . S
H421 C430 0.929 . S
C422 H416 0.930 . S
C422 C423 1.367 . S
C422 C430 1.378 . S
C423 C422 1.367 . S
C423 C431 1.433 . S
C424 H420 0.929 . S
C424 C426 1.378 . S
C424 C428 1.350 . S
C425 C428 1.463 . S
C425 C430 1.350 . S
C425 N433 1.427 . S
C426 H417 0.930 . S
C426 C424 1.378 . S
C426 C427 1.367 . S
C427 C426 1.367 . S
C427 C429 1.433 . S
C428 C424 1.350 . S
C428 C425 1.463 . S
C428 N432 1.427 . S
C429 H419 0.929 . S
C429 C427 1.433 . S
C429 N432 1.384 . S
C430 H421 0.929 . S
C430 C422 1.378 . S
C430 C425 1.350 . S
C431 H418 0.929 . S
C431 C423 1.433 . S
C431 N433 1.384 . S
N432 C428 1.427 . S
N432 C429 1.384 . S
N433 C425 1.427 . S
N433 C431 1.384 . S
H434 C440 0.930 . S
H435 C444 0.930 . S
H436 C449 0.929 . S
H437 C447 0.929 . S
H438 C442 0.929 . S
H439 C448 0.929 . S
C440 H434 0.930 . S
C440 C441 1.367 . S
C440 C448 1.378 . S
C441 C440 1.367 . S
C441 C449 1.433 . S
C442 H438 0.929 . S
C442 C444 1.378 . S
C442 C446 1.350 . S
C443 C446 1.463 . S
C443 C448 1.350 . S
C443 N451 1.427 . S
C444 H435 0.930 . S
C444 C442 1.378 . S
C444 C445 1.367 . S
C445 C444 1.367 . S
C445 C447 1.433 . S
C446 C442 1.350 . S
C446 C443 1.463 . S
C446 N450 1.427 . S
C447 H437 0.929 . S
C447 C445 1.433 . S
C447 N450 1.384 . S
C448 H439 0.929 . S
C448 C440 1.378 . S
C448 C443 1.350 . S
C449 H436 0.929 . S
C449 C441 1.433 . S
C449 N451 1.384 . S
N450 C446 1.427 . S
N450 C447 1.384 . S
N451 C443 1.427 . S
N451 C449 1.384 . S
H452 C458 0.930 . S
H453 C462 0.930 . S
H454 C467 0.929 . S
H455 C465 0.929 . S
H456 C460 0.929 . S
H457 C466 0.929 . S
C458 H452 0.930 . S
C458 C459 1.367 . S
C458 C466 1.378 . S
C459 C458 1.367 . S
C459 C467 1.433 . S
C460 H456 0.929 . S
C460 C462 1.378 . S
C460 C464 1.350 . S
C461 C464 1.463 . S
C461 C466 1.350 . S
C461 N469 1.427 . S
C462 H453 0.930 . S
C462 C460 1.378 . S
C462 C463 1.367 . S
C463 C462 1.367 . S
C463 C465 1.433 . S
C464 C460 1.350 . S
C464 C461 1.463 . S
C464 N468 1.427 . S
C465 H455 0.929 . S
C465 C463 1.433 . S
C465 N468 1.384 . S
C466 H457 0.929 . S
C466 C458 1.378 . S
C466 C461 1.350 . S
C467 H454 0.929 . S
C467 C459 1.433 . S
C467 N469 1.384 . S
N468 C464 1.427 . S
N468 C465 1.384 . S
N469 C461 1.427 . S
N469 C467 1.384 . S
H470 C476 0.930 . S
H471 C480 0.930 . S
H472 C485 0.929 . S
H473 C483 0.929 . S
H474 C478 0.929 . S
H475 C484 0.929 . S
C476 H470 0.930 . S
C476 C477 1.367 . S
C476 C484 1.378 . S
C477 C476 1.367 . S
C477 C485 1.433 . S
C478 H474 0.929 . S
C478 C480 1.378 . S
C478 C482 1.350 . S
C479 C482 1.463 . S
C479 C484 1.350 . S
C479 N487 1.427 . S
C480 H471 0.930 . S
C480 C478 1.378 . S
C480 C481 1.367 . S
C481 C480 1.367 . S
C481 C483 1.433 . S
C482 C478 1.350 . S
C482 C479 1.463 . S
C482 N486 1.427 . S
C483 H473 0.929 . S
C483 C481 1.433 . S
C483 N486 1.384 . S
C484 H475 0.929 . S
C484 C476 1.378 . S
C484 C479 1.350 . S
C485 H472 0.929 . S
C485 C477 1.433 . S
C485 N487 1.384 . S
N486 C482 1.427 . S
N486 C483 1.384 . S
N487 C479 1.427 . S
N487 C485 1.384 . S
H488 C494 0.930 . S
H489 C498 0.930 . S
H490 C503 0.929 . S
H491 C501 0.929 . S
H492 C496 0.929 . S
H493 C502 0.929 . S
C494 H488 0.930 . S
C494 C495 1.367 . S
C494 C502 1.378 . S
C495 C494 1.367 . S
C495 C503 1.433 . S
C496 H492 0.929 . S
C496 C498 1.378 . S
C496 C500 1.350 . S
C497 C500 1.463 . S
C497 C502 1.350 . S
C497 N505 1.427 . S
C498 H489 0.930 . S
C498 C496 1.378 . S
C498 C499 1.367 . S
C499 C498 1.367 . S
C499 C501 1.433 . S
C500 C496 1.350 . S
C500 C497 1.463 . S
C500 N504 1.427 . S
C501 H491 0.929 . S
C501 C499 1.433 . S
C501 N504 1.384 . S
C502 H493 0.929 . S
C502 C494 1.378 . S
C502 C497 1.350 . S
C503 H490 0.929 . S
C503 C495 1.433 . S
C503 N505 1.384 . S
N504 C500 1.427 . S
N504 C501 1.384 . S
N505 C497 1.427 . S
N505 C503 1.384 . S
H506 C512 0.930 . S
H507 C516 0.930 . S
H508 C521 0.929 . S
H509 C519 0.929 . S
H510 C514 0.929 . S
H511 C520 0.929 . S
C512 H506 0.930 . S
C512 C513 1.367 . S
C512 C520 1.378 . S
C513 C512 1.367 . S
C513 C521 1.433 . S
C514 H510 0.929 . S
C514 C516 1.378 . S
C514 C518 1.350 . S
C515 C518 1.463 . S
C515 C520 1.350 . S
C515 N523 1.427 . S
C516 H507 0.930 . S
C516 C514 1.378 . S
C516 C517 1.367 . S
C517 C516 1.367 . S
C517 C519 1.433 . S
C518 C514 1.350 . S
C518 C515 1.463 . S
C518 N522 1.427 . S
C519 H509 0.929 . S
C519 C517 1.433 . S
C519 N522 1.384 . S
C520 H511 0.929 . S
C520 C512 1.378 . S
C520 C515 1.350 . S
C521 H508 0.929 . S
C521 C513 1.433 . S
C521 N523 1.384 . S
N522 C518 1.427 . S
N522 C519 1.384 . S
N523 C515 1.427 . S
N523 C521 1.384 . S
H524 C530 0.930 . S
H525 C534 0.930 . S
H526 C539 0.929 . S
H527 C537 0.929 . S
H528 C532 0.929 . S
H529 C538 0.929 . S
C530 H524 0.930 . S
C530 C531 1.367 . S
C530 C538 1.378 . S
C531 C530 1.367 . S
C531 C539 1.433 . S
C532 H528 0.929 . S
C532 C534 1.378 . S
C532 C536 1.350 . S
C533 C536 1.463 . S
C533 C538 1.350 . S
C533 N541 1.427 . S
C534 H525 0.930 . S
C534 C532 1.378 . S
C534 C535 1.367 . S
C535 C534 1.367 . S
C535 C537 1.433 . S
C536 C532 1.350 . S
C536 C533 1.463 . S
C536 N540 1.427 . S
C537 H527 0.929 . S
C537 C535 1.433 . S
C537 N540 1.384 . S
C538 H529 0.929 . S
C538 C530 1.378 . S
C538 C533 1.350 . S
C539 H526 0.929 . S
C539 C531 1.433 . S
C539 N541 1.384 . S
N540 C536 1.427 . S
N540 C537 1.384 . S
N541 C533 1.427 . S
N541 C539 1.384 . S
H542 C548 0.930 . S
H543 C552 0.930 . S
H544 C557 0.929 . S
H545 C555 0.929 . S
H546 C550 0.929 . S
H547 C556 0.929 . S
C548 H542 0.930 . S
C548 C549 1.367 . S
C548 C556 1.378 . S
C549 C548 1.367 . S
C549 C557 1.433 . S
C550 H546 0.929 . S
C550 C552 1.378 . S
C550 C554 1.350 . S
C551 C554 1.463 . S
C551 C556 1.350 . S
C551 N559 1.427 . S
C552 H543 0.930 . S
C552 C550 1.378 . S
C552 C553 1.367 . S
C553 C552 1.367 . S
C553 C555 1.433 . S
C554 C550 1.350 . S
C554 C551 1.463 . S
C554 N558 1.427 . S
C555 H545 0.929 . S
C555 C553 1.433 . S
C555 N558 1.384 . S
C556 H547 0.929 . S
C556 C548 1.378 . S
C556 C551 1.350 . S
C557 H544 0.929 . S
C557 C549 1.433 . S
C557 N559 1.384 . S
N558 C554 1.427 . S
N558 C555 1.384 . S
N559 C551 1.427 . S
N559 C557 1.384 . S
H560 C566 0.930 . S
H561 C570 0.930 . S
H562 C575 0.929 . S
H563 C573 0.929 . S
H564 C568 0.929 . S
H565 C574 0.929 . S
C566 H560 0.930 . S
C566 C567 1.367 . S
C566 C574 1.378 . S
C567 C566 1.367 . S
C567 C575 1.433 . S
C568 H564 0.929 . S
C568 C570 1.378 . S
C568 C572 1.350 . S
C569 C572 1.463 . S
C569 C574 1.350 . S
C569 N577 1.427 . S
C570 H561 0.930 . S
C570 C568 1.378 . S
C570 C571 1.367 . S
C571 C570 1.367 . S
C571 C573 1.433 . S
C572 C568 1.350 . S
C572 C569 1.463 . S
C572 N576 1.427 . S
C573 H563 0.929 . S
C573 C571 1.433 . S
C573 N576 1.384 . S
C574 H565 0.929 . S
C574 C566 1.378 . S
C574 C569 1.350 . S
C575 H562 0.929 . S
C575 C567 1.433 . S
C575 N577 1.384 . S
N576 C572 1.427 . S
N576 C573 1.384 . S
N577 C569 1.427 . S
N577 C575 1.384 . S
H578 C584 0.930 . S
H579 C588 0.930 . S
H580 C593 0.929 . S
H581 C591 0.929 . S
H582 C586 0.929 . S
H583 C592 0.929 . S
C584 H578 0.930 . S
C584 C585 1.367 . S
C584 C592 1.378 . S
C585 C584 1.367 . S
C585 C593 1.433 . S
C586 H582 0.929 . S
C586 C588 1.378 . S
C586 C590 1.350 . S
C587 C590 1.463 . S
C587 C592 1.350 . S
C587 N595 1.427 . S
C588 H579 0.930 . S
C588 C586 1.378 . S
C588 C589 1.367 . S
C589 C588 1.367 . S
C589 C591 1.433 . S
C590 C586 1.350 . S
C590 C587 1.463 . S
C590 N594 1.427 . S
C591 H581 0.929 . S
C591 C589 1.433 . S
C591 N594 1.384 . S
C592 H583 0.929 . S
C592 C584 1.378 . S
C592 C587 1.350 . S
C593 H580 0.929 . S
C593 C585 1.433 . S
C593 N595 1.384 . S
N594 C590 1.427 . S
N594 C591 1.384 . S
N595 C587 1.427 . S
N595 C593 1.384 . S
H596 C602 0.930 . S
H597 C606 0.930 . S
H598 C611 0.929 . S
H599 C609 0.929 . S
H600 C604 0.929 . S
H601 C610 0.929 . S
C602 H596 0.930 . S
C602 C603 1.367 . S
C602 C610 1.378 . S
C603 C602 1.367 . S
C603 C611 1.433 . S
C604 H600 0.929 . S
C604 C606 1.378 . S
C604 C608 1.350 . S
C605 C608 1.463 . S
C605 C610 1.350 . S
C605 N613 1.427 . S
C606 H597 0.930 . S
C606 C604 1.378 . S
C606 C607 1.367 . S
C607 C606 1.367 . S
C607 C609 1.433 . S
C608 C604 1.350 . S
C608 C605 1.463 . S
C608 N612 1.427 . S
C609 H599 0.929 . S
C609 C607 1.433 . S
C609 N612 1.384 . S
C610 H601 0.929 . S
C610 C602 1.378 . S
C610 C605 1.350 . S
C611 H598 0.929 . S
C611 C603 1.433 . S
C611 N613 1.384 . S
N612 C608 1.427 . S
N612 C609 1.384 . S
N613 C605 1.427 . S
N613 C611 1.384 . S
H614 C620 0.930 . S
H615 C624 0.930 . S
H616 C629 0.929 . S
H617 C627 0.929 . S
H618 C622 0.929 . S
H619 C628 0.929 . S
C620 H614 0.930 . S
C620 C621 1.367 . S
C620 C628 1.378 . S
C621 C620 1.367 . S
C621 C629 1.433 . S
C622 H618 0.929 . S
C622 C624 1.378 . S
C622 C626 1.350 . S
C623 C626 1.463 . S
C623 C628 1.350 . S
C623 N631 1.427 . S
C624 H615 0.930 . S
C624 C622 1.378 . S
C624 C625 1.367 . S
C625 C624 1.367 . S
C625 C627 1.433 . S
C626 C622 1.350 . S
C626 C623 1.463 . S
C626 N630 1.427 . S
C627 H617 0.929 . S
C627 C625 1.433 . S
C627 N630 1.384 . S
C628 H619 0.929 . S
C628 C620 1.378 . S
C628 C623 1.350 . S
C629 H616 0.929 . S
C629 C621 1.433 . S
C629 N631 1.384 . S
N630 C626 1.427 . S
N630 C627 1.384 . S
N631 C623 1.427 . S
N631 C629 1.384 . S
H632 C638 0.930 . S
H633 C642 0.930 . S
H634 C647 0.929 . S
H635 C645 0.929 . S
H636 C640 0.929 . S
H637 C646 0.929 . S
C638 H632 0.930 . S
C638 C639 1.367 . S
C638 C646 1.378 . S
C639 C638 1.367 . S
C639 C647 1.433 . S
C640 H636 0.929 . S
C640 C642 1.378 . S
C640 C644 1.350 . S
C641 C644 1.463 . S
C641 C646 1.350 . S
C641 N649 1.427 . S
C642 H633 0.930 . S
C642 C640 1.378 . S
C642 C643 1.367 . S
C643 C642 1.367 . S
C643 C645 1.433 . S
C644 C640 1.350 . S
C644 C641 1.463 . S
C644 N648 1.427 . S
C645 H635 0.929 . S
C645 C643 1.433 . S
C645 N648 1.384 . S
C646 H637 0.929 . S
C646 C638 1.378 . S
C646 C641 1.350 . S
C647 H634 0.929 . S
C647 C639 1.433 . S
C647 N649 1.384 . S
N648 C644 1.427 . S
N648 C645 1.384 . S
N649 C641 1.427 . S
N649 C647 1.384 . S
H650 C656 0.930 . S
H651 C660 0.930 . S
H652 C665 0.929 . S
H653 C663 0.929 . S
H654 C658 0.929 . S
H655 C664 0.929 . S
C656 H650 0.930 . S
C656 C657 1.367 . S
C656 C664 1.378 . S
C657 C656 1.367 . S
C657 C665 1.433 . S
C658 H654 0.929 . S
C658 C660 1.378 . S
C658 C662 1.350 . S
C659 C662 1.463 . S
C659 C664 1.350 . S
C659 N667 1.427 . S
C660 H651 0.930 . S
C660 C658 1.378 . S
C660 C661 1.367 . S
C661 C660 1.367 . S
C661 C663 1.433 . S
C662 C658 1.350 . S
C662 C659 1.463 . S
C662 N666 1.427 . S
C663 H653 0.929 . S
C663 C661 1.433 . S
C663 N666 1.384 . S
C664 H655 0.929 . S
C664 C656 1.378 . S
C664 C659 1.350 . S
C665 H652 0.929 . S
C665 C657 1.433 . S
C665 N667 1.384 . S
N666 C662 1.427 . S
N666 C663 1.384 . S
N667 C659 1.427 . S
N667 C665 1.384 . S
H668 C674 0.930 . S
H669 C678 0.930 . S
H670 C683 0.929 . S
H671 C681 0.929 . S
H672 C676 0.929 . S
H673 C682 0.929 . S
C674 H668 0.930 . S
C674 C675 1.367 . S
C674 C682 1.378 . S
C675 C674 1.367 . S
C675 C683 1.433 . S
C676 H672 0.929 . S
C676 C678 1.378 . S
C676 C680 1.350 . S
C677 C680 1.463 . S
C677 C682 1.350 . S
C677 N685 1.427 . S
C678 H669 0.930 . S
C678 C676 1.378 . S
C678 C679 1.367 . S
C679 C678 1.367 . S
C679 C681 1.433 . S
C680 C676 1.350 . S
C680 C677 1.463 . S
C680 N684 1.427 . S
C681 H671 0.929 . S
C681 C679 1.433 . S
C681 N684 1.384 . S
C682 H673 0.929 . S
C682 C674 1.378 . S
C682 C677 1.350 . S
C683 H670 0.929 . S
C683 C675 1.433 . S
C683 N685 1.384 . S
N684 C680 1.427 . S
N684 C681 1.384 . S
N685 C677 1.427 . S
N685 C683 1.384 . S
H686 C692 0.930 . S
H687 C696 0.930 . S
H688 C701 0.929 . S
H689 C699 0.929 . S
H690 C694 0.929 . S
H691 C700 0.929 . S
C692 H686 0.930 . S
C692 C693 1.367 . S
C692 C700 1.378 . S
C693 C692 1.367 . S
C693 C701 1.433 . S
C694 H690 0.929 . S
C694 C696 1.378 . S
C694 C698 1.350 . S
C695 C698 1.463 . S
C695 C700 1.350 . S
C695 N703 1.427 . S
C696 H687 0.930 . S
C696 C694 1.378 . S
C696 C697 1.367 . S
C697 C696 1.367 . S
C697 C699 1.433 . S
C698 C694 1.350 . S
C698 C695 1.463 . S
C698 N702 1.427 . S
C699 H689 0.929 . S
C699 C697 1.433 . S
C699 N702 1.384 . S
C700 H691 0.929 . S
C700 C692 1.378 . S
C700 C695 1.350 . S
C701 H688 0.929 . S
C701 C693 1.433 . S
C701 N703 1.384 . S
N702 C698 1.427 . S
N702 C699 1.384 . S
N703 C695 1.427 . S
N703 C701 1.384 . S
H704 C710 0.930 . S
H705 C714 0.930 . S
H706 C719 0.929 . S
H707 C717 0.929 . S
H708 C712 0.929 . S
H709 C718 0.929 . S
C710 H704 0.930 . S
C710 C711 1.367 . S
C710 C718 1.378 . S
C711 C710 1.367 . S
C711 C719 1.433 . S
C712 H708 0.929 . S
C712 C714 1.378 . S
C712 C716 1.350 . S
C713 C716 1.463 . S
C713 C718 1.350 . S
C713 N721 1.427 . S
C714 H705 0.930 . S
C714 C712 1.378 . S
C714 C715 1.367 . S
C715 C714 1.367 . S
C715 C717 1.433 . S
C716 C712 1.350 . S
C716 C713 1.463 . S
C716 N720 1.427 . S
C717 H707 0.929 . S
C717 C715 1.433 . S
C717 N720 1.384 . S
C718 H709 0.929 . S
C718 C710 1.378 . S
C718 C713 1.350 . S
C719 H706 0.929 . S
C719 C711 1.433 . S
C719 N721 1.384 . S
N720 C716 1.427 . S
N720 C717 1.384 . S
N721 C713 1.427 . S
N721 C719 1.384 . S
H722 C728 0.930 . S
H723 C732 0.930 . S
H724 C737 0.929 . S
H725 C735 0.929 1_455 S
H726 C730 0.929 . S
H727 C736 0.929 . S
C728 H722 0.930 . S
C728 C729 1.367 . S
C728 C736 1.378 . S
C729 C728 1.367 . S
C729 C737 1.433 . S
C730 H726 0.929 . S
C730 C732 1.378 . S
C730 C734 1.350 . S
C731 C734 1.463 . S
C731 C736 1.350 . S
C731 N739 1.427 . S
C732 H723 0.930 . S
C732 C730 1.378 . S
C732 C733 1.369 1_655 S
C733 C732 1.369 1_455 S
C733 C735 1.434 1_455 S
C734 C730 1.350 . S
C734 C731 1.463 . S
C734 N738 1.427 . S
C735 H725 0.929 1_655 S
C735 C733 1.434 1_655 S
C735 N738 1.384 . S
C736 H727 0.929 . S
C736 C728 1.378 . S
C736 C731 1.350 . S
C737 H724 0.929 . S
C737 C729 1.433 . S
C737 N739 1.384 . S
N738 C734 1.427 . S
N738 C735 1.384 . S
N739 C731 1.427 . S
N739 C737 1.384 . S
H740 C746 0.930 . S
H741 C750 0.930 . S
H742 C755 0.929 . S
H743 C753 0.929 . S
H744 C748 0.929 . S
H745 C754 0.929 . S
C746 H740 0.930 . S
C746 C747 1.367 . S
C746 C754 1.378 . S
C747 C746 1.367 . S
C747 C755 1.433 . S
C748 H744 0.929 . S
C748 C750 1.378 . S
C748 C752 1.350 . S
C749 C752 1.463 . S
C749 C754 1.350 . S
C749 N757 1.427 . S
C750 H741 0.930 . S
C750 C748 1.378 . S
C750 C751 1.367 . S
C751 C750 1.367 . S
C751 C753 1.433 . S
C752 C748 1.350 . S
C752 C749 1.463 . S
C752 N756 1.427 . S
C753 H743 0.929 . S
C753 C751 1.433 . S
C753 N756 1.384 . S
C754 H745 0.929 . S
C754 C746 1.378 . S
C754 C749 1.350 . S
C755 H742 0.929 . S
C755 C747 1.433 . S
C755 N757 1.384 . S
N756 C752 1.427 . S
N756 C753 1.384 . S
N757 C749 1.427 . S
N757 C755 1.384 . S
H758 C764 0.930 . S
H759 C768 0.930 . S
H760 C773 0.929 . S
H761 C771 0.929 . S
H762 C766 0.929 . S
H763 C772 0.929 . S
C764 H758 0.930 . S
C764 C765 1.367 . S
C764 C772 1.378 . S
C765 C764 1.367 . S
C765 C773 1.433 . S
C766 H762 0.929 . S
C766 C768 1.378 . S
C766 C770 1.350 . S
C767 C770 1.463 . S
C767 C772 1.350 . S
C767 N775 1.427 . S
C768 H759 0.930 . S
C768 C766 1.378 . S
C768 C769 1.367 . S
C769 C768 1.367 . S
C769 C771 1.433 . S
C770 C766 1.350 . S
C770 C767 1.463 . S
C770 N774 1.427 . S
C771 H761 0.929 . S
C771 C769 1.433 . S
C771 N774 1.384 . S
C772 H763 0.929 . S
C772 C764 1.378 . S
C772 C767 1.350 . S
C773 H760 0.929 . S
C773 C765 1.433 . S
C773 N775 1.384 . S
N774 C770 1.427 . S
N774 C771 1.384 . S
N775 C767 1.427 . S
N775 C773 1.384 . S
H776 C782 0.930 . S
H777 C786 0.930 . S
H778 C791 0.929 . S
H779 C789 0.929 . S
H780 C784 0.929 . S
H781 C790 0.929 . S
C782 H776 0.930 . S
C782 C783 1.367 . S
C782 C790 1.378 . S
C783 C782 1.367 . S
C783 C791 1.433 . S
C784 H780 0.929 . S
C784 C786 1.378 . S
C784 C788 1.350 . S
C785 C788 1.463 . S
C785 C790 1.350 . S
C785 N793 1.427 . S
C786 H777 0.930 . S
C786 C784 1.378 . S
C786 C787 1.367 . S
C787 C786 1.367 . S
C787 C789 1.433 . S
C788 C784 1.350 . S
C788 C785 1.463 . S
C788 N792 1.427 . S
C789 H779 0.929 . S
C789 C787 1.433 . S
C789 N792 1.384 . S
C790 H781 0.929 . S
C790 C782 1.378 . S
C790 C785 1.350 . S
C791 H778 0.929 . S
C791 C783 1.433 . S
C791 N793 1.384 . S
N792 C788 1.427 . S
N792 C789 1.384 . S
N793 C785 1.427 . S
N793 C791 1.384 . S
H794 C800 0.930 . S
H795 C804 0.930 . S
H796 C809 0.929 . S
H797 C807 0.929 . S
H798 C802 0.929 . S
H799 C808 0.929 . S
C800 H794 0.930 . S
C800 C801 1.367 . S
C800 C808 1.378 . S
C801 C800 1.367 . S
C801 C809 1.433 . S
C802 H798 0.929 . S
C802 C804 1.378 . S
C802 C806 1.350 . S
C803 C806 1.463 . S
C803 C808 1.350 . S
C803 N811 1.427 . S
C804 H795 0.930 . S
C804 C802 1.378 . S
C804 C805 1.367 . S
C805 C804 1.367 . S
C805 C807 1.433 . S
C806 C802 1.350 . S
C806 C803 1.463 . S
C806 N810 1.427 . S
C807 H797 0.929 . S
C807 C805 1.433 . S
C807 N810 1.384 . S
C808 H799 0.929 . S
C808 C800 1.378 . S
C808 C803 1.350 . S
C809 H796 0.929 . S
C809 C801 1.433 . S
C809 N811 1.384 . S
N810 C806 1.427 . S
N810 C807 1.384 . S
N811 C803 1.427 . S
N811 C809 1.384 . S
H812 C818 0.930 . S
H813 C822 0.930 . S
H814 C827 0.929 . S
H815 C825 0.929 . S
H816 C820 0.929 . S
H817 C826 0.929 . S
C818 H812 0.930 . S
C818 C819 1.367 . S
C818 C826 1.378 . S
C819 C818 1.367 . S
C819 C827 1.433 . S
C820 H816 0.929 . S
C820 C822 1.378 . S
C820 C824 1.350 . S
C821 C824 1.463 . S
C821 C826 1.350 . S
C821 N829 1.427 . S
C822 H813 0.930 . S
C822 C820 1.378 . S
C822 C823 1.367 . S
C823 C822 1.367 . S
C823 C825 1.433 . S
C824 C820 1.350 . S
C824 C821 1.463 . S
C824 N828 1.427 . S
C825 H815 0.929 . S
C825 C823 1.433 . S
C825 N828 1.384 . S
C826 H817 0.929 . S
C826 C818 1.378 . S
C826 C821 1.350 . S
C827 H814 0.929 . S
C827 C819 1.433 . S
C827 N829 1.384 . S
N828 C824 1.427 . S
N828 C825 1.384 . S
N829 C821 1.427 . S
N829 C827 1.384 . S
H830 C836 0.930 . S
H831 C840 0.930 . S
H832 C845 0.929 . S
H833 C843 0.929 . S
H834 C838 0.929 . S
H835 C844 0.929 . S
C836 H830 0.930 . S
C836 C837 1.365 1_655 S
C836 C844 1.378 . S
C837 C836 1.365 1_455 S
C837 C845 1.432 1_455 S
C838 H834 0.929 . S
C838 C840 1.378 . S
C838 C842 1.350 . S
C839 C842 1.463 . S
C839 C844 1.350 . S
C839 N847 1.427 . S
C840 H831 0.930 . S
C840 C838 1.378 . S
C840 C841 1.367 . S
C841 C840 1.367 . S
C841 C843 1.433 . S
C842 C838 1.350 . S
C842 C839 1.463 . S
C842 N846 1.427 . S
C843 H833 0.929 . S
C843 C841 1.433 . S
C843 N846 1.384 . S
C844 H835 0.929 . S
C844 C836 1.378 . S
C844 C839 1.350 . S
C845 H832 0.929 . S
C845 C837 1.432 1_655 S
C845 N847 1.384 . S
N846 C842 1.427 . S
N846 C843 1.384 . S
N847 C839 1.427 . S
N847 C845 1.384 . S
H848 C854 0.930 . S
H849 C858 0.930 . S
H850 C863 0.929 . S
H851 C861 0.929 . S
H852 C856 0.929 . S
H853 C862 0.929 . S
C854 H848 0.930 . S
C854 C855 1.367 . S
C854 C862 1.378 . S
C855 C854 1.367 . S
C855 C863 1.433 . S
C856 H852 0.929 . S
C856 C858 1.378 . S
C856 C860 1.350 . S
C857 C860 1.463 . S
C857 C862 1.350 . S
C857 N865 1.427 . S
C858 H849 0.930 . S
C858 C856 1.378 . S
C858 C859 1.367 . S
C859 C858 1.367 . S
C859 C861 1.433 . S
C860 C856 1.350 . S
C860 C857 1.463 . S
C860 N864 1.427 . S
C861 H851 0.929 . S
C861 C859 1.433 . S
C861 N864 1.384 . S
C862 H853 0.929 . S
C862 C854 1.378 . S
C862 C857 1.350 . S
C863 H850 0.929 . S
C863 C855 1.433 . S
C863 N865 1.384 . S
N864 C860 1.427 . S
N864 C861 1.384 . S
N865 C857 1.427 . S
N865 C863 1.384 . S
H866 C872 0.930 . S
H867 C876 0.930 . S
H868 C881 0.929 1_655 S
H869 C879 0.929 . S
H870 C874 0.929 . S
H871 C880 0.929 . S
C872 H866 0.930 . S
C872 C873 1.368 1_455 S
C872 C880 1.378 . S
C873 C872 1.368 1_655 S
C873 C881 1.434 1_655 S
C874 H870 0.929 . S
C874 C876 1.378 . S
C874 C878 1.350 . S
C875 C878 1.463 . S
C875 C880 1.350 . S
C875 N883 1.427 . S
C876 H867 0.930 . S
C876 C874 1.378 . S
C876 C877 1.367 . S
C877 C876 1.367 . S
C877 C879 1.433 . S
C878 C874 1.350 . S
C878 C875 1.463 . S
C878 N882 1.427 . S
C879 H869 0.929 . S
C879 C877 1.433 . S
C879 N882 1.384 . S
C880 H871 0.929 . S
C880 C872 1.378 . S
C880 C875 1.350 . S
C881 H868 0.929 1_455 S
C881 C873 1.434 1_455 S
C881 N883 1.384 . S
N882 C878 1.427 . S
N882 C879 1.384 . S
N883 C875 1.427 . S
N883 C881 1.384 . S
H884 C890 0.930 . S
H885 C894 0.930 . S
H886 C899 0.929 . S
H887 C897 0.929 . S
H888 C892 0.929 . S
H889 C898 0.929 . S
C890 H884 0.930 . S
C890 C891 1.367 . S
C890 C898 1.378 . S
C891 C890 1.367 . S
C891 C899 1.433 . S
C892 H888 0.929 . S
C892 C894 1.378 . S
C892 C896 1.350 . S
C893 C896 1.463 . S
C893 C898 1.350 . S
C893 N901 1.427 . S
C894 H885 0.930 . S
C894 C892 1.378 . S
C894 C895 1.367 . S
C895 C894 1.367 . S
C895 C897 1.433 . S
C896 C892 1.350 . S
C896 C893 1.463 . S
C896 N900 1.427 . S
C897 H887 0.929 . S
C897 C895 1.433 . S
C897 N900 1.384 . S
C898 H889 0.929 . S
C898 C890 1.378 . S
C898 C893 1.350 . S
C899 H886 0.929 . S
C899 C891 1.433 . S
C899 N901 1.384 . S
N900 C896 1.427 . S
N900 C897 1.384 . S
N901 C893 1.427 . S
N901 C899 1.384 . S
H902 C908 0.930 . S
H903 C912 0.930 . S
H904 C917 0.929 . S
H905 C915 0.929 . S
H906 C910 0.929 . S
H907 C916 0.929 . S
C908 H902 0.930 . S
C908 C909 1.367 . S
C908 C916 1.378 . S
C909 C908 1.367 . S
C909 C917 1.433 . S
C910 H906 0.929 . S
C910 C912 1.378 . S
C910 C914 1.350 . S
C911 C914 1.463 . S
C911 C916 1.350 . S
C911 N919 1.427 . S
C912 H903 0.930 . S
C912 C910 1.378 . S
C912 C913 1.367 . S
C913 C912 1.367 . S
C913 C915 1.433 . S
C914 C910 1.350 . S
C914 C911 1.463 . S
C914 N918 1.427 . S
C915 H905 0.929 . S
C915 C913 1.433 . S
C915 N918 1.384 . S
C916 H907 0.929 . S
C916 C908 1.378 . S
C916 C911 1.350 . S
C917 H904 0.929 . S
C917 C909 1.433 . S
C917 N919 1.384 . S
N918 C914 1.427 . S
N918 C915 1.384 . S
N919 C911 1.427 . S
N919 C917 1.384 . S
H920 C926 0.930 . S
H921 C930 0.930 . S
H922 C935 0.929 . S
H923 C933 0.929 . S
H924 C928 0.929 . S
H925 C934 0.929 . S
C926 H920 0.930 . S
C926 C927 1.367 . S
C926 C934 1.378 . S
C927 C926 1.367 . S
C927 C935 1.433 . S
C928 H924 0.929 . S
C928 C930 1.378 . S
C928 C932 1.350 . S
C929 C932 1.463 . S
C929 C934 1.350 . S
C929 N937 1.427 . S
C930 H921 0.930 . S
C930 C928 1.378 . S
C930 C931 1.367 . S
C931 C930 1.367 . S
C931 C933 1.433 . S
C932 C928 1.350 . S
C932 C929 1.463 . S
C932 N936 1.427 . S
C933 H923 0.929 . S
C933 C931 1.433 . S
C933 N936 1.384 . S
C934 H925 0.929 . S
C934 C926 1.378 . S
C934 C929 1.350 . S
C935 H922 0.929 . S
C935 C927 1.433 . S
C935 N937 1.384 . S
N936 C932 1.427 . S
N936 C933 1.384 . S
N937 C929 1.427 . S
N937 C935 1.384 . S
H938 C944 0.930 . S
H939 C948 0.930 . S
H940 C953 0.929 . S
H941 C951 0.929 . S
H942 C946 0.929 . S
H943 C952 0.929 . S
C944 H938 0.930 . S
C944 C945 1.367 . S
C944 C952 1.378 . S
C945 C944 1.367 . S
C945 C953 1.433 . S
C946 H942 0.929 . S
C946 C948 1.378 . S
C946 C950 1.350 . S
C947 C950 1.463 . S
C947 C952 1.350 . S
C947 N955 1.427 . S
C948 H939 0.930 . S
C948 C946 1.378 . S
C948 C949 1.367 . S
C949 C948 1.367 . S
C949 C951 1.433 . S
C950 C946 1.350 . S
C950 C947 1.463 . S
C950 N954 1.427 . S
C951 H941 0.929 . S
C951 C949 1.433 . S
C951 N954 1.384 . S
C952 H943 0.929 . S
C952 C944 1.378 . S
C952 C947 1.350 . S
C953 H940 0.929 . S
C953 C945 1.433 . S
C953 N955 1.384 . S
N954 C950 1.427 . S
N954 C951 1.384 . S
N955 C947 1.427 . S
N955 C953 1.384 . S
H956 C962 0.930 . S
H957 C966 0.930 . S
H958 C971 0.929 . S
H959 C969 0.929 . S
H960 C964 0.929 . S
H961 C970 0.929 . S
C962 H956 0.930 . S
C962 C963 1.367 . S
C962 C970 1.378 . S
C963 C962 1.367 . S
C963 C971 1.433 . S
C964 H960 0.929 . S
C964 C966 1.378 . S
C964 C968 1.350 . S
C965 C968 1.463 . S
C965 C970 1.350 . S
C965 N973 1.427 . S
C966 H957 0.930 . S
C966 C964 1.378 . S
C966 C967 1.367 . S
C967 C966 1.367 . S
C967 C969 1.433 . S
C968 C964 1.350 . S
C968 C965 1.463 . S
C968 N972 1.427 . S
C969 H959 0.929 . S
C969 C967 1.433 . S
C969 N972 1.384 . S
C970 H961 0.929 . S
C970 C962 1.378 . S
C970 C965 1.350 . S
C971 H958 0.929 . S
C971 C963 1.433 . S
C971 N973 1.384 . S
N972 C968 1.427 . S
N972 C969 1.384 . S
N973 C965 1.427 . S
N973 C971 1.384 . S
H974 C980 0.930 . S
H975 C984 0.930 . S
H976 C989 0.929 . S
H977 C987 0.929 . S
H978 C982 0.929 . S
H979 C988 0.929 . S
C980 H974 0.930 . S
C980 C981 1.367 . S
C980 C988 1.378 . S
C981 C980 1.367 . S
C981 C989 1.433 . S
C982 H978 0.929 . S
C982 C984 1.378 . S
C982 C986 1.350 . S
C983 C986 1.463 . S
C983 C988 1.350 . S
C983 N991 1.427 . S
C984 H975 0.930 . S
C984 C982 1.378 . S
C984 C985 1.366 . S
C985 C984 1.366 . S
C985 C987 1.433 1_455 S
C986 C982 1.350 . S
C986 C983 1.463 . S
C986 N990 1.427 . S
C987 H977 0.929 . S
C987 C985 1.433 1_655 S
C987 N990 1.384 1_655 S
C988 H979 0.929 . S
C988 C980 1.378 . S
C988 C983 1.350 . S
C989 H976 0.929 . S
C989 C981 1.433 . S
C989 N991 1.384 . S
N990 C986 1.427 . S
N990 C987 1.384 1_455 S
N991 C983 1.427 . S
N991 C989 1.384 . S
H992 C998 0.930 . S
H993 C1002 0.930 . S
H994 C1007 0.929 . S
H995 C1005 0.929 . S
H996 C1000 0.929 . S
H997 C1006 0.929 . S
C998 H992 0.930 . S
C998 C999 1.367 . S
C998 C1006 1.378 . S
C999 C998 1.367 . S
C999 C1007 1.433 . S
C1000 H996 0.929 . S
C1000 C1002 1.378 . S
C1000 C1004 1.350 . S
C1001 C1004 1.463 . S
C1001 C1006 1.350 . S
C1001 N1009 1.427 . S
C1002 H993 0.930 . S
C1002 C1000 1.378 . S
C1002 C1003 1.367 . S
C1003 C1002 1.367 . S
C1003 C1005 1.433 . S
C1004 C1000 1.350 . S
C1004 C1001 1.463 . S
C1004 N1008 1.427 . S
C1005 H995 0.929 . S
C1005 C1003 1.433 . S
C1005 N1008 1.384 . S
C1006 H997 0.929 . S
C1006 C998 1.378 . S
C1006 C1001 1.350 . S
C1007 H994 0.929 . S
C1007 C999 1.433 . S
C1007 N1009 1.384 . S
N1008 C1004 1.427 . S
N1008 C1005 1.384 . S
N1009 C1001 1.427 . S
N1009 C1007 1.384 . S
H1010 C1016 0.930 . S
H1011 C1020 0.930 . S
H1012 C1025 0.929 . S
H1013 C1023 0.929 . S
H1014 C1018 0.929 . S
H1015 C1024 0.929 . S
C1016 H1010 0.930 . S
C1016 C1017 1.367 . S
C1016 C1024 1.378 . S
C1017 C1016 1.367 . S
C1017 C1025 1.433 . S
C1018 H1014 0.929 . S
C1018 C1020 1.378 . S
C1018 C1022 1.350 . S
C1019 C1022 1.463 . S
C1019 C1024 1.350 . S
C1019 N1027 1.427 . S
C1020 H1011 0.930 . S
C1020 C1018 1.378 . S
C1020 C1021 1.367 . S
C1021 C1020 1.367 . S
C1021 C1023 1.433 . S
C1022 C1018 1.350 . S
C1022 C1019 1.463 . S
C1022 N1026 1.427 . S
C1023 H1013 0.929 . S
C1023 C1021 1.433 . S
C1023 N1026 1.384 . S
C1024 H1015 0.929 . S
C1024 C1016 1.378 . S
C1024 C1019 1.350 . S
C1025 H1012 0.929 . S
C1025 C1017 1.433 . S
C1025 N1027 1.384 . S
N1026 C1022 1.427 . S
N1026 C1023 1.384 . S
N1027 C1019 1.427 . S
N1027 C1025 1.384 . S
H1028 C1034 0.930 . S
H1029 C1038 0.930 . S
H1030 C1043 0.929 . S
H1031 C1041 0.929 . S
H1032 C1036 0.929 . S
H1033 C1042 0.929 . S
C1034 H1028 0.930 . S
C1034 C1035 1.367 . S
C1034 C1042 1.378 . S
C1035 C1034 1.367 . S
C1035 C1043 1.433 . S
C1036 H1032 0.929 . S
C1036 C1038 1.378 . S
C1036 C1040 1.350 . S
C1037 C1040 1.463 . S
C1037 C1042 1.350 . S
C1037 N1045 1.427 . S
C1038 H1029 0.930 . S
C1038 C1036 1.378 . S
C1038 C1039 1.367 . S
C1039 C1038 1.367 . S
C1039 C1041 1.433 . S
C1040 C1036 1.350 . S
C1040 C1037 1.463 . S
C1040 N1044 1.427 . S
C1041 H1031 0.929 . S
C1041 C1039 1.433 . S
C1041 N1044 1.384 . S
C1042 H1033 0.929 . S
C1042 C1034 1.378 . S
C1042 C1037 1.350 . S
C1043 H1030 0.929 . S
C1043 C1035 1.433 . S
C1043 N1045 1.384 . S
N1044 C1040 1.427 . S
N1044 C1041 1.384 . S
N1045 C1037 1.427 . S
N1045 C1043 1.384 . S
H1046 C1052 0.930 . S
H1047 C1056 0.930 . S
H1048 C1061 0.929 . S
H1049 C1059 0.929 . S
H1050 C1054 0.929 . S
H1051 C1060 0.929 . S
C1052 H1046 0.930 . S
C1052 C1053 1.367 . S
C1052 C1060 1.378 . S
C1053 C1052 1.367 . S
C1053 C1061 1.433 . S
C1054 H1050 0.929 . S
C1054 C1056 1.378 1_455 S
C1054 C1058 1.350 . S
C1055 C1058 1.463 . S
C1055 C1060 1.350 . S
C1055 N1063 1.427 . S
C1056 H1047 0.930 . S
C1056 C1054 1.378 1_655 S
C1056 C1057 1.368 . S
C1057 C1056 1.368 . S
C1057 C1059 1.417 1_655 S
C1058 C1054 1.350 . S
C1058 C1055 1.463 . S
C1058 N1062 1.427 . S
C1059 H1049 0.929 . S
C1059 C1057 1.417 1_455 S
C1059 N1062 1.384 . S
C1060 H1051 0.929 . S
C1060 C1052 1.378 . S
C1060 C1055 1.350 . S
C1061 H1048 0.929 . S
C1061 C1053 1.433 . S
C1061 N1063 1.384 . S
N1062 C1058 1.427 . S
N1062 C1059 1.384 . S
N1063 C1055 1.427 . S
N1063 C1061 1.384 . S
H1064 C1070 0.930 . S
H1065 C1074 0.930 . S
H1066 C1079 0.929 . S
H1067 C1077 0.929 . S
H1068 C1072 0.929 . S
H1069 C1078 0.929 . S
C1070 H1064 0.930 . S
C1070 C1071 1.367 . S
C1070 C1078 1.378 . S
C1071 C1070 1.367 . S
C1071 C1079 1.433 . S
C1072 H1068 0.929 . S
C1072 C1074 1.378 . S
C1072 C1076 1.350 . S
C1073 C1076 1.463 . S
C1073 C1078 1.350 . S
C1073 N1081 1.427 . S
C1074 H1065 0.930 . S
C1074 C1072 1.378 . S
C1074 C1075 1.367 . S
C1075 C1074 1.367 . S
C1075 C1077 1.433 . S
C1076 C1072 1.350 . S
C1076 C1073 1.463 . S
C1076 N1080 1.427 . S
C1077 H1067 0.929 . S
C1077 C1075 1.433 . S
C1077 N1080 1.384 . S
C1078 H1069 0.929 . S
C1078 C1070 1.378 . S
C1078 C1073 1.350 . S
C1079 H1066 0.929 . S
C1079 C1071 1.433 . S
C1079 N1081 1.384 . S
N1080 C1076 1.427 . S
N1080 C1077 1.384 . S
N1081 C1073 1.427 . S
N1081 C1079 1.384 . S
H1082 C1088 0.930 1_655 S
H1083 C1092 0.930 . S
H1084 C1097 0.929 . S
H1085 C1095 0.929 . S
H1086 C1090 0.929 . S
H1087 C1096 0.929 . S
C1088 H1082 0.930 1_455 S
C1088 C1089 1.365 1_455 S
C1088 C1096 1.378 . S
C1089 C1088 1.365 1_655 S
C1089 C1097 1.424 1_655 S
C1090 H1086 0.929 . S
C1090 C1092 1.378 . S
C1090 C1094 1.350 . S
C1091 C1094 1.463 . S
C1091 C1096 1.350 . S
C1091 N1099 1.427 . S
C1092 H1083 0.930 . S
C1092 C1090 1.378 . S
C1092 C1093 1.367 . S
C1093 C1092 1.367 . S
C1093 C1095 1.433 . S
C1094 C1090 1.350 . S
C1094 C1091 1.463 . S
C1094 N1098 1.427 . S
C1095 H1085 0.929 . S
C1095 C1093 1.433 . S
C1095 N1098 1.384 . S
C1096 H1087 0.929 . S
C1096 C1088 1.378 . S
C1096 C1091 1.350 . S
C1097 H1084 0.929 . S
C1097 C1089 1.424 1_455 S
C1097 N1099 1.384 . S
N1098 C1094 1.427 . S
N1098 C1095 1.384 . S
N1099 C1091 1.427 . S
N1099 C1097 1.384 . S
H1100 C1106 0.930 . S
H1101 C1110 0.930 . S
H1102 C1115 0.929 . S
H1103 C1113 0.929 . S
H1104 C1108 0.929 . S
H1105 C1114 0.929 . S
C1106 H1100 0.930 . S
C1106 C1107 1.367 . S
C1106 C1114 1.378 . S
C1107 C1106 1.367 . S
C1107 C1115 1.433 . S
C1108 H1104 0.929 . S
C1108 C1110 1.378 . S
C1108 C1112 1.350 . S
C1109 C1112 1.463 . S
C1109 C1114 1.350 . S
C1109 N1117 1.427 . S
C1110 H1101 0.930 . S
C1110 C1108 1.378 . S
C1110 C1111 1.367 . S
C1111 C1110 1.367 . S
C1111 C1113 1.433 . S
C1112 C1108 1.350 . S
C1112 C1109 1.463 . S
C1112 N1116 1.427 . S
C1113 H1103 0.929 . S
C1113 C1111 1.433 . S
C1113 N1116 1.384 . S
C1114 H1105 0.929 . S
C1114 C1106 1.378 . S
C1114 C1109 1.350 . S
C1115 H1102 0.929 . S
C1115 C1107 1.433 . S
C1115 N1117 1.384 . S
N1116 C1112 1.427 . S
N1116 C1113 1.384 . S
N1117 C1109 1.427 . S
N1117 C1115 1.384 . S
H1118 C1124 0.930 . S
H1119 C1128 0.930 . S
H1120 C1133 0.929 . S
H1121 C1131 0.929 . S
H1122 C1126 0.929 . S
H1123 C1132 0.929 . S
C1124 H1118 0.930 . S
C1124 C1125 1.367 . S
C1124 C1132 1.378 . S
C1125 C1124 1.367 . S
C1125 C1133 1.433 . S
C1126 H1122 0.929 . S
C1126 C1128 1.378 . S
C1126 C1130 1.350 . S
C1127 C1130 1.463 . S
C1127 C1132 1.350 . S
C1127 N1135 1.427 . S
C1128 H1119 0.930 . S
C1128 C1126 1.378 . S
C1128 C1129 1.367 . S
C1129 C1128 1.367 . S
C1129 C1131 1.433 . S
C1130 C1126 1.350 . S
C1130 C1127 1.463 . S
C1130 N1134 1.427 . S
C1131 H1121 0.929 . S
C1131 C1129 1.433 . S
C1131 N1134 1.384 . S
C1132 H1123 0.929 . S
C1132 C1124 1.378 . S
C1132 C1127 1.350 . S
C1133 H1120 0.929 . S
C1133 C1125 1.433 . S
C1133 N1135 1.384 . S
N1134 C1130 1.427 . S
N1134 C1131 1.384 . S
N1135 C1127 1.427 . S
N1135 C1133 1.384 . S
H1136 C1142 0.930 . S
H1137 C1146 0.930 . S
H1138 C1151 0.929 . S
H1139 C1149 0.929 . S
H1140 C1144 0.929 . S
H1141 C1150 0.929 . S
C1142 H1136 0.930 . S
C1142 C1143 1.367 . S
C1142 C1150 1.378 . S
C1143 C1142 1.367 . S
C1143 C1151 1.433 . S
C1144 H1140 0.929 . S
C1144 C1146 1.378 . S
C1144 C1148 1.350 . S
C1145 C1148 1.463 . S
C1145 C1150 1.350 . S
C1145 N1153 1.427 . S
C1146 H1137 0.930 . S
C1146 C1144 1.378 . S
C1146 C1147 1.367 . S
C1147 C1146 1.367 . S
C1147 C1149 1.433 . S
C1148 C1144 1.350 . S
C1148 C1145 1.463 . S
C1148 N1152 1.427 . S
C1149 H1139 0.929 . S
C1149 C1147 1.433 . S
C1149 N1152 1.384 . S
C1150 H1141 0.929 . S
C1150 C1142 1.378 . S
C1150 C1145 1.350 . S
C1151 H1138 0.929 . S
C1151 C1143 1.433 . S
C1151 N1153 1.384 . S
N1152 C1148 1.427 . S
N1152 C1149 1.384 . S
N1153 C1145 1.427 . S
N1153 C1151 1.384 . S
H1154 C1160 0.930 . S
H1155 C1164 0.930 . S
H1156 C1169 0.929 . S
H1157 C1167 0.929 . S
H1158 C1162 0.929 . S
H1159 C1168 0.929 . S
C1160 H1154 0.930 . S
C1160 C1161 1.367 . S
C1160 C1168 1.378 . S
C1161 C1160 1.367 . S
C1161 C1169 1.433 . S
C1162 H1158 0.929 . S
C1162 C1164 1.378 . S
C1162 C1166 1.350 . S
C1163 C1166 1.463 . S
C1163 C1168 1.350 . S
C1163 N1171 1.427 . S
C1164 H1155 0.930 . S
C1164 C1162 1.378 . S
C1164 C1165 1.367 . S
C1165 C1164 1.367 . S
C1165 C1167 1.433 . S
C1166 C1162 1.350 . S
C1166 C1163 1.463 . S
C1166 N1170 1.427 . S
C1167 H1157 0.929 . S
C1167 C1165 1.433 . S
C1167 N1170 1.384 . S
C1168 H1159 0.929 . S
C1168 C1160 1.378 . S
C1168 C1163 1.350 . S
C1169 H1156 0.929 . S
C1169 C1161 1.433 . S
C1169 N1171 1.384 . S
N1170 C1166 1.427 . S
N1170 C1167 1.384 . S
N1171 C1163 1.427 . S
N1171 C1169 1.384 . S
H1172 C1178 0.930 . S
H1173 C1182 0.930 . S
H1174 C1187 0.929 . S
H1175 C1185 0.929 . S
H1176 C1180 0.929 . S
H1177 C1186 0.929 . S
C1178 H1172 0.930 . S
C1178 C1179 1.367 . S
C1178 C1186 1.378 . S
C1179 C1178 1.367 . S
C1179 C1187 1.433 . S
C1180 H1176 0.929 . S
C1180 C1182 1.378 . S
C1180 C1184 1.350 . S
C1181 C1184 1.463 . S
C1181 C1186 1.350 . S
C1181 N1189 1.427 . S
C1182 H1173 0.930 . S
C1182 C1180 1.378 . S
C1182 C1183 1.367 . S
C1183 C1182 1.367 . S
C1183 C1185 1.433 . S
C1184 C1180 1.350 . S
C1184 C1181 1.463 . S
C1184 N1188 1.427 . S
C1185 H1175 0.929 . S
C1185 C1183 1.433 . S
C1185 N1188 1.384 . S
C1186 H1177 0.929 . S
C1186 C1178 1.378 . S
C1186 C1181 1.350 . S
C1187 H1174 0.929 . S
C1187 C1179 1.433 . S
C1187 N1189 1.384 . S
N1188 C1184 1.427 . S
N1188 C1185 1.384 . S
N1189 C1181 1.427 . S
N1189 C1187 1.384 . S
H1190 C1196 0.930 . S
H1191 C1200 0.930 . S
H1192 C1205 0.929 . S
H1193 C1203 0.929 . S
H1194 C1198 0.929 . S
H1195 C1204 0.929 . S
C1196 H1190 0.930 . S
C1196 C1197 1.367 . S
C1196 C1204 1.378 . S
C1197 C1196 1.367 . S
C1197 C1205 1.433 . S
C1198 H1194 0.929 . S
C1198 C1200 1.378 . S
C1198 C1202 1.350 . S
C1199 C1202 1.463 . S
C1199 C1204 1.350 . S
C1199 N1207 1.427 . S
C1200 H1191 0.930 . S
C1200 C1198 1.378 . S
C1200 C1201 1.366 . S
C1201 C1200 1.366 . S
C1201 C1203 1.433 1_655 S
C1202 C1198 1.350 . S
C1202 C1199 1.463 . S
C1202 N1206 1.427 . S
C1203 H1193 0.929 . S
C1203 C1201 1.433 1_455 S
C1203 N1206 1.384 1_455 S
C1204 H1195 0.929 . S
C1204 C1196 1.378 . S
C1204 C1199 1.350 . S
C1205 H1192 0.929 . S
C1205 C1197 1.433 . S
C1205 N1207 1.384 . S
N1206 C1202 1.427 . S
N1206 C1203 1.384 1_655 S
N1207 C1199 1.427 . S
N1207 C1205 1.384 . S
H1208 C1214 0.930 . S
H1209 C1218 0.930 . S
H1210 C1223 0.929 . S
H1211 C1221 0.929 . S
H1212 C1216 0.929 . S
H1213 C1222 0.929 . S
C1214 H1208 0.930 . S
C1214 C1215 1.367 . S
C1214 C1222 1.378 . S
C1215 C1214 1.367 . S
C1215 C1223 1.433 . S
C1216 H1212 0.929 . S
C1216 C1218 1.378 . S
C1216 C1220 1.350 . S
C1217 C1220 1.463 . S
C1217 C1222 1.350 . S
C1217 N1225 1.427 . S
C1218 H1209 0.930 . S
C1218 C1216 1.378 . S
C1218 C1219 1.367 . S
C1219 C1218 1.367 . S
C1219 C1221 1.433 . S
C1220 C1216 1.350 . S
C1220 C1217 1.463 . S
C1220 N1224 1.427 . S
C1221 H1211 0.929 . S
C1221 C1219 1.433 . S
C1221 N1224 1.384 . S
C1222 H1213 0.929 . S
C1222 C1214 1.378 . S
C1222 C1217 1.350 . S
C1223 H1210 0.929 . S
C1223 C1215 1.433 . S
C1223 N1225 1.384 . S
N1224 C1220 1.427 . S
N1224 C1221 1.384 . S
N1225 C1217 1.427 . S
N1225 C1223 1.384 . S
H1226 C1232 0.930 . S
H1227 C1236 0.930 . S
H1228 C1241 0.929 . S
H1229 C1239 0.929 . S
H1230 C1234 0.929 . S
H1231 C1240 0.929 . S
C1232 H1226 0.930 . S
C1232 C1233 1.365 1_655 S
C1232 C1240 1.378 . S
C1233 C1232 1.365 1_455 S
C1233 C1241 1.431 1_455 S
C1234 H1230 0.929 . S
C1234 C1236 1.378 . S
C1234 C1238 1.350 . S
C1235 C1238 1.463 . S
C1235 C1240 1.350 . S
C1235 N1243 1.427 . S
C1236 H1227 0.930 . S
C1236 C1234 1.378 . S
C1236 C1237 1.367 . S
C1237 C1236 1.367 . S
C1237 C1239 1.433 . S
C1238 C1234 1.350 . S
C1238 C1235 1.463 . S
C1238 N1242 1.427 . S
C1239 H1229 0.929 . S
C1239 C1237 1.433 . S
C1239 N1242 1.384 . S
C1240 H1231 0.929 . S
C1240 C1232 1.378 . S
C1240 C1235 1.350 . S
C1241 H1228 0.929 . S
C1241 C1233 1.431 1_655 S
C1241 N1243 1.384 . S
N1242 C1238 1.427 . S
N1242 C1239 1.384 . S
N1243 C1235 1.427 . S
N1243 C1241 1.384 . S
H1244 C1250 0.930 . S
H1245 C1254 0.930 . S
H1246 C1259 0.929 . S
H1247 C1257 0.929 . S
H1248 C1252 0.929 . S
H1249 C1258 0.929 . S
C1250 H1244 0.930 . S
C1250 C1251 1.367 . S
C1250 C1258 1.378 . S
C1251 C1250 1.367 . S
C1251 C1259 1.433 . S
C1252 H1248 0.929 . S
C1252 C1254 1.378 . S
C1252 C1256 1.350 . S
C1253 C1256 1.463 . S
C1253 C1258 1.350 . S
C1253 N1261 1.427 . S
C1254 H1245 0.930 . S
C1254 C1252 1.378 . S
C1254 C1255 1.367 . S
C1255 C1254 1.367 . S
C1255 C1257 1.433 . S
C1256 C1252 1.350 . S
C1256 C1253 1.463 . S
C1256 N1260 1.427 . S
C1257 H1247 0.929 . S
C1257 C1255 1.433 . S
C1257 N1260 1.384 . S
C1258 H1249 0.929 . S
C1258 C1250 1.378 . S
C1258 C1253 1.350 . S
C1259 H1246 0.929 . S
C1259 C1251 1.433 . S
C1259 N1261 1.384 . S
N1260 C1256 1.427 . S
N1260 C1257 1.384 . S
N1261 C1253 1.427 . S
N1261 C1259 1.384 . S
H1262 C1268 0.930 . S
H1263 C1272 0.930 . S
H1264 C1277 0.929 . S
H1265 C1275 0.929 . S
H1266 C1270 0.929 . S
H1267 C1276 0.929 . S
C1268 H1262 0.930 . S
C1268 C1269 1.367 . S
C1268 C1276 1.378 . S
C1269 C1268 1.367 . S
C1269 C1277 1.433 . S
C1270 H1266 0.929 . S
C1270 C1272 1.378 . S
C1270 C1274 1.350 . S
C1271 C1274 1.463 . S
C1271 C1276 1.350 . S
C1271 N1279 1.427 . S
C1272 H1263 0.930 . S
C1272 C1270 1.378 . S
C1272 C1273 1.367 . S
C1273 C1272 1.367 . S
C1273 C1275 1.433 . S
C1274 C1270 1.350 . S
C1274 C1271 1.463 . S
C1274 N1278 1.427 . S
C1275 H1265 0.929 . S
C1275 C1273 1.433 . S
C1275 N1278 1.384 . S
C1276 H1267 0.929 . S
C1276 C1268 1.378 . S
C1276 C1271 1.350 . S
C1277 H1264 0.929 . S
C1277 C1269 1.433 . S
C1277 N1279 1.384 . S
N1278 C1274 1.427 . S
N1278 C1275 1.384 . S
N1279 C1271 1.427 . S
N1279 C1277 1.384 . S
H1280 C1286 0.930 . S
H1281 C1290 0.930 . S
H1282 C1295 0.929 . S
H1283 C1293 0.929 . S
H1284 C1288 0.929 . S
H1285 C1294 0.929 . S
C1286 H1280 0.930 . S
C1286 C1287 1.367 . S
C1286 C1294 1.378 . S
C1287 C1286 1.367 . S
C1287 C1295 1.433 . S
C1288 H1284 0.929 . S
C1288 C1290 1.378 . S
C1288 C1292 1.350 . S
C1289 C1292 1.463 . S
C1289 C1294 1.350 . S
C1289 N1297 1.427 . S
C1290 H1281 0.930 . S
C1290 C1288 1.378 . S
C1290 C1291 1.367 . S
C1291 C1290 1.367 . S
C1291 C1293 1.433 . S
C1292 C1288 1.350 . S
C1292 C1289 1.463 . S
C1292 N1296 1.427 . S
C1293 H1283 0.929 . S
C1293 C1291 1.433 . S
C1293 N1296 1.384 . S
C1294 H1285 0.929 . S
C1294 C1286 1.378 . S
C1294 C1289 1.350 . S
C1295 H1282 0.929 . S
C1295 C1287 1.433 . S
C1295 N1297 1.384 . S
N1296 C1292 1.427 . S
N1296 C1293 1.384 . S
N1297 C1289 1.427 . S
N1297 C1295 1.384 . S
H1298 C1304 0.930 . S
H1299 C1308 0.930 . S
H1300 C1313 0.929 . S
H1301 C1311 0.929 . S
H1302 C1306 0.929 . S
H1303 C1312 0.929 . S
C1304 H1298 0.930 . S
C1304 C1305 1.367 . S
C1304 C1312 1.378 . S
C1305 C1304 1.367 . S
C1305 C1313 1.433 . S
C1306 H1302 0.929 . S
C1306 C1308 1.378 . S
C1306 C1310 1.350 . S
C1307 C1310 1.463 . S
C1307 C1312 1.350 . S
C1307 N1315 1.427 . S
C1308 H1299 0.930 . S
C1308 C1306 1.378 . S
C1308 C1309 1.367 . S
C1309 C1308 1.367 . S
C1309 C1311 1.433 . S
C1310 C1306 1.350 . S
C1310 C1307 1.463 . S
C1310 N1314 1.427 . S
C1311 H1301 0.929 . S
C1311 C1309 1.433 . S
C1311 N1314 1.384 . S
C1312 H1303 0.929 . S
C1312 C1304 1.378 . S
C1312 C1307 1.350 . S
C1313 H1300 0.929 . S
C1313 C1305 1.433 . S
C1313 N1315 1.384 . S
N1314 C1310 1.427 . S
N1314 C1311 1.384 . S
N1315 C1307 1.427 . S
N1315 C1313 1.384 . S
H1316 C1322 0.930 . S
H1317 C1326 0.930 . S
H1318 C1331 0.929 . S
H1319 C1329 0.929 . S
H1320 C1324 0.929 . S
H1321 C1330 0.929 . S
C1322 H1316 0.930 . S
C1322 C1323 1.367 . S
C1322 C1330 1.378 . S
C1323 C1322 1.367 . S
C1323 C1331 1.433 . S
C1324 H1320 0.929 . S
C1324 C1326 1.378 . S
C1324 C1328 1.350 . S
C1325 C1328 1.463 . S
C1325 C1330 1.350 . S
C1325 N1333 1.427 . S
C1326 H1317 0.930 . S
C1326 C1324 1.378 . S
C1326 C1327 1.367 . S
C1327 C1326 1.367 . S
C1327 C1329 1.433 . S
C1328 C1324 1.350 . S
C1328 C1325 1.463 . S
C1328 N1332 1.427 . S
C1329 H1319 0.929 . S
C1329 C1327 1.433 . S
C1329 N1332 1.384 . S
C1330 H1321 0.929 . S
C1330 C1322 1.378 . S
C1330 C1325 1.350 . S
C1331 H1318 0.929 . S
C1331 C1323 1.433 . S
C1331 N1333 1.384 . S
N1332 C1328 1.427 . S
N1332 C1329 1.384 . S
N1333 C1325 1.427 . S
N1333 C1331 1.384 . S
H1334 C1340 0.930 . S
H1335 C1344 0.930 . S
H1336 C1349 0.929 . S
H1337 C1347 0.929 . S
H1338 C1342 0.929 . S
H1339 C1348 0.929 . S
C1340 H1334 0.930 . S
C1340 C1341 1.367 1_554 S
C1340 C1348 1.378 . S
C1341 C1340 1.367 1_556 S
C1341 C1349 1.433 . S
C1342 H1338 0.929 . S
C1342 C1344 1.378 . S
C1342 C1346 1.350 1_556 S
C1343 C1346 1.463 1_556 S
C1343 C1348 1.350 1_556 S
C1343 N1351 1.427 . S
C1344 H1335 0.930 . S
C1344 C1342 1.378 . S
C1344 C1345 1.367 1_556 S
C1345 C1344 1.367 1_554 S
C1345 C1347 1.433 . S
C1346 C1342 1.350 1_554 S
C1346 C1343 1.463 1_554 S
C1346 N1350 1.427 . S
C1347 H1337 0.929 . S
C1347 C1345 1.433 . S
C1347 N1350 1.384 . S
C1348 H1339 0.929 . S
C1348 C1340 1.378 . S
C1348 C1343 1.350 1_554 S
C1349 H1336 0.929 . S
C1349 C1341 1.433 . S
C1349 N1351 1.384 . S
N1350 C1346 1.427 . S
N1350 C1347 1.384 . S
N1351 C1343 1.427 . S
N1351 C1349 1.384 . S
H1352 C1358 0.930 . S
H1353 C1362 0.930 . S
H1354 C1367 0.929 . S
H1355 C1365 0.929 . S
H1356 C1360 0.929 . S
H1357 C1366 0.929 . S
C1358 H1352 0.930 . S
C1358 C1359 1.367 . S
C1358 C1366 1.378 . S
C1359 C1358 1.367 . S
C1359 C1367 1.433 . S
C1360 H1356 0.929 . S
C1360 C1362 1.378 . S
C1360 C1364 1.350 . S
C1361 C1364 1.463 . S
C1361 C1366 1.350 . S
C1361 N1369 1.427 . S
C1362 H1353 0.930 . S
C1362 C1360 1.378 . S
C1362 C1363 1.367 . S
C1363 C1362 1.367 . S
C1363 C1365 1.433 . S
C1364 C1360 1.350 . S
C1364 C1361 1.463 . S
C1364 N1368 1.427 . S
C1365 H1355 0.929 . S
C1365 C1363 1.433 . S
C1365 N1368 1.384 . S
C1366 H1357 0.929 . S
C1366 C1358 1.378 . S
C1366 C1361 1.350 . S
C1367 H1354 0.929 . S
C1367 C1359 1.433 . S
C1367 N1369 1.384 . S
N1368 C1364 1.427 . S
N1368 C1365 1.384 . S
N1369 C1361 1.427 . S
N1369 C1367 1.384 . S
H1370 C1376 0.930 . S
H1371 C1380 0.930 . S
H1372 C1385 0.929 . S
H1373 C1383 0.929 . S
H1374 C1378 0.929 . S
H1375 C1384 0.929 . S
C1376 H1370 0.930 . S
C1376 C1377 1.367 . S
C1376 C1384 1.378 . S
C1377 C1376 1.367 . S
C1377 C1385 1.433 . S
C1378 H1374 0.929 . S
C1378 C1380 1.378 . S
C1378 C1382 1.350 . S
C1379 C1382 1.463 . S
C1379 C1384 1.350 . S
C1379 N1387 1.427 . S
C1380 H1371 0.930 . S
C1380 C1378 1.378 . S
C1380 C1381 1.367 . S
C1381 C1380 1.367 . S
C1381 C1383 1.433 . S
C1382 C1378 1.350 . S
C1382 C1379 1.463 . S
C1382 N1386 1.427 . S
C1383 H1373 0.929 . S
C1383 C1381 1.433 . S
C1383 N1386 1.384 . S
C1384 H1375 0.929 . S
C1384 C1376 1.378 . S
C1384 C1379 1.350 . S
C1385 H1372 0.929 . S
C1385 C1377 1.433 . S
C1385 N1387 1.384 . S
N1386 C1382 1.427 . S
N1386 C1383 1.384 . S
N1387 C1379 1.427 . S
N1387 C1385 1.384 . S
H1388 C1394 0.930 . S
H1389 C1398 0.930 . S
H1390 C1403 0.929 . S
H1391 C1401 0.929 . S
H1392 C1396 0.929 . S
H1393 C1402 0.929 . S
C1394 H1388 0.930 . S
C1394 C1395 1.367 . S
C1394 C1402 1.378 . S
C1395 C1394 1.367 . S
C1395 C1403 1.433 . S
C1396 H1392 0.929 . S
C1396 C1398 1.378 . S
C1396 C1400 1.350 . S
C1397 C1400 1.463 . S
C1397 C1402 1.350 . S
C1397 N1405 1.427 . S
C1398 H1389 0.930 . S
C1398 C1396 1.378 . S
C1398 C1399 1.367 . S
C1399 C1398 1.367 . S
C1399 C1401 1.433 . S
C1400 C1396 1.350 . S
C1400 C1397 1.463 . S
C1400 N1404 1.427 . S
C1401 H1391 0.929 . S
C1401 C1399 1.433 . S
C1401 N1404 1.384 . S
C1402 H1393 0.929 . S
C1402 C1394 1.378 . S
C1402 C1397 1.350 . S
C1403 H1390 0.929 . S
C1403 C1395 1.433 . S
C1403 N1405 1.384 . S
N1404 C1400 1.427 . S
N1404 C1401 1.384 . S
N1405 C1397 1.427 . S
N1405 C1403 1.384 . S
H1406 C1412 0.930 . S
H1407 C1416 0.930 . S
H1408 C1421 0.929 . S
H1409 C1419 0.929 . S
H1410 C1414 0.929 . S
H1411 C1420 0.929 . S
C1412 H1406 0.930 . S
C1412 C1413 1.367 . S
C1412 C1420 1.378 . S
C1413 C1412 1.367 . S
C1413 C1421 1.433 . S
C1414 H1410 0.929 . S
C1414 C1416 1.378 . S
C1414 C1418 1.350 . S
C1415 C1418 1.463 1_554 S
C1415 C1420 1.350 . S
C1415 N1423 1.427 . S
C1416 H1407 0.930 . S
C1416 C1414 1.378 . S
C1416 C1417 1.367 . S
C1417 C1416 1.367 . S
C1417 C1419 1.433 . S
C1418 C1414 1.350 . S
C1418 C1415 1.463 1_556 S
C1418 N1422 1.427 . S
C1419 H1409 0.929 . S
C1419 C1417 1.433 . S
C1419 N1422 1.384 . S
C1420 H1411 0.929 . S
C1420 C1412 1.378 . S
C1420 C1415 1.350 . S
C1421 H1408 0.929 . S
C1421 C1413 1.433 . S
C1421 N1423 1.384 . S
N1422 C1418 1.427 . S
N1422 C1419 1.384 . S
N1423 C1415 1.427 . S
N1423 C1421 1.384 . S
H1424 C1430 0.930 . S
H1425 C1434 0.930 . S
H1426 C1439 0.929 . S
H1427 C1437 0.929 . S
H1428 C1432 0.929 . S
H1429 C1438 0.929 . S
C1430 H1424 0.930 . S
C1430 C1431 1.367 . S
C1430 C1438 1.378 . S
C1431 C1430 1.367 . S
C1431 C1439 1.433 . S
C1432 H1428 0.929 . S
C1432 C1434 1.378 . S
C1432 C1436 1.350 . S
C1433 C1436 1.463 1_565 S
C1433 C1438 1.350 . S
C1433 N1441 1.427 . S
C1434 H1425 0.930 . S
C1434 C1432 1.378 . S
C1434 C1435 1.367 . S
C1435 C1434 1.367 . S
C1435 C1437 1.433 . S
C1436 C1432 1.350 . S
C1436 C1433 1.463 1_545 S
C1436 N1440 1.427 . S
C1437 H1427 0.929 . S
C1437 C1435 1.433 . S
C1437 N1440 1.384 . S
C1438 H1429 0.929 . S
C1438 C1430 1.378 . S
C1438 C1433 1.350 . S
C1439 H1426 0.929 . S
C1439 C1431 1.433 . S
C1439 N1441 1.384 . S
N1440 C1436 1.427 . S
N1440 C1437 1.384 . S
N1441 C1433 1.427 . S
N1441 C1439 1.384 . S
H1442 C1448 0.930 . S
H1443 C1452 0.930 . S
H1444 C1457 0.929 1_556 S
H1445 C1455 0.929 1_554 S
H1446 C1450 0.929 . S
H1447 C1456 0.929 . S
C1448 H1442 0.930 . S
C1448 C1449 1.367 . S
C1448 C1456 1.378 . S
C1449 C1448 1.367 . S
C1449 C1457 1.433 . S
C1450 H1446 0.929 . S
C1450 C1452 1.378 . S
C1450 C1454 1.350 . S
C1451 C1454 1.463 1_554 S
C1451 C1456 1.350 . S
C1451 N1459 1.427 1_554 S
C1452 H1443 0.930 . S
C1452 C1450 1.378 . S
C1452 C1453 1.367 . S
C1453 C1452 1.367 . S
C1453 C1455 1.433 . S
C1454 C1450 1.350 . S
C1454 C1451 1.463 1_556 S
C1454 N1458 1.427 1_556 S
C1455 H1445 0.929 1_556 S
C1455 C1453 1.433 . S
C1455 N1458 1.384 1_556 S
C1456 H1447 0.929 . S
C1456 C1448 1.378 . S
C1456 C1451 1.350 . S
C1457 H1444 0.929 1_554 S
C1457 C1449 1.433 . S
C1457 N1459 1.384 1_554 S
N1458 C1454 1.427 1_554 S
N1458 C1455 1.384 1_554 S
N1459 C1451 1.427 1_556 S
N1459 C1457 1.384 1_556 S
H1460 C1466 0.930 . S
H1461 C1470 0.930 . S
H1462 C1475 0.929 . S
H1463 C1473 0.929 . S
H1464 C1468 0.929 . S
H1465 C1474 0.929 . S
C1466 H1460 0.930 . S
C1466 C1467 1.367 . S
C1466 C1474 1.378 . S
C1467 C1466 1.367 . S
C1467 C1475 1.433 . S
C1468 H1464 0.929 . S
C1468 C1470 1.378 . S
C1468 C1472 1.350 . S
C1469 C1472 1.463 1_545 S
C1469 C1474 1.350 . S
C1469 N1477 1.427 . S
C1470 H1461 0.930 . S
C1470 C1468 1.378 . S
C1470 C1471 1.367 . S
C1471 C1470 1.367 . S
C1471 C1473 1.433 . S
C1472 C1468 1.350 . S
C1472 C1469 1.463 1_565 S
C1472 N1476 1.427 . S
C1473 H1463 0.929 . S
C1473 C1471 1.433 . S
C1473 N1476 1.384 . S
C1474 H1465 0.929 . S
C1474 C1466 1.378 . S
C1474 C1469 1.350 . S
C1475 H1462 0.929 . S
C1475 C1467 1.433 . S
C1475 N1477 1.384 . S
N1476 C1472 1.427 . S
N1476 C1473 1.384 . S
N1477 C1469 1.427 . S
N1477 C1475 1.384 . S
H1478 C1484 0.930 . S
H1479 C1488 0.930 . S
H1480 C1493 0.929 . S
H1481 C1491 0.929 . S
H1482 C1486 0.929 . S
H1483 C1492 0.929 . S
C1484 H1478 0.930 . S
C1484 C1485 1.367 . S
C1484 C1492 1.378 . S
C1485 C1484 1.367 . S
C1485 C1493 1.433 . S
C1486 H1482 0.929 . S
C1486 C1488 1.378 . S
C1486 C1490 1.350 . S
C1487 C1490 1.463 . S
C1487 C1492 1.350 . S
C1487 N1495 1.427 . S
C1488 H1479 0.930 . S
C1488 C1486 1.378 . S
C1488 C1489 1.367 . S
C1489 C1488 1.367 . S
C1489 C1491 1.433 . S
C1490 C1486 1.350 . S
C1490 C1487 1.463 . S
C1490 N1494 1.427 . S
C1491 H1481 0.929 . S
C1491 C1489 1.433 . S
C1491 N1494 1.384 . S
C1492 H1483 0.929 . S
C1492 C1484 1.378 . S
C1492 C1487 1.350 . S
C1493 H1480 0.929 . S
C1493 C1485 1.433 . S
C1493 N1495 1.384 . S
N1494 C1490 1.427 . S
N1494 C1491 1.384 . S
N1495 C1487 1.427 . S
N1495 C1493 1.384 . S
H1496 C1502 0.930 . S
H1497 C1506 0.930 . S
H1498 C1511 0.929 . S
H1499 C1509 0.929 . S
H1500 C1504 0.929 . S
H1501 C1510 0.929 . S
C1502 H1496 0.930 . S
C1502 C1503 1.367 . S
C1502 C1510 1.378 . S
C1503 C1502 1.367 . S
C1503 C1511 1.433 . S
C1504 H1500 0.929 . S
C1504 C1506 1.378 . S
C1504 C1508 1.350 . S
C1505 C1508 1.463 1_545 S
C1505 C1510 1.350 . S
C1505 N1513 1.427 . S
C1506 H1497 0.930 . S
C1506 C1504 1.378 . S
C1506 C1507 1.367 . S
C1507 C1506 1.367 . S
C1507 C1509 1.433 . S
C1508 C1504 1.350 . S
C1508 C1505 1.463 1_565 S
C1508 N1512 1.427 . S
C1509 H1499 0.929 . S
C1509 C1507 1.433 . S
C1509 N1512 1.384 . S
C1510 H1501 0.929 . S
C1510 C1502 1.378 . S
C1510 C1505 1.350 . S
C1511 H1498 0.929 . S
C1511 C1503 1.433 . S
C1511 N1513 1.384 . S
N1512 C1508 1.427 . S
N1512 C1509 1.384 . S
N1513 C1505 1.427 . S
N1513 C1511 1.384 . S
H1514 C1520 0.930 . S
H1515 C1524 0.930 . S
H1516 C1529 0.929 1_556 S
H1517 C1527 0.929 1_554 S
H1518 C1522 0.929 . S
H1519 C1528 0.929 . S
C1520 H1514 0.930 . S
C1520 C1521 1.367 . S
C1520 C1528 1.378 . S
C1521 C1520 1.367 . S
C1521 C1529 1.433 . S
C1522 H1518 0.929 . S
C1522 C1524 1.378 . S
C1522 C1526 1.350 . S
C1523 C1526 1.463 1_554 S
C1523 C1528 1.350 . S
C1523 N1531 1.427 1_554 S
C1524 H1515 0.930 . S
C1524 C1522 1.378 . S
C1524 C1525 1.367 . S
C1525 C1524 1.367 . S
C1525 C1527 1.433 . S
C1526 C1522 1.350 . S
C1526 C1523 1.463 1_556 S
C1526 N1530 1.427 1_556 S
C1527 H1517 0.929 1_556 S
C1527 C1525 1.433 . S
C1527 N1530 1.384 1_556 S
C1528 H1519 0.929 . S
C1528 C1520 1.378 . S
C1528 C1523 1.350 . S
C1529 H1516 0.929 1_554 S
C1529 C1521 1.433 . S
C1529 N1531 1.384 1_554 S
N1530 C1526 1.427 1_554 S
N1530 C1527 1.384 1_554 S
N1531 C1523 1.427 1_556 S
N1531 C1529 1.384 1_556 S
H1532 C1538 0.930 . S
H1533 C1542 0.930 . S
H1534 C1547 0.929 . S
H1535 C1545 0.929 . S
H1536 C1540 0.929 . S
H1537 C1546 0.929 . S
C1538 H1532 0.930 . S
C1538 C1539 1.367 . S
C1538 C1546 1.378 . S
C1539 C1538 1.367 . S
C1539 C1547 1.433 . S
C1540 H1536 0.929 . S
C1540 C1542 1.378 . S
C1540 C1544 1.350 . S
C1541 C1544 1.463 1_545 S
C1541 C1546 1.350 . S
C1541 N1549 1.427 . S
C1542 H1533 0.930 . S
C1542 C1540 1.378 . S
C1542 C1543 1.367 . S
C1543 C1542 1.367 . S
C1543 C1545 1.433 . S
C1544 C1540 1.350 . S
C1544 C1541 1.463 1_565 S
C1544 N1548 1.427 . S
C1545 H1535 0.929 . S
C1545 C1543 1.433 . S
C1545 N1548 1.384 . S
C1546 H1537 0.929 . S
C1546 C1538 1.378 . S
C1546 C1541 1.350 . S
C1547 H1534 0.929 . S
C1547 C1539 1.433 . S
C1547 N1549 1.384 . S
N1548 C1544 1.427 . S
N1548 C1545 1.384 . S
N1549 C1541 1.427 . S
N1549 C1547 1.384 . S
H1550 C1556 0.930 . S
H1551 C1560 0.930 . S
H1552 C1565 0.929 . S
H1553 C1563 0.929 . S
H1554 C1558 0.929 . S
H1555 C1564 0.929 . S
C1556 H1550 0.930 . S
C1556 C1557 1.367 . S
C1556 C1564 1.378 . S
C1557 C1556 1.367 . S
C1557 C1565 1.433 . S
C1558 H1554 0.929 . S
C1558 C1560 1.378 . S
C1558 C1562 1.350 . S
C1559 C1562 1.463 . S
C1559 C1564 1.350 . S
C1559 N1567 1.427 . S
C1560 H1551 0.930 . S
C1560 C1558 1.378 . S
C1560 C1561 1.367 . S
C1561 C1560 1.367 . S
C1561 C1563 1.433 . S
C1562 C1558 1.350 . S
C1562 C1559 1.463 . S
C1562 N1566 1.427 . S
C1563 H1553 0.929 . S
C1563 C1561 1.433 . S
C1563 N1566 1.384 . S
C1564 H1555 0.929 . S
C1564 C1556 1.378 . S
C1564 C1559 1.350 . S
C1565 H1552 0.929 . S
C1565 C1557 1.433 . S
C1565 N1567 1.384 . S
N1566 C1562 1.427 . S
N1566 C1563 1.384 . S
N1567 C1559 1.427 . S
N1567 C1565 1.384 . S
C423 C8 1.278 . S
C427 C281 1.278 . S
C441 C294 1.291 . S
C445 C21 1.291 . S
C459 C34 1.288 . S
C463 C307 1.288 . S
C477 C268 1.273 . S
C481 C47 1.273 . S
C495 C60 1.280 . S
C499 C255 1.279 . S
C513 C73 1.278 . S
C517 C216 1.279 . S
C531 C229 1.273 . S
C535 C86 1.274 . S
C549 C99 1.289 . S
C553 C242 1.288 . S
C567 C112 1.274 . S
C571 C385 1.274 . S
C585 C125 1.274 . S
C589 C398 1.275 . S
C603 C411 1.288 . S
C607 C138 1.288 . S
C621 C372 1.292 . S
C625 C151 1.292 . S
C639 C164 1.274 . S
C643 C359 1.274 . S
C657 C320 1.273 . S
C661 C177 1.273 . S
C675 C190 1.289 . S
C679 C333 1.288 . S
C693 C346 1.277 . S
C697 C203 1.276 . S
C711 C5 1.036 . S
C715 C127 1.113 . S
C729 C18 1.039 . S
C733 C348 1.109 . S
C747 C153 1.114 . S
C751 C31 1.046 . S
C765 C44 1.046 . S
C769 C322 1.111 . S
C783 C57 1.021 . S
C787 C205 1.116 . S
C801 C374 1.111 . S
C805 C70 1.050 . S
C819 C179 1.114 . S
C823 C83 1.028 . S
C837 C400 1.114 . S
C841 C96 1.045 . S
C855 C109 1.046 . S
C859 C23 1.112 . S
C873 C244 1.110 . S
C877 C122 1.040 . S
C891 C49 1.113 . S
C895 C135 1.036 . S
C909 C148 1.028 . S
C913 C218 1.117 . S
C927 C101 1.112 . S
C931 C161 1.046 . S
C945 C270 1.112 . S
C949 C174 1.051 . S
C963 C75 1.114 . S
C967 C187 1.029 . S
C981 C200 1.023 . S
C985 C296 1.116 1_455 S
C999 C335 1.116 . S
C1003 C213 1.021 . S
C1017 C140 1.113 . S
C1021 C226 1.035 . S
C1035 C361 1.114 . S
C1039 C239 1.030 . S
C1053 C252 1.046 . S
C1057 C114 1.129 . S
C1071 C413 1.112 . S
C1075 C265 1.050 . S
C1089 C166 1.123 . S
C1093 C278 1.051 . S
C1107 C387 1.115 . S
C1111 C291 1.041 . S
C1125 C304 1.021 . S
C1129 C192 1.116 . S
C1143 C317 1.023 . S
C1147 C231 1.115 . S
C1161 C36 1.112 . S
C1165 C330 1.051 . S
C1179 C343 1.051 . S
C1183 C257 1.112 . S
C1197 C356 1.026 . S
C1201 C10 1.115 1_655 S
C1215 C369 1.029 . S
C1219 C309 1.114 . S
C1233 C62 1.116 . S
C1237 C382 1.046 . S
C1251 C283 1.113 . S
C1255 C395 1.033 . S
C1269 C408 1.037 . S
C1273 C88 1.112 . S
C1287 C0 1.237 . S
C1291 C52 1.227 . S
C1305 C13 1.238 . S
C1309 C65 1.222 . S
C1323 C78 1.225 . S
C1327 C26 1.238 . S
C1341 C91 1.226 . S
C1345 C39 1.227 . S
C1359 C156 1.230 . S
C1363 C104 1.235 . S
C1377 C169 1.236 . S
C1381 C117 1.229 . S
C1395 C182 1.228 . S
C1399 C130 1.237 . S
C1413 C195 1.238 . S
C1417 C143 1.222 . S
C1431 C208 1.235 . S
C1435 C260 1.221 . S
C1449 C221 1.226 . S
C1453 C273 1.238 . S
C1467 C234 1.238 . S
C1471 C286 1.222 . S
C1485 C299 1.236 . S
C1489 C247 1.221 . S
C1503 C312 1.236 . S
C1507 C364 1.221 . S
C1521 C377 1.238 . S
C1525 C325 1.227 . S
C1539 C390 1.222 . S
C1543 C338 1.232 . S
C1557 C403 1.238 . S
C1561 C351 1.223 . S
