# Generated by pormake.
# Topology smm, (6)-cn, num edge types: 1
# Building blocks:
#     Node 0, Type 0, BuildingBlock: HISSIN_clean_sbu_0, # of connection points: 6
#     Node 1, Type 0, BuildingBlock: HISSIN_clean_sbu_0, # of connection points: 6
#     Node 2, Type 0, BuildingBlock: HISSIN_clean_sbu_0, # of connection points: 6
#     Node 3, Type 0, BuildingBlock: HISSIN_clean_sbu_0, # of connection points: 6
#     Node 4, Type 0, BuildingBlock: HISSIN_clean_sbu_0, # of connection points: 6
#     Node 5, Type 0, BuildingBlock: HISSIN_clean_sbu_0, # of connection points: 6
#     Node 6, Type 0, BuildingBlock: HISSIN_clean_sbu_0, # of connection points: 6
#     Node 7, Type 0, BuildingBlock: HISSIN_clean_sbu_0, # of connection points: 6
#     Node 8, Type 0, BuildingBlock: HISSIN_clean_sbu_0, # of connection points: 6
#     Edge 9, Type (0, 0), BuildingBlock: UVAHIK_clean_linker_0, # of connection points: 2
#     Edge 10, Type (0, 0), BuildingBlock: UVAHIK_clean_linker_0, # of connection points: 2
#     Edge 11, Type (0, 0), BuildingBlock: UVAHIK_clean_linker_0, # of connection points: 2
#     Edge 12, Type (0, 0), BuildingBlock: UVAHIK_clean_linker_0, # of connection points: 2
#     Edge 13, Type (0, 0), BuildingBlock: UVAHIK_clean_linker_0, # of connection points: 2
#     Edge 14, Type (0, 0), BuildingBlock: UVAHIK_clean_linker_0, # of connection points: 2
#     Edge 15, Type (0, 0), BuildingBlock: UVAHIK_clean_linker_0, # of connection points: 2
#     Edge 16, Type (0, 0), BuildingBlock: UVAHIK_clean_linker_0, # of connection points: 2
#     Edge 17, Type (0, 0), BuildingBlock: UVAHIK_clean_linker_0, # of connection points: 2
#     Edge 18, Type (0, 0), BuildingBlock: UVAHIK_clean_linker_0, # of connection points: 2
#     Edge 19, Type (0, 0), BuildingBlock: UVAHIK_clean_linker_0, # of connection points: 2
#     Edge 20, Type (0, 0), BuildingBlock: UVAHIK_clean_linker_0, # of connection points: 2
#     Edge 21, Type (0, 0), BuildingBlock: UVAHIK_clean_linker_0, # of connection points: 2
#     Edge 22, Type (0, 0), BuildingBlock: UVAHIK_clean_linker_0, # of connection points: 2
#     Edge 23, Type (0, 0), BuildingBlock: UVAHIK_clean_linker_0, # of connection points: 2
#     Edge 24, Type (0, 0), BuildingBlock: UVAHIK_clean_linker_0, # of connection points: 2
#     Edge 25, Type (0, 0), BuildingBlock: UVAHIK_clean_linker_0, # of connection points: 2
#     Edge 26, Type (0, 0), BuildingBlock: UVAHIK_clean_linker_0, # of connection points: 2
#     Edge 27, Type (0, 0), BuildingBlock: UVAHIK_clean_linker_0, # of connection points: 2
#     Edge 28, Type (0, 0), BuildingBlock: UVAHIK_clean_linker_0, # of connection points: 2
#     Edge 29, Type (0, 0), BuildingBlock: UVAHIK_clean_linker_0, # of connection points: 2
#     Edge 30, Type (0, 0), BuildingBlock: UVAHIK_clean_linker_0, # of connection points: 2
#     Edge 31, Type (0, 0), BuildingBlock: UVAHIK_clean_linker_0, # of connection points: 2
#     Edge 32, Type (0, 0), BuildingBlock: UVAHIK_clean_linker_0, # of connection points: 2
#     Edge 33, Type (0, 0), BuildingBlock: UVAHIK_clean_linker_0, # of connection points: 2
#     Edge 34, Type (0, 0), BuildingBlock: UVAHIK_clean_linker_0, # of connection points: 2
#     Edge 35, Type (0, 0), BuildingBlock: UVAHIK_clean_linker_0, # of connection points: 2
# Relax obj value: 0.036
# Max RMSD: 0.111
# Mean RMSD: 0.111
data_MOF--net-smm--node1-HISSIN_clean_sbu_0--edge1-UVAHIK_clean_linker_0
_symmetry_space_group_name_H-M    P1
_symmetry_Int_Tables_number       1
_symmetry_cell_setting            triclinic
loop_
_symmetry_equiv_pos_as_xyz
'x, y, z'
_cell_length_a     86.956521
_cell_length_b     86.97083
_cell_length_c     18.685823
_cell_angle_alpha  90.110755
_cell_angle_beta   89.870998
_cell_angle_gamma 120.0296
loop_
_atom_site_label
_atom_site_type_symbol
_atom_site_fract_x
_atom_site_fract_y
_atom_site_fract_z
_atom_type_partial_charge
Eu0 Eu 0.04651 0.21362 0.98273 0.0
Eu1 Eu 1.00847 0.16794 0.0253 0.0
C2 C 1.0148 0.18094 0.88574 0.0
C3 C 0.07343 0.26136 0.89929 0.0
C4 C 0.06907 0.26827 0.83977 0.0
C5 C 0.09424 0.2917 0.93736 0.0
C6 C 0.07731 0.28665 0.82869 0.0
C7 C 0.086 0.2733 0.94839 0.0
C8 C 0.09021 0.29865 0.8768 0.0
C9 C 0.06609 0.24184 0.90501 0.0
O10 O 0.03205 0.16576 0.98689 0.0
O11 O 0.057 0.1945 0.97611 0.0
C12 C 0.04929 0.17691 0.97793 0.0
O13 O 0.05135 0.21423 0.09989 0.0
O14 O 0.98157 0.14631 0.04721 0.0
O15 O 1.00397 0.1468 0.10023 0.0
O16 O 0.02712 0.18583 0.10935 0.0
C17 C 0.04059 0.20005 0.13756 0.0
O18 O 0.02529 0.21739 0.03517 0.0
O19 O 1.00013 0.18868 0.04525 0.0
O20 O 1.00241 0.16555 0.9067 0.0
O21 O 0.07244 0.23598 0.95494 0.0
O22 O 0.04901 0.23137 0.89476 0.0
O23 O 0.02388 0.19016 0.94002 0.0
C24 C 0.97908 0.11845 0.07749 0.0
C25 C 0.98008 0.10793 0.13223 0.0
C26 C 0.96231 0.09184 0.00538 0.0
C27 C 0.97209 0.08949 0.12396 0.0
C28 C 0.9703 0.11025 0.01368 0.0
C29 C 0.9629 0.08116 0.06067 0.0
C30 C 0.98691 0.13779 0.08862 0.0
C31 C 1.00832 0.20632 0.05052 0.0
H32 H 0.05962 0.25942 0.80051 0.0
H33 H 0.10386 0.30047 0.97628 0.0
H34 H 0.07397 0.2914 0.78098 0.0
H35 H 0.08975 0.26848 -0.00526 0.0
H36 H 0.98684 0.11396 0.18193 0.0
H37 H 0.95569 0.08597 0.95536 0.0
H38 H 0.97273 0.08173 0.16793 0.0
H39 H 0.96949 0.11803 0.97023 0.0
Eu40 Eu 0.84053 0.85024 0.00111 0.0
Eu41 Eu 0.88246 0.85669 0.02648 0.0
C42 C 0.86411 0.85307 0.87962 0.0
C43 C 0.7905 0.83175 0.94388 0.0
C44 C 0.78626 0.82465 0.87424 0.0
C45 C 0.75891 0.81823 0.96987 0.0
C46 C 0.76843 0.81442 0.85275 0.0
C47 C 0.77661 0.82821 -0.00862 0.0
C48 C 0.75446 0.81124 0.90009 0.0
C49 C 0.80894 0.84458 0.96629 0.0
O50 O 0.8855 0.88369 0.03305 0.0
O51 O 0.85934 0.87977 0.98359 0.0
C52 C 0.87567 0.89 0.00765 0.0
O53 O 0.84812 0.86132 0.11121 0.0
O54 O 0.9047 0.85412 0.98518 0.0
O55 O 0.90672 0.8662 0.08894 0.0
O56 O 0.87042 0.85481 0.13544 0.0
C57 C 0.85885 0.85959 0.15546 0.0
O58 O 0.83659 0.82489 0.04953 0.0
O59 O 0.86385 0.82693 0.02867 0.0
O60 O 0.87869 0.86358 0.91433 0.0
O61 O 0.81361 0.84336 0.03149 0.0
O62 O 0.82195 0.84955 0.9204 0.0
O63 O 0.85119 0.84049 0.91568 0.0
C64 C 0.93401 0.87573 0.02583 0.0
C65 C 0.94435 0.888 0.07919 0.0
C66 C 0.96091 0.88591 0.95423 0.0
C67 C 0.96271 0.89895 0.07049 0.0
C68 C 0.94251 0.875 0.96282 0.0
C69 C 0.97134 0.89783 0.00852 0.0
C70 C 0.91499 0.86247 0.03957 0.0
C71 C 0.84695 0.81787 0.0474 0.0
H72 H 0.79666 0.82727 0.83597 0.0
H73 H 0.74876 0.81658 0.00772 0.0
H74 H 0.76564 0.8091 0.79891 0.0
H75 H 0.77944 0.83376 0.04492 0.0
H76 H 0.93833 0.88886 0.12874 0.0
H77 H 0.96701 0.88448 0.90604 0.0
H78 H 0.97017 0.90818 0.11293 0.0
H79 H 0.93503 0.86559 0.92094 0.0
Eu80 Eu 0.20191 1.00538 0.98141 0.0
Eu81 Eu 0.19445 0.04456 0.02056 0.0
C82 C 0.20196 0.03769 0.88165 0.0
C83 C 0.22266 0.97835 0.8996 0.0
C84 C 0.23301 0.98174 0.83756 0.0
C85 C 0.23353 0.95895 0.9415 0.0
C86 C 0.24332 0.97368 0.82705 0.0
C87 C 0.2232 0.96702 0.95196 0.0
C88 C 0.24353 0.96195 0.87838 0.0
C89 C 0.21022 0.98536 0.90496 0.0
O90 O 0.16874 0.02104 0.98098 0.0
O91 O 0.17253 0.99596 0.97109 0.0
C92 C 0.16272 1.00379 0.97131 0.0
O93 O 0.19715 0.9996 0.09859 0.0
O94 O 0.19957 0.07126 0.04431 0.0
O95 O 0.1776 0.04861 0.09674 0.0
O96 O 0.19407 0.02352 0.08906 0.0
C97 C 0.19385 1.01118 0.12938 0.0
O98 O 0.22714 0.02755 0.02944 0.0
O99 O 0.22329 0.05253 0.04482 0.0
O100 O 0.19918 0.05032 0.9022 0.0
O101 O 0.19841 0.97934 0.95653 0.0
O102 O 0.2165 1.00228 0.89213 0.0
O103 O 0.20123 0.02807 0.9358 0.0
C104 C 0.17377 0.07325 0.07086 0.0
C105 C 0.16239 0.07293 0.12498 0.0
C106 C 0.1639 0.08934 -0.00535 0.0
C107 C 0.15195 0.08084 0.11431 0.0
C108 C 0.17418 0.08126 0.00512 0.0
C109 C 0.15277 0.08945 0.04936 0.0
C110 C 0.18544 0.06568 0.08462 0.0
C111 C 0.23289 0.04442 0.04684 0.0
H112 H 0.23272 0.99026 0.79598 0.0
H113 H 0.23359 0.95027 0.98283 0.0
H114 H 0.25063 0.97618 0.77739 0.0
H115 H 0.21538 0.96409 0.00045 0.0
H116 H 0.1617 0.06669 0.17595 0.0
H117 H 0.16511 0.09592 0.94413 0.0
H118 H 0.14325 0.08019 0.15717 0.0
H119 H 0.18269 0.08157 0.96207 0.0
Eu120 Eu 0.71527 0.54715 0.34335 0.0
Eu121 Eu 0.67936 0.50472 0.35017 0.0
C122 C 0.69594 0.5246 0.20439 0.0
C123 C 0.74854 0.59738 0.30281 0.0
C124 C 0.74046 0.60205 0.24836 0.0
C125 C 0.7708 0.6286 0.31643 0.0
C126 C 0.74772 0.61987 0.22741 0.0
C127 C 0.76356 0.61087 0.3372 0.0
C128 C 0.76323 0.63334 0.26026 0.0
C129 C 0.74288 0.57866 0.3202 0.0
O130 O 0.70257 0.50112 0.32669 0.0
O131 O 0.72589 0.52839 0.36185 0.0
C132 C 0.71935 0.51165 0.34296 0.0
O133 O 0.70365 0.54427 0.45195 0.0
O134 O 0.65423 0.48237 0.31205 0.0
O135 O 0.6652 0.48067 0.41406 0.0
O136 O 0.69209 0.51428 0.45698 0.0
C137 C 0.69469 0.52912 0.48552 0.0
O138 O 0.69226 0.55176 0.35459 0.0
O139 O 0.66784 0.52316 0.3591 0.0
O140 O 0.68867 0.50918 0.23649 0.0
O141 O 0.73656 0.57272 0.38403 0.0
O142 O 0.73473 0.56677 0.27042 0.0
O143 O 0.70112 0.53935 0.23955 0.0
C144 C 0.64653 0.45319 0.35464 0.0
C145 C 0.64645 0.44268 0.4119 0.0
C146 C 0.63104 0.42635 0.28206 0.0
C147 C 0.63869 0.42427 0.40461 0.0
C148 C 0.63894 0.44482 0.28927 0.0
C149 C 0.63053 0.41575 0.34006 0.0
C150 C 0.65269 0.47231 0.36672 0.0
C151 C 0.67507 0.54064 0.36172 0.0
H152 H 0.72886 0.59191 0.22066 0.0
H153 H 0.78248 0.6386 0.34412 0.0
H154 H 0.74156 0.62298 0.18382 0.0
H155 H 0.77005 0.60763 0.37914 0.0
H156 H 0.65203 0.44865 0.46326 0.0
H157 H 0.62477 0.42035 0.23168 0.0
H158 H 0.63895 0.4167 0.45008 0.0
H159 H 0.63859 0.45246 0.24423 0.0
Eu160 Eu 0.50537 0.18485 0.31562 0.0
Eu161 Eu 0.55171 0.19211 0.35756 0.0
C162 C 0.53825 0.18539 0.21732 0.0
C163 C 0.45797 0.16441 0.23162 0.0
C164 C 0.45097 0.15328 0.17166 0.0
C165 C 0.42772 0.15457 0.27177 0.0
C166 C 0.43258 0.14306 0.16133 0.0
C167 C 0.44613 0.1648 0.28206 0.0
C168 C 0.42068 0.14375 0.21072 0.0
C169 C 0.47747 0.17659 0.23677 0.0
O170 O 0.55429 0.21801 0.31924 0.0
O171 O 0.52551 0.21431 0.30651 0.0
C172 C 0.54316 0.2241 0.30837 0.0
O173 O 0.50354 0.18919 0.43287 0.0
O174 O 0.57312 0.18681 0.38201 0.0
O175 O 0.57191 0.2082 0.43693 0.0
O176 O 0.53041 0.19218 0.42339 0.0
C177 C 0.51828 0.19234 0.46416 0.0
O178 O 0.50194 0.15954 0.36439 0.0
O179 O 0.53069 0.16317 0.37823 0.0
O180 O 0.55355 0.1881 0.23887 0.0
O181 O 0.48338 0.18885 0.28658 0.0
O182 O 0.48783 0.16985 0.22681 0.0
O183 O 0.52899 0.18573 0.2711 0.0
C184 C 0.60042 0.21195 0.41489 0.0
C185 C 0.61204 0.21521 0.47214 0.0
C186 C 0.62585 0.22945 0.33741 0.0
C187 C 0.63044 0.22528 0.46202 0.0
C188 C 0.60743 0.21937 0.34767 0.0
C189 C 0.63761 0.23231 0.39427 0.0
C190 C 0.58114 0.20033 0.42558 0.0
C191 C 0.513 0.15366 0.38085 0.0
H192 H 0.45976 0.15284 0.13155 0.0
H193 H 0.41901 0.15523 0.3116 0.0
H194 H 0.42774 0.13509 0.11326 0.0
H195 H 0.45105 0.17323 0.32891 0.0
H196 H 0.60689 0.20975 0.52461 0.0
H197 H 0.63088 0.23458 0.28449 0.0
H198 H 0.63906 0.22753 0.50734 0.0
H199 H 0.59865 0.21708 0.30284 0.0
Eu200 Eu 0.868 0.33867 0.33656 0.0
Eu201 Eu 0.86107 0.3735 0.35944 0.0
C202 C 0.87532 0.36727 0.215 0.0
C203 C 0.8873 0.30733 0.2895 0.0
C204 C 0.894 0.30945 0.21938 0.0
C205 C 0.90231 0.29091 0.31961 0.0
C206 C 0.9047 0.30228 0.1996 0.0
C207 C 0.89179 0.29819 0.33938 0.0
C208 C 0.9088 0.29266 0.24923 0.0
C209 C 0.87406 0.31257 0.3102 0.0
O210 O 0.83372 0.35026 0.34594 0.0
O211 O 0.83895 0.32773 0.31035 0.0
C212 C 0.82823 0.334 0.32381 0.0
O213 O 0.85483 0.33399 0.44371 0.0
O214 O 0.86353 0.39855 0.32288 0.0
O215 O 0.85179 0.38779 0.42628 0.0
O216 O 0.86214 0.3629 0.46713 0.0
C217 C 0.8564 0.34647 0.4875 0.0
O218 O 0.89218 0.35964 0.39402 0.0
O219 O 0.8907 0.38489 0.36904 0.0
O220 O 0.86251 0.3692 0.24226 0.0
O221 O 0.87556 0.31957 0.37348 0.0
O222 O 0.86844 0.31947 0.26196 0.0
O223 O 0.88207 0.35908 0.25056 0.0
C224 C 0.84237 0.40612 0.36949 0.0
C225 C 0.83348 0.40756 0.42979 0.0
C226 C 0.82921 0.41994 0.29766 0.0
C227 C 0.82286 0.41535 0.42448 0.0
C228 C 0.83988 0.41213 0.30299 0.0
C229 C 0.82091 0.42201 0.35875 0.0
C230 C 0.85552 0.40019 0.37909 0.0
C231 C 0.89943 0.37703 0.39127 0.0
H232 H 0.8907 0.31633 0.1794 0.0
H233 H 0.90477 0.28335 0.35926 0.0
H234 H 0.90965 0.3042 0.14523 0.0
H235 H 0.88661 0.2961 0.39348 0.0
H236 H 0.83518 0.40314 0.48183 0.0
H237 H 0.82805 0.42501 0.24628 0.0
H238 H 0.81638 0.41642 0.47229 0.0
H239 H 0.84661 0.41132 0.25553 0.0
Eu240 Eu 0.3819 0.88137 0.64661 0.0
Eu241 Eu 0.34299 0.83476 0.69256 0.0
C242 C 0.34922 0.84756 0.55004 0.0
C243 C 0.40819 0.92831 0.55867 0.0
C244 C 0.4062 0.93508 0.49343 0.0
C245 C 0.42602 0.95863 0.60279 0.0
C246 C 0.41417 0.95342 0.48257 0.0
C247 C 0.41792 0.94026 0.61378 0.0
C248 C 0.4245 0.96551 0.53657 0.0
C249 C 0.40119 0.90893 0.56545 0.0
O250 O 0.36658 0.83247 0.6545 0.0
O251 O 0.39143 0.86135 0.63892 0.0
C252 C 0.38374 0.84371 0.64236 0.0
O253 O 0.38821 0.88413 0.76463 0.0
O254 O 0.31654 0.81383 0.72295 0.0
O255 O 0.33971 0.81449 0.77035 0.0
O256 O 0.36519 0.85799 0.74662 0.0
C257 C 0.37634 0.86914 0.79324 0.0
O258 O 0.35943 0.88443 0.69223 0.0
O259 O 0.33491 0.85565 0.71492 0.0
O260 O 0.33678 0.83241 0.57414 0.0
O261 O 0.40772 0.9035 0.61616 0.0
O262 O 0.38412 0.89835 0.55617 0.0
O263 O 0.35929 0.85734 0.60197 0.0
C264 C 0.31455 0.78602 0.74727 0.0
C265 C 0.31553 0.77496 0.79952 0.0
C266 C 0.29735 0.75998 0.67201 0.0
C267 C 0.30735 0.75658 0.78853 0.0
C268 C 0.30557 0.77835 0.68293 0.0
C269 C 0.29794 0.7488 0.72495 0.0
C270 C 0.32248 0.80532 0.76132 0.0
C271 C 0.34277 0.87335 0.71262 0.0
H272 H 0.39875 0.92616 0.4501 0.0
H273 H 0.43395 0.96743 0.64558 0.0
H274 H 0.41229 0.9581 0.43148 0.0
H275 H 0.41968 0.93545 0.66478 0.0
H276 H 0.32241 0.78053 0.84945 0.0
H277 H 0.29055 0.75455 0.62184 0.0
H278 H 0.30801 0.74841 0.83073 0.0
H279 H 0.30476 0.78653 0.64113 0.0
Eu280 Eu 0.17223 0.51851 0.6514 0.0
Eu281 Eu 0.21852 0.52528 0.69549 0.0
C282 C 0.2056 0.51956 0.55382 0.0
C283 C 0.12511 0.49841 0.56542 0.0
C284 C 0.11827 0.48669 0.50708 0.0
C285 C 0.09475 0.48914 0.60216 0.0
C286 C 0.09991 0.47638 0.49611 0.0
C287 C 0.11312 0.49934 0.61342 0.0
C288 C 0.08785 0.47766 0.54277 0.0
C289 C 0.14461 0.51064 0.57132 0.0
O290 O 0.22114 0.55149 0.66144 0.0
O291 O 0.19254 0.54809 0.64581 0.0
C292 C 0.21018 0.55778 0.65078 0.0
O293 O 0.16976 0.52205 0.7693 0.0
O294 O 0.23966 0.51972 0.72138 0.0
O295 O 0.23867 0.5414 0.77523 0.0
O296 O 0.19612 0.52481 0.75501 0.0
C297 C 0.18457 0.52499 0.79914 0.0
O298 O 0.16873 0.49275 0.69634 0.0
O299 O 0.19734 0.49635 0.71583 0.0
O300 O 0.22073 0.52196 0.57638 0.0
O301 O 0.15038 0.52269 0.62194 0.0
O302 O 0.15504 0.50399 0.56102 0.0
O303 O 0.19611 0.51976 0.60707 0.0
C304 C 0.26728 0.5453 0.75081 0.0
C305 C 0.27817 0.55597 0.8067 0.0
C306 C 0.29352 0.55603 0.67502 0.0
C307 C 0.29658 0.56639 0.79726 0.0
C308 C 0.27512 0.54564 0.68449 0.0
C309 C 0.30456 0.5664 0.73152 0.0
C310 C 0.24795 0.5336 0.76312 0.0
C311 C 0.17962 0.4868 0.71482 0.0
H312 H 0.12717 0.48574 0.46894 0.0
H313 H 0.08602 0.49075 0.63894 0.0
H314 H 0.09521 0.46747 0.45063 0.0
H315 H 0.11789 0.50829 0.65879 0.0
H316 H 0.27244 0.55601 0.85822 0.0
H317 H 0.2991 0.55596 0.62322 0.0
H318 H 0.30461 0.57407 0.84221 0.0
H319 H 0.26705 0.53773 0.64002 0.0
Eu320 Eu 0.53535 0.67375 0.66195 0.0
Eu321 Eu 0.52977 0.70944 0.68897 0.0
C322 C 0.5285 0.69281 0.53636 0.0
C323 C 0.55433 0.64204 0.6125 0.0
C324 C 0.55955 0.64277 0.54062 0.0
C325 C 0.57016 0.6263 0.64169 0.0
C326 C 0.56992 0.63527 0.51959 0.0
C327 C 0.56 0.63393 0.66267 0.0
C328 C 0.57516 0.62664 0.56965 0.0
C329 C 0.5413 0.64749 0.63521 0.0
O330 O 0.50247 0.68565 0.69655 0.0
O331 O 0.50568 0.66263 0.65016 0.0
C332 C 0.49579 0.66921 0.67352 0.0
O333 O 0.5224 0.67021 0.76976 0.0
O334 O 0.53274 0.73466 0.65206 0.0
O335 O 0.52075 0.72409 0.75548 0.0
O336 O 0.53328 0.69971 0.79595 0.0
C337 C 0.52533 0.68291 0.8154 0.0
O338 O 0.56104 0.6956 0.70655 0.0
O339 O 0.55944 0.72058 0.67895 0.0
O340 O 0.52035 0.69846 0.57866 0.0
O341 O 0.54335 0.65488 0.69799 0.0
O342 O 0.53513 0.65406 0.58789 0.0
O343 O 0.54086 0.68998 0.56208 0.0
C344 C 0.51149 0.74248 0.69607 0.0
C345 C 0.5008 0.74231 0.75304 0.0
C346 C 0.50005 0.75784 0.62339 0.0
C347 C 0.48997 0.7499 0.7455 0.0
C348 C 0.51079 0.75015 0.63082 0.0
C349 C 0.48968 0.75809 0.68098 0.0
C350 C 0.52458 0.73642 0.70765 0.0
C351 C 0.56848 0.71291 0.69941 0.0
H352 H 0.55533 0.6488 0.50028 0.0
H353 H 0.57349 0.61955 0.68207 0.0
H354 H 0.5737 0.63616 0.46386 0.0
H355 H 0.55599 0.63287 0.71821 0.0
H356 H 0.50108 0.73665 0.80427 0.0
H357 H 0.50041 0.76416 0.57307 0.0
H358 H 0.48195 0.74944 0.7907 0.0
H359 H 0.51895 0.7507 0.58595 0.0
C360 C 0.11795 0.32891 0.87852 0.0
C361 C 0.09975 0.31823 0.86275 0.0
C362 C 0.127 0.34715 0.86376 0.0
C363 C 0.12357 0.38113 0.75447 0.0
H364 H 0.16028 0.41439 0.88239 0.0
C365 C 0.15275 0.45645 0.72497 0.0
C366 C 0.1711 0.46773 0.73517 0.0
C367 C 0.14462 0.43842 0.74169 0.0
C368 C 0.15021 0.40527 0.84564 0.0
H369 H 0.07681 0.31874 0.8202 0.0
H370 H 0.09247 0.35042 0.795 0.0
H371 H 0.14489 0.38273 0.90954 0.0
H372 H 0.19521 0.46874 0.77258 0.0
H373 H 0.18098 0.43713 0.80114 0.0
H374 H 0.1288 0.40364 0.69081 0.0
C375 C 0.09989 0.34464 0.81754 0.0
C376 C 0.14136 0.38706 0.86118 0.0
C377 C 0.09086 0.3264 0.83216 0.0
C378 C 0.18107 0.46047 0.76364 0.0
C379 C 0.17288 0.44235 0.7805 0.0
C380 C 0.13237 0.3993 0.73908 0.0
C381 C 0.11812 0.35529 0.83283 0.0
C382 C 0.12782 0.37473 0.81603 0.0
C383 C 0.15456 0.43106 0.76905 0.0
C384 C 0.14572 0.41164 0.78469 0.0
H385 H 0.12537 0.32312 0.90085 0.0
H386 H 0.14107 0.35479 0.87525 0.0
H387 H 0.11354 0.37209 0.71741 0.0
H388 H 0.14457 0.46146 0.70333 0.0
H389 H 0.13044 0.43025 0.73345 0.0
C390 C 0.73028 0.80199 0.80654 0.0
C391 C 0.73537 0.80111 0.87728 0.0
C392 C 0.71232 0.79296 0.78654 0.0
C393 C 0.66772 0.75708 0.84942 0.0
H394 H 0.65048 0.77609 0.70261 0.0
C395 C 0.59737 0.71556 0.73585 0.0
C396 C 0.58767 0.72392 0.7172 0.0
C397 C 0.61525 0.7255 0.75461 0.0
C398 C 0.65501 0.7707 0.7444 0.0
H399 H 0.72513 0.78952 0.98179 0.0
H400 H 0.69421 0.77502 0.94857 0.0
H401 H 0.68165 0.79249 0.73734 0.0
H402 H 0.58934 0.74949 0.70411 0.0
H403 H 0.62065 0.76694 0.73826 0.0
H404 H 0.64102 0.73576 0.85906 0.0
C405 C 0.70402 0.78222 0.90757 0.0
C406 C 0.67301 0.77998 0.76357 0.0
C407 C 0.72192 0.7909 0.92713 0.0
C408 C 0.59642 0.7426 0.71774 0.0
C409 C 0.61441 0.75261 0.73704 0.0
C410 C 0.64974 0.74798 0.83109 0.0
C411 C 0.6989 0.78299 0.83689 0.0
C412 C 0.67967 0.77326 0.81619 0.0
C413 C 0.62404 0.74416 0.75609 0.0
C414 C 0.64313 0.75452 0.77775 0.0
H415 H 0.74011 0.80987 0.76657 0.0
H416 H 0.70903 0.79373 0.73133 0.0
H417 H 0.67222 0.7512 0.88923 0.0
H418 H 0.59118 0.70122 0.73602 0.0
H419 H 0.62222 0.71845 0.76732 0.0
C420 C 0.24679 0.9347 0.88609 0.0
C421 C 0.25369 0.9525 0.86499 0.0
C422 C 0.256 0.92566 0.87138 0.0
C423 C 0.29165 0.92777 0.7535 0.0
H424 H 0.29121 0.89363 0.88787 0.0
C425 C 0.33861 0.8998 0.71992 0.0
C426 C 0.33209 0.88168 0.73373 0.0
C427 C 0.32863 0.90779 0.73744 0.0
C428 C 0.2913 0.90297 0.84939 0.0
H429 H 0.27609 0.9748 0.81327 0.0
H430 H 0.29215 0.95918 0.78821 0.0
H431 H 0.27494 0.90899 0.91599 0.0
H432 H 0.30993 0.85784 0.77847 0.0
H433 H 0.29238 0.87184 0.80863 0.0
H434 H 0.3081 0.92187 0.68721 0.0
C435 C 0.2794 0.95202 0.81484 0.0
C436 C 0.28195 0.9118 0.86547 0.0
C437 C 0.27017 0.96104 0.82939 0.0
C438 C 0.31535 0.8718 0.76664 0.0
C439 C 0.30533 0.87985 0.7844 0.0
C440 C 0.30102 0.91901 0.73761 0.0
C441 C 0.2724 0.93416 0.83518 0.0
C442 C 0.28209 0.92444 0.81794 0.0
C443 C 0.31179 0.89793 0.76926 0.0
C444 C 0.30111 0.90661 0.78555 0.0
H445 H 0.23401 0.92755 0.9125 0.0
H446 H 0.25001 0.91186 0.88698 0.0
H447 H 0.29176 0.93704 0.71463 0.0
H448 H 0.35143 0.90791 0.69475 0.0
H449 H 0.33421 0.9218 0.72625 0.0
C450 C 0.39041 0.14111 0.21431 0.0
C451 C 0.40109 0.13365 0.19742 0.0
C452 C 0.37216 0.1319 0.19981 0.0
C453 C 0.33831 0.09475 0.08895 0.0
H454 H 0.30487 0.09776 0.21771 0.0
C455 C 0.26323 0.04814 0.05931 0.0
C456 C 0.25183 0.0551 0.06857 0.0
C457 C 0.2812 0.05816 0.07658 0.0
C458 C 0.31405 0.09694 0.18078 0.0
H459 H 0.40062 0.11031 0.15349 0.0
H460 H 0.36892 0.09425 0.12884 0.0
H461 H 0.33653 0.11407 0.24531 0.0
H462 H 0.25053 0.07814 0.10515 0.0
H463 H 0.2821 0.09575 0.13498 0.0
H464 H 0.31587 0.07754 0.02475 0.0
C465 C 0.37469 0.10741 0.15194 0.0
C466 C 0.33224 0.10631 0.19656 0.0
C467 C 0.39294 0.11664 0.16625 0.0
C468 C 0.2589 0.07235 0.09692 0.0
C469 C 0.27699 0.08241 0.11446 0.0
C470 C 0.32017 0.08537 0.07337 0.0
C471 C 0.36404 0.11495 0.16808 0.0
C472 C 0.34463 0.10524 0.15108 0.0
C473 C 0.28839 0.07549 0.10363 0.0
C474 C 0.30777 0.0862 0.11935 0.0
H475 H 0.39621 0.15429 0.23721 0.0
H476 H 0.36451 0.13829 0.21204 0.0
H477 H 0.34739 0.0939 0.05162 0.0
H478 H 0.25837 0.03493 0.03775 0.0
H479 H 0.28947 0.05225 0.06886 0.0
C480 C 0.91781 0.27686 0.15884 0.0
C481 C 0.91932 0.28402 0.22788 0.0
C482 C 0.9272 0.26822 0.14011 0.0
C483 C 0.96509 0.26261 0.1998 0.0
H484 H 0.94443 0.2227 0.06866 0.0
C485 C 1.00596 0.23289 0.08549 0.0
C486 C 0.99767 0.21445 0.07443 0.0
C487 C 0.99608 0.24085 0.10522 0.0
C488 C 0.9503 0.23368 0.10609 0.0
H489 H 0.93239 0.28784 0.33068 0.0
H490 H 0.94775 0.27201 0.29965 0.0
H491 H 0.9278 0.2374 0.10102 0.0
H492 H 0.97232 0.18986 0.07718 0.0
H493 H 0.9551 0.20376 0.11296 0.0
H494 H 0.98726 0.25848 0.20718 0.0
C495 C 0.93968 0.27343 0.25906 0.0
C496 C 0.94088 0.24233 0.1238 0.0
C497 C 0.93055 0.2823 0.27737 0.0
C498 C 0.97919 0.20411 0.08494 0.0
C499 C 0.96927 0.21211 0.10493 0.0
C500 C 0.97439 0.25386 0.18278 0.0
C501 C 0.9382 0.26629 0.19012 0.0
C502 C 0.94816 0.25697 0.1708 0.0
C503 C 0.9776 0.23061 0.11505 0.0
C504 C 0.96721 0.23936 0.13529 0.0
H505 H 0.90913 0.27762 0.11934 0.0
H506 H 0.92587 0.26316 0.08615 0.0
H507 H 0.97135 0.27398 0.23521 0.0
H508 H 0.02015 0.24134 0.07827 0.0
H509 H 1.00296 0.25514 0.11141 0.0
C510 C 0.82046 0.7882 0.07309 0.0
C511 C 0.83899 0.79885 0.06673 0.0
C512 C 0.81269 0.77038 0.09258 0.0
C513 C 0.82153 0.73282 0.10714 0.0
H514 H 0.77929 0.71293 0.2261 0.0
C515 C 0.79057 0.66261 0.23208 0.0
C516 C 0.77192 0.65219 0.23519 0.0
C517 C 0.79888 0.68037 0.21036 0.0
C518 C 0.79095 0.71819 0.19217 0.0
H519 H 0.86394 0.79903 0.0762 0.0
H520 H 0.85038 0.76793 0.11221 0.0
H521 H 0.79388 0.74407 0.19272 0.0
H522 H 0.74743 0.65244 0.21668 0.0
H523 H 0.76192 0.68333 0.17728 0.0
H524 H 0.81865 0.70688 0.10767 0.0
C525 C 0.8418 0.7733 0.10055 0.0
C526 C 0.79935 0.73611 0.17287 0.0
C527 C 0.8496 0.79118 0.0802 0.0
C528 C 0.7618 0.65998 0.21471 0.0
C529 C 0.77013 0.67778 0.19287 0.0
C530 C 0.81317 0.71489 0.12688 0.0
C531 C 0.82322 0.76268 0.10728 0.0
C532 C 0.81469 0.74367 0.12963 0.0
C533 C 0.78879 0.68823 0.19078 0.0
C534 C 0.79771 0.70731 0.16938 0.0
H535 H 0.81183 0.79359 0.06256 0.0
H536 H 0.79835 0.7626 0.09541 0.0
H537 H 0.83314 0.73805 0.07302 0.0
H538 H 0.79884 0.65703 0.24616 0.0
H539 H 0.81325 0.68802 0.21009 0.0
C540 C 0.05593 0.46113 0.58527 0.0
C541 C 0.06826 0.46749 0.52856 0.0
C542 C 0.03763 0.45199 0.57191 0.0
C543 C 1.00425 0.44283 0.42805 0.0
H544 H 0.97317 0.40479 0.556 0.0
C545 C 0.92764 0.40653 0.40006 0.0
C546 C 0.91838 0.38807 0.4115 0.0
C547 C 0.94576 0.41669 0.4161 0.0
C548 C 0.98165 0.41527 0.51925 0.0
H549 H 0.07063 0.46921 0.41271 0.0
H550 H 0.03894 0.45252 0.38959 0.0
H551 H 1.00492 0.4209 0.57806 0.0
H552 H 0.9209 0.36591 0.45012 0.0
H553 H 0.95235 0.38346 0.47673 0.0
H554 H 0.98097 0.43655 0.36735 0.0
C555 C 0.04338 0.45496 0.44466 0.0
C556 C 0.99991 0.42474 0.53258 0.0
C557 C 0.06168 0.46431 0.45802 0.0
C558 C 0.92759 0.38008 0.44041 0.0
C559 C 0.94566 0.39021 0.45628 0.0
C560 C 0.98598 0.43321 0.41428 0.0
C561 C 0.03107 0.4487 0.5014 0.0
C562 C 1.01151 0.43867 0.48721 0.0
C563 C 0.95504 0.40864 0.44405 0.0
C564 C 0.97444 0.41927 0.45963 0.0
H565 H 0.06035 0.46306 0.64034 0.0
H566 H 0.02865 0.44767 0.61721 0.0
H567 H 1.01264 0.45361 0.39235 0.0
H568 H 0.92097 0.41314 0.37791 0.0
H569 H 0.95247 0.43088 0.40689 0.0
C570 C 0.58286 0.6096 0.47935 0.0
C571 C 0.58533 0.6176 0.54727 0.0
C572 C 0.59203 0.60079 0.45959 0.0
C573 C 0.63089 0.59582 0.51325 0.0
H574 H 0.60949 0.55568 0.38341 0.0
C575 C 0.67178 0.56692 0.39157 0.0
C576 C 0.66378 0.5485 0.38007 0.0
C577 C 0.66172 0.57458 0.41276 0.0
C578 C 0.61559 0.56672 0.42048 0.0
H579 H 0.59992 0.62256 0.64693 0.0
H580 H 0.61484 0.60642 0.61456 0.0
H581 H 0.59288 0.57016 0.41933 0.0
H582 H 0.63874 0.52366 0.38336 0.0
H583 H 0.62109 0.53708 0.42086 0.0
H584 H 0.65327 0.59194 0.51688 0.0
C585 C 0.6062 0.60734 0.57538 0.0
C586 C 0.60616 0.57526 0.44027 0.0
C587 C 0.59729 0.61641 0.59462 0.0
C588 C 0.64533 0.53792 0.39074 0.0
C589 C 0.6352 0.54564 0.41213 0.0
C590 C 0.64019 0.58716 0.49425 0.0
C591 C 0.60381 0.59944 0.50742 0.0
C592 C 0.6137 0.59005 0.48667 0.0
C593 C 0.6433 0.5641 0.42371 0.0
C594 C 0.6328 0.5726 0.44691 0.0
H595 H 0.57362 0.60988 0.44142 0.0
H596 H 0.58995 0.59516 0.40637 0.0
H597 H 0.63741 0.60727 0.5481 0.0
H598 H 0.68595 0.57558 0.38484 0.0
H599 H 0.66846 0.58885 0.41986 0.0
C600 C 0.48629 0.12457 0.41379 0.0
C601 C 0.50475 0.13476 0.40298 0.0
C602 C 0.47828 0.10658 0.43126 0.0
C603 C 0.48535 0.06803 0.42251 0.0
H604 H 0.44511 0.04726 0.55215 0.0
C605 C 0.44119 0.99197 0.45507 0.0
C606 C 0.43403 0.98511 0.52304 0.0
C607 C 0.45018 1.01027 0.44222 0.0
C608 C 0.45645 0.05281 0.51649 0.0
H609 H 0.5293 0.13392 0.40384 0.0
H610 H 0.51529 0.10256 0.43538 0.0
H611 H 0.46061 0.07904 0.53005 0.0
H612 H 0.43083 0.99249 0.63077 0.0
H613 H 0.44712 0.02432 0.60929 0.0
H614 H 0.48153 0.04189 0.41056 0.0
C615 C 0.50699 0.10847 0.4291 0.0
C616 C 0.46521 0.07107 0.503 0.0
C617 C 0.51504 0.12652 0.41155 0.0
C618 C 0.43628 0.99717 0.57792 0.0
C619 C 0.44544 0.0155 0.56526 0.0
C620 C 0.47667 0.04978 0.43643 0.0
C621 C 0.48847 0.09825 0.43875 0.0
C622 C 0.47969 0.07891 0.45542 0.0
C623 C 0.45247 0.02232 0.49716 0.0
C624 C 0.46202 0.04187 0.48332 0.0
H625 H 0.4779 0.1304 0.40804 0.0
H626 H 0.46397 0.09913 0.43732 0.0
H627 H 0.49632 0.07356 0.38493 0.0
H628 H 0.44006 0.98322 0.41159 0.0
H629 H 0.45516 0.01493 0.38881 0.0
C630 C 0.13567 0.09952 0.9717 0.0
C631 C 0.14241 0.09882 0.0393 0.0
C632 C 0.12637 0.10864 0.96207 0.0
C633 C 0.11719 0.142 0.04923 0.0
H634 H 0.07845 0.12351 0.91297 0.0
C635 C 0.07933 0.17929 0.98306 0.0
C636 C 0.06082 0.16885 0.97452 0.0
C637 C 0.08986 0.17133 0.98786 0.0
C638 C 0.08912 0.12881 0.95174 0.0
H639 H 0.14463 0.10754 0.14972 0.0
H640 H 0.12762 0.12246 0.13386 0.0
H641 H 0.09498 0.10816 0.93035 0.0
H642 H 0.03897 0.14177 0.96332 0.0
H643 H 0.05716 0.12802 0.9726 0.0
H644 H 0.11066 0.16216 0.07307 0.0
C645 C 0.12991 0.11635 0.08763 0.0
C646 C 0.09884 0.12013 0.96096 0.0
C647 C 0.13943 0.10744 0.09705 0.0
C648 C 0.05318 0.1503 0.96948 0.0
C649 C 0.06367 0.14238 0.97443 0.0
C650 C 0.10732 0.15058 0.04057 0.0
C651 C 0.12327 0.11713 0.01995 0.0
C652 C 0.11302 0.12657 0.00986 0.0
C653 C 0.08214 0.15274 0.9842 0.0
C654 C 0.09312 0.14406 -0.00817 0.0
H655 H 0.13742 0.0929 0.92593 0.0
H656 H 0.12175 0.10913 0.90884 0.0
H657 H 0.12815 0.14757 0.08666 0.0
H658 H 0.08567 0.1936 0.98792 0.0
H659 H 0.10406 0.17976 -0.0054 0.0
C660 C 0.90068 0.92013 0.03781 0.0
C661 C 0.88365 0.90958 0.00833 0.0
C662 C 0.90838 0.93849 0.04173 0.0
C663 C 0.90666 0.97685 0.96765 0.0
H664 H 0.93347 0.99987 0.13911 0.0
C665 C 0.93698 0.0523 0.0183 0.0
C666 C 0.95356 0.06144 0.05284 0.0
C667 C 0.92801 0.0338 0.01184 0.0
C668 C 0.92625 0.99374 0.0904 0.0
H669 H 0.8615 0.91026 0.95852 0.0
H670 H 0.87502 0.94263 0.96603 0.0
H671 H 0.9182 0.96774 0.12972 0.0
H672 H 0.97382 0.05809 0.10631 0.0
H673 H 0.95826 0.0259 0.09469 0.0
H674 H 0.91486 1.00291 0.92814 0.0
C675 C 0.88239 0.93652 0.98574 0.0
C676 C 0.91743 0.97525 0.08509 0.0
C677 C 0.87461 0.91798 0.98173 0.0
C678 C 0.96096 0.05153 0.08037 0.0
C679 C 0.952 0.03302 0.07374 0.0
C680 C 0.91554 0.9954 0.97291 0.0
C681 C 0.89931 0.94694 0.0166 0.0
C682 C 0.90768 0.96657 0.02336 0.0
C683 C 0.93535 0.02388 0.03971 0.0
C684 C 0.9256 1.0041 0.03416 0.0
H685 H 0.90818 0.91425 0.05861 0.0
H686 H 0.92158 0.94608 0.06427 0.0
H687 H 0.89942 0.9706 0.9191 0.0
H688 H 0.9307 0.05941 -0.00249 0.0
H689 H 0.9151 0.02726 0.98633 0.0
C690 C 1.00208 0.91187 0.06205 0.0
C691 C 0.99114 0.90853 0.00181 0.0
C692 C 0.0206 0.92171 0.05593 0.0
C693 C 0.05665 0.95332 0.93496 0.0
H694 H 0.08593 0.94165 0.05337 0.0
C695 C 0.13224 0.99975 0.95822 0.0
C696 C 0.1432 0.99222 0.9647 0.0
C697 C 0.11378 0.98908 0.95967 0.0
C698 C 0.07796 0.94495 0.01921 0.0
H699 H 0.99141 0.91316 0.88759 0.0
H700 H 0.02358 0.92961 0.87643 0.0
H701 H 0.05373 0.92372 0.06128 0.0
H702 H 0.14317 0.96736 0.97657 0.0
H703 H 0.11094 0.94872 0.97742 0.0
H704 H 0.08086 0.97419 0.89126 0.0
C705 C 1.01783 0.92495 0.92891 0.0
C706 C 0.05945 0.93483 0.02455 0.0
C707 C 0.99931 0.91525 0.93515 0.0
C708 C 0.13518 0.97365 0.97093 0.0
C709 C 0.11667 0.96295 0.9723 0.0
C710 C 0.07513 0.96333 0.92918 0.0
C711 C 0.02875 0.92836 0.98925 0.0
C712 C 0.04852 0.93892 0.98276 0.0
C713 C 0.10574 0.97056 0.96736 0.0
C714 C 0.08604 0.95937 0.97156 0.0
H715 H 0.99638 0.90669 0.11413 0.0
H716 H 0.02849 0.92424 0.10385 0.0
H717 H 0.04876 0.95708 0.90257 0.0
H718 H 0.13788 0.01399 0.95357 0.0
H719 H 0.10583 0.99545 0.95679 0.0
C720 C 0.74652 0.51099 0.38343 0.0
C721 C 0.73115 0.504 0.34103 0.0
C722 C 0.7569 0.50283 0.38434 0.0
C723 C 0.76787 0.47385 0.28014 0.0
H724 H 0.77942 0.46138 0.46324 0.0
C725 C 0.79947 0.42922 0.29784 0.0
C726 C 0.81095 0.43178 0.35512 0.0
C727 C 0.79001 0.43833 0.29551 0.0
C728 C 0.77668 0.46504 0.41149 0.0
H729 H 0.71496 0.48345 0.26435 0.0
H730 H 0.73323 0.46947 0.26509 0.0
H731 H 0.76343 0.47767 0.45947 0.0
H732 H 0.82202 0.44648 0.45343 0.0
H733 H 0.80612 0.46272 0.4484 0.0
H734 H 0.78149 0.46181 0.23165 0.0
C735 C 0.73717 0.48111 0.29805 0.0
C736 C 0.76742 0.47432 0.40954 0.0
C737 C 0.72666 0.48906 0.29802 0.0
C738 C 0.813 0.44391 0.40926 0.0
C739 C 0.80376 0.4532 0.40645 0.0
C740 C 0.77744 0.46488 0.28199 0.0
C741 C 0.75226 0.48777 0.34178 0.0
C742 C 0.76283 0.47871 0.34386 0.0
C743 C 0.79201 0.45047 0.34984 0.0
C744 C 0.78192 0.46023 0.34771 0.0
H745 H 0.75028 0.52246 0.41721 0.0
H746 H 0.76856 0.50828 0.41818 0.0
H747 H 0.76458 0.47717 0.22873 0.0
H748 H 0.79751 0.4199 0.25551 0.0
H749 H 0.7809 0.43556 0.25156 0.0
C750 C 0.62101 0.38758 0.26951 0.0
C751 C 0.62108 0.39593 0.33417 0.0
C752 C 0.61192 0.36905 0.26389 0.0
C753 C 0.57755 0.32775 0.35501 0.0
H754 H 0.59748 0.30575 0.23458 0.0
C755 C 0.54081 0.2518 0.30385 0.0
C756 C 0.5513 0.24366 0.302 0.0
C757 C 0.54876 0.27033 0.30488 0.0
C758 C 0.59177 0.31162 0.26901 0.0
H759 H 0.61122 0.39098 0.44352 0.0
H760 H 0.5963 0.35886 0.43484 0.0
H761 H 0.61274 0.33781 0.2453 0.0
H762 H 0.57846 0.24882 0.29871 0.0
H763 H 0.59216 0.28081 0.30178 0.0
H764 H 0.55704 0.30141 0.38146 0.0
C765 C 0.60293 0.36661 0.38775 0.0
C766 C 0.60041 0.33011 0.27431 0.0
C767 C 0.61181 0.38515 0.3931 0.0
C768 C 0.56989 0.25452 0.29985 0.0
C769 C 0.5778 0.27298 0.30117 0.0
C770 C 0.569 0.30921 0.35037 0.0
C771 C 0.60282 0.35828 0.32302 0.0
C772 C 0.59345 0.33848 0.31732 0.0
C773 C 0.56738 0.28116 0.30411 0.0
C774 C 0.57604 0.3009 0.30741 0.0
H775 H 0.62811 0.39533 0.22308 0.0
H776 H 0.61195 0.3632 0.21274 0.0
H777 H 0.57159 0.33364 0.38795 0.0
H778 H 0.52646 0.24389 0.30604 0.0
H779 H 0.54029 0.27616 0.3063 0.0
C780 C 0.66799 0.23635 0.41543 0.0
C781 C 0.65725 0.24219 0.38293 0.0
C782 C 0.6864 0.24555 0.40534 0.0
C783 C 0.72222 0.2803 0.28954 0.0
H784 H 0.75265 0.28092 0.4423 0.0
C785 C 0.79792 0.32894 0.299 0.0
C786 C 0.80885 0.32204 0.31855 0.0
C787 C 0.77946 0.3184 0.30268 0.0
C788 C 0.7443 0.2807 0.39889 0.0
H789 H 0.6576 0.26243 0.31434 0.0
H790 H 0.68966 0.27878 0.29838 0.0
H791 H 0.72058 0.26484 0.45871 0.0
H792 H 0.80911 0.29869 0.35703 0.0
H793 H 0.77666 0.28021 0.36449 0.0
H794 H 0.74619 0.2969 0.23132 0.0
C795 C 0.68389 0.2668 0.33033 0.0
C796 C 0.72584 0.27141 0.40803 0.0
C797 C 0.66543 0.25745 0.33973 0.0
C798 C 0.80096 0.30425 0.34064 0.0
C799 C 0.78244 0.29376 0.34566 0.0
C800 C 0.74068 0.28985 0.28101 0.0
C801 C 0.6947 0.26101 0.36306 0.0
C802 C 0.71448 0.27101 0.3534 0.0
C803 C 0.77151 0.3008 0.32722 0.0
C804 C 0.75191 0.29012 0.33547 0.0
H805 H 0.66214 0.22445 0.44789 0.0
H806 H 0.69405 0.2403 0.4301 0.0
H807 H 0.71408 0.2801 0.24546 0.0
H808 H 0.80367 0.34264 0.28209 0.0
H809 H 0.7714 0.32423 0.28869 0.0
C810 C 0.47102 0.76739 0.60937 0.0
C811 C 0.47907 0.7673 0.67454 0.0
C812 C 0.46142 0.7763 0.60311 0.0
C813 C 0.45364 0.81026 0.69335 0.0
H814 H 0.41219 0.79012 0.57071 0.0
C815 C 0.41398 0.8464 0.63892 0.0
C816 C 0.39535 0.83576 0.63656 0.0
C817 C 0.42472 0.83863 0.64069 0.0
C818 C 0.42363 0.79588 0.60573 0.0
H819 H 0.48334 0.77694 0.78414 0.0
H820 H 0.4659 0.79159 0.77424 0.0
H821 H 0.42923 0.77514 0.58256 0.0
H822 H 0.37354 0.80851 0.63299 0.0
H823 H 0.3921 0.79511 0.63718 0.0
H824 H 0.44744 0.83057 0.71905 0.0
C825 C 0.46734 0.7851 0.72729 0.0
C826 C 0.43362 0.7874 0.61171 0.0
C827 C 0.47713 0.77637 0.73332 0.0
C828 C 0.38781 0.81719 0.63455 0.0
C829 C 0.39851 0.80946 0.63652 0.0
C830 C 0.44352 0.81866 0.68793 0.0
C831 C 0.45936 0.78523 0.66204 0.0
C832 C 0.44878 0.79444 0.65558 0.0
C833 C 0.4171 0.82003 0.64008 0.0
C834 C 0.42834 0.81154 0.64417 0.0
H835 H 0.47198 0.76044 0.563 0.0
H836 H 0.45574 0.77629 0.55159 0.0
H837 H 0.46534 0.81627 0.72695 0.0
H838 H 0.42029 0.86074 0.64102 0.0
H839 H 0.439 0.84721 0.64259 0.0
C840 C 0.23635 0.58801 0.67156 0.0
C841 C 0.21854 0.57745 0.64994 0.0
C842 C 0.24406 0.60637 0.678 0.0
C843 C 0.24057 0.64497 0.62137 0.0
H844 H 0.26988 0.66682 0.78862 0.0
C845 C 0.27169 0.72023 0.68156 0.0
C846 C 0.28849 0.72912 0.71447 0.0
C847 C 0.26263 0.70175 0.67306 0.0
C848 C 0.26199 0.66106 0.74096 0.0
H849 H 0.19502 0.5782 0.61686 0.0
H850 H 0.20869 0.61052 0.62746 0.0
H851 H 0.2549 0.6348 0.77411 0.0
H852 H 0.30907 0.7254 0.76252 0.0
H853 H 0.29351 0.69335 0.74671 0.0
H854 H 0.24796 0.67125 0.5873 0.0
C855 C 0.2166 0.60441 0.63932 0.0
C856 C 0.25331 0.64262 0.73286 0.0
C857 C 0.20877 0.58589 0.63335 0.0
C858 C 0.29605 0.71902 0.73798 0.0
C859 C 0.28705 0.70056 0.72904 0.0
C860 C 0.24941 0.66349 0.62913 0.0
C861 C 0.23427 0.61481 0.6628 0.0
C862 C 0.24263 0.63436 0.67268 0.0
C863 C 0.27014 0.69161 0.69687 0.0
C864 C 0.26038 0.67182 0.68883 0.0
H865 H 0.24435 0.58211 0.68543 0.0
H866 H 0.25777 0.61399 0.69512 0.0
H867 H 0.23255 0.63902 0.57413 0.0
H868 H 0.26531 0.7275 0.66372 0.0
H869 H 0.24955 0.69541 0.64913 0.0
C870 C 0.46752 0.64064 0.64646 0.0
C871 C 0.47625 0.65773 0.67683 0.0
C872 C 0.44898 0.63008 0.65097 0.0
C873 C 0.41063 0.62554 0.75598 0.0
H874 H 0.38272 0.59816 0.59339 0.0
C875 C 0.33443 0.59356 0.75471 0.0
C876 C 0.32429 0.57679 0.72249 0.0
C877 C 0.35293 0.60306 0.74773 0.0
C878 C 0.39029 0.60554 0.63969 0.0
H879 H 0.47229 0.67705 0.73591 0.0
H880 H 0.44036 0.65893 0.74252 0.0
H881 H 0.41504 0.61482 0.58457 0.0
H882 H 0.32592 0.55689 0.65788 0.0
H883 H 0.35809 0.57334 0.64612 0.0
H884 H 0.38607 0.61634 0.81138 0.0
C885 C 0.4477 0.65349 0.71612 0.0
C886 C 0.40885 0.61509 0.63456 0.0
C887 C 0.46608 0.66398 0.71164 0.0
C888 C 0.3332 0.56987 0.68257 0.0
C889 C 0.35172 0.57934 0.67577 0.0
C890 C 0.39213 0.61599 0.76119 0.0
C891 C 0.43888 0.63638 0.68626 0.0
C892 C 0.41922 0.62536 0.69243 0.0
C893 C 0.36187 0.59603 0.70859 0.0
C894 C 0.38166 0.60597 0.70297 0.0
H895 H 0.47496 0.63544 0.61927 0.0
H896 H 0.44259 0.6169 0.62777 0.0
H897 H 0.41821 0.63302 0.80214 0.0
H898 H 0.32806 0.59949 0.78482 0.0
H899 H 0.36021 0.61603 0.77256 0.0
C900 C 0.03642 0.1981 0.78964 0.0
C901 C 0.01904 0.18585 0.81084 0.0
C902 C 0.04064 0.20109 0.7171 0.0
C903 C 0.02723 0.17743 0.5502 0.0
H904 H 0.05175 0.2235 0.45769 0.0
C905 C 0.02716 0.18535 0.25131 0.0
C906 C 0.04183 0.19918 0.21556 0.0
C907 C 0.02701 0.1838 0.32455 0.0
C908 C 0.04535 0.2106 0.48327 0.0
H909 H 0.99229 0.16756 0.77487 0.0
H910 H 0.99969 0.17263 0.64784 0.0
H911 H 0.04549 0.22165 0.58596 0.0
H912 H 0.06828 0.2218 0.2288 0.0
H913 H 0.06807 0.219 0.36009 0.0
H914 H 0.027 0.16625 0.44835 0.0
C915 C 1.01002 0.17988 0.68701 0.0
C916 C 0.04162 0.20956 0.55621 0.0
C917 C 1.0058 0.17702 0.75929 0.0
C918 C 0.05672 0.21122 0.25512 0.0
C919 C 0.05659 0.20957 0.32976 0.0
C920 C 0.03119 0.17847 0.47774 0.0
C921 C 0.02753 0.19162 0.66555 0.0
C922 C 0.03226 0.19295 0.58963 0.0
C923 C 0.04156 0.19597 0.36484 0.0
C924 C 0.04 0.19506 0.44331 0.0
H925 H 0.04691 0.20459 0.82875 0.0
H926 H 0.05426 0.21009 0.7013 0.0
H927 H 0.02019 0.16449 0.57544 0.0
H928 H 1.01531 0.17574 0.22326 0.0
H929 H 1.01507 0.17342 0.34962 0.0
C930 C 0.87105 0.87652 0.78794 0.0
C931 C 0.85973 0.8593 0.81387 0.0
C932 C 0.86736 0.88184 0.72301 0.0
C933 C 0.84259 0.87565 0.56459 0.0
H934 H 0.87461 0.86256 0.47376 0.0
C935 C 0.84157 0.85896 0.26287 0.0
C936 C 0.85793 0.86339 0.23113 0.0
C937 C 0.84069 0.86209 0.33565 0.0
C938 C 0.86592 0.8667 0.49782 0.0
H939 H 0.83454 0.83504 0.79756 0.0
H940 H 0.82862 0.84414 0.68227 0.0
H941 H 0.87327 0.86333 0.6027 0.0
H942 H 0.88628 0.87562 0.24795 0.0
H943 H 0.88493 0.88176 0.37422 0.0
H944 H 0.83521 0.87894 0.45845 0.0
C945 C 0.84009 0.85355 0.71281 0.0
C946 C 0.86511 0.86704 0.57162 0.0
C947 C 0.84376 0.84821 0.77772 0.0
C948 C 0.87348 0.87174 0.27189 0.0
C949 C 0.87268 0.87525 0.34398 0.0
C950 C 0.84358 0.87556 0.48968 0.0
C951 C 0.85241 0.86997 0.68327 0.0
C952 C 0.85349 0.87146 0.6054 0.0
C953 C 0.85623 0.86998 0.37715 0.0
C954 C 0.8553 0.87105 0.45581 0.0
H955 H 0.88313 0.8856 0.81601 0.0
H956 H 0.87708 0.8945 0.70041 0.0
H957 H 0.83337 0.87886 0.59038 0.0
H958 H 0.82941 0.85253 0.23198 0.0
H959 H 0.82782 0.8577 0.35983 0.0
C960 C 0.19756 0.01679 0.78185 0.0
C961 C 0.20374 0.03415 0.8064 0.0
C962 C 0.19661 0.01337 0.70836 0.0
C963 C 0.19022 0.03146 0.54294 0.0
H964 H 0.20391 1.00056 0.44726 0.0
C965 C 0.1947 0.02788 0.23779 0.0
C966 C 0.19137 1.01179 0.20656 0.0
C967 C 0.19413 0.02938 0.31167 0.0
C968 C 0.19968 1.00893 0.47348 0.0
H969 H 0.21488 0.06168 0.77528 0.0
H970 H 0.21339 0.05576 0.64712 0.0
H971 H 0.20909 1.00595 0.57546 0.0
H972 H 0.18309 0.98423 0.22638 0.0
H973 H 0.18152 0.98664 0.35647 0.0
H974 H 0.18073 0.03444 0.44147 0.0
C975 C 0.20898 0.04477 0.68413 0.0
C976 C 0.20278 1.01211 0.54669 0.0
C977 C 0.2099 0.04815 0.75724 0.0
C978 C 0.1862 0.99686 0.24974 0.0
C979 C 0.18534 0.99829 0.32389 0.0
C980 C 0.18699 0.02819 0.46993 0.0
C981 C 0.20174 0.02729 0.659 0.0
C982 C 0.19828 0.02357 0.58181 0.0
C983 C 0.18993 0.01472 0.3557 0.0
C984 C 0.19184 0.01702 0.43426 0.0
H985 H 0.19243 1.00577 0.81898 0.0
H986 H 0.19094 0.99977 0.69019 0.0
H987 H 0.18631 0.0401 0.56917 0.0
H988 H 0.19858 0.03959 0.20542 0.0
H989 H 0.19784 0.04225 0.33423 0.0
C990 C 0.68565 0.54359 0.57788 0.0
C991 C 0.68619 0.52857 0.55369 0.0
C992 C 0.67915 0.54365 0.64578 0.0
C993 C 0.66298 0.51826 0.81376 0.0
H994 H 0.71019 0.55272 0.88025 0.0
C995 C 0.68758 0.51014 0.08442 0.0
C996 C 0.69591 0.52555 0.1264 0.0
C997 C 0.68489 0.51147 0.01182 0.0
C998 C 0.69682 0.54327 0.86315 0.0
H999 H 0.67763 0.50091 0.57539 0.0
H1000 H 0.66706 0.5013 0.69525 0.0
H1001 H 0.70186 0.55411 0.75831 0.0
H1002 H 0.7102 0.55447 0.12436 0.0
H1003 H 0.70485 0.55667 -0.00046 0.0
H1004 H 0.65816 0.5072 0.9189 0.0
C1005 C 0.67154 0.51297 0.66198 0.0
C1006 C 0.69195 0.5442 0.79353 0.0
C1007 C 0.67803 0.5129 0.59411 0.0
C1008 C 0.70315 0.54229 0.09373 0.0
C1009 C 0.70026 0.54359 0.02185 0.0
C1010 C 0.66775 0.51751 0.88413 0.0
C1011 C 0.67336 0.52877 0.69004 0.0
C1012 C 0.67531 0.53125 0.76748 0.0
C1013 C 0.69039 0.52818 0.98113 0.0
C1014 C 0.68496 0.5296 0.90835 0.0
H1015 H 0.69105 0.55558 0.54602 0.0
H1016 H 0.6804 0.55588 0.66647 0.0
H1017 H 0.65013 0.5081 0.79429 0.0
H1018 H 0.68241 0.49711 0.10805 0.0
H1019 H 0.6779 0.49942 0.98041 0.0
C1020 C 0.51051 0.19866 0.58525 0.0
C1021 C 0.52115 0.19467 0.5416 0.0
C1022 C 0.51269 0.19948 0.65945 0.0
C1023 C 0.54254 0.20089 0.80437 0.0
H1024 H 0.49863 0.17591 0.91263 0.0
C1025 C 0.5419 0.17879 0.09183 0.0
C1026 C 0.53332 0.18402 0.14168 0.0
C1027 C 0.5393 0.17969 0.01883 0.0
C1028 C 0.51097 0.18303 0.88306 0.0
H1029 H 0.54302 0.18932 0.54004 0.0
H1030 H 0.54642 0.19016 0.66888 0.0
H1031 H 0.49755 0.18035 0.78415 0.0
H1032 H 0.51503 0.19385 0.15537 0.0
H1033 H 0.51017 0.19513 0.02685 0.0
H1034 H 0.55591 0.20312 0.90306 0.0
C1035 C 0.53659 0.19295 0.64654 0.0
C1036 C 0.51039 0.1857 0.80972 0.0
C1037 C 0.53455 0.19234 0.57262 0.0
C1038 C 0.52145 0.18937 0.11778 0.0
C1039 C 0.51879 0.19022 0.04445 0.0
C1040 C 0.54311 0.19809 0.87749 0.0
C1041 C 0.5254 0.1961 0.6909 0.0
C1042 C 0.52616 0.19455 0.76953 0.0
C1043 C 0.52814 0.1859 -0.00553 0.0
C1044 C 0.52733 0.18901 0.91731 0.0
H1045 H 0.50037 0.20089 0.56221 0.0
H1046 H 0.5042 0.2024 0.69231 0.0
H1047 H 0.55494 0.20796 0.77513 0.0
H1048 H 0.55101 0.17447 0.10925 0.0
H1049 H 0.54638 0.17595 0.9813 0.0
C1050 C 0.86449 0.33622 0.59698 0.0
C1051 C 0.85483 0.34324 0.56447 0.0
C1052 C 0.86874 0.33936 0.66955 0.0
C1053 C 0.87652 0.37445 0.79704 0.0
H1054 H 0.8806 0.34417 0.93825 0.0
C1055 C 0.87244 0.37926 0.09779 0.0
C1056 C 0.88121 0.37286 0.14092 0.0
C1057 C 0.87517 0.38061 0.02404 0.0
C1058 C 0.87999 0.35293 0.89865 0.0
H1059 H 0.83972 0.35651 0.58224 0.0
H1060 H 0.84637 0.36124 0.70971 0.0
H1061 H 0.86943 0.33243 0.81932 0.0
H1062 H 0.90194 0.36586 0.14293 0.0
H1063 H 0.90637 0.36787 0.01368 0.0
H1064 H 0.88623 0.39466 0.8778 0.0
C1065 C 0.85142 0.35413 0.67901 0.0
C1066 C 0.87342 0.34613 0.83092 0.0
C1067 C 0.84742 0.35123 0.60655 0.0
C1068 C 0.8945 0.3702 0.11057 0.0
C1069 C 0.89717 0.37148 0.0368 0.0
C1070 C 0.88295 0.3812 0.86495 0.0
C1071 C 0.86318 0.34938 0.70977 0.0
C1072 C 0.87109 0.35666 0.78031 0.0
C1073 C 0.88663 0.37551 -0.00722 0.0
C1074 C 0.88425 0.37032 0.91687 0.0
H1075 H 0.87034 0.33004 0.56507 0.0
H1076 H 0.87763 0.33534 0.69228 0.0
H1077 H 0.87545 0.38306 0.75803 0.0
H1078 H 0.86247 0.38191 0.11999 0.0
H1079 H 0.86696 0.38388 -0.00886 0.0
C1080 C 0.3378 0.8428 0.42575 0.0
C1081 C 0.35191 0.85209 0.4736 0.0
C1082 C 0.34055 0.84543 0.3522 0.0
C1083 C 0.37015 0.87514 0.21315 0.0
H1084 H 0.35334 0.83174 0.1032 0.0
C1085 C 0.38852 0.87697 0.9168 0.0
C1086 C 0.37466 0.86583 0.87074 0.0
C1087 C 0.38635 0.87482 -0.00918 0.0
C1088 C 0.35796 0.84397 0.13297 0.0
H1089 H 0.37987 0.87151 0.48277 0.0
H1090 H 0.38464 0.87652 0.35365 0.0
H1091 H 0.34769 0.83009 0.2317 0.0
H1092 H 0.34792 0.8433 0.86507 0.0
H1093 H 0.34395 0.83973 -0.00557 0.0
H1094 H 0.38018 0.88904 0.11441 0.0
C1095 C 0.37143 0.86731 0.37323 0.0
C1096 C 0.35472 0.84302 0.20645 0.0
C1097 C 0.36869 0.86457 0.447 0.0
C1098 C 0.35883 0.85205 0.89959 0.0
C1099 C 0.35659 0.84998 0.97365 0.0
C1100 C 0.37329 0.87609 0.13951 0.0
C1101 C 0.35747 0.8574 0.32519 0.0
C1102 C 0.36076 0.85859 0.24717 0.0
C1103 C 0.3702 0.8616 0.0201 0.0
C1104 C 0.36725 0.86051 0.09861 0.0
H1105 H 0.3247 0.83317 0.44512 0.0
H1106 H 0.32951 0.83784 0.3163 0.0
H1107 H 0.37482 0.88733 0.24331 0.0
H1108 H 0.40096 0.88752 0.89568 0.0
H1109 H 0.39724 0.88369 0.02516 0.0
C1110 C 0.20124 0.525 0.90688 0.0
C1111 C 0.18782 0.52734 0.87646 0.0
C1112 C 0.20341 0.52563 0.98092 0.0
C1113 C 0.17751 0.51858 0.14528 0.0
H1114 H 0.22324 0.53672 0.23763 0.0
C1115 C 0.1889 0.52337 0.45328 0.0
C1116 C 0.20088 0.51821 0.47784 0.0
C1117 C 0.18622 0.52401 0.37982 0.0
C1118 C 0.21038 0.53148 0.21235 0.0
H1119 H 0.16705 0.53354 0.89819 0.0
H1120 H 0.17108 0.53507 0.02796 0.0
H1121 H 0.22198 0.54102 0.10932 0.0
H1122 H 0.21882 0.50891 0.44627 0.0
H1123 H 0.21418 0.51006 0.3181 0.0
H1124 H 0.16597 0.50913 0.2488 0.0
C1125 C 0.17952 0.53214 -0.00518 0.0
C1126 C 0.20965 0.53396 0.139 0.0
C1127 C 0.17724 0.53132 0.92072 0.0
C1128 C 0.20962 0.51307 0.4284 0.0
C1129 C 0.20701 0.51378 0.35525 0.0
C1130 C 0.17825 0.51622 0.21882 0.0
C1131 C 0.19228 0.52879 0.0258 0.0
C1132 C 0.1932 0.52739 0.10452 0.0
C1133 C 0.19566 0.5197 0.33025 0.0
C1134 C 0.19468 0.52246 0.25278 0.0
H1135 H 0.20962 0.52196 0.87372 0.0
H1136 H 0.21329 0.52288 0.003 0.0
H1137 H 0.16461 0.51308 0.12006 0.0
H1138 H 0.18236 0.52779 0.49047 0.0
H1139 H 0.17747 0.52872 0.36177 0.0
C1140 C 0.50437 0.68334 0.4452 0.0
C1141 C 0.52123 0.68614 0.46431 0.0
C1142 C 0.49699 0.67608 0.37862 0.0
C1143 C 0.49343 0.67586 0.21711 0.0
H1144 H 0.50697 0.64558 0.11492 0.0
C1145 C 0.52119 0.69147 0.93855 0.0
C1146 C 0.51832 0.67812 0.88915 0.0
C1147 C 0.51408 0.68708 0.00729 0.0
C1148 C 0.50264 0.6537 0.14266 0.0
H1149 H 0.54333 0.68308 0.4294 0.0
H1150 H 0.53086 0.67114 0.31235 0.0
H1151 H 0.50785 0.64642 0.24532 0.0
H1152 H 0.50524 0.64959 0.87275 0.0
H1153 H 0.4931 0.64195 -0.00591 0.0
H1154 H 0.489 0.68373 0.11438 0.0
C1155 C 0.52308 0.67409 0.34936 0.0
C1156 C 0.50333 0.65433 0.21736 0.0
C1157 C 0.5304 0.68123 0.41603 0.0
C1158 C 0.50792 0.66022 0.90988 0.0
C1159 C 0.50085 0.65581 0.97909 0.0
C1160 C 0.49269 0.67518 0.14253 0.0
C1161 C 0.50636 0.67156 0.32956 0.0
C1162 C 0.50002 0.66641 0.2549 0.0
C1163 C 0.50393 0.66923 0.02856 0.0
C1164 C 0.49858 0.66512 0.1046 0.0
H1165 H 0.49676 0.68659 0.48191 0.0
H1166 H 0.48403 0.67417 0.36526 0.0
H1167 H 0.49052 0.68512 0.24427 0.0
H1168 H 0.52905 0.70538 0.92446 0.0
H1169 H 0.51707 0.69775 0.04467 0.0
loop_
_geom_bond_atom_site_label_1
_geom_bond_atom_site_label_2
_geom_bond_distance
_geom_bond_site_symmetry_2
_ccdc_geom_bond_type
Eu0 C9 2.828 1_554 S
Eu0 O11 2.392 . S
Eu0 O13 2.418 . S
Eu0 O18 2.373 . S
Eu0 O21 2.488 . S
Eu0 O22 2.471 1_554 S
Eu0 O23 2.349 1_554 S
Eu1 O10 2.373 1_655 S
Eu1 O14 2.488 . S
Eu1 O15 2.471 1_556 S
Eu1 O16 2.349 1_656 S
Eu1 O19 2.393 . S
Eu1 O20 2.418 . S
Eu1 C30 2.828 1_556 S
C2 O20 1.244 1_455 S
C2 O23 1.265 . S
C3 C4 1.379 . S
C3 C7 1.373 1_556 S
C3 C9 1.505 . S
C4 C3 1.379 . S
C4 C6 1.369 . S
C4 H32 0.930 . S
C5 C7 1.383 . S
C5 C8 1.382 1_554 S
C5 H33 0.930 . S
C6 C4 1.369 . S
C6 C8 1.392 . S
C6 H34 0.930 . S
C7 C3 1.373 1_554 S
C7 C5 1.383 . S
C7 H35 0.931 . S
C8 C5 1.382 1_556 S
C8 C6 1.392 . S
C9 Eu0 2.828 1_556 S
C9 C3 1.505 . S
C9 O21 1.249 1_556 S
C9 O22 1.244 . S
O10 Eu1 2.373 1_455 S
O10 C12 1.258 . S
O11 Eu0 2.392 . S
O11 C12 1.242 1_554 S
C12 O10 1.258 . S
C12 O11 1.242 1_556 S
O13 Eu0 2.418 . S
O13 C17 1.244 . S
O14 Eu1 2.488 . S
O14 C30 1.249 1_556 S
O15 Eu1 2.471 1_554 S
O15 C30 1.244 . S
O16 Eu1 2.349 1_454 S
O16 C17 1.265 . S
C17 O13 1.244 . S
C17 O16 1.265 . S
O18 Eu0 2.373 . S
O18 C31 1.258 1_455 S
O19 Eu1 2.393 . S
O19 C31 1.238 1_556 S
O20 Eu1 2.418 . S
O20 C2 1.244 1_655 S
O21 Eu0 2.488 . S
O21 C9 1.249 1_554 S
O22 Eu0 2.471 1_556 S
O22 C9 1.244 . S
O23 Eu0 2.349 1_556 S
O23 C2 1.265 . S
C24 C25 1.379 . S
C24 C28 1.373 1_554 S
C24 C30 1.505 . S
C25 C24 1.379 . S
C25 C27 1.369 . S
C25 H36 0.930 . S
C26 C28 1.383 . S
C26 C29 1.382 1_556 S
C26 H37 0.930 . S
C27 C25 1.369 . S
C27 C29 1.392 . S
C27 H38 0.930 . S
C28 C24 1.373 1_556 S
C28 C26 1.383 . S
C28 H39 0.931 . S
C29 C26 1.382 1_554 S
C29 C27 1.392 . S
C30 Eu1 2.828 1_554 S
C30 O14 1.249 1_554 S
C30 O15 1.244 . S
C30 C24 1.505 . S
C31 O18 1.258 1_655 S
C31 O19 1.238 1_554 S
H32 C4 0.930 . S
H33 C5 0.930 . S
H34 C6 0.930 . S
H35 C7 0.931 . S
H36 C25 0.930 . S
H37 C26 0.930 . S
H38 C27 0.930 . S
H39 C28 0.931 . S
Eu40 C49 2.828 1_554 S
Eu40 O51 2.392 . S
Eu40 O53 2.418 . S
Eu40 O58 2.373 . S
Eu40 O61 2.488 . S
Eu40 O62 2.471 1_554 S
Eu40 O63 2.349 1_554 S
Eu41 O50 2.373 . S
Eu41 O54 2.488 . S
Eu41 O55 2.471 1_556 S
Eu41 O56 2.349 1_556 S
Eu41 O59 2.393 . S
Eu41 O60 2.418 . S
Eu41 C70 2.828 1_556 S
C42 O60 1.244 . S
C42 O63 1.265 . S
C43 C44 1.379 . S
C43 C47 1.373 1_556 S
C43 C49 1.505 . S
C44 C43 1.379 . S
C44 C46 1.369 . S
C44 H72 0.930 . S
C45 C47 1.383 . S
C45 C48 1.382 1_554 S
C45 H73 0.930 . S
C46 C44 1.369 . S
C46 C48 1.392 . S
C46 H74 0.930 . S
C47 C43 1.373 1_554 S
C47 C45 1.383 . S
C47 H75 0.931 . S
C48 C45 1.382 1_556 S
C48 C46 1.392 . S
C49 Eu40 2.828 1_556 S
C49 C43 1.505 . S
C49 O61 1.249 1_556 S
C49 O62 1.244 . S
O50 Eu41 2.373 . S
O50 C52 1.258 . S
O51 Eu40 2.392 . S
O51 C52 1.242 1_554 S
C52 O50 1.258 . S
C52 O51 1.242 1_556 S
O53 Eu40 2.418 . S
O53 C57 1.244 . S
O54 Eu41 2.488 . S
O54 C70 1.249 1_556 S
O55 Eu41 2.471 1_554 S
O55 C70 1.244 . S
O56 Eu41 2.349 1_554 S
O56 C57 1.265 . S
C57 O53 1.244 . S
C57 O56 1.265 . S
O58 Eu40 2.373 . S
O58 C71 1.258 . S
O59 Eu41 2.393 . S
O59 C71 1.238 1_556 S
O60 Eu41 2.418 . S
O60 C42 1.244 . S
O61 Eu40 2.488 . S
O61 C49 1.249 1_554 S
O62 Eu40 2.471 1_556 S
O62 C49 1.244 . S
O63 Eu40 2.349 1_556 S
O63 C42 1.265 . S
C64 C65 1.379 . S
C64 C68 1.373 1_554 S
C64 C70 1.505 . S
C65 C64 1.379 . S
C65 C67 1.369 . S
C65 H76 0.930 . S
C66 C68 1.383 . S
C66 C69 1.382 1_556 S
C66 H77 0.930 . S
C67 C65 1.369 . S
C67 C69 1.392 . S
C67 H78 0.930 . S
C68 C64 1.373 1_556 S
C68 C66 1.383 . S
C68 H79 0.931 . S
C69 C66 1.382 1_554 S
C69 C67 1.392 . S
C70 Eu41 2.828 1_554 S
C70 O54 1.249 1_554 S
C70 O55 1.244 . S
C70 C64 1.505 . S
C71 O58 1.258 . S
C71 O59 1.238 1_554 S
H72 C44 0.930 . S
H73 C45 0.930 . S
H74 C46 0.930 . S
H75 C47 0.931 . S
H76 C65 0.930 . S
H77 C66 0.930 . S
H78 C67 0.930 . S
H79 C68 0.931 . S
Eu80 C89 2.828 1_554 S
Eu80 O91 2.392 . S
Eu80 O93 2.418 . S
Eu80 O98 2.373 1_565 S
Eu80 O101 2.488 . S
Eu80 O102 2.471 1_554 S
Eu80 O103 2.349 1_564 S
Eu81 O90 2.373 . S
Eu81 O94 2.488 . S
Eu81 O95 2.471 1_556 S
Eu81 O96 2.349 1_556 S
Eu81 O99 2.393 . S
Eu81 O100 2.418 . S
Eu81 C110 2.828 1_556 S
C82 O100 1.244 . S
C82 O103 1.265 . S
C83 C84 1.379 . S
C83 C87 1.373 1_556 S
C83 C89 1.505 . S
C84 C83 1.379 . S
C84 C86 1.369 . S
C84 H112 0.930 . S
C85 C87 1.383 . S
C85 C88 1.382 1_554 S
C85 H113 0.930 . S
C86 C84 1.369 . S
C86 C88 1.392 . S
C86 H114 0.930 . S
C87 C83 1.373 1_554 S
C87 C85 1.383 . S
C87 H115 0.931 . S
C88 C85 1.382 1_556 S
C88 C86 1.392 . S
C89 Eu80 2.828 1_556 S
C89 C83 1.505 . S
C89 O101 1.249 1_556 S
C89 O102 1.244 . S
O90 Eu81 2.373 . S
O90 C92 1.258 1_545 S
O91 Eu80 2.392 . S
O91 C92 1.242 1_554 S
C92 O90 1.258 1_565 S
C92 O91 1.242 1_556 S
O93 Eu80 2.418 . S
O93 C97 1.244 1_565 S
O94 Eu81 2.488 . S
O94 C110 1.249 1_556 S
O95 Eu81 2.471 1_554 S
O95 C110 1.244 . S
O96 Eu81 2.349 1_554 S
O96 C97 1.265 . S
C97 O93 1.244 1_545 S
C97 O96 1.265 . S
O98 Eu80 2.373 1_545 S
O98 C111 1.258 . S
O99 Eu81 2.393 . S
O99 C111 1.238 1_556 S
O100 Eu81 2.418 . S
O100 C82 1.244 . S
O101 Eu80 2.488 . S
O101 C89 1.249 1_554 S
O102 Eu80 2.471 1_556 S
O102 C89 1.244 . S
O103 Eu80 2.349 1_546 S
O103 C82 1.265 . S
C104 C105 1.379 . S
C104 C108 1.373 1_554 S
C104 C110 1.505 . S
C105 C104 1.379 . S
C105 C107 1.369 . S
C105 H116 0.930 . S
C106 C108 1.383 . S
C106 C109 1.382 1_556 S
C106 H117 0.930 . S
C107 C105 1.369 . S
C107 C109 1.392 . S
C107 H118 0.930 . S
C108 C104 1.373 1_556 S
C108 C106 1.383 . S
C108 H119 0.931 . S
C109 C106 1.382 1_554 S
C109 C107 1.392 . S
C110 Eu81 2.828 1_554 S
C110 O94 1.249 1_554 S
C110 O95 1.244 . S
C110 C104 1.505 . S
C111 O98 1.258 . S
C111 O99 1.238 1_554 S
H112 C84 0.930 . S
H113 C85 0.930 . S
H114 C86 0.930 . S
H115 C87 0.931 . S
H116 C105 0.930 . S
H117 C106 0.930 . S
H118 C107 0.930 . S
H119 C108 0.931 . S
Eu120 C129 2.828 . S
Eu120 O131 2.392 . S
Eu120 O133 2.418 . S
Eu120 O138 2.373 . S
Eu120 O141 2.488 . S
Eu120 O142 2.471 . S
Eu120 O143 2.349 . S
Eu121 O130 2.373 . S
Eu121 O134 2.488 . S
Eu121 O135 2.471 . S
Eu121 O136 2.349 . S
Eu121 O139 2.392 . S
Eu121 O140 2.418 . S
Eu121 C150 2.828 . S
C122 O140 1.244 . S
C122 O143 1.265 . S
C123 C124 1.379 . S
C123 C127 1.373 . S
C123 C129 1.505 . S
C124 C123 1.379 . S
C124 C126 1.369 . S
C124 H152 0.930 . S
C125 C127 1.383 . S
C125 C128 1.382 . S
C125 H153 0.930 . S
C126 C124 1.369 . S
C126 C128 1.392 . S
C126 H154 0.930 . S
C127 C123 1.373 . S
C127 C125 1.383 . S
C127 H155 0.931 . S
C128 C125 1.382 . S
C128 C126 1.392 . S
C129 Eu120 2.828 . S
C129 C123 1.505 . S
C129 O141 1.249 . S
C129 O142 1.244 . S
O130 Eu121 2.373 . S
O130 C132 1.258 . S
O131 Eu120 2.392 . S
O131 C132 1.242 . S
C132 O130 1.258 . S
C132 O131 1.242 . S
O133 Eu120 2.418 . S
O133 C137 1.244 . S
O134 Eu121 2.488 . S
O134 C150 1.249 . S
O135 Eu121 2.471 . S
O135 C150 1.244 . S
O136 Eu121 2.349 . S
O136 C137 1.265 . S
C137 O133 1.244 . S
C137 O136 1.265 . S
O138 Eu120 2.373 . S
O138 C151 1.258 . S
O139 Eu121 2.392 . S
O139 C151 1.242 . S
O140 Eu121 2.418 . S
O140 C122 1.244 . S
O141 Eu120 2.488 . S
O141 C129 1.249 . S
O142 Eu120 2.471 . S
O142 C129 1.244 . S
O143 Eu120 2.349 . S
O143 C122 1.265 . S
C144 C145 1.379 . S
C144 C148 1.373 . S
C144 C150 1.505 . S
C145 C144 1.379 . S
C145 C147 1.369 . S
C145 H156 0.930 . S
C146 C148 1.383 . S
C146 C149 1.382 . S
C146 H157 0.930 . S
C147 C145 1.369 . S
C147 C149 1.392 . S
C147 H158 0.930 . S
C148 C144 1.373 . S
C148 C146 1.383 . S
C148 H159 0.931 . S
C149 C146 1.382 . S
C149 C147 1.392 . S
C150 Eu121 2.828 . S
C150 O134 1.249 . S
C150 O135 1.244 . S
C150 C144 1.505 . S
C151 O138 1.258 . S
C151 O139 1.242 . S
H152 C124 0.930 . S
H153 C125 0.930 . S
H154 C126 0.930 . S
H155 C127 0.931 . S
H156 C145 0.930 . S
H157 C146 0.930 . S
H158 C147 0.930 . S
H159 C148 0.931 . S
Eu160 C169 2.828 . S
Eu160 O171 2.392 . S
Eu160 O173 2.418 . S
Eu160 O178 2.373 . S
Eu160 O181 2.488 . S
Eu160 O182 2.471 . S
Eu160 O183 2.349 . S
Eu161 O170 2.373 . S
Eu161 O174 2.488 . S
Eu161 O175 2.471 . S
Eu161 O176 2.349 . S
Eu161 O179 2.392 . S
Eu161 O180 2.418 . S
Eu161 C190 2.828 . S
C162 O180 1.244 . S
C162 O183 1.265 . S
C163 C164 1.379 . S
C163 C167 1.373 . S
C163 C169 1.505 . S
C164 C163 1.379 . S
C164 C166 1.369 . S
C164 H192 0.930 . S
C165 C167 1.383 . S
C165 C168 1.382 . S
C165 H193 0.930 . S
C166 C164 1.369 . S
C166 C168 1.392 . S
C166 H194 0.930 . S
C167 C163 1.373 . S
C167 C165 1.383 . S
C167 H195 0.931 . S
C168 C165 1.382 . S
C168 C166 1.392 . S
C169 Eu160 2.828 . S
C169 C163 1.505 . S
C169 O181 1.249 . S
C169 O182 1.244 . S
O170 Eu161 2.373 . S
O170 C172 1.258 . S
O171 Eu160 2.392 . S
O171 C172 1.242 . S
C172 O170 1.258 . S
C172 O171 1.242 . S
O173 Eu160 2.418 . S
O173 C177 1.244 . S
O174 Eu161 2.488 . S
O174 C190 1.249 . S
O175 Eu161 2.471 . S
O175 C190 1.244 . S
O176 Eu161 2.349 . S
O176 C177 1.265 . S
C177 O173 1.244 . S
C177 O176 1.265 . S
O178 Eu160 2.373 . S
O178 C191 1.258 . S
O179 Eu161 2.392 . S
O179 C191 1.242 . S
O180 Eu161 2.418 . S
O180 C162 1.244 . S
O181 Eu160 2.488 . S
O181 C169 1.249 . S
O182 Eu160 2.471 . S
O182 C169 1.244 . S
O183 Eu160 2.349 . S
O183 C162 1.265 . S
C184 C185 1.379 . S
C184 C188 1.373 . S
C184 C190 1.505 . S
C185 C184 1.379 . S
C185 C187 1.369 . S
C185 H196 0.930 . S
C186 C188 1.383 . S
C186 C189 1.382 . S
C186 H197 0.930 . S
C187 C185 1.369 . S
C187 C189 1.392 . S
C187 H198 0.930 . S
C188 C184 1.373 . S
C188 C186 1.383 . S
C188 H199 0.931 . S
C189 C186 1.382 . S
C189 C187 1.392 . S
C190 Eu161 2.828 . S
C190 O174 1.249 . S
C190 O175 1.244 . S
C190 C184 1.505 . S
C191 O178 1.258 . S
C191 O179 1.242 . S
H192 C164 0.930 . S
H193 C165 0.930 . S
H194 C166 0.930 . S
H195 C167 0.931 . S
H196 C185 0.930 . S
H197 C186 0.930 . S
H198 C187 0.930 . S
H199 C188 0.931 . S
Eu200 C209 2.828 . S
Eu200 O211 2.392 . S
Eu200 O213 2.418 . S
Eu200 O218 2.373 . S
Eu200 O221 2.488 . S
Eu200 O222 2.471 . S
Eu200 O223 2.349 . S
Eu201 O210 2.373 . S
Eu201 O214 2.488 . S
Eu201 O215 2.471 . S
Eu201 O216 2.349 . S
Eu201 O219 2.392 . S
Eu201 O220 2.418 . S
Eu201 C230 2.828 . S
C202 O220 1.244 . S
C202 O223 1.265 . S
C203 C204 1.379 . S
C203 C207 1.373 . S
C203 C209 1.505 . S
C204 C203 1.379 . S
C204 C206 1.369 . S
C204 H232 0.930 . S
C205 C207 1.383 . S
C205 C208 1.382 . S
C205 H233 0.930 . S
C206 C204 1.369 . S
C206 C208 1.392 . S
C206 H234 0.930 . S
C207 C203 1.373 . S
C207 C205 1.383 . S
C207 H235 0.931 . S
C208 C205 1.382 . S
C208 C206 1.392 . S
C209 Eu200 2.828 . S
C209 C203 1.505 . S
C209 O221 1.249 . S
C209 O222 1.244 . S
O210 Eu201 2.373 . S
O210 C212 1.258 . S
O211 Eu200 2.392 . S
O211 C212 1.242 . S
C212 O210 1.258 . S
C212 O211 1.242 . S
O213 Eu200 2.418 . S
O213 C217 1.244 . S
O214 Eu201 2.488 . S
O214 C230 1.249 . S
O215 Eu201 2.471 . S
O215 C230 1.244 . S
O216 Eu201 2.349 . S
O216 C217 1.265 . S
C217 O213 1.244 . S
C217 O216 1.265 . S
O218 Eu200 2.373 . S
O218 C231 1.258 . S
O219 Eu201 2.392 . S
O219 C231 1.242 . S
O220 Eu201 2.418 . S
O220 C202 1.244 . S
O221 Eu200 2.488 . S
O221 C209 1.249 . S
O222 Eu200 2.471 . S
O222 C209 1.244 . S
O223 Eu200 2.349 . S
O223 C202 1.265 . S
C224 C225 1.379 . S
C224 C228 1.373 . S
C224 C230 1.505 . S
C225 C224 1.379 . S
C225 C227 1.369 . S
C225 H236 0.930 . S
C226 C228 1.383 . S
C226 C229 1.382 . S
C226 H237 0.930 . S
C227 C225 1.369 . S
C227 C229 1.392 . S
C227 H238 0.930 . S
C228 C224 1.373 . S
C228 C226 1.383 . S
C228 H239 0.931 . S
C229 C226 1.382 . S
C229 C227 1.392 . S
C230 Eu201 2.828 . S
C230 O214 1.249 . S
C230 O215 1.244 . S
C230 C224 1.505 . S
C231 O218 1.258 . S
C231 O219 1.242 . S
H232 C204 0.930 . S
H233 C205 0.930 . S
H234 C206 0.930 . S
H235 C207 0.931 . S
H236 C225 0.930 . S
H237 C226 0.930 . S
H238 C227 0.930 . S
H239 C228 0.931 . S
Eu240 C249 2.828 . S
Eu240 O251 2.392 . S
Eu240 O253 2.418 . S
Eu240 O258 2.373 . S
Eu240 O261 2.488 . S
Eu240 O262 2.471 . S
Eu240 O263 2.349 . S
Eu241 O250 2.373 . S
Eu241 O254 2.488 . S
Eu241 O255 2.471 . S
Eu241 O256 2.349 . S
Eu241 O259 2.392 . S
Eu241 O260 2.418 . S
Eu241 C270 2.828 . S
C242 O260 1.244 . S
C242 O263 1.265 . S
C243 C244 1.379 . S
C243 C247 1.373 . S
C243 C249 1.505 . S
C244 C243 1.379 . S
C244 C246 1.369 . S
C244 H272 0.930 . S
C245 C247 1.383 . S
C245 C248 1.382 . S
C245 H273 0.930 . S
C246 C244 1.369 . S
C246 C248 1.392 . S
C246 H274 0.930 . S
C247 C243 1.373 . S
C247 C245 1.383 . S
C247 H275 0.931 . S
C248 C245 1.382 . S
C248 C246 1.392 . S
C249 Eu240 2.828 . S
C249 C243 1.505 . S
C249 O261 1.249 . S
C249 O262 1.244 . S
O250 Eu241 2.373 . S
O250 C252 1.258 . S
O251 Eu240 2.392 . S
O251 C252 1.242 . S
C252 O250 1.258 . S
C252 O251 1.242 . S
O253 Eu240 2.418 . S
O253 C257 1.244 . S
O254 Eu241 2.488 . S
O254 C270 1.249 . S
O255 Eu241 2.471 . S
O255 C270 1.244 . S
O256 Eu241 2.349 . S
O256 C257 1.265 . S
C257 O253 1.244 . S
C257 O256 1.265 . S
O258 Eu240 2.373 . S
O258 C271 1.258 . S
O259 Eu241 2.392 . S
O259 C271 1.242 . S
O260 Eu241 2.418 . S
O260 C242 1.244 . S
O261 Eu240 2.488 . S
O261 C249 1.249 . S
O262 Eu240 2.471 . S
O262 C249 1.244 . S
O263 Eu240 2.349 . S
O263 C242 1.265 . S
C264 C265 1.379 . S
C264 C268 1.373 . S
C264 C270 1.505 . S
C265 C264 1.379 . S
C265 C267 1.369 . S
C265 H276 0.930 . S
C266 C268 1.383 . S
C266 C269 1.382 . S
C266 H277 0.930 . S
C267 C265 1.369 . S
C267 C269 1.392 . S
C267 H278 0.930 . S
C268 C264 1.373 . S
C268 C266 1.383 . S
C268 H279 0.931 . S
C269 C266 1.382 . S
C269 C267 1.392 . S
C270 Eu241 2.828 . S
C270 O254 1.249 . S
C270 O255 1.244 . S
C270 C264 1.505 . S
C271 O258 1.258 . S
C271 O259 1.242 . S
H272 C244 0.930 . S
H273 C245 0.930 . S
H274 C246 0.930 . S
H275 C247 0.931 . S
H276 C265 0.930 . S
H277 C266 0.930 . S
H278 C267 0.930 . S
H279 C268 0.931 . S
Eu280 C289 2.828 . S
Eu280 O291 2.392 . S
Eu280 O293 2.418 . S
Eu280 O298 2.373 . S
Eu280 O301 2.488 . S
Eu280 O302 2.471 . S
Eu280 O303 2.349 . S
Eu281 O290 2.373 . S
Eu281 O294 2.488 . S
Eu281 O295 2.471 . S
Eu281 O296 2.349 . S
Eu281 O299 2.392 . S
Eu281 O300 2.418 . S
Eu281 C310 2.828 . S
C282 O300 1.244 . S
C282 O303 1.265 . S
C283 C284 1.379 . S
C283 C287 1.373 . S
C283 C289 1.505 . S
C284 C283 1.379 . S
C284 C286 1.369 . S
C284 H312 0.930 . S
C285 C287 1.383 . S
C285 C288 1.382 . S
C285 H313 0.930 . S
C286 C284 1.369 . S
C286 C288 1.392 . S
C286 H314 0.930 . S
C287 C283 1.373 . S
C287 C285 1.383 . S
C287 H315 0.931 . S
C288 C285 1.382 . S
C288 C286 1.392 . S
C289 Eu280 2.828 . S
C289 C283 1.505 . S
C289 O301 1.249 . S
C289 O302 1.244 . S
O290 Eu281 2.373 . S
O290 C292 1.258 . S
O291 Eu280 2.392 . S
O291 C292 1.242 . S
C292 O290 1.258 . S
C292 O291 1.242 . S
O293 Eu280 2.418 . S
O293 C297 1.244 . S
O294 Eu281 2.488 . S
O294 C310 1.249 . S
O295 Eu281 2.471 . S
O295 C310 1.244 . S
O296 Eu281 2.349 . S
O296 C297 1.265 . S
C297 O293 1.244 . S
C297 O296 1.265 . S
O298 Eu280 2.373 . S
O298 C311 1.258 . S
O299 Eu281 2.392 . S
O299 C311 1.242 . S
O300 Eu281 2.418 . S
O300 C282 1.244 . S
O301 Eu280 2.488 . S
O301 C289 1.249 . S
O302 Eu280 2.471 . S
O302 C289 1.244 . S
O303 Eu280 2.349 . S
O303 C282 1.265 . S
C304 C305 1.379 . S
C304 C308 1.373 . S
C304 C310 1.505 . S
C305 C304 1.379 . S
C305 C307 1.369 . S
C305 H316 0.930 . S
C306 C308 1.383 . S
C306 C309 1.382 . S
C306 H317 0.930 . S
C307 C305 1.369 . S
C307 C309 1.392 . S
C307 H318 0.930 . S
C308 C304 1.373 . S
C308 C306 1.383 . S
C308 H319 0.931 . S
C309 C306 1.382 . S
C309 C307 1.392 . S
C310 Eu281 2.828 . S
C310 O294 1.249 . S
C310 O295 1.244 . S
C310 C304 1.505 . S
C311 O298 1.258 . S
C311 O299 1.242 . S
H312 C284 0.930 . S
H313 C285 0.930 . S
H314 C286 0.930 . S
H315 C287 0.931 . S
H316 C305 0.930 . S
H317 C306 0.930 . S
H318 C307 0.930 . S
H319 C308 0.931 . S
Eu320 C329 2.828 . S
Eu320 O331 2.392 . S
Eu320 O333 2.418 . S
Eu320 O338 2.373 . S
Eu320 O341 2.488 . S
Eu320 O342 2.471 . S
Eu320 O343 2.349 . S
Eu321 O330 2.373 . S
Eu321 O334 2.488 . S
Eu321 O335 2.471 . S
Eu321 O336 2.349 . S
Eu321 O339 2.392 . S
Eu321 O340 2.418 . S
Eu321 C350 2.828 . S
C322 O340 1.244 . S
C322 O343 1.265 . S
C323 C324 1.379 . S
C323 C327 1.373 . S
C323 C329 1.505 . S
C324 C323 1.379 . S
C324 C326 1.369 . S
C324 H352 0.930 . S
C325 C327 1.383 . S
C325 C328 1.382 . S
C325 H353 0.930 . S
C326 C324 1.369 . S
C326 C328 1.392 . S
C326 H354 0.930 . S
C327 C323 1.373 . S
C327 C325 1.383 . S
C327 H355 0.931 . S
C328 C325 1.382 . S
C328 C326 1.392 . S
C329 Eu320 2.828 . S
C329 C323 1.505 . S
C329 O341 1.249 . S
C329 O342 1.244 . S
O330 Eu321 2.373 . S
O330 C332 1.258 . S
O331 Eu320 2.392 . S
O331 C332 1.242 . S
C332 O330 1.258 . S
C332 O331 1.242 . S
O333 Eu320 2.418 . S
O333 C337 1.244 . S
O334 Eu321 2.488 . S
O334 C350 1.249 . S
O335 Eu321 2.471 . S
O335 C350 1.244 . S
O336 Eu321 2.349 . S
O336 C337 1.265 . S
C337 O333 1.244 . S
C337 O336 1.265 . S
O338 Eu320 2.373 . S
O338 C351 1.258 . S
O339 Eu321 2.392 . S
O339 C351 1.242 . S
O340 Eu321 2.418 . S
O340 C322 1.244 . S
O341 Eu320 2.488 . S
O341 C329 1.249 . S
O342 Eu320 2.471 . S
O342 C329 1.244 . S
O343 Eu320 2.349 . S
O343 C322 1.265 . S
C344 C345 1.379 . S
C344 C348 1.373 . S
C344 C350 1.505 . S
C345 C344 1.379 . S
C345 C347 1.369 . S
C345 H356 0.930 . S
C346 C348 1.383 . S
C346 C349 1.382 . S
C346 H357 0.930 . S
C347 C345 1.369 . S
C347 C349 1.392 . S
C347 H358 0.930 . S
C348 C344 1.373 . S
C348 C346 1.383 . S
C348 H359 0.931 . S
C349 C346 1.382 . S
C349 C347 1.392 . S
C350 Eu321 2.828 . S
C350 O334 1.249 . S
C350 O335 1.244 . S
C350 C344 1.505 . S
C351 O338 1.258 . S
C351 O339 1.242 . S
H352 C324 0.930 . S
H353 C325 0.930 . S
H354 C326 0.930 . S
H355 C327 0.931 . S
H356 C345 0.930 . S
H357 C346 0.930 . S
H358 C347 0.930 . S
H359 C348 0.931 . S
C360 C361 1.349 . S
C360 C362 1.327 . S
C360 H385 0.950 . S
C361 C360 1.349 . S
C361 C377 1.349 . S
C362 C360 1.327 . S
C362 C381 1.429 . S
C362 H386 0.950 . S
C363 C380 1.574 . S
C363 C382 1.368 . S
C363 H387 0.949 . S
H364 C368 0.949 . S
C365 C366 1.349 . S
C365 C367 1.327 . S
C365 H388 0.950 . S
C366 C365 1.349 . S
C366 C378 1.349 . S
C367 C365 1.327 . S
C367 C383 1.429 . S
C367 H389 0.950 . S
C368 H364 0.949 . S
C368 C376 1.574 . S
C368 C384 1.368 . S
H369 C377 0.950 . S
H370 C375 0.950 . S
H371 C376 0.949 . S
H372 C378 0.950 . S
H373 C379 0.950 . S
H374 C380 0.949 . S
C375 H370 0.950 . S
C375 C377 1.327 . S
C375 C381 1.429 . S
C376 C368 1.574 . S
C376 H371 0.949 . S
C376 C382 1.368 . S
C377 C361 1.349 . S
C377 H369 0.950 . S
C377 C375 1.327 . S
C378 C366 1.349 . S
C378 H372 0.950 . S
C378 C379 1.327 . S
C379 H373 0.950 . S
C379 C378 1.327 . S
C379 C383 1.429 . S
C380 C363 1.574 . S
C380 H374 0.949 . S
C380 C384 1.368 . S
C381 C362 1.429 . S
C381 C375 1.429 . S
C381 C382 1.523 . S
C382 C363 1.368 . S
C382 C376 1.368 . S
C382 C381 1.523 . S
C383 C367 1.429 . S
C383 C379 1.429 . S
C383 C384 1.523 . S
C384 C368 1.368 . S
C384 C380 1.368 . S
C384 C383 1.523 . S
H385 C360 0.950 . S
H386 C362 0.950 . S
H387 C363 0.949 . S
H388 C365 0.950 . S
H389 C367 0.950 . S
C390 C391 1.349 . S
C390 C392 1.327 . S
C390 H415 0.950 . S
C391 C390 1.349 . S
C391 C407 1.349 . S
C392 C390 1.327 . S
C392 C411 1.429 . S
C392 H416 0.950 . S
C393 C410 1.574 . S
C393 C412 1.368 . S
C393 H417 0.949 . S
H394 C398 0.949 . S
C395 C396 1.349 . S
C395 C397 1.327 . S
C395 H418 0.950 . S
C396 C395 1.349 . S
C396 C408 1.349 . S
C397 C395 1.327 . S
C397 C413 1.429 . S
C397 H419 0.950 . S
C398 H394 0.949 . S
C398 C406 1.574 . S
C398 C414 1.368 . S
H399 C407 0.950 1_554 S
H400 C405 0.950 . S
H401 C406 0.949 . S
H402 C408 0.950 . S
H403 C409 0.950 . S
H404 C410 0.949 . S
C405 H400 0.950 . S
C405 C407 1.327 . S
C405 C411 1.429 . S
C406 C398 1.574 . S
C406 H401 0.949 . S
C406 C412 1.368 . S
C407 C391 1.349 . S
C407 H399 0.950 1_556 S
C407 C405 1.327 . S
C408 C396 1.349 . S
C408 H402 0.950 . S
C408 C409 1.327 . S
C409 H403 0.950 . S
C409 C408 1.327 . S
C409 C413 1.429 . S
C410 C393 1.574 . S
C410 H404 0.949 . S
C410 C414 1.368 . S
C411 C392 1.429 . S
C411 C405 1.429 . S
C411 C412 1.523 . S
C412 C393 1.368 . S
C412 C406 1.368 . S
C412 C411 1.523 . S
C413 C397 1.429 . S
C413 C409 1.429 . S
C413 C414 1.523 . S
C414 C398 1.368 . S
C414 C410 1.368 . S
C414 C413 1.523 . S
H415 C390 0.950 . S
H416 C392 0.950 . S
H417 C393 0.949 . S
H418 C395 0.950 . S
H419 C397 0.950 . S
C420 C421 1.349 . S
C420 C422 1.327 . S
C420 H445 0.950 1_556 S
C421 C420 1.349 . S
C421 C437 1.349 . S
C422 C420 1.327 . S
C422 C441 1.429 . S
C422 H446 0.950 . S
C423 C440 1.574 . S
C423 C442 1.368 . S
C423 H447 0.949 . S
H424 C428 0.949 . S
C425 C426 1.349 . S
C425 C427 1.327 . S
C425 H448 0.950 . S
C426 C425 1.349 . S
C426 C438 1.349 . S
C427 C425 1.327 . S
C427 C443 1.429 . S
C427 H449 0.950 . S
C428 H424 0.949 . S
C428 C436 1.574 . S
C428 C444 1.368 . S
H429 C437 0.950 . S
H430 C435 0.950 . S
H431 C436 0.949 . S
H432 C438 0.950 . S
H433 C439 0.950 . S
H434 C440 0.949 . S
C435 H430 0.950 . S
C435 C437 1.327 . S
C435 C441 1.429 . S
C436 C428 1.574 . S
C436 H431 0.949 . S
C436 C442 1.368 . S
C437 C421 1.349 . S
C437 H429 0.950 . S
C437 C435 1.327 . S
C438 C426 1.349 . S
C438 H432 0.950 . S
C438 C439 1.327 . S
C439 H433 0.950 . S
C439 C438 1.327 . S
C439 C443 1.429 . S
C440 C423 1.574 . S
C440 H434 0.949 . S
C440 C444 1.368 . S
C441 C422 1.429 . S
C441 C435 1.429 . S
C441 C442 1.523 . S
C442 C423 1.368 . S
C442 C436 1.368 . S
C442 C441 1.523 . S
C443 C427 1.429 . S
C443 C439 1.429 . S
C443 C444 1.523 . S
C444 C428 1.368 . S
C444 C440 1.368 . S
C444 C443 1.523 . S
H445 C420 0.950 1_554 S
H446 C422 0.950 . S
H447 C423 0.949 . S
H448 C425 0.950 . S
H449 C427 0.950 . S
C450 C451 1.349 . S
C450 C452 1.327 . S
C450 H475 0.950 . S
C451 C450 1.349 . S
C451 C467 1.349 . S
C452 C450 1.327 . S
C452 C471 1.429 . S
C452 H476 0.950 . S
C453 C470 1.574 . S
C453 C472 1.368 . S
C453 H477 0.949 . S
H454 C458 0.949 . S
C455 C456 1.349 . S
C455 C457 1.327 . S
C455 H478 0.950 1_554 S
C456 C455 1.349 . S
C456 C468 1.349 . S
C457 C455 1.327 . S
C457 C473 1.429 . S
C457 H479 0.950 . S
C458 H454 0.949 . S
C458 C466 1.574 . S
C458 C474 1.368 . S
H459 C467 0.950 . S
H460 C465 0.950 . S
H461 C466 0.949 . S
H462 C468 0.950 . S
H463 C469 0.950 . S
H464 C470 0.949 . S
C465 H460 0.950 . S
C465 C467 1.327 . S
C465 C471 1.429 . S
C466 C458 1.574 . S
C466 H461 0.949 . S
C466 C472 1.368 . S
C467 C451 1.349 . S
C467 H459 0.950 . S
C467 C465 1.327 . S
C468 C456 1.349 . S
C468 H462 0.950 . S
C468 C469 1.327 . S
C469 H463 0.950 . S
C469 C468 1.327 . S
C469 C473 1.429 . S
C470 C453 1.574 . S
C470 H464 0.949 . S
C470 C474 1.368 . S
C471 C452 1.429 . S
C471 C465 1.429 . S
C471 C472 1.523 . S
C472 C453 1.368 . S
C472 C466 1.368 . S
C472 C471 1.523 . S
C473 C457 1.429 . S
C473 C469 1.429 . S
C473 C474 1.523 . S
C474 C458 1.368 . S
C474 C470 1.368 . S
C474 C473 1.523 . S
H475 C450 0.950 . S
H476 C452 0.950 . S
H477 C453 0.949 . S
H478 C455 0.950 1_556 S
H479 C457 0.950 . S
C480 C481 1.349 . S
C480 C482 1.327 . S
C480 H505 0.950 . S
C481 C480 1.349 . S
C481 C497 1.349 . S
C482 C480 1.327 . S
C482 C501 1.429 . S
C482 H506 0.950 . S
C483 C500 1.574 . S
C483 C502 1.368 . S
C483 H507 0.949 . S
H484 C488 0.949 . S
C485 C486 1.349 . S
C485 C487 1.327 . S
C485 H508 0.950 . S
C486 C485 1.349 . S
C486 C498 1.349 1_554 S
C487 C485 1.327 . S
C487 C503 1.429 . S
C487 H509 0.950 . S
C488 H484 0.949 . S
C488 C496 1.574 . S
C488 C504 1.368 . S
H489 C497 0.950 . S
H490 C495 0.950 . S
H491 C496 0.949 . S
H492 C498 0.950 . S
H493 C499 0.950 1_556 S
H494 C500 0.949 . S
C495 H490 0.950 . S
C495 C497 1.327 . S
C495 C501 1.429 . S
C496 C488 1.574 . S
C496 H491 0.949 . S
C496 C502 1.368 . S
C497 C481 1.349 . S
C497 H489 0.950 . S
C497 C495 1.327 . S
C498 C486 1.349 1_556 S
C498 H492 0.950 . S
C498 C499 1.327 1_556 S
C499 H493 0.950 1_554 S
C499 C498 1.327 1_554 S
C499 C503 1.429 . S
C500 C483 1.574 . S
C500 H494 0.949 . S
C500 C504 1.368 . S
C501 C482 1.429 . S
C501 C495 1.429 . S
C501 C502 1.523 . S
C502 C483 1.368 . S
C502 C496 1.368 . S
C502 C501 1.523 . S
C503 C487 1.429 . S
C503 C499 1.429 . S
C503 C504 1.523 . S
C504 C488 1.368 . S
C504 C500 1.368 . S
C504 C503 1.523 . S
H505 C480 0.950 . S
H506 C482 0.950 . S
H507 C483 0.949 . S
H508 C485 0.950 . S
H509 C487 0.950 . S
C510 C511 1.349 . S
C510 C512 1.327 . S
C510 H535 0.950 . S
C511 C510 1.349 . S
C511 C527 1.349 . S
C512 C510 1.327 . S
C512 C531 1.429 . S
C512 H536 0.950 . S
C513 C530 1.574 . S
C513 C532 1.368 . S
C513 H537 0.949 . S
H514 C518 0.949 . S
C515 C516 1.349 . S
C515 C517 1.327 . S
C515 H538 0.950 . S
C516 C515 1.349 . S
C516 C528 1.349 . S
C517 C515 1.327 . S
C517 C533 1.429 . S
C517 H539 0.950 . S
C518 H514 0.949 . S
C518 C526 1.574 . S
C518 C534 1.368 . S
H519 C527 0.950 . S
H520 C525 0.950 . S
H521 C526 0.949 . S
H522 C528 0.950 . S
H523 C529 0.950 . S
H524 C530 0.949 . S
C525 H520 0.950 . S
C525 C527 1.327 . S
C525 C531 1.429 . S
C526 C518 1.574 . S
C526 H521 0.949 . S
C526 C532 1.368 . S
C527 C511 1.349 . S
C527 H519 0.950 . S
C527 C525 1.327 . S
C528 C516 1.349 . S
C528 H522 0.950 . S
C528 C529 1.327 . S
C529 H523 0.950 . S
C529 C528 1.327 . S
C529 C533 1.429 . S
C530 C513 1.574 . S
C530 H524 0.949 . S
C530 C534 1.368 . S
C531 C512 1.429 . S
C531 C525 1.429 . S
C531 C532 1.523 . S
C532 C513 1.368 . S
C532 C526 1.368 . S
C532 C531 1.523 . S
C533 C517 1.429 . S
C533 C529 1.429 . S
C533 C534 1.523 . S
C534 C518 1.368 . S
C534 C530 1.368 . S
C534 C533 1.523 . S
H535 C510 0.950 . S
H536 C512 0.950 . S
H537 C513 0.949 . S
H538 C515 0.950 . S
H539 C517 0.950 . S
C540 C541 1.349 . S
C540 C542 1.327 . S
C540 H565 0.950 . S
C541 C540 1.349 . S
C541 C557 1.349 . S
C542 C540 1.327 . S
C542 C561 1.429 . S
C542 H566 0.950 . S
C543 C560 1.574 . S
C543 C562 1.368 . S
C543 H567 0.949 . S
H544 C548 0.949 . S
C545 C546 1.349 . S
C545 C547 1.327 . S
C545 H568 0.950 . S
C546 C545 1.349 . S
C546 C558 1.349 . S
C547 C545 1.327 . S
C547 C563 1.429 . S
C547 H569 0.950 . S
C548 H544 0.949 . S
C548 C556 1.574 . S
C548 C564 1.368 . S
H549 C557 0.950 . S
H550 C555 0.950 . S
H551 C556 0.949 . S
H552 C558 0.950 . S
H553 C559 0.950 . S
H554 C560 0.949 . S
C555 H550 0.950 . S
C555 C557 1.327 . S
C555 C561 1.429 . S
C556 C548 1.574 . S
C556 H551 0.949 . S
C556 C562 1.368 . S
C557 C541 1.349 . S
C557 H549 0.950 . S
C557 C555 1.327 . S
C558 C546 1.349 . S
C558 H552 0.950 . S
C558 C559 1.327 . S
C559 H553 0.950 . S
C559 C558 1.327 . S
C559 C563 1.429 . S
C560 C543 1.574 . S
C560 H554 0.949 . S
C560 C564 1.368 . S
C561 C542 1.429 . S
C561 C555 1.429 . S
C561 C562 1.523 1_455 S
C562 C543 1.368 . S
C562 C556 1.368 . S
C562 C561 1.523 1_655 S
C563 C547 1.429 . S
C563 C559 1.429 . S
C563 C564 1.523 . S
C564 C548 1.368 . S
C564 C560 1.368 . S
C564 C563 1.523 . S
H565 C540 0.950 . S
H566 C542 0.950 . S
H567 C543 0.949 . S
H568 C545 0.950 . S
H569 C547 0.950 . S
C570 C571 1.349 . S
C570 C572 1.327 . S
C570 H595 0.950 . S
C571 C570 1.349 . S
C571 C587 1.349 . S
C572 C570 1.327 . S
C572 C591 1.429 . S
C572 H596 0.950 . S
C573 C590 1.574 . S
C573 C592 1.368 . S
C573 H597 0.949 . S
H574 C578 0.949 . S
C575 C576 1.349 . S
C575 C577 1.327 . S
C575 H598 0.950 . S
C576 C575 1.349 . S
C576 C588 1.349 . S
C577 C575 1.327 . S
C577 C593 1.429 . S
C577 H599 0.950 . S
C578 H574 0.949 . S
C578 C586 1.574 . S
C578 C594 1.368 . S
H579 C587 0.950 . S
H580 C585 0.950 . S
H581 C586 0.949 . S
H582 C588 0.950 . S
H583 C589 0.950 . S
H584 C590 0.949 . S
C585 H580 0.950 . S
C585 C587 1.327 . S
C585 C591 1.429 . S
C586 C578 1.574 . S
C586 H581 0.949 . S
C586 C592 1.368 . S
C587 C571 1.349 . S
C587 H579 0.950 . S
C587 C585 1.327 . S
C588 C576 1.349 . S
C588 H582 0.950 . S
C588 C589 1.327 . S
C589 H583 0.950 . S
C589 C588 1.327 . S
C589 C593 1.429 . S
C590 C573 1.574 . S
C590 H584 0.949 . S
C590 C594 1.368 . S
C591 C572 1.429 . S
C591 C585 1.429 . S
C591 C592 1.523 . S
C592 C573 1.368 . S
C592 C586 1.368 . S
C592 C591 1.523 . S
C593 C577 1.429 . S
C593 C589 1.429 . S
C593 C594 1.523 . S
C594 C578 1.368 . S
C594 C590 1.368 . S
C594 C593 1.523 . S
H595 C570 0.950 . S
H596 C572 0.950 . S
H597 C573 0.949 . S
H598 C575 0.950 . S
H599 C577 0.950 . S
C600 C601 1.349 . S
C600 C602 1.327 . S
C600 H625 0.950 . S
C601 C600 1.349 . S
C601 C617 1.349 . S
C602 C600 1.327 . S
C602 C621 1.429 . S
C602 H626 0.950 . S
C603 C620 1.574 . S
C603 C622 1.368 . S
C603 H627 0.949 . S
H604 C608 0.949 . S
C605 C606 1.349 . S
C605 C607 1.327 1_565 S
C605 H628 0.950 . S
C606 C605 1.349 . S
C606 C618 1.349 . S
C607 C605 1.327 1_545 S
C607 C623 1.429 . S
C607 H629 0.950 . S
C608 H604 0.949 . S
C608 C616 1.574 . S
C608 C624 1.368 . S
H609 C617 0.950 . S
H610 C615 0.950 . S
H611 C616 0.949 . S
H612 C618 0.950 . S
H613 C619 0.950 . S
H614 C620 0.949 . S
C615 H610 0.950 . S
C615 C617 1.327 . S
C615 C621 1.429 . S
C616 C608 1.574 . S
C616 H611 0.949 . S
C616 C622 1.368 . S
C617 C601 1.349 . S
C617 H609 0.950 . S
C617 C615 1.327 . S
C618 C606 1.349 . S
C618 H612 0.950 . S
C618 C619 1.327 1_565 S
C619 H613 0.950 . S
C619 C618 1.327 1_545 S
C619 C623 1.429 . S
C620 C603 1.574 . S
C620 H614 0.949 . S
C620 C624 1.368 . S
C621 C602 1.429 . S
C621 C615 1.429 . S
C621 C622 1.523 . S
C622 C603 1.368 . S
C622 C616 1.368 . S
C622 C621 1.523 . S
C623 C607 1.429 . S
C623 C619 1.429 . S
C623 C624 1.523 . S
C624 C608 1.368 . S
C624 C620 1.368 . S
C624 C623 1.523 . S
H625 C600 0.950 . S
H626 C602 0.950 . S
H627 C603 0.949 . S
H628 C605 0.950 . S
H629 C607 0.950 . S
C630 C631 1.349 1_556 S
C630 C632 1.327 . S
C630 H655 0.950 . S
C631 C630 1.349 1_554 S
C631 C647 1.349 . S
C632 C630 1.327 . S
C632 C651 1.429 1_556 S
C632 H656 0.950 . S
C633 C650 1.574 . S
C633 C652 1.368 . S
C633 H657 0.949 . S
H634 C638 0.949 . S
C635 C636 1.335 1_554 S
C635 C637 1.327 . S
C635 H658 0.950 . S
C636 C635 1.335 1_556 S
C636 C648 1.361 . S
C637 C635 1.327 . S
C637 C653 1.429 . S
C637 H659 0.950 . S
C638 H634 0.949 . S
C638 C646 1.574 . S
C638 C654 1.368 1_556 S
H639 C647 0.950 . S
H640 C645 0.950 . S
H641 C646 0.949 . S
H642 C648 0.950 . S
H643 C649 0.950 . S
H644 C650 0.949 . S
C645 H640 0.950 . S
C645 C647 1.327 . S
C645 C651 1.429 . S
C646 C638 1.574 . S
C646 H641 0.949 . S
C646 C652 1.368 1_556 S
C647 C631 1.349 . S
C647 H639 0.950 . S
C647 C645 1.327 . S
C648 C636 1.361 . S
C648 H642 0.950 . S
C648 C649 1.327 . S
C649 H643 0.950 . S
C649 C648 1.327 . S
C649 C653 1.429 1_556 S
C650 C633 1.574 . S
C650 H644 0.949 . S
C650 C654 1.368 . S
C651 C632 1.429 1_554 S
C651 C645 1.429 . S
C651 C652 1.523 . S
C652 C633 1.368 . S
C652 C646 1.368 1_554 S
C652 C651 1.523 . S
C653 C637 1.429 . S
C653 C649 1.429 1_554 S
C653 C654 1.523 . S
C654 C638 1.368 1_554 S
C654 C650 1.368 . S
C654 C653 1.523 . S
H655 C630 0.950 . S
H656 C632 0.950 . S
H657 C633 0.949 . S
H658 C635 0.950 . S
H659 C637 0.950 . S
C660 C661 1.349 1_554 S
C660 C662 1.327 . S
C660 H685 0.950 . S
C661 C660 1.349 1_556 S
C661 C677 1.349 . S
C662 C660 1.327 . S
C662 C681 1.429 . S
C662 H686 0.950 . S
C663 C680 1.574 . S
C663 C682 1.368 1_556 S
C663 H687 0.949 . S
H664 C668 0.949 . S
C665 C666 1.349 . S
C665 C667 1.327 1_554 S
C665 H688 0.950 1_554 S
C666 C665 1.349 . S
C666 C678 1.349 . S
C667 C665 1.327 1_556 S
C667 C683 1.429 1_556 S
C667 H689 0.950 . S
C668 H664 0.949 . S
C668 C676 1.574 . S
C668 C684 1.368 . S
H669 C677 0.950 . S
H670 C675 0.950 . S
H671 C676 0.949 . S
H672 C678 0.950 . S
H673 C679 0.950 . S
H674 C680 0.949 . S
C675 H670 0.950 . S
C675 C677 1.327 . S
C675 C681 1.429 1_556 S
C676 C668 1.574 . S
C676 H671 0.949 . S
C676 C682 1.368 . S
C677 C661 1.349 . S
C677 H669 0.950 . S
C677 C675 1.327 . S
C678 C666 1.349 . S
C678 H672 0.950 . S
C678 C679 1.327 . S
C679 H673 0.950 . S
C679 C678 1.327 . S
C679 C683 1.429 . S
C680 C663 1.574 . S
C680 H674 0.949 . S
C680 C684 1.368 1_556 S
C681 C662 1.429 . S
C681 C675 1.429 1_554 S
C681 C682 1.523 . S
C682 C663 1.368 1_554 S
C682 C676 1.368 . S
C682 C681 1.523 . S
C683 C667 1.429 1_554 S
C683 C679 1.429 . S
C683 C684 1.523 1_545 S
C684 C668 1.368 . S
C684 C680 1.368 1_554 S
C684 C683 1.523 1_565 S
H685 C660 0.950 . S
H686 C662 0.950 . S
H687 C663 0.949 . S
H688 C665 0.950 1_556 S
H689 C667 0.950 . S
C690 C691 1.349 . S
C690 C692 1.327 1_655 S
C690 H715 0.950 . S
C691 C690 1.349 . S
C691 C707 1.338 1_554 S
C692 C690 1.327 1_455 S
C692 C711 1.429 . S
C692 H716 0.950 . S
C693 C710 1.574 . S
C693 C712 1.368 1_556 S
C693 H717 0.949 . S
H694 C698 0.949 . S
C695 C696 1.349 . S
C695 C697 1.327 . S
C695 H718 0.950 . S
C696 C695 1.349 . S
C696 C708 1.349 1_556 S
C697 C695 1.327 . S
C697 C713 1.429 1_556 S
C697 H719 0.950 . S
C698 H694 0.949 . S
C698 C706 1.574 . S
C698 C714 1.368 . S
H699 C707 0.959 . S
H700 C705 0.958 . S
H701 C706 0.949 . S
H702 C708 0.950 . S
H703 C709 0.950 . S
H704 C710 0.949 . S
C705 H700 0.958 . S
C705 C707 1.285 1_455 S
C705 C711 1.467 1_556 S
C706 C698 1.574 . S
C706 H701 0.949 . S
C706 C712 1.368 . S
C707 C691 1.338 1_556 S
C707 H699 0.959 . S
C707 C705 1.285 1_655 S
C708 C696 1.349 1_554 S
C708 H702 0.950 . S
C708 C709 1.327 . S
C709 H703 0.950 . S
C709 C708 1.327 . S
C709 C713 1.429 . S
C710 C693 1.574 . S
C710 H704 0.949 . S
C710 C714 1.368 1_556 S
C711 C692 1.429 . S
C711 C705 1.467 1_554 S
C711 C712 1.523 . S
C712 C693 1.368 1_554 S
C712 C706 1.368 . S
C712 C711 1.523 . S
C713 C697 1.429 1_554 S
C713 C709 1.429 . S
C713 C714 1.523 . S
C714 C698 1.368 . S
C714 C710 1.368 1_554 S
C714 C713 1.523 . S
H715 C690 0.950 . S
H716 C692 0.950 . S
H717 C693 0.949 . S
H718 C695 0.950 . S
H719 C697 0.950 . S
C720 C721 1.349 . S
C720 C722 1.327 . S
C720 H745 0.950 . S
C721 C720 1.349 . S
C721 C737 1.349 . S
C722 C720 1.327 . S
C722 C741 1.429 . S
C722 H746 0.950 . S
C723 C740 1.574 . S
C723 C742 1.368 . S
C723 H747 0.949 . S
H724 C728 0.949 . S
C725 C726 1.349 . S
C725 C727 1.327 . S
C725 H748 0.950 . S
C726 C725 1.349 . S
C726 C738 1.349 . S
C727 C725 1.327 . S
C727 C743 1.429 . S
C727 H749 0.950 . S
C728 H724 0.949 . S
C728 C736 1.574 . S
C728 C744 1.368 . S
H729 C737 0.950 . S
H730 C735 0.950 . S
H731 C736 0.949 . S
H732 C738 0.950 . S
H733 C739 0.950 . S
H734 C740 0.949 . S
C735 H730 0.950 . S
C735 C737 1.327 . S
C735 C741 1.429 . S
C736 C728 1.574 . S
C736 H731 0.949 . S
C736 C742 1.368 . S
C737 C721 1.349 . S
C737 H729 0.950 . S
C737 C735 1.327 . S
C738 C726 1.349 . S
C738 H732 0.950 . S
C738 C739 1.327 . S
C739 H733 0.950 . S
C739 C738 1.327 . S
C739 C743 1.429 . S
C740 C723 1.574 . S
C740 H734 0.949 . S
C740 C744 1.368 . S
C741 C722 1.429 . S
C741 C735 1.429 . S
C741 C742 1.523 . S
C742 C723 1.368 . S
C742 C736 1.368 . S
C742 C741 1.523 . S
C743 C727 1.429 . S
C743 C739 1.429 . S
C743 C744 1.523 . S
C744 C728 1.368 . S
C744 C740 1.368 . S
C744 C743 1.523 . S
H745 C720 0.950 . S
H746 C722 0.950 . S
H747 C723 0.949 . S
H748 C725 0.950 . S
H749 C727 0.950 . S
C750 C751 1.349 . S
C750 C752 1.327 . S
C750 H775 0.950 . S
C751 C750 1.349 . S
C751 C767 1.349 . S
C752 C750 1.327 . S
C752 C771 1.429 . S
C752 H776 0.950 . S
C753 C770 1.574 . S
C753 C772 1.368 . S
C753 H777 0.949 . S
H754 C758 0.949 . S
C755 C756 1.349 . S
C755 C757 1.327 . S
C755 H778 0.950 . S
C756 C755 1.349 . S
C756 C768 1.349 . S
C757 C755 1.327 . S
C757 C773 1.429 . S
C757 H779 0.950 . S
C758 H754 0.949 . S
C758 C766 1.574 . S
C758 C774 1.368 . S
H759 C767 0.950 . S
H760 C765 0.950 . S
H761 C766 0.949 . S
H762 C768 0.950 . S
H763 C769 0.950 . S
H764 C770 0.949 . S
C765 H760 0.950 . S
C765 C767 1.327 . S
C765 C771 1.429 . S
C766 C758 1.574 . S
C766 H761 0.949 . S
C766 C772 1.368 . S
C767 C751 1.349 . S
C767 H759 0.950 . S
C767 C765 1.327 . S
C768 C756 1.349 . S
C768 H762 0.950 . S
C768 C769 1.327 . S
C769 H763 0.950 . S
C769 C768 1.327 . S
C769 C773 1.429 . S
C770 C753 1.574 . S
C770 H764 0.949 . S
C770 C774 1.368 . S
C771 C752 1.429 . S
C771 C765 1.429 . S
C771 C772 1.523 . S
C772 C753 1.368 . S
C772 C766 1.368 . S
C772 C771 1.523 . S
C773 C757 1.429 . S
C773 C769 1.429 . S
C773 C774 1.523 . S
C774 C758 1.368 . S
C774 C770 1.368 . S
C774 C773 1.523 . S
H775 C750 0.950 . S
H776 C752 0.950 . S
H777 C753 0.949 . S
H778 C755 0.950 . S
H779 C757 0.950 . S
C780 C781 1.349 . S
C780 C782 1.327 . S
C780 H805 0.950 . S
C781 C780 1.349 . S
C781 C797 1.349 . S
C782 C780 1.327 . S
C782 C801 1.429 . S
C782 H806 0.950 . S
C783 C800 1.574 . S
C783 C802 1.368 . S
C783 H807 0.949 . S
H784 C788 0.949 . S
C785 C786 1.349 . S
C785 C787 1.327 . S
C785 H808 0.950 . S
C786 C785 1.349 . S
C786 C798 1.349 . S
C787 C785 1.327 . S
C787 C803 1.429 . S
C787 H809 0.950 . S
C788 H784 0.949 . S
C788 C796 1.574 . S
C788 C804 1.368 . S
H789 C797 0.950 . S
H790 C795 0.950 . S
H791 C796 0.949 . S
H792 C798 0.950 . S
H793 C799 0.950 . S
H794 C800 0.949 . S
C795 H790 0.950 . S
C795 C797 1.327 . S
C795 C801 1.429 . S
C796 C788 1.574 . S
C796 H791 0.949 . S
C796 C802 1.368 . S
C797 C781 1.349 . S
C797 H789 0.950 . S
C797 C795 1.327 . S
C798 C786 1.349 . S
C798 H792 0.950 . S
C798 C799 1.327 . S
C799 H793 0.950 . S
C799 C798 1.327 . S
C799 C803 1.429 . S
C800 C783 1.574 . S
C800 H794 0.949 . S
C800 C804 1.368 . S
C801 C782 1.429 . S
C801 C795 1.429 . S
C801 C802 1.523 . S
C802 C783 1.368 . S
C802 C796 1.368 . S
C802 C801 1.523 . S
C803 C787 1.429 . S
C803 C799 1.429 . S
C803 C804 1.523 . S
C804 C788 1.368 . S
C804 C800 1.368 . S
C804 C803 1.523 . S
H805 C780 0.950 . S
H806 C782 0.950 . S
H807 C783 0.949 . S
H808 C785 0.950 . S
H809 C787 0.950 . S
C810 C811 1.349 . S
C810 C812 1.327 . S
C810 H835 0.950 . S
C811 C810 1.349 . S
C811 C827 1.349 . S
C812 C810 1.327 . S
C812 C831 1.429 . S
C812 H836 0.950 . S
C813 C830 1.574 . S
C813 C832 1.368 . S
C813 H837 0.949 . S
H814 C818 0.949 . S
C815 C816 1.349 . S
C815 C817 1.327 . S
C815 H838 0.950 . S
C816 C815 1.349 . S
C816 C828 1.349 . S
C817 C815 1.327 . S
C817 C833 1.429 . S
C817 H839 0.950 . S
C818 H814 0.949 . S
C818 C826 1.574 . S
C818 C834 1.368 . S
H819 C827 0.950 . S
H820 C825 0.950 . S
H821 C826 0.949 . S
H822 C828 0.950 . S
H823 C829 0.950 . S
H824 C830 0.949 . S
C825 H820 0.950 . S
C825 C827 1.327 . S
C825 C831 1.429 . S
C826 C818 1.574 . S
C826 H821 0.949 . S
C826 C832 1.368 . S
C827 C811 1.349 . S
C827 H819 0.950 . S
C827 C825 1.327 . S
C828 C816 1.349 . S
C828 H822 0.950 . S
C828 C829 1.327 . S
C829 H823 0.950 . S
C829 C828 1.327 . S
C829 C833 1.429 . S
C830 C813 1.574 . S
C830 H824 0.949 . S
C830 C834 1.368 . S
C831 C812 1.429 . S
C831 C825 1.429 . S
C831 C832 1.523 . S
C832 C813 1.368 . S
C832 C826 1.368 . S
C832 C831 1.523 . S
C833 C817 1.429 . S
C833 C829 1.429 . S
C833 C834 1.523 . S
C834 C818 1.368 . S
C834 C830 1.368 . S
C834 C833 1.523 . S
H835 C810 0.950 . S
H836 C812 0.950 . S
H837 C813 0.949 . S
H838 C815 0.950 . S
H839 C817 0.950 . S
C840 C841 1.349 . S
C840 C842 1.327 . S
C840 H865 0.950 . S
C841 C840 1.349 . S
C841 C857 1.349 . S
C842 C840 1.327 . S
C842 C861 1.429 . S
C842 H866 0.950 . S
C843 C860 1.574 . S
C843 C862 1.368 . S
C843 H867 0.949 . S
H844 C848 0.949 . S
C845 C846 1.349 . S
C845 C847 1.327 . S
C845 H868 0.950 . S
C846 C845 1.349 . S
C846 C858 1.349 . S
C847 C845 1.327 . S
C847 C863 1.429 . S
C847 H869 0.950 . S
C848 H844 0.949 . S
C848 C856 1.574 . S
C848 C864 1.368 . S
H849 C857 0.950 . S
H850 C855 0.950 . S
H851 C856 0.949 . S
H852 C858 0.950 . S
H853 C859 0.950 . S
H854 C860 0.949 . S
C855 H850 0.950 . S
C855 C857 1.327 . S
C855 C861 1.429 . S
C856 C848 1.574 . S
C856 H851 0.949 . S
C856 C862 1.368 . S
C857 C841 1.349 . S
C857 H849 0.950 . S
C857 C855 1.327 . S
C858 C846 1.349 . S
C858 H852 0.950 . S
C858 C859 1.327 . S
C859 H853 0.950 . S
C859 C858 1.327 . S
C859 C863 1.429 . S
C860 C843 1.574 . S
C860 H854 0.949 . S
C860 C864 1.368 . S
C861 C842 1.429 . S
C861 C855 1.429 . S
C861 C862 1.523 . S
C862 C843 1.368 . S
C862 C856 1.368 . S
C862 C861 1.523 . S
C863 C847 1.429 . S
C863 C859 1.429 . S
C863 C864 1.523 . S
C864 C848 1.368 . S
C864 C860 1.368 . S
C864 C863 1.523 . S
H865 C840 0.950 . S
H866 C842 0.950 . S
H867 C843 0.949 . S
H868 C845 0.950 . S
H869 C847 0.950 . S
C870 C871 1.349 . S
C870 C872 1.327 . S
C870 H895 0.950 . S
C871 C870 1.349 . S
C871 C887 1.349 . S
C872 C870 1.327 . S
C872 C891 1.429 . S
C872 H896 0.950 . S
C873 C890 1.574 . S
C873 C892 1.368 . S
C873 H897 0.949 . S
H874 C878 0.949 . S
C875 C876 1.349 . S
C875 C877 1.327 . S
C875 H898 0.950 . S
C876 C875 1.349 . S
C876 C888 1.349 . S
C877 C875 1.327 . S
C877 C893 1.429 . S
C877 H899 0.950 . S
C878 H874 0.949 . S
C878 C886 1.574 . S
C878 C894 1.368 . S
H879 C887 0.950 . S
H880 C885 0.950 . S
H881 C886 0.949 . S
H882 C888 0.950 . S
H883 C889 0.950 . S
H884 C890 0.949 . S
C885 H880 0.950 . S
C885 C887 1.327 . S
C885 C891 1.429 . S
C886 C878 1.574 . S
C886 H881 0.949 . S
C886 C892 1.368 . S
C887 C871 1.349 . S
C887 H879 0.950 . S
C887 C885 1.327 . S
C888 C876 1.349 . S
C888 H882 0.950 . S
C888 C889 1.327 . S
C889 H883 0.950 . S
C889 C888 1.327 . S
C889 C893 1.429 . S
C890 C873 1.574 . S
C890 H884 0.949 . S
C890 C894 1.368 . S
C891 C872 1.429 . S
C891 C885 1.429 . S
C891 C892 1.523 . S
C892 C873 1.368 . S
C892 C886 1.368 . S
C892 C891 1.523 . S
C893 C877 1.429 . S
C893 C889 1.429 . S
C893 C894 1.523 . S
C894 C878 1.368 . S
C894 C890 1.368 . S
C894 C893 1.523 . S
H895 C870 0.950 . S
H896 C872 0.950 . S
H897 C873 0.949 . S
H898 C875 0.950 . S
H899 C877 0.950 . S
C900 C901 1.349 . S
C900 C902 1.327 . S
C900 H925 0.950 . S
C901 C900 1.349 . S
C901 C917 1.349 1_455 S
C902 C900 1.327 . S
C902 C921 1.429 . S
C902 H926 0.950 . S
C903 C920 1.574 . S
C903 C922 1.368 1_655 S
C903 H927 0.949 . S
H904 C908 0.949 . S
C905 C906 1.349 1_655 S
C905 C907 1.327 . S
C905 H928 0.950 . S
C906 C905 1.349 1_455 S
C906 C918 1.349 . S
C907 C905 1.327 . S
C907 C923 1.429 1_655 S
C907 H929 0.950 . S
C908 H904 0.949 . S
C908 C916 1.574 . S
C908 C924 1.368 . S
H909 C917 0.950 . S
H910 C915 0.950 . S
H911 C916 0.949 . S
H912 C918 0.950 . S
H913 C919 0.950 . S
H914 C920 0.949 . S
C915 H910 0.950 . S
C915 C917 1.327 . S
C915 C921 1.429 1_655 S
C916 C908 1.574 . S
C916 H911 0.949 . S
C916 C922 1.368 . S
C917 C901 1.349 1_655 S
C917 H909 0.950 . S
C917 C915 1.327 . S
C918 C906 1.349 . S
C918 H912 0.950 . S
C918 C919 1.327 . S
C919 H913 0.950 . S
C919 C918 1.327 . S
C919 C923 1.429 . S
C920 C903 1.574 . S
C920 H914 0.949 . S
C920 C924 1.368 1_655 S
C921 C902 1.429 . S
C921 C915 1.429 1_455 S
C921 C922 1.523 . S
C922 C903 1.368 1_455 S
C922 C916 1.368 . S
C922 C921 1.523 . S
C923 C907 1.429 1_455 S
C923 C919 1.429 . S
C923 C924 1.523 . S
C924 C908 1.368 . S
C924 C920 1.368 1_455 S
C924 C923 1.523 . S
H925 C900 0.950 . S
H926 C902 0.950 . S
H927 C903 0.949 . S
H928 C905 0.950 . S
H929 C907 0.950 . S
C930 C931 1.349 . S
C930 C932 1.327 . S
C930 H955 0.950 . S
C931 C930 1.349 . S
C931 C947 1.349 . S
C932 C930 1.327 . S
C932 C951 1.429 . S
C932 H956 0.950 . S
C933 C950 1.574 . S
C933 C952 1.368 . S
C933 H957 0.949 . S
H934 C938 0.949 . S
C935 C936 1.349 . S
C935 C937 1.327 . S
C935 H958 0.950 . S
C936 C935 1.349 . S
C936 C948 1.349 . S
C937 C935 1.327 . S
C937 C953 1.429 . S
C937 H959 0.950 . S
C938 H934 0.949 . S
C938 C946 1.574 . S
C938 C954 1.368 . S
H939 C947 0.950 . S
H940 C945 0.950 . S
H941 C946 0.949 . S
H942 C948 0.950 . S
H943 C949 0.950 . S
H944 C950 0.949 . S
C945 H940 0.950 . S
C945 C947 1.327 . S
C945 C951 1.429 . S
C946 C938 1.574 . S
C946 H941 0.949 . S
C946 C952 1.368 . S
C947 C931 1.349 . S
C947 H939 0.950 . S
C947 C945 1.327 . S
C948 C936 1.349 . S
C948 H942 0.950 . S
C948 C949 1.327 . S
C949 H943 0.950 . S
C949 C948 1.327 . S
C949 C953 1.429 . S
C950 C933 1.574 . S
C950 H944 0.949 . S
C950 C954 1.368 . S
C951 C932 1.429 . S
C951 C945 1.429 . S
C951 C952 1.523 . S
C952 C933 1.368 . S
C952 C946 1.368 . S
C952 C951 1.523 . S
C953 C937 1.429 . S
C953 C949 1.429 . S
C953 C954 1.523 . S
C954 C938 1.368 . S
C954 C950 1.368 . S
C954 C953 1.523 . S
H955 C930 0.950 . S
H956 C932 0.950 . S
H957 C933 0.949 . S
H958 C935 0.950 . S
H959 C937 0.950 . S
C960 C961 1.348 1_565 S
C960 C962 1.328 . S
C960 H985 0.951 . S
C961 C960 1.348 1_545 S
C961 C977 1.349 . S
C962 C960 1.328 . S
C962 C981 1.412 1_565 S
C962 H986 0.968 . S
C963 C980 1.574 . S
C963 C982 1.368 . S
C963 H987 0.949 . S
H964 C968 0.949 . S
C965 C966 1.349 . S
C965 C967 1.327 . S
C965 H988 0.950 . S
C966 C965 1.349 . S
C966 C978 1.349 1_545 S
C967 C965 1.327 . S
C967 C983 1.429 . S
C967 H989 0.950 . S
C968 H964 0.949 . S
C968 C976 1.574 . S
C968 C984 1.368 1_565 S
H969 C977 0.950 . S
H970 C975 0.950 . S
H971 C976 0.949 . S
H972 C978 0.950 . S
H973 C979 0.950 . S
H974 C980 0.949 . S
C975 H970 0.950 . S
C975 C977 1.327 . S
C975 C981 1.429 . S
C976 C968 1.574 . S
C976 H971 0.949 . S
C976 C982 1.368 1_565 S
C977 C961 1.349 . S
C977 H969 0.950 . S
C977 C975 1.327 . S
C978 C966 1.349 1_565 S
C978 H972 0.950 . S
C978 C979 1.327 . S
C979 H973 0.950 . S
C979 C978 1.327 . S
C979 C983 1.429 1_565 S
C980 C963 1.574 . S
C980 H974 0.949 . S
C980 C984 1.368 . S
C981 C962 1.412 1_545 S
C981 C975 1.429 . S
C981 C982 1.523 . S
C982 C963 1.368 . S
C982 C976 1.368 1_545 S
C982 C981 1.523 . S
C983 C967 1.429 . S
C983 C979 1.429 1_545 S
C983 C984 1.523 . S
C984 C968 1.368 1_545 S
C984 C980 1.368 . S
C984 C983 1.523 . S
H985 C960 0.951 . S
H986 C962 0.968 . S
H987 C963 0.949 . S
H988 C965 0.950 . S
H989 C967 0.950 . S
C990 C991 1.349 . S
C990 C992 1.327 . S
C990 H1015 0.950 . S
C991 C990 1.349 . S
C991 C1007 1.349 . S
C992 C990 1.327 . S
C992 C1011 1.429 . S
C992 H1016 0.950 . S
C993 C1010 1.574 . S
C993 C1012 1.368 . S
C993 H1017 0.949 . S
H994 C998 0.949 . S
C995 C996 1.349 . S
C995 C997 1.327 . S
C995 H1018 0.950 . S
C996 C995 1.349 . S
C996 C1008 1.349 . S
C997 C995 1.327 . S
C997 C1013 1.429 1_554 S
C997 H1019 0.950 . S
C998 H994 0.949 . S
C998 C1006 1.574 . S
C998 C1014 1.368 . S
H999 C1007 0.950 . S
H1000 C1005 0.950 . S
H1001 C1006 0.949 . S
H1002 C1008 0.950 . S
H1003 C1009 0.950 . S
H1004 C1010 0.949 . S
C1005 H1000 0.950 . S
C1005 C1007 1.327 . S
C1005 C1011 1.429 . S
C1006 C998 1.574 . S
C1006 H1001 0.949 . S
C1006 C1012 1.368 . S
C1007 C991 1.349 . S
C1007 H999 0.950 . S
C1007 C1005 1.327 . S
C1008 C996 1.349 . S
C1008 H1002 0.950 . S
C1008 C1009 1.327 . S
C1009 H1003 0.950 . S
C1009 C1008 1.327 . S
C1009 C1013 1.429 1_554 S
C1010 C993 1.574 . S
C1010 H1004 0.949 . S
C1010 C1014 1.368 . S
C1011 C992 1.429 . S
C1011 C1005 1.429 . S
C1011 C1012 1.523 . S
C1012 C993 1.368 . S
C1012 C1006 1.368 . S
C1012 C1011 1.523 . S
C1013 C997 1.429 1_556 S
C1013 C1009 1.429 1_556 S
C1013 C1014 1.523 . S
C1014 C998 1.368 . S
C1014 C1010 1.368 . S
C1014 C1013 1.523 . S
H1015 C990 0.950 . S
H1016 C992 0.950 . S
H1017 C993 0.949 . S
H1018 C995 0.950 . S
H1019 C997 0.950 . S
C1020 C1021 1.349 . S
C1020 C1022 1.327 . S
C1020 H1045 0.950 . S
C1021 C1020 1.349 . S
C1021 C1037 1.349 . S
C1022 C1020 1.327 . S
C1022 C1041 1.429 . S
C1022 H1046 0.950 . S
C1023 C1040 1.574 . S
C1023 C1042 1.368 . S
C1023 H1047 0.949 . S
H1024 C1028 0.949 . S
C1025 C1026 1.349 . S
C1025 C1027 1.327 . S
C1025 H1048 0.950 . S
C1026 C1025 1.349 . S
C1026 C1038 1.349 . S
C1027 C1025 1.327 . S
C1027 C1043 1.429 1_554 S
C1027 H1049 0.950 . S
C1028 H1024 0.949 . S
C1028 C1036 1.574 . S
C1028 C1044 1.368 . S
H1029 C1037 0.950 . S
H1030 C1035 0.950 . S
H1031 C1036 0.949 . S
H1032 C1038 0.950 . S
H1033 C1039 0.950 . S
H1034 C1040 0.949 . S
C1035 H1030 0.950 . S
C1035 C1037 1.327 . S
C1035 C1041 1.429 . S
C1036 C1028 1.574 . S
C1036 H1031 0.949 . S
C1036 C1042 1.368 . S
C1037 C1021 1.349 . S
C1037 H1029 0.950 . S
C1037 C1035 1.327 . S
C1038 C1026 1.349 . S
C1038 H1032 0.950 . S
C1038 C1039 1.327 . S
C1039 H1033 0.950 . S
C1039 C1038 1.327 . S
C1039 C1043 1.429 1_554 S
C1040 C1023 1.574 . S
C1040 H1034 0.949 . S
C1040 C1044 1.368 . S
C1041 C1022 1.429 . S
C1041 C1035 1.429 . S
C1041 C1042 1.523 . S
C1042 C1023 1.368 . S
C1042 C1036 1.368 . S
C1042 C1041 1.523 . S
C1043 C1027 1.429 1_556 S
C1043 C1039 1.429 1_556 S
C1043 C1044 1.523 . S
C1044 C1028 1.368 . S
C1044 C1040 1.368 . S
C1044 C1043 1.523 . S
H1045 C1020 0.950 . S
H1046 C1022 0.950 . S
H1047 C1023 0.949 . S
H1048 C1025 0.950 . S
H1049 C1027 0.950 . S
C1050 C1051 1.349 . S
C1050 C1052 1.327 . S
C1050 H1075 0.950 . S
C1051 C1050 1.349 . S
C1051 C1067 1.349 . S
C1052 C1050 1.327 . S
C1052 C1071 1.429 . S
C1052 H1076 0.950 . S
C1053 C1070 1.574 . S
C1053 C1072 1.368 . S
C1053 H1077 0.949 . S
H1054 C1058 0.949 . S
C1055 C1056 1.349 . S
C1055 C1057 1.327 . S
C1055 H1078 0.950 . S
C1056 C1055 1.349 . S
C1056 C1068 1.349 . S
C1057 C1055 1.327 . S
C1057 C1073 1.429 1_554 S
C1057 H1079 0.950 . S
C1058 H1054 0.949 . S
C1058 C1066 1.574 . S
C1058 C1074 1.368 . S
H1059 C1067 0.950 . S
H1060 C1065 0.950 . S
H1061 C1066 0.949 . S
H1062 C1068 0.950 . S
H1063 C1069 0.950 . S
H1064 C1070 0.949 . S
C1065 H1060 0.950 . S
C1065 C1067 1.327 . S
C1065 C1071 1.429 . S
C1066 C1058 1.574 . S
C1066 H1061 0.949 . S
C1066 C1072 1.368 . S
C1067 C1051 1.349 . S
C1067 H1059 0.950 . S
C1067 C1065 1.327 . S
C1068 C1056 1.349 . S
C1068 H1062 0.950 . S
C1068 C1069 1.327 . S
C1069 H1063 0.950 . S
C1069 C1068 1.327 . S
C1069 C1073 1.429 1_554 S
C1070 C1053 1.574 . S
C1070 H1064 0.949 . S
C1070 C1074 1.368 . S
C1071 C1052 1.429 . S
C1071 C1065 1.429 . S
C1071 C1072 1.523 . S
C1072 C1053 1.368 . S
C1072 C1066 1.368 . S
C1072 C1071 1.523 . S
C1073 C1057 1.429 1_556 S
C1073 C1069 1.429 1_556 S
C1073 C1074 1.523 . S
C1074 C1058 1.368 . S
C1074 C1070 1.368 . S
C1074 C1073 1.523 . S
H1075 C1050 0.950 . S
H1076 C1052 0.950 . S
H1077 C1053 0.949 . S
H1078 C1055 0.950 . S
H1079 C1057 0.950 . S
C1080 C1081 1.349 . S
C1080 C1082 1.327 . S
C1080 H1105 0.950 . S
C1081 C1080 1.349 . S
C1081 C1097 1.349 . S
C1082 C1080 1.327 . S
C1082 C1101 1.429 . S
C1082 H1106 0.950 . S
C1083 C1100 1.574 . S
C1083 C1102 1.368 . S
C1083 H1107 0.949 . S
H1084 C1088 0.949 . S
C1085 C1086 1.349 . S
C1085 C1087 1.327 . S
C1085 H1108 0.950 . S
C1086 C1085 1.349 . S
C1086 C1098 1.349 . S
C1087 C1085 1.327 . S
C1087 C1103 1.429 1_556 S
C1087 H1109 0.953 . S
C1088 H1084 0.949 . S
C1088 C1096 1.574 . S
C1088 C1104 1.368 . S
H1089 C1097 0.950 . S
H1090 C1095 0.950 . S
H1091 C1096 0.949 . S
H1092 C1098 0.950 . S
H1093 C1099 0.953 . S
H1094 C1100 0.949 . S
C1095 H1090 0.950 . S
C1095 C1097 1.327 . S
C1095 C1101 1.429 . S
C1096 C1088 1.574 . S
C1096 H1091 0.949 . S
C1096 C1102 1.368 . S
C1097 C1081 1.349 . S
C1097 H1089 0.950 . S
C1097 C1095 1.327 . S
C1098 C1086 1.349 . S
C1098 H1092 0.950 . S
C1098 C1099 1.327 . S
C1099 H1093 0.953 . S
C1099 C1098 1.327 . S
C1099 C1103 1.429 1_556 S
C1100 C1083 1.574 . S
C1100 H1094 0.949 . S
C1100 C1104 1.368 . S
C1101 C1082 1.429 . S
C1101 C1095 1.429 . S
C1101 C1102 1.523 . S
C1102 C1083 1.368 . S
C1102 C1096 1.368 . S
C1102 C1101 1.523 . S
C1103 C1087 1.429 1_554 S
C1103 C1099 1.429 1_554 S
C1103 C1104 1.523 . S
C1104 C1088 1.368 . S
C1104 C1100 1.368 . S
C1104 C1103 1.523 . S
H1105 C1080 0.950 . S
H1106 C1082 0.950 . S
H1107 C1083 0.949 . S
H1108 C1085 0.950 . S
H1109 C1087 0.953 . S
C1110 C1111 1.349 . S
C1110 C1112 1.327 . S
C1110 H1135 0.950 . S
C1111 C1110 1.349 . S
C1111 C1127 1.349 . S
C1112 C1110 1.327 . S
C1112 C1131 1.429 1_556 S
C1112 H1136 0.950 . S
C1113 C1130 1.574 . S
C1113 C1132 1.368 . S
C1113 H1137 0.949 . S
H1114 C1118 0.949 . S
C1115 C1116 1.349 . S
C1115 C1117 1.327 . S
C1115 H1138 0.950 . S
C1116 C1115 1.349 . S
C1116 C1128 1.349 . S
C1117 C1115 1.327 . S
C1117 C1133 1.429 . S
C1117 H1139 0.950 . S
C1118 H1114 0.949 . S
C1118 C1126 1.574 . S
C1118 C1134 1.368 . S
H1119 C1127 0.950 . S
H1120 C1125 0.950 1_554 S
H1121 C1126 0.949 . S
H1122 C1128 0.950 . S
H1123 C1129 0.950 . S
H1124 C1130 0.949 . S
C1125 H1120 0.950 1_556 S
C1125 C1127 1.327 . S
C1125 C1131 1.429 1_556 S
C1126 C1118 1.574 . S
C1126 H1121 0.949 . S
C1126 C1132 1.368 . S
C1127 C1111 1.349 . S
C1127 H1119 0.950 . S
C1127 C1125 1.327 . S
C1128 C1116 1.349 . S
C1128 H1122 0.950 . S
C1128 C1129 1.327 . S
C1129 H1123 0.950 . S
C1129 C1128 1.327 . S
C1129 C1133 1.429 . S
C1130 C1113 1.574 . S
C1130 H1124 0.949 . S
C1130 C1134 1.368 . S
C1131 C1112 1.429 1_554 S
C1131 C1125 1.429 1_554 S
C1131 C1132 1.523 . S
C1132 C1113 1.368 . S
C1132 C1126 1.368 . S
C1132 C1131 1.523 . S
C1133 C1117 1.429 . S
C1133 C1129 1.429 . S
C1133 C1134 1.523 . S
C1134 C1118 1.368 . S
C1134 C1130 1.368 . S
C1134 C1133 1.523 . S
H1135 C1110 0.950 . S
H1136 C1112 0.950 . S
H1137 C1113 0.949 . S
H1138 C1115 0.950 . S
H1139 C1117 0.950 . S
C1140 C1141 1.349 . S
C1140 C1142 1.327 . S
C1140 H1165 0.950 . S
C1141 C1140 1.349 . S
C1141 C1157 1.349 . S
C1142 C1140 1.327 . S
C1142 C1161 1.429 . S
C1142 H1166 0.950 . S
C1143 C1160 1.574 . S
C1143 C1162 1.368 . S
C1143 H1167 0.949 . S
H1144 C1148 0.949 . S
C1145 C1146 1.349 . S
C1145 C1147 1.327 . S
C1145 H1168 0.950 . S
C1146 C1145 1.349 . S
C1146 C1158 1.349 . S
C1147 C1145 1.327 . S
C1147 C1163 1.429 1_556 S
C1147 H1169 0.950 . S
C1148 H1144 0.949 . S
C1148 C1156 1.574 . S
C1148 C1164 1.368 . S
H1149 C1157 0.950 . S
H1150 C1155 0.950 . S
H1151 C1156 0.949 . S
H1152 C1158 0.950 . S
H1153 C1159 0.950 1_554 S
H1154 C1160 0.949 . S
C1155 H1150 0.950 . S
C1155 C1157 1.327 . S
C1155 C1161 1.429 . S
C1156 C1148 1.574 . S
C1156 H1151 0.949 . S
C1156 C1162 1.368 . S
C1157 C1141 1.349 . S
C1157 H1149 0.950 . S
C1157 C1155 1.327 . S
C1158 C1146 1.349 . S
C1158 H1152 0.950 . S
C1158 C1159 1.327 . S
C1159 H1153 0.950 1_556 S
C1159 C1158 1.327 . S
C1159 C1163 1.429 1_556 S
C1160 C1143 1.574 . S
C1160 H1154 0.949 . S
C1160 C1164 1.368 . S
C1161 C1142 1.429 . S
C1161 C1155 1.429 . S
C1161 C1162 1.523 . S
C1162 C1143 1.368 . S
C1162 C1156 1.368 . S
C1162 C1161 1.523 . S
C1163 C1147 1.429 1_554 S
C1163 C1159 1.429 1_554 S
C1163 C1164 1.523 . S
C1164 C1148 1.368 . S
C1164 C1160 1.368 . S
C1164 C1163 1.523 . S
H1165 C1140 0.950 . S
H1166 C1142 0.950 . S
H1167 C1143 0.949 . S
H1168 C1145 0.950 . S
H1169 C1147 0.950 . S
C361 C8 1.898 . S
C366 C311 1.899 . S
C391 C48 1.898 . S
C396 C351 1.899 . S
C421 C88 1.898 . S
C426 C271 1.900 . S
C451 C168 1.898 . S
C456 C111 1.900 . S
C481 C208 1.898 . S
C486 C31 1.900 . S
C511 C71 1.900 . S
C516 C128 1.898 . S
C541 C288 1.898 . S
C546 C231 1.899 . S
C571 C328 1.898 . S
C576 C151 1.900 . S
C601 C191 1.900 . S
C606 C248 1.898 . S
C631 C109 1.718 . S
C636 C12 1.741 . S
C661 C52 1.740 . S
C666 C29 1.718 . S
C691 C69 1.718 . S
C696 C92 1.740 . S
C721 C132 1.741 . S
C726 C229 1.718 . S
C751 C149 1.718 . S
C756 C172 1.740 . S
C781 C189 1.718 . S
C786 C212 1.740 . S
C811 C349 1.718 . S
C816 C252 1.741 . S
C841 C292 1.740 . S
C846 C269 1.718 . S
C871 C332 1.740 . S
C876 C309 1.718 . S
C901 C2 0.985 . S
C906 C17 0.985 . S
C931 C42 0.985 . S
C936 C57 0.985 . S
C961 C82 0.985 . S
C966 C97 0.985 . S
C991 C137 0.985 . S
C996 C122 0.985 . S
C1021 C177 0.985 . S
C1026 C162 0.985 . S
C1051 C217 0.985 . S
C1056 C202 0.985 . S
C1081 C242 0.985 . S
C1086 C257 0.985 . S
C1111 C297 0.985 . S
C1116 C282 0.985 . S
C1141 C322 0.985 . S
C1146 C337 0.985 . S
