# Generated by pormake.
# Topology wgp, (5)-cn, num edge types: 1
# Building blocks:
#     Node 0, Type 0, BuildingBlock: XOMCOT_clean_sbu_1, # of connection points: 5
#     Node 1, Type 0, BuildingBlock: XOMCOT_clean_sbu_1, # of connection points: 5
#     Node 2, Type 0, BuildingBlock: XOMCOT_clean_sbu_1, # of connection points: 5
#     Node 3, Type 0, BuildingBlock: XOMCOT_clean_sbu_1, # of connection points: 5
#     Node 4, Type 0, BuildingBlock: XOMCOT_clean_sbu_1, # of connection points: 5
#     Node 5, Type 0, BuildingBlock: XOMCOT_clean_sbu_1, # of connection points: 5
#     Node 6, Type 0, BuildingBlock: XOMCOT_clean_sbu_1, # of connection points: 5
#     Node 7, Type 0, BuildingBlock: XOMCOT_clean_sbu_1, # of connection points: 5
#     Node 8, Type 0, BuildingBlock: XOMCOT_clean_sbu_1, # of connection points: 5
#     Node 9, Type 0, BuildingBlock: XOMCOT_clean_sbu_1, # of connection points: 5
#     Node 10, Type 0, BuildingBlock: XOMCOT_clean_sbu_1, # of connection points: 5
#     Node 11, Type 0, BuildingBlock: XOMCOT_clean_sbu_1, # of connection points: 5
#     Node 12, Type 0, BuildingBlock: XOMCOT_clean_sbu_1, # of connection points: 5
#     Node 13, Type 0, BuildingBlock: XOMCOT_clean_sbu_1, # of connection points: 5
#     Node 14, Type 0, BuildingBlock: XOMCOT_clean_sbu_1, # of connection points: 5
#     Node 15, Type 0, BuildingBlock: XOMCOT_clean_sbu_1, # of connection points: 5
#     Node 16, Type 0, BuildingBlock: XOMCOT_clean_sbu_1, # of connection points: 5
#     Node 17, Type 0, BuildingBlock: XOMCOT_clean_sbu_1, # of connection points: 5
#     Node 18, Type 0, BuildingBlock: XOMCOT_clean_sbu_1, # of connection points: 5
#     Node 19, Type 0, BuildingBlock: XOMCOT_clean_sbu_1, # of connection points: 5
#     Node 20, Type 0, BuildingBlock: XOMCOT_clean_sbu_1, # of connection points: 5
#     Node 21, Type 0, BuildingBlock: XOMCOT_clean_sbu_1, # of connection points: 5
#     Node 22, Type 0, BuildingBlock: XOMCOT_clean_sbu_1, # of connection points: 5
#     Node 23, Type 0, BuildingBlock: XOMCOT_clean_sbu_1, # of connection points: 5
#     Node 24, Type 0, BuildingBlock: XOMCOT_clean_sbu_1, # of connection points: 5
#     Node 25, Type 0, BuildingBlock: XOMCOT_clean_sbu_1, # of connection points: 5
#     Node 26, Type 0, BuildingBlock: XOMCOT_clean_sbu_1, # of connection points: 5
#     Node 27, Type 0, BuildingBlock: XOMCOT_clean_sbu_1, # of connection points: 5
#     Node 28, Type 0, BuildingBlock: XOMCOT_clean_sbu_1, # of connection points: 5
#     Node 29, Type 0, BuildingBlock: XOMCOT_clean_sbu_1, # of connection points: 5
#     Node 30, Type 0, BuildingBlock: XOMCOT_clean_sbu_1, # of connection points: 5
#     Node 31, Type 0, BuildingBlock: XOMCOT_clean_sbu_1, # of connection points: 5
#     Edge 32, Type (0, 0), BuildingBlock: KIFKEQ_clean_linker_1, # of connection points: 2
#     Edge 33, Type (0, 0), BuildingBlock: KIFKEQ_clean_linker_1, # of connection points: 2
#     Edge 34, Type (0, 0), BuildingBlock: KIFKEQ_clean_linker_1, # of connection points: 2
#     Edge 35, Type (0, 0), BuildingBlock: KIFKEQ_clean_linker_1, # of connection points: 2
#     Edge 36, Type (0, 0), BuildingBlock: KIFKEQ_clean_linker_1, # of connection points: 2
#     Edge 37, Type (0, 0), BuildingBlock: KIFKEQ_clean_linker_1, # of connection points: 2
#     Edge 38, Type (0, 0), BuildingBlock: KIFKEQ_clean_linker_1, # of connection points: 2
#     Edge 39, Type (0, 0), BuildingBlock: KIFKEQ_clean_linker_1, # of connection points: 2
#     Edge 40, Type (0, 0), BuildingBlock: KIFKEQ_clean_linker_1, # of connection points: 2
#     Edge 41, Type (0, 0), BuildingBlock: KIFKEQ_clean_linker_1, # of connection points: 2
#     Edge 42, Type (0, 0), BuildingBlock: KIFKEQ_clean_linker_1, # of connection points: 2
#     Edge 43, Type (0, 0), BuildingBlock: KIFKEQ_clean_linker_1, # of connection points: 2
#     Edge 44, Type (0, 0), BuildingBlock: KIFKEQ_clean_linker_1, # of connection points: 2
#     Edge 45, Type (0, 0), BuildingBlock: KIFKEQ_clean_linker_1, # of connection points: 2
#     Edge 46, Type (0, 0), BuildingBlock: KIFKEQ_clean_linker_1, # of connection points: 2
#     Edge 47, Type (0, 0), BuildingBlock: KIFKEQ_clean_linker_1, # of connection points: 2
#     Edge 48, Type (0, 0), BuildingBlock: KIFKEQ_clean_linker_1, # of connection points: 2
#     Edge 49, Type (0, 0), BuildingBlock: KIFKEQ_clean_linker_1, # of connection points: 2
#     Edge 50, Type (0, 0), BuildingBlock: KIFKEQ_clean_linker_1, # of connection points: 2
#     Edge 51, Type (0, 0), BuildingBlock: KIFKEQ_clean_linker_1, # of connection points: 2
#     Edge 52, Type (0, 0), BuildingBlock: KIFKEQ_clean_linker_1, # of connection points: 2
#     Edge 53, Type (0, 0), BuildingBlock: KIFKEQ_clean_linker_1, # of connection points: 2
#     Edge 54, Type (0, 0), BuildingBlock: KIFKEQ_clean_linker_1, # of connection points: 2
#     Edge 55, Type (0, 0), BuildingBlock: KIFKEQ_clean_linker_1, # of connection points: 2
#     Edge 56, Type (0, 0), BuildingBlock: KIFKEQ_clean_linker_1, # of connection points: 2
#     Edge 57, Type (0, 0), BuildingBlock: KIFKEQ_clean_linker_1, # of connection points: 2
#     Edge 58, Type (0, 0), BuildingBlock: KIFKEQ_clean_linker_1, # of connection points: 2
#     Edge 59, Type (0, 0), BuildingBlock: KIFKEQ_clean_linker_1, # of connection points: 2
#     Edge 60, Type (0, 0), BuildingBlock: KIFKEQ_clean_linker_1, # of connection points: 2
#     Edge 61, Type (0, 0), BuildingBlock: KIFKEQ_clean_linker_1, # of connection points: 2
#     Edge 62, Type (0, 0), BuildingBlock: KIFKEQ_clean_linker_1, # of connection points: 2
#     Edge 63, Type (0, 0), BuildingBlock: KIFKEQ_clean_linker_1, # of connection points: 2
#     Edge 64, Type (0, 0), BuildingBlock: KIFKEQ_clean_linker_1, # of connection points: 2
#     Edge 65, Type (0, 0), BuildingBlock: KIFKEQ_clean_linker_1, # of connection points: 2
#     Edge 66, Type (0, 0), BuildingBlock: KIFKEQ_clean_linker_1, # of connection points: 2
#     Edge 67, Type (0, 0), BuildingBlock: KIFKEQ_clean_linker_1, # of connection points: 2
#     Edge 68, Type (0, 0), BuildingBlock: KIFKEQ_clean_linker_1, # of connection points: 2
#     Edge 69, Type (0, 0), BuildingBlock: KIFKEQ_clean_linker_1, # of connection points: 2
#     Edge 70, Type (0, 0), BuildingBlock: KIFKEQ_clean_linker_1, # of connection points: 2
#     Edge 71, Type (0, 0), BuildingBlock: KIFKEQ_clean_linker_1, # of connection points: 2
#     Edge 72, Type (0, 0), BuildingBlock: KIFKEQ_clean_linker_1, # of connection points: 2
#     Edge 73, Type (0, 0), BuildingBlock: KIFKEQ_clean_linker_1, # of connection points: 2
#     Edge 74, Type (0, 0), BuildingBlock: KIFKEQ_clean_linker_1, # of connection points: 2
#     Edge 75, Type (0, 0), BuildingBlock: KIFKEQ_clean_linker_1, # of connection points: 2
#     Edge 76, Type (0, 0), BuildingBlock: KIFKEQ_clean_linker_1, # of connection points: 2
#     Edge 77, Type (0, 0), BuildingBlock: KIFKEQ_clean_linker_1, # of connection points: 2
#     Edge 78, Type (0, 0), BuildingBlock: KIFKEQ_clean_linker_1, # of connection points: 2
#     Edge 79, Type (0, 0), BuildingBlock: KIFKEQ_clean_linker_1, # of connection points: 2
#     Edge 80, Type (0, 0), BuildingBlock: KIFKEQ_clean_linker_1, # of connection points: 2
#     Edge 81, Type (0, 0), BuildingBlock: KIFKEQ_clean_linker_1, # of connection points: 2
#     Edge 82, Type (0, 0), BuildingBlock: KIFKEQ_clean_linker_1, # of connection points: 2
#     Edge 83, Type (0, 0), BuildingBlock: KIFKEQ_clean_linker_1, # of connection points: 2
#     Edge 84, Type (0, 0), BuildingBlock: KIFKEQ_clean_linker_1, # of connection points: 2
#     Edge 85, Type (0, 0), BuildingBlock: KIFKEQ_clean_linker_1, # of connection points: 2
#     Edge 86, Type (0, 0), BuildingBlock: KIFKEQ_clean_linker_1, # of connection points: 2
#     Edge 87, Type (0, 0), BuildingBlock: KIFKEQ_clean_linker_1, # of connection points: 2
#     Edge 88, Type (0, 0), BuildingBlock: KIFKEQ_clean_linker_1, # of connection points: 2
#     Edge 89, Type (0, 0), BuildingBlock: KIFKEQ_clean_linker_1, # of connection points: 2
#     Edge 90, Type (0, 0), BuildingBlock: KIFKEQ_clean_linker_1, # of connection points: 2
#     Edge 91, Type (0, 0), BuildingBlock: KIFKEQ_clean_linker_1, # of connection points: 2
#     Edge 92, Type (0, 0), BuildingBlock: KIFKEQ_clean_linker_1, # of connection points: 2
#     Edge 93, Type (0, 0), BuildingBlock: KIFKEQ_clean_linker_1, # of connection points: 2
#     Edge 94, Type (0, 0), BuildingBlock: KIFKEQ_clean_linker_1, # of connection points: 2
#     Edge 95, Type (0, 0), BuildingBlock: KIFKEQ_clean_linker_1, # of connection points: 2
#     Edge 96, Type (0, 0), BuildingBlock: KIFKEQ_clean_linker_1, # of connection points: 2
#     Edge 97, Type (0, 0), BuildingBlock: KIFKEQ_clean_linker_1, # of connection points: 2
#     Edge 98, Type (0, 0), BuildingBlock: KIFKEQ_clean_linker_1, # of connection points: 2
#     Edge 99, Type (0, 0), BuildingBlock: KIFKEQ_clean_linker_1, # of connection points: 2
#     Edge 100, Type (0, 0), BuildingBlock: KIFKEQ_clean_linker_1, # of connection points: 2
#     Edge 101, Type (0, 0), BuildingBlock: KIFKEQ_clean_linker_1, # of connection points: 2
#     Edge 102, Type (0, 0), BuildingBlock: KIFKEQ_clean_linker_1, # of connection points: 2
#     Edge 103, Type (0, 0), BuildingBlock: KIFKEQ_clean_linker_1, # of connection points: 2
#     Edge 104, Type (0, 0), BuildingBlock: KIFKEQ_clean_linker_1, # of connection points: 2
#     Edge 105, Type (0, 0), BuildingBlock: KIFKEQ_clean_linker_1, # of connection points: 2
#     Edge 106, Type (0, 0), BuildingBlock: KIFKEQ_clean_linker_1, # of connection points: 2
#     Edge 107, Type (0, 0), BuildingBlock: KIFKEQ_clean_linker_1, # of connection points: 2
#     Edge 108, Type (0, 0), BuildingBlock: KIFKEQ_clean_linker_1, # of connection points: 2
#     Edge 109, Type (0, 0), BuildingBlock: KIFKEQ_clean_linker_1, # of connection points: 2
#     Edge 110, Type (0, 0), BuildingBlock: KIFKEQ_clean_linker_1, # of connection points: 2
#     Edge 111, Type (0, 0), BuildingBlock: KIFKEQ_clean_linker_1, # of connection points: 2
# Relax obj value: 0.162
# Max RMSD: 0.158
# Mean RMSD: 0.158
data_MOF--net-wgp--node1-XOMCOT_clean_sbu_1--edge1-KIFKEQ_clean_linker_1
_symmetry_space_group_name_H-M    P1
_symmetry_Int_Tables_number       1
_symmetry_cell_setting            triclinic
loop_
_symmetry_equiv_pos_as_xyz
'x, y, z'
_cell_length_a     36.00203
_cell_length_b     36.035584
_cell_length_c     105.19571
_cell_angle_alpha  89.981561
_cell_angle_beta   89.996126
_cell_angle_gamma 89.932346
loop_
_atom_site_label
_atom_site_type_symbol
_atom_site_fract_x
_atom_site_fract_y
_atom_site_fract_z
_atom_type_partial_charge
C0 C 0.27266 0.24091 0.0938 0.0
C1 C 0.27381 0.27867 0.09541 0.0
N2 N 0.25536 0.29493 0.08575 0.0
N3 N 0.25322 0.23267 0.08324 0.0
C4 C 0.24269 0.26629 0.07856 0.0
H5 H 0.28658 0.22071 0.09972 0.0
Co6 Co 0.25063 0.18319 0.0771 0.0
C7 C 0.20954 0.21306 0.05242 0.0
O8 O 0.17596 0.22402 0.05556 0.0
N9 N 0.2486 0.13299 0.07114 0.0
C10 C 0.25011 0.08417 0.05813 0.0
C11 C 0.24777 0.12209 0.05886 0.0
C12 C 0.25112 0.10052 0.07773 0.0
N13 N 0.25238 0.0704 0.06998 0.0
O14 O 0.20253 0.17788 0.08475 0.0
H15 H 0.24638 0.14025 0.05077 0.0
H16 H 0.25363 0.099 0.08796 0.0
O17 O 0.2311 0.19994 0.06091 0.0
C18 C 0.20971 0.16899 0.09624 0.0
O19 O 0.2446 0.16325 0.09936 0.0
N20 N 0.29855 0.18815 0.07078 0.0
C21 C 0.37305 0.2009 0.06552 0.0
C22 C 0.34557 0.22444 0.06063 0.0
C23 C 0.30853 0.21771 0.06343 0.0
C24 C 0.32474 0.16459 0.07549 0.0
C25 C 0.36224 0.17015 0.07282 0.0
H26 H 0.28806 0.23732 0.0601 0.0
H27 H 0.31671 0.14227 0.08177 0.0
H28 H 0.22796 0.26987 0.0697 0.0
H29 H 0.28793 0.29295 0.10305 0.0
H30 H 0.25033 0.06793 0.04947 0.0
H31 H 0.35261 0.24907 0.05525 0.0
H32 H 0.38259 0.15125 0.07678 0.0
C33 C 0.01355 0.02539 0.34281 0.0
C34 C 0.97585 0.0277 0.34465 0.0
N35 N 0.95878 0.00472 0.3364 0.0
N36 N 0.02092 1.00097 0.33345 0.0
C37 C 0.9869 0.98873 0.32972 0.0
H38 H 0.03433 0.04177 0.34765 0.0
Co39 Co 0.06988 0.99392 0.32716 0.0
C40 C 0.03759 0.9515 0.30263 0.0
O41 O 0.02091 0.91947 0.3043 0.0
N42 N 0.11975 0.98734 0.32112 0.0
C43 C 0.16889 0.97298 0.30916 0.0
C44 C 0.13095 0.9706 0.31028 0.0
C45 C 0.15209 0.9987 0.32659 0.0
N46 N 0.1824 0.99085 0.31939 0.0
O47 O 0.07384 0.94901 0.33673 0.0
H48 H 0.11311 0.95712 0.3035 0.0
H49 H 0.15337 0.01312 0.3356 0.0
O50 O 0.05044 0.96841 0.31235 0.0
C51 C 0.08387 0.95968 0.34777 0.0
O52 O 0.09091 0.99513 0.34943 0.0
N53 N 0.06629 0.0393 0.31907 0.0
C54 C 0.04826 0.11322 0.31554 0.0
C55 C 0.02771 0.0855 0.30945 0.0
C56 C 0.03692 0.0485 0.31147 0.0
C57 C 0.08803 0.06608 0.32433 0.0
C58 C 0.07979 0.10336 0.32255 0.0
H59 H 0.01824 0.0275 0.30795 0.0
H60 H 0.10928 0.05874 0.33109 0.0
H61 H 0.98275 0.96918 0.32206 0.0
H62 H 0.96214 0.04628 0.35123 0.0
H63 H 0.1853 0.96184 0.30143 0.0
H64 H 1.00299 0.09224 0.30404 0.0
H65 H 0.0957 0.12397 0.3277 0.0
C66 C 0.26387 0.75651 0.59899 0.0
C67 C 0.26694 0.71877 0.60005 0.0
N68 N 0.27129 0.70415 0.58836 0.0
N69 N 0.26679 0.76655 0.58669 0.0
C70 C 0.27206 0.73394 0.58041 0.0
H71 H 0.25751 0.77522 0.60671 0.0
Co72 Co 0.25679 0.81634 0.58151 0.0
C73 C 0.23371 0.79746 0.55457 0.0
O74 O 0.1988 0.7968 0.55801 0.0
N75 N 0.2471 0.86733 0.57629 0.0
C76 C 0.22054 0.91556 0.56645 0.0
C77 C 0.22117 0.8778 0.56769 0.0
C78 C 0.26145 0.90036 0.58032 0.0
N79 N 0.24578 0.93002 0.5744 0.0
O80 O 0.30892 0.82636 0.58269 0.0
H81 H 0.20178 0.85984 0.56305 0.0
H82 H 0.28266 0.9029 0.58754 0.0
O83 O 0.25945 0.80267 0.56289 0.0
C84 C 0.30883 0.83424 0.59458 0.0
O85 O 0.2767 0.83967 0.60025 0.0
N86 N 0.20583 0.80686 0.58332 0.0
C87 C 0.13527 0.79162 0.59254 0.0
C88 C 0.15447 0.76513 0.5854 0.0
C89 C 0.19002 0.77292 0.58117 0.0
C90 C 0.18788 0.83221 0.59078 0.0
C91 C 0.15222 0.82551 0.59526 0.0
H92 H 0.20434 0.75176 0.57584 0.0
H93 H 0.20168 0.8573 0.59379 0.0
H94 H 0.27312 0.73186 0.57015 0.0
H95 H 0.2647 0.70331 0.60883 0.0
H96 H 0.20149 0.93133 0.56059 0.0
H97 H 0.14205 0.7387 0.58297 0.0
H98 H 0.13839 0.84625 0.60102 0.0
C99 C 0.49352 0.01154 0.84949 0.0
C100 C 0.53123 0.01324 0.85111 0.0
N101 N 0.54716 0.0207 0.83981 0.0
N102 N 0.48491 0.01821 0.83723 0.0
C103 C 0.51832 0.02473 0.83158 0.0
H104 H 0.47388 0.00323 0.85671 0.0
Co105 Co 0.43589 0.00932 0.83105 0.0
C106 C 0.46056 0.99869 0.80353 0.0
O107 O 0.46326 0.96267 0.8047 0.0
N108 N 0.38605 1.00063 0.82489 0.0
C109 C 0.33998 0.97595 0.81352 0.0
C110 C 0.37765 0.97836 0.81497 0.0
C111 C 0.35212 0.01118 0.82939 0.0
N112 N 0.32359 0.99653 0.82258 0.0
O113 O 0.4245 0.06049 0.834 0.0
H114 H 0.39733 0.96265 0.80949 0.0
H115 H 0.34823 0.02869 0.83762 0.0
O116 O 0.45085 0.01912 0.81299 0.0
C117 C 0.41519 0.05815 0.84571 0.0
O118 O 0.4104 0.02494 0.85064 0.0
N119 N 0.44641 0.95828 0.83064 0.0
C120 C 0.46189 0.88467 0.83621 0.0
C121 C 0.48864 0.90691 0.83039 0.0
C122 C 0.48068 0.94381 0.82797 0.0
C123 C 0.42071 0.93705 0.83684 0.0
C124 C 0.4275 0.89986 0.83943 0.0
H125 H 0.50219 0.96038 0.82373 0.0
H126 H 0.39524 0.94918 0.84033 0.0
H127 H 0.52169 0.02842 0.82144 0.0
H128 H 0.54586 0.00755 0.85988 0.0
H129 H 0.32581 0.95861 0.80667 0.0
H130 H 0.51559 0.89593 0.82774 0.0
H131 H 0.40662 0.88353 0.84429 0.0
C132 C 0.24881 0.76256 0.41405 0.0
C133 C 0.24481 0.725 0.41238 0.0
N134 N 0.23733 0.70945 0.42372 0.0
N135 N 0.24353 0.77128 0.42639 0.0
C136 C 0.23621 0.73814 0.43207 0.0
H137 H 0.25722 0.78196 0.40677 0.0
Co138 Co 0.25185 0.82008 0.43284 0.0
C139 C 0.26593 0.79263 0.45976 0.0
O140 O 0.30196 0.79193 0.45813 0.0
N141 N 0.25956 0.86964 0.43934 0.0
C142 C 0.282 0.91595 0.45112 0.0
C143 C 0.28012 0.87825 0.44968 0.0
C144 C 0.2494 0.90343 0.43464 0.0
N145 N 0.26272 0.93212 0.44168 0.0
O146 O 0.20014 0.83041 0.43043 0.0
H147 H 0.29491 0.8588 0.45552 0.0
H148 H 0.23317 0.90707 0.42609 0.0
O149 O 0.2441 0.80301 0.45075 0.0
C150 C 0.20142 0.83999 0.41872 0.0
O151 O 0.23414 0.84486 0.41342 0.0
N152 N 0.30332 0.81091 0.43266 0.0
C153 C 0.37509 0.79638 0.42444 0.0
C154 C 0.35457 0.76879 0.43052 0.0
C155 C 0.31855 0.77641 0.43437 0.0
C156 C 0.32333 0.83788 0.42662 0.0
C157 C 0.35961 0.83149 0.42271 0.0
H158 H 0.3029 0.75413 0.43859 0.0
H159 H 0.31058 0.86383 0.42394 0.0
H160 H 0.23228 0.73477 0.4422 0.0
H161 H 0.24943 0.70997 0.40361 0.0
H162 H 0.29809 0.93026 0.45829 0.0
H163 H 0.36594 0.74127 0.43201 0.0
H164 H 0.3746 0.85309 0.41772 0.0
C165 C 0.48961 0.99497 0.66412 0.0
C166 C 0.52736 0.99089 0.66308 0.0
N167 N 0.54128 0.98263 0.67462 0.0
N168 N 0.47905 0.9891 0.67626 0.0
C169 C 0.51129 0.9811 0.68244 0.0
H170 H 0.47131 0.00395 0.65659 0.0
Co171 Co 0.42944 0.99863 0.68172 0.0
C172 C 0.44823 0.00789 0.70959 0.0
O173 O 0.44962 0.04398 0.70841 0.0
N174 N 0.37855 0.008 0.68727 0.0
C175 C 0.33117 0.03611 0.69711 0.0
C176 C 0.36893 0.03248 0.69647 0.0
C177 C 0.34504 0.99677 0.68256 0.0
N178 N 0.316 0.01379 0.68836 0.0
O179 O 0.41745 0.94818 0.67754 0.0
H180 H 0.38778 0.04952 0.70176 0.0
H181 H 0.34177 0.9782 0.67457 0.0
O182 O 0.44185 0.98691 0.69993 0.0
C183 C 0.40936 0.95493 0.66588 0.0
O184 O 0.40424 0.98974 0.66251 0.0
N185 N 0.44105 0.04915 0.68276 0.0
C186 C 0.45914 0.12208 0.6773 0.0
C187 C 0.48436 0.09942 0.68374 0.0
C188 C 0.47516 0.06276 0.6861 0.0
C189 C 0.41702 0.07079 0.67596 0.0
C190 C 0.42511 0.10762 0.67339 0.0
H191 H 0.49542 0.04564 0.69083 0.0
H192 H 0.39196 0.0592 0.67197 0.0
H193 H 0.51304 0.97671 0.6926 0.0
H194 H 0.5436 0.9962 0.65462 0.0
H195 H 0.31597 0.05521 0.70312 0.0
H196 H 0.511 0.10987 0.68691 0.0
H197 H 0.40551 0.12425 0.66803 0.0
C198 C 0.22997 0.25148 0.91885 0.0
C199 C 0.22896 0.28936 0.9178 0.0
N200 N 0.24676 0.30411 0.92784 0.0
N201 N 0.24862 0.24183 0.92946 0.0
C202 C 0.25835 0.27465 0.93486 0.0
H203 H 0.21751 0.23204 0.9123 0.0
Co204 Co 0.2561 0.19136 0.93337 0.0
C205 C 0.26689 0.18513 0.96081 0.0
O206 O 0.24569 0.15562 0.95989 0.0
N207 N 0.26466 0.13949 0.93661 0.0
C208 C 0.29751 0.08988 0.94257 0.0
C209 C 0.29776 0.1277 0.94118 0.0
C210 C 0.24515 0.10747 0.93488 0.0
N211 N 0.26444 0.07706 0.93861 0.0
O212 O 0.30404 0.19378 0.92553 0.0
H213 H 0.32077 0.14572 0.94351 0.0
H214 H 0.21742 0.10592 0.93107 0.0
O215 O 0.27515 0.20383 0.95077 0.0
C216 C 0.29653 0.18518 0.91404 0.0
O217 O 0.26213 0.17604 0.91126 0.0
N218 N 0.20757 0.18986 0.93949 0.0
C219 C 0.13198 0.19893 0.9439 0.0
C220 C 0.15809 0.21831 0.95117 0.0
C221 C 0.1956 0.21391 0.94865 0.0
C222 C 0.18255 0.17178 0.93204 0.0
C223 C 0.14458 0.17495 0.93433 0.0
H224 H 0.21462 0.23228 0.9534 0.0
H225 H 0.19187 0.15696 0.92371 0.0
H226 H 0.27373 0.27695 0.94366 0.0
H227 H 0.21535 0.30495 0.91033 0.0
H228 H 0.32023 0.07297 0.94603 0.0
H229 H 0.14971 0.23882 0.95813 0.0
H230 H 0.12535 0.16018 0.92826 0.0
C231 C 0.01556 0.98442 0.17106 0.0
C232 C 0.97787 0.98035 0.17034 0.0
N233 N 0.96204 0.99874 0.1801 0.0
N234 N 0.02438 0.00558 0.18117 0.0
C235 C 0.99105 0.01412 0.18653 0.0
H236 H 0.03551 0.97232 0.16459 0.0
Co237 Co 0.07506 0.01526 0.18476 0.0
C238 C 0.083 0.02164 0.21228 0.0
O239 O 0.11349 1.00218 0.21065 0.0
N240 N 0.12674 0.02574 0.18775 0.0
C241 C 0.17579 0.05954 0.19361 0.0
C242 C 0.13787 0.05903 0.19229 0.0
C243 C 0.15914 0.00672 0.18615 0.0
N244 N 0.1893 0.02661 0.18976 0.0
O245 O 0.06975 0.06436 0.17791 0.0
H246 H 0.11935 0.0816 0.19471 0.0
H247 H 0.16106 0.97865 0.18268 0.0
O248 O 0.063 0.03044 0.20258 0.0
C249 C 0.0761 0.05895 0.1661 0.0
O250 O 0.08371 0.02504 0.16232 0.0
N251 N 0.07974 0.96587 0.18967 0.0
C252 C 0.06698 0.89021 0.18911 0.0
C253 C 0.05076 0.91203 0.19857 0.0
C254 C 0.05716 0.95003 0.19861 0.0
C255 C 0.09652 0.94454 0.18065 0.0
C256 C 0.09129 0.90634 0.18039 0.0
H257 H 0.04033 0.96677 0.20486 0.0
H258 H 0.11052 0.95759 0.17274 0.0
H259 H 0.9882 0.03068 0.19505 0.0
H260 H 0.96335 0.96526 0.16298 0.0
H261 H 0.19219 0.08265 0.19701 0.0
H262 H 0.0308 0.90031 0.20515 0.0
H263 H 0.10292 0.89026 0.17264 0.0
C264 C 0.75466 0.75489 0.9151 0.0
C265 C 0.7594 0.71725 0.91402 0.0
N266 N 0.7684 0.70336 0.92551 0.0
N267 N 0.76078 0.76547 0.9272 0.0
C268 C 0.76934 0.73337 0.93335 0.0
H269 H 0.74504 0.77305 0.90762 0.0
Co270 Co 0.74973 0.81444 0.93269 0.0
C271 C 0.74602 0.806 0.9607 0.0
O272 O 0.71254 0.82011 0.96042 0.0
N273 N 0.7379 0.86541 0.93794 0.0
C274 C 0.70653 0.91491 0.94508 0.0
C275 C 0.70579 0.87742 0.94331 0.0
C276 C 0.75746 0.89761 0.93636 0.0
N277 N 0.73892 0.92798 0.94069 0.0
O278 O 0.79894 0.82885 0.92811 0.0
H279 H 0.68203 0.86057 0.94565 0.0
H280 H 0.78462 0.89903 0.932 0.0
O281 O 0.76474 0.80198 0.95041 0.0
C282 C 0.79322 0.83744 0.91649 0.0
O283 O 0.75867 0.84091 0.91261 0.0
N284 N 0.70105 0.79923 0.93496 0.0
C285 C 0.6282 0.77598 0.93393 0.0
C286 C 0.6536 0.75729 0.94167 0.0
C287 C 0.69026 0.76911 0.94193 0.0
C288 C 0.67714 0.81549 0.92658 0.0
C289 C 0.64003 0.80517 0.92624 0.0
H290 H 0.70988 0.7539 0.94767 0.0
H291 H 0.68688 0.83724 0.92033 0.0
H292 H 0.77428 0.73179 0.94348 0.0
H293 H 0.7541 0.70116 0.90553 0.0
H294 H 0.68402 0.93157 0.94884 0.0
H295 H 0.64509 0.73399 0.94749 0.0
H296 H 0.62093 0.81941 0.91994 0.0
C297 C 0.98737 0.01744 0.66405 0.0
C298 C 0.02495 0.02254 0.6627 0.0
N299 N 0.04009 0.02601 0.67433 0.0
N300 N 0.97826 0.01797 0.67648 0.0
C301 C 0.01112 0.02382 0.68255 0.0
H302 H 0.96821 0.01164 0.6564 0.0
Co303 Co 0.92957 0.00606 0.68219 0.0
C304 C 0.95144 0.9917 0.70964 0.0
O305 O 0.9534 0.95582 0.70787 0.0
N306 N 0.87963 0.99443 0.68798 0.0
C307 C 0.8337 0.96623 0.6985 0.0
C308 C 0.87132 0.96872 0.69691 0.0
C309 C 0.84555 0.00688 0.68421 0.0
N310 N 0.8172 0.99017 0.69051 0.0
O311 O 0.91636 0.05705 0.68004 0.0
H312 H 0.89089 0.95075 0.70152 0.0
H313 H 0.84127 0.02747 0.67689 0.0
O314 O 0.94352 0.0138 0.70043 0.0
C315 C 0.90495 0.0567 0.66853 0.0
O316 O 0.90116 0.0246 0.66274 0.0
N317 N 0.9423 0.95557 0.68177 0.0
C318 C 0.96132 0.88386 0.67476 0.0
C319 C 0.98645 0.9058 0.6815 0.0
C320 C 0.97671 0.94182 0.68468 0.0
C321 C 0.91816 0.93468 0.67477 0.0
C322 C 0.92671 0.89837 0.67145 0.0
H323 H 0.99689 0.95827 0.68968 0.0
H324 H 0.89262 0.9466 0.67124 0.0
H325 H 0.01414 0.02409 0.69278 0.0
H326 H 0.04031 0.02135 0.65386 0.0
H327 H 0.81954 0.94673 0.70465 0.0
H328 H 0.01353 0.89528 0.68422 0.0
H329 H 0.90708 0.88231 0.66592 0.0
C330 C 0.72868 0.23378 0.41594 0.0
C331 C 0.72369 0.27115 0.41425 0.0
N332 N 0.72695 0.28819 0.42559 0.0
N333 N 0.73483 0.22646 0.42833 0.0
C334 C 0.73334 0.26035 0.43403 0.0
H335 H 0.73031 0.21356 0.40839 0.0
Co336 Co 0.75247 0.17912 0.4333 0.0
C337 C 0.75677 0.17954 0.4612 0.0
O338 O 0.7899 0.16484 0.46019 0.0
N339 N 0.77148 0.1297 0.43779 0.0
C340 C 0.81091 0.08293 0.44158 0.0
C341 C 0.80743 0.1204 0.43999 0.0
C342 C 0.7538 0.09616 0.43813 0.0
N343 N 0.77729 0.06728 0.44035 0.0
O344 O 0.70506 0.15865 0.42914 0.0
H345 H 0.8305 0.13934 0.44061 0.0
H346 H 0.72433 0.09274 0.43657 0.0
O347 O 0.73798 0.18799 0.45124 0.0
C348 C 0.70997 0.14462 0.41812 0.0
O349 O 0.74384 0.14323 0.41349 0.0
N350 N 0.7986 0.20031 0.43527 0.0
C351 C 0.86615 0.23553 0.43199 0.0
C352 C 0.84316 0.24488 0.44226 0.0
C353 C 0.80927 0.22697 0.44372 0.0
C354 C 0.81962 0.19257 0.42487 0.0
C355 C 0.85406 0.20885 0.42325 0.0
H356 H 0.79126 0.23585 0.45131 0.0
H357 H 0.80966 0.17298 0.41788 0.0
H358 H 0.73839 0.26478 0.44404 0.0
H359 H 0.72043 0.28489 0.40517 0.0
H360 H 0.83681 0.06829 0.44308 0.0
H361 H 0.85078 0.26641 0.44895 0.0
H362 H 0.87094 0.20036 0.41525 0.0
C363 C 0.51366 0.9473 0.17401 0.0
C364 C 0.47595 0.94264 0.17481 0.0
N365 N 0.46241 0.96682 0.18338 0.0
N366 N 0.52479 0.9742 0.18209 0.0
C367 C 0.49263 0.98537 0.18775 0.0
H368 H 0.5311 0.93338 0.16721 0.0
Co369 Co 0.57302 0.99654 0.18189 0.0
C370 C 0.59944 1.00274 0.20868 0.0
O371 O 0.62106 0.03007 0.2051 0.0
N372 N 0.62146 0.0191 0.18097 0.0
C373 C 0.66709 0.0595 0.17741 0.0
C374 C 0.62939 0.05387 0.17703 0.0
C375 C 0.65543 0.00387 0.18335 0.0
N376 N 0.68374 0.02817 0.18149 0.0
O377 O 0.59503 0.95013 0.17712 0.0
H378 H 0.60928 0.07419 0.17395 0.0
H379 H 0.65907 0.97577 0.18675 0.0
O380 O 0.57871 0.98649 0.20044 0.0
C381 C 0.60043 0.95469 0.16521 0.0
O382 O 0.59022 0.98614 0.15994 0.0
N383 N 0.55069 0.04223 0.18476 0.0
C384 C 0.51526 0.11011 0.18361 0.0
C385 C 0.52712 0.09605 0.19531 0.0
C386 C 0.54429 0.06149 0.19573 0.0
C387 C 0.53776 0.05508 0.17341 0.0
C388 C 0.51988 0.08909 0.1726 0.0
H389 H 0.55127 0.05061 0.2049 0.0
H390 H 0.54201 0.03893 0.16488 0.0
H391 H 0.49105 0.00785 0.19452 0.0
H392 H 0.45953 0.92456 0.16883 0.0
H393 H 0.68105 0.08479 0.17463 0.0
H394 H 0.52314 0.11168 0.204 0.0
H395 H 0.51102 0.09945 0.16342 0.0
C396 C 0.77777 0.24658 0.5993 0.0
C397 C 0.78247 0.28433 0.59999 0.0
N398 N 0.78255 0.2983 0.58812 0.0
N399 N 0.77509 0.23611 0.58703 0.0
C400 C 0.77875 0.26833 0.58039 0.0
H401 H 0.7741 0.22827 0.60733 0.0
Co402 Co 0.76116 0.18701 0.58225 0.0
C403 C 0.73508 0.20694 0.55566 0.0
O404 O 0.70087 0.21066 0.55965 0.0
N405 N 0.7474 0.13678 0.57729 0.0
C406 C 0.71543 0.09078 0.56817 0.0
C407 C 0.7183 0.12835 0.56968 0.0
C408 C 0.76153 0.10277 0.58038 0.0
N409 N 0.74259 0.07439 0.57488 0.0
O410 O 0.81256 0.17357 0.58221 0.0
H411 H 0.69852 0.14781 0.56596 0.0
H412 H 0.78503 0.09861 0.5866 0.0
O413 O 0.76145 0.20001 0.56359 0.0
C414 C 0.81509 0.16355 0.59386 0.0
O415 O 0.78461 0.16124 0.6007 0.0
N416 N 0.7112 0.19959 0.58515 0.0
C417 C 0.64119 0.21603 0.5946 0.0
C418 C 0.66061 0.24229 0.58745 0.0
C419 C 0.69597 0.23388 0.58309 0.0
C420 C 0.69349 0.17501 0.59297 0.0
C421 C 0.658 0.18219 0.5975 0.0
H422 H 0.71022 0.25462 0.57758 0.0
H423 H 0.70715 0.14981 0.59599 0.0
H424 H 0.77595 0.27014 0.57017 0.0
H425 H 0.78302 0.30052 0.60866 0.0
H426 H 0.69376 0.07655 0.56298 0.0
H427 H 0.64834 0.26883 0.58502 0.0
H428 H 0.64406 0.16176 0.60335 0.0
C429 C 0.50737 0.02118 0.347 0.0
C430 C 0.46961 0.02614 0.34768 0.0
N431 N 0.45615 0.02976 0.33581 0.0
N432 N 0.51844 0.02191 0.33475 0.0
C433 C 0.48644 0.02778 0.32813 0.0
H434 H 0.52519 0.01492 0.35498 0.0
Co435 Co 0.56797 0.0092 0.32978 0.0
C436 C 0.54487 0.99517 0.30225 0.0
O437 O 0.53734 0.96006 0.30404 0.0
N438 N 0.61816 0.99686 0.32468 0.0
C439 C 0.66421 0.96897 0.31418 0.0
C440 C 0.62651 0.97337 0.3151 0.0
C441 C 0.65206 0.00616 0.32952 0.0
N442 N 0.68065 0.98935 0.32331 0.0
O443 O 0.58162 0.0601 0.33138 0.0
H444 H 0.60653 0.95893 0.30932 0.0
H445 H 0.65579 0.0239 0.33769 0.0
O446 O 0.55617 0.01566 0.31145 0.0
C447 C 0.5904 0.06061 0.34315 0.0
O448 O 0.59111 0.02918 0.34948 0.0
N449 N 0.55528 0.95863 0.33063 0.0
C450 C 0.53647 0.8879 0.33889 0.0
C451 C 0.51127 0.90885 0.33179 0.0
C452 C 0.52088 0.94444 0.32801 0.0
C453 C 0.57953 0.9386 0.33791 0.0
C454 C 0.57108 0.90287 0.34188 0.0
H455 H 0.50016 0.96043 0.32308 0.0
H456 H 0.60491 0.95092 0.34136 0.0
H457 H 0.48499 0.02791 0.31786 0.0
H458 H 0.45299 0.02441 0.35623 0.0
H459 H 0.67826 0.95174 0.30727 0.0
H460 H 0.4841 0.89807 0.32935 0.0
H461 H 0.59074 0.88778 0.34772 0.0
C462 C 0.75143 0.76218 0.09776 0.0
C463 C 0.74683 0.72452 0.09913 0.0
N464 N 0.73978 0.7097 0.08762 0.0
N465 N 0.74718 0.77163 0.08545 0.0
C466 C 0.7399 0.73896 0.07948 0.0
H467 H 0.75861 0.78136 0.10526 0.0
Co468 Co 0.75328 0.82098 0.07937 0.0
C469 C 0.77883 0.80716 0.05315 0.0
O470 O 0.80779 0.82796 0.05579 0.0
N471 N 0.75775 0.87196 0.07338 0.0
C472 C 0.75456 0.92213 0.06086 0.0
C473 C 0.75107 0.88429 0.06143 0.0
C474 C 0.76228 0.90411 0.08008 0.0
N475 N 0.76157 0.93476 0.0726 0.0
O476 O 0.701 0.82744 0.07995 0.0
H477 H 0.74179 0.86757 0.05356 0.0
H478 H 0.76493 0.90533 0.09031 0.0
O479 O 0.75309 0.80271 0.06149 0.0
C480 C 0.69865 0.83902 0.09139 0.0
O481 O 0.72924 0.8439 0.09799 0.0
N482 N 0.80487 0.81496 0.08071 0.0
C483 C 0.87983 0.80535 0.08541 0.0
C484 C 0.86 0.77807 0.07891 0.0
C485 C 0.82234 0.78326 0.07673 0.0
C486 C 0.82364 0.84035 0.08785 0.0
C487 C 0.86155 0.83671 0.08998 0.0
H488 H 0.80737 0.76195 0.07167 0.0
H489 H 0.80927 0.8629 0.09233 0.0
H490 H 0.73568 0.73654 0.06934 0.0
H491 H 0.75013 0.70906 0.10788 0.0
H492 H 0.75003 0.93932 0.05256 0.0
H493 H 0.87361 0.75326 0.07541 0.0
H494 H 0.87626 0.85765 0.09538 0.0
C495 C 0.99595 0.99817 0.84934 0.0
C496 C 0.0337 0.99422 0.85052 0.0
N497 N 0.04783 0.98512 0.83909 0.0
N498 N 0.98566 0.99131 0.83724 0.0
C499 C 0.01805 0.98291 0.83121 0.0
H500 H 0.97752 0.00776 0.85675 0.0
Co501 Co 0.93623 0.99991 0.8314 0.0
C502 C 0.95873 0.00668 0.80364 0.0
O503 O 0.961 0.04285 0.80424 0.0
N504 N 0.88589 0.00812 0.8255 0.0
C505 C 0.83896 0.03084 0.814 0.0
C506 C 0.87673 0.02902 0.81529 0.0
C507 C 0.85228 0.99791 0.83035 0.0
N508 N 0.82331 0.01135 0.82346 0.0
O509 O 0.92474 0.94952 0.83542 0.0
H510 H 0.89593 0.04414 0.80945 0.0
H511 H 0.8489 0.98139 0.83885 0.0
O512 O 0.94986 0.98737 0.81346 0.0
C513 C 0.91652 0.95476 0.84713 0.0
O514 O 0.91229 0.98909 0.85114 0.0
N515 N 0.94701 0.05061 0.83006 0.0
C516 C 0.96304 0.12458 0.83463 0.0
C517 C 0.98938 0.10166 0.82887 0.0
C518 C 0.98118 0.06455 0.82696 0.0
C519 C 0.92179 0.07259 0.83619 0.0
C520 C 0.92886 0.1099 0.8383 0.0
H521 H 1.00238 0.04733 0.8228 0.0
H522 H 0.89658 0.06097 0.84005 0.0
H523 H 0.02008 0.97777 0.8211 0.0
H524 H 0.04982 1.00023 0.85895 0.0
H525 H 0.82413 0.04693 0.80694 0.0
H526 H 0.01621 0.11222 0.82593 0.0
H527 H 0.90838 0.12673 0.84318 0.0
C528 C 0.75648 0.74449 0.59747 0.0
C529 C 0.75314 0.78209 0.59914 0.0
N530 N 0.7414 0.79735 0.58817 0.0
N531 N 0.74669 0.73535 0.5855 0.0
C532 C 0.73711 0.7683 0.58007 0.0
H533 H 0.76774 0.72535 0.60438 0.0
Co534 Co 0.75372 0.68622 0.57904 0.0
C535 C 0.76083 0.71119 0.55153 0.0
O536 O 0.79714 0.70986 0.55202 0.0
N537 N 0.76023 0.63604 0.57272 0.0
C538 C 0.77916 0.58869 0.56065 0.0
C539 C 0.7776 0.62647 0.56181 0.0
C540 C 0.75177 0.60259 0.57809 0.0
N541 N 0.76294 0.57333 0.57087 0.0
O542 O 0.70305 0.67575 0.58328 0.0
H543 H 0.79042 0.64518 0.55524 0.0
H544 H 0.73817 0.59954 0.58718 0.0
O545 O 0.74094 0.70245 0.56127 0.0
C546 C 0.70824 0.66717 0.59497 0.0
O547 O 0.74255 0.66222 0.59893 0.0
N548 N 0.80467 0.69601 0.57738 0.0
C549 C 0.87826 0.71331 0.58243 0.0
C550 C 0.85486 0.73953 0.57684 0.0
C551 C 0.81811 0.73061 0.57464 0.0
C552 C 0.82731 0.67028 0.58296 0.0
C553 C 0.86444 0.67814 0.58538 0.0
H554 H 0.8005 0.7519 0.57072 0.0
H555 H 0.81625 0.64426 0.58634 0.0
H556 H 0.72952 0.77124 0.57017 0.0
H557 H 0.76129 0.7973 0.60756 0.0
H558 H 0.79292 0.57373 0.55307 0.0
H559 H 0.86431 0.76741 0.57475 0.0
H560 H 0.88175 0.65742 0.58992 0.0
C561 C 0.51151 0.49363 0.84969 0.0
C562 C 0.47391 0.48837 0.85074 0.0
N563 N 0.46048 0.47929 0.83924 0.0
N564 N 0.52245 0.48747 0.83759 0.0
C565 C 0.49047 0.47832 0.83143 0.0
H566 H 0.52929 0.50367 0.8572 0.0
Co567 Co 0.57215 0.49751 0.8321 0.0
C568 C 0.55169 0.50434 0.80414 0.0
O569 O 0.55022 0.54056 0.80479 0.0
N570 N 0.62283 0.50697 0.82674 0.0
C571 C 0.67127 0.52657 0.81523 0.0
C572 C 0.63333 0.52471 0.81598 0.0
C573 C 0.65581 0.49935 0.83258 0.0
N574 N 0.68548 0.51075 0.82568 0.0
O575 O 0.58501 0.44723 0.8361 0.0
H576 H 0.61504 0.5375 0.80925 0.0
H577 H 0.6583 0.48599 0.84175 0.0
O578 O 0.55981 0.48469 0.81398 0.0
C579 C 0.59224 0.45093 0.84794 0.0
O580 O 0.59394 0.48467 0.85266 0.0
N581 N 0.55982 0.54796 0.83048 0.0
C582 C 0.54085 0.6221 0.83327 0.0
C583 C 0.51557 0.59712 0.82804 0.0
C584 C 0.52526 0.56013 0.82699 0.0
C585 C 0.58404 0.57192 0.83617 0.0
C586 C 0.57541 0.60934 0.83744 0.0
H587 H 0.50509 0.54172 0.8229 0.0
H588 H 0.60972 0.56197 0.84024 0.0
H589 H 0.48875 0.47363 0.82128 0.0
H590 H 0.45724 0.49345 0.85913 0.0
H591 H 0.68727 0.53999 0.80783 0.0
H592 H 0.48811 0.60587 0.82506 0.0
H593 H 0.59527 0.62792 0.84182 0.0
C594 C 0.7188 0.26418 0.09272 0.0
C595 C 0.71757 0.22645 0.09446 0.0
N596 N 0.74252 0.2104 0.08664 0.0
N597 N 0.7445 0.27253 0.08386 0.0
C598 C 0.75885 0.23908 0.0804 0.0
H599 H 0.70089 0.28429 0.09726 0.0
Co600 Co 0.7497 0.32172 0.07769 0.0
C601 C 0.79851 0.29213 0.05417 0.0
O602 O 0.83162 0.27909 0.05694 0.0
N603 N 0.75453 0.37172 0.0718 0.0
C604 C 0.76942 0.42125 0.06018 0.0
C605 C 0.76917 0.38325 0.06065 0.0
C606 C 0.74599 0.4039 0.07794 0.0
N607 N 0.75501 0.43448 0.07106 0.0
O608 O 0.79325 0.32787 0.08793 0.0
H609 H 0.77989 0.36566 0.05325 0.0
H610 H 0.73418 0.40491 0.08739 0.0
O611 O 0.77801 0.30421 0.06316 0.0
C612 C 0.78189 0.33719 0.09897 0.0
O613 O 0.74598 0.34157 0.10064 0.0
N614 N 0.70563 0.31585 0.06876 0.0
C615 C 0.63377 0.29595 0.0623 0.0
C616 C 0.66394 0.2753 0.05781 0.0
C617 C 0.69969 0.28544 0.06129 0.0
C618 C 0.67672 0.33758 0.07257 0.0
C619 C 0.64035 0.3283 0.06932 0.0
H620 H 0.72224 0.26715 0.05874 0.0
H621 H 0.68149 0.36035 0.07904 0.0
H622 H 0.77931 0.23559 0.07297 0.0
H623 H 0.69911 0.21193 0.10087 0.0
H624 H 0.77957 0.43793 0.05236 0.0
H625 H 0.65978 0.2501 0.05238 0.0
H626 H 0.61756 0.34445 0.07315 0.0
C627 C 0.99546 0.49606 0.35004 0.0
C628 C 0.03306 0.49853 0.35186 0.0
N629 N 0.04896 0.51028 0.34099 0.0
N630 N 0.98694 0.50648 0.33809 0.0
C631 C 0.02017 0.51604 0.33287 0.0
H632 H 0.97584 0.48495 0.35681 0.0
Co633 Co 0.93831 0.49926 0.33144 0.0
C634 C 0.96432 0.49412 0.30387 0.0
O635 O 0.96562 0.45787 0.30421 0.0
N636 N 0.88873 0.49274 0.32487 0.0
C637 C 0.84218 0.47368 0.31251 0.0
C638 C 0.87991 0.47456 0.31406 0.0
C639 C 0.85506 0.50254 0.32976 0.0
N640 N 0.82622 0.49131 0.32237 0.0
O641 O 0.92723 0.54982 0.33573 0.0
H642 H 0.89923 0.46076 0.30788 0.0
H643 H 0.85158 0.51727 0.33862 0.0
O644 O 0.95445 0.51298 0.31372 0.0
C645 C 0.91748 0.54633 0.34737 0.0
O646 O 0.91296 0.51273 0.35197 0.0
N647 N 0.94873 0.44804 0.32952 0.0
C648 C 0.96358 0.37243 0.33085 0.0
C649 C 0.9913 0.39726 0.32723 0.0
C650 C 0.98356 0.43486 0.32687 0.0
C651 C 0.92215 0.42412 0.33389 0.0
C652 C 0.92863 0.38601 0.33427 0.0
H653 H 0.00545 0.45298 0.32376 0.0
H654 H 0.89591 0.43444 0.33739 0.0
H655 H 0.02357 0.52339 0.32296 0.0
H656 H 0.04767 0.49058 0.36043 0.0
H657 H 0.82767 0.45951 0.30493 0.0
H658 H 0.01867 0.38768 0.32444 0.0
H659 H 0.90689 0.36746 0.33747 0.0
C660 C 0.77623 0.25884 0.92175 0.0
C661 C 0.77697 0.22111 0.91997 0.0
N662 N 0.75858 0.20488 0.92961 0.0
N663 N 0.75698 0.26701 0.93239 0.0
C664 C 0.74665 0.23332 0.93703 0.0
H665 H 0.79024 0.27901 0.91586 0.0
Co666 Co 0.75296 0.31664 0.93843 0.0
C667 C 0.70825 0.28759 0.96276 0.0
O668 O 0.67551 0.27409 0.95978 0.0
N669 N 0.74937 0.36693 0.94419 0.0
C670 C 0.73929 0.41674 0.95628 0.0
C671 C 0.73891 0.37874 0.95585 0.0
C672 C 0.75616 0.39895 0.93772 0.0
N673 N 0.75001 0.4297 0.94488 0.0
O674 O 0.70693 0.32199 0.9295 0.0
H675 H 0.73113 0.36133 0.96371 0.0
H676 H 0.76509 0.39978 0.92791 0.0
O677 O 0.72913 0.30018 0.95397 0.0
C678 C 0.71658 0.33151 0.91829 0.0
O679 O 0.75198 0.3377 0.91612 0.0
N680 N 0.79905 0.31161 0.94597 0.0
C681 C 0.87232 0.29319 0.95048 0.0
C682 C 0.84386 0.2726 0.95608 0.0
C683 C 0.80726 0.28213 0.95363 0.0
C684 C 0.82651 0.33322 0.94103 0.0
C685 C 0.86366 0.32472 0.94331 0.0
H686 H 0.78573 0.26402 0.95712 0.0
H687 H 0.81975 0.35524 0.93445 0.0
H688 H 0.73154 0.22953 0.94582 0.0
H689 H 0.79146 0.2066 0.91244 0.0
H690 H 0.73253 0.43355 0.96449 0.0
H691 H 0.84989 0.24784 0.96156 0.0
H692 H 0.88523 0.34063 0.93864 0.0
C693 C 0.99742 0.49808 0.16492 0.0
C694 C 0.03489 0.49169 0.16423 0.0
N695 N 0.04788 0.48571 0.17605 0.0
N696 N 0.98601 0.49588 0.17712 0.0
C697 C 0.01754 0.48773 0.18371 0.0
H698 H 0.98017 0.50652 0.15704 0.0
Co699 Co 0.93684 0.51025 0.18186 0.0
C700 C 0.95201 0.52648 0.20965 0.0
O701 O 0.95411 0.56201 0.20723 0.0
N702 N 0.88633 0.52431 0.18648 0.0
C703 C 0.83891 0.55514 0.19525 0.0
C704 C 0.87666 0.55194 0.19454 0.0
C705 C 0.8528 0.5112 0.18239 0.0
N706 N 0.82354 0.52981 0.18752 0.0
O707 O 0.92121 0.45971 0.17958 0.0
H708 H 0.89533 0.5708 0.19911 0.0
H709 H 0.84966 0.48924 0.17549 0.0
O710 O 0.94748 0.50282 0.20059 0.0
C711 C 0.91428 0.4606 0.16764 0.0
O712 O 0.91431 0.49298 0.16188 0.0
N713 N 0.95224 0.56023 0.18155 0.0
C714 C 0.97418 0.63283 0.17717 0.0
C715 C 0.99799 0.6082 0.18336 0.0
C716 C 0.98674 0.57187 0.18529 0.0
C717 C 0.93021 0.58335 0.17452 0.0
C718 C 0.94005 0.62027 0.17261 0.0
H719 H 0.00514 0.55387 0.19048 0.0
H720 H 0.90481 0.5732 0.1703 0.0
H721 H 0.01873 0.48618 0.19398 0.0
H722 H 0.05179 0.49422 0.15576 0.0
H723 H 0.82402 0.57527 0.20093 0.0
H724 H 0.02464 0.61724 0.18701 0.0
H725 H 0.9215 0.63865 0.16749 0.0
C726 C 0.7664 0.73997 0.41433 0.0
C727 C 0.76983 0.77781 0.41376 0.0
N728 N 0.76861 0.79156 0.42566 0.0
N729 N 0.7635 0.72903 0.42654 0.0
C730 C 0.76568 0.76121 0.43329 0.0
H731 H 0.76351 0.72188 0.4062 0.0
Co732 Co 0.74819 0.67988 0.43063 0.0
C733 C 0.72219 0.69155 0.45753 0.0
O734 O 0.68806 0.68626 0.45372 0.0
N735 N 0.73217 0.62914 0.43461 0.0
C736 C 0.69456 0.58227 0.43993 0.0
C737 C 0.6981 0.61976 0.43906 0.0
C738 C 0.74862 0.59531 0.43269 0.0
N739 N 0.72593 0.56646 0.43573 0.0
O740 O 0.79918 0.66464 0.43049 0.0
H741 H 0.675 0.63819 0.44042 0.0
H742 H 0.77578 0.59164 0.42849 0.0
O743 O 0.74895 0.69129 0.4494 0.0
C744 C 0.80228 0.65592 0.41874 0.0
O745 O 0.7721 0.65423 0.41175 0.0
N746 N 0.69945 0.69519 0.42808 0.0
C747 C 0.63191 0.7186 0.41852 0.0
C748 C 0.64979 0.73925 0.42795 0.0
C749 C 0.68397 0.72733 0.4325 0.0
C750 C 0.68325 0.67628 0.41831 0.0
C751 C 0.64881 0.68681 0.41365 0.0
H752 H 0.69769 0.74377 0.43965 0.0
H753 H 0.69725 0.65279 0.41408 0.0
H754 H 0.76168 0.76267 0.44347 0.0
H755 H 0.77144 0.79401 0.40512 0.0
H756 H 0.66966 0.56765 0.44278 0.0
H757 H 0.63727 0.76412 0.43186 0.0
H758 H 0.63582 0.67074 0.40617 0.0
C759 C 0.51378 0.51009 0.66496 0.0
C760 C 0.47617 0.51479 0.6637 0.0
N761 N 0.46204 0.52466 0.67505 0.0
N762 N 0.52406 0.51719 0.67705 0.0
C763 C 0.49179 0.52664 0.68297 0.0
H764 H 0.53208 0.49963 0.65765 0.0
Co765 Co 0.57323 0.50676 0.68283 0.0
C766 C 0.55341 0.50097 0.71077 0.0
O767 O 0.55113 0.46482 0.71013 0.0
N768 N 0.62352 0.49666 0.6886 0.0
C769 C 0.6704 0.47207 0.69972 0.0
C770 C 0.63265 0.47389 0.69835 0.0
C771 C 0.6572 0.50799 0.68411 0.0
N772 N 0.68609 0.49344 0.69076 0.0
O773 O 0.58674 0.55649 0.67835 0.0
H774 H 0.61353 0.45749 0.70378 0.0
H775 H 0.66076 0.52631 0.67607 0.0
O776 O 0.56081 0.52055 0.70085 0.0
C777 C 0.59478 0.54995 0.66669 0.0
O778 O 0.59834 0.51514 0.66311 0.0
N779 N 0.56007 0.45673 0.68456 0.0
C780 C 0.53977 0.38329 0.68115 0.0
C781 C 0.51506 0.40832 0.68672 0.0
C782 C 0.52542 0.44502 0.68808 0.0
C783 C 0.58361 0.43283 0.6785 0.0
C784 C 0.5744 0.39571 0.67697 0.0
H785 H 0.50564 0.46367 0.69232 0.0
H786 H 0.60927 0.4427 0.67439 0.0
H787 H 0.48973 0.53207 0.69306 0.0
H788 H 0.46008 0.50859 0.65527 0.0
H789 H 0.68521 0.45482 0.70645 0.0
H790 H 0.48752 0.39989 0.68969 0.0
H791 H 0.59385 0.37715 0.67235 0.0
C792 C 0.25833 0.25895 0.41373 0.0
C793 C 0.26185 0.22114 0.41284 0.0
N794 N 0.27048 0.20757 0.42438 0.0
N795 N 0.265 0.26987 0.42578 0.0
C796 C 0.27266 0.23775 0.43208 0.0
H797 H 0.24951 0.27712 0.40614 0.0
Co798 Co 0.25828 0.32003 0.43111 0.0
C799 C 0.24741 0.30074 0.45897 0.0
O800 O 0.21132 0.30012 0.45761 0.0
N801 N 0.25209 0.37126 0.43656 0.0
C802 C 0.22839 0.42019 0.44685 0.0
C803 C 0.23033 0.38228 0.44637 0.0
C804 C 0.26328 0.40396 0.43126 0.0
N805 N 0.24913 0.43389 0.43739 0.0
O806 O 0.30956 0.32907 0.42717 0.0
H807 H 0.2139 0.36435 0.45223 0.0
H808 H 0.27968 0.40603 0.42268 0.0
O809 O 0.26883 0.30705 0.4494 0.0
C810 C 0.30434 0.33684 0.41539 0.0
O811 O 0.27002 0.3421 0.41147 0.0
N812 N 0.20682 0.31175 0.43206 0.0
C813 C 0.13141 0.30166 0.42825 0.0
C814 C 0.1528 0.27315 0.43347 0.0
C815 C 0.19069 0.27845 0.43503 0.0
C816 C 0.18639 0.33838 0.42599 0.0
C817 C 0.14842 0.33444 0.42437 0.0
H818 H 0.20664 0.25606 0.43908 0.0
H819 H 0.19954 0.36261 0.42198 0.0
H820 H 0.27779 0.23629 0.4422 0.0
H821 H 0.25622 0.20464 0.40446 0.0
H822 H 0.21137 0.43652 0.45323 0.0
H823 H 0.1403 0.24719 0.43642 0.0
H824 H 0.13268 0.35636 0.4198 0.0
C825 C 0.49246 0.5016 0.16425 0.0
C826 C 0.53014 0.50356 0.16242 0.0
N827 N 0.54652 0.51236 0.17354 0.0
N828 N 0.48442 0.50929 0.17648 0.0
C829 C 0.51799 0.51654 0.18188 0.0
H830 H 0.47233 0.49313 0.15721 0.0
Co831 Co 0.43575 0.50329 0.18327 0.0
C832 C 0.46496 0.48754 0.20997 0.0
O833 O 0.46452 0.45156 0.20831 0.0
N834 N 0.38627 0.49806 0.19009 0.0
C835 C 0.33972 0.47928 0.20251 0.0
C836 C 0.37745 0.48015 0.20097 0.0
C837 C 0.35257 0.50762 0.18515 0.0
N838 N 0.32373 0.4965 0.19257 0.0
O839 O 0.42808 0.55541 0.18134 0.0
H840 H 0.3967 0.4664 0.20718 0.0
H841 H 0.34911 0.52162 0.17614 0.0
O842 O 0.45443 0.50965 0.20106 0.0
C843 C 0.4172 0.55669 0.16979 0.0
O844 O 0.41179 0.52542 0.16365 0.0
N845 N 0.44212 0.45126 0.18297 0.0
C846 C 0.44961 0.3758 0.17819 0.0
C847 C 0.47992 0.39649 0.18245 0.0
C848 C 0.47585 0.43426 0.18448 0.0
C849 C 0.41303 0.43159 0.17803 0.0
C850 C 0.41585 0.39362 0.17591 0.0
H851 H 0.49979 0.44937 0.18776 0.0
H852 H 0.38765 0.44529 0.17526 0.0
H853 H 0.52166 0.52196 0.19191 0.0
H854 H 0.54436 0.49789 0.15357 0.0
H855 H 0.3252 0.46516 0.2101 0.0
H856 H 0.50656 0.38358 0.18433 0.0
H857 H 0.39222 0.37857 0.17217 0.0
C858 C 0.28116 0.74933 0.92608 0.0
C859 C 0.28257 0.78673 0.92389 0.0
N860 N 0.25139 0.80225 0.92849 0.0
N861 N 0.24982 0.74073 0.9325 0.0
C862 C 0.23108 0.77352 0.93308 0.0
H863 H 0.30269 0.72971 0.92359 0.0
Co864 Co 0.24171 0.69086 0.9383 0.0
C865 C 0.21923 0.73405 0.9629 0.0
O866 O 0.22371 0.76791 0.95866 0.0
N867 N 0.23479 0.64085 0.94356 0.0
C868 C 0.23613 0.59086 0.95602 0.0
C869 C 0.23849 0.62878 0.95566 0.0
C870 C 0.23145 0.60915 0.93665 0.0
N871 N 0.23193 0.57838 0.94408 0.0
O872 O 0.19363 0.69122 0.93057 0.0
H873 H 0.24567 0.64604 0.96364 0.0
H874 H 0.23026 0.60853 0.92637 0.0
O875 O 0.22368 0.70637 0.9554 0.0
C876 C 0.20222 0.68585 0.91891 0.0
O877 O 0.23747 0.68102 0.91605 0.0
N878 N 0.28998 0.68905 0.94444 0.0
C879 C 0.36642 0.69505 0.94585 0.0
C880 C 0.34368 0.7188 0.95299 0.0
C881 C 0.30532 0.71526 0.95218 0.0
C882 C 0.31173 0.66387 0.93828 0.0
C883 C 0.35012 0.66595 0.93904 0.0
H884 H 0.28853 0.73634 0.95655 0.0
H885 H 0.29941 0.64407 0.93183 0.0
H886 H 0.2038 0.77669 0.93725 0.0
H887 H 0.30572 0.80175 0.91982 0.0
H888 H 0.23981 0.57354 0.96434 0.0
H889 H 0.3551 0.74208 0.95818 0.0
H890 H 0.36678 0.64668 0.93357 0.0
C891 C 0.01517 0.49478 0.66444 0.0
C892 C 0.9774 0.49238 0.6631 0.0
N893 N 0.9622 0.48661 0.67462 0.0
N894 N 0.02449 0.49032 0.67676 0.0
C895 C 0.99147 0.48436 0.68274 0.0
H896 H 0.03431 0.50227 0.65697 0.0
Co897 Co 0.07343 0.50168 0.68242 0.0
C898 C 0.05169 0.51692 0.70993 0.0
O899 O 0.04947 0.55273 0.70804 0.0
N900 N 0.12337 0.51292 0.68804 0.0
C901 C 0.1696 0.54068 0.69849 0.0
C902 C 0.13196 0.53831 0.69703 0.0
C903 C 0.15727 0.5006 0.68405 0.0
N904 N 0.18584 0.51699 0.69035 0.0
O905 O 0.08631 0.45042 0.68053 0.0
H906 H 0.11252 0.55611 0.70178 0.0
H907 H 0.16115 0.48038 0.67659 0.0
O908 O 0.05965 0.49465 0.70076 0.0
C909 C 0.0957 0.44966 0.66881 0.0
O910 O 0.09838 0.48115 0.66259 0.0
N911 N 0.06122 0.55234 0.68187 0.0
C912 C 0.04252 0.62404 0.67472 0.0
C913 C 0.01731 0.60233 0.68151 0.0
C914 C 0.0269 0.56632 0.68476 0.0
C915 C 0.08546 0.57301 0.67482 0.0
C916 C 0.07707 0.60933 0.67143 0.0
H917 H 0.00661 0.55 0.68977 0.0
H918 H 0.11093 0.56091 0.67131 0.0
H919 H 0.98862 0.48251 0.69296 0.0
H920 H 0.96215 0.49664 0.65435 0.0
H921 H 0.18395 0.55992 0.70468 0.0
H922 H 0.99029 0.61299 0.68422 0.0
H923 H 0.09675 0.62521 0.66586 0.0
C924 C 0.2777 0.74112 0.09791 0.0
C925 C 0.27972 0.77895 0.09922 0.0
N926 N 0.27392 0.79494 0.08779 0.0
N927 N 0.27116 0.73234 0.08566 0.0
C928 C 0.26929 0.76585 0.0797 0.0
H929 H 0.27952 0.72151 0.10563 0.0
Co930 Co 0.2602 0.68346 0.07983 0.0
C931 C 0.29059 0.67927 0.05388 0.0
O932 O 0.30698 0.64761 0.05655 0.0
N933 N 0.24794 0.63424 0.07396 0.0
C934 C 0.22094 0.58974 0.06246 0.0
C935 C 0.2254 0.62733 0.06396 0.0
C936 C 0.2567 0.59977 0.07836 0.0
N937 N 0.24063 0.57216 0.07152 0.0
O938 O 0.30936 0.66804 0.0844 0.0
H939 H 0.21273 0.64841 0.05806 0.0
H940 H 0.27468 0.59469 0.08637 0.0
O941 O 0.27412 0.69722 0.06267 0.0
C942 C 0.30443 0.65552 0.09564 0.0
O943 O 0.2704 0.65392 0.10014 0.0
N944 N 0.21201 0.69812 0.07706 0.0
C945 C 0.14084 0.72622 0.07904 0.0
C946 C 0.16369 0.73664 0.06885 0.0
C947 C 0.19934 0.72197 0.06797 0.0
C948 C 0.18957 0.6862 0.0866 0.0
C949 C 0.15363 0.6996 0.08771 0.0
H950 H 0.21707 0.73136 0.06039 0.0
H951 H 0.20023 0.66719 0.09367 0.0
H952 H 0.26314 0.76885 0.06971 0.0
H953 H 0.28436 0.79328 0.1081 0.0
H954 H 0.20377 0.57656 0.05533 0.0
H955 H 0.15487 0.75719 0.06197 0.0
H956 H 0.13646 0.68995 0.09549 0.0
C957 C 0.01513 0.51177 0.84996 0.0
C958 C 0.97767 0.51521 0.85178 0.0
N959 N 0.96191 0.52754 0.84095 0.0
N960 N 0.02397 0.52189 0.83801 0.0
C961 C 0.99088 0.53201 0.83275 0.0
H962 H 0.0343 0.49969 0.85668 0.0
Co963 Co 0.07281 0.51196 0.8318 0.0
C964 C 0.05138 0.50699 0.80389 0.0
O965 O 0.04982 0.47075 0.80423 0.0
N966 N 0.12287 0.50194 0.8258 0.0
C967 C 0.16936 0.47433 0.81532 0.0
C968 C 0.13169 0.47909 0.81604 0.0
C969 C 0.15668 0.51103 0.83078 0.0
N970 N 0.1852 0.49434 0.82458 0.0
O971 O 0.08633 0.56186 0.83608 0.0
H972 H 0.11227 0.464 0.81031 0.0
H973 H 0.16049 0.52779 0.8392 0.0
O974 O 0.05922 0.52599 0.8139 0.0
C975 C 0.09482 0.55688 0.84777 0.0
O976 O 0.09833 0.52258 0.85189 0.0
N977 N 0.0596 0.46198 0.83 0.0
C978 C 0.03913 0.38837 0.83281 0.0
C979 C 0.01446 0.41385 0.82747 0.0
C980 C 0.0249 0.45063 0.82642 0.0
C981 C 0.08306 0.43767 0.8359 0.0
C982 C 0.07374 0.40046 0.83715 0.0
H983 H 0.00515 0.46973 0.82237 0.0
H984 H 0.10877 0.44726 0.84005 0.0
H985 H 0.98781 0.53961 0.82286 0.0
H986 H 0.96304 0.5063 0.86023 0.0
H987 H 0.184 0.45616 0.80883 0.0
H988 H 0.98693 0.40566 0.8244 0.0
H989 H 0.09316 0.38152 0.8416 0.0
C990 C 0.2542 0.25998 0.59931 0.0
C991 C 0.25201 0.22233 0.60103 0.0
N992 N 0.2441 0.2063 0.58979 0.0
N993 N 0.24755 0.2684 0.58703 0.0
C994 C 0.24038 0.23499 0.5815 0.0
H995 H 0.26293 0.27965 0.60645 0.0
Co996 Co 0.25772 0.31673 0.58051 0.0
C997 C 0.26486 0.29058 0.55311 0.0
O998 O 0.30087 0.28668 0.554 0.0
N999 N 0.26767 0.36601 0.57389 0.0
C1000 C 0.29326 0.41101 0.5622 0.0
C1001 C 0.28961 0.37343 0.56377 0.0
C1002 C 0.25834 0.40037 0.57828 0.0
N1003 N 0.2738 0.42819 0.57138 0.0
O1004 O 0.20738 0.33064 0.58419 0.0
H1005 H 0.30398 0.35308 0.55815 0.0
H1006 H 0.24183 0.40523 0.58667 0.0
O1007 O 0.24546 0.30144 0.56269 0.0
C1008 C 0.21211 0.34282 0.59552 0.0
O1009 O 0.24612 0.34456 0.60004 0.0
N1010 N 0.30839 0.30426 0.5796 0.0
C1011 C 0.3807 0.28616 0.58634 0.0
C1012 C 0.35828 0.26012 0.58023 0.0
C1013 C 0.32196 0.26945 0.57719 0.0
C1014 C 0.33016 0.32957 0.58576 0.0
C1015 C 0.36664 0.32142 0.58893 0.0
H1016 H 0.30486 0.24826 0.57301 0.0
H1017 H 0.31871 0.35553 0.58905 0.0
H1018 H 0.23656 0.23141 0.57137 0.0
H1019 H 0.25777 0.20774 0.60981 0.0
H1020 H 0.30962 0.42455 0.55493 0.0
H1021 H 0.36838 0.23246 0.57813 0.0
H1022 H 0.38294 0.34178 0.59405 0.0
C1023 C 0.49856 0.50001 0.34931 0.0
C1024 C 0.53626 0.49523 0.35028 0.0
N1025 N 0.55007 0.48867 0.33861 0.0
N1026 N 0.48801 0.49624 0.33707 0.0
C1027 C 0.52017 0.48898 0.33075 0.0
H1028 H 0.48028 0.50784 0.357 0.0
Co1029 Co 0.43835 0.50565 0.33167 0.0
C1030 C 0.4586 0.52602 0.30462 0.0
O1031 O 0.45931 0.56107 0.30782 0.0
N1032 N 0.38754 0.51439 0.32615 0.0
C1033 C 0.33924 0.53878 0.31572 0.0
C1034 C 0.37705 0.53827 0.31688 0.0
C1035 C 0.35453 0.50102 0.33058 0.0
N1036 N 0.32481 0.51543 0.32433 0.0
O1037 O 0.42837 0.45363 0.33363 0.0
H1038 H 0.39505 0.55637 0.31167 0.0
H1039 H 0.35207 0.48147 0.33832 0.0
O1040 O 0.45261 0.50092 0.31311 0.0
C1041 C 0.42042 0.45542 0.34551 0.0
O1042 O 0.41505 0.48836 0.3506 0.0
N1043 N 0.44763 0.55702 0.33279 0.0
C1044 C 0.46213 0.62859 0.34117 0.0
C1045 C 0.4895 0.60839 0.33481 0.0
C1046 C 0.48199 0.57242 0.33095 0.0
C1047 C 0.42124 0.57627 0.33943 0.0
C1048 C 0.42755 0.61246 0.34341 0.0
H1049 H 0.50382 0.55735 0.32621 0.0
H1050 H 0.39566 0.56313 0.3423 0.0
H1051 H 0.52191 0.486 0.32053 0.0
H1052 H 0.55256 0.49865 0.35885 0.0
H1053 H 0.32345 0.55653 0.30941 0.0
H1054 H 0.51657 0.62024 0.33287 0.0
H1055 H 0.40617 0.62713 0.34863 0.0
H1056 H 0.22147 0.17188 0.1215 0.0
H1057 H 0.13378 0.15845 0.09389 0.0
H1058 H 0.17916 0.1569 0.13845 0.0
H1059 H 0.09011 0.14453 0.11118 0.0
H1060 H 0.0568 0.05499 0.1415 0.0
H1061 H 0.08115 0.09251 0.12436 0.0
H1062 H 0.12849 0.16821 0.15183 0.0
H1063 H 0.10519 0.12899 0.16911 0.0
C1064 C 0.19277 0.16635 0.11906 0.0
C1065 C 0.18116 0.16555 0.1063 0.0
C1066 C 0.16818 0.1583 0.12888 0.0
C1067 C 0.13101 0.1493 0.12629 0.0
C1068 C 0.11867 0.15085 0.11355 0.0
C1069 C 0.14356 0.15898 0.10362 0.0
C1070 C 0.0714 0.08035 0.14388 0.0
C1071 C 0.07958 0.08886 0.15661 0.0
C1072 C 0.08524 0.10211 0.13401 0.0
C1073 C 0.10759 0.13309 0.13663 0.0
C1074 C 0.11215 0.14399 0.14944 0.0
C1075 C 0.09836 0.12192 0.15938 0.0
H1076 H 0.08783 0.88298 0.34816 0.0
H1077 H 0.08805 0.97961 0.37243 0.0
H1078 H 0.10189 0.84391 0.36665 0.0
H1079 H 0.10348 0.9417 0.39049 0.0
H1080 H 0.13531 0.8767 0.4229 0.0
H1081 H 0.09281 0.89747 0.40611 0.0
H1082 H 0.15529 0.8336 0.3786 0.0
H1083 H 0.19559 0.81174 0.39534 0.0
C1084 C 0.09041 0.89577 0.35744 0.0
C1085 C 0.08762 0.93441 0.35879 0.0
C1086 C 0.09861 0.87349 0.36804 0.0
C1087 C 0.10422 0.88954 0.38015 0.0
C1088 C 0.09893 0.92795 0.38149 0.0
C1089 C 0.09065 0.94995 0.37099 0.0
C1090 C 0.13858 0.86585 0.41336 0.0
C1091 C 0.16882 0.84307 0.41035 0.0
C1092 C 0.1147 0.87813 0.40367 0.0
C1093 C 0.12116 0.86815 0.39086 0.0
C1094 C 0.14906 0.84198 0.38824 0.0
C1095 C 0.17247 0.82957 0.39788 0.0
H1096 H 0.31419 0.80056 0.61711 0.0
H1097 H 0.37649 0.86884 0.59112 0.0
H1098 H 0.35209 0.8208 0.63454 0.0
H1099 H 0.41784 0.88678 0.60851 0.0
H1100 H 0.41717 0.96965 0.64105 0.0
H1101 H 0.40796 0.92991 0.62333 0.0
H1102 H 0.39669 0.83583 0.6487 0.0
H1103 H 0.40346 0.87769 0.66697 0.0
C1104 C 0.33748 0.81859 0.61503 0.0
C1105 C 0.34179 0.83404 0.60285 0.0
C1106 C 0.35962 0.83015 0.62512 0.0
C1107 C 0.38726 0.85704 0.62322 0.0
C1108 C 0.39553 0.86759 0.61054 0.0
C1109 C 0.37246 0.85672 0.60044 0.0
C1110 C 0.41273 0.94045 0.64299 0.0
C1111 C 0.4096 0.92711 0.65551 0.0
C1112 C 0.40825 0.91714 0.63263 0.0
C1113 C 0.40103 0.87921 0.63433 0.0
C1114 C 0.40115 0.86505 0.64691 0.0
C1115 C 0.40524 0.88888 0.65743 0.0
H1116 H 0.389 0.1291 0.84103 0.0
H1117 H 0.43485 0.05854 0.87022 0.0
H1118 H 0.37156 0.17462 0.85734 0.0
H1119 H 0.41607 0.10192 0.88637 0.0
H1120 H 0.3721 0.17281 0.91582 0.0
H1121 H 0.41327 0.15576 0.8982 0.0
H1122 H 0.32302 0.17393 0.87173 0.0
H1123 H 0.28349 0.19265 0.88904 0.0
C1124 C 0.39614 0.12382 0.85086 0.0
C1125 C 0.41241 0.09006 0.85442 0.0
C1126 C 0.38587 0.14959 0.86026 0.0
C1127 C 0.39151 0.14172 0.8733 0.0
C1128 C 0.41126 0.10947 0.87655 0.0
C1129 C 0.42164 0.08415 0.86724 0.0
C1130 C 0.36174 0.17436 0.90617 0.0
C1131 C 0.32446 0.18319 0.9038 0.0
C1132 C 0.38512 0.16426 0.89605 0.0
C1133 C 0.37138 0.16253 0.88347 0.0
C1134 C 0.33503 0.17498 0.88115 0.0
C1135 C 0.31201 0.18527 0.89117 0.0
H1136 H 0.89521 0.8814 0.84418 0.0
H1137 H 0.93229 0.96153 0.87188 0.0
H1138 H 0.87839 0.83898 0.86149 0.0
H1139 H 0.91365 0.92132 0.88891 0.0
H1140 H 0.86714 0.85662 0.91958 0.0
H1141 H 0.91092 0.87135 0.90243 0.0
H1142 H 0.82766 0.84032 0.87471 0.0
H1143 H 0.7859 0.82398 0.89157 0.0
C1144 C 0.90043 0.88957 0.85392 0.0
C1145 C 0.91387 0.92507 0.85671 0.0
C1146 C 0.89053 0.86555 0.86387 0.0
C1147 C 0.89356 0.87702 0.8767 0.0
C1148 C 0.91081 0.91107 0.87929 0.0
C1149 C 0.92099 0.93459 0.86944 0.0
C1150 C 0.85892 0.85208 0.9098 0.0
C1151 C 0.82283 0.8404 0.90688 0.0
C1152 C 0.88378 0.86069 0.89995 0.0
C1153 C 0.87268 0.85796 0.88707 0.0
C1154 C 0.8377 0.84278 0.88437 0.0
C1155 C 0.81327 0.83402 0.89412 0.0
H1156 H 0.9576 0.09979 0.65759 0.0
H1157 H 0.83938 0.08323 0.66052 0.0
H1158 H 0.94863 0.13258 0.63729 0.0
H1159 H 0.83046 0.11587 0.64038 0.0
H1160 H 0.84846 0.09735 0.59724 0.0
H1161 H 0.87822 0.08076 0.61733 0.0
H1162 H 0.88447 0.19635 0.62754 0.0
H1163 H 0.85475 0.21299 0.60737 0.0
C1164 C 0.9296 0.10529 0.65431 0.0
C1165 C 0.89903 0.08997 0.66077 0.0
C1166 C 0.92458 0.12343 0.64262 0.0
C1167 C 0.88893 0.12634 0.63733 0.0
C1168 C 0.85818 0.11399 0.64435 0.0
C1169 C 0.8632 0.09591 0.65596 0.0
C1170 C 0.85869 0.11935 0.60331 0.0
C1171 C 0.84996 0.15647 0.60063 0.0
C1172 C 0.87515 0.10984 0.61491 0.0
C1173 C 0.88332 0.13736 0.62393 0.0
C1174 C 0.87873 0.17476 0.62065 0.0
C1175 C 0.86228 0.18426 0.60902 0.0
H1176 H 0.65808 0.09201 0.34459 0.0
H1177 H 0.54626 0.09915 0.35899 0.0
H1178 H 0.68141 0.1185 0.36439 0.0
H1179 H 0.56954 0.12595 0.37883 0.0
H1180 H 0.65097 0.1875 0.41079 0.0
H1181 H 0.61691 0.17965 0.39063 0.0
H1182 H 0.67062 0.07376 0.3851 0.0
H1183 H 0.70395 0.0814 0.40507 0.0
C1184 C 0.63831 0.10171 0.35162 0.0
C1185 C 0.60041 0.094 0.35024 0.0
C1186 C 0.65166 0.11625 0.36304 0.0
C1187 C 0.62721 0.1235 0.37317 0.0
C1188 C 0.58885 0.12064 0.37114 0.0
C1189 C 0.57553 0.10582 0.35972 0.0
C1190 C 0.65392 0.16182 0.40554 0.0
C1191 C 0.67963 0.13477 0.40948 0.0
C1192 C 0.63505 0.15767 0.39393 0.0
C1193 C 0.6422 0.12668 0.3862 0.0
C1194 C 0.6654 0.09834 0.39076 0.0
C1195 C 0.68391 0.10235 0.40228 0.0
H1196 H 0.57139 0.88659 0.15931 0.0
H1197 H 0.6617 0.9615 0.15123 0.0
H1198 H 0.58329 0.85395 0.1392 0.0
H1199 H 0.674 0.92891 0.13141 0.0
H1200 H 0.66301 0.90439 0.09178 0.0
H1201 H 0.63498 0.9278 0.11129 0.0
H1202 H 0.63373 0.81684 0.12676 0.0
H1203 H 0.66142 0.79353 0.1071 0.0
C1204 C 0.59473 0.89501 0.15351 0.0
C1205 C 0.61585 0.92634 0.15678 0.0
C1206 C 0.60116 0.87675 0.14194 0.0
C1207 C 0.62859 0.88989 0.13356 0.0
C1208 C 0.6518 0.91902 0.13748 0.0
C1209 C 0.6454 0.93711 0.14895 0.0
C1210 C 0.65418 0.88469 0.09896 0.0
C1211 C 0.66391 0.84719 0.09793 0.0
C1212 C 0.63904 0.89815 0.11027 0.0
C1213 C 0.63341 0.8742 0.12066 0.0
C1214 C 0.63801 0.83589 0.11892 0.0
C1215 C 0.65323 0.82246 0.10759 0.0
H1216 H 0.63543 0.64321 0.59266 0.0
H1217 H 0.71492 0.68743 0.61932 0.0
H1218 H 0.59424 0.62729 0.61041 0.0
H1219 H 0.67602 0.66965 0.63685 0.0
H1220 H 0.61336 0.62459 0.66863 0.0
H1221 H 0.6273 0.66623 0.65077 0.0
H1222 H 0.59686 0.57909 0.62443 0.0
H1223 H 0.58108 0.53959 0.64193 0.0
C1224 C 0.64366 0.65025 0.60226 0.0
C1225 C 0.67868 0.66553 0.60466 0.0
C1226 C 0.62039 0.64078 0.61248 0.0
C1227 C 0.63215 0.64599 0.62521 0.0
C1228 C 0.66555 0.66503 0.62734 0.0
C1229 C 0.68831 0.6748 0.61721 0.0
C1230 C 0.60876 0.61505 0.65899 0.0
C1231 C 0.59727 0.57856 0.65667 0.0
C1232 C 0.61698 0.63867 0.64873 0.0
C1233 C 0.6141 0.62595 0.63602 0.0
C1234 C 0.59935 0.59046 0.63391 0.0
C1235 C 0.5909 0.56732 0.64406 0.0
H1236 H 0.64014 0.33955 0.91889 0.0
H1237 H 0.73384 0.33234 0.89337 0.0
H1238 H 0.59991 0.35504 0.90082 0.0
H1239 H 0.69488 0.34916 0.87569 0.0
H1240 H 0.62647 0.38321 0.84396 0.0
H1241 H 0.6478 0.34089 0.86074 0.0
H1242 H 0.59257 0.40902 0.88886 0.0
H1243 H 0.57021 0.44932 0.87223 0.0
C1244 C 0.65199 0.34076 0.90943 0.0
C1245 C 0.69024 0.3356 0.9076 0.0
C1246 C 0.62908 0.34979 0.89907 0.0
C1247 C 0.64411 0.35386 0.88673 0.0
C1248 C 0.68192 0.34595 0.88491 0.0
C1249 C 0.70455 0.33686 0.89517 0.0
C1250 C 0.61786 0.38805 0.85369 0.0
C1251 C 0.59742 0.41981 0.85686 0.0
C1252 C 0.63034 0.36416 0.86334 0.0
C1253 C 0.62272 0.37194 0.87626 0.0
C1254 C 0.59903 0.40174 0.87913 0.0
C1255 C 0.5865 0.42524 0.86955 0.0
H1256 H 0.76183 0.35163 0.12325 0.0
H1257 H 0.85874 0.3376 0.09951 0.0
H1258 H 0.80052 0.36943 0.14087 0.0
H1259 H 0.89837 0.35403 0.11758 0.0
H1260 H 0.9401 0.44842 0.1442 0.0
H1261 H 0.91329 0.40846 0.12824 0.0
H1262 H 0.84346 0.35816 0.15693 0.0
H1263 H 0.86948 0.40038 0.17291 0.0
C1264 C 0.79163 0.35173 0.12183 0.0
C1265 C 0.80713 0.34386 0.10986 0.0
C1266 C 0.81403 0.36145 0.13209 0.0
C1267 C 0.8528 0.36334 0.13078 0.0
C1268 C 0.86858 0.35345 0.11895 0.0
C1269 C 0.84594 0.34391 0.10857 0.0
C1270 C 0.91973 0.42805 0.14718 0.0
C1271 C 0.90642 0.42779 0.15973 0.0
C1272 C 0.90444 0.40482 0.13799 0.0
C1273 C 0.87548 0.38043 0.14114 0.0
C1274 C 0.86503 0.37732 0.15407 0.0
C1275 C 0.88027 0.40101 0.1633 0.0
H1276 H 0.86911 0.60501 0.34782 0.0
H1277 H 0.95973 0.55393 0.36812 0.0
H1278 H 0.85283 0.64045 0.36694 0.0
H1279 H 0.94366 0.58898 0.38717 0.0
H1280 H 0.84795 0.59585 0.41874 0.0
H1281 H 0.88703 0.57826 0.4007 0.0
H1282 H 0.87063 0.68666 0.38411 0.0
H1283 H 0.83216 0.70417 0.40225 0.0
C1284 C 0.88665 0.60288 0.35616 0.0
C1285 C 0.91586 0.57718 0.35649 0.0
C1286 C 0.87725 0.62287 0.36715 0.0
C1287 C 0.89677 0.61711 0.37863 0.0
C1288 C 0.92793 0.59374 0.37855 0.0
C1289 C 0.93735 0.57402 0.36759 0.0
C1290 C 0.85471 0.61659 0.41165 0.0
C1291 C 0.83772 0.65155 0.41201 0.0
C1292 C 0.87668 0.60646 0.40121 0.0
C1293 C 0.88149 0.63099 0.39088 0.0
C1294 C 0.86719 0.6671 0.39184 0.0
C1295 C 0.84567 0.6773 0.40234 0.0
H1296 H 0.29535 0.32112 0.39073 0.0
H1297 H 0.37927 0.35465 0.41765 0.0
H1298 H 0.33482 0.33748 0.37337 0.0
H1299 H 0.42139 0.36837 0.39996 0.0
H1300 H 0.44548 0.45623 0.3694 0.0
H1301 H 0.42821 0.41539 0.38633 0.0
H1302 H 0.38004 0.33965 0.35893 0.0
H1303 H 0.39482 0.38352 0.34188 0.0
C1304 C 0.32297 0.33119 0.39294 0.0
C1305 C 0.33371 0.33798 0.40558 0.0
C1306 C 0.34619 0.34006 0.38284 0.0
C1307 C 0.38144 0.35543 0.38502 0.0
C1308 C 0.39392 0.35805 0.39778 0.0
C1309 C 0.37007 0.34973 0.40799 0.0
C1310 C 0.43169 0.43051 0.36693 0.0
C1311 C 0.42034 0.42362 0.35436 0.0
C1312 C 0.42208 0.40653 0.37674 0.0
C1313 C 0.40132 0.37436 0.37427 0.0
C1314 C 0.39448 0.36496 0.36138 0.0
C1315 C 0.4035 0.38968 0.3515 0.0
H1316 H 0.46492 0.58983 0.1537 0.0
H1317 H 0.35344 0.59544 0.16847 0.0
H1318 H 0.44453 0.62079 0.13416 0.0
H1319 H 0.33301 0.62618 0.14898 0.0
H1320 H 0.30854 0.59072 0.10782 0.0
H1321 H 0.34206 0.57912 0.12751 0.0
H1322 H 0.39905 0.68373 0.12355 0.0
H1323 H 0.36466 0.69571 0.10364 0.0
C1324 C 0.43667 0.60014 0.15314 0.0
C1325 C 0.41082 0.59097 0.16266 0.0
C1326 C 0.42496 0.61741 0.1419 0.0
C1327 C 0.38723 0.6254 0.14008 0.0
C1328 C 0.36232 0.62029 0.15023 0.0
C1329 C 0.37407 0.60324 0.16146 0.0
C1330 C 0.32931 0.61058 0.11086 0.0
C1331 C 0.33447 0.64382 0.10417 0.0
C1332 C 0.34801 0.60423 0.12222 0.0
C1333 C 0.37231 0.631 0.12713 0.0
C1334 C 0.38014 0.6629 0.11993 0.0
C1335 C 0.36105 0.66942 0.10848 0.0
H1336 H 0.11616 0.63027 0.84454 0.0
H1337 H 0.07953 0.55093 0.8726 0.0
H1338 H 0.13038 0.67444 0.86165 0.0
H1339 H 0.0951 0.59315 0.88943 0.0
H1340 H 0.1285 0.66492 0.92006 0.0
H1341 H 0.09035 0.64551 0.90197 0.0
H1342 H 0.17851 0.67786 0.8763 0.0
H1343 H 0.21487 0.69892 0.89412 0.0
C1344 C 0.11058 0.62257 0.85431 0.0
C1345 C 0.09768 0.58692 0.85726 0.0
C1346 C 0.11892 0.64764 0.86414 0.0
C1347 C 0.1145 0.63732 0.87703 0.0
C1348 C 0.09865 0.60265 0.87974 0.0
C1349 C 0.09027 0.57798 0.87002 0.0
C1350 C 0.1389 0.66907 0.91051 0.0
C1351 C 0.1749 0.68258 0.90851 0.0
C1352 C 0.11732 0.65759 0.90011 0.0
C1353 C 0.13164 0.65909 0.8876 0.0
C1354 C 0.16619 0.67621 0.88567 0.0
C1355 C 0.18739 0.68792 0.89598 0.0
H1356 H 0.21165 0.40778 0.60766 0.0
H1357 H 0.14853 0.30689 0.6033 0.0
H1358 H 0.17818 0.422 0.6271 0.0
H1359 H 0.1139 0.32179 0.62295 0.0
H1360 H 0.16014 0.41137 0.66796 0.0
H1361 H 0.182 0.37937 0.64887 0.0
H1362 H 0.07172 0.38434 0.63298 0.0
H1363 H 0.04995 0.41655 0.65209 0.0
C1364 C 0.18944 0.38939 0.6106 0.0
C1365 C 0.18234 0.35647 0.6039 0.0
C1366 C 0.17076 0.39722 0.62185 0.0
C1367 C 0.1443 0.37244 0.62667 0.0
C1368 C 0.13458 0.34105 0.61945 0.0
C1369 C 0.15381 0.3329 0.60812 0.0
C1370 C 0.1401 0.4034 0.66078 0.0
C1371 C 0.10327 0.41571 0.66159 0.0
C1372 C 0.15266 0.38561 0.64977 0.0
C1373 C 0.12853 0.37982 0.63944 0.0
C1374 C 0.09073 0.3882 0.64085 0.0
C1375 C 0.07824 0.40624 0.65184 0.0
H1376 H 0.29421 0.14589 0.98029 0.0
H1377 H 0.2502 0.2537 0.97079 0.0
H1378 H 0.28362 0.15799 1.00269 0.0
H1379 H 0.23915 0.26609 0.99342 0.0
H1380 H 0.1727 0.24033 0.03138 0.0
H1381 H 0.19427 0.24085 0.00929 0.0
H1382 H 0.29883 0.19341 0.02116 0.0
H1383 H 0.27705 0.19136 0.0428 0.0
C1384 C 0.28375 0.17291 0.98308 0.0
C1385 C 0.27339 0.19892 0.97382 0.0
C1386 C 0.27737 0.17982 0.99594 0.0
C1387 C 0.26009 0.21289 0.99989 0.0
C1388 C 0.25205 0.24014 0.99068 0.0
C1389 C 0.25895 0.23332 0.97773 0.0
C1390 C 0.20036 0.23022 0.02928 0.0
C1391 C 0.22295 0.21572 0.03901 0.0
C1392 C 0.21289 0.23087 0.01662 0.0
C1393 C 0.24832 0.21709 0.01342 0.0
C1394 C 0.27125 0.20388 0.02322 0.0
C1395 C 0.25871 0.20302 0.03575 0.0
H1396 H 0.0791 0.0114 0.29466 0.0
H1397 H 1.00298 0.92814 0.28089 0.0
H1398 H 0.08267 0.03816 0.2736 0.0
H1399 H 0.00904 0.95298 0.25946 0.0
H1400 H 0.01246 0.01197 0.22192 0.0
H1401 H 0.99722 1.00041 0.24432 0.0
H1402 H 0.11105 0.02435 0.25458 0.0
H1403 H 0.12533 0.03701 0.23256 0.0
C1404 C 0.06275 0.99893 0.2872 0.0
C1405 C 0.04027 0.96787 0.28963 0.0
C1406 C 0.06526 0.01401 0.27498 0.0
C1407 C 0.04629 0.9978 0.26468 0.0
C1408 C 0.02357 0.96681 0.26711 0.0
C1409 C 0.02051 0.95217 0.27942 0.0
C1410 C 0.03361 0.01628 0.22909 0.0
C1411 C 0.07001 0.02564 0.22553 0.0
C1412 C 0.02516 0.00896 0.2419 0.0
C1413 C 0.05296 0.01094 0.25136 0.0
C1414 C 0.08861 0.02292 0.24775 0.0
C1415 C 0.09692 0.0302 0.23505 0.0
H1416 H 0.29585 0.77503 0.54085 0.0
H1417 H 0.18635 0.82281 0.53685 0.0
H1418 H 0.30146 0.77313 0.51753 0.0
H1419 H 0.19102 0.81938 0.5141 0.0
H1420 H 0.22328 0.84132 0.47305 0.0
H1421 H 0.21852 0.84481 0.49616 0.0
H1422 H 0.27768 0.74069 0.49944 0.0
H1423 H 0.28378 0.73848 0.47634 0.0
C1424 C 0.27322 0.78525 0.53503 0.0
C1425 C 0.24057 0.79859 0.5407 0.0
C1426 C 0.27612 0.7838 0.5217 0.0
C1427 C 0.2465 0.79587 0.51388 0.0
C1428 C 0.21456 0.81021 0.51969 0.0
C1429 C 0.21176 0.81173 0.53284 0.0
C1430 C 0.23404 0.81863 0.47873 0.0
C1431 C 0.25317 0.78925 0.47297 0.0
C1432 C 0.23175 0.82072 0.49199 0.0
C1433 C 0.24812 0.79317 0.49974 0.0
C1434 C 0.26556 0.76283 0.49384 0.0
C1435 C 0.26832 0.7611 0.48061 0.0
H1436 H 0.51684 0.01184 0.78705 0.0
H1437 H 0.3977 0.00912 0.7903 0.0
H1438 H 0.51175 0.00992 0.76394 0.0
H1439 H 0.39204 0.00337 0.76749 0.0
H1440 H 0.39091 0.02094 0.72492 0.0
H1441 H 0.3938 0.02525 0.74776 0.0
H1442 H 0.50143 0.97133 0.74722 0.0
H1443 H 0.49937 0.97057 0.72398 0.0
C1444 C 0.4895 0.01212 0.78274 0.0
C1445 C 0.45765 0.01188 0.79039 0.0
C1446 C 0.48646 0.00972 0.76949 0.0
C1447 C 0.45146 0.00553 0.76363 0.0
C1448 C 0.41955 0.0071 0.7714 0.0
C1449 C 0.42266 0.01074 0.78458 0.0
C1450 C 0.41455 0.00872 0.72975 0.0
C1451 C 0.44459 0.99473 0.72273 0.0
C1452 C 0.41644 0.01139 0.74294 0.0
C1453 C 0.44816 0.99925 0.74957 0.0
C1454 C 0.47696 0.98218 0.74253 0.0
C1455 C 0.47543 0.9805 0.72921 0.0
H1456 H 0.80906 0.82391 0.97369 0.0
H1457 H 0.70941 0.758 0.97564 0.0
H1458 H 0.81843 0.81531 0.99653 0.0
H1459 H 0.71912 0.74809 0.99832 0.0
H1460 H 0.71516 0.79665 0.03931 0.0
H1461 H 0.7113 0.78703 0.01636 0.0
H1462 H 0.8309 0.77721 0.01447 0.0
H1463 H 0.83457 0.78814 0.03726 0.0
C1464 C 0.7902 0.80617 0.97893 0.0
C1465 C 0.7587 0.79149 0.97299 0.0
C1466 C 0.79533 0.80131 0.99203 0.0
C1467 C 0.76913 0.78145 0.99934 0.0
C1468 C 0.73934 0.76422 0.99308 0.0
C1469 C 0.73407 0.76942 0.98006 0.0
C1470 C 0.74044 0.79154 0.034 0.0
C1471 C 0.77513 0.79354 0.04 0.0
C1472 C 0.73835 0.78597 0.02084 0.0
C1473 C 0.77092 0.78182 0.01349 0.0
C1474 C 0.80536 0.78119 0.01974 0.0
C1475 C 0.80743 0.78717 0.03282 0.0
H1476 H 0.01495 0.98621 0.78799 0.0
H1477 H 0.89625 0.99951 0.79006 0.0
H1478 H 0.01158 0.98537 0.7648 0.0
H1479 H 0.89263 1.00214 0.76711 0.0
H1480 H 0.89347 0.97937 0.72482 0.0
H1481 H 0.8948 0.9759 0.74776 0.0
H1482 H 0.00471 0.02466 0.74774 0.0
H1483 H 0.00392 0.0251 0.72447 0.0
C1484 C 0.98799 0.98755 0.78343 0.0
C1485 C 0.95575 0.99169 0.79075 0.0
C1486 C 0.98605 0.98832 0.77014 0.0
C1487 C 0.9519 0.99456 0.76391 0.0
C1488 C 0.91945 0.99673 0.77137 0.0
C1489 C 0.92137 0.99489 0.78461 0.0
C1490 C 0.91737 0.99052 0.72978 0.0
C1491 C 0.94825 0.0033 0.72295 0.0
C1492 C 0.91832 0.98836 0.743 0.0
C1493 C 0.95007 0.99952 0.74979 0.0
C1494 C 0.98011 0.01477 0.74291 0.0
C1495 C 0.97938 0.01615 0.72958 0.0
H1496 H 0.79443 0.22753 0.54027 0.0
H1497 H 0.6855 0.17746 0.5396 0.0
H1498 H 0.79658 0.2239 0.51684 0.0
H1499 H 0.68708 0.1749 0.51672 0.0
H1500 H 0.72034 0.13479 0.4773 0.0
H1501 H 0.71743 0.14136 0.50033 0.0
H1502 H 0.76694 0.25028 0.49745 0.0
H1503 H 0.77051 0.24289 0.47428 0.0
C1504 C 0.77122 0.21562 0.53516 0.0
C1505 C 0.73979 0.20299 0.54176 0.0
C1506 C 0.77215 0.21393 0.52178 0.0
C1507 C 0.74188 0.19916 0.5149 0.0
C1508 C 0.711 0.18607 0.52164 0.0
C1509 C 0.71005 0.18785 0.53482 0.0
C1510 C 0.72916 0.16068 0.48158 0.0
C1511 C 0.74436 0.18885 0.47407 0.0
C1512 C 0.72796 0.16438 0.49478 0.0
C1513 C 0.74213 0.19635 0.50077 0.0
C1514 C 0.75622 0.22516 0.49316 0.0
C1515 C 0.75747 0.22134 0.4799 0.0
H1516 H 0.49406 0.99551 0.2833 0.0
H1517 H 0.60959 0.01546 0.29139 0.0
H1518 H 0.50702 0.99736 0.26053 0.0
H1519 H 0.62366 0.01391 0.26887 0.0
H1520 H 0.6376 0.03653 0.22755 0.0
H1521 H 0.62213 0.04066 0.24967 0.0
H1522 H 0.53157 0.96349 0.24399 0.0
H1523 H 0.5454 0.96209 0.22123 0.0
C1524 C 0.52212 1.00119 0.28013 0.0
C1525 C 0.55067 0.00641 0.28901 0.0
C1526 C 0.52981 1.0013 0.26709 0.0
C1527 C 0.56654 0.00529 0.26268 0.0
C1528 C 0.59488 0.01158 0.27171 0.0
C1529 C 0.5869 0.01267 0.2847 0.0
C1530 C 0.61437 0.02022 0.23094 0.0
C1531 C 0.59268 0.99901 0.22253 0.0
C1532 C 0.60563 0.02237 0.24379 0.0
C1533 C 0.57552 1.00246 0.24883 0.0
C1534 C 0.55452 0.97996 0.2405 0.0
C1535 C 0.56282 0.97851 0.22746 0.0
H1536 H 0.71072 0.66651 0.53962 0.0
H1537 H 0.7795 0.76316 0.53437 0.0
H1538 H 0.70228 0.66205 0.51661 0.0
H1539 H 0.77054 0.75951 0.51142 0.0
H1540 H 0.78566 0.71225 0.47085 0.0
H1541 H 0.79122 0.71994 0.49401 0.0
H1542 H 0.67563 0.6905 0.49839 0.0
H1543 H 0.67036 0.68192 0.47581 0.0
C1544 C 0.72251 0.68779 0.53357 0.0
C1545 C 0.74513 0.71555 0.53873 0.0
C1546 C 0.71819 0.68505 0.52037 0.0
C1547 C 0.73628 0.71015 0.51213 0.0
C1548 C 0.75696 0.73925 0.51743 0.0
C1549 C 0.76141 0.74183 0.53058 0.0
C1550 C 0.76164 0.70731 0.47681 0.0
C1551 C 0.72767 0.69654 0.47141 0.0
C1552 C 0.76464 0.71196 0.49005 0.0
C1553 C 0.73377 0.70576 0.49808 0.0
C1554 C 0.70007 0.69499 0.49259 0.0
C1555 C 0.69709 0.69039 0.47952 0.0
H1556 H 0.50021 0.53087 0.72603 0.0
H1557 H 0.61487 0.49718 0.72482 0.0
H1558 H 0.50118 0.52746 0.74918 0.0
H1559 H 0.61539 0.48955 0.74755 0.0
H1560 H 0.6139 0.49832 0.79034 0.0
H1561 H 0.6164 0.50629 0.76763 0.0
H1562 H 0.49774 0.48714 0.76545 0.0
H1563 H 0.4954 0.4836 0.78857 0.0
C1564 C 0.52605 0.52419 0.73079 0.0
C1565 C 0.55774 0.51536 0.7237 0.0
C1566 C 0.52638 0.52077 0.74407 0.0
C1567 C 0.55804 0.50698 0.75047 0.0
C1568 C 0.59044 0.50065 0.74327 0.0
C1569 C 0.59039 0.50539 0.73011 0.0
C1570 C 0.5886 0.49441 0.78494 0.0
C1571 C 0.55456 0.4897 0.79119 0.0
C1572 C 0.58986 0.49931 0.77179 0.0
C1573 C 0.55712 0.49833 0.76444 0.0
C1574 C 0.52348 0.48969 0.77068 0.0
C1575 C 0.52215 0.48619 0.78393 0.0
H1576 H 0.67142 0.26291 0.98405 0.0
H1577 H 0.7734 0.31611 0.97243 0.0
H1578 H 0.69282 0.26435 1.00617 0.0
H1579 H 0.79535 0.31523 0.99425 0.0
H1580 H 0.83236 0.26141 0.03334 0.0
H1581 H 0.81031 0.26038 0.01134 0.0
H1582 H 0.71225 0.32104 0.02239 0.0
H1583 H 0.73524 0.32451 0.04411 0.0
C1584 C 0.6985 0.27446 0.98611 0.0
C1585 C 0.72099 0.28849 0.97628 0.0
C1586 C 0.7107 0.27528 0.99879 0.0
C1587 C 0.74594 0.28943 1.00187 0.0
C1588 C 0.76835 0.30353 0.99211 0.0
C1589 C 0.7558 0.30362 0.97953 0.0
C1590 C 0.80613 0.27465 0.03112 0.0
C1591 C 0.78513 0.29208 0.04071 0.0
C1592 C 0.79352 0.27397 0.01852 0.0
C1593 C 0.75928 0.29007 0.01523 0.0
C1594 C 0.73836 0.30771 0.02472 0.0
C1595 C 0.75146 0.30929 0.03724 0.0
H1596 H 0.90769 0.52737 0.29136 0.0
H1597 H 0.02115 0.4914 0.28722 0.0
H1598 H 0.90141 0.53066 0.26834 0.0
H1599 H 0.01606 0.49662 0.26416 0.0
H1600 H 0.98702 0.47049 0.22322 0.0
H1601 H 0.99021 0.46592 0.24652 0.0
H1602 H 0.91577 0.55984 0.24967 0.0
H1603 H 0.91111 0.56256 0.22682 0.0
C1604 C 0.93192 0.52223 0.2855 0.0
C1605 C 0.96521 0.51021 0.29105 0.0
C1606 C 0.9283 0.52356 0.27226 0.0
C1607 C 0.95811 0.51338 0.26425 0.0
C1608 C 0.99217 0.50372 0.26992 0.0
C1609 C 0.9955 0.50176 0.28315 0.0
C1610 C 0.97048 0.48913 0.22898 0.0
C1611 C 0.9488 0.51678 0.22325 0.0
C1612 C 0.97282 0.48716 0.24233 0.0
C1613 C 0.95367 0.51294 0.2501 0.0
C1614 C 0.93065 0.53922 0.24419 0.0
C1615 C 0.92809 0.54089 0.231 0.0
H1616 H 0.25231 0.35283 0.53974 0.0
H1617 H 0.25164 0.23367 0.53695 0.0
H1618 H 0.25536 0.35782 0.51681 0.0
H1619 H 0.25114 0.23802 0.5138 0.0
H1620 H 0.28681 0.25069 0.47326 0.0
H1621 H 0.28811 0.24902 0.49653 0.0
H1622 H 0.23019 0.35441 0.49746 0.0
H1623 H 0.23212 0.35697 0.47459 0.0
C1624 C 0.25058 0.32769 0.53412 0.0
C1625 C 0.25069 0.2929 0.54007 0.0
C1626 C 0.25269 0.33041 0.52089 0.0
C1627 C 0.25405 0.2983 0.51322 0.0
C1628 C 0.25134 0.26346 0.51926 0.0
C1629 C 0.25038 0.26083 0.53254 0.0
C1630 C 0.27624 0.27421 0.47856 0.0
C1631 C 0.26021 0.30433 0.47217 0.0
C1632 C 0.27586 0.2729 0.49191 0.0
C1633 C 0.2585 0.30124 0.49908 0.0
C1634 C 0.24435 0.3322 0.49252 0.0
C1635 C 0.24557 0.33383 0.4793 0.0
H1636 H 0.4196 0.53472 0.2229 0.0
H1637 H 0.5163 0.46505 0.22699 0.0
H1638 H 0.4158 0.54092 0.24595 0.0
H1639 H 0.51387 0.47248 0.25003 0.0
H1640 H 0.47647 0.46112 0.29158 0.0
H1641 H 0.47889 0.45344 0.26832 0.0
H1642 H 0.44377 0.5674 0.2636 0.0
H1643 H 0.43976 0.5743 0.28622 0.0
C1644 C 0.44098 0.52209 0.22874 0.0
C1645 C 0.46866 0.50006 0.22321 0.0
C1646 C 0.43868 0.52524 0.24197 0.0
C1647 C 0.46441 0.50688 0.24993 0.0
C1648 C 0.49311 0.48627 0.24427 0.0
C1649 C 0.49501 0.48268 0.23107 0.0
C1650 C 0.46888 0.48416 0.2855 0.0
C1651 C 0.45842 0.51835 0.29078 0.0
C1652 C 0.4706 0.48001 0.2722 0.0
C1653 C 0.46166 0.50993 0.26403 0.0
C1654 C 0.4504 0.54358 0.26946 0.0
C1655 C 0.44859 0.54762 0.28256 0.0
H1656 H 0.2982 0.63579 0.03267 0.0
H1657 H 0.2635 0.74504 0.04472 0.0
H1658 H 0.27733 0.64955 0.01111 0.0
H1659 H 0.24136 0.75824 0.02333 0.0
H1660 H 0.24598 0.78258 0.9805 0.0
H1661 H 0.26358 0.7699 1.00229 0.0
H1662 H 0.22009 0.65868 0.99893 0.0
H1663 H 0.20184 0.67167 0.97695 0.0
C1664 C 0.28645 0.66288 0.03071 0.0
C1665 C 0.28254 0.6893 0.04046 0.0
C1666 C 0.2739 0.67054 0.01838 0.0
C1667 C 0.25722 0.70485 0.01548 0.0
C1668 C 0.2542 0.73159 0.02517 0.0
C1669 C 0.26678 0.72395 0.03748 0.0
C1670 C 0.23937 0.75559 0.98442 0.0
C1671 C 0.22309 0.72785 0.97682 0.0
C1672 C 0.24964 0.74829 0.99697 0.0
C1673 C 0.24382 0.71308 1.00235 0.0
C1674 C 0.22586 0.68583 0.99498 0.0
C1675 C 0.21538 0.69324 0.98239 0.0
H1676 H 0.99485 0.5301 0.78878 0.0
H1677 H 0.11304 0.51233 0.78989 0.0
H1678 H 0.99645 0.52965 0.76558 0.0
H1679 H 0.11483 0.50854 0.76694 0.0
H1680 H 0.11162 0.52722 0.72442 0.0
H1681 H 0.11229 0.53267 0.74732 0.0
H1682 H 1.00024 0.48925 0.74878 0.0
H1683 H 0.99912 0.48696 0.72554 0.0
C1684 C 0.0214 0.52768 0.784 0.0
C1685 C 0.054 0.5226 0.79107 0.0
C1686 C 0.02228 0.52609 0.77069 0.0
C1687 C 0.05565 0.51813 0.7642 0.0
C1688 C 0.08858 0.51525 0.77139 0.0
C1689 C 0.08775 0.51786 0.78463 0.0
C1690 C 0.08763 0.51761 0.7297 0.0
C1691 C 0.05564 0.50582 0.72327 0.0
C1692 C 0.08783 0.52096 0.7429 0.0
C1693 C 0.05614 0.51195 0.75011 0.0
C1694 C 0.02489 0.49757 0.74364 0.0
C1695 C 0.02448 0.49509 0.73033 0.0
H1696 H 0.26872 0.85157 0.10509 0.0
H1697 H 0.27089 0.83005 0.06465 0.0
H1698 H 0.26475 0.91724 0.10105 0.0
H1699 H 0.26468 0.89624 0.06064 0.0
H1700 H 0.29111 0.01894 0.05679 0.0
H1701 H 0.29603 0.95286 0.06108 0.0
H1702 H 0.22765 0.96671 0.09453 0.0
H1703 H 0.22398 0.03347 0.09035 0.0
C1704 C 0.26839 0.86047 0.09529 0.0
C1705 C 0.27063 0.83461 0.08523 0.0
C1706 C 0.26549 0.89866 0.09297 0.0
C1707 C 0.26436 0.91265 0.08051 0.0
C1708 C 0.2661 0.8869 0.0704 0.0
C1709 C 0.26929 0.84857 0.07272 0.0
C1710 C 0.2771 0.00788 0.06507 0.0
C1711 C 0.25697 0.03155 0.07319 0.0
C1712 C 0.2797 0.96975 0.0675 0.0
C1713 C 0.26192 0.9538 0.07809 0.0
C1714 C 0.24218 0.97769 0.08635 0.0
C1715 C 0.23997 0.01608 0.08398 0.0
H1716 H 0.39911 0.05987 0.34899 0.0
H1717 H 0.42409 0.99651 0.31531 0.0
H1718 H 0.33286 0.05268 0.34499 0.0
H1719 H 0.35771 0.98835 0.31137 0.0
H1720 H 0.23577 0.0036 0.30173 0.0
H1721 H 0.30135 0.01557 0.30523 0.0
H1722 H 0.28368 0.00992 0.34581 0.0
H1723 H 0.21753 0.99869 0.34222 0.0
C1724 C 0.39039 0.04444 0.34068 0.0
C1725 C 0.41705 0.02887 0.33246 0.0
C1726 C 0.35225 0.04001 0.33843 0.0
C1727 C 0.33939 0.01958 0.3279 0.0
C1728 C 0.36618 0.00472 0.31949 0.0
C1729 C 0.40442 0.00943 0.32171 0.0
C1730 C 0.24581 0.00473 0.31142 0.0
C1731 C 0.22117 0.99979 0.32169 0.0
C1732 C 0.28368 0.01153 0.31344 0.0
C1733 C 0.29843 0.01346 0.32581 0.0
C1734 C 0.27361 0.00915 0.33612 0.0
C1735 C 0.23552 1.0026 0.33408 0.0
H1736 H 0.20639 0.16733 0.57175 0.0
H1737 H 0.28768 0.15543 0.6016 0.0
H1738 H 0.20877 0.10029 0.56802 0.0
H1739 H 0.29084 0.08917 0.59777 0.0
H1740 H 0.25963 0.96544 0.59675 0.0
H1741 H 0.25964 0.03257 0.60035 0.0
H1742 H 0.24422 0.05078 0.56007 0.0
H1743 H 0.24322 0.98401 0.55667 0.0
C1744 C 0.22493 0.15048 0.57745 0.0
C1745 C 0.2463 0.16686 0.58711 0.0
C1746 C 0.2265 0.11196 0.5753 0.0
C1747 C 0.24987 0.08882 0.58266 0.0
C1748 C 0.27178 0.10555 0.59211 0.0
C1749 C 0.26997 0.14382 0.59431 0.0
C1750 C 0.25686 0.9839 0.58868 0.0
C1751 C 0.25126 0.96937 0.57645 0.0
C1752 C 0.25676 0.0225 0.5907 0.0
C1753 C 0.25145 0.04756 0.58051 0.0
C1754 C 0.24736 0.03273 0.56823 0.0
C1755 C 0.24713 0.99432 0.56625 0.0
H1756 H 0.28746 0.01032 0.84494 0.0
H1757 H 0.26884 0.98785 0.80515 0.0
H1758 H 0.22044 0.00853 0.84863 0.0
H1759 H 0.20261 0.98389 0.8089 0.0
H1760 H 0.08076 0.00913 0.81732 0.0
H1761 H 0.14734 0.01531 0.81334 0.0
H1762 H 0.17043 0.9665 0.85004 0.0
H1763 H 0.104 0.96141 0.85405 0.0
C1764 C 0.26917 0.00521 0.83696 0.0
C1765 C 0.28385 0.99886 0.82477 0.0
C1766 C 0.23064 0.00362 0.8391 0.0
C1767 C 0.20571 0.9956 0.8291 0.0
C1768 C 0.2205 0.99042 0.81686 0.0
C1769 C 0.25882 0.99222 0.81473 0.0
C1770 C 0.10011 0.99923 0.82443 0.0
C1771 C 0.08702 0.98471 0.83599 0.0
C1772 C 0.13842 1.00286 0.82219 0.0
C1773 C 0.1647 0.99174 0.83141 0.0
C1774 C 0.15137 0.9763 0.84282 0.0
C1775 C 0.11317 0.97299 0.84508 0.0
H1776 H 0.29583 0.15146 0.40976 0.0
H1777 H 0.24647 0.17491 0.44622 0.0
H1778 H 0.29193 0.08517 0.41399 0.0
H1779 H 0.24143 0.10835 0.45042 0.0
H1780 H 0.26999 0.98738 0.45904 0.0
H1781 H 0.27321 0.05351 0.45516 0.0
H1782 H 0.25089 0.03461 0.41532 0.0
H1783 H 0.24994 0.96777 0.41914 0.0
C1784 C 0.2841 0.14236 0.41871 0.0
C1785 C 0.27152 0.16854 0.42765 0.0
C1786 C 0.28149 0.10421 0.4211 0.0
C1787 C 0.2659 0.09091 0.4325 0.0
C1788 C 0.25399 0.11724 0.44158 0.0
C1789 C 0.25695 0.15553 0.43922 0.0
C1790 C 0.26605 0.99711 0.4494 0.0
C1791 C 0.26029 0.97181 0.43938 0.0
C1792 C 0.26739 0.0354 0.4472 0.0
C1793 C 0.26261 0.0499 0.4349 0.0
C1794 C 0.2555 0.02469 0.42491 0.0
C1795 C 0.2544 0.9862 0.42711 0.0
H1796 H 0.07657 0.98871 0.69308 0.0
H1797 H 0.09313 0.06197 0.66119 0.0
H1798 H 0.14428 0.98376 0.69583 0.0
H1799 H 0.16033 0.05717 0.66387 0.0
H1800 H 0.27496 0.07371 0.6828 0.0
H1801 H 0.20778 0.07666 0.67975 0.0
H1802 H 0.20126 0.9576 0.68375 0.0
H1803 H 0.26923 0.95493 0.68672 0.0
C1804 C 0.09466 0.00419 0.68679 0.0
C1805 C 0.07953 0.02599 0.67697 0.0
C1806 C 0.1334 1.00094 0.68824 0.0
C1807 C 0.15778 0.01992 0.68003 0.0
C1808 C 0.14246 0.0423 0.6704 0.0
C1809 C 0.10395 0.04507 0.66885 0.0
C1810 C 0.25917 0.04815 0.68284 0.0
C1811 C 0.27721 0.01408 0.6849 0.0
C1812 C 0.22071 0.04979 0.6811 0.0
C1813 C 0.19902 0.0174 0.68157 0.0
C1814 C 0.21713 0.98309 0.68345 0.0
C1815 C 0.25596 0.98143 0.68499 0.0
H1816 H 0.19069 0.84616 0.9243 0.0
H1817 H 0.30285 0.84689 0.93858 0.0
H1818 H 0.187 0.91406 0.9275 0.0
H1819 H 0.29967 0.91351 0.94163 0.0
H1820 H 0.27965 0.02568 0.9564 0.0
H1821 H 0.26994 0.95898 0.95498 0.0
H1822 H 0.21537 0.97344 0.91875 0.0
H1823 H 0.22459 0.04096 0.9204 0.0
C1824 C 0.21431 0.8608 0.92822 0.0
C1825 C 0.24714 0.84138 0.93111 0.0
C1826 C 0.21238 0.89959 0.92996 0.0
C1827 C 0.243 0.91936 0.93489 0.0
C1828 C 0.27532 0.89941 0.93801 0.0
C1829 C 0.27733 0.86116 0.93615 0.0
C1830 C 0.26521 0.01468 0.94819 0.0
C1831 C 0.25345 0.03848 0.93842 0.0
C1832 C 0.25968 0.97641 0.94735 0.0
C1833 C 0.24256 0.96061 0.93662 0.0
C1834 C 0.2286 0.98462 0.92716 0.0
C1835 C 0.23391 0.02325 0.92808 0.0
H1836 H 0.24349 0.04938 0.20581 0.0
H1837 H 0.22336 0.97919 0.17334 0.0
H1838 H 0.30932 0.03412 0.20501 0.0
H1839 H 0.28953 0.96427 0.17234 0.0
H1840 H 0.40494 0.91886 0.18059 0.0
H1841 H 0.33898 0.93207 0.18249 0.0
H1842 H 0.36428 0.04507 0.19306 0.0
H1843 H 0.4305 0.03171 0.19119 0.0
C1844 C 0.25318 0.03085 0.19843 0.0
C1845 C 0.22806 0.01573 0.18958 0.0
C1846 C 0.29108 0.02215 0.19794 0.0
C1847 C 0.30514 0.99815 0.18855 0.0
C1848 C 0.27986 0.98249 0.17982 0.0
C1849 C 0.24181 0.99105 0.18037 0.0
C1850 C 0.39655 0.94658 0.18331 0.0
C1851 C 0.42334 0.9742 0.18568 0.0
C1852 C 0.35852 0.95422 0.18436 0.0
C1853 C 0.34594 0.98976 0.18783 0.0
C1854 C 0.37274 0.01722 0.1905 0.0
C1855 C 0.41089 0.00955 0.18945 0.0
H1856 H 0.77809 0.96403 0.92223 0.0
H1857 H 0.72039 0.9809 0.95766 0.0
H1858 H 0.78528 0.03137 0.91994 0.0
H1859 H 0.72565 0.04755 0.95518 0.0
H1860 H 0.76074 0.16817 0.95218 0.0
H1861 H 0.76153 0.10098 0.95541 0.0
H1862 H 0.75042 0.08459 0.91487 0.0
H1863 H 0.751 0.15155 0.91176 0.0
C1864 C 0.76741 0.98206 0.92961 0.0
C1865 C 0.74843 0.96702 0.94008 0.0
C1866 C 0.77095 0.02078 0.92823 0.0
C1867 C 0.75562 0.04541 0.93729 0.0
C1868 C 0.73816 0.02998 0.94802 0.0
C1869 C 0.73479 0.99152 0.9494 0.0
C1870 C 0.75812 0.15013 0.94401 0.0
C1871 C 0.75577 0.16525 0.93172 0.0
C1872 C 0.75863 0.11147 0.94582 0.0
C1873 C 0.75628 0.08683 0.9354 0.0
C1874 C 0.75326 0.10224 0.92314 0.0
C1875 C 0.75322 0.14079 0.92134 0.0
H1876 H 0.76334 0.97881 0.70805 0.0
H1877 H 0.78037 0.00924 0.66881 0.0
H1878 H 0.69666 0.97656 0.70458 0.0
H1879 H 0.71315 0.00854 0.6654 0.0
H1880 H 0.59754 0.95954 0.65957 0.0
H1881 H 0.6639 0.96447 0.66359 0.0
H1882 H 0.64104 0.0105 0.70069 0.0
H1883 H 0.57431 0.00508 0.69664 0.0
C1884 C 0.75282 0.98533 0.69867 0.0
C1885 C 0.77744 0.99373 0.68867 0.0
C1886 C 0.71437 0.98443 0.69671 0.0
C1887 C 0.69919 0.992 0.68468 0.0
C1888 C 0.72373 1.00183 0.67476 0.0
C1889 C 0.76234 1.00275 0.67673 0.0
C1890 C 0.60665 0.97064 0.66861 0.0
C1891 C 0.58047 0.98194 0.67776 0.0
C1892 C 0.64483 0.97378 0.67088 0.0
C1893 C 0.65817 0.98841 0.6824 0.0
C1894 C 0.63198 0.99886 0.69173 0.0
C1895 C 0.59362 0.9956 0.68945 0.0
H1896 H 0.7209 0.03023 0.42844 0.0
H1897 H 0.8178 0.01343 0.45191 0.0
H1898 H 0.71415 0.96304 0.42629 0.0
H1899 H 0.81273 0.94703 0.4491 0.0
H1900 H 0.78648 0.82468 0.44819 0.0
H1901 H 0.78314 0.89084 0.45329 0.0
H1902 H 0.74135 0.91334 0.41555 0.0
H1903 H 0.74274 0.84776 0.41081 0.0
C1904 C 0.74058 0.01233 0.43323 0.0
C1905 C 0.7702 0.02759 0.4402 0.0
C1906 C 0.73709 0.97364 0.43186 0.0
C1907 C 0.7632 0.9491 0.43737 0.0
C1908 C 0.79179 0.96452 0.44477 0.0
C1909 C 0.79505 0.00298 0.44623 0.0
C1910 C 0.77617 0.84374 0.44106 0.0
C1911 C 0.76556 0.83059 0.42901 0.0
C1912 C 0.77454 0.88188 0.44392 0.0
C1913 C 0.76219 0.90799 0.43482 0.0
C1914 C 0.75065 0.89451 0.42291 0.0
C1915 C 0.75214 0.85658 0.42009 0.0
H1916 H 0.90861 0.95119 0.17184 0.0
H1917 H 0.92425 0.0506 0.19411 0.0
H1918 H 0.84227 0.958 0.17343 0.0
H1919 H 0.8569 0.05603 0.19656 0.0
H1920 H 0.73695 0.0813 0.18437 0.0
H1921 H 0.80349 0.07288 0.1855 0.0
H1922 H 0.78843 0.95391 0.18514 0.0
H1923 H 0.72164 0.96251 0.1831 0.0
C1924 C 0.89803 0.97457 0.17717 0.0
C1925 C 0.92233 1.00088 0.18257 0.0
C1926 C 0.85949 0.97809 0.17829 0.0
C1927 C 0.84355 0.00769 0.18508 0.0
C1928 C 0.86782 0.03319 0.19101 0.0
C1929 C 0.90665 0.02988 0.18975 0.0
C1930 C 0.7476 0.05325 0.18437 0.0
C1931 C 0.72342 0.02263 0.18334 0.0
C1932 C 0.78614 0.04838 0.18526 0.0
C1933 C 0.802 0.01268 0.18532 0.0
C1934 C 0.77769 0.98196 0.18484 0.0
C1935 C 0.73906 0.98685 0.18382 0.0
H1936 H 0.72415 0.85209 0.60474 0.0
H1937 H 0.75667 0.83262 0.56585 0.0
H1938 H 0.72795 0.91878 0.60131 0.0
H1939 H 0.76097 0.8996 0.56238 0.0
H1940 H 0.72619 0.02173 0.55747 0.0
H1941 H 0.72572 0.95492 0.56042 0.0
H1942 H 0.7705 0.96892 0.59822 0.0
H1943 H 0.76948 0.03641 0.59537 0.0
C1944 C 0.73216 0.86209 0.59543 0.0
C1945 C 0.74008 0.83685 0.58558 0.0
C1946 C 0.73466 0.90045 0.59348 0.0
C1947 C 0.74524 0.91494 0.58161 0.0
C1948 C 0.75243 0.88969 0.57164 0.0
C1949 C 0.74981 0.85117 0.57359 0.0
C1950 C 0.73596 0.01064 0.56643 0.0
C1951 C 0.74742 0.03463 0.57624 0.0
C1952 C 0.73607 0.9721 0.56808 0.0
C1953 C 0.74776 0.95615 0.5796 0.0
C1954 C 0.76064 0.98009 0.58928 0.0
C1955 C 0.76055 0.01884 0.58761 0.0
H1956 H 0.73351 0.93917 0.31631 0.0
H1957 H 0.71901 0.04303 0.33621 0.0
H1958 H 0.80001 0.94292 0.31939 0.0
H1959 H 0.78626 0.0465 0.33945 0.0
H1960 H 0.90458 0.02023 0.35367 0.0
H1961 H 0.83774 0.01724 0.35069 0.0
H1962 H 0.85415 0.97712 0.31245 0.0
H1963 H 0.92136 0.98044 0.31537 0.0
C1964 C 0.74435 0.96313 0.32124 0.0
C1965 C 0.72037 0.9911 0.32583 0.0
C1966 C 0.78283 0.96522 0.32302 0.0
C1967 C 0.79887 0.99517 0.32955 0.0
C1968 C 0.77499 0.02283 0.33442 0.0
C1969 C 0.73629 0.02086 0.33258 0.0
C1970 C 0.89417 0.01107 0.34455 0.0
C1971 C 0.91885 1.00083 0.33474 0.0
C1972 C 0.85558 0.00941 0.34285 0.0
C1973 C 0.84024 0.99717 0.33131 0.0
C1974 C 0.86482 0.98636 0.32153 0.0
C1975 C 0.90354 0.98818 0.32321 0.0
H1976 H 0.79778 0.98835 0.05979 0.0
H1977 H 0.73057 0.96908 0.09302 0.0
H1978 H 0.79563 0.05512 0.06365 0.0
H1979 H 0.72857 0.03611 0.09709 0.0
H1980 H 0.69114 0.15628 0.08997 0.0
H1981 H 0.69936 0.08976 0.08773 0.0
H1982 H 0.81371 0.10683 0.07684 0.0
H1983 H 0.80527 0.17406 0.07906 0.0
C1984 C 0.78294 0.99851 0.06805 0.0
C1985 C 0.76424 0.97351 0.07608 0.0
C1986 C 0.78187 0.03682 0.07032 0.0
C1987 C 0.76166 0.05134 0.08063 0.0
C1988 C 0.74401 0.0261 0.08894 0.0
C1989 C 0.74547 0.98763 0.08673 0.0
C1990 C 0.71825 0.146 0.08726 0.0
C1991 C 0.74767 0.17078 0.08484 0.0
C1992 C 0.72299 0.10761 0.086 0.0
C1993 C 0.75734 0.09254 0.08226 0.0
C1994 C 0.78676 0.1173 0.07967 0.0
C1995 C 0.78196 0.15591 0.08092 0.0
H1996 H 0.76833 0.01179 0.80595 0.0
H1997 H 0.78815 0.00555 0.84633 0.0
H1998 H 0.70171 0.0136 0.80967 0.0
H1999 H 0.72116 0.00788 0.85016 0.0
H2000 H 0.59832 0.97871 0.85219 0.0
H2001 H 0.66449 0.97498 0.84827 0.0
H2002 H 0.65295 0.05239 0.81715 0.0
H2003 H 0.58593 0.05574 0.82105 0.0
C2004 C 0.75843 0.01091 0.81566 0.0
C2005 C 0.78374 0.00875 0.82584 0.0
C2006 C 0.72008 0.01217 0.8178 0.0
C2007 C 0.70568 0.01136 0.83022 0.0
C2008 C 0.731 0.00823 0.84043 0.0
C2009 C 0.76952 0.00681 0.83827 0.0
C2010 C 0.60975 0.99539 0.84459 0.0
C2011 C 0.58659 0.01809 0.83707 0.0
C2012 C 0.64799 0.99321 0.84234 0.0
C2013 C 0.66453 0.01362 0.83248 0.0
C2014 C 0.64132 0.03593 0.82478 0.0
C2015 C 0.60283 0.03799 0.82702 0.0
H2016 H 0.81386 0.35532 0.60097 0.0
H2017 H 0.74571 0.33057 0.56835 0.0
H2018 H 0.80619 0.42148 0.59706 0.0
H2019 H 0.73733 0.3969 0.5645 0.0
H2020 H 0.76154 0.51747 0.55366 0.0
H2021 H 0.76667 0.45143 0.55762 0.0
H2022 H 0.7639 0.47199 0.59807 0.0
H2023 H 0.76069 0.53882 0.59401 0.0
C2024 C 0.79715 0.36403 0.59295 0.0
C2025 C 0.78053 0.33745 0.58497 0.0
C2026 C 0.79246 0.40212 0.59076 0.0
C2027 C 0.77081 0.41499 0.58052 0.0
C2028 C 0.75459 0.38833 0.5724 0.0
C2029 C 0.75948 0.35013 0.57457 0.0
C2030 C 0.76218 0.50807 0.56342 0.0
C2031 C 0.76123 0.5338 0.5735 0.0
C2032 C 0.76466 0.46989 0.56571 0.0
C2033 C 0.76599 0.45591 0.57818 0.0
C2034 C 0.76367 0.48155 0.58832 0.0
C2035 C 0.76129 0.51997 0.58601 0.0
H2036 H 0.74019 0.48145 0.81153 0.0
H2037 H 0.71872 0.54013 0.84634 0.0
H2038 H 0.80694 0.48635 0.81513 0.0
H2039 H 0.78533 0.548 0.84969 0.0
H2040 H 0.90665 0.53218 0.8585 0.0
H2041 H 0.84098 0.52504 0.85522 0.0
H2042 H 0.85874 0.52244 0.81456 0.0
H2043 H 0.92555 0.52588 0.81802 0.0
C2044 C 0.75005 0.49523 0.82003 0.0
C2045 C 0.72448 0.5098 0.82878 0.0
C2046 C 0.7884 0.49874 0.82202 0.0
C2047 C 0.80238 0.51797 0.83267 0.0
C2048 C 0.77634 0.53228 0.84149 0.0
C2049 C 0.73796 0.52785 0.83963 0.0
C2050 C 0.89689 0.52958 0.84882 0.0
C2051 C 0.92209 0.52886 0.83857 0.0
C2052 C 0.85861 0.5261 0.8469 0.0
C2053 C 0.84366 0.52283 0.83459 0.0
C2054 C 0.86874 0.52385 0.82424 0.0
C2055 C 0.90735 0.52654 0.8262 0.0
H2056 H 0.71458 0.65516 0.10319 0.0
H2057 H 0.75888 0.67447 0.06567 0.0
H2058 H 0.71689 0.58841 0.09957 0.0
H2059 H 0.7599 0.6077 0.06181 0.0
H2060 H 0.80217 0.48939 0.06453 0.0
H2061 H 0.79529 0.5555 0.06825 0.0
H2062 H 0.6931 0.53514 0.08862 0.0
H2063 H 0.70065 0.4682 0.08499 0.0
C2064 C 0.72456 0.64518 0.09411 0.0
C2065 C 0.73698 0.67038 0.08479 0.0
C2066 C 0.72553 0.60675 0.09198 0.0
C2067 C 0.73903 0.59227 0.08045 0.0
C2068 C 0.75003 0.61759 0.07092 0.0
C2069 C 0.74899 0.65606 0.07305 0.0
C2070 C 0.77813 0.49895 0.06977 0.0
C2071 C 0.75177 0.47342 0.07434 0.0
C2072 C 0.77402 0.53706 0.07185 0.0
C2073 C 0.74325 0.55113 0.07854 0.0
C2074 C 0.71726 0.5255 0.08345 0.0
C2075 C 0.72155 0.48708 0.08141 0.0
H2076 H 0.79032 0.50134 0.34501 0.0
H2077 H 0.77122 0.48869 0.30472 0.0
H2078 H 0.72332 0.50188 0.34861 0.0
H2079 H 0.70487 0.48691 0.30835 0.0
H2080 H 0.58409 0.51583 0.31747 0.0
H2081 H 0.65094 0.5197 0.31359 0.0
H2082 H 0.67159 0.46202 0.34893 0.0
H2083 H 0.60504 0.45924 0.35286 0.0
C2084 C 0.77198 0.4988 0.33691 0.0
C2085 C 0.78654 0.49451 0.32459 0.0
C2086 C 0.7334 0.49857 0.33898 0.0
C2087 C 0.70827 0.49395 0.32879 0.0
C2088 C 0.72296 0.49079 0.31646 0.0
C2089 C 0.76134 0.49128 0.31439 0.0
C2090 C 0.60297 0.50355 0.32429 0.0
C2091 C 0.5892 0.48725 0.33548 0.0
C2092 C 0.64142 0.50582 0.32211 0.0
C2093 C 0.66711 0.49151 0.331 0.0
C2094 C 0.65304 0.47428 0.342 0.0
C2095 C 0.61475 0.47234 0.34421 0.0
H2096 H 0.70988 0.48706 0.95418 0.0
H2097 H 0.79791 0.46086 0.92785 0.0
H2098 H 0.71752 0.55265 0.94978 0.0
H2099 H 0.8063 0.52713 0.92353 0.0
H2100 H 0.78454 0.6463 0.90952 0.0
H2101 H 0.78064 0.58034 0.9139 0.0
H2102 H 0.75598 0.60426 0.95325 0.0
H2103 H 0.75765 0.67053 0.94866 0.0
C2104 C 0.73121 0.49535 0.94752 0.0
C2105 C 0.75352 0.46853 0.94147 0.0
C2106 C 0.73577 0.5332 0.94503 0.0
C2107 C 0.76297 0.5457 0.93644 0.0
C2108 C 0.78487 0.5188 0.93016 0.0
C2109 C 0.7801 0.48069 0.93261 0.0
C2110 C 0.77806 0.63766 0.91912 0.0
C2111 C 0.77082 0.66416 0.92867 0.0
C2112 C 0.77631 0.59954 0.92168 0.0
C2113 C 0.76759 0.58651 0.93392 0.0
C2114 C 0.76195 0.61301 0.94362 0.0
C2115 C 0.76345 0.65124 0.94103 0.0
H2116 H 0.78605 0.46808 0.17955 0.0
H2117 H 0.77072 0.58322 0.18963 0.0
H2118 H 0.71874 0.46183 0.1767 0.0
H2119 H 0.70434 0.57705 0.18687 0.0
H2120 H 0.58307 0.5482 0.19264 0.0
H2121 H 0.6501 0.55017 0.19627 0.0
H2122 H 0.66748 0.48036 0.16344 0.0
H2123 H 0.6009 0.47712 0.16016 0.0
C2124 C 0.7685 0.49207 0.1811 0.0
C2125 C 0.78405 0.52596 0.18504 0.0
C2126 C 0.72983 0.48853 0.17948 0.0
C2127 C 0.70578 0.51882 0.18175 0.0
C2128 C 0.7216 0.55279 0.18539 0.0
C2129 C 0.75997 0.55632 0.18697 0.0
C2130 C 0.60113 0.533 0.18628 0.0
C2131 C 0.58623 0.51298 0.176 0.0
C2132 C 0.6397 0.53437 0.18827 0.0
C2133 C 0.6645 0.51565 0.18008 0.0
C2134 C 0.64949 0.49493 0.17001 0.0
C2135 C 0.61105 0.49358 0.16802 0.0
H2136 H 0.76366 0.32759 0.44401 0.0
H2137 H 0.69242 0.34001 0.41128 0.0
H2138 H 0.76684 0.39549 0.44605 0.0
H2139 H 0.69719 0.40672 0.41284 0.0
H2140 H 0.67243 0.52068 0.42734 0.0
H2141 H 0.67414 0.45399 0.42579 0.0
H2142 H 0.79012 0.45434 0.43635 0.0
H2143 H 0.78762 0.52257 0.43856 0.0
C2144 C 0.74857 0.34466 0.43729 0.0
C2145 C 0.72764 0.3281 0.42749 0.0
C2146 C 0.75089 0.38362 0.43833 0.0
C2147 C 0.73223 0.40687 0.42963 0.0
C2148 C 0.71153 0.39005 0.41986 0.0
C2149 C 0.70905 0.3515 0.41888 0.0
C2150 C 0.69839 0.50675 0.4294 0.0
C2151 C 0.72977 0.52709 0.43324 0.0
C2152 C 0.69951 0.46824 0.42836 0.0
C2153 C 0.73229 0.44838 0.43089 0.0
C2154 C 0.76424 0.46863 0.43445 0.0
C2155 C 0.76304 0.5077 0.43555 0.0
H2156 H 0.74051 0.49163 0.70845 0.0
H2157 H 0.7217 0.50228 0.66813 0.0
H2158 H 0.80728 0.4911 0.70493 0.0
H2159 H 0.78876 0.50094 0.66448 0.0
H2160 H 0.91125 0.52945 0.66262 0.0
H2161 H 0.84506 0.5332 0.66664 0.0
H2162 H 0.85683 0.45436 0.69735 0.0
H2163 H 0.92387 0.45137 0.6934 0.0
C2164 C 0.7507 0.49378 0.6988 0.0
C2165 C 0.72566 0.49684 0.68857 0.0
C2166 C 0.78913 0.49323 0.69676 0.0
C2167 C 0.80385 0.49555 0.6844 0.0
C2168 C 0.77874 0.49951 0.67416 0.0
C2169 C 0.74017 0.50033 0.67623 0.0
C2170 C 0.89979 0.5126 0.67017 0.0
C2171 C 0.92295 0.48957 0.67755 0.0
C2172 C 0.86158 0.51473 0.67247 0.0
C2173 C 0.84507 0.49379 0.68223 0.0
C2174 C 0.86837 0.47124 0.68981 0.0
C2175 C 0.90686 0.46935 0.68755 0.0
H2176 H 0.26663 0.67252 0.44395 0.0
H2177 H 0.20745 0.65672 0.40876 0.0
H2178 H 0.27106 0.60487 0.44662 0.0
H2179 H 0.21191 0.58954 0.41132 0.0
H2180 H 0.19155 0.47254 0.4282 0.0
H2181 H 0.18781 0.53983 0.42519 0.0
H2182 H 0.30293 0.54995 0.43619 0.0
H2183 H 0.30626 0.48216 0.43912 0.0
C2184 C 0.25408 0.6546 0.4369 0.0
C2185 C 0.23651 0.66995 0.42617 0.0
C2186 C 0.25706 0.61588 0.43832 0.0
C2187 C 0.24204 0.59168 0.42914 0.0
C2188 C 0.22365 0.60721 0.41861 0.0
C2189 C 0.22113 0.64573 0.41712 0.0
C2190 C 0.21619 0.48922 0.42967 0.0
C2191 C 0.24936 0.47232 0.43364 0.0
C2192 C 0.21409 0.52771 0.42801 0.0
C2193 C 0.24502 0.55043 0.4305 0.0
C2194 C 0.27849 0.53335 0.43431 0.0
C2195 C 0.28066 0.49461 0.4358 0.0
H2196 H 0.10363 0.45476 0.16255 0.0
H2197 H 0.08095 0.51615 0.19685 0.0
H2198 H 0.17008 0.45969 0.16649 0.0
H2199 H 0.14765 0.52202 0.20074 0.0
H2200 H 0.26873 0.49521 0.21019 0.0
H2201 H 0.20243 0.49127 0.20657 0.0
H2202 H 0.22081 0.50119 0.16612 0.0
H2203 H 0.28784 0.50298 0.16977 0.0
C2204 C 0.11293 0.46925 0.17098 0.0
C2205 C 0.0869 0.48492 0.1794 0.0
C2206 C 0.15116 0.47247 0.17318 0.0
C2207 C 0.1647 0.4917 0.18386 0.0
C2208 C 0.13855 0.50665 0.19247 0.0
C2209 C 0.10017 0.50318 0.19029 0.0
C2210 C 0.25882 0.49631 0.20049 0.0
C2211 C 0.28402 0.49881 0.19027 0.0
C2212 C 0.22047 0.49453 0.19842 0.0
C2213 C 0.2058 0.49558 0.18604 0.0
C2214 C 0.2309 0.49951 0.1758 0.0
C2215 C 0.26947 0.50108 0.17788 0.0
H2216 H 0.24353 0.33908 0.95071 0.0
H2217 H 0.25739 0.35832 0.91055 0.0
H2218 H 0.24139 0.40621 0.95434 0.0
H2219 H 0.25404 0.425 0.91399 0.0
H2220 H 0.27372 0.54626 0.92565 0.0
H2221 H 0.28186 0.47949 0.92203 0.0
H2222 H 0.20019 0.45664 0.95112 0.0
H2223 H 0.19352 0.52308 0.95494 0.0
C2224 C 0.24663 0.35768 0.94269 0.0
C2225 C 0.25034 0.3434 0.93034 0.0
C2226 C 0.24486 0.39619 0.94471 0.0
C2227 C 0.24696 0.42135 0.93443 0.0
C2228 C 0.25243 0.40683 0.92217 0.0
C2229 C 0.25406 0.36848 0.92017 0.0
C2230 C 0.25715 0.52681 0.93106 0.0
C2231 C 0.23281 0.53974 0.94051 0.0
C2232 C 0.26187 0.48851 0.92907 0.0
C2233 C 0.24202 0.46231 0.93639 0.0
C2234 C 0.21676 0.47564 0.94553 0.0
C2235 C 0.21248 0.51375 0.94761 0.0
H2236 H 0.40631 0.54752 0.65976 0.0
H2237 H 0.42844 0.50247 0.69697 0.0
H2238 H 0.33978 0.54251 0.66354 0.0
H2239 H 0.36167 0.4967 0.70076 0.0
H2240 H 0.2396 0.52725 0.70796 0.0
H2241 H 0.30619 0.52974 0.70456 0.0
H2242 H 0.29004 0.49939 0.66521 0.0
H2243 H 0.22273 0.49867 0.66856 0.0
C2244 C 0.39689 0.53657 0.66878 0.0
C2245 C 0.42278 0.52552 0.67806 0.0
C2246 C 0.35864 0.53333 0.67092 0.0
C2247 C 0.34496 0.51873 0.6824 0.0
C2248 C 0.37092 0.50841 0.69183 0.0
C2249 C 0.40932 0.51186 0.6897 0.0
C2250 C 0.25015 0.52117 0.69856 0.0
C2251 C 0.22558 0.51329 0.68849 0.0
C2252 C 0.28859 0.52218 0.69663 0.0
C2253 C 0.30388 0.51512 0.68458 0.0
C2254 C 0.27939 0.50573 0.67459 0.0
C2255 C 0.24074 0.50478 0.67653 0.0
H2256 H 0.30237 0.3486 0.09417 0.0
H2257 H 0.20361 0.33202 0.07158 0.0
H2258 H 0.29815 0.41491 0.09079 0.0
H2259 H 0.19941 0.39912 0.06815 0.0
H2260 H 0.22681 0.51745 0.05428 0.0
H2261 H 0.22929 0.45077 0.05759 0.0
H2262 H 0.26245 0.4685 0.09656 0.0
H2263 H 0.25987 0.53538 0.09327 0.0
C2264 C 0.27936 0.359 0.0886 0.0
C2265 C 0.25301 0.33456 0.08331 0.0
C2266 C 0.27698 0.39734 0.08666 0.0
C2267 C 0.24824 0.41274 0.07931 0.0
C2268 C 0.22213 0.38836 0.0738 0.0
C2269 C 0.2245 0.34979 0.07577 0.0
C2270 C 0.2343 0.50735 0.06361 0.0
C2271 C 0.24303 0.53229 0.0735 0.0
C2272 C 0.23566 0.46886 0.06551 0.0
C2273 C 0.24598 0.45394 0.07735 0.0
C2274 C 0.25486 0.47881 0.08724 0.0
C2275 C 0.25342 0.51737 0.08535 0.0
H2276 H 0.40731 0.44215 0.8518 0.0
H2277 H 0.42518 0.51588 0.82017 0.0
H2278 H 0.34006 0.44667 0.84871 0.0
H2279 H 0.3575 0.5211 0.81713 0.0
H2280 H 0.23292 0.55198 0.8274 0.0
H2281 H 0.30085 0.54778 0.83026 0.0
H2282 H 0.29269 0.42838 0.83175 0.0
H2283 H 0.22547 0.4328 0.82868 0.0
C2284 C 0.39671 0.45888 0.84406 0.0
C2285 C 0.42142 0.47816 0.83611 0.0
C2286 C 0.35825 0.46163 0.84231 0.0
C2287 C 0.34337 0.48444 0.83272 0.0
C2288 C 0.36809 0.50354 0.82466 0.0
C2289 C 0.40676 0.50014 0.82626 0.0
C2290 C 0.2458 0.52502 0.82853 0.0
C2291 C 0.22407 0.49273 0.82791 0.0
C2292 C 0.28461 0.52252 0.83 0.0
C2293 C 0.30221 0.48769 0.83116 0.0
C2294 C 0.28009 0.45559 0.83093 0.0
C2295 C 0.24163 0.45808 0.8292 0.0
H2296 H 0.32577 0.47946 0.56494 0.0
H2297 H 0.21879 0.46754 0.583 0.0
H2298 H 0.32355 0.54602 0.56833 0.0
H2299 H 0.21616 0.5346 0.58624 0.0
H2300 H 0.24163 0.64851 0.60261 0.0
H2301 H 0.2421 0.5828 0.5983 0.0
H2302 H 0.29576 0.60318 0.56225 0.0
H2303 H 0.29716 0.6697 0.56695 0.0
C2304 C 0.30144 0.49105 0.56949 0.0
C2305 C 0.27233 0.46788 0.57363 0.0
C2306 C 0.30012 0.52948 0.57141 0.0
C2307 C 0.26961 0.54614 0.57751 0.0
C2308 C 0.24043 0.52295 0.58166 0.0
C2309 C 0.24186 0.48436 0.5798 0.0
C2310 C 0.25412 0.63931 0.59382 0.0
C2311 C 0.27008 0.66486 0.58525 0.0
C2312 C 0.25375 0.60127 0.59124 0.0
C2313 C 0.26895 0.58722 0.57992 0.0
C2314 C 0.28424 0.61274 0.57117 0.0
C2315 C 0.28476 0.65104 0.5738 0.0
H2316 H 0.08638 0.55171 0.32348 0.0
H2317 H 0.10179 0.46744 0.35217 0.0
H2318 H 0.15339 0.55171 0.31948 0.0
H2319 H 0.16796 0.46709 0.34815 0.0
H2320 H 0.29051 0.50225 0.34696 0.0
H2321 H 0.22354 0.50128 0.35094 0.0
H2322 H 0.20307 0.51635 0.31078 0.0
H2323 H 0.26967 0.51788 0.30695 0.0
C2324 C 0.10393 0.53312 0.32889 0.0
C2325 C 0.08849 0.5101 0.33829 0.0
C2326 C 0.14242 0.53297 0.32659 0.0
C2327 C 0.16645 0.50955 0.33356 0.0
C2328 C 0.15076 0.48618 0.3428 0.0
C2329 C 0.11252 0.48643 0.34511 0.0
C2330 C 0.27164 0.50481 0.33899 0.0
C2331 C 0.2855 0.51038 0.32665 0.0
C2332 C 0.23316 0.50436 0.34124 0.0
C2333 C 0.20756 0.50917 0.33119 0.0
C2334 C 0.22165 0.51352 0.31882 0.0
C2335 C 0.25996 0.51415 0.3166 0.0
H2336 H 0.61248 0.22607 0.06811 0.0
H2337 H 0.57024 0.33152 0.05488 0.0
H2338 H 0.54977 0.2007 0.068 0.0
H2339 H 0.50708 0.30596 0.05482 0.0
H2340 H 0.40723 0.23002 0.04451 0.0
H2341 H 0.47086 0.253 0.04299 0.0
H2342 H 0.49196 0.21664 0.08142 0.0
H2343 H 0.42819 0.19497 0.0832 0.0
C2344 C 0.58978 0.24359 0.06497 0.0
C2345 C 0.59603 0.28059 0.06135 0.0
C2346 C 0.55399 0.22918 0.06502 0.0
C2347 C 0.5239 0.25143 0.06138 0.0
C2348 C 0.53008 0.28826 0.05754 0.0
C2349 C 0.56597 0.30287 0.05763 0.0
C2350 C 0.42542 0.22698 0.05264 0.0
C2351 C 0.41266 0.21068 0.06398 0.0
C2352 C 0.46172 0.2401 0.05175 0.0
C2353 C 0.48597 0.23657 0.0621 0.0
C2354 C 0.47371 0.21929 0.07328 0.0
C2355 C 0.43731 0.20663 0.07425 0.0
H2356 H 0.92217 0.31855 0.31977 0.0
H2357 H 0.02305 0.33714 0.34106 0.0
H2358 H 0.94111 0.25446 0.31587 0.0
H2359 H 0.04185 0.27305 0.33732 0.0
H2360 H 0.08597 0.1784 0.31324 0.0
H2361 H 0.06267 0.24041 0.31812 0.0
H2362 H 0.95417 0.1946 0.32604 0.0
H2363 H 0.97735 0.13281 0.32107 0.0
C2364 C 0.94789 0.30853 0.32388 0.0
C2365 C 0.97142 0.33253 0.33058 0.0
C2366 C 0.95879 0.27203 0.32163 0.0
C2367 C 0.99325 0.2592 0.32609 0.0
C2368 C 0.01559 0.28263 0.3335 0.0
C2369 C 0.00477 0.31907 0.33571 0.0
C2370 C 0.05706 0.18179 0.31587 0.0
C2371 C 0.03335 0.15106 0.31665 0.0
C2372 C 0.04382 0.21707 0.31878 0.0
C2373 C 0.00673 0.22207 0.32258 0.0
C2374 C 0.98277 0.19147 0.32302 0.0
C2375 C 0.99598 0.15622 0.32008 0.0
H2376 H 0.10711 0.72833 0.60285 0.0
H2377 H 0.07691 0.83866 0.59037 0.0
H2378 H 0.04168 0.71085 0.60314 0.0
H2379 H 0.01156 0.82149 0.5911 0.0
H2380 H 0.92732 0.75158 0.56804 0.0
H2381 H 0.98757 0.77516 0.57454 0.0
H2382 H 0.97482 0.72309 0.61129 0.0
H2383 H 0.91369 0.69993 0.60487 0.0
C2384 C 0.08635 0.74911 0.60059 0.0
C2385 C 0.09677 0.78448 0.59629 0.0
C2386 C 0.04907 0.73924 0.60089 0.0
C2387 C 0.02209 0.76476 0.59692 0.0
C2388 C 0.03224 0.80137 0.59404 0.0
C2389 C 0.06948 0.81121 0.59371 0.0
C2390 C 0.93728 0.74537 0.57753 0.0
C2391 C 0.91604 0.72412 0.58598 0.0
C2392 C 0.97147 0.75909 0.58128 0.0
C2393 C 0.98506 0.75156 0.5935 0.0
C2394 C 0.96445 0.72943 0.60187 0.0
C2395 C 0.92992 0.7159 0.59814 0.0
H2396 H 0.52425 0.8564 0.84697 0.0
H2397 H 0.41808 0.82556 0.83097 0.0
H2398 H 0.54243 0.79123 0.84771 0.0
H2399 H 0.43585 0.76025 0.83207 0.0
H2400 H 0.50756 0.66588 0.81577 0.0
H2401 H 0.48491 0.7289 0.81874 0.0
H2402 H 0.52692 0.72867 0.85724 0.0
H2403 H 0.54942 0.66517 0.8543 0.0
C2404 C 0.50464 0.83552 0.84385 0.0
C2405 C 0.47009 0.84563 0.83873 0.0
C2406 C 0.51485 0.7984 0.84439 0.0
C2407 C 0.49059 0.77115 0.83981 0.0
C2408 C 0.45507 0.78109 0.8355 0.0
C2409 C 0.44484 0.81822 0.83497 0.0
C2410 C 0.51178 0.67929 0.82487 0.0
C2411 C 0.53003 0.66095 0.83483 0.0
C2412 C 0.49865 0.71509 0.8266 0.0
C2413 C 0.50372 0.73304 0.83829 0.0
C2414 C 0.52271 0.71509 0.84817 0.0
C2415 C 0.53577 0.67911 0.84645 0.0
H2416 H 0.61035 0.78571 0.40949 0.0
H2417 H 0.57072 0.67562 0.41827 0.0
H2418 H 0.54649 0.80659 0.40619 0.0
H2419 H 0.50705 0.69647 0.41554 0.0
H2420 H 0.39457 0.73836 0.40947 0.0
H2421 H 0.45726 0.72069 0.40302 0.0
H2422 H 0.50074 0.81757 0.42224 0.0
H2423 H 0.43808 0.8356 0.42824 0.0
C2424 C 0.58785 0.76597 0.41048 0.0
C2425 C 0.59487 0.72937 0.41426 0.0
C2426 C 0.5515 0.77781 0.40862 0.0
C2427 C 0.52186 0.75331 0.41079 0.0
C2428 C 0.52928 0.71591 0.41364 0.0
C2429 C 0.56564 0.70398 0.41529 0.0
C2430 C 0.41767 0.756 0.41211 0.0
C2431 C 0.41204 0.78793 0.41947 0.0
C2432 C 0.45336 0.74602 0.4084 0.0
C2433 C 0.48383 0.76763 0.41218 0.0
C2434 C 0.47777 0.80069 0.41898 0.0
C2435 C 0.44204 0.81087 0.42253 0.0
H2436 H 0.52369 0.14927 0.66779 0.0
H2437 H 0.41509 0.18169 0.68143 0.0
H2438 H 0.54219 0.21441 0.66695 0.0
H2439 H 0.43333 0.24677 0.68029 0.0
H2440 H 0.50516 0.33915 0.69822 0.0
H2441 H 0.48235 0.27646 0.69481 0.0
H2442 H 0.52624 0.27779 0.65657 0.0
H2443 H 0.54857 0.34117 0.65988 0.0
C2444 C 0.50369 0.17045 0.67038 0.0
C2445 C 0.46828 0.16087 0.67486 0.0
C2446 C 0.51409 0.20749 0.66977 0.0
C2447 C 0.48914 0.23506 0.67367 0.0
C2448 C 0.45295 0.22562 0.67735 0.0
C2449 C 0.44253 0.18863 0.67793 0.0
C2450 C 0.50965 0.32615 0.68906 0.0
C2451 C 0.52839 0.34477 0.67929 0.0
C2452 C 0.49651 0.29053 0.6871 0.0
C2453 C 0.50217 0.27301 0.67537 0.0
C2454 C 0.52159 0.29116 0.66566 0.0
C2455 C 0.53454 0.32704 0.66759 0.0
H2456 H 0.89273 0.22614 0.94172 0.0
H2457 H 0.93606 0.32672 0.95837 0.0
H2458 H 0.95558 0.20068 0.94038 0.0
H2459 H 0.99922 0.30078 0.95725 0.0
H2460 H 0.09398 0.21301 0.96589 0.0
H2461 H 0.03059 0.23651 0.96783 0.0
H2462 H 0.0163 0.22742 0.92724 0.0
H2463 H 0.08017 0.20603 0.92506 0.0
C2464 C 0.9158 0.24247 0.94524 0.0
C2465 C 0.91 0.27806 0.95029 0.0
C2466 C 0.95149 0.22806 0.94441 0.0
C2467 C 0.98167 0.24886 0.94879 0.0
C2468 C 0.97597 0.28433 0.95394 0.0
C2469 C 0.9402 0.2991 0.95456 0.0
C2470 C 0.07739 0.21609 0.95737 0.0
C2471 C 0.09215 0.20772 0.94532 0.0
C2472 C 0.04128 0.22946 0.95851 0.0
C2473 C 0.0192 0.23378 0.94767 0.0
C2474 C 0.03314 0.22404 0.9357 0.0
C2475 C 0.06949 0.2114 0.93451 0.0
H2476 H 0.03634 0.66134 0.16646 0.0
H2477 H 0.93569 0.69131 0.18623 0.0
H2478 H 0.05802 0.72537 0.16788 0.0
H2479 H 0.95783 0.75478 0.18833 0.0
H2480 H 0.99646 0.87199 0.18358 0.0
H2481 H 0.97226 0.81088 0.17827 0.0
H2482 H 0.08166 0.76375 0.18411 0.0
H2483 H 0.10598 0.82562 0.18869 0.0
C2484 C 0.01881 0.68194 0.17098 0.0
C2485 C 0.98451 0.67193 0.17623 0.0
C2486 C 0.03128 0.71835 0.17193 0.0
C2487 C 0.0099 0.74502 0.17838 0.0
C2488 C 0.97479 0.73509 0.18315 0.0
C2489 C 0.96206 0.69883 0.18199 0.0
C2490 C 0.0151 0.84835 0.18378 0.0
C2491 C 0.05279 0.85288 0.18672 0.0
C2492 C 1.00134 0.81345 0.18074 0.0
C2493 C 0.02498 0.78243 0.18082 0.0
C2494 C 0.06284 0.78719 0.18375 0.0
C2495 C 0.07674 0.82232 0.18654 0.0
H2496 H 0.41602 0.72112 0.96341 0.0
H2497 H 0.40542 0.69127 0.92371 0.0
H2498 H 0.47919 0.74286 0.95936 0.0
H2499 H 0.4689 0.71148 0.91992 0.0
H2500 H 0.59959 0.71011 0.92666 0.0
H2501 H 0.53497 0.68978 0.92899 0.0
H2502 H 0.50586 0.79714 0.94435 0.0
H2503 H 0.57038 0.8176 0.94178 0.0
C2504 C 0.42722 0.71889 0.95388 0.0
C2505 C 0.4059 0.70417 0.94392 0.0
C2506 C 0.46316 0.73136 0.95158 0.0
C2507 C 0.47833 0.72879 0.93935 0.0
C2508 C 0.45755 0.71337 0.92944 0.0
C2509 C 0.42147 0.70144 0.93168 0.0
C2510 C 0.57908 0.72931 0.93036 0.0
C2511 C 0.58928 0.76516 0.93409 0.0
C2512 C 0.54244 0.71783 0.93167 0.0
C2513 C 0.51605 0.74194 0.93695 0.0
C2514 C 0.52612 0.77816 0.94037 0.0
C2515 C 0.56263 0.78985 0.93884 0.0
H2516 H 0.08344 0.68626 0.67803 0.0
H2517 H 0.97879 0.64645 0.66331 0.0
H2518 H 0.06312 0.74997 0.67473 0.0
H2519 H 0.95857 0.71026 0.65973 0.0
H2520 H 0.92069 0.82155 0.67824 0.0
H2521 H 0.94106 0.75787 0.6749 0.0
H2522 H 0.04527 0.79779 0.65967 0.0
H2523 H 0.02501 0.86156 0.66331 0.0
C2524 C 0.05649 0.69129 0.67377 0.0
C2525 C 0.03239 0.66187 0.67106 0.0
C2526 C 0.04491 0.72763 0.67182 0.0
C2527 C 0.00919 0.7349 0.66703 0.0
C2528 C 0.98601 0.7053 0.6636 0.0
C2529 C 0.99751 0.66897 0.66565 0.0
C2530 C 0.94758 0.81657 0.67393 0.0
C2531 C 0.97157 0.84603 0.67117 0.0
C2532 C 0.95919 0.78025 0.67195 0.0
C2533 C 0.99481 0.77305 0.66707 0.0
C2534 C 0.0179 0.8027 0.66361 0.0
C2535 C 0.00639 0.839 0.66569 0.0
H2536 H 0.91437 0.25577 0.45074 0.0
H2537 H 0.90129 0.25418 0.40978 0.0
H2538 H 0.97736 0.27875 0.44817 0.0
H2539 H 0.96544 0.27467 0.40739 0.0
H2540 H 0.09488 0.24479 0.417 0.0
H2541 H 0.02754 0.23528 0.41648 0.0
H2542 H 0.01128 0.339 0.43628 0.0
H2543 H 0.07858 0.34879 0.4367 0.0
C2544 C 0.92455 0.26092 0.44122 0.0
C2545 C 0.90291 0.25282 0.43046 0.0
C2546 C 0.96059 0.27388 0.43978 0.0
C2547 C 0.97561 0.27821 0.42761 0.0
C2548 C 0.95398 0.27129 0.41684 0.0
C2549 C 0.91758 0.25921 0.41826 0.0
C2550 C 0.07674 0.26567 0.42107 0.0
C2551 C 0.09135 0.29735 0.42694 0.0
C2552 C 0.03854 0.26045 0.42067 0.0
C2553 C 0.01491 0.28663 0.4263 0.0
C2554 C 0.02942 0.31876 0.43185 0.0
C2555 C 0.06757 0.32428 0.43208 0.0
H2556 H 0.44891 0.13265 0.17395 0.0
H2557 H 0.5509 0.17201 0.1908 0.0
H2558 H 0.42849 0.19714 0.17074 0.0
H2559 H 0.53089 0.23601 0.18749 0.0
H2560 H 0.50576 0.33999 0.16615 0.0
H2561 H 0.51819 0.27346 0.16648 0.0
H2562 H 0.41478 0.25481 0.18627 0.0
H2563 H 0.40245 0.32163 0.18614 0.0
C2564 C 0.46665 0.1552 0.17702 0.0
C2565 C 0.5012 0.14797 0.18267 0.0
C2566 C 0.4551 0.19174 0.17519 0.0
C2567 C 0.47848 0.22103 0.17874 0.0
C2568 C 0.51275 0.21363 0.18455 0.0
C2569 C 0.52397 0.17728 0.18656 0.0
C2570 C 0.48551 0.32159 0.17043 0.0
C2571 C 0.45354 0.33568 0.17633 0.0
C2572 C 0.49254 0.28374 0.17057 0.0
C2573 C 0.46758 0.25957 0.17655 0.0
C2574 C 0.43423 0.27321 0.18159 0.0
C2575 C 0.42724 0.31123 0.1815 0.0
H2576 H 0.58255 0.17017 0.5915 0.0
H2577 H 0.61348 0.27841 0.60561 0.0
H2578 H 0.51735 0.18705 0.59298 0.0
H2579 H 0.54798 0.29524 0.60734 0.0
H2580 H 0.44385 0.32592 0.58336 0.0
H2581 H 0.50635 0.30783 0.58956 0.0
H2582 H 0.46356 0.20577 0.6055 0.0
H2583 H 0.40091 0.22382 0.59909 0.0
C2584 C 0.57523 0.19708 0.59537 0.0
C2585 C 0.60267 0.22329 0.59827 0.0
C2586 C 0.53797 0.20672 0.59626 0.0
C2587 C 0.52782 0.24262 0.60012 0.0
C2588 C 0.55527 0.26762 0.60412 0.0
C2589 C 0.59256 0.25805 0.60315 0.0
C2590 C 0.44787 0.29991 0.58834 0.0
C2591 C 0.41799 0.27598 0.59063 0.0
C2592 C 0.48347 0.28969 0.592 0.0
C2593 C 0.48961 0.25549 0.59807 0.0
C2594 C 0.45947 0.23215 0.60076 0.0
C2595 C 0.42384 0.24231 0.59703 0.0
H2596 H 0.57823 0.82552 0.33743 0.0
H2597 H 0.47204 0.86704 0.35029 0.0
H2598 H 0.5587 0.76255 0.34225 0.0
H2599 H 0.45249 0.80387 0.35533 0.0
H2600 H 0.41938 0.68933 0.33729 0.0
H2601 H 0.43713 0.7536 0.34082 0.0
H2602 H 0.53995 0.71715 0.3581 0.0
H2603 H 0.52232 0.65272 0.35429 0.0
C2604 C 0.55107 0.82112 0.3416 0.0
C2605 C 0.52634 0.85073 0.34331 0.0
C2606 C 0.53995 0.78519 0.34445 0.0
C2607 C 0.50402 0.77846 0.34913 0.0
C2608 C 0.48016 0.8084 0.35159 0.0
C2609 C 0.49123 0.84435 0.34867 0.0
C2610 C 0.44527 0.69517 0.34214 0.0
C2611 C 0.46985 0.66651 0.34534 0.0
C2612 C 0.45537 0.73185 0.34424 0.0
C2613 C 0.49007 0.74021 0.34964 0.0
C2614 C 0.51331 0.71133 0.35375 0.0
C2615 C 0.50332 0.67466 0.35156 0.0
H2616 H 0.10956 0.74722 0.10154 0.0
H2617 H 0.0901 0.74579 0.06093 0.0
H2618 H 0.04754 0.77276 0.10488 0.0
H2619 H 0.02893 0.77308 0.06435 0.0
H2620 H 0.93318 0.84877 0.07539 0.0
H2621 H 1.00005 0.83561 0.07503 0.0
H2622 H 0.98211 0.73929 0.09869 0.0
H2623 H 0.91525 0.75204 0.09881 0.0
C2624 C 0.09215 0.75242 0.09334 0.0
C2625 C 0.10441 0.74397 0.08097 0.0
C2626 C 0.05701 0.76741 0.09527 0.0
C2627 C 0.03408 0.77491 0.08485 0.0
C2628 C 0.04669 0.76792 0.07248 0.0
C2629 C 0.08157 0.75232 0.07054 0.0
C2630 C 0.94389 0.82538 0.08074 0.0
C2631 C 0.91976 0.80121 0.08709 0.0
C2632 C 0.98178 0.81787 0.0805 0.0
C2633 C 0.99567 0.78656 0.08683 0.0
C2634 C 0.97174 0.76377 0.09386 0.0
C2635 C 0.93379 0.77088 0.09389 0.0
H2636 H 0.04746 0.34416 0.8536 0.0
H2637 H 0.00532 0.34576 0.8151 0.0
H2638 H 0.02607 0.28014 0.85601 0.0
H2639 H 0.98365 0.28227 0.81757 0.0
H2640 H 0.91869 0.18344 0.8295 0.0
H2641 H 0.93546 0.2489 0.83083 0.0
H2642 H 0.04339 0.21872 0.8456 0.0
H2643 H 0.02625 0.1533 0.84463 0.0
C2644 C 0.03389 0.33068 0.84566 0.0
C2645 C 0.02789 0.34959 0.83418 0.0
C2646 C 0.0215 0.29438 0.84707 0.0
C2647 C 1.00287 0.27689 0.83703 0.0
C2648 C 0.99722 0.29569 0.82553 0.0
C2649 C 0.00972 0.3318 0.8241 0.0
C2650 C 0.94562 0.19095 0.8333 0.0
C2651 C 0.97145 0.16371 0.83681 0.0
C2652 C 0.95524 0.22817 0.83398 0.0
C2653 C 0.99074 0.2384 0.83819 0.0
C2654 C 0.0158 0.21127 0.84238 0.0
C2655 C 0.00619 0.17404 0.84169 0.0
loop_
_geom_bond_atom_site_label_1
_geom_bond_atom_site_label_2
_geom_bond_distance
_geom_bond_site_symmetry_2
_ccdc_geom_bond_type
C0 C1 1.351 . S
C0 N3 1.368 . S
C0 H5 0.931 . S
C1 C0 1.351 . S
C1 N2 1.373 . S
C1 H29 0.930 . S
N2 C1 1.373 . S
N2 C4 1.340 . S
N3 C0 1.368 . S
N3 C4 1.321 . S
N3 Co6 2.135 . S
C4 N2 1.340 . S
C4 N3 1.321 . S
C4 H28 0.930 . S
H5 C0 0.931 . S
Co6 N3 2.135 . S
Co6 N9 2.121 . S
Co6 O14 2.055 . S
Co6 O17 2.039 . S
Co6 N20 2.140 . S
C7 O8 1.227 . S
C7 O17 1.265 . S
O8 C7 1.227 . S
N9 Co6 2.121 . S
N9 C11 1.375 . S
N9 C12 1.313 . S
C10 C11 1.338 . S
C10 N13 1.377 . S
C10 H30 0.930 . S
C11 N9 1.375 . S
C11 C10 1.338 . S
C11 H15 0.931 . S
C12 N9 1.313 . S
C12 N13 1.344 . S
C12 H16 0.930 . S
N13 C10 1.377 . S
N13 C12 1.344 . S
O14 Co6 2.055 . S
O14 C18 1.253 . S
H15 C11 0.931 . S
H16 C12 0.930 . S
O17 Co6 2.039 . S
O17 C7 1.265 . S
C18 O14 1.253 . S
C18 O19 1.227 . S
O19 C18 1.227 . S
N20 Co6 2.140 . S
N20 C23 1.346 . S
N20 C24 1.345 . S
C21 C22 1.387 . S
C21 C25 1.391 . S
C22 C21 1.387 . S
C22 C23 1.369 . S
C22 H31 0.929 . S
C23 N20 1.346 . S
C23 C22 1.369 . S
C23 H26 0.928 . S
C24 N20 1.345 . S
C24 C25 1.371 . S
C24 H27 0.931 . S
C25 C21 1.391 . S
C25 C24 1.371 . S
C25 H32 0.930 . S
H26 C23 0.928 . S
H27 C24 0.931 . S
H28 C4 0.930 . S
H29 C1 0.930 . S
H30 C10 0.930 . S
H31 C22 0.929 . S
H32 C25 0.930 . S
C33 C34 1.351 . S
C33 N36 1.368 . S
C33 H38 0.931 . S
C34 C33 1.351 . S
C34 N35 1.373 . S
C34 H62 0.930 . S
N35 C34 1.373 . S
N35 C37 1.340 . S
N36 C33 1.368 . S
N36 C37 1.321 . S
N36 Co39 2.135 1_655 S
C37 N35 1.340 . S
C37 N36 1.321 . S
C37 H61 0.930 . S
H38 C33 0.931 . S
Co39 N36 2.135 1_455 S
Co39 N42 2.121 1_565 S
Co39 O47 2.055 . S
Co39 O50 2.039 . S
Co39 N53 2.140 1_565 S
C40 O41 1.227 1_565 S
C40 O50 1.265 . S
O41 C40 1.227 1_545 S
N42 Co39 2.121 1_545 S
N42 C44 1.375 . S
N42 C45 1.318 . S
C43 C44 1.338 . S
C43 N46 1.377 . S
C43 H63 0.930 . S
C44 N42 1.375 . S
C44 C43 1.338 . S
C44 H48 0.931 . S
C45 N42 1.318 . S
C45 N46 1.353 . S
C45 H49 0.918 1_545 S
N46 C43 1.377 . S
N46 C45 1.353 . S
O47 Co39 2.055 . S
O47 C51 1.253 . S
H48 C44 0.931 . S
H49 C45 0.918 1_565 S
O50 Co39 2.039 . S
O50 C40 1.265 . S
C51 O47 1.253 . S
C51 O52 1.227 . S
O52 C51 1.227 . S
N53 Co39 2.140 1_545 S
N53 C56 1.346 . S
N53 C57 1.345 . S
C54 C55 1.387 . S
C54 C58 1.391 . S
C55 C54 1.387 . S
C55 C56 1.369 . S
C55 H64 0.929 1_455 S
C56 N53 1.346 . S
C56 C55 1.369 . S
C56 H59 0.928 1_455 S
C57 N53 1.345 . S
C57 C58 1.371 . S
C57 H60 0.931 . S
C58 C54 1.391 . S
C58 C57 1.371 . S
C58 H65 0.930 . S
H59 C56 0.928 1_655 S
H60 C57 0.931 . S
H61 C37 0.930 . S
H62 C34 0.930 . S
H63 C43 0.930 . S
H64 C55 0.929 1_655 S
H65 C58 0.930 . S
C66 C67 1.351 . S
C66 N69 1.368 . S
C66 H71 0.931 . S
C67 C66 1.351 . S
C67 N68 1.373 . S
C67 H95 0.930 . S
N68 C67 1.373 . S
N68 C70 1.340 . S
N69 C66 1.368 . S
N69 C70 1.321 . S
N69 Co72 2.135 . S
C70 N68 1.340 . S
C70 N69 1.321 . S
C70 H94 0.930 . S
H71 C66 0.931 . S
Co72 N69 2.135 . S
Co72 N75 2.121 . S
Co72 O80 2.055 . S
Co72 O83 2.039 . S
Co72 N86 2.140 . S
C73 O74 1.227 . S
C73 O83 1.265 . S
O74 C73 1.227 . S
N75 Co72 2.121 . S
N75 C77 1.375 . S
N75 C78 1.313 . S
C76 C77 1.338 . S
C76 N79 1.377 . S
C76 H96 0.930 . S
C77 N75 1.375 . S
C77 C76 1.338 . S
C77 H81 0.931 . S
C78 N75 1.313 . S
C78 N79 1.344 . S
C78 H82 0.930 . S
N79 C76 1.377 . S
N79 C78 1.344 . S
O80 Co72 2.055 . S
O80 C84 1.253 . S
H81 C77 0.931 . S
H82 C78 0.930 . S
O83 Co72 2.039 . S
O83 C73 1.265 . S
C84 O80 1.253 . S
C84 O85 1.227 . S
O85 C84 1.227 . S
N86 Co72 2.140 . S
N86 C89 1.346 . S
N86 C90 1.345 . S
C87 C88 1.387 . S
C87 C91 1.391 . S
C88 C87 1.387 . S
C88 C89 1.369 . S
C88 H97 0.929 . S
C89 N86 1.346 . S
C89 C88 1.369 . S
C89 H92 0.928 . S
C90 N86 1.345 . S
C90 C91 1.371 . S
C90 H93 0.931 . S
C91 C87 1.391 . S
C91 C90 1.371 . S
C91 H98 0.930 . S
H92 C89 0.928 . S
H93 C90 0.931 . S
H94 C70 0.930 . S
H95 C67 0.930 . S
H96 C76 0.930 . S
H97 C88 0.929 . S
H98 C91 0.930 . S
C99 C100 1.351 . S
C99 N102 1.368 . S
C99 H104 0.931 . S
C100 C99 1.351 . S
C100 N101 1.373 . S
C100 H128 0.930 . S
N101 C100 1.373 . S
N101 C103 1.340 . S
N102 C99 1.368 . S
N102 C103 1.321 . S
N102 Co105 2.135 . S
C103 N101 1.340 . S
C103 N102 1.321 . S
C103 H127 0.930 . S
H104 C99 0.931 . S
Co105 N102 2.135 . S
Co105 N108 2.121 1_545 S
Co105 O113 2.055 . S
Co105 O116 2.039 . S
Co105 N119 2.140 1_545 S
C106 O107 1.227 1_545 S
C106 O116 1.265 . S
O107 C106 1.227 1_565 S
N108 Co105 2.121 1_565 S
N108 C110 1.375 . S
N108 C111 1.318 . S
C109 C110 1.338 . S
C109 N112 1.377 . S
C109 H129 0.930 . S
C110 N108 1.375 . S
C110 C109 1.338 . S
C110 H114 0.931 . S
C111 N108 1.318 . S
C111 N112 1.353 . S
C111 H115 0.918 1_565 S
N112 C109 1.377 . S
N112 C111 1.353 . S
O113 Co105 2.055 . S
O113 C117 1.253 . S
H114 C110 0.931 . S
H115 C111 0.918 1_545 S
O116 Co105 2.039 . S
O116 C106 1.265 . S
C117 O113 1.253 . S
C117 O118 1.227 . S
O118 C117 1.227 . S
N119 Co105 2.140 1_565 S
N119 C122 1.346 . S
N119 C123 1.345 . S
C120 C121 1.387 . S
C120 C124 1.391 . S
C121 C120 1.387 . S
C121 C122 1.369 . S
C121 H130 0.929 . S
C122 N119 1.346 . S
C122 C121 1.369 . S
C122 H125 0.928 . S
C123 N119 1.345 . S
C123 C124 1.371 . S
C123 H126 0.931 . S
C124 C120 1.391 . S
C124 C123 1.371 . S
C124 H131 0.930 . S
H125 C122 0.928 . S
H126 C123 0.931 . S
H127 C103 0.930 . S
H128 C100 0.930 . S
H129 C109 0.930 . S
H130 C121 0.929 . S
H131 C124 0.930 . S
C132 C133 1.351 . S
C132 N135 1.368 . S
C132 H137 0.931 . S
C133 C132 1.351 . S
C133 N134 1.373 . S
C133 H161 0.930 . S
N134 C133 1.373 . S
N134 C136 1.340 . S
N135 C132 1.368 . S
N135 C136 1.321 . S
N135 Co138 2.135 . S
C136 N134 1.340 . S
C136 N135 1.321 . S
C136 H160 0.930 . S
H137 C132 0.931 . S
Co138 N135 2.135 . S
Co138 N141 2.121 . S
Co138 O146 2.055 . S
Co138 O149 2.039 . S
Co138 N152 2.140 . S
C139 O140 1.227 . S
C139 O149 1.265 . S
O140 C139 1.227 . S
N141 Co138 2.121 . S
N141 C143 1.375 . S
N141 C144 1.313 . S
C142 C143 1.338 . S
C142 N145 1.377 . S
C142 H162 0.930 . S
C143 N141 1.375 . S
C143 C142 1.338 . S
C143 H147 0.931 . S
C144 N141 1.313 . S
C144 N145 1.344 . S
C144 H148 0.930 . S
N145 C142 1.377 . S
N145 C144 1.344 . S
O146 Co138 2.055 . S
O146 C150 1.253 . S
H147 C143 0.931 . S
H148 C144 0.930 . S
O149 Co138 2.039 . S
O149 C139 1.265 . S
C150 O146 1.253 . S
C150 O151 1.227 . S
O151 C150 1.227 . S
N152 Co138 2.140 . S
N152 C155 1.346 . S
N152 C156 1.345 . S
C153 C154 1.387 . S
C153 C157 1.391 . S
C154 C153 1.387 . S
C154 C155 1.369 . S
C154 H163 0.929 . S
C155 N152 1.346 . S
C155 C154 1.369 . S
C155 H158 0.928 . S
C156 N152 1.345 . S
C156 C157 1.371 . S
C156 H159 0.931 . S
C157 C153 1.391 . S
C157 C156 1.371 . S
C157 H164 0.930 . S
H158 C155 0.928 . S
H159 C156 0.931 . S
H160 C136 0.930 . S
H161 C133 0.930 . S
H162 C142 0.930 . S
H163 C154 0.929 . S
H164 C157 0.930 . S
C165 C166 1.351 . S
C165 N168 1.368 . S
C165 H170 0.931 . S
C166 C165 1.351 . S
C166 N167 1.373 . S
C166 H194 0.930 . S
N167 C166 1.373 . S
N167 C169 1.340 . S
N168 C165 1.368 . S
N168 C169 1.321 . S
N168 Co171 2.135 . S
C169 N167 1.340 . S
C169 N168 1.321 . S
C169 H193 0.930 . S
H170 C165 0.931 . S
Co171 N168 2.135 . S
Co171 N174 2.121 1_565 S
Co171 O179 2.055 . S
Co171 O182 2.039 . S
Co171 N185 2.140 1_565 S
C172 O173 1.227 1_565 S
C172 O182 1.265 . S
O173 C172 1.227 1_545 S
N174 Co171 2.121 1_545 S
N174 C176 1.375 . S
N174 C177 1.318 . S
C175 C176 1.338 . S
C175 N178 1.377 . S
C175 H195 0.930 . S
C176 N174 1.375 . S
C176 C175 1.338 . S
C176 H180 0.931 . S
C177 N174 1.318 . S
C177 N178 1.353 . S
C177 H181 0.918 1_545 S
N178 C175 1.377 . S
N178 C177 1.353 . S
O179 Co171 2.055 . S
O179 C183 1.253 . S
H180 C176 0.931 . S
H181 C177 0.918 1_565 S
O182 Co171 2.039 . S
O182 C172 1.265 . S
C183 O179 1.253 . S
C183 O184 1.227 . S
O184 C183 1.227 . S
N185 Co171 2.140 1_545 S
N185 C188 1.346 . S
N185 C189 1.345 . S
C186 C187 1.387 . S
C186 C190 1.391 . S
C187 C186 1.387 . S
C187 C188 1.369 . S
C187 H196 0.929 . S
C188 N185 1.346 . S
C188 C187 1.369 . S
C188 H191 0.928 . S
C189 N185 1.345 . S
C189 C190 1.371 . S
C189 H192 0.931 . S
C190 C186 1.391 . S
C190 C189 1.371 . S
C190 H197 0.930 . S
H191 C188 0.928 . S
H192 C189 0.931 . S
H193 C169 0.930 . S
H194 C166 0.930 . S
H195 C175 0.930 . S
H196 C187 0.929 . S
H197 C190 0.930 . S
C198 C199 1.351 . S
C198 N201 1.368 . S
C198 H203 0.931 . S
C199 C198 1.351 . S
C199 N200 1.373 . S
C199 H227 0.930 . S
N200 C199 1.373 . S
N200 C202 1.340 . S
N201 C198 1.368 . S
N201 C202 1.321 . S
N201 Co204 2.135 . S
C202 N200 1.340 . S
C202 N201 1.321 . S
C202 H226 0.930 . S
H203 C198 0.931 . S
Co204 N201 2.135 . S
Co204 N207 2.121 . S
Co204 O212 2.055 . S
Co204 O215 2.039 . S
Co204 N218 2.140 . S
C205 O206 1.227 . S
C205 O215 1.265 . S
O206 C205 1.227 . S
N207 Co204 2.121 . S
N207 C209 1.375 . S
N207 C210 1.313 . S
C208 C209 1.338 . S
C208 N211 1.377 . S
C208 H228 0.930 . S
C209 N207 1.375 . S
C209 C208 1.338 . S
C209 H213 0.931 . S
C210 N207 1.313 . S
C210 N211 1.344 . S
C210 H214 0.930 . S
N211 C208 1.377 . S
N211 C210 1.344 . S
O212 Co204 2.055 . S
O212 C216 1.253 . S
H213 C209 0.931 . S
H214 C210 0.930 . S
O215 Co204 2.039 . S
O215 C205 1.265 . S
C216 O212 1.253 . S
C216 O217 1.227 . S
O217 C216 1.227 . S
N218 Co204 2.140 . S
N218 C221 1.346 . S
N218 C222 1.345 . S
C219 C220 1.387 . S
C219 C223 1.391 . S
C220 C219 1.387 . S
C220 C221 1.369 . S
C220 H229 0.929 . S
C221 N218 1.346 . S
C221 C220 1.369 . S
C221 H224 0.928 . S
C222 N218 1.345 . S
C222 C223 1.371 . S
C222 H225 0.931 . S
C223 C219 1.391 . S
C223 C222 1.371 . S
C223 H230 0.930 . S
H224 C221 0.928 . S
H225 C222 0.931 . S
H226 C202 0.930 . S
H227 C199 0.930 . S
H228 C208 0.930 . S
H229 C220 0.929 . S
H230 C223 0.930 . S
C231 C232 1.351 . S
C231 N234 1.368 . S
C231 H236 0.931 . S
C232 C231 1.351 . S
C232 N233 1.373 . S
C232 H260 0.930 . S
N233 C232 1.373 . S
N233 C235 1.340 . S
N234 C231 1.368 . S
N234 C235 1.321 . S
N234 Co237 2.135 1_655 S
C235 N233 1.340 . S
C235 N234 1.321 . S
C235 H259 0.930 . S
H236 C231 0.931 . S
Co237 N234 2.135 1_455 S
Co237 N240 2.121 1_545 S
Co237 O245 2.055 . S
Co237 O248 2.039 . S
Co237 N251 2.140 1_545 S
C238 O239 1.227 1_545 S
C238 O248 1.265 . S
O239 C238 1.227 1_565 S
N240 Co237 2.121 1_565 S
N240 C242 1.375 . S
N240 C243 1.318 . S
C241 C242 1.338 . S
C241 N244 1.377 . S
C241 H261 0.930 . S
C242 N240 1.375 . S
C242 C241 1.338 . S
C242 H246 0.931 . S
C243 N240 1.318 . S
C243 N244 1.354 . S
C243 H247 0.918 1_565 S
N244 C241 1.377 . S
N244 C243 1.354 . S
O245 Co237 2.055 . S
O245 C249 1.253 . S
H246 C242 0.931 . S
H247 C243 0.918 1_545 S
O248 Co237 2.039 . S
O248 C238 1.265 . S
C249 O245 1.253 . S
C249 O250 1.227 . S
O250 C249 1.227 . S
N251 Co237 2.140 1_565 S
N251 C254 1.346 . S
N251 C255 1.345 . S
C252 C253 1.387 . S
C252 C256 1.391 . S
C253 C252 1.387 . S
C253 C254 1.369 . S
C253 H262 0.929 1_455 S
C254 N251 1.346 . S
C254 C253 1.369 . S
C254 H257 0.928 1_455 S
C255 N251 1.345 . S
C255 C256 1.371 . S
C255 H258 0.931 . S
C256 C252 1.391 . S
C256 C255 1.371 . S
C256 H263 0.930 . S
H257 C254 0.928 1_655 S
H258 C255 0.931 . S
H259 C235 0.930 . S
H260 C232 0.930 . S
H261 C241 0.930 . S
H262 C253 0.929 1_655 S
H263 C256 0.930 . S
C264 C265 1.351 . S
C264 N267 1.368 . S
C264 H269 0.931 . S
C265 C264 1.351 . S
C265 N266 1.373 . S
C265 H293 0.930 . S
N266 C265 1.373 . S
N266 C268 1.340 . S
N267 C264 1.368 . S
N267 C268 1.321 . S
N267 Co270 2.135 . S
C268 N266 1.340 . S
C268 N267 1.321 . S
C268 H292 0.930 . S
H269 C264 0.931 . S
Co270 N267 2.135 . S
Co270 N273 2.121 . S
Co270 O278 2.055 . S
Co270 O281 2.039 . S
Co270 N284 2.140 . S
C271 O272 1.227 . S
C271 O281 1.265 . S
O272 C271 1.227 . S
N273 Co270 2.121 . S
N273 C275 1.375 . S
N273 C276 1.313 . S
C274 C275 1.338 . S
C274 N277 1.377 . S
C274 H294 0.930 . S
C275 N273 1.375 . S
C275 C274 1.338 . S
C275 H279 0.931 . S
C276 N273 1.313 . S
C276 N277 1.344 . S
C276 H280 0.930 . S
N277 C274 1.377 . S
N277 C276 1.344 . S
O278 Co270 2.055 . S
O278 C282 1.253 . S
H279 C275 0.931 . S
H280 C276 0.930 . S
O281 Co270 2.039 . S
O281 C271 1.265 . S
C282 O278 1.253 . S
C282 O283 1.227 . S
O283 C282 1.227 . S
N284 Co270 2.140 . S
N284 C287 1.346 . S
N284 C288 1.345 . S
C285 C286 1.387 . S
C285 C289 1.391 . S
C286 C285 1.387 . S
C286 C287 1.369 . S
C286 H295 0.929 . S
C287 N284 1.346 . S
C287 C286 1.369 . S
C287 H290 0.928 . S
C288 N284 1.345 . S
C288 C289 1.371 . S
C288 H291 0.931 . S
C289 C285 1.391 . S
C289 C288 1.371 . S
C289 H296 0.930 . S
H290 C287 0.928 . S
H291 C288 0.931 . S
H292 C268 0.930 . S
H293 C265 0.930 . S
H294 C274 0.930 . S
H295 C286 0.929 . S
H296 C289 0.930 . S
C297 C298 1.351 . S
C297 N300 1.368 . S
C297 H302 0.931 . S
C298 C297 1.351 . S
C298 N299 1.373 . S
C298 H326 0.930 . S
N299 C298 1.373 . S
N299 C301 1.340 . S
N300 C297 1.368 . S
N300 C301 1.321 . S
N300 Co303 2.135 1_455 S
C301 N299 1.340 . S
C301 N300 1.321 . S
C301 H325 0.930 . S
H302 C297 0.931 . S
Co303 N300 2.135 1_655 S
Co303 N306 2.121 1_545 S
Co303 O311 2.055 . S
Co303 O314 2.039 . S
Co303 N317 2.140 1_545 S
C304 O305 1.227 1_545 S
C304 O314 1.265 . S
O305 C304 1.227 1_565 S
N306 Co303 2.121 1_565 S
N306 C308 1.375 . S
N306 C309 1.318 . S
C307 C308 1.338 . S
C307 N310 1.377 . S
C307 H327 0.930 . S
C308 N306 1.375 . S
C308 C307 1.338 . S
C308 H312 0.931 . S
C309 N306 1.318 . S
C309 N310 1.353 . S
C309 H313 0.918 1_565 S
N310 C307 1.377 . S
N310 C309 1.353 . S
O311 Co303 2.055 . S
O311 C315 1.253 . S
H312 C308 0.931 . S
H313 C309 0.918 1_545 S
O314 Co303 2.039 . S
O314 C304 1.265 . S
C315 O311 1.253 . S
C315 O316 1.227 . S
O316 C315 1.227 . S
N317 Co303 2.140 1_565 S
N317 C320 1.346 . S
N317 C321 1.345 . S
C318 C319 1.387 . S
C318 C322 1.391 . S
C319 C318 1.387 . S
C319 C320 1.369 . S
C319 H328 0.929 1_655 S
C320 N317 1.346 . S
C320 C319 1.369 . S
C320 H323 0.928 1_655 S
C321 N317 1.345 . S
C321 C322 1.371 . S
C321 H324 0.931 . S
C322 C318 1.391 . S
C322 C321 1.371 . S
C322 H329 0.930 . S
H323 C320 0.928 1_455 S
H324 C321 0.931 . S
H325 C301 0.930 . S
H326 C298 0.930 . S
H327 C307 0.930 . S
H328 C319 0.929 1_455 S
H329 C322 0.930 . S
C330 C331 1.351 . S
C330 N333 1.368 . S
C330 H335 0.931 . S
C331 C330 1.351 . S
C331 N332 1.373 . S
C331 H359 0.930 . S
N332 C331 1.373 . S
N332 C334 1.340 . S
N333 C330 1.368 . S
N333 C334 1.321 . S
N333 Co336 2.135 . S
C334 N332 1.340 . S
C334 N333 1.321 . S
C334 H358 0.930 . S
H335 C330 0.931 . S
Co336 N333 2.135 . S
Co336 N339 2.121 . S
Co336 O344 2.055 . S
Co336 O347 2.039 . S
Co336 N350 2.140 . S
C337 O338 1.227 . S
C337 O347 1.265 . S
O338 C337 1.227 . S
N339 Co336 2.121 . S
N339 C341 1.375 . S
N339 C342 1.313 . S
C340 C341 1.338 . S
C340 N343 1.377 . S
C340 H360 0.930 . S
C341 N339 1.375 . S
C341 C340 1.338 . S
C341 H345 0.931 . S
C342 N339 1.313 . S
C342 N343 1.344 . S
C342 H346 0.930 . S
N343 C340 1.377 . S
N343 C342 1.344 . S
O344 Co336 2.055 . S
O344 C348 1.253 . S
H345 C341 0.931 . S
H346 C342 0.930 . S
O347 Co336 2.039 . S
O347 C337 1.265 . S
C348 O344 1.253 . S
C348 O349 1.227 . S
O349 C348 1.227 . S
N350 Co336 2.140 . S
N350 C353 1.346 . S
N350 C354 1.345 . S
C351 C352 1.387 . S
C351 C355 1.391 . S
C352 C351 1.387 . S
C352 C353 1.369 . S
C352 H361 0.929 . S
C353 N350 1.346 . S
C353 C352 1.369 . S
C353 H356 0.928 . S
C354 N350 1.345 . S
C354 C355 1.371 . S
C354 H357 0.931 . S
C355 C351 1.391 . S
C355 C354 1.371 . S
C355 H362 0.930 . S
H356 C353 0.928 . S
H357 C354 0.931 . S
H358 C334 0.930 . S
H359 C331 0.930 . S
H360 C340 0.930 . S
H361 C352 0.929 . S
H362 C355 0.930 . S
C363 C364 1.351 . S
C363 N366 1.368 . S
C363 H368 0.931 . S
C364 C363 1.351 . S
C364 N365 1.373 . S
C364 H392 0.930 . S
N365 C364 1.373 . S
N365 C367 1.340 . S
N366 C363 1.368 . S
N366 C367 1.321 . S
N366 Co369 2.135 . S
C367 N365 1.340 . S
C367 N366 1.321 . S
C367 H391 0.930 . S
H368 C363 0.931 . S
Co369 N366 2.135 . S
Co369 N372 2.121 1_565 S
Co369 O377 2.055 . S
Co369 O380 2.039 . S
Co369 N383 2.140 1_565 S
C370 O371 1.227 1_565 S
C370 O380 1.265 . S
O371 C370 1.227 1_545 S
N372 Co369 2.121 1_545 S
N372 C374 1.375 . S
N372 C375 1.318 . S
C373 C374 1.338 . S
C373 N376 1.377 . S
C373 H393 0.930 . S
C374 N372 1.375 . S
C374 C373 1.338 . S
C374 H378 0.931 . S
C375 N372 1.318 . S
C375 N376 1.353 . S
C375 H379 0.918 1_545 S
N376 C373 1.377 . S
N376 C375 1.353 . S
O377 Co369 2.055 . S
O377 C381 1.253 . S
H378 C374 0.931 . S
H379 C375 0.918 1_565 S
O380 Co369 2.039 . S
O380 C370 1.265 . S
C381 O377 1.253 . S
C381 O382 1.227 . S
O382 C381 1.227 . S
N383 Co369 2.140 1_545 S
N383 C386 1.346 . S
N383 C387 1.345 . S
C384 C385 1.387 . S
C384 C388 1.391 . S
C385 C384 1.387 . S
C385 C386 1.369 . S
C385 H394 0.929 . S
C386 N383 1.346 . S
C386 C385 1.369 . S
C386 H389 0.928 . S
C387 N383 1.345 . S
C387 C388 1.371 . S
C387 H390 0.931 . S
C388 C384 1.391 . S
C388 C387 1.371 . S
C388 H395 0.930 . S
H389 C386 0.928 . S
H390 C387 0.931 . S
H391 C367 0.930 . S
H392 C364 0.930 . S
H393 C373 0.930 . S
H394 C385 0.929 . S
H395 C388 0.930 . S
C396 C397 1.351 . S
C396 N399 1.368 . S
C396 H401 0.931 . S
C397 C396 1.351 . S
C397 N398 1.373 . S
C397 H425 0.930 . S
N398 C397 1.373 . S
N398 C400 1.340 . S
N399 C396 1.368 . S
N399 C400 1.321 . S
N399 Co402 2.135 . S
C400 N398 1.340 . S
C400 N399 1.321 . S
C400 H424 0.930 . S
H401 C396 0.931 . S
Co402 N399 2.135 . S
Co402 N405 2.121 . S
Co402 O410 2.055 . S
Co402 O413 2.039 . S
Co402 N416 2.140 . S
C403 O404 1.227 . S
C403 O413 1.265 . S
O404 C403 1.227 . S
N405 Co402 2.121 . S
N405 C407 1.375 . S
N405 C408 1.313 . S
C406 C407 1.338 . S
C406 N409 1.377 . S
C406 H426 0.930 . S
C407 N405 1.375 . S
C407 C406 1.338 . S
C407 H411 0.931 . S
C408 N405 1.313 . S
C408 N409 1.344 . S
C408 H412 0.930 . S
N409 C406 1.377 . S
N409 C408 1.344 . S
O410 Co402 2.055 . S
O410 C414 1.253 . S
H411 C407 0.931 . S
H412 C408 0.930 . S
O413 Co402 2.039 . S
O413 C403 1.265 . S
C414 O410 1.253 . S
C414 O415 1.227 . S
O415 C414 1.227 . S
N416 Co402 2.140 . S
N416 C419 1.346 . S
N416 C420 1.345 . S
C417 C418 1.387 . S
C417 C421 1.391 . S
C418 C417 1.387 . S
C418 C419 1.369 . S
C418 H427 0.929 . S
C419 N416 1.346 . S
C419 C418 1.369 . S
C419 H422 0.928 . S
C420 N416 1.345 . S
C420 C421 1.371 . S
C420 H423 0.931 . S
C421 C417 1.391 . S
C421 C420 1.371 . S
C421 H428 0.930 . S
H422 C419 0.928 . S
H423 C420 0.931 . S
H424 C400 0.930 . S
H425 C397 0.930 . S
H426 C406 0.930 . S
H427 C418 0.929 . S
H428 C421 0.930 . S
C429 C430 1.351 . S
C429 N432 1.368 . S
C429 H434 0.931 . S
C430 C429 1.351 . S
C430 N431 1.373 . S
C430 H458 0.930 . S
N431 C430 1.373 . S
N431 C433 1.340 . S
N432 C429 1.368 . S
N432 C433 1.321 . S
N432 Co435 2.135 . S
C433 N431 1.340 . S
C433 N432 1.321 . S
C433 H457 0.930 . S
H434 C429 0.931 . S
Co435 N432 2.135 . S
Co435 N438 2.121 1_545 S
Co435 O443 2.055 . S
Co435 O446 2.039 . S
Co435 N449 2.140 1_545 S
C436 O437 1.227 1_545 S
C436 O446 1.265 . S
O437 C436 1.227 1_565 S
N438 Co435 2.121 1_565 S
N438 C440 1.375 . S
N438 C441 1.318 . S
C439 C440 1.338 . S
C439 N442 1.377 . S
C439 H459 0.930 . S
C440 N438 1.375 . S
C440 C439 1.338 . S
C440 H444 0.931 . S
C441 N438 1.318 . S
C441 N442 1.353 . S
C441 H445 0.918 1_565 S
N442 C439 1.377 . S
N442 C441 1.353 . S
O443 Co435 2.055 . S
O443 C447 1.253 . S
H444 C440 0.931 . S
H445 C441 0.918 1_545 S
O446 Co435 2.039 . S
O446 C436 1.265 . S
C447 O443 1.253 . S
C447 O448 1.227 . S
O448 C447 1.227 . S
N449 Co435 2.140 1_565 S
N449 C452 1.346 . S
N449 C453 1.345 . S
C450 C451 1.387 . S
C450 C454 1.391 . S
C451 C450 1.387 . S
C451 C452 1.369 . S
C451 H460 0.929 . S
C452 N449 1.346 . S
C452 C451 1.369 . S
C452 H455 0.928 . S
C453 N449 1.345 . S
C453 C454 1.371 . S
C453 H456 0.931 . S
C454 C450 1.391 . S
C454 C453 1.371 . S
C454 H461 0.930 . S
H455 C452 0.928 . S
H456 C453 0.931 . S
H457 C433 0.930 . S
H458 C430 0.930 . S
H459 C439 0.930 . S
H460 C451 0.929 . S
H461 C454 0.930 . S
C462 C463 1.351 . S
C462 N465 1.368 . S
C462 H467 0.931 . S
C463 C462 1.351 . S
C463 N464 1.373 . S
C463 H491 0.930 . S
N464 C463 1.373 . S
N464 C466 1.340 . S
N465 C462 1.368 . S
N465 C466 1.321 . S
N465 Co468 2.135 . S
C466 N464 1.340 . S
C466 N465 1.321 . S
C466 H490 0.930 . S
H467 C462 0.931 . S
Co468 N465 2.135 . S
Co468 N471 2.121 . S
Co468 O476 2.055 . S
Co468 O479 2.039 . S
Co468 N482 2.140 . S
C469 O470 1.227 . S
C469 O479 1.265 . S
O470 C469 1.227 . S
N471 Co468 2.121 . S
N471 C473 1.375 . S
N471 C474 1.313 . S
C472 C473 1.338 . S
C472 N475 1.377 . S
C472 H492 0.930 . S
C473 N471 1.375 . S
C473 C472 1.338 . S
C473 H477 0.931 . S
C474 N471 1.313 . S
C474 N475 1.344 . S
C474 H478 0.930 . S
N475 C472 1.377 . S
N475 C474 1.344 . S
O476 Co468 2.055 . S
O476 C480 1.253 . S
H477 C473 0.931 . S
H478 C474 0.930 . S
O479 Co468 2.039 . S
O479 C469 1.265 . S
C480 O476 1.253 . S
C480 O481 1.227 . S
O481 C480 1.227 . S
N482 Co468 2.140 . S
N482 C485 1.346 . S
N482 C486 1.345 . S
C483 C484 1.387 . S
C483 C487 1.391 . S
C484 C483 1.387 . S
C484 C485 1.369 . S
C484 H493 0.929 . S
C485 N482 1.346 . S
C485 C484 1.369 . S
C485 H488 0.928 . S
C486 N482 1.345 . S
C486 C487 1.371 . S
C486 H489 0.931 . S
C487 C483 1.391 . S
C487 C486 1.371 . S
C487 H494 0.930 . S
H488 C485 0.928 . S
H489 C486 0.931 . S
H490 C466 0.930 . S
H491 C463 0.930 . S
H492 C472 0.930 . S
H493 C484 0.929 . S
H494 C487 0.930 . S
C495 C496 1.351 . S
C495 N498 1.368 . S
C495 H500 0.931 . S
C496 C495 1.351 . S
C496 N497 1.373 . S
C496 H524 0.930 . S
N497 C496 1.373 . S
N497 C499 1.340 . S
N498 C495 1.368 . S
N498 C499 1.321 . S
N498 Co501 2.135 1_455 S
C499 N497 1.340 . S
C499 N498 1.321 . S
C499 H523 0.930 . S
H500 C495 0.931 . S
Co501 N498 2.135 1_655 S
Co501 N504 2.121 1_565 S
Co501 O509 2.055 . S
Co501 O512 2.039 . S
Co501 N515 2.140 1_565 S
C502 O503 1.227 1_565 S
C502 O512 1.265 . S
O503 C502 1.227 1_545 S
N504 Co501 2.121 1_545 S
N504 C506 1.375 . S
N504 C507 1.318 . S
C505 C506 1.338 . S
C505 N508 1.377 . S
C505 H525 0.930 . S
C506 N504 1.375 . S
C506 C505 1.338 . S
C506 H510 0.931 . S
C507 N504 1.318 . S
C507 N508 1.354 . S
C507 H511 0.918 1_545 S
N508 C505 1.377 . S
N508 C507 1.354 . S
O509 Co501 2.055 . S
O509 C513 1.253 . S
H510 C506 0.931 . S
H511 C507 0.918 1_565 S
O512 Co501 2.039 . S
O512 C502 1.265 . S
C513 O509 1.253 . S
C513 O514 1.227 . S
O514 C513 1.227 . S
N515 Co501 2.140 1_545 S
N515 C518 1.346 . S
N515 C519 1.345 . S
C516 C517 1.387 . S
C516 C520 1.391 . S
C517 C516 1.387 . S
C517 C518 1.369 . S
C517 H526 0.929 1_655 S
C518 N515 1.346 . S
C518 C517 1.369 . S
C518 H521 0.928 1_655 S
C519 N515 1.345 . S
C519 C520 1.371 . S
C519 H522 0.931 . S
C520 C516 1.391 . S
C520 C519 1.371 . S
C520 H527 0.930 . S
H521 C518 0.928 1_455 S
H522 C519 0.931 . S
H523 C499 0.930 . S
H524 C496 0.930 . S
H525 C505 0.930 . S
H526 C517 0.929 1_455 S
H527 C520 0.930 . S
C528 C529 1.351 . S
C528 N531 1.368 . S
C528 H533 0.931 . S
C529 C528 1.351 . S
C529 N530 1.373 . S
C529 H557 0.930 . S
N530 C529 1.373 . S
N530 C532 1.340 . S
N531 C528 1.368 . S
N531 C532 1.321 . S
N531 Co534 2.135 . S
C532 N530 1.340 . S
C532 N531 1.321 . S
C532 H556 0.930 . S
H533 C528 0.931 . S
Co534 N531 2.135 . S
Co534 N537 2.121 . S
Co534 O542 2.055 . S
Co534 O545 2.039 . S
Co534 N548 2.140 . S
C535 O536 1.227 . S
C535 O545 1.265 . S
O536 C535 1.227 . S
N537 Co534 2.121 . S
N537 C539 1.375 . S
N537 C540 1.313 . S
C538 C539 1.338 . S
C538 N541 1.377 . S
C538 H558 0.930 . S
C539 N537 1.375 . S
C539 C538 1.338 . S
C539 H543 0.931 . S
C540 N537 1.313 . S
C540 N541 1.344 . S
C540 H544 0.930 . S
N541 C538 1.377 . S
N541 C540 1.344 . S
O542 Co534 2.055 . S
O542 C546 1.253 . S
H543 C539 0.931 . S
H544 C540 0.930 . S
O545 Co534 2.039 . S
O545 C535 1.265 . S
C546 O542 1.253 . S
C546 O547 1.227 . S
O547 C546 1.227 . S
N548 Co534 2.140 . S
N548 C551 1.346 . S
N548 C552 1.345 . S
C549 C550 1.387 . S
C549 C553 1.391 . S
C550 C549 1.387 . S
C550 C551 1.369 . S
C550 H559 0.929 . S
C551 N548 1.346 . S
C551 C550 1.369 . S
C551 H554 0.928 . S
C552 N548 1.345 . S
C552 C553 1.371 . S
C552 H555 0.931 . S
C553 C549 1.391 . S
C553 C552 1.371 . S
C553 H560 0.930 . S
H554 C551 0.928 . S
H555 C552 0.931 . S
H556 C532 0.930 . S
H557 C529 0.930 . S
H558 C538 0.930 . S
H559 C550 0.929 . S
H560 C553 0.930 . S
C561 C562 1.351 . S
C561 N564 1.368 . S
C561 H566 0.931 . S
C562 C561 1.351 . S
C562 N563 1.373 . S
C562 H590 0.930 . S
N563 C562 1.373 . S
N563 C565 1.340 . S
N564 C561 1.368 . S
N564 C565 1.321 . S
N564 Co567 2.135 . S
C565 N563 1.340 . S
C565 N564 1.321 . S
C565 H589 0.930 . S
H566 C561 0.931 . S
Co567 N564 2.135 . S
Co567 N570 2.121 . S
Co567 O575 2.055 . S
Co567 O578 2.039 . S
Co567 N581 2.140 . S
C568 O569 1.227 . S
C568 O578 1.265 . S
O569 C568 1.227 . S
N570 Co567 2.121 . S
N570 C572 1.375 . S
N570 C573 1.313 . S
C571 C572 1.338 . S
C571 N574 1.377 . S
C571 H591 0.930 . S
C572 N570 1.375 . S
C572 C571 1.338 . S
C572 H576 0.931 . S
C573 N570 1.313 . S
C573 N574 1.344 . S
C573 H577 0.930 . S
N574 C571 1.377 . S
N574 C573 1.344 . S
O575 Co567 2.055 . S
O575 C579 1.253 . S
H576 C572 0.931 . S
H577 C573 0.930 . S
O578 Co567 2.039 . S
O578 C568 1.265 . S
C579 O575 1.253 . S
C579 O580 1.227 . S
O580 C579 1.227 . S
N581 Co567 2.140 . S
N581 C584 1.346 . S
N581 C585 1.345 . S
C582 C583 1.387 . S
C582 C586 1.391 . S
C583 C582 1.387 . S
C583 C584 1.369 . S
C583 H592 0.929 . S
C584 N581 1.346 . S
C584 C583 1.369 . S
C584 H587 0.928 . S
C585 N581 1.345 . S
C585 C586 1.371 . S
C585 H588 0.931 . S
C586 C582 1.391 . S
C586 C585 1.371 . S
C586 H593 0.930 . S
H587 C584 0.928 . S
H588 C585 0.931 . S
H589 C565 0.930 . S
H590 C562 0.930 . S
H591 C571 0.930 . S
H592 C583 0.929 . S
H593 C586 0.930 . S
C594 C595 1.351 . S
C594 N597 1.368 . S
C594 H599 0.931 . S
C595 C594 1.351 . S
C595 N596 1.373 . S
C595 H623 0.930 . S
N596 C595 1.373 . S
N596 C598 1.340 . S
N597 C594 1.368 . S
N597 C598 1.321 . S
N597 Co600 2.135 . S
C598 N596 1.340 . S
C598 N597 1.321 . S
C598 H622 0.930 . S
H599 C594 0.931 . S
Co600 N597 2.135 . S
Co600 N603 2.121 . S
Co600 O608 2.055 . S
Co600 O611 2.039 . S
Co600 N614 2.140 . S
C601 O602 1.227 . S
C601 O611 1.265 . S
O602 C601 1.227 . S
N603 Co600 2.121 . S
N603 C605 1.375 . S
N603 C606 1.313 . S
C604 C605 1.338 . S
C604 N607 1.377 . S
C604 H624 0.930 . S
C605 N603 1.375 . S
C605 C604 1.338 . S
C605 H609 0.931 . S
C606 N603 1.313 . S
C606 N607 1.344 . S
C606 H610 0.930 . S
N607 C604 1.377 . S
N607 C606 1.344 . S
O608 Co600 2.055 . S
O608 C612 1.253 . S
H609 C605 0.931 . S
H610 C606 0.930 . S
O611 Co600 2.039 . S
O611 C601 1.265 . S
C612 O608 1.253 . S
C612 O613 1.227 . S
O613 C612 1.227 . S
N614 Co600 2.140 . S
N614 C617 1.346 . S
N614 C618 1.345 . S
C615 C616 1.387 . S
C615 C619 1.391 . S
C616 C615 1.387 . S
C616 C617 1.369 . S
C616 H625 0.929 . S
C617 N614 1.346 . S
C617 C616 1.369 . S
C617 H620 0.928 . S
C618 N614 1.345 . S
C618 C619 1.371 . S
C618 H621 0.931 . S
C619 C615 1.391 . S
C619 C618 1.371 . S
C619 H626 0.930 . S
H620 C617 0.928 . S
H621 C618 0.931 . S
H622 C598 0.930 . S
H623 C595 0.930 . S
H624 C604 0.930 . S
H625 C616 0.929 . S
H626 C619 0.930 . S
C627 C628 1.351 . S
C627 N630 1.368 . S
C627 H632 0.931 . S
C628 C627 1.351 . S
C628 N629 1.373 . S
C628 H656 0.930 . S
N629 C628 1.373 . S
N629 C631 1.340 . S
N630 C627 1.368 . S
N630 C631 1.321 . S
N630 Co633 2.135 1_455 S
C631 N629 1.340 . S
C631 N630 1.321 . S
C631 H655 0.930 . S
H632 C627 0.931 . S
Co633 N630 2.135 1_655 S
Co633 N636 2.121 . S
Co633 O641 2.055 . S
Co633 O644 2.039 . S
Co633 N647 2.140 . S
C634 O635 1.227 . S
C634 O644 1.265 . S
O635 C634 1.227 . S
N636 Co633 2.121 . S
N636 C638 1.375 . S
N636 C639 1.313 . S
C637 C638 1.338 . S
C637 N640 1.377 . S
C637 H657 0.930 . S
C638 N636 1.375 . S
C638 C637 1.338 . S
C638 H642 0.931 . S
C639 N636 1.313 . S
C639 N640 1.344 . S
C639 H643 0.930 . S
N640 C637 1.377 . S
N640 C639 1.344 . S
O641 Co633 2.055 . S
O641 C645 1.253 . S
H642 C638 0.931 . S
H643 C639 0.930 . S
O644 Co633 2.039 . S
O644 C634 1.265 . S
C645 O641 1.253 . S
C645 O646 1.227 . S
O646 C645 1.227 . S
N647 Co633 2.140 . S
N647 C650 1.346 . S
N647 C651 1.345 . S
C648 C649 1.387 . S
C648 C652 1.391 . S
C649 C648 1.387 . S
C649 C650 1.369 . S
C649 H658 0.929 1_655 S
C650 N647 1.346 . S
C650 C649 1.369 . S
C650 H653 0.928 1_655 S
C651 N647 1.345 . S
C651 C652 1.371 . S
C651 H654 0.931 . S
C652 C648 1.391 . S
C652 C651 1.371 . S
C652 H659 0.930 . S
H653 C650 0.928 1_455 S
H654 C651 0.931 . S
H655 C631 0.930 . S
H656 C628 0.930 . S
H657 C637 0.930 . S
H658 C649 0.929 1_455 S
H659 C652 0.930 . S
C660 C661 1.351 . S
C660 N663 1.368 . S
C660 H665 0.931 . S
C661 C660 1.351 . S
C661 N662 1.373 . S
C661 H689 0.930 . S
N662 C661 1.373 . S
N662 C664 1.340 . S
N663 C660 1.368 . S
N663 C664 1.321 . S
N663 Co666 2.135 . S
C664 N662 1.340 . S
C664 N663 1.321 . S
C664 H688 0.930 . S
H665 C660 0.931 . S
Co666 N663 2.135 . S
Co666 N669 2.121 . S
Co666 O674 2.055 . S
Co666 O677 2.039 . S
Co666 N680 2.140 . S
C667 O668 1.227 . S
C667 O677 1.265 . S
O668 C667 1.227 . S
N669 Co666 2.121 . S
N669 C671 1.375 . S
N669 C672 1.313 . S
C670 C671 1.338 . S
C670 N673 1.377 . S
C670 H690 0.930 . S
C671 N669 1.375 . S
C671 C670 1.338 . S
C671 H675 0.931 . S
C672 N669 1.313 . S
C672 N673 1.344 . S
C672 H676 0.930 . S
N673 C670 1.377 . S
N673 C672 1.344 . S
O674 Co666 2.055 . S
O674 C678 1.253 . S
H675 C671 0.931 . S
H676 C672 0.930 . S
O677 Co666 2.039 . S
O677 C667 1.265 . S
C678 O674 1.253 . S
C678 O679 1.227 . S
O679 C678 1.227 . S
N680 Co666 2.140 . S
N680 C683 1.346 . S
N680 C684 1.345 . S
C681 C682 1.387 . S
C681 C685 1.391 . S
C682 C681 1.387 . S
C682 C683 1.369 . S
C682 H691 0.929 . S
C683 N680 1.346 . S
C683 C682 1.369 . S
C683 H686 0.928 . S
C684 N680 1.345 . S
C684 C685 1.371 . S
C684 H687 0.931 . S
C685 C681 1.391 . S
C685 C684 1.371 . S
C685 H692 0.930 . S
H686 C683 0.928 . S
H687 C684 0.931 . S
H688 C664 0.930 . S
H689 C661 0.930 . S
H690 C670 0.930 . S
H691 C682 0.929 . S
H692 C685 0.930 . S
C693 C694 1.351 . S
C693 N696 1.368 . S
C693 H698 0.931 . S
C694 C693 1.351 . S
C694 N695 1.373 . S
C694 H722 0.930 . S
N695 C694 1.373 . S
N695 C697 1.340 . S
N696 C693 1.368 . S
N696 C697 1.321 . S
N696 Co699 2.135 1_455 S
C697 N695 1.340 . S
C697 N696 1.321 . S
C697 H721 0.930 . S
H698 C693 0.931 . S
Co699 N696 2.135 1_655 S
Co699 N702 2.121 . S
Co699 O707 2.055 . S
Co699 O710 2.039 . S
Co699 N713 2.140 . S
C700 O701 1.227 . S
C700 O710 1.265 . S
O701 C700 1.227 . S
N702 Co699 2.121 . S
N702 C704 1.375 . S
N702 C705 1.313 . S
C703 C704 1.338 . S
C703 N706 1.377 . S
C703 H723 0.930 . S
C704 N702 1.375 . S
C704 C703 1.338 . S
C704 H708 0.931 . S
C705 N702 1.313 . S
C705 N706 1.344 . S
C705 H709 0.930 . S
N706 C703 1.377 . S
N706 C705 1.344 . S
O707 Co699 2.055 . S
O707 C711 1.253 . S
H708 C704 0.931 . S
H709 C705 0.930 . S
O710 Co699 2.039 . S
O710 C700 1.265 . S
C711 O707 1.253 . S
C711 O712 1.227 . S
O712 C711 1.227 . S
N713 Co699 2.140 . S
N713 C716 1.346 . S
N713 C717 1.345 . S
C714 C715 1.387 . S
C714 C718 1.391 . S
C715 C714 1.387 . S
C715 C716 1.369 . S
C715 H724 0.929 1_655 S
C716 N713 1.346 . S
C716 C715 1.369 . S
C716 H719 0.928 1_655 S
C717 N713 1.345 . S
C717 C718 1.371 . S
C717 H720 0.931 . S
C718 C714 1.391 . S
C718 C717 1.371 . S
C718 H725 0.930 . S
H719 C716 0.928 1_455 S
H720 C717 0.931 . S
H721 C697 0.930 . S
H722 C694 0.930 . S
H723 C703 0.930 . S
H724 C715 0.929 1_455 S
H725 C718 0.930 . S
C726 C727 1.351 . S
C726 N729 1.368 . S
C726 H731 0.931 . S
C727 C726 1.351 . S
C727 N728 1.373 . S
C727 H755 0.930 . S
N728 C727 1.373 . S
N728 C730 1.340 . S
N729 C726 1.368 . S
N729 C730 1.321 . S
N729 Co732 2.135 . S
C730 N728 1.340 . S
C730 N729 1.321 . S
C730 H754 0.930 . S
H731 C726 0.931 . S
Co732 N729 2.135 . S
Co732 N735 2.121 . S
Co732 O740 2.055 . S
Co732 O743 2.039 . S
Co732 N746 2.140 . S
C733 O734 1.227 . S
C733 O743 1.265 . S
O734 C733 1.227 . S
N735 Co732 2.121 . S
N735 C737 1.375 . S
N735 C738 1.313 . S
C736 C737 1.338 . S
C736 N739 1.377 . S
C736 H756 0.930 . S
C737 N735 1.375 . S
C737 C736 1.338 . S
C737 H741 0.931 . S
C738 N735 1.313 . S
C738 N739 1.344 . S
C738 H742 0.930 . S
N739 C736 1.377 . S
N739 C738 1.344 . S
O740 Co732 2.055 . S
O740 C744 1.253 . S
H741 C737 0.931 . S
H742 C738 0.930 . S
O743 Co732 2.039 . S
O743 C733 1.265 . S
C744 O740 1.253 . S
C744 O745 1.227 . S
O745 C744 1.227 . S
N746 Co732 2.140 . S
N746 C749 1.346 . S
N746 C750 1.345 . S
C747 C748 1.387 . S
C747 C751 1.391 . S
C748 C747 1.387 . S
C748 C749 1.369 . S
C748 H757 0.929 . S
C749 N746 1.346 . S
C749 C748 1.369 . S
C749 H752 0.928 . S
C750 N746 1.345 . S
C750 C751 1.371 . S
C750 H753 0.931 . S
C751 C747 1.391 . S
C751 C750 1.371 . S
C751 H758 0.930 . S
H752 C749 0.928 . S
H753 C750 0.931 . S
H754 C730 0.930 . S
H755 C727 0.930 . S
H756 C736 0.930 . S
H757 C748 0.929 . S
H758 C751 0.930 . S
C759 C760 1.351 . S
C759 N762 1.368 . S
C759 H764 0.931 . S
C760 C759 1.351 . S
C760 N761 1.373 . S
C760 H788 0.930 . S
N761 C760 1.373 . S
N761 C763 1.340 . S
N762 C759 1.368 . S
N762 C763 1.321 . S
N762 Co765 2.135 . S
C763 N761 1.340 . S
C763 N762 1.321 . S
C763 H787 0.930 . S
H764 C759 0.931 . S
Co765 N762 2.135 . S
Co765 N768 2.121 . S
Co765 O773 2.055 . S
Co765 O776 2.039 . S
Co765 N779 2.140 . S
C766 O767 1.227 . S
C766 O776 1.265 . S
O767 C766 1.227 . S
N768 Co765 2.121 . S
N768 C770 1.375 . S
N768 C771 1.313 . S
C769 C770 1.338 . S
C769 N772 1.377 . S
C769 H789 0.930 . S
C770 N768 1.375 . S
C770 C769 1.338 . S
C770 H774 0.931 . S
C771 N768 1.313 . S
C771 N772 1.344 . S
C771 H775 0.930 . S
N772 C769 1.377 . S
N772 C771 1.344 . S
O773 Co765 2.055 . S
O773 C777 1.253 . S
H774 C770 0.931 . S
H775 C771 0.930 . S
O776 Co765 2.039 . S
O776 C766 1.265 . S
C777 O773 1.253 . S
C777 O778 1.227 . S
O778 C777 1.227 . S
N779 Co765 2.140 . S
N779 C782 1.346 . S
N779 C783 1.345 . S
C780 C781 1.387 . S
C780 C784 1.391 . S
C781 C780 1.387 . S
C781 C782 1.369 . S
C781 H790 0.929 . S
C782 N779 1.346 . S
C782 C781 1.369 . S
C782 H785 0.928 . S
C783 N779 1.345 . S
C783 C784 1.371 . S
C783 H786 0.931 . S
C784 C780 1.391 . S
C784 C783 1.371 . S
C784 H791 0.930 . S
H785 C782 0.928 . S
H786 C783 0.931 . S
H787 C763 0.930 . S
H788 C760 0.930 . S
H789 C769 0.930 . S
H790 C781 0.929 . S
H791 C784 0.930 . S
C792 C793 1.351 . S
C792 N795 1.368 . S
C792 H797 0.931 . S
C793 C792 1.351 . S
C793 N794 1.373 . S
C793 H821 0.930 . S
N794 C793 1.373 . S
N794 C796 1.340 . S
N795 C792 1.368 . S
N795 C796 1.321 . S
N795 Co798 2.135 . S
C796 N794 1.340 . S
C796 N795 1.321 . S
C796 H820 0.930 . S
H797 C792 0.931 . S
Co798 N795 2.135 . S
Co798 N801 2.121 . S
Co798 O806 2.055 . S
Co798 O809 2.039 . S
Co798 N812 2.140 . S
C799 O800 1.227 . S
C799 O809 1.265 . S
O800 C799 1.227 . S
N801 Co798 2.121 . S
N801 C803 1.375 . S
N801 C804 1.313 . S
C802 C803 1.338 . S
C802 N805 1.377 . S
C802 H822 0.930 . S
C803 N801 1.375 . S
C803 C802 1.338 . S
C803 H807 0.931 . S
C804 N801 1.313 . S
C804 N805 1.344 . S
C804 H808 0.930 . S
N805 C802 1.377 . S
N805 C804 1.344 . S
O806 Co798 2.055 . S
O806 C810 1.253 . S
H807 C803 0.931 . S
H808 C804 0.930 . S
O809 Co798 2.039 . S
O809 C799 1.265 . S
C810 O806 1.253 . S
C810 O811 1.227 . S
O811 C810 1.227 . S
N812 Co798 2.140 . S
N812 C815 1.346 . S
N812 C816 1.345 . S
C813 C814 1.387 . S
C813 C817 1.391 . S
C814 C813 1.387 . S
C814 C815 1.369 . S
C814 H823 0.929 . S
C815 N812 1.346 . S
C815 C814 1.369 . S
C815 H818 0.928 . S
C816 N812 1.345 . S
C816 C817 1.371 . S
C816 H819 0.931 . S
C817 C813 1.391 . S
C817 C816 1.371 . S
C817 H824 0.930 . S
H818 C815 0.928 . S
H819 C816 0.931 . S
H820 C796 0.930 . S
H821 C793 0.930 . S
H822 C802 0.930 . S
H823 C814 0.929 . S
H824 C817 0.930 . S
C825 C826 1.351 . S
C825 N828 1.368 . S
C825 H830 0.931 . S
C826 C825 1.351 . S
C826 N827 1.373 . S
C826 H854 0.930 . S
N827 C826 1.373 . S
N827 C829 1.340 . S
N828 C825 1.368 . S
N828 C829 1.321 . S
N828 Co831 2.135 . S
C829 N827 1.340 . S
C829 N828 1.321 . S
C829 H853 0.930 . S
H830 C825 0.931 . S
Co831 N828 2.135 . S
Co831 N834 2.121 . S
Co831 O839 2.055 . S
Co831 O842 2.039 . S
Co831 N845 2.140 . S
C832 O833 1.227 . S
C832 O842 1.265 . S
O833 C832 1.227 . S
N834 Co831 2.121 . S
N834 C836 1.375 . S
N834 C837 1.313 . S
C835 C836 1.338 . S
C835 N838 1.377 . S
C835 H855 0.930 . S
C836 N834 1.375 . S
C836 C835 1.338 . S
C836 H840 0.931 . S
C837 N834 1.313 . S
C837 N838 1.344 . S
C837 H841 0.930 . S
N838 C835 1.377 . S
N838 C837 1.344 . S
O839 Co831 2.055 . S
O839 C843 1.253 . S
H840 C836 0.931 . S
H841 C837 0.930 . S
O842 Co831 2.039 . S
O842 C832 1.265 . S
C843 O839 1.253 . S
C843 O844 1.227 . S
O844 C843 1.227 . S
N845 Co831 2.140 . S
N845 C848 1.346 . S
N845 C849 1.345 . S
C846 C847 1.387 . S
C846 C850 1.391 . S
C847 C846 1.387 . S
C847 C848 1.369 . S
C847 H856 0.929 . S
C848 N845 1.346 . S
C848 C847 1.369 . S
C848 H851 0.928 . S
C849 N845 1.345 . S
C849 C850 1.371 . S
C849 H852 0.931 . S
C850 C846 1.391 . S
C850 C849 1.371 . S
C850 H857 0.930 . S
H851 C848 0.928 . S
H852 C849 0.931 . S
H853 C829 0.930 . S
H854 C826 0.930 . S
H855 C835 0.930 . S
H856 C847 0.929 . S
H857 C850 0.930 . S
C858 C859 1.351 . S
C858 N861 1.368 . S
C858 H863 0.931 . S
C859 C858 1.351 . S
C859 N860 1.373 . S
C859 H887 0.930 . S
N860 C859 1.373 . S
N860 C862 1.340 . S
N861 C858 1.368 . S
N861 C862 1.321 . S
N861 Co864 2.135 . S
C862 N860 1.340 . S
C862 N861 1.321 . S
C862 H886 0.930 . S
H863 C858 0.931 . S
Co864 N861 2.135 . S
Co864 N867 2.121 . S
Co864 O872 2.055 . S
Co864 O875 2.039 . S
Co864 N878 2.140 . S
C865 O866 1.227 . S
C865 O875 1.265 . S
O866 C865 1.227 . S
N867 Co864 2.121 . S
N867 C869 1.375 . S
N867 C870 1.313 . S
C868 C869 1.338 . S
C868 N871 1.377 . S
C868 H888 0.930 . S
C869 N867 1.375 . S
C869 C868 1.338 . S
C869 H873 0.931 . S
C870 N867 1.313 . S
C870 N871 1.344 . S
C870 H874 0.930 . S
N871 C868 1.377 . S
N871 C870 1.344 . S
O872 Co864 2.055 . S
O872 C876 1.253 . S
H873 C869 0.931 . S
H874 C870 0.930 . S
O875 Co864 2.039 . S
O875 C865 1.265 . S
C876 O872 1.253 . S
C876 O877 1.227 . S
O877 C876 1.227 . S
N878 Co864 2.140 . S
N878 C881 1.346 . S
N878 C882 1.345 . S
C879 C880 1.387 . S
C879 C883 1.391 . S
C880 C879 1.387 . S
C880 C881 1.369 . S
C880 H889 0.929 . S
C881 N878 1.346 . S
C881 C880 1.369 . S
C881 H884 0.928 . S
C882 N878 1.345 . S
C882 C883 1.371 . S
C882 H885 0.931 . S
C883 C879 1.391 . S
C883 C882 1.371 . S
C883 H890 0.930 . S
H884 C881 0.928 . S
H885 C882 0.931 . S
H886 C862 0.930 . S
H887 C859 0.930 . S
H888 C868 0.930 . S
H889 C880 0.929 . S
H890 C883 0.930 . S
C891 C892 1.351 . S
C891 N894 1.368 . S
C891 H896 0.931 . S
C892 C891 1.351 . S
C892 N893 1.373 . S
C892 H920 0.930 . S
N893 C892 1.373 . S
N893 C895 1.340 . S
N894 C891 1.368 . S
N894 C895 1.321 . S
N894 Co897 2.135 1_655 S
C895 N893 1.340 . S
C895 N894 1.321 . S
C895 H919 0.930 . S
H896 C891 0.931 . S
Co897 N894 2.135 1_455 S
Co897 N900 2.121 . S
Co897 O905 2.055 . S
Co897 O908 2.039 . S
Co897 N911 2.140 . S
C898 O899 1.227 . S
C898 O908 1.265 . S
O899 C898 1.227 . S
N900 Co897 2.121 . S
N900 C902 1.375 . S
N900 C903 1.313 . S
C901 C902 1.338 . S
C901 N904 1.377 . S
C901 H921 0.930 . S
C902 N900 1.375 . S
C902 C901 1.338 . S
C902 H906 0.931 . S
C903 N900 1.313 . S
C903 N904 1.344 . S
C903 H907 0.930 . S
N904 C901 1.377 . S
N904 C903 1.344 . S
O905 Co897 2.055 . S
O905 C909 1.253 . S
H906 C902 0.931 . S
H907 C903 0.930 . S
O908 Co897 2.039 . S
O908 C898 1.265 . S
C909 O905 1.253 . S
C909 O910 1.227 . S
O910 C909 1.227 . S
N911 Co897 2.140 . S
N911 C914 1.346 . S
N911 C915 1.345 . S
C912 C913 1.387 . S
C912 C916 1.391 . S
C913 C912 1.387 . S
C913 C914 1.369 . S
C913 H922 0.929 1_455 S
C914 N911 1.346 . S
C914 C913 1.369 . S
C914 H917 0.928 1_455 S
C915 N911 1.345 . S
C915 C916 1.371 . S
C915 H918 0.931 . S
C916 C912 1.391 . S
C916 C915 1.371 . S
C916 H923 0.930 . S
H917 C914 0.928 1_655 S
H918 C915 0.931 . S
H919 C895 0.930 . S
H920 C892 0.930 . S
H921 C901 0.930 . S
H922 C913 0.929 1_655 S
H923 C916 0.930 . S
C924 C925 1.351 . S
C924 N927 1.368 . S
C924 H929 0.931 . S
C925 C924 1.351 . S
C925 N926 1.373 . S
C925 H953 0.930 . S
N926 C925 1.373 . S
N926 C928 1.340 . S
N927 C924 1.368 . S
N927 C928 1.321 . S
N927 Co930 2.135 . S
C928 N926 1.340 . S
C928 N927 1.321 . S
C928 H952 0.930 . S
H929 C924 0.931 . S
Co930 N927 2.135 . S
Co930 N933 2.121 . S
Co930 O938 2.055 . S
Co930 O941 2.039 . S
Co930 N944 2.140 . S
C931 O932 1.227 . S
C931 O941 1.265 . S
O932 C931 1.227 . S
N933 Co930 2.121 . S
N933 C935 1.375 . S
N933 C936 1.313 . S
C934 C935 1.338 . S
C934 N937 1.377 . S
C934 H954 0.930 . S
C935 N933 1.375 . S
C935 C934 1.338 . S
C935 H939 0.931 . S
C936 N933 1.313 . S
C936 N937 1.344 . S
C936 H940 0.930 . S
N937 C934 1.377 . S
N937 C936 1.344 . S
O938 Co930 2.055 . S
O938 C942 1.253 . S
H939 C935 0.931 . S
H940 C936 0.930 . S
O941 Co930 2.039 . S
O941 C931 1.265 . S
C942 O938 1.253 . S
C942 O943 1.227 . S
O943 C942 1.227 . S
N944 Co930 2.140 . S
N944 C947 1.346 . S
N944 C948 1.345 . S
C945 C946 1.387 . S
C945 C949 1.391 . S
C946 C945 1.387 . S
C946 C947 1.369 . S
C946 H955 0.929 . S
C947 N944 1.346 . S
C947 C946 1.369 . S
C947 H950 0.928 . S
C948 N944 1.345 . S
C948 C949 1.371 . S
C948 H951 0.931 . S
C949 C945 1.391 . S
C949 C948 1.371 . S
C949 H956 0.930 . S
H950 C947 0.928 . S
H951 C948 0.931 . S
H952 C928 0.930 . S
H953 C925 0.930 . S
H954 C934 0.930 . S
H955 C946 0.929 . S
H956 C949 0.930 . S
C957 C958 1.351 . S
C957 N960 1.368 . S
C957 H962 0.931 . S
C958 C957 1.351 . S
C958 N959 1.373 . S
C958 H986 0.930 . S
N959 C958 1.373 . S
N959 C961 1.340 . S
N960 C957 1.368 . S
N960 C961 1.321 . S
N960 Co963 2.135 1_655 S
C961 N959 1.340 . S
C961 N960 1.321 . S
C961 H985 0.930 . S
H962 C957 0.931 . S
Co963 N960 2.135 1_455 S
Co963 N966 2.121 . S
Co963 O971 2.055 . S
Co963 O974 2.039 . S
Co963 N977 2.140 . S
C964 O965 1.227 . S
C964 O974 1.265 . S
O965 C964 1.227 . S
N966 Co963 2.121 . S
N966 C968 1.375 . S
N966 C969 1.313 . S
C967 C968 1.338 . S
C967 N970 1.377 . S
C967 H987 0.930 . S
C968 N966 1.375 . S
C968 C967 1.338 . S
C968 H972 0.931 . S
C969 N966 1.313 . S
C969 N970 1.344 . S
C969 H973 0.930 . S
N970 C967 1.377 . S
N970 C969 1.344 . S
O971 Co963 2.055 . S
O971 C975 1.253 . S
H972 C968 0.931 . S
H973 C969 0.930 . S
O974 Co963 2.039 . S
O974 C964 1.265 . S
C975 O971 1.253 . S
C975 O976 1.227 . S
O976 C975 1.227 . S
N977 Co963 2.140 . S
N977 C980 1.346 . S
N977 C981 1.345 . S
C978 C979 1.387 . S
C978 C982 1.391 . S
C979 C978 1.387 . S
C979 C980 1.369 . S
C979 H988 0.929 1_455 S
C980 N977 1.346 . S
C980 C979 1.369 . S
C980 H983 0.928 1_455 S
C981 N977 1.345 . S
C981 C982 1.371 . S
C981 H984 0.931 . S
C982 C978 1.391 . S
C982 C981 1.371 . S
C982 H989 0.930 . S
H983 C980 0.928 1_655 S
H984 C981 0.931 . S
H985 C961 0.930 . S
H986 C958 0.930 . S
H987 C967 0.930 . S
H988 C979 0.929 1_655 S
H989 C982 0.930 . S
C990 C991 1.351 . S
C990 N993 1.368 . S
C990 H995 0.931 . S
C991 C990 1.351 . S
C991 N992 1.373 . S
C991 H1019 0.930 . S
N992 C991 1.373 . S
N992 C994 1.340 . S
N993 C990 1.368 . S
N993 C994 1.321 . S
N993 Co996 2.135 . S
C994 N992 1.340 . S
C994 N993 1.321 . S
C994 H1018 0.930 . S
H995 C990 0.931 . S
Co996 N993 2.135 . S
Co996 N999 2.121 . S
Co996 O1004 2.055 . S
Co996 O1007 2.039 . S
Co996 N1010 2.140 . S
C997 O998 1.227 . S
C997 O1007 1.265 . S
O998 C997 1.227 . S
N999 Co996 2.121 . S
N999 C1001 1.375 . S
N999 C1002 1.313 . S
C1000 C1001 1.338 . S
C1000 N1003 1.377 . S
C1000 H1020 0.930 . S
C1001 N999 1.375 . S
C1001 C1000 1.338 . S
C1001 H1005 0.931 . S
C1002 N999 1.313 . S
C1002 N1003 1.344 . S
C1002 H1006 0.930 . S
N1003 C1000 1.377 . S
N1003 C1002 1.344 . S
O1004 Co996 2.055 . S
O1004 C1008 1.253 . S
H1005 C1001 0.931 . S
H1006 C1002 0.930 . S
O1007 Co996 2.039 . S
O1007 C997 1.265 . S
C1008 O1004 1.253 . S
C1008 O1009 1.227 . S
O1009 C1008 1.227 . S
N1010 Co996 2.140 . S
N1010 C1013 1.346 . S
N1010 C1014 1.345 . S
C1011 C1012 1.387 . S
C1011 C1015 1.391 . S
C1012 C1011 1.387 . S
C1012 C1013 1.369 . S
C1012 H1021 0.929 . S
C1013 N1010 1.346 . S
C1013 C1012 1.369 . S
C1013 H1016 0.928 . S
C1014 N1010 1.345 . S
C1014 C1015 1.371 . S
C1014 H1017 0.931 . S
C1015 C1011 1.391 . S
C1015 C1014 1.371 . S
C1015 H1022 0.930 . S
H1016 C1013 0.928 . S
H1017 C1014 0.931 . S
H1018 C994 0.930 . S
H1019 C991 0.930 . S
H1020 C1000 0.930 . S
H1021 C1012 0.929 . S
H1022 C1015 0.930 . S
C1023 C1024 1.351 . S
C1023 N1026 1.368 . S
C1023 H1028 0.931 . S
C1024 C1023 1.351 . S
C1024 N1025 1.373 . S
C1024 H1052 0.930 . S
N1025 C1024 1.373 . S
N1025 C1027 1.340 . S
N1026 C1023 1.368 . S
N1026 C1027 1.321 . S
N1026 Co1029 2.135 . S
C1027 N1025 1.340 . S
C1027 N1026 1.321 . S
C1027 H1051 0.930 . S
H1028 C1023 0.931 . S
Co1029 N1026 2.135 . S
Co1029 N1032 2.121 . S
Co1029 O1037 2.055 . S
Co1029 O1040 2.039 . S
Co1029 N1043 2.140 . S
C1030 O1031 1.227 . S
C1030 O1040 1.265 . S
O1031 C1030 1.227 . S
N1032 Co1029 2.121 . S
N1032 C1034 1.375 . S
N1032 C1035 1.313 . S
C1033 C1034 1.338 . S
C1033 N1036 1.377 . S
C1033 H1053 0.930 . S
C1034 N1032 1.375 . S
C1034 C1033 1.338 . S
C1034 H1038 0.931 . S
C1035 N1032 1.313 . S
C1035 N1036 1.344 . S
C1035 H1039 0.930 . S
N1036 C1033 1.377 . S
N1036 C1035 1.344 . S
O1037 Co1029 2.055 . S
O1037 C1041 1.253 . S
H1038 C1034 0.931 . S
H1039 C1035 0.930 . S
O1040 Co1029 2.039 . S
O1040 C1030 1.265 . S
C1041 O1037 1.253 . S
C1041 O1042 1.227 . S
O1042 C1041 1.227 . S
N1043 Co1029 2.140 . S
N1043 C1046 1.346 . S
N1043 C1047 1.345 . S
C1044 C1045 1.387 . S
C1044 C1048 1.391 . S
C1045 C1044 1.387 . S
C1045 C1046 1.369 . S
C1045 H1054 0.929 . S
C1046 N1043 1.346 . S
C1046 C1045 1.369 . S
C1046 H1049 0.928 . S
C1047 N1043 1.345 . S
C1047 C1048 1.371 . S
C1047 H1050 0.931 . S
C1048 C1044 1.391 . S
C1048 C1047 1.371 . S
C1048 H1055 0.930 . S
H1049 C1046 0.928 . S
H1050 C1047 0.931 . S
H1051 C1027 0.930 . S
H1052 C1024 0.930 . S
H1053 C1033 0.930 . S
H1054 C1045 0.929 . S
H1055 C1048 0.930 . S
H1056 C1064 0.950 . S
H1057 C1069 0.950 . S
H1058 C1066 0.950 . S
H1059 C1068 0.950 . S
H1060 C1070 0.950 . S
H1061 C1072 0.950 . S
H1062 C1074 0.950 . S
H1063 C1075 0.950 . S
C1064 H1056 0.950 . S
C1064 C1065 1.386 . S
C1064 C1066 1.391 . S
C1065 C1064 1.386 . S
C1065 C1069 1.393 . S
C1066 H1058 0.950 . S
C1066 C1064 1.391 . S
C1066 C1067 1.400 . S
C1067 C1066 1.400 . S
C1067 C1068 1.398 . S
C1067 C1073 1.491 . S
C1068 H1059 0.950 . S
C1068 C1067 1.398 . S
C1068 C1069 1.391 . S
C1069 H1057 0.950 . S
C1069 C1065 1.393 . S
C1069 C1068 1.391 . S
C1070 H1060 0.950 . S
C1070 C1071 1.386 . S
C1070 C1072 1.391 . S
C1071 C1070 1.386 . S
C1071 C1075 1.393 . S
C1072 H1061 0.950 . S
C1072 C1070 1.391 . S
C1072 C1073 1.400 . S
C1073 C1067 1.491 . S
C1073 C1072 1.400 . S
C1073 C1074 1.398 . S
C1074 H1062 0.950 . S
C1074 C1073 1.398 . S
C1074 C1075 1.391 . S
C1075 H1063 0.950 . S
C1075 C1071 1.393 . S
C1075 C1074 1.391 . S
H1076 C1084 0.950 . S
H1077 C1089 0.950 . S
H1078 C1086 0.950 . S
H1079 C1088 0.950 . S
H1080 C1090 0.950 . S
H1081 C1092 0.950 . S
H1082 C1094 0.950 . S
H1083 C1095 0.950 . S
C1084 H1076 0.950 . S
C1084 C1085 1.386 . S
C1084 C1086 1.391 . S
C1085 C1084 1.386 . S
C1085 C1089 1.393 . S
C1086 H1078 0.950 . S
C1086 C1084 1.391 . S
C1086 C1087 1.400 . S
C1087 C1086 1.400 . S
C1087 C1088 1.398 . S
C1087 C1093 1.491 . S
C1088 H1079 0.950 . S
C1088 C1087 1.398 . S
C1088 C1089 1.391 . S
C1089 H1077 0.950 . S
C1089 C1085 1.393 . S
C1089 C1088 1.391 . S
C1090 H1080 0.950 . S
C1090 C1091 1.386 . S
C1090 C1092 1.391 . S
C1091 C1090 1.386 . S
C1091 C1095 1.393 . S
C1092 H1081 0.950 . S
C1092 C1090 1.391 . S
C1092 C1093 1.400 . S
C1093 C1087 1.491 . S
C1093 C1092 1.400 . S
C1093 C1094 1.398 . S
C1094 H1082 0.950 . S
C1094 C1093 1.398 . S
C1094 C1095 1.391 . S
C1095 H1083 0.950 . S
C1095 C1091 1.393 . S
C1095 C1094 1.391 . S
H1096 C1104 0.950 . S
H1097 C1109 0.950 . S
H1098 C1106 0.950 . S
H1099 C1108 0.950 . S
H1100 C1110 0.950 . S
H1101 C1112 0.950 . S
H1102 C1114 0.950 . S
H1103 C1115 0.950 . S
C1104 H1096 0.950 . S
C1104 C1105 1.386 . S
C1104 C1106 1.391 . S
C1105 C1104 1.386 . S
C1105 C1109 1.393 . S
C1106 H1098 0.950 . S
C1106 C1104 1.391 . S
C1106 C1107 1.400 . S
C1107 C1106 1.400 . S
C1107 C1108 1.398 . S
C1107 C1113 1.491 . S
C1108 H1099 0.950 . S
C1108 C1107 1.398 . S
C1108 C1109 1.391 . S
C1109 H1097 0.950 . S
C1109 C1105 1.393 . S
C1109 C1108 1.391 . S
C1110 H1100 0.950 . S
C1110 C1111 1.386 . S
C1110 C1112 1.391 . S
C1111 C1110 1.386 . S
C1111 C1115 1.393 . S
C1112 H1101 0.950 . S
C1112 C1110 1.391 . S
C1112 C1113 1.400 . S
C1113 C1107 1.491 . S
C1113 C1112 1.400 . S
C1113 C1114 1.398 . S
C1114 H1102 0.950 . S
C1114 C1113 1.398 . S
C1114 C1115 1.391 . S
C1115 H1103 0.950 . S
C1115 C1111 1.393 . S
C1115 C1114 1.391 . S
H1116 C1124 0.950 . S
H1117 C1129 0.950 . S
H1118 C1126 0.950 . S
H1119 C1128 0.950 . S
H1120 C1130 0.950 . S
H1121 C1132 0.950 . S
H1122 C1134 0.950 . S
H1123 C1135 0.950 . S
C1124 H1116 0.950 . S
C1124 C1125 1.386 . S
C1124 C1126 1.391 . S
C1125 C1124 1.386 . S
C1125 C1129 1.393 . S
C1126 H1118 0.950 . S
C1126 C1124 1.391 . S
C1126 C1127 1.400 . S
C1127 C1126 1.400 . S
C1127 C1128 1.398 . S
C1127 C1133 1.491 . S
C1128 H1119 0.950 . S
C1128 C1127 1.398 . S
C1128 C1129 1.391 . S
C1129 H1117 0.950 . S
C1129 C1125 1.393 . S
C1129 C1128 1.391 . S
C1130 H1120 0.950 . S
C1130 C1131 1.386 . S
C1130 C1132 1.391 . S
C1131 C1130 1.386 . S
C1131 C1135 1.393 . S
C1132 H1121 0.950 . S
C1132 C1130 1.391 . S
C1132 C1133 1.400 . S
C1133 C1127 1.491 . S
C1133 C1132 1.400 . S
C1133 C1134 1.398 . S
C1134 H1122 0.950 . S
C1134 C1133 1.398 . S
C1134 C1135 1.391 . S
C1135 H1123 0.950 . S
C1135 C1131 1.393 . S
C1135 C1134 1.391 . S
H1136 C1144 0.950 . S
H1137 C1149 0.950 . S
H1138 C1146 0.950 . S
H1139 C1148 0.950 . S
H1140 C1150 0.950 . S
H1141 C1152 0.950 . S
H1142 C1154 0.950 . S
H1143 C1155 0.950 . S
C1144 H1136 0.950 . S
C1144 C1145 1.386 . S
C1144 C1146 1.391 . S
C1145 C1144 1.386 . S
C1145 C1149 1.393 . S
C1146 H1138 0.950 . S
C1146 C1144 1.391 . S
C1146 C1147 1.400 . S
C1147 C1146 1.400 . S
C1147 C1148 1.398 . S
C1147 C1153 1.491 . S
C1148 H1139 0.950 . S
C1148 C1147 1.398 . S
C1148 C1149 1.391 . S
C1149 H1137 0.950 . S
C1149 C1145 1.393 . S
C1149 C1148 1.391 . S
C1150 H1140 0.950 . S
C1150 C1151 1.386 . S
C1150 C1152 1.391 . S
C1151 C1150 1.386 . S
C1151 C1155 1.393 . S
C1152 H1141 0.950 . S
C1152 C1150 1.391 . S
C1152 C1153 1.400 . S
C1153 C1147 1.491 . S
C1153 C1152 1.400 . S
C1153 C1154 1.398 . S
C1154 H1142 0.950 . S
C1154 C1153 1.398 . S
C1154 C1155 1.391 . S
C1155 H1143 0.950 . S
C1155 C1151 1.393 . S
C1155 C1154 1.391 . S
H1156 C1164 0.950 . S
H1157 C1169 0.950 . S
H1158 C1166 0.950 . S
H1159 C1168 0.950 . S
H1160 C1170 0.950 . S
H1161 C1172 0.950 . S
H1162 C1174 0.950 . S
H1163 C1175 0.950 . S
C1164 H1156 0.950 . S
C1164 C1165 1.386 . S
C1164 C1166 1.391 . S
C1165 C1164 1.386 . S
C1165 C1169 1.393 . S
C1166 H1158 0.950 . S
C1166 C1164 1.391 . S
C1166 C1167 1.400 . S
C1167 C1166 1.400 . S
C1167 C1168 1.398 . S
C1167 C1173 1.491 . S
C1168 H1159 0.950 . S
C1168 C1167 1.398 . S
C1168 C1169 1.391 . S
C1169 H1157 0.950 . S
C1169 C1165 1.393 . S
C1169 C1168 1.391 . S
C1170 H1160 0.950 . S
C1170 C1171 1.386 . S
C1170 C1172 1.391 . S
C1171 C1170 1.386 . S
C1171 C1175 1.393 . S
C1172 H1161 0.950 . S
C1172 C1170 1.391 . S
C1172 C1173 1.400 . S
C1173 C1167 1.491 . S
C1173 C1172 1.400 . S
C1173 C1174 1.398 . S
C1174 H1162 0.950 . S
C1174 C1173 1.398 . S
C1174 C1175 1.391 . S
C1175 H1163 0.950 . S
C1175 C1171 1.393 . S
C1175 C1174 1.391 . S
H1176 C1184 0.950 . S
H1177 C1189 0.950 . S
H1178 C1186 0.950 . S
H1179 C1188 0.950 . S
H1180 C1190 0.950 . S
H1181 C1192 0.950 . S
H1182 C1194 0.950 . S
H1183 C1195 0.950 . S
C1184 H1176 0.950 . S
C1184 C1185 1.386 . S
C1184 C1186 1.391 . S
C1185 C1184 1.386 . S
C1185 C1189 1.393 . S
C1186 H1178 0.950 . S
C1186 C1184 1.391 . S
C1186 C1187 1.400 . S
C1187 C1186 1.400 . S
C1187 C1188 1.398 . S
C1187 C1193 1.491 . S
C1188 H1179 0.950 . S
C1188 C1187 1.398 . S
C1188 C1189 1.391 . S
C1189 H1177 0.950 . S
C1189 C1185 1.393 . S
C1189 C1188 1.391 . S
C1190 H1180 0.950 . S
C1190 C1191 1.386 . S
C1190 C1192 1.391 . S
C1191 C1190 1.386 . S
C1191 C1195 1.393 . S
C1192 H1181 0.950 . S
C1192 C1190 1.391 . S
C1192 C1193 1.400 . S
C1193 C1187 1.491 . S
C1193 C1192 1.400 . S
C1193 C1194 1.398 . S
C1194 H1182 0.950 . S
C1194 C1193 1.398 . S
C1194 C1195 1.391 . S
C1195 H1183 0.950 . S
C1195 C1191 1.393 . S
C1195 C1194 1.391 . S
H1196 C1204 0.950 . S
H1197 C1209 0.950 . S
H1198 C1206 0.950 . S
H1199 C1208 0.950 . S
H1200 C1210 0.950 . S
H1201 C1212 0.950 . S
H1202 C1214 0.950 . S
H1203 C1215 0.950 . S
C1204 H1196 0.950 . S
C1204 C1205 1.386 . S
C1204 C1206 1.391 . S
C1205 C1204 1.386 . S
C1205 C1209 1.393 . S
C1206 H1198 0.950 . S
C1206 C1204 1.391 . S
C1206 C1207 1.400 . S
C1207 C1206 1.400 . S
C1207 C1208 1.398 . S
C1207 C1213 1.491 . S
C1208 H1199 0.950 . S
C1208 C1207 1.398 . S
C1208 C1209 1.391 . S
C1209 H1197 0.950 . S
C1209 C1205 1.393 . S
C1209 C1208 1.391 . S
C1210 H1200 0.950 . S
C1210 C1211 1.386 . S
C1210 C1212 1.391 . S
C1211 C1210 1.386 . S
C1211 C1215 1.393 . S
C1212 H1201 0.950 . S
C1212 C1210 1.391 . S
C1212 C1213 1.400 . S
C1213 C1207 1.491 . S
C1213 C1212 1.400 . S
C1213 C1214 1.398 . S
C1214 H1202 0.950 . S
C1214 C1213 1.398 . S
C1214 C1215 1.391 . S
C1215 H1203 0.950 . S
C1215 C1211 1.393 . S
C1215 C1214 1.391 . S
H1216 C1224 0.950 . S
H1217 C1229 0.950 . S
H1218 C1226 0.950 . S
H1219 C1228 0.950 . S
H1220 C1230 0.950 . S
H1221 C1232 0.950 . S
H1222 C1234 0.950 . S
H1223 C1235 0.950 . S
C1224 H1216 0.950 . S
C1224 C1225 1.386 . S
C1224 C1226 1.391 . S
C1225 C1224 1.386 . S
C1225 C1229 1.393 . S
C1226 H1218 0.950 . S
C1226 C1224 1.391 . S
C1226 C1227 1.400 . S
C1227 C1226 1.400 . S
C1227 C1228 1.398 . S
C1227 C1233 1.491 . S
C1228 H1219 0.950 . S
C1228 C1227 1.398 . S
C1228 C1229 1.391 . S
C1229 H1217 0.950 . S
C1229 C1225 1.393 . S
C1229 C1228 1.391 . S
C1230 H1220 0.950 . S
C1230 C1231 1.386 . S
C1230 C1232 1.391 . S
C1231 C1230 1.386 . S
C1231 C1235 1.393 . S
C1232 H1221 0.950 . S
C1232 C1230 1.391 . S
C1232 C1233 1.400 . S
C1233 C1227 1.491 . S
C1233 C1232 1.400 . S
C1233 C1234 1.398 . S
C1234 H1222 0.950 . S
C1234 C1233 1.398 . S
C1234 C1235 1.391 . S
C1235 H1223 0.950 . S
C1235 C1231 1.393 . S
C1235 C1234 1.391 . S
H1236 C1244 0.950 . S
H1237 C1249 0.950 . S
H1238 C1246 0.950 . S
H1239 C1248 0.950 . S
H1240 C1250 0.950 . S
H1241 C1252 0.950 . S
H1242 C1254 0.950 . S
H1243 C1255 0.950 . S
C1244 H1236 0.950 . S
C1244 C1245 1.386 . S
C1244 C1246 1.391 . S
C1245 C1244 1.386 . S
C1245 C1249 1.393 . S
C1246 H1238 0.950 . S
C1246 C1244 1.391 . S
C1246 C1247 1.400 . S
C1247 C1246 1.400 . S
C1247 C1248 1.398 . S
C1247 C1253 1.491 . S
C1248 H1239 0.950 . S
C1248 C1247 1.398 . S
C1248 C1249 1.391 . S
C1249 H1237 0.950 . S
C1249 C1245 1.393 . S
C1249 C1248 1.391 . S
C1250 H1240 0.950 . S
C1250 C1251 1.386 . S
C1250 C1252 1.391 . S
C1251 C1250 1.386 . S
C1251 C1255 1.393 . S
C1252 H1241 0.950 . S
C1252 C1250 1.391 . S
C1252 C1253 1.400 . S
C1253 C1247 1.491 . S
C1253 C1252 1.400 . S
C1253 C1254 1.398 . S
C1254 H1242 0.950 . S
C1254 C1253 1.398 . S
C1254 C1255 1.391 . S
C1255 H1243 0.950 . S
C1255 C1251 1.393 . S
C1255 C1254 1.391 . S
H1256 C1264 0.950 . S
H1257 C1269 0.950 . S
H1258 C1266 0.950 . S
H1259 C1268 0.950 . S
H1260 C1270 0.950 . S
H1261 C1272 0.950 . S
H1262 C1274 0.950 . S
H1263 C1275 0.950 . S
C1264 H1256 0.950 . S
C1264 C1265 1.386 . S
C1264 C1266 1.391 . S
C1265 C1264 1.386 . S
C1265 C1269 1.393 . S
C1266 H1258 0.950 . S
C1266 C1264 1.391 . S
C1266 C1267 1.400 . S
C1267 C1266 1.400 . S
C1267 C1268 1.398 . S
C1267 C1273 1.491 . S
C1268 H1259 0.950 . S
C1268 C1267 1.398 . S
C1268 C1269 1.391 . S
C1269 H1257 0.950 . S
C1269 C1265 1.393 . S
C1269 C1268 1.391 . S
C1270 H1260 0.950 . S
C1270 C1271 1.386 . S
C1270 C1272 1.391 . S
C1271 C1270 1.386 . S
C1271 C1275 1.393 . S
C1272 H1261 0.950 . S
C1272 C1270 1.391 . S
C1272 C1273 1.400 . S
C1273 C1267 1.491 . S
C1273 C1272 1.400 . S
C1273 C1274 1.398 . S
C1274 H1262 0.950 . S
C1274 C1273 1.398 . S
C1274 C1275 1.391 . S
C1275 H1263 0.950 . S
C1275 C1271 1.393 . S
C1275 C1274 1.391 . S
H1276 C1284 0.950 . S
H1277 C1289 0.950 . S
H1278 C1286 0.950 . S
H1279 C1288 0.950 . S
H1280 C1290 0.950 . S
H1281 C1292 0.950 . S
H1282 C1294 0.950 . S
H1283 C1295 0.950 . S
C1284 H1276 0.950 . S
C1284 C1285 1.386 . S
C1284 C1286 1.391 . S
C1285 C1284 1.386 . S
C1285 C1289 1.393 . S
C1286 H1278 0.950 . S
C1286 C1284 1.391 . S
C1286 C1287 1.400 . S
C1287 C1286 1.400 . S
C1287 C1288 1.398 . S
C1287 C1293 1.491 . S
C1288 H1279 0.950 . S
C1288 C1287 1.398 . S
C1288 C1289 1.391 . S
C1289 H1277 0.950 . S
C1289 C1285 1.393 . S
C1289 C1288 1.391 . S
C1290 H1280 0.950 . S
C1290 C1291 1.386 . S
C1290 C1292 1.391 . S
C1291 C1290 1.386 . S
C1291 C1295 1.393 . S
C1292 H1281 0.950 . S
C1292 C1290 1.391 . S
C1292 C1293 1.400 . S
C1293 C1287 1.491 . S
C1293 C1292 1.400 . S
C1293 C1294 1.398 . S
C1294 H1282 0.950 . S
C1294 C1293 1.398 . S
C1294 C1295 1.391 . S
C1295 H1283 0.950 . S
C1295 C1291 1.393 . S
C1295 C1294 1.391 . S
H1296 C1304 0.950 . S
H1297 C1309 0.950 . S
H1298 C1306 0.950 . S
H1299 C1308 0.950 . S
H1300 C1310 0.950 . S
H1301 C1312 0.950 . S
H1302 C1314 0.950 . S
H1303 C1315 0.950 . S
C1304 H1296 0.950 . S
C1304 C1305 1.386 . S
C1304 C1306 1.391 . S
C1305 C1304 1.386 . S
C1305 C1309 1.393 . S
C1306 H1298 0.950 . S
C1306 C1304 1.391 . S
C1306 C1307 1.400 . S
C1307 C1306 1.400 . S
C1307 C1308 1.398 . S
C1307 C1313 1.491 . S
C1308 H1299 0.950 . S
C1308 C1307 1.398 . S
C1308 C1309 1.391 . S
C1309 H1297 0.950 . S
C1309 C1305 1.393 . S
C1309 C1308 1.391 . S
C1310 H1300 0.950 . S
C1310 C1311 1.386 . S
C1310 C1312 1.391 . S
C1311 C1310 1.386 . S
C1311 C1315 1.393 . S
C1312 H1301 0.950 . S
C1312 C1310 1.391 . S
C1312 C1313 1.400 . S
C1313 C1307 1.491 . S
C1313 C1312 1.400 . S
C1313 C1314 1.398 . S
C1314 H1302 0.950 . S
C1314 C1313 1.398 . S
C1314 C1315 1.391 . S
C1315 H1303 0.950 . S
C1315 C1311 1.393 . S
C1315 C1314 1.391 . S
H1316 C1324 0.950 . S
H1317 C1329 0.950 . S
H1318 C1326 0.950 . S
H1319 C1328 0.950 . S
H1320 C1330 0.950 . S
H1321 C1332 0.950 . S
H1322 C1334 0.950 . S
H1323 C1335 0.950 . S
C1324 H1316 0.950 . S
C1324 C1325 1.386 . S
C1324 C1326 1.391 . S
C1325 C1324 1.386 . S
C1325 C1329 1.393 . S
C1326 H1318 0.950 . S
C1326 C1324 1.391 . S
C1326 C1327 1.400 . S
C1327 C1326 1.400 . S
C1327 C1328 1.398 . S
C1327 C1333 1.491 . S
C1328 H1319 0.950 . S
C1328 C1327 1.398 . S
C1328 C1329 1.391 . S
C1329 H1317 0.950 . S
C1329 C1325 1.393 . S
C1329 C1328 1.391 . S
C1330 H1320 0.950 . S
C1330 C1331 1.386 . S
C1330 C1332 1.391 . S
C1331 C1330 1.386 . S
C1331 C1335 1.393 . S
C1332 H1321 0.950 . S
C1332 C1330 1.391 . S
C1332 C1333 1.400 . S
C1333 C1327 1.491 . S
C1333 C1332 1.400 . S
C1333 C1334 1.398 . S
C1334 H1322 0.950 . S
C1334 C1333 1.398 . S
C1334 C1335 1.391 . S
C1335 H1323 0.950 . S
C1335 C1331 1.393 . S
C1335 C1334 1.391 . S
H1336 C1344 0.950 . S
H1337 C1349 0.950 . S
H1338 C1346 0.950 . S
H1339 C1348 0.950 . S
H1340 C1350 0.950 . S
H1341 C1352 0.950 . S
H1342 C1354 0.950 . S
H1343 C1355 0.950 . S
C1344 H1336 0.950 . S
C1344 C1345 1.386 . S
C1344 C1346 1.391 . S
C1345 C1344 1.386 . S
C1345 C1349 1.393 . S
C1346 H1338 0.950 . S
C1346 C1344 1.391 . S
C1346 C1347 1.400 . S
C1347 C1346 1.400 . S
C1347 C1348 1.398 . S
C1347 C1353 1.491 . S
C1348 H1339 0.950 . S
C1348 C1347 1.398 . S
C1348 C1349 1.391 . S
C1349 H1337 0.950 . S
C1349 C1345 1.393 . S
C1349 C1348 1.391 . S
C1350 H1340 0.950 . S
C1350 C1351 1.386 . S
C1350 C1352 1.391 . S
C1351 C1350 1.386 . S
C1351 C1355 1.393 . S
C1352 H1341 0.950 . S
C1352 C1350 1.391 . S
C1352 C1353 1.400 . S
C1353 C1347 1.491 . S
C1353 C1352 1.400 . S
C1353 C1354 1.398 . S
C1354 H1342 0.950 . S
C1354 C1353 1.398 . S
C1354 C1355 1.391 . S
C1355 H1343 0.950 . S
C1355 C1351 1.393 . S
C1355 C1354 1.391 . S
H1356 C1364 0.950 . S
H1357 C1369 0.950 . S
H1358 C1366 0.950 . S
H1359 C1368 0.950 . S
H1360 C1370 0.950 . S
H1361 C1372 0.950 . S
H1362 C1374 0.950 . S
H1363 C1375 0.950 . S
C1364 H1356 0.950 . S
C1364 C1365 1.386 . S
C1364 C1366 1.391 . S
C1365 C1364 1.386 . S
C1365 C1369 1.393 . S
C1366 H1358 0.950 . S
C1366 C1364 1.391 . S
C1366 C1367 1.400 . S
C1367 C1366 1.400 . S
C1367 C1368 1.398 . S
C1367 C1373 1.491 . S
C1368 H1359 0.950 . S
C1368 C1367 1.398 . S
C1368 C1369 1.391 . S
C1369 H1357 0.950 . S
C1369 C1365 1.393 . S
C1369 C1368 1.391 . S
C1370 H1360 0.950 . S
C1370 C1371 1.386 . S
C1370 C1372 1.391 . S
C1371 C1370 1.386 . S
C1371 C1375 1.393 . S
C1372 H1361 0.950 . S
C1372 C1370 1.391 . S
C1372 C1373 1.400 . S
C1373 C1367 1.491 . S
C1373 C1372 1.400 . S
C1373 C1374 1.398 . S
C1374 H1362 0.950 . S
C1374 C1373 1.398 . S
C1374 C1375 1.391 . S
C1375 H1363 0.950 . S
C1375 C1371 1.393 . S
C1375 C1374 1.391 . S
H1376 C1384 0.950 . S
H1377 C1389 0.950 . S
H1378 C1386 0.950 . S
H1379 C1388 0.950 . S
H1380 C1390 0.950 . S
H1381 C1392 0.950 . S
H1382 C1394 0.950 . S
H1383 C1395 0.950 . S
C1384 H1376 0.950 . S
C1384 C1385 1.386 . S
C1384 C1386 1.391 . S
C1385 C1384 1.386 . S
C1385 C1389 1.393 . S
C1386 H1378 0.950 . S
C1386 C1384 1.391 . S
C1386 C1387 1.400 . S
C1387 C1386 1.400 . S
C1387 C1388 1.398 . S
C1387 C1393 1.491 1_556 S
C1388 H1379 0.950 . S
C1388 C1387 1.398 . S
C1388 C1389 1.391 . S
C1389 H1377 0.950 . S
C1389 C1385 1.393 . S
C1389 C1388 1.391 . S
C1390 H1380 0.950 . S
C1390 C1391 1.386 . S
C1390 C1392 1.391 . S
C1391 C1390 1.386 . S
C1391 C1395 1.393 . S
C1392 H1381 0.950 . S
C1392 C1390 1.391 . S
C1392 C1393 1.400 . S
C1393 C1387 1.491 1_554 S
C1393 C1392 1.400 . S
C1393 C1394 1.398 . S
C1394 H1382 0.950 . S
C1394 C1393 1.398 . S
C1394 C1395 1.391 . S
C1395 H1383 0.950 . S
C1395 C1391 1.393 . S
C1395 C1394 1.391 . S
H1396 C1404 0.950 . S
H1397 C1409 0.950 . S
H1398 C1406 0.950 . S
H1399 C1408 0.950 . S
H1400 C1410 0.950 . S
H1401 C1412 0.950 . S
H1402 C1414 0.950 . S
H1403 C1415 0.950 . S
C1404 H1396 0.950 . S
C1404 C1405 1.386 1_545 S
C1404 C1406 1.391 . S
C1405 C1404 1.386 1_565 S
C1405 C1409 1.393 . S
C1406 H1398 0.950 . S
C1406 C1404 1.391 . S
C1406 C1407 1.400 1_545 S
C1407 C1406 1.400 1_565 S
C1407 C1408 1.398 . S
C1407 C1413 1.491 1_565 S
C1408 H1399 0.950 . S
C1408 C1407 1.398 . S
C1408 C1409 1.391 . S
C1409 H1397 0.950 . S
C1409 C1405 1.393 . S
C1409 C1408 1.391 . S
C1410 H1400 0.950 . S
C1410 C1411 1.386 1_565 S
C1410 C1412 1.391 . S
C1411 C1410 1.386 1_545 S
C1411 C1415 1.393 . S
C1412 H1401 0.950 . S
C1412 C1410 1.391 . S
C1412 C1413 1.400 1_565 S
C1413 C1407 1.491 1_545 S
C1413 C1412 1.400 1_545 S
C1413 C1414 1.398 . S
C1414 H1402 0.950 . S
C1414 C1413 1.398 . S
C1414 C1415 1.391 . S
C1415 H1403 0.950 . S
C1415 C1411 1.393 . S
C1415 C1414 1.391 . S
H1416 C1424 0.950 . S
H1417 C1429 0.950 . S
H1418 C1426 0.950 . S
H1419 C1428 0.950 . S
H1420 C1430 0.950 . S
H1421 C1432 0.950 . S
H1422 C1434 0.950 . S
H1423 C1435 0.950 . S
C1424 H1416 0.950 . S
C1424 C1425 1.386 . S
C1424 C1426 1.391 . S
C1425 C1424 1.386 . S
C1425 C1429 1.393 . S
C1426 H1418 0.950 . S
C1426 C1424 1.391 . S
C1426 C1427 1.400 . S
C1427 C1426 1.400 . S
C1427 C1428 1.398 . S
C1427 C1433 1.491 . S
C1428 H1419 0.950 . S
C1428 C1427 1.398 . S
C1428 C1429 1.391 . S
C1429 H1417 0.950 . S
C1429 C1425 1.393 . S
C1429 C1428 1.391 . S
C1430 H1420 0.950 . S
C1430 C1431 1.386 . S
C1430 C1432 1.391 . S
C1431 C1430 1.386 . S
C1431 C1435 1.393 . S
C1432 H1421 0.950 . S
C1432 C1430 1.391 . S
C1432 C1433 1.400 . S
C1433 C1427 1.491 . S
C1433 C1432 1.400 . S
C1433 C1434 1.398 . S
C1434 H1422 0.950 . S
C1434 C1433 1.398 . S
C1434 C1435 1.391 . S
C1435 H1423 0.950 . S
C1435 C1431 1.393 . S
C1435 C1434 1.391 . S
H1436 C1444 0.950 . S
H1437 C1449 0.950 . S
H1438 C1446 0.950 . S
H1439 C1448 0.950 . S
H1440 C1450 0.950 . S
H1441 C1452 0.950 . S
H1442 C1454 0.950 . S
H1443 C1455 0.950 . S
C1444 H1436 0.950 . S
C1444 C1445 1.386 1_565 S
C1444 C1446 1.391 . S
C1445 C1444 1.386 1_545 S
C1445 C1449 1.393 . S
C1446 H1438 0.950 . S
C1446 C1444 1.391 . S
C1446 C1447 1.400 1_565 S
C1447 C1446 1.400 1_545 S
C1447 C1448 1.398 . S
C1447 C1453 1.491 1_545 S
C1448 H1439 0.950 . S
C1448 C1447 1.398 . S
C1448 C1449 1.391 . S
C1449 H1437 0.950 . S
C1449 C1445 1.393 . S
C1449 C1448 1.391 . S
C1450 H1440 0.950 . S
C1450 C1451 1.386 1_545 S
C1450 C1452 1.391 . S
C1451 C1450 1.386 1_565 S
C1451 C1455 1.393 . S
C1452 H1441 0.950 . S
C1452 C1450 1.391 . S
C1452 C1453 1.400 1_545 S
C1453 C1447 1.491 1_565 S
C1453 C1452 1.400 1_565 S
C1453 C1454 1.398 . S
C1454 H1442 0.950 . S
C1454 C1453 1.398 . S
C1454 C1455 1.391 . S
C1455 H1443 0.950 . S
C1455 C1451 1.393 . S
C1455 C1454 1.391 . S
H1456 C1464 0.950 . S
H1457 C1469 0.950 . S
H1458 C1466 0.950 . S
H1459 C1468 0.950 . S
H1460 C1470 0.950 . S
H1461 C1472 0.950 . S
H1462 C1474 0.950 . S
H1463 C1475 0.950 . S
C1464 H1456 0.950 . S
C1464 C1465 1.386 . S
C1464 C1466 1.391 . S
C1465 C1464 1.386 . S
C1465 C1469 1.393 . S
C1466 H1458 0.950 . S
C1466 C1464 1.391 . S
C1466 C1467 1.400 . S
C1467 C1466 1.400 . S
C1467 C1468 1.398 . S
C1467 C1473 1.491 1_556 S
C1468 H1459 0.950 . S
C1468 C1467 1.398 . S
C1468 C1469 1.391 . S
C1469 H1457 0.950 . S
C1469 C1465 1.393 . S
C1469 C1468 1.391 . S
C1470 H1460 0.950 . S
C1470 C1471 1.386 . S
C1470 C1472 1.391 . S
C1471 C1470 1.386 . S
C1471 C1475 1.393 . S
C1472 H1461 0.950 . S
C1472 C1470 1.391 . S
C1472 C1473 1.400 . S
C1473 C1467 1.491 1_554 S
C1473 C1472 1.400 . S
C1473 C1474 1.398 . S
C1474 H1462 0.950 . S
C1474 C1473 1.398 . S
C1474 C1475 1.391 . S
C1475 H1463 0.950 . S
C1475 C1471 1.393 . S
C1475 C1474 1.391 . S
H1476 C1484 0.950 1_455 S
H1477 C1489 0.950 . S
H1478 C1486 0.950 1_455 S
H1479 C1488 0.947 1_545 S
H1480 C1490 0.950 . S
H1481 C1492 0.950 . S
H1482 C1494 0.934 1_465 S
H1483 C1495 0.942 1_455 S
C1484 H1476 0.950 1_655 S
C1484 C1485 1.386 . S
C1484 C1486 1.391 . S
C1485 C1484 1.386 . S
C1485 C1489 1.393 . S
C1486 H1478 0.950 1_655 S
C1486 C1484 1.391 . S
C1486 C1487 1.400 . S
C1487 C1486 1.400 . S
C1487 C1488 1.399 . S
C1487 C1493 1.491 1_565 S
C1488 H1479 0.947 1_565 S
C1488 C1487 1.399 . S
C1488 C1489 1.392 . S
C1489 H1477 0.950 . S
C1489 C1485 1.393 . S
C1489 C1488 1.392 . S
C1490 H1480 0.950 . S
C1490 C1491 1.386 . S
C1490 C1492 1.391 . S
C1491 C1490 1.386 . S
C1491 C1495 1.400 . S
C1492 H1481 0.950 . S
C1492 C1490 1.391 . S
C1492 C1493 1.400 . S
C1493 C1487 1.491 1_545 S
C1493 C1492 1.400 . S
C1493 C1494 1.412 . S
C1494 H1482 0.934 1_645 S
C1494 C1493 1.412 . S
C1494 C1495 1.392 . S
C1495 H1483 0.942 1_655 S
C1495 C1491 1.400 . S
C1495 C1494 1.392 . S
H1496 C1504 0.950 . S
H1497 C1509 0.950 . S
H1498 C1506 0.950 . S
H1499 C1508 0.950 . S
H1500 C1510 0.950 . S
H1501 C1512 0.950 . S
H1502 C1514 0.950 . S
H1503 C1515 0.950 . S
C1504 H1496 0.950 . S
C1504 C1505 1.386 . S
C1504 C1506 1.391 . S
C1505 C1504 1.386 . S
C1505 C1509 1.393 . S
C1506 H1498 0.950 . S
C1506 C1504 1.391 . S
C1506 C1507 1.400 . S
C1507 C1506 1.400 . S
C1507 C1508 1.398 . S
C1507 C1513 1.491 . S
C1508 H1499 0.950 . S
C1508 C1507 1.398 . S
C1508 C1509 1.391 . S
C1509 H1497 0.950 . S
C1509 C1505 1.393 . S
C1509 C1508 1.391 . S
C1510 H1500 0.950 . S
C1510 C1511 1.386 . S
C1510 C1512 1.391 . S
C1511 C1510 1.386 . S
C1511 C1515 1.393 . S
C1512 H1501 0.950 . S
C1512 C1510 1.391 . S
C1512 C1513 1.400 . S
C1513 C1507 1.491 . S
C1513 C1512 1.400 . S
C1513 C1514 1.398 . S
C1514 H1502 0.950 . S
C1514 C1513 1.398 . S
C1514 C1515 1.391 . S
C1515 H1503 0.950 . S
C1515 C1511 1.393 . S
C1515 C1514 1.391 . S
H1516 C1524 0.950 . S
H1517 C1529 0.951 . S
H1518 C1526 0.950 . S
H1519 C1528 0.950 . S
H1520 C1530 0.950 . S
H1521 C1532 0.950 . S
H1522 C1534 0.950 . S
H1523 C1535 0.951 . S
C1524 H1516 0.950 . S
C1524 C1525 1.386 . S
C1524 C1526 1.391 . S
C1525 C1524 1.386 . S
C1525 C1529 1.390 1_545 S
C1526 H1518 0.950 . S
C1526 C1524 1.391 . S
C1526 C1527 1.400 . S
C1527 C1526 1.400 . S
C1527 C1528 1.398 1_545 S
C1527 C1533 1.491 1_545 S
C1528 H1519 0.950 . S
C1528 C1527 1.398 1_565 S
C1528 C1529 1.391 . S
C1529 H1517 0.951 . S
C1529 C1525 1.390 1_565 S
C1529 C1528 1.391 . S
C1530 H1520 0.950 . S
C1530 C1531 1.386 . S
C1530 C1532 1.391 . S
C1531 C1530 1.386 . S
C1531 C1535 1.390 1_565 S
C1532 H1521 0.950 . S
C1532 C1530 1.391 . S
C1532 C1533 1.400 . S
C1533 C1527 1.491 1_565 S
C1533 C1532 1.400 . S
C1533 C1534 1.398 1_565 S
C1534 H1522 0.950 . S
C1534 C1533 1.398 1_545 S
C1534 C1535 1.391 . S
C1535 H1523 0.951 . S
C1535 C1531 1.390 1_545 S
C1535 C1534 1.391 . S
H1536 C1544 0.950 . S
H1537 C1549 0.950 . S
H1538 C1546 0.950 . S
H1539 C1548 0.950 . S
H1540 C1550 0.950 . S
H1541 C1552 0.950 . S
H1542 C1554 0.950 . S
H1543 C1555 0.950 . S
C1544 H1536 0.950 . S
C1544 C1545 1.386 . S
C1544 C1546 1.391 . S
C1545 C1544 1.386 . S
C1545 C1549 1.393 . S
C1546 H1538 0.950 . S
C1546 C1544 1.391 . S
C1546 C1547 1.400 . S
C1547 C1546 1.400 . S
C1547 C1548 1.398 . S
C1547 C1553 1.491 . S
C1548 H1539 0.950 . S
C1548 C1547 1.398 . S
C1548 C1549 1.391 . S
C1549 H1537 0.950 . S
C1549 C1545 1.393 . S
C1549 C1548 1.391 . S
C1550 H1540 0.950 . S
C1550 C1551 1.386 . S
C1550 C1552 1.391 . S
C1551 C1550 1.386 . S
C1551 C1555 1.393 . S
C1552 H1541 0.950 . S
C1552 C1550 1.391 . S
C1552 C1553 1.400 . S
C1553 C1547 1.491 . S
C1553 C1552 1.400 . S
C1553 C1554 1.398 . S
C1554 H1542 0.950 . S
C1554 C1553 1.398 . S
C1554 C1555 1.391 . S
C1555 H1543 0.950 . S
C1555 C1551 1.393 . S
C1555 C1554 1.391 . S
H1556 C1564 0.950 . S
H1557 C1569 0.950 . S
H1558 C1566 0.950 . S
H1559 C1568 0.950 . S
H1560 C1570 0.950 . S
H1561 C1572 0.950 . S
H1562 C1574 0.950 . S
H1563 C1575 0.950 . S
C1564 H1556 0.950 . S
C1564 C1565 1.386 . S
C1564 C1566 1.391 . S
C1565 C1564 1.386 . S
C1565 C1569 1.393 . S
C1566 H1558 0.950 . S
C1566 C1564 1.391 . S
C1566 C1567 1.400 . S
C1567 C1566 1.400 . S
C1567 C1568 1.398 . S
C1567 C1573 1.491 . S
C1568 H1559 0.950 . S
C1568 C1567 1.398 . S
C1568 C1569 1.391 . S
C1569 H1557 0.950 . S
C1569 C1565 1.393 . S
C1569 C1568 1.391 . S
C1570 H1560 0.950 . S
C1570 C1571 1.386 . S
C1570 C1572 1.391 . S
C1571 C1570 1.386 . S
C1571 C1575 1.393 . S
C1572 H1561 0.950 . S
C1572 C1570 1.391 . S
C1572 C1573 1.400 . S
C1573 C1567 1.491 . S
C1573 C1572 1.400 . S
C1573 C1574 1.398 . S
C1574 H1562 0.950 . S
C1574 C1573 1.398 . S
C1574 C1575 1.391 . S
C1575 H1563 0.950 . S
C1575 C1571 1.393 . S
C1575 C1574 1.391 . S
H1576 C1584 0.950 . S
H1577 C1589 0.950 . S
H1578 C1586 0.950 . S
H1579 C1588 0.950 . S
H1580 C1590 0.950 . S
H1581 C1592 0.950 . S
H1582 C1594 0.950 . S
H1583 C1595 0.950 . S
C1584 H1576 0.950 . S
C1584 C1585 1.386 . S
C1584 C1586 1.391 . S
C1585 C1584 1.386 . S
C1585 C1589 1.393 . S
C1586 H1578 0.950 . S
C1586 C1584 1.391 . S
C1586 C1587 1.400 . S
C1587 C1586 1.400 . S
C1587 C1588 1.398 . S
C1587 C1593 1.491 1_556 S
C1588 H1579 0.950 . S
C1588 C1587 1.398 . S
C1588 C1589 1.391 . S
C1589 H1577 0.950 . S
C1589 C1585 1.393 . S
C1589 C1588 1.391 . S
C1590 H1580 0.950 . S
C1590 C1591 1.386 . S
C1590 C1592 1.391 . S
C1591 C1590 1.386 . S
C1591 C1595 1.393 . S
C1592 H1581 0.950 . S
C1592 C1590 1.391 . S
C1592 C1593 1.400 . S
C1593 C1587 1.491 1_554 S
C1593 C1592 1.400 . S
C1593 C1594 1.398 . S
C1594 H1582 0.950 . S
C1594 C1593 1.398 . S
C1594 C1595 1.391 . S
C1595 H1583 0.950 . S
C1595 C1591 1.393 . S
C1595 C1594 1.391 . S
H1596 C1604 0.950 . S
H1597 C1609 0.942 1_455 S
H1598 C1606 0.950 . S
H1599 C1608 0.950 1_455 S
H1600 C1610 0.950 . S
H1601 C1612 0.950 . S
H1602 C1614 0.950 . S
H1603 C1615 0.950 . S
C1604 H1596 0.950 . S
C1604 C1605 1.386 . S
C1604 C1606 1.391 . S
C1605 C1604 1.386 . S
C1605 C1609 1.393 . S
C1606 H1598 0.950 . S
C1606 C1604 1.391 . S
C1606 C1607 1.400 . S
C1607 C1606 1.400 . S
C1607 C1608 1.398 . S
C1607 C1613 1.491 . S
C1608 H1599 0.950 1_655 S
C1608 C1607 1.398 . S
C1608 C1609 1.391 . S
C1609 H1597 0.942 1_655 S
C1609 C1605 1.393 . S
C1609 C1608 1.391 . S
C1610 H1600 0.950 . S
C1610 C1611 1.386 . S
C1610 C1612 1.391 . S
C1611 C1610 1.386 . S
C1611 C1615 1.393 . S
C1612 H1601 0.950 . S
C1612 C1610 1.391 . S
C1612 C1613 1.400 . S
C1613 C1607 1.491 . S
C1613 C1612 1.400 . S
C1613 C1614 1.398 . S
C1614 H1602 0.950 . S
C1614 C1613 1.398 . S
C1614 C1615 1.391 . S
C1615 H1603 0.950 . S
C1615 C1611 1.393 . S
C1615 C1614 1.391 . S
H1616 C1624 0.950 . S
H1617 C1629 0.950 . S
H1618 C1626 0.950 . S
H1619 C1628 0.950 . S
H1620 C1630 0.950 . S
H1621 C1632 0.950 . S
H1622 C1634 0.950 . S
H1623 C1635 0.950 . S
C1624 H1616 0.950 . S
C1624 C1625 1.386 . S
C1624 C1626 1.391 . S
C1625 C1624 1.386 . S
C1625 C1629 1.393 . S
C1626 H1618 0.950 . S
C1626 C1624 1.391 . S
C1626 C1627 1.400 . S
C1627 C1626 1.400 . S
C1627 C1628 1.398 . S
C1627 C1633 1.491 . S
C1628 H1619 0.950 . S
C1628 C1627 1.398 . S
C1628 C1629 1.391 . S
C1629 H1617 0.950 . S
C1629 C1625 1.393 . S
C1629 C1628 1.391 . S
C1630 H1620 0.950 . S
C1630 C1631 1.386 . S
C1630 C1632 1.391 . S
C1631 C1630 1.386 . S
C1631 C1635 1.393 . S
C1632 H1621 0.950 . S
C1632 C1630 1.391 . S
C1632 C1633 1.400 . S
C1633 C1627 1.491 . S
C1633 C1632 1.400 . S
C1633 C1634 1.398 . S
C1634 H1622 0.950 . S
C1634 C1633 1.398 . S
C1634 C1635 1.391 . S
C1635 H1623 0.950 . S
C1635 C1631 1.393 . S
C1635 C1634 1.391 . S
H1636 C1644 0.950 . S
H1637 C1649 0.950 . S
H1638 C1646 0.950 . S
H1639 C1648 0.950 . S
H1640 C1650 0.950 . S
H1641 C1652 0.950 . S
H1642 C1654 0.950 . S
H1643 C1655 0.950 . S
C1644 H1636 0.950 . S
C1644 C1645 1.386 . S
C1644 C1646 1.391 . S
C1645 C1644 1.386 . S
C1645 C1649 1.393 . S
C1646 H1638 0.950 . S
C1646 C1644 1.391 . S
C1646 C1647 1.400 . S
C1647 C1646 1.400 . S
C1647 C1648 1.398 . S
C1647 C1653 1.491 . S
C1648 H1639 0.950 . S
C1648 C1647 1.398 . S
C1648 C1649 1.391 . S
C1649 H1637 0.950 . S
C1649 C1645 1.393 . S
C1649 C1648 1.391 . S
C1650 H1640 0.950 . S
C1650 C1651 1.386 . S
C1650 C1652 1.391 . S
C1651 C1650 1.386 . S
C1651 C1655 1.393 . S
C1652 H1641 0.950 . S
C1652 C1650 1.391 . S
C1652 C1653 1.400 . S
C1653 C1647 1.491 . S
C1653 C1652 1.400 . S
C1653 C1654 1.398 . S
C1654 H1642 0.950 . S
C1654 C1653 1.398 . S
C1654 C1655 1.391 . S
C1655 H1643 0.950 . S
C1655 C1651 1.393 . S
C1655 C1654 1.391 . S
H1656 C1664 0.950 . S
H1657 C1669 0.950 . S
H1658 C1666 0.950 . S
H1659 C1668 0.950 . S
H1660 C1670 0.950 . S
H1661 C1672 0.950 . S
H1662 C1674 0.950 . S
H1663 C1675 0.950 . S
C1664 H1656 0.950 . S
C1664 C1665 1.386 . S
C1664 C1666 1.391 . S
C1665 C1664 1.386 . S
C1665 C1669 1.393 . S
C1666 H1658 0.950 . S
C1666 C1664 1.391 . S
C1666 C1667 1.400 . S
C1667 C1666 1.400 . S
C1667 C1668 1.398 . S
C1667 C1673 1.491 1_554 S
C1668 H1659 0.950 . S
C1668 C1667 1.398 . S
C1668 C1669 1.391 . S
C1669 H1657 0.950 . S
C1669 C1665 1.393 . S
C1669 C1668 1.391 . S
C1670 H1660 0.950 . S
C1670 C1671 1.386 . S
C1670 C1672 1.391 . S
C1671 C1670 1.386 . S
C1671 C1675 1.393 . S
C1672 H1661 0.950 . S
C1672 C1670 1.391 . S
C1672 C1673 1.400 . S
C1673 C1667 1.491 1_556 S
C1673 C1672 1.400 . S
C1673 C1674 1.398 . S
C1674 H1662 0.950 . S
C1674 C1673 1.398 . S
C1674 C1675 1.391 . S
C1675 H1663 0.950 . S
C1675 C1671 1.393 . S
C1675 C1674 1.391 . S
H1676 C1684 0.950 1_655 S
H1677 C1689 0.950 . S
H1678 C1686 0.950 1_655 S
H1679 C1688 0.950 . S
H1680 C1690 0.950 . S
H1681 C1692 0.950 . S
H1682 C1694 0.950 1_655 S
H1683 C1695 0.950 1_655 S
C1684 H1676 0.950 1_455 S
C1684 C1685 1.386 . S
C1684 C1686 1.391 . S
C1685 C1684 1.386 . S
C1685 C1689 1.393 . S
C1686 H1678 0.950 1_455 S
C1686 C1684 1.391 . S
C1686 C1687 1.400 . S
C1687 C1686 1.400 . S
C1687 C1688 1.398 . S
C1687 C1693 1.491 . S
C1688 H1679 0.950 . S
C1688 C1687 1.398 . S
C1688 C1689 1.391 . S
C1689 H1677 0.950 . S
C1689 C1685 1.393 . S
C1689 C1688 1.391 . S
C1690 H1680 0.950 . S
C1690 C1691 1.386 . S
C1690 C1692 1.391 . S
C1691 C1690 1.386 . S
C1691 C1695 1.393 . S
C1692 H1681 0.950 . S
C1692 C1690 1.391 . S
C1692 C1693 1.400 . S
C1693 C1687 1.491 . S
C1693 C1692 1.400 . S
C1693 C1694 1.398 . S
C1694 H1682 0.950 1_455 S
C1694 C1693 1.398 . S
C1694 C1695 1.391 . S
C1695 H1683 0.950 1_455 S
C1695 C1691 1.393 . S
C1695 C1694 1.391 . S
H1696 C1704 0.950 . S
H1697 C1709 0.950 . S
H1698 C1706 0.950 . S
H1699 C1708 0.950 . S
H1700 C1710 0.950 . S
H1701 C1712 0.950 . S
H1702 C1714 0.950 . S
H1703 C1715 0.950 . S
C1704 H1696 0.950 . S
C1704 C1705 1.386 . S
C1704 C1706 1.391 . S
C1705 C1704 1.386 . S
C1705 C1709 1.393 . S
C1706 H1698 0.950 . S
C1706 C1704 1.391 . S
C1706 C1707 1.400 . S
C1707 C1706 1.400 . S
C1707 C1708 1.398 . S
C1707 C1713 1.491 . S
C1708 H1699 0.950 . S
C1708 C1707 1.398 . S
C1708 C1709 1.391 . S
C1709 H1697 0.950 . S
C1709 C1705 1.393 . S
C1709 C1708 1.391 . S
C1710 H1700 0.950 . S
C1710 C1711 1.386 . S
C1710 C1712 1.391 1_545 S
C1711 C1710 1.386 . S
C1711 C1715 1.393 . S
C1712 H1701 0.950 . S
C1712 C1710 1.391 1_565 S
C1712 C1713 1.400 . S
C1713 C1707 1.491 . S
C1713 C1712 1.400 . S
C1713 C1714 1.398 . S
C1714 H1702 0.950 . S
C1714 C1713 1.398 . S
C1714 C1715 1.391 1_565 S
C1715 H1703 0.950 . S
C1715 C1711 1.393 . S
C1715 C1714 1.391 1_545 S
H1716 C1724 0.950 . S
H1717 C1729 0.950 . S
H1718 C1726 0.950 . S
H1719 C1728 0.950 . S
H1720 C1730 0.950 . S
H1721 C1732 0.950 . S
H1722 C1734 0.950 . S
H1723 C1735 0.950 . S
C1724 H1716 0.950 . S
C1724 C1725 1.386 . S
C1724 C1726 1.391 . S
C1725 C1724 1.386 . S
C1725 C1729 1.393 1_545 S
C1726 H1718 0.950 . S
C1726 C1724 1.391 . S
C1726 C1727 1.400 . S
C1727 C1726 1.400 . S
C1727 C1728 1.398 1_545 S
C1727 C1733 1.491 . S
C1728 H1719 0.950 . S
C1728 C1727 1.398 1_565 S
C1728 C1729 1.391 . S
C1729 H1717 0.950 . S
C1729 C1725 1.393 1_565 S
C1729 C1728 1.391 . S
C1730 H1720 0.950 . S
C1730 C1731 1.386 1_565 S
C1730 C1732 1.391 . S
C1731 C1730 1.386 1_545 S
C1731 C1735 1.393 . S
C1732 H1721 0.950 . S
C1732 C1730 1.391 . S
C1732 C1733 1.400 1_565 S
C1733 C1727 1.491 . S
C1733 C1732 1.400 1_545 S
C1733 C1734 1.398 . S
C1734 H1722 0.950 . S
C1734 C1733 1.398 . S
C1734 C1735 1.391 . S
C1735 H1723 0.950 . S
C1735 C1731 1.393 . S
C1735 C1734 1.391 . S
H1736 C1744 0.950 . S
H1737 C1749 0.950 . S
H1738 C1746 0.950 . S
H1739 C1748 0.950 . S
H1740 C1750 0.950 . S
H1741 C1752 0.950 . S
H1742 C1754 0.950 . S
H1743 C1755 0.950 . S
C1744 H1736 0.950 . S
C1744 C1745 1.386 . S
C1744 C1746 1.391 . S
C1745 C1744 1.386 . S
C1745 C1749 1.393 . S
C1746 H1738 0.950 . S
C1746 C1744 1.391 . S
C1746 C1747 1.400 . S
C1747 C1746 1.400 . S
C1747 C1748 1.398 . S
C1747 C1753 1.491 . S
C1748 H1739 0.950 . S
C1748 C1747 1.398 . S
C1748 C1749 1.391 . S
C1749 H1737 0.950 . S
C1749 C1745 1.393 . S
C1749 C1748 1.391 . S
C1750 H1740 0.950 . S
C1750 C1751 1.386 . S
C1750 C1752 1.391 1_565 S
C1751 C1750 1.386 . S
C1751 C1755 1.393 . S
C1752 H1741 0.950 . S
C1752 C1750 1.391 1_545 S
C1752 C1753 1.400 . S
C1753 C1747 1.491 . S
C1753 C1752 1.400 . S
C1753 C1754 1.398 . S
C1754 H1742 0.950 . S
C1754 C1753 1.398 . S
C1754 C1755 1.391 1_545 S
C1755 H1743 0.950 . S
C1755 C1751 1.393 . S
C1755 C1754 1.391 1_565 S
H1756 C1764 0.950 . S
H1757 C1769 0.950 1_545 S
H1758 C1766 0.950 . S
H1759 C1768 0.950 1_545 S
H1760 C1770 0.950 . S
H1761 C1772 0.952 . S
H1762 C1774 0.950 . S
H1763 C1775 0.950 . S
C1764 H1756 0.950 . S
C1764 C1765 1.386 . S
C1764 C1766 1.391 . S
C1765 C1764 1.386 . S
C1765 C1769 1.393 . S
C1766 H1758 0.950 . S
C1766 C1764 1.391 . S
C1766 C1767 1.400 . S
C1767 C1766 1.400 . S
C1767 C1768 1.398 . S
C1767 C1773 1.491 . S
C1768 H1759 0.950 1_565 S
C1768 C1767 1.398 . S
C1768 C1769 1.391 . S
C1769 H1757 0.950 1_565 S
C1769 C1765 1.393 . S
C1769 C1768 1.391 . S
C1770 H1760 0.950 . S
C1770 C1771 1.386 . S
C1770 C1772 1.391 . S
C1771 C1770 1.386 . S
C1771 C1775 1.393 . S
C1772 H1761 0.952 . S
C1772 C1770 1.391 . S
C1772 C1773 1.400 . S
C1773 C1767 1.491 . S
C1773 C1772 1.400 . S
C1773 C1774 1.398 . S
C1774 H1762 0.950 . S
C1774 C1773 1.398 . S
C1774 C1775 1.391 . S
C1775 H1763 0.950 . S
C1775 C1771 1.393 . S
C1775 C1774 1.391 . S
H1776 C1784 0.950 . S
H1777 C1789 0.950 . S
H1778 C1786 0.950 . S
H1779 C1788 0.950 . S
H1780 C1790 0.950 . S
H1781 C1792 0.950 . S
H1782 C1794 0.950 . S
H1783 C1795 0.950 . S
C1784 H1776 0.950 . S
C1784 C1785 1.386 . S
C1784 C1786 1.391 . S
C1785 C1784 1.386 . S
C1785 C1789 1.393 . S
C1786 H1778 0.950 . S
C1786 C1784 1.391 . S
C1786 C1787 1.400 . S
C1787 C1786 1.400 . S
C1787 C1788 1.398 . S
C1787 C1793 1.491 . S
C1788 H1779 0.950 . S
C1788 C1787 1.398 . S
C1788 C1789 1.391 . S
C1789 H1777 0.950 . S
C1789 C1785 1.393 . S
C1789 C1788 1.391 . S
C1790 H1780 0.950 . S
C1790 C1791 1.386 . S
C1790 C1792 1.391 1_565 S
C1791 C1790 1.386 . S
C1791 C1795 1.393 . S
C1792 H1781 0.950 . S
C1792 C1790 1.391 1_545 S
C1792 C1793 1.400 . S
C1793 C1787 1.491 . S
C1793 C1792 1.400 . S
C1793 C1794 1.398 . S
C1794 H1782 0.950 . S
C1794 C1793 1.398 . S
C1794 C1795 1.391 1_545 S
C1795 H1783 0.950 . S
C1795 C1791 1.393 . S
C1795 C1794 1.391 1_565 S
H1796 C1804 0.950 . S
H1797 C1809 0.950 . S
H1798 C1806 0.950 . S
H1799 C1808 0.950 . S
H1800 C1810 0.950 . S
H1801 C1812 0.950 . S
H1802 C1814 0.950 . S
H1803 C1815 0.950 . S
C1804 H1796 0.950 . S
C1804 C1805 1.386 1_565 S
C1804 C1806 1.391 . S
C1805 C1804 1.386 1_545 S
C1805 C1809 1.393 . S
C1806 H1798 0.950 . S
C1806 C1804 1.391 . S
C1806 C1807 1.400 1_565 S
C1807 C1806 1.400 1_545 S
C1807 C1808 1.398 . S
C1807 C1813 1.491 . S
C1808 H1799 0.950 . S
C1808 C1807 1.398 . S
C1808 C1809 1.391 . S
C1809 H1797 0.950 . S
C1809 C1805 1.393 . S
C1809 C1808 1.391 . S
C1810 H1800 0.950 . S
C1810 C1811 1.386 . S
C1810 C1812 1.391 . S
C1811 C1810 1.386 . S
C1811 C1815 1.393 1_545 S
C1812 H1801 0.950 . S
C1812 C1810 1.391 . S
C1812 C1813 1.400 . S
C1813 C1807 1.491 . S
C1813 C1812 1.400 . S
C1813 C1814 1.398 1_545 S
C1814 H1802 0.950 . S
C1814 C1813 1.398 1_565 S
C1814 C1815 1.391 . S
C1815 H1803 0.950 . S
C1815 C1811 1.393 1_565 S
C1815 C1814 1.391 . S
H1816 C1824 0.950 . S
H1817 C1829 0.950 . S
H1818 C1826 0.950 . S
H1819 C1828 0.950 . S
H1820 C1830 0.950 . S
H1821 C1832 0.950 . S
H1822 C1834 0.950 . S
H1823 C1835 0.950 . S
C1824 H1816 0.950 . S
C1824 C1825 1.386 . S
C1824 C1826 1.391 . S
C1825 C1824 1.386 . S
C1825 C1829 1.393 . S
C1826 H1818 0.950 . S
C1826 C1824 1.391 . S
C1826 C1827 1.400 . S
C1827 C1826 1.400 . S
C1827 C1828 1.398 . S
C1827 C1833 1.491 . S
C1828 H1819 0.950 . S
C1828 C1827 1.398 . S
C1828 C1829 1.391 . S
C1829 H1817 0.950 . S
C1829 C1825 1.393 . S
C1829 C1828 1.391 . S
C1830 H1820 0.950 . S
C1830 C1831 1.386 . S
C1830 C1832 1.391 1_545 S
C1831 C1830 1.386 . S
C1831 C1835 1.393 . S
C1832 H1821 0.950 . S
C1832 C1830 1.391 1_565 S
C1832 C1833 1.400 . S
C1833 C1827 1.491 . S
C1833 C1832 1.400 . S
C1833 C1834 1.398 . S
C1834 H1822 0.950 . S
C1834 C1833 1.398 . S
C1834 C1835 1.391 1_565 S
C1835 H1823 0.950 . S
C1835 C1831 1.393 . S
C1835 C1834 1.391 1_545 S
H1836 C1844 0.950 . S
H1837 C1849 0.950 . S
H1838 C1846 0.950 . S
H1839 C1848 0.950 . S
H1840 C1850 0.950 . S
H1841 C1852 0.950 . S
H1842 C1854 0.950 . S
H1843 C1855 0.950 . S
C1844 H1836 0.950 . S
C1844 C1845 1.386 1_545 S
C1844 C1846 1.391 . S
C1845 C1844 1.386 1_565 S
C1845 C1849 1.393 . S
C1846 H1838 0.950 . S
C1846 C1844 1.391 . S
C1846 C1847 1.400 1_545 S
C1847 C1846 1.400 1_565 S
C1847 C1848 1.398 . S
C1847 C1853 1.491 . S
C1848 H1839 0.950 . S
C1848 C1847 1.398 . S
C1848 C1849 1.391 . S
C1849 H1837 0.950 . S
C1849 C1845 1.393 . S
C1849 C1848 1.391 . S
C1850 H1840 0.950 . S
C1850 C1851 1.386 . S
C1850 C1852 1.391 . S
C1851 C1850 1.386 . S
C1851 C1855 1.393 1_565 S
C1852 H1841 0.950 . S
C1852 C1850 1.391 . S
C1852 C1853 1.400 . S
C1853 C1847 1.491 . S
C1853 C1852 1.400 . S
C1853 C1854 1.398 1_565 S
C1854 H1842 0.950 . S
C1854 C1853 1.398 1_545 S
C1854 C1855 1.391 . S
C1855 H1843 0.950 . S
C1855 C1851 1.393 1_545 S
C1855 C1854 1.391 . S
H1856 C1864 0.950 . S
H1857 C1869 0.950 . S
H1858 C1866 0.950 . S
H1859 C1868 0.950 . S
H1860 C1870 0.950 . S
H1861 C1872 0.950 . S
H1862 C1874 0.950 . S
H1863 C1875 0.950 . S
C1864 H1856 0.950 . S
C1864 C1865 1.386 . S
C1864 C1866 1.391 1_565 S
C1865 C1864 1.386 . S
C1865 C1869 1.393 . S
C1866 H1858 0.950 . S
C1866 C1864 1.391 1_545 S
C1866 C1867 1.400 . S
C1867 C1866 1.400 . S
C1867 C1868 1.398 . S
C1867 C1873 1.491 . S
C1868 H1859 0.950 . S
C1868 C1867 1.398 . S
C1868 C1869 1.391 1_545 S
C1869 H1857 0.950 . S
C1869 C1865 1.393 . S
C1869 C1868 1.391 1_565 S
C1870 H1860 0.950 . S
C1870 C1871 1.386 . S
C1870 C1872 1.391 . S
C1871 C1870 1.386 . S
C1871 C1875 1.393 . S
C1872 H1861 0.950 . S
C1872 C1870 1.391 . S
C1872 C1873 1.400 . S
C1873 C1867 1.491 . S
C1873 C1872 1.400 . S
C1873 C1874 1.398 . S
C1874 H1862 0.950 . S
C1874 C1873 1.398 . S
C1874 C1875 1.391 . S
C1875 H1863 0.950 . S
C1875 C1871 1.393 . S
C1875 C1874 1.391 . S
H1876 C1884 0.950 . S
H1877 C1889 0.950 . S
H1878 C1886 0.950 . S
H1879 C1888 0.950 . S
H1880 C1890 0.950 . S
H1881 C1892 0.950 . S
H1882 C1894 0.950 . S
H1883 C1895 0.950 . S
C1884 H1876 0.950 . S
C1884 C1885 1.386 1_545 S
C1884 C1886 1.391 . S
C1885 C1884 1.386 1_565 S
C1885 C1889 1.393 . S
C1886 H1878 0.950 . S
C1886 C1884 1.391 . S
C1886 C1887 1.400 1_545 S
C1887 C1886 1.400 1_565 S
C1887 C1888 1.398 . S
C1887 C1893 1.491 . S
C1888 H1879 0.950 . S
C1888 C1887 1.398 . S
C1888 C1889 1.391 . S
C1889 H1877 0.950 . S
C1889 C1885 1.393 . S
C1889 C1888 1.391 . S
C1890 H1880 0.950 . S
C1890 C1891 1.386 . S
C1890 C1892 1.391 . S
C1891 C1890 1.386 . S
C1891 C1895 1.393 1_565 S
C1892 H1881 0.950 . S
C1892 C1890 1.391 . S
C1892 C1893 1.400 . S
C1893 C1887 1.491 . S
C1893 C1892 1.400 . S
C1893 C1894 1.398 1_565 S
C1894 H1882 0.950 . S
C1894 C1893 1.398 1_545 S
C1894 C1895 1.391 . S
C1895 H1883 0.950 . S
C1895 C1891 1.393 1_545 S
C1895 C1894 1.391 . S
H1896 C1904 0.950 . S
H1897 C1909 0.950 . S
H1898 C1906 0.950 . S
H1899 C1908 0.950 . S
H1900 C1910 0.950 . S
H1901 C1912 0.950 . S
H1902 C1914 0.950 . S
H1903 C1915 0.950 . S
C1904 H1896 0.950 . S
C1904 C1905 1.386 . S
C1904 C1906 1.391 1_545 S
C1905 C1904 1.386 . S
C1905 C1909 1.393 . S
C1906 H1898 0.950 . S
C1906 C1904 1.391 1_565 S
C1906 C1907 1.400 . S
C1907 C1906 1.400 . S
C1907 C1908 1.398 . S
C1907 C1913 1.491 . S
C1908 H1899 0.950 . S
C1908 C1907 1.398 . S
C1908 C1909 1.391 1_565 S
C1909 H1897 0.950 . S
C1909 C1905 1.393 . S
C1909 C1908 1.391 1_545 S
C1910 H1900 0.950 . S
C1910 C1911 1.386 . S
C1910 C1912 1.391 . S
C1911 C1910 1.386 . S
C1911 C1915 1.393 . S
C1912 H1901 0.950 . S
C1912 C1910 1.391 . S
C1912 C1913 1.400 . S
C1913 C1907 1.491 . S
C1913 C1912 1.400 . S
C1913 C1914 1.398 . S
C1914 H1902 0.950 . S
C1914 C1913 1.398 . S
C1914 C1915 1.391 . S
C1915 H1903 0.950 . S
C1915 C1911 1.393 . S
C1915 C1914 1.391 . S
H1916 C1924 0.950 . S
H1917 C1929 0.950 . S
H1918 C1926 0.950 . S
H1919 C1928 0.950 . S
H1920 C1930 0.950 . S
H1921 C1932 0.950 . S
H1922 C1934 0.950 . S
H1923 C1935 0.950 . S
C1924 H1916 0.950 . S
C1924 C1925 1.386 1_565 S
C1924 C1926 1.391 . S
C1925 C1924 1.386 1_545 S
C1925 C1929 1.393 . S
C1926 H1918 0.950 . S
C1926 C1924 1.391 . S
C1926 C1927 1.400 1_565 S
C1927 C1926 1.400 1_545 S
C1927 C1928 1.398 . S
C1927 C1933 1.491 . S
C1928 H1919 0.950 . S
C1928 C1927 1.398 . S
C1928 C1929 1.391 . S
C1929 H1917 0.950 . S
C1929 C1925 1.393 . S
C1929 C1928 1.391 . S
C1930 H1920 0.950 . S
C1930 C1931 1.386 . S
C1930 C1932 1.391 . S
C1931 C1930 1.386 . S
C1931 C1935 1.393 1_545 S
C1932 H1921 0.950 . S
C1932 C1930 1.391 . S
C1932 C1933 1.400 . S
C1933 C1927 1.491 . S
C1933 C1932 1.400 . S
C1933 C1934 1.398 1_545 S
C1934 H1922 0.950 . S
C1934 C1933 1.398 1_565 S
C1934 C1935 1.391 . S
C1935 H1923 0.950 . S
C1935 C1931 1.393 1_565 S
C1935 C1934 1.391 . S
H1936 C1944 0.950 . S
H1937 C1949 0.950 . S
H1938 C1946 0.950 . S
H1939 C1948 0.950 . S
H1940 C1950 0.950 . S
H1941 C1952 0.950 . S
H1942 C1954 0.950 . S
H1943 C1955 0.950 . S
C1944 H1936 0.950 . S
C1944 C1945 1.386 . S
C1944 C1946 1.391 . S
C1945 C1944 1.386 . S
C1945 C1949 1.393 . S
C1946 H1938 0.950 . S
C1946 C1944 1.391 . S
C1946 C1947 1.400 . S
C1947 C1946 1.400 . S
C1947 C1948 1.398 . S
C1947 C1953 1.491 . S
C1948 H1939 0.950 . S
C1948 C1947 1.398 . S
C1948 C1949 1.391 . S
C1949 H1937 0.950 . S
C1949 C1945 1.393 . S
C1949 C1948 1.391 . S
C1950 H1940 0.950 . S
C1950 C1951 1.386 . S
C1950 C1952 1.391 1_545 S
C1951 C1950 1.386 . S
C1951 C1955 1.393 . S
C1952 H1941 0.950 . S
C1952 C1950 1.391 1_565 S
C1952 C1953 1.400 . S
C1953 C1947 1.491 . S
C1953 C1952 1.400 . S
C1953 C1954 1.398 . S
C1954 H1942 0.950 . S
C1954 C1953 1.398 . S
C1954 C1955 1.391 1_565 S
C1955 H1943 0.950 . S
C1955 C1951 1.393 . S
C1955 C1954 1.391 1_545 S
H1956 C1964 0.950 . S
H1957 C1969 0.950 . S
H1958 C1966 0.950 . S
H1959 C1968 0.950 . S
H1960 C1970 0.950 . S
H1961 C1972 0.950 . S
H1962 C1974 0.950 . S
H1963 C1975 0.950 . S
C1964 H1956 0.950 . S
C1964 C1965 1.386 . S
C1964 C1966 1.391 . S
C1965 C1964 1.386 . S
C1965 C1969 1.393 1_565 S
C1966 H1958 0.950 . S
C1966 C1964 1.391 . S
C1966 C1967 1.400 . S
C1967 C1966 1.400 . S
C1967 C1968 1.398 1_565 S
C1967 C1973 1.491 . S
C1968 H1959 0.950 . S
C1968 C1967 1.398 1_545 S
C1968 C1969 1.391 . S
C1969 H1957 0.950 . S
C1969 C1965 1.393 1_545 S
C1969 C1968 1.391 . S
C1970 H1960 0.950 . S
C1970 C1971 1.386 1_545 S
C1970 C1972 1.391 . S
C1971 C1970 1.386 1_565 S
C1971 C1975 1.393 . S
C1972 H1961 0.950 . S
C1972 C1970 1.391 . S
C1972 C1973 1.400 1_545 S
C1973 C1967 1.491 . S
C1973 C1972 1.400 1_565 S
C1973 C1974 1.398 . S
C1974 H1962 0.950 . S
C1974 C1973 1.398 . S
C1974 C1975 1.391 . S
C1975 H1963 0.950 . S
C1975 C1971 1.393 . S
C1975 C1974 1.391 . S
H1976 C1984 0.950 . S
H1977 C1989 0.950 . S
H1978 C1986 0.950 . S
H1979 C1988 0.950 . S
H1980 C1990 0.950 . S
H1981 C1992 0.950 . S
H1982 C1994 0.950 . S
H1983 C1995 0.950 . S
C1984 H1976 0.950 . S
C1984 C1985 1.386 . S
C1984 C1986 1.391 1_565 S
C1985 C1984 1.386 . S
C1985 C1989 1.393 . S
C1986 H1978 0.950 . S
C1986 C1984 1.391 1_545 S
C1986 C1987 1.400 . S
C1987 C1986 1.400 . S
C1987 C1988 1.398 . S
C1987 C1993 1.491 . S
C1988 H1979 0.950 . S
C1988 C1987 1.398 . S
C1988 C1989 1.391 1_545 S
C1989 H1977 0.950 . S
C1989 C1985 1.393 . S
C1989 C1988 1.391 1_565 S
C1990 H1980 0.950 . S
C1990 C1991 1.386 . S
C1990 C1992 1.391 . S
C1991 C1990 1.386 . S
C1991 C1995 1.393 . S
C1992 H1981 0.950 . S
C1992 C1990 1.391 . S
C1992 C1993 1.400 . S
C1993 C1987 1.491 . S
C1993 C1992 1.400 . S
C1993 C1994 1.398 . S
C1994 H1982 0.950 . S
C1994 C1993 1.398 . S
C1994 C1995 1.391 . S
C1995 H1983 0.950 . S
C1995 C1991 1.393 . S
C1995 C1994 1.391 . S
H1996 C2004 0.950 . S
H1997 C2009 0.950 1_565 S
H1998 C2006 0.950 . S
H1999 C2008 0.950 1_565 S
H2000 C2010 0.950 . S
H2001 C2012 0.951 . S
H2002 C2014 0.950 . S
H2003 C2015 0.950 . S
C2004 H1996 0.950 . S
C2004 C2005 1.386 . S
C2004 C2006 1.391 . S
C2005 C2004 1.386 . S
C2005 C2009 1.393 . S
C2006 H1998 0.950 . S
C2006 C2004 1.391 . S
C2006 C2007 1.400 . S
C2007 C2006 1.400 . S
C2007 C2008 1.398 . S
C2007 C2013 1.491 . S
C2008 H1999 0.950 1_545 S
C2008 C2007 1.398 . S
C2008 C2009 1.391 . S
C2009 H1997 0.950 1_545 S
C2009 C2005 1.393 . S
C2009 C2008 1.391 . S
C2010 H2000 0.950 . S
C2010 C2011 1.386 . S
C2010 C2012 1.391 . S
C2011 C2010 1.386 . S
C2011 C2015 1.393 . S
C2012 H2001 0.951 . S
C2012 C2010 1.391 . S
C2012 C2013 1.400 . S
C2013 C2007 1.491 . S
C2013 C2012 1.400 . S
C2013 C2014 1.398 . S
C2014 H2002 0.950 . S
C2014 C2013 1.398 . S
C2014 C2015 1.391 . S
C2015 H2003 0.950 . S
C2015 C2011 1.393 . S
C2015 C2014 1.391 . S
H2016 C2024 0.950 . S
H2017 C2029 0.950 . S
H2018 C2026 0.950 . S
H2019 C2028 0.950 . S
H2020 C2030 0.950 . S
H2021 C2032 0.950 . S
H2022 C2034 0.950 . S
H2023 C2035 0.950 . S
C2024 H2016 0.950 . S
C2024 C2025 1.386 . S
C2024 C2026 1.391 . S
C2025 C2024 1.386 . S
C2025 C2029 1.393 . S
C2026 H2018 0.950 . S
C2026 C2024 1.391 . S
C2026 C2027 1.400 . S
C2027 C2026 1.400 . S
C2027 C2028 1.398 . S
C2027 C2033 1.491 . S
C2028 H2019 0.950 . S
C2028 C2027 1.398 . S
C2028 C2029 1.391 . S
C2029 H2017 0.950 . S
C2029 C2025 1.393 . S
C2029 C2028 1.391 . S
C2030 H2020 0.950 . S
C2030 C2031 1.386 . S
C2030 C2032 1.391 . S
C2031 C2030 1.386 . S
C2031 C2035 1.393 . S
C2032 H2021 0.950 . S
C2032 C2030 1.391 . S
C2032 C2033 1.400 . S
C2033 C2027 1.491 . S
C2033 C2032 1.400 . S
C2033 C2034 1.398 . S
C2034 H2022 0.950 . S
C2034 C2033 1.398 . S
C2034 C2035 1.391 . S
C2035 H2023 0.950 . S
C2035 C2031 1.393 . S
C2035 C2034 1.391 . S
H2036 C2044 0.950 . S
H2037 C2049 0.950 . S
H2038 C2046 0.950 . S
H2039 C2048 0.950 . S
H2040 C2050 0.950 . S
H2041 C2052 0.950 . S
H2042 C2054 0.950 . S
H2043 C2055 0.950 . S
C2044 H2036 0.950 . S
C2044 C2045 1.386 . S
C2044 C2046 1.391 . S
C2045 C2044 1.386 . S
C2045 C2049 1.393 . S
C2046 H2038 0.950 . S
C2046 C2044 1.391 . S
C2046 C2047 1.400 . S
C2047 C2046 1.400 . S
C2047 C2048 1.398 . S
C2047 C2053 1.491 . S
C2048 H2039 0.950 . S
C2048 C2047 1.398 . S
C2048 C2049 1.391 . S
C2049 H2037 0.950 . S
C2049 C2045 1.393 . S
C2049 C2048 1.391 . S
C2050 H2040 0.950 . S
C2050 C2051 1.386 . S
C2050 C2052 1.391 . S
C2051 C2050 1.386 . S
C2051 C2055 1.393 . S
C2052 H2041 0.950 . S
C2052 C2050 1.391 . S
C2052 C2053 1.400 . S
C2053 C2047 1.491 . S
C2053 C2052 1.400 . S
C2053 C2054 1.398 . S
C2054 H2042 0.950 . S
C2054 C2053 1.398 . S
C2054 C2055 1.391 . S
C2055 H2043 0.950 . S
C2055 C2051 1.393 . S
C2055 C2054 1.391 . S
H2056 C2064 0.950 . S
H2057 C2069 0.950 . S
H2058 C2066 0.950 . S
H2059 C2068 0.950 . S
H2060 C2070 0.950 . S
H2061 C2072 0.950 . S
H2062 C2074 0.950 . S
H2063 C2075 0.950 . S
C2064 H2056 0.950 . S
C2064 C2065 1.386 . S
C2064 C2066 1.391 . S
C2065 C2064 1.386 . S
C2065 C2069 1.393 . S
C2066 H2058 0.950 . S
C2066 C2064 1.391 . S
C2066 C2067 1.400 . S
C2067 C2066 1.400 . S
C2067 C2068 1.398 . S
C2067 C2073 1.491 . S
C2068 H2059 0.950 . S
C2068 C2067 1.398 . S
C2068 C2069 1.391 . S
C2069 H2057 0.950 . S
C2069 C2065 1.393 . S
C2069 C2068 1.391 . S
C2070 H2060 0.950 . S
C2070 C2071 1.386 . S
C2070 C2072 1.391 . S
C2071 C2070 1.386 . S
C2071 C2075 1.393 . S
C2072 H2061 0.950 . S
C2072 C2070 1.391 . S
C2072 C2073 1.400 . S
C2073 C2067 1.491 . S
C2073 C2072 1.400 . S
C2073 C2074 1.398 . S
C2074 H2062 0.950 . S
C2074 C2073 1.398 . S
C2074 C2075 1.391 . S
C2075 H2063 0.950 . S
C2075 C2071 1.393 . S
C2075 C2074 1.391 . S
H2076 C2084 0.950 . S
H2077 C2089 0.950 . S
H2078 C2086 0.950 . S
H2079 C2088 0.950 . S
H2080 C2090 0.950 . S
H2081 C2092 0.950 . S
H2082 C2094 0.950 . S
H2083 C2095 0.950 . S
C2084 H2076 0.950 . S
C2084 C2085 1.386 . S
C2084 C2086 1.391 . S
C2085 C2084 1.386 . S
C2085 C2089 1.393 . S
C2086 H2078 0.950 . S
C2086 C2084 1.391 . S
C2086 C2087 1.400 . S
C2087 C2086 1.400 . S
C2087 C2088 1.398 . S
C2087 C2093 1.491 . S
C2088 H2079 0.950 . S
C2088 C2087 1.398 . S
C2088 C2089 1.391 . S
C2089 H2077 0.950 . S
C2089 C2085 1.393 . S
C2089 C2088 1.391 . S
C2090 H2080 0.950 . S
C2090 C2091 1.386 . S
C2090 C2092 1.391 . S
C2091 C2090 1.386 . S
C2091 C2095 1.393 . S
C2092 H2081 0.950 . S
C2092 C2090 1.391 . S
C2092 C2093 1.400 . S
C2093 C2087 1.491 . S
C2093 C2092 1.400 . S
C2093 C2094 1.398 . S
C2094 H2082 0.950 . S
C2094 C2093 1.398 . S
C2094 C2095 1.391 . S
C2095 H2083 0.950 . S
C2095 C2091 1.393 . S
C2095 C2094 1.391 . S
H2096 C2104 0.950 . S
H2097 C2109 0.950 . S
H2098 C2106 0.950 . S
H2099 C2108 0.950 . S
H2100 C2110 0.950 . S
H2101 C2112 0.950 . S
H2102 C2114 0.950 . S
H2103 C2115 0.950 . S
C2104 H2096 0.950 . S
C2104 C2105 1.386 . S
C2104 C2106 1.391 . S
C2105 C2104 1.386 . S
C2105 C2109 1.393 . S
C2106 H2098 0.950 . S
C2106 C2104 1.391 . S
C2106 C2107 1.400 . S
C2107 C2106 1.400 . S
C2107 C2108 1.398 . S
C2107 C2113 1.491 . S
C2108 H2099 0.950 . S
C2108 C2107 1.398 . S
C2108 C2109 1.391 . S
C2109 H2097 0.950 . S
C2109 C2105 1.393 . S
C2109 C2108 1.391 . S
C2110 H2100 0.950 . S
C2110 C2111 1.386 . S
C2110 C2112 1.391 . S
C2111 C2110 1.386 . S
C2111 C2115 1.393 . S
C2112 H2101 0.950 . S
C2112 C2110 1.391 . S
C2112 C2113 1.400 . S
C2113 C2107 1.491 . S
C2113 C2112 1.400 . S
C2113 C2114 1.398 . S
C2114 H2102 0.950 . S
C2114 C2113 1.398 . S
C2114 C2115 1.391 . S
C2115 H2103 0.950 . S
C2115 C2111 1.393 . S
C2115 C2114 1.391 . S
H2116 C2124 0.950 . S
H2117 C2129 0.950 . S
H2118 C2126 0.950 . S
H2119 C2128 0.950 . S
H2120 C2130 0.950 . S
H2121 C2132 0.950 . S
H2122 C2134 0.950 . S
H2123 C2135 0.950 . S
C2124 H2116 0.950 . S
C2124 C2125 1.386 . S
C2124 C2126 1.391 . S
C2125 C2124 1.386 . S
C2125 C2129 1.393 . S
C2126 H2118 0.950 . S
C2126 C2124 1.391 . S
C2126 C2127 1.400 . S
C2127 C2126 1.400 . S
C2127 C2128 1.398 . S
C2127 C2133 1.491 . S
C2128 H2119 0.950 . S
C2128 C2127 1.398 . S
C2128 C2129 1.391 . S
C2129 H2117 0.950 . S
C2129 C2125 1.393 . S
C2129 C2128 1.391 . S
C2130 H2120 0.950 . S
C2130 C2131 1.386 . S
C2130 C2132 1.391 . S
C2131 C2130 1.386 . S
C2131 C2135 1.393 . S
C2132 H2121 0.950 . S
C2132 C2130 1.391 . S
C2132 C2133 1.400 . S
C2133 C2127 1.491 . S
C2133 C2132 1.400 . S
C2133 C2134 1.398 . S
C2134 H2122 0.950 . S
C2134 C2133 1.398 . S
C2134 C2135 1.391 . S
C2135 H2123 0.950 . S
C2135 C2131 1.393 . S
C2135 C2134 1.391 . S
H2136 C2144 0.950 . S
H2137 C2149 0.950 . S
H2138 C2146 0.950 . S
H2139 C2148 0.950 . S
H2140 C2150 0.950 . S
H2141 C2152 0.950 . S
H2142 C2154 0.950 . S
H2143 C2155 0.950 . S
C2144 H2136 0.950 . S
C2144 C2145 1.386 . S
C2144 C2146 1.391 . S
C2145 C2144 1.386 . S
C2145 C2149 1.393 . S
C2146 H2138 0.950 . S
C2146 C2144 1.391 . S
C2146 C2147 1.400 . S
C2147 C2146 1.400 . S
C2147 C2148 1.398 . S
C2147 C2153 1.491 . S
C2148 H2139 0.950 . S
C2148 C2147 1.398 . S
C2148 C2149 1.391 . S
C2149 H2137 0.950 . S
C2149 C2145 1.393 . S
C2149 C2148 1.391 . S
C2150 H2140 0.950 . S
C2150 C2151 1.386 . S
C2150 C2152 1.391 . S
C2151 C2150 1.386 . S
C2151 C2155 1.393 . S
C2152 H2141 0.950 . S
C2152 C2150 1.391 . S
C2152 C2153 1.400 . S
C2153 C2147 1.491 . S
C2153 C2152 1.400 . S
C2153 C2154 1.398 . S
C2154 H2142 0.950 . S
C2154 C2153 1.398 . S
C2154 C2155 1.391 . S
C2155 H2143 0.950 . S
C2155 C2151 1.393 . S
C2155 C2154 1.391 . S
H2156 C2164 0.950 . S
H2157 C2169 0.950 . S
H2158 C2166 0.950 . S
H2159 C2168 0.950 . S
H2160 C2170 0.950 . S
H2161 C2172 0.950 . S
H2162 C2174 0.950 . S
H2163 C2175 0.950 . S
C2164 H2156 0.950 . S
C2164 C2165 1.386 . S
C2164 C2166 1.391 . S
C2165 C2164 1.386 . S
C2165 C2169 1.393 . S
C2166 H2158 0.950 . S
C2166 C2164 1.391 . S
C2166 C2167 1.400 . S
C2167 C2166 1.400 . S
C2167 C2168 1.398 . S
C2167 C2173 1.491 . S
C2168 H2159 0.950 . S
C2168 C2167 1.398 . S
C2168 C2169 1.391 . S
C2169 H2157 0.950 . S
C2169 C2165 1.393 . S
C2169 C2168 1.391 . S
C2170 H2160 0.950 . S
C2170 C2171 1.386 . S
C2170 C2172 1.391 . S
C2171 C2170 1.386 . S
C2171 C2175 1.393 . S
C2172 H2161 0.950 . S
C2172 C2170 1.391 . S
C2172 C2173 1.400 . S
C2173 C2167 1.491 . S
C2173 C2172 1.400 . S
C2173 C2174 1.398 . S
C2174 H2162 0.950 . S
C2174 C2173 1.398 . S
C2174 C2175 1.391 . S
C2175 H2163 0.950 . S
C2175 C2171 1.393 . S
C2175 C2174 1.391 . S
H2176 C2184 0.950 . S
H2177 C2189 0.950 . S
H2178 C2186 0.950 . S
H2179 C2188 0.950 . S
H2180 C2190 0.950 . S
H2181 C2192 0.950 . S
H2182 C2194 0.950 . S
H2183 C2195 0.950 . S
C2184 H2176 0.950 . S
C2184 C2185 1.386 . S
C2184 C2186 1.391 . S
C2185 C2184 1.386 . S
C2185 C2189 1.393 . S
C2186 H2178 0.950 . S
C2186 C2184 1.391 . S
C2186 C2187 1.400 . S
C2187 C2186 1.400 . S
C2187 C2188 1.398 . S
C2187 C2193 1.491 . S
C2188 H2179 0.950 . S
C2188 C2187 1.398 . S
C2188 C2189 1.391 . S
C2189 H2177 0.950 . S
C2189 C2185 1.393 . S
C2189 C2188 1.391 . S
C2190 H2180 0.950 . S
C2190 C2191 1.386 . S
C2190 C2192 1.391 . S
C2191 C2190 1.386 . S
C2191 C2195 1.393 . S
C2192 H2181 0.950 . S
C2192 C2190 1.391 . S
C2192 C2193 1.400 . S
C2193 C2187 1.491 . S
C2193 C2192 1.400 . S
C2193 C2194 1.398 . S
C2194 H2182 0.950 . S
C2194 C2193 1.398 . S
C2194 C2195 1.391 . S
C2195 H2183 0.950 . S
C2195 C2191 1.393 . S
C2195 C2194 1.391 . S
H2196 C2204 0.950 . S
H2197 C2209 0.950 . S
H2198 C2206 0.950 . S
H2199 C2208 0.950 . S
H2200 C2210 0.950 . S
H2201 C2212 0.950 . S
H2202 C2214 0.950 . S
H2203 C2215 0.950 . S
C2204 H2196 0.950 . S
C2204 C2205 1.386 . S
C2204 C2206 1.391 . S
C2205 C2204 1.386 . S
C2205 C2209 1.393 . S
C2206 H2198 0.950 . S
C2206 C2204 1.391 . S
C2206 C2207 1.400 . S
C2207 C2206 1.400 . S
C2207 C2208 1.398 . S
C2207 C2213 1.491 . S
C2208 H2199 0.950 . S
C2208 C2207 1.398 . S
C2208 C2209 1.391 . S
C2209 H2197 0.950 . S
C2209 C2205 1.393 . S
C2209 C2208 1.391 . S
C2210 H2200 0.950 . S
C2210 C2211 1.386 . S
C2210 C2212 1.391 . S
C2211 C2210 1.386 . S
C2211 C2215 1.393 . S
C2212 H2201 0.950 . S
C2212 C2210 1.391 . S
C2212 C2213 1.400 . S
C2213 C2207 1.491 . S
C2213 C2212 1.400 . S
C2213 C2214 1.398 . S
C2214 H2202 0.950 . S
C2214 C2213 1.398 . S
C2214 C2215 1.391 . S
C2215 H2203 0.950 . S
C2215 C2211 1.393 . S
C2215 C2214 1.391 . S
H2216 C2224 0.950 . S
H2217 C2229 0.950 . S
H2218 C2226 0.950 . S
H2219 C2228 0.950 . S
H2220 C2230 0.950 . S
H2221 C2232 0.950 . S
H2222 C2234 0.950 . S
H2223 C2235 0.950 . S
C2224 H2216 0.950 . S
C2224 C2225 1.386 . S
C2224 C2226 1.391 . S
C2225 C2224 1.386 . S
C2225 C2229 1.393 . S
C2226 H2218 0.950 . S
C2226 C2224 1.391 . S
C2226 C2227 1.400 . S
C2227 C2226 1.400 . S
C2227 C2228 1.398 . S
C2227 C2233 1.491 . S
C2228 H2219 0.950 . S
C2228 C2227 1.398 . S
C2228 C2229 1.391 . S
C2229 H2217 0.950 . S
C2229 C2225 1.393 . S
C2229 C2228 1.391 . S
C2230 H2220 0.950 . S
C2230 C2231 1.386 . S
C2230 C2232 1.391 . S
C2231 C2230 1.386 . S
C2231 C2235 1.393 . S
C2232 H2221 0.950 . S
C2232 C2230 1.391 . S
C2232 C2233 1.400 . S
C2233 C2227 1.491 . S
C2233 C2232 1.400 . S
C2233 C2234 1.398 . S
C2234 H2222 0.950 . S
C2234 C2233 1.398 . S
C2234 C2235 1.391 . S
C2235 H2223 0.950 . S
C2235 C2231 1.393 . S
C2235 C2234 1.391 . S
H2236 C2244 0.950 . S
H2237 C2249 0.950 . S
H2238 C2246 0.950 . S
H2239 C2248 0.950 . S
H2240 C2250 0.950 . S
H2241 C2252 0.950 . S
H2242 C2254 0.950 . S
H2243 C2255 0.950 . S
C2244 H2236 0.950 . S
C2244 C2245 1.386 . S
C2244 C2246 1.391 . S
C2245 C2244 1.386 . S
C2245 C2249 1.393 . S
C2246 H2238 0.950 . S
C2246 C2244 1.391 . S
C2246 C2247 1.400 . S
C2247 C2246 1.400 . S
C2247 C2248 1.398 . S
C2247 C2253 1.491 . S
C2248 H2239 0.950 . S
C2248 C2247 1.398 . S
C2248 C2249 1.391 . S
C2249 H2237 0.950 . S
C2249 C2245 1.393 . S
C2249 C2248 1.391 . S
C2250 H2240 0.950 . S
C2250 C2251 1.386 . S
C2250 C2252 1.391 . S
C2251 C2250 1.386 . S
C2251 C2255 1.393 . S
C2252 H2241 0.950 . S
C2252 C2250 1.391 . S
C2252 C2253 1.400 . S
C2253 C2247 1.491 . S
C2253 C2252 1.400 . S
C2253 C2254 1.398 . S
C2254 H2242 0.950 . S
C2254 C2253 1.398 . S
C2254 C2255 1.391 . S
C2255 H2243 0.950 . S
C2255 C2251 1.393 . S
C2255 C2254 1.391 . S
H2256 C2264 0.950 . S
H2257 C2269 0.950 . S
H2258 C2266 0.950 . S
H2259 C2268 0.950 . S
H2260 C2270 0.950 . S
H2261 C2272 0.950 . S
H2262 C2274 0.950 . S
H2263 C2275 0.950 . S
C2264 H2256 0.950 . S
C2264 C2265 1.386 . S
C2264 C2266 1.391 . S
C2265 C2264 1.386 . S
C2265 C2269 1.393 . S
C2266 H2258 0.950 . S
C2266 C2264 1.391 . S
C2266 C2267 1.400 . S
C2267 C2266 1.400 . S
C2267 C2268 1.398 . S
C2267 C2273 1.491 . S
C2268 H2259 0.950 . S
C2268 C2267 1.398 . S
C2268 C2269 1.391 . S
C2269 H2257 0.950 . S
C2269 C2265 1.393 . S
C2269 C2268 1.391 . S
C2270 H2260 0.950 . S
C2270 C2271 1.386 . S
C2270 C2272 1.391 . S
C2271 C2270 1.386 . S
C2271 C2275 1.393 . S
C2272 H2261 0.950 . S
C2272 C2270 1.391 . S
C2272 C2273 1.400 . S
C2273 C2267 1.491 . S
C2273 C2272 1.400 . S
C2273 C2274 1.398 . S
C2274 H2262 0.950 . S
C2274 C2273 1.398 . S
C2274 C2275 1.391 . S
C2275 H2263 0.950 . S
C2275 C2271 1.393 . S
C2275 C2274 1.391 . S
H2276 C2284 0.950 . S
H2277 C2289 0.950 . S
H2278 C2286 0.950 . S
H2279 C2288 0.950 . S
H2280 C2290 0.950 . S
H2281 C2292 0.950 . S
H2282 C2294 0.950 . S
H2283 C2295 0.950 . S
C2284 H2276 0.950 . S
C2284 C2285 1.386 . S
C2284 C2286 1.391 . S
C2285 C2284 1.386 . S
C2285 C2289 1.393 . S
C2286 H2278 0.950 . S
C2286 C2284 1.391 . S
C2286 C2287 1.400 . S
C2287 C2286 1.400 . S
C2287 C2288 1.398 . S
C2287 C2293 1.491 . S
C2288 H2279 0.950 . S
C2288 C2287 1.398 . S
C2288 C2289 1.391 . S
C2289 H2277 0.950 . S
C2289 C2285 1.393 . S
C2289 C2288 1.391 . S
C2290 H2280 0.950 . S
C2290 C2291 1.386 . S
C2290 C2292 1.391 . S
C2291 C2290 1.386 . S
C2291 C2295 1.393 . S
C2292 H2281 0.950 . S
C2292 C2290 1.391 . S
C2292 C2293 1.400 . S
C2293 C2287 1.491 . S
C2293 C2292 1.400 . S
C2293 C2294 1.398 . S
C2294 H2282 0.950 . S
C2294 C2293 1.398 . S
C2294 C2295 1.391 . S
C2295 H2283 0.950 . S
C2295 C2291 1.393 . S
C2295 C2294 1.391 . S
H2296 C2304 0.950 . S
H2297 C2309 0.950 . S
H2298 C2306 0.950 . S
H2299 C2308 0.950 . S
H2300 C2310 0.950 . S
H2301 C2312 0.950 . S
H2302 C2314 0.950 . S
H2303 C2315 0.950 . S
C2304 H2296 0.950 . S
C2304 C2305 1.386 . S
C2304 C2306 1.391 . S
C2305 C2304 1.386 . S
C2305 C2309 1.393 . S
C2306 H2298 0.950 . S
C2306 C2304 1.391 . S
C2306 C2307 1.400 . S
C2307 C2306 1.400 . S
C2307 C2308 1.398 . S
C2307 C2313 1.491 . S
C2308 H2299 0.950 . S
C2308 C2307 1.398 . S
C2308 C2309 1.391 . S
C2309 H2297 0.950 . S
C2309 C2305 1.393 . S
C2309 C2308 1.391 . S
C2310 H2300 0.950 . S
C2310 C2311 1.386 . S
C2310 C2312 1.391 . S
C2311 C2310 1.386 . S
C2311 C2315 1.393 . S
C2312 H2301 0.950 . S
C2312 C2310 1.391 . S
C2312 C2313 1.400 . S
C2313 C2307 1.491 . S
C2313 C2312 1.400 . S
C2313 C2314 1.398 . S
C2314 H2302 0.950 . S
C2314 C2313 1.398 . S
C2314 C2315 1.391 . S
C2315 H2303 0.950 . S
C2315 C2311 1.393 . S
C2315 C2314 1.391 . S
H2316 C2324 0.950 . S
H2317 C2329 0.950 . S
H2318 C2326 0.950 . S
H2319 C2328 0.950 . S
H2320 C2330 0.950 . S
H2321 C2332 0.950 . S
H2322 C2334 0.950 . S
H2323 C2335 0.950 . S
C2324 H2316 0.950 . S
C2324 C2325 1.386 . S
C2324 C2326 1.391 . S
C2325 C2324 1.386 . S
C2325 C2329 1.393 . S
C2326 H2318 0.950 . S
C2326 C2324 1.391 . S
C2326 C2327 1.400 . S
C2327 C2326 1.400 . S
C2327 C2328 1.398 . S
C2327 C2333 1.491 . S
C2328 H2319 0.950 . S
C2328 C2327 1.398 . S
C2328 C2329 1.391 . S
C2329 H2317 0.950 . S
C2329 C2325 1.393 . S
C2329 C2328 1.391 . S
C2330 H2320 0.950 . S
C2330 C2331 1.386 . S
C2330 C2332 1.391 . S
C2331 C2330 1.386 . S
C2331 C2335 1.393 . S
C2332 H2321 0.950 . S
C2332 C2330 1.391 . S
C2332 C2333 1.400 . S
C2333 C2327 1.491 . S
C2333 C2332 1.400 . S
C2333 C2334 1.398 . S
C2334 H2322 0.950 . S
C2334 C2333 1.398 . S
C2334 C2335 1.391 . S
C2335 H2323 0.950 . S
C2335 C2331 1.393 . S
C2335 C2334 1.391 . S
H2336 C2344 0.950 . S
H2337 C2349 0.950 . S
H2338 C2346 0.950 . S
H2339 C2348 0.950 . S
H2340 C2350 0.950 . S
H2341 C2352 0.950 . S
H2342 C2354 0.950 . S
H2343 C2355 0.950 . S
C2344 H2336 0.950 . S
C2344 C2345 1.386 . S
C2344 C2346 1.391 . S
C2345 C2344 1.386 . S
C2345 C2349 1.393 . S
C2346 H2338 0.950 . S
C2346 C2344 1.391 . S
C2346 C2347 1.400 . S
C2347 C2346 1.400 . S
C2347 C2348 1.398 . S
C2347 C2353 1.491 . S
C2348 H2339 0.950 . S
C2348 C2347 1.398 . S
C2348 C2349 1.391 . S
C2349 H2337 0.950 . S
C2349 C2345 1.393 . S
C2349 C2348 1.391 . S
C2350 H2340 0.950 . S
C2350 C2351 1.386 . S
C2350 C2352 1.391 . S
C2351 C2350 1.386 . S
C2351 C2355 1.393 . S
C2352 H2341 0.950 . S
C2352 C2350 1.391 . S
C2352 C2353 1.400 . S
C2353 C2347 1.491 . S
C2353 C2352 1.400 . S
C2353 C2354 1.398 . S
C2354 H2342 0.950 . S
C2354 C2353 1.398 . S
C2354 C2355 1.391 . S
C2355 H2343 0.950 . S
C2355 C2351 1.393 . S
C2355 C2354 1.391 . S
H2356 C2364 0.950 . S
H2357 C2369 0.950 . S
H2358 C2366 0.950 . S
H2359 C2368 0.950 . S
H2360 C2370 0.950 . S
H2361 C2372 0.950 . S
H2362 C2374 0.950 . S
H2363 C2375 0.950 . S
C2364 H2356 0.950 . S
C2364 C2365 1.386 . S
C2364 C2366 1.391 . S
C2365 C2364 1.386 . S
C2365 C2369 1.393 1_655 S
C2366 H2358 0.950 . S
C2366 C2364 1.391 . S
C2366 C2367 1.400 . S
C2367 C2366 1.400 . S
C2367 C2368 1.398 1_655 S
C2367 C2373 1.491 1_655 S
C2368 H2359 0.950 . S
C2368 C2367 1.398 1_455 S
C2368 C2369 1.391 . S
C2369 H2357 0.950 . S
C2369 C2365 1.393 1_455 S
C2369 C2368 1.391 . S
C2370 H2360 0.950 . S
C2370 C2371 1.386 . S
C2370 C2372 1.391 . S
C2371 C2370 1.386 . S
C2371 C2375 1.393 1_455 S
C2372 H2361 0.950 . S
C2372 C2370 1.391 . S
C2372 C2373 1.400 . S
C2373 C2367 1.491 1_455 S
C2373 C2372 1.400 . S
C2373 C2374 1.398 1_455 S
C2374 H2362 0.950 . S
C2374 C2373 1.398 1_655 S
C2374 C2375 1.391 . S
C2375 H2363 0.950 . S
C2375 C2371 1.393 1_655 S
C2375 C2374 1.391 . S
H2376 C2384 0.950 . S
H2377 C2389 0.950 . S
H2378 C2386 0.950 . S
H2379 C2388 0.950 . S
H2380 C2390 0.950 . S
H2381 C2392 0.950 . S
H2382 C2394 0.950 . S
H2383 C2395 0.950 . S
C2384 H2376 0.950 . S
C2384 C2385 1.386 . S
C2384 C2386 1.391 . S
C2385 C2384 1.386 . S
C2385 C2389 1.393 . S
C2386 H2378 0.950 . S
C2386 C2384 1.391 . S
C2386 C2387 1.400 . S
C2387 C2386 1.400 . S
C2387 C2388 1.398 . S
C2387 C2393 1.491 1_455 S
C2388 H2379 0.950 . S
C2388 C2387 1.398 . S
C2388 C2389 1.391 . S
C2389 H2377 0.950 . S
C2389 C2385 1.393 . S
C2389 C2388 1.391 . S
C2390 H2380 0.950 . S
C2390 C2391 1.386 . S
C2390 C2392 1.391 . S
C2391 C2390 1.386 . S
C2391 C2395 1.393 . S
C2392 H2381 0.950 . S
C2392 C2390 1.391 . S
C2392 C2393 1.400 . S
C2393 C2387 1.491 1_655 S
C2393 C2392 1.400 . S
C2393 C2394 1.398 . S
C2394 H2382 0.950 . S
C2394 C2393 1.398 . S
C2394 C2395 1.391 . S
C2395 H2383 0.950 . S
C2395 C2391 1.393 . S
C2395 C2394 1.391 . S
H2396 C2404 0.950 . S
H2397 C2409 0.950 . S
H2398 C2406 0.950 . S
H2399 C2408 0.950 . S
H2400 C2410 0.950 . S
H2401 C2412 0.950 . S
H2402 C2414 0.950 . S
H2403 C2415 0.950 . S
C2404 H2396 0.950 . S
C2404 C2405 1.386 . S
C2404 C2406 1.391 . S
C2405 C2404 1.386 . S
C2405 C2409 1.393 . S
C2406 H2398 0.950 . S
C2406 C2404 1.391 . S
C2406 C2407 1.400 . S
C2407 C2406 1.400 . S
C2407 C2408 1.398 . S
C2407 C2413 1.491 . S
C2408 H2399 0.950 . S
C2408 C2407 1.398 . S
C2408 C2409 1.391 . S
C2409 H2397 0.950 . S
C2409 C2405 1.393 . S
C2409 C2408 1.391 . S
C2410 H2400 0.950 . S
C2410 C2411 1.386 . S
C2410 C2412 1.391 . S
C2411 C2410 1.386 . S
C2411 C2415 1.393 . S
C2412 H2401 0.950 . S
C2412 C2410 1.391 . S
C2412 C2413 1.400 . S
C2413 C2407 1.491 . S
C2413 C2412 1.400 . S
C2413 C2414 1.398 . S
C2414 H2402 0.950 . S
C2414 C2413 1.398 . S
C2414 C2415 1.391 . S
C2415 H2403 0.950 . S
C2415 C2411 1.393 . S
C2415 C2414 1.391 . S
H2416 C2424 0.950 . S
H2417 C2429 0.950 . S
H2418 C2426 0.950 . S
H2419 C2428 0.950 . S
H2420 C2430 0.950 . S
H2421 C2432 0.950 . S
H2422 C2434 0.950 . S
H2423 C2435 0.950 . S
C2424 H2416 0.950 . S
C2424 C2425 1.386 . S
C2424 C2426 1.391 . S
C2425 C2424 1.386 . S
C2425 C2429 1.393 . S
C2426 H2418 0.950 . S
C2426 C2424 1.391 . S
C2426 C2427 1.400 . S
C2427 C2426 1.400 . S
C2427 C2428 1.398 . S
C2427 C2433 1.491 . S
C2428 H2419 0.950 . S
C2428 C2427 1.398 . S
C2428 C2429 1.391 . S
C2429 H2417 0.950 . S
C2429 C2425 1.393 . S
C2429 C2428 1.391 . S
C2430 H2420 0.950 . S
C2430 C2431 1.386 . S
C2430 C2432 1.391 . S
C2431 C2430 1.386 . S
C2431 C2435 1.393 . S
C2432 H2421 0.950 . S
C2432 C2430 1.391 . S
C2432 C2433 1.400 . S
C2433 C2427 1.491 . S
C2433 C2432 1.400 . S
C2433 C2434 1.398 . S
C2434 H2422 0.950 . S
C2434 C2433 1.398 . S
C2434 C2435 1.391 . S
C2435 H2423 0.950 . S
C2435 C2431 1.393 . S
C2435 C2434 1.391 . S
H2436 C2444 0.950 . S
H2437 C2449 0.950 . S
H2438 C2446 0.950 . S
H2439 C2448 0.950 . S
H2440 C2450 0.950 . S
H2441 C2452 0.950 . S
H2442 C2454 0.950 . S
H2443 C2455 0.950 . S
C2444 H2436 0.950 . S
C2444 C2445 1.386 . S
C2444 C2446 1.391 . S
C2445 C2444 1.386 . S
C2445 C2449 1.393 . S
C2446 H2438 0.950 . S
C2446 C2444 1.391 . S
C2446 C2447 1.400 . S
C2447 C2446 1.400 . S
C2447 C2448 1.398 . S
C2447 C2453 1.491 . S
C2448 H2439 0.950 . S
C2448 C2447 1.398 . S
C2448 C2449 1.391 . S
C2449 H2437 0.950 . S
C2449 C2445 1.393 . S
C2449 C2448 1.391 . S
C2450 H2440 0.950 . S
C2450 C2451 1.386 . S
C2450 C2452 1.391 . S
C2451 C2450 1.386 . S
C2451 C2455 1.393 . S
C2452 H2441 0.950 . S
C2452 C2450 1.391 . S
C2452 C2453 1.400 . S
C2453 C2447 1.491 . S
C2453 C2452 1.400 . S
C2453 C2454 1.398 . S
C2454 H2442 0.950 . S
C2454 C2453 1.398 . S
C2454 C2455 1.391 . S
C2455 H2443 0.950 . S
C2455 C2451 1.393 . S
C2455 C2454 1.391 . S
H2456 C2464 0.950 . S
H2457 C2469 0.950 . S
H2458 C2466 0.950 . S
H2459 C2468 0.950 . S
H2460 C2470 0.950 . S
H2461 C2472 0.950 . S
H2462 C2474 0.950 . S
H2463 C2475 0.950 . S
C2464 H2456 0.950 . S
C2464 C2465 1.386 . S
C2464 C2466 1.391 . S
C2465 C2464 1.386 . S
C2465 C2469 1.393 . S
C2466 H2458 0.950 . S
C2466 C2464 1.391 . S
C2466 C2467 1.400 . S
C2467 C2466 1.400 . S
C2467 C2468 1.398 . S
C2467 C2473 1.491 1_655 S
C2468 H2459 0.950 . S
C2468 C2467 1.398 . S
C2468 C2469 1.391 . S
C2469 H2457 0.950 . S
C2469 C2465 1.393 . S
C2469 C2468 1.391 . S
C2470 H2460 0.950 . S
C2470 C2471 1.386 . S
C2470 C2472 1.391 . S
C2471 C2470 1.386 . S
C2471 C2475 1.393 . S
C2472 H2461 0.950 . S
C2472 C2470 1.391 . S
C2472 C2473 1.400 . S
C2473 C2467 1.491 1_455 S
C2473 C2472 1.400 . S
C2473 C2474 1.398 . S
C2474 H2462 0.950 . S
C2474 C2473 1.398 . S
C2474 C2475 1.391 . S
C2475 H2463 0.950 . S
C2475 C2471 1.393 . S
C2475 C2474 1.391 . S
H2476 C2484 0.950 . S
H2477 C2489 0.950 . S
H2478 C2486 0.950 . S
H2479 C2488 0.950 . S
H2480 C2490 0.950 . S
H2481 C2492 0.950 . S
H2482 C2494 0.950 . S
H2483 C2495 0.950 . S
C2484 H2476 0.950 . S
C2484 C2485 1.386 1_455 S
C2484 C2486 1.391 . S
C2485 C2484 1.386 1_655 S
C2485 C2489 1.393 . S
C2486 H2478 0.950 . S
C2486 C2484 1.391 . S
C2486 C2487 1.400 1_455 S
C2487 C2486 1.400 1_655 S
C2487 C2488 1.398 . S
C2487 C2493 1.491 1_655 S
C2488 H2479 0.950 . S
C2488 C2487 1.398 . S
C2488 C2489 1.391 . S
C2489 H2477 0.950 . S
C2489 C2485 1.393 . S
C2489 C2488 1.391 . S
C2490 H2480 0.950 . S
C2490 C2491 1.386 1_655 S
C2490 C2492 1.391 . S
C2491 C2490 1.386 1_455 S
C2491 C2495 1.393 . S
C2492 H2481 0.950 . S
C2492 C2490 1.391 . S
C2492 C2493 1.400 1_655 S
C2493 C2487 1.491 1_455 S
C2493 C2492 1.400 1_455 S
C2493 C2494 1.398 . S
C2494 H2482 0.950 . S
C2494 C2493 1.398 . S
C2494 C2495 1.391 . S
C2495 H2483 0.950 . S
C2495 C2491 1.393 . S
C2495 C2494 1.391 . S
H2496 C2504 0.950 . S
H2497 C2509 0.950 . S
H2498 C2506 0.950 . S
H2499 C2508 0.950 . S
H2500 C2510 0.950 . S
H2501 C2512 0.950 . S
H2502 C2514 0.950 . S
H2503 C2515 0.950 . S
C2504 H2496 0.950 . S
C2504 C2505 1.386 . S
C2504 C2506 1.391 . S
C2505 C2504 1.386 . S
C2505 C2509 1.393 . S
C2506 H2498 0.950 . S
C2506 C2504 1.391 . S
C2506 C2507 1.400 . S
C2507 C2506 1.400 . S
C2507 C2508 1.398 . S
C2507 C2513 1.491 . S
C2508 H2499 0.950 . S
C2508 C2507 1.398 . S
C2508 C2509 1.391 . S
C2509 H2497 0.950 . S
C2509 C2505 1.393 . S
C2509 C2508 1.391 . S
C2510 H2500 0.950 . S
C2510 C2511 1.386 . S
C2510 C2512 1.391 . S
C2511 C2510 1.386 . S
C2511 C2515 1.393 . S
C2512 H2501 0.950 . S
C2512 C2510 1.391 . S
C2512 C2513 1.400 . S
C2513 C2507 1.491 . S
C2513 C2512 1.400 . S
C2513 C2514 1.398 . S
C2514 H2502 0.950 . S
C2514 C2513 1.398 . S
C2514 C2515 1.391 . S
C2515 H2503 0.950 . S
C2515 C2511 1.393 . S
C2515 C2514 1.391 . S
H2516 C2524 0.950 . S
H2517 C2529 0.950 . S
H2518 C2526 0.950 . S
H2519 C2528 0.950 . S
H2520 C2530 0.950 . S
H2521 C2532 0.950 . S
H2522 C2534 0.950 . S
H2523 C2535 0.950 . S
C2524 H2516 0.950 . S
C2524 C2525 1.386 . S
C2524 C2526 1.391 . S
C2525 C2524 1.386 . S
C2525 C2529 1.393 1_455 S
C2526 H2518 0.950 . S
C2526 C2524 1.391 . S
C2526 C2527 1.400 . S
C2527 C2526 1.400 . S
C2527 C2528 1.398 1_455 S
C2527 C2533 1.491 1_455 S
C2528 H2519 0.950 . S
C2528 C2527 1.398 1_655 S
C2528 C2529 1.391 . S
C2529 H2517 0.950 . S
C2529 C2525 1.393 1_655 S
C2529 C2528 1.391 . S
C2530 H2520 0.950 . S
C2530 C2531 1.386 . S
C2530 C2532 1.391 . S
C2531 C2530 1.386 . S
C2531 C2535 1.393 1_655 S
C2532 H2521 0.950 . S
C2532 C2530 1.391 . S
C2532 C2533 1.400 . S
C2533 C2527 1.491 1_655 S
C2533 C2532 1.400 . S
C2533 C2534 1.398 1_655 S
C2534 H2522 0.950 . S
C2534 C2533 1.398 1_455 S
C2534 C2535 1.391 . S
C2535 H2523 0.950 . S
C2535 C2531 1.393 1_455 S
C2535 C2534 1.391 . S
H2536 C2544 0.950 . S
H2537 C2549 0.950 . S
H2538 C2546 0.950 . S
H2539 C2548 0.950 . S
H2540 C2550 0.950 . S
H2541 C2552 0.950 . S
H2542 C2554 0.950 . S
H2543 C2555 0.950 . S
C2544 H2536 0.950 . S
C2544 C2545 1.386 . S
C2544 C2546 1.391 . S
C2545 C2544 1.386 . S
C2545 C2549 1.393 . S
C2546 H2538 0.950 . S
C2546 C2544 1.391 . S
C2546 C2547 1.400 . S
C2547 C2546 1.400 . S
C2547 C2548 1.398 . S
C2547 C2553 1.491 1_655 S
C2548 H2539 0.950 . S
C2548 C2547 1.398 . S
C2548 C2549 1.391 . S
C2549 H2537 0.950 . S
C2549 C2545 1.393 . S
C2549 C2548 1.391 . S
C2550 H2540 0.950 . S
C2550 C2551 1.386 . S
C2550 C2552 1.391 . S
C2551 C2550 1.386 . S
C2551 C2555 1.393 . S
C2552 H2541 0.950 . S
C2552 C2550 1.391 . S
C2552 C2553 1.400 . S
C2553 C2547 1.491 1_455 S
C2553 C2552 1.400 . S
C2553 C2554 1.398 . S
C2554 H2542 0.950 . S
C2554 C2553 1.398 . S
C2554 C2555 1.391 . S
C2555 H2543 0.950 . S
C2555 C2551 1.393 . S
C2555 C2554 1.391 . S
H2556 C2564 0.950 . S
H2557 C2569 0.950 . S
H2558 C2566 0.950 . S
H2559 C2568 0.950 . S
H2560 C2570 0.950 . S
H2561 C2572 0.950 . S
H2562 C2574 0.950 . S
H2563 C2575 0.950 . S
C2564 H2556 0.950 . S
C2564 C2565 1.386 . S
C2564 C2566 1.391 . S
C2565 C2564 1.386 . S
C2565 C2569 1.393 . S
C2566 H2558 0.950 . S
C2566 C2564 1.391 . S
C2566 C2567 1.400 . S
C2567 C2566 1.400 . S
C2567 C2568 1.398 . S
C2567 C2573 1.491 . S
C2568 H2559 0.950 . S
C2568 C2567 1.398 . S
C2568 C2569 1.391 . S
C2569 H2557 0.950 . S
C2569 C2565 1.393 . S
C2569 C2568 1.391 . S
C2570 H2560 0.950 . S
C2570 C2571 1.386 . S
C2570 C2572 1.391 . S
C2571 C2570 1.386 . S
C2571 C2575 1.393 . S
C2572 H2561 0.950 . S
C2572 C2570 1.391 . S
C2572 C2573 1.400 . S
C2573 C2567 1.491 . S
C2573 C2572 1.400 . S
C2573 C2574 1.398 . S
C2574 H2562 0.950 . S
C2574 C2573 1.398 . S
C2574 C2575 1.391 . S
C2575 H2563 0.950 . S
C2575 C2571 1.393 . S
C2575 C2574 1.391 . S
H2576 C2584 0.950 . S
H2577 C2589 0.950 . S
H2578 C2586 0.950 . S
H2579 C2588 0.950 . S
H2580 C2590 0.950 . S
H2581 C2592 0.950 . S
H2582 C2594 0.950 . S
H2583 C2595 0.950 . S
C2584 H2576 0.950 . S
C2584 C2585 1.386 . S
C2584 C2586 1.391 . S
C2585 C2584 1.386 . S
C2585 C2589 1.393 . S
C2586 H2578 0.950 . S
C2586 C2584 1.391 . S
C2586 C2587 1.400 . S
C2587 C2586 1.400 . S
C2587 C2588 1.398 . S
C2587 C2593 1.491 . S
C2588 H2579 0.950 . S
C2588 C2587 1.398 . S
C2588 C2589 1.391 . S
C2589 H2577 0.950 . S
C2589 C2585 1.393 . S
C2589 C2588 1.391 . S
C2590 H2580 0.950 . S
C2590 C2591 1.386 . S
C2590 C2592 1.391 . S
C2591 C2590 1.386 . S
C2591 C2595 1.393 . S
C2592 H2581 0.950 . S
C2592 C2590 1.391 . S
C2592 C2593 1.400 . S
C2593 C2587 1.491 . S
C2593 C2592 1.400 . S
C2593 C2594 1.398 . S
C2594 H2582 0.950 . S
C2594 C2593 1.398 . S
C2594 C2595 1.391 . S
C2595 H2583 0.950 . S
C2595 C2591 1.393 . S
C2595 C2594 1.391 . S
H2596 C2604 0.950 . S
H2597 C2609 0.950 . S
H2598 C2606 0.950 . S
H2599 C2608 0.950 . S
H2600 C2610 0.950 . S
H2601 C2612 0.950 . S
H2602 C2614 0.950 . S
H2603 C2615 0.950 . S
C2604 H2596 0.950 . S
C2604 C2605 1.386 . S
C2604 C2606 1.391 . S
C2605 C2604 1.386 . S
C2605 C2609 1.393 . S
C2606 H2598 0.950 . S
C2606 C2604 1.391 . S
C2606 C2607 1.400 . S
C2607 C2606 1.400 . S
C2607 C2608 1.398 . S
C2607 C2613 1.491 . S
C2608 H2599 0.950 . S
C2608 C2607 1.398 . S
C2608 C2609 1.391 . S
C2609 H2597 0.950 . S
C2609 C2605 1.393 . S
C2609 C2608 1.391 . S
C2610 H2600 0.950 . S
C2610 C2611 1.386 . S
C2610 C2612 1.391 . S
C2611 C2610 1.386 . S
C2611 C2615 1.393 . S
C2612 H2601 0.950 . S
C2612 C2610 1.391 . S
C2612 C2613 1.400 . S
C2613 C2607 1.491 . S
C2613 C2612 1.400 . S
C2613 C2614 1.398 . S
C2614 H2602 0.950 . S
C2614 C2613 1.398 . S
C2614 C2615 1.391 . S
C2615 H2603 0.950 . S
C2615 C2611 1.393 . S
C2615 C2614 1.391 . S
H2616 C2624 0.950 . S
H2617 C2629 0.950 . S
H2618 C2626 0.950 . S
H2619 C2628 0.950 . S
H2620 C2630 0.950 . S
H2621 C2632 0.950 . S
H2622 C2634 0.950 . S
H2623 C2635 0.950 . S
C2624 H2616 0.950 . S
C2624 C2625 1.386 . S
C2624 C2626 1.391 . S
C2625 C2624 1.386 . S
C2625 C2629 1.393 . S
C2626 H2618 0.950 . S
C2626 C2624 1.391 . S
C2626 C2627 1.400 . S
C2627 C2626 1.400 . S
C2627 C2628 1.398 . S
C2627 C2633 1.491 1_455 S
C2628 H2619 0.950 . S
C2628 C2627 1.398 . S
C2628 C2629 1.391 . S
C2629 H2617 0.950 . S
C2629 C2625 1.393 . S
C2629 C2628 1.391 . S
C2630 H2620 0.950 . S
C2630 C2631 1.386 . S
C2630 C2632 1.391 . S
C2631 C2630 1.386 . S
C2631 C2635 1.393 . S
C2632 H2621 0.950 . S
C2632 C2630 1.391 . S
C2632 C2633 1.400 . S
C2633 C2627 1.491 1_655 S
C2633 C2632 1.400 . S
C2633 C2634 1.398 . S
C2634 H2622 0.950 . S
C2634 C2633 1.398 . S
C2634 C2635 1.391 . S
C2635 H2623 0.950 . S
C2635 C2631 1.393 . S
C2635 C2634 1.391 . S
H2636 C2644 0.950 . S
H2637 C2649 0.950 . S
H2638 C2646 0.950 . S
H2639 C2648 0.950 . S
H2640 C2650 0.950 . S
H2641 C2652 0.950 . S
H2642 C2654 0.950 . S
H2643 C2655 0.950 . S
C2644 H2636 0.950 . S
C2644 C2645 1.386 . S
C2644 C2646 1.391 . S
C2645 C2644 1.386 . S
C2645 C2649 1.393 . S
C2646 H2638 0.950 . S
C2646 C2644 1.391 . S
C2646 C2647 1.400 . S
C2647 C2646 1.400 . S
C2647 C2648 1.398 1_455 S
C2647 C2653 1.491 1_455 S
C2648 H2639 0.950 . S
C2648 C2647 1.398 1_655 S
C2648 C2649 1.391 1_655 S
C2649 H2637 0.950 . S
C2649 C2645 1.393 . S
C2649 C2648 1.391 1_455 S
C2650 H2640 0.950 . S
C2650 C2651 1.386 . S
C2650 C2652 1.391 . S
C2651 C2650 1.386 . S
C2651 C2655 1.393 . S
C2652 H2641 0.950 . S
C2652 C2650 1.391 . S
C2652 C2653 1.400 . S
C2653 C2647 1.491 1_655 S
C2653 C2652 1.400 . S
C2653 C2654 1.398 1_655 S
C2654 H2642 0.950 . S
C2654 C2653 1.398 1_455 S
C2654 C2655 1.391 1_455 S
C2655 H2643 0.950 . S
C2655 C2651 1.393 . S
C2655 C2654 1.391 1_655 S
C1065 C18 1.404 . S
C1071 C249 1.388 . S
C1085 C51 1.391 . S
C1091 C150 1.406 . S
C1105 C84 1.400 . S
C1111 C183 1.387 . S
C1125 C117 1.387 . S
C1131 C216 1.402 . S
C1145 C513 1.406 . S
C1151 C282 1.392 . S
C1165 C315 1.406 . S
C1171 C414 1.397 . S
C1185 C447 1.398 . S
C1191 C348 1.387 . S
C1205 C381 1.406 . S
C1211 C480 1.394 . S
C1225 C546 1.393 . S
C1231 C777 1.406 . S
C1245 C678 1.390 . S
C1251 C579 1.406 . S
C1265 C612 1.406 . S
C1271 C711 1.390 . S
C1285 C645 1.388 . S
C1291 C744 1.395 . S
C1305 C810 1.387 . S
C1311 C1041 1.401 . S
C1325 C843 1.394 . S
C1331 C942 1.406 . S
C1345 C975 1.405 . S
C1351 C876 1.389 . S
C1365 C1008 1.394 . S
C1371 C909 1.389 . S
C1385 C205 1.546 . S
C1391 C7 1.548 . S
C1405 C40 1.550 . S
C1411 C238 1.548 . S
C1425 C73 1.535 . S
C1431 C139 1.536 . S
C1445 C106 1.537 . S
C1451 C172 1.535 . S
C1465 C271 1.538 . S
C1471 C469 1.536 . S
C1485 C502 1.555 . S
C1491 C304 1.554 . S
C1505 C403 1.553 . S
C1511 C337 1.552 . S
C1525 C436 1.555 . S
C1531 C370 1.553 . S
C1545 C535 1.547 . S
C1551 C733 1.549 . S
C1565 C766 1.534 . S
C1571 C568 1.535 . S
C1585 C667 1.543 . S
C1591 C601 1.545 . S
C1605 C634 1.548 . S
C1611 C700 1.550 . S
C1625 C997 1.534 . S
C1631 C799 1.533 . S
C1645 C832 1.534 . S
C1651 C1030 1.534 . S
C1665 C931 1.541 . S
C1671 C865 1.543 . S
C1685 C964 1.554 . S
C1691 C898 1.555 . S
C1705 N926 1.289 . S
C1711 N13 1.292 . S
C1725 N431 1.305 . S
C1731 N46 1.307 . S
C1745 N992 1.301 . S
C1751 N79 1.300 . S
C1765 N112 1.302 . S
C1771 N497 1.299 . S
C1785 N794 1.299 . S
C1791 N145 1.302 . S
C1805 N299 1.289 . S
C1811 N178 1.290 . S
C1825 N860 1.307 . S
C1831 N211 1.309 . S
C1845 N244 1.292 . S
C1851 N365 1.292 . S
C1865 N277 1.295 . S
C1871 N662 1.295 . S
C1885 N310 1.309 . S
C1891 N167 1.307 . S
C1905 N343 1.308 . S
C1911 N728 1.308 . S
C1925 N233 1.308 . S
C1931 N376 1.309 . S
C1945 N530 1.295 . S
C1951 N409 1.295 . S
C1965 N442 1.296 . S
C1971 N35 1.293 . S
C1985 N475 1.290 . S
C1991 N596 1.288 . S
C2005 N508 1.299 . S
C2011 N101 1.296 . S
C2025 N398 1.305 . S
C2031 N541 1.307 . S
C2045 N574 1.292 . S
C2051 N959 1.291 . S
C2065 N464 1.308 . S
C2071 N607 1.309 . S
C2085 N640 1.305 . S
C2091 N1025 1.303 . S
C2105 N673 1.291 . S
C2111 N266 1.291 . S
C2125 N706 1.291 . S
C2131 N827 1.289 . S
C2145 N332 1.288 . S
C2151 N739 1.290 . S
C2165 N772 1.303 . S
C2171 N893 1.304 . S
C2185 N134 1.305 . S
C2191 N805 1.308 . S
C2205 N695 1.300 . S
C2211 N838 1.299 . S
C2225 N200 1.308 . S
C2231 N871 1.309 . S
C2245 N761 1.300 . S
C2251 N904 1.299 . S
C2265 N2 1.301 . S
C2271 N937 1.301 . S
C2285 N563 1.289 . S
C2291 N970 1.290 . S
C2305 N1003 1.291 . S
C2311 N68 1.289 . S
C2325 N629 1.294 . S
C2331 N1036 1.297 . S
C2345 C615 0.929 . S
C2351 C21 0.924 . S
C2365 C648 0.915 . S
C2371 C54 0.928 . S
C2385 C87 0.930 . S
C2391 C549 0.920 . S
C2405 C120 0.927 . S
C2411 C582 0.927 . S
C2425 C747 0.930 . S
C2431 C153 0.919 . S
C2445 C186 0.931 . S
C2451 C780 0.921 . S
C2465 C681 0.930 . S
C2471 C219 0.923 . S
C2485 C714 0.930 . S
C2491 C252 0.919 . S
C2505 C879 0.927 . S
C2511 C285 0.927 . S
C2525 C912 0.930 . S
C2531 C318 0.917 . S
C2545 C351 0.927 . S
C2551 C813 0.927 . S
C2565 C384 0.920 . S
C2571 C846 0.931 . S
C2585 C417 0.925 . S
C2591 C1011 0.914 . S
C2605 C450 0.926 . S
C2611 C1044 0.915 . S
C2625 C945 0.917 . S
C2631 C483 0.919 . S
C2645 C978 0.920 . S
C2651 C516 0.917 . S
