# Generated by pormake.
# Topology uop, (4)-cn, num edge types: 1
# Building blocks:
#     Node 0, Type 0, BuildingBlock: KOZSID_clean_sbu_0, # of connection points: 4
#     Node 1, Type 0, BuildingBlock: KOZSID_clean_sbu_0, # of connection points: 4
#     Node 2, Type 0, BuildingBlock: KOZSID_clean_sbu_0, # of connection points: 4
#     Node 3, Type 0, BuildingBlock: KOZSID_clean_sbu_0, # of connection points: 4
#     Node 4, Type 0, BuildingBlock: KOZSID_clean_sbu_0, # of connection points: 4
#     Node 5, Type 0, BuildingBlock: KOZSID_clean_sbu_0, # of connection points: 4
#     Node 6, Type 0, BuildingBlock: KOZSID_clean_sbu_0, # of connection points: 4
#     Node 7, Type 0, BuildingBlock: KOZSID_clean_sbu_0, # of connection points: 4
#     Node 8, Type 0, BuildingBlock: KOZSID_clean_sbu_0, # of connection points: 4
#     Node 9, Type 0, BuildingBlock: KOZSID_clean_sbu_0, # of connection points: 4
#     Node 10, Type 0, BuildingBlock: KOZSID_clean_sbu_0, # of connection points: 4
#     Node 11, Type 0, BuildingBlock: KOZSID_clean_sbu_0, # of connection points: 4
#     Edge 12, Type (0, 0), BuildingBlock: UVAHIK_clean_linker_0, # of connection points: 2
#     Edge 13, Type (0, 0), BuildingBlock: UVAHIK_clean_linker_0, # of connection points: 2
#     Edge 14, Type (0, 0), BuildingBlock: UVAHIK_clean_linker_0, # of connection points: 2
#     Edge 15, Type (0, 0), BuildingBlock: UVAHIK_clean_linker_0, # of connection points: 2
#     Edge 16, Type (0, 0), BuildingBlock: UVAHIK_clean_linker_0, # of connection points: 2
#     Edge 17, Type (0, 0), BuildingBlock: UVAHIK_clean_linker_0, # of connection points: 2
#     Edge 18, Type (0, 0), BuildingBlock: UVAHIK_clean_linker_0, # of connection points: 2
#     Edge 19, Type (0, 0), BuildingBlock: UVAHIK_clean_linker_0, # of connection points: 2
#     Edge 20, Type (0, 0), BuildingBlock: UVAHIK_clean_linker_0, # of connection points: 2
#     Edge 21, Type (0, 0), BuildingBlock: UVAHIK_clean_linker_0, # of connection points: 2
#     Edge 22, Type (0, 0), BuildingBlock: UVAHIK_clean_linker_0, # of connection points: 2
#     Edge 23, Type (0, 0), BuildingBlock: UVAHIK_clean_linker_0, # of connection points: 2
#     Edge 24, Type (0, 0), BuildingBlock: UVAHIK_clean_linker_0, # of connection points: 2
#     Edge 25, Type (0, 0), BuildingBlock: UVAHIK_clean_linker_0, # of connection points: 2
#     Edge 26, Type (0, 0), BuildingBlock: UVAHIK_clean_linker_0, # of connection points: 2
#     Edge 27, Type (0, 0), BuildingBlock: UVAHIK_clean_linker_0, # of connection points: 2
#     Edge 28, Type (0, 0), BuildingBlock: UVAHIK_clean_linker_0, # of connection points: 2
#     Edge 29, Type (0, 0), BuildingBlock: UVAHIK_clean_linker_0, # of connection points: 2
#     Edge 30, Type (0, 0), BuildingBlock: UVAHIK_clean_linker_0, # of connection points: 2
#     Edge 31, Type (0, 0), BuildingBlock: UVAHIK_clean_linker_0, # of connection points: 2
#     Edge 32, Type (0, 0), BuildingBlock: UVAHIK_clean_linker_0, # of connection points: 2
#     Edge 33, Type (0, 0), BuildingBlock: UVAHIK_clean_linker_0, # of connection points: 2
#     Edge 34, Type (0, 0), BuildingBlock: UVAHIK_clean_linker_0, # of connection points: 2
#     Edge 35, Type (0, 0), BuildingBlock: UVAHIK_clean_linker_0, # of connection points: 2
# Relax obj value: 0.066
# Max RMSD: 0.262
# Mean RMSD: 0.244
data_MOF--net-uop--node1-KOZSID_clean_sbu_0--edge1-UVAHIK_clean_linker_0
_symmetry_space_group_name_H-M    P1
_symmetry_Int_Tables_number       1
_symmetry_cell_setting            triclinic
loop_
_symmetry_equiv_pos_as_xyz
'x, y, z'
_cell_length_a     49.564583
_cell_length_b     48.004721
_cell_length_c     81.327477
_cell_angle_alpha  89.989744
_cell_angle_beta   90.059024
_cell_angle_gamma 121.03443
loop_
_atom_site_label
_atom_site_type_symbol
_atom_site_fract_x
_atom_site_fract_y
_atom_site_fract_z
_atom_type_partial_charge
C0 C 0.33643 0.43519 0.21065 0.0
C1 C 0.35522 0.42883 0.20054 0.0
C2 C 0.33659 0.41026 0.18782 0.0
C3 C 0.30762 0.40634 0.19086 0.0
N4 N 0.30671 0.42127 0.20468 0.0
Co5 Co 0.26927 0.42141 0.2135 0.0
N6 N 0.23977 0.38402 0.19918 0.0
C7 C 0.24833 0.37201 0.18656 0.0
C8 C 0.22347 0.3469 0.17847 0.0
C9 C 0.19733 0.34305 0.18616 0.0
C10 C 0.20773 0.36624 0.1986 0.0
N11 N 0.23169 0.4221 0.2219 0.0
C12 C 0.20035 0.40189 0.21888 0.0
C13 C 0.18274 0.41322 0.22642 0.0
C14 C 0.20366 0.44195 0.23393 0.0
C15 C 0.23283 0.44655 0.23066 0.0
N16 N 0.29895 0.4583 0.22788 0.0
C17 C 0.29245 0.47861 0.23592 0.0
C18 C 0.31747 0.50161 0.245 0.0
C19 C 0.34127 0.4954 0.24248 0.0
C20 C 0.32938 0.4689 0.23198 0.0
N21 N 0.27396 0.45272 0.19631 0.0
C22 C 0.27712 0.50545 0.17928 0.0
C23 C 0.30432 0.50766 0.18592 0.0
C24 C 0.30228 0.48099 0.19422 0.0
C25 C 0.24909 0.47514 0.17988 0.0
C26 C 0.24808 0.44918 0.18829 0.0
N27 N 0.26518 0.39136 0.23128 0.0
C28 C 0.26108 0.38068 0.26051 0.0
C29 C 0.27069 0.35809 0.25859 0.0
C30 C 0.27612 0.35143 0.24248 0.0
C31 C 0.27282 0.36797 0.229 0.0
C32 C 0.25861 0.39693 0.24687 0.0
H33 H 0.27758 0.36265 0.21683 0.0
H34 H 0.25285 0.41527 0.2492 0.0
H35 H 0.32335 0.48406 0.19985 0.0
H36 H 0.22578 0.42692 0.18902 0.0
C37 C 0.27989 0.3841 0.18294 0.0
C38 C 0.34807 0.45566 0.22535 0.0
C39 C 0.18655 0.37409 0.20741 0.0
C40 C 0.26158 0.47234 0.23645 0.0
H41 H 0.37977 0.43656 0.20222 0.0
H42 H 0.343 0.39956 0.178 0.0
H43 H 0.22422 0.33332 0.16803 0.0
H44 H 0.17339 0.32611 0.18239 0.0
H45 H 0.15744 0.4024 0.22603 0.0
H46 H 0.19822 0.45768 0.24087 0.0
H47 H 0.31805 0.52001 0.25294 0.0
H48 H 0.36469 0.50885 0.24771 0.0
H49 H 0.32671 0.53035 0.1856 0.0
H50 H 0.22766 0.4717 0.17439 0.0
H51 H 0.2569 0.38705 0.27262 0.0
H52 H 0.28317 0.33383 0.2403 0.0
C53 C 0.91314 0.32634 0.55275 0.0
C54 C 0.93883 0.34698 0.543 0.0
C55 C 0.93906 0.32884 0.53015 0.0
C56 C 0.91372 0.29824 0.53276 0.0
N57 N 0.89736 0.29573 0.54646 0.0
Co58 Co 0.85937 0.25521 0.55471 0.0
N59 N 0.86625 0.22693 0.53923 0.0
C60 C 0.88768 0.23752 0.52703 0.0
C61 C 0.88784 0.21306 0.51843 0.0
C62 C 0.86457 0.185 0.52535 0.0
C63 C 0.8512 0.19396 0.53771 0.0
N64 N 0.82066 0.21449 0.56246 0.0
C65 C 0.80852 0.1826 0.55829 0.0
C66 C 0.77932 0.16296 0.56553 0.0
C67 C 0.77256 0.18305 0.5742 0.0
C68 C 0.79785 0.2138 0.5718 0.0
N69 N 0.85312 0.28359 0.57033 0.0
C70 C 0.82672 0.27467 0.57893 0.0
C71 C 0.82894 0.29916 0.58866 0.0
C72 C 0.85859 0.3253 0.58596 0.0
C73 C 0.87286 0.31526 0.57471 0.0
N74 N 0.83299 0.26063 0.5383 0.0
C75 C 0.78315 0.26366 0.5234 0.0
C76 C 0.80877 0.2913 0.53057 0.0
C77 C 0.83361 0.28943 0.53758 0.0
C78 C 0.78522 0.23561 0.5222 0.0
C79 C 0.81017 0.23459 0.52971 0.0
N80 N 0.88519 0.25058 0.57182 0.0
C81 C 0.89226 0.24576 0.60089 0.0
C82 C 0.92469 0.25916 0.59884 0.0
C83 C 0.93655 0.26607 0.5827 0.0
C84 C 0.91637 0.26113 0.56937 0.0
C85 C 0.87315 0.24177 0.58737 0.0
H86 H 0.92638 0.26735 0.55722 0.0
H87 H 0.84889 0.23343 0.58985 0.0
H88 H 0.85215 0.31088 0.54348 0.0
H89 H 0.80976 0.21204 0.5293 0.0
C90 C 0.90804 0.27056 0.52432 0.0
C91 C 0.90398 0.3373 0.5674 0.0
C92 C 0.82173 0.17036 0.54596 0.0
C93 C 0.8018 0.24235 0.57876 0.0
H94 H 0.95582 0.37248 0.54502 0.0
H95 H 0.9565 0.33667 0.52049 0.0
H96 H 0.90292 0.21535 0.50826 0.0
H97 H 0.85742 0.16066 0.52132 0.0
H98 H 0.76396 0.13694 0.56419 0.0
H99 H 0.75152 0.17607 0.58128 0.0
H100 H 0.81133 0.29801 0.59695 0.0
H101 H 0.86846 0.34915 0.59143 0.0
H102 H 0.80904 0.31388 0.53176 0.0
H103 H 0.76712 0.21398 0.51606 0.0
H104 H 0.88182 0.24013 0.61303 0.0
H105 H 0.96136 0.27585 0.58041 0.0
C106 C 0.64145 0.85608 0.94704 0.0
C107 C 0.64392 0.84794 0.96311 0.0
C108 C 0.6241 0.81487 0.96439 0.0
C109 C 0.61075 0.80477 0.94908 0.0
N110 N 0.62112 0.82942 0.93831 0.0
Co111 Co 0.6075 0.82635 0.9152 0.0
N112 N 0.56775 0.78488 0.91948 0.0
C113 C 0.56234 0.76499 0.93235 0.0
C114 C 0.533 0.73744 0.93194 0.0
C115 C 0.51925 0.73999 0.91784 0.0
C116 C 0.54107 0.76912 0.91038 0.0
N117 N 0.59415 0.82302 0.89196 0.0
C118 C 0.56551 0.80359 0.88495 0.0
C119 C 0.5671 0.80853 0.86807 0.0
C120 C 0.5979 0.83134 0.86448 0.0
C121 C 0.61345 0.83922 0.8793 0.0
N122 N 0.6472 0.86811 0.91138 0.0
C123 C 0.66103 0.87983 0.89677 0.0
C124 C 0.68737 0.91044 0.89813 0.0
C125 C 0.68997 0.9182 0.91462 0.0
C126 C 0.66501 0.89187 0.9224 0.0
N127 N 0.62856 0.80214 0.90925 0.0
C128 C 0.66099 0.77371 0.89525 0.0
C129 C 0.67634 0.80065 0.90585 0.0
C130 C 0.65965 0.81417 0.91289 0.0
C131 C 0.6287 0.76049 0.89256 0.0
C132 C 0.61309 0.77499 0.89955 0.0
N133 N 0.58694 0.85099 0.92046 0.0
C134 C 0.57922 0.89505 0.91327 0.0
C135 C 0.56118 0.89007 0.9274 0.0
C136 C 0.55643 0.86491 0.93813 0.0
C137 C 0.5694 0.84553 0.93439 0.0
C138 C 0.59158 0.87539 0.91002 0.0
H139 H 0.56551 0.82634 0.94277 0.0
H140 H 0.60548 0.88049 0.89908 0.0
H141 H 0.67222 0.83514 0.92078 0.0
H142 H 0.5887 0.7649 0.89639 0.0
C143 C 0.58366 0.77487 0.94551 0.0
C144 C 0.65901 0.88899 0.94023 0.0
C145 C 0.53722 0.7787 0.89375 0.0
C146 C 0.6446 0.86479 0.88218 0.0
H147 H 0.65809 0.86423 0.97289 0.0
H148 H 0.61858 0.80036 0.97544 0.0
H149 H 0.52262 0.71807 0.94093 0.0
H150 H 0.49615 0.72195 0.91335 0.0
H151 H 0.5481 0.79665 0.85926 0.0
H152 H 0.60753 0.84159 0.85254 0.0
H153 H 0.70186 0.92608 0.88825 0.0
H154 H 0.70785 0.94067 0.92023 0.0
H155 H 0.70115 0.81145 0.90857 0.0
H156 H 0.61571 0.73986 0.88444 0.0
H157 H 0.58441 0.91457 0.90478 0.0
H158 H 0.5426 0.86003 0.94921 0.0
C159 C 0.6863 0.56887 0.20762 0.0
C160 C 0.66808 0.57509 0.19691 0.0
C161 C 0.68818 0.60303 0.18866 0.0
C162 C 0.71745 0.61238 0.19468 0.0
N163 N 0.71732 0.5918 0.206 0.0
Co164 Co 0.75509 0.59733 0.21783 0.0
N165 N 0.78433 0.63165 0.20225 0.0
C166 C 0.77699 0.64887 0.19207 0.0
C167 C 0.80177 0.6705 0.18248 0.0
C168 C 0.82631 0.66664 0.18683 0.0
C169 C 0.81508 0.64285 0.19894 0.0
N170 N 0.79321 0.60243 0.22895 0.0
C171 C 0.8231 0.61539 0.22315 0.0
C172 C 0.84232 0.61322 0.23482 0.0
C173 C 0.82376 0.59832 0.24834 0.0
C174 C 0.79429 0.59226 0.2442 0.0
N175 N 0.72591 0.5639 0.23381 0.0
C176 C 0.73443 0.55827 0.24862 0.0
C177 C 0.70936 0.5354 0.25765 0.0
C178 C 0.68335 0.52658 0.2481 0.0
C179 C 0.69397 0.54473 0.23374 0.0
N180 N 0.75422 0.5632 0.20398 0.0
C181 C 0.75242 0.5128 0.18543 0.0
C182 C 0.75371 0.51272 0.20256 0.0
C183 C 0.75498 0.53812 0.21152 0.0
C184 C 0.75244 0.53892 0.17764 0.0
C185 C 0.75296 0.56373 0.18716 0.0
N186 N 0.75552 0.63063 0.2325 0.0
C187 C 0.78162 0.67027 0.25423 0.0
C188 C 0.75249 0.66368 0.26061 0.0
C189 C 0.72553 0.64305 0.25138 0.0
C190 C 0.72747 0.62675 0.23765 0.0
C191 C 0.78263 0.65394 0.24002 0.0
H192 H 0.7056 0.6094 0.23203 0.0
H193 H 0.80528 0.65878 0.23578 0.0
H194 H 0.75667 0.53729 0.22466 0.0
H195 H 0.75231 0.58324 0.18096 0.0
C196 C 0.74561 0.63907 0.18923 0.0
C197 C 0.67274 0.54521 0.22117 0.0
C198 C 0.83427 0.63183 0.20716 0.0
C199 C 0.76634 0.57262 0.25292 0.0
H200 H 0.64274 0.56193 0.19572 0.0
H201 H 0.68211 0.61521 0.17947 0.0
H202 H 0.80152 0.68574 0.17274 0.0
H203 H 0.84956 0.67943 0.18142 0.0
H204 H 0.86712 0.62161 0.23366 0.0
H205 H 0.83067 0.59156 0.25958 0.0
H206 H 0.70991 0.52605 0.26967 0.0
H207 H 0.65922 0.50934 0.25149 0.0
H208 H 0.75415 0.49324 0.20905 0.0
H209 H 0.75151 0.53985 0.16435 0.0
H210 H 0.80339 0.68654 0.26058 0.0
H211 H 0.70254 0.63823 0.25509 0.0
C212 C 0.11333 0.69495 0.5531 0.0
C213 C 0.08743 0.67424 0.54348 0.0
C214 C 0.08691 0.69229 0.53066 0.0
C215 C 0.11232 0.7229 0.53316 0.0
N216 N 0.12899 0.72551 0.54677 0.0
Co217 Co 0.16721 0.76609 0.55484 0.0
N218 N 0.16011 0.79426 0.53936 0.0
C219 C 0.13831 0.78357 0.52732 0.0
C220 C 0.13805 0.80795 0.5187 0.0
C221 C 0.16163 0.83607 0.52544 0.0
C222 C 0.17529 0.82721 0.5377 0.0
N223 N 0.20613 0.80688 0.5624 0.0
C224 C 0.21836 0.83873 0.55809 0.0
C225 C 0.24772 0.85838 0.56521 0.0
C226 C 0.25449 0.83836 0.57394 0.0
C227 C 0.22905 0.80763 0.5717 0.0
N228 N 0.1737 0.73784 0.57045 0.0
C229 C 0.20022 0.74683 0.57898 0.0
C230 C 0.19817 0.72242 0.58872 0.0
C231 C 0.16848 0.69625 0.5861 0.0
C232 C 0.15404 0.70619 0.57489 0.0
N233 N 0.19321 0.76037 0.53834 0.0
C234 C 0.24261 0.75679 0.5233 0.0
C235 C 0.21699 0.72931 0.53055 0.0
C236 C 0.19237 0.73145 0.53762 0.0
C237 C 0.24076 0.78498 0.52211 0.0
C238 C 0.21602 0.78626 0.52967 0.0
N239 N 0.14174 0.77094 0.57207 0.0
C240 C 0.13517 0.77567 0.60121 0.0
C241 C 0.10266 0.76198 0.59932 0.0
C242 C 0.0905 0.75507 0.58323 0.0
C243 C 0.11047 0.7602 0.56979 0.0
C244 C 0.15408 0.77986 0.58758 0.0
H245 H 0.10021 0.75393 0.55768 0.0
H246 H 0.17842 0.7884 0.58993 0.0
H247 H 0.17384 0.7101 0.54357 0.0
H248 H 0.21656 0.80888 0.52923 0.0
C249 C 0.11782 0.75051 0.52472 0.0
C250 C 0.1228 0.68408 0.56769 0.0
C251 C 0.20508 0.85086 0.54572 0.0
C252 C 0.22515 0.77914 0.57872 0.0
H253 H 0.07049 0.64875 0.54556 0.0
H254 H 0.06926 0.68439 0.52108 0.0
H255 H 0.12271 0.80557 0.50863 0.0
H256 H 0.16878 0.86038 0.52134 0.0
H257 H 0.26317 0.88435 0.56373 0.0
H258 H 0.27564 0.84537 0.58094 0.0
H259 H 0.21591 0.72364 0.59695 0.0
H260 H 0.15871 0.67244 0.59161 0.0
H261 H 0.21655 0.70665 0.53174 0.0
H262 H 0.25887 0.80649 0.51592 0.0
H263 H 0.14586 0.78136 0.6133 0.0
H264 H 0.06562 0.7451 0.58105 0.0
C265 C 0.38473 0.16093 0.94731 0.0
C266 C 0.38275 0.16983 0.96328 0.0
C267 C 0.40291 0.2029 0.96423 0.0
C268 C 0.41595 0.21224 0.94882 0.0
N269 N 0.40505 0.18712 0.93831 0.0
Co270 Co 0.41812 0.189 0.91519 0.0
N271 N 0.45825 0.23036 0.91904 0.0
C272 C 0.46412 0.25089 0.93168 0.0
C273 C 0.49356 0.27824 0.93097 0.0
C274 C 0.50687 0.27491 0.91692 0.0
C275 C 0.48472 0.24553 0.90977 0.0
N276 N 0.43102 0.19096 0.89195 0.0
C277 C 0.45959 0.20974 0.88477 0.0
C278 C 0.45763 0.20393 0.86796 0.0
C279 C 0.42667 0.18125 0.86458 0.0
C280 C 0.4114 0.17433 0.87945 0.0
N281 N 0.37791 0.14752 0.91178 0.0
C282 C 0.36373 0.13536 0.89727 0.0
C283 C 0.3371 0.10505 0.89892 0.0
C284 C 0.33467 0.09793 0.91547 0.0
C285 C 0.36001 0.12435 0.92302 0.0
N286 N 0.39762 0.21359 0.90888 0.0
C287 C 0.36536 0.24162 0.8943 0.0
C288 C 0.35078 0.21712 0.90627 0.0
C289 C 0.36726 0.20336 0.91336 0.0
C290 C 0.39699 0.25306 0.89066 0.0
C291 C 0.41266 0.23913 0.89816 0.0
N292 N 0.4382 0.16404 0.92081 0.0
C293 C 0.44585 0.11978 0.914 0.0
C294 C 0.46497 0.12595 0.92782 0.0
C295 C 0.47002 0.15154 0.9383 0.0
C296 C 0.45653 0.17043 0.93452 0.0
C297 C 0.43292 0.13894 0.91073 0.0
H298 H 0.46087 0.19013 0.94263 0.0
H299 H 0.41837 0.13311 0.89997 0.0
H300 H 0.35505 0.18354 0.92196 0.0
H301 H 0.4367 0.24824 0.8946 0.0
C302 C 0.44315 0.2418 0.94493 0.0
C303 C 0.3665 0.12778 0.94083 0.0
C304 C 0.48811 0.23512 0.89326 0.0
C305 C 0.3801 0.14942 0.88256 0.0
H306 H 0.3686 0.15403 0.97321 0.0
H307 H 0.40883 0.2179 0.97512 0.0
H308 H 0.50429 0.298 0.93974 0.0
H309 H 0.52992 0.2926 0.91225 0.0
H310 H 0.47646 0.21524 0.85905 0.0
H311 H 0.41672 0.17055 0.85275 0.0
H312 H 0.32234 0.0891 0.88917 0.0
H313 H 0.31671 0.07576 0.92126 0.0
H314 H 0.32641 0.20763 0.90959 0.0
H315 H 0.40952 0.2724 0.8818 0.0
H316 H 0.44054 0.09991 0.90572 0.0
H317 H 0.48467 0.15727 0.94913 0.0
C318 C 0.59995 0.69545 0.46021 0.0
C319 C 0.60568 0.67531 0.46999 0.0
C320 C 0.6239 0.69381 0.48282 0.0
C321 C 0.6284 0.7241 0.48015 0.0
N322 N 0.61429 0.72612 0.46641 0.0
Co323 Co 0.61571 0.76607 0.45811 0.0
N324 N 0.65078 0.79504 0.47349 0.0
C325 C 0.66144 0.78493 0.48602 0.0
C326 C 0.6853 0.80975 0.49483 0.0
C327 C 0.68982 0.83754 0.48766 0.0
C328 C 0.66829 0.82807 0.47485 0.0
N329 N 0.61672 0.80617 0.4502 0.0
C330 C 0.63623 0.8382 0.45412 0.0
C331 C 0.62623 0.85739 0.44675 0.0
C332 C 0.59921 0.83682 0.43831 0.0
C333 C 0.59419 0.80626 0.44093 0.0
N334 N 0.58104 0.73698 0.44265 0.0
C335 C 0.56284 0.74522 0.43419 0.0
C336 C 0.54058 0.72033 0.42465 0.0
C337 C 0.54483 0.69464 0.42734 0.0
C338 C 0.56954 0.70532 0.43841 0.0
N339 N 0.58394 0.76028 0.47456 0.0
C340 C 0.53075 0.75678 0.48926 0.0
C341 C 0.52914 0.72915 0.48232 0.0
C342 C 0.55602 0.73125 0.47542 0.0
C343 C 0.56068 0.78508 0.4904 0.0
C344 C 0.58679 0.78633 0.48299 0.0
N345 N 0.64624 0.77122 0.44101 0.0
C346 C 0.65777 0.77513 0.41196 0.0
C347 C 0.67973 0.76539 0.41437 0.0
C348 C 0.68579 0.76046 0.43072 0.0
C349 C 0.66897 0.76365 0.44382 0.0
C350 C 0.64167 0.7781 0.42528 0.0
H351 H 0.67353 0.75878 0.45613 0.0
H352 H 0.62416 0.78423 0.42259 0.0
H353 H 0.55344 0.70981 0.46967 0.0
H354 H 0.60874 0.80909 0.48329 0.0
C355 C 0.64954 0.752 0.48874 0.0
C356 C 0.57936 0.68384 0.44571 0.0
C357 C 0.66241 0.85117 0.46603 0.0
C358 C 0.56965 0.77736 0.43421 0.0
H359 H 0.5976 0.64988 0.46807 0.0
H360 H 0.63373 0.68636 0.49257 0.0
H361 H 0.69776 0.80787 0.5053 0.0
H362 H 0.70626 0.86199 0.49184 0.0
H363 H 0.63685 0.88347 0.44781 0.0
H364 H 0.58483 0.84337 0.4312 0.0
H365 H 0.52365 0.72094 0.41647 0.0
H366 H 0.53103 0.67064 0.422 0.0
H367 H 0.50701 0.70638 0.48121 0.0
H368 H 0.56393 0.80672 0.4964 0.0
H369 H 0.65163 0.77891 0.39973 0.0
H370 H 0.703 0.75362 0.43341 0.0
C371 C 0.90594 0.57546 0.79748 0.0
C372 C 0.93137 0.5814 0.80728 0.0
C373 C 0.932 0.59993 0.82019 0.0
C374 C 0.90708 0.60428 0.81756 0.0
N375 N 0.89067 0.58967 0.80383 0.0
Co376 Co 0.85321 0.59043 0.7955 0.0
N377 N 0.86206 0.62778 0.8101 0.0
C378 C 0.88298 0.63927 0.82259 0.0
C379 C 0.88382 0.66441 0.83098 0.0
C380 C 0.86158 0.66884 0.82363 0.0
C381 C 0.84822 0.64597 0.81108 0.0
N382 N 0.81508 0.59065 0.78758 0.0
C383 C 0.80456 0.61129 0.7909 0.0
C384 C 0.77553 0.60058 0.78355 0.0
C385 C 0.76705 0.57181 0.77588 0.0
C386 C 0.79133 0.56656 0.77886 0.0
N387 N 0.84501 0.55356 0.78083 0.0
C388 C 0.81788 0.53372 0.77292 0.0
C389 C 0.81922 0.51062 0.76357 0.0
C390 C 0.8491 0.51626 0.76575 0.0
C391 C 0.86434 0.54255 0.77634 0.0
N392 N 0.8268 0.55905 0.81269 0.0
C393 C 0.77751 0.50644 0.82988 0.0
C394 C 0.80213 0.50399 0.82294 0.0
C395 C 0.82661 0.53059 0.81456 0.0
C396 C 0.78002 0.53689 0.82944 0.0
C397 C 0.80484 0.56279 0.82097 0.0
N398 N 0.87895 0.62052 0.7777 0.0
C399 C 0.88498 0.63047 0.74843 0.0
C400 C 0.91754 0.65163 0.75005 0.0
C401 C 0.92994 0.65887 0.76612 0.0
C402 C 0.91023 0.64326 0.77975 0.0
C403 C 0.86636 0.61525 0.76222 0.0
H404 H 0.92065 0.64846 0.79185 0.0
H405 H 0.84195 0.5978 0.76008 0.0
H406 H 0.8443 0.52732 0.8087 0.0
H407 H 0.805 0.58519 0.8204 0.0
C408 C 0.90222 0.62669 0.82579 0.0
C409 C 0.89637 0.55514 0.78269 0.0
C410 C 0.81919 0.63888 0.80248 0.0
C411 C 0.79364 0.54056 0.77277 0.0
H412 H 0.94793 0.57344 0.80525 0.0
H413 H 0.94949 0.61035 0.82986 0.0
H414 H 0.89852 0.67762 0.84139 0.0
H415 H 0.855 0.68596 0.8277 0.0
H416 H 0.76145 0.61185 0.78417 0.0
H417 H 0.74566 0.55649 0.76902 0.0
H418 H 0.80103 0.49254 0.75567 0.0
H419 H 0.85858 0.50257 0.76026 0.0
H420 H 0.80163 0.48118 0.82311 0.0
H421 H 0.7623 0.54049 0.83514 0.0
H422 H 0.87381 0.62481 0.73646 0.0
H423 H 0.95489 0.67529 0.76814 0.0
C424 C 0.23045 0.85551 0.06493 0.0
C425 C 0.21988 0.84753 0.04885 0.0
C426 C 0.207 0.81453 0.04742 0.0
C427 C 0.21044 0.80431 0.06265 0.0
N428 N 0.22448 0.82882 0.07352 0.0
Co429 Co 0.23527 0.82556 0.09657 0.0
N430 N 0.23415 0.78443 0.09203 0.0
C431 C 0.21984 0.7647 0.07907 0.0
C432 C 0.222 0.73735 0.0793 0.0
C433 C 0.23833 0.73982 0.09337 0.0
C434 C 0.24531 0.76872 0.101 0.0
N435 N 0.24555 0.82209 0.11974 0.0
C436 C 0.25501 0.80274 0.12662 0.0
C437 C 0.25846 0.80753 0.1435 0.0
C438 C 0.25025 0.83013 0.14725 0.0
C439 C 0.24236 0.83805 0.13251 0.0
N440 N 0.23677 0.86701 0.10063 0.0
C441 C 0.23461 0.87846 0.11533 0.0
C442 C 0.23849 0.90894 0.11413 0.0
C443 C 0.2435 0.91694 0.09767 0.0
C444 C 0.24243 0.89087 0.08975 0.0
N445 N 0.19004 0.80072 0.10259 0.0
C446 C 0.12894 0.77064 0.11641 0.0
C447 C 0.14024 0.79805 0.10617 0.0
C448 C 0.17057 0.81238 0.0992 0.0
C449 C 0.1485 0.75792 0.11889 0.0
C450 C 0.17872 0.77326 0.11202 0.0
N451 N 0.28042 0.85072 0.09124 0.0
C452 C 0.3322 0.89468 0.09852 0.0
C453 C 0.34529 0.88959 0.08443 0.0
C454 C 0.3249 0.86459 0.07363 0.0
C455 C 0.29253 0.84533 0.0773 0.0
C456 C 0.30013 0.87513 0.1017 0.0
H457 H 0.27729 0.82617 0.0689 0.0
H458 H 0.29129 0.88017 0.11266 0.0
H459 H 0.17868 0.83362 0.09154 0.0
H460 H 0.19334 0.76347 0.11503 0.0
C461 C 0.20812 0.77456 0.06604 0.0
C462 C 0.24552 0.88831 0.07188 0.0
C463 C 0.25851 0.77799 0.1177 0.0
C464 C 0.23636 0.86339 0.12981 0.0
H465 H 0.22179 0.86388 0.03915 0.0
H466 H 0.19817 0.80018 0.0363 0.0
H467 H 0.21319 0.71813 0.07022 0.0
H468 H 0.24359 0.72184 0.09774 0.0
H469 H 0.26577 0.79567 0.15223 0.0
H470 H 0.25082 0.8402 0.15924 0.0
H471 H 0.23953 0.92438 0.12411 0.0
H472 H 0.24781 0.93941 0.09217 0.0
H473 H 0.12586 0.80854 0.10367 0.0
H474 H 0.1411 0.73698 0.12674 0.0
H475 H 0.34658 0.91406 0.10708 0.0
H476 H 0.33389 0.85962 0.06259 0.0
C477 C 0.42738 0.32442 0.4578 0.0
C478 C 0.4216 0.34469 0.46742 0.0
C479 C 0.40273 0.32619 0.48005 0.0
C480 C 0.39797 0.29578 0.47743 0.0
N481 N 0.41253 0.29369 0.46392 0.0
Co482 Co 0.41108 0.25358 0.45582 0.0
N483 N 0.37534 0.22471 0.47087 0.0
C484 C 0.36413 0.23494 0.48307 0.0
C485 C 0.33994 0.21022 0.49173 0.0
C486 C 0.33575 0.18236 0.48484 0.0
C487 C 0.35782 0.19168 0.47232 0.0
N488 N 0.41016 0.2133 0.44825 0.0
C489 C 0.3906 0.18131 0.45225 0.0
C490 C 0.40075 0.16202 0.44517 0.0
C491 C 0.42793 0.18247 0.43685 0.0
C492 C 0.43288 0.21306 0.43925 0.0
N493 N 0.44631 0.2825 0.44064 0.0
C494 C 0.46446 0.27402 0.43235 0.0
C495 C 0.48709 0.29883 0.42294 0.0
C496 C 0.48312 0.32473 0.42553 0.0
C497 C 0.45821 0.31425 0.43641 0.0
N498 N 0.44221 0.25923 0.4727 0.0
C499 C 0.49487 0.26272 0.48812 0.0
C500 C 0.49673 0.29034 0.481 0.0
C501 C 0.47012 0.28823 0.47374 0.0
C502 C 0.4649 0.23442 0.48904 0.0
C503 C 0.43904 0.23319 0.48129 0.0
N504 N 0.38131 0.24872 0.43824 0.0
C505 C 0.37067 0.24391 0.40902 0.0
C506 C 0.35095 0.25661 0.4107 0.0
C507 C 0.34516 0.2633 0.42672 0.0
C508 C 0.36016 0.25873 0.44031 0.0
C509 C 0.38549 0.24025 0.42278 0.0
H510 H 0.35566 0.26471 0.45237 0.0
H511 H 0.40187 0.23237 0.42059 0.0
H512 H 0.47295 0.30968 0.46788 0.0
H513 H 0.41705 0.21048 0.48148 0.0
C514 C 0.37618 0.26789 0.48578 0.0
C515 C 0.44849 0.33594 0.44353 0.0
C516 C 0.36415 0.16848 0.46397 0.0
C517 C 0.45752 0.24184 0.43253 0.0
H518 H 0.43007 0.37022 0.46552 0.0
H519 H 0.39266 0.33372 0.48961 0.0
H520 H 0.32712 0.21222 0.50198 0.0
H521 H 0.31922 0.15797 0.48905 0.0
H522 H 0.39012 0.13597 0.44635 0.0
H523 H 0.44245 0.17582 0.42996 0.0
H524 H 0.50413 0.29806 0.41493 0.0
H525 H 0.49723 0.34873 0.42024 0.0
H526 H 0.5189 0.3131 0.48004 0.0
H527 H 0.46147 0.21279 0.49513 0.0
H528 H 0.37616 0.23848 0.39699 0.0
H529 H 0.32959 0.27254 0.42874 0.0
C530 C 0.11766 0.44075 0.79847 0.0
C531 C 0.09144 0.43378 0.8078 0.0
C532 C 0.08971 0.41384 0.82025 0.0
C533 C 0.1148 0.4097 0.81784 0.0
N534 N 0.13242 0.42586 0.80467 0.0
Co535 Co 0.17045 0.42577 0.79671 0.0
N536 N 0.16081 0.38745 0.8107 0.0
C537 C 0.13809 0.37378 0.82222 0.0
C538 C 0.13573 0.34686 0.82948 0.0
C539 C 0.15891 0.34359 0.82242 0.0
C540 C 0.17451 0.36916 0.8114 0.0
N541 N 0.2092 0.42619 0.7892 0.0
C542 C 0.22016 0.40599 0.79283 0.0
C543 C 0.25005 0.41787 0.78636 0.0
C544 C 0.25841 0.44665 0.77876 0.0
C545 C 0.23335 0.4509 0.78101 0.0
N546 N 0.17934 0.46351 0.78252 0.0
C547 C 0.20681 0.48374 0.77501 0.0
C548 C 0.20595 0.50739 0.76592 0.0
C549 C 0.17602 0.50174 0.76784 0.0
C550 C 0.16028 0.47487 0.77803 0.0
N551 N 0.19581 0.45614 0.81451 0.0
C552 C 0.24499 0.50817 0.83207 0.0
C553 C 0.22069 0.51105 0.825 0.0
C554 C 0.19621 0.48471 0.81645 0.0
C555 C 0.24199 0.47749 0.83172 0.0
C556 C 0.21719 0.45187 0.82307 0.0
N557 N 0.14578 0.39675 0.77832 0.0
C558 C 0.14124 0.38824 0.74893 0.0
C559 C 0.10868 0.36661 0.75007 0.0
C560 C 0.09554 0.35852 0.76594 0.0
C561 C 0.1145 0.37365 0.77987 0.0
C562 C 0.15913 0.40296 0.76302 0.0
H563 H 0.10346 0.36769 0.79179 0.0
H564 H 0.18361 0.4207 0.76129 0.0
H565 H 0.17883 0.48832 0.81047 0.0
H566 H 0.21668 0.42931 0.82255 0.0
C567 C 0.11855 0.38599 0.82545 0.0
C568 C 0.1281 0.46222 0.7841 0.0
C569 C 0.20519 0.37817 0.80425 0.0
C570 C 0.23112 0.47705 0.77509 0.0
H571 H 0.07493 0.4418 0.8057 0.0
H572 H 0.07132 0.40224 0.8294 0.0
H573 H 0.1193 0.33159 0.83889 0.0
H574 H 0.16475 0.32544 0.82564 0.0
H575 H 0.26488 0.40757 0.78759 0.0
H576 H 0.28038 0.46281 0.77257 0.0
H577 H 0.22453 0.52595 0.75839 0.0
H578 H 0.16685 0.51584 0.76248 0.0
H579 H 0.22152 0.53403 0.82514 0.0
H580 H 0.25937 0.47353 0.83757 0.0
H581 H 0.15297 0.39458 0.73711 0.0
H582 H 0.07056 0.34176 0.7676 0.0
C583 C 0.79105 0.15962 0.06397 0.0
C584 C 0.80115 0.16615 0.04778 0.0
C585 C 0.81405 0.19897 0.0456 0.0
C586 C 0.81113 0.21053 0.06054 0.0
N587 N 0.79746 0.18705 0.07197 0.0
Co588 Co 0.78755 0.19238 0.0949 0.0
N589 N 0.78932 0.23361 0.08947 0.0
C590 C 0.8021 0.25148 0.07578 0.0
C591 C 0.79913 0.27831 0.07504 0.0
C592 C 0.78407 0.27764 0.08926 0.0
C593 C 0.77905 0.25055 0.09808 0.0
N594 N 0.77826 0.19798 0.11799 0.0
C595 C 0.77056 0.21901 0.12457 0.0
C596 C 0.76846 0.21604 0.14157 0.0
C597 C 0.77545 0.1927 0.1457 0.0
C598 C 0.78152 0.1827 0.13107 0.0
N599 N 0.78525 0.15075 0.09984 0.0
C600 C 0.78746 0.14019 0.11478 0.0
C601 C 0.78295 0.10939 0.11423 0.0
C602 C 0.77749 0.10022 0.09792 0.0
C603 C 0.77896 0.12597 0.08944 0.0
N604 N 0.83294 0.21677 0.1006 0.0
C605 C 0.89304 0.24462 0.11558 0.0
C606 C 0.88138 0.21711 0.10533 0.0
C607 C 0.85155 0.20385 0.09784 0.0
C608 C 0.87473 0.25911 0.11696 0.0
C609 C 0.84505 0.2449 0.10952 0.0
N610 N 0.7422 0.1675 0.08994 0.0
C611 C 0.69058 0.12422 0.09788 0.0
C612 C 0.67722 0.12769 0.08342 0.0
C613 C 0.69741 0.15177 0.07217 0.0
C614 C 0.72983 0.17152 0.0757 0.0
C615 C 0.72264 0.14423 0.10091 0.0
H616 H 0.74491 0.18977 0.06689 0.0
H617 H 0.73165 0.14023 0.11212 0.0
H618 H 0.84291 0.18215 0.09048 0.0
H619 H 0.83136 0.25607 0.11177 0.0
C620 C 0.81317 0.24034 0.06307 0.0
C621 C 0.77567 0.12735 0.07151 0.0
C622 C 0.76862 0.24441 0.11536 0.0
C623 C 0.78662 0.15663 0.12891 0.0
H624 H 0.79877 0.14893 0.03846 0.0
H625 H 0.82242 0.2123 0.03417 0.0
H626 H 0.80646 0.29592 0.06519 0.0
H627 H 0.77826 0.29561 0.09289 0.0
H628 H 0.76317 0.22984 0.15012 0.0
H629 H 0.77566 0.18382 0.1579 0.0
H630 H 0.78187 0.09457 0.12453 0.0
H631 H 0.77267 0.07722 0.09289 0.0
H632 H 0.89444 0.20493 0.10363 0.0
H633 H 0.88283 0.28104 0.12411 0.0
H634 H 0.67648 0.10556 0.10681 0.0
H635 H 0.68827 0.15552 0.06083 0.0
C636 C 0.24296 0.73203 0.13752 0.0
C637 C 0.26539 0.75523 0.12673 0.0
C638 C 0.2468 0.70722 0.14399 0.0
C639 C 0.28777 0.66198 0.13546 0.0
H640 H 0.25888 0.62769 0.17925 0.0
C641 C 0.30287 0.559 0.16377 0.0
C642 C 0.27731 0.53483 0.17285 0.0
C643 C 0.30311 0.58694 0.15835 0.0
C644 C 0.26683 0.63675 0.16692 0.0
H645 H 0.30939 0.77081 0.11424 0.0
H646 H 0.3167 0.72799 0.12583 0.0
H647 H 0.25708 0.67501 0.17005 0.0
H648 H 0.23215 0.52172 0.18352 0.0
H649 H 0.23236 0.56981 0.17393 0.0
H650 H 0.29743 0.62357 0.13236 0.0
C651 C 0.29595 0.72868 0.12924 0.0
C652 C 0.26578 0.66398 0.16163 0.0
C653 C 0.29204 0.75349 0.12276 0.0
C654 C 0.25205 0.53944 0.17635 0.0
C655 C 0.25237 0.56736 0.17103 0.0
C656 C 0.28891 0.63478 0.14079 0.0
C657 C 0.27312 0.70483 0.13976 0.0
C658 C 0.27593 0.67685 0.14575 0.0
C659 C 0.27793 0.59162 0.16202 0.0
C660 C 0.27812 0.62154 0.15654 0.0
H661 H 0.22179 0.73235 0.14042 0.0
H662 H 0.22841 0.68912 0.15179 0.0
H663 H 0.29536 0.67075 0.12307 0.0
H664 H 0.32268 0.55629 0.16076 0.0
H665 H 0.3233 0.60516 0.15153 0.0
C666 C 0.75473 0.29212 0.51352 0.0
C667 C 0.75377 0.26342 0.51837 0.0
C668 C 0.72696 0.29227 0.5104 0.0
C669 C 0.63933 0.24196 0.51732 0.0
H670 H 0.6384 0.30347 0.48679 0.0
C671 C 0.52545 0.23419 0.49235 0.0
C672 C 0.52404 0.26277 0.49339 0.0
C673 C 0.55323 0.23452 0.49607 0.0
C674 C 0.63839 0.28629 0.49544 0.0
H675 H 0.72178 0.21204 0.52332 0.0
H676 H 0.67419 0.21184 0.51672 0.0
H677 H 0.68684 0.30286 0.49086 0.0
H678 H 0.55153 0.31407 0.49981 0.0
H679 H 0.60018 0.31471 0.50545 0.0
H680 H 0.5903 0.22457 0.52121 0.0
C681 C 0.69633 0.23469 0.51595 0.0
C682 C 0.66626 0.28599 0.49788 0.0
C683 C 0.72402 0.23467 0.5194 0.0
C684 C 0.55147 0.29163 0.49845 0.0
C685 C 0.57946 0.29205 0.5018 0.0
C686 C 0.61133 0.24182 0.51459 0.0
C687 C 0.6972 0.2636 0.5117 0.0
C688 C 0.66728 0.26384 0.5089 0.0
C689 C 0.58067 0.26353 0.50058 0.0
C690 C 0.61057 0.26404 0.50366 0.0
H691 H 0.77694 0.31475 0.51223 0.0
H692 H 0.72899 0.31521 0.50734 0.0
H693 H 0.63897 0.22504 0.52624 0.0
H694 H 0.50542 0.21155 0.48815 0.0
H695 H 0.55353 0.2122 0.49489 0.0
C696 C 0.47933 0.75478 0.88863 0.0
C697 C 0.50757 0.7562 0.88466 0.0
C698 C 0.45055 0.73014 0.88215 0.0
C699 C 0.41558 0.66509 0.84986 0.0
H700 H 0.3434 0.62597 0.87902 0.0
C701 C 0.30396 0.54111 0.8354 0.0
C702 C 0.27429 0.53722 0.83862 0.0
C703 C 0.33171 0.56882 0.84072 0.0
C704 C 0.36319 0.63682 0.87063 0.0
H705 H 0.52797 0.73296 0.87098 0.0
H706 H 0.47801 0.68997 0.85964 0.0
H707 H 0.39288 0.67284 0.88829 0.0
H708 H 0.25088 0.5597 0.85025 0.0
H709 H 0.2994 0.60816 0.85954 0.0
H710 H 0.38601 0.62868 0.83233 0.0
C711 C 0.47787 0.7082 0.86742 0.0
C712 C 0.39165 0.66385 0.87593 0.0
C713 C 0.5066 0.73288 0.87387 0.0
C714 C 0.27324 0.56186 0.84747 0.0
C715 C 0.30109 0.58956 0.85291 0.0
C716 C 0.38719 0.638 0.8446 0.0
C717 C 0.4493 0.70611 0.87165 0.0
C718 C 0.4184 0.67827 0.86568 0.0
C719 C 0.33075 0.59355 0.84949 0.0
C720 C 0.36064 0.62328 0.85495 0.0
H721 H 0.47946 0.77219 0.89714 0.0
H722 H 0.42923 0.72971 0.88554 0.0
H723 H 0.43533 0.67576 0.84146 0.0
H724 H 0.30587 0.523 0.82841 0.0
H725 H 0.35401 0.57076 0.83802 0.0
C726 C 0.77606 0.49055 0.16588 0.0
C727 C 0.75117 0.48543 0.17615 0.0
C728 C 0.7769 0.46406 0.15913 0.0
C729 C 0.74086 0.37372 0.16472 0.0
H730 H 0.78373 0.38126 0.12368 0.0
C731 C 0.73711 0.26454 0.13021 0.0
C732 C 0.7662 0.27019 0.12443 0.0
C733 C 0.73463 0.29004 0.13705 0.0
C734 C 0.77179 0.37883 0.13521 0.0
H735 H 0.70707 0.4488 0.1869 0.0
H736 H 0.70738 0.40279 0.17445 0.0
H737 H 0.77958 0.42689 0.13345 0.0
H738 H 0.81572 0.30631 0.12198 0.0
H739 H 0.81133 0.35092 0.13354 0.0
H740 H 0.73233 0.32511 0.16607 0.0
C741 C 0.72704 0.42699 0.17203 0.0
C742 C 0.76953 0.40513 0.14091 0.0
C743 C 0.72656 0.45341 0.17901 0.0
C744 C 0.79295 0.30143 0.1262 0.0
C745 C 0.7904 0.32696 0.13272 0.0
C746 C 0.74264 0.34721 0.15885 0.0
C747 C 0.75259 0.43174 0.16227 0.0
C748 C 0.75422 0.40319 0.15584 0.0
C749 C 0.76114 0.32174 0.13801 0.0
C750 C 0.75837 0.34953 0.1441 0.0
H751 H 0.79558 0.51498 0.16369 0.0
H752 H 0.79728 0.46907 0.15193 0.0
H753 H 0.72949 0.37115 0.17644 0.0
H754 H 0.71619 0.24065 0.12902 0.0
H755 H 0.71178 0.28522 0.14105 0.0
C756 C 0.47381 0.72805 0.49898 0.0
C757 C 0.50142 0.75679 0.49409 0.0
C758 C 0.44575 0.72771 0.50195 0.0
C759 C 0.40789 0.77747 0.49454 0.0
H760 H 0.34577 0.71639 0.52526 0.0
C761 C 0.30168 0.78537 0.51908 0.0
C762 C 0.27176 0.75671 0.51817 0.0
C763 C 0.32916 0.78504 0.51546 0.0
C764 C 0.36285 0.73345 0.51656 0.0
H765 H 0.5204 0.80803 0.48887 0.0
H766 H 0.47281 0.80793 0.49522 0.0
H767 H 0.39491 0.71713 0.52133 0.0
H768 H 0.24811 0.70526 0.51208 0.0
H769 H 0.29617 0.70465 0.50662 0.0
H770 H 0.37607 0.79461 0.49044 0.0
C771 C 0.47229 0.78518 0.49615 0.0
C772 C 0.39107 0.73382 0.5142 0.0
C773 C 0.50013 0.78538 0.49284 0.0
C774 C 0.27044 0.72778 0.51334 0.0
C775 C 0.29803 0.72736 0.51009 0.0
C776 C 0.37998 0.77754 0.49719 0.0
C777 C 0.4444 0.75624 0.50046 0.0
C778 C 0.41413 0.75583 0.50312 0.0
C779 C 0.32769 0.75596 0.51119 0.0
C780 C 0.35711 0.75549 0.50818 0.0
H781 H 0.4736 0.70554 0.50042 0.0
H782 H 0.42495 0.70475 0.50506 0.0
H783 H 0.42435 0.79426 0.48557 0.0
H784 H 0.3042 0.80808 0.5231 0.0
H785 H 0.35172 0.80743 0.51654 0.0
C786 C 0.54588 0.25926 0.88774 0.0
C787 C 0.51738 0.25737 0.88386 0.0
C788 C 0.57439 0.28392 0.88104 0.0
C789 C 0.60808 0.34826 0.84838 0.0
H790 H 0.68075 0.38887 0.87727 0.0
C791 C 0.71855 0.47272 0.83321 0.0
C792 C 0.74845 0.47718 0.83646 0.0
C793 C 0.69107 0.44488 0.83865 0.0
C794 C 0.66083 0.37761 0.86895 0.0
H795 H 0.49623 0.27978 0.87009 0.0
H796 H 0.54571 0.32279 0.85837 0.0
H797 H 0.63177 0.3418 0.88681 0.0
H798 H 0.77254 0.45555 0.84826 0.0
H799 H 0.7245 0.40686 0.85774 0.0
H800 H 0.63703 0.38445 0.83064 0.0
C801 C 0.54626 0.30491 0.86625 0.0
C802 C 0.63265 0.35046 0.87441 0.0
C803 C 0.51781 0.28021 0.87292 0.0
C804 C 0.74999 0.45295 0.84545 0.0
C805 C 0.72241 0.42512 0.851 0.0
C806 C 0.6362 0.37547 0.84296 0.0
C807 C 0.5751 0.30752 0.87041 0.0
C808 C 0.60572 0.33548 0.86426 0.0
C809 C 0.69252 0.42057 0.84757 0.0
C810 C 0.66292 0.39073 0.8532 0.0
H811 H 0.54619 0.24224 0.89637 0.0
H812 H 0.59593 0.28474 0.88439 0.0
H813 H 0.58819 0.33716 0.84005 0.0
H814 H 0.71627 0.4905 0.82612 0.0
H815 H 0.66858 0.44252 0.83593 0.0
C816 C 0.61521 0.50768 0.21447 0.0
C817 C 0.63847 0.53096 0.22495 0.0
C818 C 0.58357 0.49869 0.21629 0.0
C819 C 0.52532 0.49864 0.24492 0.0
H820 H 0.48332 0.50051 0.20505 0.0
C821 C 0.39039 0.4506 0.23951 0.0
C822 C 0.38173 0.46922 0.23002 0.0
C823 C 0.42208 0.45931 0.24067 0.0
C824 C 0.49473 0.50004 0.21632 0.0
H825 H 0.64673 0.56226 0.24586 0.0
H826 H 0.59134 0.54577 0.24942 0.0
H827 H 0.53701 0.51102 0.20364 0.0
H828 H 0.3992 0.51164 0.21451 0.0
H829 H 0.45456 0.52695 0.21649 0.0
H830 H 0.48276 0.48733 0.25756 0.0
C831 C 0.59751 0.53452 0.23976 0.0
C832 C 0.52541 0.50571 0.21548 0.0
C833 C 0.62921 0.54388 0.23777 0.0
C834 C 0.4054 0.49731 0.22218 0.0
C835 C 0.43699 0.50576 0.22314 0.0
C836 C 0.49436 0.49242 0.24572 0.0
C837 C 0.57437 0.51242 0.22878 0.0
C838 C 0.5412 0.50521 0.22977 0.0
C839 C 0.44567 0.48643 0.23206 0.0
C840 C 0.47874 0.49328 0.23143 0.0
H841 H 0.62177 0.49758 0.20442 0.0
H842 H 0.56632 0.48137 0.20773 0.0
H843 H 0.53675 0.49799 0.25615 0.0
H844 H 0.37246 0.42842 0.24534 0.0
H845 H 0.42788 0.44376 0.24754 0.0
C846 C 0.10813 0.62634 0.56221 0.0
C847 C 0.10447 0.6485 0.57183 0.0
C848 C 0.08687 0.59273 0.56356 0.0
C849 C 0.02484 0.52738 0.5897 0.0
H850 H 0.99383 0.48179 0.54826 0.0
C851 C 0.94687 0.38509 0.5832 0.0
C852 C 0.92243 0.37289 0.57154 0.0
C853 C 0.96803 0.41882 0.58477 0.0
C854 C 1.00206 0.49408 0.55997 0.0
H855 H 0.07614 0.65277 0.5907 0.0
H856 H 0.0394 0.59388 0.59347 0.0
H857 H 0.03366 0.53961 0.54833 0.0
H858 H 0.90061 0.38634 0.55262 0.0
H859 H 0.93735 0.44502 0.55528 0.0
H860 H 0.99324 0.48153 0.60131 0.0
C861 C 0.05874 0.60247 0.58487 0.0
C862 C 0.02523 0.52729 0.56001 0.0
C863 C 0.07985 0.63621 0.58336 0.0
C864 C 0.91899 0.39512 0.56185 0.0
C865 C 0.9403 0.42871 0.56326 0.0
C866 C 1.00195 0.49392 0.58966 0.0
C867 C 0.06143 0.58026 0.57466 0.0
C868 C 0.03698 0.54453 0.57486 0.0
C869 C 0.96556 0.44109 0.5745 0.0
C870 C 0.99005 0.4768 0.57478 0.0
H871 H 0.12663 0.63519 0.55307 0.0
H872 H 0.08999 0.57648 0.55564 0.0
H873 H 0.03334 0.53974 0.60138 0.0
H874 H 0.95039 0.36847 0.59061 0.0
H875 H 0.98723 0.42734 0.59348 0.0
C876 C 0.47986 0.09351 0.94646 0.0
C877 C 0.47939 0.10563 0.93076 0.0
C878 C 0.49064 0.07173 0.94855 0.0
C879 C 0.53549 0.03926 0.92665 0.0
H880 H 0.49004 0.96486 0.95548 0.0
C881 C 0.5376 0.92243 0.91731 0.0
C882 C 0.54819 0.91167 0.93058 0.0
C883 C 0.52971 0.94621 0.91951 0.0
C884 C 0.50313 0.98571 0.94752 0.0
H885 H 0.49146 0.10549 0.90515 0.0
H886 H 0.50906 0.06733 0.90862 0.0
H887 H 0.47698 1.00771 0.9553 0.0
H888 H 0.55665 0.91632 0.95688 0.0
H889 H 0.54166 0.95742 0.96081 0.0
H890 H 0.56049 0.01649 0.9183 0.0
C891 C 0.50157 0.07465 0.91945 0.0
C892 C 0.49578 0.01038 0.94744 0.0
C893 C 0.491 0.09634 0.91739 0.0
C894 C 0.54855 0.92391 0.94639 0.0
C895 C 0.54013 0.94755 0.94864 0.0
C896 C 0.54242 0.01448 0.92655 0.0
C897 C 0.50136 0.06171 0.93501 0.0
C898 C 0.51139 0.03719 0.9367 0.0
C899 C 0.53153 0.95959 0.9351 0.0
C900 C 0.52594 0.98713 0.93673 0.0
H901 H 0.47097 0.10002 0.95702 0.0
H902 H 0.4904 0.06263 0.96076 0.0
H903 H 0.54878 0.05985 0.91857 0.0
H904 H 0.53607 0.91297 0.90503 0.0
H905 H 0.52258 0.95456 0.90891 0.0
C906 C 0.57382 0.6358 0.42984 0.0
C907 C 0.56234 0.64813 0.44184 0.0
C908 C 0.56108 0.60204 0.42821 0.0
C909 C 0.52009 0.52639 0.45291 0.0
H910 H 0.50434 0.48143 0.4112 0.0
C911 C 0.49169 0.3933 0.44964 0.0
C912 C 0.46595 0.37171 0.43982 0.0
C913 C 0.5044 0.42703 0.4486 0.0
C914 C 0.50856 0.49358 0.42296 0.0
H915 H 0.52818 0.63488 0.4613 0.0
H916 H 0.5059 0.57616 0.45853 0.0
H917 H 0.52309 0.53977 0.41167 0.0
H918 H 0.43377 0.36856 0.42095 0.0
H919 H 0.45646 0.42762 0.41873 0.0
H920 H 0.50577 0.48048 0.46424 0.0
C921 C 0.52477 0.59238 0.45035 0.0
C922 C 0.51952 0.52713 0.42323 0.0
C923 C 0.53726 0.626 0.45184 0.0
C924 C 0.45398 0.38468 0.42845 0.0
C925 C 0.46694 0.41853 0.42725 0.0
C926 C 0.50961 0.49306 0.45264 0.0
C927 C 0.53686 0.57984 0.43873 0.0
C928 C 0.52527 0.54403 0.43822 0.0
C929 C 0.49184 0.44019 0.43762 0.0
C930 C 0.5036 0.47605 0.43768 0.0
H931 H 0.59346 0.65233 0.42215 0.0
H932 H 0.57116 0.59343 0.4192 0.0
H933 H 0.52454 0.53848 0.4647 0.0
H934 H 0.50107 0.38393 0.45868 0.0
H935 H 0.52377 0.44282 0.45664 0.0
C936 C 0.91207 0.51344 0.78582 0.0
C937 C 0.91575 0.54094 0.77763 0.0
C938 C 0.93472 0.50441 0.7842 0.0
C939 C 1.00148 0.51371 0.75944 0.0
H940 H 0.03183 0.50099 0.80109 0.0
C941 C 0.08506 0.46154 0.76736 0.0
C942 C 0.10915 0.47696 0.7791 0.0
C943 C 0.06273 0.47099 0.76527 0.0
C944 C 0.02374 0.50459 0.78935 0.0
H945 H 0.94535 0.58 0.76097 0.0
H946 H 0.98452 0.56357 0.75762 0.0
H947 H 0.98887 0.51193 0.8007 0.0
H948 H 0.12933 0.51469 0.79759 0.0
H949 H 0.09034 0.53114 0.79407 0.0
H950 H 0.03626 0.50587 0.74811 0.0
C951 C 0.96414 0.54898 0.7653 0.0
C952 C 0.99888 0.51054 0.78912 0.0
C953 C 0.94168 0.5583 0.76713 0.0
C954 C 0.11125 0.5028 0.78828 0.0
C955 C 0.08872 0.51191 0.78638 0.0
C956 C 0.02605 0.50711 0.75966 0.0
C957 C 0.96145 0.52252 0.77423 0.0
C958 C 0.98744 0.51528 0.77418 0.0
C959 C 0.06371 0.49562 0.77513 0.0
C960 C 0.03765 0.50272 0.77464 0.0
H961 H 0.89258 0.50005 0.79422 0.0
H962 H 0.93179 0.48378 0.79115 0.0
H963 H 0.99321 0.51721 0.74773 0.0
H964 H 0.08263 0.44115 0.76037 0.0
H965 H 0.0437 0.45783 0.75657 0.0
C966 C 0.39243 0.92278 0.0658 0.0
C967 C 0.38002 0.91046 0.08149 0.0
C968 C 0.42491 0.94479 0.06367 0.0
C969 C 0.50252 0.978 0.08555 0.0
H970 H 0.53082 0.05137 0.05604 0.0
C971 C 0.62143 0.09566 0.09376 0.0
C972 C 0.64259 0.10566 0.08045 0.0
C973 C 0.58976 0.07169 0.09179 0.0
C974 C 0.52324 0.03081 0.0642 0.0
H975 H 0.39258 0.91059 0.10706 0.0
H976 H 0.4481 0.94926 0.10355 0.0
H977 H 0.475 1.0085 0.05654 0.0
H978 H 0.646 0.09934 0.05427 0.0
H979 H 0.58993 0.058 0.05074 0.0
H980 H 0.55041 1.00116 0.09377 0.0
C981 C 0.43323 0.94188 0.09274 0.0
C982 C 0.49126 1.00611 0.06446 0.0
C983 C 0.40105 0.91989 0.09482 0.0
C984 C 0.63049 0.09239 0.0648 0.0
C985 C 0.59843 0.06861 0.06278 0.0
C986 C 0.53419 1.00284 0.08547 0.0
C987 C 0.44578 0.95494 0.07717 0.0
C988 C 0.48028 0.97963 0.07542 0.0
C989 C 0.57799 0.05739 0.07638 0.0
C990 C 0.54484 0.0298 0.07503 0.0
H991 H 0.37696 0.9162 0.05525 0.0
H992 H 0.43359 0.95393 0.05145 0.0
H993 H 0.49545 0.95767 0.09379 0.0
H994 H 0.62947 0.10591 0.1059 0.0
H995 H 0.57443 0.06397 0.10244 0.0
C996 C 0.30316 0.34055 0.27482 0.0
C997 C 0.2762 0.34312 0.27347 0.0
C998 C 0.3099 0.32975 0.28949 0.0
C999 C 0.29011 0.31931 0.33448 0.0
H1000 H 0.33206 0.27002 0.33411 0.0
C1001 C 0.33863 0.29375 0.3944 0.0
C1002 C 0.3383 0.26433 0.39567 0.0
C1003 C 0.32995 0.30249 0.37968 0.0
C1004 C 0.32003 0.28347 0.33452 0.0
H1005 H 0.23444 0.33466 0.28643 0.0
H1006 H 0.2457 0.31533 0.3117 0.0
H1007 H 0.31863 0.2854 0.30821 0.0
H1008 H 0.32705 0.22041 0.38246 0.0
H1009 H 0.31142 0.23519 0.35707 0.0
H1010 H 0.29079 0.31671 0.36077 0.0
C1011 C 0.26229 0.32257 0.30164 0.0
C1012 C 0.31269 0.29275 0.31957 0.0
C1013 C 0.25568 0.33352 0.28705 0.0
C1014 C 0.32808 0.24348 0.38193 0.0
C1015 C 0.31926 0.2521 0.36726 0.0
C1016 C 0.29736 0.30995 0.34943 0.0
C1017 C 0.28978 0.32098 0.30325 0.0
C1018 C 0.29757 0.31084 0.31926 0.0
C1019 C 0.32048 0.28199 0.36577 0.0
C1020 C 0.31246 0.29186 0.34974 0.0
H1021 H 0.31975 0.3481 0.26474 0.0
H1022 H 0.33147 0.32928 0.29018 0.0
H1023 H 0.27893 0.33361 0.33491 0.0
H1024 H 0.34678 0.31069 0.4046 0.0
H1025 H 0.33165 0.32587 0.37909 0.0
C1026 C 0.97415 0.29781 0.61462 0.0
C1027 C 0.94572 0.26769 0.61361 0.0
C1028 C 0.99198 0.30745 0.62919 0.0
C1029 C 1.00422 0.27674 0.66906 0.0
H1030 H 0.03849 0.36583 0.68323 0.0
C1031 C 0.06257 0.32238 0.73366 0.0
C1032 C 0.08893 0.35415 0.73472 0.0
C1033 C 0.04477 0.31112 0.71907 0.0
C1034 C 0.02953 0.34096 0.67942 0.0
H1035 H 0.91468 0.22356 0.6271 0.0
H1036 H 0.94567 0.24028 0.65239 0.0
H1037 H 1.00983 0.34766 0.65737 0.0
H1038 H 0.11619 0.39918 0.72109 0.0
H1039 H 0.08623 0.37945 0.69584 0.0
H1040 H 0.02416 0.27011 0.69107 0.0
C1041 C 0.95423 0.25655 0.64193 0.0
C1042 C 0.013 0.3305 0.66451 0.0
C1043 C 0.93629 0.24703 0.62742 0.0
C1044 C 0.09656 0.37435 0.7208 0.0
C1045 C 0.07892 0.36313 0.70627 0.0
C1046 C 0.02095 0.28726 0.68396 0.0
C1047 C 0.98209 0.28716 0.64316 0.0
C1048 C 1.00013 0.29826 0.65905 0.0
C1049 C 0.0527 0.33133 0.70511 0.0
C1050 C 0.03401 0.31961 0.68938 0.0
H1051 H 0.98207 0.31453 0.60434 0.0
H1052 H 0.01349 0.331 0.62954 0.0
H1053 H 0.99494 0.25181 0.66524 0.0
H1054 H 0.0559 0.30598 0.74403 0.0
H1055 H 0.02457 0.28662 0.71882 0.0
C1056 C 0.65448 0.9285 0.95843 0.0
C1057 C 0.67331 0.91739 0.95168 0.0
C1058 C 0.66586 0.95144 0.97122 0.0
C1059 C 0.72442 0.98272 1.00519 0.0
H1060 H 0.70607 0.05192 0.00719 0.0
C1061 C 0.77867 0.08418 0.05539 0.0
C1062 C 0.76122 0.09809 0.06062 0.0
C1063 C 0.76753 0.06116 0.04259 0.0
C1064 C 0.71103 0.03245 0.00706 0.0
H1065 H 0.71868 0.92129 0.95303 0.0
H1066 H 0.73886 0.96161 0.97531 0.0
H1067 H 0.68846 0.0154 0.98362 0.0
H1068 H 0.71836 0.09864 0.0568 0.0
H1069 H 0.69813 0.0576 0.03505 0.0
H1070 H 0.74658 0.99938 0.02871 0.0
C1071 C 0.71527 0.95271 0.97073 0.0
C1072 C 0.701 0.01151 0.99341 0.0
C1073 C 0.70394 0.92997 0.95782 0.0
C1074 C 0.73203 0.08788 0.05316 0.0
C1075 C 0.72074 0.06471 0.04047 0.0
C1076 C 0.73426 1.00352 0.01891 0.0
C1077 C 0.69625 0.96349 0.97779 0.0
C1078 C 0.70754 0.98631 0.99224 0.0
C1079 C 0.73861 0.05148 0.03468 0.0
C1080 C 0.72773 0.02877 0.02011 0.0
H1081 H 0.63053 0.91861 0.95413 0.0
H1082 H 0.65035 0.95877 0.9764 0.0
H1083 H 0.7295 0.96332 1.0049 0.0
H1084 H 0.80164 0.0923 0.06065 0.0
H1085 H 0.78232 0.05208 0.03846 0.0
C1086 C 0.70026 0.77647 0.38506 0.0
C1087 C 0.69445 0.75881 0.39981 0.0
C1088 C 0.71039 0.76796 0.37085 0.0
C1089 C 0.71379 0.69819 0.35237 0.0
H1090 H 0.76089 0.76137 0.31835 0.0
C1091 C 0.72262 0.657 0.28693 0.0
C1092 C 0.74936 0.67619 0.27708 0.0
C1093 C 0.71876 0.66811 0.30214 0.0
C1094 C 0.74809 0.74332 0.32775 0.0
H1095 H 0.69642 0.71888 0.41101 0.0
H1096 H 0.71562 0.70521 0.38663 0.0
H1097 H 0.75111 0.77935 0.34442 0.0
H1098 H 0.79346 0.72237 0.27616 0.0
H1099 H 0.78735 0.74126 0.30303 0.0
H1100 H 0.71185 0.66235 0.33603 0.0
C1101 C 0.71124 0.72505 0.38584 0.0
C1102 C 0.74197 0.75364 0.34273 0.0
C1103 C 0.70069 0.73331 0.40003 0.0
C1104 C 0.77255 0.70673 0.28327 0.0
C1105 C 0.76881 0.71778 0.29869 0.0
C1106 C 0.72026 0.68796 0.33751 0.0
C1107 C 0.71563 0.74177 0.37087 0.0
C1108 C 0.72426 0.73119 0.35524 0.0
C1109 C 0.74175 0.69864 0.30838 0.0
C1110 C 0.73701 0.71021 0.32478 0.0
H1111 H 0.6965 0.79674 0.38434 0.0
H1112 H 0.71311 0.78146 0.35969 0.0
H1113 H 0.6998 0.67985 0.36144 0.0
H1114 H 0.70447 0.63298 0.28299 0.0
H1115 H 0.69729 0.65266 0.3089 0.0
C1116 C 0.0914 0.77361 0.6281 0.0
C1117 C 0.08185 0.75315 0.6142 0.0
C1118 C 0.07362 0.76386 0.64266 0.0
C1119 C 0.01498 0.68953 0.66504 0.0
H1120 H 1.00387 0.74946 0.692 0.0
C1121 C 0.93065 0.64454 0.72091 0.0
C1122 C 0.93795 0.66439 0.73495 0.0
C1123 C 0.94866 0.65608 0.70653 0.0
C1124 C 1.00707 0.73243 0.68479 0.0
H1125 H 0.04546 0.70638 0.60484 0.0
H1126 H 0.01434 0.68952 0.6301 0.0
H1127 H 0.03316 0.76823 0.66624 0.0
H1128 H 0.97088 0.71223 0.74468 0.0
H1129 H 1.00286 0.73218 0.71971 0.0
H1130 H 0.9894 0.65384 0.68358 0.0
C1131 C 0.03582 0.7131 0.62979 0.0
C1132 C 0.02385 0.74322 0.66992 0.0
C1133 C 0.05348 0.72296 0.61518 0.0
C1134 C 0.96444 0.69611 0.7342 0.0
C1135 C 0.98262 0.7077 0.71975 0.0
C1136 C 0.99841 0.6788 0.67992 0.0
C1137 C 0.04582 0.7332 0.64384 0.0
C1138 C 0.02789 0.72187 0.65975 0.0
C1139 C 0.97495 0.68787 0.70564 0.0
C1140 C 0.99391 0.69996 0.69002 0.0
H1141 H 0.11296 0.79712 0.62782 0.0
H1142 H 0.08226 0.78 0.65317 0.0
H1143 H 0.01811 0.67248 0.6578 0.0
H1144 H 0.91093 0.61975 0.72098 0.0
H1145 H 0.94154 0.64002 0.696 0.0
C1146 C 0.24055 0.92838 0.05404 0.0
C1147 C 0.25929 0.91695 0.06059 0.0
C1148 C 0.25199 0.95155 0.04133 0.0
C1149 C 0.32546 0.01349 0.02006 0.0
H1150 H 0.26935 0.99974 0.98366 0.0
C1151 C 0.37195 0.09104 0.96068 0.0
C1152 C 0.3524 0.09978 0.95255 0.0
C1153 C 0.36024 0.06814 0.97347 0.0
C1154 C 0.28533 1.00435 0.99378 0.0
H1155 H 0.30458 0.92072 0.0591 0.0
H1156 H 0.32493 0.96161 0.03719 0.0
H1157 H 0.25013 0.96291 0.00714 0.0
H1158 H 0.30537 0.09182 0.95155 0.0
H1159 H 0.28475 0.05208 0.97396 0.0
H1160 H 0.36055 0.05511 0.0069 0.0
C1161 C 0.30149 0.95303 0.04189 0.0
C1162 C 0.27424 0.98309 0.00731 0.0
C1163 C 0.28992 0.92966 0.05448 0.0
C1164 C 0.32073 0.08489 0.95735 0.0
C1165 C 0.309 0.06212 0.97025 0.0
C1166 C 0.33649 0.03488 0.0066 0.0
C1167 C 0.28251 0.96393 0.0349 0.0
C1168 C 0.29415 0.98724 0.02065 0.0
C1169 C 0.32867 0.05365 0.97871 0.0
C1170 C 0.31669 0.03064 0.99316 0.0
H1171 H 0.21665 0.91851 0.05836 0.0
H1172 H 0.23676 0.95953 0.03643 0.0
H1173 H 0.34143 0.01782 0.03015 0.0
H1174 H 0.39658 0.10251 0.95734 0.0
H1175 H 0.37613 0.06202 0.97934 0.0
C1176 C 0.94892 0.25564 0.1194 0.0
C1177 C 0.92317 0.25753 0.12533 0.0
C1178 C 0.97681 0.26783 0.12868 0.0
C1179 C 0.02205 0.32597 0.16245 0.0
H1180 H 0.06559 0.27838 0.16562 0.0
C1181 C 0.1477 0.3816 0.19076 0.0
C1182 C 0.15406 0.36139 0.20047 0.0
C1183 C 0.11897 0.36897 0.18233 0.0
C1184 C 0.05365 0.29193 0.16497 0.0
H1185 H 0.90697 0.27299 0.14632 0.0
H1186 H 0.95536 0.29472 0.16205 0.0
H1187 H 0.01737 0.2563 0.14925 0.0
H1188 H 0.13493 0.31218 0.20917 0.0
H1189 H 0.08468 0.28995 0.19444 0.0
H1190 H 0.05831 0.36162 0.17812 0.0
C1191 C 0.9542 0.28422 0.15009 0.0
C1192 C 0.02612 0.2794 0.1554 0.0
C1193 C 0.92631 0.27179 0.14094 0.0
C1194 C 0.13061 0.32836 0.20187 0.0
C1195 C 0.10198 0.31561 0.19328 0.0
C1196 C 0.04976 0.33867 0.17184 0.0
C1197 C 0.97995 0.28255 0.14413 0.0
C1198 C 1.0098 0.29616 0.15404 0.0
C1199 C 0.09586 0.33564 0.1832 0.0
C1200 C 0.06597 0.32182 0.17331 0.0
H1201 H 0.94784 0.24521 0.10744 0.0
H1202 H 0.99618 0.2663 0.12359 0.0
H1203 H 1.0104 0.33977 0.16162 0.0
H1204 H 0.16546 0.40705 0.18925 0.0
H1205 H 0.11535 0.38516 0.17462 0.0
C1206 C 0.79009 0.13337 0.52235 0.0
C1207 C 0.80176 0.13686 0.53848 0.0
C1208 C 0.77404 0.1028 0.51459 0.0
C1209 C 0.73186 0.0128 0.52237 0.0
H1210 H 0.74785 1.00865 0.47605 0.0
C1211 C 0.66037 0.89266 0.48442 0.0
C1212 C 0.67671 0.88528 0.47275 0.0
C1213 C 0.67485 0.92326 0.49221 0.0
C1214 C 0.74312 0.00915 0.48901 0.0
H1215 H 0.80489 0.1105 0.55921 0.0
H1216 H 0.77664 0.05697 0.5458 0.0
H1217 H 0.77412 0.06091 0.49023 0.0
H1218 H 0.72117 0.90437 0.46017 0.0
H1219 H 0.74644 0.95786 0.47351 0.0
H1220 H 0.70114 0.96094 0.52117 0.0
C1221 C 0.77981 0.07792 0.53908 0.0
C1222 C 0.75802 0.0394 0.49716 0.0
C1223 C 0.79608 0.10866 0.54682 0.0
C1224 C 0.70779 0.90949 0.4689 0.0
C1225 C 0.72225 0.94021 0.4766 0.0
C1226 C 0.71676 0.98256 0.51418 0.0
C1227 C 0.76888 0.07448 0.52271 0.0
C1228 C 0.75272 0.04185 0.51401 0.0
C1229 C 0.70619 0.94758 0.48856 0.0
C1230 C 0.72213 0.98012 0.49733 0.0
H1231 H 0.79394 0.15456 0.51559 0.0
H1232 H 0.76562 0.10141 0.50216 0.0
H1233 H 0.72681 0.0134 0.53527 0.0
H1234 H 0.63652 0.8744 0.4878 0.0
H1235 H 0.66139 0.92783 0.50113 0.0
C1236 C 0.81035 0.68541 0.80859 0.0
C1237 C 0.80006 0.65216 0.80968 0.0
C1238 C 0.79504 0.69855 0.81739 0.0
C1239 C 0.73975 0.67952 0.8531 0.0
H1240 H 0.73793 0.75482 0.83752 0.0
C1241 C 0.66492 0.72625 0.8847 0.0
C1242 C 0.67837 0.76008 0.88646 0.0
C1243 C 0.68009 0.71344 0.87555 0.0
C1244 C 0.73846 0.73396 0.84215 0.0
H1245 H 0.76489 0.60645 0.82042 0.0
H1246 H 0.73723 0.62872 0.83506 0.0
H1247 H 0.76204 0.73154 0.8206 0.0
H1248 H 0.71864 0.80683 0.87985 0.0
H1249 H 0.74503 0.78452 0.86384 0.0
H1250 H 0.71555 0.68166 0.8745 0.0
C1251 C 0.75776 0.64514 0.82789 0.0
C1252 C 0.75242 0.72053 0.83242 0.0
C1253 C 0.77331 0.63214 0.81925 0.0
C1254 C 0.70767 0.78068 0.87892 0.0
C1255 C 0.72266 0.76786 0.86957 0.0
C1256 C 0.72549 0.69272 0.86272 0.0
C1257 C 0.76871 0.67874 0.82743 0.0
C1258 C 0.75336 0.69303 0.83771 0.0
C1259 C 0.70903 0.73402 0.86768 0.0
C1260 C 0.72464 0.72018 0.85743 0.0
H1261 H 0.83109 0.70148 0.80144 0.0
H1262 H 0.80466 0.72451 0.81674 0.0
H1263 H 0.74049 0.65893 0.85795 0.0
H1264 H 0.6425 0.70957 0.89038 0.0
H1265 H 0.6687 0.6873 0.87433 0.0
C1266 C 0.87268 0.6237 0.1906 0.0
C1267 C 0.86688 0.64352 0.20088 0.0
C1268 C 0.90154 0.63644 0.18224 0.0
C1269 C 0.98379 0.71069 0.17944 0.0
H1270 H 0.98189 0.6762 0.13609 0.0
C1271 C 0.0886 0.77565 0.13326 0.0
C1272 C 0.09774 0.75596 0.12508 0.0
C1273 C 0.06068 0.76176 0.14257 0.0
C1274 C 0.98295 0.68603 0.14822 0.0
H1275 H 0.88693 0.69201 0.21076 0.0
H1276 H 0.93675 0.71457 0.19604 0.0
H1277 H 0.93402 0.65224 0.15252 0.0
H1278 H 0.08377 0.70598 0.11995 0.0
H1279 H 0.03496 0.68186 0.13585 0.0
H1280 H 0.03266 0.74515 0.17477 0.0
C1281 C 0.91964 0.68895 0.19458 0.0
C1282 C 0.95538 0.67209 0.15778 0.0
C1283 C 0.89096 0.67606 0.20309 0.0
C1284 C 0.07765 0.72196 0.12613 0.0
C1285 C 0.04951 0.70809 0.1352 0.0
C1286 C 1.01123 0.72491 0.16976 0.0
C1287 C 0.92532 0.66956 0.18373 0.0
C1288 C 0.95521 0.68409 0.17361 0.0
C1289 C 0.04076 0.72774 0.14375 0.0
C1290 C 1.01128 0.71279 0.154 0.0
H1291 H 0.85444 0.59859 0.18858 0.0
H1292 H 0.90491 0.62027 0.1744 0.0
H1293 H 0.98522 0.72049 0.1916 0.0
H1294 H 0.10354 0.80188 0.13289 0.0
H1295 H 0.05465 0.77772 0.14884 0.0
C1296 C 0.23588 0.88718 0.52174 0.0
C1297 C 0.22506 0.88418 0.53802 0.0
C1298 C 0.2519 0.91758 0.51381 0.0
C1299 C 0.29558 1.00783 0.52114 0.0
H1300 H 0.27757 0.01129 0.47504 0.0
C1301 C 0.36641 0.12712 0.48244 0.0
C1302 C 0.3498 0.13449 0.47091 0.0
C1303 C 0.35198 0.09668 0.4904 0.0
C1304 C 0.28287 0.01099 0.48793 0.0
H1305 H 0.22346 0.91129 0.55882 0.0
H1306 H 0.25167 0.9645 0.54511 0.0
H1307 H 0.2514 0.95935 0.48949 0.0
H1308 H 0.3049 0.11548 0.45876 0.0
H1309 H 0.2797 0.06232 0.4724 0.0
H1310 H 0.32678 0.05959 0.51961 0.0
C1311 C 0.24784 0.94328 0.5384 0.0
C1312 C 0.26802 0.98092 0.49624 0.0
C1313 C 0.23159 0.91272 0.54632 0.0
C1314 C 0.31849 0.11039 0.46737 0.0
C1315 C 0.30407 0.07985 0.47525 0.0
C1316 C 0.31063 0.03791 0.51279 0.0
C1317 C 0.2579 0.94624 0.52189 0.0
C1318 C 0.27403 0.9787 0.51302 0.0
C1319 C 0.32041 0.0725 0.48707 0.0
C1320 C 0.30454 0.04011 0.49601 0.0
H1321 H 0.2314 0.86573 0.515 0.0
H1322 H 0.25964 0.91856 0.50126 0.0
H1323 H 0.30119 1.00743 0.53397 0.0
H1324 H 0.39046 0.14527 0.48557 0.0
H1325 H 0.36567 0.09213 0.49919 0.0
C1326 C 0.23484 0.34781 0.80428 0.0
C1327 C 0.2245 0.36623 0.81267 0.0
C1328 C 0.25068 0.33474 0.81272 0.0
C1329 C 0.25869 0.30779 0.85408 0.0
H1330 H 0.33565 0.31583 0.83761 0.0
C1331 C 0.3294 0.26472 0.89313 0.0
C1332 C 0.34784 0.25447 0.88503 0.0
C1333 C 0.31441 0.2782 0.88427 0.0
C1334 C 0.31385 0.31264 0.84235 0.0
H1335 H 0.2235 0.386 0.83645 0.0
H1336 H 0.25026 0.36268 0.85116 0.0
H1337 H 0.30977 0.33883 0.82199 0.0
H1338 H 0.36378 0.24918 0.86109 0.0
H1339 H 0.33678 0.271 0.84565 0.0
H1340 H 0.26185 0.28075 0.87414 0.0
C1341 C 0.24616 0.35824 0.83808 0.0
C1342 C 0.29908 0.32612 0.83334 0.0
C1343 C 0.23094 0.37174 0.82962 0.0
C1344 C 0.35018 0.25729 0.86779 0.0
C1345 C 0.33477 0.27015 0.85891 0.0
C1346 C 0.27309 0.29377 0.86295 0.0
C1347 C 0.25605 0.33931 0.82981 0.0
C1348 C 0.27141 0.32411 0.83913 0.0
C1349 C 0.31686 0.28127 0.86695 0.0
C1350 C 0.3011 0.29604 0.85733 0.0
H1351 H 0.23011 0.343 0.79126 0.0
H1352 H 0.2579 0.32024 0.80596 0.0
H1353 H 0.23719 0.3054 0.85884 0.0
H1354 H 0.32727 0.26314 0.9064 0.0
H1355 H 0.30143 0.2868 0.89113 0.0
loop_
_geom_bond_atom_site_label_1
_geom_bond_atom_site_label_2
_geom_bond_distance
_geom_bond_site_symmetry_2
_ccdc_geom_bond_type
C0 C1 1.443 . S
C0 N4 1.376 . S
C0 C38 1.389 . S
C1 C0 1.443 . S
C1 C2 1.340 . S
C1 H41 0.951 . S
C2 C1 1.340 . S
C2 C3 1.439 . S
C2 H42 0.950 . S
C3 C2 1.439 . S
C3 N4 1.374 . S
C3 C37 1.395 . S
N4 C0 1.376 . S
N4 C3 1.374 . S
N4 Co5 2.008 . S
Co5 N4 2.008 . S
Co5 N6 1.995 . S
Co5 N11 2.008 . S
Co5 N16 1.995 . S
Co5 N21 2.282 . S
Co5 N27 2.282 . S
N6 Co5 1.995 . S
N6 C7 1.376 . S
N6 C10 1.383 . S
C7 N6 1.376 . S
C7 C8 1.446 . S
C7 C37 1.391 . S
C8 C7 1.446 . S
C8 C9 1.339 . S
C8 H43 0.949 . S
C9 C8 1.339 . S
C9 C10 1.439 . S
C9 H44 0.950 . S
C10 N6 1.383 . S
C10 C9 1.439 . S
C10 C39 1.392 . S
N11 Co5 2.008 . S
N11 C12 1.376 . S
N11 C15 1.374 . S
C12 N11 1.376 . S
C12 C13 1.443 . S
C12 C39 1.389 . S
C13 C12 1.443 . S
C13 C14 1.340 . S
C13 H45 0.951 . S
C14 C13 1.340 . S
C14 C15 1.439 . S
C14 H46 0.950 . S
C15 N11 1.374 . S
C15 C14 1.439 . S
C15 C40 1.395 . S
N16 Co5 1.995 . S
N16 C17 1.376 . S
N16 C20 1.383 . S
C17 N16 1.376 . S
C17 C18 1.446 . S
C17 C40 1.391 . S
C18 C17 1.446 . S
C18 C19 1.339 . S
C18 H47 0.949 . S
C19 C18 1.339 . S
C19 C20 1.439 . S
C19 H48 0.950 . S
C20 N16 1.383 . S
C20 C19 1.439 . S
C20 C38 1.392 . S
N21 Co5 2.282 . S
N21 C24 1.332 . S
N21 C26 1.332 . S
C22 C23 1.386 . S
C22 C25 1.388 . S
C23 C22 1.386 . S
C23 C24 1.382 . S
C23 H49 0.950 . S
C24 N21 1.332 . S
C24 C23 1.382 . S
C24 H35 0.952 . S
C25 C22 1.388 . S
C25 C26 1.382 . S
C25 H50 0.950 . S
C26 N21 1.332 . S
C26 C25 1.382 . S
C26 H36 0.948 . S
N27 Co5 2.282 . S
N27 C31 1.332 . S
N27 C32 1.332 . S
C28 C29 1.388 . S
C28 C32 1.382 . S
C28 H51 0.950 . S
C29 C28 1.388 . S
C29 C30 1.386 . S
C30 C29 1.386 . S
C30 C31 1.382 . S
C30 H52 0.950 . S
C31 N27 1.332 . S
C31 C30 1.382 . S
C31 H33 0.952 . S
C32 N27 1.332 . S
C32 C28 1.382 . S
C32 H34 0.948 . S
H33 C31 0.952 . S
H34 C32 0.948 . S
H35 C24 0.952 . S
H36 C26 0.948 . S
C37 C3 1.395 . S
C37 C7 1.391 . S
C38 C0 1.389 . S
C38 C20 1.392 . S
C39 C10 1.392 . S
C39 C12 1.389 . S
C40 C15 1.395 . S
C40 C17 1.391 . S
H41 C1 0.951 . S
H42 C2 0.950 . S
H43 C8 0.949 . S
H44 C9 0.950 . S
H45 C13 0.951 . S
H46 C14 0.950 . S
H47 C18 0.949 . S
H48 C19 0.950 . S
H49 C23 0.950 . S
H50 C25 0.950 . S
H51 C28 0.950 . S
H52 C30 0.950 . S
C53 C54 1.443 . S
C53 N57 1.376 . S
C53 C91 1.389 . S
C54 C53 1.443 . S
C54 C55 1.340 . S
C54 H94 0.951 . S
C55 C54 1.340 . S
C55 C56 1.439 . S
C55 H95 0.950 . S
C56 C55 1.439 . S
C56 N57 1.374 . S
C56 C90 1.395 . S
N57 C53 1.376 . S
N57 C56 1.374 . S
N57 Co58 2.008 . S
Co58 N57 2.008 . S
Co58 N59 1.995 . S
Co58 N64 2.008 . S
Co58 N69 1.995 . S
Co58 N74 2.282 . S
Co58 N80 2.282 . S
N59 Co58 1.995 . S
N59 C60 1.376 . S
N59 C63 1.383 . S
C60 N59 1.376 . S
C60 C61 1.446 . S
C60 C90 1.391 . S
C61 C60 1.446 . S
C61 C62 1.339 . S
C61 H96 0.949 . S
C62 C61 1.339 . S
C62 C63 1.439 . S
C62 H97 0.950 . S
C63 N59 1.383 . S
C63 C62 1.439 . S
C63 C92 1.392 . S
N64 Co58 2.008 . S
N64 C65 1.376 . S
N64 C68 1.374 . S
C65 N64 1.376 . S
C65 C66 1.443 . S
C65 C92 1.389 . S
C66 C65 1.443 . S
C66 C67 1.340 . S
C66 H98 0.951 . S
C67 C66 1.340 . S
C67 C68 1.439 . S
C67 H99 0.950 . S
C68 N64 1.374 . S
C68 C67 1.439 . S
C68 C93 1.395 . S
N69 Co58 1.995 . S
N69 C70 1.376 . S
N69 C73 1.383 . S
C70 N69 1.376 . S
C70 C71 1.446 . S
C70 C93 1.391 . S
C71 C70 1.446 . S
C71 C72 1.339 . S
C71 H100 0.949 . S
C72 C71 1.339 . S
C72 C73 1.439 . S
C72 H101 0.950 . S
C73 N69 1.383 . S
C73 C72 1.439 . S
C73 C91 1.392 . S
N74 Co58 2.282 . S
N74 C77 1.332 . S
N74 C79 1.332 . S
C75 C76 1.386 . S
C75 C78 1.388 . S
C76 C75 1.386 . S
C76 C77 1.382 . S
C76 H102 0.950 . S
C77 N74 1.332 . S
C77 C76 1.382 . S
C77 H88 0.952 . S
C78 C75 1.388 . S
C78 C79 1.382 . S
C78 H103 0.950 . S
C79 N74 1.332 . S
C79 C78 1.382 . S
C79 H89 0.948 . S
N80 Co58 2.282 . S
N80 C84 1.332 . S
N80 C85 1.332 . S
C81 C82 1.388 . S
C81 C85 1.382 . S
C81 H104 0.950 . S
C82 C81 1.388 . S
C82 C83 1.386 . S
C83 C82 1.386 . S
C83 C84 1.382 . S
C83 H105 0.950 . S
C84 N80 1.332 . S
C84 C83 1.382 . S
C84 H86 0.952 . S
C85 N80 1.332 . S
C85 C81 1.382 . S
C85 H87 0.948 . S
H86 C84 0.952 . S
H87 C85 0.948 . S
H88 C77 0.952 . S
H89 C79 0.948 . S
C90 C56 1.395 . S
C90 C60 1.391 . S
C91 C53 1.389 . S
C91 C73 1.392 . S
C92 C63 1.392 . S
C92 C65 1.389 . S
C93 C68 1.395 . S
C93 C70 1.391 . S
H94 C54 0.951 . S
H95 C55 0.950 . S
H96 C61 0.949 . S
H97 C62 0.950 . S
H98 C66 0.951 . S
H99 C67 0.950 . S
H100 C71 0.949 . S
H101 C72 0.950 . S
H102 C76 0.950 . S
H103 C78 0.950 . S
H104 C81 0.950 . S
H105 C83 0.950 . S
C106 C107 1.443 . S
C106 N110 1.376 . S
C106 C144 1.389 . S
C107 C106 1.443 . S
C107 C108 1.340 . S
C107 H147 0.951 . S
C108 C107 1.340 . S
C108 C109 1.439 . S
C108 H148 0.950 . S
C109 C108 1.439 . S
C109 N110 1.374 . S
C109 C143 1.395 . S
N110 C106 1.376 . S
N110 C109 1.374 . S
N110 Co111 2.008 . S
Co111 N110 2.008 . S
Co111 N112 1.995 . S
Co111 N117 2.008 . S
Co111 N122 1.995 . S
Co111 N127 2.282 . S
Co111 N133 2.282 . S
N112 Co111 1.995 . S
N112 C113 1.376 . S
N112 C116 1.383 . S
C113 N112 1.376 . S
C113 C114 1.446 . S
C113 C143 1.391 . S
C114 C113 1.446 . S
C114 C115 1.339 . S
C114 H149 0.949 . S
C115 C114 1.339 . S
C115 C116 1.439 . S
C115 H150 0.950 . S
C116 N112 1.383 . S
C116 C115 1.439 . S
C116 C145 1.392 . S
N117 Co111 2.008 . S
N117 C118 1.376 . S
N117 C121 1.374 . S
C118 N117 1.376 . S
C118 C119 1.443 . S
C118 C145 1.389 . S
C119 C118 1.443 . S
C119 C120 1.340 . S
C119 H151 0.951 . S
C120 C119 1.340 . S
C120 C121 1.439 . S
C120 H152 0.950 . S
C121 N117 1.374 . S
C121 C120 1.439 . S
C121 C146 1.395 . S
N122 Co111 1.995 . S
N122 C123 1.376 . S
N122 C126 1.383 . S
C123 N122 1.376 . S
C123 C124 1.446 . S
C123 C146 1.391 . S
C124 C123 1.446 . S
C124 C125 1.339 . S
C124 H153 0.949 . S
C125 C124 1.339 . S
C125 C126 1.439 . S
C125 H154 0.950 . S
C126 N122 1.383 . S
C126 C125 1.439 . S
C126 C144 1.392 . S
N127 Co111 2.282 . S
N127 C130 1.332 . S
N127 C132 1.332 . S
C128 C129 1.386 . S
C128 C131 1.388 . S
C129 C128 1.386 . S
C129 C130 1.382 . S
C129 H155 0.950 . S
C130 N127 1.332 . S
C130 C129 1.382 . S
C130 H141 0.952 . S
C131 C128 1.388 . S
C131 C132 1.382 . S
C131 H156 0.950 . S
C132 N127 1.332 . S
C132 C131 1.382 . S
C132 H142 0.948 . S
N133 Co111 2.282 . S
N133 C137 1.332 . S
N133 C138 1.332 . S
C134 C135 1.388 . S
C134 C138 1.382 . S
C134 H157 0.950 . S
C135 C134 1.388 . S
C135 C136 1.386 . S
C136 C135 1.386 . S
C136 C137 1.382 . S
C136 H158 0.950 . S
C137 N133 1.332 . S
C137 C136 1.382 . S
C137 H139 0.952 . S
C138 N133 1.332 . S
C138 C134 1.382 . S
C138 H140 0.948 . S
H139 C137 0.952 . S
H140 C138 0.948 . S
H141 C130 0.952 . S
H142 C132 0.948 . S
C143 C109 1.395 . S
C143 C113 1.391 . S
C144 C106 1.389 . S
C144 C126 1.392 . S
C145 C116 1.392 . S
C145 C118 1.389 . S
C146 C121 1.395 . S
C146 C123 1.391 . S
H147 C107 0.951 . S
H148 C108 0.950 . S
H149 C114 0.949 . S
H150 C115 0.950 . S
H151 C119 0.951 . S
H152 C120 0.950 . S
H153 C124 0.949 . S
H154 C125 0.950 . S
H155 C129 0.950 . S
H156 C131 0.950 . S
H157 C134 0.950 . S
H158 C136 0.950 . S
C159 C160 1.443 . S
C159 N163 1.376 . S
C159 C197 1.389 . S
C160 C159 1.443 . S
C160 C161 1.340 . S
C160 H200 0.951 . S
C161 C160 1.340 . S
C161 C162 1.439 . S
C161 H201 0.950 . S
C162 C161 1.439 . S
C162 N163 1.374 . S
C162 C196 1.395 . S
N163 C159 1.376 . S
N163 C162 1.374 . S
N163 Co164 2.008 . S
Co164 N163 2.008 . S
Co164 N165 1.995 . S
Co164 N170 2.008 . S
Co164 N175 1.995 . S
Co164 N180 2.282 . S
Co164 N186 2.282 . S
N165 Co164 1.995 . S
N165 C166 1.376 . S
N165 C169 1.383 . S
C166 N165 1.376 . S
C166 C167 1.446 . S
C166 C196 1.391 . S
C167 C166 1.446 . S
C167 C168 1.339 . S
C167 H202 0.949 . S
C168 C167 1.339 . S
C168 C169 1.439 . S
C168 H203 0.950 . S
C169 N165 1.383 . S
C169 C168 1.439 . S
C169 C198 1.392 . S
N170 Co164 2.008 . S
N170 C171 1.376 . S
N170 C174 1.374 . S
C171 N170 1.376 . S
C171 C172 1.443 . S
C171 C198 1.389 . S
C172 C171 1.443 . S
C172 C173 1.340 . S
C172 H204 0.951 . S
C173 C172 1.340 . S
C173 C174 1.439 . S
C173 H205 0.950 . S
C174 N170 1.374 . S
C174 C173 1.439 . S
C174 C199 1.395 . S
N175 Co164 1.995 . S
N175 C176 1.376 . S
N175 C179 1.383 . S
C176 N175 1.376 . S
C176 C177 1.446 . S
C176 C199 1.391 . S
C177 C176 1.446 . S
C177 C178 1.339 . S
C177 H206 0.949 . S
C178 C177 1.339 . S
C178 C179 1.439 . S
C178 H207 0.950 . S
C179 N175 1.383 . S
C179 C178 1.439 . S
C179 C197 1.392 . S
N180 Co164 2.282 . S
N180 C183 1.332 . S
N180 C185 1.332 . S
C181 C182 1.386 . S
C181 C184 1.388 . S
C182 C181 1.386 . S
C182 C183 1.382 . S
C182 H208 0.950 . S
C183 N180 1.332 . S
C183 C182 1.382 . S
C183 H194 0.952 . S
C184 C181 1.388 . S
C184 C185 1.382 . S
C184 H209 0.950 . S
C185 N180 1.332 . S
C185 C184 1.382 . S
C185 H195 0.948 . S
N186 Co164 2.282 . S
N186 C190 1.332 . S
N186 C191 1.332 . S
C187 C188 1.388 . S
C187 C191 1.382 . S
C187 H210 0.950 . S
C188 C187 1.388 . S
C188 C189 1.386 . S
C189 C188 1.386 . S
C189 C190 1.382 . S
C189 H211 0.950 . S
C190 N186 1.332 . S
C190 C189 1.382 . S
C190 H192 0.952 . S
C191 N186 1.332 . S
C191 C187 1.382 . S
C191 H193 0.948 . S
H192 C190 0.952 . S
H193 C191 0.948 . S
H194 C183 0.952 . S
H195 C185 0.948 . S
C196 C162 1.395 . S
C196 C166 1.391 . S
C197 C159 1.389 . S
C197 C179 1.392 . S
C198 C169 1.392 . S
C198 C171 1.389 . S
C199 C174 1.395 . S
C199 C176 1.391 . S
H200 C160 0.951 . S
H201 C161 0.950 . S
H202 C167 0.949 . S
H203 C168 0.950 . S
H204 C172 0.951 . S
H205 C173 0.950 . S
H206 C177 0.949 . S
H207 C178 0.950 . S
H208 C182 0.950 . S
H209 C184 0.950 . S
H210 C187 0.950 . S
H211 C189 0.950 . S
C212 C213 1.443 . S
C212 N216 1.376 . S
C212 C250 1.389 . S
C213 C212 1.443 . S
C213 C214 1.340 . S
C213 H253 0.951 . S
C214 C213 1.340 . S
C214 C215 1.439 . S
C214 H254 0.950 . S
C215 C214 1.439 . S
C215 N216 1.374 . S
C215 C249 1.395 . S
N216 C212 1.376 . S
N216 C215 1.374 . S
N216 Co217 2.008 . S
Co217 N216 2.008 . S
Co217 N218 1.995 . S
Co217 N223 2.008 . S
Co217 N228 1.995 . S
Co217 N233 2.282 . S
Co217 N239 2.282 . S
N218 Co217 1.995 . S
N218 C219 1.376 . S
N218 C222 1.383 . S
C219 N218 1.376 . S
C219 C220 1.446 . S
C219 C249 1.391 . S
C220 C219 1.446 . S
C220 C221 1.339 . S
C220 H255 0.949 . S
C221 C220 1.339 . S
C221 C222 1.439 . S
C221 H256 0.950 . S
C222 N218 1.383 . S
C222 C221 1.439 . S
C222 C251 1.392 . S
N223 Co217 2.008 . S
N223 C224 1.376 . S
N223 C227 1.374 . S
C224 N223 1.376 . S
C224 C225 1.443 . S
C224 C251 1.389 . S
C225 C224 1.443 . S
C225 C226 1.340 . S
C225 H257 0.951 . S
C226 C225 1.340 . S
C226 C227 1.439 . S
C226 H258 0.950 . S
C227 N223 1.374 . S
C227 C226 1.439 . S
C227 C252 1.395 . S
N228 Co217 1.995 . S
N228 C229 1.376 . S
N228 C232 1.383 . S
C229 N228 1.376 . S
C229 C230 1.446 . S
C229 C252 1.391 . S
C230 C229 1.446 . S
C230 C231 1.339 . S
C230 H259 0.949 . S
C231 C230 1.339 . S
C231 C232 1.439 . S
C231 H260 0.950 . S
C232 N228 1.383 . S
C232 C231 1.439 . S
C232 C250 1.392 . S
N233 Co217 2.282 . S
N233 C236 1.332 . S
N233 C238 1.332 . S
C234 C235 1.386 . S
C234 C237 1.388 . S
C235 C234 1.386 . S
C235 C236 1.382 . S
C235 H261 0.950 . S
C236 N233 1.332 . S
C236 C235 1.382 . S
C236 H247 0.952 . S
C237 C234 1.388 . S
C237 C238 1.382 . S
C237 H262 0.950 . S
C238 N233 1.332 . S
C238 C237 1.382 . S
C238 H248 0.948 . S
N239 Co217 2.282 . S
N239 C243 1.332 . S
N239 C244 1.332 . S
C240 C241 1.388 . S
C240 C244 1.382 . S
C240 H263 0.950 . S
C241 C240 1.388 . S
C241 C242 1.386 . S
C242 C241 1.386 . S
C242 C243 1.382 . S
C242 H264 0.950 . S
C243 N239 1.332 . S
C243 C242 1.382 . S
C243 H245 0.952 . S
C244 N239 1.332 . S
C244 C240 1.382 . S
C244 H246 0.948 . S
H245 C243 0.952 . S
H246 C244 0.948 . S
H247 C236 0.952 . S
H248 C238 0.948 . S
C249 C215 1.395 . S
C249 C219 1.391 . S
C250 C212 1.389 . S
C250 C232 1.392 . S
C251 C222 1.392 . S
C251 C224 1.389 . S
C252 C227 1.395 . S
C252 C229 1.391 . S
H253 C213 0.951 . S
H254 C214 0.950 . S
H255 C220 0.949 . S
H256 C221 0.950 . S
H257 C225 0.951 . S
H258 C226 0.950 . S
H259 C230 0.949 . S
H260 C231 0.950 . S
H261 C235 0.950 . S
H262 C237 0.950 . S
H263 C240 0.950 . S
H264 C242 0.950 . S
C265 C266 1.443 . S
C265 N269 1.376 . S
C265 C303 1.389 . S
C266 C265 1.443 . S
C266 C267 1.340 . S
C266 H306 0.951 . S
C267 C266 1.340 . S
C267 C268 1.439 . S
C267 H307 0.950 . S
C268 C267 1.439 . S
C268 N269 1.374 . S
C268 C302 1.395 . S
N269 C265 1.376 . S
N269 C268 1.374 . S
N269 Co270 2.008 . S
Co270 N269 2.008 . S
Co270 N271 1.995 . S
Co270 N276 2.008 . S
Co270 N281 1.995 . S
Co270 N286 2.282 . S
Co270 N292 2.282 . S
N271 Co270 1.995 . S
N271 C272 1.376 . S
N271 C275 1.383 . S
C272 N271 1.376 . S
C272 C273 1.446 . S
C272 C302 1.391 . S
C273 C272 1.446 . S
C273 C274 1.339 . S
C273 H308 0.949 . S
C274 C273 1.339 . S
C274 C275 1.439 . S
C274 H309 0.950 . S
C275 N271 1.383 . S
C275 C274 1.439 . S
C275 C304 1.392 . S
N276 Co270 2.008 . S
N276 C277 1.376 . S
N276 C280 1.374 . S
C277 N276 1.376 . S
C277 C278 1.443 . S
C277 C304 1.389 . S
C278 C277 1.443 . S
C278 C279 1.340 . S
C278 H310 0.951 . S
C279 C278 1.340 . S
C279 C280 1.439 . S
C279 H311 0.950 . S
C280 N276 1.374 . S
C280 C279 1.439 . S
C280 C305 1.395 . S
N281 Co270 1.995 . S
N281 C282 1.376 . S
N281 C285 1.383 . S
C282 N281 1.376 . S
C282 C283 1.446 . S
C282 C305 1.391 . S
C283 C282 1.446 . S
C283 C284 1.339 . S
C283 H312 0.949 . S
C284 C283 1.339 . S
C284 C285 1.439 . S
C284 H313 0.950 . S
C285 N281 1.383 . S
C285 C284 1.439 . S
C285 C303 1.392 . S
N286 Co270 2.282 . S
N286 C289 1.332 . S
N286 C291 1.332 . S
C287 C288 1.386 . S
C287 C290 1.388 . S
C288 C287 1.386 . S
C288 C289 1.382 . S
C288 H314 0.950 . S
C289 N286 1.332 . S
C289 C288 1.382 . S
C289 H300 0.952 . S
C290 C287 1.388 . S
C290 C291 1.382 . S
C290 H315 0.950 . S
C291 N286 1.332 . S
C291 C290 1.382 . S
C291 H301 0.948 . S
N292 Co270 2.282 . S
N292 C296 1.332 . S
N292 C297 1.332 . S
C293 C294 1.388 . S
C293 C297 1.382 . S
C293 H316 0.950 . S
C294 C293 1.388 . S
C294 C295 1.386 . S
C295 C294 1.386 . S
C295 C296 1.382 . S
C295 H317 0.950 . S
C296 N292 1.332 . S
C296 C295 1.382 . S
C296 H298 0.952 . S
C297 N292 1.332 . S
C297 C293 1.382 . S
C297 H299 0.948 . S
H298 C296 0.952 . S
H299 C297 0.948 . S
H300 C289 0.952 . S
H301 C291 0.948 . S
C302 C268 1.395 . S
C302 C272 1.391 . S
C303 C265 1.389 . S
C303 C285 1.392 . S
C304 C275 1.392 . S
C304 C277 1.389 . S
C305 C280 1.395 . S
C305 C282 1.391 . S
H306 C266 0.951 . S
H307 C267 0.950 . S
H308 C273 0.949 . S
H309 C274 0.950 . S
H310 C278 0.951 . S
H311 C279 0.950 . S
H312 C283 0.949 . S
H313 C284 0.950 . S
H314 C288 0.950 . S
H315 C290 0.950 . S
H316 C293 0.950 . S
H317 C295 0.950 . S
C318 C319 1.443 . S
C318 N322 1.376 . S
C318 C356 1.389 . S
C319 C318 1.443 . S
C319 C320 1.340 . S
C319 H359 0.951 . S
C320 C319 1.340 . S
C320 C321 1.439 . S
C320 H360 0.950 . S
C321 C320 1.439 . S
C321 N322 1.374 . S
C321 C355 1.395 . S
N322 C318 1.376 . S
N322 C321 1.374 . S
N322 Co323 2.008 . S
Co323 N322 2.008 . S
Co323 N324 1.995 . S
Co323 N329 2.008 . S
Co323 N334 1.995 . S
Co323 N339 2.282 . S
Co323 N345 2.282 . S
N324 Co323 1.995 . S
N324 C325 1.376 . S
N324 C328 1.383 . S
C325 N324 1.376 . S
C325 C326 1.446 . S
C325 C355 1.391 . S
C326 C325 1.446 . S
C326 C327 1.339 . S
C326 H361 0.949 . S
C327 C326 1.339 . S
C327 C328 1.439 . S
C327 H362 0.950 . S
C328 N324 1.383 . S
C328 C327 1.439 . S
C328 C357 1.392 . S
N329 Co323 2.008 . S
N329 C330 1.376 . S
N329 C333 1.374 . S
C330 N329 1.376 . S
C330 C331 1.443 . S
C330 C357 1.389 . S
C331 C330 1.443 . S
C331 C332 1.340 . S
C331 H363 0.951 . S
C332 C331 1.340 . S
C332 C333 1.439 . S
C332 H364 0.950 . S
C333 N329 1.374 . S
C333 C332 1.439 . S
C333 C358 1.395 . S
N334 Co323 1.995 . S
N334 C335 1.376 . S
N334 C338 1.383 . S
C335 N334 1.376 . S
C335 C336 1.446 . S
C335 C358 1.391 . S
C336 C335 1.446 . S
C336 C337 1.339 . S
C336 H365 0.949 . S
C337 C336 1.339 . S
C337 C338 1.439 . S
C337 H366 0.950 . S
C338 N334 1.383 . S
C338 C337 1.439 . S
C338 C356 1.392 . S
N339 Co323 2.282 . S
N339 C342 1.332 . S
N339 C344 1.332 . S
C340 C341 1.386 . S
C340 C343 1.388 . S
C341 C340 1.386 . S
C341 C342 1.382 . S
C341 H367 0.950 . S
C342 N339 1.332 . S
C342 C341 1.382 . S
C342 H353 0.952 . S
C343 C340 1.388 . S
C343 C344 1.382 . S
C343 H368 0.950 . S
C344 N339 1.332 . S
C344 C343 1.382 . S
C344 H354 0.948 . S
N345 Co323 2.282 . S
N345 C349 1.332 . S
N345 C350 1.332 . S
C346 C347 1.388 . S
C346 C350 1.382 . S
C346 H369 0.950 . S
C347 C346 1.388 . S
C347 C348 1.386 . S
C348 C347 1.386 . S
C348 C349 1.382 . S
C348 H370 0.950 . S
C349 N345 1.332 . S
C349 C348 1.382 . S
C349 H351 0.952 . S
C350 N345 1.332 . S
C350 C346 1.382 . S
C350 H352 0.948 . S
H351 C349 0.952 . S
H352 C350 0.948 . S
H353 C342 0.952 . S
H354 C344 0.948 . S
C355 C321 1.395 . S
C355 C325 1.391 . S
C356 C318 1.389 . S
C356 C338 1.392 . S
C357 C328 1.392 . S
C357 C330 1.389 . S
C358 C333 1.395 . S
C358 C335 1.391 . S
H359 C319 0.951 . S
H360 C320 0.950 . S
H361 C326 0.949 . S
H362 C327 0.950 . S
H363 C331 0.951 . S
H364 C332 0.950 . S
H365 C336 0.949 . S
H366 C337 0.950 . S
H367 C341 0.950 . S
H368 C343 0.950 . S
H369 C346 0.950 . S
H370 C348 0.950 . S
C371 C372 1.443 . S
C371 N375 1.376 . S
C371 C409 1.389 . S
C372 C371 1.443 . S
C372 C373 1.340 . S
C372 H412 0.951 . S
C373 C372 1.340 . S
C373 C374 1.439 . S
C373 H413 0.950 . S
C374 C373 1.439 . S
C374 N375 1.374 . S
C374 C408 1.395 . S
N375 C371 1.376 . S
N375 C374 1.374 . S
N375 Co376 2.008 . S
Co376 N375 2.008 . S
Co376 N377 1.995 . S
Co376 N382 2.008 . S
Co376 N387 1.995 . S
Co376 N392 2.282 . S
Co376 N398 2.282 . S
N377 Co376 1.995 . S
N377 C378 1.376 . S
N377 C381 1.383 . S
C378 N377 1.376 . S
C378 C379 1.446 . S
C378 C408 1.391 . S
C379 C378 1.446 . S
C379 C380 1.339 . S
C379 H414 0.949 . S
C380 C379 1.339 . S
C380 C381 1.439 . S
C380 H415 0.950 . S
C381 N377 1.383 . S
C381 C380 1.439 . S
C381 C410 1.392 . S
N382 Co376 2.008 . S
N382 C383 1.376 . S
N382 C386 1.374 . S
C383 N382 1.376 . S
C383 C384 1.443 . S
C383 C410 1.389 . S
C384 C383 1.443 . S
C384 C385 1.340 . S
C384 H416 0.951 . S
C385 C384 1.340 . S
C385 C386 1.439 . S
C385 H417 0.950 . S
C386 N382 1.374 . S
C386 C385 1.439 . S
C386 C411 1.395 . S
N387 Co376 1.995 . S
N387 C388 1.376 . S
N387 C391 1.383 . S
C388 N387 1.376 . S
C388 C389 1.446 . S
C388 C411 1.391 . S
C389 C388 1.446 . S
C389 C390 1.339 . S
C389 H418 0.949 . S
C390 C389 1.339 . S
C390 C391 1.439 . S
C390 H419 0.950 . S
C391 N387 1.383 . S
C391 C390 1.439 . S
C391 C409 1.392 . S
N392 Co376 2.282 . S
N392 C395 1.332 . S
N392 C397 1.332 . S
C393 C394 1.386 . S
C393 C396 1.388 . S
C394 C393 1.386 . S
C394 C395 1.382 . S
C394 H420 0.950 . S
C395 N392 1.332 . S
C395 C394 1.382 . S
C395 H406 0.952 . S
C396 C393 1.388 . S
C396 C397 1.382 . S
C396 H421 0.950 . S
C397 N392 1.332 . S
C397 C396 1.382 . S
C397 H407 0.948 . S
N398 Co376 2.282 . S
N398 C402 1.332 . S
N398 C403 1.332 . S
C399 C400 1.388 . S
C399 C403 1.382 . S
C399 H422 0.950 . S
C400 C399 1.388 . S
C400 C401 1.386 . S
C401 C400 1.386 . S
C401 C402 1.382 . S
C401 H423 0.950 . S
C402 N398 1.332 . S
C402 C401 1.382 . S
C402 H404 0.952 . S
C403 N398 1.332 . S
C403 C399 1.382 . S
C403 H405 0.948 . S
H404 C402 0.952 . S
H405 C403 0.948 . S
H406 C395 0.952 . S
H407 C397 0.948 . S
C408 C374 1.395 . S
C408 C378 1.391 . S
C409 C371 1.389 . S
C409 C391 1.392 . S
C410 C381 1.392 . S
C410 C383 1.389 . S
C411 C386 1.395 . S
C411 C388 1.391 . S
H412 C372 0.951 . S
H413 C373 0.950 . S
H414 C379 0.949 . S
H415 C380 0.950 . S
H416 C384 0.951 . S
H417 C385 0.950 . S
H418 C389 0.949 . S
H419 C390 0.950 . S
H420 C394 0.950 . S
H421 C396 0.950 . S
H422 C399 0.950 . S
H423 C401 0.950 . S
C424 C425 1.443 . S
C424 N428 1.376 . S
C424 C462 1.389 . S
C425 C424 1.443 . S
C425 C426 1.340 . S
C425 H465 0.951 . S
C426 C425 1.340 . S
C426 C427 1.439 . S
C426 H466 0.950 . S
C427 C426 1.439 . S
C427 N428 1.374 . S
C427 C461 1.395 . S
N428 C424 1.376 . S
N428 C427 1.374 . S
N428 Co429 2.008 . S
Co429 N428 2.008 . S
Co429 N430 1.995 . S
Co429 N435 2.008 . S
Co429 N440 1.995 . S
Co429 N445 2.282 . S
Co429 N451 2.282 . S
N430 Co429 1.995 . S
N430 C431 1.376 . S
N430 C434 1.383 . S
C431 N430 1.376 . S
C431 C432 1.446 . S
C431 C461 1.391 . S
C432 C431 1.446 . S
C432 C433 1.339 . S
C432 H467 0.949 . S
C433 C432 1.339 . S
C433 C434 1.439 . S
C433 H468 0.950 . S
C434 N430 1.383 . S
C434 C433 1.439 . S
C434 C463 1.392 . S
N435 Co429 2.008 . S
N435 C436 1.376 . S
N435 C439 1.374 . S
C436 N435 1.376 . S
C436 C437 1.443 . S
C436 C463 1.389 . S
C437 C436 1.443 . S
C437 C438 1.340 . S
C437 H469 0.951 . S
C438 C437 1.340 . S
C438 C439 1.439 . S
C438 H470 0.950 . S
C439 N435 1.374 . S
C439 C438 1.439 . S
C439 C464 1.395 . S
N440 Co429 1.995 . S
N440 C441 1.376 . S
N440 C444 1.383 . S
C441 N440 1.376 . S
C441 C442 1.446 . S
C441 C464 1.391 . S
C442 C441 1.446 . S
C442 C443 1.339 . S
C442 H471 0.949 . S
C443 C442 1.339 . S
C443 C444 1.439 . S
C443 H472 0.950 . S
C444 N440 1.383 . S
C444 C443 1.439 . S
C444 C462 1.392 . S
N445 Co429 2.282 . S
N445 C448 1.332 . S
N445 C450 1.332 . S
C446 C447 1.386 . S
C446 C449 1.388 . S
C447 C446 1.386 . S
C447 C448 1.382 . S
C447 H473 0.950 . S
C448 N445 1.332 . S
C448 C447 1.382 . S
C448 H459 0.952 . S
C449 C446 1.388 . S
C449 C450 1.382 . S
C449 H474 0.950 . S
C450 N445 1.332 . S
C450 C449 1.382 . S
C450 H460 0.948 . S
N451 Co429 2.282 . S
N451 C455 1.332 . S
N451 C456 1.332 . S
C452 C453 1.388 . S
C452 C456 1.382 . S
C452 H475 0.950 . S
C453 C452 1.388 . S
C453 C454 1.386 . S
C454 C453 1.386 . S
C454 C455 1.382 . S
C454 H476 0.950 . S
C455 N451 1.332 . S
C455 C454 1.382 . S
C455 H457 0.952 . S
C456 N451 1.332 . S
C456 C452 1.382 . S
C456 H458 0.948 . S
H457 C455 0.952 . S
H458 C456 0.948 . S
H459 C448 0.952 . S
H460 C450 0.948 . S
C461 C427 1.395 . S
C461 C431 1.391 . S
C462 C424 1.389 . S
C462 C444 1.392 . S
C463 C434 1.392 . S
C463 C436 1.389 . S
C464 C439 1.395 . S
C464 C441 1.391 . S
H465 C425 0.951 . S
H466 C426 0.950 . S
H467 C432 0.949 . S
H468 C433 0.950 . S
H469 C437 0.951 . S
H470 C438 0.950 . S
H471 C442 0.949 . S
H472 C443 0.950 . S
H473 C447 0.950 . S
H474 C449 0.950 . S
H475 C452 0.950 . S
H476 C454 0.950 . S
C477 C478 1.443 . S
C477 N481 1.376 . S
C477 C515 1.389 . S
C478 C477 1.443 . S
C478 C479 1.340 . S
C478 H518 0.951 . S
C479 C478 1.340 . S
C479 C480 1.439 . S
C479 H519 0.950 . S
C480 C479 1.439 . S
C480 N481 1.374 . S
C480 C514 1.395 . S
N481 C477 1.376 . S
N481 C480 1.374 . S
N481 Co482 2.008 . S
Co482 N481 2.008 . S
Co482 N483 1.995 . S
Co482 N488 2.008 . S
Co482 N493 1.995 . S
Co482 N498 2.282 . S
Co482 N504 2.282 . S
N483 Co482 1.995 . S
N483 C484 1.376 . S
N483 C487 1.383 . S
C484 N483 1.376 . S
C484 C485 1.446 . S
C484 C514 1.391 . S
C485 C484 1.446 . S
C485 C486 1.339 . S
C485 H520 0.949 . S
C486 C485 1.339 . S
C486 C487 1.439 . S
C486 H521 0.950 . S
C487 N483 1.383 . S
C487 C486 1.439 . S
C487 C516 1.392 . S
N488 Co482 2.008 . S
N488 C489 1.376 . S
N488 C492 1.374 . S
C489 N488 1.376 . S
C489 C490 1.443 . S
C489 C516 1.389 . S
C490 C489 1.443 . S
C490 C491 1.340 . S
C490 H522 0.951 . S
C491 C490 1.340 . S
C491 C492 1.439 . S
C491 H523 0.950 . S
C492 N488 1.374 . S
C492 C491 1.439 . S
C492 C517 1.395 . S
N493 Co482 1.995 . S
N493 C494 1.376 . S
N493 C497 1.383 . S
C494 N493 1.376 . S
C494 C495 1.446 . S
C494 C517 1.391 . S
C495 C494 1.446 . S
C495 C496 1.339 . S
C495 H524 0.949 . S
C496 C495 1.339 . S
C496 C497 1.439 . S
C496 H525 0.950 . S
C497 N493 1.383 . S
C497 C496 1.439 . S
C497 C515 1.392 . S
N498 Co482 2.282 . S
N498 C501 1.332 . S
N498 C503 1.332 . S
C499 C500 1.386 . S
C499 C502 1.388 . S
C500 C499 1.386 . S
C500 C501 1.382 . S
C500 H526 0.950 . S
C501 N498 1.332 . S
C501 C500 1.382 . S
C501 H512 0.952 . S
C502 C499 1.388 . S
C502 C503 1.382 . S
C502 H527 0.950 . S
C503 N498 1.332 . S
C503 C502 1.382 . S
C503 H513 0.948 . S
N504 Co482 2.282 . S
N504 C508 1.332 . S
N504 C509 1.332 . S
C505 C506 1.388 . S
C505 C509 1.382 . S
C505 H528 0.950 . S
C506 C505 1.388 . S
C506 C507 1.386 . S
C507 C506 1.386 . S
C507 C508 1.382 . S
C507 H529 0.950 . S
C508 N504 1.332 . S
C508 C507 1.382 . S
C508 H510 0.952 . S
C509 N504 1.332 . S
C509 C505 1.382 . S
C509 H511 0.948 . S
H510 C508 0.952 . S
H511 C509 0.948 . S
H512 C501 0.952 . S
H513 C503 0.948 . S
C514 C480 1.395 . S
C514 C484 1.391 . S
C515 C477 1.389 . S
C515 C497 1.392 . S
C516 C487 1.392 . S
C516 C489 1.389 . S
C517 C492 1.395 . S
C517 C494 1.391 . S
H518 C478 0.951 . S
H519 C479 0.950 . S
H520 C485 0.949 . S
H521 C486 0.950 . S
H522 C490 0.951 . S
H523 C491 0.950 . S
H524 C495 0.949 . S
H525 C496 0.950 . S
H526 C500 0.950 . S
H527 C502 0.950 . S
H528 C505 0.950 . S
H529 C507 0.950 . S
C530 C531 1.443 . S
C530 N534 1.376 . S
C530 C568 1.389 . S
C531 C530 1.443 . S
C531 C532 1.340 . S
C531 H571 0.951 . S
C532 C531 1.340 . S
C532 C533 1.439 . S
C532 H572 0.950 . S
C533 C532 1.439 . S
C533 N534 1.374 . S
C533 C567 1.395 . S
N534 C530 1.376 . S
N534 C533 1.374 . S
N534 Co535 2.008 . S
Co535 N534 2.008 . S
Co535 N536 1.995 . S
Co535 N541 2.008 . S
Co535 N546 1.995 . S
Co535 N551 2.282 . S
Co535 N557 2.282 . S
N536 Co535 1.995 . S
N536 C537 1.376 . S
N536 C540 1.383 . S
C537 N536 1.376 . S
C537 C538 1.446 . S
C537 C567 1.391 . S
C538 C537 1.446 . S
C538 C539 1.339 . S
C538 H573 0.949 . S
C539 C538 1.339 . S
C539 C540 1.439 . S
C539 H574 0.950 . S
C540 N536 1.383 . S
C540 C539 1.439 . S
C540 C569 1.392 . S
N541 Co535 2.008 . S
N541 C542 1.376 . S
N541 C545 1.374 . S
C542 N541 1.376 . S
C542 C543 1.443 . S
C542 C569 1.389 . S
C543 C542 1.443 . S
C543 C544 1.340 . S
C543 H575 0.951 . S
C544 C543 1.340 . S
C544 C545 1.439 . S
C544 H576 0.950 . S
C545 N541 1.374 . S
C545 C544 1.439 . S
C545 C570 1.395 . S
N546 Co535 1.995 . S
N546 C547 1.376 . S
N546 C550 1.383 . S
C547 N546 1.376 . S
C547 C548 1.446 . S
C547 C570 1.391 . S
C548 C547 1.446 . S
C548 C549 1.339 . S
C548 H577 0.949 . S
C549 C548 1.339 . S
C549 C550 1.439 . S
C549 H578 0.950 . S
C550 N546 1.383 . S
C550 C549 1.439 . S
C550 C568 1.392 . S
N551 Co535 2.282 . S
N551 C554 1.332 . S
N551 C556 1.332 . S
C552 C553 1.386 . S
C552 C555 1.388 . S
C553 C552 1.386 . S
C553 C554 1.382 . S
C553 H579 0.950 . S
C554 N551 1.332 . S
C554 C553 1.382 . S
C554 H565 0.952 . S
C555 C552 1.388 . S
C555 C556 1.382 . S
C555 H580 0.950 . S
C556 N551 1.332 . S
C556 C555 1.382 . S
C556 H566 0.948 . S
N557 Co535 2.282 . S
N557 C561 1.332 . S
N557 C562 1.332 . S
C558 C559 1.388 . S
C558 C562 1.382 . S
C558 H581 0.950 . S
C559 C558 1.388 . S
C559 C560 1.386 . S
C560 C559 1.386 . S
C560 C561 1.382 . S
C560 H582 0.950 . S
C561 N557 1.332 . S
C561 C560 1.382 . S
C561 H563 0.952 . S
C562 N557 1.332 . S
C562 C558 1.382 . S
C562 H564 0.948 . S
H563 C561 0.952 . S
H564 C562 0.948 . S
H565 C554 0.952 . S
H566 C556 0.948 . S
C567 C533 1.395 . S
C567 C537 1.391 . S
C568 C530 1.389 . S
C568 C550 1.392 . S
C569 C540 1.392 . S
C569 C542 1.389 . S
C570 C545 1.395 . S
C570 C547 1.391 . S
H571 C531 0.951 . S
H572 C532 0.950 . S
H573 C538 0.949 . S
H574 C539 0.950 . S
H575 C543 0.951 . S
H576 C544 0.950 . S
H577 C548 0.949 . S
H578 C549 0.950 . S
H579 C553 0.950 . S
H580 C555 0.950 . S
H581 C558 0.950 . S
H582 C560 0.950 . S
C583 C584 1.443 . S
C583 N587 1.376 . S
C583 C621 1.389 . S
C584 C583 1.443 . S
C584 C585 1.340 . S
C584 H624 0.951 . S
C585 C584 1.340 . S
C585 C586 1.439 . S
C585 H625 0.950 . S
C586 C585 1.439 . S
C586 N587 1.374 . S
C586 C620 1.395 . S
N587 C583 1.376 . S
N587 C586 1.374 . S
N587 Co588 2.008 . S
Co588 N587 2.008 . S
Co588 N589 1.995 . S
Co588 N594 2.008 . S
Co588 N599 1.995 . S
Co588 N604 2.282 . S
Co588 N610 2.282 . S
N589 Co588 1.995 . S
N589 C590 1.376 . S
N589 C593 1.383 . S
C590 N589 1.376 . S
C590 C591 1.446 . S
C590 C620 1.391 . S
C591 C590 1.446 . S
C591 C592 1.339 . S
C591 H626 0.949 . S
C592 C591 1.339 . S
C592 C593 1.439 . S
C592 H627 0.950 . S
C593 N589 1.383 . S
C593 C592 1.439 . S
C593 C622 1.392 . S
N594 Co588 2.008 . S
N594 C595 1.376 . S
N594 C598 1.374 . S
C595 N594 1.376 . S
C595 C596 1.443 . S
C595 C622 1.389 . S
C596 C595 1.443 . S
C596 C597 1.340 . S
C596 H628 0.951 . S
C597 C596 1.340 . S
C597 C598 1.439 . S
C597 H629 0.950 . S
C598 N594 1.374 . S
C598 C597 1.439 . S
C598 C623 1.395 . S
N599 Co588 1.995 . S
N599 C600 1.376 . S
N599 C603 1.383 . S
C600 N599 1.376 . S
C600 C601 1.446 . S
C600 C623 1.391 . S
C601 C600 1.446 . S
C601 C602 1.339 . S
C601 H630 0.949 . S
C602 C601 1.339 . S
C602 C603 1.439 . S
C602 H631 0.950 . S
C603 N599 1.383 . S
C603 C602 1.439 . S
C603 C621 1.392 . S
N604 Co588 2.282 . S
N604 C607 1.332 . S
N604 C609 1.332 . S
C605 C606 1.386 . S
C605 C608 1.388 . S
C606 C605 1.386 . S
C606 C607 1.382 . S
C606 H632 0.950 . S
C607 N604 1.332 . S
C607 C606 1.382 . S
C607 H618 0.952 . S
C608 C605 1.388 . S
C608 C609 1.382 . S
C608 H633 0.950 . S
C609 N604 1.332 . S
C609 C608 1.382 . S
C609 H619 0.948 . S
N610 Co588 2.282 . S
N610 C614 1.332 . S
N610 C615 1.332 . S
C611 C612 1.388 . S
C611 C615 1.382 . S
C611 H634 0.950 . S
C612 C611 1.388 . S
C612 C613 1.386 . S
C613 C612 1.386 . S
C613 C614 1.382 . S
C613 H635 0.950 . S
C614 N610 1.332 . S
C614 C613 1.382 . S
C614 H616 0.952 . S
C615 N610 1.332 . S
C615 C611 1.382 . S
C615 H617 0.948 . S
H616 C614 0.952 . S
H617 C615 0.948 . S
H618 C607 0.952 . S
H619 C609 0.948 . S
C620 C586 1.395 . S
C620 C590 1.391 . S
C621 C583 1.389 . S
C621 C603 1.392 . S
C622 C593 1.392 . S
C622 C595 1.389 . S
C623 C598 1.395 . S
C623 C600 1.391 . S
H624 C584 0.951 . S
H625 C585 0.950 . S
H626 C591 0.949 . S
H627 C592 0.950 . S
H628 C596 0.951 . S
H629 C597 0.950 . S
H630 C601 0.949 . S
H631 C602 0.950 . S
H632 C606 0.950 . S
H633 C608 0.950 . S
H634 C611 0.950 . S
H635 C613 0.950 . S
C636 C637 1.349 . S
C636 C638 1.327 . S
C636 H661 0.950 . S
C637 C636 1.349 . S
C637 C653 1.349 . S
C638 C636 1.327 . S
C638 C657 1.429 . S
C638 H662 0.950 . S
C639 C656 1.574 . S
C639 C658 1.368 . S
C639 H663 0.949 . S
H640 C644 0.949 . S
C641 C642 1.349 . S
C641 C643 1.327 . S
C641 H664 0.950 . S
C642 C641 1.349 . S
C642 C654 1.349 . S
C643 C641 1.327 . S
C643 C659 1.429 . S
C643 H665 0.950 . S
C644 H640 0.949 . S
C644 C652 1.574 . S
C644 C660 1.368 . S
H645 C653 0.950 . S
H646 C651 0.950 . S
H647 C652 0.949 . S
H648 C654 0.950 . S
H649 C655 0.950 . S
H650 C656 0.949 . S
C651 H646 0.950 . S
C651 C653 1.327 . S
C651 C657 1.429 . S
C652 C644 1.574 . S
C652 H647 0.949 . S
C652 C658 1.368 . S
C653 C637 1.349 . S
C653 H645 0.950 . S
C653 C651 1.327 . S
C654 C642 1.349 . S
C654 H648 0.950 . S
C654 C655 1.327 . S
C655 H649 0.950 . S
C655 C654 1.327 . S
C655 C659 1.429 . S
C656 C639 1.574 . S
C656 H650 0.949 . S
C656 C660 1.368 . S
C657 C638 1.429 . S
C657 C651 1.429 . S
C657 C658 1.523 . S
C658 C639 1.368 . S
C658 C652 1.368 . S
C658 C657 1.523 . S
C659 C643 1.429 . S
C659 C655 1.429 . S
C659 C660 1.523 . S
C660 C644 1.368 . S
C660 C656 1.368 . S
C660 C659 1.523 . S
H661 C636 0.950 . S
H662 C638 0.950 . S
H663 C639 0.949 . S
H664 C641 0.950 . S
H665 C643 0.950 . S
C666 C667 1.349 . S
C666 C668 1.327 . S
C666 H691 0.950 . S
C667 C666 1.349 . S
C667 C683 1.349 . S
C668 C666 1.327 . S
C668 C687 1.429 . S
C668 H692 0.950 . S
C669 C686 1.574 . S
C669 C688 1.368 . S
C669 H693 0.949 . S
H670 C674 0.949 . S
C671 C672 1.349 . S
C671 C673 1.327 . S
C671 H694 0.950 . S
C672 C671 1.349 . S
C672 C684 1.349 . S
C673 C671 1.327 . S
C673 C689 1.429 . S
C673 H695 0.950 . S
C674 H670 0.949 . S
C674 C682 1.574 . S
C674 C690 1.368 . S
H675 C683 0.950 . S
H676 C681 0.950 . S
H677 C682 0.949 . S
H678 C684 0.950 . S
H679 C685 0.950 . S
H680 C686 0.949 . S
C681 H676 0.950 . S
C681 C683 1.327 . S
C681 C687 1.429 . S
C682 C674 1.574 . S
C682 H677 0.949 . S
C682 C688 1.368 . S
C683 C667 1.349 . S
C683 H675 0.950 . S
C683 C681 1.327 . S
C684 C672 1.349 . S
C684 H678 0.950 . S
C684 C685 1.327 . S
C685 H679 0.950 . S
C685 C684 1.327 . S
C685 C689 1.429 . S
C686 C669 1.574 . S
C686 H680 0.949 . S
C686 C690 1.368 . S
C687 C668 1.429 . S
C687 C681 1.429 . S
C687 C688 1.523 . S
C688 C669 1.368 . S
C688 C682 1.368 . S
C688 C687 1.523 . S
C689 C673 1.429 . S
C689 C685 1.429 . S
C689 C690 1.523 . S
C690 C674 1.368 . S
C690 C686 1.368 . S
C690 C689 1.523 . S
H691 C666 0.950 . S
H692 C668 0.950 . S
H693 C669 0.949 . S
H694 C671 0.950 . S
H695 C673 0.950 . S
C696 C697 1.349 . S
C696 C698 1.327 . S
C696 H721 0.950 . S
C697 C696 1.349 . S
C697 C713 1.349 . S
C698 C696 1.327 . S
C698 C717 1.429 . S
C698 H722 0.950 . S
C699 C716 1.574 . S
C699 C718 1.368 . S
C699 H723 0.949 . S
H700 C704 0.949 . S
C701 C702 1.349 . S
C701 C703 1.327 . S
C701 H724 0.950 . S
C702 C701 1.349 . S
C702 C714 1.349 . S
C703 C701 1.327 . S
C703 C719 1.429 . S
C703 H725 0.950 . S
C704 H700 0.949 . S
C704 C712 1.574 . S
C704 C720 1.368 . S
H705 C713 0.950 . S
H706 C711 0.950 . S
H707 C712 0.949 . S
H708 C714 0.950 . S
H709 C715 0.950 . S
H710 C716 0.949 . S
C711 H706 0.950 . S
C711 C713 1.327 . S
C711 C717 1.429 . S
C712 C704 1.574 . S
C712 H707 0.949 . S
C712 C718 1.368 . S
C713 C697 1.349 . S
C713 H705 0.950 . S
C713 C711 1.327 . S
C714 C702 1.349 . S
C714 H708 0.950 . S
C714 C715 1.327 . S
C715 H709 0.950 . S
C715 C714 1.327 . S
C715 C719 1.429 . S
C716 C699 1.574 . S
C716 H710 0.949 . S
C716 C720 1.368 . S
C717 C698 1.429 . S
C717 C711 1.429 . S
C717 C718 1.523 . S
C718 C699 1.368 . S
C718 C712 1.368 . S
C718 C717 1.523 . S
C719 C703 1.429 . S
C719 C715 1.429 . S
C719 C720 1.523 . S
C720 C704 1.368 . S
C720 C716 1.368 . S
C720 C719 1.523 . S
H721 C696 0.950 . S
H722 C698 0.950 . S
H723 C699 0.949 . S
H724 C701 0.950 . S
H725 C703 0.950 . S
C726 C727 1.349 . S
C726 C728 1.327 . S
C726 H751 0.950 . S
C727 C726 1.349 . S
C727 C743 1.349 . S
C728 C726 1.327 . S
C728 C747 1.429 . S
C728 H752 0.950 . S
C729 C746 1.574 . S
C729 C748 1.368 . S
C729 H753 0.949 . S
H730 C734 0.949 . S
C731 C732 1.349 . S
C731 C733 1.327 . S
C731 H754 0.950 . S
C732 C731 1.349 . S
C732 C744 1.349 . S
C733 C731 1.327 . S
C733 C749 1.429 . S
C733 H755 0.950 . S
C734 H730 0.949 . S
C734 C742 1.574 . S
C734 C750 1.368 . S
H735 C743 0.950 . S
H736 C741 0.950 . S
H737 C742 0.949 . S
H738 C744 0.950 . S
H739 C745 0.950 . S
H740 C746 0.949 . S
C741 H736 0.950 . S
C741 C743 1.327 . S
C741 C747 1.429 . S
C742 C734 1.574 . S
C742 H737 0.949 . S
C742 C748 1.368 . S
C743 C727 1.349 . S
C743 H735 0.950 . S
C743 C741 1.327 . S
C744 C732 1.349 . S
C744 H738 0.950 . S
C744 C745 1.327 . S
C745 H739 0.950 . S
C745 C744 1.327 . S
C745 C749 1.429 . S
C746 C729 1.574 . S
C746 H740 0.949 . S
C746 C750 1.368 . S
C747 C728 1.429 . S
C747 C741 1.429 . S
C747 C748 1.523 . S
C748 C729 1.368 . S
C748 C742 1.368 . S
C748 C747 1.523 . S
C749 C733 1.429 . S
C749 C745 1.429 . S
C749 C750 1.523 . S
C750 C734 1.368 . S
C750 C746 1.368 . S
C750 C749 1.523 . S
H751 C726 0.950 . S
H752 C728 0.950 . S
H753 C729 0.949 . S
H754 C731 0.950 . S
H755 C733 0.950 . S
C756 C757 1.349 . S
C756 C758 1.327 . S
C756 H781 0.950 . S
C757 C756 1.349 . S
C757 C773 1.349 . S
C758 C756 1.327 . S
C758 C777 1.429 . S
C758 H782 0.950 . S
C759 C776 1.574 . S
C759 C778 1.368 . S
C759 H783 0.949 . S
H760 C764 0.949 . S
C761 C762 1.349 . S
C761 C763 1.327 . S
C761 H784 0.950 . S
C762 C761 1.349 . S
C762 C774 1.349 . S
C763 C761 1.327 . S
C763 C779 1.429 . S
C763 H785 0.950 . S
C764 H760 0.949 . S
C764 C772 1.574 . S
C764 C780 1.368 . S
H765 C773 0.950 . S
H766 C771 0.950 . S
H767 C772 0.949 . S
H768 C774 0.950 . S
H769 C775 0.950 . S
H770 C776 0.949 . S
C771 H766 0.950 . S
C771 C773 1.327 . S
C771 C777 1.429 . S
C772 C764 1.574 . S
C772 H767 0.949 . S
C772 C778 1.368 . S
C773 C757 1.349 . S
C773 H765 0.950 . S
C773 C771 1.327 . S
C774 C762 1.349 . S
C774 H768 0.950 . S
C774 C775 1.327 . S
C775 H769 0.950 . S
C775 C774 1.327 . S
C775 C779 1.429 . S
C776 C759 1.574 . S
C776 H770 0.949 . S
C776 C780 1.368 . S
C777 C758 1.429 . S
C777 C771 1.429 . S
C777 C778 1.523 . S
C778 C759 1.368 . S
C778 C772 1.368 . S
C778 C777 1.523 . S
C779 C763 1.429 . S
C779 C775 1.429 . S
C779 C780 1.523 . S
C780 C764 1.368 . S
C780 C776 1.368 . S
C780 C779 1.523 . S
H781 C756 0.950 . S
H782 C758 0.950 . S
H783 C759 0.949 . S
H784 C761 0.950 . S
H785 C763 0.950 . S
C786 C787 1.349 . S
C786 C788 1.327 . S
C786 H811 0.950 . S
C787 C786 1.349 . S
C787 C803 1.349 . S
C788 C786 1.327 . S
C788 C807 1.429 . S
C788 H812 0.950 . S
C789 C806 1.574 . S
C789 C808 1.368 . S
C789 H813 0.949 . S
H790 C794 0.949 . S
C791 C792 1.349 . S
C791 C793 1.327 . S
C791 H814 0.950 . S
C792 C791 1.349 . S
C792 C804 1.349 . S
C793 C791 1.327 . S
C793 C809 1.429 . S
C793 H815 0.950 . S
C794 H790 0.949 . S
C794 C802 1.574 . S
C794 C810 1.368 . S
H795 C803 0.950 . S
H796 C801 0.950 . S
H797 C802 0.949 . S
H798 C804 0.950 . S
H799 C805 0.950 . S
H800 C806 0.949 . S
C801 H796 0.950 . S
C801 C803 1.327 . S
C801 C807 1.429 . S
C802 C794 1.574 . S
C802 H797 0.949 . S
C802 C808 1.368 . S
C803 C787 1.349 . S
C803 H795 0.950 . S
C803 C801 1.327 . S
C804 C792 1.349 . S
C804 H798 0.950 . S
C804 C805 1.327 . S
C805 H799 0.950 . S
C805 C804 1.327 . S
C805 C809 1.429 . S
C806 C789 1.574 . S
C806 H800 0.949 . S
C806 C810 1.368 . S
C807 C788 1.429 . S
C807 C801 1.429 . S
C807 C808 1.523 . S
C808 C789 1.368 . S
C808 C802 1.368 . S
C808 C807 1.523 . S
C809 C793 1.429 . S
C809 C805 1.429 . S
C809 C810 1.523 . S
C810 C794 1.368 . S
C810 C806 1.368 . S
C810 C809 1.523 . S
H811 C786 0.950 . S
H812 C788 0.950 . S
H813 C789 0.949 . S
H814 C791 0.950 . S
H815 C793 0.950 . S
C816 C817 1.349 . S
C816 C818 1.327 . S
C816 H841 0.950 . S
C817 C816 1.349 . S
C817 C833 1.349 . S
C818 C816 1.327 . S
C818 C837 1.429 . S
C818 H842 0.950 . S
C819 C836 1.574 . S
C819 C838 1.368 . S
C819 H843 0.949 . S
H820 C824 0.949 . S
C821 C822 1.349 . S
C821 C823 1.327 . S
C821 H844 0.950 . S
C822 C821 1.349 . S
C822 C834 1.349 . S
C823 C821 1.327 . S
C823 C839 1.429 . S
C823 H845 0.950 . S
C824 H820 0.949 . S
C824 C832 1.574 . S
C824 C840 1.368 . S
H825 C833 0.950 . S
H826 C831 0.950 . S
H827 C832 0.949 . S
H828 C834 0.950 . S
H829 C835 0.950 . S
H830 C836 0.949 . S
C831 H826 0.950 . S
C831 C833 1.327 . S
C831 C837 1.429 . S
C832 C824 1.574 . S
C832 H827 0.949 . S
C832 C838 1.368 . S
C833 C817 1.349 . S
C833 H825 0.950 . S
C833 C831 1.327 . S
C834 C822 1.349 . S
C834 H828 0.950 . S
C834 C835 1.327 . S
C835 H829 0.950 . S
C835 C834 1.327 . S
C835 C839 1.429 . S
C836 C819 1.574 . S
C836 H830 0.949 . S
C836 C840 1.368 . S
C837 C818 1.429 . S
C837 C831 1.429 . S
C837 C838 1.523 . S
C838 C819 1.368 . S
C838 C832 1.368 . S
C838 C837 1.523 . S
C839 C823 1.429 . S
C839 C835 1.429 . S
C839 C840 1.523 . S
C840 C824 1.368 . S
C840 C836 1.368 . S
C840 C839 1.523 . S
H841 C816 0.950 . S
H842 C818 0.950 . S
H843 C819 0.949 . S
H844 C821 0.950 . S
H845 C823 0.950 . S
C846 C847 1.349 . S
C846 C848 1.327 . S
C846 H871 0.950 . S
C847 C846 1.349 . S
C847 C863 1.349 . S
C848 C846 1.327 . S
C848 C867 1.429 . S
C848 H872 0.950 . S
C849 C866 1.574 . S
C849 C868 1.368 1_655 S
C849 H873 0.949 . S
H850 C854 0.949 . S
C851 C852 1.349 . S
C851 C853 1.327 . S
C851 H874 0.950 . S
C852 C851 1.349 . S
C852 C864 1.349 . S
C853 C851 1.327 . S
C853 C869 1.429 . S
C853 H875 0.950 . S
C854 H850 0.949 . S
C854 C862 1.574 . S
C854 C870 1.368 1_455 S
H855 C863 0.950 . S
H856 C861 0.950 . S
H857 C862 0.949 . S
H858 C864 0.950 . S
H859 C865 0.950 . S
H860 C866 0.949 . S
C861 H856 0.950 . S
C861 C863 1.327 . S
C861 C867 1.429 . S
C862 C854 1.574 . S
C862 H857 0.949 . S
C862 C868 1.368 . S
C863 C847 1.349 . S
C863 H855 0.950 . S
C863 C861 1.327 . S
C864 C852 1.349 . S
C864 H858 0.950 . S
C864 C865 1.327 . S
C865 H859 0.950 . S
C865 C864 1.327 . S
C865 C869 1.429 . S
C866 C849 1.574 . S
C866 H860 0.949 . S
C866 C870 1.368 . S
C867 C848 1.429 . S
C867 C861 1.429 . S
C867 C868 1.523 . S
C868 C849 1.368 1_455 S
C868 C862 1.368 . S
C868 C867 1.523 . S
C869 C853 1.429 . S
C869 C865 1.429 . S
C869 C870 1.523 . S
C870 C854 1.368 1_655 S
C870 C866 1.368 . S
C870 C869 1.523 . S
H871 C846 0.950 . S
H872 C848 0.950 . S
H873 C849 0.949 . S
H874 C851 0.950 . S
H875 C853 0.950 . S
C876 C877 1.349 . S
C876 C878 1.327 . S
C876 H901 0.950 . S
C877 C876 1.349 . S
C877 C893 1.349 . S
C878 C876 1.327 . S
C878 C897 1.429 . S
C878 H902 0.950 . S
C879 C896 1.595 . S
C879 C898 1.368 . S
C879 H903 0.949 . S
H880 C884 0.949 . S
C881 C882 1.349 . S
C881 C883 1.327 . S
C881 H904 0.950 . S
C882 C881 1.349 . S
C882 C894 1.349 . S
C883 C881 1.327 . S
C883 C899 1.429 . S
C883 H905 0.950 . S
C884 H880 0.949 . S
C884 C892 1.595 . S
C884 C900 1.368 . S
H885 C893 0.950 . S
H886 C891 0.950 . S
H887 C892 0.947 . S
H888 C894 0.950 . S
H889 C895 0.950 . S
H890 C896 0.947 . S
C891 H886 0.950 . S
C891 C893 1.327 . S
C891 C897 1.429 . S
C892 C884 1.595 . S
C892 H887 0.947 . S
C892 C898 1.357 1_565 S
C893 C877 1.349 . S
C893 H885 0.950 . S
C893 C891 1.327 . S
C894 C882 1.349 . S
C894 H888 0.950 . S
C894 C895 1.327 . S
C895 H889 0.950 . S
C895 C894 1.327 . S
C895 C899 1.429 . S
C896 C879 1.595 . S
C896 H890 0.947 . S
C896 C900 1.357 1_545 S
C897 C878 1.429 . S
C897 C891 1.429 . S
C897 C898 1.523 . S
C898 C879 1.368 . S
C898 C892 1.357 1_545 S
C898 C897 1.523 . S
C899 C883 1.429 . S
C899 C895 1.429 . S
C899 C900 1.523 . S
C900 C884 1.368 . S
C900 C896 1.357 1_565 S
C900 C899 1.523 . S
H901 C876 0.950 . S
H902 C878 0.950 . S
H903 C879 0.949 . S
H904 C881 0.950 . S
H905 C883 0.950 . S
C906 C907 1.349 . S
C906 C908 1.327 . S
C906 H931 0.950 . S
C907 C906 1.349 . S
C907 C923 1.349 . S
C908 C906 1.327 . S
C908 C927 1.429 . S
C908 H932 0.950 . S
C909 C926 1.574 . S
C909 C928 1.368 . S
C909 H933 0.949 . S
H910 C914 0.949 . S
C911 C912 1.349 . S
C911 C913 1.327 . S
C911 H934 0.950 . S
C912 C911 1.349 . S
C912 C924 1.349 . S
C913 C911 1.327 . S
C913 C929 1.429 . S
C913 H935 0.950 . S
C914 H910 0.949 . S
C914 C922 1.574 . S
C914 C930 1.368 . S
H915 C923 0.950 . S
H916 C921 0.950 . S
H917 C922 0.949 . S
H918 C924 0.950 . S
H919 C925 0.950 . S
H920 C926 0.949 . S
C921 H916 0.950 . S
C921 C923 1.327 . S
C921 C927 1.429 . S
C922 C914 1.574 . S
C922 H917 0.949 . S
C922 C928 1.368 . S
C923 C907 1.349 . S
C923 H915 0.950 . S
C923 C921 1.327 . S
C924 C912 1.349 . S
C924 H918 0.950 . S
C924 C925 1.327 . S
C925 H919 0.950 . S
C925 C924 1.327 . S
C925 C929 1.429 . S
C926 C909 1.574 . S
C926 H920 0.949 . S
C926 C930 1.368 . S
C927 C908 1.429 . S
C927 C921 1.429 . S
C927 C928 1.523 . S
C928 C909 1.368 . S
C928 C922 1.368 . S
C928 C927 1.523 . S
C929 C913 1.429 . S
C929 C925 1.429 . S
C929 C930 1.523 . S
C930 C914 1.368 . S
C930 C926 1.368 . S
C930 C929 1.523 . S
H931 C906 0.950 . S
H932 C908 0.950 . S
H933 C909 0.949 . S
H934 C911 0.950 . S
H935 C913 0.950 . S
C936 C937 1.349 . S
C936 C938 1.327 . S
C936 H961 0.950 . S
C937 C936 1.349 . S
C937 C953 1.349 . S
C938 C936 1.327 . S
C938 C957 1.429 . S
C938 H962 0.950 . S
C939 C956 1.582 . S
C939 C958 1.364 1_455 S
C939 H963 0.947 1_455 S
H940 C944 0.947 1_455 S
C941 C942 1.349 . S
C941 C943 1.327 . S
C941 H964 0.950 . S
C942 C941 1.349 . S
C942 C954 1.349 . S
C943 C941 1.327 . S
C943 C959 1.429 . S
C943 H965 0.950 . S
C944 H940 0.947 1_655 S
C944 C952 1.582 . S
C944 C960 1.364 1_655 S
H945 C953 0.950 . S
H946 C951 0.950 . S
H947 C952 0.949 . S
H948 C954 0.950 . S
H949 C955 0.950 . S
H950 C956 0.949 . S
C951 H946 0.950 . S
C951 C953 1.327 . S
C951 C957 1.429 . S
C952 C944 1.582 . S
C952 H947 0.949 . S
C952 C958 1.368 . S
C953 C937 1.349 . S
C953 H945 0.950 . S
C953 C951 1.327 . S
C954 C942 1.349 . S
C954 H948 0.950 . S
C954 C955 1.327 . S
C955 H949 0.950 . S
C955 C954 1.327 . S
C955 C959 1.429 . S
C956 C939 1.582 . S
C956 H950 0.949 . S
C956 C960 1.368 . S
C957 C938 1.429 . S
C957 C951 1.429 . S
C957 C958 1.523 . S
C958 C939 1.364 1_655 S
C958 C952 1.368 . S
C958 C957 1.523 . S
C959 C943 1.429 . S
C959 C955 1.429 . S
C959 C960 1.523 . S
C960 C944 1.364 1_455 S
C960 C956 1.368 . S
C960 C959 1.523 . S
H961 C936 0.950 . S
H962 C938 0.950 . S
H963 C939 0.947 1_655 S
H964 C941 0.950 . S
H965 C943 0.950 . S
C966 C967 1.349 . S
C966 C968 1.327 . S
C966 H991 0.950 . S
C967 C966 1.349 . S
C967 C983 1.349 . S
C968 C966 1.327 . S
C968 C987 1.429 . S
C968 H992 0.950 . S
C969 C986 1.578 . S
C969 C988 1.368 . S
C969 H993 0.949 . S
H970 C974 0.949 . S
C971 C972 1.349 . S
C971 C973 1.327 . S
C971 H994 0.950 . S
C972 C971 1.349 . S
C972 C984 1.349 . S
C973 C971 1.327 . S
C973 C989 1.429 . S
C973 H995 0.950 . S
C974 H970 0.949 . S
C974 C982 1.578 . S
C974 C990 1.368 . S
H975 C983 0.950 . S
H976 C981 0.950 . S
H977 C982 0.952 . S
H978 C984 0.950 . S
H979 C985 0.950 . S
H980 C986 0.952 . S
C981 H976 0.950 . S
C981 C983 1.327 . S
C981 C987 1.429 . S
C982 C974 1.578 . S
C982 H977 0.952 . S
C982 C988 1.355 1_545 S
C983 C967 1.349 . S
C983 H975 0.950 . S
C983 C981 1.327 . S
C984 C972 1.349 . S
C984 H978 0.950 . S
C984 C985 1.327 . S
C985 H979 0.950 . S
C985 C984 1.327 . S
C985 C989 1.429 . S
C986 C969 1.578 . S
C986 H980 0.952 . S
C986 C990 1.355 1_565 S
C987 C968 1.429 . S
C987 C981 1.429 . S
C987 C988 1.523 . S
C988 C969 1.368 . S
C988 C982 1.355 1_565 S
C988 C987 1.523 . S
C989 C973 1.429 . S
C989 C985 1.429 . S
C989 C990 1.523 . S
C990 C974 1.368 . S
C990 C986 1.355 1_545 S
C990 C989 1.523 . S
H991 C966 0.950 . S
H992 C968 0.950 . S
H993 C969 0.949 . S
H994 C971 0.950 . S
H995 C973 0.950 . S
C996 C997 1.349 . S
C996 C998 1.327 . S
C996 H1021 0.950 . S
C997 C996 1.349 . S
C997 C1013 1.349 . S
C998 C996 1.327 . S
C998 C1017 1.429 . S
C998 H1022 0.950 . S
C999 C1016 1.574 . S
C999 C1018 1.368 . S
C999 H1023 0.949 . S
H1000 C1004 0.949 . S
C1001 C1002 1.349 . S
C1001 C1003 1.327 . S
C1001 H1024 0.950 . S
C1002 C1001 1.349 . S
C1002 C1014 1.349 . S
C1003 C1001 1.327 . S
C1003 C1019 1.429 . S
C1003 H1025 0.950 . S
C1004 H1000 0.949 . S
C1004 C1012 1.574 . S
C1004 C1020 1.368 . S
H1005 C1013 0.950 . S
H1006 C1011 0.950 . S
H1007 C1012 0.949 . S
H1008 C1014 0.950 . S
H1009 C1015 0.950 . S
H1010 C1016 0.949 . S
C1011 H1006 0.950 . S
C1011 C1013 1.327 . S
C1011 C1017 1.429 . S
C1012 C1004 1.574 . S
C1012 H1007 0.949 . S
C1012 C1018 1.368 . S
C1013 C997 1.349 . S
C1013 H1005 0.950 . S
C1013 C1011 1.327 . S
C1014 C1002 1.349 . S
C1014 H1008 0.950 . S
C1014 C1015 1.327 . S
C1015 H1009 0.950 . S
C1015 C1014 1.327 . S
C1015 C1019 1.429 . S
C1016 C999 1.574 . S
C1016 H1010 0.949 . S
C1016 C1020 1.368 . S
C1017 C998 1.429 . S
C1017 C1011 1.429 . S
C1017 C1018 1.523 . S
C1018 C999 1.368 . S
C1018 C1012 1.368 . S
C1018 C1017 1.523 . S
C1019 C1003 1.429 . S
C1019 C1015 1.429 . S
C1019 C1020 1.523 . S
C1020 C1004 1.368 . S
C1020 C1016 1.368 . S
C1020 C1019 1.523 . S
H1021 C996 0.950 . S
H1022 C998 0.950 . S
H1023 C999 0.949 . S
H1024 C1001 0.950 . S
H1025 C1003 0.950 . S
C1026 C1027 1.349 . S
C1026 C1028 1.327 . S
C1026 H1051 0.950 . S
C1027 C1026 1.349 . S
C1027 C1043 1.349 . S
C1028 C1026 1.327 . S
C1028 C1047 1.429 . S
C1028 H1052 0.950 . S
C1029 C1046 1.572 1_655 S
C1029 C1048 1.372 . S
C1029 H1053 0.947 . S
H1030 C1034 0.949 . S
C1031 C1032 1.349 . S
C1031 C1033 1.327 . S
C1031 H1054 0.950 . S
C1032 C1031 1.349 . S
C1032 C1044 1.349 . S
C1033 C1031 1.327 . S
C1033 C1049 1.429 . S
C1033 H1055 0.950 . S
C1034 H1030 0.949 . S
C1034 C1042 1.574 1_455 S
C1034 C1050 1.368 . S
H1035 C1043 0.950 . S
H1036 C1041 0.950 . S
H1037 C1042 0.949 . S
H1038 C1044 0.950 . S
H1039 C1045 0.950 . S
H1040 C1046 0.949 . S
C1041 H1036 0.950 . S
C1041 C1043 1.327 . S
C1041 C1047 1.429 . S
C1042 C1034 1.574 1_655 S
C1042 H1037 0.949 . S
C1042 C1048 1.368 . S
C1043 C1027 1.349 . S
C1043 H1035 0.950 . S
C1043 C1041 1.327 . S
C1044 C1032 1.349 . S
C1044 H1038 0.950 . S
C1044 C1045 1.327 . S
C1045 H1039 0.950 . S
C1045 C1044 1.327 . S
C1045 C1049 1.429 . S
C1046 C1029 1.572 1_455 S
C1046 H1040 0.949 . S
C1046 C1050 1.368 . S
C1047 C1028 1.429 . S
C1047 C1041 1.429 . S
C1047 C1048 1.523 . S
C1048 C1029 1.372 . S
C1048 C1042 1.368 . S
C1048 C1047 1.523 . S
C1049 C1033 1.429 . S
C1049 C1045 1.429 . S
C1049 C1050 1.523 . S
C1050 C1034 1.368 . S
C1050 C1046 1.368 . S
C1050 C1049 1.523 . S
H1051 C1026 0.950 . S
H1052 C1028 0.950 . S
H1053 C1029 0.947 . S
H1054 C1031 0.950 . S
H1055 C1033 0.950 . S
C1056 C1057 1.349 . S
C1056 C1058 1.327 . S
C1056 H1081 0.950 . S
C1057 C1056 1.349 . S
C1057 C1073 1.349 . S
C1058 C1056 1.327 . S
C1058 C1077 1.429 . S
C1058 H1082 0.950 . S
C1059 C1076 1.574 . S
C1059 C1078 1.368 1_554 S
C1059 H1083 0.949 . S
H1060 C1064 0.949 . S
C1061 C1062 1.349 . S
C1061 C1063 1.327 . S
C1061 H1084 0.950 . S
C1062 C1061 1.349 . S
C1062 C1074 1.349 . S
C1063 C1061 1.327 . S
C1063 C1079 1.429 . S
C1063 H1085 0.950 . S
C1064 H1060 0.949 . S
C1064 C1072 1.574 . S
C1064 C1080 1.368 1_556 S
H1065 C1073 0.950 . S
H1066 C1071 0.950 . S
H1067 C1072 0.949 . S
H1068 C1074 0.950 . S
H1069 C1075 0.950 . S
H1070 C1076 0.949 . S
C1071 H1066 0.950 . S
C1071 C1073 1.327 . S
C1071 C1077 1.429 . S
C1072 C1064 1.574 . S
C1072 H1067 0.949 . S
C1072 C1078 1.368 1_545 S
C1073 C1057 1.349 . S
C1073 H1065 0.950 . S
C1073 C1071 1.327 . S
C1074 C1062 1.349 . S
C1074 H1068 0.950 . S
C1074 C1075 1.327 . S
C1075 H1069 0.950 . S
C1075 C1074 1.327 . S
C1075 C1079 1.429 . S
C1076 C1059 1.574 . S
C1076 H1070 0.949 . S
C1076 C1080 1.368 1_565 S
C1077 C1058 1.429 . S
C1077 C1071 1.429 . S
C1077 C1078 1.523 . S
C1078 C1059 1.368 1_556 S
C1078 C1072 1.368 1_565 S
C1078 C1077 1.523 . S
C1079 C1063 1.429 . S
C1079 C1075 1.429 . S
C1079 C1080 1.523 . S
C1080 C1064 1.368 1_554 S
C1080 C1076 1.368 1_545 S
C1080 C1079 1.523 . S
H1081 C1056 0.950 . S
H1082 C1058 0.950 . S
H1083 C1059 0.949 . S
H1084 C1061 0.950 . S
H1085 C1063 0.950 . S
C1086 C1087 1.349 . S
C1086 C1088 1.327 . S
C1086 H1111 0.950 . S
C1087 C1086 1.349 . S
C1087 C1103 1.349 . S
C1088 C1086 1.327 . S
C1088 C1107 1.429 . S
C1088 H1112 0.950 . S
C1089 C1106 1.574 . S
C1089 C1108 1.368 . S
C1089 H1113 0.949 . S
H1090 C1094 0.949 . S
C1091 C1092 1.349 . S
C1091 C1093 1.327 . S
C1091 H1114 0.950 . S
C1092 C1091 1.349 . S
C1092 C1104 1.349 . S
C1093 C1091 1.327 . S
C1093 C1109 1.429 . S
C1093 H1115 0.950 . S
C1094 H1090 0.949 . S
C1094 C1102 1.574 . S
C1094 C1110 1.368 . S
H1095 C1103 0.950 . S
H1096 C1101 0.950 . S
H1097 C1102 0.949 . S
H1098 C1104 0.950 . S
H1099 C1105 0.950 . S
H1100 C1106 0.949 . S
C1101 H1096 0.950 . S
C1101 C1103 1.327 . S
C1101 C1107 1.429 . S
C1102 C1094 1.574 . S
C1102 H1097 0.949 . S
C1102 C1108 1.368 . S
C1103 C1087 1.349 . S
C1103 H1095 0.950 . S
C1103 C1101 1.327 . S
C1104 C1092 1.349 . S
C1104 H1098 0.950 . S
C1104 C1105 1.327 . S
C1105 H1099 0.950 . S
C1105 C1104 1.327 . S
C1105 C1109 1.429 . S
C1106 C1089 1.574 . S
C1106 H1100 0.949 . S
C1106 C1110 1.368 . S
C1107 C1088 1.429 . S
C1107 C1101 1.429 . S
C1107 C1108 1.523 . S
C1108 C1089 1.368 . S
C1108 C1102 1.368 . S
C1108 C1107 1.523 . S
C1109 C1093 1.429 . S
C1109 C1105 1.429 . S
C1109 C1110 1.523 . S
C1110 C1094 1.368 . S
C1110 C1106 1.368 . S
C1110 C1109 1.523 . S
H1111 C1086 0.950 . S
H1112 C1088 0.950 . S
H1113 C1089 0.949 . S
H1114 C1091 0.950 . S
H1115 C1093 0.950 . S
C1116 C1117 1.349 . S
C1116 C1118 1.327 . S
C1116 H1141 0.950 . S
C1117 C1116 1.349 . S
C1117 C1133 1.349 . S
C1118 C1116 1.327 . S
C1118 C1137 1.429 . S
C1118 H1142 0.950 . S
C1119 C1136 1.574 1_455 S
C1119 C1138 1.368 . S
C1119 H1143 0.949 . S
H1120 C1124 0.949 . S
C1121 C1122 1.349 . S
C1121 C1123 1.327 . S
C1121 H1144 0.950 . S
C1122 C1121 1.349 . S
C1122 C1134 1.349 . S
C1123 C1121 1.327 . S
C1123 C1139 1.429 . S
C1123 H1145 0.950 . S
C1124 H1120 0.949 . S
C1124 C1132 1.574 1_655 S
C1124 C1140 1.368 . S
H1125 C1133 0.950 . S
H1126 C1131 0.950 . S
H1127 C1132 0.949 . S
H1128 C1134 0.950 . S
H1129 C1135 0.950 . S
H1130 C1136 0.949 . S
C1131 H1126 0.950 . S
C1131 C1133 1.327 . S
C1131 C1137 1.429 . S
C1132 C1124 1.574 1_455 S
C1132 H1127 0.949 . S
C1132 C1138 1.368 . S
C1133 C1117 1.349 . S
C1133 H1125 0.950 . S
C1133 C1131 1.327 . S
C1134 C1122 1.349 . S
C1134 H1128 0.950 . S
C1134 C1135 1.327 . S
C1135 H1129 0.950 . S
C1135 C1134 1.327 . S
C1135 C1139 1.429 . S
C1136 C1119 1.574 1_655 S
C1136 H1130 0.949 . S
C1136 C1140 1.368 . S
C1137 C1118 1.429 . S
C1137 C1131 1.429 . S
C1137 C1138 1.523 . S
C1138 C1119 1.368 . S
C1138 C1132 1.368 . S
C1138 C1137 1.523 . S
C1139 C1123 1.429 . S
C1139 C1135 1.429 . S
C1139 C1140 1.523 . S
C1140 C1124 1.368 . S
C1140 C1136 1.368 . S
C1140 C1139 1.523 . S
H1141 C1116 0.950 . S
H1142 C1118 0.950 . S
H1143 C1119 0.949 . S
H1144 C1121 0.950 . S
H1145 C1123 0.950 . S
C1146 C1147 1.349 . S
C1146 C1148 1.327 . S
C1146 H1171 0.950 . S
C1147 C1146 1.349 . S
C1147 C1163 1.349 . S
C1148 C1146 1.327 . S
C1148 C1167 1.429 . S
C1148 H1172 0.950 . S
C1149 C1166 1.574 1_554 S
C1149 C1168 1.368 1_545 S
C1149 H1173 0.949 . S
H1150 C1154 0.949 . S
C1151 C1152 1.349 . S
C1151 C1153 1.327 . S
C1151 H1174 0.950 . S
C1152 C1151 1.349 . S
C1152 C1164 1.349 . S
C1153 C1151 1.327 . S
C1153 C1169 1.429 . S
C1153 H1175 0.950 . S
C1154 H1150 0.949 . S
C1154 C1162 1.574 1_556 S
C1154 C1170 1.368 1_565 S
H1155 C1163 0.950 . S
H1156 C1161 0.950 . S
H1157 C1162 0.949 . S
H1158 C1164 0.950 . S
H1159 C1165 0.950 . S
H1160 C1166 0.949 . S
C1161 H1156 0.950 . S
C1161 C1163 1.327 . S
C1161 C1167 1.429 . S
C1162 C1154 1.574 1_554 S
C1162 H1157 0.949 . S
C1162 C1168 1.368 . S
C1163 C1147 1.349 . S
C1163 H1155 0.950 . S
C1163 C1161 1.327 . S
C1164 C1152 1.349 . S
C1164 H1158 0.950 . S
C1164 C1165 1.327 . S
C1165 H1159 0.950 . S
C1165 C1164 1.327 . S
C1165 C1169 1.429 . S
C1166 C1149 1.574 1_556 S
C1166 H1160 0.949 . S
C1166 C1170 1.368 . S
C1167 C1148 1.429 . S
C1167 C1161 1.429 . S
C1167 C1168 1.523 . S
C1168 C1149 1.368 1_565 S
C1168 C1162 1.368 . S
C1168 C1167 1.523 . S
C1169 C1153 1.429 . S
C1169 C1165 1.429 . S
C1169 C1170 1.523 . S
C1170 C1154 1.368 1_545 S
C1170 C1166 1.368 . S
C1170 C1169 1.523 . S
H1171 C1146 0.950 . S
H1172 C1148 0.950 . S
H1173 C1149 0.949 . S
H1174 C1151 0.950 . S
H1175 C1153 0.950 . S
C1176 C1177 1.349 . S
C1176 C1178 1.327 . S
C1176 H1201 0.950 . S
C1177 C1176 1.349 . S
C1177 C1193 1.349 . S
C1178 C1176 1.327 . S
C1178 C1197 1.429 . S
C1178 H1202 0.950 . S
C1179 C1196 1.574 . S
C1179 C1198 1.368 . S
C1179 H1203 0.949 . S
H1180 C1184 0.949 . S
C1181 C1182 1.349 . S
C1181 C1183 1.327 . S
C1181 H1204 0.950 . S
C1182 C1181 1.349 . S
C1182 C1194 1.349 . S
C1183 C1181 1.327 . S
C1183 C1199 1.429 . S
C1183 H1205 0.950 . S
C1184 H1180 0.949 . S
C1184 C1192 1.574 . S
C1184 C1200 1.368 . S
H1185 C1193 0.950 . S
H1186 C1191 0.950 . S
H1187 C1192 0.949 1_655 S
H1188 C1194 0.950 . S
H1189 C1195 0.950 . S
H1190 C1196 0.949 . S
C1191 H1186 0.950 . S
C1191 C1193 1.327 . S
C1191 C1197 1.429 . S
C1192 C1184 1.574 . S
C1192 H1187 0.949 1_455 S
C1192 C1198 1.368 . S
C1193 C1177 1.349 . S
C1193 H1185 0.950 . S
C1193 C1191 1.327 . S
C1194 C1182 1.349 . S
C1194 H1188 0.950 . S
C1194 C1195 1.327 . S
C1195 H1189 0.950 . S
C1195 C1194 1.327 . S
C1195 C1199 1.429 . S
C1196 C1179 1.574 . S
C1196 H1190 0.949 . S
C1196 C1200 1.368 . S
C1197 C1178 1.429 . S
C1197 C1191 1.429 . S
C1197 C1198 1.523 1_655 S
C1198 C1179 1.368 . S
C1198 C1192 1.368 . S
C1198 C1197 1.523 1_455 S
C1199 C1183 1.429 . S
C1199 C1195 1.429 . S
C1199 C1200 1.523 . S
C1200 C1184 1.368 . S
C1200 C1196 1.368 . S
C1200 C1199 1.523 . S
H1201 C1176 0.950 . S
H1202 C1178 0.950 . S
H1203 C1179 0.949 . S
H1204 C1181 0.950 . S
H1205 C1183 0.950 . S
C1206 C1207 1.349 . S
C1206 C1208 1.327 . S
C1206 H1231 0.950 . S
C1207 C1206 1.349 . S
C1207 C1223 1.349 . S
C1208 C1206 1.327 . S
C1208 C1227 1.429 . S
C1208 H1232 0.950 . S
C1209 C1226 1.566 1_545 S
C1209 C1228 1.374 . S
C1209 H1233 0.951 . S
H1210 C1214 0.951 . S
C1211 C1212 1.349 . S
C1211 C1213 1.327 . S
C1211 H1234 0.950 . S
C1212 C1211 1.349 . S
C1212 C1224 1.349 . S
C1213 C1211 1.327 . S
C1213 C1229 1.429 . S
C1213 H1235 0.950 . S
C1214 H1210 0.951 . S
C1214 C1222 1.566 1_565 S
C1214 C1230 1.374 . S
H1215 C1223 0.950 . S
H1216 C1221 0.950 . S
H1217 C1222 0.949 . S
H1218 C1224 0.950 . S
H1219 C1225 0.950 . S
H1220 C1226 0.949 . S
C1221 H1216 0.950 . S
C1221 C1223 1.327 . S
C1221 C1227 1.429 . S
C1222 C1214 1.566 1_545 S
C1222 H1217 0.949 . S
C1222 C1228 1.368 . S
C1223 C1207 1.349 . S
C1223 H1215 0.950 . S
C1223 C1221 1.327 . S
C1224 C1212 1.349 . S
C1224 H1218 0.950 . S
C1224 C1225 1.327 . S
C1225 H1219 0.950 . S
C1225 C1224 1.327 . S
C1225 C1229 1.429 . S
C1226 C1209 1.566 1_565 S
C1226 H1220 0.949 . S
C1226 C1230 1.368 . S
C1227 C1208 1.429 . S
C1227 C1221 1.429 . S
C1227 C1228 1.523 . S
C1228 C1209 1.374 . S
C1228 C1222 1.368 . S
C1228 C1227 1.523 . S
C1229 C1213 1.429 . S
C1229 C1225 1.429 . S
C1229 C1230 1.523 . S
C1230 C1214 1.374 . S
C1230 C1226 1.368 . S
C1230 C1229 1.523 . S
H1231 C1206 0.950 . S
H1232 C1208 0.950 . S
H1233 C1209 0.951 . S
H1234 C1211 0.950 . S
H1235 C1213 0.950 . S
C1236 C1237 1.349 . S
C1236 C1238 1.327 . S
C1236 H1261 0.950 . S
C1237 C1236 1.349 . S
C1237 C1253 1.349 . S
C1238 C1236 1.327 . S
C1238 C1257 1.429 . S
C1238 H1262 0.950 . S
C1239 C1256 1.574 . S
C1239 C1258 1.368 . S
C1239 H1263 0.949 . S
H1240 C1244 0.949 . S
C1241 C1242 1.349 . S
C1241 C1243 1.327 . S
C1241 H1264 0.950 . S
C1242 C1241 1.349 . S
C1242 C1254 1.349 . S
C1243 C1241 1.327 . S
C1243 C1259 1.429 . S
C1243 H1265 0.950 . S
C1244 H1240 0.949 . S
C1244 C1252 1.574 . S
C1244 C1260 1.368 . S
H1245 C1253 0.950 . S
H1246 C1251 0.950 . S
H1247 C1252 0.949 . S
H1248 C1254 0.950 . S
H1249 C1255 0.950 . S
H1250 C1256 0.949 . S
C1251 H1246 0.950 . S
C1251 C1253 1.327 . S
C1251 C1257 1.429 . S
C1252 C1244 1.574 . S
C1252 H1247 0.949 . S
C1252 C1258 1.368 . S
C1253 C1237 1.349 . S
C1253 H1245 0.950 . S
C1253 C1251 1.327 . S
C1254 C1242 1.349 . S
C1254 H1248 0.950 . S
C1254 C1255 1.327 . S
C1255 H1249 0.950 . S
C1255 C1254 1.327 . S
C1255 C1259 1.429 . S
C1256 C1239 1.574 . S
C1256 H1250 0.949 . S
C1256 C1260 1.368 . S
C1257 C1238 1.429 . S
C1257 C1251 1.429 . S
C1257 C1258 1.523 . S
C1258 C1239 1.368 . S
C1258 C1252 1.368 . S
C1258 C1257 1.523 . S
C1259 C1243 1.429 . S
C1259 C1255 1.429 . S
C1259 C1260 1.523 . S
C1260 C1244 1.368 . S
C1260 C1256 1.368 . S
C1260 C1259 1.523 . S
H1261 C1236 0.950 . S
H1262 C1238 0.950 . S
H1263 C1239 0.949 . S
H1264 C1241 0.950 . S
H1265 C1243 0.950 . S
C1266 C1267 1.349 . S
C1266 C1268 1.327 . S
C1266 H1291 0.950 . S
C1267 C1266 1.349 . S
C1267 C1283 1.349 . S
C1268 C1266 1.327 . S
C1268 C1287 1.429 . S
C1268 H1292 0.950 . S
C1269 C1286 1.574 1_655 S
C1269 C1288 1.368 . S
C1269 H1293 0.949 . S
H1270 C1274 0.949 . S
C1271 C1272 1.349 . S
C1271 C1273 1.327 . S
C1271 H1294 0.950 . S
C1272 C1271 1.349 . S
C1272 C1284 1.349 . S
C1273 C1271 1.327 . S
C1273 C1289 1.429 . S
C1273 H1295 0.950 . S
C1274 H1270 0.949 . S
C1274 C1282 1.574 . S
C1274 C1290 1.368 . S
H1275 C1283 0.950 . S
H1276 C1281 0.950 . S
H1277 C1282 0.949 . S
H1278 C1284 0.950 . S
H1279 C1285 0.950 . S
H1280 C1286 0.949 . S
C1281 H1276 0.950 . S
C1281 C1283 1.327 . S
C1281 C1287 1.429 . S
C1282 C1274 1.574 . S
C1282 H1277 0.949 . S
C1282 C1288 1.368 . S
C1283 C1267 1.349 . S
C1283 H1275 0.950 . S
C1283 C1281 1.327 . S
C1284 C1272 1.349 . S
C1284 H1278 0.950 . S
C1284 C1285 1.327 . S
C1285 H1279 0.950 . S
C1285 C1284 1.327 . S
C1285 C1289 1.429 . S
C1286 C1269 1.574 1_455 S
C1286 H1280 0.949 . S
C1286 C1290 1.368 1_455 S
C1287 C1268 1.429 . S
C1287 C1281 1.429 . S
C1287 C1288 1.523 . S
C1288 C1269 1.368 . S
C1288 C1282 1.368 . S
C1288 C1287 1.523 . S
C1289 C1273 1.429 . S
C1289 C1285 1.429 . S
C1289 C1290 1.523 1_455 S
C1290 C1274 1.368 . S
C1290 C1286 1.368 1_655 S
C1290 C1289 1.523 1_655 S
H1291 C1266 0.950 . S
H1292 C1268 0.950 . S
H1293 C1269 0.949 . S
H1294 C1271 0.950 . S
H1295 C1273 0.950 . S
C1296 C1297 1.349 . S
C1296 C1298 1.327 . S
C1296 H1321 0.950 . S
C1297 C1296 1.349 . S
C1297 C1313 1.349 . S
C1298 C1296 1.327 . S
C1298 C1317 1.429 . S
C1298 H1322 0.950 . S
C1299 C1316 1.574 1_565 S
C1299 C1318 1.368 . S
C1299 H1323 0.949 . S
H1300 C1304 0.949 . S
C1301 C1302 1.349 . S
C1301 C1303 1.327 . S
C1301 H1324 0.950 . S
C1302 C1301 1.349 . S
C1302 C1314 1.349 . S
C1303 C1301 1.327 . S
C1303 C1319 1.429 . S
C1303 H1325 0.950 . S
C1304 H1300 0.949 . S
C1304 C1312 1.574 1_545 S
C1304 C1320 1.368 . S
H1305 C1313 0.950 . S
H1306 C1311 0.950 . S
H1307 C1312 0.949 . S
H1308 C1314 0.950 . S
H1309 C1315 0.950 . S
H1310 C1316 0.949 . S
C1311 H1306 0.950 . S
C1311 C1313 1.327 . S
C1311 C1317 1.429 . S
C1312 C1304 1.574 1_565 S
C1312 H1307 0.949 . S
C1312 C1318 1.368 . S
C1313 C1297 1.349 . S
C1313 H1305 0.950 . S
C1313 C1311 1.327 . S
C1314 C1302 1.349 . S
C1314 H1308 0.950 . S
C1314 C1315 1.327 . S
C1315 H1309 0.950 . S
C1315 C1314 1.327 . S
C1315 C1319 1.429 . S
C1316 C1299 1.574 1_545 S
C1316 H1310 0.949 . S
C1316 C1320 1.368 . S
C1317 C1298 1.429 . S
C1317 C1311 1.429 . S
C1317 C1318 1.523 . S
C1318 C1299 1.368 . S
C1318 C1312 1.368 . S
C1318 C1317 1.523 . S
C1319 C1303 1.429 . S
C1319 C1315 1.429 . S
C1319 C1320 1.523 . S
C1320 C1304 1.368 . S
C1320 C1316 1.368 . S
C1320 C1319 1.523 . S
H1321 C1296 0.950 . S
H1322 C1298 0.950 . S
H1323 C1299 0.949 . S
H1324 C1301 0.950 . S
H1325 C1303 0.950 . S
C1326 C1327 1.349 . S
C1326 C1328 1.327 . S
C1326 H1351 0.950 . S
C1327 C1326 1.349 . S
C1327 C1343 1.349 . S
C1328 C1326 1.327 . S
C1328 C1347 1.429 . S
C1328 H1352 0.950 . S
C1329 C1346 1.574 . S
C1329 C1348 1.368 . S
C1329 H1353 0.949 . S
H1330 C1334 0.949 . S
C1331 C1332 1.349 . S
C1331 C1333 1.327 . S
C1331 H1354 0.950 . S
C1332 C1331 1.349 . S
C1332 C1344 1.349 . S
C1333 C1331 1.327 . S
C1333 C1349 1.429 . S
C1333 H1355 0.950 . S
C1334 H1330 0.949 . S
C1334 C1342 1.574 . S
C1334 C1350 1.368 . S
H1335 C1343 0.950 . S
H1336 C1341 0.950 . S
H1337 C1342 0.949 . S
H1338 C1344 0.950 . S
H1339 C1345 0.950 . S
H1340 C1346 0.949 . S
C1341 H1336 0.950 . S
C1341 C1343 1.327 . S
C1341 C1347 1.429 . S
C1342 C1334 1.574 . S
C1342 H1337 0.949 . S
C1342 C1348 1.368 . S
C1343 C1327 1.349 . S
C1343 H1335 0.950 . S
C1343 C1341 1.327 . S
C1344 C1332 1.349 . S
C1344 H1338 0.950 . S
C1344 C1345 1.327 . S
C1345 H1339 0.950 . S
C1345 C1344 1.327 . S
C1345 C1349 1.429 . S
C1346 C1329 1.574 . S
C1346 H1340 0.949 . S
C1346 C1350 1.368 . S
C1347 C1328 1.429 . S
C1347 C1341 1.429 . S
C1347 C1348 1.523 . S
C1348 C1329 1.368 . S
C1348 C1342 1.368 . S
C1348 C1347 1.523 . S
C1349 C1333 1.429 . S
C1349 C1345 1.429 . S
C1349 C1350 1.523 . S
C1350 C1334 1.368 . S
C1350 C1346 1.368 . S
C1350 C1349 1.523 . S
H1351 C1326 0.950 . S
H1352 C1328 0.950 . S
H1353 C1329 0.949 . S
H1354 C1331 0.950 . S
H1355 C1333 0.950 . S
C637 C463 1.906 . S
C642 C22 1.905 . S
C667 C75 1.973 . S
C672 C499 1.973 . S
C697 C145 1.906 . S
C702 C552 1.905 . S
C727 C181 1.905 . S
C732 C622 1.906 . S
C757 C340 1.973 . S
C762 C234 1.973 . S
C787 C304 1.906 . S
C792 C393 1.905 . S
C817 C197 2.210 . S
C822 C38 2.210 . S
C847 C250 2.156 . S
C852 C91 2.156 . S
C877 C294 1.333 . S
C882 C135 1.333 . S
C907 C356 2.156 . S
C912 C515 2.156 . S
C937 C409 2.210 . S
C942 C568 2.210 . S
C967 C453 1.333 . S
C972 C612 1.333 . S
C997 C29 1.832 . S
C1002 C506 1.823 . S
C1027 C82 1.823 . S
C1032 C559 1.833 . S
C1057 C144 1.491 . S
C1062 C621 1.491 . S
C1087 C347 1.823 . S
C1092 C188 1.833 . S
C1117 C241 1.823 . S
C1122 C400 1.833 . S
C1147 C462 1.490 . S
C1152 C303 1.490 . S
C1177 C605 1.688 . S
C1182 C39 1.690 . S
C1207 C92 2.095 . S
C1212 C357 2.095 . S
C1237 C410 1.690 . S
C1242 C128 1.688 . S
C1267 C198 1.690 . S
C1272 C446 1.688 . S
C1297 C251 2.095 . S
C1302 C516 2.095 . S
C1327 C569 1.690 . S
C1332 C287 1.688 . S
