# Generated by pormake.
# Topology umd, (4)-cn, num edge types: 1
# Building blocks:
#     Node 0, Type 0, BuildingBlock: CEKHIL_clean_sbu_0, # of connection points: 4
#     Node 1, Type 0, BuildingBlock: CEKHIL_clean_sbu_0, # of connection points: 4
#     Node 2, Type 0, BuildingBlock: CEKHIL_clean_sbu_0, # of connection points: 4
#     Node 3, Type 0, BuildingBlock: CEKHIL_clean_sbu_0, # of connection points: 4
#     Node 4, Type 0, BuildingBlock: CEKHIL_clean_sbu_0, # of connection points: 4
#     Node 5, Type 0, BuildingBlock: CEKHIL_clean_sbu_0, # of connection points: 4
#     Node 6, Type 0, BuildingBlock: CEKHIL_clean_sbu_0, # of connection points: 4
#     Node 7, Type 0, BuildingBlock: CEKHIL_clean_sbu_0, # of connection points: 4
#     Node 8, Type 0, BuildingBlock: CEKHIL_clean_sbu_0, # of connection points: 4
#     Node 9, Type 0, BuildingBlock: CEKHIL_clean_sbu_0, # of connection points: 4
#     Node 10, Type 0, BuildingBlock: CEKHIL_clean_sbu_0, # of connection points: 4
#     Node 11, Type 0, BuildingBlock: CEKHIL_clean_sbu_0, # of connection points: 4
#     Node 12, Type 0, BuildingBlock: CEKHIL_clean_sbu_0, # of connection points: 4
#     Node 13, Type 0, BuildingBlock: CEKHIL_clean_sbu_0, # of connection points: 4
#     Node 14, Type 0, BuildingBlock: CEKHIL_clean_sbu_0, # of connection points: 4
#     Node 15, Type 0, BuildingBlock: CEKHIL_clean_sbu_0, # of connection points: 4
#     Edge 16, Type (0, 0), BuildingBlock: TEMPAE_clean_linker_10, # of connection points: 2
#     Edge 17, Type (0, 0), BuildingBlock: TEMPAE_clean_linker_10, # of connection points: 2
#     Edge 18, Type (0, 0), BuildingBlock: TEMPAE_clean_linker_10, # of connection points: 2
#     Edge 19, Type (0, 0), BuildingBlock: TEMPAE_clean_linker_10, # of connection points: 2
#     Edge 20, Type (0, 0), BuildingBlock: TEMPAE_clean_linker_10, # of connection points: 2
#     Edge 21, Type (0, 0), BuildingBlock: TEMPAE_clean_linker_10, # of connection points: 2
#     Edge 22, Type (0, 0), BuildingBlock: TEMPAE_clean_linker_10, # of connection points: 2
#     Edge 23, Type (0, 0), BuildingBlock: TEMPAE_clean_linker_10, # of connection points: 2
#     Edge 24, Type (0, 0), BuildingBlock: TEMPAE_clean_linker_10, # of connection points: 2
#     Edge 25, Type (0, 0), BuildingBlock: TEMPAE_clean_linker_10, # of connection points: 2
#     Edge 26, Type (0, 0), BuildingBlock: TEMPAE_clean_linker_10, # of connection points: 2
#     Edge 27, Type (0, 0), BuildingBlock: TEMPAE_clean_linker_10, # of connection points: 2
#     Edge 28, Type (0, 0), BuildingBlock: TEMPAE_clean_linker_10, # of connection points: 2
#     Edge 29, Type (0, 0), BuildingBlock: TEMPAE_clean_linker_10, # of connection points: 2
#     Edge 30, Type (0, 0), BuildingBlock: TEMPAE_clean_linker_10, # of connection points: 2
#     Edge 31, Type (0, 0), BuildingBlock: TEMPAE_clean_linker_10, # of connection points: 2
#     Edge 32, Type (0, 0), BuildingBlock: TEMPAE_clean_linker_10, # of connection points: 2
#     Edge 33, Type (0, 0), BuildingBlock: TEMPAE_clean_linker_10, # of connection points: 2
#     Edge 34, Type (0, 0), BuildingBlock: TEMPAE_clean_linker_10, # of connection points: 2
#     Edge 35, Type (0, 0), BuildingBlock: TEMPAE_clean_linker_10, # of connection points: 2
#     Edge 36, Type (0, 0), BuildingBlock: TEMPAE_clean_linker_10, # of connection points: 2
#     Edge 37, Type (0, 0), BuildingBlock: TEMPAE_clean_linker_10, # of connection points: 2
#     Edge 38, Type (0, 0), BuildingBlock: TEMPAE_clean_linker_10, # of connection points: 2
#     Edge 39, Type (0, 0), BuildingBlock: TEMPAE_clean_linker_10, # of connection points: 2
#     Edge 40, Type (0, 0), BuildingBlock: TEMPAE_clean_linker_10, # of connection points: 2
#     Edge 41, Type (0, 0), BuildingBlock: TEMPAE_clean_linker_10, # of connection points: 2
#     Edge 42, Type (0, 0), BuildingBlock: TEMPAE_clean_linker_10, # of connection points: 2
#     Edge 43, Type (0, 0), BuildingBlock: TEMPAE_clean_linker_10, # of connection points: 2
#     Edge 44, Type (0, 0), BuildingBlock: TEMPAE_clean_linker_10, # of connection points: 2
#     Edge 45, Type (0, 0), BuildingBlock: TEMPAE_clean_linker_10, # of connection points: 2
#     Edge 46, Type (0, 0), BuildingBlock: TEMPAE_clean_linker_10, # of connection points: 2
#     Edge 47, Type (0, 0), BuildingBlock: TEMPAE_clean_linker_10, # of connection points: 2
# Relax obj value: 0.093
# Max RMSD: 0.228
# Mean RMSD: 0.228
data_MOF--net-umd--node1-CEKHIL_clean_sbu_0--edge1-TEMPAE_clean_linker_10
_symmetry_space_group_name_H-M    P1
_symmetry_Int_Tables_number       1
_symmetry_cell_setting            triclinic
loop_
_symmetry_equiv_pos_as_xyz
'x, y, z'
_cell_length_a     39.012313
_cell_length_b     38.997572
_cell_length_c     56.342412
_cell_angle_alpha  90.004375
_cell_angle_beta   90.029139
_cell_angle_gamma 89.993887
loop_
_atom_site_label
_atom_site_type_symbol
_atom_site_fract_x
_atom_site_fract_y
_atom_site_fract_z
_atom_type_partial_charge
Co0 Co 0.2002 0.44958 0.12379 0.0
O1 O 0.2436 0.42698 0.12665 0.0
O2 O 0.19812 0.40478 0.10876 0.0
C3 C 0.19729 0.46701 0.16179 0.0
O4 O 0.15065 0.46479 0.11877 0.0
Co5 Co 0.19552 0.52806 0.13093 0.0
O6 O 0.14545 0.52045 0.12899 0.0
C7 C 0.22006 0.50144 0.08527 0.0
C8 C 0.22986 0.40135 0.1155 0.0
C9 C 0.13267 0.492 0.12236 0.0
O10 O 0.2147 0.47076 0.09274 0.0
O11 O 0.21549 0.52812 0.09811 0.0
O12 O 0.18824 0.43612 0.15589 0.0
O13 O 0.2109 0.48527 0.14508 0.0
Co14 Co 0.56182 0.18927 0.62035 0.0
O15 O 0.58724 0.23114 0.61735 0.0
O16 O 0.60559 0.18011 0.60532 0.0
C17 C 0.54592 0.19642 0.65829 0.0
O18 O 0.5428 0.14068 0.62123 0.0
Co19 Co 0.48305 0.19313 0.6289 0.0
O20 O 0.48665 0.14243 0.63091 0.0
C21 C 0.51044 0.20811 0.58163 0.0
C22 C 0.61119 0.2128 0.6077 0.0
C23 C 0.51404 0.12609 0.62606 0.0
O24 O 0.53995 0.19732 0.58852 0.0
O25 O 0.48492 0.21195 0.59565 0.0
O26 O 0.57624 0.18481 0.65327 0.0
O27 O 0.52781 0.2069 0.64048 0.0
Co28 Co 0.81275 0.5572 0.12302 0.0
O29 O 0.77153 0.58358 0.12593 0.0
O30 O 0.81853 0.60132 0.10749 0.0
C31 C 0.81469 0.5402 0.1611 0.0
O32 O 0.86073 0.53768 0.11797 0.0
Co33 Co 0.81079 0.47869 0.13081 0.0
O34 O 0.86131 0.48186 0.12837 0.0
C35 C 0.78732 0.50657 0.08528 0.0
C36 C 0.78732 0.60759 0.11439 0.0
C37 C 0.87643 0.50909 0.12159 0.0
O38 O 0.796 0.53673 0.09228 0.0
O39 O 0.78947 0.4799 0.09842 0.0
O40 O 0.82627 0.57014 0.15495 0.0
O41 O 0.79934 0.52294 0.1446 0.0
Co42 Co 0.44037 0.80688 0.62048 0.0
O43 O 0.41477 0.76521 0.62219 0.0
O44 O 0.39496 0.81364 0.60687 0.0
C45 C 0.45989 0.80567 0.65792 0.0
O46 O 0.45979 0.85514 0.61725 0.0
Co47 Co 0.51932 0.80225 0.62526 0.0
O48 O 0.51609 0.85302 0.62627 0.0
C49 C 0.48761 0.78337 0.58012 0.0
C50 C 0.38956 0.78169 0.61252 0.0
C51 C 0.48894 0.86967 0.62115 0.0
O52 O 0.45871 0.79388 0.58832 0.0
O53 O 0.51482 0.78149 0.59274 0.0
O54 O 0.42941 0.81719 0.65326 0.0
O55 O 0.4759 0.79151 0.64034 0.0
Co56 Co 0.19645 0.55283 0.37203 0.0
O57 O 0.23921 0.57702 0.37244 0.0
O58 O 0.19095 0.59656 0.3882 0.0
C59 C 0.19755 0.5381 0.33346 0.0
O60 O 0.14729 0.5348 0.37423 0.0
Co61 Co 0.19714 0.4747 0.36209 0.0
O62 O 0.14667 0.47983 0.36191 0.0
C63 C 0.21679 0.49935 0.40931 0.0
C64 C 0.2234 0.60116 0.38385 0.0
C65 C 0.13134 0.5068 0.36901 0.0
O66 O 0.20914 0.53 0.40282 0.0
O67 O 0.21538 0.47343 0.39543 0.0
O68 O 0.18689 0.56823 0.33993 0.0
O69 O 0.2107 0.51936 0.3501 0.0
Co70 Co 0.44675 0.19307 0.86497 0.0
O71 O 0.42338 0.23622 0.86408 0.0
O72 O 0.40117 0.18828 0.87857 0.0
C73 C 0.46614 0.19516 0.82755 0.0
O74 O 0.46319 0.1436 0.86749 0.0
Co75 Co 0.52592 0.19204 0.85967 0.0
O76 O 0.51952 0.14159 0.85843 0.0
C77 C 0.49583 0.21234 0.90518 0.0
C78 C 0.39739 0.22063 0.87347 0.0
C79 C 0.49122 0.12711 0.86356 0.0
O80 O 0.46614 0.20374 0.89725 0.0
O81 O 0.52284 0.21274 0.8923 0.0
O82 O 0.43504 0.18517 0.83186 0.0
O83 O 0.48319 0.20703 0.84544 0.0
Co84 Co 0.80551 0.45275 0.37067 0.0
O85 O 0.76161 0.43107 0.3681 0.0
O86 O 0.80642 0.40826 0.38632 0.0
C87 C 0.80867 0.46856 0.33236 0.0
O88 O 0.85541 0.46735 0.37551 0.0
Co89 Co 0.81262 0.5307 0.36168 0.0
O90 O 0.86174 0.5189 0.35801 0.0
C91 C 0.78798 0.50672 0.4082 0.0
C92 C 0.77467 0.4053 0.37944 0.0
C93 C 0.87412 0.49194 0.36741 0.0
O94 O 0.79143 0.47552 0.40123 0.0
O95 O 0.79411 0.53269 0.39496 0.0
O96 O 0.81716 0.43775 0.33882 0.0
O97 O 0.79563 0.4878 0.34877 0.0
Co98 Co 0.55309 0.80494 0.86638 0.0
O99 O 0.57797 0.7627 0.86506 0.0
O100 O 0.5969 0.80997 0.88251 0.0
C101 C 0.53806 0.80526 0.82786 0.0
O102 O 0.53491 0.8538 0.86982 0.0
Co103 Co 0.47489 0.80485 0.85648 0.0
O104 O 0.48002 0.85532 0.85736 0.0
C105 C 0.49974 0.78367 0.90339 0.0
C106 C 0.60239 0.77826 0.87634 0.0
C107 C 0.50709 0.87011 0.86479 0.0
O108 O 0.5306 0.79065 0.89703 0.0
O109 O 0.47377 0.78624 0.88966 0.0
O110 O 0.56802 0.81619 0.83445 0.0
O111 O 0.51949 0.79149 0.84434 0.0
Co112 Co 0.81154 0.56156 0.86982 0.0
O113 O 0.76905 0.5855 0.8732 0.0
O114 O 0.81952 0.60594 0.8846 0.0
C115 C 0.80428 0.54512 0.83203 0.0
O116 O 0.8605 0.54355 0.86839 0.0
Co117 Co 0.80833 0.48298 0.86214 0.0
O118 O 0.85893 0.48724 0.85909 0.0
C119 C 0.79347 0.51088 0.90906 0.0
C120 C 0.78648 0.61006 0.88288 0.0
C121 C 0.87522 0.51488 0.8634 0.0
O122 O 0.80457 0.54006 0.90186 0.0
O123 O 0.7892 0.48512 0.89531 0.0
O124 O 0.81574 0.57558 0.83688 0.0
O125 O 0.79374 0.52722 0.84994 0.0
Co126 Co 0.44689 0.80814 0.36585 0.0
O127 O 0.42151 0.7663 0.36351 0.0
O128 O 0.40261 0.8132 0.38145 0.0
C129 C 0.46315 0.80897 0.32758 0.0
O130 O 0.46593 0.85676 0.3702 0.0
Co131 Co 0.52508 0.80752 0.35753 0.0
O132 O 0.5181 0.85743 0.35327 0.0
C133 C 0.49843 0.78547 0.40377 0.0
C134 C 0.39708 0.78166 0.37485 0.0
C135 C 0.49232 0.87292 0.36209 0.0
O136 O 0.46793 0.79239 0.39661 0.0
O137 O 0.5251 0.78882 0.39078 0.0
O138 O 0.43325 0.82049 0.33383 0.0
O139 O 0.48099 0.79458 0.34422 0.0
Co140 Co 0.1958 0.44725 0.86803 0.0
O141 O 0.23804 0.42257 0.87062 0.0
O142 O 0.18746 0.40232 0.88185 0.0
C143 C 0.20253 0.46535 0.83049 0.0
O144 O 0.14699 0.46592 0.86726 0.0
Co145 Co 0.19998 0.52607 0.86212 0.0
O146 O 0.14932 0.5226 0.8594 0.0
C147 C 0.21455 0.496 0.90847 0.0
C148 C 0.2204 0.39776 0.8798 0.0
C149 C 0.13255 0.49505 0.86315 0.0
O150 O 0.20347 0.46718 0.90054 0.0
O151 O 0.21879 0.52239 0.8953 0.0
O152 O 0.19101 0.43476 0.83485 0.0
O153 O 0.21364 0.48229 0.8487 0.0
Co154 Co 0.55292 0.19667 0.36877 0.0
O155 O 0.57744 0.23922 0.37017 0.0
O156 O 0.59617 0.19017 0.38534 0.0
C157 C 0.53913 0.19952 0.3301 0.0
O158 O 0.53441 0.14754 0.36997 0.0
Co159 Co 0.4752 0.19764 0.35801 0.0
O160 O 0.48173 0.14766 0.35371 0.0
C161 C 0.49886 0.21595 0.40576 0.0
C162 C 0.60108 0.22275 0.38161 0.0
C163 C 0.50768 0.13179 0.36198 0.0
O164 O 0.5296 0.20859 0.39943 0.0
O165 O 0.47311 0.21455 0.39172 0.0
O166 O 0.56895 0.1882 0.33671 0.0
O167 O 0.52003 0.21204 0.34679 0.0
Co168 Co 0.80433 0.44818 0.62427 0.0
O169 O 0.76064 0.42636 0.62202 0.0
O170 O 0.80912 0.40339 0.60931 0.0
C171 C 0.79914 0.46455 0.66238 0.0
O172 O 0.85424 0.46389 0.62491 0.0
Co173 Co 0.80538 0.52676 0.63241 0.0
O174 O 0.85431 0.51749 0.63986 0.0
C175 C 0.79 0.50037 0.58492 0.0
C176 C 0.77613 0.40049 0.61242 0.0
C177 C 0.86996 0.49037 0.63329 0.0
O178 O 0.7974 0.47013 0.59236 0.0
O179 O 0.78859 0.52661 0.59855 0.0
O180 O 0.80877 0.43364 0.65706 0.0
O181 O 0.78922 0.48319 0.64463 0.0
Co182 Co 0.55636 0.80723 0.11907 0.0
O183 O 0.5795 0.76402 0.11868 0.0
O184 O 0.60122 0.81222 0.10431 0.0
C185 C 0.53914 0.80515 0.15703 0.0
O186 O 0.53913 0.85668 0.11739 0.0
Co187 Co 0.47775 0.80671 0.12605 0.0
O188 O 0.48498 0.85655 0.13123 0.0
C189 C 0.50576 0.7876 0.07971 0.0
C190 C 0.60472 0.77946 0.10823 0.0
C191 C 0.51187 0.87239 0.1245 0.0
O192 O 0.5355 0.79647 0.08738 0.0
O193 O 0.47911 0.78723 0.09293 0.0
O194 O 0.5699 0.81525 0.15172 0.0
O195 O 0.52133 0.79276 0.13962 0.0
Co196 Co 0.18888 0.56091 0.62284 0.0
O197 O 0.22987 0.5869 0.61786 0.0
O198 O 0.17792 0.60363 0.60675 0.0
C199 C 0.19853 0.54783 0.66116 0.0
O200 O 0.14098 0.54045 0.62563 0.0
Co201 Co 0.1957 0.48327 0.63381 0.0
O202 O 0.14575 0.48697 0.64035 0.0
C203 C 0.20704 0.50765 0.58527 0.0
C204 C 0.21067 0.60984 0.60786 0.0
C205 C 0.1277 0.51256 0.63379 0.0
O206 O 0.19591 0.53728 0.59157 0.0
O207 O 0.21224 0.48308 0.5999 0.0
O208 O 0.18541 0.57726 0.65534 0.0
O209 O 0.2089 0.52906 0.64363 0.0
Co210 Co 0.45546 0.19683 0.11934 0.0
O211 O 0.43159 0.23973 0.1181 0.0
O212 O 0.41165 0.19081 0.10347 0.0
C213 C 0.47036 0.19972 0.15779 0.0
O214 O 0.47304 0.14741 0.11814 0.0
Co215 Co 0.53339 0.19623 0.12899 0.0
O216 O 0.52556 0.1467 0.13461 0.0
C217 C 0.50874 0.21459 0.08147 0.0
C218 C 0.40731 0.22348 0.10715 0.0
C219 C 0.49926 0.13126 0.12651 0.0
O220 O 0.47803 0.20811 0.08828 0.0
O221 O 0.5349 0.21256 0.09511 0.0
O222 O 0.44019 0.18889 0.1516 0.0
O223 O 0.48926 0.21181 0.14083 0.0
C224 C 0.07999 0.51127 0.10165 0.0
C225 C 0.0954 0.49068 0.11896 0.0
C226 C 0.04417 0.51345 0.09988 0.0
C227 C 0.0235 0.49563 0.11645 0.0
C228 C 0.03912 0.47438 0.13378 0.0
C229 C 0.07501 0.47179 0.13461 0.0
C230 C 0.02851 0.53545 0.08068 0.0
C231 C 0.01803 0.45563 0.15211 0.0
C232 C 0.93496 0.53162 0.1296 0.0
C233 C 0.91384 0.50752 0.11845 0.0
C234 C 0.97077 0.52805 0.12908 0.0
C235 C 0.98565 0.50042 0.11637 0.0
C236 C 0.9643 0.47691 0.1042 0.0
C237 C 0.92857 0.48035 0.1058 0.0
C238 C 0.99261 0.55309 0.14285 0.0
C239 C 0.97918 0.4479 0.08974 0.0
H240 H 0.09603 0.52594 0.08965 0.0
H241 H 0.08721 0.4563 0.14819 0.0
H242 H 0.00868 0.52076 0.07086 0.0
H243 H 0.01564 0.55796 0.08876 0.0
H244 H 0.04797 0.54482 0.06783 0.0
H245 H 0.03408 0.43973 0.16412 0.0
H246 H 0.00353 0.47441 0.16298 0.0
H247 H 0.99899 0.43878 0.1433 0.0
H248 H 0.9234 0.55235 0.13963 0.0
H249 H 0.91206 0.46181 0.09713 0.0
H250 H 0.01098 0.56602 0.1308 0.0
H251 H 0.00787 0.53911 0.15637 0.0
H252 H 0.97703 0.57298 0.15195 0.0
H253 H 0.99828 0.45799 0.07693 0.0
H254 H 0.95917 0.4336 0.07979 0.0
H255 H 0.99277 0.42968 0.10157 0.0
C256 C 0.52217 0.92281 0.61273 0.0
C257 C 0.49147 0.90741 0.62006 0.0
C258 C 0.52599 0.95855 0.61287 0.0
C259 C 0.49875 0.97933 0.6211 0.0
C260 C 0.46758 0.96394 0.62838 0.0
C261 C 0.46415 0.92809 0.62748 0.0
C262 C 0.5593 0.97404 0.60439 0.0
C263 C 0.4382 0.98526 0.63766 0.0
C264 C 0.52186 0.06824 0.64366 0.0
C265 C 0.51174 0.08868 0.62454 0.0
C266 C 0.51753 0.03251 0.64286 0.0
C267 C 0.50313 0.01716 0.62233 0.0
C268 C 0.49329 0.03793 0.60287 0.0
C269 C 0.49746 0.07359 0.60431 0.0
C270 C 0.52798 0.01124 0.66405 0.0
C271 C 0.47835 0.02251 0.58056 0.0
H272 H 0.54325 0.90684 0.60681 0.0
H273 H 0.44053 0.91618 0.63337 0.0
H274 H 0.55423 0.99299 0.59012 0.0
H275 H 0.57192 0.98795 0.61917 0.0
H276 H 0.57735 0.95438 0.59751 0.0
H277 H 0.41565 0.96936 0.64254 0.0
H278 H 0.4466 0.99984 0.65355 0.0
H279 H 0.43017 0.00427 0.62411 0.0
H280 H 0.53256 0.08029 0.65935 0.0
H281 H 0.48952 0.08977 0.58965 0.0
H282 H 0.54793 0.99245 0.6588 0.0
H283 H 0.50565 0.99643 0.67066 0.0
H284 H 0.53815 0.0272 0.67879 0.0
H285 H 0.49648 0.00352 0.57297 0.0
H286 H 0.47268 0.0422 0.56686 0.0
H287 H 0.45431 0.00862 0.5848 0.0
C288 C 0.07309 0.53426 0.36889 0.0
C289 C 0.09359 0.505 0.37153 0.0
C290 C 0.03711 0.5318 0.36949 0.0
C291 C 0.02142 0.49944 0.37322 0.0
C292 C 0.04208 0.47011 0.3768 0.0
C293 C 0.07785 0.4732 0.37574 0.0
C294 C 0.01588 0.56362 0.36541 0.0
C295 C 0.02642 0.43525 0.38116 0.0
C296 C 0.92748 0.49574 0.39138 0.0
C297 C 0.91156 0.49 0.36949 0.0
C298 C 0.96331 0.49895 0.39292 0.0
C299 C 0.98344 0.49583 0.37209 0.0
C300 C 0.96729 0.48905 0.35005 0.0
C301 C 0.93144 0.48666 0.34898 0.0
C302 C 0.97953 0.50658 0.41667 0.0
C303 C 0.98783 0.48488 0.32752 0.0
H304 H 0.08512 0.55884 0.36556 0.0
H305 H 0.09357 0.45053 0.37812 0.0
H306 H 1.0008 0.56076 0.34882 0.0
H307 H 0.99734 0.56711 0.38014 0.0
H308 H 0.03191 0.58707 0.36394 0.0
H309 H 0.04607 0.4154 0.38504 0.0
H310 H 0.00827 0.43645 0.39629 0.0
H311 H 0.01159 0.42712 0.36532 0.0
H312 H 0.91181 0.49899 0.40711 0.0
H313 H 0.91883 0.4826 0.33205 0.0
H314 H 0.99305 0.53159 0.4159 0.0
H315 H 0.99897 0.48678 0.421 0.0
H316 H 0.96037 0.50755 0.43123 0.0
H317 H 0.00221 0.5088 0.32374 0.0
H318 H 0.97141 0.47879 0.31197 0.0
H319 H 0.00695 0.46404 0.32971 0.0
C320 C 0.47552 0.92361 0.87486 0.0
C321 C 0.50596 0.90773 0.8675 0.0
C322 C 0.47281 0.95943 0.87587 0.0
C323 C 0.50093 0.97986 0.86869 0.0
C324 C 0.53196 0.96394 0.86162 0.0
C325 C 0.53426 0.92797 0.86142 0.0
C326 C 0.43964 0.97538 0.88415 0.0
C327 C 0.56229 0.98489 0.85345 0.0
C328 C 0.48124 0.06958 0.84616 0.0
C329 C 0.49125 0.08965 0.8655 0.0
C330 C 0.48428 0.03373 0.84697 0.0
C331 C 0.49734 0.01782 0.86772 0.0
C332 C 0.50687 0.03818 0.88747 0.0
C333 C 0.50399 0.074 0.88602 0.0
C334 C 0.47412 0.01293 0.82548 0.0
C335 C 0.52038 0.02217 0.91001 0.0
H336 H 0.45371 0.90793 0.87979 0.0
H337 H 0.55771 0.91568 0.85555 0.0
H338 H 0.44471 0.99412 0.89856 0.0
H339 H 0.42751 0.98962 0.86932 0.0
H340 H 0.42115 0.95594 0.89076 0.0
H341 H 0.58483 0.96865 0.84909 0.0
H342 H 0.55514 0.99988 0.83745 0.0
H343 H 0.5698 0.00351 0.86739 0.0
H344 H 0.47182 0.08203 0.83023 0.0
H345 H 0.51196 0.08986 0.90084 0.0
H346 H 0.45368 0.99443 0.83029 0.0
H347 H 0.4964 0.99782 0.81911 0.0
H348 H 0.46471 0.02926 0.8107 0.0
H349 H 0.50169 0.00318 0.91692 0.0
H350 H 0.52545 0.04154 0.92404 0.0
H351 H 0.54452 0.00816 0.90627 0.0
C352 C 0.92954 0.49505 0.88155 0.0
C353 C 0.91278 0.51318 0.86354 0.0
C354 C 0.96536 0.49192 0.88165 0.0
C355 C 0.98465 0.50645 0.86288 0.0
C356 C 0.96762 0.52449 0.84447 0.0
C357 C 0.93178 0.52802 0.84519 0.0
C358 C 0.98257 0.47328 0.9019 0.0
C359 C 0.9872 0.53967 0.8239 0.0
C360 C 0.0788 0.52637 0.87293 0.0
C361 C 0.09478 0.49734 0.8633 0.0
C362 C 0.04299 0.52944 0.87316 0.0
C363 C 0.02269 0.50333 0.86281 0.0
C364 C 0.03874 0.47412 0.85277 0.0
C365 C 0.07465 0.4712 0.85349 0.0
C366 C 0.02687 0.56047 0.88469 0.0
C367 C 0.018 0.44618 0.84102 0.0
H368 H 0.91454 0.48354 0.89566 0.0
H369 H 0.9185 0.54165 0.83115 0.0
H370 H 0.99689 0.4508 0.89507 0.0
H371 H 1.00143 0.49043 0.91066 0.0
H372 H 0.96392 0.46428 0.91543 0.0
H373 H 0.97001 0.55177 0.81059 0.0
H374 H 0.00549 0.5593 0.83043 0.0
H375 H 0.00248 0.51941 0.81498 0.0
H376 H 0.09438 0.54649 0.88069 0.0
H377 H 0.08705 0.44891 0.84583 0.0
H378 H 0.00901 0.55222 0.89892 0.0
H379 H 0.01162 0.57497 0.87146 0.0
H380 H 0.04627 0.578 0.89252 0.0
H381 H 1.00043 0.43428 0.85411 0.0
H382 H 0.03444 0.4258 0.83326 0.0
H383 H 0.00189 0.4573 0.82672 0.0
C384 C 0.48078 0.07632 0.34971 0.0
C385 C 0.50595 0.09373 0.36287 0.0
C386 C 0.47787 0.04051 0.35055 0.0
C387 C 0.5005 0.02142 0.36506 0.0
C388 C 0.52582 0.03874 0.37855 0.0
C389 C 0.5284 0.07469 0.37719 0.0
C390 C 0.45087 0.02305 0.33558 0.0
C391 C 0.55026 0.01925 0.39435 0.0
C392 C 0.47406 0.92957 0.37942 0.0
C393 C 0.49372 0.91092 0.36306 0.0
C394 C 0.47656 0.96555 0.3807 0.0
C395 C 0.49874 0.98324 0.36496 0.0
C396 C 0.51835 0.9645 0.3483 0.0
C397 C 0.51577 0.92867 0.34767 0.0
C398 C 0.45552 0.98466 0.39887 0.0
C399 C 0.54178 0.98234 0.33089 0.0
H400 H 0.46337 0.0907 0.33849 0.0
H401 H 0.54774 0.08789 0.38755 0.0
H402 H 0.46329 0.00555 0.32266 0.0
H403 H 0.43394 0.0072 0.34696 0.0
H404 H 0.43476 0.04166 0.32564 0.0
H405 H 0.56739 0.03657 0.40458 0.0
H406 H 0.53569 0.00304 0.407 0.0
H407 H 0.56634 0.00185 0.38347 0.0
H408 H 0.45717 0.91603 0.39147 0.0
H409 H 0.53085 0.91452 0.33482 0.0
H410 H 0.43747 0.00233 0.38981 0.0
H411 H 0.47251 1.00057 0.4102 0.0
H412 H 0.44056 0.96709 0.41043 0.0
H413 H 0.52669 1.0001 0.31958 0.0
H414 H 0.55554 0.96399 0.3192 0.0
H415 H 0.56099 0.99798 0.34055 0.0
C416 C 0.92435 0.51245 0.65084 0.0
C417 C 0.90786 0.49052 0.63471 0.0
C418 C 0.96017 0.51517 0.65141 0.0
C419 C 0.98006 0.49588 0.63522 0.0
C420 C 0.96365 0.47317 0.61918 0.0
C421 C 0.9277 0.47053 0.61926 0.0
C422 C 0.97668 0.53915 0.6691 0.0
C423 C 0.98403 0.45242 0.60151 0.0
C424 C 0.06881 0.5305 0.62096 0.0
C425 C 0.08986 0.50912 0.6347 0.0
C426 C 0.03307 0.52614 0.62072 0.0
C427 C 0.01797 0.50012 0.63481 0.0
C428 C 0.03903 0.47879 0.64895 0.0
C429 C 0.0747 0.4834 0.64862 0.0
C430 C 0.01146 0.54924 0.60525 0.0
C431 C 0.02386 0.45117 0.66453 0.0
H432 H 0.90918 0.52771 0.66301 0.0
H433 H 0.91508 0.4537 0.60667 0.0
H434 H 0.99594 0.52513 0.67987 0.0
H435 H 0.99041 0.55991 0.65958 0.0
H436 H 0.95767 0.551 0.68127 0.0
H437 H 0.9675 0.43533 0.59064 0.0
H438 H 0.99817 0.4699 0.58945 0.0
H439 H 0.00335 0.43652 0.61086 0.0
H440 H 0.0803 0.55024 0.61001 0.0
H441 H 0.09074 0.46687 0.65939 0.0
H442 H 0.99318 0.56394 0.61638 0.0
H443 H 0.99608 0.53358 0.59271 0.0
H444 H 0.0272 0.56766 0.59489 0.0
H445 H 0.0057 0.46273 0.6774 0.0
H446 H 0.04377 0.43682 0.67454 0.0
H447 H 0.0091 0.43273 0.65355 0.0
C448 C 0.52258 0.07551 0.1412 0.0
C449 C 0.49999 0.09323 0.12616 0.0
C450 C 0.5249 0.03964 0.14066 0.0
C451 C 0.50445 0.02091 0.12447 0.0
C452 C 0.48157 0.03858 0.10922 0.0
C453 C 0.47939 0.07455 0.11038 0.0
C454 C 0.54912 0.02177 0.15754 0.0
C455 C 0.45957 0.01948 0.09157 0.0
C456 C 0.53301 0.92974 0.11032 0.0
C457 C 0.51085 0.91041 0.12463 0.0
C458 C 0.53085 0.96575 0.10975 0.0
C459 C 0.50635 0.98277 0.12411 0.0
C460 C 0.48424 0.96338 0.13879 0.0
C461 C 0.48661 0.92751 0.13875 0.0
C462 C 0.55465 0.98559 0.09371 0.0
C463 C 0.45821 0.98053 0.1547 0.0
H464 H 0.53842 0.08971 0.15359 0.0
H465 H 0.46208 0.08807 0.09859 0.0
H466 H 0.53464 0.00374 0.16901 0.0
H467 H 0.56807 0.00641 0.14743 0.0
H468 H 0.5632 0.04008 0.16909 0.0
H469 H 0.44378 0.03702 0.08053 0.0
H470 H 0.476 0.00384 0.07969 0.0
H471 H 0.44224 1.00155 0.10104 0.0
H472 H 0.55162 0.91672 0.09925 0.0
H473 H 0.46955 0.91281 0.15002 0.0
H474 H 0.57094 0.00301 0.10443 0.0
H475 H 0.53953 0.00181 0.08137 0.0
H476 H 0.57155 0.96851 0.08313 0.0
H477 H 0.47138 0.99798 0.1673 0.0
H478 H 0.44289 0.96173 0.16504 0.0
H479 H 0.44044 0.99639 0.14394 0.0
C480 C 0.173 0.54347 0.29283 0.0
C481 C 0.19525 0.5267 0.30855 0.0
C482 C 0.17142 0.5341 0.26882 0.0
C483 C 0.19315 0.50781 0.26027 0.0
C484 C 0.2155 0.4906 0.27613 0.0
C485 C 0.21601 0.50002 0.30019 0.0
C486 C 0.14668 0.55248 0.25259 0.0
C487 C 0.23937 0.46273 0.26759 0.0
C488 C 0.1728 0.4622 0.20247 0.0
C489 C 0.19447 0.47919 0.1865 0.0
C490 C 0.17147 0.47182 0.22643 0.0
C491 C 0.19286 0.4986 0.23467 0.0
C492 C 0.21442 0.5162 0.21853 0.0
C493 C 0.2147 0.5065 0.19453 0.0
C494 C 0.14753 0.45301 0.24299 0.0
C495 C 0.23787 0.54465 0.22672 0.0
H496 H 0.15671 0.56395 0.29931 0.0
H497 H 0.23332 0.48712 0.31231 0.0
H498 H 0.16103 0.5663 0.23854 0.0
H499 H 0.12974 0.53366 0.2436 0.0
H500 H 0.13044 0.57124 0.26226 0.0
H501 H 0.25521 0.45192 0.28217 0.0
H502 H 0.22444 0.44164 0.25936 0.0
H503 H 0.25671 0.47311 0.25373 0.0
H504 H 0.15693 0.44123 0.19623 0.0
H505 H 0.23159 0.51956 0.18222 0.0
H506 H 0.13067 0.47153 0.25232 0.0
H507 H 0.16256 0.43928 0.25674 0.0
H508 H 0.13122 0.43411 0.2335 0.0
H509 H 0.22274 0.5653 0.23529 0.0
H510 H 0.25284 0.55594 0.21189 0.0
H511 H 0.25602 0.53464 0.24022 0.0
C512 C 0.5543 0.21227 0.70044 0.0
C513 C 0.53357 0.19773 0.68286 0.0
C514 C 0.5436 0.21297 0.72419 0.0
C515 C 0.51215 0.19734 0.73052 0.0
C516 C 0.49136 0.18216 0.71276 0.0
C517 C 0.50203 0.1832 0.68897 0.0
C518 C 0.56584 0.23054 0.74246 0.0
C519 C 0.45825 0.16423 0.71894 0.0
C520 C 0.50112 0.17068 0.79494 0.0
C521 C 0.47936 0.19642 0.8033 0.0
C522 C 0.51192 0.17051 0.77117 0.0
C523 C 0.50097 0.19706 0.75573 0.0
C524 C 0.47933 0.2234 0.76437 0.0
C525 C 0.46846 0.22252 0.78808 0.0
C526 C 0.53449 0.14169 0.76249 0.0
C527 C 0.46762 0.25244 0.7486 0.0
H528 H 0.57867 0.22358 0.69552 0.0
H529 H 0.4863 0.17164 0.67528 0.0
H530 H 0.55079 0.25049 0.75189 0.0
H531 H 0.57452 0.21173 0.75594 0.0
H532 H 0.58875 0.24281 0.73441 0.0
H533 H 0.44573 0.15265 0.70315 0.0
H534 H 0.46323 0.14369 0.73214 0.0
H535 H 0.44015 0.18262 0.72721 0.0
H536 H 0.50906 0.15034 0.80687 0.0
H537 H 0.45137 0.24223 0.79476 0.0
H538 H 0.55909 0.15212 0.75578 0.0
H539 H 0.52187 0.12827 0.74747 0.0
H540 H 0.54014 0.12268 0.77666 0.0
H541 H 0.49016 0.26567 0.74083 0.0
H542 H 0.45189 0.27156 0.75834 0.0
H543 H 0.45222 0.24221 0.73364 0.0
C544 C 0.79476 0.50238 0.194 0.0
C545 C 0.81699 0.52795 0.18579 0.0
C546 C 0.79472 0.49265 0.21798 0.0
C547 C 0.81798 0.5084 0.23392 0.0
C548 C 0.84135 0.53333 0.2255 0.0
C549 C 0.84032 0.54308 0.20155 0.0
C550 C 0.76914 0.46626 0.22638 0.0
C551 C 0.86706 0.55009 0.24185 0.0
C552 C 0.79456 0.50873 0.2993 0.0
C553 C 0.81277 0.48022 0.30764 0.0
C554 C 0.79625 0.51837 0.27534 0.0
C555 C 0.81717 0.49941 0.25953 0.0
C556 C 0.83655 0.47133 0.26807 0.0
C557 C 0.83387 0.46187 0.29201 0.0
C558 C 0.77494 0.54826 0.2668 0.0
C559 C 0.85971 0.45098 0.25186 0.0
H560 H 0.7766 0.49076 0.18185 0.0
H561 H 0.85773 0.56268 0.19516 0.0
H562 H 0.78264 0.44447 0.23491 0.0
H563 H 0.75205 0.47778 0.23995 0.0
H564 H 0.75308 0.45616 0.21166 0.0
H565 H 0.88483 0.56743 0.2322 0.0
H566 H 0.85346 0.56518 0.25562 0.0
H567 H 0.88237 0.53024 0.25117 0.0
H568 H 0.77817 0.52288 0.31135 0.0
H569 H 0.84822 0.43998 0.29848 0.0
H570 H 0.7565 0.53938 0.25311 0.0
H571 H 0.7916 0.56781 0.25837 0.0
H572 H 0.76038 0.56062 0.28142 0.0
H573 H 0.8442 0.43805 0.23799 0.0
H574 H 0.87462 0.4312 0.2616 0.0
H575 H 0.87788 0.46835 0.24266 0.0
C576 C 0.54521 0.82719 0.78664 0.0
C577 C 0.52686 0.80713 0.80291 0.0
C578 C 0.53578 0.82829 0.76264 0.0
C579 C 0.50765 0.80845 0.75472 0.0
C580 C 0.48897 0.78822 0.7711 0.0
C581 C 0.49865 0.78802 0.79508 0.0
C582 C 0.55587 0.85068 0.74577 0.0
C583 C 0.45897 0.76654 0.76325 0.0
C584 C 0.46066 0.83164 0.69815 0.0
C585 C 0.47434 0.80797 0.68202 0.0
C586 C 0.47208 0.83279 0.7217 0.0
C587 C 0.49733 0.80923 0.72937 0.0
C588 C 0.51179 0.78573 0.71302 0.0
C589 C 0.50033 0.78562 0.68938 0.0
C590 C 0.45663 0.85875 0.73848 0.0
C591 C 0.53852 0.76 0.72067 0.0
H592 H 0.56695 0.84214 0.79268 0.0
H593 H 0.48452 0.77238 0.80762 0.0
H594 H 0.56732 0.83477 0.73151 0.0
H595 H 0.53851 0.86943 0.73711 0.0
H596 H 0.57674 0.86496 0.75486 0.0
H597 H 0.4476 0.7517 0.77812 0.0
H598 H 0.43877 0.78307 0.75543 0.0
H599 H 0.46726 0.74833 0.74924 0.0
H600 H 0.44077 0.8492 0.69239 0.0
H601 H 0.51084 0.76725 0.67691 0.0
H602 H 0.47717 0.87387 0.74721 0.0
H603 H 0.44222 0.84534 0.75268 0.0
H604 H 0.43893 0.87671 0.72931 0.0
H605 H 0.56068 0.77334 0.72886 0.0
H606 H 0.54793 0.74418 0.70562 0.0
H607 H 0.52757 0.74271 0.73434 0.0
C608 C 0.77515 0.51447 0.79894 0.0
C609 C 0.80373 0.53219 0.80756 0.0
C610 C 0.77346 0.50434 0.77505 0.0
C611 C 0.8016 0.51103 0.75983 0.0
C612 C 0.83091 0.52812 0.76875 0.0
C613 C 0.83133 0.53909 0.79245 0.0
C614 C 0.74145 0.48694 0.766 0.0
C615 C 0.8619 0.53461 0.75334 0.0
C616 C 0.81142 0.45517 0.70523 0.0
C617 C 0.79982 0.47699 0.68713 0.0
C618 C 0.81211 0.46596 0.72893 0.0
C619 C 0.80078 0.49936 0.73473 0.0
C620 C 0.78906 0.52159 0.71656 0.0
C621 C 0.7888 0.51015 0.6929 0.0
C622 C 0.8251 0.44162 0.74776 0.0
C623 C 0.77668 0.55737 0.72213 0.0
H624 H 0.7537 0.50955 0.81068 0.0
H625 H 0.8535 0.55265 0.79931 0.0
H626 H 0.73076 0.50157 0.75081 0.0
H627 H 0.74772 0.46088 0.75943 0.0
H628 H 0.7214 0.48472 0.77991 0.0
H629 H 0.88297 0.54743 0.76321 0.0
H630 H 0.87166 0.50999 0.74613 0.0
H631 H 0.8547 0.55088 0.73798 0.0
H632 H 0.82002 0.42949 0.70089 0.0
H633 H 0.77985 0.52709 0.67896 0.0
H634 H 0.80473 0.43675 0.76107 0.0
H635 H 0.84708 0.4533 0.7573 0.0
H636 H 0.83341 0.41663 0.74024 0.0
H637 H 0.75526 0.55622 0.73505 0.0
H638 H 0.76782 0.57124 0.70603 0.0
H639 H 0.79759 0.57238 0.7305 0.0
C640 C 0.45808 0.83195 0.28648 0.0
C641 C 0.47485 0.81051 0.30272 0.0
C642 C 0.46765 0.83252 0.26249 0.0
C643 C 0.49424 0.81067 0.25455 0.0
C644 C 0.51143 0.78913 0.27093 0.0
C645 C 0.50172 0.78954 0.29491 0.0
C646 C 0.44927 0.8564 0.24565 0.0
C647 C 0.53971 0.76527 0.26306 0.0
C648 C 0.49861 0.78743 0.18911 0.0
C649 C 0.52596 0.80787 0.18147 0.0
C650 C 0.48781 0.78821 0.21289 0.0
C651 C 0.50433 0.8105 0.22913 0.0
C652 C 0.53114 0.83208 0.22123 0.0
C653 C 0.54185 0.83024 0.19754 0.0
C654 C 0.45937 0.76456 0.22077 0.0
C655 C 0.54883 0.85676 0.23788 0.0
H656 H 0.43741 0.84835 0.29251 0.0
H657 H 0.51461 0.77283 0.30743 0.0
H658 H 0.46801 0.87353 0.23678 0.0
H659 H 0.43629 0.84138 0.23155 0.0
H660 H 0.42983 0.87246 0.25481 0.0
H661 H 0.55017 0.74982 0.27797 0.0
H662 H 0.52994 0.74755 0.24921 0.0
H663 H 0.56095 0.7802 0.25504 0.0
H664 H 0.48637 0.77007 0.1767 0.0
H665 H 0.56279 0.84635 0.19158 0.0
H666 H 0.43826 0.77959 0.22888 0.0
H667 H 0.46912 0.74675 0.23457 0.0
H668 H 0.44878 0.74921 0.20586 0.0
H669 H 0.52967 0.87356 0.24662 0.0
H670 H 0.56786 0.87316 0.22859 0.0
H671 H 0.56223 0.84231 0.25208 0.0
C672 C 0.1772 0.46823 0.79013 0.0
C673 C 0.20209 0.47951 0.80627 0.0
C674 C 0.17682 0.48018 0.76668 0.0
C675 C 0.20258 0.50321 0.75902 0.0
C676 C 0.22784 0.51468 0.77528 0.0
C677 C 0.22697 0.50306 0.79889 0.0
C678 C 0.14885 0.46814 0.7501 0.0
C679 C 0.25609 0.53869 0.7676 0.0
C680 C 0.21792 0.50657 0.69244 0.0
C681 C 0.2003 0.53654 0.68616 0.0
C682 C 0.21957 0.49582 0.71621 0.0
C683 C 0.20282 0.51529 0.73399 0.0
C684 C 0.18507 0.5456 0.72772 0.0
C685 C 0.1842 0.55595 0.70389 0.0
C686 C 0.23902 0.46351 0.72228 0.0
C687 C 0.16644 0.56676 0.7461 0.0
H688 H 0.15776 0.45022 0.79594 0.0
H689 H 0.24636 0.51155 0.81137 0.0
H690 H 0.13499 0.49052 0.74263 0.0
H691 H 0.16023 0.45392 0.73499 0.0
H692 H 0.13002 0.4512 0.75911 0.0
H693 H 0.27397 0.54489 0.78234 0.0
H694 H 0.27092 0.52691 0.75291 0.0
H695 H 0.24498 0.56291 0.76074 0.0
H696 H 0.23049 0.49156 0.67879 0.0
H697 H 0.17047 0.57912 0.69913 0.0
H698 H 0.22118 0.44411 0.72966 0.0
H699 H 0.25848 0.46899 0.73614 0.0
H700 H 0.2521 0.45229 0.70659 0.0
H701 H 0.14624 0.55102 0.75467 0.0
H702 H 0.15429 0.58996 0.73834 0.0
H703 H 0.18446 0.57493 0.76024 0.0
C704 C 0.50179 0.21951 0.29682 0.0
C705 C 0.52832 0.19841 0.30502 0.0
C706 C 0.4927 0.21986 0.2727 0.0
C707 C 0.5101 0.19805 0.2566 0.0
C708 C 0.53639 0.17614 0.26494 0.0
C709 C 0.54541 0.17684 0.28902 0.0
C710 C 0.46481 0.24388 0.26438 0.0
C711 C 0.55497 0.15193 0.24843 0.0
C712 C 0.46478 0.17693 0.19885 0.0
C713 C 0.48176 0.1984 0.18274 0.0
C714 C 0.47412 0.17617 0.22287 0.0
C715 C 0.50064 0.19792 0.23104 0.0
C716 C 0.51803 0.21954 0.21481 0.0
C717 C 0.50861 0.21925 0.19074 0.0
C718 C 0.45551 0.15218 0.23951 0.0
C719 C 0.54616 0.2434 0.22295 0.0
H720 H 0.48866 0.23632 0.30915 0.0
H721 H 0.56579 0.16031 0.29537 0.0
H722 H 0.47504 0.26132 0.25052 0.0
H723 H 0.44361 0.22903 0.25621 0.0
H724 H 0.45419 0.25961 0.27908 0.0
H725 H 0.57417 0.13591 0.25787 0.0
H726 H 0.53631 0.13474 0.23951 0.0
H727 H 0.56826 0.16668 0.23435 0.0
H728 H 0.44417 0.16057 0.19266 0.0
H729 H 0.52166 0.23597 0.17831 0.0
H730 H 0.44218 0.16713 0.25348 0.0
H731 H 0.47414 0.13511 0.24857 0.0
H732 H 0.43632 0.13605 0.23015 0.0
H733 H 0.53606 0.2612 0.23664 0.0
H734 H 0.55697 0.25874 0.20813 0.0
H735 H 0.56718 0.22849 0.23128 0.0
C736 C 0.24604 0.52021 0.94352 0.0
C737 C 0.22018 0.4991 0.93429 0.0
C738 C 0.25115 0.52286 0.96817 0.0
C739 C 0.22911 0.5049 0.98381 0.0
C740 C 0.20271 0.48393 0.97449 0.0
C741 C 0.19894 0.48088 0.94987 0.0
C742 C 0.2802 0.54459 0.97749 0.0
C743 C 0.17803 0.46505 0.99051 0.0
C744 C 0.24751 0.48141 0.04773 0.0
C745 C 0.22813 0.50603 0.05988 0.0
C746 C 0.25061 0.48252 0.02292 0.0
C747 C 0.23283 0.5081 0.00999 0.0
C748 C 0.21464 0.53401 0.02231 0.0
C749 C 0.21296 0.53294 0.04717 0.0
C750 C 0.27122 0.45512 0.01049 0.0
C751 C 0.19453 0.56117 0.00922 0.0
H752 H 0.26261 0.53413 0.93145 0.0
H753 H 0.17869 0.46482 0.94277 0.0
H754 H 0.26998 0.56565 0.98866 0.0
H755 H 0.29719 0.52883 0.98893 0.0
H756 H 0.29577 0.55594 0.96297 0.0
H757 H 0.15809 0.45091 0.98038 0.0
H758 H 0.19217 0.44645 0.00172 0.0
H759 H 0.16511 0.48344 0.00259 0.0
H760 H 0.25946 0.46071 0.05758 0.0
H761 H 0.19769 0.55183 0.05653 0.0
H762 H 0.28729 0.46654 -0.0037 0.0
H763 H 0.2536 0.43649 0.00197 0.0
H764 H 0.28806 0.44092 0.023 0.0
H765 H 0.21045 0.57329 0.99526 0.0
H766 H 0.18489 0.5815 0.02131 0.0
H767 H 0.17224 0.54907 0.00028 0.0
C768 C 0.46714 0.20734 0.44357 0.0
C769 C 0.49327 0.22386 0.43098 0.0
C770 C 0.46621 0.20865 0.46847 0.0
C771 C 0.49145 0.22777 0.48082 0.0
C772 C 0.51591 0.24707 0.46795 0.0
C773 C 0.51693 0.24435 0.44316 0.0
C774 C 0.44023 0.18704 0.48152 0.0
C775 C 0.54256 0.26864 0.48039 0.0
C776 C 0.48248 0.23889 0.54767 0.0
C777 C 0.5054 0.21393 0.55599 0.0
C778 C 0.47786 0.24416 0.52318 0.0
C779 C 0.49577 0.2232 0.50682 0.0
C780 C 0.5185 0.19762 0.51524 0.0
C781 C 0.52339 0.19367 0.53969 0.0
C782 C 0.45425 0.27233 0.5148 0.0
C783 C 0.53754 0.17419 0.49842 0.0
H784 H 0.44904 0.19126 0.4341 0.0
H785 H 0.53701 0.25731 0.43332 0.0
H786 H 0.45336 0.16466 0.48961 0.0
H787 H 0.42821 0.20181 0.49613 0.0
H788 H 0.41974 0.17744 0.46954 0.0
H789 H 0.5556 0.28653 0.46799 0.0
H790 H 0.53075 0.2837 0.49496 0.0
H791 H 0.56225 0.25169 0.48842 0.0
H792 H 0.46869 0.25469 0.56029 0.0
H793 H 0.54081 0.17407 0.54608 0.0
H794 H 0.43356 0.26148 0.50358 0.0
H795 H 0.46874 0.29075 0.50364 0.0
H796 H 0.44239 0.28651 0.5298 0.0
H797 H 0.51916 0.16101 0.48647 0.0
H798 H 0.55283 0.15445 0.50792 0.0
H799 H 0.55513 0.18942 0.48712 0.0
C800 C 0.76288 0.52907 0.0474 0.0
C801 C 0.77817 0.50216 0.06003 0.0
C802 C 0.75962 0.52756 0.02262 0.0
C803 C 0.77304 0.49898 0.0102 0.0
C804 C 0.78659 0.47083 0.02301 0.0
C805 C 0.78856 0.47259 0.04785 0.0
C806 C 0.74399 0.55761 0.00965 0.0
C807 C 0.8019 0.44023 0.01047 0.0
C808 C 0.75912 0.48952 0.94357 0.0
C809 C 0.78799 0.50662 0.93473 0.0
C810 C 0.7535 0.48705 0.96818 0.0
C811 C 0.77796 0.50101 0.98408 0.0
C812 C 0.80761 0.51742 0.97508 0.0
C813 C 0.81192 0.52053 0.95053 0.0
C814 C 0.72113 0.47033 0.97716 0.0
C815 C 0.83488 0.53174 0.99137 0.0
H816 H 0.7545 0.55183 0.05682 0.0
H817 H 0.80059 0.4518 0.05755 0.0
H818 H 0.76457 0.57283 0.00108 0.0
H819 H 0.72647 0.54859 -0.00456 0.0
H820 H 0.72954 0.57475 0.02181 0.0
H821 H 0.80704 0.41867 0.02286 0.0
H822 H 0.7847 0.43104 -0.00385 0.0
H823 H 0.82646 0.44788 0.00207 0.0
H824 H 0.74053 0.479 0.93126 0.0
H825 H 0.83442 0.53346 0.94361 0.0
H826 H 0.70585 0.48929 0.98735 0.0
H827 H 0.72745 0.44904 0.98946 0.0
H828 H 0.70504 0.4601 0.9625 0.0
H829 H 0.82402 0.55281 0.00224 0.0
H830 H 0.85731 0.54187 0.98146 0.0
H831 H 0.84392 0.51155 0.00376 0.0
C832 C 0.51432 0.75396 0.54502 0.0
C833 C 0.49011 0.77689 0.55433 0.0
C834 C 0.51796 0.74976 0.52034 0.0
C835 C 0.49779 0.76992 0.50476 0.0
C836 C 0.47321 0.79293 0.51414 0.0
C837 C 0.4693 0.79569 0.53876 0.0
C838 C 0.54355 0.72411 0.51096 0.0
C839 C 0.45175 0.81557 0.4982 0.0
C840 C 0.52692 0.79371 0.44279 0.0
C841 C 0.50276 0.77627 0.42894 0.0
C842 C 0.52687 0.79048 0.4676 0.0
C843 C 0.50286 0.76833 0.47862 0.0
C844 C 0.48043 0.74842 0.46444 0.0
C845 C 0.4801 0.75324 0.43976 0.0
C846 C 0.55048 0.81299 0.48205 0.0
C847 C 0.4554 0.72355 0.47542 0.0
H848 H 0.53034 0.73929 0.55703 0.0
H849 H 0.45082 0.81376 0.54586 0.0
H850 H 0.53115 0.70706 0.49772 0.0
H851 H 0.5647 0.73769 0.50178 0.0
H852 H 0.55471 0.70808 0.52532 0.0
H853 H 0.43439 0.83269 0.50839 0.0
H854 H 0.46869 0.83168 0.48697 0.0
H855 H 0.43597 0.7996 0.48613 0.0
H856 H 0.54418 0.81179 0.43438 0.0
H857 H 0.46154 0.73963 0.42895 0.0
H858 H 0.56416 0.79769 0.49566 0.0
H859 H 0.5351 0.83262 0.49154 0.0
H860 H 0.56972 0.82633 0.47083 0.0
H861 H 0.46802 0.70832 0.48959 0.0
H862 H 0.44448 0.70571 0.46203 0.0
H863 H 0.434 0.73793 0.4837 0.0
C864 C 0.24223 0.5189 0.44749 0.0
C865 C 0.2245 0.4938 0.43463 0.0
C866 C 0.24452 0.51711 0.47229 0.0
C867 C 0.22764 0.49022 0.48448 0.0
C868 C 0.2115 0.46368 0.47144 0.0
C869 C 0.21053 0.46557 0.44656 0.0
C870 C 0.2629 0.54534 0.4855 0.0
C871 C 0.19256 0.43499 0.48374 0.0
C872 C 0.23914 0.48117 0.55133 0.0
C873 C 0.21217 0.50163 0.55968 0.0
C874 C 0.2447 0.47708 0.52682 0.0
C875 C 0.22212 0.49301 0.5105 0.0
C876 C 0.19424 0.51277 0.51897 0.0
C877 C 0.18994 0.51723 0.54342 0.0
C878 C 0.27518 0.45661 0.5184 0.0
C879 C 0.16902 0.5295 0.5022 0.0
H880 H 0.25332 0.54058 0.4382 0.0
H881 H 0.19662 0.44627 0.4366 0.0
H882 H 0.24381 0.56274 0.49374 0.0
H883 H 0.2789 0.53455 0.49997 0.0
H884 H 0.2795 0.56077 0.47355 0.0
H885 H 0.18571 0.41397 0.47129 0.0
H886 H 0.20809 0.4242 0.49843 0.0
H887 H 0.16858 0.44526 0.4916 0.0
H888 H 0.25645 0.46928 0.56394 0.0
H889 H 0.16883 0.53273 0.54987 0.0
H890 H 0.29293 0.47361 0.50848 0.0
H891 H 0.26686 0.43617 0.50599 0.0
H892 H 0.28944 0.44464 0.53333 0.0
H893 H 0.18229 0.54917 0.49135 0.0
H894 H 0.14748 0.54205 0.51173 0.0
H895 H 0.1583 0.51015 0.48982 0.0
C896 C 0.47865 0.20034 0.94679 0.0
C897 C 0.49939 0.2186 0.93092 0.0
C898 C 0.4833 0.20323 0.97135 0.0
C899 C 0.50861 0.22581 0.98032 0.0
C900 C 0.52889 0.24525 0.9644 0.0
C901 C 0.52446 0.24094 0.93981 0.0
C902 C 0.46166 0.18139 0.98767 0.0
C903 C 0.55527 0.27044 0.97336 0.0
C904 C 0.49165 0.24573 0.0449 0.0
C905 C 0.51368 0.22256 0.0562 0.0
C906 C 0.49197 0.24939 0.02014 0.0
C907 C 0.51381 0.22827 0.00641 0.0
C908 C 0.5373 0.20601 0.01788 0.0
C909 C 0.53732 0.20384 0.04276 0.0
C910 C 0.46742 0.27431 0.00866 0.0
C911 C 0.56032 0.18234 0.0039 0.0
H912 H 0.45953 0.18271 0.93998 0.0
H913 H 0.54043 0.25517 0.92753 0.0
H914 H 0.47843 0.16535 -0.00092 0.0
H915 H 0.44623 0.19797 -0.00043 0.0
H916 H 0.44394 0.16426 0.97778 0.0
H917 H 0.56738 0.28516 0.95871 0.0
H918 H 0.54319 0.28874 0.98591 0.0
H919 H 0.57563 0.25667 0.98325 0.0
H920 H 0.47346 0.26029 0.05542 0.0
H921 H 0.55407 0.18567 0.05158 0.0
H922 H 0.4458 0.26001 0.00056 0.0
H923 H 0.48037 0.28879 0.99427 0.0
H924 H 0.45675 0.29284 0.0217 0.0
H925 H 0.54447 0.16248 0.99502 0.0
H926 H 0.57948 0.16928 0.01536 0.0
H927 H 0.57406 0.19664 0.98982 0.0
C928 C 0.79725 0.53828 0.44608 0.0
C929 C 0.77999 0.51255 0.43348 0.0
C930 C 0.79536 0.53991 0.47093 0.0
C931 C 0.77488 0.51585 0.48333 0.0
C932 C 0.75508 0.49173 0.47046 0.0
C933 C 0.75838 0.48993 0.44569 0.0
C934 C 0.81764 0.56539 0.48394 0.0
C935 C 0.73208 0.46638 0.48295 0.0
C936 C 0.8055 0.48533 0.54352 0.0
C937 C 0.78553 0.50496 0.55908 0.0
C938 C 0.80257 0.48916 0.5189 0.0
C939 C 0.77825 0.51247 0.50953 0.0
C940 C 0.75763 0.53212 0.52515 0.0
C941 C 0.76194 0.52855 0.54984 0.0
C942 C 0.82576 0.46837 0.50294 0.0
C943 C 0.73075 0.55644 0.51577 0.0
H944 H 0.81422 0.55559 0.43666 0.0
H945 H 0.74482 0.47018 0.43592 0.0
H946 H 0.80285 0.57871 0.49798 0.0
H947 H 0.83899 0.55156 0.49278 0.0
H948 H 0.82873 0.5849 0.47181 0.0
H949 H 0.71411 0.45362 0.47045 0.0
H950 H 0.74795 0.44633 0.49157 0.0
H951 H 0.71702 0.47929 0.49706 0.0
H952 H 0.82406 0.46735 0.55064 0.0
H953 H 0.74636 0.5436 0.56189 0.0
H954 H 0.8401 0.48562 0.49083 0.0
H955 H 0.81022 0.45088 0.49175 0.0
H956 H 0.84449 0.45274 0.51312 0.0
H957 H 0.7428 0.57608 0.50424 0.0
H958 H 0.71663 0.56963 0.53024 0.0
H959 H 0.7121 0.54214 0.50466 0.0
C960 C 0.52985 0.78709 0.03871 0.0
C961 C 0.50247 0.77975 0.05404 0.0
C962 C 0.52663 0.78321 0.01412 0.0
C963 C 0.4954 0.77104 0.00452 0.0
C964 C 0.46822 0.76179 0.01988 0.0
C965 C 0.47192 0.76658 0.0445 0.0
C966 C 0.55616 0.79379 -0.00163 0.0
C967 C 0.4349 0.74784 0.01027 0.0
C968 C 0.47925 0.80366 0.94234 0.0
C969 C 0.49358 0.77742 0.92867 0.0
C970 C 0.47806 0.80114 0.96712 0.0
C971 C 0.49067 0.77117 0.97834 0.0
C972 C 0.50294 0.74354 0.96437 0.0
C973 C 0.50497 0.74732 0.9396 0.0
C974 C 0.46571 0.83159 0.98132 0.0
C975 C 0.5155 0.71076 0.97563 0.0
H976 H 0.55365 0.79716 0.0458 0.0
H977 H 0.45075 0.76048 0.0562 0.0
H978 H 0.56361 0.77233 0.98655 0.0
H979 H 0.54818 0.8155 0.98689 0.0
H980 H 0.57906 0.80179 0.00872 0.0
H981 H 0.41826 0.73743 0.02455 0.0
H982 H 0.42073 0.76855 0.00101 0.0
H983 H 0.4399 0.7273 -0.00291 0.0
H984 H 0.47081 0.82704 0.93369 0.0
H985 H 0.51605 0.7271 0.92884 0.0
H986 H 0.48751 0.8427 0.99139 0.0
H987 H 0.44611 0.82354 0.99442 0.0
H988 H 0.45459 0.85196 0.96987 0.0
H989 H 0.54087 0.71521 0.98397 0.0
H990 H 0.51819 0.6898 0.9624 0.0
H991 H 0.49768 0.70229 0.98981 0.0
C992 C 0.24486 0.3492 0.09144 0.0
C993 C 0.24983 0.36973 0.11156 0.0
C994 C 0.26656 0.32105 0.08689 0.0
C995 C 0.29314 0.31309 0.10315 0.0
C996 C 0.29691 0.33284 0.12409 0.0
C997 C 0.27551 0.3611 0.12785 0.0
C998 C 0.26212 0.30099 0.06421 0.0
C999 C 0.32444 0.32498 0.14218 0.0
C1000 C 0.34383 0.23054 0.10768 0.0
C1001 C 0.37605 0.24199 0.10021 0.0
C1002 C 0.31526 0.25253 0.10682 0.0
C1003 C 0.3192 0.28627 0.09783 0.0
C1004 C 0.35097 0.29633 0.08788 0.0
C1005 C 0.37919 0.27425 0.08959 0.0
C1006 C 0.28196 0.24088 0.11777 0.0
C1007 C 0.35614 0.33167 0.07753 0.0
H1008 H 0.22504 0.35599 0.07878 0.0
H1009 H 0.2791 0.37673 0.14358 0.0
H1010 H 0.28357 0.30702 0.05197 0.0
H1011 H 0.26299 0.27303 0.06775 0.0
H1012 H 0.23761 0.30723 0.05513 0.0
H1013 H 0.32187 0.34083 0.15846 0.0
H1014 H 0.32346 0.29753 0.14732 0.0
H1015 H 0.35006 0.32987 0.13435 0.0
H1016 H 0.34159 0.2056 0.11605 0.0
H1017 H 0.4042 0.28291 0.08368 0.0
H1018 H 0.25976 0.24941 0.10698 0.0
H1019 H 0.27931 0.25255 0.13564 0.0
H1020 H 0.28095 0.21255 0.11972 0.0
H1021 H 0.33403 0.33905 0.06625 0.0
H1022 H 0.37993 0.3332 0.06675 0.0
H1023 H 0.35804 0.35067 0.09214 0.0
C1024 C 0.77157 0.34076 0.59538 0.0
C1025 C 0.75655 0.36898 0.60678 0.0
C1026 C 0.75261 0.3105 0.59137 0.0
C1027 C 0.71822 0.30845 0.59936 0.0
C1028 C 0.70295 0.33716 0.61051 0.0
C1029 C 0.72216 0.36699 0.61388 0.0
C1030 C 0.76946 0.28065 0.57898 0.0
C1031 C 0.66642 0.3362 0.6195 0.0
C1032 C 0.64648 0.24937 0.58135 0.0
C1033 C 0.644 0.22881 0.60161 0.0
C1034 C 0.67361 0.27276 0.57878 0.0
C1035 C 0.6979 0.27627 0.59734 0.0
C1036 C 0.69704 0.25324 0.6168 0.0
C1037 C 0.67001 0.22965 0.61865 0.0
C1038 C 0.67405 0.29617 0.55748 0.0
C1039 C 0.72209 0.25625 0.63711 0.0
H1040 H 0.7981 0.3422 0.58976 0.0
H1041 H 0.71024 0.38864 0.62268 0.0
H1042 H 0.77329 0.25936 0.59176 0.0
H1043 H 0.75272 0.27086 0.56456 0.0
H1044 H 0.79475 0.28768 0.57134 0.0
H1045 H 0.65851 0.36075 0.62787 0.0
H1046 H 0.64857 0.33063 0.60467 0.0
H1047 H 0.66351 0.31541 0.63279 0.0
H1048 H 0.62605 0.24877 0.5683 0.0
H1049 H 0.66763 0.21395 0.63446 0.0
H1050 H 0.70068 0.3009 0.5514 0.0
H1051 H 0.66268 0.32128 0.56238 0.0
H1052 H 0.65895 0.28536 0.54252 0.0
H1053 H 0.74853 0.26028 0.63047 0.0
H1054 H 0.72177 0.23313 0.64863 0.0
H1055 H 0.71519 0.27882 0.64813 0.0
C1056 C 0.76604 0.65388 0.08743 0.0
C1057 C 0.77012 0.6406 0.11034 0.0
C1058 C 0.74341 0.68139 0.08325 0.0
C1059 C 0.72515 0.69597 0.10254 0.0
C1060 C 0.73174 0.68436 0.12593 0.0
C1061 C 0.75374 0.65648 0.12946 0.0
C1062 C 0.73695 0.69281 0.05807 0.0
C1063 C 0.71339 0.69946 0.1471 0.0
C1064 C 0.66827 0.77517 0.1014 0.0
C1065 C 0.63579 0.75984 0.10192 0.0
C1066 C 0.69808 0.75488 0.09975 0.0
C1067 C 0.69503 0.71869 0.09843 0.0
C1068 C 0.66212 0.70358 0.09688 0.0
C1069 C 0.63299 0.72431 0.09878 0.0
C1070 C 0.7327 0.77195 0.10123 0.0
C1071 C 0.65751 0.66518 0.09513 0.0
H1072 H 0.7786 0.6413 0.07264 0.0
H1073 H 0.75715 0.64616 0.14719 0.0
H1074 H 0.71239 0.6817 0.05177 0.0
H1075 H 0.73463 0.72112 0.05702 0.0
H1076 H 0.75766 0.68424 0.04591 0.0
H1077 H 0.72482 0.69089 0.16416 0.0
H1078 H 0.71408 0.72788 0.14644 0.0
H1079 H 0.68609 0.69149 0.14677 0.0
H1080 H 0.67048 0.80267 0.10373 0.0
H1081 H 0.60786 0.71243 0.09875 0.0
H1082 H 0.75096 0.76008 0.08857 0.0
H1083 H 0.7433 0.76846 0.11934 0.0
H1084 H 0.73105 0.79988 0.09752 0.0
H1085 H 0.6743 0.65441 0.0811 0.0
H1086 H 0.63057 0.65794 0.09115 0.0
H1087 H 0.66496 0.65309 0.1122 0.0
C1088 C 0.25633 0.6402 0.58606 0.0
C1089 C 0.22622 0.64193 0.59947 0.0
C1090 C 0.27767 0.66888 0.58367 0.0
C1091 C 0.26916 0.6996 0.59571 0.0
C1092 C 0.23692 0.70244 0.60716 0.0
C1093 C 0.21558 0.67345 0.60878 0.0
C1094 C 0.31128 0.6649 0.57069 0.0
C1095 C 0.2268 0.7347 0.62015 0.0
C1096 C 0.34798 0.73723 0.6245 0.0
C1097 C 0.35633 0.76424 0.60919 0.0
C1098 C 0.3186 0.71742 0.62094 0.0
C1099 C 0.29708 0.72437 0.60127 0.0
C1100 C 0.30449 0.7526 0.58625 0.0
C1101 C 0.33408 0.77248 0.59051 0.0
C1102 C 0.31157 0.68795 0.63769 0.0
C1103 C 0.28233 0.76071 0.56505 0.0
H1104 H 0.26436 0.61574 0.57877 0.0
H1105 H 0.19232 0.67463 0.61927 0.0
H1106 H 0.31727 0.68825 0.56025 0.0
H1107 H 0.33221 0.66117 0.58379 0.0
H1108 H 0.31098 0.64244 0.55855 0.0
H1109 H 0.19874 0.73569 0.62344 0.0
H1110 H 0.24013 0.73546 0.63755 0.0
H1111 H 0.23455 0.75786 0.61006 0.0
H1112 H 0.36489 0.73112 0.63919 0.0
H1113 H 0.34057 0.79337 0.57864 0.0
H1114 H 0.31459 0.66326 0.62813 0.0
H1115 H 0.28485 0.68921 0.64435 0.0
H1116 H 0.3292 0.68787 0.65319 0.0
H1117 H 0.2878 0.742 0.5507 0.0
H1118 H 0.28733 0.78689 0.5581 0.0
H1119 H 0.25475 0.75842 0.56954 0.0
C1120 C 0.34748 0.76488 0.40081 0.0
C1121 C 0.36449 0.7635 0.37894 0.0
C1122 C 0.31978 0.74267 0.40557 0.0
C1123 C 0.30879 0.71925 0.38786 0.0
C1124 C 0.3245 0.71978 0.36521 0.0
C1125 C 0.35235 0.74158 0.36117 0.0
C1126 C 0.30394 0.74271 0.42998 0.0
C1127 C 0.31337 0.69576 0.34561 0.0
C1128 C 0.27636 0.62954 0.3979 0.0
C1129 C 0.24216 0.63245 0.39066 0.0
C1130 C 0.29745 0.65849 0.39966 0.0
C1131 C 0.28424 0.69106 0.39335 0.0
C1132 C 0.2489 0.69449 0.38792 0.0
C1133 C 0.22808 0.66502 0.38684 0.0
C1134 C 0.33471 0.65363 0.40613 0.0
C1135 C 0.23381 0.7287 0.38108 0.0
H1136 H 0.35706 0.78174 0.4146 0.0
H1137 H 0.36536 0.74079 0.34416 0.0
H1138 H 0.27566 0.74029 0.42889 0.0
H1139 H 0.31364 0.72033 0.44012 0.0
H1140 H 0.31043 0.76637 0.44001 0.0
H1141 H 0.32562 0.70207 0.32836 0.0
H1142 H 0.32034 0.66904 0.35038 0.0
H1143 H 0.28514 0.69669 0.34332 0.0
H1144 H 0.28709 0.6043 0.40114 0.0
H1145 H 0.2016 0.66722 0.38119 0.0
H1146 H 0.34324 0.67382 0.41868 0.0
H1147 H 0.35067 0.6558 0.38989 0.0
H1148 H 0.33952 0.62814 0.41428 0.0
H1149 H 0.24366 0.74939 0.39275 0.0
H1150 H 0.20537 0.72846 0.38197 0.0
H1151 H 0.2415 0.73497 0.36262 0.0
C1152 C 0.34393 0.23396 0.89663 0.0
C1153 C 0.36483 0.23923 0.87675 0.0
C1154 C 0.31524 0.25514 0.90074 0.0
C1155 C 0.30717 0.28147 0.88429 0.0
C1156 C 0.32711 0.28518 0.86344 0.0
C1157 C 0.35586 0.26433 0.86012 0.0
C1158 C 0.29491 0.25066 0.92329 0.0
C1159 C 0.31917 0.31239 0.84514 0.0
C1160 C 0.22575 0.33392 0.87934 0.0
C1161 C 0.23792 0.36591 0.8868 0.0
C1162 C 0.24701 0.30477 0.88046 0.0
C1163 C 0.28075 0.30795 0.88961 0.0
C1164 C 0.29143 0.33952 0.89958 0.0
C1165 C 0.27006 0.36823 0.89772 0.0
C1166 C 0.23463 0.27163 0.86966 0.0
C1167 C 0.32681 0.34396 0.91003 0.0
H1168 H 0.35097 0.21455 0.90951 0.0
H1169 H 0.37179 0.26806 0.84456 0.0
H1170 H 0.30164 0.27148 0.93588 0.0
H1171 H 0.26701 0.25254 0.91973 0.0
H1172 H 0.30036 0.22568 0.93198 0.0
H1173 H 0.33496 0.3095 0.82886 0.0
H1174 H 0.29172 0.31136 0.84003 0.0
H1175 H 0.32415 0.33815 0.85276 0.0
H1176 H 0.20088 0.33223 0.87083 0.0
H1177 H 0.27926 0.39303 0.90369 0.0
H1178 H 0.24296 0.24931 0.88042 0.0
H1179 H 0.24592 0.26873 0.8517 0.0
H1180 H 0.20626 0.27112 0.86793 0.0
H1181 H 0.33355 0.32184 0.9215 0.0
H1182 H 0.32889 0.36788 0.92065 0.0
H1183 H 0.34594 0.34515 0.89548 0.0
C1184 C 0.6641 0.23235 0.3801 0.0
C1185 C 0.63202 0.24107 0.38939 0.0
C1186 C 0.69185 0.25527 0.38188 0.0
C1187 C 0.68726 0.28715 0.39359 0.0
C1188 C 0.65581 0.29414 0.40517 0.0
C1189 C 0.62835 0.27127 0.40254 0.0
C1190 C 0.72474 0.24692 0.36906 0.0
C1191 C 0.64998 0.32734 0.41835 0.0
C1192 C 0.7608 0.35088 0.40158 0.0
C1193 C 0.75422 0.37378 0.38294 0.0
C1194 C 0.73964 0.32203 0.40521 0.0
C1195 C 0.7119 0.31577 0.38952 0.0
C1196 C 0.70612 0.33826 0.3702 0.0
C1197 C 0.72707 0.36707 0.36734 0.0
C1198 C 0.7462 0.29898 0.42623 0.0
C1199 C 0.67726 0.33239 0.35275 0.0
H1200 H 0.66669 0.20909 0.36971 0.0
H1201 H 0.60341 0.27787 0.40973 0.0
H1202 H 0.7257 0.26156 0.35218 0.0
H1203 H 0.74735 0.25454 0.37977 0.0
H1204 H 0.72668 0.21916 0.36482 0.0
H1205 H 0.62709 0.32596 0.43003 0.0
H1206 H 0.67265 0.33403 0.4293 0.0
H1207 H 0.646 0.34838 0.40538 0.0
H1208 H 0.78176 0.35608 0.41369 0.0
H1209 H 0.72214 0.38445 0.35271 0.0
H1210 H 0.74709 0.27176 0.42057 0.0
H1211 H 0.72481 0.3015 0.43909 0.0
H1212 H 0.77055 0.30541 0.43544 0.0
H1213 H 0.67866 0.30602 0.34541 0.0
H1214 H 0.67783 0.35088 0.33776 0.0
H1215 H 0.65224 0.33494 0.36193 0.0
C1216 C 0.77871 0.67356 0.88292 0.0
C1217 C 0.76851 0.64113 0.89084 0.0
C1218 C 0.75612 0.70164 0.88444 0.0
C1219 C 0.72305 0.6969 0.89437 0.0
C1220 C 0.71461 0.6651 0.90498 0.0
C1221 C 0.73727 0.63745 0.90276 0.0
C1222 C 0.7662 0.73513 0.87303 0.0
C1223 C 0.68004 0.65903 0.91626 0.0
C1224 C 0.65594 0.76761 0.9002 0.0
C1225 C 0.63527 0.76051 0.88044 0.0
C1226 C 0.68562 0.74803 0.90472 0.0
C1227 C 0.69488 0.72138 0.88883 0.0
C1228 C 0.67493 0.71558 0.86821 0.0
C1229 C 0.64528 0.73494 0.86445 0.0
C1230 C 0.70598 0.7547 0.927 0.0
C1231 C 0.68402 0.68788 0.85052 0.0
H1232 H 0.80289 0.67629 0.87363 0.0
H1233 H 0.7296 0.6123 0.90906 0.0
H1234 H 0.75422 0.73684 0.8552 0.0
H1235 H 0.75693 0.75723 0.88362 0.0
H1236 H 0.79443 0.7372 0.87088 0.0
H1237 H 0.67994 0.63557 0.92746 0.0
H1238 H 0.67237 0.68124 0.92734 0.0
H1239 H 0.66044 0.65587 0.90214 0.0
H1240 H 0.64817 0.78741 0.91258 0.0
H1241 H 0.62962 0.72979 0.84894 0.0
H1242 H 0.7339 0.75419 0.92329 0.0
H1243 H 0.7006 0.73417 0.94011 0.0
H1244 H 0.69928 0.77976 0.93516 0.0
H1245 H 0.71117 0.6904 0.84493 0.0
H1246 H 0.66757 0.68876 0.83443 0.0
H1247 H 0.68101 0.66231 0.8589 0.0
loop_
_geom_bond_atom_site_label_1
_geom_bond_atom_site_label_2
_geom_bond_distance
_geom_bond_site_symmetry_2
_ccdc_geom_bond_type
Co0 O1 2.216 . S
Co0 O2 2.091 . S
Co0 O4 2.004 . S
Co0 O10 2.021 . S
Co0 O12 2.137 . S
Co0 O13 2.244 . S
O1 Co0 2.216 . S
O1 C8 1.247 . S
O2 Co0 2.091 . S
O2 C8 1.261 . S
C3 O12 1.247 . S
C3 O13 1.272 . S
O4 Co0 2.004 . S
O4 C9 1.259 . S
Co5 O6 2.061 . S
Co5 O11 2.052 . S
Co5 O13 2.135 . S
O6 Co5 2.061 . S
O6 C9 1.235 . S
C7 O10 1.238 . S
C7 O11 1.241 . S
C8 O1 1.247 . S
C8 O2 1.261 . S
C9 O4 1.259 . S
C9 O6 1.235 . S
O10 Co0 2.021 . S
O10 C7 1.238 . S
O11 Co5 2.052 . S
O11 C7 1.241 . S
O12 Co0 2.137 . S
O12 C3 1.247 . S
O13 Co0 2.244 . S
O13 C3 1.272 . S
O13 Co5 2.135 . S
Co14 O15 2.216 . S
Co14 O16 2.091 . S
Co14 O18 2.004 . S
Co14 O24 2.021 . S
Co14 O26 2.137 . S
Co14 O27 2.244 . S
O15 Co14 2.216 . S
O15 C22 1.247 . S
O16 Co14 2.091 . S
O16 C22 1.261 . S
C17 O26 1.247 . S
C17 O27 1.272 . S
O18 Co14 2.004 . S
O18 C23 1.259 . S
Co19 O20 2.061 . S
Co19 O25 2.052 . S
Co19 O27 2.135 . S
O20 Co19 2.061 . S
O20 C23 1.235 . S
C21 O24 1.238 . S
C21 O25 1.241 . S
C22 O15 1.247 . S
C22 O16 1.261 . S
C23 O18 1.259 . S
C23 O20 1.235 . S
O24 Co14 2.021 . S
O24 C21 1.238 . S
O25 Co19 2.052 . S
O25 C21 1.241 . S
O26 Co14 2.137 . S
O26 C17 1.247 . S
O27 Co14 2.244 . S
O27 C17 1.272 . S
O27 Co19 2.135 . S
Co28 O29 2.216 . S
Co28 O30 2.091 . S
Co28 O32 2.004 . S
Co28 O38 2.021 . S
Co28 O40 2.137 . S
Co28 O41 2.244 . S
O29 Co28 2.216 . S
O29 C36 1.247 . S
O30 Co28 2.091 . S
O30 C36 1.261 . S
C31 O40 1.247 . S
C31 O41 1.272 . S
O32 Co28 2.004 . S
O32 C37 1.259 . S
Co33 O34 2.061 . S
Co33 O39 2.052 . S
Co33 O41 2.135 . S
O34 Co33 2.061 . S
O34 C37 1.235 . S
C35 O38 1.238 . S
C35 O39 1.241 . S
C36 O29 1.247 . S
C36 O30 1.261 . S
C37 O32 1.259 . S
C37 O34 1.235 . S
O38 Co28 2.021 . S
O38 C35 1.238 . S
O39 Co33 2.052 . S
O39 C35 1.241 . S
O40 Co28 2.137 . S
O40 C31 1.247 . S
O41 Co28 2.244 . S
O41 C31 1.272 . S
O41 Co33 2.135 . S
Co42 O43 2.216 . S
Co42 O44 2.091 . S
Co42 O46 2.004 . S
Co42 O52 2.021 . S
Co42 O54 2.137 . S
Co42 O55 2.244 . S
O43 Co42 2.216 . S
O43 C50 1.247 . S
O44 Co42 2.091 . S
O44 C50 1.261 . S
C45 O54 1.247 . S
C45 O55 1.272 . S
O46 Co42 2.004 . S
O46 C51 1.259 . S
Co47 O48 2.061 . S
Co47 O53 2.052 . S
Co47 O55 2.135 . S
O48 Co47 2.061 . S
O48 C51 1.235 . S
C49 O52 1.238 . S
C49 O53 1.241 . S
C50 O43 1.247 . S
C50 O44 1.261 . S
C51 O46 1.259 . S
C51 O48 1.235 . S
O52 Co42 2.021 . S
O52 C49 1.238 . S
O53 Co47 2.052 . S
O53 C49 1.241 . S
O54 Co42 2.137 . S
O54 C45 1.247 . S
O55 Co42 2.244 . S
O55 C45 1.272 . S
O55 Co47 2.135 . S
Co56 O57 2.216 . S
Co56 O58 2.091 . S
Co56 O60 2.004 . S
Co56 O66 2.021 . S
Co56 O68 2.137 . S
Co56 O69 2.244 . S
O57 Co56 2.216 . S
O57 C64 1.247 . S
O58 Co56 2.091 . S
O58 C64 1.261 . S
C59 O68 1.247 . S
C59 O69 1.272 . S
O60 Co56 2.004 . S
O60 C65 1.259 . S
Co61 O62 2.061 . S
Co61 O67 2.052 . S
Co61 O69 2.135 . S
O62 Co61 2.061 . S
O62 C65 1.235 . S
C63 O66 1.238 . S
C63 O67 1.241 . S
C64 O57 1.247 . S
C64 O58 1.261 . S
C65 O60 1.259 . S
C65 O62 1.235 . S
O66 Co56 2.021 . S
O66 C63 1.238 . S
O67 Co61 2.052 . S
O67 C63 1.241 . S
O68 Co56 2.137 . S
O68 C59 1.247 . S
O69 Co56 2.244 . S
O69 C59 1.272 . S
O69 Co61 2.135 . S
Co70 O71 2.216 . S
Co70 O72 2.091 . S
Co70 O74 2.004 . S
Co70 O80 2.021 . S
Co70 O82 2.137 . S
Co70 O83 2.244 . S
O71 Co70 2.216 . S
O71 C78 1.247 . S
O72 Co70 2.091 . S
O72 C78 1.261 . S
C73 O82 1.247 . S
C73 O83 1.272 . S
O74 Co70 2.004 . S
O74 C79 1.259 . S
Co75 O76 2.061 . S
Co75 O81 2.052 . S
Co75 O83 2.135 . S
O76 Co75 2.061 . S
O76 C79 1.235 . S
C77 O80 1.238 . S
C77 O81 1.241 . S
C78 O71 1.247 . S
C78 O72 1.261 . S
C79 O74 1.259 . S
C79 O76 1.235 . S
O80 Co70 2.021 . S
O80 C77 1.238 . S
O81 Co75 2.052 . S
O81 C77 1.241 . S
O82 Co70 2.137 . S
O82 C73 1.247 . S
O83 Co70 2.244 . S
O83 C73 1.272 . S
O83 Co75 2.135 . S
Co84 O85 2.216 . S
Co84 O86 2.091 . S
Co84 O88 2.004 . S
Co84 O94 2.021 . S
Co84 O96 2.137 . S
Co84 O97 2.244 . S
O85 Co84 2.216 . S
O85 C92 1.247 . S
O86 Co84 2.091 . S
O86 C92 1.261 . S
C87 O96 1.247 . S
C87 O97 1.272 . S
O88 Co84 2.004 . S
O88 C93 1.259 . S
Co89 O90 2.061 . S
Co89 O95 2.052 . S
Co89 O97 2.135 . S
O90 Co89 2.061 . S
O90 C93 1.235 . S
C91 O94 1.238 . S
C91 O95 1.241 . S
C92 O85 1.247 . S
C92 O86 1.261 . S
C93 O88 1.259 . S
C93 O90 1.235 . S
O94 Co84 2.021 . S
O94 C91 1.238 . S
O95 Co89 2.052 . S
O95 C91 1.241 . S
O96 Co84 2.137 . S
O96 C87 1.247 . S
O97 Co84 2.244 . S
O97 C87 1.272 . S
O97 Co89 2.135 . S
Co98 O99 2.216 . S
Co98 O100 2.091 . S
Co98 O102 2.004 . S
Co98 O108 2.021 . S
Co98 O110 2.137 . S
Co98 O111 2.244 . S
O99 Co98 2.216 . S
O99 C106 1.247 . S
O100 Co98 2.091 . S
O100 C106 1.261 . S
C101 O110 1.247 . S
C101 O111 1.272 . S
O102 Co98 2.004 . S
O102 C107 1.259 . S
Co103 O104 2.061 . S
Co103 O109 2.052 . S
Co103 O111 2.135 . S
O104 Co103 2.061 . S
O104 C107 1.235 . S
C105 O108 1.238 . S
C105 O109 1.241 . S
C106 O99 1.247 . S
C106 O100 1.261 . S
C107 O102 1.259 . S
C107 O104 1.235 . S
O108 Co98 2.021 . S
O108 C105 1.238 . S
O109 Co103 2.052 . S
O109 C105 1.241 . S
O110 Co98 2.137 . S
O110 C101 1.247 . S
O111 Co98 2.244 . S
O111 C101 1.272 . S
O111 Co103 2.135 . S
Co112 O113 2.216 . S
Co112 O114 2.091 . S
Co112 O116 2.004 . S
Co112 O122 2.021 . S
Co112 O124 2.137 . S
Co112 O125 2.244 . S
O113 Co112 2.216 . S
O113 C120 1.247 . S
O114 Co112 2.091 . S
O114 C120 1.261 . S
C115 O124 1.247 . S
C115 O125 1.272 . S
O116 Co112 2.004 . S
O116 C121 1.259 . S
Co117 O118 2.061 . S
Co117 O123 2.052 . S
Co117 O125 2.135 . S
O118 Co117 2.061 . S
O118 C121 1.235 . S
C119 O122 1.238 . S
C119 O123 1.241 . S
C120 O113 1.247 . S
C120 O114 1.261 . S
C121 O116 1.259 . S
C121 O118 1.235 . S
O122 Co112 2.021 . S
O122 C119 1.238 . S
O123 Co117 2.052 . S
O123 C119 1.241 . S
O124 Co112 2.137 . S
O124 C115 1.247 . S
O125 Co112 2.244 . S
O125 C115 1.272 . S
O125 Co117 2.135 . S
Co126 O127 2.216 . S
Co126 O128 2.091 . S
Co126 O130 2.004 . S
Co126 O136 2.021 . S
Co126 O138 2.137 . S
Co126 O139 2.244 . S
O127 Co126 2.216 . S
O127 C134 1.247 . S
O128 Co126 2.091 . S
O128 C134 1.261 . S
C129 O138 1.247 . S
C129 O139 1.272 . S
O130 Co126 2.004 . S
O130 C135 1.259 . S
Co131 O132 2.061 . S
Co131 O137 2.052 . S
Co131 O139 2.135 . S
O132 Co131 2.061 . S
O132 C135 1.235 . S
C133 O136 1.238 . S
C133 O137 1.241 . S
C134 O127 1.247 . S
C134 O128 1.261 . S
C135 O130 1.259 . S
C135 O132 1.235 . S
O136 Co126 2.021 . S
O136 C133 1.238 . S
O137 Co131 2.052 . S
O137 C133 1.241 . S
O138 Co126 2.137 . S
O138 C129 1.247 . S
O139 Co126 2.244 . S
O139 C129 1.272 . S
O139 Co131 2.135 . S
Co140 O141 2.216 . S
Co140 O142 2.091 . S
Co140 O144 2.004 . S
Co140 O150 2.021 . S
Co140 O152 2.137 . S
Co140 O153 2.244 . S
O141 Co140 2.216 . S
O141 C148 1.247 . S
O142 Co140 2.091 . S
O142 C148 1.261 . S
C143 O152 1.247 . S
C143 O153 1.272 . S
O144 Co140 2.004 . S
O144 C149 1.259 . S
Co145 O146 2.061 . S
Co145 O151 2.052 . S
Co145 O153 2.135 . S
O146 Co145 2.061 . S
O146 C149 1.235 . S
C147 O150 1.238 . S
C147 O151 1.241 . S
C148 O141 1.247 . S
C148 O142 1.261 . S
C149 O144 1.259 . S
C149 O146 1.235 . S
O150 Co140 2.021 . S
O150 C147 1.238 . S
O151 Co145 2.052 . S
O151 C147 1.241 . S
O152 Co140 2.137 . S
O152 C143 1.247 . S
O153 Co140 2.244 . S
O153 C143 1.272 . S
O153 Co145 2.135 . S
Co154 O155 2.216 . S
Co154 O156 2.091 . S
Co154 O158 2.004 . S
Co154 O164 2.021 . S
Co154 O166 2.137 . S
Co154 O167 2.244 . S
O155 Co154 2.216 . S
O155 C162 1.247 . S
O156 Co154 2.091 . S
O156 C162 1.261 . S
C157 O166 1.247 . S
C157 O167 1.272 . S
O158 Co154 2.004 . S
O158 C163 1.259 . S
Co159 O160 2.061 . S
Co159 O165 2.052 . S
Co159 O167 2.135 . S
O160 Co159 2.061 . S
O160 C163 1.235 . S
C161 O164 1.238 . S
C161 O165 1.241 . S
C162 O155 1.247 . S
C162 O156 1.261 . S
C163 O158 1.259 . S
C163 O160 1.235 . S
O164 Co154 2.021 . S
O164 C161 1.238 . S
O165 Co159 2.052 . S
O165 C161 1.241 . S
O166 Co154 2.137 . S
O166 C157 1.247 . S
O167 Co154 2.244 . S
O167 C157 1.272 . S
O167 Co159 2.135 . S
Co168 O169 2.216 . S
Co168 O170 2.091 . S
Co168 O172 2.004 . S
Co168 O178 2.021 . S
Co168 O180 2.137 . S
Co168 O181 2.244 . S
O169 Co168 2.216 . S
O169 C176 1.247 . S
O170 Co168 2.091 . S
O170 C176 1.261 . S
C171 O180 1.247 . S
C171 O181 1.272 . S
O172 Co168 2.004 . S
O172 C177 1.259 . S
Co173 O174 2.061 . S
Co173 O179 2.052 . S
Co173 O181 2.135 . S
O174 Co173 2.061 . S
O174 C177 1.235 . S
C175 O178 1.238 . S
C175 O179 1.241 . S
C176 O169 1.247 . S
C176 O170 1.261 . S
C177 O172 1.259 . S
C177 O174 1.235 . S
O178 Co168 2.021 . S
O178 C175 1.238 . S
O179 Co173 2.052 . S
O179 C175 1.241 . S
O180 Co168 2.137 . S
O180 C171 1.247 . S
O181 Co168 2.244 . S
O181 C171 1.272 . S
O181 Co173 2.135 . S
Co182 O183 2.216 . S
Co182 O184 2.091 . S
Co182 O186 2.004 . S
Co182 O192 2.021 . S
Co182 O194 2.137 . S
Co182 O195 2.244 . S
O183 Co182 2.216 . S
O183 C190 1.247 . S
O184 Co182 2.091 . S
O184 C190 1.261 . S
C185 O194 1.247 . S
C185 O195 1.272 . S
O186 Co182 2.004 . S
O186 C191 1.259 . S
Co187 O188 2.061 . S
Co187 O193 2.052 . S
Co187 O195 2.135 . S
O188 Co187 2.061 . S
O188 C191 1.235 . S
C189 O192 1.238 . S
C189 O193 1.241 . S
C190 O183 1.247 . S
C190 O184 1.261 . S
C191 O186 1.259 . S
C191 O188 1.235 . S
O192 Co182 2.021 . S
O192 C189 1.238 . S
O193 Co187 2.052 . S
O193 C189 1.241 . S
O194 Co182 2.137 . S
O194 C185 1.247 . S
O195 Co182 2.244 . S
O195 C185 1.272 . S
O195 Co187 2.135 . S
Co196 O197 2.216 . S
Co196 O198 2.091 . S
Co196 O200 2.004 . S
Co196 O206 2.021 . S
Co196 O208 2.137 . S
Co196 O209 2.244 . S
O197 Co196 2.216 . S
O197 C204 1.247 . S
O198 Co196 2.091 . S
O198 C204 1.261 . S
C199 O208 1.247 . S
C199 O209 1.272 . S
O200 Co196 2.004 . S
O200 C205 1.259 . S
Co201 O202 2.061 . S
Co201 O207 2.052 . S
Co201 O209 2.135 . S
O202 Co201 2.061 . S
O202 C205 1.235 . S
C203 O206 1.238 . S
C203 O207 1.241 . S
C204 O197 1.247 . S
C204 O198 1.261 . S
C205 O200 1.259 . S
C205 O202 1.235 . S
O206 Co196 2.021 . S
O206 C203 1.238 . S
O207 Co201 2.052 . S
O207 C203 1.241 . S
O208 Co196 2.137 . S
O208 C199 1.247 . S
O209 Co196 2.244 . S
O209 C199 1.272 . S
O209 Co201 2.135 . S
Co210 O211 2.216 . S
Co210 O212 2.091 . S
Co210 O214 2.004 . S
Co210 O220 2.021 . S
Co210 O222 2.137 . S
Co210 O223 2.244 . S
O211 Co210 2.216 . S
O211 C218 1.247 . S
O212 Co210 2.091 . S
O212 C218 1.261 . S
C213 O222 1.247 . S
C213 O223 1.272 . S
O214 Co210 2.004 . S
O214 C219 1.259 . S
Co215 O216 2.061 . S
Co215 O221 2.052 . S
Co215 O223 2.135 . S
O216 Co215 2.061 . S
O216 C219 1.235 . S
C217 O220 1.238 . S
C217 O221 1.241 . S
C218 O211 1.247 . S
C218 O212 1.261 . S
C219 O214 1.259 . S
C219 O216 1.235 . S
O220 Co210 2.021 . S
O220 C217 1.238 . S
O221 Co215 2.052 . S
O221 C217 1.241 . S
O222 Co210 2.137 . S
O222 C213 1.247 . S
O223 Co210 2.244 . S
O223 C213 1.272 . S
O223 Co215 2.135 . S
C224 C225 1.391 . S
C224 C226 1.394 . S
C224 H240 0.931 . S
C225 C224 1.391 . S
C225 C229 1.376 . S
C226 C224 1.394 . S
C226 C227 1.369 . S
C226 C230 1.531 . S
C227 C226 1.369 . S
C227 C228 1.410 . S
C227 C235 1.503 1_455 S
C228 C227 1.410 . S
C228 C229 1.392 . S
C228 C231 1.511 . S
C229 C225 1.376 . S
C229 C228 1.392 . S
C229 H241 0.929 . S
C230 C226 1.531 . S
C230 H242 0.960 . S
C230 H243 0.962 . S
C230 H244 0.960 . S
C231 C228 1.511 . S
C231 H245 0.961 . S
C231 H246 0.961 1_455 S
C231 H247 0.961 1_455 S
C232 C233 1.370 . S
C232 C234 1.363 . S
C232 H248 0.931 . S
C233 C232 1.370 . S
C233 C237 1.408 . S
C234 C232 1.363 . S
C234 C235 1.370 . S
C234 C238 1.524 . S
C235 C227 1.503 1_655 S
C235 C234 1.370 . S
C235 C236 1.403 . S
C236 C235 1.403 . S
C236 C237 1.404 . S
C236 C239 1.539 . S
C237 C233 1.408 . S
C237 C236 1.404 . S
C237 H249 0.930 . S
C238 C234 1.524 . S
C238 H250 0.956 1_655 S
C238 H251 0.961 1_655 S
C238 H252 0.961 . S
C239 C236 1.539 . S
C239 H253 0.958 . S
C239 H254 0.961 . S
C239 H255 0.960 . S
H240 C224 0.931 . S
H241 C229 0.929 . S
H242 C230 0.960 . S
H243 C230 0.962 . S
H244 C230 0.960 . S
H245 C231 0.961 . S
H246 C231 0.961 1_655 S
H247 C231 0.961 1_655 S
H248 C232 0.931 . S
H249 C237 0.930 . S
H250 C238 0.956 1_455 S
H251 C238 0.961 1_455 S
H252 C238 0.961 . S
H253 C239 0.958 . S
H254 C239 0.961 . S
H255 C239 0.960 . S
C256 C257 1.391 . S
C256 C258 1.394 . S
C256 H272 0.931 . S
C257 C256 1.391 . S
C257 C261 1.376 . S
C258 C256 1.394 . S
C258 C259 1.369 . S
C258 C262 1.531 . S
C259 C258 1.369 . S
C259 C260 1.410 . S
C259 C267 1.503 1_565 S
C260 C259 1.410 . S
C260 C261 1.392 . S
C260 C263 1.511 . S
C261 C257 1.376 . S
C261 C260 1.392 . S
C261 H273 0.929 . S
C262 C258 1.531 . S
C262 H274 0.960 . S
C262 H275 0.962 . S
C262 H276 0.960 . S
C263 C260 1.511 . S
C263 H277 0.961 . S
C263 H278 0.961 1_565 S
C263 H279 0.961 1_565 S
C264 C265 1.370 . S
C264 C266 1.363 . S
C264 H280 0.931 . S
C265 C264 1.370 . S
C265 C269 1.408 . S
C266 C264 1.363 . S
C266 C267 1.370 . S
C266 C270 1.524 . S
C267 C259 1.503 1_545 S
C267 C266 1.370 . S
C267 C268 1.403 . S
C268 C267 1.403 . S
C268 C269 1.404 . S
C268 C271 1.539 . S
C269 C265 1.408 . S
C269 C268 1.404 . S
C269 H281 0.930 . S
C270 C266 1.524 . S
C270 H282 0.956 1_545 S
C270 H283 0.961 1_545 S
C270 H284 0.961 . S
C271 C268 1.539 . S
C271 H285 0.958 . S
C271 H286 0.961 . S
C271 H287 0.960 . S
H272 C256 0.931 . S
H273 C261 0.929 . S
H274 C262 0.960 . S
H275 C262 0.962 . S
H276 C262 0.960 . S
H277 C263 0.961 . S
H278 C263 0.961 1_545 S
H279 C263 0.961 1_545 S
H280 C264 0.931 . S
H281 C269 0.930 . S
H282 C270 0.956 1_565 S
H283 C270 0.961 1_565 S
H284 C270 0.961 . S
H285 C271 0.958 . S
H286 C271 0.961 . S
H287 C271 0.960 . S
C288 C289 1.391 . S
C288 C290 1.394 . S
C288 H304 0.931 . S
C289 C288 1.391 . S
C289 C293 1.376 . S
C290 C288 1.394 . S
C290 C291 1.369 . S
C290 C294 1.531 . S
C291 C290 1.369 . S
C291 C292 1.410 . S
C291 C299 1.503 1_455 S
C292 C291 1.410 . S
C292 C293 1.392 . S
C292 C295 1.511 . S
C293 C289 1.376 . S
C293 C292 1.392 . S
C293 H305 0.929 . S
C294 C290 1.531 . S
C294 H306 0.960 1_455 S
C294 H307 0.962 1_455 S
C294 H308 0.960 . S
C295 C292 1.511 . S
C295 H309 0.961 . S
C295 H310 0.961 . S
C295 H311 0.961 . S
C296 C297 1.370 . S
C296 C298 1.363 . S
C296 H312 0.931 . S
C297 C296 1.370 . S
C297 C301 1.408 . S
C298 C296 1.363 . S
C298 C299 1.370 . S
C298 C302 1.524 . S
C299 C291 1.503 1_655 S
C299 C298 1.370 . S
C299 C300 1.403 . S
C300 C299 1.403 . S
C300 C301 1.404 . S
C300 C303 1.539 . S
C301 C297 1.408 . S
C301 C300 1.404 . S
C301 H313 0.930 . S
C302 C298 1.524 . S
C302 H314 0.956 . S
C302 H315 0.961 . S
C302 H316 0.961 . S
C303 C300 1.539 . S
C303 H317 0.958 . S
C303 H318 0.961 . S
C303 H319 0.960 1_655 S
H304 C288 0.931 . S
H305 C293 0.929 . S
H306 C294 0.960 1_655 S
H307 C294 0.962 1_655 S
H308 C294 0.960 . S
H309 C295 0.961 . S
H310 C295 0.961 . S
H311 C295 0.961 . S
H312 C296 0.931 . S
H313 C301 0.930 . S
H314 C302 0.956 . S
H315 C302 0.961 . S
H316 C302 0.961 . S
H317 C303 0.958 . S
H318 C303 0.961 . S
H319 C303 0.960 1_455 S
C320 C321 1.391 . S
C320 C322 1.394 . S
C320 H336 0.931 . S
C321 C320 1.391 . S
C321 C325 1.376 . S
C322 C320 1.394 . S
C322 C323 1.369 . S
C322 C326 1.531 . S
C323 C322 1.369 . S
C323 C324 1.410 . S
C323 C331 1.503 1_565 S
C324 C323 1.410 . S
C324 C325 1.392 . S
C324 C327 1.511 . S
C325 C321 1.376 . S
C325 C324 1.392 . S
C325 H337 0.929 . S
C326 C322 1.531 . S
C326 H338 0.960 . S
C326 H339 0.962 . S
C326 H340 0.960 . S
C327 C324 1.511 . S
C327 H341 0.961 . S
C327 H342 0.961 1_565 S
C327 H343 0.961 1_565 S
C328 C329 1.370 . S
C328 C330 1.363 . S
C328 H344 0.931 . S
C329 C328 1.370 . S
C329 C333 1.408 . S
C330 C328 1.363 . S
C330 C331 1.370 . S
C330 C334 1.524 . S
C331 C323 1.503 1_545 S
C331 C330 1.370 . S
C331 C332 1.403 . S
C332 C331 1.403 . S
C332 C333 1.404 . S
C332 C335 1.539 . S
C333 C329 1.408 . S
C333 C332 1.404 . S
C333 H345 0.930 . S
C334 C330 1.524 . S
C334 H346 0.956 1_545 S
C334 H347 0.961 1_545 S
C334 H348 0.961 . S
C335 C332 1.539 . S
C335 H349 0.958 . S
C335 H350 0.961 . S
C335 H351 0.960 . S
H336 C320 0.931 . S
H337 C325 0.929 . S
H338 C326 0.960 . S
H339 C326 0.962 . S
H340 C326 0.960 . S
H341 C327 0.961 . S
H342 C327 0.961 1_545 S
H343 C327 0.961 1_545 S
H344 C328 0.931 . S
H345 C333 0.930 . S
H346 C334 0.956 1_565 S
H347 C334 0.961 1_565 S
H348 C334 0.961 . S
H349 C335 0.958 . S
H350 C335 0.961 . S
H351 C335 0.960 . S
C352 C353 1.391 . S
C352 C354 1.394 . S
C352 H368 0.931 . S
C353 C352 1.391 . S
C353 C357 1.376 . S
C354 C352 1.394 . S
C354 C355 1.369 . S
C354 C358 1.531 . S
C355 C354 1.369 . S
C355 C356 1.410 . S
C355 C363 1.503 1_655 S
C356 C355 1.410 . S
C356 C357 1.392 . S
C356 C359 1.511 . S
C357 C353 1.376 . S
C357 C356 1.392 . S
C357 H369 0.929 . S
C358 C354 1.531 . S
C358 H370 0.960 . S
C358 H371 0.962 . S
C358 H372 0.960 . S
C359 C356 1.511 . S
C359 H373 0.961 . S
C359 H374 0.961 1_655 S
C359 H375 0.961 . S
C360 C361 1.370 . S
C360 C362 1.363 . S
C360 H376 0.931 . S
C361 C360 1.370 . S
C361 C365 1.408 . S
C362 C360 1.363 . S
C362 C363 1.370 . S
C362 C366 1.524 . S
C363 C355 1.503 1_455 S
C363 C362 1.370 . S
C363 C364 1.403 . S
C364 C363 1.403 . S
C364 C365 1.404 . S
C364 C367 1.539 . S
C365 C361 1.408 . S
C365 C364 1.404 . S
C365 H377 0.930 . S
C366 C362 1.524 . S
C366 H378 0.956 . S
C366 H379 0.961 . S
C366 H380 0.961 . S
C367 C364 1.539 . S
C367 H381 0.958 1_455 S
C367 H382 0.961 . S
C367 H383 0.960 1_455 S
H368 C352 0.931 . S
H369 C357 0.929 . S
H370 C358 0.960 . S
H371 C358 0.962 . S
H372 C358 0.960 . S
H373 C359 0.961 . S
H374 C359 0.961 1_455 S
H375 C359 0.961 . S
H376 C360 0.931 . S
H377 C365 0.930 . S
H378 C366 0.956 . S
H379 C366 0.961 . S
H380 C366 0.961 . S
H381 C367 0.958 1_655 S
H382 C367 0.961 . S
H383 C367 0.960 1_655 S
C384 C385 1.391 . S
C384 C386 1.394 . S
C384 H400 0.931 . S
C385 C384 1.391 . S
C385 C389 1.376 . S
C386 C384 1.394 . S
C386 C387 1.369 . S
C386 C390 1.531 . S
C387 C386 1.369 . S
C387 C388 1.410 . S
C387 C395 1.503 1_545 S
C388 C387 1.410 . S
C388 C389 1.392 . S
C388 C391 1.511 . S
C389 C385 1.376 . S
C389 C388 1.392 . S
C389 H401 0.929 . S
C390 C386 1.531 . S
C390 H402 0.960 . S
C390 H403 0.962 . S
C390 H404 0.960 . S
C391 C388 1.511 . S
C391 H405 0.961 . S
C391 H406 0.961 1_545 S
C391 H407 0.961 1_545 S
C392 C393 1.370 . S
C392 C394 1.363 . S
C392 H408 0.931 . S
C393 C392 1.370 . S
C393 C397 1.408 . S
C394 C392 1.363 . S
C394 C395 1.370 . S
C394 C398 1.524 . S
C395 C387 1.503 1_565 S
C395 C394 1.370 . S
C395 C396 1.403 . S
C396 C395 1.403 . S
C396 C397 1.404 . S
C396 C399 1.539 . S
C397 C393 1.408 . S
C397 C396 1.404 . S
C397 H409 0.930 . S
C398 C394 1.524 . S
C398 H410 0.956 1_565 S
C398 H411 0.961 1_565 S
C398 H412 0.961 . S
C399 C396 1.539 . S
C399 H413 0.958 . S
C399 H414 0.961 . S
C399 H415 0.960 . S
H400 C384 0.931 . S
H401 C389 0.929 . S
H402 C390 0.960 . S
H403 C390 0.962 . S
H404 C390 0.960 . S
H405 C391 0.961 . S
H406 C391 0.961 1_565 S
H407 C391 0.961 1_565 S
H408 C392 0.931 . S
H409 C397 0.930 . S
H410 C398 0.956 1_545 S
H411 C398 0.961 1_545 S
H412 C398 0.961 . S
H413 C399 0.958 . S
H414 C399 0.961 . S
H415 C399 0.960 . S
C416 C417 1.391 . S
C416 C418 1.394 . S
C416 H432 0.931 . S
C417 C416 1.391 . S
C417 C421 1.376 . S
C418 C416 1.394 . S
C418 C419 1.369 . S
C418 C422 1.531 . S
C419 C418 1.369 . S
C419 C420 1.410 . S
C419 C427 1.503 1_655 S
C420 C419 1.410 . S
C420 C421 1.392 . S
C420 C423 1.511 . S
C421 C417 1.376 . S
C421 C420 1.392 . S
C421 H433 0.929 . S
C422 C418 1.531 . S
C422 H434 0.960 . S
C422 H435 0.962 . S
C422 H436 0.960 . S
C423 C420 1.511 . S
C423 H437 0.961 . S
C423 H438 0.961 1_655 S
C423 H439 0.961 1_655 S
C424 C425 1.370 . S
C424 C426 1.363 . S
C424 H440 0.931 . S
C425 C424 1.370 . S
C425 C429 1.408 . S
C426 C424 1.363 . S
C426 C427 1.370 . S
C426 C430 1.524 . S
C427 C419 1.503 1_455 S
C427 C426 1.370 . S
C427 C428 1.403 . S
C428 C427 1.403 . S
C428 C429 1.404 . S
C428 C431 1.539 . S
C429 C425 1.408 . S
C429 C428 1.404 . S
C429 H441 0.930 . S
C430 C426 1.524 . S
C430 H442 0.956 1_455 S
C430 H443 0.961 1_455 S
C430 H444 0.961 . S
C431 C428 1.539 . S
C431 H445 0.958 . S
C431 H446 0.961 . S
C431 H447 0.960 . S
H432 C416 0.931 . S
H433 C421 0.929 . S
H434 C422 0.960 . S
H435 C422 0.962 . S
H436 C422 0.960 . S
H437 C423 0.961 . S
H438 C423 0.961 1_455 S
H439 C423 0.961 1_455 S
H440 C424 0.931 . S
H441 C429 0.930 . S
H442 C430 0.956 1_655 S
H443 C430 0.961 1_655 S
H444 C430 0.961 . S
H445 C431 0.958 . S
H446 C431 0.961 . S
H447 C431 0.960 . S
C448 C449 1.391 . S
C448 C450 1.394 . S
C448 H464 0.931 . S
C449 C448 1.391 . S
C449 C453 1.376 . S
C450 C448 1.394 . S
C450 C451 1.369 . S
C450 C454 1.531 . S
C451 C450 1.369 . S
C451 C452 1.410 . S
C451 C459 1.503 1_545 S
C452 C451 1.410 . S
C452 C453 1.392 . S
C452 C455 1.511 . S
C453 C449 1.376 . S
C453 C452 1.392 . S
C453 H465 0.929 . S
C454 C450 1.531 . S
C454 H466 0.960 . S
C454 H467 0.962 . S
C454 H468 0.960 . S
C455 C452 1.511 . S
C455 H469 0.961 . S
C455 H470 0.961 1_545 S
C455 H471 0.961 1_545 S
C456 C457 1.370 . S
C456 C458 1.363 . S
C456 H472 0.931 . S
C457 C456 1.370 . S
C457 C461 1.408 . S
C458 C456 1.363 . S
C458 C459 1.370 . S
C458 C462 1.524 . S
C459 C451 1.503 1_565 S
C459 C458 1.370 . S
C459 C460 1.403 . S
C460 C459 1.403 . S
C460 C461 1.404 . S
C460 C463 1.539 . S
C461 C457 1.408 . S
C461 C460 1.404 . S
C461 H473 0.930 . S
C462 C458 1.524 . S
C462 H474 0.956 1_565 S
C462 H475 0.961 1_565 S
C462 H476 0.961 . S
C463 C460 1.539 . S
C463 H477 0.958 . S
C463 H478 0.961 . S
C463 H479 0.960 . S
H464 C448 0.931 . S
H465 C453 0.929 . S
H466 C454 0.960 . S
H467 C454 0.962 . S
H468 C454 0.960 . S
H469 C455 0.961 . S
H470 C455 0.961 1_565 S
H471 C455 0.961 1_565 S
H472 C456 0.931 . S
H473 C461 0.930 . S
H474 C462 0.956 1_545 S
H475 C462 0.961 1_545 S
H476 C462 0.961 . S
H477 C463 0.958 . S
H478 C463 0.961 . S
H479 C463 0.960 . S
C480 C481 1.391 . S
C480 C482 1.394 . S
C480 H496 0.931 . S
C481 C480 1.391 . S
C481 C485 1.376 . S
C482 C480 1.394 . S
C482 C483 1.369 . S
C482 C486 1.531 . S
C483 C482 1.369 . S
C483 C484 1.410 . S
C483 C491 1.503 . S
C484 C483 1.410 . S
C484 C485 1.392 . S
C484 C487 1.511 . S
C485 C481 1.376 . S
C485 C484 1.392 . S
C485 H497 0.929 . S
C486 C482 1.531 . S
C486 H498 0.960 . S
C486 H499 0.962 . S
C486 H500 0.960 . S
C487 C484 1.511 . S
C487 H501 0.961 . S
C487 H502 0.961 . S
C487 H503 0.961 . S
C488 C489 1.370 . S
C488 C490 1.363 . S
C488 H504 0.931 . S
C489 C488 1.370 . S
C489 C493 1.408 . S
C490 C488 1.363 . S
C490 C491 1.370 . S
C490 C494 1.524 . S
C491 C483 1.503 . S
C491 C490 1.370 . S
C491 C492 1.403 . S
C492 C491 1.403 . S
C492 C493 1.404 . S
C492 C495 1.539 . S
C493 C489 1.408 . S
C493 C492 1.404 . S
C493 H505 0.930 . S
C494 C490 1.524 . S
C494 H506 0.956 . S
C494 H507 0.961 . S
C494 H508 0.961 . S
C495 C492 1.539 . S
C495 H509 0.958 . S
C495 H510 0.961 . S
C495 H511 0.960 . S
H496 C480 0.931 . S
H497 C485 0.929 . S
H498 C486 0.960 . S
H499 C486 0.962 . S
H500 C486 0.960 . S
H501 C487 0.961 . S
H502 C487 0.961 . S
H503 C487 0.961 . S
H504 C488 0.931 . S
H505 C493 0.930 . S
H506 C494 0.956 . S
H507 C494 0.961 . S
H508 C494 0.961 . S
H509 C495 0.958 . S
H510 C495 0.961 . S
H511 C495 0.960 . S
C512 C513 1.391 . S
C512 C514 1.394 . S
C512 H528 0.931 . S
C513 C512 1.391 . S
C513 C517 1.376 . S
C514 C512 1.394 . S
C514 C515 1.369 . S
C514 C518 1.531 . S
C515 C514 1.369 . S
C515 C516 1.410 . S
C515 C523 1.503 . S
C516 C515 1.410 . S
C516 C517 1.392 . S
C516 C519 1.511 . S
C517 C513 1.376 . S
C517 C516 1.392 . S
C517 H529 0.929 . S
C518 C514 1.531 . S
C518 H530 0.960 . S
C518 H531 0.962 . S
C518 H532 0.960 . S
C519 C516 1.511 . S
C519 H533 0.961 . S
C519 H534 0.961 . S
C519 H535 0.961 . S
C520 C521 1.370 . S
C520 C522 1.363 . S
C520 H536 0.931 . S
C521 C520 1.370 . S
C521 C525 1.408 . S
C522 C520 1.363 . S
C522 C523 1.370 . S
C522 C526 1.524 . S
C523 C515 1.503 . S
C523 C522 1.370 . S
C523 C524 1.403 . S
C524 C523 1.403 . S
C524 C525 1.404 . S
C524 C527 1.539 . S
C525 C521 1.408 . S
C525 C524 1.404 . S
C525 H537 0.930 . S
C526 C522 1.524 . S
C526 H538 0.956 . S
C526 H539 0.961 . S
C526 H540 0.961 . S
C527 C524 1.539 . S
C527 H541 0.958 . S
C527 H542 0.961 . S
C527 H543 0.960 . S
H528 C512 0.931 . S
H529 C517 0.929 . S
H530 C518 0.960 . S
H531 C518 0.962 . S
H532 C518 0.960 . S
H533 C519 0.961 . S
H534 C519 0.961 . S
H535 C519 0.961 . S
H536 C520 0.931 . S
H537 C525 0.930 . S
H538 C526 0.956 . S
H539 C526 0.961 . S
H540 C526 0.961 . S
H541 C527 0.958 . S
H542 C527 0.961 . S
H543 C527 0.960 . S
C544 C545 1.391 . S
C544 C546 1.394 . S
C544 H560 0.931 . S
C545 C544 1.391 . S
C545 C549 1.376 . S
C546 C544 1.394 . S
C546 C547 1.369 . S
C546 C550 1.531 . S
C547 C546 1.369 . S
C547 C548 1.410 . S
C547 C555 1.503 . S
C548 C547 1.410 . S
C548 C549 1.392 . S
C548 C551 1.511 . S
C549 C545 1.376 . S
C549 C548 1.392 . S
C549 H561 0.929 . S
C550 C546 1.531 . S
C550 H562 0.960 . S
C550 H563 0.962 . S
C550 H564 0.960 . S
C551 C548 1.511 . S
C551 H565 0.961 . S
C551 H566 0.961 . S
C551 H567 0.961 . S
C552 C553 1.370 . S
C552 C554 1.363 . S
C552 H568 0.931 . S
C553 C552 1.370 . S
C553 C557 1.408 . S
C554 C552 1.363 . S
C554 C555 1.370 . S
C554 C558 1.524 . S
C555 C547 1.503 . S
C555 C554 1.370 . S
C555 C556 1.403 . S
C556 C555 1.403 . S
C556 C557 1.404 . S
C556 C559 1.539 . S
C557 C553 1.408 . S
C557 C556 1.404 . S
C557 H569 0.930 . S
C558 C554 1.524 . S
C558 H570 0.956 . S
C558 H571 0.961 . S
C558 H572 0.961 . S
C559 C556 1.539 . S
C559 H573 0.958 . S
C559 H574 0.961 . S
C559 H575 0.960 . S
H560 C544 0.931 . S
H561 C549 0.929 . S
H562 C550 0.960 . S
H563 C550 0.962 . S
H564 C550 0.960 . S
H565 C551 0.961 . S
H566 C551 0.961 . S
H567 C551 0.961 . S
H568 C552 0.931 . S
H569 C557 0.930 . S
H570 C558 0.956 . S
H571 C558 0.961 . S
H572 C558 0.961 . S
H573 C559 0.958 . S
H574 C559 0.961 . S
H575 C559 0.960 . S
C576 C577 1.391 . S
C576 C578 1.394 . S
C576 H592 0.931 . S
C577 C576 1.391 . S
C577 C581 1.376 . S
C578 C576 1.394 . S
C578 C579 1.369 . S
C578 C582 1.531 . S
C579 C578 1.369 . S
C579 C580 1.410 . S
C579 C587 1.503 . S
C580 C579 1.410 . S
C580 C581 1.392 . S
C580 C583 1.511 . S
C581 C577 1.376 . S
C581 C580 1.392 . S
C581 H593 0.929 . S
C582 C578 1.531 . S
C582 H594 0.960 . S
C582 H595 0.962 . S
C582 H596 0.960 . S
C583 C580 1.511 . S
C583 H597 0.961 . S
C583 H598 0.961 . S
C583 H599 0.961 . S
C584 C585 1.370 . S
C584 C586 1.363 . S
C584 H600 0.931 . S
C585 C584 1.370 . S
C585 C589 1.408 . S
C586 C584 1.363 . S
C586 C587 1.370 . S
C586 C590 1.524 . S
C587 C579 1.503 . S
C587 C586 1.370 . S
C587 C588 1.403 . S
C588 C587 1.403 . S
C588 C589 1.404 . S
C588 C591 1.539 . S
C589 C585 1.408 . S
C589 C588 1.404 . S
C589 H601 0.930 . S
C590 C586 1.524 . S
C590 H602 0.956 . S
C590 H603 0.961 . S
C590 H604 0.961 . S
C591 C588 1.539 . S
C591 H605 0.958 . S
C591 H606 0.961 . S
C591 H607 0.960 . S
H592 C576 0.931 . S
H593 C581 0.929 . S
H594 C582 0.960 . S
H595 C582 0.962 . S
H596 C582 0.960 . S
H597 C583 0.961 . S
H598 C583 0.961 . S
H599 C583 0.961 . S
H600 C584 0.931 . S
H601 C589 0.930 . S
H602 C590 0.956 . S
H603 C590 0.961 . S
H604 C590 0.961 . S
H605 C591 0.958 . S
H606 C591 0.961 . S
H607 C591 0.960 . S
C608 C609 1.391 . S
C608 C610 1.394 . S
C608 H624 0.931 . S
C609 C608 1.391 . S
C609 C613 1.376 . S
C610 C608 1.394 . S
C610 C611 1.369 . S
C610 C614 1.531 . S
C611 C610 1.369 . S
C611 C612 1.410 . S
C611 C619 1.503 . S
C612 C611 1.410 . S
C612 C613 1.392 . S
C612 C615 1.511 . S
C613 C609 1.376 . S
C613 C612 1.392 . S
C613 H625 0.929 . S
C614 C610 1.531 . S
C614 H626 0.960 . S
C614 H627 0.962 . S
C614 H628 0.960 . S
C615 C612 1.511 . S
C615 H629 0.961 . S
C615 H630 0.961 . S
C615 H631 0.961 . S
C616 C617 1.370 . S
C616 C618 1.363 . S
C616 H632 0.931 . S
C617 C616 1.370 . S
C617 C621 1.408 . S
C618 C616 1.363 . S
C618 C619 1.370 . S
C618 C622 1.524 . S
C619 C611 1.503 . S
C619 C618 1.370 . S
C619 C620 1.403 . S
C620 C619 1.403 . S
C620 C621 1.404 . S
C620 C623 1.539 . S
C621 C617 1.408 . S
C621 C620 1.404 . S
C621 H633 0.930 . S
C622 C618 1.524 . S
C622 H634 0.956 . S
C622 H635 0.961 . S
C622 H636 0.961 . S
C623 C620 1.539 . S
C623 H637 0.958 . S
C623 H638 0.961 . S
C623 H639 0.960 . S
H624 C608 0.931 . S
H625 C613 0.929 . S
H626 C614 0.960 . S
H627 C614 0.962 . S
H628 C614 0.960 . S
H629 C615 0.961 . S
H630 C615 0.961 . S
H631 C615 0.961 . S
H632 C616 0.931 . S
H633 C621 0.930 . S
H634 C622 0.956 . S
H635 C622 0.961 . S
H636 C622 0.961 . S
H637 C623 0.958 . S
H638 C623 0.961 . S
H639 C623 0.960 . S
C640 C641 1.391 . S
C640 C642 1.394 . S
C640 H656 0.931 . S
C641 C640 1.391 . S
C641 C645 1.376 . S
C642 C640 1.394 . S
C642 C643 1.369 . S
C642 C646 1.531 . S
C643 C642 1.369 . S
C643 C644 1.410 . S
C643 C651 1.503 . S
C644 C643 1.410 . S
C644 C645 1.392 . S
C644 C647 1.511 . S
C645 C641 1.376 . S
C645 C644 1.392 . S
C645 H657 0.929 . S
C646 C642 1.531 . S
C646 H658 0.960 . S
C646 H659 0.962 . S
C646 H660 0.960 . S
C647 C644 1.511 . S
C647 H661 0.961 . S
C647 H662 0.961 . S
C647 H663 0.961 . S
C648 C649 1.370 . S
C648 C650 1.363 . S
C648 H664 0.931 . S
C649 C648 1.370 . S
C649 C653 1.408 . S
C650 C648 1.363 . S
C650 C651 1.370 . S
C650 C654 1.524 . S
C651 C643 1.503 . S
C651 C650 1.370 . S
C651 C652 1.403 . S
C652 C651 1.403 . S
C652 C653 1.404 . S
C652 C655 1.539 . S
C653 C649 1.408 . S
C653 C652 1.404 . S
C653 H665 0.930 . S
C654 C650 1.524 . S
C654 H666 0.956 . S
C654 H667 0.961 . S
C654 H668 0.961 . S
C655 C652 1.539 . S
C655 H669 0.958 . S
C655 H670 0.961 . S
C655 H671 0.960 . S
H656 C640 0.931 . S
H657 C645 0.929 . S
H658 C646 0.960 . S
H659 C646 0.962 . S
H660 C646 0.960 . S
H661 C647 0.961 . S
H662 C647 0.961 . S
H663 C647 0.961 . S
H664 C648 0.931 . S
H665 C653 0.930 . S
H666 C654 0.956 . S
H667 C654 0.961 . S
H668 C654 0.961 . S
H669 C655 0.958 . S
H670 C655 0.961 . S
H671 C655 0.960 . S
C672 C673 1.391 . S
C672 C674 1.394 . S
C672 H688 0.931 . S
C673 C672 1.391 . S
C673 C677 1.376 . S
C674 C672 1.394 . S
C674 C675 1.369 . S
C674 C678 1.531 . S
C675 C674 1.369 . S
C675 C676 1.410 . S
C675 C683 1.503 . S
C676 C675 1.410 . S
C676 C677 1.392 . S
C676 C679 1.511 . S
C677 C673 1.376 . S
C677 C676 1.392 . S
C677 H689 0.929 . S
C678 C674 1.531 . S
C678 H690 0.960 . S
C678 H691 0.962 . S
C678 H692 0.960 . S
C679 C676 1.511 . S
C679 H693 0.961 . S
C679 H694 0.961 . S
C679 H695 0.961 . S
C680 C681 1.370 . S
C680 C682 1.363 . S
C680 H696 0.931 . S
C681 C680 1.370 . S
C681 C685 1.408 . S
C682 C680 1.363 . S
C682 C683 1.370 . S
C682 C686 1.524 . S
C683 C675 1.503 . S
C683 C682 1.370 . S
C683 C684 1.403 . S
C684 C683 1.403 . S
C684 C685 1.404 . S
C684 C687 1.539 . S
C685 C681 1.408 . S
C685 C684 1.404 . S
C685 H697 0.930 . S
C686 C682 1.524 . S
C686 H698 0.956 . S
C686 H699 0.961 . S
C686 H700 0.961 . S
C687 C684 1.539 . S
C687 H701 0.958 . S
C687 H702 0.961 . S
C687 H703 0.960 . S
H688 C672 0.931 . S
H689 C677 0.929 . S
H690 C678 0.960 . S
H691 C678 0.962 . S
H692 C678 0.960 . S
H693 C679 0.961 . S
H694 C679 0.961 . S
H695 C679 0.961 . S
H696 C680 0.931 . S
H697 C685 0.930 . S
H698 C686 0.956 . S
H699 C686 0.961 . S
H700 C686 0.961 . S
H701 C687 0.958 . S
H702 C687 0.961 . S
H703 C687 0.960 . S
C704 C705 1.391 . S
C704 C706 1.394 . S
C704 H720 0.931 . S
C705 C704 1.391 . S
C705 C709 1.376 . S
C706 C704 1.394 . S
C706 C707 1.369 . S
C706 C710 1.531 . S
C707 C706 1.369 . S
C707 C708 1.410 . S
C707 C715 1.503 . S
C708 C707 1.410 . S
C708 C709 1.392 . S
C708 C711 1.511 . S
C709 C705 1.376 . S
C709 C708 1.392 . S
C709 H721 0.929 . S
C710 C706 1.531 . S
C710 H722 0.960 . S
C710 H723 0.962 . S
C710 H724 0.960 . S
C711 C708 1.511 . S
C711 H725 0.961 . S
C711 H726 0.961 . S
C711 H727 0.961 . S
C712 C713 1.370 . S
C712 C714 1.363 . S
C712 H728 0.931 . S
C713 C712 1.370 . S
C713 C717 1.408 . S
C714 C712 1.363 . S
C714 C715 1.370 . S
C714 C718 1.524 . S
C715 C707 1.503 . S
C715 C714 1.370 . S
C715 C716 1.403 . S
C716 C715 1.403 . S
C716 C717 1.404 . S
C716 C719 1.539 . S
C717 C713 1.408 . S
C717 C716 1.404 . S
C717 H729 0.930 . S
C718 C714 1.524 . S
C718 H730 0.956 . S
C718 H731 0.961 . S
C718 H732 0.961 . S
C719 C716 1.539 . S
C719 H733 0.958 . S
C719 H734 0.961 . S
C719 H735 0.960 . S
H720 C704 0.931 . S
H721 C709 0.929 . S
H722 C710 0.960 . S
H723 C710 0.962 . S
H724 C710 0.960 . S
H725 C711 0.961 . S
H726 C711 0.961 . S
H727 C711 0.961 . S
H728 C712 0.931 . S
H729 C717 0.930 . S
H730 C718 0.956 . S
H731 C718 0.961 . S
H732 C718 0.961 . S
H733 C719 0.958 . S
H734 C719 0.961 . S
H735 C719 0.960 . S
C736 C737 1.391 . S
C736 C738 1.394 . S
C736 H752 0.931 . S
C737 C736 1.391 . S
C737 C741 1.376 . S
C738 C736 1.394 . S
C738 C739 1.369 . S
C738 C742 1.531 . S
C739 C738 1.369 . S
C739 C740 1.410 . S
C739 C747 1.503 1_556 S
C740 C739 1.410 . S
C740 C741 1.392 . S
C740 C743 1.511 . S
C741 C737 1.376 . S
C741 C740 1.392 . S
C741 H753 0.929 . S
C742 C738 1.531 . S
C742 H754 0.960 1_556 S
C742 H755 0.962 . S
C742 H756 0.960 . S
C743 C740 1.511 . S
C743 H757 0.961 . S
C743 H758 0.961 1_556 S
C743 H759 0.961 . S
C744 C745 1.370 . S
C744 C746 1.363 . S
C744 H760 0.931 . S
C745 C744 1.370 . S
C745 C749 1.408 . S
C746 C744 1.363 . S
C746 C747 1.370 . S
C746 C750 1.524 . S
C747 C739 1.503 1_554 S
C747 C746 1.370 . S
C747 C748 1.403 . S
C748 C747 1.403 . S
C748 C749 1.404 . S
C748 C751 1.539 . S
C749 C745 1.408 . S
C749 C748 1.404 . S
C749 H761 0.930 . S
C750 C746 1.524 . S
C750 H762 0.956 . S
C750 H763 0.961 1_554 S
C750 H764 0.961 . S
C751 C748 1.539 . S
C751 H765 0.958 . S
C751 H766 0.961 . S
C751 H767 0.970 . S
H752 C736 0.931 . S
H753 C741 0.929 . S
H754 C742 0.960 1_554 S
H755 C742 0.962 . S
H756 C742 0.960 . S
H757 C743 0.961 . S
H758 C743 0.961 1_554 S
H759 C743 0.961 . S
H760 C744 0.931 . S
H761 C749 0.930 . S
H762 C750 0.956 . S
H763 C750 0.961 1_556 S
H764 C750 0.961 . S
H765 C751 0.958 . S
H766 C751 0.961 . S
H767 C751 0.970 . S
C768 C769 1.391 . S
C768 C770 1.394 . S
C768 H784 0.931 . S
C769 C768 1.391 . S
C769 C773 1.376 . S
C770 C768 1.394 . S
C770 C771 1.369 . S
C770 C774 1.531 . S
C771 C770 1.369 . S
C771 C772 1.410 . S
C771 C779 1.503 . S
C772 C771 1.410 . S
C772 C773 1.392 . S
C772 C775 1.511 . S
C773 C769 1.376 . S
C773 C772 1.392 . S
C773 H785 0.929 . S
C774 C770 1.531 . S
C774 H786 0.960 . S
C774 H787 0.962 . S
C774 H788 0.960 . S
C775 C772 1.511 . S
C775 H789 0.961 . S
C775 H790 0.961 . S
C775 H791 0.961 . S
C776 C777 1.370 . S
C776 C778 1.363 . S
C776 H792 0.931 . S
C777 C776 1.370 . S
C777 C781 1.408 . S
C778 C776 1.363 . S
C778 C779 1.370 . S
C778 C782 1.524 . S
C779 C771 1.503 . S
C779 C778 1.370 . S
C779 C780 1.403 . S
C780 C779 1.403 . S
C780 C781 1.404 . S
C780 C783 1.539 . S
C781 C777 1.408 . S
C781 C780 1.404 . S
C781 H793 0.930 . S
C782 C778 1.524 . S
C782 H794 0.956 . S
C782 H795 0.961 . S
C782 H796 0.961 . S
C783 C780 1.539 . S
C783 H797 0.958 . S
C783 H798 0.961 . S
C783 H799 0.960 . S
H784 C768 0.931 . S
H785 C773 0.929 . S
H786 C774 0.960 . S
H787 C774 0.962 . S
H788 C774 0.960 . S
H789 C775 0.961 . S
H790 C775 0.961 . S
H791 C775 0.961 . S
H792 C776 0.931 . S
H793 C781 0.930 . S
H794 C782 0.956 . S
H795 C782 0.961 . S
H796 C782 0.961 . S
H797 C783 0.958 . S
H798 C783 0.961 . S
H799 C783 0.960 . S
C800 C801 1.391 . S
C800 C802 1.394 . S
C800 H816 0.931 . S
C801 C800 1.391 . S
C801 C805 1.376 . S
C802 C800 1.394 . S
C802 C803 1.369 . S
C802 C806 1.531 . S
C803 C802 1.369 . S
C803 C804 1.410 . S
C803 C811 1.503 1_554 S
C804 C803 1.410 . S
C804 C805 1.392 . S
C804 C807 1.511 . S
C805 C801 1.376 . S
C805 C804 1.392 . S
C805 H817 0.929 . S
C806 C802 1.531 . S
C806 H818 0.960 1_554 S
C806 H819 0.962 . S
C806 H820 0.960 . S
C807 C804 1.511 . S
C807 H821 0.961 . S
C807 H822 0.961 1_554 S
C807 H823 0.961 . S
C808 C809 1.370 . S
C808 C810 1.363 . S
C808 H824 0.931 . S
C809 C808 1.370 . S
C809 C813 1.408 . S
C810 C808 1.363 . S
C810 C811 1.370 . S
C810 C814 1.524 . S
C811 C803 1.503 1_556 S
C811 C810 1.370 . S
C811 C812 1.403 . S
C812 C811 1.403 . S
C812 C813 1.404 . S
C812 C815 1.539 . S
C813 C809 1.408 . S
C813 C812 1.404 . S
C813 H825 0.930 . S
C814 C810 1.524 . S
C814 H826 0.956 . S
C814 H827 0.961 1_556 S
C814 H828 0.961 . S
C815 C812 1.539 . S
C815 H829 0.958 . S
C815 H830 0.961 . S
C815 H831 0.970 . S
H816 C800 0.931 . S
H817 C805 0.929 . S
H818 C806 0.960 1_556 S
H819 C806 0.962 . S
H820 C806 0.960 . S
H821 C807 0.961 . S
H822 C807 0.961 1_556 S
H823 C807 0.961 . S
H824 C808 0.931 . S
H825 C813 0.930 . S
H826 C814 0.956 . S
H827 C814 0.961 1_554 S
H828 C814 0.961 . S
H829 C815 0.958 . S
H830 C815 0.961 . S
H831 C815 0.970 . S
C832 C833 1.391 . S
C832 C834 1.394 . S
C832 H848 0.931 . S
C833 C832 1.391 . S
C833 C837 1.376 . S
C834 C832 1.394 . S
C834 C835 1.369 . S
C834 C838 1.531 . S
C835 C834 1.369 . S
C835 C836 1.410 . S
C835 C843 1.503 . S
C836 C835 1.410 . S
C836 C837 1.392 . S
C836 C839 1.511 . S
C837 C833 1.376 . S
C837 C836 1.392 . S
C837 H849 0.929 . S
C838 C834 1.531 . S
C838 H850 0.960 . S
C838 H851 0.962 . S
C838 H852 0.960 . S
C839 C836 1.511 . S
C839 H853 0.961 . S
C839 H854 0.961 . S
C839 H855 0.961 . S
C840 C841 1.370 . S
C840 C842 1.363 . S
C840 H856 0.931 . S
C841 C840 1.370 . S
C841 C845 1.408 . S
C842 C840 1.363 . S
C842 C843 1.370 . S
C842 C846 1.524 . S
C843 C835 1.503 . S
C843 C842 1.370 . S
C843 C844 1.403 . S
C844 C843 1.403 . S
C844 C845 1.404 . S
C844 C847 1.539 . S
C845 C841 1.408 . S
C845 C844 1.404 . S
C845 H857 0.930 . S
C846 C842 1.524 . S
C846 H858 0.956 . S
C846 H859 0.961 . S
C846 H860 0.961 . S
C847 C844 1.539 . S
C847 H861 0.958 . S
C847 H862 0.961 . S
C847 H863 0.960 . S
H848 C832 0.931 . S
H849 C837 0.929 . S
H850 C838 0.960 . S
H851 C838 0.962 . S
H852 C838 0.960 . S
H853 C839 0.961 . S
H854 C839 0.961 . S
H855 C839 0.961 . S
H856 C840 0.931 . S
H857 C845 0.930 . S
H858 C846 0.956 . S
H859 C846 0.961 . S
H860 C846 0.961 . S
H861 C847 0.958 . S
H862 C847 0.961 . S
H863 C847 0.960 . S
C864 C865 1.391 . S
C864 C866 1.394 . S
C864 H880 0.931 . S
C865 C864 1.391 . S
C865 C869 1.376 . S
C866 C864 1.394 . S
C866 C867 1.369 . S
C866 C870 1.531 . S
C867 C866 1.369 . S
C867 C868 1.410 . S
C867 C875 1.503 . S
C868 C867 1.410 . S
C868 C869 1.392 . S
C868 C871 1.511 . S
C869 C865 1.376 . S
C869 C868 1.392 . S
C869 H881 0.929 . S
C870 C866 1.531 . S
C870 H882 0.960 . S
C870 H883 0.962 . S
C870 H884 0.960 . S
C871 C868 1.511 . S
C871 H885 0.961 . S
C871 H886 0.961 . S
C871 H887 0.961 . S
C872 C873 1.370 . S
C872 C874 1.363 . S
C872 H888 0.931 . S
C873 C872 1.370 . S
C873 C877 1.408 . S
C874 C872 1.363 . S
C874 C875 1.370 . S
C874 C878 1.524 . S
C875 C867 1.503 . S
C875 C874 1.370 . S
C875 C876 1.403 . S
C876 C875 1.403 . S
C876 C877 1.404 . S
C876 C879 1.539 . S
C877 C873 1.408 . S
C877 C876 1.404 . S
C877 H889 0.930 . S
C878 C874 1.524 . S
C878 H890 0.956 . S
C878 H891 0.961 . S
C878 H892 0.961 . S
C879 C876 1.539 . S
C879 H893 0.958 . S
C879 H894 0.961 . S
C879 H895 0.960 . S
H880 C864 0.931 . S
H881 C869 0.929 . S
H882 C870 0.960 . S
H883 C870 0.962 . S
H884 C870 0.960 . S
H885 C871 0.961 . S
H886 C871 0.961 . S
H887 C871 0.961 . S
H888 C872 0.931 . S
H889 C877 0.930 . S
H890 C878 0.956 . S
H891 C878 0.961 . S
H892 C878 0.961 . S
H893 C879 0.958 . S
H894 C879 0.961 . S
H895 C879 0.960 . S
C896 C897 1.391 . S
C896 C898 1.394 . S
C896 H912 0.931 . S
C897 C896 1.391 . S
C897 C901 1.376 . S
C898 C896 1.394 . S
C898 C899 1.369 . S
C898 C902 1.531 . S
C899 C898 1.369 . S
C899 C900 1.410 . S
C899 C907 1.503 1_556 S
C900 C899 1.410 . S
C900 C901 1.392 . S
C900 C903 1.511 . S
C901 C897 1.376 . S
C901 C900 1.392 . S
C901 H913 0.929 . S
C902 C898 1.531 . S
C902 H914 0.960 1_556 S
C902 H915 0.962 . S
C902 H916 0.960 . S
C903 C900 1.511 . S
C903 H917 0.961 . S
C903 H918 0.961 1_556 S
C903 H919 0.961 . S
C904 C905 1.370 . S
C904 C906 1.363 . S
C904 H920 0.931 . S
C905 C904 1.370 . S
C905 C909 1.408 . S
C906 C904 1.363 . S
C906 C907 1.370 . S
C906 C910 1.524 . S
C907 C899 1.503 1_554 S
C907 C906 1.370 . S
C907 C908 1.403 . S
C908 C907 1.403 . S
C908 C909 1.404 . S
C908 C911 1.539 . S
C909 C905 1.408 . S
C909 C908 1.404 . S
C909 H921 0.930 . S
C910 C906 1.524 . S
C910 H922 0.956 . S
C910 H923 0.961 1_554 S
C910 H924 0.961 . S
C911 C908 1.539 . S
C911 H925 0.958 . S
C911 H926 0.961 . S
C911 H927 0.970 . S
H912 C896 0.931 . S
H913 C901 0.929 . S
H914 C902 0.960 1_554 S
H915 C902 0.962 . S
H916 C902 0.960 . S
H917 C903 0.961 . S
H918 C903 0.961 1_554 S
H919 C903 0.961 . S
H920 C904 0.931 . S
H921 C909 0.930 . S
H922 C910 0.956 . S
H923 C910 0.961 1_556 S
H924 C910 0.961 . S
H925 C911 0.958 . S
H926 C911 0.961 . S
H927 C911 0.970 . S
C928 C929 1.391 . S
C928 C930 1.394 . S
C928 H944 0.931 . S
C929 C928 1.391 . S
C929 C933 1.376 . S
C930 C928 1.394 . S
C930 C931 1.369 . S
C930 C934 1.531 . S
C931 C930 1.369 . S
C931 C932 1.410 . S
C931 C939 1.503 . S
C932 C931 1.410 . S
C932 C933 1.392 . S
C932 C935 1.511 . S
C933 C929 1.376 . S
C933 C932 1.392 . S
C933 H945 0.929 . S
C934 C930 1.531 . S
C934 H946 0.960 . S
C934 H947 0.962 . S
C934 H948 0.960 . S
C935 C932 1.511 . S
C935 H949 0.961 . S
C935 H950 0.961 . S
C935 H951 0.961 . S
C936 C937 1.370 . S
C936 C938 1.363 . S
C936 H952 0.931 . S
C937 C936 1.370 . S
C937 C941 1.408 . S
C938 C936 1.363 . S
C938 C939 1.370 . S
C938 C942 1.524 . S
C939 C931 1.503 . S
C939 C938 1.370 . S
C939 C940 1.403 . S
C940 C939 1.403 . S
C940 C941 1.404 . S
C940 C943 1.539 . S
C941 C937 1.408 . S
C941 C940 1.404 . S
C941 H953 0.930 . S
C942 C938 1.524 . S
C942 H954 0.956 . S
C942 H955 0.961 . S
C942 H956 0.961 . S
C943 C940 1.539 . S
C943 H957 0.958 . S
C943 H958 0.961 . S
C943 H959 0.960 . S
H944 C928 0.931 . S
H945 C933 0.929 . S
H946 C934 0.960 . S
H947 C934 0.962 . S
H948 C934 0.960 . S
H949 C935 0.961 . S
H950 C935 0.961 . S
H951 C935 0.961 . S
H952 C936 0.931 . S
H953 C941 0.930 . S
H954 C942 0.956 . S
H955 C942 0.961 . S
H956 C942 0.961 . S
H957 C943 0.958 . S
H958 C943 0.961 . S
H959 C943 0.960 . S
C960 C961 1.391 . S
C960 C962 1.394 . S
C960 H976 0.931 . S
C961 C960 1.391 . S
C961 C965 1.376 . S
C962 C960 1.394 . S
C962 C963 1.369 . S
C962 C966 1.531 . S
C963 C962 1.369 . S
C963 C964 1.410 . S
C963 C971 1.503 1_554 S
C964 C963 1.410 . S
C964 C965 1.392 . S
C964 C967 1.511 . S
C965 C961 1.376 . S
C965 C964 1.392 . S
C965 H977 0.929 . S
C966 C962 1.531 . S
C966 H978 0.960 1_554 S
C966 H979 0.962 . S
C966 H980 0.960 . S
C967 C964 1.511 . S
C967 H981 0.961 . S
C967 H982 0.961 1_554 S
C967 H983 0.961 . S
C968 C969 1.370 . S
C968 C970 1.363 . S
C968 H984 0.931 . S
C969 C968 1.370 . S
C969 C973 1.408 . S
C970 C968 1.363 . S
C970 C971 1.370 . S
C970 C974 1.524 . S
C971 C963 1.503 1_556 S
C971 C970 1.370 . S
C971 C972 1.403 . S
C972 C971 1.403 . S
C972 C973 1.404 . S
C972 C975 1.539 . S
C973 C969 1.408 . S
C973 C972 1.404 . S
C973 H985 0.930 . S
C974 C970 1.524 . S
C974 H986 0.956 . S
C974 H987 0.961 1_556 S
C974 H988 0.961 . S
C975 C972 1.539 . S
C975 H989 0.958 . S
C975 H990 0.961 . S
C975 H991 0.970 . S
H976 C960 0.931 . S
H977 C965 0.929 . S
H978 C966 0.960 1_556 S
H979 C966 0.962 . S
H980 C966 0.960 . S
H981 C967 0.961 . S
H982 C967 0.961 1_556 S
H983 C967 0.961 . S
H984 C968 0.931 . S
H985 C973 0.930 . S
H986 C974 0.956 . S
H987 C974 0.961 1_554 S
H988 C974 0.961 . S
H989 C975 0.958 . S
H990 C975 0.961 . S
H991 C975 0.970 . S
C992 C993 1.391 . S
C992 C994 1.394 . S
C992 H1008 0.931 . S
C993 C992 1.391 . S
C993 C997 1.376 . S
C994 C992 1.394 . S
C994 C995 1.369 . S
C994 C998 1.531 . S
C995 C994 1.369 . S
C995 C996 1.410 . S
C995 C1003 1.503 . S
C996 C995 1.410 . S
C996 C997 1.392 . S
C996 C999 1.511 . S
C997 C993 1.376 . S
C997 C996 1.392 . S
C997 H1009 0.929 . S
C998 C994 1.531 . S
C998 H1010 0.960 . S
C998 H1011 0.962 . S
C998 H1012 0.960 . S
C999 C996 1.511 . S
C999 H1013 0.961 . S
C999 H1014 0.961 . S
C999 H1015 0.961 . S
C1000 C1001 1.370 . S
C1000 C1002 1.363 . S
C1000 H1016 0.931 . S
C1001 C1000 1.370 . S
C1001 C1005 1.408 . S
C1002 C1000 1.363 . S
C1002 C1003 1.370 . S
C1002 C1006 1.524 . S
C1003 C995 1.503 . S
C1003 C1002 1.370 . S
C1003 C1004 1.403 . S
C1004 C1003 1.403 . S
C1004 C1005 1.404 . S
C1004 C1007 1.539 . S
C1005 C1001 1.408 . S
C1005 C1004 1.404 . S
C1005 H1017 0.930 . S
C1006 C1002 1.524 . S
C1006 H1018 0.956 . S
C1006 H1019 0.961 . S
C1006 H1020 0.961 . S
C1007 C1004 1.539 . S
C1007 H1021 0.958 . S
C1007 H1022 0.961 . S
C1007 H1023 0.960 . S
H1008 C992 0.931 . S
H1009 C997 0.929 . S
H1010 C998 0.960 . S
H1011 C998 0.962 . S
H1012 C998 0.960 . S
H1013 C999 0.961 . S
H1014 C999 0.961 . S
H1015 C999 0.961 . S
H1016 C1000 0.931 . S
H1017 C1005 0.930 . S
H1018 C1006 0.956 . S
H1019 C1006 0.961 . S
H1020 C1006 0.961 . S
H1021 C1007 0.958 . S
H1022 C1007 0.961 . S
H1023 C1007 0.960 . S
C1024 C1025 1.391 . S
C1024 C1026 1.394 . S
C1024 H1040 0.931 . S
C1025 C1024 1.391 . S
C1025 C1029 1.376 . S
C1026 C1024 1.394 . S
C1026 C1027 1.369 . S
C1026 C1030 1.531 . S
C1027 C1026 1.369 . S
C1027 C1028 1.410 . S
C1027 C1035 1.503 . S
C1028 C1027 1.410 . S
C1028 C1029 1.392 . S
C1028 C1031 1.511 . S
C1029 C1025 1.376 . S
C1029 C1028 1.392 . S
C1029 H1041 0.929 . S
C1030 C1026 1.531 . S
C1030 H1042 0.960 . S
C1030 H1043 0.962 . S
C1030 H1044 0.960 . S
C1031 C1028 1.511 . S
C1031 H1045 0.961 . S
C1031 H1046 0.961 . S
C1031 H1047 0.961 . S
C1032 C1033 1.370 . S
C1032 C1034 1.363 . S
C1032 H1048 0.931 . S
C1033 C1032 1.370 . S
C1033 C1037 1.408 . S
C1034 C1032 1.363 . S
C1034 C1035 1.370 . S
C1034 C1038 1.524 . S
C1035 C1027 1.503 . S
C1035 C1034 1.370 . S
C1035 C1036 1.403 . S
C1036 C1035 1.403 . S
C1036 C1037 1.404 . S
C1036 C1039 1.539 . S
C1037 C1033 1.408 . S
C1037 C1036 1.404 . S
C1037 H1049 0.930 . S
C1038 C1034 1.524 . S
C1038 H1050 0.956 . S
C1038 H1051 0.961 . S
C1038 H1052 0.961 . S
C1039 C1036 1.539 . S
C1039 H1053 0.958 . S
C1039 H1054 0.961 . S
C1039 H1055 0.960 . S
H1040 C1024 0.931 . S
H1041 C1029 0.929 . S
H1042 C1030 0.960 . S
H1043 C1030 0.962 . S
H1044 C1030 0.960 . S
H1045 C1031 0.961 . S
H1046 C1031 0.961 . S
H1047 C1031 0.961 . S
H1048 C1032 0.931 . S
H1049 C1037 0.930 . S
H1050 C1038 0.956 . S
H1051 C1038 0.961 . S
H1052 C1038 0.961 . S
H1053 C1039 0.958 . S
H1054 C1039 0.961 . S
H1055 C1039 0.960 . S
C1056 C1057 1.391 . S
C1056 C1058 1.394 . S
C1056 H1072 0.931 . S
C1057 C1056 1.391 . S
C1057 C1061 1.376 . S
C1058 C1056 1.394 . S
C1058 C1059 1.369 . S
C1058 C1062 1.531 . S
C1059 C1058 1.369 . S
C1059 C1060 1.410 . S
C1059 C1067 1.503 . S
C1060 C1059 1.410 . S
C1060 C1061 1.392 . S
C1060 C1063 1.511 . S
C1061 C1057 1.376 . S
C1061 C1060 1.392 . S
C1061 H1073 0.929 . S
C1062 C1058 1.531 . S
C1062 H1074 0.960 . S
C1062 H1075 0.962 . S
C1062 H1076 0.960 . S
C1063 C1060 1.511 . S
C1063 H1077 0.961 . S
C1063 H1078 0.961 . S
C1063 H1079 0.961 . S
C1064 C1065 1.370 . S
C1064 C1066 1.363 . S
C1064 H1080 0.931 . S
C1065 C1064 1.370 . S
C1065 C1069 1.408 . S
C1066 C1064 1.363 . S
C1066 C1067 1.370 . S
C1066 C1070 1.524 . S
C1067 C1059 1.503 . S
C1067 C1066 1.370 . S
C1067 C1068 1.403 . S
C1068 C1067 1.403 . S
C1068 C1069 1.404 . S
C1068 C1071 1.539 . S
C1069 C1065 1.408 . S
C1069 C1068 1.404 . S
C1069 H1081 0.930 . S
C1070 C1066 1.524 . S
C1070 H1082 0.956 . S
C1070 H1083 0.961 . S
C1070 H1084 0.961 . S
C1071 C1068 1.539 . S
C1071 H1085 0.958 . S
C1071 H1086 0.961 . S
C1071 H1087 0.960 . S
H1072 C1056 0.931 . S
H1073 C1061 0.929 . S
H1074 C1062 0.960 . S
H1075 C1062 0.962 . S
H1076 C1062 0.960 . S
H1077 C1063 0.961 . S
H1078 C1063 0.961 . S
H1079 C1063 0.961 . S
H1080 C1064 0.931 . S
H1081 C1069 0.930 . S
H1082 C1070 0.956 . S
H1083 C1070 0.961 . S
H1084 C1070 0.961 . S
H1085 C1071 0.958 . S
H1086 C1071 0.961 . S
H1087 C1071 0.960 . S
C1088 C1089 1.391 . S
C1088 C1090 1.394 . S
C1088 H1104 0.931 . S
C1089 C1088 1.391 . S
C1089 C1093 1.376 . S
C1090 C1088 1.394 . S
C1090 C1091 1.369 . S
C1090 C1094 1.531 . S
C1091 C1090 1.369 . S
C1091 C1092 1.410 . S
C1091 C1099 1.503 . S
C1092 C1091 1.410 . S
C1092 C1093 1.392 . S
C1092 C1095 1.511 . S
C1093 C1089 1.376 . S
C1093 C1092 1.392 . S
C1093 H1105 0.929 . S
C1094 C1090 1.531 . S
C1094 H1106 0.960 . S
C1094 H1107 0.962 . S
C1094 H1108 0.960 . S
C1095 C1092 1.511 . S
C1095 H1109 0.961 . S
C1095 H1110 0.961 . S
C1095 H1111 0.961 . S
C1096 C1097 1.370 . S
C1096 C1098 1.363 . S
C1096 H1112 0.931 . S
C1097 C1096 1.370 . S
C1097 C1101 1.408 . S
C1098 C1096 1.363 . S
C1098 C1099 1.370 . S
C1098 C1102 1.524 . S
C1099 C1091 1.503 . S
C1099 C1098 1.370 . S
C1099 C1100 1.403 . S
C1100 C1099 1.403 . S
C1100 C1101 1.404 . S
C1100 C1103 1.539 . S
C1101 C1097 1.408 . S
C1101 C1100 1.404 . S
C1101 H1113 0.930 . S
C1102 C1098 1.524 . S
C1102 H1114 0.956 . S
C1102 H1115 0.961 . S
C1102 H1116 0.961 . S
C1103 C1100 1.539 . S
C1103 H1117 0.958 . S
C1103 H1118 0.961 . S
C1103 H1119 0.960 . S
H1104 C1088 0.931 . S
H1105 C1093 0.929 . S
H1106 C1094 0.960 . S
H1107 C1094 0.962 . S
H1108 C1094 0.960 . S
H1109 C1095 0.961 . S
H1110 C1095 0.961 . S
H1111 C1095 0.961 . S
H1112 C1096 0.931 . S
H1113 C1101 0.930 . S
H1114 C1102 0.956 . S
H1115 C1102 0.961 . S
H1116 C1102 0.961 . S
H1117 C1103 0.958 . S
H1118 C1103 0.961 . S
H1119 C1103 0.960 . S
C1120 C1121 1.391 . S
C1120 C1122 1.394 . S
C1120 H1136 0.931 . S
C1121 C1120 1.391 . S
C1121 C1125 1.376 . S
C1122 C1120 1.394 . S
C1122 C1123 1.369 . S
C1122 C1126 1.531 . S
C1123 C1122 1.369 . S
C1123 C1124 1.410 . S
C1123 C1131 1.503 . S
C1124 C1123 1.410 . S
C1124 C1125 1.392 . S
C1124 C1127 1.511 . S
C1125 C1121 1.376 . S
C1125 C1124 1.392 . S
C1125 H1137 0.929 . S
C1126 C1122 1.531 . S
C1126 H1138 0.960 . S
C1126 H1139 0.962 . S
C1126 H1140 0.960 . S
C1127 C1124 1.511 . S
C1127 H1141 0.961 . S
C1127 H1142 0.961 . S
C1127 H1143 0.961 . S
C1128 C1129 1.370 . S
C1128 C1130 1.363 . S
C1128 H1144 0.931 . S
C1129 C1128 1.370 . S
C1129 C1133 1.408 . S
C1130 C1128 1.363 . S
C1130 C1131 1.370 . S
C1130 C1134 1.524 . S
C1131 C1123 1.503 . S
C1131 C1130 1.370 . S
C1131 C1132 1.403 . S
C1132 C1131 1.403 . S
C1132 C1133 1.404 . S
C1132 C1135 1.539 . S
C1133 C1129 1.408 . S
C1133 C1132 1.404 . S
C1133 H1145 0.930 . S
C1134 C1130 1.524 . S
C1134 H1146 0.956 . S
C1134 H1147 0.961 . S
C1134 H1148 0.961 . S
C1135 C1132 1.539 . S
C1135 H1149 0.958 . S
C1135 H1150 0.961 . S
C1135 H1151 0.960 . S
H1136 C1120 0.931 . S
H1137 C1125 0.929 . S
H1138 C1126 0.960 . S
H1139 C1126 0.962 . S
H1140 C1126 0.960 . S
H1141 C1127 0.961 . S
H1142 C1127 0.961 . S
H1143 C1127 0.961 . S
H1144 C1128 0.931 . S
H1145 C1133 0.930 . S
H1146 C1134 0.956 . S
H1147 C1134 0.961 . S
H1148 C1134 0.961 . S
H1149 C1135 0.958 . S
H1150 C1135 0.961 . S
H1151 C1135 0.960 . S
C1152 C1153 1.391 . S
C1152 C1154 1.394 . S
C1152 H1168 0.931 . S
C1153 C1152 1.391 . S
C1153 C1157 1.376 . S
C1154 C1152 1.394 . S
C1154 C1155 1.369 . S
C1154 C1158 1.531 . S
C1155 C1154 1.369 . S
C1155 C1156 1.410 . S
C1155 C1163 1.503 . S
C1156 C1155 1.410 . S
C1156 C1157 1.392 . S
C1156 C1159 1.511 . S
C1157 C1153 1.376 . S
C1157 C1156 1.392 . S
C1157 H1169 0.929 . S
C1158 C1154 1.531 . S
C1158 H1170 0.960 . S
C1158 H1171 0.962 . S
C1158 H1172 0.960 . S
C1159 C1156 1.511 . S
C1159 H1173 0.961 . S
C1159 H1174 0.961 . S
C1159 H1175 0.961 . S
C1160 C1161 1.370 . S
C1160 C1162 1.363 . S
C1160 H1176 0.931 . S
C1161 C1160 1.370 . S
C1161 C1165 1.408 . S
C1162 C1160 1.363 . S
C1162 C1163 1.370 . S
C1162 C1166 1.524 . S
C1163 C1155 1.503 . S
C1163 C1162 1.370 . S
C1163 C1164 1.403 . S
C1164 C1163 1.403 . S
C1164 C1165 1.404 . S
C1164 C1167 1.539 . S
C1165 C1161 1.408 . S
C1165 C1164 1.404 . S
C1165 H1177 0.930 . S
C1166 C1162 1.524 . S
C1166 H1178 0.956 . S
C1166 H1179 0.961 . S
C1166 H1180 0.961 . S
C1167 C1164 1.539 . S
C1167 H1181 0.958 . S
C1167 H1182 0.961 . S
C1167 H1183 0.960 . S
H1168 C1152 0.931 . S
H1169 C1157 0.929 . S
H1170 C1158 0.960 . S
H1171 C1158 0.962 . S
H1172 C1158 0.960 . S
H1173 C1159 0.961 . S
H1174 C1159 0.961 . S
H1175 C1159 0.961 . S
H1176 C1160 0.931 . S
H1177 C1165 0.930 . S
H1178 C1166 0.956 . S
H1179 C1166 0.961 . S
H1180 C1166 0.961 . S
H1181 C1167 0.958 . S
H1182 C1167 0.961 . S
H1183 C1167 0.960 . S
C1184 C1185 1.391 . S
C1184 C1186 1.394 . S
C1184 H1200 0.931 . S
C1185 C1184 1.391 . S
C1185 C1189 1.376 . S
C1186 C1184 1.394 . S
C1186 C1187 1.369 . S
C1186 C1190 1.531 . S
C1187 C1186 1.369 . S
C1187 C1188 1.410 . S
C1187 C1195 1.503 . S
C1188 C1187 1.410 . S
C1188 C1189 1.392 . S
C1188 C1191 1.511 . S
C1189 C1185 1.376 . S
C1189 C1188 1.392 . S
C1189 H1201 0.929 . S
C1190 C1186 1.531 . S
C1190 H1202 0.960 . S
C1190 H1203 0.962 . S
C1190 H1204 0.960 . S
C1191 C1188 1.511 . S
C1191 H1205 0.961 . S
C1191 H1206 0.961 . S
C1191 H1207 0.961 . S
C1192 C1193 1.370 . S
C1192 C1194 1.363 . S
C1192 H1208 0.931 . S
C1193 C1192 1.370 . S
C1193 C1197 1.408 . S
C1194 C1192 1.363 . S
C1194 C1195 1.370 . S
C1194 C1198 1.524 . S
C1195 C1187 1.503 . S
C1195 C1194 1.370 . S
C1195 C1196 1.403 . S
C1196 C1195 1.403 . S
C1196 C1197 1.404 . S
C1196 C1199 1.539 . S
C1197 C1193 1.408 . S
C1197 C1196 1.404 . S
C1197 H1209 0.930 . S
C1198 C1194 1.524 . S
C1198 H1210 0.956 . S
C1198 H1211 0.961 . S
C1198 H1212 0.961 . S
C1199 C1196 1.539 . S
C1199 H1213 0.958 . S
C1199 H1214 0.961 . S
C1199 H1215 0.960 . S
H1200 C1184 0.931 . S
H1201 C1189 0.929 . S
H1202 C1190 0.960 . S
H1203 C1190 0.962 . S
H1204 C1190 0.960 . S
H1205 C1191 0.961 . S
H1206 C1191 0.961 . S
H1207 C1191 0.961 . S
H1208 C1192 0.931 . S
H1209 C1197 0.930 . S
H1210 C1198 0.956 . S
H1211 C1198 0.961 . S
H1212 C1198 0.961 . S
H1213 C1199 0.958 . S
H1214 C1199 0.961 . S
H1215 C1199 0.960 . S
C1216 C1217 1.391 . S
C1216 C1218 1.394 . S
C1216 H1232 0.931 . S
C1217 C1216 1.391 . S
C1217 C1221 1.376 . S
C1218 C1216 1.394 . S
C1218 C1219 1.369 . S
C1218 C1222 1.531 . S
C1219 C1218 1.369 . S
C1219 C1220 1.410 . S
C1219 C1227 1.503 . S
C1220 C1219 1.410 . S
C1220 C1221 1.392 . S
C1220 C1223 1.511 . S
C1221 C1217 1.376 . S
C1221 C1220 1.392 . S
C1221 H1233 0.929 . S
C1222 C1218 1.531 . S
C1222 H1234 0.960 . S
C1222 H1235 0.962 . S
C1222 H1236 0.960 . S
C1223 C1220 1.511 . S
C1223 H1237 0.961 . S
C1223 H1238 0.961 . S
C1223 H1239 0.961 . S
C1224 C1225 1.370 . S
C1224 C1226 1.363 . S
C1224 H1240 0.931 . S
C1225 C1224 1.370 . S
C1225 C1229 1.408 . S
C1226 C1224 1.363 . S
C1226 C1227 1.370 . S
C1226 C1230 1.524 . S
C1227 C1219 1.503 . S
C1227 C1226 1.370 . S
C1227 C1228 1.403 . S
C1228 C1227 1.403 . S
C1228 C1229 1.404 . S
C1228 C1231 1.539 . S
C1229 C1225 1.408 . S
C1229 C1228 1.404 . S
C1229 H1241 0.930 . S
C1230 C1226 1.524 . S
C1230 H1242 0.956 . S
C1230 H1243 0.961 . S
C1230 H1244 0.961 . S
C1231 C1228 1.539 . S
C1231 H1245 0.958 . S
C1231 H1246 0.961 . S
C1231 H1247 0.960 . S
H1232 C1216 0.931 . S
H1233 C1221 0.929 . S
H1234 C1222 0.960 . S
H1235 C1222 0.962 . S
H1236 C1222 0.960 . S
H1237 C1223 0.961 . S
H1238 C1223 0.961 . S
H1239 C1223 0.961 . S
H1240 C1224 0.931 . S
H1241 C1229 0.930 . S
H1242 C1230 0.956 . S
H1243 C1230 0.961 . S
H1244 C1230 0.961 . S
H1245 C1231 0.958 . S
H1246 C1231 0.961 . S
H1247 C1231 0.960 . S
C225 C9 1.374 . S
C233 C37 1.347 . S
C257 C51 1.367 . S
C265 C23 1.350 . S
C289 C65 1.334 . S
C297 C93 1.366 . S
C321 C107 1.369 . S
C329 C79 1.349 . S
C353 C121 1.328 . S
C361 C149 1.365 . S
C385 C163 1.365 . S
C393 C135 1.350 . S
C417 C177 1.375 . S
C425 C205 1.346 . S
C449 C219 1.374 . S
C457 C191 1.346 . S
C481 C59 1.259 . S
C489 C3 1.299 . S
C513 C17 1.320 . S
C521 C73 1.273 . S
C545 C31 1.317 . S
C553 C87 1.266 . S
C577 C101 1.284 . S
C585 C45 1.291 . S
C609 C115 1.236 . S
C617 C171 1.296 . S
C641 C129 1.295 . S
C649 C185 1.268 . S
C673 C143 1.326 . S
C681 C199 1.270 . S
C705 C157 1.263 . S
C713 C213 1.301 . S
C737 C147 1.227 . S
C745 C7 1.240 . S
C769 C161 1.233 . S
C777 C21 1.245 . S
C801 C35 1.223 . S
C809 C119 1.239 . S
C833 C49 1.268 . S
C841 C133 1.257 . S
C865 C63 1.229 . S
C873 C203 1.241 . S
C897 C77 1.224 . S
C905 C217 1.241 . S
C929 C91 1.257 . S
C937 C175 1.255 . S
C961 C189 1.270 . S
C969 C105 1.259 . S
C993 C8 1.381 . S
C1001 C218 1.385 . S
C1025 C176 1.381 . S
C1033 C22 1.385 . S
C1057 C36 1.379 . S
C1065 C190 1.384 . S
C1089 C204 1.385 . S
C1097 C50 1.387 . S
C1121 C134 1.383 . S
C1129 C64 1.386 . S
C1153 C78 1.380 . S
C1161 C148 1.385 . S
C1185 C162 1.379 . S
C1193 C92 1.384 . S
C1217 C120 1.379 . S
C1225 C106 1.384 . S
