# Generated by pormake.
# Topology wjk, (5)-cn, num edge types: 1
# Building blocks:
#     Node 0, Type 0, BuildingBlock: BEQFEK_clean_sbu_0, # of connection points: 5
#     Node 1, Type 0, BuildingBlock: BEQFEK_clean_sbu_0, # of connection points: 5
#     Node 2, Type 0, BuildingBlock: BEQFEK_clean_sbu_0, # of connection points: 5
#     Node 3, Type 0, BuildingBlock: BEQFEK_clean_sbu_0, # of connection points: 5
#     Node 4, Type 0, BuildingBlock: BEQFEK_clean_sbu_0, # of connection points: 5
#     Node 5, Type 0, BuildingBlock: BEQFEK_clean_sbu_0, # of connection points: 5
#     Node 6, Type 0, BuildingBlock: BEQFEK_clean_sbu_0, # of connection points: 5
#     Node 7, Type 0, BuildingBlock: BEQFEK_clean_sbu_0, # of connection points: 5
#     Node 8, Type 0, BuildingBlock: BEQFEK_clean_sbu_0, # of connection points: 5
#     Node 9, Type 0, BuildingBlock: BEQFEK_clean_sbu_0, # of connection points: 5
#     Node 10, Type 0, BuildingBlock: BEQFEK_clean_sbu_0, # of connection points: 5
#     Node 11, Type 0, BuildingBlock: BEQFEK_clean_sbu_0, # of connection points: 5
#     Edge 12, Type (0, 0), BuildingBlock: XIVTED_clean_linker_0, # of connection points: 2
#     Edge 13, Type (0, 0), BuildingBlock: XIVTED_clean_linker_0, # of connection points: 2
#     Edge 14, Type (0, 0), BuildingBlock: XIVTED_clean_linker_0, # of connection points: 2
#     Edge 15, Type (0, 0), BuildingBlock: XIVTED_clean_linker_0, # of connection points: 2
#     Edge 16, Type (0, 0), BuildingBlock: XIVTED_clean_linker_0, # of connection points: 2
#     Edge 17, Type (0, 0), BuildingBlock: XIVTED_clean_linker_0, # of connection points: 2
#     Edge 18, Type (0, 0), BuildingBlock: XIVTED_clean_linker_0, # of connection points: 2
#     Edge 19, Type (0, 0), BuildingBlock: XIVTED_clean_linker_0, # of connection points: 2
#     Edge 20, Type (0, 0), BuildingBlock: XIVTED_clean_linker_0, # of connection points: 2
#     Edge 21, Type (0, 0), BuildingBlock: XIVTED_clean_linker_0, # of connection points: 2
#     Edge 22, Type (0, 0), BuildingBlock: XIVTED_clean_linker_0, # of connection points: 2
#     Edge 23, Type (0, 0), BuildingBlock: XIVTED_clean_linker_0, # of connection points: 2
#     Edge 24, Type (0, 0), BuildingBlock: XIVTED_clean_linker_0, # of connection points: 2
#     Edge 25, Type (0, 0), BuildingBlock: XIVTED_clean_linker_0, # of connection points: 2
#     Edge 26, Type (0, 0), BuildingBlock: XIVTED_clean_linker_0, # of connection points: 2
#     Edge 27, Type (0, 0), BuildingBlock: XIVTED_clean_linker_0, # of connection points: 2
#     Edge 28, Type (0, 0), BuildingBlock: XIVTED_clean_linker_0, # of connection points: 2
#     Edge 29, Type (0, 0), BuildingBlock: XIVTED_clean_linker_0, # of connection points: 2
#     Edge 30, Type (0, 0), BuildingBlock: XIVTED_clean_linker_0, # of connection points: 2
#     Edge 31, Type (0, 0), BuildingBlock: XIVTED_clean_linker_0, # of connection points: 2
#     Edge 32, Type (0, 0), BuildingBlock: XIVTED_clean_linker_0, # of connection points: 2
#     Edge 33, Type (0, 0), BuildingBlock: XIVTED_clean_linker_0, # of connection points: 2
#     Edge 34, Type (0, 0), BuildingBlock: XIVTED_clean_linker_0, # of connection points: 2
#     Edge 35, Type (0, 0), BuildingBlock: XIVTED_clean_linker_0, # of connection points: 2
#     Edge 36, Type (0, 0), BuildingBlock: XIVTED_clean_linker_0, # of connection points: 2
#     Edge 37, Type (0, 0), BuildingBlock: XIVTED_clean_linker_0, # of connection points: 2
#     Edge 38, Type (0, 0), BuildingBlock: XIVTED_clean_linker_0, # of connection points: 2
#     Edge 39, Type (0, 0), BuildingBlock: XIVTED_clean_linker_0, # of connection points: 2
#     Edge 40, Type (0, 0), BuildingBlock: XIVTED_clean_linker_0, # of connection points: 2
#     Edge 41, Type (0, 0), BuildingBlock: XIVTED_clean_linker_0, # of connection points: 2
# Relax obj value: 0.400
# Max RMSD: 0.213
# Mean RMSD: 0.213
data_MOF--net-wjk--node1-BEQFEK_clean_sbu_0--edge1-XIVTED_clean_linker_0
_symmetry_space_group_name_H-M    P1
_symmetry_Int_Tables_number       1
_symmetry_cell_setting            triclinic
loop_
_symmetry_equiv_pos_as_xyz
'x, y, z'
_cell_length_a     35.21593
_cell_length_b     35.252615
_cell_length_c     74.736526
_cell_angle_alpha  90.015472
_cell_angle_beta   89.979842
_cell_angle_gamma 120.08959
loop_
_atom_site_label
_atom_site_type_symbol
_atom_site_fract_x
_atom_site_fract_y
_atom_site_fract_z
_atom_type_partial_charge
Co0 Co 0.13837 0.2196 0.26276 0.0
Co1 Co 0.21683 0.29739 0.24342 0.0
C2 C 0.19519 0.2071 0.23515 0.0
O3 O 0.16277 0.19319 0.24588 0.0
O4 O 0.22151 0.24798 0.2331 0.0
C5 C 0.10822 0.14623 0.28489 0.0
O6 O 0.14846 0.15411 0.28233 0.0
C7 C 0.3073 0.35976 0.23184 0.0
C8 C 0.3089 0.42306 0.23363 0.0
C9 C 0.33518 0.40485 0.23046 0.0
N10 N 0.26682 0.35191 0.2361 0.0
N11 N 0.26792 0.3899 0.23686 0.0
C12 C 0.31811 0.32436 0.2284 0.0
H13 H 0.3141 0.30574 0.24089 0.0
H14 H 0.35179 0.33756 0.22308 0.0
H15 H 0.29478 0.30118 0.21839 0.0
C16 C 0.18845 0.26621 0.29514 0.0
N17 N 0.18201 0.2638 0.27728 0.0
N18 N 0.21743 0.29461 0.26936 0.0
C19 C 0.24856 0.3159 0.28206 0.0
C20 C 0.2311 0.29865 0.29884 0.0
C21 C 0.15561 0.23591 0.30853 0.0
H22 H 0.12176 0.22355 0.30359 0.0
H23 H 0.16115 0.20808 0.3111 0.0
H24 H 0.15943 0.25297 0.32144 0.0
O25 O 0.1062 0.24064 0.24849 0.0
O26 O 0.16058 0.2923 0.23243 0.0
H27 H 0.31443 0.36258 0.29073 0.0
H28 H 0.31031 0.33628 0.26947 0.0
C29 C 0.29498 0.35021 0.27824 0.0
H30 H 0.29543 0.37797 0.27109 0.0
H31 H 0.24106 0.39332 0.24031 0.0
O32 O 0.09627 0.17117 0.27769 0.0
C33 C 0.11949 0.26859 0.23589 0.0
Co34 Co 0.92997 0.14624 0.59481 0.0
Co35 Co 0.9153 0.21698 0.57653 0.0
C36 C 0.99196 0.207 0.56665 0.0
O37 O 0.98074 0.17677 0.57823 0.0
O38 O 0.96954 0.22585 0.56432 0.0
C39 C 0.98013 0.12065 0.61533 0.0
O40 O 0.01146 0.1608 0.61174 0.0
C41 C 0.93706 0.30623 0.56687 0.0
C42 C 0.87177 0.30003 0.5641 0.0
C43 C 0.91635 0.33029 0.56353 0.0
N44 N 0.90617 0.26394 0.56929 0.0
N45 N 0.86721 0.26038 0.56741 0.0
C46 C 0.98509 0.32348 0.56964 0.0
H47 H 0.0008 0.32593 0.55649 0.0
H48 H 0.99039 0.30099 0.57828 0.0
H49 H 0.00095 0.35652 0.57585 0.0
C50 C 0.92923 0.19222 0.62774 0.0
N51 N 0.92423 0.18602 0.60988 0.0
N52 N 0.92154 0.21845 0.60249 0.0
C53 C 0.9267 0.24736 0.61561 0.0
C54 C 0.93179 0.23159 0.632 0.0
C55 C 0.93459 0.16264 0.64057 0.0
H56 H 0.91442 0.12801 0.6363 0.0
H57 H 0.96965 0.17186 0.6411 0.0
H58 H 0.9245 0.16594 0.65427 0.0
O59 O 0.87678 0.10972 0.58053 0.0
O60 O 0.86566 0.15898 0.56665 0.0
H61 H 0.9019 0.28567 0.60349 0.0
H62 H 0.92527 0.30413 0.62551 0.0
C63 C 0.92854 0.29018 0.61267 0.0
H64 H 0.9605 0.3137 0.60656 0.0
H65 H 0.8375 0.23114 0.56897 0.0
O66 O 0.94177 0.10713 0.60927 0.0
C67 C 0.85529 0.11907 0.56944 0.0
Co68 Co 0.78035 0.92683 0.92786 0.0
Co69 Co 0.69644 0.91626 0.90965 0.0
C70 C 0.78436 0.99172 0.9005 0.0
O71 O 0.80247 0.97894 0.91188 0.0
O72 O 0.74304 0.97055 0.89805 0.0
C73 C 0.85539 0.97366 0.94914 0.0
O74 O 0.84734 0.00571 0.94619 0.0
C75 C 0.63086 0.94082 0.90032 0.0
C76 C 0.57056 0.87653 0.89719 0.0
C77 C 0.58612 0.92131 0.89697 0.0
N78 N 0.64109 0.90908 0.90243 0.0
N79 N 0.60499 0.87073 0.90032 0.0
C80 C 0.66264 0.98847 0.90343 0.0
H81 H 0.69008 0.99268 0.91207 0.0
H82 H 0.64609 0.00478 0.90978 0.0
H83 H 0.6764 0.00456 0.89039 0.0
C84 C 0.73328 0.92483 0.96092 0.0
N85 N 0.73486 0.92118 0.943 0.0
N86 N 0.70064 0.92058 0.93565 0.0
C87 C 0.67729 0.92599 0.94887 0.0
C88 C 0.69733 0.9289 0.9653 0.0
C89 C 0.76725 0.92761 0.97374 0.0
H90 H 0.78121 0.90743 0.96896 0.0
H91 H 0.79364 0.96229 0.97507 0.0
H92 H 0.75299 0.91587 0.98721 0.0
O93 O 0.76278 0.8746 0.91291 0.0
O94 O 0.70356 0.86671 0.89899 0.0
H95 H 0.61476 0.9045 0.93661 0.0
H96 H 0.62025 0.92691 0.95886 0.0
C97 C 0.63751 0.93012 0.94603 0.0
H98 H 0.64754 0.96272 0.94022 0.0
H99 H 0.60358 0.84057 0.90164 0.0
O100 O 0.83041 0.93618 0.94237 0.0
C101 C 0.73214 0.85494 0.90153 0.0
Co102 Co 0.85796 0.7786 0.26213 0.0
Co103 Co 0.78023 0.69984 0.24308 0.0
C104 C 0.80046 0.78922 0.23423 0.0
O105 O 0.83275 0.80354 0.24502 0.0
O106 O 0.77445 0.74826 0.23228 0.0
C107 C 0.8848 0.85136 0.28419 0.0
O108 O 0.84353 0.84049 0.28201 0.0
C109 C 0.68948 0.63506 0.23278 0.0
C110 C 0.69322 0.57462 0.23023 0.0
C111 C 0.66411 0.59025 0.2295 0.0
N112 N 0.73137 0.64512 0.23539 0.0
N113 N 0.73342 0.60891 0.23359 0.0
C114 C 0.67369 0.66701 0.23532 0.0
H115 H 0.69708 0.69511 0.24364 0.0
H116 H 0.64087 0.65091 0.24175 0.0
H117 H 0.6711 0.67968 0.22206 0.0
C118 C 0.80911 0.73197 0.29473 0.0
N119 N 0.81492 0.73423 0.27683 0.0
N120 N 0.77961 0.70273 0.2691 0.0
C121 C 0.74922 0.68095 0.28203 0.0
C122 C 0.76693 0.69891 0.29869 0.0
C123 C 0.84222 0.76267 0.30795 0.0
H124 H 0.87591 0.77629 0.30262 0.0
H125 H 0.83554 0.78954 0.31105 0.0
H126 H 0.83989 0.74545 0.32067 0.0
O127 O 0.8912 0.75833 0.2481 0.0
O128 O 0.837 0.70583 0.23227 0.0
H129 H 0.70349 0.62068 0.26927 0.0
H130 H 0.68717 0.62791 0.29136 0.0
C131 C 0.70332 0.64482 0.27871 0.0
H132 H 0.68411 0.6587 0.27275 0.0
H133 H 0.762 0.60733 0.23533 0.0
O134 O 0.89888 0.82835 0.2768 0.0
C135 C 0.87809 0.73005 0.23562 0.0
Co136 Co 0.08049 0.85726 0.5955 0.0
Co137 Co 0.07662 0.77757 0.57609 0.0
C138 C 0.0092 0.80093 0.56837 0.0
O139 O 0.02905 0.83353 0.57892 0.0
O140 O 0.02247 0.77364 0.56625 0.0
C141 C 0.03918 0.88956 0.61758 0.0
O142 O 0.00585 0.84984 0.61502 0.0
C143 C 0.0469 0.68689 0.56447 0.0
C144 C 0.10846 0.68475 0.56566 0.0
C145 C 0.06372 0.6588 0.56276 0.0
N146 N 0.08003 0.7272 0.56863 0.0
N147 N 0.11681 0.72577 0.56905 0.0
C148 C 0.00066 0.67651 0.56134 0.0
H149 H 0.98655 0.68063 0.57396 0.0
H150 H 0.97969 0.64291 0.55604 0.0
H151 H 0.00074 0.69997 0.55145 0.0
C152 C 0.07612 0.80683 0.62787 0.0
N153 N 0.08025 0.81325 0.61 0.0
N154 N 0.07444 0.77748 0.60205 0.0
C155 C 0.06383 0.7462 0.61474 0.0
C156 C 0.06456 0.7638 0.63155 0.0
C157 C 0.07917 0.84 0.64118 0.0
H158 H 0.10109 0.87367 0.63617 0.0
H159 H 0.04592 0.83494 0.64373 0.0
H160 H 0.09235 0.83632 0.65411 0.0
O161 O 0.13334 0.88837 0.58085 0.0
O162 O 0.12756 0.83303 0.56459 0.0
H163 H 0.07696 0.69843 0.60325 0.0
H164 H 0.04414 0.68025 0.62334 0.0
C165 C 0.05053 0.69956 0.61085 0.0
H166 H 0.02049 0.68455 0.60251 0.0
H167 H 0.1474 0.75245 0.57234 0.0
O168 O 0.07589 0.90034 0.61041 0.0
C169 C 0.14625 0.87422 0.56793 0.0
Co170 Co 0.21747 0.07336 0.92824 0.0
Co171 Co 0.30022 0.08151 0.90966 0.0
C172 C 0.21126 0.00655 0.90137 0.0
O173 O 0.19377 0.0202 0.91268 0.0
O174 O 0.2525 0.02721 0.89872 0.0
C175 C 0.14327 0.02893 0.95014 0.0
O176 O 0.15078 0.9964 0.94755 0.0
C177 C 0.36358 0.05466 0.89904 0.0
C178 C 0.42651 0.11723 0.89967 0.0
C179 C 0.40867 0.07245 0.89736 0.0
N180 N 0.35532 0.08726 0.90263 0.0
N181 N 0.39306 0.12465 0.90273 0.0
C182 C 0.32846 0.0078 0.89652 0.0
H183 H 0.30587 0.00603 0.88581 0.0
H184 H 0.30905 0.9952 0.90901 0.0
H185 H 0.34191 0.98661 0.89251 0.0
C186 C 0.26523 0.07525 0.96107 0.0
N187 N 0.26321 0.07883 0.94316 0.0
N188 N 0.29634 0.0777 0.9356 0.0
C189 C 0.31901 0.07067 0.94861 0.0
C190 C 0.30007 0.06908 0.96519 0.0
C191 C 0.23241 0.07418 0.9741 0.0
H192 H 0.21879 0.09459 0.96924 0.0
H193 H 0.20563 0.03983 0.97593 0.0
H194 H 0.24768 0.08671 0.98737 0.0
O195 O 0.23545 0.12495 0.91288 0.0
O196 O 0.29389 0.13142 0.89875 0.0
H197 H 0.38258 0.09097 0.93782 0.0
H198 H 0.37009 0.05858 0.95799 0.0
C199 C 0.35637 0.06283 0.94527 0.0
H200 H 0.34487 0.033 0.93696 0.0
H201 H 0.39612 0.15507 0.90554 0.0
O202 O 0.16835 0.06585 0.94295 0.0
C203 C 0.26579 0.14385 0.90132 0.0
Co204 Co 0.77726 0.85722 0.45529 0.0
Co205 Co 0.69957 0.77883 0.47439 0.0
C206 C 0.78947 0.80005 0.4828 0.0
O207 O 0.8034 0.83253 0.47214 0.0
O208 O 0.74857 0.77364 0.48478 0.0
C209 C 0.84994 0.88621 0.43285 0.0
O210 O 0.84075 0.84545 0.43494 0.0
C211 C 0.63615 0.68793 0.48468 0.0
C212 C 0.57496 0.69036 0.4874 0.0
C213 C 0.59142 0.66194 0.48799 0.0
N214 N 0.64544 0.72956 0.48217 0.0
N215 N 0.6088 0.73085 0.48408 0.0
C216 C 0.66869 0.67292 0.48195 0.0
H217 H 0.69637 0.69649 0.4735 0.0
H218 H 0.65289 0.64007 0.47558 0.0
H219 H 0.68193 0.67074 0.49514 0.0
C220 C 0.73052 0.8083 0.42269 0.0
N221 N 0.73294 0.81405 0.44061 0.0
N222 N 0.70187 0.77851 0.44836 0.0
C223 C 0.68026 0.74807 0.43543 0.0
C224 C 0.69786 0.76596 0.41875 0.0
C225 C 0.76078 0.84163 0.40944 0.0
H226 H 0.77383 0.87523 0.41475 0.0
H227 H 0.78811 0.83561 0.40633 0.0
H228 H 0.74335 0.8389 0.39674 0.0
O229 O 0.75656 0.88967 0.4696 0.0
O230 O 0.70526 0.83493 0.48562 0.0
H231 H 0.62774 0.68569 0.42616 0.0
H232 H 0.65931 0.68319 0.44459 0.0
C233 C 0.64475 0.70192 0.43878 0.0
H234 H 0.62052 0.70152 0.44834 0.0
H235 H 0.60661 0.75908 0.48242 0.0
O236 O 0.82611 0.89897 0.44049 0.0
C237 C 0.72883 0.87604 0.4823 0.0
Co238 Co 0.92912 0.78208 0.78951 0.0
Co239 Co 0.91757 0.69805 0.80788 0.0
C240 C 0.9932 0.78608 0.81716 0.0
O241 O 0.9809 0.8043 0.80565 0.0
O242 O 0.97171 0.74479 0.81964 0.0
C243 C 0.97581 0.85732 0.76825 0.0
O244 O 0.00824 0.84986 0.7713 0.0
C245 C 0.94218 0.63285 0.81759 0.0
C246 C 0.87786 0.57256 0.82077 0.0
C247 C 0.9227 0.58824 0.82111 0.0
N248 N 0.91035 0.6429 0.81529 0.0
N249 N 0.87198 0.60682 0.81742 0.0
C250 C 0.98988 0.66464 0.81453 0.0
H251 H 0.99411 0.69184 0.80575 0.0
H252 H 0.00637 0.64807 0.80835 0.0
H253 H 0.00582 0.67867 0.82757 0.0
C254 C 0.92977 0.73579 0.75664 0.0
N255 N 0.92438 0.73686 0.77447 0.0
N256 N 0.92253 0.70214 0.7819 0.0
C257 C 0.92824 0.67868 0.76881 0.0
C258 C 0.93327 0.69954 0.75242 0.0
C259 C 0.93354 0.76974 0.74361 0.0
H260 H 0.91254 0.78327 0.7478 0.0
H261 H 0.96825 0.79638 0.7428 0.0
H262 H 0.92341 0.7554 0.73002 0.0
O263 O 0.87637 0.76435 0.80428 0.0
O264 O 0.86766 0.70492 0.81821 0.0
H265 H 0.90572 0.61615 0.78118 0.0
H266 H 0.92855 0.62126 0.75903 0.0
C267 C 0.9317 0.63862 0.77183 0.0
H268 H 0.96414 0.64827 0.77775 0.0
H269 H 0.84177 0.60531 0.81598 0.0
O270 O 0.9383 0.83192 0.77494 0.0
C271 C 0.85616 0.73364 0.81557 0.0
Co272 Co 0.1387 0.9185 0.12155 0.0
Co273 Co 0.21784 0.92058 0.14086 0.0
C274 C 0.19528 0.98787 0.1495 0.0
O275 O 0.16287 0.9687 0.1388 0.0
O276 O 0.22252 0.97443 0.15141 0.0
C277 C 0.11057 0.9634 0.09971 0.0
O278 O 0.15109 0.99486 0.10264 0.0
C279 C 0.30697 0.94547 0.1539 0.0
C280 C 0.31028 0.88646 0.1467 0.0
C281 C 0.33549 0.92883 0.15317 0.0
N282 N 0.26747 0.91483 0.14759 0.0
N283 N 0.26957 0.87939 0.14365 0.0
C284 C 0.31619 0.98895 0.16104 0.0
H285 H 0.28767 0.9848 0.1689 0.0
H286 H 0.32146 0.01144 0.14972 0.0
H287 H 0.34535 0.00366 0.16991 0.0
C288 C 0.18933 0.92331 0.08919 0.0
N289 N 0.18265 0.91881 0.10703 0.0
N290 N 0.21849 0.92484 0.11501 0.0
C291 C 0.25018 0.93645 0.10242 0.0
C292 C 0.23257 0.93547 0.08559 0.0
C293 C 0.15612 0.91963 0.07576 0.0
H294 H 0.12238 0.89803 0.08082 0.0
H295 H 0.16123 0.95273 0.07287 0.0
H296 H 0.16007 0.90594 0.06299 0.0
O297 O 0.10653 0.86482 0.13556 0.0
O298 O 0.16147 0.86917 0.15172 0.0
H299 H 0.29993 0.92287 0.11096 0.0
H300 H 0.31839 0.96605 0.09459 0.0
C301 C 0.29717 0.95137 0.10651 0.0
H302 H 0.30869 0.97564 0.11755 0.0
H303 H 0.24373 0.85105 0.13805 0.0
O304 O 0.09729 0.92591 0.10662 0.0
C305 C 0.1203 0.85093 0.14827 0.0
Co306 Co 0.21488 0.14384 0.45576 0.0
Co307 Co 0.29908 0.21655 0.47428 0.0
C308 C 0.21086 0.20413 0.4833 0.0
O309 O 0.19246 0.1736 0.47177 0.0
O310 O 0.25214 0.22358 0.48583 0.0
C311 C 0.14005 0.11538 0.43424 0.0
O312 O 0.14769 0.15534 0.43725 0.0
C313 C 0.36359 0.30637 0.48487 0.0
C314 C 0.426 0.30583 0.48412 0.0
C315 C 0.40877 0.33326 0.48645 0.0
N316 N 0.35469 0.26529 0.48131 0.0
N317 N 0.39211 0.26507 0.48115 0.0
C318 C 0.32897 0.31876 0.48739 0.0
H319 H 0.30915 0.31152 0.475 0.0
H320 H 0.34293 0.35365 0.49114 0.0
H321 H 0.30661 0.29858 0.4983 0.0
C322 C 0.26224 0.19037 0.42294 0.0
N323 N 0.26059 0.18412 0.4408 0.0
N324 N 0.29457 0.2176 0.44837 0.0
C325 C 0.31757 0.24745 0.43542 0.0
C326 C 0.29782 0.23099 0.41888 0.0
C327 C 0.22857 0.15964 0.4099 0.0
H328 H 0.21463 0.12527 0.4144 0.0
H329 H 0.20213 0.16784 0.40865 0.0
H330 H 0.24317 0.16291 0.39644 0.0
O331 O 0.23237 0.10897 0.47061 0.0
O332 O 0.29228 0.15945 0.48447 0.0
H333 H 0.38165 0.28879 0.4462 0.0
H334 H 0.37029 0.30981 0.42608 0.0
C335 C 0.35613 0.29197 0.43879 0.0
H336 H 0.34576 0.31117 0.44713 0.0
H337 H 0.39468 0.23744 0.47832 0.0
O338 O 0.16516 0.10315 0.44108 0.0
C339 C 0.26323 0.11922 0.4818 0.0
Co340 Co 0.07027 0.21657 0.78866 0.0
Co341 Co 0.07873 0.29893 0.80757 0.0
C342 C 0.00413 0.20989 0.816 0.0
O343 O 0.01744 0.19255 0.80447 0.0
O344 O 0.02487 0.25106 0.81872 0.0
C345 C 0.02579 0.14268 0.76654 0.0
O346 O 0.99316 0.15012 0.76909 0.0
C347 C 0.05187 0.36187 0.81862 0.0
C348 C 0.11426 0.42492 0.81761 0.0
C349 C 0.0695 0.40689 0.8202 0.0
N350 N 0.08452 0.35381 0.81481 0.0
N351 N 0.12183 0.39161 0.81451 0.0
C352 C 0.0051 0.32664 0.82136 0.0
H353 H 0.00378 0.30417 0.83203 0.0
H354 H 0.99215 0.30718 0.80891 0.0
H355 H 0.98392 0.33998 0.82555 0.0
C356 C 0.07065 0.26432 0.75604 0.0
N357 N 0.07502 0.26225 0.7739 0.0
N358 N 0.07398 0.2952 0.78164 0.0
C359 C 0.06623 0.31778 0.76883 0.0
C360 C 0.06404 0.29896 0.75218 0.0
C361 C 0.06948 0.23191 0.74279 0.0
H362 H 0.09013 0.21833 0.7474 0.0
H363 H 0.03511 0.2051 0.74099 0.0
H364 H 0.08169 0.24756 0.72955 0.0
O365 O 0.12239 0.23458 0.80377 0.0
O366 O 0.1292 0.29291 0.81804 0.0
H367 H 0.08651 0.38114 0.77977 0.0
H368 H 0.05331 0.36852 0.75983 0.0
C369 C 0.05817 0.35486 0.77244 0.0
H370 H 0.02858 0.34313 0.78094 0.0
H371 H 0.15224 0.39482 0.81146 0.0
O372 O 0.06266 0.16769 0.77381 0.0
C373 C 0.14163 0.26491 0.8153 0.0
Co374 Co 0.8592 0.0793 0.12111 0.0
Co375 Co 0.78083 0.07817 0.14072 0.0
C376 C 0.80241 0.01 0.14902 0.0
O377 O 0.83473 0.02891 0.13826 0.0
O378 O 0.77569 0.02402 0.15113 0.0
C379 C 0.88685 0.03407 0.09915 0.0
O380 O 0.84633 0.00266 0.10214 0.0
C381 C 0.69201 0.05376 0.15397 0.0
C382 C 0.68882 0.11281 0.14677 0.0
C383 C 0.66357 0.07048 0.15327 0.0
N384 N 0.73149 0.0843 0.14761 0.0
N385 N 0.72948 0.11977 0.14367 0.0
C386 C 0.68273 0.01027 0.16113 0.0
H387 H 0.71124 0.01441 0.16898 0.0
H388 H 0.67742 0.98773 0.14982 0.0
H389 H 0.65357 0.99563 0.17001 0.0
C390 C 0.80825 0.07477 0.08894 0.0
N391 N 0.81531 0.07949 0.10675 0.0
N392 N 0.77973 0.07382 0.11485 0.0
C393 C 0.74781 0.06222 0.10238 0.0
C394 C 0.76502 0.06284 0.08549 0.0
C395 C 0.84103 0.07794 0.07539 0.0
H396 H 0.87493 0.09949 0.08029 0.0
H397 H 0.83564 0.0447 0.07258 0.0
H398 H 0.83685 0.09141 0.06261 0.0
O399 O 0.89191 0.1329 0.13512 0.0
O400 O 0.83759 0.12941 0.15147 0.0
H401 H 0.69829 0.07597 0.1111 0.0
H402 H 0.67947 0.03262 0.09478 0.0
C403 C 0.70092 0.0474 0.10663 0.0
H404 H 0.68958 0.02323 0.11771 0.0
H405 H 0.75531 0.14804 0.13802 0.0
O406 O 0.90025 0.0716 0.10603 0.0
C407 C 0.87866 0.14723 0.14786 0.0
H408 H 0.60539 0.60904 0.21287 0.0
H409 H 0.39497 0.38728 0.24621 0.0
H410 H 0.61245 0.50784 0.24255 0.0
H411 H 0.38584 0.48137 0.21233 0.0
H412 H 0.47478 0.43095 0.24462 0.0
H413 H 0.5253 0.56327 0.21228 0.0
C414 C 0.59013 0.57742 0.21942 0.0
C415 C 0.61565 0.56268 0.22813 0.0
C416 C 0.45544 0.44186 0.23732 0.0
C417 C 0.52401 0.5097 0.22719 0.0
C418 C 0.40976 0.41656 0.23803 0.0
C419 C 0.38368 0.4299 0.22886 0.0
C420 C 0.47541 0.48132 0.22761 0.0
C421 C 0.40479 0.46958 0.21936 0.0
C422 C 0.54438 0.55111 0.21893 0.0
C423 C 0.59409 0.52065 0.23577 0.0
N424 N 0.44941 0.49389 0.21896 0.0
N425 N 0.54961 0.49583 0.23523 0.0
H426 H 0.08872 0.60862 0.54393 0.0
H427 H 0.8841 0.38071 0.57652 0.0
H428 H 0.98638 0.5988 0.57866 0.0
H429 H 0.99282 0.38958 0.54646 0.0
H430 H 0.91801 0.46046 0.57513 0.0
H431 H 0.05171 0.52835 0.54279 0.0
C432 C 0.05812 0.58954 0.55109 0.0
C433 C 0.03991 0.61041 0.56095 0.0
C434 C 0.93455 0.44502 0.56886 0.0
C435 C 0.99769 0.51866 0.55995 0.0
C436 C 0.91511 0.39946 0.5696 0.0
C437 C 0.93613 0.37851 0.56195 0.0
C438 C 0.9752 0.46995 0.56025 0.0
C439 C 0.97614 0.40443 0.55305 0.0
C440 C 0.03705 0.54377 0.55047 0.0
C441 C 0.00065 0.58418 0.57027 0.0
N442 N 0.99445 0.44879 0.55249 0.0
N443 N 0.98088 0.53974 0.56953 0.0
H444 H 0.48264 0.0959 0.87771 0.0
H445 H 0.50433 0.89106 0.91064 0.0
H446 H 0.39418 0.99846 0.9151 0.0
H447 H 0.60499 0.99857 0.8803 0.0
H448 H 0.46024 0.92684 0.90998 0.0
H449 H 0.52564 0.05855 0.87658 0.0
C450 C 0.47202 0.06635 0.8855 0.0
C451 C 0.43399 0.04938 0.89603 0.0
C452 C 0.49203 0.94273 0.9035 0.0
C453 C 0.48306 0.00681 0.89499 0.0
C454 C 0.51712 0.9222 0.9038 0.0
C455 C 0.55877 0.94229 0.89583 0.0
C456 C 0.50843 0.98351 0.89497 0.0
C457 C 0.57362 0.98254 0.88708 0.0
C458 C 0.49653 0.04509 0.88487 0.0
C459 C 0.42213 0.01156 0.90618 0.0
N460 N 0.54852 0.0019 0.88691 0.0
N461 N 0.44644 0.99149 0.90535 0.0
H462 H 0.61104 0.60407 0.50473 0.0
H463 H 0.39507 0.39251 0.4682 0.0
H464 H 0.51017 0.60953 0.47405 0.0
H465 H 0.4832 0.38414 0.5059 0.0
H466 H 0.43851 0.47225 0.46963 0.0
H467 H 0.56663 0.52384 0.5048 0.0
C468 C 0.57976 0.58841 0.49788 0.0
C469 C 0.56465 0.61349 0.48907 0.0
C470 C 0.44817 0.45312 0.47778 0.0
C471 C 0.51339 0.52183 0.48933 0.0
C472 C 0.42304 0.40752 0.47712 0.0
C473 C 0.4346 0.38171 0.48749 0.0
C474 C 0.48578 0.47327 0.48863 0.0
C475 C 0.47276 0.40295 0.49796 0.0
C476 C 0.55425 0.54263 0.49806 0.0
C477 C 0.52318 0.59149 0.48095 0.0
N478 N 0.49697 0.44754 0.49831 0.0
N479 N 0.49919 0.54701 0.48117 0.0
H480 H -0.00014 0.6077 0.83806 0.0
H481 H 0.99505 0.39129 0.80252 0.0
H482 H 0.89294 0.50636 0.8077 0.0
H483 H 0.09282 0.4814 0.83942 0.0
H484 H 0.95799 0.43393 0.80402 0.0
H485 H 0.03534 0.56314 0.83848 0.0
C486 C 0.98403 0.57624 0.83136 0.0
C487 C 0.94384 0.56109 0.8225 0.0
C488 C 0.98722 0.44418 0.81199 0.0
C489 C 0.98384 0.50963 0.82319 0.0
C490 C 0.00812 0.4195 0.8113 0.0
C491 C 0.04614 0.43192 0.82141 0.0
C492 C 0.00488 0.48216 0.8226 0.0
C493 C 0.06312 0.47032 0.83168 0.0
C494 C 0.00411 0.55065 0.83174 0.0
C495 C 0.92403 0.5194 0.81461 0.0
N496 N 0.04232 0.49408 0.83206 0.0
N497 N 0.94437 0.4953 0.81501 0.0
H498 H 0.39745 0.01627 0.14793 0.0
H499 H 0.60159 0.98307 0.14799 0.0
H500 H 0.38457 0.8921 0.16292 0.0
H501 H 0.61448 0.10726 0.163 0.0
H502 H 0.52218 0.94891 0.15072 0.0
H503 H 0.47687 0.05048 0.15071 0.0
C504 C 0.41096 0.99636 0.15243 0.0
C505 C 0.38382 0.95139 0.15592 0.0
C506 C 0.54249 0.98347 0.15375 0.0
C507 C 0.47536 0.99013 0.15791 0.0
C508 C 0.58808 0.003 0.15249 0.0
C509 C 0.61522 0.04796 0.156 0.0
C510 C 0.52368 0.00926 0.15792 0.0
C511 C 0.59497 0.07241 0.16042 0.0
C512 C 0.45655 0.01591 0.15372 0.0
C513 C 0.40407 0.92696 0.16036 0.0
N514 N 0.55046 0.05286 0.16112 0.0
N515 N 0.44858 0.94653 0.16109 0.0
H516 H 0.32826 0.21769 0.38724 0.0
H517 H 0.22099 0.33138 0.33052 0.0
H518 H 0.27784 0.29456 0.41118 0.0
H519 H 0.29141 0.27395 0.30642 0.0
H520 H 0.2476 0.32462 0.36004 0.0
H521 H 0.32184 0.24398 0.3576 0.0
C522 C 0.31701 0.24113 0.38624 0.0
C523 C 0.30396 0.25436 0.40162 0.0
C524 C 0.258 0.31423 0.3483 0.0
C525 C 0.29508 0.28357 0.36774 0.0
C526 C 0.24296 0.3183 0.33145 0.0
C527 C 0.25425 0.30341 0.31606 0.0
C528 C 0.28401 0.29442 0.34982 0.0
C529 C 0.28232 0.28618 0.31798 0.0
C530 C 0.31302 0.25591 0.36932 0.0
C531 C 0.28873 0.28404 0.39962 0.0
N532 N 0.29575 0.28161 0.33455 0.0
N533 N 0.28415 0.29718 0.383 0.0
H534 H 0.88731 0.21702 0.66353 0.0
H535 H 0.10755 0.33206 0.72067 0.0
H536 H 0.01474 0.29658 0.63985 0.0
H537 H 0.9793 0.27522 0.74453 0.0
H538 H 0.07451 0.32558 0.69108 0.0
H539 H 0.9195 0.24364 0.69325 0.0
C540 C 0.92188 0.24114 0.66461 0.0
C541 C 0.94837 0.25508 0.64927 0.0
C542 C 0.05357 0.31534 0.70279 0.0
C543 C 0.98592 0.2846 0.68323 0.0
C544 C 0.07252 0.31934 0.71967 0.0
C545 C 0.04611 0.30457 0.73501 0.0
C546 C 0.00769 0.29562 0.70119 0.0
C547 C 0.00079 0.28746 0.73301 0.0
C548 C 0.94037 0.25611 0.68156 0.0
C549 C 0.99317 0.28554 0.65136 0.0
N550 N 0.98294 0.2829 0.71641 0.0
N551 N 0.01064 0.29882 0.66802 0.0
H552 H 0.77216 0.10513 0.05398 0.0
H553 H 0.66956 0.88453 0.99696 0.0
H554 H 0.70731 0.9769 0.07799 0.0
H555 H 0.71427 0.01134 0.97336 0.0
H556 H 0.67619 0.91664 0.02675 0.0
H557 H 0.74509 0.07139 1.02454 0.0
C558 C 0.7513 0.06988 0.05305 0.0
C559 C 0.74163 0.04374 0.06839 0.0
C560 C 0.68371 0.93738 1.01508 0.0
C561 C 0.71142 0.0046 0.03472 0.0
C562 C 0.67961 0.91894 0.99808 0.0
C563 C 0.69107 0.94531 0.98274 0.0
C564 C 0.70013 0.98275 1.01678 0.0
C565 C 0.70468 0.98986 0.98488 0.0
C566 C 0.736 0.05056 0.03625 0.0
C567 C 0.71506 0.99818 0.06648 0.0
N568 N 0.70942 0.00731 1.00158 0.0
N569 N 0.70134 0.98002 0.04994 0.0
H570 H 0.71984 0.70339 0.41206 0.0
H571 H 0.70314 0.71928 0.30538 0.0
H572 H 0.66934 0.77818 0.3863 0.0
H573 H 0.78 0.67112 0.33115 0.0
H574 H 0.6764 0.72667 0.33482 0.0
H575 H 0.72782 0.67707 0.38263 0.0
C576 C 0.70938 0.71334 0.40021 0.0
C577 C 0.69389 0.74294 0.40156 0.0
C578 C 0.69856 0.7138 0.33405 0.0
C579 C 0.70353 0.7136 0.36782 0.0
C580 C 0.71347 0.70921 0.31724 0.0
C581 C 0.74376 0.69456 0.31589 0.0
C582 C 0.71393 0.70352 0.34964 0.0
C583 C 0.75667 0.68258 0.33166 0.0
C584 C 0.71432 0.69867 0.3834 0.0
C585 C 0.68144 0.75539 0.38579 0.0
N586 N 0.74196 0.68759 0.34787 0.0
N587 N 0.6868 0.74094 0.36958 0.0
H588 H 0.98019 0.69916 0.63792 0.0
H589 H 0.88933 0.64689 0.72385 0.0
H590 H 0.10444 0.77712 0.66424 0.0
H591 H 0.01845 0.74245 0.74196 0.0
H592 H 0.91879 0.65067 0.69384 0.0
H593 H 0.94534 0.67207 0.66694 0.0
C594 C 0.0003 0.70966 0.64987 0.0
C595 C 0.0452 0.74051 0.64869 0.0
C596 C 0.94111 0.67074 0.70424 0.0
C597 C 0.00553 0.71013 0.68236 0.0
C598 C 0.92416 0.66794 0.72151 0.0
C599 C 0.95163 0.69401 0.73537 0.0
C600 C 0.98587 0.70051 0.70077 0.0
C601 C 0.99633 0.72143 0.73164 0.0
C602 C 0.98033 0.69434 0.6666 0.0
C603 C 0.06964 0.75358 0.66458 0.0
N604 N 0.01192 0.7242 0.71473 0.0
N605 N 0.04947 0.73875 0.6807 0.0
H606 H 0.32982 0.11329 0.99678 0.0
H607 H 0.22395 0.89267 0.05406 0.0
H608 H 0.2801 0.98562 0.97323 0.0
H609 H 0.29096 0.02113 0.07785 0.0
H610 H 0.25057 0.92595 1.02452 0.0
H611 H 0.32296 0.08102 0.02655 0.0
C612 C 0.31857 0.0786 0.9979 0.0
C613 C 0.30581 0.05209 0.98258 0.0
C614 C 0.26021 0.94692 0.0362 0.0
C615 C 0.29654 0.01451 1.0166 0.0
C616 C 0.24515 0.92787 0.05305 0.0
C617 C 0.25555 0.95421 0.06837 0.0
C618 C 0.28533 0.99283 0.03458 0.0
C619 C 0.28262 -0.00032 0.06636 0.0
C620 C 0.31435 0.06008 1.01489 0.0
C621 C 0.29072 0.00721 0.98473 0.0
N622 N 0.29612 0.01759 0.04978 0.0
N623 N 0.28594 0.98974 1.00141 0.0
H624 H 0.02361 0.12195 0.29327 0.0
H625 H 0.86661 0.90931 0.30118 0.0
H626 H 0.11916 0.08002 0.29813 0.0
H627 H 0.97267 0.88526 0.28927 0.0
H628 H 0.91999 0.98267 0.31142 0.0
H629 H 0.96658 0.04969 0.30228 0.0
C630 C 0.03271 0.09769 0.29667 0.0
C631 C 0.07586 0.10642 0.29433 0.0
C632 C 0.93175 0.96156 0.30652 0.0
C633 C 0.01063 0.02321 0.30495 0.0
C634 C 0.90116 0.91944 0.30081 0.0
C635 C 0.91543 0.89196 0.29363 0.0
C636 C 0.97678 0.97632 0.30463 0.0
C637 C 0.96034 0.90599 0.29411 0.0
C638 C 1e-05 0.05622 0.30203 0.0
C639 C 0.08603 0.07424 0.2993 0.0
N640 N 0.98948 0.94756 0.29913 0.0
N641 N 0.05342 0.03366 0.30397 0.0
H642 H 0.92164 0.04084 0.62931 0.0
H643 H 0.10194 0.97279 0.62677 0.0
H644 H 0.06052 0.13146 0.62372 0.0
H645 H 0.96255 0.88198 0.62986 0.0
H646 H 0.08918 0.03191 0.63577 0.0
H647 H 0.93784 0.98489 0.63958 0.0
C648 C 0.95561 0.04914 0.6305 0.0
C649 C 0.98979 0.09022 0.62503 0.0
C650 C 0.06144 -0.00109 0.63484 0.0
C651 C 0.0085 0.02638 0.63659 0.0
C652 C 0.06869 0.96515 0.62965 0.0
C653 C 0.03303 0.92282 0.6269 0.0
C654 C 0.01822 0.99024 0.63702 0.0
C655 C 0.99086 0.91445 0.63132 0.0
C656 C 0.96485 0.01725 0.63644 0.0
C657 C 0.03317 0.09976 0.62737 0.0
N658 N 0.98448 0.94814 0.63577 0.0
N659 N 0.0413 0.06766 0.63258 0.0
H660 H 0.12395 0.09091 0.96148 0.0
H661 H 0.87482 0.91284 0.96183 0.0
H662 H 0.07362 0.95124 0.96126 0.0
H663 H 0.92512 0.05237 0.95928 0.0
H664 H 0.9463 0.92683 0.9722 0.0
H665 H 0.05239 0.07785 0.97129 0.0
C666 C 0.09799 0.05749 0.96378 0.0
C667 C 0.10403 0.02196 0.95987 0.0
C668 C 0.94152 0.95443 0.96972 0.0
C669 C 0.02219 0.00682 0.9709 0.0
C670 C 0.90078 0.94646 0.96372 0.0
C671 C 0.89475 0.98158 0.95902 0.0
C672 C 0.97649 0.99777 0.97069 0.0
C673 C 0.92886 0.02438 0.96228 0.0
C674 C 0.05719 0.05006 0.96946 0.0
C675 C 0.06989 0.97949 0.96363 0.0
N676 N 0.96873 0.03133 0.9675 0.0
N677 N 0.02998 0.973 0.96852 0.0
H678 H 0.91061 0.87167 0.41602 0.0
H679 H 0.12049 0.0345 0.42231 0.0
H680 H 0.87912 0.97294 0.42712 0.0
H681 H 0.07104 0.12441 0.4231 0.0
H682 H 0.04984 0.97701 0.41206 0.0
H683 H 0.98285 0.92737 0.40579 0.0
C684 C 0.91889 0.9057 0.4162 0.0
C685 C 0.8897 0.91797 0.42321 0.0
C686 C 0.05414 0.00929 0.41395 0.0
C687 C 0.97298 0.98226 0.41225 0.0
C688 C 0.09478 0.04227 0.41999 0.0
C689 C 0.10096 0.08371 0.42425 0.0
C690 C 0.01932 0.01783 0.41239 0.0
C691 C 0.06719 0.09247 0.42046 0.0
C692 C 0.96046 0.93774 0.41048 0.0
C693 C 0.90131 0.96219 0.42246 0.0
N694 N 0.02743 0.05945 0.41515 0.0
N695 N 0.94243 0.99283 0.41749 0.0
H696 H 0.05368 0.92467 0.75582 0.0
H697 H 0.94864 0.07506 0.75369 0.0
H698 H 0.91463 0.87837 0.75754 0.0
H699 H 0.08759 0.12158 0.75682 0.0
H700 H 0.93639 0.00371 0.74394 0.0
H701 H 0.06645 0.99554 0.74512 0.0
C702 C 0.02577 0.92916 0.75364 0.0
C703 C 0.98324 0.89636 0.75826 0.0
C704 C 0.96968 0.02983 0.74639 0.0
C705 C 0.99755 0.9771 0.74619 0.0
C706 C 0.97666 0.07053 0.75199 0.0
C707 C 0.01895 0.10354 0.75678 0.0
C708 C 0.00522 0.02224 0.74583 0.0
C709 C 0.05421 0.09639 0.75388 0.0
C710 C 0.03305 0.96957 0.74749 0.0
C711 C 0.94816 0.90342 0.75474 0.0
N712 N 0.04644 0.05612 0.74898 0.0
N713 N 0.95618 0.94342 0.74929 0.0
H714 H 0.97018 0.09254 0.08822 0.0
H715 H 0.02723 0.90471 0.08888 0.0
H716 H 0.87401 0.95445 0.08831 0.0
H717 H 0.12339 0.0428 0.08858 0.0
H718 H 0.9716 0.92202 0.07917 0.0
H719 H 0.02588 0.07502 0.07882 0.0
C720 C 0.96063 0.05854 0.08597 0.0
C721 C 0.91787 0.02474 0.08969 0.0
C722 C 0.00504 0.94852 0.08088 0.0
C723 C 0.9814 0.00447 0.07914 0.0
C724 C 0.03679 0.93865 0.08649 0.0
C725 C 0.07952 0.97254 0.09018 0.0
C726 C 0.01608 0.99257 0.07927 0.0
C727 C 0.09047 0.01577 0.08636 0.0
C728 C 0.99242 0.04855 0.08054 0.0
C729 C 0.90694 0.98143 0.08606 0.0
N730 N 0.05865 0.02467 0.08151 0.0
N731 N 0.93881 0.97242 0.08139 0.0
H732 H 0.96503 0.20504 0.14043 0.0
H733 H 0.03315 0.23993 0.24329 0.0
H734 H 0.87118 0.16292 0.18356 0.0
H735 H 0.12703 0.29152 0.20016 0.0
H736 H 0.974 0.22101 0.22182 0.0
H737 H 0.02416 0.24576 0.16185 0.0
C738 C 0.95667 0.20508 0.15438 0.0
C739 C 0.91281 0.18015 0.16014 0.0
C740 C 0.00754 0.23717 0.21704 0.0
C741 C 0.98108 0.22638 0.18499 0.0
C742 C 0.0415 0.24821 0.22933 0.0
C743 C 0.08537 0.26725 0.22358 0.0
C744 C 0.01709 0.24457 0.19869 0.0
C745 C 0.09389 0.2771 0.20528 0.0
C746 C 0.99063 0.22831 0.16665 0.0
C747 C 0.9043 0.18168 0.17843 0.0
N748 N 0.06008 0.26501 0.19349 0.0
N749 N 0.9381 0.20371 0.1902 0.0
H750 H 0.80915 0.03133 0.57711 0.0
H751 H 0.75428 0.96178 0.47532 0.0
H752 H 0.82716 0.12343 0.53542 0.0
H753 H 0.71023 0.86787 0.5184 0.0
H754 H 0.77443 0.02052 0.49714 0.0
H755 H 0.76687 0.97098 0.55636 0.0
C756 C 0.80351 0.03891 0.56367 0.0
C757 C 0.82203 0.08275 0.55805 0.0
C758 C 0.75957 0.98703 0.50185 0.0
C759 C 0.7741 0.01327 0.53393 0.0
C760 C 0.74785 0.95332 0.48937 0.0
C761 C 0.73055 0.90962 0.49498 0.0
C762 C 0.75483 0.97736 0.52023 0.0
C763 C 0.72318 0.9009 0.5134 0.0
C764 C 0.77934 0.0043 0.55179 0.0
C765 C 0.81346 0.0903 0.54042 0.0
N766 N 0.73608 0.93447 0.52535 0.0
N767 N 0.79083 0.05601 0.52894 0.0
H768 H 0.83287 0.70317 0.85006 0.0
H769 H 0.70353 0.83405 0.86671 0.0
H770 H 0.80675 0.77217 0.80864 0.0
H771 H 0.76907 0.8041 0.90838 0.0
H772 H 0.7235 0.79402 0.8453 0.0
H773 H 0.792 0.72248 0.8713 0.0
C774 C 0.81756 0.72132 0.84529 0.0
C775 C 0.82354 0.73622 0.82751 0.0
C776 C 0.73278 0.79554 0.85921 0.0
C777 C 0.77685 0.75871 0.85183 0.0
C778 C 0.721 0.81805 0.87148 0.0
C779 C 0.73477 0.8227 0.8894 0.0
C780 C 0.75804 0.77702 0.8649 0.0
C781 C 0.75793 0.80163 0.8947 0.0
C782 C 0.79456 0.73269 0.85747 0.0
C783 C 0.80328 0.76017 0.82222 0.0
N784 N 0.76903 0.78004 0.88254 0.0
N785 N 0.78118 0.77086 0.8343 0.0
H786 H 0.12972 0.83538 0.18375 0.0
H787 H 0.86922 0.703 0.20042 0.0
H788 H 0.03331 0.79353 0.14162 0.0
H789 H 0.96548 0.76243 0.24239 0.0
H790 H 0.92885 0.72171 0.17895 0.0
H791 H 0.07035 0.79479 0.20536 0.0
C792 C 0.09627 0.81672 0.17894 0.0
C793 C 0.08668 0.81827 0.16079 0.0
C794 C 0.93687 0.72997 0.19292 0.0
C795 C 0.01822 0.77212 0.18558 0.0
C796 C 0.90272 0.7189 0.20524 0.0
C797 C 0.91216 0.73137 0.22328 0.0
C798 C 0.98089 0.75355 0.19865 0.0
C799 C 0.95648 0.75241 0.22862 0.0
C800 C 0.06225 0.79385 0.19133 0.0
C801 C 0.04241 0.79368 0.15546 0.0
N802 N 0.98903 0.76317 0.21639 0.0
N803 N 0.00998 0.77213 0.16776 0.0
H804 H 0.1561 0.8648 0.53187 0.0
H805 H 0.29727 0.12517 0.51565 0.0
H806 H 0.20682 0.96036 0.57438 0.0
H807 H 0.22157 0.03118 0.4747 0.0
H808 H 0.27903 0.0643 0.53639 0.0
H809 H 0.19471 0.92419 0.51009 0.0
C810 C 0.17636 0.89803 0.53669 0.0
C811 C 0.17792 0.90744 0.55504 0.0
C812 C 0.26703 0.05701 0.52276 0.0
C813 C 0.22181 0.97591 0.53009 0.0
C814 C 0.27777 0.09182 0.51086 0.0
C815 C 0.26075 0.08347 0.49338 0.0
C816 C 0.23935 0.01343 0.51715 0.0
C817 C 0.2352 0.03935 0.48806 0.0
C818 C 0.19805 0.93207 0.52422 0.0
C819 C 0.20436 0.95144 0.56039 0.0
N820 N 0.22506 0.00618 0.49988 0.0
N821 N 0.22482 0.98392 0.54802 0.0
H822 H 0.29345 0.16366 0.8663 0.0
H823 H 0.16374 0.29438 0.85001 0.0
H824 H 0.23007 0.19572 0.90821 0.0
H825 H 0.19232 0.22783 0.8083 0.0
H826 H 0.20468 0.27513 0.87122 0.0
H827 H 0.27345 0.20368 0.84492 0.0
C828 C 0.27645 0.18011 0.87113 0.0
C829 C 0.26329 0.17606 0.88911 0.0
C830 C 0.20264 0.26544 0.85734 0.0
C831 C 0.2399 0.22169 0.86463 0.0
C832 C 0.17959 0.27679 0.84518 0.0
C833 C 0.17428 0.26255 0.82731 0.0
C834 C 0.221 0.24005 0.85161 0.0
C835 C 0.19524 0.23931 0.82194 0.0
C836 C 0.26464 0.20261 0.85887 0.0
C837 C 0.24071 0.19769 0.89448 0.0
N838 N 0.2173 0.22857 0.83401 0.0
N839 N 0.22952 0.21921 0.88232 0.0
H840 H 0.26794 0.21737 0.21692 0.0
H841 H 0.13058 0.00641 0.15702 0.0
H842 H 0.13122 0.12421 0.22658 0.0
H843 H 0.2663 0.04969 0.16887 0.0
H844 H 0.13294 0.06001 0.1783 0.0
H845 H 0.27068 0.16526 0.19572 0.0
C846 C 0.23864 0.18597 0.21468 0.0
C847 C 0.19927 0.17515 0.22356 0.0
C848 C 0.16226 0.05788 0.17618 0.0
C849 C 0.20204 0.11627 0.19911 0.0
C850 C 0.1611 0.02753 0.16393 0.0
C851 C 0.19829 0.02337 0.16117 0.0
C852 C 0.20108 0.08505 0.18557 0.0
C853 C 0.23681 0.05164 0.17065 0.0
C854 C 0.24029 0.15634 0.20263 0.0
C855 C 0.16233 0.13395 0.22015 0.0
N856 N 0.23731 0.0815 0.1824 0.0
N857 N 0.16448 0.10633 0.20806 0.0
H858 H 0.00351 0.23531 0.53192 0.0
H859 H 0.22912 0.23793 0.51719 0.0
H860 H 0.06466 0.20053 0.57385 0.0
H861 H 0.12939 0.19284 0.47627 0.0
H862 H 0.17937 0.24627 0.5377 0.0
H863 H 0.06039 0.2418 0.51103 0.0
C864 C 0.02937 0.22991 0.53681 0.0
C865 C 0.02929 0.21715 0.55462 0.0
C866 C 0.16872 0.23507 0.52416 0.0
C867 C 0.09441 0.22502 0.53091 0.0
C868 C 0.19708 0.23052 0.51242 0.0
C869 C 0.18324 0.21438 0.49502 0.0
C870 C 0.12665 0.22443 0.51834 0.0
C871 C 0.14123 0.20506 0.4896 0.0
C872 C 0.06154 0.23333 0.52487 0.0
C873 C 0.06338 0.21018 0.56021 0.0
N874 N 0.1144 0.21028 0.50121 0.0
N875 N 0.09463 0.21427 0.5484 0.0
H876 H 0.9351 0.128 0.80852 0.0
H877 H 0.86466 0.06268 0.90814 0.0
H878 H 0.98792 0.2261 0.85008 0.0
H879 H 0.76881 0.00516 0.8659 0.0
H880 H 0.9145 0.11967 0.88721 0.0
H881 H 0.87725 0.07836 0.82923 0.0
C882 C 0.93427 0.13922 0.82193 0.0
C883 C 0.96635 0.18121 0.8276 0.0
C884 C 0.88231 0.09486 0.88263 0.0
C885 C 0.90111 0.12438 0.85138 0.0
C886 C 0.85395 0.06236 0.89452 0.0
C887 C 0.81255 0.02923 0.88874 0.0
C888 C 0.86972 0.09342 0.86471 0.0
C889 C 0.80033 0.03028 0.87093 0.0
C890 C 0.90124 0.11098 0.8337 0.0
C891 C 0.96373 0.19409 0.84514 0.0
N892 N 0.82911 0.06139 0.85944 0.0
N893 N 0.93215 0.1655 0.85651 0.0
H894 H 0.72819 0.77799 0.21527 0.0
H895 H 0.86633 0.99024 0.15628 0.0
H896 H 0.86396 0.87251 0.22606 0.0
H897 H 0.73089 0.94818 0.16817 0.0
H898 H 0.86314 0.93575 0.17727 0.0
H899 H 0.72564 0.83026 0.19405 0.0
C900 C 0.75729 0.80971 0.21328 0.0
C901 C 0.79634 0.82091 0.22249 0.0
C902 C 0.83406 0.93833 0.17522 0.0
C903 C 0.79384 0.87986 0.19803 0.0
C904 C 0.8357 0.9692 0.16313 0.0
C905 C 0.79885 0.97399 0.16049 0.0
C906 C 0.79509 0.91128 0.18454 0.0
C907 C 0.76014 0.94577 0.16988 0.0
C908 C 0.75575 0.8394 0.20121 0.0
C909 C 0.83308 0.86245 0.21937 0.0
N910 N 0.75916 0.9154 0.18147 0.0
N911 N 0.83107 0.89009 0.20727 0.0
H912 H 0.77855 0.72782 0.50154 0.0
H913 H 0.99107 0.8658 0.56072 0.0
H914 H 0.87275 0.86376 0.49109 0.0
H915 H 0.94591 0.72943 0.54976 0.0
H916 H 0.93709 0.8632 0.53956 0.0
H917 H 0.83051 0.72535 0.52292 0.0
C918 C 0.81018 0.75698 0.50363 0.0
C919 C 0.82134 0.79605 0.49447 0.0
C920 C 0.93888 0.8338 0.54186 0.0
C921 C 0.87998 0.79364 0.51914 0.0
C922 C 0.96944 0.8351 0.55405 0.0
C923 C 0.97322 0.79779 0.55699 0.0
C924 C 0.91118 0.79474 0.53272 0.0
C925 C 0.9443 0.75902 0.54782 0.0
C926 C 0.83969 0.75549 0.51579 0.0
C927 C 0.86275 0.83286 0.49773 0.0
N928 N 0.9143 0.75841 0.53612 0.0
N929 N 0.89026 0.83089 0.50994 0.0
H930 H 0.12912 0.93795 0.90892 0.0
H931 H 0.06495 0.86564 0.80944 0.0
H932 H 0.2279 0.98916 0.86754 0.0
H933 H 0.00576 0.77095 0.85195 0.0
H934 H 0.12195 0.91543 0.83035 0.0
H935 H 0.07951 0.87972 0.88835 0.0
C936 C 0.1405 0.93667 0.89558 0.0
C937 C 0.18267 0.96844 0.88992 0.0
C938 C 0.09678 0.8835 0.83501 0.0
C939 C 0.12587 0.90275 0.8663 0.0
C940 C 0.06427 0.85516 0.82312 0.0
C941 C 0.03066 0.81412 0.82898 0.0
C942 C 0.0949 0.87125 0.853 0.0
C943 C 0.03125 0.8022 0.84687 0.0
C944 C 0.11227 0.90343 0.8839 0.0
C945 C 0.19574 0.96523 0.87249 0.0
N946 N 0.06241 0.83097 0.85835 0.0
N947 N 0.16717 0.93346 0.86118 0.0
loop_
_geom_bond_atom_site_label_1
_geom_bond_atom_site_label_2
_geom_bond_distance
_geom_bond_site_symmetry_2
_ccdc_geom_bond_type
Co0 O3 1.970 . S
Co0 N17 1.989 . S
Co0 O25 1.967 . S
Co0 O32 1.920 . S
Co1 O4 1.966 . S
Co1 N10 2.022 . S
Co1 N18 1.993 . S
Co1 O26 1.941 . S
C2 O3 1.258 . S
C2 O4 1.263 . S
O3 Co0 1.970 . S
O3 C2 1.258 . S
O4 Co1 1.966 . S
O4 C2 1.263 . S
C5 O6 1.235 . S
C5 O32 1.289 . S
O6 C5 1.235 . S
C7 C9 1.400 . S
C7 N10 1.351 . S
C7 C12 1.501 . S
C8 C9 1.387 . S
C8 N11 1.341 . S
C9 C7 1.400 . S
C9 C8 1.387 . S
N10 Co1 2.022 . S
N10 C7 1.351 . S
N10 N11 1.365 . S
N11 C8 1.341 . S
N11 N10 1.365 . S
N11 H31 0.862 . S
C12 C7 1.501 . S
C12 H13 0.961 . S
C12 H14 0.961 . S
C12 H15 0.960 . S
H13 C12 0.961 . S
H14 C12 0.961 . S
H15 C12 0.960 . S
C16 N17 1.342 . S
C16 C20 1.401 . S
C16 C21 1.499 . S
N17 Co0 1.989 . S
N17 C16 1.342 . S
N17 N18 1.388 . S
N18 Co1 1.993 . S
N18 N17 1.388 . S
N18 C19 1.346 . S
C19 N18 1.346 . S
C19 C20 1.396 . S
C19 C29 1.510 . S
C20 C16 1.401 . S
C20 C19 1.396 . S
C21 C16 1.499 . S
C21 H22 0.959 . S
C21 H23 0.960 . S
C21 H24 0.961 . S
H22 C21 0.959 . S
H23 C21 0.960 . S
H24 C21 0.961 . S
O25 Co0 1.967 . S
O25 C33 1.258 . S
O26 Co1 1.941 . S
O26 C33 1.266 . S
H27 C29 0.959 . S
H28 C29 0.961 . S
C29 C19 1.510 . S
C29 H27 0.959 . S
C29 H28 0.961 . S
C29 H30 0.960 . S
H30 C29 0.960 . S
H31 N11 0.862 . S
O32 Co0 1.920 . S
O32 C5 1.289 . S
C33 O25 1.258 . S
C33 O26 1.266 . S
Co34 O37 1.970 . S
Co34 N51 1.989 . S
Co34 O59 1.967 . S
Co34 O66 1.920 . S
Co35 O38 1.966 . S
Co35 N44 2.022 . S
Co35 N52 1.993 . S
Co35 O60 1.941 . S
C36 O37 1.249 . S
C36 O38 1.286 . S
O37 Co34 1.970 . S
O37 C36 1.249 . S
O38 Co35 1.966 . S
O38 C36 1.286 . S
C39 O40 1.235 1_655 S
C39 O66 1.289 . S
O40 C39 1.235 1_455 S
C41 C43 1.400 . S
C41 N44 1.351 . S
C41 C46 1.501 . S
C42 C43 1.387 . S
C42 N45 1.341 . S
C43 C41 1.400 . S
C43 C42 1.387 . S
N44 Co35 2.022 . S
N44 C41 1.351 . S
N44 N45 1.365 . S
N45 C42 1.341 . S
N45 N44 1.365 . S
N45 H65 0.862 . S
C46 C41 1.501 . S
C46 H47 0.961 . S
C46 H48 0.961 1_655 S
C46 H49 0.960 1_655 S
H47 C46 0.961 . S
H48 C46 0.961 1_455 S
H49 C46 0.960 1_455 S
C50 N51 1.342 . S
C50 C54 1.401 . S
C50 C55 1.499 . S
N51 Co34 1.989 . S
N51 C50 1.342 . S
N51 N52 1.388 . S
N52 Co35 1.993 . S
N52 N51 1.388 . S
N52 C53 1.346 . S
C53 N52 1.346 . S
C53 C54 1.396 . S
C53 C63 1.510 . S
C54 C50 1.401 . S
C54 C53 1.396 . S
C55 C50 1.499 . S
C55 H56 0.959 . S
C55 H57 0.960 . S
C55 H58 0.961 . S
H56 C55 0.959 . S
H57 C55 0.960 . S
H58 C55 0.961 . S
O59 Co34 1.967 . S
O59 C67 1.258 . S
O60 Co35 1.941 . S
O60 C67 1.266 . S
H61 C63 0.959 . S
H62 C63 0.961 . S
C63 C53 1.510 . S
C63 H61 0.959 . S
C63 H62 0.961 . S
C63 H64 0.960 . S
H64 C63 0.960 . S
H65 N45 0.862 . S
O66 Co34 1.920 . S
O66 C39 1.289 . S
C67 O59 1.258 . S
C67 O60 1.266 . S
Co68 O71 1.970 . S
Co68 N85 1.989 . S
Co68 O93 1.967 . S
Co68 O100 1.920 . S
Co69 O72 1.966 . S
Co69 N78 2.022 . S
Co69 N86 1.993 . S
Co69 O94 1.941 . S
C70 O71 1.270 . S
C70 O72 1.265 . S
O71 Co68 1.970 . S
O71 C70 1.270 . S
O72 Co69 1.966 . S
O72 C70 1.265 . S
C73 O74 1.235 1_565 S
C73 O100 1.289 . S
O74 C73 1.235 1_545 S
C75 C77 1.400 . S
C75 N78 1.351 . S
C75 C80 1.501 . S
C76 C77 1.387 . S
C76 N79 1.341 . S
C77 C75 1.400 . S
C77 C76 1.387 . S
N78 Co69 2.022 . S
N78 C75 1.351 . S
N78 N79 1.365 . S
N79 C76 1.341 . S
N79 N78 1.365 . S
N79 H99 0.862 . S
C80 C75 1.501 . S
C80 H81 0.961 . S
C80 H82 0.961 1_565 S
C80 H83 0.960 1_565 S
H81 C80 0.961 . S
H82 C80 0.961 1_545 S
H83 C80 0.960 1_545 S
C84 N85 1.342 . S
C84 C88 1.401 . S
C84 C89 1.499 . S
N85 Co68 1.989 . S
N85 C84 1.342 . S
N85 N86 1.388 . S
N86 Co69 1.993 . S
N86 N85 1.388 . S
N86 C87 1.346 . S
C87 N86 1.346 . S
C87 C88 1.396 . S
C87 C97 1.510 . S
C88 C84 1.401 . S
C88 C87 1.396 . S
C89 C84 1.499 . S
C89 H90 0.959 . S
C89 H91 0.960 . S
C89 H92 0.961 . S
H90 C89 0.959 . S
H91 C89 0.960 . S
H92 C89 0.961 . S
O93 Co68 1.967 . S
O93 C101 1.258 . S
O94 Co69 1.941 . S
O94 C101 1.266 . S
H95 C97 0.959 . S
H96 C97 0.961 . S
C97 C87 1.510 . S
C97 H95 0.959 . S
C97 H96 0.961 . S
C97 H98 0.960 . S
H98 C97 0.960 . S
H99 N79 0.862 . S
O100 Co68 1.920 . S
O100 C73 1.289 . S
C101 O93 1.258 . S
C101 O94 1.266 . S
Co102 O105 1.970 . S
Co102 N119 1.989 . S
Co102 O127 1.967 . S
Co102 O134 1.920 . S
Co103 O106 1.966 . S
Co103 N112 2.022 . S
Co103 N120 1.993 . S
Co103 O128 1.941 . S
C104 O105 1.258 . S
C104 O106 1.263 . S
O105 Co102 1.970 . S
O105 C104 1.258 . S
O106 Co103 1.966 . S
O106 C104 1.263 . S
C107 O108 1.235 . S
C107 O134 1.289 . S
O108 C107 1.235 . S
C109 C111 1.400 . S
C109 N112 1.351 . S
C109 C114 1.501 . S
C110 C111 1.387 . S
C110 N113 1.341 . S
C111 C109 1.400 . S
C111 C110 1.387 . S
N112 Co103 2.022 . S
N112 C109 1.351 . S
N112 N113 1.365 . S
N113 C110 1.341 . S
N113 N112 1.365 . S
N113 H133 0.862 . S
C114 C109 1.501 . S
C114 H115 0.961 . S
C114 H116 0.961 . S
C114 H117 0.960 . S
H115 C114 0.961 . S
H116 C114 0.961 . S
H117 C114 0.960 . S
C118 N119 1.342 . S
C118 C122 1.401 . S
C118 C123 1.499 . S
N119 Co102 1.989 . S
N119 C118 1.342 . S
N119 N120 1.388 . S
N120 Co103 1.993 . S
N120 N119 1.388 . S
N120 C121 1.346 . S
C121 N120 1.346 . S
C121 C122 1.396 . S
C121 C131 1.510 . S
C122 C118 1.401 . S
C122 C121 1.396 . S
C123 C118 1.499 . S
C123 H124 0.959 . S
C123 H125 0.960 . S
C123 H126 0.961 . S
H124 C123 0.959 . S
H125 C123 0.960 . S
H126 C123 0.961 . S
O127 Co102 1.967 . S
O127 C135 1.258 . S
O128 Co103 1.941 . S
O128 C135 1.266 . S
H129 C131 0.959 . S
H130 C131 0.961 . S
C131 C121 1.510 . S
C131 H129 0.959 . S
C131 H130 0.961 . S
C131 H132 0.960 . S
H132 C131 0.960 . S
H133 N113 0.862 . S
O134 Co102 1.920 . S
O134 C107 1.289 . S
C135 O127 1.258 . S
C135 O128 1.266 . S
Co136 O139 1.970 . S
Co136 N153 1.989 . S
Co136 O161 1.967 . S
Co136 O168 1.920 . S
Co137 O140 1.966 . S
Co137 N146 2.022 . S
Co137 N154 1.993 . S
Co137 O162 1.941 . S
C138 O139 1.249 . S
C138 O140 1.286 . S
O139 Co136 1.970 . S
O139 C138 1.249 . S
O140 Co137 1.966 . S
O140 C138 1.286 . S
C141 O142 1.235 1_455 S
C141 O168 1.289 . S
O142 C141 1.235 1_655 S
C143 C145 1.400 . S
C143 N146 1.351 . S
C143 C148 1.501 . S
C144 C145 1.387 . S
C144 N147 1.341 . S
C145 C143 1.400 . S
C145 C144 1.387 . S
N146 Co137 2.022 . S
N146 C143 1.351 . S
N146 N147 1.365 . S
N147 C144 1.341 . S
N147 N146 1.365 . S
N147 H167 0.862 . S
C148 C143 1.501 . S
C148 H149 0.961 . S
C148 H150 0.961 1_455 S
C148 H151 0.960 1_455 S
H149 C148 0.961 . S
H150 C148 0.961 1_655 S
H151 C148 0.960 1_655 S
C152 N153 1.342 . S
C152 C156 1.401 . S
C152 C157 1.499 . S
N153 Co136 1.989 . S
N153 C152 1.342 . S
N153 N154 1.388 . S
N154 Co137 1.993 . S
N154 N153 1.388 . S
N154 C155 1.346 . S
C155 N154 1.346 . S
C155 C156 1.396 . S
C155 C165 1.510 . S
C156 C152 1.401 . S
C156 C155 1.396 . S
C157 C152 1.499 . S
C157 H158 0.959 . S
C157 H159 0.960 . S
C157 H160 0.961 . S
H158 C157 0.959 . S
H159 C157 0.960 . S
H160 C157 0.961 . S
O161 Co136 1.967 . S
O161 C169 1.258 . S
O162 Co137 1.941 . S
O162 C169 1.266 . S
H163 C165 0.959 . S
H164 C165 0.961 . S
C165 C155 1.510 . S
C165 H163 0.959 . S
C165 H164 0.961 . S
C165 H166 0.960 . S
H166 C165 0.960 . S
H167 N147 0.862 . S
O168 Co136 1.920 . S
O168 C141 1.289 . S
C169 O161 1.258 . S
C169 O162 1.266 . S
Co170 O173 1.970 . S
Co170 N187 1.989 . S
Co170 O195 1.967 . S
Co170 O202 1.920 . S
Co171 O174 1.966 . S
Co171 N180 2.022 . S
Co171 N188 1.993 . S
Co171 O196 1.941 . S
C172 O173 1.270 . S
C172 O174 1.265 . S
O173 Co170 1.970 . S
O173 C172 1.270 . S
O174 Co171 1.966 . S
O174 C172 1.265 . S
C175 O176 1.235 1_545 S
C175 O202 1.289 . S
O176 C175 1.235 1_565 S
C177 C179 1.400 . S
C177 N180 1.351 . S
C177 C182 1.501 . S
C178 C179 1.387 . S
C178 N181 1.341 . S
C179 C177 1.400 . S
C179 C178 1.387 . S
N180 Co171 2.022 . S
N180 C177 1.351 . S
N180 N181 1.365 . S
N181 C178 1.341 . S
N181 N180 1.365 . S
N181 H201 0.862 . S
C182 C177 1.501 . S
C182 H183 0.961 . S
C182 H184 0.961 1_545 S
C182 H185 0.960 1_545 S
H183 C182 0.961 . S
H184 C182 0.961 1_565 S
H185 C182 0.960 1_565 S
C186 N187 1.342 . S
C186 C190 1.401 . S
C186 C191 1.499 . S
N187 Co170 1.989 . S
N187 C186 1.342 . S
N187 N188 1.388 . S
N188 Co171 1.993 . S
N188 N187 1.388 . S
N188 C189 1.346 . S
C189 N188 1.346 . S
C189 C190 1.396 . S
C189 C199 1.510 . S
C190 C186 1.401 . S
C190 C189 1.396 . S
C191 C186 1.499 . S
C191 H192 0.959 . S
C191 H193 0.960 . S
C191 H194 0.961 . S
H192 C191 0.959 . S
H193 C191 0.960 . S
H194 C191 0.961 . S
O195 Co170 1.967 . S
O195 C203 1.258 . S
O196 Co171 1.941 . S
O196 C203 1.266 . S
H197 C199 0.959 . S
H198 C199 0.961 . S
C199 C189 1.510 . S
C199 H197 0.959 . S
C199 H198 0.961 . S
C199 H200 0.960 . S
H200 C199 0.960 . S
H201 N181 0.862 . S
O202 Co170 1.920 . S
O202 C175 1.289 . S
C203 O195 1.258 . S
C203 O196 1.266 . S
Co204 O207 1.970 . S
Co204 N221 1.989 . S
Co204 O229 1.967 . S
Co204 O236 1.920 . S
Co205 O208 1.966 . S
Co205 N214 2.022 . S
Co205 N222 1.993 . S
Co205 O230 1.941 . S
C206 O207 1.258 . S
C206 O208 1.263 . S
O207 Co204 1.970 . S
O207 C206 1.258 . S
O208 Co205 1.966 . S
O208 C206 1.263 . S
C209 O210 1.235 . S
C209 O236 1.289 . S
O210 C209 1.235 . S
C211 C213 1.400 . S
C211 N214 1.351 . S
C211 C216 1.501 . S
C212 C213 1.387 . S
C212 N215 1.341 . S
C213 C211 1.400 . S
C213 C212 1.387 . S
N214 Co205 2.022 . S
N214 C211 1.351 . S
N214 N215 1.365 . S
N215 C212 1.341 . S
N215 N214 1.365 . S
N215 H235 0.862 . S
C216 C211 1.501 . S
C216 H217 0.961 . S
C216 H218 0.961 . S
C216 H219 0.960 . S
H217 C216 0.961 . S
H218 C216 0.961 . S
H219 C216 0.960 . S
C220 N221 1.342 . S
C220 C224 1.401 . S
C220 C225 1.499 . S
N221 Co204 1.989 . S
N221 C220 1.342 . S
N221 N222 1.388 . S
N222 Co205 1.993 . S
N222 N221 1.388 . S
N222 C223 1.346 . S
C223 N222 1.346 . S
C223 C224 1.396 . S
C223 C233 1.510 . S
C224 C220 1.401 . S
C224 C223 1.396 . S
C225 C220 1.499 . S
C225 H226 0.959 . S
C225 H227 0.960 . S
C225 H228 0.961 . S
H226 C225 0.959 . S
H227 C225 0.960 . S
H228 C225 0.961 . S
O229 Co204 1.967 . S
O229 C237 1.258 . S
O230 Co205 1.941 . S
O230 C237 1.266 . S
H231 C233 0.959 . S
H232 C233 0.961 . S
C233 C223 1.510 . S
C233 H231 0.959 . S
C233 H232 0.961 . S
C233 H234 0.960 . S
H234 C233 0.960 . S
H235 N215 0.862 . S
O236 Co204 1.920 . S
O236 C209 1.289 . S
C237 O229 1.258 . S
C237 O230 1.266 . S
Co238 O241 1.970 . S
Co238 N255 1.989 . S
Co238 O263 1.967 . S
Co238 O270 1.920 . S
Co239 O242 1.966 . S
Co239 N248 2.022 . S
Co239 N256 1.993 . S
Co239 O264 1.941 . S
C240 O241 1.270 . S
C240 O242 1.265 . S
O241 Co238 1.970 . S
O241 C240 1.270 . S
O242 Co239 1.966 . S
O242 C240 1.265 . S
C243 O244 1.235 1_655 S
C243 O270 1.289 . S
O244 C243 1.235 1_455 S
C245 C247 1.400 . S
C245 N248 1.351 . S
C245 C250 1.501 . S
C246 C247 1.387 . S
C246 N249 1.341 . S
C247 C245 1.400 . S
C247 C246 1.387 . S
N248 Co239 2.022 . S
N248 C245 1.351 . S
N248 N249 1.365 . S
N249 C246 1.341 . S
N249 N248 1.365 . S
N249 H269 0.862 . S
C250 C245 1.501 . S
C250 H251 0.961 . S
C250 H252 0.961 1_655 S
C250 H253 0.960 1_655 S
H251 C250 0.961 . S
H252 C250 0.961 1_455 S
H253 C250 0.960 1_455 S
C254 N255 1.342 . S
C254 C258 1.401 . S
C254 C259 1.499 . S
N255 Co238 1.989 . S
N255 C254 1.342 . S
N255 N256 1.388 . S
N256 Co239 1.993 . S
N256 N255 1.388 . S
N256 C257 1.346 . S
C257 N256 1.346 . S
C257 C258 1.396 . S
C257 C267 1.510 . S
C258 C254 1.401 . S
C258 C257 1.396 . S
C259 C254 1.499 . S
C259 H260 0.959 . S
C259 H261 0.960 . S
C259 H262 0.961 . S
H260 C259 0.959 . S
H261 C259 0.960 . S
H262 C259 0.961 . S
O263 Co238 1.967 . S
O263 C271 1.258 . S
O264 Co239 1.941 . S
O264 C271 1.266 . S
H265 C267 0.959 . S
H266 C267 0.961 . S
C267 C257 1.510 . S
C267 H265 0.959 . S
C267 H266 0.961 . S
C267 H268 0.960 . S
H268 C267 0.960 . S
H269 N249 0.862 . S
O270 Co238 1.920 . S
O270 C243 1.289 . S
C271 O263 1.258 . S
C271 O264 1.266 . S
Co272 O275 1.970 . S
Co272 N289 1.989 . S
Co272 O297 1.967 . S
Co272 O304 1.920 . S
Co273 O276 1.966 . S
Co273 N282 2.022 . S
Co273 N290 1.993 . S
Co273 O298 1.941 . S
C274 O275 1.249 . S
C274 O276 1.286 . S
O275 Co272 1.970 . S
O275 C274 1.249 . S
O276 Co273 1.966 . S
O276 C274 1.286 . S
C277 O278 1.235 1_565 S
C277 O304 1.289 . S
O278 C277 1.235 1_545 S
C279 C281 1.400 . S
C279 N282 1.351 . S
C279 C284 1.501 . S
C280 C281 1.387 . S
C280 N283 1.341 . S
C281 C279 1.400 . S
C281 C280 1.387 . S
N282 Co273 2.022 . S
N282 C279 1.351 . S
N282 N283 1.365 . S
N283 C280 1.341 . S
N283 N282 1.365 . S
N283 H303 0.862 . S
C284 C279 1.501 . S
C284 H285 0.961 . S
C284 H286 0.961 1_565 S
C284 H287 0.960 1_565 S
H285 C284 0.961 . S
H286 C284 0.961 1_545 S
H287 C284 0.960 1_545 S
C288 N289 1.342 . S
C288 C292 1.401 . S
C288 C293 1.499 . S
N289 Co272 1.989 . S
N289 C288 1.342 . S
N289 N290 1.388 . S
N290 Co273 1.993 . S
N290 N289 1.388 . S
N290 C291 1.346 . S
C291 N290 1.346 . S
C291 C292 1.396 . S
C291 C301 1.510 . S
C292 C288 1.401 . S
C292 C291 1.396 . S
C293 C288 1.499 . S
C293 H294 0.959 . S
C293 H295 0.960 . S
C293 H296 0.961 . S
H294 C293 0.959 . S
H295 C293 0.960 . S
H296 C293 0.961 . S
O297 Co272 1.967 . S
O297 C305 1.258 . S
O298 Co273 1.941 . S
O298 C305 1.266 . S
H299 C301 0.959 . S
H300 C301 0.961 . S
C301 C291 1.510 . S
C301 H299 0.959 . S
C301 H300 0.961 . S
C301 H302 0.960 . S
H302 C301 0.960 . S
H303 N283 0.862 . S
O304 Co272 1.920 . S
O304 C277 1.289 . S
C305 O297 1.258 . S
C305 O298 1.266 . S
Co306 O309 1.970 . S
Co306 N323 1.989 . S
Co306 O331 1.967 . S
Co306 O338 1.920 . S
Co307 O310 1.966 . S
Co307 N316 2.022 . S
Co307 N324 1.993 . S
Co307 O332 1.941 . S
C308 O309 1.258 . S
C308 O310 1.263 . S
O309 Co306 1.970 . S
O309 C308 1.258 . S
O310 Co307 1.966 . S
O310 C308 1.263 . S
C311 O312 1.235 . S
C311 O338 1.289 . S
O312 C311 1.235 . S
C313 C315 1.400 . S
C313 N316 1.351 . S
C313 C318 1.501 . S
C314 C315 1.387 . S
C314 N317 1.341 . S
C315 C313 1.400 . S
C315 C314 1.387 . S
N316 Co307 2.022 . S
N316 C313 1.351 . S
N316 N317 1.365 . S
N317 C314 1.341 . S
N317 N316 1.365 . S
N317 H337 0.862 . S
C318 C313 1.501 . S
C318 H319 0.961 . S
C318 H320 0.961 . S
C318 H321 0.960 . S
H319 C318 0.961 . S
H320 C318 0.961 . S
H321 C318 0.960 . S
C322 N323 1.342 . S
C322 C326 1.401 . S
C322 C327 1.499 . S
N323 Co306 1.989 . S
N323 C322 1.342 . S
N323 N324 1.388 . S
N324 Co307 1.993 . S
N324 N323 1.388 . S
N324 C325 1.346 . S
C325 N324 1.346 . S
C325 C326 1.396 . S
C325 C335 1.510 . S
C326 C322 1.401 . S
C326 C325 1.396 . S
C327 C322 1.499 . S
C327 H328 0.959 . S
C327 H329 0.960 . S
C327 H330 0.961 . S
H328 C327 0.959 . S
H329 C327 0.960 . S
H330 C327 0.961 . S
O331 Co306 1.967 . S
O331 C339 1.258 . S
O332 Co307 1.941 . S
O332 C339 1.266 . S
H333 C335 0.959 . S
H334 C335 0.961 . S
C335 C325 1.510 . S
C335 H333 0.959 . S
C335 H334 0.961 . S
C335 H336 0.960 . S
H336 C335 0.960 . S
H337 N317 0.862 . S
O338 Co306 1.920 . S
O338 C311 1.289 . S
C339 O331 1.258 . S
C339 O332 1.266 . S
Co340 O343 1.970 . S
Co340 N357 1.989 . S
Co340 O365 1.967 . S
Co340 O372 1.920 . S
Co341 O344 1.966 . S
Co341 N350 2.022 . S
Co341 N358 1.993 . S
Co341 O366 1.941 . S
C342 O343 1.270 . S
C342 O344 1.265 . S
O343 Co340 1.970 . S
O343 C342 1.270 . S
O344 Co341 1.966 . S
O344 C342 1.265 . S
C345 O346 1.235 1_455 S
C345 O372 1.289 . S
O346 C345 1.235 1_655 S
C347 C349 1.400 . S
C347 N350 1.351 . S
C347 C352 1.501 . S
C348 C349 1.387 . S
C348 N351 1.341 . S
C349 C347 1.400 . S
C349 C348 1.387 . S
N350 Co341 2.022 . S
N350 C347 1.351 . S
N350 N351 1.365 . S
N351 C348 1.341 . S
N351 N350 1.365 . S
N351 H371 0.862 . S
C352 C347 1.501 . S
C352 H353 0.961 . S
C352 H354 0.961 1_455 S
C352 H355 0.960 1_455 S
H353 C352 0.961 . S
H354 C352 0.961 1_655 S
H355 C352 0.960 1_655 S
C356 N357 1.342 . S
C356 C360 1.401 . S
C356 C361 1.499 . S
N357 Co340 1.989 . S
N357 C356 1.342 . S
N357 N358 1.388 . S
N358 Co341 1.993 . S
N358 N357 1.388 . S
N358 C359 1.346 . S
C359 N358 1.346 . S
C359 C360 1.396 . S
C359 C369 1.510 . S
C360 C356 1.401 . S
C360 C359 1.396 . S
C361 C356 1.499 . S
C361 H362 0.959 . S
C361 H363 0.960 . S
C361 H364 0.961 . S
H362 C361 0.959 . S
H363 C361 0.960 . S
H364 C361 0.961 . S
O365 Co340 1.967 . S
O365 C373 1.258 . S
O366 Co341 1.941 . S
O366 C373 1.266 . S
H367 C369 0.959 . S
H368 C369 0.961 . S
C369 C359 1.510 . S
C369 H367 0.959 . S
C369 H368 0.961 . S
C369 H370 0.960 . S
H370 C369 0.960 . S
H371 N351 0.862 . S
O372 Co340 1.920 . S
O372 C345 1.289 . S
C373 O365 1.258 . S
C373 O366 1.266 . S
Co374 O377 1.970 . S
Co374 N391 1.989 . S
Co374 O399 1.967 . S
Co374 O406 1.920 . S
Co375 O378 1.966 . S
Co375 N384 2.022 . S
Co375 N392 1.993 . S
Co375 O400 1.941 . S
C376 O377 1.249 . S
C376 O378 1.286 . S
O377 Co374 1.970 . S
O377 C376 1.249 . S
O378 Co375 1.966 . S
O378 C376 1.286 . S
C379 O380 1.235 1_545 S
C379 O406 1.289 . S
O380 C379 1.235 1_565 S
C381 C383 1.400 . S
C381 N384 1.351 . S
C381 C386 1.501 . S
C382 C383 1.387 . S
C382 N385 1.341 . S
C383 C381 1.400 . S
C383 C382 1.387 . S
N384 Co375 2.022 . S
N384 C381 1.351 . S
N384 N385 1.365 . S
N385 C382 1.341 . S
N385 N384 1.365 . S
N385 H405 0.862 . S
C386 C381 1.501 . S
C386 H387 0.961 . S
C386 H388 0.961 1_545 S
C386 H389 0.960 1_545 S
H387 C386 0.961 . S
H388 C386 0.961 1_565 S
H389 C386 0.960 1_565 S
C390 N391 1.342 . S
C390 C394 1.401 . S
C390 C395 1.499 . S
N391 Co374 1.989 . S
N391 C390 1.342 . S
N391 N392 1.388 . S
N392 Co375 1.993 . S
N392 N391 1.388 . S
N392 C393 1.346 . S
C393 N392 1.346 . S
C393 C394 1.396 . S
C393 C403 1.510 . S
C394 C390 1.401 . S
C394 C393 1.396 . S
C395 C390 1.499 . S
C395 H396 0.959 . S
C395 H397 0.960 . S
C395 H398 0.961 . S
H396 C395 0.959 . S
H397 C395 0.960 . S
H398 C395 0.961 . S
O399 Co374 1.967 . S
O399 C407 1.258 . S
O400 Co375 1.941 . S
O400 C407 1.266 . S
H401 C403 0.959 . S
H402 C403 0.961 . S
C403 C393 1.510 . S
C403 H401 0.959 . S
C403 H402 0.961 . S
C403 H404 0.960 . S
H404 C403 0.960 . S
H405 N385 0.862 . S
O406 Co374 1.920 . S
O406 C379 1.289 . S
C407 O399 1.258 . S
C407 O400 1.266 . S
H408 C414 0.930 . S
H409 C418 0.930 . S
H410 C423 0.929 . S
H411 C421 0.929 . S
H412 C416 0.929 . S
H413 C422 0.929 . S
C414 H408 0.930 . S
C414 C415 1.367 . S
C414 C422 1.378 . S
C415 C414 1.367 . S
C415 C423 1.433 . S
C416 H412 0.929 . S
C416 C418 1.378 . S
C416 C420 1.350 . S
C417 C420 1.463 . S
C417 C422 1.350 . S
C417 N425 1.427 . S
C418 H409 0.930 . S
C418 C416 1.378 . S
C418 C419 1.367 . S
C419 C418 1.367 . S
C419 C421 1.433 . S
C420 C416 1.350 . S
C420 C417 1.463 . S
C420 N424 1.427 . S
C421 H411 0.929 . S
C421 C419 1.433 . S
C421 N424 1.384 . S
C422 H413 0.929 . S
C422 C414 1.378 . S
C422 C417 1.350 . S
C423 H410 0.929 . S
C423 C415 1.433 . S
C423 N425 1.384 . S
N424 C420 1.427 . S
N424 C421 1.384 . S
N425 C417 1.427 . S
N425 C423 1.384 . S
H426 C432 0.930 . S
H427 C436 0.930 . S
H428 C441 0.929 . S
H429 C439 0.929 . S
H430 C434 0.929 . S
H431 C440 0.929 . S
C432 H426 0.930 . S
C432 C433 1.367 . S
C432 C440 1.378 . S
C433 C432 1.367 . S
C433 C441 1.433 . S
C434 H430 0.929 . S
C434 C436 1.378 . S
C434 C438 1.350 . S
C435 C438 1.463 1_455 S
C435 C440 1.350 . S
C435 N443 1.427 . S
C436 H427 0.930 . S
C436 C434 1.378 . S
C436 C437 1.367 . S
C437 C436 1.367 . S
C437 C439 1.433 . S
C438 C434 1.350 . S
C438 C435 1.463 1_655 S
C438 N442 1.427 . S
C439 H429 0.929 . S
C439 C437 1.433 . S
C439 N442 1.384 . S
C440 H431 0.929 . S
C440 C432 1.378 . S
C440 C435 1.350 . S
C441 H428 0.929 . S
C441 C433 1.433 . S
C441 N443 1.384 . S
N442 C438 1.427 . S
N442 C439 1.384 . S
N443 C435 1.427 . S
N443 C441 1.384 . S
H444 C450 0.930 . S
H445 C454 0.930 . S
H446 C459 0.929 . S
H447 C457 0.929 . S
H448 C452 0.929 . S
H449 C458 0.929 . S
C450 H444 0.930 . S
C450 C451 1.367 . S
C450 C458 1.378 . S
C451 C450 1.367 . S
C451 C459 1.433 . S
C452 H448 0.929 . S
C452 C454 1.378 . S
C452 C456 1.350 . S
C453 C456 1.463 1_545 S
C453 C458 1.350 . S
C453 N461 1.427 . S
C454 H445 0.930 . S
C454 C452 1.378 . S
C454 C455 1.367 . S
C455 C454 1.367 . S
C455 C457 1.433 . S
C456 C452 1.350 . S
C456 C453 1.463 1_565 S
C456 N460 1.427 . S
C457 H447 0.929 . S
C457 C455 1.433 . S
C457 N460 1.384 . S
C458 H449 0.929 . S
C458 C450 1.378 . S
C458 C453 1.350 . S
C459 H446 0.929 . S
C459 C451 1.433 . S
C459 N461 1.384 . S
N460 C456 1.427 . S
N460 C457 1.384 . S
N461 C453 1.427 . S
N461 C459 1.384 . S
H462 C468 0.930 . S
H463 C472 0.930 . S
H464 C477 0.929 . S
H465 C475 0.929 . S
H466 C470 0.929 . S
H467 C476 0.929 . S
C468 H462 0.930 . S
C468 C469 1.367 . S
C468 C476 1.378 . S
C469 C468 1.367 . S
C469 C477 1.433 . S
C470 H466 0.929 . S
C470 C472 1.378 . S
C470 C474 1.350 . S
C471 C474 1.463 . S
C471 C476 1.350 . S
C471 N479 1.427 . S
C472 H463 0.930 . S
C472 C470 1.378 . S
C472 C473 1.367 . S
C473 C472 1.367 . S
C473 C475 1.433 . S
C474 C470 1.350 . S
C474 C471 1.463 . S
C474 N478 1.427 . S
C475 H465 0.929 . S
C475 C473 1.433 . S
C475 N478 1.384 . S
C476 H467 0.929 . S
C476 C468 1.378 . S
C476 C471 1.350 . S
C477 H464 0.929 . S
C477 C469 1.433 . S
C477 N479 1.384 . S
N478 C474 1.427 . S
N478 C475 1.384 . S
N479 C471 1.427 . S
N479 C477 1.384 . S
H480 C486 0.932 . S
H481 C490 0.932 . S
H482 C495 0.929 . S
H483 C493 0.929 . S
H484 C488 0.929 . S
H485 C494 0.929 . S
C486 H480 0.932 . S
C486 C487 1.349 1_455 S
C486 C494 1.394 . S
C487 C486 1.349 1_655 S
C487 C495 1.433 . S
C488 H484 0.929 . S
C488 C490 1.394 . S
C488 C492 1.350 1_655 S
C489 C492 1.463 1_655 S
C489 C494 1.350 1_655 S
C489 N497 1.427 . S
C490 H481 0.932 . S
C490 C488 1.394 . S
C490 C491 1.349 1_655 S
C491 C490 1.349 1_455 S
C491 C493 1.433 . S
C492 C488 1.350 1_455 S
C492 C489 1.463 1_455 S
C492 N496 1.427 . S
C493 H483 0.929 . S
C493 C491 1.433 . S
C493 N496 1.384 . S
C494 H485 0.929 . S
C494 C486 1.394 . S
C494 C489 1.350 1_455 S
C495 H482 0.929 . S
C495 C487 1.433 . S
C495 N497 1.384 . S
N496 C492 1.427 . S
N496 C493 1.384 . S
N497 C489 1.427 . S
N497 C495 1.384 . S
H498 C504 0.930 . S
H499 C508 0.930 . S
H500 C513 0.929 . S
H501 C511 0.929 . S
H502 C506 0.929 . S
H503 C512 0.929 . S
C504 H498 0.930 . S
C504 C505 1.367 1_545 S
C504 C512 1.378 . S
C505 C504 1.367 1_565 S
C505 C513 1.433 . S
C506 H502 0.929 . S
C506 C508 1.378 . S
C506 C510 1.350 1_565 S
C507 C510 1.463 1_565 S
C507 C512 1.350 1_565 S
C507 N515 1.427 . S
C508 H499 0.930 . S
C508 C506 1.378 . S
C508 C509 1.367 1_565 S
C509 C508 1.367 1_545 S
C509 C511 1.433 . S
C510 C506 1.350 1_545 S
C510 C507 1.463 1_545 S
C510 N514 1.427 . S
C511 H501 0.929 . S
C511 C509 1.433 . S
C511 N514 1.384 . S
C512 H503 0.929 . S
C512 C504 1.378 . S
C512 C507 1.350 1_545 S
C513 H500 0.929 . S
C513 C505 1.433 . S
C513 N515 1.384 . S
N514 C510 1.427 . S
N514 C511 1.384 . S
N515 C507 1.427 . S
N515 C513 1.384 . S
H516 C522 0.930 . S
H517 C526 0.930 . S
H518 C531 0.929 . S
H519 C529 0.929 . S
H520 C524 0.929 . S
H521 C530 0.929 . S
C522 H516 0.930 . S
C522 C523 1.367 . S
C522 C530 1.378 . S
C523 C522 1.367 . S
C523 C531 1.433 . S
C524 H520 0.929 . S
C524 C526 1.378 . S
C524 C528 1.350 . S
C525 C528 1.463 . S
C525 C530 1.350 . S
C525 N533 1.427 . S
C526 H517 0.930 . S
C526 C524 1.378 . S
C526 C527 1.367 . S
C527 C526 1.367 . S
C527 C529 1.433 . S
C528 C524 1.350 . S
C528 C525 1.463 . S
C528 N532 1.427 . S
C529 H519 0.929 . S
C529 C527 1.433 . S
C529 N532 1.384 . S
C530 H521 0.929 . S
C530 C522 1.378 . S
C530 C525 1.350 . S
C531 H518 0.929 . S
C531 C523 1.433 . S
C531 N533 1.384 . S
N532 C528 1.427 . S
N532 C529 1.384 . S
N533 C525 1.427 . S
N533 C531 1.384 . S
H534 C540 0.930 . S
H535 C544 0.930 . S
H536 C549 0.929 1_455 S
H537 C547 0.929 1_655 S
H538 C542 0.929 . S
H539 C548 0.929 . S
C540 H534 0.930 . S
C540 C541 1.367 . S
C540 C548 1.378 . S
C541 C540 1.367 . S
C541 C549 1.433 . S
C542 H538 0.929 . S
C542 C544 1.378 . S
C542 C546 1.350 . S
C543 C546 1.463 1_655 S
C543 C548 1.350 . S
C543 N551 1.427 1_655 S
C544 H535 0.930 . S
C544 C542 1.378 . S
C544 C545 1.367 . S
C545 C544 1.367 . S
C545 C547 1.433 . S
C546 C542 1.350 . S
C546 C543 1.463 1_455 S
C546 N550 1.427 1_455 S
C547 H537 0.929 1_455 S
C547 C545 1.433 . S
C547 N550 1.384 1_455 S
C548 H539 0.929 . S
C548 C540 1.378 . S
C548 C543 1.350 . S
C549 H536 0.929 1_655 S
C549 C541 1.433 . S
C549 N551 1.384 1_655 S
N550 C546 1.427 1_655 S
N550 C547 1.384 1_655 S
N551 C543 1.427 1_455 S
N551 C549 1.384 1_455 S
H552 C558 0.930 . S
H553 C562 0.930 . S
H554 C567 0.929 1_565 S
H555 C565 0.929 1_545 S
H556 C560 0.929 . S
H557 C566 0.929 . S
C558 H552 0.930 . S
C558 C559 1.367 . S
C558 C566 1.378 . S
C559 C558 1.367 . S
C559 C567 1.433 . S
C560 H556 0.929 . S
C560 C562 1.378 . S
C560 C564 1.350 . S
C561 C564 1.463 1_544 S
C561 C566 1.350 . S
C561 N569 1.427 1_545 S
C562 H553 0.930 . S
C562 C560 1.378 . S
C562 C563 1.367 . S
C563 C562 1.367 . S
C563 C565 1.433 . S
C564 C560 1.350 . S
C564 C561 1.463 1_566 S
C564 N568 1.427 1_565 S
C565 H555 0.929 1_565 S
C565 C563 1.433 . S
C565 N568 1.384 1_565 S
C566 H557 0.929 . S
C566 C558 1.378 . S
C566 C561 1.350 . S
C567 H554 0.929 1_545 S
C567 C559 1.433 . S
C567 N569 1.384 1_545 S
N568 C564 1.427 1_545 S
N568 C565 1.384 1_545 S
N569 C561 1.427 1_565 S
N569 C567 1.384 1_565 S
H570 C576 0.930 . S
H571 C580 0.930 . S
H572 C585 0.929 . S
H573 C583 0.929 . S
H574 C578 0.929 . S
H575 C584 0.929 . S
C576 H570 0.930 . S
C576 C577 1.367 . S
C576 C584 1.378 . S
C577 C576 1.367 . S
C577 C585 1.433 . S
C578 H574 0.929 . S
C578 C580 1.378 . S
C578 C582 1.350 . S
C579 C582 1.463 . S
C579 C584 1.350 . S
C579 N587 1.427 . S
C580 H571 0.930 . S
C580 C578 1.378 . S
C580 C581 1.367 . S
C581 C580 1.367 . S
C581 C583 1.433 . S
C582 C578 1.350 . S
C582 C579 1.463 . S
C582 N586 1.427 . S
C583 H573 0.929 . S
C583 C581 1.433 . S
C583 N586 1.384 . S
C584 H575 0.929 . S
C584 C576 1.378 . S
C584 C579 1.350 . S
C585 H572 0.929 . S
C585 C577 1.433 . S
C585 N587 1.384 . S
N586 C582 1.427 . S
N586 C583 1.384 . S
N587 C579 1.427 . S
N587 C585 1.384 . S
H588 C594 0.930 . S
H589 C598 0.930 . S
H590 C603 0.929 . S
H591 C601 0.929 . S
H592 C596 0.929 . S
H593 C602 0.929 . S
C594 H588 0.930 . S
C594 C595 1.367 . S
C594 C602 1.378 . S
C595 C594 1.367 . S
C595 C603 1.433 . S
C596 H592 0.929 . S
C596 C598 1.378 . S
C596 C600 1.350 . S
C597 C600 1.463 1_455 S
C597 C602 1.350 . S
C597 N605 1.427 . S
C598 H589 0.930 . S
C598 C596 1.378 . S
C598 C599 1.367 . S
C599 C598 1.367 . S
C599 C601 1.433 . S
C600 C596 1.350 . S
C600 C597 1.463 1_655 S
C600 N604 1.427 . S
C601 H591 0.929 . S
C601 C599 1.433 . S
C601 N604 1.384 . S
C602 H593 0.929 . S
C602 C594 1.378 . S
C602 C597 1.350 . S
C603 H590 0.929 . S
C603 C595 1.433 . S
C603 N605 1.384 . S
N604 C600 1.427 . S
N604 C601 1.384 . S
N605 C597 1.427 . S
N605 C603 1.384 . S
H606 C612 0.930 . S
H607 C616 0.930 . S
H608 C621 0.929 1_565 S
H609 C619 0.929 1_545 S
H610 C614 0.929 . S
H611 C620 0.929 . S
C612 H606 0.930 . S
C612 C613 1.367 . S
C612 C620 1.378 . S
C613 C612 1.367 . S
C613 C621 1.433 . S
C614 H610 0.929 . S
C614 C616 1.378 . S
C614 C618 1.350 . S
C615 C618 1.463 1_546 S
C615 C620 1.350 . S
C615 N623 1.427 1_545 S
C616 H607 0.930 . S
C616 C614 1.378 . S
C616 C617 1.367 . S
C617 C616 1.367 . S
C617 C619 1.433 . S
C618 C614 1.350 . S
C618 C615 1.463 1_564 S
C618 N622 1.427 1_565 S
C619 H609 0.929 1_565 S
C619 C617 1.433 . S
C619 N622 1.384 1_565 S
C620 H611 0.929 . S
C620 C612 1.378 . S
C620 C615 1.350 . S
C621 H608 0.929 1_545 S
C621 C613 1.433 . S
C621 N623 1.384 1_545 S
N622 C618 1.427 1_545 S
N622 C619 1.384 1_545 S
N623 C615 1.427 1_565 S
N623 C621 1.384 1_565 S
H624 C630 0.930 . S
H625 C634 0.930 . S
H626 C639 0.929 . S
H627 C637 0.929 . S
H628 C632 0.929 . S
H629 C638 0.929 . S
C630 H624 0.930 . S
C630 C631 1.367 . S
C630 C638 1.378 . S
C631 C630 1.367 . S
C631 C639 1.433 . S
C632 H628 0.929 . S
C632 C634 1.378 . S
C632 C636 1.350 . S
C633 C636 1.463 1_445 S
C633 C638 1.350 . S
C633 N641 1.427 . S
C634 H625 0.930 . S
C634 C632 1.378 . S
C634 C635 1.367 . S
C635 C634 1.367 . S
C635 C637 1.433 . S
C636 C632 1.350 . S
C636 C633 1.463 1_665 S
C636 N640 1.427 . S
C637 H627 0.929 . S
C637 C635 1.433 . S
C637 N640 1.384 . S
C638 H629 0.929 . S
C638 C630 1.378 . S
C638 C633 1.350 . S
C639 H626 0.929 . S
C639 C631 1.433 . S
C639 N641 1.384 . S
N640 C636 1.427 . S
N640 C637 1.384 . S
N641 C633 1.427 . S
N641 C639 1.384 . S
H642 C648 0.930 . S
H643 C652 0.930 . S
H644 C657 0.929 . S
H645 C655 0.929 . S
H646 C650 0.929 1_545 S
H647 C656 0.929 1_565 S
C648 H642 0.930 . S
C648 C649 1.367 . S
C648 C656 1.378 . S
C649 C648 1.367 . S
C649 C657 1.433 1_655 S
C650 H646 0.929 1_565 S
C650 C652 1.378 . S
C650 C654 1.350 . S
C651 C654 1.463 1_645 S
C651 C656 1.350 . S
C651 N659 1.427 1_655 S
C652 H643 0.930 . S
C652 C650 1.378 . S
C652 C653 1.367 . S
C653 C652 1.367 . S
C653 C655 1.433 1_455 S
C654 C650 1.350 . S
C654 C651 1.463 1_465 S
C654 N658 1.427 1_455 S
C655 H645 0.929 . S
C655 C653 1.433 1_655 S
C655 N658 1.384 . S
C656 H647 0.929 1_545 S
C656 C648 1.378 . S
C656 C651 1.350 . S
C657 H644 0.929 . S
C657 C649 1.433 1_455 S
C657 N659 1.384 . S
N658 C654 1.427 1_655 S
N658 C655 1.384 . S
N659 C651 1.427 1_455 S
N659 C657 1.384 . S
H660 C666 0.930 . S
H661 C670 0.930 . S
H662 C675 0.921 1_565 S
H663 C673 0.921 1_545 S
H664 C668 0.929 . S
H665 C674 0.929 . S
C666 H660 0.930 . S
C666 C667 1.367 . S
C666 C674 1.378 . S
C667 C666 1.367 . S
C667 C675 1.437 . S
C668 H664 0.929 . S
C668 C670 1.378 . S
C668 C672 1.350 . S
C669 C672 1.463 1_445 S
C669 C674 1.350 . S
C669 N677 1.427 1_545 S
C670 H661 0.930 . S
C670 C668 1.378 . S
C670 C671 1.367 . S
C671 C670 1.367 . S
C671 C673 1.437 . S
C672 C668 1.350 . S
C672 C669 1.463 1_665 S
C672 N676 1.427 1_565 S
C673 H663 0.921 1_565 S
C673 C671 1.437 . S
C673 N676 1.388 1_565 S
C674 H665 0.929 . S
C674 C666 1.378 . S
C674 C669 1.350 . S
C675 H662 0.921 1_545 S
C675 C667 1.437 . S
C675 N677 1.388 1_545 S
N676 C672 1.427 1_545 S
N676 C673 1.388 1_545 S
N677 C669 1.427 1_565 S
N677 C675 1.388 1_565 S
H678 C684 0.930 . S
H679 C688 0.930 . S
H680 C693 0.929 . S
H681 C691 0.929 . S
H682 C686 0.929 . S
H683 C692 0.929 . S
C684 H678 0.930 . S
C684 C685 1.367 . S
C684 C692 1.378 . S
C685 C684 1.367 . S
C685 C693 1.433 . S
C686 H682 0.929 . S
C686 C688 1.378 . S
C686 C690 1.350 . S
C687 C690 1.463 1_665 S
C687 C692 1.350 . S
C687 N695 1.427 . S
C688 H679 0.930 . S
C688 C686 1.378 . S
C688 C689 1.367 . S
C689 C688 1.367 . S
C689 C691 1.433 . S
C690 C686 1.350 . S
C690 C687 1.463 1_445 S
C690 N694 1.427 . S
C691 H681 0.929 . S
C691 C689 1.433 . S
C691 N694 1.384 . S
C692 H683 0.929 . S
C692 C684 1.378 . S
C692 C687 1.350 . S
C693 H680 0.929 . S
C693 C685 1.433 . S
C693 N695 1.384 . S
N694 C690 1.427 . S
N694 C691 1.384 . S
N695 C687 1.427 . S
N695 C693 1.384 . S
H696 C702 0.930 . S
H697 C706 0.930 . S
H698 C711 0.929 . S
H699 C709 0.929 . S
H700 C704 0.929 . S
H701 C710 0.929 . S
C702 H696 0.930 . S
C702 C703 1.367 1_455 S
C702 C710 1.378 . S
C703 C702 1.367 1_655 S
C703 C711 1.433 . S
C704 H700 0.929 . S
C704 C706 1.378 . S
C704 C708 1.350 1_655 S
C705 C708 1.463 1_665 S
C705 C710 1.350 1_655 S
C705 N713 1.427 . S
C706 H697 0.930 . S
C706 C704 1.378 . S
C706 C707 1.367 1_655 S
C707 C706 1.367 1_455 S
C707 C709 1.433 . S
C708 C704 1.350 1_455 S
C708 C705 1.463 1_445 S
C708 N712 1.427 . S
C709 H699 0.929 . S
C709 C707 1.433 . S
C709 N712 1.384 . S
C710 H701 0.929 . S
C710 C702 1.378 . S
C710 C705 1.350 1_455 S
C711 H698 0.929 . S
C711 C703 1.433 . S
C711 N713 1.384 . S
N712 C708 1.427 . S
N712 C709 1.384 . S
N713 C705 1.427 . S
N713 C711 1.384 . S
H714 C720 0.930 . S
H715 C724 0.930 . S
H716 C729 0.929 . S
H717 C727 0.929 . S
H718 C722 0.929 1_655 S
H719 C728 0.929 1_455 S
C720 H714 0.930 . S
C720 C721 1.367 . S
C720 C728 1.378 . S
C721 C720 1.367 . S
C721 C729 1.433 1_545 S
C722 H718 0.929 1_455 S
C722 C724 1.378 . S
C722 C726 1.350 . S
C723 C726 1.463 1_645 S
C723 C728 1.350 . S
C723 N731 1.427 1_545 S
C724 H715 0.930 . S
C724 C722 1.378 . S
C724 C725 1.367 . S
C725 C724 1.367 . S
C725 C727 1.433 1_565 S
C726 C722 1.350 . S
C726 C723 1.463 1_465 S
C726 N730 1.427 1_565 S
C727 H717 0.929 . S
C727 C725 1.433 1_545 S
C727 N730 1.384 . S
C728 H719 0.929 1_655 S
C728 C720 1.378 . S
C728 C723 1.350 . S
C729 H716 0.929 . S
C729 C721 1.433 1_565 S
C729 N731 1.384 . S
N730 C726 1.427 1_545 S
N730 C727 1.384 . S
N731 C723 1.427 1_565 S
N731 C729 1.384 . S
H732 C738 0.930 . S
H733 C742 0.930 . S
H734 C747 0.929 . S
H735 C745 0.929 . S
H736 C740 0.929 1_655 S
H737 C746 0.929 1_455 S
C738 H732 0.930 . S
C738 C739 1.367 . S
C738 C746 1.378 . S
C739 C738 1.367 . S
C739 C747 1.433 . S
C740 H736 0.929 1_455 S
C740 C742 1.378 . S
C740 C744 1.350 . S
C741 C744 1.463 1_655 S
C741 C746 1.350 . S
C741 N749 1.427 . S
C742 H733 0.930 . S
C742 C740 1.378 . S
C742 C743 1.367 . S
C743 C742 1.367 . S
C743 C745 1.433 . S
C744 C740 1.350 . S
C744 C741 1.463 1_455 S
C744 N748 1.427 . S
C745 H735 0.929 . S
C745 C743 1.433 . S
C745 N748 1.384 . S
C746 H737 0.929 1_655 S
C746 C738 1.378 . S
C746 C741 1.350 . S
C747 H734 0.929 . S
C747 C739 1.433 . S
C747 N749 1.384 . S
N748 C744 1.427 . S
N748 C745 1.384 . S
N749 C741 1.427 . S
N749 C747 1.384 . S
H750 C756 0.930 . S
H751 C760 0.930 . S
H752 C765 0.929 . S
H753 C763 0.929 . S
H754 C758 0.929 1_545 S
H755 C764 0.929 1_565 S
C756 H750 0.930 . S
C756 C757 1.367 . S
C756 C764 1.378 . S
C757 C756 1.367 . S
C757 C765 1.433 . S
C758 H754 0.929 1_565 S
C758 C760 1.378 . S
C758 C762 1.350 . S
C759 C762 1.463 1_545 S
C759 C764 1.350 . S
C759 N767 1.427 . S
C760 H751 0.930 . S
C760 C758 1.378 . S
C760 C761 1.367 . S
C761 C760 1.367 . S
C761 C763 1.433 . S
C762 C758 1.350 . S
C762 C759 1.463 1_565 S
C762 N766 1.427 . S
C763 H753 0.929 . S
C763 C761 1.433 . S
C763 N766 1.384 . S
C764 H755 0.929 1_545 S
C764 C756 1.378 . S
C764 C759 1.350 . S
C765 H752 0.929 . S
C765 C757 1.433 . S
C765 N767 1.384 . S
N766 C762 1.427 . S
N766 C763 1.384 . S
N767 C759 1.427 . S
N767 C765 1.384 . S
H768 C774 0.930 . S
H769 C778 0.930 . S
H770 C783 0.929 . S
H771 C781 0.929 . S
H772 C776 0.929 . S
H773 C782 0.929 . S
C774 H768 0.930 . S
C774 C775 1.367 . S
C774 C782 1.378 . S
C775 C774 1.367 . S
C775 C783 1.433 . S
C776 H772 0.929 . S
C776 C778 1.378 . S
C776 C780 1.350 . S
C777 C780 1.463 . S
C777 C782 1.350 . S
C777 N785 1.427 . S
C778 H769 0.930 . S
C778 C776 1.378 . S
C778 C779 1.367 . S
C779 C778 1.367 . S
C779 C781 1.433 . S
C780 C776 1.350 . S
C780 C777 1.463 . S
C780 N784 1.427 . S
C781 H771 0.929 . S
C781 C779 1.433 . S
C781 N784 1.384 . S
C782 H773 0.929 . S
C782 C774 1.378 . S
C782 C777 1.350 . S
C783 H770 0.929 . S
C783 C775 1.433 . S
C783 N785 1.384 . S
N784 C780 1.427 . S
N784 C781 1.384 . S
N785 C777 1.427 . S
N785 C783 1.384 . S
H786 C792 0.930 . S
H787 C796 0.930 . S
H788 C801 0.929 . S
H789 C799 0.929 . S
H790 C794 0.929 . S
H791 C800 0.929 . S
C792 H786 0.930 . S
C792 C793 1.367 . S
C792 C800 1.378 . S
C793 C792 1.367 . S
C793 C801 1.433 . S
C794 H790 0.929 . S
C794 C796 1.378 . S
C794 C798 1.350 . S
C795 C798 1.463 1_455 S
C795 C800 1.350 . S
C795 N803 1.427 . S
C796 H787 0.930 . S
C796 C794 1.378 . S
C796 C797 1.367 . S
C797 C796 1.367 . S
C797 C799 1.433 . S
C798 C794 1.350 . S
C798 C795 1.463 1_655 S
C798 N802 1.427 . S
C799 H789 0.929 . S
C799 C797 1.433 . S
C799 N802 1.384 . S
C800 H791 0.929 . S
C800 C792 1.378 . S
C800 C795 1.350 . S
C801 H788 0.929 . S
C801 C793 1.433 . S
C801 N803 1.384 . S
N802 C798 1.427 . S
N802 C799 1.384 . S
N803 C795 1.427 . S
N803 C801 1.384 . S
H804 C810 0.930 . S
H805 C814 0.930 . S
H806 C819 0.929 . S
H807 C817 0.929 . S
H808 C812 0.929 . S
H809 C818 0.929 . S
C810 H804 0.930 . S
C810 C811 1.367 . S
C810 C818 1.378 . S
C811 C810 1.367 . S
C811 C819 1.433 . S
C812 H808 0.929 . S
C812 C814 1.378 . S
C812 C816 1.350 . S
C813 C816 1.463 1_565 S
C813 C818 1.350 . S
C813 N821 1.427 . S
C814 H805 0.930 . S
C814 C812 1.378 . S
C814 C815 1.367 . S
C815 C814 1.367 . S
C815 C817 1.433 . S
C816 C812 1.350 . S
C816 C813 1.463 1_545 S
C816 N820 1.427 . S
C817 H807 0.929 . S
C817 C815 1.433 . S
C817 N820 1.384 . S
C818 H809 0.929 . S
C818 C810 1.378 . S
C818 C813 1.350 . S
C819 H806 0.929 . S
C819 C811 1.433 . S
C819 N821 1.384 . S
N820 C816 1.427 . S
N820 C817 1.384 . S
N821 C813 1.427 . S
N821 C819 1.384 . S
H822 C828 0.930 . S
H823 C832 0.930 . S
H824 C837 0.929 . S
H825 C835 0.929 . S
H826 C830 0.929 . S
H827 C836 0.929 . S
C828 H822 0.930 . S
C828 C829 1.367 . S
C828 C836 1.378 . S
C829 C828 1.367 . S
C829 C837 1.433 . S
C830 H826 0.929 . S
C830 C832 1.378 . S
C830 C834 1.350 . S
C831 C834 1.463 . S
C831 C836 1.350 . S
C831 N839 1.427 . S
C832 H823 0.930 . S
C832 C830 1.378 . S
C832 C833 1.367 . S
C833 C832 1.367 . S
C833 C835 1.433 . S
C834 C830 1.350 . S
C834 C831 1.463 . S
C834 N838 1.427 . S
C835 H825 0.929 . S
C835 C833 1.433 . S
C835 N838 1.384 . S
C836 H827 0.929 . S
C836 C828 1.378 . S
C836 C831 1.350 . S
C837 H824 0.929 . S
C837 C829 1.433 . S
C837 N839 1.384 . S
N838 C834 1.427 . S
N838 C835 1.384 . S
N839 C831 1.427 . S
N839 C837 1.384 . S
H840 C846 0.930 . S
H841 C850 0.930 1_565 S
H842 C855 0.929 . S
H843 C853 0.929 . S
H844 C848 0.929 . S
H845 C854 0.929 . S
C846 H840 0.930 . S
C846 C847 1.367 . S
C846 C854 1.378 . S
C847 C846 1.367 . S
C847 C855 1.433 . S
C848 H844 0.929 . S
C848 C850 1.378 . S
C848 C852 1.350 . S
C849 C852 1.463 . S
C849 C854 1.350 . S
C849 N857 1.427 . S
C850 H841 0.930 1_545 S
C850 C848 1.378 . S
C850 C851 1.367 . S
C851 C850 1.367 . S
C851 C853 1.433 . S
C852 C848 1.350 . S
C852 C849 1.463 . S
C852 N856 1.427 . S
C853 H843 0.929 . S
C853 C851 1.433 . S
C853 N856 1.384 . S
C854 H845 0.929 . S
C854 C846 1.378 . S
C854 C849 1.350 . S
C855 H842 0.929 . S
C855 C847 1.433 . S
C855 N857 1.384 . S
N856 C852 1.427 . S
N856 C853 1.384 . S
N857 C849 1.427 . S
N857 C855 1.384 . S
H858 C864 0.930 . S
H859 C868 0.930 . S
H860 C873 0.929 . S
H861 C871 0.929 . S
H862 C866 0.929 . S
H863 C872 0.929 . S
C864 H858 0.930 . S
C864 C865 1.367 . S
C864 C872 1.378 . S
C865 C864 1.367 . S
C865 C873 1.433 . S
C866 H862 0.929 . S
C866 C868 1.378 . S
C866 C870 1.350 . S
C867 C870 1.463 . S
C867 C872 1.350 . S
C867 N875 1.427 . S
C868 H859 0.930 . S
C868 C866 1.378 . S
C868 C869 1.367 . S
C869 C868 1.367 . S
C869 C871 1.433 . S
C870 C866 1.350 . S
C870 C867 1.463 . S
C870 N874 1.427 . S
C871 H861 0.929 . S
C871 C869 1.433 . S
C871 N874 1.384 . S
C872 H863 0.929 . S
C872 C864 1.378 . S
C872 C867 1.350 . S
C873 H860 0.929 . S
C873 C865 1.433 . S
C873 N875 1.384 . S
N874 C870 1.427 . S
N874 C871 1.384 . S
N875 C867 1.427 . S
N875 C873 1.384 . S
H876 C882 0.930 . S
H877 C886 0.930 . S
H878 C891 0.929 . S
H879 C889 0.929 1_565 S
H880 C884 0.929 . S
H881 C890 0.929 . S
C882 H876 0.930 . S
C882 C883 1.367 . S
C882 C890 1.378 . S
C883 C882 1.367 . S
C883 C891 1.433 . S
C884 H880 0.929 . S
C884 C886 1.378 . S
C884 C888 1.350 . S
C885 C888 1.463 . S
C885 C890 1.350 . S
C885 N893 1.427 . S
C886 H877 0.930 . S
C886 C884 1.378 . S
C886 C887 1.367 . S
C887 C886 1.367 . S
C887 C889 1.433 . S
C888 C884 1.350 . S
C888 C885 1.463 . S
C888 N892 1.427 . S
C889 H879 0.929 1_545 S
C889 C887 1.433 . S
C889 N892 1.384 . S
C890 H881 0.929 . S
C890 C882 1.378 . S
C890 C885 1.350 . S
C891 H878 0.929 . S
C891 C883 1.433 . S
C891 N893 1.384 . S
N892 C888 1.427 . S
N892 C889 1.384 . S
N893 C885 1.427 . S
N893 C891 1.384 . S
H894 C900 0.930 . S
H895 C904 0.922 1_545 S
H896 C909 0.929 . S
H897 C907 0.929 . S
H898 C902 0.929 . S
H899 C908 0.929 . S
C900 H894 0.930 . S
C900 C901 1.367 . S
C900 C908 1.378 . S
C901 C900 1.367 . S
C901 C909 1.433 . S
C902 H898 0.929 . S
C902 C904 1.378 . S
C902 C906 1.350 . S
C903 C906 1.463 . S
C903 C908 1.350 . S
C903 N911 1.427 . S
C904 H895 0.922 1_565 S
C904 C902 1.378 . S
C904 C905 1.367 . S
C905 C904 1.367 . S
C905 C907 1.433 . S
C906 C902 1.350 . S
C906 C903 1.463 . S
C906 N910 1.427 . S
C907 H897 0.929 . S
C907 C905 1.433 . S
C907 N910 1.384 . S
C908 H899 0.929 . S
C908 C900 1.378 . S
C908 C903 1.350 . S
C909 H896 0.929 . S
C909 C901 1.433 . S
C909 N911 1.384 . S
N910 C906 1.427 . S
N910 C907 1.384 . S
N911 C903 1.427 . S
N911 C909 1.384 . S
H912 C918 0.930 . S
H913 C922 0.930 1_455 S
H914 C927 0.929 . S
H915 C925 0.929 . S
H916 C920 0.929 . S
H917 C926 0.929 . S
C918 H912 0.930 . S
C918 C919 1.367 . S
C918 C926 1.378 . S
C919 C918 1.367 . S
C919 C927 1.433 . S
C920 H916 0.929 . S
C920 C922 1.378 . S
C920 C924 1.350 . S
C921 C924 1.463 . S
C921 C926 1.350 . S
C921 N929 1.427 . S
C922 H913 0.930 1_655 S
C922 C920 1.378 . S
C922 C923 1.367 . S
C923 C922 1.367 . S
C923 C925 1.433 . S
C924 C920 1.350 . S
C924 C921 1.463 . S
C924 N928 1.427 . S
C925 H915 0.929 . S
C925 C923 1.433 . S
C925 N928 1.384 . S
C926 H917 0.929 . S
C926 C918 1.378 . S
C926 C921 1.350 . S
C927 H914 0.929 . S
C927 C919 1.433 . S
C927 N929 1.384 . S
N928 C924 1.427 . S
N928 C925 1.384 . S
N929 C921 1.427 . S
N929 C927 1.384 . S
H930 C936 0.930 . S
H931 C940 0.930 . S
H932 C945 0.929 1_545 S
H933 C943 0.929 . S
H934 C938 0.929 . S
H935 C944 0.929 . S
C936 H930 0.930 . S
C936 C937 1.367 . S
C936 C944 1.378 . S
C937 C936 1.367 . S
C937 C945 1.433 . S
C938 H934 0.929 . S
C938 C940 1.378 . S
C938 C942 1.350 . S
C939 C942 1.463 . S
C939 C944 1.350 . S
C939 N947 1.427 . S
C940 H931 0.930 . S
C940 C938 1.378 . S
C940 C941 1.367 . S
C941 C940 1.367 . S
C941 C943 1.433 . S
C942 C938 1.350 . S
C942 C939 1.463 . S
C942 N946 1.427 . S
C943 H933 0.929 . S
C943 C941 1.433 . S
C943 N946 1.384 . S
C944 H935 0.929 . S
C944 C936 1.378 . S
C944 C939 1.350 . S
C945 H932 0.929 1_565 S
C945 C937 1.433 . S
C945 N947 1.384 . S
N946 C942 1.427 . S
N946 C943 1.384 . S
N947 C939 1.427 . S
N947 C945 1.384 . S
C415 C111 1.482 . S
C419 C9 1.481 . S
C433 C145 1.480 . S
C437 C43 1.479 . S
C451 C179 1.480 . S
C455 C77 1.479 . S
C469 C213 1.482 . S
C473 C315 1.481 . S
C487 C247 1.483 . S
C491 C349 1.482 . S
C505 C281 1.483 . S
C509 C383 1.483 . S
C523 C326 1.923 . S
C527 C20 1.919 . S
C541 C54 1.926 . S
C545 C360 1.926 . S
C559 C394 1.924 . S
C563 C88 1.926 . S
C577 C224 1.920 . S
C581 C122 1.916 . S
C595 C156 1.918 . S
C599 C258 1.922 . S
C613 C190 1.926 . S
C617 C292 1.923 . S
C631 C5 0.268 . S
C635 C107 0.247 . S
C649 C39 0.262 . S
C653 C141 0.276 . S
C667 C175 0.253 . S
C671 C73 0.272 . S
C685 C209 0.237 . S
C689 C311 0.258 . S
C703 C243 0.235 . S
C707 C345 0.228 . S
C721 C379 0.274 . S
C725 C277 0.275 . S
C739 C407 1.569 . S
C743 C33 1.575 . S
C757 C67 1.577 . S
C761 C237 1.567 . S
C775 C271 1.575 . S
C779 C101 1.567 . S
C793 C305 1.572 . S
C797 C135 1.570 . S
C811 C169 1.565 . S
C815 C339 1.579 . S
C829 C203 1.564 . S
C833 C373 1.579 . S
C847 C2 1.104 . S
C851 C274 1.076 1_545 S
C865 C36 1.088 1_455 S
C869 C308 1.098 . S
C883 C342 1.073 1_655 S
C887 C70 1.078 1_545 S
C901 C104 1.101 . S
C905 C376 1.071 1_565 S
C919 C206 1.102 . S
C923 C138 1.073 1_655 S
C937 C172 1.076 1_565 S
C941 C240 1.075 1_455 S
