# Generated by pormake.
# Topology cbo, (4)-cn, num edge types: 1
# Building blocks:
#     Node 0, Type 0, BuildingBlock: KUFVIS_clean_sbu_0, # of connection points: 4
#     Node 1, Type 0, BuildingBlock: KUFVIS_clean_sbu_0, # of connection points: 4
#     Node 2, Type 0, BuildingBlock: KUFVIS_clean_sbu_0, # of connection points: 4
#     Node 3, Type 0, BuildingBlock: KUFVIS_clean_sbu_0, # of connection points: 4
#     Node 4, Type 0, BuildingBlock: KUFVIS_clean_sbu_0, # of connection points: 4
#     Node 5, Type 0, BuildingBlock: KUFVIS_clean_sbu_0, # of connection points: 4
#     Node 6, Type 0, BuildingBlock: KUFVIS_clean_sbu_0, # of connection points: 4
#     Node 7, Type 0, BuildingBlock: KUFVIS_clean_sbu_0, # of connection points: 4
#     Node 8, Type 0, BuildingBlock: KUFVIS_clean_sbu_0, # of connection points: 4
#     Node 9, Type 0, BuildingBlock: KUFVIS_clean_sbu_0, # of connection points: 4
#     Node 10, Type 0, BuildingBlock: KUFVIS_clean_sbu_0, # of connection points: 4
#     Node 11, Type 0, BuildingBlock: KUFVIS_clean_sbu_0, # of connection points: 4
#     Node 12, Type 0, BuildingBlock: KUFVIS_clean_sbu_0, # of connection points: 4
#     Node 13, Type 0, BuildingBlock: KUFVIS_clean_sbu_0, # of connection points: 4
#     Node 14, Type 0, BuildingBlock: KUFVIS_clean_sbu_0, # of connection points: 4
#     Node 15, Type 0, BuildingBlock: KUFVIS_clean_sbu_0, # of connection points: 4
#     Node 16, Type 0, BuildingBlock: KUFVIS_clean_sbu_0, # of connection points: 4
#     Node 17, Type 0, BuildingBlock: KUFVIS_clean_sbu_0, # of connection points: 4
#     Node 18, Type 0, BuildingBlock: KUFVIS_clean_sbu_0, # of connection points: 4
#     Node 19, Type 0, BuildingBlock: KUFVIS_clean_sbu_0, # of connection points: 4
#     Node 20, Type 0, BuildingBlock: KUFVIS_clean_sbu_0, # of connection points: 4
#     Node 21, Type 0, BuildingBlock: KUFVIS_clean_sbu_0, # of connection points: 4
#     Node 22, Type 0, BuildingBlock: KUFVIS_clean_sbu_0, # of connection points: 4
#     Node 23, Type 0, BuildingBlock: KUFVIS_clean_sbu_0, # of connection points: 4
#     Edge 24, Type (0, 0), BuildingBlock: KIFKEQ_clean_linker_1, # of connection points: 2
#     Edge 25, Type (0, 0), BuildingBlock: KIFKEQ_clean_linker_1, # of connection points: 2
#     Edge 26, Type (0, 0), BuildingBlock: KIFKEQ_clean_linker_1, # of connection points: 2
#     Edge 27, Type (0, 0), BuildingBlock: KIFKEQ_clean_linker_1, # of connection points: 2
#     Edge 28, Type (0, 0), BuildingBlock: KIFKEQ_clean_linker_1, # of connection points: 2
#     Edge 29, Type (0, 0), BuildingBlock: KIFKEQ_clean_linker_1, # of connection points: 2
#     Edge 30, Type (0, 0), BuildingBlock: KIFKEQ_clean_linker_1, # of connection points: 2
#     Edge 31, Type (0, 0), BuildingBlock: KIFKEQ_clean_linker_1, # of connection points: 2
#     Edge 32, Type (0, 0), BuildingBlock: KIFKEQ_clean_linker_1, # of connection points: 2
#     Edge 33, Type (0, 0), BuildingBlock: KIFKEQ_clean_linker_1, # of connection points: 2
#     Edge 34, Type (0, 0), BuildingBlock: KIFKEQ_clean_linker_1, # of connection points: 2
#     Edge 35, Type (0, 0), BuildingBlock: KIFKEQ_clean_linker_1, # of connection points: 2
#     Edge 36, Type (0, 0), BuildingBlock: KIFKEQ_clean_linker_1, # of connection points: 2
#     Edge 37, Type (0, 0), BuildingBlock: KIFKEQ_clean_linker_1, # of connection points: 2
#     Edge 38, Type (0, 0), BuildingBlock: KIFKEQ_clean_linker_1, # of connection points: 2
#     Edge 39, Type (0, 0), BuildingBlock: KIFKEQ_clean_linker_1, # of connection points: 2
#     Edge 40, Type (0, 0), BuildingBlock: KIFKEQ_clean_linker_1, # of connection points: 2
#     Edge 41, Type (0, 0), BuildingBlock: KIFKEQ_clean_linker_1, # of connection points: 2
#     Edge 42, Type (0, 0), BuildingBlock: KIFKEQ_clean_linker_1, # of connection points: 2
#     Edge 43, Type (0, 0), BuildingBlock: KIFKEQ_clean_linker_1, # of connection points: 2
#     Edge 44, Type (0, 0), BuildingBlock: KIFKEQ_clean_linker_1, # of connection points: 2
#     Edge 45, Type (0, 0), BuildingBlock: KIFKEQ_clean_linker_1, # of connection points: 2
#     Edge 46, Type (0, 0), BuildingBlock: KIFKEQ_clean_linker_1, # of connection points: 2
#     Edge 47, Type (0, 0), BuildingBlock: KIFKEQ_clean_linker_1, # of connection points: 2
#     Edge 48, Type (0, 0), BuildingBlock: KIFKEQ_clean_linker_1, # of connection points: 2
#     Edge 49, Type (0, 0), BuildingBlock: KIFKEQ_clean_linker_1, # of connection points: 2
#     Edge 50, Type (0, 0), BuildingBlock: KIFKEQ_clean_linker_1, # of connection points: 2
#     Edge 51, Type (0, 0), BuildingBlock: KIFKEQ_clean_linker_1, # of connection points: 2
#     Edge 52, Type (0, 0), BuildingBlock: KIFKEQ_clean_linker_1, # of connection points: 2
#     Edge 53, Type (0, 0), BuildingBlock: KIFKEQ_clean_linker_1, # of connection points: 2
#     Edge 54, Type (0, 0), BuildingBlock: KIFKEQ_clean_linker_1, # of connection points: 2
#     Edge 55, Type (0, 0), BuildingBlock: KIFKEQ_clean_linker_1, # of connection points: 2
#     Edge 56, Type (0, 0), BuildingBlock: KIFKEQ_clean_linker_1, # of connection points: 2
#     Edge 57, Type (0, 0), BuildingBlock: KIFKEQ_clean_linker_1, # of connection points: 2
#     Edge 58, Type (0, 0), BuildingBlock: KIFKEQ_clean_linker_1, # of connection points: 2
#     Edge 59, Type (0, 0), BuildingBlock: KIFKEQ_clean_linker_1, # of connection points: 2
#     Edge 60, Type (0, 0), BuildingBlock: KIFKEQ_clean_linker_1, # of connection points: 2
#     Edge 61, Type (0, 0), BuildingBlock: KIFKEQ_clean_linker_1, # of connection points: 2
#     Edge 62, Type (0, 0), BuildingBlock: KIFKEQ_clean_linker_1, # of connection points: 2
#     Edge 63, Type (0, 0), BuildingBlock: KIFKEQ_clean_linker_1, # of connection points: 2
#     Edge 64, Type (0, 0), BuildingBlock: KIFKEQ_clean_linker_1, # of connection points: 2
#     Edge 65, Type (0, 0), BuildingBlock: KIFKEQ_clean_linker_1, # of connection points: 2
#     Edge 66, Type (0, 0), BuildingBlock: KIFKEQ_clean_linker_1, # of connection points: 2
#     Edge 67, Type (0, 0), BuildingBlock: KIFKEQ_clean_linker_1, # of connection points: 2
#     Edge 68, Type (0, 0), BuildingBlock: KIFKEQ_clean_linker_1, # of connection points: 2
#     Edge 69, Type (0, 0), BuildingBlock: KIFKEQ_clean_linker_1, # of connection points: 2
#     Edge 70, Type (0, 0), BuildingBlock: KIFKEQ_clean_linker_1, # of connection points: 2
#     Edge 71, Type (0, 0), BuildingBlock: KIFKEQ_clean_linker_1, # of connection points: 2
# Relax obj value: 0.204
# Max RMSD: 0.226
# Mean RMSD: 0.213
data_MOF--net-cbo--node1-KUFVIS_clean_sbu_0--edge1-KIFKEQ_clean_linker_1
_symmetry_space_group_name_H-M    P1
_symmetry_Int_Tables_number       1
_symmetry_cell_setting            triclinic
loop_
_symmetry_equiv_pos_as_xyz
'x, y, z'
_cell_length_a     52.139176
_cell_length_b     51.587085
_cell_length_c     52.985515
_cell_angle_alpha  90.007185
_cell_angle_beta   89.972163
_cell_angle_gamma 89.982286
loop_
_atom_site_label
_atom_site_type_symbol
_atom_site_fract_x
_atom_site_fract_y
_atom_site_fract_z
_atom_type_partial_charge
Mn0 Mn 0.13127 0.16971 0.32526 0.0
Mn1 Mn 0.13241 0.10591 0.33929 0.0
C2 C 0.16746 0.14545 0.31656 0.0
C3 C 0.12118 0.20259 0.29663 0.0
C4 C 0.13802 0.14844 0.37858 0.0
O5 O 0.09384 0.16116 0.33077 0.0
O6 O 0.09607 0.11793 0.33694 0.0
C7 C 0.10969 0.08481 0.29242 0.0
N8 N 0.12941 0.08567 0.30924 0.0
C9 C 0.15316 0.05373 0.28579 0.0
C10 C 0.13301 0.05233 0.26833 0.0
C11 C 0.1112 0.06797 0.27165 0.0
C12 C 0.15044 0.07062 0.30631 0.0
H13 H 0.09298 0.09694 0.29479 0.0
C14 C 0.08342 0.13913 0.33448 0.0
O15 O 0.12328 0.20737 0.32064 0.0
O16 O 0.12451 0.1788 0.28952 0.0
N17 N 0.16632 0.09192 0.34172 0.0
C18 C 0.18501 0.09742 0.35887 0.0
C19 C 0.20863 0.08443 0.35742 0.0
C20 C 0.21278 0.06593 0.3384 0.0
C21 C 0.19325 0.06057 0.32098 0.0
C22 C 0.17001 0.07395 0.3235 0.0
H23 H 0.18202 0.11181 0.37336 0.0
O24 O 0.16892 0.17047 0.31864 0.0
O25 O 0.14475 0.13542 0.31948 0.0
O26 O 0.13727 0.16768 0.36345 0.0
O27 O 0.13613 0.12486 0.37143 0.0
C28 C 0.19619 0.04303 0.30081 0.0
C29 C 0.17615 0.03959 0.28323 0.0
H30 H 0.13421 0.03957 0.25213 0.0
H31 H 0.09565 0.06714 0.25815 0.0
H32 H 0.22367 0.08879 0.37083 0.0
H33 H 0.23114 0.05617 0.33717 0.0
H34 H 0.21395 0.03242 0.29837 0.0
H35 H 0.17881 0.02639 0.26755 0.0
Mn36 Mn 0.36667 0.82477 0.8246 0.0
Mn37 Mn 0.36335 0.88792 0.84114 0.0
C38 C 0.32976 0.84825 0.81691 0.0
C39 C 0.37708 0.79287 0.79502 0.0
C40 C 0.35844 0.84394 0.87872 0.0
O41 O 0.40394 0.83432 0.8297 0.0
O42 O 0.39992 0.87663 0.83965 0.0
C43 C 0.38728 0.91103 0.79576 0.0
N44 N 0.36701 0.90923 0.81188 0.0
C45 C 0.34352 0.94161 0.78875 0.0
C46 C 0.36423 0.94395 0.77201 0.0
C47 C 0.38618 0.92856 0.77551 0.0
C48 C 0.34584 0.92404 0.80877 0.0
H49 H 0.40414 0.89915 0.79831 0.0
C50 C 0.41347 0.8563 0.83546 0.0
O51 O 0.37554 0.7875 0.81893 0.0
O52 O 0.37314 0.81676 0.78851 0.0
N53 N 0.32916 0.90131 0.84297 0.0
C54 C 0.31005 0.89501 0.85941 0.0
C55 C 0.2863 0.90773 0.85769 0.0
C56 C 0.28248 0.92682 0.83916 0.0
C57 C 0.30246 0.93301 0.8225 0.0
C58 C 0.32579 0.91985 0.82525 0.0
H59 H 0.3128 0.88018 0.87351 0.0
O60 O 0.32899 0.82316 0.81841 0.0
O61 O 0.35217 0.85887 0.82 0.0
O62 O 0.36101 0.82537 0.86299 0.0
O63 O 0.35887 0.86782 0.87242 0.0
C64 C 0.2999 0.95121 0.80283 0.0
C65 C 0.32042 0.95551 0.78598 0.0
H66 H 0.36336 0.95726 0.75622 0.0
H67 H 0.40217 0.93015 0.76258 0.0
H68 H 0.27093 0.90273 0.87053 0.0
H69 H 0.26404 0.93638 0.83772 0.0
H70 H 0.28208 0.96167 0.80022 0.0
H71 H 0.31808 0.96923 0.77068 0.0
Mn72 Mn 0.62743 0.32974 0.67344 0.0
Mn73 Mn 0.63043 0.39282 0.65696 0.0
C74 C 0.66475 0.35294 0.68006 0.0
C75 C 0.61749 0.29818 0.70354 0.0
C76 C 0.63215 0.34866 0.61904 0.0
O77 O 0.59004 0.33985 0.66941 0.0
O78 O 0.59385 0.38268 0.66152 0.0
C79 C 0.61111 0.41726 0.70378 0.0
N80 N 0.62999 0.41444 0.68623 0.0
C81 C 0.65664 0.44572 0.70736 0.0
C82 C 0.63742 0.44908 0.72558 0.0
C83 C 0.61457 0.43477 0.72379 0.0
C84 C 0.65198 0.42826 0.68765 0.0
H85 H 0.59358 0.40618 0.70255 0.0
C86 C 0.5804 0.36223 0.66542 0.0
O87 O 0.6183 0.29261 0.67963 0.0
O88 O 0.62192 0.32206 0.70976 0.0
N89 N 0.66485 0.40478 0.65234 0.0
C90 C 0.68231 0.39754 0.63455 0.0
C91 C 0.70672 0.40904 0.63447 0.0
C92 C 0.71289 0.42786 0.65264 0.0
C93 C 0.69458 0.43502 0.67074 0.0
C94 C 0.67049 0.42307 0.66975 0.0
H95 H 0.67771 0.38295 0.62066 0.0
O96 O 0.66532 0.32783 0.67861 0.0
O97 O 0.64231 0.36361 0.67745 0.0
O98 O 0.63202 0.33005 0.63492 0.0
O99 O 0.6313 0.3725 0.62547 0.0
C100 C 0.6995 0.45306 0.69011 0.0
C101 C 0.68054 0.45843 0.70838 0.0
H102 H 0.64012 0.46235 0.7412 0.0
H103 H 0.5997 0.43714 0.73787 0.0
H104 H 0.72079 0.40331 0.62052 0.0
H105 H 0.73183 0.43649 0.65268 0.0
H106 H 0.71796 0.4626 0.69137 0.0
H107 H 0.68471 0.47202 0.72342 0.0
Mn108 Mn 0.87173 0.67028 0.17475 0.0
Mn109 Mn 0.86837 0.607 0.15903 0.0
C110 C 0.83482 0.64694 0.18304 0.0
C111 C 0.8826 0.70206 0.20431 0.0
C112 C 0.86437 0.65077 0.12083 0.0
O113 O 0.90889 0.66055 0.16907 0.0
O114 O 0.9051 0.61761 0.16159 0.0
C115 C 0.89043 0.58373 0.20523 0.0
N116 N 0.87068 0.58586 0.18855 0.0
C117 C 0.84569 0.5545 0.21147 0.0
C118 C 0.86586 0.55179 0.22876 0.0
C119 C 0.88831 0.56651 0.22564 0.0
C120 C 0.84903 0.57171 0.1913 0.0
H121 H 0.90763 0.59516 0.20302 0.0
C122 C 0.9185 0.63825 0.16469 0.0
O123 O 0.88083 0.70754 0.18043 0.0
O124 O 0.87864 0.67817 0.21076 0.0
N125 N 0.83393 0.59444 0.1564 0.0
C126 C 0.8154 0.60117 0.1395 0.0
C127 C 0.79124 0.58923 0.14082 0.0
C128 C 0.78638 0.57052 0.15948 0.0
C129 C 0.80575 0.56393 0.17668 0.0
C130 C 0.82954 0.57629 0.17429 0.0
H131 H 0.81893 0.61575 0.12532 0.0
O132 O 0.83407 0.67203 0.18143 0.0
O133 O 0.8572 0.63635 0.17967 0.0
O134 O 0.8658 0.66954 0.13647 0.0
O135 O 0.86529 0.62695 0.12737 0.0
C136 C 0.80215 0.5461 0.19651 0.0
C137 C 0.82211 0.54137 0.21388 0.0
H138 H 0.86419 0.53874 0.24469 0.0
H139 H 0.90388 0.56467 0.23902 0.0
H140 H 0.77633 0.59455 0.12759 0.0
H141 H 0.76763 0.56157 0.16061 0.0
H142 H 0.78395 0.53626 0.19884 0.0
H143 H 0.81896 0.52796 0.2293 0.0
Mn144 Mn 0.33905 0.11479 0.16837 0.0
Mn145 Mn 0.35243 0.12039 0.10642 0.0
C146 C 0.33156 0.15321 0.14769 0.0
C147 C 0.30916 0.10445 0.19951 0.0
C148 C 0.39307 0.12255 0.14729 0.0
O149 O 0.34269 0.0775 0.15731 0.0
O150 O 0.35056 0.08291 0.11578 0.0
C151 C 0.30393 0.09883 0.08638 0.0
N152 N 0.32095 0.11879 0.08798 0.0
C153 C 0.29438 0.14584 0.06178 0.0
C154 C 0.27669 0.1255 0.05969 0.0
C155 C 0.28149 0.1019 0.07204 0.0
C156 C 0.31657 0.14155 0.07608 0.0
H157 H 0.30739 0.08075 0.09606 0.0
C158 C 0.34709 0.06856 0.13529 0.0
O159 O 0.33359 0.10456 0.20458 0.0
O160 O 0.30261 0.1093 0.17645 0.0
N161 N 0.35437 0.15558 0.09499 0.0
C162 C 0.37263 0.17375 0.10006 0.0
C163 C 0.37033 0.19867 0.08964 0.0
C164 C 0.34928 0.20468 0.07417 0.0
C165 C 0.33082 0.18562 0.06909 0.0
C166 C 0.33434 0.16099 0.07968 0.0
H167 H 0.38864 0.16937 0.11223 0.0
O168 O 0.33411 0.15289 0.17202 0.0
O169 O 0.33342 0.13097 0.13633 0.0
O170 O 0.37805 0.11951 0.16615 0.0
O171 O 0.38545 0.12306 0.12435 0.0
C172 C 0.30878 0.19028 0.0544 0.0
C173 C 0.29058 0.1704 0.05075 0.0
H174 H 0.25922 0.12787 0.04886 0.0
H175 H 0.26784 0.08616 0.07065 0.0
H176 H 0.38459 0.2133 0.09374 0.0
H177 H 0.34735 0.22405 0.0665 0.0
H178 H 0.30546 0.20918 0.04612 0.0
H179 H 0.27355 0.17432 0.03968 0.0
Mn180 Mn 0.15833 0.88132 0.66933 0.0
Mn181 Mn 0.14608 0.87746 0.60706 0.0
C182 C 0.16622 0.84339 0.64782 0.0
C183 C 0.1878 0.89114 0.70092 0.0
C184 C 0.10469 0.87486 0.64742 0.0
O185 O 0.15432 0.91887 0.65918 0.0
O186 O 0.14902 0.9147 0.61709 0.0
C187 C 0.19547 0.89784 0.58797 0.0
N188 N 0.1778 0.87843 0.58897 0.0
C189 C 0.20376 0.85113 0.5624 0.0
C190 C 0.2221 0.87094 0.56088 0.0
C191 C 0.21794 0.89438 0.57373 0.0
C192 C 0.18158 0.85581 0.57661 0.0
H193 H 0.19252 0.91576 0.59808 0.0
C194 C 0.15135 0.92843 0.63719 0.0
O195 O 0.16333 0.89068 0.7058 0.0
O196 O 0.19462 0.88692 0.67782 0.0
N197 N 0.14326 0.84253 0.59506 0.0
C198 C 0.12451 0.82478 0.59977 0.0
C199 C 0.1262 0.79998 0.58895 0.0
C200 C 0.14715 0.79368 0.57344 0.0
C201 C 0.16614 0.81231 0.56874 0.0
C202 C 0.16323 0.83684 0.57974 0.0
H203 H 0.10856 0.82937 0.61197 0.0
O204 O 0.16352 0.84314 0.67214 0.0
O205 O 0.16442 0.8659 0.637 0.0
O206 O 0.11949 0.87643 0.66659 0.0
O207 O 0.11265 0.87548 0.62457 0.0
C208 C 0.18814 0.80729 0.55409 0.0
C209 C 0.20693 0.82669 0.55091 0.0
H210 H 0.23959 0.86824 0.55014 0.0
H211 H 0.2321 0.90969 0.57281 0.0
H212 H 0.11153 0.78567 0.59276 0.0
H213 H 0.1486 0.77441 0.56544 0.0
H214 H 0.19099 0.78845 0.54549 0.0
H215 H 0.22394 0.82248 0.5399 0.0
Mn216 Mn 0.83446 0.3817 0.83137 0.0
Mn217 Mn 0.84639 0.37693 0.8937 0.0
C218 C 0.82745 0.34316 0.85216 0.0
C219 C 0.80517 0.39129 0.7995 0.0
C220 C 0.88813 0.3763 0.85366 0.0
O221 O 0.83718 0.41917 0.84229 0.0
O222 O 0.84273 0.41425 0.88428 0.0
C223 C 0.79645 0.39594 0.91281 0.0
N224 N 0.81455 0.37694 0.91162 0.0
C225 C 0.78921 0.34881 0.93793 0.0
C226 C 0.77043 0.36818 0.93963 0.0
C227 C 0.77407 0.39184 0.927 0.0
C228 C 0.81129 0.35412 0.92377 0.0
H229 H 0.79902 0.41404 0.9029 0.0
C230 C 0.83996 0.42833 0.86449 0.0
O231 O 0.82971 0.39165 0.79502 0.0
O232 O 0.7981 0.38635 0.8224 0.0
N233 N 0.84988 0.34188 0.90517 0.0
C234 C 0.86895 0.32455 0.90019 0.0
C235 C 0.86779 0.2996 0.91073 0.0
C236 C 0.84702 0.2927 0.92623 0.0
C237 C 0.82767 0.31088 0.93116 0.0
C238 C 0.83004 0.33559 0.92044 0.0
H239 H 0.88475 0.3296 0.88799 0.0
O240 O 0.83045 0.34342 0.82788 0.0
O241 O 0.82852 0.36551 0.8634 0.0
O242 O 0.87344 0.37803 0.83443 0.0
O243 O 0.88 0.37598 0.87645 0.0
C244 C 0.8058 0.30524 0.94579 0.0
C245 C 0.78659 0.32419 0.94917 0.0
H246 H 0.753 0.365 0.95033 0.0
H247 H 0.75956 0.40682 0.92807 0.0
H248 H 0.88273 0.28563 0.90671 0.0
H249 H 0.846 0.27331 0.93401 0.0
H250 H 0.80337 0.28626 0.95419 0.0
H251 H 0.76968 0.3195 0.96015 0.0
Mn252 Mn 0.66493 0.61606 0.33434 0.0
Mn253 Mn 0.65056 0.62212 0.39609 0.0
C254 C 0.67091 0.65495 0.35469 0.0
C255 C 0.69498 0.60666 0.30305 0.0
C256 C 0.61039 0.62294 0.35495 0.0
O257 O 0.66305 0.57875 0.34584 0.0
O258 O 0.65252 0.58463 0.38681 0.0
C259 C 0.69895 0.60069 0.41656 0.0
N260 N 0.68187 0.62059 0.41482 0.0
C261 C 0.70798 0.64765 0.44144 0.0
C262 C 0.72574 0.62736 0.44368 0.0
C263 C 0.7212 0.60379 0.43118 0.0
C264 C 0.686 0.64333 0.42685 0.0
H265 H 0.69569 0.58263 0.40678 0.0
C266 C 0.65752 0.57017 0.36773 0.0
O267 O 0.67054 0.60569 0.29824 0.0
O268 O 0.70158 0.61205 0.326 0.0
N269 N 0.64839 0.65729 0.40752 0.0
C270 C 0.63011 0.67539 0.40231 0.0
C271 C 0.63217 0.70029 0.41284 0.0
C272 C 0.65299 0.70632 0.42859 0.0
C273 C 0.67146 0.68731 0.43384 0.0
C274 C 0.6682 0.66272 0.4231 0.0
H275 H 0.61427 0.67099 0.38993 0.0
O276 O 0.66828 0.65429 0.33037 0.0
O277 O 0.66985 0.63279 0.3663 0.0
O278 O 0.62568 0.61918 0.33643 0.0
O279 O 0.61774 0.62468 0.37791 0.0
C280 C 0.69328 0.69199 0.44884 0.0
C281 C 0.71152 0.67217 0.45264 0.0
H282 H 0.74305 0.62976 0.45473 0.0
H283 H 0.7349 0.5881 0.43268 0.0
H284 H 0.61789 0.71488 0.40861 0.0
H285 H 0.65473 0.72566 0.43636 0.0
H286 H 0.69639 0.71086 0.45726 0.0
H287 H 0.72838 0.6761 0.46394 0.0
Mn288 Mn 0.17887 0.32551 0.11819 0.0
Mn289 Mn 0.23432 0.34679 0.0926 0.0
C290 C 0.21215 0.29708 0.11129 0.0
C291 C 0.1547 0.31804 0.15456 0.0
C292 C 0.1863 0.33589 0.06182 0.0
O293 O 0.17574 0.36449 0.12144 0.0
O294 O 0.21434 0.37661 0.10629 0.0
C295 C 0.259 0.3645 0.13986 0.0
N296 N 0.25946 0.34947 0.11873 0.0
C297 C 0.30029 0.33127 0.13033 0.0
C298 C 0.30038 0.34677 0.15207 0.0
C299 C 0.27961 0.36342 0.15687 0.0
C300 C 0.2793 0.33331 0.11397 0.0
H301 H 0.24296 0.37712 0.14377 0.0
C302 C 0.19244 0.38169 0.11614 0.0
O303 O 0.14371 0.31984 0.13259 0.0
O304 O 0.17925 0.32156 0.15529 0.0
N305 N 0.25583 0.32014 0.0789 0.0
C306 C 0.25237 0.30572 0.05761 0.0
C307 C 0.27123 0.28776 0.05036 0.0
C308 C 0.29349 0.28484 0.06501 0.0
C309 C 0.2968 0.30012 0.08664 0.0
C310 C 0.2775 0.31797 0.09274 0.0
H311 H 0.23517 0.3076 0.04647 0.0
O312 O 0.189 0.28851 0.11431 0.0
O313 O 0.21527 0.32199 0.11309 0.0
O314 O 0.17207 0.32835 0.08009 0.0
O315 O 0.2095 0.34353 0.0646 0.0
C316 C 0.31826 0.29799 0.10265 0.0
C317 C 0.31998 0.31352 0.1245 0.0
H318 H 0.31617 0.34587 0.16532 0.0
H319 H 0.27945 0.3753 0.1737 0.0
H320 H 0.2685 0.27599 0.03367 0.0
H321 H 0.30781 0.27068 0.05957 0.0
H322 H 0.33339 0.28423 0.09851 0.0
H323 H 0.33642 0.31148 0.13683 0.0
Mn324 Mn 0.67611 0.17157 0.88163 0.0
Mn325 Mn 0.73116 0.14647 0.90433 0.0
C326 C 0.71056 0.19831 0.88944 0.0
C327 C 0.65168 0.18185 0.84606 0.0
C328 C 0.68379 0.15613 0.93664 0.0
O329 O 0.67155 0.13285 0.87642 0.0
O330 O 0.71075 0.11857 0.88789 0.0
C331 C 0.75599 0.13302 0.85583 0.0
N332 N 0.75642 0.14603 0.87819 0.0
C333 C 0.79743 0.16495 0.8684 0.0
C334 C 0.79753 0.15155 0.84537 0.0
C335 C 0.7767 0.13555 0.83905 0.0
C336 C 0.77637 0.16149 0.88446 0.0
H337 H 0.73989 0.12091 0.85078 0.0
C338 C 0.68815 0.11488 0.87905 0.0
O339 O 0.64095 0.17937 0.86811 0.0
O340 O 0.67607 0.17749 0.84477 0.0
N341 N 0.75282 0.17142 0.92051 0.0
C342 C 0.74928 0.18381 0.94297 0.0
C343 C 0.76811 0.20105 0.95176 0.0
C344 C 0.79042 0.20527 0.93746 0.0
C345 C 0.79382 0.19199 0.91461 0.0
C346 C 0.77454 0.1748 0.90696 0.0
H347 H 0.73213 0.18075 0.95399 0.0
O348 O 0.68771 0.20792 0.88725 0.0
O349 O 0.71262 0.17344 0.88619 0.0
O350 O 0.66995 0.16694 0.9197 0.0
O351 O 0.70627 0.14711 0.93245 0.0
C352 C 0.81534 0.19552 0.8989 0.0
C353 C 0.81714 0.18202 0.87581 0.0
H354 H 0.81337 0.15361 0.83229 0.0
H355 H 0.77655 0.12529 0.82124 0.0
H356 H 0.76535 0.21121 0.96942 0.0
H357 H 0.80474 0.21885 0.94414 0.0
H358 H 0.83047 0.20881 0.90425 0.0
H359 H 0.83363 0.18514 0.86374 0.0
Mn360 Mn 0.82283 0.82655 0.38286 0.0
Mn361 Mn 0.76757 0.85158 0.4052 0.0
C362 C 0.78838 0.79976 0.39038 0.0
C363 C 0.84753 0.81667 0.34735 0.0
C364 C 0.81468 0.84188 0.43783 0.0
O365 O 0.82741 0.86527 0.37787 0.0
O366 O 0.78805 0.8795 0.38889 0.0
C367 C 0.74314 0.86492 0.3565 0.0
N368 N 0.74252 0.85195 0.37888 0.0
C369 C 0.70162 0.83298 0.36883 0.0
C370 C 0.7017 0.84633 0.34578 0.0
C371 C 0.72257 0.86234 0.33958 0.0
C372 C 0.72255 0.83648 0.38502 0.0
H373 H 0.75927 0.87703 0.35156 0.0
C374 C 0.81076 0.88321 0.38032 0.0
O375 O 0.85811 0.81896 0.36948 0.0
O376 O 0.82312 0.82087 0.34598 0.0
N377 N 0.74579 0.82664 0.42126 0.0
C378 C 0.7491 0.81439 0.44382 0.0
C379 C 0.73017 0.79721 0.45254 0.0
C380 C 0.708 0.79293 0.43808 0.0
C381 C 0.70482 0.80609 0.41514 0.0
C382 C 0.72419 0.82323 0.40756 0.0
H383 H 0.76614 0.81751 0.45498 0.0
O384 O 0.81124 0.79016 0.38823 0.0
O385 O 0.7863 0.82464 0.38721 0.0
O386 O 0.82866 0.83104 0.42099 0.0
O387 O 0.79226 0.85097 0.43346 0.0
C388 C 0.68343 0.80252 0.39928 0.0
C389 C 0.68184 0.81593 0.37613 0.0
H390 H 0.68597 0.84424 0.33259 0.0
H391 H 0.72286 0.87257 0.32175 0.0
H392 H 0.73274 0.78716 0.47028 0.0
H393 H 0.6936 0.7794 0.44471 0.0
H394 H 0.66824 0.78926 0.40457 0.0
H395 H 0.66545 0.81279 0.36396 0.0
Mn396 Mn 0.31717 0.67012 0.61634 0.0
Mn397 Mn 0.26142 0.64894 0.59137 0.0
C398 C 0.28406 0.69874 0.60923 0.0
C399 C 0.34163 0.6781 0.6524 0.0
C400 C 0.3094 0.65874 0.56018 0.0
O401 O 0.31995 0.63116 0.62023 0.0
O402 O 0.28123 0.61915 0.60531 0.0
C403 C 0.23679 0.63204 0.63895 0.0
N404 N 0.23638 0.64683 0.61767 0.0
C405 C 0.19576 0.66555 0.62926 0.0
C406 C 0.19562 0.65031 0.65117 0.0
C407 C 0.21625 0.63351 0.65605 0.0
C408 C 0.21666 0.66311 0.61282 0.0
H409 H 0.25272 0.6193 0.64291 0.0
C410 C 0.30312 0.61401 0.61515 0.0
O411 O 0.35247 0.67578 0.63039 0.0
O412 O 0.31706 0.67479 0.65338 0.0
N413 N 0.2401 0.67563 0.57748 0.0
C414 C 0.24368 0.68985 0.55609 0.0
C415 C 0.22499 0.70797 0.54878 0.0
C416 C 0.20281 0.71125 0.56348 0.0
C417 C 0.19939 0.69619 0.58525 0.0
C418 C 0.21851 0.67818 0.59141 0.0
H419 H 0.26083 0.68769 0.54491 0.0
O420 O 0.30731 0.70714 0.61187 0.0
O421 O 0.28077 0.67388 0.61143 0.0
O422 O 0.32378 0.66646 0.57826 0.0
O423 O 0.28611 0.65153 0.56318 0.0
C424 C 0.17802 0.69872 0.60134 0.0
C425 C 0.17623 0.68344 0.62335 0.0
H426 H 0.1799 0.65153 0.6645 0.0
H427 H 0.21637 0.62183 0.67301 0.0
H428 H 0.22781 0.71958 0.532 0.0
H429 H 0.18863 0.72554 0.558 0.0
H430 H 0.16303 0.71261 0.59715 0.0
H431 H 0.15986 0.68579 0.63574 0.0
Mn432 Mn 0.86718 0.82195 0.67296 0.0
Mn433 Mn 0.86363 0.88681 0.66705 0.0
C434 C 0.83004 0.84329 0.68428 0.0
C435 C 0.87959 0.78707 0.69794 0.0
C436 C 0.85985 0.84944 0.62265 0.0
O437 O 0.90414 0.83281 0.66789 0.0
O438 O 0.90037 0.87634 0.66927 0.0
C439 C 0.88339 0.90175 0.71734 0.0
N440 N 0.86436 0.90241 0.69977 0.0
C441 C 0.83734 0.92772 0.72715 0.0
C442 C 0.85674 0.9275 0.74546 0.0
C443 C 0.87986 0.91443 0.74054 0.0
C444 C 0.84203 0.91491 0.70431 0.0
H445 H 0.90109 0.89152 0.71373 0.0
C446 C 0.91379 0.85552 0.66824 0.0
O447 O 0.87681 0.78432 0.6737 0.0
O448 O 0.87533 0.80978 0.7074 0.0
N449 N 0.82917 0.89946 0.66504 0.0
C450 C 0.812 0.89696 0.64581 0.0
C451 C 0.78772 0.90856 0.64793 0.0
C452 C 0.78137 0.92265 0.66974 0.0
C453 C 0.79945 0.92519 0.68917 0.0
C454 C 0.82347 0.91351 0.68585 0.0
H455 H 0.81672 0.88608 0.62903 0.0
O456 O 0.82967 0.81855 0.67999 0.0
O457 O 0.85227 0.85448 0.68242 0.0
O458 O 0.86015 0.82839 0.63541 0.0
O459 O 0.86198 0.87195 0.63264 0.0
C460 C 0.79442 0.93846 0.71188 0.0
C461 C 0.81333 0.93969 0.73088 0.0
H462 H 0.85402 0.93709 0.76346 0.0
H463 H 0.89486 0.91403 0.75464 0.0
H464 H 0.77388 0.90652 0.63285 0.0
H465 H 0.76252 0.9313 0.67144 0.0
H466 H 0.77595 0.94753 0.71506 0.0
H467 H 0.80912 0.94967 0.74838 0.0
Mn468 Mn 0.63056 0.1767 0.17145 0.0
Mn469 Mn 0.63378 0.11177 0.16583 0.0
C470 C 0.66767 0.1552 0.18258 0.0
C471 C 0.61855 0.21185 0.19627 0.0
C472 C 0.63738 0.14888 0.12121 0.0
O473 O 0.59348 0.16596 0.16688 0.0
O474 O 0.59714 0.12243 0.16837 0.0
C475 C 0.61439 0.09716 0.21637 0.0
N476 N 0.63327 0.09633 0.19861 0.0
C477 C 0.66039 0.07096 0.22583 0.0
C478 C 0.64114 0.07137 0.24433 0.0
C479 C 0.61806 0.08455 0.23957 0.0
C480 C 0.65557 0.08372 0.20299 0.0
H481 H 0.59672 0.10747 0.21289 0.0
C482 C 0.58376 0.14328 0.1675 0.0
O483 O 0.62113 0.21437 0.17198 0.0
O484 O 0.62279 0.1892 0.20587 0.0
N485 N 0.66818 0.09896 0.16356 0.0
C486 C 0.68521 0.10131 0.14417 0.0
C487 C 0.70944 0.08958 0.1461 0.0
C488 C 0.71589 0.07552 0.1679 0.0
C489 C 0.69797 0.07315 0.1875 0.0
C490 C 0.67398 0.08495 0.18435 0.0
H491 H 0.68041 0.11216 0.12741 0.0
O492 O 0.66817 0.17991 0.17812 0.0
O493 O 0.64537 0.14414 0.18096 0.0
O494 O 0.63724 0.16998 0.13388 0.0
O495 O 0.63522 0.12643 0.13131 0.0
C496 C 0.70311 0.05992 0.2102 0.0
C497 C 0.68436 0.05887 0.22937 0.0
H498 H 0.64397 0.06183 0.26232 0.0
H499 H 0.60319 0.08509 0.25381 0.0
H500 H 0.72317 0.0915 0.1309 0.0
H501 H 0.73471 0.06677 0.16945 0.0
H502 H 0.72155 0.05076 0.21324 0.0
H503 H 0.68867 0.04893 0.24687 0.0
Mn504 Mn 0.37187 0.67083 0.32684 0.0
Mn505 Mn 0.36995 0.60669 0.3383 0.0
C506 C 0.33511 0.64783 0.31795 0.0
C507 C 0.3831 0.70404 0.29932 0.0
C508 C 0.36563 0.64778 0.37928 0.0
O509 O 0.40915 0.66121 0.33233 0.0
O510 O 0.40639 0.61764 0.33437 0.0
C511 C 0.38906 0.58762 0.28908 0.0
N512 N 0.37035 0.58824 0.30702 0.0
C513 C 0.34321 0.56032 0.28232 0.0
C514 C 0.36228 0.55921 0.26368 0.0
C515 C 0.38529 0.57293 0.26707 0.0
C516 C 0.34814 0.57511 0.30395 0.0
H517 H 0.40667 0.59835 0.29149 0.0
C518 C 0.41934 0.63876 0.33347 0.0
O519 O 0.38055 0.70841 0.32336 0.0
O520 O 0.37944 0.68055 0.29149 0.0
N521 N 0.33578 0.59366 0.34211 0.0
C522 C 0.31894 0.59756 0.36142 0.0
C523 C 0.2948 0.58552 0.36072 0.0
C524 C 0.28825 0.56957 0.34023 0.0
C525 C 0.30599 0.56561 0.32072 0.0
C526 C 0.3299 0.57782 0.32262 0.0
H527 H 0.32381 0.60989 0.37717 0.0
O528 O 0.33429 0.67286 0.32004 0.0
O529 O 0.3576 0.63725 0.32031 0.0
O530 O 0.36501 0.66746 0.36468 0.0
O531 O 0.36869 0.62449 0.37147 0.0
C532 C 0.30074 0.55039 0.29926 0.0
C533 C 0.31932 0.54778 0.28006 0.0
H534 H 0.35936 0.54807 0.24659 0.0
H535 H 0.40002 0.57231 0.2527 0.0
H536 H 0.28121 0.58867 0.37585 0.0
H537 H 0.26949 0.56057 0.33961 0.0
H538 H 0.28236 0.54084 0.29719 0.0
H539 H 0.31493 0.53627 0.26351 0.0
Mn540 Mn 0.12783 0.33517 0.82686 0.0
Mn541 Mn 0.1289 0.39765 0.84516 0.0
C542 C 0.16473 0.35921 0.82162 0.0
C543 C 0.11897 0.30511 0.79513 0.0
C544 C 0.13188 0.35227 0.88166 0.0
O545 O 0.09028 0.34401 0.8314 0.0
O546 O 0.09259 0.3869 0.83952 0.0
C547 C 0.11008 0.42285 0.79854 0.0
N548 N 0.12864 0.41999 0.8164 0.0
C549 C 0.15534 0.45188 0.7962 0.0
C550 C 0.13642 0.45533 0.77771 0.0
C551 C 0.1137 0.44073 0.77888 0.0
C552 C 0.15051 0.43404 0.81555 0.0
H553 H 0.09269 0.4115 0.79925 0.0
C554 C 0.07988 0.36601 0.83543 0.0
O555 O 0.11952 0.29813 0.81872 0.0
O556 O 0.12276 0.32941 0.79035 0.0
N557 N 0.16296 0.41022 0.85077 0.0
C558 C 0.18014 0.403 0.86883 0.0
C559 C 0.20436 0.41486 0.86956 0.0
C560 C 0.21066 0.434 0.85175 0.0
C561 C 0.19265 0.44113 0.83337 0.0
C562 C 0.16872 0.42881 0.83372 0.0
H563 H 0.17547 0.38817 0.88244 0.0
O564 O 0.16564 0.33408 0.8219 0.0
O565 O 0.14205 0.36943 0.82419 0.0
O566 O 0.13259 0.33418 0.86522 0.0
O567 O 0.12973 0.37628 0.8761 0.0
C568 C 0.19774 0.45951 0.81436 0.0
C569 C 0.17909 0.46491 0.7958 0.0
H570 H 0.13926 0.46889 0.76235 0.0
H571 H 0.09909 0.44315 0.76457 0.0
H572 H 0.2182 0.40916 0.88374 0.0
H573 H 0.22946 0.44291 0.85223 0.0
H574 H 0.21608 0.46934 0.8136 0.0
H575 H 0.18338 0.47879 0.78106 0.0
Mn576 Mn 0.65835 0.8749 0.83308 0.0
Mn577 Mn 0.64695 0.87795 0.89562 0.0
C578 C 0.66779 0.83979 0.85837 0.0
C579 C 0.6856 0.88226 0.79913 0.0
C580 C 0.60513 0.87053 0.85646 0.0
O581 O 0.65421 0.9134 0.83943 0.0
O582 O 0.64972 0.91383 0.88181 0.0
C583 C 0.69585 0.90088 0.91307 0.0
N584 N 0.67842 0.88124 0.9138 0.0
C585 C 0.70353 0.85792 0.94439 0.0
C586 C 0.72166 0.87799 0.9441 0.0
C587 C 0.71781 0.89955 0.92835 0.0
C588 C 0.68184 0.86049 0.92902 0.0
H589 H 0.69306 0.9174 0.90086 0.0
C590 C 0.65189 0.92531 0.86041 0.0
O591 O 0.661 0.88014 0.79585 0.0
O592 O 0.69421 0.88056 0.82201 0.0
N593 N 0.64435 0.84448 0.91099 0.0
C594 C 0.62623 0.82583 0.90739 0.0
C595 C 0.62797 0.80242 0.92079 0.0
C596 C 0.64829 0.79844 0.93775 0.0
C597 C 0.66669 0.81794 0.94117 0.0
C598 C 0.66383 0.84097 0.92747 0.0
H599 H 0.61068 0.8287 0.89422 0.0
O600 O 0.66431 0.83682 0.8343 0.0
O601 O 0.66568 0.86338 0.86687 0.0
O602 O 0.61976 0.86944 0.83719 0.0
O603 O 0.61338 0.87414 0.87887 0.0
C604 C 0.68811 0.81516 0.95714 0.0
C605 C 0.7065 0.83515 0.95878 0.0
H606 H 0.73877 0.8769 0.95564 0.0
H607 H 0.7318 0.91504 0.9279 0.0
H608 H 0.61377 0.78741 0.91795 0.0
H609 H 0.64972 0.78024 0.94785 0.0
H610 H 0.69084 0.79755 0.96796 0.0
H611 H 0.7231 0.8326 0.97081 0.0
Mn612 Mn 0.83863 0.12235 0.3314 0.0
Mn613 Mn 0.85055 0.12047 0.39392 0.0
C614 C 0.82879 0.15757 0.35643 0.0
C615 C 0.81143 0.11465 0.29754 0.0
C616 C 0.89191 0.12833 0.35449 0.0
O617 O 0.84304 0.08404 0.33811 0.0
O618 O 0.84919 0.08439 0.38028 0.0
C619 C 0.80258 0.0956 0.41146 0.0
N620 N 0.81921 0.11595 0.41212 0.0
C621 C 0.79311 0.13835 0.44261 0.0
C622 C 0.77582 0.11754 0.44239 0.0
C623 C 0.78057 0.09609 0.42673 0.0
C624 C 0.81492 0.13662 0.42725 0.0
H625 H 0.80606 0.07915 0.39933 0.0
C626 C 0.84649 0.07252 0.35913 0.0
O627 O 0.83603 0.11679 0.29425 0.0
O628 O 0.80279 0.11643 0.32041 0.0
N629 N 0.85175 0.15409 0.40918 0.0
C630 C 0.86905 0.17351 0.40546 0.0
C631 C 0.86635 0.19687 0.41879 0.0
C632 C 0.8459 0.20004 0.43578 0.0
C633 C 0.82832 0.1798 0.43928 0.0
C634 C 0.83213 0.15685 0.42566 0.0
H635 H 0.88463 0.1713 0.3922 0.0
O636 O 0.83237 0.16041 0.33235 0.0
O637 O 0.83126 0.13412 0.36513 0.0
O638 O 0.87721 0.12787 0.33529 0.0
O639 O 0.88393 0.12572 0.37712 0.0
C640 C 0.80678 0.18175 0.45524 0.0
C641 C 0.78921 0.16103 0.45692 0.0
H642 H 0.75866 0.11797 0.45393 0.0
H643 H 0.76722 0.08003 0.42634 0.0
H644 H 0.8799 0.21247 0.41586 0.0
H645 H 0.84371 0.21821 0.44581 0.0
H646 H 0.80332 0.19927 0.46599 0.0
H647 H 0.77251 0.16293 0.46895 0.0
Mn648 Mn 0.16271 0.61939 0.17378 0.0
Mn649 Mn 0.15403 0.62152 0.11074 0.0
C650 C 0.17131 0.65692 0.15175 0.0
C651 C 0.18906 0.61011 0.20789 0.0
C652 C 0.11033 0.62432 0.14841 0.0
O653 O 0.16058 0.5815 0.16423 0.0
O654 O 0.15677 0.58469 0.12192 0.0
C655 C 0.20474 0.60118 0.09521 0.0
N656 N 0.18682 0.62039 0.09459 0.0
C657 C 0.21385 0.64701 0.06844 0.0
C658 C 0.2325 0.62742 0.06863 0.0
C659 C 0.22793 0.60443 0.08209 0.0
C660 C 0.19101 0.64258 0.08168 0.0
H661 H 0.20142 0.58357 0.10572 0.0
C662 C 0.15888 0.57144 0.14231 0.0
O663 O 0.1643 0.61099 0.21054 0.0
O664 O 0.19835 0.61432 0.18559 0.0
N665 N 0.15154 0.65599 0.09753 0.0
C666 C 0.13219 0.67352 0.10033 0.0
C667 C 0.13402 0.69778 0.08844 0.0
C668 C 0.1557 0.70377 0.07383 0.0
C669 C 0.17531 0.68537 0.0711 0.0
C670 C 0.17225 0.66137 0.08309 0.0
H671 H 0.11562 0.66915 0.11177 0.0
O672 O 0.16703 0.65779 0.17585 0.0
O673 O 0.17062 0.63408 0.14144 0.0
O674 O 0.12409 0.62334 0.16831 0.0
O675 O 0.11952 0.62357 0.12604 0.0
C676 C 0.19798 0.69011 0.05739 0.0
C677 C 0.21725 0.67095 0.05608 0.0
H678 H 0.2505 0.62994 0.05871 0.0
H679 H 0.2423 0.58929 0.08246 0.0
H680 H 0.11885 0.71191 0.09071 0.0
H681 H 0.1572 0.72263 0.06497 0.0
H682 H 0.20095 0.70855 0.04806 0.0
H683 H 0.23475 0.67495 0.04577 0.0
Mn684 Mn 0.3346 0.37552 0.66958 0.0
Mn685 Mn 0.34675 0.37441 0.60717 0.0
C686 C 0.32848 0.33788 0.64688 0.0
C687 C 0.30543 0.38406 0.70182 0.0
C688 C 0.38842 0.37348 0.64721 0.0
O689 O 0.3361 0.41355 0.66022 0.0
O690 O 0.34102 0.41099 0.61798 0.0
C691 C 0.29593 0.39131 0.58853 0.0
N692 N 0.31501 0.37329 0.58916 0.0
C693 C 0.29122 0.34465 0.56202 0.0
C694 C 0.27141 0.363 0.56092 0.0
C695 C 0.27377 0.38642 0.57425 0.0
C696 C 0.31297 0.35072 0.57636 0.0
H697 H 0.29754 0.40922 0.59896 0.0
C698 C 0.33781 0.42391 0.63843 0.0
O699 O 0.32998 0.38423 0.70616 0.0
O700 O 0.29817 0.37916 0.67895 0.0
N701 N 0.35224 0.3401 0.59449 0.0
C702 C 0.37241 0.32386 0.59867 0.0
C703 C 0.37272 0.29933 0.58719 0.0
C704 C 0.3523 0.29174 0.57156 0.0
C705 C 0.33181 0.30883 0.56743 0.0
C706 C 0.33273 0.33318 0.57909 0.0
H707 H 0.38808 0.32952 0.6108 0.0
O708 O 0.33132 0.33693 0.6712 0.0
O709 O 0.32923 0.36084 0.63688 0.0
O710 O 0.37362 0.37271 0.66641 0.0
O711 O 0.38031 0.37483 0.62446 0.0
C712 C 0.31027 0.30245 0.55263 0.0
C713 C 0.28999 0.32034 0.54994 0.0
H714 H 0.25418 0.35919 0.55012 0.0
H715 H 0.25848 0.4006 0.57363 0.0
H716 H 0.38857 0.28622 0.59052 0.0
H717 H 0.35245 0.27267 0.563 0.0
H718 H 0.30896 0.28371 0.54351 0.0
H719 H 0.27337 0.31507 0.53881 0.0
Mn720 Mn 0.8309 0.67545 0.88386 0.0
Mn721 Mn 0.89472 0.66562 0.8847 0.0
C722 C 0.85442 0.68091 0.84744 0.0
C723 C 0.79699 0.70409 0.89014 0.0
C724 C 0.85586 0.62185 0.88258 0.0
O725 O 0.83909 0.67495 0.92108 0.0
O726 O 0.88198 0.67003 0.92015 0.0
C727 C 0.91013 0.71758 0.90289 0.0
N728 N 0.91131 0.69866 0.885 0.0
C729 C 0.93886 0.72472 0.85884 0.0
C730 C 0.93811 0.74439 0.87709 0.0
C731 C 0.92367 0.7408 0.8992 0.0
C732 C 0.92517 0.7019 0.86366 0.0
H733 H 0.89885 0.71501 0.91981 0.0
C734 C 0.86071 0.67288 0.93204 0.0
O735 O 0.79332 0.67917 0.89118 0.0
O736 O 0.82016 0.71197 0.88595 0.0
N737 N 0.9096 0.66139 0.8519 0.0
C738 C 0.90746 0.641 0.83569 0.0
C739 C 0.9204 0.64173 0.81245 0.0
C740 C 0.93539 0.66339 0.80611 0.0
C741 C 0.93747 0.68406 0.82318 0.0
C742 C 0.92441 0.68209 0.84621 0.0
H743 H 0.89571 0.62446 0.84029 0.0
O744 O 0.82984 0.67728 0.84635 0.0
O745 O 0.86435 0.68181 0.86997 0.0
O746 O 0.83575 0.63605 0.88247 0.0
O747 O 0.87871 0.63089 0.88353 0.0
C748 C 0.9516 0.70673 0.81805 0.0
C749 C 0.95228 0.72705 0.83585 0.0
H750 H 0.94837 0.76241 0.87422 0.0
H751 H 0.92287 0.75595 0.9133 0.0
H752 H 0.91864 0.62573 0.79934 0.0
H753 H 0.94507 0.66403 0.78803 0.0
H754 H 0.96179 0.70885 0.80035 0.0
H755 H 0.96299 0.74449 0.83158 0.0
Mn756 Mn 0.32679 0.82276 0.11674 0.0
Mn757 Mn 0.39107 0.82755 0.11319 0.0
C758 C 0.35136 0.81328 0.15163 0.0
C759 C 0.29019 0.79823 0.11012 0.0
C760 C 0.35555 0.87403 0.11801 0.0
O761 O 0.33366 0.82501 0.07919 0.0
O762 O 0.37685 0.82344 0.07841 0.0
C763 C 0.40282 0.77453 0.09526 0.0
N764 N 0.40567 0.79356 0.11284 0.0
C765 C 0.43247 0.76622 0.1385 0.0
C766 C 0.42999 0.7464 0.12056 0.0
C767 C 0.41509 0.75057 0.09886 0.0
C768 C 0.41999 0.78976 0.13379 0.0
H769 H 0.39118 0.77756 0.07866 0.0
C770 C 0.35494 0.82381 0.06738 0.0
O771 O 0.28893 0.82336 0.11129 0.0
O772 O 0.31255 0.78755 0.11252 0.0
N773 N 0.40711 0.83125 0.14549 0.0
C774 C 0.40677 0.85201 0.16141 0.0
C775 C 0.4204 0.8508 0.18424 0.0
C776 C 0.43425 0.82834 0.19044 0.0
C777 C 0.43455 0.80734 0.17363 0.0
C778 C 0.42089 0.80979 0.151 0.0
H779 H 0.39606 0.86927 0.15682 0.0
O780 O 0.32714 0.81843 0.1541 0.0
O781 O 0.3602 0.81306 0.12866 0.0
O782 O 0.33477 0.86124 0.12047 0.0
O783 O 0.37742 0.86343 0.11424 0.0
C784 C 0.44749 0.78392 0.17864 0.0
C785 C 0.44644 0.76337 0.1611 0.0
H786 H 0.43926 0.72782 0.12336 0.0
H787 H 0.41295 0.73531 0.085 0.0
H788 H 0.42008 0.86709 0.19711 0.0
H789 H 0.44448 0.82736 0.2082 0.0
H790 H 0.45809 0.78141 0.19605 0.0
H791 H 0.45623 0.74536 0.1653 0.0
Mn792 Mn 0.17182 0.17404 0.61586 0.0
Mn793 Mn 0.10741 0.16853 0.61473 0.0
C794 C 0.14815 0.1862 0.65071 0.0
C795 C 0.20844 0.19795 0.60718 0.0
C796 C 0.1434 0.1228 0.62167 0.0
O797 O 0.16402 0.16952 0.57875 0.0
O798 O 0.12076 0.16935 0.57931 0.0
C799 C 0.09412 0.21918 0.59198 0.0
N800 N 0.09199 0.20196 0.61135 0.0
C801 C 0.06368 0.23048 0.63407 0.0
C802 C 0.0654 0.24844 0.61428 0.0
C803 C 0.08072 0.24276 0.59316 0.0
C804 C 0.07722 0.20716 0.63171 0.0
H805 H 0.10602 0.21498 0.5758 0.0
C806 C 0.14235 0.16894 0.56762 0.0
O807 O 0.20954 0.17293 0.60963 0.0
O808 O 0.18618 0.20891 0.60935 0.0
N809 N 0.09221 0.16794 0.64762 0.0
C810 C 0.09437 0.14958 0.66599 0.0
C811 C 0.08118 0.15288 0.68887 0.0
C812 C 0.0659 0.17497 0.69262 0.0
C813 C 0.06393 0.19358 0.67343 0.0
C814 C 0.07733 0.18913 0.65092 0.0
H815 H 0.10629 0.1327 0.66331 0.0
O816 O 0.17233 0.1807 0.65283 0.0
O817 O 0.13859 0.18476 0.62803 0.0
O818 O 0.16423 0.13572 0.62178 0.0
O819 O 0.1213 0.13309 0.61883 0.0
C820 C 0.04975 0.21668 0.67601 0.0
C821 C 0.04961 0.23511 0.65634 0.0
H822 H 0.0553 0.26676 0.61522 0.0
H823 H 0.08228 0.2566 0.57788 0.0
H824 H 0.08292 0.13851 0.70365 0.0
H825 H 0.05598 0.17759 0.71041 0.0
H826 H 0.03922 0.22066 0.69321 0.0
H827 H 0.03897 0.25298 0.65871 0.0
Mn828 Mn 0.66585 0.32188 0.38323 0.0
Mn829 Mn 0.60243 0.33415 0.38241 0.0
C830 C 0.64327 0.31749 0.34613 0.0
C831 C 0.69881 0.29238 0.39035 0.0
C832 C 0.64301 0.3762 0.38275 0.0
O833 O 0.65626 0.32238 0.42035 0.0
O834 O 0.61341 0.32748 0.41791 0.0
C835 C 0.58377 0.2822 0.3973 0.0
N836 N 0.58434 0.30201 0.38034 0.0
C837 C 0.55696 0.27868 0.35171 0.0
C838 C 0.55591 0.25811 0.36897 0.0
C839 C 0.56939 0.25988 0.39186 0.0
C840 C 0.5714 0.30053 0.35827 0.0
H841 H 0.59432 0.28338 0.41481 0.0
C842 C 0.63416 0.32413 0.43053 0.0
O843 O 0.70298 0.3172 0.39163 0.0
O844 O 0.67558 0.28501 0.38554 0.0
N845 N 0.58944 0.34073 0.34923 0.0
C846 C 0.5934 0.36176 0.33416 0.0
C847 C 0.58169 0.36278 0.31031 0.0
C848 C 0.56606 0.34223 0.30223 0.0
C849 C 0.5621 0.3209 0.31816 0.0
C850 C 0.57399 0.32111 0.34186 0.0
H851 H 0.60554 0.37752 0.34019 0.0
O852 O 0.66801 0.32008 0.34573 0.0
O853 O 0.63267 0.31696 0.36837 0.0
O854 O 0.66255 0.36134 0.38151 0.0
O855 O 0.61984 0.36818 0.38392 0.0
C856 C 0.54722 0.29923 0.31128 0.0
C857 C 0.54466 0.27813 0.32803 0.0
H858 H 0.54501 0.24076 0.36475 0.0
H859 H 0.5688 0.24402 0.40521 0.0
H860 H 0.58487 0.3793 0.29811 0.0
H861 H 0.55732 0.34295 0.2837 0.0
H862 H 0.5379 0.29847 0.29303 0.0
H863 H 0.53341 0.26146 0.3224 0.0
H864 H 0.1089 0.29206 0.15757 0.0
H865 H 0.17042 0.32282 0.20311 0.0
H866 H 0.09285 0.26804 0.19418 0.0
H867 H 0.1548 0.29874 0.23933 0.0
H868 H 0.12243 0.25527 0.30379 0.0
H869 H 0.12254 0.28877 0.27107 0.0
H870 H 0.11161 0.22986 0.21411 0.0
H871 H 0.1111 0.19671 0.24662 0.0
C872 C 0.11852 0.29431 0.17555 0.0
C873 C 0.14111 0.309 0.17741 0.0
C874 C 0.10947 0.28041 0.19647 0.0
C875 C 0.12276 0.28114 0.21961 0.0
C876 C 0.14396 0.29778 0.22192 0.0
C877 C 0.15305 0.31149 0.20105 0.0
C878 C 0.11948 0.2496 0.28433 0.0
C879 C 0.11714 0.22333 0.27774 0.0
C880 C 0.11962 0.26876 0.26558 0.0
C881 C 0.11728 0.262 0.23993 0.0
C882 C 0.11318 0.23586 0.23364 0.0
C883 C 0.11315 0.21677 0.25231 0.0
H884 H 0.38545 0.79976 0.74475 0.0
H885 H 0.37699 0.7401 0.80133 0.0
H886 H 0.3844 0.76706 0.71174 0.0
H887 H 0.37625 0.70714 0.76813 0.0
H888 H 0.32678 0.67327 0.70121 0.0
H889 H 0.34283 0.69747 0.73719 0.0
H890 H 0.40344 0.72911 0.69088 0.0
H891 H 0.38704 0.70486 0.65455 0.0
C892 C 0.38393 0.77957 0.75018 0.0
C893 C 0.38091 0.77255 0.77563 0.0
C894 C 0.38357 0.76076 0.73123 0.0
C895 C 0.38007 0.73446 0.73726 0.0
C896 C 0.3787 0.72727 0.76286 0.0
C897 C 0.3792 0.74614 0.78187 0.0
C898 C 0.34396 0.68483 0.69884 0.0
C899 C 0.35546 0.68744 0.67499 0.0
C900 C 0.35328 0.69861 0.71955 0.0
C901 C 0.37425 0.7155 0.71687 0.0
C902 C 0.38704 0.7165 0.69346 0.0
C903 C 0.37779 0.70247 0.67271 0.0
H904 H 0.61608 0.24537 0.69764 0.0
H905 H 0.61083 0.30564 0.754 0.0
H906 H 0.61661 0.21262 0.73103 0.0
H907 H 0.61169 0.27313 0.7872 0.0
H908 H 0.60761 0.21093 0.84471 0.0
H909 H 0.59173 0.23603 0.80867 0.0
H910 H 0.65019 0.20183 0.76139 0.0
H911 H 0.66571 0.17681 0.79706 0.0
C912 C 0.61456 0.2516 0.7171 0.0
C913 C 0.61377 0.2781 0.72319 0.0
C914 C 0.61494 0.23286 0.73623 0.0
C915 C 0.61438 0.24025 0.76181 0.0
C916 C 0.61188 0.26669 0.76774 0.0
C917 C 0.61163 0.28538 0.74867 0.0
C918 C 0.61648 0.20822 0.82641 0.0
C919 C 0.63806 0.19215 0.82374 0.0
C920 C 0.60755 0.22273 0.80582 0.0
C921 C 0.61989 0.22118 0.7822 0.0
C922 C 0.64009 0.20341 0.77919 0.0
C923 C 0.64911 0.18915 0.79973 0.0
H924 H 0.88308 0.75491 0.19837 0.0
H925 H 0.89097 0.69473 0.25449 0.0
H926 H 0.88261 0.7876 0.23182 0.0
H927 H 0.89007 0.72712 0.28774 0.0
H928 H 0.89231 0.78868 0.34565 0.0
H929 H 0.9088 0.76442 0.30932 0.0
H930 H 0.84944 0.79763 0.2625 0.0
H931 H 0.83339 0.82188 0.29843 0.0
C932 C 0.88521 0.74869 0.21778 0.0
C933 C 0.88668 0.72222 0.22381 0.0
C934 C 0.88485 0.7674 0.23695 0.0
C935 C 0.88606 0.75998 0.26251 0.0
C936 C 0.88936 0.73361 0.26832 0.0
C937 C 0.88962 0.71497 0.24921 0.0
C938 C 0.88336 0.79136 0.32739 0.0
C939 C 0.86138 0.80689 0.32493 0.0
C940 C 0.89265 0.77733 0.30663 0.0
C941 C 0.88025 0.77881 0.28305 0.0
C942 C 0.85962 0.79611 0.28025 0.0
C943 C 0.85027 0.80991 0.30095 0.0
H944 H 0.31472 0.09866 0.25106 0.0
H945 H 0.25796 0.10518 0.19205 0.0
H946 H 0.2806 0.10127 0.28281 0.0
H947 H 0.22466 0.10943 0.22298 0.0
H948 H 0.16386 0.1127 0.27703 0.0
H949 H 0.19844 0.09332 0.25297 0.0
H950 H 0.25363 0.13264 0.3005 0.0
H951 H 0.21855 0.14913 0.32651 0.0
C952 C 0.295 0.10031 0.24488 0.0
C953 C 0.28908 0.10191 0.21907 0.0
C954 C 0.27544 0.10207 0.26304 0.0
C955 C 0.24969 0.10573 0.25566 0.0
C956 C 0.24396 0.10606 0.22972 0.0
C957 C 0.26328 0.10391 0.21177 0.0
C958 C 0.18341 0.11593 0.28314 0.0
C959 C 0.18859 0.13143 0.3042 0.0
C960 C 0.20336 0.10543 0.26893 0.0
C961 C 0.22905 0.11175 0.27432 0.0
C962 C 0.23423 0.12692 0.29586 0.0
C963 C 0.21415 0.13664 0.31066 0.0
H964 H 0.33276 0.88258 0.77869 0.0
H965 H 0.27866 0.84254 0.82617 0.0
H966 H 0.29789 0.90225 0.75534 0.0
H967 H 0.24335 0.85939 0.80069 0.0
H968 H 0.18181 0.89451 0.75263 0.0
H969 H 0.21581 0.8911 0.7844 0.0
H970 H 0.27221 0.88706 0.72453 0.0
H971 H 0.23901 0.89211 0.69368 0.0
C972 C 0.31326 0.87857 0.78451 0.0
C973 C 0.30832 0.862 0.80484 0.0
C974 C 0.29316 0.88926 0.77069 0.0
C975 C 0.26759 0.88211 0.77566 0.0
C976 C 0.26264 0.86577 0.79642 0.0
C977 C 0.28285 0.85584 0.81089 0.0
C978 C 0.2016 0.89361 0.74649 0.0
C979 C 0.20769 0.89337 0.72066 0.0
C980 C 0.22109 0.89139 0.76464 0.0
C981 C 0.24694 0.88862 0.75722 0.0
C982 C 0.25282 0.8897 0.73133 0.0
C983 C 0.23356 0.8923 0.71341 0.0
H984 H 0.75379 0.39067 0.80577 0.0
H985 H 0.81203 0.39659 0.74804 0.0
H986 H 0.72119 0.38688 0.77405 0.0
H987 H 0.77864 0.39425 0.71551 0.0
H988 H 0.71596 0.3474 0.67086 0.0
H989 H 0.75111 0.36297 0.69739 0.0
H990 H 0.69639 0.40475 0.74345 0.0
H991 H 0.66166 0.38641 0.71896 0.0
C992 C 0.7596 0.39186 0.78617 0.0
C993 C 0.78557 0.39368 0.77946 0.0
C994 C 0.7407 0.38997 0.76778 0.0
C995 C 0.74706 0.39033 0.74198 0.0
C996 C 0.77301 0.39355 0.73516 0.0
C997 C 0.79214 0.39513 0.75377 0.0
C998 C 0.7117 0.36026 0.68647 0.0
C999 C 0.6862 0.36644 0.69242 0.0
C1000 C 0.73181 0.36942 0.70156 0.0
C1001 C 0.72672 0.38496 0.72287 0.0
C1002 C 0.70118 0.39234 0.72767 0.0
C1003 C 0.68118 0.38243 0.71319 0.0
H1004 H 0.83886 0.61402 0.22235 0.0
H1005 H 0.7835 0.65168 0.17444 0.0
H1006 H 0.80457 0.59554 0.24751 0.0
H1007 H 0.74882 0.63567 0.20133 0.0
H1008 H 0.68877 0.6004 0.25169 0.0
H1009 H 0.72229 0.60336 0.21935 0.0
H1010 H 0.77911 0.61318 0.27807 0.0
H1011 H 0.74633 0.60887 0.30971 0.0
C1012 C 0.8192 0.61771 0.21681 0.0
C1013 C 0.81373 0.63337 0.19591 0.0
C1014 C 0.79948 0.60766 0.2316 0.0
C1015 C 0.77377 0.61442 0.22684 0.0
C1016 C 0.76826 0.62967 0.20545 0.0
C1017 C 0.7881 0.63908 0.19015 0.0
C1018 C 0.70856 0.60254 0.25753 0.0
C1019 C 0.71487 0.60455 0.28324 0.0
C1020 C 0.72775 0.60448 0.23903 0.0
C1021 C 0.75353 0.60861 0.24594 0.0
C1022 C 0.75971 0.60945 0.27177 0.0
C1023 C 0.74073 0.60724 0.29009 0.0
H1024 H 0.3461 0.20385 0.14836 0.0
H1025 H 0.2867 0.15193 0.12298 0.0
H1026 H 0.32058 0.24102 0.1342 0.0
H1027 H 0.26077 0.18857 0.10977 0.0
H1028 H 0.22043 0.25708 0.07923 0.0
H1029 H 0.25381 0.22389 0.08248 0.0
H1030 H 0.28289 0.26139 0.1497 0.0
H1031 H 0.25032 0.29499 0.14547 0.0
C1032 C 0.32775 0.20051 0.13933 0.0
C1033 C 0.3185 0.17525 0.13607 0.0
C1034 C 0.31308 0.22166 0.1314 0.0
C1035 C 0.28858 0.2178 0.12089 0.0
C1036 C 0.27972 0.19234 0.11724 0.0
C1037 C 0.29452 0.1713 0.12485 0.0
C1038 C 0.2344 0.25832 0.09432 0.0
C1039 C 0.23349 0.27873 0.1117 0.0
C1040 C 0.25337 0.23935 0.09631 0.0
C1041 C 0.27106 0.23996 0.11635 0.0
C1042 C 0.27002 0.26059 0.13369 0.0
C1043 C 0.25134 0.27977 0.1314 0.0
H1044 H 0.84351 0.29295 0.85136 0.0
H1045 H 0.78261 0.34296 0.87704 0.0
H1046 H 0.81931 0.25496 0.86592 0.0
H1047 H 0.75823 0.30551 0.89111 0.0
H1048 H 0.748 0.20083 0.85446 0.0
H1049 H 0.78077 0.23428 0.85032 0.0
H1050 H 0.7543 0.26958 0.91966 0.0
H1051 H 0.72098 0.2363 0.92317 0.0
C1052 C 0.82517 0.29572 0.86059 0.0
C1053 C 0.81511 0.32069 0.86383 0.0
C1054 C 0.8113 0.27411 0.8688 0.0
C1055 C 0.78689 0.27723 0.87976 0.0
C1056 C 0.77719 0.30239 0.88332 0.0
C1057 C 0.79109 0.32387 0.87525 0.0
C1058 C 0.74975 0.21539 0.86911 0.0
C1059 C 0.73257 0.21586 0.88942 0.0
C1060 C 0.76852 0.23449 0.86683 0.0
C1061 C 0.77015 0.25459 0.88469 0.0
C1062 C 0.75336 0.25447 0.90549 0.0
C1063 C 0.73443 0.23547 0.90759 0.0
H1064 H 0.77761 0.76228 0.42453 0.0
H1065 H 0.75126 0.79681 0.35516 0.0
H1066 H 0.74407 0.72924 0.42141 0.0
H1067 H 0.71838 0.76346 0.3513 0.0
H1068 H 0.65545 0.70531 0.35233 0.0
H1069 H 0.67975 0.74337 0.36646 0.0
H1070 H 0.73966 0.69278 0.39414 0.0
H1071 H 0.7151 0.65528 0.38064 0.0
C1072 C 0.76429 0.76292 0.40886 0.0
C1073 C 0.76637 0.78223 0.39041 0.0
C1074 C 0.74523 0.74404 0.40696 0.0
C1075 C 0.72857 0.74367 0.38608 0.0
C1076 C 0.73049 0.76344 0.36789 0.0
C1077 C 0.74934 0.78247 0.36999 0.0
C1078 C 0.67354 0.70257 0.36202 0.0
C1079 C 0.68321 0.67758 0.36611 0.0
C1080 C 0.68748 0.72422 0.36998 0.0
C1081 C 0.71163 0.72111 0.38148 0.0
C1082 C 0.72091 0.69593 0.38592 0.0
C1083 C 0.7069 0.67442 0.37816 0.0
H1084 H 0.151 0.79298 0.64729 0.0
H1085 H 0.21125 0.84458 0.62327 0.0
H1086 H 0.17613 0.75574 0.63259 0.0
H1087 H 0.23674 0.80782 0.60935 0.0
H1088 H 0.27592 0.739 0.5774 0.0
H1089 H 0.24298 0.77262 0.58116 0.0
H1090 H 0.21386 0.73497 0.64828 0.0
H1091 H 0.2461 0.70108 0.64368 0.0
C1092 C 0.16943 0.79625 0.6384 0.0
C1093 C 0.17904 0.82145 0.6357 0.0
C1094 C 0.18387 0.77506 0.63016 0.0
C1095 C 0.20848 0.77879 0.61983 0.0
C1096 C 0.21769 0.8042 0.61669 0.0
C1097 C 0.20315 0.82529 0.62469 0.0
C1098 C 0.26203 0.73782 0.59257 0.0
C1099 C 0.26286 0.7173 0.60984 0.0
C1100 C 0.24331 0.75703 0.59484 0.0
C1101 C 0.22574 0.75648 0.615 0.0
C1102 C 0.22665 0.73572 0.6322 0.0
C1103 C 0.24514 0.71636 0.62968 0.0
H1104 H 0.85799 0.65837 0.80121 0.0
H1105 H 0.87803 0.72709 0.84293 0.0
H1106 H 0.87255 0.67886 0.76212 0.0
H1107 H 0.8912 0.74829 0.80423 0.0
H1108 H 0.91477 0.786 0.73539 0.0
H1109 H 0.91713 0.75489 0.76992 0.0
H1110 H 0.8569 0.70984 0.73473 0.0
H1111 H 0.85633 0.73999 0.69938 0.0
C1112 C 0.86603 0.67772 0.80196 0.0
C1113 C 0.86753 0.69101 0.82498 0.0
C1114 C 0.87413 0.6896 0.77959 0.0
C1115 C 0.88294 0.71543 0.77972 0.0
C1116 C 0.88515 0.72827 0.80313 0.0
C1117 C 0.87751 0.71618 0.82545 0.0
C1118 C 0.90277 0.76886 0.73473 0.0
C1119 C 0.88532 0.7653 0.71492 0.0
C1120 C 0.90382 0.75119 0.75466 0.0
C1121 C 0.88666 0.73014 0.7557 0.0
C1122 C 0.87059 0.72561 0.73473 0.0
C1123 C 0.87014 0.74292 0.71439 0.0
H1124 H 0.64296 0.25829 0.19807 0.0
H1125 H 0.58263 0.21392 0.23301 0.0
H1126 H 0.6424 0.28856 0.23333 0.0
H1127 H 0.58029 0.24521 0.2674 0.0
H1128 H 0.61852 0.27204 0.34111 0.0
H1129 H 0.6056 0.25119 0.30217 0.0
H1130 H 0.62708 0.32001 0.26042 0.0
H1131 H 0.64136 0.34013 0.2998 0.0
C1132 C 0.62876 0.25577 0.2128 0.0
C1133 C 0.61301 0.2338 0.21308 0.0
C1134 C 0.62832 0.27316 0.23309 0.0
C1135 C 0.61169 0.26912 0.25375 0.0
C1136 C 0.59402 0.24852 0.25241 0.0
C1137 C 0.59506 0.23074 0.23255 0.0
C1138 C 0.61973 0.28291 0.32364 0.0
C1139 C 0.63042 0.30778 0.32337 0.0
C1140 C 0.61224 0.27103 0.30118 0.0
C1141 C 0.6153 0.28377 0.27782 0.0
C1142 C 0.62483 0.30934 0.27786 0.0
C1143 C 0.63278 0.32102 0.30039 0.0
H1144 H 0.41318 0.70216 0.25765 0.0
H1145 H 0.36239 0.75237 0.29929 0.0
H1146 H 0.41385 0.73295 0.22279 0.0
H1147 H 0.36111 0.78227 0.26381 0.0
H1148 H 0.35999 0.83445 0.1978 0.0
H1149 H 0.37613 0.81218 0.2353 0.0
H1150 H 0.38567 0.74221 0.19106 0.0
H1151 H 0.3712 0.76518 0.15377 0.0
C1152 C 0.40241 0.72004 0.25938 0.0
C1153 C 0.38759 0.72492 0.28095 0.0
C1154 C 0.4025 0.73758 0.2393 0.0
C1155 C 0.38694 0.75989 0.23997 0.0
C1156 C 0.37353 0.76553 0.26245 0.0
C1157 C 0.37412 0.74833 0.28286 0.0
C1158 C 0.36636 0.81452 0.19619 0.0
C1159 C 0.365 0.80159 0.17298 0.0
C1160 C 0.37533 0.80162 0.21767 0.0
C1161 C 0.38209 0.77519 0.21651 0.0
C1162 C 0.38129 0.76263 0.19288 0.0
C1163 C 0.37286 0.77571 0.17139 0.0
H1164 H 0.12185 0.23135 0.64815 0.0
H1165 H 0.14859 0.17336 0.70036 0.0
H1166 H 0.10656 0.25771 0.68307 0.0
H1167 H 0.13595 0.20085 0.73571 0.0
H1168 H 0.10707 0.25308 0.79733 0.0
H1169 H 0.10689 0.2222 0.7622 0.0
H1170 H 0.12687 0.28435 0.711 0.0
H1171 H 0.12555 0.31482 0.74538 0.0
C1172 C 0.12372 0.22393 0.66718 0.0
C1173 C 0.13545 0.19994 0.6716 0.0
C1174 C 0.11559 0.23933 0.68731 0.0
C1175 C 0.12039 0.23177 0.71243 0.0
C1176 C 0.13152 0.20729 0.71677 0.0
C1177 C 0.13898 0.19157 0.69653 0.0
C1178 C 0.11093 0.26006 0.77842 0.0
C1179 C 0.11639 0.28636 0.77415 0.0
C1180 C 0.11101 0.24237 0.75829 0.0
C1181 C 0.11689 0.25061 0.73357 0.0
C1182 C 0.12161 0.27712 0.72946 0.0
C1183 C 0.12113 0.29472 0.74937 0.0
H1184 H 0.68272 0.85705 0.75426 0.0
H1185 H 0.72921 0.91075 0.79657 0.0
H1186 H 0.71701 0.85204 0.72349 0.0
H1187 H 0.76285 0.90772 0.76476 0.0
H1188 H 0.83032 0.86338 0.73102 0.0
H1189 H 0.79384 0.87788 0.75567 0.0
H1190 H 0.7441 0.86447 0.69151 0.0
H1191 H 0.7809 0.8482 0.66761 0.0
C1192 C 0.69998 0.86854 0.75639 0.0
C1193 C 0.70358 0.884 0.77783 0.0
C1194 C 0.7197 0.8658 0.73868 0.0
C1195 C 0.74314 0.87904 0.74179 0.0
C1196 C 0.74556 0.89642 0.76216 0.0
C1197 C 0.7262 0.89846 0.78026 0.0
C1198 C 0.81159 0.86398 0.72218 0.0
C1199 C 0.80832 0.85529 0.69738 0.0
C1200 C 0.79059 0.87248 0.7362 0.0
C1201 C 0.76577 0.87261 0.72567 0.0
C1202 C 0.76274 0.86435 0.70048 0.0
C1203 C 0.78378 0.85526 0.68665 0.0
H1204 H 0.6672 0.13556 0.22947 0.0
H1205 H 0.71679 0.14971 0.16591 0.0
H1206 H 0.70346 0.12062 0.25412 0.0
H1207 H 0.75336 0.13297 0.18983 0.0
H1208 H 0.81481 0.13954 0.25257 0.0
H1209 H 0.78067 0.14499 0.22177 0.0
H1210 H 0.7339 0.09018 0.26315 0.0
H1211 H 0.76743 0.08672 0.29501 0.0
C1212 C 0.68592 0.13466 0.2206 0.0
C1213 C 0.6893 0.14317 0.19576 0.0
C1214 C 0.70679 0.12589 0.23463 0.0
C1215 C 0.73159 0.12529 0.22404 0.0
C1216 C 0.73473 0.13343 0.19883 0.0
C1217 C 0.71383 0.1428 0.185 0.0
C1218 C 0.79738 0.12833 0.25471 0.0
C1219 C 0.7935 0.11301 0.27621 0.0
C1220 C 0.77775 0.13132 0.23698 0.0
C1221 C 0.75409 0.11849 0.24013 0.0
C1222 C 0.75137 0.10119 0.26053 0.0
C1223 C 0.77067 0.0989 0.27865 0.0
H1224 H 0.33423 0.62346 0.27315 0.0
H1225 H 0.28671 0.64385 0.33663 0.0
H1226 H 0.29692 0.60805 0.25041 0.0
H1227 H 0.24908 0.62662 0.31482 0.0
H1228 H 0.18721 0.63529 0.25271 0.0
H1229 H 0.22183 0.63875 0.28324 0.0
H1230 H 0.26436 0.57998 0.24248 0.0
H1231 H 0.2305 0.57862 0.2108 0.0
C1232 C 0.31575 0.62369 0.28253 0.0
C1233 C 0.31322 0.63432 0.30668 0.0
C1234 C 0.29424 0.61468 0.2696 0.0
C1235 C 0.26965 0.61599 0.28063 0.0
C1236 C 0.26748 0.62571 0.30541 0.0
C1237 C 0.289 0.63533 0.31807 0.0
C1238 C 0.20376 0.62275 0.25073 0.0
C1239 C 0.20648 0.60694 0.22942 0.0
C1240 C 0.22368 0.62459 0.2683 0.0
C1241 C 0.24642 0.61009 0.26517 0.0
C1242 C 0.24772 0.59224 0.24508 0.0
C1243 C 0.2282 0.59113 0.22708 0.0
H1244 H 0.31308 0.39315 0.75256 0.0
H1245 H 0.25388 0.3838 0.69627 0.0
H1246 H 0.28007 0.39586 0.78546 0.0
H1247 H 0.22148 0.3854 0.72859 0.0
H1248 H 0.16289 0.39366 0.7833 0.0
H1249 H 0.19859 0.40918 0.75809 0.0
H1250 H 0.25112 0.36677 0.8059 0.0
H1251 H 0.21527 0.35373 0.8327 0.0
C1252 C 0.29307 0.39191 0.7472 0.0
C1253 C 0.28609 0.38808 0.72186 0.0
C1254 C 0.27418 0.39337 0.76602 0.0
C1255 C 0.24801 0.39096 0.75978 0.0
C1256 C 0.24126 0.38801 0.73425 0.0
C1257 C 0.25998 0.38674 0.7156 0.0
C1258 C 0.1822 0.38914 0.78937 0.0
C1259 C 0.18644 0.37327 0.8104 0.0
C1260 C 0.2027 0.39743 0.77453 0.0
C1261 C 0.22777 0.38869 0.77951 0.0
C1262 C 0.23217 0.37408 0.80153 0.0
C1263 C 0.21165 0.36644 0.81683 0.0
H1264 H 0.74579 0.69568 0.90074 0.0
H1265 H 0.80073 0.75584 0.88359 0.0
H1266 H 0.71135 0.72812 0.90071 0.0
H1267 H 0.76694 0.78746 0.8823 0.0
H1268 H 0.7099 0.84583 0.88732 0.0
H1269 H 0.73771 0.81223 0.90383 0.0
H1270 H 0.68806 0.75386 0.87143 0.0
H1271 H 0.65858 0.78789 0.85774 0.0
C1272 C 0.75051 0.71578 0.89714 0.0
C1273 C 0.77595 0.72318 0.89213 0.0
C1274 C 0.73082 0.73435 0.897 0.0
C1275 C 0.73625 0.76056 0.89168 0.0
C1276 C 0.76187 0.76775 0.88722 0.0
C1277 C 0.78138 0.74942 0.88765 0.0
C1278 C 0.7041 0.8258 0.8852 0.0
C1279 C 0.68163 0.81942 0.87218 0.0
C1280 C 0.72042 0.80645 0.89401 0.0
C1281 C 0.71557 0.78022 0.88843 0.0
C1282 C 0.6924 0.77375 0.87633 0.0
C1283 C 0.67557 0.79322 0.86829 0.0
H1284 H 0.21795 0.65616 0.13052 0.0
H1285 H 0.15461 0.70687 0.1476 0.0
H1286 H 0.24259 0.69257 0.11491 0.0
H1287 H 0.17868 0.74375 0.13058 0.0
H1288 H 0.24575 0.80347 0.1363 0.0
H1289 H 0.21296 0.77028 0.14178 0.0
H1290 H 0.24983 0.72349 0.08443 0.0
H1291 H 0.28364 0.75589 0.08074 0.0
C1292 C 0.20908 0.67516 0.13013 0.0
C1293 C 0.18429 0.67879 0.13961 0.0
C1294 C 0.2231 0.69611 0.12102 0.0
C1295 C 0.21262 0.72128 0.12113 0.0
C1296 C 0.18749 0.72475 0.13035 0.0
C1297 C 0.17362 0.70371 0.13993 0.0
C1298 C 0.24637 0.78632 0.1245 0.0
C1299 C 0.26723 0.78191 0.10839 0.0
C1300 C 0.22754 0.76727 0.12753 0.0
C1301 C 0.22903 0.74377 0.11402 0.0
C1302 C 0.24856 0.74084 0.09588 0.0
C1303 C 0.26777 0.75949 0.09349 0.0
H1304 H 0.28257 0.33908 0.62439 0.0
H1305 H 0.34524 0.28788 0.64241 0.0
H1306 H 0.25785 0.30291 0.60857 0.0
H1307 H 0.32109 0.25117 0.62513 0.0
H1308 H 0.25334 0.19254 0.63246 0.0
H1309 H 0.28675 0.2252 0.63667 0.0
H1310 H 0.24957 0.27149 0.57917 0.0
H1311 H 0.21509 0.23968 0.57684 0.0
C1312 C 0.29133 0.32002 0.62411 0.0
C1313 C 0.31588 0.31618 0.63407 0.0
C1314 C 0.27725 0.29918 0.61486 0.0
C1315 C 0.28741 0.27388 0.61531 0.0
C1316 C 0.31246 0.27025 0.6247 0.0
C1317 C 0.3264 0.2912 0.63443 0.0
C1318 C 0.25274 0.20946 0.62037 0.0
C1319 C 0.2316 0.21393 0.60464 0.0
C1320 C 0.27197 0.22822 0.62264 0.0
C1321 C 0.27062 0.25147 0.60874 0.0
C1322 C 0.25077 0.25437 0.59094 0.0
C1323 C 0.23115 0.23606 0.58933 0.0
H1324 H 0.74988 0.3003 0.40123 0.0
H1325 H 0.69464 0.24059 0.3836 0.0
H1326 H 0.78422 0.26787 0.40038 0.0
H1327 H 0.72844 0.20888 0.38152 0.0
H1328 H 0.78664 0.15067 0.38519 0.0
H1329 H 0.75828 0.1837 0.402 0.0
H1330 H 0.80697 0.24312 0.36996 0.0
H1331 H 0.83685 0.20967 0.3557 0.0
C1332 C 0.74506 0.28027 0.39739 0.0
C1333 C 0.71958 0.27302 0.39239 0.0
C1334 C 0.76472 0.26171 0.39676 0.0
C1335 C 0.75923 0.23564 0.39093 0.0
C1336 C 0.73355 0.22851 0.38671 0.0
C1337 C 0.71404 0.24687 0.38762 0.0
C1338 C 0.79203 0.17082 0.38309 0.0
C1339 C 0.81437 0.17769 0.37004 0.0
C1340 C 0.77542 0.18983 0.39213 0.0
C1341 C 0.77995 0.21618 0.38691 0.0
C1342 C 0.80292 0.22311 0.37464 0.0
C1343 C 0.81997 0.20399 0.36627 0.0
H1344 H 0.10305 0.18074 0.53517 0.0
H1345 H 0.18169 0.15415 0.53684 0.0
H1346 H 0.10327 0.17773 0.48905 0.0
H1347 H 0.18169 0.15103 0.49094 0.0
H1348 H 0.1557 0.1151 0.41446 0.0
H1349 H 0.15734 0.12171 0.45994 0.0
H1350 H 0.12697 0.19896 0.45063 0.0
H1351 H 0.12556 0.19254 0.4048 0.0
C1352 C 0.12035 0.17428 0.52574 0.0
C1353 C 0.14231 0.16758 0.5397 0.0
C1354 C 0.12051 0.17276 0.49936 0.0
C1355 C 0.14249 0.16414 0.48651 0.0
C1356 C 0.16446 0.1576 0.50042 0.0
C1357 C 0.16444 0.15948 0.5267 0.0
C1358 C 0.14956 0.1336 0.42202 0.0
C1359 C 0.14053 0.15332 0.406 0.0
C1360 C 0.15059 0.13739 0.44807 0.0
C1361 C 0.14225 0.16081 0.45875 0.0
C1362 C 0.13338 0.18066 0.44282 0.0
C1363 C 0.13275 0.17704 0.41663 0.0
H1364 H 0.31413 0.83465 0.03681 0.0
H1365 H 0.39396 0.81197 0.03453 0.0
H1366 H 0.31334 0.83649 0.99089 0.0
H1367 H 0.39299 0.81384 0.98842 0.0
H1368 H 0.37311 0.79995 0.90407 0.0
H1369 H 0.37122 0.79228 0.94973 0.0
H1370 H 0.33537 0.86696 0.96013 0.0
H1371 H 0.3374 0.87475 0.91492 0.0
C1372 C 0.33146 0.82983 0.02655 0.0
C1373 C 0.35419 0.82339 0.03941 0.0
C1374 C 0.33098 0.83096 1.00024 0.0
C1375 C 0.35311 0.82539 0.98614 0.0
C1376 C 0.37561 0.81805 0.99885 0.0
C1377 C 0.3762 0.8172 0.02525 0.0
C1378 C 0.36456 0.81456 0.91611 0.0
C1379 C 0.35544 0.83797 0.90588 0.0
C1380 C 0.36364 0.81024 0.9422 0.0
C1381 C 0.35314 0.82903 0.9584 0.0
C1382 C 0.34335 0.85204 0.94807 0.0
C1383 C 0.34463 0.85653 0.92215 0.0
H1384 H 0.67101 0.30849 0.46421 0.0
H1385 H 0.59376 0.33876 0.46027 0.0
H1386 H 0.66975 0.31183 0.51022 0.0
H1387 H 0.5927 0.34212 0.50616 0.0
H1388 H 0.6185 0.38087 0.58067 0.0
H1389 H 0.61791 0.37182 0.53569 0.0
H1390 H 0.64547 0.29426 0.54977 0.0
H1391 H 0.64591 0.3032 0.59529 0.0
C1392 C 0.65368 0.31561 0.47312 0.0
C1393 C 0.63257 0.32359 0.45849 0.0
C1394 C 0.65294 0.31735 0.49947 0.0
C1395 C 0.63121 0.32741 0.51169 0.0
C1396 C 0.6098 0.33453 0.49717 0.0
C1397 C 0.6104 0.33249 0.47088 0.0
C1398 C 0.62449 0.36185 0.57431 0.0
C1399 C 0.63231 0.34276 0.59164 0.0
C1400 C 0.62393 0.35663 0.5485 0.0
C1401 C 0.63146 0.3323 0.53927 0.0
C1402 C 0.63958 0.3132 0.55644 0.0
C1403 C 0.63976 0.3183 0.58245 0.0
H1404 H 0.84412 0.61986 0.08425 0.0
H1405 H 0.88034 0.6943 0.09557 0.0
H1406 H 0.8429 0.62769 0.03893 0.0
H1407 H 0.87948 0.70187 0.04983 0.0
H1408 H 0.9014 0.68111 0.96407 0.0
H1409 H 0.90136 0.67829 0.01028 0.0
H1410 H 0.82041 0.66101 0.00929 0.0
H1411 H 0.82021 0.66405 0.96344 0.0
C1412 C 0.8517 0.63797 0.07709 0.0
C1413 C 0.86224 0.65651 0.09353 0.0
C1414 C 0.85094 0.64245 0.05113 0.0
C1415 C 0.86111 0.66536 0.04094 0.0
C1416 C 0.87161 0.684 0.05727 0.0
C1417 C 0.87192 0.67974 0.0834 0.0
C1418 C 0.88358 0.67689 0.97374 0.0
C1419 C 0.86085 0.67268 0.96003 0.0
C1420 C 0.88354 0.67546 1.00015 0.0
C1421 C 0.86089 0.66935 0.01326 0.0
C1422 C 0.83815 0.6656 0.99961 0.0
C1423 C 0.83807 0.66744 0.97334 0.0
H1424 H 0.4287 0.14185 0.11468 0.0
H1425 H 0.42034 0.11124 0.19025 0.0
H1426 H 0.4744 0.14759 0.12172 0.0
H1427 H 0.4665 0.11685 0.19708 0.0
H1428 H 0.55457 0.10113 0.18019 0.0
H1429 H 0.50797 0.09687 0.1773 0.0
H1430 H 0.50254 0.1757 0.15055 0.0
H1431 H 0.549 0.18016 0.15349 0.0
C1432 C 0.43657 0.13636 0.13283 0.0
C1433 C 0.42082 0.12611 0.15194 0.0
C1434 C 0.46274 0.1398 0.13686 0.0
C1435 C 0.47387 0.13275 0.15995 0.0
C1436 C 0.4583 0.12236 0.17908 0.0
C1437 C 0.43193 0.11927 0.17519 0.0
C1438 C 0.54344 0.1176 0.1738 0.0
C1439 C 0.55551 0.14093 0.16688 0.0
C1440 C 0.51678 0.11519 0.17235 0.0
C1441 C 0.50178 0.13593 0.16364 0.0
C1442 C 0.51376 0.15937 0.15716 0.0
C1443 C 0.54033 0.16191 0.15892 0.0
H1444 H 0.94816 0.81913 0.65228 0.0
H1445 H 0.94326 0.89731 0.6814 0.0
H1446 H 0.99458 0.8236 0.64857 0.0
H1447 H 0.98984 0.90155 0.67779 0.0
H1448 H 0.07735 0.88502 0.69054 0.0
H1449 H 0.03109 0.88009 0.69697 0.0
H1450 H 0.02297 0.85278 0.62039 0.0
H1451 H 0.06887 0.85793 0.61374 0.0
C1452 C 0.95698 0.83719 0.65807 0.0
C1453 C 0.94201 0.85793 0.667 0.0
C1454 C 0.98352 0.83975 0.65584 0.0
C1455 C 0.99567 0.86293 0.66284 0.0
C1456 C 0.98088 0.88344 0.6724 0.0
C1457 C 0.95425 0.88104 0.67429 0.0
C1458 C 0.0657 0.87792 0.6751 0.0
C1459 C 0.07681 0.87183 0.65165 0.0
C1460 C 0.03926 0.87523 0.67877 0.0
C1461 C 0.0236 0.86597 0.65919 0.0
C1462 C 0.0347 0.85972 0.63585 0.0
C1463 C 0.06098 0.8628 0.63205 0.0
H1464 H 0.0493 0.40843 0.82773 0.0
H1465 H 0.04648 0.32646 0.84451 0.0
H1466 H 0.00244 0.41052 0.83036 0.0
H1467 H -0.00018 0.3288 0.8475 0.0
H1468 H 0.92399 0.35716 0.88614 0.0
H1469 H 0.97018 0.35428 0.87982 0.0
H1470 H 0.96223 0.38898 0.80615 0.0
H1471 H 0.91566 0.39144 0.81211 0.0
C1472 C 0.03871 0.39089 0.83191 0.0
C1473 C 0.05157 0.3673 0.83599 0.0
C1474 C 0.01195 0.39208 0.83326 0.0
C1475 C 0.99769 0.36983 0.83917 0.0
C1476 C 0.01048 0.34622 0.84301 0.0
C1477 C 0.03714 0.34491 0.84121 0.0
C1478 C 0.93198 0.36408 0.86851 0.0
C1479 C 0.91612 0.37444 0.84957 0.0
C1480 C 0.95841 0.36233 0.86491 0.0
C1481 C 0.96962 0.37136 0.84251 0.0
C1482 C 0.95393 0.38195 0.82361 0.0
C1483 C 0.92735 0.38323 0.82699 0.0
H1484 H 0.45341 0.67731 0.34456 0.0
H1485 H 0.44937 0.59635 0.32371 0.0
H1486 H 0.49996 0.67402 0.3476 0.0
H1487 H 0.49607 0.59326 0.32666 0.0
H1488 H 0.58352 0.60831 0.31268 0.0
H1489 H 0.53727 0.61263 0.30537 0.0
H1490 H 0.52858 0.64856 0.37844 0.0
H1491 H 0.57433 0.64408 0.38597 0.0
C1492 C 0.46243 0.65887 0.34042 0.0
C1493 C 0.44765 0.63703 0.33409 0.0
C1494 C 0.48907 0.65701 0.34223 0.0
C1495 C 0.50151 0.63338 0.33742 0.0
C1496 C 0.4869 0.61173 0.33031 0.0
C1497 C 0.46019 0.61348 0.32883 0.0
C1498 C 0.57173 0.61722 0.32712 0.0
C1499 C 0.58263 0.62586 0.34989 0.0
C1500 C 0.54531 0.61957 0.32297 0.0
C1501 C 0.52949 0.63103 0.34131 0.0
C1502 C 0.54042 0.63992 0.36389 0.0
C1503 C 0.56663 0.6372 0.36821 0.0
H1504 H 0.14503 0.40416 0.1185 0.0
H1505 H 0.2259 0.42107 0.1257 0.0
H1506 H 0.13507 0.44997 0.12596 0.0
H1507 H 0.21578 0.46658 0.1337 0.0
H1508 H 0.18229 0.53836 0.17513 0.0
H1509 H 0.18923 0.49182 0.1699 0.0
H1510 H 0.14748 0.49358 0.09964 0.0
H1511 H 0.14089 0.54034 0.10448 0.0
C1512 C 0.16062 0.41759 0.1219 0.0
C1513 C 0.18624 0.40907 0.12149 0.0
C1514 C 0.15491 0.44372 0.12605 0.0
C1515 C 0.17469 0.4616 0.13044 0.0
C1516 C 0.20023 0.45305 0.13051 0.0
C1517 C 0.20599 0.42707 0.12582 0.0
C1518 C 0.17433 0.5288 0.1587 0.0
C1519 C 0.16108 0.54299 0.14017 0.0
C1520 C 0.17842 0.50224 0.15569 0.0
C1521 C 0.16889 0.4893 0.13438 0.0
C1522 C 0.15488 0.50322 0.11628 0.0
C1523 C 0.15122 0.52991 0.11901 0.0
H1524 H 0.6347 0.95913 0.89641 0.0
H1525 H 0.67321 0.95615 0.82418 0.0
H1526 H 0.64119 0.00606 0.8978 0.0
H1527 H 0.67994 0.00297 0.82588 0.0
H1528 H 0.71968 0.07535 0.86483 0.0
H1529 H 0.70809 0.03012 0.8575 0.0
H1530 H 0.62862 0.04826 0.87199 0.0
H1531 H 0.64008 0.09376 0.87893 0.0
C1532 C 0.6443 0.96851 0.88074 0.0
C1533 C 0.65351 0.95393 0.86023 0.0
C1534 C 0.64787 0.99534 0.88149 0.0
C1535 C 0.6611 0.008 0.86197 0.0
C1536 C 0.66975 0.99358 0.84118 0.0
C1537 C 0.66579 0.96683 0.8402 0.0
C1538 C 0.69969 0.06977 0.86617 0.0
C1539 C 0.68079 0.08807 0.87252 0.0
C1540 C 0.69307 0.04394 0.86184 0.0
C1541 C 0.66749 0.03581 0.86423 0.0
C1542 C 0.64848 0.05412 0.87012 0.0
C1543 C 0.65504 0.08011 0.87396 0.0
H1544 H 0.86414 0.03948 0.39565 0.0
H1545 H 0.82571 0.04081 0.32334 0.0
H1546 H 0.85788 0.99254 0.39789 0.0
H1547 H 0.81926 0.99404 0.32589 0.0
H1548 H 0.77932 0.92267 0.36582 0.0
H1549 H 0.791 0.96778 0.35802 0.0
H1550 H 0.87039 0.94971 0.37292 0.0
H1551 H 0.85884 0.90431 0.38035 0.0
C1552 C 0.85465 0.02975 0.38013 0.0
C1553 C 0.84534 0.04388 0.35938 0.0
C1554 C 0.8512 0.00291 0.38137 0.0
C1555 C 0.83802 0.98983 0.3621 0.0
C1556 C 0.82939 0.00378 0.34103 0.0
C1557 C 0.8332 0.03051 0.33956 0.0
C1558 C 0.7993 0.92824 0.36718 0.0
C1559 C 0.81816 0.91 0.37374 0.0
C1560 C 0.80598 0.954 0.36259 0.0
C1561 C 0.83157 0.9621 0.3649 0.0
C1562 C 0.85052 0.94386 0.37109 0.0
C1563 C 0.84392 0.91794 0.37521 0.0
H1564 H 0.31292 0.4559 0.6713 0.0
H1565 H 0.35548 0.45602 0.60125 0.0
H1566 H 0.30548 0.50247 0.66695 0.0
H1567 H 0.34835 0.50275 0.59728 0.0
H1568 H 0.35045 0.5914 0.6174 0.0
H1569 H 0.36027 0.54547 0.62413 0.0
H1570 H 0.27952 0.52899 0.63189 0.0
H1571 H 0.26955 0.57468 0.62466 0.0
C1572 C 0.32096 0.46591 0.65515 0.0
C1573 C 0.33475 0.45231 0.63657 0.0
C1574 C 0.31659 0.49249 0.65265 0.0
C1575 C 0.32636 0.50604 0.63181 0.0
C1576 C 0.34077 0.49267 0.61359 0.0
C1577 C 0.34471 0.46597 0.61581 0.0
C1578 C 0.33482 0.57799 0.62069 0.0
C1579 C 0.30923 0.5866 0.62047 0.0
C1580 C 0.34045 0.55177 0.62441 0.0
C1581 C 0.32063 0.53386 0.62853 0.0
C1582 C 0.29511 0.54253 0.62889 0.0
C1583 C 0.28944 0.56861 0.62465 0.0
H1584 H 0.79633 0.87272 0.4754 0.0
H1585 H 0.8542 0.81477 0.46004 0.0
H1586 H 0.80951 0.87409 0.51926 0.0
H1587 H 0.86757 0.81636 0.50438 0.0
H1588 H 0.85683 0.80607 0.59248 0.0
H1589 H 0.84857 0.80446 0.54707 0.0
H1590 H 0.8468 0.88809 0.5446 0.0
H1591 H 0.85475 0.88985 0.5897 0.0
C1592 C 0.81201 0.86036 0.48132 0.0
C1593 C 0.8242 0.84361 0.46414 0.0
C1594 C 0.81966 0.86128 0.50649 0.0
C1595 C 0.83962 0.84539 0.51526 0.0
C1596 C 0.85202 0.82872 0.49815 0.0
C1597 C 0.84449 0.82797 0.47275 0.0
C1598 C 0.85482 0.82412 0.58224 0.0
C1599 C 0.85624 0.84808 0.59488 0.0
C1600 C 0.85027 0.82317 0.5562 0.0
C1601 C 0.84689 0.84615 0.54233 0.0
C1602 C 0.84899 0.87005 0.55484 0.0
C1603 C 0.85364 0.87102 0.58074 0.0
H1604 H 0.70173 0.12521 0.97433 0.0
H1605 H 0.64407 0.18322 0.95855 0.0
H1606 H 0.68811 0.12381 0.01809 0.0
H1607 H 0.63027 0.18161 0.00277 0.0
H1608 H 0.64045 0.19211 0.09089 0.0
H1609 H 0.64895 0.19356 0.04552 0.0
H1610 H 0.65062 0.10992 0.04328 0.0
H1611 H 0.64242 0.10832 0.08838 0.0
C1612 C 0.686 0.13757 0.98013 0.0
C1613 C 0.674 0.15435 0.96287 0.0
C1614 C 0.67809 0.13663 0.00524 0.0
C1615 C 0.65808 0.15255 0.01386 0.0
C1616 C 0.64586 0.16923 0.99666 0.0
C1617 C 0.65363 0.17 0.97133 0.0
C1618 C 0.64248 0.17403 0.08071 0.0
C1619 C 0.64097 0.15011 0.09342 0.0
C1620 C 0.64716 0.17488 0.05469 0.0
C1621 C 0.6506 0.15185 0.0409 0.0
C1622 C 0.64838 0.128 0.05347 0.0
C1623 C 0.64359 0.12712 0.07935 0.0
H1624 H 0.38075 0.61678 0.41841 0.0
H1625 H 0.33993 0.68768 0.40176 0.0
H1626 H 0.36965 0.62144 0.46311 0.0
H1627 H 0.32848 0.69189 0.44634 0.0
H1628 H 0.28233 0.65855 0.51618 0.0
H1629 H 0.29883 0.65844 0.47325 0.0
H1630 H 0.37632 0.65728 0.50166 0.0
H1631 H 0.35988 0.65825 0.54511 0.0
C1632 C 0.36964 0.63346 0.42432 0.0
C1633 C 0.36112 0.65181 0.40656 0.0
C1634 C 0.36346 0.63617 0.44987 0.0
C1635 C 0.34823 0.65698 0.458 0.0
C1636 C 0.34025 0.67568 0.44043 0.0
C1637 C 0.34687 0.67328 0.41498 0.0
C1638 C 0.3029 0.65851 0.51344 0.0
C1639 C 0.31979 0.65857 0.53415 0.0
C1640 C 0.3123 0.65853 0.48881 0.0
C1641 C 0.33877 0.65802 0.48427 0.0
C1642 C 0.35579 0.65775 0.5048 0.0
C1643 C 0.34638 0.65835 0.52958 0.0
H1644 H 0.21328 0.33615 0.01773 0.0
H1645 H 0.13581 0.33468 0.04689 0.0
H1646 H 0.19672 0.33582 0.97487 0.0
H1647 H 0.11927 0.33516 0.00352 0.0
H1648 H 0.11374 0.37869 0.92245 0.0
H1649 H 0.12409 0.37121 0.96686 0.0
H1650 H 0.16878 0.3041 0.94609 0.0
H1651 H 0.15807 0.31122 0.90162 0.0
C1652 C 0.19271 0.33561 0.01506 0.0
C1653 C 0.17587 0.33535 0.03582 0.0
C1654 C 0.18327 0.33528 0.99046 0.0
C1655 C 0.15678 0.33524 0.98598 0.0
C1656 C 0.13981 0.33506 0.00658 0.0
C1657 C 0.14928 0.33479 0.03133 0.0
C1658 C 0.12539 0.36206 0.92741 0.0
C1659 C 0.13525 0.34562 0.90858 0.0
C1660 C 0.13115 0.35772 0.9528 0.0
C1661 C 0.14726 0.33716 0.95977 0.0
C1662 C 0.15632 0.32011 0.9411 0.0
C1663 C 0.15013 0.32414 0.91572 0.0
H1664 H 0.57939 0.85512 0.81383 0.0
H1665 H 0.56732 0.87991 0.89094 0.0
H1666 H 0.53301 0.8517 0.80805 0.0
H1667 H 0.52119 0.8764 0.88503 0.0
H1668 H 0.44119 0.89645 0.85522 0.0
H1669 H 0.48759 0.89963 0.85952 0.0
H1670 H 0.49622 0.82439 0.82485 0.0
H1671 H 0.44974 0.82109 0.8204 0.0
C1672 C 0.56691 0.85982 0.82953 0.0
C1673 C 0.5771 0.86785 0.85283 0.0
C1674 C 0.54038 0.85773 0.82623 0.0
C1675 C 0.52356 0.8639 0.84606 0.0
C1676 C 0.53373 0.87182 0.86934 0.0
C1677 C 0.56018 0.87367 0.87273 0.0
C1678 C 0.45292 0.88059 0.84843 0.0
C1679 C 0.4417 0.85846 0.83757 0.0
C1680 C 0.47949 0.88238 0.85102 0.0
C1681 C 0.49545 0.86221 0.8426 0.0
C1682 C 0.48434 0.84029 0.83135 0.0
C1683 C 0.45773 0.83836 0.82896 0.0
H1684 H 0.91946 0.11666 0.31209 0.0
H1685 H 0.92737 0.14661 0.3879 0.0
H1686 H 0.96596 0.11963 0.30637 0.0
H1687 H 0.97369 0.14998 0.38188 0.0
H1688 H 0.05096 0.17837 0.34749 0.0
H1689 H 0.00431 0.17656 0.35143 0.0
H1690 H 0.0053 0.0961 0.32919 0.0
H1691 H 0.05208 0.09763 0.32561 0.0
C1692 C 0.93107 0.12412 0.3274 0.0
C1693 C 0.91978 0.13141 0.35044 0.0
C1694 C 0.95762 0.12566 0.32416 0.0
C1695 C 0.97325 0.13501 0.3437 0.0
C1696 C 0.96196 0.14284 0.36651 0.0
C1697 C 0.9355 0.14082 0.36994 0.0
C1698 C 0.04124 0.16031 0.34335 0.0
C1699 C 0.05518 0.13811 0.33629 0.0
C1700 C 0.0146 0.15929 0.3457 0.0
C1701 C 0.00136 0.13622 0.34057 0.0
C1702 C 0.01515 0.11415 0.33308 0.0
C1703 C 0.04187 0.115 0.33119 0.0
H1704 H 0.07578 0.64208 0.11375 0.0
H1705 H 0.08123 0.6112 0.18943 0.0
H1706 H 0.02934 0.64564 0.11843 0.0
H1707 H 0.03458 0.61433 0.19376 0.0
H1708 H 0.94823 0.59538 0.17278 0.0
H1709 H 0.99497 0.59217 0.1696 0.0
H1710 H -0.00096 0.67298 0.14896 0.0
H1711 H 0.95244 0.67646 0.15255 0.0
C1712 C 0.0671 0.63603 0.13136 0.0
C1713 C 0.0822 0.62646 0.15128 0.0
C1714 C 0.04055 0.63815 0.13402 0.0
C1715 C 0.02854 0.63026 0.15643 0.0
C1716 C 0.04349 0.62043 0.17627 0.0
C1717 C 0.07013 0.61879 0.17381 0.0
C1718 C 0.9591 0.61246 0.16762 0.0
C1719 C 0.94669 0.63617 0.16292 0.0
C1720 C 0.98579 0.61063 0.16594 0.0
C1721 C 0.00043 0.63233 0.15903 0.0
C1722 C 0.98807 0.65598 0.15422 0.0
C1723 C 0.96147 0.65796 0.15639 0.0
H1724 H 0.42599 0.38567 0.61339 0.0
H1725 H 0.41444 0.35924 0.69002 0.0
H1726 H 0.4722 0.38359 0.61943 0.0
H1727 H 0.46093 0.35719 0.69595 0.0
H1728 H 0.54452 0.32677 0.68087 0.0
H1729 H 0.49791 0.33032 0.67789 0.0
H1730 H 0.50566 0.40674 0.64559 0.0
H1731 H 0.55216 0.40335 0.64847 0.0
C1732 C 0.43328 0.37945 0.63155 0.0
C1733 C 0.41649 0.37263 0.65124 0.0
C1734 C 0.45976 0.37843 0.63503 0.0
C1735 C 0.4701 0.37031 0.65817 0.0
C1736 C 0.45342 0.3634 0.67788 0.0
C1737 C 0.42684 0.36472 0.67451 0.0
C1738 C 0.53631 0.34438 0.67322 0.0
C1739 C 0.55211 0.36471 0.66476 0.0
C1740 C 0.50963 0.34645 0.67168 0.0
C1741 C 0.49825 0.36875 0.66142 0.0
C1742 C 0.51398 0.38922 0.65335 0.0
C1743 C 0.54061 0.38729 0.65512 0.0
H1744 H 0.81302 0.59294 0.89311 0.0
H1745 H 0.89179 0.58627 0.86827 0.0
H1746 H 0.80812 0.54584 0.88931 0.0
H1747 H 0.88652 0.53956 0.86398 0.0
H1748 H 0.85309 0.46408 0.82894 0.0
H1749 H 0.85613 0.51102 0.83403 0.0
H1750 H 0.83121 0.50409 0.9114 0.0
H1751 H 0.82859 0.4569 0.90659 0.0
C1752 C 0.82923 0.5815 0.88679 0.0
C1753 C 0.85275 0.59339 0.88087 0.0
C1754 C 0.82642 0.55461 0.88474 0.0
C1755 C 0.84692 0.53927 0.87624 0.0
C1756 C 0.8704 0.55108 0.87038 0.0
C1757 C 0.87338 0.57781 0.87292 0.0
C1758 C 0.84812 0.47253 0.84701 0.0
C1759 C 0.84067 0.4568 0.8674 0.0
C1760 C 0.84996 0.49935 0.84991 0.0
C1761 C 0.84393 0.511 0.87309 0.0
C1762 C 0.83585 0.49545 0.89332 0.0
C1763 C 0.8345 0.46852 0.89059 0.0
H1764 H 0.31509 0.90362 0.13382 0.0
H1765 H 0.39307 0.90932 0.10645 0.0
H1766 H 0.31302 0.95065 0.1373 0.0
H1767 H 0.39086 0.95645 0.11006 0.0
H1768 H 0.3648 0.041 0.09461 0.0
H1769 H 0.36684 0.99393 0.08994 0.0
H1770 H 0.33405 0.98465 0.16422 0.0
H1771 H 0.33189 0.03153 0.169 0.0
C1772 C 0.33178 0.91486 0.12849 0.0
C1773 C 0.35426 0.90265 0.11987 0.0
C1774 C 0.33061 0.9418 0.13062 0.0
C1775 C 0.35179 0.95715 0.12398 0.0
C1776 C 0.37418 0.94506 0.1151 0.0
C1777 C 0.37546 0.91807 0.11319 0.0
C1778 C 0.35797 0.02893 0.10993 0.0
C1779 C 0.3482 0.04006 0.13219 0.0
C1780 C 0.35929 0.002 0.10729 0.0
C1781 C 0.35058 0.98569 0.12671 0.0
C1782 C 0.34067 0.99678 0.14886 0.0
C1783 C 0.33959 0.02365 0.15162 0.0
H1784 H 0.1378 0.96336 0.67341 0.0
H1785 H 0.16268 0.95793 0.59575 0.0
H1786 H 0.13595 0.01053 0.6697 0.0
H1787 H 0.16123 0.00525 0.59231 0.0
H1788 H 0.18421 0.09129 0.61138 0.0
H1789 H 0.18617 0.04405 0.61486 0.0
H1790 H 0.10811 0.04276 0.64192 0.0
H1791 H 0.10584 0.08992 0.63804 0.0
C1792 C 0.14299 0.97224 0.6556 0.0
C1793 C 0.15039 0.95695 0.63486 0.0
C1794 C 0.14181 -0.00082 0.65348 0.0
C1795 C 0.14847 0.01138 0.63075 0.0
C1796 C 0.15613 0.99621 0.61007 0.0
C1797 C 0.15683 0.96919 0.61202 0.0
C1798 C 0.16749 0.08095 0.61816 0.0
C1799 C 0.14488 0.09433 0.62449 0.0
C1800 C 0.16859 0.05395 0.61997 0.0
C1801 C 0.14728 0.03991 0.62862 0.0
C1802 C 0.12481 0.05324 0.6353 0.0
C1803 C 0.12353 0.08018 0.63301 0.0
H1804 H 0.62702 0.41173 0.41691 0.0
H1805 H 0.66787 0.40349 0.34667 0.0
H1806 H 0.63263 0.45858 0.41514 0.0
H1807 H 0.67162 0.45039 0.34332 0.0
H1808 H 0.69159 0.53459 0.35037 0.0
H1809 H 0.69028 0.48779 0.35602 0.0
H1810 H 0.61861 0.49553 0.39679 0.0
H1811 H 0.6215 0.5424 0.3929 0.0
C1812 C 0.63706 0.42016 0.40099 0.0
C1813 C 0.64717 0.40428 0.38201 0.0
C1814 C 0.64006 0.44703 0.39974 0.0
C1815 C 0.65243 0.45866 0.37895 0.0
C1816 C 0.66252 0.44243 0.35995 0.0
C1817 C 0.66024 0.41551 0.36168 0.0
C1818 C 0.67573 0.52611 0.36069 0.0
C1819 C 0.65667 0.54192 0.37124 0.0
C1820 C 0.67477 0.49924 0.36378 0.0
C1821 C 0.65423 0.48749 0.37677 0.0
C1822 C 0.6351 0.5036 0.3872 0.0
C1823 C 0.63655 0.53052 0.38481 0.0
loop_
_geom_bond_atom_site_label_1
_geom_bond_atom_site_label_2
_geom_bond_distance
_geom_bond_site_symmetry_2
_ccdc_geom_bond_type
Mn0 O5 2.095 . S
Mn0 O15 2.162 . S
Mn0 O16 2.297 . S
Mn0 O24 2.385 . S
Mn0 O25 2.209 . S
Mn0 O26 2.094 . S
Mn1 O6 2.121 . S
Mn1 N8 2.257 . S
Mn1 N17 2.282 . S
Mn1 O25 2.215 . S
Mn1 O27 2.117 . S
C2 O24 1.234 . S
C2 O25 1.283 . S
C3 O15 1.281 . S
C3 O16 1.236 . S
C4 O26 1.240 . S
C4 O27 1.264 . S
O5 Mn0 2.095 . S
O5 C14 1.250 . S
O6 Mn1 2.121 . S
O6 C14 1.258 . S
C7 N8 1.326 . S
C7 C11 1.460 . S
C7 H13 0.929 . S
N8 Mn1 2.257 . S
N8 C7 1.326 . S
N8 C12 1.362 . S
C9 C10 1.258 . S
C9 C12 1.431 . S
C9 C29 1.449 . S
C10 C9 1.258 . S
C10 C11 1.477 . S
C10 H30 0.931 . S
C11 C7 1.460 . S
C11 C10 1.477 . S
C11 H31 0.930 . S
C12 N8 1.362 . S
C12 C9 1.431 . S
C12 C22 1.476 . S
H13 C7 0.929 . S
C14 O5 1.250 . S
C14 O6 1.258 . S
O15 Mn0 2.162 . S
O15 C3 1.281 . S
O16 Mn0 2.297 . S
O16 C3 1.236 . S
N17 Mn1 2.282 . S
N17 C18 1.328 . S
N17 C22 1.318 . S
C18 N17 1.328 . S
C18 C19 1.457 . S
C18 H23 0.929 . S
C19 C18 1.457 . S
C19 C20 1.291 . S
C19 H32 0.931 . S
C20 C19 1.291 . S
C20 C21 1.373 . S
C20 H33 0.929 . S
C21 C20 1.373 . S
C21 C22 1.396 . S
C21 C28 1.403 . S
C22 C12 1.476 . S
C22 N17 1.318 . S
C22 C21 1.396 . S
H23 C18 0.929 . S
O24 Mn0 2.385 . S
O24 C2 1.234 . S
O25 Mn0 2.209 . S
O25 Mn1 2.215 . S
O25 C2 1.283 . S
O26 Mn0 2.094 . S
O26 C4 1.240 . S
O27 Mn1 2.117 . S
O27 C4 1.264 . S
C28 C21 1.403 . S
C28 C29 1.399 . S
C28 H34 0.929 . S
C29 C9 1.449 . S
C29 C28 1.399 . S
C29 H35 0.930 . S
H30 C10 0.931 . S
H31 C11 0.930 . S
H32 C19 0.931 . S
H33 C20 0.929 . S
H34 C28 0.929 . S
H35 C29 0.930 . S
Mn36 O41 2.095 . S
Mn36 O51 2.162 . S
Mn36 O52 2.297 . S
Mn36 O60 2.385 . S
Mn36 O61 2.209 . S
Mn36 O62 2.094 . S
Mn37 O42 2.121 . S
Mn37 N44 2.257 . S
Mn37 N53 2.282 . S
Mn37 O61 2.215 . S
Mn37 O63 2.117 . S
C38 O60 1.234 . S
C38 O61 1.283 . S
C39 O51 1.281 . S
C39 O52 1.236 . S
C40 O62 1.240 . S
C40 O63 1.264 . S
O41 Mn36 2.095 . S
O41 C50 1.250 . S
O42 Mn37 2.121 . S
O42 C50 1.258 . S
C43 N44 1.326 . S
C43 C47 1.460 . S
C43 H49 0.929 . S
N44 Mn37 2.257 . S
N44 C43 1.326 . S
N44 C48 1.362 . S
C45 C46 1.258 . S
C45 C48 1.431 . S
C45 C65 1.449 . S
C46 C45 1.258 . S
C46 C47 1.477 . S
C46 H66 0.931 . S
C47 C43 1.460 . S
C47 C46 1.477 . S
C47 H67 0.930 . S
C48 N44 1.362 . S
C48 C45 1.431 . S
C48 C58 1.476 . S
H49 C43 0.929 . S
C50 O41 1.250 . S
C50 O42 1.258 . S
O51 Mn36 2.162 . S
O51 C39 1.281 . S
O52 Mn36 2.297 . S
O52 C39 1.236 . S
N53 Mn37 2.282 . S
N53 C54 1.328 . S
N53 C58 1.318 . S
C54 N53 1.328 . S
C54 C55 1.457 . S
C54 H59 0.929 . S
C55 C54 1.457 . S
C55 C56 1.291 . S
C55 H68 0.931 . S
C56 C55 1.291 . S
C56 C57 1.373 . S
C56 H69 0.929 . S
C57 C56 1.373 . S
C57 C58 1.396 . S
C57 C64 1.403 . S
C58 C48 1.476 . S
C58 N53 1.318 . S
C58 C57 1.396 . S
H59 C54 0.929 . S
O60 Mn36 2.385 . S
O60 C38 1.234 . S
O61 Mn36 2.209 . S
O61 Mn37 2.215 . S
O61 C38 1.283 . S
O62 Mn36 2.094 . S
O62 C40 1.240 . S
O63 Mn37 2.117 . S
O63 C40 1.264 . S
C64 C57 1.403 . S
C64 C65 1.399 . S
C64 H70 0.929 . S
C65 C45 1.449 . S
C65 C64 1.399 . S
C65 H71 0.930 . S
H66 C46 0.931 . S
H67 C47 0.930 . S
H68 C55 0.931 . S
H69 C56 0.929 . S
H70 C64 0.929 . S
H71 C65 0.930 . S
Mn72 O77 2.095 . S
Mn72 O87 2.162 . S
Mn72 O88 2.297 . S
Mn72 O96 2.385 . S
Mn72 O97 2.209 . S
Mn72 O98 2.094 . S
Mn73 O78 2.121 . S
Mn73 N80 2.257 . S
Mn73 N89 2.282 . S
Mn73 O97 2.215 . S
Mn73 O99 2.117 . S
C74 O96 1.234 . S
C74 O97 1.283 . S
C75 O87 1.281 . S
C75 O88 1.236 . S
C76 O98 1.240 . S
C76 O99 1.264 . S
O77 Mn72 2.095 . S
O77 C86 1.250 . S
O78 Mn73 2.121 . S
O78 C86 1.258 . S
C79 N80 1.326 . S
C79 C83 1.460 . S
C79 H85 0.929 . S
N80 Mn73 2.257 . S
N80 C79 1.326 . S
N80 C84 1.362 . S
C81 C82 1.258 . S
C81 C84 1.431 . S
C81 C101 1.449 . S
C82 C81 1.258 . S
C82 C83 1.477 . S
C82 H102 0.931 . S
C83 C79 1.460 . S
C83 C82 1.477 . S
C83 H103 0.930 . S
C84 N80 1.362 . S
C84 C81 1.431 . S
C84 C94 1.476 . S
H85 C79 0.929 . S
C86 O77 1.250 . S
C86 O78 1.258 . S
O87 Mn72 2.162 . S
O87 C75 1.281 . S
O88 Mn72 2.297 . S
O88 C75 1.236 . S
N89 Mn73 2.282 . S
N89 C90 1.328 . S
N89 C94 1.318 . S
C90 N89 1.328 . S
C90 C91 1.457 . S
C90 H95 0.929 . S
C91 C90 1.457 . S
C91 C92 1.291 . S
C91 H104 0.931 . S
C92 C91 1.291 . S
C92 C93 1.373 . S
C92 H105 0.929 . S
C93 C92 1.373 . S
C93 C94 1.396 . S
C93 C100 1.403 . S
C94 C84 1.476 . S
C94 N89 1.318 . S
C94 C93 1.396 . S
H95 C90 0.929 . S
O96 Mn72 2.385 . S
O96 C74 1.234 . S
O97 Mn72 2.209 . S
O97 Mn73 2.215 . S
O97 C74 1.283 . S
O98 Mn72 2.094 . S
O98 C76 1.240 . S
O99 Mn73 2.117 . S
O99 C76 1.264 . S
C100 C93 1.403 . S
C100 C101 1.399 . S
C100 H106 0.929 . S
C101 C81 1.449 . S
C101 C100 1.399 . S
C101 H107 0.930 . S
H102 C82 0.931 . S
H103 C83 0.930 . S
H104 C91 0.931 . S
H105 C92 0.929 . S
H106 C100 0.929 . S
H107 C101 0.930 . S
Mn108 O113 2.095 . S
Mn108 O123 2.162 . S
Mn108 O124 2.297 . S
Mn108 O132 2.385 . S
Mn108 O133 2.209 . S
Mn108 O134 2.094 . S
Mn109 O114 2.121 . S
Mn109 N116 2.257 . S
Mn109 N125 2.282 . S
Mn109 O133 2.215 . S
Mn109 O135 2.117 . S
C110 O132 1.234 . S
C110 O133 1.283 . S
C111 O123 1.281 . S
C111 O124 1.236 . S
C112 O134 1.240 . S
C112 O135 1.264 . S
O113 Mn108 2.095 . S
O113 C122 1.250 . S
O114 Mn109 2.121 . S
O114 C122 1.258 . S
C115 N116 1.326 . S
C115 C119 1.460 . S
C115 H121 0.929 . S
N116 Mn109 2.257 . S
N116 C115 1.326 . S
N116 C120 1.362 . S
C117 C118 1.258 . S
C117 C120 1.431 . S
C117 C137 1.449 . S
C118 C117 1.258 . S
C118 C119 1.477 . S
C118 H138 0.931 . S
C119 C115 1.460 . S
C119 C118 1.477 . S
C119 H139 0.930 . S
C120 N116 1.362 . S
C120 C117 1.431 . S
C120 C130 1.476 . S
H121 C115 0.929 . S
C122 O113 1.250 . S
C122 O114 1.258 . S
O123 Mn108 2.162 . S
O123 C111 1.281 . S
O124 Mn108 2.297 . S
O124 C111 1.236 . S
N125 Mn109 2.282 . S
N125 C126 1.328 . S
N125 C130 1.318 . S
C126 N125 1.328 . S
C126 C127 1.457 . S
C126 H131 0.929 . S
C127 C126 1.457 . S
C127 C128 1.291 . S
C127 H140 0.931 . S
C128 C127 1.291 . S
C128 C129 1.373 . S
C128 H141 0.929 . S
C129 C128 1.373 . S
C129 C130 1.396 . S
C129 C136 1.403 . S
C130 C120 1.476 . S
C130 N125 1.318 . S
C130 C129 1.396 . S
H131 C126 0.929 . S
O132 Mn108 2.385 . S
O132 C110 1.234 . S
O133 Mn108 2.209 . S
O133 Mn109 2.215 . S
O133 C110 1.283 . S
O134 Mn108 2.094 . S
O134 C112 1.240 . S
O135 Mn109 2.117 . S
O135 C112 1.264 . S
C136 C129 1.403 . S
C136 C137 1.399 . S
C136 H142 0.929 . S
C137 C117 1.449 . S
C137 C136 1.399 . S
C137 H143 0.930 . S
H138 C118 0.931 . S
H139 C119 0.930 . S
H140 C127 0.931 . S
H141 C128 0.929 . S
H142 C136 0.929 . S
H143 C137 0.930 . S
Mn144 O149 2.095 . S
Mn144 O159 2.162 . S
Mn144 O160 2.297 . S
Mn144 O168 2.385 . S
Mn144 O169 2.209 . S
Mn144 O170 2.094 . S
Mn145 O150 2.121 . S
Mn145 N152 2.257 . S
Mn145 N161 2.282 . S
Mn145 O169 2.215 . S
Mn145 O171 2.117 . S
C146 O168 1.234 . S
C146 O169 1.283 . S
C147 O159 1.281 . S
C147 O160 1.236 . S
C148 O170 1.240 . S
C148 O171 1.264 . S
O149 Mn144 2.095 . S
O149 C158 1.250 . S
O150 Mn145 2.121 . S
O150 C158 1.258 . S
C151 N152 1.326 . S
C151 C155 1.460 . S
C151 H157 0.929 . S
N152 Mn145 2.257 . S
N152 C151 1.326 . S
N152 C156 1.362 . S
C153 C154 1.258 . S
C153 C156 1.431 . S
C153 C173 1.449 . S
C154 C153 1.258 . S
C154 C155 1.477 . S
C154 H174 0.931 . S
C155 C151 1.460 . S
C155 C154 1.477 . S
C155 H175 0.930 . S
C156 N152 1.362 . S
C156 C153 1.431 . S
C156 C166 1.476 . S
H157 C151 0.929 . S
C158 O149 1.250 . S
C158 O150 1.258 . S
O159 Mn144 2.162 . S
O159 C147 1.281 . S
O160 Mn144 2.297 . S
O160 C147 1.236 . S
N161 Mn145 2.282 . S
N161 C162 1.328 . S
N161 C166 1.318 . S
C162 N161 1.328 . S
C162 C163 1.457 . S
C162 H167 0.929 . S
C163 C162 1.457 . S
C163 C164 1.291 . S
C163 H176 0.931 . S
C164 C163 1.291 . S
C164 C165 1.373 . S
C164 H177 0.929 . S
C165 C164 1.373 . S
C165 C166 1.396 . S
C165 C172 1.403 . S
C166 C156 1.476 . S
C166 N161 1.318 . S
C166 C165 1.396 . S
H167 C162 0.929 . S
O168 Mn144 2.385 . S
O168 C146 1.234 . S
O169 Mn144 2.209 . S
O169 Mn145 2.215 . S
O169 C146 1.283 . S
O170 Mn144 2.094 . S
O170 C148 1.240 . S
O171 Mn145 2.117 . S
O171 C148 1.264 . S
C172 C165 1.403 . S
C172 C173 1.399 . S
C172 H178 0.929 . S
C173 C153 1.449 . S
C173 C172 1.399 . S
C173 H179 0.930 . S
H174 C154 0.931 . S
H175 C155 0.930 . S
H176 C163 0.931 . S
H177 C164 0.929 . S
H178 C172 0.929 . S
H179 C173 0.930 . S
Mn180 O185 2.095 . S
Mn180 O195 2.162 . S
Mn180 O196 2.297 . S
Mn180 O204 2.385 . S
Mn180 O205 2.209 . S
Mn180 O206 2.094 . S
Mn181 O186 2.121 . S
Mn181 N188 2.257 . S
Mn181 N197 2.282 . S
Mn181 O205 2.215 . S
Mn181 O207 2.117 . S
C182 O204 1.234 . S
C182 O205 1.283 . S
C183 O195 1.281 . S
C183 O196 1.236 . S
C184 O206 1.240 . S
C184 O207 1.264 . S
O185 Mn180 2.095 . S
O185 C194 1.250 . S
O186 Mn181 2.121 . S
O186 C194 1.258 . S
C187 N188 1.326 . S
C187 C191 1.460 . S
C187 H193 0.929 . S
N188 Mn181 2.257 . S
N188 C187 1.326 . S
N188 C192 1.362 . S
C189 C190 1.258 . S
C189 C192 1.431 . S
C189 C209 1.449 . S
C190 C189 1.258 . S
C190 C191 1.477 . S
C190 H210 0.931 . S
C191 C187 1.460 . S
C191 C190 1.477 . S
C191 H211 0.930 . S
C192 N188 1.362 . S
C192 C189 1.431 . S
C192 C202 1.476 . S
H193 C187 0.929 . S
C194 O185 1.250 . S
C194 O186 1.258 . S
O195 Mn180 2.162 . S
O195 C183 1.281 . S
O196 Mn180 2.297 . S
O196 C183 1.236 . S
N197 Mn181 2.282 . S
N197 C198 1.328 . S
N197 C202 1.318 . S
C198 N197 1.328 . S
C198 C199 1.457 . S
C198 H203 0.929 . S
C199 C198 1.457 . S
C199 C200 1.291 . S
C199 H212 0.931 . S
C200 C199 1.291 . S
C200 C201 1.373 . S
C200 H213 0.929 . S
C201 C200 1.373 . S
C201 C202 1.396 . S
C201 C208 1.403 . S
C202 C192 1.476 . S
C202 N197 1.318 . S
C202 C201 1.396 . S
H203 C198 0.929 . S
O204 Mn180 2.385 . S
O204 C182 1.234 . S
O205 Mn180 2.209 . S
O205 Mn181 2.215 . S
O205 C182 1.283 . S
O206 Mn180 2.094 . S
O206 C184 1.240 . S
O207 Mn181 2.117 . S
O207 C184 1.264 . S
C208 C201 1.403 . S
C208 C209 1.399 . S
C208 H214 0.929 . S
C209 C189 1.449 . S
C209 C208 1.399 . S
C209 H215 0.930 . S
H210 C190 0.931 . S
H211 C191 0.930 . S
H212 C199 0.931 . S
H213 C200 0.929 . S
H214 C208 0.929 . S
H215 C209 0.930 . S
Mn216 O221 2.095 . S
Mn216 O231 2.162 . S
Mn216 O232 2.297 . S
Mn216 O240 2.385 . S
Mn216 O241 2.209 . S
Mn216 O242 2.094 . S
Mn217 O222 2.121 . S
Mn217 N224 2.257 . S
Mn217 N233 2.282 . S
Mn217 O241 2.215 . S
Mn217 O243 2.117 . S
C218 O240 1.234 . S
C218 O241 1.283 . S
C219 O231 1.281 . S
C219 O232 1.236 . S
C220 O242 1.240 . S
C220 O243 1.264 . S
O221 Mn216 2.095 . S
O221 C230 1.250 . S
O222 Mn217 2.121 . S
O222 C230 1.258 . S
C223 N224 1.326 . S
C223 C227 1.460 . S
C223 H229 0.929 . S
N224 Mn217 2.257 . S
N224 C223 1.326 . S
N224 C228 1.362 . S
C225 C226 1.258 . S
C225 C228 1.431 . S
C225 C245 1.449 . S
C226 C225 1.258 . S
C226 C227 1.477 . S
C226 H246 0.931 . S
C227 C223 1.460 . S
C227 C226 1.477 . S
C227 H247 0.930 . S
C228 N224 1.362 . S
C228 C225 1.431 . S
C228 C238 1.476 . S
H229 C223 0.929 . S
C230 O221 1.250 . S
C230 O222 1.258 . S
O231 Mn216 2.162 . S
O231 C219 1.281 . S
O232 Mn216 2.297 . S
O232 C219 1.236 . S
N233 Mn217 2.282 . S
N233 C234 1.328 . S
N233 C238 1.318 . S
C234 N233 1.328 . S
C234 C235 1.457 . S
C234 H239 0.929 . S
C235 C234 1.457 . S
C235 C236 1.291 . S
C235 H248 0.931 . S
C236 C235 1.291 . S
C236 C237 1.373 . S
C236 H249 0.929 . S
C237 C236 1.373 . S
C237 C238 1.396 . S
C237 C244 1.403 . S
C238 C228 1.476 . S
C238 N233 1.318 . S
C238 C237 1.396 . S
H239 C234 0.929 . S
O240 Mn216 2.385 . S
O240 C218 1.234 . S
O241 Mn216 2.209 . S
O241 Mn217 2.215 . S
O241 C218 1.283 . S
O242 Mn216 2.094 . S
O242 C220 1.240 . S
O243 Mn217 2.117 . S
O243 C220 1.264 . S
C244 C237 1.403 . S
C244 C245 1.399 . S
C244 H250 0.929 . S
C245 C225 1.449 . S
C245 C244 1.399 . S
C245 H251 0.930 . S
H246 C226 0.931 . S
H247 C227 0.930 . S
H248 C235 0.931 . S
H249 C236 0.929 . S
H250 C244 0.929 . S
H251 C245 0.930 . S
Mn252 O257 2.095 . S
Mn252 O267 2.162 . S
Mn252 O268 2.297 . S
Mn252 O276 2.385 . S
Mn252 O277 2.209 . S
Mn252 O278 2.094 . S
Mn253 O258 2.121 . S
Mn253 N260 2.257 . S
Mn253 N269 2.282 . S
Mn253 O277 2.215 . S
Mn253 O279 2.117 . S
C254 O276 1.234 . S
C254 O277 1.283 . S
C255 O267 1.281 . S
C255 O268 1.236 . S
C256 O278 1.240 . S
C256 O279 1.264 . S
O257 Mn252 2.095 . S
O257 C266 1.250 . S
O258 Mn253 2.121 . S
O258 C266 1.258 . S
C259 N260 1.326 . S
C259 C263 1.460 . S
C259 H265 0.929 . S
N260 Mn253 2.257 . S
N260 C259 1.326 . S
N260 C264 1.362 . S
C261 C262 1.258 . S
C261 C264 1.431 . S
C261 C281 1.449 . S
C262 C261 1.258 . S
C262 C263 1.477 . S
C262 H282 0.931 . S
C263 C259 1.460 . S
C263 C262 1.477 . S
C263 H283 0.930 . S
C264 N260 1.362 . S
C264 C261 1.431 . S
C264 C274 1.476 . S
H265 C259 0.929 . S
C266 O257 1.250 . S
C266 O258 1.258 . S
O267 Mn252 2.162 . S
O267 C255 1.281 . S
O268 Mn252 2.297 . S
O268 C255 1.236 . S
N269 Mn253 2.282 . S
N269 C270 1.328 . S
N269 C274 1.318 . S
C270 N269 1.328 . S
C270 C271 1.457 . S
C270 H275 0.929 . S
C271 C270 1.457 . S
C271 C272 1.291 . S
C271 H284 0.931 . S
C272 C271 1.291 . S
C272 C273 1.373 . S
C272 H285 0.929 . S
C273 C272 1.373 . S
C273 C274 1.396 . S
C273 C280 1.403 . S
C274 C264 1.476 . S
C274 N269 1.318 . S
C274 C273 1.396 . S
H275 C270 0.929 . S
O276 Mn252 2.385 . S
O276 C254 1.234 . S
O277 Mn252 2.209 . S
O277 Mn253 2.215 . S
O277 C254 1.283 . S
O278 Mn252 2.094 . S
O278 C256 1.240 . S
O279 Mn253 2.117 . S
O279 C256 1.264 . S
C280 C273 1.403 . S
C280 C281 1.399 . S
C280 H286 0.929 . S
C281 C261 1.449 . S
C281 C280 1.399 . S
C281 H287 0.930 . S
H282 C262 0.931 . S
H283 C263 0.930 . S
H284 C271 0.931 . S
H285 C272 0.929 . S
H286 C280 0.929 . S
H287 C281 0.930 . S
Mn288 O293 2.095 . S
Mn288 O303 2.162 . S
Mn288 O304 2.297 . S
Mn288 O312 2.385 . S
Mn288 O313 2.209 . S
Mn288 O314 2.094 . S
Mn289 O294 2.121 . S
Mn289 N296 2.257 . S
Mn289 N305 2.282 . S
Mn289 O313 2.215 . S
Mn289 O315 2.117 . S
C290 O312 1.234 . S
C290 O313 1.283 . S
C291 O303 1.281 . S
C291 O304 1.236 . S
C292 O314 1.240 . S
C292 O315 1.264 . S
O293 Mn288 2.095 . S
O293 C302 1.250 . S
O294 Mn289 2.121 . S
O294 C302 1.258 . S
C295 N296 1.326 . S
C295 C299 1.460 . S
C295 H301 0.929 . S
N296 Mn289 2.257 . S
N296 C295 1.326 . S
N296 C300 1.362 . S
C297 C298 1.258 . S
C297 C300 1.431 . S
C297 C317 1.449 . S
C298 C297 1.258 . S
C298 C299 1.477 . S
C298 H318 0.931 . S
C299 C295 1.460 . S
C299 C298 1.477 . S
C299 H319 0.930 . S
C300 N296 1.362 . S
C300 C297 1.431 . S
C300 C310 1.476 . S
H301 C295 0.929 . S
C302 O293 1.250 . S
C302 O294 1.258 . S
O303 Mn288 2.162 . S
O303 C291 1.281 . S
O304 Mn288 2.297 . S
O304 C291 1.236 . S
N305 Mn289 2.282 . S
N305 C306 1.328 . S
N305 C310 1.318 . S
C306 N305 1.328 . S
C306 C307 1.457 . S
C306 H311 0.929 . S
C307 C306 1.457 . S
C307 C308 1.291 . S
C307 H320 0.931 . S
C308 C307 1.291 . S
C308 C309 1.373 . S
C308 H321 0.929 . S
C309 C308 1.373 . S
C309 C310 1.396 . S
C309 C316 1.403 . S
C310 C300 1.476 . S
C310 N305 1.318 . S
C310 C309 1.396 . S
H311 C306 0.929 . S
O312 Mn288 2.385 . S
O312 C290 1.234 . S
O313 Mn288 2.209 . S
O313 Mn289 2.215 . S
O313 C290 1.283 . S
O314 Mn288 2.094 . S
O314 C292 1.240 . S
O315 Mn289 2.117 . S
O315 C292 1.264 . S
C316 C309 1.403 . S
C316 C317 1.399 . S
C316 H322 0.929 . S
C317 C297 1.449 . S
C317 C316 1.399 . S
C317 H323 0.930 . S
H318 C298 0.931 . S
H319 C299 0.930 . S
H320 C307 0.931 . S
H321 C308 0.929 . S
H322 C316 0.929 . S
H323 C317 0.930 . S
Mn324 O329 2.095 . S
Mn324 O339 2.162 . S
Mn324 O340 2.297 . S
Mn324 O348 2.385 . S
Mn324 O349 2.209 . S
Mn324 O350 2.094 . S
Mn325 O330 2.121 . S
Mn325 N332 2.257 . S
Mn325 N341 2.282 . S
Mn325 O349 2.215 . S
Mn325 O351 2.117 . S
C326 O348 1.234 . S
C326 O349 1.283 . S
C327 O339 1.281 . S
C327 O340 1.236 . S
C328 O350 1.240 . S
C328 O351 1.264 . S
O329 Mn324 2.095 . S
O329 C338 1.250 . S
O330 Mn325 2.121 . S
O330 C338 1.258 . S
C331 N332 1.326 . S
C331 C335 1.460 . S
C331 H337 0.929 . S
N332 Mn325 2.257 . S
N332 C331 1.326 . S
N332 C336 1.362 . S
C333 C334 1.258 . S
C333 C336 1.431 . S
C333 C353 1.449 . S
C334 C333 1.258 . S
C334 C335 1.477 . S
C334 H354 0.931 . S
C335 C331 1.460 . S
C335 C334 1.477 . S
C335 H355 0.930 . S
C336 N332 1.362 . S
C336 C333 1.431 . S
C336 C346 1.476 . S
H337 C331 0.929 . S
C338 O329 1.250 . S
C338 O330 1.258 . S
O339 Mn324 2.162 . S
O339 C327 1.281 . S
O340 Mn324 2.297 . S
O340 C327 1.236 . S
N341 Mn325 2.282 . S
N341 C342 1.328 . S
N341 C346 1.318 . S
C342 N341 1.328 . S
C342 C343 1.457 . S
C342 H347 0.929 . S
C343 C342 1.457 . S
C343 C344 1.291 . S
C343 H356 0.931 . S
C344 C343 1.291 . S
C344 C345 1.373 . S
C344 H357 0.929 . S
C345 C344 1.373 . S
C345 C346 1.396 . S
C345 C352 1.403 . S
C346 C336 1.476 . S
C346 N341 1.318 . S
C346 C345 1.396 . S
H347 C342 0.929 . S
O348 Mn324 2.385 . S
O348 C326 1.234 . S
O349 Mn324 2.209 . S
O349 Mn325 2.215 . S
O349 C326 1.283 . S
O350 Mn324 2.094 . S
O350 C328 1.240 . S
O351 Mn325 2.117 . S
O351 C328 1.264 . S
C352 C345 1.403 . S
C352 C353 1.399 . S
C352 H358 0.929 . S
C353 C333 1.449 . S
C353 C352 1.399 . S
C353 H359 0.930 . S
H354 C334 0.931 . S
H355 C335 0.930 . S
H356 C343 0.931 . S
H357 C344 0.929 . S
H358 C352 0.929 . S
H359 C353 0.930 . S
Mn360 O365 2.095 . S
Mn360 O375 2.162 . S
Mn360 O376 2.297 . S
Mn360 O384 2.385 . S
Mn360 O385 2.209 . S
Mn360 O386 2.094 . S
Mn361 O366 2.121 . S
Mn361 N368 2.257 . S
Mn361 N377 2.282 . S
Mn361 O385 2.215 . S
Mn361 O387 2.117 . S
C362 O384 1.234 . S
C362 O385 1.283 . S
C363 O375 1.281 . S
C363 O376 1.236 . S
C364 O386 1.240 . S
C364 O387 1.264 . S
O365 Mn360 2.095 . S
O365 C374 1.250 . S
O366 Mn361 2.121 . S
O366 C374 1.258 . S
C367 N368 1.326 . S
C367 C371 1.460 . S
C367 H373 0.929 . S
N368 Mn361 2.257 . S
N368 C367 1.326 . S
N368 C372 1.362 . S
C369 C370 1.258 . S
C369 C372 1.431 . S
C369 C389 1.449 . S
C370 C369 1.258 . S
C370 C371 1.477 . S
C370 H390 0.931 . S
C371 C367 1.460 . S
C371 C370 1.477 . S
C371 H391 0.930 . S
C372 N368 1.362 . S
C372 C369 1.431 . S
C372 C382 1.476 . S
H373 C367 0.929 . S
C374 O365 1.250 . S
C374 O366 1.258 . S
O375 Mn360 2.162 . S
O375 C363 1.281 . S
O376 Mn360 2.297 . S
O376 C363 1.236 . S
N377 Mn361 2.282 . S
N377 C378 1.328 . S
N377 C382 1.318 . S
C378 N377 1.328 . S
C378 C379 1.457 . S
C378 H383 0.929 . S
C379 C378 1.457 . S
C379 C380 1.291 . S
C379 H392 0.931 . S
C380 C379 1.291 . S
C380 C381 1.373 . S
C380 H393 0.929 . S
C381 C380 1.373 . S
C381 C382 1.396 . S
C381 C388 1.403 . S
C382 C372 1.476 . S
C382 N377 1.318 . S
C382 C381 1.396 . S
H383 C378 0.929 . S
O384 Mn360 2.385 . S
O384 C362 1.234 . S
O385 Mn360 2.209 . S
O385 Mn361 2.215 . S
O385 C362 1.283 . S
O386 Mn360 2.094 . S
O386 C364 1.240 . S
O387 Mn361 2.117 . S
O387 C364 1.264 . S
C388 C381 1.403 . S
C388 C389 1.399 . S
C388 H394 0.929 . S
C389 C369 1.449 . S
C389 C388 1.399 . S
C389 H395 0.930 . S
H390 C370 0.931 . S
H391 C371 0.930 . S
H392 C379 0.931 . S
H393 C380 0.929 . S
H394 C388 0.929 . S
H395 C389 0.930 . S
Mn396 O401 2.095 . S
Mn396 O411 2.162 . S
Mn396 O412 2.297 . S
Mn396 O420 2.385 . S
Mn396 O421 2.209 . S
Mn396 O422 2.094 . S
Mn397 O402 2.121 . S
Mn397 N404 2.257 . S
Mn397 N413 2.282 . S
Mn397 O421 2.215 . S
Mn397 O423 2.117 . S
C398 O420 1.234 . S
C398 O421 1.283 . S
C399 O411 1.281 . S
C399 O412 1.236 . S
C400 O422 1.240 . S
C400 O423 1.264 . S
O401 Mn396 2.095 . S
O401 C410 1.250 . S
O402 Mn397 2.121 . S
O402 C410 1.258 . S
C403 N404 1.326 . S
C403 C407 1.460 . S
C403 H409 0.929 . S
N404 Mn397 2.257 . S
N404 C403 1.326 . S
N404 C408 1.362 . S
C405 C406 1.258 . S
C405 C408 1.431 . S
C405 C425 1.449 . S
C406 C405 1.258 . S
C406 C407 1.477 . S
C406 H426 0.931 . S
C407 C403 1.460 . S
C407 C406 1.477 . S
C407 H427 0.930 . S
C408 N404 1.362 . S
C408 C405 1.431 . S
C408 C418 1.476 . S
H409 C403 0.929 . S
C410 O401 1.250 . S
C410 O402 1.258 . S
O411 Mn396 2.162 . S
O411 C399 1.281 . S
O412 Mn396 2.297 . S
O412 C399 1.236 . S
N413 Mn397 2.282 . S
N413 C414 1.328 . S
N413 C418 1.318 . S
C414 N413 1.328 . S
C414 C415 1.457 . S
C414 H419 0.929 . S
C415 C414 1.457 . S
C415 C416 1.291 . S
C415 H428 0.931 . S
C416 C415 1.291 . S
C416 C417 1.373 . S
C416 H429 0.929 . S
C417 C416 1.373 . S
C417 C418 1.396 . S
C417 C424 1.403 . S
C418 C408 1.476 . S
C418 N413 1.318 . S
C418 C417 1.396 . S
H419 C414 0.929 . S
O420 Mn396 2.385 . S
O420 C398 1.234 . S
O421 Mn396 2.209 . S
O421 Mn397 2.215 . S
O421 C398 1.283 . S
O422 Mn396 2.094 . S
O422 C400 1.240 . S
O423 Mn397 2.117 . S
O423 C400 1.264 . S
C424 C417 1.403 . S
C424 C425 1.399 . S
C424 H430 0.929 . S
C425 C405 1.449 . S
C425 C424 1.399 . S
C425 H431 0.930 . S
H426 C406 0.931 . S
H427 C407 0.930 . S
H428 C415 0.931 . S
H429 C416 0.929 . S
H430 C424 0.929 . S
H431 C425 0.930 . S
Mn432 O437 2.095 . S
Mn432 O447 2.162 . S
Mn432 O448 2.297 . S
Mn432 O456 2.385 . S
Mn432 O457 2.209 . S
Mn432 O458 2.094 . S
Mn433 O438 2.121 . S
Mn433 N440 2.257 . S
Mn433 N449 2.282 . S
Mn433 O457 2.215 . S
Mn433 O459 2.117 . S
C434 O456 1.234 . S
C434 O457 1.283 . S
C435 O447 1.281 . S
C435 O448 1.236 . S
C436 O458 1.240 . S
C436 O459 1.264 . S
O437 Mn432 2.095 . S
O437 C446 1.250 . S
O438 Mn433 2.121 . S
O438 C446 1.258 . S
C439 N440 1.326 . S
C439 C443 1.460 . S
C439 H445 0.929 . S
N440 Mn433 2.257 . S
N440 C439 1.326 . S
N440 C444 1.362 . S
C441 C442 1.258 . S
C441 C444 1.431 . S
C441 C461 1.449 . S
C442 C441 1.258 . S
C442 C443 1.477 . S
C442 H462 0.931 . S
C443 C439 1.460 . S
C443 C442 1.477 . S
C443 H463 0.930 . S
C444 N440 1.362 . S
C444 C441 1.431 . S
C444 C454 1.476 . S
H445 C439 0.929 . S
C446 O437 1.250 . S
C446 O438 1.258 . S
O447 Mn432 2.162 . S
O447 C435 1.281 . S
O448 Mn432 2.297 . S
O448 C435 1.236 . S
N449 Mn433 2.282 . S
N449 C450 1.328 . S
N449 C454 1.318 . S
C450 N449 1.328 . S
C450 C451 1.457 . S
C450 H455 0.929 . S
C451 C450 1.457 . S
C451 C452 1.291 . S
C451 H464 0.931 . S
C452 C451 1.291 . S
C452 C453 1.373 . S
C452 H465 0.929 . S
C453 C452 1.373 . S
C453 C454 1.396 . S
C453 C460 1.403 . S
C454 C444 1.476 . S
C454 N449 1.318 . S
C454 C453 1.396 . S
H455 C450 0.929 . S
O456 Mn432 2.385 . S
O456 C434 1.234 . S
O457 Mn432 2.209 . S
O457 Mn433 2.215 . S
O457 C434 1.283 . S
O458 Mn432 2.094 . S
O458 C436 1.240 . S
O459 Mn433 2.117 . S
O459 C436 1.264 . S
C460 C453 1.403 . S
C460 C461 1.399 . S
C460 H466 0.929 . S
C461 C441 1.449 . S
C461 C460 1.399 . S
C461 H467 0.930 . S
H462 C442 0.931 . S
H463 C443 0.930 . S
H464 C451 0.931 . S
H465 C452 0.929 . S
H466 C460 0.929 . S
H467 C461 0.930 . S
Mn468 O473 2.095 . S
Mn468 O483 2.162 . S
Mn468 O484 2.297 . S
Mn468 O492 2.385 . S
Mn468 O493 2.209 . S
Mn468 O494 2.094 . S
Mn469 O474 2.121 . S
Mn469 N476 2.257 . S
Mn469 N485 2.282 . S
Mn469 O493 2.215 . S
Mn469 O495 2.117 . S
C470 O492 1.234 . S
C470 O493 1.283 . S
C471 O483 1.281 . S
C471 O484 1.236 . S
C472 O494 1.240 . S
C472 O495 1.264 . S
O473 Mn468 2.095 . S
O473 C482 1.250 . S
O474 Mn469 2.121 . S
O474 C482 1.258 . S
C475 N476 1.326 . S
C475 C479 1.460 . S
C475 H481 0.929 . S
N476 Mn469 2.257 . S
N476 C475 1.326 . S
N476 C480 1.362 . S
C477 C478 1.258 . S
C477 C480 1.431 . S
C477 C497 1.449 . S
C478 C477 1.258 . S
C478 C479 1.477 . S
C478 H498 0.931 . S
C479 C475 1.460 . S
C479 C478 1.477 . S
C479 H499 0.930 . S
C480 N476 1.362 . S
C480 C477 1.431 . S
C480 C490 1.476 . S
H481 C475 0.929 . S
C482 O473 1.250 . S
C482 O474 1.258 . S
O483 Mn468 2.162 . S
O483 C471 1.281 . S
O484 Mn468 2.297 . S
O484 C471 1.236 . S
N485 Mn469 2.282 . S
N485 C486 1.328 . S
N485 C490 1.318 . S
C486 N485 1.328 . S
C486 C487 1.457 . S
C486 H491 0.929 . S
C487 C486 1.457 . S
C487 C488 1.291 . S
C487 H500 0.931 . S
C488 C487 1.291 . S
C488 C489 1.373 . S
C488 H501 0.929 . S
C489 C488 1.373 . S
C489 C490 1.396 . S
C489 C496 1.403 . S
C490 C480 1.476 . S
C490 N485 1.318 . S
C490 C489 1.396 . S
H491 C486 0.929 . S
O492 Mn468 2.385 . S
O492 C470 1.234 . S
O493 Mn468 2.209 . S
O493 Mn469 2.215 . S
O493 C470 1.283 . S
O494 Mn468 2.094 . S
O494 C472 1.240 . S
O495 Mn469 2.117 . S
O495 C472 1.264 . S
C496 C489 1.403 . S
C496 C497 1.399 . S
C496 H502 0.929 . S
C497 C477 1.449 . S
C497 C496 1.399 . S
C497 H503 0.930 . S
H498 C478 0.931 . S
H499 C479 0.930 . S
H500 C487 0.931 . S
H501 C488 0.929 . S
H502 C496 0.929 . S
H503 C497 0.930 . S
Mn504 O509 2.095 . S
Mn504 O519 2.162 . S
Mn504 O520 2.297 . S
Mn504 O528 2.385 . S
Mn504 O529 2.209 . S
Mn504 O530 2.094 . S
Mn505 O510 2.121 . S
Mn505 N512 2.257 . S
Mn505 N521 2.282 . S
Mn505 O529 2.215 . S
Mn505 O531 2.117 . S
C506 O528 1.234 . S
C506 O529 1.283 . S
C507 O519 1.281 . S
C507 O520 1.236 . S
C508 O530 1.240 . S
C508 O531 1.264 . S
O509 Mn504 2.095 . S
O509 C518 1.250 . S
O510 Mn505 2.121 . S
O510 C518 1.258 . S
C511 N512 1.326 . S
C511 C515 1.460 . S
C511 H517 0.929 . S
N512 Mn505 2.257 . S
N512 C511 1.326 . S
N512 C516 1.362 . S
C513 C514 1.258 . S
C513 C516 1.431 . S
C513 C533 1.449 . S
C514 C513 1.258 . S
C514 C515 1.477 . S
C514 H534 0.931 . S
C515 C511 1.460 . S
C515 C514 1.477 . S
C515 H535 0.930 . S
C516 N512 1.362 . S
C516 C513 1.431 . S
C516 C526 1.476 . S
H517 C511 0.929 . S
C518 O509 1.250 . S
C518 O510 1.258 . S
O519 Mn504 2.162 . S
O519 C507 1.281 . S
O520 Mn504 2.297 . S
O520 C507 1.236 . S
N521 Mn505 2.282 . S
N521 C522 1.328 . S
N521 C526 1.318 . S
C522 N521 1.328 . S
C522 C523 1.457 . S
C522 H527 0.929 . S
C523 C522 1.457 . S
C523 C524 1.291 . S
C523 H536 0.931 . S
C524 C523 1.291 . S
C524 C525 1.373 . S
C524 H537 0.929 . S
C525 C524 1.373 . S
C525 C526 1.396 . S
C525 C532 1.403 . S
C526 C516 1.476 . S
C526 N521 1.318 . S
C526 C525 1.396 . S
H527 C522 0.929 . S
O528 Mn504 2.385 . S
O528 C506 1.234 . S
O529 Mn504 2.209 . S
O529 Mn505 2.215 . S
O529 C506 1.283 . S
O530 Mn504 2.094 . S
O530 C508 1.240 . S
O531 Mn505 2.117 . S
O531 C508 1.264 . S
C532 C525 1.403 . S
C532 C533 1.399 . S
C532 H538 0.929 . S
C533 C513 1.449 . S
C533 C532 1.399 . S
C533 H539 0.930 . S
H534 C514 0.931 . S
H535 C515 0.930 . S
H536 C523 0.931 . S
H537 C524 0.929 . S
H538 C532 0.929 . S
H539 C533 0.930 . S
Mn540 O545 2.095 . S
Mn540 O555 2.162 . S
Mn540 O556 2.297 . S
Mn540 O564 2.385 . S
Mn540 O565 2.209 . S
Mn540 O566 2.094 . S
Mn541 O546 2.121 . S
Mn541 N548 2.257 . S
Mn541 N557 2.282 . S
Mn541 O565 2.215 . S
Mn541 O567 2.117 . S
C542 O564 1.234 . S
C542 O565 1.283 . S
C543 O555 1.281 . S
C543 O556 1.236 . S
C544 O566 1.240 . S
C544 O567 1.264 . S
O545 Mn540 2.095 . S
O545 C554 1.250 . S
O546 Mn541 2.121 . S
O546 C554 1.258 . S
C547 N548 1.326 . S
C547 C551 1.460 . S
C547 H553 0.929 . S
N548 Mn541 2.257 . S
N548 C547 1.326 . S
N548 C552 1.362 . S
C549 C550 1.258 . S
C549 C552 1.431 . S
C549 C569 1.449 . S
C550 C549 1.258 . S
C550 C551 1.477 . S
C550 H570 0.931 . S
C551 C547 1.460 . S
C551 C550 1.477 . S
C551 H571 0.930 . S
C552 N548 1.362 . S
C552 C549 1.431 . S
C552 C562 1.476 . S
H553 C547 0.929 . S
C554 O545 1.250 . S
C554 O546 1.258 . S
O555 Mn540 2.162 . S
O555 C543 1.281 . S
O556 Mn540 2.297 . S
O556 C543 1.236 . S
N557 Mn541 2.282 . S
N557 C558 1.328 . S
N557 C562 1.318 . S
C558 N557 1.328 . S
C558 C559 1.457 . S
C558 H563 0.929 . S
C559 C558 1.457 . S
C559 C560 1.291 . S
C559 H572 0.931 . S
C560 C559 1.291 . S
C560 C561 1.373 . S
C560 H573 0.929 . S
C561 C560 1.373 . S
C561 C562 1.396 . S
C561 C568 1.403 . S
C562 C552 1.476 . S
C562 N557 1.318 . S
C562 C561 1.396 . S
H563 C558 0.929 . S
O564 Mn540 2.385 . S
O564 C542 1.234 . S
O565 Mn540 2.209 . S
O565 Mn541 2.215 . S
O565 C542 1.283 . S
O566 Mn540 2.094 . S
O566 C544 1.240 . S
O567 Mn541 2.117 . S
O567 C544 1.264 . S
C568 C561 1.403 . S
C568 C569 1.399 . S
C568 H574 0.929 . S
C569 C549 1.449 . S
C569 C568 1.399 . S
C569 H575 0.930 . S
H570 C550 0.931 . S
H571 C551 0.930 . S
H572 C559 0.931 . S
H573 C560 0.929 . S
H574 C568 0.929 . S
H575 C569 0.930 . S
Mn576 O581 2.095 . S
Mn576 O591 2.162 . S
Mn576 O592 2.297 . S
Mn576 O600 2.385 . S
Mn576 O601 2.209 . S
Mn576 O602 2.094 . S
Mn577 O582 2.121 . S
Mn577 N584 2.257 . S
Mn577 N593 2.282 . S
Mn577 O601 2.215 . S
Mn577 O603 2.117 . S
C578 O600 1.234 . S
C578 O601 1.283 . S
C579 O591 1.281 . S
C579 O592 1.236 . S
C580 O602 1.240 . S
C580 O603 1.264 . S
O581 Mn576 2.095 . S
O581 C590 1.250 . S
O582 Mn577 2.121 . S
O582 C590 1.258 . S
C583 N584 1.326 . S
C583 C587 1.460 . S
C583 H589 0.929 . S
N584 Mn577 2.257 . S
N584 C583 1.326 . S
N584 C588 1.362 . S
C585 C586 1.258 . S
C585 C588 1.431 . S
C585 C605 1.449 . S
C586 C585 1.258 . S
C586 C587 1.477 . S
C586 H606 0.931 . S
C587 C583 1.460 . S
C587 C586 1.477 . S
C587 H607 0.930 . S
C588 N584 1.362 . S
C588 C585 1.431 . S
C588 C598 1.476 . S
H589 C583 0.929 . S
C590 O581 1.250 . S
C590 O582 1.258 . S
O591 Mn576 2.162 . S
O591 C579 1.281 . S
O592 Mn576 2.297 . S
O592 C579 1.236 . S
N593 Mn577 2.282 . S
N593 C594 1.328 . S
N593 C598 1.318 . S
C594 N593 1.328 . S
C594 C595 1.457 . S
C594 H599 0.929 . S
C595 C594 1.457 . S
C595 C596 1.291 . S
C595 H608 0.931 . S
C596 C595 1.291 . S
C596 C597 1.373 . S
C596 H609 0.929 . S
C597 C596 1.373 . S
C597 C598 1.396 . S
C597 C604 1.403 . S
C598 C588 1.476 . S
C598 N593 1.318 . S
C598 C597 1.396 . S
H599 C594 0.929 . S
O600 Mn576 2.385 . S
O600 C578 1.234 . S
O601 Mn576 2.209 . S
O601 Mn577 2.215 . S
O601 C578 1.283 . S
O602 Mn576 2.094 . S
O602 C580 1.240 . S
O603 Mn577 2.117 . S
O603 C580 1.264 . S
C604 C597 1.403 . S
C604 C605 1.399 . S
C604 H610 0.929 . S
C605 C585 1.449 . S
C605 C604 1.399 . S
C605 H611 0.930 . S
H606 C586 0.931 . S
H607 C587 0.930 . S
H608 C595 0.931 . S
H609 C596 0.929 . S
H610 C604 0.929 . S
H611 C605 0.930 . S
Mn612 O617 2.095 . S
Mn612 O627 2.162 . S
Mn612 O628 2.297 . S
Mn612 O636 2.385 . S
Mn612 O637 2.209 . S
Mn612 O638 2.094 . S
Mn613 O618 2.121 . S
Mn613 N620 2.257 . S
Mn613 N629 2.282 . S
Mn613 O637 2.215 . S
Mn613 O639 2.117 . S
C614 O636 1.234 . S
C614 O637 1.283 . S
C615 O627 1.281 . S
C615 O628 1.236 . S
C616 O638 1.240 . S
C616 O639 1.264 . S
O617 Mn612 2.095 . S
O617 C626 1.250 . S
O618 Mn613 2.121 . S
O618 C626 1.258 . S
C619 N620 1.326 . S
C619 C623 1.460 . S
C619 H625 0.929 . S
N620 Mn613 2.257 . S
N620 C619 1.326 . S
N620 C624 1.362 . S
C621 C622 1.258 . S
C621 C624 1.431 . S
C621 C641 1.449 . S
C622 C621 1.258 . S
C622 C623 1.477 . S
C622 H642 0.931 . S
C623 C619 1.460 . S
C623 C622 1.477 . S
C623 H643 0.930 . S
C624 N620 1.362 . S
C624 C621 1.431 . S
C624 C634 1.476 . S
H625 C619 0.929 . S
C626 O617 1.250 . S
C626 O618 1.258 . S
O627 Mn612 2.162 . S
O627 C615 1.281 . S
O628 Mn612 2.297 . S
O628 C615 1.236 . S
N629 Mn613 2.282 . S
N629 C630 1.328 . S
N629 C634 1.318 . S
C630 N629 1.328 . S
C630 C631 1.457 . S
C630 H635 0.929 . S
C631 C630 1.457 . S
C631 C632 1.291 . S
C631 H644 0.931 . S
C632 C631 1.291 . S
C632 C633 1.373 . S
C632 H645 0.929 . S
C633 C632 1.373 . S
C633 C634 1.396 . S
C633 C640 1.403 . S
C634 C624 1.476 . S
C634 N629 1.318 . S
C634 C633 1.396 . S
H635 C630 0.929 . S
O636 Mn612 2.385 . S
O636 C614 1.234 . S
O637 Mn612 2.209 . S
O637 Mn613 2.215 . S
O637 C614 1.283 . S
O638 Mn612 2.094 . S
O638 C616 1.240 . S
O639 Mn613 2.117 . S
O639 C616 1.264 . S
C640 C633 1.403 . S
C640 C641 1.399 . S
C640 H646 0.929 . S
C641 C621 1.449 . S
C641 C640 1.399 . S
C641 H647 0.930 . S
H642 C622 0.931 . S
H643 C623 0.930 . S
H644 C631 0.931 . S
H645 C632 0.929 . S
H646 C640 0.929 . S
H647 C641 0.930 . S
Mn648 O653 2.095 . S
Mn648 O663 2.162 . S
Mn648 O664 2.297 . S
Mn648 O672 2.385 . S
Mn648 O673 2.209 . S
Mn648 O674 2.094 . S
Mn649 O654 2.121 . S
Mn649 N656 2.257 . S
Mn649 N665 2.282 . S
Mn649 O673 2.215 . S
Mn649 O675 2.117 . S
C650 O672 1.234 . S
C650 O673 1.283 . S
C651 O663 1.281 . S
C651 O664 1.236 . S
C652 O674 1.240 . S
C652 O675 1.264 . S
O653 Mn648 2.095 . S
O653 C662 1.250 . S
O654 Mn649 2.121 . S
O654 C662 1.258 . S
C655 N656 1.326 . S
C655 C659 1.460 . S
C655 H661 0.929 . S
N656 Mn649 2.257 . S
N656 C655 1.326 . S
N656 C660 1.362 . S
C657 C658 1.258 . S
C657 C660 1.431 . S
C657 C677 1.449 . S
C658 C657 1.258 . S
C658 C659 1.477 . S
C658 H678 0.931 . S
C659 C655 1.460 . S
C659 C658 1.477 . S
C659 H679 0.930 . S
C660 N656 1.362 . S
C660 C657 1.431 . S
C660 C670 1.476 . S
H661 C655 0.929 . S
C662 O653 1.250 . S
C662 O654 1.258 . S
O663 Mn648 2.162 . S
O663 C651 1.281 . S
O664 Mn648 2.297 . S
O664 C651 1.236 . S
N665 Mn649 2.282 . S
N665 C666 1.328 . S
N665 C670 1.318 . S
C666 N665 1.328 . S
C666 C667 1.457 . S
C666 H671 0.929 . S
C667 C666 1.457 . S
C667 C668 1.291 . S
C667 H680 0.931 . S
C668 C667 1.291 . S
C668 C669 1.373 . S
C668 H681 0.929 . S
C669 C668 1.373 . S
C669 C670 1.396 . S
C669 C676 1.403 . S
C670 C660 1.476 . S
C670 N665 1.318 . S
C670 C669 1.396 . S
H671 C666 0.929 . S
O672 Mn648 2.385 . S
O672 C650 1.234 . S
O673 Mn648 2.209 . S
O673 Mn649 2.215 . S
O673 C650 1.283 . S
O674 Mn648 2.094 . S
O674 C652 1.240 . S
O675 Mn649 2.117 . S
O675 C652 1.264 . S
C676 C669 1.403 . S
C676 C677 1.399 . S
C676 H682 0.929 . S
C677 C657 1.449 . S
C677 C676 1.399 . S
C677 H683 0.930 . S
H678 C658 0.931 . S
H679 C659 0.930 . S
H680 C667 0.931 . S
H681 C668 0.929 . S
H682 C676 0.929 . S
H683 C677 0.930 . S
Mn684 O689 2.095 . S
Mn684 O699 2.162 . S
Mn684 O700 2.297 . S
Mn684 O708 2.385 . S
Mn684 O709 2.209 . S
Mn684 O710 2.094 . S
Mn685 O690 2.121 . S
Mn685 N692 2.257 . S
Mn685 N701 2.282 . S
Mn685 O709 2.215 . S
Mn685 O711 2.117 . S
C686 O708 1.234 . S
C686 O709 1.283 . S
C687 O699 1.281 . S
C687 O700 1.236 . S
C688 O710 1.240 . S
C688 O711 1.264 . S
O689 Mn684 2.095 . S
O689 C698 1.250 . S
O690 Mn685 2.121 . S
O690 C698 1.258 . S
C691 N692 1.326 . S
C691 C695 1.460 . S
C691 H697 0.929 . S
N692 Mn685 2.257 . S
N692 C691 1.326 . S
N692 C696 1.362 . S
C693 C694 1.258 . S
C693 C696 1.431 . S
C693 C713 1.449 . S
C694 C693 1.258 . S
C694 C695 1.477 . S
C694 H714 0.931 . S
C695 C691 1.460 . S
C695 C694 1.477 . S
C695 H715 0.930 . S
C696 N692 1.362 . S
C696 C693 1.431 . S
C696 C706 1.476 . S
H697 C691 0.929 . S
C698 O689 1.250 . S
C698 O690 1.258 . S
O699 Mn684 2.162 . S
O699 C687 1.281 . S
O700 Mn684 2.297 . S
O700 C687 1.236 . S
N701 Mn685 2.282 . S
N701 C702 1.328 . S
N701 C706 1.318 . S
C702 N701 1.328 . S
C702 C703 1.457 . S
C702 H707 0.929 . S
C703 C702 1.457 . S
C703 C704 1.291 . S
C703 H716 0.931 . S
C704 C703 1.291 . S
C704 C705 1.373 . S
C704 H717 0.929 . S
C705 C704 1.373 . S
C705 C706 1.396 . S
C705 C712 1.403 . S
C706 C696 1.476 . S
C706 N701 1.318 . S
C706 C705 1.396 . S
H707 C702 0.929 . S
O708 Mn684 2.385 . S
O708 C686 1.234 . S
O709 Mn684 2.209 . S
O709 Mn685 2.215 . S
O709 C686 1.283 . S
O710 Mn684 2.094 . S
O710 C688 1.240 . S
O711 Mn685 2.117 . S
O711 C688 1.264 . S
C712 C705 1.403 . S
C712 C713 1.399 . S
C712 H718 0.929 . S
C713 C693 1.449 . S
C713 C712 1.399 . S
C713 H719 0.930 . S
H714 C694 0.931 . S
H715 C695 0.930 . S
H716 C703 0.931 . S
H717 C704 0.929 . S
H718 C712 0.929 . S
H719 C713 0.930 . S
Mn720 O725 2.095 . S
Mn720 O735 2.162 . S
Mn720 O736 2.297 . S
Mn720 O744 2.385 . S
Mn720 O745 2.209 . S
Mn720 O746 2.094 . S
Mn721 O726 2.121 . S
Mn721 N728 2.257 . S
Mn721 N737 2.282 . S
Mn721 O745 2.215 . S
Mn721 O747 2.117 . S
C722 O744 1.234 . S
C722 O745 1.283 . S
C723 O735 1.281 . S
C723 O736 1.236 . S
C724 O746 1.240 . S
C724 O747 1.264 . S
O725 Mn720 2.095 . S
O725 C734 1.250 . S
O726 Mn721 2.121 . S
O726 C734 1.258 . S
C727 N728 1.326 . S
C727 C731 1.460 . S
C727 H733 0.929 . S
N728 Mn721 2.257 . S
N728 C727 1.326 . S
N728 C732 1.362 . S
C729 C730 1.258 . S
C729 C732 1.431 . S
C729 C749 1.449 . S
C730 C729 1.258 . S
C730 C731 1.477 . S
C730 H750 0.931 . S
C731 C727 1.460 . S
C731 C730 1.477 . S
C731 H751 0.930 . S
C732 N728 1.362 . S
C732 C729 1.431 . S
C732 C742 1.476 . S
H733 C727 0.929 . S
C734 O725 1.250 . S
C734 O726 1.258 . S
O735 Mn720 2.162 . S
O735 C723 1.281 . S
O736 Mn720 2.297 . S
O736 C723 1.236 . S
N737 Mn721 2.282 . S
N737 C738 1.328 . S
N737 C742 1.318 . S
C738 N737 1.328 . S
C738 C739 1.457 . S
C738 H743 0.929 . S
C739 C738 1.457 . S
C739 C740 1.291 . S
C739 H752 0.931 . S
C740 C739 1.291 . S
C740 C741 1.373 . S
C740 H753 0.929 . S
C741 C740 1.373 . S
C741 C742 1.396 . S
C741 C748 1.403 . S
C742 C732 1.476 . S
C742 N737 1.318 . S
C742 C741 1.396 . S
H743 C738 0.929 . S
O744 Mn720 2.385 . S
O744 C722 1.234 . S
O745 Mn720 2.209 . S
O745 Mn721 2.215 . S
O745 C722 1.283 . S
O746 Mn720 2.094 . S
O746 C724 1.240 . S
O747 Mn721 2.117 . S
O747 C724 1.264 . S
C748 C741 1.403 . S
C748 C749 1.399 . S
C748 H754 0.929 . S
C749 C729 1.449 . S
C749 C748 1.399 . S
C749 H755 0.930 . S
H750 C730 0.931 . S
H751 C731 0.930 . S
H752 C739 0.931 . S
H753 C740 0.929 . S
H754 C748 0.929 . S
H755 C749 0.930 . S
Mn756 O761 2.095 . S
Mn756 O771 2.162 . S
Mn756 O772 2.297 . S
Mn756 O780 2.385 . S
Mn756 O781 2.209 . S
Mn756 O782 2.094 . S
Mn757 O762 2.121 . S
Mn757 N764 2.257 . S
Mn757 N773 2.282 . S
Mn757 O781 2.215 . S
Mn757 O783 2.117 . S
C758 O780 1.234 . S
C758 O781 1.283 . S
C759 O771 1.281 . S
C759 O772 1.236 . S
C760 O782 1.240 . S
C760 O783 1.264 . S
O761 Mn756 2.095 . S
O761 C770 1.250 . S
O762 Mn757 2.121 . S
O762 C770 1.258 . S
C763 N764 1.326 . S
C763 C767 1.460 . S
C763 H769 0.929 . S
N764 Mn757 2.257 . S
N764 C763 1.326 . S
N764 C768 1.362 . S
C765 C766 1.258 . S
C765 C768 1.431 . S
C765 C785 1.449 . S
C766 C765 1.258 . S
C766 C767 1.477 . S
C766 H786 0.931 . S
C767 C763 1.460 . S
C767 C766 1.477 . S
C767 H787 0.930 . S
C768 N764 1.362 . S
C768 C765 1.431 . S
C768 C778 1.476 . S
H769 C763 0.929 . S
C770 O761 1.250 . S
C770 O762 1.258 . S
O771 Mn756 2.162 . S
O771 C759 1.281 . S
O772 Mn756 2.297 . S
O772 C759 1.236 . S
N773 Mn757 2.282 . S
N773 C774 1.328 . S
N773 C778 1.318 . S
C774 N773 1.328 . S
C774 C775 1.457 . S
C774 H779 0.929 . S
C775 C774 1.457 . S
C775 C776 1.291 . S
C775 H788 0.931 . S
C776 C775 1.291 . S
C776 C777 1.373 . S
C776 H789 0.929 . S
C777 C776 1.373 . S
C777 C778 1.396 . S
C777 C784 1.403 . S
C778 C768 1.476 . S
C778 N773 1.318 . S
C778 C777 1.396 . S
H779 C774 0.929 . S
O780 Mn756 2.385 . S
O780 C758 1.234 . S
O781 Mn756 2.209 . S
O781 Mn757 2.215 . S
O781 C758 1.283 . S
O782 Mn756 2.094 . S
O782 C760 1.240 . S
O783 Mn757 2.117 . S
O783 C760 1.264 . S
C784 C777 1.403 . S
C784 C785 1.399 . S
C784 H790 0.929 . S
C785 C765 1.449 . S
C785 C784 1.399 . S
C785 H791 0.930 . S
H786 C766 0.931 . S
H787 C767 0.930 . S
H788 C775 0.931 . S
H789 C776 0.929 . S
H790 C784 0.929 . S
H791 C785 0.930 . S
Mn792 O797 2.095 . S
Mn792 O807 2.162 . S
Mn792 O808 2.297 . S
Mn792 O816 2.385 . S
Mn792 O817 2.209 . S
Mn792 O818 2.094 . S
Mn793 O798 2.121 . S
Mn793 N800 2.257 . S
Mn793 N809 2.282 . S
Mn793 O817 2.215 . S
Mn793 O819 2.117 . S
C794 O816 1.234 . S
C794 O817 1.283 . S
C795 O807 1.281 . S
C795 O808 1.236 . S
C796 O818 1.240 . S
C796 O819 1.264 . S
O797 Mn792 2.095 . S
O797 C806 1.250 . S
O798 Mn793 2.121 . S
O798 C806 1.258 . S
C799 N800 1.326 . S
C799 C803 1.460 . S
C799 H805 0.929 . S
N800 Mn793 2.257 . S
N800 C799 1.326 . S
N800 C804 1.362 . S
C801 C802 1.258 . S
C801 C804 1.431 . S
C801 C821 1.449 . S
C802 C801 1.258 . S
C802 C803 1.477 . S
C802 H822 0.931 . S
C803 C799 1.460 . S
C803 C802 1.477 . S
C803 H823 0.930 . S
C804 N800 1.362 . S
C804 C801 1.431 . S
C804 C814 1.476 . S
H805 C799 0.929 . S
C806 O797 1.250 . S
C806 O798 1.258 . S
O807 Mn792 2.162 . S
O807 C795 1.281 . S
O808 Mn792 2.297 . S
O808 C795 1.236 . S
N809 Mn793 2.282 . S
N809 C810 1.328 . S
N809 C814 1.318 . S
C810 N809 1.328 . S
C810 C811 1.457 . S
C810 H815 0.929 . S
C811 C810 1.457 . S
C811 C812 1.291 . S
C811 H824 0.931 . S
C812 C811 1.291 . S
C812 C813 1.373 . S
C812 H825 0.929 . S
C813 C812 1.373 . S
C813 C814 1.396 . S
C813 C820 1.403 . S
C814 C804 1.476 . S
C814 N809 1.318 . S
C814 C813 1.396 . S
H815 C810 0.929 . S
O816 Mn792 2.385 . S
O816 C794 1.234 . S
O817 Mn792 2.209 . S
O817 Mn793 2.215 . S
O817 C794 1.283 . S
O818 Mn792 2.094 . S
O818 C796 1.240 . S
O819 Mn793 2.117 . S
O819 C796 1.264 . S
C820 C813 1.403 . S
C820 C821 1.399 . S
C820 H826 0.929 . S
C821 C801 1.449 . S
C821 C820 1.399 . S
C821 H827 0.930 . S
H822 C802 0.931 . S
H823 C803 0.930 . S
H824 C811 0.931 . S
H825 C812 0.929 . S
H826 C820 0.929 . S
H827 C821 0.930 . S
Mn828 O833 2.095 . S
Mn828 O843 2.162 . S
Mn828 O844 2.297 . S
Mn828 O852 2.385 . S
Mn828 O853 2.209 . S
Mn828 O854 2.094 . S
Mn829 O834 2.121 . S
Mn829 N836 2.257 . S
Mn829 N845 2.282 . S
Mn829 O853 2.215 . S
Mn829 O855 2.117 . S
C830 O852 1.234 . S
C830 O853 1.283 . S
C831 O843 1.281 . S
C831 O844 1.236 . S
C832 O854 1.240 . S
C832 O855 1.264 . S
O833 Mn828 2.095 . S
O833 C842 1.250 . S
O834 Mn829 2.121 . S
O834 C842 1.258 . S
C835 N836 1.326 . S
C835 C839 1.460 . S
C835 H841 0.929 . S
N836 Mn829 2.257 . S
N836 C835 1.326 . S
N836 C840 1.362 . S
C837 C838 1.258 . S
C837 C840 1.431 . S
C837 C857 1.449 . S
C838 C837 1.258 . S
C838 C839 1.477 . S
C838 H858 0.931 . S
C839 C835 1.460 . S
C839 C838 1.477 . S
C839 H859 0.930 . S
C840 N836 1.362 . S
C840 C837 1.431 . S
C840 C850 1.476 . S
H841 C835 0.929 . S
C842 O833 1.250 . S
C842 O834 1.258 . S
O843 Mn828 2.162 . S
O843 C831 1.281 . S
O844 Mn828 2.297 . S
O844 C831 1.236 . S
N845 Mn829 2.282 . S
N845 C846 1.328 . S
N845 C850 1.318 . S
C846 N845 1.328 . S
C846 C847 1.457 . S
C846 H851 0.929 . S
C847 C846 1.457 . S
C847 C848 1.291 . S
C847 H860 0.931 . S
C848 C847 1.291 . S
C848 C849 1.373 . S
C848 H861 0.929 . S
C849 C848 1.373 . S
C849 C850 1.396 . S
C849 C856 1.403 . S
C850 C840 1.476 . S
C850 N845 1.318 . S
C850 C849 1.396 . S
H851 C846 0.929 . S
O852 Mn828 2.385 . S
O852 C830 1.234 . S
O853 Mn828 2.209 . S
O853 Mn829 2.215 . S
O853 C830 1.283 . S
O854 Mn828 2.094 . S
O854 C832 1.240 . S
O855 Mn829 2.117 . S
O855 C832 1.264 . S
C856 C849 1.403 . S
C856 C857 1.399 . S
C856 H862 0.929 . S
C857 C837 1.449 . S
C857 C856 1.399 . S
C857 H863 0.930 . S
H858 C838 0.931 . S
H859 C839 0.930 . S
H860 C847 0.931 . S
H861 C848 0.929 . S
H862 C856 0.929 . S
H863 C857 0.930 . S
H864 C872 0.950 . S
H865 C877 0.950 . S
H866 C874 0.950 . S
H867 C876 0.950 . S
H868 C878 0.950 . S
H869 C880 0.950 . S
H870 C882 0.950 . S
H871 C883 0.950 . S
C872 H864 0.950 . S
C872 C873 1.386 . S
C872 C874 1.391 . S
C873 C872 1.386 . S
C873 C877 1.393 . S
C874 H866 0.950 . S
C874 C872 1.391 . S
C874 C875 1.400 . S
C875 C874 1.400 . S
C875 C876 1.398 . S
C875 C881 1.491 . S
C876 H867 0.950 . S
C876 C875 1.398 . S
C876 C877 1.391 . S
C877 H865 0.950 . S
C877 C873 1.393 . S
C877 C876 1.391 . S
C878 H868 0.950 . S
C878 C879 1.386 . S
C878 C880 1.391 . S
C879 C878 1.386 . S
C879 C883 1.393 . S
C880 H869 0.950 . S
C880 C878 1.391 . S
C880 C881 1.400 . S
C881 C875 1.491 . S
C881 C880 1.400 . S
C881 C882 1.398 . S
C882 H870 0.950 . S
C882 C881 1.398 . S
C882 C883 1.391 . S
C883 H871 0.950 . S
C883 C879 1.393 . S
C883 C882 1.391 . S
H884 C892 0.950 . S
H885 C897 0.950 . S
H886 C894 0.950 . S
H887 C896 0.950 . S
H888 C898 0.950 . S
H889 C900 0.950 . S
H890 C902 0.950 . S
H891 C903 0.950 . S
C892 H884 0.950 . S
C892 C893 1.386 . S
C892 C894 1.391 . S
C893 C892 1.386 . S
C893 C897 1.393 . S
C894 H886 0.950 . S
C894 C892 1.391 . S
C894 C895 1.400 . S
C895 C894 1.400 . S
C895 C896 1.398 . S
C895 C901 1.491 . S
C896 H887 0.950 . S
C896 C895 1.398 . S
C896 C897 1.391 . S
C897 H885 0.950 . S
C897 C893 1.393 . S
C897 C896 1.391 . S
C898 H888 0.950 . S
C898 C899 1.386 . S
C898 C900 1.391 . S
C899 C898 1.386 . S
C899 C903 1.393 . S
C900 H889 0.950 . S
C900 C898 1.391 . S
C900 C901 1.400 . S
C901 C895 1.491 . S
C901 C900 1.400 . S
C901 C902 1.398 . S
C902 H890 0.950 . S
C902 C901 1.398 . S
C902 C903 1.391 . S
C903 H891 0.950 . S
C903 C899 1.393 . S
C903 C902 1.391 . S
H904 C912 0.950 . S
H905 C917 0.950 . S
H906 C914 0.950 . S
H907 C916 0.950 . S
H908 C918 0.950 . S
H909 C920 0.950 . S
H910 C922 0.950 . S
H911 C923 0.950 . S
C912 H904 0.950 . S
C912 C913 1.386 . S
C912 C914 1.391 . S
C913 C912 1.386 . S
C913 C917 1.393 . S
C914 H906 0.950 . S
C914 C912 1.391 . S
C914 C915 1.400 . S
C915 C914 1.400 . S
C915 C916 1.398 . S
C915 C921 1.491 . S
C916 H907 0.950 . S
C916 C915 1.398 . S
C916 C917 1.391 . S
C917 H905 0.950 . S
C917 C913 1.393 . S
C917 C916 1.391 . S
C918 H908 0.950 . S
C918 C919 1.386 . S
C918 C920 1.391 . S
C919 C918 1.386 . S
C919 C923 1.393 . S
C920 H909 0.950 . S
C920 C918 1.391 . S
C920 C921 1.400 . S
C921 C915 1.491 . S
C921 C920 1.400 . S
C921 C922 1.398 . S
C922 H910 0.950 . S
C922 C921 1.398 . S
C922 C923 1.391 . S
C923 H911 0.950 . S
C923 C919 1.393 . S
C923 C922 1.391 . S
H924 C932 0.950 . S
H925 C937 0.950 . S
H926 C934 0.950 . S
H927 C936 0.950 . S
H928 C938 0.950 . S
H929 C940 0.950 . S
H930 C942 0.950 . S
H931 C943 0.950 . S
C932 H924 0.950 . S
C932 C933 1.386 . S
C932 C934 1.391 . S
C933 C932 1.386 . S
C933 C937 1.393 . S
C934 H926 0.950 . S
C934 C932 1.391 . S
C934 C935 1.400 . S
C935 C934 1.400 . S
C935 C936 1.398 . S
C935 C941 1.491 . S
C936 H927 0.950 . S
C936 C935 1.398 . S
C936 C937 1.391 . S
C937 H925 0.950 . S
C937 C933 1.393 . S
C937 C936 1.391 . S
C938 H928 0.950 . S
C938 C939 1.386 . S
C938 C940 1.391 . S
C939 C938 1.386 . S
C939 C943 1.393 . S
C940 H929 0.950 . S
C940 C938 1.391 . S
C940 C941 1.400 . S
C941 C935 1.491 . S
C941 C940 1.400 . S
C941 C942 1.398 . S
C942 H930 0.950 . S
C942 C941 1.398 . S
C942 C943 1.391 . S
C943 H931 0.950 . S
C943 C939 1.393 . S
C943 C942 1.391 . S
H944 C952 0.950 . S
H945 C957 0.950 . S
H946 C954 0.950 . S
H947 C956 0.950 . S
H948 C958 0.950 . S
H949 C960 0.950 . S
H950 C962 0.950 . S
H951 C963 0.950 . S
C952 H944 0.950 . S
C952 C953 1.386 . S
C952 C954 1.391 . S
C953 C952 1.386 . S
C953 C957 1.393 . S
C954 H946 0.950 . S
C954 C952 1.391 . S
C954 C955 1.400 . S
C955 C954 1.400 . S
C955 C956 1.398 . S
C955 C961 1.491 . S
C956 H947 0.950 . S
C956 C955 1.398 . S
C956 C957 1.391 . S
C957 H945 0.950 . S
C957 C953 1.393 . S
C957 C956 1.391 . S
C958 H948 0.950 . S
C958 C959 1.386 . S
C958 C960 1.391 . S
C959 C958 1.386 . S
C959 C963 1.393 . S
C960 H949 0.950 . S
C960 C958 1.391 . S
C960 C961 1.400 . S
C961 C955 1.491 . S
C961 C960 1.400 . S
C961 C962 1.398 . S
C962 H950 0.950 . S
C962 C961 1.398 . S
C962 C963 1.391 . S
C963 H951 0.950 . S
C963 C959 1.393 . S
C963 C962 1.391 . S
H964 C972 0.950 . S
H965 C977 0.950 . S
H966 C974 0.950 . S
H967 C976 0.950 . S
H968 C978 0.950 . S
H969 C980 0.950 . S
H970 C982 0.950 . S
H971 C983 0.950 . S
C972 H964 0.950 . S
C972 C973 1.386 . S
C972 C974 1.391 . S
C973 C972 1.386 . S
C973 C977 1.393 . S
C974 H966 0.950 . S
C974 C972 1.391 . S
C974 C975 1.400 . S
C975 C974 1.400 . S
C975 C976 1.398 . S
C975 C981 1.491 . S
C976 H967 0.950 . S
C976 C975 1.398 . S
C976 C977 1.391 . S
C977 H965 0.950 . S
C977 C973 1.393 . S
C977 C976 1.391 . S
C978 H968 0.950 . S
C978 C979 1.386 . S
C978 C980 1.391 . S
C979 C978 1.386 . S
C979 C983 1.393 . S
C980 H969 0.950 . S
C980 C978 1.391 . S
C980 C981 1.400 . S
C981 C975 1.491 . S
C981 C980 1.400 . S
C981 C982 1.398 . S
C982 H970 0.950 . S
C982 C981 1.398 . S
C982 C983 1.391 . S
C983 H971 0.950 . S
C983 C979 1.393 . S
C983 C982 1.391 . S
H984 C992 0.950 . S
H985 C997 0.950 . S
H986 C994 0.950 . S
H987 C996 0.950 . S
H988 C998 0.950 . S
H989 C1000 0.950 . S
H990 C1002 0.950 . S
H991 C1003 0.950 . S
C992 H984 0.950 . S
C992 C993 1.386 . S
C992 C994 1.391 . S
C993 C992 1.386 . S
C993 C997 1.393 . S
C994 H986 0.950 . S
C994 C992 1.391 . S
C994 C995 1.400 . S
C995 C994 1.400 . S
C995 C996 1.398 . S
C995 C1001 1.491 . S
C996 H987 0.950 . S
C996 C995 1.398 . S
C996 C997 1.391 . S
C997 H985 0.950 . S
C997 C993 1.393 . S
C997 C996 1.391 . S
C998 H988 0.950 . S
C998 C999 1.386 . S
C998 C1000 1.391 . S
C999 C998 1.386 . S
C999 C1003 1.393 . S
C1000 H989 0.950 . S
C1000 C998 1.391 . S
C1000 C1001 1.400 . S
C1001 C995 1.491 . S
C1001 C1000 1.400 . S
C1001 C1002 1.398 . S
C1002 H990 0.950 . S
C1002 C1001 1.398 . S
C1002 C1003 1.391 . S
C1003 H991 0.950 . S
C1003 C999 1.393 . S
C1003 C1002 1.391 . S
H1004 C1012 0.950 . S
H1005 C1017 0.950 . S
H1006 C1014 0.950 . S
H1007 C1016 0.950 . S
H1008 C1018 0.950 . S
H1009 C1020 0.950 . S
H1010 C1022 0.950 . S
H1011 C1023 0.950 . S
C1012 H1004 0.950 . S
C1012 C1013 1.386 . S
C1012 C1014 1.391 . S
C1013 C1012 1.386 . S
C1013 C1017 1.393 . S
C1014 H1006 0.950 . S
C1014 C1012 1.391 . S
C1014 C1015 1.400 . S
C1015 C1014 1.400 . S
C1015 C1016 1.398 . S
C1015 C1021 1.491 . S
C1016 H1007 0.950 . S
C1016 C1015 1.398 . S
C1016 C1017 1.391 . S
C1017 H1005 0.950 . S
C1017 C1013 1.393 . S
C1017 C1016 1.391 . S
C1018 H1008 0.950 . S
C1018 C1019 1.386 . S
C1018 C1020 1.391 . S
C1019 C1018 1.386 . S
C1019 C1023 1.393 . S
C1020 H1009 0.950 . S
C1020 C1018 1.391 . S
C1020 C1021 1.400 . S
C1021 C1015 1.491 . S
C1021 C1020 1.400 . S
C1021 C1022 1.398 . S
C1022 H1010 0.950 . S
C1022 C1021 1.398 . S
C1022 C1023 1.391 . S
C1023 H1011 0.950 . S
C1023 C1019 1.393 . S
C1023 C1022 1.391 . S
H1024 C1032 0.950 . S
H1025 C1037 0.950 . S
H1026 C1034 0.950 . S
H1027 C1036 0.950 . S
H1028 C1038 0.950 . S
H1029 C1040 0.950 . S
H1030 C1042 0.950 . S
H1031 C1043 0.950 . S
C1032 H1024 0.950 . S
C1032 C1033 1.386 . S
C1032 C1034 1.391 . S
C1033 C1032 1.386 . S
C1033 C1037 1.393 . S
C1034 H1026 0.950 . S
C1034 C1032 1.391 . S
C1034 C1035 1.400 . S
C1035 C1034 1.400 . S
C1035 C1036 1.398 . S
C1035 C1041 1.491 . S
C1036 H1027 0.950 . S
C1036 C1035 1.398 . S
C1036 C1037 1.391 . S
C1037 H1025 0.950 . S
C1037 C1033 1.393 . S
C1037 C1036 1.391 . S
C1038 H1028 0.950 . S
C1038 C1039 1.386 . S
C1038 C1040 1.391 . S
C1039 C1038 1.386 . S
C1039 C1043 1.393 . S
C1040 H1029 0.950 . S
C1040 C1038 1.391 . S
C1040 C1041 1.400 . S
C1041 C1035 1.491 . S
C1041 C1040 1.400 . S
C1041 C1042 1.398 . S
C1042 H1030 0.950 . S
C1042 C1041 1.398 . S
C1042 C1043 1.391 . S
C1043 H1031 0.950 . S
C1043 C1039 1.393 . S
C1043 C1042 1.391 . S
H1044 C1052 0.950 . S
H1045 C1057 0.950 . S
H1046 C1054 0.950 . S
H1047 C1056 0.950 . S
H1048 C1058 0.950 . S
H1049 C1060 0.950 . S
H1050 C1062 0.950 . S
H1051 C1063 0.950 . S
C1052 H1044 0.950 . S
C1052 C1053 1.386 . S
C1052 C1054 1.391 . S
C1053 C1052 1.386 . S
C1053 C1057 1.393 . S
C1054 H1046 0.950 . S
C1054 C1052 1.391 . S
C1054 C1055 1.400 . S
C1055 C1054 1.400 . S
C1055 C1056 1.398 . S
C1055 C1061 1.491 . S
C1056 H1047 0.950 . S
C1056 C1055 1.398 . S
C1056 C1057 1.391 . S
C1057 H1045 0.950 . S
C1057 C1053 1.393 . S
C1057 C1056 1.391 . S
C1058 H1048 0.950 . S
C1058 C1059 1.386 . S
C1058 C1060 1.391 . S
C1059 C1058 1.386 . S
C1059 C1063 1.393 . S
C1060 H1049 0.950 . S
C1060 C1058 1.391 . S
C1060 C1061 1.400 . S
C1061 C1055 1.491 . S
C1061 C1060 1.400 . S
C1061 C1062 1.398 . S
C1062 H1050 0.950 . S
C1062 C1061 1.398 . S
C1062 C1063 1.391 . S
C1063 H1051 0.950 . S
C1063 C1059 1.393 . S
C1063 C1062 1.391 . S
H1064 C1072 0.950 . S
H1065 C1077 0.950 . S
H1066 C1074 0.950 . S
H1067 C1076 0.950 . S
H1068 C1078 0.950 . S
H1069 C1080 0.950 . S
H1070 C1082 0.950 . S
H1071 C1083 0.950 . S
C1072 H1064 0.950 . S
C1072 C1073 1.386 . S
C1072 C1074 1.391 . S
C1073 C1072 1.386 . S
C1073 C1077 1.393 . S
C1074 H1066 0.950 . S
C1074 C1072 1.391 . S
C1074 C1075 1.400 . S
C1075 C1074 1.400 . S
C1075 C1076 1.398 . S
C1075 C1081 1.491 . S
C1076 H1067 0.950 . S
C1076 C1075 1.398 . S
C1076 C1077 1.391 . S
C1077 H1065 0.950 . S
C1077 C1073 1.393 . S
C1077 C1076 1.391 . S
C1078 H1068 0.950 . S
C1078 C1079 1.386 . S
C1078 C1080 1.391 . S
C1079 C1078 1.386 . S
C1079 C1083 1.393 . S
C1080 H1069 0.950 . S
C1080 C1078 1.391 . S
C1080 C1081 1.400 . S
C1081 C1075 1.491 . S
C1081 C1080 1.400 . S
C1081 C1082 1.398 . S
C1082 H1070 0.950 . S
C1082 C1081 1.398 . S
C1082 C1083 1.391 . S
C1083 H1071 0.950 . S
C1083 C1079 1.393 . S
C1083 C1082 1.391 . S
H1084 C1092 0.950 . S
H1085 C1097 0.950 . S
H1086 C1094 0.950 . S
H1087 C1096 0.950 . S
H1088 C1098 0.950 . S
H1089 C1100 0.950 . S
H1090 C1102 0.950 . S
H1091 C1103 0.950 . S
C1092 H1084 0.950 . S
C1092 C1093 1.386 . S
C1092 C1094 1.391 . S
C1093 C1092 1.386 . S
C1093 C1097 1.393 . S
C1094 H1086 0.950 . S
C1094 C1092 1.391 . S
C1094 C1095 1.400 . S
C1095 C1094 1.400 . S
C1095 C1096 1.398 . S
C1095 C1101 1.491 . S
C1096 H1087 0.950 . S
C1096 C1095 1.398 . S
C1096 C1097 1.391 . S
C1097 H1085 0.950 . S
C1097 C1093 1.393 . S
C1097 C1096 1.391 . S
C1098 H1088 0.950 . S
C1098 C1099 1.386 . S
C1098 C1100 1.391 . S
C1099 C1098 1.386 . S
C1099 C1103 1.393 . S
C1100 H1089 0.950 . S
C1100 C1098 1.391 . S
C1100 C1101 1.400 . S
C1101 C1095 1.491 . S
C1101 C1100 1.400 . S
C1101 C1102 1.398 . S
C1102 H1090 0.950 . S
C1102 C1101 1.398 . S
C1102 C1103 1.391 . S
C1103 H1091 0.950 . S
C1103 C1099 1.393 . S
C1103 C1102 1.391 . S
H1104 C1112 0.950 . S
H1105 C1117 0.950 . S
H1106 C1114 0.950 . S
H1107 C1116 0.950 . S
H1108 C1118 0.950 . S
H1109 C1120 0.950 . S
H1110 C1122 0.950 . S
H1111 C1123 0.950 . S
C1112 H1104 0.950 . S
C1112 C1113 1.386 . S
C1112 C1114 1.391 . S
C1113 C1112 1.386 . S
C1113 C1117 1.393 . S
C1114 H1106 0.950 . S
C1114 C1112 1.391 . S
C1114 C1115 1.400 . S
C1115 C1114 1.400 . S
C1115 C1116 1.398 . S
C1115 C1121 1.491 . S
C1116 H1107 0.950 . S
C1116 C1115 1.398 . S
C1116 C1117 1.391 . S
C1117 H1105 0.950 . S
C1117 C1113 1.393 . S
C1117 C1116 1.391 . S
C1118 H1108 0.950 . S
C1118 C1119 1.386 . S
C1118 C1120 1.391 . S
C1119 C1118 1.386 . S
C1119 C1123 1.393 . S
C1120 H1109 0.950 . S
C1120 C1118 1.391 . S
C1120 C1121 1.400 . S
C1121 C1115 1.491 . S
C1121 C1120 1.400 . S
C1121 C1122 1.398 . S
C1122 H1110 0.950 . S
C1122 C1121 1.398 . S
C1122 C1123 1.391 . S
C1123 H1111 0.950 . S
C1123 C1119 1.393 . S
C1123 C1122 1.391 . S
H1124 C1132 0.950 . S
H1125 C1137 0.950 . S
H1126 C1134 0.950 . S
H1127 C1136 0.950 . S
H1128 C1138 0.950 . S
H1129 C1140 0.950 . S
H1130 C1142 0.950 . S
H1131 C1143 0.950 . S
C1132 H1124 0.950 . S
C1132 C1133 1.386 . S
C1132 C1134 1.391 . S
C1133 C1132 1.386 . S
C1133 C1137 1.393 . S
C1134 H1126 0.950 . S
C1134 C1132 1.391 . S
C1134 C1135 1.400 . S
C1135 C1134 1.400 . S
C1135 C1136 1.398 . S
C1135 C1141 1.491 . S
C1136 H1127 0.950 . S
C1136 C1135 1.398 . S
C1136 C1137 1.391 . S
C1137 H1125 0.950 . S
C1137 C1133 1.393 . S
C1137 C1136 1.391 . S
C1138 H1128 0.950 . S
C1138 C1139 1.386 . S
C1138 C1140 1.391 . S
C1139 C1138 1.386 . S
C1139 C1143 1.393 . S
C1140 H1129 0.950 . S
C1140 C1138 1.391 . S
C1140 C1141 1.400 . S
C1141 C1135 1.491 . S
C1141 C1140 1.400 . S
C1141 C1142 1.398 . S
C1142 H1130 0.950 . S
C1142 C1141 1.398 . S
C1142 C1143 1.391 . S
C1143 H1131 0.950 . S
C1143 C1139 1.393 . S
C1143 C1142 1.391 . S
H1144 C1152 0.950 . S
H1145 C1157 0.950 . S
H1146 C1154 0.950 . S
H1147 C1156 0.950 . S
H1148 C1158 0.950 . S
H1149 C1160 0.950 . S
H1150 C1162 0.950 . S
H1151 C1163 0.950 . S
C1152 H1144 0.950 . S
C1152 C1153 1.386 . S
C1152 C1154 1.391 . S
C1153 C1152 1.386 . S
C1153 C1157 1.393 . S
C1154 H1146 0.950 . S
C1154 C1152 1.391 . S
C1154 C1155 1.400 . S
C1155 C1154 1.400 . S
C1155 C1156 1.398 . S
C1155 C1161 1.491 . S
C1156 H1147 0.950 . S
C1156 C1155 1.398 . S
C1156 C1157 1.391 . S
C1157 H1145 0.950 . S
C1157 C1153 1.393 . S
C1157 C1156 1.391 . S
C1158 H1148 0.950 . S
C1158 C1159 1.386 . S
C1158 C1160 1.391 . S
C1159 C1158 1.386 . S
C1159 C1163 1.393 . S
C1160 H1149 0.950 . S
C1160 C1158 1.391 . S
C1160 C1161 1.400 . S
C1161 C1155 1.491 . S
C1161 C1160 1.400 . S
C1161 C1162 1.398 . S
C1162 H1150 0.950 . S
C1162 C1161 1.398 . S
C1162 C1163 1.391 . S
C1163 H1151 0.950 . S
C1163 C1159 1.393 . S
C1163 C1162 1.391 . S
H1164 C1172 0.950 . S
H1165 C1177 0.950 . S
H1166 C1174 0.950 . S
H1167 C1176 0.950 . S
H1168 C1178 0.950 . S
H1169 C1180 0.950 . S
H1170 C1182 0.950 . S
H1171 C1183 0.950 . S
C1172 H1164 0.950 . S
C1172 C1173 1.386 . S
C1172 C1174 1.391 . S
C1173 C1172 1.386 . S
C1173 C1177 1.393 . S
C1174 H1166 0.950 . S
C1174 C1172 1.391 . S
C1174 C1175 1.400 . S
C1175 C1174 1.400 . S
C1175 C1176 1.398 . S
C1175 C1181 1.491 . S
C1176 H1167 0.950 . S
C1176 C1175 1.398 . S
C1176 C1177 1.391 . S
C1177 H1165 0.950 . S
C1177 C1173 1.393 . S
C1177 C1176 1.391 . S
C1178 H1168 0.950 . S
C1178 C1179 1.386 . S
C1178 C1180 1.391 . S
C1179 C1178 1.386 . S
C1179 C1183 1.393 . S
C1180 H1169 0.950 . S
C1180 C1178 1.391 . S
C1180 C1181 1.400 . S
C1181 C1175 1.491 . S
C1181 C1180 1.400 . S
C1181 C1182 1.398 . S
C1182 H1170 0.950 . S
C1182 C1181 1.398 . S
C1182 C1183 1.391 . S
C1183 H1171 0.950 . S
C1183 C1179 1.393 . S
C1183 C1182 1.391 . S
H1184 C1192 0.950 . S
H1185 C1197 0.950 . S
H1186 C1194 0.950 . S
H1187 C1196 0.950 . S
H1188 C1198 0.950 . S
H1189 C1200 0.950 . S
H1190 C1202 0.950 . S
H1191 C1203 0.950 . S
C1192 H1184 0.950 . S
C1192 C1193 1.386 . S
C1192 C1194 1.391 . S
C1193 C1192 1.386 . S
C1193 C1197 1.393 . S
C1194 H1186 0.950 . S
C1194 C1192 1.391 . S
C1194 C1195 1.400 . S
C1195 C1194 1.400 . S
C1195 C1196 1.398 . S
C1195 C1201 1.491 . S
C1196 H1187 0.950 . S
C1196 C1195 1.398 . S
C1196 C1197 1.391 . S
C1197 H1185 0.950 . S
C1197 C1193 1.393 . S
C1197 C1196 1.391 . S
C1198 H1188 0.950 . S
C1198 C1199 1.386 . S
C1198 C1200 1.391 . S
C1199 C1198 1.386 . S
C1199 C1203 1.393 . S
C1200 H1189 0.950 . S
C1200 C1198 1.391 . S
C1200 C1201 1.400 . S
C1201 C1195 1.491 . S
C1201 C1200 1.400 . S
C1201 C1202 1.398 . S
C1202 H1190 0.950 . S
C1202 C1201 1.398 . S
C1202 C1203 1.391 . S
C1203 H1191 0.950 . S
C1203 C1199 1.393 . S
C1203 C1202 1.391 . S
H1204 C1212 0.950 . S
H1205 C1217 0.950 . S
H1206 C1214 0.950 . S
H1207 C1216 0.950 . S
H1208 C1218 0.950 . S
H1209 C1220 0.950 . S
H1210 C1222 0.950 . S
H1211 C1223 0.950 . S
C1212 H1204 0.950 . S
C1212 C1213 1.386 . S
C1212 C1214 1.391 . S
C1213 C1212 1.386 . S
C1213 C1217 1.393 . S
C1214 H1206 0.950 . S
C1214 C1212 1.391 . S
C1214 C1215 1.400 . S
C1215 C1214 1.400 . S
C1215 C1216 1.398 . S
C1215 C1221 1.491 . S
C1216 H1207 0.950 . S
C1216 C1215 1.398 . S
C1216 C1217 1.391 . S
C1217 H1205 0.950 . S
C1217 C1213 1.393 . S
C1217 C1216 1.391 . S
C1218 H1208 0.950 . S
C1218 C1219 1.386 . S
C1218 C1220 1.391 . S
C1219 C1218 1.386 . S
C1219 C1223 1.393 . S
C1220 H1209 0.950 . S
C1220 C1218 1.391 . S
C1220 C1221 1.400 . S
C1221 C1215 1.491 . S
C1221 C1220 1.400 . S
C1221 C1222 1.398 . S
C1222 H1210 0.950 . S
C1222 C1221 1.398 . S
C1222 C1223 1.391 . S
C1223 H1211 0.950 . S
C1223 C1219 1.393 . S
C1223 C1222 1.391 . S
H1224 C1232 0.950 . S
H1225 C1237 0.950 . S
H1226 C1234 0.950 . S
H1227 C1236 0.950 . S
H1228 C1238 0.950 . S
H1229 C1240 0.950 . S
H1230 C1242 0.950 . S
H1231 C1243 0.950 . S
C1232 H1224 0.950 . S
C1232 C1233 1.386 . S
C1232 C1234 1.391 . S
C1233 C1232 1.386 . S
C1233 C1237 1.393 . S
C1234 H1226 0.950 . S
C1234 C1232 1.391 . S
C1234 C1235 1.400 . S
C1235 C1234 1.400 . S
C1235 C1236 1.398 . S
C1235 C1241 1.491 . S
C1236 H1227 0.950 . S
C1236 C1235 1.398 . S
C1236 C1237 1.391 . S
C1237 H1225 0.950 . S
C1237 C1233 1.393 . S
C1237 C1236 1.391 . S
C1238 H1228 0.950 . S
C1238 C1239 1.386 . S
C1238 C1240 1.391 . S
C1239 C1238 1.386 . S
C1239 C1243 1.393 . S
C1240 H1229 0.950 . S
C1240 C1238 1.391 . S
C1240 C1241 1.400 . S
C1241 C1235 1.491 . S
C1241 C1240 1.400 . S
C1241 C1242 1.398 . S
C1242 H1230 0.950 . S
C1242 C1241 1.398 . S
C1242 C1243 1.391 . S
C1243 H1231 0.950 . S
C1243 C1239 1.393 . S
C1243 C1242 1.391 . S
H1244 C1252 0.950 . S
H1245 C1257 0.950 . S
H1246 C1254 0.950 . S
H1247 C1256 0.950 . S
H1248 C1258 0.950 . S
H1249 C1260 0.950 . S
H1250 C1262 0.950 . S
H1251 C1263 0.950 . S
C1252 H1244 0.950 . S
C1252 C1253 1.386 . S
C1252 C1254 1.391 . S
C1253 C1252 1.386 . S
C1253 C1257 1.393 . S
C1254 H1246 0.950 . S
C1254 C1252 1.391 . S
C1254 C1255 1.400 . S
C1255 C1254 1.400 . S
C1255 C1256 1.398 . S
C1255 C1261 1.491 . S
C1256 H1247 0.950 . S
C1256 C1255 1.398 . S
C1256 C1257 1.391 . S
C1257 H1245 0.950 . S
C1257 C1253 1.393 . S
C1257 C1256 1.391 . S
C1258 H1248 0.950 . S
C1258 C1259 1.386 . S
C1258 C1260 1.391 . S
C1259 C1258 1.386 . S
C1259 C1263 1.393 . S
C1260 H1249 0.950 . S
C1260 C1258 1.391 . S
C1260 C1261 1.400 . S
C1261 C1255 1.491 . S
C1261 C1260 1.400 . S
C1261 C1262 1.398 . S
C1262 H1250 0.950 . S
C1262 C1261 1.398 . S
C1262 C1263 1.391 . S
C1263 H1251 0.950 . S
C1263 C1259 1.393 . S
C1263 C1262 1.391 . S
H1264 C1272 0.950 . S
H1265 C1277 0.950 . S
H1266 C1274 0.950 . S
H1267 C1276 0.950 . S
H1268 C1278 0.950 . S
H1269 C1280 0.950 . S
H1270 C1282 0.950 . S
H1271 C1283 0.950 . S
C1272 H1264 0.950 . S
C1272 C1273 1.386 . S
C1272 C1274 1.391 . S
C1273 C1272 1.386 . S
C1273 C1277 1.393 . S
C1274 H1266 0.950 . S
C1274 C1272 1.391 . S
C1274 C1275 1.400 . S
C1275 C1274 1.400 . S
C1275 C1276 1.398 . S
C1275 C1281 1.491 . S
C1276 H1267 0.950 . S
C1276 C1275 1.398 . S
C1276 C1277 1.391 . S
C1277 H1265 0.950 . S
C1277 C1273 1.393 . S
C1277 C1276 1.391 . S
C1278 H1268 0.950 . S
C1278 C1279 1.386 . S
C1278 C1280 1.391 . S
C1279 C1278 1.386 . S
C1279 C1283 1.393 . S
C1280 H1269 0.950 . S
C1280 C1278 1.391 . S
C1280 C1281 1.400 . S
C1281 C1275 1.491 . S
C1281 C1280 1.400 . S
C1281 C1282 1.398 . S
C1282 H1270 0.950 . S
C1282 C1281 1.398 . S
C1282 C1283 1.391 . S
C1283 H1271 0.950 . S
C1283 C1279 1.393 . S
C1283 C1282 1.391 . S
H1284 C1292 0.950 . S
H1285 C1297 0.950 . S
H1286 C1294 0.950 . S
H1287 C1296 0.950 . S
H1288 C1298 0.950 . S
H1289 C1300 0.950 . S
H1290 C1302 0.950 . S
H1291 C1303 0.950 . S
C1292 H1284 0.950 . S
C1292 C1293 1.386 . S
C1292 C1294 1.391 . S
C1293 C1292 1.386 . S
C1293 C1297 1.393 . S
C1294 H1286 0.950 . S
C1294 C1292 1.391 . S
C1294 C1295 1.400 . S
C1295 C1294 1.400 . S
C1295 C1296 1.398 . S
C1295 C1301 1.491 . S
C1296 H1287 0.950 . S
C1296 C1295 1.398 . S
C1296 C1297 1.391 . S
C1297 H1285 0.950 . S
C1297 C1293 1.393 . S
C1297 C1296 1.391 . S
C1298 H1288 0.950 . S
C1298 C1299 1.386 . S
C1298 C1300 1.391 . S
C1299 C1298 1.386 . S
C1299 C1303 1.393 . S
C1300 H1289 0.950 . S
C1300 C1298 1.391 . S
C1300 C1301 1.400 . S
C1301 C1295 1.491 . S
C1301 C1300 1.400 . S
C1301 C1302 1.398 . S
C1302 H1290 0.950 . S
C1302 C1301 1.398 . S
C1302 C1303 1.391 . S
C1303 H1291 0.950 . S
C1303 C1299 1.393 . S
C1303 C1302 1.391 . S
H1304 C1312 0.950 . S
H1305 C1317 0.950 . S
H1306 C1314 0.950 . S
H1307 C1316 0.950 . S
H1308 C1318 0.950 . S
H1309 C1320 0.950 . S
H1310 C1322 0.950 . S
H1311 C1323 0.950 . S
C1312 H1304 0.950 . S
C1312 C1313 1.386 . S
C1312 C1314 1.391 . S
C1313 C1312 1.386 . S
C1313 C1317 1.393 . S
C1314 H1306 0.950 . S
C1314 C1312 1.391 . S
C1314 C1315 1.400 . S
C1315 C1314 1.400 . S
C1315 C1316 1.398 . S
C1315 C1321 1.491 . S
C1316 H1307 0.950 . S
C1316 C1315 1.398 . S
C1316 C1317 1.391 . S
C1317 H1305 0.950 . S
C1317 C1313 1.393 . S
C1317 C1316 1.391 . S
C1318 H1308 0.950 . S
C1318 C1319 1.386 . S
C1318 C1320 1.391 . S
C1319 C1318 1.386 . S
C1319 C1323 1.393 . S
C1320 H1309 0.950 . S
C1320 C1318 1.391 . S
C1320 C1321 1.400 . S
C1321 C1315 1.491 . S
C1321 C1320 1.400 . S
C1321 C1322 1.398 . S
C1322 H1310 0.950 . S
C1322 C1321 1.398 . S
C1322 C1323 1.391 . S
C1323 H1311 0.950 . S
C1323 C1319 1.393 . S
C1323 C1322 1.391 . S
H1324 C1332 0.950 . S
H1325 C1337 0.950 . S
H1326 C1334 0.950 . S
H1327 C1336 0.950 . S
H1328 C1338 0.950 . S
H1329 C1340 0.950 . S
H1330 C1342 0.950 . S
H1331 C1343 0.950 . S
C1332 H1324 0.950 . S
C1332 C1333 1.386 . S
C1332 C1334 1.391 . S
C1333 C1332 1.386 . S
C1333 C1337 1.393 . S
C1334 H1326 0.950 . S
C1334 C1332 1.391 . S
C1334 C1335 1.400 . S
C1335 C1334 1.400 . S
C1335 C1336 1.398 . S
C1335 C1341 1.491 . S
C1336 H1327 0.950 . S
C1336 C1335 1.398 . S
C1336 C1337 1.391 . S
C1337 H1325 0.950 . S
C1337 C1333 1.393 . S
C1337 C1336 1.391 . S
C1338 H1328 0.950 . S
C1338 C1339 1.386 . S
C1338 C1340 1.391 . S
C1339 C1338 1.386 . S
C1339 C1343 1.393 . S
C1340 H1329 0.950 . S
C1340 C1338 1.391 . S
C1340 C1341 1.400 . S
C1341 C1335 1.491 . S
C1341 C1340 1.400 . S
C1341 C1342 1.398 . S
C1342 H1330 0.950 . S
C1342 C1341 1.398 . S
C1342 C1343 1.391 . S
C1343 H1331 0.950 . S
C1343 C1339 1.393 . S
C1343 C1342 1.391 . S
H1344 C1352 0.950 . S
H1345 C1357 0.950 . S
H1346 C1354 0.950 . S
H1347 C1356 0.950 . S
H1348 C1358 0.950 . S
H1349 C1360 0.950 . S
H1350 C1362 0.950 . S
H1351 C1363 0.950 . S
C1352 H1344 0.950 . S
C1352 C1353 1.386 . S
C1352 C1354 1.391 . S
C1353 C1352 1.386 . S
C1353 C1357 1.393 . S
C1354 H1346 0.950 . S
C1354 C1352 1.391 . S
C1354 C1355 1.400 . S
C1355 C1354 1.400 . S
C1355 C1356 1.398 . S
C1355 C1361 1.491 . S
C1356 H1347 0.950 . S
C1356 C1355 1.398 . S
C1356 C1357 1.391 . S
C1357 H1345 0.950 . S
C1357 C1353 1.393 . S
C1357 C1356 1.391 . S
C1358 H1348 0.950 . S
C1358 C1359 1.386 . S
C1358 C1360 1.391 . S
C1359 C1358 1.386 . S
C1359 C1363 1.393 . S
C1360 H1349 0.950 . S
C1360 C1358 1.391 . S
C1360 C1361 1.400 . S
C1361 C1355 1.491 . S
C1361 C1360 1.400 . S
C1361 C1362 1.398 . S
C1362 H1350 0.950 . S
C1362 C1361 1.398 . S
C1362 C1363 1.391 . S
C1363 H1351 0.950 . S
C1363 C1359 1.393 . S
C1363 C1362 1.391 . S
H1364 C1372 0.950 . S
H1365 C1377 0.950 . S
H1366 C1374 0.950 1_556 S
H1367 C1376 0.950 . S
H1368 C1378 0.950 . S
H1369 C1380 0.950 . S
H1370 C1382 0.950 . S
H1371 C1383 0.950 . S
C1372 H1364 0.950 . S
C1372 C1373 1.386 . S
C1372 C1374 1.391 . S
C1373 C1372 1.386 . S
C1373 C1377 1.393 . S
C1374 H1366 0.950 1_554 S
C1374 C1372 1.391 . S
C1374 C1375 1.400 1_554 S
C1375 C1374 1.400 1_556 S
C1375 C1376 1.398 1_556 S
C1375 C1381 1.491 . S
C1376 H1367 0.950 . S
C1376 C1375 1.398 1_554 S
C1376 C1377 1.391 . S
C1377 H1365 0.950 . S
C1377 C1373 1.393 . S
C1377 C1376 1.391 . S
C1378 H1368 0.950 . S
C1378 C1379 1.386 . S
C1378 C1380 1.391 . S
C1379 C1378 1.386 . S
C1379 C1383 1.393 . S
C1380 H1369 0.950 . S
C1380 C1378 1.391 . S
C1380 C1381 1.400 . S
C1381 C1375 1.491 . S
C1381 C1380 1.400 . S
C1381 C1382 1.398 . S
C1382 H1370 0.950 . S
C1382 C1381 1.398 . S
C1382 C1383 1.391 . S
C1383 H1371 0.950 . S
C1383 C1379 1.393 . S
C1383 C1382 1.391 . S
H1384 C1392 0.950 . S
H1385 C1397 0.950 . S
H1386 C1394 0.950 . S
H1387 C1396 0.950 . S
H1388 C1398 0.950 . S
H1389 C1400 0.950 . S
H1390 C1402 0.950 . S
H1391 C1403 0.950 . S
C1392 H1384 0.950 . S
C1392 C1393 1.386 . S
C1392 C1394 1.391 . S
C1393 C1392 1.386 . S
C1393 C1397 1.393 . S
C1394 H1386 0.950 . S
C1394 C1392 1.391 . S
C1394 C1395 1.400 . S
C1395 C1394 1.400 . S
C1395 C1396 1.398 . S
C1395 C1401 1.491 . S
C1396 H1387 0.950 . S
C1396 C1395 1.398 . S
C1396 C1397 1.391 . S
C1397 H1385 0.950 . S
C1397 C1393 1.393 . S
C1397 C1396 1.391 . S
C1398 H1388 0.950 . S
C1398 C1399 1.386 . S
C1398 C1400 1.391 . S
C1399 C1398 1.386 . S
C1399 C1403 1.393 . S
C1400 H1389 0.950 . S
C1400 C1398 1.391 . S
C1400 C1401 1.400 . S
C1401 C1395 1.491 . S
C1401 C1400 1.400 . S
C1401 C1402 1.398 . S
C1402 H1390 0.950 . S
C1402 C1401 1.398 . S
C1402 C1403 1.391 . S
C1403 H1391 0.950 . S
C1403 C1399 1.393 . S
C1403 C1402 1.391 . S
H1404 C1412 0.950 . S
H1405 C1417 0.950 . S
H1406 C1414 0.950 . S
H1407 C1416 0.950 . S
H1408 C1418 0.950 . S
H1409 C1420 0.950 . S
H1410 C1422 0.950 1_554 S
H1411 C1423 0.950 . S
C1412 H1404 0.950 . S
C1412 C1413 1.386 . S
C1412 C1414 1.391 . S
C1413 C1412 1.386 . S
C1413 C1417 1.393 . S
C1414 H1406 0.950 . S
C1414 C1412 1.391 . S
C1414 C1415 1.400 . S
C1415 C1414 1.400 . S
C1415 C1416 1.398 . S
C1415 C1421 1.491 . S
C1416 H1407 0.950 . S
C1416 C1415 1.398 . S
C1416 C1417 1.391 . S
C1417 H1405 0.950 . S
C1417 C1413 1.393 . S
C1417 C1416 1.391 . S
C1418 H1408 0.950 . S
C1418 C1419 1.386 . S
C1418 C1420 1.391 . S
C1419 C1418 1.386 . S
C1419 C1423 1.393 . S
C1420 H1409 0.950 . S
C1420 C1418 1.391 . S
C1420 C1421 1.400 1_556 S
C1421 C1415 1.491 . S
C1421 C1420 1.400 1_554 S
C1421 C1422 1.398 1_554 S
C1422 H1410 0.950 1_556 S
C1422 C1421 1.398 1_556 S
C1422 C1423 1.391 . S
C1423 H1411 0.950 . S
C1423 C1419 1.393 . S
C1423 C1422 1.391 . S
H1424 C1432 0.950 . S
H1425 C1437 0.950 . S
H1426 C1434 0.950 . S
H1427 C1436 0.950 . S
H1428 C1438 0.950 . S
H1429 C1440 0.950 . S
H1430 C1442 0.950 . S
H1431 C1443 0.950 . S
C1432 H1424 0.950 . S
C1432 C1433 1.386 . S
C1432 C1434 1.391 . S
C1433 C1432 1.386 . S
C1433 C1437 1.393 . S
C1434 H1426 0.950 . S
C1434 C1432 1.391 . S
C1434 C1435 1.400 . S
C1435 C1434 1.400 . S
C1435 C1436 1.398 . S
C1435 C1441 1.491 . S
C1436 H1427 0.950 . S
C1436 C1435 1.398 . S
C1436 C1437 1.391 . S
C1437 H1425 0.950 . S
C1437 C1433 1.393 . S
C1437 C1436 1.391 . S
C1438 H1428 0.950 . S
C1438 C1439 1.386 . S
C1438 C1440 1.391 . S
C1439 C1438 1.386 . S
C1439 C1443 1.393 . S
C1440 H1429 0.950 . S
C1440 C1438 1.391 . S
C1440 C1441 1.400 . S
C1441 C1435 1.491 . S
C1441 C1440 1.400 . S
C1441 C1442 1.398 . S
C1442 H1430 0.950 . S
C1442 C1441 1.398 . S
C1442 C1443 1.391 . S
C1443 H1431 0.950 . S
C1443 C1439 1.393 . S
C1443 C1442 1.391 . S
H1444 C1452 0.950 . S
H1445 C1457 0.950 . S
H1446 C1454 0.950 1_455 S
H1447 C1456 0.950 . S
H1448 C1458 0.950 . S
H1449 C1460 0.950 . S
H1450 C1462 0.950 . S
H1451 C1463 0.950 . S
C1452 H1444 0.950 . S
C1452 C1453 1.386 . S
C1452 C1454 1.391 . S
C1453 C1452 1.386 . S
C1453 C1457 1.393 . S
C1454 H1446 0.950 1_655 S
C1454 C1452 1.391 . S
C1454 C1455 1.400 1_655 S
C1455 C1454 1.400 1_455 S
C1455 C1456 1.398 1_455 S
C1455 C1461 1.491 . S
C1456 H1447 0.950 . S
C1456 C1455 1.398 1_655 S
C1456 C1457 1.391 . S
C1457 H1445 0.950 . S
C1457 C1453 1.393 . S
C1457 C1456 1.391 . S
C1458 H1448 0.950 . S
C1458 C1459 1.386 . S
C1458 C1460 1.391 . S
C1459 C1458 1.386 . S
C1459 C1463 1.393 . S
C1460 H1449 0.950 . S
C1460 C1458 1.391 . S
C1460 C1461 1.400 . S
C1461 C1455 1.491 . S
C1461 C1460 1.400 . S
C1461 C1462 1.398 . S
C1462 H1450 0.950 . S
C1462 C1461 1.398 . S
C1462 C1463 1.391 . S
C1463 H1451 0.950 . S
C1463 C1459 1.393 . S
C1463 C1462 1.391 . S
H1464 C1472 0.950 . S
H1465 C1477 0.950 . S
H1466 C1474 0.950 . S
H1467 C1476 0.926 1_655 S
H1468 C1478 0.950 . S
H1469 C1480 0.950 . S
H1470 C1482 0.950 . S
H1471 C1483 0.950 . S
C1472 H1464 0.950 . S
C1472 C1473 1.386 . S
C1472 C1474 1.391 . S
C1473 C1472 1.386 . S
C1473 C1477 1.393 . S
C1474 H1466 0.950 . S
C1474 C1472 1.391 . S
C1474 C1475 1.400 1_455 S
C1475 C1474 1.400 1_655 S
C1475 C1476 1.386 1_655 S
C1475 C1481 1.491 . S
C1476 H1467 0.926 1_455 S
C1476 C1475 1.386 1_455 S
C1476 C1477 1.428 . S
C1477 H1465 0.950 . S
C1477 C1473 1.393 . S
C1477 C1476 1.428 . S
C1478 H1468 0.950 . S
C1478 C1479 1.386 . S
C1478 C1480 1.391 . S
C1479 C1478 1.386 . S
C1479 C1483 1.393 . S
C1480 H1469 0.950 . S
C1480 C1478 1.391 . S
C1480 C1481 1.400 . S
C1481 C1475 1.491 . S
C1481 C1480 1.400 . S
C1481 C1482 1.398 . S
C1482 H1470 0.950 . S
C1482 C1481 1.398 . S
C1482 C1483 1.391 . S
C1483 H1471 0.950 . S
C1483 C1479 1.393 . S
C1483 C1482 1.391 . S
H1484 C1492 0.950 . S
H1485 C1497 0.950 . S
H1486 C1494 0.950 . S
H1487 C1496 0.950 . S
H1488 C1498 0.950 . S
H1489 C1500 0.950 . S
H1490 C1502 0.950 . S
H1491 C1503 0.950 . S
C1492 H1484 0.950 . S
C1492 C1493 1.386 . S
C1492 C1494 1.391 . S
C1493 C1492 1.386 . S
C1493 C1497 1.393 . S
C1494 H1486 0.950 . S
C1494 C1492 1.391 . S
C1494 C1495 1.400 . S
C1495 C1494 1.400 . S
C1495 C1496 1.398 . S
C1495 C1501 1.491 . S
C1496 H1487 0.950 . S
C1496 C1495 1.398 . S
C1496 C1497 1.391 . S
C1497 H1485 0.950 . S
C1497 C1493 1.393 . S
C1497 C1496 1.391 . S
C1498 H1488 0.950 . S
C1498 C1499 1.386 . S
C1498 C1500 1.391 . S
C1499 C1498 1.386 . S
C1499 C1503 1.393 . S
C1500 H1489 0.950 . S
C1500 C1498 1.391 . S
C1500 C1501 1.400 . S
C1501 C1495 1.491 . S
C1501 C1500 1.400 . S
C1501 C1502 1.398 . S
C1502 H1490 0.950 . S
C1502 C1501 1.398 . S
C1502 C1503 1.391 . S
C1503 H1491 0.950 . S
C1503 C1499 1.393 . S
C1503 C1502 1.391 . S
H1504 C1512 0.950 . S
H1505 C1517 0.950 . S
H1506 C1514 0.950 . S
H1507 C1516 0.950 . S
H1508 C1518 0.950 . S
H1509 C1520 0.950 . S
H1510 C1522 0.950 . S
H1511 C1523 0.950 . S
C1512 H1504 0.950 . S
C1512 C1513 1.386 . S
C1512 C1514 1.391 . S
C1513 C1512 1.386 . S
C1513 C1517 1.393 . S
C1514 H1506 0.950 . S
C1514 C1512 1.391 . S
C1514 C1515 1.400 . S
C1515 C1514 1.400 . S
C1515 C1516 1.398 . S
C1515 C1521 1.491 . S
C1516 H1507 0.950 . S
C1516 C1515 1.398 . S
C1516 C1517 1.391 . S
C1517 H1505 0.950 . S
C1517 C1513 1.393 . S
C1517 C1516 1.391 . S
C1518 H1508 0.950 . S
C1518 C1519 1.386 . S
C1518 C1520 1.391 . S
C1519 C1518 1.386 . S
C1519 C1523 1.393 . S
C1520 H1509 0.950 . S
C1520 C1518 1.391 . S
C1520 C1521 1.400 . S
C1521 C1515 1.491 . S
C1521 C1520 1.400 . S
C1521 C1522 1.398 . S
C1522 H1510 0.950 . S
C1522 C1521 1.398 . S
C1522 C1523 1.391 . S
C1523 H1511 0.950 . S
C1523 C1519 1.393 . S
C1523 C1522 1.391 . S
H1524 C1532 0.950 . S
H1525 C1537 0.950 . S
H1526 C1534 0.950 . S
H1527 C1536 0.950 . S
H1528 C1538 0.950 . S
H1529 C1540 0.950 . S
H1530 C1542 0.950 . S
H1531 C1543 0.950 . S
C1532 H1524 0.950 . S
C1532 C1533 1.386 . S
C1532 C1534 1.391 1_565 S
C1533 C1532 1.386 . S
C1533 C1537 1.393 . S
C1534 H1526 0.950 . S
C1534 C1532 1.391 1_545 S
C1534 C1535 1.400 . S
C1535 C1534 1.400 . S
C1535 C1536 1.398 1_545 S
C1535 C1541 1.491 . S
C1536 H1527 0.950 . S
C1536 C1535 1.398 1_565 S
C1536 C1537 1.391 . S
C1537 H1525 0.950 . S
C1537 C1533 1.393 . S
C1537 C1536 1.391 . S
C1538 H1528 0.950 . S
C1538 C1539 1.386 . S
C1538 C1540 1.391 . S
C1539 C1538 1.386 . S
C1539 C1543 1.393 . S
C1540 H1529 0.950 . S
C1540 C1538 1.391 . S
C1540 C1541 1.400 . S
C1541 C1535 1.491 . S
C1541 C1540 1.400 . S
C1541 C1542 1.398 . S
C1542 H1530 0.950 . S
C1542 C1541 1.398 . S
C1542 C1543 1.391 . S
C1543 H1531 0.950 . S
C1543 C1539 1.393 . S
C1543 C1542 1.391 . S
H1544 C1552 0.950 . S
H1545 C1557 0.950 . S
H1546 C1554 0.950 . S
H1547 C1556 0.949 . S
H1548 C1558 0.950 . S
H1549 C1560 0.950 . S
H1550 C1562 0.950 . S
H1551 C1563 0.950 . S
C1552 H1544 0.950 . S
C1552 C1553 1.386 . S
C1552 C1554 1.391 1_545 S
C1553 C1552 1.386 . S
C1553 C1557 1.393 . S
C1554 H1546 0.950 . S
C1554 C1552 1.391 1_565 S
C1554 C1555 1.400 . S
C1555 C1554 1.400 . S
C1555 C1556 1.398 1_565 S
C1555 C1561 1.491 . S
C1556 H1547 0.949 . S
C1556 C1555 1.398 1_545 S
C1556 C1557 1.391 . S
C1557 H1545 0.950 . S
C1557 C1553 1.393 . S
C1557 C1556 1.391 . S
C1558 H1548 0.950 . S
C1558 C1559 1.386 . S
C1558 C1560 1.391 . S
C1559 C1558 1.386 . S
C1559 C1563 1.393 . S
C1560 H1549 0.950 . S
C1560 C1558 1.391 . S
C1560 C1561 1.400 . S
C1561 C1555 1.491 . S
C1561 C1560 1.400 . S
C1561 C1562 1.398 . S
C1562 H1550 0.950 . S
C1562 C1561 1.398 . S
C1562 C1563 1.391 . S
C1563 H1551 0.950 . S
C1563 C1559 1.393 . S
C1563 C1562 1.391 . S
H1564 C1572 0.950 . S
H1565 C1577 0.950 . S
H1566 C1574 0.950 . S
H1567 C1576 0.950 . S
H1568 C1578 0.950 . S
H1569 C1580 0.950 . S
H1570 C1582 0.950 . S
H1571 C1583 0.950 . S
C1572 H1564 0.950 . S
C1572 C1573 1.386 . S
C1572 C1574 1.391 . S
C1573 C1572 1.386 . S
C1573 C1577 1.393 . S
C1574 H1566 0.950 . S
C1574 C1572 1.391 . S
C1574 C1575 1.400 . S
C1575 C1574 1.400 . S
C1575 C1576 1.398 . S
C1575 C1581 1.491 . S
C1576 H1567 0.950 . S
C1576 C1575 1.398 . S
C1576 C1577 1.391 . S
C1577 H1565 0.950 . S
C1577 C1573 1.393 . S
C1577 C1576 1.391 . S
C1578 H1568 0.950 . S
C1578 C1579 1.386 . S
C1578 C1580 1.391 . S
C1579 C1578 1.386 . S
C1579 C1583 1.393 . S
C1580 H1569 0.950 . S
C1580 C1578 1.391 . S
C1580 C1581 1.400 . S
C1581 C1575 1.491 . S
C1581 C1580 1.400 . S
C1581 C1582 1.398 . S
C1582 H1570 0.950 . S
C1582 C1581 1.398 . S
C1582 C1583 1.391 . S
C1583 H1571 0.950 . S
C1583 C1579 1.393 . S
C1583 C1582 1.391 . S
H1584 C1592 0.950 . S
H1585 C1597 0.950 . S
H1586 C1594 0.950 . S
H1587 C1596 0.950 . S
H1588 C1598 0.950 . S
H1589 C1600 0.950 . S
H1590 C1602 0.950 . S
H1591 C1603 0.950 . S
C1592 H1584 0.950 . S
C1592 C1593 1.386 . S
C1592 C1594 1.391 . S
C1593 C1592 1.386 . S
C1593 C1597 1.393 . S
C1594 H1586 0.950 . S
C1594 C1592 1.391 . S
C1594 C1595 1.400 . S
C1595 C1594 1.400 . S
C1595 C1596 1.398 . S
C1595 C1601 1.491 . S
C1596 H1587 0.950 . S
C1596 C1595 1.398 . S
C1596 C1597 1.391 . S
C1597 H1585 0.950 . S
C1597 C1593 1.393 . S
C1597 C1596 1.391 . S
C1598 H1588 0.950 . S
C1598 C1599 1.386 . S
C1598 C1600 1.391 . S
C1599 C1598 1.386 . S
C1599 C1603 1.393 . S
C1600 H1589 0.950 . S
C1600 C1598 1.391 . S
C1600 C1601 1.400 . S
C1601 C1595 1.491 . S
C1601 C1600 1.400 . S
C1601 C1602 1.398 . S
C1602 H1590 0.950 . S
C1602 C1601 1.398 . S
C1602 C1603 1.391 . S
C1603 H1591 0.950 . S
C1603 C1599 1.393 . S
C1603 C1602 1.391 . S
H1604 C1612 0.950 . S
H1605 C1617 0.950 . S
H1606 C1614 0.941 1_554 S
H1607 C1616 0.964 . S
H1608 C1618 0.950 . S
H1609 C1620 0.950 . S
H1610 C1622 0.950 . S
H1611 C1623 0.950 . S
C1612 H1604 0.950 . S
C1612 C1613 1.386 . S
C1612 C1614 1.410 . S
C1613 C1612 1.386 . S
C1613 C1617 1.393 . S
C1614 H1606 0.941 1_556 S
C1614 C1612 1.410 . S
C1614 C1615 1.390 1_556 S
C1615 C1614 1.390 1_554 S
C1615 C1616 1.411 . S
C1615 C1621 1.491 . S
C1616 H1607 0.964 . S
C1616 C1615 1.411 . S
C1616 C1617 1.365 1_554 S
C1617 H1605 0.950 . S
C1617 C1613 1.393 . S
C1617 C1616 1.365 1_556 S
C1618 H1608 0.950 . S
C1618 C1619 1.386 . S
C1618 C1620 1.391 . S
C1619 C1618 1.386 . S
C1619 C1623 1.393 . S
C1620 H1609 0.950 . S
C1620 C1618 1.391 . S
C1620 C1621 1.400 . S
C1621 C1615 1.491 . S
C1621 C1620 1.400 . S
C1621 C1622 1.398 . S
C1622 H1610 0.950 . S
C1622 C1621 1.398 . S
C1622 C1623 1.391 . S
C1623 H1611 0.950 . S
C1623 C1619 1.393 . S
C1623 C1622 1.391 . S
H1624 C1632 0.950 . S
H1625 C1637 0.950 . S
H1626 C1634 0.950 . S
H1627 C1636 0.950 . S
H1628 C1638 0.950 . S
H1629 C1640 0.950 . S
H1630 C1642 0.950 . S
H1631 C1643 0.950 . S
C1632 H1624 0.950 . S
C1632 C1633 1.386 . S
C1632 C1634 1.391 . S
C1633 C1632 1.386 . S
C1633 C1637 1.393 . S
C1634 H1626 0.950 . S
C1634 C1632 1.391 . S
C1634 C1635 1.400 . S
C1635 C1634 1.400 . S
C1635 C1636 1.398 . S
C1635 C1641 1.491 . S
C1636 H1627 0.950 . S
C1636 C1635 1.398 . S
C1636 C1637 1.391 . S
C1637 H1625 0.950 . S
C1637 C1633 1.393 . S
C1637 C1636 1.391 . S
C1638 H1628 0.950 . S
C1638 C1639 1.386 . S
C1638 C1640 1.391 . S
C1639 C1638 1.386 . S
C1639 C1643 1.393 . S
C1640 H1629 0.950 . S
C1640 C1638 1.391 . S
C1640 C1641 1.400 . S
C1641 C1635 1.491 . S
C1641 C1640 1.400 . S
C1641 C1642 1.398 . S
C1642 H1630 0.950 . S
C1642 C1641 1.398 . S
C1642 C1643 1.391 . S
C1643 H1631 0.950 . S
C1643 C1639 1.393 . S
C1643 C1642 1.391 . S
H1644 C1652 0.950 . S
H1645 C1657 0.950 . S
H1646 C1654 0.950 . S
H1647 C1656 0.950 . S
H1648 C1658 0.950 . S
H1649 C1660 0.950 . S
H1650 C1662 0.950 . S
H1651 C1663 0.950 . S
C1652 H1644 0.950 . S
C1652 C1653 1.386 . S
C1652 C1654 1.391 1_554 S
C1653 C1652 1.386 . S
C1653 C1657 1.393 . S
C1654 H1646 0.950 . S
C1654 C1652 1.391 1_556 S
C1654 C1655 1.400 . S
C1655 C1654 1.400 . S
C1655 C1656 1.398 1_556 S
C1655 C1661 1.491 . S
C1656 H1647 0.950 . S
C1656 C1655 1.398 1_554 S
C1656 C1657 1.391 . S
C1657 H1645 0.950 . S
C1657 C1653 1.393 . S
C1657 C1656 1.391 . S
C1658 H1648 0.950 . S
C1658 C1659 1.386 . S
C1658 C1660 1.391 . S
C1659 C1658 1.386 . S
C1659 C1663 1.393 . S
C1660 H1649 0.950 . S
C1660 C1658 1.391 . S
C1660 C1661 1.400 . S
C1661 C1655 1.491 . S
C1661 C1660 1.400 . S
C1661 C1662 1.398 . S
C1662 H1650 0.950 . S
C1662 C1661 1.398 . S
C1662 C1663 1.391 . S
C1663 H1651 0.950 . S
C1663 C1659 1.393 . S
C1663 C1662 1.391 . S
H1664 C1672 0.950 . S
H1665 C1677 0.950 . S
H1666 C1674 0.950 . S
H1667 C1676 0.950 . S
H1668 C1678 0.950 . S
H1669 C1680 0.950 . S
H1670 C1682 0.950 . S
H1671 C1683 0.950 . S
C1672 H1664 0.950 . S
C1672 C1673 1.386 . S
C1672 C1674 1.391 . S
C1673 C1672 1.386 . S
C1673 C1677 1.393 . S
C1674 H1666 0.950 . S
C1674 C1672 1.391 . S
C1674 C1675 1.400 . S
C1675 C1674 1.400 . S
C1675 C1676 1.398 . S
C1675 C1681 1.491 . S
C1676 H1667 0.950 . S
C1676 C1675 1.398 . S
C1676 C1677 1.391 . S
C1677 H1665 0.950 . S
C1677 C1673 1.393 . S
C1677 C1676 1.391 . S
C1678 H1668 0.950 . S
C1678 C1679 1.386 . S
C1678 C1680 1.391 . S
C1679 C1678 1.386 . S
C1679 C1683 1.393 . S
C1680 H1669 0.950 . S
C1680 C1678 1.391 . S
C1680 C1681 1.400 . S
C1681 C1675 1.491 . S
C1681 C1680 1.400 . S
C1681 C1682 1.398 . S
C1682 H1670 0.950 . S
C1682 C1681 1.398 . S
C1682 C1683 1.391 . S
C1683 H1671 0.950 . S
C1683 C1679 1.393 . S
C1683 C1682 1.391 . S
H1684 C1692 0.950 . S
H1685 C1697 0.950 . S
H1686 C1694 0.950 . S
H1687 C1696 0.950 . S
H1688 C1698 0.950 . S
H1689 C1700 0.950 1_655 S
H1690 C1702 0.962 . S
H1691 C1703 0.950 . S
C1692 H1684 0.950 . S
C1692 C1693 1.386 . S
C1692 C1694 1.391 . S
C1693 C1692 1.386 . S
C1693 C1697 1.393 . S
C1694 H1686 0.950 . S
C1694 C1692 1.391 . S
C1694 C1695 1.400 . S
C1695 C1694 1.400 . S
C1695 C1696 1.398 . S
C1695 C1701 1.491 . S
C1696 H1687 0.950 . S
C1696 C1695 1.398 . S
C1696 C1697 1.391 . S
C1697 H1685 0.950 . S
C1697 C1693 1.393 . S
C1697 C1696 1.391 . S
C1698 H1688 0.950 . S
C1698 C1699 1.386 . S
C1698 C1700 1.391 . S
C1699 C1698 1.386 . S
C1699 C1703 1.393 . S
C1700 H1689 0.950 1_455 S
C1700 C1698 1.391 . S
C1700 C1701 1.400 1_455 S
C1701 C1695 1.491 . S
C1701 C1700 1.400 1_655 S
C1701 C1702 1.398 1_655 S
C1702 H1690 0.962 . S
C1702 C1701 1.398 1_455 S
C1702 C1703 1.391 . S
C1703 H1691 0.950 . S
C1703 C1699 1.393 . S
C1703 C1702 1.391 . S
H1704 C1712 0.950 . S
H1705 C1717 0.950 . S
H1706 C1714 0.950 . S
H1707 C1716 0.950 . S
H1708 C1718 0.950 . S
H1709 C1720 0.950 . S
H1710 C1722 0.936 1_455 S
H1711 C1723 0.950 . S
C1712 H1704 0.950 . S
C1712 C1713 1.386 . S
C1712 C1714 1.391 . S
C1713 C1712 1.386 . S
C1713 C1717 1.393 . S
C1714 H1706 0.950 . S
C1714 C1712 1.391 . S
C1714 C1715 1.400 . S
C1715 C1714 1.400 . S
C1715 C1716 1.398 . S
C1715 C1721 1.491 . S
C1716 H1707 0.950 . S
C1716 C1715 1.398 . S
C1716 C1717 1.391 . S
C1717 H1705 0.950 . S
C1717 C1713 1.393 . S
C1717 C1716 1.391 . S
C1718 H1708 0.950 . S
C1718 C1719 1.386 . S
C1718 C1720 1.391 . S
C1719 C1718 1.386 . S
C1719 C1723 1.393 . S
C1720 H1709 0.950 . S
C1720 C1718 1.391 . S
C1720 C1721 1.400 1_655 S
C1721 C1715 1.491 . S
C1721 C1720 1.400 1_455 S
C1721 C1722 1.392 1_455 S
C1722 H1710 0.936 1_655 S
C1722 C1721 1.392 1_655 S
C1722 C1723 1.411 . S
C1723 H1711 0.950 . S
C1723 C1719 1.393 . S
C1723 C1722 1.411 . S
H1724 C1732 0.950 . S
H1725 C1737 0.950 . S
H1726 C1734 0.950 . S
H1727 C1736 0.950 . S
H1728 C1738 0.950 . S
H1729 C1740 0.950 . S
H1730 C1742 0.950 . S
H1731 C1743 0.950 . S
C1732 H1724 0.950 . S
C1732 C1733 1.386 . S
C1732 C1734 1.391 . S
C1733 C1732 1.386 . S
C1733 C1737 1.393 . S
C1734 H1726 0.950 . S
C1734 C1732 1.391 . S
C1734 C1735 1.400 . S
C1735 C1734 1.400 . S
C1735 C1736 1.398 . S
C1735 C1741 1.491 . S
C1736 H1727 0.950 . S
C1736 C1735 1.398 . S
C1736 C1737 1.391 . S
C1737 H1725 0.950 . S
C1737 C1733 1.393 . S
C1737 C1736 1.391 . S
C1738 H1728 0.950 . S
C1738 C1739 1.386 . S
C1738 C1740 1.391 . S
C1739 C1738 1.386 . S
C1739 C1743 1.393 . S
C1740 H1729 0.950 . S
C1740 C1738 1.391 . S
C1740 C1741 1.400 . S
C1741 C1735 1.491 . S
C1741 C1740 1.400 . S
C1741 C1742 1.398 . S
C1742 H1730 0.950 . S
C1742 C1741 1.398 . S
C1742 C1743 1.391 . S
C1743 H1731 0.950 . S
C1743 C1739 1.393 . S
C1743 C1742 1.391 . S
H1744 C1752 0.950 . S
H1745 C1757 0.950 . S
H1746 C1754 0.950 . S
H1747 C1756 0.950 . S
H1748 C1758 0.950 . S
H1749 C1760 0.950 . S
H1750 C1762 0.950 . S
H1751 C1763 0.950 . S
C1752 H1744 0.950 . S
C1752 C1753 1.386 . S
C1752 C1754 1.391 . S
C1753 C1752 1.386 . S
C1753 C1757 1.393 . S
C1754 H1746 0.950 . S
C1754 C1752 1.391 . S
C1754 C1755 1.400 . S
C1755 C1754 1.400 . S
C1755 C1756 1.398 . S
C1755 C1761 1.491 . S
C1756 H1747 0.950 . S
C1756 C1755 1.398 . S
C1756 C1757 1.391 . S
C1757 H1745 0.950 . S
C1757 C1753 1.393 . S
C1757 C1756 1.391 . S
C1758 H1748 0.950 . S
C1758 C1759 1.386 . S
C1758 C1760 1.391 . S
C1759 C1758 1.386 . S
C1759 C1763 1.393 . S
C1760 H1749 0.950 . S
C1760 C1758 1.391 . S
C1760 C1761 1.400 . S
C1761 C1755 1.491 . S
C1761 C1760 1.400 . S
C1761 C1762 1.398 . S
C1762 H1750 0.950 . S
C1762 C1761 1.398 . S
C1762 C1763 1.391 . S
C1763 H1751 0.950 . S
C1763 C1759 1.393 . S
C1763 C1762 1.391 . S
H1764 C1772 0.950 . S
H1765 C1777 0.950 . S
H1766 C1774 0.950 . S
H1767 C1776 0.950 . S
H1768 C1778 0.950 . S
H1769 C1780 0.950 . S
H1770 C1782 0.950 1_565 S
H1771 C1783 0.950 . S
C1772 H1764 0.950 . S
C1772 C1773 1.386 . S
C1772 C1774 1.391 . S
C1773 C1772 1.386 . S
C1773 C1777 1.393 . S
C1774 H1766 0.950 . S
C1774 C1772 1.391 . S
C1774 C1775 1.400 . S
C1775 C1774 1.400 . S
C1775 C1776 1.398 . S
C1775 C1781 1.491 . S
C1776 H1767 0.950 . S
C1776 C1775 1.398 . S
C1776 C1777 1.391 . S
C1777 H1765 0.950 . S
C1777 C1773 1.393 . S
C1777 C1776 1.391 . S
C1778 H1768 0.950 . S
C1778 C1779 1.386 . S
C1778 C1780 1.391 . S
C1779 C1778 1.386 . S
C1779 C1783 1.393 . S
C1780 H1769 0.950 . S
C1780 C1778 1.391 . S
C1780 C1781 1.400 1_545 S
C1781 C1775 1.491 . S
C1781 C1780 1.400 1_565 S
C1781 C1782 1.398 1_565 S
C1782 H1770 0.950 1_545 S
C1782 C1781 1.398 1_545 S
C1782 C1783 1.391 . S
C1783 H1771 0.950 . S
C1783 C1779 1.393 . S
C1783 C1782 1.391 . S
H1784 C1792 0.950 . S
H1785 C1797 0.950 . S
H1786 C1794 0.950 1_545 S
H1787 C1796 0.950 . S
H1788 C1798 0.950 . S
H1789 C1800 0.950 . S
H1790 C1802 0.950 . S
H1791 C1803 0.950 . S
C1792 H1784 0.950 . S
C1792 C1793 1.386 . S
C1792 C1794 1.391 . S
C1793 C1792 1.386 . S
C1793 C1797 1.393 . S
C1794 H1786 0.950 1_565 S
C1794 C1792 1.391 . S
C1794 C1795 1.400 1_565 S
C1795 C1794 1.400 1_545 S
C1795 C1796 1.398 1_545 S
C1795 C1801 1.491 . S
C1796 H1787 0.950 . S
C1796 C1795 1.398 1_565 S
C1796 C1797 1.391 . S
C1797 H1785 0.950 . S
C1797 C1793 1.393 . S
C1797 C1796 1.391 . S
C1798 H1788 0.950 . S
C1798 C1799 1.386 . S
C1798 C1800 1.391 . S
C1799 C1798 1.386 . S
C1799 C1803 1.393 . S
C1800 H1789 0.950 . S
C1800 C1798 1.391 . S
C1800 C1801 1.400 . S
C1801 C1795 1.491 . S
C1801 C1800 1.400 . S
C1801 C1802 1.398 . S
C1802 H1790 0.950 . S
C1802 C1801 1.398 . S
C1802 C1803 1.391 . S
C1803 H1791 0.950 . S
C1803 C1799 1.393 . S
C1803 C1802 1.391 . S
H1804 C1812 0.950 . S
H1805 C1817 0.950 . S
H1806 C1814 0.950 . S
H1807 C1816 0.950 . S
H1808 C1818 0.950 . S
H1809 C1820 0.950 . S
H1810 C1822 0.950 . S
H1811 C1823 0.950 . S
C1812 H1804 0.950 . S
C1812 C1813 1.386 . S
C1812 C1814 1.391 . S
C1813 C1812 1.386 . S
C1813 C1817 1.393 . S
C1814 H1806 0.950 . S
C1814 C1812 1.391 . S
C1814 C1815 1.400 . S
C1815 C1814 1.400 . S
C1815 C1816 1.398 . S
C1815 C1821 1.491 . S
C1816 H1807 0.950 . S
C1816 C1815 1.398 . S
C1816 C1817 1.391 . S
C1817 H1805 0.950 . S
C1817 C1813 1.393 . S
C1817 C1816 1.391 . S
C1818 H1808 0.950 . S
C1818 C1819 1.386 . S
C1818 C1820 1.391 . S
C1819 C1818 1.386 . S
C1819 C1823 1.393 . S
C1820 H1809 0.950 . S
C1820 C1818 1.391 . S
C1820 C1821 1.400 . S
C1821 C1815 1.491 . S
C1821 C1820 1.400 . S
C1821 C1822 1.398 . S
C1822 H1810 0.950 . S
C1822 C1821 1.398 . S
C1822 C1823 1.391 . S
C1823 H1811 0.950 . S
C1823 C1819 1.393 . S
C1823 C1822 1.391 . S
C873 C291 0.986 . S
C879 C3 0.983 . S
C893 C39 0.984 . S
C899 C399 0.986 . S
C913 C75 0.963 . S
C919 C327 0.991 . S
C933 C111 0.962 . S
C939 C363 0.988 . S
C953 C147 1.010 . S
C959 C2 1.009 . S
C973 C38 0.985 . S
C979 C183 1.022 . S
C993 C219 1.020 . S
C999 C74 0.974 . S
C1013 C110 0.970 . S
C1019 C255 1.015 . S
C1033 C146 1.074 . S
C1039 C290 1.053 . S
C1053 C218 1.073 . S
C1059 C326 1.055 . S
C1073 C362 1.061 . S
C1079 C254 1.054 . S
C1093 C182 1.057 . S
C1099 C398 1.022 . S
C1113 C722 0.988 . S
C1119 C435 1.020 . S
C1133 C471 1.018 . S
C1139 C830 0.997 . S
C1153 C507 0.995 . S
C1159 C758 1.004 . S
C1173 C794 1.008 . S
C1179 C543 0.997 . S
C1193 C579 1.038 . S
C1199 C434 1.018 . S
C1213 C470 1.013 . S
C1219 C615 1.016 . S
C1233 C506 1.025 . S
C1239 C651 1.016 . S
C1253 C687 1.040 . S
C1259 C542 1.012 . S
C1273 C723 1.012 . S
C1279 C578 0.982 . S
C1293 C650 1.013 . S
C1299 C759 1.002 . S
C1313 C686 1.007 . S
C1319 C795 1.001 . S
C1333 C831 1.006 . S
C1339 C614 0.988 . S
C1353 C806 1.345 . S
C1359 C4 1.349 . S
C1373 C770 1.328 . S
C1379 C40 1.355 . S
C1393 C842 1.324 . S
C1399 C76 1.350 . S
C1413 C112 1.345 . S
C1419 C734 1.325 . S
C1433 C148 1.376 . S
C1439 C482 1.348 . S
C1453 C446 1.343 . S
C1459 C184 1.367 . S
C1473 C554 1.363 . S
C1479 C220 1.368 . S
C1493 C518 1.358 . S
C1499 C256 1.374 . S
C1513 C302 1.342 . S
C1519 C662 1.321 . S
C1533 C590 1.320 . S
C1539 C338 1.343 . S
C1553 C626 1.321 . S
C1559 C374 1.349 . S
C1573 C698 1.342 . S
C1579 C410 1.336 . S
C1593 C364 1.413 . S
C1599 C436 1.410 . S
C1613 C328 1.412 . S
C1619 C472 1.408 . S
C1633 C508 1.405 . S
C1639 C400 1.420 . S
C1653 C292 1.411 . S
C1659 C544 1.397 . S
C1673 C580 1.372 . S
C1679 C50 1.377 . S
C1693 C616 1.370 . S
C1699 C14 1.360 . S
C1713 C652 1.378 . S
C1719 C122 1.377 . S
C1733 C688 1.378 . S
C1739 C86 1.357 . S
C1753 C724 1.375 . S
C1759 C230 1.355 . S
C1773 C760 1.369 . S
C1779 C158 1.371 . S
C1793 C194 1.376 . S
C1799 C796 1.374 . S
C1813 C832 1.384 . S
C1819 C266 1.371 . S
