# Generated by pormake.
# Topology snp, (6)-cn, num edge types: 1
# Building blocks:
#     Node 0, Type 0, BuildingBlock: GEDQOX_clean_sbu_0, # of connection points: 6
#     Node 1, Type 0, BuildingBlock: GEDQOX_clean_sbu_0, # of connection points: 6
#     Node 2, Type 0, BuildingBlock: GEDQOX_clean_sbu_0, # of connection points: 6
#     Node 3, Type 0, BuildingBlock: GEDQOX_clean_sbu_0, # of connection points: 6
#     Edge 4, Type (0, 0), BuildingBlock: UVAHIK_clean_linker_0, # of connection points: 2
#     Edge 5, Type (0, 0), BuildingBlock: UVAHIK_clean_linker_0, # of connection points: 2
#     Edge 6, Type (0, 0), BuildingBlock: UVAHIK_clean_linker_0, # of connection points: 2
#     Edge 7, Type (0, 0), BuildingBlock: UVAHIK_clean_linker_0, # of connection points: 2
#     Edge 8, Type (0, 0), BuildingBlock: UVAHIK_clean_linker_0, # of connection points: 2
#     Edge 9, Type (0, 0), BuildingBlock: UVAHIK_clean_linker_0, # of connection points: 2
#     Edge 10, Type (0, 0), BuildingBlock: UVAHIK_clean_linker_0, # of connection points: 2
#     Edge 11, Type (0, 0), BuildingBlock: UVAHIK_clean_linker_0, # of connection points: 2
#     Edge 12, Type (0, 0), BuildingBlock: UVAHIK_clean_linker_0, # of connection points: 2
#     Edge 13, Type (0, 0), BuildingBlock: UVAHIK_clean_linker_0, # of connection points: 2
#     Edge 14, Type (0, 0), BuildingBlock: UVAHIK_clean_linker_0, # of connection points: 2
#     Edge 15, Type (0, 0), BuildingBlock: UVAHIK_clean_linker_0, # of connection points: 2
# Relax obj value: 0.189
# Max RMSD: 0.207
# Mean RMSD: 0.196
data_MOF--net-snp--node1-GEDQOX_clean_sbu_0--edge1-UVAHIK_clean_linker_0
_symmetry_space_group_name_H-M    P1
_symmetry_Int_Tables_number       1
_symmetry_cell_setting            triclinic
loop_
_symmetry_equiv_pos_as_xyz
'x, y, z'
_cell_length_a     32.528483
_cell_length_b     32.439941
_cell_length_c     43.823658
_cell_angle_alpha  87.186539
_cell_angle_beta   102.67568
_cell_angle_gamma 93.518979
loop_
_atom_site_label
_atom_site_type_symbol
_atom_site_fract_x
_atom_site_fract_y
_atom_site_fract_z
_atom_type_partial_charge
Nd0 Nd 0.23927 0.0449 0.07032 0.0
Nd1 Nd 0.25826 0.11563 0.1162 0.0
C2 C 0.23429 0.97999 0.03489 0.0
C3 C 0.22109 0.97135 1.00107 0.0
C4 C 0.24467 0.94558 0.98745 0.0
C5 C 0.23163 0.93574 0.95583 0.0
C6 C 0.19447 0.95123 0.93715 0.0
C7 C 0.1713 0.97762 0.95076 0.0
C8 C 0.18453 -0.01229 0.98227 0.0
C9 C 0.17174 0.09195 0.07094 0.0
C10 C 0.25585 0.13633 0.04137 0.0
C11 C 0.263 0.18063 0.15125 0.0
C12 C 0.25258 0.18977 0.18132 0.0
C13 C 0.21238 0.17974 0.18735 0.0
C14 C 0.2036 0.1883 0.21621 0.0
C15 C 0.23491 0.20674 0.23976 0.0
C16 C 0.27516 0.21644 0.23359 0.0
C17 C 0.28378 0.20821 0.20468 0.0
C18 C 0.32491 0.06787 0.11561 0.0
C19 C 0.22679 0.02831 0.14293 0.0
O20 O 0.26917 0.00272 0.04385 0.0
O21 O 0.20458 -0.01109 0.04898 0.0
O22 O 0.17859 0.07663 0.04577 0.0
O23 O 0.19936 0.08042 0.09408 0.0
O24 O 0.25534 0.09639 0.03674 0.0
O25 O 0.25461 0.15073 0.06883 0.0
O26 O 0.23158 0.17275 0.12759 0.0
O27 O 0.29431 0.15662 0.15293 0.0
O28 O 0.31679 0.08129 0.14093 0.0
O29 O 0.299 0.08057 0.09182 0.0
O30 O 0.22496 0.0687 0.14401 0.0
O31 O 0.23924 0.01168 0.11947 0.0
H32 H 0.27295 0.93258 1.00141 0.0
H33 H 0.25006 0.91508 0.94624 0.0
H34 H 0.1429 -0.0094 0.937 0.0
H35 H 0.16588 0.00802 0.99199 0.0
H36 H 0.1877 0.16526 0.16984 0.0
H37 H 0.17211 0.18083 0.21989 0.0
H38 H 0.30035 0.22989 0.25127 0.0
H39 H 0.31509 0.21596 0.20064 0.0
Nd40 Nd 0.09126 0.25595 0.66692 0.0
Nd41 Nd 0.01769 0.21466 0.69627 0.0
C42 C 0.14115 0.30148 0.63732 0.0
C43 C 0.15031 0.29598 0.60633 0.0
C44 C 0.15882 0.33021 0.58749 0.0
C45 C 0.16489 0.32471 0.55728 0.0
C46 C 0.16252 0.28481 0.54539 0.0
C47 C 0.15427 0.25065 0.5646 0.0
C48 C 0.14795 0.2562 0.59458 0.0
C49 C 0.10602 0.1787 0.69253 0.0
C50 C 0.02162 0.19399 0.62326 0.0
C51 C 0.96364 0.17035 0.7238 0.0
C52 C 0.95794 0.15879 0.75604 0.0
C53 C 0.95422 0.11692 0.76536 0.0
C54 C 0.94668 0.10532 0.79502 0.0
C55 C 0.94247 0.13532 0.8162 0.0
C56 C 0.94668 0.17729 0.80692 0.0
C57 C 0.95439 0.18888 0.77729 0.0
C58 C 0.00628 0.29248 0.66929 0.0
C59 C 0.09124 0.27117 0.74028 0.0
O60 O 0.10256 0.31102 0.6371 0.0
O61 O 0.15503 0.27321 0.65887 0.0
O62 O 0.11945 0.19321 0.66812 0.0
O63 O 0.08733 0.20549 0.70356 0.0
O64 O 0.05237 0.22288 0.62443 0.0
O65 O 0.00491 0.1836 0.64788 0.0
O66 O 0.99443 0.15417 0.71443 0.0
O67 O 0.95883 0.20893 0.71413 0.0
O68 O 0.99436 0.28097 0.69492 0.0
O69 O 0.02196 0.26323 0.65894 0.0
O70 O 0.06304 0.23989 0.73953 0.0
O71 O 0.10344 0.28643 0.71488 0.0
H72 H 0.16013 0.36119 0.59595 0.0
H73 H 0.17057 0.35179 0.54303 0.0
H74 H 0.15286 0.21945 0.55658 0.0
H75 H 0.14087 0.22928 0.60853 0.0
H76 H 0.95658 0.09303 0.74949 0.0
H77 H 0.94318 0.07272 0.80105 0.0
H78 H 0.94427 0.20132 0.82264 0.0
H79 H 0.95725 0.22147 0.77101 0.0
Nd80 Nd 0.80808 0.8874 0.13299 0.0
Nd81 Nd 0.81743 0.96007 0.17632 0.0
C82 C 0.80999 0.82049 0.10108 0.0
C83 C 0.81471 0.81262 0.06927 0.0
C84 C 0.81748 0.84547 0.04764 0.0
C85 C 0.82249 0.83778 1.01755 0.0
C86 C 0.82486 0.79705 1.00854 0.0
C87 C 0.82204 0.76429 0.03043 0.0
C88 C 0.81701 0.77204 0.0605 0.0
C89 C 0.73945 0.93567 0.12378 0.0
C90 C 0.83895 0.97401 0.10597 0.0
C91 C 0.8197 0.02686 0.20945 0.0
C92 C 0.8317 0.03716 0.24294 0.0
C93 C 0.83046 0.00697 0.26691 0.0
C94 C 0.844 0.01706 0.2985 0.0
C95 C 0.85946 0.05746 0.30678 0.0
C96 C 0.86022 0.08756 0.28257 0.0
C97 C 0.84652 0.0775 0.2511 0.0
C98 C 0.88536 0.91064 0.18739 0.0
C99 C 0.79295 0.8708 0.20428 0.0
O100 O 0.8432 0.83718 0.11964 0.0
O101 O 0.77506 0.83695 0.10315 0.0
O102 O 0.75298 0.92074 0.10107 0.0
O103 O 0.76119 0.92423 0.14984 0.0
O104 O 0.84282 0.93386 0.10631 0.0
O105 O 0.82273 -0.00899 0.12745 0.0
O106 O 0.78556 0.00306 0.2005 0.0
O107 O 0.85054 0.01755 0.19673 0.0
O108 O 0.87124 0.92695 0.20922 0.0
O109 O 0.86436 0.92221 0.16097 0.0
O110 O 0.78915 0.91085 0.20601 0.0
O111 O 0.80435 0.85516 0.1803 0.0
H112 H 0.81576 0.87707 0.05404 0.0
H113 H 0.82403 0.86372 1.00124 0.0
H114 H 0.82439 0.73262 1.02452 0.0
H115 H 0.81515 0.74634 0.07697 0.0
H116 H 0.81957 0.97546 0.26122 0.0
H117 H 0.84332 -0.00704 0.3164 0.0
H118 H 0.8713 0.1191 0.28794 0.0
H119 H 0.84789 0.10127 0.23304 0.0
Nd120 Nd 0.02745 0.79636 0.54741 0.0
Nd121 Nd 0.96057 0.74457 0.58125 0.0
C122 C 0.07328 0.84808 0.51753 0.0
C123 C 0.08506 0.85546 0.4867 0.0
C124 C 0.08715 0.89615 0.47448 0.0
C125 C 0.09713 0.9046 0.44522 0.0
C126 C 0.10536 0.87255 0.42718 0.0
C127 C 0.10368 0.83167 0.43961 0.0
C128 C 0.09345 0.82319 0.46899 0.0
C129 C 0.04026 0.71435 0.56246 0.0
C130 C 0.94754 0.74388 0.50498 0.0
C131 C 0.92026 0.6916 0.61323 0.0
C132 C 0.91329 0.69371 0.64532 0.0
C133 C 0.94558 0.70924 0.66947 0.0
C134 C 0.93763 0.71585 0.69886 0.0
C135 C 0.8971 0.70744 0.70481 0.0
C136 C 0.86504 0.69102 0.68078 0.0
C137 C 0.87308 0.68428 0.65133 0.0
C138 C 0.94466 0.8264 0.57107 0.0
C139 C 0.03476 0.80428 0.62385 0.0
O140 O 0.03392 0.85333 0.51812 0.0
O141 O 0.08885 0.81672 0.53548 0.0
O142 O 0.04806 0.7321 0.53695 0.0
O143 O 0.02786 0.73981 0.5786 0.0
O144 O 0.97683 0.77421 0.50584 0.0
O145 O 0.93883 0.72465 0.53035 0.0
O146 O 0.95918 0.68721 0.6107 0.0
O147 O 0.90086 0.71881 0.5929 0.0
O148 O 0.92934 0.80195 0.59061 0.0
O149 O 0.96195 0.80514 0.55427 0.0
O150 O 0.00515 0.77422 0.62323 0.0
O151 O 0.0478 0.81871 0.59844 0.0
H152 H 0.08091 0.92161 0.48764 0.0
H153 H 0.09878 0.9365 0.43685 0.0
H154 H 0.10946 0.80613 0.42638 0.0
H155 H 0.09179 0.79144 0.47772 0.0
H156 H 0.97685 0.71719 0.66549 0.0
H157 H 0.96329 0.72786 0.71688 0.0
H158 H 0.83334 0.68463 0.68435 0.0
H159 H 0.84756 0.67283 0.63295 0.0
C160 C 0.94432 0.88974 0.16576 0.0
C161 C 0.93013 0.90257 0.19154 0.0
C162 C 0.98462 0.90243 0.16205 0.0
C163 C 0.02995 0.0025 0.17531 0.0
H164 H 0.09248 0.97322 0.11459 0.0
C165 C 0.12559 0.11106 0.1043 0.0
C166 C 0.12898 0.09505 0.0758 0.0
C167 C 0.09945 0.09033 0.12196 0.0
C168 C 0.07471 0.98173 0.13133 0.0
H169 H 0.94947 0.92882 0.2374 0.0
H170 H 0.01975 0.95157 0.23064 0.0
H171 H 0.06821 0.91916 0.14819 0.0
H172 H 0.09917 0.0539 0.03896 0.0
H173 H 0.05256 0.01851 0.06932 0.0
H174 H 0.0352 0.06491 0.1576 0.0
C175 C 0.9997 0.93275 0.21296 0.0
C176 C 0.06173 0.95096 0.15096 0.0
C177 C 0.9594 0.91972 0.21679 0.0
C178 C 0.09806 0.06593 0.06138 0.0
C179 C 0.07198 0.04509 0.07902 0.0
C180 C 0.0431 0.0333 0.15573 0.0
C181 C 0.01045 0.92839 0.18399 0.0
C182 C 0.03743 0.96075 0.17209 0.0
C183 C 0.07606 0.05445 0.11054 0.0
C184 C 0.06377 0.02281 0.1326 0.0
H185 H 0.92248 0.87545 0.14638 0.0
H186 H 0.99232 0.89769 0.1397 0.0
H187 H 0.0108 0.01111 0.19109 0.0
H188 H 0.14858 0.13431 0.11546 0.0
H189 H 0.10223 0.09887 0.14595 0.0
C190 C 0.99381 0.88908 0.57711 0.0
C191 C 0.95509 0.86961 0.57958 0.0
C192 C 0.01195 0.92017 0.59749 0.0
C193 C 0.99285 -0.00959 0.65609 0.0
H194 H 0.1116 0.97573 0.69117 0.0
C195 C 0.08239 0.11824 0.72292 0.0
C196 C 0.10661 0.13481 0.70203 0.0
C197 C 0.07064 0.07609 0.72274 0.0
C198 C 0.07819 0.97944 0.68222 0.0
H199 H 0.90114 0.87222 0.6009 0.0
H200 H 0.93236 0.92649 0.63617 0.0
H201 H 0.07195 0.92733 0.65333 0.0
H202 H 0.14629 0.1202 0.67066 0.0
H203 H 0.12706 0.04713 0.6709 0.0
H204 H 0.99956 0.04395 0.68342 0.0
C205 C 0.94959 0.9172 0.61935 0.0
C206 C 0.05571 0.9523 0.66016 0.0
C207 C 0.93161 0.88628 0.59895 0.0
C208 C 0.12612 0.10819 0.68604 0.0
C209 C 0.11543 0.06611 0.68651 0.0
C210 C 0.01531 0.01755 0.67815 0.0
C211 C 0.99104 0.93246 0.62016 0.0
C212 C 0.01339 0.95871 0.64584 0.0
C213 C 0.08448 0.05048 0.70247 0.0
C214 C 0.05873 0.01357 0.69014 0.0
H215 H 0.01222 0.8774 0.56223 0.0
H216 H 0.04339 0.93269 0.5968 0.0
H217 H 0.96019 -0.00407 0.64563 0.0
H218 H 0.06939 0.13824 0.73702 0.0
H219 H 0.04748 0.06445 0.73585 0.0
C220 C 0.68396 0.96287 0.1471 0.0
C221 C 0.69783 0.95305 0.12032 0.0
C222 C 0.64295 0.97496 0.14463 0.0
C223 C 0.55033 0.01569 0.09052 0.0
H224 H 0.49045 0.9635 0.1508 0.0
C225 C 0.37476 0.04224 0.08568 0.0
C226 C 0.36486 0.04962 0.11448 0.0
C227 C 0.41415 0.02801 0.08472 0.0
C228 C 0.50682 0.97858 0.13395 0.0
H229 H 0.68056 0.94993 0.0698 0.0
H230 H 0.60845 0.97126 0.06543 0.0
H231 H 0.5625 0.94578 0.15215 0.0
H232 H 0.38762 0.04701 0.16483 0.0
H233 H 0.4564 0.02262 0.16322 0.0
H234 H 0.49476 0.04901 0.07264 0.0
C235 C 0.62939 0.96952 0.08832 0.0
C236 C 0.54809 0.96846 0.13473 0.0
C237 C 0.67055 0.95727 0.09082 0.0
C238 C 0.39445 0.04151 0.1423 0.0
C239 C 0.43377 0.02733 0.14136 0.0
C240 C 0.50899 0.02596 0.0898 0.0
C241 C 0.61495 0.97757 0.11532 0.0
C242 C 0.57049 -0.01271 0.11332 0.0
C243 C 0.44426 0.02084 0.11256 0.0
C244 C 0.48699 0.00789 0.11178 0.0
H245 H 0.70446 0.96018 0.17013 0.0
H246 H 0.63298 0.98181 0.16577 0.0
H247 H 0.56694 0.03084 0.07383 0.0
H248 H 0.3524 0.04819 0.06388 0.0
H249 H 0.42109 0.02278 0.0622 0.0
C250 C 0.01286 0.34244 0.62555 0.0
C251 C 0.00754 0.33508 0.65633 0.0
C252 C 0.01773 0.38277 0.61378 0.0
C253 C 0.05375 0.48664 0.63973 0.0
H254 H 0.99312 0.52346 0.55751 0.0
C255 C 0.04408 0.65778 0.60277 0.0
C256 C 0.04332 0.67022 0.57155 0.0
C257 C 0.04327 0.61607 0.61176 0.0
C258 C 0.0109 0.51345 0.58027 0.0
H259 H 1.00175 0.36368 0.69869 0.0
H260 H 0.01033 0.43453 0.67813 0.0
H261 H 0.9823 0.45209 0.57586 0.0
H262 H 0.04302 0.6492 0.52539 0.0
H263 H 0.04234 0.57549 0.54123 0.0
H264 H 0.08254 0.54765 0.64425 0.0
C265 C 0.01111 0.40905 0.66322 0.0
C266 C 0.00449 0.47268 0.59083 0.0
C267 C 0.00586 0.36865 0.67489 0.0
C268 C 0.04347 0.64023 0.54959 0.0
C269 C 0.04273 0.59818 0.55863 0.0
C270 C 0.06042 0.52721 0.6291 0.0
C271 C 0.0176 0.41645 0.63268 0.0
C272 C 0.02532 0.45914 0.62088 0.0
C273 C 0.04213 0.58569 0.58979 0.0
C274 C 0.03848 0.54134 0.59949 0.0
H275 H 0.01401 0.31694 0.61074 0.0
H276 H 0.02287 0.38757 0.59024 0.0
H277 H 0.07093 0.47674 0.66272 0.0
H278 H 0.0445 0.68037 0.62026 0.0
H279 H 0.04222 0.60768 0.63581 0.0
C280 C 0.19835 0.30302 0.50061 0.0
C281 C 0.16837 0.27857 0.51312 0.0
C282 C 0.20452 0.29626 0.47067 0.0
C283 C 0.1547 0.24449 0.39641 0.0
H284 H 0.26829 0.25585 0.38189 0.0
C285 C 0.19954 0.18853 0.28482 0.0
C286 C 0.22585 0.21572 0.27065 0.0
C287 C 0.19165 0.19676 0.31401 0.0
C288 C 0.23634 0.25288 0.38552 0.0
H289 H 0.12052 0.22845 0.50328 0.0
H290 H 0.13246 0.21561 0.45188 0.0
H291 H 0.25627 0.2691 0.43341 0.0
H292 H 0.26356 0.27357 0.27607 0.0
H293 H 0.25056 0.28726 0.3272 0.0
H294 H 0.13509 0.22733 0.34856 0.0
C295 C 0.15083 0.2405 0.46493 0.0
C296 C 0.22937 0.26065 0.41504 0.0
C297 C 0.14442 0.24748 0.49473 0.0
C298 C 0.24387 0.25144 0.28645 0.0
C299 C 0.23633 0.25942 0.31575 0.0
C300 C 0.16176 0.23631 0.36697 0.0
C301 C 0.18108 0.26469 0.45249 0.0
C302 C 0.18843 0.25666 0.4209 0.0
C303 C 0.2102 0.23216 0.32988 0.0
C304 C 0.20264 0.24054 0.36119 0.0
H305 H 0.21766 0.32699 0.51413 0.0
H306 H 0.22764 0.31596 0.46175 0.0
H307 H 0.12264 0.24176 0.39979 0.0
H308 H 0.18563 0.16039 0.27368 0.0
H309 H 0.17173 0.17495 0.32448 0.0
C310 C 0.90498 0.14443 0.86027 0.0
C311 C 0.93322 0.1228 0.84757 0.0
C312 C 0.89531 0.13176 0.88914 0.0
C313 C 0.89783 0.03954 0.94352 0.0
H314 H 0.88139 0.11756 1.00353 0.0
C315 C 0.88437 0.98317 0.06692 0.0
C316 C 0.85315 -0.00124 0.08024 0.0
C317 C 0.89464 0.00167 0.03994 0.0
C318 C 0.88545 0.09535 0.98691 0.0
H319 H 0.97457 0.07161 0.85635 0.0
H320 H 0.95798 0.04972 0.9064 0.0
H321 H 0.89847 0.14293 0.95394 0.0
H322 H 0.80959 0.04756 0.07623 0.0
H323 H 0.82737 0.08014 0.02846 0.0
H324 H 0.88483 -0.00798 0.97613 0.0
C325 C 0.94245 0.07599 0.89375 0.0
C326 C 0.89527 0.1099 0.95841 0.0
C327 C 0.95204 0.08859 0.86492 0.0
C328 C 0.83387 0.03487 0.06662 0.0
C329 C 0.84405 0.05345 0.03922 0.0
C330 C 0.88809 0.0251 0.97186 0.0
C331 C 0.91359 0.09707 0.9062 0.0
C332 C 0.90207 0.08215 0.93641 0.0
C333 C 0.8738 0.0363 1.02503 0.0
C334 C 0.88226 0.05268 0.99421 0.0
H335 H 0.88942 0.17063 0.84751 0.0
H336 H 0.87262 0.14858 0.89766 0.0
H337 H 0.90165 0.01709 0.927 0.0
H338 H 0.90046 0.95581 0.07703 0.0
H339 H 0.91862 -0.01174 0.03044 0.0
C340 C 0.87635 0.73184 0.47055 0.0
C341 C 0.92042 0.735 0.47423 0.0
C342 C 0.85022 0.73387 0.44059 0.0
C343 C 0.83851 0.72389 0.35764 0.0
H344 H 0.80068 0.83568 0.34517 0.0
C345 C 0.81439 0.80845 0.23806 0.0
C346 C 0.79035 0.84357 0.23185 0.0
C347 C 0.81839 0.78652 0.26666 0.0
C348 C 0.80952 0.80389 0.34801 0.0
H349 H 0.97184 0.7393 0.44994 0.0
H350 H 0.92605 0.74096 0.39753 0.0
H351 H 0.82905 0.80888 0.39771 0.0
H352 H 0.74863 0.88125 0.24945 0.0
H353 H 0.75328 0.84148 0.29866 0.0
H354 H 0.81904 0.71843 0.30812 0.0
C355 C 0.91183 0.73746 0.41774 0.0
C356 C 0.82604 0.78868 0.37828 0.0
C357 C 0.93793 0.73663 0.44762 0.0
C358 C 0.76778 0.85453 0.25382 0.0
C359 C 0.77085 0.83188 0.28217 0.0
C360 C 0.82086 0.73865 0.32735 0.0
C361 C 0.86791 0.73773 0.41407 0.0
C362 C 0.84202 0.7492 0.38317 0.0
C363 C 0.79762 0.79856 0.28956 0.0
C364 C 0.80786 0.77958 0.32194 0.0
H365 H 0.86218 0.73112 0.49077 0.0
H366 H 0.81639 0.73449 0.43816 0.0
H367 H 0.85073 0.69329 0.36103 0.0
H368 H 0.83243 0.79941 0.22166 0.0
H369 H 0.83988 0.76168 0.27131 0.0
C370 C 0.09371 0.8411 0.662 0.0
C371 C 0.05253 0.82301 0.65458 0.0
C372 C 0.11022 0.85671 0.69186 0.0
C373 C 0.09099 0.84956 0.77321 0.0
H374 H 0.16913 0.94539 0.78646 0.0
C375 C 0.13621 0.92835 0.89221 0.0
C376 C 0.17919 0.93895 0.90393 0.0
C377 C 0.12182 0.91559 0.86144 0.0
C378 C 0.14755 0.9184 0.78315 0.0
H379 H 0.99565 0.80925 0.67211 0.0
H380 H 0.02347 0.83754 0.72315 0.0
H381 H 0.14205 0.92128 0.73342 0.0
H382 H 0.24055 0.94527 0.89196 0.0
H383 H 0.21534 0.9231 0.83811 0.0
H384 H 0.09601 0.84699 0.8228 0.0
C385 C 0.04396 0.8383 0.7067 0.0
C386 C 0.13204 0.90447 0.7527 0.0
C387 C 0.02782 0.82221 0.67722 0.0
C388 C 0.2073 0.93702 0.88381 0.0
C389 C 0.1928 0.92467 0.85286 0.0
C390 C 0.10613 0.86368 0.80349 0.0
C391 C 0.08568 0.85512 0.7148 0.0
C392 C 0.10327 0.86994 0.74723 0.0
C393 C 0.14991 0.91339 0.84136 0.0
C394 C 0.13446 0.89837 0.80891 0.0
H395 H 0.11349 0.84228 0.64503 0.0
H396 H 0.14252 0.8692 0.69711 0.0
H397 H 0.06988 0.82222 0.77031 0.0
H398 H 0.11369 0.9291 0.90705 0.0
H399 H 0.08853 0.90752 0.85331 0.0
C400 C 0.85754 0.81457 0.9621 0.0
C401 C 0.83052 0.78871 0.97657 0.0
C402 C 0.86339 0.80627 0.93234 0.0
C403 C 0.85393 0.72156 0.87739 0.0
H404 H 0.85979 0.81062 0.81595 0.0
C405 C 0.86131 0.69045 0.7498 0.0
C406 C 0.8882 0.71689 0.73565 0.0
C407 C 0.85316 0.69946 0.77877 0.0
C408 C 0.85872 0.7854 0.83293 0.0
H409 H 0.78762 0.73437 0.9705 0.0
H410 H 0.79803 0.7198 0.91875 0.0
H411 H 0.84782 0.82601 0.86712 0.0
H412 H 0.92688 0.77414 0.74085 0.0
H413 H 0.91369 0.78912 0.79158 0.0
H414 H 0.86524 0.68097 0.84341 0.0
C415 C 0.8152 0.74617 0.93065 0.0
C416 C 0.85181 0.79425 0.86229 0.0
C417 C 0.80926 0.75452 0.96036 0.0
C418 C 0.90652 0.75268 0.75119 0.0
C419 C 0.89846 0.76162 0.78016 0.0
C420 C 0.86097 0.71271 0.84808 0.0
C421 C 0.84246 0.77184 0.9163 0.0
C422 C 0.84938 0.76245 0.88491 0.0
C423 C 0.87171 0.73512 0.79438 0.0
C424 C 0.86354 0.74451 0.82546 0.0
H425 H 0.87491 0.84082 0.97403 0.0
H426 H 0.88505 0.82637 0.92217 0.0
H427 H 0.85288 0.69638 0.89442 0.0
H428 H 0.84689 0.66247 0.73868 0.0
H429 H 0.832 0.67858 0.78881 0.0
C430 C 0.22979 0.96743 0.18216 0.0
C431 C 0.21031 0.00278 0.16728 0.0
C432 C 0.21704 0.94851 0.20855 0.0
C433 C 0.16289 0.97593 0.27105 0.0
H434 H 0.16094 0.85875 0.29286 0.0
C435 C 0.09407 0.91303 0.37554 0.0
C436 C 0.11533 0.88222 0.3956 0.0
C437 C 0.10476 0.92417 0.34685 0.0
C438 C 0.16166 0.89163 0.28726 0.0
H439 H 0.16016 0.04385 0.16689 0.0
H440 H 0.13687 0.01029 0.2112 0.0
H441 H 0.1807 0.88354 0.24398 0.0
H442 H 0.1641 0.83823 0.40032 0.0
H443 H 0.18289 0.85779 0.35023 0.0
H444 H 0.1442 0.98439 0.31404 0.0
C445 C 0.16316 -0.00205 0.2038 0.0
C446 C 0.17302 0.90586 0.25917 0.0
C447 C 0.17626 0.01704 0.17804 0.0
C448 C 0.14681 0.86194 0.38551 0.0
C449 C 0.15761 0.87317 0.3567 0.0
C450 C 0.15154 0.9618 0.2989 0.0
C451 C 0.18429 0.96438 0.22031 0.0
C452 C 0.17336 0.94827 0.25048 0.0
C453 C 0.13719 0.90498 0.33716 0.0
C454 C 0.15032 0.91943 0.3074 0.0
H455 H 0.2562 0.95579 0.17448 0.0
H456 H 0.23407 0.92266 0.22054 0.0
H457 H 0.16391 0.00891 0.26586 0.0
H458 H 0.06894 0.9287 0.38199 0.0
H459 H 0.08747 0.94803 0.33222 0.0
C460 C 0.15881 0.27535 0.77939 0.0
C461 C 0.11568 0.28258 0.77128 0.0
C462 C 0.17986 0.27326 0.81084 0.0
C463 C 0.1523 0.25157 0.88842 0.0
H464 H 0.27402 0.25467 0.91698 0.0
C465 C 0.23366 0.20343 1.01416 0.0
C466 C 0.25245 0.16554 1.01404 0.0
C467 C 0.22315 0.22779 0.98667 0.0
C468 C 0.23999 0.25412 0.90929 0.0
H469 H 0.06144 0.29722 0.78885 0.0
H470 H 0.09881 0.29769 0.84351 0.0
H471 H 0.24287 0.28391 0.86515 0.0
H472 H 0.2778 0.125 0.98564 0.0
H473 H 0.26044 0.16846 0.9377 0.0
H474 H 0.1498 0.22244 0.93294 0.0
C475 C 0.11619 0.29108 0.82606 0.0
C476 C 0.22199 0.27048 0.8795 0.0
C477 C 0.09482 0.29166 0.79469 0.0
C478 C 0.26326 0.15398 0.98642 0.0
C479 C 0.25356 0.17887 0.95908 0.0
C480 C 0.17027 0.23635 0.91839 0.0
C481 C 0.15835 0.27935 0.83479 0.0
C482 C 0.17782 0.26836 0.86822 0.0
C483 C 0.23221 0.21523 0.9588 0.0
C484 C 0.21417 0.23657 0.92875 0.0
H485 H 0.17529 0.2675 0.76166 0.0
H486 H 0.21204 0.26377 0.81618 0.0
H487 H 0.11837 0.24809 0.88078 0.0
H488 H 0.22468 0.21309 0.035 0.0
H489 H 0.20645 0.25564 0.98684 0.0
C490 C 0.85454 0.0529 0.36383 0.0
C491 C 0.87543 0.06826 0.34034 0.0
C492 C 0.86909 0.06423 0.39507 0.0
C493 C 0.93657 0.14533 0.44275 0.0
H494 H 0.93366 0.06794 0.51264 0.0
C495 C 0.02459 0.18432 0.56735 0.0
C496 C 0.00456 0.17476 0.59243 0.0
C497 C 0.00784 0.16928 0.5376 0.0
C498 C 0.93428 0.09007 0.49341 0.0
H499 H 0.92929 0.10629 0.33193 0.0
H500 H 0.95469 0.12566 0.38598 0.0
H501 H 0.90665 0.04567 0.45903 0.0
H502 H 0.95156 0.14032 0.6057 0.0
H503 H 0.92206 0.11397 0.55341 0.0
H504 H 0.96432 0.18963 0.47686 0.0
C505 C 0.92634 0.10574 0.38027 0.0
C506 C 0.91875 0.07731 0.4626 0.0
C507 C 0.91175 0.09455 0.34913 0.0
C508 C 0.96782 0.14845 0.587 0.0
C509 C 0.95097 0.13324 0.55701 0.0
C510 C 0.95212 0.15799 0.4734 0.0
C511 C 0.90503 0.09116 0.40371 0.0
C512 C 0.92011 0.10466 0.43677 0.0
C513 C 0.9704 0.14412 0.53176 0.0
C514 C 0.95171 0.13048 0.49921 0.0
H515 H 0.82628 0.03286 0.35796 0.0
H516 H 0.85155 0.05263 0.41229 0.0
H517 H 0.93722 0.16771 0.42368 0.0
H518 H 0.05324 0.20399 0.57048 0.0
H519 H 0.02434 0.17755 0.51905 0.0
loop_
_geom_bond_atom_site_label_1
_geom_bond_atom_site_label_2
_geom_bond_distance
_geom_bond_site_symmetry_2
_ccdc_geom_bond_type
Nd0 C2 2.836 1_554 S
Nd0 O20 2.500 . S
Nd0 O21 2.492 . S
Nd0 O22 2.487 . S
Nd0 O23 2.682 1_565 S
Nd0 O24 2.410 1_565 S
Nd0 O29 2.414 1_565 S
Nd0 O31 2.424 . S
Nd1 C11 2.836 . S
Nd1 O23 2.414 . S
Nd1 O25 2.424 . S
Nd1 O26 2.500 . S
Nd1 O27 2.492 . S
Nd1 O28 2.487 . S
Nd1 O29 2.682 . S
Nd1 O30 2.410 . S
C2 Nd0 2.836 1_556 S
C2 C3 1.498 . S
C2 O20 1.258 1_556 S
C2 O21 1.239 1_556 S
C3 C2 1.498 . S
C3 C4 1.366 . S
C3 C8 1.407 . S
C4 C3 1.366 . S
C4 C5 1.392 . S
C4 H32 0.930 . S
C5 C4 1.392 . S
C5 C6 1.398 . S
C5 H33 0.929 . S
C6 C5 1.398 . S
C6 C7 1.352 . S
C7 C6 1.352 . S
C7 C8 1.384 . S
C7 H34 0.930 . S
C8 C3 1.407 . S
C8 C7 1.384 . S
C8 H35 0.929 . S
C9 O22 1.241 1_545 S
C9 O23 1.273 . S
C10 O24 1.251 . S
C10 O25 1.268 . S
C11 Nd1 2.836 . S
C11 C12 1.498 . S
C11 O26 1.258 . S
C11 O27 1.239 . S
C12 C11 1.498 . S
C12 C13 1.366 . S
C12 C17 1.407 . S
C13 C12 1.366 . S
C13 C14 1.392 . S
C13 H36 0.930 . S
C14 C13 1.392 . S
C14 C15 1.398 . S
C14 H37 0.929 . S
C15 C14 1.398 . S
C15 C16 1.352 . S
C16 C15 1.352 . S
C16 C17 1.384 . S
C16 H38 0.930 . S
C17 C12 1.407 . S
C17 C16 1.384 . S
C17 H39 0.929 . S
C18 O28 1.241 . S
C18 O29 1.273 . S
C19 O30 1.251 1_565 S
C19 O31 1.268 . S
O20 Nd0 2.500 . S
O20 C2 1.258 1_554 S
O21 Nd0 2.492 . S
O21 C2 1.239 1_554 S
O22 Nd0 2.487 . S
O22 C9 1.241 1_565 S
O23 Nd0 2.682 1_545 S
O23 Nd1 2.414 . S
O23 C9 1.273 . S
O24 Nd0 2.410 1_545 S
O24 C10 1.251 . S
O25 Nd1 2.424 . S
O25 C10 1.268 . S
O26 Nd1 2.500 . S
O26 C11 1.258 . S
O27 Nd1 2.492 . S
O27 C11 1.239 . S
O28 Nd1 2.487 . S
O28 C18 1.241 . S
O29 Nd0 2.414 1_545 S
O29 Nd1 2.682 . S
O29 C18 1.273 . S
O30 Nd1 2.410 . S
O30 C19 1.251 1_545 S
O31 Nd0 2.424 . S
O31 C19 1.268 . S
H32 C4 0.930 . S
H33 C5 0.929 . S
H34 C7 0.930 . S
H35 C8 0.929 . S
H36 C13 0.930 . S
H37 C14 0.929 . S
H38 C16 0.930 . S
H39 C17 0.929 . S
Nd40 C42 2.836 . S
Nd40 O60 2.500 . S
Nd40 O61 2.492 . S
Nd40 O62 2.487 . S
Nd40 O63 2.682 . S
Nd40 O64 2.410 . S
Nd40 O69 2.414 . S
Nd40 O71 2.424 . S
Nd41 C51 2.836 . S
Nd41 O63 2.414 1_655 S
Nd41 O65 2.424 . S
Nd41 O66 2.500 . S
Nd41 O67 2.492 . S
Nd41 O68 2.487 1_655 S
Nd41 O69 2.682 1_655 S
Nd41 O70 2.410 1_655 S
C42 Nd40 2.836 . S
C42 C43 1.498 . S
C42 O60 1.258 . S
C42 O61 1.239 . S
C43 C42 1.498 . S
C43 C44 1.366 . S
C43 C48 1.407 . S
C44 C43 1.366 . S
C44 C45 1.392 . S
C44 H72 0.930 . S
C45 C44 1.392 . S
C45 C46 1.398 . S
C45 H73 0.929 . S
C46 C45 1.398 . S
C46 C47 1.352 . S
C47 C46 1.352 . S
C47 C48 1.384 . S
C47 H74 0.930 . S
C48 C43 1.407 . S
C48 C47 1.384 . S
C48 H75 0.929 . S
C49 O62 1.241 . S
C49 O63 1.273 . S
C50 O64 1.251 . S
C50 O65 1.268 1_455 S
C51 Nd41 2.836 . S
C51 C52 1.498 . S
C51 O66 1.258 . S
C51 O67 1.239 . S
C52 C51 1.498 . S
C52 C53 1.366 . S
C52 C57 1.407 . S
C53 C52 1.366 . S
C53 C54 1.392 . S
C53 H76 0.930 . S
C54 C53 1.392 . S
C54 C55 1.398 . S
C54 H77 0.929 . S
C55 C54 1.398 . S
C55 C56 1.352 . S
C56 C55 1.352 . S
C56 C57 1.384 . S
C56 H78 0.930 . S
C57 C52 1.407 . S
C57 C56 1.384 . S
C57 H79 0.929 . S
C58 O68 1.241 . S
C58 O69 1.273 . S
C59 O70 1.251 . S
C59 O71 1.268 . S
O60 Nd40 2.500 . S
O60 C42 1.258 . S
O61 Nd40 2.492 . S
O61 C42 1.239 . S
O62 Nd40 2.487 . S
O62 C49 1.241 . S
O63 Nd40 2.682 . S
O63 Nd41 2.414 1_455 S
O63 C49 1.273 . S
O64 Nd40 2.410 . S
O64 C50 1.251 . S
O65 Nd41 2.424 . S
O65 C50 1.268 1_655 S
O66 Nd41 2.500 . S
O66 C51 1.258 . S
O67 Nd41 2.492 . S
O67 C51 1.239 . S
O68 Nd41 2.487 1_455 S
O68 C58 1.241 . S
O69 Nd40 2.414 . S
O69 Nd41 2.682 1_455 S
O69 C58 1.273 . S
O70 Nd41 2.410 1_455 S
O70 C59 1.251 . S
O71 Nd40 2.424 . S
O71 C59 1.268 . S
H72 C44 0.930 . S
H73 C45 0.929 . S
H74 C47 0.930 . S
H75 C48 0.929 . S
H76 C53 0.930 . S
H77 C54 0.929 . S
H78 C56 0.930 . S
H79 C57 0.929 . S
Nd80 C82 2.836 . S
Nd80 O100 2.500 . S
Nd80 O101 2.492 . S
Nd80 O102 2.487 . S
Nd80 O103 2.682 1_565 S
Nd80 O104 2.410 1_565 S
Nd80 O109 2.414 1_565 S
Nd80 O111 2.424 . S
Nd81 C91 2.836 . S
Nd81 O103 2.414 . S
Nd81 O105 2.424 . S
Nd81 O106 2.500 . S
Nd81 O107 2.492 . S
Nd81 O108 2.487 . S
Nd81 O109 2.682 . S
Nd81 O110 2.410 . S
C82 Nd80 2.836 . S
C82 C83 1.498 . S
C82 O100 1.258 . S
C82 O101 1.239 . S
C83 C82 1.498 . S
C83 C84 1.366 1_554 S
C83 C88 1.407 1_554 S
C84 C83 1.366 1_556 S
C84 C85 1.392 . S
C84 H112 0.930 1_556 S
C85 C84 1.392 . S
C85 C86 1.398 . S
C85 H113 0.929 . S
C86 C85 1.398 . S
C86 C87 1.352 . S
C87 C86 1.352 . S
C87 C88 1.384 . S
C87 H114 0.930 . S
C88 C83 1.407 1_556 S
C88 C87 1.384 . S
C88 H115 0.929 1_556 S
C89 O102 1.240 . S
C89 O103 1.273 1_565 S
C90 O104 1.251 . S
C90 O105 1.268 . S
C91 Nd81 2.836 . S
C91 C92 1.498 . S
C91 O106 1.258 . S
C91 O107 1.239 . S
C92 C91 1.498 . S
C92 C93 1.366 . S
C92 C97 1.407 . S
C93 C92 1.366 . S
C93 C94 1.392 . S
C93 H116 0.930 . S
C94 C93 1.392 . S
C94 C95 1.398 . S
C94 H117 0.929 . S
C95 C94 1.398 . S
C95 C96 1.352 . S
C96 C95 1.352 . S
C96 C97 1.384 . S
C96 H118 0.930 . S
C97 C92 1.407 . S
C97 C96 1.384 . S
C97 H119 0.929 . S
C98 O108 1.241 . S
C98 O109 1.273 . S
C99 O110 1.251 1_565 S
C99 O111 1.268 . S
O100 Nd80 2.500 . S
O100 C82 1.258 . S
O101 Nd80 2.492 . S
O101 C82 1.239 . S
O102 Nd80 2.487 . S
O102 C89 1.240 . S
O103 Nd80 2.682 1_545 S
O103 Nd81 2.414 . S
O103 C89 1.273 1_545 S
O104 Nd80 2.410 1_545 S
O104 C90 1.251 . S
O105 Nd81 2.424 . S
O105 C90 1.268 . S
O106 Nd81 2.500 . S
O106 C91 1.258 . S
O107 Nd81 2.492 . S
O107 C91 1.239 . S
O108 Nd81 2.487 . S
O108 C98 1.241 . S
O109 Nd80 2.414 1_545 S
O109 Nd81 2.682 . S
O109 C98 1.273 . S
O110 Nd81 2.410 . S
O110 C99 1.251 1_545 S
O111 Nd80 2.424 . S
O111 C99 1.268 . S
H112 C84 0.930 1_554 S
H113 C85 0.929 . S
H114 C87 0.930 . S
H115 C88 0.929 1_554 S
H116 C93 0.930 . S
H117 C94 0.929 . S
H118 C96 0.930 . S
H119 C97 0.929 . S
Nd120 C122 2.836 . S
Nd120 O140 2.500 . S
Nd120 O141 2.492 . S
Nd120 O142 2.487 . S
Nd120 O143 2.682 1_455 S
Nd120 O144 2.410 1_455 S
Nd120 O149 2.414 . S
Nd120 O151 2.424 . S
Nd121 C131 2.836 . S
Nd121 O143 2.414 . S
Nd121 O145 2.424 . S
Nd121 O146 2.500 . S
Nd121 O147 2.492 . S
Nd121 O148 2.487 . S
Nd121 O149 2.682 1_655 S
Nd121 O150 2.410 1_655 S
C122 Nd120 2.836 . S
C122 C123 1.498 . S
C122 O140 1.258 . S
C122 O141 1.239 . S
C123 C122 1.498 . S
C123 C124 1.366 . S
C123 C128 1.407 . S
C124 C123 1.366 . S
C124 C125 1.392 . S
C124 H152 0.930 . S
C125 C124 1.392 . S
C125 C126 1.398 . S
C125 H153 0.929 . S
C126 C125 1.398 . S
C126 C127 1.352 . S
C127 C126 1.352 . S
C127 C128 1.384 . S
C127 H154 0.930 . S
C128 C123 1.407 . S
C128 C127 1.384 . S
C128 H155 0.929 . S
C129 O142 1.241 . S
C129 O143 1.273 1_455 S
C130 O144 1.251 . S
C130 O145 1.268 . S
C131 Nd121 2.836 . S
C131 C132 1.498 . S
C131 O146 1.258 . S
C131 O147 1.239 . S
C132 C131 1.498 . S
C132 C133 1.366 . S
C132 C137 1.407 . S
C133 C132 1.366 . S
C133 C134 1.392 . S
C133 H156 0.930 . S
C134 C133 1.392 . S
C134 C135 1.398 . S
C134 H157 0.929 . S
C135 C134 1.398 . S
C135 C136 1.352 . S
C136 C135 1.352 . S
C136 C137 1.384 . S
C136 H158 0.930 . S
C137 C132 1.407 . S
C137 C136 1.384 . S
C137 H159 0.929 . S
C138 O148 1.241 . S
C138 O149 1.273 1_655 S
C139 O150 1.251 . S
C139 O151 1.268 . S
O140 Nd120 2.500 . S
O140 C122 1.258 . S
O141 Nd120 2.492 . S
O141 C122 1.239 . S
O142 Nd120 2.487 . S
O142 C129 1.241 . S
O143 Nd120 2.682 1_655 S
O143 Nd121 2.414 . S
O143 C129 1.273 1_655 S
O144 Nd120 2.410 1_655 S
O144 C130 1.251 . S
O145 Nd121 2.424 . S
O145 C130 1.268 . S
O146 Nd121 2.500 . S
O146 C131 1.258 . S
O147 Nd121 2.492 . S
O147 C131 1.239 . S
O148 Nd121 2.487 . S
O148 C138 1.241 . S
O149 Nd120 2.414 . S
O149 Nd121 2.682 1_455 S
O149 C138 1.273 1_455 S
O150 Nd121 2.410 1_455 S
O150 C139 1.251 . S
O151 Nd120 2.424 . S
O151 C139 1.268 . S
H152 C124 0.930 . S
H153 C125 0.929 . S
H154 C127 0.930 . S
H155 C128 0.929 . S
H156 C133 0.930 . S
H157 C134 0.929 . S
H158 C136 0.930 . S
H159 C137 0.929 . S
C160 C161 1.349 1_565 S
C160 C162 1.327 . S
C160 H185 0.950 . S
C161 C160 1.349 1_545 S
C161 C177 1.349 . S
C162 C160 1.327 . S
C162 C181 1.429 1_565 S
C162 H186 0.950 . S
C163 C180 1.574 . S
C163 C182 1.368 1_455 S
C163 H187 0.949 . S
H164 C168 0.949 . S
C165 C166 1.349 . S
C165 C167 1.327 . S
C165 H188 0.950 . S
C166 C165 1.349 . S
C166 C178 1.349 1_545 S
C167 C165 1.327 . S
C167 C183 1.429 . S
C167 H189 0.950 . S
C168 H164 0.949 . S
C168 C176 1.574 1_455 S
C168 C184 1.368 1_565 S
H169 C177 0.950 . S
H170 C175 0.950 . S
H171 C176 0.949 . S
H172 C178 0.950 . S
H173 C179 0.950 . S
H174 C180 0.949 . S
C175 H170 0.950 . S
C175 C177 1.327 . S
C175 C181 1.429 . S
C176 C168 1.574 1_655 S
C176 H171 0.949 . S
C176 C182 1.368 1_565 S
C177 C161 1.349 . S
C177 H169 0.950 . S
C177 C175 1.327 . S
C178 C166 1.349 1_565 S
C178 H172 0.950 . S
C178 C179 1.327 . S
C179 H173 0.950 . S
C179 C178 1.327 . S
C179 C183 1.429 1_565 S
C180 C163 1.574 . S
C180 H174 0.949 . S
C180 C184 1.368 . S
C181 C162 1.429 1_545 S
C181 C175 1.429 . S
C181 C182 1.523 . S
C182 C163 1.368 1_655 S
C182 C176 1.368 1_545 S
C182 C181 1.523 . S
C183 C167 1.429 . S
C183 C179 1.429 1_545 S
C183 C184 1.523 . S
C184 C168 1.368 1_545 S
C184 C180 1.368 . S
C184 C183 1.523 . S
H185 C160 0.950 . S
H186 C162 0.950 . S
H187 C163 0.949 . S
H188 C165 0.950 . S
H189 C167 0.950 . S
C190 C191 1.349 1_455 S
C190 C192 1.327 . S
C190 H215 0.950 . S
C191 C190 1.349 1_655 S
C191 C207 1.349 . S
C192 C190 1.327 . S
C192 C211 1.429 . S
C192 H216 0.950 . S
C193 C210 1.574 . S
C193 C212 1.368 1_545 S
C193 H217 0.949 1_455 S
H194 C198 0.949 . S
C195 C196 1.349 . S
C195 C197 1.327 . S
C195 H218 0.950 . S
C196 C195 1.349 . S
C196 C208 1.349 . S
C197 C195 1.327 . S
C197 C213 1.429 . S
C197 H219 0.950 . S
C198 H194 0.949 . S
C198 C206 1.574 1_545 S
C198 C214 1.368 . S
H199 C207 0.950 . S
H200 C205 0.950 . S
H201 C206 0.949 . S
H202 C208 0.950 . S
H203 C209 0.950 . S
H204 C210 0.949 . S
C205 H200 0.950 . S
C205 C207 1.327 . S
C205 C211 1.429 1_655 S
C206 C198 1.574 1_565 S
C206 H201 0.949 . S
C206 C212 1.368 . S
C207 C191 1.349 . S
C207 H199 0.950 . S
C207 C205 1.327 . S
C208 C196 1.349 . S
C208 H202 0.950 . S
C208 C209 1.327 . S
C209 H203 0.950 . S
C209 C208 1.327 . S
C209 C213 1.429 . S
C210 C193 1.574 . S
C210 H204 0.949 . S
C210 C214 1.368 . S
C211 C192 1.429 . S
C211 C205 1.429 1_455 S
C211 C212 1.523 . S
C212 C193 1.368 1_565 S
C212 C206 1.368 . S
C212 C211 1.523 . S
C213 C197 1.429 . S
C213 C209 1.429 . S
C213 C214 1.523 . S
C214 C198 1.368 . S
C214 C210 1.368 . S
C214 C213 1.523 . S
H215 C190 0.950 . S
H216 C192 0.950 . S
H217 C193 0.949 1_655 S
H218 C195 0.950 . S
H219 C197 0.950 . S
C220 C221 1.349 . S
C220 C222 1.327 . S
C220 H245 0.950 . S
C221 C220 1.349 . S
C221 C237 1.349 1_545 S
C222 C220 1.327 . S
C222 C241 1.429 . S
C222 H246 0.950 . S
C223 C240 1.574 . S
C223 C242 1.368 1_565 S
C223 H247 0.949 . S
H224 C228 0.949 . S
C225 C226 1.349 1_565 S
C225 C227 1.327 . S
C225 H248 0.950 . S
C226 C225 1.349 1_545 S
C226 C238 1.349 . S
C227 C225 1.327 . S
C227 C243 1.429 1_565 S
C227 H249 0.950 . S
C228 H224 0.949 . S
C228 C236 1.574 . S
C228 C244 1.368 . S
H229 C237 0.950 . S
H230 C235 0.950 . S
H231 C236 0.949 . S
H232 C238 0.950 . S
H233 C239 0.950 . S
H234 C240 0.949 . S
C235 H230 0.950 . S
C235 C237 1.327 . S
C235 C241 1.429 1_565 S
C236 C228 1.574 . S
C236 H231 0.949 . S
C236 C242 1.368 . S
C237 C221 1.349 1_565 S
C237 H229 0.950 . S
C237 C235 1.327 . S
C238 C226 1.349 . S
C238 H232 0.950 . S
C238 C239 1.327 . S
C239 H233 0.950 . S
C239 C238 1.327 . S
C239 C243 1.429 . S
C240 C223 1.574 . S
C240 H234 0.949 . S
C240 C244 1.368 1_565 S
C241 C222 1.429 . S
C241 C235 1.429 1_545 S
C241 C242 1.523 . S
C242 C223 1.368 1_545 S
C242 C236 1.368 . S
C242 C241 1.523 . S
C243 C227 1.429 1_545 S
C243 C239 1.429 . S
C243 C244 1.523 . S
C244 C228 1.368 . S
C244 C240 1.368 1_545 S
C244 C243 1.523 . S
H245 C220 0.950 . S
H246 C222 0.950 . S
H247 C223 0.949 . S
H248 C225 0.950 . S
H249 C227 0.950 . S
C250 C251 1.349 . S
C250 C252 1.327 . S
C250 H275 0.950 . S
C251 C250 1.349 . S
C251 C267 1.349 . S
C252 C250 1.327 . S
C252 C271 1.429 . S
C252 H276 0.950 1_455 S
C253 C270 1.574 . S
C253 C272 1.368 . S
C253 H277 0.949 . S
H254 C258 0.949 . S
C255 C256 1.347 1_455 S
C255 C257 1.327 . S
C255 H278 0.950 . S
C256 C255 1.347 1_655 S
C256 C268 1.350 . S
C257 C255 1.327 . S
C257 C273 1.429 . S
C257 H279 0.950 . S
C258 H254 0.949 . S
C258 C266 1.574 1_655 S
C258 C274 1.368 1_655 S
H259 C267 0.950 . S
H260 C265 0.950 . S
H261 C266 0.949 1_655 S
H262 C268 0.950 . S
H263 C269 0.950 . S
H264 C270 0.949 . S
C265 H260 0.950 . S
C265 C267 1.327 . S
C265 C271 1.429 . S
C266 C258 1.574 1_455 S
C266 H261 0.949 1_455 S
C266 C272 1.368 . S
C267 C251 1.349 . S
C267 H259 0.950 . S
C267 C265 1.327 . S
C268 C256 1.350 . S
C268 H262 0.950 . S
C268 C269 1.327 . S
C269 H263 0.950 . S
C269 C268 1.327 . S
C269 C273 1.429 1_655 S
C270 C253 1.574 . S
C270 H264 0.949 . S
C270 C274 1.368 . S
C271 C252 1.429 . S
C271 C265 1.429 . S
C271 C272 1.523 . S
C272 C253 1.368 . S
C272 C266 1.368 . S
C272 C271 1.523 . S
C273 C257 1.429 . S
C273 C269 1.429 1_455 S
C273 C274 1.523 . S
C274 C258 1.368 1_455 S
C274 C270 1.368 . S
C274 C273 1.523 . S
H275 C250 0.950 . S
H276 C252 0.950 1_655 S
H277 C253 0.949 . S
H278 C255 0.950 . S
H279 C257 0.950 . S
C280 C281 1.349 . S
C280 C282 1.327 . S
C280 H305 0.950 . S
C281 C280 1.349 . S
C281 C297 1.349 . S
C282 C280 1.327 . S
C282 C301 1.429 . S
C282 H306 0.950 . S
C283 C300 1.574 . S
C283 C302 1.368 . S
C283 H307 0.949 . S
H284 C288 0.949 . S
C285 C286 1.349 . S
C285 C287 1.327 . S
C285 H308 0.950 . S
C286 C285 1.349 . S
C286 C298 1.349 . S
C287 C285 1.327 . S
C287 C303 1.429 . S
C287 H309 0.950 . S
C288 H284 0.949 . S
C288 C296 1.574 . S
C288 C304 1.368 . S
H289 C297 0.950 . S
H290 C295 0.950 . S
H291 C296 0.949 . S
H292 C298 0.950 . S
H293 C299 0.950 . S
H294 C300 0.949 . S
C295 H290 0.950 . S
C295 C297 1.327 . S
C295 C301 1.429 . S
C296 C288 1.574 . S
C296 H291 0.949 . S
C296 C302 1.368 . S
C297 C281 1.349 . S
C297 H289 0.950 . S
C297 C295 1.327 . S
C298 C286 1.349 . S
C298 H292 0.950 . S
C298 C299 1.327 . S
C299 H293 0.950 . S
C299 C298 1.327 . S
C299 C303 1.429 . S
C300 C283 1.574 . S
C300 H294 0.949 . S
C300 C304 1.368 . S
C301 C282 1.429 . S
C301 C295 1.429 . S
C301 C302 1.523 . S
C302 C283 1.368 . S
C302 C296 1.368 . S
C302 C301 1.523 . S
C303 C287 1.429 . S
C303 C299 1.429 . S
C303 C304 1.523 . S
C304 C288 1.368 . S
C304 C300 1.368 . S
C304 C303 1.523 . S
H305 C280 0.950 . S
H306 C282 0.950 . S
H307 C283 0.949 . S
H308 C285 0.950 . S
H309 C287 0.950 . S
C310 C311 1.349 . S
C310 C312 1.327 . S
C310 H335 0.950 . S
C311 C310 1.349 . S
C311 C327 1.349 . S
C312 C310 1.327 . S
C312 C331 1.429 . S
C312 H336 0.950 . S
C313 C330 1.574 . S
C313 C332 1.368 . S
C313 H337 0.949 . S
H314 C318 0.949 . S
C315 C316 1.349 . S
C315 C317 1.327 1_554 S
C315 H338 0.950 . S
C316 C315 1.349 . S
C316 C328 1.349 . S
C317 C315 1.327 1_556 S
C317 C333 1.429 . S
C317 H339 0.950 . S
C318 H314 0.949 . S
C318 C326 1.574 . S
C318 C334 1.368 . S
H319 C327 0.950 . S
H320 C325 0.950 . S
H321 C326 0.949 . S
H322 C328 0.950 . S
H323 C329 0.950 . S
H324 C330 0.949 . S
C325 H320 0.950 . S
C325 C327 1.327 . S
C325 C331 1.429 . S
C326 C318 1.574 . S
C326 H321 0.949 . S
C326 C332 1.368 . S
C327 C311 1.349 . S
C327 H319 0.950 . S
C327 C325 1.327 . S
C328 C316 1.349 . S
C328 H322 0.950 . S
C328 C329 1.327 1_554 S
C329 H323 0.950 . S
C329 C328 1.327 1_556 S
C329 C333 1.429 . S
C330 C313 1.574 . S
C330 H324 0.949 . S
C330 C334 1.368 . S
C331 C312 1.429 . S
C331 C325 1.429 . S
C331 C332 1.523 . S
C332 C313 1.368 . S
C332 C326 1.368 . S
C332 C331 1.523 . S
C333 C317 1.429 . S
C333 C329 1.429 . S
C333 C334 1.523 . S
C334 C318 1.368 . S
C334 C330 1.368 . S
C334 C333 1.523 . S
H335 C310 0.950 . S
H336 C312 0.950 . S
H337 C313 0.949 . S
H338 C315 0.950 . S
H339 C317 0.950 . S
C340 C341 1.349 . S
C340 C342 1.327 . S
C340 H365 0.950 . S
C341 C340 1.349 . S
C341 C357 1.349 . S
C342 C340 1.327 . S
C342 C361 1.429 . S
C342 H366 0.950 . S
C343 C360 1.574 . S
C343 C362 1.368 . S
C343 H367 0.949 . S
H344 C348 0.949 . S
C345 C346 1.349 . S
C345 C347 1.327 . S
C345 H368 0.950 . S
C346 C345 1.349 . S
C346 C358 1.349 . S
C347 C345 1.327 . S
C347 C363 1.429 . S
C347 H369 0.950 . S
C348 H344 0.949 . S
C348 C356 1.574 . S
C348 C364 1.368 . S
H349 C357 0.950 . S
H350 C355 0.950 . S
H351 C356 0.949 . S
H352 C358 0.950 . S
H353 C359 0.950 . S
H354 C360 0.949 . S
C355 H350 0.950 . S
C355 C357 1.327 . S
C355 C361 1.429 . S
C356 C348 1.574 . S
C356 H351 0.949 . S
C356 C362 1.368 . S
C357 C341 1.349 . S
C357 H349 0.950 . S
C357 C355 1.327 . S
C358 C346 1.349 . S
C358 H352 0.950 . S
C358 C359 1.327 . S
C359 H353 0.950 . S
C359 C358 1.327 . S
C359 C363 1.429 . S
C360 C343 1.574 . S
C360 H354 0.949 . S
C360 C364 1.368 . S
C361 C342 1.429 . S
C361 C355 1.429 . S
C361 C362 1.523 . S
C362 C343 1.368 . S
C362 C356 1.368 . S
C362 C361 1.523 . S
C363 C347 1.429 . S
C363 C359 1.429 . S
C363 C364 1.523 . S
C364 C348 1.368 . S
C364 C360 1.368 . S
C364 C363 1.523 . S
H365 C340 0.950 . S
H366 C342 0.950 . S
H367 C343 0.949 . S
H368 C345 0.950 . S
H369 C347 0.950 . S
C370 C371 1.349 . S
C370 C372 1.327 . S
C370 H395 0.950 . S
C371 C370 1.349 . S
C371 C387 1.349 . S
C372 C370 1.327 . S
C372 C391 1.429 . S
C372 H396 0.950 . S
C373 C390 1.574 . S
C373 C392 1.368 . S
C373 H397 0.949 . S
H374 C378 0.949 . S
C375 C376 1.349 . S
C375 C377 1.327 . S
C375 H398 0.950 . S
C376 C375 1.349 . S
C376 C388 1.349 . S
C377 C375 1.327 . S
C377 C393 1.429 . S
C377 H399 0.950 . S
C378 H374 0.949 . S
C378 C386 1.574 . S
C378 C394 1.368 . S
H379 C387 0.950 . S
H380 C385 0.950 . S
H381 C386 0.949 . S
H382 C388 0.950 . S
H383 C389 0.950 . S
H384 C390 0.949 . S
C385 H380 0.950 . S
C385 C387 1.327 . S
C385 C391 1.429 . S
C386 C378 1.574 . S
C386 H381 0.949 . S
C386 C392 1.368 . S
C387 C371 1.349 . S
C387 H379 0.950 . S
C387 C385 1.327 . S
C388 C376 1.349 . S
C388 H382 0.950 . S
C388 C389 1.327 . S
C389 H383 0.950 . S
C389 C388 1.327 . S
C389 C393 1.429 . S
C390 C373 1.574 . S
C390 H384 0.949 . S
C390 C394 1.368 . S
C391 C372 1.429 . S
C391 C385 1.429 . S
C391 C392 1.523 . S
C392 C373 1.368 . S
C392 C386 1.368 . S
C392 C391 1.523 . S
C393 C377 1.429 . S
C393 C389 1.429 . S
C393 C394 1.523 . S
C394 C378 1.368 . S
C394 C390 1.368 . S
C394 C393 1.523 . S
H395 C370 0.950 . S
H396 C372 0.950 . S
H397 C373 0.949 . S
H398 C375 0.950 . S
H399 C377 0.950 . S
C400 C401 1.349 . S
C400 C402 1.327 . S
C400 H425 0.950 . S
C401 C400 1.349 . S
C401 C417 1.349 . S
C402 C400 1.327 . S
C402 C421 1.429 . S
C402 H426 0.950 . S
C403 C420 1.574 . S
C403 C422 1.368 . S
C403 H427 0.949 . S
H404 C408 0.949 . S
C405 C406 1.349 . S
C405 C407 1.327 . S
C405 H428 0.950 . S
C406 C405 1.349 . S
C406 C418 1.349 . S
C407 C405 1.327 . S
C407 C423 1.429 . S
C407 H429 0.950 . S
C408 H404 0.949 . S
C408 C416 1.574 . S
C408 C424 1.368 . S
H409 C417 0.950 . S
H410 C415 0.950 . S
H411 C416 0.949 . S
H412 C418 0.950 . S
H413 C419 0.950 . S
H414 C420 0.949 . S
C415 H410 0.950 . S
C415 C417 1.327 . S
C415 C421 1.429 . S
C416 C408 1.574 . S
C416 H411 0.949 . S
C416 C422 1.368 . S
C417 C401 1.349 . S
C417 H409 0.950 . S
C417 C415 1.327 . S
C418 C406 1.349 . S
C418 H412 0.950 . S
C418 C419 1.327 . S
C419 H413 0.950 . S
C419 C418 1.327 . S
C419 C423 1.429 . S
C420 C403 1.574 . S
C420 H414 0.949 . S
C420 C424 1.368 . S
C421 C402 1.429 . S
C421 C415 1.429 . S
C421 C422 1.523 . S
C422 C403 1.368 . S
C422 C416 1.368 . S
C422 C421 1.523 . S
C423 C407 1.429 . S
C423 C419 1.429 . S
C423 C424 1.523 . S
C424 C408 1.368 . S
C424 C420 1.368 . S
C424 C423 1.523 . S
H425 C400 0.950 . S
H426 C402 0.950 . S
H427 C403 0.949 . S
H428 C405 0.950 . S
H429 C407 0.950 . S
C430 C431 1.349 . S
C430 C432 1.327 . S
C430 H455 0.950 . S
C431 C430 1.349 . S
C431 C447 1.349 . S
C432 C430 1.327 . S
C432 C451 1.429 . S
C432 H456 0.950 . S
C433 C450 1.574 . S
C433 C452 1.368 . S
C433 H457 0.949 . S
H434 C438 0.949 . S
C435 C436 1.349 . S
C435 C437 1.327 . S
C435 H458 0.950 . S
C436 C435 1.349 . S
C436 C448 1.349 . S
C437 C435 1.327 . S
C437 C453 1.429 . S
C437 H459 0.950 . S
C438 H434 0.949 . S
C438 C446 1.574 . S
C438 C454 1.368 . S
H439 C447 0.950 1_545 S
H440 C445 0.950 . S
H441 C446 0.949 . S
H442 C448 0.950 . S
H443 C449 0.950 . S
H444 C450 0.949 . S
C445 H440 0.950 . S
C445 C447 1.327 . S
C445 C451 1.429 . S
C446 C438 1.574 . S
C446 H441 0.949 . S
C446 C452 1.368 . S
C447 C431 1.349 . S
C447 H439 0.950 1_565 S
C447 C445 1.327 . S
C448 C436 1.349 . S
C448 H442 0.950 . S
C448 C449 1.327 . S
C449 H443 0.950 . S
C449 C448 1.327 . S
C449 C453 1.429 . S
C450 C433 1.574 . S
C450 H444 0.949 . S
C450 C454 1.368 . S
C451 C432 1.429 . S
C451 C445 1.429 . S
C451 C452 1.523 . S
C452 C433 1.368 . S
C452 C446 1.368 . S
C452 C451 1.523 . S
C453 C437 1.429 . S
C453 C449 1.429 . S
C453 C454 1.523 . S
C454 C438 1.368 . S
C454 C450 1.368 . S
C454 C453 1.523 . S
H455 C430 0.950 . S
H456 C432 0.950 . S
H457 C433 0.949 . S
H458 C435 0.950 . S
H459 C437 0.950 . S
C460 C461 1.349 . S
C460 C462 1.327 . S
C460 H485 0.950 . S
C461 C460 1.349 . S
C461 C477 1.349 . S
C462 C460 1.327 . S
C462 C481 1.429 . S
C462 H486 0.950 . S
C463 C480 1.574 . S
C463 C482 1.368 . S
C463 H487 0.949 . S
H464 C468 0.949 . S
C465 C466 1.349 . S
C465 C467 1.327 . S
C465 H488 0.950 . S
C466 C465 1.349 . S
C466 C478 1.349 . S
C467 C465 1.327 . S
C467 C483 1.429 . S
C467 H489 0.950 . S
C468 H464 0.949 . S
C468 C476 1.574 . S
C468 C484 1.368 . S
H469 C477 0.950 . S
H470 C475 0.950 . S
H471 C476 0.949 . S
H472 C478 0.950 . S
H473 C479 0.950 . S
H474 C480 0.949 . S
C475 H470 0.950 . S
C475 C477 1.327 . S
C475 C481 1.429 . S
C476 C468 1.574 . S
C476 H471 0.949 . S
C476 C482 1.368 . S
C477 C461 1.349 . S
C477 H469 0.950 . S
C477 C475 1.327 . S
C478 C466 1.349 . S
C478 H472 0.950 . S
C478 C479 1.327 . S
C479 H473 0.950 . S
C479 C478 1.327 . S
C479 C483 1.429 . S
C480 C463 1.574 . S
C480 H474 0.949 . S
C480 C484 1.368 . S
C481 C462 1.429 . S
C481 C475 1.429 . S
C481 C482 1.523 . S
C482 C463 1.368 . S
C482 C476 1.368 . S
C482 C481 1.523 . S
C483 C467 1.429 . S
C483 C479 1.429 . S
C483 C484 1.523 . S
C484 C468 1.368 . S
C484 C480 1.368 . S
C484 C483 1.523 . S
H485 C460 0.950 . S
H486 C462 0.950 . S
H487 C463 0.949 . S
H488 C465 0.950 . S
H489 C467 0.950 . S
C490 C491 1.349 . S
C490 C492 1.327 . S
C490 H515 0.950 . S
C491 C490 1.349 . S
C491 C507 1.349 . S
C492 C490 1.327 . S
C492 C511 1.429 . S
C492 H516 0.950 . S
C493 C510 1.574 . S
C493 C512 1.368 . S
C493 H517 0.949 . S
H494 C498 0.949 . S
C495 C496 1.349 . S
C495 C497 1.327 . S
C495 H518 0.950 1_655 S
C496 C495 1.349 . S
C496 C508 1.349 . S
C497 C495 1.327 . S
C497 C513 1.429 . S
C497 H519 0.950 . S
C498 H494 0.949 . S
C498 C506 1.574 . S
C498 C514 1.368 . S
H499 C507 0.950 . S
H500 C505 0.950 . S
H501 C506 0.949 . S
H502 C508 0.950 . S
H503 C509 0.950 . S
H504 C510 0.949 . S
C505 H500 0.950 . S
C505 C507 1.327 . S
C505 C511 1.429 . S
C506 C498 1.574 . S
C506 H501 0.949 . S
C506 C512 1.368 . S
C507 C491 1.349 . S
C507 H499 0.950 . S
C507 C505 1.327 . S
C508 C496 1.349 . S
C508 H502 0.950 . S
C508 C509 1.327 . S
C509 H503 0.950 . S
C509 C508 1.327 . S
C509 C513 1.429 . S
C510 C493 1.574 . S
C510 H504 0.949 . S
C510 C514 1.368 . S
C511 C492 1.429 . S
C511 C505 1.429 . S
C511 C512 1.523 . S
C512 C493 1.368 . S
C512 C506 1.368 . S
C512 C511 1.523 . S
C513 C497 1.429 . S
C513 C509 1.429 . S
C513 C514 1.523 . S
C514 C498 1.368 . S
C514 C510 1.368 . S
C514 C513 1.523 . S
H515 C490 0.950 . S
H516 C492 0.950 . S
H517 C493 0.949 . S
H518 C495 0.950 1_455 S
H519 C497 0.950 . S
C161 C98 0.918 . S
C166 C9 0.918 . S
C191 C138 1.067 . S
C196 C49 1.066 . S
C221 C89 0.885 1_545 S
C226 C18 0.884 . S
C251 C58 0.978 . S
C256 C129 0.978 1_655 S
C281 C46 1.006 . S
C286 C15 1.014 . S
C311 C55 1.787 . S
C316 C90 1.799 . S
C341 C130 2.158 . S
C346 C99 2.104 . S
C371 C139 1.297 . S
C376 C6 1.314 . S
C401 C86 1.014 . S
C406 C135 1.008 . S
C431 C19 1.799 . S
C436 C126 1.785 . S
C461 C59 2.158 . S
C466 C10 2.104 1_556 S
C491 C95 1.314 . S
C496 C50 1.297 1_655 S
