# Generated by pormake.
# Topology srs, (3)-cn, num edge types: 1
# Building blocks:
#     Node 0, Type 0, BuildingBlock: WUSLED_clean_sbu_0, # of connection points: 3
#     Node 1, Type 0, BuildingBlock: WUSLED_clean_sbu_0, # of connection points: 3
#     Node 2, Type 0, BuildingBlock: WUSLED_clean_sbu_0, # of connection points: 3
#     Node 3, Type 0, BuildingBlock: WUSLED_clean_sbu_0, # of connection points: 3
#     Node 4, Type 0, BuildingBlock: WUSLED_clean_sbu_0, # of connection points: 3
#     Node 5, Type 0, BuildingBlock: WUSLED_clean_sbu_0, # of connection points: 3
#     Node 6, Type 0, BuildingBlock: WUSLED_clean_sbu_0, # of connection points: 3
#     Node 7, Type 0, BuildingBlock: WUSLED_clean_sbu_0, # of connection points: 3
#     Edge 8, Type (0, 0), BuildingBlock: EZIPEK_clean_linker_0, # of connection points: 2
#     Edge 9, Type (0, 0), BuildingBlock: EZIPEK_clean_linker_0, # of connection points: 2
#     Edge 10, Type (0, 0), BuildingBlock: EZIPEK_clean_linker_0, # of connection points: 2
#     Edge 11, Type (0, 0), BuildingBlock: EZIPEK_clean_linker_0, # of connection points: 2
#     Edge 12, Type (0, 0), BuildingBlock: EZIPEK_clean_linker_0, # of connection points: 2
#     Edge 13, Type (0, 0), BuildingBlock: EZIPEK_clean_linker_0, # of connection points: 2
#     Edge 14, Type (0, 0), BuildingBlock: EZIPEK_clean_linker_0, # of connection points: 2
#     Edge 15, Type (0, 0), BuildingBlock: EZIPEK_clean_linker_0, # of connection points: 2
#     Edge 16, Type (0, 0), BuildingBlock: EZIPEK_clean_linker_0, # of connection points: 2
#     Edge 17, Type (0, 0), BuildingBlock: EZIPEK_clean_linker_0, # of connection points: 2
#     Edge 18, Type (0, 0), BuildingBlock: EZIPEK_clean_linker_0, # of connection points: 2
#     Edge 19, Type (0, 0), BuildingBlock: EZIPEK_clean_linker_0, # of connection points: 2
# Relax obj value: 0.000
# Max RMSD: 0.008
# Mean RMSD: 0.008
data_MOF--net-srs--node1-WUSLED_clean_sbu_0--edge1-EZIPEK_clean_linker_0
_symmetry_space_group_name_H-M    P1
_symmetry_Int_Tables_number       1
_symmetry_cell_setting            triclinic
loop_
_symmetry_equiv_pos_as_xyz
'x, y, z'
_cell_length_a     52.674233
_cell_length_b     52.989734
_cell_length_c     53.136306
_cell_angle_alpha  89.931748
_cell_angle_beta   90.003033
_cell_angle_gamma 89.966866
loop_
_atom_site_label
_atom_site_type_symbol
_atom_site_fract_x
_atom_site_fract_y
_atom_site_fract_z
_atom_type_partial_charge
C0 C 0.13085 0.11351 0.20833 0.0
C1 C 0.15461 0.1063 0.21815 0.0
C2 C 0.13467 0.07262 0.24229 0.0
C3 C 0.15646 0.08607 0.23507 0.0
C4 C 0.11106 0.0795 0.23212 0.0
C5 C 0.10917 0.0998 0.21534 0.0
U6 U 0.15137 0.15632 0.15316 0.0
O7 O 0.12793 0.17691 0.12563 0.0
O8 O 0.15297 0.19781 0.1512 0.0
C9 C 0.1354 0.19915 0.13371 0.0
C10 C 0.12796 0.13584 0.1918 0.0
C11 C 0.11547 0.21834 0.13759 0.0
C12 C 0.07421 0.23183 0.15342 0.0
C13 C 0.09272 0.21297 0.15037 0.0
C14 C 0.10111 0.26145 0.13112 0.0
C15 C 0.07836 0.25621 0.1438 0.0
C16 C 0.11948 0.24268 0.12804 0.0
C17 C 0.21084 0.13961 0.11454 0.0
C18 C 0.23099 0.16811 0.08478 0.0
C19 C 0.24856 0.12679 0.09164 0.0
C20 C 0.22895 0.12133 0.10856 0.0
C21 C 0.25171 0.1513 0.08133 0.0
C22 C 0.21134 0.16269 0.10176 0.0
C23 C 0.19193 0.13435 0.13432 0.0
O24 O 0.14531 0.15353 0.19397 0.0
O25 O 0.12148 0.13136 0.16832 0.0
O26 O 0.16875 0.12931 0.12668 0.0
O27 O 0.19254 0.14964 0.15376 0.0
H28 H 0.17166 0.1165 0.21303 0.0
H29 H 0.17484 0.08103 0.24273 0.0
H30 H 0.09404 0.06935 0.23745 0.0
H31 H 0.09068 0.10503 0.20808 0.0
H32 H 0.05677 0.2275 0.16332 0.0
H33 H 0.0893 0.19429 0.15794 0.0
H34 H 0.10466 0.28014 0.12364 0.0
H35 H 0.13689 0.2472 0.11815 0.0
H36 H 0.2292 0.18547 0.07437 0.0
H37 H 0.26105 0.1114 0.08682 0.0
H38 H 0.22808 0.10278 0.11713 0.0
H39 H 0.19658 0.17658 0.10496 0.0
C40 C 0.13038 0.94739 0.34595 0.0
C41 C 0.1474 0.96702 0.35146 0.0
C42 C 0.13479 0.98902 0.31314 0.0
C43 C 0.14959 0.98774 0.33513 0.0
C44 C 0.11796 0.96927 0.30763 0.0
C45 C 0.11579 0.94863 0.32391 0.0
U46 U 0.14941 0.90563 0.4026 0.0
O47 O 0.12486 0.88623 0.42993 0.0
O48 O 0.14965 0.86407 0.40517 0.0
C49 C 0.13131 0.86364 0.42194 0.0
C50 C 0.12732 0.92548 0.3628 0.0
C51 C 0.11037 0.8457 0.41705 0.0
C52 C 0.06605 0.83647 0.40765 0.0
C53 C 0.08571 0.85397 0.41101 0.0
C54 C 0.09545 0.80225 0.41576 0.0
C55 C 0.07077 0.81048 0.41007 0.0
C56 C 0.11504 0.81971 0.41928 0.0
C57 C 0.20702 0.92257 0.44409 0.0
C58 C 0.23403 0.89471 0.46893 0.0
C59 C 0.23334 0.93955 0.47772 0.0
C60 C 0.2156 0.94311 0.45843 0.0
C61 C 0.24291 0.91538 0.48293 0.0
C62 C 0.21615 0.89825 0.4497 0.0
C63 C 0.1894 0.9272 0.42289 0.0
O64 O 0.14513 0.90817 0.36144 0.0
O65 O 0.12033 0.93046 0.38602 0.0
O66 O 0.16598 0.93323 0.42896 0.0
O67 O 0.19071 0.91139 0.40388 0.0
H68 H 0.15887 0.96635 0.36838 0.0
H69 H 0.16269 1.00282 0.33966 0.0
H70 H 0.10641 0.96992 0.29077 0.0
H71 H 0.10259 0.93364 0.31933 0.0
H72 H 0.04712 0.84317 0.40325 0.0
H73 H 0.08158 0.8739 0.4091 0.0
H74 H 0.09947 0.78229 0.4177 0.0
H75 H 0.13387 0.81291 0.42396 0.0
H76 H 0.24119 0.87591 0.4727 0.0
H77 H 0.23994 0.95571 0.48834 0.0
H78 H 0.20882 0.96201 0.45444 0.0
H79 H 0.20977 0.88206 0.43902 0.0
C80 C 0.38073 0.96465 0.6934 0.0
C81 C 0.39655 0.95842 0.71378 0.0
C82 C 0.38471 0.99746 0.73496 0.0
C83 C 0.39852 0.97474 0.73446 0.0
C84 C 0.36919 1.00374 0.71443 0.0
C85 C 0.36722 0.98746 0.69383 0.0
U86 U 0.39985 0.90754 0.65251 0.0
O87 O 0.37528 0.87978 0.63368 0.0
O88 O 0.40006 0.90423 0.6112 0.0
C89 C 0.38191 0.88723 0.61101 0.0
C90 C 0.37762 0.94761 0.6717 0.0
C91 C 0.36095 0.89195 0.59323 0.0
C92 C 0.32235 0.91408 0.58101 0.0
C93 C 0.34199 0.9099 0.59835 0.0
C94 C 0.34043 0.88249 0.55335 0.0
C95 C 0.32147 0.9004 0.55838 0.0
C96 C 0.36001 0.8783 0.57066 0.0
C97 C 0.45782 0.86681 0.67007 0.0
C98 C 0.46794 0.82561 0.65243 0.0
C99 C 0.49943 0.84808 0.67694 0.0
C100 C 0.48226 0.86791 0.6805 0.0
C101 C 0.49241 0.82676 0.66293 0.0
C102 C 0.45077 0.84555 0.6559 0.0
C103 C 0.44012 0.88797 0.67436 0.0
O104 O 0.39537 0.94885 0.65437 0.0
O105 O 0.37068 0.92436 0.67693 0.0
O106 O 0.41672 0.88188 0.68048 0.0
O107 O 0.44131 0.90653 0.65798 0.0
H108 H 0.40717 0.94091 0.71376 0.0
H109 H 0.4106 0.9696 0.75015 0.0
H110 H 0.35842 1.02117 0.71448 0.0
H111 H 0.35496 0.9926 0.67827 0.0
H112 H 0.30791 0.92803 0.58516 0.0
H113 H 0.34245 0.92066 0.61567 0.0
H114 H 0.34009 0.87181 0.53598 0.0
H115 H 0.37448 0.86441 0.56638 0.0
H116 H 0.4622 0.80931 0.64154 0.0
H117 H 0.51821 0.84933 0.68516 0.0
H118 H 0.48807 0.88415 0.69145 0.0
H119 H 0.43202 0.84436 0.6476 0.0
C120 C 0.38006 0.1011 0.86011 0.0
C121 C 0.40356 0.09012 0.8538 0.0
C122 C 0.3839 0.06759 0.81896 0.0
C123 C 0.40542 0.07342 0.83344 0.0
C124 C 0.36058 0.07893 0.82495 0.0
C125 C 0.35868 0.09548 0.84537 0.0
U126 U 0.40052 0.15579 0.90349 0.0
O127 O 0.37713 0.18336 0.92406 0.0
O128 O 0.40185 0.15733 0.94488 0.0
C129 C 0.38448 0.17508 0.94623 0.0
C130 C 0.37705 0.11742 0.88253 0.0
C131 C 0.3645 0.17135 0.9653 0.0
C132 C 0.32419 0.15379 0.97944 0.0
C133 C 0.34268 0.15682 0.96061 0.0
C134 C 0.34923 0.17968 1.00763 0.0
C135 C 0.32743 0.1652 1.00309 0.0
C136 C 0.36758 0.18272 0.98891 0.0
C137 C 0.46016 0.19442 0.88793 0.0
C138 C 0.47716 0.22675 0.91559 0.0
C139 C 0.5 0.2152 0.87815 0.0
C140 C 0.4808 0.19809 0.87187 0.0
C141 C 0.50004 0.22813 0.90152 0.0
C142 C 0.45794 0.20954 0.90936 0.0
C143 C 0.44137 0.17467 0.8821 0.0
O144 O 0.3942 0.11493 0.90034 0.0
O145 O 0.37072 0.14105 0.87825 0.0
O146 O 0.41826 0.18244 0.87689 0.0
O147 O 0.44176 0.15499 0.89716 0.0
H148 H 0.4204 0.09414 0.86478 0.0
H149 H 0.42357 0.06484 0.82911 0.0
H150 H 0.34377 0.07466 0.814 0.0
H151 H 0.34037 0.10364 0.84989 0.0
H152 H 0.30749 0.1425 0.97565 0.0
H153 H 0.34001 0.14784 0.9425 0.0
H154 H 0.35208 0.18856 1.02577 0.0
H155 H 0.38428 0.19397 0.99289 0.0
H156 H 0.47328 0.23898 0.93128 0.0
H157 H 0.51468 0.21811 0.86428 0.0
H158 H 0.4822 0.18759 0.85443 0.0
H159 H 0.44133 0.20805 0.92131 0.0
C160 C 0.63591 0.4424 0.84259 0.0
C161 C 0.65136 0.46282 0.84916 0.0
C162 C 0.64811 0.48029 0.80629 0.0
C163 C 0.65671 0.48185 0.83158 0.0
C164 C 0.63038 0.46083 0.80111 0.0
C165 C 0.62493 0.44192 0.81869 0.0
U166 U 0.6515 0.40366 0.90169 0.0
O167 O 0.62601 0.38645 0.92974 0.0
O168 O 0.65124 0.3625 0.90718 0.0
C169 C 0.63299 0.36333 0.92401 0.0
C170 C 0.63071 0.42164 0.86039 0.0
C171 C 0.61258 0.34459 0.92096 0.0
C172 C 0.57494 0.32831 0.89984 0.0
C173 C 0.59358 0.34708 0.90253 0.0
C174 C 0.59413 0.30465 0.93397 0.0
C175 C 0.57524 0.30689 0.91549 0.0
C176 C 0.61261 0.32333 0.93668 0.0
C177 C 0.70968 0.4212 0.9418 0.0
C178 C 0.71905 0.4048 0.98362 0.0
C179 C 0.75183 0.42624 0.95981 0.0
C180 C 0.73472 0.43002 0.94002 0.0
C181 C 0.74416 0.4136 0.98175 0.0
C182 C 0.70194 0.40847 0.96372 0.0
C183 C 0.6922 0.42533 0.92048 0.0
O184 O 0.64747 0.40327 0.86045 0.0
O185 O 0.62345 0.42826 0.88313 0.0
O186 O 0.66893 0.4323 0.92618 0.0
O187 O 0.69305 0.40826 0.9026 0.0
H188 H 0.65909 0.46422 0.86801 0.0
H189 H 0.66706 0.49783 0.83865 0.0
H190 H 0.62005 0.46007 0.78358 0.0
H191 H 0.61193 0.42693 0.81358 0.0
H192 H 0.56053 0.3303 0.88544 0.0
H193 H 0.59332 0.36335 0.89018 0.0
H194 H 0.59469 0.28824 0.94615 0.0
H195 H 0.62713 0.32105 0.95095 0.0
H196 H 0.71279 0.39499 1.00041 0.0
H197 H 0.7711 0.43314 0.95801 0.0
H198 H 0.74107 0.43983 0.92326 0.0
H199 H 0.68273 0.40138 0.96543 0.0
C200 C 0.8797 0.46015 0.1959 0.0
C201 C 0.8955 0.45352 0.21617 0.0
C202 C 0.88432 0.49255 0.2377 0.0
C203 C 0.89776 0.46963 0.23699 0.0
C204 C 0.86874 0.49919 0.21733 0.0
C205 C 0.86644 0.48311 0.19661 0.0
U206 U 0.90013 0.40512 0.15292 0.0
O207 O 0.87657 0.37742 0.13284 0.0
O208 O 0.90043 0.40374 0.11145 0.0
C209 C 0.88269 0.38634 0.11054 0.0
C210 C 0.87671 0.44364 0.17379 0.0
C211 C 0.8615 0.39126 0.09296 0.0
C212 C 0.81754 0.40276 0.08437 0.0
C213 C 0.83744 0.39898 0.1015 0.0
C214 C 0.84559 0.39169 0.04997 0.0
C215 C 0.82148 0.39911 0.05847 0.0
C216 C 0.86539 0.38776 0.06708 0.0
C217 C 0.96034 0.36666 0.16861 0.0
C218 C 0.98238 0.33868 0.13972 0.0
C219 C 0.99701 0.34257 0.18238 0.0
C220 C 0.97711 0.35926 0.18759 0.0
C221 C 1.00188 0.33395 0.15758 0.0
C222 C 0.96242 0.35543 0.14489 0.0
C223 C 0.94127 0.38634 0.17389 0.0
O224 O 0.89408 0.4461 0.15621 0.0
O225 O 0.87072 0.41999 0.17835 0.0
O226 O 0.91825 0.37852 0.17941 0.0
O227 O 0.94144 0.4058 0.15854 0.0
H228 H 0.90597 0.43592 0.21591 0.0
H229 H 0.9099 0.46423 0.25255 0.0
H230 H 0.85825 0.51678 0.21756 0.0
H231 H 0.85424 0.48857 0.18112 0.0
H232 H 0.79907 0.40849 0.09127 0.0
H233 H 0.83398 0.40192 0.12138 0.0
H234 H 0.849 0.38879 0.03007 0.0
H235 H 0.88377 0.38183 0.06009 0.0
H236 H 0.98181 0.32948 0.12167 0.0
H237 H 1.0084 0.33659 0.19819 0.0
H238 H 0.97496 0.36657 0.20651 0.0
H239 H 0.94867 0.35969 0.13032 0.0
C240 C 0.88098 0.59752 0.36159 0.0
C241 C 0.90416 0.58534 0.35644 0.0
C242 C 0.88493 0.56328 0.32107 0.0
C243 C 0.90608 0.56829 0.33637 0.0
C244 C 0.86196 0.57577 0.32592 0.0
C245 C 0.85999 0.59268 0.34602 0.0
U246 U 0.89983 0.65327 0.40478 0.0
O247 O 0.87533 0.68104 0.4237 0.0
O248 O 0.89903 0.65548 0.4462 0.0
C249 C 0.88098 0.67262 0.44632 0.0
C250 C 0.87765 0.61419 0.38372 0.0
C251 C 0.85955 0.66799 0.4638 0.0
C252 C 0.81434 0.66355 0.47263 0.0
C253 C 0.83424 0.6667 0.45538 0.0
C254 C 0.84468 0.66249 0.50686 0.0
C255 C 0.81943 0.66149 0.4985 0.0
C256 C 0.86453 0.66579 0.48968 0.0
C257 C 0.95889 0.69342 0.38944 0.0
C258 C 0.96904 0.73456 0.40717 0.0
C259 C 1.00092 0.71152 0.38364 0.0
C260 C 0.98361 0.69191 0.37973 0.0
C261 C 0.99376 0.73304 0.39731 0.0
C262 C 0.95173 0.71483 0.40334 0.0
C263 C 0.94095 0.67265 0.38441 0.0
O264 O 0.89457 0.61222 0.40182 0.0
O265 O 0.87104 0.63765 0.37898 0.0
O266 O 0.91781 0.67929 0.37788 0.0
O267 O 0.94145 0.65374 0.40043 0.0
H268 H 0.92068 0.58867 0.3681 0.0
H269 H 0.92396 0.55879 0.33292 0.0
H270 H 0.84544 0.57213 0.31434 0.0
H271 H 0.84191 0.60173 0.34967 0.0
H272 H 0.79496 0.66284 0.46584 0.0
H273 H 0.82977 0.66833 0.43556 0.0
H274 H 0.84899 0.66096 0.52674 0.0
H275 H 0.88383 0.66685 0.49665 0.0
H276 H 0.9632 0.75101 0.41777 0.0
H277 H 1.01988 0.71 0.37591 0.0
H278 H 0.98949 0.67556 0.36896 0.0
H279 H 0.93276 0.71635 0.41107 0.0
C280 C 0.63386 0.60956 0.71099 0.0
C281 C 0.6554 0.59466 0.70631 0.0
C282 C 0.6434 0.5662 0.74027 0.0
C283 C 0.66014 0.57312 0.72088 0.0
C284 C 0.62188 0.58109 0.74494 0.0
C285 C 0.61715 0.60265 0.73038 0.0
U286 U 0.64963 0.65448 0.65674 0.0
O287 O 0.62448 0.67413 0.63009 0.0
O288 O 0.64887 0.69607 0.65542 0.0
C289 C 0.63056 0.69663 0.63863 0.0
C290 C 0.62865 0.63234 0.6959 0.0
C291 C 0.60941 0.71429 0.64374 0.0
C292 C 0.56484 0.72314 0.6524 0.0
C293 C 0.58466 0.70579 0.649 0.0
C294 C 0.59426 0.75765 0.64588 0.0
C295 C 0.5695 0.7492 0.65075 0.0
C296 C 0.61401 0.74035 0.64236 0.0
C297 C 0.70788 0.63949 0.61524 0.0
C298 C 0.71892 0.66095 0.57622 0.0
C299 C 0.74832 0.63108 0.59484 0.0
C300 C 0.73123 0.62678 0.61452 0.0
C301 C 0.74231 0.64816 0.57553 0.0
C302 C 0.70181 0.65669 0.596 0.0
C303 C 0.69023 0.63425 0.63614 0.0
O304 O 0.64556 0.65047 0.69778 0.0
O305 O 0.62133 0.62832 0.6726 0.0
O306 O 0.66692 0.62809 0.62977 0.0
O307 O 0.69119 0.64998 0.65521 0.0
H308 H 0.6685 0.5997 0.69141 0.0
H309 H 0.67682 0.56181 0.71702 0.0
H310 H 0.60877 0.57601 0.75981 0.0
H311 H 0.60045 0.61393 0.73426 0.0
H312 H 0.54584 0.71627 0.65614 0.0
H313 H 0.58059 0.68579 0.65023 0.0
H314 H 0.59823 0.77767 0.64454 0.0
H315 H 0.63289 0.74734 0.63826 0.0
H316 H 0.71398 0.67419 0.56146 0.0
H317 H 0.76625 0.62106 0.59463 0.0
H318 H 0.73623 0.61345 0.62919 0.0
H319 H 0.68389 0.66671 0.59627 0.0
C320 C 0.14911 1.00852 0.27232 0.0
C321 C 0.13652 1.0111 0.2958 0.0
C322 C 0.12641 0.05519 0.28562 0.0
C323 C 0.13631 0.05166 0.26101 0.0
N324 N 0.1543 1.02404 0.22967 0.0
N325 N 0.11027 0.03573 0.32371 0.0
C326 C 0.14704 1.02809 0.25404 0.0
C327 C 0.12445 0.03418 0.30221 0.0
N328 N 0.16351 0.98754 0.26774 0.0
N329 N 0.11949 0.07882 0.29336 0.0
H330 H 0.10854 1.02086 0.33647 0.0
H331 H 0.0986 0.05102 0.32793 0.0
H332 H 0.12079 0.09469 0.28179 0.0
H333 H 0.11466 0.08311 0.31187 0.0
H334 H 0.17531 0.98568 0.25214 0.0
H335 H 0.1654 0.97285 0.28069 0.0
H336 H 0.1596 1.00644 0.22275 0.0
H337 H 0.15309 0.03787 0.21574 0.0
C338 C 0.28799 0.92042 0.49793 0.0
C339 C 0.26287 0.91185 0.50256 0.0
C340 C 0.2764 0.89468 0.54341 0.0
C341 C 0.30097 0.90501 0.53959 0.0
N342 N 0.32903 0.93152 0.51539 0.0
N343 N 0.23197 0.8946 0.53128 0.0
C344 C 0.30643 0.91901 0.51746 0.0
C345 C 0.25673 0.90002 0.52577 0.0
N346 N 0.2945 0.92902 0.47453 0.0
N347 N 0.27208 0.87909 0.56347 0.0
H348 H 0.21709 0.89822 0.51885 0.0
H349 H 0.2259 0.88848 0.54891 0.0
H350 H 0.2859 0.87498 0.57693 0.0
H351 H 0.25548 0.86868 0.56576 0.0
H352 H 0.31311 0.93292 0.46918 0.0
H353 H 0.28163 0.93021 0.45966 0.0
H354 H 0.33304 0.94428 0.50102 0.0
H355 H 0.34304 0.93086 0.52926 0.0
C356 C 0.39986 0.03755 0.75543 0.0
C357 C 0.38601 1.01464 0.75713 0.0
C358 C 0.37415 1.02489 0.80063 0.0
C359 C 0.3855 0.04905 0.7979 0.0
N360 N 0.40641 0.07983 0.77164 0.0
N361 N 0.35707 0.98782 0.77999 0.0
C362 C 0.39773 0.05575 0.77503 0.0
C363 C 0.37242 1.00861 0.77941 0.0
N364 N 0.41549 0.04165 0.7353 0.0
N365 N 0.36565 1.01723 0.82372 0.0
H366 H 0.35543 0.9753 0.76495 0.0
H367 H 0.34441 0.98405 0.79457 0.0
H368 H 0.36673 1.02855 0.83973 0.0
H369 H 0.35966 0.99889 0.82753 0.0
H370 H 0.42815 0.0567 0.73421 0.0
H371 H 0.41745 1.02876 0.7206 0.0
H372 H 0.41294 0.08668 0.75445 0.0
H373 H 0.4052 0.09368 0.78551 0.0
C374 C 0.27713 0.18108 0.05193 0.0
C375 C 0.27501 0.15793 0.06529 0.0
C376 C 0.31079 0.14139 0.04057 0.0
C377 C 0.3085 0.16201 1.02368 0.0
N378 N 0.28883 0.20177 1.01307 0.0
N379 N 0.30421 0.12802 0.08345 0.0
C380 C 0.29141 0.18192 0.02926 0.0
C381 C 0.29588 0.14105 0.06287 0.0
N382 N 0.27019 0.20309 0.06326 0.0
N383 N 0.32722 0.12213 0.03548 0.0
H384 H 0.29658 0.13119 0.10131 0.0
H385 H 0.32075 0.11722 0.08353 0.0
H386 H 0.33901 0.12196 1.0197 0.0
H387 H 0.32763 0.10549 0.04598 0.0
H388 H 0.27331 0.22078 0.05523 0.0
H389 H 0.26543 0.20369 0.08233 0.0
H390 H 0.2749 0.21557 1.01538 0.0
H391 H 0.29914 0.20323 0.99636 0.0
C392 C 0.04525 0.3146 0.16954 0.0
C393 C 1.0256 0.31826 0.15152 0.0
C394 C 0.04369 0.28381 0.12642 0.0
C395 C 0.05934 0.27678 0.14699 0.0
N396 N 0.07523 0.28576 0.18863 0.0
N397 N 1.02394 0.31937 0.10623 0.0
C398 C 0.06017 0.29225 0.16873 0.0
C399 C 1.02935 0.30649 0.12779 0.0
N400 N 0.05262 0.33425 0.1844 0.0
N401 N 0.04251 0.26898 0.10547 0.0
H402 H 1.01923 0.33851 0.10659 0.0
H403 H 1.02831 0.31255 0.08835 0.0
H404 H 0.05291 0.25232 0.10361 0.0
H405 H 1.02958 0.27231 0.09097 0.0
H406 H 0.06837 0.33351 0.19626 0.0
H407 H 0.04521 0.35237 0.18195 0.0
H408 H 0.07445 0.29512 0.20587 0.0
H409 H 0.087 0.26992 0.18854 0.0
C410 C 0.5458 0.24442 0.89558 0.0
C411 C 0.52264 0.2446 0.90935 0.0
C412 C 0.53644 0.28353 0.93019 0.0
C413 C 0.55644 0.28612 0.91251 0.0
N414 N 0.58059 0.26854 0.87811 0.0
N415 N 0.5115 0.25287 0.95253 0.0
C416 C 0.56126 0.26641 0.8951 0.0
C417 C 0.52178 0.26104 0.93044 0.0
N418 N 0.55514 0.22211 0.88672 0.0
N419 N 0.5314 0.30243 0.9469 0.0
H420 H 0.50636 0.23401 0.95508 0.0
H421 H 0.51226 0.26329 0.96914 0.0
H422 H 0.54182 0.31916 0.94747 0.0
H423 H 0.51554 0.30216 0.95865 0.0
H424 H 0.57305 0.22028 0.87861 0.0
H425 H 0.54639 0.20493 0.89091 0.0
H426 H 0.5831 0.25583 0.86336 0.0
H427 H 0.59289 0.28396 0.87762 0.0
C428 C 0.03977 0.78669 0.38276 0.0
C429 C 0.04988 0.79173 0.40701 0.0
C430 C 1.02365 0.75785 0.42492 0.0
C431 C 1.01228 0.754 0.401 0.0
N432 N 1.00572 0.76805 0.35832 0.0
N433 N 0.04784 0.78575 0.45196 0.0
C434 C 1.01922 0.76944 0.38025 0.0
C435 C 0.04073 0.77837 0.42834 0.0
N436 N 0.05045 0.79761 0.36199 0.0
N437 N 1.01893 0.7413 0.44411 0.0
H438 H 0.06016 0.8008 0.45522 0.0
H439 H 0.03976 0.77852 0.46833 0.0
H440 H 1.00655 0.72605 0.44239 0.0
H441 H 1.02884 0.74143 0.46107 0.0
H442 H 0.0458 0.79253 0.34363 0.0
H443 H 0.06555 0.8103 0.363 0.0
H444 H 1.0081 0.78064 0.34344 0.0
H445 H 0.99048 0.75573 0.35584 0.0
C446 C 0.53783 0.77259 0.67772 0.0
C447 C 0.54845 0.76784 0.65362 0.0
C448 C 0.52271 0.80207 0.63562 0.0
C449 C 0.51088 0.8057 0.65935 0.0
N450 N 0.50341 0.79119 0.70172 0.0
N451 N 0.54734 0.77438 0.60872 0.0
C452 C 0.51733 0.78996 0.68004 0.0
C453 C 0.53977 0.7815 0.63228 0.0
N454 N 0.548 0.76128 0.69855 0.0
N455 N 0.51847 0.81888 0.61653 0.0
H456 H 0.55969 0.75932 0.60553 0.0
H457 H 0.53963 0.78185 0.59228 0.0
H458 H 0.50615 0.8342 0.6182 0.0
H459 H 0.52873 0.8189 0.59978 0.0
H460 H 0.543 0.76613 0.71688 0.0
H461 H 0.56299 0.74845 0.69765 0.0
H462 H 0.50543 0.77842 0.7165 0.0
H463 H 0.4882 0.80359 0.70405 0.0
C464 C 0.64098 0.51913 0.74643 0.0
C465 C 0.64841 0.54317 0.75556 0.0
C466 C 0.66817 0.52255 0.79191 0.0
C467 C 0.65478 0.50002 0.78624 0.0
N468 N 0.6482 0.47421 0.74959 0.0
N469 N 0.67048 0.56784 0.78689 0.0
C470 C 0.64672 0.49727 0.76088 0.0
C471 C 0.66248 0.54493 0.77826 0.0
N472 N 0.6279 0.51712 0.72433 0.0
N473 N 0.68943 0.52151 0.80648 0.0
H474 H 0.66744 0.58462 0.77704 0.0
H475 H 0.67863 0.57014 0.80462 0.0
H476 H 0.69736 0.50424 0.81182 0.0
H477 H 0.70121 0.53701 0.80955 0.0
H478 H 0.61977 0.50024 0.71831 0.0
H479 H 0.62369 0.53263 0.71296 0.0
H480 H 0.64486 0.4714 0.73047 0.0
H481 H 0.65614 0.45869 0.75883 0.0
C482 C 0.79158 0.42739 0.03425 0.0
C483 C 0.80037 0.40273 0.04007 0.0
C484 C 0.77267 0.38513 1.00731 0.0
C485 C 0.76264 0.40957 1.00266 0.0
N486 N 0.7587 0.45313 1.01513 0.0
N487 N 0.79557 0.35767 0.03595 0.0
C488 C 0.77095 0.43047 1.01719 0.0
C489 C 0.78978 0.38145 1.02773 0.0
N490 N 0.8036 0.44795 0.0442 0.0
N491 N 0.76671 0.36561 0.99158 0.0
H492 H 0.80788 0.35424 0.05096 0.0
H493 H 0.78644 0.34151 0.02948 0.0
H494 H 0.75433 0.36751 0.97638 0.0
H495 H 0.77565 0.34809 0.99228 0.0
H496 H 0.79992 0.4664 0.03848 0.0
H497 H 0.81879 0.44652 0.05671 0.0
H498 H 0.76211 0.46832 1.02707 0.0
H499 H 0.74344 0.45603 1.00295 0.0
C500 C 0.90099 0.53199 0.25818 0.0
C501 C 0.88618 0.50968 0.25985 0.0
C502 C 0.87412 0.52072 0.30309 0.0
C503 C 0.88645 0.54439 0.30033 0.0
N504 N 0.90919 0.57403 0.27428 0.0
N505 N 0.8561 0.48401 0.28256 0.0
C506 C 0.89937 0.55039 0.27764 0.0
C507 C 0.87212 0.5043 0.282 0.0
N508 N 0.91698 0.53533 0.2382 0.0
N509 N 0.86489 0.51366 0.3261 0.0
H510 H 0.85435 0.47135 0.26764 0.0
H511 H 0.84312 0.48078 0.29698 0.0
H512 H 0.86609 0.52513 0.34199 0.0
H513 H 0.85809 0.49563 0.33001 0.0
H514 H 0.93026 0.54984 0.23714 0.0
H515 H 0.91854 0.5223 0.22357 0.0
H516 H 0.91629 0.58051 0.25717 0.0
H517 H 0.90847 0.58798 0.2881 0.0
C518 C 0.79232 0.679 0.53338 0.0
C519 C 0.79837 0.65866 0.51707 0.0
C520 C 0.76457 0.63325 0.53635 0.0
C521 C 0.76069 0.65242 0.5546 0.0
N522 N 0.77316 0.69227 0.57269 0.0
N523 N 0.79266 0.61514 0.50505 0.0
C524 C 0.77512 0.67503 0.55366 0.0
C525 C 0.78506 0.63544 0.51902 0.0
N526 N 0.80253 0.70233 0.52908 0.0
N527 N 0.74827 0.61322 0.53524 0.0
H528 H 0.80758 0.61595 0.49218 0.0
H529 H 0.78559 0.59698 0.50769 0.0
H530 H 0.73302 0.61105 0.54758 0.0
H531 H 0.74844 0.6 0.52075 0.0
H532 H 0.79684 0.71851 0.53865 0.0
H533 H 0.81507 0.70599 0.51432 0.0
H534 H 0.78526 0.70768 0.57456 0.0
H535 H 0.76074 0.69012 0.58782 0.0
loop_
_geom_bond_atom_site_label_1
_geom_bond_atom_site_label_2
_geom_bond_distance
_geom_bond_site_symmetry_2
_ccdc_geom_bond_type
C0 C1 1.264 . S
C0 C5 1.479 . S
C0 C10 1.465 . S
C1 C0 1.264 . S
C1 C3 1.339 . S
C1 H28 0.931 . S
C2 C3 1.395 . S
C2 C4 1.320 . S
C3 C1 1.339 . S
C3 C2 1.395 . S
C3 H29 0.929 . S
C4 C2 1.320 . S
C4 C5 1.405 . S
C4 H30 0.930 . S
C5 C0 1.479 . S
C5 C4 1.405 . S
C5 H31 0.931 . S
U6 O7 2.454 . S
U6 O8 2.458 . S
U6 C9 2.984 . S
U6 C10 2.847 . S
U6 C23 2.882 . S
U6 O24 2.441 . S
U6 O25 2.420 . S
U6 O26 2.455 . S
U6 O27 2.449 . S
O7 U6 2.454 . S
O7 C9 1.353 . S
O8 U6 2.458 . S
O8 C9 1.286 . S
C9 U6 2.984 . S
C9 O7 1.353 . S
C9 O8 1.286 . S
C9 C11 1.363 . S
C10 C0 1.465 . S
C10 U6 2.847 . S
C10 O24 1.249 . S
C10 O25 1.202 . S
C11 C9 1.363 . S
C11 C13 1.408 . S
C11 C16 1.342 . S
C12 C13 1.310 . S
C12 C15 1.461 . S
C12 H32 0.932 . S
C13 C11 1.408 . S
C13 C12 1.310 . S
C13 H33 0.930 . S
C14 C15 1.474 . S
C14 C16 1.285 . S
C14 H34 0.929 . S
C15 C12 1.461 . S
C15 C14 1.474 . S
C16 C11 1.342 . S
C16 C14 1.285 . S
C16 H35 0.930 . S
C17 C20 1.424 . S
C17 C22 1.245 . S
C17 C23 1.428 . S
C18 C21 1.260 . S
C18 C22 1.477 . S
C18 H36 0.932 . S
C19 C20 1.384 . S
C19 C21 1.479 . S
C19 H37 0.929 . S
C20 C17 1.424 . S
C20 C19 1.384 . S
C20 H38 0.928 . S
C21 C18 1.260 . S
C21 C19 1.479 . S
C22 C17 1.245 . S
C22 C18 1.477 . S
C22 H39 0.932 . S
C23 U6 2.882 . S
C23 C17 1.428 . S
C23 O26 1.301 . S
C23 O27 1.282 . S
O24 U6 2.441 . S
O24 C10 1.249 . S
O25 U6 2.420 . S
O25 C10 1.202 . S
O26 U6 2.455 . S
O26 C23 1.301 . S
O27 U6 2.449 . S
O27 C23 1.282 . S
H28 C1 0.931 . S
H29 C3 0.929 . S
H30 C4 0.930 . S
H31 C5 0.931 . S
H32 C12 0.932 . S
H33 C13 0.930 . S
H34 C14 0.929 . S
H35 C16 0.930 . S
H36 C18 0.932 . S
H37 C19 0.929 . S
H38 C20 0.928 . S
H39 C22 0.932 . S
C40 C41 1.264 . S
C40 C45 1.479 . S
C40 C50 1.465 . S
C41 C40 1.264 . S
C41 C43 1.339 . S
C41 H68 0.931 . S
C42 C43 1.395 . S
C42 C44 1.320 . S
C43 C41 1.339 . S
C43 C42 1.395 . S
C43 H69 0.929 . S
C44 C42 1.320 . S
C44 C45 1.405 . S
C44 H70 0.930 . S
C45 C40 1.479 . S
C45 C44 1.405 . S
C45 H71 0.931 . S
U46 O47 2.454 . S
U46 O48 2.458 . S
U46 C49 2.984 . S
U46 C50 2.847 . S
U46 C63 2.882 . S
U46 O64 2.441 . S
U46 O65 2.420 . S
U46 O66 2.455 . S
U46 O67 2.449 . S
O47 U46 2.454 . S
O47 C49 1.353 . S
O48 U46 2.458 . S
O48 C49 1.286 . S
C49 U46 2.984 . S
C49 O47 1.353 . S
C49 O48 1.286 . S
C49 C51 1.363 . S
C50 C40 1.465 . S
C50 U46 2.847 . S
C50 O64 1.249 . S
C50 O65 1.202 . S
C51 C49 1.363 . S
C51 C53 1.408 . S
C51 C56 1.342 . S
C52 C53 1.310 . S
C52 C55 1.461 . S
C52 H72 0.932 . S
C53 C51 1.408 . S
C53 C52 1.310 . S
C53 H73 0.930 . S
C54 C55 1.474 . S
C54 C56 1.285 . S
C54 H74 0.929 . S
C55 C52 1.461 . S
C55 C54 1.474 . S
C56 C51 1.342 . S
C56 C54 1.285 . S
C56 H75 0.930 . S
C57 C60 1.424 . S
C57 C62 1.245 . S
C57 C63 1.428 . S
C58 C61 1.260 . S
C58 C62 1.477 . S
C58 H76 0.932 . S
C59 C60 1.384 . S
C59 C61 1.479 . S
C59 H77 0.929 . S
C60 C57 1.424 . S
C60 C59 1.384 . S
C60 H78 0.928 . S
C61 C58 1.260 . S
C61 C59 1.479 . S
C62 C57 1.245 . S
C62 C58 1.477 . S
C62 H79 0.932 . S
C63 U46 2.882 . S
C63 C57 1.428 . S
C63 O66 1.301 . S
C63 O67 1.282 . S
O64 U46 2.441 . S
O64 C50 1.249 . S
O65 U46 2.420 . S
O65 C50 1.202 . S
O66 U46 2.455 . S
O66 C63 1.301 . S
O67 U46 2.449 . S
O67 C63 1.282 . S
H68 C41 0.931 . S
H69 C43 0.929 . S
H70 C44 0.930 . S
H71 C45 0.931 . S
H72 C52 0.932 . S
H73 C53 0.930 . S
H74 C54 0.929 . S
H75 C56 0.930 . S
H76 C58 0.932 . S
H77 C59 0.929 . S
H78 C60 0.928 . S
H79 C62 0.932 . S
C80 C81 1.264 . S
C80 C85 1.479 . S
C80 C90 1.465 . S
C81 C80 1.264 . S
C81 C83 1.339 . S
C81 H108 0.931 . S
C82 C83 1.395 . S
C82 C84 1.320 . S
C83 C81 1.339 . S
C83 C82 1.395 . S
C83 H109 0.929 . S
C84 C82 1.320 . S
C84 C85 1.405 . S
C84 H110 0.930 . S
C85 C80 1.479 . S
C85 C84 1.405 . S
C85 H111 0.931 . S
U86 O87 2.454 . S
U86 O88 2.458 . S
U86 C89 2.984 . S
U86 C90 2.847 . S
U86 C103 2.882 . S
U86 O104 2.441 . S
U86 O105 2.420 . S
U86 O106 2.455 . S
U86 O107 2.449 . S
O87 U86 2.454 . S
O87 C89 1.353 . S
O88 U86 2.458 . S
O88 C89 1.286 . S
C89 U86 2.984 . S
C89 O87 1.353 . S
C89 O88 1.286 . S
C89 C91 1.363 . S
C90 C80 1.465 . S
C90 U86 2.847 . S
C90 O104 1.249 . S
C90 O105 1.202 . S
C91 C89 1.363 . S
C91 C93 1.408 . S
C91 C96 1.342 . S
C92 C93 1.310 . S
C92 C95 1.461 . S
C92 H112 0.932 . S
C93 C91 1.408 . S
C93 C92 1.310 . S
C93 H113 0.930 . S
C94 C95 1.474 . S
C94 C96 1.285 . S
C94 H114 0.929 . S
C95 C92 1.461 . S
C95 C94 1.474 . S
C96 C91 1.342 . S
C96 C94 1.285 . S
C96 H115 0.930 . S
C97 C100 1.424 . S
C97 C102 1.245 . S
C97 C103 1.428 . S
C98 C101 1.260 . S
C98 C102 1.477 . S
C98 H116 0.932 . S
C99 C100 1.384 . S
C99 C101 1.479 . S
C99 H117 0.929 . S
C100 C97 1.424 . S
C100 C99 1.384 . S
C100 H118 0.928 . S
C101 C98 1.260 . S
C101 C99 1.479 . S
C102 C97 1.245 . S
C102 C98 1.477 . S
C102 H119 0.932 . S
C103 U86 2.882 . S
C103 C97 1.428 . S
C103 O106 1.301 . S
C103 O107 1.282 . S
O104 U86 2.441 . S
O104 C90 1.249 . S
O105 U86 2.420 . S
O105 C90 1.202 . S
O106 U86 2.455 . S
O106 C103 1.301 . S
O107 U86 2.449 . S
O107 C103 1.282 . S
H108 C81 0.931 . S
H109 C83 0.929 . S
H110 C84 0.930 . S
H111 C85 0.931 . S
H112 C92 0.932 . S
H113 C93 0.930 . S
H114 C94 0.929 . S
H115 C96 0.930 . S
H116 C98 0.932 . S
H117 C99 0.929 . S
H118 C100 0.928 . S
H119 C102 0.932 . S
C120 C121 1.264 . S
C120 C125 1.479 . S
C120 C130 1.465 . S
C121 C120 1.264 . S
C121 C123 1.339 . S
C121 H148 0.931 . S
C122 C123 1.395 . S
C122 C124 1.320 . S
C123 C121 1.339 . S
C123 C122 1.395 . S
C123 H149 0.929 . S
C124 C122 1.320 . S
C124 C125 1.405 . S
C124 H150 0.930 . S
C125 C120 1.479 . S
C125 C124 1.405 . S
C125 H151 0.931 . S
U126 O127 2.454 . S
U126 O128 2.458 . S
U126 C129 2.984 . S
U126 C130 2.847 . S
U126 C143 2.882 . S
U126 O144 2.441 . S
U126 O145 2.420 . S
U126 O146 2.455 . S
U126 O147 2.449 . S
O127 U126 2.454 . S
O127 C129 1.353 . S
O128 U126 2.458 . S
O128 C129 1.286 . S
C129 U126 2.984 . S
C129 O127 1.353 . S
C129 O128 1.286 . S
C129 C131 1.363 . S
C130 C120 1.465 . S
C130 U126 2.847 . S
C130 O144 1.249 . S
C130 O145 1.202 . S
C131 C129 1.363 . S
C131 C133 1.408 . S
C131 C136 1.342 . S
C132 C133 1.310 . S
C132 C135 1.461 . S
C132 H152 0.932 . S
C133 C131 1.408 . S
C133 C132 1.310 . S
C133 H153 0.930 . S
C134 C135 1.474 . S
C134 C136 1.285 . S
C134 H154 0.929 . S
C135 C132 1.461 . S
C135 C134 1.474 . S
C136 C131 1.342 . S
C136 C134 1.285 . S
C136 H155 0.930 . S
C137 C140 1.424 . S
C137 C142 1.245 . S
C137 C143 1.428 . S
C138 C141 1.260 . S
C138 C142 1.477 . S
C138 H156 0.932 . S
C139 C140 1.384 . S
C139 C141 1.479 . S
C139 H157 0.929 . S
C140 C137 1.424 . S
C140 C139 1.384 . S
C140 H158 0.928 . S
C141 C138 1.260 . S
C141 C139 1.479 . S
C142 C137 1.245 . S
C142 C138 1.477 . S
C142 H159 0.932 . S
C143 U126 2.882 . S
C143 C137 1.428 . S
C143 O146 1.301 . S
C143 O147 1.282 . S
O144 U126 2.441 . S
O144 C130 1.249 . S
O145 U126 2.420 . S
O145 C130 1.202 . S
O146 U126 2.455 . S
O146 C143 1.301 . S
O147 U126 2.449 . S
O147 C143 1.282 . S
H148 C121 0.931 . S
H149 C123 0.929 . S
H150 C124 0.930 . S
H151 C125 0.931 . S
H152 C132 0.932 . S
H153 C133 0.930 . S
H154 C134 0.929 . S
H155 C136 0.930 . S
H156 C138 0.932 . S
H157 C139 0.929 . S
H158 C140 0.928 . S
H159 C142 0.932 . S
C160 C161 1.264 . S
C160 C165 1.479 . S
C160 C170 1.465 . S
C161 C160 1.264 . S
C161 C163 1.339 . S
C161 H188 0.931 . S
C162 C163 1.395 . S
C162 C164 1.320 . S
C163 C161 1.339 . S
C163 C162 1.395 . S
C163 H189 0.929 . S
C164 C162 1.320 . S
C164 C165 1.405 . S
C164 H190 0.930 . S
C165 C160 1.479 . S
C165 C164 1.405 . S
C165 H191 0.931 . S
U166 O167 2.454 . S
U166 O168 2.458 . S
U166 C169 2.984 . S
U166 C170 2.847 . S
U166 C183 2.882 . S
U166 O184 2.441 . S
U166 O185 2.420 . S
U166 O186 2.455 . S
U166 O187 2.449 . S
O167 U166 2.454 . S
O167 C169 1.353 . S
O168 U166 2.458 . S
O168 C169 1.286 . S
C169 U166 2.984 . S
C169 O167 1.353 . S
C169 O168 1.286 . S
C169 C171 1.363 . S
C170 C160 1.465 . S
C170 U166 2.847 . S
C170 O184 1.249 . S
C170 O185 1.202 . S
C171 C169 1.363 . S
C171 C173 1.408 . S
C171 C176 1.342 . S
C172 C173 1.310 . S
C172 C175 1.461 . S
C172 H192 0.932 . S
C173 C171 1.408 . S
C173 C172 1.310 . S
C173 H193 0.930 . S
C174 C175 1.474 . S
C174 C176 1.285 . S
C174 H194 0.929 . S
C175 C172 1.461 . S
C175 C174 1.474 . S
C176 C171 1.342 . S
C176 C174 1.285 . S
C176 H195 0.930 . S
C177 C180 1.424 . S
C177 C182 1.245 . S
C177 C183 1.428 . S
C178 C181 1.260 . S
C178 C182 1.477 . S
C178 H196 0.932 . S
C179 C180 1.384 . S
C179 C181 1.479 . S
C179 H197 0.929 . S
C180 C177 1.424 . S
C180 C179 1.384 . S
C180 H198 0.928 . S
C181 C178 1.260 . S
C181 C179 1.479 . S
C182 C177 1.245 . S
C182 C178 1.477 . S
C182 H199 0.932 . S
C183 U166 2.882 . S
C183 C177 1.428 . S
C183 O186 1.301 . S
C183 O187 1.282 . S
O184 U166 2.441 . S
O184 C170 1.249 . S
O185 U166 2.420 . S
O185 C170 1.202 . S
O186 U166 2.455 . S
O186 C183 1.301 . S
O187 U166 2.449 . S
O187 C183 1.282 . S
H188 C161 0.931 . S
H189 C163 0.929 . S
H190 C164 0.930 . S
H191 C165 0.931 . S
H192 C172 0.932 . S
H193 C173 0.930 . S
H194 C174 0.929 . S
H195 C176 0.930 . S
H196 C178 0.932 . S
H197 C179 0.929 . S
H198 C180 0.928 . S
H199 C182 0.932 . S
C200 C201 1.264 . S
C200 C205 1.479 . S
C200 C210 1.465 . S
C201 C200 1.264 . S
C201 C203 1.339 . S
C201 H228 0.931 . S
C202 C203 1.395 . S
C202 C204 1.320 . S
C203 C201 1.339 . S
C203 C202 1.395 . S
C203 H229 0.929 . S
C204 C202 1.320 . S
C204 C205 1.405 . S
C204 H230 0.930 . S
C205 C200 1.479 . S
C205 C204 1.405 . S
C205 H231 0.931 . S
U206 O207 2.454 . S
U206 O208 2.458 . S
U206 C209 2.984 . S
U206 C210 2.847 . S
U206 C223 2.882 . S
U206 O224 2.441 . S
U206 O225 2.420 . S
U206 O226 2.455 . S
U206 O227 2.449 . S
O207 U206 2.454 . S
O207 C209 1.353 . S
O208 U206 2.458 . S
O208 C209 1.286 . S
C209 U206 2.984 . S
C209 O207 1.353 . S
C209 O208 1.286 . S
C209 C211 1.363 . S
C210 C200 1.465 . S
C210 U206 2.847 . S
C210 O224 1.249 . S
C210 O225 1.202 . S
C211 C209 1.363 . S
C211 C213 1.408 . S
C211 C216 1.342 . S
C212 C213 1.310 . S
C212 C215 1.461 . S
C212 H232 0.932 . S
C213 C211 1.408 . S
C213 C212 1.310 . S
C213 H233 0.930 . S
C214 C215 1.474 . S
C214 C216 1.285 . S
C214 H234 0.929 . S
C215 C212 1.461 . S
C215 C214 1.474 . S
C216 C211 1.342 . S
C216 C214 1.285 . S
C216 H235 0.930 . S
C217 C220 1.424 . S
C217 C222 1.245 . S
C217 C223 1.428 . S
C218 C221 1.260 . S
C218 C222 1.477 . S
C218 H236 0.932 . S
C219 C220 1.384 . S
C219 C221 1.479 . S
C219 H237 0.929 . S
C220 C217 1.424 . S
C220 C219 1.384 . S
C220 H238 0.928 . S
C221 C218 1.260 . S
C221 C219 1.479 . S
C222 C217 1.245 . S
C222 C218 1.477 . S
C222 H239 0.932 . S
C223 U206 2.882 . S
C223 C217 1.428 . S
C223 O226 1.301 . S
C223 O227 1.282 . S
O224 U206 2.441 . S
O224 C210 1.249 . S
O225 U206 2.420 . S
O225 C210 1.202 . S
O226 U206 2.455 . S
O226 C223 1.301 . S
O227 U206 2.449 . S
O227 C223 1.282 . S
H228 C201 0.931 . S
H229 C203 0.929 . S
H230 C204 0.930 . S
H231 C205 0.931 . S
H232 C212 0.932 . S
H233 C213 0.930 . S
H234 C214 0.929 . S
H235 C216 0.930 . S
H236 C218 0.932 . S
H237 C219 0.929 . S
H238 C220 0.928 . S
H239 C222 0.932 . S
C240 C241 1.264 . S
C240 C245 1.479 . S
C240 C250 1.465 . S
C241 C240 1.264 . S
C241 C243 1.339 . S
C241 H268 0.931 . S
C242 C243 1.395 . S
C242 C244 1.320 . S
C243 C241 1.339 . S
C243 C242 1.395 . S
C243 H269 0.929 . S
C244 C242 1.320 . S
C244 C245 1.405 . S
C244 H270 0.930 . S
C245 C240 1.479 . S
C245 C244 1.405 . S
C245 H271 0.931 . S
U246 O247 2.454 . S
U246 O248 2.458 . S
U246 C249 2.984 . S
U246 C250 2.847 . S
U246 C263 2.882 . S
U246 O264 2.441 . S
U246 O265 2.420 . S
U246 O266 2.455 . S
U246 O267 2.449 . S
O247 U246 2.454 . S
O247 C249 1.353 . S
O248 U246 2.458 . S
O248 C249 1.286 . S
C249 U246 2.984 . S
C249 O247 1.353 . S
C249 O248 1.286 . S
C249 C251 1.363 . S
C250 C240 1.465 . S
C250 U246 2.847 . S
C250 O264 1.249 . S
C250 O265 1.202 . S
C251 C249 1.363 . S
C251 C253 1.408 . S
C251 C256 1.342 . S
C252 C253 1.310 . S
C252 C255 1.461 . S
C252 H272 0.932 . S
C253 C251 1.408 . S
C253 C252 1.310 . S
C253 H273 0.930 . S
C254 C255 1.474 . S
C254 C256 1.285 . S
C254 H274 0.929 . S
C255 C252 1.461 . S
C255 C254 1.474 . S
C256 C251 1.342 . S
C256 C254 1.285 . S
C256 H275 0.930 . S
C257 C260 1.424 . S
C257 C262 1.245 . S
C257 C263 1.428 . S
C258 C261 1.260 . S
C258 C262 1.477 . S
C258 H276 0.932 . S
C259 C260 1.384 . S
C259 C261 1.479 . S
C259 H277 0.929 . S
C260 C257 1.424 . S
C260 C259 1.384 . S
C260 H278 0.928 . S
C261 C258 1.260 . S
C261 C259 1.479 . S
C262 C257 1.245 . S
C262 C258 1.477 . S
C262 H279 0.932 . S
C263 U246 2.882 . S
C263 C257 1.428 . S
C263 O266 1.301 . S
C263 O267 1.282 . S
O264 U246 2.441 . S
O264 C250 1.249 . S
O265 U246 2.420 . S
O265 C250 1.202 . S
O266 U246 2.455 . S
O266 C263 1.301 . S
O267 U246 2.449 . S
O267 C263 1.282 . S
H268 C241 0.931 . S
H269 C243 0.929 . S
H270 C244 0.930 . S
H271 C245 0.931 . S
H272 C252 0.932 . S
H273 C253 0.930 . S
H274 C254 0.929 . S
H275 C256 0.930 . S
H276 C258 0.932 . S
H277 C259 0.929 . S
H278 C260 0.928 . S
H279 C262 0.932 . S
C280 C281 1.264 . S
C280 C285 1.479 . S
C280 C290 1.465 . S
C281 C280 1.264 . S
C281 C283 1.339 . S
C281 H308 0.931 . S
C282 C283 1.395 . S
C282 C284 1.320 . S
C283 C281 1.339 . S
C283 C282 1.395 . S
C283 H309 0.929 . S
C284 C282 1.320 . S
C284 C285 1.405 . S
C284 H310 0.930 . S
C285 C280 1.479 . S
C285 C284 1.405 . S
C285 H311 0.931 . S
U286 O287 2.454 . S
U286 O288 2.458 . S
U286 C289 2.984 . S
U286 C290 2.847 . S
U286 C303 2.882 . S
U286 O304 2.441 . S
U286 O305 2.420 . S
U286 O306 2.455 . S
U286 O307 2.449 . S
O287 U286 2.454 . S
O287 C289 1.353 . S
O288 U286 2.458 . S
O288 C289 1.286 . S
C289 U286 2.984 . S
C289 O287 1.353 . S
C289 O288 1.286 . S
C289 C291 1.363 . S
C290 C280 1.465 . S
C290 U286 2.847 . S
C290 O304 1.249 . S
C290 O305 1.202 . S
C291 C289 1.363 . S
C291 C293 1.408 . S
C291 C296 1.342 . S
C292 C293 1.310 . S
C292 C295 1.461 . S
C292 H312 0.932 . S
C293 C291 1.408 . S
C293 C292 1.310 . S
C293 H313 0.930 . S
C294 C295 1.474 . S
C294 C296 1.285 . S
C294 H314 0.929 . S
C295 C292 1.461 . S
C295 C294 1.474 . S
C296 C291 1.342 . S
C296 C294 1.285 . S
C296 H315 0.930 . S
C297 C300 1.424 . S
C297 C302 1.245 . S
C297 C303 1.428 . S
C298 C301 1.260 . S
C298 C302 1.477 . S
C298 H316 0.932 . S
C299 C300 1.384 . S
C299 C301 1.479 . S
C299 H317 0.929 . S
C300 C297 1.424 . S
C300 C299 1.384 . S
C300 H318 0.928 . S
C301 C298 1.260 . S
C301 C299 1.479 . S
C302 C297 1.245 . S
C302 C298 1.477 . S
C302 H319 0.932 . S
C303 U286 2.882 . S
C303 C297 1.428 . S
C303 O306 1.301 . S
C303 O307 1.282 . S
O304 U286 2.441 . S
O304 C290 1.249 . S
O305 U286 2.420 . S
O305 C290 1.202 . S
O306 U286 2.455 . S
O306 C303 1.301 . S
O307 U286 2.449 . S
O307 C303 1.282 . S
H308 C281 0.931 . S
H309 C283 0.929 . S
H310 C284 0.930 . S
H311 C285 0.931 . S
H312 C292 0.932 . S
H313 C293 0.930 . S
H314 C294 0.929 . S
H315 C296 0.930 . S
H316 C298 0.932 . S
H317 C299 0.929 . S
H318 C300 0.928 . S
H319 C302 0.932 . S
C320 C321 1.363 . S
C320 C326 1.379 . S
C320 N328 1.356 . S
C321 C320 1.363 . S
C321 C327 1.363 1_565 S
C322 C323 1.363 . S
C322 C327 1.379 . S
C322 N329 1.356 . S
C323 C322 1.363 . S
C323 C326 1.363 1_545 S
N324 C326 1.356 1_545 S
N324 H336 0.984 1_545 S
N324 H337 0.985 . S
N325 C327 1.356 1_565 S
N325 H330 0.984 . S
N325 H331 0.985 1_565 S
C326 C320 1.379 . S
C326 C323 1.363 1_565 S
C326 N324 1.356 1_565 S
C327 C321 1.363 1_545 S
C327 C322 1.379 . S
C327 N325 1.356 1_545 S
N328 C320 1.356 . S
N328 H334 0.984 . S
N328 H335 0.984 . S
N329 C322 1.356 . S
N329 H332 0.984 . S
N329 H333 0.985 . S
H330 N325 0.984 . S
H331 N325 0.985 1_545 S
H332 N329 0.984 . S
H333 N329 0.985 . S
H334 N328 0.984 . S
H335 N328 0.984 . S
H336 N324 0.984 1_565 S
H337 N324 0.985 . S
C338 C339 1.363 . S
C338 C344 1.379 . S
C338 N346 1.356 . S
C339 C338 1.363 . S
C339 C345 1.363 . S
C340 C341 1.363 . S
C340 C345 1.379 . S
C340 N347 1.356 . S
C341 C340 1.363 . S
C341 C344 1.363 . S
N342 C344 1.356 . S
N342 H354 0.984 . S
N342 H355 0.985 . S
N343 C345 1.356 . S
N343 H348 0.984 . S
N343 H349 0.985 . S
C344 C338 1.379 . S
C344 C341 1.363 . S
C344 N342 1.356 . S
C345 C339 1.363 . S
C345 C340 1.379 . S
C345 N343 1.356 . S
N346 C338 1.356 . S
N346 H352 0.984 . S
N346 H353 0.984 . S
N347 C340 1.356 . S
N347 H350 0.984 . S
N347 H351 0.985 . S
H348 N343 0.984 . S
H349 N343 0.985 . S
H350 N347 0.984 . S
H351 N347 0.985 . S
H352 N346 0.984 . S
H353 N346 0.984 . S
H354 N342 0.984 . S
H355 N342 0.985 . S
C356 C357 1.363 1_545 S
C356 C362 1.379 . S
C356 N364 1.356 . S
C357 C356 1.363 1_565 S
C357 C363 1.363 . S
C358 C359 1.363 1_565 S
C358 C363 1.379 . S
C358 N365 1.356 . S
C359 C358 1.363 1_545 S
C359 C362 1.363 . S
N360 C362 1.356 . S
N360 H372 0.984 . S
N360 H373 0.985 . S
N361 C363 1.356 . S
N361 H366 0.984 . S
N361 H367 0.985 . S
C362 C356 1.379 . S
C362 C359 1.363 . S
C362 N360 1.356 . S
C363 C357 1.363 . S
C363 C358 1.379 . S
C363 N361 1.356 . S
N364 C356 1.356 . S
N364 H370 0.984 . S
N364 H371 0.984 1_545 S
N365 C358 1.356 . S
N365 H368 0.984 1_565 S
N365 H369 0.985 . S
H366 N361 0.984 . S
H367 N361 0.985 . S
H368 N365 0.984 1_545 S
H369 N365 0.985 . S
H370 N364 0.984 . S
H371 N364 0.984 1_565 S
H372 N360 0.984 . S
H373 N360 0.985 . S
C374 C375 1.363 . S
C374 C380 1.379 1_554 S
C374 N382 1.356 . S
C375 C374 1.363 . S
C375 C381 1.363 . S
C376 C377 1.363 1_554 S
C376 C381 1.379 . S
C376 N383 1.356 . S
C377 C376 1.363 1_556 S
C377 C380 1.363 . S
N378 C380 1.356 . S
N378 H390 0.984 . S
N378 H391 0.985 . S
N379 C381 1.356 . S
N379 H384 0.984 . S
N379 H385 0.985 . S
C380 C374 1.379 1_556 S
C380 C377 1.363 . S
C380 N378 1.356 . S
C381 C375 1.363 . S
C381 C376 1.379 . S
C381 N379 1.356 . S
N382 C374 1.356 . S
N382 H388 0.965 1_554 S
N382 H389 0.984 . S
N383 C376 1.356 . S
N383 H386 0.984 1_554 S
N383 H387 0.985 . S
H384 N379 0.984 . S
H385 N379 0.985 . S
H386 N383 0.984 1_556 S
H387 N383 0.985 . S
H388 N382 0.965 1_556 S
H389 N382 0.984 . S
H390 N378 0.984 . S
H391 N378 0.985 . S
C392 C393 1.363 . S
C392 C398 1.379 1_655 S
C392 N400 1.356 . S
C393 C392 1.363 . S
C393 C399 1.363 . S
C394 C395 1.368 . S
C394 C399 1.373 1_455 S
C394 N401 1.358 . S
C395 C394 1.368 . S
C395 C398 1.363 . S
N396 C398 1.356 . S
N396 H408 0.984 . S
N396 H409 0.985 . S
N397 C399 1.356 . S
N397 H402 0.984 . S
N397 H403 0.985 . S
C398 C392 1.379 1_455 S
C398 C395 1.363 . S
C398 N396 1.356 . S
C399 C393 1.363 . S
C399 C394 1.373 1_655 S
C399 N397 1.356 . S
N400 C392 1.356 . S
N400 H406 0.984 1_655 S
N400 H407 0.984 . S
N401 C394 1.358 . S
N401 H404 0.984 . S
N401 H405 0.985 1_455 S
H402 N397 0.984 . S
H403 N397 0.985 . S
H404 N401 0.984 . S
H405 N401 0.985 1_655 S
H406 N400 0.984 1_455 S
H407 N400 0.984 . S
H408 N396 0.984 . S
H409 N396 0.985 . S
C410 C411 1.363 . S
C410 C416 1.379 . S
C410 N418 1.356 . S
C411 C410 1.363 . S
C411 C417 1.363 . S
C412 C413 1.363 . S
C412 C417 1.379 . S
C412 N419 1.356 . S
C413 C412 1.363 . S
C413 C416 1.363 . S
N414 C416 1.356 . S
N414 H426 0.984 . S
N414 H427 0.985 . S
N415 C417 1.356 . S
N415 H420 0.984 . S
N415 H421 0.985 . S
C416 C410 1.379 . S
C416 C413 1.363 . S
C416 N414 1.356 . S
C417 C411 1.363 . S
C417 C412 1.379 . S
C417 N415 1.356 . S
N418 C410 1.356 . S
N418 H424 0.984 . S
N418 H425 0.984 . S
N419 C412 1.356 . S
N419 H422 0.984 . S
N419 H423 0.985 . S
H420 N415 0.984 . S
H421 N415 0.985 . S
H422 N419 0.984 . S
H423 N419 0.985 . S
H424 N418 0.984 . S
H425 N418 0.984 . S
H426 N414 0.984 . S
H427 N414 0.985 . S
C428 C429 1.335 1_655 S
C428 C434 1.406 . S
C428 N436 1.348 1_655 S
C429 C428 1.335 1_455 S
C429 C435 1.363 . S
C430 C431 1.378 . S
C430 C435 1.364 1_655 S
C430 N437 1.361 . S
C431 C430 1.378 . S
C431 C434 1.363 . S
N432 C434 1.356 . S
N432 H444 0.984 . S
N432 H445 0.985 . S
N433 C435 1.356 . S
N433 H438 0.984 . S
N433 H439 0.985 . S
C434 C428 1.406 . S
C434 C431 1.363 . S
C434 N432 1.356 . S
C435 C429 1.363 . S
C435 C430 1.364 1_455 S
C435 N433 1.356 . S
N436 C428 1.348 1_455 S
N436 H442 0.984 1_455 S
N436 H443 0.984 . S
N437 C430 1.361 . S
N437 H440 0.984 . S
N437 H441 0.985 1_655 S
H438 N433 0.984 . S
H439 N433 0.985 . S
H440 N437 0.984 . S
H441 N437 0.985 1_455 S
H442 N436 0.984 1_655 S
H443 N436 0.984 . S
H444 N432 0.984 . S
H445 N432 0.985 . S
C446 C447 1.363 . S
C446 C452 1.379 . S
C446 N454 1.356 . S
C447 C446 1.363 . S
C447 C453 1.363 . S
C448 C449 1.363 . S
C448 C453 1.379 . S
C448 N455 1.356 . S
C449 C448 1.363 . S
C449 C452 1.363 . S
N450 C452 1.356 . S
N450 H462 0.984 . S
N450 H463 0.985 . S
N451 C453 1.356 . S
N451 H456 0.984 . S
N451 H457 0.985 . S
C452 C446 1.379 . S
C452 C449 1.363 . S
C452 N450 1.356 . S
C453 C447 1.363 . S
C453 C448 1.379 . S
C453 N451 1.356 . S
N454 C446 1.356 . S
N454 H460 0.984 . S
N454 H461 0.984 . S
N455 C448 1.356 . S
N455 H458 0.984 . S
N455 H459 0.985 . S
H456 N451 0.984 . S
H457 N451 0.985 . S
H458 N455 0.984 . S
H459 N455 0.985 . S
H460 N454 0.984 . S
H461 N454 0.984 . S
H462 N450 0.984 . S
H463 N450 0.985 . S
C464 C465 1.363 . S
C464 C470 1.379 . S
C464 N472 1.356 . S
C465 C464 1.363 . S
C465 C471 1.363 . S
C466 C467 1.363 . S
C466 C471 1.379 . S
C466 N473 1.356 . S
C467 C466 1.363 . S
C467 C470 1.363 . S
N468 C470 1.356 . S
N468 H480 0.984 . S
N468 H481 0.985 . S
N469 C471 1.356 . S
N469 H474 0.984 . S
N469 H475 0.985 . S
C470 C464 1.379 . S
C470 C467 1.363 . S
C470 N468 1.356 . S
C471 C465 1.363 . S
C471 C466 1.379 . S
C471 N469 1.356 . S
N472 C464 1.356 . S
N472 H478 0.984 . S
N472 H479 0.984 . S
N473 C466 1.356 . S
N473 H476 0.984 . S
N473 H477 0.985 . S
H474 N469 0.984 . S
H475 N469 0.985 . S
H476 N473 0.984 . S
H477 N473 0.985 . S
H478 N472 0.984 . S
H479 N472 0.984 . S
H480 N468 0.984 . S
H481 N468 0.985 . S
C482 C483 1.363 . S
C482 C488 1.379 1_554 S
C482 N490 1.356 . S
C483 C482 1.363 . S
C483 C489 1.363 1_554 S
C484 C485 1.363 . S
C484 C489 1.379 . S
C484 N491 1.356 . S
C485 C484 1.363 . S
C485 C488 1.363 . S
N486 C488 1.356 . S
N486 H498 0.984 . S
N486 H499 0.985 . S
N487 C489 1.356 1_554 S
N487 H492 0.984 . S
N487 H493 0.976 1_554 S
C488 C482 1.379 1_556 S
C488 C485 1.363 . S
C488 N486 1.356 . S
C489 C483 1.363 1_556 S
C489 C484 1.379 . S
C489 N487 1.356 1_556 S
N490 C482 1.356 . S
N490 H496 0.984 . S
N490 H497 0.984 . S
N491 C484 1.356 . S
N491 H494 0.984 . S
N491 H495 0.985 . S
H492 N487 0.984 . S
H493 N487 0.976 1_556 S
H494 N491 0.984 . S
H495 N491 0.985 . S
H496 N490 0.984 . S
H497 N490 0.984 . S
H498 N486 0.984 . S
H499 N486 0.985 . S
C500 C501 1.363 . S
C500 C506 1.379 . S
C500 N508 1.356 . S
C501 C500 1.363 . S
C501 C507 1.363 . S
C502 C503 1.363 . S
C502 C507 1.379 . S
C502 N509 1.356 . S
C503 C502 1.363 . S
C503 C506 1.363 . S
N504 C506 1.356 . S
N504 H516 0.984 . S
N504 H517 0.985 . S
N505 C507 1.356 . S
N505 H510 0.984 . S
N505 H511 0.985 . S
C506 C500 1.379 . S
C506 C503 1.363 . S
C506 N504 1.356 . S
C507 C501 1.363 . S
C507 C502 1.379 . S
C507 N505 1.356 . S
N508 C500 1.356 . S
N508 H514 0.984 . S
N508 H515 0.984 . S
N509 C502 1.356 . S
N509 H512 0.984 . S
N509 H513 0.985 . S
H510 N505 0.984 . S
H511 N505 0.985 . S
H512 N509 0.984 . S
H513 N509 0.985 . S
H514 N508 0.984 . S
H515 N508 0.984 . S
H516 N504 0.984 . S
H517 N504 0.985 . S
C518 C519 1.363 . S
C518 C524 1.379 . S
C518 N526 1.356 . S
C519 C518 1.363 . S
C519 C525 1.363 . S
C520 C521 1.363 . S
C520 C525 1.379 . S
C520 N527 1.356 . S
C521 C520 1.363 . S
C521 C524 1.363 . S
N522 C524 1.356 . S
N522 H534 0.984 . S
N522 H535 0.985 . S
N523 C525 1.356 . S
N523 H528 0.984 . S
N523 H529 0.985 . S
C524 C518 1.379 . S
C524 C521 1.363 . S
C524 N522 1.356 . S
C525 C519 1.363 . S
C525 C520 1.379 . S
C525 N523 1.356 . S
N526 C518 1.356 . S
N526 H532 0.984 . S
N526 H533 0.984 . S
N527 C520 1.356 . S
N527 H530 0.984 . S
N527 H531 0.985 . S
H528 N523 0.984 . S
H529 N523 0.985 . S
H530 N527 0.984 . S
H531 N527 0.985 . S
H532 N526 0.984 . S
H533 N526 0.984 . S
H534 N522 0.984 . S
H535 N522 0.985 . S
C321 C42 1.487 . S
C323 C2 1.487 . S
C339 C61 1.487 . S
C341 C95 1.502 . S
C357 C82 1.487 . S
C359 C122 1.487 . S
C375 C21 1.487 . S
C377 C135 1.502 . S
C393 C221 1.487 . S
C395 C15 1.502 . S
C411 C141 1.487 . S
C413 C175 1.502 . S
C429 C55 1.502 . S
C431 C261 1.487 . S
C447 C295 1.502 . S
C449 C101 1.487 . S
C465 C282 1.487 . S
C467 C162 1.487 . S
C483 C215 1.502 . S
C485 C181 1.487 . S
C501 C202 1.487 . S
C503 C242 1.487 . S
C519 C255 1.502 . S
C521 C301 1.487 . S
