# Generated by pormake.
# Topology skc, (5)-cn, num edge types: 1
# Building blocks:
#     Node 0, Type 0, BuildingBlock: BEQFEK_clean_sbu_0, # of connection points: 5
#     Node 1, Type 0, BuildingBlock: BEQFEK_clean_sbu_0, # of connection points: 5
#     Node 2, Type 0, BuildingBlock: BEQFEK_clean_sbu_0, # of connection points: 5
#     Node 3, Type 0, BuildingBlock: BEQFEK_clean_sbu_0, # of connection points: 5
#     Node 4, Type 0, BuildingBlock: BEQFEK_clean_sbu_0, # of connection points: 5
#     Node 5, Type 0, BuildingBlock: BEQFEK_clean_sbu_0, # of connection points: 5
#     Node 6, Type 0, BuildingBlock: BEQFEK_clean_sbu_0, # of connection points: 5
#     Node 7, Type 0, BuildingBlock: BEQFEK_clean_sbu_0, # of connection points: 5
#     Edge 8, Type (0, 0), BuildingBlock: TEMPAE_clean_linker_10, # of connection points: 2
#     Edge 9, Type (0, 0), BuildingBlock: TEMPAE_clean_linker_10, # of connection points: 2
#     Edge 10, Type (0, 0), BuildingBlock: TEMPAE_clean_linker_10, # of connection points: 2
#     Edge 11, Type (0, 0), BuildingBlock: TEMPAE_clean_linker_10, # of connection points: 2
#     Edge 12, Type (0, 0), BuildingBlock: TEMPAE_clean_linker_10, # of connection points: 2
#     Edge 13, Type (0, 0), BuildingBlock: TEMPAE_clean_linker_10, # of connection points: 2
#     Edge 14, Type (0, 0), BuildingBlock: TEMPAE_clean_linker_10, # of connection points: 2
#     Edge 15, Type (0, 0), BuildingBlock: TEMPAE_clean_linker_10, # of connection points: 2
#     Edge 16, Type (0, 0), BuildingBlock: TEMPAE_clean_linker_10, # of connection points: 2
#     Edge 17, Type (0, 0), BuildingBlock: TEMPAE_clean_linker_10, # of connection points: 2
#     Edge 18, Type (0, 0), BuildingBlock: TEMPAE_clean_linker_10, # of connection points: 2
#     Edge 19, Type (0, 0), BuildingBlock: TEMPAE_clean_linker_10, # of connection points: 2
#     Edge 20, Type (0, 0), BuildingBlock: TEMPAE_clean_linker_10, # of connection points: 2
#     Edge 21, Type (0, 0), BuildingBlock: TEMPAE_clean_linker_10, # of connection points: 2
#     Edge 22, Type (0, 0), BuildingBlock: TEMPAE_clean_linker_10, # of connection points: 2
#     Edge 23, Type (0, 0), BuildingBlock: TEMPAE_clean_linker_10, # of connection points: 2
#     Edge 24, Type (0, 0), BuildingBlock: TEMPAE_clean_linker_10, # of connection points: 2
#     Edge 25, Type (0, 0), BuildingBlock: TEMPAE_clean_linker_10, # of connection points: 2
#     Edge 26, Type (0, 0), BuildingBlock: TEMPAE_clean_linker_10, # of connection points: 2
#     Edge 27, Type (0, 0), BuildingBlock: TEMPAE_clean_linker_10, # of connection points: 2
# Relax obj value: 0.153
# Max RMSD: 0.194
# Mean RMSD: 0.194
data_MOF--net-skc--node1-BEQFEK_clean_sbu_0--edge1-TEMPAE_clean_linker_10
_symmetry_space_group_name_H-M    P1
_symmetry_Int_Tables_number       1
_symmetry_cell_setting            triclinic
loop_
_symmetry_equiv_pos_as_xyz
'x, y, z'
_cell_length_a     46.748082
_cell_length_b     22.347351
_cell_length_c     24.928044
_cell_angle_alpha  90.022024
_cell_angle_beta   90.015414
_cell_angle_gamma 90.004205
loop_
_atom_site_label
_atom_site_type_symbol
_atom_site_fract_x
_atom_site_fract_y
_atom_site_fract_z
_atom_type_partial_charge
Co0 Co 0.09962 0.2116 0.11914 0.0
Co1 Co 0.1317 0.28913 0.03294 0.0
C2 C 0.09565 0.1797 0.00511 0.0
O3 O 0.09035 0.16581 0.05363 0.0
O4 O 0.11068 0.22549 0.9934 0.0
C5 C 0.05987 0.14907 0.18618 0.0
O6 O 0.04361 0.14894 0.14318 0.0
C7 C 0.16803 0.31381 0.93815 0.0
C8 C 0.18712 0.40068 0.96057 0.0
C9 C 0.18816 0.35611 0.92188 0.0
N10 N 0.15664 0.33169 0.98512 0.0
N11 N 0.16765 0.38436 0.99749 0.0
C12 C 0.15784 0.25998 0.90787 0.0
H13 H 0.13424 0.25718 0.91015 0.0
H14 H 0.16697 0.21897 0.92622 0.0
H15 H 0.16368 0.26231 0.86483 0.0
C16 C 0.15707 0.20867 0.16679 0.0
N17 N 0.13923 0.22411 0.1268 0.0
N18 N 0.15319 0.25623 0.09116 0.0
C19 C 0.18068 0.2616 0.10737 0.0
C20 C 0.18388 0.2321 0.15605 0.0
C21 C 0.14835 0.17313 0.21497 0.0
H22 H 0.13629 0.13289 0.20199 0.0
H23 H 0.16714 0.15888 0.23899 0.0
H24 H 0.13403 0.20074 0.24042 0.0
O25 O 0.07891 0.28862 0.11677 0.0
O26 O 0.1024 0.34637 0.0594 0.0
H27 H 0.19746 0.34635 0.08391 0.0
H28 H 0.22449 0.29083 0.09616 0.0
C29 C 0.20284 0.29832 0.0793 0.0
H30 H 0.20301 0.28713 0.03599 0.0
H31 H 0.16254 0.40829 0.03215 0.0
O32 O 0.08487 0.17099 0.1834 0.0
C33 C 0.08198 0.33826 0.09245 0.0
Co34 Co 0.89967 0.75958 0.13054 0.0
Co35 Co 0.86871 0.68135 0.04372 0.0
C36 C 0.90232 0.79431 0.01676 0.0
O37 O 0.90784 0.80769 0.0654 0.0
O38 O 0.88786 0.74777 0.00486 0.0
C39 C 0.93505 0.83346 0.20066 0.0
O40 O 0.94948 0.84815 0.15739 0.0
C41 C 0.82619 0.66522 0.95955 0.0
C42 C 0.82459 0.56701 0.94986 0.0
C43 C 0.81286 0.61985 0.93061 0.0
N44 N 0.84487 0.64027 0.99378 0.0
N45 N 0.84397 0.58158 0.98766 0.0
C46 C 0.82001 0.73092 0.95829 0.0
H47 H 0.83249 0.75186 0.92542 0.0
H48 H 0.82657 0.75218 0.99661 0.0
H49 H 0.79691 0.73914 0.95104 0.0
C50 C 0.84211 0.75588 0.17882 0.0
N51 N 0.86025 0.74297 0.13855 0.0
N52 N 0.84707 0.70922 0.10307 0.0
C53 C 0.82004 0.69925 0.11994 0.0
C54 C 0.81608 0.72845 0.16856 0.0
C55 C 0.84972 0.79352 0.22641 0.0
H56 H 0.86144 0.834 0.21301 0.0
H57 H 0.83042 0.80742 0.24913 0.0
H58 H 0.86398 0.76754 0.25329 0.0
O59 O 0.92213 0.68437 0.12561 0.0
O60 O 0.89931 0.62627 0.06746 0.0
H61 H 0.81039 0.61733 0.07901 0.0
H62 H 0.7813 0.64616 0.11935 0.0
C63 C 0.79928 0.65851 0.09248 0.0
H64 H 0.79049 0.68142 0.05664 0.0
H65 H 0.85635 0.55147 0.00969 0.0
O66 O 0.91352 0.79914 0.1965 0.0
C67 C 0.9199 0.63529 0.09995 0.0
Co68 Co 0.06178 0.81535 0.64279 0.0
Co69 Co 0.10025 0.7672 0.73634 0.0
C70 C 0.05085 0.85159 0.7563 0.0
O71 O 0.04479 0.85568 0.7065 0.0
O72 O 0.07175 0.81955 0.77256 0.0
C73 C 0.02223 0.87472 0.56719 0.0
O74 O 0.01024 0.9025 0.60783 0.0
C75 C 0.14058 0.76622 0.82811 0.0
C76 C 0.16045 0.67724 0.81748 0.0
C77 C 0.16134 0.72821 0.84907 0.0
N78 N 0.12825 0.73886 0.78594 0.0
N79 N 0.14 0.68546 0.7803 0.0
C80 C 0.13434 0.82937 0.84422 0.0
H81 H 0.11869 0.82915 0.87768 0.0
H82 H 0.12487 0.85441 0.81012 0.0
H83 H 0.15412 0.8521 0.85811 0.0
C84 C 0.11849 0.84616 0.59811 0.0
N85 N 0.10187 0.82592 0.63833 0.0
N86 N 0.11817 0.80685 0.67777 0.0
C87 C 0.14581 0.81534 0.66426 0.0
C88 C 0.147 0.84024 0.61317 0.0
C89 C 0.10706 0.86355 0.54416 0.0
H90 H 0.09293 0.82746 0.52894 0.0
H91 H 0.09394 0.90468 0.54828 0.0
H92 H 0.12427 0.8713 0.51442 0.0
O93 O 0.05232 0.72961 0.64652 0.0
O94 O 0.0799 0.69429 0.71132 0.0
H95 H 0.17232 0.75035 0.70285 0.0
H96 H 0.19099 0.81807 0.68396 0.0
C97 C 0.1706 0.79971 0.6996 0.0
H98 H 0.16697 0.81818 0.74024 0.0
H99 H 0.13455 0.65518 0.75009 0.0
O100 O 0.04358 0.84078 0.5752 0.0
C101 C 0.06103 0.68633 0.67524 0.0
Co102 Co 0.93979 0.17396 0.63492 0.0
Co103 Co 0.90461 0.23224 0.72807 0.0
C104 C 0.94821 0.1323 0.74587 0.0
O105 O 0.95425 0.12716 0.6962 0.0
O106 O 0.92953 0.16998 0.76213 0.0
C107 C 0.97472 0.10938 0.55472 0.0
O108 O 0.98674 0.07879 0.59367 0.0
C109 C 0.86049 0.23925 0.81289 0.0
C110 C 0.85862 0.33697 0.82619 0.0
C111 C 0.84669 0.28334 0.84283 0.0
N112 N 0.87955 0.26598 0.78038 0.0
N113 N 0.87841 0.3243 0.78881 0.0
C114 C 0.85462 0.17347 0.81191 0.0
H115 H 0.86245 0.15348 0.77387 0.0
H116 H 0.83138 0.16473 0.81655 0.0
H117 H 0.86615 0.15179 0.84561 0.0
C118 C 0.88176 0.15367 0.59255 0.0
N119 N 0.89932 0.17328 0.63149 0.0
N120 N 0.8843 0.20179 0.66799 0.0
C121 C 0.85672 0.20385 0.65205 0.0
C122 C 0.85407 0.1731 0.60355 0.0
C123 C 0.89152 0.11524 0.54683 0.0
H124 H 0.9084 0.084 0.56073 0.0
H125 H 0.87355 0.08892 0.52981 0.0
H126 H 0.90077 0.14405 0.51499 0.0
O127 O 0.95516 0.25681 0.64113 0.0
O128 O 0.9295 0.29835 0.70569 0.0
H129 H 0.81789 0.25638 0.6505 0.0
H130 H 0.8235 0.21271 0.71036 0.0
C131 C 0.83422 0.24047 0.67946 0.0
H132 H 0.84402 0.27978 0.69936 0.0
H133 H 0.8909 0.35566 0.7685 0.0
O134 O 0.95521 0.147 0.56548 0.0
C135 C 0.94917 0.3015 0.67069 0.0
Co136 Co 0.56008 0.68268 0.64951 0.0
Co137 Co 0.59726 0.73104 0.55426 0.0
C138 C 0.54888 0.64167 0.53849 0.0
O139 O 0.54301 0.63862 0.58837 0.0
O140 O 0.56921 0.67474 0.52135 0.0
C141 C 0.52211 0.6252 0.72849 0.0
O142 O 0.50982 0.59621 0.68884 0.0
C143 C 0.64025 0.72669 0.46713 0.0
C144 C 0.64691 0.82318 0.45245 0.0
C145 C 0.65573 0.76696 0.43564 0.0
N146 N 0.62336 0.75809 0.50058 0.0
N147 N 0.62735 0.81565 0.49131 0.0
C148 C 0.64232 0.65991 0.46837 0.0
H149 H 0.6334 0.64222 0.50647 0.0
H150 H 0.6649 0.64545 0.46388 0.0
H151 H 0.62963 0.64105 0.43475 0.0
C152 C 0.61729 0.65424 0.69238 0.0
N153 N 0.60038 0.67419 0.65255 0.0
N154 N 0.61639 0.69628 0.61392 0.0
C155 C 0.64413 0.69211 0.62856 0.0
C156 C 0.6456 0.66516 0.67876 0.0
C157 C 0.60634 0.62603 0.74282 0.0
H158 H 0.59742 0.66133 0.76928 0.0
H159 H 0.58891 0.59415 0.73303 0.0
H160 H 0.62356 0.60191 0.76454 0.0
O161 O 0.54919 0.768 0.64308 0.0
O162 O 0.57607 0.80303 0.57716 0.0
H163 H 0.66147 0.76208 0.57928 0.0
H164 H 0.68696 0.7286 0.62473 0.0
C165 C 0.66841 0.71961 0.59815 0.0
H166 H 0.67532 0.68839 0.5661 0.0
H167 H 0.61691 0.84994 0.5119 0.0
O168 O 0.54316 0.6595 0.71895 0.0
C169 C 0.55713 0.81087 0.61306 0.0
Co170 Co 0.43821 0.32622 0.63003 0.0
Co171 Co 0.40251 0.26471 0.53935 0.0
C172 C 0.44711 0.36176 0.51766 0.0
O173 O 0.45324 0.3694 0.56703 0.0
O174 O 0.42815 0.32385 0.50313 0.0
C175 C 0.47472 0.39102 0.70727 0.0
O176 O 0.48722 0.41839 0.66696 0.0
C177 C 0.35873 0.25769 0.45427 0.0
C178 C 0.35552 0.15981 0.44298 0.0
C179 C 0.34452 0.21373 0.42484 0.0
N180 N 0.37713 0.23062 0.48785 0.0
N181 N 0.37519 0.17219 0.48068 0.0
C182 C 0.3539 0.32385 0.45366 0.0
H183 H 0.36167 0.34428 0.49156 0.0
H184 H 0.33086 0.33405 0.44799 0.0
H185 H 0.36612 0.34382 0.41998 0.0
C186 C 0.38037 0.35068 0.67158 0.0
N187 N 0.39776 0.32897 0.6333 0.0
N188 N 0.38252 0.29929 0.59787 0.0
C189 C 0.35495 0.29869 0.61386 0.0
C190 C 0.35255 0.33158 0.66124 0.0
C191 C 0.39047 0.39006 0.71637 0.0
H192 H 0.40761 0.42026 0.70171 0.0
H193 H 0.37272 0.41747 0.73278 0.0
H194 H 0.39952 0.36186 0.74884 0.0
O195 O 0.45236 0.24222 0.62739 0.0
O196 O 0.42631 0.19818 0.56472 0.0
H197 H 0.31589 0.24697 0.6175 0.0
H198 H 0.32164 0.28764 0.55599 0.0
C199 C 0.33227 0.2612 0.58794 0.0
H200 H 0.34188 0.22079 0.56956 0.0
H201 H 0.3871 0.14063 0.50195 0.0
O202 O 0.45415 0.35528 0.69836 0.0
C203 C 0.44581 0.19608 0.60011 0.0
Co204 Co 0.59842 0.27751 0.14201 0.0
Co205 Co 0.63207 0.20521 0.23016 0.0
C206 C 0.59437 0.31307 0.2553 0.0
O207 O 0.58856 0.32479 0.2065 0.0
O208 O 0.61029 0.26894 0.268 0.0
C209 C 0.56214 0.35057 0.07314 0.0
O210 O 0.54905 0.36767 0.11719 0.0
C211 C 0.66926 0.18547 0.32519 0.0
C212 C 0.68896 0.09865 0.30466 0.0
C213 C 0.6898 0.14437 0.34226 0.0
N214 N 0.65782 0.16575 0.2788 0.0
N215 N 0.66923 0.11314 0.26759 0.0
C216 C 0.65877 0.23986 0.35427 0.0
H217 H 0.63522 0.24274 0.35108 0.0
H218 H 0.66816 0.2805 0.33574 0.0
H219 H 0.66418 0.23823 0.39755 0.0
C220 C 0.65589 0.28387 0.09446 0.0
N221 N 0.63827 0.26765 0.13457 0.0
N222 N 0.6528 0.2374 0.17074 0.0
C223 C 0.68036 0.23377 0.15466 0.0
C224 C 0.6831 0.26269 0.10556 0.0
C225 C 0.64668 0.31877 0.04621 0.0
H226 H 0.63367 0.35774 0.05904 0.0
H227 H 0.66528 0.33498 0.02269 0.0
H228 H 0.63316 0.28992 0.02032 0.0
O229 O 0.57884 0.19914 0.14702 0.0
O230 O 0.6034 0.14541 0.20598 0.0
H231 H 0.72453 0.20654 0.16581 0.0
H232 H 0.70341 0.21213 0.22628 0.0
C233 C 0.70305 0.19911 0.18338 0.0
H234 H 0.69804 0.15075 0.18058 0.0
H235 H 0.66416 0.08793 0.23365 0.0
O236 O 0.58318 0.31483 0.07629 0.0
C237 C 0.58271 0.1508 0.17304 0.0
Co238 Co 0.39782 0.7304 0.16523 0.0
Co239 Co 0.36934 0.81508 0.24967 0.0
C240 C 0.40146 0.70026 0.2792 0.0
O241 O 0.40605 0.68422 0.23094 0.0
O242 O 0.38813 0.74864 0.28992 0.0
C243 C 0.43593 0.66639 0.09665 0.0
O244 O 0.45288 0.66802 0.13868 0.0
C245 C 0.32453 0.83632 0.32861 0.0
C246 C 0.33028 0.93175 0.34919 0.0
C247 C 0.31372 0.88189 0.36038 0.0
N248 N 0.34626 0.85828 0.29943 0.0
N249 N 0.34964 0.91536 0.31188 0.0
C250 C 0.31585 0.77183 0.32886 0.0
H251 H 0.31495 0.75516 0.37077 0.0
H252 H 0.33103 0.74443 0.30506 0.0
H253 H 0.29418 0.76692 0.31141 0.0
C254 C 0.33942 0.73293 0.12047 0.0
N255 N 0.3585 0.7482 0.15852 0.0
N256 N 0.34671 0.78689 0.19158 0.0
C257 C 0.31997 0.7992 0.17424 0.0
C258 C 0.31441 0.76463 0.12921 0.0
C259 C 0.34594 0.69256 0.07415 0.0
H260 H 0.35656 0.65133 0.08893 0.0
H261 H 0.32632 0.68046 0.05156 0.0
H262 H 0.36097 0.71564 0.04662 0.0
O263 O 0.42127 0.80488 0.16676 0.0
O264 O 0.40021 0.86765 0.22331 0.0
H265 H 0.31355 0.88309 0.21473 0.0
H266 H 0.2856 0.86333 0.16763 0.0
C267 C 0.30075 0.84571 0.19803 0.0
H268 H 0.28802 0.82535 0.23076 0.0
H269 H 0.36527 0.94303 0.29519 0.0
O270 O 0.41081 0.68754 0.10053 0.0
C271 C 0.4202 0.85544 0.19035 0.0
C272 C 0.05974 0.43657 0.06743 0.0
C273 C 0.05996 0.38534 0.09995 0.0
C274 C 0.03726 0.47812 0.07042 0.0
C275 C 0.01452 0.4683 0.10691 0.0
C276 C 0.01513 0.41791 0.1412 0.0
C277 C 0.0378 0.37705 0.13729 0.0
C278 C 0.03737 0.5315 0.0333 0.0
C279 C 0.99138 0.40614 0.18089 0.0
C280 C 0.96617 0.59995 0.13965 0.0
C281 C 0.94295 0.58999 0.10499 0.0
C282 C 0.98942 0.56025 0.14134 0.0
C283 C 0.98949 0.50938 0.10755 0.0
C284 C 0.96583 0.49819 0.07351 0.0
C285 C 0.94283 0.53855 0.07269 0.0
C286 C 0.01418 0.57345 0.17843 0.0
C287 C 0.96509 0.44424 0.03701 0.0
H288 H 0.07672 0.44342 0.03848 0.0
H289 H 0.03779 0.33781 0.16283 0.0
H290 H 0.01889 0.52876 0.00548 0.0
H291 H 0.035 0.57345 0.05669 0.0
H292 H 0.05731 0.53433 0.00918 0.0
H293 H 0.99591 0.36691 0.20691 0.0
H294 H 0.98799 0.44591 0.20676 0.0
H295 H 0.97107 0.39784 0.15906 0.0
H296 H 0.96649 0.63947 0.16487 0.0
H297 H 0.92504 0.53039 0.04577 0.0
H298 H 0.03388 0.58101 0.15457 0.0
H299 H 0.01827 0.53456 0.20499 0.0
H300 H 0.01029 0.61352 0.2038 0.0
H301 H 0.98313 0.44643 0.00815 0.0
H302 H 0.94478 0.44106 0.01405 0.0
H303 H 0.9678 0.40269 0.0608 0.0
C304 C 0.95886 0.40746 0.69732 0.0
C305 C 0.96614 0.35733 0.66627 0.0
C306 C 0.97544 0.45967 0.69595 0.0
C307 C -2e-05 0.46194 0.66278 0.0
C308 C 0.00731 0.4119 0.63078 0.0
C309 C 0.99027 0.36017 0.63283 0.0
C310 C 0.96682 0.51227 0.73046 0.0
C311 C 0.03332 0.41279 0.59492 0.0
C312 C 0.02618 0.61813 0.62968 0.0
C313 C 0.04757 0.62669 0.6685 0.0
C314 C 0.01125 0.56386 0.62602 0.0
C315 C 0.01787 0.51692 0.66199 0.0
C316 C 0.04021 0.52427 0.69979 0.0
C317 C 0.05481 0.5791 0.70261 0.0
C318 C 0.98761 0.55767 0.58508 0.0
C319 C 0.04795 0.47506 0.73867 0.0
H320 H 0.94025 0.40586 0.72321 0.0
H321 H 0.99612 0.32165 0.60878 0.0
H322 H 0.98422 0.52302 0.75918 0.0
H323 H 0.96345 0.55242 0.70506 0.0
H324 H 0.94692 0.50354 0.75351 0.0
H325 H 0.03577 0.37063 0.57173 0.0
H326 H 0.03193 0.45073 0.56635 0.0
H327 H 0.05286 0.4197 0.61943 0.0
H328 H 0.02052 0.65442 0.60287 0.0
H329 H 0.07138 0.58512 0.73256 0.0
H330 H 0.96671 0.55385 0.60591 0.0
H331 H 0.99057 0.51628 0.56115 0.0
H332 H 0.98666 0.59647 0.55729 0.0
H333 H 0.02987 0.46728 0.76664 0.0
H334 H 0.0673 0.48603 0.7626 0.0
H335 H 0.05178 0.43256 0.71681 0.0
C336 C 0.52054 0.87834 0.65474 0.0
C337 C 0.54287 0.86989 0.61786 0.0
C338 C 0.50518 0.93225 0.65643 0.0
C339 C 0.51233 0.97882 0.62041 0.0
C340 C 0.5355 0.97147 0.58447 0.0
C341 C 0.55049 0.91711 0.58362 0.0
C342 C 0.48064 0.93854 0.69541 0.0
C343 C 0.54382 0.02024 0.54555 0.0
C344 C 0.45482 0.08857 0.57787 0.0
C345 C 0.46191 0.13959 0.60793 0.0
C346 C 0.47078 0.03572 0.58233 0.0
C347 C 0.49444 0.0337 0.61772 0.0
C348 C 0.50138 0.08448 0.64907 0.0
C349 C 0.48502 0.13687 0.64382 0.0
C350 C 0.46264 0.98238 0.54833 0.0
C351 C 0.52642 0.08385 0.68733 0.0
H352 H 0.51453 0.84227 0.68153 0.0
H353 H 0.56779 0.9112 0.55514 0.0
H354 H 0.48293 0.98029 0.71911 0.0
H355 H 0.4602 0.94176 0.67295 0.0
H356 H 0.47923 0.90007 0.72351 0.0
H357 H 0.56351 0.00902 0.52272 0.0
H358 H 0.52615 0.02778 0.51658 0.0
H359 H 0.54736 0.06295 0.56725 0.0
H360 H 0.43696 0.09006 0.55015 0.0
H361 H 0.49066 0.17598 0.66727 0.0
H362 H 0.45891 0.94274 0.57418 0.0
H363 H 0.48045 0.9711 0.5207 0.0
H364 H 0.44308 0.99063 0.52411 0.0
H365 H 0.52439 0.04593 0.71578 0.0
H366 H 0.52819 0.12607 0.71064 0.0
H367 H 0.54658 0.07713 0.66461 0.0
C368 C 0.44456 0.95269 0.2111 0.0
C369 C 0.44371 0.89907 0.18182 0.0
C370 C 0.46779 0.99215 0.2065 0.0
C371 C 0.49071 0.97784 0.17165 0.0
C372 C 0.48972 0.92455 0.14105 0.0
C373 C 0.46626 0.88579 0.14652 0.0
C374 C 0.46803 0.04869 0.23972 0.0
C375 C 0.51368 0.90795 0.10325 0.0
C376 C 0.53844 0.10777 0.1316 0.0
C377 C 0.56109 0.10241 0.16832 0.0
C378 C 0.51587 0.06637 0.13099 0.0
C379 C 0.51588 0.01844 0.16805 0.0
C380 C 0.53923 0.01126 0.20368 0.0
C381 C 0.56159 0.05326 0.20334 0.0
C382 C 0.49147 0.07529 0.09207 0.0
C383 C 0.54005 0.96055 0.24367 0.0
H384 H 0.4273 0.96341 0.23849 0.0
H385 H 0.46585 0.84455 0.12363 0.0
H386 H 0.48672 0.04839 0.26717 0.0
H387 H 0.47026 0.08834 0.21328 0.0
H388 H 0.44828 0.0539 0.26406 0.0
H389 H 0.50917 0.86602 0.08083 0.0
H390 H 0.51734 0.94453 0.07398 0.0
H391 H 0.53383 0.902 0.12615 0.0
H392 H 0.53788 0.14534 0.10413 0.0
H393 H 0.57897 0.04862 0.23183 0.0
H394 H 0.47163 0.08598 0.11453 0.0
H395 H 0.48742 0.03353 0.06924 0.0
H396 H 0.49572 0.11208 0.06318 0.0
H397 H 0.52229 0.96571 0.27283 0.0
H398 H 0.56055 0.95896 0.26618 0.0
H399 H 0.53692 0.91709 0.22295 0.0
C400 C 0.30106 0.17391 0.37936 0.0
C401 C 0.32154 0.21952 0.38415 0.0
C402 C 0.27936 0.17686 0.34066 0.0
C403 C 0.27805 0.22671 0.30578 0.0
C404 C 0.29879 0.27265 0.30992 0.0
C405 C 0.32045 0.26827 0.34882 0.0
C406 C 0.25772 0.12676 0.33736 0.0
C407 C 0.2981 0.32638 0.27325 0.0
C408 C 0.23471 0.2079 0.17781 0.0
C409 C 0.20861 0.23349 0.19279 0.0
C410 C 0.25779 0.20633 0.21387 0.0
C411 C 0.25452 0.23117 0.26584 0.0
C412 C 0.22827 0.25813 0.28056 0.0
C413 C 0.20558 0.25879 0.24382 0.0
C414 C 0.28538 0.17678 0.1969 0.0
C415 C 0.22397 0.28527 0.33546 0.0
H416 H 0.30185 0.13587 0.4063 0.0
H417 H 0.33678 0.30248 0.35063 0.0
H418 H 0.23596 0.14448 0.34526 0.0
H419 H 0.25757 0.10742 0.29636 0.0
H420 H 0.26221 0.09035 0.36652 0.0
H421 H 0.31577 0.35829 0.28168 0.0
H422 H 0.29967 0.31173 0.23083 0.0
H423 H 0.27743 0.35027 0.27775 0.0
H424 H 0.23681 0.188 0.13833 0.0
H425 H 0.1853 0.27875 0.25506 0.0
H426 H 0.28951 0.1371 0.2225 0.0
H427 H 0.30359 0.20799 0.20255 0.0
H428 H 0.2849 0.16219 0.1543 0.0
H429 H 0.22605 0.25009 0.36662 0.0
H430 H 0.20267 0.30677 0.33973 0.0
H431 H 0.24075 0.31925 0.34347 0.0
C432 C 0.69904 0.80063 0.38581 0.0
C433 C 0.67825 0.75635 0.39459 0.0
C434 C 0.72038 0.79344 0.34687 0.0
C435 C 0.72122 0.74033 0.31603 0.0
C436 C 0.70024 0.69556 0.3242 0.0
C437 C 0.67878 0.70441 0.36295 0.0
C438 C 0.74215 0.84267 0.339 0.0
C439 C 0.70053 0.63824 0.29213 0.0
C440 C 0.76447 0.748 0.18706 0.0
C441 C 0.79097 0.72635 0.20438 0.0
C442 C 0.74118 0.75127 0.22258 0.0
C443 C 0.74457 0.73152 0.27625 0.0
C444 C 0.77107 0.70721 0.29305 0.0
C445 C 0.79403 0.70532 0.25693 0.0
C446 C 0.71341 0.77825 0.20338 0.0
C447 C 0.77545 0.68499 0.34965 0.0
H448 H 0.6988 0.84113 0.40974 0.0
H449 H 0.66225 0.67103 0.36746 0.0
H450 H 0.76388 0.82564 0.34826 0.0
H451 H 0.74223 0.85741 0.2965 0.0
H452 H 0.73785 0.88217 0.36486 0.0
H453 H 0.68287 0.60755 0.30365 0.0
H454 H 0.69865 0.64842 0.24872 0.0
H455 H 0.72119 0.61472 0.29804 0.0
H456 H 0.76229 0.76436 0.14631 0.0
H457 H 0.81459 0.68811 0.26994 0.0
H458 H 0.70943 0.82091 0.22491 0.0
H459 H 0.69527 0.74794 0.21253 0.0
H460 H 0.71361 0.78742 0.15958 0.0
H461 H 0.77399 0.72305 0.37811 0.0
H462 H 0.79657 0.66299 0.35502 0.0
H463 H 0.75839 0.65268 0.36054 0.0
C464 C 0.26342 0.85465 0.38244 0.0
C465 C 0.28964 0.87898 0.39848 0.0
C466 C 0.24039 0.85101 0.41832 0.0
C467 C 0.24384 0.87169 0.47164 0.0
C468 C 0.27025 0.89703 0.48781 0.0
C469 C 0.29279 0.90103 0.45072 0.0
C470 C 0.21238 0.82489 0.39919 0.0
C471 C 0.27487 0.91875 0.5445 0.0
C472 C 0.17637 0.90381 0.55166 0.0
C473 C 0.17264 0.84989 0.57939 0.0
C474 C 0.19968 0.91196 0.51689 0.0
C475 C 0.21995 0.86538 0.51062 0.0
C476 C 0.2167 0.81151 0.53987 0.0
C477 C 0.1929 0.80419 0.57347 0.0
C478 C 0.20221 0.96973 0.48586 0.0
C479 C 0.23804 0.76108 0.5348 0.0
H480 H 0.26075 0.83934 0.34149 0.0
H481 H 0.31311 0.92008 0.46288 0.0
H482 H 0.20724 0.78408 0.4226 0.0
H483 H 0.19479 0.85736 0.40594 0.0
H484 H 0.2129 0.81295 0.35594 0.0
H485 H 0.29656 0.938 0.55044 0.0
H486 H 0.25874 0.95325 0.55486 0.0
H487 H 0.27199 0.88106 0.57297 0.0
H488 H 0.16078 0.9393 0.55664 0.0
H489 H 0.18983 0.76215 0.59437 0.0
H490 H 0.20105 0.96032 0.4422 0.0
H491 H 0.22325 0.99094 0.49367 0.0
H492 H 0.18506 0.00209 0.49636 0.0
H493 H 0.23765 0.74306 0.49333 0.0
H494 H 0.2335 0.7239 0.56312 0.0
H495 H 0.26 0.77787 0.54245 0.0
C496 C 0.83123 0.17423 0.51276 0.0
C497 C 0.82846 0.16786 0.56847 0.0
C498 C 0.80761 0.16793 0.47863 0.0
C499 C 0.78015 0.15825 0.50086 0.0
C500 C 0.77698 0.15349 0.5572 0.0
C501 C 0.80129 0.15709 0.59027 0.0
C502 C 0.81212 0.17168 0.4187 0.0
C503 C 0.7479 0.14551 0.58251 0.0
C504 C 0.72048 0.20384 0.40625 0.0
C505 C 0.71083 0.14836 0.38698 0.0
C506 C 0.7416 0.2074 0.44613 0.0
C507 C 0.75484 0.1544 0.46477 0.0
C508 C 0.74553 0.09824 0.44516 0.0
C509 C 0.72337 0.09588 0.40716 0.0
C510 C 0.75042 0.26818 0.46688 0.0
C511 C 0.75989 0.0408 0.46228 0.0
H512 H 0.85192 0.18457 0.49561 0.0
H513 H 0.799 0.15155 0.63323 0.0
H514 H 0.80248 0.13218 0.39863 0.0
H515 H 0.80134 0.21203 0.40256 0.0
H516 H 0.83514 0.17389 0.40783 0.0
H517 H 0.74897 0.14475 0.62703 0.0
H518 H 0.73355 0.18251 0.56995 0.0
H519 H 0.73805 0.10316 0.56851 0.0
H520 H 0.71254 0.24492 0.38894 0.0
H521 H 0.71642 0.05278 0.39204 0.0
H522 H 0.7718 0.28004 0.45082 0.0
H523 H 0.75206 0.26764 0.5113 0.0
H524 H 0.73508 0.30373 0.45492 0.0
H525 H 0.78263 0.04141 0.44947 0.0
H526 H 0.74943 0.00063 0.44478 0.0
H527 H 0.75968 0.03669 0.50659 0.0
C528 C 0.78882 0.67255 0.8539 0.0
C529 C 0.7898 0.62449 0.88998 0.0
C530 C 0.76627 0.67841 0.81711 0.0
C531 C 0.74441 0.63459 0.81579 0.0
C532 C 0.74592 0.58462 0.85059 0.0
C533 C 0.76864 0.58012 0.88719 0.0
C534 C 0.76552 0.73214 0.78041 0.0
C535 C 0.72315 0.53668 0.85008 0.0
C536 C 0.67107 0.68074 0.76545 0.0
C537 C 0.67108 0.6576 0.71326 0.0
C538 C 0.69485 0.67367 0.7991 0.0
C539 C 0.71922 0.64263 0.78003 0.0
C540 C 0.71941 0.61953 0.72708 0.0
C541 C 0.6953 0.62754 0.69417 0.0
C542 C 0.6939 0.69948 0.85508 0.0
C543 C 0.74495 0.58604 0.70542 0.0
H544 H 0.80575 0.70557 0.85409 0.0
H545 H 0.76946 0.54248 0.91458 0.0
H546 H 0.76408 0.7175 0.73798 0.0
H547 H 0.7462 0.75935 0.78902 0.0
H548 H 0.7847 0.76104 0.7851 0.0
H549 H 0.7281 0.49943 0.8781 0.0
H550 H 0.70224 0.55635 0.86155 0.0
H551 H 0.72076 0.51811 0.80904 0.0
H552 H 0.65246 0.70486 0.7798 0.0
H553 H 0.69519 0.60968 0.65372 0.0
H554 H 0.71167 0.73183 0.86059 0.0
H555 H 0.69688 0.66333 0.88506 0.0
H556 H 0.67338 0.72266 0.86362 0.0
H557 H 0.76429 0.61474 0.70735 0.0
H558 H 0.74178 0.57136 0.66325 0.0
H559 H 0.74921 0.54604 0.73053 0.0
C560 C 0.22115 0.40693 0.85743 0.0
C561 C 0.20923 0.35368 0.87724 0.0
C562 C 0.24336 0.40596 0.81951 0.0
C563 C 0.25338 0.3504 0.79975 0.0
C564 C 0.24077 0.29661 0.81808 0.0
C565 C 0.21956 0.29884 0.8578 0.0
C566 C 0.25704 0.46421 0.80265 0.0
C567 C 0.25039 0.2364 0.79722 0.0
C568 C 0.29987 0.34842 0.67444 0.0
C569 C 0.32707 0.33821 0.69637 0.0
C570 C 0.27556 0.35212 0.70746 0.0
C571 C 0.27876 0.34797 0.76382 0.0
C572 C 0.30627 0.33935 0.7862 0.0
C573 C 0.32992 0.33302 0.75216 0.0
C574 C 0.24645 0.35909 0.68204 0.0
C575 C 0.31078 0.33623 0.84616 0.0
H576 H 0.21367 0.44954 0.87277 0.0
H577 H 0.21208 0.25727 0.8749 0.0
H578 H 0.27967 0.46502 0.81612 0.0
H579 H 0.25714 0.46821 0.75832 0.0
H580 H 0.24589 0.50374 0.81977 0.0
H581 H 0.23556 0.19992 0.80918 0.0
H582 H 0.25197 0.23712 0.7528 0.0
H583 H 0.27195 0.22582 0.81319 0.0
H584 H 0.29755 0.35307 0.6314 0.0
H585 H 0.35063 0.3232 0.76944 0.0
H586 H 0.23601 0.40053 0.6967 0.0
H587 H 0.23256 0.32101 0.69384 0.0
H588 H 0.24758 0.36085 0.63755 0.0
H589 H 0.30059 0.37523 0.86604 0.0
H590 H 0.33381 0.33544 0.85711 0.0
H591 H 0.30054 0.29533 0.86242 0.0
C592 C 0.70542 0.23937 0.01749 0.0
C593 C 0.70801 0.26326 0.06917 0.0
C594 C 0.72839 0.24115 0.98141 0.0
C595 C 0.75456 0.26748 0.99755 0.0
C596 C 0.75735 0.29117 0.05004 0.0
C597 C 0.73395 0.2888 0.08531 0.0
C598 C 0.72455 0.21549 0.92582 0.0
C599 C 0.78487 0.31986 0.06858 0.0
C600 C 0.8211 0.22877 0.917 0.0
C601 C 0.82316 0.27805 0.88245 0.0
C602 C 0.79896 0.22485 0.95495 0.0
C603 C 0.77866 0.27169 0.95882 0.0
C604 C 0.78095 0.32205 0.92471 0.0
C605 C 0.80316 0.32459 0.88702 0.0
C606 C 0.79729 0.17064 0.99095 0.0
C607 C 0.7598 0.37309 0.92767 0.0
H608 H 0.6853 0.21941 0.00528 0.0
H609 H 0.73573 0.30775 0.12522 0.0
H610 H 0.7276 0.25117 0.89541 0.0
H611 H 0.74097 0.18068 0.91813 0.0
H612 H 0.70304 0.19537 0.92003 0.0
H613 H 0.78388 0.33414 0.11124 0.0
H614 H 0.80293 0.28815 0.06367 0.0
H615 H 0.78963 0.3596 0.04346 0.0
H616 H 0.83705 0.19377 0.91533 0.0
H617 H 0.80471 0.36303 0.86066 0.0
H618 H 0.77652 0.14753 0.98503 0.0
H619 H 0.79832 0.18465 0.0336 0.0
H620 H 0.81483 0.13825 0.98311 0.0
H621 H 0.73801 0.35656 0.91803 0.0
H622 H 0.76519 0.40995 0.89953 0.0
H623 H 0.7591 0.39148 0.96899 0.0
C624 C 0.17455 0.76842 0.93991 0.0
C625 C 0.18236 0.7392 0.89235 0.0
C626 C 0.19442 0.77616 0.98172 0.0
C627 C 0.22269 0.75439 0.97551 0.0
C628 C 0.23067 0.72535 0.92731 0.0
C629 C 0.21035 0.71774 0.88656 0.0
C630 C 0.18505 0.80648 0.03288 0.0
C631 C 0.26065 0.7019 0.91887 0.0
C632 C 0.28448 0.81319 0.05917 0.0
C633 C 0.28894 0.76552 0.09448 0.0
C634 C 0.2622 0.81131 0.02142 0.0
C635 C 0.244 0.76065 0.0195 0.0
C636 C 0.24784 0.71348 0.05679 0.0
C637 C 0.2705 0.7163 0.09364 0.0
C638 C 0.25903 0.8621 0.98198 0.0
C639 C 0.22877 0.65895 0.05635 0.0
H640 H 0.15275 0.78371 0.94509 0.0
H641 H 0.21645 0.69515 0.84979 0.0
H642 H 0.18712 0.77492 0.06701 0.0
H643 H 0.1991 0.8453 0.04157 0.0
H644 H 0.16254 0.8223 0.03084 0.0
H645 H 0.2636 0.68198 0.87841 0.0
H646 H 0.27639 0.73864 0.92404 0.0
H647 H 0.26563 0.66731 0.94938 0.0
H648 H 0.29908 0.8509 0.05985 0.0
H649 H 0.27424 0.67945 0.12105 0.0
H650 H 0.23663 0.87849 0.9815 0.0
H651 H 0.26404 0.84589 0.94096 0.0
H652 H 0.27344 0.9002 0.99147 0.0
H653 H 0.20594 0.6725 0.05653 0.0
H654 H 0.23277 0.62926 0.09129 0.0
H655 H 0.23251 0.63292 0.0191 0.0
C656 C 0.02074 0.1068 0.24318 0.0
C657 C 0.04801 0.13227 0.23908 0.0
C658 C 0.00804 0.09679 0.29337 0.0
C659 C 0.02306 0.11278 0.34088 0.0
C660 C 0.05071 0.13854 0.3367 0.0
C661 C 0.06304 0.14662 0.28602 0.0
C662 C 0.97794 0.07228 0.29384 0.0
C663 C 0.06704 0.16023 0.38534 0.0
C664 C 0.97582 0.14701 0.46068 0.0
C665 C 0.98573 0.10613 0.4991 0.0
C666 C 0.98784 0.14968 0.40935 0.0
C667 C 0.00927 0.1079 0.39457 0.0
C668 C 0.01879 0.06507 0.43283 0.0
C669 C 0.00721 0.0655 0.48483 0.0
C670 C 0.97785 0.19885 0.3721 0.0
C671 C 0.04179 0.01948 0.42088 0.0
H672 H 0.00888 0.09597 0.20707 0.0
H673 H 0.08408 0.16677 0.28325 0.0
H674 H 0.97073 0.05783 0.33403 0.0
H675 H 0.96307 0.10719 0.27886 0.0
H676 H 0.97614 0.03394 0.26569 0.0
H677 H 0.08371 0.19349 0.37437 0.0
H678 H 0.05258 0.181 0.41535 0.0
H679 H 0.07795 0.12178 0.40456 0.0
H680 H 0.95931 0.17897 0.47128 0.0
H681 H 0.01533 0.03432 0.51443 0.0
H682 H 0.95941 0.1824 0.34835 0.0
H683 H 0.99487 0.21357 0.34404 0.0
H684 H 0.97043 0.23858 0.39502 0.0
H685 H 0.03407 0.9741 0.43173 0.0
H686 H 0.06068 0.02852 0.44662 0.0
H687 H 0.04869 0.01892 0.37837 0.0
C688 C 0.98766 0.91762 0.50031 0.0
C689 C 0.00935 0.87671 0.51294 0.0
C690 C 0.97485 0.91772 0.44925 0.0
C691 C 0.98334 0.87459 0.4107 0.0
C692 C 0.00501 0.83279 0.42358 0.0
C693 C 0.01805 0.83506 0.47408 0.0
C694 C 0.95247 0.96424 0.43654 0.0
C695 C 0.01379 0.7842 0.3847 0.0
C696 C 0.93248 0.82613 0.30056 0.0
C697 C 0.94557 0.85024 0.2547 0.0
C698 C 0.94397 0.83555 0.35181 0.0
C699 C 0.96893 0.87079 0.35758 0.0
C700 C 0.9816 0.8972 0.31174 0.0
C701 C 0.96976 0.88669 0.2608 0.0
C702 C 0.93035 0.80483 0.39936 0.0
C703 C 0.00814 0.93512 0.31644 0.0
H704 H 0.98076 0.94974 0.53021 0.0
H705 H 0.03457 0.80272 0.48362 0.0
H706 H 0.96085 0.9946 0.4052 0.0
H707 H 0.93286 0.94301 0.42029 0.0
H708 H 0.94663 0.99146 0.4722 0.0
H709 H 0.03066 0.75453 0.40139 0.0
H710 H 0.99495 0.75637 0.37415 0.0
H711 H 0.02191 0.80421 0.34698 0.0
H712 H 0.91378 0.79784 0.29634 0.0
H713 H 0.97991 0.9058 0.22567 0.0
H714 H 0.92544 0.83781 0.4313 0.0
H715 H 0.94556 0.77186 0.41654 0.0
H716 H 0.91031 0.78107 0.38842 0.0
H717 H 0.00408 0.97167 0.34538 0.0
H718 H 0.01476 0.95474 0.27744 0.0
H719 H 0.02615 0.90825 0.33244 0.0
C720 C 0.03363 0.8599 0.85081 0.0
C721 C 0.03025 0.87504 0.79655 0.0
C722 C 0.01078 0.86505 0.8869 0.0
C723 C 0.98412 0.8871 0.86858 0.0
C724 C 0.98198 0.91098 0.81621 0.0
C725 C 0.00497 0.90391 0.78038 0.0
C726 C 0.01444 0.84166 0.94329 0.0
C727 C 0.95464 0.9397 0.797 0.0
C728 C 0.92393 0.79485 0.92579 0.0
C729 C 0.9176 0.826 0.97315 0.0
C730 C 0.94425 0.81658 0.88948 0.0
C731 C 0.95784 0.87215 0.89959 0.0
C732 C 0.94896 0.90717 0.94398 0.0
C733 C 0.92942 0.88303 0.98104 0.0
C734 C 0.95299 0.77719 0.84292 0.0
C735 C 0.96107 0.96846 0.95473 0.0
H736 H 0.05336 0.83933 0.86429 0.0
H737 H 0.00243 0.91774 0.73898 0.0
H738 H 0.00698 0.87548 0.9727 0.0
H739 H 0.00121 0.80084 0.94871 0.0
H740 H 0.03705 0.83034 0.9525 0.0
H741 H 0.93767 0.90531 0.79294 0.0
H742 H 0.94713 0.97299 0.82692 0.0
H743 H 0.95739 0.9622 0.75762 0.0
H744 H 0.91479 0.75088 0.91913 0.0
H745 H 0.92423 0.90794 0.01709 0.0
H746 H 0.97562 0.76318 0.84789 0.0
H747 H 0.95142 0.80222 0.80465 0.0
H748 H 0.93956 0.73633 0.83965 0.0
H749 H 0.97648 0.96563 0.98845 0.0
H750 H 0.94376 0.99943 0.9674 0.0
H751 H 0.97193 0.98772 0.91919 0.0
C752 C 0.07229 0.18157 0.9158 0.0
C753 C 0.07979 0.14911 0.96175 0.0
C754 C 0.05172 0.1599 0.87996 0.0
C755 C 0.03895 0.10329 0.88929 0.0
C756 C 0.04881 0.06743 0.93233 0.0
C757 C 0.0687 0.09133 0.96884 0.0
C758 C 0.04198 0.20008 0.83468 0.0
C759 C 0.03757 0.00528 0.94225 0.0
C760 C 0.96344 0.11599 0.84073 0.0
C761 C 0.96729 0.10374 0.78601 0.0
C762 C 0.98596 0.10836 0.87721 0.0
C763 C 0.01274 0.08747 0.85848 0.0
C764 C 0.0151 0.06534 0.80557 0.0
C765 C 0.99237 0.07421 0.76956 0.0
C766 C 0.98208 0.12937 0.93429 0.0
C767 C 0.04262 0.03804 0.7857 0.0
H768 H 0.08078 0.22625 0.90998 0.0
H769 H 0.07479 0.06553 0.00386 0.0
H770 H 0.0436 0.17628 0.79577 0.0
H771 H 0.01921 0.21249 0.84062 0.0
H772 H 0.05478 0.24187 0.83203 0.0
H773 H 0.02502 0.98765 0.90802 0.0
H774 H 0.05563 0.97424 0.95025 0.0
H775 H 0.024 0.00569 0.97872 0.0
H776 H 0.94379 0.13678 0.85433 0.0
H777 H 0.99523 0.06238 0.72773 0.0
H778 H 0.99382 0.17205 0.94018 0.0
H779 H 0.99104 0.0961 0.96271 0.0
H780 H 0.9592 0.13682 0.94434 0.0
H781 H 0.03953 0.01348 0.74738 0.0
H782 H 0.05148 0.00693 0.8162 0.0
H783 H 0.05869 0.0738 0.77899 0.0
C784 C 0.47447 0.6237 0.03851 0.0
C785 C 0.44727 0.64933 0.04336 0.0
C786 C 0.48688 0.61396 0.98801 0.0
C787 C 0.47167 0.63056 0.94089 0.0
C788 C 0.44403 0.65622 0.94579 0.0
C789 C 0.43197 0.66395 0.9968 0.0
C790 C 0.51692 0.58911 0.98676 0.0
C791 C 0.42744 0.67822 0.8976 0.0
C792 C 0.51949 0.66492 0.8218 0.0
C793 C 0.51 0.62363 0.78336 0.0
C794 C 0.50692 0.66808 0.87268 0.0
C795 C 0.48535 0.6264 0.887 0.0
C796 C 0.47601 0.58366 0.8485 0.0
C797 C 0.4881 0.58369 0.79691 0.0
C798 C 0.51661 0.71741 0.91005 0.0
C799 C 0.45283 0.53829 0.85983 0.0
H800 H 0.48653 0.61256 0.07431 0.0
H801 H 0.41098 0.68421 0.00016 0.0
H802 H 0.52382 0.57454 0.94637 0.0
H803 H 0.53199 0.62384 0.00139 0.0
H804 H 0.51882 0.55074 0.01483 0.0
H805 H 0.41094 0.71165 0.90908 0.0
H806 H 0.44174 0.69888 0.86728 0.0
H807 H 0.41628 0.63993 0.87859 0.0
H808 H 0.5362 0.6966 0.81162 0.0
H809 H 0.48024 0.55233 0.76718 0.0
H810 H 0.53499 0.70122 0.93412 0.0
H811 H 0.49943 0.73201 0.9378 0.0
H812 H 0.52405 0.75715 0.88719 0.0
H813 H 0.44609 0.53692 0.90243 0.0
H814 H 0.46026 0.49298 0.84795 0.0
H815 H 0.43389 0.54844 0.83455 0.0
C816 C 0.50789 0.43622 0.77547 0.0
C817 C 0.48661 0.39457 0.76223 0.0
C818 C 0.52034 0.43664 0.82683 0.0
C819 C 0.51188 0.39318 0.86506 0.0
C820 C 0.49036 0.35119 0.85185 0.0
C821 C 0.47768 0.35309 0.80104 0.0
C822 C 0.54256 0.48335 0.84004 0.0
C823 C 0.4816 0.30233 0.89045 0.0
C824 C 0.56355 0.34348 0.97323 0.0
C825 C 0.55091 0.36726 0.01965 0.0
C826 C 0.55159 0.35333 0.92246 0.0
C827 C 0.52658 0.38857 0.91779 0.0
C828 C 0.51426 0.41441 0.96423 0.0
C829 C 0.52661 0.4036 0.01466 0.0
C830 C 0.56486 0.32325 0.8742 0.0
C831 C 0.48761 0.45212 0.96068 0.0
H832 H 0.51489 0.46835 0.74568 0.0
H833 H 0.46142 0.32032 0.79112 0.0
H834 H 0.53432 0.51264 0.87239 0.0
H835 H 0.56239 0.46205 0.85521 0.0
H836 H 0.54804 0.51164 0.80487 0.0
H837 H 0.46433 0.27348 0.87404 0.0
H838 H 0.50035 0.27372 0.89984 0.0
H839 H 0.47408 0.32194 0.92878 0.0
H840 H 0.58234 0.31533 0.9766 0.0
H841 H 0.51678 0.4224 0.05026 0.0
H842 H 0.56975 0.35676 0.84272 0.0
H843 H 0.54945 0.29085 0.85675 0.0
H844 H 0.58487 0.29896 0.88441 0.0
H845 H 0.49147 0.48937 0.93242 0.0
H846 H 0.48111 0.47074 0.00016 0.0
H847 H 0.46959 0.42547 0.9444 0.0
C848 C 0.5656 0.40002 0.28956 0.0
C849 C 0.57821 0.34387 0.29819 0.0
C850 C 0.54563 0.42343 0.32617 0.0
C851 C 0.5372 0.3885 0.37086 0.0
C852 C 0.55143 0.33376 0.38154 0.0
C853 C 0.57207 0.31274 0.34558 0.0
C854 C 0.53261 0.48375 0.31474 0.0
C855 C 0.54317 0.29457 0.42852 0.0
C856 C 0.49087 0.41962 0.49089 0.0
C857 C 0.46607 0.38804 0.47613 0.0
C858 C 0.51334 0.42773 0.45416 0.0
C859 C 0.511 0.40288 0.40218 0.0
C860 C 0.48451 0.37886 0.38504 0.0
C861 C 0.46224 0.37216 0.42216 0.0
C862 C 0.54056 0.45786 0.47223 0.0
C863 C 0.48064 0.35446 0.32903 0.0
H864 H 0.57059 0.4248 0.25336 0.0
H865 H 0.58171 0.26932 0.35259 0.0
H866 H 0.52255 0.50383 0.35077 0.0
H867 H 0.54916 0.51504 0.29939 0.0
H868 H 0.51622 0.47889 0.28286 0.0
H869 H 0.55703 0.25438 0.43209 0.0
H870 H 0.54455 0.32016 0.46653 0.0
H871 H 0.52068 0.27946 0.42384 0.0
H872 H 0.49368 0.43403 0.53207 0.0
H873 H 0.44279 0.34962 0.40981 0.0
H874 H 0.54706 0.49213 0.4424 0.0
H875 H 0.5581 0.42455 0.47469 0.0
H876 H 0.53819 0.47939 0.51214 0.0
H877 H 0.48756 0.38808 0.29902 0.0
H878 H 0.45806 0.34209 0.32062 0.0
H879 H 0.49419 0.31408 0.32375 0.0
C880 C 0.53206 0.6285 0.44417 0.0
C881 C 0.52845 0.61621 0.49895 0.0
C882 C 0.50918 0.62281 0.40823 0.0
C883 C 0.48221 0.60357 0.42745 0.0
C884 C 0.47986 0.58153 0.48041 0.0
C885 C 0.50293 0.58889 0.516 0.0
C886 C 0.51303 0.64402 0.3512 0.0
C887 C 0.45221 0.55516 0.50062 0.0
C888 C 0.42383 0.70037 0.36959 0.0
C889 C 0.41637 0.66853 0.32322 0.0
C890 C 0.44388 0.67753 0.40593 0.0
C891 C 0.45609 0.62035 0.39673 0.0
C892 C 0.44607 0.58507 0.35339 0.0
C893 C 0.42674 0.61008 0.31642 0.0
C894 C 0.45381 0.71711 0.45151 0.0
C895 C 0.45669 0.52239 0.34357 0.0
H896 H 0.55199 0.64765 0.43006 0.0
H897 H 0.50021 0.577 0.55784 0.0
H898 H 0.50349 0.61156 0.32269 0.0
H899 H 0.50182 0.68742 0.34583 0.0
H900 H 0.53594 0.65025 0.34074 0.0
H901 H 0.43676 0.59162 0.50911 0.0
H902 H 0.44256 0.52564 0.46967 0.0
H903 H 0.45546 0.52904 0.53805 0.0
H904 H 0.4158 0.74542 0.3754 0.0
H905 H 0.42063 0.58464 0.28118 0.0
H906 H 0.47673 0.72853 0.44596 0.0
H907 H 0.45178 0.69325 0.49029 0.0
H908 H 0.44142 0.75944 0.45409 0.0
H909 H 0.46992 0.52188 0.30665 0.0
H910 H 0.43827 0.49205 0.33635 0.0
H911 H 0.4694 0.50453 0.37749 0.0
loop_
_geom_bond_atom_site_label_1
_geom_bond_atom_site_label_2
_geom_bond_distance
_geom_bond_site_symmetry_2
_ccdc_geom_bond_type
Co0 O3 1.970 . S
Co0 N17 1.989 . S
Co0 O25 1.967 . S
Co0 O32 1.920 . S
Co1 O4 1.966 1_554 S
Co1 N10 2.022 1_554 S
Co1 N18 1.993 . S
Co1 O26 1.941 . S
C2 O3 1.258 . S
C2 O4 1.263 1_554 S
O3 Co0 1.970 . S
O3 C2 1.258 . S
O4 Co1 1.966 1_556 S
O4 C2 1.263 1_556 S
C5 O6 1.235 . S
C5 O32 1.289 . S
O6 C5 1.235 . S
C7 C9 1.400 . S
C7 N10 1.351 . S
C7 C12 1.501 . S
C8 C9 1.387 . S
C8 N11 1.341 . S
C9 C7 1.400 . S
C9 C8 1.387 . S
N10 Co1 2.022 1_556 S
N10 C7 1.351 . S
N10 N11 1.365 . S
N11 C8 1.341 . S
N11 N10 1.365 . S
N11 H31 0.862 . S
C12 C7 1.501 . S
C12 H13 0.961 . S
C12 H14 0.961 . S
C12 H15 0.960 . S
H13 C12 0.961 . S
H14 C12 0.961 . S
H15 C12 0.960 . S
C16 N17 1.342 . S
C16 C20 1.401 . S
C16 C21 1.499 . S
N17 Co0 1.989 . S
N17 C16 1.342 . S
N17 N18 1.388 . S
N18 Co1 1.993 . S
N18 N17 1.388 . S
N18 C19 1.346 . S
C19 N18 1.346 . S
C19 C20 1.396 . S
C19 C29 1.510 . S
C20 C16 1.401 . S
C20 C19 1.396 . S
C21 C16 1.499 . S
C21 H22 0.959 . S
C21 H23 0.960 . S
C21 H24 0.961 . S
H22 C21 0.959 . S
H23 C21 0.960 . S
H24 C21 0.961 . S
O25 Co0 1.967 . S
O25 C33 1.258 . S
O26 Co1 1.941 . S
O26 C33 1.266 . S
H27 C29 0.959 . S
H28 C29 0.961 . S
C29 C19 1.510 . S
C29 H27 0.959 . S
C29 H28 0.961 . S
C29 H30 0.960 . S
H30 C29 0.960 . S
H31 N11 0.862 . S
O32 Co0 1.920 . S
O32 C5 1.289 . S
C33 O25 1.258 . S
C33 O26 1.266 . S
Co34 O37 1.970 . S
Co34 N51 1.989 . S
Co34 O59 1.967 . S
Co34 O66 1.920 . S
Co35 O38 1.966 1_554 S
Co35 N44 2.022 1_554 S
Co35 N52 1.993 . S
Co35 O60 1.941 . S
C36 O37 1.258 . S
C36 O38 1.263 1_554 S
O37 Co34 1.970 . S
O37 C36 1.258 . S
O38 Co35 1.966 1_556 S
O38 C36 1.263 1_556 S
C39 O40 1.235 . S
C39 O66 1.289 . S
O40 C39 1.235 . S
C41 C43 1.400 . S
C41 N44 1.351 . S
C41 C46 1.501 . S
C42 C43 1.387 . S
C42 N45 1.341 . S
C43 C41 1.400 . S
C43 C42 1.387 . S
N44 Co35 2.022 1_556 S
N44 C41 1.351 . S
N44 N45 1.365 . S
N45 C42 1.341 . S
N45 N44 1.365 . S
N45 H65 0.862 . S
C46 C41 1.501 . S
C46 H47 0.961 . S
C46 H48 0.961 . S
C46 H49 0.960 . S
H47 C46 0.961 . S
H48 C46 0.961 . S
H49 C46 0.960 . S
C50 N51 1.342 . S
C50 C54 1.401 . S
C50 C55 1.499 . S
N51 Co34 1.989 . S
N51 C50 1.342 . S
N51 N52 1.388 . S
N52 Co35 1.993 . S
N52 N51 1.388 . S
N52 C53 1.346 . S
C53 N52 1.346 . S
C53 C54 1.396 . S
C53 C63 1.510 . S
C54 C50 1.401 . S
C54 C53 1.396 . S
C55 C50 1.499 . S
C55 H56 0.959 . S
C55 H57 0.960 . S
C55 H58 0.961 . S
H56 C55 0.959 . S
H57 C55 0.960 . S
H58 C55 0.961 . S
O59 Co34 1.967 . S
O59 C67 1.258 . S
O60 Co35 1.941 . S
O60 C67 1.266 . S
H61 C63 0.959 . S
H62 C63 0.961 . S
C63 C53 1.510 . S
C63 H61 0.959 . S
C63 H62 0.961 . S
C63 H64 0.960 . S
H64 C63 0.960 . S
H65 N45 0.862 . S
O66 Co34 1.920 . S
O66 C39 1.289 . S
C67 O59 1.258 . S
C67 O60 1.266 . S
Co68 O71 1.970 . S
Co68 N85 1.989 . S
Co68 O93 1.967 . S
Co68 O100 1.920 . S
Co69 O72 1.966 . S
Co69 N78 2.022 . S
Co69 N86 1.993 . S
Co69 O94 1.941 . S
C70 O71 1.258 . S
C70 O72 1.263 . S
O71 Co68 1.970 . S
O71 C70 1.258 . S
O72 Co69 1.966 . S
O72 C70 1.263 . S
C73 O74 1.235 . S
C73 O100 1.289 . S
O74 C73 1.235 . S
C75 C77 1.400 . S
C75 N78 1.351 . S
C75 C80 1.501 . S
C76 C77 1.387 . S
C76 N79 1.341 . S
C77 C75 1.400 . S
C77 C76 1.387 . S
N78 Co69 2.022 . S
N78 C75 1.351 . S
N78 N79 1.365 . S
N79 C76 1.341 . S
N79 N78 1.365 . S
N79 H99 0.862 . S
C80 C75 1.501 . S
C80 H81 0.961 . S
C80 H82 0.961 . S
C80 H83 0.960 . S
H81 C80 0.961 . S
H82 C80 0.961 . S
H83 C80 0.960 . S
C84 N85 1.342 . S
C84 C88 1.401 . S
C84 C89 1.499 . S
N85 Co68 1.989 . S
N85 C84 1.342 . S
N85 N86 1.388 . S
N86 Co69 1.993 . S
N86 N85 1.388 . S
N86 C87 1.346 . S
C87 N86 1.346 . S
C87 C88 1.396 . S
C87 C97 1.510 . S
C88 C84 1.401 . S
C88 C87 1.396 . S
C89 C84 1.499 . S
C89 H90 0.959 . S
C89 H91 0.960 . S
C89 H92 0.961 . S
H90 C89 0.959 . S
H91 C89 0.960 . S
H92 C89 0.961 . S
O93 Co68 1.967 . S
O93 C101 1.258 . S
O94 Co69 1.941 . S
O94 C101 1.266 . S
H95 C97 0.959 . S
H96 C97 0.961 . S
C97 C87 1.510 . S
C97 H95 0.959 . S
C97 H96 0.961 . S
C97 H98 0.960 . S
H98 C97 0.960 . S
H99 N79 0.862 . S
O100 Co68 1.920 . S
O100 C73 1.289 . S
C101 O93 1.258 . S
C101 O94 1.266 . S
Co102 O105 1.970 . S
Co102 N119 1.989 . S
Co102 O127 1.967 . S
Co102 O134 1.920 . S
Co103 O106 1.966 . S
Co103 N112 2.022 . S
Co103 N120 1.993 . S
Co103 O128 1.941 . S
C104 O105 1.258 . S
C104 O106 1.263 . S
O105 Co102 1.970 . S
O105 C104 1.258 . S
O106 Co103 1.966 . S
O106 C104 1.263 . S
C107 O108 1.235 . S
C107 O134 1.289 . S
O108 C107 1.235 . S
C109 C111 1.400 . S
C109 N112 1.351 . S
C109 C114 1.501 . S
C110 C111 1.387 . S
C110 N113 1.341 . S
C111 C109 1.400 . S
C111 C110 1.387 . S
N112 Co103 2.022 . S
N112 C109 1.351 . S
N112 N113 1.365 . S
N113 C110 1.341 . S
N113 N112 1.365 . S
N113 H133 0.862 . S
C114 C109 1.501 . S
C114 H115 0.961 . S
C114 H116 0.961 . S
C114 H117 0.960 . S
H115 C114 0.961 . S
H116 C114 0.961 . S
H117 C114 0.960 . S
C118 N119 1.342 . S
C118 C122 1.401 . S
C118 C123 1.499 . S
N119 Co102 1.989 . S
N119 C118 1.342 . S
N119 N120 1.388 . S
N120 Co103 1.993 . S
N120 N119 1.388 . S
N120 C121 1.346 . S
C121 N120 1.346 . S
C121 C122 1.396 . S
C121 C131 1.510 . S
C122 C118 1.401 . S
C122 C121 1.396 . S
C123 C118 1.499 . S
C123 H124 0.959 . S
C123 H125 0.960 . S
C123 H126 0.961 . S
H124 C123 0.959 . S
H125 C123 0.960 . S
H126 C123 0.961 . S
O127 Co102 1.967 . S
O127 C135 1.258 . S
O128 Co103 1.941 . S
O128 C135 1.266 . S
H129 C131 0.959 . S
H130 C131 0.961 . S
C131 C121 1.510 . S
C131 H129 0.959 . S
C131 H130 0.961 . S
C131 H132 0.960 . S
H132 C131 0.960 . S
H133 N113 0.862 . S
O134 Co102 1.920 . S
O134 C107 1.289 . S
C135 O127 1.258 . S
C135 O128 1.266 . S
Co136 O139 1.970 . S
Co136 N153 1.989 . S
Co136 O161 1.967 . S
Co136 O168 1.920 . S
Co137 O140 1.966 . S
Co137 N146 2.022 . S
Co137 N154 1.993 . S
Co137 O162 1.941 . S
C138 O139 1.258 . S
C138 O140 1.263 . S
O139 Co136 1.970 . S
O139 C138 1.258 . S
O140 Co137 1.966 . S
O140 C138 1.263 . S
C141 O142 1.235 . S
C141 O168 1.289 . S
O142 C141 1.235 . S
C143 C145 1.400 . S
C143 N146 1.351 . S
C143 C148 1.501 . S
C144 C145 1.387 . S
C144 N147 1.341 . S
C145 C143 1.400 . S
C145 C144 1.387 . S
N146 Co137 2.022 . S
N146 C143 1.351 . S
N146 N147 1.365 . S
N147 C144 1.341 . S
N147 N146 1.365 . S
N147 H167 0.862 . S
C148 C143 1.501 . S
C148 H149 0.961 . S
C148 H150 0.961 . S
C148 H151 0.960 . S
H149 C148 0.961 . S
H150 C148 0.961 . S
H151 C148 0.960 . S
C152 N153 1.342 . S
C152 C156 1.401 . S
C152 C157 1.499 . S
N153 Co136 1.989 . S
N153 C152 1.342 . S
N153 N154 1.388 . S
N154 Co137 1.993 . S
N154 N153 1.388 . S
N154 C155 1.346 . S
C155 N154 1.346 . S
C155 C156 1.396 . S
C155 C165 1.510 . S
C156 C152 1.401 . S
C156 C155 1.396 . S
C157 C152 1.499 . S
C157 H158 0.959 . S
C157 H159 0.960 . S
C157 H160 0.961 . S
H158 C157 0.959 . S
H159 C157 0.960 . S
H160 C157 0.961 . S
O161 Co136 1.967 . S
O161 C169 1.258 . S
O162 Co137 1.941 . S
O162 C169 1.266 . S
H163 C165 0.959 . S
H164 C165 0.961 . S
C165 C155 1.510 . S
C165 H163 0.959 . S
C165 H164 0.961 . S
C165 H166 0.960 . S
H166 C165 0.960 . S
H167 N147 0.862 . S
O168 Co136 1.920 . S
O168 C141 1.289 . S
C169 O161 1.258 . S
C169 O162 1.266 . S
Co170 O173 1.970 . S
Co170 N187 1.989 . S
Co170 O195 1.967 . S
Co170 O202 1.920 . S
Co171 O174 1.966 . S
Co171 N180 2.022 . S
Co171 N188 1.993 . S
Co171 O196 1.941 . S
C172 O173 1.258 . S
C172 O174 1.263 . S
O173 Co170 1.970 . S
O173 C172 1.258 . S
O174 Co171 1.966 . S
O174 C172 1.263 . S
C175 O176 1.235 . S
C175 O202 1.289 . S
O176 C175 1.235 . S
C177 C179 1.400 . S
C177 N180 1.351 . S
C177 C182 1.501 . S
C178 C179 1.387 . S
C178 N181 1.341 . S
C179 C177 1.400 . S
C179 C178 1.387 . S
N180 Co171 2.022 . S
N180 C177 1.351 . S
N180 N181 1.365 . S
N181 C178 1.341 . S
N181 N180 1.365 . S
N181 H201 0.862 . S
C182 C177 1.501 . S
C182 H183 0.961 . S
C182 H184 0.961 . S
C182 H185 0.960 . S
H183 C182 0.961 . S
H184 C182 0.961 . S
H185 C182 0.960 . S
C186 N187 1.342 . S
C186 C190 1.401 . S
C186 C191 1.499 . S
N187 Co170 1.989 . S
N187 C186 1.342 . S
N187 N188 1.388 . S
N188 Co171 1.993 . S
N188 N187 1.388 . S
N188 C189 1.346 . S
C189 N188 1.346 . S
C189 C190 1.396 . S
C189 C199 1.510 . S
C190 C186 1.401 . S
C190 C189 1.396 . S
C191 C186 1.499 . S
C191 H192 0.959 . S
C191 H193 0.960 . S
C191 H194 0.961 . S
H192 C191 0.959 . S
H193 C191 0.960 . S
H194 C191 0.961 . S
O195 Co170 1.967 . S
O195 C203 1.258 . S
O196 Co171 1.941 . S
O196 C203 1.266 . S
H197 C199 0.959 . S
H198 C199 0.961 . S
C199 C189 1.510 . S
C199 H197 0.959 . S
C199 H198 0.961 . S
C199 H200 0.960 . S
H200 C199 0.960 . S
H201 N181 0.862 . S
O202 Co170 1.920 . S
O202 C175 1.289 . S
C203 O195 1.258 . S
C203 O196 1.266 . S
Co204 O207 1.970 . S
Co204 N221 1.989 . S
Co204 O229 1.967 . S
Co204 O236 1.920 . S
Co205 O208 1.966 . S
Co205 N214 2.022 . S
Co205 N222 1.993 . S
Co205 O230 1.941 . S
C206 O207 1.258 . S
C206 O208 1.263 . S
O207 Co204 1.970 . S
O207 C206 1.258 . S
O208 Co205 1.966 . S
O208 C206 1.263 . S
C209 O210 1.235 . S
C209 O236 1.289 . S
O210 C209 1.235 . S
C211 C213 1.400 . S
C211 N214 1.351 . S
C211 C216 1.501 . S
C212 C213 1.387 . S
C212 N215 1.341 . S
C213 C211 1.400 . S
C213 C212 1.387 . S
N214 Co205 2.022 . S
N214 C211 1.351 . S
N214 N215 1.365 . S
N215 C212 1.341 . S
N215 N214 1.365 . S
N215 H235 0.862 . S
C216 C211 1.501 . S
C216 H217 0.961 . S
C216 H218 0.961 . S
C216 H219 0.960 . S
H217 C216 0.961 . S
H218 C216 0.961 . S
H219 C216 0.960 . S
C220 N221 1.342 . S
C220 C224 1.401 . S
C220 C225 1.499 . S
N221 Co204 1.989 . S
N221 C220 1.342 . S
N221 N222 1.388 . S
N222 Co205 1.993 . S
N222 N221 1.388 . S
N222 C223 1.346 . S
C223 N222 1.346 . S
C223 C224 1.396 . S
C223 C233 1.510 . S
C224 C220 1.401 . S
C224 C223 1.396 . S
C225 C220 1.499 . S
C225 H226 0.959 . S
C225 H227 0.960 . S
C225 H228 0.961 . S
H226 C225 0.959 . S
H227 C225 0.960 . S
H228 C225 0.961 . S
O229 Co204 1.967 . S
O229 C237 1.258 . S
O230 Co205 1.941 . S
O230 C237 1.266 . S
H231 C233 0.959 . S
H232 C233 0.961 . S
C233 C223 1.510 . S
C233 H231 0.959 . S
C233 H232 0.961 . S
C233 H234 0.960 . S
H234 C233 0.960 . S
H235 N215 0.862 . S
O236 Co204 1.920 . S
O236 C209 1.289 . S
C237 O229 1.258 . S
C237 O230 1.266 . S
Co238 O241 1.970 . S
Co238 N255 1.989 . S
Co238 O263 1.967 . S
Co238 O270 1.920 . S
Co239 O242 1.966 . S
Co239 N248 2.022 . S
Co239 N256 1.993 . S
Co239 O264 1.941 . S
C240 O241 1.258 . S
C240 O242 1.263 . S
O241 Co238 1.970 . S
O241 C240 1.258 . S
O242 Co239 1.966 . S
O242 C240 1.263 . S
C243 O244 1.235 . S
C243 O270 1.289 . S
O244 C243 1.235 . S
C245 C247 1.400 . S
C245 N248 1.351 . S
C245 C250 1.501 . S
C246 C247 1.387 . S
C246 N249 1.341 . S
C247 C245 1.400 . S
C247 C246 1.387 . S
N248 Co239 2.022 . S
N248 C245 1.351 . S
N248 N249 1.365 . S
N249 C246 1.341 . S
N249 N248 1.365 . S
N249 H269 0.862 . S
C250 C245 1.501 . S
C250 H251 0.961 . S
C250 H252 0.961 . S
C250 H253 0.960 . S
H251 C250 0.961 . S
H252 C250 0.961 . S
H253 C250 0.960 . S
C254 N255 1.342 . S
C254 C258 1.401 . S
C254 C259 1.499 . S
N255 Co238 1.989 . S
N255 C254 1.342 . S
N255 N256 1.388 . S
N256 Co239 1.993 . S
N256 N255 1.388 . S
N256 C257 1.346 . S
C257 N256 1.346 . S
C257 C258 1.396 . S
C257 C267 1.510 . S
C258 C254 1.401 . S
C258 C257 1.396 . S
C259 C254 1.499 . S
C259 H260 0.959 . S
C259 H261 0.960 . S
C259 H262 0.961 . S
H260 C259 0.959 . S
H261 C259 0.960 . S
H262 C259 0.961 . S
O263 Co238 1.967 . S
O263 C271 1.258 . S
O264 Co239 1.941 . S
O264 C271 1.266 . S
H265 C267 0.959 . S
H266 C267 0.961 . S
C267 C257 1.510 . S
C267 H265 0.959 . S
C267 H266 0.961 . S
C267 H268 0.960 . S
H268 C267 0.960 . S
H269 N249 0.862 . S
O270 Co238 1.920 . S
O270 C243 1.289 . S
C271 O263 1.258 . S
C271 O264 1.266 . S
C272 C273 1.391 . S
C272 C274 1.394 . S
C272 H288 0.931 . S
C273 C272 1.391 . S
C273 C277 1.376 . S
C274 C272 1.394 . S
C274 C275 1.369 . S
C274 C278 1.531 1_554 S
C275 C274 1.369 . S
C275 C276 1.410 . S
C275 C283 1.503 1_455 S
C276 C275 1.410 . S
C276 C277 1.392 . S
C276 C279 1.511 1_455 S
C277 C273 1.376 . S
C277 C276 1.392 . S
C277 H289 0.929 . S
C278 C274 1.531 1_556 S
C278 H290 0.960 . S
C278 H291 0.962 . S
C278 H292 0.960 . S
C279 C276 1.511 1_655 S
C279 H293 0.961 . S
C279 H294 0.961 . S
C279 H295 0.961 . S
C280 C281 1.370 . S
C280 C282 1.363 . S
C280 H296 0.931 . S
C281 C280 1.370 . S
C281 C285 1.408 . S
C282 C280 1.363 . S
C282 C283 1.370 . S
C282 C286 1.524 1_655 S
C283 C275 1.503 1_655 S
C283 C282 1.370 . S
C283 C284 1.403 . S
C284 C283 1.403 . S
C284 C285 1.404 . S
C284 C287 1.539 1_554 S
C285 C281 1.408 . S
C285 C284 1.404 . S
C285 H297 0.930 . S
C286 C282 1.524 1_455 S
C286 H298 0.956 . S
C286 H299 0.961 . S
C286 H300 0.961 . S
C287 C284 1.539 1_556 S
C287 H301 0.958 . S
C287 H302 0.961 . S
C287 H303 0.960 1_556 S
H288 C272 0.931 . S
H289 C277 0.929 . S
H290 C278 0.960 . S
H291 C278 0.962 . S
H292 C278 0.960 . S
H293 C279 0.961 . S
H294 C279 0.961 . S
H295 C279 0.961 . S
H296 C280 0.931 . S
H297 C285 0.930 . S
H298 C286 0.956 . S
H299 C286 0.961 . S
H300 C286 0.961 . S
H301 C287 0.958 . S
H302 C287 0.961 . S
H303 C287 0.960 1_554 S
C304 C305 1.391 . S
C304 C306 1.394 . S
C304 H320 0.931 . S
C305 C304 1.391 . S
C305 C309 1.376 . S
C306 C304 1.394 . S
C306 C307 1.369 . S
C306 C310 1.531 . S
C307 C306 1.369 . S
C307 C308 1.410 . S
C307 C315 1.503 1_655 S
C308 C307 1.410 . S
C308 C309 1.392 . S
C308 C311 1.511 1_655 S
C309 C305 1.376 . S
C309 C308 1.392 . S
C309 H321 0.929 . S
C310 C306 1.531 . S
C310 H322 0.960 . S
C310 H323 0.962 . S
C310 H324 0.960 . S
C311 C308 1.511 1_455 S
C311 H325 0.961 . S
C311 H326 0.961 . S
C311 H327 0.961 . S
C312 C313 1.370 . S
C312 C314 1.363 . S
C312 H328 0.931 . S
C313 C312 1.370 . S
C313 C317 1.408 . S
C314 C312 1.363 . S
C314 C315 1.370 . S
C314 C318 1.524 . S
C315 C307 1.503 1_455 S
C315 C314 1.370 . S
C315 C316 1.403 . S
C316 C315 1.403 . S
C316 C317 1.404 . S
C316 C319 1.539 . S
C317 C313 1.408 . S
C317 C316 1.404 . S
C317 H329 0.930 . S
C318 C314 1.524 . S
C318 H330 0.956 1_455 S
C318 H331 0.961 . S
C318 H332 0.961 . S
C319 C316 1.539 . S
C319 H333 0.958 . S
C319 H334 0.961 . S
C319 H335 0.960 . S
H320 C304 0.931 . S
H321 C309 0.929 . S
H322 C310 0.960 . S
H323 C310 0.962 . S
H324 C310 0.960 . S
H325 C311 0.961 . S
H326 C311 0.961 . S
H327 C311 0.961 . S
H328 C312 0.931 . S
H329 C317 0.930 . S
H330 C318 0.956 1_655 S
H331 C318 0.961 . S
H332 C318 0.961 . S
H333 C319 0.958 . S
H334 C319 0.961 . S
H335 C319 0.960 . S
C336 C337 1.391 . S
C336 C338 1.394 . S
C336 H352 0.931 . S
C337 C336 1.391 . S
C337 C341 1.376 . S
C338 C336 1.394 . S
C338 C339 1.369 . S
C338 C342 1.531 . S
C339 C338 1.369 . S
C339 C340 1.410 . S
C339 C347 1.503 1_565 S
C340 C339 1.410 . S
C340 C341 1.392 . S
C340 C343 1.511 1_565 S
C341 C337 1.376 . S
C341 C340 1.392 . S
C341 H353 0.929 . S
C342 C338 1.531 . S
C342 H354 0.960 . S
C342 H355 0.962 . S
C342 H356 0.960 . S
C343 C340 1.511 1_545 S
C343 H357 0.961 . S
C343 H358 0.961 . S
C343 H359 0.961 . S
C344 C345 1.370 . S
C344 C346 1.363 . S
C344 H360 0.931 . S
C345 C344 1.370 . S
C345 C349 1.408 . S
C346 C344 1.363 . S
C346 C347 1.370 . S
C346 C350 1.524 . S
C347 C339 1.503 1_545 S
C347 C346 1.370 . S
C347 C348 1.403 . S
C348 C347 1.403 . S
C348 C349 1.404 . S
C348 C351 1.539 . S
C349 C345 1.408 . S
C349 C348 1.404 . S
C349 H361 0.930 . S
C350 C346 1.524 . S
C350 H362 0.956 1_545 S
C350 H363 0.961 . S
C350 H364 0.961 . S
C351 C348 1.539 . S
C351 H365 0.958 . S
C351 H366 0.961 . S
C351 H367 0.960 . S
H352 C336 0.931 . S
H353 C341 0.929 . S
H354 C342 0.960 . S
H355 C342 0.962 . S
H356 C342 0.960 . S
H357 C343 0.961 . S
H358 C343 0.961 . S
H359 C343 0.961 . S
H360 C344 0.931 . S
H361 C349 0.930 . S
H362 C350 0.956 1_565 S
H363 C350 0.961 . S
H364 C350 0.961 . S
H365 C351 0.958 . S
H366 C351 0.961 . S
H367 C351 0.960 . S
C368 C369 1.391 . S
C368 C370 1.394 . S
C368 H384 0.931 . S
C369 C368 1.391 . S
C369 C373 1.376 . S
C370 C368 1.394 . S
C370 C371 1.369 . S
C370 C374 1.531 1_565 S
C371 C370 1.369 . S
C371 C372 1.410 . S
C371 C379 1.503 1_565 S
C372 C371 1.410 . S
C372 C373 1.392 . S
C372 C375 1.511 . S
C373 C369 1.376 . S
C373 C372 1.392 . S
C373 H385 0.929 . S
C374 C370 1.531 1_545 S
C374 H386 0.960 . S
C374 H387 0.962 . S
C374 H388 0.960 . S
C375 C372 1.511 . S
C375 H389 0.961 . S
C375 H390 0.961 . S
C375 H391 0.961 . S
C376 C377 1.370 . S
C376 C378 1.363 . S
C376 H392 0.931 . S
C377 C376 1.370 . S
C377 C381 1.408 . S
C378 C376 1.363 . S
C378 C379 1.370 . S
C378 C382 1.524 1_545 S
C379 C371 1.503 1_545 S
C379 C378 1.370 . S
C379 C380 1.403 . S
C380 C379 1.403 . S
C380 C381 1.404 . S
C380 C383 1.539 . S
C381 C377 1.408 . S
C381 C380 1.404 . S
C381 H393 0.930 . S
C382 C378 1.524 1_565 S
C382 H394 0.956 1_565 S
C382 H395 0.961 . S
C382 H396 0.961 1_565 S
C383 C380 1.539 . S
C383 H397 0.958 . S
C383 H398 0.961 . S
C383 H399 0.960 . S
H384 C368 0.931 . S
H385 C373 0.929 . S
H386 C374 0.960 . S
H387 C374 0.962 . S
H388 C374 0.960 . S
H389 C375 0.961 . S
H390 C375 0.961 . S
H391 C375 0.961 . S
H392 C376 0.931 . S
H393 C381 0.930 . S
H394 C382 0.956 1_545 S
H395 C382 0.961 . S
H396 C382 0.961 1_545 S
H397 C383 0.958 . S
H398 C383 0.961 . S
H399 C383 0.960 . S
C400 C401 1.391 . S
C400 C402 1.394 . S
C400 H416 0.931 . S
C401 C400 1.391 . S
C401 C405 1.376 . S
C402 C400 1.394 . S
C402 C403 1.369 . S
C402 C406 1.531 . S
C403 C402 1.369 . S
C403 C404 1.410 . S
C403 C411 1.503 . S
C404 C403 1.410 . S
C404 C405 1.392 . S
C404 C407 1.511 . S
C405 C401 1.376 . S
C405 C404 1.392 . S
C405 H417 0.929 . S
C406 C402 1.531 . S
C406 H418 0.960 . S
C406 H419 0.962 . S
C406 H420 0.960 . S
C407 C404 1.511 . S
C407 H421 0.961 . S
C407 H422 0.961 . S
C407 H423 0.961 . S
C408 C409 1.370 . S
C408 C410 1.363 . S
C408 H424 0.931 . S
C409 C408 1.370 . S
C409 C413 1.408 . S
C410 C408 1.363 . S
C410 C411 1.370 . S
C410 C414 1.524 . S
C411 C403 1.503 . S
C411 C410 1.370 . S
C411 C412 1.403 . S
C412 C411 1.403 . S
C412 C413 1.404 . S
C412 C415 1.539 . S
C413 C409 1.408 . S
C413 C412 1.404 . S
C413 H425 0.930 . S
C414 C410 1.524 . S
C414 H426 0.956 . S
C414 H427 0.961 . S
C414 H428 0.961 . S
C415 C412 1.539 . S
C415 H429 0.958 . S
C415 H430 0.961 . S
C415 H431 0.960 . S
H416 C400 0.931 . S
H417 C405 0.929 . S
H418 C406 0.960 . S
H419 C406 0.962 . S
H420 C406 0.960 . S
H421 C407 0.961 . S
H422 C407 0.961 . S
H423 C407 0.961 . S
H424 C408 0.931 . S
H425 C413 0.930 . S
H426 C414 0.956 . S
H427 C414 0.961 . S
H428 C414 0.961 . S
H429 C415 0.958 . S
H430 C415 0.961 . S
H431 C415 0.960 . S
C432 C433 1.391 . S
C432 C434 1.394 . S
C432 H448 0.931 . S
C433 C432 1.391 . S
C433 C437 1.376 . S
C434 C432 1.394 . S
C434 C435 1.369 . S
C434 C438 1.531 . S
C435 C434 1.369 . S
C435 C436 1.410 . S
C435 C443 1.503 . S
C436 C435 1.410 . S
C436 C437 1.392 . S
C436 C439 1.511 . S
C437 C433 1.376 . S
C437 C436 1.392 . S
C437 H449 0.929 . S
C438 C434 1.531 . S
C438 H450 0.960 . S
C438 H451 0.962 . S
C438 H452 0.960 . S
C439 C436 1.511 . S
C439 H453 0.961 . S
C439 H454 0.961 . S
C439 H455 0.961 . S
C440 C441 1.370 . S
C440 C442 1.363 . S
C440 H456 0.931 . S
C441 C440 1.370 . S
C441 C445 1.408 . S
C442 C440 1.363 . S
C442 C443 1.370 . S
C442 C446 1.524 . S
C443 C435 1.503 . S
C443 C442 1.370 . S
C443 C444 1.403 . S
C444 C443 1.403 . S
C444 C445 1.404 . S
C444 C447 1.539 . S
C445 C441 1.408 . S
C445 C444 1.404 . S
C445 H457 0.930 . S
C446 C442 1.524 . S
C446 H458 0.956 . S
C446 H459 0.961 . S
C446 H460 0.961 . S
C447 C444 1.539 . S
C447 H461 0.958 . S
C447 H462 0.961 . S
C447 H463 0.960 . S
H448 C432 0.931 . S
H449 C437 0.929 . S
H450 C438 0.960 . S
H451 C438 0.962 . S
H452 C438 0.960 . S
H453 C439 0.961 . S
H454 C439 0.961 . S
H455 C439 0.961 . S
H456 C440 0.931 . S
H457 C445 0.930 . S
H458 C446 0.956 . S
H459 C446 0.961 . S
H460 C446 0.961 . S
H461 C447 0.958 . S
H462 C447 0.961 . S
H463 C447 0.960 . S
C464 C465 1.391 . S
C464 C466 1.394 . S
C464 H480 0.931 . S
C465 C464 1.391 . S
C465 C469 1.376 . S
C466 C464 1.394 . S
C466 C467 1.369 . S
C466 C470 1.531 . S
C467 C466 1.369 . S
C467 C468 1.410 . S
C467 C475 1.503 . S
C468 C467 1.410 . S
C468 C469 1.392 . S
C468 C471 1.511 . S
C469 C465 1.376 . S
C469 C468 1.392 . S
C469 H481 0.929 . S
C470 C466 1.531 . S
C470 H482 0.960 . S
C470 H483 0.962 . S
C470 H484 0.960 . S
C471 C468 1.511 . S
C471 H485 0.961 . S
C471 H486 0.961 . S
C471 H487 0.961 . S
C472 C473 1.370 . S
C472 C474 1.363 . S
C472 H488 0.931 . S
C473 C472 1.370 . S
C473 C477 1.408 . S
C474 C472 1.363 . S
C474 C475 1.370 . S
C474 C478 1.524 . S
C475 C467 1.503 . S
C475 C474 1.370 . S
C475 C476 1.403 . S
C476 C475 1.403 . S
C476 C477 1.404 . S
C476 C479 1.539 . S
C477 C473 1.408 . S
C477 C476 1.404 . S
C477 H489 0.930 . S
C478 C474 1.524 . S
C478 H490 0.956 . S
C478 H491 0.961 . S
C478 H492 0.961 . S
C479 C476 1.539 . S
C479 H493 0.958 . S
C479 H494 0.961 . S
C479 H495 0.960 . S
H480 C464 0.931 . S
H481 C469 0.929 . S
H482 C470 0.960 . S
H483 C470 0.962 . S
H484 C470 0.960 . S
H485 C471 0.961 . S
H486 C471 0.961 . S
H487 C471 0.961 . S
H488 C472 0.931 . S
H489 C477 0.930 . S
H490 C478 0.956 . S
H491 C478 0.961 . S
H492 C478 0.961 . S
H493 C479 0.958 . S
H494 C479 0.961 . S
H495 C479 0.960 . S
C496 C497 1.391 . S
C496 C498 1.394 . S
C496 H512 0.931 . S
C497 C496 1.391 . S
C497 C501 1.376 . S
C498 C496 1.394 . S
C498 C499 1.369 . S
C498 C502 1.531 . S
C499 C498 1.369 . S
C499 C500 1.410 . S
C499 C507 1.503 . S
C500 C499 1.410 . S
C500 C501 1.392 . S
C500 C503 1.511 . S
C501 C497 1.376 . S
C501 C500 1.392 . S
C501 H513 0.929 . S
C502 C498 1.531 . S
C502 H514 0.960 . S
C502 H515 0.962 . S
C502 H516 0.960 . S
C503 C500 1.511 . S
C503 H517 0.961 . S
C503 H518 0.961 . S
C503 H519 0.961 . S
C504 C505 1.370 . S
C504 C506 1.363 . S
C504 H520 0.931 . S
C505 C504 1.370 . S
C505 C509 1.408 . S
C506 C504 1.363 . S
C506 C507 1.370 . S
C506 C510 1.524 . S
C507 C499 1.503 . S
C507 C506 1.370 . S
C507 C508 1.403 . S
C508 C507 1.403 . S
C508 C509 1.404 . S
C508 C511 1.539 . S
C509 C505 1.408 . S
C509 C508 1.404 . S
C509 H521 0.930 . S
C510 C506 1.524 . S
C510 H522 0.956 . S
C510 H523 0.961 . S
C510 H524 0.961 . S
C511 C508 1.539 . S
C511 H525 0.958 . S
C511 H526 0.961 . S
C511 H527 0.960 . S
H512 C496 0.931 . S
H513 C501 0.929 . S
H514 C502 0.960 . S
H515 C502 0.962 . S
H516 C502 0.960 . S
H517 C503 0.961 . S
H518 C503 0.961 . S
H519 C503 0.961 . S
H520 C504 0.931 . S
H521 C509 0.930 . S
H522 C510 0.956 . S
H523 C510 0.961 . S
H524 C510 0.961 . S
H525 C511 0.958 . S
H526 C511 0.961 . S
H527 C511 0.960 . S
C528 C529 1.391 . S
C528 C530 1.394 . S
C528 H544 0.931 . S
C529 C528 1.391 . S
C529 C533 1.376 . S
C530 C528 1.394 . S
C530 C531 1.369 . S
C530 C534 1.531 . S
C531 C530 1.369 . S
C531 C532 1.410 . S
C531 C539 1.503 . S
C532 C531 1.410 . S
C532 C533 1.392 . S
C532 C535 1.511 . S
C533 C529 1.376 . S
C533 C532 1.392 . S
C533 H545 0.929 . S
C534 C530 1.531 . S
C534 H546 0.960 . S
C534 H547 0.962 . S
C534 H548 0.960 . S
C535 C532 1.511 . S
C535 H549 0.961 . S
C535 H550 0.961 . S
C535 H551 0.961 . S
C536 C537 1.370 . S
C536 C538 1.363 . S
C536 H552 0.931 . S
C537 C536 1.370 . S
C537 C541 1.408 . S
C538 C536 1.363 . S
C538 C539 1.370 . S
C538 C542 1.524 . S
C539 C531 1.503 . S
C539 C538 1.370 . S
C539 C540 1.403 . S
C540 C539 1.403 . S
C540 C541 1.404 . S
C540 C543 1.539 . S
C541 C537 1.408 . S
C541 C540 1.404 . S
C541 H553 0.930 . S
C542 C538 1.524 . S
C542 H554 0.956 . S
C542 H555 0.961 . S
C542 H556 0.961 . S
C543 C540 1.539 . S
C543 H557 0.958 . S
C543 H558 0.961 . S
C543 H559 0.960 . S
H544 C528 0.931 . S
H545 C533 0.929 . S
H546 C534 0.960 . S
H547 C534 0.962 . S
H548 C534 0.960 . S
H549 C535 0.961 . S
H550 C535 0.961 . S
H551 C535 0.961 . S
H552 C536 0.931 . S
H553 C541 0.930 . S
H554 C542 0.956 . S
H555 C542 0.961 . S
H556 C542 0.961 . S
H557 C543 0.958 . S
H558 C543 0.961 . S
H559 C543 0.960 . S
C560 C561 1.391 . S
C560 C562 1.394 . S
C560 H576 0.931 . S
C561 C560 1.391 . S
C561 C565 1.376 . S
C562 C560 1.394 . S
C562 C563 1.369 . S
C562 C566 1.531 . S
C563 C562 1.369 . S
C563 C564 1.410 . S
C563 C571 1.503 . S
C564 C563 1.410 . S
C564 C565 1.392 . S
C564 C567 1.511 . S
C565 C561 1.376 . S
C565 C564 1.392 . S
C565 H577 0.929 . S
C566 C562 1.531 . S
C566 H578 0.960 . S
C566 H579 0.962 . S
C566 H580 0.960 . S
C567 C564 1.511 . S
C567 H581 0.961 . S
C567 H582 0.961 . S
C567 H583 0.961 . S
C568 C569 1.370 . S
C568 C570 1.363 . S
C568 H584 0.931 . S
C569 C568 1.370 . S
C569 C573 1.408 . S
C570 C568 1.363 . S
C570 C571 1.370 . S
C570 C574 1.524 . S
C571 C563 1.503 . S
C571 C570 1.370 . S
C571 C572 1.403 . S
C572 C571 1.403 . S
C572 C573 1.404 . S
C572 C575 1.539 . S
C573 C569 1.408 . S
C573 C572 1.404 . S
C573 H585 0.930 . S
C574 C570 1.524 . S
C574 H586 0.956 . S
C574 H587 0.961 . S
C574 H588 0.961 . S
C575 C572 1.539 . S
C575 H589 0.958 . S
C575 H590 0.961 . S
C575 H591 0.960 . S
H576 C560 0.931 . S
H577 C565 0.929 . S
H578 C566 0.960 . S
H579 C566 0.962 . S
H580 C566 0.960 . S
H581 C567 0.961 . S
H582 C567 0.961 . S
H583 C567 0.961 . S
H584 C568 0.931 . S
H585 C573 0.930 . S
H586 C574 0.956 . S
H587 C574 0.961 . S
H588 C574 0.961 . S
H589 C575 0.958 . S
H590 C575 0.961 . S
H591 C575 0.960 . S
C592 C593 1.391 . S
C592 C594 1.394 1_554 S
C592 H608 0.931 . S
C593 C592 1.391 . S
C593 C597 1.376 . S
C594 C592 1.394 1_556 S
C594 C595 1.369 . S
C594 C598 1.531 . S
C595 C594 1.369 . S
C595 C596 1.410 1_556 S
C595 C603 1.503 . S
C596 C595 1.410 1_554 S
C596 C597 1.392 . S
C596 C599 1.511 . S
C597 C593 1.376 . S
C597 C596 1.392 . S
C597 H609 0.929 . S
C598 C594 1.531 . S
C598 H610 0.960 . S
C598 H611 0.962 . S
C598 H612 0.960 . S
C599 C596 1.511 . S
C599 H613 0.961 . S
C599 H614 0.961 . S
C599 H615 0.961 . S
C600 C601 1.370 . S
C600 C602 1.363 . S
C600 H616 0.931 . S
C601 C600 1.370 . S
C601 C605 1.408 . S
C602 C600 1.363 . S
C602 C603 1.370 . S
C602 C606 1.533 . S
C603 C595 1.503 . S
C603 C602 1.370 . S
C603 C604 1.403 . S
C604 C603 1.403 . S
C604 C605 1.404 . S
C604 C607 1.539 . S
C605 C601 1.408 . S
C605 C604 1.404 . S
C605 H617 0.930 . S
C606 C602 1.533 . S
C606 H618 0.960 . S
C606 H619 0.947 1_556 S
C606 H620 0.962 . S
C607 C604 1.539 . S
C607 H621 0.958 . S
C607 H622 0.961 . S
C607 H623 0.960 . S
H608 C592 0.931 . S
H609 C597 0.929 . S
H610 C598 0.960 . S
H611 C598 0.962 . S
H612 C598 0.960 . S
H613 C599 0.961 . S
H614 C599 0.961 . S
H615 C599 0.961 . S
H616 C600 0.931 . S
H617 C605 0.930 . S
H618 C606 0.960 . S
H619 C606 0.947 1_554 S
H620 C606 0.962 . S
H621 C607 0.958 . S
H622 C607 0.961 . S
H623 C607 0.960 . S
C624 C625 1.391 . S
C624 C626 1.394 . S
C624 H640 0.931 . S
C625 C624 1.391 . S
C625 C629 1.376 . S
C626 C624 1.394 . S
C626 C627 1.369 . S
C626 C630 1.531 1_556 S
C627 C626 1.369 . S
C627 C628 1.410 . S
C627 C635 1.503 1_556 S
C628 C627 1.410 . S
C628 C629 1.392 . S
C628 C631 1.511 . S
C629 C625 1.376 . S
C629 C628 1.392 . S
C629 H641 0.929 . S
C630 C626 1.531 1_554 S
C630 H642 0.960 . S
C630 H643 0.962 . S
C630 H644 0.960 . S
C631 C628 1.511 . S
C631 H645 0.961 . S
C631 H646 0.961 . S
C631 H647 0.961 . S
C632 C633 1.370 . S
C632 C634 1.363 . S
C632 H648 0.931 . S
C633 C632 1.370 . S
C633 C637 1.408 . S
C634 C632 1.363 . S
C634 C635 1.370 . S
C634 C638 1.524 1_554 S
C635 C627 1.503 1_554 S
C635 C634 1.370 . S
C635 C636 1.403 . S
C636 C635 1.403 . S
C636 C637 1.404 . S
C636 C639 1.539 . S
C637 C633 1.408 . S
C637 C636 1.404 . S
C637 H649 0.930 . S
C638 C634 1.524 1_556 S
C638 H650 0.956 1_556 S
C638 H651 0.961 . S
C638 H652 0.961 1_556 S
C639 C636 1.539 . S
C639 H653 0.958 . S
C639 H654 0.961 . S
C639 H655 0.960 1_554 S
H640 C624 0.931 . S
H641 C629 0.929 . S
H642 C630 0.960 . S
H643 C630 0.962 . S
H644 C630 0.960 . S
H645 C631 0.961 . S
H646 C631 0.961 . S
H647 C631 0.961 . S
H648 C632 0.931 . S
H649 C637 0.930 . S
H650 C638 0.956 1_554 S
H651 C638 0.961 . S
H652 C638 0.961 1_554 S
H653 C639 0.958 . S
H654 C639 0.961 . S
H655 C639 0.960 1_556 S
C656 C657 1.391 . S
C656 C658 1.394 1_455 S
C656 H672 0.931 1_455 S
C657 C656 1.391 . S
C657 C661 1.376 . S
C658 C656 1.394 1_655 S
C658 C659 1.369 1_655 S
C658 C662 1.531 . S
C659 C658 1.369 1_455 S
C659 C660 1.410 . S
C659 C667 1.503 1_455 S
C660 C659 1.410 . S
C660 C661 1.392 . S
C660 C663 1.511 . S
C661 C657 1.376 . S
C661 C660 1.392 . S
C661 H673 0.929 . S
C662 C658 1.531 . S
C662 H674 0.960 . S
C662 H675 0.962 . S
C662 H676 0.960 . S
C663 C660 1.511 . S
C663 H677 0.961 . S
C663 H678 0.961 . S
C663 H679 0.961 . S
C664 C665 1.370 . S
C664 C666 1.363 . S
C664 H680 0.931 . S
C665 C664 1.370 . S
C665 C669 1.408 . S
C666 C664 1.363 . S
C666 C667 1.370 . S
C666 C670 1.524 . S
C667 C659 1.503 1_655 S
C667 C666 1.370 . S
C667 C668 1.403 1_655 S
C668 C667 1.403 1_455 S
C668 C669 1.404 1_455 S
C668 C671 1.539 . S
C669 C665 1.408 . S
C669 C668 1.404 1_655 S
C669 H681 0.930 . S
C670 C666 1.524 . S
C670 H682 0.956 . S
C670 H683 0.961 . S
C670 H684 0.961 . S
C671 C668 1.539 . S
C671 H685 0.958 . S
C671 H686 0.961 . S
C671 H687 0.960 . S
H672 C656 0.931 1_655 S
H673 C661 0.929 . S
H674 C662 0.960 . S
H675 C662 0.962 . S
H676 C662 0.960 . S
H677 C663 0.961 . S
H678 C663 0.961 . S
H679 C663 0.961 . S
H680 C664 0.931 . S
H681 C669 0.930 . S
H682 C670 0.956 . S
H683 C670 0.961 . S
H684 C670 0.961 . S
H685 C671 0.958 . S
H686 C671 0.961 . S
H687 C671 0.960 . S
C688 C689 1.391 . S
C688 C690 1.394 1_455 S
C688 H704 0.931 1_455 S
C689 C688 1.391 . S
C689 C693 1.376 . S
C690 C688 1.394 1_655 S
C690 C691 1.369 1_655 S
C690 C694 1.531 . S
C691 C690 1.369 1_455 S
C691 C692 1.410 . S
C691 C699 1.503 1_455 S
C692 C691 1.410 . S
C692 C693 1.392 . S
C692 C695 1.511 . S
C693 C689 1.376 . S
C693 C692 1.392 . S
C693 H705 0.929 . S
C694 C690 1.531 . S
C694 H706 0.960 . S
C694 H707 0.962 . S
C694 H708 0.960 . S
C695 C692 1.511 . S
C695 H709 0.961 . S
C695 H710 0.961 . S
C695 H711 0.961 . S
C696 C697 1.370 . S
C696 C698 1.363 . S
C696 H712 0.931 . S
C697 C696 1.370 . S
C697 C701 1.408 . S
C698 C696 1.363 . S
C698 C699 1.370 . S
C698 C702 1.524 . S
C699 C691 1.503 1_655 S
C699 C698 1.370 . S
C699 C700 1.403 . S
C700 C699 1.403 . S
C700 C701 1.404 . S
C700 C703 1.539 1_655 S
C701 C697 1.408 . S
C701 C700 1.404 . S
C701 H713 0.930 . S
C702 C698 1.524 . S
C702 H714 0.956 . S
C702 H715 0.988 . S
C702 H716 0.961 . S
C703 C700 1.539 1_455 S
C703 H717 0.957 1_455 S
C703 H718 0.961 . S
C703 H719 0.960 . S
H704 C688 0.931 1_655 S
H705 C693 0.929 . S
H706 C694 0.960 . S
H707 C694 0.962 . S
H708 C694 0.960 . S
H709 C695 0.961 . S
H710 C695 0.961 . S
H711 C695 0.961 . S
H712 C696 0.931 . S
H713 C701 0.930 . S
H714 C702 0.956 . S
H715 C702 0.988 . S
H716 C702 0.961 . S
H717 C703 0.957 1_655 S
H718 C703 0.961 . S
H719 C703 0.960 . S
C720 C721 1.391 . S
C720 C722 1.394 . S
C720 H736 0.931 . S
C721 C720 1.391 . S
C721 C725 1.376 . S
C722 C720 1.394 . S
C722 C723 1.369 . S
C722 C726 1.531 . S
C723 C722 1.369 . S
C723 C724 1.410 . S
C723 C731 1.503 1_455 S
C724 C723 1.410 . S
C724 C725 1.392 . S
C724 C727 1.511 1_455 S
C725 C721 1.376 . S
C725 C724 1.392 . S
C725 H737 0.929 . S
C726 C722 1.531 . S
C726 H738 0.960 . S
C726 H739 0.962 . S
C726 H740 0.960 . S
C727 C724 1.511 1_655 S
C727 H741 0.961 . S
C727 H742 0.961 . S
C727 H743 0.961 . S
C728 C729 1.370 . S
C728 C730 1.363 . S
C728 H744 0.931 1_556 S
C729 C728 1.370 . S
C729 C733 1.408 . S
C730 C728 1.363 . S
C730 C731 1.370 . S
C730 C734 1.524 1_655 S
C731 C723 1.503 1_655 S
C731 C730 1.370 . S
C731 C732 1.403 . S
C732 C731 1.403 . S
C732 C733 1.404 . S
C732 C735 1.539 . S
C733 C729 1.408 . S
C733 C732 1.404 . S
C733 H745 0.930 . S
C734 C730 1.524 1_455 S
C734 H746 0.956 . S
C734 H747 0.961 . S
C734 H748 0.961 . S
C735 C732 1.539 . S
C735 H749 0.958 . S
C735 H750 0.961 . S
C735 H751 0.960 . S
H736 C720 0.931 . S
H737 C725 0.929 . S
H738 C726 0.960 . S
H739 C726 0.962 . S
H740 C726 0.960 . S
H741 C727 0.961 . S
H742 C727 0.961 . S
H743 C727 0.961 . S
H744 C728 0.931 1_554 S
H745 C733 0.930 . S
H746 C734 0.956 . S
H747 C734 0.961 . S
H748 C734 0.961 . S
H749 C735 0.958 . S
H750 C735 0.961 . S
H751 C735 0.960 . S
C752 C753 1.391 . S
C752 C754 1.394 . S
C752 H768 0.931 . S
C753 C752 1.391 . S
C753 C757 1.376 . S
C754 C752 1.394 . S
C754 C755 1.369 . S
C754 C758 1.531 . S
C755 C754 1.369 . S
C755 C756 1.410 . S
C755 C763 1.503 1_455 S
C756 C755 1.410 . S
C756 C757 1.392 . S
C756 C759 1.511 . S
C757 C753 1.376 . S
C757 C756 1.392 . S
C757 H769 0.929 . S
C758 C754 1.531 . S
C758 H770 0.960 1_455 S
C758 H771 0.962 1_455 S
C758 H772 0.960 . S
C759 C756 1.511 . S
C759 H773 0.961 . S
C759 H774 0.961 . S
C759 H775 0.961 . S
C760 C761 1.370 . S
C760 C762 1.363 . S
C760 H776 0.931 . S
C761 C760 1.370 . S
C761 C765 1.408 . S
C762 C760 1.363 . S
C762 C763 1.370 . S
C762 C766 1.524 . S
C763 C755 1.503 1_655 S
C763 C762 1.370 . S
C763 C764 1.403 . S
C764 C763 1.403 . S
C764 C765 1.404 . S
C764 C767 1.539 1_655 S
C765 C761 1.408 . S
C765 C764 1.404 . S
C765 H777 0.930 . S
C766 C762 1.524 . S
C766 H778 0.956 . S
C766 H779 0.961 . S
C766 H780 0.961 . S
C767 C764 1.539 1_455 S
C767 H781 0.958 . S
C767 H782 0.961 . S
C767 H783 0.960 . S
H768 C752 0.931 . S
H769 C757 0.929 . S
H770 C758 0.960 1_655 S
H771 C758 0.962 1_655 S
H772 C758 0.960 . S
H773 C759 0.961 . S
H774 C759 0.961 . S
H775 C759 0.961 . S
H776 C760 0.931 . S
H777 C765 0.930 . S
H778 C766 0.956 . S
H779 C766 0.961 . S
H780 C766 0.961 . S
H781 C767 0.958 . S
H782 C767 0.961 . S
H783 C767 0.960 . S
C784 C785 1.391 . S
C784 C786 1.394 1_554 S
C784 H800 0.931 . S
C785 C784 1.391 . S
C785 C789 1.376 1_554 S
C786 C784 1.394 1_556 S
C786 C787 1.369 . S
C786 C790 1.531 . S
C787 C786 1.369 . S
C787 C788 1.410 . S
C787 C795 1.503 . S
C788 C787 1.410 . S
C788 C789 1.392 . S
C788 C791 1.511 . S
C789 C785 1.376 1_556 S
C789 C788 1.392 . S
C789 H801 0.929 . S
C790 C786 1.531 . S
C790 H802 0.960 . S
C790 H803 0.962 . S
C790 H804 0.960 . S
C791 C788 1.511 . S
C791 H805 0.961 . S
C791 H806 0.961 . S
C791 H807 0.961 . S
C792 C793 1.370 . S
C792 C794 1.363 . S
C792 H808 0.931 . S
C793 C792 1.370 . S
C793 C797 1.408 . S
C794 C792 1.363 . S
C794 C795 1.370 . S
C794 C798 1.524 . S
C795 C787 1.503 . S
C795 C794 1.370 . S
C795 C796 1.403 . S
C796 C795 1.403 . S
C796 C797 1.404 . S
C796 C799 1.539 . S
C797 C793 1.408 . S
C797 C796 1.404 . S
C797 H809 0.930 . S
C798 C794 1.524 . S
C798 H810 0.956 . S
C798 H811 0.961 . S
C798 H812 0.961 . S
C799 C796 1.539 . S
C799 H813 0.958 . S
C799 H814 0.961 . S
C799 H815 0.960 . S
H800 C784 0.931 . S
H801 C789 0.929 . S
H802 C790 0.960 . S
H803 C790 0.962 . S
H804 C790 0.960 . S
H805 C791 0.961 . S
H806 C791 0.961 . S
H807 C791 0.961 . S
H808 C792 0.931 . S
H809 C797 0.930 . S
H810 C798 0.956 . S
H811 C798 0.961 . S
H812 C798 0.961 . S
H813 C799 0.958 . S
H814 C799 0.961 . S
H815 C799 0.960 . S
C816 C817 1.391 . S
C816 C818 1.394 . S
C816 H832 0.931 . S
C817 C816 1.391 . S
C817 C821 1.376 . S
C818 C816 1.394 . S
C818 C819 1.369 . S
C818 C822 1.531 . S
C819 C818 1.369 . S
C819 C820 1.410 . S
C819 C827 1.503 . S
C820 C819 1.410 . S
C820 C821 1.392 . S
C820 C823 1.511 . S
C821 C817 1.376 . S
C821 C820 1.392 . S
C821 H833 0.929 . S
C822 C818 1.531 . S
C822 H834 0.960 . S
C822 H835 0.962 . S
C822 H836 0.960 . S
C823 C820 1.511 . S
C823 H837 0.961 . S
C823 H838 0.961 . S
C823 H839 0.961 . S
C824 C825 1.370 1_556 S
C824 C826 1.363 . S
C824 H840 0.931 . S
C825 C824 1.370 1_554 S
C825 C829 1.408 . S
C826 C824 1.363 . S
C826 C827 1.370 . S
C826 C830 1.524 . S
C827 C819 1.503 . S
C827 C826 1.370 . S
C827 C828 1.403 . S
C828 C827 1.403 . S
C828 C829 1.404 1_556 S
C828 C831 1.539 . S
C829 C825 1.408 . S
C829 C828 1.404 1_554 S
C829 H841 0.930 . S
C830 C826 1.524 . S
C830 H842 0.956 . S
C830 H843 0.961 . S
C830 H844 0.961 . S
C831 C828 1.539 . S
C831 H845 0.958 . S
C831 H846 0.961 . S
C831 H847 0.960 . S
H832 C816 0.931 . S
H833 C821 0.929 . S
H834 C822 0.960 . S
H835 C822 0.962 . S
H836 C822 0.960 . S
H837 C823 0.961 . S
H838 C823 0.961 . S
H839 C823 0.961 . S
H840 C824 0.931 . S
H841 C829 0.930 . S
H842 C830 0.956 . S
H843 C830 0.961 . S
H844 C830 0.961 . S
H845 C831 0.958 . S
H846 C831 0.961 . S
H847 C831 0.960 . S
C848 C849 1.391 . S
C848 C850 1.394 . S
C848 H864 0.931 . S
C849 C848 1.391 . S
C849 C853 1.376 . S
C850 C848 1.394 . S
C850 C851 1.369 . S
C850 C854 1.531 . S
C851 C850 1.369 . S
C851 C852 1.410 . S
C851 C859 1.503 . S
C852 C851 1.410 . S
C852 C853 1.392 . S
C852 C855 1.511 . S
C853 C849 1.376 . S
C853 C852 1.392 . S
C853 H865 0.929 . S
C854 C850 1.531 . S
C854 H866 0.960 . S
C854 H867 0.962 . S
C854 H868 0.960 . S
C855 C852 1.511 . S
C855 H869 0.961 . S
C855 H870 0.961 . S
C855 H871 0.961 . S
C856 C857 1.370 . S
C856 C858 1.363 . S
C856 H872 0.931 . S
C857 C856 1.370 . S
C857 C861 1.408 . S
C858 C856 1.363 . S
C858 C859 1.370 . S
C858 C862 1.524 . S
C859 C851 1.503 . S
C859 C858 1.370 . S
C859 C860 1.403 . S
C860 C859 1.403 . S
C860 C861 1.404 . S
C860 C863 1.539 . S
C861 C857 1.408 . S
C861 C860 1.404 . S
C861 H873 0.930 . S
C862 C858 1.524 . S
C862 H874 0.956 . S
C862 H875 0.961 . S
C862 H876 0.961 . S
C863 C860 1.539 . S
C863 H877 0.958 . S
C863 H878 0.961 . S
C863 H879 0.960 . S
H864 C848 0.931 . S
H865 C853 0.929 . S
H866 C854 0.960 . S
H867 C854 0.962 . S
H868 C854 0.960 . S
H869 C855 0.961 . S
H870 C855 0.961 . S
H871 C855 0.961 . S
H872 C856 0.931 . S
H873 C861 0.930 . S
H874 C862 0.956 . S
H875 C862 0.961 . S
H876 C862 0.961 . S
H877 C863 0.958 . S
H878 C863 0.961 . S
H879 C863 0.960 . S
C880 C881 1.391 . S
C880 C882 1.394 . S
C880 H896 0.931 . S
C881 C880 1.391 . S
C881 C885 1.376 . S
C882 C880 1.394 . S
C882 C883 1.369 . S
C882 C886 1.531 . S
C883 C882 1.369 . S
C883 C884 1.410 . S
C883 C891 1.503 . S
C884 C883 1.410 . S
C884 C885 1.392 . S
C884 C887 1.511 . S
C885 C881 1.376 . S
C885 C884 1.392 . S
C885 H897 0.929 . S
C886 C882 1.531 . S
C886 H898 0.960 . S
C886 H899 0.962 . S
C886 H900 0.960 . S
C887 C884 1.511 . S
C887 H901 0.961 . S
C887 H902 0.961 . S
C887 H903 0.961 . S
C888 C889 1.370 . S
C888 C890 1.363 . S
C888 H904 0.931 . S
C889 C888 1.370 . S
C889 C893 1.408 . S
C890 C888 1.363 . S
C890 C891 1.370 . S
C890 C894 1.524 . S
C891 C883 1.503 . S
C891 C890 1.370 . S
C891 C892 1.403 . S
C892 C891 1.403 . S
C892 C893 1.404 . S
C892 C895 1.539 . S
C893 C889 1.408 . S
C893 C892 1.404 . S
C893 H905 0.930 . S
C894 C890 1.524 . S
C894 H906 0.956 . S
C894 H907 0.961 . S
C894 H908 0.961 . S
C895 C892 1.539 . S
C895 H909 0.958 . S
C895 H910 0.961 . S
C895 H911 0.960 . S
H896 C880 0.931 . S
H897 C885 0.929 . S
H898 C886 0.960 . S
H899 C886 0.962 . S
H900 C886 0.960 . S
H901 C887 0.961 . S
H902 C887 0.961 . S
H903 C887 0.961 . S
H904 C888 0.931 . S
H905 C893 0.930 . S
H906 C894 0.956 . S
H907 C894 0.961 . S
H908 C894 0.961 . S
H909 C895 0.958 . S
H910 C895 0.961 . S
H911 C895 0.960 . S
C273 C33 1.542 . S
C281 C67 1.564 . S
C305 C135 1.551 . S
C313 C101 1.560 . S
C337 C169 1.556 . S
C345 C203 1.558 . S
C369 C271 1.559 . S
C377 C237 1.558 . S
C401 C179 1.406 . S
C409 C20 1.491 . S
C433 C145 1.419 . S
C441 C54 1.490 . S
C465 C247 1.439 . S
C473 C88 1.490 . S
C497 C122 1.504 . S
C505 C213 1.382 . S
C529 C43 1.355 . S
C537 C156 1.501 . S
C561 C9 1.391 . S
C569 C190 1.493 . S
C593 C224 1.504 . S
C601 C111 1.382 . S
C625 C77 1.356 . S
C633 C258 1.500 . S
C657 C5 1.436 . S
C665 C107 1.455 . S
C689 C73 1.439 . S
C697 C39 1.454 . S
C721 C70 0.986 . S
C729 C36 0.974 1_556 S
C753 C2 0.952 1_556 S
C761 C104 0.956 . S
C785 C243 1.433 . S
C793 C141 1.456 . S
C817 C175 1.428 . S
C825 C209 1.457 . S
C849 C206 0.992 . S
C857 C172 0.976 . S
C881 C138 0.998 . S
C889 C240 0.978 . S
