# Generated by pormake.
# Topology snk, (6)-cn, num edge types: 1
# Building blocks:
#     Node 0, Type 0, BuildingBlock: PAMTUU_clean_sbu_0, # of connection points: 6
#     Node 1, Type 0, BuildingBlock: PAMTUU_clean_sbu_0, # of connection points: 6
#     Node 2, Type 0, BuildingBlock: PAMTUU_clean_sbu_0, # of connection points: 6
#     Node 3, Type 0, BuildingBlock: PAMTUU_clean_sbu_0, # of connection points: 6
#     Node 4, Type 0, BuildingBlock: PAMTUU_clean_sbu_0, # of connection points: 6
#     Node 5, Type 0, BuildingBlock: PAMTUU_clean_sbu_0, # of connection points: 6
#     Node 6, Type 0, BuildingBlock: PAMTUU_clean_sbu_0, # of connection points: 6
#     Node 7, Type 0, BuildingBlock: PAMTUU_clean_sbu_0, # of connection points: 6
#     Edge 8, Type (0, 0), BuildingBlock: OJICUG_clean_linker_0, # of connection points: 2
#     Edge 9, Type (0, 0), BuildingBlock: OJICUG_clean_linker_0, # of connection points: 2
#     Edge 10, Type (0, 0), BuildingBlock: OJICUG_clean_linker_0, # of connection points: 2
#     Edge 11, Type (0, 0), BuildingBlock: OJICUG_clean_linker_0, # of connection points: 2
#     Edge 12, Type (0, 0), BuildingBlock: OJICUG_clean_linker_0, # of connection points: 2
#     Edge 13, Type (0, 0), BuildingBlock: OJICUG_clean_linker_0, # of connection points: 2
#     Edge 14, Type (0, 0), BuildingBlock: OJICUG_clean_linker_0, # of connection points: 2
#     Edge 15, Type (0, 0), BuildingBlock: OJICUG_clean_linker_0, # of connection points: 2
#     Edge 16, Type (0, 0), BuildingBlock: OJICUG_clean_linker_0, # of connection points: 2
#     Edge 17, Type (0, 0), BuildingBlock: OJICUG_clean_linker_0, # of connection points: 2
#     Edge 18, Type (0, 0), BuildingBlock: OJICUG_clean_linker_0, # of connection points: 2
#     Edge 19, Type (0, 0), BuildingBlock: OJICUG_clean_linker_0, # of connection points: 2
#     Edge 20, Type (0, 0), BuildingBlock: OJICUG_clean_linker_0, # of connection points: 2
#     Edge 21, Type (0, 0), BuildingBlock: OJICUG_clean_linker_0, # of connection points: 2
#     Edge 22, Type (0, 0), BuildingBlock: OJICUG_clean_linker_0, # of connection points: 2
#     Edge 23, Type (0, 0), BuildingBlock: OJICUG_clean_linker_0, # of connection points: 2
#     Edge 24, Type (0, 0), BuildingBlock: OJICUG_clean_linker_0, # of connection points: 2
#     Edge 25, Type (0, 0), BuildingBlock: OJICUG_clean_linker_0, # of connection points: 2
#     Edge 26, Type (0, 0), BuildingBlock: OJICUG_clean_linker_0, # of connection points: 2
#     Edge 27, Type (0, 0), BuildingBlock: OJICUG_clean_linker_0, # of connection points: 2
#     Edge 28, Type (0, 0), BuildingBlock: OJICUG_clean_linker_0, # of connection points: 2
#     Edge 29, Type (0, 0), BuildingBlock: OJICUG_clean_linker_0, # of connection points: 2
#     Edge 30, Type (0, 0), BuildingBlock: OJICUG_clean_linker_0, # of connection points: 2
#     Edge 31, Type (0, 0), BuildingBlock: OJICUG_clean_linker_0, # of connection points: 2
# Relax obj value: 0.116
# Max RMSD: 0.156
# Mean RMSD: 0.156
data_MOF--net-snk--node1-PAMTUU_clean_sbu_0--edge1-OJICUG_clean_linker_0
_symmetry_space_group_name_H-M    P1
_symmetry_Int_Tables_number       1
_symmetry_cell_setting            triclinic
loop_
_symmetry_equiv_pos_as_xyz
'x, y, z'
_cell_length_a     27.67189
_cell_length_b     27.64159
_cell_length_c     20.712864
_cell_angle_alpha  89.976867
_cell_angle_beta   89.878457
_cell_angle_gamma 89.848507
loop_
_atom_site_label
_atom_site_type_symbol
_atom_site_fract_x
_atom_site_fract_y
_atom_site_fract_z
_atom_type_partial_charge
Tb0 Tb 0.97628 0.01874 0.61168 0.0
Tb1 Tb 0.97876 0.9484 0.48067 0.0
C2 C 0.91255 0.04124 0.49046 0.0
C3 C 0.97116 0.04948 0.78396 0.0
C4 C 0.96561 0.01844 0.91385 0.0
C5 C 0.96311 0.06802 0.89815 0.0
C6 C 0.96594 0.08336 0.83378 0.0
C7 C 0.97274 1e-05 0.79911 0.0
C8 C 0.97015 -0.01536 0.86333 0.0
C9 C 0.97568 0.06551 0.71641 0.0
O10 O 0.91669 0.96817 0.62045 0.0
O11 O 0.94219 0.9061 0.55416 0.0
O12 O 0.04095 0.92903 0.53995 0.0
O13 O 0.01062 0.95152 0.63857 0.0
O14 O 0.94309 0.90517 0.41228 0.0
O15 O 0.01976 0.91809 0.40541 0.0
O16 O 0.00931 0.01723 0.45381 0.0
O17 O 0.03769 0.04133 0.55257 0.0
O18 O 0.93775 0.05936 0.53834 0.0
O19 O 0.91707 -0.00362 0.4705 0.0
C20 C 0.91518 0.92282 0.60152 0.0
O21 O 0.01496 0.0516 0.6868 0.0
O22 O 0.93755 0.05934 0.68048 0.0
C23 C 0.0412 0.92675 0.60334 0.0
C24 C 0.97578 0.91817 0.30879 0.0
C25 C 0.96846 0.95113 0.18004 0.0
C26 C 0.97611 0.90173 0.19355 0.0
C27 C 0.97983 0.88543 0.25744 0.0
C28 C 0.96745 0.96729 0.29564 0.0
C29 C 0.96382 -0.01637 0.23196 0.0
C30 C -0.01847 0.90175 0.37596 0.0
C31 C 0.03839 0.04336 0.48913 0.0
H32 H 0.9588 0.09503 0.93559 0.0
H33 H 0.96432 0.12168 0.82294 0.0
H34 H 0.97658 0.97324 0.76125 0.0
H35 H 0.97285 0.94628 0.87338 0.0
H36 H -0.01963 0.87582 0.15473 0.0
H37 H -0.01356 0.84741 0.2667 0.0
H38 H 0.96418 -0.00694 0.33475 0.0
H39 H 0.95725 0.02175 0.22343 0.0
Tb40 Tb 0.19502 0.7333 0.85631 0.0
Tb41 Tb 0.26534 0.73244 0.72549 0.0
C42 C 0.17131 0.67111 0.73304 0.0
C43 C 0.16444 0.73641 1.02864 0.0
C44 C 0.19587 0.74097 0.15832 0.0
C45 C 0.1462 0.73976 0.14335 0.0
C46 C 0.13068 0.73739 0.07909 0.0
C47 C 0.21393 0.73847 1.04308 0.0
C48 C 0.2295 0.74058 0.10719 0.0
C49 C 0.14836 0.73201 0.96117 0.0
O50 O 0.26312 0.70168 0.88388 0.0
O51 O 0.28683 0.67119 0.78598 0.0
O52 O 0.30651 0.77086 0.7981 0.0
O53 O 0.24393 0.79439 0.86495 0.0
O54 O 0.29712 0.69181 0.65097 0.0
O55 O 0.30724 0.76902 0.65621 0.0
O56 O 0.21659 0.79385 0.71596 0.0
O57 O 0.15405 0.77164 0.78352 0.0
O58 O 0.17275 0.67208 0.79656 0.0
O59 O 0.19751 0.70039 0.69796 0.0
C60 C 0.28896 0.67162 0.84941 0.0
O61 O 0.15348 0.77057 0.92552 0.0
O62 O 0.16322 0.69324 0.93117 0.0
C63 C 0.28904 0.79755 0.84529 0.0
C64 C 0.29569 0.73482 0.55337 0.0
C65 C 0.26317 0.73967 0.42432 0.0
C66 C 0.31281 0.7353 0.43823 0.0
C67 C 0.32889 0.73275 0.50227 0.0
C68 C 0.24626 0.73998 0.5398 0.0
C69 C 0.23014 0.74227 0.47595 0.0
C70 C 0.3121 0.73034 0.6207 0.0
C71 C 0.17166 0.79788 0.73612 0.0
H72 H 0.11922 0.74081 0.18127 0.0
H73 H 0.09233 0.73603 0.06882 0.0
H74 H 0.24059 0.7378 1.00473 0.0
H75 H 0.26797 0.7408 0.11662 0.0
H76 H 0.33912 0.73277 0.39959 0.0
H77 H 0.36716 0.72866 0.51185 0.0
H78 H 0.22007 0.74191 0.57866 0.0
H79 H 0.19179 0.74632 0.46702 0.0
Tb80 Tb 0.48111 0.94649 0.10503 0.0
Tb81 Tb 0.48171 0.01652 0.97396 0.0
C82 C 0.54728 0.92297 0.98557 0.0
C83 C 0.48205 0.91504 0.27686 0.0
C84 C 0.48699 0.94605 0.40668 0.0
C85 C 0.48676 0.89636 0.39129 0.0
C86 C 0.48424 0.88104 0.32692 0.0
C87 C 0.48291 0.96454 0.29176 0.0
C88 C 0.48522 0.97991 0.35594 0.0
C89 C 0.47811 0.89921 0.20923 0.0
O90 O 0.54098 -0.00359 0.11695 0.0
O91 O 0.52181 0.05762 0.04497 0.0
O92 O 0.42072 0.03879 1.03467 0.0
O93 O 0.45069 0.01512 0.13269 0.0
O94 O 0.51769 0.05825 0.90396 0.0
O95 O 0.44059 0.04758 0.89959 0.0
O96 O 0.45083 0.94786 0.94722 0.0
O97 O 0.41935 0.92645 0.04522 0.0
O98 O 0.52089 0.90564 1.03308 0.0
O99 O 0.54295 0.96763 0.96439 0.0
C100 C 0.54632 0.04058 0.09435 0.0
O101 O 0.43988 0.9147 0.17875 0.0
O102 O 0.51707 0.90401 0.17428 0.0
C103 C 0.42105 0.04119 0.09809 0.0
C104 C 0.48309 0.04613 0.80161 0.0
C105 C 0.48735 0.01326 0.67268 0.0
C106 C 0.48228 0.06292 0.68648 0.0
C107 C 0.48003 0.07918 0.75048 0.0
C108 C 0.48891 -0.00331 0.78815 0.0
C109 C 0.49092 0.98039 0.72433 0.0
C110 C 0.47885 0.06273 0.86888 0.0
C111 C 0.42005 0.92321 0.98193 0.0
H112 H 0.48882 0.86926 0.42895 0.0
H113 H 0.48382 0.84267 0.31626 0.0
H114 H 0.48127 -0.00862 0.25373 0.0
H115 H 0.48461 0.01838 0.36576 0.0
H116 H 0.47896 0.0891 0.64782 0.0
H117 H 0.47538 0.11745 0.76001 0.0
H118 H 0.49155 0.97063 0.82707 0.0
H119 H 0.4955 0.94204 0.71543 0.0
Tb120 Tb 0.26694 0.22862 0.36141 0.0
Tb121 Tb 0.19709 0.22919 0.23059 0.0
C122 C 0.29084 0.29079 0.23885 0.0
C123 C 0.29848 0.22378 0.53318 0.0
C124 C 0.26775 0.21818 0.6632 0.0
C125 C 0.31734 0.21892 0.6475 0.0
C126 C 0.33253 0.22178 0.58305 0.0
C127 C 0.24906 0.22226 0.54835 0.0
C128 C 0.23383 0.21962 0.61265 0.0
C129 C 0.31422 0.22841 0.46554 0.0
O130 O 0.20014 0.26339 0.38898 0.0
O131 O 0.17559 0.29096 0.28978 0.0
O132 O 0.15465 0.19322 0.30417 0.0
O133 O 0.21651 0.16888 0.37125 0.0
O134 O 0.16621 0.2693 0.15508 0.0
O135 O 0.15532 0.19222 0.16184 0.0
O136 O 0.24499 0.16712 0.22258 0.0
O137 O 0.30803 0.19114 0.28736 0.0
O138 O 0.28864 0.29033 0.30227 0.0
O139 O 0.26528 0.2611 0.20367 0.0
C140 C 0.17426 0.29265 0.35327 0.0
O141 O 0.30816 0.19018 0.42959 0.0
O142 O 0.29987 0.26762 0.4362 0.0
C143 C 0.17132 0.1668 0.35199 0.0
C144 C 0.16771 0.22523 0.05841 0.0
C145 C 0.20074 0.21907 0.92957 0.0
C146 C 0.15107 0.22376 0.94331 0.0
C147 C 0.13473 0.22693 1.00724 0.0
C148 C 0.21717 0.2197 0.04506 0.0
C149 C 0.23354 0.21672 0.9813 0.0
C150 C 0.15102 0.23057 0.12556 0.0
C151 C 0.29041 0.16442 0.24054 0.0
H152 H 0.3445 0.21711 0.685 0.0
H153 H 0.37083 0.22268 0.57219 0.0
H154 H 0.22219 0.22372 0.51042 0.0
H155 H 0.19541 0.21979 0.62271 0.0
H156 H 0.12492 0.22614 0.9046 0.0
H157 H 0.09644 0.23131 1.01668 0.0
H158 H 0.24319 0.21811 0.08402 0.0
H159 H 0.27192 0.21244 0.97251 0.0
Tb160 Tb 0.69745 0.23216 0.35312 0.0
Tb161 Tb 0.7679 0.23233 0.22212 0.0
C162 C 0.67238 0.16933 0.23167 0.0
C163 C 0.66889 0.22955 0.5259 0.0
C164 C 0.70239 0.22435 0.65446 0.0
C165 C 0.6527 0.22941 0.64122 0.0
C166 C 0.63614 0.23208 0.57745 0.0
C167 C 0.71836 0.22382 0.53874 0.0
C168 C 0.73497 0.22128 0.60236 0.0
C169 C 0.65191 0.23426 0.45887 0.0
O170 O 0.74383 0.16918 0.35913 0.0
O171 O 0.80793 0.19273 0.29548 0.0
O172 O 0.78913 0.29364 0.28194 0.0
O173 O 0.76634 0.26278 0.37989 0.0
O174 O 0.80957 0.19473 0.15337 0.0
O175 O 0.80123 0.27221 0.14823 0.0
O176 O 0.70083 0.26671 0.19471 0.0
O177 O 0.67546 0.29356 0.29399 0.0
O178 O 0.65542 0.19425 0.28087 0.0
O179 O 0.71691 0.17347 0.21011 0.0
C180 C 0.78929 0.16581 0.34158 0.0
O181 O 0.66686 0.27276 0.42852 0.0
O182 O 0.65615 0.19566 0.42313 0.0
C183 C 0.79173 0.29311 0.34526 0.0
C184 C 0.80013 0.22943 0.05039 0.0
C185 C 0.76961 0.22423 0.92041 0.0
C186 C 0.81917 0.22366 0.93606 0.0
C187 C 0.83425 0.22628 1.00051 0.0
C188 C 0.75073 0.22944 1.03521 0.0
C189 C 0.73562 0.22698 0.97096 0.0
C190 C 0.8157 0.23335 0.11813 0.0
C191 C 0.67429 0.29535 0.23058 0.0
H192 H 0.6267 0.23241 0.68018 0.0
H193 H 0.59785 0.23669 0.56841 0.0
H194 H 0.74422 0.2217 0.4995 0.0
H195 H 0.77333 0.21672 0.61073 0.0
H196 H 0.84635 0.22088 0.89854 0.0
H197 H 0.87254 0.22601 1.01136 0.0
H198 H 0.72381 0.23183 0.0731 0.0
H199 H 0.69725 0.22823 0.96092 0.0
Tb200 Tb 0.77065 0.7283 0.86509 0.0
Tb201 Tb 0.70109 0.72696 0.73479 0.0
C202 C 0.79403 0.78941 0.74172 0.0
C203 C 0.80326 0.72301 1.0365 0.0
C204 C 0.77343 0.71592 0.16677 0.0
C205 C 0.82292 0.71688 0.1505 0.0
C206 C 0.83766 0.72046 0.08592 0.0
C207 C 0.75395 0.7213 0.05224 0.0
C208 C 0.73917 0.71791 0.11666 0.0
C209 C 0.81851 0.72821 0.96872 0.0
O210 O 0.70383 0.76325 0.89211 0.0
O211 O 0.6789 0.78947 0.79233 0.0
O212 O 0.65777 0.69306 0.80889 0.0
O213 O 0.71959 0.6689 0.87622 0.0
O214 O 0.67011 0.76561 0.65799 0.0
O215 O 0.66104 0.6884 0.66574 0.0
O216 O 0.7465 0.66267 0.73419 0.0
O217 O 0.81162 0.69174 0.79005 0.0
O218 O 0.79147 0.78994 0.80514 0.0
O219 O 0.76943 0.75838 0.70738 0.0
C220 C 0.67759 0.79177 0.85578 0.0
O221 O 0.81272 0.69006 0.93252 0.0
O222 O 0.80347 0.7674 0.93987 0.0
C223 C 0.67435 0.66676 0.85686 0.0
C224 C 0.67318 0.7209 0.56192 0.0
C225 C 0.70682 0.71499 0.43332 0.0
C226 C 0.65707 0.7195 0.44668 0.0
C227 C 0.64044 0.72255 0.51048 0.0
C228 C 0.72272 0.71556 0.54898 0.0
C229 C 0.7394 0.71272 0.48531 0.0
C230 C 0.65605 0.72632 0.62886 0.0
C231 C 0.79273 0.66186 0.74795 0.0
H232 H 0.85032 0.71468 0.18764 0.0
H233 H 0.87589 0.72147 0.0746 0.0
H234 H 0.72682 0.72317 1.01468 0.0
H235 H 0.70082 0.71794 0.12719 0.0
H236 H 0.63108 0.72185 0.40779 0.0
H237 H 0.6021 0.72682 0.5196 0.0
H238 H 0.74856 0.71401 0.58816 0.0
H239 H 0.77783 0.70862 0.47681 0.0
Tb240 Tb 0.47744 0.51843 0.11193 0.0
Tb241 Tb 0.47795 0.44876 0.98084 0.0
C242 C 0.41351 0.54214 0.99118 0.0
C243 C 0.47208 0.55017 0.28374 0.0
C244 C 0.46609 0.51963 0.41372 0.0
C245 C 0.4669 0.56925 0.39801 0.0
C246 C 0.46995 0.58434 0.33357 0.0
C247 C 0.47048 0.50072 0.29891 0.0
C248 C 0.46762 0.48558 0.3632 0.0
C249 C 0.47696 0.56581 0.21614 0.0
O250 O 0.4176 0.46819 0.12152 0.0
O251 O 0.44199 0.40621 0.05444 0.0
O252 O 0.53957 0.42688 1.03952 0.0
O253 O 0.51231 0.45148 0.13901 0.0
O254 O 0.44078 0.40714 0.91211 0.0
O255 O 0.51777 0.4179 0.9049 0.0
O256 O 0.51059 0.5169 0.95464 0.0
O257 O 0.53959 0.53968 0.05357 0.0
O258 O 0.44044 0.5598 1.03774 0.0
O259 O 0.41596 0.49662 0.97343 0.0
C260 C 0.41547 0.42297 0.10221 0.0
O261 O 0.51619 0.55133 0.18694 0.0
O262 O 0.43889 0.55976 0.18007 0.0
C263 C 0.54144 0.42557 0.10296 0.0
C264 C 0.47352 0.41956 0.80856 0.0
C265 C 0.467 0.45272 0.67991 0.0
C266 C 0.47153 0.40296 0.69344 0.0
C267 C 0.47488 0.38656 0.75728 0.0
C268 C 0.46814 0.4691 0.79543 0.0
C269 C 0.46497 0.48554 0.73176 0.0
C270 C 0.47899 0.40279 0.87557 0.0
C271 C 0.54048 0.54196 0.99021 0.0
H272 H 0.46503 0.59649 0.4355 0.0
H273 H 0.47092 0.62267 0.32269 0.0
H274 H 0.47205 0.47376 0.261 0.0
H275 H 0.46774 0.44714 0.3733 0.0
H276 H 0.47367 0.37679 0.65463 0.0
H277 H 0.47912 0.3482 0.76656 0.0
H278 H 0.46682 0.49513 0.8345 0.0
H279 H 0.46081 0.52397 0.72313 0.0
Tb280 Tb 0.97905 0.44798 0.60447 0.0
Tb281 Tb -0.01903 0.51864 0.47444 0.0
C282 C 0.04398 0.42479 0.48288 0.0
C283 C 0.97375 0.41862 0.77746 0.0
C284 C 0.97035 0.45072 0.90707 0.0
C285 C 0.9721 0.40094 0.89238 0.0
C286 C 0.97388 0.3851 0.82818 0.0
C287 C 0.97124 0.46822 0.79163 0.0
C288 C 0.96964 0.48413 0.85572 0.0
C289 C 0.97782 0.40211 0.71004 0.0
O290 O 0.01223 0.51537 0.63286 0.0
O291 O 0.04183 0.54016 0.53483 0.0
O292 O 0.94474 0.55954 0.54982 0.0
O293 O 0.91537 0.49415 0.6054 0.0
O294 O 0.02038 0.55186 0.39999 0.0
O295 O 0.94301 0.56039 0.40629 0.0
O296 O 0.92108 0.46828 0.46371 0.0
O297 O 0.9447 0.40545 0.52989 0.0
O298 O 0.04077 0.42476 0.54632 0.0
O299 O 0.01634 0.45216 0.44685 0.0
C300 C 0.04229 0.54125 0.59838 0.0
O301 O 0.93979 0.40881 0.67405 0.0
O302 O 0.01723 0.41505 0.68021 0.0
C303 C 0.9149 0.54052 0.59205 0.0
C304 C 0.97698 0.55006 0.30285 0.0
C305 C 0.9723 0.51804 0.17342 0.0
C306 C 0.97472 0.56778 0.1879 0.0
C307 C 0.97717 0.58362 0.25212 0.0
C308 C 0.97374 0.50051 0.28872 0.0
C309 C 0.97151 0.48465 0.22472 0.0
C310 C -0.01865 0.56622 0.37036 0.0
C311 C 0.91869 0.42276 0.48209 0.0
H312 H 0.97193 0.37413 0.93051 0.0
H313 H 0.97569 0.34666 0.81815 0.0
H314 H 0.97114 0.49471 0.75306 0.0
H315 H 0.96896 0.52268 0.86495 0.0
H316 H 0.9758 0.59442 0.14957 0.0
H317 H 0.97973 0.62199 0.26211 0.0
H318 H 0.97328 0.47402 0.32728 0.0
H319 H 0.96893 0.44619 0.21542 0.0
C320 C 0.06246 0.09018 0.3915 0.0
C321 C 0.07208 0.07608 0.45546 0.0
H322 H 0.08618 0.13004 0.30885 0.0
C323 C 0.11456 0.09217 0.48536 0.0
H324 H 0.02985 0.07852 0.36722 0.0
C325 C 0.14728 0.12114 0.45137 0.0
C326 C 0.13758 0.13515 0.38737 0.0
H327 H 0.12293 0.08171 0.53449 0.0
H328 H 0.17987 0.13299 0.47548 0.0
C329 C 0.09467 0.11973 0.35801 0.0
C330 C 0.11687 0.87668 0.60569 0.0
C331 C 0.07513 0.89402 0.63672 0.0
H332 H 0.18072 0.83306 0.61334 0.0
C333 C 0.06582 0.88001 0.70082 0.0
H334 H 0.125 0.887 0.55641 0.0
C335 C 0.09729 0.84889 0.73307 0.0
C336 C 0.13916 0.83174 0.70231 0.0
H337 H 0.03383 0.8926 0.72602 0.0
H338 H 0.08892 0.83848 0.78226 0.0
C339 C 0.14886 0.8461 0.63843 0.0
C340 C 0.36464 0.84643 0.85066 0.0
C341 C 0.32196 0.83031 0.88017 0.0
H342 H 0.42881 0.88859 0.85959 0.0
C343 C 0.31181 0.84448 0.94405 0.0
H344 H 0.37344 0.83607 0.80158 0.0
C345 C 0.34398 0.87407 0.97785 0.0
C346 C 0.3864 0.89062 0.94795 0.0
H347 H 0.27938 0.83212 0.9683 0.0
H348 H 0.33535 0.88441 1.02698 0.0
C349 C 0.3963 0.87658 0.88397 0.0
C350 C 0.34434 0.08952 0.105 0.0
C351 C 0.38785 0.07396 0.13286 0.0
H352 H 0.27874 0.12973 0.1179 0.0
C353 C 0.399 0.08836 0.19624 0.0
H354 H 0.33479 0.07879 0.05639 0.0
C355 C 0.36731 0.11766 0.23117 0.0
C356 C 0.3234 0.13258 0.2039 0.0
H357 H 0.43243 0.07712 0.21897 0.0
H358 H 0.37703 0.12824 0.27978 0.0
C359 C 0.31215 0.11827 0.14046 0.0
C360 C 0.86961 0.84521 0.60924 0.0
C361 C 0.884 0.88895 0.63748 0.0
H362 H 0.82978 0.77963 0.62009 0.0
C363 C 0.86954 0.8994 0.70118 0.0
H364 H 0.88032 0.83612 0.56038 0.0
C365 C 0.84113 0.86664 0.73592 0.0
C366 C 0.82606 0.8233 0.70714 0.0
H367 H 0.88065 0.93262 0.72451 0.0
H368 H 0.83034 0.87561 0.78478 0.0
C369 C 0.84061 0.81292 0.6435 0.0
C370 C 0.8935 0.08458 0.38895 0.0
C371 C 0.88136 0.07341 0.45304 0.0
H372 H 0.87396 0.12341 0.30319 0.0
C373 C 0.83915 0.09242 0.48032 0.0
H374 H 0.92629 0.07034 0.36747 0.0
C375 C 0.80878 0.12176 0.44338 0.0
C376 C 0.82088 0.13338 0.37915 0.0
H377 H 0.82937 0.08401 0.52974 0.0
H378 H 0.77618 0.13592 0.4655 0.0
C379 C 0.86373 0.11489 0.3524 0.0
C380 C 0.6407 0.13524 0.12904 0.0
C381 C 0.63982 0.1366 0.19685 0.0
H382 H 0.61055 0.10428 1.04312 0.0
C383 C 0.60803 0.10633 0.23066 0.0
H384 H 0.66481 0.15857 0.10204 0.0
C385 C 0.57826 0.0743 0.19708 0.0
C386 C 0.57876 0.07336 0.12926 0.0
H387 H 0.60688 0.10681 0.28295 0.0
H388 H 0.55421 0.05089 0.22406 0.0
C389 C 0.60974 0.10443 0.09542 0.0
C390 C 0.63071 0.81753 0.95277 0.0
C391 C 0.64429 0.82578 0.88823 0.0
H392 H 0.58923 0.84164 1.03389 0.0
C393 C 0.62613 0.86663 0.85601 0.0
H394 H 0.64394 0.78623 0.97889 0.0
C395 C 0.59526 0.89886 0.88805 0.0
C396 C 0.58138 0.89023 0.95241 0.0
H397 H 0.63611 0.87394 0.80637 0.0
H398 H 0.58163 0.93004 0.86207 0.0
C399 C 0.59927 0.84918 0.98431 0.0
C400 C 0.61677 0.59075 0.98822 0.0
C401 C 0.57478 0.57446 0.9572 0.0
H402 H 0.68182 0.63232 0.98027 0.0
C403 C 0.56595 0.5887 0.89312 0.0
H404 H 0.62454 0.58021 1.0375 0.0
C405 C 0.5983 0.61876 0.86074 0.0
C406 C 0.64059 0.63457 0.89131 0.0
H407 H 0.53378 0.57691 0.86795 0.0
H408 H 0.59036 0.6292 0.81146 0.0
C409 C 0.64966 0.62024 0.95532 0.0
C410 C 0.61048 0.35977 0.2342 0.0
C411 C 0.64105 0.32949 0.19807 0.0
H412 H 0.55519 0.4138 0.23264 0.0
C413 C 0.63913 0.33157 0.13022 0.0
H414 H 0.61103 0.35912 0.28648 0.0
C415 C 0.60707 0.36296 0.0992 0.0
C416 C 0.57621 0.39293 0.13535 0.0
H417 H 0.66223 0.30877 0.1008 0.0
H418 H 0.60635 0.36346 0.04693 0.0
C419 C 0.57841 0.39113 0.2032 0.0
C420 C 0.86995 0.34702 0.47605 0.0
C421 C 0.88623 0.38979 0.44681 0.0
H422 H 0.82708 0.28323 0.467 0.0
C423 C 0.87183 0.40035 0.38323 0.0
H424 H 0.88043 0.33792 0.52494 0.0
C425 C 0.84177 0.36858 0.3495 0.0
C426 C 0.82491 0.32618 0.37921 0.0
H427 H 0.88421 0.43289 0.35925 0.0
H428 H 0.83119 0.37758 0.30061 0.0
C429 C 0.83928 0.31577 0.44283 0.0
C430 C 0.8082 0.58468 0.68933 0.0
C431 C 0.82447 0.6302 0.70974 0.0
H432 H 0.82474 0.5201 0.63636 0.0
C433 C 0.87011 0.64659 0.68989 0.0
H434 H 0.77297 0.5715 0.70382 0.0
C435 C 0.89892 0.618 0.64961 0.0
C436 C 0.88298 0.57213 0.63007 0.0
H437 H 0.88306 0.68192 0.70432 0.0
H438 H 0.93409 0.63127 0.63497 0.0
C439 C 0.83761 0.55549 0.65066 0.0
C440 C 0.33994 0.36684 0.23513 0.0
C441 C 0.32361 0.32443 0.20512 0.0
H442 H 0.38135 0.43183 0.22554 0.0
C443 C 0.33784 0.31466 0.14119 0.0
H444 H 0.32942 0.37532 0.28425 0.0
C445 C 0.36781 0.3466 0.10789 0.0
C446 C 0.38351 0.3894 0.13739 0.0
H447 H 0.32603 0.2821 0.11682 0.0
H448 H 0.37823 0.33799 0.05876 0.0
C449 C 0.36931 0.39929 0.20133 0.0
C450 C 0.36623 0.61883 0.98212 0.0
C451 C 0.38148 0.57498 0.95476 0.0
H452 H 0.32492 0.68353 0.97022 0.0
C453 C 0.36702 0.56342 0.89149 0.0
H454 H 0.3769 0.62876 1.03063 0.0
C455 C 0.33781 0.59524 0.85627 0.0
C456 C 0.32189 0.63867 0.88421 0.0
H457 H 0.3787 0.53004 0.86888 0.0
H458 H 0.32704 0.58546 0.80776 0.0
C459 C 0.33641 0.65013 0.94744 0.0
C460 C 0.1076 0.60654 0.73354 0.0
C461 C 0.13866 0.63725 0.69909 0.0
H462 H 0.05293 0.55221 0.7289 0.0
C463 C 0.13815 0.63573 0.63109 0.0
H464 H 0.10706 0.60677 0.78583 0.0
C465 C 0.10716 0.60444 0.59832 0.0
C466 C 0.07588 0.57394 0.63272 0.0
H467 H 0.16165 0.65882 0.60283 0.0
H468 H 0.10762 0.60438 0.54603 0.0
C469 C 0.07654 0.57526 0.70073 0.0
C470 C 0.11227 0.35889 0.35063 0.0
C471 C 0.14166 0.32725 0.38624 0.0
H472 H 0.0586 0.41446 0.35306 0.0
C473 C 0.13928 0.32849 0.45416 0.0
H474 H 0.11323 0.35893 0.29834 0.0
C475 C 0.1079 0.36035 0.48572 0.0
C476 C 0.07821 0.3917 0.45008 0.0
H477 H 0.16147 0.30463 0.48323 0.0
H478 H 0.10677 0.36014 0.53799 0.0
C479 C 0.08092 0.39076 0.38217 0.0
C480 C 0.9409 0.95908 1.00038 0.0
C481 C 0.96477 0.00199 0.98251 0.0
H482 H 0.92289 0.90968 0.07644 0.0
C483 C -0.01099 0.0284 1.03056 0.0
H484 H 0.92115 0.93819 0.965 0.0
C485 C -0.01023 0.01213 0.09451 0.0
C486 C 0.96646 0.96893 0.11216 0.0
H487 H 0.00849 0.06113 1.01857 0.0
H488 H 0.00967 0.03289 0.1299 0.0
C489 C 0.94185 0.9427 0.06434 0.0
C490 C 0.20466 0.71405 0.33823 0.0
C491 C 0.2457 0.74065 0.35635 0.0
H492 H 0.15739 0.6925 0.26196 0.0
C493 C 0.26993 0.76788 0.30902 0.0
H494 H 0.18557 0.6921 0.37326 0.0
C495 C 0.25351 0.76847 0.24513 0.0
C496 C 0.21262 0.74157 0.22681 0.0
H497 H 0.30126 0.78929 0.32155 0.0
H498 H 0.27266 0.79045 0.21022 0.0
C499 C 0.18841 0.71441 0.27432 0.0
C500 C 0.462 0.95411 0.58712 0.0
C501 C 0.48806 -0.00435 0.60476 0.0
H502 H 0.44047 0.90647 0.51113 0.0
C503 C 0.51444 0.02031 0.557 0.0
H504 H 0.44073 0.93467 0.62255 0.0
C505 C 0.51462 0.00392 0.49308 0.0
C506 C 0.48816 0.96261 0.47521 0.0
H507 H 0.53545 0.05202 0.56917 0.0
H508 H 0.53589 0.02346 0.45777 0.0
C509 C 0.46195 0.93787 0.52317 0.0
C510 C 0.25972 0.24407 0.84337 0.0
C511 C 0.21846 0.21776 0.86163 0.0
H512 H 0.30704 0.26557 0.76684 0.0
C513 C 0.19405 0.19077 0.81439 0.0
H514 H 0.27896 0.26583 0.87834 0.0
C515 C 0.21037 0.19033 0.75037 0.0
C516 C 0.25135 0.2171 0.73188 0.0
H517 H 0.16257 0.16956 0.82702 0.0
H518 H 0.191 0.16867 0.71545 0.0
C519 C 0.27589 0.24383 0.77935 0.0
C520 C 0.71174 0.19684 0.834 0.0
C521 C 0.75328 0.2229 0.8518 0.0
H522 H 0.66347 0.17641 0.75806 0.0
C523 C 0.77839 0.24865 0.80374 0.0
H524 H 0.69194 0.17589 0.8694 0.0
C525 C 0.76214 0.24874 0.73981 0.0
C526 C 0.72027 0.2232 0.72226 0.0
H527 H 0.81003 0.26977 0.81572 0.0
H528 H 0.7818 0.2698 0.70438 0.0
C529 C 0.6954 0.19709 0.77011 0.0
C530 C 0.70041 0.687 0.31799 0.0
C531 C 0.72476 0.71381 0.36546 0.0
H532 H 0.6972 0.66557 0.2188 0.0
C533 C 0.76601 0.74022 0.34742 0.0
H534 H 0.66896 0.66566 0.33044 0.0
C535 C 0.7821 0.74041 0.28333 0.0
C536 C 0.75745 0.71405 0.2356 0.0
H537 H 0.78525 0.76181 0.38257 0.0
H538 H 0.81317 0.76229 0.27096 0.0
C539 C 0.71661 0.68701 0.25393 0.0
C540 C 0.49197 0.51169 0.59376 0.0
C541 C 0.46558 0.47048 0.61206 0.0
H542 H 0.51353 0.55894 0.5172 0.0
C543 C 0.43846 0.44613 0.5649 0.0
H544 H 0.51382 0.53089 0.62865 0.0
C545 C 0.43802 0.46242 0.50091 0.0
C546 C 0.46491 0.50333 0.48238 0.0
H547 H 0.41718 0.41469 0.57758 0.0
H548 H 0.41631 0.44309 0.46603 0.0
C549 C 0.49172 0.52786 0.52977 0.0
C550 C -0.0015 0.44415 1.02238 0.0
C551 C 0.97025 0.46777 0.9755 0.0
H552 H 0.02178 0.44174 0.12082 0.0
C553 C 0.94256 0.50818 0.99445 0.0
H554 H 0.02103 0.41354 1.00948 0.0
C555 C 0.94325 0.52457 0.05844 0.0
C556 C 0.97145 0.50083 0.1052 0.0
H557 H 0.91982 0.52689 0.96001 0.0
H558 H 0.9211 0.55543 0.07149 0.0
C559 C -0.00098 0.4604 0.08633 0.0
loop_
_geom_bond_atom_site_label_1
_geom_bond_atom_site_label_2
_geom_bond_distance
_geom_bond_site_symmetry_2
_ccdc_geom_bond_type
Tb0 C9 2.764 1_455 S
Tb0 O10 2.325 1_445 S
Tb0 O13 2.303 1_545 S
Tb0 O17 2.322 . S
Tb0 O18 2.349 1_455 S
Tb0 O21 2.415 . S
Tb0 O22 2.399 1_455 S
Tb1 O11 2.322 . S
Tb1 O12 2.349 1_655 S
Tb1 O14 2.415 . S
Tb1 O15 2.399 1_655 S
Tb1 O16 2.325 1_665 S
Tb1 O19 2.303 1_565 S
Tb1 C30 2.764 1_655 S
C2 O18 1.261 . S
C2 O19 1.257 . S
C3 C6 1.358 . S
C3 C7 1.332 . S
C3 C9 1.504 . S
C4 C5 1.373 . S
C4 C8 1.308 . S
C5 C4 1.373 . S
C5 C6 1.429 . S
C5 H32 0.932 . S
C6 C3 1.358 . S
C6 C5 1.429 . S
C6 H33 0.930 . S
C7 C3 1.332 . S
C7 C8 1.394 . S
C7 H34 0.932 1_645 S
C8 C4 1.308 . S
C8 C7 1.394 . S
C8 H35 0.929 1_545 S
C9 Tb0 2.764 1_655 S
C9 C3 1.504 . S
C9 O21 1.239 1_655 S
C9 O22 1.263 . S
O10 Tb0 2.325 1_665 S
O10 C20 1.236 . S
O11 Tb1 2.322 . S
O11 C20 1.257 . S
O12 Tb1 2.349 1_455 S
O12 C23 1.261 . S
O13 Tb0 2.303 1_565 S
O13 C23 1.257 . S
O14 Tb1 2.415 . S
O14 C30 1.239 1_655 S
O15 Tb1 2.399 1_455 S
O15 C30 1.263 . S
O16 Tb1 2.325 1_445 S
O16 C31 1.236 . S
O17 Tb0 2.322 . S
O17 C31 1.257 . S
O18 Tb0 2.349 1_655 S
O18 C2 1.261 . S
O19 Tb1 2.303 1_545 S
O19 C2 1.257 . S
C20 O10 1.236 . S
C20 O11 1.257 . S
O21 Tb0 2.415 . S
O21 C9 1.239 1_455 S
O22 Tb0 2.399 1_655 S
O22 C9 1.263 . S
C23 O12 1.261 . S
C23 O13 1.257 . S
C24 C27 1.358 . S
C24 C28 1.332 . S
C24 C30 1.504 . S
C25 C26 1.373 . S
C25 C29 1.308 . S
C26 C25 1.373 . S
C26 C27 1.429 . S
C26 H36 0.932 . S
C27 C24 1.358 . S
C27 C26 1.429 . S
C27 H37 0.930 . S
C28 C24 1.332 . S
C28 C29 1.394 . S
C28 H38 0.932 1_465 S
C29 C25 1.308 . S
C29 C28 1.394 . S
C29 H39 0.929 1_565 S
C30 Tb1 2.764 1_455 S
C30 O14 1.239 1_455 S
C30 O15 1.263 . S
C30 C24 1.504 . S
C31 O16 1.236 . S
C31 O17 1.257 . S
H32 C5 0.932 . S
H33 C6 0.930 . S
H34 C7 0.932 1_465 S
H35 C8 0.929 1_565 S
H36 C26 0.932 . S
H37 C27 0.930 . S
H38 C28 0.932 1_645 S
H39 C29 0.929 1_545 S
Tb40 C49 2.764 . S
Tb40 O50 2.325 . S
Tb40 O53 2.303 . S
Tb40 O57 2.322 . S
Tb40 O58 2.349 . S
Tb40 O61 2.415 . S
Tb40 O62 2.399 . S
Tb41 O51 2.322 . S
Tb41 O52 2.349 . S
Tb41 O54 2.415 . S
Tb41 O55 2.399 . S
Tb41 O56 2.325 . S
Tb41 O59 2.303 . S
Tb41 C70 2.764 . S
C42 O58 1.261 . S
C42 O59 1.257 . S
C43 C46 1.358 . S
C43 C47 1.332 . S
C43 C49 1.504 1_554 S
C44 C45 1.373 . S
C44 C48 1.308 . S
C45 C44 1.373 . S
C45 C46 1.429 . S
C45 H72 0.932 . S
C46 C43 1.358 . S
C46 C45 1.429 . S
C46 H73 0.930 . S
C47 C43 1.332 . S
C47 C48 1.394 . S
C47 H74 0.932 . S
C48 C44 1.308 . S
C48 C47 1.394 . S
C48 H75 0.929 . S
C49 Tb40 2.764 . S
C49 C43 1.504 1_556 S
C49 O61 1.239 . S
C49 O62 1.263 . S
O50 Tb40 2.325 . S
O50 C60 1.236 . S
O51 Tb41 2.322 . S
O51 C60 1.257 . S
O52 Tb41 2.349 . S
O52 C63 1.261 . S
O53 Tb40 2.303 . S
O53 C63 1.257 . S
O54 Tb41 2.415 . S
O54 C70 1.239 . S
O55 Tb41 2.399 . S
O55 C70 1.263 . S
O56 Tb41 2.325 . S
O56 C71 1.236 . S
O57 Tb40 2.322 . S
O57 C71 1.257 . S
O58 Tb40 2.349 . S
O58 C42 1.261 . S
O59 Tb41 2.303 . S
O59 C42 1.257 . S
C60 O50 1.236 . S
C60 O51 1.257 . S
O61 Tb40 2.415 . S
O61 C49 1.239 . S
O62 Tb40 2.399 . S
O62 C49 1.263 . S
C63 O52 1.261 . S
C63 O53 1.257 . S
C64 C67 1.358 . S
C64 C68 1.332 . S
C64 C70 1.504 . S
C65 C66 1.373 . S
C65 C69 1.308 . S
C66 C65 1.373 . S
C66 C67 1.429 . S
C66 H76 0.932 . S
C67 C64 1.358 . S
C67 C66 1.429 . S
C67 H77 0.930 . S
C68 C64 1.332 . S
C68 C69 1.394 . S
C68 H78 0.932 . S
C69 C65 1.308 . S
C69 C68 1.394 . S
C69 H79 0.929 . S
C70 Tb41 2.764 . S
C70 O54 1.239 . S
C70 O55 1.263 . S
C70 C64 1.504 . S
C71 O56 1.236 . S
C71 O57 1.257 . S
H72 C45 0.932 . S
H73 C46 0.930 . S
H74 C47 0.932 . S
H75 C48 0.929 . S
H76 C66 0.932 . S
H77 C67 0.930 . S
H78 C68 0.932 . S
H79 C69 0.929 . S
Tb80 C89 2.764 . S
Tb80 O90 2.325 1_565 S
Tb80 O93 2.303 1_565 S
Tb80 O97 2.322 1_554 S
Tb80 O98 2.349 . S
Tb80 O101 2.415 . S
Tb80 O102 2.399 . S
Tb81 O91 2.322 1_556 S
Tb81 O92 2.349 . S
Tb81 O94 2.415 . S
Tb81 O95 2.399 . S
Tb81 O96 2.325 1_545 S
Tb81 O99 2.303 1_545 S
Tb81 C110 2.764 . S
C82 O98 1.261 1_556 S
C82 O99 1.257 . S
C83 C86 1.358 . S
C83 C87 1.332 . S
C83 C89 1.504 . S
C84 C85 1.373 . S
C84 C88 1.308 . S
C85 C84 1.373 . S
C85 C86 1.429 . S
C85 H112 0.932 . S
C86 C83 1.358 . S
C86 C85 1.429 . S
C86 H113 0.930 . S
C87 C83 1.332 . S
C87 C88 1.394 . S
C87 H114 0.932 1_565 S
C88 C84 1.308 . S
C88 C87 1.394 . S
C88 H115 0.929 1_565 S
C89 Tb80 2.764 . S
C89 C83 1.504 . S
C89 O101 1.239 . S
C89 O102 1.263 . S
O90 Tb80 2.325 1_545 S
O90 C100 1.236 . S
O91 Tb81 2.322 1_554 S
O91 C100 1.257 . S
O92 Tb81 2.349 . S
O92 C103 1.261 1_556 S
O93 Tb80 2.303 1_545 S
O93 C103 1.257 . S
O94 Tb81 2.415 . S
O94 C110 1.239 . S
O95 Tb81 2.399 . S
O95 C110 1.263 . S
O96 Tb81 2.325 1_565 S
O96 C111 1.236 . S
O97 Tb80 2.322 1_556 S
O97 C111 1.257 . S
O98 Tb80 2.349 . S
O98 C82 1.261 1_554 S
O99 Tb81 2.303 1_565 S
O99 C82 1.257 . S
C100 O90 1.236 . S
C100 O91 1.257 . S
O101 Tb80 2.415 . S
O101 C89 1.239 . S
O102 Tb80 2.399 . S
O102 C89 1.263 . S
C103 O92 1.261 1_554 S
C103 O93 1.257 . S
C104 C107 1.358 . S
C104 C108 1.332 . S
C104 C110 1.504 . S
C105 C106 1.373 . S
C105 C109 1.308 . S
C106 C105 1.373 . S
C106 C107 1.429 . S
C106 H116 0.932 . S
C107 C104 1.358 . S
C107 C106 1.429 . S
C107 H117 0.930 . S
C108 C104 1.332 . S
C108 C109 1.394 . S
C108 H118 0.932 1_545 S
C109 C105 1.308 . S
C109 C108 1.394 . S
C109 H119 0.929 1_545 S
C110 Tb81 2.764 . S
C110 O94 1.239 . S
C110 O95 1.263 . S
C110 C104 1.504 . S
C111 O96 1.236 . S
C111 O97 1.257 . S
H112 C85 0.932 . S
H113 C86 0.930 . S
H114 C87 0.932 1_545 S
H115 C88 0.929 1_545 S
H116 C106 0.932 . S
H117 C107 0.930 . S
H118 C108 0.932 1_565 S
H119 C109 0.929 1_565 S
Tb120 C129 2.764 . S
Tb120 O130 2.325 . S
Tb120 O133 2.303 . S
Tb120 O137 2.322 . S
Tb120 O138 2.349 . S
Tb120 O141 2.415 . S
Tb120 O142 2.399 . S
Tb121 O131 2.322 . S
Tb121 O132 2.349 . S
Tb121 O134 2.415 . S
Tb121 O135 2.399 . S
Tb121 O136 2.325 . S
Tb121 O139 2.303 . S
Tb121 C150 2.764 . S
C122 O138 1.261 . S
C122 O139 1.257 . S
C123 C126 1.358 . S
C123 C127 1.332 . S
C123 C129 1.504 . S
C124 C125 1.373 . S
C124 C128 1.308 . S
C125 C124 1.373 . S
C125 C126 1.429 . S
C125 H152 0.932 . S
C126 C123 1.358 . S
C126 C125 1.429 . S
C126 H153 0.930 . S
C127 C123 1.332 . S
C127 C128 1.394 . S
C127 H154 0.932 . S
C128 C124 1.308 . S
C128 C127 1.394 . S
C128 H155 0.929 . S
C129 Tb120 2.764 . S
C129 C123 1.504 . S
C129 O141 1.239 . S
C129 O142 1.263 . S
O130 Tb120 2.325 . S
O130 C140 1.236 . S
O131 Tb121 2.322 . S
O131 C140 1.257 . S
O132 Tb121 2.349 . S
O132 C143 1.261 . S
O133 Tb120 2.303 . S
O133 C143 1.257 . S
O134 Tb121 2.415 . S
O134 C150 1.239 . S
O135 Tb121 2.399 . S
O135 C150 1.263 . S
O136 Tb121 2.325 . S
O136 C151 1.236 . S
O137 Tb120 2.322 . S
O137 C151 1.257 . S
O138 Tb120 2.349 . S
O138 C122 1.261 . S
O139 Tb121 2.303 . S
O139 C122 1.257 . S
C140 O130 1.236 . S
C140 O131 1.257 . S
O141 Tb120 2.415 . S
O141 C129 1.239 . S
O142 Tb120 2.399 . S
O142 C129 1.263 . S
C143 O132 1.261 . S
C143 O133 1.257 . S
C144 C147 1.358 . S
C144 C148 1.332 . S
C144 C150 1.504 1_556 S
C145 C146 1.373 . S
C145 C149 1.308 . S
C146 C145 1.373 . S
C146 C147 1.429 . S
C146 H156 0.932 . S
C147 C144 1.358 . S
C147 C146 1.429 . S
C147 H157 0.930 . S
C148 C144 1.332 . S
C148 C149 1.394 . S
C148 H158 0.932 . S
C149 C145 1.308 . S
C149 C148 1.394 . S
C149 H159 0.929 . S
C150 Tb121 2.764 . S
C150 O134 1.239 . S
C150 O135 1.263 . S
C150 C144 1.504 1_554 S
C151 O136 1.236 . S
C151 O137 1.257 . S
H152 C125 0.932 . S
H153 C126 0.930 . S
H154 C127 0.932 . S
H155 C128 0.929 . S
H156 C146 0.932 . S
H157 C147 0.930 . S
H158 C148 0.932 . S
H159 C149 0.929 . S
Tb160 C169 2.764 . S
Tb160 O170 2.325 . S
Tb160 O173 2.303 . S
Tb160 O177 2.322 . S
Tb160 O178 2.349 . S
Tb160 O181 2.415 . S
Tb160 O182 2.399 . S
Tb161 O171 2.322 . S
Tb161 O172 2.349 . S
Tb161 O174 2.415 . S
Tb161 O175 2.399 . S
Tb161 O176 2.325 . S
Tb161 O179 2.303 . S
Tb161 C190 2.764 . S
C162 O178 1.261 . S
C162 O179 1.257 . S
C163 C166 1.358 . S
C163 C167 1.332 . S
C163 C169 1.504 . S
C164 C165 1.373 . S
C164 C168 1.308 . S
C165 C164 1.373 . S
C165 C166 1.429 . S
C165 H192 0.932 . S
C166 C163 1.358 . S
C166 C165 1.429 . S
C166 H193 0.930 . S
C167 C163 1.332 . S
C167 C168 1.394 . S
C167 H194 0.932 . S
C168 C164 1.308 . S
C168 C167 1.394 . S
C168 H195 0.929 . S
C169 Tb160 2.764 . S
C169 C163 1.504 . S
C169 O181 1.239 . S
C169 O182 1.263 . S
O170 Tb160 2.325 . S
O170 C180 1.236 . S
O171 Tb161 2.322 . S
O171 C180 1.257 . S
O172 Tb161 2.349 . S
O172 C183 1.261 . S
O173 Tb160 2.303 . S
O173 C183 1.257 . S
O174 Tb161 2.415 . S
O174 C190 1.239 . S
O175 Tb161 2.399 . S
O175 C190 1.263 . S
O176 Tb161 2.325 . S
O176 C191 1.236 . S
O177 Tb160 2.322 . S
O177 C191 1.257 . S
O178 Tb160 2.349 . S
O178 C162 1.261 . S
O179 Tb161 2.303 . S
O179 C162 1.257 . S
C180 O170 1.236 . S
C180 O171 1.257 . S
O181 Tb160 2.415 . S
O181 C169 1.239 . S
O182 Tb160 2.399 . S
O182 C169 1.263 . S
C183 O172 1.261 . S
C183 O173 1.257 . S
C184 C187 1.358 . S
C184 C188 1.332 . S
C184 C190 1.504 1_556 S
C185 C186 1.373 . S
C185 C189 1.308 . S
C186 C185 1.373 . S
C186 C187 1.429 . S
C186 H196 0.932 . S
C187 C184 1.358 . S
C187 C186 1.429 . S
C187 H197 0.930 . S
C188 C184 1.332 . S
C188 C189 1.394 . S
C188 H198 0.932 . S
C189 C185 1.308 . S
C189 C188 1.394 . S
C189 H199 0.929 . S
C190 Tb161 2.764 . S
C190 O174 1.239 . S
C190 O175 1.263 . S
C190 C184 1.504 1_554 S
C191 O176 1.236 . S
C191 O177 1.257 . S
H192 C165 0.932 . S
H193 C166 0.930 . S
H194 C167 0.932 . S
H195 C168 0.929 . S
H196 C186 0.932 . S
H197 C187 0.930 . S
H198 C188 0.932 . S
H199 C189 0.929 . S
Tb200 C209 2.764 . S
Tb200 O210 2.325 . S
Tb200 O213 2.303 . S
Tb200 O217 2.322 . S
Tb200 O218 2.349 . S
Tb200 O221 2.415 . S
Tb200 O222 2.399 . S
Tb201 O211 2.322 . S
Tb201 O212 2.349 . S
Tb201 O214 2.415 . S
Tb201 O215 2.399 . S
Tb201 O216 2.325 . S
Tb201 O219 2.303 . S
Tb201 C230 2.764 . S
C202 O218 1.261 . S
C202 O219 1.257 . S
C203 C206 1.358 . S
C203 C207 1.332 . S
C203 C209 1.504 1_554 S
C204 C205 1.373 . S
C204 C208 1.308 . S
C205 C204 1.373 . S
C205 C206 1.429 . S
C205 H232 0.932 . S
C206 C203 1.358 . S
C206 C205 1.429 . S
C206 H233 0.930 . S
C207 C203 1.332 . S
C207 C208 1.394 . S
C207 H234 0.932 . S
C208 C204 1.308 . S
C208 C207 1.394 . S
C208 H235 0.929 . S
C209 Tb200 2.764 . S
C209 C203 1.504 1_556 S
C209 O221 1.239 . S
C209 O222 1.263 . S
O210 Tb200 2.325 . S
O210 C220 1.236 . S
O211 Tb201 2.322 . S
O211 C220 1.257 . S
O212 Tb201 2.349 . S
O212 C223 1.261 . S
O213 Tb200 2.303 . S
O213 C223 1.257 . S
O214 Tb201 2.415 . S
O214 C230 1.239 . S
O215 Tb201 2.399 . S
O215 C230 1.263 . S
O216 Tb201 2.325 . S
O216 C231 1.236 . S
O217 Tb200 2.322 . S
O217 C231 1.257 . S
O218 Tb200 2.349 . S
O218 C202 1.261 . S
O219 Tb201 2.303 . S
O219 C202 1.257 . S
C220 O210 1.236 . S
C220 O211 1.257 . S
O221 Tb200 2.415 . S
O221 C209 1.239 . S
O222 Tb200 2.399 . S
O222 C209 1.263 . S
C223 O212 1.261 . S
C223 O213 1.257 . S
C224 C227 1.358 . S
C224 C228 1.332 . S
C224 C230 1.504 . S
C225 C226 1.373 . S
C225 C229 1.308 . S
C226 C225 1.373 . S
C226 C227 1.429 . S
C226 H236 0.932 . S
C227 C224 1.358 . S
C227 C226 1.429 . S
C227 H237 0.930 . S
C228 C224 1.332 . S
C228 C229 1.394 . S
C228 H238 0.932 . S
C229 C225 1.308 . S
C229 C228 1.394 . S
C229 H239 0.929 . S
C230 Tb201 2.764 . S
C230 O214 1.239 . S
C230 O215 1.263 . S
C230 C224 1.504 . S
C231 O216 1.236 . S
C231 O217 1.257 . S
H232 C205 0.932 . S
H233 C206 0.930 . S
H234 C207 0.932 . S
H235 C208 0.929 . S
H236 C226 0.932 . S
H237 C227 0.930 . S
H238 C228 0.932 . S
H239 C229 0.929 . S
Tb240 C249 2.764 . S
Tb240 O250 2.325 . S
Tb240 O253 2.303 . S
Tb240 O257 2.322 1_554 S
Tb240 O258 2.349 . S
Tb240 O261 2.415 . S
Tb240 O262 2.399 . S
Tb241 O251 2.322 1_556 S
Tb241 O252 2.349 . S
Tb241 O254 2.415 . S
Tb241 O255 2.399 . S
Tb241 O256 2.325 . S
Tb241 O259 2.303 . S
Tb241 C270 2.764 . S
C242 O258 1.261 1_556 S
C242 O259 1.257 . S
C243 C246 1.358 . S
C243 C247 1.332 . S
C243 C249 1.504 . S
C244 C245 1.373 . S
C244 C248 1.308 . S
C245 C244 1.373 . S
C245 C246 1.429 . S
C245 H272 0.932 . S
C246 C243 1.358 . S
C246 C245 1.429 . S
C246 H273 0.930 . S
C247 C243 1.332 . S
C247 C248 1.394 . S
C247 H274 0.932 . S
C248 C244 1.308 . S
C248 C247 1.394 . S
C248 H275 0.929 . S
C249 Tb240 2.764 . S
C249 C243 1.504 . S
C249 O261 1.239 . S
C249 O262 1.263 . S
O250 Tb240 2.325 . S
O250 C260 1.236 . S
O251 Tb241 2.322 1_554 S
O251 C260 1.257 . S
O252 Tb241 2.349 . S
O252 C263 1.261 1_556 S
O253 Tb240 2.303 . S
O253 C263 1.257 . S
O254 Tb241 2.415 . S
O254 C270 1.239 . S
O255 Tb241 2.399 . S
O255 C270 1.263 . S
O256 Tb241 2.325 . S
O256 C271 1.236 . S
O257 Tb240 2.322 1_556 S
O257 C271 1.257 . S
O258 Tb240 2.349 . S
O258 C242 1.261 1_554 S
O259 Tb241 2.303 . S
O259 C242 1.257 . S
C260 O250 1.236 . S
C260 O251 1.257 . S
O261 Tb240 2.415 . S
O261 C249 1.239 . S
O262 Tb240 2.399 . S
O262 C249 1.263 . S
C263 O252 1.261 1_554 S
C263 O253 1.257 . S
C264 C267 1.358 . S
C264 C268 1.332 . S
C264 C270 1.504 . S
C265 C266 1.373 . S
C265 C269 1.308 . S
C266 C265 1.373 . S
C266 C267 1.429 . S
C266 H276 0.932 . S
C267 C264 1.358 . S
C267 C266 1.429 . S
C267 H277 0.930 . S
C268 C264 1.332 . S
C268 C269 1.394 . S
C268 H278 0.932 . S
C269 C265 1.308 . S
C269 C268 1.394 . S
C269 H279 0.929 . S
C270 Tb241 2.764 . S
C270 O254 1.239 . S
C270 O255 1.263 . S
C270 C264 1.504 . S
C271 O256 1.236 . S
C271 O257 1.257 . S
H272 C245 0.932 . S
H273 C246 0.930 . S
H274 C247 0.932 . S
H275 C248 0.929 . S
H276 C266 0.932 . S
H277 C267 0.930 . S
H278 C268 0.932 . S
H279 C269 0.929 . S
Tb280 C289 2.764 1_655 S
Tb280 O290 2.325 1_655 S
Tb280 O293 2.303 . S
Tb280 O297 2.322 . S
Tb280 O298 2.349 1_655 S
Tb280 O301 2.415 . S
Tb280 O302 2.399 1_655 S
Tb281 O291 2.322 . S
Tb281 O292 2.349 1_455 S
Tb281 O294 2.415 . S
Tb281 O295 2.399 1_455 S
Tb281 O296 2.325 1_455 S
Tb281 O299 2.303 . S
Tb281 C310 2.764 1_455 S
C282 O298 1.261 . S
C282 O299 1.257 . S
C283 C286 1.358 . S
C283 C287 1.332 . S
C283 C289 1.504 . S
C284 C285 1.373 . S
C284 C288 1.308 . S
C285 C284 1.373 . S
C285 C286 1.429 . S
C285 H312 0.932 . S
C286 C283 1.358 . S
C286 C285 1.429 . S
C286 H313 0.930 . S
C287 C283 1.332 . S
C287 C288 1.394 . S
C287 H314 0.932 1_455 S
C288 C284 1.308 . S
C288 C287 1.394 . S
C288 H315 0.929 . S
C289 Tb280 2.764 1_455 S
C289 C283 1.504 . S
C289 O301 1.239 1_455 S
C289 O302 1.263 . S
O290 Tb280 2.325 1_455 S
O290 C300 1.236 . S
O291 Tb281 2.322 . S
O291 C300 1.257 . S
O292 Tb281 2.349 1_655 S
O292 C303 1.261 . S
O293 Tb280 2.303 . S
O293 C303 1.257 . S
O294 Tb281 2.415 . S
O294 C310 1.239 1_455 S
O295 Tb281 2.399 1_655 S
O295 C310 1.263 . S
O296 Tb281 2.325 1_655 S
O296 C311 1.236 . S
O297 Tb280 2.322 . S
O297 C311 1.257 . S
O298 Tb280 2.349 1_455 S
O298 C282 1.261 . S
O299 Tb281 2.303 . S
O299 C282 1.257 . S
C300 O290 1.236 . S
C300 O291 1.257 . S
O301 Tb280 2.415 . S
O301 C289 1.239 1_655 S
O302 Tb280 2.399 1_455 S
O302 C289 1.263 . S
C303 O292 1.261 . S
C303 O293 1.257 . S
C304 C307 1.358 . S
C304 C308 1.332 . S
C304 C310 1.504 . S
C305 C306 1.373 . S
C305 C309 1.308 . S
C306 C305 1.373 . S
C306 C307 1.429 . S
C306 H316 0.932 . S
C307 C304 1.358 . S
C307 C306 1.429 . S
C307 H317 0.930 . S
C308 C304 1.332 . S
C308 C309 1.394 . S
C308 H318 0.932 1_655 S
C309 C305 1.308 . S
C309 C308 1.394 . S
C309 H319 0.929 . S
C310 Tb281 2.764 1_655 S
C310 O294 1.239 1_655 S
C310 O295 1.263 . S
C310 C304 1.504 . S
C311 O296 1.236 . S
C311 O297 1.257 . S
H312 C285 0.932 . S
H313 C286 0.930 . S
H314 C287 0.932 1_655 S
H315 C288 0.929 . S
H316 C306 0.932 . S
H317 C307 0.930 . S
H318 C308 0.932 1_455 S
H319 C309 0.929 . S
C320 C321 1.387 . S
C320 H324 0.950 . S
C320 C329 1.390 . S
C321 C320 1.387 . S
C321 C323 1.387 . S
H322 C329 0.950 . S
C323 C321 1.387 . S
C323 C325 1.390 . S
C323 H327 0.950 . S
H324 C320 0.950 . S
C325 C323 1.390 . S
C325 C326 1.387 . S
C325 H328 0.950 . S
C326 C325 1.387 . S
C326 C329 1.387 . S
H327 C323 0.950 . S
H328 C325 0.950 . S
C329 C320 1.390 . S
C329 H322 0.950 . S
C329 C326 1.387 . S
C330 C331 1.387 . S
C330 H334 0.950 . S
C330 C339 1.390 . S
C331 C330 1.387 . S
C331 C333 1.387 . S
H332 C339 0.950 . S
C333 C331 1.387 . S
C333 C335 1.390 . S
C333 H337 0.950 . S
H334 C330 0.950 . S
C335 C333 1.390 . S
C335 C336 1.387 . S
C335 H338 0.950 . S
C336 C335 1.387 . S
C336 C339 1.387 . S
H337 C333 0.950 . S
H338 C335 0.950 . S
C339 C330 1.390 . S
C339 H332 0.950 . S
C339 C336 1.387 . S
C340 C341 1.387 . S
C340 H344 0.950 . S
C340 C349 1.390 . S
C341 C340 1.387 . S
C341 C343 1.387 . S
H342 C349 0.950 . S
C343 C341 1.387 . S
C343 C345 1.390 . S
C343 H347 0.950 . S
H344 C340 0.950 . S
C345 C343 1.390 . S
C345 C346 1.387 . S
C345 H348 0.950 . S
C346 C345 1.387 . S
C346 C349 1.387 . S
H347 C343 0.950 . S
H348 C345 0.950 . S
C349 C340 1.390 . S
C349 H342 0.950 . S
C349 C346 1.387 . S
C350 C351 1.387 . S
C350 H354 0.950 . S
C350 C359 1.390 . S
C351 C350 1.387 . S
C351 C353 1.387 . S
H352 C359 0.950 . S
C353 C351 1.387 . S
C353 C355 1.390 . S
C353 H357 0.950 . S
H354 C350 0.950 . S
C355 C353 1.390 . S
C355 C356 1.387 . S
C355 H358 0.950 . S
C356 C355 1.387 . S
C356 C359 1.387 . S
H357 C353 0.950 . S
H358 C355 0.950 . S
C359 C350 1.390 . S
C359 H352 0.950 . S
C359 C356 1.387 . S
C360 C361 1.387 . S
C360 H364 0.950 . S
C360 C369 1.390 . S
C361 C360 1.387 . S
C361 C363 1.387 . S
H362 C369 0.950 . S
C363 C361 1.387 . S
C363 C365 1.390 . S
C363 H367 0.950 . S
H364 C360 0.950 . S
C365 C363 1.390 . S
C365 C366 1.387 . S
C365 H368 0.950 . S
C366 C365 1.387 . S
C366 C369 1.387 . S
H367 C363 0.950 . S
H368 C365 0.950 . S
C369 C360 1.390 . S
C369 H362 0.950 . S
C369 C366 1.387 . S
C370 C371 1.387 . S
C370 H374 0.950 . S
C370 C379 1.390 . S
C371 C370 1.387 . S
C371 C373 1.387 . S
H372 C379 0.950 . S
C373 C371 1.387 . S
C373 C375 1.390 . S
C373 H377 0.950 . S
H374 C370 0.950 . S
C375 C373 1.390 . S
C375 C376 1.387 . S
C375 H378 0.950 . S
C376 C375 1.387 . S
C376 C379 1.387 . S
H377 C373 0.950 . S
H378 C375 0.950 . S
C379 C370 1.390 . S
C379 H372 0.950 . S
C379 C376 1.387 . S
C380 C381 1.387 . S
C380 H384 0.950 . S
C380 C389 1.390 . S
C381 C380 1.387 . S
C381 C383 1.387 . S
H382 C389 0.950 . S
C383 C381 1.387 . S
C383 C385 1.390 . S
C383 H387 0.950 . S
H384 C380 0.950 . S
C385 C383 1.390 . S
C385 C386 1.387 . S
C385 H388 0.950 . S
C386 C385 1.387 . S
C386 C389 1.387 . S
H387 C383 0.950 . S
H388 C385 0.950 . S
C389 C380 1.390 . S
C389 H382 0.950 . S
C389 C386 1.387 . S
C390 C391 1.387 . S
C390 H394 0.950 . S
C390 C399 1.390 . S
C391 C390 1.387 . S
C391 C393 1.387 . S
H392 C399 0.950 . S
C393 C391 1.387 . S
C393 C395 1.390 . S
C393 H397 0.950 . S
H394 C390 0.950 . S
C395 C393 1.390 . S
C395 C396 1.387 . S
C395 H398 0.950 . S
C396 C395 1.387 . S
C396 C399 1.387 . S
H397 C393 0.950 . S
H398 C395 0.950 . S
C399 C390 1.390 . S
C399 H392 0.950 . S
C399 C396 1.387 . S
C400 C401 1.387 . S
C400 H404 0.950 . S
C400 C409 1.390 . S
C401 C400 1.387 . S
C401 C403 1.387 . S
H402 C409 0.950 . S
C403 C401 1.387 . S
C403 C405 1.390 . S
C403 H407 0.950 . S
H404 C400 0.950 . S
C405 C403 1.390 . S
C405 C406 1.387 . S
C405 H408 0.950 . S
C406 C405 1.387 . S
C406 C409 1.387 . S
H407 C403 0.950 . S
H408 C405 0.950 . S
C409 C400 1.390 . S
C409 H402 0.950 . S
C409 C406 1.387 . S
C410 C411 1.387 . S
C410 H414 0.950 . S
C410 C419 1.390 . S
C411 C410 1.387 . S
C411 C413 1.387 . S
H412 C419 0.950 . S
C413 C411 1.387 . S
C413 C415 1.390 . S
C413 H417 0.950 . S
H414 C410 0.950 . S
C415 C413 1.390 . S
C415 C416 1.387 . S
C415 H418 0.950 . S
C416 C415 1.387 . S
C416 C419 1.387 . S
H417 C413 0.950 . S
H418 C415 0.950 . S
C419 C410 1.390 . S
C419 H412 0.950 . S
C419 C416 1.387 . S
C420 C421 1.387 . S
C420 H424 0.950 . S
C420 C429 1.390 . S
C421 C420 1.387 . S
C421 C423 1.387 . S
H422 C429 0.950 . S
C423 C421 1.387 . S
C423 C425 1.390 . S
C423 H427 0.950 . S
H424 C420 0.950 . S
C425 C423 1.390 . S
C425 C426 1.387 . S
C425 H428 0.950 . S
C426 C425 1.387 . S
C426 C429 1.387 . S
H427 C423 0.950 . S
H428 C425 0.950 . S
C429 C420 1.390 . S
C429 H422 0.950 . S
C429 C426 1.387 . S
C430 C431 1.387 . S
C430 H434 0.950 . S
C430 C439 1.390 . S
C431 C430 1.387 . S
C431 C433 1.387 . S
H432 C439 0.950 . S
C433 C431 1.387 . S
C433 C435 1.390 . S
C433 H437 0.950 . S
H434 C430 0.950 . S
C435 C433 1.390 . S
C435 C436 1.387 . S
C435 H438 0.950 . S
C436 C435 1.387 . S
C436 C439 1.387 . S
H437 C433 0.950 . S
H438 C435 0.950 . S
C439 C430 1.390 . S
C439 H432 0.950 . S
C439 C436 1.387 . S
C440 C441 1.387 . S
C440 H444 0.950 . S
C440 C449 1.390 . S
C441 C440 1.387 . S
C441 C443 1.387 . S
H442 C449 0.950 . S
C443 C441 1.387 . S
C443 C445 1.390 . S
C443 H447 0.950 . S
H444 C440 0.950 . S
C445 C443 1.390 . S
C445 C446 1.387 . S
C445 H448 0.950 . S
C446 C445 1.387 . S
C446 C449 1.387 . S
H447 C443 0.950 . S
H448 C445 0.950 . S
C449 C440 1.390 . S
C449 H442 0.950 . S
C449 C446 1.387 . S
C450 C451 1.387 . S
C450 H454 0.950 . S
C450 C459 1.390 . S
C451 C450 1.387 . S
C451 C453 1.387 . S
H452 C459 0.950 . S
C453 C451 1.387 . S
C453 C455 1.390 . S
C453 H457 0.950 . S
H454 C450 0.950 . S
C455 C453 1.390 . S
C455 C456 1.387 . S
C455 H458 0.950 . S
C456 C455 1.387 . S
C456 C459 1.387 . S
H457 C453 0.950 . S
H458 C455 0.950 . S
C459 C450 1.390 . S
C459 H452 0.950 . S
C459 C456 1.387 . S
C460 C461 1.387 . S
C460 H464 0.950 . S
C460 C469 1.390 . S
C461 C460 1.387 . S
C461 C463 1.387 . S
H462 C469 0.950 . S
C463 C461 1.387 . S
C463 C465 1.390 . S
C463 H467 0.950 . S
H464 C460 0.950 . S
C465 C463 1.390 . S
C465 C466 1.387 . S
C465 H468 0.950 . S
C466 C465 1.387 . S
C466 C469 1.387 . S
H467 C463 0.950 . S
H468 C465 0.950 . S
C469 C460 1.390 . S
C469 H462 0.950 . S
C469 C466 1.387 . S
C470 C471 1.387 . S
C470 H474 0.950 . S
C470 C479 1.390 . S
C471 C470 1.387 . S
C471 C473 1.387 . S
H472 C479 0.950 . S
C473 C471 1.387 . S
C473 C475 1.390 . S
C473 H477 0.950 . S
H474 C470 0.950 . S
C475 C473 1.390 . S
C475 C476 1.387 . S
C475 H478 0.950 . S
C476 C475 1.387 . S
C476 C479 1.387 . S
H477 C473 0.950 . S
H478 C475 0.950 . S
C479 C470 1.390 . S
C479 H472 0.950 . S
C479 C476 1.387 . S
C480 C481 1.387 1_565 S
C480 H484 0.950 . S
C480 C489 1.390 1_556 S
C481 C480 1.387 1_545 S
C481 C483 1.387 1_655 S
H482 C489 0.950 . S
C483 C481 1.387 1_455 S
C483 C485 1.390 1_556 S
C483 H487 0.950 . S
H484 C480 0.950 . S
C485 C483 1.390 1_554 S
C485 C486 1.387 1_545 S
C485 H488 0.950 . S
C486 C485 1.387 1_565 S
C486 C489 1.387 1_455 S
H487 C483 0.950 . S
H488 C485 0.950 . S
C489 C480 1.390 1_554 S
C489 H482 0.950 . S
C489 C486 1.387 1_655 S
C490 C491 1.387 . S
C490 H494 0.950 . S
C490 C499 1.390 . S
C491 C490 1.387 . S
C491 C493 1.387 . S
H492 C499 0.950 . S
C493 C491 1.387 . S
C493 C495 1.390 . S
C493 H497 0.950 . S
H494 C490 0.950 . S
C495 C493 1.390 . S
C495 C496 1.387 . S
C495 H498 0.950 . S
C496 C495 1.387 . S
C496 C499 1.387 . S
H497 C493 0.950 . S
H498 C495 0.950 . S
C499 C490 1.390 . S
C499 H492 0.950 . S
C499 C496 1.387 . S
C500 C501 1.387 1_565 S
C500 H504 0.950 . S
C500 C509 1.390 . S
C501 C500 1.387 1_545 S
C501 C503 1.387 . S
H502 C509 0.950 . S
C503 C501 1.387 . S
C503 C505 1.390 . S
C503 H507 0.950 . S
H504 C500 0.950 . S
C505 C503 1.390 . S
C505 C506 1.387 1_545 S
C505 H508 0.950 . S
C506 C505 1.387 1_565 S
C506 C509 1.387 . S
H507 C503 0.950 . S
H508 C505 0.950 . S
C509 C500 1.390 . S
C509 H502 0.950 . S
C509 C506 1.387 . S
C510 C511 1.387 . S
C510 H514 0.950 . S
C510 C519 1.390 . S
C511 C510 1.387 . S
C511 C513 1.387 . S
H512 C519 0.950 . S
C513 C511 1.387 . S
C513 C515 1.390 . S
C513 H517 0.950 . S
H514 C510 0.950 . S
C515 C513 1.390 . S
C515 C516 1.387 . S
C515 H518 0.950 . S
C516 C515 1.387 . S
C516 C519 1.387 . S
H517 C513 0.950 . S
H518 C515 0.950 . S
C519 C510 1.390 . S
C519 H512 0.950 . S
C519 C516 1.387 . S
C520 C521 1.387 . S
C520 H524 0.950 . S
C520 C529 1.390 . S
C521 C520 1.387 . S
C521 C523 1.387 . S
H522 C529 0.950 . S
C523 C521 1.387 . S
C523 C525 1.390 . S
C523 H527 0.950 . S
H524 C520 0.950 . S
C525 C523 1.390 . S
C525 C526 1.387 . S
C525 H528 0.950 . S
C526 C525 1.387 . S
C526 C529 1.387 . S
H527 C523 0.950 . S
H528 C525 0.950 . S
C529 C520 1.390 . S
C529 H522 0.950 . S
C529 C526 1.387 . S
C530 C531 1.387 . S
C530 H534 0.950 . S
C530 C539 1.390 . S
C531 C530 1.387 . S
C531 C533 1.387 . S
H532 C539 0.950 . S
C533 C531 1.387 . S
C533 C535 1.390 . S
C533 H537 0.950 . S
H534 C530 0.950 . S
C535 C533 1.390 . S
C535 C536 1.387 . S
C535 H538 0.950 . S
C536 C535 1.387 . S
C536 C539 1.387 . S
H537 C533 0.950 . S
H538 C535 0.950 . S
C539 C530 1.390 . S
C539 H532 0.950 . S
C539 C536 1.387 . S
C540 C541 1.387 . S
C540 H544 0.950 . S
C540 C549 1.390 . S
C541 C540 1.387 . S
C541 C543 1.387 . S
H542 C549 0.950 . S
C543 C541 1.387 . S
C543 C545 1.390 . S
C543 H547 0.950 . S
H544 C540 0.950 . S
C545 C543 1.390 . S
C545 C546 1.387 . S
C545 H548 0.950 . S
C546 C545 1.387 . S
C546 C549 1.387 . S
H547 C543 0.950 . S
H548 C545 0.950 . S
C549 C540 1.390 . S
C549 H542 0.950 . S
C549 C546 1.387 . S
C550 C551 1.387 1_554 S
C550 H554 0.950 . S
C550 C559 1.390 . S
C551 C550 1.387 1_556 S
C551 C553 1.387 1_455 S
H552 C559 0.950 . S
C553 C551 1.387 1_655 S
C553 C555 1.390 . S
C553 H557 0.950 . S
H554 C550 0.950 . S
C555 C553 1.390 . S
C555 C556 1.387 1_556 S
C555 H558 0.950 . S
C556 C555 1.387 1_554 S
C556 C559 1.387 1_655 S
H557 C553 0.950 . S
H558 C555 0.950 . S
C559 C550 1.390 . S
C559 H552 0.950 . S
C559 C556 1.387 1_455 S
C321 C31 1.555 . S
C326 C143 1.552 . S
C331 C23 1.555 . S
C336 C71 1.555 . S
C341 C63 1.555 . S
C346 C111 1.558 . S
C351 C103 1.555 . S
C356 C151 1.552 . S
C361 C20 1.555 . S
C366 C202 1.558 . S
C371 C2 1.555 . S
C376 C180 1.555 . S
C381 C162 1.555 . S
C386 C100 1.552 . S
C391 C220 1.555 . S
C396 C82 1.558 . S
C401 C271 1.555 . S
C406 C223 1.557 . S
C411 C191 1.555 . S
C416 C263 1.554 . S
C421 C311 1.555 . S
C426 C183 1.557 . S
C431 C231 1.555 . S
C436 C303 1.556 . S
C441 C122 1.556 . S
C446 C260 1.554 . S
C451 C242 1.555 . S
C456 C60 1.557 . S
C461 C42 1.555 . S
C466 C300 1.554 . S
C471 C140 1.554 . S
C476 C282 1.554 . S
C481 C4 1.775 . S
C486 C25 1.775 . S
C491 C65 1.774 . S
C496 C44 1.774 . S
C501 C105 1.772 . S
C506 C84 1.772 . S
C511 C145 1.775 . S
C516 C124 1.775 . S
C521 C185 1.776 . S
C526 C164 1.776 . S
C531 C225 1.773 . S
C536 C204 1.773 . S
C541 C265 1.772 . S
C546 C244 1.772 . S
C551 C284 1.774 . S
C556 C305 1.774 . S
