# Generated by pormake.
# Topology snz, (6)-cn, num edge types: 1
# Building blocks:
#     Node 0, Type 0, BuildingBlock: KUMBUR_clean_sbu_1, # of connection points: 6
#     Node 1, Type 0, BuildingBlock: KUMBUR_clean_sbu_1, # of connection points: 6
#     Node 2, Type 0, BuildingBlock: KUMBUR_clean_sbu_1, # of connection points: 6
#     Node 3, Type 0, BuildingBlock: KUMBUR_clean_sbu_1, # of connection points: 6
#     Node 4, Type 0, BuildingBlock: KUMBUR_clean_sbu_1, # of connection points: 6
#     Node 5, Type 0, BuildingBlock: KUMBUR_clean_sbu_1, # of connection points: 6
#     Node 6, Type 0, BuildingBlock: KUMBUR_clean_sbu_1, # of connection points: 6
#     Node 7, Type 0, BuildingBlock: KUMBUR_clean_sbu_1, # of connection points: 6
#     Node 8, Type 0, BuildingBlock: KUMBUR_clean_sbu_1, # of connection points: 6
#     Edge 9, Type (0, 0), BuildingBlock: ZUJKAS_clean_linker_0, # of connection points: 2
#     Edge 10, Type (0, 0), BuildingBlock: ZUJKAS_clean_linker_0, # of connection points: 2
#     Edge 11, Type (0, 0), BuildingBlock: ZUJKAS_clean_linker_0, # of connection points: 2
#     Edge 12, Type (0, 0), BuildingBlock: ZUJKAS_clean_linker_0, # of connection points: 2
#     Edge 13, Type (0, 0), BuildingBlock: ZUJKAS_clean_linker_0, # of connection points: 2
#     Edge 14, Type (0, 0), BuildingBlock: ZUJKAS_clean_linker_0, # of connection points: 2
#     Edge 15, Type (0, 0), BuildingBlock: ZUJKAS_clean_linker_0, # of connection points: 2
#     Edge 16, Type (0, 0), BuildingBlock: ZUJKAS_clean_linker_0, # of connection points: 2
#     Edge 17, Type (0, 0), BuildingBlock: ZUJKAS_clean_linker_0, # of connection points: 2
#     Edge 18, Type (0, 0), BuildingBlock: ZUJKAS_clean_linker_0, # of connection points: 2
#     Edge 19, Type (0, 0), BuildingBlock: ZUJKAS_clean_linker_0, # of connection points: 2
#     Edge 20, Type (0, 0), BuildingBlock: ZUJKAS_clean_linker_0, # of connection points: 2
#     Edge 21, Type (0, 0), BuildingBlock: ZUJKAS_clean_linker_0, # of connection points: 2
#     Edge 22, Type (0, 0), BuildingBlock: ZUJKAS_clean_linker_0, # of connection points: 2
#     Edge 23, Type (0, 0), BuildingBlock: ZUJKAS_clean_linker_0, # of connection points: 2
#     Edge 24, Type (0, 0), BuildingBlock: ZUJKAS_clean_linker_0, # of connection points: 2
#     Edge 25, Type (0, 0), BuildingBlock: ZUJKAS_clean_linker_0, # of connection points: 2
#     Edge 26, Type (0, 0), BuildingBlock: ZUJKAS_clean_linker_0, # of connection points: 2
#     Edge 27, Type (0, 0), BuildingBlock: ZUJKAS_clean_linker_0, # of connection points: 2
#     Edge 28, Type (0, 0), BuildingBlock: ZUJKAS_clean_linker_0, # of connection points: 2
#     Edge 29, Type (0, 0), BuildingBlock: ZUJKAS_clean_linker_0, # of connection points: 2
#     Edge 30, Type (0, 0), BuildingBlock: ZUJKAS_clean_linker_0, # of connection points: 2
#     Edge 31, Type (0, 0), BuildingBlock: ZUJKAS_clean_linker_0, # of connection points: 2
#     Edge 32, Type (0, 0), BuildingBlock: ZUJKAS_clean_linker_0, # of connection points: 2
#     Edge 33, Type (0, 0), BuildingBlock: ZUJKAS_clean_linker_0, # of connection points: 2
#     Edge 34, Type (0, 0), BuildingBlock: ZUJKAS_clean_linker_0, # of connection points: 2
#     Edge 35, Type (0, 0), BuildingBlock: ZUJKAS_clean_linker_0, # of connection points: 2
# Relax obj value: 0.171
# Max RMSD: 0.155
# Mean RMSD: 0.106
data_MOF--net-snz--node1-KUMBUR_clean_sbu_1--edge1-ZUJKAS_clean_linker_0
_symmetry_space_group_name_H-M    P1
_symmetry_Int_Tables_number       1
_symmetry_cell_setting            triclinic
loop_
_symmetry_equiv_pos_as_xyz
'x, y, z'
_cell_length_a     80.581632
_cell_length_b     67.784607
_cell_length_c     20.59841
_cell_angle_alpha  96.196025
_cell_angle_beta   95.551803
_cell_angle_gamma 120.54969
loop_
_atom_site_label
_atom_site_type_symbol
_atom_site_fract_x
_atom_site_fract_y
_atom_site_fract_z
_atom_type_partial_charge
Tb0 Tb 0.03331 0.50757 0.14282 0.0
C1 C 0.11778 0.5384 0.13222 0.0
N2 N 0.10192 0.51761 0.1012 0.0
C3 C 0.11603 0.52142 1.00219 0.0
C4 C 0.13292 0.55213 0.09843 0.0
C5 C 0.10166 0.50826 1.03849 0.0
C6 C 0.1315 0.54372 1.03179 0.0
C7 C 0.13698 0.56463 0.23601 0.0
C8 C 0.11982 0.54462 0.1998 0.0
C9 C 0.1515 0.57929 0.20201 0.0
C10 C 0.14944 0.57308 0.13322 0.0
Tb11 Tb 0.07832 0.49879 0.16423 0.0
N12 N 0.10548 0.52998 0.23071 0.0
C13 C 0.13937 0.56865 0.30536 0.0
C14 C 0.10838 0.53277 0.29845 0.0
C15 C 0.1252 0.55236 0.33675 0.0
H16 H 0.09045 0.49054 1.01632 0.0
H17 H 0.12721 0.5549 0.39036 0.0
H18 H 0.01526 0.49129 0.27939 0.0
H19 H 0.99764 0.47789 0.88397 0.0
H20 H 0.09749 0.52017 0.32278 0.0
H21 H 0.15238 0.58379 0.33508 0.0
H22 H 0.02231 0.50592 0.97882 0.0
H23 H 0.11535 0.51417 0.95185 0.0
H24 H 0.16468 0.59497 0.22874 0.0
H25 H 0.16111 0.58402 0.10796 0.0
H26 H 0.98579 0.45919 0.30815 0.0
H27 H 0.14281 0.55372 1.00399 0.0
H28 H 0.969 0.44153 0.9018 0.0
N29 N 1.00624 0.47874 0.17509 0.0
C30 C 0.99138 0.46279 0.12584 0.0
C31 C 0.98726 0.45984 0.25662 0.0
C32 C 0.9741 0.44417 0.14008 0.0
C33 C 1.00413 0.47794 0.23999 0.0
C34 C 0.97226 0.44272 0.20649 0.0
N35 N 0.00999 0.48424 1.04993 0.0
C36 C 0.01091 0.48943 0.98744 0.0
C37 C 0.97834 0.44932 1.00831 0.0
C38 C 0.99353 0.46533 1.06102 0.0
C39 C 0.98031 0.45342 0.94365 0.0
C40 C 0.99649 0.47384 0.93336 0.0
H41 H 0.95922 0.4287 0.21953 0.0
H42 H 0.94599 0.41312 0.09766 0.0
H43 H 0.94965 0.41772 0.98211 0.0
O44 O 0.01614 0.52085 0.10813 0.0
O45 O 0.02975 0.47378 0.15719 0.0
O46 O 0.05137 0.47123 0.09926 0.0
O47 O 0.03346 0.53439 0.20567 0.0
O48 O 0.04929 0.51421 1.05537 0.0
O49 O 0.06471 0.49318 1.05623 0.0
O50 O 0.0748 0.47216 0.21637 0.0
O51 O 0.08162 0.53231 0.20774 0.0
O52 O 0.06194 0.53478 0.12799 0.0
O53 O 0.09773 0.48655 0.15997 0.0
O54 O 0.06294 0.4934 0.25229 0.0
O55 O 0.04696 0.5139 0.25052 0.0
C56 C 0.03403 0.46145 0.11612 0.0
C57 C 1.00522 0.53749 0.18721 0.0
C58 C 0.98375 0.5533 0.1797 0.0
C59 C 0.97629 0.54354 0.23486 0.0
C60 C 0.99757 0.52806 0.24228 0.0
C61 C 0.98312 0.53099 0.26562 0.0
C62 C 0.99817 0.54998 0.15585 0.0
C63 C 0.05721 0.50372 1.02341 0.0
C64 C 0.02102 0.53538 0.1629 0.0
C65 C 0.95927 0.4277 0.08777 0.0
C66 C 0.9614 0.43025 1.02198 0.0
C67 C 0.077 0.54513 0.17606 0.0
C68 C 0.08571 0.44764 0.17469 0.0
C69 C 0.09187 0.41637 0.19201 0.0
C70 C 0.07805 0.40246 0.13408 0.0
C71 C 0.07206 0.43333 0.11737 0.0
C72 C 0.09569 0.43918 0.21176 0.0
C73 C 0.0683 0.41089 0.09726 0.0
C74 C 0.05486 0.50378 0.28345 0.0
C75 C 0.08927 0.47118 0.19699 0.0
H76 H 0.96502 0.54543 0.25395 0.0
H77 H 1.00287 0.51865 0.26769 0.0
H78 H 0.97726 0.52361 0.30806 0.0
H79 H 1.00428 0.55758 0.11389 0.0
H80 H 0.07492 0.38506 0.11658 0.0
H81 H 0.0643 0.4395 0.08829 0.0
H82 H 0.10612 0.45017 0.25646 0.0
H83 H 0.05775 0.39995 1.05285 0.0
Tb84 Tb 0.53752 0.51219 1.0277 0.0
C85 C 0.58636 0.46936 0.0659 0.0
N86 N 0.58942 0.48936 0.10157 0.0
C87 C 0.59476 0.47718 0.20281 0.0
C88 C 0.58651 0.452 0.0976 0.0
C89 C 0.59437 0.49382 0.16919 0.0
C90 C 0.59057 0.45604 0.16693 0.0
C91 C 0.57936 0.44555 0.95859 0.0
C92 C 0.58293 0.46626 0.99725 0.0
C93 C 0.57907 0.428 0.98993 0.0
C94 C 0.58269 0.43125 1.05926 0.0
Tb95 Tb 0.58789 0.51508 1.04138 0.0
N96 N 0.58299 0.48349 0.96853 0.0
C97 C 0.57631 0.44311 0.88954 0.0
C98 C 0.58111 0.48159 0.90101 0.0
C99 C 0.57745 0.46134 0.86073 0.0
H100 H 0.59872 0.51046 0.19776 0.0
H101 H 0.57574 0.45994 0.80735 0.0
H102 H 0.51219 0.49419 0.87444 0.0
H103 H 0.53912 0.57277 0.2249 0.0
H104 H 0.5829 0.49564 0.87703 0.0
H105 H 0.57351 0.42747 0.85812 0.0
H106 H 0.54093 0.53899 0.17686 0.0
H107 H 0.59855 0.48081 0.25639 0.0
H108 H 0.57625 0.41195 0.96097 0.0
H109 H 0.58261 0.41765 0.08275 0.0
H110 H 0.50031 0.51029 0.79216 0.0
H111 H 0.59089 0.44318 0.19313 0.0
H112 H 0.53234 0.59527 0.15095 0.0
N113 N 0.52444 0.5244 0.94944 0.0
C114 C 0.52535 0.54472 0.96924 0.0
C115 C 0.50758 0.52033 0.84154 0.0
C116 C 0.51809 0.55419 0.92507 0.0
C117 C 0.51453 0.5114 0.8879 0.0
C118 C 0.50975 0.54209 0.85979 0.0
N119 N 0.53643 0.54329 0.0771 0.0
C120 C 0.53819 0.54889 0.14433 0.0
C121 C 0.52988 0.57355 1.06085 0.0
C122 C 0.53128 0.55435 1.03589 0.0
C123 C 0.53332 0.58064 0.12972 0.0
C124 C 0.53711 0.56795 0.17164 0.0
H125 H 0.50403 0.54878 0.82423 0.0
H126 H 0.51301 0.58231 0.91527 0.0
H127 H 0.52325 0.59922 1.03451 0.0
O128 O 0.52033 0.48282 0.07025 0.0
O129 O 0.56378 0.54568 0.07714 0.0
O130 O 0.5877 0.5464 1.02468 0.0
O131 O 0.50759 0.49997 1.0232 0.0
O132 O 0.54878 0.50877 0.12753 0.0
O133 O 0.58251 0.52608 0.14109 0.0
O134 O 0.61315 0.52351 1.00064 0.0
O135 O 0.5595 0.48281 1.04339 0.0
O136 O 0.53891 0.48502 0.96663 0.0
O137 O 0.6157 0.53717 0.10233 0.0
O138 O 0.58018 0.52335 0.94396 0.0
O139 O 0.54706 0.51103 0.92739 0.0
C140 C 0.5811 0.55725 1.06019 0.0
C141 C 0.48646 0.46023 1.02553 0.0
C142 C 0.45434 0.42888 1.03994 0.0
C143 C 0.45099 0.41852 0.97316 0.0
C144 C 0.48283 0.44966 0.95928 0.0
C145 C 0.46517 0.42886 0.93337 0.0
C146 C 0.47233 0.44975 0.06569 0.0
C147 C 0.56607 0.51778 0.16662 0.0
C148 C 0.50435 0.48281 1.05326 0.0
C149 C 0.51827 0.57457 0.94857 0.0
C150 C 0.5241 0.58419 1.01649 0.0
C151 C 0.54442 0.47237 0.99427 0.0
C152 C 0.64258 0.53471 0.0711 0.0
C153 C 0.67651 0.54767 1.05921 0.0
C154 C 0.67609 0.53203 0.09972 0.0
C155 C 0.64259 0.51923 0.11096 0.0
C156 C 0.65953 0.54879 1.04496 0.0
C157 C 0.65927 0.51794 0.12514 0.0
C158 C 0.56382 0.51805 0.90421 0.0
C159 C 0.62514 0.53647 1.05512 0.0
H160 H 0.43727 0.40268 0.95113 0.0
H161 H 0.49352 0.45765 0.92759 0.0
H162 H 0.46235 0.42082 0.882 0.0
H163 H 0.47539 0.458 0.11706 0.0
H164 H 0.6887 0.53039 0.11097 0.0
H165 H 0.62977 0.50812 0.13105 0.0
H166 H 0.65956 0.56082 1.01422 0.0
H167 H 0.65914 0.5059 0.15586 0.0
Tb168 Tb 0.58428 0.09443 0.96674 0.0
C169 C 0.51756 0.98537 0.83739 0.0
N170 N 0.51726 1.00523 0.83961 0.0
C171 C 0.49604 0.98995 0.73369 0.0
C172 C 0.50734 0.96701 0.78244 0.0
C173 C 0.50629 1.00759 0.78975 0.0
C174 C 0.49675 0.96966 0.72964 0.0
C175 C 0.52631 0.96184 0.89531 0.0
C176 C 0.52694 0.9829 0.89278 0.0
C177 C 0.51699 0.94382 0.83946 0.0
C178 C 0.50752 0.9464 0.78307 0.0
Tb179 Tb 0.53576 0.03364 0.93017 0.0
N180 N 0.53544 1.00056 0.94594 0.0
C181 C 0.53438 0.95924 0.9547 0.0
C182 C 0.54214 0.99752 1.00533 0.0
C183 C 0.54201 0.977 1.01028 0.0
H184 H 0.50581 0.02331 0.79281 0.0
H185 H 0.54782 0.97494 1.05692 0.0
H186 H 0.61241 0.10833 0.11241 0.0
H187 H 0.56774 0.14669 0.82272 0.0
H188 H 0.54817 0.0111 1.04861 0.0
H189 H 0.53423 0.94335 0.95877 0.0
H190 H 0.56967 0.11259 0.83942 0.0
H191 H 0.48763 0.99201 0.69368 0.0
H192 H 0.5165 0.92757 0.84013 0.0
H193 H 0.49991 0.93213 0.74108 0.0
H194 H 0.62868 0.14129 0.20732 0.0
H195 H 0.4887 0.95596 0.68639 0.0
H196 H 0.58024 0.17988 0.9154 0.0
N197 N 0.60086 0.12432 1.05525 0.0
C198 C 0.59972 0.14344 1.05124 0.0
C199 C 0.62057 0.14212 0.16373 0.0
C200 C 0.60873 0.16264 0.10407 0.0
C201 C 0.61143 0.12354 0.10985 0.0
C202 C 0.61906 0.16168 0.16111 0.0
N203 N 0.5828 0.12574 0.94175 0.0
C204 C 0.57536 0.12685 0.88053 0.0
C205 C 0.58971 0.16422 0.98474 0.0
C206 C 0.5904 0.14421 0.9924 0.0
C207 C 0.58114 0.16487 0.92326 0.0
C208 C 0.57413 0.14621 0.87077 0.0
H209 H 0.62619 0.17607 0.20284 0.0
H210 H 0.6142 0.19719 0.13782 0.0
H211 H 0.5975 0.19855 1.03331 0.0
O212 O 0.60023 0.08485 0.90938 0.0
O213 O 0.55633 0.09383 0.96072 0.0
O214 O 0.53407 0.06059 0.88622 0.0
O215 O 0.61405 0.11922 0.96868 0.0
O216 O 0.57336 0.08081 0.85724 0.0
O217 O 0.54462 0.04428 0.83337 0.0
O218 O 0.52191 0.04491 0.99257 0.0
O219 O 0.56342 0.03409 0.93635 0.0
O220 O 0.58588 0.06733 1.01042 0.0
O221 O 0.50645 1.0097 0.93585 0.0
O222 O 0.54751 0.04612 1.03969 0.0
O223 O 0.57499 0.08374 0.06341 0.0
C224 C 0.5401 0.08172 0.91626 0.0
C225 C 0.63397 0.10324 0.95499 0.0
C226 C 0.66584 0.10797 0.94299 0.0
C227 C 0.66575 0.09899 1.00156 0.0
C228 C 0.63458 0.09462 1.01341 0.0
C229 C 0.65029 0.09244 1.03635 0.0
C230 C 0.6498 0.1102 0.91999 0.0
C231 C 0.55945 0.06216 0.81388 0.0
C232 C 0.61673 0.10471 0.93094 0.0
C233 C 0.60751 0.18231 0.0976 0.0
C234 C 0.598 0.18309 1.03808 0.0
C235 C 0.57922 0.04575 0.98239 0.0
C236 C 0.48745 0.02587 0.96264 0.0
C237 C 0.45616 0.01771 0.99222 0.0
C238 C 0.45379 0.02851 0.94044 0.0
C239 C 0.48461 0.03611 0.91051 0.0
C240 C 0.47316 0.01656 1.00302 0.0
C241 C 0.46791 0.03757 0.89984 0.0
C242 C 0.56074 0.06525 0.08304 0.0
C243 C 0.50526 0.02492 0.97648 0.0
H244 H 0.67786 0.09733 1.0212 0.0
H245 H 0.62289 0.08957 1.0415 0.0
H246 H 0.65051 0.08568 0.0815 0.0
H247 H 0.64951 0.11695 0.87482 0.0
H248 H 0.44085 0.02957 0.93056 0.0
H249 H 0.49525 0.04293 0.87819 0.0
H250 H 0.47542 1.00868 1.0434 0.0
H251 H 0.46586 0.04565 0.85975 0.0
Tb252 Tb 0.69082 0.855 0.29834 0.0
C253 C 0.7778 0.89641 0.35225 0.0
N254 N 0.76433 0.88117 0.29881 0.0
C255 C 0.78439 0.90481 0.22622 0.0
C256 C 0.79471 0.91709 0.34503 0.0
C257 C 0.76778 0.88458 0.23605 0.0
C258 C 0.79779 0.92131 0.28095 0.0
C259 C 0.78862 0.90572 0.47107 0.0
C260 C 0.77477 0.89078 0.41408 0.0
C261 C 0.80493 0.92705 0.46483 0.0
C262 C 0.80802 0.93269 0.40182 0.0
Tb263 Tb 0.73738 0.84885 0.3196 0.0
N264 N 0.75903 0.86981 0.41763 0.0
C265 C 0.78613 0.89828 0.53205 0.0
C266 C 0.75787 0.86153 0.47581 0.0
C267 C 0.77094 0.87583 0.5341 0.0
H268 H 0.75771 0.87185 0.19338 0.0
H269 H 0.76953 0.86931 0.58025 0.0
H270 H 0.68225 0.87329 0.44073 0.0
H271 H 0.63623 0.7887 0.0964 0.0
H272 H 0.7472 0.84367 0.47735 0.0
H273 H 0.79642 0.90921 0.57704 0.0
H274 H 0.66677 0.82604 0.14713 0.0
H275 H 0.78686 0.90764 0.17643 0.0
H276 H 0.81558 0.93891 0.50812 0.0
H277 H 0.82092 0.94889 0.39747 0.0
H278 H 0.65941 0.85571 0.51856 0.0
H279 H 0.8106 0.93699 0.27321 0.0
H280 H 0.61429 0.76404 0.16811 0.0
N281 N 0.66914 0.84172 0.37043 0.0
C282 C 0.65335 0.81985 0.35063 0.0
C283 C 0.65767 0.84529 0.47182 0.0
C284 C 0.63954 0.80928 0.39207 0.0
C285 C 0.67066 0.85512 0.42798 0.0
C286 C 0.6423 0.82205 0.45449 0.0
N287 N 0.66241 0.82172 0.24605 0.0
C288 C 0.65718 0.81532 0.17847 0.0
C289 C 0.63216 0.78823 0.25912 0.0
C290 C 0.64974 0.80947 0.28544 0.0
C291 C 0.62766 0.78028 0.19043 0.0
C292 C 0.63996 0.79422 0.14976 0.0
H293 H 0.63205 0.81458 0.48796 0.0
H294 H 0.61219 0.77842 0.39946 0.0
H295 H 0.60569 0.75995 0.28262 0.0
O296 O 0.6973 0.88411 0.25358 0.0
O297 O 0.68917 0.82271 0.25318 0.0
O298 O 0.70919 0.8195 0.33057 0.0
O299 O 0.66998 0.86503 0.28634 0.0
O300 O 0.70388 0.85781 0.20536 0.0
O301 O 0.72494 0.84365 0.21149 0.0
O302 O 0.7563 0.8369 0.34738 0.0
O303 O 0.73862 0.88153 0.30592 0.0
O304 O 0.71696 0.88256 0.36601 0.0
O305 O 0.73962 0.8258 0.24946 0.0
O306 O 0.7206 0.83965 0.4049 0.0
O307 O 0.7041 0.85942 0.40567 0.0
C308 C 0.69375 0.80966 0.28384 0.0
C309 C 0.68225 0.90495 0.28649 0.0
C310 C 0.67258 0.93367 0.27518 0.0
C311 C 0.68419 0.94633 0.33772 0.0
C312 C 0.69364 0.91796 0.34862 0.0
C313 C 0.69465 0.93856 0.37383 0.0
C314 C 0.67184 0.91294 0.24958 0.0
C315 C 0.7147 0.85082 0.17694 0.0
C316 C 0.68095 0.88292 0.26033 0.0
C317 C 0.62284 0.78704 0.3681 0.0
C318 C 0.61914 0.77651 0.30154 0.0
C319 C 0.73433 0.89303 0.3498 0.0
C320 C 0.7453 0.79835 0.29394 0.0
C321 C 0.75312 0.77016 0.33049 0.0
C322 C 0.7347 0.75197 0.29559 0.0
C323 C 0.72709 0.77968 0.25939 0.0
C324 C 0.75836 0.79345 0.32915 0.0
C325 C 0.72186 0.75673 0.26049 0.0
C326 C 0.71214 0.84927 0.43751 0.0
C327 C 0.75094 0.82279 0.29131 0.0
H328 H 0.68537 0.96245 0.35855 0.0
H329 H 0.70173 0.91215 0.37765 0.0
H330 H 0.70356 0.94857 0.42172 0.0
H331 H 0.66292 0.90283 0.20171 0.0
H332 H 0.73029 0.73392 0.29426 0.0
H333 H 0.71688 0.78273 0.23087 0.0
H334 H 0.77247 0.80772 0.35568 0.0
H335 H 0.70782 0.74253 0.23345 0.0
Tb336 Tb 0.17845 0.84223 0.42193 0.0
C337 C 0.23766 0.80661 0.49061 0.0
N338 N 0.24105 0.82837 0.50873 0.0
C339 C 0.26081 0.83345 0.61132 0.0
C340 C 0.24549 0.79719 0.53284 0.0
C341 C 0.25282 0.84209 0.56747 0.0
C342 C 0.25696 0.81081 0.59425 0.0
C343 C 0.22438 0.77225 0.40536 0.0
C344 C 0.22726 0.79434 0.42782 0.0
C345 C 0.23147 0.76234 0.44814 0.0
C346 C 0.242 0.77478 0.51175 0.0
Tb347 Tb 0.2259 0.83977 0.43593 0.0
N348 N 0.22068 0.80454 0.38786 0.0
C349 C 0.21489 0.76106 0.3401 0.0
C350 C 0.2125 0.79432 0.32285 0.0
C351 C 0.20917 0.7723 0.29844 0.0
H352 H 0.25592 0.85966 0.58057 0.0
H353 H 0.20212 0.76396 0.24754 0.0
H354 H 0.14931 0.82515 0.27554 0.0
H355 H 0.20306 0.91656 0.61711 0.0
H356 H 0.20784 0.80259 0.29 0.0
H357 H 0.2123 0.74402 0.32099 0.0
H358 H 0.19603 0.87759 0.57141 0.0
H359 H 0.26992 0.84426 0.65819 0.0
H360 H 0.22925 0.74529 0.432 0.0
H361 H 0.24775 0.76714 0.54368 0.0
H362 H 0.13751 0.84304 0.19951 0.0
H363 H 0.26324 0.80421 0.62816 0.0
H364 H 0.19516 0.93873 0.54542 0.0
N365 N 0.16517 0.85583 0.34964 0.0
C366 C 0.16942 0.87789 0.37 0.0
C367 C 0.14659 0.85309 0.24712 0.0
C368 C 0.16279 0.88868 0.32874 0.0
C369 C 0.15338 0.84306 0.29003 0.0
C370 C 0.15152 0.8761 0.26618 0.0
N371 N 0.18468 0.87759 0.47344 0.0
C372 C 0.19238 0.88683 0.53923 0.0
C373 C 0.18302 0.91142 0.45861 0.0
C374 C 0.17932 0.88906 0.43421 0.0
C375 C 0.19201 0.92154 0.52483 0.0
C376 C 0.19645 0.90905 0.56549 0.0
H377 H 0.14614 0.88377 0.23299 0.0
H378 H 0.1623 0.92001 0.32074 0.0
H379 H 0.18008 0.93996 0.43438 0.0
O380 O 0.15944 0.81527 0.46913 0.0
O381 O 0.20722 0.87524 0.42978 0.0
O382 O 0.22928 0.87072 0.49468 0.0
O383 O 0.14979 0.83521 0.42142 0.0
O384 O 0.18859 0.83933 0.52436 0.0
O385 O 0.22004 0.8457 0.53861 0.0
O386 O 0.24235 0.86547 0.38124 0.0
O387 O 0.1976 0.80716 0.43124 0.0
O388 O 0.17513 0.81075 0.36521 0.0
O389 O 0.25511 0.84931 0.43481 0.0
O390 O 0.21492 0.84104 0.33259 0.0
O391 O 0.18411 0.83645 0.31894 0.0
C392 C 0.22391 0.8842 0.47124 0.0
C393 C 0.12586 0.79615 0.42084 0.0
C394 C 0.09127 0.76793 0.42303 0.0
C395 C 0.08977 0.75669 0.35906 0.0
C396 C 0.12386 0.78443 0.35759 0.0
C397 C 0.10594 0.76479 0.32709 0.0
C398 C 0.10959 0.78782 0.45363 0.0
C399 C 0.20403 0.84174 0.56275 0.0
C400 C 0.14462 0.8176 0.45145 0.0
C401 C 0.16711 0.91134 0.35193 0.0
C402 C 0.17722 0.92269 0.41669 0.0
C403 C 0.18104 0.79775 0.38913 0.0
C404 C 0.27639 0.88799 0.42152 0.0
C405 C 0.30719 0.91932 0.39838 0.0
C406 C 0.31094 0.93169 0.46283 0.0
C407 C 0.28058 0.90042 0.4858 0.0
C408 C 0.28974 0.8974 0.37807 0.0
C409 C 0.29774 0.92222 0.50618 0.0
C410 C 0.19975 0.8393 0.29437 0.0
C411 C 0.25822 0.86517 0.39905 0.0
H412 H 0.07598 0.74184 0.33271 0.0
H413 H 0.13609 0.79068 0.33142 0.0
H414 H 0.1045 0.75597 0.27794 0.0
H415 H 0.11131 0.79685 0.50282 0.0
H416 H 0.32428 0.94848 0.48022 0.0
H417 H 0.27063 0.89321 0.52015 0.0
H418 H 0.28646 0.88772 0.32834 0.0
H419 H 0.30088 0.93173 0.55592 0.0
Tb420 Tb 0.22935 0.31652 0.53279 0.0
C421 C 0.1644 0.2056 0.41748 0.0
N422 N 0.16422 0.22516 0.41036 0.0
C423 C 0.14513 0.20694 0.30103 0.0
C424 C 0.15515 0.18594 0.36602 0.0
C425 C 0.15443 0.22594 0.35366 0.0
C426 C 0.14563 0.18691 0.30698 0.0
C427 C 0.17254 0.18449 0.4889 0.0
C428 C 0.17294 0.20491 0.47802 0.0
C429 C 0.164 0.16513 0.43706 0.0
C430 C 0.15532 0.16585 0.37573 0.0
Tb431 Tb 0.18071 0.25556 0.49781 0.0
N432 N 0.18086 0.2239 0.52709 0.0
C433 C 0.1803 0.18396 0.55197 0.0
C434 C 0.18767 0.22304 0.58964 0.0
C435 C 0.1877 0.20323 0.60269 0.0
H436 H 0.15426 0.2415 0.3482 0.0
H437 H 0.19352 0.2029 0.65188 0.0
H438 H 0.25941 0.32845 0.67218 0.0
H439 H 0.21537 0.37317 0.40232 0.0
H440 H 0.19372 0.23775 0.62947 0.0
H441 H 0.18031 0.16863 0.56232 0.0
H442 H 0.21637 0.33791 0.4124 0.0
H443 H 0.13767 0.2078 0.25582 0.0
H444 H 0.16368 0.14935 0.44432 0.0
H445 H 0.14843 0.15061 0.33663 0.0
H446 H 0.27693 0.36025 0.77009 0.0
H447 H 0.13837 0.17218 0.26622 0.0
H448 H 0.22781 0.40475 0.49986 0.0
N449 N 0.24716 0.34537 0.62323 0.0
C450 C 0.2461 0.36473 0.62445 0.0
C451 C 0.26829 0.36172 0.72947 0.0
C452 C 0.25584 0.38332 0.67899 0.0
C453 C 0.25847 0.34383 0.67387 0.0
C454 C 0.26679 0.38145 0.73242 0.0
N455 N 0.22849 0.34881 0.5156 0.0
C456 C 0.22183 0.35146 0.4555 0.0
C457 C 0.23637 0.38715 0.56483 0.0
C458 C 0.23645 0.36656 0.56843 0.0
C459 C 0.2282 0.38922 0.50474 0.0
C460 C 0.22123 0.37147 0.4495 0.0
H461 H 0.27449 0.39534 0.77537 0.0
H462 H 0.26211 0.4178 0.719 0.0
H463 H 0.24508 0.42119 0.61881 0.0
O464 O 0.24421 0.30628 0.47195 0.0
O465 O 0.20125 0.31512 0.52696 0.0
O466 O 0.17945 0.2823 0.45103 0.0
O467 O 0.25809 0.34174 0.52543 0.0
O468 O 0.21764 0.30342 0.42362 0.0
O469 O 0.19081 0.26539 0.40107 0.0
O470 O 0.16491 0.26649 0.55191 0.0
O471 O 0.2082 0.25512 0.50949 0.0
O472 O 0.23205 0.28999 0.57609 0.0
O473 O 0.15085 0.23154 0.49642 0.0
O474 O 0.19174 0.27001 0.60677 0.0
O475 O 0.22134 0.30562 0.63015 0.0
C476 C 0.18586 0.30376 0.47922 0.0
C477 C 0.27893 0.32831 0.49885 0.0
C478 C 0.30965 0.3366 0.46338 0.0
C479 C 0.31539 0.33216 0.52421 0.0
C480 C 0.28511 0.32436 0.55925 0.0
C481 C 0.30316 0.32604 0.57158 0.0
C482 C 0.2912 0.33441 0.45103 0.0
C483 C 0.20483 0.28395 0.38086 0.0
C484 C 0.26011 0.32706 0.48566 0.0
C485 C 0.25488 0.40339 0.67733 0.0
C486 C 0.24517 0.40531 0.62029 0.0
C487 C 0.22519 0.26809 0.55026 0.0
C488 C 0.13132 0.2482 0.50333 0.0
C489 C 0.09903 0.24344 0.50885 0.0
C490 C 0.0986 0.24858 0.44429 0.0
C491 C 0.1305 0.25406 0.44048 0.0
C492 C 0.11561 0.24309 0.53789 0.0
C493 C 0.11426 0.25414 0.41116 0.0
C494 C 0.20623 0.28819 0.64994 0.0
C495 C 0.14828 0.24674 0.53111 0.0
H496 H 0.32954 0.33398 0.53604 0.0
H497 H 0.2761 0.3203 0.59702 0.0
H498 H 0.30783 0.32295 0.61846 0.0
H499 H 0.28635 0.33748 0.40433 0.0
H500 H 0.08603 0.24807 0.41833 0.0
H501 H 0.14232 0.2583 0.41346 0.0
H502 H 0.11644 0.23904 0.58709 0.0
H503 H 0.11371 0.2583 0.362 0.0
Tb504 Tb 0.37897 0.17379 0.83855 0.0
C505 C 0.41032 0.17023 0.55689 0.0
N506 N 0.41583 0.18571 0.6137 0.0
C507 C 0.44957 0.19914 0.61 0.0
C508 C 0.42413 0.16799 0.525 0.0
C509 C 0.43525 0.20093 0.63882 0.0
C510 C 0.44397 0.1823 0.55339 0.0
C511 C 0.38448 0.14348 0.46554 0.0
C512 C 0.39094 0.15821 0.52789 0.0
C513 C 0.39789 0.14007 0.43482 0.0
C514 C 0.41773 0.15233 0.46457 0.0
Tb515 Tb 0.39134 0.186 0.66101 0.0
N516 N 0.37875 0.16265 0.55841 0.0
C517 C 0.36498 0.1335 0.43493 0.0
C518 C 0.36011 0.15429 0.52681 0.0
C519 C 0.35282 0.13923 0.46529 0.0
H520 H 0.43971 0.21415 0.6821 0.0
H521 H 0.33787 0.13214 0.44125 0.0
H522 H 0.36889 0.12119 0.857 0.0
H523 H 0.3518 0.2249 0.95169 0.0
H524 H 0.35071 0.15881 0.54992 0.0
H525 H 0.35938 0.12204 0.38699 0.0
H526 H 0.37602 0.21859 0.9036 0.0
H527 H 0.46491 0.21088 0.63109 0.0
H528 H 0.39322 0.12865 0.38713 0.0
H529 H 0.42807 0.15019 0.4394 0.0
H530 H 0.3417 0.08583 0.88574 0.0
H531 H 0.45509 0.18117 0.53051 0.0
H532 H 0.32076 0.19115 0.96861 0.0
N533 N 0.35543 0.14098 0.87055 0.0
C534 C 0.34047 0.14189 0.89218 0.0
C535 C 0.34108 0.10145 0.88736 0.0
C536 C 0.32474 0.12236 0.91003 0.0
C537 C 0.35647 0.1215 0.87119 0.0
C538 C 0.32496 0.10175 0.90579 0.0
N539 N 0.35845 0.18163 0.89016 0.0
C540 C 0.36247 0.20375 0.9103 0.0
C541 C 0.32792 0.16583 0.93075 0.0
C542 C 0.34204 0.16315 0.90241 0.0
C543 C 0.33126 0.1883 0.94686 0.0
C544 C 0.34879 0.20739 0.93761 0.0
H545 H 0.31315 0.0863 0.91896 0.0
H546 H 0.29751 0.10956 0.9476 0.0
H547 H 0.30029 0.14777 0.9657 0.0
O548 O 0.40884 0.19118 0.8802 0.0
O549 O 0.36511 0.18976 0.7854 0.0
O550 O 0.36134 0.17489 0.67585 0.0
O551 O 0.38687 0.17629 0.94106 0.0
O552 O 0.39324 0.20973 0.81861 0.0
O553 O 0.41306 0.20792 0.7509 0.0
O554 O 0.39795 0.20784 0.59029 0.0
O555 O 0.41113 0.18016 0.72718 0.0
O556 O 0.39092 0.15454 0.78857 0.0
O557 O 0.38855 0.21539 0.67859 0.0
O558 O 0.36734 0.14925 0.6545 0.0
O559 O 0.36293 0.14148 0.76182 0.0
C560 C 0.35593 0.18367 0.72358 0.0
C561 C 0.41645 0.17747 0.97095 0.0
C562 C 0.44236 0.18313 1.05692 0.0
C563 C 0.4393 0.16144 1.02844 0.0
C564 C 0.41317 0.15561 0.9449 0.0
C565 C 0.42469 0.14775 0.97306 0.0
C566 C 0.43089 0.19107 1.02708 0.0
C567 C 0.40984 0.22014 0.79621 0.0
C568 C 0.40548 0.18676 0.93891 0.0
C569 C 0.30987 0.12442 0.93433 0.0
C570 C 0.31146 0.14617 0.94465 0.0
C571 C 0.40645 0.16285 0.75977 0.0
C572 C 0.41304 0.24756 0.64088 0.0
C573 C 0.44673 0.2759 0.63224 0.0
C574 C 0.44508 0.29384 0.66529 0.0
C575 C 0.41165 0.26561 0.67507 0.0
C576 C 0.4307 0.2529 0.62022 0.0
C577 C 0.42763 0.28861 0.68737 0.0
C578 C 0.35907 0.1349 0.69627 0.0
C579 C 0.39624 0.22326 0.62763 0.0
H580 H 0.44802 0.15493 1.04933 0.0
H581 H 0.40179 0.14475 0.90273 0.0
H582 H 0.42221 0.13092 0.95218 0.0
H583 H 0.43276 0.20756 1.04826 0.0
H584 H 0.45719 0.31174 0.67389 0.0
H585 H 0.39824 0.26191 0.69218 0.0
H586 H 0.43193 0.23923 0.59296 0.0
H587 H 0.42644 0.30243 0.71364 0.0
Tb588 Tb 0.8812 0.18759 0.65295 0.0
C589 C 0.91458 0.14551 0.81039 0.0
N590 N 0.89535 0.13818 0.79273 0.0
C591 C 0.88855 0.09991 0.7492 0.0
C592 C 0.92176 0.13083 0.79413 0.0
C593 C 0.88217 0.11509 0.76758 0.0
C594 C 0.90851 0.10799 0.76098 0.0
C595 C 0.94664 0.17534 0.87208 0.0
C596 C 0.92683 0.16729 0.84906 0.0
C597 C 0.95415 0.16133 0.85302 0.0
C598 C 0.94174 0.13911 0.81397 0.0
Tb599 Tb 0.88714 0.16567 0.8202 0.0
N600 N 0.91916 0.18058 0.86457 0.0
C601 C 0.95816 0.19709 0.91406 0.0
C602 C 0.93 0.20126 0.90811 0.0
C603 C 0.94971 0.20995 0.93296 0.0
H604 H 0.86664 0.10798 0.76293 0.0
H605 H 0.95838 0.22656 0.96644 0.0
H606 H 0.88247 0.23637 0.70147 0.0
H607 H 0.83163 0.11532 0.45402 0.0
H608 H 0.92348 0.21115 0.92278 0.0
H609 H 0.97346 0.20391 0.93298 0.0
H610 H 0.86347 0.14278 0.52662 0.0
H611 H 0.87802 0.08187 0.7273 0.0
H612 H 0.96942 0.16731 0.86933 0.0
H613 H 0.94758 0.12821 0.80115 0.0
H614 H 0.8595 0.25047 0.6949 0.0
H615 H 0.91341 0.09612 0.74753 0.0
H616 H 0.80409 0.12182 0.45641 0.0
N617 N 0.86143 0.20255 0.64687 0.0
C618 C 0.84328 0.18855 0.60999 0.0
C619 C 0.85469 0.23293 0.67125 0.0
C620 C 0.82965 0.19571 0.60487 0.0
C621 C 0.86766 0.22493 0.67493 0.0
C622 C 0.83548 0.2181 0.63706 0.0
N623 N 0.85333 0.16276 0.57622 0.0
C624 C 0.85127 0.14507 0.53071 0.0
C625 C 0.82077 0.15311 0.53149 0.0
C626 C 0.83895 0.16765 0.57413 0.0
C627 C 0.81786 0.13348 0.4899 0.0
C628 C 0.83336 0.12975 0.48842 0.0
H629 H 0.82547 0.22432 0.63427 0.0
H630 H 0.80017 0.18562 0.5621 0.0
H631 H 0.79237 0.14823 0.49763 0.0
O632 O 0.88464 0.19487 0.55657 0.0
O633 O 0.86344 0.18786 0.72857 0.0
O634 O 0.85769 0.15674 0.77772 0.0
O635 O 0.90705 0.21733 0.64039 0.0
O636 O 0.87601 0.15194 0.64468 0.0
O637 O 0.86366 0.13946 0.73811 0.0
O638 O 0.88228 0.17596 0.91303 0.0
O639 O 0.91238 0.18807 0.77526 0.0
O640 O 0.89972 0.17283 0.66682 0.0
O641 O 0.87907 0.14255 0.88712 0.0
O642 O 0.89271 0.20155 0.83725 0.0
O643 O 0.90023 0.21554 0.73872 0.0
C644 C 0.85216 0.17059 0.75767 0.0
C645 C 0.9176 0.20888 0.54568 0.0
C646 C 0.92836 0.18342 0.49825 0.0
C647 C 0.94753 0.20301 0.50756 0.0
C648 C 0.93673 0.22808 0.55368 0.0
C649 C 0.95158 0.22513 0.53447 0.0
C650 C 0.91345 0.18672 0.51693 0.0
C651 C 0.8641 0.13523 0.6744 0.0
C652 C 0.90284 0.21148 0.57618 0.0
C653 C 0.81099 0.18063 0.56599 0.0
C654 C 0.80654 0.15932 0.52939 0.0
C655 C 0.91468 0.18244 0.7156 0.0
C656 C 0.89204 0.16114 0.99847 0.0
C657 C 0.90367 0.14498 0.07921 0.0
C658 C 0.91375 0.16699 0.12134 0.0
C659 C 0.90229 0.1829 1.04117 0.0
C660 C 0.89296 0.14237 1.01756 0.0
C661 C 0.91317 0.18577 0.10206 0.0
C662 C 0.90091 0.21884 0.80373 0.0
C663 C 0.88008 0.15756 0.93449 0.0
H664 H 0.95957 0.20126 0.49578 0.0
H665 H 0.94029 0.24523 0.57676 0.0
H666 H 0.9664 0.23996 0.54194 0.0
H667 H 0.89862 0.17198 0.51033 0.0
H668 H 0.92168 0.16968 0.17017 0.0
H669 H 0.90185 0.19767 1.02779 0.0
H670 H 0.88525 0.12569 0.98417 0.0
H671 H 0.92092 0.20253 0.13501 0.0
Tb672 Tb 0.89899 0.70834 0.79822 0.0
C673 C 0.82442 0.61426 0.69604 0.0
N674 N 0.84214 0.6177 0.71963 0.0
C675 C 0.82724 0.58784 0.78462 0.0
C676 C 0.80746 0.5985 0.71898 0.0
C677 C 0.84367 0.60385 0.76044 0.0
C678 C 0.80912 0.58554 0.76498 0.0
C679 C 0.80488 0.62053 0.61401 0.0
C680 C 0.82319 0.62503 0.64445 0.0
C681 C 0.78808 0.6065 0.64041 0.0
C682 C 0.78936 0.59543 0.69283 0.0
Tb683 Tb 0.86827 0.64501 0.68 0.0
N684 N 0.83965 0.63767 0.61927 0.0
C685 C 0.80389 0.62906 0.55575 0.0
C686 C 0.83832 0.64358 0.55842 0.0
C687 C 0.8206 0.64009 0.52685 0.0
H688 H 0.85774 0.60587 0.77602 0.0
H689 H 0.81981 0.64572 0.48005 0.0
H690 H 0.88676 0.73663 0.69614 0.0
H691 H 0.97033 0.72791 0.90634 0.0
H692 H 0.85106 0.65148 0.53487 0.0
H693 H 0.79014 0.62609 0.53081 0.0
H694 H 0.93447 0.70986 0.89573 0.0
H695 H 0.82857 0.57743 0.81866 0.0
H696 H 0.77391 0.60315 0.6185 0.0
H697 H 0.77618 0.58377 0.71068 0.0
H698 H 0.90115 0.76069 0.61303 0.0
H699 H 0.79643 0.5732 0.78384 0.0
H700 H 0.98797 0.75278 0.8271 0.0
N701 N 0.91109 0.73276 0.72267 0.0
C702 C 0.93056 0.74243 0.72195 0.0
C703 C 0.90947 0.75518 0.64206 0.0
C704 C 0.93994 0.75772 0.67832 0.0
C705 C 0.90103 0.74063 0.6876 0.0
C706 C 0.9289 0.76332 0.63618 0.0
N707 N 0.93191 0.7238 0.81036 0.0
C708 C 0.94206 0.72051 0.86066 0.0
C709 C 0.96183 0.74893 0.77252 0.0
C710 C 0.94143 0.73827 0.76848 0.0
C711 C 0.97226 0.74489 0.82227 0.0
C712 C 0.96235 0.73081 0.86699 0.0
H713 H 0.93553 0.77493 0.60176 0.0
H714 H 0.96759 0.77945 0.64691 0.0
H715 H 0.98673 0.77152 0.72896 0.0
O716 O 0.90372 0.74124 0.8345 0.0
O717 O 0.91279 0.69187 0.74711 0.0
O718 O 0.89306 0.67345 0.64635 0.0
O719 O 0.90434 0.71945 0.90175 0.0
O720 O 0.89789 0.68062 0.84914 0.0
O721 O 0.8892 0.64896 0.76515 0.0
O722 O 0.85749 0.6173 0.5992 0.0
O723 O 0.86105 0.65028 0.7783 0.0
O724 O 0.86745 0.68768 0.80179 0.0
O725 O 0.88337 0.62752 0.66752 0.0
O726 O 0.87252 0.67616 0.64166 0.0
O727 O 0.87256 0.6996 0.73068 0.0
C728 C 0.91062 0.6856 0.68299 0.0
C729 C 0.92726 0.75993 0.9327 0.0
C730 C 0.95008 0.77884 1.03771 0.0
C731 C 0.96389 0.79546 1.00576 0.0
C732 C 0.94113 0.77688 0.9013 0.0
C733 C 0.95932 0.79453 0.93783 0.0
C734 C 0.93181 0.76119 1.0007 0.0
C735 C 0.89721 0.66104 0.82649 0.0
C736 C 0.90832 0.74026 0.8956 0.0
C737 C 0.96017 0.76777 0.68032 0.0
C738 C 0.97109 0.76336 0.72729 0.0
C739 C 0.85639 0.66522 0.80202 0.0
C740 C 0.88151 0.61222 0.55812 0.0
C741 C 0.9009 0.6297 0.47414 0.0
C742 C 0.90165 0.60953 0.45735 0.0
C743 C 0.88228 0.59218 0.54084 0.0
C744 C 0.89072 0.63086 0.52459 0.0
C745 C 0.89229 0.59085 0.49046 0.0
C746 C 0.86684 0.68988 0.6676 0.0
C747 C 0.87179 0.61393 0.61302 0.0
H748 H 0.97814 0.80904 1.03319 0.0
H749 H 0.93807 0.77639 0.8486 0.0
H750 H 0.96999 0.80738 0.91326 0.0
H751 H 0.92128 0.74778 1.0244 0.0
H752 H 0.90927 0.60813 0.41829 0.0
H753 H 0.87528 0.57767 0.56662 0.0
H754 H 0.89024 0.6464 0.53868 0.0
H755 H 0.89288 0.57535 0.47723 0.0
H756 H 0.05215 0.53191 0.94257 0.0
H757 H 0.05121 0.53118 0.82296 0.0
H758 H 0.06358 0.4763 0.80845 0.0
H759 H 0.06318 0.47598 0.9271 0.0
H760 H 0.07235 0.54042 0.73589 0.0
H761 H 0.02376 0.44572 0.65112 0.0
H762 H 0.02821 0.45898 0.73651 0.0
H763 H 0.04534 0.45231 0.70546 0.0
C764 C 0.05434 0.51927 0.91423 0.0
C765 C 0.05749 0.50379 0.94738 0.0
C766 C 0.05396 0.51899 0.84433 0.0
C767 C 0.05675 0.50324 0.80229 0.0
C768 C 0.0605 0.48822 0.83595 0.0
H769 H 0.06581 0.48088 0.36793 0.0
H770 H 0.06615 0.48112 0.48738 0.0
C771 C 0.06067 0.48834 0.9058 0.0
C772 C 0.05618 0.50306 0.72534 0.0
H773 H 0.03995 0.46733 0.57009 0.0
C774 C 0.06504 0.52423 0.70035 0.0
C775 C 0.04678 0.48237 0.67525 0.0
C776 C 0.03531 0.45858 0.69324 0.0
C777 C 0.0652 0.5253 0.63084 0.0
C778 C 0.05602 0.50463 0.58106 0.0
C779 C 0.04718 0.48348 0.60584 0.0
C780 C 0.05558 0.50454 0.50442 0.0
C781 C 0.07592 0.54899 0.61176 0.0
C782 C 0.04927 0.51722 0.46933 0.0
C783 C 0.0489 0.51695 0.39933 0.0
C784 C 0.05489 0.50402 0.35963 0.0
C785 C 0.06107 0.49123 0.39465 0.0
C786 C 0.06124 0.49133 0.4644 0.0
H787 H 0.08689 0.5625 0.65403 0.0
H788 H 0.08352 0.54886 0.56968 0.0
H789 H 0.06524 0.55406 0.59643 0.0
H790 H 0.04424 0.52727 0.49591 0.0
H791 H 0.0439 0.52706 0.37627 0.0
H792 H 0.53292 0.49951 0.79411 0.0
H793 H 0.53394 0.50017 0.67568 0.0
H794 H 0.59687 0.53902 0.71954 0.0
H795 H 0.59584 0.53819 0.83776 0.0
H796 H 0.54468 0.52909 0.59339 0.0
H797 H 0.59343 0.49496 0.57174 0.0
H798 H 0.58347 0.49565 0.64598 0.0
H799 H 0.60485 0.5214 0.63169 0.0
C800 C 0.54709 0.50845 0.77942 0.0
C801 C 0.56426 0.51892 0.82861 0.0
C802 C 0.54769 0.50871 0.71006 0.0
C803 C 0.5655 0.51919 0.68482 0.0
C804 C 0.58268 0.52996 0.7342 0.0
H805 H 0.59795 0.53918 0.27523 0.0
H806 H 0.59772 0.53951 0.39486 0.0
C807 C 0.58208 0.52971 0.80348 0.0
C808 C 0.566 0.51916 0.60854 0.0
H809 H 0.58738 0.50991 0.47916 0.0
C810 C 0.55402 0.5247 0.5691 0.0
C811 C 0.57802 0.5136 0.57323 0.0
C812 C 0.59052 0.50584 0.60755 0.0
C813 C 0.55402 0.52537 0.49942 0.0
C814 C 0.56603 0.51981 0.46412 0.0
C815 C 0.57805 0.51432 0.50353 0.0
C816 C 0.56622 0.51943 0.38763 0.0
C817 C 0.54144 0.53299 0.46493 0.0
C818 C 0.54881 0.5078 0.33927 0.0
C819 C 0.54893 0.50748 0.26969 0.0
C820 C 0.56648 0.5186 0.24312 0.0
C821 C 0.58396 0.5301 0.29131 0.0
C822 C 0.58382 0.53034 0.36115 0.0
H823 H 0.53855 0.54392 0.50059 0.0
H824 H 0.54839 0.54304 0.42616 0.0
H825 H 0.5271 0.51736 0.44114 0.0
H826 H 0.53479 0.49843 0.35501 0.0
H827 H 0.53497 0.49818 0.23629 0.0
H828 H 0.58434 0.09744 0.74868 0.0
H829 H 0.58416 0.09771 0.62949 0.0
H830 H 0.53507 0.02707 0.58545 0.0
H831 H 0.53498 0.02695 0.70421 0.0
H832 H 0.59032 0.07726 0.52879 0.0
H833 H 0.51291 0.04972 0.45606 0.0
H834 H 0.52439 0.05732 0.54184 0.0
H835 H 0.5153 0.02867 0.49492 0.0
C836 C 0.57332 0.08191 0.71401 0.0
C837 C 0.55948 0.06227 0.73851 0.0
C838 C 0.57325 0.08205 0.64462 0.0
C839 C 0.55929 0.06263 0.59532 0.0
C840 C 0.54571 0.04284 0.61994 0.0
H841 H 0.53662 0.02935 0.1479 0.0
H842 H 0.53668 0.02894 0.26704 0.0
C843 C 0.54574 0.04271 0.68928 0.0
C844 C 0.55932 0.06298 0.51962 0.0
H845 H 0.52983 0.0497 0.36779 0.0
C846 C 0.57698 0.07132 0.49421 0.0
C847 C 0.5422 0.05532 0.47158 0.0
C848 C 0.52267 0.04748 0.49242 0.0
C849 C 0.57795 0.0717 0.42508 0.0
C850 C 0.56082 0.06401 0.37707 0.0
C851 C 0.54316 0.05564 0.40243 0.0
C852 C 0.56089 0.06441 0.30145 0.0
C853 C 0.59748 0.0797 0.40415 0.0
C854 C 0.57414 0.08446 0.27709 0.0
C855 C 0.57412 0.08472 0.20781 0.0
C856 C 0.5608 0.06499 0.15841 0.0
C857 C 0.54733 0.04504 0.1827 0.0
C858 C 0.54732 0.0448 0.25204 0.0
H859 H 0.60737 0.0777 0.44065 0.0
H860 H 0.59579 0.06979 0.35487 0.0
H861 H 0.60468 0.09845 0.40112 0.0
H862 H 0.58448 0.10034 0.31176 0.0
H863 H 0.58455 0.1007 0.1931 0.0
H864 H 0.71842 0.8218 0.51857 0.0
H865 H 0.71934 0.82251 0.63846 0.0
H866 H 0.70544 0.87604 0.65261 0.0
H867 H 0.70543 0.87615 0.53343 0.0
H868 H 0.74188 0.85623 0.75424 0.0
H869 H 0.66516 0.83177 0.75322 0.0
H870 H 0.67408 0.8289 0.67784 0.0
H871 H 0.67915 0.8569 0.71673 0.0
C872 C 0.71579 0.83405 0.5467 0.0
C873 C 0.71192 0.84899 0.51337 0.0
C874 C 0.71618 0.83433 0.61658 0.0
C875 C 0.71222 0.84911 0.65767 0.0
C876 C 0.70821 0.86393 0.62436 0.0
H877 H 0.69932 0.86866 0.08811 0.0
H878 H 0.69943 0.86848 0.96903 0.0
C879 C 0.70815 0.86394 0.5547 0.0
C880 C 0.71255 0.8492 0.73405 0.0
H881 H 0.68501 0.8427 0.85845 0.0
C882 C 0.7293 0.85314 0.77642 0.0
C883 C 0.69651 0.84546 0.76629 0.0
C884 C 0.67762 0.84031 0.72638 0.0
C885 C 0.73065 0.85406 0.8471 0.0
C886 C 0.71446 0.8499 0.8795 0.0
C887 C 0.69768 0.84591 0.83675 0.0
C888 C 0.71463 0.84999 0.95622 0.0
C889 C 0.75009 0.86068 0.8864 0.0
C890 C 0.72281 0.83948 0.9936 0.0
C891 C 0.72303 0.83991 0.06353 0.0
C892 C 0.71468 0.8504 0.10082 0.0
C893 C 0.70608 0.86039 0.06334 0.0
C894 C 0.70607 0.86021 0.99364 0.0
H895 H 0.76234 0.87107 0.86038 0.0
H896 H 0.75297 0.87101 0.93624 0.0
H897 H 0.75011 0.84462 0.89229 0.0
H898 H 0.72888 0.83041 0.96869 0.0
H899 H 0.72963 0.83163 0.08834 0.0
H900 H 0.17491 0.83647 0.63647 0.0
H901 H 0.17452 0.83632 0.75552 0.0
H902 H 0.2319 0.84583 0.7827 0.0
H903 H 0.23253 0.84665 0.66456 0.0
H904 H 0.17408 0.81077 0.84159 0.0
H905 H 0.24398 0.89354 0.93572 0.0
H906 H 0.23311 0.88457 0.84905 0.0
H907 H 0.2473 0.8733 0.88382 0.0
C908 C 0.18762 0.83873 0.66744 0.0
C909 C 0.20384 0.84174 0.6383 0.0
C910 C 0.18736 0.83858 0.73679 0.0
C911 C 0.20335 0.84159 0.78163 0.0
C912 C 0.21943 0.84424 0.75223 0.0
H913 H 0.22878 0.84416 0.22069 0.0
H914 H 0.22922 0.84422 0.1016 0.0
C915 C 0.21971 0.84446 0.68299 0.0
C916 C 0.20293 0.84139 0.8574 0.0
H917 H 0.22974 0.86991 1.01539 0.0
C918 C 0.18632 0.82393 0.87907 0.0
C919 C 0.21865 0.85821 0.90922 0.0
C920 C 0.23667 0.87859 0.89347 0.0
C921 C 0.18517 0.82248 0.94775 0.0
C922 C 0.20088 0.83929 0.99957 0.0
C923 C 0.2175 0.85675 0.97791 0.0
C924 C 0.20045 0.83911 0.07534 0.0
C925 C 0.16714 0.80211 0.96351 0.0
C926 C 0.18438 0.83655 0.10463 0.0
C927 C 0.18407 0.83639 0.17387 0.0
C928 C 0.1999 0.83906 0.21869 0.0
C929 C 0.2161 0.84192 0.18962 0.0
C930 C 0.21639 0.84204 0.12026 0.0
H931 H 0.15983 0.78715 0.92129 0.0
H932 H 0.17069 0.79614 1.00798 0.0
H933 H 0.15651 0.80741 0.9731 0.0
H934 H 0.17194 0.83501 0.07407 0.0
H935 H 0.17125 0.83423 0.19213 0.0
H936 H 0.18032 0.25356 0.71475 0.0
H937 H 0.18029 0.25314 0.83378 0.0
H938 H 0.23207 0.32178 0.87915 0.0
H939 H 0.23198 0.32235 0.76041 0.0
H940 H 0.20329 0.25389 0.93742 0.0
H941 H 0.20234 0.33436 1.00282 0.0
H942 H 0.19861 0.32109 0.91779 0.0
H943 H 0.22299 0.33928 0.96539 0.0
C944 C 0.19177 0.26872 0.7496 0.0
C945 C 0.20619 0.28802 0.72539 0.0
C946 C 0.19175 0.26845 0.81891 0.0
C947 C 0.20595 0.28757 0.86845 0.0
C948 C 0.22045 0.3068 0.84427 0.0
H949 H 0.22912 0.31963 0.31591 0.0
H950 H 0.22934 0.31996 0.19697 0.0
C951 C 0.22054 0.30703 0.77498 0.0
C952 C 0.20574 0.28715 0.94403 0.0
H953 H 0.20784 0.31816 0.09298 0.0
C954 C 0.20418 0.26801 0.97087 0.0
C955 C 0.20697 0.30532 0.9905 0.0
C956 C 0.20763 0.32607 0.96776 0.0
C957 C 0.20432 0.26679 1.04008 0.0
C958 C 0.20542 0.28489 0.08659 0.0
C959 C 0.20698 0.30404 1.05965 0.0
C960 C 0.20516 0.28448 0.16226 0.0
C961 C 0.20406 0.24622 0.06264 0.0
C962 C 0.19143 0.2647 0.1866 0.0
C963 C 0.19139 0.26443 0.25589 0.0
C964 C 0.20485 0.28404 0.30539 0.0
C965 C 0.2184 0.30395 0.2811 0.0
C966 C 0.2185 0.30418 0.21179 0.0
H967 H 0.2099 0.23852 1.0281 0.0
H968 H 0.21284 0.25119 0.11304 0.0
H969 H 0.18873 0.23251 0.06352 0.0
H970 H 0.18035 0.24925 0.1519 0.0
H971 H 0.18063 0.24862 0.27047 0.0
H972 H 0.46052 0.30173 0.53722 0.0
H973 H 0.47632 0.29303 0.45276 0.0
H974 H 0.4863 0.25033 0.57195 0.0
H975 H 0.4703 0.25879 0.65624 0.0
H976 H 0.5109 0.28263 0.43317 0.0
H977 H 0.43427 0.20855 0.41975 0.0
H978 H 0.44184 0.23788 0.45668 0.0
H979 H 0.45024 0.22203 0.49888 0.0
C980 C 0.46725 0.29178 0.54737 0.0
C981 C 0.46395 0.28055 0.60227 0.0
C982 C 0.47629 0.28681 0.49907 0.0
C983 C 0.48211 0.27072 0.50583 0.0
C984 C 0.48191 0.26281 0.56607 0.0
H985 H 0.44995 0.16604 0.16314 0.0
H986 H 0.46668 0.1876 0.27471 0.0
C987 C 0.47273 0.26761 0.61411 0.0
C988 C 0.48186 0.25686 0.44503 0.0
H989 H 0.45007 0.20754 0.33249 0.0
C990 C 0.49779 0.26599 0.41145 0.0
C991 C 0.46463 0.23527 0.41688 0.0
C992 C 0.44668 0.22523 0.44937 0.0
C993 C 0.49673 0.25415 0.34918 0.0
C994 C 0.47919 0.23298 0.32003 0.0
C995 C 0.46362 0.22357 0.35518 0.0
C996 C 0.47528 0.22139 0.25031 0.0
C997 C 0.51421 0.26458 0.31491 0.0
C998 C 0.47548 0.23335 0.19858 0.0
C999 C 0.4662 0.22107 0.13413 0.0
C1000 C 0.45616 0.19656 0.12056 0.0
C1001 C 0.45753 0.18487 0.17135 0.0
C1002 C 0.46709 0.1972 0.23548 0.0
H1003 H 0.52805 0.27506 0.35155 0.0
H1004 H 0.51491 0.25091 0.28253 0.0
H1005 H 0.51316 0.2764 0.28376 0.0
H1006 H 0.48139 0.25194 0.20876 0.0
H1007 H 0.46591 0.2307 0.09583 0.0
H1008 H 0.90047 0.1407 0.52479 0.0
H1009 H 0.89157 0.10216 0.47088 0.0
H1010 H 0.93652 0.13329 0.35204 0.0
H1011 H 0.94573 0.17165 0.40606 0.0
H1012 H 0.87542 0.0862 0.35299 0.0
H1013 H 0.93745 0.07558 0.35587 0.0
H1014 H 0.93709 0.09527 0.42179 0.0
H1015 H 0.94776 0.10558 0.34993 0.0
C1016 C 0.90887 0.1395 0.48841 0.0
C1017 C 0.92396 0.15964 0.47024 0.0
C1018 C 0.90386 0.11726 0.45818 0.0
C1019 C 0.9136 0.11457 0.40831 0.0
C1020 C 0.92923 0.13462 0.39229 0.0
H1021 H 0.93288 0.14464 0.15822 0.0
H1022 H 0.92916 0.115 0.22011 0.0
C1023 C 0.93437 0.15681 0.42289 0.0
C1024 C 0.90461 0.0922 0.36095 0.0
H1025 H 0.92147 0.07447 0.23683 0.0
C1026 C 0.88537 0.08297 0.32855 0.0
C1027 C 0.91632 0.08526 0.3308 0.0
C1028 C 0.93571 0.09076 0.36727 0.0
C1029 C 0.88007 0.07366 0.26057 0.0
C1030 C 0.8949 0.07519 0.22559 0.0
C1031 C 0.9109 0.07591 0.26257 0.0
C1032 C 0.89929 0.08898 0.17084 0.0
C1033 C 0.85984 0.06605 0.22628 0.0
C1034 C 0.88468 0.08423 0.11777 0.0
C1035 C 0.88642 0.10203 0.08479 0.0
C1036 C 0.9033 0.1246 0.10192 0.0
C1037 C 0.91922 0.12797 0.14642 0.0
C1038 C 0.91718 0.11055 0.18099 0.0
H1039 H 0.84935 0.06089 0.26147 0.0
H1040 H 0.86011 0.08067 0.20569 0.0
H1041 H 0.8544 0.05094 0.18561 0.0
H1042 H 0.87123 0.06742 0.10527 0.0
H1043 H 0.87391 0.09839 1.0496 0.0
H1044 H 0.93762 0.64913 0.44341 0.0
H1045 H 0.95453 0.68335 0.39141 0.0
H1046 H 0.90354 0.6894 0.37579 0.0
H1047 H 0.88667 0.65538 0.42793 0.0
H1048 H 0.94608 0.69005 0.27414 0.0
H1049 H 0.92019 0.73278 0.4185 0.0
H1050 H 0.94477 0.75468 0.4567 0.0
H1051 H 0.93477 0.72511 0.46883 0.0
C1052 C 0.93 0.6577 0.42845 0.0
C1053 C 0.9109 0.64973 0.44009 0.0
C1054 C 0.9397 0.6773 0.39915 0.0
C1055 C 0.93052 0.68938 0.38168 0.0
C1056 C 0.91121 0.68097 0.3914 0.0
H1057 H 0.92737 0.77287 0.13171 0.0
H1058 H 0.92913 0.75716 0.23093 0.0
C1059 C 0.90154 0.66143 0.42073 0.0
C1060 C 0.94055 0.7097 0.34872 0.0
H1061 H 0.94985 0.76462 0.34631 0.0
C1062 C 0.94732 0.70658 0.29062 0.0
C1063 C 0.94204 0.73121 0.37032 0.0
C1064 C 0.93517 0.73609 0.43235 0.0
C1065 C 0.95399 0.72349 0.25029 0.0
C1066 C 0.95478 0.74467 0.2705 0.0
C1067 C 0.9494 0.7485 0.33124 0.0
C1068 C 0.95711 0.76059 0.22356 0.0
C1069 C 0.95839 0.7175 0.1838 0.0
C1070 C 0.97301 0.76961 0.18965 0.0
C1071 C 0.97175 0.77804 0.13148 0.0
C1072 C 0.95477 0.77801 0.10806 0.0
C1073 C 0.94037 0.77246 0.14794 0.0
C1074 C 0.94144 0.76361 0.20495 0.0
H1075 H 0.95367 0.69882 0.17142 0.0
H1076 H 0.95093 0.72142 0.14352 0.0
H1077 H 0.97439 0.72801 0.18465 0.0
H1078 H 0.9856 0.76827 0.20479 0.0
H1079 H 0.98317 0.78249 0.10196 0.0
H1080 H 0.16273 0.29306 0.3586 0.0
H1081 H 0.1476 0.31374 0.31654 0.0
H1082 H 0.17154 0.36268 0.5014 0.0
H1083 H 0.18654 0.34187 0.54421 0.0
H1084 H 0.13148 0.34655 0.45247 0.0
H1085 H 0.17732 0.3778 0.25881 0.0
H1086 H 0.16526 0.34693 0.25669 0.0
H1087 H 0.18361 0.36673 0.32688 0.0
C1088 C 0.16464 0.30809 0.39067 0.0
C1089 C 0.17587 0.31575 0.45492 0.0
C1090 C 0.15612 0.32006 0.36623 0.0
C1091 C 0.15862 0.34003 0.4053 0.0
C1092 C 0.16944 0.34741 0.47007 0.0
H1093 H 0.13084 0.4381 0.24937 0.0
H1094 H 0.14745 0.42102 0.30565 0.0
C1095 C 0.17802 0.33548 0.49451 0.0
C1096 C 0.1499 0.35311 0.37858 0.0
H1097 H 0.15023 0.38304 0.25442 0.0
C1098 C 0.13566 0.35461 0.40935 0.0
C1099 C 0.1555 0.364 0.32289 0.0
C1100 C 0.17139 0.36404 0.2896 0.0
C1101 C 0.12649 0.36603 0.38484 0.0
C1102 C 0.13152 0.37611 0.32749 0.0
C1103 C 0.1462 0.37521 0.29799 0.0
C1104 C 0.12131 0.38698 0.29619 0.0
C1105 C 0.11157 0.36733 0.42099 0.0
C1106 C 0.10107 0.37366 0.27196 0.0
C1107 C 0.09156 0.38339 0.23989 0.0
C1108 C 0.102 0.40673 0.23077 0.0
C1109 C 0.12226 0.42018 0.25598 0.0
C1110 C 0.13181 0.41036 0.28782 0.0
H1111 H 0.11346 0.365 0.47321 0.0
H1112 H 0.11255 0.38427 0.42087 0.0
H1113 H 0.09667 0.35322 0.39577 0.0
H1114 H 0.09261 0.35552 0.27664 0.0
H1115 H 0.07594 0.37249 0.22182 0.0
H1116 H 0.62093 0.58652 0.06638 0.0
H1117 H 0.64106 0.62883 0.10631 0.0
H1118 H 0.58937 0.62951 0.14004 0.0
H1119 H 0.56965 0.58756 0.10272 0.0
H1120 H 0.64306 0.66549 0.06753 0.0
H1121 H 0.62254 0.66433 0.31564 0.0
H1122 H 0.61605 0.63801 0.2604 0.0
H1123 H 0.6013 0.65089 0.25185 0.0
C1124 C 0.61385 0.59567 0.08253 0.0
C1125 C 0.5935 0.5833 0.08192 0.0
C1126 C 0.62542 0.61998 0.10548 0.0
C1127 C 0.61698 0.63265 0.12827 0.0
C1128 C 0.59658 0.62036 0.12545 0.0
H1129 H 0.67023 0.78389 0.16356 0.0
H1130 H 0.65194 0.7416 0.12744 0.0
C1131 C 0.58514 0.59614 0.10344 0.0
C1132 C 0.62925 0.65861 0.15365 0.0
H1133 H 0.63791 0.7014 0.28149 0.0
C1134 C 0.64198 0.67326 0.11458 0.0
C1135 C 0.62838 0.6691 0.21578 0.0
C1136 C 0.6165 0.65474 0.26362 0.0
C1137 C 0.65326 0.69777 0.13466 0.0
C1138 C 0.65145 0.7083 0.19486 0.0
C1139 C 0.63917 0.69362 0.23482 0.0
C1140 C 0.66222 0.73437 0.21764 0.0
C1141 C 0.66733 0.71204 0.09154 0.0
C1142 C 0.67359 0.7448 0.28167 0.0
C1143 C 0.68364 0.7691 0.3032 0.0
C1144 C 0.68257 0.78372 0.26147 0.0
C1145 C 0.67108 0.77327 0.1977 0.0
C1146 C 0.66091 0.74897 0.17638 0.0
H1147 H 0.67176 0.70157 1.06085 0.0
H1148 H 0.66007 0.71804 1.05724 0.0
H1149 H 0.68073 0.72755 0.12174 0.0
H1150 H 0.67492 0.73416 0.31494 0.0
H1151 H 0.69236 0.77645 0.35259 0.0
H1152 H 0.43672 0.03685 1.04724 0.0
H1153 H 0.41148 0.02001 0.11605 0.0
H1154 H 0.41537 0.95857 0.09983 0.0
H1155 H 0.44085 0.9755 1.03208 0.0
H1156 H 0.37576 0.98128 0.08937 0.0
H1157 H 0.42029 0.974 0.29702 0.0
H1158 H 0.431 0.99031 0.23328 0.0
H1159 H 0.4196 0.95911 0.21842 0.0
C1160 C 0.43221 0.01976 1.05842 0.0
C1161 C 0.4409 1.00759 1.03455 0.0
C1162 C 0.4178 0.01017 0.09789 0.0
C1163 C 0.41173 0.98818 0.1143 0.0
C1164 C 0.42018 0.97584 0.08963 0.0
H1165 H 0.32034 0.8968 0.32002 0.0
H1166 H 0.34513 0.91336 0.24922 0.0
C1167 C 0.43472 0.98551 1.05069 0.0
C1168 C 0.39621 0.97795 0.15568 0.0
H1169 H 0.38598 0.95478 0.29662 0.0
C1170 C 0.37806 0.97563 0.13488 0.0
C1171 C 0.39917 0.97058 0.21527 0.0
C1172 C 0.41863 0.97382 0.24273 0.0
C1173 C 0.36277 0.96584 0.17133 0.0
C1174 C 0.36568 0.95822 0.23023 0.0
C1175 C 0.38376 0.96051 0.25115 0.0
C1176 C 0.3502 0.9481 0.27138 0.0
C1177 C 0.34347 0.96337 0.14623 0.0
C1178 C 0.34487 0.96217 0.30737 0.0
C1179 C 0.33077 0.9528 0.34803 0.0
C1180 C 0.32165 0.92912 0.35323 0.0
C1181 C 0.3269 0.91502 0.3165 0.0
C1182 C 0.34114 0.92448 0.27634 0.0
H1183 H 0.34238 0.96625 0.0943 0.0
H1184 H 0.33111 0.94578 0.14885 0.0
H1185 H 0.34187 0.97637 0.17813 0.0
H1186 H 0.3518 0.9805 0.30465 0.0
H1187 H 0.32697 0.96408 0.37533 0.0
H1188 H 0.51866 0.07513 0.79607 0.0
H1189 H 0.49738 0.09002 0.76827 0.0
H1190 H 0.5111 0.12451 0.97177 0.0
H1191 H 0.53345 0.11087 0.9983 0.0
H1192 H 0.46589 0.08288 0.79735 0.0
H1193 H 0.51717 0.17681 0.89203 0.0
H1194 H 0.52522 0.15639 0.88743 0.0
H1195 H 0.51462 0.16049 0.95709 0.0
C1196 C 0.51738 0.08622 0.83467 0.0
C1197 C 0.5279 0.09192 0.89936 0.0
C1198 C 0.50507 0.09469 0.81881 0.0
C1199 C 0.50261 0.10889 0.86731 0.0
C1200 C 0.51305 0.11439 0.93232 0.0
H1201 H 0.39886 0.12202 0.79965 0.0
H1202 H 0.42168 0.10935 0.82716 0.0
C1203 C 0.52579 0.1064 0.94779 0.0
C1204 C 0.48861 0.11698 0.84993 0.0
H1205 H 0.48334 0.16432 0.8675 0.0
C1206 C 0.46989 0.1008 0.81234 0.0
C1207 C 0.49356 0.14042 0.86799 0.0
C1208 C 0.5138 0.15955 0.90267 0.0
C1209 C 0.45621 0.10717 0.79278 0.0
C1210 C 0.46073 0.13029 0.81412 0.0
C1211 C 0.4795 0.14652 0.85138 0.0
C1212 C 0.4465 0.13815 0.79775 0.0
C1213 C 0.43736 0.08905 0.74715 0.0
C1214 C 0.45262 0.15921 0.77442 0.0
C1215 C 0.43966 0.16705 0.76133 0.0
C1216 C 0.42007 0.15401 0.77054 0.0
C1217 C 0.41384 0.13275 0.79252 0.0
C1218 C 0.42691 0.1252 0.80721 0.0
H1219 H 0.43919 0.0759 0.71696 0.0
H1220 H 0.42599 0.07965 0.77726 0.0
H1221 H 0.43205 0.09701 0.71283 0.0
H1222 H 0.46754 0.16977 0.76649 0.0
H1223 H 0.44518 0.18361 0.74525 0.0
H1224 H 0.91965 0.25905 0.75265 0.0
H1225 H 0.94065 0.29917 0.81198 0.0
H1226 H 0.93103 0.27573 0.99853 0.0
H1227 H 0.90943 0.23531 0.93949 0.0
H1228 H 0.93075 0.32563 0.91997 0.0
H1229 H 0.99377 0.31562 0.99843 0.0
H1230 H 0.9752 0.29697 0.92671 0.0
H1231 H 0.96967 0.2934 1.00837 0.0
C1232 C 0.92175 0.26224 0.80631 0.0
C1233 C 0.91278 0.24358 0.84091 0.0
C1234 C 0.93386 0.28535 0.84023 0.0
C1235 C 0.93762 0.29058 0.90983 0.0
C1236 C 0.9285 0.27217 0.94481 0.0
H1237 H 1.00189 0.43026 0.16567 0.0
H1238 H 0.9778 0.38917 0.11759 0.0
C1239 C 0.91613 0.24899 0.91082 0.0
C1240 C 0.95137 0.31526 0.9452 0.0
H1241 H 0.99828 0.35275 1.02901 0.0
C1242 C 0.94544 0.3315 0.94437 0.0
C1243 C 0.97065 0.32308 0.97647 0.0
C1244 C 0.9779 0.30651 0.97768 0.0
C1245 C 0.95823 0.35521 0.97391 0.0
C1246 C 0.97755 0.36306 1.00496 0.0
C1247 C 0.98347 0.3468 1.00568 0.0
C1248 C 0.99201 0.38822 1.03443 0.0
C1249 C 0.95121 0.37193 0.97028 0.0
C1250 C 0.00816 0.40151 1.0043 0.0
C1251 C 0.02165 0.42516 1.03083 0.0
C1252 C 0.01952 0.43617 0.08873 0.0
C1253 C 1.00362 0.42266 0.11982 0.0
C1254 C 0.98993 0.39905 0.09267 0.0
H1255 H 0.93688 0.36392 0.93666 0.0
H1256 H 0.94958 0.37761 1.0206 0.0
H1257 H 0.96212 0.38768 0.95278 0.0
H1258 H 0.0102 0.39363 0.95957 0.0
H1259 H 0.03373 0.43488 1.00551 0.0
H1260 H 0.82972 0.67893 0.79576 0.0
H1261 H 0.79865 0.66137 0.83782 0.0
H1262 H 0.81193 0.61401 0.91945 0.0
H1263 H 0.84297 0.63167 0.8782 0.0
H1264 H 0.77377 0.59208 0.84144 0.0
H1265 H 0.78926 0.66677 1.03185 0.0
H1266 H 0.79345 0.67285 0.95014 0.0
H1267 H 0.80839 0.66504 0.99766 0.0
C1268 C 0.82612 0.66503 0.8236 0.0
C1269 C 0.83865 0.65648 0.83308 0.0
C1270 C 0.80835 0.65498 0.84753 0.0
C1271 C 0.80293 0.63636 0.88196 0.0
C1272 C 0.81572 0.62827 0.89285 0.0
H1273 H 0.71466 0.57134 0.12347 0.0
H1274 H 0.74442 0.59325 0.07732 0.0
C1275 C 0.83342 0.63831 0.86904 0.0
C1276 C 0.78373 0.62474 0.90511 0.0
H1277 H 0.75759 0.63308 1.01475 0.0
C1278 C 0.77017 0.60108 0.87903 0.0
C1279 C 0.7791 0.63643 0.95456 0.0
C1280 C 0.79332 0.66163 0.98576 0.0
C1281 C 0.7522 0.58878 0.90124 0.0
C1282 C 0.74754 0.60046 0.95064 0.0
C1283 C 0.76107 0.62416 0.97654 0.0
C1284 C 0.72921 0.58801 0.97868 0.0
C1285 C 0.7386 0.56317 0.8731 0.0
C1286 C 0.71066 0.5781 0.93905 0.0
C1287 C 0.69354 0.56551 0.96539 0.0
C1288 C 0.69461 0.56247 1.03192 0.0
C1289 C 0.71325 0.57298 0.07181 0.0
C1290 C 0.73031 0.58565 1.04559 0.0
H1291 H 0.74598 0.55578 0.84546 0.0
H1292 H 0.73278 0.5532 0.91323 0.0
H1293 H 0.72601 0.5607 0.83836 0.0
H1294 H 0.70942 0.57994 0.88752 0.0
H1295 H 0.67948 0.55761 0.93314 0.0
H1296 H 0.91339 0.67653 0.96042 0.0
H1297 H 0.92987 0.66174 1.02906 0.0
H1298 H 0.9189 0.61054 0.86056 0.0
H1299 H 0.90255 0.62485 0.79226 0.0
H1300 H 0.91326 0.6114 1.04792 0.0
H1301 H 0.97979 0.64716 0.93212 0.0
H1302 H 0.96396 0.65878 0.92934 0.0
H1303 H 0.95691 0.63218 0.87501 0.0
C1304 C 0.91445 0.6621 0.93803 0.0
C1305 C 0.90661 0.65201 0.87052 0.0
C1306 C 0.92388 0.65367 0.97735 0.0
C1307 C 0.92582 0.63521 0.94963 0.0
C1308 C 0.9178 0.62497 0.88279 0.0
H1309 H 0.97404 0.55166 1.04674 0.0
H1310 H 0.96062 0.57274 0.99533 0.0
C1311 C 0.90833 0.6332 0.84383 0.0
C1312 C 0.93599 0.62616 0.98965 0.0
H1313 H 0.97494 0.6186 0.9981 0.0
C1314 C 0.9269 0.61324 1.03789 0.0
C1315 C 0.95367 0.62837 0.97591 0.0
C1316 C 0.96429 0.64252 0.92565 0.0
C1317 C 0.93459 0.60168 0.07089 0.0
C1318 C 0.95216 0.60358 1.05641 0.0
C1319 C 0.96148 0.61702 1.00922 0.0
C1320 C 0.96083 0.59126 0.08817 0.0
C1321 C 0.9233 0.58669 0.11865 0.0
C1322 C 0.96588 0.59495 0.15749 0.0
C1323 C 0.97346 0.58283 0.18696 0.0
C1324 C 0.97647 0.56693 0.14784 0.0
C1325 C 0.97201 0.56382 0.07836 0.0
C1326 C 0.96427 0.57583 1.04892 0.0
H1327 H 0.90777 0.58192 0.11029 0.0
H1328 H 0.92364 0.57043 0.11415 0.0
H1329 H 0.93002 0.5965 0.17015 0.0
H1330 H 0.96399 0.60727 0.18897 0.0
H1331 H 0.97711 0.58603 0.24055 0.0
H1332 H 0.51722 0.44647 0.88176 0.0
H1333 H 0.49558 0.40422 0.85146 0.0
H1334 H 0.521 0.39624 1.03315 0.0
H1335 H 0.543 0.43875 0.06331 0.0
H1336 H 0.51496 0.36312 0.93594 0.0
H1337 H 0.44662 0.36412 0.91862 0.0
H1338 H 0.46202 0.38144 0.86484 0.0
H1339 H 0.47023 0.3896 0.95349 0.0
C1340 C 0.5182 0.4358 0.91562 0.0
C1341 C 0.53182 0.44625 0.97549 0.0
C1342 C 0.50564 0.41147 0.89831 0.0
C1343 C 0.50605 0.39666 0.94056 0.0
C1344 C 0.52009 0.40703 0.99958 0.0
H1345 H 0.40798 0.25119 0.88894 0.0
H1346 H 0.43159 0.29289 0.92595 0.0
C1347 C 0.53275 0.43146 1.01686 0.0
C1348 C 0.49199 0.37054 0.92273 0.0
H1349 H 0.44342 0.32837 0.87175 0.0
C1350 C 0.4993 0.35557 0.92233 0.0
C1351 C 0.4714 0.36023 0.90616 0.0
C1352 C 0.46206 0.37465 0.91146 0.0
C1353 C 0.48685 0.33102 0.90468 0.0
C1354 C 0.46634 0.32081 0.8844 0.0
C1355 C 0.45904 0.33581 0.88611 0.0
C1356 C 0.45214 0.29479 0.86268 0.0
C1357 C 0.4959 0.31637 0.91004 0.0
C1358 C 0.45538 0.28137 0.81424 0.0
C1359 C 0.4419 0.25727 0.79359 0.0
C1360 C 0.42448 0.24579 0.81957 0.0
C1361 C 0.42114 0.25922 0.86756 0.0
C1362 C 0.43472 0.28327 0.88874 0.0
H1363 H 0.5098 0.32571 0.94653 0.0
H1364 H 0.48583 0.29964 0.9252 0.0
H1365 H 0.49937 0.31255 0.86116 0.0
H1366 H 0.46818 0.28956 0.79106 0.0
H1367 H 0.44505 0.24774 0.75629 0.0
H1368 H 0.83821 0.20042 0.76195 0.0
H1369 H 0.80609 0.19225 0.78449 0.0
H1370 H 0.78966 0.12199 0.80093 0.0
H1371 H 0.82138 0.1299 0.77779 0.0
H1372 H 0.76619 0.15696 0.72134 0.0
H1373 H 0.78263 0.14763 0.9797 0.0
H1374 H 0.80138 0.16087 0.92995 0.0
H1375 H 0.78622 0.12966 0.91917 0.0
C1376 C 0.82763 0.18314 0.7692 0.0
C1377 C 0.83246 0.16587 0.76799 0.0
C1378 C 0.80928 0.17851 0.78249 0.0
C1379 C 0.79549 0.15659 0.79555 0.0
C1380 C 0.80012 0.13918 0.79236 0.0
H1381 H 0.68308 0.08321 0.91299 0.0
H1382 H 0.71393 0.09643 0.87285 0.0
C1383 C 0.81834 0.14376 0.77905 0.0
C1384 C 0.7765 0.15182 0.81458 0.0
H1385 H 0.74936 0.13409 0.93755 0.0
C1386 C 0.76256 0.15221 0.76888 0.0
C1387 C 0.77173 0.14571 0.87675 0.0
C1388 C 0.78633 0.14614 0.92953 0.0
C1389 C 0.74375 0.14564 0.78256 0.0
C1390 C 0.7388 0.13879 0.84395 0.0
C1391 C 0.75299 0.13912 0.89025 0.0
C1392 C 0.71883 0.1302 0.8608 0.0
C1393 C 0.72907 0.14519 0.73021 0.0
C1394 C 0.71087 0.1445 0.8662 0.0
C1395 C 0.69304 0.13687 0.88919 0.0
C1396 C 0.68292 0.11489 0.90792 0.0
C1397 C 0.69056 0.10033 0.89973 0.0
C1398 C 0.70824 0.10788 0.87671 0.0
H1399 H 0.73358 0.14593 0.68081 0.0
H1400 H 0.71442 0.12924 0.72605 0.0
H1401 H 0.72771 0.16051 0.74439 0.0
H1402 H 0.71883 0.16193 0.85533 0.0
H1403 H 0.6877 0.14861 0.89554 0.0
H1404 H 0.57634 1.0058 0.92047 0.0
H1405 H 0.59147 0.98508 0.96283 0.0
H1406 H 0.61989 0.03752 0.14045 0.0
H1407 H 0.60441 0.05796 0.09949 0.0
H1408 H 0.64485 0.02362 0.0758 0.0
H1409 H 0.5758 0.94871 0.12196 0.0
H1410 H 0.57534 0.9575 1.0427 0.0
H1411 H 0.57861 0.97664 0.11655 0.0
C1412 C 0.58584 0.01298 0.96853 0.0
C1413 C 0.58921 0.03369 1.00629 0.0
C1414 C 0.59446 1.00106 0.99275 0.0
C1415 C 0.60677 1.00964 1.05508 0.0
C1416 C 0.61048 0.03054 0.09223 0.0
H1417 H 0.65064 0.95029 0.32335 0.0
H1418 H 0.63458 0.96754 0.26577 0.0
C1419 C 0.6017 0.04231 0.06843 0.0
C1420 C 0.61562 0.99679 0.08208 0.0
H1421 H 0.60452 0.94765 0.14539 0.0
C1422 C 0.63602 1.00692 0.09054 0.0
C1423 C 0.60414 0.9751 0.10192 0.0
C1424 C 0.58226 0.96377 0.09588 0.0
C1425 C 0.6452 0.99596 0.11818 0.0
C1426 C 0.63372 0.97425 0.13802 0.0
C1427 C 0.61332 0.96414 0.12962 0.0
C1428 C 0.64278 0.96255 0.17129 0.0
C1429 C 0.6672 1.00799 0.12777 0.0
C1430 C 0.65245 0.95346 0.13716 0.0
C1431 C 0.66159 0.94339 0.17001 0.0
C1432 C 0.66143 0.94239 0.23792 0.0
C1433 C 0.6513 0.95101 0.27133 0.0
C1434 C 0.64202 0.96081 0.23837 0.0
H1435 H 0.67418 0.0263 0.1199 0.0
H1436 H 0.67322 1.0079 0.1785 0.0
H1437 H 0.67125 0.99844 0.09184 0.0
H1438 H 0.65308 0.95435 0.08521 0.0
H1439 H 0.6693 0.93703 0.14279 0.0
H1440 H 0.18385 0.76486 0.4479 0.0
H1441 H 0.1661 0.72265 0.41004 0.0
H1442 H 0.13382 0.72894 0.2425 0.0
H1443 H 0.15187 0.77137 0.27947 0.0
H1444 H 0.12597 0.68926 0.38928 0.0
H1445 H 0.15451 0.69058 0.15426 0.0
H1446 H 0.16552 0.71583 0.2197 0.0
H1447 H 0.14345 0.70772 0.16475 0.0
C1448 C 0.17299 0.75734 0.40291 0.0
C1449 C 0.16935 0.77173 0.36695 0.0
C1450 C 0.16278 0.73308 0.38131 0.0
C1451 C 0.14869 0.72237 0.32279 0.0
C1452 C 0.14481 0.73663 0.28718 0.0
H1453 H 0.07438 0.57719 0.11161 0.0
H1454 H 0.09134 0.61952 0.14743 0.0
C1455 C 0.15501 0.76096 0.30888 0.0
C1456 C 0.13802 0.69635 0.2999 0.0
H1457 H 0.12978 0.65381 0.17204 0.0
C1458 C 0.12687 0.68155 0.34181 0.0
C1459 C 0.13905 0.68605 0.23791 0.0
C1460 C 0.1514 0.7008 0.19165 0.0
C1461 C 0.11656 0.65701 0.32324 0.0
C1462 C 0.1177 0.64666 0.26142 0.0
C1463 C 0.12881 0.66149 0.21939 0.0
C1464 C 0.10746 0.6206 0.23944 0.0
C1465 C 0.1041 0.64242 0.36957 0.0
C1466 C 0.11086 0.60671 0.27833 0.0
C1467 C 0.10103 0.58237 0.25802 0.0
C1468 C 0.0877 0.57114 0.19771 0.0
C1469 C 0.08449 0.58508 0.15841 0.0
C1470 C 0.09427 0.60942 0.17882 0.0
H1471 H 0.10012 0.65247 0.40407 0.0
H1472 H 0.09043 0.62668 0.3416 0.0
H1473 H 0.11246 0.6367 0.39991 0.0
H1474 H 0.1212 0.61469 0.3246 0.0
H1475 H 0.10371 0.57235 0.29018 0.0
H1476 H 0.44465 0.45137 0.13405 0.0
H1477 H 0.41982 0.43416 0.2037 0.0
H1478 H 0.40367 0.36539 0.10988 0.0
H1479 H 0.42898 0.38239 1.04134 0.0
H1480 H 0.37117 0.37521 0.12238 0.0
H1481 H 0.42247 0.398 0.35755 0.0
H1482 H 0.42822 0.42083 0.31027 0.0
H1483 H 0.42914 0.3959 0.27694 0.0
C1484 C 0.43609 0.43258 0.12875 0.0
C1485 C 0.43901 0.41832 0.08214 0.0
C1486 C 0.42179 0.42279 0.16841 0.0
C1487 C 0.41 0.39853 0.1622 0.0
C1488 C 0.41263 0.38417 0.11537 0.0
H1489 H 0.33377 0.321 0.43008 0.0
H1490 H 0.35743 0.33522 0.35499 0.0
C1491 C 0.42705 0.39395 0.07598 0.0
C1492 C 0.39488 0.38821 0.2045 0.0
H1493 H 0.38906 0.38211 0.36467 0.0
C1494 C 0.37504 0.37663 0.17531 0.0
C1495 C 0.4 0.38997 0.2734 0.0
C1496 C 0.42109 0.40169 0.3067 0.0
C1497 C 0.36016 0.36712 0.21357 0.0
C1498 C 0.3653 0.36934 0.28279 0.0
C1499 C 0.38515 0.38054 0.31167 0.0
C1500 C 0.35033 0.36018 0.32627 0.0
C1501 C 0.33906 0.35458 0.17961 0.0
C1502 C 0.33848 0.36952 0.33524 0.0
C1503 C 0.32504 0.36159 0.37868 0.0
C1504 C 0.32318 0.34416 0.41424 0.0
C1505 C 0.33495 0.33466 0.40436 0.0
C1506 C 0.34844 0.34268 0.36116 0.0
H1507 H 0.33746 0.34973 0.1251 0.0
H1508 H 0.33001 0.33856 0.19973 0.0
H1509 H 0.33324 0.36616 0.18878 0.0
H1510 H 0.33994 0.38335 0.30976 0.0
H1511 H 0.31651 0.36962 0.3858 0.0
H1512 H 0.84153 0.702 0.70588 0.0
H1513 H 0.82418 0.71652 0.64237 0.0
H1514 H 0.84896 0.70906 0.47187 0.0
H1515 H 0.8667 0.69467 0.53601 0.0
H1516 H 0.84184 0.75693 0.57934 0.0
H1517 H 0.78842 0.67494 0.4023 0.0
H1518 H 0.80124 0.67507 0.47945 0.0
H1519 H 0.81385 0.68388 0.41108 0.0
C1520 C 0.84319 0.70323 0.65468 0.0
C1521 C 0.85527 0.69683 0.62571 0.0
C1522 C 0.83329 0.71161 0.61848 0.0
C1523 C 0.83514 0.71377 0.55224 0.0
C1524 C 0.8471 0.70726 0.52269 0.0
H1525 H 0.79298 0.7905 0.33677 0.0
H1526 H 0.81417 0.77817 0.3883 0.0
C1527 C 0.85714 0.69893 0.55921 0.0
C1528 C 0.8248 0.72333 0.51546 0.0
H1529 H 0.78652 0.70808 0.39239 0.0
C1530 C 0.82987 0.74635 0.53799 0.0
C1531 C 0.80905 0.70942 0.46204 0.0
C1532 C 0.80263 0.68439 0.43722 0.0
C1533 C 0.81947 0.75572 0.50918 0.0
C1534 C 0.80363 0.74177 0.45597 0.0
C1535 C 0.79872 0.71883 0.4329 0.0
C1536 C 0.79117 0.7501 0.42631 0.0
C1537 C 0.82506 0.78019 0.53757 0.0
C1538 C 0.77121 0.73853 0.4305 0.0
C1539 C 0.75913 0.7456 0.40146 0.0
C1540 C 0.76663 0.76432 0.36678 0.0
C1541 C 0.78674 0.77622 0.3637 0.0
C1542 C 0.79887 0.76912 0.39298 0.0
H1543 H 0.83487 0.78685 0.58663 0.0
H1544 H 0.83286 0.79196 0.50319 0.0
H1545 H 0.81182 0.78096 0.54313 0.0
H1546 H 0.76493 0.72393 0.45628 0.0
H1547 H 0.74381 0.73623 0.40585 0.0
H1548 H 0.332 0.11439 0.57959 0.0
H1549 H 0.30873 0.07265 0.53657 0.0
H1550 H 0.33103 0.05582 0.70684 0.0
H1551 H 0.3545 0.09729 0.7488 0.0
H1552 H 0.32633 0.02793 0.58598 0.0
H1553 H 0.25837 0.02868 0.60487 0.0
H1554 H 0.2749 0.04932 0.55956 0.0
H1555 H 0.28221 0.05235 0.64699 0.0
C1556 C 0.332 0.10181 0.60778 0.0
C1557 C 0.345 0.10942 0.66853 0.0
C1558 C 0.3185 0.07785 0.58342 0.0
C1559 C 0.31771 0.0608 0.61885 0.0
C1560 C 0.33103 0.06841 0.67864 0.0
H1561 H 0.25381 0.90874 0.57851 0.0
H1562 H 0.2761 0.95087 0.61104 0.0
C1563 C 0.34437 0.09229 0.70315 0.0
C1564 C 0.3034 0.03509 0.59356 0.0
H1565 H 0.25445 0.99293 0.55742 0.0
C1566 C 0.31062 0.02034 0.57981 0.0
C1567 C 0.2828 0.02491 0.58475 0.0
C1568 C 0.274 0.03952 0.60022 0.0
C1569 C 0.298 0.99604 0.55739 0.0
C1570 C 0.27738 0.98572 0.55018 0.0
C1571 C 0.27015 1.00054 0.56299 0.0
C1572 C 0.26323 0.95968 0.53067 0.0
C1573 C 0.30697 0.98175 0.54009 0.0
C1574 C 0.24781 0.95009 0.4759 0.0
C1575 C 0.23494 0.92574 0.45696 0.0
C1576 C 0.23703 0.91024 0.49243 0.0
C1577 C 0.25202 0.91993 0.54858 0.0
C1578 C 0.26488 0.94419 0.56734 0.0
H1579 H 0.32176 0.99262 0.52773 0.0
H1580 H 0.30858 0.97409 0.58345 0.0
H1581 H 0.29763 0.96738 0.49733 0.0
H1582 H 0.2459 0.96143 0.44691 0.0
H1583 H 0.22351 0.91907 0.41386 0.0
H1584 H 0.92342 0.16038 0.61906 0.0
H1585 H 0.9556 0.17068 0.59403 0.0
H1586 H 0.98285 0.22514 0.7678 0.0
H1587 H 0.95054 0.2164 0.78721 0.0
H1588 H 1.00226 0.24195 0.68345 0.0
H1589 H 0.99335 0.15537 0.65929 0.0
H1590 H 0.97494 0.15391 0.59949 0.0
H1591 H 0.97514 0.16052 0.68709 0.0
C1592 C 0.93631 0.17488 0.65052 0.0
C1593 C 0.93438 0.18789 0.70356 0.0
C1594 C 0.95483 0.18039 0.63766 0.0
C1595 C 0.97203 0.19852 0.67954 0.0
C1596 C 0.97003 0.21113 0.7341 0.0
H1597 H 0.08402 0.21429 0.60074 0.0
H1598 H 0.05518 0.205 0.65114 0.0
C1599 C 0.95148 0.20601 0.7456 0.0
C1600 C 0.99198 0.20529 0.66445 0.0
H1601 H 0.0192 0.18343 0.60895 0.0
C1602 C 1.00596 0.22905 0.66827 0.0
C1603 C 0.99741 0.18881 0.64612 0.0
C1604 C 0.98447 0.16329 0.6486 0.0
C1605 C 0.02468 0.23666 0.65264 0.0
C1606 C 0.02937 0.22005 0.62786 0.0
C1607 C 0.01569 0.19633 0.62633 0.0
C1608 C 0.04791 0.22682 0.6009 0.0
C1609 C 0.03928 0.26257 0.66478 0.0
C1610 C 0.05382 0.24232 0.55599 0.0
C1611 C 0.07077 0.24845 0.5294 0.0
C1612 C 0.082 0.23836 0.54371 0.0
C1613 C 0.07606 0.22272 0.58862 0.0
C1614 C 0.05931 0.21712 0.61699 0.0
H1615 H 0.03679 0.27166 0.70744 0.0
H1616 H 0.0546 0.26669 0.67519 0.0
H1617 H 0.03736 0.2697 0.62055 0.0
H1618 H 0.04516 0.24956 0.54035 0.0
H1619 H 0.07487 0.26106 0.49683 0.0
H1620 H 0.35128 0.20159 0.61486 0.0
H1621 H 0.32901 0.21521 0.58885 0.0
H1622 H 0.30329 0.19201 0.76087 0.0
H1623 H 0.32696 0.18056 0.79018 0.0
H1624 H 0.29446 0.19942 0.55261 0.0
H1625 H 0.30836 0.25185 0.79788 0.0
H1626 H 0.32255 0.239 0.77956 0.0
H1627 H 0.29915 0.22213 0.80505 0.0
C1628 C 0.34102 0.19965 0.64764 0.0
C1629 C 0.34121 0.19034 0.70538 0.0
C1630 C 0.32811 0.20739 0.63253 0.0
C1631 C 0.3145 0.20546 0.67357 0.0
C1632 C 0.31407 0.19499 0.72962 0.0
H1633 H 0.21819 0.22401 0.50473 0.0
H1634 H 0.23808 0.20765 0.5359 0.0
C1635 C 0.32752 0.18809 0.74611 0.0
C1636 C 0.30071 0.21397 0.65659 0.0
H1637 H 0.28045 0.24374 0.72261 0.0
C1638 C 0.29166 0.20935 0.59005 0.0
C1639 C 0.29693 0.22735 0.70427 0.0
C1640 C 0.30744 0.23559 0.77542 0.0
C1641 C 0.27937 0.21765 0.57005 0.0
C1642 C 0.27468 0.22982 0.61832 0.0
C1643 C 0.28361 0.23428 0.68493 0.0
C1644 C 0.26147 0.2391 0.60115 0.0
C1645 C 0.2724 0.21409 0.49666 0.0
C1646 C 0.2668 0.26176 0.63043 0.0
C1647 C 0.25477 0.27066 0.6155 0.0
C1648 C 0.23725 0.25766 0.56875 0.0
C1649 C 0.23166 0.23483 0.54019 0.0
C1650 C 0.24334 0.22554 0.55722 0.0
H1651 H 0.28246 0.21218 0.46696 0.0
H1652 H 0.25782 0.19781 0.4818 0.0
H1653 H 0.27125 0.22888 0.48373 0.0
H1654 H 0.28044 0.27282 0.66502 0.0
H1655 H 0.25929 0.28787 0.641 0.0
H1656 H 0.73618 0.91622 0.46957 0.0
H1657 H 0.7587 0.95735 0.51933 0.0
H1658 H 0.78691 0.96811 0.34805 0.0
H1659 H 0.76392 0.92694 0.29706 0.0
H1660 H 0.81353 0.98852 0.47754 0.0
H1661 H 0.75753 0.01321 0.45799 0.0
H1662 H 0.75122 0.98817 0.49581 0.0
H1663 H 0.75374 0.98687 0.41003 0.0
C1664 C 0.74712 0.92734 0.44225 0.0
C1665 C 0.7484 0.91814 0.37958 0.0
C1666 C 0.76002 0.95091 0.47084 0.0
C1667 C 0.77451 0.96603 0.4375 0.0
C1668 C 0.77591 0.95689 0.375 0.0
H1669 H 0.86963 0.11419 0.56301 0.0
H1670 H 0.84846 0.07409 0.50234 0.0
C1671 C 0.76285 0.93328 0.34604 0.0
C1672 C 0.78802 0.9913 0.46801 0.0
H1673 H 0.78863 0.04128 0.52216 0.0
C1674 C 0.80813 1.00013 0.48685 0.0
C1675 C 0.78104 1.00651 0.48055 0.0
C1676 C 0.75974 0.99836 0.45963 0.0
C1677 C 0.82126 0.02341 0.51967 0.0
C1678 C 0.81426 0.03866 0.53261 0.0
C1679 C 0.79415 0.02981 0.5127 0.0
C1680 C 0.82727 0.06355 0.56841 0.0
C1681 C 0.84236 0.03109 0.54246 0.0
C1682 C 0.82232 0.07164 0.62473 0.0
C1683 C 0.83419 0.09481 0.65851 0.0
C1684 C 0.8514 0.11068 0.63697 0.0
C1685 C 0.85637 0.10264 0.58055 0.0
C1686 C 0.84438 0.07948 0.54634 0.0
H1687 H 0.84409 0.016 0.54652 0.0
H1688 H 0.85119 0.04047 0.50571 0.0
H1689 H 0.84839 0.04301 0.59134 0.0
H1690 H 0.80925 0.05993 0.64307 0.0
H1691 H 0.82985 0.10031 0.70168 0.0
H1692 H 0.94469 0.69161 0.74485 0.0
H1693 H 0.97558 0.7062 0.70451 0.0
H1694 H 0.94792 0.706 0.51505 0.0
H1695 H 0.917 0.69264 0.55634 0.0
H1696 H 0.98856 0.69158 0.61851 0.0
H1697 H 0.99282 0.76911 0.54146 0.0
H1698 H 0.97281 0.74957 0.57874 0.0
H1699 H 0.97233 0.74343 0.4909 0.0
C1700 C 0.94515 0.69477 0.69444 0.0
C1701 C 0.92843 0.69132 0.65412 0.0
C1702 C 0.96288 0.70301 0.67121 0.0
C1703 C 0.96433 0.70774 0.60656 0.0
C1704 C 0.94732 0.70307 0.56524 0.0
H1705 H 0.0611 0.72249 0.41437 0.0
H1706 H 0.03099 0.70838 0.45886 0.0
C1707 C 0.92958 0.69511 0.58868 0.0
C1708 C 0.98353 0.71713 0.58253 0.0
H1709 H 0.01502 0.75877 0.50176 0.0
C1710 C 0.99437 0.70644 0.59358 0.0
C1711 C 0.99152 0.73675 0.55055 0.0
C1712 C 0.98181 0.75048 0.54049 0.0
C1713 C 0.01264 0.71456 0.57343 0.0
C1714 C 0.0201 0.73341 0.53853 0.0
C1715 C 0.00938 0.74424 0.528 0.0
C1716 C 0.03883 0.74212 0.51203 0.0
C1717 C 0.02392 0.70313 0.59157 0.0
C1718 C 0.05326 0.76603 0.5247 0.0
C1719 C 0.07037 0.77439 0.49707 0.0
C1720 C 0.07358 0.75904 0.45611 0.0
C1721 C 0.0592 0.73505 0.44454 0.0
C1722 C 0.04199 0.72679 0.47121 0.0
H1723 H 0.01989 0.6953 0.63656 0.0
H1724 H 0.02029 0.68886 0.55029 0.0
H1725 H 0.03996 0.71575 0.60086 0.0
H1726 H 0.05123 0.77834 0.55561 0.0
H1727 H 0.08081 0.79298 0.50654 0.0
loop_
_geom_bond_atom_site_label_1
_geom_bond_atom_site_label_2
_geom_bond_distance
_geom_bond_site_symmetry_2
_ccdc_geom_bond_type
Tb0 N29 2.617 . S
Tb0 N35 2.572 . S
Tb0 O44 2.465 . S
Tb0 O45 2.387 . S
Tb0 O47 2.428 . S
Tb0 O48 2.308 1_655 S
Tb0 O52 2.349 1_655 S
Tb0 O55 2.393 1_655 S
Tb0 C64 2.802 . S
C1 N2 1.379 . S
C1 C4 1.416 . S
C1 C8 1.424 . S
N2 C1 1.379 . S
N2 C5 1.334 . S
N2 Tb11 2.617 . S
C3 C5 1.390 . S
C3 C6 1.339 . S
C3 H23 0.930 1_554 S
C4 C1 1.416 . S
C4 C6 1.416 . S
C4 C10 1.448 . S
C5 N2 1.334 . S
C5 C3 1.390 . S
C5 H16 0.930 . S
C6 C3 1.339 . S
C6 C4 1.416 . S
C6 H27 0.930 . S
C7 C8 1.413 . S
C7 C9 1.427 . S
C7 C13 1.416 . S
C8 C1 1.424 . S
C8 C7 1.413 . S
C8 N12 1.361 . S
C9 C7 1.427 . S
C9 C10 1.328 . S
C9 H24 0.929 . S
C10 C4 1.448 . S
C10 C9 1.328 . S
C10 H25 0.930 . S
Tb11 N2 2.617 . S
Tb11 N12 2.572 . S
Tb11 O46 2.349 . S
Tb11 O49 2.393 . S
Tb11 O50 2.465 . S
Tb11 O51 2.387 . S
Tb11 O53 2.428 . S
Tb11 O54 2.308 . S
Tb11 C75 2.802 . S
N12 C8 1.361 . S
N12 Tb11 2.572 . S
N12 C14 1.340 . S
C13 C7 1.416 . S
C13 C15 1.332 . S
C13 H21 0.931 . S
C14 N12 1.340 . S
C14 C15 1.407 . S
C14 H20 0.930 . S
C15 C13 1.332 . S
C15 C14 1.407 . S
C15 H17 0.929 . S
H16 C5 0.930 . S
H17 C15 0.929 . S
H18 C33 0.930 . S
H19 C40 0.929 . S
H20 C14 0.930 . S
H21 C13 0.931 . S
H22 C36 0.930 . S
H23 C3 0.930 1_556 S
H24 C9 0.929 . S
H25 C10 0.930 . S
H26 C31 0.930 . S
H27 C6 0.930 . S
H28 C39 0.931 . S
N29 Tb0 2.617 . S
N29 C30 1.379 . S
N29 C33 1.334 . S
C30 N29 1.379 . S
C30 C32 1.416 . S
C30 C38 1.424 . S
C31 H26 0.930 . S
C31 C33 1.390 . S
C31 C34 1.339 . S
C32 C30 1.416 . S
C32 C34 1.416 . S
C32 C65 1.448 . S
C33 H18 0.930 . S
C33 N29 1.334 . S
C33 C31 1.390 . S
C34 C31 1.339 . S
C34 C32 1.416 . S
C34 H41 0.930 . S
N35 Tb0 2.572 . S
N35 C36 1.340 1_554 S
N35 C38 1.361 . S
C36 H22 0.930 . S
C36 N35 1.340 1_556 S
C36 C40 1.407 . S
C37 C38 1.413 . S
C37 C39 1.416 1_554 S
C37 C66 1.427 . S
C38 C30 1.424 . S
C38 N35 1.361 . S
C38 C37 1.413 . S
C39 H28 0.931 . S
C39 C37 1.416 1_556 S
C39 C40 1.332 . S
C40 H19 0.929 . S
C40 C36 1.407 . S
C40 C39 1.332 . S
H41 C34 0.930 . S
H42 C65 0.930 . S
H43 C66 0.929 . S
O44 Tb0 2.465 . S
O44 C64 1.264 . S
O45 Tb0 2.387 . S
O45 C56 1.264 . S
O46 Tb11 2.349 . S
O46 C56 1.243 1_455 S
O47 Tb0 2.428 . S
O47 C64 1.256 . S
O48 Tb0 2.308 1_455 S
O48 C63 1.266 . S
O49 Tb11 2.393 . S
O49 C63 1.248 . S
O50 Tb11 2.465 . S
O50 C75 1.264 . S
O51 Tb11 2.387 . S
O51 C67 1.264 . S
O52 Tb0 2.349 1_455 S
O52 C67 1.243 . S
O53 Tb11 2.428 . S
O53 C75 1.256 . S
O54 Tb11 2.308 . S
O54 C74 1.266 . S
O55 Tb0 2.393 1_455 S
O55 C74 1.248 . S
C56 O45 1.264 . S
C56 O46 1.243 1_655 S
C57 C60 1.399 . S
C57 C62 1.383 . S
C57 C64 1.496 . S
C58 C59 1.399 . S
C58 C62 1.389 . S
C59 C58 1.399 . S
C59 C61 1.380 . S
C59 H76 0.929 . S
C60 C57 1.399 . S
C60 C61 1.392 . S
C60 H77 0.929 . S
C61 C59 1.380 . S
C61 C60 1.392 . S
C61 H78 0.929 . S
C62 C57 1.383 . S
C62 C58 1.389 . S
C62 H79 0.931 . S
C63 O48 1.266 . S
C63 O49 1.248 . S
C64 Tb0 2.802 . S
C64 O44 1.264 . S
C64 O47 1.256 . S
C64 C57 1.496 . S
C65 C32 1.448 . S
C65 H42 0.930 . S
C65 C66 1.328 . S
C66 C37 1.427 . S
C66 H43 0.929 . S
C66 C65 1.328 . S
C67 O51 1.264 . S
C67 O52 1.243 . S
C68 C71 1.399 . S
C68 C72 1.383 . S
C68 C75 1.496 . S
C69 C70 1.399 . S
C69 C72 1.389 . S
C70 C69 1.399 . S
C70 C73 1.380 . S
C70 H80 0.929 . S
C71 C68 1.399 . S
C71 C73 1.392 . S
C71 H81 0.929 . S
C72 C68 1.383 . S
C72 C69 1.389 . S
C72 H82 0.931 . S
C73 C70 1.380 . S
C73 C71 1.392 . S
C73 H83 0.929 . S
C74 O54 1.266 . S
C74 O55 1.248 . S
C75 Tb11 2.802 . S
C75 O50 1.264 . S
C75 O53 1.256 . S
C75 C68 1.496 . S
H76 C59 0.929 . S
H77 C60 0.929 . S
H78 C61 0.929 . S
H79 C62 0.931 . S
H80 C70 0.929 . S
H81 C71 0.929 . S
H82 C72 0.931 . S
H83 C73 0.929 . S
Tb84 N113 2.617 . S
Tb84 N119 2.572 . S
Tb84 O128 2.465 . S
Tb84 O129 2.387 . S
Tb84 O131 2.428 . S
Tb84 O132 2.308 . S
Tb84 O136 2.349 . S
Tb84 O139 2.393 1_554 S
Tb84 C148 2.802 . S
C85 N86 1.379 . S
C85 C88 1.416 . S
C85 C92 1.424 . S
N86 C85 1.379 . S
N86 C89 1.334 . S
N86 Tb95 2.617 . S
C87 C89 1.390 . S
C87 C90 1.339 . S
C87 H107 0.930 . S
C88 C85 1.416 . S
C88 C90 1.416 . S
C88 C94 1.448 . S
C89 N86 1.334 . S
C89 C87 1.390 . S
C89 H100 0.930 . S
C90 C87 1.339 . S
C90 C88 1.416 . S
C90 H111 0.930 . S
C91 C92 1.414 . S
C91 C93 1.428 . S
C91 C97 1.414 1_554 S
C92 C85 1.424 . S
C92 C91 1.414 . S
C92 N96 1.361 . S
C93 C91 1.428 . S
C93 C94 1.328 . S
C93 H108 0.929 . S
C94 C88 1.448 . S
C94 C93 1.328 . S
C94 H109 0.930 . S
Tb95 N86 2.617 . S
Tb95 N96 2.572 . S
Tb95 O130 2.349 . S
Tb95 O133 2.393 . S
Tb95 O134 2.465 . S
Tb95 O135 2.387 . S
Tb95 O137 2.428 . S
Tb95 O138 2.308 1_554 S
Tb95 C159 2.802 . S
N96 C92 1.361 . S
N96 Tb95 2.572 . S
N96 C98 1.340 1_554 S
C97 C91 1.414 1_556 S
C97 C99 1.332 . S
C97 H105 0.931 . S
C98 N96 1.340 1_556 S
C98 C99 1.407 . S
C98 H104 0.930 . S
C99 C97 1.332 . S
C99 C98 1.407 . S
C99 H101 0.929 . S
H100 C89 0.930 . S
H101 C99 0.929 . S
H102 C117 0.930 . S
H103 C124 0.929 . S
H104 C98 0.930 . S
H105 C97 0.931 . S
H106 C120 0.930 . S
H107 C87 0.930 . S
H108 C93 0.929 . S
H109 C94 0.930 . S
H110 C115 0.930 . S
H111 C90 0.930 . S
H112 C123 0.931 . S
N113 Tb84 2.617 . S
N113 C114 1.379 . S
N113 C117 1.334 1_554 S
C114 N113 1.379 . S
C114 C116 1.416 . S
C114 C122 1.424 . S
C115 H110 0.930 . S
C115 C117 1.390 . S
C115 C118 1.339 . S
C116 C114 1.416 . S
C116 C118 1.416 1_554 S
C116 C149 1.448 . S
C117 H102 0.930 . S
C117 N113 1.334 1_556 S
C117 C115 1.390 . S
C118 C115 1.339 . S
C118 C116 1.416 1_556 S
C118 H125 0.930 . S
N119 Tb84 2.572 . S
N119 C120 1.340 . S
N119 C122 1.361 . S
C120 H106 0.930 . S
C120 N119 1.340 . S
C120 C124 1.407 . S
C121 C122 1.413 . S
C121 C123 1.416 . S
C121 C150 1.427 . S
C122 C114 1.424 . S
C122 N119 1.361 . S
C122 C121 1.413 . S
C123 H112 0.931 . S
C123 C121 1.416 . S
C123 C124 1.332 . S
C124 H103 0.929 . S
C124 C120 1.407 . S
C124 C123 1.332 . S
H125 C118 0.930 . S
H126 C149 0.930 . S
H127 C150 0.929 . S
O128 Tb84 2.465 . S
O128 C148 1.264 . S
O129 Tb84 2.387 . S
O129 C140 1.264 . S
O130 Tb95 2.349 . S
O130 C140 1.243 . S
O131 Tb84 2.428 . S
O131 C148 1.256 . S
O132 Tb84 2.308 . S
O132 C147 1.266 . S
O133 Tb95 2.393 . S
O133 C147 1.248 . S
O134 Tb95 2.465 . S
O134 C159 1.264 . S
O135 Tb95 2.387 . S
O135 C151 1.264 . S
O136 Tb84 2.349 . S
O136 C151 1.243 . S
O137 Tb95 2.428 . S
O137 C159 1.256 . S
O138 Tb95 2.308 1_556 S
O138 C158 1.266 . S
O139 Tb84 2.393 1_556 S
O139 C158 1.248 . S
C140 O129 1.264 . S
C140 O130 1.243 . S
C141 C144 1.399 . S
C141 C146 1.383 . S
C141 C148 1.496 . S
C142 C143 1.399 . S
C142 C146 1.389 . S
C143 C142 1.399 . S
C143 C145 1.380 . S
C143 H160 0.929 . S
C144 C141 1.399 . S
C144 C145 1.392 . S
C144 H161 0.929 1_554 S
C145 C143 1.380 . S
C145 C144 1.392 . S
C145 H162 0.925 1_554 S
C146 C141 1.383 . S
C146 C142 1.389 . S
C146 H163 0.931 . S
C147 O132 1.266 . S
C147 O133 1.248 . S
C148 Tb84 2.802 . S
C148 O128 1.264 . S
C148 O131 1.256 . S
C148 C141 1.496 . S
C149 C116 1.448 . S
C149 H126 0.930 . S
C149 C150 1.328 . S
C150 C121 1.427 . S
C150 H127 0.929 . S
C150 C149 1.328 . S
C151 O135 1.264 . S
C151 O136 1.243 . S
C152 C155 1.399 . S
C152 C156 1.383 . S
C152 C159 1.496 . S
C153 C154 1.399 . S
C153 C156 1.389 . S
C154 C153 1.399 . S
C154 C157 1.380 . S
C154 H164 0.929 . S
C155 C152 1.399 . S
C155 C157 1.392 . S
C155 H165 0.929 . S
C156 C152 1.383 . S
C156 C153 1.389 . S
C156 H166 0.931 1_554 S
C157 C154 1.380 . S
C157 C155 1.392 . S
C157 H167 0.929 . S
C158 O138 1.266 . S
C158 O139 1.248 . S
C159 Tb95 2.802 . S
C159 O134 1.264 . S
C159 O137 1.256 . S
C159 C152 1.496 . S
H160 C143 0.929 . S
H161 C144 0.929 1_556 S
H162 C145 0.925 1_556 S
H163 C146 0.931 . S
H164 C154 0.929 . S
H165 C155 0.929 . S
H166 C156 0.931 1_556 S
H167 C157 0.929 . S
Tb168 N197 2.617 . S
Tb168 N203 2.572 1_554 S
Tb168 O212 2.465 1_554 S
Tb168 O213 2.387 . S
Tb168 O215 2.428 . S
Tb168 O216 2.308 1_554 S
Tb168 O220 2.349 . S
Tb168 O223 2.393 . S
Tb168 C232 2.802 . S
C169 N170 1.379 . S
C169 C172 1.416 . S
C169 C176 1.424 1_556 S
N170 C169 1.379 . S
N170 C173 1.334 . S
N170 Tb179 2.617 1_565 S
C171 C173 1.390 . S
C171 C174 1.339 . S
C171 H191 0.930 . S
C172 C169 1.416 . S
C172 C174 1.416 . S
C172 C178 1.448 . S
C173 N170 1.334 . S
C173 C171 1.390 . S
C173 H184 0.930 1_565 S
C174 C171 1.339 . S
C174 C172 1.416 . S
C174 H195 0.930 . S
C175 C176 1.413 . S
C175 C177 1.427 1_554 S
C175 C181 1.416 . S
C176 C169 1.424 1_554 S
C176 C175 1.413 . S
C176 N180 1.356 1_565 S
C177 C175 1.427 1_556 S
C177 C178 1.328 . S
C177 H192 0.929 1_556 S
C178 C172 1.448 . S
C178 C177 1.328 . S
C178 H193 0.930 . S
Tb179 N170 2.617 1_545 S
Tb179 N180 2.577 1_556 S
Tb179 O214 2.349 . S
Tb179 O217 2.393 . S
Tb179 O218 2.465 1_556 S
Tb179 O219 2.387 . S
Tb179 O221 2.428 . S
Tb179 O222 2.308 1_556 S
Tb179 C243 2.802 1_556 S
N180 C176 1.356 1_545 S
N180 Tb179 2.577 1_554 S
N180 C182 1.339 . S
C181 C175 1.416 . S
C181 C183 1.332 . S
C181 H189 0.931 . S
C182 N180 1.339 . S
C182 C183 1.407 1_545 S
C182 H188 0.930 . S
C183 C181 1.332 . S
C183 C182 1.407 1_565 S
C183 H185 0.929 . S
H184 C173 0.930 1_545 S
H185 C183 0.929 . S
H186 C201 0.930 . S
H187 C208 0.929 . S
H188 C182 0.930 . S
H189 C181 0.931 . S
H190 C204 0.930 . S
H191 C171 0.930 . S
H192 C177 0.929 1_554 S
H193 C178 0.930 . S
H194 C199 0.930 . S
H195 C174 0.930 . S
H196 C207 0.931 . S
N197 Tb168 2.617 . S
N197 C198 1.379 . S
N197 C201 1.334 . S
C198 N197 1.379 . S
C198 C200 1.416 . S
C198 C206 1.424 . S
C199 H194 0.930 . S
C199 C201 1.390 . S
C199 C202 1.339 . S
C200 C198 1.416 . S
C200 C202 1.416 . S
C200 C233 1.448 . S
C201 H186 0.930 . S
C201 N197 1.334 . S
C201 C199 1.390 . S
C202 C199 1.339 . S
C202 C200 1.416 . S
C202 H209 0.930 . S
N203 Tb168 2.572 1_556 S
N203 C204 1.340 . S
N203 C206 1.361 1_556 S
C204 H190 0.930 . S
C204 N203 1.340 . S
C204 C208 1.407 . S
C205 C206 1.413 1_556 S
C205 C207 1.416 . S
C205 C234 1.427 1_556 S
C206 C198 1.424 . S
C206 N203 1.361 1_554 S
C206 C205 1.413 1_554 S
C207 H196 0.931 . S
C207 C205 1.416 . S
C207 C208 1.332 . S
C208 H187 0.929 . S
C208 C204 1.407 . S
C208 C207 1.332 . S
H209 C202 0.930 . S
H210 C233 0.930 . S
H211 C234 0.929 . S
O212 Tb168 2.465 1_556 S
O212 C232 1.264 1_556 S
O213 Tb168 2.387 . S
O213 C224 1.264 . S
O214 Tb179 2.349 . S
O214 C224 1.243 1_556 S
O215 Tb168 2.428 . S
O215 C232 1.256 . S
O216 Tb168 2.308 1_556 S
O216 C231 1.266 . S
O217 Tb179 2.393 . S
O217 C231 1.248 . S
O218 Tb179 2.465 1_554 S
O218 C243 1.264 . S
O219 Tb179 2.387 . S
O219 C235 1.264 1_556 S
O220 Tb168 2.349 . S
O220 C235 1.243 . S
O221 Tb179 2.428 . S
O221 C243 1.256 1_556 S
O222 Tb179 2.308 1_554 S
O222 C242 1.266 . S
O223 Tb168 2.393 . S
O223 C242 1.248 . S
C224 O213 1.264 . S
C224 O214 1.243 1_554 S
C225 C228 1.399 . S
C225 C230 1.383 1_554 S
C225 C232 1.496 . S
C226 C227 1.399 1_556 S
C226 C230 1.389 . S
C227 C226 1.399 1_554 S
C227 C229 1.380 . S
C227 H244 0.929 . S
C228 C225 1.399 . S
C228 C229 1.392 . S
C228 H245 0.929 . S
C229 C227 1.380 . S
C229 C228 1.392 . S
C229 H246 0.929 . S
C230 C225 1.383 1_556 S
C230 C226 1.389 . S
C230 H247 0.931 . S
C231 O216 1.266 . S
C231 O217 1.248 . S
C232 Tb168 2.802 . S
C232 O212 1.264 1_554 S
C232 O215 1.256 . S
C232 C225 1.496 . S
C233 C200 1.448 . S
C233 H210 0.930 . S
C233 C234 1.328 . S
C234 C205 1.427 1_554 S
C234 H211 0.929 . S
C234 C233 1.328 . S
C235 O219 1.264 1_554 S
C235 O220 1.243 . S
C236 C239 1.399 1_544 S
C236 C240 1.383 . S
C236 C243 1.496 . S
C237 C238 1.399 1_545 S
C237 C240 1.389 . S
C238 C237 1.399 1_565 S
C238 C241 1.380 1_554 S
C238 H248 0.929 . S
C239 C236 1.399 1_566 S
C239 C241 1.392 . S
C239 H249 0.929 . S
C240 C236 1.383 . S
C240 C237 1.389 . S
C240 H250 0.931 . S
C241 C238 1.380 1_556 S
C241 C239 1.392 . S
C241 H251 0.929 . S
C242 O222 1.266 . S
C242 O223 1.248 . S
C243 Tb179 2.802 1_554 S
C243 O218 1.264 . S
C243 O221 1.256 1_554 S
C243 C236 1.496 . S
H244 C227 0.929 . S
H245 C228 0.929 . S
H246 C229 0.929 . S
H247 C230 0.931 . S
H248 C238 0.929 . S
H249 C239 0.929 . S
H250 C240 0.931 . S
H251 C241 0.929 . S
Tb252 N281 2.617 . S
Tb252 N287 2.572 . S
Tb252 O296 2.465 . S
Tb252 O297 2.387 . S
Tb252 O299 2.428 . S
Tb252 O300 2.308 . S
Tb252 O304 2.349 . S
Tb252 O307 2.393 . S
Tb252 C316 2.802 . S
C253 N254 1.379 . S
C253 C256 1.416 . S
C253 C260 1.424 . S
N254 C253 1.379 . S
N254 C257 1.334 . S
N254 Tb263 2.617 . S
C255 C257 1.390 . S
C255 C258 1.339 . S
C255 H275 0.930 . S
C256 C253 1.416 . S
C256 C258 1.416 . S
C256 C262 1.448 . S
C257 N254 1.334 . S
C257 C255 1.390 . S
C257 H268 0.930 . S
C258 C255 1.339 . S
C258 C256 1.416 . S
C258 H279 0.930 . S
C259 C260 1.413 . S
C259 C261 1.427 . S
C259 C265 1.416 . S
C260 C253 1.424 . S
C260 C259 1.413 . S
C260 N264 1.361 . S
C261 C259 1.427 . S
C261 C262 1.328 . S
C261 H276 0.929 . S
C262 C256 1.448 . S
C262 C261 1.328 . S
C262 H277 0.930 . S
Tb263 N254 2.617 . S
Tb263 N264 2.572 . S
Tb263 O298 2.349 . S
Tb263 O301 2.393 . S
Tb263 O302 2.465 . S
Tb263 O303 2.387 . S
Tb263 O305 2.428 . S
Tb263 O306 2.308 . S
Tb263 C327 2.802 . S
N264 C260 1.361 . S
N264 Tb263 2.572 . S
N264 C266 1.340 . S
C265 C259 1.416 . S
C265 C267 1.332 . S
C265 H273 0.931 . S
C266 N264 1.340 . S
C266 C267 1.407 . S
C266 H272 0.930 . S
C267 C265 1.332 . S
C267 C266 1.407 . S
C267 H269 0.929 . S
H268 C257 0.930 . S
H269 C267 0.929 . S
H270 C285 0.930 . S
H271 C292 0.929 1_556 S
H272 C266 0.930 . S
H273 C265 0.931 . S
H274 C288 0.930 . S
H275 C255 0.930 . S
H276 C261 0.929 . S
H277 C262 0.930 . S
H278 C283 0.930 . S
H279 C258 0.930 . S
H280 C291 0.931 . S
N281 Tb252 2.617 . S
N281 C282 1.379 . S
N281 C285 1.334 . S
C282 N281 1.379 . S
C282 C284 1.416 . S
C282 C290 1.424 . S
C283 H278 0.930 . S
C283 C285 1.390 . S
C283 C286 1.339 . S
C284 C282 1.416 . S
C284 C286 1.416 . S
C284 C317 1.448 . S
C285 H270 0.930 . S
C285 N281 1.334 . S
C285 C283 1.390 . S
C286 C283 1.339 . S
C286 C284 1.416 . S
C286 H293 0.930 . S
N287 Tb252 2.572 . S
N287 C288 1.340 . S
N287 C290 1.361 . S
C288 H274 0.930 . S
C288 N287 1.340 . S
C288 C292 1.407 . S
C289 C290 1.413 . S
C289 C291 1.416 . S
C289 C318 1.427 . S
C290 C282 1.424 . S
C290 N287 1.361 . S
C290 C289 1.413 . S
C291 H280 0.931 . S
C291 C289 1.416 . S
C291 C292 1.332 . S
C292 H271 0.929 1_554 S
C292 C288 1.407 . S
C292 C291 1.332 . S
H293 C286 0.930 . S
H294 C317 0.930 . S
H295 C318 0.929 . S
O296 Tb252 2.465 . S
O296 C316 1.264 . S
O297 Tb252 2.387 . S
O297 C308 1.264 . S
O298 Tb263 2.349 . S
O298 C308 1.243 . S
O299 Tb252 2.428 . S
O299 C316 1.256 . S
O300 Tb252 2.308 . S
O300 C315 1.266 . S
O301 Tb263 2.393 . S
O301 C315 1.248 . S
O302 Tb263 2.465 . S
O302 C327 1.264 . S
O303 Tb263 2.387 . S
O303 C319 1.264 . S
O304 Tb252 2.349 . S
O304 C319 1.243 . S
O305 Tb263 2.428 . S
O305 C327 1.256 . S
O306 Tb263 2.308 . S
O306 C326 1.266 . S
O307 Tb252 2.393 . S
O307 C326 1.248 . S
C308 O297 1.264 . S
C308 O298 1.243 . S
C309 C312 1.399 . S
C309 C314 1.383 . S
C309 C316 1.496 . S
C310 C311 1.399 . S
C310 C314 1.389 . S
C311 C310 1.399 . S
C311 C313 1.380 . S
C311 H328 0.929 . S
C312 C309 1.399 . S
C312 C313 1.392 . S
C312 H329 0.929 . S
C313 C311 1.380 . S
C313 C312 1.392 . S
C313 H330 0.929 . S
C314 C309 1.383 . S
C314 C310 1.389 . S
C314 H331 0.931 . S
C315 O300 1.266 . S
C315 O301 1.248 . S
C316 Tb252 2.802 . S
C316 O296 1.264 . S
C316 O299 1.256 . S
C316 C309 1.496 . S
C317 C284 1.448 . S
C317 H294 0.930 . S
C317 C318 1.328 . S
C318 C289 1.427 . S
C318 H295 0.929 . S
C318 C317 1.328 . S
C319 O303 1.264 . S
C319 O304 1.243 . S
C320 C323 1.399 . S
C320 C324 1.383 . S
C320 C327 1.496 . S
C321 C322 1.399 . S
C321 C324 1.389 . S
C322 C321 1.399 . S
C322 C325 1.380 . S
C322 H332 0.929 . S
C323 C320 1.399 . S
C323 C325 1.392 . S
C323 H333 0.929 . S
C324 C320 1.383 . S
C324 C321 1.389 . S
C324 H334 0.931 . S
C325 C322 1.380 . S
C325 C323 1.392 . S
C325 H335 0.929 . S
C326 O306 1.266 . S
C326 O307 1.248 . S
C327 Tb263 2.802 . S
C327 O302 1.264 . S
C327 O305 1.256 . S
C327 C320 1.496 . S
H328 C311 0.929 . S
H329 C312 0.929 . S
H330 C313 0.929 . S
H331 C314 0.931 . S
H332 C322 0.929 . S
H333 C323 0.929 . S
H334 C324 0.931 . S
H335 C325 0.929 . S
Tb336 N365 2.617 . S
Tb336 N371 2.572 . S
Tb336 O380 2.465 . S
Tb336 O381 2.387 . S
Tb336 O383 2.428 . S
Tb336 O384 2.308 . S
Tb336 O388 2.349 . S
Tb336 O391 2.393 . S
Tb336 C400 2.802 . S
C337 N338 1.379 . S
C337 C340 1.416 . S
C337 C344 1.424 . S
N338 C337 1.379 . S
N338 C341 1.334 . S
N338 Tb347 2.617 . S
C339 C341 1.390 . S
C339 C342 1.339 . S
C339 H359 0.930 . S
C340 C337 1.416 . S
C340 C342 1.416 . S
C340 C346 1.448 . S
C341 N338 1.334 . S
C341 C339 1.390 . S
C341 H352 0.930 . S
C342 C339 1.339 . S
C342 C340 1.416 . S
C342 H363 0.930 . S
C343 C344 1.413 . S
C343 C345 1.427 . S
C343 C349 1.416 . S
C344 C337 1.424 . S
C344 C343 1.413 . S
C344 N348 1.361 . S
C345 C343 1.427 . S
C345 C346 1.328 . S
C345 H360 0.929 . S
C346 C340 1.448 . S
C346 C345 1.328 . S
C346 H361 0.930 . S
Tb347 N338 2.617 . S
Tb347 N348 2.572 . S
Tb347 O382 2.349 . S
Tb347 O385 2.393 . S
Tb347 O386 2.465 . S
Tb347 O387 2.387 . S
Tb347 O389 2.428 . S
Tb347 O390 2.308 . S
Tb347 C411 2.802 . S
N348 C344 1.361 . S
N348 Tb347 2.572 . S
N348 C350 1.340 . S
C349 C343 1.416 . S
C349 C351 1.332 . S
C349 H357 0.931 . S
C350 N348 1.340 . S
C350 C351 1.407 . S
C350 H356 0.930 . S
C351 C349 1.332 . S
C351 C350 1.407 . S
C351 H353 0.929 . S
H352 C341 0.930 . S
H353 C351 0.929 . S
H354 C369 0.930 . S
H355 C376 0.929 . S
H356 C350 0.930 . S
H357 C349 0.931 . S
H358 C372 0.930 . S
H359 C339 0.930 . S
H360 C345 0.929 . S
H361 C346 0.930 . S
H362 C367 0.930 . S
H363 C342 0.930 . S
H364 C375 0.931 . S
N365 Tb336 2.617 . S
N365 C366 1.379 . S
N365 C369 1.334 . S
C366 N365 1.379 . S
C366 C368 1.416 . S
C366 C374 1.424 . S
C367 H362 0.930 . S
C367 C369 1.390 . S
C367 C370 1.339 . S
C368 C366 1.416 . S
C368 C370 1.416 . S
C368 C401 1.448 . S
C369 H354 0.930 . S
C369 N365 1.334 . S
C369 C367 1.390 . S
C370 C367 1.339 . S
C370 C368 1.416 . S
C370 H377 0.930 . S
N371 Tb336 2.572 . S
N371 C372 1.340 . S
N371 C374 1.361 . S
C372 H358 0.930 . S
C372 N371 1.340 . S
C372 C376 1.407 . S
C373 C374 1.413 . S
C373 C375 1.416 . S
C373 C402 1.427 . S
C374 C366 1.424 . S
C374 N371 1.361 . S
C374 C373 1.413 . S
C375 H364 0.931 . S
C375 C373 1.416 . S
C375 C376 1.332 . S
C376 H355 0.929 . S
C376 C372 1.407 . S
C376 C375 1.332 . S
H377 C370 0.930 . S
H378 C401 0.930 . S
H379 C402 0.929 . S
O380 Tb336 2.465 . S
O380 C400 1.264 . S
O381 Tb336 2.387 . S
O381 C392 1.264 . S
O382 Tb347 2.349 . S
O382 C392 1.243 . S
O383 Tb336 2.428 . S
O383 C400 1.256 . S
O384 Tb336 2.308 . S
O384 C399 1.266 . S
O385 Tb347 2.393 . S
O385 C399 1.248 . S
O386 Tb347 2.465 . S
O386 C411 1.264 . S
O387 Tb347 2.387 . S
O387 C403 1.264 . S
O388 Tb336 2.349 . S
O388 C403 1.243 . S
O389 Tb347 2.428 . S
O389 C411 1.256 . S
O390 Tb347 2.308 . S
O390 C410 1.266 . S
O391 Tb336 2.393 . S
O391 C410 1.248 . S
C392 O381 1.264 . S
C392 O382 1.243 . S
C393 C396 1.399 . S
C393 C398 1.383 . S
C393 C400 1.496 . S
C394 C395 1.399 . S
C394 C398 1.389 . S
C395 C394 1.399 . S
C395 C397 1.380 . S
C395 H412 0.929 . S
C396 C393 1.399 . S
C396 C397 1.392 . S
C396 H413 0.929 . S
C397 C395 1.380 . S
C397 C396 1.392 . S
C397 H414 0.929 . S
C398 C393 1.383 . S
C398 C394 1.389 . S
C398 H415 0.931 . S
C399 O384 1.266 . S
C399 O385 1.248 . S
C400 Tb336 2.802 . S
C400 O380 1.264 . S
C400 O383 1.256 . S
C400 C393 1.496 . S
C401 C368 1.448 . S
C401 H378 0.930 . S
C401 C402 1.328 . S
C402 C373 1.427 . S
C402 H379 0.929 . S
C402 C401 1.328 . S
C403 O387 1.264 . S
C403 O388 1.243 . S
C404 C407 1.399 . S
C404 C408 1.383 . S
C404 C411 1.496 . S
C405 C406 1.399 . S
C405 C408 1.389 . S
C406 C405 1.399 . S
C406 C409 1.380 . S
C406 H416 0.929 . S
C407 C404 1.399 . S
C407 C409 1.392 . S
C407 H417 0.929 . S
C408 C404 1.383 . S
C408 C405 1.389 . S
C408 H418 0.931 . S
C409 C406 1.380 . S
C409 C407 1.392 . S
C409 H419 0.929 . S
C410 O390 1.266 . S
C410 O391 1.248 . S
C411 Tb347 2.802 . S
C411 O386 1.264 . S
C411 O389 1.256 . S
C411 C404 1.496 . S
H412 C395 0.929 . S
H413 C396 0.929 . S
H414 C397 0.929 . S
H415 C398 0.931 . S
H416 C406 0.929 . S
H417 C407 0.929 . S
H418 C408 0.931 . S
H419 C409 0.929 . S
Tb420 N449 2.617 . S
Tb420 N455 2.572 . S
Tb420 O464 2.465 . S
Tb420 O465 2.387 . S
Tb420 O467 2.428 . S
Tb420 O468 2.308 . S
Tb420 O472 2.349 . S
Tb420 O475 2.393 . S
Tb420 C484 2.802 . S
C421 N422 1.379 . S
C421 C424 1.416 . S
C421 C428 1.424 . S
N422 C421 1.379 . S
N422 C425 1.334 . S
N422 Tb431 2.617 . S
C423 C425 1.390 . S
C423 C426 1.339 . S
C423 H443 0.930 . S
C424 C421 1.416 . S
C424 C426 1.416 . S
C424 C430 1.448 . S
C425 N422 1.334 . S
C425 C423 1.390 . S
C425 H436 0.930 . S
C426 C423 1.339 . S
C426 C424 1.416 . S
C426 H447 0.930 . S
C427 C428 1.413 . S
C427 C429 1.427 . S
C427 C433 1.416 . S
C428 C421 1.424 . S
C428 C427 1.413 . S
C428 N432 1.361 . S
C429 C427 1.427 . S
C429 C430 1.328 . S
C429 H444 0.929 . S
C430 C424 1.448 . S
C430 C429 1.328 . S
C430 H445 0.930 . S
Tb431 N422 2.617 . S
Tb431 N432 2.572 . S
Tb431 O466 2.349 . S
Tb431 O469 2.393 . S
Tb431 O470 2.465 . S
Tb431 O471 2.387 . S
Tb431 O473 2.428 . S
Tb431 O474 2.308 . S
Tb431 C495 2.802 . S
N432 C428 1.361 . S
N432 Tb431 2.572 . S
N432 C434 1.340 . S
C433 C427 1.416 . S
C433 C435 1.332 . S
C433 H441 0.931 . S
C434 N432 1.340 . S
C434 C435 1.407 . S
C434 H440 0.930 . S
C435 C433 1.332 . S
C435 C434 1.407 . S
C435 H437 0.929 . S
H436 C425 0.930 . S
H437 C435 0.929 . S
H438 C453 0.930 . S
H439 C460 0.929 . S
H440 C434 0.930 . S
H441 C433 0.931 . S
H442 C456 0.930 . S
H443 C423 0.930 . S
H444 C429 0.929 . S
H445 C430 0.930 . S
H446 C451 0.930 . S
H447 C426 0.930 . S
H448 C459 0.931 . S
N449 Tb420 2.617 . S
N449 C450 1.379 . S
N449 C453 1.334 . S
C450 N449 1.379 . S
C450 C452 1.416 . S
C450 C458 1.424 . S
C451 H446 0.930 . S
C451 C453 1.390 . S
C451 C454 1.339 . S
C452 C450 1.416 . S
C452 C454 1.416 . S
C452 C485 1.448 . S
C453 H438 0.930 . S
C453 N449 1.334 . S
C453 C451 1.390 . S
C454 C451 1.339 . S
C454 C452 1.416 . S
C454 H461 0.930 . S
N455 Tb420 2.572 . S
N455 C456 1.340 . S
N455 C458 1.361 . S
C456 H442 0.930 . S
C456 N455 1.340 . S
C456 C460 1.407 . S
C457 C458 1.413 . S
C457 C459 1.416 . S
C457 C486 1.427 . S
C458 C450 1.424 . S
C458 N455 1.361 . S
C458 C457 1.413 . S
C459 H448 0.931 . S
C459 C457 1.416 . S
C459 C460 1.332 . S
C460 H439 0.929 . S
C460 C456 1.407 . S
C460 C459 1.332 . S
H461 C454 0.930 . S
H462 C485 0.930 . S
H463 C486 0.929 . S
O464 Tb420 2.465 . S
O464 C484 1.264 . S
O465 Tb420 2.387 . S
O465 C476 1.264 . S
O466 Tb431 2.349 . S
O466 C476 1.243 . S
O467 Tb420 2.428 . S
O467 C484 1.256 . S
O468 Tb420 2.308 . S
O468 C483 1.266 . S
O469 Tb431 2.393 . S
O469 C483 1.248 . S
O470 Tb431 2.465 . S
O470 C495 1.264 . S
O471 Tb431 2.387 . S
O471 C487 1.264 . S
O472 Tb420 2.349 . S
O472 C487 1.243 . S
O473 Tb431 2.428 . S
O473 C495 1.256 . S
O474 Tb431 2.308 . S
O474 C494 1.266 . S
O475 Tb420 2.393 . S
O475 C494 1.248 . S
C476 O465 1.264 . S
C476 O466 1.243 . S
C477 C480 1.399 . S
C477 C482 1.383 . S
C477 C484 1.496 . S
C478 C479 1.399 . S
C478 C482 1.389 . S
C479 C478 1.399 . S
C479 C481 1.380 . S
C479 H496 0.929 . S
C480 C477 1.399 . S
C480 C481 1.392 . S
C480 H497 0.929 . S
C481 C479 1.380 . S
C481 C480 1.392 . S
C481 H498 0.929 . S
C482 C477 1.383 . S
C482 C478 1.389 . S
C482 H499 0.931 . S
C483 O468 1.266 . S
C483 O469 1.248 . S
C484 Tb420 2.802 . S
C484 O464 1.264 . S
C484 O467 1.256 . S
C484 C477 1.496 . S
C485 C452 1.448 . S
C485 H462 0.930 . S
C485 C486 1.328 . S
C486 C457 1.427 . S
C486 H463 0.929 . S
C486 C485 1.328 . S
C487 O471 1.264 . S
C487 O472 1.243 . S
C488 C491 1.399 . S
C488 C492 1.383 . S
C488 C495 1.496 . S
C489 C490 1.399 . S
C489 C492 1.389 . S
C490 C489 1.399 . S
C490 C493 1.380 . S
C490 H500 0.929 . S
C491 C488 1.399 . S
C491 C493 1.392 . S
C491 H501 0.929 . S
C492 C488 1.383 . S
C492 C489 1.389 . S
C492 H502 0.931 . S
C493 C490 1.380 . S
C493 C491 1.392 . S
C493 H503 0.929 . S
C494 O474 1.266 . S
C494 O475 1.248 . S
C495 Tb431 2.802 . S
C495 O470 1.264 . S
C495 O473 1.256 . S
C495 C488 1.496 . S
H496 C479 0.929 . S
H497 C480 0.929 . S
H498 C481 0.929 . S
H499 C482 0.931 . S
H500 C490 0.929 . S
H501 C491 0.929 . S
H502 C492 0.931 . S
H503 C493 0.929 . S
Tb504 N533 2.617 . S
Tb504 N539 2.572 . S
Tb504 O548 2.465 . S
Tb504 O549 2.387 . S
Tb504 O551 2.428 . S
Tb504 O552 2.308 . S
Tb504 O556 2.349 . S
Tb504 O559 2.393 . S
Tb504 C568 2.802 . S
C505 N506 1.379 . S
C505 C508 1.416 . S
C505 C512 1.424 . S
N506 C505 1.379 . S
N506 C509 1.334 . S
N506 Tb515 2.617 . S
C507 C509 1.390 . S
C507 C510 1.339 . S
C507 H527 0.930 . S
C508 C505 1.416 . S
C508 C510 1.416 . S
C508 C514 1.448 . S
C509 N506 1.334 . S
C509 C507 1.390 . S
C509 H520 0.930 . S
C510 C507 1.339 . S
C510 C508 1.416 . S
C510 H531 0.930 . S
C511 C512 1.413 . S
C511 C513 1.427 . S
C511 C517 1.416 . S
C512 C505 1.424 . S
C512 C511 1.413 . S
C512 N516 1.361 . S
C513 C511 1.427 . S
C513 C514 1.328 . S
C513 H528 0.929 . S
C514 C508 1.448 . S
C514 C513 1.328 . S
C514 H529 0.930 . S
Tb515 N506 2.617 . S
Tb515 N516 2.572 . S
Tb515 O550 2.349 . S
Tb515 O553 2.393 . S
Tb515 O554 2.465 . S
Tb515 O555 2.387 . S
Tb515 O557 2.428 . S
Tb515 O558 2.308 . S
Tb515 C579 2.802 . S
N516 C512 1.361 . S
N516 Tb515 2.572 . S
N516 C518 1.340 . S
C517 C511 1.416 . S
C517 C519 1.332 . S
C517 H525 0.931 . S
C518 N516 1.340 . S
C518 C519 1.407 . S
C518 H524 0.930 . S
C519 C517 1.332 . S
C519 C518 1.407 . S
C519 H521 0.929 . S
H520 C509 0.930 . S
H521 C519 0.929 . S
H522 C537 0.930 . S
H523 C544 0.929 . S
H524 C518 0.930 . S
H525 C517 0.931 . S
H526 C540 0.930 . S
H527 C507 0.930 . S
H528 C513 0.929 . S
H529 C514 0.930 . S
H530 C535 0.930 . S
H531 C510 0.930 . S
H532 C543 0.931 . S
N533 Tb504 2.617 . S
N533 C534 1.379 . S
N533 C537 1.334 . S
C534 N533 1.379 . S
C534 C536 1.416 . S
C534 C542 1.424 . S
C535 H530 0.930 . S
C535 C537 1.390 . S
C535 C538 1.339 . S
C536 C534 1.416 . S
C536 C538 1.416 . S
C536 C569 1.448 . S
C537 H522 0.930 . S
C537 N533 1.334 . S
C537 C535 1.390 . S
C538 C535 1.339 . S
C538 C536 1.416 . S
C538 H545 0.930 . S
N539 Tb504 2.572 . S
N539 C540 1.340 . S
N539 C542 1.361 . S
C540 H526 0.930 . S
C540 N539 1.340 . S
C540 C544 1.407 . S
C541 C542 1.413 . S
C541 C543 1.416 . S
C541 C570 1.427 . S
C542 C534 1.424 . S
C542 N539 1.361 . S
C542 C541 1.413 . S
C543 H532 0.931 . S
C543 C541 1.416 . S
C543 C544 1.332 . S
C544 H523 0.929 . S
C544 C540 1.407 . S
C544 C543 1.332 . S
H545 C538 0.930 . S
H546 C569 0.930 . S
H547 C570 0.929 . S
O548 Tb504 2.465 . S
O548 C568 1.264 . S
O549 Tb504 2.387 . S
O549 C560 1.264 . S
O550 Tb515 2.349 . S
O550 C560 1.243 . S
O551 Tb504 2.428 . S
O551 C568 1.256 . S
O552 Tb504 2.308 . S
O552 C567 1.266 . S
O553 Tb515 2.393 . S
O553 C567 1.248 . S
O554 Tb515 2.465 . S
O554 C579 1.264 . S
O555 Tb515 2.387 . S
O555 C571 1.264 . S
O556 Tb504 2.349 . S
O556 C571 1.243 . S
O557 Tb515 2.428 . S
O557 C579 1.256 . S
O558 Tb515 2.308 . S
O558 C578 1.266 . S
O559 Tb504 2.393 . S
O559 C578 1.248 . S
C560 O549 1.264 . S
C560 O550 1.243 . S
C561 C564 1.399 . S
C561 C566 1.383 . S
C561 C568 1.496 . S
C562 C563 1.399 . S
C562 C566 1.389 1_554 S
C563 C562 1.399 . S
C563 C565 1.380 . S
C563 H580 0.929 . S
C564 C561 1.399 . S
C564 C565 1.392 1_556 S
C564 H581 0.929 . S
C565 C563 1.380 . S
C565 C564 1.392 1_554 S
C565 H582 0.929 . S
C566 C561 1.383 . S
C566 C562 1.389 1_556 S
C566 H583 0.931 . S
C567 O552 1.266 . S
C567 O553 1.248 . S
C568 Tb504 2.802 . S
C568 O548 1.264 . S
C568 O551 1.256 . S
C568 C561 1.496 . S
C569 C536 1.448 . S
C569 H546 0.930 . S
C569 C570 1.328 . S
C570 C541 1.427 . S
C570 H547 0.929 . S
C570 C569 1.328 . S
C571 O555 1.264 . S
C571 O556 1.243 . S
C572 C575 1.399 . S
C572 C576 1.383 . S
C572 C579 1.496 . S
C573 C574 1.399 . S
C573 C576 1.389 . S
C574 C573 1.399 . S
C574 C577 1.380 . S
C574 H584 0.929 . S
C575 C572 1.399 . S
C575 C577 1.392 . S
C575 H585 0.929 . S
C576 C572 1.383 . S
C576 C573 1.389 . S
C576 H586 0.931 . S
C577 C574 1.380 . S
C577 C575 1.392 . S
C577 H587 0.929 . S
C578 O558 1.266 . S
C578 O559 1.248 . S
C579 Tb515 2.802 . S
C579 O554 1.264 . S
C579 O557 1.256 . S
C579 C572 1.496 . S
H580 C563 0.929 . S
H581 C564 0.929 . S
H582 C565 0.929 . S
H583 C566 0.931 . S
H584 C574 0.929 . S
H585 C575 0.929 . S
H586 C576 0.931 . S
H587 C577 0.929 . S
Tb588 N617 2.617 . S
Tb588 N623 2.572 . S
Tb588 O632 2.465 . S
Tb588 O633 2.387 . S
Tb588 O635 2.428 . S
Tb588 O636 2.308 . S
Tb588 O640 2.349 . S
Tb588 O643 2.393 . S
Tb588 C652 2.802 . S
C589 N590 1.379 . S
C589 C592 1.416 . S
C589 C596 1.424 . S
N590 C589 1.379 . S
N590 C593 1.334 . S
N590 Tb599 2.617 . S
C591 C593 1.390 . S
C591 C594 1.339 . S
C591 H611 0.930 . S
C592 C589 1.416 . S
C592 C594 1.416 . S
C592 C598 1.448 . S
C593 N590 1.334 . S
C593 C591 1.390 . S
C593 H604 0.930 . S
C594 C591 1.339 . S
C594 C592 1.416 . S
C594 H615 0.930 . S
C595 C596 1.413 . S
C595 C597 1.427 . S
C595 C601 1.416 . S
C596 C589 1.424 . S
C596 C595 1.413 . S
C596 N600 1.361 . S
C597 C595 1.427 . S
C597 C598 1.328 . S
C597 H612 0.929 . S
C598 C592 1.448 . S
C598 C597 1.328 . S
C598 H613 0.930 . S
Tb599 N590 2.617 . S
Tb599 N600 2.572 . S
Tb599 O634 2.349 . S
Tb599 O637 2.393 . S
Tb599 O638 2.465 . S
Tb599 O639 2.387 . S
Tb599 O641 2.428 . S
Tb599 O642 2.308 . S
Tb599 C663 2.802 . S
N600 C596 1.361 . S
N600 Tb599 2.572 . S
N600 C602 1.340 . S
C601 C595 1.416 . S
C601 C603 1.332 . S
C601 H609 0.931 . S
C602 N600 1.340 . S
C602 C603 1.407 . S
C602 H608 0.930 . S
C603 C601 1.332 . S
C603 C602 1.407 . S
C603 H605 0.929 . S
H604 C593 0.930 . S
H605 C603 0.929 . S
H606 C621 0.930 . S
H607 C628 0.929 . S
H608 C602 0.930 . S
H609 C601 0.931 . S
H610 C624 0.930 . S
H611 C591 0.930 . S
H612 C597 0.929 . S
H613 C598 0.930 . S
H614 C619 0.930 . S
H615 C594 0.930 . S
H616 C627 0.931 . S
N617 Tb588 2.617 . S
N617 C618 1.379 . S
N617 C621 1.334 . S
C618 N617 1.379 . S
C618 C620 1.416 . S
C618 C626 1.424 . S
C619 H614 0.930 . S
C619 C621 1.390 . S
C619 C622 1.339 . S
C620 C618 1.416 . S
C620 C622 1.416 . S
C620 C653 1.448 . S
C621 H606 0.930 . S
C621 N617 1.334 . S
C621 C619 1.390 . S
C622 C619 1.339 . S
C622 C620 1.416 . S
C622 H629 0.930 . S
N623 Tb588 2.572 . S
N623 C624 1.340 . S
N623 C626 1.361 . S
C624 H610 0.930 . S
C624 N623 1.340 . S
C624 C628 1.407 . S
C625 C626 1.413 . S
C625 C627 1.416 . S
C625 C654 1.427 . S
C626 C618 1.424 . S
C626 N623 1.361 . S
C626 C625 1.413 . S
C627 H616 0.931 . S
C627 C625 1.416 . S
C627 C628 1.332 . S
C628 H607 0.929 . S
C628 C624 1.407 . S
C628 C627 1.332 . S
H629 C622 0.930 . S
H630 C653 0.930 . S
H631 C654 0.929 . S
O632 Tb588 2.465 . S
O632 C652 1.264 . S
O633 Tb588 2.387 . S
O633 C644 1.264 . S
O634 Tb599 2.349 . S
O634 C644 1.243 . S
O635 Tb588 2.428 . S
O635 C652 1.256 . S
O636 Tb588 2.308 . S
O636 C651 1.266 . S
O637 Tb599 2.393 . S
O637 C651 1.248 . S
O638 Tb599 2.465 . S
O638 C663 1.264 . S
O639 Tb599 2.387 . S
O639 C655 1.264 . S
O640 Tb588 2.349 . S
O640 C655 1.243 . S
O641 Tb599 2.428 . S
O641 C663 1.256 . S
O642 Tb599 2.308 . S
O642 C662 1.266 . S
O643 Tb588 2.393 . S
O643 C662 1.248 . S
C644 O633 1.264 . S
C644 O634 1.243 . S
C645 C648 1.399 . S
C645 C650 1.383 . S
C645 C652 1.496 . S
C646 C647 1.399 . S
C646 C650 1.389 . S
C647 C646 1.399 . S
C647 C649 1.380 . S
C647 H664 0.929 . S
C648 C645 1.399 . S
C648 C649 1.392 . S
C648 H665 0.929 . S
C649 C647 1.380 . S
C649 C648 1.392 . S
C649 H666 0.929 . S
C650 C645 1.383 . S
C650 C646 1.389 . S
C650 H667 0.931 . S
C651 O636 1.266 . S
C651 O637 1.248 . S
C652 Tb588 2.802 . S
C652 O632 1.264 . S
C652 O635 1.256 . S
C652 C645 1.496 . S
C653 C620 1.448 . S
C653 H630 0.930 . S
C653 C654 1.328 . S
C654 C625 1.427 . S
C654 H631 0.929 . S
C654 C653 1.328 . S
C655 O639 1.264 . S
C655 O640 1.243 . S
C656 C659 1.399 . S
C656 C660 1.383 . S
C656 C663 1.496 . S
C657 C658 1.399 . S
C657 C660 1.389 1_554 S
C658 C657 1.399 . S
C658 C661 1.380 1_554 S
C658 H668 0.929 . S
C659 C656 1.399 . S
C659 C661 1.392 . S
C659 H669 0.929 . S
C660 C656 1.383 . S
C660 C657 1.389 1_556 S
C660 H670 0.931 . S
C661 C658 1.380 1_556 S
C661 C659 1.392 . S
C661 H671 0.930 1_556 S
C662 O642 1.266 . S
C662 O643 1.248 . S
C663 Tb599 2.802 . S
C663 O638 1.264 . S
C663 O641 1.256 . S
C663 C656 1.496 . S
H664 C647 0.929 . S
H665 C648 0.929 . S
H666 C649 0.929 . S
H667 C650 0.931 . S
H668 C658 0.929 . S
H669 C659 0.929 . S
H670 C660 0.931 . S
H671 C661 0.930 1_554 S
Tb672 N701 2.617 . S
Tb672 N707 2.572 . S
Tb672 O716 2.465 . S
Tb672 O717 2.387 . S
Tb672 O719 2.428 . S
Tb672 O720 2.308 . S
Tb672 O724 2.349 . S
Tb672 O727 2.393 . S
Tb672 C736 2.802 . S
C673 N674 1.379 . S
C673 C676 1.416 . S
C673 C680 1.424 . S
N674 C673 1.379 . S
N674 C677 1.334 . S
N674 Tb683 2.617 . S
C675 C677 1.390 . S
C675 C678 1.339 . S
C675 H695 0.930 . S
C676 C673 1.416 . S
C676 C678 1.416 . S
C676 C682 1.448 . S
C677 N674 1.334 . S
C677 C675 1.390 . S
C677 H688 0.930 . S
C678 C675 1.339 . S
C678 C676 1.416 . S
C678 H699 0.930 . S
C679 C680 1.413 . S
C679 C681 1.427 . S
C679 C685 1.416 . S
C680 C673 1.424 . S
C680 C679 1.413 . S
C680 N684 1.361 . S
C681 C679 1.427 . S
C681 C682 1.328 . S
C681 H696 0.929 . S
C682 C676 1.448 . S
C682 C681 1.328 . S
C682 H697 0.930 . S
Tb683 N674 2.617 . S
Tb683 N684 2.572 . S
Tb683 O718 2.349 . S
Tb683 O721 2.393 . S
Tb683 O722 2.465 . S
Tb683 O723 2.387 . S
Tb683 O725 2.428 . S
Tb683 O726 2.308 . S
Tb683 C747 2.802 . S
N684 C680 1.361 . S
N684 Tb683 2.572 . S
N684 C686 1.340 . S
C685 C679 1.416 . S
C685 C687 1.332 . S
C685 H693 0.931 . S
C686 N684 1.340 . S
C686 C687 1.407 . S
C686 H692 0.930 . S
C687 C685 1.332 . S
C687 C686 1.407 . S
C687 H689 0.929 . S
H688 C677 0.930 . S
H689 C687 0.929 . S
H690 C705 0.930 . S
H691 C712 0.929 . S
H692 C686 0.930 . S
H693 C685 0.931 . S
H694 C708 0.930 . S
H695 C675 0.930 . S
H696 C681 0.929 . S
H697 C682 0.930 . S
H698 C703 0.930 . S
H699 C678 0.930 . S
H700 C711 0.931 . S
N701 Tb672 2.617 . S
N701 C702 1.379 . S
N701 C705 1.334 . S
C702 N701 1.379 . S
C702 C704 1.416 . S
C702 C710 1.424 . S
C703 H698 0.930 . S
C703 C705 1.390 . S
C703 C706 1.339 . S
C704 C702 1.416 . S
C704 C706 1.416 . S
C704 C737 1.448 . S
C705 H690 0.930 . S
C705 N701 1.334 . S
C705 C703 1.390 . S
C706 C703 1.339 . S
C706 C704 1.416 . S
C706 H713 0.930 . S
N707 Tb672 2.572 . S
N707 C708 1.340 . S
N707 C710 1.361 . S
C708 H694 0.930 . S
C708 N707 1.340 . S
C708 C712 1.407 . S
C709 C710 1.413 . S
C709 C711 1.416 . S
C709 C738 1.427 . S
C710 C702 1.424 . S
C710 N707 1.361 . S
C710 C709 1.413 . S
C711 H700 0.931 . S
C711 C709 1.416 . S
C711 C712 1.332 . S
C712 H691 0.929 . S
C712 C708 1.407 . S
C712 C711 1.332 . S
H713 C706 0.930 . S
H714 C737 0.930 . S
H715 C738 0.929 . S
O716 Tb672 2.465 . S
O716 C736 1.264 . S
O717 Tb672 2.387 . S
O717 C728 1.264 . S
O718 Tb683 2.349 . S
O718 C728 1.243 . S
O719 Tb672 2.428 . S
O719 C736 1.256 . S
O720 Tb672 2.308 . S
O720 C735 1.266 . S
O721 Tb683 2.393 . S
O721 C735 1.248 . S
O722 Tb683 2.465 . S
O722 C747 1.264 . S
O723 Tb683 2.387 . S
O723 C739 1.264 . S
O724 Tb672 2.349 . S
O724 C739 1.243 . S
O725 Tb683 2.428 . S
O725 C747 1.256 . S
O726 Tb683 2.308 . S
O726 C746 1.266 . S
O727 Tb672 2.393 . S
O727 C746 1.248 . S
C728 O717 1.264 . S
C728 O718 1.243 . S
C729 C732 1.399 . S
C729 C734 1.383 . S
C729 C736 1.496 . S
C730 C731 1.399 . S
C730 C734 1.389 1_554 S
C731 C730 1.399 . S
C731 C733 1.380 . S
C731 H748 0.929 . S
C732 C729 1.399 . S
C732 C733 1.392 1_556 S
C732 H749 0.929 . S
C733 C731 1.380 . S
C733 C732 1.392 1_554 S
C733 H750 0.929 . S
C734 C729 1.383 . S
C734 C730 1.389 1_556 S
C734 H751 0.931 . S
C735 O720 1.266 . S
C735 O721 1.248 . S
C736 Tb672 2.802 . S
C736 O716 1.264 . S
C736 O719 1.256 . S
C736 C729 1.496 . S
C737 C704 1.448 . S
C737 H714 0.930 . S
C737 C738 1.328 . S
C738 C709 1.427 . S
C738 H715 0.929 . S
C738 C737 1.328 . S
C739 O723 1.264 . S
C739 O724 1.243 . S
C740 C743 1.399 . S
C740 C744 1.383 . S
C740 C747 1.496 . S
C741 C742 1.399 . S
C741 C744 1.389 . S
C742 C741 1.399 . S
C742 C745 1.380 . S
C742 H752 0.929 . S
C743 C740 1.399 . S
C743 C745 1.392 . S
C743 H753 0.929 . S
C744 C740 1.383 . S
C744 C741 1.389 . S
C744 H754 0.931 . S
C745 C742 1.380 . S
C745 C743 1.392 . S
C745 H755 0.929 . S
C746 O726 1.266 . S
C746 O727 1.248 . S
C747 Tb683 2.802 . S
C747 O722 1.264 . S
C747 O725 1.256 . S
C747 C740 1.496 . S
H748 C731 0.929 . S
H749 C732 0.929 . S
H750 C733 0.929 . S
H751 C734 0.931 . S
H752 C742 0.929 . S
H753 C743 0.929 . S
H754 C744 0.931 . S
H755 C745 0.929 . S
H756 C764 0.929 . S
H757 C766 0.930 . S
H758 C768 0.930 . S
H759 C771 0.929 . S
H760 C774 0.930 . S
H761 C776 0.960 . S
H762 C776 0.960 . S
H763 C776 0.960 . S
C764 H756 0.929 . S
C764 C765 1.377 . S
C764 C766 1.384 . S
C765 C764 1.377 . S
C765 C771 1.390 . S
C766 H757 0.930 . S
C766 C764 1.384 . S
C766 C767 1.372 . S
C767 C766 1.372 . S
C767 C768 1.400 . S
C767 C772 1.490 . S
C768 H758 0.930 . S
C768 C767 1.400 . S
C768 C771 1.386 . S
H769 C785 0.930 . S
H770 C786 0.931 . S
C771 H759 0.929 . S
C771 C765 1.390 . S
C771 C768 1.386 . S
C772 C767 1.490 . S
C772 C774 1.395 . S
C772 C775 1.403 . S
H773 C779 0.930 1_655 S
C774 H760 0.930 . S
C774 C772 1.395 . S
C774 C777 1.403 . S
C775 C772 1.403 . S
C775 C776 1.524 1_455 S
C775 C779 1.400 . S
C776 H761 0.960 . S
C776 H762 0.960 . S
C776 H763 0.960 . S
C776 C775 1.524 1_655 S
C777 C774 1.403 . S
C777 C778 1.392 . S
C777 C781 1.495 . S
C778 C777 1.392 . S
C778 C779 1.385 . S
C778 C780 1.478 . S
C779 H773 0.930 1_455 S
C779 C775 1.400 . S
C779 C778 1.385 . S
C780 C778 1.478 . S
C780 C782 1.381 . S
C780 C786 1.383 . S
C781 C777 1.495 . S
C781 H787 0.959 . S
C781 H788 0.961 . S
C781 H789 0.960 . S
C782 C780 1.381 . S
C782 C783 1.394 . S
C782 H790 0.930 . S
C783 C782 1.394 . S
C783 C784 1.383 . S
C783 H791 0.929 . S
C784 C783 1.383 . S
C784 C785 1.377 . S
C785 H769 0.930 . S
C785 C784 1.377 . S
C785 C786 1.379 . S
C786 H770 0.931 . S
C786 C780 1.383 . S
C786 C785 1.379 . S
H787 C781 0.959 . S
H788 C781 0.961 . S
H789 C781 0.960 . S
H790 C782 0.930 . S
H791 C783 0.929 . S
H792 C800 0.929 . S
H793 C802 0.930 . S
H794 C804 0.930 . S
H795 C807 0.929 . S
H796 C810 0.930 . S
H797 C812 0.960 . S
H798 C812 0.960 . S
H799 C812 0.960 . S
C800 H792 0.929 . S
C800 C801 1.377 . S
C800 C802 1.384 . S
C801 C800 1.377 . S
C801 C807 1.390 . S
C802 H793 0.930 . S
C802 C800 1.384 . S
C802 C803 1.372 . S
C803 C802 1.372 . S
C803 C804 1.400 . S
C803 C808 1.490 . S
C804 H794 0.930 . S
C804 C803 1.400 . S
C804 C807 1.386 . S
H805 C821 0.930 . S
H806 C822 0.931 . S
C807 H795 0.929 . S
C807 C801 1.390 . S
C807 C804 1.386 . S
C808 C803 1.490 . S
C808 C810 1.395 . S
C808 C811 1.403 . S
H809 C815 0.930 . S
C810 H796 0.930 . S
C810 C808 1.395 . S
C810 C813 1.403 . S
C811 C808 1.403 . S
C811 C812 1.524 . S
C811 C815 1.400 . S
C812 H797 0.960 . S
C812 H798 0.960 . S
C812 H799 0.960 . S
C812 C811 1.524 . S
C813 C810 1.403 . S
C813 C814 1.392 . S
C813 C817 1.495 . S
C814 C813 1.392 . S
C814 C815 1.385 . S
C814 C816 1.478 . S
C815 H809 0.930 . S
C815 C811 1.400 . S
C815 C814 1.385 . S
C816 C814 1.478 . S
C816 C818 1.381 . S
C816 C822 1.383 . S
C817 C813 1.495 . S
C817 H823 0.959 . S
C817 H824 0.961 . S
C817 H825 0.960 . S
C818 C816 1.381 . S
C818 C819 1.394 . S
C818 H826 0.930 . S
C819 C818 1.394 . S
C819 C820 1.383 . S
C819 H827 0.929 . S
C820 C819 1.383 . S
C820 C821 1.377 . S
C821 H805 0.930 . S
C821 C820 1.377 . S
C821 C822 1.379 . S
C822 H806 0.931 . S
C822 C816 1.383 . S
C822 C821 1.379 . S
H823 C817 0.959 . S
H824 C817 0.961 . S
H825 C817 0.960 . S
H826 C818 0.930 . S
H827 C819 0.929 . S
H828 C836 0.929 . S
H829 C838 0.930 . S
H830 C840 0.930 . S
H831 C843 0.929 . S
H832 C846 0.930 . S
H833 C848 0.960 . S
H834 C848 0.960 . S
H835 C848 0.960 . S
C836 H828 0.929 . S
C836 C837 1.377 . S
C836 C838 1.384 . S
C837 C836 1.377 . S
C837 C843 1.390 . S
C838 H829 0.930 . S
C838 C836 1.384 . S
C838 C839 1.372 . S
C839 C838 1.372 . S
C839 C840 1.400 . S
C839 C844 1.490 . S
C840 H830 0.930 . S
C840 C839 1.400 . S
C840 C843 1.386 . S
H841 C857 0.930 . S
H842 C858 0.931 . S
C843 H831 0.929 . S
C843 C837 1.390 . S
C843 C840 1.386 . S
C844 C839 1.490 . S
C844 C846 1.395 . S
C844 C847 1.403 . S
H845 C851 0.930 . S
C846 H832 0.930 . S
C846 C844 1.395 . S
C846 C849 1.403 . S
C847 C844 1.403 . S
C847 C848 1.524 . S
C847 C851 1.400 . S
C848 H833 0.960 . S
C848 H834 0.960 . S
C848 H835 0.960 . S
C848 C847 1.524 . S
C849 C846 1.403 . S
C849 C850 1.392 . S
C849 C853 1.495 . S
C850 C849 1.392 . S
C850 C851 1.385 . S
C850 C852 1.478 . S
C851 H845 0.930 . S
C851 C847 1.400 . S
C851 C850 1.385 . S
C852 C850 1.478 . S
C852 C854 1.381 . S
C852 C858 1.383 . S
C853 C849 1.495 . S
C853 H859 0.959 . S
C853 H860 0.961 . S
C853 H861 0.960 . S
C854 C852 1.381 . S
C854 C855 1.394 . S
C854 H862 0.930 . S
C855 C854 1.394 . S
C855 C856 1.383 . S
C855 H863 0.929 . S
C856 C855 1.383 . S
C856 C857 1.377 . S
C857 H841 0.930 . S
C857 C856 1.377 . S
C857 C858 1.379 . S
C858 H842 0.931 . S
C858 C852 1.383 . S
C858 C857 1.379 . S
H859 C853 0.959 . S
H860 C853 0.961 . S
H861 C853 0.960 . S
H862 C854 0.930 . S
H863 C855 0.929 . S
H864 C872 0.929 . S
H865 C874 0.930 . S
H866 C876 0.930 . S
H867 C879 0.929 . S
H868 C882 0.930 . S
H869 C884 0.960 . S
H870 C884 0.960 . S
H871 C884 0.960 . S
C872 H864 0.929 . S
C872 C873 1.377 . S
C872 C874 1.384 . S
C873 C872 1.377 . S
C873 C879 1.390 . S
C874 H865 0.930 . S
C874 C872 1.384 . S
C874 C875 1.372 . S
C875 C874 1.372 . S
C875 C876 1.400 . S
C875 C880 1.490 . S
C876 H866 0.930 . S
C876 C875 1.400 . S
C876 C879 1.386 . S
H877 C893 0.930 . S
H878 C894 0.931 . S
C879 H867 0.929 . S
C879 C873 1.390 . S
C879 C876 1.386 . S
C880 C875 1.490 . S
C880 C882 1.395 . S
C880 C883 1.403 . S
H881 C887 0.930 . S
C882 H868 0.930 . S
C882 C880 1.395 . S
C882 C885 1.403 . S
C883 C880 1.403 . S
C883 C884 1.524 . S
C883 C887 1.400 . S
C884 H869 0.960 . S
C884 H870 0.960 . S
C884 H871 0.960 . S
C884 C883 1.524 . S
C885 C882 1.403 . S
C885 C886 1.392 . S
C885 C889 1.495 . S
C886 C885 1.392 . S
C886 C887 1.385 . S
C886 C888 1.478 . S
C887 H881 0.930 . S
C887 C883 1.400 . S
C887 C886 1.385 . S
C888 C886 1.478 . S
C888 C890 1.381 . S
C888 C894 1.383 . S
C889 C885 1.495 . S
C889 H895 0.959 . S
C889 H896 0.961 . S
C889 H897 0.960 . S
C890 C888 1.381 . S
C890 C891 1.394 . S
C890 H898 0.930 . S
C891 C890 1.394 . S
C891 C892 1.383 . S
C891 H899 0.929 . S
C892 C891 1.383 . S
C892 C893 1.377 . S
C893 H877 0.930 . S
C893 C892 1.377 . S
C893 C894 1.379 . S
C894 H878 0.931 . S
C894 C888 1.383 . S
C894 C893 1.379 . S
H895 C889 0.959 . S
H896 C889 0.961 . S
H897 C889 0.960 . S
H898 C890 0.930 . S
H899 C891 0.929 . S
H900 C908 0.929 . S
H901 C910 0.930 . S
H902 C912 0.930 . S
H903 C915 0.929 . S
H904 C918 0.930 . S
H905 C920 0.960 . S
H906 C920 0.960 . S
H907 C920 0.960 . S
C908 H900 0.929 . S
C908 C909 1.377 . S
C908 C910 1.384 . S
C909 C908 1.377 . S
C909 C915 1.390 . S
C910 H901 0.930 . S
C910 C908 1.384 . S
C910 C911 1.372 . S
C911 C910 1.372 . S
C911 C912 1.400 . S
C911 C916 1.490 . S
C912 H902 0.930 . S
C912 C911 1.400 . S
C912 C915 1.386 . S
H913 C929 0.930 . S
H914 C930 0.931 . S
C915 H903 0.929 . S
C915 C909 1.390 . S
C915 C912 1.386 . S
C916 C911 1.490 . S
C916 C918 1.395 . S
C916 C919 1.403 . S
H917 C923 0.930 . S
C918 H904 0.930 . S
C918 C916 1.395 . S
C918 C921 1.403 . S
C919 C916 1.403 . S
C919 C920 1.524 . S
C919 C923 1.400 . S
C920 H905 0.960 . S
C920 H906 0.960 . S
C920 H907 0.960 . S
C920 C919 1.524 . S
C921 C918 1.403 . S
C921 C922 1.392 . S
C921 C925 1.495 . S
C922 C921 1.392 . S
C922 C923 1.385 . S
C922 C924 1.478 . S
C923 H917 0.930 . S
C923 C919 1.400 . S
C923 C922 1.385 . S
C924 C922 1.478 . S
C924 C926 1.381 . S
C924 C930 1.383 . S
C925 C921 1.495 . S
C925 H931 0.959 . S
C925 H932 0.961 . S
C925 H933 0.960 . S
C926 C924 1.381 . S
C926 C927 1.394 . S
C926 H934 0.930 . S
C927 C926 1.394 . S
C927 C928 1.383 1_556 S
C927 H935 0.929 1_556 S
C928 C927 1.383 1_554 S
C928 C929 1.377 . S
C929 H913 0.930 . S
C929 C928 1.377 . S
C929 C930 1.379 1_554 S
C930 H914 0.931 . S
C930 C924 1.383 . S
C930 C929 1.379 1_556 S
H931 C925 0.959 . S
H932 C925 0.961 . S
H933 C925 0.960 . S
H934 C926 0.930 . S
H935 C927 0.929 1_554 S
H936 C944 0.929 . S
H937 C946 0.930 . S
H938 C948 0.930 . S
H939 C951 0.929 . S
H940 C954 0.930 . S
H941 C956 0.960 . S
H942 C956 0.960 . S
H943 C956 0.960 . S
C944 H936 0.929 . S
C944 C945 1.377 . S
C944 C946 1.384 . S
C945 C944 1.377 . S
C945 C951 1.390 . S
C946 H937 0.930 . S
C946 C944 1.384 . S
C946 C947 1.372 . S
C947 C946 1.372 . S
C947 C948 1.400 . S
C947 C952 1.490 . S
C948 H938 0.930 . S
C948 C947 1.400 . S
C948 C951 1.386 . S
H949 C965 0.930 . S
H950 C966 0.931 . S
C951 H939 0.929 . S
C951 C945 1.390 . S
C951 C948 1.386 . S
C952 C947 1.490 . S
C952 C954 1.395 . S
C952 C955 1.403 . S
H953 C959 0.930 . S
C954 H940 0.930 . S
C954 C952 1.395 . S
C954 C957 1.403 . S
C955 C952 1.403 . S
C955 C956 1.524 . S
C955 C959 1.400 . S
C956 H941 0.960 . S
C956 H942 0.960 . S
C956 H943 0.960 . S
C956 C955 1.524 . S
C957 C954 1.403 . S
C957 C958 1.392 . S
C957 C961 1.495 . S
C958 C957 1.392 . S
C958 C959 1.385 . S
C958 C960 1.478 . S
C959 H953 0.930 . S
C959 C955 1.400 . S
C959 C958 1.385 . S
C960 C958 1.478 . S
C960 C962 1.381 . S
C960 C966 1.383 . S
C961 C957 1.495 . S
C961 H967 0.959 . S
C961 H968 0.961 . S
C961 H969 0.960 . S
C962 C960 1.381 . S
C962 C963 1.394 1_556 S
C962 H970 0.930 . S
C963 C962 1.394 1_554 S
C963 C964 1.383 . S
C963 H971 0.929 . S
C964 C963 1.383 . S
C964 C965 1.377 . S
C965 H949 0.930 . S
C965 C964 1.377 . S
C965 C966 1.379 1_554 S
C966 H950 0.931 . S
C966 C960 1.383 . S
C966 C965 1.379 1_556 S
H967 C961 0.959 . S
H968 C961 0.961 . S
H969 C961 0.960 . S
H970 C962 0.930 . S
H971 C963 0.929 . S
H972 C980 0.929 . S
H973 C982 0.930 . S
H974 C984 0.930 . S
H975 C987 0.929 . S
H976 C990 0.930 . S
H977 C992 0.960 . S
H978 C992 0.960 . S
H979 C992 0.960 . S
C980 H972 0.929 . S
C980 C981 1.377 . S
C980 C982 1.384 . S
C981 C980 1.377 . S
C981 C987 1.390 . S
C982 H973 0.930 . S
C982 C980 1.384 . S
C982 C983 1.372 . S
C983 C982 1.372 . S
C983 C984 1.400 . S
C983 C988 1.490 . S
C984 H974 0.930 . S
C984 C983 1.400 . S
C984 C987 1.386 . S
H985 C1001 0.930 . S
H986 C1002 0.931 . S
C987 H975 0.929 . S
C987 C981 1.390 . S
C987 C984 1.386 . S
C988 C983 1.490 . S
C988 C990 1.395 . S
C988 C991 1.403 . S
H989 C995 0.930 . S
C990 H976 0.930 . S
C990 C988 1.395 . S
C990 C993 1.403 . S
C991 C988 1.403 . S
C991 C992 1.524 . S
C991 C995 1.400 . S
C992 H977 0.960 . S
C992 H978 0.960 . S
C992 H979 0.960 . S
C992 C991 1.524 . S
C993 C990 1.403 . S
C993 C994 1.392 . S
C993 C997 1.495 . S
C994 C993 1.392 . S
C994 C995 1.385 . S
C994 C996 1.478 . S
C995 H989 0.930 . S
C995 C991 1.400 . S
C995 C994 1.385 . S
C996 C994 1.478 . S
C996 C998 1.381 . S
C996 C1002 1.383 . S
C997 C993 1.495 . S
C997 H1003 0.959 . S
C997 H1004 0.961 . S
C997 H1005 0.960 . S
C998 C996 1.381 . S
C998 C999 1.394 . S
C998 H1006 0.930 . S
C999 C998 1.394 . S
C999 C1000 1.383 1_554 S
C999 H1007 0.929 . S
C1000 C999 1.383 1_556 S
C1000 C1001 1.377 . S
C1001 H985 0.930 . S
C1001 C1000 1.377 . S
C1001 C1002 1.379 1_556 S
C1002 H986 0.931 . S
C1002 C996 1.383 . S
C1002 C1001 1.379 1_554 S
H1003 C997 0.959 . S
H1004 C997 0.961 . S
H1005 C997 0.960 . S
H1006 C998 0.930 . S
H1007 C999 0.929 . S
H1008 C1016 0.929 . S
H1009 C1018 0.930 . S
H1010 C1020 0.930 . S
H1011 C1023 0.929 . S
H1012 C1026 0.930 . S
H1013 C1028 0.960 . S
H1014 C1028 0.960 . S
H1015 C1028 0.960 . S
C1016 H1008 0.929 . S
C1016 C1017 1.377 . S
C1016 C1018 1.384 . S
C1017 C1016 1.377 . S
C1017 C1023 1.390 . S
C1018 H1009 0.930 . S
C1018 C1016 1.384 . S
C1018 C1019 1.372 . S
C1019 C1018 1.372 . S
C1019 C1020 1.400 . S
C1019 C1024 1.490 . S
C1020 H1010 0.930 . S
C1020 C1019 1.400 . S
C1020 C1023 1.386 . S
H1021 C1037 0.930 . S
H1022 C1038 0.931 . S
C1023 H1011 0.929 . S
C1023 C1017 1.390 . S
C1023 C1020 1.386 . S
C1024 C1019 1.490 . S
C1024 C1026 1.395 . S
C1024 C1027 1.403 . S
H1025 C1031 0.930 . S
C1026 H1012 0.930 . S
C1026 C1024 1.395 . S
C1026 C1029 1.403 . S
C1027 C1024 1.403 . S
C1027 C1028 1.524 . S
C1027 C1031 1.400 . S
C1028 H1013 0.960 . S
C1028 H1014 0.960 . S
C1028 H1015 0.960 . S
C1028 C1027 1.524 . S
C1029 C1026 1.403 . S
C1029 C1030 1.392 . S
C1029 C1033 1.495 . S
C1030 C1029 1.392 . S
C1030 C1031 1.385 . S
C1030 C1032 1.478 . S
C1031 H1025 0.930 . S
C1031 C1027 1.400 . S
C1031 C1030 1.385 . S
C1032 C1030 1.478 . S
C1032 C1034 1.381 . S
C1032 C1038 1.383 . S
C1033 C1029 1.495 . S
C1033 H1039 0.959 . S
C1033 H1040 0.961 . S
C1033 H1041 0.960 . S
C1034 C1032 1.381 . S
C1034 C1035 1.394 1_554 S
C1034 H1042 0.930 . S
C1035 C1034 1.394 1_556 S
C1035 C1036 1.383 . S
C1035 H1043 0.929 . S
C1036 C1035 1.383 . S
C1036 C1037 1.377 . S
C1037 H1021 0.930 . S
C1037 C1036 1.377 . S
C1037 C1038 1.379 1_556 S
C1038 H1022 0.931 . S
C1038 C1032 1.383 . S
C1038 C1037 1.379 1_554 S
H1039 C1033 0.959 . S
H1040 C1033 0.961 . S
H1041 C1033 0.960 . S
H1042 C1034 0.930 . S
H1043 C1035 0.929 . S
H1044 C1052 0.929 . S
H1045 C1054 0.930 . S
H1046 C1056 0.930 . S
H1047 C1059 0.929 . S
H1048 C1062 0.930 . S
H1049 C1064 0.960 . S
H1050 C1064 0.960 . S
H1051 C1064 0.960 . S
C1052 H1044 0.929 . S
C1052 C1053 1.377 . S
C1052 C1054 1.384 . S
C1053 C1052 1.377 . S
C1053 C1059 1.390 . S
C1054 H1045 0.930 . S
C1054 C1052 1.384 . S
C1054 C1055 1.372 . S
C1055 C1054 1.372 . S
C1055 C1056 1.400 . S
C1055 C1060 1.490 . S
C1056 H1046 0.930 . S
C1056 C1055 1.400 . S
C1056 C1059 1.386 . S
H1057 C1073 0.930 . S
H1058 C1074 0.931 . S
C1059 H1047 0.929 . S
C1059 C1053 1.390 . S
C1059 C1056 1.386 . S
C1060 C1055 1.490 . S
C1060 C1062 1.395 . S
C1060 C1063 1.403 . S
H1061 C1067 0.930 . S
C1062 H1048 0.930 . S
C1062 C1060 1.395 . S
C1062 C1065 1.403 . S
C1063 C1060 1.403 . S
C1063 C1064 1.524 . S
C1063 C1067 1.400 . S
C1064 H1049 0.960 . S
C1064 H1050 0.960 . S
C1064 H1051 0.960 . S
C1064 C1063 1.524 . S
C1065 C1062 1.403 . S
C1065 C1066 1.392 . S
C1065 C1069 1.495 . S
C1066 C1065 1.392 . S
C1066 C1067 1.385 . S
C1066 C1068 1.478 . S
C1067 H1061 0.930 . S
C1067 C1063 1.400 . S
C1067 C1066 1.385 . S
C1068 C1066 1.478 . S
C1068 C1070 1.381 . S
C1068 C1074 1.383 . S
C1069 C1065 1.495 . S
C1069 H1075 0.959 . S
C1069 H1076 0.961 . S
C1069 H1077 0.960 . S
C1070 C1068 1.381 . S
C1070 C1071 1.394 . S
C1070 H1078 0.930 . S
C1071 C1070 1.394 . S
C1071 C1072 1.383 1_554 S
C1071 H1079 0.929 . S
C1072 C1071 1.383 1_556 S
C1072 C1073 1.377 . S
C1073 H1057 0.930 . S
C1073 C1072 1.377 . S
C1073 C1074 1.379 1_556 S
C1074 H1058 0.931 . S
C1074 C1068 1.383 . S
C1074 C1073 1.379 1_554 S
H1075 C1069 0.959 . S
H1076 C1069 0.961 . S
H1077 C1069 0.960 . S
H1078 C1070 0.930 . S
H1079 C1071 0.929 . S
H1080 C1088 0.929 . S
H1081 C1090 0.930 . S
H1082 C1092 0.930 . S
H1083 C1095 0.929 . S
H1084 C1098 0.930 . S
H1085 C1100 0.960 . S
H1086 C1100 0.960 . S
H1087 C1100 0.960 . S
C1088 H1080 0.929 . S
C1088 C1089 1.377 . S
C1088 C1090 1.384 . S
C1089 C1088 1.377 . S
C1089 C1095 1.390 . S
C1090 H1081 0.930 . S
C1090 C1088 1.384 . S
C1090 C1091 1.372 . S
C1091 C1090 1.372 . S
C1091 C1092 1.400 . S
C1091 C1096 1.490 . S
C1092 H1082 0.930 . S
C1092 C1091 1.400 . S
C1092 C1095 1.386 . S
H1093 C1109 0.930 . S
H1094 C1110 0.931 . S
C1095 H1083 0.929 . S
C1095 C1089 1.390 . S
C1095 C1092 1.386 . S
C1096 C1091 1.490 . S
C1096 C1098 1.395 . S
C1096 C1099 1.403 . S
H1097 C1103 0.930 . S
C1098 H1084 0.930 . S
C1098 C1096 1.395 . S
C1098 C1101 1.403 . S
C1099 C1096 1.403 . S
C1099 C1100 1.524 . S
C1099 C1103 1.400 . S
C1100 H1085 0.960 . S
C1100 H1086 0.960 . S
C1100 H1087 0.960 . S
C1100 C1099 1.524 . S
C1101 C1098 1.403 . S
C1101 C1102 1.392 . S
C1101 C1105 1.495 . S
C1102 C1101 1.392 . S
C1102 C1103 1.385 . S
C1102 C1104 1.478 . S
C1103 H1097 0.930 . S
C1103 C1099 1.400 . S
C1103 C1102 1.385 . S
C1104 C1102 1.478 . S
C1104 C1106 1.381 . S
C1104 C1110 1.383 . S
C1105 C1101 1.495 . S
C1105 H1111 0.959 . S
C1105 H1112 0.961 . S
C1105 H1113 0.960 . S
C1106 C1104 1.381 . S
C1106 C1107 1.394 . S
C1106 H1114 0.930 . S
C1107 C1106 1.394 . S
C1107 C1108 1.383 . S
C1107 H1115 0.929 . S
C1108 C1107 1.383 . S
C1108 C1109 1.377 . S
C1109 H1093 0.930 . S
C1109 C1108 1.377 . S
C1109 C1110 1.379 . S
C1110 H1094 0.931 . S
C1110 C1104 1.383 . S
C1110 C1109 1.379 . S
H1111 C1105 0.959 . S
H1112 C1105 0.961 . S
H1113 C1105 0.960 . S
H1114 C1106 0.930 . S
H1115 C1107 0.929 . S
H1116 C1124 0.929 . S
H1117 C1126 0.930 . S
H1118 C1128 0.930 . S
H1119 C1131 0.929 . S
H1120 C1134 0.930 . S
H1121 C1136 0.960 . S
H1122 C1136 0.960 . S
H1123 C1136 0.960 . S
C1124 H1116 0.929 . S
C1124 C1125 1.377 . S
C1124 C1126 1.384 . S
C1125 C1124 1.377 . S
C1125 C1131 1.390 . S
C1126 H1117 0.930 . S
C1126 C1124 1.384 . S
C1126 C1127 1.372 . S
C1127 C1126 1.372 . S
C1127 C1128 1.400 . S
C1127 C1132 1.490 . S
C1128 H1118 0.930 . S
C1128 C1127 1.400 . S
C1128 C1131 1.386 . S
H1129 C1145 0.930 . S
H1130 C1146 0.931 . S
C1131 H1119 0.929 . S
C1131 C1125 1.390 . S
C1131 C1128 1.386 . S
C1132 C1127 1.490 . S
C1132 C1134 1.395 . S
C1132 C1135 1.403 . S
H1133 C1139 0.930 . S
C1134 H1120 0.930 . S
C1134 C1132 1.395 . S
C1134 C1137 1.403 . S
C1135 C1132 1.403 . S
C1135 C1136 1.524 . S
C1135 C1139 1.400 . S
C1136 H1121 0.960 . S
C1136 H1122 0.960 . S
C1136 H1123 0.960 . S
C1136 C1135 1.524 . S
C1137 C1134 1.403 . S
C1137 C1138 1.392 . S
C1137 C1141 1.495 . S
C1138 C1137 1.392 . S
C1138 C1139 1.385 . S
C1138 C1140 1.478 . S
C1139 H1133 0.930 . S
C1139 C1135 1.400 . S
C1139 C1138 1.385 . S
C1140 C1138 1.478 . S
C1140 C1142 1.381 . S
C1140 C1146 1.383 . S
C1141 C1137 1.495 . S
C1141 H1147 0.959 . S
C1141 H1148 0.961 . S
C1141 H1149 0.960 . S
C1142 C1140 1.381 . S
C1142 C1143 1.394 . S
C1142 H1150 0.930 . S
C1143 C1142 1.394 . S
C1143 C1144 1.383 . S
C1143 H1151 0.929 . S
C1144 C1143 1.383 . S
C1144 C1145 1.377 . S
C1145 H1129 0.930 . S
C1145 C1144 1.377 . S
C1145 C1146 1.379 . S
C1146 H1130 0.931 . S
C1146 C1140 1.383 . S
C1146 C1145 1.379 . S
H1147 C1141 0.959 . S
H1148 C1141 0.961 . S
H1149 C1141 0.960 . S
H1150 C1142 0.930 . S
H1151 C1143 0.929 . S
H1152 C1160 0.929 . S
H1153 C1162 0.930 1_545 S
H1154 C1164 0.930 . S
H1155 C1167 0.929 . S
H1156 C1170 0.930 . S
H1157 C1172 0.960 . S
H1158 C1172 0.960 . S
H1159 C1172 0.960 . S
C1160 H1152 0.929 . S
C1160 C1161 1.377 1_545 S
C1160 C1162 1.384 1_545 S
C1161 C1160 1.377 1_565 S
C1161 C1167 1.390 . S
C1162 H1153 0.930 1_565 S
C1162 C1160 1.384 1_565 S
C1162 C1163 1.372 . S
C1163 C1162 1.372 . S
C1163 C1164 1.400 . S
C1163 C1168 1.490 . S
C1164 H1154 0.930 . S
C1164 C1163 1.400 . S
C1164 C1167 1.386 . S
H1165 C1181 0.930 . S
H1166 C1182 0.931 . S
C1167 H1155 0.929 . S
C1167 C1161 1.390 . S
C1167 C1164 1.386 . S
C1168 C1163 1.490 . S
C1168 C1170 1.395 . S
C1168 C1171 1.403 . S
H1169 C1175 0.930 . S
C1170 H1156 0.930 . S
C1170 C1168 1.395 . S
C1170 C1173 1.403 . S
C1171 C1168 1.403 . S
C1171 C1172 1.524 . S
C1171 C1175 1.400 . S
C1172 H1157 0.960 . S
C1172 H1158 0.960 . S
C1172 H1159 0.960 . S
C1172 C1171 1.524 . S
C1173 C1170 1.403 . S
C1173 C1174 1.392 . S
C1173 C1177 1.495 . S
C1174 C1173 1.392 . S
C1174 C1175 1.385 . S
C1174 C1176 1.478 . S
C1175 H1169 0.930 . S
C1175 C1171 1.400 . S
C1175 C1174 1.385 . S
C1176 C1174 1.478 . S
C1176 C1178 1.381 . S
C1176 C1182 1.383 . S
C1177 C1173 1.495 . S
C1177 H1183 0.959 . S
C1177 H1184 0.961 . S
C1177 H1185 0.960 . S
C1178 C1176 1.381 . S
C1178 C1179 1.394 . S
C1178 H1186 0.930 . S
C1179 C1178 1.394 . S
C1179 C1180 1.383 . S
C1179 H1187 0.929 . S
C1180 C1179 1.383 . S
C1180 C1181 1.377 . S
C1181 H1165 0.930 . S
C1181 C1180 1.377 . S
C1181 C1182 1.379 . S
C1182 H1166 0.931 . S
C1182 C1176 1.383 . S
C1182 C1181 1.379 . S
H1183 C1177 0.959 . S
H1184 C1177 0.961 . S
H1185 C1177 0.960 . S
H1186 C1178 0.930 . S
H1187 C1179 0.929 . S
H1188 C1196 0.929 . S
H1189 C1198 0.930 . S
H1190 C1200 0.919 1_554 S
H1191 C1203 0.929 . S
H1192 C1206 0.930 . S
H1193 C1208 0.960 . S
H1194 C1208 0.960 . S
H1195 C1208 0.960 . S
C1196 H1188 0.929 . S
C1196 C1197 1.377 . S
C1196 C1198 1.384 . S
C1197 C1196 1.377 . S
C1197 C1203 1.390 1_556 S
C1198 H1189 0.930 . S
C1198 C1196 1.384 . S
C1198 C1199 1.372 . S
C1199 C1198 1.372 . S
C1199 C1200 1.400 . S
C1199 C1204 1.490 . S
C1200 H1190 0.919 1_556 S
C1200 C1199 1.400 . S
C1200 C1203 1.386 1_556 S
H1201 C1217 0.930 . S
H1202 C1218 0.931 . S
C1203 H1191 0.929 . S
C1203 C1197 1.390 1_554 S
C1203 C1200 1.386 1_554 S
C1204 C1199 1.490 . S
C1204 C1206 1.395 . S
C1204 C1207 1.403 . S
H1205 C1211 0.930 . S
C1206 H1192 0.930 . S
C1206 C1204 1.395 . S
C1206 C1209 1.403 . S
C1207 C1204 1.403 . S
C1207 C1208 1.524 . S
C1207 C1211 1.400 . S
C1208 H1193 0.960 . S
C1208 H1194 0.960 . S
C1208 H1195 0.960 . S
C1208 C1207 1.524 . S
C1209 C1206 1.403 . S
C1209 C1210 1.392 . S
C1209 C1213 1.495 . S
C1210 C1209 1.392 . S
C1210 C1211 1.385 . S
C1210 C1212 1.478 . S
C1211 H1205 0.930 . S
C1211 C1207 1.400 . S
C1211 C1210 1.385 . S
C1212 C1210 1.478 . S
C1212 C1214 1.381 . S
C1212 C1218 1.383 . S
C1213 C1209 1.495 . S
C1213 H1219 0.959 . S
C1213 H1220 0.961 . S
C1213 H1221 0.960 . S
C1214 C1212 1.381 . S
C1214 C1215 1.394 . S
C1214 H1222 0.930 . S
C1215 C1214 1.394 . S
C1215 C1216 1.383 . S
C1215 H1223 0.929 . S
C1216 C1215 1.383 . S
C1216 C1217 1.377 . S
C1217 H1201 0.930 . S
C1217 C1216 1.377 . S
C1217 C1218 1.379 . S
C1218 H1202 0.931 . S
C1218 C1212 1.383 . S
C1218 C1217 1.379 . S
H1219 C1213 0.959 . S
H1220 C1213 0.961 . S
H1221 C1213 0.960 . S
H1222 C1214 0.930 . S
H1223 C1215 0.929 . S
H1224 C1232 0.929 . S
H1225 C1234 0.930 . S
H1226 C1236 0.930 . S
H1227 C1239 0.929 . S
H1228 C1242 0.930 . S
H1229 C1244 0.960 . S
H1230 C1244 0.960 . S
H1231 C1244 0.960 . S
C1232 H1224 0.929 . S
C1232 C1233 1.377 . S
C1232 C1234 1.384 . S
C1233 C1232 1.377 . S
C1233 C1239 1.390 . S
C1234 H1225 0.930 . S
C1234 C1232 1.384 . S
C1234 C1235 1.372 . S
C1235 C1234 1.372 . S
C1235 C1236 1.400 . S
C1235 C1240 1.490 . S
C1236 H1226 0.930 . S
C1236 C1235 1.400 . S
C1236 C1239 1.386 . S
H1237 C1253 0.930 . S
H1238 C1254 0.931 . S
C1239 H1227 0.929 . S
C1239 C1233 1.390 . S
C1239 C1236 1.386 . S
C1240 C1235 1.490 . S
C1240 C1242 1.395 . S
C1240 C1243 1.403 . S
H1241 C1247 0.930 . S
C1242 H1228 0.930 . S
C1242 C1240 1.395 . S
C1242 C1245 1.403 . S
C1243 C1240 1.403 . S
C1243 C1244 1.524 . S
C1243 C1247 1.400 . S
C1244 H1229 0.960 . S
C1244 H1230 0.960 . S
C1244 H1231 0.960 . S
C1244 C1243 1.524 . S
C1245 C1242 1.403 . S
C1245 C1246 1.392 . S
C1245 C1249 1.495 . S
C1246 C1245 1.392 . S
C1246 C1247 1.385 . S
C1246 C1248 1.478 1_556 S
C1247 H1241 0.930 . S
C1247 C1243 1.400 . S
C1247 C1246 1.385 . S
C1248 C1246 1.478 1_554 S
C1248 C1250 1.381 1_554 S
C1248 C1254 1.383 . S
C1249 C1245 1.495 . S
C1249 H1255 0.959 . S
C1249 H1256 0.961 1_556 S
C1249 H1257 0.960 . S
C1250 C1248 1.381 1_556 S
C1250 C1251 1.394 1_556 S
C1250 H1258 0.930 . S
C1251 C1250 1.394 1_554 S
C1251 C1252 1.383 . S
C1251 H1259 0.929 . S
C1252 C1251 1.383 . S
C1252 C1253 1.377 . S
C1253 H1237 0.930 . S
C1253 C1252 1.377 . S
C1253 C1254 1.379 . S
C1254 H1238 0.931 . S
C1254 C1248 1.383 . S
C1254 C1253 1.379 . S
H1255 C1249 0.959 . S
H1256 C1249 0.961 1_554 S
H1257 C1249 0.960 . S
H1258 C1250 0.930 . S
H1259 C1251 0.929 . S
H1260 C1268 0.929 . S
H1261 C1270 0.930 . S
H1262 C1272 0.930 . S
H1263 C1275 0.929 . S
H1264 C1278 0.930 . S
H1265 C1280 0.960 . S
H1266 C1280 0.960 . S
H1267 C1280 0.960 . S
C1268 H1260 0.929 . S
C1268 C1269 1.377 . S
C1268 C1270 1.384 . S
C1269 C1268 1.377 . S
C1269 C1275 1.390 . S
C1270 H1261 0.930 . S
C1270 C1268 1.384 . S
C1270 C1271 1.372 . S
C1271 C1270 1.372 . S
C1271 C1272 1.400 . S
C1271 C1276 1.490 . S
C1272 H1262 0.930 . S
C1272 C1271 1.400 . S
C1272 C1275 1.386 . S
H1273 C1289 0.930 1_554 S
H1274 C1290 0.931 . S
C1275 H1263 0.929 . S
C1275 C1269 1.390 . S
C1275 C1272 1.386 . S
C1276 C1271 1.490 . S
C1276 C1278 1.395 . S
C1276 C1279 1.403 . S
H1277 C1283 0.930 . S
C1278 H1264 0.930 . S
C1278 C1276 1.395 . S
C1278 C1281 1.403 . S
C1279 C1276 1.403 . S
C1279 C1280 1.524 . S
C1279 C1283 1.400 . S
C1280 H1265 0.960 . S
C1280 H1266 0.960 . S
C1280 H1267 0.960 . S
C1280 C1279 1.524 . S
C1281 C1278 1.403 . S
C1281 C1282 1.392 . S
C1281 C1285 1.495 . S
C1282 C1281 1.392 . S
C1282 C1283 1.385 . S
C1282 C1284 1.478 . S
C1283 H1277 0.930 . S
C1283 C1279 1.400 . S
C1283 C1282 1.385 . S
C1284 C1282 1.478 . S
C1284 C1286 1.381 . S
C1284 C1290 1.383 . S
C1285 C1281 1.495 . S
C1285 H1291 0.959 . S
C1285 H1292 0.961 . S
C1285 H1293 0.960 . S
C1286 C1284 1.381 . S
C1286 C1287 1.394 . S
C1286 H1294 0.930 . S
C1287 C1286 1.394 . S
C1287 C1288 1.383 . S
C1287 H1295 0.929 . S
C1288 C1287 1.383 . S
C1288 C1289 1.377 . S
C1289 H1273 0.930 1_556 S
C1289 C1288 1.377 . S
C1289 C1290 1.379 . S
C1290 H1274 0.931 . S
C1290 C1284 1.383 . S
C1290 C1289 1.379 . S
H1291 C1285 0.959 . S
H1292 C1285 0.961 . S
H1293 C1285 0.960 . S
H1294 C1286 0.930 . S
H1295 C1287 0.929 . S
H1296 C1304 0.929 . S
H1297 C1306 0.930 . S
H1298 C1308 0.930 . S
H1299 C1311 0.929 . S
H1300 C1314 0.930 . S
H1301 C1316 0.960 . S
H1302 C1316 0.960 . S
H1303 C1316 0.960 . S
C1304 H1296 0.929 . S
C1304 C1305 1.377 . S
C1304 C1306 1.384 . S
C1305 C1304 1.377 . S
C1305 C1311 1.390 . S
C1306 H1297 0.930 . S
C1306 C1304 1.384 . S
C1306 C1307 1.372 . S
C1307 C1306 1.372 . S
C1307 C1308 1.400 . S
C1307 C1312 1.490 . S
C1308 H1298 0.930 . S
C1308 C1307 1.400 . S
C1308 C1311 1.386 . S
H1309 C1325 0.930 . S
H1310 C1326 0.931 . S
C1311 H1299 0.929 . S
C1311 C1305 1.390 . S
C1311 C1308 1.386 . S
C1312 C1307 1.490 . S
C1312 C1314 1.395 . S
C1312 C1315 1.403 . S
H1313 C1319 0.930 . S
C1314 H1300 0.930 . S
C1314 C1312 1.395 . S
C1314 C1317 1.403 . S
C1315 C1312 1.403 . S
C1315 C1316 1.524 . S
C1315 C1319 1.400 . S
C1316 H1301 0.960 . S
C1316 H1302 0.960 . S
C1316 H1303 0.960 . S
C1316 C1315 1.524 . S
C1317 C1314 1.403 . S
C1317 C1318 1.392 . S
C1317 C1321 1.495 . S
C1318 C1317 1.392 . S
C1318 C1319 1.385 . S
C1318 C1320 1.478 . S
C1319 H1313 0.930 . S
C1319 C1315 1.400 . S
C1319 C1318 1.385 . S
C1320 C1318 1.478 . S
C1320 C1322 1.381 1_556 S
C1320 C1326 1.383 . S
C1321 C1317 1.495 . S
C1321 H1327 0.959 . S
C1321 H1328 0.961 . S
C1321 H1329 0.960 . S
C1322 C1320 1.381 1_554 S
C1322 C1323 1.394 . S
C1322 H1330 0.930 . S
C1323 C1322 1.394 . S
C1323 C1324 1.383 . S
C1323 H1331 0.929 . S
C1324 C1323 1.383 . S
C1324 C1325 1.377 1_554 S
C1325 H1309 0.930 . S
C1325 C1324 1.377 1_556 S
C1325 C1326 1.379 . S
C1326 H1310 0.931 . S
C1326 C1320 1.383 . S
C1326 C1325 1.379 . S
H1327 C1321 0.959 . S
H1328 C1321 0.961 . S
H1329 C1321 0.960 . S
H1330 C1322 0.930 . S
H1331 C1323 0.929 . S
H1332 C1340 0.929 . S
H1333 C1342 0.930 . S
H1334 C1344 0.930 . S
H1335 C1347 0.929 . S
H1336 C1350 0.930 . S
H1337 C1352 0.960 . S
H1338 C1352 0.960 . S
H1339 C1352 0.960 . S
C1340 H1332 0.929 . S
C1340 C1341 1.377 1_556 S
C1340 C1342 1.384 . S
C1341 C1340 1.377 1_554 S
C1341 C1347 1.390 . S
C1342 H1333 0.930 . S
C1342 C1340 1.384 . S
C1342 C1343 1.372 . S
C1343 C1342 1.372 . S
C1343 C1344 1.399 1_556 S
C1343 C1348 1.490 . S
C1344 H1334 0.930 . S
C1344 C1343 1.399 1_554 S
C1344 C1347 1.386 . S
H1345 C1361 0.930 . S
H1346 C1362 0.931 . S
C1347 H1335 0.929 . S
C1347 C1341 1.390 . S
C1347 C1344 1.386 . S
C1348 C1343 1.490 . S
C1348 C1350 1.395 . S
C1348 C1351 1.403 . S
H1349 C1355 0.930 . S
C1350 H1336 0.930 . S
C1350 C1348 1.395 . S
C1350 C1353 1.403 . S
C1351 C1348 1.403 . S
C1351 C1352 1.524 . S
C1351 C1355 1.400 . S
C1352 H1337 0.960 . S
C1352 H1338 0.960 . S
C1352 H1339 0.960 . S
C1352 C1351 1.524 . S
C1353 C1350 1.403 . S
C1353 C1354 1.392 . S
C1353 C1357 1.495 . S
C1354 C1353 1.392 . S
C1354 C1355 1.385 . S
C1354 C1356 1.478 . S
C1355 H1349 0.930 . S
C1355 C1351 1.400 . S
C1355 C1354 1.385 . S
C1356 C1354 1.478 . S
C1356 C1358 1.381 . S
C1356 C1362 1.383 . S
C1357 C1353 1.495 . S
C1357 H1363 0.959 . S
C1357 H1364 0.961 . S
C1357 H1365 0.960 . S
C1358 C1356 1.381 . S
C1358 C1359 1.394 . S
C1358 H1366 0.930 . S
C1359 C1358 1.394 . S
C1359 C1360 1.383 . S
C1359 H1367 0.929 . S
C1360 C1359 1.383 . S
C1360 C1361 1.377 . S
C1361 H1345 0.930 . S
C1361 C1360 1.377 . S
C1361 C1362 1.379 . S
C1362 H1346 0.931 . S
C1362 C1356 1.383 . S
C1362 C1361 1.379 . S
H1363 C1357 0.959 . S
H1364 C1357 0.961 . S
H1365 C1357 0.960 . S
H1366 C1358 0.930 . S
H1367 C1359 0.929 . S
H1368 C1376 0.929 . S
H1369 C1378 0.930 . S
H1370 C1380 0.930 . S
H1371 C1383 0.929 . S
H1372 C1386 0.930 . S
H1373 C1388 0.960 . S
H1374 C1388 0.960 . S
H1375 C1388 0.960 . S
C1376 H1368 0.929 . S
C1376 C1377 1.377 . S
C1376 C1378 1.384 . S
C1377 C1376 1.377 . S
C1377 C1383 1.390 . S
C1378 H1369 0.930 . S
C1378 C1376 1.384 . S
C1378 C1379 1.372 . S
C1379 C1378 1.372 . S
C1379 C1380 1.400 . S
C1379 C1384 1.490 . S
C1380 H1370 0.930 . S
C1380 C1379 1.400 . S
C1380 C1383 1.386 . S
H1381 C1397 0.930 . S
H1382 C1398 0.931 . S
C1383 H1371 0.929 . S
C1383 C1377 1.390 . S
C1383 C1380 1.386 . S
C1384 C1379 1.490 . S
C1384 C1386 1.395 . S
C1384 C1387 1.403 . S
H1385 C1391 0.930 . S
C1386 H1372 0.930 . S
C1386 C1384 1.395 . S
C1386 C1389 1.403 . S
C1387 C1384 1.403 . S
C1387 C1388 1.524 . S
C1387 C1391 1.400 . S
C1388 H1373 0.960 . S
C1388 H1374 0.960 . S
C1388 H1375 0.960 . S
C1388 C1387 1.524 . S
C1389 C1386 1.403 . S
C1389 C1390 1.392 . S
C1389 C1393 1.495 . S
C1390 C1389 1.392 . S
C1390 C1391 1.385 . S
C1390 C1392 1.478 . S
C1391 H1385 0.930 . S
C1391 C1387 1.400 . S
C1391 C1390 1.385 . S
C1392 C1390 1.478 . S
C1392 C1394 1.381 . S
C1392 C1398 1.383 . S
C1393 C1389 1.495 . S
C1393 H1399 0.959 . S
C1393 H1400 0.961 . S
C1393 H1401 0.960 . S
C1394 C1392 1.381 . S
C1394 C1395 1.394 . S
C1394 H1402 0.930 . S
C1395 C1394 1.394 . S
C1395 C1396 1.383 . S
C1395 H1403 0.929 . S
C1396 C1395 1.383 . S
C1396 C1397 1.377 . S
C1397 H1381 0.930 . S
C1397 C1396 1.377 . S
C1397 C1398 1.379 . S
C1398 H1382 0.931 . S
C1398 C1392 1.383 . S
C1398 C1397 1.379 . S
H1399 C1393 0.959 . S
H1400 C1393 0.961 . S
H1401 C1393 0.960 . S
H1402 C1394 0.930 . S
H1403 C1395 0.929 . S
H1404 C1412 0.929 1_556 S
H1405 C1414 0.930 1_556 S
H1406 C1416 0.930 1_565 S
H1407 C1419 0.929 . S
H1408 C1422 0.930 . S
H1409 C1424 0.960 1_556 S
H1410 C1424 0.960 1_556 S
H1411 C1424 0.960 . S
C1412 H1404 0.929 1_554 S
C1412 C1413 1.377 . S
C1412 C1414 1.384 . S
C1413 C1412 1.377 . S
C1413 C1419 1.390 . S
C1414 H1405 0.930 1_554 S
C1414 C1412 1.384 . S
C1414 C1415 1.372 . S
C1415 C1414 1.372 . S
C1415 C1416 1.400 . S
C1415 C1420 1.490 1_545 S
C1416 H1406 0.930 1_545 S
C1416 C1415 1.400 . S
C1416 C1419 1.386 . S
H1417 C1433 0.930 . S
H1418 C1434 0.931 . S
C1419 H1407 0.929 . S
C1419 C1413 1.390 . S
C1419 C1416 1.386 . S
C1420 C1415 1.490 1_565 S
C1420 C1422 1.395 1_565 S
C1420 C1423 1.403 . S
H1421 C1427 0.930 . S
C1422 H1408 0.930 . S
C1422 C1420 1.395 1_545 S
C1422 C1425 1.403 1_545 S
C1423 C1420 1.403 . S
C1423 C1424 1.524 . S
C1423 C1427 1.400 . S
C1424 H1409 0.960 1_554 S
C1424 H1410 0.960 1_554 S
C1424 H1411 0.960 . S
C1424 C1423 1.524 . S
C1425 C1422 1.403 1_565 S
C1425 C1426 1.392 . S
C1425 C1429 1.495 1_565 S
C1426 C1425 1.392 . S
C1426 C1427 1.385 . S
C1426 C1428 1.478 . S
C1427 H1421 0.930 . S
C1427 C1423 1.400 . S
C1427 C1426 1.385 . S
C1428 C1426 1.478 . S
C1428 C1430 1.381 . S
C1428 C1434 1.383 . S
C1429 C1425 1.495 1_545 S
C1429 H1435 0.959 . S
C1429 H1436 0.961 . S
C1429 H1437 0.960 . S
C1430 C1428 1.381 . S
C1430 C1431 1.394 . S
C1430 H1438 0.930 . S
C1431 C1430 1.394 . S
C1431 C1432 1.383 . S
C1431 H1439 0.929 . S
C1432 C1431 1.383 . S
C1432 C1433 1.377 . S
C1433 H1417 0.930 . S
C1433 C1432 1.377 . S
C1433 C1434 1.379 . S
C1434 H1418 0.931 . S
C1434 C1428 1.383 . S
C1434 C1433 1.379 . S
H1435 C1429 0.959 . S
H1436 C1429 0.961 . S
H1437 C1429 0.960 . S
H1438 C1430 0.930 . S
H1439 C1431 0.929 . S
H1440 C1448 0.929 . S
H1441 C1450 0.930 . S
H1442 C1452 0.930 . S
H1443 C1455 0.929 . S
H1444 C1458 0.930 . S
H1445 C1460 0.960 . S
H1446 C1460 0.960 . S
H1447 C1460 0.960 . S
C1448 H1440 0.929 . S
C1448 C1449 1.377 . S
C1448 C1450 1.384 . S
C1449 C1448 1.377 . S
C1449 C1455 1.390 . S
C1450 H1441 0.930 . S
C1450 C1448 1.384 . S
C1450 C1451 1.372 . S
C1451 C1450 1.372 . S
C1451 C1452 1.400 . S
C1451 C1456 1.490 . S
C1452 H1442 0.930 . S
C1452 C1451 1.400 . S
C1452 C1455 1.386 . S
H1453 C1469 0.930 . S
H1454 C1470 0.931 . S
C1455 H1443 0.929 . S
C1455 C1449 1.390 . S
C1455 C1452 1.386 . S
C1456 C1451 1.490 . S
C1456 C1458 1.395 . S
C1456 C1459 1.403 . S
H1457 C1463 0.930 . S
C1458 H1444 0.930 . S
C1458 C1456 1.395 . S
C1458 C1461 1.403 . S
C1459 C1456 1.403 . S
C1459 C1460 1.524 . S
C1459 C1463 1.400 . S
C1460 H1445 0.960 . S
C1460 H1446 0.960 . S
C1460 H1447 0.960 . S
C1460 C1459 1.524 . S
C1461 C1458 1.403 . S
C1461 C1462 1.392 . S
C1461 C1465 1.495 . S
C1462 C1461 1.392 . S
C1462 C1463 1.385 . S
C1462 C1464 1.478 . S
C1463 H1457 0.930 . S
C1463 C1459 1.400 . S
C1463 C1462 1.385 . S
C1464 C1462 1.478 . S
C1464 C1466 1.381 . S
C1464 C1470 1.383 . S
C1465 C1461 1.495 . S
C1465 H1471 0.959 . S
C1465 H1472 0.961 . S
C1465 H1473 0.960 . S
C1466 C1464 1.381 . S
C1466 C1467 1.394 . S
C1466 H1474 0.930 . S
C1467 C1466 1.394 . S
C1467 C1468 1.383 . S
C1467 H1475 0.929 . S
C1468 C1467 1.383 . S
C1468 C1469 1.377 . S
C1469 H1453 0.930 . S
C1469 C1468 1.377 . S
C1469 C1470 1.379 . S
C1470 H1454 0.931 . S
C1470 C1464 1.383 . S
C1470 C1469 1.379 . S
H1471 C1465 0.959 . S
H1472 C1465 0.961 . S
H1473 C1465 0.960 . S
H1474 C1466 0.930 . S
H1475 C1467 0.929 . S
H1476 C1484 0.929 . S
H1477 C1486 0.930 . S
H1478 C1488 0.930 . S
H1479 C1491 0.929 . S
H1480 C1494 0.930 . S
H1481 C1496 0.960 . S
H1482 C1496 0.960 . S
H1483 C1496 0.960 . S
C1484 H1476 0.929 . S
C1484 C1485 1.377 . S
C1484 C1486 1.384 . S
C1485 C1484 1.377 . S
C1485 C1491 1.390 . S
C1486 H1477 0.930 . S
C1486 C1484 1.384 . S
C1486 C1487 1.372 . S
C1487 C1486 1.372 . S
C1487 C1488 1.400 . S
C1487 C1492 1.490 . S
C1488 H1478 0.930 . S
C1488 C1487 1.400 . S
C1488 C1491 1.386 . S
H1489 C1505 0.930 . S
H1490 C1506 0.931 . S
C1491 H1479 0.929 . S
C1491 C1485 1.390 . S
C1491 C1488 1.386 . S
C1492 C1487 1.490 . S
C1492 C1494 1.395 . S
C1492 C1495 1.403 . S
H1493 C1499 0.930 . S
C1494 H1480 0.930 . S
C1494 C1492 1.395 . S
C1494 C1497 1.403 . S
C1495 C1492 1.403 . S
C1495 C1496 1.524 . S
C1495 C1499 1.400 . S
C1496 H1481 0.960 . S
C1496 H1482 0.960 . S
C1496 H1483 0.960 . S
C1496 C1495 1.524 . S
C1497 C1494 1.403 . S
C1497 C1498 1.392 . S
C1497 C1501 1.495 . S
C1498 C1497 1.392 . S
C1498 C1499 1.385 . S
C1498 C1500 1.478 . S
C1499 H1493 0.930 . S
C1499 C1495 1.400 . S
C1499 C1498 1.385 . S
C1500 C1498 1.478 . S
C1500 C1502 1.381 . S
C1500 C1506 1.383 . S
C1501 C1497 1.495 . S
C1501 H1507 0.959 . S
C1501 H1508 0.961 . S
C1501 H1509 0.960 . S
C1502 C1500 1.381 . S
C1502 C1503 1.394 . S
C1502 H1510 0.930 . S
C1503 C1502 1.394 . S
C1503 C1504 1.383 . S
C1503 H1511 0.929 . S
C1504 C1503 1.383 . S
C1504 C1505 1.377 . S
C1505 H1489 0.930 . S
C1505 C1504 1.377 . S
C1505 C1506 1.379 . S
C1506 H1490 0.931 . S
C1506 C1500 1.383 . S
C1506 C1505 1.379 . S
H1507 C1501 0.959 . S
H1508 C1501 0.961 . S
H1509 C1501 0.960 . S
H1510 C1502 0.930 . S
H1511 C1503 0.929 . S
H1512 C1520 0.929 . S
H1513 C1522 0.930 . S
H1514 C1524 0.930 . S
H1515 C1527 0.929 . S
H1516 C1530 0.930 . S
H1517 C1532 0.960 . S
H1518 C1532 0.960 . S
H1519 C1532 0.960 . S
C1520 H1512 0.929 . S
C1520 C1521 1.377 . S
C1520 C1522 1.384 . S
C1521 C1520 1.377 . S
C1521 C1527 1.390 . S
C1522 H1513 0.930 . S
C1522 C1520 1.384 . S
C1522 C1523 1.372 . S
C1523 C1522 1.372 . S
C1523 C1524 1.400 . S
C1523 C1528 1.490 . S
C1524 H1514 0.930 . S
C1524 C1523 1.400 . S
C1524 C1527 1.386 . S
H1525 C1541 0.930 . S
H1526 C1542 0.931 . S
C1527 H1515 0.929 . S
C1527 C1521 1.390 . S
C1527 C1524 1.386 . S
C1528 C1523 1.490 . S
C1528 C1530 1.395 . S
C1528 C1531 1.403 . S
H1529 C1535 0.930 . S
C1530 H1516 0.930 . S
C1530 C1528 1.395 . S
C1530 C1533 1.403 . S
C1531 C1528 1.403 . S
C1531 C1532 1.524 . S
C1531 C1535 1.400 . S
C1532 H1517 0.960 . S
C1532 H1518 0.960 . S
C1532 H1519 0.960 . S
C1532 C1531 1.524 . S
C1533 C1530 1.403 . S
C1533 C1534 1.392 . S
C1533 C1537 1.495 . S
C1534 C1533 1.392 . S
C1534 C1535 1.385 . S
C1534 C1536 1.478 . S
C1535 H1529 0.930 . S
C1535 C1531 1.400 . S
C1535 C1534 1.385 . S
C1536 C1534 1.478 . S
C1536 C1538 1.381 . S
C1536 C1542 1.383 . S
C1537 C1533 1.495 . S
C1537 H1543 0.959 . S
C1537 H1544 0.961 . S
C1537 H1545 0.960 . S
C1538 C1536 1.381 . S
C1538 C1539 1.394 . S
C1538 H1546 0.930 . S
C1539 C1538 1.394 . S
C1539 C1540 1.383 . S
C1539 H1547 0.929 . S
C1540 C1539 1.383 . S
C1540 C1541 1.377 . S
C1541 H1525 0.930 . S
C1541 C1540 1.377 . S
C1541 C1542 1.379 . S
C1542 H1526 0.931 . S
C1542 C1536 1.383 . S
C1542 C1541 1.379 . S
H1543 C1537 0.959 . S
H1544 C1537 0.961 . S
H1545 C1537 0.960 . S
H1546 C1538 0.930 . S
H1547 C1539 0.929 . S
H1548 C1556 0.929 . S
H1549 C1558 0.930 . S
H1550 C1560 0.930 . S
H1551 C1563 0.929 . S
H1552 C1566 0.930 . S
H1553 C1568 0.960 . S
H1554 C1568 0.960 . S
H1555 C1568 0.960 . S
C1556 H1548 0.929 . S
C1556 C1557 1.377 . S
C1556 C1558 1.384 . S
C1557 C1556 1.377 . S
C1557 C1563 1.390 . S
C1558 H1549 0.930 . S
C1558 C1556 1.384 . S
C1558 C1559 1.372 . S
C1559 C1558 1.372 . S
C1559 C1560 1.400 . S
C1559 C1564 1.490 . S
C1560 H1550 0.930 . S
C1560 C1559 1.400 . S
C1560 C1563 1.386 . S
H1561 C1577 0.930 . S
H1562 C1578 0.931 . S
C1563 H1551 0.929 . S
C1563 C1557 1.390 . S
C1563 C1560 1.386 . S
C1564 C1559 1.490 . S
C1564 C1566 1.395 . S
C1564 C1567 1.403 . S
H1565 C1571 0.917 . S
C1566 H1552 0.930 . S
C1566 C1564 1.395 . S
C1566 C1569 1.403 1_545 S
C1567 C1564 1.403 . S
C1567 C1568 1.524 . S
C1567 C1571 1.363 1_545 S
C1568 H1553 0.960 . S
C1568 H1554 0.960 . S
C1568 H1555 0.960 . S
C1568 C1567 1.524 . S
C1569 C1566 1.403 1_565 S
C1569 C1570 1.392 . S
C1569 C1573 1.495 . S
C1570 C1569 1.392 . S
C1570 C1571 1.438 . S
C1570 C1572 1.478 . S
C1571 H1565 0.917 . S
C1571 C1567 1.363 1_565 S
C1571 C1570 1.438 . S
C1572 C1570 1.478 . S
C1572 C1574 1.381 . S
C1572 C1578 1.383 . S
C1573 C1569 1.495 . S
C1573 H1579 0.959 . S
C1573 H1580 0.961 . S
C1573 H1581 0.960 . S
C1574 C1572 1.381 . S
C1574 C1575 1.394 . S
C1574 H1582 0.930 . S
C1575 C1574 1.394 . S
C1575 C1576 1.383 . S
C1575 H1583 0.929 . S
C1576 C1575 1.383 . S
C1576 C1577 1.377 . S
C1577 H1561 0.930 . S
C1577 C1576 1.377 . S
C1577 C1578 1.379 . S
C1578 H1562 0.931 . S
C1578 C1572 1.383 . S
C1578 C1577 1.379 . S
H1579 C1573 0.959 . S
H1580 C1573 0.961 . S
H1581 C1573 0.960 . S
H1582 C1574 0.930 . S
H1583 C1575 0.929 . S
H1584 C1592 0.929 . S
H1585 C1594 0.930 . S
H1586 C1596 0.930 . S
H1587 C1599 0.929 . S
H1588 C1602 0.930 . S
H1589 C1604 0.960 . S
H1590 C1604 0.960 . S
H1591 C1604 0.960 . S
C1592 H1584 0.929 . S
C1592 C1593 1.377 . S
C1592 C1594 1.384 . S
C1593 C1592 1.377 . S
C1593 C1599 1.390 . S
C1594 H1585 0.930 . S
C1594 C1592 1.384 . S
C1594 C1595 1.372 . S
C1595 C1594 1.372 . S
C1595 C1596 1.400 . S
C1595 C1600 1.490 . S
C1596 H1586 0.930 . S
C1596 C1595 1.400 . S
C1596 C1599 1.386 . S
H1597 C1613 0.930 . S
H1598 C1614 0.931 . S
C1599 H1587 0.929 . S
C1599 C1593 1.390 . S
C1599 C1596 1.386 . S
C1600 C1595 1.490 . S
C1600 C1602 1.395 . S
C1600 C1603 1.403 . S
H1601 C1607 0.930 . S
C1602 H1588 0.930 . S
C1602 C1600 1.395 . S
C1602 C1605 1.403 1_655 S
C1603 C1600 1.403 . S
C1603 C1604 1.524 . S
C1603 C1607 1.400 1_655 S
C1604 H1589 0.960 . S
C1604 H1590 0.960 . S
C1604 H1591 0.960 . S
C1604 C1603 1.524 . S
C1605 C1602 1.403 1_455 S
C1605 C1606 1.392 . S
C1605 C1609 1.495 . S
C1606 C1605 1.392 . S
C1606 C1607 1.385 . S
C1606 C1608 1.478 . S
C1607 H1601 0.930 . S
C1607 C1603 1.400 1_455 S
C1607 C1606 1.385 . S
C1608 C1606 1.478 . S
C1608 C1610 1.381 . S
C1608 C1614 1.383 . S
C1609 C1605 1.495 . S
C1609 H1615 0.959 . S
C1609 H1616 0.961 . S
C1609 H1617 0.960 . S
C1610 C1608 1.381 . S
C1610 C1611 1.394 . S
C1610 H1618 0.930 . S
C1611 C1610 1.394 . S
C1611 C1612 1.383 . S
C1611 H1619 0.929 . S
C1612 C1611 1.383 . S
C1612 C1613 1.377 . S
C1613 H1597 0.930 . S
C1613 C1612 1.377 . S
C1613 C1614 1.379 . S
C1614 H1598 0.931 . S
C1614 C1608 1.383 . S
C1614 C1613 1.379 . S
H1615 C1609 0.959 . S
H1616 C1609 0.961 . S
H1617 C1609 0.960 . S
H1618 C1610 0.930 . S
H1619 C1611 0.929 . S
H1620 C1628 0.929 . S
H1621 C1630 0.930 . S
H1622 C1632 0.930 . S
H1623 C1635 0.929 . S
H1624 C1638 0.930 . S
H1625 C1640 0.960 . S
H1626 C1640 0.960 . S
H1627 C1640 0.960 . S
C1628 H1620 0.929 . S
C1628 C1629 1.377 . S
C1628 C1630 1.384 . S
C1629 C1628 1.377 . S
C1629 C1635 1.390 . S
C1630 H1621 0.930 . S
C1630 C1628 1.384 . S
C1630 C1631 1.372 . S
C1631 C1630 1.372 . S
C1631 C1632 1.400 . S
C1631 C1636 1.490 . S
C1632 H1622 0.930 . S
C1632 C1631 1.400 . S
C1632 C1635 1.386 . S
H1633 C1649 0.930 . S
H1634 C1650 0.931 . S
C1635 H1623 0.929 . S
C1635 C1629 1.390 . S
C1635 C1632 1.386 . S
C1636 C1631 1.490 . S
C1636 C1638 1.395 . S
C1636 C1639 1.403 . S
H1637 C1643 0.930 . S
C1638 H1624 0.930 . S
C1638 C1636 1.395 . S
C1638 C1641 1.403 . S
C1639 C1636 1.403 . S
C1639 C1640 1.524 . S
C1639 C1643 1.400 . S
C1640 H1625 0.960 . S
C1640 H1626 0.960 . S
C1640 H1627 0.960 . S
C1640 C1639 1.524 . S
C1641 C1638 1.403 . S
C1641 C1642 1.392 . S
C1641 C1645 1.495 . S
C1642 C1641 1.392 . S
C1642 C1643 1.385 . S
C1642 C1644 1.478 . S
C1643 H1637 0.930 . S
C1643 C1639 1.400 . S
C1643 C1642 1.385 . S
C1644 C1642 1.478 . S
C1644 C1646 1.381 . S
C1644 C1650 1.383 . S
C1645 C1641 1.495 . S
C1645 H1651 0.959 . S
C1645 H1652 0.961 . S
C1645 H1653 0.960 . S
C1646 C1644 1.381 . S
C1646 C1647 1.394 . S
C1646 H1654 0.930 . S
C1647 C1646 1.394 . S
C1647 C1648 1.383 . S
C1647 H1655 0.929 . S
C1648 C1647 1.383 . S
C1648 C1649 1.377 . S
C1649 H1633 0.930 . S
C1649 C1648 1.377 . S
C1649 C1650 1.379 . S
C1650 H1634 0.931 . S
C1650 C1644 1.383 . S
C1650 C1649 1.379 . S
H1651 C1645 0.959 . S
H1652 C1645 0.961 . S
H1653 C1645 0.960 . S
H1654 C1646 0.930 . S
H1655 C1647 0.929 . S
H1656 C1664 0.929 . S
H1657 C1666 0.930 . S
H1658 C1668 0.930 . S
H1659 C1671 0.929 . S
H1660 C1674 0.930 1_565 S
H1661 C1676 0.960 1_545 S
H1662 C1676 0.960 . S
H1663 C1676 0.960 . S
C1664 H1656 0.929 . S
C1664 C1665 1.377 . S
C1664 C1666 1.384 . S
C1665 C1664 1.377 . S
C1665 C1671 1.390 . S
C1666 H1657 0.930 . S
C1666 C1664 1.384 . S
C1666 C1667 1.372 . S
C1667 C1666 1.372 . S
C1667 C1668 1.400 . S
C1667 C1672 1.490 . S
C1668 H1658 0.930 . S
C1668 C1667 1.400 . S
C1668 C1671 1.386 . S
H1669 C1685 0.930 . S
H1670 C1686 0.931 . S
C1671 H1659 0.929 . S
C1671 C1665 1.390 . S
C1671 C1668 1.386 . S
C1672 C1667 1.490 . S
C1672 C1674 1.395 1_565 S
C1672 C1675 1.403 1_565 S
H1673 C1679 0.930 . S
C1674 H1660 0.930 1_545 S
C1674 C1672 1.395 1_545 S
C1674 C1677 1.403 . S
C1675 C1672 1.403 1_545 S
C1675 C1676 1.524 1_545 S
C1675 C1679 1.400 . S
C1676 H1661 0.960 1_565 S
C1676 H1662 0.960 . S
C1676 H1663 0.960 . S
C1676 C1675 1.524 1_565 S
C1677 C1674 1.403 . S
C1677 C1678 1.392 . S
C1677 C1681 1.495 . S
C1678 C1677 1.392 . S
C1678 C1679 1.385 . S
C1678 C1680 1.478 . S
C1679 H1673 0.930 . S
C1679 C1675 1.400 . S
C1679 C1678 1.385 . S
C1680 C1678 1.478 . S
C1680 C1682 1.381 . S
C1680 C1686 1.383 . S
C1681 C1677 1.495 . S
C1681 H1687 0.959 . S
C1681 H1688 0.961 . S
C1681 H1689 0.960 . S
C1682 C1680 1.381 . S
C1682 C1683 1.394 . S
C1682 H1690 0.930 . S
C1683 C1682 1.394 . S
C1683 C1684 1.383 . S
C1683 H1691 0.929 . S
C1684 C1683 1.383 . S
C1684 C1685 1.377 . S
C1685 H1669 0.930 . S
C1685 C1684 1.377 . S
C1685 C1686 1.379 . S
C1686 H1670 0.931 . S
C1686 C1680 1.383 . S
C1686 C1685 1.379 . S
H1687 C1681 0.959 . S
H1688 C1681 0.961 . S
H1689 C1681 0.960 . S
H1690 C1682 0.930 . S
H1691 C1683 0.929 . S
H1692 C1700 0.929 . S
H1693 C1702 0.930 . S
H1694 C1704 0.930 . S
H1695 C1707 0.929 . S
H1696 C1710 0.930 . S
H1697 C1712 0.960 . S
H1698 C1712 0.960 . S
H1699 C1712 0.960 . S
C1700 H1692 0.929 . S
C1700 C1701 1.377 . S
C1700 C1702 1.384 . S
C1701 C1700 1.377 . S
C1701 C1707 1.390 . S
C1702 H1693 0.930 . S
C1702 C1700 1.384 . S
C1702 C1703 1.372 . S
C1703 C1702 1.372 . S
C1703 C1704 1.400 . S
C1703 C1708 1.490 . S
C1704 H1694 0.930 . S
C1704 C1703 1.400 . S
C1704 C1707 1.386 . S
H1705 C1721 0.930 . S
H1706 C1722 0.931 . S
C1707 H1695 0.929 . S
C1707 C1701 1.390 . S
C1707 C1704 1.386 . S
C1708 C1703 1.490 . S
C1708 C1710 1.395 . S
C1708 C1711 1.403 . S
H1709 C1715 0.930 . S
C1710 H1696 0.930 . S
C1710 C1708 1.395 . S
C1710 C1713 1.403 1_655 S
C1711 C1708 1.403 . S
C1711 C1712 1.524 . S
C1711 C1715 1.400 . S
C1712 H1697 0.960 . S
C1712 H1698 0.960 . S
C1712 H1699 0.960 . S
C1712 C1711 1.524 . S
C1713 C1710 1.403 1_455 S
C1713 C1714 1.392 . S
C1713 C1717 1.495 . S
C1714 C1713 1.392 . S
C1714 C1715 1.385 1_455 S
C1714 C1716 1.478 . S
C1715 H1709 0.930 . S
C1715 C1711 1.400 . S
C1715 C1714 1.385 1_655 S
C1716 C1714 1.478 . S
C1716 C1718 1.381 . S
C1716 C1722 1.383 . S
C1717 C1713 1.495 . S
C1717 H1723 0.959 . S
C1717 H1724 0.961 . S
C1717 H1725 0.960 . S
C1718 C1716 1.381 . S
C1718 C1719 1.394 . S
C1718 H1726 0.930 . S
C1719 C1718 1.394 . S
C1719 C1720 1.383 . S
C1719 H1727 0.929 . S
C1720 C1719 1.383 . S
C1720 C1721 1.377 . S
C1721 H1705 0.930 . S
C1721 C1720 1.377 . S
C1721 C1722 1.379 . S
C1722 H1706 0.931 . S
C1722 C1716 1.383 . S
C1722 C1721 1.379 . S
H1723 C1717 0.959 . S
H1724 C1717 0.961 . S
H1725 C1717 0.960 . S
H1726 C1718 0.930 . S
H1727 C1719 0.929 . S
C765 C63 3.381 1_556 S
C784 C74 3.374 . S
C801 C158 3.392 . S
C820 C147 3.386 . S
C837 C231 3.414 . S
C856 C242 3.400 . S
C873 C326 3.381 . S
C892 C315 3.384 1_556 S
C909 C399 3.394 . S
C928 C410 3.383 . S
C945 C494 3.416 . S
C964 C483 3.409 . S
C981 C573 2.255 . S
C1000 C562 2.281 1_556 S
C1017 C646 2.263 . S
C1036 C657 2.282 1_556 S
C1053 C741 1.927 . S
C1072 C730 1.942 1_556 S
C1089 C476 1.725 . S
C1108 C69 1.506 . S
C1125 C140 2.140 . S
C1144 C308 2.141 . S
C1161 C237 1.164 1_565 S
C1180 C405 1.202 . S
C1197 C224 2.166 1_556 S
C1216 C571 2.173 . S
C1233 C662 1.418 . S
C1252 C56 1.432 . S
C1269 C739 1.245 . S
C1288 C153 1.179 1_556 S
C1305 C735 0.930 . S
C1324 C58 0.863 . S
C1341 C151 1.745 . S
C1360 C567 1.729 . S
C1377 C644 1.674 . S
C1396 C226 1.619 . S
C1413 C235 1.722 . S
C1432 C310 1.460 . S
C1449 C403 2.136 . S
C1468 C67 2.137 . S
C1485 C142 1.161 . S
C1504 C478 1.190 . S
C1521 C746 0.932 . S
C1540 C321 0.952 . S
C1557 C578 1.730 . S
C1576 C392 1.733 . S
C1593 C655 1.674 . S
C1612 C489 1.595 . S
C1629 C560 2.170 . S
C1648 C487 2.165 . S
C1665 C319 1.429 . S
C1684 C651 1.425 . S
C1701 C728 1.242 . S
C1720 C394 1.227 . S
