# Generated by pormake.
# Topology xfx, (5)-cn, num edge types: 1
# Building blocks:
#     Node 0, Type 0, BuildingBlock: BEQFEK_clean_sbu_0, # of connection points: 5
#     Node 1, Type 0, BuildingBlock: BEQFEK_clean_sbu_0, # of connection points: 5
#     Node 2, Type 0, BuildingBlock: BEQFEK_clean_sbu_0, # of connection points: 5
#     Node 3, Type 0, BuildingBlock: BEQFEK_clean_sbu_0, # of connection points: 5
#     Node 4, Type 0, BuildingBlock: BEQFEK_clean_sbu_0, # of connection points: 5
#     Node 5, Type 0, BuildingBlock: BEQFEK_clean_sbu_0, # of connection points: 5
#     Node 6, Type 0, BuildingBlock: BEQFEK_clean_sbu_0, # of connection points: 5
#     Node 7, Type 0, BuildingBlock: BEQFEK_clean_sbu_0, # of connection points: 5
#     Edge 8, Type (0, 0), BuildingBlock: AJUNOK_clean_linker_0, # of connection points: 2
#     Edge 9, Type (0, 0), BuildingBlock: AJUNOK_clean_linker_0, # of connection points: 2
#     Edge 10, Type (0, 0), BuildingBlock: AJUNOK_clean_linker_0, # of connection points: 2
#     Edge 11, Type (0, 0), BuildingBlock: AJUNOK_clean_linker_0, # of connection points: 2
#     Edge 12, Type (0, 0), BuildingBlock: AJUNOK_clean_linker_0, # of connection points: 2
#     Edge 13, Type (0, 0), BuildingBlock: AJUNOK_clean_linker_0, # of connection points: 2
#     Edge 14, Type (0, 0), BuildingBlock: AJUNOK_clean_linker_0, # of connection points: 2
#     Edge 15, Type (0, 0), BuildingBlock: AJUNOK_clean_linker_0, # of connection points: 2
#     Edge 16, Type (0, 0), BuildingBlock: AJUNOK_clean_linker_0, # of connection points: 2
#     Edge 17, Type (0, 0), BuildingBlock: AJUNOK_clean_linker_0, # of connection points: 2
#     Edge 18, Type (0, 0), BuildingBlock: AJUNOK_clean_linker_0, # of connection points: 2
#     Edge 19, Type (0, 0), BuildingBlock: AJUNOK_clean_linker_0, # of connection points: 2
#     Edge 20, Type (0, 0), BuildingBlock: AJUNOK_clean_linker_0, # of connection points: 2
#     Edge 21, Type (0, 0), BuildingBlock: AJUNOK_clean_linker_0, # of connection points: 2
#     Edge 22, Type (0, 0), BuildingBlock: AJUNOK_clean_linker_0, # of connection points: 2
#     Edge 23, Type (0, 0), BuildingBlock: AJUNOK_clean_linker_0, # of connection points: 2
#     Edge 24, Type (0, 0), BuildingBlock: AJUNOK_clean_linker_0, # of connection points: 2
#     Edge 25, Type (0, 0), BuildingBlock: AJUNOK_clean_linker_0, # of connection points: 2
#     Edge 26, Type (0, 0), BuildingBlock: AJUNOK_clean_linker_0, # of connection points: 2
#     Edge 27, Type (0, 0), BuildingBlock: AJUNOK_clean_linker_0, # of connection points: 2
# Relax obj value: 0.399
# Max RMSD: 0.224
# Mean RMSD: 0.224
data_MOF--net-xfx--node1-BEQFEK_clean_sbu_0--edge1-AJUNOK_clean_linker_0
_symmetry_space_group_name_H-M    P1
_symmetry_Int_Tables_number       1
_symmetry_cell_setting            triclinic
loop_
_symmetry_equiv_pos_as_xyz
'x, y, z'
_cell_length_a     29.468424
_cell_length_b     29.504636
_cell_length_c     27.193096
_cell_angle_alpha  91.222049
_cell_angle_beta   89.122953
_cell_angle_gamma 73.799698
loop_
_atom_site_label
_atom_site_type_symbol
_atom_site_fract_x
_atom_site_fract_y
_atom_site_fract_z
_atom_type_partial_charge
Co0 Co 0.36696 0.077 0.36313 0.0
Co1 Co 0.36499 0.9872 0.4191 0.0
C2 C 0.38746 0.9833 0.31081 0.0
O3 O 0.38008 0.02785 0.30976 0.0
O4 O 0.38343 0.9628 0.35067 0.0
C5 C 0.33571 0.15111 0.29567 0.0
O6 O 0.30965 0.12518 0.27809 0.0
C7 C 0.32997 0.90586 0.43611 0.0
C8 C 0.33437 0.89872 0.51667 0.0
C9 C 0.31887 0.8807 0.47467 0.0
N10 N 0.35124 0.93721 0.45434 0.0
N11 N 0.35457 0.93221 0.50244 0.0
C12 C 0.31487 0.90478 0.38387 0.0
H13 H 0.30367 0.94115 0.36976 0.0
H14 H 0.28552 0.88824 0.38031 0.0
H15 H 0.34539 0.88405 0.36094 0.0
C16 C 0.27231 0.11422 0.40741 0.0
N17 N 0.31231 0.0792 0.3996 0.0
N18 N 0.30891 0.04087 0.42128 0.0
C19 C 0.265 0.05012 0.44208 0.0
C20 C 0.24029 0.09694 0.43345 0.0
C21 C 0.26678 0.16481 0.39541 0.0
H22 H 0.30122 0.17289 0.39751 0.0
H23 H 0.25298 0.17139 0.35774 0.0
H24 H 0.24156 0.1891 0.42143 0.0
O25 O 0.42191 0.06651 0.40496 0.0
O26 O 0.42345 1.00213 0.44643 0.0
H27 H 0.26699 1.00358 0.50169 0.0
H28 H 0.20842 0.02878 0.478 0.0
C29 C 0.24647 1.01454 0.46801 0.0
H30 H 0.25092 0.98295 0.44373 0.0
H31 H 0.36824 0.9534 0.52585 0.0
O32 O 0.3616 0.13686 0.33216 0.0
C33 C 0.44119 0.03577 0.43585 0.0
Co34 Co 1.00043 0.7176 0.60134 0.0
Co35 Co 0.08588 0.71475 0.53198 0.0
C36 C 0.09471 0.69627 0.64235 0.0
O37 O 0.05044 0.70504 0.64924 0.0
O38 O 0.1125 0.69718 0.59944 0.0
C39 C 0.93262 0.74376 0.67935 0.0
O40 O 0.96408 0.7622 0.69911 0.0
C41 C 0.16364 0.75417 0.51067 0.0
C42 C 0.17734 0.74056 0.43092 0.0
C43 C 0.19082 0.76253 0.47155 0.0
N44 N 0.13502 0.7292 0.49384 0.0
N45 N 0.14365 0.72075 0.44619 0.0
C46 C 0.16612 0.76707 0.56399 0.0
H47 H 0.17809 0.73423 0.58497 0.0
H48 H 0.13034 0.7867 0.57814 0.0
H49 H 0.19147 0.7878 0.57098 0.0
C50 C 0.96432 0.81239 0.5633 0.0
N51 N 0.99892 0.77201 0.56722 0.0
N52 N 0.03212 0.76996 0.53381 0.0
C53 C 0.01809 0.8084 0.50555 0.0
C54 C 0.9743 0.83639 0.52319 0.0
C55 C 0.92104 0.82688 0.59603 0.0
H56 H 0.93188 0.82705 0.6348 0.0
H57 H 0.89869 0.86281 0.58794 0.0
H58 H 0.89998 0.8013 0.5915 0.0
O59 O 1.00854 0.66166 0.55612 0.0
O60 O 0.06853 0.65827 0.50443 0.0
H61 H 0.02177 0.84482 0.43792 0.0
H62 H 0.07703 0.82251 0.46893 0.0
C63 C 0.04329 0.81514 0.45932 0.0
H64 H 0.05186 0.78215 0.43643 0.0
H65 H 0.12567 0.70261 0.42385 0.0
O66 O 0.94094 0.72435 0.63689 0.0
C67 C 0.03555 0.6416 0.52023 0.0
Co68 Co 0.71014 1.00623 0.3481 0.0
Co69 Co 0.70683 0.09221 0.4168 0.0
C70 C 0.69112 0.09968 0.30586 0.0
O71 O 0.69888 0.05547 0.2993 0.0
O72 O 0.69251 0.11763 0.34869 0.0
C73 C 0.73694 0.93716 0.27108 0.0
O74 O 0.75615 0.96799 0.25158 0.0
C75 C 0.75064 0.166 0.4394 0.0
C76 C 0.71111 0.20298 0.50498 0.0
C77 C 0.7463 0.20462 0.47109 0.0
N78 N 0.71893 0.14344 0.45321 0.0
N79 N 0.69538 0.16559 0.49251 0.0
C80 C 0.78554 0.14898 0.39775 0.0
H81 H 0.79551 0.10997 0.39432 0.0
H82 H 0.81779 0.16077 0.40305 0.0
H83 H 0.76892 0.16284 0.36278 0.0
C84 C 0.80391 0.96985 0.38944 0.0
N85 N 0.76384 1.0046 0.38434 0.0
N86 N 0.76123 0.03796 0.41788 0.0
C87 C 0.79886 0.02395 0.44742 0.0
C88 C 0.82704 0.98002 0.4304 0.0
C89 C 0.81941 0.92695 0.35617 0.0
H90 H 0.81972 0.93816 0.31762 0.0
H91 H 0.85551 0.90506 0.36455 0.0
H92 H 0.79423 0.90536 0.35971 0.0
O93 O 0.65298 1.01545 0.39162 0.0
O94 O 0.64891 0.07654 0.44227 0.0
H95 H 0.82588 0.02527 0.52062 0.0
H96 H 0.8245 0.07597 0.48437 0.0
C97 C 0.80512 0.04986 0.49353 0.0
H98 H 0.77018 0.06924 0.50987 0.0
H99 H 0.66813 0.15568 0.51031 0.0
O100 O 0.717 0.94622 0.31317 0.0
C101 C 0.63226 0.04347 0.42654 0.0
Co102 Co 0.06979 0.37383 0.57598 0.0
Co103 Co 0.97785 0.37481 0.52175 0.0
C104 C 0.97828 0.392 0.63125 0.0
O105 O 0.02277 0.38528 0.63063 0.0
O106 O 0.95629 0.38956 0.59184 0.0
C107 C 0.14183 0.34161 0.64424 0.0
O108 O 0.11377 0.31709 0.65998 0.0
C109 C 0.9012 0.3331 0.50551 0.0
C110 C 0.86881 0.3656 0.43761 0.0
C111 C 0.86514 0.33326 0.47286 0.0
N112 N 0.92471 0.36334 0.48994 0.0
N113 N 0.90499 0.38302 0.44953 0.0
C114 C 0.91557 0.30315 0.54953 0.0
H115 H 0.95232 0.30142 0.55962 0.0
H116 H 0.91274 0.2669 0.54229 0.0
H117 H 0.89206 0.31917 0.58129 0.0
C118 C 0.10453 0.28017 0.52911 0.0
N119 N 0.07015 0.32044 0.53788 0.0
N120 N 0.03177 0.31894 0.51462 0.0
C121 C 0.04086 0.27649 0.49044 0.0
C122 C 0.08691 0.25013 0.50023 0.0
C123 C 0.15505 0.27266 0.54322 0.0
H124 H 0.15957 0.26033 0.58152 0.0
H125 H 0.17945 0.2458 0.5188 0.0
H126 H 0.16493 0.30613 0.54071 0.0
O127 O 0.05819 0.43031 0.53618 0.0
O128 O 0.99172 0.43433 0.49682 0.0
H129 H 0.02495 0.23342 0.43145 0.0
H130 H 0.98321 0.24666 0.48179 0.0
C131 C 1.00654 0.26137 0.4585 0.0
H132 H 0.98447 0.29198 0.43882 0.0
H133 H 0.91651 0.40788 0.42986 0.0
O134 O 0.13041 0.36671 0.60669 0.0
C135 C 0.0262 0.45113 0.50704 0.0
Co136 Co 0.86828 0.57377 0.86645 0.0
Co137 Co 0.86668 0.48271 0.92122 0.0
C138 C 0.88845 0.48136 0.81245 0.0
O139 O 0.88088 0.52593 0.81198 0.0
O140 O 0.88488 0.46039 0.8521 0.0
C141 C 0.83721 0.64758 0.7994 0.0
O142 O 0.81151 0.62108 0.78231 0.0
C143 C 0.83375 0.399 0.93556 0.0
C144 C 0.83123 0.39461 0.01641 0.0
C145 C 0.81914 0.37508 0.97342 0.0
N146 N 0.85228 0.43192 0.95529 0.0
N147 N 0.85154 0.42846 0.00365 0.0
C148 C 0.83092 0.39057 0.88132 0.0
H149 H 0.86663 0.38406 0.86427 0.0
H150 H 0.80737 0.42248 0.86483 0.0
H151 H 0.81831 0.35933 0.87269 0.0
C152 C 0.77364 0.60997 0.91112 0.0
N153 N 0.81374 0.57516 0.9028 0.0
N154 N 0.81078 0.53661 0.92437 0.0
C155 C 0.76718 0.54561 0.94581 0.0
C156 C 0.74219 0.59237 0.93764 0.0
C157 C 0.76743 0.66063 0.89895 0.0
H158 H 0.80159 0.66926 0.90124 0.0
H159 H 0.75388 0.66681 0.86114 0.0
H160 H 0.74178 0.68479 0.92469 0.0
O161 O 0.92355 0.56204 0.90822 0.0
O162 O 0.92517 0.49715 0.94897 0.0
H163 H 0.76873 0.50094 0.00686 0.0
H164 H 0.7108 0.5237 -0.01882 0.0
C165 C 0.74916 0.51003 0.9723 0.0
H166 H 0.75526 0.4775 0.94906 0.0
H167 H 0.8626 0.45083 0.02803 0.0
O168 O 0.86271 0.63416 0.83639 0.0
C169 C 0.94291 0.5309 0.93874 0.0
Co170 Co 0.50245 0.21458 0.09669 0.0
Co171 Co 0.58759 0.2099 0.02686 0.0
C172 C 0.59732 0.19299 0.13719 0.0
O173 O 0.55304 0.20161 0.14406 0.0
O174 O 0.61513 0.1936 0.09424 0.0
C175 C 0.43578 0.24199 0.1754 0.0
O176 O 0.46816 0.2595 0.19449 0.0
C177 C 0.66497 0.24851 0.00477 0.0
C178 C 0.6825 0.2298 0.92641 0.0
C179 C 0.69466 0.2533 0.96661 0.0
N180 N 0.63698 0.22275 -0.01159 0.0
N181 N 0.64776 0.21132 0.94156 0.0
C182 C 0.65998 0.27175 0.05481 0.0
H183 H 0.62271 0.28035 0.06819 0.0
H184 H 0.67174 0.30436 0.05436 0.0
H185 H 0.68222 0.24695 0.08076 0.0
C186 C 0.46724 0.30915 0.05784 0.0
N187 N 0.50143 0.2685 0.06193 0.0
N188 N 0.53443 0.2656 0.0281 0.0
C189 C 0.52065 0.30371 -0.00064 0.0
C190 C 0.47721 0.33242 0.01714 0.0
C191 C 0.42437 0.3246 0.09106 0.0
H192 H 0.40257 0.29964 0.08703 0.0
H193 H 0.43568 0.32461 0.12968 0.0
H194 H 0.40258 0.36077 0.08299 0.0
O195 O 0.50896 0.15861 0.05195 0.0
O196 O 0.56952 0.1533 0.00045 0.0
H197 H 0.5239 0.33821 0.93043 0.0
H198 H 0.57909 0.31814 0.9621 0.0
C199 C 0.54584 0.30957 0.95281 0.0
H200 H 0.5554 0.27587 0.93107 0.0
H201 H 0.6306 0.19204 0.91963 0.0
O202 O 0.44305 0.2227 0.13282 0.0
C203 C 0.53568 0.13786 0.01615 0.0
Co204 Co 0.20972 0.50466 0.84827 0.0
Co205 Co 0.20759 0.58886 0.91905 0.0
C206 C 0.18919 0.59961 0.80897 0.0
O207 O 0.19722 0.55549 0.80125 0.0
O208 O 0.1911 0.61665 0.85215 0.0
C209 C 0.23508 0.43723 0.76938 0.0
O210 O 0.25369 0.4685 0.74987 0.0
C211 C 0.24694 0.66574 0.94241 0.0
C212 C 0.22939 0.68179 0.0212 0.0
C213 C 0.25248 0.69448 -0.01876 0.0
N214 N 0.22122 0.63762 0.95815 0.0
N215 N 0.21039 0.6476 0.00525 0.0
C216 C 0.26906 0.6622 0.89206 0.0
H217 H 0.27723 0.62538 0.8773 0.0
H218 H 0.30178 0.67382 0.89258 0.0
H219 H 0.24367 0.68538 0.86727 0.0
C220 C 0.30478 0.46761 0.88656 0.0
N221 N 0.26432 0.50224 0.88315 0.0
N222 N 0.26264 0.53513 0.91696 0.0
C223 C 0.30146 0.521 0.94486 0.0
C224 C 0.32929 0.47734 0.92665 0.0
C225 C 0.31925 0.42505 0.85271 0.0
H226 H 0.31881 0.4367 0.81427 0.0
H227 H 0.35545 0.40282 0.86013 0.0
H228 H 0.29391 0.40368 0.85668 0.0
O229 O 0.15364 0.51232 0.89289 0.0
O230 O 0.15056 0.57186 0.94527 0.0
H231 H 0.33795 0.52423 0.01282 0.0
H232 H 0.31796 0.57913 -0.01902 0.0
C233 C 0.30898 0.54633 -0.00909 0.0
H234 H 0.2758 0.55662 0.0134 0.0
H235 H 0.19127 0.63018 0.02682 0.0
O236 O 0.21597 0.44556 0.81189 0.0
C237 C 0.13365 0.5392 0.92891 0.0
Co238 Co 0.57209 0.8727 0.07694 0.0
Co239 Co 0.48043 0.87005 0.02302 0.0
C240 C 0.48015 0.89181 0.13169 0.0
O241 O 0.52464 0.8852 0.1313 0.0
O242 O 0.45849 0.88805 0.09238 0.0
C243 C 0.64365 0.84196 0.14553 0.0
O244 O 0.61582 0.81703 0.16085 0.0
C245 C 0.39889 0.83353 0.01043 0.0
C246 C 0.39044 0.83317 0.92995 0.0
C247 C 0.37426 0.81855 0.97329 0.0
N248 N 0.42938 0.85454 -0.01004 0.0
N249 N 0.42348 0.85505 0.94186 0.0
C250 C 0.39334 0.82861 0.06474 0.0
H251 H 0.38374 0.86415 0.08276 0.0
H252 H 0.42745 0.8078 0.07973 0.0
H253 H 0.36503 0.8119 0.07386 0.0
C254 C 0.60819 0.77759 0.03361 0.0
N255 N 0.57343 0.81786 0.04108 0.0
N256 N 0.53484 0.81457 0.01946 0.0
C257 C 0.54395 0.77075 -0.00161 0.0
C258 C 0.59049 0.7457 0.00764 0.0
C259 C 0.65891 0.77162 0.0459 0.0
H260 H 0.66769 0.80557 0.04244 0.0
H261 H 0.66499 0.75956 0.08419 0.0
H262 H 0.68306 0.74496 0.02105 0.0
O263 O 0.55958 0.92788 0.03527 0.0
O264 O 0.49397 0.92889 -0.00453 0.0
H265 H 0.49814 0.77451 0.93763 0.0
H266 H 0.52374 0.71527 0.95871 0.0
C267 C 0.50894 0.75282 0.97049 0.0
H268 H 0.47721 0.75617 -0.00588 0.0
H269 H 0.4437 0.86811 0.91694 0.0
O270 O 0.63232 0.86707 0.10797 0.0
C271 C 0.52754 0.94716 0.00547 0.0
C272 C 0.57389 0.9968 0.43947 0.0
C273 C 0.58509 0.04019 0.44395 0.0
C274 C 0.52693 0.99447 0.44345 0.0
C275 C 0.48934 0.0356 0.45118 0.0
H276 H 0.60129 0.96474 0.42971 0.0
H277 H 0.51976 0.961 0.43564 0.0
S278 S 0.49982 0.15685 0.47247 0.0
N279 N 0.55485 0.12428 0.46284 0.0
N280 N 0.46677 0.12002 0.46898 0.0
C281 C 0.50041 0.07846 0.46004 0.0
C282 C 0.54823 0.08074 0.4568 0.0
C283 C 0.98799 0.58397 0.50726 0.0
C284 C 0.03143 0.59496 0.50187 0.0
C285 C 0.98524 0.53723 0.5026 0.0
C286 C 0.02601 0.4996 0.49324 0.0
H287 H 0.95629 0.61133 0.51827 0.0
H288 H 0.95184 0.53017 0.51103 0.0
S289 S 0.14694 0.50969 0.46863 0.0
N290 N 0.11494 0.56459 0.48014 0.0
N291 N 0.10995 0.47687 0.47271 0.0
C292 C 0.06878 0.51052 0.48345 0.0
C293 C 0.07146 0.55815 0.48736 0.0
C294 C 0.02875 0.48954 0.94524 0.0
C295 C 0.99115 0.53046 0.95405 0.0
C296 C 0.07565 0.49204 0.94123 0.0
C297 C 0.0868 0.53537 0.94674 0.0
H298 H 0.02157 0.45622 0.9366 0.0
H299 H 0.10301 0.46023 0.93055 0.0
S300 S 1.00159 0.65129 -0.02155 0.0
N301 N 0.96857 0.61448 -0.02596 0.0
N302 N 0.05657 0.61901 0.96787 0.0
C303 C 0.04999 0.57558 0.96072 0.0
C304 C 1.00221 0.57315 0.96397 0.0
C305 C 0.56915 1.00722 -0.01659 0.0
C306 C 0.5262 0.99573 -0.00933 0.0
C307 C 0.57133 0.0542 -0.01345 0.0
C308 C 0.53074 0.09145 -0.00185 0.0
H309 H 0.60195 0.97933 -0.02104 0.0
H310 H 0.60567 0.06077 -0.01574 0.0
S311 S 0.40851 0.08124 0.01263 0.0
N312 N 0.44127 0.02627 0.00329 0.0
N313 N 0.44533 0.11435 0.0101 0.0
C314 C 0.48697 0.08089 0.00091 0.0
C315 C 0.48468 0.03311 -0.00316 0.0
C316 C 0.12496 0.193 0.43237 0.0
C317 C 0.11448 0.20221 0.48273 0.0
C318 C 0.16289 0.1548 0.41634 0.0
C319 C 0.19236 0.12542 0.45014 0.0
H320 H 0.10664 0.2177 0.40548 0.0
H321 H 0.17182 0.1508 0.37739 0.0
S322 S 0.1753 0.13114 0.58561 0.0
N323 N 0.13179 0.1749 0.56582 0.0
N324 N 0.20525 0.1054 0.53592 0.0
C325 C 0.17959 0.13178 0.50023 0.0
C326 C 0.14011 0.16976 0.51644 0.0
C327 C 0.24387 0.86358 0.49907 0.0
C328 C 0.28742 0.84964 0.47342 0.0
C329 C 0.21242 0.83574 0.49729 0.0
C330 C 0.22413 0.79208 0.47132 0.0
H331 H 0.23359 0.89681 0.51973 0.0
H332 H 0.17844 0.84884 0.51605 0.0
S333 S 0.33335 0.741 0.39629 0.0
N334 N 0.33996 0.79103 0.4192 0.0
N335 N 0.28161 0.73746 0.41746 0.0
C336 C 0.26726 0.77829 0.44466 0.0
C337 C 0.29889 0.80721 0.44563 0.0
C338 C 0.90768 0.95316 0.4677 0.0
C339 C 0.86409 0.94498 0.45663 0.0
C340 C 0.94435 0.91747 0.48801 0.0
C341 C 0.93843 0.87264 0.49696 0.0
H342 H 0.91356 0.98699 0.46012 0.0
H343 H 0.97716 0.92504 0.49721 0.0
S344 S 0.83094 0.83393 0.47445 0.0
N345 N 0.8164 0.88978 0.45888 0.0
N346 N 0.88648 0.8217 0.49134 0.0
C347 C 0.89527 0.86411 0.4851 0.0
C348 C 0.85768 0.90065 0.4667 0.0
C349 C 0.78928 0.25472 0.51518 0.0
C350 C 0.77348 0.24009 0.47072 0.0
C351 C 0.81744 0.286 0.5159 0.0
C352 C 0.83188 0.30318 0.47209 0.0
H353 H 0.78043 0.24131 0.54974 0.0
H354 H 0.82744 0.29678 0.55133 0.0
S355 S 0.79128 0.28339 0.34677 0.0
N356 N 0.76668 0.25212 0.38271 0.0
N357 N 0.82256 0.30777 0.38333 0.0
C358 C 0.81364 0.2911 0.4276 0.0
C359 C 0.78397 0.26017 0.42707 0.0
C360 C 0.62602 0.68731 0.94008 0.0
C361 C 0.6184 0.69779 -0.00937 0.0
C362 C 0.66357 0.64917 0.92309 0.0
C363 C 0.6949 0.6207 0.95607 0.0
H364 H 0.60558 0.71101 0.91351 0.0
H365 H 0.67058 0.64438 0.88381 0.0
S366 S 0.685 0.62929 0.09208 0.0
N367 N 0.64043 0.67267 0.07351 0.0
N368 N 0.7123 0.60241 0.04154 0.0
C369 C 0.68476 0.6281 0.00664 0.0
C370 C 0.64614 0.66643 0.02391 0.0
C371 C 0.75184 0.34978 0.93743 0.0
C372 C 0.7895 0.34189 0.97045 0.0
C373 C 0.7224 0.31983 0.93517 0.0
C374 C 0.72852 0.28191 0.96699 0.0
H375 H 0.74409 0.38009 0.91402 0.0
H376 H 0.69358 0.32742 0.90958 0.0
S377 S 0.82053 0.24652 0.06102 0.0
N378 N 0.83088 0.29322 0.03581 0.0
N379 N 0.77441 0.23783 0.03258 0.0
C380 C 0.76544 0.27386 0.0006 0.0
C381 C 0.79599 0.30383 0.00231 0.0
C382 C 0.44777 0.41328 -0.01874 0.0
C383 C 0.44141 0.36875 -0.00911 0.0
C384 C 0.411 0.44928 0.9615 0.0
C385 C 0.36684 0.44176 0.95176 0.0
H386 H 0.48096 0.42042 -0.01038 0.0
H387 H 0.41718 0.48289 0.95348 0.0
S388 S 0.3326 0.33153 0.9713 0.0
N389 N 0.38853 0.31866 -0.01307 0.0
N390 N 0.31839 0.38734 0.9556 0.0
C391 C 0.36011 0.39766 0.96229 0.0
C392 C 0.39777 0.36078 -0.01992 0.0
C393 C 0.27042 0.76799 0.95384 0.0
C394 C 0.28248 0.72692 -0.01831 0.0
C395 C 0.30015 0.79777 0.95166 0.0
C396 C 0.34294 0.78718 -0.023 0.0
H397 H 0.23789 0.77699 0.93356 0.0
H398 H 0.28961 0.82929 0.93007 0.0
S399 S 0.39331 0.6797 0.04877 0.0
N400 N 0.34119 0.67508 0.03178 0.0
N401 N 0.39817 0.72961 0.026 0.0
C402 C 0.35603 0.74514 0.00344 0.0
C403 C 0.32542 0.71539 0.00629 0.0
C404 C 0.34111 0.18769 0.21546 0.0
C405 C 0.34524 0.18907 0.26674 0.0
C406 C 0.36662 0.21018 0.18553 0.0
C407 C 0.39699 0.23451 0.20614 0.0
H408 H 0.32232 0.16513 0.19805 0.0
H409 H 0.36593 0.20453 0.14608 0.0
S410 S 0.40623 0.26183 0.33874 0.0
N411 N 0.37131 0.22676 0.33713 0.0
N412 N 0.4197 0.26892 0.28079 0.0
C413 C 0.39502 0.24259 0.25732 0.0
C414 C 0.36893 0.21978 0.28776 0.0
C415 C 0.16483 0.63954 0.67821 0.0
C416 C 0.12547 0.67925 0.68444 0.0
C417 C 0.18742 0.61554 0.71904 0.0
C418 C 0.17217 0.63112 0.76744 0.0
H419 H 0.17602 0.62481 0.64172 0.0
H420 H 0.21561 0.58327 0.71265 0.0
S421 S 0.07491 0.73737 0.80307 0.0
N422 N 0.07508 0.73586 0.74232 0.0
N423 N 0.11839 0.69162 0.819 0.0
C424 C 0.13549 0.67315 0.77401 0.0
C425 C 0.11186 0.69696 0.73248 0.0
C426 C 0.73409 0.89965 0.18907 0.0
C427 C 0.72789 0.899 0.24033 0.0
C428 C 0.71085 0.87576 0.15787 0.0
C429 C 0.68078 0.85054 0.17701 0.0
H430 H 0.75314 0.92229 0.17272 0.0
H431 H 0.71304 0.88076 0.11863 0.0
S432 S 0.66589 0.82521 0.30833 0.0
N433 N 0.69975 0.86135 0.30876 0.0
N434 N 0.6555 0.81676 0.24986 0.0
C435 C 0.68053 0.84339 0.22789 0.0
C436 C 0.70429 0.86769 0.25974 0.0
C437 C 0.90984 0.44644 0.67722 0.0
C438 C 0.95149 0.40876 0.67773 0.0
C439 C 0.88847 0.46886 0.72117 0.0
C440 C 0.90708 0.45335 0.76712 0.0
H441 H 0.89524 0.46051 0.64259 0.0
H442 H 0.85786 0.49929 0.71915 0.0
S443 S 1.01348 0.35398 0.78848 0.0
N444 N 1.00941 0.35576 0.728 0.0
N445 N 0.96812 0.39651 0.81057 0.0
C446 C 0.94714 0.41404 0.76818 0.0
C447 C 0.96965 0.39211 0.72347 0.0
C448 C 0.68973 0.11367 0.21545 0.0
C449 C 0.67443 0.13031 0.26356 0.0
C450 C 0.66729 0.13684 0.17411 0.0
C451 C 0.62802 0.17675 0.17953 0.0
H452 H 0.71782 0.08121 0.20974 0.0
H453 H 0.67849 0.12132 0.13792 0.0
S454 S 0.57722 0.23736 0.297 0.0
N455 N 0.62058 0.19194 0.31386 0.0
N456 N 0.57759 0.23458 0.23627 0.0
C457 C 0.61434 0.19547 0.22722 0.0
C458 C 0.63781 0.17251 0.26924 0.0
C459 C 0.20882 0.3758 0.6562 0.0
C460 C 0.17914 0.35021 0.67546 0.0
C461 C 0.23191 0.39993 0.6873 0.0
C462 C 0.22603 0.39909 0.73857 0.0
H463 H 0.21075 0.38093 0.61696 0.0
H464 H 0.25061 0.42285 0.67087 0.0
S465 S 0.16534 0.32428 0.80681 0.0
N466 N 0.1547 0.31588 0.74839 0.0
N467 N 0.19875 0.36084 0.80709 0.0
C468 C 0.20291 0.36741 0.75806 0.0
C469 C 0.17925 0.3429 0.72633 0.0
C470 C 0.38863 0.96923 0.21969 0.0
C471 C 0.40688 0.95473 0.26605 0.0
C472 C 0.41081 0.94637 0.17626 0.0
C473 C 0.45292 0.90935 0.17773 0.0
H474 H 0.35766 0.99917 0.21696 0.0
H475 H 0.39639 0.95959 0.14126 0.0
S476 S 0.51429 0.85734 0.28988 0.0
N477 N 0.46815 0.89957 0.31093 0.0
N478 N 0.51092 0.85804 0.22932 0.0
C479 C 0.47077 0.89374 0.22388 0.0
C480 C 0.44745 0.91606 0.26807 0.0
C481 C 0.89713 0.7377 0.76134 0.0
C482 C 0.89451 0.73481 0.70993 0.0
C483 C 0.87314 0.71368 0.79118 0.0
C484 C 0.84596 0.68605 0.77045 0.0
H485 H 0.92139 0.7545 0.77854 0.0
H486 H 0.87963 0.71318 0.83031 0.0
S487 S 0.81492 0.68128 0.63918 0.0
N488 N 0.85287 0.71319 0.6405 0.0
N489 N 0.80808 0.66738 0.69678 0.0
C490 C 0.83687 0.68946 0.71993 0.0
C491 C 0.86124 0.71407 0.68949 0.0
loop_
_geom_bond_atom_site_label_1
_geom_bond_atom_site_label_2
_geom_bond_distance
_geom_bond_site_symmetry_2
_ccdc_geom_bond_type
Co0 O3 1.970 1_545 S
Co0 N17 1.989 . S
Co0 O25 1.967 . S
Co0 O32 1.920 . S
Co1 O4 1.966 . S
Co1 N10 2.022 . S
Co1 N18 1.993 1_565 S
Co1 O26 1.941 . S
C2 O3 1.258 . S
C2 O4 1.263 . S
O3 Co0 1.970 1_565 S
O3 C2 1.258 . S
O4 Co1 1.966 . S
O4 C2 1.263 . S
C5 O6 1.235 . S
C5 O32 1.289 . S
O6 C5 1.235 . S
C7 C9 1.400 . S
C7 N10 1.351 . S
C7 C12 1.501 . S
C8 C9 1.387 . S
C8 N11 1.341 . S
C9 C7 1.400 . S
C9 C8 1.387 . S
N10 Co1 2.022 . S
N10 C7 1.351 . S
N10 N11 1.365 . S
N11 C8 1.341 . S
N11 N10 1.365 . S
N11 H31 0.862 . S
C12 C7 1.501 . S
C12 H13 0.961 . S
C12 H14 0.961 . S
C12 H15 0.960 . S
H13 C12 0.961 . S
H14 C12 0.961 . S
H15 C12 0.960 . S
C16 N17 1.342 . S
C16 C20 1.401 . S
C16 C21 1.499 . S
N17 Co0 1.989 . S
N17 C16 1.342 . S
N17 N18 1.388 . S
N18 Co1 1.993 1_545 S
N18 N17 1.388 . S
N18 C19 1.346 . S
C19 N18 1.346 . S
C19 C20 1.396 . S
C19 C29 1.510 . S
C20 C16 1.401 . S
C20 C19 1.396 . S
C21 C16 1.499 . S
C21 H22 0.959 . S
C21 H23 0.960 . S
C21 H24 0.961 . S
H22 C21 0.959 . S
H23 C21 0.960 . S
H24 C21 0.961 . S
O25 Co0 1.967 . S
O25 C33 1.258 1_545 S
O26 Co1 1.941 . S
O26 C33 1.266 . S
H27 C29 0.959 . S
H28 C29 0.961 . S
C29 C19 1.510 . S
C29 H27 0.959 . S
C29 H28 0.961 . S
C29 H30 0.940 1_545 S
H30 C29 0.940 1_565 S
H31 N11 0.862 . S
O32 Co0 1.920 . S
O32 C5 1.289 . S
C33 O25 1.258 1_565 S
C33 O26 1.266 . S
Co34 O37 1.970 1_655 S
Co34 N51 1.989 . S
Co34 O59 1.967 1_655 S
Co34 O66 1.920 . S
Co35 O38 1.966 . S
Co35 N44 2.022 . S
Co35 N52 1.993 . S
Co35 O60 1.941 . S
C36 O37 1.258 . S
C36 O38 1.263 . S
O37 Co34 1.970 1_455 S
O37 C36 1.258 . S
O38 Co35 1.966 . S
O38 C36 1.263 . S
C39 O40 1.235 . S
C39 O66 1.289 . S
O40 C39 1.235 . S
C41 C43 1.400 . S
C41 N44 1.351 . S
C41 C46 1.501 . S
C42 C43 1.387 . S
C42 N45 1.341 . S
C43 C41 1.400 . S
C43 C42 1.387 . S
N44 Co35 2.022 . S
N44 C41 1.351 . S
N44 N45 1.365 . S
N45 C42 1.341 . S
N45 N44 1.365 . S
N45 H65 0.862 . S
C46 C41 1.501 . S
C46 H47 0.961 . S
C46 H48 0.961 . S
C46 H49 0.960 . S
H47 C46 0.961 . S
H48 C46 0.961 . S
H49 C46 0.960 . S
C50 N51 1.342 . S
C50 C54 1.401 . S
C50 C55 1.499 . S
N51 Co34 1.989 . S
N51 C50 1.342 . S
N51 N52 1.388 1_655 S
N52 Co35 1.993 . S
N52 N51 1.388 1_455 S
N52 C53 1.346 1_455 S
C53 N52 1.346 1_655 S
C53 C54 1.396 . S
C53 C63 1.510 1_655 S
C54 C50 1.401 . S
C54 C53 1.396 . S
C55 C50 1.499 . S
C55 H56 0.959 . S
C55 H57 0.960 . S
C55 H58 0.961 . S
H56 C55 0.959 . S
H57 C55 0.960 . S
H58 C55 0.961 . S
O59 Co34 1.967 1_455 S
O59 C67 1.258 . S
O60 Co35 1.941 . S
O60 C67 1.266 . S
H61 C63 0.959 1_655 S
H62 C63 0.961 . S
C63 C53 1.510 1_455 S
C63 H61 0.959 1_455 S
C63 H62 0.961 . S
C63 H64 0.960 . S
H64 C63 0.960 . S
H65 N45 0.862 . S
O66 Co34 1.920 . S
O66 C39 1.289 . S
C67 O59 1.258 . S
C67 O60 1.266 . S
Co68 O71 1.970 1_565 S
Co68 N85 1.989 . S
Co68 O93 1.967 1_565 S
Co68 O100 1.920 . S
Co69 O72 1.966 . S
Co69 N78 2.022 . S
Co69 N86 1.993 . S
Co69 O94 1.941 . S
C70 O71 1.258 . S
C70 O72 1.263 . S
O71 Co68 1.970 1_545 S
O71 C70 1.258 . S
O72 Co69 1.966 . S
O72 C70 1.263 . S
C73 O74 1.235 . S
C73 O100 1.289 . S
O74 C73 1.235 . S
C75 C77 1.400 . S
C75 N78 1.351 . S
C75 C80 1.501 . S
C76 C77 1.387 . S
C76 N79 1.341 . S
C77 C75 1.400 . S
C77 C76 1.387 . S
N78 Co69 2.022 . S
N78 C75 1.351 . S
N78 N79 1.365 . S
N79 C76 1.341 . S
N79 N78 1.365 . S
N79 H99 0.862 . S
C80 C75 1.501 . S
C80 H81 0.961 . S
C80 H82 0.961 . S
C80 H83 0.960 . S
H81 C80 0.961 . S
H82 C80 0.961 . S
H83 C80 0.960 . S
C84 N85 1.342 . S
C84 C88 1.401 . S
C84 C89 1.499 . S
N85 Co68 1.989 . S
N85 C84 1.342 . S
N85 N86 1.388 1_565 S
N86 Co69 1.993 . S
N86 N85 1.388 1_545 S
N86 C87 1.346 1_545 S
C87 N86 1.346 1_565 S
C87 C88 1.396 . S
C87 C97 1.510 1_565 S
C88 C84 1.401 . S
C88 C87 1.396 . S
C89 C84 1.499 . S
C89 H90 0.959 . S
C89 H91 0.960 . S
C89 H92 0.961 . S
H90 C89 0.959 . S
H91 C89 0.960 . S
H92 C89 0.961 . S
O93 Co68 1.967 1_545 S
O93 C101 1.258 . S
O94 Co69 1.941 . S
O94 C101 1.266 . S
H95 C97 0.959 1_565 S
H96 C97 0.961 . S
C97 C87 1.510 1_545 S
C97 H95 0.959 1_545 S
C97 H96 0.961 . S
C97 H98 0.960 . S
H98 C97 0.960 . S
H99 N79 0.862 . S
O100 Co68 1.920 . S
O100 C73 1.289 . S
C101 O93 1.258 . S
C101 O94 1.266 . S
Co102 O105 1.970 1_455 S
Co102 N119 1.989 . S
Co102 O127 1.967 . S
Co102 O134 1.920 . S
Co103 O106 1.966 . S
Co103 N112 2.022 . S
Co103 N120 1.993 1_655 S
Co103 O128 1.941 . S
C104 O105 1.258 . S
C104 O106 1.263 . S
O105 Co102 1.970 1_655 S
O105 C104 1.258 . S
O106 Co103 1.966 . S
O106 C104 1.263 . S
C107 O108 1.235 . S
C107 O134 1.289 . S
O108 C107 1.235 . S
C109 C111 1.400 . S
C109 N112 1.351 . S
C109 C114 1.501 . S
C110 C111 1.387 . S
C110 N113 1.341 . S
C111 C109 1.400 . S
C111 C110 1.387 . S
N112 Co103 2.022 . S
N112 C109 1.351 . S
N112 N113 1.365 . S
N113 C110 1.341 . S
N113 N112 1.365 . S
N113 H133 0.862 . S
C114 C109 1.501 . S
C114 H115 0.961 . S
C114 H116 0.961 . S
C114 H117 0.960 . S
H115 C114 0.961 . S
H116 C114 0.961 . S
H117 C114 0.960 . S
C118 N119 1.342 . S
C118 C122 1.401 . S
C118 C123 1.499 . S
N119 Co102 1.989 . S
N119 C118 1.342 . S
N119 N120 1.388 . S
N120 Co103 1.993 1_455 S
N120 N119 1.388 . S
N120 C121 1.346 . S
C121 N120 1.346 . S
C121 C122 1.396 . S
C121 C131 1.510 . S
C122 C118 1.401 . S
C122 C121 1.396 . S
C123 C118 1.499 . S
C123 H124 0.959 . S
C123 H125 0.960 . S
C123 H126 0.961 . S
H124 C123 0.959 . S
H125 C123 0.960 . S
H126 C123 0.961 . S
O127 Co102 1.967 . S
O127 C135 1.258 1_455 S
O128 Co103 1.941 . S
O128 C135 1.266 . S
H129 C131 0.959 . S
H130 C131 0.961 . S
C131 C121 1.510 . S
C131 H129 0.959 . S
C131 H130 0.961 . S
C131 H132 0.940 1_455 S
H132 C131 0.940 1_655 S
H133 N113 0.862 . S
O134 Co102 1.920 . S
O134 C107 1.289 . S
C135 O127 1.258 1_655 S
C135 O128 1.266 . S
Co136 O139 1.970 . S
Co136 N153 1.989 . S
Co136 O161 1.967 . S
Co136 O168 1.920 . S
Co137 O140 1.966 . S
Co137 N146 2.022 1_556 S
Co137 N154 1.993 . S
Co137 O162 1.941 . S
C138 O139 1.258 . S
C138 O140 1.263 . S
O139 Co136 1.970 . S
O139 C138 1.258 . S
O140 Co137 1.966 . S
O140 C138 1.263 . S
C141 O142 1.235 . S
C141 O168 1.289 . S
O142 C141 1.235 . S
C143 C145 1.400 1_556 S
C143 N146 1.351 1_556 S
C143 C148 1.501 . S
C144 C145 1.387 . S
C144 N147 1.341 . S
C145 C143 1.400 1_554 S
C145 C144 1.387 . S
N146 Co137 2.022 1_554 S
N146 C143 1.351 1_554 S
N146 N147 1.365 . S
N147 C144 1.341 . S
N147 N146 1.365 . S
N147 H167 0.862 . S
C148 C143 1.501 . S
C148 H149 0.961 . S
C148 H150 0.961 . S
C148 H151 0.960 . S
H149 C148 0.961 . S
H150 C148 0.961 . S
H151 C148 0.960 . S
C152 N153 1.342 . S
C152 C156 1.401 . S
C152 C157 1.499 . S
N153 Co136 1.989 . S
N153 C152 1.342 . S
N153 N154 1.388 . S
N154 Co137 1.993 . S
N154 N153 1.388 . S
N154 C155 1.346 . S
C155 N154 1.346 . S
C155 C156 1.396 . S
C155 C165 1.510 1_556 S
C156 C152 1.401 . S
C156 C155 1.396 . S
C157 C152 1.499 . S
C157 H158 0.959 . S
C157 H159 0.960 . S
C157 H160 0.961 . S
H158 C157 0.959 . S
H159 C157 0.960 . S
H160 C157 0.961 . S
O161 Co136 1.967 . S
O161 C169 1.258 . S
O162 Co137 1.941 . S
O162 C169 1.266 . S
H163 C165 0.959 . S
H164 C165 0.961 1_556 S
C165 C155 1.510 1_554 S
C165 H163 0.959 . S
C165 H164 0.961 1_554 S
C165 H166 0.960 . S
H166 C165 0.960 . S
H167 N147 0.862 . S
O168 Co136 1.920 . S
O168 C141 1.289 . S
C169 O161 1.258 . S
C169 O162 1.266 . S
Co170 O173 1.970 . S
Co170 N187 1.989 . S
Co170 O195 1.967 . S
Co170 O202 1.920 . S
Co171 O174 1.966 . S
Co171 N180 2.022 1_554 S
Co171 N188 1.993 . S
Co171 O196 1.941 . S
C172 O173 1.258 . S
C172 O174 1.263 . S
O173 Co170 1.970 . S
O173 C172 1.258 . S
O174 Co171 1.966 . S
O174 C172 1.263 . S
C175 O176 1.235 . S
C175 O202 1.289 . S
O176 C175 1.235 . S
C177 C179 1.400 1_554 S
C177 N180 1.351 1_554 S
C177 C182 1.501 . S
C178 C179 1.387 . S
C178 N181 1.341 . S
C179 C177 1.400 1_556 S
C179 C178 1.387 . S
N180 Co171 2.022 1_556 S
N180 C177 1.351 1_556 S
N180 N181 1.365 . S
N181 C178 1.341 . S
N181 N180 1.365 . S
N181 H201 0.862 . S
C182 C177 1.501 . S
C182 H183 0.961 . S
C182 H184 0.961 . S
C182 H185 0.960 . S
H183 C182 0.961 . S
H184 C182 0.961 . S
H185 C182 0.960 . S
C186 N187 1.342 . S
C186 C190 1.401 . S
C186 C191 1.499 . S
N187 Co170 1.989 . S
N187 C186 1.342 . S
N187 N188 1.388 . S
N188 Co171 1.993 . S
N188 N187 1.388 . S
N188 C189 1.346 . S
C189 N188 1.346 . S
C189 C190 1.396 . S
C189 C199 1.510 1_554 S
C190 C186 1.401 . S
C190 C189 1.396 . S
C191 C186 1.499 . S
C191 H192 0.959 . S
C191 H193 0.960 . S
C191 H194 0.961 . S
H192 C191 0.959 . S
H193 C191 0.960 . S
H194 C191 0.961 . S
O195 Co170 1.967 . S
O195 C203 1.258 . S
O196 Co171 1.941 . S
O196 C203 1.266 . S
H197 C199 0.959 . S
H198 C199 0.961 1_554 S
C199 C189 1.510 1_556 S
C199 H197 0.959 . S
C199 H198 0.961 1_556 S
C199 H200 0.960 . S
H200 C199 0.960 . S
H201 N181 0.862 . S
O202 Co170 1.920 . S
O202 C175 1.289 . S
C203 O195 1.258 . S
C203 O196 1.266 . S
Co204 O207 1.970 . S
Co204 N221 1.989 . S
Co204 O229 1.967 . S
Co204 O236 1.920 . S
Co205 O208 1.966 . S
Co205 N214 2.022 1_556 S
Co205 N222 1.993 . S
Co205 O230 1.941 . S
C206 O207 1.258 . S
C206 O208 1.263 . S
O207 Co204 1.970 . S
O207 C206 1.258 . S
O208 Co205 1.966 . S
O208 C206 1.263 . S
C209 O210 1.235 . S
C209 O236 1.289 . S
O210 C209 1.235 . S
C211 C213 1.400 1_556 S
C211 N214 1.351 1_556 S
C211 C216 1.501 . S
C212 C213 1.387 . S
C212 N215 1.341 . S
C213 C211 1.400 1_554 S
C213 C212 1.387 . S
N214 Co205 2.022 1_554 S
N214 C211 1.351 1_554 S
N214 N215 1.365 . S
N215 C212 1.341 . S
N215 N214 1.365 . S
N215 H235 0.862 . S
C216 C211 1.501 . S
C216 H217 0.961 . S
C216 H218 0.961 . S
C216 H219 0.960 . S
H217 C216 0.961 . S
H218 C216 0.961 . S
H219 C216 0.960 . S
C220 N221 1.342 . S
C220 C224 1.401 . S
C220 C225 1.499 . S
N221 Co204 1.989 . S
N221 C220 1.342 . S
N221 N222 1.388 . S
N222 Co205 1.993 . S
N222 N221 1.388 . S
N222 C223 1.346 . S
C223 N222 1.346 . S
C223 C224 1.396 . S
C223 C233 1.510 1_556 S
C224 C220 1.401 . S
C224 C223 1.396 . S
C225 C220 1.499 . S
C225 H226 0.959 . S
C225 H227 0.960 . S
C225 H228 0.961 . S
H226 C225 0.959 . S
H227 C225 0.960 . S
H228 C225 0.961 . S
O229 Co204 1.967 . S
O229 C237 1.258 . S
O230 Co205 1.941 . S
O230 C237 1.266 . S
H231 C233 0.959 . S
H232 C233 0.961 1_556 S
C233 C223 1.510 1_554 S
C233 H231 0.959 . S
C233 H232 0.961 1_554 S
C233 H234 0.960 . S
H234 C233 0.960 . S
H235 N215 0.862 . S
O236 Co204 1.920 . S
O236 C209 1.289 . S
C237 O229 1.258 . S
C237 O230 1.266 . S
Co238 O241 1.970 . S
Co238 N255 1.989 . S
Co238 O263 1.967 . S
Co238 O270 1.920 . S
Co239 O242 1.966 . S
Co239 N248 2.022 1_554 S
Co239 N256 1.993 . S
Co239 O264 1.941 . S
C240 O241 1.258 . S
C240 O242 1.263 . S
O241 Co238 1.970 . S
O241 C240 1.258 . S
O242 Co239 1.966 . S
O242 C240 1.263 . S
C243 O244 1.235 . S
C243 O270 1.289 . S
O244 C243 1.235 . S
C245 C247 1.400 1_554 S
C245 N248 1.351 1_554 S
C245 C250 1.501 . S
C246 C247 1.387 . S
C246 N249 1.341 . S
C247 C245 1.400 1_556 S
C247 C246 1.387 . S
N248 Co239 2.022 1_556 S
N248 C245 1.351 1_556 S
N248 N249 1.365 . S
N249 C246 1.341 . S
N249 N248 1.365 . S
N249 H269 0.862 . S
C250 C245 1.501 . S
C250 H251 0.961 . S
C250 H252 0.961 . S
C250 H253 0.960 . S
H251 C250 0.961 . S
H252 C250 0.961 . S
H253 C250 0.960 . S
C254 N255 1.342 . S
C254 C258 1.401 . S
C254 C259 1.499 . S
N255 Co238 1.989 . S
N255 C254 1.342 . S
N255 N256 1.388 . S
N256 Co239 1.993 . S
N256 N255 1.388 . S
N256 C257 1.346 . S
C257 N256 1.346 . S
C257 C258 1.396 . S
C257 C267 1.510 1_554 S
C258 C254 1.401 . S
C258 C257 1.396 . S
C259 C254 1.499 . S
C259 H260 0.959 . S
C259 H261 0.960 . S
C259 H262 0.961 . S
H260 C259 0.959 . S
H261 C259 0.960 . S
H262 C259 0.961 . S
O263 Co238 1.967 . S
O263 C271 1.258 . S
O264 Co239 1.941 . S
O264 C271 1.266 . S
H265 C267 0.959 . S
H266 C267 0.961 1_554 S
C267 C257 1.510 1_556 S
C267 H265 0.959 . S
C267 H266 0.961 1_556 S
C267 H268 0.960 . S
H268 C267 0.960 . S
H269 N249 0.862 . S
O270 Co238 1.920 . S
O270 C243 1.289 . S
C271 O263 1.258 . S
C271 O264 1.266 . S
C272 C273 1.369 1_565 S
C272 C274 1.419 . S
C272 H276 0.930 . S
C273 C272 1.369 1_545 S
C273 C282 1.429 . S
C274 C272 1.419 . S
C274 C275 1.363 1_565 S
C274 H277 0.929 . S
C275 C274 1.363 1_545 S
C275 C281 1.428 . S
H276 C272 0.930 . S
H277 C274 0.929 . S
S278 N279 1.613 . S
S278 N280 1.610 . S
N279 S278 1.613 . S
N279 C282 1.350 . S
N280 S278 1.610 . S
N280 C281 1.351 . S
C281 C275 1.428 . S
C281 N280 1.351 . S
C281 C282 1.434 . S
C282 C273 1.429 . S
C282 N279 1.350 . S
C282 C281 1.434 . S
C283 C284 1.369 . S
C283 C285 1.419 1_455 S
C283 H287 0.930 . S
C284 C283 1.369 . S
C284 C293 1.429 . S
C285 C283 1.419 1_655 S
C285 C286 1.363 1_655 S
C285 H288 0.929 . S
C286 C285 1.363 1_455 S
C286 C292 1.428 . S
H287 C283 0.930 . S
H288 C285 0.929 . S
S289 N290 1.613 . S
S289 N291 1.610 . S
N290 S289 1.613 . S
N290 C293 1.350 . S
N291 S289 1.610 . S
N291 C292 1.351 . S
C292 C286 1.428 . S
C292 N291 1.351 . S
C292 C293 1.434 . S
C293 C284 1.429 . S
C293 N290 1.350 . S
C293 C292 1.434 . S
C294 C295 1.369 1_455 S
C294 C296 1.419 . S
C294 H298 0.930 . S
C295 C294 1.369 1_655 S
C295 C304 1.429 1_556 S
C296 C294 1.419 . S
C296 C297 1.363 . S
C296 H299 0.929 . S
C297 C296 1.363 . S
C297 C303 1.428 1_556 S
H298 C294 0.930 . S
H299 C296 0.929 . S
S300 N301 1.613 . S
S300 N302 1.610 1_655 S
N301 S300 1.613 . S
N301 C304 1.350 . S
N302 S300 1.610 1_455 S
N302 C303 1.351 . S
C303 C297 1.428 1_554 S
C303 N302 1.351 . S
C303 C304 1.434 1_455 S
C304 C295 1.429 1_554 S
C304 N301 1.350 . S
C304 C303 1.434 1_655 S
C305 C306 1.369 1_556 S
C305 C307 1.419 1_565 S
C305 H309 0.930 . S
C306 C305 1.369 1_554 S
C306 C315 1.429 1_565 S
C307 C305 1.419 1_545 S
C307 C308 1.363 1_556 S
C307 H310 0.929 . S
C308 C307 1.363 1_554 S
C308 C314 1.428 . S
H309 C305 0.930 . S
H310 C307 0.929 . S
S311 N312 1.613 . S
S311 N313 1.610 . S
N312 S311 1.613 . S
N312 C315 1.350 . S
N313 S311 1.610 . S
N313 C314 1.351 . S
C314 C308 1.428 . S
C314 N313 1.351 . S
C314 C315 1.434 . S
C315 C306 1.429 1_545 S
C315 N312 1.350 . S
C315 C314 1.434 . S
C316 C317 1.369 . S
C316 C318 1.419 . S
C316 H320 0.930 . S
C317 C316 1.369 . S
C317 C326 1.429 . S
C318 C316 1.419 . S
C318 C319 1.363 . S
C318 H321 0.929 . S
C319 C318 1.363 . S
C319 C325 1.428 . S
H320 C316 0.930 . S
H321 C318 0.929 . S
S322 N323 1.613 . S
S322 N324 1.610 . S
N323 S322 1.613 . S
N323 C326 1.350 . S
N324 S322 1.610 . S
N324 C325 1.351 . S
C325 C319 1.428 . S
C325 N324 1.351 . S
C325 C326 1.434 . S
C326 C317 1.429 . S
C326 N323 1.350 . S
C326 C325 1.434 . S
C327 C328 1.369 . S
C327 C329 1.419 . S
C327 H331 0.930 . S
C328 C327 1.369 . S
C328 C337 1.429 . S
C329 C327 1.419 . S
C329 C330 1.363 . S
C329 H332 0.929 . S
C330 C329 1.363 . S
C330 C336 1.428 . S
H331 C327 0.930 . S
H332 C329 0.929 . S
S333 N334 1.613 . S
S333 N335 1.610 . S
N334 S333 1.613 . S
N334 C337 1.350 . S
N335 S333 1.610 . S
N335 C336 1.351 . S
C336 C330 1.428 . S
C336 N335 1.351 . S
C336 C337 1.434 . S
C337 C328 1.429 . S
C337 N334 1.350 . S
C337 C336 1.434 . S
C338 C339 1.369 . S
C338 C340 1.419 . S
C338 H342 0.930 . S
C339 C338 1.369 . S
C339 C348 1.429 . S
C340 C338 1.419 . S
C340 C341 1.363 . S
C340 H343 0.929 . S
C341 C340 1.363 . S
C341 C347 1.428 . S
H342 C338 0.930 . S
H343 C340 0.929 . S
S344 N345 1.613 . S
S344 N346 1.610 . S
N345 S344 1.613 . S
N345 C348 1.350 . S
N346 S344 1.610 . S
N346 C347 1.351 . S
C347 C341 1.428 . S
C347 N346 1.351 . S
C347 C348 1.434 . S
C348 C339 1.429 . S
C348 N345 1.350 . S
C348 C347 1.434 . S
C349 C350 1.369 . S
C349 C351 1.419 . S
C349 H353 0.930 . S
C350 C349 1.369 . S
C350 C359 1.429 . S
C351 C349 1.419 . S
C351 C352 1.363 . S
C351 H354 0.929 . S
C352 C351 1.363 . S
C352 C358 1.428 . S
H353 C349 0.930 . S
H354 C351 0.929 . S
S355 N356 1.613 . S
S355 N357 1.610 . S
N356 S355 1.613 . S
N356 C359 1.350 . S
N357 S355 1.610 . S
N357 C358 1.351 . S
C358 C352 1.428 . S
C358 N357 1.351 . S
C358 C359 1.434 . S
C359 C350 1.429 . S
C359 N356 1.350 . S
C359 C358 1.434 . S
C360 C361 1.369 1_556 S
C360 C362 1.419 . S
C360 H364 0.930 . S
C361 C360 1.369 1_554 S
C361 C370 1.429 . S
C362 C360 1.419 . S
C362 C363 1.363 . S
C362 H365 0.929 . S
C363 C362 1.363 . S
C363 C369 1.428 1_556 S
H364 C360 0.930 . S
H365 C362 0.929 . S
S366 N367 1.613 . S
S366 N368 1.610 . S
N367 S366 1.613 . S
N367 C370 1.350 . S
N368 S366 1.610 . S
N368 C369 1.351 . S
C369 C363 1.428 1_554 S
C369 N368 1.351 . S
C369 C370 1.434 . S
C370 C361 1.429 . S
C370 N367 1.350 . S
C370 C369 1.434 . S
C371 C372 1.369 1_556 S
C371 C373 1.419 . S
C371 H375 0.930 . S
C372 C371 1.369 1_554 S
C372 C381 1.429 . S
C373 C371 1.419 . S
C373 C374 1.363 . S
C373 H376 0.929 . S
C374 C373 1.363 . S
C374 C380 1.428 1_556 S
H375 C371 0.930 . S
H376 C373 0.929 . S
S377 N378 1.613 . S
S377 N379 1.610 . S
N378 S377 1.613 . S
N378 C381 1.350 . S
N379 S377 1.610 . S
N379 C380 1.351 . S
C380 C374 1.428 1_554 S
C380 N379 1.351 . S
C380 C381 1.434 . S
C381 C372 1.429 . S
C381 N378 1.350 . S
C381 C380 1.434 . S
C382 C383 1.369 . S
C382 C384 1.419 1_554 S
C382 H386 0.930 . S
C383 C382 1.369 . S
C383 C392 1.429 . S
C384 C382 1.419 1_556 S
C384 C385 1.363 . S
C384 H387 0.929 . S
C385 C384 1.363 . S
C385 C391 1.428 . S
H386 C382 0.930 . S
H387 C384 0.929 . S
S388 N389 1.613 1_556 S
S388 N390 1.610 . S
N389 S388 1.613 1_554 S
N389 C392 1.350 . S
N390 S388 1.610 . S
N390 C391 1.351 . S
C391 C385 1.428 . S
C391 N390 1.351 . S
C391 C392 1.434 1_556 S
C392 C383 1.429 . S
C392 N389 1.350 . S
C392 C391 1.434 1_554 S
C393 C394 1.369 1_556 S
C393 C395 1.419 . S
C393 H397 0.930 . S
C394 C393 1.369 1_554 S
C394 C403 1.429 . S
C395 C393 1.419 . S
C395 C396 1.363 . S
C395 H398 0.929 . S
C396 C395 1.363 . S
C396 C402 1.428 1_556 S
H397 C393 0.930 . S
H398 C395 0.929 . S
S399 N400 1.613 . S
S399 N401 1.610 . S
N400 S399 1.613 . S
N400 C403 1.350 . S
N401 S399 1.610 . S
N401 C402 1.351 . S
C402 C396 1.428 1_554 S
C402 N401 1.351 . S
C402 C403 1.434 . S
C403 C394 1.429 . S
C403 N400 1.350 . S
C403 C402 1.434 . S
C404 C405 1.369 . S
C404 C406 1.419 . S
C404 H408 0.930 . S
C405 C404 1.369 . S
C405 C414 1.429 . S
C406 C404 1.419 . S
C406 C407 1.363 . S
C406 H409 0.929 . S
C407 C406 1.363 . S
C407 C413 1.428 . S
H408 C404 0.930 . S
H409 C406 0.929 . S
S410 N411 1.613 . S
S410 N412 1.610 . S
N411 S410 1.613 . S
N411 C414 1.350 . S
N412 S410 1.610 . S
N412 C413 1.351 . S
C413 C407 1.428 . S
C413 N412 1.351 . S
C413 C414 1.434 . S
C414 C405 1.429 . S
C414 N411 1.350 . S
C414 C413 1.434 . S
C415 C416 1.369 . S
C415 C417 1.419 . S
C415 H419 0.930 . S
C416 C415 1.369 . S
C416 C425 1.429 . S
C417 C415 1.419 . S
C417 C418 1.363 . S
C417 H420 0.929 . S
C418 C417 1.363 . S
C418 C424 1.428 . S
H419 C415 0.930 . S
H420 C417 0.929 . S
S421 N422 1.613 . S
S421 N423 1.610 . S
N422 S421 1.613 . S
N422 C425 1.350 . S
N423 S421 1.610 . S
N423 C424 1.351 . S
C424 C418 1.428 . S
C424 N423 1.351 . S
C424 C425 1.434 . S
C425 C416 1.429 . S
C425 N422 1.350 . S
C425 C424 1.434 . S
C426 C427 1.369 . S
C426 C428 1.419 . S
C426 H430 0.930 . S
C427 C426 1.369 . S
C427 C436 1.429 . S
C428 C426 1.419 . S
C428 C429 1.363 . S
C428 H431 0.929 . S
C429 C428 1.363 . S
C429 C435 1.428 . S
H430 C426 0.930 . S
H431 C428 0.929 . S
S432 N433 1.613 . S
S432 N434 1.610 . S
N433 S432 1.613 . S
N433 C436 1.350 . S
N434 S432 1.610 . S
N434 C435 1.351 . S
C435 C429 1.428 . S
C435 N434 1.351 . S
C435 C436 1.434 . S
C436 C427 1.429 . S
C436 N433 1.350 . S
C436 C435 1.434 . S
C437 C438 1.369 . S
C437 C439 1.419 . S
C437 H441 0.930 . S
C438 C437 1.369 . S
C438 C447 1.429 . S
C439 C437 1.419 . S
C439 C440 1.363 . S
C439 H442 0.929 . S
C440 C439 1.363 . S
C440 C446 1.428 . S
H441 C437 0.930 . S
H442 C439 0.929 . S
S443 N444 1.613 . S
S443 N445 1.610 . S
N444 S443 1.613 . S
N444 C447 1.350 . S
N445 S443 1.610 . S
N445 C446 1.351 . S
C446 C440 1.428 . S
C446 N445 1.351 . S
C446 C447 1.434 . S
C447 C438 1.429 . S
C447 N444 1.350 . S
C447 C446 1.434 . S
C448 C449 1.369 . S
C448 C450 1.419 . S
C448 H452 0.930 . S
C449 C448 1.369 . S
C449 C458 1.429 . S
C450 C448 1.419 . S
C450 C451 1.363 . S
C450 H453 0.929 . S
C451 C450 1.363 . S
C451 C457 1.428 . S
H452 C448 0.930 . S
H453 C450 0.929 . S
S454 N455 1.613 . S
S454 N456 1.610 . S
N455 S454 1.613 . S
N455 C458 1.350 . S
N456 S454 1.610 . S
N456 C457 1.351 . S
C457 C451 1.428 . S
C457 N456 1.351 . S
C457 C458 1.434 . S
C458 C449 1.429 . S
C458 N455 1.350 . S
C458 C457 1.434 . S
C459 C460 1.369 . S
C459 C461 1.419 . S
C459 H463 0.930 . S
C460 C459 1.369 . S
C460 C469 1.429 . S
C461 C459 1.419 . S
C461 C462 1.363 . S
C461 H464 0.929 . S
C462 C461 1.363 . S
C462 C468 1.428 . S
H463 C459 0.930 . S
H464 C461 0.929 . S
S465 N466 1.613 . S
S465 N467 1.610 . S
N466 S465 1.613 . S
N466 C469 1.350 . S
N467 S465 1.610 . S
N467 C468 1.351 . S
C468 C462 1.428 . S
C468 N467 1.351 . S
C468 C469 1.434 . S
C469 C460 1.429 . S
C469 N466 1.350 . S
C469 C468 1.434 . S
C470 C471 1.369 . S
C470 C472 1.419 . S
C470 H474 0.930 . S
C471 C470 1.369 . S
C471 C480 1.429 . S
C472 C470 1.419 . S
C472 C473 1.363 . S
C472 H475 0.929 . S
C473 C472 1.363 . S
C473 C479 1.428 . S
H474 C470 0.930 . S
H475 C472 0.929 . S
S476 N477 1.613 . S
S476 N478 1.610 . S
N477 S476 1.613 . S
N477 C480 1.350 . S
N478 S476 1.610 . S
N478 C479 1.351 . S
C479 C473 1.428 . S
C479 N478 1.351 . S
C479 C480 1.434 . S
C480 C471 1.429 . S
C480 N477 1.350 . S
C480 C479 1.434 . S
C481 C482 1.369 . S
C481 C483 1.419 . S
C481 H485 0.930 . S
C482 C481 1.369 . S
C482 C491 1.429 . S
C483 C481 1.419 . S
C483 C484 1.363 . S
C483 H486 0.929 . S
C484 C483 1.363 . S
C484 C490 1.428 . S
H485 C481 0.930 . S
H486 C483 0.929 . S
S487 N488 1.613 . S
S487 N489 1.610 . S
N488 S487 1.613 . S
N488 C491 1.350 . S
N489 S487 1.610 . S
N489 C490 1.351 . S
C490 C484 1.428 . S
C490 N489 1.351 . S
C490 C491 1.434 . S
C491 C482 1.429 . S
C491 N488 1.350 . S
C491 C490 1.434 . S
C273 C101 1.400 . S
C275 C33 1.392 1_545 S
C284 C67 1.401 . S
C286 C135 1.399 1_455 S
C295 C169 1.392 . S
C297 C237 1.399 . S
C306 C271 1.398 . S
C308 C203 1.392 . S
C317 C122 1.553 . S
C319 C20 1.554 . S
C328 C9 1.914 . S
C330 C43 1.916 . S
C339 C88 1.554 . S
C341 C54 1.553 . S
C350 C77 1.914 . S
C352 C111 1.916 . S
C361 C258 1.553 . S
C363 C156 1.554 . S
C372 C145 1.916 . S
C374 C179 1.914 . S
C383 C190 1.554 . S
C385 C224 1.553 . S
C394 C213 1.917 . S
C396 C247 1.915 . S
C405 C5 0.775 . S
C407 C175 0.752 . S
C416 C36 1.539 . S
C418 C206 1.543 . S
C427 C73 0.775 . S
C429 C243 0.754 . S
C438 C104 1.543 . S
C440 C138 1.546 . S
C449 C70 1.547 . S
C451 C172 1.545 . S
C460 C107 0.763 . S
C462 C209 0.757 . S
C471 C2 1.547 . S
C473 C240 1.543 . S
C482 C39 0.771 . S
C484 C141 0.757 . S
