# Generated by pormake.
# Topology whq, (6)-cn, num edge types: 1
# Building blocks:
#     Node 0, Type 0, BuildingBlock: OJICUG_clean_sbu_0, # of connection points: 6
#     Node 1, Type 0, BuildingBlock: OJICUG_clean_sbu_0, # of connection points: 6
#     Node 2, Type 0, BuildingBlock: OJICUG_clean_sbu_0, # of connection points: 6
#     Node 3, Type 0, BuildingBlock: OJICUG_clean_sbu_0, # of connection points: 6
#     Node 4, Type 0, BuildingBlock: OJICUG_clean_sbu_0, # of connection points: 6
#     Node 5, Type 0, BuildingBlock: OJICUG_clean_sbu_0, # of connection points: 6
#     Node 6, Type 0, BuildingBlock: OJICUG_clean_sbu_0, # of connection points: 6
#     Node 7, Type 0, BuildingBlock: OJICUG_clean_sbu_0, # of connection points: 6
#     Node 8, Type 0, BuildingBlock: OJICUG_clean_sbu_0, # of connection points: 6
#     Node 9, Type 0, BuildingBlock: OJICUG_clean_sbu_0, # of connection points: 6
#     Node 10, Type 0, BuildingBlock: OJICUG_clean_sbu_0, # of connection points: 6
#     Node 11, Type 0, BuildingBlock: OJICUG_clean_sbu_0, # of connection points: 6
#     Node 12, Type 0, BuildingBlock: OJICUG_clean_sbu_0, # of connection points: 6
#     Node 13, Type 0, BuildingBlock: OJICUG_clean_sbu_0, # of connection points: 6
#     Node 14, Type 0, BuildingBlock: OJICUG_clean_sbu_0, # of connection points: 6
#     Node 15, Type 0, BuildingBlock: OJICUG_clean_sbu_0, # of connection points: 6
#     Node 16, Type 0, BuildingBlock: OJICUG_clean_sbu_0, # of connection points: 6
#     Node 17, Type 0, BuildingBlock: OJICUG_clean_sbu_0, # of connection points: 6
#     Node 18, Type 0, BuildingBlock: OJICUG_clean_sbu_0, # of connection points: 6
#     Node 19, Type 0, BuildingBlock: OJICUG_clean_sbu_0, # of connection points: 6
#     Node 20, Type 0, BuildingBlock: OJICUG_clean_sbu_0, # of connection points: 6
#     Node 21, Type 0, BuildingBlock: OJICUG_clean_sbu_0, # of connection points: 6
#     Node 22, Type 0, BuildingBlock: OJICUG_clean_sbu_0, # of connection points: 6
#     Node 23, Type 0, BuildingBlock: OJICUG_clean_sbu_0, # of connection points: 6
#     Node 24, Type 0, BuildingBlock: OJICUG_clean_sbu_0, # of connection points: 6
#     Node 25, Type 0, BuildingBlock: OJICUG_clean_sbu_0, # of connection points: 6
#     Node 26, Type 0, BuildingBlock: OJICUG_clean_sbu_0, # of connection points: 6
#     Node 27, Type 0, BuildingBlock: OJICUG_clean_sbu_0, # of connection points: 6
#     Node 28, Type 0, BuildingBlock: OJICUG_clean_sbu_0, # of connection points: 6
#     Node 29, Type 0, BuildingBlock: OJICUG_clean_sbu_0, # of connection points: 6
#     Node 30, Type 0, BuildingBlock: OJICUG_clean_sbu_0, # of connection points: 6
#     Node 31, Type 0, BuildingBlock: OJICUG_clean_sbu_0, # of connection points: 6
#     Edge 32, Type (0, 0), BuildingBlock: KIFKEQ_clean_linker_1, # of connection points: 2
#     Edge 33, Type (0, 0), BuildingBlock: KIFKEQ_clean_linker_1, # of connection points: 2
#     Edge 34, Type (0, 0), BuildingBlock: KIFKEQ_clean_linker_1, # of connection points: 2
#     Edge 35, Type (0, 0), BuildingBlock: KIFKEQ_clean_linker_1, # of connection points: 2
#     Edge 36, Type (0, 0), BuildingBlock: KIFKEQ_clean_linker_1, # of connection points: 2
#     Edge 37, Type (0, 0), BuildingBlock: KIFKEQ_clean_linker_1, # of connection points: 2
#     Edge 38, Type (0, 0), BuildingBlock: KIFKEQ_clean_linker_1, # of connection points: 2
#     Edge 39, Type (0, 0), BuildingBlock: KIFKEQ_clean_linker_1, # of connection points: 2
#     Edge 40, Type (0, 0), BuildingBlock: KIFKEQ_clean_linker_1, # of connection points: 2
#     Edge 41, Type (0, 0), BuildingBlock: KIFKEQ_clean_linker_1, # of connection points: 2
#     Edge 42, Type (0, 0), BuildingBlock: KIFKEQ_clean_linker_1, # of connection points: 2
#     Edge 43, Type (0, 0), BuildingBlock: KIFKEQ_clean_linker_1, # of connection points: 2
#     Edge 44, Type (0, 0), BuildingBlock: KIFKEQ_clean_linker_1, # of connection points: 2
#     Edge 45, Type (0, 0), BuildingBlock: KIFKEQ_clean_linker_1, # of connection points: 2
#     Edge 46, Type (0, 0), BuildingBlock: KIFKEQ_clean_linker_1, # of connection points: 2
#     Edge 47, Type (0, 0), BuildingBlock: KIFKEQ_clean_linker_1, # of connection points: 2
#     Edge 48, Type (0, 0), BuildingBlock: KIFKEQ_clean_linker_1, # of connection points: 2
#     Edge 49, Type (0, 0), BuildingBlock: KIFKEQ_clean_linker_1, # of connection points: 2
#     Edge 50, Type (0, 0), BuildingBlock: KIFKEQ_clean_linker_1, # of connection points: 2
#     Edge 51, Type (0, 0), BuildingBlock: KIFKEQ_clean_linker_1, # of connection points: 2
#     Edge 52, Type (0, 0), BuildingBlock: KIFKEQ_clean_linker_1, # of connection points: 2
#     Edge 53, Type (0, 0), BuildingBlock: KIFKEQ_clean_linker_1, # of connection points: 2
#     Edge 54, Type (0, 0), BuildingBlock: KIFKEQ_clean_linker_1, # of connection points: 2
#     Edge 55, Type (0, 0), BuildingBlock: KIFKEQ_clean_linker_1, # of connection points: 2
#     Edge 56, Type (0, 0), BuildingBlock: KIFKEQ_clean_linker_1, # of connection points: 2
#     Edge 57, Type (0, 0), BuildingBlock: KIFKEQ_clean_linker_1, # of connection points: 2
#     Edge 58, Type (0, 0), BuildingBlock: KIFKEQ_clean_linker_1, # of connection points: 2
#     Edge 59, Type (0, 0), BuildingBlock: KIFKEQ_clean_linker_1, # of connection points: 2
#     Edge 60, Type (0, 0), BuildingBlock: KIFKEQ_clean_linker_1, # of connection points: 2
#     Edge 61, Type (0, 0), BuildingBlock: KIFKEQ_clean_linker_1, # of connection points: 2
#     Edge 62, Type (0, 0), BuildingBlock: KIFKEQ_clean_linker_1, # of connection points: 2
#     Edge 63, Type (0, 0), BuildingBlock: KIFKEQ_clean_linker_1, # of connection points: 2
#     Edge 64, Type (0, 0), BuildingBlock: KIFKEQ_clean_linker_1, # of connection points: 2
#     Edge 65, Type (0, 0), BuildingBlock: KIFKEQ_clean_linker_1, # of connection points: 2
#     Edge 66, Type (0, 0), BuildingBlock: KIFKEQ_clean_linker_1, # of connection points: 2
#     Edge 67, Type (0, 0), BuildingBlock: KIFKEQ_clean_linker_1, # of connection points: 2
#     Edge 68, Type (0, 0), BuildingBlock: KIFKEQ_clean_linker_1, # of connection points: 2
#     Edge 69, Type (0, 0), BuildingBlock: KIFKEQ_clean_linker_1, # of connection points: 2
#     Edge 70, Type (0, 0), BuildingBlock: KIFKEQ_clean_linker_1, # of connection points: 2
#     Edge 71, Type (0, 0), BuildingBlock: KIFKEQ_clean_linker_1, # of connection points: 2
#     Edge 72, Type (0, 0), BuildingBlock: KIFKEQ_clean_linker_1, # of connection points: 2
#     Edge 73, Type (0, 0), BuildingBlock: KIFKEQ_clean_linker_1, # of connection points: 2
#     Edge 74, Type (0, 0), BuildingBlock: KIFKEQ_clean_linker_1, # of connection points: 2
#     Edge 75, Type (0, 0), BuildingBlock: KIFKEQ_clean_linker_1, # of connection points: 2
#     Edge 76, Type (0, 0), BuildingBlock: KIFKEQ_clean_linker_1, # of connection points: 2
#     Edge 77, Type (0, 0), BuildingBlock: KIFKEQ_clean_linker_1, # of connection points: 2
#     Edge 78, Type (0, 0), BuildingBlock: KIFKEQ_clean_linker_1, # of connection points: 2
#     Edge 79, Type (0, 0), BuildingBlock: KIFKEQ_clean_linker_1, # of connection points: 2
#     Edge 80, Type (0, 0), BuildingBlock: KIFKEQ_clean_linker_1, # of connection points: 2
#     Edge 81, Type (0, 0), BuildingBlock: KIFKEQ_clean_linker_1, # of connection points: 2
#     Edge 82, Type (0, 0), BuildingBlock: KIFKEQ_clean_linker_1, # of connection points: 2
#     Edge 83, Type (0, 0), BuildingBlock: KIFKEQ_clean_linker_1, # of connection points: 2
#     Edge 84, Type (0, 0), BuildingBlock: KIFKEQ_clean_linker_1, # of connection points: 2
#     Edge 85, Type (0, 0), BuildingBlock: KIFKEQ_clean_linker_1, # of connection points: 2
#     Edge 86, Type (0, 0), BuildingBlock: KIFKEQ_clean_linker_1, # of connection points: 2
#     Edge 87, Type (0, 0), BuildingBlock: KIFKEQ_clean_linker_1, # of connection points: 2
#     Edge 88, Type (0, 0), BuildingBlock: KIFKEQ_clean_linker_1, # of connection points: 2
#     Edge 89, Type (0, 0), BuildingBlock: KIFKEQ_clean_linker_1, # of connection points: 2
#     Edge 90, Type (0, 0), BuildingBlock: KIFKEQ_clean_linker_1, # of connection points: 2
#     Edge 91, Type (0, 0), BuildingBlock: KIFKEQ_clean_linker_1, # of connection points: 2
#     Edge 92, Type (0, 0), BuildingBlock: KIFKEQ_clean_linker_1, # of connection points: 2
#     Edge 93, Type (0, 0), BuildingBlock: KIFKEQ_clean_linker_1, # of connection points: 2
#     Edge 94, Type (0, 0), BuildingBlock: KIFKEQ_clean_linker_1, # of connection points: 2
#     Edge 95, Type (0, 0), BuildingBlock: KIFKEQ_clean_linker_1, # of connection points: 2
#     Edge 96, Type (0, 0), BuildingBlock: KIFKEQ_clean_linker_1, # of connection points: 2
#     Edge 97, Type (0, 0), BuildingBlock: KIFKEQ_clean_linker_1, # of connection points: 2
#     Edge 98, Type (0, 0), BuildingBlock: KIFKEQ_clean_linker_1, # of connection points: 2
#     Edge 99, Type (0, 0), BuildingBlock: KIFKEQ_clean_linker_1, # of connection points: 2
#     Edge 100, Type (0, 0), BuildingBlock: KIFKEQ_clean_linker_1, # of connection points: 2
#     Edge 101, Type (0, 0), BuildingBlock: KIFKEQ_clean_linker_1, # of connection points: 2
#     Edge 102, Type (0, 0), BuildingBlock: KIFKEQ_clean_linker_1, # of connection points: 2
#     Edge 103, Type (0, 0), BuildingBlock: KIFKEQ_clean_linker_1, # of connection points: 2
#     Edge 104, Type (0, 0), BuildingBlock: KIFKEQ_clean_linker_1, # of connection points: 2
#     Edge 105, Type (0, 0), BuildingBlock: KIFKEQ_clean_linker_1, # of connection points: 2
#     Edge 106, Type (0, 0), BuildingBlock: KIFKEQ_clean_linker_1, # of connection points: 2
#     Edge 107, Type (0, 0), BuildingBlock: KIFKEQ_clean_linker_1, # of connection points: 2
#     Edge 108, Type (0, 0), BuildingBlock: KIFKEQ_clean_linker_1, # of connection points: 2
#     Edge 109, Type (0, 0), BuildingBlock: KIFKEQ_clean_linker_1, # of connection points: 2
#     Edge 110, Type (0, 0), BuildingBlock: KIFKEQ_clean_linker_1, # of connection points: 2
#     Edge 111, Type (0, 0), BuildingBlock: KIFKEQ_clean_linker_1, # of connection points: 2
#     Edge 112, Type (0, 0), BuildingBlock: KIFKEQ_clean_linker_1, # of connection points: 2
#     Edge 113, Type (0, 0), BuildingBlock: KIFKEQ_clean_linker_1, # of connection points: 2
#     Edge 114, Type (0, 0), BuildingBlock: KIFKEQ_clean_linker_1, # of connection points: 2
#     Edge 115, Type (0, 0), BuildingBlock: KIFKEQ_clean_linker_1, # of connection points: 2
#     Edge 116, Type (0, 0), BuildingBlock: KIFKEQ_clean_linker_1, # of connection points: 2
#     Edge 117, Type (0, 0), BuildingBlock: KIFKEQ_clean_linker_1, # of connection points: 2
#     Edge 118, Type (0, 0), BuildingBlock: KIFKEQ_clean_linker_1, # of connection points: 2
#     Edge 119, Type (0, 0), BuildingBlock: KIFKEQ_clean_linker_1, # of connection points: 2
#     Edge 120, Type (0, 0), BuildingBlock: KIFKEQ_clean_linker_1, # of connection points: 2
#     Edge 121, Type (0, 0), BuildingBlock: KIFKEQ_clean_linker_1, # of connection points: 2
#     Edge 122, Type (0, 0), BuildingBlock: KIFKEQ_clean_linker_1, # of connection points: 2
#     Edge 123, Type (0, 0), BuildingBlock: KIFKEQ_clean_linker_1, # of connection points: 2
#     Edge 124, Type (0, 0), BuildingBlock: KIFKEQ_clean_linker_1, # of connection points: 2
#     Edge 125, Type (0, 0), BuildingBlock: KIFKEQ_clean_linker_1, # of connection points: 2
#     Edge 126, Type (0, 0), BuildingBlock: KIFKEQ_clean_linker_1, # of connection points: 2
#     Edge 127, Type (0, 0), BuildingBlock: KIFKEQ_clean_linker_1, # of connection points: 2
# Relax obj value: 0.346
# Max RMSD: 0.215
# Mean RMSD: 0.215
data_MOF--net-whq--node1-OJICUG_clean_sbu_0--edge1-KIFKEQ_clean_linker_1
_symmetry_space_group_name_H-M    P1
_symmetry_Int_Tables_number       1
_symmetry_cell_setting            triclinic
loop_
_symmetry_equiv_pos_as_xyz
'x, y, z'
_cell_length_a     52.947069
_cell_length_b     52.90294
_cell_length_c     59.246857
_cell_angle_alpha  90.012812
_cell_angle_beta   90.006929
_cell_angle_gamma 90.002957
loop_
_atom_site_label
_atom_site_type_symbol
_atom_site_fract_x
_atom_site_fract_y
_atom_site_fract_z
_atom_type_partial_charge
Sc0 Sc 0.10537 0.20272 0.12363 0.0
Sc1 Sc 0.04345 0.22804 0.12253 0.0
Sc2 Sc 0.05894 0.17786 0.1589 0.0
O3 O 0.0692 0.20284 0.13491 0.0
C4 C 0.09501 0.14417 0.12745 0.0
C5 C 0.07358 0.21321 0.07848 0.0
C6 C 0.01065 0.1776 0.12737 0.0
C7 C 0.09326 0.26113 0.12762 0.0
C8 C 0.11344 0.19228 0.17623 0.0
C9 C 0.03067 0.22837 0.17459 0.0
O10 O 0.10536 0.16266 0.11732 0.0
O11 O 0.05306 0.21899 0.0883 0.0
O12 O 0.02609 0.16656 0.14046 0.0
O13 O 0.10814 0.24244 0.12957 0.0
O14 O 0.09052 0.18672 0.17987 0.0
O15 O 0.03131 0.23962 0.15567 0.0
O16 O 0.12204 0.19681 0.15662 0.0
O17 O 0.06989 0.25913 0.12309 0.0
O18 O 0.03864 0.20598 0.17754 0.0
O19 O 0.09394 0.2085 0.08908 0.0
O20 O 0.07893 0.14708 0.14319 0.0
O21 O 0.01373 0.20017 0.12051 0.0
Sc22 Sc 0.80606 0.0632 0.16285 0.0
Sc23 Sc 0.75898 0.04611 0.12374 0.0
Sc24 Sc 0.78201 0.10892 0.126 0.0
O25 O 0.78237 0.07272 0.13747 0.0
C26 C 0.78954 0.11806 0.17897 0.0
C27 C 0.75523 0.03422 0.17607 0.0
C28 C 0.72389 0.09487 0.12671 0.0
C29 C 0.80923 0.01406 0.13191 0.0
C30 C 0.84066 0.099 0.1322 0.0
C31 C 0.77607 0.07661 0.08037 0.0
O32 O 0.79669 0.09561 0.18274 0.0
O33 O 0.74608 0.03316 0.15626 0.0
O34 O 0.74183 0.11057 0.12914 0.0
O35 O 0.81826 0.02923 0.14642 0.0
O36 O 0.82235 0.10993 0.1223 0.0
O37 O 0.76957 0.05621 0.09005 0.0
O38 O 0.83758 0.08236 0.14748 0.0
O39 O 0.78792 0.01746 0.12254 0.0
O40 O 0.77976 0.09716 0.09105 0.0
O41 O 0.77663 0.04384 0.18057 0.0
O42 O 0.78449 0.12611 0.15925 0.0
O43 O 0.72706 0.07144 0.12301 0.0
Sc44 Sc 0.88167 0.78498 0.12182 0.0
Sc45 Sc 0.94466 0.76199 0.12005 0.0
Sc46 Sc 0.9281 0.81193 0.15637 0.0
O47 O 0.91814 0.78632 0.13266 0.0
C48 C 0.89042 0.84434 0.12589 0.0
C49 C 0.91352 0.77748 0.07631 0.0
C50 C 0.97661 0.8129 0.12482 0.0
C51 C 0.8963 0.72677 0.12398 0.0
C52 C 0.87416 0.79438 0.17452 0.0
C53 C 0.95726 0.76204 0.17229 0.0
O54 O 0.87885 0.82534 0.11779 0.0
O55 O 0.9338 0.7705 0.08598 0.0
O56 O 0.96142 0.82331 0.13853 0.0
O57 O 0.88054 0.74477 0.12513 0.0
O58 O 0.89615 0.80344 0.17717 0.0
O59 O 0.95779 0.75126 0.15313 0.0
O60 O 0.86573 0.78731 0.15544 0.0
O61 O 0.91984 0.72981 0.12122 0.0
O62 O 0.94803 0.78393 0.17547 0.0
O63 O 0.89325 0.78247 0.08697 0.0
O64 O 0.90856 0.84238 0.13983 0.0
O65 O 0.9734 0.79066 0.11725 0.0
Sc66 Sc 0.20553 0.88149 0.12518 0.0
Sc67 Sc 0.22959 0.94382 0.12287 0.0
Sc68 Sc 0.18081 0.92798 0.16061 0.0
O69 O 0.20528 0.9178 0.13615 0.0
C70 C 0.14689 0.89145 0.12994 0.0
C71 C 0.2134 0.9132 0.07956 0.0
C72 C 0.17918 0.97631 0.12902 0.0
C73 C 0.26367 0.89452 0.127 0.0
C74 C 0.19672 0.87368 0.17813 0.0
C75 C 0.23176 0.95654 0.17472 0.0
O76 O 0.16533 0.88093 0.11989 0.0
O77 O 0.21894 0.93396 0.08914 0.0
O78 O 0.16864 0.96073 0.14231 0.0
O79 O 0.24545 0.8793 0.13003 0.0
O80 O 0.19033 0.89645 0.18165 0.0
O81 O 0.24249 0.95592 0.15558 0.0
O82 O 0.20129 0.86514 0.15849 0.0
O83 O 0.26088 0.91772 0.12213 0.0
O84 O 0.20951 0.94851 0.17834 0.0
O85 O 0.20989 0.8927 0.09034 0.0
O86 O 0.14982 0.90778 0.14549 0.0
O87 O 0.20158 0.97345 0.12174 0.0
Sc88 Sc 0.07491 0.81063 0.3253 0.0
Sc89 Sc 0.05666 0.76249 0.36268 0.0
Sc90 Sc 0.11943 0.7861 0.36334 0.0
O91 O 0.0837 0.78634 0.35049 0.0
C92 C 0.13075 0.79424 0.31113 0.0
C93 C 0.04713 0.76033 0.30963 0.0
C94 C 0.10543 0.72751 0.36226 0.0
C95 C 0.02447 0.8124 0.3548 0.0
C96 C 0.10879 0.84508 0.35726 0.0
C97 C 0.08565 0.7793 0.40749 0.0
O98 O 0.10903 0.80331 0.30727 0.0
O99 O 0.0439 0.75159 0.32941 0.0
O100 O 0.12123 0.74559 0.36292 0.0
O101 O 0.03928 0.82101 0.33982 0.0
O102 O 0.12094 0.82665 0.36574 0.0
O103 O 0.06639 0.77065 0.39723 0.0
O104 O 0.09139 0.84223 0.34269 0.0
O105 O 0.02848 0.79172 0.36508 0.0
O106 O 0.10588 0.78559 0.39744 0.0
O107 O 0.05818 0.78116 0.30568 0.0
O108 O 0.13776 0.78688 0.33058 0.0
O109 O 0.08166 0.73055 0.36168 0.0
Sc110 Sc 0.19527 0.11504 0.3651 0.0
Sc111 Sc 0.22388 0.05469 0.36677 0.0
Sc112 Sc 0.16982 0.065 0.3339 0.0
O113 O 0.19632 0.07829 0.35533 0.0
C114 C 0.13682 0.10305 0.36382 0.0
C115 C 0.20872 0.08532 0.41064 0.0
C116 C 0.1747 0.01924 0.36729 0.0
C117 C 0.25428 0.10582 0.35967 0.0
C118 C 0.18294 0.11835 0.31234 0.0
C119 C 0.21983 0.03692 0.3166 0.0
O120 O 0.15546 0.11501 0.372 0.0
O121 O 0.21675 0.06544 0.40097 0.0
O122 O 0.16103 0.034 0.35563 0.0
O123 O 0.23477 0.11972 0.35899 0.0
O124 O 0.17674 0.0952 0.31047 0.0
O125 O 0.2336 0.04225 0.33343 0.0
O126 O 0.18878 0.12854 0.33112 0.0
O127 O 0.25343 0.08229 0.36363 0.0
O128 O 0.19648 0.04231 0.31548 0.0
O129 O 0.20132 0.10487 0.39997 0.0
O130 O 0.13933 0.08541 0.34947 0.0
O131 O 0.19799 0.0234 0.37116 0.0
Sc132 Sc 0.91427 0.17719 0.32853 0.0
Sc133 Sc 0.93074 0.22656 0.36514 0.0
Sc134 Sc 0.86872 0.20119 0.36572 0.0
O135 O 0.90454 0.20169 0.35319 0.0
C136 C 0.85828 0.19288 0.31353 0.0
C137 C 0.94108 0.22757 0.31217 0.0
C138 C 0.88157 0.26028 0.3645 0.0
C139 C 0.96432 0.1775 0.35879 0.0
C140 C 0.88027 0.14231 0.3595 0.0
C141 C 0.90159 0.20936 0.41002 0.0
O142 O 0.87976 0.18286 0.31039 0.0
O143 O 0.94452 0.23633 0.33191 0.0
O144 O 0.86646 0.24176 0.36663 0.0
O145 O 0.95029 0.16865 0.34331 0.0
O146 O 0.86684 0.16052 0.3667 0.0
O147 O 0.91979 0.21998 0.39968 0.0
O148 O 0.8991 0.14539 0.3465 0.0
O149 O 0.95925 0.19787 0.36921 0.0
O150 O 0.8823 0.20049 0.39996 0.0
O151 O 0.92982 0.20682 0.30834 0.0
O152 O 0.8512 0.20155 0.33256 0.0
O153 O 0.90528 0.25788 0.36237 0.0
Sc154 Sc 0.81477 0.91721 0.32616 0.0
Sc155 Sc 0.7646 0.93144 0.36295 0.0
Sc156 Sc 0.79276 0.87056 0.36326 0.0
O157 O 0.79075 0.90642 0.3509 0.0
C158 C 0.80193 0.86091 0.31081 0.0
C159 C 0.76299 0.94223 0.31022 0.0
C160 C 0.73339 0.88025 0.36009 0.0
C161 C 0.81271 0.96688 0.35666 0.0
C162 C 0.85094 0.88437 0.35775 0.0
C163 C 0.78197 0.90313 0.40775 0.0
O164 O 0.80915 0.88337 0.30713 0.0
O165 O 0.75341 0.94383 0.32981 0.0
O166 O 0.7527 0.86602 0.36076 0.0
O167 O 0.82291 0.95265 0.34201 0.0
O168 O 0.83317 0.87152 0.36648 0.0
O169 O 0.77236 0.92177 0.39734 0.0
O170 O 0.8472 0.90166 0.34321 0.0
O171 O 0.79174 0.96168 0.36603 0.0
O172 O 0.79018 0.88349 0.39776 0.0
O173 O 0.78481 0.93318 0.30652 0.0
O174 O 0.79571 0.85298 0.33028 0.0
O175 O 0.73455 0.9042 0.36117 0.0
Sc176 Sc 0.88151 0.7859 0.86119 0.0
Sc177 Sc 0.94317 0.75958 0.86239 0.0
Sc178 Sc 0.92765 0.80779 0.82379 0.0
O179 O 0.91748 0.78445 0.84923 0.0
C180 C 0.87204 0.79345 0.80843 0.0
C181 C 0.89284 0.72688 0.85939 0.0
C182 C 0.95489 0.7563 0.80994 0.0
C183 C 0.91362 0.77713 0.90634 0.0
C184 C 0.89359 0.84415 0.85443 0.0
C185 C 0.97684 0.80892 0.85491 0.0
O186 O 0.86408 0.78876 0.82822 0.0
O187 O 0.91661 0.72868 0.86186 0.0
O188 O 0.94546 0.77781 0.80561 0.0
O189 O 0.89368 0.7835 0.89584 0.0
O190 O 0.91006 0.84021 0.83918 0.0
O191 O 0.97259 0.78782 0.86449 0.0
O192 O 0.88208 0.82638 0.86458 0.0
O193 O 0.93317 0.76874 0.89646 0.0
O194 O 0.96221 0.81827 0.84012 0.0
O195 O 0.87799 0.7457 0.8584 0.0
O196 O 0.89465 0.7998 0.80433 0.0
O197 O 0.9562 0.74717 0.82972 0.0
Sc198 Sc 0.20575 0.88184 0.86402 0.0
Sc199 Sc 0.22876 0.9449 0.86585 0.0
Sc200 Sc 0.17769 0.92875 0.83067 0.0
O201 O 0.20406 0.91849 0.85361 0.0
C202 C 0.19484 0.87496 0.81157 0.0
C203 C 0.26393 0.89683 0.86063 0.0
C204 C 0.22688 0.95819 0.81372 0.0
C205 C 0.21474 0.91298 0.90965 0.0
C206 C 0.14624 0.8905 0.86128 0.0
C207 C 0.17778 0.97683 0.86298 0.0
O208 O 0.2031 0.86641 0.83022 0.0
O209 O 0.26086 0.92043 0.86285 0.0
O210 O 0.20513 0.94856 0.81083 0.0
O211 O 0.20836 0.89313 0.89892 0.0
O212 O 0.14773 0.90931 0.84799 0.0
O213 O 0.20002 0.97326 0.87035 0.0
O214 O 0.16551 0.87855 0.86834 0.0
O215 O 0.2223 0.93307 0.89999 0.0
O216 O 0.16721 0.96214 0.84892 0.0
O217 O 0.24602 0.88089 0.8605 0.0
O218 O 0.18516 0.89678 0.80956 0.0
O219 O 0.23792 0.95892 0.83274 0.0
Sc220 Sc 0.11339 0.20672 0.86509 0.0
Sc221 Sc 0.05147 0.23207 0.8631 0.0
Sc222 Sc 0.06985 0.18337 0.82603 0.0
O223 O 0.07819 0.20738 0.85149 0.0
C224 C 0.12573 0.19857 0.8129 0.0
C225 C 0.10131 0.26539 0.86179 0.0
C226 C 0.04218 0.23408 0.8103 0.0
C227 C 0.07852 0.21584 0.90855 0.0
C228 C 0.10293 0.14834 0.85882 0.0
C229 C 0.01948 0.18172 0.85526 0.0
O230 O 0.13263 0.20261 0.83311 0.0
O231 O 0.07756 0.26319 0.86394 0.0
O232 O 0.05136 0.21225 0.80687 0.0
O233 O 0.09929 0.21031 0.899 0.0
O234 O 0.08803 0.15184 0.84227 0.0
O235 O 0.02232 0.20368 0.8636 0.0
O236 O 0.11294 0.16641 0.86977 0.0
O237 O 0.05914 0.22314 0.89774 0.0
O238 O 0.03532 0.17168 0.84188 0.0
O239 O 0.11654 0.24684 0.86111 0.0
O240 O 0.10334 0.19266 0.8075 0.0
O241 O 0.04073 0.2441 0.82972 0.0
Sc242 Sc 0.81424 0.06555 0.82751 0.0
Sc243 Sc 0.76583 0.04835 0.8651 0.0
Sc244 Sc 0.79202 0.11013 0.86657 0.0
O245 O 0.79068 0.07469 0.85313 0.0
C246 C 0.85047 0.09932 0.85794 0.0
C247 C 0.81538 0.01537 0.85742 0.0
C248 C 0.78428 0.07606 0.91034 0.0
C249 C 0.76332 0.03836 0.81224 0.0
C250 C 0.79791 0.12161 0.81395 0.0
C251 C 0.73284 0.0982 0.86606 0.0
O252 O 0.84664 0.08214 0.84338 0.0
O253 O 0.79428 0.01928 0.86706 0.0
O254 O 0.79248 0.0958 0.90053 0.0
O255 O 0.78453 0.04861 0.80836 0.0
O256 O 0.7919 0.12865 0.8338 0.0
O257 O 0.7348 0.0744 0.86417 0.0
O258 O 0.80625 0.09967 0.80952 0.0
O259 O 0.75427 0.03586 0.83196 0.0
O260 O 0.75159 0.11311 0.8675 0.0
O261 O 0.82468 0.03028 0.84281 0.0
O262 O 0.83264 0.11115 0.86766 0.0
O263 O 0.77393 0.05784 0.89978 0.0
Sc264 Sc 0.92146 0.17992 0.66111 0.0
Sc265 Sc 0.93632 0.22884 0.62319 0.0
Sc266 Sc 0.87408 0.20452 0.62629 0.0
O267 O 0.91063 0.20439 0.63679 0.0
C268 C 0.88469 0.14571 0.63095 0.0
C269 C 0.96954 0.17897 0.62912 0.0
C270 C 0.90502 0.2123 0.58016 0.0
C271 C 0.9498 0.23101 0.67515 0.0
C272 C 0.86719 0.1954 0.67931 0.0
C273 C 0.88723 0.26292 0.62783 0.0
O274 O 0.90182 0.14872 0.64578 0.0
O275 O 0.96578 0.20097 0.62127 0.0
O276 O 0.88481 0.20817 0.59119 0.0
O277 O 0.94146 0.2089 0.67902 0.0
O278 O 0.85827 0.20071 0.65995 0.0
O279 O 0.91049 0.26016 0.62338 0.0
O280 O 0.8899 0.18856 0.68227 0.0
O281 O 0.94934 0.2413 0.65578 0.0
O282 O 0.87191 0.2447 0.63056 0.0
O283 O 0.95461 0.16842 0.64298 0.0
O284 O 0.87333 0.16411 0.62155 0.0
O285 O 0.92567 0.21863 0.58951 0.0
Sc286 Sc 0.81312 0.92404 0.65803 0.0
Sc287 Sc 0.76221 0.93771 0.62182 0.0
Sc288 Sc 0.78934 0.87644 0.62307 0.0
O289 O 0.78825 0.91277 0.63421 0.0
C290 C 0.84774 0.88896 0.62673 0.0
C291 C 0.81119 0.97259 0.62648 0.0
C292 C 0.77854 0.90768 0.57778 0.0
C293 C 0.7618 0.95046 0.67404 0.0
C294 C 0.79982 0.86892 0.67567 0.0
C295 C 0.73045 0.88683 0.62672 0.0
O296 O 0.84454 0.90582 0.64176 0.0
O297 O 0.78902 0.9683 0.61918 0.0
O298 O 0.78451 0.88772 0.58845 0.0
O299 O 0.78424 0.94268 0.67705 0.0
O300 O 0.79428 0.86025 0.65629 0.0
O301 O 0.73193 0.91046 0.62313 0.0
O302 O 0.80622 0.89174 0.6789 0.0
O303 O 0.75075 0.95006 0.655 0.0
O304 O 0.74958 0.87242 0.62787 0.0
O305 O 0.82265 0.95782 0.63991 0.0
O306 O 0.82951 0.87712 0.61761 0.0
O307 O 0.77112 0.92779 0.58751 0.0
Sc308 Sc 0.06788 0.81779 0.65814 0.0
Sc309 Sc 0.05573 0.76648 0.62183 0.0
Sc310 Sc 0.11572 0.79645 0.62213 0.0
O311 O 0.07976 0.79359 0.63394 0.0
C312 C 0.10119 0.85441 0.62733 0.0
C313 C 0.01953 0.81441 0.62635 0.0
C314 C 0.08411 0.78454 0.57732 0.0
C315 C 0.04349 0.76548 0.67413 0.0
C316 C 0.12376 0.80587 0.67487 0.0
C317 C 0.10777 0.73683 0.62543 0.0
O318 O 0.08408 0.85037 0.64192 0.0
O319 O 0.02458 0.79258 0.61859 0.0
O320 O 0.10347 0.79304 0.58753 0.0
O321 O 0.05101 0.78797 0.67741 0.0
O322 O 0.1323 0.80035 0.65541 0.0
O323 O 0.08386 0.73724 0.62376 0.0
O324 O 0.10095 0.81214 0.67831 0.0
O325 O 0.04355 0.75496 0.65488 0.0
O326 O 0.12137 0.7566 0.62514 0.0
O327 O 0.03355 0.82585 0.64043 0.0
O328 O 0.11397 0.83677 0.61832 0.0
O329 O 0.06546 0.77464 0.5875 0.0
Sc330 Sc 0.20189 0.12048 0.62405 0.0
Sc331 Sc 0.22637 0.05812 0.62473 0.0
Sc332 Sc 0.18058 0.07666 0.66426 0.0
O333 O 0.20298 0.08514 0.63764 0.0
C334 C 0.19687 0.13311 0.67629 0.0
C335 C 0.26073 0.10712 0.62352 0.0
C336 C 0.2315 0.04894 0.67767 0.0
C337 C 0.20767 0.08643 0.5802 0.0
C338 C 0.14361 0.10932 0.63355 0.0
C339 C 0.17704 0.02613 0.63473 0.0
O340 O 0.20251 0.13958 0.65629 0.0
O341 O 0.25804 0.08333 0.62488 0.0
O342 O 0.2113 0.06057 0.68259 0.0
O343 O 0.20088 0.10646 0.59026 0.0
O344 O 0.14778 0.09259 0.64849 0.0
O345 O 0.19686 0.03033 0.62326 0.0
O346 O 0.16118 0.12123 0.62347 0.0
O347 O 0.2173 0.06761 0.59035 0.0
O348 O 0.16964 0.04061 0.65051 0.0
O349 O 0.24243 0.12271 0.62281 0.0
O350 O 0.18865 0.11136 0.68143 0.0
O351 O 0.23867 0.04507 0.6575 0.0
Sc352 Sc 0.61156 0.7071 0.62151 0.0
Sc353 Sc 0.54828 0.72931 0.6204 0.0
Sc354 Sc 0.5656 0.67909 0.65598 0.0
O355 O 0.57516 0.70515 0.63256 0.0
C356 C 0.60291 0.64773 0.62421 0.0
C357 C 0.57905 0.71491 0.57636 0.0
C358 C 0.51651 0.67824 0.62509 0.0
C359 C 0.59634 0.76502 0.62459 0.0
C360 C 0.61973 0.69641 0.67389 0.0
C361 C 0.53656 0.72871 0.67271 0.0
O362 O 0.61443 0.66694 0.61648 0.0
O363 O 0.55868 0.72106 0.58628 0.0
O364 O 0.532 0.66771 0.63844 0.0
O365 O 0.61236 0.74724 0.62582 0.0
O366 O 0.59775 0.68742 0.6766 0.0
O367 O 0.53575 0.73965 0.65364 0.0
O368 O 0.62807 0.70382 0.6549 0.0
O369 O 0.5729 0.76165 0.62149 0.0
O370 O 0.5458 0.70677 0.67566 0.0
O371 O 0.59962 0.71051 0.58677 0.0
O372 O 0.58504 0.64921 0.6385 0.0
O373 O 0.51955 0.70057 0.61773 0.0
Sc374 Sc 0.31079 0.56438 0.65739 0.0
Sc375 Sc 0.26082 0.549 0.6206 0.0
Sc376 Sc 0.28739 0.61067 0.62076 0.0
O377 O 0.28637 0.57465 0.63279 0.0
C378 C 0.2964 0.61997 0.67332 0.0
C379 C 0.26008 0.53712 0.67319 0.0
C380 C 0.22839 0.59916 0.6244 0.0
C381 C 0.31022 0.51521 0.62612 0.0
C382 C 0.346 0.5988 0.62609 0.0
C383 C 0.27681 0.57865 0.57598 0.0
O384 O 0.30373 0.59754 0.67701 0.0
O385 O 0.25017 0.53563 0.65371 0.0
O386 O 0.24723 0.61402 0.62403 0.0
O387 O 0.32023 0.52966 0.64074 0.0
O388 O 0.32786 0.61066 0.61681 0.0
O389 O 0.26806 0.55942 0.58617 0.0
O390 O 0.3426 0.58176 0.64093 0.0
O391 O 0.28887 0.51971 0.61714 0.0
O392 O 0.2844 0.59834 0.58624 0.0
O393 O 0.28165 0.54677 0.67673 0.0
O394 O 0.29051 0.62794 0.65378 0.0
O395 O 0.23 0.5753 0.62283 0.0
Sc396 Sc 0.37884 0.28447 0.62236 0.0
Sc397 Sc 0.44169 0.26301 0.61934 0.0
Sc398 Sc 0.42615 0.31441 0.65353 0.0
O399 O 0.4155 0.28733 0.63168 0.0
C400 C 0.38541 0.34354 0.6232 0.0
C401 C 0.40933 0.27513 0.57622 0.0
C402 C 0.47208 0.31537 0.62044 0.0
C403 C 0.39428 0.22724 0.6266 0.0
C404 C 0.37451 0.29676 0.67516 0.0
C405 C 0.45889 0.26669 0.66949 0.0
O406 O 0.37559 0.32398 0.61439 0.0
O407 O 0.43066 0.27166 0.58556 0.0
O408 O 0.45559 0.32728 0.63175 0.0
O409 O 0.37867 0.24501 0.63004 0.0
O410 O 0.39735 0.30381 0.67723 0.0
O411 O 0.45428 0.25274 0.65255 0.0
O412 O 0.3647 0.29106 0.6562 0.0
O413 O 0.41682 0.23078 0.62009 0.0
O414 O 0.45183 0.28961 0.67096 0.0
O415 O 0.38884 0.2777 0.58731 0.0
O416 O 0.40237 0.34258 0.63835 0.0
O417 O 0.47063 0.29175 0.61662 0.0
Sc418 Sc 0.69936 0.38023 0.61994 0.0
Sc419 Sc 0.72677 0.44146 0.62002 0.0
Sc420 Sc 0.67641 0.42655 0.65663 0.0
O421 O 0.70083 0.41614 0.6321 0.0
C422 C 0.64113 0.39326 0.62446 0.0
C423 C 0.71078 0.41207 0.57529 0.0
C424 C 0.67759 0.47569 0.62532 0.0
C425 C 0.7584 0.39067 0.62469 0.0
C426 C 0.6899 0.37071 0.67241 0.0
C427 C 0.72711 0.45364 0.6726 0.0
O428 O 0.6592 0.38114 0.61544 0.0
O429 O 0.71993 0.4311 0.58548 0.0
O430 O 0.66764 0.46138 0.64006 0.0
O431 O 0.73919 0.37634 0.62371 0.0
O432 O 0.6829 0.39323 0.6762 0.0
O433 O 0.737 0.45509 0.65312 0.0
O434 O 0.69566 0.3628 0.65283 0.0
O435 O 0.75731 0.4146 0.62292 0.0
O436 O 0.70563 0.44381 0.6762 0.0
O437 O 0.70281 0.39257 0.58554 0.0
O438 O 0.64446 0.40985 0.63973 0.0
O439 O 0.69884 0.471 0.61617 0.0
Sc440 Sc 0.5712 0.31062 0.82583 0.0
Sc441 Sc 0.55596 0.26072 0.86245 0.0
Sc442 Sc 0.61827 0.28531 0.86051 0.0
O443 O 0.58182 0.28557 0.84967 0.0
C444 C 0.62553 0.29486 0.80779 0.0
C445 C 0.54376 0.25949 0.81042 0.0
C446 C 0.60543 0.22687 0.85874 0.0
C447 C 0.52265 0.31064 0.85699 0.0
C448 C 0.60778 0.34425 0.85652 0.0
C449 C 0.58615 0.27757 0.90597 0.0
O450 O 0.60305 0.30246 0.80494 0.0
O451 O 0.54404 0.24846 0.82945 0.0
O452 O 0.62064 0.2452 0.85634 0.0
O453 O 0.53799 0.32165 0.84385 0.0
O454 O 0.61956 0.32568 0.86517 0.0
O455 O 0.56581 0.27092 0.89624 0.0
O456 O 0.59027 0.34161 0.84201 0.0
O457 O 0.52601 0.28825 0.8641 0.0
O458 O 0.60666 0.28184 0.89539 0.0
O459 O 0.5517 0.28188 0.80724 0.0
O460 O 0.63436 0.28889 0.82702 0.0
O461 O 0.58206 0.22955 0.86278 0.0
Sc462 Sc 0.69779 0.61606 0.86396 0.0
Sc463 Sc 0.72472 0.55504 0.86223 0.0
Sc464 Sc 0.67445 0.57088 0.82649 0.0
O465 O 0.69906 0.58067 0.85096 0.0
C466 C 0.63912 0.60222 0.8584 0.0
C467 C 0.70689 0.58275 0.9076 0.0
C468 C 0.67769 0.51951 0.85499 0.0
C469 C 0.75716 0.60496 0.86233 0.0
C470 C 0.68651 0.62831 0.81317 0.0
C471 C 0.72521 0.54677 0.80878 0.0
O472 O 0.65702 0.61672 0.86457 0.0
O473 O 0.71876 0.56541 0.89713 0.0
O474 O 0.66901 0.53324 0.83922 0.0
O475 O 0.73825 0.61936 0.8654 0.0
O476 O 0.67578 0.60712 0.81032 0.0
O477 O 0.73352 0.542 0.8285 0.0
O478 O 0.69829 0.63415 0.83112 0.0
O479 O 0.75536 0.58133 0.85908 0.0
O480 O 0.70478 0.55874 0.80517 0.0
O481 O 0.69688 0.60158 0.89772 0.0
O482 O 0.64256 0.58285 0.84607 0.0
O483 O 0.69687 0.52577 0.86658 0.0
Sc484 Sc 0.42127 0.67953 0.82552 0.0
Sc485 Sc 0.43521 0.73005 0.86204 0.0
Sc486 Sc 0.37367 0.70347 0.86043 0.0
O487 O 0.41006 0.70434 0.84941 0.0
C488 C 0.3663 0.69345 0.80778 0.0
C489 C 0.44798 0.73081 0.80992 0.0
C490 C 0.38481 0.76237 0.85714 0.0
C491 C 0.46941 0.6807 0.85754 0.0
C492 C 0.3862 0.64497 0.85664 0.0
C493 C 0.405 0.71342 0.90581 0.0
O494 O 0.38895 0.68642 0.80476 0.0
O495 O 0.44808 0.74143 0.82914 0.0
O496 O 0.37015 0.7434 0.85624 0.0
O497 O 0.45493 0.66982 0.84352 0.0
O498 O 0.37379 0.66317 0.8652 0.0
O499 O 0.42488 0.72123 0.89607 0.0
O500 O 0.40346 0.64808 0.84201 0.0
O501 O 0.4653 0.70278 0.86515 0.0
O502 O 0.385 0.70739 0.8952 0.0
O503 O 0.43971 0.7086 0.80655 0.0
O504 O 0.35758 0.69937 0.82705 0.0
O505 O 0.40844 0.76064 0.86043 0.0
Sc506 Sc 0.31531 0.42063 0.82423 0.0
Sc507 Sc 0.26771 0.43751 0.8627 0.0
Sc508 Sc 0.29312 0.37545 0.86281 0.0
O509 O 0.292 0.41116 0.84996 0.0
C510 C 0.29969 0.36444 0.81036 0.0
C511 C 0.26399 0.44743 0.8098 0.0
C512 C 0.23419 0.38787 0.86317 0.0
C513 C 0.31668 0.4708 0.85418 0.0
C514 C 0.35156 0.38709 0.85483 0.0
C515 C 0.28647 0.40893 0.90712 0.0
O516 O 0.30797 0.38643 0.80618 0.0
O517 O 0.25557 0.45016 0.82974 0.0
O518 O 0.25271 0.37259 0.86354 0.0
O519 O 0.32542 0.45629 0.839 0.0
O520 O 0.33369 0.37481 0.86405 0.0
O521 O 0.27685 0.42786 0.89707 0.0
O522 O 0.34785 0.40447 0.84039 0.0
O523 O 0.29622 0.46631 0.86461 0.0
O524 O 0.29336 0.38899 0.89689 0.0
O525 O 0.28503 0.43704 0.80543 0.0
O526 O 0.2933 0.35724 0.83002 0.0
O527 O 0.2365 0.41171 0.86229 0.0
Sc528 Sc 0.37911 0.28247 0.36052 0.0
Sc529 Sc 0.44153 0.25795 0.36235 0.0
Sc530 Sc 0.42607 0.30861 0.32629 0.0
O531 O 0.41561 0.28303 0.34984 0.0
C532 C 0.37195 0.29269 0.30783 0.0
C533 C 0.39249 0.22403 0.35646 0.0
C534 C 0.45518 0.25882 0.31029 0.0
C535 C 0.40987 0.27224 0.40616 0.0
C536 C 0.38924 0.34153 0.35733 0.0
C537 C 0.47394 0.3087 0.3588 0.0
O538 O 0.36325 0.28631 0.32699 0.0
O539 O 0.41606 0.22634 0.35973 0.0
O540 O 0.44591 0.28067 0.30715 0.0
O541 O 0.39011 0.27853 0.39533 0.0
O542 O 0.40666 0.33919 0.34271 0.0
O543 O 0.47041 0.28646 0.3663 0.0
O544 O 0.37774 0.32271 0.36585 0.0
O545 O 0.43009 0.26502 0.39655 0.0
O546 O 0.45923 0.31923 0.34474 0.0
O547 O 0.37715 0.24245 0.35587 0.0
O548 O 0.39433 0.30065 0.3051 0.0
O549 O 0.45551 0.24791 0.32938 0.0
Sc550 Sc 0.70179 0.38045 0.35986 0.0
Sc551 Sc 0.72546 0.44292 0.36148 0.0
Sc552 Sc 0.67651 0.42648 0.32413 0.0
O553 O 0.70119 0.41666 0.34858 0.0
C554 C 0.6929 0.3721 0.30703 0.0
C555 C 0.75989 0.39382 0.35775 0.0
C556 C 0.72721 0.45513 0.30937 0.0
C557 C 0.70974 0.41278 0.40522 0.0
C558 C 0.643 0.38988 0.35518 0.0
C559 C 0.67496 0.4753 0.35514 0.0
O560 O 0.69773 0.36371 0.32667 0.0
O561 O 0.75697 0.41711 0.36221 0.0
O562 O 0.70497 0.44694 0.3059 0.0
O563 O 0.70602 0.39218 0.39462 0.0
O564 O 0.6457 0.4063 0.33965 0.0
O565 O 0.69731 0.47237 0.3625 0.0
O566 O 0.6616 0.37951 0.36512 0.0
O567 O 0.7153 0.43339 0.39541 0.0
O568 O 0.66432 0.45959 0.34203 0.0
O569 O 0.74174 0.37843 0.35508 0.0
O570 O 0.6861 0.39473 0.30344 0.0
O571 O 0.73786 0.45474 0.32857 0.0
Sc572 Sc 0.60587 0.70442 0.36097 0.0
Sc573 Sc 0.54392 0.73016 0.36295 0.0
Sc574 Sc 0.55891 0.68069 0.32539 0.0
O575 O 0.56953 0.70507 0.34988 0.0
C576 C 0.61352 0.69632 0.308 0.0
C577 C 0.59357 0.76331 0.3585 0.0
C578 C 0.53048 0.73142 0.31091 0.0
C579 C 0.57487 0.71368 0.40656 0.0
C580 C 0.59497 0.64573 0.35535 0.0
C581 C 0.51096 0.68002 0.35789 0.0
O582 O 0.62202 0.70173 0.32748 0.0
O583 O 0.56987 0.76138 0.36111 0.0
O584 O 0.53966 0.70968 0.30707 0.0
O585 O 0.59452 0.70703 0.39576 0.0
O586 O 0.57775 0.64906 0.34071 0.0
O587 O 0.51477 0.70189 0.36613 0.0
O588 O 0.60654 0.66393 0.36482 0.0
O589 O 0.55506 0.72197 0.39698 0.0
O590 O 0.52547 0.6699 0.3434 0.0
O591 O 0.60859 0.74462 0.3578 0.0
O592 O 0.59101 0.68899 0.30471 0.0
O593 O 0.53004 0.74151 0.33033 0.0
Sc594 Sc 0.3103 0.55713 0.32737 0.0
Sc595 Sc 0.2597 0.54404 0.36313 0.0
Sc596 Sc 0.28414 0.60555 0.35947 0.0
O597 O 0.28472 0.56895 0.35005 0.0
C598 C 0.34249 0.59703 0.35623 0.0
C599 C 0.31075 0.51156 0.36069 0.0
C600 C 0.27462 0.5757 0.40586 0.0
C601 C 0.26084 0.52587 0.31342 0.0
C602 C 0.29454 0.6092 0.30617 0.0
C603 C 0.22621 0.5933 0.35655 0.0
O604 O 0.33989 0.58099 0.34041 0.0
O605 O 0.2872 0.51373 0.36463 0.0
O606 O 0.27736 0.59608 0.39462 0.0
O607 O 0.28412 0.53143 0.31157 0.0
O608 O 0.29106 0.61925 0.32548 0.0
O609 O 0.22885 0.57072 0.36343 0.0
O610 O 0.29915 0.58576 0.30365 0.0
O611 O 0.24743 0.53212 0.33026 0.0
O612 O 0.24464 0.60786 0.35227 0.0
O613 O 0.32317 0.52789 0.34956 0.0
O614 O 0.32384 0.60617 0.36697 0.0
O615 O 0.27034 0.55442 0.39666 0.0
Sc616 Sc 0.41728 0.67458 0.15594 0.0
Sc617 Sc 0.4329 0.72559 0.12068 0.0
Sc618 Sc 0.37129 0.6991 0.11941 0.0
O619 O 0.40713 0.69981 0.13196 0.0
C620 C 0.38329 0.64024 0.12427 0.0
C621 C 0.46732 0.67667 0.12603 0.0
C622 C 0.40468 0.7086 0.0755 0.0
C623 C 0.44282 0.72549 0.17352 0.0
C624 C 0.36118 0.68894 0.17142 0.0
C625 C 0.38283 0.75831 0.12152 0.0
O626 O 0.40168 0.64307 0.13781 0.0
O627 O 0.46271 0.69813 0.11735 0.0
O628 O 0.38502 0.70023 0.08531 0.0
O629 O 0.43333 0.7037 0.17656 0.0
O630 O 0.3537 0.6974 0.15245 0.0
O631 O 0.40663 0.75627 0.12274 0.0
O632 O 0.38309 0.6799 0.17458 0.0
O633 O 0.44502 0.73563 0.15419 0.0
O634 O 0.36794 0.73955 0.11996 0.0
O635 O 0.45277 0.66616 0.14022 0.0
O636 O 0.37023 0.6586 0.11691 0.0
O637 O 0.42311 0.71859 0.08601 0.0
Sc638 Sc 0.31043 0.4177 0.15998 0.0
Sc639 Sc 0.26204 0.43206 0.12122 0.0
Sc640 Sc 0.29193 0.37197 0.12068 0.0
O641 O 0.28815 0.40727 0.13387 0.0
C642 C 0.34929 0.38677 0.12934 0.0
C643 C 0.30948 0.46773 0.12989 0.0
C644 C 0.28254 0.40543 0.07663 0.0
C645 C 0.25752 0.44181 0.17387 0.0
C646 C 0.29813 0.36079 0.1733 0.0
C647 C 0.23213 0.38 0.12197 0.0
O648 O 0.34422 0.40289 0.14461 0.0
O649 O 0.28904 0.46256 0.11959 0.0
O650 O 0.29089 0.38587 0.08657 0.0
O651 O 0.27911 0.43274 0.17832 0.0
O652 O 0.29379 0.35334 0.15326 0.0
O653 O 0.23258 0.40402 0.12165 0.0
O654 O 0.30407 0.38338 0.17803 0.0
O655 O 0.2489 0.44401 0.15399 0.0
O656 O 0.25191 0.36639 0.12143 0.0
O657 O 0.31896 0.45347 0.14491 0.0
O658 O 0.33238 0.37434 0.11893 0.0
O659 O 0.27154 0.42335 0.08692 0.0
Sc660 Sc 0.57253 0.31362 0.15712 0.0
Sc661 Sc 0.55561 0.26444 0.12035 0.0
Sc662 Sc 0.6179 0.2893 0.11989 0.0
O663 O 0.58203 0.28908 0.13239 0.0
C664 C 0.60745 0.34828 0.12664 0.0
C665 C 0.5226 0.31411 0.12697 0.0
C666 C 0.5846 0.28225 0.07567 0.0
C667 C 0.54528 0.26308 0.17317 0.0
C668 C 0.62805 0.29661 0.17222 0.0
C669 C 0.60467 0.23033 0.12027 0.0
O670 O 0.58883 0.34533 0.13989 0.0
O671 O 0.52682 0.29302 0.11744 0.0
O672 O 0.60425 0.29019 0.08577 0.0
O673 O 0.55574 0.28427 0.17689 0.0
O674 O 0.63531 0.28867 0.15301 0.0
O675 O 0.58095 0.23292 0.12198 0.0
O676 O 0.60656 0.30656 0.17555 0.0
O677 O 0.54264 0.25381 0.15353 0.0
O678 O 0.61998 0.24876 0.11887 0.0
O679 O 0.53722 0.32351 0.14173 0.0
O680 O 0.62028 0.32993 0.11892 0.0
O681 O 0.56605 0.27206 0.08587 0.0
Sc682 Sc 0.69904 0.61852 0.12204 0.0
Sc683 Sc 0.72668 0.55745 0.12199 0.0
Sc684 Sc 0.67808 0.57256 0.16016 0.0
O685 O 0.70123 0.58281 0.13463 0.0
C686 C 0.69107 0.62881 0.17468 0.0
C687 C 0.75824 0.60867 0.12426 0.0
C688 C 0.73016 0.54685 0.1746 0.0
C689 C 0.7085 0.58544 0.07751 0.0
C690 C 0.64114 0.60519 0.12879 0.0
C691 C 0.6783 0.52267 0.13002 0.0
O692 O 0.69541 0.63659 0.15476 0.0
O693 O 0.75683 0.5848 0.12205 0.0
O694 O 0.70832 0.5556 0.1787 0.0
O695 O 0.70221 0.6057 0.08759 0.0
O696 O 0.64543 0.58923 0.14441 0.0
O697 O 0.69938 0.52722 0.12058 0.0
O698 O 0.65864 0.61684 0.1184 0.0
O699 O 0.71691 0.56616 0.08779 0.0
O700 O 0.66834 0.53745 0.14437 0.0
O701 O 0.73905 0.62308 0.12501 0.0
O702 O 0.68542 0.60608 0.1791 0.0
O703 O 0.73948 0.54566 0.15489 0.0
H704 H 0.1771 0.16971 0.30998 0.0
H705 H 0.18543 0.10302 0.2685 0.0
H706 H 0.16746 0.19464 0.27629 0.0
H707 H 0.17588 0.12788 0.23503 0.0
H708 H 0.16274 0.17699 0.17616 0.0
H709 H 0.18748 0.16437 0.20924 0.0
H710 H 0.1277 0.19081 0.25285 0.0
H711 H 0.10307 0.2032 0.21999 0.0
C712 C 0.1775 0.16051 0.29365 0.0
C713 C 0.18157 0.13432 0.29191 0.0
C714 C 0.17197 0.17478 0.2744 0.0
C715 C 0.17082 0.16317 0.25309 0.0
C716 C 0.17687 0.13741 0.25119 0.0
C717 C 0.18206 0.1231 0.27041 0.0
C718 C 0.15532 0.18086 0.19285 0.0
C719 C 0.13088 0.19071 0.19558 0.0
C720 C 0.16941 0.17354 0.21173 0.0
C721 C 0.1594 0.1764 0.23357 0.0
C722 C 0.13599 0.18852 0.23626 0.0
C723 C 0.1218 0.19545 0.21744 0.0
H724 H 0.86989 0.20214 0.2699 0.0
H725 H 0.80772 0.18185 0.31334 0.0
H726 H 0.84506 0.19071 0.23692 0.0
H727 H 0.7826 0.17021 0.2801 0.0
H728 H 0.79827 0.16919 0.17891 0.0
H729 H 0.80765 0.19554 0.21189 0.0
H730 H 0.79048 0.13262 0.25572 0.0
H731 H 0.78113 0.10652 0.22301 0.0
C732 C 0.85054 0.196 0.2723 0.0
C733 C 0.84078 0.19262 0.29413 0.0
C734 C 0.83622 0.18959 0.25338 0.0
C735 C 0.81192 0.1793 0.25588 0.0
C736 C 0.80135 0.17793 0.27767 0.0
C737 C 0.81563 0.18473 0.29667 0.0
C738 C 0.79574 0.16129 0.19563 0.0
C739 C 0.78938 0.13569 0.19839 0.0
C740 C 0.8012 0.17633 0.21449 0.0
C741 C 0.80005 0.1661 0.23641 0.0
C742 C 0.79139 0.14118 0.23913 0.0
C743 C 0.78625 0.12612 0.22034 0.0
H744 H 0.82273 0.79995 0.17615 0.0
H745 H 0.88831 0.7879 0.21813 0.0
H746 H 0.79735 0.80827 0.20995 0.0
H747 H 0.86315 0.79611 0.25165 0.0
H748 H 0.79063 0.87164 0.26732 0.0
H749 H 0.80168 0.84682 0.23423 0.0
H750 H 0.82682 0.78591 0.27727 0.0
H751 H 0.81556 0.81097 0.31064 0.0
C752 C 0.83151 0.79831 0.1926 0.0
C753 C 0.85756 0.79375 0.19454 0.0
C754 C 0.81702 0.80312 0.21192 0.0
C755 C 0.8283 0.80303 0.23343 0.0
C756 C 0.85382 0.79612 0.23538 0.0
C757 C 0.86832 0.79168 0.21614 0.0
C758 C 0.7978 0.85263 0.26971 0.0
C759 C 0.80262 0.84333 0.29149 0.0
C760 C 0.80393 0.83831 0.25074 0.0
C761 C 0.81535 0.8145 0.25315 0.0
C762 C 0.81819 0.80429 0.27495 0.0
C763 C 0.81166 0.81855 0.29401 0.0
H764 H 0.18034 0.80854 0.312 0.0
H765 H 0.12121 0.78264 0.26754 0.0
H766 H 0.20518 0.82201 0.2792 0.0
H767 H 0.14579 0.79588 0.23497 0.0
H768 H 0.20173 0.88595 0.22255 0.0
H769 H 0.19388 0.85892 0.25496 0.0
H770 H 0.18406 0.79484 0.21063 0.0
H771 H 0.19184 0.82206 0.17798 0.0
C772 C 0.17316 0.80476 0.29521 0.0
C773 C 0.14881 0.79483 0.29222 0.0
C774 C 0.18725 0.81263 0.27646 0.0
C775 C 0.17729 0.81031 0.25452 0.0
C776 C 0.15411 0.79782 0.25158 0.0
C777 C 0.13994 0.79032 0.27025 0.0
C778 C 0.19843 0.86598 0.21971 0.0
C779 C 0.19689 0.85624 0.19767 0.0
C780 C 0.19422 0.8504 0.23833 0.0
C781 C 0.18817 0.82476 0.23535 0.0
C782 C 0.18851 0.81458 0.21342 0.0
C783 C 0.193 0.83016 0.19474 0.0
H784 H 0.82182 0.8056 0.80939 0.0
H785 H 0.88212 0.78369 0.76438 0.0
H786 H 0.79585 0.81741 0.77685 0.0
H787 H 0.85637 0.79542 0.73208 0.0
H788 H 0.7946 0.88124 0.71997 0.0
H789 H 0.8046 0.85501 0.75241 0.0
H790 H 0.81752 0.79127 0.70833 0.0
H791 H 0.80748 0.8177 0.67562 0.0
C792 C 0.82917 0.80248 0.79255 0.0
C793 C 0.85411 0.79418 0.78937 0.0
C794 C 0.81437 0.80934 0.77396 0.0
C795 C 0.8242 0.80762 0.75195 0.0
C796 C 0.84817 0.79683 0.74878 0.0
C797 C 0.86303 0.79031 0.76731 0.0
C798 C 0.799 0.86148 0.71721 0.0
C799 C 0.80075 0.85164 0.69524 0.0
C800 C 0.80446 0.84635 0.73584 0.0
C801 C 0.81203 0.82111 0.7329 0.0
C802 C 0.81188 0.81071 0.71105 0.0
C803 C 0.80611 0.82582 0.69236 0.0
H804 H 0.17405 0.818 0.67516 0.0
H805 H 0.11228 0.79648 0.7187 0.0
H806 H 0.19959 0.82842 0.70841 0.0
H807 H 0.13766 0.80668 0.75169 0.0
H808 H 0.20127 0.88959 0.76814 0.0
H809 H 0.19116 0.86539 0.73441 0.0
H810 H 0.17674 0.79948 0.77544 0.0
H811 H 0.18712 0.82386 0.80943 0.0
C812 C 0.16624 0.81475 0.69181 0.0
C813 C 0.14108 0.80684 0.69439 0.0
C814 C 0.1808 0.82077 0.7108 0.0
C815 C 0.17056 0.81851 0.73262 0.0
C816 C 0.14619 0.80842 0.73514 0.0
C817 C 0.13155 0.80281 0.71622 0.0
C818 C 0.19666 0.86972 0.7699 0.0
C819 C 0.19462 0.85865 0.79137 0.0
C820 C 0.19107 0.85579 0.75056 0.0
C821 C 0.18297 0.83059 0.75231 0.0
C822 C 0.18283 0.81893 0.77365 0.0
C823 C 0.18885 0.83282 0.79306 0.0
H824 H 0.22631 0.13588 0.71377 0.0
H825 H 0.16445 0.17198 0.6793 0.0
H826 H 0.21715 0.16036 0.74771 0.0
H827 H 0.1535 0.19468 0.7134 0.0
H828 H 0.12921 0.22896 0.7761 0.0
H829 H 0.15523 0.2217 0.74273 0.0
H830 H 0.18838 0.15641 0.77552 0.0
H831 H 0.1641 0.16547 0.80922 0.0
C832 C 0.21111 0.1496 0.71341 0.0
C833 C 0.19611 0.15229 0.6941 0.0
C834 C 0.2055 0.16334 0.73294 0.0
C835 C 0.18403 0.1791 0.73381 0.0
C836 C 0.17033 0.1831 0.71369 0.0
C837 C 0.1765 0.17 0.694 0.0
C838 C 0.14284 0.21368 0.77624 0.0
C839 C 0.14482 0.19773 0.79502 0.0
C840 C 0.15753 0.20922 0.75704 0.0
C841 C 0.17362 0.188 0.75591 0.0
C842 C 0.17664 0.17313 0.77551 0.0
C843 C 0.16257 0.17816 0.79493 0.0
H844 H 0.78666 0.11173 0.77024 0.0
H845 H 0.80907 0.17218 0.8149 0.0
H846 H 0.7967 0.13785 0.73773 0.0
H847 H 0.8192 0.19861 0.78212 0.0
H848 H 0.81615 0.18658 0.68055 0.0
H849 H 0.7911 0.17605 0.71401 0.0
H850 H 0.8556 0.19181 0.75638 0.0
H851 H 0.8804 0.20236 0.72319 0.0
C852 C 0.793 0.13096 0.77306 0.0
C853 C 0.79743 0.13983 0.79506 0.0
C854 C 0.79858 0.14603 0.75441 0.0
C855 C 0.80903 0.17022 0.75733 0.0
C856 C 0.81138 0.17994 0.77936 0.0
C857 C 0.80544 0.1649 0.79811 0.0
C858 C 0.82468 0.18855 0.69708 0.0
C859 C 0.85035 0.19484 0.69924 0.0
C860 C 0.81038 0.18243 0.71622 0.0
C861 C 0.82143 0.18284 0.73783 0.0
C862 C 0.84641 0.19146 0.74005 0.0
C863 C 0.86073 0.19727 0.72097 0.0
H864 H 0.6091 0.71804 0.71402 0.0
H865 H 0.66642 0.67543 0.67906 0.0
H866 H 0.63042 0.71032 0.74983 0.0
H867 H 0.68719 0.66631 0.71507 0.0
H868 H 0.71991 0.65113 0.78404 0.0
H869 H 0.70855 0.67622 0.75051 0.0
H870 H 0.62989 0.67172 0.76985 0.0
H871 H 0.64138 0.64739 0.8029 0.0
C872 C 0.62666 0.70751 0.71403 0.0
C873 C 0.6361 0.69715 0.69395 0.0
C874 C 0.63879 0.7029 0.73452 0.0
C875 C 0.66016 0.6871 0.73545 0.0
C876 C 0.67085 0.67862 0.71502 0.0
C877 C 0.65895 0.68376 0.69438 0.0
C878 C 0.70037 0.65637 0.78132 0.0
C879 C 0.68146 0.64762 0.79595 0.0
C880 C 0.69381 0.67047 0.76209 0.0
C881 C 0.66829 0.67608 0.75743 0.0
C882 C 0.64975 0.66834 0.77298 0.0
C883 C 0.65627 0.65424 0.79192 0.0
H884 H 0.31548 0.68389 0.80707 0.0
H885 H 0.37899 0.70082 0.7639 0.0
H886 H 0.29016 0.6732 0.7738 0.0
H887 H 0.35387 0.69024 0.73089 0.0
H888 H 0.2876 0.60869 0.71725 0.0
H889 H 0.29742 0.63473 0.74989 0.0
H890 H 0.31619 0.69705 0.70588 0.0
H891 H 0.30624 0.67078 0.67297 0.0
C892 C 0.32375 0.6861 0.79047 0.0
C893 C 0.3493 0.6927 0.78804 0.0
C894 C 0.30931 0.67993 0.77146 0.0
C895 C 0.32011 0.68067 0.74977 0.0
C896 C 0.34492 0.68965 0.74732 0.0
C897 C 0.35941 0.69546 0.76626 0.0
C898 C 0.29316 0.62817 0.71455 0.0
C899 C 0.29662 0.63761 0.69261 0.0
C900 C 0.29854 0.64319 0.73327 0.0
C901 C 0.30779 0.66787 0.73043 0.0
C902 C 0.30924 0.67802 0.70852 0.0
C903 C 0.30349 0.66304 0.68972 0.0
H904 H 0.3896 0.29451 0.71912 0.0
H905 H 0.32292 0.30019 0.67735 0.0
H906 H 0.36418 0.30286 0.7525 0.0
H907 H 0.29742 0.3086 0.71095 0.0
H908 H 0.28664 0.37323 0.76693 0.0
H909 H 0.29926 0.34838 0.73426 0.0
H910 H 0.32834 0.29029 0.77841 0.0
H911 H 0.31539 0.3153 0.81129 0.0
C912 C 0.36941 0.29701 0.71712 0.0
C913 C 0.35835 0.29715 0.69555 0.0
C914 C 0.35479 0.30151 0.7363 0.0
C915 C 0.32882 0.30651 0.73432 0.0
C916 C 0.31742 0.30492 0.71293 0.0
C917 C 0.33203 0.30009 0.69372 0.0
C918 C 0.29485 0.35471 0.76963 0.0
C919 C 0.30026 0.34623 0.79155 0.0
C920 C 0.30199 0.3404 0.75092 0.0
C921 C 0.31505 0.31752 0.75379 0.0
C922 C 0.31844 0.30796 0.77575 0.0
C923 C 0.31088 0.32215 0.79453 0.0
H924 H 0.68147 0.31958 0.67198 0.0
H925 H 0.69818 0.38213 0.7164 0.0
H926 H 0.67331 0.29266 0.70486 0.0
H927 H 0.69012 0.35546 0.74899 0.0
H928 H 0.6124 0.28557 0.76437 0.0
H929 H 0.63621 0.297 0.73081 0.0
H930 H 0.70004 0.31739 0.77243 0.0
H931 H 0.676 0.30587 0.80624 0.0
C932 C 0.68409 0.32735 0.68874 0.0
C933 C 0.68997 0.35303 0.69168 0.0
C934 C 0.6794 0.31198 0.70752 0.0
C935 C 0.68093 0.322 0.72949 0.0
C936 C 0.68901 0.34708 0.73233 0.0
C937 C 0.69333 0.36246 0.71364 0.0
C938 C 0.6318 0.29177 0.76631 0.0
C939 C 0.64223 0.2953 0.78788 0.0
C940 C 0.64554 0.2981 0.74706 0.0
C941 C 0.66989 0.30839 0.74901 0.0
C942 C 0.6812 0.3097 0.77048 0.0
C943 C 0.66751 0.30302 0.7898 0.0
H944 H 0.31317 0.31129 0.17225 0.0
H945 H 0.28498 0.36938 0.21679 0.0
H946 H 0.32482 0.28559 0.20505 0.0
H947 H 0.29658 0.344 0.24934 0.0
H948 H 0.32036 0.2972 0.30649 0.0
H949 H 0.29448 0.30534 0.27299 0.0
H950 H 0.36035 0.29609 0.23076 0.0
H951 H 0.38596 0.2879 0.26396 0.0
C952 C 0.30863 0.31813 0.189 0.0
C953 C 0.29862 0.34246 0.19206 0.0
C954 C 0.3154 0.30351 0.20775 0.0
C955 C 0.31194 0.31292 0.22977 0.0
C956 C 0.2994 0.3361 0.23266 0.0
C957 C 0.29294 0.35077 0.21399 0.0
C958 C 0.32909 0.29621 0.28998 0.0
C959 C 0.35525 0.29245 0.28784 0.0
C960 C 0.31431 0.30091 0.27083 0.0
C961 C 0.32541 0.30157 0.24926 0.0
C962 C 0.35113 0.29552 0.24707 0.0
C963 C 0.3659 0.29113 0.26615 0.0
H964 H 0.61661 0.28553 0.21553 0.0
H965 H 0.67829 0.3085 0.17259 0.0
H966 H 0.64095 0.29715 0.24874 0.0
H967 H 0.7029 0.32036 0.20605 0.0
H968 H 0.68639 0.32067 0.30693 0.0
H969 H 0.67865 0.29389 0.27392 0.0
H970 H 0.69241 0.35775 0.2302 0.0
H971 H 0.70012 0.38432 0.26294 0.0
C972 C 0.63579 0.29223 0.21329 0.0
C973 C 0.64551 0.29642 0.19157 0.0
C974 C 0.64983 0.29876 0.23233 0.0
C975 C 0.67374 0.30996 0.23 0.0
C976 C 0.68442 0.31193 0.20831 0.0
C977 C 0.67045 0.30502 0.18919 0.0
C978 C 0.68845 0.32876 0.29024 0.0
C979 C 0.69336 0.35469 0.2875 0.0
C980 C 0.684 0.31345 0.27136 0.0
C981 C 0.68475 0.32375 0.24948 0.0
C982 C 0.6919 0.34914 0.24678 0.0
C983 C 0.69603 0.36447 0.26558 0.0
H984 H 0.6761 0.67833 0.17362 0.0
H985 H 0.70268 0.61979 0.2185 0.0
H986 H 0.66344 0.70378 0.20627 0.0
H987 H 0.69008 0.64496 0.25089 0.0
H988 H 0.60067 0.70152 0.26382 0.0
H989 H 0.6271 0.69333 0.23114 0.0
H990 H 0.69178 0.68352 0.27472 0.0
H991 H 0.66511 0.69164 0.30768 0.0
C992 C 0.68007 0.67132 0.19044 0.0
C993 C 0.68994 0.64694 0.19358 0.0
C994 C 0.67271 0.68581 0.2091 0.0
C995 C 0.67545 0.67623 0.23113 0.0
C996 C 0.68782 0.65299 0.23419 0.0
C997 C 0.69486 0.63844 0.21561 0.0
C998 C 0.62065 0.69818 0.26643 0.0
C999 C 0.63071 0.69668 0.28834 0.0
C1000 C 0.63589 0.69378 0.24765 0.0
C1001 C 0.66151 0.68756 0.25036 0.0
C1002 C 0.67204 0.68808 0.27216 0.0
C1003 C 0.65679 0.69276 0.291 0.0
H1004 H 0.29218 0.59498 0.26184 0.0
H1005 H 0.29916 0.66078 0.30466 0.0
H1006 H 0.30087 0.62098 0.22886 0.0
H1007 H 0.30783 0.6868 0.27151 0.0
H1008 H 0.31236 0.67237 0.17084 0.0
H1009 H 0.28832 0.65759 0.20371 0.0
H1010 H 0.34708 0.68541 0.24777 0.0
H1011 H 0.37097 0.69981 0.21511 0.0
C1012 C 0.29506 0.61508 0.26419 0.0
C1013 C 0.29541 0.62569 0.28595 0.0
C1014 C 0.29977 0.63005 0.24523 0.0
C1015 C 0.30516 0.65592 0.24761 0.0
C1016 C 0.30388 0.66687 0.2692 0.0
C1017 C 0.29889 0.65195 0.28817 0.0
C1018 C 0.31956 0.67617 0.18762 0.0
C1019 C 0.3435 0.68708 0.19054 0.0
C1020 C 0.30595 0.66754 0.20639 0.0
C1021 C 0.31594 0.67014 0.22829 0.0
C1022 C 0.33876 0.68329 0.23117 0.0
C1023 C 0.3525 0.69148 0.21247 0.0
H1024 H 0.22467 0.33222 0.13676 0.0
H1025 H 0.18447 0.39835 0.11318 0.0
H1026 H 0.18512 0.31008 0.14141 0.0
H1027 H 0.14426 0.37565 0.1179 0.0
H1028 H 0.09509 0.29954 0.09719 0.0
H1029 H 0.12512 0.33486 0.09842 0.0
H1030 H 0.14622 0.31365 0.16625 0.0
H1031 H 0.11698 0.27806 0.16465 0.0
C1032 C 0.20735 0.34207 0.13256 0.0
C1033 C 0.2077 0.36699 0.12448 0.0
C1034 C 0.18464 0.32947 0.13553 0.0
C1035 C 0.16167 0.34137 0.13039 0.0
C1036 C 0.1618 0.36625 0.12216 0.0
C1037 C 0.18471 0.37912 0.11945 0.0
C1038 C 0.10546 0.3032 0.11262 0.0
C1039 C 0.10425 0.28617 0.13072 0.0
C1040 C 0.12252 0.32336 0.11337 0.0
C1041 C 0.13823 0.32653 0.13227 0.0
C1042 C 0.13454 0.31129 0.15138 0.0
C1043 C 0.11787 0.29102 0.1505 0.0
H1044 H 0.59151 0.19008 0.14642 0.0
H1045 H 0.6412 0.21326 0.09246 0.0
H1046 H 0.61306 0.14893 0.14805 0.0
H1047 H 0.66194 0.17208 0.09352 0.0
H1048 H 0.68895 0.09326 0.09336 0.0
H1049 H 0.6516 0.12062 0.09062 0.0
H1050 H 0.66461 0.14681 0.15864 0.0
H1051 H 0.7023 0.12026 0.16104 0.0
C1052 C 0.60656 0.18606 0.13456 0.0
C1053 C 0.61508 0.20472 0.11954 0.0
C1054 C 0.61869 0.16261 0.13542 0.0
C1055 C 0.63881 0.15744 0.12072 0.0
C1056 C 0.64614 0.17557 0.10473 0.0
C1057 C 0.63455 0.19915 0.10432 0.0
C1058 C 0.68313 0.10414 0.10796 0.0
C1059 C 0.69828 0.105 0.12734 0.0
C1060 C 0.66187 0.11967 0.10641 0.0
C1061 C 0.6554 0.13561 0.12445 0.0
C1062 C 0.66912 0.13438 0.14467 0.0
C1063 C 0.69068 0.11939 0.14599 0.0
H1064 H 0.80378 0.59185 0.10806 0.0
H1065 H 0.76897 0.65185 0.14659 0.0
H1066 H 0.84467 0.61364 0.11081 0.0
H1067 H 0.8093 0.67322 0.1494 0.0
H1068 H 0.88123 0.70504 0.16261 0.0
H1069 H 0.85287 0.66876 0.16573 0.0
H1070 H 0.85884 0.65647 0.09383 0.0
H1071 H 0.88775 0.69248 0.09095 0.0
C1072 C 0.80497 0.60945 0.11734 0.0
C1073 C 0.78324 0.62039 0.12687 0.0
C1074 C 0.82826 0.62182 0.11893 0.0
C1075 C 0.83013 0.6449 0.13052 0.0
C1076 C 0.80853 0.6552 0.14074 0.0
C1077 C 0.78534 0.64315 0.13885 0.0
C1078 C 0.8773 0.6938 0.14772 0.0
C1079 C 0.88633 0.70128 0.12656 0.0
C1080 C 0.8611 0.67318 0.14946 0.0
C1081 C 0.8534 0.66018 0.12996 0.0
C1082 C 0.86462 0.6661 0.10912 0.0
C1083 C 0.88104 0.68667 0.10743 0.0
H1084 H 0.29947 0.89582 0.09438 0.0
H1085 H 0.28405 0.86862 0.16164 0.0
H1086 H 0.33649 0.86797 0.09226 0.0
H1087 H 0.32146 0.84161 0.15988 0.0
H1088 H 0.34533 0.77484 0.09451 0.0
H1089 H 0.32445 0.81597 0.09563 0.0
H1090 H 0.37409 0.83969 0.14942 0.0
H1091 H 0.39581 0.7986 0.1477 0.0
C1092 C 0.30476 0.88478 0.10904 0.0
C1093 C 0.2891 0.88398 0.12809 0.0
C1094 C 0.32584 0.86898 0.10785 0.0
C1095 C 0.33164 0.85288 0.12594 0.0
C1096 C 0.31744 0.85417 0.14588 0.0
C1097 C 0.29605 0.86941 0.14683 0.0
C1098 C 0.35205 0.78903 0.10627 0.0
C1099 C 0.37186 0.78368 0.1212 0.0
C1100 C 0.3404 0.81257 0.1067 0.0
C1101 C 0.34799 0.83087 0.12243 0.0
C1102 C 0.36829 0.82586 0.13696 0.0
C1103 C 0.3805 0.80246 0.13607 0.0
H1104 H 0.13848 0.7084 0.39221 0.0
H1105 H 0.09491 0.68927 0.33305 0.0
H1106 H 0.15973 0.66748 0.39038 0.0
H1107 H 0.11707 0.64845 0.33063 0.0
H1108 H 0.18808 0.58888 0.38695 0.0
H1109 H 0.15022 0.61557 0.38869 0.0
H1110 H 0.16967 0.64836 0.32429 0.0
H1111 H 0.20783 0.62245 0.32293 0.0
C1112 C 0.13321 0.69514 0.37908 0.0
C1113 C 0.11539 0.70178 0.36265 0.0
C1114 C 0.14508 0.67172 0.37817 0.0
C1115 C 0.13976 0.65492 0.36048 0.0
C1116 C 0.12112 0.66109 0.34456 0.0
C1117 C 0.10864 0.68432 0.34587 0.0
C1118 C 0.1837 0.60117 0.37285 0.0
C1119 C 0.20081 0.60403 0.35496 0.0
C1120 C 0.16212 0.61629 0.37382 0.0
C1121 C 0.1572 0.63381 0.35659 0.0
C1122 C 0.17299 0.63471 0.33761 0.0
C1123 C 0.19486 0.62013 0.33693 0.0
H1124 H 0.3725 0.20644 0.31793 0.0
H1125 H 0.38776 0.18633 0.38712 0.0
H1126 H 0.34389 0.17044 0.31446 0.0
H1127 H 0.35835 0.15077 0.38408 0.0
H1128 H 0.30131 0.08848 0.37152 0.0
H1129 H 0.34167 0.11055 0.3666 0.0
H1130 H 0.30265 0.17192 0.33341 0.0
H1131 H 0.26286 0.15012 0.3381 0.0
C1132 C 0.3703 0.19369 0.33212 0.0
C1133 C 0.38192 0.19894 0.35281 0.0
C1134 C 0.35394 0.17323 0.3302 0.0
C1135 C 0.34852 0.15823 0.34915 0.0
C1136 C 0.36227 0.16197 0.36919 0.0
C1137 C 0.37899 0.1823 0.37099 0.0
C1138 C 0.30153 0.10652 0.36289 0.0
C1139 C 0.27894 0.11777 0.35545 0.0
C1140 C 0.32456 0.11908 0.36009 0.0
C1141 C 0.3253 0.1428 0.34947 0.0
C1142 C 0.30279 0.15343 0.34126 0.0
C1143 C 0.2799 0.1411 0.34425 0.0
H1144 H 0.89271 0.29945 0.33641 0.0
H1145 H 0.84648 0.27813 0.39334 0.0
H1146 H 0.87029 0.34011 0.33413 0.0
H1147 H 0.82493 0.31888 0.39162 0.0
H1148 H 0.79674 0.3977 0.38934 0.0
H1149 H 0.8346 0.37101 0.39167 0.0
H1150 H 0.81778 0.34008 0.32594 0.0
H1151 H 0.7796 0.36593 0.32402 0.0
C1152 C 0.87827 0.30383 0.34877 0.0
C1153 C 0.87091 0.28578 0.36484 0.0
C1154 C 0.86565 0.32698 0.34754 0.0
C1155 C 0.84624 0.33251 0.36288 0.0
C1156 C 0.84017 0.31511 0.37989 0.0
C1157 C 0.85221 0.29177 0.38069 0.0
C1158 C 0.80176 0.38586 0.37511 0.0
C1159 C 0.78542 0.38348 0.35661 0.0
C1160 C 0.82332 0.37073 0.37642 0.0
C1161 C 0.82894 0.35372 0.35894 0.0
C1162 C 0.81392 0.35335 0.33945 0.0
C1163 C 0.79207 0.36791 0.33842 0.0
H1164 H 0.61344 0.78132 0.32015 0.0
H1165 H 0.59943 0.80023 0.38984 0.0
H1166 H 0.64263 0.81687 0.31701 0.0
H1167 H 0.62932 0.83549 0.38703 0.0
H1168 H 0.68675 0.89848 0.37211 0.0
H1169 H 0.64604 0.87657 0.36829 0.0
H1170 H 0.68415 0.81329 0.33719 0.0
H1171 H 0.72427 0.83479 0.34099 0.0
C1172 C 0.61602 0.79374 0.33452 0.0
C1173 C 0.6046 0.78825 0.35525 0.0
C1174 C 0.63267 0.81396 0.33277 0.0
C1175 C 0.63851 0.82852 0.3519 0.0
C1176 C 0.62502 0.82459 0.37202 0.0
C1177 C 0.60805 0.80445 0.37369 0.0
C1178 C 0.68624 0.88 0.36425 0.0
C1179 C 0.70862 0.86817 0.35706 0.0
C1180 C 0.66305 0.86756 0.36206 0.0
C1181 C 0.662 0.84345 0.3522 0.0
C1182 C 0.68433 0.8321 0.34444 0.0
C1183 C 0.70737 0.84426 0.34691 0.0
H1184 H 0.77369 0.6403 0.89165 0.0
H1185 H 0.79703 0.59531 0.83451 0.0
H1186 H 0.81403 0.66264 0.89088 0.0
H1187 H 0.83729 0.6185 0.83324 0.0
H1188 H 0.86519 0.70854 0.82496 0.0
H1189 H 0.83801 0.67117 0.82588 0.0
H1190 H 0.86597 0.65285 0.89233 0.0
H1191 H 0.89397 0.68989 0.89102 0.0
C1192 C 0.78765 0.63505 0.87912 0.0
C1193 C 0.78235 0.61639 0.863 0.0
C1194 C 0.81075 0.64756 0.87885 0.0
C1195 C 0.82865 0.64201 0.86213 0.0
C1196 C 0.82376 0.62276 0.84642 0.0
C1197 C 0.80083 0.60969 0.84709 0.0
C1198 C 0.8662 0.6959 0.83933 0.0
C1199 C 0.88142 0.70182 0.85794 0.0
C1200 C 0.85085 0.67454 0.8398 0.0
C1201 C 0.85009 0.6593 0.85915 0.0
C1202 C 0.86655 0.66431 0.87719 0.0
C1203 C 0.88244 0.68537 0.87646 0.0
H1204 H 0.34378 0.77345 0.83203 0.0
H1205 H 0.40053 0.80767 0.87463 0.0
H1206 H 0.32175 0.81346 0.82958 0.0
H1207 H 0.37816 0.84826 0.8722 0.0
H1208 H 0.29809 0.88643 0.89315 0.0
H1209 H 0.33526 0.85939 0.88877 0.0
H1210 H 0.3234 0.85804 0.81659 0.0
H1211 H 0.2859 0.88456 0.82122 0.0
C1212 C 0.3517 0.7897 0.84063 0.0
C1213 C 0.37356 0.78745 0.85383 0.0
C1214 C 0.3393 0.81273 0.83895 0.0
C1215 C 0.34835 0.83398 0.85063 0.0
C1216 C 0.37089 0.83211 0.86303 0.0
C1217 C 0.3836 0.80898 0.86443 0.0
C1218 C 0.30414 0.88106 0.87635 0.0
C1219 C 0.28939 0.88712 0.85751 0.0
C1220 C 0.32542 0.86578 0.87378 0.0
C1221 C 0.33193 0.85642 0.85235 0.0
C1222 C 0.31857 0.86484 0.83329 0.0
C1223 C 0.29723 0.87994 0.83589 0.0
H1224 H 0.09795 0.3031 0.89258 0.0
H1225 H 0.12943 0.28363 0.82769 0.0
H1226 H 0.12436 0.3413 0.89361 0.0
H1227 H 0.15495 0.32214 0.82827 0.0
H1228 H 0.19421 0.3982 0.83588 0.0
H1229 H 0.15369 0.37541 0.83505 0.0
H1230 H 0.17694 0.3318 0.89303 0.0
H1231 H 0.21755 0.35368 0.89326 0.0
C1232 C 0.10974 0.30764 0.87819 0.0
C1233 C 0.11209 0.29065 0.86016 0.0
C1234 C 0.12464 0.32939 0.87873 0.0
C1235 C 0.14138 0.33451 0.86094 0.0
C1236 C 0.14184 0.31867 0.84197 0.0
C1237 C 0.1275 0.29664 0.84172 0.0
C1238 C 0.19028 0.38409 0.84866 0.0
C1239 C 0.20881 0.37725 0.86444 0.0
C1240 C 0.16722 0.37128 0.84826 0.0
C1241 C 0.16233 0.35223 0.86414 0.0
C1242 C 0.18023 0.34677 0.88089 0.0
C1243 C 0.20347 0.35898 0.88086 0.0
H1244 H 0.63703 0.20856 0.82699 0.0
H1245 H 0.59775 0.18832 0.88822 0.0
H1246 H 0.66089 0.16907 0.82873 0.0
H1247 H 0.62247 0.14909 0.89045 0.0
H1248 H 0.71485 0.13105 0.89682 0.0
H1249 H 0.67554 0.15514 0.89456 0.0
H1250 H 0.65569 0.11576 0.83325 0.0
H1251 H 0.69475 0.09077 0.83605 0.0
C1252 C 0.63312 0.19528 0.84048 0.0
C1253 C 0.61588 0.20133 0.85758 0.0
C1254 C 0.64652 0.17268 0.84135 0.0
C1255 C 0.64329 0.15621 0.85966 0.0
C1256 C 0.62493 0.1615 0.87607 0.0
C1257 C 0.61095 0.18385 0.87484 0.0
C1258 C 0.70167 0.12705 0.88328 0.0
C1259 C 0.70763 0.10938 0.86651 0.0
C1260 C 0.67917 0.14057 0.88211 0.0
C1261 C 0.66273 0.13703 0.86383 0.0
C1262 C 0.66807 0.11844 0.84762 0.0
C1263 C 0.69031 0.10434 0.84917 0.0
H1264 H 0.80557 0.40414 0.60946 0.0
H1265 H 0.76577 0.34967 0.65051 0.0
H1266 H 0.84464 0.37945 0.61394 0.0
H1267 H 0.80397 0.3253 0.6548 0.0
H1268 H 0.87062 0.284 0.66632 0.0
H1269 H 0.84627 0.323 0.66985 0.0
H1270 H 0.85619 0.33705 0.59849 0.0
H1271 H 0.88172 0.29862 0.59542 0.0
C1272 C 0.80535 0.38721 0.61975 0.0
C1273 C 0.78272 0.37846 0.62931 0.0
C1274 C 0.82758 0.37314 0.62229 0.0
C1275 C 0.82738 0.35051 0.63477 0.0
C1276 C 0.80496 0.34284 0.64541 0.0
C1277 C 0.78292 0.35661 0.64267 0.0
C1278 C 0.86821 0.29598 0.65164 0.0
C1279 C 0.87743 0.28846 0.63056 0.0
C1280 C 0.85437 0.31822 0.65361 0.0
C1281 C 0.84888 0.33273 0.63434 0.0
C1282 C 0.86021 0.32633 0.61364 0.0
C1283 C 0.87457 0.30428 0.6118 0.0
H1284 H 0.6849 0.90216 0.60941 0.0
H1285 H 0.71985 0.84545 0.6516 0.0
H1286 H 0.64454 0.87946 0.61203 0.0
H1287 H 0.6801 0.82307 0.65419 0.0
H1288 H 0.60949 0.78704 0.66372 0.0
H1289 H 0.63604 0.82456 0.66785 0.0
H1290 H 0.63261 0.83668 0.59577 0.0
H1291 H 0.6054 0.79953 0.59191 0.0
C1292 C 0.68381 0.88516 0.61954 0.0
C1293 C 0.70549 0.87528 0.63002 0.0
C1294 C 0.66081 0.87224 0.62104 0.0
C1295 C 0.65918 0.84963 0.6334 0.0
C1296 C 0.68061 0.84068 0.64485 0.0
C1297 C 0.70351 0.8533 0.64311 0.0
C1298 C 0.61362 0.79844 0.64898 0.0
C1299 C 0.60577 0.79066 0.62752 0.0
C1300 C 0.62879 0.81978 0.65129 0.0
C1301 C 0.6367 0.8332 0.63208 0.0
C1302 C 0.62666 0.82679 0.61086 0.0
C1303 C 0.61124 0.80552 0.6086 0.0
H1304 H 0.0911 0.68962 0.61323 0.0
H1305 H 0.15342 0.72907 0.64462 0.0
H1306 H 0.11451 0.6497 0.61651 0.0
H1307 H 0.17645 0.68975 0.64779 0.0
H1308 H 0.21146 0.61943 0.66298 0.0
H1309 H 0.17553 0.64803 0.66699 0.0
H1310 H 0.15522 0.6345 0.59736 0.0
H1311 H 0.19086 0.60518 0.59372 0.0
C1312 C 0.10959 0.68969 0.62105 0.0
C1313 C 0.12061 0.71242 0.62844 0.0
C1314 C 0.1229 0.66694 0.62291 0.0
C1315 C 0.14711 0.66666 0.63259 0.0
C1316 C 0.15761 0.68929 0.64065 0.0
C1317 C 0.14456 0.7119 0.63854 0.0
C1318 C 0.19866 0.62191 0.64887 0.0
C1319 C 0.2037 0.61053 0.62804 0.0
C1320 C 0.17822 0.63822 0.65111 0.0
C1321 C 0.16296 0.64375 0.63236 0.0
C1322 C 0.16663 0.63042 0.61209 0.0
C1323 C 0.187 0.61381 0.60995 0.0
H1324 H 0.39803 0.18994 0.59545 0.0
H1325 H 0.36823 0.20732 0.66146 0.0
H1326 H 0.37155 0.15192 0.59395 0.0
H1327 H 0.34261 0.16893 0.66034 0.0
H1328 H 0.27801 0.14272 0.59489 0.0
H1329 H 0.31927 0.16334 0.59567 0.0
H1330 H 0.34191 0.11588 0.65137 0.0
H1331 H 0.30073 0.09437 0.64997 0.0
C1332 C 0.38676 0.18491 0.61004 0.0
C1333 C 0.38475 0.20142 0.62846 0.0
C1334 C 0.37175 0.16324 0.6092 0.0
C1335 C 0.35525 0.1577 0.62706 0.0
C1336 C 0.35548 0.17275 0.64653 0.0
C1337 C 0.36992 0.19472 0.64711 0.0
C1338 C 0.29205 0.13632 0.60691 0.0
C1339 C 0.28637 0.1173 0.62252 0.0
C1340 C 0.31566 0.14782 0.60717 0.0
C1341 C 0.33363 0.14087 0.62342 0.0
C1342 C 0.32835 0.12115 0.63852 0.0
C1343 C 0.3049 0.10907 0.6378 0.0
H1344 H 0.19837 0.02169 0.11523 0.0
H1345 H 0.12815 0.98297 0.12879 0.0
H1346 H 0.17544 0.06117 0.11025 0.0
H1347 H 0.10505 0.02218 0.12284 0.0
H1348 H 0.08149 0.10056 0.14881 0.0
H1349 H 0.10013 0.05914 0.14455 0.0
H1350 H 0.14635 0.08677 0.08969 0.0
H1351 H 0.12825 0.12883 0.09455 0.0
C1352 C 0.17797 0.02151 0.11661 0.0
C1353 C 0.16509 -0.00064 0.1228 0.0
C1354 C 0.16477 0.04412 0.11361 0.0
C1355 C 0.13839 0.04495 0.11642 0.0
C1356 C 0.12541 0.02236 0.1211 0.0
C1357 C 0.13863 -0.00013 0.12444 0.0
C1358 C 0.09536 0.09784 0.1356 0.0
C1359 C 0.1036 0.11818 0.12224 0.0
C1360 C 0.10596 0.07391 0.13302 0.0
C1361 C 0.12489 0.06958 0.11685 0.0
C1362 C 0.13214 0.08957 0.10259 0.0
C1363 C 0.12164 0.11364 0.10529 0.0
H1364 H 0.00253 0.12674 0.12796 0.0
H1365 H 0.96579 0.19789 0.11357 0.0
H1366 H 0.96233 0.10488 0.12394 0.0
H1367 H 0.92543 0.17617 0.11035 0.0
H1368 H 0.85601 0.13019 0.09789 0.0
H1369 H 0.89836 0.14666 0.09127 0.0
H1370 H 0.92614 0.10312 0.1478 0.0
H1371 H 0.88423 0.08613 0.15398 0.0
C1372 C 0.98589 0.13768 0.12373 0.0
C1373 C 0.98721 0.16407 0.12143 0.0
C1374 C 0.96285 0.12516 0.12151 0.0
C1375 C 0.9406 0.13882 0.11723 0.0
C1376 C 0.94223 0.16503 0.11349 0.0
C1377 C 0.96535 0.17752 0.11545 0.0
C1378 C 0.87124 0.12389 0.10872 0.0
C1379 C 0.86666 0.10704 0.12662 0.0
C1380 C 0.89548 0.1334 0.10495 0.0
C1381 C 0.91561 0.12634 0.11907 0.0
C1382 C 0.91119 0.10869 0.13636 0.0
C1383 C 0.88704 0.09907 0.14003 0.0
H1384 H 0.84344 0.85755 0.11103 0.0
H1385 H 0.91606 0.88898 0.12887 0.0
H1386 H 0.82582 0.89989 0.10864 0.0
H1387 H 0.89877 0.93146 0.12549 0.0
H1388 H 0.8502 -0.0045 0.15432 0.0
H1389 H 0.87155 0.95563 0.14834 0.0
H1390 H 0.82315 0.94019 0.09118 0.0
H1391 H 0.80098 0.97995 0.09776 0.0
C1392 C 0.85582 0.87354 0.11384 0.0
C1393 C 0.88103 0.86993 0.1205 0.0
C1394 C 0.84574 0.89789 0.11235 0.0
C1395 C 0.86076 0.91914 0.11721 0.0
C1396 C 0.88648 0.9155 0.12224 0.0
C1397 C 0.89645 0.89117 0.12405 0.0
C1398 C 0.84421 0.98378 0.14031 0.0
C1399 C 0.82369 0.99084 0.12666 0.0
C1400 C 0.85665 0.96092 0.13674 0.0
C1401 C 0.84911 0.94461 0.11925 0.0
C1402 C 0.82921 0.95211 0.10502 0.0
C1403 C 0.81655 0.97494 0.10874 0.0
H1404 H 0.1314 0.86044 0.09543 0.0
H1405 H 0.10339 0.90399 0.15191 0.0
H1406 H 0.08896 0.84413 0.08875 0.0
H1407 H 0.06149 0.88712 0.14576 0.0
H1408 H 0.98492 0.86373 0.12667 0.0
H1409 H 0.02511 0.88562 0.12266 0.0
H1410 H 0.06159 0.81464 0.10693 0.0
H1411 H 0.02122 0.793 0.11002 0.0
C1412 C 0.11621 0.86665 0.10633 0.0
C1413 C 0.12088 0.88335 0.12434 0.0
C1414 C 0.0919 0.85723 0.10255 0.0
C1415 C 0.0718 0.86419 0.11677 0.0
C1416 C 0.07636 0.88163 0.13421 0.0
C1417 C 0.10054 0.89118 0.13787 0.0
C1418 C 0.00146 0.8529 0.12196 0.0
C1419 C 0.0 0.8266 0.11899 0.0
C1420 C 0.02452 0.86541 0.11976 0.0
C1421 C 0.0467 0.85184 0.11489 0.0
C1422 C 0.0449 0.82576 0.11053 0.0
C1423 C 0.02175 0.81329 0.11241 0.0
H1424 H 0.19959 0.97561 0.3778 0.0
H1425 H 0.12478 0.00765 0.37196 0.0
H1426 H 0.18134 0.93355 0.38047 0.0
H1427 H 0.10646 0.96561 0.37539 0.0
H1428 H 0.1421 0.85953 0.39028 0.0
H1429 H 0.15583 0.90232 0.39937 0.0
H1430 H 0.10547 0.9319 0.34838 0.0
H1431 H 0.09127 0.88946 0.33974 0.0
C1432 C 0.17922 0.97375 0.37782 0.0
C1433 C 0.16364 0.99485 0.3742 0.0
C1434 C 0.16872 0.94961 0.37943 0.0
C1435 C 0.14246 0.9462 0.37769 0.0
C1436 C 0.1268 0.96758 0.37619 0.0
C1437 C 0.13729 0.99166 0.37433 0.0
C1438 C 0.13375 0.8752 0.38118 0.0
C1439 C 0.11578 0.87103 0.36409 0.0
C1440 C 0.14166 0.89971 0.38639 0.0
C1441 C 0.13181 0.92052 0.37459 0.0
C1442 C 0.11316 0.91637 0.3581 0.0
C1443 C 0.10518 0.89194 0.35297 0.0
H1444 H -0.00212 0.18671 0.39324 0.0
H1445 H 0.98479 0.13774 0.33596 0.0
H1446 H 0.03849 0.16609 0.39973 0.0
H1447 H 0.02539 0.11797 0.34189 0.0
H1448 H 0.09329 0.07569 0.36099 0.0
H1449 H 0.05024 0.09129 0.36477 0.0
H1450 H 0.07903 0.16526 0.38221 0.0
H1451 H 0.122 0.1493 0.3794 0.0
C1452 C 0.00358 0.17151 0.3821 0.0
C1453 C 0.98812 0.16401 0.36399 0.0
C1454 C 0.0269 0.15976 0.38577 0.0
C1455 C 0.03528 0.14037 0.37133 0.0
C1456 C 0.01943 0.13246 0.35365 0.0
C1457 C -0.00387 0.14402 0.35011 0.0
C1458 C 0.09038 0.09516 0.36603 0.0
C1459 C 0.111 0.11137 0.36958 0.0
C1460 C 0.06572 0.10415 0.36809 0.0
C1461 C 0.06113 0.12967 0.37335 0.0
C1462 C 0.08179 0.14546 0.37829 0.0
C1463 C 0.10648 0.13634 0.37657 0.0
H1464 H 0.85343 0.98746 0.33541 0.0
H1465 H 0.80046 0.00141 0.38956 0.0
H1466 H 0.87142 0.02897 0.34078 0.0
H1467 H 0.81932 0.04299 0.39557 0.0
H1468 H 0.83371 0.12595 0.37273 0.0
H1469 H 0.81949 0.08247 0.37636 0.0
H1470 H 0.89552 0.05625 0.3636 0.0
H1471 H 0.90947 0.0998 0.35893 0.0
C1472 C 0.8459 -0.0008 0.3488 0.0
C1473 C 0.82527 0.99116 0.36189 0.0
C1474 C 0.85644 0.02303 0.35202 0.0
C1475 C 0.84684 0.03941 0.36861 0.0
C1476 C 0.82691 0.03098 0.38241 0.0
C1477 C 0.81617 0.00712 0.37903 0.0
C1478 C 0.84747 0.11091 0.37104 0.0
C1479 C 0.87261 0.11625 0.36515 0.0
C1480 C 0.83934 0.08593 0.37327 0.0
C1481 C 0.85628 0.0658 0.36997 0.0
C1482 C 0.88183 0.07128 0.36567 0.0
C1483 C 0.88986 0.09623 0.36309 0.0
H1484 H 0.86765 0.84025 0.37628 0.0
H1485 H 0.89376 0.91241 0.35129 0.0
H1486 H 0.91096 0.82577 0.37931 0.0
H1487 H 0.93733 0.89831 0.3553 0.0
H1488 H 0.00367 0.85017 0.32967 0.0
H1489 H 0.96302 0.87026 0.33476 0.0
H1490 H 0.95137 0.82746 0.39608 0.0
H1491 H 0.99188 0.80644 0.39039 0.0
C1492 C 0.88268 0.85328 0.372 0.0
C1493 C 0.87726 0.87734 0.36319 0.0
C1494 C 0.90761 0.84501 0.37387 0.0
C1495 C 0.92771 0.86074 0.36728 0.0
C1496 C 0.9223 0.88547 0.35999 0.0
C1497 C 0.89733 0.89361 0.3578 0.0
C1498 C 0.99262 0.8452 0.3444 0.0
C1499 C 0.00091 0.82646 0.35948 0.0
C1500 C 0.9693 0.85693 0.34744 0.0
C1501 C 0.95379 0.85047 0.36582 0.0
C1502 C 0.96262 0.83257 0.38152 0.0
C1503 C 0.98588 0.82058 0.37831 0.0
H1504 H 0.86571 0.00645 0.85202 0.0
H1505 H 0.79636 0.97105 0.87386 0.0
H1506 H 0.88777 0.96634 0.85592 0.0
H1507 H 0.81811 0.93066 0.87683 0.0
H1508 H 0.90531 0.88634 0.83013 0.0
H1509 H 0.88853 0.92858 0.83486 0.0
H1510 H 0.84856 0.90448 0.89475 0.0
H1511 H 0.86468 0.86171 0.88948 0.0
C1512 C 0.85521 0.99009 0.85775 0.0
C1513 C 0.82924 0.9918 0.86237 0.0
C1514 C 0.86782 0.96707 0.85989 0.0
C1515 C 0.85467 0.94514 0.86635 0.0
C1516 C 0.82894 0.94717 0.87204 0.0
C1517 C 0.8164 0.97031 0.87021 0.0
C1518 C 0.89324 0.89006 0.84451 0.0
C1519 C 0.88612 0.87054 0.85928 0.0
C1520 C 0.88371 0.91441 0.84733 0.0
C1521 C 0.86705 0.91997 0.86514 0.0
C1522 C 0.86096 0.90074 0.8806 0.0
C1523 C 0.87031 0.87626 0.87765 0.0
H1524 H -0.00465 0.85068 0.83367 0.0
H1525 H 0.01161 0.79889 0.88824 0.0
H1526 H 0.03518 0.87178 0.83999 0.0
H1527 H 0.05147 0.82083 0.89516 0.0
H1528 H 0.13374 0.84278 0.87478 0.0
H1529 H 0.09162 0.82471 0.87731 0.0
H1530 H 0.05919 0.89817 0.8638 0.0
H1531 H 0.10141 0.91598 0.86028 0.0
C1532 C 0.00723 0.84402 0.84732 0.0
C1533 C 0.00031 0.8229 0.86032 0.0
C1534 C 0.03008 0.85635 0.8511 0.0
C1535 C 0.04659 0.8481 0.86815 0.0
C1536 C 0.03934 0.82749 0.8817 0.0
C1537 C 0.01646 0.81497 0.87778 0.0
C1538 C 0.11761 0.85517 0.87276 0.0
C1539 C 0.12089 0.88072 0.86694 0.0
C1540 C 0.09341 0.84482 0.87432 0.0
C1541 C 0.07197 0.85988 0.87039 0.0
C1542 C 0.07529 0.88587 0.86631 0.0
C1543 C 0.09949 0.89613 0.86442 0.0
H1544 H 0.13232 0.13186 0.89408 0.0
H1545 H 0.0898 0.10522 0.83644 0.0
H1546 H 0.14742 0.08895 0.90085 0.0
H1547 H 0.10546 0.06286 0.84274 0.0
H1548 H 0.12707 0.98574 0.86119 0.0
H1549 H 0.10571 0.02618 0.86572 0.0
H1550 H 0.17693 0.06137 0.88267 0.0
H1551 H 0.19806 0.02077 0.87902 0.0
C1552 C 0.12603 0.11687 0.88296 0.0
C1553 C 0.11006 0.12206 0.86456 0.0
C1554 C 0.13477 0.0923 0.8868 0.0
C1555 C 0.12778 0.07247 0.87228 0.0
C1556 C 0.11095 0.07754 0.8545 0.0
C1557 C 0.10211 0.10198 0.85076 0.0
C1558 C 0.13806 0.00204 0.8663 0.0
C1559 C 0.1643 0.00018 0.86939 0.0
C1560 C 0.12585 0.02523 0.86881 0.0
C1561 C 0.13967 0.04713 0.87412 0.0
C1562 C 0.16564 0.04489 0.87871 0.0
C1563 C 0.17781 0.0216 0.8765 0.0
H1564 H 0.8679 0.13063 0.89138 0.0
H1565 H 0.89257 0.08647 0.83405 0.0
H1566 H 0.91036 0.14793 0.89526 0.0
H1567 H 0.93445 0.1044 0.83735 0.0
H1568 H 0.01193 0.13083 0.85217 0.0
H1569 H 0.97258 0.10785 0.85769 0.0
H1570 H 0.93499 0.17781 0.87498 0.0
H1571 H 0.97457 0.20053 0.8704 0.0
C1572 C 0.8824 0.12446 0.87972 0.0
C1573 C 0.87676 0.10737 0.86226 0.0
C1574 C 0.9067 0.13448 0.88187 0.0
C1575 C 0.92578 0.12779 0.86648 0.0
C1576 C 0.92038 0.10977 0.84971 0.0
C1577 C 0.89622 0.09957 0.84771 0.0
C1578 C -0.0047 0.14123 0.8574 0.0
C1579 C -0.00376 0.16752 0.86058 0.0
C1580 C 0.97273 0.12808 0.8605 0.0
C1581 C 0.95052 0.14099 0.86652 0.0
C1582 C 0.95176 0.16716 0.87062 0.0
C1583 C 0.97443 0.18025 0.86783 0.0
H1584 H 0.86162 0.9829 0.62636 0.0
H1585 H 0.78879 0.01681 0.61361 0.0
H1586 H 0.8817 0.02404 0.62225 0.0
H1587 H 0.80867 0.05816 0.61048 0.0
H1588 H 0.89958 0.10214 0.65164 0.0
H1589 H 0.8834 0.05991 0.64581 0.0
H1590 H 0.83596 0.08719 0.59164 0.0
H1591 H 0.8516 0.12999 0.59806 0.0
C1592 C 0.84993 -0.00085 0.62251 0.0
C1593 C 0.8236 -0.00329 0.62062 0.0
C1594 C 0.86141 0.02275 0.62026 0.0
C1595 C 0.84677 0.04452 0.61647 0.0
C1596 C 0.82058 0.04181 0.61323 0.0
C1597 C 0.80914 0.0181 0.61513 0.0
C1598 C 0.88591 0.0992 0.63829 0.0
C1599 C 0.87672 0.11957 0.62548 0.0
C1600 C 0.87675 0.07482 0.6348 0.0
C1601 C 0.85833 0.07006 0.61824 0.0
C1602 C 0.84987 0.09025 0.60476 0.0
C1603 C 0.85892 0.11476 0.60838 0.0
H1604 H 0.86354 0.85534 0.59432 0.0
H1605 H 0.89128 0.90535 0.6465 0.0
H1606 H 0.90627 0.83937 0.58852 0.0
H1607 H 0.93342 0.88884 0.64132 0.0
H1608 H 0.97531 0.79198 0.61364 0.0
H1609 H 0.9344 0.81242 0.60885 0.0
H1610 H 0.96956 0.88545 0.61839 0.0
H1611 H 0.01013 0.86485 0.62422 0.0
C1612 C 0.87874 0.8631 0.60441 0.0
C1613 C 0.8739 0.88145 0.62104 0.0
C1614 C 0.90321 0.85384 0.60116 0.0
C1615 C 0.92329 0.86266 0.61455 0.0
C1616 C 0.91857 0.88184 0.63043 0.0
C1617 C 0.89424 0.89121 0.63355 0.0
C1618 C 0.9743 0.81242 0.61433 0.0
C1619 C -0.00427 0.82681 0.61972 0.0
C1620 C 0.95088 0.82418 0.61146 0.0
C1621 C 0.9486 0.85059 0.6136 0.0
C1622 C 0.97051 0.86504 0.61726 0.0
C1623 C 0.99377 0.85326 0.62051 0.0
H1624 H 0.0744 0.89737 0.63679 0.0
H1625 H 0.14433 0.87133 0.60715 0.0
H1626 H 0.08938 0.94083 0.63444 0.0
H1627 H 0.15964 0.91449 0.60563 0.0
H1628 H 0.17965 -0.00425 0.5974 0.0
H1629 H 0.15741 0.95608 0.59088 0.0
H1630 H 0.11976 0.96417 0.65525 0.0
H1631 H 0.14118 0.00413 0.66133 0.0
C1632 C 0.09285 0.90093 0.62956 0.0
C1633 C 0.10832 0.88086 0.62246 0.0
C1634 C 0.1015 0.92583 0.62833 0.0
C1635 C 0.12589 0.93114 0.62022 0.0
C1636 C 0.14067 0.91118 0.6118 0.0
C1637 C 0.13193 0.88634 0.61279 0.0
C1638 C 0.16643 0.98914 0.61005 0.0
C1639 C 0.16237 0.00296 0.62999 0.0
C1640 C 0.15372 0.96639 0.60633 0.0
C1641 C 0.13689 0.95683 0.62258 0.0
C1642 C 0.13225 0.97111 0.64217 0.0
C1643 C 0.14473 0.99397 0.64577 0.0
H1644 H 0.12554 0.13761 0.59831 0.0
H1645 H 0.10165 0.09609 0.65743 0.0
H1646 H 0.08208 0.15114 0.59196 0.0
H1647 H 0.05869 0.1103 0.65162 0.0
H1648 H 0.98038 0.12871 0.63342 0.0
H1649 H 0.02153 0.10859 0.62953 0.0
H1650 H 0.05393 0.18015 0.60939 0.0
H1651 H 0.0127 0.19992 0.61235 0.0
C1652 C 0.11103 0.1313 0.6099 0.0
C1653 C 0.1171 0.11597 0.62849 0.0
C1654 C 0.08614 0.1391 0.60629 0.0
C1655 C 0.06689 0.13192 0.62133 0.0
C1656 C 0.0729 0.11586 0.63945 0.0
C1657 C 0.09766 0.10787 0.64291 0.0
C1658 C -0.00377 0.14001 0.62778 0.0
C1659 C 0.99339 0.16597 0.62352 0.0
C1660 C 0.01983 0.12852 0.62565 0.0
C1661 C 0.04114 0.14284 0.61954 0.0
C1662 C 0.03793 0.16846 0.61394 0.0
C1663 C 0.01427 0.17987 0.61577 0.0
H1664 H 0.63501 0.49414 0.64507 0.0
H1665 H 0.68996 0.51132 0.59328 0.0
H1666 H 0.61558 0.53486 0.63963 0.0
H1667 H 0.66958 0.55219 0.5871 0.0
H1668 H 0.65034 0.63409 0.61113 0.0
H1669 H 0.66659 0.59137 0.60654 0.0
H1670 H 0.5914 0.5615 0.61671 0.0
H1671 H 0.57551 0.60421 0.62249 0.0
C1672 C 0.6427 0.50641 0.63216 0.0
C1673 C 0.66428 0.4995 0.61979 0.0
C1674 C 0.63131 0.52981 0.62885 0.0
C1675 C 0.64095 0.54691 0.61289 0.0
C1676 C 0.66188 0.53961 0.59977 0.0
C1677 C 0.67349 0.51616 0.60324 0.0
C1678 C 0.63725 0.61839 0.61201 0.0
C1679 C 0.61178 0.62238 0.61759 0.0
C1680 C 0.64652 0.59387 0.60923 0.0
C1681 C 0.63039 0.5729 0.61163 0.0
C1682 C 0.6045 0.57715 0.6154 0.0
C1683 C 0.59534 0.60161 0.61862 0.0
H1684 H 0.3891 0.58481 0.64806 0.0
H1685 H 0.3624 0.6307 0.5926 0.0
H1686 H 0.4311 0.60205 0.6434 0.0
H1687 H 0.40495 0.64733 0.58732 0.0
H1688 H 0.47175 0.69804 0.61048 0.0
H1689 H 0.43159 0.67619 0.60658 0.0
H1690 H 0.46829 0.60521 0.62188 0.0
H1691 H 0.50826 0.62732 0.62675 0.0
C1692 C 0.39229 0.59817 0.6345 0.0
C1693 C 0.37225 0.60658 0.62089 0.0
C1694 C 0.41654 0.60797 0.63171 0.0
C1695 C 0.42149 0.62625 0.61505 0.0
C1696 C 0.40173 0.63365 0.60061 0.0
C1697 C 0.37735 0.62401 0.60355 0.0
C1698 C 0.47131 0.67772 0.61267 0.0
C1699 C 0.49309 0.66447 0.61927 0.0
C1700 C 0.44827 0.66512 0.6103 0.0
C1701 C 0.44657 0.63893 0.61419 0.0
C1702 C 0.46875 0.62547 0.61932 0.0
C1703 C 0.4917 0.63812 0.622 0.0
H1704 H 0.29748 0.47986 0.59403 0.0
H1705 H 0.35284 0.49645 0.64565 0.0
H1706 H 0.31755 0.43893 0.58752 0.0
H1707 H 0.37208 0.45562 0.63978 0.0
H1708 H 0.41233 0.38705 0.62089 0.0
H1709 H 0.39603 0.42967 0.61575 0.0
H1710 H 0.3208 0.39936 0.60686 0.0
H1711 H 0.33751 0.35661 0.61085 0.0
C1712 C 0.31399 0.47488 0.60388 0.0
C1713 C 0.32344 0.49139 0.62047 0.0
C1714 C 0.32541 0.45139 0.60021 0.0
C1715 C 0.34642 0.44393 0.61312 0.0
C1716 C 0.35626 0.46085 0.62917 0.0
C1717 C 0.34503 0.48429 0.6327 0.0
C1718 C 0.39239 0.38954 0.6174 0.0
C1719 C 0.37608 0.36866 0.61659 0.0
C1720 C 0.38301 0.41393 0.61457 0.0
C1721 C 0.35701 0.41801 0.61141 0.0
C1722 C 0.34095 0.39695 0.60914 0.0
C1723 C 0.35046 0.37245 0.61153 0.0
H1724 H 0.59726 0.40804 0.64485 0.0
H1725 H 0.62587 0.36289 0.58961 0.0
H1726 H 0.55513 0.39177 0.638 0.0
H1727 H 0.58341 0.34712 0.58236 0.0
H1728 H 0.51714 0.29549 0.60669 0.0
H1729 H 0.55694 0.3178 0.60243 0.0
H1730 H 0.51885 0.38893 0.61383 0.0
H1731 H 0.47906 0.36652 0.61877 0.0
C1732 C 0.59449 0.39508 0.63091 0.0
C1733 C 0.61503 0.38642 0.61805 0.0
C1734 C 0.57023 0.38587 0.62685 0.0
C1735 C 0.56594 0.36797 0.60973 0.0
C1736 C 0.5862 0.36056 0.59593 0.0
C1737 C 0.61051 0.36965 0.60007 0.0
C1738 C 0.51713 0.31593 0.60783 0.0
C1739 C 0.49505 0.32918 0.61352 0.0
C1740 C 0.53996 0.32877 0.60525 0.0
C1741 C 0.54112 0.35513 0.60811 0.0
C1742 C 0.51865 0.36856 0.61203 0.0
C1743 C 0.49586 0.35571 0.61478 0.0
H1744 H 0.58001 0.38747 0.85352 0.0
H1745 H 0.65383 0.35967 0.8722 0.0
H1746 H 0.5949 0.43073 0.8577 0.0
H1747 H 0.66908 0.40297 0.87548 0.0
H1748 H 0.68766 0.48514 0.88871 0.0
H1749 H 0.66858 0.44347 0.89381 0.0
H1750 H 0.62158 0.45626 0.83524 0.0
H1751 H 0.63983 0.49779 0.83062 0.0
C1752 C 0.59939 0.39063 0.85867 0.0
C1753 C 0.61585 0.3702 0.86222 0.0
C1754 C 0.60798 0.41542 0.86096 0.0
C1755 C 0.63334 0.42036 0.86648 0.0
C1756 C 0.6494 0.39989 0.87134 0.0
C1757 C 0.64069 0.37505 0.86936 0.0
C1758 C 0.67305 0.47911 0.87709 0.0
C1759 C 0.66536 0.49482 0.85921 0.0
C1760 C 0.66219 0.4552 0.87996 0.0
C1761 C 0.6435 0.4465 0.86498 0.0
C1762 C 0.63552 0.46247 0.84742 0.0
C1763 C 0.6462 0.48632 0.84463 0.0
H1764 H 0.51418 0.70145 0.87082 0.0
H1765 H 0.47713 0.6299 0.85913 0.0
H1766 H 0.55426 0.67966 0.87584 0.0
H1767 H 0.51693 0.6079 0.86523 0.0
H1768 H 0.59564 0.58583 0.83856 0.0
H1769 H 0.55358 0.60298 0.84336 0.0
H1770 H 0.58098 0.65213 0.89633 0.0
H1771 H 0.6235 0.6356 0.89081 0.0
C1772 C 0.51452 0.681 0.86992 0.0
C1773 C 0.4927 0.66739 0.86419 0.0
C1774 C 0.53747 0.66844 0.87295 0.0
C1775 C 0.53893 0.64199 0.87065 0.0
C1776 C 0.51663 0.62831 0.86653 0.0
C1777 C 0.49381 0.6409 0.86313 0.0
C1778 C 0.59266 0.59998 0.85151 0.0
C1779 C 0.61298 0.60961 0.86407 0.0
C1780 C 0.56842 0.60975 0.85439 0.0
C1781 C 0.56387 0.62915 0.87013 0.0
C1782 C 0.58392 0.6376 0.88373 0.0
C1783 C 0.60826 0.62804 0.88064 0.0
H1784 H 0.41505 0.6025 0.8529 0.0
H1785 H 0.34122 0.62847 0.87361 0.0
H1786 H 0.40131 0.55886 0.85732 0.0
H1787 H 0.32714 0.58491 0.87714 0.0
H1788 H 0.30897 0.50367 0.88929 0.0
H1789 H 0.32902 0.54465 0.89514 0.0
H1790 H 0.37439 0.53287 0.83538 0.0
H1791 H 0.35515 0.4918 0.83002 0.0
C1792 C 0.39594 0.59886 0.85857 0.0
C1793 C 0.37908 0.61886 0.86258 0.0
C1794 C 0.38803 0.57387 0.86102 0.0
C1795 C 0.36299 0.56836 0.86719 0.0
C1796 C 0.34662 0.58842 0.87254 0.0
C1797 C 0.35464 0.61344 0.8704 0.0
C1798 C 0.32346 0.50973 0.87758 0.0
C1799 C 0.33028 0.49457 0.85906 0.0
C1800 C 0.33489 0.53324 0.8809 0.0
C1801 C 0.35322 0.54213 0.86568 0.0
C1802 C 0.36067 0.52651 0.84768 0.0
C1803 C 0.34944 0.50297 0.84448 0.0
H1804 H 0.39443 0.40114 0.83256 0.0
H1805 H 0.36816 0.35614 0.88879 0.0
H1806 H 0.43674 0.38477 0.83787 0.0
H1807 H 0.4109 0.34035 0.8946 0.0
H1808 H 0.47816 0.29003 0.87126 0.0
H1809 H 0.43771 0.31136 0.87505 0.0
H1810 H 0.47365 0.38294 0.86058 0.0
H1811 H 0.51395 0.36141 0.85593 0.0
C1812 C 0.39778 0.38816 0.84638 0.0
C1813 C 0.37783 0.37969 0.86005 0.0
C1814 C 0.42215 0.37888 0.84954 0.0
C1815 C 0.42722 0.36111 0.8666 0.0
C1816 C 0.40753 0.35367 0.88105 0.0
C1817 C 0.38306 0.3628 0.87776 0.0
C1818 C 0.47749 0.31037 0.86927 0.0
C1819 C 0.49911 0.32399 0.86291 0.0
C1820 C 0.45431 0.32265 0.87157 0.0
C1821 C 0.45237 0.34884 0.86783 0.0
C1822 C 0.47439 0.36267 0.86304 0.0
C1823 C 0.49749 0.35035 0.86046 0.0
H1824 H 0.36154 0.50356 0.36456 0.0
H1825 H 0.28937 0.4662 0.37156 0.0
H1826 H 0.38298 0.46323 0.36963 0.0
H1827 H 0.31071 0.42582 0.37574 0.0
H1828 H 0.40515 0.38615 0.33912 0.0
H1829 H 0.38786 0.42789 0.34538 0.0
H1830 H 0.33763 0.39773 0.39622 0.0
H1831 H 0.35445 0.3555 0.38938 0.0
C1832 C 0.35026 0.48677 0.3674 0.0
C1833 C 0.32375 0.488 0.36732 0.0
C1834 C 0.36254 0.46364 0.37021 0.0
C1835 C 0.34858 0.4412 0.37269 0.0
C1836 C 0.3221 0.44271 0.37406 0.0
C1837 C 0.30982 0.46589 0.37153 0.0
C1838 C 0.39065 0.38837 0.35186 0.0
C1839 C 0.38095 0.36735 0.3635 0.0
C1840 C 0.38085 0.41244 0.35561 0.0
C1841 C 0.36124 0.4162 0.37125 0.0
C1842 C 0.35244 0.39542 0.38379 0.0
C1843 C 0.36216 0.37123 0.37992 0.0
H1844 H 0.59908 0.40259 0.33391 0.0
H1845 H 0.62824 0.35759 0.38899 0.0
H1846 H 0.55751 0.38477 0.3398 0.0
H1847 H 0.58614 0.34028 0.3954 0.0
H1848 H 0.51886 0.28881 0.37296 0.0
H1849 H 0.55901 0.31093 0.37652 0.0
H1850 H 0.5214 0.38192 0.36317 0.0
H1851 H 0.4815 0.35962 0.35871 0.0
C1852 C 0.59655 0.38925 0.34759 0.0
C1853 C 0.61712 0.38132 0.36079 0.0
C1854 C 0.57256 0.37915 0.35111 0.0
C1855 C 0.56843 0.36101 0.36806 0.0
C1856 C 0.58875 0.35392 0.38197 0.0
C1857 C 0.61286 0.36394 0.37835 0.0
C1858 C 0.51912 0.30919 0.37123 0.0
C1859 C 0.49716 0.32243 0.36516 0.0
C1860 C 0.54213 0.32192 0.37336 0.0
C1861 C 0.54353 0.34818 0.36975 0.0
C1862 C 0.52112 0.36161 0.36545 0.0
C1863 C 0.49823 0.34885 0.36301 0.0
H1864 H 0.58125 0.60277 0.33304 0.0
H1865 H 0.62742 0.62928 0.38841 0.0
H1866 H 0.59872 0.5608 0.3373 0.0
H1867 H 0.64428 0.58672 0.39328 0.0
H1868 H 0.69486 0.52015 0.36945 0.0
H1869 H 0.67303 0.5603 0.37358 0.0
H1870 H 0.602 0.52351 0.35873 0.0
H1871 H 0.62409 0.48355 0.35361 0.0
C1872 C 0.59474 0.59954 0.34647 0.0
C1873 C 0.60315 0.61952 0.3602 0.0
C1874 C 0.60466 0.57531 0.34904 0.0
C1875 C 0.62304 0.57032 0.36558 0.0
C1876 C 0.6305 0.59 0.3801 0.0
C1877 C 0.62073 0.61437 0.37738 0.0
C1878 C 0.67454 0.52057 0.36738 0.0
C1879 C 0.66125 0.49878 0.36084 0.0
C1880 C 0.66195 0.5436 0.3699 0.0
C1881 C 0.63575 0.54526 0.36623 0.0
C1882 C 0.62227 0.52306 0.36113 0.0
C1883 C 0.63491 0.50013 0.35829 0.0
H1884 H 0.38604 0.58558 0.33396 0.0
H1885 H 0.35731 0.62987 0.3897 0.0
H1886 H 0.42737 0.60402 0.33917 0.0
H1887 H 0.39931 0.64783 0.39544 0.0
H1888 H 0.46615 0.69975 0.37245 0.0
H1889 H 0.42609 0.6775 0.37637 0.0
H1890 H 0.46371 0.60671 0.36216 0.0
H1891 H 0.50346 0.62915 0.35728 0.0
C1892 C 0.38862 0.59893 0.34762 0.0
C1893 C 0.36823 0.60641 0.36126 0.0
C1894 C 0.41249 0.60939 0.35076 0.0
C1895 C 0.41673 0.62743 0.36775 0.0
C1896 C 0.3966 0.63422 0.382 0.0
C1897 C 0.37256 0.62384 0.37877 0.0
C1898 C 0.4659 0.67938 0.37056 0.0
C1899 C 0.48779 0.66623 0.36415 0.0
C1900 C 0.44296 0.66658 0.37292 0.0
C1901 C 0.44159 0.64035 0.3692 0.0
C1902 C 0.46396 0.62701 0.36453 0.0
C1903 C 0.48676 0.63984 0.36182 0.0
H1904 H 0.34846 0.48882 0.15321 0.0
H1905 H 0.30048 0.50086 0.09511 0.0
H1906 H 0.36841 0.52928 0.1469 0.0
H1907 H 0.32127 0.54135 0.08828 0.0
H1908 H 0.33738 0.62506 0.1084 0.0
H1909 H 0.32169 0.58206 0.10563 0.0
H1910 H 0.39553 0.55361 0.12372 0.0
H1911 H 0.41095 0.59679 0.12743 0.0
C1912 C 0.34242 0.49992 0.13883 0.0
C1913 C 0.32267 0.49168 0.12479 0.0
C1914 C 0.3541 0.5231 0.13506 0.0
C1915 C 0.34653 0.53858 0.11702 0.0
C1916 C 0.32734 0.53 0.10249 0.0
C1917 C 0.31545 0.5068 0.10638 0.0
C1918 C 0.35041 0.60963 0.11139 0.0
C1919 C 0.37527 0.6143 0.11856 0.0
C1920 C 0.34143 0.58492 0.10966 0.0
C1921 C 0.35724 0.56437 0.11481 0.0
C1922 C 0.38268 0.56905 0.12022 0.0
C1923 C 0.39156 0.59377 0.12226 0.0
H1924 H 0.39044 0.39908 0.15484 0.0
H1925 H 0.36872 0.36054 0.09348 0.0
H1926 H 0.4334 0.38408 0.15025 0.0
H1927 H 0.4121 0.34626 0.0884 0.0
H1928 H 0.47923 0.29479 0.1089 0.0
H1929 H 0.43846 0.31566 0.10589 0.0
H1930 H 0.47178 0.38529 0.12988 0.0
H1931 H 0.51234 0.36408 0.13375 0.0
C1932 C 0.39495 0.38788 0.14007 0.0
C1933 C 0.37606 0.38074 0.12469 0.0
C1934 C 0.4197 0.37938 0.13734 0.0
C1935 C 0.42623 0.36377 0.11902 0.0
C1936 C 0.40762 0.35782 0.10295 0.0
C1937 C 0.38278 0.36611 0.1058 0.0
C1938 C 0.47793 0.31465 0.1132 0.0
C1939 C 0.49889 0.32768 0.12189 0.0
C1940 C 0.45455 0.3267 0.11135 0.0
C1941 C 0.45173 0.35212 0.11789 0.0
C1942 C 0.47313 0.36555 0.12521 0.0
C1943 C 0.49641 0.35342 0.12734 0.0
H1944 H 0.6382 0.50239 0.15243 0.0
H1945 H 0.689 0.48821 0.0967 0.0
H1946 H 0.61941 0.46115 0.14724 0.0
H1947 H 0.66937 0.44698 0.09091 0.0
H1948 H 0.65402 0.36395 0.11277 0.0
H1949 H 0.6691 0.40721 0.10967 0.0
H1950 H 0.59402 0.43473 0.12459 0.0
H1951 H 0.57924 0.39138 0.12867 0.0
C1952 C 0.64507 0.49066 0.13876 0.0
C1953 C 0.66531 0.49854 0.12513 0.0
C1954 C 0.63409 0.467 0.13564 0.0
C1955 C 0.64285 0.45067 0.11864 0.0
C1956 C 0.66242 0.45894 0.10438 0.0
C1957 C 0.67361 0.4826 0.10765 0.0
C1958 C 0.64065 0.37924 0.11505 0.0
C1959 C 0.61555 0.3743 0.12133 0.0
C1960 C 0.64926 0.40409 0.11313 0.0
C1961 C 0.63285 0.42449 0.11718 0.0
C1962 C 0.60731 0.41946 0.12193 0.0
C1963 C 0.59881 0.39463 0.12418 0.0
H1964 H 0.47803 0.62645 0.12953 0.0
H1965 H 0.51092 0.69805 0.1104 0.0
H1966 H 0.51899 0.60612 0.12532 0.0
H1967 H 0.55212 0.67799 0.1071 0.0
H1968 H 0.62307 0.63448 0.09414 0.0
H1969 H 0.57982 0.64907 0.08861 0.0
H1970 H 0.55629 0.6064 0.14718 0.0
H1971 H 0.59902 0.59118 0.1522 0.0
C1972 C 0.49401 0.63781 0.1243 0.0
C1973 C 0.49135 0.6639 0.12059 0.0
C1974 C 0.51751 0.62619 0.12197 0.0
C1975 C 0.53897 0.64047 0.11624 0.0
C1976 C 0.536 0.66633 0.11134 0.0
C1977 C 0.51239 0.67789 0.11335 0.0
C1978 C 0.60856 0.62792 0.10562 0.0
C1979 C 0.61458 0.61183 0.12373 0.0
C1980 C 0.5838 0.63639 0.10252 0.0
C1981 C 0.56457 0.62908 0.11753 0.0
C1982 C 0.57047 0.61215 0.13506 0.0
C1983 C 0.59511 0.60354 0.13804 0.0
H1984 H 0.98951 0.2596 0.17622 0.0
H1985 H 0.04773 0.22591 0.21741 0.0
H1986 H 0.96679 0.27245 0.21046 0.0
H1987 H 0.02541 0.23871 0.25131 0.0
H1988 H 0.98314 0.25762 0.31085 0.0
H1989 H 0.0058 0.27089 0.27683 0.0
H1990 H 0.94563 0.24067 0.2356 0.0
H1991 H 0.92316 0.22757 0.26933 0.0
C1992 C -0.00218 0.25574 0.19257 0.0
C1993 C 0.01997 0.24132 0.19433 0.0
C1994 C 0.98489 0.26308 0.2121 0.0
C1995 C 0.99424 0.2564 0.23352 0.0
C1996 C 0.0178 0.24434 0.2351 0.0
C1997 C 0.03044 0.23671 0.21569 0.0
C1998 C 0.97444 0.25462 0.29452 0.0
C1999 C 0.95179 0.24098 0.29261 0.0
C2000 C 0.98737 0.26222 0.27509 0.0
C2001 C 0.97762 0.25653 0.25359 0.0
C2002 C 0.95359 0.24547 0.25189 0.0
C2003 C 0.94087 0.23763 0.27122 0.0
H2004 H 0.76638 0.92681 0.26671 0.0
H2005 H 0.72766 0.97999 0.30989 0.0
H2006 H 0.75035 0.94857 0.23365 0.0
H2007 H 0.71146 0.00197 0.27653 0.0
H2008 H 0.72771 0.99056 0.17565 0.0
H2009 H 0.71593 0.96581 0.20899 0.0
H2010 H 0.74056 0.0271 0.25192 0.0
H2011 H 0.75229 0.0515 0.21886 0.0
C2012 C 0.7539 0.94282 0.2691 0.0
C2013 C 0.74884 0.9522 0.29079 0.0
C2014 C 0.74436 0.95507 0.25015 0.0
C2015 C 0.72983 0.97712 0.25253 0.0
C2016 C 0.72274 0.98507 0.27427 0.0
C2017 C 0.73206 0.97257 0.29331 0.0
C2018 C 0.72961 -0.00098 0.19222 0.0
C2019 C 0.74145 0.02256 0.19487 0.0
C2020 C 0.7229 0.9849 0.21125 0.0
C2021 C 0.72769 0.99439 0.23302 0.0
C2022 C 0.73652 0.01928 0.23541 0.0
C2023 C 0.74353 0.03317 0.21649 0.0
H2024 H -0.00196 0.73025 0.1737 0.0
H2025 H 0.94071 0.76484 0.21533 0.0
H2026 H 0.02054 0.71653 0.20775 0.0
H2027 H 0.96288 0.75126 0.24904 0.0
H2028 H 0.00455 0.73105 0.30832 0.0
H2029 H 0.98161 0.71844 0.27424 0.0
H2030 H 0.04266 0.7471 0.23317 0.0
H2031 H 0.0654 0.75951 0.26697 0.0
C2032 C 0.9899 0.73422 0.19009 0.0
C2033 C 0.96807 0.74911 0.19201 0.0
C2034 C 0.0027 0.72636 0.20952 0.0
C2035 C 0.99357 0.73299 0.23103 0.0
C2036 C 0.97033 0.74563 0.23276 0.0
C2037 C 0.9578 0.75375 0.21345 0.0
C2038 C 0.01338 0.73379 0.29201 0.0
C2039 C 0.03636 0.74685 0.29015 0.0
C2040 C 0.00029 0.72658 0.27254 0.0
C2041 C 0.0102 0.73212 0.25107 0.0
C2042 C 0.03455 0.74245 0.24943 0.0
C2043 C 0.04745 0.74988 0.2688 0.0
H2044 H 0.26458 0.04554 0.2948 0.0
H2045 H 0.19932 -0.00336 0.29616 0.0
H2046 H 0.27961 0.02403 0.26038 0.0
H2047 H 0.21443 0.97496 0.26263 0.0
H2048 H 0.24477 0.93014 0.21152 0.0
H2049 H 0.25296 0.94805 0.24875 0.0
H2050 H 0.25556 0.02279 0.2196 0.0
H2051 H 0.24785 0.00465 0.18213 0.0
C2052 C 0.25386 0.02984 0.288 0.0
C2053 C 0.23078 0.02271 0.29781 0.0
C2054 C 0.26242 0.01763 0.26846 0.0
C2055 C 0.24832 -0.00229 0.25914 0.0
C2056 C 0.2259 0.98995 0.26974 0.0
C2057 C 0.2171 0.00248 0.28875 0.0
C2058 C 0.2484 0.95024 0.21298 0.0
C2059 C 0.24548 0.96618 0.19428 0.0
C2060 C 0.25311 0.96045 0.2342 0.0
C2061 C 0.25444 0.98676 0.23696 0.0
C2062 C 0.25475 0.00243 0.2178 0.0
C2063 C 0.25025 0.99212 0.19644 0.0
H2064 H -0.0012 0.72927 0.80945 0.0
H2065 H 0.93633 0.75282 0.76763 0.0
H2066 H 0.0228 0.71795 0.77556 0.0
H2067 H 0.95998 0.7415 0.73401 0.0
H2068 H 0.0591 0.76986 0.71741 0.0
H2069 H 0.03833 0.75338 0.75081 0.0
H2070 H 0.98535 0.71284 0.70875 0.0
H2071 H 0.00644 0.72941 0.67502 0.0
C2072 C 0.98985 0.73099 0.79308 0.0
C2073 C 0.96608 0.74245 0.79095 0.0
C2074 C 0.00353 0.72453 0.77373 0.0
C2075 C 0.99339 0.72922 0.75218 0.0
C2076 C 0.9683 0.73757 0.75035 0.0
C2077 C 0.95483 0.74433 0.76958 0.0
C2078 C 0.04339 0.75693 0.71528 0.0
C2079 C 0.03389 0.75141 0.69374 0.0
C2080 C 0.03174 0.74714 0.73442 0.0
C2081 C 0.01011 0.73193 0.73237 0.0
C2082 C 0.00196 0.72457 0.71075 0.0
C2083 C 0.01394 0.73411 0.69151 0.0
H2084 H 0.23622 0.06768 0.71996 0.0
H2085 H 0.25837 0.00482 0.67788 0.0
H2086 H 0.24797 0.04399 0.7534 0.0
H2087 H 0.27036 0.98093 0.71158 0.0
H2088 H 0.22134 0.94341 0.77029 0.0
H2089 H 0.23621 0.96504 0.73678 0.0
H2090 H 0.27631 0.0188 0.77842 0.0
H2091 H 0.26124 -0.0031 0.81231 0.0
C2092 C 0.24446 0.04908 0.71787 0.0
C2093 C 0.24571 0.03773 0.69649 0.0
C2094 C 0.2515 0.03559 0.73703 0.0
C2095 C 0.25962 0.01042 0.7351 0.0
C2096 C 0.26385 0.00022 0.71349 0.0
C2097 C 0.25701 0.01387 0.69424 0.0
C2098 C 0.23373 0.95956 0.77231 0.0
C2099 C 0.23958 0.96895 0.79384 0.0
C2100 C 0.24264 0.97171 0.75309 0.0
C2101 C 0.25735 0.9937 0.75499 0.0
C2102 C 0.26492 0.00192 0.77653 0.0
C2103 C 0.25624 0.98949 0.79586 0.0
H2104 H 0.93391 0.2303 0.71843 0.0
H2105 H 0.99092 0.26229 0.67486 0.0
H2106 H 0.95716 0.24458 0.75137 0.0
H2107 H 0.01457 0.27657 0.70811 0.0
H2108 H 0.05915 0.23243 0.76725 0.0
H2109 H 0.03611 0.24502 0.73365 0.0
H2110 H 0.97785 0.27809 0.7753 0.0
H2111 H 0.00117 0.26545 0.80919 0.0
C2112 C 0.95113 0.24103 0.71596 0.0
C2113 C 0.96101 0.24473 0.69424 0.0
C2114 C 0.96429 0.24953 0.73481 0.0
C2115 C 0.98779 0.26152 0.73229 0.0
C2116 C -0.00348 0.26729 0.71046 0.0
C2117 C 0.98306 0.25911 0.6915 0.0
C2118 C 0.0418 0.24308 0.76922 0.0
C2119 C 0.03154 0.24742 0.79071 0.0
C2120 C 0.02876 0.25061 0.74997 0.0
C2121 C 0.00504 0.26227 0.75189 0.0
C2122 C -0.00395 0.26898 0.77342 0.0
C2123 C 0.00934 0.26173 0.79276 0.0
H2124 H 0.73053 0.9916 0.67609 0.0
H2125 H 0.76392 0.93262 0.71662 0.0
H2126 H 0.71774 0.01388 0.71058 0.0
H2127 H 0.75121 0.95452 0.75077 0.0
H2128 H 0.76293 0.05674 0.76963 0.0
H2129 H 0.74953 0.03464 0.73579 0.0
H2130 H 0.71951 0.97406 0.77669 0.0
H2131 H 0.73307 -0.00358 0.81084 0.0
C2132 C 0.73431 0.98301 0.69234 0.0
C2133 C 0.74865 0.96077 0.69385 0.0
C2134 C 0.72702 -0.00429 0.71202 0.0
C2135 C 0.73368 0.98606 0.73335 0.0
C2136 C 0.74559 0.96239 0.73465 0.0
C2137 C 0.75317 0.94997 0.71509 0.0
C2138 C 0.75281 0.03904 0.77142 0.0
C2139 C 0.74958 0.02792 0.79274 0.0
C2140 C 0.74482 0.02652 0.75203 0.0
C2141 C 0.73373 0.00247 0.75359 0.0
C2142 C 0.72819 0.99252 0.77505 0.0
C2143 C 0.73594 0.00527 0.79455 0.0
H2144 H 0.43001 0.73037 0.76733 0.0
H2145 H 0.48976 0.76103 0.80869 0.0
H2146 H 0.45248 0.74323 0.7335 0.0
H2147 H 0.51264 0.7738 0.77455 0.0
H2148 H 0.55316 0.72537 0.71576 0.0
H2149 H 0.53139 0.73955 0.74953 0.0
H2150 H 0.47433 0.77537 0.70834 0.0
H2151 H 0.49644 0.76119 0.67426 0.0
C2152 C 0.44765 0.74058 0.76912 0.0
C2153 C 0.45855 0.74422 0.79044 0.0
C2154 C 0.46037 0.74826 0.74977 0.0
C2155 C 0.48441 0.75928 0.75144 0.0
C2156 C 0.49414 0.76525 0.77288 0.0
C2157 C 0.48114 0.75792 0.79234 0.0
C2158 C 0.53631 0.73681 0.71392 0.0
C2159 C 0.52603 0.74164 0.69252 0.0
C2160 C 0.52406 0.7453 0.73324 0.0
C2161 C 0.5011 0.75843 0.73151 0.0
C2162 C 0.49201 0.76523 0.71006 0.0
C2163 C 0.50455 0.75705 0.69063 0.0
H2164 H 0.26096 0.55477 0.71597 0.0
H2165 H 0.22972 0.49525 0.67464 0.0
H2166 H 0.24857 0.53214 0.74979 0.0
H2167 H 0.21711 0.47233 0.70879 0.0
H2168 H 0.23283 0.48876 0.80929 0.0
H2169 H 0.21824 0.51128 0.7756 0.0
H2170 H 0.24885 0.45192 0.73361 0.0
H2171 H 0.26316 0.4296 0.76698 0.0
C2172 C 0.25074 0.53713 0.71418 0.0
C2173 C 0.24685 0.52638 0.6928 0.0
C2174 C 0.24332 0.52429 0.73356 0.0
C2175 C 0.23214 0.50028 0.73195 0.0
C2176 C 0.22589 0.49073 0.71049 0.0
C2177 C 0.23309 0.5038 0.69098 0.0
C2178 C 0.23562 0.48019 0.79286 0.0
C2179 C 0.24971 0.45786 0.79061 0.0
C2180 C 0.22727 0.49304 0.77362 0.0
C2181 C 0.23271 0.48354 0.75197 0.0
C2182 C 0.24422 0.45973 0.75 0.0
C2183 C 0.25275 0.44708 0.76913 0.0
H2184 H 0.56983 0.25007 0.77254 0.0
H2185 H 0.49676 0.24008 0.80346 0.0
H2186 H 0.55165 0.24111 0.73557 0.0
H2187 H 0.47826 0.23172 0.76623 0.0
H2188 H 0.45379 0.22164 0.69181 0.0
H2189 H 0.47721 0.20844 0.72584 0.0
H2190 H 0.52204 0.27654 0.72168 0.0
H2191 H 0.49852 0.28975 0.68854 0.0
C2192 C 0.55005 0.24491 0.77143 0.0
C2193 C 0.53449 0.24604 0.79053 0.0
C2194 C 0.53969 0.23975 0.75036 0.0
C2195 C 0.51354 0.23621 0.74811 0.0
C2196 C 0.49851 0.23427 0.7676 0.0
C2197 C 0.509 0.23915 0.78883 0.0
C2198 C 0.469 0.23338 0.6981 0.0
C2199 C 0.47441 0.25672 0.68788 0.0
C2200 C 0.4823 0.22588 0.71742 0.0
C2201 C 0.50155 0.24134 0.72613 0.0
C2202 C 0.50761 0.26403 0.71508 0.0
C2203 C 0.49403 0.27173 0.69628 0.0
H2204 H 0.72639 0.43722 0.71581 0.0
H2205 H 0.75653 0.49612 0.67315 0.0
H2206 H 0.73849 0.46105 0.74912 0.0
H2207 H 0.76868 0.52027 0.70675 0.0
H2208 H 0.72331 0.56353 0.76544 0.0
H2209 H 0.73639 0.5406 0.73193 0.0
H2210 H 0.77009 0.48285 0.77375 0.0
H2211 H 0.75684 0.50587 0.80752 0.0
C2212 C 0.7363 0.45498 0.71362 0.0
C2213 C 0.74006 0.46515 0.69201 0.0
C2214 C 0.74351 0.46852 0.7327 0.0
C2215 C 0.75431 0.49265 0.73052 0.0
C2216 C 0.76025 0.50176 0.70886 0.0
C2217 C 0.75333 0.48797 0.68968 0.0
C2218 C 0.7341 0.54629 0.7675 0.0
C2219 C 0.73845 0.53612 0.78905 0.0
C2220 C 0.74191 0.5333 0.74828 0.0
C2221 C 0.754 0.50977 0.75025 0.0
C2222 C 0.76061 0.50086 0.77181 0.0
C2223 C 0.75301 0.51403 0.7911 0.0
H2224 H 0.43801 0.2602 0.26745 0.0
H2225 H 0.49759 0.22933 0.30887 0.0
H2226 H 0.46095 0.24822 0.23365 0.0
H2227 H 0.52089 0.21729 0.27474 0.0
H2228 H 0.56262 0.26434 0.21617 0.0
H2229 H 0.54055 0.25022 0.24977 0.0
H2230 H 0.48226 0.21698 0.20822 0.0
H2231 H 0.50454 0.23126 0.17431 0.0
C2232 C 0.45576 0.25019 0.26925 0.0
C2233 C 0.4664 0.24619 0.29063 0.0
C2234 C 0.46876 0.243 0.24989 0.0
C2235 C 0.49283 0.23203 0.25157 0.0
C2236 C 0.5024 0.22584 0.27303 0.0
C2237 C 0.48913 0.23273 0.2925 0.0
C2238 C 0.54542 0.25344 0.21418 0.0
C2239 C 0.53486 0.24948 0.19273 0.0
C2240 C 0.53296 0.24501 0.23343 0.0
C2241 C 0.50954 0.23273 0.2316 0.0
C2242 C 0.50023 0.22656 0.21005 0.0
C2243 C 0.51292 0.23476 0.1907 0.0
H2244 H 0.731 0.56445 0.21742 0.0
H2245 H 0.76056 0.50514 0.17489 0.0
H2246 H 0.74387 0.54111 0.25078 0.0
H2247 H 0.77344 0.48149 0.20852 0.0
H2248 H 0.7246 0.43967 0.26597 0.0
H2249 H 0.73933 0.46235 0.23289 0.0
H2250 H 0.7749 0.51802 0.27579 0.0
H2251 H 0.76016 0.49495 0.30919 0.0
C2252 C 0.74104 0.54676 0.21526 0.0
C2253 C 0.74425 0.53621 0.19373 0.0
C2254 C 0.74871 0.53352 0.23436 0.0
C2255 C 0.75934 0.50932 0.23222 0.0
C2256 C 0.76513 0.50006 0.21057 0.0
C2257 C 0.75775 0.51354 0.19138 0.0
C2258 C 0.73615 0.45638 0.26833 0.0
C2259 C 0.74075 0.46598 0.29002 0.0
C2260 C 0.74493 0.46918 0.24939 0.0
C2261 C 0.75813 0.49205 0.25179 0.0
C2262 C 0.76471 0.50044 0.27354 0.0
C2263 C 0.75623 0.48733 0.29258 0.0
H2264 H 0.48106 0.76022 0.17553 0.0
H2265 H 0.42591 0.72131 0.21651 0.0
H2266 H 0.50197 0.77553 0.20978 0.0
H2267 H 0.44661 0.73648 0.25045 0.0
H2268 H 0.48681 0.75887 0.31004 0.0
H2269 H 0.46326 0.77072 0.27599 0.0
H2270 H 0.52566 0.74536 0.23478 0.0
H2271 H 0.54881 0.73349 0.26852 0.0
C2272 C 0.473 0.75558 0.19181 0.0
C2273 C 0.45237 0.73901 0.19348 0.0
C2274 C 0.48488 0.7644 0.21135 0.0
C2275 C 0.47603 0.75701 0.23273 0.0
C2276 C 0.45378 0.74268 0.23424 0.0
C2277 C 0.44215 0.73363 0.2148 0.0
C2278 C 0.49573 0.75677 0.29369 0.0
C2279 C 0.51925 0.74477 0.29169 0.0
C2280 C 0.48233 0.76355 0.27427 0.0
C2281 C 0.49253 0.75868 0.25278 0.0
C2282 C 0.51734 0.7495 0.25107 0.0
C2283 C 0.53049 0.7424 0.27037 0.0
H2284 H 0.24449 0.41495 0.21062 0.0
H2285 H 0.23829 0.48889 0.18047 0.0
H2286 H 0.23304 0.43255 0.24726 0.0
H2287 H 0.22778 0.50684 0.21737 0.0
H2288 H 0.21761 0.534 0.28912 0.0
H2289 H 0.20421 0.51035 0.25531 0.0
H2290 H 0.26668 0.45883 0.26494 0.0
H2291 H 0.27997 0.48245 0.29793 0.0
C2292 C 0.23967 0.43482 0.21176 0.0
C2293 C 0.2426 0.45075 0.19305 0.0
C2294 C 0.23313 0.44489 0.23266 0.0
C2295 C 0.23018 0.47112 0.23521 0.0
C2296 C 0.22991 0.48655 0.21587 0.0
C2297 C 0.23604 0.47634 0.19479 0.0
C2298 C 0.22792 0.51721 0.28415 0.0
C2299 C 0.24986 0.50997 0.29577 0.0
C2300 C 0.22032 0.50377 0.26492 0.0
C2301 C 0.23427 0.48267 0.25762 0.0
C2302 C 0.25522 0.47468 0.27033 0.0
C2303 C 0.26304 0.48832 0.28908 0.0
H2304 H 0.11012 0.19014 0.93681 0.0
H2305 H 0.04349 0.23737 0.93641 0.0
H2306 H 0.1082 0.18784 0.97778 0.0
H2307 H 0.04212 0.23587 0.97742 0.0
H2308 H 0.11476 0.21404 0.05079 0.0
H2309 H 0.11537 0.21389 0.00977 0.0
H2310 H 0.03385 0.20906 0.00878 0.0
H2311 H 0.0332 0.21018 0.04986 0.0
C2312 C 0.09514 0.20015 0.94548 0.0
C2313 C 0.07701 0.214 0.93338 0.0
C2314 C 0.09411 0.19893 0.96898 0.0
C2315 C 0.07508 0.21178 0.98092 0.0
C2316 C 0.0568 0.22543 0.96877 0.0
C2317 C 0.05767 0.22641 0.94524 0.0
C2318 C 0.09696 0.21286 0.04182 0.0
C2319 C 0.07393 0.21222 0.05357 0.0
C2320 C 0.09732 0.21263 0.01829 0.0
C2321 C 0.07465 0.21144 0.00596 0.0
C2322 C 0.05163 0.21042 0.01774 0.0
C2323 C 0.05126 0.21094 0.04129 0.0
H2324 H 0.77944 0.11704 0.05163 0.0
H2325 H 0.78033 0.03534 0.05294 0.0
H2326 H 0.78311 0.11618 0.01065 0.0
H2327 H 0.78485 0.03451 0.01213 0.0
H2328 H 0.76071 0.04249 0.9384 0.0
H2329 H 0.76017 0.04258 0.97939 0.0
H2330 H 0.81089 0.10661 0.97993 0.0
H2331 H 0.81079 0.10705 0.93883 0.0
C2332 C 0.78069 0.09891 0.04321 0.0
C2333 C 0.77937 0.07627 0.05556 0.0
C2334 C 0.78295 0.09841 0.01971 0.0
C2335 C 0.78419 0.07526 0.00806 0.0
C2336 C 0.78345 0.05266 0.0205 0.0
C2337 C 0.78096 0.05315 0.04394 0.0
C2338 C 0.77192 0.05648 0.94722 0.0
C2339 C 0.78569 0.07484 0.93528 0.0
C2340 C 0.7717 0.05646 0.97078 0.0
C2341 C 0.78542 0.07466 0.983 0.0
C2342 C 0.79974 0.09261 0.97106 0.0
C2343 C 0.79981 0.09275 0.94748 0.0
H2344 H 0.94701 0.75516 0.93537 0.0
H2345 H 0.88094 0.80314 0.93361 0.0
H2346 H 0.94678 0.75664 0.9763 0.0
H2347 H 0.88126 0.80539 0.9747 0.0
H2348 H 0.87273 0.77839 0.04801 0.0
H2349 H 0.87297 0.77963 0.00692 0.0
H2350 H 0.95453 0.78365 0.00745 0.0
H2351 H 0.95432 0.78144 0.04843 0.0
C2352 C 0.9326 0.7663 0.94371 0.0
C2353 C 0.91395 0.77898 0.93122 0.0
C2354 C 0.93256 0.76728 0.96722 0.0
C2355 C 0.91404 0.78119 0.97882 0.0
C2356 C 0.89558 0.79419 0.96631 0.0
C2357 C 0.89546 0.793 0.94276 0.0
C2358 C 0.8907 0.77965 0.03933 0.0
C2359 C 0.91351 0.77958 0.05145 0.0
C2360 C 0.89084 0.78051 0.01578 0.0
C2361 C 0.91378 0.78161 0.00386 0.0
C2362 C 0.93655 0.78226 0.01606 0.0
C2363 C 0.93642 0.7811 0.03957 0.0
H2364 H 0.19044 0.8789 0.93682 0.0
H2365 H 0.2362 0.94657 0.93882 0.0
H2366 H 0.18818 0.879 0.97791 0.0
H2367 H 0.23465 0.94617 0.97975 0.0
H2368 H 0.21468 0.87208 0.05161 0.0
H2369 H 0.21411 0.87188 0.01051 0.0
H2370 H 0.20634 0.95323 0.01032 0.0
H2371 H 0.2078 0.95352 0.05133 0.0
C2372 C 0.20014 0.89369 0.94602 0.0
C2373 C 0.21345 0.91276 0.93455 0.0
C2374 C 0.19894 0.89369 0.96956 0.0
C2375 C 0.21117 0.91263 0.98211 0.0
C2376 C 0.22458 0.93159 0.97061 0.0
C2377 C 0.2256 0.93173 0.94711 0.0
C2378 C 0.21272 0.88991 0.04278 0.0
C2379 C 0.21151 0.91284 0.05471 0.0
C2380 C 0.21227 0.88978 0.01922 0.0
C2381 C 0.21035 0.91255 0.00713 0.0
C2382 C 0.20839 0.9354 0.01911 0.0
C2383 C 0.2091 0.93556 0.04263 0.0
H2384 H 0.11369 0.81302 0.54925 0.0
H2385 H 0.05285 0.75849 0.54907 0.0
H2386 H 0.11295 0.8139 0.50814 0.0
H2387 H 0.05275 0.75866 0.5081 0.0
H2388 H 0.04391 0.7795 0.4347 0.0
H2389 H 0.0427 0.78312 0.47568 0.0
H2390 H 0.12423 0.78755 0.47725 0.0
H2391 H 0.12537 0.7849 0.43636 0.0
C2392 C 0.10024 0.80115 0.54044 0.0
C2393 C 0.08339 0.78564 0.55242 0.0
C2394 C 0.09988 0.80157 0.51688 0.0
C2395 C 0.08285 0.78628 0.50481 0.0
C2396 C 0.06583 0.77099 0.51683 0.0
C2397 C 0.066 0.77078 0.54036 0.0
C2398 C 0.06155 0.78132 0.44382 0.0
C2399 C 0.08473 0.78185 0.43229 0.0
C2400 C 0.06087 0.7833 0.46731 0.0
C2401 C 0.08337 0.78556 0.47978 0.0
C2402 C 0.10651 0.78628 0.46818 0.0
C2403 C 0.10717 0.78459 0.44471 0.0
H2404 H 0.23486 0.05518 0.43965 0.0
H2405 H 0.17974 0.11542 0.43764 0.0
H2406 H 0.23292 0.05502 0.48062 0.0
H2407 H 0.17699 0.11457 0.47866 0.0
H2408 H 0.20191 0.12633 0.55168 0.0
H2409 H 0.20121 0.12569 0.51076 0.0
H2410 H 0.20665 0.04412 0.51165 0.0
H2411 H 0.20841 0.04486 0.55275 0.0
C2412 C 0.22216 0.06825 0.44798 0.0
C2413 C 0.20755 0.08541 0.43547 0.0
C2414 C 0.22088 0.06801 0.47146 0.0
C2415 C 0.20472 0.08471 0.48293 0.0
C2416 C 0.18992 0.10173 0.47037 0.0
C2417 C 0.19145 0.10219 0.44687 0.0
C2418 C 0.20277 0.10822 0.54317 0.0
C2419 C 0.20536 0.08564 0.55542 0.0
C2420 C 0.20223 0.10785 0.51968 0.0
C2421 C 0.20394 0.08487 0.50791 0.0
C2422 C 0.20579 0.0622 0.5202 0.0
C2423 C 0.20665 0.06259 0.54374 0.0
H2424 H 0.94534 0.20923 0.55157 0.0
H2425 H 0.86369 0.20975 0.55245 0.0
H2426 H 0.9448 0.20639 0.51064 0.0
H2427 H 0.86317 0.20775 0.51137 0.0
H2428 H 0.87079 0.1824 0.43836 0.0
H2429 H 0.87197 0.18119 0.47946 0.0
H2430 H 0.93535 0.2327 0.47915 0.0
H2431 H 0.93471 0.23328 0.43819 0.0
C2432 C 0.92725 0.20886 0.54303 0.0
C2433 C 0.90455 0.20987 0.55529 0.0
C2434 C 0.92696 0.20734 0.51952 0.0
C2435 C 0.90395 0.20703 0.50768 0.0
C2436 C 0.88123 0.20763 0.51996 0.0
C2437 C 0.88152 0.20893 0.54351 0.0
C2438 C 0.88505 0.19337 0.44706 0.0
C2439 C 0.90265 0.20794 0.43495 0.0
C2440 C 0.88564 0.19279 0.47064 0.0
C2441 C 0.90373 0.20687 0.48262 0.0
C2442 C 0.92143 0.22128 0.47047 0.0
C2443 C 0.92096 0.22172 0.44694 0.0
H2444 H 0.75687 0.9358 0.43538 0.0
H2445 H 0.8092 0.87307 0.4365 0.0
H2446 H 0.75704 0.93699 0.4763 0.0
H2447 H 0.81009 0.87487 0.47762 0.0
H2448 H 0.78188 0.86648 0.5502 0.0
H2449 H 0.7838 0.86577 0.50922 0.0
H2450 H 0.7822 0.94747 0.50807 0.0
H2451 H 0.77932 0.94815 0.54907 0.0
C2452 C 0.76867 0.92243 0.44435 0.0
C2453 C 0.78297 0.90427 0.43266 0.0
C2454 C 0.76888 0.92323 0.46786 0.0
C2455 C 0.78361 0.90606 0.48028 0.0
C2456 C 0.79822 0.88812 0.46858 0.0
C2457 C 0.79781 0.88715 0.44502 0.0
C2458 C 0.78199 0.8843 0.54121 0.0
C2459 C 0.7803 0.90737 0.55289 0.0
C2460 C 0.78327 0.8839 0.5177 0.0
C2461 C 0.78315 0.90656 0.50532 0.0
C2462 C 0.78188 0.92965 0.51705 0.0
C2463 C 0.78032 0.93005 0.54056 0.0
H2464 H 0.60868 0.68863 0.43339 0.0
H2465 H 0.54197 0.7357 0.43602 0.0
H2466 H 0.60957 0.68711 0.47449 0.0
H2467 H 0.54338 0.73489 0.47695 0.0
H2468 H 0.53785 0.70981 0.54919 0.0
H2469 H 0.53683 0.70751 0.50826 0.0
H2470 H 0.61821 0.71384 0.50631 0.0
H2471 H 0.61931 0.71524 0.54742 0.0
C2472 C 0.59427 0.69873 0.44273 0.0
C2473 C 0.57524 0.71227 0.43144 0.0
C2474 C 0.59486 0.69796 0.46628 0.0
C2475 C 0.57655 0.71087 0.479 0.0
C2476 C 0.5575 0.72434 0.46767 0.0
C2477 C 0.55677 0.72492 0.44417 0.0
C2478 C 0.55555 0.71067 0.54005 0.0
C2479 C 0.57866 0.71288 0.55153 0.0
C2480 C 0.55495 0.70945 0.51657 0.0
C2481 C 0.57741 0.71071 0.504 0.0
C2482 C 0.60058 0.71252 0.5155 0.0
C2483 C 0.60121 0.71346 0.53904 0.0
H2484 H 0.27282 0.61737 0.43335 0.0
H2485 H 0.28063 0.53602 0.43469 0.0
H2486 H 0.27408 0.61825 0.4745 0.0
H2487 H 0.28268 0.537 0.4756 0.0
H2488 H 0.25484 0.54438 0.54766 0.0
H2489 H 0.25502 0.54433 0.5067 0.0
H2490 H 0.30128 0.61165 0.50665 0.0
H2491 H 0.30049 0.61218 0.54778 0.0
C2492 C 0.27504 0.59972 0.4424 0.0
C2493 C 0.27639 0.57662 0.43075 0.0
C2494 C 0.2759 0.60023 0.46597 0.0
C2495 C 0.27832 0.57767 0.47834 0.0
C2496 C 0.28026 0.55467 0.46662 0.0
C2497 C 0.27919 0.55413 0.44313 0.0
C2498 C 0.26514 0.55915 0.53896 0.0
C2499 C 0.27765 0.57828 0.55103 0.0
C2500 C 0.26534 0.55904 0.51544 0.0
C2501 C 0.27824 0.57794 0.50339 0.0
C2502 C 0.29089 0.59701 0.51543 0.0
C2503 C 0.29055 0.59723 0.53901 0.0
H2504 H 0.36816 0.27015 0.54847 0.0
H2505 H 0.4489 0.28239 0.54762 0.0
H2506 H 0.3678 0.26971 0.50726 0.0
H2507 H 0.4484 0.28273 0.50669 0.0
H2508 H 0.44414 0.2522 0.43557 0.0
H2509 H 0.44306 0.2533 0.47652 0.0
H2510 H 0.37353 0.29604 0.47431 0.0
H2511 H 0.37416 0.29429 0.4332 0.0
C2512 C 0.38576 0.27299 0.53951 0.0
C2513 C 0.40858 0.27605 0.55131 0.0
C2514 C 0.38555 0.27285 0.51591 0.0
C2515 C 0.40812 0.27596 0.5037 0.0
C2516 C 0.43078 0.27969 0.51556 0.0
C2517 C 0.43103 0.27961 0.53906 0.0
C2518 C 0.42862 0.26188 0.44377 0.0
C2519 C 0.40926 0.27319 0.43109 0.0
C2520 C 0.42807 0.26262 0.46728 0.0
C2521 C 0.40828 0.27489 0.47869 0.0
C2522 C 0.38887 0.28617 0.46603 0.0
C2523 C 0.38932 0.28528 0.44247 0.0
H2524 H 0.73404 0.44509 0.54653 0.0
H2525 H 0.6845 0.3801 0.54765 0.0
H2526 H 0.73274 0.44515 0.50551 0.0
H2527 H 0.68257 0.38069 0.50662 0.0
H2528 H 0.70911 0.37188 0.43344 0.0
H2529 H 0.70863 0.37198 0.47452 0.0
H2530 H 0.70533 0.45363 0.47437 0.0
H2531 H 0.70664 0.45359 0.43334 0.0
C2532 C 0.72268 0.43096 0.53804 0.0
C2533 C 0.70946 0.41253 0.55037 0.0
C2534 C 0.72181 0.43108 0.51451 0.0
C2535 C 0.70753 0.41293 0.50277 0.0
C2536 C 0.69407 0.39469 0.51512 0.0
C2537 C 0.6951 0.39443 0.53866 0.0
C2538 C 0.70816 0.38985 0.44217 0.0
C2539 C 0.70807 0.41273 0.43012 0.0
C2540 C 0.70776 0.38991 0.46573 0.0
C2541 C 0.70704 0.41283 0.47774 0.0
C2542 C 0.70638 0.43567 0.46565 0.0
C2543 C 0.707 0.43563 0.44211 0.0
H2544 H 0.61591 0.30926 0.04796 0.0
H2545 H 0.55148 0.25902 0.04706 0.0
H2546 H 0.61578 0.31027 0.00687 0.0
H2547 H 0.55187 0.25941 0.00609 0.0
H2548 H 0.54487 0.2819 0.93319 0.0
H2549 H 0.54392 0.28556 0.97405 0.0
H2550 H 0.62549 0.28268 0.97581 0.0
H2551 H 0.6265 0.27985 0.93478 0.0
C2552 C 0.60173 0.29842 0.03901 0.0
C2553 C 0.58374 0.28401 0.0508 0.0
C2554 C 0.60175 0.2989 0.01546 0.0
C2555 C 0.5839 0.28484 0.0032 0.0
C2556 C 0.56567 0.27076 0.01501 0.0
C2557 C 0.56551 0.27044 0.03853 0.0
C2558 C 0.56263 0.28209 0.94227 0.0
C2559 C 0.58577 0.28041 0.93075 0.0
C2560 C 0.56206 0.2841 0.96571 0.0
C2561 C 0.58461 0.28424 0.9782 0.0
C2562 C 0.60779 0.28296 0.96667 0.0
C2563 C 0.60837 0.28118 0.94316 0.0
H2564 H 0.73431 0.55295 0.9363 0.0
H2565 H 0.67561 0.60977 0.93519 0.0
H2566 H 0.73339 0.55308 0.97737 0.0
H2567 H 0.67415 0.60929 0.97621 0.0
H2568 H 0.70124 0.62469 0.0482 0.0
H2569 H 0.69967 0.62295 0.0072 0.0
H2570 H 0.70852 0.54177 0.00959 0.0
H2571 H 0.7109 0.54357 0.05057 0.0
C2572 C 0.72098 0.56522 0.9448 0.0
C2573 C 0.70518 0.58148 0.93247 0.0
C2574 C 0.72036 0.56521 0.96836 0.0
C2575 C 0.70378 0.5813 0.98008 0.0
C2576 C 0.6875 0.59704 0.96771 0.0
C2577 C 0.68826 0.5972 0.94418 0.0
C2578 C 0.70274 0.60646 0.04 0.0
C2579 C 0.70634 0.5843 0.05266 0.0
C2580 C 0.7017 0.60543 0.01648 0.0
C2581 C 0.704 0.58221 0.00511 0.0
C2582 C 0.70712 0.56 0.0178 0.0
C2583 C 0.70836 0.56104 0.04131 0.0
H2584 H 0.36453 0.70924 0.93419 0.0
H2585 H 0.44614 0.71232 0.93349 0.0
H2586 H 0.36511 0.70683 0.97522 0.0
H2587 H 0.44674 0.70901 0.9744 0.0
H2588 H 0.43665 0.73418 0.04752 0.0
H2589 H 0.43683 0.73424 0.00653 0.0
H2590 H 0.37589 0.67983 0.00617 0.0
H2591 H 0.37511 0.68043 0.04725 0.0
C2592 C 0.38259 0.70915 0.94278 0.0
C2593 C 0.40527 0.71116 0.93062 0.0
C2594 C 0.38294 0.7076 0.96629 0.0
C2595 C 0.40598 0.70778 0.97808 0.0
C2596 C 0.42866 0.7093 0.96586 0.0
C2597 C 0.42831 0.71111 0.94239 0.0
C2598 C 0.42339 0.72211 0.03872 0.0
C2599 C 0.40578 0.7074 0.05064 0.0
C2600 C 0.42357 0.72204 0.0152 0.0
C2601 C 0.40634 0.70707 0.00308 0.0
C2602 C 0.38911 0.69191 0.01501 0.0
C2603 C 0.38876 0.69216 0.03855 0.0
H2604 H 0.25698 0.43652 0.04787 0.0
H2605 H 0.31471 0.37876 0.04954 0.0
H2606 H 0.26021 0.43834 0.00701 0.0
H2607 H 0.31867 0.38129 0.00866 0.0
H2608 H 0.28409 0.45019 0.93494 0.0
H2609 H 0.28601 0.45067 0.97604 0.0
H2610 H 0.29506 0.36943 0.97635 0.0
H2611 H 0.29413 0.36908 0.93544 0.0
C2612 C 0.27061 0.42444 0.03953 0.0
C2613 C 0.28543 0.40733 0.05191 0.0
C2614 C 0.2726 0.42562 0.01609 0.0
C2615 C 0.28967 0.40993 0.00453 0.0
C2616 C 0.30499 0.39331 0.017 0.0
C2617 C 0.30279 0.39191 0.04043 0.0
C2618 C 0.28668 0.43248 0.94381 0.0
C2619 C 0.28886 0.4096 0.93193 0.0
C2620 C 0.28766 0.43273 0.96736 0.0
C2621 C 0.29057 0.41007 0.97951 0.0
C2622 C 0.29322 0.38728 0.96756 0.0
C2623 C 0.29253 0.38707 0.94406 0.0
loop_
_geom_bond_atom_site_label_1
_geom_bond_atom_site_label_2
_geom_bond_distance
_geom_bond_site_symmetry_2
_ccdc_geom_bond_type
Sc0 O3 2.025 . S
Sc0 O10 2.105 . S
Sc0 O13 2.105 . S
Sc0 O16 2.105 . S
Sc0 O19 2.105 . S
Sc1 O3 2.025 . S
Sc1 O11 2.105 . S
Sc1 O15 2.105 . S
Sc1 O17 2.105 . S
Sc1 O21 2.105 . S
Sc2 O3 2.025 . S
Sc2 O12 2.105 . S
Sc2 O14 2.105 . S
Sc2 O18 2.105 . S
Sc2 O20 2.105 . S
O3 Sc0 2.025 . S
O3 Sc1 2.025 . S
O3 Sc2 2.025 . S
C4 O10 1.268 . S
C4 O20 1.268 . S
C5 O11 1.268 . S
C5 O19 1.268 . S
C6 O12 1.268 . S
C6 O21 1.268 . S
C7 O13 1.268 . S
C7 O17 1.268 . S
C8 O14 1.268 . S
C8 O16 1.268 . S
C9 O15 1.268 . S
C9 O18 1.268 . S
O10 Sc0 2.105 . S
O10 C4 1.268 . S
O11 Sc1 2.105 . S
O11 C5 1.268 . S
O12 Sc2 2.105 . S
O12 C6 1.268 . S
O13 Sc0 2.105 . S
O13 C7 1.268 . S
O14 Sc2 2.105 . S
O14 C8 1.268 . S
O15 Sc1 2.105 . S
O15 C9 1.268 . S
O16 Sc0 2.105 . S
O16 C8 1.268 . S
O17 Sc1 2.105 . S
O17 C7 1.268 . S
O18 Sc2 2.105 . S
O18 C9 1.268 . S
O19 Sc0 2.105 . S
O19 C5 1.268 . S
O20 Sc2 2.105 . S
O20 C4 1.268 . S
O21 Sc1 2.105 . S
O21 C6 1.268 . S
Sc22 O25 2.025 . S
Sc22 O32 2.105 . S
Sc22 O35 2.105 . S
Sc22 O38 2.105 . S
Sc22 O41 2.105 . S
Sc23 O25 2.025 . S
Sc23 O33 2.105 . S
Sc23 O37 2.105 . S
Sc23 O39 2.105 . S
Sc23 O43 2.105 . S
Sc24 O25 2.025 . S
Sc24 O34 2.105 . S
Sc24 O36 2.105 . S
Sc24 O40 2.105 . S
Sc24 O42 2.105 . S
O25 Sc22 2.025 . S
O25 Sc23 2.025 . S
O25 Sc24 2.025 . S
C26 O32 1.268 . S
C26 O42 1.268 . S
C27 O33 1.268 . S
C27 O41 1.268 . S
C28 O34 1.268 . S
C28 O43 1.268 . S
C29 O35 1.268 . S
C29 O39 1.268 . S
C30 O36 1.268 . S
C30 O38 1.268 . S
C31 O37 1.268 . S
C31 O40 1.268 . S
O32 Sc22 2.105 . S
O32 C26 1.268 . S
O33 Sc23 2.105 . S
O33 C27 1.268 . S
O34 Sc24 2.105 . S
O34 C28 1.268 . S
O35 Sc22 2.105 . S
O35 C29 1.268 . S
O36 Sc24 2.105 . S
O36 C30 1.268 . S
O37 Sc23 2.105 . S
O37 C31 1.268 . S
O38 Sc22 2.105 . S
O38 C30 1.268 . S
O39 Sc23 2.105 . S
O39 C29 1.268 . S
O40 Sc24 2.105 . S
O40 C31 1.268 . S
O41 Sc22 2.105 . S
O41 C27 1.268 . S
O42 Sc24 2.105 . S
O42 C26 1.268 . S
O43 Sc23 2.105 . S
O43 C28 1.268 . S
Sc44 O47 2.025 . S
Sc44 O54 2.105 . S
Sc44 O57 2.105 . S
Sc44 O60 2.105 . S
Sc44 O63 2.105 . S
Sc45 O47 2.025 . S
Sc45 O55 2.105 . S
Sc45 O59 2.105 . S
Sc45 O61 2.105 . S
Sc45 O65 2.105 . S
Sc46 O47 2.025 . S
Sc46 O56 2.105 . S
Sc46 O58 2.105 . S
Sc46 O62 2.105 . S
Sc46 O64 2.105 . S
O47 Sc44 2.025 . S
O47 Sc45 2.025 . S
O47 Sc46 2.025 . S
C48 O54 1.268 . S
C48 O64 1.268 . S
C49 O55 1.268 . S
C49 O63 1.268 . S
C50 O56 1.268 . S
C50 O65 1.268 . S
C51 O57 1.268 . S
C51 O61 1.268 . S
C52 O58 1.268 . S
C52 O60 1.268 . S
C53 O59 1.268 . S
C53 O62 1.268 . S
O54 Sc44 2.105 . S
O54 C48 1.268 . S
O55 Sc45 2.105 . S
O55 C49 1.268 . S
O56 Sc46 2.105 . S
O56 C50 1.268 . S
O57 Sc44 2.105 . S
O57 C51 1.268 . S
O58 Sc46 2.105 . S
O58 C52 1.268 . S
O59 Sc45 2.105 . S
O59 C53 1.268 . S
O60 Sc44 2.105 . S
O60 C52 1.268 . S
O61 Sc45 2.105 . S
O61 C51 1.268 . S
O62 Sc46 2.105 . S
O62 C53 1.268 . S
O63 Sc44 2.105 . S
O63 C49 1.268 . S
O64 Sc46 2.105 . S
O64 C48 1.268 . S
O65 Sc45 2.105 . S
O65 C50 1.268 . S
Sc66 O69 2.025 . S
Sc66 O76 2.105 . S
Sc66 O79 2.105 . S
Sc66 O82 2.105 . S
Sc66 O85 2.105 . S
Sc67 O69 2.025 . S
Sc67 O77 2.105 . S
Sc67 O81 2.105 . S
Sc67 O83 2.105 . S
Sc67 O87 2.105 . S
Sc68 O69 2.025 . S
Sc68 O78 2.105 . S
Sc68 O80 2.105 . S
Sc68 O84 2.105 . S
Sc68 O86 2.105 . S
O69 Sc66 2.025 . S
O69 Sc67 2.025 . S
O69 Sc68 2.025 . S
C70 O76 1.268 . S
C70 O86 1.268 . S
C71 O77 1.268 . S
C71 O85 1.268 . S
C72 O78 1.268 . S
C72 O87 1.268 . S
C73 O79 1.268 . S
C73 O83 1.268 . S
C74 O80 1.268 . S
C74 O82 1.268 . S
C75 O81 1.268 . S
C75 O84 1.268 . S
O76 Sc66 2.105 . S
O76 C70 1.268 . S
O77 Sc67 2.105 . S
O77 C71 1.268 . S
O78 Sc68 2.105 . S
O78 C72 1.268 . S
O79 Sc66 2.105 . S
O79 C73 1.268 . S
O80 Sc68 2.105 . S
O80 C74 1.268 . S
O81 Sc67 2.105 . S
O81 C75 1.268 . S
O82 Sc66 2.105 . S
O82 C74 1.268 . S
O83 Sc67 2.105 . S
O83 C73 1.268 . S
O84 Sc68 2.105 . S
O84 C75 1.268 . S
O85 Sc66 2.105 . S
O85 C71 1.268 . S
O86 Sc68 2.105 . S
O86 C70 1.268 . S
O87 Sc67 2.105 . S
O87 C72 1.268 . S
Sc88 O91 2.025 . S
Sc88 O98 2.105 . S
Sc88 O101 2.105 . S
Sc88 O104 2.105 . S
Sc88 O107 2.105 . S
Sc89 O91 2.025 . S
Sc89 O99 2.105 . S
Sc89 O103 2.105 . S
Sc89 O105 2.105 . S
Sc89 O109 2.105 . S
Sc90 O91 2.025 . S
Sc90 O100 2.105 . S
Sc90 O102 2.105 . S
Sc90 O106 2.105 . S
Sc90 O108 2.105 . S
O91 Sc88 2.025 . S
O91 Sc89 2.025 . S
O91 Sc90 2.025 . S
C92 O98 1.268 . S
C92 O108 1.268 . S
C93 O99 1.268 . S
C93 O107 1.268 . S
C94 O100 1.268 . S
C94 O109 1.268 . S
C95 O101 1.268 . S
C95 O105 1.268 . S
C96 O102 1.268 . S
C96 O104 1.268 . S
C97 O103 1.268 . S
C97 O106 1.268 . S
O98 Sc88 2.105 . S
O98 C92 1.268 . S
O99 Sc89 2.105 . S
O99 C93 1.268 . S
O100 Sc90 2.105 . S
O100 C94 1.268 . S
O101 Sc88 2.105 . S
O101 C95 1.268 . S
O102 Sc90 2.105 . S
O102 C96 1.268 . S
O103 Sc89 2.105 . S
O103 C97 1.268 . S
O104 Sc88 2.105 . S
O104 C96 1.268 . S
O105 Sc89 2.105 . S
O105 C95 1.268 . S
O106 Sc90 2.105 . S
O106 C97 1.268 . S
O107 Sc88 2.105 . S
O107 C93 1.268 . S
O108 Sc90 2.105 . S
O108 C92 1.268 . S
O109 Sc89 2.105 . S
O109 C94 1.268 . S
Sc110 O113 2.025 . S
Sc110 O120 2.105 . S
Sc110 O123 2.105 . S
Sc110 O126 2.105 . S
Sc110 O129 2.105 . S
Sc111 O113 2.025 . S
Sc111 O121 2.105 . S
Sc111 O125 2.105 . S
Sc111 O127 2.105 . S
Sc111 O131 2.105 . S
Sc112 O113 2.025 . S
Sc112 O122 2.105 . S
Sc112 O124 2.105 . S
Sc112 O128 2.105 . S
Sc112 O130 2.105 . S
O113 Sc110 2.025 . S
O113 Sc111 2.025 . S
O113 Sc112 2.025 . S
C114 O120 1.268 . S
C114 O130 1.268 . S
C115 O121 1.268 . S
C115 O129 1.268 . S
C116 O122 1.268 . S
C116 O131 1.268 . S
C117 O123 1.268 . S
C117 O127 1.268 . S
C118 O124 1.268 . S
C118 O126 1.268 . S
C119 O125 1.268 . S
C119 O128 1.268 . S
O120 Sc110 2.105 . S
O120 C114 1.268 . S
O121 Sc111 2.105 . S
O121 C115 1.268 . S
O122 Sc112 2.105 . S
O122 C116 1.268 . S
O123 Sc110 2.105 . S
O123 C117 1.268 . S
O124 Sc112 2.105 . S
O124 C118 1.268 . S
O125 Sc111 2.105 . S
O125 C119 1.268 . S
O126 Sc110 2.105 . S
O126 C118 1.268 . S
O127 Sc111 2.105 . S
O127 C117 1.268 . S
O128 Sc112 2.105 . S
O128 C119 1.268 . S
O129 Sc110 2.105 . S
O129 C115 1.268 . S
O130 Sc112 2.105 . S
O130 C114 1.268 . S
O131 Sc111 2.105 . S
O131 C116 1.268 . S
Sc132 O135 2.025 . S
Sc132 O142 2.105 . S
Sc132 O145 2.105 . S
Sc132 O148 2.105 . S
Sc132 O151 2.105 . S
Sc133 O135 2.025 . S
Sc133 O143 2.105 . S
Sc133 O147 2.105 . S
Sc133 O149 2.105 . S
Sc133 O153 2.105 . S
Sc134 O135 2.025 . S
Sc134 O144 2.105 . S
Sc134 O146 2.105 . S
Sc134 O150 2.105 . S
Sc134 O152 2.105 . S
O135 Sc132 2.025 . S
O135 Sc133 2.025 . S
O135 Sc134 2.025 . S
C136 O142 1.268 . S
C136 O152 1.268 . S
C137 O143 1.268 . S
C137 O151 1.268 . S
C138 O144 1.268 . S
C138 O153 1.268 . S
C139 O145 1.268 . S
C139 O149 1.268 . S
C140 O146 1.268 . S
C140 O148 1.268 . S
C141 O147 1.268 . S
C141 O150 1.268 . S
O142 Sc132 2.105 . S
O142 C136 1.268 . S
O143 Sc133 2.105 . S
O143 C137 1.268 . S
O144 Sc134 2.105 . S
O144 C138 1.268 . S
O145 Sc132 2.105 . S
O145 C139 1.268 . S
O146 Sc134 2.105 . S
O146 C140 1.268 . S
O147 Sc133 2.105 . S
O147 C141 1.268 . S
O148 Sc132 2.105 . S
O148 C140 1.268 . S
O149 Sc133 2.105 . S
O149 C139 1.268 . S
O150 Sc134 2.105 . S
O150 C141 1.268 . S
O151 Sc132 2.105 . S
O151 C137 1.268 . S
O152 Sc134 2.105 . S
O152 C136 1.268 . S
O153 Sc133 2.105 . S
O153 C138 1.268 . S
Sc154 O157 2.025 . S
Sc154 O164 2.105 . S
Sc154 O167 2.105 . S
Sc154 O170 2.105 . S
Sc154 O173 2.105 . S
Sc155 O157 2.025 . S
Sc155 O165 2.105 . S
Sc155 O169 2.105 . S
Sc155 O171 2.105 . S
Sc155 O175 2.105 . S
Sc156 O157 2.025 . S
Sc156 O166 2.105 . S
Sc156 O168 2.105 . S
Sc156 O172 2.105 . S
Sc156 O174 2.105 . S
O157 Sc154 2.025 . S
O157 Sc155 2.025 . S
O157 Sc156 2.025 . S
C158 O164 1.268 . S
C158 O174 1.268 . S
C159 O165 1.268 . S
C159 O173 1.268 . S
C160 O166 1.268 . S
C160 O175 1.268 . S
C161 O167 1.268 . S
C161 O171 1.268 . S
C162 O168 1.268 . S
C162 O170 1.268 . S
C163 O169 1.268 . S
C163 O172 1.268 . S
O164 Sc154 2.105 . S
O164 C158 1.268 . S
O165 Sc155 2.105 . S
O165 C159 1.268 . S
O166 Sc156 2.105 . S
O166 C160 1.268 . S
O167 Sc154 2.105 . S
O167 C161 1.268 . S
O168 Sc156 2.105 . S
O168 C162 1.268 . S
O169 Sc155 2.105 . S
O169 C163 1.268 . S
O170 Sc154 2.105 . S
O170 C162 1.268 . S
O171 Sc155 2.105 . S
O171 C161 1.268 . S
O172 Sc156 2.105 . S
O172 C163 1.268 . S
O173 Sc154 2.105 . S
O173 C159 1.268 . S
O174 Sc156 2.105 . S
O174 C158 1.268 . S
O175 Sc155 2.105 . S
O175 C160 1.268 . S
Sc176 O179 2.025 . S
Sc176 O186 2.105 . S
Sc176 O189 2.105 . S
Sc176 O192 2.105 . S
Sc176 O195 2.105 . S
Sc177 O179 2.025 . S
Sc177 O187 2.105 . S
Sc177 O191 2.105 . S
Sc177 O193 2.105 . S
Sc177 O197 2.105 . S
Sc178 O179 2.025 . S
Sc178 O188 2.105 . S
Sc178 O190 2.105 . S
Sc178 O194 2.105 . S
Sc178 O196 2.105 . S
O179 Sc176 2.025 . S
O179 Sc177 2.025 . S
O179 Sc178 2.025 . S
C180 O186 1.268 . S
C180 O196 1.268 . S
C181 O187 1.268 . S
C181 O195 1.268 . S
C182 O188 1.268 . S
C182 O197 1.268 . S
C183 O189 1.268 . S
C183 O193 1.268 . S
C184 O190 1.268 . S
C184 O192 1.268 . S
C185 O191 1.268 . S
C185 O194 1.268 . S
O186 Sc176 2.105 . S
O186 C180 1.268 . S
O187 Sc177 2.105 . S
O187 C181 1.268 . S
O188 Sc178 2.105 . S
O188 C182 1.268 . S
O189 Sc176 2.105 . S
O189 C183 1.268 . S
O190 Sc178 2.105 . S
O190 C184 1.268 . S
O191 Sc177 2.105 . S
O191 C185 1.268 . S
O192 Sc176 2.105 . S
O192 C184 1.268 . S
O193 Sc177 2.105 . S
O193 C183 1.268 . S
O194 Sc178 2.105 . S
O194 C185 1.268 . S
O195 Sc176 2.105 . S
O195 C181 1.268 . S
O196 Sc178 2.105 . S
O196 C180 1.268 . S
O197 Sc177 2.105 . S
O197 C182 1.268 . S
Sc198 O201 2.025 . S
Sc198 O208 2.105 . S
Sc198 O211 2.105 . S
Sc198 O214 2.105 . S
Sc198 O217 2.105 . S
Sc199 O201 2.025 . S
Sc199 O209 2.105 . S
Sc199 O213 2.105 . S
Sc199 O215 2.105 . S
Sc199 O219 2.105 . S
Sc200 O201 2.025 . S
Sc200 O210 2.105 . S
Sc200 O212 2.105 . S
Sc200 O216 2.105 . S
Sc200 O218 2.105 . S
O201 Sc198 2.025 . S
O201 Sc199 2.025 . S
O201 Sc200 2.025 . S
C202 O208 1.268 . S
C202 O218 1.268 . S
C203 O209 1.268 . S
C203 O217 1.268 . S
C204 O210 1.268 . S
C204 O219 1.268 . S
C205 O211 1.268 . S
C205 O215 1.268 . S
C206 O212 1.268 . S
C206 O214 1.268 . S
C207 O213 1.268 . S
C207 O216 1.268 . S
O208 Sc198 2.105 . S
O208 C202 1.268 . S
O209 Sc199 2.105 . S
O209 C203 1.268 . S
O210 Sc200 2.105 . S
O210 C204 1.268 . S
O211 Sc198 2.105 . S
O211 C205 1.268 . S
O212 Sc200 2.105 . S
O212 C206 1.268 . S
O213 Sc199 2.105 . S
O213 C207 1.268 . S
O214 Sc198 2.105 . S
O214 C206 1.268 . S
O215 Sc199 2.105 . S
O215 C205 1.268 . S
O216 Sc200 2.105 . S
O216 C207 1.268 . S
O217 Sc198 2.105 . S
O217 C203 1.268 . S
O218 Sc200 2.105 . S
O218 C202 1.268 . S
O219 Sc199 2.105 . S
O219 C204 1.268 . S
Sc220 O223 2.025 . S
Sc220 O230 2.105 . S
Sc220 O233 2.105 . S
Sc220 O236 2.105 . S
Sc220 O239 2.105 . S
Sc221 O223 2.025 . S
Sc221 O231 2.105 . S
Sc221 O235 2.105 . S
Sc221 O237 2.105 . S
Sc221 O241 2.105 . S
Sc222 O223 2.025 . S
Sc222 O232 2.105 . S
Sc222 O234 2.105 . S
Sc222 O238 2.105 . S
Sc222 O240 2.105 . S
O223 Sc220 2.025 . S
O223 Sc221 2.025 . S
O223 Sc222 2.025 . S
C224 O230 1.268 . S
C224 O240 1.268 . S
C225 O231 1.268 . S
C225 O239 1.268 . S
C226 O232 1.268 . S
C226 O241 1.268 . S
C227 O233 1.268 . S
C227 O237 1.268 . S
C228 O234 1.268 . S
C228 O236 1.268 . S
C229 O235 1.268 . S
C229 O238 1.268 . S
O230 Sc220 2.105 . S
O230 C224 1.268 . S
O231 Sc221 2.105 . S
O231 C225 1.268 . S
O232 Sc222 2.105 . S
O232 C226 1.268 . S
O233 Sc220 2.105 . S
O233 C227 1.268 . S
O234 Sc222 2.105 . S
O234 C228 1.268 . S
O235 Sc221 2.105 . S
O235 C229 1.268 . S
O236 Sc220 2.105 . S
O236 C228 1.268 . S
O237 Sc221 2.105 . S
O237 C227 1.268 . S
O238 Sc222 2.105 . S
O238 C229 1.268 . S
O239 Sc220 2.105 . S
O239 C225 1.268 . S
O240 Sc222 2.105 . S
O240 C224 1.268 . S
O241 Sc221 2.105 . S
O241 C226 1.268 . S
Sc242 O245 2.025 . S
Sc242 O252 2.105 . S
Sc242 O255 2.105 . S
Sc242 O258 2.105 . S
Sc242 O261 2.105 . S
Sc243 O245 2.025 . S
Sc243 O253 2.105 . S
Sc243 O257 2.105 . S
Sc243 O259 2.105 . S
Sc243 O263 2.105 . S
Sc244 O245 2.025 . S
Sc244 O254 2.105 . S
Sc244 O256 2.105 . S
Sc244 O260 2.105 . S
Sc244 O262 2.105 . S
O245 Sc242 2.025 . S
O245 Sc243 2.025 . S
O245 Sc244 2.025 . S
C246 O252 1.268 . S
C246 O262 1.268 . S
C247 O253 1.268 . S
C247 O261 1.268 . S
C248 O254 1.268 . S
C248 O263 1.268 . S
C249 O255 1.268 . S
C249 O259 1.268 . S
C250 O256 1.268 . S
C250 O258 1.268 . S
C251 O257 1.268 . S
C251 O260 1.268 . S
O252 Sc242 2.105 . S
O252 C246 1.268 . S
O253 Sc243 2.105 . S
O253 C247 1.268 . S
O254 Sc244 2.105 . S
O254 C248 1.268 . S
O255 Sc242 2.105 . S
O255 C249 1.268 . S
O256 Sc244 2.105 . S
O256 C250 1.268 . S
O257 Sc243 2.105 . S
O257 C251 1.268 . S
O258 Sc242 2.105 . S
O258 C250 1.268 . S
O259 Sc243 2.105 . S
O259 C249 1.268 . S
O260 Sc244 2.105 . S
O260 C251 1.268 . S
O261 Sc242 2.105 . S
O261 C247 1.268 . S
O262 Sc244 2.105 . S
O262 C246 1.268 . S
O263 Sc243 2.105 . S
O263 C248 1.268 . S
Sc264 O267 2.025 . S
Sc264 O274 2.105 . S
Sc264 O277 2.105 . S
Sc264 O280 2.105 . S
Sc264 O283 2.105 . S
Sc265 O267 2.025 . S
Sc265 O275 2.105 . S
Sc265 O279 2.105 . S
Sc265 O281 2.105 . S
Sc265 O285 2.105 . S
Sc266 O267 2.025 . S
Sc266 O276 2.105 . S
Sc266 O278 2.105 . S
Sc266 O282 2.105 . S
Sc266 O284 2.105 . S
O267 Sc264 2.025 . S
O267 Sc265 2.025 . S
O267 Sc266 2.025 . S
C268 O274 1.268 . S
C268 O284 1.268 . S
C269 O275 1.268 . S
C269 O283 1.268 . S
C270 O276 1.268 . S
C270 O285 1.268 . S
C271 O277 1.268 . S
C271 O281 1.268 . S
C272 O278 1.268 . S
C272 O280 1.268 . S
C273 O279 1.268 . S
C273 O282 1.268 . S
O274 Sc264 2.105 . S
O274 C268 1.268 . S
O275 Sc265 2.105 . S
O275 C269 1.268 . S
O276 Sc266 2.105 . S
O276 C270 1.268 . S
O277 Sc264 2.105 . S
O277 C271 1.268 . S
O278 Sc266 2.105 . S
O278 C272 1.268 . S
O279 Sc265 2.105 . S
O279 C273 1.268 . S
O280 Sc264 2.105 . S
O280 C272 1.268 . S
O281 Sc265 2.105 . S
O281 C271 1.268 . S
O282 Sc266 2.105 . S
O282 C273 1.268 . S
O283 Sc264 2.105 . S
O283 C269 1.268 . S
O284 Sc266 2.105 . S
O284 C268 1.268 . S
O285 Sc265 2.105 . S
O285 C270 1.268 . S
Sc286 O289 2.025 . S
Sc286 O296 2.105 . S
Sc286 O299 2.105 . S
Sc286 O302 2.105 . S
Sc286 O305 2.105 . S
Sc287 O289 2.025 . S
Sc287 O297 2.105 . S
Sc287 O301 2.105 . S
Sc287 O303 2.105 . S
Sc287 O307 2.105 . S
Sc288 O289 2.025 . S
Sc288 O298 2.105 . S
Sc288 O300 2.105 . S
Sc288 O304 2.105 . S
Sc288 O306 2.105 . S
O289 Sc286 2.025 . S
O289 Sc287 2.025 . S
O289 Sc288 2.025 . S
C290 O296 1.268 . S
C290 O306 1.268 . S
C291 O297 1.268 . S
C291 O305 1.268 . S
C292 O298 1.268 . S
C292 O307 1.268 . S
C293 O299 1.268 . S
C293 O303 1.268 . S
C294 O300 1.268 . S
C294 O302 1.268 . S
C295 O301 1.268 . S
C295 O304 1.268 . S
O296 Sc286 2.105 . S
O296 C290 1.268 . S
O297 Sc287 2.105 . S
O297 C291 1.268 . S
O298 Sc288 2.105 . S
O298 C292 1.268 . S
O299 Sc286 2.105 . S
O299 C293 1.268 . S
O300 Sc288 2.105 . S
O300 C294 1.268 . S
O301 Sc287 2.105 . S
O301 C295 1.268 . S
O302 Sc286 2.105 . S
O302 C294 1.268 . S
O303 Sc287 2.105 . S
O303 C293 1.268 . S
O304 Sc288 2.105 . S
O304 C295 1.268 . S
O305 Sc286 2.105 . S
O305 C291 1.268 . S
O306 Sc288 2.105 . S
O306 C290 1.268 . S
O307 Sc287 2.105 . S
O307 C292 1.268 . S
Sc308 O311 2.025 . S
Sc308 O318 2.105 . S
Sc308 O321 2.105 . S
Sc308 O324 2.105 . S
Sc308 O327 2.105 . S
Sc309 O311 2.025 . S
Sc309 O319 2.105 . S
Sc309 O323 2.105 . S
Sc309 O325 2.105 . S
Sc309 O329 2.105 . S
Sc310 O311 2.025 . S
Sc310 O320 2.105 . S
Sc310 O322 2.105 . S
Sc310 O326 2.105 . S
Sc310 O328 2.105 . S
O311 Sc308 2.025 . S
O311 Sc309 2.025 . S
O311 Sc310 2.025 . S
C312 O318 1.268 . S
C312 O328 1.268 . S
C313 O319 1.268 . S
C313 O327 1.268 . S
C314 O320 1.268 . S
C314 O329 1.268 . S
C315 O321 1.268 . S
C315 O325 1.268 . S
C316 O322 1.268 . S
C316 O324 1.268 . S
C317 O323 1.268 . S
C317 O326 1.268 . S
O318 Sc308 2.105 . S
O318 C312 1.268 . S
O319 Sc309 2.105 . S
O319 C313 1.268 . S
O320 Sc310 2.105 . S
O320 C314 1.268 . S
O321 Sc308 2.105 . S
O321 C315 1.268 . S
O322 Sc310 2.105 . S
O322 C316 1.268 . S
O323 Sc309 2.105 . S
O323 C317 1.268 . S
O324 Sc308 2.105 . S
O324 C316 1.268 . S
O325 Sc309 2.105 . S
O325 C315 1.268 . S
O326 Sc310 2.105 . S
O326 C317 1.268 . S
O327 Sc308 2.105 . S
O327 C313 1.268 . S
O328 Sc310 2.105 . S
O328 C312 1.268 . S
O329 Sc309 2.105 . S
O329 C314 1.268 . S
Sc330 O333 2.025 . S
Sc330 O340 2.105 . S
Sc330 O343 2.105 . S
Sc330 O346 2.105 . S
Sc330 O349 2.105 . S
Sc331 O333 2.025 . S
Sc331 O341 2.105 . S
Sc331 O345 2.105 . S
Sc331 O347 2.105 . S
Sc331 O351 2.105 . S
Sc332 O333 2.025 . S
Sc332 O342 2.105 . S
Sc332 O344 2.105 . S
Sc332 O348 2.105 . S
Sc332 O350 2.105 . S
O333 Sc330 2.025 . S
O333 Sc331 2.025 . S
O333 Sc332 2.025 . S
C334 O340 1.268 . S
C334 O350 1.268 . S
C335 O341 1.268 . S
C335 O349 1.268 . S
C336 O342 1.268 . S
C336 O351 1.268 . S
C337 O343 1.268 . S
C337 O347 1.268 . S
C338 O344 1.268 . S
C338 O346 1.268 . S
C339 O345 1.268 . S
C339 O348 1.268 . S
O340 Sc330 2.105 . S
O340 C334 1.268 . S
O341 Sc331 2.105 . S
O341 C335 1.268 . S
O342 Sc332 2.105 . S
O342 C336 1.268 . S
O343 Sc330 2.105 . S
O343 C337 1.268 . S
O344 Sc332 2.105 . S
O344 C338 1.268 . S
O345 Sc331 2.105 . S
O345 C339 1.268 . S
O346 Sc330 2.105 . S
O346 C338 1.268 . S
O347 Sc331 2.105 . S
O347 C337 1.268 . S
O348 Sc332 2.105 . S
O348 C339 1.268 . S
O349 Sc330 2.105 . S
O349 C335 1.268 . S
O350 Sc332 2.105 . S
O350 C334 1.268 . S
O351 Sc331 2.105 . S
O351 C336 1.268 . S
Sc352 O355 2.025 . S
Sc352 O362 2.105 . S
Sc352 O365 2.105 . S
Sc352 O368 2.105 . S
Sc352 O371 2.105 . S
Sc353 O355 2.025 . S
Sc353 O363 2.105 . S
Sc353 O367 2.105 . S
Sc353 O369 2.105 . S
Sc353 O373 2.105 . S
Sc354 O355 2.025 . S
Sc354 O364 2.105 . S
Sc354 O366 2.105 . S
Sc354 O370 2.105 . S
Sc354 O372 2.105 . S
O355 Sc352 2.025 . S
O355 Sc353 2.025 . S
O355 Sc354 2.025 . S
C356 O362 1.268 . S
C356 O372 1.268 . S
C357 O363 1.268 . S
C357 O371 1.268 . S
C358 O364 1.268 . S
C358 O373 1.268 . S
C359 O365 1.268 . S
C359 O369 1.268 . S
C360 O366 1.268 . S
C360 O368 1.268 . S
C361 O367 1.268 . S
C361 O370 1.268 . S
O362 Sc352 2.105 . S
O362 C356 1.268 . S
O363 Sc353 2.105 . S
O363 C357 1.268 . S
O364 Sc354 2.105 . S
O364 C358 1.268 . S
O365 Sc352 2.105 . S
O365 C359 1.268 . S
O366 Sc354 2.105 . S
O366 C360 1.268 . S
O367 Sc353 2.105 . S
O367 C361 1.268 . S
O368 Sc352 2.105 . S
O368 C360 1.268 . S
O369 Sc353 2.105 . S
O369 C359 1.268 . S
O370 Sc354 2.105 . S
O370 C361 1.268 . S
O371 Sc352 2.105 . S
O371 C357 1.268 . S
O372 Sc354 2.105 . S
O372 C356 1.268 . S
O373 Sc353 2.105 . S
O373 C358 1.268 . S
Sc374 O377 2.025 . S
Sc374 O384 2.105 . S
Sc374 O387 2.105 . S
Sc374 O390 2.105 . S
Sc374 O393 2.105 . S
Sc375 O377 2.025 . S
Sc375 O385 2.105 . S
Sc375 O389 2.105 . S
Sc375 O391 2.105 . S
Sc375 O395 2.105 . S
Sc376 O377 2.025 . S
Sc376 O386 2.105 . S
Sc376 O388 2.105 . S
Sc376 O392 2.105 . S
Sc376 O394 2.105 . S
O377 Sc374 2.025 . S
O377 Sc375 2.025 . S
O377 Sc376 2.025 . S
C378 O384 1.268 . S
C378 O394 1.268 . S
C379 O385 1.268 . S
C379 O393 1.268 . S
C380 O386 1.268 . S
C380 O395 1.268 . S
C381 O387 1.268 . S
C381 O391 1.268 . S
C382 O388 1.268 . S
C382 O390 1.268 . S
C383 O389 1.268 . S
C383 O392 1.268 . S
O384 Sc374 2.105 . S
O384 C378 1.268 . S
O385 Sc375 2.105 . S
O385 C379 1.268 . S
O386 Sc376 2.105 . S
O386 C380 1.268 . S
O387 Sc374 2.105 . S
O387 C381 1.268 . S
O388 Sc376 2.105 . S
O388 C382 1.268 . S
O389 Sc375 2.105 . S
O389 C383 1.268 . S
O390 Sc374 2.105 . S
O390 C382 1.268 . S
O391 Sc375 2.105 . S
O391 C381 1.268 . S
O392 Sc376 2.105 . S
O392 C383 1.268 . S
O393 Sc374 2.105 . S
O393 C379 1.268 . S
O394 Sc376 2.105 . S
O394 C378 1.268 . S
O395 Sc375 2.105 . S
O395 C380 1.268 . S
Sc396 O399 2.025 . S
Sc396 O406 2.105 . S
Sc396 O409 2.105 . S
Sc396 O412 2.105 . S
Sc396 O415 2.105 . S
Sc397 O399 2.025 . S
Sc397 O407 2.105 . S
Sc397 O411 2.105 . S
Sc397 O413 2.105 . S
Sc397 O417 2.105 . S
Sc398 O399 2.025 . S
Sc398 O408 2.105 . S
Sc398 O410 2.105 . S
Sc398 O414 2.105 . S
Sc398 O416 2.105 . S
O399 Sc396 2.025 . S
O399 Sc397 2.025 . S
O399 Sc398 2.025 . S
C400 O406 1.268 . S
C400 O416 1.268 . S
C401 O407 1.268 . S
C401 O415 1.268 . S
C402 O408 1.268 . S
C402 O417 1.268 . S
C403 O409 1.268 . S
C403 O413 1.268 . S
C404 O410 1.268 . S
C404 O412 1.268 . S
C405 O411 1.268 . S
C405 O414 1.268 . S
O406 Sc396 2.105 . S
O406 C400 1.268 . S
O407 Sc397 2.105 . S
O407 C401 1.268 . S
O408 Sc398 2.105 . S
O408 C402 1.268 . S
O409 Sc396 2.105 . S
O409 C403 1.268 . S
O410 Sc398 2.105 . S
O410 C404 1.268 . S
O411 Sc397 2.105 . S
O411 C405 1.268 . S
O412 Sc396 2.105 . S
O412 C404 1.268 . S
O413 Sc397 2.105 . S
O413 C403 1.268 . S
O414 Sc398 2.105 . S
O414 C405 1.268 . S
O415 Sc396 2.105 . S
O415 C401 1.268 . S
O416 Sc398 2.105 . S
O416 C400 1.268 . S
O417 Sc397 2.105 . S
O417 C402 1.268 . S
Sc418 O421 2.025 . S
Sc418 O428 2.105 . S
Sc418 O431 2.105 . S
Sc418 O434 2.105 . S
Sc418 O437 2.105 . S
Sc419 O421 2.025 . S
Sc419 O429 2.105 . S
Sc419 O433 2.105 . S
Sc419 O435 2.105 . S
Sc419 O439 2.105 . S
Sc420 O421 2.025 . S
Sc420 O430 2.105 . S
Sc420 O432 2.105 . S
Sc420 O436 2.105 . S
Sc420 O438 2.105 . S
O421 Sc418 2.025 . S
O421 Sc419 2.025 . S
O421 Sc420 2.025 . S
C422 O428 1.268 . S
C422 O438 1.268 . S
C423 O429 1.268 . S
C423 O437 1.268 . S
C424 O430 1.268 . S
C424 O439 1.268 . S
C425 O431 1.268 . S
C425 O435 1.268 . S
C426 O432 1.268 . S
C426 O434 1.268 . S
C427 O433 1.268 . S
C427 O436 1.268 . S
O428 Sc418 2.105 . S
O428 C422 1.268 . S
O429 Sc419 2.105 . S
O429 C423 1.268 . S
O430 Sc420 2.105 . S
O430 C424 1.268 . S
O431 Sc418 2.105 . S
O431 C425 1.268 . S
O432 Sc420 2.105 . S
O432 C426 1.268 . S
O433 Sc419 2.105 . S
O433 C427 1.268 . S
O434 Sc418 2.105 . S
O434 C426 1.268 . S
O435 Sc419 2.105 . S
O435 C425 1.268 . S
O436 Sc420 2.105 . S
O436 C427 1.268 . S
O437 Sc418 2.105 . S
O437 C423 1.268 . S
O438 Sc420 2.105 . S
O438 C422 1.268 . S
O439 Sc419 2.105 . S
O439 C424 1.268 . S
Sc440 O443 2.025 . S
Sc440 O450 2.105 . S
Sc440 O453 2.105 . S
Sc440 O456 2.105 . S
Sc440 O459 2.105 . S
Sc441 O443 2.025 . S
Sc441 O451 2.105 . S
Sc441 O455 2.105 . S
Sc441 O457 2.105 . S
Sc441 O461 2.105 . S
Sc442 O443 2.025 . S
Sc442 O452 2.105 . S
Sc442 O454 2.105 . S
Sc442 O458 2.105 . S
Sc442 O460 2.105 . S
O443 Sc440 2.025 . S
O443 Sc441 2.025 . S
O443 Sc442 2.025 . S
C444 O450 1.268 . S
C444 O460 1.268 . S
C445 O451 1.268 . S
C445 O459 1.268 . S
C446 O452 1.268 . S
C446 O461 1.268 . S
C447 O453 1.268 . S
C447 O457 1.268 . S
C448 O454 1.268 . S
C448 O456 1.268 . S
C449 O455 1.268 . S
C449 O458 1.268 . S
O450 Sc440 2.105 . S
O450 C444 1.268 . S
O451 Sc441 2.105 . S
O451 C445 1.268 . S
O452 Sc442 2.105 . S
O452 C446 1.268 . S
O453 Sc440 2.105 . S
O453 C447 1.268 . S
O454 Sc442 2.105 . S
O454 C448 1.268 . S
O455 Sc441 2.105 . S
O455 C449 1.268 . S
O456 Sc440 2.105 . S
O456 C448 1.268 . S
O457 Sc441 2.105 . S
O457 C447 1.268 . S
O458 Sc442 2.105 . S
O458 C449 1.268 . S
O459 Sc440 2.105 . S
O459 C445 1.268 . S
O460 Sc442 2.105 . S
O460 C444 1.268 . S
O461 Sc441 2.105 . S
O461 C446 1.268 . S
Sc462 O465 2.025 . S
Sc462 O472 2.105 . S
Sc462 O475 2.105 . S
Sc462 O478 2.105 . S
Sc462 O481 2.105 . S
Sc463 O465 2.025 . S
Sc463 O473 2.105 . S
Sc463 O477 2.105 . S
Sc463 O479 2.105 . S
Sc463 O483 2.105 . S
Sc464 O465 2.025 . S
Sc464 O474 2.105 . S
Sc464 O476 2.105 . S
Sc464 O480 2.105 . S
Sc464 O482 2.105 . S
O465 Sc462 2.025 . S
O465 Sc463 2.025 . S
O465 Sc464 2.025 . S
C466 O472 1.268 . S
C466 O482 1.268 . S
C467 O473 1.268 . S
C467 O481 1.268 . S
C468 O474 1.268 . S
C468 O483 1.268 . S
C469 O475 1.268 . S
C469 O479 1.268 . S
C470 O476 1.268 . S
C470 O478 1.268 . S
C471 O477 1.268 . S
C471 O480 1.268 . S
O472 Sc462 2.105 . S
O472 C466 1.268 . S
O473 Sc463 2.105 . S
O473 C467 1.268 . S
O474 Sc464 2.105 . S
O474 C468 1.268 . S
O475 Sc462 2.105 . S
O475 C469 1.268 . S
O476 Sc464 2.105 . S
O476 C470 1.268 . S
O477 Sc463 2.105 . S
O477 C471 1.268 . S
O478 Sc462 2.105 . S
O478 C470 1.268 . S
O479 Sc463 2.105 . S
O479 C469 1.268 . S
O480 Sc464 2.105 . S
O480 C471 1.268 . S
O481 Sc462 2.105 . S
O481 C467 1.268 . S
O482 Sc464 2.105 . S
O482 C466 1.268 . S
O483 Sc463 2.105 . S
O483 C468 1.268 . S
Sc484 O487 2.025 . S
Sc484 O494 2.105 . S
Sc484 O497 2.105 . S
Sc484 O500 2.105 . S
Sc484 O503 2.105 . S
Sc485 O487 2.025 . S
Sc485 O495 2.105 . S
Sc485 O499 2.105 . S
Sc485 O501 2.105 . S
Sc485 O505 2.105 . S
Sc486 O487 2.025 . S
Sc486 O496 2.105 . S
Sc486 O498 2.105 . S
Sc486 O502 2.105 . S
Sc486 O504 2.105 . S
O487 Sc484 2.025 . S
O487 Sc485 2.025 . S
O487 Sc486 2.025 . S
C488 O494 1.268 . S
C488 O504 1.268 . S
C489 O495 1.268 . S
C489 O503 1.268 . S
C490 O496 1.268 . S
C490 O505 1.268 . S
C491 O497 1.268 . S
C491 O501 1.268 . S
C492 O498 1.268 . S
C492 O500 1.268 . S
C493 O499 1.268 . S
C493 O502 1.268 . S
O494 Sc484 2.105 . S
O494 C488 1.268 . S
O495 Sc485 2.105 . S
O495 C489 1.268 . S
O496 Sc486 2.105 . S
O496 C490 1.268 . S
O497 Sc484 2.105 . S
O497 C491 1.268 . S
O498 Sc486 2.105 . S
O498 C492 1.268 . S
O499 Sc485 2.105 . S
O499 C493 1.268 . S
O500 Sc484 2.105 . S
O500 C492 1.268 . S
O501 Sc485 2.105 . S
O501 C491 1.268 . S
O502 Sc486 2.105 . S
O502 C493 1.268 . S
O503 Sc484 2.105 . S
O503 C489 1.268 . S
O504 Sc486 2.105 . S
O504 C488 1.268 . S
O505 Sc485 2.105 . S
O505 C490 1.268 . S
Sc506 O509 2.025 . S
Sc506 O516 2.105 . S
Sc506 O519 2.105 . S
Sc506 O522 2.105 . S
Sc506 O525 2.105 . S
Sc507 O509 2.025 . S
Sc507 O517 2.105 . S
Sc507 O521 2.105 . S
Sc507 O523 2.105 . S
Sc507 O527 2.105 . S
Sc508 O509 2.025 . S
Sc508 O518 2.105 . S
Sc508 O520 2.105 . S
Sc508 O524 2.105 . S
Sc508 O526 2.105 . S
O509 Sc506 2.025 . S
O509 Sc507 2.025 . S
O509 Sc508 2.025 . S
C510 O516 1.268 . S
C510 O526 1.268 . S
C511 O517 1.268 . S
C511 O525 1.268 . S
C512 O518 1.268 . S
C512 O527 1.268 . S
C513 O519 1.268 . S
C513 O523 1.268 . S
C514 O520 1.268 . S
C514 O522 1.268 . S
C515 O521 1.268 . S
C515 O524 1.268 . S
O516 Sc506 2.105 . S
O516 C510 1.268 . S
O517 Sc507 2.105 . S
O517 C511 1.268 . S
O518 Sc508 2.105 . S
O518 C512 1.268 . S
O519 Sc506 2.105 . S
O519 C513 1.268 . S
O520 Sc508 2.105 . S
O520 C514 1.268 . S
O521 Sc507 2.105 . S
O521 C515 1.268 . S
O522 Sc506 2.105 . S
O522 C514 1.268 . S
O523 Sc507 2.105 . S
O523 C513 1.268 . S
O524 Sc508 2.105 . S
O524 C515 1.268 . S
O525 Sc506 2.105 . S
O525 C511 1.268 . S
O526 Sc508 2.105 . S
O526 C510 1.268 . S
O527 Sc507 2.105 . S
O527 C512 1.268 . S
Sc528 O531 2.025 . S
Sc528 O538 2.105 . S
Sc528 O541 2.105 . S
Sc528 O544 2.105 . S
Sc528 O547 2.105 . S
Sc529 O531 2.025 . S
Sc529 O539 2.105 . S
Sc529 O543 2.105 . S
Sc529 O545 2.105 . S
Sc529 O549 2.105 . S
Sc530 O531 2.025 . S
Sc530 O540 2.105 . S
Sc530 O542 2.105 . S
Sc530 O546 2.105 . S
Sc530 O548 2.105 . S
O531 Sc528 2.025 . S
O531 Sc529 2.025 . S
O531 Sc530 2.025 . S
C532 O538 1.268 . S
C532 O548 1.268 . S
C533 O539 1.268 . S
C533 O547 1.268 . S
C534 O540 1.268 . S
C534 O549 1.268 . S
C535 O541 1.268 . S
C535 O545 1.268 . S
C536 O542 1.268 . S
C536 O544 1.268 . S
C537 O543 1.268 . S
C537 O546 1.268 . S
O538 Sc528 2.105 . S
O538 C532 1.268 . S
O539 Sc529 2.105 . S
O539 C533 1.268 . S
O540 Sc530 2.105 . S
O540 C534 1.268 . S
O541 Sc528 2.105 . S
O541 C535 1.268 . S
O542 Sc530 2.105 . S
O542 C536 1.268 . S
O543 Sc529 2.105 . S
O543 C537 1.268 . S
O544 Sc528 2.105 . S
O544 C536 1.268 . S
O545 Sc529 2.105 . S
O545 C535 1.268 . S
O546 Sc530 2.105 . S
O546 C537 1.268 . S
O547 Sc528 2.105 . S
O547 C533 1.268 . S
O548 Sc530 2.105 . S
O548 C532 1.268 . S
O549 Sc529 2.105 . S
O549 C534 1.268 . S
Sc550 O553 2.025 . S
Sc550 O560 2.105 . S
Sc550 O563 2.105 . S
Sc550 O566 2.105 . S
Sc550 O569 2.105 . S
Sc551 O553 2.025 . S
Sc551 O561 2.105 . S
Sc551 O565 2.105 . S
Sc551 O567 2.105 . S
Sc551 O571 2.105 . S
Sc552 O553 2.025 . S
Sc552 O562 2.105 . S
Sc552 O564 2.105 . S
Sc552 O568 2.105 . S
Sc552 O570 2.105 . S
O553 Sc550 2.025 . S
O553 Sc551 2.025 . S
O553 Sc552 2.025 . S
C554 O560 1.268 . S
C554 O570 1.268 . S
C555 O561 1.268 . S
C555 O569 1.268 . S
C556 O562 1.268 . S
C556 O571 1.268 . S
C557 O563 1.268 . S
C557 O567 1.268 . S
C558 O564 1.268 . S
C558 O566 1.268 . S
C559 O565 1.268 . S
C559 O568 1.268 . S
O560 Sc550 2.105 . S
O560 C554 1.268 . S
O561 Sc551 2.105 . S
O561 C555 1.268 . S
O562 Sc552 2.105 . S
O562 C556 1.268 . S
O563 Sc550 2.105 . S
O563 C557 1.268 . S
O564 Sc552 2.105 . S
O564 C558 1.268 . S
O565 Sc551 2.105 . S
O565 C559 1.268 . S
O566 Sc550 2.105 . S
O566 C558 1.268 . S
O567 Sc551 2.105 . S
O567 C557 1.268 . S
O568 Sc552 2.105 . S
O568 C559 1.268 . S
O569 Sc550 2.105 . S
O569 C555 1.268 . S
O570 Sc552 2.105 . S
O570 C554 1.268 . S
O571 Sc551 2.105 . S
O571 C556 1.268 . S
Sc572 O575 2.025 . S
Sc572 O582 2.105 . S
Sc572 O585 2.105 . S
Sc572 O588 2.105 . S
Sc572 O591 2.105 . S
Sc573 O575 2.025 . S
Sc573 O583 2.105 . S
Sc573 O587 2.105 . S
Sc573 O589 2.105 . S
Sc573 O593 2.105 . S
Sc574 O575 2.025 . S
Sc574 O584 2.105 . S
Sc574 O586 2.105 . S
Sc574 O590 2.105 . S
Sc574 O592 2.105 . S
O575 Sc572 2.025 . S
O575 Sc573 2.025 . S
O575 Sc574 2.025 . S
C576 O582 1.268 . S
C576 O592 1.268 . S
C577 O583 1.268 . S
C577 O591 1.268 . S
C578 O584 1.268 . S
C578 O593 1.268 . S
C579 O585 1.268 . S
C579 O589 1.268 . S
C580 O586 1.268 . S
C580 O588 1.268 . S
C581 O587 1.268 . S
C581 O590 1.268 . S
O582 Sc572 2.105 . S
O582 C576 1.268 . S
O583 Sc573 2.105 . S
O583 C577 1.268 . S
O584 Sc574 2.105 . S
O584 C578 1.268 . S
O585 Sc572 2.105 . S
O585 C579 1.268 . S
O586 Sc574 2.105 . S
O586 C580 1.268 . S
O587 Sc573 2.105 . S
O587 C581 1.268 . S
O588 Sc572 2.105 . S
O588 C580 1.268 . S
O589 Sc573 2.105 . S
O589 C579 1.268 . S
O590 Sc574 2.105 . S
O590 C581 1.268 . S
O591 Sc572 2.105 . S
O591 C577 1.268 . S
O592 Sc574 2.105 . S
O592 C576 1.268 . S
O593 Sc573 2.105 . S
O593 C578 1.268 . S
Sc594 O597 2.025 . S
Sc594 O604 2.105 . S
Sc594 O607 2.105 . S
Sc594 O610 2.105 . S
Sc594 O613 2.105 . S
Sc595 O597 2.025 . S
Sc595 O605 2.105 . S
Sc595 O609 2.105 . S
Sc595 O611 2.105 . S
Sc595 O615 2.105 . S
Sc596 O597 2.025 . S
Sc596 O606 2.105 . S
Sc596 O608 2.105 . S
Sc596 O612 2.105 . S
Sc596 O614 2.105 . S
O597 Sc594 2.025 . S
O597 Sc595 2.025 . S
O597 Sc596 2.025 . S
C598 O604 1.268 . S
C598 O614 1.268 . S
C599 O605 1.268 . S
C599 O613 1.268 . S
C600 O606 1.268 . S
C600 O615 1.268 . S
C601 O607 1.268 . S
C601 O611 1.268 . S
C602 O608 1.268 . S
C602 O610 1.268 . S
C603 O609 1.268 . S
C603 O612 1.268 . S
O604 Sc594 2.105 . S
O604 C598 1.268 . S
O605 Sc595 2.105 . S
O605 C599 1.268 . S
O606 Sc596 2.105 . S
O606 C600 1.268 . S
O607 Sc594 2.105 . S
O607 C601 1.268 . S
O608 Sc596 2.105 . S
O608 C602 1.268 . S
O609 Sc595 2.105 . S
O609 C603 1.268 . S
O610 Sc594 2.105 . S
O610 C602 1.268 . S
O611 Sc595 2.105 . S
O611 C601 1.268 . S
O612 Sc596 2.105 . S
O612 C603 1.268 . S
O613 Sc594 2.105 . S
O613 C599 1.268 . S
O614 Sc596 2.105 . S
O614 C598 1.268 . S
O615 Sc595 2.105 . S
O615 C600 1.268 . S
Sc616 O619 2.025 . S
Sc616 O626 2.105 . S
Sc616 O629 2.105 . S
Sc616 O632 2.105 . S
Sc616 O635 2.105 . S
Sc617 O619 2.025 . S
Sc617 O627 2.105 . S
Sc617 O631 2.105 . S
Sc617 O633 2.105 . S
Sc617 O637 2.105 . S
Sc618 O619 2.025 . S
Sc618 O628 2.105 . S
Sc618 O630 2.105 . S
Sc618 O634 2.105 . S
Sc618 O636 2.105 . S
O619 Sc616 2.025 . S
O619 Sc617 2.025 . S
O619 Sc618 2.025 . S
C620 O626 1.268 . S
C620 O636 1.268 . S
C621 O627 1.268 . S
C621 O635 1.268 . S
C622 O628 1.268 . S
C622 O637 1.268 . S
C623 O629 1.268 . S
C623 O633 1.268 . S
C624 O630 1.268 . S
C624 O632 1.268 . S
C625 O631 1.268 . S
C625 O634 1.268 . S
O626 Sc616 2.105 . S
O626 C620 1.268 . S
O627 Sc617 2.105 . S
O627 C621 1.268 . S
O628 Sc618 2.105 . S
O628 C622 1.268 . S
O629 Sc616 2.105 . S
O629 C623 1.268 . S
O630 Sc618 2.105 . S
O630 C624 1.268 . S
O631 Sc617 2.105 . S
O631 C625 1.268 . S
O632 Sc616 2.105 . S
O632 C624 1.268 . S
O633 Sc617 2.105 . S
O633 C623 1.268 . S
O634 Sc618 2.105 . S
O634 C625 1.268 . S
O635 Sc616 2.105 . S
O635 C621 1.268 . S
O636 Sc618 2.105 . S
O636 C620 1.268 . S
O637 Sc617 2.105 . S
O637 C622 1.268 . S
Sc638 O641 2.025 . S
Sc638 O648 2.105 . S
Sc638 O651 2.105 . S
Sc638 O654 2.105 . S
Sc638 O657 2.105 . S
Sc639 O641 2.025 . S
Sc639 O649 2.105 . S
Sc639 O653 2.105 . S
Sc639 O655 2.105 . S
Sc639 O659 2.105 . S
Sc640 O641 2.025 . S
Sc640 O650 2.105 . S
Sc640 O652 2.105 . S
Sc640 O656 2.105 . S
Sc640 O658 2.105 . S
O641 Sc638 2.025 . S
O641 Sc639 2.025 . S
O641 Sc640 2.025 . S
C642 O648 1.268 . S
C642 O658 1.268 . S
C643 O649 1.268 . S
C643 O657 1.268 . S
C644 O650 1.268 . S
C644 O659 1.268 . S
C645 O651 1.268 . S
C645 O655 1.268 . S
C646 O652 1.268 . S
C646 O654 1.268 . S
C647 O653 1.268 . S
C647 O656 1.268 . S
O648 Sc638 2.105 . S
O648 C642 1.268 . S
O649 Sc639 2.105 . S
O649 C643 1.268 . S
O650 Sc640 2.105 . S
O650 C644 1.268 . S
O651 Sc638 2.105 . S
O651 C645 1.268 . S
O652 Sc640 2.105 . S
O652 C646 1.268 . S
O653 Sc639 2.105 . S
O653 C647 1.268 . S
O654 Sc638 2.105 . S
O654 C646 1.268 . S
O655 Sc639 2.105 . S
O655 C645 1.268 . S
O656 Sc640 2.105 . S
O656 C647 1.268 . S
O657 Sc638 2.105 . S
O657 C643 1.268 . S
O658 Sc640 2.105 . S
O658 C642 1.268 . S
O659 Sc639 2.105 . S
O659 C644 1.268 . S
Sc660 O663 2.025 . S
Sc660 O670 2.105 . S
Sc660 O673 2.105 . S
Sc660 O676 2.105 . S
Sc660 O679 2.105 . S
Sc661 O663 2.025 . S
Sc661 O671 2.105 . S
Sc661 O675 2.105 . S
Sc661 O677 2.105 . S
Sc661 O681 2.105 . S
Sc662 O663 2.025 . S
Sc662 O672 2.105 . S
Sc662 O674 2.105 . S
Sc662 O678 2.105 . S
Sc662 O680 2.105 . S
O663 Sc660 2.025 . S
O663 Sc661 2.025 . S
O663 Sc662 2.025 . S
C664 O670 1.268 . S
C664 O680 1.268 . S
C665 O671 1.268 . S
C665 O679 1.268 . S
C666 O672 1.268 . S
C666 O681 1.268 . S
C667 O673 1.268 . S
C667 O677 1.268 . S
C668 O674 1.268 . S
C668 O676 1.268 . S
C669 O675 1.268 . S
C669 O678 1.268 . S
O670 Sc660 2.105 . S
O670 C664 1.268 . S
O671 Sc661 2.105 . S
O671 C665 1.268 . S
O672 Sc662 2.105 . S
O672 C666 1.268 . S
O673 Sc660 2.105 . S
O673 C667 1.268 . S
O674 Sc662 2.105 . S
O674 C668 1.268 . S
O675 Sc661 2.105 . S
O675 C669 1.268 . S
O676 Sc660 2.105 . S
O676 C668 1.268 . S
O677 Sc661 2.105 . S
O677 C667 1.268 . S
O678 Sc662 2.105 . S
O678 C669 1.268 . S
O679 Sc660 2.105 . S
O679 C665 1.268 . S
O680 Sc662 2.105 . S
O680 C664 1.268 . S
O681 Sc661 2.105 . S
O681 C666 1.268 . S
Sc682 O685 2.025 . S
Sc682 O692 2.105 . S
Sc682 O695 2.105 . S
Sc682 O698 2.105 . S
Sc682 O701 2.105 . S
Sc683 O685 2.025 . S
Sc683 O693 2.105 . S
Sc683 O697 2.105 . S
Sc683 O699 2.105 . S
Sc683 O703 2.105 . S
Sc684 O685 2.025 . S
Sc684 O694 2.105 . S
Sc684 O696 2.105 . S
Sc684 O700 2.105 . S
Sc684 O702 2.105 . S
O685 Sc682 2.025 . S
O685 Sc683 2.025 . S
O685 Sc684 2.025 . S
C686 O692 1.268 . S
C686 O702 1.268 . S
C687 O693 1.268 . S
C687 O701 1.268 . S
C688 O694 1.268 . S
C688 O703 1.268 . S
C689 O695 1.268 . S
C689 O699 1.268 . S
C690 O696 1.268 . S
C690 O698 1.268 . S
C691 O697 1.268 . S
C691 O700 1.268 . S
O692 Sc682 2.105 . S
O692 C686 1.268 . S
O693 Sc683 2.105 . S
O693 C687 1.268 . S
O694 Sc684 2.105 . S
O694 C688 1.268 . S
O695 Sc682 2.105 . S
O695 C689 1.268 . S
O696 Sc684 2.105 . S
O696 C690 1.268 . S
O697 Sc683 2.105 . S
O697 C691 1.268 . S
O698 Sc682 2.105 . S
O698 C690 1.268 . S
O699 Sc683 2.105 . S
O699 C689 1.268 . S
O700 Sc684 2.105 . S
O700 C691 1.268 . S
O701 Sc682 2.105 . S
O701 C687 1.268 . S
O702 Sc684 2.105 . S
O702 C686 1.268 . S
O703 Sc683 2.105 . S
O703 C688 1.268 . S
H704 C712 0.950 . S
H705 C717 0.950 . S
H706 C714 0.950 . S
H707 C716 0.950 . S
H708 C718 0.950 . S
H709 C720 0.950 . S
H710 C722 0.950 . S
H711 C723 0.950 . S
C712 H704 0.950 . S
C712 C713 1.386 . S
C712 C714 1.391 . S
C713 C712 1.386 . S
C713 C717 1.393 . S
C714 H706 0.950 . S
C714 C712 1.391 . S
C714 C715 1.400 . S
C715 C714 1.400 . S
C715 C716 1.398 . S
C715 C721 1.491 . S
C716 H707 0.950 . S
C716 C715 1.398 . S
C716 C717 1.391 . S
C717 H705 0.950 . S
C717 C713 1.393 . S
C717 C716 1.391 . S
C718 H708 0.950 . S
C718 C719 1.386 . S
C718 C720 1.391 . S
C719 C718 1.386 . S
C719 C723 1.393 . S
C720 H709 0.950 . S
C720 C718 1.391 . S
C720 C721 1.400 . S
C721 C715 1.491 . S
C721 C720 1.400 . S
C721 C722 1.398 . S
C722 H710 0.950 . S
C722 C721 1.398 . S
C722 C723 1.391 . S
C723 H711 0.950 . S
C723 C719 1.393 . S
C723 C722 1.391 . S
H724 C732 0.950 . S
H725 C737 0.950 . S
H726 C734 0.950 . S
H727 C736 0.950 . S
H728 C738 0.950 . S
H729 C740 0.950 . S
H730 C742 0.950 . S
H731 C743 0.950 . S
C732 H724 0.950 . S
C732 C733 1.386 . S
C732 C734 1.391 . S
C733 C732 1.386 . S
C733 C737 1.393 . S
C734 H726 0.950 . S
C734 C732 1.391 . S
C734 C735 1.400 . S
C735 C734 1.400 . S
C735 C736 1.398 . S
C735 C741 1.491 . S
C736 H727 0.950 . S
C736 C735 1.398 . S
C736 C737 1.391 . S
C737 H725 0.950 . S
C737 C733 1.393 . S
C737 C736 1.391 . S
C738 H728 0.950 . S
C738 C739 1.386 . S
C738 C740 1.391 . S
C739 C738 1.386 . S
C739 C743 1.393 . S
C740 H729 0.950 . S
C740 C738 1.391 . S
C740 C741 1.400 . S
C741 C735 1.491 . S
C741 C740 1.400 . S
C741 C742 1.398 . S
C742 H730 0.950 . S
C742 C741 1.398 . S
C742 C743 1.391 . S
C743 H731 0.950 . S
C743 C739 1.393 . S
C743 C742 1.391 . S
H744 C752 0.950 . S
H745 C757 0.950 . S
H746 C754 0.950 . S
H747 C756 0.950 . S
H748 C758 0.950 . S
H749 C760 0.950 . S
H750 C762 0.950 . S
H751 C763 0.950 . S
C752 H744 0.950 . S
C752 C753 1.386 . S
C752 C754 1.391 . S
C753 C752 1.386 . S
C753 C757 1.393 . S
C754 H746 0.950 . S
C754 C752 1.391 . S
C754 C755 1.400 . S
C755 C754 1.400 . S
C755 C756 1.398 . S
C755 C761 1.491 . S
C756 H747 0.950 . S
C756 C755 1.398 . S
C756 C757 1.391 . S
C757 H745 0.950 . S
C757 C753 1.393 . S
C757 C756 1.391 . S
C758 H748 0.950 . S
C758 C759 1.386 . S
C758 C760 1.391 . S
C759 C758 1.386 . S
C759 C763 1.393 . S
C760 H749 0.950 . S
C760 C758 1.391 . S
C760 C761 1.400 . S
C761 C755 1.491 . S
C761 C760 1.400 . S
C761 C762 1.398 . S
C762 H750 0.950 . S
C762 C761 1.398 . S
C762 C763 1.391 . S
C763 H751 0.950 . S
C763 C759 1.393 . S
C763 C762 1.391 . S
H764 C772 0.950 . S
H765 C777 0.950 . S
H766 C774 0.950 . S
H767 C776 0.950 . S
H768 C778 0.950 . S
H769 C780 0.950 . S
H770 C782 0.950 . S
H771 C783 0.950 . S
C772 H764 0.950 . S
C772 C773 1.386 . S
C772 C774 1.391 . S
C773 C772 1.386 . S
C773 C777 1.393 . S
C774 H766 0.950 . S
C774 C772 1.391 . S
C774 C775 1.400 . S
C775 C774 1.400 . S
C775 C776 1.398 . S
C775 C781 1.491 . S
C776 H767 0.950 . S
C776 C775 1.398 . S
C776 C777 1.391 . S
C777 H765 0.950 . S
C777 C773 1.393 . S
C777 C776 1.391 . S
C778 H768 0.950 . S
C778 C779 1.386 . S
C778 C780 1.391 . S
C779 C778 1.386 . S
C779 C783 1.393 . S
C780 H769 0.950 . S
C780 C778 1.391 . S
C780 C781 1.400 . S
C781 C775 1.491 . S
C781 C780 1.400 . S
C781 C782 1.398 . S
C782 H770 0.950 . S
C782 C781 1.398 . S
C782 C783 1.391 . S
C783 H771 0.950 . S
C783 C779 1.393 . S
C783 C782 1.391 . S
H784 C792 0.950 . S
H785 C797 0.950 . S
H786 C794 0.950 . S
H787 C796 0.950 . S
H788 C798 0.950 . S
H789 C800 0.950 . S
H790 C802 0.950 . S
H791 C803 0.950 . S
C792 H784 0.950 . S
C792 C793 1.386 . S
C792 C794 1.391 . S
C793 C792 1.386 . S
C793 C797 1.393 . S
C794 H786 0.950 . S
C794 C792 1.391 . S
C794 C795 1.400 . S
C795 C794 1.400 . S
C795 C796 1.398 . S
C795 C801 1.491 . S
C796 H787 0.950 . S
C796 C795 1.398 . S
C796 C797 1.391 . S
C797 H785 0.950 . S
C797 C793 1.393 . S
C797 C796 1.391 . S
C798 H788 0.950 . S
C798 C799 1.386 . S
C798 C800 1.391 . S
C799 C798 1.386 . S
C799 C803 1.393 . S
C800 H789 0.950 . S
C800 C798 1.391 . S
C800 C801 1.400 . S
C801 C795 1.491 . S
C801 C800 1.400 . S
C801 C802 1.398 . S
C802 H790 0.950 . S
C802 C801 1.398 . S
C802 C803 1.391 . S
C803 H791 0.950 . S
C803 C799 1.393 . S
C803 C802 1.391 . S
H804 C812 0.950 . S
H805 C817 0.950 . S
H806 C814 0.950 . S
H807 C816 0.950 . S
H808 C818 0.950 . S
H809 C820 0.950 . S
H810 C822 0.950 . S
H811 C823 0.950 . S
C812 H804 0.950 . S
C812 C813 1.386 . S
C812 C814 1.391 . S
C813 C812 1.386 . S
C813 C817 1.393 . S
C814 H806 0.950 . S
C814 C812 1.391 . S
C814 C815 1.400 . S
C815 C814 1.400 . S
C815 C816 1.398 . S
C815 C821 1.491 . S
C816 H807 0.950 . S
C816 C815 1.398 . S
C816 C817 1.391 . S
C817 H805 0.950 . S
C817 C813 1.393 . S
C817 C816 1.391 . S
C818 H808 0.950 . S
C818 C819 1.386 . S
C818 C820 1.391 . S
C819 C818 1.386 . S
C819 C823 1.393 . S
C820 H809 0.950 . S
C820 C818 1.391 . S
C820 C821 1.400 . S
C821 C815 1.491 . S
C821 C820 1.400 . S
C821 C822 1.398 . S
C822 H810 0.950 . S
C822 C821 1.398 . S
C822 C823 1.391 . S
C823 H811 0.950 . S
C823 C819 1.393 . S
C823 C822 1.391 . S
H824 C832 0.950 . S
H825 C837 0.950 . S
H826 C834 0.950 . S
H827 C836 0.950 . S
H828 C838 0.950 . S
H829 C840 0.950 . S
H830 C842 0.950 . S
H831 C843 0.950 . S
C832 H824 0.950 . S
C832 C833 1.386 . S
C832 C834 1.391 . S
C833 C832 1.386 . S
C833 C837 1.393 . S
C834 H826 0.950 . S
C834 C832 1.391 . S
C834 C835 1.400 . S
C835 C834 1.400 . S
C835 C836 1.398 . S
C835 C841 1.491 . S
C836 H827 0.950 . S
C836 C835 1.398 . S
C836 C837 1.391 . S
C837 H825 0.950 . S
C837 C833 1.393 . S
C837 C836 1.391 . S
C838 H828 0.950 . S
C838 C839 1.386 . S
C838 C840 1.391 . S
C839 C838 1.386 . S
C839 C843 1.393 . S
C840 H829 0.950 . S
C840 C838 1.391 . S
C840 C841 1.400 . S
C841 C835 1.491 . S
C841 C840 1.400 . S
C841 C842 1.398 . S
C842 H830 0.950 . S
C842 C841 1.398 . S
C842 C843 1.391 . S
C843 H831 0.950 . S
C843 C839 1.393 . S
C843 C842 1.391 . S
H844 C852 0.950 . S
H845 C857 0.950 . S
H846 C854 0.950 . S
H847 C856 0.950 . S
H848 C858 0.950 . S
H849 C860 0.950 . S
H850 C862 0.950 . S
H851 C863 0.950 . S
C852 H844 0.950 . S
C852 C853 1.386 . S
C852 C854 1.391 . S
C853 C852 1.386 . S
C853 C857 1.393 . S
C854 H846 0.950 . S
C854 C852 1.391 . S
C854 C855 1.400 . S
C855 C854 1.400 . S
C855 C856 1.398 . S
C855 C861 1.491 . S
C856 H847 0.950 . S
C856 C855 1.398 . S
C856 C857 1.391 . S
C857 H845 0.950 . S
C857 C853 1.393 . S
C857 C856 1.391 . S
C858 H848 0.950 . S
C858 C859 1.386 . S
C858 C860 1.391 . S
C859 C858 1.386 . S
C859 C863 1.393 . S
C860 H849 0.950 . S
C860 C858 1.391 . S
C860 C861 1.400 . S
C861 C855 1.491 . S
C861 C860 1.400 . S
C861 C862 1.398 . S
C862 H850 0.950 . S
C862 C861 1.398 . S
C862 C863 1.391 . S
C863 H851 0.950 . S
C863 C859 1.393 . S
C863 C862 1.391 . S
H864 C872 0.950 . S
H865 C877 0.950 . S
H866 C874 0.950 . S
H867 C876 0.950 . S
H868 C878 0.950 . S
H869 C880 0.950 . S
H870 C882 0.950 . S
H871 C883 0.950 . S
C872 H864 0.950 . S
C872 C873 1.386 . S
C872 C874 1.391 . S
C873 C872 1.386 . S
C873 C877 1.393 . S
C874 H866 0.950 . S
C874 C872 1.391 . S
C874 C875 1.400 . S
C875 C874 1.400 . S
C875 C876 1.398 . S
C875 C881 1.491 . S
C876 H867 0.950 . S
C876 C875 1.398 . S
C876 C877 1.391 . S
C877 H865 0.950 . S
C877 C873 1.393 . S
C877 C876 1.391 . S
C878 H868 0.950 . S
C878 C879 1.386 . S
C878 C880 1.391 . S
C879 C878 1.386 . S
C879 C883 1.393 . S
C880 H869 0.950 . S
C880 C878 1.391 . S
C880 C881 1.400 . S
C881 C875 1.491 . S
C881 C880 1.400 . S
C881 C882 1.398 . S
C882 H870 0.950 . S
C882 C881 1.398 . S
C882 C883 1.391 . S
C883 H871 0.950 . S
C883 C879 1.393 . S
C883 C882 1.391 . S
H884 C892 0.950 . S
H885 C897 0.950 . S
H886 C894 0.950 . S
H887 C896 0.950 . S
H888 C898 0.950 . S
H889 C900 0.950 . S
H890 C902 0.950 . S
H891 C903 0.950 . S
C892 H884 0.950 . S
C892 C893 1.386 . S
C892 C894 1.391 . S
C893 C892 1.386 . S
C893 C897 1.393 . S
C894 H886 0.950 . S
C894 C892 1.391 . S
C894 C895 1.400 . S
C895 C894 1.400 . S
C895 C896 1.398 . S
C895 C901 1.491 . S
C896 H887 0.950 . S
C896 C895 1.398 . S
C896 C897 1.391 . S
C897 H885 0.950 . S
C897 C893 1.393 . S
C897 C896 1.391 . S
C898 H888 0.950 . S
C898 C899 1.386 . S
C898 C900 1.391 . S
C899 C898 1.386 . S
C899 C903 1.393 . S
C900 H889 0.950 . S
C900 C898 1.391 . S
C900 C901 1.400 . S
C901 C895 1.491 . S
C901 C900 1.400 . S
C901 C902 1.398 . S
C902 H890 0.950 . S
C902 C901 1.398 . S
C902 C903 1.391 . S
C903 H891 0.950 . S
C903 C899 1.393 . S
C903 C902 1.391 . S
H904 C912 0.950 . S
H905 C917 0.950 . S
H906 C914 0.950 . S
H907 C916 0.950 . S
H908 C918 0.950 . S
H909 C920 0.950 . S
H910 C922 0.950 . S
H911 C923 0.950 . S
C912 H904 0.950 . S
C912 C913 1.386 . S
C912 C914 1.391 . S
C913 C912 1.386 . S
C913 C917 1.393 . S
C914 H906 0.950 . S
C914 C912 1.391 . S
C914 C915 1.400 . S
C915 C914 1.400 . S
C915 C916 1.398 . S
C915 C921 1.491 . S
C916 H907 0.950 . S
C916 C915 1.398 . S
C916 C917 1.391 . S
C917 H905 0.950 . S
C917 C913 1.393 . S
C917 C916 1.391 . S
C918 H908 0.950 . S
C918 C919 1.386 . S
C918 C920 1.391 . S
C919 C918 1.386 . S
C919 C923 1.393 . S
C920 H909 0.950 . S
C920 C918 1.391 . S
C920 C921 1.400 . S
C921 C915 1.491 . S
C921 C920 1.400 . S
C921 C922 1.398 . S
C922 H910 0.950 . S
C922 C921 1.398 . S
C922 C923 1.391 . S
C923 H911 0.950 . S
C923 C919 1.393 . S
C923 C922 1.391 . S
H924 C932 0.950 . S
H925 C937 0.950 . S
H926 C934 0.950 . S
H927 C936 0.950 . S
H928 C938 0.950 . S
H929 C940 0.950 . S
H930 C942 0.950 . S
H931 C943 0.950 . S
C932 H924 0.950 . S
C932 C933 1.386 . S
C932 C934 1.391 . S
C933 C932 1.386 . S
C933 C937 1.393 . S
C934 H926 0.950 . S
C934 C932 1.391 . S
C934 C935 1.400 . S
C935 C934 1.400 . S
C935 C936 1.398 . S
C935 C941 1.491 . S
C936 H927 0.950 . S
C936 C935 1.398 . S
C936 C937 1.391 . S
C937 H925 0.950 . S
C937 C933 1.393 . S
C937 C936 1.391 . S
C938 H928 0.950 . S
C938 C939 1.386 . S
C938 C940 1.391 . S
C939 C938 1.386 . S
C939 C943 1.393 . S
C940 H929 0.950 . S
C940 C938 1.391 . S
C940 C941 1.400 . S
C941 C935 1.491 . S
C941 C940 1.400 . S
C941 C942 1.398 . S
C942 H930 0.950 . S
C942 C941 1.398 . S
C942 C943 1.391 . S
C943 H931 0.950 . S
C943 C939 1.393 . S
C943 C942 1.391 . S
H944 C952 0.950 . S
H945 C957 0.950 . S
H946 C954 0.950 . S
H947 C956 0.950 . S
H948 C958 0.950 . S
H949 C960 0.950 . S
H950 C962 0.950 . S
H951 C963 0.950 . S
C952 H944 0.950 . S
C952 C953 1.386 . S
C952 C954 1.391 . S
C953 C952 1.386 . S
C953 C957 1.393 . S
C954 H946 0.950 . S
C954 C952 1.391 . S
C954 C955 1.400 . S
C955 C954 1.400 . S
C955 C956 1.398 . S
C955 C961 1.491 . S
C956 H947 0.950 . S
C956 C955 1.398 . S
C956 C957 1.391 . S
C957 H945 0.950 . S
C957 C953 1.393 . S
C957 C956 1.391 . S
C958 H948 0.950 . S
C958 C959 1.386 . S
C958 C960 1.391 . S
C959 C958 1.386 . S
C959 C963 1.393 . S
C960 H949 0.950 . S
C960 C958 1.391 . S
C960 C961 1.400 . S
C961 C955 1.491 . S
C961 C960 1.400 . S
C961 C962 1.398 . S
C962 H950 0.950 . S
C962 C961 1.398 . S
C962 C963 1.391 . S
C963 H951 0.950 . S
C963 C959 1.393 . S
C963 C962 1.391 . S
H964 C972 0.950 . S
H965 C977 0.950 . S
H966 C974 0.950 . S
H967 C976 0.950 . S
H968 C978 0.950 . S
H969 C980 0.950 . S
H970 C982 0.950 . S
H971 C983 0.950 . S
C972 H964 0.950 . S
C972 C973 1.386 . S
C972 C974 1.391 . S
C973 C972 1.386 . S
C973 C977 1.393 . S
C974 H966 0.950 . S
C974 C972 1.391 . S
C974 C975 1.400 . S
C975 C974 1.400 . S
C975 C976 1.398 . S
C975 C981 1.491 . S
C976 H967 0.950 . S
C976 C975 1.398 . S
C976 C977 1.391 . S
C977 H965 0.950 . S
C977 C973 1.393 . S
C977 C976 1.391 . S
C978 H968 0.950 . S
C978 C979 1.386 . S
C978 C980 1.391 . S
C979 C978 1.386 . S
C979 C983 1.393 . S
C980 H969 0.950 . S
C980 C978 1.391 . S
C980 C981 1.400 . S
C981 C975 1.491 . S
C981 C980 1.400 . S
C981 C982 1.398 . S
C982 H970 0.950 . S
C982 C981 1.398 . S
C982 C983 1.391 . S
C983 H971 0.950 . S
C983 C979 1.393 . S
C983 C982 1.391 . S
H984 C992 0.950 . S
H985 C997 0.950 . S
H986 C994 0.950 . S
H987 C996 0.950 . S
H988 C998 0.950 . S
H989 C1000 0.950 . S
H990 C1002 0.950 . S
H991 C1003 0.950 . S
C992 H984 0.950 . S
C992 C993 1.386 . S
C992 C994 1.391 . S
C993 C992 1.386 . S
C993 C997 1.393 . S
C994 H986 0.950 . S
C994 C992 1.391 . S
C994 C995 1.400 . S
C995 C994 1.400 . S
C995 C996 1.398 . S
C995 C1001 1.491 . S
C996 H987 0.950 . S
C996 C995 1.398 . S
C996 C997 1.391 . S
C997 H985 0.950 . S
C997 C993 1.393 . S
C997 C996 1.391 . S
C998 H988 0.950 . S
C998 C999 1.386 . S
C998 C1000 1.391 . S
C999 C998 1.386 . S
C999 C1003 1.393 . S
C1000 H989 0.950 . S
C1000 C998 1.391 . S
C1000 C1001 1.400 . S
C1001 C995 1.491 . S
C1001 C1000 1.400 . S
C1001 C1002 1.398 . S
C1002 H990 0.950 . S
C1002 C1001 1.398 . S
C1002 C1003 1.391 . S
C1003 H991 0.950 . S
C1003 C999 1.393 . S
C1003 C1002 1.391 . S
H1004 C1012 0.950 . S
H1005 C1017 0.950 . S
H1006 C1014 0.950 . S
H1007 C1016 0.950 . S
H1008 C1018 0.950 . S
H1009 C1020 0.950 . S
H1010 C1022 0.950 . S
H1011 C1023 0.950 . S
C1012 H1004 0.950 . S
C1012 C1013 1.386 . S
C1012 C1014 1.391 . S
C1013 C1012 1.386 . S
C1013 C1017 1.393 . S
C1014 H1006 0.950 . S
C1014 C1012 1.391 . S
C1014 C1015 1.400 . S
C1015 C1014 1.400 . S
C1015 C1016 1.398 . S
C1015 C1021 1.491 . S
C1016 H1007 0.950 . S
C1016 C1015 1.398 . S
C1016 C1017 1.391 . S
C1017 H1005 0.950 . S
C1017 C1013 1.393 . S
C1017 C1016 1.391 . S
C1018 H1008 0.950 . S
C1018 C1019 1.386 . S
C1018 C1020 1.391 . S
C1019 C1018 1.386 . S
C1019 C1023 1.393 . S
C1020 H1009 0.950 . S
C1020 C1018 1.391 . S
C1020 C1021 1.400 . S
C1021 C1015 1.491 . S
C1021 C1020 1.400 . S
C1021 C1022 1.398 . S
C1022 H1010 0.950 . S
C1022 C1021 1.398 . S
C1022 C1023 1.391 . S
C1023 H1011 0.950 . S
C1023 C1019 1.393 . S
C1023 C1022 1.391 . S
H1024 C1032 0.950 . S
H1025 C1037 0.950 . S
H1026 C1034 0.950 . S
H1027 C1036 0.950 . S
H1028 C1038 0.950 . S
H1029 C1040 0.950 . S
H1030 C1042 0.950 . S
H1031 C1043 0.950 . S
C1032 H1024 0.950 . S
C1032 C1033 1.386 . S
C1032 C1034 1.391 . S
C1033 C1032 1.386 . S
C1033 C1037 1.393 . S
C1034 H1026 0.950 . S
C1034 C1032 1.391 . S
C1034 C1035 1.400 . S
C1035 C1034 1.400 . S
C1035 C1036 1.398 . S
C1035 C1041 1.491 . S
C1036 H1027 0.950 . S
C1036 C1035 1.398 . S
C1036 C1037 1.391 . S
C1037 H1025 0.950 . S
C1037 C1033 1.393 . S
C1037 C1036 1.391 . S
C1038 H1028 0.950 . S
C1038 C1039 1.386 . S
C1038 C1040 1.391 . S
C1039 C1038 1.386 . S
C1039 C1043 1.393 . S
C1040 H1029 0.950 . S
C1040 C1038 1.391 . S
C1040 C1041 1.400 . S
C1041 C1035 1.491 . S
C1041 C1040 1.400 . S
C1041 C1042 1.398 . S
C1042 H1030 0.950 . S
C1042 C1041 1.398 . S
C1042 C1043 1.391 . S
C1043 H1031 0.950 . S
C1043 C1039 1.393 . S
C1043 C1042 1.391 . S
H1044 C1052 0.950 . S
H1045 C1057 0.950 . S
H1046 C1054 0.950 . S
H1047 C1056 0.950 . S
H1048 C1058 0.950 . S
H1049 C1060 0.950 . S
H1050 C1062 0.950 . S
H1051 C1063 0.950 . S
C1052 H1044 0.950 . S
C1052 C1053 1.386 . S
C1052 C1054 1.391 . S
C1053 C1052 1.386 . S
C1053 C1057 1.393 . S
C1054 H1046 0.950 . S
C1054 C1052 1.391 . S
C1054 C1055 1.400 . S
C1055 C1054 1.400 . S
C1055 C1056 1.398 . S
C1055 C1061 1.491 . S
C1056 H1047 0.950 . S
C1056 C1055 1.398 . S
C1056 C1057 1.391 . S
C1057 H1045 0.950 . S
C1057 C1053 1.393 . S
C1057 C1056 1.391 . S
C1058 H1048 0.950 . S
C1058 C1059 1.386 . S
C1058 C1060 1.391 . S
C1059 C1058 1.386 . S
C1059 C1063 1.393 . S
C1060 H1049 0.950 . S
C1060 C1058 1.391 . S
C1060 C1061 1.400 . S
C1061 C1055 1.491 . S
C1061 C1060 1.400 . S
C1061 C1062 1.398 . S
C1062 H1050 0.950 . S
C1062 C1061 1.398 . S
C1062 C1063 1.391 . S
C1063 H1051 0.950 . S
C1063 C1059 1.393 . S
C1063 C1062 1.391 . S
H1064 C1072 0.950 . S
H1065 C1077 0.950 . S
H1066 C1074 0.950 . S
H1067 C1076 0.950 . S
H1068 C1078 0.950 . S
H1069 C1080 0.950 . S
H1070 C1082 0.950 . S
H1071 C1083 0.950 . S
C1072 H1064 0.950 . S
C1072 C1073 1.386 . S
C1072 C1074 1.391 . S
C1073 C1072 1.386 . S
C1073 C1077 1.393 . S
C1074 H1066 0.950 . S
C1074 C1072 1.391 . S
C1074 C1075 1.400 . S
C1075 C1074 1.400 . S
C1075 C1076 1.398 . S
C1075 C1081 1.491 . S
C1076 H1067 0.950 . S
C1076 C1075 1.398 . S
C1076 C1077 1.391 . S
C1077 H1065 0.950 . S
C1077 C1073 1.393 . S
C1077 C1076 1.391 . S
C1078 H1068 0.950 . S
C1078 C1079 1.386 . S
C1078 C1080 1.391 . S
C1079 C1078 1.386 . S
C1079 C1083 1.393 . S
C1080 H1069 0.950 . S
C1080 C1078 1.391 . S
C1080 C1081 1.400 . S
C1081 C1075 1.491 . S
C1081 C1080 1.400 . S
C1081 C1082 1.398 . S
C1082 H1070 0.950 . S
C1082 C1081 1.398 . S
C1082 C1083 1.391 . S
C1083 H1071 0.950 . S
C1083 C1079 1.393 . S
C1083 C1082 1.391 . S
H1084 C1092 0.950 . S
H1085 C1097 0.950 . S
H1086 C1094 0.950 . S
H1087 C1096 0.950 . S
H1088 C1098 0.950 . S
H1089 C1100 0.950 . S
H1090 C1102 0.950 . S
H1091 C1103 0.950 . S
C1092 H1084 0.950 . S
C1092 C1093 1.386 . S
C1092 C1094 1.391 . S
C1093 C1092 1.386 . S
C1093 C1097 1.393 . S
C1094 H1086 0.950 . S
C1094 C1092 1.391 . S
C1094 C1095 1.400 . S
C1095 C1094 1.400 . S
C1095 C1096 1.398 . S
C1095 C1101 1.491 . S
C1096 H1087 0.950 . S
C1096 C1095 1.398 . S
C1096 C1097 1.391 . S
C1097 H1085 0.950 . S
C1097 C1093 1.393 . S
C1097 C1096 1.391 . S
C1098 H1088 0.950 . S
C1098 C1099 1.386 . S
C1098 C1100 1.391 . S
C1099 C1098 1.386 . S
C1099 C1103 1.393 . S
C1100 H1089 0.950 . S
C1100 C1098 1.391 . S
C1100 C1101 1.400 . S
C1101 C1095 1.491 . S
C1101 C1100 1.400 . S
C1101 C1102 1.398 . S
C1102 H1090 0.950 . S
C1102 C1101 1.398 . S
C1102 C1103 1.391 . S
C1103 H1091 0.950 . S
C1103 C1099 1.393 . S
C1103 C1102 1.391 . S
H1104 C1112 0.950 . S
H1105 C1117 0.950 . S
H1106 C1114 0.950 . S
H1107 C1116 0.950 . S
H1108 C1118 0.950 . S
H1109 C1120 0.950 . S
H1110 C1122 0.950 . S
H1111 C1123 0.950 . S
C1112 H1104 0.950 . S
C1112 C1113 1.386 . S
C1112 C1114 1.391 . S
C1113 C1112 1.386 . S
C1113 C1117 1.393 . S
C1114 H1106 0.950 . S
C1114 C1112 1.391 . S
C1114 C1115 1.400 . S
C1115 C1114 1.400 . S
C1115 C1116 1.398 . S
C1115 C1121 1.491 . S
C1116 H1107 0.950 . S
C1116 C1115 1.398 . S
C1116 C1117 1.391 . S
C1117 H1105 0.950 . S
C1117 C1113 1.393 . S
C1117 C1116 1.391 . S
C1118 H1108 0.950 . S
C1118 C1119 1.386 . S
C1118 C1120 1.391 . S
C1119 C1118 1.386 . S
C1119 C1123 1.393 . S
C1120 H1109 0.950 . S
C1120 C1118 1.391 . S
C1120 C1121 1.400 . S
C1121 C1115 1.491 . S
C1121 C1120 1.400 . S
C1121 C1122 1.398 . S
C1122 H1110 0.950 . S
C1122 C1121 1.398 . S
C1122 C1123 1.391 . S
C1123 H1111 0.950 . S
C1123 C1119 1.393 . S
C1123 C1122 1.391 . S
H1124 C1132 0.950 . S
H1125 C1137 0.950 . S
H1126 C1134 0.950 . S
H1127 C1136 0.950 . S
H1128 C1138 0.950 . S
H1129 C1140 0.950 . S
H1130 C1142 0.950 . S
H1131 C1143 0.950 . S
C1132 H1124 0.950 . S
C1132 C1133 1.386 . S
C1132 C1134 1.391 . S
C1133 C1132 1.386 . S
C1133 C1137 1.393 . S
C1134 H1126 0.950 . S
C1134 C1132 1.391 . S
C1134 C1135 1.400 . S
C1135 C1134 1.400 . S
C1135 C1136 1.398 . S
C1135 C1141 1.491 . S
C1136 H1127 0.950 . S
C1136 C1135 1.398 . S
C1136 C1137 1.391 . S
C1137 H1125 0.950 . S
C1137 C1133 1.393 . S
C1137 C1136 1.391 . S
C1138 H1128 0.950 . S
C1138 C1139 1.386 . S
C1138 C1140 1.391 . S
C1139 C1138 1.386 . S
C1139 C1143 1.393 . S
C1140 H1129 0.950 . S
C1140 C1138 1.391 . S
C1140 C1141 1.400 . S
C1141 C1135 1.491 . S
C1141 C1140 1.400 . S
C1141 C1142 1.398 . S
C1142 H1130 0.950 . S
C1142 C1141 1.398 . S
C1142 C1143 1.391 . S
C1143 H1131 0.950 . S
C1143 C1139 1.393 . S
C1143 C1142 1.391 . S
H1144 C1152 0.950 . S
H1145 C1157 0.950 . S
H1146 C1154 0.950 . S
H1147 C1156 0.950 . S
H1148 C1158 0.950 . S
H1149 C1160 0.950 . S
H1150 C1162 0.950 . S
H1151 C1163 0.950 . S
C1152 H1144 0.950 . S
C1152 C1153 1.386 . S
C1152 C1154 1.391 . S
C1153 C1152 1.386 . S
C1153 C1157 1.393 . S
C1154 H1146 0.950 . S
C1154 C1152 1.391 . S
C1154 C1155 1.400 . S
C1155 C1154 1.400 . S
C1155 C1156 1.398 . S
C1155 C1161 1.491 . S
C1156 H1147 0.950 . S
C1156 C1155 1.398 . S
C1156 C1157 1.391 . S
C1157 H1145 0.950 . S
C1157 C1153 1.393 . S
C1157 C1156 1.391 . S
C1158 H1148 0.950 . S
C1158 C1159 1.386 . S
C1158 C1160 1.391 . S
C1159 C1158 1.386 . S
C1159 C1163 1.393 . S
C1160 H1149 0.950 . S
C1160 C1158 1.391 . S
C1160 C1161 1.400 . S
C1161 C1155 1.491 . S
C1161 C1160 1.400 . S
C1161 C1162 1.398 . S
C1162 H1150 0.950 . S
C1162 C1161 1.398 . S
C1162 C1163 1.391 . S
C1163 H1151 0.950 . S
C1163 C1159 1.393 . S
C1163 C1162 1.391 . S
H1164 C1172 0.950 . S
H1165 C1177 0.950 . S
H1166 C1174 0.950 . S
H1167 C1176 0.950 . S
H1168 C1178 0.950 . S
H1169 C1180 0.950 . S
H1170 C1182 0.950 . S
H1171 C1183 0.950 . S
C1172 H1164 0.950 . S
C1172 C1173 1.386 . S
C1172 C1174 1.391 . S
C1173 C1172 1.386 . S
C1173 C1177 1.393 . S
C1174 H1166 0.950 . S
C1174 C1172 1.391 . S
C1174 C1175 1.400 . S
C1175 C1174 1.400 . S
C1175 C1176 1.398 . S
C1175 C1181 1.491 . S
C1176 H1167 0.950 . S
C1176 C1175 1.398 . S
C1176 C1177 1.391 . S
C1177 H1165 0.950 . S
C1177 C1173 1.393 . S
C1177 C1176 1.391 . S
C1178 H1168 0.950 . S
C1178 C1179 1.386 . S
C1178 C1180 1.391 . S
C1179 C1178 1.386 . S
C1179 C1183 1.393 . S
C1180 H1169 0.950 . S
C1180 C1178 1.391 . S
C1180 C1181 1.400 . S
C1181 C1175 1.491 . S
C1181 C1180 1.400 . S
C1181 C1182 1.398 . S
C1182 H1170 0.950 . S
C1182 C1181 1.398 . S
C1182 C1183 1.391 . S
C1183 H1171 0.950 . S
C1183 C1179 1.393 . S
C1183 C1182 1.391 . S
H1184 C1192 0.950 . S
H1185 C1197 0.950 . S
H1186 C1194 0.950 . S
H1187 C1196 0.950 . S
H1188 C1198 0.950 . S
H1189 C1200 0.950 . S
H1190 C1202 0.950 . S
H1191 C1203 0.950 . S
C1192 H1184 0.950 . S
C1192 C1193 1.386 . S
C1192 C1194 1.391 . S
C1193 C1192 1.386 . S
C1193 C1197 1.393 . S
C1194 H1186 0.950 . S
C1194 C1192 1.391 . S
C1194 C1195 1.400 . S
C1195 C1194 1.400 . S
C1195 C1196 1.398 . S
C1195 C1201 1.491 . S
C1196 H1187 0.950 . S
C1196 C1195 1.398 . S
C1196 C1197 1.391 . S
C1197 H1185 0.950 . S
C1197 C1193 1.393 . S
C1197 C1196 1.391 . S
C1198 H1188 0.950 . S
C1198 C1199 1.386 . S
C1198 C1200 1.391 . S
C1199 C1198 1.386 . S
C1199 C1203 1.393 . S
C1200 H1189 0.950 . S
C1200 C1198 1.391 . S
C1200 C1201 1.400 . S
C1201 C1195 1.491 . S
C1201 C1200 1.400 . S
C1201 C1202 1.398 . S
C1202 H1190 0.950 . S
C1202 C1201 1.398 . S
C1202 C1203 1.391 . S
C1203 H1191 0.950 . S
C1203 C1199 1.393 . S
C1203 C1202 1.391 . S
H1204 C1212 0.950 . S
H1205 C1217 0.950 . S
H1206 C1214 0.950 . S
H1207 C1216 0.950 . S
H1208 C1218 0.950 . S
H1209 C1220 0.950 . S
H1210 C1222 0.950 . S
H1211 C1223 0.950 . S
C1212 H1204 0.950 . S
C1212 C1213 1.386 . S
C1212 C1214 1.391 . S
C1213 C1212 1.386 . S
C1213 C1217 1.393 . S
C1214 H1206 0.950 . S
C1214 C1212 1.391 . S
C1214 C1215 1.400 . S
C1215 C1214 1.400 . S
C1215 C1216 1.398 . S
C1215 C1221 1.491 . S
C1216 H1207 0.950 . S
C1216 C1215 1.398 . S
C1216 C1217 1.391 . S
C1217 H1205 0.950 . S
C1217 C1213 1.393 . S
C1217 C1216 1.391 . S
C1218 H1208 0.950 . S
C1218 C1219 1.386 . S
C1218 C1220 1.391 . S
C1219 C1218 1.386 . S
C1219 C1223 1.393 . S
C1220 H1209 0.950 . S
C1220 C1218 1.391 . S
C1220 C1221 1.400 . S
C1221 C1215 1.491 . S
C1221 C1220 1.400 . S
C1221 C1222 1.398 . S
C1222 H1210 0.950 . S
C1222 C1221 1.398 . S
C1222 C1223 1.391 . S
C1223 H1211 0.950 . S
C1223 C1219 1.393 . S
C1223 C1222 1.391 . S
H1224 C1232 0.950 . S
H1225 C1237 0.950 . S
H1226 C1234 0.950 . S
H1227 C1236 0.950 . S
H1228 C1238 0.950 . S
H1229 C1240 0.950 . S
H1230 C1242 0.950 . S
H1231 C1243 0.950 . S
C1232 H1224 0.950 . S
C1232 C1233 1.386 . S
C1232 C1234 1.391 . S
C1233 C1232 1.386 . S
C1233 C1237 1.393 . S
C1234 H1226 0.950 . S
C1234 C1232 1.391 . S
C1234 C1235 1.400 . S
C1235 C1234 1.400 . S
C1235 C1236 1.398 . S
C1235 C1241 1.491 . S
C1236 H1227 0.950 . S
C1236 C1235 1.398 . S
C1236 C1237 1.391 . S
C1237 H1225 0.950 . S
C1237 C1233 1.393 . S
C1237 C1236 1.391 . S
C1238 H1228 0.950 . S
C1238 C1239 1.386 . S
C1238 C1240 1.391 . S
C1239 C1238 1.386 . S
C1239 C1243 1.393 . S
C1240 H1229 0.950 . S
C1240 C1238 1.391 . S
C1240 C1241 1.400 . S
C1241 C1235 1.491 . S
C1241 C1240 1.400 . S
C1241 C1242 1.398 . S
C1242 H1230 0.950 . S
C1242 C1241 1.398 . S
C1242 C1243 1.391 . S
C1243 H1231 0.950 . S
C1243 C1239 1.393 . S
C1243 C1242 1.391 . S
H1244 C1252 0.950 . S
H1245 C1257 0.950 . S
H1246 C1254 0.950 . S
H1247 C1256 0.950 . S
H1248 C1258 0.950 . S
H1249 C1260 0.950 . S
H1250 C1262 0.950 . S
H1251 C1263 0.950 . S
C1252 H1244 0.950 . S
C1252 C1253 1.386 . S
C1252 C1254 1.391 . S
C1253 C1252 1.386 . S
C1253 C1257 1.393 . S
C1254 H1246 0.950 . S
C1254 C1252 1.391 . S
C1254 C1255 1.400 . S
C1255 C1254 1.400 . S
C1255 C1256 1.398 . S
C1255 C1261 1.491 . S
C1256 H1247 0.950 . S
C1256 C1255 1.398 . S
C1256 C1257 1.391 . S
C1257 H1245 0.950 . S
C1257 C1253 1.393 . S
C1257 C1256 1.391 . S
C1258 H1248 0.950 . S
C1258 C1259 1.386 . S
C1258 C1260 1.391 . S
C1259 C1258 1.386 . S
C1259 C1263 1.393 . S
C1260 H1249 0.950 . S
C1260 C1258 1.391 . S
C1260 C1261 1.400 . S
C1261 C1255 1.491 . S
C1261 C1260 1.400 . S
C1261 C1262 1.398 . S
C1262 H1250 0.950 . S
C1262 C1261 1.398 . S
C1262 C1263 1.391 . S
C1263 H1251 0.950 . S
C1263 C1259 1.393 . S
C1263 C1262 1.391 . S
H1264 C1272 0.950 . S
H1265 C1277 0.950 . S
H1266 C1274 0.950 . S
H1267 C1276 0.950 . S
H1268 C1278 0.950 . S
H1269 C1280 0.950 . S
H1270 C1282 0.950 . S
H1271 C1283 0.950 . S
C1272 H1264 0.950 . S
C1272 C1273 1.386 . S
C1272 C1274 1.391 . S
C1273 C1272 1.386 . S
C1273 C1277 1.393 . S
C1274 H1266 0.950 . S
C1274 C1272 1.391 . S
C1274 C1275 1.400 . S
C1275 C1274 1.400 . S
C1275 C1276 1.398 . S
C1275 C1281 1.491 . S
C1276 H1267 0.950 . S
C1276 C1275 1.398 . S
C1276 C1277 1.391 . S
C1277 H1265 0.950 . S
C1277 C1273 1.393 . S
C1277 C1276 1.391 . S
C1278 H1268 0.950 . S
C1278 C1279 1.386 . S
C1278 C1280 1.391 . S
C1279 C1278 1.386 . S
C1279 C1283 1.393 . S
C1280 H1269 0.950 . S
C1280 C1278 1.391 . S
C1280 C1281 1.400 . S
C1281 C1275 1.491 . S
C1281 C1280 1.400 . S
C1281 C1282 1.398 . S
C1282 H1270 0.950 . S
C1282 C1281 1.398 . S
C1282 C1283 1.391 . S
C1283 H1271 0.950 . S
C1283 C1279 1.393 . S
C1283 C1282 1.391 . S
H1284 C1292 0.950 . S
H1285 C1297 0.950 . S
H1286 C1294 0.950 . S
H1287 C1296 0.950 . S
H1288 C1298 0.950 . S
H1289 C1300 0.950 . S
H1290 C1302 0.950 . S
H1291 C1303 0.950 . S
C1292 H1284 0.950 . S
C1292 C1293 1.386 . S
C1292 C1294 1.391 . S
C1293 C1292 1.386 . S
C1293 C1297 1.393 . S
C1294 H1286 0.950 . S
C1294 C1292 1.391 . S
C1294 C1295 1.400 . S
C1295 C1294 1.400 . S
C1295 C1296 1.398 . S
C1295 C1301 1.491 . S
C1296 H1287 0.950 . S
C1296 C1295 1.398 . S
C1296 C1297 1.391 . S
C1297 H1285 0.950 . S
C1297 C1293 1.393 . S
C1297 C1296 1.391 . S
C1298 H1288 0.950 . S
C1298 C1299 1.386 . S
C1298 C1300 1.391 . S
C1299 C1298 1.386 . S
C1299 C1303 1.393 . S
C1300 H1289 0.950 . S
C1300 C1298 1.391 . S
C1300 C1301 1.400 . S
C1301 C1295 1.491 . S
C1301 C1300 1.400 . S
C1301 C1302 1.398 . S
C1302 H1290 0.950 . S
C1302 C1301 1.398 . S
C1302 C1303 1.391 . S
C1303 H1291 0.950 . S
C1303 C1299 1.393 . S
C1303 C1302 1.391 . S
H1304 C1312 0.950 . S
H1305 C1317 0.950 . S
H1306 C1314 0.950 . S
H1307 C1316 0.950 . S
H1308 C1318 0.950 . S
H1309 C1320 0.950 . S
H1310 C1322 0.950 . S
H1311 C1323 0.950 . S
C1312 H1304 0.950 . S
C1312 C1313 1.386 . S
C1312 C1314 1.391 . S
C1313 C1312 1.386 . S
C1313 C1317 1.393 . S
C1314 H1306 0.950 . S
C1314 C1312 1.391 . S
C1314 C1315 1.400 . S
C1315 C1314 1.400 . S
C1315 C1316 1.398 . S
C1315 C1321 1.491 . S
C1316 H1307 0.950 . S
C1316 C1315 1.398 . S
C1316 C1317 1.391 . S
C1317 H1305 0.950 . S
C1317 C1313 1.393 . S
C1317 C1316 1.391 . S
C1318 H1308 0.950 . S
C1318 C1319 1.386 . S
C1318 C1320 1.391 . S
C1319 C1318 1.386 . S
C1319 C1323 1.393 . S
C1320 H1309 0.950 . S
C1320 C1318 1.391 . S
C1320 C1321 1.400 . S
C1321 C1315 1.491 . S
C1321 C1320 1.400 . S
C1321 C1322 1.398 . S
C1322 H1310 0.950 . S
C1322 C1321 1.398 . S
C1322 C1323 1.391 . S
C1323 H1311 0.950 . S
C1323 C1319 1.393 . S
C1323 C1322 1.391 . S
H1324 C1332 0.950 . S
H1325 C1337 0.950 . S
H1326 C1334 0.950 . S
H1327 C1336 0.950 . S
H1328 C1338 0.950 . S
H1329 C1340 0.950 . S
H1330 C1342 0.950 . S
H1331 C1343 0.950 . S
C1332 H1324 0.950 . S
C1332 C1333 1.386 . S
C1332 C1334 1.391 . S
C1333 C1332 1.386 . S
C1333 C1337 1.393 . S
C1334 H1326 0.950 . S
C1334 C1332 1.391 . S
C1334 C1335 1.400 . S
C1335 C1334 1.400 . S
C1335 C1336 1.398 . S
C1335 C1341 1.491 . S
C1336 H1327 0.950 . S
C1336 C1335 1.398 . S
C1336 C1337 1.391 . S
C1337 H1325 0.950 . S
C1337 C1333 1.393 . S
C1337 C1336 1.391 . S
C1338 H1328 0.950 . S
C1338 C1339 1.386 . S
C1338 C1340 1.391 . S
C1339 C1338 1.386 . S
C1339 C1343 1.393 . S
C1340 H1329 0.950 . S
C1340 C1338 1.391 . S
C1340 C1341 1.400 . S
C1341 C1335 1.491 . S
C1341 C1340 1.400 . S
C1341 C1342 1.398 . S
C1342 H1330 0.950 . S
C1342 C1341 1.398 . S
C1342 C1343 1.391 . S
C1343 H1331 0.950 . S
C1343 C1339 1.393 . S
C1343 C1342 1.391 . S
H1344 C1352 0.950 . S
H1345 C1357 0.935 1_565 S
H1346 C1354 0.950 . S
H1347 C1356 0.950 . S
H1348 C1358 0.950 . S
H1349 C1360 0.950 . S
H1350 C1362 0.950 . S
H1351 C1363 0.950 . S
C1352 H1344 0.950 . S
C1352 C1353 1.353 1_545 S
C1352 C1354 1.391 . S
C1353 C1352 1.353 1_565 S
C1353 C1357 1.391 1_565 S
C1354 H1346 0.950 . S
C1354 C1352 1.391 . S
C1354 C1355 1.400 . S
C1355 C1354 1.400 . S
C1355 C1356 1.398 . S
C1355 C1361 1.491 . S
C1356 H1347 0.950 . S
C1356 C1355 1.398 . S
C1356 C1357 1.406 . S
C1357 H1345 0.935 1_545 S
C1357 C1353 1.391 1_545 S
C1357 C1356 1.406 . S
C1358 H1348 0.950 . S
C1358 C1359 1.386 . S
C1358 C1360 1.391 . S
C1359 C1358 1.386 . S
C1359 C1363 1.393 . S
C1360 H1349 0.950 . S
C1360 C1358 1.391 . S
C1360 C1361 1.400 . S
C1361 C1355 1.491 . S
C1361 C1360 1.400 . S
C1361 C1362 1.398 . S
C1362 H1350 0.950 . S
C1362 C1361 1.398 . S
C1362 C1363 1.391 . S
C1363 H1351 0.950 . S
C1363 C1359 1.393 . S
C1363 C1362 1.391 . S
H1364 C1372 0.950 1_455 S
H1365 C1377 0.950 . S
H1366 C1374 0.950 . S
H1367 C1376 0.950 . S
H1368 C1378 0.950 . S
H1369 C1380 0.950 . S
H1370 C1382 0.950 . S
H1371 C1383 0.950 . S
C1372 H1364 0.950 1_655 S
C1372 C1373 1.383 1_655 S
C1372 C1374 1.391 . S
C1373 C1372 1.383 1_455 S
C1373 C1377 1.374 1_455 S
C1374 H1366 0.950 . S
C1374 C1372 1.391 . S
C1374 C1375 1.400 . S
C1375 C1374 1.400 . S
C1375 C1376 1.398 . S
C1375 C1381 1.491 . S
C1376 H1367 0.950 . S
C1376 C1375 1.398 . S
C1376 C1377 1.391 . S
C1377 H1365 0.950 . S
C1377 C1373 1.374 1_655 S
C1377 C1376 1.391 . S
C1378 H1368 0.950 . S
C1378 C1379 1.386 . S
C1378 C1380 1.391 . S
C1379 C1378 1.386 . S
C1379 C1383 1.393 . S
C1380 H1369 0.950 . S
C1380 C1378 1.391 . S
C1380 C1381 1.400 . S
C1381 C1375 1.491 . S
C1381 C1380 1.400 . S
C1381 C1382 1.398 . S
C1382 H1370 0.950 . S
C1382 C1381 1.398 . S
C1382 C1383 1.391 . S
C1383 H1371 0.950 . S
C1383 C1379 1.393 . S
C1383 C1382 1.391 . S
H1384 C1392 0.950 . S
H1385 C1397 0.950 . S
H1386 C1394 0.950 . S
H1387 C1396 0.950 . S
H1388 C1398 0.919 1_545 S
H1389 C1400 0.950 . S
H1390 C1402 0.950 . S
H1391 C1403 0.950 . S
C1392 H1384 0.950 . S
C1392 C1393 1.386 . S
C1392 C1394 1.391 . S
C1393 C1392 1.386 . S
C1393 C1397 1.393 . S
C1394 H1386 0.950 . S
C1394 C1392 1.391 . S
C1394 C1395 1.400 . S
C1395 C1394 1.400 . S
C1395 C1396 1.398 . S
C1395 C1401 1.491 . S
C1396 H1387 0.950 . S
C1396 C1395 1.398 . S
C1396 C1397 1.391 . S
C1397 H1385 0.950 . S
C1397 C1393 1.393 . S
C1397 C1396 1.391 . S
C1398 H1388 0.919 1_565 S
C1398 C1399 1.384 1_565 S
C1398 C1400 1.424 . S
C1399 C1398 1.384 1_545 S
C1399 C1403 1.368 1_545 S
C1400 H1389 0.950 . S
C1400 C1398 1.424 . S
C1400 C1401 1.400 . S
C1401 C1395 1.491 . S
C1401 C1400 1.400 . S
C1401 C1402 1.398 . S
C1402 H1390 0.950 . S
C1402 C1401 1.398 . S
C1402 C1403 1.391 . S
C1403 H1391 0.950 . S
C1403 C1399 1.368 1_565 S
C1403 C1402 1.391 . S
H1404 C1412 0.950 . S
H1405 C1417 0.950 . S
H1406 C1414 0.950 . S
H1407 C1416 0.950 . S
H1408 C1418 0.941 1_655 S
H1409 C1420 0.950 . S
H1410 C1422 0.950 . S
H1411 C1423 0.950 . S
C1412 H1404 0.950 . S
C1412 C1413 1.386 . S
C1412 C1414 1.391 . S
C1413 C1412 1.386 . S
C1413 C1417 1.393 . S
C1414 H1406 0.950 . S
C1414 C1412 1.391 . S
C1414 C1415 1.400 . S
C1415 C1414 1.400 . S
C1415 C1416 1.398 . S
C1415 C1421 1.491 . S
C1416 H1407 0.950 . S
C1416 C1415 1.398 . S
C1416 C1417 1.391 . S
C1417 H1405 0.950 . S
C1417 C1413 1.393 . S
C1417 C1416 1.391 . S
C1418 H1408 0.941 1_455 S
C1418 C1419 1.385 1_455 S
C1418 C1420 1.400 . S
C1419 C1418 1.385 1_655 S
C1419 C1423 1.361 1_655 S
C1420 H1409 0.950 . S
C1420 C1418 1.400 . S
C1420 C1421 1.400 . S
C1421 C1415 1.491 . S
C1421 C1420 1.400 . S
C1421 C1422 1.398 . S
C1422 H1410 0.950 . S
C1422 C1421 1.398 . S
C1422 C1423 1.391 . S
C1423 H1411 0.950 . S
C1423 C1419 1.361 1_455 S
C1423 C1422 1.391 . S
H1424 C1432 0.950 . S
H1425 C1437 0.950 1_545 S
H1426 C1434 0.950 . S
H1427 C1436 0.950 . S
H1428 C1438 0.950 . S
H1429 C1440 0.950 . S
H1430 C1442 0.950 . S
H1431 C1443 0.950 . S
C1432 H1424 0.950 . S
C1432 C1433 1.372 1_565 S
C1432 C1434 1.391 . S
C1433 C1432 1.372 1_545 S
C1433 C1437 1.388 1_545 S
C1434 H1426 0.950 . S
C1434 C1432 1.391 . S
C1434 C1435 1.400 . S
C1435 C1434 1.400 . S
C1435 C1436 1.398 . S
C1435 C1441 1.491 . S
C1436 H1427 0.950 . S
C1436 C1435 1.398 . S
C1436 C1437 1.391 . S
C1437 H1425 0.950 1_565 S
C1437 C1433 1.388 1_565 S
C1437 C1436 1.391 . S
C1438 H1428 0.950 . S
C1438 C1439 1.386 . S
C1438 C1440 1.391 . S
C1439 C1438 1.386 . S
C1439 C1443 1.393 . S
C1440 H1429 0.950 . S
C1440 C1438 1.391 . S
C1440 C1441 1.400 . S
C1441 C1435 1.491 . S
C1441 C1440 1.400 . S
C1441 C1442 1.398 . S
C1442 H1430 0.950 . S
C1442 C1441 1.398 . S
C1442 C1443 1.391 . S
C1443 H1431 0.950 . S
C1443 C1439 1.393 . S
C1443 C1442 1.391 . S
H1444 C1452 0.950 . S
H1445 C1457 0.950 1_655 S
H1446 C1454 0.950 . S
H1447 C1456 0.950 . S
H1448 C1458 0.950 . S
H1449 C1460 0.950 . S
H1450 C1462 0.950 . S
H1451 C1463 0.950 . S
C1452 H1444 0.950 . S
C1452 C1453 1.359 1_455 S
C1452 C1454 1.391 . S
C1453 C1452 1.359 1_655 S
C1453 C1457 1.391 1_655 S
C1454 H1446 0.950 . S
C1454 C1452 1.391 . S
C1454 C1455 1.400 . S
C1455 C1454 1.400 . S
C1455 C1456 1.398 . S
C1455 C1461 1.491 . S
C1456 H1447 0.950 . S
C1456 C1455 1.398 . S
C1456 C1457 1.391 . S
C1457 H1445 0.950 1_455 S
C1457 C1453 1.391 1_455 S
C1457 C1456 1.391 . S
C1458 H1448 0.950 . S
C1458 C1459 1.386 . S
C1458 C1460 1.391 . S
C1459 C1458 1.386 . S
C1459 C1463 1.393 . S
C1460 H1449 0.950 . S
C1460 C1458 1.391 . S
C1460 C1461 1.400 . S
C1461 C1455 1.491 . S
C1461 C1460 1.400 . S
C1461 C1462 1.398 . S
C1462 H1450 0.950 . S
C1462 C1461 1.398 . S
C1462 C1463 1.391 . S
C1463 H1451 0.950 . S
C1463 C1459 1.393 . S
C1463 C1462 1.391 . S
H1464 C1472 0.950 1_565 S
H1465 C1477 0.950 . S
H1466 C1474 0.950 . S
H1467 C1476 0.950 . S
H1468 C1478 0.950 . S
H1469 C1480 0.950 . S
H1470 C1482 0.950 . S
H1471 C1483 0.950 . S
C1472 H1464 0.950 1_545 S
C1472 C1473 1.381 1_545 S
C1472 C1474 1.391 . S
C1473 C1472 1.381 1_565 S
C1473 C1477 1.383 1_565 S
C1474 H1466 0.950 . S
C1474 C1472 1.391 . S
C1474 C1475 1.400 . S
C1475 C1474 1.400 . S
C1475 C1476 1.398 . S
C1475 C1481 1.491 . S
C1476 H1467 0.950 . S
C1476 C1475 1.398 . S
C1476 C1477 1.391 . S
C1477 H1465 0.950 . S
C1477 C1473 1.383 1_545 S
C1477 C1476 1.391 . S
C1478 H1468 0.950 . S
C1478 C1479 1.386 . S
C1478 C1480 1.391 . S
C1479 C1478 1.386 . S
C1479 C1483 1.393 . S
C1480 H1469 0.950 . S
C1480 C1478 1.391 . S
C1480 C1481 1.400 . S
C1481 C1475 1.491 . S
C1481 C1480 1.400 . S
C1481 C1482 1.398 . S
C1482 H1470 0.950 . S
C1482 C1481 1.398 . S
C1482 C1483 1.391 . S
C1483 H1471 0.950 . S
C1483 C1479 1.393 . S
C1483 C1482 1.391 . S
H1484 C1492 0.950 . S
H1485 C1497 0.950 . S
H1486 C1494 0.950 . S
H1487 C1496 0.950 . S
H1488 C1498 0.950 1_455 S
H1489 C1500 0.950 . S
H1490 C1502 0.950 . S
H1491 C1503 0.950 . S
C1492 H1484 0.950 . S
C1492 C1493 1.386 . S
C1492 C1494 1.391 . S
C1493 C1492 1.386 . S
C1493 C1497 1.393 . S
C1494 H1486 0.950 . S
C1494 C1492 1.391 . S
C1494 C1495 1.400 . S
C1495 C1494 1.400 . S
C1495 C1496 1.398 . S
C1495 C1501 1.491 . S
C1496 H1487 0.950 . S
C1496 C1495 1.398 . S
C1496 C1497 1.391 . S
C1497 H1485 0.950 . S
C1497 C1493 1.393 . S
C1497 C1496 1.391 . S
C1498 H1488 0.950 1_655 S
C1498 C1499 1.383 1_655 S
C1498 C1500 1.391 . S
C1499 C1498 1.383 1_455 S
C1499 C1503 1.374 1_455 S
C1500 H1489 0.950 . S
C1500 C1498 1.391 . S
C1500 C1501 1.400 . S
C1501 C1495 1.491 . S
C1501 C1500 1.400 . S
C1501 C1502 1.398 . S
C1502 H1490 0.950 . S
C1502 C1501 1.398 . S
C1502 C1503 1.391 . S
C1503 H1491 0.950 . S
C1503 C1499 1.374 1_655 S
C1503 C1502 1.391 . S
H1504 C1512 0.950 1_545 S
H1505 C1517 0.950 . S
H1506 C1514 0.950 . S
H1507 C1516 0.950 . S
H1508 C1518 0.950 . S
H1509 C1520 0.950 . S
H1510 C1522 0.950 . S
H1511 C1523 0.950 . S
C1512 H1504 0.950 1_565 S
C1512 C1513 1.381 1_565 S
C1512 C1514 1.391 . S
C1513 C1512 1.381 1_545 S
C1513 C1517 1.384 1_545 S
C1514 H1506 0.950 . S
C1514 C1512 1.391 . S
C1514 C1515 1.400 . S
C1515 C1514 1.400 . S
C1515 C1516 1.398 . S
C1515 C1521 1.491 . S
C1516 H1507 0.950 . S
C1516 C1515 1.398 . S
C1516 C1517 1.391 . S
C1517 H1505 0.950 . S
C1517 C1513 1.384 1_565 S
C1517 C1516 1.391 . S
C1518 H1508 0.950 . S
C1518 C1519 1.386 . S
C1518 C1520 1.391 . S
C1519 C1518 1.386 . S
C1519 C1523 1.393 . S
C1520 H1509 0.950 . S
C1520 C1518 1.391 . S
C1520 C1521 1.400 . S
C1521 C1515 1.491 . S
C1521 C1520 1.400 . S
C1521 C1522 1.398 . S
C1522 H1510 0.950 . S
C1522 C1521 1.398 . S
C1522 C1523 1.391 . S
C1523 H1511 0.950 . S
C1523 C1519 1.393 . S
C1523 C1522 1.391 . S
H1524 C1532 0.950 1_655 S
H1525 C1537 0.950 . S
H1526 C1534 0.950 . S
H1527 C1536 0.950 . S
H1528 C1538 0.950 . S
H1529 C1540 0.950 . S
H1530 C1542 0.950 . S
H1531 C1543 0.950 . S
C1532 H1524 0.950 1_455 S
C1532 C1533 1.383 1_455 S
C1532 C1534 1.391 . S
C1533 C1532 1.383 1_655 S
C1533 C1537 1.375 1_655 S
C1534 H1526 0.950 . S
C1534 C1532 1.391 . S
C1534 C1535 1.400 . S
C1535 C1534 1.400 . S
C1535 C1536 1.398 . S
C1535 C1541 1.491 . S
C1536 H1527 0.950 . S
C1536 C1535 1.398 . S
C1536 C1537 1.391 . S
C1537 H1525 0.950 . S
C1537 C1533 1.375 1_455 S
C1537 C1536 1.391 . S
C1538 H1528 0.950 . S
C1538 C1539 1.386 . S
C1538 C1540 1.391 . S
C1539 C1538 1.386 . S
C1539 C1543 1.393 . S
C1540 H1529 0.950 . S
C1540 C1538 1.391 . S
C1540 C1541 1.400 . S
C1541 C1535 1.491 . S
C1541 C1540 1.400 . S
C1541 C1542 1.398 . S
C1542 H1530 0.950 . S
C1542 C1541 1.398 . S
C1542 C1543 1.391 . S
C1543 H1531 0.950 . S
C1543 C1539 1.393 . S
C1543 C1542 1.391 . S
H1544 C1552 0.950 . S
H1545 C1557 0.950 . S
H1546 C1554 0.950 . S
H1547 C1556 0.950 . S
H1548 C1558 0.933 1_565 S
H1549 C1560 0.950 . S
H1550 C1562 0.950 . S
H1551 C1563 0.950 . S
C1552 H1544 0.950 . S
C1552 C1553 1.386 . S
C1552 C1554 1.391 . S
C1553 C1552 1.386 . S
C1553 C1557 1.393 . S
C1554 H1546 0.950 . S
C1554 C1552 1.391 . S
C1554 C1555 1.400 . S
C1555 C1554 1.400 . S
C1555 C1556 1.398 . S
C1555 C1561 1.491 . S
C1556 H1547 0.950 . S
C1556 C1555 1.398 . S
C1556 C1557 1.391 . S
C1557 H1545 0.950 . S
C1557 C1553 1.393 . S
C1557 C1556 1.391 . S
C1558 H1548 0.933 1_545 S
C1558 C1559 1.384 1_545 S
C1558 C1560 1.408 . S
C1559 C1558 1.384 1_565 S
C1559 C1563 1.365 1_565 S
C1560 H1549 0.950 . S
C1560 C1558 1.408 . S
C1560 C1561 1.400 . S
C1561 C1555 1.491 . S
C1561 C1560 1.400 . S
C1561 C1562 1.398 . S
C1562 H1550 0.950 . S
C1562 C1561 1.398 . S
C1562 C1563 1.391 . S
C1563 H1551 0.950 . S
C1563 C1559 1.365 1_545 S
C1563 C1562 1.391 . S
H1564 C1572 0.950 . S
H1565 C1577 0.950 . S
H1566 C1574 0.950 . S
H1567 C1576 0.950 . S
H1568 C1578 0.940 1_455 S
H1569 C1580 0.950 . S
H1570 C1582 0.950 . S
H1571 C1583 0.950 . S
C1572 H1564 0.950 . S
C1572 C1573 1.386 . S
C1572 C1574 1.391 . S
C1573 C1572 1.386 . S
C1573 C1577 1.393 . S
C1574 H1566 0.950 . S
C1574 C1572 1.391 . S
C1574 C1575 1.400 . S
C1575 C1574 1.400 . S
C1575 C1576 1.398 . S
C1575 C1581 1.491 . S
C1576 H1567 0.950 . S
C1576 C1575 1.398 . S
C1576 C1577 1.391 . S
C1577 H1565 0.950 . S
C1577 C1573 1.393 . S
C1577 C1576 1.391 . S
C1578 H1568 0.940 1_655 S
C1578 C1579 1.385 1_655 S
C1578 C1580 1.402 . S
C1579 C1578 1.385 1_455 S
C1579 C1583 1.363 1_455 S
C1580 H1569 0.950 . S
C1580 C1578 1.402 . S
C1580 C1581 1.400 . S
C1581 C1575 1.491 . S
C1581 C1580 1.400 . S
C1581 C1582 1.398 . S
C1582 H1570 0.950 . S
C1582 C1581 1.398 . S
C1582 C1583 1.391 . S
C1583 H1571 0.950 . S
C1583 C1579 1.363 1_655 S
C1583 C1582 1.391 . S
H1584 C1592 0.950 1_565 S
H1585 C1597 0.950 . S
H1586 C1594 0.950 . S
H1587 C1596 0.950 . S
H1588 C1598 0.950 . S
H1589 C1600 0.950 . S
H1590 C1602 0.950 . S
H1591 C1603 0.950 . S
C1592 H1584 0.950 1_545 S
C1592 C1593 1.381 1_545 S
C1592 C1594 1.391 . S
C1593 C1592 1.381 1_565 S
C1593 C1597 1.383 1_565 S
C1594 H1586 0.950 . S
C1594 C1592 1.391 . S
C1594 C1595 1.400 . S
C1595 C1594 1.400 . S
C1595 C1596 1.398 . S
C1595 C1601 1.491 . S
C1596 H1587 0.950 . S
C1596 C1595 1.398 . S
C1596 C1597 1.391 . S
C1597 H1585 0.950 . S
C1597 C1593 1.383 1_545 S
C1597 C1596 1.391 . S
C1598 H1588 0.950 . S
C1598 C1599 1.386 . S
C1598 C1600 1.391 . S
C1599 C1598 1.386 . S
C1599 C1603 1.393 . S
C1600 H1589 0.950 . S
C1600 C1598 1.391 . S
C1600 C1601 1.400 . S
C1601 C1595 1.491 . S
C1601 C1600 1.400 . S
C1601 C1602 1.398 . S
C1602 H1590 0.950 . S
C1602 C1601 1.398 . S
C1602 C1603 1.391 . S
C1603 H1591 0.950 . S
C1603 C1599 1.393 . S
C1603 C1602 1.391 . S
H1604 C1612 0.950 . S
H1605 C1617 0.950 . S
H1606 C1614 0.950 . S
H1607 C1616 0.950 . S
H1608 C1618 0.950 . S
H1609 C1620 0.950 . S
H1610 C1622 0.950 . S
H1611 C1623 0.950 1_455 S
C1612 H1604 0.950 . S
C1612 C1613 1.386 . S
C1612 C1614 1.391 . S
C1613 C1612 1.386 . S
C1613 C1617 1.393 . S
C1614 H1606 0.950 . S
C1614 C1612 1.391 . S
C1614 C1615 1.400 . S
C1615 C1614 1.400 . S
C1615 C1616 1.398 . S
C1615 C1621 1.491 . S
C1616 H1607 0.950 . S
C1616 C1615 1.398 . S
C1616 C1617 1.391 . S
C1617 H1605 0.950 . S
C1617 C1613 1.393 . S
C1617 C1616 1.391 . S
C1618 H1608 0.950 . S
C1618 C1619 1.373 1_655 S
C1618 C1620 1.391 . S
C1619 C1618 1.373 1_455 S
C1619 C1623 1.388 1_455 S
C1620 H1609 0.950 . S
C1620 C1618 1.391 . S
C1620 C1621 1.400 . S
C1621 C1615 1.491 . S
C1621 C1620 1.400 . S
C1621 C1622 1.398 . S
C1622 H1610 0.950 . S
C1622 C1621 1.398 . S
C1622 C1623 1.391 . S
C1623 H1611 0.950 1_655 S
C1623 C1619 1.388 1_655 S
C1623 C1622 1.391 . S
H1624 C1632 0.950 . S
H1625 C1637 0.950 . S
H1626 C1634 0.950 . S
H1627 C1636 0.950 . S
H1628 C1638 0.950 . S
H1629 C1640 0.950 . S
H1630 C1642 0.950 . S
H1631 C1643 0.950 1_545 S
C1632 H1624 0.950 . S
C1632 C1633 1.386 . S
C1632 C1634 1.391 . S
C1633 C1632 1.386 . S
C1633 C1637 1.393 . S
C1634 H1626 0.950 . S
C1634 C1632 1.391 . S
C1634 C1635 1.400 . S
C1635 C1634 1.400 . S
C1635 C1636 1.398 . S
C1635 C1641 1.491 . S
C1636 H1627 0.950 . S
C1636 C1635 1.398 . S
C1636 C1637 1.391 . S
C1637 H1625 0.950 . S
C1637 C1633 1.393 . S
C1637 C1636 1.391 . S
C1638 H1628 0.950 . S
C1638 C1639 1.386 1_565 S
C1638 C1640 1.391 . S
C1639 C1638 1.386 1_545 S
C1639 C1643 1.393 1_545 S
C1640 H1629 0.950 . S
C1640 C1638 1.391 . S
C1640 C1641 1.400 . S
C1641 C1635 1.491 . S
C1641 C1640 1.400 . S
C1641 C1642 1.398 . S
C1642 H1630 0.950 . S
C1642 C1641 1.398 . S
C1642 C1643 1.391 . S
C1643 H1631 0.950 1_565 S
C1643 C1639 1.393 1_565 S
C1643 C1642 1.391 . S
H1644 C1652 0.950 . S
H1645 C1657 0.950 . S
H1646 C1654 0.950 . S
H1647 C1656 0.950 . S
H1648 C1658 0.950 1_655 S
H1649 C1660 0.950 . S
H1650 C1662 0.950 . S
H1651 C1663 0.950 . S
C1652 H1644 0.950 . S
C1652 C1653 1.386 . S
C1652 C1654 1.391 . S
C1653 C1652 1.386 . S
C1653 C1657 1.393 . S
C1654 H1646 0.950 . S
C1654 C1652 1.391 . S
C1654 C1655 1.400 . S
C1655 C1654 1.400 . S
C1655 C1656 1.398 . S
C1655 C1661 1.491 . S
C1656 H1647 0.950 . S
C1656 C1655 1.398 . S
C1656 C1657 1.391 . S
C1657 H1645 0.950 . S
C1657 C1653 1.393 . S
C1657 C1656 1.391 . S
C1658 H1648 0.950 1_455 S
C1658 C1659 1.383 1_455 S
C1658 C1660 1.391 . S
C1659 C1658 1.383 1_655 S
C1659 C1663 1.373 1_655 S
C1660 H1649 0.950 . S
C1660 C1658 1.391 . S
C1660 C1661 1.400 . S
C1661 C1655 1.491 . S
C1661 C1660 1.400 . S
C1661 C1662 1.398 . S
C1662 H1650 0.950 . S
C1662 C1661 1.398 . S
C1662 C1663 1.391 . S
C1663 H1651 0.950 . S
C1663 C1659 1.373 1_455 S
C1663 C1662 1.391 . S
H1664 C1672 0.950 . S
H1665 C1677 0.950 . S
H1666 C1674 0.950 . S
H1667 C1676 0.950 . S
H1668 C1678 0.950 . S
H1669 C1680 0.950 . S
H1670 C1682 0.950 . S
H1671 C1683 0.950 . S
C1672 H1664 0.950 . S
C1672 C1673 1.386 . S
C1672 C1674 1.391 . S
C1673 C1672 1.386 . S
C1673 C1677 1.393 . S
C1674 H1666 0.950 . S
C1674 C1672 1.391 . S
C1674 C1675 1.400 . S
C1675 C1674 1.400 . S
C1675 C1676 1.398 . S
C1675 C1681 1.491 . S
C1676 H1667 0.950 . S
C1676 C1675 1.398 . S
C1676 C1677 1.391 . S
C1677 H1665 0.950 . S
C1677 C1673 1.393 . S
C1677 C1676 1.391 . S
C1678 H1668 0.950 . S
C1678 C1679 1.386 . S
C1678 C1680 1.391 . S
C1679 C1678 1.386 . S
C1679 C1683 1.393 . S
C1680 H1669 0.950 . S
C1680 C1678 1.391 . S
C1680 C1681 1.400 . S
C1681 C1675 1.491 . S
C1681 C1680 1.400 . S
C1681 C1682 1.398 . S
C1682 H1670 0.950 . S
C1682 C1681 1.398 . S
C1682 C1683 1.391 . S
C1683 H1671 0.950 . S
C1683 C1679 1.393 . S
C1683 C1682 1.391 . S
H1684 C1692 0.950 . S
H1685 C1697 0.950 . S
H1686 C1694 0.950 . S
H1687 C1696 0.950 . S
H1688 C1698 0.950 . S
H1689 C1700 0.950 . S
H1690 C1702 0.950 . S
H1691 C1703 0.950 . S
C1692 H1684 0.950 . S
C1692 C1693 1.386 . S
C1692 C1694 1.391 . S
C1693 C1692 1.386 . S
C1693 C1697 1.393 . S
C1694 H1686 0.950 . S
C1694 C1692 1.391 . S
C1694 C1695 1.400 . S
C1695 C1694 1.400 . S
C1695 C1696 1.398 . S
C1695 C1701 1.491 . S
C1696 H1687 0.950 . S
C1696 C1695 1.398 . S
C1696 C1697 1.391 . S
C1697 H1685 0.950 . S
C1697 C1693 1.393 . S
C1697 C1696 1.391 . S
C1698 H1688 0.950 . S
C1698 C1699 1.386 . S
C1698 C1700 1.391 . S
C1699 C1698 1.386 . S
C1699 C1703 1.393 . S
C1700 H1689 0.950 . S
C1700 C1698 1.391 . S
C1700 C1701 1.400 . S
C1701 C1695 1.491 . S
C1701 C1700 1.400 . S
C1701 C1702 1.398 . S
C1702 H1690 0.950 . S
C1702 C1701 1.398 . S
C1702 C1703 1.391 . S
C1703 H1691 0.950 . S
C1703 C1699 1.393 . S
C1703 C1702 1.391 . S
H1704 C1712 0.950 . S
H1705 C1717 0.950 . S
H1706 C1714 0.950 . S
H1707 C1716 0.950 . S
H1708 C1718 0.950 . S
H1709 C1720 0.950 . S
H1710 C1722 0.950 . S
H1711 C1723 0.950 . S
C1712 H1704 0.950 . S
C1712 C1713 1.386 . S
C1712 C1714 1.391 . S
C1713 C1712 1.386 . S
C1713 C1717 1.393 . S
C1714 H1706 0.950 . S
C1714 C1712 1.391 . S
C1714 C1715 1.400 . S
C1715 C1714 1.400 . S
C1715 C1716 1.398 . S
C1715 C1721 1.491 . S
C1716 H1707 0.950 . S
C1716 C1715 1.398 . S
C1716 C1717 1.391 . S
C1717 H1705 0.950 . S
C1717 C1713 1.393 . S
C1717 C1716 1.391 . S
C1718 H1708 0.950 . S
C1718 C1719 1.386 . S
C1718 C1720 1.391 . S
C1719 C1718 1.386 . S
C1719 C1723 1.393 . S
C1720 H1709 0.950 . S
C1720 C1718 1.391 . S
C1720 C1721 1.400 . S
C1721 C1715 1.491 . S
C1721 C1720 1.400 . S
C1721 C1722 1.398 . S
C1722 H1710 0.950 . S
C1722 C1721 1.398 . S
C1722 C1723 1.391 . S
C1723 H1711 0.950 . S
C1723 C1719 1.393 . S
C1723 C1722 1.391 . S
H1724 C1732 0.950 . S
H1725 C1737 0.950 . S
H1726 C1734 0.950 . S
H1727 C1736 0.950 . S
H1728 C1738 0.950 . S
H1729 C1740 0.950 . S
H1730 C1742 0.950 . S
H1731 C1743 0.950 . S
C1732 H1724 0.950 . S
C1732 C1733 1.386 . S
C1732 C1734 1.391 . S
C1733 C1732 1.386 . S
C1733 C1737 1.393 . S
C1734 H1726 0.950 . S
C1734 C1732 1.391 . S
C1734 C1735 1.400 . S
C1735 C1734 1.400 . S
C1735 C1736 1.398 . S
C1735 C1741 1.491 . S
C1736 H1727 0.950 . S
C1736 C1735 1.398 . S
C1736 C1737 1.391 . S
C1737 H1725 0.950 . S
C1737 C1733 1.393 . S
C1737 C1736 1.391 . S
C1738 H1728 0.950 . S
C1738 C1739 1.386 . S
C1738 C1740 1.391 . S
C1739 C1738 1.386 . S
C1739 C1743 1.393 . S
C1740 H1729 0.950 . S
C1740 C1738 1.391 . S
C1740 C1741 1.400 . S
C1741 C1735 1.491 . S
C1741 C1740 1.400 . S
C1741 C1742 1.398 . S
C1742 H1730 0.950 . S
C1742 C1741 1.398 . S
C1742 C1743 1.391 . S
C1743 H1731 0.950 . S
C1743 C1739 1.393 . S
C1743 C1742 1.391 . S
H1744 C1752 0.950 . S
H1745 C1757 0.950 . S
H1746 C1754 0.950 . S
H1747 C1756 0.950 . S
H1748 C1758 0.950 . S
H1749 C1760 0.950 . S
H1750 C1762 0.950 . S
H1751 C1763 0.950 . S
C1752 H1744 0.950 . S
C1752 C1753 1.386 . S
C1752 C1754 1.391 . S
C1753 C1752 1.386 . S
C1753 C1757 1.393 . S
C1754 H1746 0.950 . S
C1754 C1752 1.391 . S
C1754 C1755 1.400 . S
C1755 C1754 1.400 . S
C1755 C1756 1.398 . S
C1755 C1761 1.491 . S
C1756 H1747 0.950 . S
C1756 C1755 1.398 . S
C1756 C1757 1.391 . S
C1757 H1745 0.950 . S
C1757 C1753 1.393 . S
C1757 C1756 1.391 . S
C1758 H1748 0.950 . S
C1758 C1759 1.386 . S
C1758 C1760 1.391 . S
C1759 C1758 1.386 . S
C1759 C1763 1.393 . S
C1760 H1749 0.950 . S
C1760 C1758 1.391 . S
C1760 C1761 1.400 . S
C1761 C1755 1.491 . S
C1761 C1760 1.400 . S
C1761 C1762 1.398 . S
C1762 H1750 0.950 . S
C1762 C1761 1.398 . S
C1762 C1763 1.391 . S
C1763 H1751 0.950 . S
C1763 C1759 1.393 . S
C1763 C1762 1.391 . S
H1764 C1772 0.950 . S
H1765 C1777 0.950 . S
H1766 C1774 0.950 . S
H1767 C1776 0.950 . S
H1768 C1778 0.950 . S
H1769 C1780 0.950 . S
H1770 C1782 0.950 . S
H1771 C1783 0.950 . S
C1772 H1764 0.950 . S
C1772 C1773 1.386 . S
C1772 C1774 1.391 . S
C1773 C1772 1.386 . S
C1773 C1777 1.393 . S
C1774 H1766 0.950 . S
C1774 C1772 1.391 . S
C1774 C1775 1.400 . S
C1775 C1774 1.400 . S
C1775 C1776 1.398 . S
C1775 C1781 1.491 . S
C1776 H1767 0.950 . S
C1776 C1775 1.398 . S
C1776 C1777 1.391 . S
C1777 H1765 0.950 . S
C1777 C1773 1.393 . S
C1777 C1776 1.391 . S
C1778 H1768 0.950 . S
C1778 C1779 1.386 . S
C1778 C1780 1.391 . S
C1779 C1778 1.386 . S
C1779 C1783 1.393 . S
C1780 H1769 0.950 . S
C1780 C1778 1.391 . S
C1780 C1781 1.400 . S
C1781 C1775 1.491 . S
C1781 C1780 1.400 . S
C1781 C1782 1.398 . S
C1782 H1770 0.950 . S
C1782 C1781 1.398 . S
C1782 C1783 1.391 . S
C1783 H1771 0.950 . S
C1783 C1779 1.393 . S
C1783 C1782 1.391 . S
H1784 C1792 0.950 . S
H1785 C1797 0.950 . S
H1786 C1794 0.950 . S
H1787 C1796 0.950 . S
H1788 C1798 0.950 . S
H1789 C1800 0.950 . S
H1790 C1802 0.950 . S
H1791 C1803 0.950 . S
C1792 H1784 0.950 . S
C1792 C1793 1.386 . S
C1792 C1794 1.391 . S
C1793 C1792 1.386 . S
C1793 C1797 1.393 . S
C1794 H1786 0.950 . S
C1794 C1792 1.391 . S
C1794 C1795 1.400 . S
C1795 C1794 1.400 . S
C1795 C1796 1.398 . S
C1795 C1801 1.491 . S
C1796 H1787 0.950 . S
C1796 C1795 1.398 . S
C1796 C1797 1.391 . S
C1797 H1785 0.950 . S
C1797 C1793 1.393 . S
C1797 C1796 1.391 . S
C1798 H1788 0.950 . S
C1798 C1799 1.386 . S
C1798 C1800 1.391 . S
C1799 C1798 1.386 . S
C1799 C1803 1.393 . S
C1800 H1789 0.950 . S
C1800 C1798 1.391 . S
C1800 C1801 1.400 . S
C1801 C1795 1.491 . S
C1801 C1800 1.400 . S
C1801 C1802 1.398 . S
C1802 H1790 0.950 . S
C1802 C1801 1.398 . S
C1802 C1803 1.391 . S
C1803 H1791 0.950 . S
C1803 C1799 1.393 . S
C1803 C1802 1.391 . S
H1804 C1812 0.950 . S
H1805 C1817 0.950 . S
H1806 C1814 0.950 . S
H1807 C1816 0.950 . S
H1808 C1818 0.950 . S
H1809 C1820 0.950 . S
H1810 C1822 0.950 . S
H1811 C1823 0.950 . S
C1812 H1804 0.950 . S
C1812 C1813 1.386 . S
C1812 C1814 1.391 . S
C1813 C1812 1.386 . S
C1813 C1817 1.393 . S
C1814 H1806 0.950 . S
C1814 C1812 1.391 . S
C1814 C1815 1.400 . S
C1815 C1814 1.400 . S
C1815 C1816 1.398 . S
C1815 C1821 1.491 . S
C1816 H1807 0.950 . S
C1816 C1815 1.398 . S
C1816 C1817 1.391 . S
C1817 H1805 0.950 . S
C1817 C1813 1.393 . S
C1817 C1816 1.391 . S
C1818 H1808 0.950 . S
C1818 C1819 1.386 . S
C1818 C1820 1.391 . S
C1819 C1818 1.386 . S
C1819 C1823 1.393 . S
C1820 H1809 0.950 . S
C1820 C1818 1.391 . S
C1820 C1821 1.400 . S
C1821 C1815 1.491 . S
C1821 C1820 1.400 . S
C1821 C1822 1.398 . S
C1822 H1810 0.950 . S
C1822 C1821 1.398 . S
C1822 C1823 1.391 . S
C1823 H1811 0.950 . S
C1823 C1819 1.393 . S
C1823 C1822 1.391 . S
H1824 C1832 0.950 . S
H1825 C1837 0.950 . S
H1826 C1834 0.950 . S
H1827 C1836 0.950 . S
H1828 C1838 0.950 . S
H1829 C1840 0.950 . S
H1830 C1842 0.950 . S
H1831 C1843 0.950 . S
C1832 H1824 0.950 . S
C1832 C1833 1.386 . S
C1832 C1834 1.391 . S
C1833 C1832 1.386 . S
C1833 C1837 1.393 . S
C1834 H1826 0.950 . S
C1834 C1832 1.391 . S
C1834 C1835 1.400 . S
C1835 C1834 1.400 . S
C1835 C1836 1.398 . S
C1835 C1841 1.491 . S
C1836 H1827 0.950 . S
C1836 C1835 1.398 . S
C1836 C1837 1.391 . S
C1837 H1825 0.950 . S
C1837 C1833 1.393 . S
C1837 C1836 1.391 . S
C1838 H1828 0.950 . S
C1838 C1839 1.386 . S
C1838 C1840 1.391 . S
C1839 C1838 1.386 . S
C1839 C1843 1.393 . S
C1840 H1829 0.950 . S
C1840 C1838 1.391 . S
C1840 C1841 1.400 . S
C1841 C1835 1.491 . S
C1841 C1840 1.400 . S
C1841 C1842 1.398 . S
C1842 H1830 0.950 . S
C1842 C1841 1.398 . S
C1842 C1843 1.391 . S
C1843 H1831 0.950 . S
C1843 C1839 1.393 . S
C1843 C1842 1.391 . S
H1844 C1852 0.950 . S
H1845 C1857 0.950 . S
H1846 C1854 0.950 . S
H1847 C1856 0.950 . S
H1848 C1858 0.950 . S
H1849 C1860 0.950 . S
H1850 C1862 0.950 . S
H1851 C1863 0.950 . S
C1852 H1844 0.950 . S
C1852 C1853 1.386 . S
C1852 C1854 1.391 . S
C1853 C1852 1.386 . S
C1853 C1857 1.393 . S
C1854 H1846 0.950 . S
C1854 C1852 1.391 . S
C1854 C1855 1.400 . S
C1855 C1854 1.400 . S
C1855 C1856 1.398 . S
C1855 C1861 1.491 . S
C1856 H1847 0.950 . S
C1856 C1855 1.398 . S
C1856 C1857 1.391 . S
C1857 H1845 0.950 . S
C1857 C1853 1.393 . S
C1857 C1856 1.391 . S
C1858 H1848 0.950 . S
C1858 C1859 1.386 . S
C1858 C1860 1.391 . S
C1859 C1858 1.386 . S
C1859 C1863 1.393 . S
C1860 H1849 0.950 . S
C1860 C1858 1.391 . S
C1860 C1861 1.400 . S
C1861 C1855 1.491 . S
C1861 C1860 1.400 . S
C1861 C1862 1.398 . S
C1862 H1850 0.950 . S
C1862 C1861 1.398 . S
C1862 C1863 1.391 . S
C1863 H1851 0.950 . S
C1863 C1859 1.393 . S
C1863 C1862 1.391 . S
H1864 C1872 0.950 . S
H1865 C1877 0.950 . S
H1866 C1874 0.950 . S
H1867 C1876 0.950 . S
H1868 C1878 0.950 . S
H1869 C1880 0.950 . S
H1870 C1882 0.950 . S
H1871 C1883 0.950 . S
C1872 H1864 0.950 . S
C1872 C1873 1.386 . S
C1872 C1874 1.391 . S
C1873 C1872 1.386 . S
C1873 C1877 1.393 . S
C1874 H1866 0.950 . S
C1874 C1872 1.391 . S
C1874 C1875 1.400 . S
C1875 C1874 1.400 . S
C1875 C1876 1.398 . S
C1875 C1881 1.491 . S
C1876 H1867 0.950 . S
C1876 C1875 1.398 . S
C1876 C1877 1.391 . S
C1877 H1865 0.950 . S
C1877 C1873 1.393 . S
C1877 C1876 1.391 . S
C1878 H1868 0.950 . S
C1878 C1879 1.386 . S
C1878 C1880 1.391 . S
C1879 C1878 1.386 . S
C1879 C1883 1.393 . S
C1880 H1869 0.950 . S
C1880 C1878 1.391 . S
C1880 C1881 1.400 . S
C1881 C1875 1.491 . S
C1881 C1880 1.400 . S
C1881 C1882 1.398 . S
C1882 H1870 0.950 . S
C1882 C1881 1.398 . S
C1882 C1883 1.391 . S
C1883 H1871 0.950 . S
C1883 C1879 1.393 . S
C1883 C1882 1.391 . S
H1884 C1892 0.950 . S
H1885 C1897 0.950 . S
H1886 C1894 0.950 . S
H1887 C1896 0.950 . S
H1888 C1898 0.950 . S
H1889 C1900 0.950 . S
H1890 C1902 0.950 . S
H1891 C1903 0.950 . S
C1892 H1884 0.950 . S
C1892 C1893 1.386 . S
C1892 C1894 1.391 . S
C1893 C1892 1.386 . S
C1893 C1897 1.393 . S
C1894 H1886 0.950 . S
C1894 C1892 1.391 . S
C1894 C1895 1.400 . S
C1895 C1894 1.400 . S
C1895 C1896 1.398 . S
C1895 C1901 1.491 . S
C1896 H1887 0.950 . S
C1896 C1895 1.398 . S
C1896 C1897 1.391 . S
C1897 H1885 0.950 . S
C1897 C1893 1.393 . S
C1897 C1896 1.391 . S
C1898 H1888 0.950 . S
C1898 C1899 1.386 . S
C1898 C1900 1.391 . S
C1899 C1898 1.386 . S
C1899 C1903 1.393 . S
C1900 H1889 0.950 . S
C1900 C1898 1.391 . S
C1900 C1901 1.400 . S
C1901 C1895 1.491 . S
C1901 C1900 1.400 . S
C1901 C1902 1.398 . S
C1902 H1890 0.950 . S
C1902 C1901 1.398 . S
C1902 C1903 1.391 . S
C1903 H1891 0.950 . S
C1903 C1899 1.393 . S
C1903 C1902 1.391 . S
H1904 C1912 0.950 . S
H1905 C1917 0.950 . S
H1906 C1914 0.950 . S
H1907 C1916 0.950 . S
H1908 C1918 0.950 . S
H1909 C1920 0.950 . S
H1910 C1922 0.950 . S
H1911 C1923 0.950 . S
C1912 H1904 0.950 . S
C1912 C1913 1.386 . S
C1912 C1914 1.391 . S
C1913 C1912 1.386 . S
C1913 C1917 1.393 . S
C1914 H1906 0.950 . S
C1914 C1912 1.391 . S
C1914 C1915 1.400 . S
C1915 C1914 1.400 . S
C1915 C1916 1.398 . S
C1915 C1921 1.491 . S
C1916 H1907 0.950 . S
C1916 C1915 1.398 . S
C1916 C1917 1.391 . S
C1917 H1905 0.950 . S
C1917 C1913 1.393 . S
C1917 C1916 1.391 . S
C1918 H1908 0.950 . S
C1918 C1919 1.386 . S
C1918 C1920 1.391 . S
C1919 C1918 1.386 . S
C1919 C1923 1.393 . S
C1920 H1909 0.950 . S
C1920 C1918 1.391 . S
C1920 C1921 1.400 . S
C1921 C1915 1.491 . S
C1921 C1920 1.400 . S
C1921 C1922 1.398 . S
C1922 H1910 0.950 . S
C1922 C1921 1.398 . S
C1922 C1923 1.391 . S
C1923 H1911 0.950 . S
C1923 C1919 1.393 . S
C1923 C1922 1.391 . S
H1924 C1932 0.950 . S
H1925 C1937 0.950 . S
H1926 C1934 0.950 . S
H1927 C1936 0.950 . S
H1928 C1938 0.950 . S
H1929 C1940 0.950 . S
H1930 C1942 0.950 . S
H1931 C1943 0.950 . S
C1932 H1924 0.950 . S
C1932 C1933 1.386 . S
C1932 C1934 1.391 . S
C1933 C1932 1.386 . S
C1933 C1937 1.393 . S
C1934 H1926 0.950 . S
C1934 C1932 1.391 . S
C1934 C1935 1.400 . S
C1935 C1934 1.400 . S
C1935 C1936 1.398 . S
C1935 C1941 1.491 . S
C1936 H1927 0.950 . S
C1936 C1935 1.398 . S
C1936 C1937 1.391 . S
C1937 H1925 0.950 . S
C1937 C1933 1.393 . S
C1937 C1936 1.391 . S
C1938 H1928 0.950 . S
C1938 C1939 1.386 . S
C1938 C1940 1.391 . S
C1939 C1938 1.386 . S
C1939 C1943 1.393 . S
C1940 H1929 0.950 . S
C1940 C1938 1.391 . S
C1940 C1941 1.400 . S
C1941 C1935 1.491 . S
C1941 C1940 1.400 . S
C1941 C1942 1.398 . S
C1942 H1930 0.950 . S
C1942 C1941 1.398 . S
C1942 C1943 1.391 . S
C1943 H1931 0.950 . S
C1943 C1939 1.393 . S
C1943 C1942 1.391 . S
H1944 C1952 0.950 . S
H1945 C1957 0.950 . S
H1946 C1954 0.950 . S
H1947 C1956 0.950 . S
H1948 C1958 0.950 . S
H1949 C1960 0.950 . S
H1950 C1962 0.950 . S
H1951 C1963 0.950 . S
C1952 H1944 0.950 . S
C1952 C1953 1.386 . S
C1952 C1954 1.391 . S
C1953 C1952 1.386 . S
C1953 C1957 1.393 . S
C1954 H1946 0.950 . S
C1954 C1952 1.391 . S
C1954 C1955 1.400 . S
C1955 C1954 1.400 . S
C1955 C1956 1.398 . S
C1955 C1961 1.491 . S
C1956 H1947 0.950 . S
C1956 C1955 1.398 . S
C1956 C1957 1.391 . S
C1957 H1945 0.950 . S
C1957 C1953 1.393 . S
C1957 C1956 1.391 . S
C1958 H1948 0.950 . S
C1958 C1959 1.386 . S
C1958 C1960 1.391 . S
C1959 C1958 1.386 . S
C1959 C1963 1.393 . S
C1960 H1949 0.950 . S
C1960 C1958 1.391 . S
C1960 C1961 1.400 . S
C1961 C1955 1.491 . S
C1961 C1960 1.400 . S
C1961 C1962 1.398 . S
C1962 H1950 0.950 . S
C1962 C1961 1.398 . S
C1962 C1963 1.391 . S
C1963 H1951 0.950 . S
C1963 C1959 1.393 . S
C1963 C1962 1.391 . S
H1964 C1972 0.950 . S
H1965 C1977 0.950 . S
H1966 C1974 0.950 . S
H1967 C1976 0.950 . S
H1968 C1978 0.950 . S
H1969 C1980 0.950 . S
H1970 C1982 0.950 . S
H1971 C1983 0.950 . S
C1972 H1964 0.950 . S
C1972 C1973 1.386 . S
C1972 C1974 1.391 . S
C1973 C1972 1.386 . S
C1973 C1977 1.393 . S
C1974 H1966 0.950 . S
C1974 C1972 1.391 . S
C1974 C1975 1.400 . S
C1975 C1974 1.400 . S
C1975 C1976 1.398 . S
C1975 C1981 1.491 . S
C1976 H1967 0.950 . S
C1976 C1975 1.398 . S
C1976 C1977 1.391 . S
C1977 H1965 0.950 . S
C1977 C1973 1.393 . S
C1977 C1976 1.391 . S
C1978 H1968 0.950 . S
C1978 C1979 1.386 . S
C1978 C1980 1.391 . S
C1979 C1978 1.386 . S
C1979 C1983 1.393 . S
C1980 H1969 0.950 . S
C1980 C1978 1.391 . S
C1980 C1981 1.400 . S
C1981 C1975 1.491 . S
C1981 C1980 1.400 . S
C1981 C1982 1.398 . S
C1982 H1970 0.950 . S
C1982 C1981 1.398 . S
C1982 C1983 1.391 . S
C1983 H1971 0.950 . S
C1983 C1979 1.393 . S
C1983 C1982 1.391 . S
H1984 C1992 0.950 . S
H1985 C1997 0.950 . S
H1986 C1994 0.947 . S
H1987 C1996 0.950 . S
H1988 C1998 0.950 . S
H1989 C2000 0.947 . S
H1990 C2002 0.950 . S
H1991 C2003 0.950 . S
C1992 H1984 0.950 . S
C1992 C1993 1.386 . S
C1992 C1994 1.393 1_455 S
C1993 C1992 1.386 . S
C1993 C1997 1.393 . S
C1994 H1986 0.947 . S
C1994 C1992 1.393 1_655 S
C1994 C1995 1.401 1_655 S
C1995 C1994 1.401 1_455 S
C1995 C1996 1.398 . S
C1995 C2001 1.491 1_455 S
C1996 H1987 0.950 . S
C1996 C1995 1.398 . S
C1996 C1997 1.391 . S
C1997 H1985 0.950 . S
C1997 C1993 1.393 . S
C1997 C1996 1.391 . S
C1998 H1988 0.950 . S
C1998 C1999 1.386 . S
C1998 C2000 1.393 1_655 S
C1999 C1998 1.386 . S
C1999 C2003 1.393 . S
C2000 H1989 0.947 . S
C2000 C1998 1.393 1_455 S
C2000 C2001 1.401 1_455 S
C2001 C1995 1.491 1_655 S
C2001 C2000 1.401 1_655 S
C2001 C2002 1.398 . S
C2002 H1990 0.950 . S
C2002 C2001 1.398 . S
C2002 C2003 1.391 . S
C2003 H1991 0.950 . S
C2003 C1999 1.393 . S
C2003 C2002 1.391 . S
H2004 C2012 0.950 . S
H2005 C2017 0.950 . S
H2006 C2014 0.950 . S
H2007 C2016 0.950 . S
H2008 C2018 0.950 . S
H2009 C2020 0.950 . S
H2010 C2022 0.950 . S
H2011 C2023 0.950 . S
C2012 H2004 0.950 . S
C2012 C2013 1.386 . S
C2012 C2014 1.391 . S
C2013 C2012 1.386 . S
C2013 C2017 1.393 . S
C2014 H2006 0.950 . S
C2014 C2012 1.391 . S
C2014 C2015 1.400 . S
C2015 C2014 1.400 . S
C2015 C2016 1.398 . S
C2015 C2021 1.491 1_565 S
C2016 H2007 0.950 . S
C2016 C2015 1.398 . S
C2016 C2017 1.391 . S
C2017 H2005 0.950 . S
C2017 C2013 1.393 . S
C2017 C2016 1.391 . S
C2018 H2008 0.950 . S
C2018 C2019 1.386 . S
C2018 C2020 1.391 . S
C2019 C2018 1.386 . S
C2019 C2023 1.393 . S
C2020 H2009 0.950 . S
C2020 C2018 1.391 . S
C2020 C2021 1.400 . S
C2021 C2015 1.491 1_545 S
C2021 C2020 1.400 . S
C2021 C2022 1.398 . S
C2022 H2010 0.950 . S
C2022 C2021 1.398 . S
C2022 C2023 1.391 . S
C2023 H2011 0.950 . S
C2023 C2019 1.393 . S
C2023 C2022 1.391 . S
H2024 C2032 0.950 . S
H2025 C2037 0.950 . S
H2026 C2034 0.950 . S
H2027 C2036 0.950 . S
H2028 C2038 0.950 . S
H2029 C2040 0.950 . S
H2030 C2042 0.950 . S
H2031 C2043 0.950 . S
C2032 H2024 0.950 . S
C2032 C2033 1.386 . S
C2032 C2034 1.391 1_655 S
C2033 C2032 1.386 . S
C2033 C2037 1.393 . S
C2034 H2026 0.950 . S
C2034 C2032 1.391 1_455 S
C2034 C2035 1.400 1_455 S
C2035 C2034 1.400 1_655 S
C2035 C2036 1.398 . S
C2035 C2041 1.491 1_655 S
C2036 H2027 0.950 . S
C2036 C2035 1.398 . S
C2036 C2037 1.391 . S
C2037 H2025 0.950 . S
C2037 C2033 1.393 . S
C2037 C2036 1.391 . S
C2038 H2028 0.950 . S
C2038 C2039 1.386 . S
C2038 C2040 1.391 1_455 S
C2039 C2038 1.386 . S
C2039 C2043 1.393 . S
C2040 H2029 0.950 . S
C2040 C2038 1.391 1_655 S
C2040 C2041 1.400 1_655 S
C2041 C2035 1.491 1_455 S
C2041 C2040 1.400 1_455 S
C2041 C2042 1.398 . S
C2042 H2030 0.950 . S
C2042 C2041 1.398 . S
C2042 C2043 1.391 . S
C2043 H2031 0.950 . S
C2043 C2039 1.393 . S
C2043 C2042 1.391 . S
H2044 C2052 0.950 . S
H2045 C2057 0.950 . S
H2046 C2054 0.950 . S
H2047 C2056 0.950 1_565 S
H2048 C2058 0.950 . S
H2049 C2060 0.950 . S
H2050 C2062 0.950 1_545 S
H2051 C2063 0.950 . S
C2052 H2044 0.950 . S
C2052 C2053 1.386 . S
C2052 C2054 1.391 . S
C2053 C2052 1.386 . S
C2053 C2057 1.393 . S
C2054 H2046 0.950 . S
C2054 C2052 1.391 . S
C2054 C2055 1.400 . S
C2055 C2054 1.400 . S
C2055 C2056 1.398 . S
C2055 C2061 1.491 1_545 S
C2056 H2047 0.950 1_545 S
C2056 C2055 1.398 . S
C2056 C2057 1.391 . S
C2057 H2045 0.950 . S
C2057 C2053 1.393 . S
C2057 C2056 1.391 . S
C2058 H2048 0.950 . S
C2058 C2059 1.386 . S
C2058 C2060 1.391 . S
C2059 C2058 1.386 . S
C2059 C2063 1.393 . S
C2060 H2049 0.950 . S
C2060 C2058 1.391 . S
C2060 C2061 1.400 . S
C2061 C2055 1.491 1_565 S
C2061 C2060 1.400 . S
C2061 C2062 1.398 . S
C2062 H2050 0.950 1_565 S
C2062 C2061 1.398 . S
C2062 C2063 1.391 . S
C2063 H2051 0.950 . S
C2063 C2059 1.393 . S
C2063 C2062 1.391 . S
H2064 C2072 0.950 . S
H2065 C2077 0.950 . S
H2066 C2074 0.950 . S
H2067 C2076 0.950 . S
H2068 C2078 0.950 . S
H2069 C2080 0.950 . S
H2070 C2082 0.950 . S
H2071 C2083 0.950 . S
C2072 H2064 0.950 . S
C2072 C2073 1.386 . S
C2072 C2074 1.391 . S
C2073 C2072 1.386 . S
C2073 C2077 1.393 . S
C2074 H2066 0.950 . S
C2074 C2072 1.391 . S
C2074 C2075 1.400 . S
C2075 C2074 1.400 . S
C2075 C2076 1.398 . S
C2075 C2081 1.491 1_655 S
C2076 H2067 0.950 . S
C2076 C2075 1.398 . S
C2076 C2077 1.391 . S
C2077 H2065 0.950 . S
C2077 C2073 1.393 . S
C2077 C2076 1.391 . S
C2078 H2068 0.950 . S
C2078 C2079 1.386 . S
C2078 C2080 1.391 . S
C2079 C2078 1.386 . S
C2079 C2083 1.393 . S
C2080 H2069 0.950 . S
C2080 C2078 1.391 . S
C2080 C2081 1.400 . S
C2081 C2075 1.491 1_455 S
C2081 C2080 1.400 . S
C2081 C2082 1.398 . S
C2082 H2070 0.950 . S
C2082 C2081 1.398 . S
C2082 C2083 1.391 . S
C2083 H2071 0.950 . S
C2083 C2079 1.393 . S
C2083 C2082 1.391 . S
H2084 C2092 0.950 . S
H2085 C2097 0.950 . S
H2086 C2094 0.950 . S
H2087 C2096 0.950 . S
H2088 C2098 0.950 . S
H2089 C2100 0.950 . S
H2090 C2102 0.950 . S
H2091 C2103 0.950 . S
C2092 H2084 0.950 . S
C2092 C2093 1.386 . S
C2092 C2094 1.391 . S
C2093 C2092 1.386 . S
C2093 C2097 1.393 . S
C2094 H2086 0.950 . S
C2094 C2092 1.391 . S
C2094 C2095 1.400 . S
C2095 C2094 1.400 . S
C2095 C2096 1.398 . S
C2095 C2101 1.491 1_545 S
C2096 H2087 0.950 . S
C2096 C2095 1.398 . S
C2096 C2097 1.391 . S
C2097 H2085 0.950 . S
C2097 C2093 1.393 . S
C2097 C2096 1.391 . S
C2098 H2088 0.950 . S
C2098 C2099 1.386 . S
C2098 C2100 1.391 . S
C2099 C2098 1.386 . S
C2099 C2103 1.393 . S
C2100 H2089 0.950 . S
C2100 C2098 1.391 . S
C2100 C2101 1.400 . S
C2101 C2095 1.491 1_565 S
C2101 C2100 1.400 . S
C2101 C2102 1.398 . S
C2102 H2090 0.950 . S
C2102 C2101 1.398 . S
C2102 C2103 1.391 . S
C2103 H2091 0.950 . S
C2103 C2099 1.393 . S
C2103 C2102 1.391 . S
H2104 C2112 0.950 . S
H2105 C2117 0.950 . S
H2106 C2114 0.950 . S
H2107 C2116 0.950 . S
H2108 C2118 0.950 . S
H2109 C2120 0.950 . S
H2110 C2122 0.950 . S
H2111 C2123 0.950 . S
C2112 H2104 0.950 . S
C2112 C2113 1.386 . S
C2112 C2114 1.391 . S
C2113 C2112 1.386 . S
C2113 C2117 1.393 . S
C2114 H2106 0.950 . S
C2114 C2112 1.391 . S
C2114 C2115 1.400 . S
C2115 C2114 1.400 . S
C2115 C2116 1.398 1_655 S
C2115 C2121 1.491 1_655 S
C2116 H2107 0.950 . S
C2116 C2115 1.398 1_455 S
C2116 C2117 1.391 1_455 S
C2117 H2105 0.950 . S
C2117 C2113 1.393 . S
C2117 C2116 1.391 1_655 S
C2118 H2108 0.950 . S
C2118 C2119 1.386 . S
C2118 C2120 1.391 . S
C2119 C2118 1.386 . S
C2119 C2123 1.393 . S
C2120 H2109 0.950 . S
C2120 C2118 1.391 . S
C2120 C2121 1.400 . S
C2121 C2115 1.491 1_455 S
C2121 C2120 1.400 . S
C2121 C2122 1.398 1_455 S
C2122 H2110 0.950 . S
C2122 C2121 1.398 1_655 S
C2122 C2123 1.391 1_655 S
C2123 H2111 0.950 . S
C2123 C2119 1.393 . S
C2123 C2122 1.391 1_455 S
H2124 C2132 0.950 . S
H2125 C2137 0.950 . S
H2126 C2134 0.950 . S
H2127 C2136 0.970 . S
H2128 C2138 0.950 . S
H2129 C2140 0.950 . S
H2130 C2142 0.970 . S
H2131 C2143 0.950 . S
C2132 H2124 0.950 . S
C2132 C2133 1.386 . S
C2132 C2134 1.391 . S
C2133 C2132 1.386 . S
C2133 C2137 1.393 . S
C2134 H2126 0.950 . S
C2134 C2132 1.391 . S
C2134 C2135 1.400 . S
C2135 C2134 1.400 . S
C2135 C2136 1.398 . S
C2135 C2141 1.491 1_565 S
C2136 H2127 0.970 . S
C2136 C2135 1.398 . S
C2136 C2137 1.391 . S
C2137 H2125 0.950 . S
C2137 C2133 1.393 . S
C2137 C2136 1.391 . S
C2138 H2128 0.950 . S
C2138 C2139 1.386 . S
C2138 C2140 1.391 . S
C2139 C2138 1.386 . S
C2139 C2143 1.393 . S
C2140 H2129 0.950 . S
C2140 C2138 1.391 . S
C2140 C2141 1.400 . S
C2141 C2135 1.491 1_545 S
C2141 C2140 1.400 . S
C2141 C2142 1.398 . S
C2142 H2130 0.970 . S
C2142 C2141 1.398 . S
C2142 C2143 1.391 . S
C2143 H2131 0.950 . S
C2143 C2139 1.393 . S
C2143 C2142 1.391 . S
H2144 C2152 0.950 . S
H2145 C2157 0.950 . S
H2146 C2154 0.950 . S
H2147 C2156 0.950 . S
H2148 C2158 0.950 . S
H2149 C2160 0.950 . S
H2150 C2162 0.950 . S
H2151 C2163 0.950 . S
C2152 H2144 0.950 . S
C2152 C2153 1.386 . S
C2152 C2154 1.391 . S
C2153 C2152 1.386 . S
C2153 C2157 1.393 . S
C2154 H2146 0.950 . S
C2154 C2152 1.391 . S
C2154 C2155 1.400 . S
C2155 C2154 1.400 . S
C2155 C2156 1.398 . S
C2155 C2161 1.491 . S
C2156 H2147 0.950 . S
C2156 C2155 1.398 . S
C2156 C2157 1.391 . S
C2157 H2145 0.950 . S
C2157 C2153 1.393 . S
C2157 C2156 1.391 . S
C2158 H2148 0.950 . S
C2158 C2159 1.386 . S
C2158 C2160 1.391 . S
C2159 C2158 1.386 . S
C2159 C2163 1.393 . S
C2160 H2149 0.950 . S
C2160 C2158 1.391 . S
C2160 C2161 1.400 . S
C2161 C2155 1.491 . S
C2161 C2160 1.400 . S
C2161 C2162 1.398 . S
C2162 H2150 0.950 . S
C2162 C2161 1.398 . S
C2162 C2163 1.391 . S
C2163 H2151 0.950 . S
C2163 C2159 1.393 . S
C2163 C2162 1.391 . S
H2164 C2172 0.950 . S
H2165 C2177 0.950 . S
H2166 C2174 0.950 . S
H2167 C2176 0.950 . S
H2168 C2178 0.950 . S
H2169 C2180 0.950 . S
H2170 C2182 0.950 . S
H2171 C2183 0.950 . S
C2172 H2164 0.950 . S
C2172 C2173 1.386 . S
C2172 C2174 1.391 . S
C2173 C2172 1.386 . S
C2173 C2177 1.393 . S
C2174 H2166 0.950 . S
C2174 C2172 1.391 . S
C2174 C2175 1.400 . S
C2175 C2174 1.400 . S
C2175 C2176 1.398 . S
C2175 C2181 1.491 . S
C2176 H2167 0.950 . S
C2176 C2175 1.398 . S
C2176 C2177 1.391 . S
C2177 H2165 0.950 . S
C2177 C2173 1.393 . S
C2177 C2176 1.391 . S
C2178 H2168 0.950 . S
C2178 C2179 1.386 . S
C2178 C2180 1.391 . S
C2179 C2178 1.386 . S
C2179 C2183 1.393 . S
C2180 H2169 0.950 . S
C2180 C2178 1.391 . S
C2180 C2181 1.400 . S
C2181 C2175 1.491 . S
C2181 C2180 1.400 . S
C2181 C2182 1.398 . S
C2182 H2170 0.950 . S
C2182 C2181 1.398 . S
C2182 C2183 1.391 . S
C2183 H2171 0.950 . S
C2183 C2179 1.393 . S
C2183 C2182 1.391 . S
H2184 C2192 0.950 . S
H2185 C2197 0.950 . S
H2186 C2194 0.950 . S
H2187 C2196 0.950 . S
H2188 C2198 0.950 . S
H2189 C2200 0.950 . S
H2190 C2202 0.950 . S
H2191 C2203 0.950 . S
C2192 H2184 0.950 . S
C2192 C2193 1.386 . S
C2192 C2194 1.391 . S
C2193 C2192 1.386 . S
C2193 C2197 1.393 . S
C2194 H2186 0.950 . S
C2194 C2192 1.391 . S
C2194 C2195 1.400 . S
C2195 C2194 1.400 . S
C2195 C2196 1.398 . S
C2195 C2201 1.491 . S
C2196 H2187 0.950 . S
C2196 C2195 1.398 . S
C2196 C2197 1.391 . S
C2197 H2185 0.950 . S
C2197 C2193 1.393 . S
C2197 C2196 1.391 . S
C2198 H2188 0.950 . S
C2198 C2199 1.386 . S
C2198 C2200 1.391 . S
C2199 C2198 1.386 . S
C2199 C2203 1.393 . S
C2200 H2189 0.950 . S
C2200 C2198 1.391 . S
C2200 C2201 1.400 . S
C2201 C2195 1.491 . S
C2201 C2200 1.400 . S
C2201 C2202 1.398 . S
C2202 H2190 0.950 . S
C2202 C2201 1.398 . S
C2202 C2203 1.391 . S
C2203 H2191 0.950 . S
C2203 C2199 1.393 . S
C2203 C2202 1.391 . S
H2204 C2212 0.950 . S
H2205 C2217 0.950 . S
H2206 C2214 0.950 . S
H2207 C2216 0.950 . S
H2208 C2218 0.950 . S
H2209 C2220 0.950 . S
H2210 C2222 0.950 . S
H2211 C2223 0.950 . S
C2212 H2204 0.950 . S
C2212 C2213 1.386 . S
C2212 C2214 1.391 . S
C2213 C2212 1.386 . S
C2213 C2217 1.393 . S
C2214 H2206 0.950 . S
C2214 C2212 1.391 . S
C2214 C2215 1.400 . S
C2215 C2214 1.400 . S
C2215 C2216 1.398 . S
C2215 C2221 1.491 . S
C2216 H2207 0.950 . S
C2216 C2215 1.398 . S
C2216 C2217 1.391 . S
C2217 H2205 0.950 . S
C2217 C2213 1.393 . S
C2217 C2216 1.391 . S
C2218 H2208 0.950 . S
C2218 C2219 1.386 . S
C2218 C2220 1.391 . S
C2219 C2218 1.386 . S
C2219 C2223 1.393 . S
C2220 H2209 0.950 . S
C2220 C2218 1.391 . S
C2220 C2221 1.400 . S
C2221 C2215 1.491 . S
C2221 C2220 1.400 . S
C2221 C2222 1.398 . S
C2222 H2210 0.950 . S
C2222 C2221 1.398 . S
C2222 C2223 1.391 . S
C2223 H2211 0.950 . S
C2223 C2219 1.393 . S
C2223 C2222 1.391 . S
H2224 C2232 0.950 . S
H2225 C2237 0.950 . S
H2226 C2234 0.950 . S
H2227 C2236 0.950 . S
H2228 C2238 0.950 . S
H2229 C2240 0.950 . S
H2230 C2242 0.950 . S
H2231 C2243 0.950 . S
C2232 H2224 0.950 . S
C2232 C2233 1.386 . S
C2232 C2234 1.391 . S
C2233 C2232 1.386 . S
C2233 C2237 1.393 . S
C2234 H2226 0.950 . S
C2234 C2232 1.391 . S
C2234 C2235 1.400 . S
C2235 C2234 1.400 . S
C2235 C2236 1.398 . S
C2235 C2241 1.491 . S
C2236 H2227 0.950 . S
C2236 C2235 1.398 . S
C2236 C2237 1.391 . S
C2237 H2225 0.950 . S
C2237 C2233 1.393 . S
C2237 C2236 1.391 . S
C2238 H2228 0.950 . S
C2238 C2239 1.386 . S
C2238 C2240 1.391 . S
C2239 C2238 1.386 . S
C2239 C2243 1.393 . S
C2240 H2229 0.950 . S
C2240 C2238 1.391 . S
C2240 C2241 1.400 . S
C2241 C2235 1.491 . S
C2241 C2240 1.400 . S
C2241 C2242 1.398 . S
C2242 H2230 0.950 . S
C2242 C2241 1.398 . S
C2242 C2243 1.391 . S
C2243 H2231 0.950 . S
C2243 C2239 1.393 . S
C2243 C2242 1.391 . S
H2244 C2252 0.950 . S
H2245 C2257 0.950 . S
H2246 C2254 0.950 . S
H2247 C2256 0.950 . S
H2248 C2258 0.950 . S
H2249 C2260 0.950 . S
H2250 C2262 0.950 . S
H2251 C2263 0.950 . S
C2252 H2244 0.950 . S
C2252 C2253 1.386 . S
C2252 C2254 1.391 . S
C2253 C2252 1.386 . S
C2253 C2257 1.393 . S
C2254 H2246 0.950 . S
C2254 C2252 1.391 . S
C2254 C2255 1.400 . S
C2255 C2254 1.400 . S
C2255 C2256 1.398 . S
C2255 C2261 1.491 . S
C2256 H2247 0.950 . S
C2256 C2255 1.398 . S
C2256 C2257 1.391 . S
C2257 H2245 0.950 . S
C2257 C2253 1.393 . S
C2257 C2256 1.391 . S
C2258 H2248 0.950 . S
C2258 C2259 1.386 . S
C2258 C2260 1.391 . S
C2259 C2258 1.386 . S
C2259 C2263 1.393 . S
C2260 H2249 0.950 . S
C2260 C2258 1.391 . S
C2260 C2261 1.400 . S
C2261 C2255 1.491 . S
C2261 C2260 1.400 . S
C2261 C2262 1.398 . S
C2262 H2250 0.950 . S
C2262 C2261 1.398 . S
C2262 C2263 1.391 . S
C2263 H2251 0.950 . S
C2263 C2259 1.393 . S
C2263 C2262 1.391 . S
H2264 C2272 0.950 . S
H2265 C2277 0.950 . S
H2266 C2274 0.950 . S
H2267 C2276 0.950 . S
H2268 C2278 0.950 . S
H2269 C2280 0.950 . S
H2270 C2282 0.950 . S
H2271 C2283 0.950 . S
C2272 H2264 0.950 . S
C2272 C2273 1.386 . S
C2272 C2274 1.391 . S
C2273 C2272 1.386 . S
C2273 C2277 1.393 . S
C2274 H2266 0.950 . S
C2274 C2272 1.391 . S
C2274 C2275 1.400 . S
C2275 C2274 1.400 . S
C2275 C2276 1.398 . S
C2275 C2281 1.491 . S
C2276 H2267 0.950 . S
C2276 C2275 1.398 . S
C2276 C2277 1.391 . S
C2277 H2265 0.950 . S
C2277 C2273 1.393 . S
C2277 C2276 1.391 . S
C2278 H2268 0.950 . S
C2278 C2279 1.386 . S
C2278 C2280 1.391 . S
C2279 C2278 1.386 . S
C2279 C2283 1.393 . S
C2280 H2269 0.950 . S
C2280 C2278 1.391 . S
C2280 C2281 1.400 . S
C2281 C2275 1.491 . S
C2281 C2280 1.400 . S
C2281 C2282 1.398 . S
C2282 H2270 0.950 . S
C2282 C2281 1.398 . S
C2282 C2283 1.391 . S
C2283 H2271 0.950 . S
C2283 C2279 1.393 . S
C2283 C2282 1.391 . S
H2284 C2292 0.950 . S
H2285 C2297 0.950 . S
H2286 C2294 0.950 . S
H2287 C2296 0.950 . S
H2288 C2298 0.950 . S
H2289 C2300 0.950 . S
H2290 C2302 0.950 . S
H2291 C2303 0.950 . S
C2292 H2284 0.950 . S
C2292 C2293 1.386 . S
C2292 C2294 1.391 . S
C2293 C2292 1.386 . S
C2293 C2297 1.393 . S
C2294 H2286 0.950 . S
C2294 C2292 1.391 . S
C2294 C2295 1.400 . S
C2295 C2294 1.400 . S
C2295 C2296 1.398 . S
C2295 C2301 1.491 . S
C2296 H2287 0.950 . S
C2296 C2295 1.398 . S
C2296 C2297 1.391 . S
C2297 H2285 0.950 . S
C2297 C2293 1.393 . S
C2297 C2296 1.391 . S
C2298 H2288 0.950 . S
C2298 C2299 1.386 . S
C2298 C2300 1.391 . S
C2299 C2298 1.386 . S
C2299 C2303 1.393 . S
C2300 H2289 0.950 . S
C2300 C2298 1.391 . S
C2300 C2301 1.400 . S
C2301 C2295 1.491 . S
C2301 C2300 1.400 . S
C2301 C2302 1.398 . S
C2302 H2290 0.950 . S
C2302 C2301 1.398 . S
C2302 C2303 1.391 . S
C2303 H2291 0.950 . S
C2303 C2299 1.393 . S
C2303 C2302 1.391 . S
H2304 C2312 0.950 . S
H2305 C2317 0.950 . S
H2306 C2314 0.950 . S
H2307 C2316 0.950 . S
H2308 C2318 0.950 . S
H2309 C2320 0.950 . S
H2310 C2322 0.950 . S
H2311 C2323 0.950 . S
C2312 H2304 0.950 . S
C2312 C2313 1.386 . S
C2312 C2314 1.391 . S
C2313 C2312 1.386 . S
C2313 C2317 1.393 . S
C2314 H2306 0.950 . S
C2314 C2312 1.391 . S
C2314 C2315 1.400 . S
C2315 C2314 1.400 . S
C2315 C2316 1.398 . S
C2315 C2321 1.491 1_556 S
C2316 H2307 0.950 . S
C2316 C2315 1.398 . S
C2316 C2317 1.391 . S
C2317 H2305 0.950 . S
C2317 C2313 1.393 . S
C2317 C2316 1.391 . S
C2318 H2308 0.950 . S
C2318 C2319 1.386 . S
C2318 C2320 1.391 . S
C2319 C2318 1.386 . S
C2319 C2323 1.393 . S
C2320 H2309 0.950 . S
C2320 C2318 1.391 . S
C2320 C2321 1.400 . S
C2321 C2315 1.491 1_554 S
C2321 C2320 1.400 . S
C2321 C2322 1.398 . S
C2322 H2310 0.950 . S
C2322 C2321 1.398 . S
C2322 C2323 1.391 . S
C2323 H2311 0.950 . S
C2323 C2319 1.393 . S
C2323 C2322 1.391 . S
H2324 C2332 0.950 . S
H2325 C2337 0.950 . S
H2326 C2334 0.950 . S
H2327 C2336 0.950 . S
H2328 C2338 0.950 . S
H2329 C2340 0.950 . S
H2330 C2342 0.950 . S
H2331 C2343 0.950 . S
C2332 H2324 0.950 . S
C2332 C2333 1.386 . S
C2332 C2334 1.391 . S
C2333 C2332 1.386 . S
C2333 C2337 1.393 . S
C2334 H2326 0.950 . S
C2334 C2332 1.391 . S
C2334 C2335 1.400 . S
C2335 C2334 1.400 . S
C2335 C2336 1.398 . S
C2335 C2341 1.491 1_554 S
C2336 H2327 0.950 . S
C2336 C2335 1.398 . S
C2336 C2337 1.391 . S
C2337 H2325 0.950 . S
C2337 C2333 1.393 . S
C2337 C2336 1.391 . S
C2338 H2328 0.950 . S
C2338 C2339 1.386 . S
C2338 C2340 1.391 . S
C2339 C2338 1.386 . S
C2339 C2343 1.393 . S
C2340 H2329 0.950 . S
C2340 C2338 1.391 . S
C2340 C2341 1.400 . S
C2341 C2335 1.491 1_556 S
C2341 C2340 1.400 . S
C2341 C2342 1.398 . S
C2342 H2330 0.950 . S
C2342 C2341 1.398 . S
C2342 C2343 1.391 . S
C2343 H2331 0.950 . S
C2343 C2339 1.393 . S
C2343 C2342 1.391 . S
H2344 C2352 0.950 . S
H2345 C2357 0.950 . S
H2346 C2354 0.950 . S
H2347 C2356 0.950 . S
H2348 C2358 0.950 . S
H2349 C2360 0.950 . S
H2350 C2362 0.950 . S
H2351 C2363 0.950 . S
C2352 H2344 0.950 . S
C2352 C2353 1.386 . S
C2352 C2354 1.391 . S
C2353 C2352 1.386 . S
C2353 C2357 1.393 . S
C2354 H2346 0.950 . S
C2354 C2352 1.391 . S
C2354 C2355 1.400 . S
C2355 C2354 1.400 . S
C2355 C2356 1.398 . S
C2355 C2361 1.491 1_556 S
C2356 H2347 0.950 . S
C2356 C2355 1.398 . S
C2356 C2357 1.391 . S
C2357 H2345 0.950 . S
C2357 C2353 1.393 . S
C2357 C2356 1.391 . S
C2358 H2348 0.950 . S
C2358 C2359 1.386 . S
C2358 C2360 1.391 . S
C2359 C2358 1.386 . S
C2359 C2363 1.393 . S
C2360 H2349 0.950 . S
C2360 C2358 1.391 . S
C2360 C2361 1.400 . S
C2361 C2355 1.491 1_554 S
C2361 C2360 1.400 . S
C2361 C2362 1.398 . S
C2362 H2350 0.950 . S
C2362 C2361 1.398 . S
C2362 C2363 1.391 . S
C2363 H2351 0.950 . S
C2363 C2359 1.393 . S
C2363 C2362 1.391 . S
H2364 C2372 0.950 . S
H2365 C2377 0.950 . S
H2366 C2374 0.950 . S
H2367 C2376 0.950 . S
H2368 C2378 0.950 . S
H2369 C2380 0.950 . S
H2370 C2382 0.950 . S
H2371 C2383 0.950 . S
C2372 H2364 0.950 . S
C2372 C2373 1.386 . S
C2372 C2374 1.391 . S
C2373 C2372 1.386 . S
C2373 C2377 1.393 . S
C2374 H2366 0.950 . S
C2374 C2372 1.391 . S
C2374 C2375 1.400 . S
C2375 C2374 1.400 . S
C2375 C2376 1.398 . S
C2375 C2381 1.491 1_556 S
C2376 H2367 0.950 . S
C2376 C2375 1.398 . S
C2376 C2377 1.391 . S
C2377 H2365 0.950 . S
C2377 C2373 1.393 . S
C2377 C2376 1.391 . S
C2378 H2368 0.950 . S
C2378 C2379 1.386 . S
C2378 C2380 1.391 . S
C2379 C2378 1.386 . S
C2379 C2383 1.393 . S
C2380 H2369 0.950 . S
C2380 C2378 1.391 . S
C2380 C2381 1.400 . S
C2381 C2375 1.491 1_554 S
C2381 C2380 1.400 . S
C2381 C2382 1.398 . S
C2382 H2370 0.950 . S
C2382 C2381 1.398 . S
C2382 C2383 1.391 . S
C2383 H2371 0.950 . S
C2383 C2379 1.393 . S
C2383 C2382 1.391 . S
H2384 C2392 0.950 . S
H2385 C2397 0.950 . S
H2386 C2394 0.950 . S
H2387 C2396 0.950 . S
H2388 C2398 0.950 . S
H2389 C2400 0.950 . S
H2390 C2402 0.950 . S
H2391 C2403 0.950 . S
C2392 H2384 0.950 . S
C2392 C2393 1.386 . S
C2392 C2394 1.391 . S
C2393 C2392 1.386 . S
C2393 C2397 1.393 . S
C2394 H2386 0.950 . S
C2394 C2392 1.391 . S
C2394 C2395 1.400 . S
C2395 C2394 1.400 . S
C2395 C2396 1.398 . S
C2395 C2401 1.491 . S
C2396 H2387 0.950 . S
C2396 C2395 1.398 . S
C2396 C2397 1.391 . S
C2397 H2385 0.950 . S
C2397 C2393 1.393 . S
C2397 C2396 1.391 . S
C2398 H2388 0.950 . S
C2398 C2399 1.386 . S
C2398 C2400 1.391 . S
C2399 C2398 1.386 . S
C2399 C2403 1.393 . S
C2400 H2389 0.950 . S
C2400 C2398 1.391 . S
C2400 C2401 1.400 . S
C2401 C2395 1.491 . S
C2401 C2400 1.400 . S
C2401 C2402 1.398 . S
C2402 H2390 0.950 . S
C2402 C2401 1.398 . S
C2402 C2403 1.391 . S
C2403 H2391 0.950 . S
C2403 C2399 1.393 . S
C2403 C2402 1.391 . S
H2404 C2412 0.950 . S
H2405 C2417 0.950 . S
H2406 C2414 0.950 . S
H2407 C2416 0.950 . S
H2408 C2418 0.950 . S
H2409 C2420 0.950 . S
H2410 C2422 0.950 . S
H2411 C2423 0.950 . S
C2412 H2404 0.950 . S
C2412 C2413 1.386 . S
C2412 C2414 1.391 . S
C2413 C2412 1.386 . S
C2413 C2417 1.393 . S
C2414 H2406 0.950 . S
C2414 C2412 1.391 . S
C2414 C2415 1.400 . S
C2415 C2414 1.400 . S
C2415 C2416 1.398 . S
C2415 C2421 1.491 . S
C2416 H2407 0.950 . S
C2416 C2415 1.398 . S
C2416 C2417 1.391 . S
C2417 H2405 0.950 . S
C2417 C2413 1.393 . S
C2417 C2416 1.391 . S
C2418 H2408 0.950 . S
C2418 C2419 1.386 . S
C2418 C2420 1.391 . S
C2419 C2418 1.386 . S
C2419 C2423 1.393 . S
C2420 H2409 0.950 . S
C2420 C2418 1.391 . S
C2420 C2421 1.400 . S
C2421 C2415 1.491 . S
C2421 C2420 1.400 . S
C2421 C2422 1.398 . S
C2422 H2410 0.950 . S
C2422 C2421 1.398 . S
C2422 C2423 1.391 . S
C2423 H2411 0.950 . S
C2423 C2419 1.393 . S
C2423 C2422 1.391 . S
H2424 C2432 0.950 . S
H2425 C2437 0.950 . S
H2426 C2434 0.950 . S
H2427 C2436 0.950 . S
H2428 C2438 0.950 . S
H2429 C2440 0.950 . S
H2430 C2442 0.950 . S
H2431 C2443 0.950 . S
C2432 H2424 0.950 . S
C2432 C2433 1.386 . S
C2432 C2434 1.391 . S
C2433 C2432 1.386 . S
C2433 C2437 1.393 . S
C2434 H2426 0.950 . S
C2434 C2432 1.391 . S
C2434 C2435 1.400 . S
C2435 C2434 1.400 . S
C2435 C2436 1.398 . S
C2435 C2441 1.491 . S
C2436 H2427 0.950 . S
C2436 C2435 1.398 . S
C2436 C2437 1.391 . S
C2437 H2425 0.950 . S
C2437 C2433 1.393 . S
C2437 C2436 1.391 . S
C2438 H2428 0.950 . S
C2438 C2439 1.386 . S
C2438 C2440 1.391 . S
C2439 C2438 1.386 . S
C2439 C2443 1.393 . S
C2440 H2429 0.950 . S
C2440 C2438 1.391 . S
C2440 C2441 1.400 . S
C2441 C2435 1.491 . S
C2441 C2440 1.400 . S
C2441 C2442 1.398 . S
C2442 H2430 0.950 . S
C2442 C2441 1.398 . S
C2442 C2443 1.391 . S
C2443 H2431 0.950 . S
C2443 C2439 1.393 . S
C2443 C2442 1.391 . S
H2444 C2452 0.950 . S
H2445 C2457 0.950 . S
H2446 C2454 0.950 . S
H2447 C2456 0.950 . S
H2448 C2458 0.950 . S
H2449 C2460 0.950 . S
H2450 C2462 0.950 . S
H2451 C2463 0.950 . S
C2452 H2444 0.950 . S
C2452 C2453 1.386 . S
C2452 C2454 1.391 . S
C2453 C2452 1.386 . S
C2453 C2457 1.393 . S
C2454 H2446 0.950 . S
C2454 C2452 1.391 . S
C2454 C2455 1.400 . S
C2455 C2454 1.400 . S
C2455 C2456 1.398 . S
C2455 C2461 1.491 . S
C2456 H2447 0.950 . S
C2456 C2455 1.398 . S
C2456 C2457 1.391 . S
C2457 H2445 0.950 . S
C2457 C2453 1.393 . S
C2457 C2456 1.391 . S
C2458 H2448 0.950 . S
C2458 C2459 1.386 . S
C2458 C2460 1.391 . S
C2459 C2458 1.386 . S
C2459 C2463 1.393 . S
C2460 H2449 0.950 . S
C2460 C2458 1.391 . S
C2460 C2461 1.400 . S
C2461 C2455 1.491 . S
C2461 C2460 1.400 . S
C2461 C2462 1.398 . S
C2462 H2450 0.950 . S
C2462 C2461 1.398 . S
C2462 C2463 1.391 . S
C2463 H2451 0.950 . S
C2463 C2459 1.393 . S
C2463 C2462 1.391 . S
H2464 C2472 0.950 . S
H2465 C2477 0.950 . S
H2466 C2474 0.950 . S
H2467 C2476 0.950 . S
H2468 C2478 0.950 . S
H2469 C2480 0.950 . S
H2470 C2482 0.950 . S
H2471 C2483 0.950 . S
C2472 H2464 0.950 . S
C2472 C2473 1.386 . S
C2472 C2474 1.391 . S
C2473 C2472 1.386 . S
C2473 C2477 1.393 . S
C2474 H2466 0.950 . S
C2474 C2472 1.391 . S
C2474 C2475 1.400 . S
C2475 C2474 1.400 . S
C2475 C2476 1.398 . S
C2475 C2481 1.491 . S
C2476 H2467 0.950 . S
C2476 C2475 1.398 . S
C2476 C2477 1.391 . S
C2477 H2465 0.950 . S
C2477 C2473 1.393 . S
C2477 C2476 1.391 . S
C2478 H2468 0.950 . S
C2478 C2479 1.386 . S
C2478 C2480 1.391 . S
C2479 C2478 1.386 . S
C2479 C2483 1.393 . S
C2480 H2469 0.950 . S
C2480 C2478 1.391 . S
C2480 C2481 1.400 . S
C2481 C2475 1.491 . S
C2481 C2480 1.400 . S
C2481 C2482 1.398 . S
C2482 H2470 0.950 . S
C2482 C2481 1.398 . S
C2482 C2483 1.391 . S
C2483 H2471 0.950 . S
C2483 C2479 1.393 . S
C2483 C2482 1.391 . S
H2484 C2492 0.950 . S
H2485 C2497 0.950 . S
H2486 C2494 0.950 . S
H2487 C2496 0.950 . S
H2488 C2498 0.950 . S
H2489 C2500 0.950 . S
H2490 C2502 0.950 . S
H2491 C2503 0.950 . S
C2492 H2484 0.950 . S
C2492 C2493 1.386 . S
C2492 C2494 1.391 . S
C2493 C2492 1.386 . S
C2493 C2497 1.393 . S
C2494 H2486 0.950 . S
C2494 C2492 1.391 . S
C2494 C2495 1.400 . S
C2495 C2494 1.400 . S
C2495 C2496 1.398 . S
C2495 C2501 1.491 . S
C2496 H2487 0.950 . S
C2496 C2495 1.398 . S
C2496 C2497 1.391 . S
C2497 H2485 0.950 . S
C2497 C2493 1.393 . S
C2497 C2496 1.391 . S
C2498 H2488 0.950 . S
C2498 C2499 1.386 . S
C2498 C2500 1.391 . S
C2499 C2498 1.386 . S
C2499 C2503 1.393 . S
C2500 H2489 0.950 . S
C2500 C2498 1.391 . S
C2500 C2501 1.400 . S
C2501 C2495 1.491 . S
C2501 C2500 1.400 . S
C2501 C2502 1.398 . S
C2502 H2490 0.950 . S
C2502 C2501 1.398 . S
C2502 C2503 1.391 . S
C2503 H2491 0.950 . S
C2503 C2499 1.393 . S
C2503 C2502 1.391 . S
H2504 C2512 0.950 . S
H2505 C2517 0.950 . S
H2506 C2514 0.950 . S
H2507 C2516 0.950 . S
H2508 C2518 0.950 . S
H2509 C2520 0.950 . S
H2510 C2522 0.950 . S
H2511 C2523 0.950 . S
C2512 H2504 0.950 . S
C2512 C2513 1.386 . S
C2512 C2514 1.391 . S
C2513 C2512 1.386 . S
C2513 C2517 1.393 . S
C2514 H2506 0.950 . S
C2514 C2512 1.391 . S
C2514 C2515 1.400 . S
C2515 C2514 1.400 . S
C2515 C2516 1.398 . S
C2515 C2521 1.491 . S
C2516 H2507 0.950 . S
C2516 C2515 1.398 . S
C2516 C2517 1.391 . S
C2517 H2505 0.950 . S
C2517 C2513 1.393 . S
C2517 C2516 1.391 . S
C2518 H2508 0.950 . S
C2518 C2519 1.386 . S
C2518 C2520 1.391 . S
C2519 C2518 1.386 . S
C2519 C2523 1.393 . S
C2520 H2509 0.950 . S
C2520 C2518 1.391 . S
C2520 C2521 1.400 . S
C2521 C2515 1.491 . S
C2521 C2520 1.400 . S
C2521 C2522 1.398 . S
C2522 H2510 0.950 . S
C2522 C2521 1.398 . S
C2522 C2523 1.391 . S
C2523 H2511 0.950 . S
C2523 C2519 1.393 . S
C2523 C2522 1.391 . S
H2524 C2532 0.950 . S
H2525 C2537 0.950 . S
H2526 C2534 0.950 . S
H2527 C2536 0.950 . S
H2528 C2538 0.950 . S
H2529 C2540 0.950 . S
H2530 C2542 0.950 . S
H2531 C2543 0.950 . S
C2532 H2524 0.950 . S
C2532 C2533 1.386 . S
C2532 C2534 1.391 . S
C2533 C2532 1.386 . S
C2533 C2537 1.393 . S
C2534 H2526 0.950 . S
C2534 C2532 1.391 . S
C2534 C2535 1.400 . S
C2535 C2534 1.400 . S
C2535 C2536 1.398 . S
C2535 C2541 1.491 . S
C2536 H2527 0.950 . S
C2536 C2535 1.398 . S
C2536 C2537 1.391 . S
C2537 H2525 0.950 . S
C2537 C2533 1.393 . S
C2537 C2536 1.391 . S
C2538 H2528 0.950 . S
C2538 C2539 1.386 . S
C2538 C2540 1.391 . S
C2539 C2538 1.386 . S
C2539 C2543 1.393 . S
C2540 H2529 0.950 . S
C2540 C2538 1.391 . S
C2540 C2541 1.400 . S
C2541 C2535 1.491 . S
C2541 C2540 1.400 . S
C2541 C2542 1.398 . S
C2542 H2530 0.950 . S
C2542 C2541 1.398 . S
C2542 C2543 1.391 . S
C2543 H2531 0.950 . S
C2543 C2539 1.393 . S
C2543 C2542 1.391 . S
H2544 C2552 0.950 . S
H2545 C2557 0.950 . S
H2546 C2554 0.950 . S
H2547 C2556 0.950 . S
H2548 C2558 0.950 . S
H2549 C2560 0.950 . S
H2550 C2562 0.950 . S
H2551 C2563 0.950 . S
C2552 H2544 0.950 . S
C2552 C2553 1.386 . S
C2552 C2554 1.391 . S
C2553 C2552 1.386 . S
C2553 C2557 1.393 . S
C2554 H2546 0.950 . S
C2554 C2552 1.391 . S
C2554 C2555 1.400 . S
C2555 C2554 1.400 . S
C2555 C2556 1.398 . S
C2555 C2561 1.491 1_554 S
C2556 H2547 0.950 . S
C2556 C2555 1.398 . S
C2556 C2557 1.391 . S
C2557 H2545 0.950 . S
C2557 C2553 1.393 . S
C2557 C2556 1.391 . S
C2558 H2548 0.950 . S
C2558 C2559 1.386 . S
C2558 C2560 1.391 . S
C2559 C2558 1.386 . S
C2559 C2563 1.393 . S
C2560 H2549 0.950 . S
C2560 C2558 1.391 . S
C2560 C2561 1.400 . S
C2561 C2555 1.491 1_556 S
C2561 C2560 1.400 . S
C2561 C2562 1.398 . S
C2562 H2550 0.950 . S
C2562 C2561 1.398 . S
C2562 C2563 1.391 . S
C2563 H2551 0.950 . S
C2563 C2559 1.393 . S
C2563 C2562 1.391 . S
H2564 C2572 0.950 . S
H2565 C2577 0.950 . S
H2566 C2574 0.950 . S
H2567 C2576 0.950 . S
H2568 C2578 0.950 . S
H2569 C2580 0.950 . S
H2570 C2582 0.950 . S
H2571 C2583 0.950 . S
C2572 H2564 0.950 . S
C2572 C2573 1.386 . S
C2572 C2574 1.391 . S
C2573 C2572 1.386 . S
C2573 C2577 1.393 . S
C2574 H2566 0.950 . S
C2574 C2572 1.391 . S
C2574 C2575 1.400 . S
C2575 C2574 1.400 . S
C2575 C2576 1.398 . S
C2575 C2581 1.491 1_556 S
C2576 H2567 0.950 . S
C2576 C2575 1.398 . S
C2576 C2577 1.391 . S
C2577 H2565 0.950 . S
C2577 C2573 1.393 . S
C2577 C2576 1.391 . S
C2578 H2568 0.950 . S
C2578 C2579 1.386 . S
C2578 C2580 1.391 . S
C2579 C2578 1.386 . S
C2579 C2583 1.393 . S
C2580 H2569 0.950 . S
C2580 C2578 1.391 . S
C2580 C2581 1.400 . S
C2581 C2575 1.491 1_554 S
C2581 C2580 1.400 . S
C2581 C2582 1.398 . S
C2582 H2570 0.950 . S
C2582 C2581 1.398 . S
C2582 C2583 1.391 . S
C2583 H2571 0.950 . S
C2583 C2579 1.393 . S
C2583 C2582 1.391 . S
H2584 C2592 0.950 . S
H2585 C2597 0.950 . S
H2586 C2594 0.950 . S
H2587 C2596 0.950 . S
H2588 C2598 0.950 . S
H2589 C2600 0.950 . S
H2590 C2602 0.950 . S
H2591 C2603 0.950 . S
C2592 H2584 0.950 . S
C2592 C2593 1.386 . S
C2592 C2594 1.391 . S
C2593 C2592 1.386 . S
C2593 C2597 1.393 . S
C2594 H2586 0.950 . S
C2594 C2592 1.391 . S
C2594 C2595 1.400 . S
C2595 C2594 1.400 . S
C2595 C2596 1.398 . S
C2595 C2601 1.491 1_556 S
C2596 H2587 0.950 . S
C2596 C2595 1.398 . S
C2596 C2597 1.391 . S
C2597 H2585 0.950 . S
C2597 C2593 1.393 . S
C2597 C2596 1.391 . S
C2598 H2588 0.950 . S
C2598 C2599 1.386 . S
C2598 C2600 1.391 . S
C2599 C2598 1.386 . S
C2599 C2603 1.393 . S
C2600 H2589 0.950 . S
C2600 C2598 1.391 . S
C2600 C2601 1.400 . S
C2601 C2595 1.491 1_554 S
C2601 C2600 1.400 . S
C2601 C2602 1.398 . S
C2602 H2590 0.950 . S
C2602 C2601 1.398 . S
C2602 C2603 1.391 . S
C2603 H2591 0.950 . S
C2603 C2599 1.393 . S
C2603 C2602 1.391 . S
H2604 C2612 0.950 . S
H2605 C2617 0.950 . S
H2606 C2614 0.950 . S
H2607 C2616 0.950 . S
H2608 C2618 0.950 . S
H2609 C2620 0.950 . S
H2610 C2622 0.950 . S
H2611 C2623 0.950 . S
C2612 H2604 0.950 . S
C2612 C2613 1.386 . S
C2612 C2614 1.391 . S
C2613 C2612 1.386 . S
C2613 C2617 1.393 . S
C2614 H2606 0.950 . S
C2614 C2612 1.391 . S
C2614 C2615 1.400 . S
C2615 C2614 1.400 . S
C2615 C2616 1.398 . S
C2615 C2621 1.491 1_554 S
C2616 H2607 0.950 . S
C2616 C2615 1.398 . S
C2616 C2617 1.391 . S
C2617 H2605 0.950 . S
C2617 C2613 1.393 . S
C2617 C2616 1.391 . S
C2618 H2608 0.950 . S
C2618 C2619 1.386 . S
C2618 C2620 1.391 . S
C2619 C2618 1.386 . S
C2619 C2623 1.393 . S
C2620 H2609 0.950 . S
C2620 C2618 1.391 . S
C2620 C2621 1.400 . S
C2621 C2615 1.491 1_556 S
C2621 C2620 1.400 . S
C2621 C2622 1.398 . S
C2622 H2610 0.950 . S
C2622 C2621 1.398 . S
C2622 C2623 1.391 . S
C2623 H2611 0.950 . S
C2623 C2619 1.393 . S
C2623 C2622 1.391 . S
C713 C118 1.142 . S
C719 C8 1.112 . S
C733 C136 1.113 . S
C739 C26 1.127 . S
C753 C52 1.138 . S
C759 C158 1.125 . S
C773 C92 1.129 . S
C779 C74 1.135 . S
C793 C180 1.109 . S
C799 C294 1.135 . S
C813 C316 1.110 . S
C819 C202 1.132 . S
C833 C334 1.128 . S
C839 C224 1.112 . S
C853 C250 1.133 . S
C859 C272 1.132 . S
C873 C360 1.111 . S
C879 C470 1.131 . S
C893 C488 1.131 . S
C899 C378 1.134 . S
C913 C404 1.109 . S
C919 C510 1.137 . S
C933 C426 1.142 . S
C939 C444 1.118 . S
C953 C646 1.111 . S
C959 C532 1.141 . S
C973 C668 1.127 . S
C979 C554 1.137 . S
C993 C686 1.127 . S
C999 C576 1.113 . S
C1013 C602 1.123 . S
C1019 C624 1.140 . S
C1033 C647 1.260 . S
C1039 C7 1.236 . S
C1053 C669 1.259 . S
C1059 C28 1.237 . S
C1073 C687 1.236 . S
C1079 C51 1.260 . S
C1093 C73 1.252 . S
C1099 C625 1.244 . S
C1113 C94 1.245 . S
C1119 C603 1.251 . S
C1133 C533 1.261 . S
C1139 C117 1.235 . S
C1153 C138 1.237 . S
C1159 C555 1.259 . S
C1173 C577 1.261 . S
C1179 C160 1.235 . S
C1193 C469 1.259 . S
C1199 C181 1.237 . S
C1213 C490 1.239 . S
C1219 C203 1.257 . S
C1233 C225 1.235 . S
C1239 C512 1.261 . S
C1253 C446 1.236 . S
C1259 C251 1.260 . S
C1273 C425 1.260 . S
C1279 C273 1.236 . S
C1293 C295 1.239 . S
C1299 C359 1.257 . S
C1313 C317 1.236 . S
C1319 C380 1.260 . S
C1333 C403 1.252 . S
C1339 C335 1.244 . S
C1353 C72 1.471 . S
C1359 C4 1.385 . S
C1373 C6 1.435 . S
C1379 C30 1.414 . S
C1393 C48 1.389 . S
C1399 C29 1.463 . S
C1413 C70 1.385 . S
C1419 C50 1.471 . S
C1433 C116 1.451 . S
C1439 C96 1.397 . S
C1453 C139 1.466 . S
C1459 C114 1.387 . S
C1473 C161 1.435 . S
C1479 C140 1.410 . S
C1493 C162 1.394 . S
C1499 C95 1.456 . S
C1513 C247 1.441 . S
C1519 C184 1.405 . S
C1533 C185 1.454 . S
C1539 C206 1.395 . S
C1553 C228 1.413 . S
C1559 C207 1.441 . S
C1573 C246 1.412 . S
C1579 C229 1.442 . S
C1593 C291 1.442 . S
C1599 C268 1.404 . S
C1613 C290 1.398 . S
C1619 C313 1.450 . S
C1633 C312 1.385 . S
C1639 C339 1.431 . S
C1653 C338 1.414 . S
C1659 C269 1.436 . S
C1673 C424 1.423 . S
C1679 C356 1.409 . S
C1693 C382 1.409 . S
C1699 C358 1.413 . S
C1713 C381 1.438 . S
C1719 C400 1.389 . S
C1733 C422 1.414 . S
C1739 C402 1.414 . S
C1753 C448 1.414 . S
C1759 C468 1.415 . S
C1773 C491 1.440 . S
C1779 C466 1.384 . S
C1793 C492 1.412 . S
C1799 C513 1.420 . S
C1813 C514 1.410 . S
C1819 C447 1.413 . S
C1833 C599 1.434 . S
C1839 C536 1.397 . S
C1853 C558 1.381 . S
C1859 C537 1.438 . S
C1873 C580 1.383 . S
C1879 C559 1.440 . S
C1893 C598 1.381 . S
C1899 C581 1.437 . S
C1913 C643 1.435 . S
C1919 C620 1.394 . S
C1933 C642 1.384 . S
C1939 C665 1.440 . S
C1953 C691 1.439 . S
C1959 C664 1.387 . S
C1973 C621 1.440 . S
C1979 C690 1.384 . S
C1993 C9 1.170 . S
C1999 C137 1.199 . S
C2013 C159 1.203 . S
C2019 C27 1.191 . S
C2033 C53 1.178 . S
C2039 C93 1.207 . S
C2053 C119 1.188 . S
C2059 C75 1.174 . S
C2073 C182 1.198 . S
C2079 C315 1.196 . S
C2093 C336 1.179 . S
C2099 C204 1.182 . S
C2113 C271 1.170 . S
C2119 C226 1.196 . S
C2133 C293 1.189 . S
C2139 C249 1.204 . S
C2153 C489 1.207 . S
C2159 C361 1.176 . S
C2173 C379 1.195 . S
C2179 C511 1.199 . S
C2193 C445 1.207 . S
C2199 C405 1.179 . S
C2213 C427 1.197 . S
C2219 C471 1.170 . S
C2233 C534 1.170 . S
C2239 C667 1.197 . S
C2253 C688 1.175 . S
C2259 C556 1.206 . S
C2273 C623 1.206 . S
C2279 C578 1.175 . S
C2293 C645 1.175 . S
C2299 C601 1.186 . S
C2313 C227 1.427 . S
C2319 C5 1.429 . S
C2333 C31 1.432 . S
C2339 C248 1.424 . S
C2353 C183 1.429 . S
C2359 C49 1.427 . S
C2373 C205 1.428 . S
C2379 C71 1.428 . S
C2393 C314 1.424 . S
C2399 C97 1.432 . S
C2413 C115 1.424 . S
C2419 C337 1.432 . S
C2433 C270 1.432 . S
C2439 C141 1.423 . S
C2453 C163 1.424 . S
C2459 C292 1.432 . S
C2473 C579 1.424 . S
C2479 C357 1.432 . S
C2493 C600 1.424 . S
C2499 C383 1.432 . S
C2513 C401 1.432 . S
C2519 C535 1.424 . S
C2533 C423 1.424 . S
C2539 C557 1.432 . S
C2553 C666 1.425 . S
C2559 C449 1.431 . S
C2573 C467 1.424 . S
C2579 C689 1.432 . S
C2593 C493 1.432 . S
C2599 C622 1.424 . S
C2613 C644 1.430 . S
C2619 C515 1.426 . S
