# Generated by pormake.
# Topology wkj, (6)-cn, num edge types: 1
# Building blocks:
#     Node 0, Type 0, BuildingBlock: CUWYAW_clean_sbu_0, # of connection points: 6
#     Node 1, Type 0, BuildingBlock: CUWYAW_clean_sbu_0, # of connection points: 6
#     Node 2, Type 0, BuildingBlock: CUWYAW_clean_sbu_0, # of connection points: 6
#     Node 3, Type 0, BuildingBlock: CUWYAW_clean_sbu_0, # of connection points: 6
#     Node 4, Type 0, BuildingBlock: CUWYAW_clean_sbu_0, # of connection points: 6
#     Node 5, Type 0, BuildingBlock: CUWYAW_clean_sbu_0, # of connection points: 6
#     Node 6, Type 0, BuildingBlock: CUWYAW_clean_sbu_0, # of connection points: 6
#     Node 7, Type 0, BuildingBlock: CUWYAW_clean_sbu_0, # of connection points: 6
#     Node 8, Type 0, BuildingBlock: CUWYAW_clean_sbu_0, # of connection points: 6
#     Node 9, Type 0, BuildingBlock: CUWYAW_clean_sbu_0, # of connection points: 6
#     Node 10, Type 0, BuildingBlock: CUWYAW_clean_sbu_0, # of connection points: 6
#     Node 11, Type 0, BuildingBlock: CUWYAW_clean_sbu_0, # of connection points: 6
#     Edge 12, Type (0, 0), BuildingBlock: TEMPAE_clean_linker_10, # of connection points: 2
#     Edge 13, Type (0, 0), BuildingBlock: TEMPAE_clean_linker_10, # of connection points: 2
#     Edge 14, Type (0, 0), BuildingBlock: TEMPAE_clean_linker_10, # of connection points: 2
#     Edge 15, Type (0, 0), BuildingBlock: TEMPAE_clean_linker_10, # of connection points: 2
#     Edge 16, Type (0, 0), BuildingBlock: TEMPAE_clean_linker_10, # of connection points: 2
#     Edge 17, Type (0, 0), BuildingBlock: TEMPAE_clean_linker_10, # of connection points: 2
#     Edge 18, Type (0, 0), BuildingBlock: TEMPAE_clean_linker_10, # of connection points: 2
#     Edge 19, Type (0, 0), BuildingBlock: TEMPAE_clean_linker_10, # of connection points: 2
#     Edge 20, Type (0, 0), BuildingBlock: TEMPAE_clean_linker_10, # of connection points: 2
#     Edge 21, Type (0, 0), BuildingBlock: TEMPAE_clean_linker_10, # of connection points: 2
#     Edge 22, Type (0, 0), BuildingBlock: TEMPAE_clean_linker_10, # of connection points: 2
#     Edge 23, Type (0, 0), BuildingBlock: TEMPAE_clean_linker_10, # of connection points: 2
#     Edge 24, Type (0, 0), BuildingBlock: TEMPAE_clean_linker_10, # of connection points: 2
#     Edge 25, Type (0, 0), BuildingBlock: TEMPAE_clean_linker_10, # of connection points: 2
#     Edge 26, Type (0, 0), BuildingBlock: TEMPAE_clean_linker_10, # of connection points: 2
#     Edge 27, Type (0, 0), BuildingBlock: TEMPAE_clean_linker_10, # of connection points: 2
#     Edge 28, Type (0, 0), BuildingBlock: TEMPAE_clean_linker_10, # of connection points: 2
#     Edge 29, Type (0, 0), BuildingBlock: TEMPAE_clean_linker_10, # of connection points: 2
#     Edge 30, Type (0, 0), BuildingBlock: TEMPAE_clean_linker_10, # of connection points: 2
#     Edge 31, Type (0, 0), BuildingBlock: TEMPAE_clean_linker_10, # of connection points: 2
#     Edge 32, Type (0, 0), BuildingBlock: TEMPAE_clean_linker_10, # of connection points: 2
#     Edge 33, Type (0, 0), BuildingBlock: TEMPAE_clean_linker_10, # of connection points: 2
#     Edge 34, Type (0, 0), BuildingBlock: TEMPAE_clean_linker_10, # of connection points: 2
#     Edge 35, Type (0, 0), BuildingBlock: TEMPAE_clean_linker_10, # of connection points: 2
#     Edge 36, Type (0, 0), BuildingBlock: TEMPAE_clean_linker_10, # of connection points: 2
#     Edge 37, Type (0, 0), BuildingBlock: TEMPAE_clean_linker_10, # of connection points: 2
#     Edge 38, Type (0, 0), BuildingBlock: TEMPAE_clean_linker_10, # of connection points: 2
#     Edge 39, Type (0, 0), BuildingBlock: TEMPAE_clean_linker_10, # of connection points: 2
#     Edge 40, Type (0, 0), BuildingBlock: TEMPAE_clean_linker_10, # of connection points: 2
#     Edge 41, Type (0, 0), BuildingBlock: TEMPAE_clean_linker_10, # of connection points: 2
#     Edge 42, Type (0, 0), BuildingBlock: TEMPAE_clean_linker_10, # of connection points: 2
#     Edge 43, Type (0, 0), BuildingBlock: TEMPAE_clean_linker_10, # of connection points: 2
#     Edge 44, Type (0, 0), BuildingBlock: TEMPAE_clean_linker_10, # of connection points: 2
#     Edge 45, Type (0, 0), BuildingBlock: TEMPAE_clean_linker_10, # of connection points: 2
#     Edge 46, Type (0, 0), BuildingBlock: TEMPAE_clean_linker_10, # of connection points: 2
#     Edge 47, Type (0, 0), BuildingBlock: TEMPAE_clean_linker_10, # of connection points: 2
# Relax obj value: 0.790
# Max RMSD: 0.182
# Mean RMSD: 0.182
data_MOF--net-wkj--node1-CUWYAW_clean_sbu_0--edge1-TEMPAE_clean_linker_10
_symmetry_space_group_name_H-M    P1
_symmetry_Int_Tables_number       1
_symmetry_cell_setting            triclinic
loop_
_symmetry_equiv_pos_as_xyz
'x, y, z'
_cell_length_a     50.07215
_cell_length_b     50.00491
_cell_length_c     30.725254
_cell_angle_alpha  90.115742
_cell_angle_beta   89.83047
_cell_angle_gamma 119.91449
loop_
_atom_site_label
_atom_site_type_symbol
_atom_site_fract_x
_atom_site_fract_y
_atom_site_fract_z
_atom_type_partial_charge
C0 C 0.55125 0.1086 0.32854 0.0
Eu1 Eu 0.49238 0.08836 0.33889 0.0
C2 C 0.57546 0.13716 0.3087 0.0
C3 C 0.60147 0.13825 0.28984 0.0
C4 C 0.62242 0.16431 0.2663 0.0
C5 C 0.6175 0.18952 0.2613 0.0
C6 C 0.59245 0.18902 0.28277 0.0
C7 C 0.57155 0.16303 0.30607 0.0
C8 C 0.4483 0.03455 0.37913 0.0
C9 C 0.44643 0.05321 0.25968 0.0
C10 C 0.38522 0.08028 0.3631 0.0
Eu11 Eu 0.4412 0.08966 0.35366 0.0
C12 C 0.36521 0.07598 0.40027 0.0
C13 C 0.33384 0.06566 0.39407 0.0
C14 C 0.3143 0.05898 0.43002 0.0
C15 C 0.32605 0.0626 0.47248 0.0
C16 C 0.35787 0.0742 0.47817 0.0
C17 C 0.37723 0.08081 0.44241 0.0
C18 C 0.48373 0.14756 0.32702 0.0
C19 C 0.48706 0.10366 0.44288 0.0
O20 O 0.53923 0.11246 0.3639 0.0
O21 O 0.53026 0.08901 0.30209 0.0
O22 O 0.46667 0.03548 0.34849 0.0
O23 O 0.45536 0.06158 0.38718 0.0
O24 O 0.47413 0.06139 0.27469 0.0
O25 O 0.42974 0.06204 0.28437 0.0
O26 O 0.39153 0.05823 0.35655 0.0
O27 O 0.40959 0.1075 0.3599 0.0
O28 O 0.46836 0.14102 0.36298 0.0
O29 O 0.479 0.12234 0.30903 0.0
O30 O 0.45846 0.096 0.4289 0.0
O31 O 0.5059 0.10479 0.41144 0.0
H32 H 0.60485 0.11851 0.29173 0.0
H33 H 0.64156 0.16411 0.25008 0.0
H34 H 0.58763 0.20774 0.27888 0.0
H35 H 0.55153 0.16261 0.32035 0.0
H36 H 0.32432 0.06191 0.36154 0.0
H37 H 0.28993 0.05005 0.42465 0.0
H38 H 0.36765 0.07649 0.51029 0.0
H39 H 0.40141 0.08867 0.44768 0.0
C40 C 0.45132 0.57048 0.67136 0.0
Eu41 Eu 0.41656 0.51064 0.67804 0.0
C42 C 0.45231 0.59439 0.64243 0.0
C43 C 0.4542 0.59222 0.59717 0.0
C44 C 0.44816 0.61081 0.56995 0.0
C45 C 0.43992 0.63179 0.58741 0.0
C46 C 0.44041 0.63561 0.63271 0.0
C47 C 0.44677 0.61716 0.66 0.0
C48 C 0.43157 0.46957 0.71526 0.0
C49 C 0.41011 0.46492 0.59934 0.0
C50 C 0.32086 0.39908 0.70366 0.0
Eu51 Eu 0.36658 0.45503 0.69215 0.0
C52 C 0.29749 0.38668 0.73853 0.0
C53 C 0.2808 0.4015 0.74974 0.0
C54 C 0.26646 0.39633 0.79033 0.0
C55 C 0.26901 0.37666 0.82053 0.0
C56 C 0.28212 0.35882 0.80682 0.0
C57 C 0.29622 0.3638 0.7661 0.0
C58 C 0.3469 0.49549 0.67048 0.0
C59 C 0.39379 0.50029 0.78227 0.0
O60 O 0.42663 0.55681 0.69549 0.0
O61 O 0.45896 0.551 0.65519 0.0
O62 O 0.44787 0.48938 0.68538 0.0
O63 O 0.40991 0.47392 0.72442 0.0
O64 O 0.42365 0.49444 0.61045 0.0
O65 O 0.38811 0.44514 0.62707 0.0
O66 O 0.349 0.40807 0.71609 0.0
O67 O 0.3197 0.4188 0.67719 0.0
O68 O 0.33967 0.47912 0.70558 0.0
O69 O 0.36811 0.493 0.65037 0.0
O70 O 0.37459 0.47145 0.7675 0.0
O71 O 0.4111 0.52038 0.75173 0.0
H72 H 0.45834 0.57485 0.58266 0.0
H73 H 0.44751 0.60688 0.53518 0.0
H74 H 0.43425 0.65163 0.64701 0.0
H75 H 0.44533 0.61927 0.69492 0.0
H76 H 0.28101 0.41906 0.72892 0.0
H77 H 0.25602 0.40996 0.79965 0.0
H78 H 0.28466 0.34353 0.82919 0.0
H79 H 0.30873 0.35195 0.758 0.0
C80 C 0.8688 0.43899 0.98988 0.0
Eu81 Eu 0.89332 0.40397 1.00044 0.0
C82 C 0.84139 0.43348 0.96567 0.0
C83 C 0.82244 0.40419 0.9478 0.0
C84 C 0.79494 0.39732 0.92761 0.0
C85 C 0.78612 0.41983 0.92416 0.0
C86 C 0.80527 0.44938 0.94163 0.0
C87 C 0.83266 0.45605 0.96286 0.0
C88 C 0.94857 0.41802 1.03907 0.0
C89 C 0.93048 0.39306 0.9221 0.0
C90 C 0.91133 0.31009 1.03455 0.0
Eu91 Eu 0.89786 0.35313 1.01813 0.0
C92 C 0.9106 0.29468 1.07551 0.0
C93 C 0.93415 0.28822 1.08486 0.0
C94 C 0.93703 0.27921 0.12678 0.0
C95 C 0.91631 0.2765 0.1598 0.0
C96 C 0.89152 0.28096 0.14954 0.0
C97 C 0.88879 0.29019 1.10777 0.0
C98 C 0.83824 0.33385 0.99277 0.0
C99 C 0.88045 0.38358 1.10587 0.0
O100 O 0.86266 0.42019 1.02244 0.0
O101 O 0.89217 0.44206 0.96694 0.0
O102 O 0.94601 0.43465 1.00869 0.0
O103 O 0.92222 0.39719 1.04813 0.0
O104 O 0.91539 0.40772 0.93244 0.0
O105 O 0.92806 0.37171 0.95131 0.0
O106 O 0.93193 0.33934 1.03282 0.0
O107 O 0.88476 0.3045 1.0194 0.0
O108 O 0.84649 0.32525 1.02741 0.0
O109 O 0.86266 0.35507 0.97418 0.0
O110 O 0.88988 0.36382 1.09251 0.0
O111 O 0.87762 0.40011 1.07405 0.0
H112 H 0.82904 0.38663 0.94953 0.0
H113 H 0.78115 0.37473 0.91302 0.0
H114 H 0.7992 0.46726 0.93836 0.0
H115 H 0.84702 0.47873 0.97681 0.0
H116 H 0.95126 0.29176 1.06043 0.0
H117 H 0.95632 0.27585 0.134 0.0
H118 H 0.87555 0.2795 0.17455 0.0
H119 H 0.87062 0.29543 1.10143 0.0
C120 C 0.39386 0.85467 0.29847 0.0
Eu121 Eu 0.44905 0.88464 0.33223 0.0
C122 C 0.37997 0.82778 0.2695 0.0
C123 C 0.35105 0.81759 0.2506 0.0
C124 C 0.33856 0.79216 0.22243 0.0
C125 C 0.35475 0.77646 0.21335 0.0
C126 C 0.38321 0.78618 0.23376 0.0
C127 C 0.39578 0.81174 0.26125 0.0
C128 C 0.47815 0.94073 0.37272 0.0
C129 C 0.501 0.92949 0.25739 0.0
C130 C 0.56266 0.91937 0.38652 0.0
Eu131 Eu 0.50842 0.9017 0.35303 0.0
C132 C 0.57332 0.90864 0.42333 0.0
C133 C 0.60486 0.92176 0.43166 0.0
C134 C 0.61483 0.91498 0.4704 0.0
C135 C 0.59329 0.89546 0.50168 0.0
C136 C 0.56174 0.88039 0.49119 0.0
C137 C 0.5519 0.88679 0.45223 0.0
C138 C 0.48153 0.84514 0.31163 0.0
C139 C 0.45514 0.87769 0.43674 0.0
O140 O 0.40085 0.84908 0.33685 0.0
O141 O 0.41608 0.88014 0.28196 0.0
O142 O 0.44935 0.92047 0.37755 0.0
O143 O 0.48957 0.93185 0.34371 0.0
O144 O 0.4716 0.90791 0.26444 0.0
O145 O 0.52042 0.93379 0.29022 0.0
O146 O 0.54571 0.93154 0.39675 0.0
O147 O 0.55138 0.90042 0.35382 0.0
O148 O 0.50755 0.86901 0.30137 0.0
O149 O 0.46897 0.85305 0.34139 0.0
O150 O 0.48421 0.88675 0.42378 0.0
O151 O 0.43553 0.87412 0.40531 0.0
H152 H 0.33848 0.82963 0.25691 0.0
H153 H 0.31671 0.78529 0.20678 0.0
H154 H 0.39663 0.77513 0.22659 0.0
H155 H 0.41822 0.81949 0.2754 0.0
H156 H 0.6217 0.9383 0.40921 0.0
H157 H 0.63931 0.92646 0.477 0.0
H158 H 0.54437 0.86549 0.5144 0.0
H159 H 0.52746 0.87595 0.44585 0.0
C160 C 0.54352 0.42854 0.6694 0.0
Eu161 Eu 0.57944 0.48839 0.67507 0.0
C162 C 0.54606 0.40304 0.6501 0.0
C163 C 0.51967 0.37657 0.6353 0.0
C164 C 0.52231 0.35287 0.61522 0.0
C165 C 0.55139 0.35536 0.60991 0.0
C166 C 0.57754 0.38122 0.62693 0.0
C167 C 0.57491 0.40492 0.64665 0.0
C168 C 0.56385 0.5288 0.71388 0.0
C169 C 0.58664 0.53408 0.59633 0.0
C170 C 0.67122 0.60176 0.70086 0.0
Eu171 Eu 0.62873 0.5441 0.6901 0.0
C172 C 0.68816 0.61988 0.73896 0.0
C173 C 0.69343 0.60547 0.77441 0.0
C174 C 0.70432 0.62126 0.81363 0.0
C175 C 0.70968 0.6515 0.81809 0.0
C176 C 0.70646 0.66658 0.78161 0.0
C177 C 0.69576 0.65082 0.74223 0.0
C178 C 0.64999 0.5053 0.66458 0.0
C179 C 0.60243 0.49811 0.77898 0.0
O180 O 0.56236 0.44252 0.70139 0.0
O181 O 0.54181 0.44792 0.64277 0.0
O182 O 0.54787 0.50949 0.68331 0.0
O183 O 0.58545 0.52436 0.72252 0.0
O184 O 0.57395 0.50447 0.60641 0.0
O185 O 0.60729 0.55382 0.62532 0.0
O186 O 0.64179 0.59226 0.70101 0.0
O187 O 0.67702 0.58022 0.6886 0.0
O188 O 0.65786 0.52202 0.69941 0.0
O189 O 0.62776 0.50693 0.64645 0.0
O190 O 0.62012 0.52746 0.7651 0.0
O191 O 0.58684 0.47789 0.7476 0.0
H192 H 0.4972 0.37464 0.63816 0.0
H193 H 0.50186 0.33327 0.60201 0.0
H194 H 0.60031 0.38414 0.62238 0.0
H195 H 0.59557 0.42512 0.65812 0.0
H196 H 0.68743 0.58147 0.77263 0.0
H197 H 0.70608 0.60892 0.84142 0.0
H198 H 0.7104 0.68988 0.78435 0.0
H199 H 0.69173 0.66221 0.71516 0.0
C200 C 0.11027 0.52698 0.98943 0.0
Eu201 Eu 0.08537 0.56168 1.00012 0.0
C202 C 0.14001 0.53474 0.96969 0.0
C203 C 0.14429 0.51216 0.94907 0.0
C204 C 0.17096 0.52082 0.92446 0.0
C205 C 0.19341 0.55222 0.91984 0.0
C206 C 0.19009 0.57434 0.94388 0.0
C207 C 0.16361 0.56569 0.96836 0.0
C208 C 0.02992 0.54797 1.0382 0.0
C209 C 0.04693 0.57125 0.92332 0.0
C210 C 0.07054 0.65848 1.03011 0.0
Eu211 Eu 0.08118 0.61293 1.01733 0.0
C212 C 0.07751 0.67959 1.06684 0.0
C213 C 0.06392 0.69811 1.07009 0.0
C214 C 0.0667 0.71429 1.10859 0.0
C215 C 0.08277 0.71172 0.14442 0.0
C216 C 0.09829 0.69492 0.1394 0.0
C217 C 0.09569 0.67905 1.10097 0.0
C218 C 0.1406 0.63092 0.99342 0.0
C219 C 0.09868 0.5831 1.10489 0.0
O220 O 0.11228 0.54186 1.02514 0.0
O221 O 0.08966 0.52649 0.96303 0.0
O222 O 0.03267 0.53098 1.00841 0.0
O223 O 0.05621 0.56888 1.04719 0.0
O224 O 0.06222 0.55679 0.9332 0.0
O225 O 0.04956 0.59285 0.95229 0.0
O226 O 0.05047 0.62969 1.0383 0.0
O227 O 0.09436 0.66128 1.00893 0.0
O228 O 0.13247 0.63886 1.02894 0.0
O229 O 0.11632 0.61045 0.97398 0.0
O230 O 0.08917 0.60277 1.09168 0.0
O231 O 0.10175 0.56659 1.07317 0.0
H232 H 0.12638 0.48814 0.95007 0.0
H233 H 0.17296 0.50324 0.9065 0.0
H234 H 0.20651 0.59874 0.94063 0.0
H235 H 0.1608 0.58353 0.98414 0.0
H236 H 0.04997 0.69888 1.04376 0.0
H237 H 0.05479 0.72731 1.1112 0.0
H238 H 0.11042 0.69183 0.1663 0.0
H239 H 0.10642 0.66489 1.09886 0.0
C240 C 0.81111 0.39551 0.56164 0.0
Eu241 Eu 0.86211 0.44783 0.55017 0.0
C242 C 0.78378 0.38247 0.58993 0.0
C243 C 0.77185 0.35259 0.60653 0.0
C244 C 0.74862 0.34157 0.63808 0.0
C245 C 0.73742 0.36056 0.65398 0.0
C246 C 0.74734 0.38929 0.63396 0.0
C247 C 0.77028 0.40009 0.60218 0.0
C248 C 0.91445 0.45073 0.52806 0.0
C249 C 0.91058 0.49464 0.62521 0.0
C250 C 0.93304 0.56372 0.50713 0.0
Eu251 Eu 0.89621 0.50502 0.52197 0.0
C252 C 0.95672 0.58684 0.47846 0.0
C253 C 0.95433 0.61265 0.46694 0.0
C254 C 0.976 0.63507 0.4393 0.0
C255 C 0.0006 0.63213 0.4228 0.0
C256 C 0.00345 0.6066 0.43545 0.0
C257 C 0.98159 0.58404 0.46301 0.0
C258 C 0.83689 0.49203 0.54531 0.0
C259 C 0.87447 0.45683 0.43873 0.0
O260 O 0.81404 0.41688 0.53445 0.0
O261 O 0.83721 0.40207 0.58003 0.0
O262 O 0.89977 0.43816 0.56385 0.0
O263 O 0.90351 0.4654 0.5086 0.0
O264 O 0.88431 0.46771 0.61982 0.0
O265 O 0.92102 0.51206 0.58964 0.0
O266 O 0.94041 0.54698 0.5314 0.0
O267 O 0.90523 0.54808 0.49146 0.0
O268 O 0.84973 0.50238 0.50791 0.0
O269 O 0.85496 0.48673 0.56746 0.0
O270 O 0.89472 0.4856 0.45107 0.0
O271 O 0.85751 0.43836 0.47186 0.0
H272 H 0.78152 0.33836 0.59667 0.0
H273 H 0.74105 0.3191 0.6523 0.0
H274 H 0.7394 0.40464 0.64537 0.0
H275 H 0.77856 0.42284 0.5888 0.0
H276 H 0.93533 0.61523 0.47882 0.0
H277 H 0.97279 0.65409 0.4296 0.0
H278 H 0.02231 0.60385 0.42353 0.0
H279 H 0.98397 0.56436 0.47179 0.0
C280 C 0.43316 0.85684 0.9085 0.0
Eu281 Eu 0.40086 0.88036 0.87773 0.0
C282 C 0.42555 0.82463 0.91357 0.0
C283 C 0.39458 0.80127 0.91299 0.0
C284 C 0.38589 0.77237 0.93047 0.0
C285 C 0.40818 0.76639 0.94871 0.0
C286 C 0.43958 0.78819 0.94197 0.0
C287 C 0.44821 0.81746 0.92537 0.0
C288 C 0.42003 0.93611 0.83998 0.0
C289 C 0.38843 0.92074 0.95737 0.0
C290 C 0.31079 0.90277 0.83571 0.0
Eu291 Eu 0.35319 0.89095 0.86288 0.0
C292 C 0.30501 0.91682 0.79796 0.0
C293 C 0.27506 0.91072 0.78933 0.0
C294 C 0.26946 0.92477 0.75403 0.0
C295 C 0.2939 0.94543 0.72724 0.0
C296 C 0.32395 0.95134 0.73625 0.0
C297 C 0.32932 0.93675 0.77087 0.0
C298 C 0.33032 0.83476 0.90419 0.0
C299 C 0.38526 0.87481 0.77449 0.0
O300 O 0.43611 0.86705 0.86881 0.0
O301 O 0.41662 0.86464 0.93261 0.0
O302 O 0.43176 0.91888 0.83047 0.0
O303 O 0.4015 0.92438 0.87075 0.0
O304 O 0.40578 0.90884 0.94313 0.0
O305 O 0.36554 0.91679 0.93092 0.0
O306 O 0.33393 0.9214 0.86021 0.0
O307 O 0.30991 0.87659 0.82885 0.0
O308 O 0.32618 0.85719 0.91598 0.0
O309 O 0.34978 0.84422 0.87282 0.0
O310 O 0.36946 0.88843 0.78916 0.0
O311 O 0.39643 0.86455 0.80533 0.0
H312 H 0.37686 0.80637 0.90316 0.0
H313 H 0.36148 0.7564 0.93447 0.0
H314 H 0.45743 0.78395 0.95401 0.0
H315 H 0.47233 0.83508 0.92503 0.0
H316 H 0.25602 0.89511 0.80992 0.0
H317 H 0.24601 0.91927 0.74762 0.0
H318 H 0.34349 0.96753 0.71695 0.0
H319 H 0.35247 0.94124 0.77681 0.0
C320 C 0.58645 0.40279 0.24919 0.0
Eu321 Eu 0.54128 0.40941 0.21889 0.0
C322 C 0.59425 0.38802 0.28462 0.0
C323 C 0.60036 0.40069 0.32653 0.0
C324 C 0.60857 0.38723 0.35955 0.0
C325 C 0.61125 0.36088 0.35161 0.0
C326 C 0.60524 0.34818 0.30953 0.0
C327 C 0.597 0.36178 0.27625 0.0
C328 C 0.55257 0.46383 0.19088 0.0
C329 C 0.49574 0.4176 0.29728 0.0
C330 C 0.43283 0.38564 0.16716 0.0
Eu331 Eu 0.48712 0.39966 0.19676 0.0
C332 C 0.41479 0.39501 0.1403 0.0
C333 C 0.38349 0.38261 0.15009 0.0
C334 C 0.36436 0.38739 0.12219 0.0
C335 C 0.37629 0.40473 1.08394 0.0
C336 C 0.40817 0.41875 1.0756 0.0
C337 C 0.42732 0.41384 1.10356 0.0
C338 C 0.48765 0.34569 0.22258 0.0
C339 C 0.53433 0.42103 1.11241 0.0
O340 O 0.56665 0.38451 0.22044 0.0
O341 O 0.58242 0.42598 0.259 0.0
O342 O 0.56981 0.45198 0.18327 0.0
O343 O 0.5287 0.44634 0.21376 0.0
O344 O 0.51846 0.41084 0.28938 0.0
O345 O 0.48136 0.4187 0.26212 0.0
O346 O 0.44414 0.40057 0.2034 0.0
O347 O 0.45144 0.37838 0.14735 0.0
O348 O 0.47093 0.35583 0.23999 0.0
O349 O 0.50452 0.36544 0.19511 0.0
O350 O 0.50887 0.4196 0.12812 0.0
O351 O 0.55028 0.41441 0.14148 0.0
H352 H 0.59857 0.4209 0.33412 0.0
H353 H 0.61186 0.39711 0.39183 0.0
H354 H 0.60681 0.32779 0.30238 0.0
H355 H 0.59272 0.35174 0.24397 0.0
H356 H 0.37351 0.36802 0.1784 0.0
H357 H 0.33993 0.37597 0.12935 0.0
H358 H 0.41809 0.4326 1.04667 0.0
H359 H 0.45155 0.42379 1.09573 0.0
C360 C 0.13504 0.58185 0.56526 0.0
Eu361 Eu 0.10581 0.52284 0.54937 0.0
C362 C 0.15652 0.60146 0.59949 0.0
C363 C 0.1473 0.59775 0.64321 0.0
C364 C 0.16922 0.61137 0.67597 0.0
C365 C 0.20083 0.62889 0.66577 0.0
C366 C 0.2098 0.63451 0.62191 0.0
C367 C 0.18776 0.62108 0.58903 0.0
C368 C 0.0486 0.48396 0.51763 0.0
C369 C 0.06813 0.47088 0.62304 0.0
C370 C 0.07649 0.40703 0.50968 0.0
Eu371 Eu 0.09677 0.46577 0.52256 0.0
C372 C 0.05011 0.37978 0.49015 0.0
C373 C 0.05554 0.36404 0.45667 0.0
C374 C 0.03097 0.33922 0.43586 0.0
C375 C 0.00041 0.32957 0.4482 0.0
C376 C -0.00498 0.34434 0.48329 0.0
C377 C 0.0197 0.36918 0.50425 0.0
C378 C 0.15724 0.50137 0.5505 0.0
C379 C 0.10805 0.51463 0.43898 0.0
O380 O 0.14584 0.56814 0.54042 0.0
O381 O 0.10611 0.56357 0.57603 0.0
O382 O 0.05257 0.50055 0.55223 0.0
O383 O 0.07389 0.48997 0.503 0.0
O384 O 0.08717 0.50108 0.61797 0.0
O385 O 0.06586 0.45319 0.58836 0.0
O386 O 0.07119 0.41824 0.54489 0.0
O387 O 0.09533 0.42861 0.48311 0.0
O388 O 0.148 0.48453 0.51597 0.0
O389 O 0.1334 0.4995 0.56895 0.0
O390 O 0.09818 0.48507 0.45033 0.0
O391 O 0.11419 0.53402 0.47275 0.0
H392 H 0.12345 0.58278 0.65238 0.0
H393 H 0.16147 0.60608 0.70943 0.0
H394 H 0.23393 0.64797 0.6131 0.0
H395 H 0.19538 0.62442 0.55542 0.0
H396 H 0.07881 0.37156 0.44568 0.0
H397 H 0.03593 0.32875 0.4084 0.0
H398 H 0.97173 0.3374 0.49346 0.0
H399 H 0.0149 0.38059 0.53058 0.0
C400 C 0.55995 0.16677 0.90271 0.0
Eu401 Eu 0.56403 0.11751 0.88791 0.0
C402 C 0.57719 0.19366 0.93094 0.0
C403 C 0.60491 0.19888 0.94928 0.0
C404 C 0.62081 0.22306 0.97836 0.0
C405 C 0.60894 0.24227 0.99034 0.0
C406 C 0.58185 0.23796 0.97015 0.0
C407 C 0.56609 0.21379 0.94047 0.0
C408 C 0.51869 0.06229 0.86169 0.0
C409 C 0.56269 0.0682 0.96082 0.0
C410 C 0.61719 0.05238 0.84578 0.0
Eu411 Eu 0.59244 0.08693 0.85967 0.0
C412 C 0.61078 0.02302 0.82649 0.0
C413 C 0.63558 0.01942 0.81342 0.0
C414 C 0.63033 -0.00755 0.79261 0.0
C415 C 0.60009 0.96854 0.78462 0.0
C416 C 0.57522 0.97165 0.79988 0.0
C417 C 0.58053 -0.0012 0.8205 0.0
C418 C 0.63533 0.14754 0.88206 0.0
C419 C 0.56362 0.10758 0.77683 0.0
O420 O 0.5762 0.16441 0.87117 0.0
O421 O 0.54272 0.14044 0.92243 0.0
O422 O 0.51627 0.07733 0.89457 0.0
O423 O 0.54535 0.07647 0.84559 0.0
O424 O 0.5606 0.09375 0.95623 0.0
O425 O 0.57175 0.05942 0.92532 0.0
O426 O 0.60167 0.05084 0.8807 0.0
O427 O 0.62003 0.07389 0.81906 0.0
O428 O 0.63469 0.13423 0.84583 0.0
O429 O 0.61208 0.12872 0.90418 0.0
O430 O 0.57406 0.08863 0.78882 0.0
O431 O 0.55988 0.12305 0.81016 0.0
H432 H 0.61352 0.18335 0.94237 0.0
H433 H 0.6411 0.22508 0.994 0.0
H434 H 0.57209 0.25228 0.97896 0.0
H435 H 0.54477 0.21016 0.92623 0.0
H436 H 0.65907 0.03792 0.81809 0.0
H437 H 0.65 0.99114 0.78059 0.0
H438 H 0.55167 0.95356 0.79445 0.0
H439 H 0.5611 0.00119 0.83079 0.0
C440 C 0.38749 0.54575 0.24336 0.0
Eu441 Eu 0.4461 0.56881 0.22827 0.0
C442 C 0.37165 0.5571 0.27184 0.0
C443 C 0.34504 0.53657 0.29483 0.0
C444 C 0.33311 0.5477 0.32685 0.0
C445 C 0.34788 0.5795 0.33642 0.0
C446 C 0.37289 0.60007 0.31047 0.0
C447 C 0.38474 0.58898 0.27875 0.0
C448 C 0.48141 0.54439 0.20421 0.0
C449 C 0.49799 0.58498 0.30397 0.0
C450 C 0.5638 0.6493 0.18707 0.0
Eu451 Eu 0.50474 0.61331 0.20001 0.0
C452 C 0.58955 0.65476 0.15813 0.0
C453 C 0.61186 0.64749 0.17239 0.0
C454 C 0.63638 0.65251 0.14525 0.0
C455 C 0.63914 0.66543 1.10395 0.0
C456 C 0.61759 0.67373 1.09025 0.0
C457 C 0.59295 0.66844 1.11709 0.0
C458 C 0.47085 0.64099 0.22346 0.0
C459 C 0.45718 0.57527 1.11733 0.0
O460 O 0.40191 0.5637 0.21042 0.0
O461 O 0.40409 0.53576 0.26279 0.0
O462 O 0.46298 0.5341 0.2376 0.0
O463 O 0.47809 0.56456 0.18556 0.0
O464 O 0.4677 0.57103 0.29672 0.0
O465 O 0.51629 0.60189 0.27097 0.0
O466 O 0.55217 0.62455 0.21124 0.0
O467 O 0.54274 0.65495 0.17198 0.0
O468 O 0.48625 0.64579 0.18776 0.0
O469 O 0.47238 0.6199 0.24473 0.0
O470 O 0.48677 0.59393 0.12867 0.0
O471 O 0.4371 0.56387 0.15082 0.0
H472 H 0.33451 0.51192 0.28967 0.0
H473 H 0.31373 0.53132 0.34623 0.0
H474 H 0.38524 0.6246 0.31728 0.0
H475 H 0.40531 0.60535 0.2614 0.0
H476 H 0.61001 0.63738 0.2042 0.0
H477 H 0.65265 0.6456 0.15595 0.0
H478 H 0.61931 0.68342 1.05815 0.0
H479 H 0.57646 0.67475 1.10542 0.0
C480 C 0.50389 0.20503 0.32857 0.0
C481 C 0.49055 0.17736 0.30443 0.0
C482 C 0.50469 0.23221 0.31316 0.0
C483 C 0.49122 0.23228 0.27256 0.0
C484 C 0.47839 0.20461 0.24738 0.0
C485 C 0.47835 0.17777 0.26334 0.0
C486 C 0.51926 0.26079 0.34117 0.0
C487 C 0.46322 0.20285 0.20435 0.0
C488 C 0.46501 0.29327 0.26062 0.0
C489 C 0.48803 0.31622 0.2342 0.0
C490 C 0.46522 0.26574 0.27189 0.0
C491 C 0.48958 0.26081 0.25779 0.0
C492 C 0.51298 0.28403 0.23126 0.0
C493 C 0.51161 0.31082 0.21926 0.0
C494 C 0.43923 0.24185 0.29925 0.0
C495 C 0.5401 0.281 0.21636 0.0
H496 H 0.51297 0.20517 0.36061 0.0
H497 H 0.46714 0.15656 0.24466 0.0
H498 H 0.53763 0.28039 0.32261 0.0
H499 H 0.50186 0.26735 0.35041 0.0
H500 H 0.52929 0.25745 0.37136 0.0
H501 H 0.4556 0.18052 0.18749 0.0
H502 H 0.44288 0.20575 0.2097 0.0
H503 H 0.47932 0.22187 0.18273 0.0
H504 H 0.44649 0.2967 0.27232 0.0
H505 H 0.52945 0.32787 0.1985 0.0
H506 H 0.44822 0.23962 0.33117 0.0
H507 H 0.4289 0.21898 0.28305 0.0
H508 H 0.42086 0.24774 0.30505 0.0
H509 H 0.55374 0.28148 0.24507 0.0
H510 H 0.55549 0.29986 0.19389 0.0
H511 H 0.53206 0.25857 0.19974 0.0
C512 C 0.31866 0.50478 0.60668 0.0
C513 C 0.32341 0.50332 0.65159 0.0
C514 C 0.29303 0.50706 0.59069 0.0
C515 C 0.27132 0.50816 0.61991 0.0
C516 C 0.27695 0.50804 0.66516 0.0
C517 C 0.30244 0.50557 0.68012 0.0
C518 C 0.28872 0.50754 0.54224 0.0
C519 C 0.25514 0.5091 0.69822 0.0
C520 C 0.2121 0.53254 0.58136 0.0
C521 C 0.18522 0.504 0.57388 0.0
C522 C 0.24006 0.53438 0.596 0.0
C523 C 0.2417 0.50708 0.6037 0.0
C524 C 0.21433 0.47831 0.59697 0.0
C525 C 0.18695 0.47717 0.582 0.0
C526 C 0.26807 0.5657 0.60274 0.0
C527 C 0.21404 0.4484 0.60499 0.0
H528 H 0.33423 0.50293 0.58392 0.0
H529 H 0.30546 0.50448 0.71488 0.0
H530 H 0.2656 0.48856 0.53274 0.0
H531 H 0.2899 0.52954 0.53294 0.0
H532 H 0.30641 0.50512 0.52356 0.0
H533 H 0.23274 0.48725 0.69683 0.0
H534 H 0.26421 0.51224 0.73192 0.0
H535 H 0.25058 0.52814 0.69071 0.0
H536 H 0.2116 0.55353 0.57446 0.0
H537 H 0.16674 0.45494 0.57572 0.0
H538 H 0.28826 0.56701 0.5857 0.0
H539 H 0.27375 0.56934 0.63789 0.0
H540 H 0.26449 0.58466 0.59092 0.0
H541 H 0.23119 0.44701 0.58358 0.0
H542 H 0.19106 0.4279 0.5989 0.0
H543 H 0.22075 0.44756 0.63913 0.0
C544 C 0.78397 0.31404 0.9612 0.0
C545 C 0.80924 0.30978 0.96971 0.0
C546 C 0.75505 0.28934 0.9465 0.0
C547 C 0.75058 0.25905 0.94067 0.0
C548 C 0.77619 0.25486 0.94895 0.0
C549 C 0.80472 0.27989 0.96324 0.0
C550 C 0.72901 0.29559 0.93802 0.0
C551 C 0.77328 0.2235 0.94373 0.0
C552 C 0.66941 0.18501 0.94226 0.0
C553 C 0.66363 0.17697 0.89791 0.0
C554 C 0.69678 0.21189 0.95645 0.0
C555 C 0.71959 0.2317 0.9259 0.0
C556 C 0.71349 0.22392 0.88108 0.0
C557 C 0.68604 0.19696 0.86786 0.0
C558 C 0.70145 0.21887 1.00449 0.0
C559 C 0.73635 0.24391 0.84677 0.0
H560 H 0.78636 0.33641 0.96756 0.0
H561 H 0.82357 0.27581 0.97054 0.0
H562 H 0.73583 0.32013 0.94375 0.0
H563 H 0.72105 0.28955 0.90389 0.0
H564 H 0.70914 0.28083 0.95936 0.0
H565 H 0.79517 0.22382 0.95092 0.0
H566 H 0.7551 0.20675 0.96587 0.0
H567 H 0.76619 0.21501 0.90999 0.0
H568 H 0.65271 0.16997 0.96613 0.0
H569 H 0.68219 0.19139 0.83352 0.0
H570 H 0.70386 0.2418 1.01102 0.0
H571 H 0.72308 0.21989 1.01527 0.0
H572 H 0.68202 0.20133 1.0243 0.0
H573 H 0.74153 0.26813 0.85031 0.0
H574 H 0.72779 0.23592 0.81325 0.0
H575 H 0.75831 0.24387 0.85113 0.0
C576 C 0.45746 0.68316 0.21315 0.0
C577 C 0.46515 0.66603 0.2417 0.0
C578 C 0.45628 0.70969 0.22687 0.0
C579 C 0.46385 0.72066 0.27033 0.0
C580 C 0.47067 0.70286 0.29981 0.0
C581 C 0.47086 0.67576 0.28543 0.0
C582 C 0.44789 0.72668 0.19408 0.0
C583 C 0.47928 0.7133 0.34626 0.0
C584 C 0.49962 0.80897 0.2839 0.0
C585 C 0.47583 0.81265 0.30246 0.0
C586 C 0.4962 0.7796 0.27486 0.0
C587 C 0.46783 0.7522 0.28312 0.0
C588 C 0.4435 0.75556 0.30172 0.0
C589 C 0.44789 0.78546 0.3117 0.0
C590 C 0.52329 0.778 0.25615 0.0
C591 C 0.41242 0.72757 0.30999 0.0
H592 H 0.45293 0.6761 0.17934 0.0
H593 H 0.4771 0.66316 0.30797 0.0
H594 H 0.42983 0.73105 0.20759 0.0
H595 H 0.46834 0.74943 0.18681 0.0
H596 H 0.43943 0.71368 0.16309 0.0
H597 H 0.48348 0.69699 0.36552 0.0
H598 H 0.50043 0.73633 0.34688 0.0
H599 H 0.46069 0.71573 0.36219 0.0
H600 H 0.5215 0.82936 0.27666 0.0
H601 H 0.4292 0.7875 0.32608 0.0
H602 H 0.51769 0.76806 0.22289 0.0
H603 H 0.52824 0.76259 0.2763 0.0
H604 H 0.54444 0.80102 0.25435 0.0
H605 H 0.40142 0.71714 0.2784 0.0
H606 H 0.39684 0.73334 0.32843 0.0
H607 H 0.41493 0.70984 0.32827 0.0
C608 C 0.66944 0.47418 0.62053 0.0
C609 C 0.67487 0.50161 0.6412 0.0
C610 C 0.6942 0.47041 0.60435 0.0
C611 C 0.72545 0.49474 0.60798 0.0
C612 C 0.73073 0.52263 0.62785 0.0
C613 C 0.70581 0.52552 0.6443 0.0
C614 C 0.68694 0.43998 0.58429 0.0
C615 C 0.76303 0.54961 0.6323 0.0
C616 C 0.79665 0.48291 0.60424 0.0
C617 C 0.80774 0.49146 0.56138 0.0
C618 C 0.76943 0.48248 0.61911 0.0
C619 C 0.75275 0.49164 0.59114 0.0
C620 C 0.76393 0.50029 0.54785 0.0
C621 C 0.79081 0.4999 0.53362 0.0
C622 C 0.75871 0.47249 0.66521 0.0
C623 C 0.74782 0.51075 0.51657 0.0
H624 H 0.64596 0.45526 0.61827 0.0
H625 H 0.71071 0.54687 0.66018 0.0
H626 H 0.6959 0.44362 0.55048 0.0
H627 H 0.69863 0.42974 0.60285 0.0
H628 H 0.66179 0.42326 0.58377 0.0
H629 H 0.76345 0.57011 0.64709 0.0
H630 H 0.77699 0.543 0.65285 0.0
H631 H 0.7743 0.55618 0.59989 0.0
H632 H 0.80922 0.47633 0.62632 0.0
H633 H 0.79884 0.50667 0.50051 0.0
H634 H 0.73394 0.45459 0.6656 0.0
H635 H 0.76114 0.49242 0.68434 0.0
H636 H 0.77205 0.46312 0.68158 0.0
H637 H 0.7232 0.49282 0.51364 0.0
H638 H 0.75845 0.51572 0.48364 0.0
H639 H 0.74863 0.53194 0.52925 0.0
C640 C 0.27938 0.79679 0.93894 0.0
C641 C 0.30502 0.80163 0.91366 0.0
C642 C 0.2541 0.76704 0.94751 0.0
C643 C 0.25393 0.74024 0.93181 0.0
C644 C 0.28004 0.74468 0.90703 0.0
C645 C 0.30479 0.77508 0.89759 0.0
C646 C 0.22722 0.76441 0.97346 0.0
C647 C 0.2819 0.71738 0.88998 0.0
C648 C 0.19792 0.66808 0.99831 0.0
C649 C 0.17109 0.65395 0.97259 0.0
C650 C 0.22554 0.69432 0.98395 0.0
C651 C 0.22676 0.70817 0.94308 0.0
C652 C 0.20019 0.69309 0.91596 0.0
C653 C 0.17297 0.66625 0.93076 0.0
C654 C 0.2531 0.70814 1.01377 0.0
C655 C 0.19984 0.70646 0.87222 0.0
H656 H 0.27868 0.81661 0.95183 0.0
H657 H 0.32393 0.77794 0.8777 0.0
H658 H 0.20547 0.75065 0.9551 0.0
H659 H 0.22501 0.75215 1.00448 0.0
H660 H 0.22975 0.78727 0.98116 0.0
H661 H 0.30597 0.72367 0.88185 0.0
H662 H 0.27258 0.69824 0.91397 0.0
H663 H 0.26791 0.70878 0.85993 0.0
H664 H 0.197 0.65914 1.03073 0.0
H665 H 0.15252 0.65614 0.91059 0.0
H666 H 0.25518 0.72903 1.02969 0.0
H667 H 0.27458 0.71532 0.99499 0.0
H668 H 0.25114 0.69171 1.03957 0.0
H669 H 0.20065 0.72887 0.87686 0.0
H670 H 0.17893 0.6909 0.85316 0.0
H671 H 0.22052 0.711 0.85311 0.0
C672 C 0.65241 0.27587 1.04012 0.0
C673 C 0.62078 0.26089 1.03058 0.0
C674 C 0.66239 0.27939 1.08346 0.0
C675 C 0.6401 0.26686 1.11697 0.0
C676 C 0.60918 0.25851 1.10775 0.0
C677 C 0.59985 0.25569 1.0643 0.0
C678 C 0.69612 0.29203 1.09268 0.0
C679 C 0.58489 0.24729 0.14301 0.0
C680 C 0.63557 0.20277 0.18519 0.0
C681 C 0.63383 0.21293 0.22699 0.0
C682 C 0.64106 0.22167 0.14895 0.0
C683 C 0.64559 0.25184 0.15486 0.0
C684 C 0.64828 0.2637 0.19749 0.0
C685 C 0.64189 0.24389 0.2332 0.0
C686 C 0.63827 0.20775 1.10422 0.0
C687 C 0.65548 0.29635 0.20584 0.0
H688 H 0.66893 0.28134 1.01398 0.0
H689 H 0.57546 0.24507 1.05721 0.0
H690 H 0.70209 0.30167 0.12612 0.0
H691 H 0.70179 0.27331 1.08963 0.0
H692 H 0.71055 0.31026 1.06879 0.0
H693 H 0.56268 0.24434 0.13095 0.0
H694 H 0.58073 0.22474 0.15567 0.0
H695 H 0.59278 0.26384 0.17049 0.0
H696 H 0.62941 0.1789 0.18018 0.0
H697 H 0.64133 0.25209 0.2657 0.0
H698 H 0.65904 0.22249 1.08449 0.0
H699 H 0.61806 0.2061 1.08698 0.0
H700 H 0.63545 0.18428 1.10564 0.0
H701 H 0.66417 0.31111 0.17642 0.0
H702 H 0.67301 0.3068 0.23198 0.0
H703 H 0.63445 0.29619 0.21776 0.0
C704 C 0.34723 0.62034 0.38328 0.0
C705 C 0.34337 0.59063 0.37907 0.0
C706 C 0.3568 0.63634 0.42294 0.0
C707 C 0.36314 0.62236 0.45836 0.0
C708 C 0.35416 0.59059 0.4561 0.0
C709 C 0.34392 0.57502 0.41651 0.0
C710 C 0.36318 0.66914 0.42492 0.0
C711 C 0.35976 0.57414 0.49323 0.0
C712 C 0.43714 0.65375 0.51617 0.0
C713 C 0.42561 0.64475 0.55841 0.0
C714 C 0.41759 0.65186 0.4824 0.0
C715 C 0.38616 0.6414 0.49184 0.0
C716 C 0.37669 0.6396 0.53559 0.0
C717 C 0.39645 0.64067 0.56874 0.0
C718 C 0.42938 0.65606 0.43618 0.0
C719 C 0.34442 0.63237 0.54666 0.0
H720 H 0.3457 0.63218 0.35467 0.0
H721 H 0.3405 0.5519 0.41377 0.0
H722 H 0.36665 0.67812 0.45872 0.0
H723 H 0.384 0.6842 0.40533 0.0
H724 H 0.34372 0.67058 0.41016 0.0
H725 H 0.35093 0.54934 0.48613 0.0
H726 H 0.38484 0.58504 0.49973 0.0
H727 H 0.34846 0.57576 0.52337 0.0
H728 H 0.46024 0.6584 0.5086 0.0
H729 H 0.38766 0.63476 0.60169 0.0
H730 H 0.42307 0.67121 0.418 0.0
H731 H 0.41869 0.63339 0.41935 0.0
H732 H 0.45481 0.66636 0.43479 0.0
H733 H 0.33828 0.64721 0.52722 0.0
H734 H 0.34186 0.63581 0.58183 0.0
H735 H 0.32774 0.60809 0.53811 0.0
C736 C 0.73182 0.38576 0.90034 0.0
C737 C 0.75996 0.41332 0.89559 0.0
C738 C 0.71218 0.37259 0.86456 0.0
C739 C 0.72195 0.38668 0.8233 0.0
C740 C 0.74741 0.41716 0.82054 0.0
C741 C 0.76605 0.43027 0.85714 0.0
C742 C 0.68324 0.34182 0.87006 0.0
C743 C 0.75797 0.43398 0.77759 0.0
C744 C 0.73489 0.34604 0.73147 0.0
C745 C 0.72227 0.35458 0.69725 0.0
C746 C 0.73116 0.35242 0.7746 0.0
C747 C 0.71384 0.36722 0.78361 0.0
C748 C 0.69624 0.37027 0.75008 0.0
C749 C 0.70101 0.36432 0.7069 0.0
C750 C 0.74954 0.34736 0.80939 0.0
C751 C 0.67476 0.38263 0.75874 0.0
H752 H 0.72665 0.37305 0.93068 0.0
H753 H 0.78756 0.45188 0.85383 0.0
H754 H 0.66751 0.33601 0.84181 0.0
H755 H 0.68928 0.32343 0.87424 0.0
H756 H 0.67088 0.34201 0.90005 0.0
H757 H 0.77716 0.45805 0.78161 0.0
H758 H 0.76591 0.42163 0.7557 0.0
H759 H 0.73863 0.43471 0.76134 0.0
H760 H 0.75095 0.338 0.72453 0.0
H761 H 0.6901 0.36977 0.68062 0.0
H762 H 0.7343 0.33373 0.83661 0.0
H763 H 0.76747 0.36989 0.82266 0.0
H764 H 0.76115 0.33489 0.79685 0.0
H765 H 0.66959 0.38255 0.79391 0.0
H766 H 0.65281 0.36856 0.74092 0.0
H767 H 0.6851 0.40653 0.74607 0.0
C768 C 0.36887 0.71784 0.98656 0.0
C769 C 0.39868 0.74377 0.98517 0.0
C770 C 0.35373 0.70666 1.02661 0.0
C771 C 0.36874 0.72219 1.06527 0.0
C772 C 0.40086 0.74328 1.06424 0.0
C773 C 0.41556 0.75353 1.02404 0.0
C774 C 0.32058 0.68119 1.02674 0.0
C775 C 0.41862 0.7594 1.10485 0.0
C776 C 0.34003 0.76267 0.13623 0.0
C777 C 0.34546 0.75405 0.17707 0.0
C778 C 0.34282 0.74869 1.09833 0.0
C779 C 0.35085 0.72525 1.10173 0.0
C780 C 0.35045 0.71262 0.14304 0.0
C781 C 0.34843 0.72765 0.18052 0.0
C782 C 0.3417 0.76232 1.05494 0.0
C783 C 0.35545 0.68546 0.14821 0.0
H784 H 0.35611 0.70865 0.9566 0.0
H785 H 0.43899 0.77266 1.02388 0.0
H786 H 0.31283 0.67102 1.05962 0.0
H787 H 0.30568 0.69032 1.01539 0.0
H788 H 0.31744 0.66272 1.00364 0.0
H789 H 0.44392 0.77209 1.09918 0.0
H790 H 0.41167 0.77617 1.11608 0.0
H791 H 0.41352 0.74258 0.13133 0.0
H792 H 0.33726 0.78277 0.13344 0.0
H793 H 0.35158 0.72021 0.21228 0.0
H794 H 0.32705 0.74384 1.03173 0.0
H795 H 0.36524 0.77527 1.04088 0.0
H796 H 0.33245 0.77835 1.05788 0.0
H797 H 0.35259 0.67301 1.11708 0.0
H798 H 0.33892 0.66911 0.17248 0.0
H799 H 0.37891 0.69343 0.16104 0.0
C800 C 0.59801 0.31351 0.39551 0.0
C801 C 0.61672 0.34544 0.38905 0.0
C802 C 0.59155 0.30153 0.43804 0.0
C803 C 0.60232 0.32236 0.47338 0.0
C804 C 0.62724 0.3526 0.46649 0.0
C805 C 0.63472 0.3636 0.42384 0.0
C806 C 0.56956 0.2677 0.44538 0.0
C807 C 0.6422 0.37504 0.50358 0.0
C808 C 0.54446 0.33303 0.53653 0.0
C809 C 0.55578 0.33538 0.57867 0.0
C810 C 0.55698 0.32492 0.50173 0.0
C811 C 0.58085 0.31795 0.50973 0.0
C812 C 0.58842 0.31512 0.55321 0.0
C813 C 0.57629 0.32462 0.58732 0.0
C814 C 0.54734 0.3281 0.45624 0.0
C815 C 0.61099 0.30451 0.56408 0.0
H816 H 0.58566 0.29858 0.36846 0.0
H817 H 0.65129 0.38777 0.41839 0.0
H818 H 0.57576 0.25979 0.47548 0.0
H819 H 0.5458 0.26358 0.44964 0.0
H820 H 0.56969 0.25371 0.41732 0.0
H821 H 0.66225 0.39712 0.4926 0.0
H822 H 0.62523 0.38025 0.51904 0.0
H823 H 0.65024 0.3648 0.52864 0.0
H824 H 0.52841 0.34112 0.5299 0.0
H825 H 0.58441 0.32556 0.62028 0.0
H826 H 0.53968 0.30658 0.43745 0.0
H827 H 0.56708 0.34716 0.43887 0.0
H828 H 0.52812 0.33319 0.45631 0.0
H829 H 0.61839 0.29655 0.53511 0.0
H830 H 0.60027 0.28525 0.58785 0.0
H831 H 0.63154 0.32349 0.58023 0.0
C832 C 0.24392 0.59006 0.8855 0.0
C833 C 0.21515 0.56293 0.8825 0.0
C834 C 0.25808 0.60787 0.84828 0.0
C835 C 0.24258 0.59848 0.80792 0.0
C836 C 0.2166 0.56842 0.80384 0.0
C837 C 0.20344 0.55087 0.84129 0.0
C838 C 0.28763 0.63813 0.85351 0.0
C839 C 0.19962 0.55652 0.76121 0.0
C840 C 0.21802 0.64397 0.74219 0.0
C841 C 0.22368 0.63602 0.70086 0.0
C842 C 0.22894 0.63652 0.77943 0.0
C843 C 0.24664 0.62167 0.77456 0.0
C844 C 0.25851 0.62082 0.73313 0.0
C845 C 0.24627 0.62734 0.69625 0.0
C846 C 0.21713 0.63979 0.8233 0.0
C847 C 0.28073 0.60902 0.72722 0.0
H848 H 0.25384 0.59891 0.91725 0.0
H849 H 0.18157 0.52964 0.83849 0.0
H850 H 0.29845 0.64856 0.8218 0.0
H851 H 0.28306 0.65459 0.87182 0.0
H852 H 0.30422 0.6346 0.87309 0.0
H853 H 0.18049 0.53228 0.76362 0.0
H854 H 0.18977 0.57105 0.75078 0.0
H855 H 0.21559 0.55754 0.73541 0.0
H856 H 0.20179 0.65224 0.7456 0.0
H857 H 0.25179 0.6222 0.66429 0.0
H858 H 0.23624 0.65043 0.84704 0.0
H859 H 0.19998 0.61665 0.83584 0.0
H860 H 0.20595 0.65416 0.82165 0.0
H861 H 0.29426 0.61215 0.75726 0.0
H862 H 0.29676 0.62115 0.69981 0.0
H863 H 0.26789 0.58411 0.71907 0.0
C864 C 0.42593 0.9612 1.01643 0.0
C865 C 0.39558 0.9399 1.00199 0.0
C866 C 0.43276 0.97967 1.05594 0.0
C867 C 0.40944 0.97684 1.08613 0.0
C868 C 0.37867 0.95494 1.07197 0.0
C869 C 0.37235 0.938 1.03097 0.0
C870 C 0.46558 0.00361 1.0646 0.0
C871 C 0.35154 0.9489 1.10004 0.0
C872 C 0.43929 0.00753 0.20832 0.0
C873 C 0.43468 0.03304 0.21594 0.0
C874 C 0.43027 0.98906 0.16879 0.0
C875 C 0.41747 -0.00392 0.13148 0.0
C876 C 0.41309 0.02221 0.13874 0.0
C877 C 0.42082 0.03934 0.17982 0.0
C878 C 0.43476 0.96152 0.16842 0.0
C879 C 0.40029 0.03279 1.10266 0.0
H880 H 0.44485 0.96438 0.99575 0.0
H881 H 0.34858 0.92236 1.02216 0.0
H882 H 0.47303 -0.00181 1.09562 0.0
H883 H 0.48126 0.00485 1.03807 0.0
H884 H 0.46744 0.02657 1.06835 0.0
H885 H 0.33256 0.92469 1.09636 0.0
H886 H 0.35779 0.95339 0.13498 0.0
H887 H 0.34264 0.96417 1.0894 0.0
H888 H 0.44973 0.00126 0.23428 0.0
H889 H 0.41684 0.05866 0.18287 0.0
H890 H 0.42345 0.9458 0.14056 0.0
H891 H 0.42574 0.94821 0.19907 0.0
H892 H 0.45979 0.96996 0.1676 0.0
H893 H 0.40787 0.02925 1.07023 0.0
H894 H 0.40735 0.05756 1.10626 0.0
H895 H 0.37477 0.01926 1.1039 0.0
C896 C 0.49049 0.41471 0.38536 0.0
C897 C 0.48474 0.42359 0.34389 0.0
C898 C 0.47815 0.41892 0.42654 0.0
C899 C 0.45957 0.43373 0.42956 0.0
C900 C 0.45415 0.44298 0.38754 0.0
C901 C 0.46598 0.4376 0.34711 0.0
C902 C 0.48501 0.40639 0.46687 0.0
C903 C 0.43563 0.4591 0.3835 0.0
C904 C 0.40248 0.43271 0.52534 0.0
C905 C 0.42178 0.45476 0.55702 0.0
C906 C 0.41395 0.42539 0.48577 0.0
C907 C 0.44638 0.43974 0.47494 0.0
C908 C 0.46575 0.46061 0.5085 0.0
C909 C 0.45363 0.46812 0.54684 0.0
C910 C 0.3904 0.40149 0.45574 0.0
C911 C 0.50014 0.4755 0.50547 0.0
H912 H 0.50423 0.40349 0.38593 0.0
H913 H 0.46037 0.44498 0.31704 0.0
H914 H 0.50903 0.4225 0.47723 0.0
H915 H 0.46915 0.40322 0.49417 0.0
H916 H 0.48347 0.38387 0.45981 0.0
H917 H 0.41358 0.44352 0.36683 0.0
H918 H 0.43044 0.46619 0.4151 0.0
H919 H 0.4482 0.47993 0.36275 0.0
H920 H 0.37784 0.42127 0.53085 0.0
H921 H 0.46982 0.48464 0.56991 0.0
H922 H 0.40021 0.38998 0.43567 0.0
H923 H 0.38146 0.41277 0.43373 0.0
H924 H 0.3705 0.3836 0.47449 0.0
H925 H 0.51099 0.49915 0.51911 0.0
H926 H 0.5083 0.47642 0.47172 0.0
H927 H 0.50786 0.46227 0.5257 0.0
C928 C 0.05895 0.47086 0.70891 0.0
C929 C 0.04832 0.4573 0.66705 0.0
C930 C 0.04138 0.45929 0.74924 0.0
C931 C 0.01027 0.43349 0.75049 0.0
C932 C -0.00041 0.41942 0.70829 0.0
C933 C 0.01817 0.43089 0.66867 0.0
C934 C 0.05761 0.4749 0.79083 0.0
C935 C 0.96799 0.39144 0.70464 0.0
C936 C 0.97405 0.39451 0.86819 0.0
C937 C 0.95046 0.4018 0.87773 0.0
C938 C -0.00725 0.40398 0.82838 0.0
C939 C -0.01087 0.42182 0.79431 0.0
C940 C 0.96463 0.42828 0.80339 0.0
C941 C 0.94676 0.41902 0.84362 0.0
C942 C 0.0167 0.39443 0.82297 0.0
C943 C 0.95646 0.4455 0.77096 0.0
H944 H 0.08195 0.49071 0.71067 0.0
H945 H 0.00847 0.41912 0.63824 0.0
H946 H 0.04167 0.46972 0.81871 0.0
H947 H 0.07415 0.46705 0.7992 0.0
H948 H 0.07128 0.50029 0.78626 0.0
H949 H 0.964 0.37499 0.73147 0.0
H950 H 0.95035 0.3986 0.70751 0.0
H951 H 0.96464 0.37937 0.67302 0.0
H952 H 0.97843 0.38146 0.89241 0.0
H953 H 0.9292 0.42544 0.84802 0.0
H954 H 0.03962 0.41414 0.83151 0.0
H955 H 0.01772 0.38784 0.78873 0.0
H956 H 0.01209 0.37477 0.84454 0.0
H957 H 0.93178 0.43132 0.76197 0.0
H958 H 0.97057 0.4521 0.7409 0.0
H959 H 0.95941 0.46669 0.7867 0.0
C960 C 0.49464 0.94002 0.17401 0.0
C961 C 0.51151 0.94973 0.21368 0.0
C962 C 0.50333 0.95826 0.13417 0.0
C963 C 0.52993 0.98889 0.13134 0.0
C964 C 0.54753 -0.00159 0.17121 0.0
C965 C 0.53836 0.97942 0.21039 0.0
C966 C 0.48308 0.9435 1.09508 0.0
C967 C 0.57707 0.0289 0.17344 0.0
C968 C 0.55576 0.02069 1.00836 0.0
C969 C 0.55475 0.04862 1.0051 0.0
C970 C 0.54884 0.00225 1.04778 0.0
C971 C 0.53928 0.01012 1.08786 0.0
C972 C 0.53887 0.0388 1.08501 0.0
C973 C 0.54635 0.05699 1.04509 0.0
C974 C 0.55254 0.97417 1.04554 0.0
C975 C 0.52999 0.05093 0.12413 0.0
H976 H 0.47408 0.91746 0.17369 0.0
H977 H 0.55261 0.98837 0.23916 0.0
H978 H 0.45841 0.93169 1.10459 0.0
H979 H 0.48688 0.96 1.06862 0.0
H980 H 0.48767 0.92544 1.08212 0.0
H981 H 0.59459 0.02665 0.19271 0.0
H982 H 0.58688 0.03812 0.14085 0.0
H983 H 0.57262 0.04585 0.19058 0.0
H984 H 0.56234 0.0129 0.97945 0.0
H985 H 0.54536 0.07814 1.04547 0.0
H986 H 0.53187 0.95506 1.02986 0.0
H987 H 0.55555 0.96648 1.07808 0.0
H988 H 0.57271 0.97884 1.02501 0.0
H989 H 0.51596 0.03258 0.14802 0.0
H990 H 0.51682 0.06236 1.1141 0.0
H991 H 0.55125 0.06868 0.14042 0.0
C992 C 0.57459 0.53134 0.51142 0.0
C993 C 0.57637 0.54462 0.55324 0.0
C994 C 0.56337 0.53906 0.47233 0.0
C995 C 0.55205 0.56046 0.47263 0.0
C996 C 0.55403 0.57413 0.51469 0.0
C997 C 0.56606 0.56655 0.55306 0.0
C998 C 0.56308 0.52346 0.4302 0.0
C999 C 0.54279 0.59684 0.51954 0.0
C1000 C 0.54329 0.59766 0.36058 0.0
C1001 C 0.51167 0.58005 0.34841 0.0
C1002 C 0.55629 0.59178 0.39935 0.0
C1003 C 0.53793 0.56787 0.4301 0.0
C1004 C 0.50573 0.55107 0.419 0.0
C1005 C 0.49351 0.55685 0.37942 0.0
C1006 C 0.59035 0.61153 0.40731 0.0
C1007 C 0.48353 0.52573 0.4484 0.0
H1008 H 0.58195 0.51438 0.50902 0.0
H1009 H 0.56648 0.57741 0.58379 0.0
H1010 H 0.54027 0.51383 0.41416 0.0
H1011 H 0.58045 0.54071 0.40766 0.0
H1012 H 0.56837 0.50459 0.43508 0.0
H1013 H 0.54678 0.60689 0.55277 0.0
H1014 H 0.55457 0.6158 0.49557 0.0
H1015 H 0.51774 0.58518 0.51249 0.0
H1016 H 0.55845 0.61632 0.33915 0.0
H1017 H 0.46915 0.54253 0.37263 0.0
H1018 H 0.60123 0.59688 0.40718 0.0
H1019 H 0.59439 0.62247 0.43991 0.0
H1020 H 0.60186 0.62985 0.38235 0.0
H1021 H 0.48992 0.53112 0.48315 0.0
H1022 H 0.48413 0.50455 0.43986 0.0
H1023 H 0.45958 0.52109 0.44402 0.0
C1024 C 0.00255 0.56869 0.87092 0.0
C1025 C 0.02654 0.56195 0.87973 0.0
C1026 C 0.98356 0.55873 0.83161 0.0
C1027 C -0.01266 0.54092 0.79753 0.0
C1028 C 0.01217 0.53495 0.80598 0.0
C1029 C 0.03033 0.54471 0.84568 0.0
C1030 C 0.95915 0.56771 0.82689 0.0
C1031 C 0.02028 0.51755 0.77357 0.0
C1032 C 0.91772 0.49287 0.7118 0.0
C1033 C 0.92937 0.50611 0.6701 0.0
C1034 C 0.93511 0.50399 0.7523 0.0
C1035 C 0.96651 0.52935 0.7538 0.0
C1036 C 0.97798 0.54318 0.71182 0.0
C1037 C 0.95998 0.53175 0.67208 0.0
C1038 C 0.91861 0.48826 0.79372 0.0
C1039 C 0.00984 0.57088 0.70839 0.0
H1040 H -0.0019 0.58169 0.89529 0.0
H1041 H 0.04818 0.53868 0.84972 0.0
H1042 H 0.95653 0.57261 0.79242 0.0
H1043 H 0.93678 0.54836 0.83821 0.0
H1044 H 0.96448 0.58831 0.8469 0.0
H1045 H 0.01685 0.49622 0.78933 0.0
H1046 H 0.00639 0.51107 0.74343 0.0
H1047 H 0.04504 0.53148 0.76475 0.0
H1048 H 0.89435 0.47364 0.71326 0.0
H1049 H 0.9704 0.54331 0.64175 0.0
H1050 H 0.90445 0.46295 0.78864 0.0
H1051 H 0.90257 0.49665 0.80271 0.0
H1052 H 0.9345 0.49274 0.82135 0.0
H1053 H 0.01482 0.58658 0.7366 0.0
H1054 H 0.0128 0.58406 0.67797 0.0
H1055 H 0.02709 0.56313 0.70822 0.0
C1056 C 0.44243 0.02441 0.45894 0.0
C1057 C 0.43868 0.01273 0.41591 0.0
C1058 C 0.4505 0.01057 0.49217 0.0
C1059 C 0.45515 0.98625 0.48045 0.0
C1060 C 0.43544 0.96719 0.44696 0.0
C1061 C 0.43123 0.98194 0.41085 0.0
C1062 C 0.46045 0.02534 0.53604 0.0
C1063 C 0.41844 0.93273 0.45138 0.0
C1064 C 0.50299 -0.00529 0.40005 0.0
C1065 C 0.49576 0.96411 0.40632 0.0
C1066 C 0.50278 0.0117 0.43648 0.0
C1067 C 0.48832 -0.00494 0.47499 0.0
C1068 C 0.49409 0.9712 0.48452 0.0
C1069 C 0.49683 0.95478 0.44932 0.0
C1070 C 0.51619 0.04599 0.43368 0.0
C1071 C 0.49008 0.9593 0.53015 0.0
H1072 H 0.44293 0.04579 0.46576 0.0
H1073 H 0.42274 0.97002 0.38015 0.0
H1074 H 0.46014 0.00873 0.56031 0.0
H1075 H 0.48431 0.04499 0.5337 0.0
H1076 H 0.44508 0.03404 0.5472 0.0
H1077 H 0.40201 0.92618 0.479 0.0
H1078 H 0.40524 0.92115 0.42154 0.0
H1079 H 0.43438 0.92426 0.45967 0.0
H1080 H 0.50671 0.00445 0.36763 0.0
H1081 H 0.49692 0.93388 0.45591 0.0
H1082 H 0.50767 0.05493 0.46004 0.0
H1083 H 0.51177 0.05279 0.40143 0.0
H1084 H 0.54157 0.05713 0.43716 0.0
H1085 H 0.49567 0.97807 0.55407 0.0
H1086 H 0.50521 0.94936 0.53586 0.0
H1087 H 0.46569 0.94125 0.5352 0.0
C1088 C 0.43569 0.46014 0.79385 0.0
C1089 C 0.44546 0.46067 0.75039 0.0
C1090 C 0.45751 0.46985 0.82751 0.0
C1091 C 0.48827 0.48114 0.81577 0.0
C1092 C 0.49261 0.46652 0.77896 0.0
C1093 C 0.47261 0.45985 0.74362 0.0
C1094 C 0.44965 0.4745 0.87293 0.0
C1095 C 0.51898 0.46054 0.77579 0.0
C1096 C 0.52254 0.53766 0.74438 0.0
C1097 C 0.54991 0.53712 0.74986 0.0
C1098 C 0.50299 0.53069 0.78051 0.0
C1099 C 0.50776 0.51567 0.8163 0.0
C1100 C 0.53864 0.52689 0.8271 0.0
C1101 C 0.56016 0.53748 0.79292 0.0
C1102 C 0.47696 0.53726 0.77946 0.0
C1103 C 0.54703 0.52124 0.87159 0.0
H1104 H 0.41294 0.45643 0.80092 0.0
H1105 H 0.47882 0.45579 0.71146 0.0
H1106 H 0.46556 0.47307 0.89673 0.0
H1107 H 0.45234 0.49782 0.87568 0.0
H1108 H 0.42557 0.4569 0.88098 0.0
H1109 H 0.52924 0.4661 0.74281 0.0
H1110 H 0.53654 0.47338 0.80083 0.0
H1111 H 0.51013 0.43556 0.78106 0.0
H1112 H 0.51597 0.54201 0.71274 0.0
H1113 H 0.58312 0.54162 0.7992 0.0
H1114 H 0.45964 0.52441 0.80497 0.0
H1115 H 0.46635 0.53231 0.74675 0.0
H1116 H 0.48633 0.56225 0.78552 0.0
H1117 H 0.57131 0.53839 0.8794 0.0
H1118 H 0.54412 0.49778 0.87278 0.0
H1119 H 0.53152 0.5224 0.89653 0.0
C1120 C 0.96168 0.42089 1.11769 0.0
C1121 C 0.9714 0.43077 1.07438 0.0
C1122 C 0.97458 0.44229 0.15181 0.0
C1123 C -0.00424 0.47275 0.14065 0.0
C1124 C 0.01462 0.47585 1.10423 0.0
C1125 C 0.00039 0.45671 1.06821 0.0
C1126 C 0.96113 0.43482 0.1968 0.0
C1127 C 0.04797 0.50001 1.1025 0.0
C1128 C 0.97812 0.50949 1.06776 0.0
C1129 C 0.00709 0.53549 1.07362 0.0
C1130 C 0.9639 0.49061 1.10401 0.0
C1131 C 0.98271 0.49404 0.14049 0.0
C1132 C 0.00393 0.52457 0.15122 0.0
C1133 C 0.01683 0.54569 1.1168 0.0
C1134 C 0.93055 0.46648 1.10254 0.0
C1135 C 0.01744 0.53242 0.19605 0.0
H1136 H 0.94186 0.39863 0.12441 0.0
H1137 H 0.01098 0.46257 1.03625 0.0
H1138 H 0.97873 0.44941 0.22127 0.0
H1139 H 0.94197 0.43986 0.19906 0.0
H1140 H 0.95221 0.4101 0.20445 0.0
H1141 H 0.06194 0.4889 1.10935 0.0
H1142 H 0.05446 0.51016 1.06953 0.0
H1143 H 0.05374 0.51808 0.12732 0.0
H1144 H 0.96756 0.5034 1.03586 0.0
H1145 H 0.03672 0.56796 0.12321 0.0
H1146 H 0.92488 0.4484 0.12721 0.0
H1147 H 0.92394 0.45638 1.06952 0.0
H1148 H 0.91661 0.47759 1.10989 0.0
H1149 H -1e-05 0.51784 0.22077 0.0
H1150 H 0.02606 0.55713 0.20333 0.0
H1151 H 0.03687 0.52778 0.1982 0.0
C1152 C 0.02217 0.44301 0.46295 0.0
C1153 C 0.02147 0.45514 0.50416 0.0
C1154 C -0.00214 0.41471 0.44899 0.0
C1155 C 0.97088 0.4007 0.47438 0.0
C1156 C 0.97481 0.40754 0.51989 0.0
C1157 C -0.00127 0.43629 0.53373 0.0
C1158 C -0.0005 0.40223 0.40499 0.0
C1159 C 0.9552 0.38437 0.55396 0.0
C1160 C 0.94104 0.44555 0.46339 0.0
C1161 C 0.92275 0.43225 0.50029 0.0
C1162 C 0.94812 0.4273 0.43659 0.0
C1163 C 0.94284 0.39861 0.45339 0.0
C1164 C 0.91549 0.3824 0.47753 0.0
C1165 C 0.90673 0.39975 0.50386 0.0
C1166 C 0.96295 0.43954 0.39304 0.0
C1167 C 0.89868 0.34778 0.47974 0.0
H1168 H 0.04129 0.45578 0.44098 0.0
H1169 H 0.00056 0.443 0.56764 0.0
H1170 H 0.97637 0.38524 0.39253 0.0
H1171 H 0.01142 0.42119 0.38101 0.0
H1172 H 0.01335 0.3906 0.40784 0.0
H1173 H 0.93858 0.39057 0.56799 0.0
H1174 H 0.9429 0.36063 0.54063 0.0
H1175 H 0.96988 0.38478 0.58126 0.0
H1176 H 0.94883 0.46936 0.45488 0.0
H1177 H 0.88805 0.38807 0.52701 0.0
H1178 H 0.95924 0.42052 0.37074 0.0
H1179 H -0.012 0.45562 0.39722 0.0
H1180 H 0.95324 0.45295 0.37781 0.0
H1181 H 0.87888 0.33862 0.45697 0.0
H1182 H 0.88931 0.33956 0.51291 0.0
H1183 H 0.91375 0.3384 0.46981 0.0
C1184 C 0.40799 0.97765 0.82607 0.0
C1185 C 0.41799 0.95783 0.81003 0.0
C1186 C 0.40683 -0.00096 0.79797 0.0
C1187 C 0.42205 0.00449 0.75726 0.0
C1188 C 0.41841 0.97746 0.73758 0.0
C1189 C 0.4205 0.95583 0.76465 0.0
C1190 C 0.39104 0.01635 0.81251 0.0
C1191 C 0.41686 0.97421 0.689 0.0
C1192 C 0.47806 0.06502 0.81943 0.0
C1193 C 0.49432 0.04949 0.82902 0.0
C1194 C 0.45989 0.05748 0.78176 0.0
C1195 C 0.45467 0.03135 0.75747 0.0
C1196 C 0.47876 0.02411 0.75901 0.0
C1197 C 0.49609 0.03051 0.79701 0.0
C1198 C 0.44633 0.07698 0.76786 0.0
C1199 C 0.48722 0.011 0.72064 0.0
H1200 H 0.4006 0.97611 0.85963 0.0
H1201 H 0.42395 0.93795 0.75064 0.0
H1202 H 0.40541 0.03386 0.83718 0.0
H1203 H 0.38646 0.02758 0.78466 0.0
H1204 H 0.36879 0.00026 0.82849 0.0
H1205 H 0.39234 0.95965 0.67969 0.0
H1206 H 0.42572 -0.00312 0.67262 0.0
H1207 H 0.42966 0.96271 0.67755 0.0
H1208 H 0.48093 0.08409 0.83958 0.0
H1209 H 0.51289 0.02293 0.79995 0.0
H1210 H 0.43565 0.08212 0.796 0.0
H1211 H 0.4293 0.06594 0.74123 0.0
H1212 H 0.46523 0.09943 0.75579 0.0
H1213 H 0.4773 0.98577 0.72448 0.0
H1214 H 0.51255 0.02085 0.719 0.0
H1215 H 0.4794 0.01613 0.68963 0.0
C1216 C 0.52898 0.55024 0.23744 0.0
C1217 C 0.51137 0.54627 0.20046 0.0
C1218 C 0.56087 0.56227 0.23395 0.0
C1219 C 0.57475 0.5657 0.19203 0.0
C1220 C 0.55745 0.56611 0.15551 0.0
C1221 C 0.52592 0.55493 0.15991 0.0
C1222 C 0.57948 0.57347 0.27514 0.0
C1223 C 0.57165 0.57926 1.11184 0.0
C1224 C 0.58566 0.51366 0.22614 0.0
C1225 C 0.5681 0.49714 0.18959 0.0
C1226 C 0.60665 0.5454 0.22125 0.0
C1227 C 0.60183 0.56017 0.18562 0.0
C1228 C 0.59911 0.54335 0.14738 0.0
C1229 C 0.57783 0.51154 0.14855 0.0
C1230 C 0.63495 0.56149 0.24906 0.0
C1231 C 0.62196 0.55695 1.11079 0.0
H1232 H 0.51842 0.54652 0.26933 0.0
H1233 H 0.51283 0.55465 0.13161 0.0
H1234 H 0.57847 0.55375 0.29308 0.0
H1235 H 0.60363 0.59144 0.26836 0.0
H1236 H 0.56959 0.58386 0.29689 0.0
H1237 H 0.56201 0.59331 1.09849 0.0
H1238 H 0.59688 0.59419 1.11412 0.0
H1239 H 0.56574 0.56018 1.08844 0.0
H1240 H 0.58595 0.50159 0.25526 0.0
H1241 H 0.57237 0.49783 0.11907 0.0
H1242 H 0.62885 0.55603 0.28394 0.0
H1243 H 0.64718 0.58685 0.24387 0.0
H1244 H 0.6508 0.55281 0.24039 0.0
H1245 H 0.63591 0.54533 1.1093 0.0
H1246 H 0.63772 0.58208 1.11548 0.0
H1247 H 0.60978 0.55258 1.07919 0.0
C1248 C 0.30565 0.96652 0.65178 0.0
C1249 C 0.28839 0.96093 0.69003 0.0
C1250 C 0.30333 0.98381 0.61791 0.0
C1251 C 0.28223 -0.00519 0.62153 0.0
C1252 C 0.26316 0.98753 0.65873 0.0
C1253 C 0.26686 0.9711 0.69296 0.0
C1254 C 0.32433 0.99108 0.57885 0.0
C1255 C 0.23964 -0.00218 0.66351 0.0
C1256 C 0.31515 0.0644 0.55129 0.0
C1257 C 0.30539 0.04989 0.51071 0.0
C1258 C 0.30413 0.04739 0.58976 0.0
C1259 C 0.28234 0.01555 0.58709 0.0
C1260 C 0.26782 0.00269 0.54697 0.0
C1261 C 0.27987 0.01995 0.50882 0.0
C1262 C 0.31933 0.0623 0.63225 0.0
C1263 C 0.24273 0.96941 0.54358 0.0
H1264 H 0.32151 0.95781 0.64852 0.0
H1265 H 0.25343 0.96702 0.72243 0.0
H1266 H 0.31043 0.98124 0.54898 0.0
H1267 H 0.33843 0.01643 0.57432 0.0
H1268 H 0.3402 0.98169 0.5821 0.0
H1269 H 0.21945 0.98074 0.68265 0.0
H1270 H 0.25009 0.01998 0.68155 0.0
H1271 H 0.23146 0.00119 0.63157 0.0
H1272 H 0.33395 0.08804 0.55282 0.0
H1273 H 0.27157 0.00869 0.47763 0.0
H1274 H 0.33588 0.05461 0.64138 0.0
H1275 H 0.30197 0.05522 0.65864 0.0
H1276 H 0.33208 0.08788 0.62999 0.0
H1277 H 0.25328 0.95448 0.54182 0.0
H1278 H 0.22862 0.96534 0.51386 0.0
H1279 H 0.22747 0.96242 0.57261 0.0
C1280 C 0.32893 0.40693 1.06257 0.0
C1281 C 0.35492 0.4048 1.05063 0.0
C1282 C 0.30665 0.403 1.03158 0.0
C1283 C 0.31068 0.39705 0.98776 0.0
C1284 C 0.33726 0.39562 0.97542 0.0
C1285 C 0.35897 0.3995 1.00697 0.0
C1286 C 0.27857 0.40452 1.04576 0.0
C1287 C 0.34239 0.38889 0.92904 0.0
C1288 C 0.25721 0.35594 0.89657 0.0
C1289 C 0.26633 0.38078 0.86789 0.0
C1290 C 0.2674 0.36111 0.93985 0.0
C1291 C 0.28741 0.39171 0.954 0.0
C1292 C 0.29148 0.41668 0.92774 0.0
C1293 C 0.28072 0.41087 0.88486 0.0
C1294 C 0.26051 0.33378 0.96812 0.0
C1295 C 0.31069 0.4499 0.94179 0.0
H1296 H 0.32578 0.41118 1.09628 0.0
H1297 H 0.37856 0.3971 0.99763 0.0
H1298 H 0.2772 0.42292 1.02752 0.0
H1299 H 0.25743 0.38241 1.03809 0.0
H1300 H 0.27877 0.40916 1.08117 0.0
H1301 H 0.36593 0.39246 0.92394 0.0
H1302 H 0.32554 0.36458 0.92088 0.0
H1303 H 0.33886 0.40382 0.90583 0.0
H1304 H 0.24497 0.33254 0.88408 0.0
H1305 H 0.28728 0.43038 0.86342 0.0
H1306 H 0.25865 0.33873 1.00287 0.0
H1307 H 0.27954 0.32857 0.96507 0.0
H1308 H 0.2388 0.31295 0.95803 0.0
H1309 H 0.31847 0.45266 0.97603 0.0
H1310 H 0.29714 0.46179 0.93757 0.0
H1311 H 0.33112 0.46179 0.92022 0.0
C1312 C 0.95253 0.29522 0.22194 0.0
C1313 C 0.9233 0.27423 0.20588 0.0
C1314 C 0.95883 0.29713 0.26645 0.0
C1315 C 0.93542 0.2771 0.29567 0.0
C1316 C 0.90625 0.25475 0.27947 0.0
C1317 C 0.90036 0.25389 0.23465 0.0
C1318 C -0.00978 0.32159 0.28231 0.0
C1319 C 0.88095 0.23257 0.30939 0.0
C1320 C 0.97561 0.2828 0.40054 0.0
C1321 C 0.97496 0.30798 0.41955 0.0
C1322 C 0.95882 0.26904 0.3626 0.0
C1323 C 0.94175 0.28137 0.34305 0.0
C1324 C 0.93753 0.30372 0.36562 0.0
C1325 C 0.95385 0.31638 0.40421 0.0
C1326 C 0.96251 0.24406 0.34068 0.0
C1327 C 0.91939 0.31744 0.34616 0.0
H1328 H 0.97009 0.31133 0.19982 0.0
H1329 H 0.87771 0.23768 0.22215 0.0
H1330 H -0.01224 0.33762 0.30483 0.0
H1331 H 0.0014 0.31074 0.30061 0.0
H1332 H 0.00574 0.33529 0.25521 0.0
H1333 H 0.86317 0.21215 0.29142 0.0
H1334 H 0.8903 0.22458 0.33589 0.0
H1335 H 0.86954 0.2444 0.32465 0.0
H1336 H -0.00884 0.27553 0.41325 0.0
H1337 H 0.95255 0.33519 0.41956 0.0
H1338 H 0.9803 0.25447 0.3148 0.0
H1339 H 0.94065 0.22676 0.32513 0.0
H1340 H 0.96991 0.23215 0.36411 0.0
H1341 H 0.93318 0.33373 0.31983 0.0
H1342 H 0.91387 0.33031 0.37076 0.0
H1343 H 0.89763 0.29926 0.33157 0.0
C1344 C 0.57388 0.93591 0.72024 0.0
C1345 C 0.59498 0.94335 0.75424 0.0
C1346 C 0.5746 0.91931 0.68406 0.0
C1347 C 0.59694 0.90983 0.68194 0.0
C1348 C 0.61554 0.91371 0.71859 0.0
C1349 C 0.61449 0.93068 0.75439 0.0
C1350 C 0.55384 0.91523 0.64602 0.0
C1351 C 0.6386 0.90267 0.7186 0.0
C1352 C 0.586 0.86988 0.57458 0.0
C1353 C 0.6026 0.89573 0.54765 0.0
C1354 C 0.58695 0.87307 0.62005 0.0
C1355 C 0.60487 0.90271 0.63853 0.0
C1356 C 0.62529 0.92772 0.61187 0.0
C1357 C 0.62385 0.92394 0.5667 0.0
C1358 C 0.56617 0.84547 0.64764 0.0
C1359 C 0.64552 0.95965 0.63035 0.0
H1360 H 0.55871 0.94555 0.71977 0.0
H1361 H 0.63031 0.93565 0.78122 0.0
H1362 H 0.56781 0.93 0.61852 0.0
H1363 H 0.54195 0.89097 0.6346 0.0
H1364 H 0.53619 0.92163 0.65456 0.0
H1365 H 0.6425 0.89713 0.75215 0.0
H1366 H 0.631 0.88201 0.6977 0.0
H1367 H 0.66097 0.92125 0.70592 0.0
H1368 H 0.57037 0.84768 0.56016 0.0
H1369 H 0.63701 0.9441 0.5465 0.0
H1370 H 0.54365 0.84441 0.65195 0.0
H1371 H 0.57616 0.84704 0.68037 0.0
H1372 H 0.56183 0.82368 0.63177 0.0
H1373 H 0.63099 0.96965 0.64022 0.0
H1374 H 0.66283 0.97542 0.60632 0.0
H1375 H 0.65785 0.95865 0.65965 0.0
C1376 C 0.6864 0.69546 1.05931 0.0
C1377 C 0.66192 0.66693 1.07248 0.0
C1378 C 0.70346 0.69767 1.02184 0.0
C1379 C 0.69484 0.67088 0.9966 0.0
C1380 C 0.67181 0.64168 1.0121 0.0
C1381 C 0.6557 0.6401 1.05014 0.0
C1382 C 0.72872 0.72897 1.00727 0.0
C1383 C 0.66164 0.61249 0.98609 0.0
C1384 C 0.69085 0.67331 0.87467 0.0
C1385 C 0.71212 0.66431 0.86218 0.0
C1386 C 0.68661 0.67776 0.91848 0.0
C1387 C 0.70459 0.67371 0.95048 0.0
C1388 C 0.7283 0.66774 0.93772 0.0
C1389 C 0.73149 0.66261 0.89356 0.0
C1390 C 0.6608 0.6838 0.93063 0.0
C1391 C 0.74872 0.66451 0.97078 0.0
H1392 H 0.69103 0.71616 1.07688 0.0
H1393 H 0.63645 0.61819 1.06025 0.0
H1394 H 0.74807 0.72737 0.99229 0.0
H1395 H 0.71955 0.73831 0.98239 0.0
H1396 H 0.73768 0.74555 1.03484 0.0
H1397 H 0.64602 0.59146 1.00502 0.0
H1398 H 0.64924 0.61304 0.95651 0.0
H1399 H 0.68181 0.61069 0.97526 0.0
H1400 H 0.6756 0.67429 0.85053 0.0
H1401 H 0.74811 0.65584 0.88379 0.0
H1402 H 0.66933 0.70394 0.95275 0.0
H1403 H 0.64249 0.66352 0.94821 0.0
H1404 H 0.65032 0.68824 0.9017 0.0
H1405 H 0.75441 0.68118 0.99789 0.0
H1406 H 0.77047 0.6681 0.95572 0.0
H1407 H 0.73649 0.64094 0.9848 0.0
C1408 C 0.0485 0.71287 0.20239 0.0
C1409 C 0.07826 0.7204 0.18899 0.0
C1410 C 0.04041 0.7085 0.24651 0.0
C1411 C 0.06254 0.7114 0.2775 0.0
C1412 C 0.09373 0.72429 0.26493 0.0
C1413 C 0.10133 0.72889 0.22057 0.0
C1414 C 0.00708 0.69602 0.25891 0.0
C1415 C 0.11828 0.72917 0.2974 0.0
C1416 C 0.03101 0.68556 0.39157 0.0
C1417 C 0.02111 0.65391 0.38906 0.0
C1418 C 0.04635 0.70535 0.35648 0.0
C1419 C 0.05158 0.69301 0.31806 0.0
C1420 C 0.04323 0.66144 0.31643 0.0
C1421 C 0.02817 0.64235 0.35196 0.0
C1422 C 0.0552 0.73887 0.3599 0.0
C1423 C 0.04858 0.64728 0.27617 0.0
H1424 H 0.03047 0.70669 0.1785 0.0
H1425 H 0.12472 0.73606 0.2105 0.0
H1426 H -0.00414 0.67066 0.26344 0.0
H1427 H 0.00518 0.70623 0.29002 0.0
H1428 H -0.0057 0.7007 0.23335 0.0
H1429 H 0.14162 0.74618 0.28533 0.0
H1430 H 0.11423 0.73721 0.32913 0.0
H1431 H 0.11766 0.70694 0.30298 0.0
H1432 H 0.026 0.69473 0.4205 0.0
H1433 H 0.02034 0.61791 0.34958 0.0
H1434 H 0.03606 0.74178 0.34732 0.0
H1435 H 0.07613 0.75391 0.34051 0.0
H1436 H 0.05929 0.74679 0.3943 0.0
H1437 H 0.03643 0.65006 0.24792 0.0
H1438 H 0.04023 0.6223 0.28031 0.0
H1439 H 0.07352 0.65916 0.26824 0.0
C1440 C 0.52812 0.11446 0.50479 0.0
C1441 C 0.49747 0.10634 0.4929 0.0
C1442 C 0.5386 0.11569 0.54925 0.0
C1443 C 0.51839 0.1076 0.58642 0.0
C1444 C 0.48725 0.09942 0.57469 0.0
C1445 C 0.47767 0.09944 0.52972 0.0
C1446 C 0.57225 0.12616 0.55534 0.0
C1447 C 0.46295 0.08956 0.60958 0.0
C1448 C 0.55033 0.08706 0.69509 0.0
C1449 C 0.5522 0.10797 0.72815 0.0
C1450 C 0.53894 0.08608 0.65117 0.0
C1451 C 0.5296 0.10749 0.63594 0.0
C1452 C 0.53195 0.12905 0.66917 0.0
C1453 C 0.54225 0.1286 0.71343 0.0
C1454 C 0.53692 0.06122 0.62128 0.0
C1455 C 0.52394 0.15363 0.65876 0.0
H1456 H 0.54467 0.12009 0.47868 0.0
H1457 H 0.45388 0.09285 0.52349 0.0
H1458 H 0.58035 0.13408 0.58897 0.0
H1459 H 0.57623 0.10679 0.54724 0.0
H1460 H 0.58653 0.14529 0.53255 0.0
H1461 H 0.43986 0.07267 0.5967 0.0
H1462 H 0.46802 0.07914 0.63796 0.0
H1463 H 0.46174 0.11002 0.62084 0.0
H1464 H 0.55754 0.07063 0.70367 0.0
H1465 H 0.54287 0.14521 0.73669 0.0
H1466 H 0.55971 0.06929 0.60578 0.0
H1467 H 0.51945 0.05523 0.59542 0.0
H1468 H 0.53118 0.03996 0.63977 0.0
H1469 H 0.54012 0.1756 0.67531 0.0
H1470 H 0.50053 0.14632 0.6715 0.0
H1471 H 0.52444 0.1581 0.62335 0.0
C1472 C 0.41717 0.54177 0.84536 0.0
C1473 C 0.39997 0.51021 0.83245 0.0
C1474 C 0.42531 0.55217 0.89004 0.0
C1475 C 0.41776 0.53115 0.92591 0.0
C1476 C 0.4007 0.4992 0.91316 0.0
C1477 C 0.39154 0.48939 0.86821 0.0
C1478 C 0.44257 0.58646 0.89802 0.0
C1479 C 0.39367 0.47491 0.94712 0.0
C1480 C 0.46811 0.56657 1.03509 0.0
C1481 C 0.44708 0.56416 1.06827 0.0
C1482 C 0.45911 0.55561 0.99068 0.0
C1483 C 0.42782 0.54227 0.97549 0.0
C1484 C 0.40653 0.54017 1.00889 0.0
C1485 C 0.41606 0.55025 1.05346 0.0
C1486 C 0.48397 0.55831 0.96018 0.0
C1487 C 0.37294 0.52744 0.99849 0.0
H1488 H 0.42459 0.55903 0.81995 0.0
H1489 H 0.37882 0.46494 0.86096 0.0
H1490 H 0.43896 0.59245 0.93148 0.0
H1491 H 0.46755 0.5953 0.89307 0.0
H1492 H 0.43546 0.59853 0.87443 0.0
H1493 H 0.41477 0.48067 0.96597 0.0
H1494 H 0.3763 0.47398 0.97038 0.0
H1495 H 0.38482 0.45181 0.93241 0.0
H1496 H 0.49214 0.57665 1.04402 0.0
H1497 H 0.39868 0.54757 1.0769 0.0
H1498 H 0.4952 0.58142 0.94473 0.0
H1499 H 0.47471 0.54054 0.93418 0.0
H1500 H 0.50204 0.55619 0.97815 0.0
H1501 H 0.36811 0.52535 0.96308 0.0
H1502 H 0.3647 0.5424 1.01298 0.0
H1503 H 0.35933 0.50435 1.0137 0.0
C1504 C 0.86707 0.4122 0.16791 0.0
C1505 C 0.87735 0.39122 0.15586 0.0
C1506 C 0.86593 0.42166 0.2124 0.0
C1507 C 0.87561 0.41088 0.24915 0.0
C1508 C 0.88578 0.38943 0.23743 0.0
C1509 C 0.88621 0.37992 0.19248 0.0
C1510 C 0.85421 0.44378 0.22001 0.0
C1511 C 0.89755 0.37712 0.27269 0.0
C1512 C 0.89923 0.46084 0.36035 0.0
C1513 C 0.87435 0.4447 0.39022 0.0
C1514 C 0.9002 0.45016 0.31649 0.0
C1515 C 0.87538 0.42225 0.29844 0.0
C1516 C 0.85008 0.40593 0.3283 0.0
C1517 C 0.85007 0.41672 0.37252 0.0
C1518 C 0.92879 0.4688 0.28952 0.0
C1519 C 0.82226 0.37664 0.31324 0.0
H1520 H 0.85998 0.42187 0.1419 0.0
H1521 H 0.89459 0.36409 0.18601 0.0
H1522 H 0.83542 0.43414 0.24457 0.0
H1523 H 0.87301 0.4658 0.23324 0.0
H1524 H 0.84546 0.44879 0.18972 0.0
H1525 H 0.91774 0.39659 0.28875 0.0
H1526 H 0.8796 0.36536 0.29802 0.0
H1527 H 0.90448 0.36067 0.2599 0.0
H1528 H 0.9188 0.48211 0.37166 0.0
H1529 H 0.83036 0.40308 0.39328 0.0
H1530 H 0.92272 0.47404 0.25718 0.0
H1531 H 0.94034 0.45506 0.28385 0.0
H1532 H 0.94539 0.4908 0.3056 0.0
H1533 H 0.81302 0.38111 0.28301 0.0
H1534 H 0.8037 0.36694 0.33818 0.0
H1535 H 0.82895 0.35912 0.30531 0.0
C1536 C 0.41324 0.86229 0.49941 0.0
C1537 C 0.44457 0.87426 0.48674 0.0
C1538 C 0.40283 0.86033 0.54416 0.0
C1539 C 0.42378 0.87227 0.58051 0.0
C1540 C 0.4555 0.88386 0.56792 0.0
C1541 C 0.46506 0.88408 0.52289 0.0
C1542 C 0.36848 0.84418 0.55136 0.0
C1543 C 0.48027 0.89681 0.60211 0.0
C1544 C 0.39032 0.89082 0.68996 0.0
C1545 C 0.3933 0.87321 0.72413 0.0
C1546 C 0.40019 0.8911 0.64504 0.0
C1547 C 0.41285 0.87226 0.63029 0.0
C1548 C 0.41465 0.85345 0.66445 0.0
C1549 C 0.40591 0.85476 0.70933 0.0
C1550 C 0.39847 0.91335 0.61371 0.0
C1551 C 0.42535 0.83078 0.65457 0.0
H1552 H 0.39608 0.85379 0.47385 0.0
H1553 H 0.4893 0.89317 0.51599 0.0
H1554 H 0.3618 0.84022 0.58619 0.0
H1555 H 0.35908 0.85796 0.53644 0.0
H1556 H 0.35741 0.82152 0.53446 0.0
H1557 H 0.50308 0.91317 0.58788 0.0
H1558 H 0.4749 0.90877 0.62824 0.0
H1559 H 0.48226 0.87769 0.6169 0.0
H1560 H 0.38087 0.90544 0.69854 0.0
H1561 H 0.40876 0.84047 0.73323 0.0
H1562 H 0.38981 0.90278 0.58149 0.0
H1563 H 0.42199 0.93325 0.60864 0.0
H1564 H 0.38328 0.92197 0.62596 0.0
H1565 H 0.40976 0.8083 0.67039 0.0
H1566 H 0.44857 0.83937 0.66881 0.0
H1567 H 0.42625 0.82674 0.61924 0.0
C1568 C 0.60727 0.50815 0.86532 0.0
C1569 C 0.5957 0.48773 0.82899 0.0
C1570 C 0.59865 0.49838 0.91043 0.0
C1571 C 0.57753 0.46683 0.92239 0.0
C1572 C 0.56631 0.44616 0.88588 0.0
C1573 C 0.57528 0.45649 0.84131 0.0
C1574 C 0.61167 0.52252 0.94565 0.0
C1575 C 0.54401 0.41248 0.89381 0.0
C1576 C 0.57253 0.43441 1.04437 0.0
C1577 C 0.54578 0.43261 1.06375 0.0
C1578 C 0.58285 0.44525 1.00012 0.0
C1579 C 0.56688 0.45548 0.97176 0.0
C1580 C 0.53999 0.45389 0.9913 0.0
C1581 C 0.53014 0.44285 1.03548 0.0
C1582 C 0.61134 0.44563 0.98347 0.0
C1583 C 0.52142 0.46447 0.96553 0.0
H1584 H 0.62272 0.53235 0.85856 0.0
H1585 H 0.56547 0.43958 0.81544 0.0
H1586 H 0.59272 0.52448 0.9613 0.0
H1587 H 0.62258 0.51557 0.97127 0.0
H1588 H 0.62897 0.54553 0.93287 0.0
H1589 H 0.55414 0.40299 0.91696 0.0
H1590 H 0.52265 0.40976 0.90897 0.0
H1591 H 0.53778 0.39868 0.86336 0.0
H1592 H 0.58573 0.42716 1.06395 0.0
H1593 H 0.50972 0.44246 1.0481 0.0
H1594 H 0.62876 0.46942 0.97368 0.0
H1595 H 0.60562 0.43087 0.95405 0.0
H1596 H 0.62167 0.43732 1.00815 0.0
H1597 H 0.49948 0.45892 0.98202 0.0
H1598 H 0.5161 0.45375 0.93272 0.0
H1599 H 0.5352 0.48983 0.96099 0.0
C1600 C 0.08768 0.50492 0.35699 0.0
C1601 C 0.10759 0.52514 0.38985 0.0
C1602 C 0.08581 0.51459 0.31289 0.0
C1603 C 0.10535 0.54572 0.29742 0.0
C1604 C 0.12594 0.56608 0.33044 0.0
C1605 C 0.12619 0.55604 0.37487 0.0
C1606 C 0.0618 0.49061 0.28336 0.0
C1607 C 0.1485 0.59922 0.31947 0.0
C1608 C 0.11261 0.55499 0.16651 0.0
C1609 C 0.10208 0.57574 0.15473 0.0
C1610 C 0.11434 0.54595 0.21092 0.0
C1611 C 0.10453 0.55659 0.24799 0.0
C1612 C 0.09399 0.57779 0.23632 0.0
C1613 C 0.09335 0.5871 0.19146 0.0
C1614 C 0.12708 0.52457 0.21721 0.0
C1615 C 0.08223 0.59069 0.27094 0.0
H1616 H 0.07242 0.48107 0.36603 0.0
H1617 H 0.14185 0.57286 0.39808 0.0
H1618 H 0.05577 0.50088 0.25579 0.0
H1619 H 0.07056 0.47575 0.27023 0.0
H1620 H 0.04043 0.47542 0.30193 0.0
H1621 H 0.16998 0.60782 0.33876 0.0
H1622 H 0.15465 0.60243 0.2844 0.0
H1623 H 0.13813 0.61363 0.32806 0.0
H1624 H 0.11967 0.54527 0.14038 0.0
H1625 H 0.08486 0.60287 0.18526 0.0
H1626 H 0.10837 0.50047 0.21185 0.0
H1627 H 0.13671 0.52639 0.25025 0.0
H1628 H 0.14543 0.52944 0.19292 0.0
H1629 H 0.07616 0.57731 0.30167 0.0
H1630 H 0.06156 0.59111 0.2591 0.0
H1631 H 0.10011 0.61491 0.27779 0.0
loop_
_geom_bond_atom_site_label_1
_geom_bond_atom_site_label_2
_geom_bond_distance
_geom_bond_site_symmetry_2
_ccdc_geom_bond_type
C0 Eu1 2.835 . S
C0 C2 1.500 . S
C0 O20 1.257 . S
C0 O21 1.260 . S
Eu1 C0 2.835 . S
Eu1 O20 2.473 . S
Eu1 O21 2.480 . S
Eu1 O22 2.430 . S
Eu1 O23 2.670 . S
Eu1 O24 2.394 . S
Eu1 O29 2.355 . S
Eu1 O31 2.374 . S
C2 C0 1.500 . S
C2 C3 1.377 . S
C2 C7 1.377 . S
C3 C2 1.377 . S
C3 C4 1.395 . S
C3 H32 0.931 . S
C4 C3 1.395 . S
C4 C5 1.383 . S
C4 H33 0.931 . S
C5 C4 1.383 . S
C5 C6 1.394 . S
C6 C5 1.394 . S
C6 C7 1.378 . S
C6 H34 0.931 . S
C7 C2 1.377 . S
C7 C6 1.378 . S
C7 H35 0.931 . S
C8 O22 1.259 . S
C8 O23 1.270 . S
C9 O24 1.251 . S
C9 O25 1.251 . S
C10 Eu11 2.835 . S
C10 C12 1.500 . S
C10 O26 1.257 . S
C10 O27 1.260 . S
Eu11 C10 2.835 . S
Eu11 O23 2.355 . S
Eu11 O25 2.374 . S
Eu11 O26 2.473 . S
Eu11 O27 2.480 . S
Eu11 O28 2.430 . S
Eu11 O29 2.670 . S
Eu11 O30 2.394 . S
C12 C10 1.500 . S
C12 C13 1.377 . S
C12 C17 1.377 . S
C13 C12 1.377 . S
C13 C14 1.395 . S
C13 H36 0.931 . S
C14 C13 1.395 . S
C14 C15 1.383 . S
C14 H37 0.931 . S
C15 C14 1.383 . S
C15 C16 1.394 . S
C16 C15 1.394 . S
C16 C17 1.378 . S
C16 H38 0.931 . S
C17 C12 1.377 . S
C17 C16 1.378 . S
C17 H39 0.931 . S
C18 O28 1.259 . S
C18 O29 1.270 . S
C19 O30 1.251 . S
C19 O31 1.251 . S
O20 C0 1.257 . S
O20 Eu1 2.473 . S
O21 C0 1.260 . S
O21 Eu1 2.480 . S
O22 Eu1 2.430 . S
O22 C8 1.259 . S
O23 Eu1 2.670 . S
O23 C8 1.270 . S
O23 Eu11 2.355 . S
O24 Eu1 2.394 . S
O24 C9 1.251 . S
O25 C9 1.251 . S
O25 Eu11 2.374 . S
O26 C10 1.257 . S
O26 Eu11 2.473 . S
O27 C10 1.260 . S
O27 Eu11 2.480 . S
O28 Eu11 2.430 . S
O28 C18 1.259 . S
O29 Eu1 2.355 . S
O29 Eu11 2.670 . S
O29 C18 1.270 . S
O30 Eu11 2.394 . S
O30 C19 1.251 . S
O31 Eu1 2.374 . S
O31 C19 1.251 . S
H32 C3 0.931 . S
H33 C4 0.931 . S
H34 C6 0.931 . S
H35 C7 0.931 . S
H36 C13 0.931 . S
H37 C14 0.931 . S
H38 C16 0.931 . S
H39 C17 0.931 . S
C40 Eu41 2.835 . S
C40 C42 1.500 . S
C40 O60 1.257 . S
C40 O61 1.260 . S
Eu41 C40 2.835 . S
Eu41 O60 2.473 . S
Eu41 O61 2.480 . S
Eu41 O62 2.430 . S
Eu41 O63 2.670 . S
Eu41 O64 2.394 . S
Eu41 O69 2.355 . S
Eu41 O71 2.374 . S
C42 C40 1.500 . S
C42 C43 1.377 . S
C42 C47 1.377 . S
C43 C42 1.377 . S
C43 C44 1.395 . S
C43 H72 0.931 . S
C44 C43 1.395 . S
C44 C45 1.383 . S
C44 H73 0.931 . S
C45 C44 1.383 . S
C45 C46 1.394 . S
C46 C45 1.394 . S
C46 C47 1.378 . S
C46 H74 0.931 . S
C47 C42 1.377 . S
C47 C46 1.378 . S
C47 H75 0.931 . S
C48 O62 1.259 . S
C48 O63 1.270 . S
C49 O64 1.251 . S
C49 O65 1.251 . S
C50 Eu51 2.835 . S
C50 C52 1.500 . S
C50 O66 1.257 . S
C50 O67 1.260 . S
Eu51 C50 2.835 . S
Eu51 O63 2.355 . S
Eu51 O65 2.374 . S
Eu51 O66 2.473 . S
Eu51 O67 2.480 . S
Eu51 O68 2.430 . S
Eu51 O69 2.670 . S
Eu51 O70 2.394 . S
C52 C50 1.500 . S
C52 C53 1.377 . S
C52 C57 1.377 . S
C53 C52 1.377 . S
C53 C54 1.395 . S
C53 H76 0.931 . S
C54 C53 1.395 . S
C54 C55 1.383 . S
C54 H77 0.931 . S
C55 C54 1.383 . S
C55 C56 1.394 . S
C56 C55 1.394 . S
C56 C57 1.378 . S
C56 H78 0.931 . S
C57 C52 1.377 . S
C57 C56 1.378 . S
C57 H79 0.931 . S
C58 O68 1.259 . S
C58 O69 1.270 . S
C59 O70 1.251 . S
C59 O71 1.251 . S
O60 C40 1.257 . S
O60 Eu41 2.473 . S
O61 C40 1.260 . S
O61 Eu41 2.480 . S
O62 Eu41 2.430 . S
O62 C48 1.259 . S
O63 Eu41 2.670 . S
O63 C48 1.270 . S
O63 Eu51 2.355 . S
O64 Eu41 2.394 . S
O64 C49 1.251 . S
O65 C49 1.251 . S
O65 Eu51 2.374 . S
O66 C50 1.257 . S
O66 Eu51 2.473 . S
O67 C50 1.260 . S
O67 Eu51 2.480 . S
O68 Eu51 2.430 . S
O68 C58 1.259 . S
O69 Eu41 2.355 . S
O69 Eu51 2.670 . S
O69 C58 1.270 . S
O70 Eu51 2.394 . S
O70 C59 1.251 . S
O71 Eu41 2.374 . S
O71 C59 1.251 . S
H72 C43 0.931 . S
H73 C44 0.931 . S
H74 C46 0.931 . S
H75 C47 0.931 . S
H76 C53 0.931 . S
H77 C54 0.931 . S
H78 C56 0.931 . S
H79 C57 0.931 . S
C80 Eu81 2.835 . S
C80 C82 1.500 . S
C80 O100 1.257 . S
C80 O101 1.260 . S
Eu81 C80 2.835 . S
Eu81 O100 2.473 . S
Eu81 O101 2.480 . S
Eu81 O102 2.430 . S
Eu81 O103 2.670 . S
Eu81 O104 2.394 . S
Eu81 O109 2.355 . S
Eu81 O111 2.374 . S
C82 C80 1.500 . S
C82 C83 1.377 . S
C82 C87 1.377 . S
C83 C82 1.377 . S
C83 C84 1.395 . S
C83 H112 0.931 . S
C84 C83 1.395 . S
C84 C85 1.383 . S
C84 H113 0.931 . S
C85 C84 1.383 . S
C85 C86 1.394 . S
C86 C85 1.394 . S
C86 C87 1.378 . S
C86 H114 0.931 . S
C87 C82 1.377 . S
C87 C86 1.378 . S
C87 H115 0.931 . S
C88 O102 1.259 . S
C88 O103 1.270 . S
C89 O104 1.251 . S
C89 O105 1.251 . S
C90 Eu91 2.835 1_554 S
C90 C92 1.500 . S
C90 O106 1.257 1_554 S
C90 O107 1.260 1_554 S
Eu91 C90 2.835 1_556 S
Eu91 O103 2.355 . S
Eu91 O105 2.374 . S
Eu91 O106 2.473 . S
Eu91 O107 2.480 . S
Eu91 O108 2.430 . S
Eu91 O109 2.670 . S
Eu91 O110 2.394 . S
C92 C90 1.500 . S
C92 C93 1.377 . S
C92 C97 1.377 . S
C93 C92 1.377 . S
C93 C94 1.395 . S
C93 H116 0.931 . S
C94 C93 1.395 . S
C94 C95 1.383 . S
C94 H117 0.931 . S
C95 C94 1.383 . S
C95 C96 1.394 . S
C96 C95 1.394 . S
C96 C97 1.378 . S
C96 H118 0.931 . S
C97 C92 1.377 . S
C97 C96 1.378 . S
C97 H119 0.931 . S
C98 O108 1.259 . S
C98 O109 1.270 . S
C99 O110 1.251 . S
C99 O111 1.251 . S
O100 C80 1.257 . S
O100 Eu81 2.473 . S
O101 C80 1.260 . S
O101 Eu81 2.480 . S
O102 Eu81 2.430 . S
O102 C88 1.259 . S
O103 Eu81 2.670 . S
O103 C88 1.270 . S
O103 Eu91 2.355 . S
O104 Eu81 2.394 . S
O104 C89 1.251 . S
O105 C89 1.251 . S
O105 Eu91 2.374 . S
O106 C90 1.257 1_556 S
O106 Eu91 2.473 . S
O107 C90 1.260 1_556 S
O107 Eu91 2.480 . S
O108 Eu91 2.430 . S
O108 C98 1.259 . S
O109 Eu81 2.355 . S
O109 Eu91 2.670 . S
O109 C98 1.270 . S
O110 Eu91 2.394 . S
O110 C99 1.251 . S
O111 Eu81 2.374 . S
O111 C99 1.251 . S
H112 C83 0.931 . S
H113 C84 0.931 . S
H114 C86 0.931 . S
H115 C87 0.931 . S
H116 C93 0.931 . S
H117 C94 0.931 . S
H118 C96 0.931 . S
H119 C97 0.931 . S
C120 Eu121 2.835 . S
C120 C122 1.500 . S
C120 O140 1.257 . S
C120 O141 1.260 . S
Eu121 C120 2.835 . S
Eu121 O140 2.473 . S
Eu121 O141 2.480 . S
Eu121 O142 2.430 . S
Eu121 O143 2.670 . S
Eu121 O144 2.394 . S
Eu121 O149 2.355 . S
Eu121 O151 2.374 . S
C122 C120 1.500 . S
C122 C123 1.377 . S
C122 C127 1.377 . S
C123 C122 1.377 . S
C123 C124 1.395 . S
C123 H152 0.931 . S
C124 C123 1.395 . S
C124 C125 1.383 . S
C124 H153 0.931 . S
C125 C124 1.383 . S
C125 C126 1.394 . S
C126 C125 1.394 . S
C126 C127 1.378 . S
C126 H154 0.931 . S
C127 C122 1.377 . S
C127 C126 1.378 . S
C127 H155 0.931 . S
C128 O142 1.259 . S
C128 O143 1.270 . S
C129 O144 1.251 . S
C129 O145 1.251 . S
C130 Eu131 2.835 . S
C130 C132 1.500 . S
C130 O146 1.257 . S
C130 O147 1.260 . S
Eu131 C130 2.835 . S
Eu131 O143 2.355 . S
Eu131 O145 2.374 . S
Eu131 O146 2.473 . S
Eu131 O147 2.480 . S
Eu131 O148 2.430 . S
Eu131 O149 2.670 . S
Eu131 O150 2.394 . S
C132 C130 1.500 . S
C132 C133 1.377 . S
C132 C137 1.377 . S
C133 C132 1.377 . S
C133 C134 1.395 . S
C133 H156 0.931 . S
C134 C133 1.395 . S
C134 C135 1.383 . S
C134 H157 0.931 . S
C135 C134 1.383 . S
C135 C136 1.394 . S
C136 C135 1.394 . S
C136 C137 1.378 . S
C136 H158 0.931 . S
C137 C132 1.377 . S
C137 C136 1.378 . S
C137 H159 0.931 . S
C138 O148 1.259 . S
C138 O149 1.270 . S
C139 O150 1.251 . S
C139 O151 1.251 . S
O140 C120 1.257 . S
O140 Eu121 2.473 . S
O141 C120 1.260 . S
O141 Eu121 2.480 . S
O142 Eu121 2.430 . S
O142 C128 1.259 . S
O143 Eu121 2.670 . S
O143 C128 1.270 . S
O143 Eu131 2.355 . S
O144 Eu121 2.394 . S
O144 C129 1.251 . S
O145 C129 1.251 . S
O145 Eu131 2.374 . S
O146 C130 1.257 . S
O146 Eu131 2.473 . S
O147 C130 1.260 . S
O147 Eu131 2.480 . S
O148 Eu131 2.430 . S
O148 C138 1.259 . S
O149 Eu121 2.355 . S
O149 Eu131 2.670 . S
O149 C138 1.270 . S
O150 Eu131 2.394 . S
O150 C139 1.251 . S
O151 Eu121 2.374 . S
O151 C139 1.251 . S
H152 C123 0.931 . S
H153 C124 0.931 . S
H154 C126 0.931 . S
H155 C127 0.931 . S
H156 C133 0.931 . S
H157 C134 0.931 . S
H158 C136 0.931 . S
H159 C137 0.931 . S
C160 Eu161 2.835 . S
C160 C162 1.500 . S
C160 O180 1.257 . S
C160 O181 1.260 . S
Eu161 C160 2.835 . S
Eu161 O180 2.473 . S
Eu161 O181 2.480 . S
Eu161 O182 2.430 . S
Eu161 O183 2.670 . S
Eu161 O184 2.394 . S
Eu161 O189 2.355 . S
Eu161 O191 2.374 . S
C162 C160 1.500 . S
C162 C163 1.377 . S
C162 C167 1.377 . S
C163 C162 1.377 . S
C163 C164 1.395 . S
C163 H192 0.931 . S
C164 C163 1.395 . S
C164 C165 1.383 . S
C164 H193 0.931 . S
C165 C164 1.383 . S
C165 C166 1.394 . S
C166 C165 1.394 . S
C166 C167 1.378 . S
C166 H194 0.931 . S
C167 C162 1.377 . S
C167 C166 1.378 . S
C167 H195 0.931 . S
C168 O182 1.259 . S
C168 O183 1.270 . S
C169 O184 1.251 . S
C169 O185 1.251 . S
C170 Eu171 2.835 . S
C170 C172 1.500 . S
C170 O186 1.257 . S
C170 O187 1.260 . S
Eu171 C170 2.835 . S
Eu171 O183 2.355 . S
Eu171 O185 2.374 . S
Eu171 O186 2.473 . S
Eu171 O187 2.480 . S
Eu171 O188 2.430 . S
Eu171 O189 2.670 . S
Eu171 O190 2.394 . S
C172 C170 1.500 . S
C172 C173 1.377 . S
C172 C177 1.377 . S
C173 C172 1.377 . S
C173 C174 1.395 . S
C173 H196 0.931 . S
C174 C173 1.395 . S
C174 C175 1.383 . S
C174 H197 0.931 . S
C175 C174 1.383 . S
C175 C176 1.394 . S
C176 C175 1.394 . S
C176 C177 1.378 . S
C176 H198 0.931 . S
C177 C172 1.377 . S
C177 C176 1.378 . S
C177 H199 0.931 . S
C178 O188 1.259 . S
C178 O189 1.270 . S
C179 O190 1.251 . S
C179 O191 1.251 . S
O180 C160 1.257 . S
O180 Eu161 2.473 . S
O181 C160 1.260 . S
O181 Eu161 2.480 . S
O182 Eu161 2.430 . S
O182 C168 1.259 . S
O183 Eu161 2.670 . S
O183 C168 1.270 . S
O183 Eu171 2.355 . S
O184 Eu161 2.394 . S
O184 C169 1.251 . S
O185 C169 1.251 . S
O185 Eu171 2.374 . S
O186 C170 1.257 . S
O186 Eu171 2.473 . S
O187 C170 1.260 . S
O187 Eu171 2.480 . S
O188 Eu171 2.430 . S
O188 C178 1.259 . S
O189 Eu161 2.355 . S
O189 Eu171 2.670 . S
O189 C178 1.270 . S
O190 Eu171 2.394 . S
O190 C179 1.251 . S
O191 Eu161 2.374 . S
O191 C179 1.251 . S
H192 C163 0.931 . S
H193 C164 0.931 . S
H194 C166 0.931 . S
H195 C167 0.931 . S
H196 C173 0.931 . S
H197 C174 0.931 . S
H198 C176 0.931 . S
H199 C177 0.931 . S
C200 Eu201 2.835 . S
C200 C202 1.500 . S
C200 O220 1.257 . S
C200 O221 1.260 . S
Eu201 C200 2.835 . S
Eu201 O220 2.473 . S
Eu201 O221 2.480 . S
Eu201 O222 2.430 . S
Eu201 O223 2.670 . S
Eu201 O224 2.394 . S
Eu201 O229 2.355 . S
Eu201 O231 2.374 . S
C202 C200 1.500 . S
C202 C203 1.377 . S
C202 C207 1.377 . S
C203 C202 1.377 . S
C203 C204 1.395 . S
C203 H232 0.931 . S
C204 C203 1.395 . S
C204 C205 1.383 . S
C204 H233 0.931 . S
C205 C204 1.383 . S
C205 C206 1.394 . S
C206 C205 1.394 . S
C206 C207 1.378 . S
C206 H234 0.931 . S
C207 C202 1.377 . S
C207 C206 1.378 . S
C207 H235 0.931 . S
C208 O222 1.259 . S
C208 O223 1.270 . S
C209 O224 1.251 . S
C209 O225 1.251 . S
C210 Eu211 2.835 1_554 S
C210 C212 1.500 . S
C210 O226 1.257 1_554 S
C210 O227 1.260 1_554 S
Eu211 C210 2.835 1_556 S
Eu211 O223 2.355 . S
Eu211 O225 2.374 . S
Eu211 O226 2.473 . S
Eu211 O227 2.480 . S
Eu211 O228 2.430 . S
Eu211 O229 2.670 . S
Eu211 O230 2.394 . S
C212 C210 1.500 . S
C212 C213 1.377 . S
C212 C217 1.377 . S
C213 C212 1.377 . S
C213 C214 1.395 . S
C213 H236 0.931 . S
C214 C213 1.395 . S
C214 C215 1.383 . S
C214 H237 0.931 . S
C215 C214 1.383 . S
C215 C216 1.394 . S
C216 C215 1.394 . S
C216 C217 1.378 . S
C216 H238 0.931 . S
C217 C212 1.377 . S
C217 C216 1.378 . S
C217 H239 0.931 . S
C218 O228 1.259 . S
C218 O229 1.270 . S
C219 O230 1.251 . S
C219 O231 1.251 . S
O220 C200 1.257 . S
O220 Eu201 2.473 . S
O221 C200 1.260 . S
O221 Eu201 2.480 . S
O222 Eu201 2.430 . S
O222 C208 1.259 . S
O223 Eu201 2.670 . S
O223 C208 1.270 . S
O223 Eu211 2.355 . S
O224 Eu201 2.394 . S
O224 C209 1.251 . S
O225 C209 1.251 . S
O225 Eu211 2.374 . S
O226 C210 1.257 1_556 S
O226 Eu211 2.473 . S
O227 C210 1.260 1_556 S
O227 Eu211 2.480 . S
O228 Eu211 2.430 . S
O228 C218 1.259 . S
O229 Eu201 2.355 . S
O229 Eu211 2.670 . S
O229 C218 1.270 . S
O230 Eu211 2.394 . S
O230 C219 1.251 . S
O231 Eu201 2.374 . S
O231 C219 1.251 . S
H232 C203 0.931 . S
H233 C204 0.931 . S
H234 C206 0.931 . S
H235 C207 0.931 . S
H236 C213 0.931 . S
H237 C214 0.931 . S
H238 C216 0.931 . S
H239 C217 0.931 . S
C240 Eu241 2.835 . S
C240 C242 1.500 . S
C240 O260 1.257 . S
C240 O261 1.260 . S
Eu241 C240 2.835 . S
Eu241 O260 2.473 . S
Eu241 O261 2.480 . S
Eu241 O262 2.430 . S
Eu241 O263 2.670 . S
Eu241 O264 2.394 . S
Eu241 O269 2.355 . S
Eu241 O271 2.374 . S
C242 C240 1.500 . S
C242 C243 1.377 . S
C242 C247 1.377 . S
C243 C242 1.377 . S
C243 C244 1.395 . S
C243 H272 0.931 . S
C244 C243 1.395 . S
C244 C245 1.383 . S
C244 H273 0.931 . S
C245 C244 1.383 . S
C245 C246 1.394 . S
C246 C245 1.394 . S
C246 C247 1.378 . S
C246 H274 0.931 . S
C247 C242 1.377 . S
C247 C246 1.378 . S
C247 H275 0.931 . S
C248 O262 1.259 . S
C248 O263 1.270 . S
C249 O264 1.251 . S
C249 O265 1.251 . S
C250 Eu251 2.835 . S
C250 C252 1.500 . S
C250 O266 1.257 . S
C250 O267 1.260 . S
Eu251 C250 2.835 . S
Eu251 O263 2.355 . S
Eu251 O265 2.374 . S
Eu251 O266 2.473 . S
Eu251 O267 2.480 . S
Eu251 O268 2.430 . S
Eu251 O269 2.670 . S
Eu251 O270 2.394 . S
C252 C250 1.500 . S
C252 C253 1.377 . S
C252 C257 1.377 . S
C253 C252 1.377 . S
C253 C254 1.395 . S
C253 H276 0.931 . S
C254 C253 1.395 . S
C254 C255 1.383 . S
C254 H277 0.931 . S
C255 C254 1.383 . S
C255 C256 1.394 . S
C256 C255 1.394 . S
C256 C257 1.378 . S
C256 H278 0.931 . S
C257 C252 1.377 . S
C257 C256 1.378 . S
C257 H279 0.931 . S
C258 O268 1.259 . S
C258 O269 1.270 . S
C259 O270 1.251 . S
C259 O271 1.251 . S
O260 C240 1.257 . S
O260 Eu241 2.473 . S
O261 C240 1.260 . S
O261 Eu241 2.480 . S
O262 Eu241 2.430 . S
O262 C248 1.259 . S
O263 Eu241 2.670 . S
O263 C248 1.270 . S
O263 Eu251 2.355 . S
O264 Eu241 2.394 . S
O264 C249 1.251 . S
O265 C249 1.251 . S
O265 Eu251 2.374 . S
O266 C250 1.257 . S
O266 Eu251 2.473 . S
O267 C250 1.260 . S
O267 Eu251 2.480 . S
O268 Eu251 2.430 . S
O268 C258 1.259 . S
O269 Eu241 2.355 . S
O269 Eu251 2.670 . S
O269 C258 1.270 . S
O270 Eu251 2.394 . S
O270 C259 1.251 . S
O271 Eu241 2.374 . S
O271 C259 1.251 . S
H272 C243 0.931 . S
H273 C244 0.931 . S
H274 C246 0.931 . S
H275 C247 0.931 . S
H276 C253 0.931 . S
H277 C254 0.931 . S
H278 C256 0.931 . S
H279 C257 0.931 . S
C280 Eu281 2.835 . S
C280 C282 1.500 . S
C280 O300 1.257 . S
C280 O301 1.260 . S
Eu281 C280 2.835 . S
Eu281 O300 2.473 . S
Eu281 O301 2.480 . S
Eu281 O302 2.430 . S
Eu281 O303 2.670 . S
Eu281 O304 2.394 . S
Eu281 O309 2.355 . S
Eu281 O311 2.374 . S
C282 C280 1.500 . S
C282 C283 1.377 . S
C282 C287 1.377 . S
C283 C282 1.377 . S
C283 C284 1.395 . S
C283 H312 0.931 . S
C284 C283 1.395 . S
C284 C285 1.383 . S
C284 H313 0.931 . S
C285 C284 1.383 . S
C285 C286 1.394 . S
C286 C285 1.394 . S
C286 C287 1.378 . S
C286 H314 0.931 . S
C287 C282 1.377 . S
C287 C286 1.378 . S
C287 H315 0.931 . S
C288 O302 1.259 . S
C288 O303 1.270 . S
C289 O304 1.251 . S
C289 O305 1.251 . S
C290 Eu291 2.835 . S
C290 C292 1.500 . S
C290 O306 1.257 . S
C290 O307 1.260 . S
Eu291 C290 2.835 . S
Eu291 O303 2.355 . S
Eu291 O305 2.374 . S
Eu291 O306 2.473 . S
Eu291 O307 2.480 . S
Eu291 O308 2.430 . S
Eu291 O309 2.670 . S
Eu291 O310 2.394 . S
C292 C290 1.500 . S
C292 C293 1.377 . S
C292 C297 1.377 . S
C293 C292 1.377 . S
C293 C294 1.395 . S
C293 H316 0.931 . S
C294 C293 1.395 . S
C294 C295 1.383 . S
C294 H317 0.931 . S
C295 C294 1.383 . S
C295 C296 1.394 . S
C296 C295 1.394 . S
C296 C297 1.378 . S
C296 H318 0.931 . S
C297 C292 1.377 . S
C297 C296 1.378 . S
C297 H319 0.931 . S
C298 O308 1.259 . S
C298 O309 1.270 . S
C299 O310 1.251 . S
C299 O311 1.251 . S
O300 C280 1.257 . S
O300 Eu281 2.473 . S
O301 C280 1.260 . S
O301 Eu281 2.480 . S
O302 Eu281 2.430 . S
O302 C288 1.259 . S
O303 Eu281 2.670 . S
O303 C288 1.270 . S
O303 Eu291 2.355 . S
O304 Eu281 2.394 . S
O304 C289 1.251 . S
O305 C289 1.251 . S
O305 Eu291 2.374 . S
O306 C290 1.257 . S
O306 Eu291 2.473 . S
O307 C290 1.260 . S
O307 Eu291 2.480 . S
O308 Eu291 2.430 . S
O308 C298 1.259 . S
O309 Eu281 2.355 . S
O309 Eu291 2.670 . S
O309 C298 1.270 . S
O310 Eu291 2.394 . S
O310 C299 1.251 . S
O311 Eu281 2.374 . S
O311 C299 1.251 . S
H312 C283 0.931 . S
H313 C284 0.931 . S
H314 C286 0.931 . S
H315 C287 0.931 . S
H316 C293 0.931 . S
H317 C294 0.931 . S
H318 C296 0.931 . S
H319 C297 0.931 . S
C320 Eu321 2.835 . S
C320 C322 1.500 . S
C320 O340 1.257 . S
C320 O341 1.260 . S
Eu321 C320 2.835 . S
Eu321 O340 2.473 . S
Eu321 O341 2.480 . S
Eu321 O342 2.430 . S
Eu321 O343 2.670 . S
Eu321 O344 2.394 . S
Eu321 O349 2.355 . S
Eu321 O351 2.374 . S
C322 C320 1.500 . S
C322 C323 1.377 . S
C322 C327 1.377 . S
C323 C322 1.377 . S
C323 C324 1.395 . S
C323 H352 0.931 . S
C324 C323 1.395 . S
C324 C325 1.383 . S
C324 H353 0.931 . S
C325 C324 1.383 . S
C325 C326 1.394 . S
C326 C325 1.394 . S
C326 C327 1.378 . S
C326 H354 0.931 . S
C327 C322 1.377 . S
C327 C326 1.378 . S
C327 H355 0.931 . S
C328 O342 1.259 . S
C328 O343 1.270 . S
C329 O344 1.251 . S
C329 O345 1.251 . S
C330 Eu331 2.835 1_556 S
C330 C332 1.500 . S
C330 O346 1.257 1_556 S
C330 O347 1.260 1_556 S
Eu331 C330 2.835 1_554 S
Eu331 O343 2.355 . S
Eu331 O345 2.374 . S
Eu331 O346 2.473 . S
Eu331 O347 2.480 . S
Eu331 O348 2.430 . S
Eu331 O349 2.670 . S
Eu331 O350 2.394 . S
C332 C330 1.500 . S
C332 C333 1.377 . S
C332 C337 1.377 . S
C333 C332 1.377 . S
C333 C334 1.395 . S
C333 H356 0.931 . S
C334 C333 1.395 . S
C334 C335 1.383 . S
C334 H357 0.931 . S
C335 C334 1.383 . S
C335 C336 1.394 . S
C336 C335 1.394 . S
C336 C337 1.378 . S
C336 H358 0.931 . S
C337 C332 1.377 . S
C337 C336 1.378 . S
C337 H359 0.931 . S
C338 O348 1.259 . S
C338 O349 1.270 . S
C339 O350 1.251 . S
C339 O351 1.251 . S
O340 C320 1.257 . S
O340 Eu321 2.473 . S
O341 C320 1.260 . S
O341 Eu321 2.480 . S
O342 Eu321 2.430 . S
O342 C328 1.259 . S
O343 Eu321 2.670 . S
O343 C328 1.270 . S
O343 Eu331 2.355 . S
O344 Eu321 2.394 . S
O344 C329 1.251 . S
O345 C329 1.251 . S
O345 Eu331 2.374 . S
O346 C330 1.257 1_554 S
O346 Eu331 2.473 . S
O347 C330 1.260 1_554 S
O347 Eu331 2.480 . S
O348 Eu331 2.430 . S
O348 C338 1.259 . S
O349 Eu321 2.355 . S
O349 Eu331 2.670 . S
O349 C338 1.270 . S
O350 Eu331 2.394 . S
O350 C339 1.251 . S
O351 Eu321 2.374 . S
O351 C339 1.251 . S
H352 C323 0.931 . S
H353 C324 0.931 . S
H354 C326 0.931 . S
H355 C327 0.931 . S
H356 C333 0.931 . S
H357 C334 0.931 . S
H358 C336 0.931 . S
H359 C337 0.931 . S
C360 Eu361 2.835 . S
C360 C362 1.500 . S
C360 O380 1.257 . S
C360 O381 1.260 . S
Eu361 C360 2.835 . S
Eu361 O380 2.473 . S
Eu361 O381 2.480 . S
Eu361 O382 2.430 . S
Eu361 O383 2.670 . S
Eu361 O384 2.394 . S
Eu361 O389 2.355 . S
Eu361 O391 2.374 . S
C362 C360 1.500 . S
C362 C363 1.377 . S
C362 C367 1.377 . S
C363 C362 1.377 . S
C363 C364 1.395 . S
C363 H392 0.931 . S
C364 C363 1.395 . S
C364 C365 1.383 . S
C364 H393 0.931 . S
C365 C364 1.383 . S
C365 C366 1.394 . S
C366 C365 1.394 . S
C366 C367 1.378 . S
C366 H394 0.931 . S
C367 C362 1.377 . S
C367 C366 1.378 . S
C367 H395 0.931 . S
C368 O382 1.259 . S
C368 O383 1.270 . S
C369 O384 1.251 . S
C369 O385 1.251 . S
C370 Eu371 2.835 . S
C370 C372 1.500 . S
C370 O386 1.257 . S
C370 O387 1.260 . S
Eu371 C370 2.835 . S
Eu371 O383 2.355 . S
Eu371 O385 2.374 . S
Eu371 O386 2.473 . S
Eu371 O387 2.480 . S
Eu371 O388 2.430 . S
Eu371 O389 2.670 . S
Eu371 O390 2.394 . S
C372 C370 1.500 . S
C372 C373 1.377 . S
C372 C377 1.377 . S
C373 C372 1.377 . S
C373 C374 1.395 . S
C373 H396 0.931 . S
C374 C373 1.395 . S
C374 C375 1.383 . S
C374 H397 0.931 . S
C375 C374 1.383 . S
C375 C376 1.394 . S
C376 C375 1.394 . S
C376 C377 1.378 . S
C376 H398 0.931 . S
C377 C372 1.377 . S
C377 C376 1.378 . S
C377 H399 0.931 . S
C378 O388 1.259 . S
C378 O389 1.270 . S
C379 O390 1.251 . S
C379 O391 1.251 . S
O380 C360 1.257 . S
O380 Eu361 2.473 . S
O381 C360 1.260 . S
O381 Eu361 2.480 . S
O382 Eu361 2.430 . S
O382 C368 1.259 . S
O383 Eu361 2.670 . S
O383 C368 1.270 . S
O383 Eu371 2.355 . S
O384 Eu361 2.394 . S
O384 C369 1.251 . S
O385 C369 1.251 . S
O385 Eu371 2.374 . S
O386 C370 1.257 . S
O386 Eu371 2.473 . S
O387 C370 1.260 . S
O387 Eu371 2.480 . S
O388 Eu371 2.430 . S
O388 C378 1.259 . S
O389 Eu361 2.355 . S
O389 Eu371 2.670 . S
O389 C378 1.270 . S
O390 Eu371 2.394 . S
O390 C379 1.251 . S
O391 Eu361 2.374 . S
O391 C379 1.251 . S
H392 C363 0.931 . S
H393 C364 0.931 . S
H394 C366 0.931 . S
H395 C367 0.931 . S
H396 C373 0.931 . S
H397 C374 0.931 . S
H398 C376 0.931 . S
H399 C377 0.931 . S
C400 Eu401 2.835 . S
C400 C402 1.500 . S
C400 O420 1.257 . S
C400 O421 1.260 . S
Eu401 C400 2.835 . S
Eu401 O420 2.473 . S
Eu401 O421 2.480 . S
Eu401 O422 2.430 . S
Eu401 O423 2.670 . S
Eu401 O424 2.394 . S
Eu401 O429 2.355 . S
Eu401 O431 2.374 . S
C402 C400 1.500 . S
C402 C403 1.377 . S
C402 C407 1.377 . S
C403 C402 1.377 . S
C403 C404 1.395 . S
C403 H432 0.931 . S
C404 C403 1.395 . S
C404 C405 1.383 . S
C404 H433 0.931 . S
C405 C404 1.383 . S
C405 C406 1.394 . S
C406 C405 1.394 . S
C406 C407 1.378 . S
C406 H434 0.931 . S
C407 C402 1.377 . S
C407 C406 1.378 . S
C407 H435 0.931 . S
C408 O422 1.259 . S
C408 O423 1.270 . S
C409 O424 1.251 . S
C409 O425 1.251 . S
C410 Eu411 2.835 . S
C410 C412 1.500 . S
C410 O426 1.257 . S
C410 O427 1.260 . S
Eu411 C410 2.835 . S
Eu411 O423 2.355 . S
Eu411 O425 2.374 . S
Eu411 O426 2.473 . S
Eu411 O427 2.480 . S
Eu411 O428 2.430 . S
Eu411 O429 2.670 . S
Eu411 O430 2.394 . S
C412 C410 1.500 . S
C412 C413 1.377 . S
C412 C417 1.377 . S
C413 C412 1.377 . S
C413 C414 1.395 . S
C413 H436 0.931 . S
C414 C413 1.395 . S
C414 C415 1.383 . S
C414 H437 0.931 . S
C415 C414 1.383 . S
C415 C416 1.394 . S
C416 C415 1.394 . S
C416 C417 1.378 . S
C416 H438 0.931 . S
C417 C412 1.377 . S
C417 C416 1.378 . S
C417 H439 0.931 . S
C418 O428 1.259 . S
C418 O429 1.270 . S
C419 O430 1.251 . S
C419 O431 1.251 . S
O420 C400 1.257 . S
O420 Eu401 2.473 . S
O421 C400 1.260 . S
O421 Eu401 2.480 . S
O422 Eu401 2.430 . S
O422 C408 1.259 . S
O423 Eu401 2.670 . S
O423 C408 1.270 . S
O423 Eu411 2.355 . S
O424 Eu401 2.394 . S
O424 C409 1.251 . S
O425 C409 1.251 . S
O425 Eu411 2.374 . S
O426 C410 1.257 . S
O426 Eu411 2.473 . S
O427 C410 1.260 . S
O427 Eu411 2.480 . S
O428 Eu411 2.430 . S
O428 C418 1.259 . S
O429 Eu401 2.355 . S
O429 Eu411 2.670 . S
O429 C418 1.270 . S
O430 Eu411 2.394 . S
O430 C419 1.251 . S
O431 Eu401 2.374 . S
O431 C419 1.251 . S
H432 C403 0.931 . S
H433 C404 0.931 . S
H434 C406 0.931 . S
H435 C407 0.931 . S
H436 C413 0.931 . S
H437 C414 0.931 . S
H438 C416 0.931 . S
H439 C417 0.931 . S
C440 Eu441 2.835 . S
C440 C442 1.500 . S
C440 O460 1.257 . S
C440 O461 1.260 . S
Eu441 C440 2.835 . S
Eu441 O460 2.473 . S
Eu441 O461 2.480 . S
Eu441 O462 2.430 . S
Eu441 O463 2.670 . S
Eu441 O464 2.394 . S
Eu441 O469 2.355 . S
Eu441 O471 2.374 . S
C442 C440 1.500 . S
C442 C443 1.377 . S
C442 C447 1.377 . S
C443 C442 1.377 . S
C443 C444 1.395 . S
C443 H472 0.931 . S
C444 C443 1.395 . S
C444 C445 1.383 . S
C444 H473 0.931 . S
C445 C444 1.383 . S
C445 C446 1.394 . S
C446 C445 1.394 . S
C446 C447 1.378 . S
C446 H474 0.931 . S
C447 C442 1.377 . S
C447 C446 1.378 . S
C447 H475 0.931 . S
C448 O462 1.259 . S
C448 O463 1.270 . S
C449 O464 1.251 . S
C449 O465 1.251 . S
C450 Eu451 2.835 1_556 S
C450 C452 1.500 . S
C450 O466 1.257 1_556 S
C450 O467 1.260 1_556 S
Eu451 C450 2.835 1_554 S
Eu451 O463 2.355 . S
Eu451 O465 2.374 . S
Eu451 O466 2.473 . S
Eu451 O467 2.480 . S
Eu451 O468 2.430 . S
Eu451 O469 2.670 . S
Eu451 O470 2.394 . S
C452 C450 1.500 . S
C452 C453 1.377 . S
C452 C457 1.377 . S
C453 C452 1.377 . S
C453 C454 1.395 . S
C453 H476 0.931 . S
C454 C453 1.395 . S
C454 C455 1.383 . S
C454 H477 0.931 . S
C455 C454 1.383 . S
C455 C456 1.394 . S
C456 C455 1.394 . S
C456 C457 1.378 . S
C456 H478 0.931 . S
C457 C452 1.377 . S
C457 C456 1.378 . S
C457 H479 0.931 . S
C458 O468 1.259 . S
C458 O469 1.270 . S
C459 O470 1.251 . S
C459 O471 1.251 . S
O460 C440 1.257 . S
O460 Eu441 2.473 . S
O461 C440 1.260 . S
O461 Eu441 2.480 . S
O462 Eu441 2.430 . S
O462 C448 1.259 . S
O463 Eu441 2.670 . S
O463 C448 1.270 . S
O463 Eu451 2.355 . S
O464 Eu441 2.394 . S
O464 C449 1.251 . S
O465 C449 1.251 . S
O465 Eu451 2.374 . S
O466 C450 1.257 1_554 S
O466 Eu451 2.473 . S
O467 C450 1.260 1_554 S
O467 Eu451 2.480 . S
O468 Eu451 2.430 . S
O468 C458 1.259 . S
O469 Eu441 2.355 . S
O469 Eu451 2.670 . S
O469 C458 1.270 . S
O470 Eu451 2.394 . S
O470 C459 1.251 . S
O471 Eu441 2.374 . S
O471 C459 1.251 . S
H472 C443 0.931 . S
H473 C444 0.931 . S
H474 C446 0.931 . S
H475 C447 0.931 . S
H476 C453 0.931 . S
H477 C454 0.931 . S
H478 C456 0.931 . S
H479 C457 0.931 . S
C480 C481 1.391 . S
C480 C482 1.394 . S
C480 H496 0.931 . S
C481 C480 1.391 . S
C481 C485 1.376 . S
C482 C480 1.394 . S
C482 C483 1.369 . S
C482 C486 1.531 . S
C483 C482 1.369 . S
C483 C484 1.410 . S
C483 C491 1.503 . S
C484 C483 1.410 . S
C484 C485 1.392 . S
C484 C487 1.511 . S
C485 C481 1.376 . S
C485 C484 1.392 . S
C485 H497 0.929 . S
C486 C482 1.531 . S
C486 H498 0.960 . S
C486 H499 0.962 . S
C486 H500 0.960 . S
C487 C484 1.511 . S
C487 H501 0.961 . S
C487 H502 0.961 . S
C487 H503 0.961 . S
C488 C489 1.370 . S
C488 C490 1.363 . S
C488 H504 0.931 . S
C489 C488 1.370 . S
C489 C493 1.408 . S
C490 C488 1.363 . S
C490 C491 1.370 . S
C490 C494 1.524 . S
C491 C483 1.503 . S
C491 C490 1.370 . S
C491 C492 1.403 . S
C492 C491 1.403 . S
C492 C493 1.404 . S
C492 C495 1.539 . S
C493 C489 1.408 . S
C493 C492 1.404 . S
C493 H505 0.930 . S
C494 C490 1.524 . S
C494 H506 0.956 . S
C494 H507 0.961 . S
C494 H508 0.961 . S
C495 C492 1.539 . S
C495 H509 0.958 . S
C495 H510 0.961 . S
C495 H511 0.960 . S
H496 C480 0.931 . S
H497 C485 0.929 . S
H498 C486 0.960 . S
H499 C486 0.962 . S
H500 C486 0.960 . S
H501 C487 0.961 . S
H502 C487 0.961 . S
H503 C487 0.961 . S
H504 C488 0.931 . S
H505 C493 0.930 . S
H506 C494 0.956 . S
H507 C494 0.961 . S
H508 C494 0.961 . S
H509 C495 0.958 . S
H510 C495 0.961 . S
H511 C495 0.960 . S
C512 C513 1.391 . S
C512 C514 1.394 . S
C512 H528 0.931 . S
C513 C512 1.391 . S
C513 C517 1.376 . S
C514 C512 1.394 . S
C514 C515 1.369 . S
C514 C518 1.531 . S
C515 C514 1.369 . S
C515 C516 1.410 . S
C515 C523 1.503 . S
C516 C515 1.410 . S
C516 C517 1.392 . S
C516 C519 1.511 . S
C517 C513 1.376 . S
C517 C516 1.392 . S
C517 H529 0.929 . S
C518 C514 1.531 . S
C518 H530 0.960 . S
C518 H531 0.962 . S
C518 H532 0.960 . S
C519 C516 1.511 . S
C519 H533 0.961 . S
C519 H534 0.961 . S
C519 H535 0.961 . S
C520 C521 1.370 . S
C520 C522 1.363 . S
C520 H536 0.931 . S
C521 C520 1.370 . S
C521 C525 1.408 . S
C522 C520 1.363 . S
C522 C523 1.370 . S
C522 C526 1.524 . S
C523 C515 1.503 . S
C523 C522 1.370 . S
C523 C524 1.403 . S
C524 C523 1.403 . S
C524 C525 1.404 . S
C524 C527 1.539 . S
C525 C521 1.408 . S
C525 C524 1.404 . S
C525 H537 0.930 . S
C526 C522 1.524 . S
C526 H538 0.956 . S
C526 H539 0.961 . S
C526 H540 0.961 . S
C527 C524 1.539 . S
C527 H541 0.958 . S
C527 H542 0.961 . S
C527 H543 0.960 . S
H528 C512 0.931 . S
H529 C517 0.929 . S
H530 C518 0.960 . S
H531 C518 0.962 . S
H532 C518 0.960 . S
H533 C519 0.961 . S
H534 C519 0.961 . S
H535 C519 0.961 . S
H536 C520 0.931 . S
H537 C525 0.930 . S
H538 C526 0.956 . S
H539 C526 0.961 . S
H540 C526 0.961 . S
H541 C527 0.958 . S
H542 C527 0.961 . S
H543 C527 0.960 . S
C544 C545 1.391 . S
C544 C546 1.394 . S
C544 H560 0.931 . S
C545 C544 1.391 . S
C545 C549 1.376 . S
C546 C544 1.394 . S
C546 C547 1.369 . S
C546 C550 1.531 . S
C547 C546 1.369 . S
C547 C548 1.410 . S
C547 C555 1.503 . S
C548 C547 1.410 . S
C548 C549 1.392 . S
C548 C551 1.511 . S
C549 C545 1.376 . S
C549 C548 1.392 . S
C549 H561 0.929 . S
C550 C546 1.531 . S
C550 H562 0.960 . S
C550 H563 0.962 . S
C550 H564 0.960 . S
C551 C548 1.511 . S
C551 H565 0.961 . S
C551 H566 0.961 . S
C551 H567 0.961 . S
C552 C553 1.370 . S
C552 C554 1.363 . S
C552 H568 0.931 . S
C553 C552 1.370 . S
C553 C557 1.408 . S
C554 C552 1.363 . S
C554 C555 1.370 . S
C554 C558 1.524 . S
C555 C547 1.503 . S
C555 C554 1.370 . S
C555 C556 1.403 . S
C556 C555 1.403 . S
C556 C557 1.404 . S
C556 C559 1.539 . S
C557 C553 1.408 . S
C557 C556 1.404 . S
C557 H569 0.930 . S
C558 C554 1.524 . S
C558 H570 0.956 . S
C558 H571 0.961 . S
C558 H572 0.961 . S
C559 C556 1.539 . S
C559 H573 0.958 . S
C559 H574 0.961 . S
C559 H575 0.960 . S
H560 C544 0.931 . S
H561 C549 0.929 . S
H562 C550 0.960 . S
H563 C550 0.962 . S
H564 C550 0.960 . S
H565 C551 0.961 . S
H566 C551 0.961 . S
H567 C551 0.961 . S
H568 C552 0.931 . S
H569 C557 0.930 . S
H570 C558 0.956 . S
H571 C558 0.961 . S
H572 C558 0.961 . S
H573 C559 0.958 . S
H574 C559 0.961 . S
H575 C559 0.960 . S
C576 C577 1.391 . S
C576 C578 1.394 . S
C576 H592 0.931 . S
C577 C576 1.391 . S
C577 C581 1.376 . S
C578 C576 1.394 . S
C578 C579 1.369 . S
C578 C582 1.531 . S
C579 C578 1.369 . S
C579 C580 1.410 . S
C579 C587 1.503 . S
C580 C579 1.410 . S
C580 C581 1.392 . S
C580 C583 1.511 . S
C581 C577 1.376 . S
C581 C580 1.392 . S
C581 H593 0.929 . S
C582 C578 1.531 . S
C582 H594 0.960 . S
C582 H595 0.962 . S
C582 H596 0.960 . S
C583 C580 1.511 . S
C583 H597 0.961 . S
C583 H598 0.961 . S
C583 H599 0.961 . S
C584 C585 1.370 . S
C584 C586 1.363 . S
C584 H600 0.931 . S
C585 C584 1.370 . S
C585 C589 1.408 . S
C586 C584 1.363 . S
C586 C587 1.370 . S
C586 C590 1.524 . S
C587 C579 1.503 . S
C587 C586 1.370 . S
C587 C588 1.403 . S
C588 C587 1.403 . S
C588 C589 1.404 . S
C588 C591 1.539 . S
C589 C585 1.408 . S
C589 C588 1.404 . S
C589 H601 0.930 . S
C590 C586 1.524 . S
C590 H602 0.956 . S
C590 H603 0.961 . S
C590 H604 0.961 . S
C591 C588 1.539 . S
C591 H605 0.958 . S
C591 H606 0.961 . S
C591 H607 0.960 . S
H592 C576 0.931 . S
H593 C581 0.929 . S
H594 C582 0.960 . S
H595 C582 0.962 . S
H596 C582 0.960 . S
H597 C583 0.961 . S
H598 C583 0.961 . S
H599 C583 0.961 . S
H600 C584 0.931 . S
H601 C589 0.930 . S
H602 C590 0.956 . S
H603 C590 0.961 . S
H604 C590 0.961 . S
H605 C591 0.958 . S
H606 C591 0.961 . S
H607 C591 0.960 . S
C608 C609 1.391 . S
C608 C610 1.394 . S
C608 H624 0.931 . S
C609 C608 1.391 . S
C609 C613 1.376 . S
C610 C608 1.394 . S
C610 C611 1.369 . S
C610 C614 1.531 . S
C611 C610 1.369 . S
C611 C612 1.410 . S
C611 C619 1.503 . S
C612 C611 1.410 . S
C612 C613 1.392 . S
C612 C615 1.511 . S
C613 C609 1.376 . S
C613 C612 1.392 . S
C613 H625 0.929 . S
C614 C610 1.531 . S
C614 H626 0.960 . S
C614 H627 0.962 . S
C614 H628 0.960 . S
C615 C612 1.511 . S
C615 H629 0.961 . S
C615 H630 0.961 . S
C615 H631 0.961 . S
C616 C617 1.370 . S
C616 C618 1.363 . S
C616 H632 0.931 . S
C617 C616 1.370 . S
C617 C621 1.408 . S
C618 C616 1.363 . S
C618 C619 1.370 . S
C618 C622 1.524 . S
C619 C611 1.503 . S
C619 C618 1.370 . S
C619 C620 1.403 . S
C620 C619 1.403 . S
C620 C621 1.404 . S
C620 C623 1.539 . S
C621 C617 1.408 . S
C621 C620 1.404 . S
C621 H633 0.930 . S
C622 C618 1.524 . S
C622 H634 0.956 . S
C622 H635 0.961 . S
C622 H636 0.961 . S
C623 C620 1.539 . S
C623 H637 0.958 . S
C623 H638 0.961 . S
C623 H639 0.960 . S
H624 C608 0.931 . S
H625 C613 0.929 . S
H626 C614 0.960 . S
H627 C614 0.962 . S
H628 C614 0.960 . S
H629 C615 0.961 . S
H630 C615 0.961 . S
H631 C615 0.961 . S
H632 C616 0.931 . S
H633 C621 0.930 . S
H634 C622 0.956 . S
H635 C622 0.961 . S
H636 C622 0.961 . S
H637 C623 0.958 . S
H638 C623 0.961 . S
H639 C623 0.960 . S
C640 C641 1.391 . S
C640 C642 1.394 . S
C640 H656 0.931 . S
C641 C640 1.391 . S
C641 C645 1.376 . S
C642 C640 1.394 . S
C642 C643 1.369 . S
C642 C646 1.531 . S
C643 C642 1.369 . S
C643 C644 1.410 . S
C643 C651 1.503 . S
C644 C643 1.410 . S
C644 C645 1.392 . S
C644 C647 1.511 . S
C645 C641 1.376 . S
C645 C644 1.392 . S
C645 H657 0.929 . S
C646 C642 1.531 . S
C646 H658 0.960 . S
C646 H659 0.962 . S
C646 H660 0.960 . S
C647 C644 1.511 . S
C647 H661 0.961 . S
C647 H662 0.961 . S
C647 H663 0.961 . S
C648 C649 1.370 . S
C648 C650 1.363 . S
C648 H664 0.931 . S
C649 C648 1.370 . S
C649 C653 1.408 . S
C650 C648 1.363 . S
C650 C651 1.370 . S
C650 C654 1.524 . S
C651 C643 1.503 . S
C651 C650 1.370 . S
C651 C652 1.403 . S
C652 C651 1.403 . S
C652 C653 1.404 . S
C652 C655 1.539 . S
C653 C649 1.408 . S
C653 C652 1.404 . S
C653 H665 0.930 . S
C654 C650 1.524 . S
C654 H666 0.956 . S
C654 H667 0.961 . S
C654 H668 0.961 . S
C655 C652 1.539 . S
C655 H669 0.958 . S
C655 H670 0.961 . S
C655 H671 0.960 . S
H656 C640 0.931 . S
H657 C645 0.929 . S
H658 C646 0.960 . S
H659 C646 0.962 . S
H660 C646 0.960 . S
H661 C647 0.961 . S
H662 C647 0.961 . S
H663 C647 0.961 . S
H664 C648 0.931 . S
H665 C653 0.930 . S
H666 C654 0.956 . S
H667 C654 0.961 . S
H668 C654 0.961 . S
H669 C655 0.958 . S
H670 C655 0.961 . S
H671 C655 0.960 . S
C672 C673 1.391 . S
C672 C674 1.394 . S
C672 H688 0.931 . S
C673 C672 1.391 . S
C673 C677 1.376 . S
C674 C672 1.394 . S
C674 C675 1.369 . S
C674 C678 1.531 1_556 S
C675 C674 1.369 . S
C675 C676 1.410 . S
C675 C683 1.503 1_556 S
C676 C675 1.410 . S
C676 C677 1.392 . S
C676 C679 1.511 . S
C677 C673 1.376 . S
C677 C676 1.392 . S
C677 H689 0.929 . S
C678 C674 1.531 1_554 S
C678 H690 0.960 . S
C678 H691 0.962 . S
C678 H692 0.960 . S
C679 C676 1.511 . S
C679 H693 0.961 . S
C679 H694 0.961 . S
C679 H695 0.961 . S
C680 C681 1.370 . S
C680 C682 1.363 . S
C680 H696 0.931 . S
C681 C680 1.370 . S
C681 C685 1.408 . S
C682 C680 1.363 . S
C682 C683 1.370 . S
C682 C686 1.524 . S
C683 C675 1.503 1_554 S
C683 C682 1.370 . S
C683 C684 1.403 . S
C684 C683 1.403 . S
C684 C685 1.404 . S
C684 C687 1.539 . S
C685 C681 1.408 . S
C685 C684 1.404 . S
C685 H697 0.930 . S
C686 C682 1.524 . S
C686 H698 0.956 . S
C686 H699 0.961 1_554 S
C686 H700 0.961 . S
C687 C684 1.539 . S
C687 H701 0.958 . S
C687 H702 0.961 . S
C687 H703 0.960 1_554 S
H688 C672 0.931 . S
H689 C677 0.929 . S
H690 C678 0.960 . S
H691 C678 0.962 . S
H692 C678 0.960 . S
H693 C679 0.961 . S
H694 C679 0.961 . S
H695 C679 0.961 . S
H696 C680 0.931 . S
H697 C685 0.930 . S
H698 C686 0.956 . S
H699 C686 0.961 1_556 S
H700 C686 0.961 . S
H701 C687 0.958 . S
H702 C687 0.961 . S
H703 C687 0.960 1_556 S
C704 C705 1.391 . S
C704 C706 1.394 . S
C704 H720 0.931 . S
C705 C704 1.391 . S
C705 C709 1.376 . S
C706 C704 1.394 . S
C706 C707 1.369 . S
C706 C710 1.531 . S
C707 C706 1.369 . S
C707 C708 1.410 . S
C707 C715 1.503 . S
C708 C707 1.410 . S
C708 C709 1.392 . S
C708 C711 1.511 . S
C709 C705 1.376 . S
C709 C708 1.392 . S
C709 H721 0.929 . S
C710 C706 1.531 . S
C710 H722 0.960 . S
C710 H723 0.962 . S
C710 H724 0.960 . S
C711 C708 1.511 . S
C711 H725 0.961 . S
C711 H726 0.961 . S
C711 H727 0.961 . S
C712 C713 1.370 . S
C712 C714 1.363 . S
C712 H728 0.931 . S
C713 C712 1.370 . S
C713 C717 1.408 . S
C714 C712 1.363 . S
C714 C715 1.370 . S
C714 C718 1.524 . S
C715 C707 1.503 . S
C715 C714 1.370 . S
C715 C716 1.403 . S
C716 C715 1.403 . S
C716 C717 1.404 . S
C716 C719 1.539 . S
C717 C713 1.408 . S
C717 C716 1.404 . S
C717 H729 0.930 . S
C718 C714 1.524 . S
C718 H730 0.956 . S
C718 H731 0.961 . S
C718 H732 0.961 . S
C719 C716 1.539 . S
C719 H733 0.958 . S
C719 H734 0.961 . S
C719 H735 0.960 . S
H720 C704 0.931 . S
H721 C709 0.929 . S
H722 C710 0.960 . S
H723 C710 0.962 . S
H724 C710 0.960 . S
H725 C711 0.961 . S
H726 C711 0.961 . S
H727 C711 0.961 . S
H728 C712 0.931 . S
H729 C717 0.930 . S
H730 C718 0.956 . S
H731 C718 0.961 . S
H732 C718 0.961 . S
H733 C719 0.958 . S
H734 C719 0.961 . S
H735 C719 0.960 . S
C736 C737 1.391 . S
C736 C738 1.394 . S
C736 H752 0.931 . S
C737 C736 1.391 . S
C737 C741 1.376 . S
C738 C736 1.394 . S
C738 C739 1.369 . S
C738 C742 1.531 . S
C739 C738 1.369 . S
C739 C740 1.410 . S
C739 C747 1.503 . S
C740 C739 1.410 . S
C740 C741 1.392 . S
C740 C743 1.511 . S
C741 C737 1.376 . S
C741 C740 1.392 . S
C741 H753 0.929 . S
C742 C738 1.531 . S
C742 H754 0.960 . S
C742 H755 0.962 . S
C742 H756 0.960 . S
C743 C740 1.511 . S
C743 H757 0.961 . S
C743 H758 0.961 . S
C743 H759 0.961 . S
C744 C745 1.370 . S
C744 C746 1.363 . S
C744 H760 0.931 . S
C745 C744 1.370 . S
C745 C749 1.408 . S
C746 C744 1.363 . S
C746 C747 1.370 . S
C746 C750 1.524 . S
C747 C739 1.503 . S
C747 C746 1.370 . S
C747 C748 1.403 . S
C748 C747 1.403 . S
C748 C749 1.404 . S
C748 C751 1.539 . S
C749 C745 1.408 . S
C749 C748 1.404 . S
C749 H761 0.930 . S
C750 C746 1.524 . S
C750 H762 0.956 . S
C750 H763 0.961 . S
C750 H764 0.961 . S
C751 C748 1.539 . S
C751 H765 0.958 . S
C751 H766 0.961 . S
C751 H767 0.960 . S
H752 C736 0.931 . S
H753 C741 0.929 . S
H754 C742 0.960 . S
H755 C742 0.962 . S
H756 C742 0.960 . S
H757 C743 0.961 . S
H758 C743 0.961 . S
H759 C743 0.961 . S
H760 C744 0.931 . S
H761 C749 0.930 . S
H762 C750 0.956 . S
H763 C750 0.961 . S
H764 C750 0.961 . S
H765 C751 0.958 . S
H766 C751 0.961 . S
H767 C751 0.960 . S
C768 C769 1.391 . S
C768 C770 1.394 . S
C768 H784 0.931 . S
C769 C768 1.391 . S
C769 C773 1.376 . S
C770 C768 1.394 . S
C770 C771 1.369 . S
C770 C774 1.531 1_556 S
C771 C770 1.369 . S
C771 C772 1.410 . S
C771 C779 1.503 1_556 S
C772 C771 1.410 . S
C772 C773 1.392 . S
C772 C775 1.511 . S
C773 C769 1.376 . S
C773 C772 1.392 . S
C773 H785 0.929 . S
C774 C770 1.531 1_554 S
C774 H786 0.960 . S
C774 H787 0.962 . S
C774 H788 0.960 . S
C775 C772 1.511 . S
C775 H789 0.961 . S
C775 H790 0.961 . S
C775 H791 0.961 . S
C776 C777 1.370 . S
C776 C778 1.363 . S
C776 H792 0.931 . S
C777 C776 1.370 . S
C777 C781 1.408 . S
C778 C776 1.363 . S
C778 C779 1.370 . S
C778 C782 1.524 . S
C779 C771 1.503 1_554 S
C779 C778 1.370 . S
C779 C780 1.403 . S
C780 C779 1.403 . S
C780 C781 1.404 . S
C780 C783 1.539 . S
C781 C777 1.408 . S
C781 C780 1.404 . S
C781 H793 0.930 . S
C782 C778 1.524 . S
C782 H794 0.956 . S
C782 H795 0.961 1_554 S
C782 H796 0.961 . S
C783 C780 1.539 . S
C783 H797 0.958 . S
C783 H798 0.961 . S
C783 H799 0.960 1_554 S
H784 C768 0.931 . S
H785 C773 0.929 . S
H786 C774 0.960 . S
H787 C774 0.962 . S
H788 C774 0.960 . S
H789 C775 0.961 . S
H790 C775 0.961 . S
H791 C775 0.961 . S
H792 C776 0.931 . S
H793 C781 0.930 . S
H794 C782 0.956 . S
H795 C782 0.961 1_556 S
H796 C782 0.961 . S
H797 C783 0.958 . S
H798 C783 0.961 . S
H799 C783 0.960 1_556 S
C800 C801 1.391 . S
C800 C802 1.394 . S
C800 H816 0.931 . S
C801 C800 1.391 . S
C801 C805 1.376 . S
C802 C800 1.394 . S
C802 C803 1.369 . S
C802 C806 1.531 . S
C803 C802 1.369 . S
C803 C804 1.410 . S
C803 C811 1.503 . S
C804 C803 1.410 . S
C804 C805 1.392 . S
C804 C807 1.511 . S
C805 C801 1.376 . S
C805 C804 1.392 . S
C805 H817 0.929 . S
C806 C802 1.531 . S
C806 H818 0.960 . S
C806 H819 0.962 . S
C806 H820 0.960 . S
C807 C804 1.511 . S
C807 H821 0.961 . S
C807 H822 0.961 . S
C807 H823 0.961 . S
C808 C809 1.370 . S
C808 C810 1.363 . S
C808 H824 0.931 . S
C809 C808 1.370 . S
C809 C813 1.408 . S
C810 C808 1.363 . S
C810 C811 1.370 . S
C810 C814 1.524 . S
C811 C803 1.503 . S
C811 C810 1.370 . S
C811 C812 1.403 . S
C812 C811 1.403 . S
C812 C813 1.404 . S
C812 C815 1.539 . S
C813 C809 1.408 . S
C813 C812 1.404 . S
C813 H825 0.930 . S
C814 C810 1.524 . S
C814 H826 0.956 . S
C814 H827 0.961 . S
C814 H828 0.961 . S
C815 C812 1.539 . S
C815 H829 0.958 . S
C815 H830 0.961 . S
C815 H831 0.960 . S
H816 C800 0.931 . S
H817 C805 0.929 . S
H818 C806 0.960 . S
H819 C806 0.962 . S
H820 C806 0.960 . S
H821 C807 0.961 . S
H822 C807 0.961 . S
H823 C807 0.961 . S
H824 C808 0.931 . S
H825 C813 0.930 . S
H826 C814 0.956 . S
H827 C814 0.961 . S
H828 C814 0.961 . S
H829 C815 0.958 . S
H830 C815 0.961 . S
H831 C815 0.960 . S
C832 C833 1.391 . S
C832 C834 1.394 . S
C832 H848 0.931 . S
C833 C832 1.391 . S
C833 C837 1.376 . S
C834 C832 1.394 . S
C834 C835 1.369 . S
C834 C838 1.531 . S
C835 C834 1.369 . S
C835 C836 1.410 . S
C835 C843 1.503 . S
C836 C835 1.410 . S
C836 C837 1.392 . S
C836 C839 1.511 . S
C837 C833 1.376 . S
C837 C836 1.392 . S
C837 H849 0.929 . S
C838 C834 1.531 . S
C838 H850 0.960 . S
C838 H851 0.962 . S
C838 H852 0.960 . S
C839 C836 1.511 . S
C839 H853 0.961 . S
C839 H854 0.961 . S
C839 H855 0.961 . S
C840 C841 1.370 . S
C840 C842 1.363 . S
C840 H856 0.931 . S
C841 C840 1.370 . S
C841 C845 1.408 . S
C842 C840 1.363 . S
C842 C843 1.370 . S
C842 C846 1.524 . S
C843 C835 1.503 . S
C843 C842 1.370 . S
C843 C844 1.403 . S
C844 C843 1.403 . S
C844 C845 1.404 . S
C844 C847 1.539 . S
C845 C841 1.408 . S
C845 C844 1.404 . S
C845 H857 0.930 . S
C846 C842 1.524 . S
C846 H858 0.956 . S
C846 H859 0.961 . S
C846 H860 0.961 . S
C847 C844 1.539 . S
C847 H861 0.958 . S
C847 H862 0.961 . S
C847 H863 0.960 . S
H848 C832 0.931 . S
H849 C837 0.929 . S
H850 C838 0.960 . S
H851 C838 0.962 . S
H852 C838 0.960 . S
H853 C839 0.961 . S
H854 C839 0.961 . S
H855 C839 0.961 . S
H856 C840 0.931 . S
H857 C845 0.930 . S
H858 C846 0.956 . S
H859 C846 0.961 . S
H860 C846 0.961 . S
H861 C847 0.958 . S
H862 C847 0.961 . S
H863 C847 0.960 . S
C864 C865 1.391 . S
C864 C866 1.394 . S
C864 H880 0.931 . S
C865 C864 1.391 . S
C865 C869 1.376 . S
C866 C864 1.394 . S
C866 C867 1.369 . S
C866 C870 1.531 1_565 S
C867 C866 1.369 . S
C867 C868 1.410 . S
C867 C875 1.503 1_566 S
C868 C867 1.410 . S
C868 C869 1.392 . S
C868 C871 1.511 . S
C869 C865 1.376 . S
C869 C868 1.392 . S
C869 H881 0.929 . S
C870 C866 1.531 1_545 S
C870 H882 0.960 . S
C870 H883 0.962 1_545 S
C870 H884 0.960 . S
C871 C868 1.511 . S
C871 H885 0.961 . S
C871 H886 0.961 1_556 S
C871 H887 0.961 1_565 S
C872 C873 1.370 . S
C872 C874 1.363 1_545 S
C872 H888 0.931 1_545 S
C873 C872 1.370 . S
C873 C877 1.408 . S
C874 C872 1.363 1_565 S
C874 C875 1.370 1_565 S
C874 C878 1.524 . S
C875 C867 1.503 1_544 S
C875 C874 1.370 1_545 S
C875 C876 1.403 . S
C876 C875 1.403 . S
C876 C877 1.404 . S
C876 C879 1.539 1_554 S
C877 C873 1.408 . S
C877 C876 1.404 . S
C877 H889 0.930 . S
C878 C874 1.524 . S
C878 H890 0.956 . S
C878 H891 0.961 . S
C878 H892 0.961 . S
C879 C876 1.539 1_556 S
C879 H893 0.958 . S
C879 H894 0.961 . S
C879 H895 0.960 . S
H880 C864 0.931 . S
H881 C869 0.929 . S
H882 C870 0.960 . S
H883 C870 0.962 1_565 S
H884 C870 0.960 . S
H885 C871 0.961 . S
H886 C871 0.961 1_554 S
H887 C871 0.961 1_545 S
H888 C872 0.931 1_565 S
H889 C877 0.930 . S
H890 C878 0.956 . S
H891 C878 0.961 . S
H892 C878 0.961 . S
H893 C879 0.958 . S
H894 C879 0.961 . S
H895 C879 0.960 . S
C896 C897 1.391 . S
C896 C898 1.394 . S
C896 H912 0.931 . S
C897 C896 1.391 . S
C897 C901 1.376 . S
C898 C896 1.394 . S
C898 C899 1.369 . S
C898 C902 1.531 . S
C899 C898 1.369 . S
C899 C900 1.410 . S
C899 C907 1.503 . S
C900 C899 1.410 . S
C900 C901 1.392 . S
C900 C903 1.511 . S
C901 C897 1.376 . S
C901 C900 1.392 . S
C901 H913 0.929 . S
C902 C898 1.531 . S
C902 H914 0.960 . S
C902 H915 0.962 . S
C902 H916 0.960 . S
C903 C900 1.511 . S
C903 H917 0.961 . S
C903 H918 0.961 . S
C903 H919 0.961 . S
C904 C905 1.370 . S
C904 C906 1.363 . S
C904 H920 0.931 . S
C905 C904 1.370 . S
C905 C909 1.408 . S
C906 C904 1.363 . S
C906 C907 1.370 . S
C906 C910 1.524 . S
C907 C899 1.503 . S
C907 C906 1.370 . S
C907 C908 1.403 . S
C908 C907 1.403 . S
C908 C909 1.404 . S
C908 C911 1.539 . S
C909 C905 1.408 . S
C909 C908 1.404 . S
C909 H921 0.930 . S
C910 C906 1.524 . S
C910 H922 0.956 . S
C910 H923 0.961 . S
C910 H924 0.961 . S
C911 C908 1.539 . S
C911 H925 0.958 . S
C911 H926 0.961 . S
C911 H927 0.960 . S
H912 C896 0.931 . S
H913 C901 0.929 . S
H914 C902 0.960 . S
H915 C902 0.962 . S
H916 C902 0.960 . S
H917 C903 0.961 . S
H918 C903 0.961 . S
H919 C903 0.961 . S
H920 C904 0.931 . S
H921 C909 0.930 . S
H922 C910 0.956 . S
H923 C910 0.961 . S
H924 C910 0.961 . S
H925 C911 0.958 . S
H926 C911 0.961 . S
H927 C911 0.960 . S
C928 C929 1.391 . S
C928 C930 1.394 . S
C928 H944 0.931 . S
C929 C928 1.391 . S
C929 C933 1.376 . S
C930 C928 1.394 . S
C930 C931 1.369 . S
C930 C934 1.531 . S
C931 C930 1.369 . S
C931 C932 1.410 . S
C931 C939 1.503 1_455 S
C932 C931 1.410 . S
C932 C933 1.392 . S
C932 C935 1.511 1_455 S
C933 C929 1.376 . S
C933 C932 1.392 . S
C933 H945 0.929 . S
C934 C930 1.531 . S
C934 H946 0.960 1_455 S
C934 H947 0.962 . S
C934 H948 0.960 . S
C935 C932 1.511 1_655 S
C935 H949 0.934 1_655 S
C935 H950 0.961 . S
C935 H951 0.961 . S
C936 C937 1.370 . S
C936 C938 1.363 1_655 S
C936 H952 0.931 1_655 S
C937 C936 1.370 . S
C937 C941 1.408 . S
C938 C936 1.363 1_455 S
C938 C939 1.370 1_455 S
C938 C942 1.524 . S
C939 C931 1.503 1_655 S
C939 C938 1.370 1_655 S
C939 C940 1.403 . S
C940 C939 1.403 . S
C940 C941 1.404 . S
C940 C943 1.539 . S
C941 C937 1.408 . S
C941 C940 1.404 . S
C941 H953 0.930 . S
C942 C938 1.524 . S
C942 H954 0.956 . S
C942 H955 0.961 . S
C942 H956 0.961 . S
C943 C940 1.539 . S
C943 H957 0.958 . S
C943 H958 0.961 . S
C943 H959 0.960 . S
H944 C928 0.931 . S
H945 C933 0.929 . S
H946 C934 0.960 1_655 S
H947 C934 0.962 . S
H948 C934 0.960 . S
H949 C935 0.934 1_455 S
H950 C935 0.961 . S
H951 C935 0.961 . S
H952 C936 0.931 1_455 S
H953 C941 0.930 . S
H954 C942 0.956 . S
H955 C942 0.961 . S
H956 C942 0.961 . S
H957 C943 0.958 . S
H958 C943 0.961 . S
H959 C943 0.960 . S
C960 C961 1.391 . S
C960 C962 1.394 . S
C960 H976 0.931 . S
C961 C960 1.391 . S
C961 C965 1.376 . S
C962 C960 1.394 . S
C962 C963 1.369 . S
C962 C966 1.531 1_565 S
C963 C962 1.369 . S
C963 C964 1.410 . S
C963 C971 1.503 1_564 S
C964 C963 1.410 . S
C964 C965 1.392 . S
C964 C967 1.511 . S
C965 C961 1.376 . S
C965 C964 1.392 . S
C965 H977 0.929 . S
C966 C962 1.531 1_545 S
C966 H978 0.960 . S
C966 H979 0.962 1_545 S
C966 H980 0.960 . S
C967 C964 1.511 . S
C967 H981 0.961 . S
C967 H982 0.961 1_554 S
C967 H983 0.961 1_565 S
C968 C969 1.370 . S
C968 C970 1.363 1_545 S
C968 H984 0.931 1_545 S
C969 C968 1.370 . S
C969 C973 1.408 . S
C970 C968 1.363 1_565 S
C970 C971 1.370 1_565 S
C970 C974 1.524 . S
C971 C963 1.503 1_546 S
C971 C970 1.370 1_545 S
C971 C972 1.403 . S
C972 C971 1.403 . S
C972 C973 1.404 . S
C972 C975 1.539 1_556 S
C973 C969 1.408 . S
C973 C972 1.404 . S
C973 H985 0.930 . S
C974 C970 1.524 . S
C974 H986 0.956 . S
C974 H987 0.961 . S
C974 H988 0.961 . S
C975 C972 1.539 1_554 S
C975 H989 0.958 . S
C975 H990 0.961 . S
C975 H991 0.960 . S
H976 C960 0.931 . S
H977 C965 0.929 . S
H978 C966 0.960 . S
H979 C966 0.962 1_565 S
H980 C966 0.960 . S
H981 C967 0.961 . S
H982 C967 0.961 1_556 S
H983 C967 0.961 1_545 S
H984 C968 0.931 1_565 S
H985 C973 0.930 . S
H986 C974 0.956 . S
H987 C974 0.961 . S
H988 C974 0.961 . S
H989 C975 0.958 . S
H990 C975 0.961 . S
H991 C975 0.960 . S
C992 C993 1.391 . S
C992 C994 1.394 . S
C992 H1008 0.931 . S
C993 C992 1.391 . S
C993 C997 1.376 . S
C994 C992 1.394 . S
C994 C995 1.369 . S
C994 C998 1.531 . S
C995 C994 1.369 . S
C995 C996 1.410 . S
C995 C1003 1.503 . S
C996 C995 1.410 . S
C996 C997 1.392 . S
C996 C999 1.511 . S
C997 C993 1.376 . S
C997 C996 1.392 . S
C997 H1009 0.929 . S
C998 C994 1.531 . S
C998 H1010 0.960 . S
C998 H1011 0.962 . S
C998 H1012 0.960 . S
C999 C996 1.511 . S
C999 H1013 0.961 . S
C999 H1014 0.961 . S
C999 H1015 0.961 . S
C1000 C1001 1.370 . S
C1000 C1002 1.363 . S
C1000 H1016 0.931 . S
C1001 C1000 1.370 . S
C1001 C1005 1.408 . S
C1002 C1000 1.363 . S
C1002 C1003 1.370 . S
C1002 C1006 1.524 . S
C1003 C995 1.503 . S
C1003 C1002 1.370 . S
C1003 C1004 1.403 . S
C1004 C1003 1.403 . S
C1004 C1005 1.404 . S
C1004 C1007 1.539 . S
C1005 C1001 1.408 . S
C1005 C1004 1.404 . S
C1005 H1017 0.930 . S
C1006 C1002 1.524 . S
C1006 H1018 0.956 . S
C1006 H1019 0.961 . S
C1006 H1020 0.961 . S
C1007 C1004 1.539 . S
C1007 H1021 0.958 . S
C1007 H1022 0.961 . S
C1007 H1023 0.960 . S
H1008 C992 0.931 . S
H1009 C997 0.929 . S
H1010 C998 0.960 . S
H1011 C998 0.962 . S
H1012 C998 0.960 . S
H1013 C999 0.961 . S
H1014 C999 0.961 . S
H1015 C999 0.961 . S
H1016 C1000 0.931 . S
H1017 C1005 0.930 . S
H1018 C1006 0.956 . S
H1019 C1006 0.961 . S
H1020 C1006 0.961 . S
H1021 C1007 0.958 . S
H1022 C1007 0.961 . S
H1023 C1007 0.960 . S
C1024 C1025 1.391 . S
C1024 C1026 1.394 . S
C1024 H1040 0.931 . S
C1025 C1024 1.391 . S
C1025 C1029 1.376 . S
C1026 C1024 1.394 . S
C1026 C1027 1.369 . S
C1026 C1030 1.531 1_455 S
C1027 C1026 1.369 . S
C1027 C1028 1.410 . S
C1027 C1035 1.503 1_455 S
C1028 C1027 1.410 . S
C1028 C1029 1.392 . S
C1028 C1031 1.511 . S
C1029 C1025 1.376 . S
C1029 C1028 1.392 . S
C1029 H1041 0.929 . S
C1030 C1026 1.531 1_655 S
C1030 H1042 0.960 . S
C1030 H1043 0.962 . S
C1030 H1044 0.960 . S
C1031 C1028 1.511 . S
C1031 H1045 0.961 . S
C1031 H1046 0.961 . S
C1031 H1047 0.961 . S
C1032 C1033 1.370 . S
C1032 C1034 1.363 . S
C1032 H1048 0.931 . S
C1033 C1032 1.370 . S
C1033 C1037 1.408 . S
C1034 C1032 1.363 . S
C1034 C1035 1.370 . S
C1034 C1038 1.524 . S
C1035 C1027 1.503 1_655 S
C1035 C1034 1.370 . S
C1035 C1036 1.403 1_655 S
C1036 C1035 1.403 1_455 S
C1036 C1037 1.404 1_455 S
C1036 C1039 1.539 . S
C1037 C1033 1.408 . S
C1037 C1036 1.404 1_655 S
C1037 H1049 0.930 . S
C1038 C1034 1.524 . S
C1038 H1050 0.956 . S
C1038 H1051 0.961 . S
C1038 H1052 0.961 . S
C1039 C1036 1.539 . S
C1039 H1053 0.958 . S
C1039 H1054 0.961 . S
C1039 H1055 0.960 . S
H1040 C1024 0.931 . S
H1041 C1029 0.929 . S
H1042 C1030 0.960 . S
H1043 C1030 0.962 . S
H1044 C1030 0.960 . S
H1045 C1031 0.961 . S
H1046 C1031 0.961 . S
H1047 C1031 0.961 . S
H1048 C1032 0.931 . S
H1049 C1037 0.930 . S
H1050 C1038 0.956 . S
H1051 C1038 0.961 . S
H1052 C1038 0.961 . S
H1053 C1039 0.958 . S
H1054 C1039 0.961 . S
H1055 C1039 0.960 . S
C1056 C1057 1.391 . S
C1056 C1058 1.394 . S
C1056 H1072 0.931 . S
C1057 C1056 1.391 . S
C1057 C1061 1.376 . S
C1058 C1056 1.394 . S
C1058 C1059 1.369 . S
C1058 C1062 1.531 . S
C1059 C1058 1.369 . S
C1059 C1060 1.410 . S
C1059 C1067 1.503 1_545 S
C1060 C1059 1.410 . S
C1060 C1061 1.392 . S
C1060 C1063 1.511 1_545 S
C1061 C1057 1.376 . S
C1061 C1060 1.392 . S
C1061 H1073 0.929 . S
C1062 C1058 1.531 . S
C1062 H1074 0.960 . S
C1062 H1075 0.962 . S
C1062 H1076 0.960 . S
C1063 C1060 1.511 1_565 S
C1063 H1077 0.961 . S
C1063 H1078 0.961 . S
C1063 H1079 0.961 . S
C1064 C1065 1.370 . S
C1064 C1066 1.363 . S
C1064 H1080 0.931 . S
C1065 C1064 1.370 . S
C1065 C1069 1.408 . S
C1066 C1064 1.363 . S
C1066 C1067 1.370 . S
C1066 C1070 1.524 . S
C1067 C1059 1.503 1_565 S
C1067 C1066 1.370 . S
C1067 C1068 1.403 . S
C1068 C1067 1.403 . S
C1068 C1069 1.404 . S
C1068 C1071 1.539 . S
C1069 C1065 1.408 . S
C1069 C1068 1.404 . S
C1069 H1081 0.930 . S
C1070 C1066 1.524 . S
C1070 H1082 0.939 1_565 S
C1070 H1083 0.961 . S
C1070 H1084 0.961 . S
C1071 C1068 1.539 . S
C1071 H1085 0.958 1_565 S
C1071 H1086 0.961 . S
C1071 H1087 0.960 1_565 S
H1072 C1056 0.931 . S
H1073 C1061 0.929 . S
H1074 C1062 0.960 . S
H1075 C1062 0.962 . S
H1076 C1062 0.960 . S
H1077 C1063 0.961 . S
H1078 C1063 0.961 . S
H1079 C1063 0.961 . S
H1080 C1064 0.931 . S
H1081 C1069 0.930 . S
H1082 C1070 0.939 1_545 S
H1083 C1070 0.961 . S
H1084 C1070 0.961 . S
H1085 C1071 0.958 1_545 S
H1086 C1071 0.961 . S
H1087 C1071 0.960 1_545 S
C1088 C1089 1.391 . S
C1088 C1090 1.394 . S
C1088 H1104 0.931 . S
C1089 C1088 1.391 . S
C1089 C1093 1.376 . S
C1090 C1088 1.394 . S
C1090 C1091 1.369 . S
C1090 C1094 1.531 . S
C1091 C1090 1.369 . S
C1091 C1092 1.410 . S
C1091 C1099 1.503 . S
C1092 C1091 1.410 . S
C1092 C1093 1.392 . S
C1092 C1095 1.511 . S
C1093 C1089 1.376 . S
C1093 C1092 1.392 . S
C1093 H1105 0.929 . S
C1094 C1090 1.531 . S
C1094 H1106 0.960 . S
C1094 H1107 0.962 . S
C1094 H1108 0.960 . S
C1095 C1092 1.511 . S
C1095 H1109 0.961 . S
C1095 H1110 0.961 . S
C1095 H1111 0.961 . S
C1096 C1097 1.370 . S
C1096 C1098 1.363 . S
C1096 H1112 0.931 . S
C1097 C1096 1.370 . S
C1097 C1101 1.408 . S
C1098 C1096 1.363 . S
C1098 C1099 1.370 . S
C1098 C1102 1.524 . S
C1099 C1091 1.503 . S
C1099 C1098 1.370 . S
C1099 C1100 1.403 . S
C1100 C1099 1.403 . S
C1100 C1101 1.404 . S
C1100 C1103 1.539 . S
C1101 C1097 1.408 . S
C1101 C1100 1.404 . S
C1101 H1113 0.930 . S
C1102 C1098 1.524 . S
C1102 H1114 0.956 . S
C1102 H1115 0.961 . S
C1102 H1116 0.961 . S
C1103 C1100 1.539 . S
C1103 H1117 0.958 . S
C1103 H1118 0.961 . S
C1103 H1119 0.960 . S
H1104 C1088 0.931 . S
H1105 C1093 0.929 . S
H1106 C1094 0.960 . S
H1107 C1094 0.962 . S
H1108 C1094 0.960 . S
H1109 C1095 0.961 . S
H1110 C1095 0.961 . S
H1111 C1095 0.961 . S
H1112 C1096 0.931 . S
H1113 C1101 0.930 . S
H1114 C1102 0.956 . S
H1115 C1102 0.961 . S
H1116 C1102 0.961 . S
H1117 C1103 0.958 . S
H1118 C1103 0.961 . S
H1119 C1103 0.960 . S
C1120 C1121 1.391 . S
C1120 C1122 1.394 . S
C1120 H1136 0.931 . S
C1121 C1120 1.391 . S
C1121 C1125 1.376 . S
C1122 C1120 1.394 . S
C1122 C1123 1.369 . S
C1122 C1126 1.531 . S
C1123 C1122 1.369 . S
C1123 C1124 1.410 . S
C1123 C1131 1.503 1_655 S
C1124 C1123 1.410 . S
C1124 C1125 1.392 . S
C1124 C1127 1.511 1_655 S
C1125 C1121 1.376 . S
C1125 C1124 1.392 . S
C1125 H1137 0.929 . S
C1126 C1122 1.531 . S
C1126 H1138 0.960 . S
C1126 H1139 0.962 . S
C1126 H1140 0.960 . S
C1127 C1124 1.511 1_455 S
C1127 H1141 0.961 . S
C1127 H1142 0.961 . S
C1127 H1143 0.961 . S
C1128 C1129 1.370 . S
C1128 C1130 1.363 . S
C1128 H1144 0.931 . S
C1129 C1128 1.370 . S
C1129 C1133 1.408 . S
C1130 C1128 1.363 . S
C1130 C1131 1.370 . S
C1130 C1134 1.524 . S
C1131 C1123 1.503 1_455 S
C1131 C1130 1.370 . S
C1131 C1132 1.403 . S
C1132 C1131 1.403 . S
C1132 C1133 1.404 . S
C1132 C1135 1.539 . S
C1133 C1129 1.408 . S
C1133 C1132 1.404 . S
C1133 H1145 0.930 . S
C1134 C1130 1.524 . S
C1134 H1146 0.956 1_455 S
C1134 H1147 0.961 . S
C1134 H1148 0.961 . S
C1135 C1132 1.539 . S
C1135 H1149 0.958 1_455 S
C1135 H1150 0.961 1_556 S
C1135 H1151 0.960 . S
H1136 C1120 0.931 . S
H1137 C1125 0.929 . S
H1138 C1126 0.960 . S
H1139 C1126 0.962 . S
H1140 C1126 0.960 . S
H1141 C1127 0.961 . S
H1142 C1127 0.961 . S
H1143 C1127 0.961 . S
H1144 C1128 0.931 . S
H1145 C1133 0.930 . S
H1146 C1134 0.956 1_655 S
H1147 C1134 0.961 . S
H1148 C1134 0.961 . S
H1149 C1135 0.958 1_655 S
H1150 C1135 0.961 1_554 S
H1151 C1135 0.960 . S
C1152 C1153 1.391 . S
C1152 C1154 1.394 . S
C1152 H1168 0.931 . S
C1153 C1152 1.391 . S
C1153 C1157 1.376 . S
C1154 C1152 1.394 . S
C1154 C1155 1.369 . S
C1154 C1158 1.531 1_455 S
C1155 C1154 1.369 . S
C1155 C1156 1.410 . S
C1155 C1163 1.503 1_455 S
C1156 C1155 1.410 . S
C1156 C1157 1.392 . S
C1156 C1159 1.511 . S
C1157 C1153 1.376 . S
C1157 C1156 1.392 . S
C1157 H1169 0.929 . S
C1158 C1154 1.531 1_655 S
C1158 H1170 0.960 . S
C1158 H1171 0.962 1_655 S
C1158 H1172 0.960 . S
C1159 C1156 1.511 . S
C1159 H1173 0.961 . S
C1159 H1174 0.961 . S
C1159 H1175 0.961 1_455 S
C1160 C1161 1.370 . S
C1160 C1162 1.363 . S
C1160 H1176 0.931 . S
C1161 C1160 1.370 . S
C1161 C1165 1.408 . S
C1162 C1160 1.363 . S
C1162 C1163 1.370 . S
C1162 C1166 1.524 1_655 S
C1163 C1155 1.503 1_655 S
C1163 C1162 1.370 . S
C1163 C1164 1.403 . S
C1164 C1163 1.403 . S
C1164 C1165 1.404 . S
C1164 C1167 1.539 . S
C1165 C1161 1.408 . S
C1165 C1164 1.404 . S
C1165 H1177 0.930 . S
C1166 C1162 1.524 1_455 S
C1166 H1178 0.956 . S
C1166 H1179 0.961 . S
C1166 H1180 0.961 . S
C1167 C1164 1.539 . S
C1167 H1181 0.958 . S
C1167 H1182 0.961 . S
C1167 H1183 0.960 . S
H1168 C1152 0.931 . S
H1169 C1157 0.929 . S
H1170 C1158 0.960 . S
H1171 C1158 0.962 1_455 S
H1172 C1158 0.960 . S
H1173 C1159 0.961 . S
H1174 C1159 0.961 . S
H1175 C1159 0.961 1_655 S
H1176 C1160 0.931 . S
H1177 C1165 0.930 . S
H1178 C1166 0.956 . S
H1179 C1166 0.961 . S
H1180 C1166 0.961 . S
H1181 C1167 0.958 . S
H1182 C1167 0.961 . S
H1183 C1167 0.960 . S
C1184 C1185 1.391 . S
C1184 C1186 1.394 . S
C1184 H1200 0.931 . S
C1185 C1184 1.391 . S
C1185 C1189 1.376 . S
C1186 C1184 1.394 . S
C1186 C1187 1.369 . S
C1186 C1190 1.531 . S
C1187 C1186 1.369 . S
C1187 C1188 1.410 . S
C1187 C1195 1.503 1_565 S
C1188 C1187 1.410 . S
C1188 C1189 1.392 . S
C1188 C1191 1.511 . S
C1189 C1185 1.376 . S
C1189 C1188 1.392 . S
C1189 H1201 0.929 . S
C1190 C1186 1.531 . S
C1190 H1202 0.960 . S
C1190 H1203 0.962 . S
C1190 H1204 0.960 . S
C1191 C1188 1.511 . S
C1191 H1205 0.961 . S
C1191 H1206 0.961 1_565 S
C1191 H1207 0.961 . S
C1192 C1193 1.370 . S
C1192 C1194 1.363 . S
C1192 H1208 0.931 . S
C1193 C1192 1.370 . S
C1193 C1197 1.408 . S
C1194 C1192 1.363 . S
C1194 C1195 1.370 . S
C1194 C1198 1.524 . S
C1195 C1187 1.503 1_545 S
C1195 C1194 1.370 . S
C1195 C1196 1.403 . S
C1196 C1195 1.403 . S
C1196 C1197 1.404 . S
C1196 C1199 1.539 1_545 S
C1197 C1193 1.408 . S
C1197 C1196 1.404 . S
C1197 H1209 0.930 . S
C1198 C1194 1.524 . S
C1198 H1210 0.956 . S
C1198 H1211 0.961 . S
C1198 H1212 0.961 . S
C1199 C1196 1.539 1_565 S
C1199 H1213 0.958 . S
C1199 H1214 0.961 . S
C1199 H1215 0.960 . S
H1200 C1184 0.931 . S
H1201 C1189 0.929 . S
H1202 C1190 0.960 . S
H1203 C1190 0.962 . S
H1204 C1190 0.960 . S
H1205 C1191 0.961 . S
H1206 C1191 0.961 1_545 S
H1207 C1191 0.961 . S
H1208 C1192 0.931 . S
H1209 C1197 0.930 . S
H1210 C1198 0.956 . S
H1211 C1198 0.961 . S
H1212 C1198 0.961 . S
H1213 C1199 0.958 . S
H1214 C1199 0.961 . S
H1215 C1199 0.960 . S
C1216 C1217 1.391 . S
C1216 C1218 1.394 . S
C1216 H1232 0.931 . S
C1217 C1216 1.391 . S
C1217 C1221 1.376 . S
C1218 C1216 1.394 . S
C1218 C1219 1.369 . S
C1218 C1222 1.531 . S
C1219 C1218 1.369 . S
C1219 C1220 1.410 . S
C1219 C1227 1.503 . S
C1220 C1219 1.410 . S
C1220 C1221 1.392 . S
C1220 C1223 1.511 . S
C1221 C1217 1.376 . S
C1221 C1220 1.392 . S
C1221 H1233 0.929 . S
C1222 C1218 1.531 . S
C1222 H1234 0.960 . S
C1222 H1235 0.962 . S
C1222 H1236 0.960 . S
C1223 C1220 1.511 . S
C1223 H1237 0.961 . S
C1223 H1238 0.961 . S
C1223 H1239 0.961 . S
C1224 C1225 1.370 . S
C1224 C1226 1.363 . S
C1224 H1240 0.931 . S
C1225 C1224 1.370 . S
C1225 C1229 1.408 . S
C1226 C1224 1.363 . S
C1226 C1227 1.370 . S
C1226 C1230 1.524 . S
C1227 C1219 1.503 . S
C1227 C1226 1.370 . S
C1227 C1228 1.403 . S
C1228 C1227 1.403 . S
C1228 C1229 1.404 . S
C1228 C1231 1.539 . S
C1229 C1225 1.408 . S
C1229 C1228 1.404 . S
C1229 H1241 0.930 . S
C1230 C1226 1.524 . S
C1230 H1242 0.956 . S
C1230 H1243 0.961 . S
C1230 H1244 0.961 . S
C1231 C1228 1.539 . S
C1231 H1245 0.958 . S
C1231 H1246 0.961 . S
C1231 H1247 0.960 . S
H1232 C1216 0.931 . S
H1233 C1221 0.929 . S
H1234 C1222 0.960 . S
H1235 C1222 0.962 . S
H1236 C1222 0.960 . S
H1237 C1223 0.961 . S
H1238 C1223 0.961 . S
H1239 C1223 0.961 . S
H1240 C1224 0.931 . S
H1241 C1229 0.930 . S
H1242 C1230 0.956 . S
H1243 C1230 0.961 . S
H1244 C1230 0.961 . S
H1245 C1231 0.958 . S
H1246 C1231 0.961 . S
H1247 C1231 0.960 . S
C1248 C1249 1.391 . S
C1248 C1250 1.394 . S
C1248 H1264 0.931 . S
C1249 C1248 1.391 . S
C1249 C1253 1.376 . S
C1250 C1248 1.394 . S
C1250 C1251 1.369 . S
C1250 C1254 1.531 . S
C1251 C1250 1.369 . S
C1251 C1252 1.410 . S
C1251 C1259 1.503 1_565 S
C1252 C1251 1.410 . S
C1252 C1253 1.392 . S
C1252 C1255 1.511 . S
C1253 C1249 1.376 . S
C1253 C1252 1.392 . S
C1253 H1265 0.929 . S
C1254 C1250 1.531 . S
C1254 H1266 0.960 . S
C1254 H1267 0.962 1_565 S
C1254 H1268 0.960 . S
C1255 C1252 1.511 . S
C1255 H1269 0.961 . S
C1255 H1270 0.929 1_565 S
C1255 H1271 0.961 . S
C1256 C1257 1.370 . S
C1256 C1258 1.363 . S
C1256 H1272 0.931 . S
C1257 C1256 1.370 . S
C1257 C1261 1.408 . S
C1258 C1256 1.363 . S
C1258 C1259 1.370 . S
C1258 C1262 1.524 . S
C1259 C1251 1.503 1_545 S
C1259 C1258 1.370 . S
C1259 C1260 1.403 . S
C1260 C1259 1.403 . S
C1260 C1261 1.404 . S
C1260 C1263 1.539 1_545 S
C1261 C1257 1.408 . S
C1261 C1260 1.404 . S
C1261 H1273 0.930 . S
C1262 C1258 1.524 . S
C1262 H1274 0.956 . S
C1262 H1275 0.961 . S
C1262 H1276 0.961 . S
C1263 C1260 1.539 1_565 S
C1263 H1277 0.958 . S
C1263 H1278 0.961 . S
C1263 H1279 0.960 . S
H1264 C1248 0.931 . S
H1265 C1253 0.929 . S
H1266 C1254 0.960 . S
H1267 C1254 0.962 1_545 S
H1268 C1254 0.960 . S
H1269 C1255 0.961 . S
H1270 C1255 0.929 1_545 S
H1271 C1255 0.961 . S
H1272 C1256 0.931 . S
H1273 C1261 0.930 . S
H1274 C1262 0.956 . S
H1275 C1262 0.961 . S
H1276 C1262 0.961 . S
H1277 C1263 0.958 . S
H1278 C1263 0.961 . S
H1279 C1263 0.960 . S
C1280 C1281 1.391 . S
C1280 C1282 1.394 . S
C1280 H1296 0.931 . S
C1281 C1280 1.391 . S
C1281 C1285 1.376 . S
C1282 C1280 1.394 . S
C1282 C1283 1.369 . S
C1282 C1286 1.531 . S
C1283 C1282 1.369 . S
C1283 C1284 1.410 . S
C1283 C1291 1.503 . S
C1284 C1283 1.410 . S
C1284 C1285 1.392 . S
C1284 C1287 1.511 . S
C1285 C1281 1.376 . S
C1285 C1284 1.392 . S
C1285 H1297 0.929 . S
C1286 C1282 1.531 . S
C1286 H1298 0.960 . S
C1286 H1299 0.962 . S
C1286 H1300 0.960 . S
C1287 C1284 1.511 . S
C1287 H1301 0.961 . S
C1287 H1302 0.961 . S
C1287 H1303 0.961 . S
C1288 C1289 1.370 . S
C1288 C1290 1.363 . S
C1288 H1304 0.931 . S
C1289 C1288 1.370 . S
C1289 C1293 1.408 . S
C1290 C1288 1.363 . S
C1290 C1291 1.370 . S
C1290 C1294 1.524 . S
C1291 C1283 1.503 . S
C1291 C1290 1.370 . S
C1291 C1292 1.403 . S
C1292 C1291 1.403 . S
C1292 C1293 1.404 . S
C1292 C1295 1.539 . S
C1293 C1289 1.408 . S
C1293 C1292 1.404 . S
C1293 H1305 0.930 . S
C1294 C1290 1.524 . S
C1294 H1306 0.956 . S
C1294 H1307 0.961 . S
C1294 H1308 0.961 . S
C1295 C1292 1.539 . S
C1295 H1309 0.958 . S
C1295 H1310 0.961 . S
C1295 H1311 0.960 . S
H1296 C1280 0.931 . S
H1297 C1285 0.929 . S
H1298 C1286 0.960 . S
H1299 C1286 0.962 . S
H1300 C1286 0.960 . S
H1301 C1287 0.961 . S
H1302 C1287 0.961 . S
H1303 C1287 0.961 . S
H1304 C1288 0.931 . S
H1305 C1293 0.930 . S
H1306 C1294 0.956 . S
H1307 C1294 0.961 . S
H1308 C1294 0.961 . S
H1309 C1295 0.958 . S
H1310 C1295 0.961 . S
H1311 C1295 0.960 . S
C1312 C1313 1.391 . S
C1312 C1314 1.394 . S
C1312 H1328 0.931 . S
C1313 C1312 1.391 . S
C1313 C1317 1.376 . S
C1314 C1312 1.394 . S
C1314 C1315 1.369 . S
C1314 C1318 1.531 1_655 S
C1315 C1314 1.369 . S
C1315 C1316 1.410 . S
C1315 C1323 1.503 1_655 S
C1316 C1315 1.410 . S
C1316 C1317 1.392 . S
C1316 C1319 1.511 . S
C1317 C1313 1.376 . S
C1317 C1316 1.392 . S
C1317 H1329 0.929 . S
C1318 C1314 1.531 1_455 S
C1318 H1330 0.960 . S
C1318 H1331 0.962 . S
C1318 H1332 0.960 . S
C1319 C1316 1.511 . S
C1319 H1333 0.961 . S
C1319 H1334 0.961 . S
C1319 H1335 0.961 . S
C1320 C1321 1.370 . S
C1320 C1322 1.363 . S
C1320 H1336 0.931 . S
C1321 C1320 1.370 . S
C1321 C1325 1.408 . S
C1322 C1320 1.363 . S
C1322 C1323 1.370 . S
C1322 C1326 1.524 1_455 S
C1323 C1315 1.503 1_455 S
C1323 C1322 1.370 . S
C1323 C1324 1.403 . S
C1324 C1323 1.403 . S
C1324 C1325 1.404 . S
C1324 C1327 1.539 . S
C1325 C1321 1.408 . S
C1325 C1324 1.404 . S
C1325 H1337 0.930 . S
C1326 C1322 1.524 1_655 S
C1326 H1338 0.956 . S
C1326 H1339 0.961 . S
C1326 H1340 0.961 1_655 S
C1327 C1324 1.539 . S
C1327 H1341 0.958 . S
C1327 H1342 0.961 . S
C1327 H1343 0.960 . S
H1328 C1312 0.931 . S
H1329 C1317 0.929 . S
H1330 C1318 0.960 . S
H1331 C1318 0.962 . S
H1332 C1318 0.960 . S
H1333 C1319 0.961 . S
H1334 C1319 0.961 . S
H1335 C1319 0.961 . S
H1336 C1320 0.931 . S
H1337 C1325 0.930 . S
H1338 C1326 0.956 . S
H1339 C1326 0.961 . S
H1340 C1326 0.961 1_455 S
H1341 C1327 0.958 . S
H1342 C1327 0.961 . S
H1343 C1327 0.960 . S
C1344 C1345 1.391 . S
C1344 C1346 1.394 . S
C1344 H1360 0.931 . S
C1345 C1344 1.391 . S
C1345 C1349 1.376 . S
C1346 C1344 1.394 . S
C1346 C1347 1.369 . S
C1346 C1350 1.531 . S
C1347 C1346 1.369 . S
C1347 C1348 1.410 . S
C1347 C1355 1.503 1_545 S
C1348 C1347 1.410 . S
C1348 C1349 1.392 . S
C1348 C1351 1.511 . S
C1349 C1345 1.376 . S
C1349 C1348 1.392 . S
C1349 H1361 0.929 . S
C1350 C1346 1.531 . S
C1350 H1362 0.960 . S
C1350 H1363 0.962 . S
C1350 H1364 0.960 . S
C1351 C1348 1.511 . S
C1351 H1365 0.961 . S
C1351 H1366 0.961 1_545 S
C1351 H1367 0.961 . S
C1352 C1353 1.370 . S
C1352 C1354 1.363 . S
C1352 H1368 0.931 . S
C1353 C1352 1.370 . S
C1353 C1357 1.408 . S
C1354 C1352 1.363 . S
C1354 C1355 1.370 . S
C1354 C1358 1.524 . S
C1355 C1347 1.503 1_565 S
C1355 C1354 1.370 . S
C1355 C1356 1.403 . S
C1356 C1355 1.403 . S
C1356 C1357 1.404 . S
C1356 C1359 1.539 1_565 S
C1357 C1353 1.408 . S
C1357 C1356 1.404 . S
C1357 H1369 0.930 . S
C1358 C1354 1.524 . S
C1358 H1370 0.956 . S
C1358 H1371 0.961 . S
C1358 H1372 0.961 . S
C1359 C1356 1.539 1_545 S
C1359 H1373 0.958 . S
C1359 H1374 0.961 . S
C1359 H1375 0.960 . S
H1360 C1344 0.931 . S
H1361 C1349 0.929 . S
H1362 C1350 0.960 . S
H1363 C1350 0.962 . S
H1364 C1350 0.960 . S
H1365 C1351 0.961 . S
H1366 C1351 0.961 1_565 S
H1367 C1351 0.961 . S
H1368 C1352 0.931 . S
H1369 C1357 0.930 . S
H1370 C1358 0.956 . S
H1371 C1358 0.961 . S
H1372 C1358 0.961 . S
H1373 C1359 0.958 . S
H1374 C1359 0.961 . S
H1375 C1359 0.960 . S
C1376 C1377 1.391 . S
C1376 C1378 1.394 . S
C1376 H1392 0.931 . S
C1377 C1376 1.391 . S
C1377 C1381 1.376 . S
C1378 C1376 1.394 . S
C1378 C1379 1.369 . S
C1378 C1382 1.531 . S
C1379 C1378 1.369 . S
C1379 C1380 1.410 . S
C1379 C1387 1.503 . S
C1380 C1379 1.410 . S
C1380 C1381 1.392 . S
C1380 C1383 1.511 . S
C1381 C1377 1.376 . S
C1381 C1380 1.392 . S
C1381 H1393 0.929 . S
C1382 C1378 1.531 . S
C1382 H1394 0.960 . S
C1382 H1395 0.962 . S
C1382 H1396 0.960 . S
C1383 C1380 1.511 . S
C1383 H1397 0.961 . S
C1383 H1398 0.961 . S
C1383 H1399 0.961 . S
C1384 C1385 1.370 . S
C1384 C1386 1.363 . S
C1384 H1400 0.931 . S
C1385 C1384 1.370 . S
C1385 C1389 1.408 . S
C1386 C1384 1.363 . S
C1386 C1387 1.370 . S
C1386 C1390 1.524 . S
C1387 C1379 1.503 . S
C1387 C1386 1.370 . S
C1387 C1388 1.403 . S
C1388 C1387 1.403 . S
C1388 C1389 1.404 . S
C1388 C1391 1.539 . S
C1389 C1385 1.408 . S
C1389 C1388 1.404 . S
C1389 H1401 0.930 . S
C1390 C1386 1.524 . S
C1390 H1402 0.956 . S
C1390 H1403 0.961 . S
C1390 H1404 0.961 . S
C1391 C1388 1.539 . S
C1391 H1405 0.958 . S
C1391 H1406 0.961 . S
C1391 H1407 0.960 . S
H1392 C1376 0.931 . S
H1393 C1381 0.929 . S
H1394 C1382 0.960 . S
H1395 C1382 0.962 . S
H1396 C1382 0.960 . S
H1397 C1383 0.961 . S
H1398 C1383 0.961 . S
H1399 C1383 0.961 . S
H1400 C1384 0.931 . S
H1401 C1389 0.930 . S
H1402 C1390 0.956 . S
H1403 C1390 0.961 . S
H1404 C1390 0.961 . S
H1405 C1391 0.958 . S
H1406 C1391 0.961 . S
H1407 C1391 0.960 . S
C1408 C1409 1.391 . S
C1408 C1410 1.394 . S
C1408 H1424 0.931 . S
C1409 C1408 1.391 . S
C1409 C1413 1.376 . S
C1410 C1408 1.394 . S
C1410 C1411 1.369 . S
C1410 C1414 1.531 1_455 S
C1411 C1410 1.369 . S
C1411 C1412 1.410 . S
C1411 C1419 1.503 1_455 S
C1412 C1411 1.410 . S
C1412 C1413 1.392 . S
C1412 C1415 1.511 . S
C1413 C1409 1.376 . S
C1413 C1412 1.392 . S
C1413 H1425 0.929 . S
C1414 C1410 1.531 1_655 S
C1414 H1426 0.960 . S
C1414 H1427 0.962 . S
C1414 H1428 0.960 . S
C1415 C1412 1.511 . S
C1415 H1429 0.961 . S
C1415 H1430 0.961 . S
C1415 H1431 0.961 . S
C1416 C1417 1.370 . S
C1416 C1418 1.363 . S
C1416 H1432 0.931 . S
C1417 C1416 1.370 . S
C1417 C1421 1.408 . S
C1418 C1416 1.363 . S
C1418 C1419 1.370 . S
C1418 C1422 1.524 . S
C1419 C1411 1.503 1_655 S
C1419 C1418 1.370 . S
C1419 C1420 1.403 . S
C1420 C1419 1.403 . S
C1420 C1421 1.404 . S
C1420 C1423 1.539 . S
C1421 C1417 1.408 . S
C1421 C1420 1.404 . S
C1421 H1433 0.930 . S
C1422 C1418 1.524 . S
C1422 H1434 0.956 . S
C1422 H1435 0.961 1_655 S
C1422 H1436 0.961 . S
C1423 C1420 1.539 . S
C1423 H1437 0.958 . S
C1423 H1438 0.961 . S
C1423 H1439 0.960 1_655 S
H1424 C1408 0.931 . S
H1425 C1413 0.929 . S
H1426 C1414 0.960 . S
H1427 C1414 0.962 . S
H1428 C1414 0.960 . S
H1429 C1415 0.961 . S
H1430 C1415 0.961 . S
H1431 C1415 0.961 . S
H1432 C1416 0.931 . S
H1433 C1421 0.930 . S
H1434 C1422 0.956 . S
H1435 C1422 0.961 1_455 S
H1436 C1422 0.961 . S
H1437 C1423 0.958 . S
H1438 C1423 0.961 . S
H1439 C1423 0.960 1_455 S
C1440 C1441 1.391 . S
C1440 C1442 1.394 . S
C1440 H1456 0.931 . S
C1441 C1440 1.391 . S
C1441 C1445 1.376 . S
C1442 C1440 1.394 . S
C1442 C1443 1.369 . S
C1442 C1446 1.531 . S
C1443 C1442 1.369 . S
C1443 C1444 1.410 . S
C1443 C1451 1.503 . S
C1444 C1443 1.410 . S
C1444 C1445 1.392 . S
C1444 C1447 1.511 . S
C1445 C1441 1.376 . S
C1445 C1444 1.392 . S
C1445 H1457 0.929 . S
C1446 C1442 1.531 . S
C1446 H1458 0.960 . S
C1446 H1459 0.962 . S
C1446 H1460 0.960 . S
C1447 C1444 1.511 . S
C1447 H1461 0.961 . S
C1447 H1462 0.961 . S
C1447 H1463 0.961 . S
C1448 C1449 1.370 . S
C1448 C1450 1.363 . S
C1448 H1464 0.931 . S
C1449 C1448 1.370 . S
C1449 C1453 1.408 . S
C1450 C1448 1.363 . S
C1450 C1451 1.370 . S
C1450 C1454 1.524 . S
C1451 C1443 1.503 . S
C1451 C1450 1.370 . S
C1451 C1452 1.403 . S
C1452 C1451 1.403 . S
C1452 C1453 1.404 . S
C1452 C1455 1.539 . S
C1453 C1449 1.408 . S
C1453 C1452 1.404 . S
C1453 H1465 0.930 . S
C1454 C1450 1.524 . S
C1454 H1466 0.956 . S
C1454 H1467 0.961 . S
C1454 H1468 0.961 . S
C1455 C1452 1.539 . S
C1455 H1469 0.958 . S
C1455 H1470 0.961 . S
C1455 H1471 0.960 . S
H1456 C1440 0.931 . S
H1457 C1445 0.929 . S
H1458 C1446 0.960 . S
H1459 C1446 0.962 . S
H1460 C1446 0.960 . S
H1461 C1447 0.961 . S
H1462 C1447 0.961 . S
H1463 C1447 0.961 . S
H1464 C1448 0.931 . S
H1465 C1453 0.930 . S
H1466 C1454 0.956 . S
H1467 C1454 0.961 . S
H1468 C1454 0.961 . S
H1469 C1455 0.958 . S
H1470 C1455 0.961 . S
H1471 C1455 0.960 . S
C1472 C1473 1.391 . S
C1472 C1474 1.394 . S
C1472 H1488 0.931 . S
C1473 C1472 1.391 . S
C1473 C1477 1.376 . S
C1474 C1472 1.394 . S
C1474 C1475 1.369 . S
C1474 C1478 1.531 . S
C1475 C1474 1.369 . S
C1475 C1476 1.410 . S
C1475 C1483 1.503 . S
C1476 C1475 1.410 . S
C1476 C1477 1.392 . S
C1476 C1479 1.511 . S
C1477 C1473 1.376 . S
C1477 C1476 1.392 . S
C1477 H1489 0.929 . S
C1478 C1474 1.531 . S
C1478 H1490 0.960 . S
C1478 H1491 0.962 . S
C1478 H1492 0.960 . S
C1479 C1476 1.511 . S
C1479 H1493 0.961 . S
C1479 H1494 0.961 . S
C1479 H1495 0.961 . S
C1480 C1481 1.370 . S
C1480 C1482 1.363 . S
C1480 H1496 0.931 . S
C1481 C1480 1.370 . S
C1481 C1485 1.408 . S
C1482 C1480 1.363 . S
C1482 C1483 1.370 . S
C1482 C1486 1.524 . S
C1483 C1475 1.503 . S
C1483 C1482 1.370 . S
C1483 C1484 1.403 . S
C1484 C1483 1.403 . S
C1484 C1485 1.404 . S
C1484 C1487 1.539 . S
C1485 C1481 1.408 . S
C1485 C1484 1.404 . S
C1485 H1497 0.930 . S
C1486 C1482 1.524 . S
C1486 H1498 0.956 . S
C1486 H1499 0.961 . S
C1486 H1500 0.961 . S
C1487 C1484 1.539 . S
C1487 H1501 0.958 . S
C1487 H1502 0.961 . S
C1487 H1503 0.960 . S
H1488 C1472 0.931 . S
H1489 C1477 0.929 . S
H1490 C1478 0.960 . S
H1491 C1478 0.962 . S
H1492 C1478 0.960 . S
H1493 C1479 0.961 . S
H1494 C1479 0.961 . S
H1495 C1479 0.961 . S
H1496 C1480 0.931 . S
H1497 C1485 0.930 . S
H1498 C1486 0.956 . S
H1499 C1486 0.961 . S
H1500 C1486 0.961 . S
H1501 C1487 0.958 . S
H1502 C1487 0.961 . S
H1503 C1487 0.960 . S
C1504 C1505 1.391 . S
C1504 C1506 1.394 . S
C1504 H1520 0.931 . S
C1505 C1504 1.391 . S
C1505 C1509 1.376 . S
C1506 C1504 1.394 . S
C1506 C1507 1.369 . S
C1506 C1510 1.531 . S
C1507 C1506 1.369 . S
C1507 C1508 1.410 . S
C1507 C1515 1.503 . S
C1508 C1507 1.410 . S
C1508 C1509 1.392 . S
C1508 C1511 1.511 . S
C1509 C1505 1.376 . S
C1509 C1508 1.392 . S
C1509 H1521 0.929 . S
C1510 C1506 1.531 . S
C1510 H1522 0.960 . S
C1510 H1523 0.962 . S
C1510 H1524 0.960 . S
C1511 C1508 1.511 . S
C1511 H1525 0.961 . S
C1511 H1526 0.961 . S
C1511 H1527 0.961 . S
C1512 C1513 1.370 . S
C1512 C1514 1.363 . S
C1512 H1528 0.931 . S
C1513 C1512 1.370 . S
C1513 C1517 1.408 . S
C1514 C1512 1.363 . S
C1514 C1515 1.370 . S
C1514 C1518 1.524 . S
C1515 C1507 1.503 . S
C1515 C1514 1.370 . S
C1515 C1516 1.403 . S
C1516 C1515 1.403 . S
C1516 C1517 1.404 . S
C1516 C1519 1.539 . S
C1517 C1513 1.408 . S
C1517 C1516 1.404 . S
C1517 H1529 0.930 . S
C1518 C1514 1.524 . S
C1518 H1530 0.956 . S
C1518 H1531 0.961 . S
C1518 H1532 0.961 . S
C1519 C1516 1.539 . S
C1519 H1533 0.958 . S
C1519 H1534 0.961 . S
C1519 H1535 0.960 . S
H1520 C1504 0.931 . S
H1521 C1509 0.929 . S
H1522 C1510 0.960 . S
H1523 C1510 0.962 . S
H1524 C1510 0.960 . S
H1525 C1511 0.961 . S
H1526 C1511 0.961 . S
H1527 C1511 0.961 . S
H1528 C1512 0.931 . S
H1529 C1517 0.930 . S
H1530 C1518 0.956 . S
H1531 C1518 0.961 . S
H1532 C1518 0.961 . S
H1533 C1519 0.958 . S
H1534 C1519 0.961 . S
H1535 C1519 0.960 . S
C1536 C1537 1.391 . S
C1536 C1538 1.394 . S
C1536 H1552 0.931 . S
C1537 C1536 1.391 . S
C1537 C1541 1.376 . S
C1538 C1536 1.394 . S
C1538 C1539 1.369 . S
C1538 C1542 1.531 . S
C1539 C1538 1.369 . S
C1539 C1540 1.410 . S
C1539 C1547 1.503 . S
C1540 C1539 1.410 . S
C1540 C1541 1.392 . S
C1540 C1543 1.511 . S
C1541 C1537 1.376 . S
C1541 C1540 1.392 . S
C1541 H1553 0.929 . S
C1542 C1538 1.531 . S
C1542 H1554 0.960 . S
C1542 H1555 0.962 . S
C1542 H1556 0.960 . S
C1543 C1540 1.511 . S
C1543 H1557 0.961 . S
C1543 H1558 0.961 . S
C1543 H1559 0.961 . S
C1544 C1545 1.370 . S
C1544 C1546 1.363 . S
C1544 H1560 0.931 . S
C1545 C1544 1.370 . S
C1545 C1549 1.408 . S
C1546 C1544 1.363 . S
C1546 C1547 1.370 . S
C1546 C1550 1.524 . S
C1547 C1539 1.503 . S
C1547 C1546 1.370 . S
C1547 C1548 1.403 . S
C1548 C1547 1.403 . S
C1548 C1549 1.404 . S
C1548 C1551 1.539 . S
C1549 C1545 1.408 . S
C1549 C1548 1.404 . S
C1549 H1561 0.930 . S
C1550 C1546 1.524 . S
C1550 H1562 0.956 . S
C1550 H1563 0.961 . S
C1550 H1564 0.961 . S
C1551 C1548 1.539 . S
C1551 H1565 0.958 . S
C1551 H1566 0.961 . S
C1551 H1567 0.960 . S
H1552 C1536 0.931 . S
H1553 C1541 0.929 . S
H1554 C1542 0.960 . S
H1555 C1542 0.962 . S
H1556 C1542 0.960 . S
H1557 C1543 0.961 . S
H1558 C1543 0.961 . S
H1559 C1543 0.961 . S
H1560 C1544 0.931 . S
H1561 C1549 0.930 . S
H1562 C1550 0.956 . S
H1563 C1550 0.961 . S
H1564 C1550 0.961 . S
H1565 C1551 0.958 . S
H1566 C1551 0.961 . S
H1567 C1551 0.960 . S
C1568 C1569 1.391 . S
C1568 C1570 1.394 . S
C1568 H1584 0.931 . S
C1569 C1568 1.391 . S
C1569 C1573 1.376 . S
C1570 C1568 1.394 . S
C1570 C1571 1.369 . S
C1570 C1574 1.531 . S
C1571 C1570 1.369 . S
C1571 C1572 1.410 . S
C1571 C1579 1.503 . S
C1572 C1571 1.410 . S
C1572 C1573 1.392 . S
C1572 C1575 1.511 . S
C1573 C1569 1.376 . S
C1573 C1572 1.392 . S
C1573 H1585 0.929 . S
C1574 C1570 1.531 . S
C1574 H1586 0.960 . S
C1574 H1587 0.962 . S
C1574 H1588 0.960 . S
C1575 C1572 1.511 . S
C1575 H1589 0.961 . S
C1575 H1590 0.961 . S
C1575 H1591 0.961 . S
C1576 C1577 1.370 . S
C1576 C1578 1.363 . S
C1576 H1592 0.931 . S
C1577 C1576 1.370 . S
C1577 C1581 1.408 . S
C1578 C1576 1.363 . S
C1578 C1579 1.370 . S
C1578 C1582 1.524 . S
C1579 C1571 1.503 . S
C1579 C1578 1.370 . S
C1579 C1580 1.403 . S
C1580 C1579 1.403 . S
C1580 C1581 1.404 . S
C1580 C1583 1.539 . S
C1581 C1577 1.408 . S
C1581 C1580 1.404 . S
C1581 H1593 0.930 . S
C1582 C1578 1.524 . S
C1582 H1594 0.956 . S
C1582 H1595 0.961 . S
C1582 H1596 0.961 . S
C1583 C1580 1.539 . S
C1583 H1597 0.958 . S
C1583 H1598 0.961 . S
C1583 H1599 0.960 . S
H1584 C1568 0.931 . S
H1585 C1573 0.929 . S
H1586 C1574 0.960 . S
H1587 C1574 0.962 . S
H1588 C1574 0.960 . S
H1589 C1575 0.961 . S
H1590 C1575 0.961 . S
H1591 C1575 0.961 . S
H1592 C1576 0.931 . S
H1593 C1581 0.930 . S
H1594 C1582 0.956 . S
H1595 C1582 0.961 . S
H1596 C1582 0.961 . S
H1597 C1583 0.958 . S
H1598 C1583 0.961 . S
H1599 C1583 0.960 . S
C1600 C1601 1.391 . S
C1600 C1602 1.394 . S
C1600 H1616 0.931 . S
C1601 C1600 1.391 . S
C1601 C1605 1.376 . S
C1602 C1600 1.394 . S
C1602 C1603 1.369 . S
C1602 C1606 1.531 . S
C1603 C1602 1.369 . S
C1603 C1604 1.410 . S
C1603 C1611 1.503 . S
C1604 C1603 1.410 . S
C1604 C1605 1.392 . S
C1604 C1607 1.511 . S
C1605 C1601 1.376 . S
C1605 C1604 1.392 . S
C1605 H1617 0.929 . S
C1606 C1602 1.531 . S
C1606 H1618 0.960 . S
C1606 H1619 0.962 . S
C1606 H1620 0.960 . S
C1607 C1604 1.511 . S
C1607 H1621 0.961 . S
C1607 H1622 0.961 . S
C1607 H1623 0.961 . S
C1608 C1609 1.370 . S
C1608 C1610 1.363 . S
C1608 H1624 0.931 . S
C1609 C1608 1.370 . S
C1609 C1613 1.408 . S
C1610 C1608 1.363 . S
C1610 C1611 1.370 . S
C1610 C1614 1.524 . S
C1611 C1603 1.503 . S
C1611 C1610 1.370 . S
C1611 C1612 1.403 . S
C1612 C1611 1.403 . S
C1612 C1613 1.404 . S
C1612 C1615 1.539 . S
C1613 C1609 1.408 . S
C1613 C1612 1.404 . S
C1613 H1625 0.930 . S
C1614 C1610 1.524 . S
C1614 H1626 0.956 . S
C1614 H1627 0.961 . S
C1614 H1628 0.961 . S
C1615 C1612 1.539 . S
C1615 H1629 0.958 . S
C1615 H1630 0.961 . S
C1615 H1631 0.960 . S
H1616 C1600 0.931 . S
H1617 C1605 0.929 . S
H1618 C1606 0.960 . S
H1619 C1606 0.962 . S
H1620 C1606 0.960 . S
H1621 C1607 0.961 . S
H1622 C1607 0.961 . S
H1623 C1607 0.961 . S
H1624 C1608 0.931 . S
H1625 C1613 0.930 . S
H1626 C1614 0.956 . S
H1627 C1614 0.961 . S
H1628 C1614 0.961 . S
H1629 C1615 0.958 . S
H1630 C1615 0.961 . S
H1631 C1615 0.960 . S
C481 C18 1.039 . S
C489 C338 1.067 . S
C513 C58 1.007 . S
C521 C378 1.038 . S
C545 C98 1.005 . S
C553 C418 1.057 . S
C577 C458 1.002 . S
C585 C138 1.055 . S
C609 C178 1.034 . S
C617 C258 1.030 . S
C641 C298 1.005 . S
C649 C218 1.039 . S
C673 C405 1.634 . S
C681 C5 1.612 . S
C705 C445 1.586 . S
C713 C45 1.604 . S
C737 C85 1.623 . S
C745 C245 1.614 . S
C769 C285 1.631 . S
C777 C125 1.613 . S
C801 C325 1.641 . S
C809 C165 1.601 . S
C833 C205 1.605 . S
C841 C365 1.614 . S
C865 C289 4.302 . S
C873 C9 4.318 . S
C897 C329 4.309 . S
C905 C49 4.310 . S
C929 C369 4.300 . S
C937 C89 4.317 . S
C961 C129 4.302 . S
C969 C409 4.318 . S
C993 C169 4.302 . S
C1001 C449 4.311 . S
C1025 C209 4.318 . S
C1033 C249 4.313 . S
C1057 C8 0.583 . S
C1065 C128 0.585 . S
C1089 C48 0.659 . S
C1097 C168 0.526 . S
C1121 C88 0.600 . S
C1129 C208 0.579 . S
C1153 C368 0.646 . S
C1161 C248 0.522 . S
C1185 C288 0.478 . S
C1193 C408 0.604 . S
C1217 C448 0.545 . S
C1225 C328 0.597 . S
C1249 C295 0.746 . S
C1257 C15 0.644 . S
C1281 C335 0.603 . S
C1289 C55 0.679 . S
C1313 C95 0.618 . S
C1321 C375 0.661 . S
C1345 C415 0.758 . S
C1353 C135 0.658 . S
C1377 C455 0.752 . S
C1385 C175 0.675 . S
C1409 C215 0.656 . S
C1417 C255 0.645 . S
C1441 C19 4.653 . S
C1449 C419 4.657 . S
C1473 C59 4.651 . S
C1481 C459 4.657 1_556 S
C1505 C99 4.650 1_554 S
C1513 C259 4.655 . S
C1537 C139 4.653 . S
C1545 C299 4.657 . S
C1569 C179 4.650 . S
C1577 C339 4.657 1_556 S
C1601 C379 4.648 . S
C1609 C219 4.657 1_554 S
