# Generated by pormake.
# Topology qtz, (4)-cn, num edge types: 1
# Building blocks:
#     Node 0, Type 0, BuildingBlock: UXUYUI_clean_sbu_0, # of connection points: 4
#     Node 1, Type 0, BuildingBlock: UXUYUI_clean_sbu_0, # of connection points: 4
#     Node 2, Type 0, BuildingBlock: UXUYUI_clean_sbu_0, # of connection points: 4
#     Edge 3, Type (0, 0), BuildingBlock: ZUJKAS_clean_linker_0, # of connection points: 2
#     Edge 4, Type (0, 0), BuildingBlock: ZUJKAS_clean_linker_0, # of connection points: 2
#     Edge 5, Type (0, 0), BuildingBlock: ZUJKAS_clean_linker_0, # of connection points: 2
#     Edge 6, Type (0, 0), BuildingBlock: ZUJKAS_clean_linker_0, # of connection points: 2
#     Edge 7, Type (0, 0), BuildingBlock: ZUJKAS_clean_linker_0, # of connection points: 2
#     Edge 8, Type (0, 0), BuildingBlock: ZUJKAS_clean_linker_0, # of connection points: 2
# Relax obj value: 0.181
# Max RMSD: 0.212
# Mean RMSD: 0.212
data_MOF--net-qtz--node1-UXUYUI_clean_sbu_0--edge1-ZUJKAS_clean_linker_0
_symmetry_space_group_name_H-M    P1
_symmetry_Int_Tables_number       1
_symmetry_cell_setting            triclinic
loop_
_symmetry_equiv_pos_as_xyz
'x, y, z'
_cell_length_a     41.103508
_cell_length_b     41.103666
_cell_length_c     49.068362
_cell_angle_alpha  89.982328
_cell_angle_beta   89.984542
_cell_angle_gamma 120.00871
loop_
_atom_site_label
_atom_site_type_symbol
_atom_site_fract_x
_atom_site_fract_y
_atom_site_fract_z
_atom_type_partial_charge
Li0 Li 0.02541 0.48902 0.14848 0.0
Li1 Li 0.02545 0.53165 0.18333 0.0
Li2 Li 0.9773 0.46317 0.1828 0.0
Li3 Li 0.97422 0.50583 0.14966 0.0
C4 C 0.06142 0.48066 0.19172 0.0
N5 N 0.12058 0.46724 0.19738 0.0
C6 C 0.09608 0.50887 0.20152 0.0
C7 C 0.05671 0.44547 0.18515 0.0
C8 C 0.12568 0.50157 0.20416 0.0
C9 C 0.087 0.43929 0.18804 0.0
C10 C 0.0508 0.57464 0.13419 0.0
C11 C 0.05964 0.63619 0.1248 0.0
N12 N 0.09501 0.64753 0.11575 0.0
C13 C 0.08703 0.58676 0.12437 0.0
C14 C 0.03681 0.59942 0.13405 0.0
C15 C 0.10902 0.62376 0.11532 0.0
C16 C 0.03908 0.45465 0.10402 0.0
N17 N 0.05601 0.47931 0.12479 0.0
C18 C 0.11631 0.49058 0.11054 0.0
C19 C 0.09387 0.4974 0.12825 0.0
C20 C 0.09969 0.46539 0.08875 0.0
C21 C 0.06048 0.44724 0.08566 0.0
H22 H 0.00897 0.44114 0.10147 0.0
H23 H 0.10672 0.51738 0.14463 0.0
C24 C 0.04194 0.57787 0.22959 0.0
N25 N 0.05595 0.57396 0.2055 0.0
C26 C 0.06342 0.60899 0.24614 0.0
C27 C 0.11377 0.63083 0.21317 0.0
C28 C 0.0913 0.59934 0.19727 0.0
C29 C 0.09982 0.63605 0.23792 0.0
H30 H 0.01404 0.55683 0.23596 0.0
H31 H 0.10237 0.5948 0.17864 0.0
C32 C 0.94301 0.41986 0.13985 0.0
N33 N 0.88693 0.34565 0.13537 0.0
C34 C 0.90617 0.41093 0.13405 0.0
C35 C 0.95144 0.39108 0.14295 0.0
C36 C 0.87818 0.37323 0.13196 0.0
C37 C 0.92266 0.35373 0.14074 0.0
C38 C 0.95075 0.52386 0.19852 0.0
C39 C 0.9161 0.50295 0.21161 0.0
C40 C 0.96552 0.56238 0.19454 0.0
C41 C 0.89647 0.52081 0.21999 0.0
C42 C 0.94508 0.57924 0.20323 0.0
N43 N 0.91122 0.55827 0.21564 0.0
C44 C 0.96287 0.40516 0.22049 0.0
C45 C 0.90915 0.40564 0.20346 0.0
C46 C 0.94031 0.37349 0.23631 0.0
N47 N 0.94697 0.42039 0.20447 0.0
C48 C 0.88554 0.374 0.21885 0.0
C49 C 0.90107 0.35752 0.2356 0.0
H50 H 0.99306 0.41768 0.22111 0.0
H51 H 0.89733 0.41858 0.19072 0.0
C52 C 0.95485 0.5324 0.10337 0.0
N53 N 0.94216 0.51595 0.12808 0.0
C54 C 0.93179 0.53939 0.08641 0.0
C55 C 0.88288 0.51191 0.12055 0.0
C56 C 0.90691 0.50552 0.13684 0.0
C57 C 0.8952 0.5289 0.09491 0.0
H58 H 0.98273 0.53962 0.09668 0.0
H59 H 0.89712 0.49148 0.15621 0.0
O60 O 0.03219 0.4874 0.18887 0.0
O61 O 0.02888 0.53841 0.14307 0.0
O62 O 0.97069 0.4566 0.14241 0.0
O63 O 0.97018 0.50669 0.18999 0.0
H64 H 0.10014 0.53611 0.20699 0.0
H65 H 0.03004 0.42325 0.17776 0.0
H66 H 0.15271 0.5232 0.21159 0.0
H67 H 0.08381 0.41226 0.18285 0.0
H68 H 0.04916 0.65565 0.12468 0.0
H69 H 0.09821 0.56794 0.12396 0.0
H70 H 0.00845 0.59031 0.14062 0.0
H71 H 0.13722 0.63357 0.10791 0.0
H72 H 0.14636 0.50492 0.11394 0.0
H73 H 0.0465 0.42816 0.06888 0.0
H74 H 0.05156 0.61194 0.26506 0.0
H75 H 0.14205 0.65044 0.20643 0.0
H76 H 0.89919 0.43283 0.13141 0.0
H77 H 0.97986 0.39749 0.14709 0.0
H78 H 0.8495 0.36591 0.12768 0.0
H79 H 0.92875 0.33116 0.14328 0.0
H80 H 0.9044 0.47321 0.21521 0.0
H81 H 0.99273 0.5792 0.18522 0.0
H82 H 0.86952 0.5049 0.23 0.0
H83 H 0.95622 0.60904 0.20024 0.0
H84 H 0.95339 0.36155 0.24886 0.0
H85 H 0.8555 0.36305 0.21808 0.0
H86 H 0.94213 0.55189 0.06658 0.0
H87 H 0.85491 0.50346 0.1279 0.0
Li88 Li 0.52916 0.02539 0.47895 0.0
Li89 Li 0.48594 0.02494 0.51384 0.0
Li90 Li 0.50247 0.97599 0.51216 0.0
Li91 Li 0.46403 0.97993 0.47805 0.0
C92 C 0.56115 0.06597 0.52755 0.0
N93 N 0.61063 0.13847 0.54435 0.0
C94 C 0.56311 0.09654 0.51355 0.0
C95 C 0.58433 0.07229 0.5501 0.0
C96 C 0.58831 0.13297 0.52236 0.0
C97 C 0.60918 0.10915 0.55826 0.0
C98 C 0.45995 0.03803 0.46028 0.0
C99 C 0.39883 0.03272 0.45828 0.0
N100 N 0.40386 0.04091 0.43121 0.0
C101 C 0.46457 0.04653 0.43248 0.0
C102 C 0.42685 0.03113 0.47333 0.0
C103 C 0.43587 0.0478 0.41813 0.0
C104 C 0.56485 0.05212 0.42931 0.0
N105 N 0.5717 0.05433 0.45651 0.0
C106 C 0.63733 0.09532 0.449 0.0
C107 C 0.60719 0.07464 0.46657 0.0
C108 C 0.6309 0.09443 0.42084 0.0
C109 C 0.59415 0.07212 0.41099 0.0
H110 H 0.53654 0.03461 0.42187 0.0
H111 H 0.61226 0.07466 0.48815 0.0
C112 C 0.46507 0.04251 0.56343 0.0
N113 N 0.47504 0.05447 0.53736 0.0
C114 C 0.45733 0.06373 0.58173 0.0
C115 C 0.47007 0.10896 0.54584 0.0
C116 C 0.47766 0.08692 0.52828 0.0
C117 C 0.45987 0.09748 0.57298 0.0
H118 H 0.46332 0.01654 0.56999 0.0
H119 H 0.48592 0.09581 0.50744 0.0
C120 C 0.53446 0.96325 0.46676 0.0
N121 N 0.59125 0.94786 0.45538 0.0
C122 C 0.53053 0.93914 0.44535 0.0
C123 C 0.56731 0.97956 0.48239 0.0
C124 C 0.55954 0.9317 0.43992 0.0
C125 C 0.59568 0.97142 0.47631 0.0
C126 C 0.42658 0.93341 0.52255 0.0
C127 C 0.425 0.90505 0.50591 0.0
C128 C 0.40225 0.92389 0.54479 0.0
C129 C 0.39905 0.86757 0.51183 0.0
C130 C 0.37669 0.88607 0.55004 0.0
N131 N 0.37563 0.85894 0.53359 0.0
C132 C 0.52198 0.95454 0.56064 0.0
C133 C 0.50592 0.91032 0.52486 0.0
C134 C 0.52765 0.93134 0.57841 0.0
N135 N 0.51122 0.94362 0.5345 0.0
C136 C 0.51126 0.88625 0.54191 0.0
C137 C 0.52206 0.89657 0.56913 0.0
H138 H 0.52579 0.98115 0.56771 0.0
H139 H 0.49702 0.90216 0.50404 0.0
C140 C 0.43169 0.94707 0.42817 0.0
N141 N 0.42337 0.95267 0.4539 0.0
C142 C 0.40298 0.92725 0.40941 0.0
C143 C 0.35774 0.9197 0.444 0.0
C144 C 0.38735 0.93979 0.46206 0.0
C145 C 0.36541 0.91306 0.41734 0.0
H146 H 0.46069 0.95793 0.42231 0.0
H147 H 0.38166 0.94519 0.48257 0.0
O148 O 0.53638 0.02994 0.51964 0.0
O149 O 0.48728 0.03567 0.47458 0.0
O150 O 0.5062 0.9708 0.47207 0.0
O151 O 0.45184 0.97038 0.51738 0.0
H152 H 0.54558 0.0923 0.49599 0.0
H153 H 0.58311 0.04893 0.56118 0.0
H154 H 0.59013 0.15687 0.5117 0.0
H155 H 0.62729 0.11445 0.57568 0.0
H156 H 0.37298 0.02719 0.46808 0.0
H157 H 0.48998 0.05204 0.42204 0.0
H158 H 0.4225 0.0239 0.49473 0.0
H159 H 0.43903 0.05424 0.39658 0.0
H160 H 0.6654 0.1116 0.45731 0.0
H161 H 0.58799 0.07072 0.38942 0.0
H162 H 0.44927 0.05377 0.60243 0.0
H163 H 0.47291 0.13507 0.5384 0.0
H164 H 0.50528 0.92633 0.43306 0.0
H165 H 0.57097 -0.00174 0.49905 0.0
H166 H 0.55686 0.91308 0.42341 0.0
H167 H 0.62124 0.98385 0.48823 0.0
H168 H 0.44354 0.91179 0.4886 0.0
H169 H 0.40316 0.94553 0.55788 0.0
H170 H 0.39754 0.84535 0.49912 0.0
H171 H 0.3577 0.8783 0.5672 0.0
H172 H 0.53632 0.94053 0.59917 0.0
H173 H 0.50608 0.85946 0.53404 0.0
H174 H 0.41006 0.92236 0.38914 0.0
H175 H 0.32919 0.90961 0.45079 0.0
Li176 Li 0.49383 0.46862 0.81521 0.0
Li177 Li 0.53328 0.51409 0.8498 0.0
Li178 Li 0.46698 0.49259 0.84835 0.0
Li179 Li 0.5108 0.53389 0.81342 0.0
C180 C 0.50374 0.43895 0.86421 0.0
N181 N 0.53096 0.39313 0.88173 0.0
C182 C 0.53595 0.44169 0.85227 0.0
C183 C 0.48545 0.4129 0.88508 0.0
C184 C 0.54925 0.4183 0.86142 0.0
C185 C 0.49962 0.38997 0.89363 0.0
C186 C 0.57011 0.53535 0.79156 0.0
C187 C 0.61854 0.59654 0.77649 0.0
N188 N 0.61985 0.58154 0.7521 0.0
C189 C 0.57239 0.52047 0.7665 0.0
C190 C 0.59381 0.57359 0.79675 0.0
C191 C 0.59755 0.54429 0.74676 0.0
C192 C 0.48163 0.43093 0.76588 0.0
N193 N 0.48143 0.42578 0.79324 0.0
C194 C 0.46122 0.36077 0.78693 0.0
C195 C 0.47052 0.39132 0.80399 0.0
C196 C 0.46263 0.3656 0.75854 0.0
C197 C 0.4726 0.40119 0.74804 0.0
H198 H 0.48879 0.45826 0.75792 0.0
H199 H 0.46847 0.38718 0.82575 0.0
C200 C 0.5639 0.51604 0.90094 0.0
N201 N 0.57321 0.52631 0.8745 0.0
C202 C 0.59153 0.5216 0.9198 0.0
C203 C 0.63795 0.54859 0.88392 0.0
C204 C 0.60935 0.54249 0.86573 0.0
C205 C 0.62906 0.5376 0.91128 0.0
H206 H 0.53481 0.50278 0.90723 0.0
H207 H 0.61585 0.54969 0.84449 0.0
C208 C 0.42546 0.46071 0.80119 0.0
N209 N 0.35494 0.4031 0.78698 0.0
C210 C 0.40654 0.46484 0.779 0.0
C211 C 0.40857 0.42723 0.81613 0.0
C212 C 0.37089 0.4354 0.77215 0.0
C213 C 0.37289 0.39846 0.80863 0.0
C214 C 0.52557 0.56596 0.87502 0.0
C215 C 0.50722 0.55562 0.90019 0.0
C216 C 0.56157 0.59746 0.87339 0.0
C217 C 0.52543 0.57654 0.92338 0.0
C218 C 0.57887 0.61762 0.89704 0.0
N219 N 0.56061 0.60681 0.92135 0.0
C220 C 0.41699 0.46111 0.89228 0.0
C221 C 0.39849 0.49017 0.85873 0.0
C222 C 0.38522 0.45221 0.90783 0.0
N223 N 0.42308 0.48001 0.86841 0.0
C224 C 0.36614 0.48155 0.87349 0.0
C225 C 0.35935 0.46263 0.89856 0.0
H226 H 0.43732 0.45378 0.89952 0.0
H227 H 0.40412 0.50509 0.83958 0.0
C228 C 0.51397 0.56502 0.76196 0.0
N229 N 0.51972 0.57298 0.78899 0.0
C230 C 0.51909 0.59293 0.74342 0.0
C231 C 0.53611 0.63662 0.78097 0.0
C232 C 0.53068 0.60787 0.79876 0.0
C233 C 0.52998 0.62922 0.75291 0.0
H234 H 0.50498 0.53683 0.7549 0.0
H235 H 0.5348 0.61325 0.82039 0.0
O236 O 0.49047 0.46203 0.85604 0.0
O237 O 0.54525 0.51252 0.81104 0.0
O238 O 0.46054 0.48923 0.80791 0.0
O239 O 0.50841 0.54535 0.85215 0.0
H240 H 0.55061 0.4616 0.83613 0.0
H241 H 0.46052 0.41033 0.89456 0.0
H242 H 0.57412 0.42015 0.85237 0.0
H243 H 0.48571 0.36968 0.90974 0.0
H244 H 0.63669 0.62626 0.78016 0.0
H245 H 0.55526 0.4908 0.76237 0.0
H246 H 0.59278 0.58552 0.81609 0.0
H247 H 0.59944 0.53314 0.72723 0.0
H248 H 0.45267 0.33357 0.79589 0.0
H249 H 0.47404 0.4062 0.72629 0.0
H250 H 0.58352 0.51305 0.94076 0.0
H251 H 0.66645 0.56047 0.87644 0.0
H252 H 0.41934 0.49054 0.76718 0.0
H253 H 0.42283 0.42342 0.83328 0.0
H254 H 0.3559 0.43821 0.75502 0.0
H255 H 0.35949 0.37242 0.81999 0.0
H256 H 0.47934 0.53157 0.90191 0.0
H257 H 0.57616 0.60619 0.85413 0.0
H258 H 0.51161 0.56866 0.94301 0.0
H259 H 0.60683 0.64187 0.89607 0.0
H260 H 0.38156 0.43826 0.92724 0.0
H261 H 0.34674 0.48967 0.86537 0.0
H262 H 0.51356 0.5859 0.72201 0.0
H263 H 0.54488 0.66429 0.78909 0.0
H264 H 0.31474 0.40038 0.92964 0.0
H265 H 0.26409 0.39119 0.96059 0.0
H266 H 0.27867 0.49864 0.93672 0.0
H267 H 0.32993 0.50867 0.90641 0.0
H268 H 0.27425 0.44287 0.00443 0.0
H269 H 0.16305 0.42411 0.93134 0.0
H270 H 0.20138 0.41662 0.92208 0.0
H271 H 0.20879 0.46348 0.92421 0.0
C272 C 0.30717 0.42207 0.93095 0.0
C273 C 0.32648 0.45532 0.91556 0.0
C274 C 0.27806 0.41661 0.94847 0.0
C275 C 0.26746 0.44403 0.95061 0.0
C276 C 0.28601 0.47682 0.93489 0.0
H277 H 0.16837 0.51713 0.06836 0.0
H278 H 0.20712 0.50672 0.03578 0.0
C279 C 0.31526 0.48245 0.91753 0.0
C280 C 0.23918 0.44009 0.97087 0.0
H281 H 0.15573 0.43845 0.97744 0.0
C282 C 0.24804 0.44129 -0.00141 0.0
C283 C 0.20503 0.43786 0.96307 0.0
C284 C 0.19371 0.4351 0.93356 0.0
C285 C 0.22437 0.4422 0.01875 0.0
C286 C 0.1912 0.44189 0.01088 0.0
C287 C 0.18139 0.43887 0.98327 0.0
C288 C 0.16778 0.4474 0.03099 0.0
C289 C 0.23533 0.4445 0.04832 0.0
C290 C 0.13286 0.41738 0.03887 0.0
C291 C 0.1108 0.42305 0.05784 0.0
C292 C 0.12323 0.45897 0.06895 0.0
C293 C 0.15824 0.48897 0.0607 0.0
C294 C 0.18034 0.48318 0.04195 0.0
H295 H 0.25814 0.43781 0.05131 0.0
H296 H 0.2453 0.47341 0.05592 0.0
H297 H 0.21068 0.42492 0.06081 0.0
H298 H 0.12285 0.38957 0.03051 0.0
H299 H 0.08421 0.39925 0.06398 0.0
H300 H 0.91215 0.34513 0.28865 0.0
H301 H 0.86861 0.29404 0.31836 0.0
H302 H 0.79036 0.24539 0.25177 0.0
H303 H 0.83392 0.29618 0.22179 0.0
H304 H 0.76001 0.25811 0.29896 0.0
H305 H 0.836 0.18156 0.32257 0.0
H306 H 0.86326 0.23153 0.32743 0.0
H307 H 0.84786 0.21293 0.29378 0.0
C308 C 0.88609 0.32307 0.28014 0.0
C309 C 0.87638 0.32475 0.25291 0.0
C310 C 0.86127 0.29388 0.29714 0.0
C311 C 0.82649 0.2658 0.28715 0.0
C312 C 0.81717 0.26679 0.25979 0.0
H313 H 0.64589 0.07367 0.37153 0.0
H314 H 0.69451 0.11382 0.33863 0.0
C315 C 0.84195 0.29592 0.24278 0.0
C316 C 0.79837 0.23761 0.30587 0.0
H317 H 0.78266 0.16726 0.35033 0.0
C318 C 0.7648 0.23802 0.31 0.0
C319 C 0.80477 0.21144 0.32015 0.0
C320 C 0.83977 0.20898 0.31564 0.0
C321 C 0.73782 0.21355 0.32862 0.0
C322 C 0.74473 0.18824 0.34349 0.0
C323 C 0.77779 0.18705 0.33894 0.0
C324 C 0.71784 0.16327 0.36416 0.0
C325 C 0.70215 0.21501 0.33252 0.0
C326 C 0.71553 0.1779 0.38941 0.0
C327 C 0.6879 0.15518 0.40816 0.0
C328 C 0.66205 0.11752 0.40185 0.0
C329 C 0.66517 0.10271 0.37678 0.0
C330 C 0.693 0.12543 0.35809 0.0
H331 H 0.69878 0.23257 0.3168 0.0
H332 H 0.67733 0.18624 0.3318 0.0
H333 H 0.70259 0.22698 0.35288 0.0
H334 H 0.73455 0.20714 0.3943 0.0
H335 H 0.68595 0.16743 0.4272 0.0
H336 H 0.55467 0.85381 0.55873 0.0
H337 H 0.5583 0.80854 0.58924 0.0
H338 H 0.5035 0.83625 0.65258 0.0
H339 H 0.4987 0.88063 0.62205 0.0
H340 H 0.59222 0.81989 0.64164 0.0
H341 H 0.4383 0.72137 0.64492 0.0
H342 H 0.46021 0.75791 0.61957 0.0
H343 H 0.45195 0.76903 0.65338 0.0
C344 C 0.54317 0.85006 0.5791 0.0
C345 C 0.52618 0.87062 0.58794 0.0
C346 C 0.54549 0.82441 0.59652 0.0
C347 C 0.53067 0.81875 0.62296 0.0
C348 C 0.51456 0.83985 0.63207 0.0
H349 H 0.50549 0.67917 0.76074 0.0
H350 H 0.50857 0.72621 0.72878 0.0
C351 C 0.51222 0.86548 0.6147 0.0
C352 C 0.53174 0.79056 0.64104 0.0
H353 H 0.47546 0.71023 0.67648 0.0
C354 C 0.56676 0.79574 0.64915 0.0
C355 C 0.49841 0.75909 0.65062 0.0
C356 C 0.46006 0.75121 0.64151 0.0
C357 C 0.5693 0.77078 0.66738 0.0
C358 C 0.53593 0.73971 0.67734 0.0
C359 C 0.50096 0.73425 0.66887 0.0
C360 C 0.53644 0.71276 0.69702 0.0
C361 C 0.60754 0.77837 0.67644 0.0
C362 C 0.55114 0.6897 0.68967 0.0
C363 C 0.54963 0.6629 0.70796 0.0
C364 C 0.53326 0.6587 0.73385 0.0
C365 C 0.51883 0.68212 0.74114 0.0
C366 C 0.52033 0.70882 0.72286 0.0
H367 H 0.62986 0.80755 0.67165 0.0
H368 H 0.6078 0.77361 0.6987 0.0
H369 H 0.61445 0.75879 0.66577 0.0
H370 H 0.56316 0.69196 0.66963 0.0
H371 H 0.56118 0.64543 0.70183 0.0
H372 H 0.70101 0.59634 0.91727 0.0
H373 H 0.74994 0.59952 0.94766 0.0
H374 H 0.67185 0.48953 0.97907 0.0
H375 H 0.62327 0.48568 0.94845 0.0
H376 H 0.74862 0.59212 0.00641 0.0
H377 H 0.76315 0.48111 0.95292 0.0
H378 H 0.74065 0.50473 0.93759 0.0
H379 H 0.71564 0.46756 0.96182 0.0
C380 C 0.69438 0.57279 0.93058 0.0
C381 C 0.65834 0.54073 0.93045 0.0
C382 C 0.72224 0.57475 0.94798 0.0
C383 C 0.71452 0.54455 0.96526 0.0
C384 C 0.67842 0.51289 0.96557 0.0
H385 H 0.82115 0.47937 0.08518 0.0
H386 H 0.77913 0.48677 0.05385 0.0
C387 C 0.6506 0.51093 0.94828 0.0
C388 C 0.74408 0.54573 0.98301 0.0
H389 H 0.79151 0.49927 -0.00326 0.0
C390 C 0.75841 0.57216 0.00419 0.0
C391 C 0.75674 0.51969 0.97987 0.0
C392 C 0.74355 0.49187 0.95667 0.0
C393 C 0.78401 0.57215 0.02312 0.0
C394 C 0.79575 0.54532 0.02043 0.0
C395 C 0.7822 0.51963 -0.00122 0.0
C396 C 0.82099 0.54232 0.04039 0.0
C397 C 0.79724 0.59982 0.04639 0.0
C398 C 0.85841 0.5712 0.04314 0.0
C399 C 0.88248 0.56714 0.06115 0.0
C400 C 0.86947 0.5341 0.07662 0.0
C401 C 0.83186 0.50539 0.07389 0.0
C402 C 0.80789 0.50945 0.05588 0.0
H403 H 0.78001 0.6136 0.04854 0.0
H404 H 0.79633 0.58567 0.06589 0.0
H405 H 0.82679 0.62199 0.04269 0.0
H406 H 0.86913 0.59655 0.03103 0.0
H407 H 0.91126 0.58982 0.06295 0.0
H408 H 0.36078 0.92645 0.36326 0.0
H409 H 0.31179 0.88581 0.33094 0.0
H410 H 0.2518 0.80737 0.3957 0.0
H411 H 0.30049 0.84776 0.42804 0.0
H412 H 0.29357 0.81392 0.31864 0.0
H413 H 0.16817 0.81552 0.3581 0.0
H414 H 0.21537 0.84981 0.36821 0.0
H415 H 0.19177 0.8041 0.3839 0.0
C416 C 0.33696 0.90068 0.37061 0.0
C417 C 0.33444 0.89025 0.39816 0.0
C418 C 0.30895 0.87764 0.35219 0.0
C419 C 0.27791 0.84391 0.36103 0.0
C420 C 0.27499 0.83378 0.3886 0.0
H421 H 0.10742 0.63764 0.29334 0.0
H422 H 0.14953 0.6912 0.32175 0.0
C423 C 0.3029 0.85684 0.40704 0.0
C424 C 0.25043 0.81751 0.34108 0.0
H425 H 0.15659 0.76516 0.32753 0.0
C426 C 0.26367 0.8037 0.32028 0.0
C427 C 0.21148 0.80422 0.34337 0.0
C428 C 0.19586 0.81946 0.36444 0.0
C429 C 0.23883 0.77571 0.3024 0.0
C430 C 0.19981 0.7616 0.30523 0.0
C431 C 0.18657 0.77607 0.32554 0.0
C432 C 0.17231 0.73038 0.28814 0.0
C433 C 0.25437 0.76033 0.28134 0.0
C434 C 0.17073 0.73505 0.25997 0.0
C435 C 0.14662 0.70457 0.24369 0.0
C436 C 0.12364 0.66895 0.25537 0.0
C437 C 0.12449 0.66475 0.28376 0.0
C438 C 0.14859 0.69526 0.3 0.0
H439 H 0.28432 0.76924 0.28519 0.0
H440 H 0.23785 0.72915 0.28096 0.0
H441 H 0.25234 0.77069 0.26088 0.0
H442 H 0.18848 0.76216 0.25056 0.0
H443 H 0.14608 0.70883 0.22195 0.0
H444 H 0.4229 0.34655 0.71068 0.0
H445 H 0.41324 0.29651 0.67895 0.0
H446 H 0.47455 0.26337 0.7327 0.0
H447 H 0.48473 0.31344 0.76431 0.0
H448 H 0.47071 0.29 0.65354 0.0
H449 H 0.37967 0.1633 0.71506 0.0
H450 H 0.3863 0.20912 0.7231 0.0
H451 H 0.42123 0.19711 0.73267 0.0
C452 C 0.43425 0.32854 0.71576 0.0
C453 C 0.45459 0.33394 0.74002 0.0
C454 C 0.42848 0.29986 0.69772 0.0
C455 C 0.44267 0.27594 0.70373 0.0
C456 C 0.46256 0.28095 0.72804 0.0
H457 H 0.48388 0.11474 0.62563 0.0
H458 H 0.47551 0.15662 0.65655 0.0
C459 C 0.46838 0.30961 0.74606 0.0
C460 C 0.43938 0.24763 0.68369 0.0
H461 H 0.40951 0.15433 0.67616 0.0
C462 C 0.45686 0.26025 0.65827 0.0
C463 C 0.42136 0.20893 0.69005 0.0
C464 C 0.40075 0.19369 0.71661 0.0
C465 C 0.45824 0.23535 0.63943 0.0
C466 C 0.44107 0.19676 0.64608 0.0
C467 C 0.42269 0.18397 0.6712 0.0
C468 C 0.44371 0.16961 0.6278 0.0
C469 C 0.47948 0.25078 0.61309 0.0
C470 C 0.4279 0.16252 0.60164 0.0
C471 C 0.43264 0.13862 0.58392 0.0
C472 C 0.45301 0.1212 0.5922 0.0
C473 C 0.46778 0.12749 0.61875 0.0
C474 C 0.46312 0.15147 0.6364 0.0
H475 H 0.49773 0.28183 0.61372 0.0
H476 H 0.49721 0.23813 0.60846 0.0
H477 H 0.45914 0.24373 0.59616 0.0
H478 H 0.41219 0.17573 0.59485 0.0
H479 H 0.4204 0.13378 0.56375 0.0
loop_
_geom_bond_atom_site_label_1
_geom_bond_atom_site_label_2
_geom_bond_distance
_geom_bond_site_symmetry_2
_ccdc_geom_bond_type
Li0 N17 1.990 . S
Li0 O60 1.956 . S
Li0 O61 1.970 . S
Li0 O62 1.961 1_455 S
Li1 N25 1.990 . S
Li1 O60 1.970 . S
Li1 O61 1.956 . S
Li1 O63 1.961 1_455 S
Li2 N47 1.990 . S
Li2 O60 1.961 1_655 S
Li2 O62 1.956 . S
Li2 O63 1.970 . S
Li3 N53 1.990 . S
Li3 O61 1.961 1_655 S
Li3 O62 1.970 . S
Li3 O63 1.956 . S
C4 C6 1.348 . S
C4 C7 1.356 . S
C4 O60 1.325 . S
N5 C8 1.314 . S
N5 C9 1.279 . S
C6 C4 1.348 . S
C6 C8 1.353 . S
C6 H64 0.929 . S
C7 C4 1.356 . S
C7 C9 1.358 . S
C7 H65 0.930 . S
C8 N5 1.314 . S
C8 C6 1.353 . S
C8 H66 0.930 . S
C9 N5 1.279 . S
C9 C7 1.358 . S
C9 H67 0.930 . S
C10 C13 1.348 . S
C10 C14 1.356 . S
C10 O61 1.325 . S
C11 N12 1.279 . S
C11 C14 1.358 . S
C11 H68 0.930 . S
N12 C11 1.279 . S
N12 C15 1.314 . S
C13 C10 1.348 . S
C13 C15 1.353 . S
C13 H69 0.929 . S
C14 C10 1.356 . S
C14 C11 1.358 . S
C14 H70 0.930 . S
C15 N12 1.314 . S
C15 C13 1.353 . S
C15 H71 0.930 . S
C16 N17 1.314 . S
C16 C21 1.353 . S
C16 H22 0.930 . S
N17 Li0 1.990 . S
N17 C16 1.314 . S
N17 C19 1.279 . S
C18 C19 1.358 . S
C18 C20 1.356 . S
C18 H72 0.930 . S
C19 N17 1.279 . S
C19 C18 1.358 . S
C19 H23 0.930 . S
C20 C18 1.356 . S
C20 C21 1.348 . S
C21 C16 1.353 . S
C21 C20 1.348 . S
C21 H73 0.929 . S
H22 C16 0.930 . S
H23 C19 0.930 . S
C24 N25 1.314 . S
C24 C26 1.353 . S
C24 H30 0.930 . S
N25 Li1 1.990 . S
N25 C24 1.314 . S
N25 C28 1.279 . S
C26 C24 1.353 . S
C26 C29 1.348 . S
C26 H74 0.929 . S
C27 C28 1.358 . S
C27 C29 1.356 . S
C27 H75 0.930 . S
C28 N25 1.279 . S
C28 C27 1.358 . S
C28 H31 0.930 . S
C29 C26 1.348 . S
C29 C27 1.356 . S
H30 C24 0.930 . S
H31 C28 0.930 . S
C32 C34 1.348 . S
C32 C35 1.356 . S
C32 O62 1.325 . S
N33 C36 1.314 . S
N33 C37 1.279 . S
C34 C32 1.348 . S
C34 C36 1.353 . S
C34 H76 0.929 . S
C35 C32 1.356 . S
C35 C37 1.358 . S
C35 H77 0.930 . S
C36 N33 1.314 . S
C36 C34 1.353 . S
C36 H78 0.930 . S
C37 N33 1.279 . S
C37 C35 1.358 . S
C37 H79 0.930 . S
C38 C39 1.348 . S
C38 C40 1.356 . S
C38 O63 1.325 . S
C39 C38 1.348 . S
C39 C41 1.353 . S
C39 H80 0.929 . S
C40 C38 1.356 . S
C40 C42 1.358 . S
C40 H81 0.930 . S
C41 C39 1.353 . S
C41 N43 1.314 . S
C41 H82 0.930 . S
C42 C40 1.358 . S
C42 N43 1.279 . S
C42 H83 0.930 . S
N43 C41 1.314 . S
N43 C42 1.279 . S
C44 C46 1.353 . S
C44 N47 1.314 . S
C44 H50 0.930 . S
C45 N47 1.279 . S
C45 C48 1.358 . S
C45 H51 0.930 . S
C46 C44 1.353 . S
C46 C49 1.348 . S
C46 H84 0.929 . S
N47 Li2 1.990 . S
N47 C44 1.314 . S
N47 C45 1.279 . S
C48 C45 1.358 . S
C48 C49 1.356 . S
C48 H85 0.930 . S
C49 C46 1.348 . S
C49 C48 1.356 . S
H50 C44 0.930 . S
H51 C45 0.930 . S
C52 N53 1.314 . S
C52 C54 1.353 . S
C52 H58 0.930 . S
N53 Li3 1.990 . S
N53 C52 1.314 . S
N53 C56 1.279 . S
C54 C52 1.353 . S
C54 C57 1.348 . S
C54 H86 0.929 . S
C55 C56 1.358 . S
C55 C57 1.356 . S
C55 H87 0.930 . S
C56 N53 1.279 . S
C56 C55 1.358 . S
C56 H59 0.930 . S
C57 C54 1.348 . S
C57 C55 1.356 . S
H58 C52 0.930 . S
H59 C56 0.930 . S
O60 Li0 1.956 . S
O60 Li1 1.970 . S
O60 Li2 1.961 1_455 S
O60 C4 1.325 . S
O61 Li0 1.970 . S
O61 Li1 1.956 . S
O61 Li3 1.961 1_455 S
O61 C10 1.325 . S
O62 Li0 1.961 1_655 S
O62 Li2 1.956 . S
O62 Li3 1.970 . S
O62 C32 1.325 . S
O63 Li1 1.961 1_655 S
O63 Li2 1.970 . S
O63 Li3 1.956 . S
O63 C38 1.325 . S
H64 C6 0.929 . S
H65 C7 0.930 . S
H66 C8 0.930 . S
H67 C9 0.930 . S
H68 C11 0.930 . S
H69 C13 0.929 . S
H70 C14 0.930 . S
H71 C15 0.930 . S
H72 C18 0.930 . S
H73 C21 0.929 . S
H74 C26 0.929 . S
H75 C27 0.930 . S
H76 C34 0.929 . S
H77 C35 0.930 . S
H78 C36 0.930 . S
H79 C37 0.930 . S
H80 C39 0.929 . S
H81 C40 0.930 . S
H82 C41 0.930 . S
H83 C42 0.930 . S
H84 C46 0.929 . S
H85 C48 0.930 . S
H86 C54 0.929 . S
H87 C55 0.930 . S
Li88 N105 1.990 . S
Li88 O148 1.956 . S
Li88 O149 1.970 . S
Li88 O150 1.961 1_545 S
Li89 N113 1.990 . S
Li89 O148 1.970 . S
Li89 O149 1.956 . S
Li89 O151 1.961 1_545 S
Li90 N135 1.990 . S
Li90 O148 1.961 1_565 S
Li90 O150 1.956 . S
Li90 O151 1.970 . S
Li91 N141 1.990 . S
Li91 O149 1.961 1_565 S
Li91 O150 1.970 . S
Li91 O151 1.956 . S
C92 C94 1.348 . S
C92 C95 1.356 . S
C92 O148 1.325 . S
N93 C96 1.314 . S
N93 C97 1.279 . S
C94 C92 1.348 . S
C94 C96 1.353 . S
C94 H152 0.929 . S
C95 C92 1.356 . S
C95 C97 1.358 . S
C95 H153 0.930 . S
C96 N93 1.314 . S
C96 C94 1.353 . S
C96 H154 0.930 . S
C97 N93 1.279 . S
C97 C95 1.358 . S
C97 H155 0.930 . S
C98 C101 1.348 . S
C98 C102 1.356 . S
C98 O149 1.325 . S
C99 N100 1.279 . S
C99 C102 1.358 . S
C99 H156 0.930 . S
N100 C99 1.279 . S
N100 C103 1.314 . S
C101 C98 1.348 . S
C101 C103 1.353 . S
C101 H157 0.929 . S
C102 C98 1.356 . S
C102 C99 1.358 . S
C102 H158 0.930 . S
C103 N100 1.314 . S
C103 C101 1.353 . S
C103 H159 0.930 . S
C104 N105 1.314 . S
C104 C109 1.353 . S
C104 H110 0.930 . S
N105 Li88 1.990 . S
N105 C104 1.314 . S
N105 C107 1.279 . S
C106 C107 1.358 . S
C106 C108 1.356 . S
C106 H160 0.930 . S
C107 N105 1.279 . S
C107 C106 1.358 . S
C107 H111 0.930 . S
C108 C106 1.356 . S
C108 C109 1.348 . S
C109 C104 1.353 . S
C109 C108 1.348 . S
C109 H161 0.929 . S
H110 C104 0.930 . S
H111 C107 0.930 . S
C112 N113 1.314 . S
C112 C114 1.353 . S
C112 H118 0.930 . S
N113 Li89 1.990 . S
N113 C112 1.314 . S
N113 C116 1.279 . S
C114 C112 1.353 . S
C114 C117 1.348 . S
C114 H162 0.929 . S
C115 C116 1.358 . S
C115 C117 1.356 . S
C115 H163 0.930 . S
C116 N113 1.279 . S
C116 C115 1.358 . S
C116 H119 0.930 . S
C117 C114 1.348 . S
C117 C115 1.356 . S
H118 C112 0.930 . S
H119 C116 0.930 . S
C120 C122 1.348 . S
C120 C123 1.356 . S
C120 O150 1.325 . S
N121 C124 1.314 . S
N121 C125 1.279 . S
C122 C120 1.348 . S
C122 C124 1.353 . S
C122 H164 0.929 . S
C123 C120 1.356 . S
C123 C125 1.358 . S
C123 H165 0.930 . S
C124 N121 1.314 . S
C124 C122 1.353 . S
C124 H166 0.930 . S
C125 N121 1.279 . S
C125 C123 1.358 . S
C125 H167 0.930 . S
C126 C127 1.348 . S
C126 C128 1.356 . S
C126 O151 1.325 . S
C127 C126 1.348 . S
C127 C129 1.353 . S
C127 H168 0.929 . S
C128 C126 1.356 . S
C128 C130 1.358 . S
C128 H169 0.930 . S
C129 C127 1.353 . S
C129 N131 1.314 . S
C129 H170 0.930 . S
C130 C128 1.358 . S
C130 N131 1.279 . S
C130 H171 0.930 . S
N131 C129 1.314 . S
N131 C130 1.279 . S
C132 C134 1.353 . S
C132 N135 1.314 . S
C132 H138 0.930 . S
C133 N135 1.279 . S
C133 C136 1.358 . S
C133 H139 0.930 . S
C134 C132 1.353 . S
C134 C137 1.348 . S
C134 H172 0.929 . S
N135 Li90 1.990 . S
N135 C132 1.314 . S
N135 C133 1.279 . S
C136 C133 1.358 . S
C136 C137 1.356 . S
C136 H173 0.930 . S
C137 C134 1.348 . S
C137 C136 1.356 . S
H138 C132 0.930 . S
H139 C133 0.930 . S
C140 N141 1.314 . S
C140 C142 1.353 . S
C140 H146 0.930 . S
N141 Li91 1.990 . S
N141 C140 1.314 . S
N141 C144 1.279 . S
C142 C140 1.353 . S
C142 C145 1.348 . S
C142 H174 0.929 . S
C143 C144 1.358 . S
C143 C145 1.356 . S
C143 H175 0.930 . S
C144 N141 1.279 . S
C144 C143 1.358 . S
C144 H147 0.930 . S
C145 C142 1.348 . S
C145 C143 1.356 . S
H146 C140 0.930 . S
H147 C144 0.930 . S
O148 Li88 1.956 . S
O148 Li89 1.970 . S
O148 Li90 1.961 1_545 S
O148 C92 1.325 . S
O149 Li88 1.970 . S
O149 Li89 1.956 . S
O149 Li91 1.961 1_545 S
O149 C98 1.325 . S
O150 Li88 1.961 1_565 S
O150 Li90 1.956 . S
O150 Li91 1.970 . S
O150 C120 1.325 . S
O151 Li89 1.961 1_565 S
O151 Li90 1.970 . S
O151 Li91 1.956 . S
O151 C126 1.325 . S
H152 C94 0.929 . S
H153 C95 0.930 . S
H154 C96 0.930 . S
H155 C97 0.930 . S
H156 C99 0.930 . S
H157 C101 0.929 . S
H158 C102 0.930 . S
H159 C103 0.930 . S
H160 C106 0.930 . S
H161 C109 0.929 . S
H162 C114 0.929 . S
H163 C115 0.930 . S
H164 C122 0.929 . S
H165 C123 0.930 . S
H166 C124 0.930 . S
H167 C125 0.930 . S
H168 C127 0.929 . S
H169 C128 0.930 . S
H170 C129 0.930 . S
H171 C130 0.930 . S
H172 C134 0.929 . S
H173 C136 0.930 . S
H174 C142 0.929 . S
H175 C143 0.930 . S
Li176 N193 1.990 . S
Li176 O236 1.956 . S
Li176 O237 1.970 . S
Li176 O238 1.961 . S
Li177 N201 1.990 . S
Li177 O236 1.970 . S
Li177 O237 1.956 . S
Li177 O239 1.961 . S
Li178 N223 1.990 . S
Li178 O236 1.961 . S
Li178 O238 1.956 . S
Li178 O239 1.970 . S
Li179 N229 1.990 . S
Li179 O237 1.961 . S
Li179 O238 1.970 . S
Li179 O239 1.956 . S
C180 C182 1.348 . S
C180 C183 1.356 . S
C180 O236 1.325 . S
N181 C184 1.314 . S
N181 C185 1.279 . S
C182 C180 1.348 . S
C182 C184 1.353 . S
C182 H240 0.929 . S
C183 C180 1.356 . S
C183 C185 1.358 . S
C183 H241 0.930 . S
C184 N181 1.314 . S
C184 C182 1.353 . S
C184 H242 0.930 . S
C185 N181 1.279 . S
C185 C183 1.358 . S
C185 H243 0.930 . S
C186 C189 1.348 . S
C186 C190 1.356 . S
C186 O237 1.325 . S
C187 N188 1.279 . S
C187 C190 1.358 . S
C187 H244 0.930 . S
N188 C187 1.279 . S
N188 C191 1.314 . S
C189 C186 1.348 . S
C189 C191 1.353 . S
C189 H245 0.929 . S
C190 C186 1.356 . S
C190 C187 1.358 . S
C190 H246 0.930 . S
C191 N188 1.314 . S
C191 C189 1.353 . S
C191 H247 0.930 . S
C192 N193 1.314 . S
C192 C197 1.353 . S
C192 H198 0.930 . S
N193 Li176 1.990 . S
N193 C192 1.314 . S
N193 C195 1.279 . S
C194 C195 1.358 . S
C194 C196 1.356 . S
C194 H248 0.930 . S
C195 N193 1.279 . S
C195 C194 1.358 . S
C195 H199 0.930 . S
C196 C194 1.356 . S
C196 C197 1.348 . S
C197 C192 1.353 . S
C197 C196 1.348 . S
C197 H249 0.929 . S
H198 C192 0.930 . S
H199 C195 0.930 . S
C200 N201 1.314 . S
C200 C202 1.353 . S
C200 H206 0.930 . S
N201 Li177 1.990 . S
N201 C200 1.314 . S
N201 C204 1.279 . S
C202 C200 1.353 . S
C202 C205 1.348 . S
C202 H250 0.929 . S
C203 C204 1.358 . S
C203 C205 1.356 . S
C203 H251 0.930 . S
C204 N201 1.279 . S
C204 C203 1.358 . S
C204 H207 0.930 . S
C205 C202 1.348 . S
C205 C203 1.356 . S
H206 C200 0.930 . S
H207 C204 0.930 . S
C208 C210 1.348 . S
C208 C211 1.356 . S
C208 O238 1.325 . S
N209 C212 1.314 . S
N209 C213 1.279 . S
C210 C208 1.348 . S
C210 C212 1.353 . S
C210 H252 0.929 . S
C211 C208 1.356 . S
C211 C213 1.358 . S
C211 H253 0.930 . S
C212 N209 1.314 . S
C212 C210 1.353 . S
C212 H254 0.930 . S
C213 N209 1.279 . S
C213 C211 1.358 . S
C213 H255 0.930 . S
C214 C215 1.348 . S
C214 C216 1.356 . S
C214 O239 1.325 . S
C215 C214 1.348 . S
C215 C217 1.353 . S
C215 H256 0.929 . S
C216 C214 1.356 . S
C216 C218 1.358 . S
C216 H257 0.930 . S
C217 C215 1.353 . S
C217 N219 1.314 . S
C217 H258 0.930 . S
C218 C216 1.358 . S
C218 N219 1.279 . S
C218 H259 0.930 . S
N219 C217 1.314 . S
N219 C218 1.279 . S
C220 C222 1.353 . S
C220 N223 1.314 . S
C220 H226 0.930 . S
C221 N223 1.279 . S
C221 C224 1.358 . S
C221 H227 0.930 . S
C222 C220 1.353 . S
C222 C225 1.348 . S
C222 H260 0.929 . S
N223 Li178 1.990 . S
N223 C220 1.314 . S
N223 C221 1.279 . S
C224 C221 1.358 . S
C224 C225 1.356 . S
C224 H261 0.930 . S
C225 C222 1.348 . S
C225 C224 1.356 . S
H226 C220 0.930 . S
H227 C221 0.930 . S
C228 N229 1.314 . S
C228 C230 1.353 . S
C228 H234 0.930 . S
N229 Li179 1.990 . S
N229 C228 1.314 . S
N229 C232 1.279 . S
C230 C228 1.353 . S
C230 C233 1.348 . S
C230 H262 0.929 . S
C231 C232 1.358 . S
C231 C233 1.356 . S
C231 H263 0.930 . S
C232 N229 1.279 . S
C232 C231 1.358 . S
C232 H235 0.930 . S
C233 C230 1.348 . S
C233 C231 1.356 . S
H234 C228 0.930 . S
H235 C232 0.930 . S
O236 Li176 1.956 . S
O236 Li177 1.970 . S
O236 Li178 1.961 . S
O236 C180 1.325 . S
O237 Li176 1.970 . S
O237 Li177 1.956 . S
O237 Li179 1.961 . S
O237 C186 1.325 . S
O238 Li176 1.961 . S
O238 Li178 1.956 . S
O238 Li179 1.970 . S
O238 C208 1.325 . S
O239 Li177 1.961 . S
O239 Li178 1.970 . S
O239 Li179 1.956 . S
O239 C214 1.325 . S
H240 C182 0.929 . S
H241 C183 0.930 . S
H242 C184 0.930 . S
H243 C185 0.930 . S
H244 C187 0.930 . S
H245 C189 0.929 . S
H246 C190 0.930 . S
H247 C191 0.930 . S
H248 C194 0.930 . S
H249 C197 0.929 . S
H250 C202 0.929 . S
H251 C203 0.930 . S
H252 C210 0.929 . S
H253 C211 0.930 . S
H254 C212 0.930 . S
H255 C213 0.930 . S
H256 C215 0.929 . S
H257 C216 0.930 . S
H258 C217 0.930 . S
H259 C218 0.930 . S
H260 C222 0.929 . S
H261 C224 0.930 . S
H262 C230 0.929 . S
H263 C231 0.930 . S
H264 C272 0.929 . S
H265 C274 0.930 . S
H266 C276 0.930 . S
H267 C279 0.929 . S
H268 C282 0.930 . S
H269 C284 0.960 . S
H270 C284 0.960 . S
H271 C284 0.960 . S
C272 H264 0.929 . S
C272 C273 1.377 . S
C272 C274 1.384 . S
C273 C272 1.377 . S
C273 C279 1.390 . S
C274 H265 0.930 . S
C274 C272 1.384 . S
C274 C275 1.372 . S
C275 C274 1.372 . S
C275 C276 1.400 . S
C275 C280 1.490 . S
C276 H266 0.930 . S
C276 C275 1.400 . S
C276 C279 1.386 . S
H277 C293 0.930 . S
H278 C294 0.931 . S
C279 H267 0.929 . S
C279 C273 1.390 . S
C279 C276 1.386 . S
C280 C275 1.490 . S
C280 C282 1.395 1_556 S
C280 C283 1.403 . S
H281 C287 0.930 . S
C282 H268 0.930 . S
C282 C280 1.395 1_554 S
C282 C285 1.403 . S
C283 C280 1.403 . S
C283 C284 1.524 . S
C283 C287 1.400 . S
C284 H269 0.960 . S
C284 H270 0.960 . S
C284 H271 0.960 . S
C284 C283 1.524 . S
C285 C282 1.403 . S
C285 C286 1.392 . S
C285 C289 1.495 . S
C286 C285 1.392 . S
C286 C287 1.385 1_554 S
C286 C288 1.478 . S
C287 H281 0.930 . S
C287 C283 1.400 . S
C287 C286 1.385 1_556 S
C288 C286 1.478 . S
C288 C290 1.381 . S
C288 C294 1.383 . S
C289 C285 1.495 . S
C289 H295 0.959 . S
C289 H296 0.961 . S
C289 H297 0.960 . S
C290 C288 1.381 . S
C290 C291 1.394 . S
C290 H298 0.930 . S
C291 C290 1.394 . S
C291 C292 1.383 . S
C291 H299 0.929 . S
C292 C291 1.383 . S
C292 C293 1.377 . S
C293 H277 0.930 . S
C293 C292 1.377 . S
C293 C294 1.379 . S
C294 H278 0.931 . S
C294 C288 1.383 . S
C294 C293 1.379 . S
H295 C289 0.959 . S
H296 C289 0.961 . S
H297 C289 0.960 . S
H298 C290 0.930 . S
H299 C291 0.929 . S
H300 C308 0.929 . S
H301 C310 0.930 . S
H302 C312 0.930 . S
H303 C315 0.929 . S
H304 C318 0.930 . S
H305 C320 0.960 . S
H306 C320 0.960 . S
H307 C320 0.960 . S
C308 H300 0.929 . S
C308 C309 1.377 . S
C308 C310 1.384 . S
C309 C308 1.377 . S
C309 C315 1.390 . S
C310 H301 0.930 . S
C310 C308 1.384 . S
C310 C311 1.372 . S
C311 C310 1.372 . S
C311 C312 1.400 . S
C311 C316 1.490 . S
C312 H302 0.930 . S
C312 C311 1.400 . S
C312 C315 1.386 . S
H313 C329 0.930 . S
H314 C330 0.931 . S
C315 H303 0.929 . S
C315 C309 1.390 . S
C315 C312 1.386 . S
C316 C311 1.490 . S
C316 C318 1.395 . S
C316 C319 1.403 . S
H317 C323 0.930 . S
C318 H304 0.930 . S
C318 C316 1.395 . S
C318 C321 1.403 . S
C319 C316 1.403 . S
C319 C320 1.524 . S
C319 C323 1.400 . S
C320 H305 0.960 . S
C320 H306 0.960 . S
C320 H307 0.960 . S
C320 C319 1.524 . S
C321 C318 1.403 . S
C321 C322 1.392 . S
C321 C325 1.495 . S
C322 C321 1.392 . S
C322 C323 1.385 . S
C322 C324 1.478 . S
C323 H317 0.930 . S
C323 C319 1.400 . S
C323 C322 1.385 . S
C324 C322 1.478 . S
C324 C326 1.381 . S
C324 C330 1.383 . S
C325 C321 1.495 . S
C325 H331 0.959 . S
C325 H332 0.961 . S
C325 H333 0.960 . S
C326 C324 1.381 . S
C326 C327 1.394 . S
C326 H334 0.930 . S
C327 C326 1.394 . S
C327 C328 1.383 . S
C327 H335 0.929 . S
C328 C327 1.383 . S
C328 C329 1.377 . S
C329 H313 0.930 . S
C329 C328 1.377 . S
C329 C330 1.379 . S
C330 H314 0.931 . S
C330 C324 1.383 . S
C330 C329 1.379 . S
H331 C325 0.959 . S
H332 C325 0.961 . S
H333 C325 0.960 . S
H334 C326 0.930 . S
H335 C327 0.929 . S
H336 C344 0.929 . S
H337 C346 0.930 . S
H338 C348 0.930 . S
H339 C351 0.929 . S
H340 C354 0.930 . S
H341 C356 0.960 . S
H342 C356 0.960 . S
H343 C356 0.960 . S
C344 H336 0.929 . S
C344 C345 1.377 . S
C344 C346 1.384 . S
C345 C344 1.377 . S
C345 C351 1.390 . S
C346 H337 0.930 . S
C346 C344 1.384 . S
C346 C347 1.372 . S
C347 C346 1.372 . S
C347 C348 1.400 . S
C347 C352 1.490 . S
C348 H338 0.930 . S
C348 C347 1.400 . S
C348 C351 1.386 . S
H349 C365 0.930 . S
H350 C366 0.931 . S
C351 H339 0.929 . S
C351 C345 1.390 . S
C351 C348 1.386 . S
C352 C347 1.490 . S
C352 C354 1.395 . S
C352 C355 1.403 . S
H353 C359 0.930 . S
C354 H340 0.930 . S
C354 C352 1.395 . S
C354 C357 1.403 . S
C355 C352 1.403 . S
C355 C356 1.524 . S
C355 C359 1.400 . S
C356 H341 0.960 . S
C356 H342 0.960 . S
C356 H343 0.960 . S
C356 C355 1.524 . S
C357 C354 1.403 . S
C357 C358 1.392 . S
C357 C361 1.495 . S
C358 C357 1.392 . S
C358 C359 1.385 . S
C358 C360 1.478 . S
C359 H353 0.930 . S
C359 C355 1.400 . S
C359 C358 1.385 . S
C360 C358 1.478 . S
C360 C362 1.381 . S
C360 C366 1.383 . S
C361 C357 1.495 . S
C361 H367 0.959 . S
C361 H368 0.961 . S
C361 H369 0.960 . S
C362 C360 1.381 . S
C362 C363 1.394 . S
C362 H370 0.930 . S
C363 C362 1.394 . S
C363 C364 1.383 . S
C363 H371 0.929 . S
C364 C363 1.383 . S
C364 C365 1.377 . S
C365 H349 0.930 . S
C365 C364 1.377 . S
C365 C366 1.379 . S
C366 H350 0.931 . S
C366 C360 1.383 . S
C366 C365 1.379 . S
H367 C361 0.959 . S
H368 C361 0.961 . S
H369 C361 0.960 . S
H370 C362 0.930 . S
H371 C363 0.929 . S
H372 C380 0.929 . S
H373 C382 0.930 . S
H374 C384 0.930 . S
H375 C387 0.929 . S
H376 C390 0.930 . S
H377 C392 0.960 . S
H378 C392 0.960 . S
H379 C392 0.960 . S
C380 H372 0.929 . S
C380 C381 1.377 . S
C380 C382 1.384 . S
C381 C380 1.377 . S
C381 C387 1.390 . S
C382 H373 0.930 . S
C382 C380 1.384 . S
C382 C383 1.372 . S
C383 C382 1.372 . S
C383 C384 1.400 . S
C383 C388 1.490 . S
C384 H374 0.930 . S
C384 C383 1.400 . S
C384 C387 1.386 . S
H385 C401 0.930 . S
H386 C402 0.931 . S
C387 H375 0.929 . S
C387 C381 1.390 . S
C387 C384 1.386 . S
C388 C383 1.490 . S
C388 C390 1.395 . S
C388 C391 1.403 . S
H389 C395 0.930 . S
C390 H376 0.930 . S
C390 C388 1.395 . S
C390 C393 1.403 1_556 S
C391 C388 1.403 . S
C391 C392 1.524 . S
C391 C395 1.400 1_556 S
C392 H377 0.960 . S
C392 H378 0.960 . S
C392 H379 0.960 . S
C392 C391 1.524 . S
C393 C390 1.403 1_554 S
C393 C394 1.392 . S
C393 C397 1.495 . S
C394 C393 1.392 . S
C394 C395 1.385 . S
C394 C396 1.478 . S
C395 H389 0.930 . S
C395 C391 1.400 1_554 S
C395 C394 1.385 . S
C396 C394 1.478 . S
C396 C398 1.381 . S
C396 C402 1.383 . S
C397 C393 1.495 . S
C397 H403 0.959 . S
C397 H404 0.961 . S
C397 H405 0.960 . S
C398 C396 1.381 . S
C398 C399 1.394 . S
C398 H406 0.930 . S
C399 C398 1.394 . S
C399 C400 1.383 . S
C399 H407 0.929 . S
C400 C399 1.383 . S
C400 C401 1.377 . S
C401 H385 0.930 . S
C401 C400 1.377 . S
C401 C402 1.379 . S
C402 H386 0.931 . S
C402 C396 1.383 . S
C402 C401 1.379 . S
H403 C397 0.959 . S
H404 C397 0.961 . S
H405 C397 0.960 . S
H406 C398 0.930 . S
H407 C399 0.929 . S
H408 C416 0.929 . S
H409 C418 0.930 . S
H410 C420 0.930 . S
H411 C423 0.929 . S
H412 C426 0.930 . S
H413 C428 0.960 . S
H414 C428 0.960 . S
H415 C428 0.960 . S
C416 H408 0.929 . S
C416 C417 1.377 . S
C416 C418 1.384 . S
C417 C416 1.377 . S
C417 C423 1.390 . S
C418 H409 0.930 . S
C418 C416 1.384 . S
C418 C419 1.372 . S
C419 C418 1.372 . S
C419 C420 1.400 . S
C419 C424 1.490 . S
C420 H410 0.930 . S
C420 C419 1.400 . S
C420 C423 1.386 . S
H421 C437 0.930 . S
H422 C438 0.931 . S
C423 H411 0.929 . S
C423 C417 1.390 . S
C423 C420 1.386 . S
C424 C419 1.490 . S
C424 C426 1.395 . S
C424 C427 1.403 . S
H425 C431 0.930 . S
C426 H412 0.930 . S
C426 C424 1.395 . S
C426 C429 1.403 . S
C427 C424 1.403 . S
C427 C428 1.524 . S
C427 C431 1.400 . S
C428 H413 0.960 . S
C428 H414 0.960 . S
C428 H415 0.960 . S
C428 C427 1.524 . S
C429 C426 1.403 . S
C429 C430 1.392 . S
C429 C433 1.495 . S
C430 C429 1.392 . S
C430 C431 1.385 . S
C430 C432 1.478 . S
C431 H425 0.930 . S
C431 C427 1.400 . S
C431 C430 1.385 . S
C432 C430 1.478 . S
C432 C434 1.381 . S
C432 C438 1.383 . S
C433 C429 1.495 . S
C433 H439 0.959 . S
C433 H440 0.961 . S
C433 H441 0.960 . S
C434 C432 1.381 . S
C434 C435 1.394 . S
C434 H442 0.930 . S
C435 C434 1.394 . S
C435 C436 1.383 . S
C435 H443 0.929 . S
C436 C435 1.383 . S
C436 C437 1.377 . S
C437 H421 0.930 . S
C437 C436 1.377 . S
C437 C438 1.379 . S
C438 H422 0.931 . S
C438 C432 1.383 . S
C438 C437 1.379 . S
H439 C433 0.959 . S
H440 C433 0.961 . S
H441 C433 0.960 . S
H442 C434 0.930 . S
H443 C435 0.929 . S
H444 C452 0.929 . S
H445 C454 0.930 . S
H446 C456 0.930 . S
H447 C459 0.929 . S
H448 C462 0.930 . S
H449 C464 0.960 . S
H450 C464 0.960 . S
H451 C464 0.960 . S
C452 H444 0.929 . S
C452 C453 1.377 . S
C452 C454 1.384 . S
C453 C452 1.377 . S
C453 C459 1.390 . S
C454 H445 0.930 . S
C454 C452 1.384 . S
C454 C455 1.372 . S
C455 C454 1.372 . S
C455 C456 1.400 . S
C455 C460 1.490 . S
C456 H446 0.930 . S
C456 C455 1.400 . S
C456 C459 1.386 . S
H457 C473 0.930 . S
H458 C474 0.931 . S
C459 H447 0.929 . S
C459 C453 1.390 . S
C459 C456 1.386 . S
C460 C455 1.490 . S
C460 C462 1.395 . S
C460 C463 1.403 . S
H461 C467 0.930 . S
C462 H448 0.930 . S
C462 C460 1.395 . S
C462 C465 1.403 . S
C463 C460 1.403 . S
C463 C464 1.524 . S
C463 C467 1.400 . S
C464 H449 0.960 . S
C464 H450 0.960 . S
C464 H451 0.960 . S
C464 C463 1.524 . S
C465 C462 1.403 . S
C465 C466 1.392 . S
C465 C469 1.495 . S
C466 C465 1.392 . S
C466 C467 1.385 . S
C466 C468 1.478 . S
C467 H461 0.930 . S
C467 C463 1.400 . S
C467 C466 1.385 . S
C468 C466 1.478 . S
C468 C470 1.381 . S
C468 C474 1.383 . S
C469 C465 1.495 . S
C469 H475 0.959 . S
C469 H476 0.961 . S
C469 H477 0.960 . S
C470 C468 1.381 . S
C470 C471 1.394 . S
C470 H478 0.930 . S
C471 C470 1.394 . S
C471 C472 1.383 . S
C471 H479 0.929 . S
C472 C471 1.383 . S
C472 C473 1.377 . S
C473 H457 0.930 . S
C473 C472 1.377 . S
C473 C474 1.379 . S
C474 H458 0.931 . S
C474 C468 1.383 . S
C474 C473 1.379 . S
H475 C469 0.959 . S
H476 C469 0.961 . S
H477 C469 0.960 . S
H478 C470 0.930 . S
H479 C471 0.929 . S
C273 C225 1.115 . S
C292 C20 1.117 . S
C309 C49 1.112 . S
C328 C108 1.097 . S
C345 C137 1.112 . S
C364 C233 1.124 . S
C381 C205 1.113 . S
C400 C57 1.123 . S
C417 C145 1.114 . S
C436 C29 1.103 . S
C453 C196 1.115 . S
C472 C117 1.102 . S
