# Generated by pormake.
# Topology uos, (4)-cn, num edge types: 1
# Building blocks:
#     Node 0, Type 0, BuildingBlock: GALJAG_clean_sbu_0, # of connection points: 4
#     Node 1, Type 0, BuildingBlock: GALJAG_clean_sbu_0, # of connection points: 4
#     Node 2, Type 0, BuildingBlock: GALJAG_clean_sbu_0, # of connection points: 4
#     Node 3, Type 0, BuildingBlock: GALJAG_clean_sbu_0, # of connection points: 4
#     Node 4, Type 0, BuildingBlock: GALJAG_clean_sbu_0, # of connection points: 4
#     Node 5, Type 0, BuildingBlock: GALJAG_clean_sbu_0, # of connection points: 4
#     Node 6, Type 0, BuildingBlock: GALJAG_clean_sbu_0, # of connection points: 4
#     Node 7, Type 0, BuildingBlock: GALJAG_clean_sbu_0, # of connection points: 4
#     Node 8, Type 0, BuildingBlock: GALJAG_clean_sbu_0, # of connection points: 4
#     Node 9, Type 0, BuildingBlock: GALJAG_clean_sbu_0, # of connection points: 4
#     Node 10, Type 0, BuildingBlock: GALJAG_clean_sbu_0, # of connection points: 4
#     Node 11, Type 0, BuildingBlock: GALJAG_clean_sbu_0, # of connection points: 4
#     Node 12, Type 0, BuildingBlock: GALJAG_clean_sbu_0, # of connection points: 4
#     Node 13, Type 0, BuildingBlock: GALJAG_clean_sbu_0, # of connection points: 4
#     Node 14, Type 0, BuildingBlock: GALJAG_clean_sbu_0, # of connection points: 4
#     Node 15, Type 0, BuildingBlock: GALJAG_clean_sbu_0, # of connection points: 4
#     Node 16, Type 0, BuildingBlock: GALJAG_clean_sbu_0, # of connection points: 4
#     Node 17, Type 0, BuildingBlock: GALJAG_clean_sbu_0, # of connection points: 4
#     Node 18, Type 0, BuildingBlock: GALJAG_clean_sbu_0, # of connection points: 4
#     Node 19, Type 0, BuildingBlock: GALJAG_clean_sbu_0, # of connection points: 4
#     Node 20, Type 0, BuildingBlock: GALJAG_clean_sbu_0, # of connection points: 4
#     Node 21, Type 0, BuildingBlock: GALJAG_clean_sbu_0, # of connection points: 4
#     Node 22, Type 0, BuildingBlock: GALJAG_clean_sbu_0, # of connection points: 4
#     Node 23, Type 0, BuildingBlock: GALJAG_clean_sbu_0, # of connection points: 4
#     Node 24, Type 0, BuildingBlock: GALJAG_clean_sbu_0, # of connection points: 4
#     Node 25, Type 0, BuildingBlock: GALJAG_clean_sbu_0, # of connection points: 4
#     Node 26, Type 0, BuildingBlock: GALJAG_clean_sbu_0, # of connection points: 4
#     Node 27, Type 0, BuildingBlock: GALJAG_clean_sbu_0, # of connection points: 4
#     Node 28, Type 0, BuildingBlock: GALJAG_clean_sbu_0, # of connection points: 4
#     Node 29, Type 0, BuildingBlock: GALJAG_clean_sbu_0, # of connection points: 4
#     Node 30, Type 0, BuildingBlock: GALJAG_clean_sbu_0, # of connection points: 4
#     Node 31, Type 0, BuildingBlock: GALJAG_clean_sbu_0, # of connection points: 4
#     Edge 32, Type (0, 0), BuildingBlock: UVAHIK_clean_linker_0, # of connection points: 2
#     Edge 33, Type (0, 0), BuildingBlock: UVAHIK_clean_linker_0, # of connection points: 2
#     Edge 34, Type (0, 0), BuildingBlock: UVAHIK_clean_linker_0, # of connection points: 2
#     Edge 35, Type (0, 0), BuildingBlock: UVAHIK_clean_linker_0, # of connection points: 2
#     Edge 36, Type (0, 0), BuildingBlock: UVAHIK_clean_linker_0, # of connection points: 2
#     Edge 37, Type (0, 0), BuildingBlock: UVAHIK_clean_linker_0, # of connection points: 2
#     Edge 38, Type (0, 0), BuildingBlock: UVAHIK_clean_linker_0, # of connection points: 2
#     Edge 39, Type (0, 0), BuildingBlock: UVAHIK_clean_linker_0, # of connection points: 2
#     Edge 40, Type (0, 0), BuildingBlock: UVAHIK_clean_linker_0, # of connection points: 2
#     Edge 41, Type (0, 0), BuildingBlock: UVAHIK_clean_linker_0, # of connection points: 2
#     Edge 42, Type (0, 0), BuildingBlock: UVAHIK_clean_linker_0, # of connection points: 2
#     Edge 43, Type (0, 0), BuildingBlock: UVAHIK_clean_linker_0, # of connection points: 2
#     Edge 44, Type (0, 0), BuildingBlock: UVAHIK_clean_linker_0, # of connection points: 2
#     Edge 45, Type (0, 0), BuildingBlock: UVAHIK_clean_linker_0, # of connection points: 2
#     Edge 46, Type (0, 0), BuildingBlock: UVAHIK_clean_linker_0, # of connection points: 2
#     Edge 47, Type (0, 0), BuildingBlock: UVAHIK_clean_linker_0, # of connection points: 2
#     Edge 48, Type (0, 0), BuildingBlock: UVAHIK_clean_linker_0, # of connection points: 2
#     Edge 49, Type (0, 0), BuildingBlock: UVAHIK_clean_linker_0, # of connection points: 2
#     Edge 50, Type (0, 0), BuildingBlock: UVAHIK_clean_linker_0, # of connection points: 2
#     Edge 51, Type (0, 0), BuildingBlock: UVAHIK_clean_linker_0, # of connection points: 2
#     Edge 52, Type (0, 0), BuildingBlock: UVAHIK_clean_linker_0, # of connection points: 2
#     Edge 53, Type (0, 0), BuildingBlock: UVAHIK_clean_linker_0, # of connection points: 2
#     Edge 54, Type (0, 0), BuildingBlock: UVAHIK_clean_linker_0, # of connection points: 2
#     Edge 55, Type (0, 0), BuildingBlock: UVAHIK_clean_linker_0, # of connection points: 2
#     Edge 56, Type (0, 0), BuildingBlock: UVAHIK_clean_linker_0, # of connection points: 2
#     Edge 57, Type (0, 0), BuildingBlock: UVAHIK_clean_linker_0, # of connection points: 2
#     Edge 58, Type (0, 0), BuildingBlock: UVAHIK_clean_linker_0, # of connection points: 2
#     Edge 59, Type (0, 0), BuildingBlock: UVAHIK_clean_linker_0, # of connection points: 2
#     Edge 60, Type (0, 0), BuildingBlock: UVAHIK_clean_linker_0, # of connection points: 2
#     Edge 61, Type (0, 0), BuildingBlock: UVAHIK_clean_linker_0, # of connection points: 2
#     Edge 62, Type (0, 0), BuildingBlock: UVAHIK_clean_linker_0, # of connection points: 2
#     Edge 63, Type (0, 0), BuildingBlock: UVAHIK_clean_linker_0, # of connection points: 2
#     Edge 64, Type (0, 0), BuildingBlock: UVAHIK_clean_linker_0, # of connection points: 2
#     Edge 65, Type (0, 0), BuildingBlock: UVAHIK_clean_linker_0, # of connection points: 2
#     Edge 66, Type (0, 0), BuildingBlock: UVAHIK_clean_linker_0, # of connection points: 2
#     Edge 67, Type (0, 0), BuildingBlock: UVAHIK_clean_linker_0, # of connection points: 2
#     Edge 68, Type (0, 0), BuildingBlock: UVAHIK_clean_linker_0, # of connection points: 2
#     Edge 69, Type (0, 0), BuildingBlock: UVAHIK_clean_linker_0, # of connection points: 2
#     Edge 70, Type (0, 0), BuildingBlock: UVAHIK_clean_linker_0, # of connection points: 2
#     Edge 71, Type (0, 0), BuildingBlock: UVAHIK_clean_linker_0, # of connection points: 2
#     Edge 72, Type (0, 0), BuildingBlock: UVAHIK_clean_linker_0, # of connection points: 2
#     Edge 73, Type (0, 0), BuildingBlock: UVAHIK_clean_linker_0, # of connection points: 2
#     Edge 74, Type (0, 0), BuildingBlock: UVAHIK_clean_linker_0, # of connection points: 2
#     Edge 75, Type (0, 0), BuildingBlock: UVAHIK_clean_linker_0, # of connection points: 2
#     Edge 76, Type (0, 0), BuildingBlock: UVAHIK_clean_linker_0, # of connection points: 2
#     Edge 77, Type (0, 0), BuildingBlock: UVAHIK_clean_linker_0, # of connection points: 2
#     Edge 78, Type (0, 0), BuildingBlock: UVAHIK_clean_linker_0, # of connection points: 2
#     Edge 79, Type (0, 0), BuildingBlock: UVAHIK_clean_linker_0, # of connection points: 2
#     Edge 80, Type (0, 0), BuildingBlock: UVAHIK_clean_linker_0, # of connection points: 2
#     Edge 81, Type (0, 0), BuildingBlock: UVAHIK_clean_linker_0, # of connection points: 2
#     Edge 82, Type (0, 0), BuildingBlock: UVAHIK_clean_linker_0, # of connection points: 2
#     Edge 83, Type (0, 0), BuildingBlock: UVAHIK_clean_linker_0, # of connection points: 2
#     Edge 84, Type (0, 0), BuildingBlock: UVAHIK_clean_linker_0, # of connection points: 2
#     Edge 85, Type (0, 0), BuildingBlock: UVAHIK_clean_linker_0, # of connection points: 2
#     Edge 86, Type (0, 0), BuildingBlock: UVAHIK_clean_linker_0, # of connection points: 2
#     Edge 87, Type (0, 0), BuildingBlock: UVAHIK_clean_linker_0, # of connection points: 2
#     Edge 88, Type (0, 0), BuildingBlock: UVAHIK_clean_linker_0, # of connection points: 2
#     Edge 89, Type (0, 0), BuildingBlock: UVAHIK_clean_linker_0, # of connection points: 2
#     Edge 90, Type (0, 0), BuildingBlock: UVAHIK_clean_linker_0, # of connection points: 2
#     Edge 91, Type (0, 0), BuildingBlock: UVAHIK_clean_linker_0, # of connection points: 2
#     Edge 92, Type (0, 0), BuildingBlock: UVAHIK_clean_linker_0, # of connection points: 2
#     Edge 93, Type (0, 0), BuildingBlock: UVAHIK_clean_linker_0, # of connection points: 2
#     Edge 94, Type (0, 0), BuildingBlock: UVAHIK_clean_linker_0, # of connection points: 2
#     Edge 95, Type (0, 0), BuildingBlock: UVAHIK_clean_linker_0, # of connection points: 2
# Relax obj value: 0.041
# Max RMSD: 0.074
# Mean RMSD: 0.074
data_MOF--net-uos--node1-GALJAG_clean_sbu_0--edge1-UVAHIK_clean_linker_0
_symmetry_space_group_name_H-M    P1
_symmetry_Int_Tables_number       1
_symmetry_cell_setting            triclinic
loop_
_symmetry_equiv_pos_as_xyz
'x, y, z'
_cell_length_a     116.92971
_cell_length_b     116.89763
_cell_length_c     26.969383
_cell_angle_alpha  90.009438
_cell_angle_beta   90.006505
_cell_angle_gamma 90.017816
loop_
_atom_site_label
_atom_site_type_symbol
_atom_site_fract_x
_atom_site_fract_y
_atom_site_fract_z
_atom_type_partial_charge
In0 In 0.16882 0.16365 0.12155 0.0
O1 O 0.16939 0.14957 0.06237 0.0
O2 O 0.15537 0.16108 0.0618 0.0
C3 C 0.19069 0.16266 0.15302 0.0
C4 C 0.1564 0.15284 0.1913 0.0
C5 C 0.16703 0.18638 0.1069 0.0
O6 O 0.18801 0.16122 0.10807 0.0
O7 O 0.18238 0.16461 0.18154 0.0
O8 O 0.16262 0.18134 0.14356 0.0
O9 O 0.17236 0.17994 0.07727 0.0
C10 C 0.16 0.15239 0.04285 0.0
O11 O 0.15406 0.16283 0.17666 0.0
O12 O 0.16504 0.14838 0.17101 0.0
In13 In 0.08175 0.91899 0.3705 0.0
O14 O 0.09301 0.91894 0.30097 0.0
O15 O 0.08527 0.90332 0.32348 0.0
C16 C 0.08362 0.94096 0.40022 0.0
C17 C 0.09387 0.90847 0.44171 0.0
C18 C 0.05908 0.91672 0.3543 0.0
O19 O 0.08549 0.93797 0.35595 0.0
O20 O 0.08081 0.93292 0.42882 0.0
O21 O 0.06424 0.91155 0.38867 0.0
O22 O 0.06537 0.92298 0.3277 0.0
C23 C 0.09182 0.90834 0.29341 0.0
O24 O 0.08308 0.90799 0.43989 0.0
O25 O 0.0985 0.91437 0.40801 0.0
In26 In 0.32686 0.83321 0.62246 0.0
O27 O 0.32659 0.84643 0.56005 0.0
O28 O 0.34028 0.83451 0.56154 0.0
C29 C 0.30502 0.83601 0.65349 0.0
C30 C 0.34038 0.84379 0.68883 0.0
C31 C 0.32823 0.81024 0.61376 0.0
O32 O 0.30757 0.83474 0.6084 0.0
O33 O 0.31344 0.83597 0.68251 0.0
O34 O 0.3327 0.81571 0.64906 0.0
O35 O 0.3231 0.81637 0.58228 0.0
C36 C 0.33582 0.84307 0.54071 0.0
O37 O 0.3399 0.83304 0.68515 0.0
O38 O 0.33398 0.84919 0.65931 0.0
In39 In 0.41366 0.07709 0.87074 0.0
O40 O 0.39963 0.07681 0.81133 0.0
O41 O 0.41127 0.09071 0.81144 0.0
C42 C 0.4125 0.05518 0.90175 0.0
C43 C 0.403 0.08914 0.94208 0.0
C44 C 0.43642 0.07879 0.85646 0.0
O45 O 0.41106 0.05792 0.85686 0.0
O46 O 0.41455 0.06344 0.93042 0.0
O47 O 0.43125 0.08385 0.89113 0.0
O48 O 0.43009 0.07287 0.82851 0.0
C49 C 0.40255 0.08621 0.79222 0.0
O50 O 0.41308 0.09135 0.92831 0.0
O51 O 0.39835 0.08084 0.91998 0.0
In52 In 0.168 0.83182 0.87137 0.0
O53 O 0.15714 0.8333 0.80166 0.0
O54 O 0.16376 0.84863 0.83334 0.0
C55 C 0.16543 0.80919 0.88775 0.0
C56 C 0.15745 0.84183 0.94887 0.0
C57 C 0.18988 0.83345 0.84036 0.0
O58 O 0.15993 0.81454 0.85495 0.0
O59 O 0.17218 0.81528 0.91298 0.0
O60 O 0.18689 0.83642 0.88351 0.0
O61 O 0.1819 0.82965 0.81368 0.0
C62 C 0.15782 0.84407 0.79958 0.0
O63 O 0.16816 0.84241 0.94298 0.0
O64 O 0.15228 0.83589 0.91696 0.0
In65 In 0.41466 0.91844 0.12431 0.0
O66 O 0.41501 0.90676 0.05653 0.0
O67 O 0.39882 0.91146 0.08626 0.0
C68 C 0.43725 0.91681 0.14338 0.0
C69 C 0.40393 0.90925 0.2034 0.0
C70 C 0.41255 0.9401 0.09039 0.0
O71 O 0.43226 0.91071 0.11144 0.0
O72 O 0.43082 0.92371 0.16617 0.0
O73 O 0.41147 0.93764 0.13573 0.0
O74 O 0.41465 0.93169 0.06269 0.0
C75 C 0.40426 0.90592 0.05378 0.0
O76 O 0.40101 0.91875 0.18504 0.0
O77 O 0.41248 0.90467 0.18303 0.0
In78 In 0.32759 0.16433 0.37397 0.0
O79 O 0.32657 0.15068 0.43475 0.0
O80 O 0.34053 0.16227 0.43628 0.0
C81 C 0.30584 0.16319 0.341 0.0
C82 C 0.34026 0.15289 0.30708 0.0
C83 C 0.32924 0.18722 0.38371 0.0
O84 O 0.30833 0.1621 0.38635 0.0
O85 O 0.31428 0.16485 0.31285 0.0
O86 O 0.33377 0.18179 0.3484 0.0
O87 O 0.32394 0.18109 0.41462 0.0
C88 C 0.33576 0.15369 0.45553 0.0
O89 O 0.3429 0.16277 0.32204 0.0
O90 O 0.33124 0.14883 0.32576 0.0
In91 In 0.08168 0.07745 0.62478 0.0
O92 O 0.09555 0.07643 0.68466 0.0
O93 O 0.08427 0.09063 0.68568 0.0
C94 C 0.0827 0.05584 0.59003 0.0
C95 C 0.09259 0.08997 0.55571 0.0
C96 C 0.05897 0.07905 0.6406 0.0
O97 O 0.08437 0.05819 0.63518 0.0
O98 O 0.08045 0.06434 0.56298 0.0
O99 O 0.06396 0.08407 0.60531 0.0
O100 O 0.06544 0.07322 0.66823 0.0
C101 C 0.09279 0.08576 0.70488 0.0
O102 O 0.08258 0.0923 0.57001 0.0
O103 O 0.09704 0.08136 0.57624 0.0
In104 In 0.82684 0.83261 0.8734 0.0
O105 O 0.82599 0.84623 0.93438 0.0
O106 O 0.8398 0.83447 0.9358 0.0
C107 C 0.80497 0.83436 0.84238 0.0
C108 C 0.83999 0.84382 0.80753 0.0
C109 C 0.8282 0.80963 0.88022 0.0
O110 O 0.8076 0.83432 0.88781 0.0
O111 O 0.81333 0.83355 0.81313 0.0
O112 O 0.83202 0.81517 0.84366 0.0
O113 O 0.82374 0.8157 0.91376 0.0
C114 C 0.83513 0.84309 0.95516 0.0
O115 O 0.84233 0.83384 0.82227 0.0
O116 O 0.83103 0.84808 0.82588 0.0
In117 In 0.91394 0.07744 0.62585 0.0
O118 O 0.91325 0.09181 0.56878 0.0
O119 O 0.89852 0.08132 0.57759 0.0
C120 C 0.93662 0.07917 0.64214 0.0
C121 C 0.90272 0.08638 0.70437 0.0
C122 C 0.91301 0.05569 0.59255 0.0
O123 O 0.93164 0.08407 0.6065 0.0
O124 O 0.93014 0.0734 0.67 0.0
O125 O 0.91133 0.05818 0.63757 0.0
O126 O 0.91516 0.06412 0.56496 0.0
C127 C 0.90312 0.08966 0.55556 0.0
O128 O 0.90001 0.07686 0.68569 0.0
O129 O 0.91129 0.09108 0.68472 0.0
In130 In 0.66883 0.16296 0.37697 0.0
O131 O 0.66938 0.14873 0.43509 0.0
O132 O 0.65637 0.16135 0.4412 0.0
C133 C 0.69061 0.15966 0.34619 0.0
C134 C 0.65556 0.15343 0.30651 0.0
C135 C 0.66651 0.1857 0.39203 0.0
O136 O 0.68803 0.16056 0.39143 0.0
O137 O 0.68225 0.16029 0.31694 0.0
O138 O 0.65973 0.17998 0.36549 0.0
O139 O 0.67446 0.17995 0.4114 0.0
C140 C 0.66065 0.15224 0.45809 0.0
O141 O 0.65975 0.16333 0.30201 0.0
O142 O 0.65819 0.14833 0.34608 0.0
In143 In 0.58203 0.91993 0.12287 0.0
O144 O 0.5934 0.91958 0.19244 0.0
O145 O 0.58621 0.90399 0.16674 0.0
C146 C 0.58393 0.9419 0.09376 0.0
C147 C 0.59326 0.90941 0.04887 0.0
C148 C 0.55941 0.91819 0.14144 0.0
O149 O 0.58731 0.93857 0.13588 0.0
O150 O 0.57953 0.93421 0.06713 0.0
O151 O 0.56416 0.91356 0.10464 0.0
O152 O 0.56607 0.92374 0.16931 0.0
C153 C 0.59259 0.90887 0.19781 0.0
O154 O 0.58296 0.90721 0.05925 0.0
O155 O 0.59784 0.91704 0.07539 0.0
In156 In 0.82711 0.16394 0.12254 0.0
O157 O 0.84253 0.16261 0.17413 0.0
O158 O 0.83089 0.14865 0.17178 0.0
C159 C 0.82841 0.18685 0.11214 0.0
C160 C 0.83539 0.15331 0.04114 0.0
C161 C 0.80542 0.16245 0.15596 0.0
O162 O 0.83302 0.18152 0.14755 0.0
O163 O 0.82318 0.1806 0.08138 0.0
O164 O 0.80791 0.16099 0.1108 0.0
O165 O 0.81382 0.1647 0.1836 0.0
C166 C 0.83992 0.1528 0.18997 0.0
O167 O 0.82622 0.15024 0.06191 0.0
O168 O 0.84009 0.16194 0.06032 0.0
In169 In 0.58197 0.078 0.87373 0.0
O170 O 0.59683 0.07724 0.81874 0.0
O171 O 0.58343 0.08913 0.805 0.0
C172 C 0.5869 0.05653 0.90486 0.0
C173 C 0.59047 0.0926 0.94179 0.0
C174 C 0.55904 0.07935 0.86091 0.0
O175 O 0.58397 0.05871 0.86087 0.0
O176 O 0.58756 0.06516 0.93258 0.0
O177 O 0.56446 0.08598 0.88924 0.0
O178 O 0.56516 0.07207 0.83901 0.0
C179 C 0.59296 0.08513 0.79147 0.0
O180 O 0.58264 0.08554 0.952 0.0
O181 O 0.5939 0.09233 0.8975 0.0
In182 In 0.66792 0.83154 0.62406 0.0
O183 O 0.65454 0.83326 0.68469 0.0
O184 O 0.66526 0.8476 0.67017 0.0
C185 C 0.66587 0.80882 0.60876 0.0
C186 C 0.65762 0.84201 0.54695 0.0
C187 C 0.68976 0.83274 0.65553 0.0
O188 O 0.66137 0.81391 0.64503 0.0
O189 O 0.67139 0.81521 0.5796 0.0
O190 O 0.68693 0.83551 0.6119 0.0
O191 O 0.68163 0.82936 0.6825 0.0
C192 C 0.65712 0.84346 0.69518 0.0
O193 O 0.66821 0.8431 0.55506 0.0
O194 O 0.65251 0.83539 0.57632 0.0
In195 In 0.91398 0.91876 0.37089 0.0
O196 O 0.91342 0.90428 0.42744 0.0
O197 O 0.89889 0.91514 0.4215 0.0
C198 C 0.93668 0.91697 0.3552 0.0
C199 C 0.90253 0.90972 0.29311 0.0
C200 C 0.91306 0.94066 0.40222 0.0
O201 O 0.93167 0.91229 0.39129 0.0
O202 O 0.93022 0.92257 0.3266 0.0
O203 O 0.91152 0.93797 0.35733 0.0
O204 O 0.91508 0.93236 0.43067 0.0
C205 C 0.90348 0.90666 0.4425 0.0
O206 O 0.89975 0.91916 0.31233 0.0
O207 O 0.91126 0.90514 0.31189 0.0
In208 In 0.66797 0.66343 0.6218 0.0
O209 O 0.66915 0.65163 0.55387 0.0
O210 O 0.65297 0.65862 0.57288 0.0
C211 C 0.68971 0.66255 0.65495 0.0
C212 C 0.65684 0.65185 0.69303 0.0
C213 C 0.66557 0.6861 0.60546 0.0
O214 O 0.68708 0.65983 0.61105 0.0
O215 O 0.68143 0.66573 0.68148 0.0
O216 O 0.66109 0.68099 0.64169 0.0
O217 O 0.67122 0.67975 0.57666 0.0
C218 C 0.65857 0.65212 0.54464 0.0
O219 O 0.65417 0.66191 0.68067 0.0
O220 O 0.66523 0.64766 0.66977 0.0
In221 In 0.58227 0.41837 0.87015 0.0
O222 O 0.58392 0.4044 0.92831 0.0
O223 O 0.59808 0.4156 0.91759 0.0
C224 C 0.55954 0.41607 0.85563 0.0
C225 C 0.59349 0.40877 0.79328 0.0
C226 C 0.58329 0.44031 0.90063 0.0
O227 O 0.56459 0.41233 0.8936 0.0
O228 O 0.56597 0.42093 0.82455 0.0
O229 O 0.58479 0.43754 0.85581 0.0
O230 O 0.58128 0.43207 0.92945 0.0
C231 C 0.594 0.40711 0.94049 0.0
O232 O 0.59457 0.41924 0.8039 0.0
O233 O 0.58648 0.4034 0.81999 0.0
In234 In 0.82675 0.33278 0.12076 0.0
O235 O 0.84 0.33257 0.18259 0.0
O236 O 0.83316 0.34867 0.16058 0.0
C237 C 0.82817 0.30985 0.11113 0.0
C238 C 0.83599 0.3431 0.0407 0.0
C239 C 0.80479 0.33526 0.15052 0.0
O240 O 0.83232 0.31522 0.14746 0.0
O241 O 0.82335 0.31606 0.07907 0.0
O242 O 0.80749 0.3341 0.10553 0.0
O243 O 0.81312 0.33528 0.18005 0.0
C244 C 0.83996 0.34329 0.18848 0.0
O245 O 0.82655 0.34618 0.05901 0.0
O246 O 0.84048 0.33456 0.0615 0.0
In247 In 0.91362 0.5772 0.36995 0.0
O248 O 0.89964 0.57679 0.31042 0.0
O249 O 0.9114 0.5906 0.30961 0.0
C250 C 0.91219 0.55533 0.40117 0.0
C251 C 0.90288 0.58965 0.43978 0.0
C252 C 0.93649 0.5786 0.35884 0.0
O253 O 0.91107 0.558 0.35602 0.0
O254 O 0.91403 0.56363 0.42985 0.0
O255 O 0.93121 0.5831 0.39463 0.0
O256 O 0.93022 0.57343 0.32801 0.0
C257 C 0.90264 0.5861 0.29066 0.0
O258 O 0.91273 0.59216 0.42406 0.0
O259 O 0.89848 0.58088 0.42023 0.0
In260 In 0.66807 0.33077 0.37171 0.0
O261 O 0.65543 0.332 0.30796 0.0
O262 O 0.66579 0.34656 0.32348 0.0
C263 C 0.66516 0.3083 0.39158 0.0
C264 C 0.65832 0.34232 0.44745 0.0
C265 C 0.68987 0.3315 0.33943 0.0
O266 O 0.65987 0.31344 0.35755 0.0
O267 O 0.67187 0.31452 0.41638 0.0
O268 O 0.68697 0.33541 0.38126 0.0
O269 O 0.68184 0.32715 0.3146 0.0
C270 C 0.65802 0.34218 0.29704 0.0
O271 O 0.66904 0.34175 0.44233 0.0
O272 O 0.6527 0.33677 0.41574 0.0
In273 In 0.91376 0.4186 0.62325 0.0
O274 O 0.89995 0.41925 0.6832 0.0
O275 O 0.91215 0.40581 0.68639 0.0
C276 C 0.91129 0.44025 0.58968 0.0
C277 C 0.90353 0.40571 0.5534 0.0
C278 C 0.93644 0.41662 0.6397 0.0
O279 O 0.91083 0.43779 0.63521 0.0
O280 O 0.91293 0.43182 0.56147 0.0
O281 O 0.93089 0.40969 0.61312 0.0
O282 O 0.93052 0.42453 0.65852 0.0
C283 C 0.90332 0.4103 0.7049 0.0
O284 O 0.91413 0.40772 0.553 0.0
O285 O 0.89812 0.41027 0.58868 0.0
In286 In 0.82675 0.66359 0.87291 0.0
O287 O 0.84208 0.66244 0.82086 0.0
O288 O 0.83088 0.64813 0.82526 0.0
C289 C 0.82811 0.68657 0.87988 0.0
C290 C 0.83526 0.65309 0.95416 0.0
C291 C 0.80482 0.66179 0.84274 0.0
O292 O 0.83188 0.68105 0.84318 0.0
O293 O 0.8237 0.68049 0.9135 0.0
O294 O 0.80754 0.66184 0.88807 0.0
O295 O 0.81312 0.66263 0.81319 0.0
C296 C 0.83975 0.65244 0.80632 0.0
O297 O 0.82605 0.64997 0.93386 0.0
O298 O 0.83989 0.66172 0.93461 0.0
In299 In 0.58102 0.57698 0.12413 0.0
O300 O 0.58221 0.59043 0.0635 0.0
O301 O 0.59662 0.5796 0.07519 0.0
C302 C 0.55859 0.57954 0.14525 0.0
C303 C 0.5929 0.58652 0.1993 0.0
C304 C 0.58161 0.55525 0.09081 0.0
O305 O 0.56331 0.58409 0.10816 0.0
O306 O 0.56522 0.57373 0.17222 0.0
O307 O 0.58467 0.55787 0.13428 0.0
O308 O 0.57819 0.56353 0.06482 0.0
C309 C 0.59229 0.58779 0.05109 0.0
O310 O 0.59311 0.57588 0.1911 0.0
O311 O 0.58643 0.59212 0.17098 0.0
In312 In 0.32661 0.33312 0.37508 0.0
O313 O 0.32598 0.34733 0.43357 0.0
O314 O 0.33925 0.33503 0.43867 0.0
C315 C 0.30469 0.33426 0.34438 0.0
C316 C 0.33938 0.34407 0.30695 0.0
C317 C 0.32829 0.31021 0.38386 0.0
O318 O 0.30739 0.33502 0.38962 0.0
O319 O 0.313 0.33295 0.3152 0.0
O320 O 0.33262 0.31571 0.34828 0.0
O321 O 0.32314 0.31629 0.4155 0.0
C322 C 0.33484 0.34401 0.45601 0.0
O323 O 0.34211 0.3344 0.32406 0.0
O324 O 0.33024 0.34818 0.32425 0.0
In325 In 0.41411 0.57755 0.12524 0.0
O326 O 0.40014 0.57698 0.18494 0.0
O327 O 0.41124 0.59134 0.18317 0.0
C328 C 0.41331 0.55581 0.09183 0.0
C329 C 0.40341 0.58964 0.05416 0.0
C330 C 0.43667 0.57937 0.14408 0.0
O331 O 0.41124 0.55832 0.13651 0.0
O332 O 0.4158 0.56421 0.06461 0.0
O333 O 0.43187 0.58434 0.10814 0.0
O334 O 0.43007 0.57346 0.17085 0.0
C335 C 0.40273 0.58659 0.20309 0.0
O336 O 0.4136 0.59168 0.06699 0.0
O337 O 0.3987 0.58148 0.07693 0.0
In338 In 0.16851 0.66371 0.87186 0.0
O339 O 0.16921 0.64977 0.93164 0.0
O340 O 0.15521 0.6613 0.93242 0.0
C341 C 0.19028 0.66297 0.83909 0.0
C342 C 0.15639 0.65265 0.80183 0.0
C343 C 0.16646 0.68645 0.88563 0.0
O344 O 0.18776 0.66132 0.88407 0.0
O345 O 0.18188 0.66502 0.81124 0.0
O346 O 0.16139 0.68112 0.85139 0.0
O347 O 0.17257 0.68028 0.91345 0.0
C348 C 0.15988 0.65265 0.9515 0.0
O349 O 0.15399 0.66268 0.81564 0.0
O350 O 0.1649 0.64823 0.82325 0.0
In351 In 0.08187 0.41863 0.62939 0.0
O352 O 0.09567 0.41978 0.68954 0.0
O353 O 0.0839 0.40602 0.69302 0.0
C354 C 0.08284 0.4401 0.59309 0.0
C355 C 0.09296 0.40593 0.56144 0.0
C356 C 0.05913 0.41672 0.64342 0.0
O357 O 0.08434 0.43793 0.6385 0.0
O358 O 0.08081 0.43148 0.56642 0.0
O359 O 0.06457 0.41069 0.61267 0.0
O360 O 0.06518 0.42373 0.66758 0.0
C361 C 0.09257 0.41078 0.71145 0.0
O362 O 0.08264 0.40417 0.57277 0.0
O363 O 0.09764 0.41411 0.58422 0.0
In364 In 0.32746 0.66427 0.62199 0.0
O365 O 0.32662 0.65034 0.5624 0.0
O366 O 0.34033 0.66221 0.55933 0.0
C367 C 0.30556 0.66292 0.65272 0.0
C368 C 0.34023 0.65314 0.68961 0.0
C369 C 0.32895 0.68721 0.61335 0.0
O370 O 0.30827 0.66218 0.60749 0.0
O371 O 0.31386 0.66434 0.6819 0.0
O372 O 0.33312 0.68177 0.64946 0.0
O373 O 0.32411 0.68106 0.58109 0.0
C374 C 0.33569 0.65345 0.54096 0.0
O375 O 0.34299 0.66284 0.67289 0.0
O376 O 0.33106 0.64911 0.67224 0.0
In377 In 0.08232 0.57654 0.36803 0.0
O378 O 0.0961 0.57584 0.30775 0.0
O379 O 0.08439 0.58969 0.30659 0.0
C380 C 0.08362 0.55465 0.39899 0.0
C381 C 0.09352 0.58913 0.43605 0.0
C382 C 0.05943 0.5781 0.35825 0.0
O383 O 0.08452 0.55734 0.35379 0.0
O384 O 0.08208 0.56295 0.42801 0.0
O385 O 0.06482 0.58243 0.39415 0.0
O386 O 0.0656 0.57302 0.32679 0.0
C387 C 0.09305 0.58506 0.28739 0.0
O388 O 0.08362 0.59169 0.421 0.0
O389 O 0.09771 0.58023 0.41691 0.0
In390 In 0.16767 0.33142 0.12528 0.0
O391 O 0.15278 0.33238 0.17982 0.0
O392 O 0.16438 0.34639 0.17702 0.0
C393 C 0.16593 0.30875 0.10874 0.0
C394 C 0.1589 0.34303 0.04747 0.0
C395 C 0.18946 0.33221 0.15766 0.0
O396 O 0.16137 0.31365 0.14544 0.0
O397 O 0.17135 0.31532 0.07994 0.0
O398 O 0.18685 0.33421 0.11301 0.0
O399 O 0.18112 0.32977 0.18531 0.0
C400 C 0.15553 0.34211 0.19626 0.0
O401 O 0.16843 0.34557 0.06649 0.0
O402 O 0.1541 0.33443 0.06645 0.0
In403 In 0.41435 0.41875 0.87186 0.0
O404 O 0.41342 0.40431 0.92852 0.0
O405 O 0.39885 0.41503 0.91989 0.0
C406 C 0.43709 0.41674 0.85761 0.0
C407 C 0.40307 0.4098 0.79353 0.0
C408 C 0.41334 0.44068 0.90285 0.0
O409 O 0.43202 0.41265 0.89487 0.0
O410 O 0.43068 0.42185 0.82717 0.0
O411 O 0.41223 0.43798 0.85775 0.0
O412 O 0.41498 0.43238 0.93173 0.0
C413 C 0.40332 0.40659 0.94171 0.0
O414 O 0.4006 0.41947 0.81136 0.0
O415 O 0.41145 0.40494 0.81394 0.0
C416 C 0.29204 0.16281 0.27051 0.0
C417 C 0.29403 0.16261 0.32186 0.0
C418 C 0.28091 0.1624 0.25191 0.0
C419 C 0.25121 0.15473 0.28612 0.0
H420 H 0.24351 0.17364 0.17275 0.0
C421 C 0.20478 0.16261 0.22247 0.0
C422 C 0.20258 0.16215 0.1713 0.0
C423 C 0.21599 0.16224 0.24022 0.0
C424 C 0.24557 0.16822 0.20406 0.0
H425 H 0.28596 0.16181 0.39408 0.0
H426 H 0.26645 0.16132 0.36167 0.0
H427 H 0.26292 0.17397 0.20566 0.0
H428 H 0.21034 0.1609 0.09853 0.0
H429 H 0.23 0.16032 0.12963 0.0
H430 H 0.23376 0.14915 0.28489 0.0
C431 C 0.27351 0.1616 0.33569 0.0
C432 C 0.25669 0.16839 0.22294 0.0
C433 C 0.28467 0.16194 0.35431 0.0
C434 C 0.2118 0.16128 0.13816 0.0
C435 C 0.22304 0.161 0.15593 0.0
C436 C 0.24007 0.15462 0.26741 0.0
C437 C 0.2715 0.16185 0.28423 0.0
C438 C 0.25965 0.16165 0.26422 0.0
C439 C 0.22524 0.16148 0.20716 0.0
C440 C 0.23713 0.16137 0.22623 0.0
H441 H 0.2991 0.16325 0.24455 0.0
H442 H 0.2797 0.16241 0.21209 0.0
H443 H 0.25324 0.14929 0.3174 0.0
H444 H 0.19784 0.16328 0.24892 0.0
H445 H 0.21742 0.16275 0.27984 0.0
C446 C 0.0857 0.96198 0.38415 0.0
C447 C 0.08453 0.95288 0.41776 0.0
C448 C 0.08617 0.97327 0.40134 0.0
C449 C 0.09258 0.99055 0.51193 0.0
H450 H 0.07275 0.01314 0.45132 0.0
C451 C 0.08451 0.03466 0.60152 0.0
C452 C 0.08342 0.04413 0.56988 0.0
C453 C 0.0851 0.02359 0.582 0.0
C454 C 0.07848 0.007 0.46823 0.0
H455 H 0.08316 0.94839 0.49559 0.0
H456 H 0.08408 0.96804 0.52547 0.0
H457 H 0.07337 0.99378 0.41786 0.0
H458 H 0.08226 0.04949 0.49307 0.0
H459 H 0.08357 0.03026 0.459 0.0
H460 H 0.09778 0.00373 0.56208 0.0
C461 C 0.08464 0.96648 0.48595 0.0
C462 C 0.07881 0.99591 0.44904 0.0
C463 C 0.08404 0.95524 0.46879 0.0
C464 C 0.08302 0.04234 0.51841 0.0
C465 C 0.0837 0.03131 0.49889 0.0
C466 C 0.09232 0.00167 0.53088 0.0
C467 C 0.08563 0.97561 0.45243 0.0
C468 C 0.08578 0.98755 0.47097 0.0
C469 C 0.0847 0.02178 0.53042 0.0
C470 C 0.0852 0.01001 0.50953 0.0
H471 H 0.08609 0.96039 0.34462 0.0
H472 H 0.087 0.98016 0.37473 0.0
H473 H 0.09813 0.98429 0.52921 0.0
H474 H 0.0848 0.03579 0.64136 0.0
H475 H 0.08569 0.01645 0.60743 0.0
C476 C 0.20411 0.83176 0.77201 0.0
C477 C 0.20172 0.83435 0.82179 0.0
C478 C 0.21525 0.83248 0.75383 0.0
C479 C 0.24366 0.84509 0.77971 0.0
H480 H 0.25398 0.82176 0.68772 0.0
C481 C 0.29095 0.83932 0.72166 0.0
C482 C 0.29313 0.83699 0.67143 0.0
C483 C 0.27974 0.83965 0.73947 0.0
C484 C 0.25118 0.82842 0.71291 0.0
H485 H 0.20911 0.83978 0.89162 0.0
H486 H 0.22869 0.84086 0.86006 0.0
H487 H 0.23466 0.82085 0.72105 0.0
H488 H 0.28532 0.83341 0.60021 0.0
H489 H 0.26569 0.83395 0.63141 0.0
H490 H 0.26032 0.85253 0.772 0.0
C491 C 0.2219 0.83843 0.83488 0.0
C492 C 0.2401 0.8279 0.73203 0.0
C493 C 0.21071 0.83775 0.85306 0.0
C494 C 0.28389 0.83521 0.63913 0.0
C495 C 0.27267 0.83545 0.65703 0.0
C496 C 0.25478 0.84557 0.76076 0.0
C497 C 0.2243 0.83575 0.78505 0.0
C498 C 0.23618 0.83626 0.76552 0.0
C499 C 0.27049 0.83758 0.70748 0.0
C500 C 0.25864 0.83725 0.72706 0.0
H501 H 0.19735 0.82919 0.74688 0.0
H502 H 0.21674 0.83057 0.71507 0.0
H503 H 0.24087 0.85175 0.80487 0.0
H504 H 0.29792 0.84074 0.74742 0.0
H505 H 0.27834 0.84121 0.77859 0.0
C506 C 0.41222 0.04102 0.97097 0.0
C507 C 0.41181 0.04328 0.91983 0.0
C508 C 0.41165 0.02981 0.98854 0.0
C509 C 0.41717 0.00017 0.95205 0.0
H510 H 0.39817 0.99272 0.06544 0.0
C511 C 0.41175 0.95377 0.01947 0.0
C512 C 0.41163 0.95186 0.07088 0.0
C513 C 0.41121 0.96486 0.00055 0.0
C514 C 0.40363 0.99468 0.03412 0.0
H515 H 0.41044 0.03559 0.84694 0.0
H516 H 0.40952 0.01591 0.87773 0.0
H517 H 0.39826 0.01219 0.03289 0.0
H518 H 0.41077 0.96004 0.14287 0.0
H519 H 0.41007 0.97949 0.10991 0.0
H520 H 0.42274 0.98276 0.95372 0.0
C521 C 0.41032 0.02285 0.90415 0.0
C522 C 0.40364 0.00582 0.0154 0.0
C523 C 0.4108 0.03409 0.88655 0.0
C524 C 0.41084 0.96127 0.10306 0.0
C525 C 0.41038 0.9724 0.08412 0.0
C526 C 0.41722 0.98904 0.97095 0.0
C527 C 0.41074 0.0206 0.95535 0.0
C528 C 0.41044 0.00869 0.97425 0.0
C529 C 0.41062 0.97433 0.0326 0.0
C530 C 0.41046 0.98616 0.01227 0.0
H531 H 0.413 0.04793 0.99753 0.0
H532 H 0.41213 0.02834 0.02814 0.0
H533 H 0.42262 0.00217 0.92076 0.0
H534 H 0.41227 0.94667 0.99372 0.0
H535 H 0.4112 0.96601 0.9607 0.0
C536 C 0.78383 0.83418 0.85738 0.0
C537 C 0.79307 0.83509 0.82438 0.0
C538 C 0.77259 0.83442 0.83964 0.0
C539 C 0.75499 0.84349 0.73346 0.0
H540 H 0.7339 0.82027 0.78008 0.0
C541 C 0.71074 0.83611 0.64261 0.0
C542 C 0.7016 0.83344 0.67432 0.0
C543 C 0.72192 0.83661 0.66097 0.0
C544 C 0.73962 0.82692 0.76714 0.0
H545 H 0.79784 0.8372 0.74719 0.0
H546 H 0.77824 0.83768 0.71634 0.0
H547 H 0.75326 0.82094 0.81327 0.0
H548 H 0.69694 0.82942 0.75019 0.0
H549 H 0.71632 0.83053 0.78233 0.0
H550 H 0.74133 0.84955 0.68762 0.0
C551 C 0.77966 0.83681 0.75585 0.0
C552 C 0.75072 0.82728 0.78617 0.0
C553 C 0.79088 0.83646 0.77351 0.0
C554 C 0.70382 0.83141 0.72473 0.0
C555 C 0.71495 0.83198 0.74311 0.0
C556 C 0.74385 0.84318 0.71465 0.0
C557 C 0.7704 0.83569 0.78865 0.0
C558 C 0.75852 0.83555 0.76945 0.0
C559 C 0.72416 0.83451 0.71146 0.0
C560 C 0.73603 0.83487 0.73122 0.0
H561 H 0.78528 0.83312 0.89679 0.0
H562 H 0.76561 0.83364 0.86581 0.0
H563 H 0.7608 0.85003 0.72025 0.0
H564 H 0.70926 0.8377 0.60356 0.0
H565 H 0.72883 0.83846 0.63544 0.0
C566 C 0.91171 0.9618 0.38755 0.0
C567 C 0.91252 0.95255 0.42058 0.0
C568 C 0.91138 0.97303 0.40547 0.0
C569 C 0.90464 0.98997 0.51674 0.0
H570 H 0.9243 0.01286 0.45711 0.0
C571 C 0.91153 0.0345 0.60527 0.0
C572 C 0.9125 0.04389 0.57312 0.0
C573 C 0.91126 0.02335 0.58637 0.0
C574 C 0.91863 0.00662 0.47378 0.0
H575 H 0.9135 0.94776 0.49818 0.0
H576 H 0.91286 0.96732 0.52936 0.0
H577 H 0.92405 0.99349 0.42366 0.0
H578 H 0.91371 0.04903 0.49605 0.0
H579 H 0.91296 0.02969 0.46307 0.0
H580 H 0.89911 0.00309 0.56658 0.0
C581 C 0.91244 0.96592 0.4897 0.0
C582 C 0.91851 0.99552 0.4546 0.0
C583 C 0.91288 0.95472 0.4718 0.0
C584 C 0.91305 0.04195 0.52179 0.0
C585 C 0.91269 0.03084 0.50289 0.0
C586 C 0.90469 0.0011 0.53571 0.0
C587 C 0.91174 0.97519 0.45676 0.0
C588 C 0.91156 0.98707 0.47604 0.0
C589 C 0.91186 0.02139 0.53491 0.0
C590 C 0.91172 0.00956 0.51459 0.0
H591 H 0.91141 0.96037 0.34788 0.0
H592 H 0.91075 0.98002 0.37926 0.0
H593 H 0.89909 0.98365 0.53364 0.0
H594 H 0.91113 0.03574 0.64503 0.0
H595 H 0.91077 0.01627 0.61216 0.0
C596 C 0.71174 0.15923 0.36144 0.0
C597 C 0.70249 0.15852 0.32835 0.0
C598 C 0.72298 0.15889 0.34378 0.0
C599 C 0.74055 0.15053 0.23566 0.0
H600 H 0.76177 0.17313 0.28682 0.0
C601 C 0.78436 0.15951 0.14379 0.0
C602 C 0.79366 0.16152 0.17554 0.0
C603 C 0.77326 0.1587 0.16288 0.0
C604 C 0.756 0.16666 0.27256 0.0
H605 H 0.69773 0.15659 0.25106 0.0
H606 H 0.71732 0.156 0.2203 0.0
H607 H 0.74246 0.17211 0.32038 0.0
H608 H 0.79869 0.16412 0.25215 0.0
H609 H 0.77942 0.16255 0.28543 0.0
H610 H 0.7541 0.14509 0.18776 0.0
C611 C 0.71591 0.15676 0.25986 0.0
C612 C 0.74494 0.16607 0.29185 0.0
C613 C 0.70469 0.15716 0.27747 0.0
C614 C 0.79168 0.16263 0.22668 0.0
C615 C 0.78062 0.1618 0.24575 0.0
C616 C 0.75164 0.15109 0.21645 0.0
C617 C 0.72518 0.15776 0.29273 0.0
C618 C 0.73707 0.15803 0.27351 0.0
C619 C 0.77127 0.15987 0.2141 0.0
C620 C 0.75948 0.15919 0.23458 0.0
H621 H 0.7103 0.16026 0.40086 0.0
H622 H 0.72995 0.15954 0.37007 0.0
H623 H 0.73471 0.14415 0.22116 0.0
H624 H 0.78564 0.15864 0.10419 0.0
H625 H 0.76623 0.15734 0.13742 0.0
C626 C 0.59201 0.04299 0.97295 0.0
C627 C 0.58866 0.04479 0.92354 0.0
C628 C 0.5928 0.03191 0.99202 0.0
C629 C 0.59432 0.00134 0.95544 0.0
H630 H 0.58168 0.99619 0.08654 0.0
C631 C 0.58239 0.95655 0.02689 0.0
C632 C 0.58525 0.95378 0.07604 0.0
C633 C 0.58375 0.96769 0.00934 0.0
C634 C 0.58538 0.99752 0.05018 0.0
H635 H 0.58379 0.03644 0.85497 0.0
H636 H 0.58501 0.01709 0.88837 0.0
H637 H 0.58254 0.01557 0.05335 0.0
H638 H 0.59175 0.9605 0.14545 0.0
H639 H 0.59407 0.98008 0.11475 0.0
H640 H 0.59692 0.98323 0.95195 0.0
C641 C 0.58718 0.02421 0.91228 0.0
C642 C 0.5859 0.00862 0.03114 0.0
C643 C 0.58642 0.0353 0.89316 0.0
C644 C 0.58946 0.9624 0.10742 0.0
C645 C 0.59075 0.97359 0.08991 0.0
C646 C 0.59376 0.99024 0.9744 0.0
C647 C 0.59023 0.02239 0.96214 0.0
C648 C 0.59028 0.01066 0.98335 0.0
C649 C 0.58795 0.97634 0.0406 0.0
C650 C 0.58917 0.98819 0.02176 0.0
H651 H 0.59384 0.05014 0.9972 0.0
H652 H 0.59536 0.0308 0.03032 0.0
H653 H 0.59793 0.00263 0.91888 0.0
H654 H 0.57912 0.95009 0.0018 0.0
H655 H 0.58136 0.96957 0.9714 0.0
C656 C 0.70357 0.66401 0.72495 0.0
C657 C 0.70149 0.66198 0.67442 0.0
C658 C 0.71466 0.66351 0.74389 0.0
C659 C 0.74366 0.65244 0.71645 0.0
H660 H 0.75289 0.67474 0.81524 0.0
C661 C 0.79063 0.65961 0.77435 0.0
C662 C 0.7929 0.661 0.82516 0.0
C663 C 0.77939 0.65916 0.75707 0.0
C664 C 0.75039 0.66837 0.78811 0.0
H665 H 0.70938 0.65784 0.60399 0.0
H666 H 0.72885 0.65719 0.63682 0.0
H667 H 0.73352 0.67526 0.78195 0.0
H668 H 0.78521 0.66291 0.89781 0.0
H669 H 0.76549 0.66221 0.86746 0.0
H670 H 0.76065 0.64572 0.72207 0.0
C671 C 0.72187 0.65897 0.66204 0.0
C672 C 0.73929 0.66866 0.76903 0.0
C673 C 0.71073 0.65941 0.64313 0.0
C674 C 0.7837 0.66184 0.85845 0.0
C675 C 0.77244 0.6615 0.84107 0.0
C676 C 0.75479 0.65221 0.73532 0.0
C677 C 0.72396 0.66104 0.71267 0.0
C678 C 0.73579 0.6607 0.73293 0.0
C679 C 0.77018 0.66019 0.79017 0.0
C680 C 0.75827 0.66019 0.77129 0.0
H681 H 0.6966 0.66594 0.75007 0.0
H682 H 0.71592 0.66495 0.78318 0.0
H683 H 0.7412 0.64607 0.68934 0.0
H684 H 0.79755 0.65892 0.74781 0.0
H685 H 0.77791 0.65827 0.7176 0.0
C686 C 0.58394 0.46144 0.88513 0.0
C687 C 0.58382 0.45223 0.91853 0.0
C688 C 0.58412 0.4727 0.90271 0.0
C689 C 0.59178 0.4901 0.01105 0.0
H690 H 0.56979 0.5118 0.95889 0.0
C691 C 0.58435 0.53417 0.10244 0.0
C692 C 0.58213 0.54349 0.07109 0.0
C693 C 0.5848 0.52306 0.08327 0.0
C694 C 0.57611 0.50592 0.97338 0.0
H695 H 0.584 0.44752 0.99634 0.0
H696 H 0.58444 0.46715 0.02689 0.0
H697 H 0.57052 0.49248 0.92513 0.0
H698 H 0.57883 0.54855 0.99508 0.0
H699 H 0.57993 0.52928 0.96146 0.0
H700 H 0.59751 0.50353 0.05883 0.0
C701 C 0.58438 0.46569 0.98722 0.0
C702 C 0.5765 0.49484 0.95405 0.0
C703 C 0.58406 0.45446 0.96971 0.0
C704 C 0.58046 0.54152 0.02024 0.0
C705 C 0.58103 0.53045 0.00101 0.0
C706 C 0.59147 0.50122 0.03006 0.0
C707 C 0.58434 0.47492 0.95394 0.0
C708 C 0.58428 0.48681 0.97292 0.0
C709 C 0.58315 0.52106 0.03227 0.0
C710 C 0.58359 0.50926 0.01167 0.0
H711 H 0.58376 0.45996 0.84549 0.0
H712 H 0.58415 0.47968 0.87627 0.0
H713 H 0.59794 0.4841 0.02591 0.0
H714 H 0.58563 0.53544 0.14184 0.0
H715 H 0.58628 0.51602 0.10859 0.0
C716 C 0.71064 0.33624 0.34986 0.0
C717 C 0.70166 0.33219 0.32008 0.0
C718 C 0.72175 0.33697 0.3309 0.0
C719 C 0.74004 0.32595 0.22912 0.0
H720 H 0.75947 0.35159 0.26424 0.0
C721 C 0.78371 0.33386 0.1354 0.0
C722 C 0.79285 0.33607 0.16783 0.0
C723 C 0.77245 0.33393 0.15288 0.0
C724 C 0.75415 0.34436 0.25433 0.0
H725 H 0.69723 0.32581 0.24704 0.0
H726 H 0.71649 0.3273 0.21369 0.0
H727 H 0.74008 0.35051 0.29745 0.0
H728 H 0.79738 0.34037 0.24355 0.0
H729 H 0.77773 0.34058 0.27392 0.0
H730 H 0.7541 0.31986 0.18567 0.0
C731 C 0.71506 0.3297 0.25198 0.0
C732 C 0.74306 0.3437 0.2735 0.0
C733 C 0.70399 0.3289 0.27102 0.0
C734 C 0.79051 0.33863 0.21771 0.0
C735 C 0.77926 0.33881 0.23505 0.0
C736 C 0.75108 0.32665 0.20968 0.0
C737 C 0.72409 0.33372 0.28168 0.0
C738 C 0.73588 0.33447 0.26126 0.0
C739 C 0.77013 0.33632 0.20297 0.0
C740 C 0.75826 0.33584 0.22223 0.0
H741 H 0.70909 0.33881 0.38787 0.0
H742 H 0.72853 0.33995 0.35503 0.0
H743 H 0.73483 0.31861 0.21958 0.0
H744 H 0.78527 0.33187 0.09676 0.0
H745 H 0.76556 0.33209 0.12724 0.0
C746 C 0.90982 0.46138 0.60336 0.0
C747 C 0.91033 0.45205 0.57066 0.0
C748 C 0.90943 0.47256 0.585 0.0
C749 C 0.90268 0.48952 0.4734 0.0
H750 H 0.9228 0.512 0.53313 0.0
C751 C 0.91047 0.53419 0.38677 0.0
C752 C 0.91141 0.54346 0.41963 0.0
C753 C 0.90998 0.52299 0.4049 0.0
C754 C 0.91701 0.50588 0.51641 0.0
H755 H 0.91062 0.44705 0.4932 0.0
H756 H 0.90994 0.46655 0.46123 0.0
H757 H 0.92227 0.49262 0.56614 0.0
H758 H 0.91234 0.54832 0.49716 0.0
H759 H 0.91126 0.52887 0.52872 0.0
H760 H 0.89738 0.50279 0.42378 0.0
C761 C 0.90978 0.46524 0.50098 0.0
C762 C 0.91671 0.49477 0.53536 0.0
C763 C 0.91023 0.45408 0.51931 0.0
C764 C 0.91171 0.54134 0.47087 0.0
C765 C 0.91116 0.53018 0.48896 0.0
C766 C 0.90293 0.50066 0.45457 0.0
C767 C 0.90948 0.47461 0.53361 0.0
C768 C 0.90956 0.48647 0.51405 0.0
C769 C 0.91037 0.52085 0.45625 0.0
C770 C 0.9101 0.50897 0.47587 0.0
H771 H 0.90986 0.46006 0.64311 0.0
H772 H 0.90908 0.47961 0.61104 0.0
H773 H 0.89699 0.48332 0.45653 0.0
H774 H 0.91025 0.53559 0.34708 0.0
H775 H 0.90949 0.51599 0.37866 0.0
C776 C 0.28356 0.3347 0.35992 0.0
C777 C 0.29277 0.33475 0.32649 0.0
C778 C 0.2723 0.33483 0.34241 0.0
C779 C 0.25485 0.3423 0.23344 0.0
H780 H 0.23305 0.3208 0.28863 0.0
C781 C 0.21056 0.33444 0.14451 0.0
C782 C 0.20128 0.33278 0.17672 0.0
C783 C 0.22172 0.33492 0.1631 0.0
C784 C 0.23898 0.32697 0.27324 0.0
H785 H 0.29745 0.33517 0.24868 0.0
H786 H 0.27782 0.33546 0.21822 0.0
H787 H 0.25244 0.32154 0.32161 0.0
H788 H 0.19634 0.33047 0.2536 0.0
H789 H 0.21572 0.33154 0.28606 0.0
H790 H 0.24139 0.34781 0.18532 0.0
C791 C 0.27929 0.33535 0.25788 0.0
C792 C 0.25009 0.32738 0.29215 0.0
C793 C 0.29052 0.33512 0.27534 0.0
C794 C 0.20334 0.33168 0.2278 0.0
C795 C 0.21446 0.33223 0.24639 0.0
C796 C 0.24371 0.34195 0.21472 0.0
C797 C 0.27006 0.33514 0.29118 0.0
C798 C 0.25815 0.33501 0.2723 0.0
C799 C 0.2238 0.33381 0.21429 0.0
C800 C 0.23565 0.33425 0.23428 0.0
H801 H 0.28505 0.33443 0.39955 0.0
H802 H 0.26534 0.33476 0.36892 0.0
H803 H 0.26085 0.34836 0.2178 0.0
H804 H 0.20921 0.33528 0.10494 0.0
H805 H 0.22872 0.336 0.13725 0.0
C806 C 0.4139 0.54204 0.0212 0.0
C807 C 0.41284 0.54401 0.07236 0.0
C808 C 0.41353 0.53093 0.0023 0.0
C809 C 0.40458 0.50138 0.03366 0.0
H810 H 0.42497 0.4933 0.92574 0.0
C811 C 0.4126 0.4548 0.97214 0.0
C812 C 0.41276 0.45259 0.92093 0.0
C813 C 0.41216 0.46602 0.98976 0.0
C814 C 0.41914 0.49547 0.9555 0.0
H815 H 0.41056 0.53592 0.14396 0.0
H816 H 0.41018 0.51645 0.11114 0.0
H817 H 0.42525 0.51268 0.95899 0.0
H818 H 0.41257 0.46036 0.84797 0.0
H819 H 0.41189 0.48004 0.87889 0.0
H820 H 0.39867 0.48404 0.03066 0.0
C821 C 0.41108 0.52351 0.08544 0.0
C822 C 0.41928 0.50658 0.97456 0.0
C823 C 0.41137 0.53465 0.10432 0.0
C824 C 0.41246 0.46182 0.88763 0.0
C825 C 0.41212 0.47307 0.90531 0.0
C826 C 0.40451 0.49024 0.01483 0.0
C827 C 0.41218 0.52151 0.03417 0.0
C828 C 0.412 0.50968 0.0139 0.0
C829 C 0.41197 0.47527 0.95657 0.0
C830 C 0.4118 0.48717 0.97561 0.0
H831 H 0.41496 0.5491 0.99559 0.0
H832 H 0.41419 0.52975 0.96258 0.0
H833 H 0.39872 0.50351 0.06335 0.0
H834 H 0.41282 0.44786 -0.00129 0.0
H835 H 0.41217 0.46746 0.02944 0.0
C836 C 0.29139 0.66196 0.72174 0.0
C837 C 0.29365 0.66226 0.67059 0.0
C838 C 0.28016 0.66152 0.73916 0.0
C839 C 0.25077 0.66868 0.70425 0.0
H840 H 0.24256 0.64836 0.81227 0.0
C841 C 0.20413 0.66339 0.76878 0.0
C842 C 0.2021 0.66251 0.81997 0.0
C843 C 0.21526 0.66301 0.7502 0.0
C844 C 0.24474 0.65419 0.7825 0.0
H845 H 0.28594 0.66228 0.5975 0.0
H846 H 0.26624 0.66156 0.62802 0.0
H847 H 0.26205 0.64822 0.77991 0.0
H848 H 0.21011 0.66054 0.89192 0.0
H849 H 0.22963 0.66011 0.85958 0.0
H850 H 0.23356 0.6748 0.70724 0.0
C851 C 0.27319 0.66171 0.65458 0.0
C852 C 0.25589 0.65407 0.76388 0.0
C853 C 0.28445 0.66206 0.63712 0.0
C854 C 0.21143 0.66121 0.85227 0.0
C855 C 0.22259 0.6609 0.83368 0.0
C856 C 0.23964 0.66884 0.72304 0.0
C857 C 0.27094 0.66145 0.7058 0.0
C858 C 0.25902 0.66133 0.72462 0.0
C859 C 0.22464 0.66182 0.78239 0.0
C860 C 0.23649 0.66161 0.76243 0.0
H861 H 0.29831 0.66211 0.74844 0.0
H862 H 0.2787 0.66146 0.77881 0.0
H863 H 0.25298 0.67449 0.67447 0.0
H864 H 0.19711 0.66433 0.74292 0.0
H865 H 0.2165 0.66355 0.71047 0.0
C866 C 0.08469 0.4613 0.60359 0.0
C867 C 0.08344 0.45177 0.57238 0.0
C868 C 0.08516 0.47233 0.58368 0.0
C869 C 0.07778 0.48877 0.47074 0.0
H870 H 0.09822 0.51138 0.5275 0.0
C871 C 0.08464 0.53352 0.3837 0.0
C872 C 0.08428 0.54275 0.41703 0.0
C873 C 0.085 0.52227 0.40135 0.0
C874 C 0.09242 0.50517 0.51146 0.0
H875 H 0.08186 0.44626 0.49589 0.0
H876 H 0.08291 0.46545 0.46109 0.0
H877 H 0.09796 0.49201 0.56103 0.0
H878 H 0.08414 0.54748 0.49481 0.0
H879 H 0.0848 0.52789 0.52549 0.0
H880 H 0.07229 0.50196 0.42103 0.0
C881 C 0.08329 0.46447 0.50098 0.0
C882 C 0.09224 0.49409 0.53075 0.0
C883 C 0.08276 0.45346 0.52091 0.0
C884 C 0.08441 0.54053 0.46822 0.0
C885 C 0.08487 0.52932 0.48581 0.0
C886 C 0.07801 0.49984 0.45126 0.0
C887 C 0.08446 0.47404 0.53211 0.0
C888 C 0.08486 0.48577 0.51087 0.0
C889 C 0.08512 0.52007 0.45261 0.0
C890 C 0.08527 0.50818 0.47168 0.0
H891 H 0.0852 0.46024 0.64344 0.0
H892 H 0.0859 0.47952 0.60878 0.0
H893 H 0.07186 0.48264 0.455 0.0
H894 H 0.08455 0.53499 0.34404 0.0
H895 H 0.08528 0.5153 0.37491 0.0
C896 C 0.15881 0.13495 0.98898 0.0
C897 C 0.15422 0.14546 0.00455 0.0
C898 C 0.1526 0.12781 0.95716 0.0
C899 C 0.1229 0.12192 0.91988 0.0
H900 H 0.13647 0.10594 0.80852 0.0
C901 C 0.09589 0.10151 0.76574 0.0
C902 C 0.09952 0.09111 0.74499 0.0
C903 C 0.1027 0.10722 0.80026 0.0
C904 C 0.1326 0.1102 0.83997 0.0
H905 H 0.13976 0.15696 0.99743 0.0
H906 H 0.12902 0.14461 0.94164 0.0
H907 H 0.14845 0.118 0.86132 0.0
H908 H 0.11298 0.07836 0.74502 0.0
H909 H 0.12489 0.08832 0.8059 0.0
H910 H 0.10706 0.11423 0.89853 0.0
C911 C 0.13731 0.14177 0.95466 0.0
C912 C 0.13945 0.11713 0.87009 0.0
C913 C 0.14351 0.14889 0.98629 0.0
C914 C 0.10996 0.08636 0.76046 0.0
C915 C 0.11682 0.09211 0.79499 0.0
C916 C 0.11607 0.115 0.88991 0.0
C917 C 0.14167 0.13105 0.94055 0.0
C918 C 0.13463 0.12321 0.90986 0.0
C919 C 0.11331 0.10266 0.81483 0.0
C920 C 0.12079 0.1092 0.84914 0.0
H921 H 0.16704 0.13208 0.00259 0.0
H922 H 0.15617 0.11959 0.94701 0.0
H923 H 0.11898 0.12629 0.95097 0.0
H924 H 0.0879 0.1054 0.75442 0.0
H925 H 0.09981 0.1154 0.81433 0.0
C926 C 0.15708 0.85394 0.02569 0.0
C927 C 0.15123 0.84841 0.98697 0.0
C928 C 0.1511 0.86076 0.05957 0.0
C929 C 0.12537 0.87819 0.07059 0.0
H930 H 0.12807 0.87356 0.21248 0.0
C931 C 0.10469 0.90782 0.21905 0.0
C932 C 0.09838 0.90202 0.25557 0.0
C933 C 0.11148 0.90171 0.18552 0.0
C934 C 0.12728 0.87495 0.17292 0.0
H935 H 0.13459 0.84563 0.95344 0.0
H936 H 0.12424 0.85766 0.01202 0.0
H937 H 0.13959 0.86195 0.15566 0.0
H938 H 0.09418 0.88531 0.28553 0.0
H939 H 0.10615 0.87471 0.2275 0.0
H940 H 0.11303 0.89117 0.08782 0.0
C941 C 0.13341 0.8567 0.01624 0.0
C942 C 0.1339 0.86838 0.14055 0.0
C943 C 0.13933 0.84975 0.983 0.0
C944 C 0.09891 0.89002 0.25767 0.0
C945 C 0.10583 0.88395 0.22477 0.0
C946 C 0.11888 0.88489 0.10298 0.0
C947 C 0.13924 0.86233 0.05461 0.0
C948 C 0.13287 0.86982 0.08909 0.0
C949 C 0.11223 0.88973 0.18862 0.0
C950 C 0.11965 0.8832 0.15439 0.0
H951 H 0.16626 0.85306 0.02953 0.0
H952 H 0.15577 0.86504 0.08891 0.0
H953 H 0.12448 0.87951 0.031 0.0
H954 H 0.10445 0.91707 0.2167 0.0
H955 H 0.11636 0.90635 0.15793 0.0
C956 C 0.40069 0.89258 0.25945 0.0
C957 C 0.39717 0.90332 0.24185 0.0
C958 C 0.39371 0.88629 0.29139 0.0
C959 C 0.36908 0.88845 0.37674 0.0
H960 H 0.36631 0.85596 0.34991 0.0
C961 C 0.33718 0.85978 0.48298 0.0
C962 C 0.34159 0.84934 0.50032 0.0
C963 C 0.34334 0.86634 0.44883 0.0
C964 C 0.36705 0.865 0.35809 0.0
H965 H 0.38374 0.91608 0.2451 0.0
H966 H 0.37149 0.90507 0.30086 0.0
H967 H 0.37859 0.86774 0.29777 0.0
H968 H 0.35572 0.83741 0.49436 0.0
H969 H 0.36646 0.84884 0.43492 0.0
H970 H 0.35757 0.88567 0.43728 0.0
C971 C 0.37969 0.90154 0.29021 0.0
C972 C 0.37411 0.87175 0.32832 0.0
C973 C 0.3867 0.90784 0.25823 0.0
C974 C 0.35208 0.8454 0.48156 0.0
C975 C 0.35822 0.85194 0.44736 0.0
C976 C 0.362 0.88169 0.40654 0.0
C977 C 0.38303 0.8906 0.30638 0.0
C978 C 0.3753 0.88353 0.33758 0.0
C979 C 0.35401 0.86257 0.43124 0.0
C980 C 0.36099 0.86987 0.3978 0.0
H981 H 0.40874 0.88889 0.24763 0.0
H982 H 0.39663 0.878 0.30399 0.0
H983 H 0.36989 0.89747 0.38511 0.0
H984 H 0.32911 0.86303 0.49679 0.0
H985 H 0.3398 0.87442 0.43657 0.0
C986 C 0.38517 0.08762 0.73814 0.0
C987 C 0.39568 0.09214 0.7541 0.0
C988 C 0.37809 0.09393 0.70644 0.0
C989 C 0.37238 0.12373 0.66972 0.0
H990 H 0.35623 0.11024 0.55861 0.0
C991 C 0.35152 0.15082 0.5166 0.0
C992 C 0.34115 0.14709 0.49595 0.0
C993 C 0.35732 0.14405 0.55098 0.0
C994 C 0.36054 0.11409 0.58999 0.0
H995 H 0.40725 0.10657 0.74785 0.0
H996 H 0.39501 0.11748 0.69221 0.0
H997 H 0.36834 0.09822 0.61093 0.0
H998 H 0.32852 0.13351 0.49619 0.0
H999 H 0.33863 0.12169 0.55685 0.0
H1000 H 0.36469 0.1396 0.64877 0.0
C1001 C 0.39212 0.10917 0.70484 0.0
C1002 C 0.3675 0.10721 0.61984 0.0
C1003 C 0.39917 0.10288 0.73638 0.0
C1004 C 0.3365 0.1366 0.51153 0.0
C1005 C 0.34233 0.1298 0.54592 0.0
C1006 C 0.36543 0.13059 0.63999 0.0
C1007 C 0.3814 0.10488 0.69029 0.0
C1008 C 0.37362 0.112 0.6596 0.0
C1009 C 0.35289 0.13338 0.56551 0.0
C1010 C 0.35955 0.12589 0.59938 0.0
H1011 H 0.38224 0.07937 0.75133 0.0
H1012 H 0.36987 0.09041 0.696 0.0
H1013 H 0.37679 0.12762 0.70077 0.0
H1014 H 0.35533 0.15884 0.5052 0.0
H1015 H 0.3655 0.14701 0.56487 0.0
C1016 C 0.85095 0.8458 0.01613 0.0
C1017 C 0.84058 0.8496 0.99575 0.0
C1018 C 0.8568 0.85248 0.05073 0.0
C1019 C 0.8601 0.88234 0.09111 0.0
H1020 H 0.87641 0.86852 0.20099 0.0
C1021 C 0.885 0.90844 0.2398 0.0
C1022 C 0.89553 0.90387 0.25522 0.0
C1023 C 0.87784 0.90221 0.20813 0.0
C1024 C 0.87199 0.8725 0.1702 0.0
H1025 H 0.82799 0.86321 0.99671 0.0
H1026 H 0.83817 0.87487 0.05777 0.0
H1027 H 0.86425 0.85669 0.14859 0.0
H1028 H 0.90703 0.88941 0.24807 0.0
H1029 H 0.89465 0.87863 0.1925 0.0
H1030 H 0.86794 0.89816 0.11271 0.0
C1031 C 0.84185 0.86678 0.04644 0.0
C1032 C 0.865 0.86572 0.14024 0.0
C1033 C 0.83598 0.86007 0.01182 0.0
C1034 C 0.89894 0.89314 0.23704 0.0
C1035 C 0.8918 0.88692 0.20553 0.0
C1036 C 0.86709 0.88914 0.1212 0.0
C1037 C 0.8524 0.86312 0.06577 0.0
C1038 C 0.8591 0.87052 0.09993 0.0
C1039 C 0.88108 0.89128 0.19147 0.0
C1040 C 0.87324 0.88425 0.16063 0.0
H1041 H 0.85473 0.83779 0.00434 0.0
H1042 H 0.86497 0.84947 0.0644 0.0
H1043 H 0.85578 0.88629 0.05999 0.0
H1044 H 0.88214 0.91668 0.25335 0.0
H1045 H 0.86962 0.90578 0.19808 0.0
C1046 C 0.85116 0.15053 0.98001 0.0
C1047 C 0.84082 0.14673 0.00074 0.0
C1048 C 0.85699 0.1438 0.94558 0.0
C1049 C 0.86042 0.11387 0.90655 0.0
H1050 H 0.87647 0.12751 0.79555 0.0
C1051 C 0.88532 0.08758 0.75851 0.0
C1052 C 0.89577 0.09222 0.74248 0.0
C1053 C 0.87817 0.09382 0.79014 0.0
C1054 C 0.87212 0.12358 0.82666 0.0
H1055 H 0.82829 0.13306 0.00062 0.0
H1056 H 0.83846 0.1213 0.93991 0.0
H1057 H 0.8643 0.13939 0.84765 0.0
H1058 H 0.90716 0.1068 0.7486 0.0
H1059 H 0.89479 0.11759 0.80413 0.0
H1060 H 0.86835 0.09806 0.88559 0.0
C1061 C 0.84211 0.12944 0.95079 0.0
C1062 C 0.86513 0.13039 0.85644 0.0
C1063 C 0.83624 0.1362 0.98522 0.0
C1064 C 0.89913 0.10302 0.7601 0.0
C1065 C 0.892 0.10924 0.79158 0.0
C1066 C 0.86742 0.10704 0.87665 0.0
C1067 C 0.85263 0.1331 0.9311 0.0
C1068 C 0.85932 0.12565 0.89715 0.0
C1069 C 0.88134 0.10482 0.80617 0.0
C1070 C 0.87348 0.11187 0.83682 0.0
H1071 H 0.85492 0.15859 0.99136 0.0
H1072 H 0.86513 0.14682 0.9316 0.0
H1073 H 0.85616 0.10998 0.93798 0.0
H1074 H 0.8825 0.07928 0.74538 0.0
H1075 H 0.86999 0.0902 0.80062 0.0
C1076 C 0.59563 0.10021 0.72719 0.0
C1077 C 0.59967 0.09033 0.75098 0.0
C1078 C 0.60251 0.10606 0.6934 0.0
C1079 C 0.63286 0.11028 0.66057 0.0
H1080 H 0.61985 0.12601 0.54728 0.0
C1081 C 0.65943 0.13488 0.51229 0.0
C1082 C 0.65495 0.14547 0.4971 0.0
C1083 C 0.65319 0.12779 0.54416 0.0
C1084 C 0.62359 0.12172 0.57901 0.0
H1085 H 0.61391 0.07853 0.75654 0.0
H1086 H 0.62587 0.0886 0.69642 0.0
H1087 H 0.60779 0.11357 0.5974 0.0
H1088 H 0.64067 0.15717 0.50503 0.0
H1089 H 0.62981 0.14482 0.56058 0.0
H1090 H 0.6487 0.11843 0.64159 0.0
C1091 C 0.61746 0.09197 0.70473 0.0
C1092 C 0.61668 0.1146 0.60774 0.0
C1093 C 0.61057 0.08614 0.73881 0.0
C1094 C 0.64434 0.14904 0.51595 0.0
C1095 C 0.63808 0.14194 0.54743 0.0
C1096 C 0.6398 0.11735 0.63149 0.0
C1097 C 0.61358 0.10213 0.68233 0.0
C1098 C 0.62118 0.10892 0.64935 0.0
C1099 C 0.64232 0.13115 0.561 0.0
C1100 C 0.63518 0.12328 0.59091 0.0
H1101 H 0.58728 0.10369 0.73599 0.0
H1102 H 0.59929 0.11393 0.67744 0.0
H1103 H 0.63658 0.10617 0.69273 0.0
H1104 H 0.66759 0.1319 0.49826 0.0
H1105 H 0.65666 0.11951 0.554 0.0
C1106 C 0.63938 0.84881 0.50985 0.0
C1107 C 0.65138 0.8486 0.50889 0.0
C1108 C 0.63328 0.85547 0.47617 0.0
C1109 C 0.63629 0.87983 0.38887 0.0
H1110 H 0.60713 0.86845 0.34145 0.0
C1111 C 0.60529 0.90784 0.27279 0.0
C1112 C 0.59915 0.90233 0.23497 0.0
C1113 C 0.61179 0.90146 0.30654 0.0
C1114 C 0.61531 0.87174 0.35377 0.0
H1115 H 0.66644 0.8551 0.47157 0.0
H1116 H 0.65575 0.86647 0.41108 0.0
H1117 H 0.61857 0.8567 0.39617 0.0
H1118 H 0.59513 0.88587 0.20219 0.0
H1119 H 0.60664 0.87483 0.25954 0.0
H1120 H 0.63319 0.89469 0.34447 0.0
C1121 C 0.65105 0.86168 0.43877 0.0
C1122 C 0.62182 0.86505 0.3859 0.0
C1123 C 0.65719 0.8551 0.47308 0.0
C1124 C 0.59966 0.89036 0.23134 0.0
C1125 C 0.60623 0.88402 0.2645 0.0
C1126 C 0.62982 0.88649 0.35611 0.0
C1127 C 0.63901 0.86198 0.44004 0.0
C1128 C 0.63236 0.86902 0.40421 0.0
C1129 C 0.61235 0.88945 0.3027 0.0
C1130 C 0.61923 0.88253 0.33819 0.0
H1131 H 0.63466 0.844 0.53743 0.0
H1132 H 0.62405 0.85566 0.47917 0.0
H1133 H 0.64429 0.88324 0.40264 0.0
H1134 H 0.60506 0.91707 0.27638 0.0
H1135 H 0.61627 0.90592 0.33586 0.0
C1136 C 0.64097 0.64363 0.50809 0.0
C1137 C 0.65291 0.64494 0.50693 0.0
C1138 C 0.63551 0.63626 0.47505 0.0
C1139 C 0.63756 0.62358 0.3534 0.0
H1140 H 0.61526 0.60187 0.40371 0.0
C1141 C 0.60182 0.60411 0.23403 0.0
C1142 C 0.60027 0.5922 0.23625 0.0
C1143 C 0.60925 0.60959 0.26677 0.0
C1144 C 0.62154 0.60781 0.38924 0.0
H1145 H 0.6685 0.63974 0.46975 0.0
H1146 H 0.65882 0.62704 0.4105 0.0
H1147 H 0.62657 0.61334 0.46181 0.0
H1148 H 0.60514 0.57669 0.27485 0.0
H1149 H 0.61795 0.5864 0.33353 0.0
H1150 H 0.63221 0.61836 0.2808 0.0
C1151 C 0.65377 0.63165 0.43758 0.0
C1152 C 0.62795 0.6144 0.42235 0.0
C1153 C 0.65928 0.6389 0.47134 0.0
C1154 C 0.60617 0.58588 0.27243 0.0
C1155 C 0.61348 0.59142 0.30588 0.0
C1156 C 0.63102 0.61712 0.32027 0.0
C1157 C 0.64185 0.63017 0.43965 0.0
C1158 C 0.63589 0.62246 0.40469 0.0
C1159 C 0.61516 0.60331 0.30292 0.0
C1160 C 0.62284 0.6093 0.33792 0.0
H1161 H 0.63584 0.64813 0.53524 0.0
H1162 H 0.6263 0.63538 0.47694 0.0
H1163 H 0.64359 0.62977 0.33892 0.0
H1164 H 0.59743 0.6092 0.2064 0.0
H1165 H 0.61028 0.61878 0.26416 0.0
C1166 C 0.60744 0.40913 0.72255 0.0
C1167 C 0.60057 0.40292 0.75573 0.0
C1168 C 0.6146 0.4034 0.68913 0.0
C1169 C 0.6299 0.37641 0.67212 0.0
H1170 H 0.62832 0.38276 0.53117 0.0
C1171 C 0.65882 0.35442 0.52436 0.0
C1172 C 0.65266 0.34958 0.48484 0.0
C1173 C 0.65335 0.36165 0.55828 0.0
C1174 C 0.62889 0.38096 0.5705 0.0
H1175 H 0.59577 0.38589 0.78002 0.0
H1176 H 0.60834 0.37594 0.72228 0.0
H1177 H 0.61704 0.39428 0.58917 0.0
H1178 H 0.636 0.34856 0.44959 0.0
H1179 H 0.62655 0.36128 0.50824 0.0
H1180 H 0.64164 0.36299 0.6534 0.0
C1181 C 0.6082 0.38521 0.72205 0.0
C1182 C 0.6225 0.38758 0.60359 0.0
C1183 C 0.60094 0.39091 0.75476 0.0
C1184 C 0.64097 0.35211 0.4798 0.0
C1185 C 0.63557 0.35947 0.51308 0.0
C1186 C 0.63643 0.36991 0.63911 0.0
C1187 C 0.61513 0.39139 0.68911 0.0
C1188 C 0.62277 0.38519 0.65458 0.0
C1189 C 0.6417 0.36433 0.55254 0.0
C1190 C 0.63579 0.37197 0.58793 0.0
H1191 H 0.60734 0.4184 0.72262 0.0
H1192 H 0.61988 0.40834 0.66401 0.0
H1193 H 0.63031 0.37446 0.71136 0.0
H1194 H 0.66784 0.35262 0.529 0.0
H1195 H 0.65825 0.3653 0.58849 0.0
C1196 C 0.88612 0.4091 0.75992 0.0
C1197 C 0.89681 0.40478 0.74522 0.0
C1198 C 0.87938 0.40309 0.79395 0.0
C1199 C 0.88042 0.38013 0.8885 0.0
H1200 H 0.8483 0.37631 0.85648 0.0
C1201 C 0.85286 0.3463 0.98576 0.0
C1202 C 0.84198 0.34973 0.00201 0.0
C1203 C 0.8592 0.35325 0.95393 0.0
C1204 C 0.85722 0.37739 0.8662 0.0
H1205 H 0.909 0.39102 0.75581 0.0
H1206 H 0.89726 0.38055 0.81492 0.0
H1207 H 0.86027 0.38858 0.80476 0.0
H1208 H 0.82902 0.36293 0.99628 0.0
H1209 H 0.84013 0.3751 0.94054 0.0
H1210 H 0.87742 0.36887 0.94961 0.0
C1211 C 0.89409 0.3886 0.80056 0.0
C1212 C 0.86407 0.38445 0.83669 0.0
C1213 C 0.90081 0.39458 0.76652 0.0
C1214 C 0.83737 0.36005 0.98424 0.0
C1215 C 0.84373 0.36701 0.95229 0.0
C1216 C 0.87359 0.37307 0.91792 0.0
C1217 C 0.88322 0.39268 0.81404 0.0
C1218 C 0.87578 0.38581 0.84725 0.0
C1219 C 0.85481 0.36379 0.93763 0.0
C1220 C 0.86194 0.37153 0.90681 0.0
H1221 H 0.88282 0.41695 0.7441 0.0
H1222 H 0.87111 0.40654 0.80413 0.0
H1223 H 0.88936 0.38114 0.89812 0.0
H1224 H 0.85662 0.33837 -0.0013 0.0
H1225 H 0.86762 0.35043 0.9425 0.0
C1226 C 0.88524 0.58746 0.23672 0.0
C1227 C 0.89581 0.59194 0.2522 0.0
C1228 C 0.87818 0.59374 0.20484 0.0
C1229 C 0.87264 0.62348 0.16685 0.0
H1230 H 0.85607 0.6098 0.05734 0.0
C1231 C 0.85126 0.65032 0.01414 0.0
C1232 C 0.84081 0.64656 0.99437 0.0
C1233 C 0.8572 0.64361 0.04831 0.0
C1234 C 0.8605 0.61371 0.08826 0.0
H1235 H 0.90749 0.60625 0.24486 0.0
H1236 H 0.89527 0.6171 0.18887 0.0
H1237 H 0.86827 0.59784 0.10951 0.0
H1238 H 0.82818 0.63298 0.99599 0.0
H1239 H 0.83852 0.62127 0.0563 0.0
H1240 H 0.86496 0.63934 0.14564 0.0
C1241 C 0.89233 0.60886 0.20203 0.0
C1242 C 0.86751 0.60687 0.11803 0.0
C1243 C 0.89937 0.60259 0.23376 0.0
C1244 C 0.83623 0.6361 0.01063 0.0
C1245 C 0.84219 0.62936 0.04482 0.0
C1246 C 0.86564 0.6303 0.13721 0.0
C1247 C 0.88156 0.60461 0.188 0.0
C1248 C 0.87378 0.61171 0.15724 0.0
C1249 C 0.85282 0.63297 0.06351 0.0
C1250 C 0.85959 0.62554 0.09719 0.0
H1251 H 0.88226 0.57928 0.25047 0.0
H1252 H 0.86991 0.59025 0.19483 0.0
H1253 H 0.87716 0.62742 0.19749 0.0
H1254 H 0.85504 0.65833 0.00219 0.0
H1255 H 0.86543 0.64659 0.0615 0.0
C1256 C 0.33613 0.36146 0.50969 0.0
C1257 C 0.34028 0.35061 0.49631 0.0
C1258 C 0.34205 0.36817 0.54417 0.0
C1259 C 0.3642 0.36673 0.64229 0.0
H1260 H 0.36937 0.39862 0.60951 0.0
C1261 C 0.39896 0.39298 0.73954 0.0
C1262 C 0.39605 0.40404 0.75545 0.0
C1263 C 0.39171 0.38691 0.70798 0.0
C1264 C 0.36789 0.38977 0.61945 0.0
H1265 H 0.35365 0.33813 0.50953 0.0
H1266 H 0.36396 0.3498 0.56936 0.0
H1267 H 0.35698 0.38698 0.55681 0.0
H1268 H 0.38347 0.41759 0.74945 0.0
H1269 H 0.37076 0.40694 0.69402 0.0
H1270 H 0.37521 0.36945 0.70446 0.0
C1271 C 0.35611 0.35312 0.55368 0.0
C1272 C 0.36077 0.3831 0.58938 0.0
C1273 C 0.35022 0.34645 0.5192 0.0
C1274 C 0.38594 0.40908 0.73768 0.0
C1275 C 0.37868 0.403 0.70593 0.0
C1276 C 0.37131 0.37337 0.67223 0.0
C1277 C 0.35219 0.36413 0.56605 0.0
C1278 C 0.35897 0.37146 0.60011 0.0
C1279 C 0.38138 0.39175 0.69158 0.0
C1280 C 0.37338 0.38492 0.66076 0.0
H1281 H 0.32848 0.36489 0.4926 0.0
H1282 H 0.33874 0.37656 0.55339 0.0
H1283 H 0.36282 0.35785 0.6521 0.0
H1284 H 0.40672 0.38888 0.75243 0.0
H1285 H 0.39415 0.37835 0.69677 0.0
C1286 C 0.3513 0.65067 0.47908 0.0
C1287 C 0.34106 0.64682 0.50059 0.0
C1288 C 0.35707 0.64392 0.4445 0.0
C1289 C 0.3606 0.61396 0.40613 0.0
H1290 H 0.37612 0.62758 0.29364 0.0
C1291 C 0.38538 0.5877 0.25755 0.0
C1292 C 0.39575 0.59243 0.24105 0.0
C1293 C 0.37822 0.59391 0.28924 0.0
C1294 C 0.37191 0.62366 0.32515 0.0
H1295 H 0.32864 0.63305 0.50175 0.0
H1296 H 0.3387 0.62126 0.4408 0.0
H1297 H 0.36401 0.63942 0.34617 0.0
H1298 H 0.40698 0.60715 0.24633 0.0
H1299 H 0.39459 0.61789 0.30191 0.0
H1300 H 0.36861 0.59819 0.38514 0.0
C1301 C 0.34232 0.62945 0.45118 0.0
C1302 C 0.36496 0.63044 0.35518 0.0
C1303 C 0.33652 0.63623 0.48575 0.0
C1304 C 0.39901 0.6033 0.25819 0.0
C1305 C 0.39187 0.60949 0.28971 0.0
C1306 C 0.36756 0.60715 0.37597 0.0
C1307 C 0.35274 0.63316 0.43065 0.0
C1308 C 0.35935 0.62572 0.39645 0.0
C1309 C 0.38129 0.60498 0.30482 0.0
C1310 C 0.37343 0.61198 0.33561 0.0
H1311 H 0.35503 0.65878 0.4899 0.0
H1312 H 0.36513 0.64698 0.42988 0.0
H1313 H 0.3565 0.61008 0.43798 0.0
H1314 H 0.38264 0.57935 0.24481 0.0
H1315 H 0.3701 0.59022 0.30015 0.0
C1316 C 0.14353 0.64928 0.00895 0.0
C1317 C 0.15417 0.64578 0.99019 0.0
C1318 C 0.13735 0.64219 0.04075 0.0
C1319 C 0.13944 0.61735 0.12436 0.0
H1320 H 0.10702 0.61459 0.09611 0.0
C1321 C 0.11015 0.58603 0.23159 0.0
C1322 C 0.09966 0.5906 0.24745 0.0
C1323 C 0.11694 0.59198 0.19754 0.0
C1324 C 0.11604 0.61532 0.10471 0.0
H1325 H 0.1669 0.63231 0.99153 0.0
H1326 H 0.15607 0.61987 0.04733 0.0
H1327 H 0.11892 0.62684 0.04443 0.0
H1328 H 0.0879 0.60481 0.23915 0.0
H1329 H 0.09972 0.61519 0.1801 0.0
H1330 H 0.1365 0.60592 0.18512 0.0
C1331 C 0.15253 0.62813 0.03748 0.0
C1332 C 0.12286 0.62236 0.07517 0.0
C1333 C 0.15873 0.63524 0.00552 0.0
C1334 C 0.09593 0.60105 0.22749 0.0
C1335 C 0.10269 0.60697 0.19347 0.0
C1336 C 0.1326 0.61031 0.15406 0.0
C1337 C 0.14166 0.63143 0.0545 0.0
C1338 C 0.1346 0.62358 0.08505 0.0
C1339 C 0.11334 0.60259 0.1786 0.0
C1340 C 0.12079 0.60934 0.14492 0.0
H1341 H 0.13981 0.65739 0.99802 0.0
H1342 H 0.1291 0.64507 0.05408 0.0
H1343 H 0.14845 0.61817 0.13304 0.0
H1344 H 0.11325 0.57799 0.2464 0.0
H1345 H 0.12505 0.58831 0.18632 0.0
C1346 C 0.09526 0.3954 0.77439 0.0
C1347 C 0.09916 0.40554 0.75226 0.0
C1348 C 0.102 0.38968 0.80916 0.0
C1349 C 0.13196 0.38598 0.84664 0.0
H1350 H 0.11836 0.37051 0.95932 0.0
C1351 C 0.15803 0.36055 0.99395 0.0
C1352 C 0.15318 0.35017 0.00976 0.0
C1353 C 0.15191 0.36789 0.9627 0.0
C1354 C 0.12227 0.37471 0.92778 0.0
H1355 H 0.113 0.41788 0.75028 0.0
H1356 H 0.12477 0.40792 0.81161 0.0
H1357 H 0.10657 0.38284 0.90748 0.0
H1358 H 0.13834 0.33911 0.00367 0.0
H1359 H 0.12775 0.35182 0.94891 0.0
H1360 H 0.14765 0.37773 0.86694 0.0
C1361 C 0.11655 0.40433 0.80156 0.0
C1362 C 0.11552 0.38179 0.89815 0.0
C1363 C 0.10978 0.41007 0.76677 0.0
C1364 C 0.14229 0.34708 0.99233 0.0
C1365 C 0.13618 0.3544 0.96129 0.0
C1366 C 0.13873 0.3789 0.87644 0.0
C1367 C 0.11279 0.39398 0.8226 0.0
C1368 C 0.12023 0.38735 0.85674 0.0
C1369 C 0.14081 0.36499 0.94694 0.0
C1370 C 0.1339 0.37303 0.91679 0.0
H1371 H 0.08713 0.39168 0.76384 0.0
H1372 H 0.0989 0.38166 0.82416 0.0
H1373 H 0.13582 0.39004 0.81469 0.0
H1374 H 0.1664 0.36316 0.00693 0.0
H1375 H 0.15569 0.376 0.95232 0.0
C1376 C 0.17087 0.291 0.06129 0.0
C1377 C 0.16517 0.29627 0.10103 0.0
C1378 C 0.17046 0.27912 0.05542 0.0
C1379 C 0.15416 0.25342 0.09359 0.0
H1380 H 0.18252 0.23735 0.06706 0.0
C1381 C 0.15984 0.2055 0.13364 0.0
C1382 C 0.16614 0.19887 0.09991 0.0
C1383 C 0.1592 0.21735 0.1281 0.0
C1384 C 0.17449 0.24171 0.07369 0.0
H1385 H 0.15444 0.2933 0.16534 0.0
H1386 H 0.15379 0.27262 0.15539 0.0
H1387 H 0.18228 0.25821 0.0672 0.0
H1388 H 0.1766 0.1994 0.03357 0.0
H1389 H 0.17545 0.22017 0.02379 0.0
H1390 H 0.14642 0.23692 0.10105 0.0
C1391 C 0.15847 0.27763 0.12838 0.0
C1392 C 0.17436 0.25367 0.07376 0.0
C1393 C 0.15891 0.28948 0.13429 0.0
C1394 C 0.1717 0.20431 0.06019 0.0
C1395 C 0.17108 0.21619 0.05472 0.0
C1396 C 0.1543 0.24148 0.09354 0.0
C1397 C 0.1643 0.2723 0.08908 0.0
C1398 C 0.16423 0.25965 0.08457 0.0
C1399 C 0.16485 0.22284 0.08875 0.0
C1400 C 0.16451 0.23549 0.08445 0.0
H1401 H 0.17574 0.29604 0.03502 0.0
H1402 H 0.17495 0.27527 0.02451 0.0
H1403 H 0.14618 0.25778 0.10112 0.0
H1404 H 0.15548 0.20155 0.16468 0.0
H1405 H 0.15447 0.22224 0.15537 0.0
C1406 C 0.95579 0.90945 0.38019 0.0
C1407 C 0.94916 0.91613 0.34789 0.0
C1408 C 0.96764 0.90889 0.3746 0.0
C1409 C 0.99193 0.92498 0.32418 0.0
H1410 H 0.0082 0.89646 0.34456 0.0
C1411 C 0.04114 0.92202 0.30923 0.0
C1412 C 0.04661 0.9158 0.34694 0.0
C1413 C 0.02925 0.92154 0.30387 0.0
C1414 C 0.00379 0.9045 0.33906 0.0
H1415 H 0.94968 0.92735 0.28394 0.0
H1416 H 0.97046 0.92637 0.27407 0.0
H1417 H 0.98735 0.89656 0.34484 0.0
H1418 H 0.04398 0.90405 0.4081 0.0
H1419 H 0.02327 0.90329 0.39914 0.0
H1420 H 0.00836 0.93296 0.31942 0.0
C1421 C 0.96648 0.92163 0.30394 0.0
C1422 C 0.99184 0.90456 0.33919 0.0
C1423 C 0.95459 0.92215 0.30945 0.0
C1424 C 0.04 0.90893 0.37861 0.0
C1425 C 0.02814 0.90844 0.37326 0.0
C1426 C 0.00388 0.92492 0.32412 0.0
C1427 C 0.97313 0.91503 0.33663 0.0
C1428 C 0.98579 0.91482 0.33249 0.0
C1429 C 0.02261 0.9148 0.33608 0.0
C1430 C 0.00994 0.91471 0.3323 0.0
H1431 H 0.95185 0.90473 0.41022 0.0
H1432 H 0.97254 0.90387 0.40082 0.0
H1433 H 0.98751 0.93305 0.3195 0.0
H1434 H 0.04602 0.92737 0.28417 0.0
H1435 H 0.02526 0.92644 0.27451 0.0
C1436 C 0.32354 0.79179 0.571 0.0
C1437 C 0.32873 0.79765 0.61054 0.0
C1438 C 0.32374 0.77983 0.56921 0.0
C1439 C 0.32698 0.75467 0.65028 0.0
H1440 H 0.3329 0.73833 0.52778 0.0
C1441 C 0.33476 0.70616 0.64775 0.0
C1442 C 0.32942 0.69981 0.61013 0.0
C1443 C 0.33482 0.7181 0.64608 0.0
C1444 C 0.33111 0.74278 0.56215 0.0
H1445 H 0.33836 0.79562 0.67872 0.0
H1446 H 0.33877 0.77481 0.67542 0.0
H1447 H 0.33269 0.75924 0.52788 0.0
H1448 H 0.32009 0.70093 0.54082 0.0
H1449 H 0.32011 0.72183 0.53806 0.0
H1450 H 0.32537 0.73827 0.68462 0.0
C1451 C 0.33442 0.77941 0.64614 0.0
C1452 C 0.33099 0.75474 0.56221 0.0
C1453 C 0.33424 0.79134 0.64787 0.0
C1454 C 0.32429 0.70562 0.57032 0.0
C1455 C 0.32435 0.71758 0.56863 0.0
C1456 C 0.32709 0.74274 0.65023 0.0
C1457 C 0.3291 0.77351 0.60702 0.0
C1458 C 0.329 0.76082 0.60637 0.0
C1459 C 0.32952 0.72395 0.60676 0.0
C1460 C 0.32923 0.73665 0.60626 0.0
H1461 H 0.31923 0.79644 0.54173 0.0
H1462 H 0.31949 0.77553 0.5388 0.0
H1463 H 0.32519 0.75909 0.68472 0.0
H1464 H 0.33884 0.70192 0.67879 0.0
H1465 H 0.33904 0.72274 0.67561 0.0
C1466 C 0.45538 0.0869 0.88042 0.0
C1467 C 0.44894 0.07954 0.85013 0.0
C1468 C 0.46726 0.08735 0.87603 0.0
C1469 C 0.49177 0.07018 0.83618 0.0
H1470 H 0.50809 0.09901 0.84372 0.0
C1471 C 0.54095 0.07253 0.82121 0.0
C1472 C 0.54651 0.07991 0.85451 0.0
C1473 C 0.52906 0.07285 0.81612 0.0
C1474 C 0.50366 0.09088 0.84198 0.0
H1475 H 0.44984 0.06701 0.79099 0.0
H1476 H 0.47067 0.06778 0.78338 0.0
H1477 H 0.48722 0.09895 0.84259 0.0
H1478 H 0.54404 0.09347 0.90826 0.0
H1479 H 0.52328 0.0939 0.90006 0.0
H1480 H 0.50816 0.06208 0.8367 0.0
C1481 C 0.46651 0.07315 0.81068 0.0
C1482 C 0.49172 0.09085 0.84123 0.0
C1483 C 0.4546 0.07275 0.81487 0.0
C1484 C 0.53998 0.0877 0.88221 0.0
C1485 C 0.52809 0.08799 0.87724 0.0
C1486 C 0.50371 0.0702 0.83713 0.0
C1487 C 0.47297 0.08041 0.84143 0.0
C1488 C 0.48564 0.08049 0.83885 0.0
C1489 C 0.52248 0.08053 0.84433 0.0
C1490 C 0.5098 0.08055 0.84058 0.0
H1491 H 0.45125 0.09223 0.90795 0.0
H1492 H 0.47201 0.09292 0.90065 0.0
H1493 H 0.48733 0.06205 0.83498 0.0
H1494 H 0.54578 0.06647 0.79918 0.0
H1495 H 0.52503 0.06709 0.78995 0.0
C1496 C 0.15696 0.79039 0.86393 0.0
C1497 C 0.16448 0.79668 0.89401 0.0
C1498 C 0.15661 0.77848 0.8669 0.0
C1499 C 0.16446 0.75372 0.9448 0.0
H1500 H 0.16414 0.7376 0.81912 0.0
C1501 C 0.17217 0.70483 0.92658 0.0
C1502 C 0.16552 0.69897 0.8914 0.0
C1503 C 0.17166 0.71676 0.92987 0.0
C1504 C 0.16408 0.74195 0.85457 0.0
H1505 H 0.17728 0.79549 0.95194 0.0
H1506 H 0.17674 0.77461 0.95692 0.0
H1507 H 0.16379 0.75839 0.81998 0.0
H1508 H 0.15287 0.70092 0.83323 0.0
H1509 H 0.15186 0.72166 0.83942 0.0
H1510 H 0.16478 0.73721 0.97931 0.0
C1511 C 0.17105 0.77891 0.93128 0.0
C1512 C 0.16388 0.75388 0.85506 0.0
C1513 C 0.1714 0.79085 0.92827 0.0
C1514 C 0.15816 0.70521 0.86046 0.0
C1515 C 0.15763 0.7171 0.86382 0.0
C1516 C 0.16464 0.74175 0.94432 0.0
C1517 C 0.16379 0.77259 0.89999 0.0
C1518 C 0.16401 0.7599 0.90013 0.0
C1519 C 0.16449 0.72304 0.89804 0.0
C1520 C 0.16439 0.73574 0.89916 0.0
H1521 H 0.15146 0.79466 0.83739 0.0
H1522 H 0.15078 0.77387 0.84293 0.0
H1523 H 0.16449 0.75813 0.98012 0.0
H1524 H 0.17793 0.70022 0.9509 0.0
H1525 H 0.17712 0.72109 0.95636 0.0
C1526 C 0.45498 0.92319 0.18758 0.0
C1527 C 0.44969 0.91615 0.15213 0.0
C1528 C 0.46685 0.92288 0.19407 0.0
C1529 C 0.49255 0.90534 0.16665 0.0
H1530 H 0.50862 0.93428 0.17642 0.0
C1531 C 0.54024 0.91021 0.12019 0.0
C1532 C 0.54698 0.91733 0.15031 0.0
C1533 C 0.52843 0.90961 0.12713 0.0
C1534 C 0.50425 0.92612 0.17452 0.0
H1535 H 0.45262 0.90314 0.09623 0.0
H1536 H 0.47328 0.90271 0.10697 0.0
H1537 H 0.48776 0.93404 0.17654 0.0
H1538 H 0.54669 0.92928 0.21175 0.0
H1539 H 0.52596 0.92827 0.22376 0.0
H1540 H 0.50906 0.89747 0.16318 0.0
C1541 C 0.46829 0.90835 0.13036 0.0
C1542 C 0.4923 0.92597 0.17463 0.0
C1543 C 0.45645 0.90866 0.12394 0.0
C1544 C 0.5417 0.92374 0.18795 0.0
C1545 C 0.52984 0.92319 0.19469 0.0
C1546 C 0.50449 0.90549 0.16634 0.0
C1547 C 0.47365 0.91552 0.16523 0.0
C1548 C 0.48631 0.91559 0.1698 0.0
C1549 C 0.52309 0.91615 0.16418 0.0
C1550 C 0.51046 0.9159 0.16938 0.0
H1551 H 0.44997 0.92903 0.20997 0.0
H1552 H 0.47069 0.92842 0.22163 0.0
H1553 H 0.4882 0.89718 0.16388 0.0
H1554 H 0.54407 0.90517 0.09086 0.0
H1555 H 0.52345 0.90422 0.1026 0.0
C1556 C 0.32424 0.20563 0.426 0.0
C1557 C 0.32982 0.19981 0.38739 0.0
C1558 C 0.32438 0.21759 0.42792 0.0
C1559 C 0.32821 0.24272 0.34729 0.0
H1560 H 0.33239 0.25922 0.47074 0.0
C1561 C 0.33486 0.29139 0.35087 0.0
C1562 C 0.32896 0.29763 0.38727 0.0
C1563 C 0.33518 0.27946 0.35272 0.0
C1564 C 0.3311 0.25473 0.43607 0.0
H1565 H 0.34014 0.20189 0.32121 0.0
H1566 H 0.34048 0.22271 0.32479 0.0
H1567 H 0.3326 0.23831 0.47083 0.0
H1568 H 0.31892 0.29632 0.45458 0.0
H1569 H 0.31938 0.27542 0.4576 0.0
H1570 H 0.32666 0.25907 0.31247 0.0
C1571 C 0.33585 0.21807 0.35317 0.0
C1572 C 0.33122 0.24276 0.43612 0.0
C1573 C 0.33571 0.20614 0.35128 0.0
C1574 C 0.32354 0.29172 0.42604 0.0
C1575 C 0.32385 0.27976 0.4279 0.0
C1576 C 0.32808 0.25465 0.34724 0.0
C1577 C 0.33009 0.22394 0.39119 0.0
C1578 C 0.32984 0.23663 0.39165 0.0
C1579 C 0.32959 0.2735 0.39097 0.0
C1580 C 0.32959 0.2608 0.39155 0.0
H1581 H 0.31961 0.20097 0.45432 0.0
H1582 H 0.31978 0.22186 0.45745 0.0
H1583 H 0.32689 0.23826 0.31256 0.0
H1584 H 0.33918 0.29571 0.32067 0.0
H1585 H 0.33984 0.2749 0.32418 0.0
C1586 C 0.95448 0.07378 0.68784 0.0
C1587 C 0.9491 0.07996 0.64973 0.0
C1588 C 0.96636 0.07423 0.69352 0.0
C1589 C 0.99186 0.09126 0.65904 0.0
H1590 H 0.0082 0.06272 0.67745 0.0
C1591 C 0.03979 0.08659 0.61661 0.0
C1592 C 0.04649 0.0798 0.64821 0.0
C1593 C 0.02794 0.08708 0.62261 0.0
C1594 C 0.00376 0.07079 0.67312 0.0
H1595 H 0.95188 0.09156 0.58817 0.0
H1596 H 0.97256 0.09229 0.59781 0.0
H1597 H 0.98734 0.06277 0.67792 0.0
H1598 H 0.0461 0.06833 0.71134 0.0
H1599 H 0.02535 0.06922 0.72198 0.0
H1600 H 0.00827 0.09925 0.65331 0.0
C1601 C 0.96763 0.0872 0.62369 0.0
C1602 C 0.99181 0.07082 0.6734 0.0
C1603 C 0.95578 0.08672 0.61795 0.0
C1604 C 0.04114 0.07361 0.68635 0.0
C1605 C 0.02926 0.07409 0.6923 0.0
C1606 C 0.0038 0.09123 0.65877 0.0
C1607 C 0.97307 0.0809 0.66131 0.0
C1608 C 0.98573 0.08102 0.66549 0.0
C1609 C 0.02253 0.08079 0.66032 0.0
C1610 C 0.00988 0.08097 0.66495 0.0
H1611 H 0.94953 0.06851 0.71296 0.0
H1612 H 0.9703 0.06937 0.72313 0.0
H1613 H 0.98741 0.0993 0.65377 0.0
H1614 H 0.04367 0.09144 0.58682 0.0
H1615 H 0.02299 0.0922 0.5969 0.0
C1616 C 0.83343 0.70546 0.84338 0.0
C1617 C 0.82859 0.69918 0.88248 0.0
C1618 C 0.83358 0.71739 0.84479 0.0
C1619 C 0.83136 0.74211 0.92941 0.0
H1620 H 0.82384 0.75853 0.80878 0.0
C1621 C 0.82409 0.79114 0.92359 0.0
C1622 C 0.82867 0.79703 0.88275 0.0
C1623 C 0.82424 0.77918 0.92498 0.0
C1624 C 0.82609 0.75408 0.84263 0.0
H1625 H 0.82024 0.70043 0.95405 0.0
H1626 H 0.82043 0.72133 0.9564 0.0
H1627 H 0.82382 0.7377 0.80872 0.0
H1628 H 0.83715 0.79505 0.81176 0.0
H1629 H 0.83749 0.77422 0.81435 0.0
H1630 H 0.83361 0.75854 0.96328 0.0
C1631 C 0.8242 0.71702 0.92484 0.0
C1632 C 0.82607 0.74214 0.8426 0.0
C1633 C 0.82404 0.70506 0.92339 0.0
C1634 C 0.83352 0.79075 0.84365 0.0
C1635 C 0.83365 0.77881 0.845 0.0
C1636 C 0.83137 0.75408 0.92944 0.0
C1637 C 0.82889 0.72331 0.88535 0.0
C1638 C 0.82877 0.73602 0.8859 0.0
C1639 C 0.82894 0.77289 0.88549 0.0
C1640 C 0.82879 0.76019 0.88596 0.0
H1641 H 0.83705 0.70116 0.81144 0.0
H1642 H 0.83742 0.72199 0.81415 0.0
H1643 H 0.83359 0.73764 0.96322 0.0
H1644 H 0.82029 0.79576 0.95424 0.0
H1645 H 0.82045 0.77486 0.95648 0.0
C1646 C 0.65663 0.20416 0.37407 0.0
C1647 C 0.66541 0.1982 0.39838 0.0
C1648 C 0.6559 0.21605 0.37772 0.0
C1649 C 0.6653 0.24098 0.45121 0.0
H1650 H 0.66012 0.25741 0.32837 0.0
C1651 C 0.67157 0.28999 0.43101 0.0
C1652 C 0.66403 0.29586 0.39945 0.0
C1653 C 0.67109 0.27806 0.43471 0.0
C1654 C 0.66139 0.25297 0.36318 0.0
H1655 H 0.68014 0.19993 0.44664 0.0
H1656 H 0.67889 0.22076 0.45283 0.0
H1657 H 0.66044 0.23663 0.32794 0.0
H1658 H 0.64974 0.29395 0.3489 0.0
H1659 H 0.64873 0.27322 0.35613 0.0
H1660 H 0.66629 0.25739 0.48639 0.0
C1661 C 0.67253 0.21622 0.43123 0.0
C1662 C 0.66159 0.24105 0.36289 0.0
C1663 C 0.67328 0.20432 0.42746 0.0
C1664 C 0.65573 0.28964 0.37317 0.0
C1665 C 0.65521 0.27776 0.37709 0.0
C1666 C 0.66506 0.25295 0.45155 0.0
C1667 C 0.66392 0.22223 0.40582 0.0
C1668 C 0.66355 0.23491 0.40684 0.0
C1669 C 0.66303 0.27179 0.40707 0.0
C1670 C 0.6631 0.25908 0.40749 0.0
H1671 H 0.6504 0.19967 0.3516 0.0
H1672 H 0.64906 0.22042 0.35831 0.0
H1673 H 0.66674 0.23647 0.48574 0.0
H1674 H 0.67806 0.29457 0.45165 0.0
H1675 H 0.6773 0.27373 0.45785 0.0
C1676 C 0.82342 0.29148 0.06783 0.0
C1677 C 0.82865 0.29726 0.10748 0.0
C1678 C 0.82351 0.27952 0.06586 0.0
C1679 C 0.82664 0.25432 0.14701 0.0
H1680 H 0.83197 0.23786 0.02431 0.0
C1681 C 0.83448 0.20587 0.14474 0.0
C1682 C 0.82883 0.19944 0.10821 0.0
C1683 C 0.83452 0.2178 0.1426 0.0
C1684 C 0.83035 0.24234 0.05874 0.0
H1685 H 0.8383 0.2951 0.17552 0.0
H1686 H 0.83858 0.2743 0.17183 0.0
H1687 H 0.83196 0.25877 0.02419 0.0
H1688 H 0.81898 0.20041 0.04025 0.0
H1689 H 0.819 0.22132 0.03659 0.0
H1690 H 0.82506 0.23795 0.18164 0.0
C1691 C 0.83424 0.27896 0.14267 0.0
C1692 C 0.83034 0.25431 0.05867 0.0
C1693 C 0.83414 0.29088 0.14462 0.0
C1694 C 0.8234 0.20516 0.06892 0.0
C1695 C 0.82346 0.21712 0.06671 0.0
C1696 C 0.82666 0.24238 0.14708 0.0
C1697 C 0.82883 0.27313 0.10357 0.0
C1698 C 0.82857 0.26043 0.10293 0.0
C1699 C 0.82892 0.22356 0.10386 0.0
C1700 C 0.82861 0.23626 0.10306 0.0
H1701 H 0.81912 0.29618 0.0387 0.0
H1702 H 0.8192 0.27528 0.03546 0.0
H1703 H 0.825 0.25876 0.18153 0.0
H1704 H 0.83879 0.20171 0.17535 0.0
H1705 H 0.83896 0.22251 0.17133 0.0
C1706 C 0.65807 0.70504 0.63247 0.0
C1707 C 0.66468 0.69861 0.59917 0.0
C1708 C 0.65783 0.71694 0.62938 0.0
C1709 C 0.6639 0.74157 0.54804 0.0
H1710 H 0.66655 0.75767 0.67328 0.0
C1711 C 0.67107 0.7907 0.56441 0.0
C1712 C 0.66506 0.79631 0.60242 0.0
C1713 C 0.67079 0.77875 0.56072 0.0
C1714 C 0.66567 0.75332 0.63802 0.0
H1715 H 0.67595 0.69954 0.53548 0.0
H1716 H 0.67561 0.72045 0.53029 0.0
H1717 H 0.66643 0.73689 0.67241 0.0
H1718 H 0.65373 0.79389 0.66522 0.0
H1719 H 0.65313 0.77315 0.65846 0.0
H1720 H 0.66317 0.75811 0.51376 0.0
C1721 C 0.67055 0.71625 0.55857 0.0
C1722 C 0.6656 0.7414 0.63752 0.0
C1723 C 0.67078 0.7043 0.56166 0.0
C1724 C 0.65853 0.7898 0.63577 0.0
C1725 C 0.65823 0.77791 0.63206 0.0
C1726 C 0.66397 0.75355 0.54854 0.0
C1727 C 0.66423 0.7227 0.59301 0.0
C1728 C 0.6646 0.73538 0.59264 0.0
C1729 C 0.6645 0.77223 0.59503 0.0
C1730 C 0.66473 0.75954 0.59364 0.0
H1731 H 0.6532 0.70089 0.66153 0.0
H1732 H 0.65269 0.72165 0.65584 0.0
H1733 H 0.66306 0.73716 0.5129 0.0
H1734 H 0.67617 0.79551 0.53817 0.0
H1735 H 0.67575 0.77462 0.53196 0.0
C1736 C 0.54039 0.40944 0.88475 0.0
C1737 C 0.54704 0.4151 0.84902 0.0
C1738 C 0.52852 0.40888 0.87979 0.0
C1739 C 0.50434 0.42373 0.82164 0.0
H1740 H 0.48774 0.39627 0.85818 0.0
C1741 C 0.45501 0.42079 0.80982 0.0
C1742 C 0.44958 0.41578 0.85089 0.0
C1743 C 0.46689 0.42012 0.80453 0.0
C1744 C 0.49225 0.40402 0.84812 0.0
H1745 H 0.54654 0.42445 0.77963 0.0
H1746 H 0.52575 0.42343 0.77083 0.0
H1747 H 0.5086 0.39609 0.85774 0.0
H1748 H 0.45228 0.40604 0.91832 0.0
H1749 H 0.47297 0.40497 0.90939 0.0
H1750 H 0.488 0.43172 0.81292 0.0
C1751 C 0.52972 0.41952 0.8029 0.0
C1752 C 0.50419 0.40392 0.84785 0.0
C1753 C 0.54161 0.42005 0.80781 0.0
C1754 C 0.45622 0.40997 0.8862 0.0
C1755 C 0.46808 0.40929 0.8809 0.0
C1756 C 0.49239 0.42383 0.82194 0.0
C1757 C 0.52304 0.41398 0.83901 0.0
C1758 C 0.51037 0.41382 0.83536 0.0
C1759 C 0.47356 0.4144 0.84015 0.0
C1760 C 0.48622 0.41403 0.83595 0.0
H1761 H 0.54434 0.40556 0.91697 0.0
H1762 H 0.52362 0.40469 0.90862 0.0
H1763 H 0.50885 0.43153 0.81239 0.0
H1764 H 0.4501 0.4253 0.78195 0.0
H1765 H 0.47086 0.42405 0.77249 0.0
C1766 C 0.9555 0.58489 0.39069 0.0
C1767 C 0.94907 0.57907 0.35465 0.0
C1768 C 0.96742 0.58494 0.38848 0.0
C1769 C 0.99198 0.58035 0.30504 0.0
H1770 H 0.00834 0.57566 0.42847 0.0
C1771 C 0.04105 0.57322 0.31536 0.0
C1772 C 0.04685 0.57867 0.35443 0.0
C1773 C 0.0291 0.57339 0.31325 0.0
C1774 C 0.00391 0.57711 0.39376 0.0
H1775 H 0.95004 0.56894 0.28744 0.0
H1776 H 0.97095 0.56898 0.28371 0.0
H1777 H 0.98754 0.57574 0.42844 0.0
H1778 H 0.04472 0.58878 0.42122 0.0
H1779 H 0.02393 0.58917 0.41728 0.0
H1780 H 0.00842 0.58172 0.27044 0.0
C1781 C 0.96675 0.57357 0.31348 0.0
C1782 C 0.99198 0.57715 0.39374 0.0
C1783 C 0.95479 0.5735 0.31573 0.0
C1784 C 0.04049 0.58445 0.3908 0.0
C1785 C 0.02857 0.58461 0.3887 0.0
C1786 C 0.00394 0.58031 0.30506 0.0
C1787 C 0.97319 0.57918 0.35019 0.0
C1788 C 0.98588 0.57887 0.34949 0.0
C1789 C 0.02273 0.57898 0.35022 0.0
C1790 C 0.01004 0.57878 0.34953 0.0
H1791 H 0.95134 0.58932 0.421 0.0
H1792 H 0.97213 0.58952 0.41683 0.0
H1793 H 0.98751 0.58179 0.27042 0.0
H1794 H 0.04574 0.56869 0.28682 0.0
H1795 H 0.02484 0.5689 0.28334 0.0
C1796 C 0.95489 0.424 0.67425 0.0
C1797 C 0.94893 0.41577 0.64647 0.0
C1798 C 0.96681 0.42353 0.67804 0.0
C1799 C 0.99183 0.41243 0.61141 0.0
H1800 H 0.00809 0.41876 0.73373 0.0
C1801 C 0.04053 0.40728 0.62415 0.0
C1802 C 0.04661 0.41587 0.64922 0.0
C1803 C 0.02863 0.40677 0.62723 0.0
C1804 C 0.00367 0.41708 0.69919 0.0
H1805 H 0.95069 0.40038 0.60221 0.0
H1806 H 0.97146 0.3995 0.60909 0.0
H1807 H 0.98718 0.41877 0.73316 0.0
H1808 H 0.04508 0.43051 0.69805 0.0
H1809 H 0.02422 0.42977 0.70276 0.0
H1810 H 0.00822 0.4109 0.57713 0.0
C1811 C 0.96696 0.40642 0.62735 0.0
C1812 C 0.9917 0.41707 0.6989 0.0
C1813 C 0.95507 0.40689 0.62362 0.0
C1814 C 0.04059 0.42379 0.67838 0.0
C1815 C 0.02866 0.42332 0.68127 0.0
C1816 C 0.00376 0.41247 0.61166 0.0
C1817 C 0.97298 0.41482 0.65402 0.0
C1818 C 0.98567 0.41472 0.65498 0.0
C1819 C 0.02253 0.41489 0.65519 0.0
C1820 C 0.00983 0.41477 0.65554 0.0
H1821 H 0.95038 0.43095 0.69226 0.0
H1822 H 0.97122 0.43017 0.69852 0.0
H1823 H 0.98743 0.41081 0.57675 0.0
H1824 H 0.04495 0.40099 0.60172 0.0
H1825 H 0.02419 0.40003 0.60748 0.0
C1826 C 0.45428 0.57406 0.19175 0.0
C1827 C 0.44908 0.58028 0.15329 0.0
C1828 C 0.46611 0.57465 0.19904 0.0
C1829 C 0.49162 0.59208 0.16853 0.0
H1830 H 0.50816 0.56362 0.186 0.0
C1831 C 0.53942 0.58754 0.12435 0.0
C1832 C 0.54622 0.58062 0.15501 0.0
C1833 C 0.52762 0.58815 0.13156 0.0
C1834 C 0.50367 0.57167 0.18203 0.0
H1835 H 0.45212 0.59212 0.09286 0.0
H1836 H 0.47272 0.5931 0.10527 0.0
H1837 H 0.48731 0.56349 0.18532 0.0
H1838 H 0.54607 0.5691 0.21798 0.0
H1839 H 0.52538 0.57017 0.23068 0.0
H1840 H 0.50798 0.60023 0.16403 0.0
C1841 C 0.46768 0.58786 0.13019 0.0
C1842 C 0.49171 0.57159 0.18163 0.0
C1843 C 0.45589 0.58724 0.12284 0.0
C1844 C 0.54102 0.57449 0.19371 0.0
C1845 C 0.52919 0.57506 0.20083 0.0
C1846 C 0.50356 0.59216 0.16891 0.0
C1847 C 0.47294 0.58152 0.16814 0.0
C1848 C 0.48557 0.58177 0.17383 0.0
C1849 C 0.52235 0.58183 0.16955 0.0
C1850 C 0.50971 0.58192 0.17463 0.0
H1851 H 0.44923 0.56864 0.21587 0.0
H1852 H 0.4699 0.56974 0.22885 0.0
H1853 H 0.48712 0.6001 0.1634 0.0
H1854 H 0.54319 0.59237 0.09418 0.0
H1855 H 0.52259 0.59332 0.10638 0.0
C1856 C 0.13936 0.15156 0.24704 0.0
C1857 C 0.14952 0.14675 0.2287 0.0
C1858 C 0.13273 0.14563 0.28167 0.0
C1859 C 0.12778 0.11649 0.33068 0.0
H1860 H 0.11389 0.13249 0.44133 0.0
C1861 C 0.10928 0.09298 0.49973 0.0
C1862 C 0.09864 0.0967 0.51767 0.0
C1863 C 0.11504 0.09925 0.46349 0.0
C1864 C 0.11761 0.12794 0.4103 0.0
H1865 H 0.16082 0.13209 0.23261 0.0
H1866 H 0.14942 0.12184 0.29367 0.0
H1867 H 0.1249 0.14321 0.38002 0.0
H1868 H 0.08569 0.1099 0.5121 0.0
H1869 H 0.09581 0.12093 0.44869 0.0
H1870 H 0.12066 0.1012 0.36146 0.0
C1871 C 0.14641 0.13007 0.28064 0.0
C1872 C 0.1239 0.13407 0.37517 0.0
C1873 C 0.15299 0.13597 0.24591 0.0
C1874 C 0.09388 0.10684 0.49889 0.0
C1875 C 0.09969 0.11317 0.46283 0.0
C1876 C 0.12155 0.11036 0.36591 0.0
C1877 C 0.13617 0.13479 0.29872 0.0
C1878 C 0.12914 0.12839 0.33518 0.0
C1879 C 0.1103 0.1094 0.44466 0.0
C1880 C 0.11649 0.11601 0.40628 0.0
H1881 H 0.13645 0.15985 0.23426 0.0
H1882 H 0.12483 0.14945 0.29445 0.0
H1883 H 0.13149 0.11189 0.29977 0.0
H1884 H 0.11317 0.0852 0.51359 0.0
H1885 H 0.12327 0.09622 0.45061 0.0
C1886 C 0.09521 0.89719 0.52018 0.0
C1887 C 0.10062 0.90234 0.47942 0.0
C1888 C 0.10162 0.89114 0.55518 0.0
C1889 C 0.12827 0.87526 0.56957 0.0
H1890 H 0.12373 0.88022 0.71043 0.0
C1891 C 0.14651 0.84546 0.72122 0.0
C1892 C 0.15184 0.85086 0.7616 0.0
C1893 C 0.14054 0.85189 0.68612 0.0
C1894 C 0.12511 0.87879 0.6712 0.0
H1895 H 0.11692 0.90528 0.44322 0.0
H1896 H 0.12809 0.89461 0.50416 0.0
H1897 H 0.11265 0.89135 0.65052 0.0
H1898 H 0.15516 0.8672 0.79694 0.0
H1899 H 0.14461 0.87843 0.73577 0.0
H1900 H 0.14068 0.86265 0.59025 0.0
C1901 C 0.11892 0.89524 0.50899 0.0
C1902 C 0.11872 0.88508 0.63702 0.0
C1903 C 0.11253 0.90139 0.47433 0.0
C1904 C 0.15114 0.86281 0.76614 0.0
C1905 C 0.14506 0.86923 0.73136 0.0
C1906 C 0.13456 0.86887 0.60376 0.0
C1907 C 0.11351 0.89005 0.54965 0.0
C1908 C 0.12026 0.88339 0.58591 0.0
C1909 C 0.13968 0.86382 0.69113 0.0
C1910 C 0.13305 0.8706 0.65486 0.0
H1911 H 0.08603 0.89779 0.52497 0.0
H1912 H 0.09724 0.88714 0.58605 0.0
H1913 H 0.12955 0.87373 0.53034 0.0
H1914 H 0.14692 0.83625 0.71686 0.0
H1915 H 0.1364 0.84752 0.6556 0.0
C1916 C 0.38664 0.89691 0.01938 0.0
C1917 C 0.39844 0.89897 0.01578 0.0
C1918 C 0.38107 0.89031 0.98368 0.0
C1919 C 0.38281 0.88128 0.85463 0.0
H1920 H 0.3612 0.85787 0.89506 0.0
C1921 C 0.34926 0.86154 0.72302 0.0
C1922 C 0.34783 0.84962 0.72499 0.0
C1923 C 0.35622 0.86709 0.75752 0.0
C1924 C 0.36727 0.86432 0.88325 0.0
H1925 H 0.41368 0.89582 0.9721 0.0
H1926 H 0.40386 0.88437 0.90909 0.0
H1927 H 0.372 0.86836 0.95793 0.0
H1928 H 0.35256 0.83414 0.76422 0.0
H1929 H 0.36463 0.8439 0.82502 0.0
H1930 H 0.37795 0.87733 0.77994 0.0
C1931 C 0.39896 0.88785 0.93965 0.0
C1932 C 0.37338 0.87037 0.91917 0.0
C1933 C 0.40457 0.89435 0.97573 0.0
C1934 C 0.35351 0.84334 0.76192 0.0
C1935 C 0.36037 0.84892 0.79676 0.0
C1936 C 0.37661 0.8753 0.8187 0.0
C1937 C 0.38716 0.88575 0.94342 0.0
C1938 C 0.38114 0.87896 0.90521 0.0
C1939 C 0.36177 0.86084 0.79492 0.0
C1940 C 0.36874 0.86682 0.83272 0.0
H1941 H 0.3817 0.90036 0.0499 0.0
H1942 H 0.37194 0.88893 0.98715 0.0
H1943 H 0.38869 0.88791 0.84292 0.0
H1944 H 0.345 0.86659 0.69486 0.0
H1945 H 0.35706 0.87631 0.75559 0.0
C1946 C 0.40216 0.10555 0.00144 0.0
C1947 C 0.39708 0.09574 0.98093 0.0
C1948 C 0.39646 0.11184 0.0379 0.0
C1949 C 0.37401 0.10941 0.1325 0.0
H1950 H 0.3723 0.14245 0.12175 0.0
C1951 C 0.34327 0.13595 0.25241 0.0
C1952 C 0.34715 0.14651 0.27062 0.0
C1953 C 0.34976 0.12985 0.21799 0.0
C1954 C 0.37284 0.13324 0.1257 0.0
H1955 H 0.38212 0.08478 0.98245 0.0
H1956 H 0.37219 0.09575 0.04618 0.0
H1957 H 0.38305 0.13157 0.06019 0.0
H1958 H 0.36087 0.15897 0.26741 0.0
H1959 H 0.37233 0.14821 0.20782 0.0
H1960 H 0.36386 0.11104 0.198 0.0
C1961 C 0.38059 0.09854 0.03432 0.0
C1962 C 0.37898 0.12702 0.09041 0.0
C1963 C 0.38625 0.0923 0.99767 0.0
C1964 C 0.35765 0.15086 0.25382 0.0
C1965 C 0.36418 0.14473 0.21952 0.0
C1966 C 0.36793 0.11563 0.16791 0.0
C1967 C 0.38563 0.10838 0.05474 0.0
C1968 C 0.37953 0.11503 0.09322 0.0
C1969 C 0.36031 0.13415 0.20125 0.0
C1970 C 0.36717 0.12761 0.16466 0.0
H1971 H 0.41052 0.10839 0.9892 0.0
H1972 H 0.40058 0.11934 0.0533 0.0
H1973 H 0.37445 0.10019 0.136 0.0
H1974 H 0.33518 0.13241 0.26452 0.0
H1975 H 0.34643 0.12183 0.20403 0.0
C1976 C 0.88706 0.90379 0.50018 0.0
C1977 C 0.89766 0.90009 0.48169 0.0
C1978 C 0.8815 0.8976 0.53723 0.0
C1979 C 0.87933 0.869 0.59156 0.0
H1980 H 0.86535 0.88511 0.70171 0.0
C1981 C 0.85745 0.84536 0.75434 0.0
C1982 C 0.84715 0.85007 0.77161 0.0
C1983 C 0.86421 0.85137 0.72043 0.0
C1984 C 0.86911 0.88049 0.67094 0.0
H1985 H 0.91074 0.88701 0.48722 0.0
H1986 H 0.90095 0.87613 0.55202 0.0
H1987 H 0.87607 0.8958 0.6396 0.0
H1988 H 0.83578 0.86468 0.76686 0.0
H1989 H 0.84743 0.87505 0.70714 0.0
H1990 H 0.87219 0.85372 0.62234 0.0
C1991 C 0.89696 0.88381 0.5377 0.0
C1992 C 0.87526 0.88661 0.63546 0.0
C1993 C 0.90258 0.89006 0.50083 0.0
C1994 C 0.84371 0.86086 0.75435 0.0
C1995 C 0.85043 0.86684 0.72038 0.0
C1996 C 0.87312 0.86287 0.62695 0.0
C1997 C 0.88638 0.88755 0.55631 0.0
C1998 C 0.88034 0.88095 0.59517 0.0
C1999 C 0.86077 0.86218 0.70311 0.0
C2000 C 0.86784 0.86857 0.66677 0.0
H2001 H 0.88306 0.91149 0.48606 0.0
H2002 H 0.87328 0.9006 0.55045 0.0
H2003 H 0.88306 0.86443 0.5606 0.0
H2004 H 0.86032 0.83707 0.76718 0.0
H2005 H 0.87219 0.8476 0.70824 0.0
C2006 C 0.84284 0.13626 0.24696 0.0
C2007 C 0.84678 0.14667 0.22733 0.0
C2008 C 0.84919 0.13049 0.28287 0.0
C2009 C 0.87814 0.12728 0.33287 0.0
H2010 H 0.86236 0.11483 0.44726 0.0
C2011 C 0.90204 0.10624 0.49714 0.0
C2012 C 0.89704 0.0964 0.51766 0.0
C2013 C 0.89612 0.11273 0.46198 0.0
C2014 C 0.86688 0.11813 0.41527 0.0
H2015 H 0.86049 0.15915 0.2294 0.0
H2016 H 0.87165 0.149 0.29224 0.0
H2017 H 0.85164 0.1255 0.38516 0.0
H2018 H 0.88203 0.0855 0.51707 0.0
H2019 H 0.8718 0.09666 0.45514 0.0
H2020 H 0.89336 0.11976 0.36258 0.0
C2021 C 0.86365 0.14532 0.27968 0.0
C2022 C 0.86074 0.12426 0.37979 0.0
C2023 C 0.85725 0.15115 0.24394 0.0
C2024 C 0.88607 0.09309 0.50209 0.0
C2025 C 0.88018 0.09953 0.46684 0.0
C2026 C 0.88428 0.12108 0.36827 0.0
C2027 C 0.85964 0.13497 0.29967 0.0
C2028 C 0.86629 0.12882 0.33806 0.0
C2029 C 0.8851 0.10946 0.44659 0.0
C2030 C 0.8787 0.11636 0.40968 0.0
H2031 H 0.8348 0.1326 0.23477 0.0
H2032 H 0.84596 0.12245 0.29717 0.0
H2033 H 0.88261 0.13061 0.30079 0.0
H2034 H 0.91048 0.10901 0.50861 0.0
H2035 H 0.9001 0.1204 0.44749 0.0
C2036 C 0.64162 0.13845 0.28044 0.0
C2037 C 0.64812 0.14819 0.26872 0.0
C2038 C 0.63459 0.13341 0.2448 0.0
C2039 C 0.63172 0.1295 0.11208 0.0
H2040 H 0.60033 0.12125 0.14171 0.0
C2041 C 0.60296 0.10912 0.96378 0.0
C2042 C 0.5957 0.10022 0.97898 0.0
C2043 C 0.60858 0.11588 -0.00124 0.0
C2044 C 0.60911 0.12337 0.133 0.0
H2045 H 0.65239 0.16031 0.2108 0.0
H2046 H 0.64024 0.15129 0.14794 0.0
H2047 H 0.61176 0.13125 0.20386 0.0
H2048 H 0.58843 0.09152 0.0425 0.0
H2049 H 0.59852 0.10308 0.10378 0.0
H2050 H 0.62934 0.12127 0.04218 0.0
C2051 C 0.64056 0.14765 0.18484 0.0
C2052 C 0.61562 0.12914 0.16852 0.0
C2053 C 0.64746 0.15281 0.22075 0.0
C2054 C 0.59395 0.09837 0.02981 0.0
C2055 C 0.59969 0.10504 0.06488 0.0
C2056 C 0.62528 0.1236 0.07683 0.0
C2057 C 0.63406 0.13791 0.1966 0.0
C2058 C 0.62699 0.13222 0.15839 0.0
C2059 C 0.6072 0.1138 0.04977 0.0
C2060 C 0.61389 0.12042 0.08686 0.0
H2061 H 0.64194 0.13474 0.31722 0.0
H2062 H 0.62974 0.12584 0.25462 0.0
H2063 H 0.64053 0.13164 0.10366 0.0
H2064 H 0.60438 0.1108 0.92476 0.0
H2065 H 0.61407 0.1227 0.98571 0.0
C2066 C 0.65494 0.86093 0.74761 0.0
C2067 C 0.65087 0.85017 0.73262 0.0
C2068 C 0.6488 0.86745 0.78189 0.0
C2069 C 0.61995 0.8719 0.82959 0.0
H2070 H 0.63515 0.88595 0.94195 0.0
C2071 C 0.59488 0.89339 0.98812 0.0
C2072 C 0.5996 0.90319 0.01015 0.0
C2073 C 0.60113 0.88714 0.95336 0.0
C2074 C 0.6308 0.88225 0.91035 0.0
H2075 H 0.63727 0.83773 0.74175 0.0
H2076 H 0.62649 0.84919 0.80137 0.0
H2077 H 0.64621 0.87455 0.88334 0.0
H2078 H 0.61442 0.91433 0.01232 0.0
H2079 H 0.62522 0.90362 0.95051 0.0
H2080 H 0.60457 0.87972 0.85582 0.0
C2081 C 0.6344 0.85257 0.78654 0.0
C2082 C 0.63713 0.87568 0.87697 0.0
C2083 C 0.6406 0.846 0.7527 0.0
C2084 C 0.61059 0.90676 0.99608 0.0
C2085 C 0.61681 0.90057 0.96095 0.0
C2086 C 0.61363 0.87856 0.86267 0.0
C2087 C 0.63843 0.86336 0.80131 0.0
C2088 C 0.63175 0.8704 0.83646 0.0
C2089 C 0.61219 0.89062 0.93953 0.0
C2090 C 0.61896 0.88377 0.9036 0.0
H2091 H 0.66283 0.86435 0.73269 0.0
H2092 H 0.65205 0.87578 0.79247 0.0
H2093 H 0.61563 0.86805 0.79822 0.0
H2094 H 0.58644 0.89041 -0.00148 0.0
H2095 H 0.59737 0.87942 0.93821 0.0
C2096 C 0.59417 0.60409 0.99187 0.0
C2097 C 0.59867 0.59403 0.01253 0.0
C2098 C 0.60044 0.61028 0.95694 0.0
C2099 C 0.62358 0.60769 0.86596 0.0
H2100 H 0.62639 0.64053 0.88281 0.0
C2101 C 0.65435 0.63462 0.74673 0.0
C2102 C 0.65045 0.64537 0.73082 0.0
C2103 C 0.64812 0.62837 0.7816 0.0
C2104 C 0.62557 0.63139 0.87717 0.0
H2105 H 0.61313 0.58242 0.01241 0.0
H2106 H 0.62406 0.5932 0.95101 0.0
H2107 H 0.61505 0.62946 0.94159 0.0
H2108 H 0.63703 0.65802 0.73872 0.0
H2109 H 0.62602 0.64701 0.79874 0.0
H2110 H 0.63394 0.6096 0.80119 0.0
C2111 C 0.61569 0.59628 0.9618 0.0
C2112 C 0.61909 0.62506 0.91089 0.0
C2113 C 0.60946 0.59015 0.99705 0.0
C2114 C 0.64026 0.64978 0.75055 0.0
C2115 C 0.63399 0.64349 0.78514 0.0
C2116 C 0.62999 0.61403 0.83199 0.0
C2117 C 0.61128 0.60646 0.94174 0.0
C2118 C 0.61805 0.61316 0.90563 0.0
C2119 C 0.63783 0.6327 0.80099 0.0
C2120 C 0.63107 0.62595 0.83724 0.0
H2121 H 0.58587 0.60727 0.00315 0.0
H2122 H 0.5968 0.61803 0.94165 0.0
H2123 H 0.6228 0.59854 0.86075 0.0
H2124 H 0.66222 0.63104 0.73227 0.0
H2125 H 0.65142 0.62017 0.79361 0.0
C2126 C 0.65594 0.35954 0.24385 0.0
C2127 C 0.65211 0.34862 0.25769 0.0
C2128 C 0.65003 0.36583 0.20806 0.0
C2129 C 0.62854 0.36298 0.10759 0.0
H2130 H 0.62454 0.39554 0.12908 0.0
C2131 C 0.59648 0.39023 0.99613 0.0
C2132 C 0.60063 0.40066 0.97757 0.0
C2133 C 0.60296 0.3839 0.02984 0.0
C2134 C 0.62567 0.38647 0.12244 0.0
H2135 H 0.63919 0.33564 0.24487 0.0
H2136 H 0.62872 0.34671 0.1833 0.0
H2137 H 0.63564 0.38434 0.18822 0.0
H2138 H 0.61469 0.41275 0.98007 0.0
H2139 H 0.62597 0.40173 0.03949 0.0
H2140 H 0.61835 0.36513 0.04228 0.0
C2141 C 0.6364 0.35035 0.19923 0.0
C2142 C 0.63206 0.38005 0.15615 0.0
C2143 C 0.64236 0.34403 0.23472 0.0
C2144 C 0.61129 0.40473 0.99382 0.0
C2145 C 0.61772 0.39846 0.02791 0.0
C2146 C 0.62207 0.36938 0.07413 0.0
C2147 C 0.64013 0.36136 0.18568 0.0
C2148 C 0.63356 0.36822 0.14918 0.0
C2149 C 0.61365 0.38795 0.04595 0.0
C2150 C 0.62056 0.38118 0.08129 0.0
H2151 H 0.66347 0.36325 0.2608 0.0
H2152 H 0.65325 0.37419 0.19787 0.0
H2153 H 0.62968 0.35393 0.10063 0.0
H2154 H 0.58829 0.38689 0.98418 0.0
H2155 H 0.59959 0.37588 0.0436 0.0
C2156 C 0.88637 0.39533 0.52193 0.0
C2157 C 0.89784 0.39859 0.51565 0.0
C2158 C 0.88091 0.38863 0.48626 0.0
C2159 C 0.88161 0.38144 0.35477 0.0
H2160 H 0.86235 0.35597 0.39412 0.0
C2161 C 0.84798 0.36111 0.22579 0.0
C2162 C 0.84732 0.34911 0.22498 0.0
C2163 C 0.85493 0.36665 0.2603 0.0
C2164 C 0.86777 0.363 0.38256 0.0
H2165 H 0.91261 0.3974 0.46734 0.0
H2166 H 0.90298 0.38576 0.4045 0.0
H2167 H 0.87321 0.36642 0.45693 0.0
H2168 H 0.85343 0.3335 0.25935 0.0
H2169 H 0.86553 0.34323 0.32012 0.0
H2170 H 0.87606 0.3781 0.28047 0.0
C2171 C 0.89825 0.3884 0.43708 0.0
C2172 C 0.8739 0.36902 0.4185 0.0
C2173 C 0.90376 0.39501 0.47307 0.0
C2174 C 0.85376 0.34276 0.25923 0.0
C2175 C 0.86065 0.34832 0.29406 0.0
C2176 C 0.87539 0.37547 0.31888 0.0
C2177 C 0.88678 0.38515 0.4434 0.0
C2178 C 0.8808 0.37836 0.40499 0.0
C2179 C 0.86129 0.36032 0.2949 0.0
C2180 C 0.86835 0.36626 0.33251 0.0
H2181 H 0.88161 0.39795 0.55444 0.0
H2182 H 0.87202 0.38635 0.49177 0.0
H2183 H 0.88681 0.38865 0.34341 0.0
H2184 H 0.84311 0.36622 0.19976 0.0
H2185 H 0.85517 0.37592 0.2605 0.0
C2186 C 0.857 0.65103 0.7518 0.0
C2187 C 0.84682 0.64622 0.76998 0.0
C2188 C 0.86368 0.64506 0.71746 0.0
C2189 C 0.86871 0.61594 0.6683 0.0
H2190 H 0.882 0.63201 0.55644 0.0
C2191 C 0.88649 0.5925 0.49761 0.0
C2192 C 0.89697 0.59633 0.4784 0.0
C2193 C 0.8809 0.59873 0.53449 0.0
C2194 C 0.87845 0.62744 0.58781 0.0
H2195 H 0.83559 0.63149 0.7664 0.0
H2196 H 0.8471 0.62117 0.70596 0.0
H2197 H 0.87123 0.64267 0.61869 0.0
H2198 H 0.90983 0.60967 0.48237 0.0
H2199 H 0.90001 0.62061 0.54691 0.0
H2200 H 0.87576 0.60069 0.63693 0.0
C2201 C 0.85007 0.62944 0.71881 0.0
C2202 C 0.8723 0.63354 0.62349 0.0
C2203 C 0.84343 0.63538 0.75319 0.0
C2204 C 0.90175 0.60653 0.49654 0.0
C2205 C 0.89611 0.61281 0.53326 0.0
C2206 C 0.87481 0.60985 0.63255 0.0
C2207 C 0.86028 0.63419 0.70062 0.0
C2208 C 0.86727 0.62784 0.66388 0.0
C2209 C 0.88566 0.60894 0.55271 0.0
C2210 C 0.87965 0.61551 0.59171 0.0
H2211 H 0.85984 0.65937 0.76425 0.0
H2212 H 0.87157 0.6489 0.70456 0.0
H2213 H 0.86514 0.61133 0.6995 0.0
H2214 H 0.8826 0.58468 0.48426 0.0
H2215 H 0.87278 0.59562 0.54834 0.0
C2216 C 0.35682 0.34566 0.25367 0.0
C2217 C 0.34624 0.35009 0.26926 0.0
C2218 C 0.36326 0.35138 0.21775 0.0
C2219 C 0.36048 0.37203 0.11582 0.0
H2220 H 0.393 0.37686 0.13494 0.0
C2221 C 0.38608 0.40314 0.99405 0.0
C2222 C 0.39711 0.39986 0.97929 0.0
C2223 C 0.38008 0.39672 0.02903 0.0
C2224 C 0.38396 0.37545 0.12872 0.0
H2225 H 0.33411 0.36394 0.25972 0.0
H2226 H 0.34534 0.37392 0.19704 0.0
H2227 H 0.38212 0.36613 0.19666 0.0
H2228 H 0.41055 0.38731 0.98949 0.0
H2229 H 0.4 0.37596 0.05024 0.0
H2230 H 0.36227 0.38129 0.04793 0.0
C2231 C 0.34862 0.366 0.21227 0.0
C2232 C 0.37774 0.36932 0.16409 0.0
C2233 C 0.34223 0.36032 0.24835 0.0
C2234 C 0.40207 0.39005 0.00032 0.0
C2235 C 0.39605 0.38359 0.03526 0.0
C2236 C 0.3667 0.37811 0.0804 0.0
C2237 C 0.35919 0.36158 0.19656 0.0
C2238 C 0.36592 0.36766 0.1582 0.0
C2239 C 0.38497 0.38684 0.04987 0.0
C2240 C 0.37849 0.37999 0.08668 0.0
H2241 H 0.36011 0.33778 0.26919 0.0
H2242 H 0.37134 0.34775 0.20605 0.0
H2243 H 0.35141 0.37071 0.10991 0.0
H2244 H 0.38207 0.4107 0.97862 0.0
H2245 H 0.37165 0.39957 0.04011 0.0
C2246 C 0.38631 0.59322 0.0012 0.0
C2247 C 0.39738 0.59637 0.01604 0.0
C2248 C 0.38044 0.59969 0.96596 0.0
C2249 C 0.3846 0.62096 0.86628 0.0
H2250 H 0.35213 0.62608 0.88536 0.0
C2251 C 0.35771 0.65129 0.74255 0.0
C2252 C 0.34709 0.64699 0.72692 0.0
C2253 C 0.36413 0.64543 0.77811 0.0
C2254 C 0.36118 0.62465 0.87937 0.0
H2255 H 0.41103 0.60868 0.00561 0.0
H2256 H 0.40069 0.62011 0.94448 0.0
H2257 H 0.36286 0.61531 0.94706 0.0
H2258 H 0.33485 0.6332 0.73596 0.0
H2259 H 0.34604 0.62299 0.79804 0.0
H2260 H 0.38286 0.63039 0.79858 0.0
C2261 C 0.39661 0.61256 0.95956 0.0
C2262 C 0.36733 0.61846 0.91463 0.0
C2263 C 0.40251 0.60605 0.99472 0.0
C2264 C 0.343 0.63673 0.74739 0.0
C2265 C 0.34937 0.63092 0.78312 0.0
C2266 C 0.37845 0.62721 0.83109 0.0
C2267 C 0.38548 0.60947 0.94498 0.0
C2268 C 0.37908 0.61643 0.90825 0.0
C2269 C 0.35999 0.63521 0.79891 0.0
C2270 C 0.36665 0.62901 0.83708 0.0
H2271 H 0.38216 0.58576 0.0168 0.0
H2272 H 0.37196 0.59695 0.95489 0.0
H2273 H 0.39362 0.61944 0.86 0.0
H2274 H 0.36106 0.65919 0.72734 0.0
H2275 H 0.37225 0.64896 0.78989 0.0
C2276 C 0.15346 0.63579 0.74649 0.0
C2277 C 0.14979 0.64653 0.76351 0.0
C2278 C 0.14727 0.62999 0.71012 0.0
C2279 C 0.11872 0.6277 0.65495 0.0
H2280 H 0.1349 0.6132 0.54627 0.0
C2281 C 0.0952 0.60635 0.49062 0.0
C2282 C 0.09976 0.59601 0.47305 0.0
C2283 C 0.10121 0.61288 0.52534 0.0
C2284 C 0.13026 0.61709 0.57667 0.0
H2285 H 0.13677 0.65962 0.75612 0.0
H2286 H 0.1259 0.64943 0.69251 0.0
H2287 H 0.14558 0.62391 0.60844 0.0
H2288 H 0.11408 0.58429 0.47828 0.0
H2289 H 0.12446 0.59555 0.53948 0.0
H2290 H 0.10341 0.62073 0.62366 0.0
C2291 C 0.13354 0.6455 0.70747 0.0
C2292 C 0.13638 0.62324 0.61219 0.0
C2293 C 0.13979 0.65135 0.74365 0.0
C2294 C 0.11039 0.59227 0.49098 0.0
C2295 C 0.11637 0.59876 0.52581 0.0
C2296 C 0.1126 0.62149 0.61953 0.0
C2297 C 0.13725 0.63478 0.69027 0.0
C2298 C 0.13068 0.62855 0.65183 0.0
C2299 C 0.11187 0.60916 0.54328 0.0
C2300 C 0.11831 0.61605 0.58016 0.0
H2301 H 0.16114 0.63187 0.7612 0.0
H2302 H 0.15025 0.62167 0.69797 0.0
H2303 H 0.11413 0.6316 0.68543 0.0
H2304 H 0.08703 0.60945 0.47728 0.0
H2305 H 0.09758 0.62092 0.53762 0.0
C2306 C 0.13833 0.34378 0.25094 0.0
C2307 C 0.14892 0.34808 0.23492 0.0
C2308 C 0.13205 0.34957 0.28719 0.0
C2309 C 0.13521 0.37006 0.38933 0.0
H2310 H 0.10291 0.37593 0.36902 0.0
C2311 C 0.11035 0.40182 0.51095 0.0
C2312 C 0.09912 0.39896 0.52455 0.0
C2313 C 0.11625 0.39521 0.47628 0.0
C2314 C 0.11188 0.37422 0.37561 0.0
H2315 H 0.16129 0.36174 0.24427 0.0
H2316 H 0.15036 0.3718 0.30773 0.0
H2317 H 0.11356 0.36491 0.30758 0.0
H2318 H 0.08524 0.38696 0.51278 0.0
H2319 H 0.09562 0.37528 0.45274 0.0
H2320 H 0.13358 0.37928 0.45737 0.0
C2321 C 0.14694 0.36394 0.29245 0.0
C2322 C 0.11797 0.36792 0.34039 0.0
C2323 C 0.15316 0.35822 0.25595 0.0
C2324 C 0.09388 0.38938 0.50283 0.0
C2325 C 0.09981 0.38273 0.46827 0.0
C2326 C 0.12912 0.37628 0.42467 0.0
C2327 C 0.13632 0.35969 0.30836 0.0
C2328 C 0.12972 0.36589 0.3467 0.0
C2329 C 0.11107 0.38557 0.45467 0.0
C2330 C 0.11741 0.37854 0.41798 0.0
H2331 H 0.13486 0.33598 0.23528 0.0
H2332 H 0.12392 0.34607 0.29906 0.0
H2333 H 0.14422 0.36845 0.39547 0.0
H2334 H 0.11458 0.40919 0.52692 0.0
H2335 H 0.12483 0.39775 0.46599 0.0
loop_
_geom_bond_atom_site_label_1
_geom_bond_atom_site_label_2
_geom_bond_distance
_geom_bond_site_symmetry_2
_ccdc_geom_bond_type
In0 O1 2.294 . S
In0 O2 2.326 . S
In0 O6 2.266 . S
In0 O7 2.326 . S
In0 O8 2.266 . S
In0 O9 2.326 . S
In0 O11 2.294 . S
In0 O12 2.326 . S
O1 In0 2.294 . S
O1 C10 1.240 . S
O2 In0 2.326 . S
O2 C10 1.252 . S
C3 O6 1.252 . S
C3 O7 1.260 . S
C4 O11 1.240 . S
C4 O12 1.252 . S
C5 O8 1.252 . S
C5 O9 1.260 . S
O6 In0 2.266 . S
O6 C3 1.252 . S
O7 In0 2.326 . S
O7 C3 1.260 . S
O8 In0 2.266 . S
O8 C5 1.252 . S
O9 In0 2.326 . S
O9 C5 1.260 . S
C10 O1 1.240 . S
C10 O2 1.252 . S
O11 In0 2.294 . S
O11 C4 1.240 . S
O12 In0 2.326 . S
O12 C4 1.252 . S
In13 O14 2.294 . S
In13 O15 2.326 . S
In13 O19 2.266 . S
In13 O20 2.326 . S
In13 O21 2.266 . S
In13 O22 2.326 . S
In13 O24 2.294 . S
In13 O25 2.326 . S
O14 In13 2.294 . S
O14 C23 1.240 . S
O15 In13 2.326 . S
O15 C23 1.252 . S
C16 O19 1.252 . S
C16 O20 1.260 . S
C17 O24 1.240 . S
C17 O25 1.252 . S
C18 O21 1.252 . S
C18 O22 1.260 . S
O19 In13 2.266 . S
O19 C16 1.252 . S
O20 In13 2.326 . S
O20 C16 1.260 . S
O21 In13 2.266 . S
O21 C18 1.252 . S
O22 In13 2.326 . S
O22 C18 1.260 . S
C23 O14 1.240 . S
C23 O15 1.252 . S
O24 In13 2.294 . S
O24 C17 1.240 . S
O25 In13 2.326 . S
O25 C17 1.252 . S
In26 O27 2.294 . S
In26 O28 2.326 . S
In26 O32 2.266 . S
In26 O33 2.326 . S
In26 O34 2.266 . S
In26 O35 2.326 . S
In26 O37 2.294 . S
In26 O38 2.326 . S
O27 In26 2.294 . S
O27 C36 1.240 . S
O28 In26 2.326 . S
O28 C36 1.252 . S
C29 O32 1.252 . S
C29 O33 1.260 . S
C30 O37 1.240 . S
C30 O38 1.252 . S
C31 O34 1.252 . S
C31 O35 1.260 . S
O32 In26 2.266 . S
O32 C29 1.252 . S
O33 In26 2.326 . S
O33 C29 1.260 . S
O34 In26 2.266 . S
O34 C31 1.252 . S
O35 In26 2.326 . S
O35 C31 1.260 . S
C36 O27 1.240 . S
C36 O28 1.252 . S
O37 In26 2.294 . S
O37 C30 1.240 . S
O38 In26 2.326 . S
O38 C30 1.252 . S
In39 O40 2.294 . S
In39 O41 2.326 . S
In39 O45 2.266 . S
In39 O46 2.326 . S
In39 O47 2.266 . S
In39 O48 2.326 . S
In39 O50 2.294 . S
In39 O51 2.326 . S
O40 In39 2.294 . S
O40 C49 1.240 . S
O41 In39 2.326 . S
O41 C49 1.252 . S
C42 O45 1.252 . S
C42 O46 1.260 . S
C43 O50 1.240 . S
C43 O51 1.252 . S
C44 O47 1.252 . S
C44 O48 1.260 . S
O45 In39 2.266 . S
O45 C42 1.252 . S
O46 In39 2.326 . S
O46 C42 1.260 . S
O47 In39 2.266 . S
O47 C44 1.252 . S
O48 In39 2.326 . S
O48 C44 1.260 . S
C49 O40 1.240 . S
C49 O41 1.252 . S
O50 In39 2.294 . S
O50 C43 1.240 . S
O51 In39 2.326 . S
O51 C43 1.252 . S
In52 O53 2.294 . S
In52 O54 2.326 . S
In52 O58 2.266 . S
In52 O59 2.326 . S
In52 O60 2.266 . S
In52 O61 2.326 . S
In52 O63 2.294 . S
In52 O64 2.326 . S
O53 In52 2.294 . S
O53 C62 1.240 . S
O54 In52 2.326 . S
O54 C62 1.252 . S
C55 O58 1.252 . S
C55 O59 1.260 . S
C56 O63 1.240 . S
C56 O64 1.252 . S
C57 O60 1.252 . S
C57 O61 1.260 . S
O58 In52 2.266 . S
O58 C55 1.252 . S
O59 In52 2.326 . S
O59 C55 1.260 . S
O60 In52 2.266 . S
O60 C57 1.252 . S
O61 In52 2.326 . S
O61 C57 1.260 . S
C62 O53 1.240 . S
C62 O54 1.252 . S
O63 In52 2.294 . S
O63 C56 1.240 . S
O64 In52 2.326 . S
O64 C56 1.252 . S
In65 O66 2.294 . S
In65 O67 2.326 . S
In65 O71 2.266 . S
In65 O72 2.326 . S
In65 O73 2.266 . S
In65 O74 2.326 . S
In65 O76 2.294 . S
In65 O77 2.326 . S
O66 In65 2.294 . S
O66 C75 1.240 . S
O67 In65 2.326 . S
O67 C75 1.252 . S
C68 O71 1.252 . S
C68 O72 1.260 . S
C69 O76 1.240 . S
C69 O77 1.252 . S
C70 O73 1.252 . S
C70 O74 1.260 . S
O71 In65 2.266 . S
O71 C68 1.252 . S
O72 In65 2.326 . S
O72 C68 1.260 . S
O73 In65 2.266 . S
O73 C70 1.252 . S
O74 In65 2.326 . S
O74 C70 1.260 . S
C75 O66 1.240 . S
C75 O67 1.252 . S
O76 In65 2.294 . S
O76 C69 1.240 . S
O77 In65 2.326 . S
O77 C69 1.252 . S
In78 O79 2.294 . S
In78 O80 2.326 . S
In78 O84 2.266 . S
In78 O85 2.326 . S
In78 O86 2.266 . S
In78 O87 2.326 . S
In78 O89 2.294 . S
In78 O90 2.326 . S
O79 In78 2.294 . S
O79 C88 1.240 . S
O80 In78 2.326 . S
O80 C88 1.252 . S
C81 O84 1.252 . S
C81 O85 1.260 . S
C82 O89 1.240 . S
C82 O90 1.252 . S
C83 O86 1.252 . S
C83 O87 1.260 . S
O84 In78 2.266 . S
O84 C81 1.252 . S
O85 In78 2.326 . S
O85 C81 1.260 . S
O86 In78 2.266 . S
O86 C83 1.252 . S
O87 In78 2.326 . S
O87 C83 1.260 . S
C88 O79 1.240 . S
C88 O80 1.252 . S
O89 In78 2.294 . S
O89 C82 1.240 . S
O90 In78 2.326 . S
O90 C82 1.252 . S
In91 O92 2.294 . S
In91 O93 2.326 . S
In91 O97 2.266 . S
In91 O98 2.326 . S
In91 O99 2.266 . S
In91 O100 2.326 . S
In91 O102 2.294 . S
In91 O103 2.326 . S
O92 In91 2.294 . S
O92 C101 1.240 . S
O93 In91 2.326 . S
O93 C101 1.252 . S
C94 O97 1.252 . S
C94 O98 1.260 . S
C95 O102 1.240 . S
C95 O103 1.252 . S
C96 O99 1.252 . S
C96 O100 1.260 . S
O97 In91 2.266 . S
O97 C94 1.252 . S
O98 In91 2.326 . S
O98 C94 1.260 . S
O99 In91 2.266 . S
O99 C96 1.252 . S
O100 In91 2.326 . S
O100 C96 1.260 . S
C101 O92 1.240 . S
C101 O93 1.252 . S
O102 In91 2.294 . S
O102 C95 1.240 . S
O103 In91 2.326 . S
O103 C95 1.252 . S
In104 O105 2.294 . S
In104 O106 2.326 . S
In104 O110 2.266 . S
In104 O111 2.326 . S
In104 O112 2.266 . S
In104 O113 2.326 . S
In104 O115 2.294 . S
In104 O116 2.326 . S
O105 In104 2.294 . S
O105 C114 1.240 . S
O106 In104 2.326 . S
O106 C114 1.252 . S
C107 O110 1.252 . S
C107 O111 1.260 . S
C108 O115 1.240 . S
C108 O116 1.252 . S
C109 O112 1.252 . S
C109 O113 1.260 . S
O110 In104 2.266 . S
O110 C107 1.252 . S
O111 In104 2.326 . S
O111 C107 1.260 . S
O112 In104 2.266 . S
O112 C109 1.252 . S
O113 In104 2.326 . S
O113 C109 1.260 . S
C114 O105 1.240 . S
C114 O106 1.252 . S
O115 In104 2.294 . S
O115 C108 1.240 . S
O116 In104 2.326 . S
O116 C108 1.252 . S
In117 O118 2.294 . S
In117 O119 2.326 . S
In117 O123 2.266 . S
In117 O124 2.326 . S
In117 O125 2.266 . S
In117 O126 2.326 . S
In117 O128 2.294 . S
In117 O129 2.326 . S
O118 In117 2.294 . S
O118 C127 1.240 . S
O119 In117 2.326 . S
O119 C127 1.252 . S
C120 O123 1.252 . S
C120 O124 1.260 . S
C121 O128 1.240 . S
C121 O129 1.252 . S
C122 O125 1.252 . S
C122 O126 1.260 . S
O123 In117 2.266 . S
O123 C120 1.252 . S
O124 In117 2.326 . S
O124 C120 1.260 . S
O125 In117 2.266 . S
O125 C122 1.252 . S
O126 In117 2.326 . S
O126 C122 1.260 . S
C127 O118 1.240 . S
C127 O119 1.252 . S
O128 In117 2.294 . S
O128 C121 1.240 . S
O129 In117 2.326 . S
O129 C121 1.252 . S
In130 O131 2.294 . S
In130 O132 2.326 . S
In130 O136 2.266 . S
In130 O137 2.326 . S
In130 O138 2.266 . S
In130 O139 2.326 . S
In130 O141 2.294 . S
In130 O142 2.326 . S
O131 In130 2.294 . S
O131 C140 1.240 . S
O132 In130 2.326 . S
O132 C140 1.252 . S
C133 O136 1.252 . S
C133 O137 1.260 . S
C134 O141 1.240 . S
C134 O142 1.252 . S
C135 O138 1.252 . S
C135 O139 1.260 . S
O136 In130 2.266 . S
O136 C133 1.252 . S
O137 In130 2.326 . S
O137 C133 1.260 . S
O138 In130 2.266 . S
O138 C135 1.252 . S
O139 In130 2.326 . S
O139 C135 1.260 . S
C140 O131 1.240 . S
C140 O132 1.252 . S
O141 In130 2.294 . S
O141 C134 1.240 . S
O142 In130 2.326 . S
O142 C134 1.252 . S
In143 O144 2.294 . S
In143 O145 2.326 . S
In143 O149 2.266 . S
In143 O150 2.326 . S
In143 O151 2.266 . S
In143 O152 2.326 . S
In143 O154 2.294 . S
In143 O155 2.326 . S
O144 In143 2.294 . S
O144 C153 1.240 . S
O145 In143 2.326 . S
O145 C153 1.252 . S
C146 O149 1.252 . S
C146 O150 1.260 . S
C147 O154 1.240 . S
C147 O155 1.252 . S
C148 O151 1.252 . S
C148 O152 1.260 . S
O149 In143 2.266 . S
O149 C146 1.252 . S
O150 In143 2.326 . S
O150 C146 1.260 . S
O151 In143 2.266 . S
O151 C148 1.252 . S
O152 In143 2.326 . S
O152 C148 1.260 . S
C153 O144 1.240 . S
C153 O145 1.252 . S
O154 In143 2.294 . S
O154 C147 1.240 . S
O155 In143 2.326 . S
O155 C147 1.252 . S
In156 O157 2.294 . S
In156 O158 2.326 . S
In156 O162 2.266 . S
In156 O163 2.326 . S
In156 O164 2.266 . S
In156 O165 2.326 . S
In156 O167 2.294 . S
In156 O168 2.326 . S
O157 In156 2.294 . S
O157 C166 1.240 . S
O158 In156 2.326 . S
O158 C166 1.252 . S
C159 O162 1.252 . S
C159 O163 1.260 . S
C160 O167 1.240 . S
C160 O168 1.252 . S
C161 O164 1.252 . S
C161 O165 1.260 . S
O162 In156 2.266 . S
O162 C159 1.252 . S
O163 In156 2.326 . S
O163 C159 1.260 . S
O164 In156 2.266 . S
O164 C161 1.252 . S
O165 In156 2.326 . S
O165 C161 1.260 . S
C166 O157 1.240 . S
C166 O158 1.252 . S
O167 In156 2.294 . S
O167 C160 1.240 . S
O168 In156 2.326 . S
O168 C160 1.252 . S
In169 O170 2.294 . S
In169 O171 2.326 . S
In169 O175 2.266 . S
In169 O176 2.326 . S
In169 O177 2.266 . S
In169 O178 2.326 . S
In169 O180 2.294 . S
In169 O181 2.326 . S
O170 In169 2.294 . S
O170 C179 1.240 . S
O171 In169 2.326 . S
O171 C179 1.252 . S
C172 O175 1.252 . S
C172 O176 1.260 . S
C173 O180 1.240 . S
C173 O181 1.252 . S
C174 O177 1.252 . S
C174 O178 1.260 . S
O175 In169 2.266 . S
O175 C172 1.252 . S
O176 In169 2.326 . S
O176 C172 1.260 . S
O177 In169 2.266 . S
O177 C174 1.252 . S
O178 In169 2.326 . S
O178 C174 1.260 . S
C179 O170 1.240 . S
C179 O171 1.252 . S
O180 In169 2.294 . S
O180 C173 1.240 . S
O181 In169 2.326 . S
O181 C173 1.252 . S
In182 O183 2.294 . S
In182 O184 2.326 . S
In182 O188 2.266 . S
In182 O189 2.326 . S
In182 O190 2.266 . S
In182 O191 2.326 . S
In182 O193 2.294 . S
In182 O194 2.326 . S
O183 In182 2.294 . S
O183 C192 1.240 . S
O184 In182 2.326 . S
O184 C192 1.252 . S
C185 O188 1.252 . S
C185 O189 1.260 . S
C186 O193 1.240 . S
C186 O194 1.252 . S
C187 O190 1.252 . S
C187 O191 1.260 . S
O188 In182 2.266 . S
O188 C185 1.252 . S
O189 In182 2.326 . S
O189 C185 1.260 . S
O190 In182 2.266 . S
O190 C187 1.252 . S
O191 In182 2.326 . S
O191 C187 1.260 . S
C192 O183 1.240 . S
C192 O184 1.252 . S
O193 In182 2.294 . S
O193 C186 1.240 . S
O194 In182 2.326 . S
O194 C186 1.252 . S
In195 O196 2.294 . S
In195 O197 2.326 . S
In195 O201 2.266 . S
In195 O202 2.326 . S
In195 O203 2.266 . S
In195 O204 2.326 . S
In195 O206 2.294 . S
In195 O207 2.326 . S
O196 In195 2.294 . S
O196 C205 1.240 . S
O197 In195 2.326 . S
O197 C205 1.252 . S
C198 O201 1.252 . S
C198 O202 1.260 . S
C199 O206 1.240 . S
C199 O207 1.252 . S
C200 O203 1.252 . S
C200 O204 1.260 . S
O201 In195 2.266 . S
O201 C198 1.252 . S
O202 In195 2.326 . S
O202 C198 1.260 . S
O203 In195 2.266 . S
O203 C200 1.252 . S
O204 In195 2.326 . S
O204 C200 1.260 . S
C205 O196 1.240 . S
C205 O197 1.252 . S
O206 In195 2.294 . S
O206 C199 1.240 . S
O207 In195 2.326 . S
O207 C199 1.252 . S
In208 O209 2.294 . S
In208 O210 2.326 . S
In208 O214 2.266 . S
In208 O215 2.326 . S
In208 O216 2.266 . S
In208 O217 2.326 . S
In208 O219 2.294 . S
In208 O220 2.326 . S
O209 In208 2.294 . S
O209 C218 1.240 . S
O210 In208 2.326 . S
O210 C218 1.252 . S
C211 O214 1.252 . S
C211 O215 1.260 . S
C212 O219 1.240 . S
C212 O220 1.252 . S
C213 O216 1.252 . S
C213 O217 1.260 . S
O214 In208 2.266 . S
O214 C211 1.252 . S
O215 In208 2.326 . S
O215 C211 1.260 . S
O216 In208 2.266 . S
O216 C213 1.252 . S
O217 In208 2.326 . S
O217 C213 1.260 . S
C218 O209 1.240 . S
C218 O210 1.252 . S
O219 In208 2.294 . S
O219 C212 1.240 . S
O220 In208 2.326 . S
O220 C212 1.252 . S
In221 O222 2.294 . S
In221 O223 2.326 . S
In221 O227 2.266 . S
In221 O228 2.326 . S
In221 O229 2.266 . S
In221 O230 2.326 . S
In221 O232 2.294 . S
In221 O233 2.326 . S
O222 In221 2.294 . S
O222 C231 1.240 . S
O223 In221 2.326 . S
O223 C231 1.252 . S
C224 O227 1.252 . S
C224 O228 1.260 . S
C225 O232 1.240 . S
C225 O233 1.252 . S
C226 O229 1.252 . S
C226 O230 1.260 . S
O227 In221 2.266 . S
O227 C224 1.252 . S
O228 In221 2.326 . S
O228 C224 1.260 . S
O229 In221 2.266 . S
O229 C226 1.252 . S
O230 In221 2.326 . S
O230 C226 1.260 . S
C231 O222 1.240 . S
C231 O223 1.252 . S
O232 In221 2.294 . S
O232 C225 1.240 . S
O233 In221 2.326 . S
O233 C225 1.252 . S
In234 O235 2.294 . S
In234 O236 2.326 . S
In234 O240 2.266 . S
In234 O241 2.326 . S
In234 O242 2.266 . S
In234 O243 2.326 . S
In234 O245 2.294 . S
In234 O246 2.326 . S
O235 In234 2.294 . S
O235 C244 1.240 . S
O236 In234 2.326 . S
O236 C244 1.252 . S
C237 O240 1.252 . S
C237 O241 1.260 . S
C238 O245 1.240 . S
C238 O246 1.252 . S
C239 O242 1.252 . S
C239 O243 1.260 . S
O240 In234 2.266 . S
O240 C237 1.252 . S
O241 In234 2.326 . S
O241 C237 1.260 . S
O242 In234 2.266 . S
O242 C239 1.252 . S
O243 In234 2.326 . S
O243 C239 1.260 . S
C244 O235 1.240 . S
C244 O236 1.252 . S
O245 In234 2.294 . S
O245 C238 1.240 . S
O246 In234 2.326 . S
O246 C238 1.252 . S
In247 O248 2.294 . S
In247 O249 2.326 . S
In247 O253 2.266 . S
In247 O254 2.326 . S
In247 O255 2.266 . S
In247 O256 2.326 . S
In247 O258 2.294 . S
In247 O259 2.326 . S
O248 In247 2.294 . S
O248 C257 1.240 . S
O249 In247 2.326 . S
O249 C257 1.252 . S
C250 O253 1.252 . S
C250 O254 1.260 . S
C251 O258 1.240 . S
C251 O259 1.252 . S
C252 O255 1.252 . S
C252 O256 1.260 . S
O253 In247 2.266 . S
O253 C250 1.252 . S
O254 In247 2.326 . S
O254 C250 1.260 . S
O255 In247 2.266 . S
O255 C252 1.252 . S
O256 In247 2.326 . S
O256 C252 1.260 . S
C257 O248 1.240 . S
C257 O249 1.252 . S
O258 In247 2.294 . S
O258 C251 1.240 . S
O259 In247 2.326 . S
O259 C251 1.252 . S
In260 O261 2.294 . S
In260 O262 2.326 . S
In260 O266 2.266 . S
In260 O267 2.326 . S
In260 O268 2.266 . S
In260 O269 2.326 . S
In260 O271 2.294 . S
In260 O272 2.326 . S
O261 In260 2.294 . S
O261 C270 1.240 . S
O262 In260 2.326 . S
O262 C270 1.252 . S
C263 O266 1.252 . S
C263 O267 1.260 . S
C264 O271 1.240 . S
C264 O272 1.252 . S
C265 O268 1.252 . S
C265 O269 1.260 . S
O266 In260 2.266 . S
O266 C263 1.252 . S
O267 In260 2.326 . S
O267 C263 1.260 . S
O268 In260 2.266 . S
O268 C265 1.252 . S
O269 In260 2.326 . S
O269 C265 1.260 . S
C270 O261 1.240 . S
C270 O262 1.252 . S
O271 In260 2.294 . S
O271 C264 1.240 . S
O272 In260 2.326 . S
O272 C264 1.252 . S
In273 O274 2.294 . S
In273 O275 2.326 . S
In273 O279 2.266 . S
In273 O280 2.326 . S
In273 O281 2.266 . S
In273 O282 2.326 . S
In273 O284 2.294 . S
In273 O285 2.326 . S
O274 In273 2.294 . S
O274 C283 1.240 . S
O275 In273 2.326 . S
O275 C283 1.252 . S
C276 O279 1.252 . S
C276 O280 1.260 . S
C277 O284 1.240 . S
C277 O285 1.252 . S
C278 O281 1.252 . S
C278 O282 1.260 . S
O279 In273 2.266 . S
O279 C276 1.252 . S
O280 In273 2.326 . S
O280 C276 1.260 . S
O281 In273 2.266 . S
O281 C278 1.252 . S
O282 In273 2.326 . S
O282 C278 1.260 . S
C283 O274 1.240 . S
C283 O275 1.252 . S
O284 In273 2.294 . S
O284 C277 1.240 . S
O285 In273 2.326 . S
O285 C277 1.252 . S
In286 O287 2.294 . S
In286 O288 2.326 . S
In286 O292 2.266 . S
In286 O293 2.326 . S
In286 O294 2.266 . S
In286 O295 2.326 . S
In286 O297 2.294 . S
In286 O298 2.326 . S
O287 In286 2.294 . S
O287 C296 1.240 . S
O288 In286 2.326 . S
O288 C296 1.252 . S
C289 O292 1.252 . S
C289 O293 1.260 . S
C290 O297 1.240 . S
C290 O298 1.252 . S
C291 O294 1.252 . S
C291 O295 1.260 . S
O292 In286 2.266 . S
O292 C289 1.252 . S
O293 In286 2.326 . S
O293 C289 1.260 . S
O294 In286 2.266 . S
O294 C291 1.252 . S
O295 In286 2.326 . S
O295 C291 1.260 . S
C296 O287 1.240 . S
C296 O288 1.252 . S
O297 In286 2.294 . S
O297 C290 1.240 . S
O298 In286 2.326 . S
O298 C290 1.252 . S
In299 O300 2.294 . S
In299 O301 2.326 . S
In299 O305 2.266 . S
In299 O306 2.326 . S
In299 O307 2.266 . S
In299 O308 2.326 . S
In299 O310 2.294 . S
In299 O311 2.326 . S
O300 In299 2.294 . S
O300 C309 1.240 . S
O301 In299 2.326 . S
O301 C309 1.252 . S
C302 O305 1.252 . S
C302 O306 1.260 . S
C303 O310 1.240 . S
C303 O311 1.252 . S
C304 O307 1.252 . S
C304 O308 1.260 . S
O305 In299 2.266 . S
O305 C302 1.252 . S
O306 In299 2.326 . S
O306 C302 1.260 . S
O307 In299 2.266 . S
O307 C304 1.252 . S
O308 In299 2.326 . S
O308 C304 1.260 . S
C309 O300 1.240 . S
C309 O301 1.252 . S
O310 In299 2.294 . S
O310 C303 1.240 . S
O311 In299 2.326 . S
O311 C303 1.252 . S
In312 O313 2.294 . S
In312 O314 2.326 . S
In312 O318 2.266 . S
In312 O319 2.326 . S
In312 O320 2.266 . S
In312 O321 2.326 . S
In312 O323 2.294 . S
In312 O324 2.326 . S
O313 In312 2.294 . S
O313 C322 1.240 . S
O314 In312 2.326 . S
O314 C322 1.252 . S
C315 O318 1.252 . S
C315 O319 1.260 . S
C316 O323 1.240 . S
C316 O324 1.252 . S
C317 O320 1.252 . S
C317 O321 1.260 . S
O318 In312 2.266 . S
O318 C315 1.252 . S
O319 In312 2.326 . S
O319 C315 1.260 . S
O320 In312 2.266 . S
O320 C317 1.252 . S
O321 In312 2.326 . S
O321 C317 1.260 . S
C322 O313 1.240 . S
C322 O314 1.252 . S
O323 In312 2.294 . S
O323 C316 1.240 . S
O324 In312 2.326 . S
O324 C316 1.252 . S
In325 O326 2.294 . S
In325 O327 2.326 . S
In325 O331 2.266 . S
In325 O332 2.326 . S
In325 O333 2.266 . S
In325 O334 2.326 . S
In325 O336 2.294 . S
In325 O337 2.326 . S
O326 In325 2.294 . S
O326 C335 1.240 . S
O327 In325 2.326 . S
O327 C335 1.252 . S
C328 O331 1.252 . S
C328 O332 1.260 . S
C329 O336 1.240 . S
C329 O337 1.252 . S
C330 O333 1.252 . S
C330 O334 1.260 . S
O331 In325 2.266 . S
O331 C328 1.252 . S
O332 In325 2.326 . S
O332 C328 1.260 . S
O333 In325 2.266 . S
O333 C330 1.252 . S
O334 In325 2.326 . S
O334 C330 1.260 . S
C335 O326 1.240 . S
C335 O327 1.252 . S
O336 In325 2.294 . S
O336 C329 1.240 . S
O337 In325 2.326 . S
O337 C329 1.252 . S
In338 O339 2.294 . S
In338 O340 2.326 . S
In338 O344 2.266 . S
In338 O345 2.326 . S
In338 O346 2.266 . S
In338 O347 2.326 . S
In338 O349 2.294 . S
In338 O350 2.326 . S
O339 In338 2.294 . S
O339 C348 1.240 . S
O340 In338 2.326 . S
O340 C348 1.252 . S
C341 O344 1.252 . S
C341 O345 1.260 . S
C342 O349 1.240 . S
C342 O350 1.252 . S
C343 O346 1.252 . S
C343 O347 1.260 . S
O344 In338 2.266 . S
O344 C341 1.252 . S
O345 In338 2.326 . S
O345 C341 1.260 . S
O346 In338 2.266 . S
O346 C343 1.252 . S
O347 In338 2.326 . S
O347 C343 1.260 . S
C348 O339 1.240 . S
C348 O340 1.252 . S
O349 In338 2.294 . S
O349 C342 1.240 . S
O350 In338 2.326 . S
O350 C342 1.252 . S
In351 O352 2.294 . S
In351 O353 2.326 . S
In351 O357 2.266 . S
In351 O358 2.326 . S
In351 O359 2.266 . S
In351 O360 2.326 . S
In351 O362 2.294 . S
In351 O363 2.326 . S
O352 In351 2.294 . S
O352 C361 1.240 . S
O353 In351 2.326 . S
O353 C361 1.252 . S
C354 O357 1.252 . S
C354 O358 1.260 . S
C355 O362 1.240 . S
C355 O363 1.252 . S
C356 O359 1.252 . S
C356 O360 1.260 . S
O357 In351 2.266 . S
O357 C354 1.252 . S
O358 In351 2.326 . S
O358 C354 1.260 . S
O359 In351 2.266 . S
O359 C356 1.252 . S
O360 In351 2.326 . S
O360 C356 1.260 . S
C361 O352 1.240 . S
C361 O353 1.252 . S
O362 In351 2.294 . S
O362 C355 1.240 . S
O363 In351 2.326 . S
O363 C355 1.252 . S
In364 O365 2.294 . S
In364 O366 2.326 . S
In364 O370 2.266 . S
In364 O371 2.326 . S
In364 O372 2.266 . S
In364 O373 2.326 . S
In364 O375 2.294 . S
In364 O376 2.326 . S
O365 In364 2.294 . S
O365 C374 1.240 . S
O366 In364 2.326 . S
O366 C374 1.252 . S
C367 O370 1.252 . S
C367 O371 1.260 . S
C368 O375 1.240 . S
C368 O376 1.252 . S
C369 O372 1.252 . S
C369 O373 1.260 . S
O370 In364 2.266 . S
O370 C367 1.252 . S
O371 In364 2.326 . S
O371 C367 1.260 . S
O372 In364 2.266 . S
O372 C369 1.252 . S
O373 In364 2.326 . S
O373 C369 1.260 . S
C374 O365 1.240 . S
C374 O366 1.252 . S
O375 In364 2.294 . S
O375 C368 1.240 . S
O376 In364 2.326 . S
O376 C368 1.252 . S
In377 O378 2.294 . S
In377 O379 2.326 . S
In377 O383 2.266 . S
In377 O384 2.326 . S
In377 O385 2.266 . S
In377 O386 2.326 . S
In377 O388 2.294 . S
In377 O389 2.326 . S
O378 In377 2.294 . S
O378 C387 1.240 . S
O379 In377 2.326 . S
O379 C387 1.252 . S
C380 O383 1.252 . S
C380 O384 1.260 . S
C381 O388 1.240 . S
C381 O389 1.252 . S
C382 O385 1.252 . S
C382 O386 1.260 . S
O383 In377 2.266 . S
O383 C380 1.252 . S
O384 In377 2.326 . S
O384 C380 1.260 . S
O385 In377 2.266 . S
O385 C382 1.252 . S
O386 In377 2.326 . S
O386 C382 1.260 . S
C387 O378 1.240 . S
C387 O379 1.252 . S
O388 In377 2.294 . S
O388 C381 1.240 . S
O389 In377 2.326 . S
O389 C381 1.252 . S
In390 O391 2.294 . S
In390 O392 2.326 . S
In390 O396 2.266 . S
In390 O397 2.326 . S
In390 O398 2.266 . S
In390 O399 2.326 . S
In390 O401 2.294 . S
In390 O402 2.326 . S
O391 In390 2.294 . S
O391 C400 1.240 . S
O392 In390 2.326 . S
O392 C400 1.252 . S
C393 O396 1.252 . S
C393 O397 1.260 . S
C394 O401 1.240 . S
C394 O402 1.252 . S
C395 O398 1.252 . S
C395 O399 1.260 . S
O396 In390 2.266 . S
O396 C393 1.252 . S
O397 In390 2.326 . S
O397 C393 1.260 . S
O398 In390 2.266 . S
O398 C395 1.252 . S
O399 In390 2.326 . S
O399 C395 1.260 . S
C400 O391 1.240 . S
C400 O392 1.252 . S
O401 In390 2.294 . S
O401 C394 1.240 . S
O402 In390 2.326 . S
O402 C394 1.252 . S
In403 O404 2.294 . S
In403 O405 2.326 . S
In403 O409 2.266 . S
In403 O410 2.326 . S
In403 O411 2.266 . S
In403 O412 2.326 . S
In403 O414 2.294 . S
In403 O415 2.326 . S
O404 In403 2.294 . S
O404 C413 1.240 . S
O405 In403 2.326 . S
O405 C413 1.252 . S
C406 O409 1.252 . S
C406 O410 1.260 . S
C407 O414 1.240 . S
C407 O415 1.252 . S
C408 O411 1.252 . S
C408 O412 1.260 . S
O409 In403 2.266 . S
O409 C406 1.252 . S
O410 In403 2.326 . S
O410 C406 1.260 . S
O411 In403 2.266 . S
O411 C408 1.252 . S
O412 In403 2.326 . S
O412 C408 1.260 . S
C413 O404 1.240 . S
C413 O405 1.252 . S
O414 In403 2.294 . S
O414 C407 1.240 . S
O415 In403 2.326 . S
O415 C407 1.252 . S
C416 C417 1.349 . S
C416 C418 1.327 . S
C416 H441 0.950 . S
C417 C416 1.349 . S
C417 C433 1.349 . S
C418 C416 1.327 . S
C418 C437 1.429 . S
C418 H442 0.950 . S
C419 C436 1.574 . S
C419 C438 1.368 . S
C419 H443 0.949 . S
H420 C424 0.949 . S
C421 C422 1.349 . S
C421 C423 1.327 . S
C421 H444 0.950 . S
C422 C421 1.349 . S
C422 C434 1.349 . S
C423 C421 1.327 . S
C423 C439 1.429 . S
C423 H445 0.950 . S
C424 H420 0.949 . S
C424 C432 1.574 . S
C424 C440 1.368 . S
H425 C433 0.950 . S
H426 C431 0.950 . S
H427 C432 0.949 . S
H428 C434 0.950 . S
H429 C435 0.950 . S
H430 C436 0.949 . S
C431 H426 0.950 . S
C431 C433 1.327 . S
C431 C437 1.429 . S
C432 C424 1.574 . S
C432 H427 0.949 . S
C432 C438 1.368 . S
C433 C417 1.349 . S
C433 H425 0.950 . S
C433 C431 1.327 . S
C434 C422 1.349 . S
C434 H428 0.950 . S
C434 C435 1.327 . S
C435 H429 0.950 . S
C435 C434 1.327 . S
C435 C439 1.429 . S
C436 C419 1.574 . S
C436 H430 0.949 . S
C436 C440 1.368 . S
C437 C418 1.429 . S
C437 C431 1.429 . S
C437 C438 1.523 . S
C438 C419 1.368 . S
C438 C432 1.368 . S
C438 C437 1.523 . S
C439 C423 1.429 . S
C439 C435 1.429 . S
C439 C440 1.523 . S
C440 C424 1.368 . S
C440 C436 1.368 . S
C440 C439 1.523 . S
H441 C416 0.950 . S
H442 C418 0.950 . S
H443 C419 0.949 . S
H444 C421 0.950 . S
H445 C423 0.950 . S
C446 C447 1.349 . S
C446 C448 1.327 . S
C446 H471 0.950 . S
C447 C446 1.349 . S
C447 C463 1.349 . S
C448 C446 1.327 . S
C448 C467 1.429 . S
C448 H472 0.950 . S
C449 C466 1.574 1_565 S
C449 C468 1.368 . S
C449 H473 0.949 . S
H450 C454 0.949 . S
C451 C452 1.349 . S
C451 C453 1.327 . S
C451 H474 0.950 . S
C452 C451 1.349 . S
C452 C464 1.349 . S
C453 C451 1.327 . S
C453 C469 1.429 . S
C453 H475 0.950 . S
C454 H450 0.949 . S
C454 C462 1.574 1_545 S
C454 C470 1.368 . S
H455 C463 0.950 . S
H456 C461 0.950 . S
H457 C462 0.949 . S
H458 C464 0.950 . S
H459 C465 0.950 . S
H460 C466 0.949 . S
C461 H456 0.950 . S
C461 C463 1.327 . S
C461 C467 1.429 . S
C462 C454 1.574 1_565 S
C462 H457 0.949 . S
C462 C468 1.368 . S
C463 C447 1.349 . S
C463 H455 0.950 . S
C463 C461 1.327 . S
C464 C452 1.349 . S
C464 H458 0.950 . S
C464 C465 1.327 . S
C465 H459 0.950 . S
C465 C464 1.327 . S
C465 C469 1.429 . S
C466 C449 1.574 1_545 S
C466 H460 0.949 . S
C466 C470 1.368 . S
C467 C448 1.429 . S
C467 C461 1.429 . S
C467 C468 1.523 . S
C468 C449 1.368 . S
C468 C462 1.368 . S
C468 C467 1.523 . S
C469 C453 1.429 . S
C469 C465 1.429 . S
C469 C470 1.523 . S
C470 C454 1.368 . S
C470 C466 1.368 . S
C470 C469 1.523 . S
H471 C446 0.950 . S
H472 C448 0.950 . S
H473 C449 0.949 . S
H474 C451 0.950 . S
H475 C453 0.950 . S
C476 C477 1.349 . S
C476 C478 1.327 . S
C476 H501 0.950 . S
C477 C476 1.349 . S
C477 C493 1.349 . S
C478 C476 1.327 . S
C478 C497 1.429 . S
C478 H502 0.950 . S
C479 C496 1.574 . S
C479 C498 1.368 . S
C479 H503 0.949 . S
H480 C484 0.949 . S
C481 C482 1.349 . S
C481 C483 1.327 . S
C481 H504 0.950 . S
C482 C481 1.349 . S
C482 C494 1.349 . S
C483 C481 1.327 . S
C483 C499 1.429 . S
C483 H505 0.950 . S
C484 H480 0.949 . S
C484 C492 1.574 . S
C484 C500 1.368 . S
H485 C493 0.950 . S
H486 C491 0.950 . S
H487 C492 0.949 . S
H488 C494 0.950 . S
H489 C495 0.950 . S
H490 C496 0.949 . S
C491 H486 0.950 . S
C491 C493 1.327 . S
C491 C497 1.429 . S
C492 C484 1.574 . S
C492 H487 0.949 . S
C492 C498 1.368 . S
C493 C477 1.349 . S
C493 H485 0.950 . S
C493 C491 1.327 . S
C494 C482 1.349 . S
C494 H488 0.950 . S
C494 C495 1.327 . S
C495 H489 0.950 . S
C495 C494 1.327 . S
C495 C499 1.429 . S
C496 C479 1.574 . S
C496 H490 0.949 . S
C496 C500 1.368 . S
C497 C478 1.429 . S
C497 C491 1.429 . S
C497 C498 1.523 . S
C498 C479 1.368 . S
C498 C492 1.368 . S
C498 C497 1.523 . S
C499 C483 1.429 . S
C499 C495 1.429 . S
C499 C500 1.523 . S
C500 C484 1.368 . S
C500 C496 1.368 . S
C500 C499 1.523 . S
H501 C476 0.950 . S
H502 C478 0.950 . S
H503 C479 0.949 . S
H504 C481 0.950 . S
H505 C483 0.950 . S
C506 C507 1.349 . S
C506 C508 1.327 . S
C506 H531 0.950 . S
C507 C506 1.349 . S
C507 C523 1.349 . S
C508 C506 1.327 . S
C508 C527 1.429 . S
C508 H532 0.950 1_556 S
C509 C526 1.574 1_545 S
C509 C528 1.368 . S
C509 H533 0.949 . S
H510 C514 0.949 . S
C511 C512 1.349 . S
C511 C513 1.327 . S
C511 H534 0.950 . S
C512 C511 1.349 . S
C512 C524 1.349 . S
C513 C511 1.327 . S
C513 C529 1.429 . S
C513 H535 0.950 1_554 S
C514 H510 0.949 . S
C514 C522 1.574 1_565 S
C514 C530 1.368 . S
H515 C523 0.950 . S
H516 C521 0.950 . S
H517 C522 0.949 . S
H518 C524 0.950 . S
H519 C525 0.950 . S
H520 C526 0.949 . S
C521 H516 0.950 . S
C521 C523 1.327 . S
C521 C527 1.429 . S
C522 C514 1.574 1_545 S
C522 H517 0.949 . S
C522 C528 1.368 1_554 S
C523 C507 1.349 . S
C523 H515 0.950 . S
C523 C521 1.327 . S
C524 C512 1.349 . S
C524 H518 0.950 . S
C524 C525 1.327 . S
C525 H519 0.950 . S
C525 C524 1.327 . S
C525 C529 1.429 . S
C526 C509 1.574 1_565 S
C526 H520 0.949 . S
C526 C530 1.368 1_556 S
C527 C508 1.429 . S
C527 C521 1.429 . S
C527 C528 1.523 . S
C528 C509 1.368 . S
C528 C522 1.368 1_556 S
C528 C527 1.523 . S
C529 C513 1.429 . S
C529 C525 1.429 . S
C529 C530 1.523 . S
C530 C514 1.368 . S
C530 C526 1.368 1_554 S
C530 C529 1.523 . S
H531 C506 0.950 . S
H532 C508 0.950 1_554 S
H533 C509 0.949 . S
H534 C511 0.950 . S
H535 C513 0.950 1_556 S
C536 C537 1.349 . S
C536 C538 1.327 . S
C536 H561 0.950 . S
C537 C536 1.349 . S
C537 C553 1.349 . S
C538 C536 1.327 . S
C538 C557 1.429 . S
C538 H562 0.950 . S
C539 C556 1.574 . S
C539 C558 1.368 . S
C539 H563 0.949 . S
H540 C544 0.949 . S
C541 C542 1.349 . S
C541 C543 1.327 . S
C541 H564 0.950 . S
C542 C541 1.349 . S
C542 C554 1.349 . S
C543 C541 1.327 . S
C543 C559 1.429 . S
C543 H565 0.950 . S
C544 H540 0.949 . S
C544 C552 1.574 . S
C544 C560 1.368 . S
H545 C553 0.950 . S
H546 C551 0.950 . S
H547 C552 0.949 . S
H548 C554 0.950 . S
H549 C555 0.950 . S
H550 C556 0.949 . S
C551 H546 0.950 . S
C551 C553 1.327 . S
C551 C557 1.429 . S
C552 C544 1.574 . S
C552 H547 0.949 . S
C552 C558 1.368 . S
C553 C537 1.349 . S
C553 H545 0.950 . S
C553 C551 1.327 . S
C554 C542 1.349 . S
C554 H548 0.950 . S
C554 C555 1.327 . S
C555 H549 0.950 . S
C555 C554 1.327 . S
C555 C559 1.429 . S
C556 C539 1.574 . S
C556 H550 0.949 . S
C556 C560 1.368 . S
C557 C538 1.429 . S
C557 C551 1.429 . S
C557 C558 1.523 . S
C558 C539 1.368 . S
C558 C552 1.368 . S
C558 C557 1.523 . S
C559 C543 1.429 . S
C559 C555 1.429 . S
C559 C560 1.523 . S
C560 C544 1.368 . S
C560 C556 1.368 . S
C560 C559 1.523 . S
H561 C536 0.950 . S
H562 C538 0.950 . S
H563 C539 0.949 . S
H564 C541 0.950 . S
H565 C543 0.950 . S
C566 C567 1.349 . S
C566 C568 1.327 . S
C566 H591 0.950 . S
C567 C566 1.349 . S
C567 C583 1.349 . S
C568 C566 1.327 . S
C568 C587 1.429 . S
C568 H592 0.950 . S
C569 C586 1.574 1_565 S
C569 C588 1.368 . S
C569 H593 0.949 . S
H570 C574 0.949 . S
C571 C572 1.349 . S
C571 C573 1.327 . S
C571 H594 0.950 . S
C572 C571 1.349 . S
C572 C584 1.349 . S
C573 C571 1.327 . S
C573 C589 1.429 . S
C573 H595 0.950 . S
C574 H570 0.949 . S
C574 C582 1.574 1_545 S
C574 C590 1.368 . S
H575 C583 0.950 . S
H576 C581 0.950 . S
H577 C582 0.949 . S
H578 C584 0.950 . S
H579 C585 0.950 . S
H580 C586 0.949 . S
C581 H576 0.950 . S
C581 C583 1.327 . S
C581 C587 1.429 . S
C582 C574 1.574 1_565 S
C582 H577 0.949 . S
C582 C588 1.368 . S
C583 C567 1.349 . S
C583 H575 0.950 . S
C583 C581 1.327 . S
C584 C572 1.349 . S
C584 H578 0.950 . S
C584 C585 1.327 . S
C585 H579 0.950 . S
C585 C584 1.327 . S
C585 C589 1.429 . S
C586 C569 1.574 1_545 S
C586 H580 0.949 . S
C586 C590 1.368 . S
C587 C568 1.429 . S
C587 C581 1.429 . S
C587 C588 1.523 . S
C588 C569 1.368 . S
C588 C582 1.368 . S
C588 C587 1.523 . S
C589 C573 1.429 . S
C589 C585 1.429 . S
C589 C590 1.523 . S
C590 C574 1.368 . S
C590 C586 1.368 . S
C590 C589 1.523 . S
H591 C566 0.950 . S
H592 C568 0.950 . S
H593 C569 0.949 . S
H594 C571 0.950 . S
H595 C573 0.950 . S
C596 C597 1.349 . S
C596 C598 1.327 . S
C596 H621 0.950 . S
C597 C596 1.349 . S
C597 C613 1.349 . S
C598 C596 1.327 . S
C598 C617 1.429 . S
C598 H622 0.950 . S
C599 C616 1.574 . S
C599 C618 1.368 . S
C599 H623 0.949 . S
H600 C604 0.949 . S
C601 C602 1.349 . S
C601 C603 1.327 . S
C601 H624 0.950 . S
C602 C601 1.349 . S
C602 C614 1.349 . S
C603 C601 1.327 . S
C603 C619 1.429 . S
C603 H625 0.950 . S
C604 H600 0.949 . S
C604 C612 1.574 . S
C604 C620 1.368 . S
H605 C613 0.950 . S
H606 C611 0.950 . S
H607 C612 0.949 . S
H608 C614 0.950 . S
H609 C615 0.950 . S
H610 C616 0.949 . S
C611 H606 0.950 . S
C611 C613 1.327 . S
C611 C617 1.429 . S
C612 C604 1.574 . S
C612 H607 0.949 . S
C612 C618 1.368 . S
C613 C597 1.349 . S
C613 H605 0.950 . S
C613 C611 1.327 . S
C614 C602 1.349 . S
C614 H608 0.950 . S
C614 C615 1.327 . S
C615 H609 0.950 . S
C615 C614 1.327 . S
C615 C619 1.429 . S
C616 C599 1.574 . S
C616 H610 0.949 . S
C616 C620 1.368 . S
C617 C598 1.429 . S
C617 C611 1.429 . S
C617 C618 1.523 . S
C618 C599 1.368 . S
C618 C612 1.368 . S
C618 C617 1.523 . S
C619 C603 1.429 . S
C619 C615 1.429 . S
C619 C620 1.523 . S
C620 C604 1.368 . S
C620 C616 1.368 . S
C620 C619 1.523 . S
H621 C596 0.950 . S
H622 C598 0.950 . S
H623 C599 0.949 . S
H624 C601 0.950 . S
H625 C603 0.950 . S
C626 C627 1.349 . S
C626 C628 1.327 . S
C626 H651 0.950 . S
C627 C626 1.349 . S
C627 C643 1.349 . S
C628 C626 1.327 . S
C628 C647 1.429 . S
C628 H652 0.950 1_556 S
C629 C646 1.574 1_545 S
C629 C648 1.368 . S
C629 H653 0.949 . S
H630 C634 0.949 . S
C631 C632 1.349 . S
C631 C633 1.327 . S
C631 H654 0.950 . S
C632 C631 1.349 . S
C632 C644 1.349 . S
C633 C631 1.327 . S
C633 C649 1.429 . S
C633 H655 0.950 1_554 S
C634 H630 0.949 . S
C634 C642 1.574 1_565 S
C634 C650 1.368 . S
H635 C643 0.950 . S
H636 C641 0.950 . S
H637 C642 0.949 . S
H638 C644 0.950 . S
H639 C645 0.950 . S
H640 C646 0.949 . S
C641 H636 0.950 . S
C641 C643 1.327 . S
C641 C647 1.429 . S
C642 C634 1.574 1_545 S
C642 H637 0.949 . S
C642 C648 1.368 1_554 S
C643 C627 1.349 . S
C643 H635 0.950 . S
C643 C641 1.327 . S
C644 C632 1.349 . S
C644 H638 0.950 . S
C644 C645 1.327 . S
C645 H639 0.950 . S
C645 C644 1.327 . S
C645 C649 1.429 . S
C646 C629 1.574 1_565 S
C646 H640 0.949 . S
C646 C650 1.368 1_556 S
C647 C628 1.429 . S
C647 C641 1.429 . S
C647 C648 1.523 . S
C648 C629 1.368 . S
C648 C642 1.368 1_556 S
C648 C647 1.523 . S
C649 C633 1.429 . S
C649 C645 1.429 . S
C649 C650 1.523 . S
C650 C634 1.368 . S
C650 C646 1.368 1_554 S
C650 C649 1.523 . S
H651 C626 0.950 . S
H652 C628 0.950 1_554 S
H653 C629 0.949 . S
H654 C631 0.950 . S
H655 C633 0.950 1_556 S
C656 C657 1.349 . S
C656 C658 1.327 . S
C656 H681 0.950 . S
C657 C656 1.349 . S
C657 C673 1.349 . S
C658 C656 1.327 . S
C658 C677 1.429 . S
C658 H682 0.950 . S
C659 C676 1.574 . S
C659 C678 1.368 . S
C659 H683 0.949 . S
H660 C664 0.949 . S
C661 C662 1.349 . S
C661 C663 1.327 . S
C661 H684 0.950 . S
C662 C661 1.349 . S
C662 C674 1.349 . S
C663 C661 1.327 . S
C663 C679 1.429 . S
C663 H685 0.950 . S
C664 H660 0.949 . S
C664 C672 1.574 . S
C664 C680 1.368 . S
H665 C673 0.950 . S
H666 C671 0.950 . S
H667 C672 0.949 . S
H668 C674 0.950 . S
H669 C675 0.950 . S
H670 C676 0.949 . S
C671 H666 0.950 . S
C671 C673 1.327 . S
C671 C677 1.429 . S
C672 C664 1.574 . S
C672 H667 0.949 . S
C672 C678 1.368 . S
C673 C657 1.349 . S
C673 H665 0.950 . S
C673 C671 1.327 . S
C674 C662 1.349 . S
C674 H668 0.950 . S
C674 C675 1.327 . S
C675 H669 0.950 . S
C675 C674 1.327 . S
C675 C679 1.429 . S
C676 C659 1.574 . S
C676 H670 0.949 . S
C676 C680 1.368 . S
C677 C658 1.429 . S
C677 C671 1.429 . S
C677 C678 1.523 . S
C678 C659 1.368 . S
C678 C672 1.368 . S
C678 C677 1.523 . S
C679 C663 1.429 . S
C679 C675 1.429 . S
C679 C680 1.523 . S
C680 C664 1.368 . S
C680 C676 1.368 . S
C680 C679 1.523 . S
H681 C656 0.950 . S
H682 C658 0.950 . S
H683 C659 0.949 . S
H684 C661 0.950 . S
H685 C663 0.950 . S
C686 C687 1.349 . S
C686 C688 1.327 . S
C686 H711 0.950 . S
C687 C686 1.349 . S
C687 C703 1.349 . S
C688 C686 1.327 . S
C688 C707 1.429 . S
C688 H712 0.950 . S
C689 C706 1.574 . S
C689 C708 1.368 1_554 S
C689 H713 0.949 . S
H690 C694 0.949 . S
C691 C692 1.349 . S
C691 C693 1.327 . S
C691 H714 0.950 . S
C692 C691 1.349 . S
C692 C704 1.349 . S
C693 C691 1.327 . S
C693 C709 1.429 . S
C693 H715 0.950 . S
C694 H690 0.949 . S
C694 C702 1.574 . S
C694 C710 1.368 1_556 S
H695 C703 0.950 . S
H696 C701 0.950 1_554 S
H697 C702 0.949 . S
H698 C704 0.950 . S
H699 C705 0.950 1_556 S
H700 C706 0.949 . S
C701 H696 0.950 1_556 S
C701 C703 1.327 . S
C701 C707 1.429 . S
C702 C694 1.574 . S
C702 H697 0.949 . S
C702 C708 1.368 . S
C703 C687 1.349 . S
C703 H695 0.950 . S
C703 C701 1.327 . S
C704 C692 1.349 . S
C704 H698 0.950 . S
C704 C705 1.327 . S
C705 H699 0.950 1_554 S
C705 C704 1.327 . S
C705 C709 1.429 . S
C706 C689 1.574 . S
C706 H700 0.949 . S
C706 C710 1.368 . S
C707 C688 1.429 . S
C707 C701 1.429 . S
C707 C708 1.523 . S
C708 C689 1.368 1_556 S
C708 C702 1.368 . S
C708 C707 1.523 . S
C709 C693 1.429 . S
C709 C705 1.429 . S
C709 C710 1.523 . S
C710 C694 1.368 1_554 S
C710 C706 1.368 . S
C710 C709 1.523 . S
H711 C686 0.950 . S
H712 C688 0.950 . S
H713 C689 0.949 . S
H714 C691 0.950 . S
H715 C693 0.950 . S
C716 C717 1.349 . S
C716 C718 1.327 . S
C716 H741 0.950 . S
C717 C716 1.349 . S
C717 C733 1.349 . S
C718 C716 1.327 . S
C718 C737 1.429 . S
C718 H742 0.950 . S
C719 C736 1.574 . S
C719 C738 1.368 . S
C719 H743 0.949 . S
H720 C724 0.949 . S
C721 C722 1.349 . S
C721 C723 1.327 . S
C721 H744 0.950 . S
C722 C721 1.349 . S
C722 C734 1.349 . S
C723 C721 1.327 . S
C723 C739 1.429 . S
C723 H745 0.950 . S
C724 H720 0.949 . S
C724 C732 1.574 . S
C724 C740 1.368 . S
H725 C733 0.950 . S
H726 C731 0.950 . S
H727 C732 0.949 . S
H728 C734 0.950 . S
H729 C735 0.950 . S
H730 C736 0.949 . S
C731 H726 0.950 . S
C731 C733 1.327 . S
C731 C737 1.429 . S
C732 C724 1.574 . S
C732 H727 0.949 . S
C732 C738 1.368 . S
C733 C717 1.349 . S
C733 H725 0.950 . S
C733 C731 1.327 . S
C734 C722 1.349 . S
C734 H728 0.950 . S
C734 C735 1.327 . S
C735 H729 0.950 . S
C735 C734 1.327 . S
C735 C739 1.429 . S
C736 C719 1.574 . S
C736 H730 0.949 . S
C736 C740 1.368 . S
C737 C718 1.429 . S
C737 C731 1.429 . S
C737 C738 1.523 . S
C738 C719 1.368 . S
C738 C732 1.368 . S
C738 C737 1.523 . S
C739 C723 1.429 . S
C739 C735 1.429 . S
C739 C740 1.523 . S
C740 C724 1.368 . S
C740 C736 1.368 . S
C740 C739 1.523 . S
H741 C716 0.950 . S
H742 C718 0.950 . S
H743 C719 0.949 . S
H744 C721 0.950 . S
H745 C723 0.950 . S
C746 C747 1.349 . S
C746 C748 1.327 . S
C746 H771 0.950 . S
C747 C746 1.349 . S
C747 C763 1.349 . S
C748 C746 1.327 . S
C748 C767 1.429 . S
C748 H772 0.950 . S
C749 C766 1.574 . S
C749 C768 1.368 . S
C749 H773 0.949 . S
H750 C754 0.949 . S
C751 C752 1.349 . S
C751 C753 1.327 . S
C751 H774 0.950 . S
C752 C751 1.349 . S
C752 C764 1.349 . S
C753 C751 1.327 . S
C753 C769 1.429 . S
C753 H775 0.950 . S
C754 H750 0.949 . S
C754 C762 1.574 . S
C754 C770 1.368 . S
H755 C763 0.950 . S
H756 C761 0.950 . S
H757 C762 0.949 . S
H758 C764 0.950 . S
H759 C765 0.950 . S
H760 C766 0.949 . S
C761 H756 0.950 . S
C761 C763 1.327 . S
C761 C767 1.429 . S
C762 C754 1.574 . S
C762 H757 0.949 . S
C762 C768 1.368 . S
C763 C747 1.349 . S
C763 H755 0.950 . S
C763 C761 1.327 . S
C764 C752 1.349 . S
C764 H758 0.950 . S
C764 C765 1.327 . S
C765 H759 0.950 . S
C765 C764 1.327 . S
C765 C769 1.429 . S
C766 C749 1.574 . S
C766 H760 0.949 . S
C766 C770 1.368 . S
C767 C748 1.429 . S
C767 C761 1.429 . S
C767 C768 1.523 . S
C768 C749 1.368 . S
C768 C762 1.368 . S
C768 C767 1.523 . S
C769 C753 1.429 . S
C769 C765 1.429 . S
C769 C770 1.523 . S
C770 C754 1.368 . S
C770 C766 1.368 . S
C770 C769 1.523 . S
H771 C746 0.950 . S
H772 C748 0.950 . S
H773 C749 0.949 . S
H774 C751 0.950 . S
H775 C753 0.950 . S
C776 C777 1.349 . S
C776 C778 1.327 . S
C776 H801 0.950 . S
C777 C776 1.349 . S
C777 C793 1.349 . S
C778 C776 1.327 . S
C778 C797 1.429 . S
C778 H802 0.950 . S
C779 C796 1.574 . S
C779 C798 1.368 . S
C779 H803 0.949 . S
H780 C784 0.949 . S
C781 C782 1.349 . S
C781 C783 1.327 . S
C781 H804 0.950 . S
C782 C781 1.349 . S
C782 C794 1.349 . S
C783 C781 1.327 . S
C783 C799 1.429 . S
C783 H805 0.950 . S
C784 H780 0.949 . S
C784 C792 1.574 . S
C784 C800 1.368 . S
H785 C793 0.950 . S
H786 C791 0.950 . S
H787 C792 0.949 . S
H788 C794 0.950 . S
H789 C795 0.950 . S
H790 C796 0.949 . S
C791 H786 0.950 . S
C791 C793 1.327 . S
C791 C797 1.429 . S
C792 C784 1.574 . S
C792 H787 0.949 . S
C792 C798 1.368 . S
C793 C777 1.349 . S
C793 H785 0.950 . S
C793 C791 1.327 . S
C794 C782 1.349 . S
C794 H788 0.950 . S
C794 C795 1.327 . S
C795 H789 0.950 . S
C795 C794 1.327 . S
C795 C799 1.429 . S
C796 C779 1.574 . S
C796 H790 0.949 . S
C796 C800 1.368 . S
C797 C778 1.429 . S
C797 C791 1.429 . S
C797 C798 1.523 . S
C798 C779 1.368 . S
C798 C792 1.368 . S
C798 C797 1.523 . S
C799 C783 1.429 . S
C799 C795 1.429 . S
C799 C800 1.523 . S
C800 C784 1.368 . S
C800 C796 1.368 . S
C800 C799 1.523 . S
H801 C776 0.950 . S
H802 C778 0.950 . S
H803 C779 0.949 . S
H804 C781 0.950 . S
H805 C783 0.950 . S
C806 C807 1.349 . S
C806 C808 1.327 . S
C806 H831 0.950 . S
C807 C806 1.349 . S
C807 C823 1.349 . S
C808 C806 1.327 . S
C808 C827 1.429 . S
C808 H832 0.950 1_554 S
C809 C826 1.574 . S
C809 C828 1.368 . S
C809 H833 0.949 . S
H810 C814 0.949 . S
C811 C812 1.349 . S
C811 C813 1.327 . S
C811 H834 0.950 . S
C812 C811 1.349 . S
C812 C824 1.349 . S
C813 C811 1.327 . S
C813 C829 1.429 . S
C813 H835 0.950 1_556 S
C814 H810 0.949 . S
C814 C822 1.574 . S
C814 C830 1.368 . S
H815 C823 0.950 . S
H816 C821 0.950 . S
H817 C822 0.949 . S
H818 C824 0.950 . S
H819 C825 0.950 . S
H820 C826 0.949 . S
C821 H816 0.950 . S
C821 C823 1.327 . S
C821 C827 1.429 . S
C822 C814 1.574 . S
C822 H817 0.949 . S
C822 C828 1.368 1_556 S
C823 C807 1.349 . S
C823 H815 0.950 . S
C823 C821 1.327 . S
C824 C812 1.349 . S
C824 H818 0.950 . S
C824 C825 1.327 . S
C825 H819 0.950 . S
C825 C824 1.327 . S
C825 C829 1.429 . S
C826 C809 1.574 . S
C826 H820 0.949 . S
C826 C830 1.368 1_554 S
C827 C808 1.429 . S
C827 C821 1.429 . S
C827 C828 1.523 . S
C828 C809 1.368 . S
C828 C822 1.368 1_554 S
C828 C827 1.523 . S
C829 C813 1.429 . S
C829 C825 1.429 . S
C829 C830 1.523 . S
C830 C814 1.368 . S
C830 C826 1.368 1_556 S
C830 C829 1.523 . S
H831 C806 0.950 . S
H832 C808 0.950 1_556 S
H833 C809 0.949 . S
H834 C811 0.950 . S
H835 C813 0.950 1_554 S
C836 C837 1.349 . S
C836 C838 1.327 . S
C836 H861 0.950 . S
C837 C836 1.349 . S
C837 C853 1.349 . S
C838 C836 1.327 . S
C838 C857 1.429 . S
C838 H862 0.950 . S
C839 C856 1.574 . S
C839 C858 1.368 . S
C839 H863 0.949 . S
H840 C844 0.949 . S
C841 C842 1.349 . S
C841 C843 1.327 . S
C841 H864 0.950 . S
C842 C841 1.349 . S
C842 C854 1.349 . S
C843 C841 1.327 . S
C843 C859 1.429 . S
C843 H865 0.950 . S
C844 H840 0.949 . S
C844 C852 1.574 . S
C844 C860 1.368 . S
H845 C853 0.950 . S
H846 C851 0.950 . S
H847 C852 0.949 . S
H848 C854 0.950 . S
H849 C855 0.950 . S
H850 C856 0.949 . S
C851 H846 0.950 . S
C851 C853 1.327 . S
C851 C857 1.429 . S
C852 C844 1.574 . S
C852 H847 0.949 . S
C852 C858 1.368 . S
C853 C837 1.349 . S
C853 H845 0.950 . S
C853 C851 1.327 . S
C854 C842 1.349 . S
C854 H848 0.950 . S
C854 C855 1.327 . S
C855 H849 0.950 . S
C855 C854 1.327 . S
C855 C859 1.429 . S
C856 C839 1.574 . S
C856 H850 0.949 . S
C856 C860 1.368 . S
C857 C838 1.429 . S
C857 C851 1.429 . S
C857 C858 1.523 . S
C858 C839 1.368 . S
C858 C852 1.368 . S
C858 C857 1.523 . S
C859 C843 1.429 . S
C859 C855 1.429 . S
C859 C860 1.523 . S
C860 C844 1.368 . S
C860 C856 1.368 . S
C860 C859 1.523 . S
H861 C836 0.950 . S
H862 C838 0.950 . S
H863 C839 0.949 . S
H864 C841 0.950 . S
H865 C843 0.950 . S
C866 C867 1.349 . S
C866 C868 1.327 . S
C866 H891 0.950 . S
C867 C866 1.349 . S
C867 C883 1.349 . S
C868 C866 1.327 . S
C868 C887 1.429 . S
C868 H892 0.950 . S
C869 C886 1.574 . S
C869 C888 1.368 . S
C869 H893 0.949 . S
H870 C874 0.949 . S
C871 C872 1.349 . S
C871 C873 1.327 . S
C871 H894 0.950 . S
C872 C871 1.349 . S
C872 C884 1.349 . S
C873 C871 1.327 . S
C873 C889 1.429 . S
C873 H895 0.950 . S
C874 H870 0.949 . S
C874 C882 1.574 . S
C874 C890 1.368 . S
H875 C883 0.950 . S
H876 C881 0.950 . S
H877 C882 0.949 . S
H878 C884 0.950 . S
H879 C885 0.950 . S
H880 C886 0.949 . S
C881 H876 0.950 . S
C881 C883 1.327 . S
C881 C887 1.429 . S
C882 C874 1.574 . S
C882 H877 0.949 . S
C882 C888 1.368 . S
C883 C867 1.349 . S
C883 H875 0.950 . S
C883 C881 1.327 . S
C884 C872 1.349 . S
C884 H878 0.950 . S
C884 C885 1.327 . S
C885 H879 0.950 . S
C885 C884 1.327 . S
C885 C889 1.429 . S
C886 C869 1.574 . S
C886 H880 0.949 . S
C886 C890 1.368 . S
C887 C868 1.429 . S
C887 C881 1.429 . S
C887 C888 1.523 . S
C888 C869 1.368 . S
C888 C882 1.368 . S
C888 C887 1.523 . S
C889 C873 1.429 . S
C889 C885 1.429 . S
C889 C890 1.523 . S
C890 C874 1.368 . S
C890 C886 1.368 . S
C890 C889 1.523 . S
H891 C866 0.950 . S
H892 C868 0.950 . S
H893 C869 0.949 . S
H894 C871 0.950 . S
H895 C873 0.950 . S
C896 C897 1.349 1_556 S
C896 C898 1.327 . S
C896 H921 0.950 . S
C897 C896 1.349 1_554 S
C897 C913 1.349 . S
C898 C896 1.327 . S
C898 C917 1.429 . S
C898 H922 0.950 . S
C899 C916 1.574 . S
C899 C918 1.368 . S
C899 H923 0.949 . S
H900 C904 0.949 . S
C901 C902 1.349 . S
C901 C903 1.327 . S
C901 H924 0.950 . S
C902 C901 1.349 . S
C902 C914 1.349 . S
C903 C901 1.327 . S
C903 C919 1.429 . S
C903 H925 0.950 . S
C904 H900 0.949 . S
C904 C912 1.574 . S
C904 C920 1.368 . S
H905 C913 0.950 . S
H906 C911 0.950 1_554 S
H907 C912 0.949 . S
H908 C914 0.950 . S
H909 C915 0.950 . S
H910 C916 0.949 . S
C911 H906 0.950 1_556 S
C911 C913 1.327 1_556 S
C911 C917 1.429 . S
C912 C904 1.574 . S
C912 H907 0.949 . S
C912 C918 1.368 . S
C913 C897 1.349 . S
C913 H905 0.950 . S
C913 C911 1.327 1_554 S
C914 C902 1.349 . S
C914 H908 0.950 . S
C914 C915 1.327 . S
C915 H909 0.950 . S
C915 C914 1.327 . S
C915 C919 1.429 . S
C916 C899 1.574 . S
C916 H910 0.949 . S
C916 C920 1.368 . S
C917 C898 1.429 . S
C917 C911 1.429 . S
C917 C918 1.523 . S
C918 C899 1.368 . S
C918 C912 1.368 . S
C918 C917 1.523 . S
C919 C903 1.429 . S
C919 C915 1.429 . S
C919 C920 1.523 . S
C920 C904 1.368 . S
C920 C916 1.368 . S
C920 C919 1.523 . S
H921 C896 0.950 . S
H922 C898 0.950 . S
H923 C899 0.949 . S
H924 C901 0.950 . S
H925 C903 0.950 . S
C926 C927 1.349 1_554 S
C926 C928 1.327 . S
C926 H951 0.950 . S
C927 C926 1.349 1_556 S
C927 C943 1.349 . S
C928 C926 1.327 . S
C928 C947 1.429 . S
C928 H952 0.950 . S
C929 C946 1.574 . S
C929 C948 1.368 . S
C929 H953 0.949 . S
H930 C934 0.949 . S
C931 C932 1.349 . S
C931 C933 1.327 . S
C931 H954 0.950 . S
C932 C931 1.349 . S
C932 C944 1.349 . S
C933 C931 1.327 . S
C933 C949 1.429 . S
C933 H955 0.950 . S
C934 H930 0.949 . S
C934 C942 1.574 . S
C934 C950 1.368 . S
H935 C943 0.950 . S
H936 C941 0.950 1_556 S
H937 C942 0.949 . S
H938 C944 0.950 . S
H939 C945 0.950 . S
H940 C946 0.949 . S
C941 H936 0.950 1_554 S
C941 C943 1.327 1_554 S
C941 C947 1.429 . S
C942 C934 1.574 . S
C942 H937 0.949 . S
C942 C948 1.368 . S
C943 C927 1.349 . S
C943 H935 0.950 . S
C943 C941 1.327 1_556 S
C944 C932 1.349 . S
C944 H938 0.950 . S
C944 C945 1.327 . S
C945 H939 0.950 . S
C945 C944 1.327 . S
C945 C949 1.429 . S
C946 C929 1.574 . S
C946 H940 0.949 . S
C946 C950 1.368 . S
C947 C928 1.429 . S
C947 C941 1.429 . S
C947 C948 1.523 . S
C948 C929 1.368 . S
C948 C942 1.368 . S
C948 C947 1.523 . S
C949 C933 1.429 . S
C949 C945 1.429 . S
C949 C950 1.523 . S
C950 C934 1.368 . S
C950 C946 1.368 . S
C950 C949 1.523 . S
H951 C926 0.950 . S
H952 C928 0.950 . S
H953 C929 0.949 . S
H954 C931 0.950 . S
H955 C933 0.950 . S
C956 C957 1.349 . S
C956 C958 1.327 . S
C956 H981 0.950 . S
C957 C956 1.349 . S
C957 C973 1.349 . S
C958 C956 1.327 . S
C958 C977 1.429 . S
C958 H982 0.950 . S
C959 C976 1.574 . S
C959 C978 1.368 . S
C959 H983 0.949 . S
H960 C964 0.949 . S
C961 C962 1.349 . S
C961 C963 1.327 . S
C961 H984 0.950 . S
C962 C961 1.349 . S
C962 C974 1.349 . S
C963 C961 1.327 . S
C963 C979 1.429 . S
C963 H985 0.950 . S
C964 H960 0.949 . S
C964 C972 1.574 . S
C964 C980 1.368 . S
H965 C973 0.950 . S
H966 C971 0.950 . S
H967 C972 0.949 . S
H968 C974 0.950 . S
H969 C975 0.950 . S
H970 C976 0.949 . S
C971 H966 0.950 . S
C971 C973 1.327 . S
C971 C977 1.429 . S
C972 C964 1.574 . S
C972 H967 0.949 . S
C972 C978 1.368 . S
C973 C957 1.349 . S
C973 H965 0.950 . S
C973 C971 1.327 . S
C974 C962 1.349 . S
C974 H968 0.950 . S
C974 C975 1.327 . S
C975 H969 0.950 . S
C975 C974 1.327 . S
C975 C979 1.429 . S
C976 C959 1.574 . S
C976 H970 0.949 . S
C976 C980 1.368 . S
C977 C958 1.429 . S
C977 C971 1.429 . S
C977 C978 1.523 . S
C978 C959 1.368 . S
C978 C972 1.368 . S
C978 C977 1.523 . S
C979 C963 1.429 . S
C979 C975 1.429 . S
C979 C980 1.523 . S
C980 C964 1.368 . S
C980 C976 1.368 . S
C980 C979 1.523 . S
H981 C956 0.950 . S
H982 C958 0.950 . S
H983 C959 0.949 . S
H984 C961 0.950 . S
H985 C963 0.950 . S
C986 C987 1.349 . S
C986 C988 1.327 . S
C986 H1011 0.950 . S
C987 C986 1.349 . S
C987 C1003 1.349 . S
C988 C986 1.327 . S
C988 C1007 1.429 . S
C988 H1012 0.950 . S
C989 C1006 1.574 . S
C989 C1008 1.368 . S
C989 H1013 0.949 . S
H990 C994 0.949 . S
C991 C992 1.349 . S
C991 C993 1.327 . S
C991 H1014 0.950 . S
C992 C991 1.349 . S
C992 C1004 1.349 . S
C993 C991 1.327 . S
C993 C1009 1.429 . S
C993 H1015 0.950 . S
C994 H990 0.949 . S
C994 C1002 1.574 . S
C994 C1010 1.368 . S
H995 C1003 0.950 . S
H996 C1001 0.950 . S
H997 C1002 0.949 . S
H998 C1004 0.950 . S
H999 C1005 0.950 . S
H1000 C1006 0.949 . S
C1001 H996 0.950 . S
C1001 C1003 1.327 . S
C1001 C1007 1.429 . S
C1002 C994 1.574 . S
C1002 H997 0.949 . S
C1002 C1008 1.368 . S
C1003 C987 1.349 . S
C1003 H995 0.950 . S
C1003 C1001 1.327 . S
C1004 C992 1.349 . S
C1004 H998 0.950 . S
C1004 C1005 1.327 . S
C1005 H999 0.950 . S
C1005 C1004 1.327 . S
C1005 C1009 1.429 . S
C1006 C989 1.574 . S
C1006 H1000 0.949 . S
C1006 C1010 1.368 . S
C1007 C988 1.429 . S
C1007 C1001 1.429 . S
C1007 C1008 1.523 . S
C1008 C989 1.368 . S
C1008 C1002 1.368 . S
C1008 C1007 1.523 . S
C1009 C993 1.429 . S
C1009 C1005 1.429 . S
C1009 C1010 1.523 . S
C1010 C994 1.368 . S
C1010 C1006 1.368 . S
C1010 C1009 1.523 . S
H1011 C986 0.950 . S
H1012 C988 0.950 . S
H1013 C989 0.949 . S
H1014 C991 0.950 . S
H1015 C993 0.950 . S
C1016 C1017 1.349 1_554 S
C1016 C1018 1.327 . S
C1016 H1041 0.950 . S
C1017 C1016 1.349 1_556 S
C1017 C1033 1.349 . S
C1018 C1016 1.327 . S
C1018 C1037 1.429 . S
C1018 H1042 0.950 . S
C1019 C1036 1.574 . S
C1019 C1038 1.368 . S
C1019 H1043 0.949 . S
H1020 C1024 0.949 . S
C1021 C1022 1.349 . S
C1021 C1023 1.327 . S
C1021 H1044 0.950 . S
C1022 C1021 1.349 . S
C1022 C1034 1.349 . S
C1023 C1021 1.327 . S
C1023 C1039 1.429 . S
C1023 H1045 0.950 . S
C1024 H1020 0.949 . S
C1024 C1032 1.574 . S
C1024 C1040 1.368 . S
H1025 C1033 0.950 . S
H1026 C1031 0.950 . S
H1027 C1032 0.949 . S
H1028 C1034 0.950 . S
H1029 C1035 0.950 . S
H1030 C1036 0.949 . S
C1031 H1026 0.950 . S
C1031 C1033 1.327 1_554 S
C1031 C1037 1.429 . S
C1032 C1024 1.574 . S
C1032 H1027 0.949 . S
C1032 C1038 1.368 . S
C1033 C1017 1.349 . S
C1033 H1025 0.950 . S
C1033 C1031 1.327 1_556 S
C1034 C1022 1.349 . S
C1034 H1028 0.950 . S
C1034 C1035 1.327 . S
C1035 H1029 0.950 . S
C1035 C1034 1.327 . S
C1035 C1039 1.429 . S
C1036 C1019 1.574 . S
C1036 H1030 0.949 . S
C1036 C1040 1.368 . S
C1037 C1018 1.429 . S
C1037 C1031 1.429 . S
C1037 C1038 1.523 . S
C1038 C1019 1.368 . S
C1038 C1032 1.368 . S
C1038 C1037 1.523 . S
C1039 C1023 1.429 . S
C1039 C1035 1.429 . S
C1039 C1040 1.523 . S
C1040 C1024 1.368 . S
C1040 C1036 1.368 . S
C1040 C1039 1.523 . S
H1041 C1016 0.950 . S
H1042 C1018 0.950 . S
H1043 C1019 0.949 . S
H1044 C1021 0.950 . S
H1045 C1023 0.950 . S
C1046 C1047 1.349 1_556 S
C1046 C1048 1.327 . S
C1046 H1071 0.950 . S
C1047 C1046 1.349 1_554 S
C1047 C1063 1.349 . S
C1048 C1046 1.327 . S
C1048 C1067 1.429 . S
C1048 H1072 0.950 . S
C1049 C1066 1.574 . S
C1049 C1068 1.368 . S
C1049 H1073 0.949 . S
H1050 C1054 0.949 . S
C1051 C1052 1.349 . S
C1051 C1053 1.327 . S
C1051 H1074 0.950 . S
C1052 C1051 1.349 . S
C1052 C1064 1.349 . S
C1053 C1051 1.327 . S
C1053 C1069 1.429 . S
C1053 H1075 0.950 . S
C1054 H1050 0.949 . S
C1054 C1062 1.574 . S
C1054 C1070 1.368 . S
H1055 C1063 0.950 . S
H1056 C1061 0.950 . S
H1057 C1062 0.949 . S
H1058 C1064 0.950 . S
H1059 C1065 0.950 . S
H1060 C1066 0.949 . S
C1061 H1056 0.950 . S
C1061 C1063 1.327 1_556 S
C1061 C1067 1.429 . S
C1062 C1054 1.574 . S
C1062 H1057 0.949 . S
C1062 C1068 1.368 . S
C1063 C1047 1.349 . S
C1063 H1055 0.950 . S
C1063 C1061 1.327 1_554 S
C1064 C1052 1.349 . S
C1064 H1058 0.950 . S
C1064 C1065 1.327 . S
C1065 H1059 0.950 . S
C1065 C1064 1.327 . S
C1065 C1069 1.429 . S
C1066 C1049 1.574 . S
C1066 H1060 0.949 . S
C1066 C1070 1.368 . S
C1067 C1048 1.429 . S
C1067 C1061 1.429 . S
C1067 C1068 1.523 . S
C1068 C1049 1.368 . S
C1068 C1062 1.368 . S
C1068 C1067 1.523 . S
C1069 C1053 1.429 . S
C1069 C1065 1.429 . S
C1069 C1070 1.523 . S
C1070 C1054 1.368 . S
C1070 C1066 1.368 . S
C1070 C1069 1.523 . S
H1071 C1046 0.950 . S
H1072 C1048 0.950 . S
H1073 C1049 0.949 . S
H1074 C1051 0.950 . S
H1075 C1053 0.950 . S
C1076 C1077 1.349 . S
C1076 C1078 1.327 . S
C1076 H1101 0.950 . S
C1077 C1076 1.349 . S
C1077 C1093 1.349 . S
C1078 C1076 1.327 . S
C1078 C1097 1.429 . S
C1078 H1102 0.950 . S
C1079 C1096 1.574 . S
C1079 C1098 1.368 . S
C1079 H1103 0.949 . S
H1080 C1084 0.949 . S
C1081 C1082 1.349 . S
C1081 C1083 1.327 . S
C1081 H1104 0.950 . S
C1082 C1081 1.349 . S
C1082 C1094 1.349 . S
C1083 C1081 1.327 . S
C1083 C1099 1.429 . S
C1083 H1105 0.950 . S
C1084 H1080 0.949 . S
C1084 C1092 1.574 . S
C1084 C1100 1.368 . S
H1085 C1093 0.950 . S
H1086 C1091 0.950 . S
H1087 C1092 0.949 . S
H1088 C1094 0.950 . S
H1089 C1095 0.950 . S
H1090 C1096 0.949 . S
C1091 H1086 0.950 . S
C1091 C1093 1.327 . S
C1091 C1097 1.429 . S
C1092 C1084 1.574 . S
C1092 H1087 0.949 . S
C1092 C1098 1.368 . S
C1093 C1077 1.349 . S
C1093 H1085 0.950 . S
C1093 C1091 1.327 . S
C1094 C1082 1.349 . S
C1094 H1088 0.950 . S
C1094 C1095 1.327 . S
C1095 H1089 0.950 . S
C1095 C1094 1.327 . S
C1095 C1099 1.429 . S
C1096 C1079 1.574 . S
C1096 H1090 0.949 . S
C1096 C1100 1.368 . S
C1097 C1078 1.429 . S
C1097 C1091 1.429 . S
C1097 C1098 1.523 . S
C1098 C1079 1.368 . S
C1098 C1092 1.368 . S
C1098 C1097 1.523 . S
C1099 C1083 1.429 . S
C1099 C1095 1.429 . S
C1099 C1100 1.523 . S
C1100 C1084 1.368 . S
C1100 C1096 1.368 . S
C1100 C1099 1.523 . S
H1101 C1076 0.950 . S
H1102 C1078 0.950 . S
H1103 C1079 0.949 . S
H1104 C1081 0.950 . S
H1105 C1083 0.950 . S
C1106 C1107 1.349 . S
C1106 C1108 1.327 . S
C1106 H1131 0.950 . S
C1107 C1106 1.349 . S
C1107 C1123 1.349 . S
C1108 C1106 1.327 . S
C1108 C1127 1.429 . S
C1108 H1132 0.950 . S
C1109 C1126 1.574 . S
C1109 C1128 1.368 . S
C1109 H1133 0.949 . S
H1110 C1114 0.949 . S
C1111 C1112 1.349 . S
C1111 C1113 1.327 . S
C1111 H1134 0.950 . S
C1112 C1111 1.349 . S
C1112 C1124 1.349 . S
C1113 C1111 1.327 . S
C1113 C1129 1.429 . S
C1113 H1135 0.950 . S
C1114 H1110 0.949 . S
C1114 C1122 1.574 . S
C1114 C1130 1.368 . S
H1115 C1123 0.950 . S
H1116 C1121 0.950 . S
H1117 C1122 0.949 . S
H1118 C1124 0.950 . S
H1119 C1125 0.950 . S
H1120 C1126 0.949 . S
C1121 H1116 0.950 . S
C1121 C1123 1.327 . S
C1121 C1127 1.429 . S
C1122 C1114 1.574 . S
C1122 H1117 0.949 . S
C1122 C1128 1.368 . S
C1123 C1107 1.349 . S
C1123 H1115 0.950 . S
C1123 C1121 1.327 . S
C1124 C1112 1.349 . S
C1124 H1118 0.950 . S
C1124 C1125 1.327 . S
C1125 H1119 0.950 . S
C1125 C1124 1.327 . S
C1125 C1129 1.429 . S
C1126 C1109 1.574 . S
C1126 H1120 0.949 . S
C1126 C1130 1.368 . S
C1127 C1108 1.429 . S
C1127 C1121 1.429 . S
C1127 C1128 1.523 . S
C1128 C1109 1.368 . S
C1128 C1122 1.368 . S
C1128 C1127 1.523 . S
C1129 C1113 1.429 . S
C1129 C1125 1.429 . S
C1129 C1130 1.523 . S
C1130 C1114 1.368 . S
C1130 C1126 1.368 . S
C1130 C1129 1.523 . S
H1131 C1106 0.950 . S
H1132 C1108 0.950 . S
H1133 C1109 0.949 . S
H1134 C1111 0.950 . S
H1135 C1113 0.950 . S
C1136 C1137 1.349 . S
C1136 C1138 1.327 . S
C1136 H1161 0.950 . S
C1137 C1136 1.349 . S
C1137 C1153 1.349 . S
C1138 C1136 1.327 . S
C1138 C1157 1.429 . S
C1138 H1162 0.950 . S
C1139 C1156 1.574 . S
C1139 C1158 1.368 . S
C1139 H1163 0.949 . S
H1140 C1144 0.949 . S
C1141 C1142 1.349 . S
C1141 C1143 1.327 . S
C1141 H1164 0.950 . S
C1142 C1141 1.349 . S
C1142 C1154 1.349 . S
C1143 C1141 1.327 . S
C1143 C1159 1.429 . S
C1143 H1165 0.950 . S
C1144 H1140 0.949 . S
C1144 C1152 1.574 . S
C1144 C1160 1.368 . S
H1145 C1153 0.950 . S
H1146 C1151 0.950 . S
H1147 C1152 0.949 . S
H1148 C1154 0.950 . S
H1149 C1155 0.950 . S
H1150 C1156 0.949 . S
C1151 H1146 0.950 . S
C1151 C1153 1.327 . S
C1151 C1157 1.429 . S
C1152 C1144 1.574 . S
C1152 H1147 0.949 . S
C1152 C1158 1.368 . S
C1153 C1137 1.349 . S
C1153 H1145 0.950 . S
C1153 C1151 1.327 . S
C1154 C1142 1.349 . S
C1154 H1148 0.950 . S
C1154 C1155 1.327 . S
C1155 H1149 0.950 . S
C1155 C1154 1.327 . S
C1155 C1159 1.429 . S
C1156 C1139 1.574 . S
C1156 H1150 0.949 . S
C1156 C1160 1.368 . S
C1157 C1138 1.429 . S
C1157 C1151 1.429 . S
C1157 C1158 1.523 . S
C1158 C1139 1.368 . S
C1158 C1152 1.368 . S
C1158 C1157 1.523 . S
C1159 C1143 1.429 . S
C1159 C1155 1.429 . S
C1159 C1160 1.523 . S
C1160 C1144 1.368 . S
C1160 C1156 1.368 . S
C1160 C1159 1.523 . S
H1161 C1136 0.950 . S
H1162 C1138 0.950 . S
H1163 C1139 0.949 . S
H1164 C1141 0.950 . S
H1165 C1143 0.950 . S
C1166 C1167 1.349 . S
C1166 C1168 1.327 . S
C1166 H1191 0.950 . S
C1167 C1166 1.349 . S
C1167 C1183 1.349 . S
C1168 C1166 1.327 . S
C1168 C1187 1.429 . S
C1168 H1192 0.950 . S
C1169 C1186 1.574 . S
C1169 C1188 1.368 . S
C1169 H1193 0.949 . S
H1170 C1174 0.949 . S
C1171 C1172 1.349 . S
C1171 C1173 1.327 . S
C1171 H1194 0.950 . S
C1172 C1171 1.349 . S
C1172 C1184 1.349 . S
C1173 C1171 1.327 . S
C1173 C1189 1.429 . S
C1173 H1195 0.950 . S
C1174 H1170 0.949 . S
C1174 C1182 1.574 . S
C1174 C1190 1.368 . S
H1175 C1183 0.950 . S
H1176 C1181 0.950 . S
H1177 C1182 0.949 . S
H1178 C1184 0.950 . S
H1179 C1185 0.950 . S
H1180 C1186 0.949 . S
C1181 H1176 0.950 . S
C1181 C1183 1.327 . S
C1181 C1187 1.429 . S
C1182 C1174 1.574 . S
C1182 H1177 0.949 . S
C1182 C1188 1.368 . S
C1183 C1167 1.349 . S
C1183 H1175 0.950 . S
C1183 C1181 1.327 . S
C1184 C1172 1.349 . S
C1184 H1178 0.950 . S
C1184 C1185 1.327 . S
C1185 H1179 0.950 . S
C1185 C1184 1.327 . S
C1185 C1189 1.429 . S
C1186 C1169 1.574 . S
C1186 H1180 0.949 . S
C1186 C1190 1.368 . S
C1187 C1168 1.429 . S
C1187 C1181 1.429 . S
C1187 C1188 1.523 . S
C1188 C1169 1.368 . S
C1188 C1182 1.368 . S
C1188 C1187 1.523 . S
C1189 C1173 1.429 . S
C1189 C1185 1.429 . S
C1189 C1190 1.523 . S
C1190 C1174 1.368 . S
C1190 C1186 1.368 . S
C1190 C1189 1.523 . S
H1191 C1166 0.950 . S
H1192 C1168 0.950 . S
H1193 C1169 0.949 . S
H1194 C1171 0.950 . S
H1195 C1173 0.950 . S
C1196 C1197 1.349 . S
C1196 C1198 1.327 . S
C1196 H1221 0.950 . S
C1197 C1196 1.349 . S
C1197 C1213 1.349 . S
C1198 C1196 1.327 . S
C1198 C1217 1.429 . S
C1198 H1222 0.950 . S
C1199 C1216 1.574 . S
C1199 C1218 1.368 . S
C1199 H1223 0.949 . S
H1200 C1204 0.949 . S
C1201 C1202 1.349 . S
C1201 C1203 1.327 1_554 S
C1201 H1224 0.950 . S
C1202 C1201 1.349 . S
C1202 C1214 1.349 1_554 S
C1203 C1201 1.327 1_556 S
C1203 C1219 1.429 . S
C1203 H1225 0.950 . S
C1204 H1200 0.949 . S
C1204 C1212 1.574 . S
C1204 C1220 1.368 . S
H1205 C1213 0.950 . S
H1206 C1211 0.950 . S
H1207 C1212 0.949 . S
H1208 C1214 0.950 . S
H1209 C1215 0.950 . S
H1210 C1216 0.949 . S
C1211 H1206 0.950 . S
C1211 C1213 1.327 . S
C1211 C1217 1.429 . S
C1212 C1204 1.574 . S
C1212 H1207 0.949 . S
C1212 C1218 1.368 . S
C1213 C1197 1.349 . S
C1213 H1205 0.950 . S
C1213 C1211 1.327 . S
C1214 C1202 1.349 1_556 S
C1214 H1208 0.950 . S
C1214 C1215 1.327 . S
C1215 H1209 0.950 . S
C1215 C1214 1.327 . S
C1215 C1219 1.429 . S
C1216 C1199 1.574 . S
C1216 H1210 0.949 . S
C1216 C1220 1.368 . S
C1217 C1198 1.429 . S
C1217 C1211 1.429 . S
C1217 C1218 1.523 . S
C1218 C1199 1.368 . S
C1218 C1212 1.368 . S
C1218 C1217 1.523 . S
C1219 C1203 1.429 . S
C1219 C1215 1.429 . S
C1219 C1220 1.523 . S
C1220 C1204 1.368 . S
C1220 C1216 1.368 . S
C1220 C1219 1.523 . S
H1221 C1196 0.950 . S
H1222 C1198 0.950 . S
H1223 C1199 0.949 . S
H1224 C1201 0.950 . S
H1225 C1203 0.950 . S
C1226 C1227 1.349 . S
C1226 C1228 1.327 . S
C1226 H1251 0.950 . S
C1227 C1226 1.349 . S
C1227 C1243 1.349 . S
C1228 C1226 1.327 . S
C1228 C1247 1.429 . S
C1228 H1252 0.950 . S
C1229 C1246 1.574 . S
C1229 C1248 1.368 . S
C1229 H1253 0.949 . S
H1230 C1234 0.949 . S
C1231 C1232 1.349 1_554 S
C1231 C1233 1.327 . S
C1231 H1254 0.950 . S
C1232 C1231 1.349 1_556 S
C1232 C1244 1.349 . S
C1233 C1231 1.327 . S
C1233 C1249 1.429 . S
C1233 H1255 0.950 . S
C1234 H1230 0.949 . S
C1234 C1242 1.574 . S
C1234 C1250 1.368 . S
H1235 C1243 0.950 . S
H1236 C1241 0.950 . S
H1237 C1242 0.949 . S
H1238 C1244 0.950 . S
H1239 C1245 0.950 . S
H1240 C1246 0.949 . S
C1241 H1236 0.950 . S
C1241 C1243 1.327 . S
C1241 C1247 1.429 . S
C1242 C1234 1.574 . S
C1242 H1237 0.949 . S
C1242 C1248 1.368 . S
C1243 C1227 1.349 . S
C1243 H1235 0.950 . S
C1243 C1241 1.327 . S
C1244 C1232 1.349 . S
C1244 H1238 0.950 . S
C1244 C1245 1.327 1_556 S
C1245 H1239 0.950 . S
C1245 C1244 1.327 1_554 S
C1245 C1249 1.429 . S
C1246 C1229 1.574 . S
C1246 H1240 0.949 . S
C1246 C1250 1.368 . S
C1247 C1228 1.429 . S
C1247 C1241 1.429 . S
C1247 C1248 1.523 . S
C1248 C1229 1.368 . S
C1248 C1242 1.368 . S
C1248 C1247 1.523 . S
C1249 C1233 1.429 . S
C1249 C1245 1.429 . S
C1249 C1250 1.523 . S
C1250 C1234 1.368 . S
C1250 C1246 1.368 . S
C1250 C1249 1.523 . S
H1251 C1226 0.950 . S
H1252 C1228 0.950 . S
H1253 C1229 0.949 . S
H1254 C1231 0.950 . S
H1255 C1233 0.950 . S
C1256 C1257 1.349 . S
C1256 C1258 1.327 . S
C1256 H1281 0.950 . S
C1257 C1256 1.349 . S
C1257 C1273 1.349 . S
C1258 C1256 1.327 . S
C1258 C1277 1.429 . S
C1258 H1282 0.950 . S
C1259 C1276 1.574 . S
C1259 C1278 1.368 . S
C1259 H1283 0.949 . S
H1260 C1264 0.949 . S
C1261 C1262 1.349 . S
C1261 C1263 1.327 . S
C1261 H1284 0.950 . S
C1262 C1261 1.349 . S
C1262 C1274 1.349 . S
C1263 C1261 1.327 . S
C1263 C1279 1.429 . S
C1263 H1285 0.950 . S
C1264 H1260 0.949 . S
C1264 C1272 1.574 . S
C1264 C1280 1.368 . S
H1265 C1273 0.950 . S
H1266 C1271 0.950 . S
H1267 C1272 0.949 . S
H1268 C1274 0.950 . S
H1269 C1275 0.950 . S
H1270 C1276 0.949 . S
C1271 H1266 0.950 . S
C1271 C1273 1.327 . S
C1271 C1277 1.429 . S
C1272 C1264 1.574 . S
C1272 H1267 0.949 . S
C1272 C1278 1.368 . S
C1273 C1257 1.349 . S
C1273 H1265 0.950 . S
C1273 C1271 1.327 . S
C1274 C1262 1.349 . S
C1274 H1268 0.950 . S
C1274 C1275 1.327 . S
C1275 H1269 0.950 . S
C1275 C1274 1.327 . S
C1275 C1279 1.429 . S
C1276 C1259 1.574 . S
C1276 H1270 0.949 . S
C1276 C1280 1.368 . S
C1277 C1258 1.429 . S
C1277 C1271 1.429 . S
C1277 C1278 1.523 . S
C1278 C1259 1.368 . S
C1278 C1272 1.368 . S
C1278 C1277 1.523 . S
C1279 C1263 1.429 . S
C1279 C1275 1.429 . S
C1279 C1280 1.523 . S
C1280 C1264 1.368 . S
C1280 C1276 1.368 . S
C1280 C1279 1.523 . S
H1281 C1256 0.950 . S
H1282 C1258 0.950 . S
H1283 C1259 0.949 . S
H1284 C1261 0.950 . S
H1285 C1263 0.950 . S
C1286 C1287 1.349 . S
C1286 C1288 1.327 . S
C1286 H1311 0.950 . S
C1287 C1286 1.349 . S
C1287 C1303 1.349 . S
C1288 C1286 1.327 . S
C1288 C1307 1.429 . S
C1288 H1312 0.950 . S
C1289 C1306 1.574 . S
C1289 C1308 1.368 . S
C1289 H1313 0.949 . S
H1290 C1294 0.949 . S
C1291 C1292 1.349 . S
C1291 C1293 1.327 . S
C1291 H1314 0.950 . S
C1292 C1291 1.349 . S
C1292 C1304 1.349 . S
C1293 C1291 1.327 . S
C1293 C1309 1.429 . S
C1293 H1315 0.950 . S
C1294 H1290 0.949 . S
C1294 C1302 1.574 . S
C1294 C1310 1.368 . S
H1295 C1303 0.950 . S
H1296 C1301 0.950 . S
H1297 C1302 0.949 . S
H1298 C1304 0.950 . S
H1299 C1305 0.950 . S
H1300 C1306 0.949 . S
C1301 H1296 0.950 . S
C1301 C1303 1.327 . S
C1301 C1307 1.429 . S
C1302 C1294 1.574 . S
C1302 H1297 0.949 . S
C1302 C1308 1.368 . S
C1303 C1287 1.349 . S
C1303 H1295 0.950 . S
C1303 C1301 1.327 . S
C1304 C1292 1.349 . S
C1304 H1298 0.950 . S
C1304 C1305 1.327 . S
C1305 H1299 0.950 . S
C1305 C1304 1.327 . S
C1305 C1309 1.429 . S
C1306 C1289 1.574 . S
C1306 H1300 0.949 . S
C1306 C1310 1.368 . S
C1307 C1288 1.429 . S
C1307 C1301 1.429 . S
C1307 C1308 1.523 . S
C1308 C1289 1.368 . S
C1308 C1302 1.368 . S
C1308 C1307 1.523 . S
C1309 C1293 1.429 . S
C1309 C1305 1.429 . S
C1309 C1310 1.523 . S
C1310 C1294 1.368 . S
C1310 C1306 1.368 . S
C1310 C1309 1.523 . S
H1311 C1286 0.950 . S
H1312 C1288 0.950 . S
H1313 C1289 0.949 . S
H1314 C1291 0.950 . S
H1315 C1293 0.950 . S
C1316 C1317 1.347 1_554 S
C1316 C1318 1.331 . S
C1316 H1341 0.947 1_554 S
C1317 C1316 1.347 1_556 S
C1317 C1333 1.349 1_556 S
C1318 C1316 1.331 . S
C1318 C1337 1.429 . S
C1318 H1342 0.950 . S
C1319 C1336 1.574 . S
C1319 C1338 1.368 . S
C1319 H1343 0.949 . S
H1320 C1324 0.949 . S
C1321 C1322 1.349 . S
C1321 C1323 1.327 . S
C1321 H1344 0.950 . S
C1322 C1321 1.349 . S
C1322 C1334 1.349 . S
C1323 C1321 1.327 . S
C1323 C1339 1.429 . S
C1323 H1345 0.950 . S
C1324 H1320 0.949 . S
C1324 C1332 1.574 . S
C1324 C1340 1.368 . S
H1325 C1333 0.950 1_556 S
H1326 C1331 0.950 . S
H1327 C1332 0.949 . S
H1328 C1334 0.950 . S
H1329 C1335 0.950 . S
H1330 C1336 0.949 . S
C1331 H1326 0.950 . S
C1331 C1333 1.327 . S
C1331 C1337 1.429 . S
C1332 C1324 1.574 . S
C1332 H1327 0.949 . S
C1332 C1338 1.368 . S
C1333 C1317 1.349 1_554 S
C1333 H1325 0.950 1_554 S
C1333 C1331 1.327 . S
C1334 C1322 1.349 . S
C1334 H1328 0.950 . S
C1334 C1335 1.327 . S
C1335 H1329 0.950 . S
C1335 C1334 1.327 . S
C1335 C1339 1.429 . S
C1336 C1319 1.574 . S
C1336 H1330 0.949 . S
C1336 C1340 1.368 . S
C1337 C1318 1.429 . S
C1337 C1331 1.429 . S
C1337 C1338 1.523 . S
C1338 C1319 1.368 . S
C1338 C1332 1.368 . S
C1338 C1337 1.523 . S
C1339 C1323 1.429 . S
C1339 C1335 1.429 . S
C1339 C1340 1.523 . S
C1340 C1324 1.368 . S
C1340 C1336 1.368 . S
C1340 C1339 1.523 . S
H1341 C1316 0.947 1_556 S
H1342 C1318 0.950 . S
H1343 C1319 0.949 . S
H1344 C1321 0.950 . S
H1345 C1323 0.950 . S
C1346 C1347 1.349 . S
C1346 C1348 1.327 . S
C1346 H1371 0.950 . S
C1347 C1346 1.349 . S
C1347 C1363 1.349 . S
C1348 C1346 1.327 . S
C1348 C1367 1.429 . S
C1348 H1372 0.950 . S
C1349 C1366 1.574 . S
C1349 C1368 1.368 . S
C1349 H1373 0.949 . S
H1350 C1354 0.949 . S
C1351 C1352 1.349 1_556 S
C1351 C1353 1.327 . S
C1351 H1374 0.950 . S
C1352 C1351 1.349 1_554 S
C1352 C1364 1.349 . S
C1353 C1351 1.327 . S
C1353 C1369 1.429 . S
C1353 H1375 0.950 . S
C1354 H1350 0.949 . S
C1354 C1362 1.574 . S
C1354 C1370 1.368 . S
H1355 C1363 0.950 . S
H1356 C1361 0.950 . S
H1357 C1362 0.949 . S
H1358 C1364 0.950 . S
H1359 C1365 0.950 . S
H1360 C1366 0.949 . S
C1361 H1356 0.950 . S
C1361 C1363 1.327 . S
C1361 C1367 1.429 . S
C1362 C1354 1.574 . S
C1362 H1357 0.949 . S
C1362 C1368 1.368 . S
C1363 C1347 1.349 . S
C1363 H1355 0.950 . S
C1363 C1361 1.327 . S
C1364 C1352 1.349 . S
C1364 H1358 0.950 . S
C1364 C1365 1.327 1_554 S
C1365 H1359 0.950 . S
C1365 C1364 1.327 1_556 S
C1365 C1369 1.429 . S
C1366 C1349 1.574 . S
C1366 H1360 0.949 . S
C1366 C1370 1.368 . S
C1367 C1348 1.429 . S
C1367 C1361 1.429 . S
C1367 C1368 1.523 . S
C1368 C1349 1.368 . S
C1368 C1362 1.368 . S
C1368 C1367 1.523 . S
C1369 C1353 1.429 . S
C1369 C1365 1.429 . S
C1369 C1370 1.523 . S
C1370 C1354 1.368 . S
C1370 C1366 1.368 . S
C1370 C1369 1.523 . S
H1371 C1346 0.950 . S
H1372 C1348 0.950 . S
H1373 C1349 0.949 . S
H1374 C1351 0.950 . S
H1375 C1353 0.950 . S
C1376 C1377 1.349 . S
C1376 C1378 1.327 . S
C1376 H1401 0.950 . S
C1377 C1376 1.349 . S
C1377 C1393 1.349 . S
C1378 C1376 1.327 . S
C1378 C1397 1.429 . S
C1378 H1402 0.950 . S
C1379 C1396 1.574 . S
C1379 C1398 1.368 . S
C1379 H1403 0.949 . S
H1380 C1384 0.949 . S
C1381 C1382 1.349 . S
C1381 C1383 1.327 . S
C1381 H1404 0.950 . S
C1382 C1381 1.349 . S
C1382 C1394 1.349 . S
C1383 C1381 1.327 . S
C1383 C1399 1.429 . S
C1383 H1405 0.950 . S
C1384 H1380 0.949 . S
C1384 C1392 1.574 . S
C1384 C1400 1.368 . S
H1385 C1393 0.950 . S
H1386 C1391 0.950 . S
H1387 C1392 0.949 . S
H1388 C1394 0.950 . S
H1389 C1395 0.950 . S
H1390 C1396 0.949 . S
C1391 H1386 0.950 . S
C1391 C1393 1.327 . S
C1391 C1397 1.429 . S
C1392 C1384 1.574 . S
C1392 H1387 0.949 . S
C1392 C1398 1.368 . S
C1393 C1377 1.349 . S
C1393 H1385 0.950 . S
C1393 C1391 1.327 . S
C1394 C1382 1.349 . S
C1394 H1388 0.950 . S
C1394 C1395 1.327 . S
C1395 H1389 0.950 . S
C1395 C1394 1.327 . S
C1395 C1399 1.429 . S
C1396 C1379 1.574 . S
C1396 H1390 0.949 . S
C1396 C1400 1.368 . S
C1397 C1378 1.429 . S
C1397 C1391 1.429 . S
C1397 C1398 1.523 . S
C1398 C1379 1.368 . S
C1398 C1392 1.368 . S
C1398 C1397 1.523 . S
C1399 C1383 1.429 . S
C1399 C1395 1.429 . S
C1399 C1400 1.523 . S
C1400 C1384 1.368 . S
C1400 C1396 1.368 . S
C1400 C1399 1.523 . S
H1401 C1376 0.950 . S
H1402 C1378 0.950 . S
H1403 C1379 0.949 . S
H1404 C1381 0.950 . S
H1405 C1383 0.950 . S
C1406 C1407 1.349 . S
C1406 C1408 1.327 . S
C1406 H1431 0.950 . S
C1407 C1406 1.349 . S
C1407 C1423 1.349 . S
C1408 C1406 1.327 . S
C1408 C1427 1.429 . S
C1408 H1432 0.950 . S
C1409 C1426 1.574 1_655 S
C1409 C1428 1.368 . S
C1409 H1433 0.949 . S
H1410 C1414 0.949 . S
C1411 C1412 1.349 . S
C1411 C1413 1.327 . S
C1411 H1434 0.950 . S
C1412 C1411 1.349 . S
C1412 C1424 1.349 . S
C1413 C1411 1.327 . S
C1413 C1429 1.429 . S
C1413 H1435 0.950 . S
C1414 H1410 0.949 . S
C1414 C1422 1.574 1_455 S
C1414 C1430 1.368 . S
H1415 C1423 0.950 . S
H1416 C1421 0.950 . S
H1417 C1422 0.949 . S
H1418 C1424 0.950 . S
H1419 C1425 0.950 . S
H1420 C1426 0.949 . S
C1421 H1416 0.950 . S
C1421 C1423 1.327 . S
C1421 C1427 1.429 . S
C1422 C1414 1.574 1_655 S
C1422 H1417 0.949 . S
C1422 C1428 1.368 . S
C1423 C1407 1.349 . S
C1423 H1415 0.950 . S
C1423 C1421 1.327 . S
C1424 C1412 1.349 . S
C1424 H1418 0.950 . S
C1424 C1425 1.327 . S
C1425 H1419 0.950 . S
C1425 C1424 1.327 . S
C1425 C1429 1.429 . S
C1426 C1409 1.574 1_455 S
C1426 H1420 0.949 . S
C1426 C1430 1.368 . S
C1427 C1408 1.429 . S
C1427 C1421 1.429 . S
C1427 C1428 1.523 . S
C1428 C1409 1.368 . S
C1428 C1422 1.368 . S
C1428 C1427 1.523 . S
C1429 C1413 1.429 . S
C1429 C1425 1.429 . S
C1429 C1430 1.523 . S
C1430 C1414 1.368 . S
C1430 C1426 1.368 . S
C1430 C1429 1.523 . S
H1431 C1406 0.950 . S
H1432 C1408 0.950 . S
H1433 C1409 0.949 . S
H1434 C1411 0.950 . S
H1435 C1413 0.950 . S
C1436 C1437 1.349 . S
C1436 C1438 1.327 . S
C1436 H1461 0.950 . S
C1437 C1436 1.349 . S
C1437 C1453 1.349 . S
C1438 C1436 1.327 . S
C1438 C1457 1.429 . S
C1438 H1462 0.950 . S
C1439 C1456 1.574 . S
C1439 C1458 1.368 . S
C1439 H1463 0.949 . S
H1440 C1444 0.949 . S
C1441 C1442 1.349 . S
C1441 C1443 1.327 . S
C1441 H1464 0.950 . S
C1442 C1441 1.349 . S
C1442 C1454 1.349 . S
C1443 C1441 1.327 . S
C1443 C1459 1.429 . S
C1443 H1465 0.950 . S
C1444 H1440 0.949 . S
C1444 C1452 1.574 . S
C1444 C1460 1.368 . S
H1445 C1453 0.950 . S
H1446 C1451 0.950 . S
H1447 C1452 0.949 . S
H1448 C1454 0.950 . S
H1449 C1455 0.950 . S
H1450 C1456 0.949 . S
C1451 H1446 0.950 . S
C1451 C1453 1.327 . S
C1451 C1457 1.429 . S
C1452 C1444 1.574 . S
C1452 H1447 0.949 . S
C1452 C1458 1.368 . S
C1453 C1437 1.349 . S
C1453 H1445 0.950 . S
C1453 C1451 1.327 . S
C1454 C1442 1.349 . S
C1454 H1448 0.950 . S
C1454 C1455 1.327 . S
C1455 H1449 0.950 . S
C1455 C1454 1.327 . S
C1455 C1459 1.429 . S
C1456 C1439 1.574 . S
C1456 H1450 0.949 . S
C1456 C1460 1.368 . S
C1457 C1438 1.429 . S
C1457 C1451 1.429 . S
C1457 C1458 1.523 . S
C1458 C1439 1.368 . S
C1458 C1452 1.368 . S
C1458 C1457 1.523 . S
C1459 C1443 1.429 . S
C1459 C1455 1.429 . S
C1459 C1460 1.523 . S
C1460 C1444 1.368 . S
C1460 C1456 1.368 . S
C1460 C1459 1.523 . S
H1461 C1436 0.950 . S
H1462 C1438 0.950 . S
H1463 C1439 0.949 . S
H1464 C1441 0.950 . S
H1465 C1443 0.950 . S
C1466 C1467 1.349 . S
C1466 C1468 1.327 . S
C1466 H1491 0.950 . S
C1467 C1466 1.349 . S
C1467 C1483 1.349 . S
C1468 C1466 1.327 . S
C1468 C1487 1.429 . S
C1468 H1492 0.950 . S
C1469 C1486 1.574 . S
C1469 C1488 1.368 . S
C1469 H1493 0.949 . S
H1470 C1474 0.949 . S
C1471 C1472 1.349 . S
C1471 C1473 1.327 . S
C1471 H1494 0.950 . S
C1472 C1471 1.349 . S
C1472 C1484 1.349 . S
C1473 C1471 1.327 . S
C1473 C1489 1.429 . S
C1473 H1495 0.950 . S
C1474 H1470 0.949 . S
C1474 C1482 1.574 . S
C1474 C1490 1.368 . S
H1475 C1483 0.950 . S
H1476 C1481 0.950 . S
H1477 C1482 0.949 . S
H1478 C1484 0.950 . S
H1479 C1485 0.950 . S
H1480 C1486 0.949 . S
C1481 H1476 0.950 . S
C1481 C1483 1.327 . S
C1481 C1487 1.429 . S
C1482 C1474 1.574 . S
C1482 H1477 0.949 . S
C1482 C1488 1.368 . S
C1483 C1467 1.349 . S
C1483 H1475 0.950 . S
C1483 C1481 1.327 . S
C1484 C1472 1.349 . S
C1484 H1478 0.950 . S
C1484 C1485 1.327 . S
C1485 H1479 0.950 . S
C1485 C1484 1.327 . S
C1485 C1489 1.429 . S
C1486 C1469 1.574 . S
C1486 H1480 0.949 . S
C1486 C1490 1.368 . S
C1487 C1468 1.429 . S
C1487 C1481 1.429 . S
C1487 C1488 1.523 . S
C1488 C1469 1.368 . S
C1488 C1482 1.368 . S
C1488 C1487 1.523 . S
C1489 C1473 1.429 . S
C1489 C1485 1.429 . S
C1489 C1490 1.523 . S
C1490 C1474 1.368 . S
C1490 C1486 1.368 . S
C1490 C1489 1.523 . S
H1491 C1466 0.950 . S
H1492 C1468 0.950 . S
H1493 C1469 0.949 . S
H1494 C1471 0.950 . S
H1495 C1473 0.950 . S
C1496 C1497 1.349 . S
C1496 C1498 1.327 . S
C1496 H1521 0.950 . S
C1497 C1496 1.349 . S
C1497 C1513 1.349 . S
C1498 C1496 1.327 . S
C1498 C1517 1.429 . S
C1498 H1522 0.950 . S
C1499 C1516 1.574 . S
C1499 C1518 1.368 . S
C1499 H1523 0.949 . S
H1500 C1504 0.949 . S
C1501 C1502 1.349 . S
C1501 C1503 1.327 . S
C1501 H1524 0.950 . S
C1502 C1501 1.349 . S
C1502 C1514 1.349 . S
C1503 C1501 1.327 . S
C1503 C1519 1.429 . S
C1503 H1525 0.950 . S
C1504 H1500 0.949 . S
C1504 C1512 1.574 . S
C1504 C1520 1.368 . S
H1505 C1513 0.950 . S
H1506 C1511 0.950 . S
H1507 C1512 0.949 . S
H1508 C1514 0.950 . S
H1509 C1515 0.950 . S
H1510 C1516 0.949 . S
C1511 H1506 0.950 . S
C1511 C1513 1.327 . S
C1511 C1517 1.429 . S
C1512 C1504 1.574 . S
C1512 H1507 0.949 . S
C1512 C1518 1.368 . S
C1513 C1497 1.349 . S
C1513 H1505 0.950 . S
C1513 C1511 1.327 . S
C1514 C1502 1.349 . S
C1514 H1508 0.950 . S
C1514 C1515 1.327 . S
C1515 H1509 0.950 . S
C1515 C1514 1.327 . S
C1515 C1519 1.429 . S
C1516 C1499 1.574 . S
C1516 H1510 0.949 . S
C1516 C1520 1.368 . S
C1517 C1498 1.429 . S
C1517 C1511 1.429 . S
C1517 C1518 1.523 . S
C1518 C1499 1.368 . S
C1518 C1512 1.368 . S
C1518 C1517 1.523 . S
C1519 C1503 1.429 . S
C1519 C1515 1.429 . S
C1519 C1520 1.523 . S
C1520 C1504 1.368 . S
C1520 C1516 1.368 . S
C1520 C1519 1.523 . S
H1521 C1496 0.950 . S
H1522 C1498 0.950 . S
H1523 C1499 0.949 . S
H1524 C1501 0.950 . S
H1525 C1503 0.950 . S
C1526 C1527 1.349 . S
C1526 C1528 1.327 . S
C1526 H1551 0.950 . S
C1527 C1526 1.349 . S
C1527 C1543 1.349 . S
C1528 C1526 1.327 . S
C1528 C1547 1.429 . S
C1528 H1552 0.950 . S
C1529 C1546 1.574 . S
C1529 C1548 1.368 . S
C1529 H1553 0.949 . S
H1530 C1534 0.949 . S
C1531 C1532 1.349 . S
C1531 C1533 1.327 . S
C1531 H1554 0.950 . S
C1532 C1531 1.349 . S
C1532 C1544 1.349 . S
C1533 C1531 1.327 . S
C1533 C1549 1.429 . S
C1533 H1555 0.950 . S
C1534 H1530 0.949 . S
C1534 C1542 1.574 . S
C1534 C1550 1.368 . S
H1535 C1543 0.950 . S
H1536 C1541 0.950 . S
H1537 C1542 0.949 . S
H1538 C1544 0.950 . S
H1539 C1545 0.950 . S
H1540 C1546 0.949 . S
C1541 H1536 0.950 . S
C1541 C1543 1.327 . S
C1541 C1547 1.429 . S
C1542 C1534 1.574 . S
C1542 H1537 0.949 . S
C1542 C1548 1.368 . S
C1543 C1527 1.349 . S
C1543 H1535 0.950 . S
C1543 C1541 1.327 . S
C1544 C1532 1.349 . S
C1544 H1538 0.950 . S
C1544 C1545 1.327 . S
C1545 H1539 0.950 . S
C1545 C1544 1.327 . S
C1545 C1549 1.429 . S
C1546 C1529 1.574 . S
C1546 H1540 0.949 . S
C1546 C1550 1.368 . S
C1547 C1528 1.429 . S
C1547 C1541 1.429 . S
C1547 C1548 1.523 . S
C1548 C1529 1.368 . S
C1548 C1542 1.368 . S
C1548 C1547 1.523 . S
C1549 C1533 1.429 . S
C1549 C1545 1.429 . S
C1549 C1550 1.523 . S
C1550 C1534 1.368 . S
C1550 C1546 1.368 . S
C1550 C1549 1.523 . S
H1551 C1526 0.950 . S
H1552 C1528 0.950 . S
H1553 C1529 0.949 . S
H1554 C1531 0.950 . S
H1555 C1533 0.950 . S
C1556 C1557 1.349 . S
C1556 C1558 1.327 . S
C1556 H1581 0.950 . S
C1557 C1556 1.349 . S
C1557 C1573 1.349 . S
C1558 C1556 1.327 . S
C1558 C1577 1.429 . S
C1558 H1582 0.950 . S
C1559 C1576 1.574 . S
C1559 C1578 1.368 . S
C1559 H1583 0.949 . S
H1560 C1564 0.949 . S
C1561 C1562 1.349 . S
C1561 C1563 1.327 . S
C1561 H1584 0.950 . S
C1562 C1561 1.349 . S
C1562 C1574 1.349 . S
C1563 C1561 1.327 . S
C1563 C1579 1.429 . S
C1563 H1585 0.950 . S
C1564 H1560 0.949 . S
C1564 C1572 1.574 . S
C1564 C1580 1.368 . S
H1565 C1573 0.950 . S
H1566 C1571 0.950 . S
H1567 C1572 0.949 . S
H1568 C1574 0.950 . S
H1569 C1575 0.950 . S
H1570 C1576 0.949 . S
C1571 H1566 0.950 . S
C1571 C1573 1.327 . S
C1571 C1577 1.429 . S
C1572 C1564 1.574 . S
C1572 H1567 0.949 . S
C1572 C1578 1.368 . S
C1573 C1557 1.349 . S
C1573 H1565 0.950 . S
C1573 C1571 1.327 . S
C1574 C1562 1.349 . S
C1574 H1568 0.950 . S
C1574 C1575 1.327 . S
C1575 H1569 0.950 . S
C1575 C1574 1.327 . S
C1575 C1579 1.429 . S
C1576 C1559 1.574 . S
C1576 H1570 0.949 . S
C1576 C1580 1.368 . S
C1577 C1558 1.429 . S
C1577 C1571 1.429 . S
C1577 C1578 1.523 . S
C1578 C1559 1.368 . S
C1578 C1572 1.368 . S
C1578 C1577 1.523 . S
C1579 C1563 1.429 . S
C1579 C1575 1.429 . S
C1579 C1580 1.523 . S
C1580 C1564 1.368 . S
C1580 C1576 1.368 . S
C1580 C1579 1.523 . S
H1581 C1556 0.950 . S
H1582 C1558 0.950 . S
H1583 C1559 0.949 . S
H1584 C1561 0.950 . S
H1585 C1563 0.950 . S
C1586 C1587 1.349 . S
C1586 C1588 1.327 . S
C1586 H1611 0.950 . S
C1587 C1586 1.349 . S
C1587 C1603 1.349 . S
C1588 C1586 1.327 . S
C1588 C1607 1.429 . S
C1588 H1612 0.950 . S
C1589 C1606 1.574 1_655 S
C1589 C1608 1.368 . S
C1589 H1613 0.949 . S
H1590 C1594 0.949 . S
C1591 C1592 1.349 . S
C1591 C1593 1.327 . S
C1591 H1614 0.950 . S
C1592 C1591 1.349 . S
C1592 C1604 1.349 . S
C1593 C1591 1.327 . S
C1593 C1609 1.429 . S
C1593 H1615 0.950 . S
C1594 H1590 0.949 . S
C1594 C1602 1.574 1_455 S
C1594 C1610 1.368 . S
H1595 C1603 0.950 . S
H1596 C1601 0.950 . S
H1597 C1602 0.949 . S
H1598 C1604 0.950 . S
H1599 C1605 0.950 . S
H1600 C1606 0.949 . S
C1601 H1596 0.950 . S
C1601 C1603 1.327 . S
C1601 C1607 1.429 . S
C1602 C1594 1.574 1_655 S
C1602 H1597 0.949 . S
C1602 C1608 1.368 . S
C1603 C1587 1.349 . S
C1603 H1595 0.950 . S
C1603 C1601 1.327 . S
C1604 C1592 1.349 . S
C1604 H1598 0.950 . S
C1604 C1605 1.327 . S
C1605 H1599 0.950 . S
C1605 C1604 1.327 . S
C1605 C1609 1.429 . S
C1606 C1589 1.574 1_455 S
C1606 H1600 0.949 . S
C1606 C1610 1.368 . S
C1607 C1588 1.429 . S
C1607 C1601 1.429 . S
C1607 C1608 1.523 . S
C1608 C1589 1.368 . S
C1608 C1602 1.368 . S
C1608 C1607 1.523 . S
C1609 C1593 1.429 . S
C1609 C1605 1.429 . S
C1609 C1610 1.523 . S
C1610 C1594 1.368 . S
C1610 C1606 1.368 . S
C1610 C1609 1.523 . S
H1611 C1586 0.950 . S
H1612 C1588 0.950 . S
H1613 C1589 0.949 . S
H1614 C1591 0.950 . S
H1615 C1593 0.950 . S
C1616 C1617 1.349 . S
C1616 C1618 1.327 . S
C1616 H1641 0.950 . S
C1617 C1616 1.349 . S
C1617 C1633 1.349 . S
C1618 C1616 1.327 . S
C1618 C1637 1.429 . S
C1618 H1642 0.950 . S
C1619 C1636 1.574 . S
C1619 C1638 1.368 . S
C1619 H1643 0.949 . S
H1620 C1624 0.949 . S
C1621 C1622 1.349 . S
C1621 C1623 1.327 . S
C1621 H1644 0.950 . S
C1622 C1621 1.349 . S
C1622 C1634 1.349 . S
C1623 C1621 1.327 . S
C1623 C1639 1.429 . S
C1623 H1645 0.950 . S
C1624 H1620 0.949 . S
C1624 C1632 1.574 . S
C1624 C1640 1.368 . S
H1625 C1633 0.950 . S
H1626 C1631 0.950 . S
H1627 C1632 0.949 . S
H1628 C1634 0.950 . S
H1629 C1635 0.950 . S
H1630 C1636 0.949 . S
C1631 H1626 0.950 . S
C1631 C1633 1.327 . S
C1631 C1637 1.429 . S
C1632 C1624 1.574 . S
C1632 H1627 0.949 . S
C1632 C1638 1.368 . S
C1633 C1617 1.349 . S
C1633 H1625 0.950 . S
C1633 C1631 1.327 . S
C1634 C1622 1.349 . S
C1634 H1628 0.950 . S
C1634 C1635 1.327 . S
C1635 H1629 0.950 . S
C1635 C1634 1.327 . S
C1635 C1639 1.429 . S
C1636 C1619 1.574 . S
C1636 H1630 0.949 . S
C1636 C1640 1.368 . S
C1637 C1618 1.429 . S
C1637 C1631 1.429 . S
C1637 C1638 1.523 . S
C1638 C1619 1.368 . S
C1638 C1632 1.368 . S
C1638 C1637 1.523 . S
C1639 C1623 1.429 . S
C1639 C1635 1.429 . S
C1639 C1640 1.523 . S
C1640 C1624 1.368 . S
C1640 C1636 1.368 . S
C1640 C1639 1.523 . S
H1641 C1616 0.950 . S
H1642 C1618 0.950 . S
H1643 C1619 0.949 . S
H1644 C1621 0.950 . S
H1645 C1623 0.950 . S
C1646 C1647 1.349 . S
C1646 C1648 1.327 . S
C1646 H1671 0.950 . S
C1647 C1646 1.349 . S
C1647 C1663 1.349 . S
C1648 C1646 1.327 . S
C1648 C1667 1.429 . S
C1648 H1672 0.950 . S
C1649 C1666 1.574 . S
C1649 C1668 1.368 . S
C1649 H1673 0.949 . S
H1650 C1654 0.949 . S
C1651 C1652 1.349 . S
C1651 C1653 1.327 . S
C1651 H1674 0.950 . S
C1652 C1651 1.349 . S
C1652 C1664 1.349 . S
C1653 C1651 1.327 . S
C1653 C1669 1.429 . S
C1653 H1675 0.950 . S
C1654 H1650 0.949 . S
C1654 C1662 1.574 . S
C1654 C1670 1.368 . S
H1655 C1663 0.950 . S
H1656 C1661 0.950 . S
H1657 C1662 0.949 . S
H1658 C1664 0.950 . S
H1659 C1665 0.950 . S
H1660 C1666 0.949 . S
C1661 H1656 0.950 . S
C1661 C1663 1.327 . S
C1661 C1667 1.429 . S
C1662 C1654 1.574 . S
C1662 H1657 0.949 . S
C1662 C1668 1.368 . S
C1663 C1647 1.349 . S
C1663 H1655 0.950 . S
C1663 C1661 1.327 . S
C1664 C1652 1.349 . S
C1664 H1658 0.950 . S
C1664 C1665 1.327 . S
C1665 H1659 0.950 . S
C1665 C1664 1.327 . S
C1665 C1669 1.429 . S
C1666 C1649 1.574 . S
C1666 H1660 0.949 . S
C1666 C1670 1.368 . S
C1667 C1648 1.429 . S
C1667 C1661 1.429 . S
C1667 C1668 1.523 . S
C1668 C1649 1.368 . S
C1668 C1662 1.368 . S
C1668 C1667 1.523 . S
C1669 C1653 1.429 . S
C1669 C1665 1.429 . S
C1669 C1670 1.523 . S
C1670 C1654 1.368 . S
C1670 C1666 1.368 . S
C1670 C1669 1.523 . S
H1671 C1646 0.950 . S
H1672 C1648 0.950 . S
H1673 C1649 0.949 . S
H1674 C1651 0.950 . S
H1675 C1653 0.950 . S
C1676 C1677 1.349 . S
C1676 C1678 1.327 . S
C1676 H1701 0.950 . S
C1677 C1676 1.349 . S
C1677 C1693 1.349 . S
C1678 C1676 1.327 . S
C1678 C1697 1.429 . S
C1678 H1702 0.950 . S
C1679 C1696 1.574 . S
C1679 C1698 1.368 . S
C1679 H1703 0.949 . S
H1680 C1684 0.949 . S
C1681 C1682 1.349 . S
C1681 C1683 1.327 . S
C1681 H1704 0.950 . S
C1682 C1681 1.349 . S
C1682 C1694 1.349 . S
C1683 C1681 1.327 . S
C1683 C1699 1.429 . S
C1683 H1705 0.950 . S
C1684 H1680 0.949 . S
C1684 C1692 1.574 . S
C1684 C1700 1.368 . S
H1685 C1693 0.950 . S
H1686 C1691 0.950 . S
H1687 C1692 0.949 . S
H1688 C1694 0.950 . S
H1689 C1695 0.950 . S
H1690 C1696 0.949 . S
C1691 H1686 0.950 . S
C1691 C1693 1.327 . S
C1691 C1697 1.429 . S
C1692 C1684 1.574 . S
C1692 H1687 0.949 . S
C1692 C1698 1.368 . S
C1693 C1677 1.349 . S
C1693 H1685 0.950 . S
C1693 C1691 1.327 . S
C1694 C1682 1.349 . S
C1694 H1688 0.950 . S
C1694 C1695 1.327 . S
C1695 H1689 0.950 . S
C1695 C1694 1.327 . S
C1695 C1699 1.429 . S
C1696 C1679 1.574 . S
C1696 H1690 0.949 . S
C1696 C1700 1.368 . S
C1697 C1678 1.429 . S
C1697 C1691 1.429 . S
C1697 C1698 1.523 . S
C1698 C1679 1.368 . S
C1698 C1692 1.368 . S
C1698 C1697 1.523 . S
C1699 C1683 1.429 . S
C1699 C1695 1.429 . S
C1699 C1700 1.523 . S
C1700 C1684 1.368 . S
C1700 C1696 1.368 . S
C1700 C1699 1.523 . S
H1701 C1676 0.950 . S
H1702 C1678 0.950 . S
H1703 C1679 0.949 . S
H1704 C1681 0.950 . S
H1705 C1683 0.950 . S
C1706 C1707 1.349 . S
C1706 C1708 1.327 . S
C1706 H1731 0.950 . S
C1707 C1706 1.349 . S
C1707 C1723 1.349 . S
C1708 C1706 1.327 . S
C1708 C1727 1.429 . S
C1708 H1732 0.950 . S
C1709 C1726 1.574 . S
C1709 C1728 1.368 . S
C1709 H1733 0.949 . S
H1710 C1714 0.949 . S
C1711 C1712 1.349 . S
C1711 C1713 1.327 . S
C1711 H1734 0.950 . S
C1712 C1711 1.349 . S
C1712 C1724 1.349 . S
C1713 C1711 1.327 . S
C1713 C1729 1.429 . S
C1713 H1735 0.950 . S
C1714 H1710 0.949 . S
C1714 C1722 1.574 . S
C1714 C1730 1.368 . S
H1715 C1723 0.950 . S
H1716 C1721 0.950 . S
H1717 C1722 0.949 . S
H1718 C1724 0.950 . S
H1719 C1725 0.950 . S
H1720 C1726 0.949 . S
C1721 H1716 0.950 . S
C1721 C1723 1.327 . S
C1721 C1727 1.429 . S
C1722 C1714 1.574 . S
C1722 H1717 0.949 . S
C1722 C1728 1.368 . S
C1723 C1707 1.349 . S
C1723 H1715 0.950 . S
C1723 C1721 1.327 . S
C1724 C1712 1.349 . S
C1724 H1718 0.950 . S
C1724 C1725 1.327 . S
C1725 H1719 0.950 . S
C1725 C1724 1.327 . S
C1725 C1729 1.429 . S
C1726 C1709 1.574 . S
C1726 H1720 0.949 . S
C1726 C1730 1.368 . S
C1727 C1708 1.429 . S
C1727 C1721 1.429 . S
C1727 C1728 1.523 . S
C1728 C1709 1.368 . S
C1728 C1722 1.368 . S
C1728 C1727 1.523 . S
C1729 C1713 1.429 . S
C1729 C1725 1.429 . S
C1729 C1730 1.523 . S
C1730 C1714 1.368 . S
C1730 C1726 1.368 . S
C1730 C1729 1.523 . S
H1731 C1706 0.950 . S
H1732 C1708 0.950 . S
H1733 C1709 0.949 . S
H1734 C1711 0.950 . S
H1735 C1713 0.950 . S
C1736 C1737 1.349 . S
C1736 C1738 1.327 . S
C1736 H1761 0.950 . S
C1737 C1736 1.349 . S
C1737 C1753 1.349 . S
C1738 C1736 1.327 . S
C1738 C1757 1.429 . S
C1738 H1762 0.950 . S
C1739 C1756 1.574 . S
C1739 C1758 1.368 . S
C1739 H1763 0.949 . S
H1740 C1744 0.949 . S
C1741 C1742 1.349 . S
C1741 C1743 1.327 . S
C1741 H1764 0.950 . S
C1742 C1741 1.349 . S
C1742 C1754 1.349 . S
C1743 C1741 1.327 . S
C1743 C1759 1.429 . S
C1743 H1765 0.950 . S
C1744 H1740 0.949 . S
C1744 C1752 1.574 . S
C1744 C1760 1.368 . S
H1745 C1753 0.950 . S
H1746 C1751 0.950 . S
H1747 C1752 0.949 . S
H1748 C1754 0.950 . S
H1749 C1755 0.950 . S
H1750 C1756 0.949 . S
C1751 H1746 0.950 . S
C1751 C1753 1.327 . S
C1751 C1757 1.429 . S
C1752 C1744 1.574 . S
C1752 H1747 0.949 . S
C1752 C1758 1.368 . S
C1753 C1737 1.349 . S
C1753 H1745 0.950 . S
C1753 C1751 1.327 . S
C1754 C1742 1.349 . S
C1754 H1748 0.950 . S
C1754 C1755 1.327 . S
C1755 H1749 0.950 . S
C1755 C1754 1.327 . S
C1755 C1759 1.429 . S
C1756 C1739 1.574 . S
C1756 H1750 0.949 . S
C1756 C1760 1.368 . S
C1757 C1738 1.429 . S
C1757 C1751 1.429 . S
C1757 C1758 1.523 . S
C1758 C1739 1.368 . S
C1758 C1752 1.368 . S
C1758 C1757 1.523 . S
C1759 C1743 1.429 . S
C1759 C1755 1.429 . S
C1759 C1760 1.523 . S
C1760 C1744 1.368 . S
C1760 C1756 1.368 . S
C1760 C1759 1.523 . S
H1761 C1736 0.950 . S
H1762 C1738 0.950 . S
H1763 C1739 0.949 . S
H1764 C1741 0.950 . S
H1765 C1743 0.950 . S
C1766 C1767 1.349 . S
C1766 C1768 1.327 . S
C1766 H1791 0.950 . S
C1767 C1766 1.349 . S
C1767 C1783 1.349 . S
C1768 C1766 1.327 . S
C1768 C1787 1.429 . S
C1768 H1792 0.950 . S
C1769 C1786 1.574 1_655 S
C1769 C1788 1.368 . S
C1769 H1793 0.949 . S
H1770 C1774 0.949 . S
C1771 C1772 1.349 . S
C1771 C1773 1.327 . S
C1771 H1794 0.950 . S
C1772 C1771 1.349 . S
C1772 C1784 1.349 . S
C1773 C1771 1.327 . S
C1773 C1789 1.429 . S
C1773 H1795 0.950 . S
C1774 H1770 0.949 . S
C1774 C1782 1.574 1_455 S
C1774 C1790 1.368 . S
H1775 C1783 0.950 . S
H1776 C1781 0.950 . S
H1777 C1782 0.949 . S
H1778 C1784 0.950 . S
H1779 C1785 0.950 . S
H1780 C1786 0.949 . S
C1781 H1776 0.950 . S
C1781 C1783 1.327 . S
C1781 C1787 1.429 . S
C1782 C1774 1.574 1_655 S
C1782 H1777 0.949 . S
C1782 C1788 1.368 . S
C1783 C1767 1.349 . S
C1783 H1775 0.950 . S
C1783 C1781 1.327 . S
C1784 C1772 1.349 . S
C1784 H1778 0.950 . S
C1784 C1785 1.327 . S
C1785 H1779 0.950 . S
C1785 C1784 1.327 . S
C1785 C1789 1.429 . S
C1786 C1769 1.574 1_455 S
C1786 H1780 0.949 . S
C1786 C1790 1.368 . S
C1787 C1768 1.429 . S
C1787 C1781 1.429 . S
C1787 C1788 1.523 . S
C1788 C1769 1.368 . S
C1788 C1782 1.368 . S
C1788 C1787 1.523 . S
C1789 C1773 1.429 . S
C1789 C1785 1.429 . S
C1789 C1790 1.523 . S
C1790 C1774 1.368 . S
C1790 C1786 1.368 . S
C1790 C1789 1.523 . S
H1791 C1766 0.950 . S
H1792 C1768 0.950 . S
H1793 C1769 0.949 . S
H1794 C1771 0.950 . S
H1795 C1773 0.950 . S
C1796 C1797 1.349 . S
C1796 C1798 1.327 . S
C1796 H1821 0.950 . S
C1797 C1796 1.349 . S
C1797 C1813 1.349 . S
C1798 C1796 1.327 . S
C1798 C1817 1.429 . S
C1798 H1822 0.950 . S
C1799 C1816 1.574 1_655 S
C1799 C1818 1.368 . S
C1799 H1823 0.949 . S
H1800 C1804 0.949 . S
C1801 C1802 1.349 . S
C1801 C1803 1.327 . S
C1801 H1824 0.950 . S
C1802 C1801 1.349 . S
C1802 C1814 1.349 . S
C1803 C1801 1.327 . S
C1803 C1819 1.429 . S
C1803 H1825 0.950 . S
C1804 H1800 0.949 . S
C1804 C1812 1.574 1_455 S
C1804 C1820 1.368 . S
H1805 C1813 0.950 . S
H1806 C1811 0.950 . S
H1807 C1812 0.949 . S
H1808 C1814 0.950 . S
H1809 C1815 0.950 . S
H1810 C1816 0.949 . S
C1811 H1806 0.950 . S
C1811 C1813 1.327 . S
C1811 C1817 1.429 . S
C1812 C1804 1.574 1_655 S
C1812 H1807 0.949 . S
C1812 C1818 1.368 . S
C1813 C1797 1.349 . S
C1813 H1805 0.950 . S
C1813 C1811 1.327 . S
C1814 C1802 1.349 . S
C1814 H1808 0.950 . S
C1814 C1815 1.327 . S
C1815 H1809 0.950 . S
C1815 C1814 1.327 . S
C1815 C1819 1.429 . S
C1816 C1799 1.574 1_455 S
C1816 H1810 0.949 . S
C1816 C1820 1.368 . S
C1817 C1798 1.429 . S
C1817 C1811 1.429 . S
C1817 C1818 1.523 . S
C1818 C1799 1.368 . S
C1818 C1812 1.368 . S
C1818 C1817 1.523 . S
C1819 C1803 1.429 . S
C1819 C1815 1.429 . S
C1819 C1820 1.523 . S
C1820 C1804 1.368 . S
C1820 C1816 1.368 . S
C1820 C1819 1.523 . S
H1821 C1796 0.950 . S
H1822 C1798 0.950 . S
H1823 C1799 0.949 . S
H1824 C1801 0.950 . S
H1825 C1803 0.950 . S
C1826 C1827 1.349 . S
C1826 C1828 1.327 . S
C1826 H1851 0.950 . S
C1827 C1826 1.349 . S
C1827 C1843 1.349 . S
C1828 C1826 1.327 . S
C1828 C1847 1.429 . S
C1828 H1852 0.950 . S
C1829 C1846 1.574 . S
C1829 C1848 1.368 . S
C1829 H1853 0.949 . S
H1830 C1834 0.949 . S
C1831 C1832 1.349 . S
C1831 C1833 1.327 . S
C1831 H1854 0.950 . S
C1832 C1831 1.349 . S
C1832 C1844 1.349 . S
C1833 C1831 1.327 . S
C1833 C1849 1.429 . S
C1833 H1855 0.950 . S
C1834 H1830 0.949 . S
C1834 C1842 1.574 . S
C1834 C1850 1.368 . S
H1835 C1843 0.950 . S
H1836 C1841 0.950 . S
H1837 C1842 0.949 . S
H1838 C1844 0.950 . S
H1839 C1845 0.950 . S
H1840 C1846 0.949 . S
C1841 H1836 0.950 . S
C1841 C1843 1.327 . S
C1841 C1847 1.429 . S
C1842 C1834 1.574 . S
C1842 H1837 0.949 . S
C1842 C1848 1.368 . S
C1843 C1827 1.349 . S
C1843 H1835 0.950 . S
C1843 C1841 1.327 . S
C1844 C1832 1.349 . S
C1844 H1838 0.950 . S
C1844 C1845 1.327 . S
C1845 H1839 0.950 . S
C1845 C1844 1.327 . S
C1845 C1849 1.429 . S
C1846 C1829 1.574 . S
C1846 H1840 0.949 . S
C1846 C1850 1.368 . S
C1847 C1828 1.429 . S
C1847 C1841 1.429 . S
C1847 C1848 1.523 . S
C1848 C1829 1.368 . S
C1848 C1842 1.368 . S
C1848 C1847 1.523 . S
C1849 C1833 1.429 . S
C1849 C1845 1.429 . S
C1849 C1850 1.523 . S
C1850 C1834 1.368 . S
C1850 C1846 1.368 . S
C1850 C1849 1.523 . S
H1851 C1826 0.950 . S
H1852 C1828 0.950 . S
H1853 C1829 0.949 . S
H1854 C1831 0.950 . S
H1855 C1833 0.950 . S
C1856 C1857 1.349 . S
C1856 C1858 1.327 . S
C1856 H1881 0.950 . S
C1857 C1856 1.349 . S
C1857 C1873 1.349 . S
C1858 C1856 1.327 . S
C1858 C1877 1.429 . S
C1858 H1882 0.950 . S
C1859 C1876 1.574 . S
C1859 C1878 1.368 . S
C1859 H1883 0.949 . S
H1860 C1864 0.949 . S
C1861 C1862 1.349 . S
C1861 C1863 1.327 . S
C1861 H1884 0.950 . S
C1862 C1861 1.349 . S
C1862 C1874 1.349 . S
C1863 C1861 1.327 . S
C1863 C1879 1.429 . S
C1863 H1885 0.950 . S
C1864 H1860 0.949 . S
C1864 C1872 1.574 . S
C1864 C1880 1.368 . S
H1865 C1873 0.950 . S
H1866 C1871 0.950 . S
H1867 C1872 0.949 . S
H1868 C1874 0.950 . S
H1869 C1875 0.950 . S
H1870 C1876 0.949 . S
C1871 H1866 0.950 . S
C1871 C1873 1.327 . S
C1871 C1877 1.429 . S
C1872 C1864 1.574 . S
C1872 H1867 0.949 . S
C1872 C1878 1.368 . S
C1873 C1857 1.349 . S
C1873 H1865 0.950 . S
C1873 C1871 1.327 . S
C1874 C1862 1.349 . S
C1874 H1868 0.950 . S
C1874 C1875 1.327 . S
C1875 H1869 0.950 . S
C1875 C1874 1.327 . S
C1875 C1879 1.429 . S
C1876 C1859 1.574 . S
C1876 H1870 0.949 . S
C1876 C1880 1.368 . S
C1877 C1858 1.429 . S
C1877 C1871 1.429 . S
C1877 C1878 1.523 . S
C1878 C1859 1.368 . S
C1878 C1872 1.368 . S
C1878 C1877 1.523 . S
C1879 C1863 1.429 . S
C1879 C1875 1.429 . S
C1879 C1880 1.523 . S
C1880 C1864 1.368 . S
C1880 C1876 1.368 . S
C1880 C1879 1.523 . S
H1881 C1856 0.950 . S
H1882 C1858 0.950 . S
H1883 C1859 0.949 . S
H1884 C1861 0.950 . S
H1885 C1863 0.950 . S
C1886 C1887 1.349 . S
C1886 C1888 1.327 . S
C1886 H1911 0.950 . S
C1887 C1886 1.349 . S
C1887 C1903 1.349 . S
C1888 C1886 1.327 . S
C1888 C1907 1.429 . S
C1888 H1912 0.950 . S
C1889 C1906 1.574 . S
C1889 C1908 1.368 . S
C1889 H1913 0.949 . S
H1890 C1894 0.949 . S
C1891 C1892 1.349 . S
C1891 C1893 1.327 . S
C1891 H1914 0.950 . S
C1892 C1891 1.349 . S
C1892 C1904 1.349 . S
C1893 C1891 1.327 . S
C1893 C1909 1.429 . S
C1893 H1915 0.950 . S
C1894 H1890 0.949 . S
C1894 C1902 1.574 . S
C1894 C1910 1.368 . S
H1895 C1903 0.950 . S
H1896 C1901 0.950 . S
H1897 C1902 0.949 . S
H1898 C1904 0.950 . S
H1899 C1905 0.950 . S
H1900 C1906 0.949 . S
C1901 H1896 0.950 . S
C1901 C1903 1.327 . S
C1901 C1907 1.429 . S
C1902 C1894 1.574 . S
C1902 H1897 0.949 . S
C1902 C1908 1.368 . S
C1903 C1887 1.349 . S
C1903 H1895 0.950 . S
C1903 C1901 1.327 . S
C1904 C1892 1.349 . S
C1904 H1898 0.950 . S
C1904 C1905 1.327 . S
C1905 H1899 0.950 . S
C1905 C1904 1.327 . S
C1905 C1909 1.429 . S
C1906 C1889 1.574 . S
C1906 H1900 0.949 . S
C1906 C1910 1.368 . S
C1907 C1888 1.429 . S
C1907 C1901 1.429 . S
C1907 C1908 1.523 . S
C1908 C1889 1.368 . S
C1908 C1902 1.368 . S
C1908 C1907 1.523 . S
C1909 C1893 1.429 . S
C1909 C1905 1.429 . S
C1909 C1910 1.523 . S
C1910 C1894 1.368 . S
C1910 C1906 1.368 . S
C1910 C1909 1.523 . S
H1911 C1886 0.950 . S
H1912 C1888 0.950 . S
H1913 C1889 0.949 . S
H1914 C1891 0.950 . S
H1915 C1893 0.950 . S
C1916 C1917 1.349 . S
C1916 C1918 1.327 . S
C1916 H1941 0.950 . S
C1917 C1916 1.349 . S
C1917 C1933 1.349 1_554 S
C1918 C1916 1.327 . S
C1918 C1937 1.429 1_554 S
C1918 H1942 0.950 . S
C1919 C1936 1.574 . S
C1919 C1938 1.368 . S
C1919 H1943 0.949 . S
H1920 C1924 0.949 . S
C1921 C1922 1.349 . S
C1921 C1923 1.327 . S
C1921 H1944 0.950 . S
C1922 C1921 1.349 . S
C1922 C1934 1.349 . S
C1923 C1921 1.327 . S
C1923 C1939 1.429 . S
C1923 H1945 0.950 . S
C1924 H1920 0.949 . S
C1924 C1932 1.574 . S
C1924 C1940 1.368 . S
H1925 C1933 0.950 . S
H1926 C1931 0.950 . S
H1927 C1932 0.949 . S
H1928 C1934 0.950 . S
H1929 C1935 0.950 . S
H1930 C1936 0.949 . S
C1931 H1926 0.950 . S
C1931 C1933 1.327 . S
C1931 C1937 1.429 . S
C1932 C1924 1.574 . S
C1932 H1927 0.949 . S
C1932 C1938 1.368 . S
C1933 C1917 1.349 1_556 S
C1933 H1925 0.950 . S
C1933 C1931 1.327 . S
C1934 C1922 1.349 . S
C1934 H1928 0.950 . S
C1934 C1935 1.327 . S
C1935 H1929 0.950 . S
C1935 C1934 1.327 . S
C1935 C1939 1.429 . S
C1936 C1919 1.574 . S
C1936 H1930 0.949 . S
C1936 C1940 1.368 . S
C1937 C1918 1.429 1_556 S
C1937 C1931 1.429 . S
C1937 C1938 1.523 . S
C1938 C1919 1.368 . S
C1938 C1932 1.368 . S
C1938 C1937 1.523 . S
C1939 C1923 1.429 . S
C1939 C1935 1.429 . S
C1939 C1940 1.523 . S
C1940 C1924 1.368 . S
C1940 C1936 1.368 . S
C1940 C1939 1.523 . S
H1941 C1916 0.950 . S
H1942 C1918 0.950 . S
H1943 C1919 0.949 . S
H1944 C1921 0.950 . S
H1945 C1923 0.950 . S
C1946 C1947 1.349 . S
C1946 C1948 1.327 1_556 S
C1946 H1971 0.950 . S
C1947 C1946 1.349 . S
C1947 C1963 1.348 1_556 S
C1948 C1946 1.327 1_554 S
C1948 C1967 1.429 . S
C1948 H1972 0.950 . S
C1949 C1966 1.574 . S
C1949 C1968 1.368 . S
C1949 H1973 0.949 . S
H1950 C1954 0.949 . S
C1951 C1952 1.349 . S
C1951 C1953 1.327 . S
C1951 H1974 0.950 . S
C1952 C1951 1.349 . S
C1952 C1964 1.349 . S
C1953 C1951 1.327 . S
C1953 C1969 1.429 . S
C1953 H1975 0.950 . S
C1954 H1950 0.949 . S
C1954 C1962 1.574 . S
C1954 C1970 1.368 . S
H1955 C1963 0.949 1_556 S
H1956 C1961 0.950 . S
H1957 C1962 0.949 . S
H1958 C1964 0.950 . S
H1959 C1965 0.950 . S
H1960 C1966 0.949 . S
C1961 H1956 0.950 . S
C1961 C1963 1.329 . S
C1961 C1967 1.429 . S
C1962 C1954 1.574 . S
C1962 H1957 0.949 . S
C1962 C1968 1.368 . S
C1963 C1947 1.348 1_554 S
C1963 H1955 0.949 1_554 S
C1963 C1961 1.329 . S
C1964 C1952 1.349 . S
C1964 H1958 0.950 . S
C1964 C1965 1.327 . S
C1965 H1959 0.950 . S
C1965 C1964 1.327 . S
C1965 C1969 1.429 . S
C1966 C1949 1.574 . S
C1966 H1960 0.949 . S
C1966 C1970 1.368 . S
C1967 C1948 1.429 . S
C1967 C1961 1.429 . S
C1967 C1968 1.523 . S
C1968 C1949 1.368 . S
C1968 C1962 1.368 . S
C1968 C1967 1.523 . S
C1969 C1953 1.429 . S
C1969 C1965 1.429 . S
C1969 C1970 1.523 . S
C1970 C1954 1.368 . S
C1970 C1966 1.368 . S
C1970 C1969 1.523 . S
H1971 C1946 0.950 . S
H1972 C1948 0.950 . S
H1973 C1949 0.949 . S
H1974 C1951 0.950 . S
H1975 C1953 0.950 . S
C1976 C1977 1.349 . S
C1976 C1978 1.327 . S
C1976 H2001 0.950 . S
C1977 C1976 1.349 . S
C1977 C1993 1.349 . S
C1978 C1976 1.327 . S
C1978 C1997 1.429 . S
C1978 H2002 0.950 . S
C1979 C1996 1.574 . S
C1979 C1998 1.368 . S
C1979 H2003 0.949 . S
H1980 C1984 0.949 . S
C1981 C1982 1.349 . S
C1981 C1983 1.327 . S
C1981 H2004 0.950 . S
C1982 C1981 1.349 . S
C1982 C1994 1.349 . S
C1983 C1981 1.327 . S
C1983 C1999 1.429 . S
C1983 H2005 0.950 . S
C1984 H1980 0.949 . S
C1984 C1992 1.574 . S
C1984 C2000 1.368 . S
H1985 C1993 0.950 . S
H1986 C1991 0.950 . S
H1987 C1992 0.949 . S
H1988 C1994 0.950 . S
H1989 C1995 0.950 . S
H1990 C1996 0.949 . S
C1991 H1986 0.950 . S
C1991 C1993 1.327 . S
C1991 C1997 1.429 . S
C1992 C1984 1.574 . S
C1992 H1987 0.949 . S
C1992 C1998 1.368 . S
C1993 C1977 1.349 . S
C1993 H1985 0.950 . S
C1993 C1991 1.327 . S
C1994 C1982 1.349 . S
C1994 H1988 0.950 . S
C1994 C1995 1.327 . S
C1995 H1989 0.950 . S
C1995 C1994 1.327 . S
C1995 C1999 1.429 . S
C1996 C1979 1.574 . S
C1996 H1990 0.949 . S
C1996 C2000 1.368 . S
C1997 C1978 1.429 . S
C1997 C1991 1.429 . S
C1997 C1998 1.523 . S
C1998 C1979 1.368 . S
C1998 C1992 1.368 . S
C1998 C1997 1.523 . S
C1999 C1983 1.429 . S
C1999 C1995 1.429 . S
C1999 C2000 1.523 . S
C2000 C1984 1.368 . S
C2000 C1996 1.368 . S
C2000 C1999 1.523 . S
H2001 C1976 0.950 . S
H2002 C1978 0.950 . S
H2003 C1979 0.949 . S
H2004 C1981 0.950 . S
H2005 C1983 0.950 . S
C2006 C2007 1.349 . S
C2006 C2008 1.327 . S
C2006 H2031 0.950 . S
C2007 C2006 1.349 . S
C2007 C2023 1.349 . S
C2008 C2006 1.327 . S
C2008 C2027 1.429 . S
C2008 H2032 0.950 . S
C2009 C2026 1.574 . S
C2009 C2028 1.368 . S
C2009 H2033 0.949 . S
H2010 C2014 0.949 . S
C2011 C2012 1.349 . S
C2011 C2013 1.327 . S
C2011 H2034 0.950 . S
C2012 C2011 1.349 . S
C2012 C2024 1.349 . S
C2013 C2011 1.327 . S
C2013 C2029 1.429 . S
C2013 H2035 0.950 . S
C2014 H2010 0.949 . S
C2014 C2022 1.574 . S
C2014 C2030 1.368 . S
H2015 C2023 0.950 . S
H2016 C2021 0.950 . S
H2017 C2022 0.949 . S
H2018 C2024 0.950 . S
H2019 C2025 0.950 . S
H2020 C2026 0.949 . S
C2021 H2016 0.950 . S
C2021 C2023 1.327 . S
C2021 C2027 1.429 . S
C2022 C2014 1.574 . S
C2022 H2017 0.949 . S
C2022 C2028 1.368 . S
C2023 C2007 1.349 . S
C2023 H2015 0.950 . S
C2023 C2021 1.327 . S
C2024 C2012 1.349 . S
C2024 H2018 0.950 . S
C2024 C2025 1.327 . S
C2025 H2019 0.950 . S
C2025 C2024 1.327 . S
C2025 C2029 1.429 . S
C2026 C2009 1.574 . S
C2026 H2020 0.949 . S
C2026 C2030 1.368 . S
C2027 C2008 1.429 . S
C2027 C2021 1.429 . S
C2027 C2028 1.523 . S
C2028 C2009 1.368 . S
C2028 C2022 1.368 . S
C2028 C2027 1.523 . S
C2029 C2013 1.429 . S
C2029 C2025 1.429 . S
C2029 C2030 1.523 . S
C2030 C2014 1.368 . S
C2030 C2026 1.368 . S
C2030 C2029 1.523 . S
H2031 C2006 0.950 . S
H2032 C2008 0.950 . S
H2033 C2009 0.949 . S
H2034 C2011 0.950 . S
H2035 C2013 0.950 . S
C2036 C2037 1.349 . S
C2036 C2038 1.327 . S
C2036 H2061 0.950 . S
C2037 C2036 1.349 . S
C2037 C2053 1.349 . S
C2038 C2036 1.327 . S
C2038 C2057 1.429 . S
C2038 H2062 0.950 . S
C2039 C2056 1.574 . S
C2039 C2058 1.368 . S
C2039 H2063 0.949 . S
H2040 C2044 0.949 . S
C2041 C2042 1.349 . S
C2041 C2043 1.332 . S
C2041 H2064 0.950 . S
C2042 C2041 1.349 . S
C2042 C2054 1.349 1_556 S
C2043 C2041 1.332 . S
C2043 C2059 1.422 1_556 S
C2043 H2065 0.952 . S
C2044 H2040 0.949 . S
C2044 C2052 1.574 . S
C2044 C2060 1.368 . S
H2045 C2053 0.950 . S
H2046 C2051 0.950 . S
H2047 C2052 0.949 . S
H2048 C2054 0.950 . S
H2049 C2055 0.950 . S
H2050 C2056 0.949 . S
C2051 H2046 0.950 . S
C2051 C2053 1.327 . S
C2051 C2057 1.429 . S
C2052 C2044 1.574 . S
C2052 H2047 0.949 . S
C2052 C2058 1.368 . S
C2053 C2037 1.349 . S
C2053 H2045 0.950 . S
C2053 C2051 1.327 . S
C2054 C2042 1.349 1_554 S
C2054 H2048 0.950 . S
C2054 C2055 1.327 . S
C2055 H2049 0.950 . S
C2055 C2054 1.327 . S
C2055 C2059 1.429 . S
C2056 C2039 1.574 . S
C2056 H2050 0.949 . S
C2056 C2060 1.368 . S
C2057 C2038 1.429 . S
C2057 C2051 1.429 . S
C2057 C2058 1.523 . S
C2058 C2039 1.368 . S
C2058 C2052 1.368 . S
C2058 C2057 1.523 . S
C2059 C2043 1.422 1_554 S
C2059 C2055 1.429 . S
C2059 C2060 1.523 . S
C2060 C2044 1.368 . S
C2060 C2056 1.368 . S
C2060 C2059 1.523 . S
H2061 C2036 0.950 . S
H2062 C2038 0.950 . S
H2063 C2039 0.949 . S
H2064 C2041 0.950 . S
H2065 C2043 0.952 . S
C2066 C2067 1.349 . S
C2066 C2068 1.327 . S
C2066 H2091 0.950 . S
C2067 C2066 1.349 . S
C2067 C2083 1.349 . S
C2068 C2066 1.327 . S
C2068 C2087 1.429 . S
C2068 H2092 0.950 . S
C2069 C2086 1.574 . S
C2069 C2088 1.368 . S
C2069 H2093 0.949 . S
H2070 C2074 0.949 . S
C2071 C2072 1.349 1_556 S
C2071 C2073 1.327 . S
C2071 H2094 0.950 . S
C2072 C2071 1.349 1_554 S
C2072 C2084 1.349 . S
C2073 C2071 1.327 . S
C2073 C2089 1.429 . S
C2073 H2095 0.950 . S
C2074 H2070 0.949 . S
C2074 C2082 1.574 . S
C2074 C2090 1.368 . S
H2075 C2083 0.950 . S
H2076 C2081 0.950 . S
H2077 C2082 0.949 . S
H2078 C2084 0.950 . S
H2079 C2085 0.949 1_554 S
H2080 C2086 0.949 . S
C2081 H2076 0.950 . S
C2081 C2083 1.327 . S
C2081 C2087 1.429 . S
C2082 C2074 1.574 . S
C2082 H2077 0.949 . S
C2082 C2088 1.368 . S
C2083 C2067 1.349 . S
C2083 H2075 0.950 . S
C2083 C2081 1.327 . S
C2084 C2072 1.349 . S
C2084 H2078 0.950 . S
C2084 C2085 1.326 1_554 S
C2085 H2079 0.949 1_556 S
C2085 C2084 1.326 1_556 S
C2085 C2089 1.429 . S
C2086 C2069 1.574 . S
C2086 H2080 0.949 . S
C2086 C2090 1.368 . S
C2087 C2068 1.429 . S
C2087 C2081 1.429 . S
C2087 C2088 1.523 . S
C2088 C2069 1.368 . S
C2088 C2082 1.368 . S
C2088 C2087 1.523 . S
C2089 C2073 1.429 . S
C2089 C2085 1.429 . S
C2089 C2090 1.523 . S
C2090 C2074 1.368 . S
C2090 C2086 1.368 . S
C2090 C2089 1.523 . S
H2091 C2066 0.950 . S
H2092 C2068 0.950 . S
H2093 C2069 0.949 . S
H2094 C2071 0.950 . S
H2095 C2073 0.950 . S
C2096 C2097 1.349 . S
C2096 C2098 1.327 1_554 S
C2096 H2121 0.950 . S
C2097 C2096 1.349 . S
C2097 C2113 1.349 1_554 S
C2098 C2096 1.327 1_556 S
C2098 C2117 1.429 . S
C2098 H2122 0.950 . S
C2099 C2116 1.574 . S
C2099 C2118 1.368 . S
C2099 H2123 0.949 . S
H2100 C2104 0.949 . S
C2101 C2102 1.349 . S
C2101 C2103 1.327 . S
C2101 H2124 0.950 . S
C2102 C2101 1.349 . S
C2102 C2114 1.349 . S
C2103 C2101 1.327 . S
C2103 C2119 1.429 . S
C2103 H2125 0.950 . S
C2104 H2100 0.949 . S
C2104 C2112 1.574 . S
C2104 C2120 1.368 . S
H2105 C2113 0.950 1_554 S
H2106 C2111 0.950 . S
H2107 C2112 0.949 . S
H2108 C2114 0.950 . S
H2109 C2115 0.950 . S
H2110 C2116 0.949 . S
C2111 H2106 0.950 . S
C2111 C2113 1.327 . S
C2111 C2117 1.429 . S
C2112 C2104 1.574 . S
C2112 H2107 0.949 . S
C2112 C2118 1.368 . S
C2113 C2097 1.349 1_556 S
C2113 H2105 0.950 1_556 S
C2113 C2111 1.327 . S
C2114 C2102 1.349 . S
C2114 H2108 0.950 . S
C2114 C2115 1.327 . S
C2115 H2109 0.950 . S
C2115 C2114 1.327 . S
C2115 C2119 1.429 . S
C2116 C2099 1.574 . S
C2116 H2110 0.949 . S
C2116 C2120 1.368 . S
C2117 C2098 1.429 . S
C2117 C2111 1.429 . S
C2117 C2118 1.523 . S
C2118 C2099 1.368 . S
C2118 C2112 1.368 . S
C2118 C2117 1.523 . S
C2119 C2103 1.429 . S
C2119 C2115 1.429 . S
C2119 C2120 1.523 . S
C2120 C2104 1.368 . S
C2120 C2116 1.368 . S
C2120 C2119 1.523 . S
H2121 C2096 0.950 . S
H2122 C2098 0.950 . S
H2123 C2099 0.949 . S
H2124 C2101 0.950 . S
H2125 C2103 0.950 . S
C2126 C2127 1.349 . S
C2126 C2128 1.327 . S
C2126 H2151 0.950 . S
C2127 C2126 1.349 . S
C2127 C2143 1.349 . S
C2128 C2126 1.327 . S
C2128 C2147 1.429 . S
C2128 H2152 0.950 . S
C2129 C2146 1.574 . S
C2129 C2148 1.368 . S
C2129 H2153 0.949 . S
H2130 C2134 0.949 . S
C2131 C2132 1.349 . S
C2131 C2133 1.327 1_556 S
C2131 H2154 0.950 . S
C2132 C2131 1.349 . S
C2132 C2144 1.349 1_556 S
C2133 C2131 1.327 1_554 S
C2133 C2149 1.429 . S
C2133 H2155 0.950 1_554 S
C2134 H2130 0.949 . S
C2134 C2142 1.574 . S
C2134 C2150 1.368 . S
H2135 C2143 0.950 . S
H2136 C2141 0.950 . S
H2137 C2142 0.949 . S
H2138 C2144 0.950 . S
H2139 C2145 0.950 . S
H2140 C2146 0.949 . S
C2141 H2136 0.950 . S
C2141 C2143 1.327 . S
C2141 C2147 1.429 . S
C2142 C2134 1.574 . S
C2142 H2137 0.949 . S
C2142 C2148 1.368 . S
C2143 C2127 1.349 . S
C2143 H2135 0.950 . S
C2143 C2141 1.327 . S
C2144 C2132 1.349 1_554 S
C2144 H2138 0.950 . S
C2144 C2145 1.327 . S
C2145 H2139 0.950 . S
C2145 C2144 1.327 . S
C2145 C2149 1.429 . S
C2146 C2129 1.574 . S
C2146 H2140 0.949 . S
C2146 C2150 1.368 . S
C2147 C2128 1.429 . S
C2147 C2141 1.429 . S
C2147 C2148 1.523 . S
C2148 C2129 1.368 . S
C2148 C2142 1.368 . S
C2148 C2147 1.523 . S
C2149 C2133 1.429 . S
C2149 C2145 1.429 . S
C2149 C2150 1.523 . S
C2150 C2134 1.368 . S
C2150 C2146 1.368 . S
C2150 C2149 1.523 . S
H2151 C2126 0.950 . S
H2152 C2128 0.950 . S
H2153 C2129 0.949 . S
H2154 C2131 0.950 . S
H2155 C2133 0.950 1_556 S
C2156 C2157 1.349 . S
C2156 C2158 1.327 . S
C2156 H2181 0.950 . S
C2157 C2156 1.349 . S
C2157 C2173 1.349 . S
C2158 C2156 1.327 . S
C2158 C2177 1.429 . S
C2158 H2182 0.950 . S
C2159 C2176 1.574 . S
C2159 C2178 1.368 . S
C2159 H2183 0.949 . S
H2160 C2164 0.949 . S
C2161 C2162 1.349 . S
C2161 C2163 1.327 . S
C2161 H2184 0.950 . S
C2162 C2161 1.349 . S
C2162 C2174 1.349 . S
C2163 C2161 1.327 . S
C2163 C2179 1.429 . S
C2163 H2185 0.950 . S
C2164 H2160 0.949 . S
C2164 C2172 1.574 . S
C2164 C2180 1.368 . S
H2165 C2173 0.950 . S
H2166 C2171 0.950 . S
H2167 C2172 0.949 . S
H2168 C2174 0.950 . S
H2169 C2175 0.950 . S
H2170 C2176 0.949 . S
C2171 H2166 0.950 . S
C2171 C2173 1.327 . S
C2171 C2177 1.429 . S
C2172 C2164 1.574 . S
C2172 H2167 0.949 . S
C2172 C2178 1.368 . S
C2173 C2157 1.349 . S
C2173 H2165 0.950 . S
C2173 C2171 1.327 . S
C2174 C2162 1.349 . S
C2174 H2168 0.950 . S
C2174 C2175 1.327 . S
C2175 H2169 0.950 . S
C2175 C2174 1.327 . S
C2175 C2179 1.429 . S
C2176 C2159 1.574 . S
C2176 H2170 0.949 . S
C2176 C2180 1.368 . S
C2177 C2158 1.429 . S
C2177 C2171 1.429 . S
C2177 C2178 1.523 . S
C2178 C2159 1.368 . S
C2178 C2172 1.368 . S
C2178 C2177 1.523 . S
C2179 C2163 1.429 . S
C2179 C2175 1.429 . S
C2179 C2180 1.523 . S
C2180 C2164 1.368 . S
C2180 C2176 1.368 . S
C2180 C2179 1.523 . S
H2181 C2156 0.950 . S
H2182 C2158 0.950 . S
H2183 C2159 0.949 . S
H2184 C2161 0.950 . S
H2185 C2163 0.950 . S
C2186 C2187 1.349 . S
C2186 C2188 1.327 . S
C2186 H2211 0.950 . S
C2187 C2186 1.349 . S
C2187 C2203 1.349 . S
C2188 C2186 1.327 . S
C2188 C2207 1.429 . S
C2188 H2212 0.950 . S
C2189 C2206 1.574 . S
C2189 C2208 1.368 . S
C2189 H2213 0.949 . S
H2190 C2194 0.949 . S
C2191 C2192 1.349 . S
C2191 C2193 1.327 . S
C2191 H2214 0.950 . S
C2192 C2191 1.349 . S
C2192 C2204 1.349 . S
C2193 C2191 1.327 . S
C2193 C2209 1.429 . S
C2193 H2215 0.950 . S
C2194 H2190 0.949 . S
C2194 C2202 1.574 . S
C2194 C2210 1.368 . S
H2195 C2203 0.950 . S
H2196 C2201 0.950 . S
H2197 C2202 0.949 . S
H2198 C2204 0.950 . S
H2199 C2205 0.950 . S
H2200 C2206 0.949 . S
C2201 H2196 0.950 . S
C2201 C2203 1.327 . S
C2201 C2207 1.429 . S
C2202 C2194 1.574 . S
C2202 H2197 0.949 . S
C2202 C2208 1.368 . S
C2203 C2187 1.349 . S
C2203 H2195 0.950 . S
C2203 C2201 1.327 . S
C2204 C2192 1.349 . S
C2204 H2198 0.950 . S
C2204 C2205 1.327 . S
C2205 H2199 0.950 . S
C2205 C2204 1.327 . S
C2205 C2209 1.429 . S
C2206 C2189 1.574 . S
C2206 H2200 0.949 . S
C2206 C2210 1.368 . S
C2207 C2188 1.429 . S
C2207 C2201 1.429 . S
C2207 C2208 1.523 . S
C2208 C2189 1.368 . S
C2208 C2202 1.368 . S
C2208 C2207 1.523 . S
C2209 C2193 1.429 . S
C2209 C2205 1.429 . S
C2209 C2210 1.523 . S
C2210 C2194 1.368 . S
C2210 C2206 1.368 . S
C2210 C2209 1.523 . S
H2211 C2186 0.950 . S
H2212 C2188 0.950 . S
H2213 C2189 0.949 . S
H2214 C2191 0.950 . S
H2215 C2193 0.950 . S
C2216 C2217 1.349 . S
C2216 C2218 1.327 . S
C2216 H2241 0.950 . S
C2217 C2216 1.349 . S
C2217 C2233 1.349 . S
C2218 C2216 1.327 . S
C2218 C2237 1.429 . S
C2218 H2242 0.950 . S
C2219 C2236 1.574 . S
C2219 C2238 1.368 . S
C2219 H2243 0.949 . S
H2220 C2224 0.949 . S
C2221 C2222 1.349 . S
C2221 C2223 1.316 1_556 S
C2221 H2244 0.950 . S
C2222 C2221 1.349 . S
C2222 C2234 1.349 1_556 S
C2223 C2221 1.316 1_554 S
C2223 C2239 1.444 . S
C2223 H2245 0.946 1_554 S
C2224 H2220 0.949 . S
C2224 C2232 1.574 . S
C2224 C2240 1.368 . S
H2225 C2233 0.950 . S
H2226 C2231 0.950 . S
H2227 C2232 0.949 . S
H2228 C2234 0.950 . S
H2229 C2235 0.950 . S
H2230 C2236 0.949 . S
C2231 H2226 0.950 . S
C2231 C2233 1.327 . S
C2231 C2237 1.429 . S
C2232 C2224 1.574 . S
C2232 H2227 0.949 . S
C2232 C2238 1.368 . S
C2233 C2217 1.349 . S
C2233 H2225 0.950 . S
C2233 C2231 1.327 . S
C2234 C2222 1.349 1_554 S
C2234 H2228 0.950 . S
C2234 C2235 1.327 . S
C2235 H2229 0.950 . S
C2235 C2234 1.327 . S
C2235 C2239 1.429 . S
C2236 C2219 1.574 . S
C2236 H2230 0.949 . S
C2236 C2240 1.368 . S
C2237 C2218 1.429 . S
C2237 C2231 1.429 . S
C2237 C2238 1.523 . S
C2238 C2219 1.368 . S
C2238 C2232 1.368 . S
C2238 C2237 1.523 . S
C2239 C2223 1.444 . S
C2239 C2235 1.429 . S
C2239 C2240 1.523 . S
C2240 C2224 1.368 . S
C2240 C2236 1.368 . S
C2240 C2239 1.523 . S
H2241 C2216 0.950 . S
H2242 C2218 0.950 . S
H2243 C2219 0.949 . S
H2244 C2221 0.950 . S
H2245 C2223 0.946 1_556 S
C2246 C2247 1.349 . S
C2246 C2248 1.327 1_554 S
C2246 H2271 0.950 . S
C2247 C2246 1.349 . S
C2247 C2263 1.349 1_554 S
C2248 C2246 1.327 1_556 S
C2248 C2267 1.429 . S
C2248 H2272 0.950 . S
C2249 C2266 1.574 . S
C2249 C2268 1.368 . S
C2249 H2273 0.949 . S
H2250 C2254 0.949 . S
C2251 C2252 1.349 . S
C2251 C2253 1.327 . S
C2251 H2274 0.950 . S
C2252 C2251 1.349 . S
C2252 C2264 1.349 . S
C2253 C2251 1.327 . S
C2253 C2269 1.429 . S
C2253 H2275 0.950 . S
C2254 H2250 0.949 . S
C2254 C2262 1.574 . S
C2254 C2270 1.368 . S
H2255 C2263 0.950 . S
H2256 C2261 0.950 . S
H2257 C2262 0.949 . S
H2258 C2264 0.950 . S
H2259 C2265 0.950 . S
H2260 C2266 0.949 . S
C2261 H2256 0.950 . S
C2261 C2263 1.327 . S
C2261 C2267 1.429 . S
C2262 C2254 1.574 . S
C2262 H2257 0.949 . S
C2262 C2268 1.368 . S
C2263 C2247 1.349 1_556 S
C2263 H2255 0.950 . S
C2263 C2261 1.327 . S
C2264 C2252 1.349 . S
C2264 H2258 0.950 . S
C2264 C2265 1.327 . S
C2265 H2259 0.950 . S
C2265 C2264 1.327 . S
C2265 C2269 1.429 . S
C2266 C2249 1.574 . S
C2266 H2260 0.949 . S
C2266 C2270 1.368 . S
C2267 C2248 1.429 . S
C2267 C2261 1.429 . S
C2267 C2268 1.523 . S
C2268 C2249 1.368 . S
C2268 C2262 1.368 . S
C2268 C2267 1.523 . S
C2269 C2253 1.429 . S
C2269 C2265 1.429 . S
C2269 C2270 1.523 . S
C2270 C2254 1.368 . S
C2270 C2266 1.368 . S
C2270 C2269 1.523 . S
H2271 C2246 0.950 . S
H2272 C2248 0.950 . S
H2273 C2249 0.949 . S
H2274 C2251 0.950 . S
H2275 C2253 0.950 . S
C2276 C2277 1.349 . S
C2276 C2278 1.327 . S
C2276 H2301 0.950 . S
C2277 C2276 1.349 . S
C2277 C2293 1.349 . S
C2278 C2276 1.327 . S
C2278 C2297 1.429 . S
C2278 H2302 0.950 . S
C2279 C2296 1.574 . S
C2279 C2298 1.368 . S
C2279 H2303 0.949 . S
H2280 C2284 0.949 . S
C2281 C2282 1.349 . S
C2281 C2283 1.327 . S
C2281 H2304 0.950 . S
C2282 C2281 1.349 . S
C2282 C2294 1.349 . S
C2283 C2281 1.327 . S
C2283 C2299 1.429 . S
C2283 H2305 0.950 . S
C2284 H2280 0.949 . S
C2284 C2292 1.574 . S
C2284 C2300 1.368 . S
H2285 C2293 0.950 . S
H2286 C2291 0.950 . S
H2287 C2292 0.949 . S
H2288 C2294 0.950 . S
H2289 C2295 0.950 . S
H2290 C2296 0.949 . S
C2291 H2286 0.950 . S
C2291 C2293 1.327 . S
C2291 C2297 1.429 . S
C2292 C2284 1.574 . S
C2292 H2287 0.949 . S
C2292 C2298 1.368 . S
C2293 C2277 1.349 . S
C2293 H2285 0.950 . S
C2293 C2291 1.327 . S
C2294 C2282 1.349 . S
C2294 H2288 0.950 . S
C2294 C2295 1.327 . S
C2295 H2289 0.950 . S
C2295 C2294 1.327 . S
C2295 C2299 1.429 . S
C2296 C2279 1.574 . S
C2296 H2290 0.949 . S
C2296 C2300 1.368 . S
C2297 C2278 1.429 . S
C2297 C2291 1.429 . S
C2297 C2298 1.523 . S
C2298 C2279 1.368 . S
C2298 C2292 1.368 . S
C2298 C2297 1.523 . S
C2299 C2283 1.429 . S
C2299 C2295 1.429 . S
C2299 C2300 1.523 . S
C2300 C2284 1.368 . S
C2300 C2296 1.368 . S
C2300 C2299 1.523 . S
H2301 C2276 0.950 . S
H2302 C2278 0.950 . S
H2303 C2279 0.949 . S
H2304 C2281 0.950 . S
H2305 C2283 0.950 . S
C2306 C2307 1.349 . S
C2306 C2308 1.327 . S
C2306 H2331 0.950 . S
C2307 C2306 1.349 . S
C2307 C2323 1.349 . S
C2308 C2306 1.327 . S
C2308 C2327 1.429 . S
C2308 H2332 0.950 . S
C2309 C2326 1.574 . S
C2309 C2328 1.368 . S
C2309 H2333 0.949 . S
H2310 C2314 0.949 . S
C2311 C2312 1.349 . S
C2311 C2313 1.327 . S
C2311 H2334 0.950 . S
C2312 C2311 1.349 . S
C2312 C2324 1.349 . S
C2313 C2311 1.327 . S
C2313 C2329 1.429 . S
C2313 H2335 0.950 . S
C2314 H2310 0.949 . S
C2314 C2322 1.574 . S
C2314 C2330 1.368 . S
H2315 C2323 0.950 . S
H2316 C2321 0.950 . S
H2317 C2322 0.949 . S
H2318 C2324 0.950 . S
H2319 C2325 0.950 . S
H2320 C2326 0.949 . S
C2321 H2316 0.950 . S
C2321 C2323 1.327 . S
C2321 C2327 1.429 . S
C2322 C2314 1.574 . S
C2322 H2317 0.949 . S
C2322 C2328 1.368 . S
C2323 C2307 1.349 . S
C2323 H2315 0.950 . S
C2323 C2321 1.327 . S
C2324 C2312 1.349 . S
C2324 H2318 0.950 . S
C2324 C2325 1.327 . S
C2325 H2319 0.950 . S
C2325 C2324 1.327 . S
C2325 C2329 1.429 . S
C2326 C2309 1.574 . S
C2326 H2320 0.949 . S
C2326 C2330 1.368 . S
C2327 C2308 1.429 . S
C2327 C2321 1.429 . S
C2327 C2328 1.523 . S
C2328 C2309 1.368 . S
C2328 C2322 1.368 . S
C2328 C2327 1.523 . S
C2329 C2313 1.429 . S
C2329 C2325 1.429 . S
C2329 C2330 1.523 . S
C2330 C2314 1.368 . S
C2330 C2326 1.368 . S
C2330 C2329 1.523 . S
H2331 C2306 0.950 . S
H2332 C2308 0.950 . S
H2333 C2309 0.949 . S
H2334 C2311 0.950 . S
H2335 C2313 0.950 . S
C417 C81 1.570 . S
C422 C3 1.570 . S
C447 C16 1.570 . S
C452 C94 1.570 . S
C477 C57 1.570 . S
C482 C29 1.570 . S
C507 C42 1.570 . S
C512 C70 1.570 . S
C537 C107 1.570 . S
C542 C187 1.570 . S
C567 C200 1.570 . S
C572 C122 1.570 . S
C597 C133 1.570 . S
C602 C161 1.570 . S
C627 C172 1.570 . S
C632 C146 1.570 . S
C657 C211 1.570 . S
C662 C291 1.570 . S
C687 C226 1.570 . S
C692 C304 1.570 . S
C717 C265 1.570 . S
C722 C239 1.570 . S
C747 C276 1.570 . S
C752 C250 1.570 . S
C777 C315 1.570 . S
C782 C395 1.570 . S
C807 C328 1.570 . S
C812 C408 1.570 . S
C837 C367 1.570 . S
C842 C341 1.570 . S
C867 C354 1.570 . S
C872 C380 1.570 . S
C897 C10 1.616 . S
C902 C101 1.616 . S
C927 C56 1.616 . S
C932 C23 1.616 . S
C957 C69 1.616 . S
C962 C36 1.616 . S
C987 C49 1.616 . S
C992 C88 1.616 . S
C1017 C114 1.616 . S
C1022 C199 1.616 . S
C1047 C160 1.616 . S
C1052 C121 1.616 . S
C1077 C179 1.616 . S
C1082 C140 1.616 . S
C1107 C186 1.616 . S
C1112 C153 1.616 . S
C1137 C218 1.616 . S
C1142 C303 1.616 . S
C1167 C225 1.616 . S
C1172 C264 1.616 . S
C1197 C283 1.616 . S
C1202 C238 1.616 . S
C1227 C257 1.616 . S
C1232 C290 1.616 . S
C1257 C322 1.616 . S
C1262 C407 1.616 . S
C1287 C374 1.616 . S
C1292 C335 1.616 . S
C1317 C348 1.616 . S
C1322 C387 1.616 . S
C1347 C361 1.616 . S
C1352 C394 1.616 . S
C1377 C393 1.556 . S
C1382 C5 1.556 . S
C1407 C198 1.556 . S
C1412 C18 1.556 . S
C1437 C31 1.556 . S
C1442 C369 1.556 . S
C1467 C44 1.556 . S
C1472 C174 1.556 . S
C1497 C55 1.556 . S
C1502 C343 1.556 . S
C1527 C68 1.556 . S
C1532 C148 1.556 . S
C1557 C83 1.556 . S
C1562 C317 1.556 . S
C1587 C120 1.556 . S
C1592 C96 1.556 . S
C1617 C289 1.556 . S
C1622 C109 1.556 . S
C1647 C135 1.556 . S
C1652 C263 1.556 . S
C1677 C237 1.556 . S
C1682 C159 1.556 . S
C1707 C213 1.556 . S
C1712 C185 1.556 . S
C1737 C224 1.556 . S
C1742 C406 1.556 . S
C1767 C252 1.556 . S
C1772 C382 1.556 . S
C1797 C278 1.556 . S
C1802 C356 1.556 . S
C1827 C330 1.556 . S
C1832 C302 1.556 . S
C1857 C4 1.419 . S
C1862 C95 1.419 . S
C1887 C17 1.419 . S
C1892 C62 1.419 . S
C1917 C75 1.419 . S
C1922 C30 1.419 . S
C1947 C43 1.419 . S
C1952 C82 1.419 . S
C1977 C205 1.419 . S
C1982 C108 1.419 . S
C2007 C166 1.419 . S
C2012 C127 1.419 . S
C2037 C134 1.419 . S
C2042 C173 1.419 . S
C2067 C192 1.419 . S
C2072 C147 1.419 . S
C2097 C309 1.419 . S
C2102 C212 1.419 . S
C2127 C270 1.419 . S
C2132 C231 1.419 . S
C2157 C277 1.419 . S
C2162 C244 1.419 . S
C2187 C296 1.419 . S
C2192 C251 1.419 . S
C2217 C316 1.419 . S
C2222 C413 1.419 . S
C2247 C329 1.419 . S
C2252 C368 1.419 . S
C2277 C342 1.419 . S
C2282 C381 1.419 . S
C2307 C400 1.419 . S
C2312 C355 1.419 . S
