# Generated by pormake.
# Topology ilc, (8)-cn, num edge types: 1
# Building blocks:
#     Node 0, Type 0, BuildingBlock: OLANEW_clean_sbu_1, # of connection points: 8
#     Node 1, Type 0, BuildingBlock: OLANEW_clean_sbu_1, # of connection points: 8
#     Node 2, Type 0, BuildingBlock: OLANEW_clean_sbu_1, # of connection points: 8
#     Edge 3, Type (0, 0), BuildingBlock: XIVTED_clean_linker_0, # of connection points: 2
#     Edge 4, Type (0, 0), BuildingBlock: XIVTED_clean_linker_0, # of connection points: 2
#     Edge 5, Type (0, 0), BuildingBlock: XIVTED_clean_linker_0, # of connection points: 2
#     Edge 6, Type (0, 0), BuildingBlock: XIVTED_clean_linker_0, # of connection points: 2
#     Edge 7, Type (0, 0), BuildingBlock: XIVTED_clean_linker_0, # of connection points: 2
#     Edge 8, Type (0, 0), BuildingBlock: XIVTED_clean_linker_0, # of connection points: 2
#     Edge 9, Type (0, 0), BuildingBlock: XIVTED_clean_linker_0, # of connection points: 2
#     Edge 10, Type (0, 0), BuildingBlock: XIVTED_clean_linker_0, # of connection points: 2
#     Edge 11, Type (0, 0), BuildingBlock: XIVTED_clean_linker_0, # of connection points: 2
#     Edge 12, Type (0, 0), BuildingBlock: XIVTED_clean_linker_0, # of connection points: 2
#     Edge 13, Type (0, 0), BuildingBlock: XIVTED_clean_linker_0, # of connection points: 2
#     Edge 14, Type (0, 0), BuildingBlock: XIVTED_clean_linker_0, # of connection points: 2
# Relax obj value: 0.104
# Max RMSD: 0.126
# Mean RMSD: 0.126
data_MOF--net-ilc--node1-OLANEW_clean_sbu_1--edge1-XIVTED_clean_linker_0
_symmetry_space_group_name_H-M    P1
_symmetry_Int_Tables_number       1
_symmetry_cell_setting            triclinic
loop_
_symmetry_equiv_pos_as_xyz
'x, y, z'
_cell_length_a     18.053279
_cell_length_b     27.381112
_cell_length_c     23.752817
_cell_angle_alpha  115.58815
_cell_angle_beta   86.571914
_cell_angle_gamma 141.16225
loop_
_atom_site_label
_atom_site_type_symbol
_atom_site_fract_x
_atom_site_fract_y
_atom_site_fract_z
_atom_type_partial_charge
Cd0 Cd 0.84344 0.73954 0.0925 0.0
Cd1 Cd 0.87008 0.91821 0.01411 0.0
C2 C 0.15853 0.17848 0.09183 0.0
Cd3 Cd 0.07394 0.20532 0.84995 0.0
Cd4 Cd 0.21828 0.12669 0.96878 0.0
C5 C 0.89649 0.20896 0.91159 0.0
O6 O 0.84956 0.20782 0.95627 0.0
O7 O 0.83562 0.82393 0.08976 0.0
O8 O 0.83177 0.90792 0.11222 0.0
O9 O 0.92542 0.07922 0.72265 0.0
O10 O 0.24525 0.22862 0.07331 0.0
O11 O 0.0691 0.08688 0.05203 0.0
C12 C 0.18932 0.14446 0.8408 0.0
O13 O 0.95544 0.19975 0.91387 0.0
C14 C 0.90112 0.78505 0.24451 0.0
O15 O 0.79335 0.68834 0.20127 0.0
O16 O 0.15266 0.16836 0.87322 0.0
O17 O 0.22092 0.12691 0.86565 0.0
C18 C 0.93742 0.86673 0.89476 0.0
O19 O 0.9539 0.83032 0.21808 0.0
O20 O 0.85045 0.81815 0.91394 0.0
O21 O 0.02416 0.95756 0.9314 0.0
C22 C 0.82319 0.86517 0.12775 0.0
O23 O 0.97554 0.75382 0.03862 0.0
C24 C 0.95289 0.10738 0.68467 0.0
O25 O 0.04098 0.19969 0.71613 0.0
C26 C 0.05543 0.76644 0.06022 0.0
O27 O 0.10552 0.76079 0.02045 0.0
Cd28 Cd 0.64438 0.24983 0.55243 0.0
Cd29 Cd 0.50419 0.24124 0.33915 0.0
C30 C 0.85014 0.5075 0.43837 0.0
Cd31 Cd 0.85088 0.53725 0.15643 0.0
Cd32 Cd 0.88688 0.43644 0.30628 0.0
C33 C 0.61005 0.4865 0.16047 0.0
O34 O 0.53659 0.47349 0.18941 0.0
O35 O 0.53114 0.22513 0.46561 0.0
O36 O 0.39729 0.20024 0.41565 0.0
O37 O 0.72991 0.41813 0.02766 0.0
O38 O 0.94427 0.55168 0.42185 0.0
O39 O 0.73943 0.41356 0.39367 0.0
C40 C 0.95783 0.48744 0.18978 0.0
O41 O 0.6993 0.51135 0.1921 0.0
C42 C 0.55526 0.07211 0.51384 0.0
O43 O 0.54041 0.01043 0.47995 0.0
O44 O 0.90503 0.50166 0.20681 0.0
O45 O 0.96957 0.4633 0.21949 0.0
C46 C 0.54883 0.17513 0.21246 0.0
O47 O 0.58594 0.11749 0.49101 0.0
O48 O 0.45125 0.12667 0.226 0.0
O49 O 0.65459 0.26882 0.25835 0.0
C50 C 0.43671 0.2025 0.46065 0.0
O51 O 0.88738 0.39857 0.59758 0.0
C52 C 0.66707 0.33559 -0.00241 0.0
O53 O 0.66711 0.31379 0.03717 0.0
C54 C 0.97323 0.42436 0.63525 0.0
O55 O 0.09974 0.49982 0.65016 0.0
Cd56 Cd 0.25228 0.41049 0.7639 0.0
Cd57 Cd 0.39289 0.65602 0.73906 0.0
C58 C 0.45944 0.82603 0.74899 0.0
Cd59 Cd 0.44913 0.88827 0.50121 0.0
Cd60 Cd 0.39778 0.72112 0.5874 0.0
C61 C 0.21132 0.84259 0.50664 0.0
O62 O 0.14688 0.83946 0.53838 0.0
O63 O 0.27562 0.51975 0.78543 0.0
O64 O 0.2907 0.61527 0.81425 0.0
O65 O 0.39229 0.81995 0.37926 0.0
O66 O 0.46483 0.84087 0.70389 0.0
O67 O 0.43356 0.76125 0.73069 0.0
C68 C 0.53206 0.80789 0.50107 0.0
O69 O 0.28601 0.85339 0.53326 0.0
C70 C 0.44321 0.56135 0.92706 0.0
O71 O 0.50319 0.61277 0.903 0.0
O72 O 0.48776 0.82852 0.52299 0.0
O73 O 0.52393 0.76875 0.5217 0.0
C74 C 0.30757 0.54325 0.57607 0.0
O75 O 0.33775 0.46803 0.88243 0.0
O76 O 0.30282 0.52578 0.61891 0.0
O77 O 0.34671 0.61531 0.60067 0.0
C78 C 0.26056 0.55949 0.82234 0.0
O79 O 0.393 0.43413 0.71191 0.0
C80 C 0.32538 0.73542 0.34257 0.0
O81 O 0.27992 0.69088 0.37142 0.0
C82 C 0.47726 0.44963 0.73199 0.0
O83 O 0.54155 0.46024 0.69633 0.0
H84 H 0.02441 0.15409 0.59393 0.0
H85 H 0.78989 0.71069 0.31784 0.0
H86 H 0.82629 0.93261 0.61679 0.0
H87 H 0.08667 0.97945 0.34026 0.0
H88 H 0.80039 0.78809 0.42747 0.0
H89 H 0.02888 0.07998 0.49264 0.0
C90 C 0.97981 0.08891 0.57691 0.0
C91 C 0.926 0.04995 0.61412 0.0
C92 C 0.86461 0.83038 0.40878 0.0
C93 C 0.93489 0.96713 0.50021 0.0
C94 C 0.85936 0.78658 0.34663 0.0
C95 C 0.93469 0.83787 0.31906 0.0
C96 C 0.94381 0.92489 0.44216 0.0
C97 C 0.02439 0.93636 0.35877 0.0
C98 C 0.98438 0.04766 0.5199 0.0
C99 C 0.86936 0.9653 0.58973 0.0
N100 N 0.02406 0.97594 0.41755 0.0
N101 N 0.87637 0.92707 0.5345 0.0
H102 H 0.48511 0.13358 0.56707 0.0
H103 H 0.58515 0.17949 0.91774 0.0
H104 H 0.58627 0.04834 0.60688 0.0
H105 H 0.6125 0.34289 0.89955 0.0
H106 H 0.5198 0.09011 0.79088 0.0
H107 H 0.47689 0.1764 0.6778 0.0
C108 C 0.50582 0.12411 0.59918 0.0
C109 C 0.54019 0.09031 0.57852 0.0
C110 C 0.53825 0.14454 0.81463 0.0
C111 C 0.52151 0.13217 0.70362 0.0
C112 C 0.57529 0.19542 0.88685 0.0
C113 C 0.6074 0.27032 0.91949 0.0
C114 C 0.53397 0.1693 0.77538 0.0
C115 C 0.59191 0.28742 0.87695 0.0
C116 C 0.49793 0.14625 0.66171 0.0
C117 C 0.55906 0.07412 0.62059 0.0
N118 N 0.55792 0.23818 0.80733 0.0
N119 N 0.54985 0.0955 0.68148 0.0
H120 H 0.53411 0.72013 0.00921 0.0
H121 H 0.27231 0.59463 0.27414 0.0
H122 H 0.3819 0.49462 0.00392 0.0
H123 H 0.39541 0.80239 0.26501 0.0
H124 H 0.3208 0.56129 0.17877 0.0
H125 H 0.50331 0.76167 0.11114 0.0
C126 C 0.49833 0.68154 0.03108 0.0
C127 C 0.46136 0.60443 -0.00121 0.0
C128 C 0.33638 0.61371 0.19741 0.0
C129 C 0.4215 0.64906 0.1135 0.0
C130 C 0.30729 0.63191 0.25119 0.0
C131 C 0.33036 0.70151 0.27739 0.0
C132 C 0.38785 0.66512 0.16969 0.0
C133 C 0.37699 0.74852 0.24644 0.0
C134 C 0.4784 0.70403 0.08842 0.0
C135 C 0.41224 0.55503 0.02793 0.0
N136 N 0.40477 0.72969 0.19428 0.0
N137 N 0.39257 0.57769 0.08354 0.0
H138 H 0.17418 0.73514 0.38424 0.0
H139 H 0.16318 0.91107 0.19315 0.0
H140 H 0.20988 0.93044 0.48211 0.0
H141 H 0.02911 0.66337 0.07977 0.0
H142 H 0.21348 0.93655 0.30476 0.0
H143 H 0.1504 0.72336 0.27658 0.0
C144 C 0.18054 0.77748 0.38336 0.0
C145 C 0.19944 0.83679 0.44254 0.0
C146 C 0.17241 0.87628 0.25542 0.0
C147 C 0.1668 0.82103 0.31936 0.0
C148 C 0.14309 0.86151 0.19192 0.0
C149 C 0.0879 0.78318 0.1274 0.0
C150 C 0.14598 0.81193 0.25399 0.0
C151 C 0.06906 0.72343 0.12853 0.0
C152 C 0.16467 0.76955 0.32174 0.0
C153 C 0.1983 0.88551 0.43781 0.0
N154 N 0.09681 0.73844 0.19079 0.0
N155 N 0.18318 0.87711 0.3774 0.0
H156 H 0.18845 0.3704 0.50364 0.0
H157 H 0.28508 0.35428 0.16567 0.0
H158 H 0.34594 0.57916 0.47806 0.0
H159 H 0.04863 0.11288 0.17062 0.0
H160 H 0.31275 0.43944 0.28074 0.0
H161 H 0.14086 0.27711 0.38336 0.0
C162 C 0.2126 0.39653 0.47268 0.0
C163 C 0.27163 0.48313 0.50138 0.0
C164 C 0.25419 0.36763 0.25659 0.0
C165 C 0.21825 0.37657 0.36315 0.0
C166 C 0.23888 0.3191 0.19094 0.0
C167 C 0.16547 0.22657 0.15856 0.0
C168 C 0.19686 0.32402 0.29093 0.0
C169 C 0.10591 0.18396 0.19341 0.0
C170 C 0.18513 0.343 0.40381 0.0
C171 C 0.30034 0.51296 0.45836 0.0
N172 N 0.12395 0.23331 0.25785 0.0
N173 N 0.27439 0.46034 0.39185 0.0
H174 H 0.52703 0.70255 0.40568 0.0
H175 H 0.86372 0.9881 0.23679 0.0
H176 H 0.64924 0.93968 0.47576 0.0
H177 H 0.71542 0.73731 0.15558 0.0
H178 H 0.79872 0.9775 0.32878 0.0
H179 H 0.60446 0.71887 0.31804 0.0
C180 C 0.57084 0.75857 0.40292 0.0
C181 C 0.58094 0.81963 0.44823 0.0
C182 C 0.7816 0.92534 0.2915 0.0
C183 C 0.67262 0.83983 0.348 0.0
C184 C 0.81908 0.93138 0.23879 0.0
C185 C 0.79674 0.86413 0.18844 0.0
C186 C 0.72036 0.85118 0.29446 0.0
C187 C 0.73785 0.79224 0.19408 0.0
C188 C 0.61514 0.76777 0.35269 0.0
C189 C 0.63833 0.89049 0.44171 0.0
N190 N 0.70132 0.78743 0.24582 0.0
N191 N 0.68215 0.89874 0.39275 0.0
H192 H 0.03146 0.35594 0.62699 0.0
H193 H 0.80815 0.25641 0.90811 0.0
H194 H 0.82885 0.37526 0.70655 0.0
H195 H 0.95361 0.19571 0.80244 0.0
H196 H 0.80692 0.29461 0.83237 0.0
H197 H 0.98891 0.28569 0.68449 0.0
C198 C 0.97654 0.34416 0.65601 0.0
C199 C 0.93327 0.371 0.66213 0.0
C200 C 0.83521 0.26989 0.82414 0.0
C201 C 0.88833 0.29416 0.73021 0.0
C202 C 0.83801 0.24948 0.86811 0.0
C203 C 0.88442 0.22466 0.86235 0.0
C204 C 0.87595 0.26312 0.77279 0.0
C205 C 0.92037 0.21628 0.80928 0.0
C206 C 0.95238 0.30426 0.68891 0.0
C207 C 0.86329 0.35501 0.70052 0.0
N208 N 0.91594 0.23558 0.76669 0.0
N209 N 0.84511 0.31927 0.73427 0.0
H210 H 0.07133 0.70866 0.54295 0.0
H211 H 0.77854 0.67896 0.81465 0.0
H212 H 0.67413 0.43521 0.49267 0.0
H213 H 0.08894 0.94172 0.82873 0.0
H214 H 0.76654 0.59627 0.70701 0.0
H215 H 0.10004 0.80024 0.65532 0.0
C216 C 0.9897 0.66786 0.55516 0.0
C217 C 0.86924 0.56396 0.50732 0.0
C218 C 0.8354 0.67136 0.73316 0.0
C219 C 0.90318 0.66845 0.63738 0.0
C220 C 0.84367 0.71925 0.79507 0.0
C221 C 0.93421 0.81757 0.8309 0.0
C222 C 0.91678 0.72092 0.70576 0.0
C223 C 1.01719 0.86587 0.80296 0.0
C224 C 1.00647 0.72025 0.61953 0.0
C225 C 0.76834 0.51512 0.52721 0.0
N226 N 1.00615 0.81705 0.74199 0.0
N227 N 0.78784 0.5676 0.59057 0.0
H228 H 0.39561 0.27977 0.54327 0.0
H229 H 0.20531 0.05417 0.74624 0.0
H230 H 0.33223 0.07284 0.48102 0.0
H231 H 0.19106 0.21466 0.7845 0.0
H232 H 0.23972 0.05335 0.64534 0.0
H233 H 0.31142 0.25216 0.62784 0.0
C234 C 0.36425 0.2287 0.54769 0.0
C235 C 0.37601 0.18137 0.50756 0.0
C236 C 0.23025 0.08966 0.67592 0.0
C237 C 0.2807 0.15001 0.60423 0.0
C238 C 0.20991 0.08986 0.73367 0.0
C239 C 0.19792 0.13671 0.77525 0.0
C240 C 0.24301 0.13922 0.66027 0.0
C241 C 0.20261 0.17981 0.75502 0.0
C242 C 0.31689 0.21334 0.59612 0.0
C243 C 0.3312 0.11439 0.51397 0.0
N244 N 0.22719 0.18174 0.69992 0.0
N245 N 0.28696 0.10139 0.56184 0.0
H246 H 0.3854 0.38238 0.0623 0.0
H247 H 0.70724 0.55091 0.82316 0.0
H248 H 0.78809 0.5663 0.10762 0.0
H249 H 0.29841 0.35118 0.77635 0.0
H250 H 0.74114 0.55579 0.92543 0.0
H251 H 0.35478 0.3715 0.95698 0.0
C252 C 0.46693 0.41937 0.04954 0.0
C253 C 0.58864 0.4737 0.09326 0.0
C254 C 0.64458 0.51202 0.89334 0.0
C255 C 0.55459 0.46214 0.97232 0.0
C256 C 0.62494 0.50881 0.83488 0.0
C257 C 0.50061 0.453 0.79293 0.0
C258 C 0.53909 0.45919 0.90969 0.0
C259 C 0.39721 0.39857 0.80934 0.0
C260 C 0.4494 0.41316 -0.01076 0.0
C261 C 0.69102 0.52077 0.07417 0.0
N262 N 0.41917 0.40411 0.86688 0.0
N263 N 0.67203 0.51433 0.01528 0.0
H264 H 0.55744 0.98924 0.81221 0.0
H265 H 0.37909 0.98332 0.12657 0.0
H266 H 0.40542 0.78762 0.84603 0.0
H267 H 0.69524 0.24994 0.14579 0.0
H268 H 0.36149 0.89984 0.01554 0.0
H269 H 0.58087 0.07427 0.92529 0.0
C270 C 0.52958 0.963 0.84348 0.0
C271 C 0.47993 0.88114 0.81941 0.0
C272 C 0.43491 0.97667 0.04423 0.0
C273 C 0.50621 0.9785 0.94926 0.0
C274 C 0.44483 0.02435 0.10751 0.0
C275 C 0.5392 0.12406 0.14589 0.0
C276 C 0.51747 0.02808 0.01787 0.0
C277 C 0.62173 0.17333 0.1184 0.0
C278 C 0.54351 0.01194 0.90823 0.0
C279 C 0.44509 0.8507 0.8625 0.0
N280 N 0.60803 0.1247 0.05587 0.0
N281 N 0.45797 0.89882 0.9249 0.0
H282 H 0.23447 0.64534 0.90987 0.0
H283 H 0.98665 0.40084 0.10623 0.0
H284 H 0.1774 0.44312 0.85614 0.0
H285 H 0.03524 0.59654 0.15004 0.0
H286 H 0.06387 0.41892 0.01824 0.0
H287 H 0.16378 0.62851 -0.00117 0.0
C288 C 0.20806 0.59764 0.917 0.0
C289 C 0.21438 0.54657 0.87577 0.0
C290 C 0.05515 0.45643 0.0462 0.0
C291 C 0.13358 0.52761 0.9793 0.0
C292 C 1.01184 0.44668 0.09682 0.0
C293 C 1.0018 0.49594 0.135 0.0
C294 C 0.08806 0.51542 0.03312 0.0
C295 C 0.0371 0.55486 0.12076 0.0
C296 C 0.1678 0.5883 0.96825 0.0
C297 C 0.17857 0.48623 0.88811 0.0
N298 N 0.07821 0.56279 0.07116 0.0
N299 N 0.14046 0.47873 0.9389 0.0
loop_
_geom_bond_atom_site_label_1
_geom_bond_atom_site_label_2
_geom_bond_distance
_geom_bond_site_symmetry_2
_ccdc_geom_bond_type
Cd0 O7 2.298 . S
Cd0 O19 2.255 . S
Cd0 O23 2.218 1_655 S
Cd1 O8 2.269 . S
Cd1 O11 2.237 1_665 S
Cd1 O20 2.201 1_554 S
C2 O10 1.266 . S
C2 O11 1.194 . S
Cd3 O9 2.255 . S
Cd3 O13 2.218 1_455 S
Cd3 O16 2.298 . S
Cd4 O10 2.201 1_556 S
Cd4 O17 2.269 . S
Cd4 O21 2.237 1_445 S
C5 O6 1.201 . S
C5 O13 1.235 . S
O6 C5 1.201 . S
O7 Cd0 2.298 . S
O7 C22 1.265 . S
O8 Cd1 2.269 . S
O8 C22 1.233 . S
O9 Cd3 2.255 . S
O9 C24 1.210 1_455 S
O10 C2 1.266 . S
O10 Cd4 2.201 1_554 S
O11 Cd1 2.237 1_445 S
O11 C2 1.194 . S
C12 O16 1.265 . S
C12 O17 1.233 . S
O13 Cd3 2.218 1_655 S
O13 C5 1.235 . S
C14 O15 1.269 . S
C14 O19 1.210 1_455 S
O15 C14 1.269 . S
O16 Cd3 2.298 . S
O16 C12 1.265 . S
O17 Cd4 2.269 . S
O17 C12 1.233 . S
C18 O20 1.266 . S
C18 O21 1.194 . S
O19 Cd0 2.255 . S
O19 C14 1.210 1_655 S
O20 Cd1 2.201 1_556 S
O20 C18 1.266 . S
O21 Cd4 2.237 1_665 S
O21 C18 1.194 . S
C22 O7 1.265 . S
C22 O8 1.233 . S
O23 Cd0 2.218 1_455 S
O23 C26 1.235 . S
C24 O9 1.210 1_655 S
C24 O25 1.269 . S
O25 C24 1.269 . S
C26 O23 1.235 . S
C26 O27 1.201 . S
O27 C26 1.201 . S
Cd28 O35 2.298 . S
Cd28 O47 2.255 . S
Cd28 O51 2.218 . S
Cd29 O36 2.269 . S
Cd29 O39 2.237 . S
Cd29 O48 2.201 . S
C30 O38 1.266 . S
C30 O39 1.194 . S
Cd31 O37 2.255 . S
Cd31 O41 2.218 . S
Cd31 O44 2.298 . S
Cd32 O38 2.201 . S
Cd32 O45 2.269 . S
Cd32 O49 2.237 . S
C33 O34 1.201 . S
C33 O41 1.235 . S
O34 C33 1.201 . S
O35 Cd28 2.298 . S
O35 C50 1.265 . S
O36 Cd29 2.269 . S
O36 C50 1.233 . S
O37 Cd31 2.255 . S
O37 C52 1.210 1_554 S
O38 C30 1.266 . S
O38 Cd32 2.201 . S
O39 Cd29 2.237 . S
O39 C30 1.194 . S
C40 O44 1.265 . S
C40 O45 1.233 . S
O41 Cd31 2.218 . S
O41 C33 1.235 . S
C42 O43 1.269 . S
C42 O47 1.210 . S
O43 C42 1.269 . S
O44 Cd31 2.298 . S
O44 C40 1.265 . S
O45 Cd32 2.269 . S
O45 C40 1.233 . S
C46 O48 1.266 . S
C46 O49 1.194 . S
O47 Cd28 2.255 . S
O47 C42 1.210 . S
O48 Cd29 2.201 . S
O48 C46 1.266 . S
O49 Cd32 2.237 . S
O49 C46 1.194 . S
C50 O35 1.265 . S
C50 O36 1.233 . S
O51 Cd28 2.218 . S
O51 C54 1.235 . S
C52 O37 1.210 1_556 S
C52 O53 1.269 . S
O53 C52 1.269 . S
C54 O51 1.235 . S
C54 O55 1.201 . S
O55 C54 1.201 . S
Cd56 O63 2.298 . S
Cd56 O75 2.255 . S
Cd56 O79 2.218 . S
Cd57 O64 2.269 . S
Cd57 O67 2.237 . S
Cd57 O76 2.201 . S
C58 O66 1.266 . S
C58 O67 1.194 . S
Cd59 O65 2.255 . S
Cd59 O69 2.218 . S
Cd59 O72 2.298 . S
Cd60 O66 2.201 . S
Cd60 O73 2.269 . S
Cd60 O77 2.237 . S
C61 O62 1.201 . S
C61 O69 1.235 . S
O62 C61 1.201 . S
O63 Cd56 2.298 . S
O63 C78 1.265 . S
O64 Cd57 2.269 . S
O64 C78 1.233 . S
O65 Cd59 2.255 . S
O65 C80 1.210 . S
O66 C58 1.266 . S
O66 Cd60 2.201 . S
O67 Cd57 2.237 . S
O67 C58 1.194 . S
C68 O72 1.265 . S
C68 O73 1.233 . S
O69 Cd59 2.218 . S
O69 C61 1.235 . S
C70 O71 1.269 . S
C70 O75 1.210 1_554 S
O71 C70 1.269 . S
O72 Cd59 2.298 . S
O72 C68 1.265 . S
O73 Cd60 2.269 . S
O73 C68 1.233 . S
C74 O76 1.266 . S
C74 O77 1.194 . S
O75 Cd56 2.255 . S
O75 C70 1.210 1_556 S
O76 Cd57 2.201 . S
O76 C74 1.266 . S
O77 Cd60 2.237 . S
O77 C74 1.194 . S
C78 O63 1.265 . S
C78 O64 1.233 . S
O79 Cd56 2.218 . S
O79 C82 1.235 . S
C80 O65 1.210 . S
C80 O81 1.269 . S
O81 C80 1.269 . S
C82 O79 1.235 . S
C82 O83 1.201 . S
O83 C82 1.201 . S
H84 C90 0.930 . S
H85 C94 0.930 . S
H86 C99 0.929 . S
H87 C97 0.929 . S
H88 C92 0.929 . S
H89 C98 0.929 . S
C90 H84 0.930 . S
C90 C91 1.367 1_455 S
C90 C98 1.378 . S
C91 C90 1.367 1_655 S
C91 C99 1.433 1_545 S
C92 H88 0.929 . S
C92 C94 1.378 . S
C92 C96 1.348 . S
C93 C96 1.474 1_445 S
C93 C98 1.347 . S
C93 N101 1.424 1_445 S
C94 H85 0.930 . S
C94 C92 1.378 . S
C94 C95 1.367 1_655 S
C95 C94 1.367 1_455 S
C95 C97 1.433 1_565 S
C96 C92 1.348 . S
C96 C93 1.474 1_665 S
C96 N100 1.425 1_665 S
C97 H87 0.929 . S
C97 C95 1.433 1_545 S
C97 N100 1.384 . S
C98 H89 0.929 . S
C98 C90 1.378 . S
C98 C93 1.347 . S
C99 H86 0.929 . S
C99 C91 1.433 1_565 S
C99 N101 1.384 . S
N100 C96 1.425 1_445 S
N100 C97 1.384 . S
N101 C93 1.424 1_665 S
N101 C99 1.384 . S
H102 C108 0.930 . S
H103 C112 0.930 1_554 S
H104 C117 0.929 . S
H105 C115 0.929 . S
H106 C110 0.929 . S
H107 C116 0.929 . S
C108 H102 0.930 . S
C108 C109 1.367 . S
C108 C116 1.378 . S
C109 C108 1.367 . S
C109 C117 1.433 . S
C110 H106 0.929 . S
C110 C112 1.378 . S
C110 C114 1.350 . S
C111 C114 1.463 . S
C111 C116 1.350 . S
C111 N119 1.427 . S
C112 H103 0.930 1_556 S
C112 C110 1.378 . S
C112 C113 1.367 . S
C113 C112 1.367 . S
C113 C115 1.433 . S
C114 C110 1.350 . S
C114 C111 1.463 . S
C114 N118 1.427 . S
C115 H105 0.929 . S
C115 C113 1.433 . S
C115 N118 1.384 . S
C116 H107 0.929 . S
C116 C108 1.378 . S
C116 C111 1.350 . S
C117 H104 0.929 . S
C117 C109 1.433 . S
C117 N119 1.384 . S
N118 C114 1.427 . S
N118 C115 1.384 . S
N119 C111 1.427 . S
N119 C117 1.384 . S
H120 C126 0.930 . S
H121 C130 0.930 . S
H122 C135 0.929 . S
H123 C133 0.929 . S
H124 C128 0.929 . S
H125 C134 0.929 . S
C126 H120 0.930 . S
C126 C127 1.367 . S
C126 C134 1.378 . S
C127 C126 1.367 . S
C127 C135 1.433 . S
C128 H124 0.929 . S
C128 C130 1.378 . S
C128 C132 1.350 . S
C129 C132 1.463 . S
C129 C134 1.350 . S
C129 N137 1.427 . S
C130 H121 0.930 . S
C130 C128 1.378 . S
C130 C131 1.367 . S
C131 C130 1.367 . S
C131 C133 1.433 . S
C132 C128 1.350 . S
C132 C129 1.463 . S
C132 N136 1.427 . S
C133 H123 0.929 . S
C133 C131 1.433 . S
C133 N136 1.384 . S
C134 H125 0.929 . S
C134 C126 1.378 . S
C134 C129 1.350 . S
C135 H122 0.929 . S
C135 C127 1.433 . S
C135 N137 1.384 . S
N136 C132 1.427 . S
N136 C133 1.384 . S
N137 C129 1.427 . S
N137 C135 1.384 . S
H138 C144 0.930 . S
H139 C148 0.930 1_545 S
H140 C153 0.929 . S
H141 C151 0.929 1_655 S
H142 C146 0.929 . S
H143 C152 0.929 . S
C144 H138 0.930 . S
C144 C145 1.367 . S
C144 C152 1.378 . S
C145 C144 1.367 . S
C145 C153 1.433 . S
C146 H142 0.929 . S
C146 C148 1.378 . S
C146 C150 1.350 . S
C147 C150 1.463 . S
C147 C152 1.350 . S
C147 N155 1.427 . S
C148 H139 0.930 1_565 S
C148 C146 1.378 . S
C148 C149 1.367 . S
C149 C148 1.367 . S
C149 C151 1.433 . S
C150 C146 1.350 . S
C150 C147 1.463 . S
C150 N154 1.427 . S
C151 H141 0.929 1_455 S
C151 C149 1.433 . S
C151 N154 1.384 . S
C152 H143 0.929 . S
C152 C144 1.378 . S
C152 C147 1.350 . S
C153 H140 0.929 . S
C153 C145 1.433 . S
C153 N155 1.384 . S
N154 C150 1.427 . S
N154 C151 1.384 . S
N155 C147 1.427 . S
N155 C153 1.384 . S
H156 C162 0.930 . S
H157 C166 0.930 . S
H158 C171 0.929 . S
H159 C169 0.929 . S
H160 C164 0.929 . S
H161 C170 0.929 1_655 S
C162 H156 0.930 . S
C162 C163 1.367 . S
C162 C170 1.378 . S
C163 C162 1.367 . S
C163 C171 1.433 . S
C164 H160 0.929 . S
C164 C166 1.378 . S
C164 C168 1.350 . S
C165 C168 1.463 . S
C165 C170 1.350 . S
C165 N173 1.427 . S
C166 H157 0.930 . S
C166 C164 1.378 . S
C166 C167 1.367 . S
C167 C166 1.367 . S
C167 C169 1.433 1_455 S
C168 C164 1.350 . S
C168 C165 1.463 . S
C168 N172 1.427 . S
C169 H159 0.929 . S
C169 C167 1.433 1_655 S
C169 N172 1.384 1_655 S
C170 H161 0.929 1_455 S
C170 C162 1.378 . S
C170 C165 1.350 . S
C171 H158 0.929 . S
C171 C163 1.433 . S
C171 N173 1.384 . S
N172 C168 1.427 . S
N172 C169 1.384 1_455 S
N173 C165 1.427 . S
N173 C171 1.384 . S
H174 C180 0.930 . S
H175 C184 0.930 . S
H176 C189 0.929 . S
H177 C187 0.929 . S
H178 C182 0.929 . S
H179 C188 0.929 . S
C180 H174 0.930 . S
C180 C181 1.367 . S
C180 C188 1.378 . S
C181 C180 1.367 . S
C181 C189 1.433 . S
C182 H178 0.929 . S
C182 C184 1.378 . S
C182 C186 1.350 . S
C183 C186 1.463 . S
C183 C188 1.350 . S
C183 N191 1.427 . S
C184 H175 0.930 . S
C184 C182 1.378 . S
C184 C185 1.367 . S
C185 C184 1.367 . S
C185 C187 1.433 . S
C186 C182 1.350 . S
C186 C183 1.463 . S
C186 N190 1.427 . S
C187 H177 0.929 . S
C187 C185 1.433 . S
C187 N190 1.384 . S
C188 H179 0.929 . S
C188 C180 1.378 . S
C188 C183 1.350 . S
C189 H176 0.929 . S
C189 C181 1.433 . S
C189 N191 1.384 . S
N190 C186 1.427 . S
N190 C187 1.384 . S
N191 C183 1.427 . S
N191 C189 1.384 . S
H192 C198 0.930 . S
H193 C202 0.930 . S
H194 C207 0.929 . S
H195 C205 0.912 1_565 S
H196 C200 0.929 . S
H197 C206 0.929 . S
C198 H192 0.930 . S
C198 C199 1.367 . S
C198 C206 1.378 . S
C199 C198 1.367 . S
C199 C207 1.433 . S
C200 H196 0.929 . S
C200 C202 1.378 . S
C200 C204 1.350 . S
C201 C204 1.463 . S
C201 C206 1.350 . S
C201 N209 1.427 . S
C202 H193 0.930 . S
C202 C200 1.378 . S
C202 C203 1.367 . S
C203 C202 1.367 . S
C203 C205 1.433 . S
C204 C200 1.350 . S
C204 C201 1.463 . S
C204 N208 1.427 . S
C205 H195 0.912 1_545 S
C205 C203 1.433 . S
C205 N208 1.384 . S
C206 H197 0.929 . S
C206 C198 1.378 . S
C206 C201 1.350 . S
C207 H194 0.929 . S
C207 C199 1.433 . S
C207 N209 1.384 . S
N208 C204 1.427 . S
N208 C205 1.384 . S
N209 C201 1.427 . S
N209 C207 1.384 . S
H210 C216 0.930 . S
H211 C220 0.930 . S
H212 C225 0.929 . S
H213 C223 0.929 1_455 S
H214 C218 0.929 . S
H215 C224 0.929 . S
C216 H210 0.930 . S
C216 C217 1.367 . S
C216 C224 1.378 . S
C217 C216 1.367 . S
C217 C225 1.433 . S
C218 H214 0.929 . S
C218 C220 1.378 . S
C218 C222 1.350 . S
C219 C222 1.463 . S
C219 C224 1.350 . S
C219 N227 1.427 . S
C220 H211 0.930 . S
C220 C218 1.378 . S
C220 C221 1.367 . S
C221 C220 1.367 . S
C221 C223 1.433 . S
C222 C218 1.350 . S
C222 C219 1.463 . S
C222 N226 1.427 . S
C223 H213 0.929 1_655 S
C223 C221 1.433 . S
C223 N226 1.384 . S
C224 H215 0.929 . S
C224 C216 1.378 . S
C224 C219 1.350 . S
C225 H212 0.929 . S
C225 C217 1.433 . S
C225 N227 1.384 . S
N226 C222 1.427 . S
N226 C223 1.384 . S
N227 C219 1.427 . S
N227 C225 1.384 . S
H228 C234 0.930 . S
H229 C238 0.930 1_565 S
H230 C243 0.929 . S
H231 C241 0.929 . S
H232 C236 0.929 . S
H233 C242 0.929 . S
C234 H228 0.930 . S
C234 C235 1.367 . S
C234 C242 1.378 . S
C235 C234 1.367 . S
C235 C243 1.433 . S
C236 H232 0.929 . S
C236 C238 1.378 . S
C236 C240 1.350 . S
C237 C240 1.463 . S
C237 C242 1.350 . S
C237 N245 1.427 . S
C238 H229 0.930 1_545 S
C238 C236 1.378 . S
C238 C239 1.367 . S
C239 C238 1.367 . S
C239 C241 1.433 . S
C240 C236 1.350 . S
C240 C237 1.463 . S
C240 N244 1.427 . S
C241 H231 0.929 . S
C241 C239 1.433 . S
C241 N244 1.384 . S
C242 H233 0.929 . S
C242 C234 1.378 . S
C242 C237 1.350 . S
C243 H230 0.929 . S
C243 C235 1.433 . S
C243 N245 1.384 . S
N244 C240 1.427 . S
N244 C241 1.384 . S
N245 C237 1.427 . S
N245 C243 1.384 . S
H246 C252 0.930 . S
H247 C256 0.930 . S
H248 C261 0.929 . S
H249 C259 0.929 . S
H250 C254 0.929 . S
H251 C260 0.929 . S
C252 H246 0.930 . S
C252 C253 1.367 . S
C252 C260 1.378 . S
C253 C252 1.367 . S
C253 C261 1.433 . S
C254 H250 0.929 . S
C254 C256 1.378 . S
C254 C258 1.350 . S
C255 C258 1.463 1_554 S
C255 C260 1.350 . S
C255 N263 1.427 . S
C256 H247 0.930 . S
C256 C254 1.378 . S
C256 C257 1.367 . S
C257 C256 1.367 . S
C257 C259 1.433 . S
C258 C254 1.350 . S
C258 C255 1.463 1_556 S
C258 N262 1.427 . S
C259 H249 0.929 . S
C259 C257 1.433 . S
C259 N262 1.384 . S
C260 H251 0.929 . S
C260 C252 1.378 . S
C260 C255 1.350 . S
C261 H248 0.929 . S
C261 C253 1.433 . S
C261 N263 1.384 . S
N262 C258 1.427 . S
N262 C259 1.384 . S
N263 C255 1.427 . S
N263 C261 1.384 . S
H264 C270 0.930 . S
H265 C274 0.930 . S
H266 C279 0.929 . S
H267 C277 0.929 . S
H268 C272 0.929 1_556 S
H269 C278 0.929 1_554 S
C270 H264 0.930 . S
C270 C271 1.367 . S
C270 C278 1.378 1_565 S
C271 C270 1.367 . S
C271 C279 1.433 . S
C272 H268 0.929 1_554 S
C272 C274 1.378 1_565 S
C272 C276 1.350 1_565 S
C273 C276 1.463 1_566 S
C273 C278 1.350 1_565 S
C273 N281 1.427 . S
C274 H265 0.930 . S
C274 C272 1.378 1_545 S
C274 C275 1.367 . S
C275 C274 1.367 . S
C275 C277 1.433 . S
C276 C272 1.350 1_545 S
C276 C273 1.463 1_544 S
C276 N280 1.427 . S
C277 H267 0.929 . S
C277 C275 1.433 . S
C277 N280 1.384 . S
C278 H269 0.929 1_556 S
C278 C270 1.378 1_545 S
C278 C273 1.350 1_545 S
C279 H266 0.929 . S
C279 C271 1.433 . S
C279 N281 1.384 . S
N280 C276 1.427 . S
N280 C277 1.384 . S
N281 C273 1.427 . S
N281 C279 1.384 . S
H282 C288 0.930 . S
H283 C292 0.930 . S
H284 C297 0.929 . S
H285 C295 0.929 . S
H286 C290 0.929 1_556 S
H287 C296 0.929 1_554 S
C288 H282 0.930 . S
C288 C289 1.367 . S
C288 C296 1.378 . S
C289 C288 1.367 . S
C289 C297 1.433 1_455 S
C290 H286 0.929 1_554 S
C290 C292 1.378 . S
C290 C294 1.350 . S
C291 C294 1.463 1_456 S
C291 C296 1.350 . S
C291 N299 1.427 1_455 S
C292 H283 0.930 . S
C292 C290 1.378 . S
C292 C293 1.367 . S
C293 C292 1.367 . S
C293 C295 1.433 1_655 S
C294 C290 1.350 . S
C294 C291 1.463 1_654 S
C294 N298 1.427 1_655 S
C295 H285 0.929 . S
C295 C293 1.433 1_455 S
C295 N298 1.384 . S
C296 H287 0.929 1_556 S
C296 C288 1.378 . S
C296 C291 1.350 . S
C297 H284 0.929 . S
C297 C289 1.433 1_655 S
C297 N299 1.384 . S
N298 C294 1.427 1_455 S
N298 C295 1.384 . S
N299 C291 1.427 1_655 S
N299 C297 1.384 . S
C91 C24 0.482 . S
C95 C14 0.482 . S
C109 C42 0.464 . S
C113 C52 0.464 . S
C127 C70 0.468 . S
C131 C80 0.468 . S
C145 C61 1.881 . S
C149 C26 1.880 . S
C163 C74 1.780 . S
C167 C2 1.779 . S
C181 C68 2.211 . S
C185 C22 2.210 . S
C199 C54 1.885 . S
C203 C5 1.885 . S
C217 C30 1.781 . S
C221 C18 1.783 . S
C235 C50 2.209 . S
C239 C12 2.210 . S
C253 C33 1.892 . S
C257 C82 1.892 . S
C271 C58 1.780 . S
C275 C46 1.780 . S
C289 C78 2.210 . S
C293 C40 2.210 . S
