# Generated by pormake.
# Topology zff, (5)-cn, num edge types: 1
# Building blocks:
#     Node 0, Type 0, BuildingBlock: XOMCOT_clean_sbu_1, # of connection points: 5
#     Node 1, Type 0, BuildingBlock: XOMCOT_clean_sbu_1, # of connection points: 5
#     Node 2, Type 0, BuildingBlock: XOMCOT_clean_sbu_1, # of connection points: 5
#     Node 3, Type 0, BuildingBlock: XOMCOT_clean_sbu_1, # of connection points: 5
#     Node 4, Type 0, BuildingBlock: XOMCOT_clean_sbu_1, # of connection points: 5
#     Node 5, Type 0, BuildingBlock: XOMCOT_clean_sbu_1, # of connection points: 5
#     Node 6, Type 0, BuildingBlock: XOMCOT_clean_sbu_1, # of connection points: 5
#     Node 7, Type 0, BuildingBlock: XOMCOT_clean_sbu_1, # of connection points: 5
#     Node 8, Type 0, BuildingBlock: XOMCOT_clean_sbu_1, # of connection points: 5
#     Node 9, Type 0, BuildingBlock: XOMCOT_clean_sbu_1, # of connection points: 5
#     Node 10, Type 0, BuildingBlock: XOMCOT_clean_sbu_1, # of connection points: 5
#     Node 11, Type 0, BuildingBlock: XOMCOT_clean_sbu_1, # of connection points: 5
#     Node 12, Type 0, BuildingBlock: XOMCOT_clean_sbu_1, # of connection points: 5
#     Node 13, Type 0, BuildingBlock: XOMCOT_clean_sbu_1, # of connection points: 5
#     Node 14, Type 0, BuildingBlock: XOMCOT_clean_sbu_1, # of connection points: 5
#     Node 15, Type 0, BuildingBlock: XOMCOT_clean_sbu_1, # of connection points: 5
#     Edge 16, Type (0, 0), BuildingBlock: XUDNAN_clean_linker_2, # of connection points: 2
#     Edge 17, Type (0, 0), BuildingBlock: XUDNAN_clean_linker_2, # of connection points: 2
#     Edge 18, Type (0, 0), BuildingBlock: XUDNAN_clean_linker_2, # of connection points: 2
#     Edge 19, Type (0, 0), BuildingBlock: XUDNAN_clean_linker_2, # of connection points: 2
#     Edge 20, Type (0, 0), BuildingBlock: XUDNAN_clean_linker_2, # of connection points: 2
#     Edge 21, Type (0, 0), BuildingBlock: XUDNAN_clean_linker_2, # of connection points: 2
#     Edge 22, Type (0, 0), BuildingBlock: XUDNAN_clean_linker_2, # of connection points: 2
#     Edge 23, Type (0, 0), BuildingBlock: XUDNAN_clean_linker_2, # of connection points: 2
#     Edge 24, Type (0, 0), BuildingBlock: XUDNAN_clean_linker_2, # of connection points: 2
#     Edge 25, Type (0, 0), BuildingBlock: XUDNAN_clean_linker_2, # of connection points: 2
#     Edge 26, Type (0, 0), BuildingBlock: XUDNAN_clean_linker_2, # of connection points: 2
#     Edge 27, Type (0, 0), BuildingBlock: XUDNAN_clean_linker_2, # of connection points: 2
#     Edge 28, Type (0, 0), BuildingBlock: XUDNAN_clean_linker_2, # of connection points: 2
#     Edge 29, Type (0, 0), BuildingBlock: XUDNAN_clean_linker_2, # of connection points: 2
#     Edge 30, Type (0, 0), BuildingBlock: XUDNAN_clean_linker_2, # of connection points: 2
#     Edge 31, Type (0, 0), BuildingBlock: XUDNAN_clean_linker_2, # of connection points: 2
#     Edge 32, Type (0, 0), BuildingBlock: XUDNAN_clean_linker_2, # of connection points: 2
#     Edge 33, Type (0, 0), BuildingBlock: XUDNAN_clean_linker_2, # of connection points: 2
#     Edge 34, Type (0, 0), BuildingBlock: XUDNAN_clean_linker_2, # of connection points: 2
#     Edge 35, Type (0, 0), BuildingBlock: XUDNAN_clean_linker_2, # of connection points: 2
#     Edge 36, Type (0, 0), BuildingBlock: XUDNAN_clean_linker_2, # of connection points: 2
#     Edge 37, Type (0, 0), BuildingBlock: XUDNAN_clean_linker_2, # of connection points: 2
#     Edge 38, Type (0, 0), BuildingBlock: XUDNAN_clean_linker_2, # of connection points: 2
#     Edge 39, Type (0, 0), BuildingBlock: XUDNAN_clean_linker_2, # of connection points: 2
#     Edge 40, Type (0, 0), BuildingBlock: XUDNAN_clean_linker_2, # of connection points: 2
#     Edge 41, Type (0, 0), BuildingBlock: XUDNAN_clean_linker_2, # of connection points: 2
#     Edge 42, Type (0, 0), BuildingBlock: XUDNAN_clean_linker_2, # of connection points: 2
#     Edge 43, Type (0, 0), BuildingBlock: XUDNAN_clean_linker_2, # of connection points: 2
#     Edge 44, Type (0, 0), BuildingBlock: XUDNAN_clean_linker_2, # of connection points: 2
#     Edge 45, Type (0, 0), BuildingBlock: XUDNAN_clean_linker_2, # of connection points: 2
#     Edge 46, Type (0, 0), BuildingBlock: XUDNAN_clean_linker_2, # of connection points: 2
#     Edge 47, Type (0, 0), BuildingBlock: XUDNAN_clean_linker_2, # of connection points: 2
#     Edge 48, Type (0, 0), BuildingBlock: XUDNAN_clean_linker_2, # of connection points: 2
#     Edge 49, Type (0, 0), BuildingBlock: XUDNAN_clean_linker_2, # of connection points: 2
#     Edge 50, Type (0, 0), BuildingBlock: XUDNAN_clean_linker_2, # of connection points: 2
#     Edge 51, Type (0, 0), BuildingBlock: XUDNAN_clean_linker_2, # of connection points: 2
#     Edge 52, Type (0, 0), BuildingBlock: XUDNAN_clean_linker_2, # of connection points: 2
#     Edge 53, Type (0, 0), BuildingBlock: XUDNAN_clean_linker_2, # of connection points: 2
#     Edge 54, Type (0, 0), BuildingBlock: XUDNAN_clean_linker_2, # of connection points: 2
#     Edge 55, Type (0, 0), BuildingBlock: XUDNAN_clean_linker_2, # of connection points: 2
# Relax obj value: 0.157
# Max RMSD: 0.194
# Mean RMSD: 0.194
data_MOF--net-zff--node1-XOMCOT_clean_sbu_1--edge1-XUDNAN_clean_linker_2
_symmetry_space_group_name_H-M    P1
_symmetry_Int_Tables_number       1
_symmetry_cell_setting            triclinic
loop_
_symmetry_equiv_pos_as_xyz
'x, y, z'
_cell_length_a     37.608743
_cell_length_b     37.621341
_cell_length_c     65.374256
_cell_angle_alpha  89.801354
_cell_angle_beta   90.433409
_cell_angle_gamma 90.083127
loop_
_atom_site_label
_atom_site_type_symbol
_atom_site_fract_x
_atom_site_fract_y
_atom_site_fract_z
_atom_type_partial_charge
C0 C 0.94877 0.30079 0.42071 0.0
C1 C 0.94718 0.30269 0.44173 0.0
N2 N 0.98028 0.3082 0.44917 0.0
N3 N 0.98272 0.30488 0.41467 0.0
C4 C 0.00127 0.30958 0.43235 0.0
H5 H 0.92654 0.29641 0.41043 0.0
Co6 Co -0.00216 0.30298 0.38705 0.0
C7 C 0.0778 0.28609 0.40067 0.0
O8 O 0.09595 0.30882 0.41184 0.0
N9 N 0.0138 0.30193 0.35877 0.0
C10 C 0.03164 0.28416 0.32781 0.0
C11 C 0.01746 0.27361 0.3462 0.0
C12 C 0.02593 0.32958 0.34714 0.0
N13 N 0.03696 0.31945 0.32832 0.0
O14 O 0.00531 0.35211 0.38788 0.0
H15 H 0.01061 0.2465 0.34991 0.0
H16 H 0.02754 0.35673 0.35241 0.0
O17 O 0.04596 0.29381 0.39555 0.0
C18 C 0.97526 0.36549 0.38313 0.0
O19 O 0.94938 0.34402 0.37752 0.0
N20 N 0.98561 0.25511 0.38681 0.0
C21 C 0.94237 0.19667 0.39484 0.0
C22 C 0.97408 0.20181 0.40594 0.0
C23 C -0.00462 0.23146 0.40173 0.0
C24 C 0.95577 0.24959 0.37535 0.0
C25 C 0.93414 0.22028 0.37886 0.0
H26 H 0.01765 0.23723 0.41173 0.0
H27 H 0.94705 0.26975 0.36461 0.0
H28 H 0.02973 0.31341 0.43288 0.0
H29 H 0.92328 0.30059 0.45076 0.0
H30 H 0.03719 0.26711 0.31492 0.0
H31 H 0.98115 0.18438 0.41854 0.0
H32 H 0.90946 0.21807 0.3703 0.0
C33 C 0.69113 0.95722 0.44754 0.0
C34 C 0.69942 0.95501 0.46812 0.0
N35 N 0.70134 0.98821 0.47573 0.0
N36 N 0.68772 0.99172 0.44212 0.0
C37 C 0.69448 0.00987 0.4596 0.0
H38 H 0.6859 0.93504 0.43747 0.0
Co39 Co 0.66811 0.0112 0.41765 0.0
C40 C 0.72066 0.06315 0.40427 0.0
O41 O 0.71379 0.05226 0.38557 0.0
N42 N 0.64717 0.03292 0.39338 0.0
C43 C 0.62426 0.07942 0.37648 0.0
C44 C 0.637 0.06732 0.39482 0.0
C45 C 0.63952 0.02473 0.37342 0.0
N46 N 0.62593 0.05296 0.3628 0.0
O47 O 0.63422 0.03596 0.43377 0.0
H48 H 0.63982 0.08349 0.40838 0.0
H49 H 0.64487 -0.00078 0.36656 0.0
O50 O 0.70315 0.04999 0.41923 0.0
C51 C 0.61232 0.01306 0.44064 0.0
O52 O 0.6174 0.97936 0.43634 0.0
N53 N 0.69904 0.98265 0.40251 0.0
C54 C 0.73845 0.92306 0.39157 0.0
C55 C 0.75519 0.95283 0.40014 0.0
C56 C 0.73495 0.982 0.40595 0.0
C57 C 0.68255 0.95454 0.39334 0.0
C58 C 0.70179 0.9244 0.3877 0.0
H59 H 0.74781 0.0021 0.41513 0.0
H60 H 0.65386 0.95407 0.39216 0.0
H61 H 0.69183 0.03843 0.46076 0.0
H62 H 0.70272 0.93079 0.47691 0.0
H63 H 0.61464 0.10604 0.37339 0.0
H64 H 0.78325 0.95233 0.40403 0.0
H65 H 0.68787 0.90168 0.38138 0.0
C66 C 0.02401 0.69176 0.42302 0.0
C67 C 0.02512 0.69315 0.44394 0.0
N68 N 0.99159 0.69436 0.45094 0.0
N69 N 0.98993 0.69261 0.41645 0.0
C70 C 0.97055 0.69366 0.43392 0.0
H71 H 0.0468 0.68994 0.4131 0.0
Co72 Co 0.97954 0.68998 0.38801 0.0
C73 C 0.9249 0.74354 0.38026 0.0
O74 O 0.94552 0.7553 0.36565 0.0
N75 N 0.9698 0.68498 0.35869 0.0
C76 C 0.96698 0.69138 0.32454 0.0
C77 C 0.9798 0.70544 0.34256 0.0
C78 C 0.95148 0.65795 0.3495 0.0
N79 N 0.94934 0.66134 0.32891 0.0
O80 O 0.95532 0.6472 0.3928 0.0
H81 H -0.005 0.72973 0.34349 0.0
H82 H 0.9395 0.63596 0.35758 0.0
O83 O 0.93492 0.71709 0.39127 0.0
C84 C 0.97853 0.62276 0.394 0.0
O85 O 0.01221 0.63135 0.39196 0.0
N86 N 0.00704 0.73146 0.38439 0.0
C87 C 0.06089 0.78244 0.38954 0.0
C88 C 0.02802 0.78565 0.39952 0.0
C89 C 0.00156 0.76025 0.39663 0.0
C90 C 0.03856 0.72769 0.37448 0.0
C91 C 0.06522 0.75346 0.37619 0.0
H92 H 0.97809 0.7619 0.406 0.0
H93 H 0.04376 0.70368 0.36596 0.0
H94 H 0.94178 0.69392 0.43417 0.0
H95 H 0.04892 0.69237 0.45335 0.0
H96 H 0.97101 0.70201 0.30932 0.0
H97 H 0.02312 0.80606 0.41072 0.0
H98 H 0.08946 0.74952 0.36774 0.0
C99 C 0.30321 0.04604 0.43307 0.0
C100 C 0.29973 0.04846 0.45406 0.0
N101 N 0.29632 0.01535 0.46178 0.0
N102 N 0.30199 0.01157 0.42752 0.0
C103 C 0.29803 -0.00638 0.44535 0.0
H104 H 0.30665 0.068 0.42254 0.0
Co105 Co 0.3074 0.99177 0.40122 0.0
C106 C 0.28044 0.91862 0.40893 0.0
O107 O 0.30868 0.90299 0.40144 0.0
N108 N 0.31264 0.97089 0.37487 0.0
C109 C 0.29882 0.94111 0.34646 0.0
C110 C 0.28567 0.9567 0.36382 0.0
C111 C 0.34204 0.96389 0.36359 0.0
N112 N 0.33434 0.94554 0.34628 0.0
O113 O 0.34968 0.97022 0.41062 0.0
H114 H 0.25809 0.95677 0.36838 0.0
H115 H 0.36876 0.97094 0.36825 0.0
O116 O 0.27863 0.95237 0.40941 0.0
C117 C 0.37192 -0.00463 0.40791 0.0
O118 O 0.36162 0.02341 0.39736 0.0
N119 N 0.26775 0.01688 0.39213 0.0
C120 C 0.2171 0.06848 0.38367 0.0
C121 C 0.20755 0.03727 0.394 0.0
C122 C 0.23354 0.01183 0.39837 0.0
C123 C 0.27686 0.04608 0.38098 0.0
C124 C 0.25195 0.07248 0.37671 0.0
H125 H 0.22642 0.98934 0.40769 0.0
H126 H 0.30422 0.0499 0.37649 0.0
H127 H 0.29729 0.96493 0.44633 0.0
H128 H 0.2993 0.07273 0.46289 0.0
H129 H 0.28337 0.92744 0.33487 0.0
H130 H 0.18087 0.03371 0.39981 0.0
H131 H 0.26012 0.09641 0.36875 0.0
C132 C 0.00849 0.7318 0.62935 0.0
C133 C 0.0068 0.73535 0.60845 0.0
N134 N 0.99243 0.70558 0.60052 0.0
N135 N -0.00442 0.6997 0.63491 0.0
C136 C 0.98559 0.68447 0.61692 0.0
H137 H 0.01792 0.75192 0.63985 0.0
Co138 Co 0.99152 0.68359 0.66247 0.0
C139 C 0.04732 0.72582 0.68522 0.0
O140 O 0.03237 0.72305 0.70325 0.0
N141 N 0.98757 0.66708 0.69021 0.0
C142 C 0.96558 0.65583 0.72106 0.0
C143 C 0.95893 0.67087 0.70228 0.0
C144 C 0.0112 0.6487 0.70216 0.0
N145 N -0.00149 0.6416 0.72119 0.0
O146 O 0.02069 0.64442 0.65664 0.0
H147 H 0.93444 0.68387 0.69794 0.0
H148 H 0.03728 0.64085 0.69698 0.0
O149 O 0.03274 0.7118 0.66952 0.0
C150 C -0.00131 0.62018 0.65167 0.0
O151 O 0.96459 0.62778 0.6517 0.0
N152 N 0.95932 0.72022 0.66711 0.0
C153 C 0.89914 0.76221 0.67164 0.0
C154 C 0.93239 0.7742 0.67877 0.0
C155 C 0.96249 0.7526 0.67634 0.0
C156 C 0.92756 0.70937 0.65919 0.0
C157 C 0.89721 0.72978 0.66133 0.0
H158 H 0.98775 0.76188 0.68205 0.0
H159 H 0.92565 0.68403 0.65155 0.0
H160 H 0.97358 0.65841 0.61581 0.0
H161 H 0.01475 0.75859 0.59981 0.0
H162 H 0.94732 0.65609 0.73375 0.0
H163 H 0.93485 0.79941 0.68661 0.0
H164 H 0.87226 0.72001 0.65514 0.0
C165 C 0.30278 0.95165 0.64109 0.0
C166 C 0.3001 0.94371 0.62065 0.0
N167 N 0.29495 0.97413 0.61009 0.0
N168 N 0.29916 0.98698 0.64365 0.0
C169 C 0.29477 0.00012 0.62441 0.0
H170 H 0.3067 0.93278 0.65342 0.0
Co171 Co 0.29974 0.0091 0.66959 0.0
C172 C 0.26808 0.07915 0.65927 0.0
O173 O 0.29359 0.0974 0.66821 0.0
N174 N 0.30063 0.03123 0.69569 0.0
C175 C 0.2836 0.05914 0.72394 0.0
C176 C 0.27249 0.04497 0.70557 0.0
C177 C 0.32856 0.03709 0.70856 0.0
N178 N 0.319 0.05431 0.72589 0.0
O179 O 0.34092 0.0344 0.66196 0.0
H180 H 0.24548 0.04476 0.69977 0.0
H181 H 0.35552 0.02927 0.70515 0.0
O182 O 0.2692 0.04541 0.65912 0.0
C183 C 0.36589 0.01184 0.66357 0.0
O184 O 0.35891 0.98004 0.67088 0.0
N185 N 0.26053 0.9816 0.67712 0.0
C186 C 0.21376 0.92495 0.68107 0.0
C187 C 0.20631 0.95267 0.66739 0.0
C188 C 0.23008 0.98085 0.66561 0.0
C189 C 0.26683 0.95625 0.69165 0.0
C190 C 0.24347 0.92759 0.69401 0.0
H191 H 0.22562 -9e-05 0.65355 0.0
H192 H 0.29153 0.9567 0.70023 0.0
H193 H 0.29058 0.02798 0.62101 0.0
H194 H 0.3018 0.91742 0.61406 0.0
H195 H 0.26663 0.07159 0.73511 0.0
H196 H 0.18365 0.95122 0.65709 0.0
H197 H 0.25013 0.90633 0.70457 0.0
C198 C 0.03523 0.2962 0.62988 0.0
C199 C 0.04441 0.29861 0.60962 0.0
N200 N 0.01486 0.30514 0.59844 0.0
N201 N -8e-05 0.30111 0.63173 0.0
C202 C 0.9881 0.30641 0.61224 0.0
H203 H 0.05324 0.29156 0.64259 0.0
Co204 Co 0.9766 0.30259 0.65734 0.0
C205 C 0.90115 0.29506 0.64777 0.0
O206 O 0.89368 0.32318 0.65877 0.0
N207 N 0.95281 0.30461 0.68336 0.0
C208 C 0.92082 0.28948 0.71075 0.0
C209 C 0.93718 0.27723 0.69335 0.0
C210 C 0.94508 0.33332 0.69512 0.0
N211 N 0.92557 0.32488 0.71183 0.0
O212 O 0.96707 0.35101 0.65256 0.0
H213 H 0.93647 0.2501 0.68794 0.0
H214 H 0.95278 0.36021 0.69133 0.0
O215 O 0.93338 0.28656 0.64471 0.0
C216 C -0.00365 0.36492 0.65851 0.0
O217 O 0.01998 0.34442 0.66764 0.0
N218 N 0.99049 0.25587 0.6622 0.0
C219 C 0.03798 0.19935 0.66242 0.0
C220 C 0.01095 0.20156 0.64747 0.0
C221 C 0.98704 0.22992 0.64779 0.0
C222 C 0.01396 0.2522 0.67801 0.0
C223 C 0.03729 0.22356 0.67873 0.0
H224 H 0.96898 0.23336 0.63499 0.0
H225 H 0.01688 0.27329 0.6891 0.0
H226 H 0.96071 0.31226 0.60833 0.0
H227 H 0.07099 0.29589 0.60358 0.0
H228 H 0.90513 0.27377 0.72126 0.0
H229 H 0.0102 0.18376 0.63451 0.0
H230 H 0.05649 0.22221 0.69112 0.0
C231 C 0.67928 0.05349 0.65349 0.0
C232 C 0.68333 0.06073 0.63305 0.0
N233 N 0.69232 0.03048 0.62341 0.0
N234 N 0.6858 0.0188 0.657 0.0
C235 C 0.69342 0.00525 0.63829 0.0
H236 H 0.67266 0.07253 0.66521 0.0
Co237 Co 0.68535 -0.00035 0.68366 0.0
C238 C 0.69559 0.92429 0.677 0.0
O239 O 0.66426 0.91882 0.6852 0.0
N240 N 0.68482 0.98025 0.71077 0.0
C241 C 0.7031 0.95086 0.73861 0.0
C242 C 0.7134 0.96616 0.72044 0.0
C243 C 0.65739 0.97331 0.72366 0.0
N244 N 0.66776 0.95517 0.74067 0.0
O245 O 0.63916 0.98278 0.67843 0.0
H246 H 0.74002 0.96577 0.7143 0.0
H247 H 0.63002 0.9799 0.72029 0.0
O248 O 0.70672 0.95599 0.67436 0.0
C249 C 0.6172 0.00732 0.68259 0.0
O250 O 0.62887 0.03594 0.69198 0.0
N251 N 0.72945 0.02052 0.68828 0.0
C252 C 0.77796 0.07458 0.68043 0.0
C253 C 0.78393 0.03994 0.67321 0.0
C254 C 0.75899 0.01325 0.67707 0.0
C255 C 0.72586 0.05234 0.69785 0.0
C256 C 0.74968 0.07996 0.694 0.0
H257 H 0.76155 0.98838 0.66909 0.0
H258 H 0.70177 0.05785 0.7062 0.0
H259 H 0.70077 0.97785 0.6357 0.0
H260 H 0.68006 0.08646 0.62582 0.0
H261 H 0.72039 0.93725 0.74937 0.0
H262 H 0.80601 0.03413 0.66324 0.0
H263 H 0.74363 0.10605 0.69994 0.0
C264 C 0.46077 0.78689 0.94087 0.0
C265 C 0.45312 0.79033 0.96128 0.0
N266 N 0.48271 0.80121 0.97109 0.0
N267 N 0.49525 0.79517 0.93765 0.0
C268 C 0.50775 0.80449 0.95644 0.0
H269 H 0.4419 0.77986 0.929 0.0
Co270 Co 0.51545 0.79936 0.91117 0.0
C271 C 0.57663 0.76017 0.93321 0.0
O272 O 0.56252 0.75417 0.9512 0.0
N273 N 0.53546 0.80434 0.88463 0.0
C274 C 0.56634 0.79184 0.85661 0.0
C275 C 0.55244 0.77834 0.87443 0.0
C276 C 0.5392 0.83348 0.87246 0.0
N277 N 0.5582 0.82665 0.85532 0.0
O278 O 0.53389 0.84388 0.9185 0.0
H279 H 0.55528 0.75128 0.87985 0.0
H280 H 0.52925 0.8595 0.8764 0.0
O281 O 0.55901 0.77623 0.91927 0.0
C282 C 0.50804 0.86557 0.91752 0.0
O283 O 0.47685 0.85377 0.91133 0.0
N284 N 0.49443 0.75625 0.90369 0.0
C285 C 0.44407 0.70266 0.89936 0.0
C286 C 0.47335 0.69812 0.9125 0.0
C287 C 0.49837 0.72532 0.91445 0.0
C288 C 0.46779 0.75991 0.88961 0.0
C289 C 0.44234 0.73326 0.88709 0.0
H290 H 0.51867 0.72264 0.92602 0.0
H291 H 0.46448 0.78492 0.88161 0.0
H292 H 0.53416 0.81498 0.9592 0.0
H293 H 0.42761 0.78563 0.96837 0.0
H294 H 0.58139 0.77703 0.84547 0.0
H295 H 0.47572 0.67469 0.92208 0.0
H296 H 0.41998 0.7379 0.87689 0.0
C297 C 0.19037 0.44459 0.91958 0.0
C298 C 0.19336 0.44407 0.94055 0.0
N299 N 0.19653 0.47776 0.94725 0.0
N300 N 0.19187 0.47845 0.91276 0.0
C301 C 0.19561 0.49812 0.93003 0.0
H302 H 0.18656 0.42163 0.9099 0.0
Co303 Co 0.18441 0.49225 0.88491 0.0
C304 C 0.23947 0.54606 0.87737 0.0
O305 O 0.24509 0.53194 0.8594 0.0
N306 N 0.17505 0.5062 0.85641 0.0
C307 C 0.17537 0.51085 0.82214 0.0
C308 C 0.19183 0.49616 0.83905 0.0
C309 C 0.14792 0.52689 0.84914 0.0
N310 N 0.14749 0.53008 0.82842 0.0
O311 O 0.14436 0.51814 0.89325 0.0
H312 H 0.21503 0.47935 0.8384 0.0
H313 H 0.12851 0.53949 0.8588 0.0
O314 O 0.21568 0.53302 0.88906 0.0
C315 C 0.12183 0.49301 0.89476 0.0
O316 O 0.13096 0.46075 0.88926 0.0
N317 N 0.22173 0.46241 0.87758 0.0
C318 C 0.25943 0.3991 0.88154 0.0
C319 C 0.27313 0.43091 0.88967 0.0
C320 C 0.25386 0.46245 0.88747 0.0
C321 C 0.20955 0.43244 0.86821 0.0
C322 C 0.22847 0.40077 0.8695 0.0
H323 H 0.26242 0.48537 0.89611 0.0
H324 H 0.18326 0.43216 0.86139 0.0
H325 H 0.1963 0.52687 0.92999 0.0
H326 H 0.19317 0.42053 0.95011 0.0
H327 H 0.18273 0.50666 0.80636 0.0
H328 H 0.29661 0.43098 0.89935 0.0
H329 H 0.2173 0.37722 0.86246 0.0
C330 C 0.53582 0.1896 0.93179 0.0
C331 C 0.54489 0.18706 0.95213 0.0
N332 N 0.51518 0.18092 0.96298 0.0
N333 N 0.50044 0.1851 0.92957 0.0
C334 C 0.48845 0.17998 0.94893 0.0
H335 H 0.55406 0.19354 0.91927 0.0
Co336 Co 0.47743 0.18246 0.90374 0.0
C337 C 0.40274 0.19037 0.91463 0.0
O338 O 0.39562 0.15802 0.9083 0.0
N339 N 0.45395 0.17978 0.87773 0.0
C340 C 0.41995 0.1956 0.85116 0.0
C341 C 0.43494 0.20658 0.8693 0.0
C342 C 0.45022 0.15269 0.86413 0.0
N343 N 0.42937 0.16159 0.84782 0.0
O344 O 0.46506 0.13515 0.9097 0.0
H345 H 0.43171 0.23255 0.87608 0.0
H346 H 0.4618 0.12666 0.86638 0.0
O347 O 0.43477 0.20133 0.91509 0.0
C348 C 0.49389 0.119 0.90567 0.0
O349 O 0.51944 0.13661 0.89645 0.0
N350 N 0.49374 0.22777 0.89772 0.0
C351 C 0.54031 0.28504 0.8951 0.0
C352 C 0.51109 0.28609 0.90839 0.0
C353 C 0.48854 0.25671 0.90984 0.0
C354 C 0.51949 0.22776 0.88325 0.0
C355 C 0.54322 0.25601 0.88173 0.0
H356 H 0.46943 0.2559 0.92206 0.0
H357 H 0.5239 0.20409 0.87427 0.0
H358 H 0.46102 0.17412 0.95255 0.0
H359 H 0.5715 0.18908 0.95846 0.0
H360 H 0.40351 0.21169 0.84113 0.0
H361 H 0.50718 0.30813 0.91872 0.0
H362 H 0.56543 0.25327 0.87144 0.0
C363 C 0.84766 0.49928 0.92264 0.0
C364 C 0.84705 0.50101 0.94364 0.0
N365 N 0.81646 0.48647 0.95013 0.0
N366 N 0.81791 0.48302 0.91571 0.0
C367 C 0.79905 0.47599 0.93293 0.0
H368 H 0.86873 0.50925 0.91304 0.0
Co369 Co 0.80912 0.47273 0.88773 0.0
C370 C 0.7701 0.40579 0.8884 0.0
O371 O 0.79021 0.39269 0.87394 0.0
N372 N 0.80052 0.46235 0.8589 0.0
C373 C 0.77693 0.46295 0.82736 0.0
C374 C 0.77219 0.47269 0.84746 0.0
C375 C 0.82153 0.4452 0.84513 0.0
N376 N 0.80801 0.44561 0.8259 0.0
O377 O 0.84759 0.44068 0.88863 0.0
H378 H 0.74948 0.48708 0.8531 0.0
H379 H 0.84681 0.43312 0.84877 0.0
O380 O 0.77598 0.43671 0.89542 0.0
C381 C 0.87303 0.45938 0.88173 0.0
O382 O 0.86575 0.49056 0.87356 0.0
N383 N 0.77419 0.50738 0.88749 0.0
C384 C 0.73402 0.56894 0.89141 0.0
C385 C 0.7202 0.53587 0.89753 0.0
C386 C 0.74088 0.50524 0.89557 0.0
C387 C 0.78753 0.53896 0.88089 0.0
C388 C 0.76794 0.57008 0.88268 0.0
H389 H 0.73048 0.48032 0.90119 0.0
H390 H 0.81428 0.54015 0.87499 0.0
H391 H 0.77337 0.46301 0.93296 0.0
H392 H 0.8673 0.51257 0.95343 0.0
H393 H 0.759 0.46853 0.81472 0.0
H394 H 0.69398 0.53374 0.90415 0.0
H395 H 0.78001 0.59498 0.8781 0.0
C396 C 0.45368 0.18726 0.14049 0.0
C397 C 0.45171 0.18652 0.11945 0.0
N398 N 0.48394 0.17788 0.11209 0.0
N399 N 0.48711 0.17954 0.14666 0.0
C400 C 0.50477 0.17352 0.12899 0.0
H401 H 0.43191 0.19281 0.1507 0.0
Co402 Co 0.50202 0.17627 0.17462 0.0
C403 C 0.57823 0.19988 0.16049 0.0
O404 O 0.58956 0.17853 0.14611 0.0
N405 N 0.51735 0.17243 0.20278 0.0
C406 C 0.5382 0.18765 0.23359 0.0
C407 C 0.52552 0.20001 0.21513 0.0
C408 C 0.52556 0.14331 0.2144 0.0
N409 N 0.53857 0.15184 0.23325 0.0
O410 O 0.51618 0.12922 0.16989 0.0
H411 H 0.52344 0.22774 0.21092 0.0
H412 H 0.52318 0.1163 0.20896 0.0
O413 O 0.54781 0.19543 0.16845 0.0
C414 C 0.48652 0.11286 0.17085 0.0
O415 O 0.45807 0.1307 0.17627 0.0
N416 N 0.48421 0.22187 0.1788 0.0
C417 C 0.43626 0.27756 0.17386 0.0
C418 C 0.46865 0.2774 0.16322 0.0
C419 C 0.49254 0.24949 0.16612 0.0
C420 C 0.45484 0.22325 0.19079 0.0
C421 C 0.43094 0.25138 0.18895 0.0
H422 H 0.51525 0.24791 0.15614 0.0
H423 H 0.4483 0.2009 0.20052 0.0
H424 H 0.53227 0.16564 0.12855 0.0
H425 H 0.42798 0.19119 0.11039 0.0
H426 H 0.54661 0.20412 0.24627 0.0
H427 H 0.47426 0.29656 0.15131 0.0
H428 H 0.40726 0.25098 0.19824 0.0
C429 C 0.80715 0.44096 0.12861 0.0
C430 C 0.80584 0.43647 0.10771 0.0
N431 N 0.79721 0.4678 0.09901 0.0
N432 N 0.79978 0.47508 0.13317 0.0
C433 C 0.79358 0.4908 0.11475 0.0
H434 H 0.81398 0.42081 0.1398 0.0
Co435 Co 0.80381 0.4943 0.15974 0.0
C436 C 0.7928 0.56942 0.15342 0.0
O437 O 0.82665 0.57423 0.15767 0.0
N438 N 0.80816 0.51446 0.18663 0.0
C439 C 0.79371 0.54688 0.21389 0.0
C440 C 0.78136 0.53158 0.19614 0.0
C441 C 0.83654 0.51912 0.19941 0.0
N442 N 0.82838 0.53903 0.21598 0.0
O443 O 0.84936 0.51051 0.15274 0.0
H444 H 0.7546 0.53399 0.19012 0.0
H445 H 0.863 0.50943 0.19632 0.0
O446 O 0.78081 0.53792 0.15111 0.0
C447 C 0.87033 0.48487 0.15668 0.0
O448 O 0.85784 0.457 0.16649 0.0
N449 N 0.76053 0.47393 0.16656 0.0
C450 C 0.70584 0.42557 0.17296 0.0
C451 C 0.70251 0.45201 0.15785 0.0
C452 C 0.73026 0.47637 0.15499 0.0
C453 C 0.76357 0.4492 0.18172 0.0
C454 C 0.73628 0.42514 0.18541 0.0
H455 H 0.72859 0.49533 0.14256 0.0
H456 H 0.78829 0.44668 0.19015 0.0
H457 H 0.78786 0.51879 0.11281 0.0
H458 H 0.81097 0.4121 0.0995 0.0
H459 H 0.77843 0.56281 0.22441 0.0
H460 H 0.67941 0.45287 0.14787 0.0
H461 H 0.74013 0.40471 0.19693 0.0
C462 C 0.54751 0.77679 0.14738 0.0
C463 C 0.54975 0.78032 0.12648 0.0
N464 N 0.51887 0.79379 0.11931 0.0
N465 N 0.51514 0.78746 0.15369 0.0
C466 C 0.49864 0.79831 0.13621 0.0
H467 H 0.56876 0.76769 0.15727 0.0
Co468 Co 0.4987 0.79162 0.18123 0.0
C469 C 0.44448 0.74181 0.1622 0.0
O470 O 0.46216 0.73595 0.14531 0.0
N471 N 0.4822 0.79645 0.20848 0.0
C472 C 0.45626 0.78278 0.23801 0.0
C473 C 0.47022 0.76946 0.22023 0.0
C474 C 0.47562 0.82602 0.21971 0.0
N475 N 0.4595 0.81843 0.2377 0.0
O476 O 0.47366 0.83283 0.17364 0.0
H477 H 0.47047 0.74177 0.21585 0.0
H478 H 0.48105 0.85277 0.21447 0.0
O479 O 0.4573 0.76224 0.17593 0.0
C480 C 0.49729 0.85704 0.17327 0.0
O481 O 0.53005 0.84867 0.17855 0.0
N482 N 0.5266 0.75303 0.18914 0.0
C483 C 0.5846 0.70777 0.19387 0.0
C484 C 0.55192 0.6949 0.1863 0.0
C485 C 0.52317 0.71812 0.18387 0.0
C486 C 0.55668 0.76502 0.19849 0.0
C487 C 0.58611 0.74304 0.20082 0.0
H488 H 0.49929 0.70826 0.17674 0.0
H489 H 0.5589 0.79283 0.20245 0.0
H490 H 0.47191 0.80883 0.13597 0.0
H491 H 0.57286 0.77414 0.11742 0.0
H492 H 0.44425 0.76738 0.25016 0.0
H493 H 0.54901 0.66763 0.18133 0.0
H494 H 0.61052 0.75472 0.20654 0.0
C495 C 0.1893 0.53183 0.12788 0.0
C496 C 0.19352 0.54177 0.10782 0.0
N497 N 0.19661 0.51229 0.0963 0.0
N498 N 0.18984 0.4961 0.12935 0.0
C499 C 0.19403 0.48483 0.10976 0.0
H500 H 0.18571 0.54963 0.14065 0.0
Co501 Co 0.18429 0.47102 0.15439 0.0
C502 C 0.21439 0.40114 0.143 0.0
O503 O 0.18603 0.3834 0.14874 0.0
N504 N 0.17875 0.44601 0.17958 0.0
C505 C 0.19127 0.41288 0.20703 0.0
C506 C 0.20461 0.4277 0.18941 0.0
C507 C 0.14996 0.4425 0.19192 0.0
N508 N 0.15685 0.42214 0.20871 0.0
O509 O 0.14378 0.44819 0.14347 0.0
H510 H 0.23172 0.42541 0.18418 0.0
H511 H 0.12439 0.45442 0.18859 0.0
O512 O 0.21513 0.43481 0.14445 0.0
C513 C 0.11968 0.47178 0.14384 0.0
O514 O 0.12663 0.50271 0.15226 0.0
N515 N 0.2226 0.49611 0.16535 0.0
C516 C 0.2712 0.54891 0.17578 0.0
C517 C 0.28134 0.52029 0.16342 0.0
C518 C 0.25648 0.49439 0.15813 0.0
C519 C 0.21304 0.52195 0.17874 0.0
C520 C 0.23694 0.54879 0.18415 0.0
H521 H 0.26404 0.47463 0.14713 0.0
H522 H 0.18585 0.52326 0.18398 0.0
H523 H 0.19545 0.4571 0.1055 0.0
H524 H 0.19366 0.56882 0.10212 0.0
H525 H 0.20611 0.39716 0.21805 0.0
H526 H 0.30774 0.51889 0.15696 0.0
H527 H 0.2278 0.57045 0.19361 0.0
H528 H 0.02219 0.56772 0.40303 0.0
H529 H 0.9128 0.59317 0.38725 0.0
H530 H 0.89915 0.52897 0.38464 0.0
H531 H 0.03272 0.49956 0.36863 0.0
H532 H 0.05981 0.47192 0.38504 0.0
H533 H 0.05993 0.51936 0.38837 0.0
H534 H 0.04192 0.51179 0.42635 0.0
H535 H 0.04233 0.46421 0.42326 0.0
H536 H 0.00304 0.48599 0.43262 0.0
H537 H 0.89957 0.46308 0.37997 0.0
H538 H 0.91243 0.39937 0.37589 0.0
H539 H 0.02191 0.41766 0.39478 0.0
C540 C -0.00484 0.55981 0.39942 0.0
C541 C 0.9685 0.58518 0.39529 0.0
C542 C 0.93349 0.57397 0.39058 0.0
C543 C 0.92556 0.53767 0.38903 0.0
C544 C 0.95288 0.51333 0.39251 0.0
C545 C 0.98684 0.52392 0.39789 0.0
C546 C 0.01196 0.49274 0.3997 0.0
C547 C 0.04291 0.49612 0.38453 0.0
C548 C 0.0256 0.48843 0.4218 0.0
C549 C 0.98709 0.46294 0.39384 0.0
C550 C 0.9531 0.47533 0.38989 0.0
C551 C 0.92592 0.45298 0.38331 0.0
C552 C 0.93359 0.4169 0.38093 0.0
C553 C 0.96819 0.40367 0.38507 0.0
C554 C -0.00478 0.42704 0.39159 0.0
H555 H 0.56811 0.0607 0.42338 0.0
H556 H 0.57713 0.98333 0.47217 0.0
H557 H 0.51199 0.97669 0.47272 0.0
H558 H 0.47303 0.09587 0.43709 0.0
H559 H 0.46279 0.0987 0.41015 0.0
H560 H 0.50729 0.10782 0.41918 0.0
H561 H 0.53088 0.06081 0.3939 0.0
H562 H 0.4867 0.05001 0.38551 0.0
H563 H 0.51511 0.01562 0.39571 0.0
H564 H 0.45047 0.96425 0.46068 0.0
H565 H 0.39436 0.95587 0.44111 0.0
H566 H 0.42652 0.03928 0.39912 0.0
C567 C 0.55602 0.04462 0.43523 0.0
C568 C 0.57713 0.02293 0.44793 0.0
C569 C 0.56098 0.00061 0.46262 0.0
C570 C 0.52403 -0.00353 0.4629 0.0
C571 C 0.50391 0.01514 0.4485 0.0
C572 C 0.5192 0.03973 0.43534 0.0
C573 C 0.49315 0.05139 0.41892 0.0
C574 C 0.48348 0.09078 0.4215 0.0
C575 C 0.50733 0.04398 0.39726 0.0
C576 C 0.46206 0.0276 0.42396 0.0
C577 C 0.46835 0.00733 0.44125 0.0
C578 C 0.44473 0.9808 0.4475 0.0
C579 C 0.41331 0.97574 0.43612 0.0
C580 C 0.40625 -0.00305 0.41868 0.0
C581 C 0.43108 0.02293 0.41256 0.0
H582 H 0.95335 0.41744 0.64285 0.0
H583 H 0.0599 0.39683 0.66602 0.0
H584 H 0.07544 0.4597 0.66135 0.0
H585 H 0.97915 0.48763 0.60511 0.0
H586 H 0.9399 0.51343 0.61028 0.0
H587 H 0.93856 0.46566 0.61248 0.0
H588 H 0.91636 0.471 0.64983 0.0
H589 H 0.9174 0.5186 0.64767 0.0
H590 H 0.94184 0.4968 0.66794 0.0
H591 H 0.07737 0.52541 0.6586 0.0
H592 H 0.06394 0.58978 0.65911 0.0
H593 H 0.9572 0.56741 0.63687 0.0
C594 C 0.9801 0.4261 0.64656 0.0
C595 C 0.00532 0.40236 0.65479 0.0
C596 C 0.04001 0.41464 0.65973 0.0
C597 C 0.04929 0.45025 0.65696 0.0
C598 C 0.02372 0.47318 0.64907 0.0
C599 C 0.98986 0.46164 0.64388 0.0
C600 C 0.96633 0.49234 0.63767 0.0
C601 C 0.95535 0.48959 0.61504 0.0
C602 C 0.93358 0.49483 0.65162 0.0
C603 C 0.99178 0.52291 0.64114 0.0
C604 C 0.02497 0.51135 0.64732 0.0
C605 C 0.05174 0.53492 0.65334 0.0
C606 C 0.04394 0.57135 0.65358 0.0
C607 C 0.00962 0.58338 0.64803 0.0
C608 C 0.98379 0.55893 0.64108 0.0
H609 H 0.56149 0.04575 0.69659 0.0
H610 H 0.59047 0.96709 0.65129 0.0
H611 H 0.52954 0.96955 0.63687 0.0
H612 H 0.47715 0.01074 0.70664 0.0
H613 H 0.4565 0.05336 0.71056 0.0
H614 H 0.50325 0.04796 0.71546 0.0
H615 H 0.5163 0.10003 0.69045 0.0
H616 H 0.46945 0.10488 0.6851 0.0
H617 H 0.50012 0.09784 0.66445 0.0
H618 H 0.4654 0.97674 0.62935 0.0
H619 H 0.40018 0.98118 0.6325 0.0
H620 H 0.41275 0.05547 0.68241 0.0
C621 C 0.55505 0.02927 0.68352 0.0
C622 C 0.58049 0.00634 0.67495 0.0
C623 C 0.57114 0.98468 0.65811 0.0
C624 C 0.53684 0.98631 0.64965 0.0
C625 C 0.51249 0.0097 0.65827 0.0
C626 C 0.52099 0.03037 0.67503 0.0
C627 C 0.48899 0.0503 0.68285 0.0
C628 C 0.481 0.03995 0.70518 0.0
C629 C 0.49403 0.09066 0.68057 0.0
C630 C 0.46077 0.03667 0.66828 0.0
C631 C 0.47511 0.01396 0.65388 0.0
C632 C 0.45392 -0.00496 0.64018 0.0
C633 C 0.41704 -0.00211 0.64196 0.0
C634 C 0.40206 0.01947 0.65726 0.0
C635 C 0.42396 0.04014 0.67003 0.0
H636 H 0.45598 0.91516 0.91914 0.0
H637 H 0.57006 0.90126 0.92582 0.0
H638 H 0.5772 0.96626 0.9293 0.0
H639 H 0.45905 0.98571 0.88741 0.0
H640 H 0.42124 0.00901 0.89752 0.0
H641 H 0.42401 0.96155 0.90003 0.0
H642 H 0.41757 0.9666 0.93936 0.0
H643 H 0.4144 0.01426 0.93698 0.0
H644 H 0.44758 -0.00523 0.95359 0.0
H645 H 0.57308 0.0313 0.92573 0.0
H646 H 0.55832 0.09281 0.91611 0.0
H647 H 0.44657 0.06483 0.91199 0.0
C648 C 0.48241 0.92567 0.92188 0.0
C649 C 0.51253 0.90338 0.92219 0.0
C650 C 0.54667 0.91802 0.92562 0.0
C651 C 0.55092 0.95481 0.92771 0.0
C652 C 0.52069 0.97618 0.92661 0.0
C653 C 0.48703 0.96214 0.92399 0.0
C654 C 0.45941 0.99088 0.92086 0.0
C655 C 0.43982 0.98651 0.90023 0.0
C656 C 0.4332 0.99167 0.93877 0.0
C657 C 0.48309 0.02329 0.92091 0.0
C658 C 0.51824 0.01422 0.92465 0.0
C659 C 0.54564 0.03888 0.92326 0.0
C660 C 0.537 0.0736 0.91758 0.0
C661 C 0.50131 0.08321 0.91333 0.0
C662 C 0.47392 0.05806 0.91553 0.0
H663 H 0.92779 0.4723 0.85703 0.0
H664 H 0.9009 0.43303 0.91734 0.0
H665 H 0.96299 0.44335 0.9289 0.0
H666 H 0.02108 0.43903 0.85611 0.0
H667 H 0.03512 0.47806 0.84228 0.0
H668 H 0.99071 0.46113 0.83883 0.0
H669 H 0.96681 0.52364 0.84811 0.0
H670 H 0.01103 0.53999 0.85298 0.0
H671 H 0.97783 0.54257 0.87266 0.0
H672 H 0.02673 0.46353 0.93425 0.0
H673 H 0.09007 0.48086 0.93101 0.0
H674 H 0.07156 0.51129 0.86806 0.0
C675 C 0.93547 0.46439 0.8724 0.0
C676 C 0.91014 0.4516 0.8863 0.0
C677 C 0.92047 0.44209 0.90642 0.0
C678 C 0.95539 0.44852 0.91317 0.0
C679 C 0.97908 0.46414 0.89948 0.0
C680 C 0.96979 0.47095 0.87935 0.0
C681 C -0.00069 0.48907 0.86782 0.0
C682 C 0.01235 0.46541 0.85023 0.0
C683 C 0.98804 0.526 0.85994 0.0
C684 C 0.02662 0.49201 0.88469 0.0
C685 C 0.01459 0.47755 0.90286 0.0
C686 C 0.03629 0.47526 0.92018 0.0
C687 C 0.07189 0.48581 0.91838 0.0
C688 C 0.08478 0.49878 0.89953 0.0
C689 C 0.06161 0.50332 0.88285 0.0
H690 H 0.54377 0.91195 0.1715 0.0
H691 H 0.43231 0.88527 0.16281 0.0
H692 H 0.41901 0.94872 0.15626 0.0
H693 H 0.53052 0.98695 0.19957 0.0
H694 H 0.56711 0.01191 0.18911 0.0
H695 H 0.56876 0.96419 0.18956 0.0
H696 H 0.57884 0.9633 0.15036 0.0
H697 H 0.57738 0.01119 0.14978 0.0
H698 H 0.54784 0.98579 0.13362 0.0
H699 H 0.41694 0.0146 0.15542 0.0
H700 H 0.42549 0.07878 0.16056 0.0
H701 H 0.53865 0.06222 0.16993 0.0
C702 C 0.51663 0.91924 0.1678 0.0
C703 C 0.48899 0.89386 0.16764 0.0
C704 C 0.45381 0.90445 0.16295 0.0
C705 C 0.44611 0.9403 0.15911 0.0
C706 C 0.47398 0.96478 0.15986 0.0
C707 C 0.50857 0.95467 0.16398 0.0
C708 C 0.53311 0.98633 0.16602 0.0
C709 C 0.55089 0.98739 0.18733 0.0
C710 C 0.56093 0.98666 0.14892 0.0
C711 C 0.50664 0.01606 0.16329 0.0
C712 C 0.4728 0.00303 0.1594 0.0
C713 C 0.44335 0.02516 0.15808 0.0
C714 C 0.44849 0.0615 0.16118 0.0
C715 C 0.48278 0.07521 0.16565 0.0
C716 C 0.51231 0.05236 0.16623 0.0
H717 H 0.92264 0.43939 0.16811 0.0
H718 H 0.89985 0.52812 0.12751 0.0
H719 H 0.96074 0.52413 0.11366 0.0
H720 H 0.00669 0.46616 0.18181 0.0
H721 H 0.02513 0.42202 0.18336 0.0
H722 H 0.97844 0.42861 0.1873 0.0
H723 H 0.96471 0.38308 0.15854 0.0
H724 H 0.01161 0.37705 0.15423 0.0
H725 H 0.98276 0.38998 0.13337 0.0
H726 H 0.0249 0.5158 0.10772 0.0
H727 H 0.0895 0.50928 0.11339 0.0
H728 H 0.07055 0.42513 0.15722 0.0
C729 C 0.93026 0.45764 0.15606 0.0
C730 C 0.90669 0.48398 0.14878 0.0
C731 C 0.9177 0.50782 0.13331 0.0
C732 C 0.95197 0.50539 0.12517 0.0
C733 C 0.97454 0.47885 0.13261 0.0
C734 C 0.96422 0.45562 0.14786 0.0
C735 C -0.00527 0.43263 0.15517 0.0
C736 C 0.00166 0.4377 0.17826 0.0
C737 C 0.98804 0.39335 0.15001 0.0
C738 C 0.02443 0.44783 0.1424 0.0
C739 C 0.01198 0.47376 0.12903 0.0
C740 C 0.0349 0.49494 0.11763 0.0
C741 C 0.07144 0.49097 0.12085 0.0
C742 C 0.08439 0.46605 0.13527 0.0
C743 C 0.06091 0.44312 0.14545 0.0
H744 H 0.08789 0.30101 0.3009 0.0
H745 H 0.01827 0.38725 0.31824 0.0
H746 H 0.03987 0.42284 0.28879 0.0
H747 H 0.16159 0.35673 0.2854 0.0
H748 H 0.17417 0.32797 0.2647 0.0
H749 H 0.15275 0.30969 0.28693 0.0
H750 H 0.10388 0.28216 0.26376 0.0
H751 H 0.12502 0.30056 0.24147 0.0
H752 H 0.07904 0.31041 0.24652 0.0
H753 H 0.06787 0.44792 0.2557 0.0
H754 H 0.10404 0.46233 0.22515 0.0
H755 H 0.15698 0.36053 0.23072 0.0
C756 C 0.07712 0.32737 0.29849 0.0
C757 C 0.05112 0.34122 0.31187 0.0
C758 C 0.03826 0.37611 0.30832 0.0
C759 C 0.05024 0.39642 0.29152 0.0
C760 C 0.07555 0.38174 0.27847 0.0
C761 C 0.08921 0.34815 0.28201 0.0
C762 C 0.11702 0.33877 0.2662 0.0
C763 C 0.15354 0.33296 0.27642 0.0
C764 C 0.10554 0.30604 0.25375 0.0
C765 C 0.11681 0.37214 0.25308 0.0
C766 C 0.09246 0.39654 0.2602 0.0
C767 C 0.08715 0.42901 0.25015 0.0
C768 C 0.10764 0.43693 0.2327 0.0
C769 C 0.13357 0.41276 0.22554 0.0
C770 C 0.13777 0.37983 0.2359 0.0
H771 H 0.58488 0.16877 0.26417 0.0
H772 H 0.52175 0.08174 0.24002 0.0
H773 H 0.54129 0.04395 0.26918 0.0
H774 H 0.65827 0.11591 0.28403 0.0
H775 H 0.66407 0.14382 0.30616 0.0
H776 H 0.64709 0.16244 0.28262 0.0
H777 H 0.59152 0.18552 0.30161 0.0
H778 H 0.60839 0.16714 0.32519 0.0
H779 H 0.56477 0.15475 0.31608 0.0
H780 H 0.56617 0.01663 0.30354 0.0
H781 H 0.59122 0.00494 0.33833 0.0
H782 H 0.63682 0.11063 0.33879 0.0
C783 C 0.57492 0.14183 0.26486 0.0
C784 C 0.55139 0.12858 0.24962 0.0
C785 C 0.5399 0.09271 0.25127 0.0
C786 C 0.55085 0.07101 0.26789 0.0
C787 C 0.57361 0.08529 0.28279 0.0
C788 C 0.58552 0.11997 0.28125 0.0
C789 C 0.60864 0.12996 0.29944 0.0
C790 C 0.64678 0.13853 0.29265 0.0
C791 C 0.59234 0.16118 0.31128 0.0
C792 C 0.60743 0.09583 0.31179 0.0
C793 C 0.58747 0.07003 0.302 0.0
C794 C 0.58202 0.03672 0.31116 0.0
C795 C 0.59654 0.03012 0.33088 0.0
C796 C 0.61599 0.05679 0.34137 0.0
C797 C 0.62197 0.08966 0.3313 0.0
H798 H 0.83501 0.60613 0.23051 0.0
H799 H 0.87297 0.49853 0.23895 0.0
H800 H 0.90736 0.51767 0.26964 0.0
H801 H 0.91876 0.64908 0.24503 0.0
H802 H 0.89699 0.68602 0.25714 0.0
H803 H 0.87558 0.6634 0.23615 0.0
H804 H 0.82041 0.65204 0.25872 0.0
H805 H 0.84178 0.67429 0.27985 0.0
H806 H 0.82573 0.62943 0.28291 0.0
H807 H 0.93355 0.54858 0.30139 0.0
H808 H 0.95679 0.58976 0.32794 0.0
H809 H 0.90633 0.67814 0.29674 0.0
C810 C 0.85085 0.58674 0.23877 0.0
C811 C 0.85133 0.55079 0.23247 0.0
C812 C 0.8725 0.52616 0.2435 0.0
C813 C 0.89185 0.53681 0.261 0.0
C814 C 0.89035 0.5724 0.26704 0.0
C815 C 0.871 0.59714 0.25593 0.0
C816 C 0.87477 0.63399 0.26513 0.0
C817 C 0.89259 0.65963 0.24996 0.0
C818 C 0.83851 0.64826 0.27206 0.0
C819 C 0.89889 0.62618 0.28331 0.0
C820 C 0.90713 0.5904 0.28438 0.0
C821 C 0.92763 0.57668 0.30048 0.0
C822 C 0.94054 0.60016 0.31557 0.0
C823 C 0.93358 0.63708 0.31429 0.0
C824 C 0.91237 0.65008 0.29794 0.0
H825 H 0.40042 0.81046 0.26104 0.0
H826 H 0.48822 0.88199 0.24892 0.0
H827 H 0.46657 0.92249 0.276 0.0
H828 H 0.33509 0.87859 0.2699 0.0
H829 H 0.31275 0.85373 0.28962 0.0
H830 H 0.33565 0.83068 0.26955 0.0
H831 H 0.373 0.79657 0.29665 0.0
H832 H 0.3503 0.8196 0.31681 0.0
H833 H 0.39813 0.82114 0.31548 0.0
H834 H 0.43569 0.95406 0.30597 0.0
H835 H 0.39598 0.97596 0.33332 0.0
H836 H 0.32768 0.88435 0.32452 0.0
C837 C 0.41526 0.83453 0.26414 0.0
C838 C 0.44629 0.84287 0.25295 0.0
C839 C 0.46439 0.87509 0.25723 0.0
C840 C 0.45235 0.89813 0.27267 0.0
C841 C 0.42185 0.88887 0.28357 0.0
C842 C 0.40335 0.85797 0.27927 0.0
C843 C 0.3708 0.8544 0.29268 0.0
C844 C 0.33655 0.85436 0.27966 0.0
C845 C 0.37322 0.82094 0.30621 0.0
C846 C 0.37387 0.88795 0.30534 0.0
C847 C 0.40363 0.90742 0.30004 0.0
C848 C 0.41223 0.93906 0.31009 0.0
C849 C 0.38965 0.95123 0.3257 0.0
C850 C 0.35855 0.9321 0.331 0.0
C851 C 0.3509 0.89994 0.32065 0.0
H852 H 0.1574 0.56125 0.79082 0.0
H853 H 0.07706 0.53721 0.83603 0.0
H854 H 0.03094 0.56223 0.81322 0.0
H855 H 0.11838 0.64559 0.77405 0.0
H856 H 0.13006 0.63955 0.7476 0.0
H857 H 0.15706 0.61989 0.76751 0.0
H858 H 0.14895 0.55809 0.75084 0.0
H859 H 0.12173 0.57752 0.73096 0.0
H860 H 0.10471 0.54132 0.74615 0.0
H861 H -0.00698 0.58646 0.78492 0.0
H862 H 0.96571 0.61353 0.75466 0.0
H863 H 0.07 0.62644 0.72735 0.0
C864 C 0.1301 0.56134 0.79593 0.0
C865 C 0.12097 0.54711 0.8154 0.0
C866 C 0.08492 0.54816 0.82147 0.0
C867 C 0.05844 0.56215 0.80848 0.0
C868 C 0.06826 0.57555 0.7894 0.0
C869 C 0.10325 0.57578 0.78319 0.0
C870 C 0.10644 0.59256 0.76199 0.0
C871 C 0.12935 0.62641 0.76285 0.0
C872 C 0.12134 0.56577 0.74657 0.0
C873 C 0.0677 0.60137 0.75719 0.0
C874 C 0.0463 0.591 0.77324 0.0
C875 C 0.00961 0.59525 0.77242 0.0
C876 C -0.00569 0.61106 0.75502 0.0
C877 C 0.0154 0.62324 0.73842 0.0
C878 C 0.05281 0.61777 0.73958 0.0
H879 H 0.3691 0.16849 0.82462 0.0
H880 H 0.46494 0.10543 0.83126 0.0
H881 H 0.44762 0.0708 0.80054 0.0
H882 H 0.31166 0.09749 0.80789 0.0
H883 H 0.2871 0.12527 0.79028 0.0
H884 H 0.3071 0.14437 0.81282 0.0
H885 H 0.34101 0.18966 0.79026 0.0
H886 H 0.32117 0.17065 0.76764 0.0
H887 H 0.36887 0.17376 0.76993 0.0
H888 H 0.41982 0.04428 0.76766 0.0
H889 H 0.38309 0.02648 0.73783 0.0
H890 H 0.30598 0.1076 0.75318 0.0
C891 C 0.38668 0.14756 0.81963 0.0
C892 C 0.41865 0.13997 0.83043 0.0
C893 C 0.44027 0.11172 0.82343 0.0
C894 C 0.43071 0.09203 0.80588 0.0
C895 C 0.39924 0.10063 0.79548 0.0
C896 C 0.37746 0.12762 0.80226 0.0
C897 C 0.34491 0.13162 0.78859 0.0
C898 C 0.31067 0.12424 0.80061 0.0
C899 C 0.34396 0.16861 0.77851 0.0
C900 C 0.3517 0.10278 0.77294 0.0
C901 C 0.38321 0.08523 0.77705 0.0
C902 C 0.39505 0.05786 0.76442 0.0
C903 C 0.37404 0.04802 0.74737 0.0
C904 C 0.3413 0.06531 0.74303 0.0
C905 C 0.3304 0.09325 0.75608 0.0
H906 H 0.84416 0.38351 0.81976 0.0
H907 H 0.80978 0.48054 0.78979 0.0
H908 H 0.83823 0.46114 0.75773 0.0
H909 H 0.92908 0.37435 0.79411 0.0
H910 H 0.92586 0.32674 0.79166 0.0
H911 H 0.90429 0.34888 0.81257 0.0
H912 H 0.84414 0.32065 0.80192 0.0
H913 H 0.86553 0.29839 0.78101 0.0
H914 H 0.8278 0.32675 0.77615 0.0
H915 H 0.87136 0.43164 0.72892 0.0
H916 H 0.9019 0.39196 0.70468 0.0
H917 H 0.9122 0.312 0.75227 0.0
C918 C 0.84292 0.40068 0.80645 0.0
C919 C 0.82486 0.43368 0.80729 0.0
C920 C 0.82328 0.45516 0.78946 0.0
C921 C 0.83954 0.44441 0.77122 0.0
C922 C 0.857 0.41174 0.77082 0.0
C923 C 0.85844 0.38994 0.78789 0.0
C924 C 0.87735 0.35531 0.78297 0.0
C925 C 0.91116 0.35108 0.79611 0.0
C926 C 0.8522 0.32339 0.78567 0.0
C927 C 0.88641 0.36114 0.76055 0.0
C928 C 0.87479 0.39408 0.75394 0.0
C929 C 0.88048 0.40575 0.73394 0.0
C930 C 0.8981 0.3831 0.72028 0.0
C931 C 0.90955 0.34881 0.72647 0.0
C932 C 0.90359 0.3379 0.74698 0.0
H933 H 0.6171 0.82221 0.83129 0.0
H934 H 0.524 0.88685 0.84261 0.0
H935 H 0.54145 0.9271 0.8143 0.0
H936 H 0.67648 0.89436 0.8193 0.0
H937 H 0.69958 0.86991 0.79983 0.0
H938 H 0.67958 0.84662 0.82094 0.0
H939 H 0.64349 0.8078 0.79554 0.0
H940 H 0.66334 0.831 0.77435 0.0
H941 H 0.61564 0.82899 0.77654 0.0
H942 H 0.56891 0.95942 0.7833 0.0
H943 H 0.60525 0.98228 0.75463 0.0
H944 H 0.6803 0.89635 0.76425 0.0
C945 C 0.60015 0.84466 0.82779 0.0
C946 C 0.56891 0.85108 0.83922 0.0
C947 C 0.54809 0.88136 0.83426 0.0
C948 C 0.55773 0.90428 0.81808 0.0
C949 C 0.58851 0.89688 0.80703 0.0
C950 C 0.60952 0.86789 0.81184 0.0
C951 C 0.64154 0.86587 0.7979 0.0
C952 C 0.67635 0.86941 0.81023 0.0
C953 C 0.64095 0.83137 0.78534 0.0
C954 C 0.63531 0.89816 0.78437 0.0
C955 C 0.6045 0.91567 0.78975 0.0
C956 C 0.59314 0.9459 0.77909 0.0
C957 C 0.61387 0.95863 0.76271 0.0
C958 C 0.64588 0.94141 0.75715 0.0
C959 C 0.6564 0.91063 0.76821 0.0
H960 H 0.14384 0.26041 0.41127 0.0
H961 H 0.04991 0.23479 0.37557 0.0
H962 H 0.07537 0.17699 0.36665 0.0
H963 H 0.20667 0.21935 0.37636 0.0
H964 H 0.23527 0.20365 0.3967 0.0
H965 H 0.20951 0.24351 0.40009 0.0
H966 H 0.18151 0.21662 0.43279 0.0
H967 H 0.20711 0.17668 0.42949 0.0
H968 H 0.15939 0.17413 0.43139 0.0
H969 H 0.10937 0.11992 0.36372 0.0
H970 H 0.15205 0.06966 0.36479 0.0
H971 H 0.22557 0.13389 0.40023 0.0
C972 C 0.12866 0.24278 0.40147 0.0
C973 C 0.09429 0.25207 0.39439 0.0
C974 C 0.07572 0.22822 0.38148 0.0
C975 C 0.09014 0.19525 0.37626 0.0
C976 C 0.1237 0.18668 0.38378 0.0
C977 C 0.14298 0.20992 0.39589 0.0
C978 C 0.17859 0.19422 0.40191 0.0
C979 C 0.20933 0.21651 0.39324 0.0
C980 C 0.18182 0.19017 0.42528 0.0
C981 C 0.17602 0.15841 0.39151 0.0
C982 C 0.14404 0.15446 0.38123 0.0
C983 C 0.13477 0.12285 0.37143 0.0
C984 C 0.15898 0.09453 0.37212 0.0
C985 C 0.19204 0.09841 0.38227 0.0
C986 C 0.20067 0.13073 0.392 0.0
H987 H 0.90108 0.15433 0.37049 0.0
H988 H 0.92065 0.18184 0.43395 0.0
H989 H 0.86686 0.1484 0.44402 0.0
H990 H 0.8108 0.16884 0.37135 0.0
H991 H 0.79901 0.133 0.35437 0.0
H992 H 0.84207 0.15357 0.35256 0.0
H993 H 0.87284 0.0925 0.35766 0.0
H994 H 0.82981 0.07154 0.359 0.0
H995 H 0.86158 0.06543 0.37949 0.0
H996 H 0.8066 0.1169 0.44643 0.0
H997 H 0.74839 0.08712 0.44101 0.0
H998 H 0.76818 0.08483 0.37568 0.0
C999 C 0.89454 0.15263 0.38657 0.0
C1000 C 0.91515 0.17051 0.40143 0.0
C1001 C 0.90564 0.16775 0.42232 0.0
C1002 C 0.87492 0.14911 0.42817 0.0
C1003 C 0.85416 0.13332 0.41294 0.0
C1004 C 0.86392 0.13456 0.39259 0.0
C1005 C 0.83606 0.11786 0.37893 0.0
C1006 C 0.82111 0.14494 0.3634 0.0
C1007 C 0.85096 0.08487 0.36814 0.0
C1008 C 0.80862 0.10777 0.39466 0.0
C1009 C 0.81949 0.11646 0.41424 0.0
C1010 C 0.79797 0.10979 0.43115 0.0
C1011 C 0.76486 0.09315 0.42792 0.0
C1012 C 0.75358 0.08381 0.40792 0.0
C1013 C 0.77577 0.0917 0.39118 0.0
H1014 H 0.91206 0.81172 0.36957 0.0
H1015 H 0.86427 0.72161 0.40058 0.0
H1016 H 0.80881 0.75666 0.40512 0.0
H1017 H 0.8753 0.87868 0.40146 0.0
H1018 H 0.87015 0.90997 0.38072 0.0
H1019 H 0.90487 0.87716 0.37991 0.0
H1020 H 0.88092 0.8554 0.3448 0.0
H1021 H 0.84581 0.88786 0.34562 0.0
H1022 H 0.83519 0.84145 0.34246 0.0
H1023 H 0.75821 0.80271 0.40541 0.0
H1024 H 0.7201 0.85639 0.40483 0.0
H1025 H 0.8033 0.91495 0.37387 0.0
C1026 C 0.88996 0.79911 0.37727 0.0
C1027 C 0.89224 0.76381 0.38455 0.0
C1028 C 0.86296 0.74865 0.39489 0.0
C1029 C 0.83139 0.76828 0.3974 0.0
C1030 C 0.82994 0.80294 0.38962 0.0
C1031 C 0.85875 0.81822 0.38001 0.0
C1032 C 0.85149 0.85615 0.37361 0.0
C1033 C 0.87695 0.88201 0.38459 0.0
C1034 C 0.85346 0.86044 0.35024 0.0
C1035 C 0.81389 0.86013 0.38108 0.0
C1036 C 0.80163 0.82916 0.39011 0.0
C1037 C 0.7676 0.82698 0.39833 0.0
C1038 C 0.74604 0.85747 0.39777 0.0
C1039 C 0.75879 0.88967 0.38919 0.0
C1040 C 0.7929 0.89066 0.38047 0.0
H1041 H 0.13409 0.77161 0.38525 0.0
H1042 H 0.0574 0.85127 0.40465 0.0
H1043 H 0.10618 0.88843 0.41701 0.0
H1044 H 0.20172 0.7849 0.42327 0.0
H1045 H 0.23803 0.78204 0.40551 0.0
H1046 H 0.19721 0.75836 0.40048 0.0
H1047 H 0.19105 0.78951 0.3652 0.0
H1048 H 0.23223 0.81259 0.36993 0.0
H1049 H 0.19252 0.83736 0.36384 0.0
H1050 H 0.16258 0.91623 0.42872 0.0
H1051 H 0.22287 0.94143 0.43006 0.0
H1052 H 0.26303 0.85039 0.3968 0.0
C1053 C 0.12698 0.7969 0.39181 0.0
C1054 C 0.091 0.80723 0.39458 0.0
C1055 C 0.08412 0.84112 0.40326 0.0
C1056 C 0.11183 0.86283 0.41028 0.0
C1057 C 0.14657 0.85115 0.40788 0.0
C1058 C 0.15434 0.81972 0.39813 0.0
C1059 C 0.1941 0.81576 0.39505 0.0
C1060 C 0.2086 0.78333 0.40678 0.0
C1061 C 0.20299 0.8137 0.37215 0.0
C1062 C 0.2073 0.85016 0.40446 0.0
C1063 C 0.1794 0.86944 0.4124 0.0
C1064 C 0.18457 0.90181 0.42216 0.0
C1065 C 0.21891 0.91597 0.42272 0.0
C1066 C 0.24738 0.89853 0.41285 0.0
C1067 C 0.24178 0.86445 0.40436 0.0
H1068 H 0.17488 0.89002 0.71049 0.0
H1069 H 0.20828 0.88452 0.64725 0.0
H1070 H 0.17399 0.82911 0.64268 0.0
H1071 H 0.17345 0.79299 0.72046 0.0
H1072 H 0.13397 0.79538 0.73585 0.0
H1073 H 0.16425 0.83253 0.73498 0.0
H1074 H 0.11266 0.87391 0.72364 0.0
H1075 H 0.08227 0.83696 0.72452 0.0
H1076 H 0.08658 0.8626 0.70133 0.0
H1077 H 0.1337 0.77745 0.64404 0.0
H1078 H 0.08671 0.73345 0.65065 0.0
H1079 H 0.07735 0.7723 0.71289 0.0
C1080 C 0.17526 0.87669 0.69583 0.0
C1081 C 0.19406 0.89123 0.67919 0.0
C1082 C 0.19378 0.87364 0.6601 0.0
C1083 C 0.17464 0.84212 0.65741 0.0
C1084 C 0.15591 0.8286 0.67398 0.0
C1085 C 0.15587 0.84526 0.69281 0.0
C1086 C 0.13113 0.82645 0.70752 0.0
C1087 C 0.15195 0.81091 0.72578 0.0
C1088 C 0.1014 0.85147 0.71466 0.0
C1089 C 0.11668 0.79726 0.69383 0.0
C1090 C 0.13184 0.79875 0.67466 0.0
C1091 C 0.1218 0.77575 0.65903 0.0
C1092 C 0.09499 0.75091 0.66294 0.0
C1093 C 0.07829 0.74944 0.68228 0.0
C1094 C 0.08983 0.77253 0.69802 0.0
H1095 H 0.24248 0.1444 0.67092 0.0
H1096 H 0.21674 0.05182 0.63423 0.0
H1097 H 0.15488 0.07247 0.63079 0.0
H1098 H 0.16508 0.14835 0.69839 0.0
H1099 H 0.16039 0.19602 0.69816 0.0
H1100 H 0.2038 0.17636 0.69612 0.0
H1101 H 0.21493 0.21022 0.66216 0.0
H1102 H 0.17191 0.23081 0.66439 0.0
H1103 H 0.18301 0.20664 0.64155 0.0
H1104 H 0.09409 0.09831 0.63587 0.0
H1105 H 0.04061 0.13332 0.64383 0.0
H1106 H 0.10745 0.21217 0.67392 0.0
C1107 C 0.22414 0.12907 0.66162 0.0
C1108 C 0.23421 0.09613 0.65322 0.0
C1109 C 0.20934 0.07671 0.64126 0.0
C1110 C 0.17416 0.08826 0.63913 0.0
C1111 C 0.16449 0.11978 0.64862 0.0
C1112 C 0.18896 0.14051 0.65908 0.0
C1113 C 0.17142 0.17294 0.66814 0.0
C1114 C 0.17542 0.17342 0.69159 0.0
C1115 C 0.18619 0.20718 0.65848 0.0
C1116 C 0.1332 0.16648 0.66173 0.0
C1117 C 0.12969 0.13561 0.65059 0.0
C1118 C 0.09658 0.12308 0.64413 0.0
C1119 C 0.06631 0.14322 0.64873 0.0
C1120 C 0.06939 0.1758 0.65947 0.0
C1121 C 0.10353 0.18722 0.66604 0.0
H1122 H 0.79605 0.13813 0.69912 0.0
H1123 H 0.80248 0.08229 0.64114 0.0
H1124 H 0.82979 0.13498 0.62546 0.0
H1125 H 0.77109 0.22284 0.67695 0.0
H1126 H 0.79629 0.24839 0.6953 0.0
H1127 H 0.77827 0.20575 0.70244 0.0
H1128 H 0.84118 0.18377 0.71313 0.0
H1129 H 0.85895 0.22667 0.7065 0.0
H1130 H 0.87711 0.18716 0.69512 0.0
H1131 H 0.85943 0.19272 0.61645 0.0
H1132 H 0.89036 0.25086 0.61544 0.0
H1133 H 0.85771 0.27146 0.67767 0.0
C1134 C 0.80298 0.13687 0.6831 0.0
C1135 C 0.79737 0.10557 0.67156 0.0
C1136 C 0.80735 0.10532 0.65064 0.0
C1137 C 0.8224 0.13541 0.64142 0.0
C1138 C 0.8268 0.1659 0.65315 0.0
C1139 C 0.81739 0.16689 0.67353 0.0
C1140 C 0.82505 0.20298 0.68275 0.0
C1141 C 0.79061 0.22105 0.68977 0.0
C1142 C 0.85219 0.19994 0.70041 0.0
C1143 C 0.84074 0.22194 0.66445 0.0
C1144 C 0.84159 0.20007 0.64751 0.0
C1145 C 0.85815 0.21044 0.62942 0.0
C1146 C 0.87535 0.24354 0.62889 0.0
C1147 C 0.8752 0.26599 0.64619 0.0
C1148 C 0.85677 0.25546 0.66393 0.0
H1149 H 0.88592 0.83313 0.66421 0.0
H1150 H 0.83734 0.73596 0.68661 0.0
H1151 H 0.77946 0.7663 0.68878 0.0
H1152 H 0.83445 0.89369 0.69607 0.0
H1153 H 0.83092 0.92716 0.67637 0.0
H1154 H 0.86889 0.89804 0.67718 0.0
H1155 H 0.85585 0.87931 0.63974 0.0
H1156 H 0.81751 0.90794 0.63895 0.0
H1157 H 0.8128 0.86136 0.63316 0.0
H1158 H 0.72676 0.80582 0.68741 0.0
H1159 H 0.68297 0.85438 0.68582 0.0
H1160 H 0.76514 0.92628 0.66421 0.0
C1161 C 0.86318 0.81854 0.66988 0.0
C1162 C 0.86593 0.78221 0.67513 0.0
C1163 C 0.83559 0.76375 0.68231 0.0
C1164 C 0.80265 0.7807 0.68358 0.0
C1165 C 0.80049 0.81617 0.67769 0.0
C1166 C 0.82991 0.83509 0.67122 0.0
C1167 C 0.82 0.87301 0.66578 0.0
C1168 C 0.83973 0.89954 0.67968 0.0
C1169 C 0.82696 0.88085 0.64306 0.0
C1170 C 0.78052 0.87229 0.67024 0.0
C1171 C 0.76984 0.83917 0.67697 0.0
C1172 C 0.73476 0.83196 0.68222 0.0
C1173 C 0.71004 0.8597 0.68116 0.0
C1174 C 0.72058 0.89425 0.67498 0.0
C1175 C 0.75617 0.90027 0.66903 0.0
H1176 H 0.60498 0.70022 0.95078 0.0
H1177 H 0.61907 0.77482 0.90068 0.0
H1178 H 0.66379 0.73524 0.88552 0.0
H1179 H 0.6999 0.66909 0.95325 0.0
H1180 H 0.68637 0.62416 0.95891 0.0
H1181 H 0.65977 0.66099 0.96745 0.0
H1182 H 0.60496 0.63377 0.94903 0.0
H1183 H 0.63147 0.59736 0.94001 0.0
H1184 H 0.60714 0.62459 0.92201 0.0
H1185 H 0.69975 0.68427 0.87324 0.0
H1186 H 0.72967 0.62738 0.8663 0.0
H1187 H 0.69375 0.58636 0.92482 0.0
C1188 C 0.61844 0.70885 0.93704 0.0
C1189 C 0.60861 0.74057 0.92689 0.0
C1190 C 0.6262 0.75056 0.90867 0.0
C1191 C 0.65164 0.72828 0.89994 0.0
C1192 C 0.65944 0.69632 0.90976 0.0
C1193 C 0.64391 0.68686 0.9281 0.0
C1194 C 0.65506 0.64986 0.93469 0.0
C1195 C 0.67656 0.65111 0.95477 0.0
C1196 C 0.62273 0.62495 0.93653 0.0
C1197 C 0.67826 0.63962 0.91684 0.0
C1198 C 0.68059 0.66687 0.90271 0.0
C1199 C 0.69883 0.66299 0.88441 0.0
C1200 C 0.71573 0.63057 0.88061 0.0
C1201 C 0.71432 0.60243 0.89507 0.0
C1202 C 0.69517 0.60717 0.91338 0.0
H1203 H 0.40605 0.67462 0.86727 0.0
H1204 H 0.41226 0.67609 0.93356 0.0
H1205 H 0.35817 0.63892 0.93539 0.0
H1206 H 0.31089 0.67957 0.86314 0.0
H1207 H 0.30819 0.64984 0.84162 0.0
H1208 H 0.3474 0.67661 0.84552 0.0
H1209 H 0.38672 0.62003 0.84544 0.0
H1210 H 0.3477 0.59318 0.84127 0.0
H1211 H 0.37661 0.58407 0.86276 0.0
H1212 H 0.30253 0.60237 0.92989 0.0
H1213 H 0.25338 0.56423 0.91732 0.0
H1214 H 0.28427 0.58687 0.85477 0.0
C1215 C 0.39603 0.66704 0.88215 0.0
C1216 C 0.41339 0.67802 0.90026 0.0
C1217 C 0.39966 0.66744 0.91948 0.0
C1218 C 0.36875 0.64668 0.92068 0.0
C1219 C 0.35199 0.63669 0.90253 0.0
C1220 C 0.36537 0.64619 0.88363 0.0
C1221 C 0.34296 0.63119 0.86642 0.0
C1222 C 0.32638 0.66109 0.85341 0.0
C1223 C 0.3648 0.60559 0.8532 0.0
C1224 C 0.31499 0.61162 0.87858 0.0
C1225 C 0.32034 0.6154 0.89938 0.0
C1226 C 0.29803 0.59924 0.91362 0.0
C1227 C 0.27008 0.57783 0.90636 0.0
C1228 C 0.26506 0.57263 0.88509 0.0
C1229 C 0.28745 0.59034 0.87112 0.0
H1230 H 0.41082 0.26222 0.91289 0.0
H1231 H 0.33026 0.17973 0.91559 0.0
H1232 H 0.28379 0.22526 0.90945 0.0
H1233 H 0.35913 0.33544 0.9352 0.0
H1234 H 0.37821 0.36727 0.91776 0.0
H1235 H 0.4037 0.32917 0.92591 0.0
H1236 H 0.4134 0.3121 0.88803 0.0
H1237 H 0.3874 0.34958 0.87967 0.0
H1238 H 0.37539 0.30541 0.87152 0.0
H1239 H 0.24718 0.27947 0.90028 0.0
H1240 H 0.22299 0.33702 0.88905 0.0
H1241 H 0.32964 0.38172 0.88899 0.0
C1242 C 0.38346 0.25361 0.91297 0.0
C1243 C 0.37422 0.21736 0.91504 0.0
C1244 C 0.33793 0.20739 0.91428 0.0
C1245 C 0.31142 0.23305 0.91076 0.0
C1246 C 0.32182 0.26836 0.90793 0.0
C1247 C 0.35702 0.27858 0.90908 0.0
C1248 C 0.36197 0.31726 0.9034 0.0
C1249 C 0.37661 0.33854 0.92166 0.0
C1250 C 0.38594 0.3213 0.88454 0.0
C1251 C 0.324 0.3273 0.89853 0.0
C1252 C 0.30118 0.29892 0.9015 0.0
C1253 C 0.26484 0.30181 0.89784 0.0
C1254 C 0.25146 0.3346 0.89114 0.0
C1255 C 0.27443 0.36404 0.88774 0.0
C1256 C 0.31123 0.36003 0.89151 0.0
H1257 H 0.72583 0.36917 0.86299 0.0
H1258 H 0.73815 0.40517 0.92559 0.0
H1259 H 0.67847 0.38149 0.93378 0.0
H1260 H 0.63368 0.39307 0.85849 0.0
H1261 H 0.62214 0.35563 0.84263 0.0
H1262 H 0.66648 0.37375 0.84193 0.0
H1263 H 0.69281 0.31188 0.85082 0.0
H1264 H 0.64861 0.29348 0.85124 0.0
H1265 H 0.6774 0.2886 0.87323 0.0
H1266 H 0.61883 0.35189 0.93523 0.0
H1267 H 0.56369 0.31809 0.93027 0.0
H1268 H 0.587 0.30843 0.86543 0.0
C1269 C 0.71617 0.3714 0.87851 0.0
C1270 C 0.7366 0.38827 0.89382 0.0
C1271 C 0.72284 0.39188 0.91378 0.0
C1272 C 0.68901 0.37871 0.91851 0.0
C1273 C 0.66917 0.3628 0.90295 0.0
C1274 C 0.68215 0.35924 0.88335 0.0
C1275 C 0.65505 0.34207 0.8693 0.0
C1276 C 0.64367 0.36766 0.85207 0.0
C1277 C 0.66932 0.30692 0.86065 0.0
C1278 C 0.6251 0.33574 0.8842 0.0
C1279 C 0.63379 0.34786 0.90351 0.0
C1280 C 0.61139 0.34283 0.92009 0.0
C1281 C 0.57973 0.3239 0.917 0.0
C1282 C 0.57044 0.31055 0.89736 0.0
C1283 C 0.59314 0.31778 0.88069 0.0
H1284 H 0.61423 0.24579 0.1352 0.0
H1285 H 0.58675 0.22663 0.19853 0.0
H1286 H 0.61228 0.28465 0.20818 0.0
H1287 H 0.6985 0.29038 0.14552 0.0
H1288 H 0.69308 0.32172 0.12481 0.0
H1289 H 0.6731 0.27829 0.1231 0.0
H1290 H 0.61173 0.30765 0.11659 0.0
H1291 H 0.63143 0.35118 0.11872 0.0
H1292 H 0.59471 0.33898 0.13487 0.0
H1293 H 0.64022 0.34434 0.21103 0.0
H1294 H 0.67362 0.40061 0.20733 0.0
H1295 H 0.68275 0.38215 0.14214 0.0
C1296 C 0.61424 0.25366 0.15112 0.0
C1297 C 0.59835 0.23199 0.16618 0.0
C1298 C 0.59826 0.24323 0.1868 0.0
C1299 C 0.61275 0.27607 0.1924 0.0
C1300 C 0.62718 0.29742 0.17715 0.0
C1301 C 0.62844 0.28662 0.15697 0.0
C1302 C 0.64564 0.31481 0.14367 0.0
C1303 C 0.6796 0.30044 0.13369 0.0
C1304 C 0.6193 0.32899 0.12751 0.0
C1305 C 0.65413 0.34286 0.15959 0.0
C1306 C 0.64302 0.3323 0.17878 0.0
C1307 C 0.64893 0.35303 0.19609 0.0
C1308 C 0.66775 0.38494 0.19385 0.0
C1309 C 0.68029 0.39579 0.17445 0.0
C1310 C 0.67268 0.37484 0.15706 0.0
H1311 H 0.6019 0.65791 0.16462 0.0
H1312 H 0.64346 0.70928 0.21934 0.0
H1313 H 0.7022 0.68335 0.21276 0.0
H1314 H 0.65207 0.57489 0.17313 0.0
H1315 H 0.65782 0.56776 0.14611 0.0
H1316 H 0.619 0.59065 0.15518 0.0
H1317 H 0.63396 0.64373 0.13135 0.0
H1318 H 0.67338 0.62146 0.12265 0.0
H1319 H 0.67667 0.66523 0.13364 0.0
H1320 H 0.75746 0.65692 0.19856 0.0
H1321 H 0.80318 0.61993 0.18242 0.0
H1322 H 0.72447 0.57946 0.13947 0.0
C1323 C 0.62289 0.66308 0.17562 0.0
C1324 C 0.61791 0.68654 0.19228 0.0
C1325 C 0.64662 0.69252 0.20606 0.0
C1326 C 0.68016 0.67778 0.20252 0.0
C1327 C 0.6844 0.65624 0.18547 0.0
C1328 C 0.65632 0.64781 0.17266 0.0
C1329 C 0.66779 0.62252 0.15596 0.0
C1330 C 0.648 0.58684 0.15771 0.0
C1331 C 0.66264 0.63925 0.13464 0.0
C1332 C 0.70685 0.61855 0.16124 0.0
C1333 C 0.71594 0.63885 0.17807 0.0
C1334 C 0.75064 0.64059 0.18551 0.0
C1335 C 0.77651 0.61983 0.17603 0.0
C1336 C 0.76735 0.59702 0.1596 0.0
C1337 C 0.73218 0.59687 0.15191 0.0
H1338 H 0.31346 0.57866 0.14648 0.0
H1339 H 0.28169 0.59095 0.2098 0.0
H1340 H 0.31899 0.645 0.21236 0.0
H1341 H 0.40416 0.60332 0.15408 0.0
H1342 H 0.40745 0.62561 0.12972 0.0
H1343 H 0.37678 0.58927 0.13284 0.0
H1344 H 0.3252 0.62978 0.12037 0.0
H1345 H 0.35568 0.66641 0.11746 0.0
H1346 H 0.31696 0.67117 0.1333 0.0
H1347 H 0.36069 0.69714 0.20796 0.0
H1348 H 0.40683 0.74035 0.19799 0.0
H1349 H 0.41249 0.69169 0.13795 0.0
C1350 C 0.31463 0.5923 0.16103 0.0
C1351 C 0.29475 0.58038 0.17799 0.0
C1352 C 0.29646 0.59971 0.19654 0.0
C1353 C 0.31756 0.6304 0.19814 0.0
C1354 C 0.33671 0.64135 0.18106 0.0
C1355 C 0.33561 0.62269 0.16292 0.0
C1356 C 0.35964 0.63907 0.14701 0.0
C1357 C 0.38873 0.61276 0.14055 0.0
C1358 C 0.33807 0.6524 0.12844 0.0
C1359 C 0.37495 0.66967 0.15913 0.0
C1360 C 0.36107 0.67085 0.17864 0.0
C1361 C 0.37175 0.69645 0.19274 0.0
C1362 C 0.39798 0.7209 0.1869 0.0
C1363 C 0.41352 0.71926 0.16722 0.0
C1364 C 0.40119 0.69371 0.15309 0.0
H1365 H 0.23377 0.33435 0.15609 0.0
H1366 H 0.27309 0.42756 0.12413 0.0
H1367 H 0.33451 0.40588 0.12828 0.0
H1368 H 0.29874 0.32815 0.19244 0.0
H1369 H 0.30329 0.28046 0.19251 0.0
H1370 H 0.26178 0.30041 0.18493 0.0
H1371 H 0.26345 0.26788 0.15008 0.0
H1372 H 0.30443 0.24682 0.15781 0.0
H1373 H 0.30233 0.2718 0.13425 0.0
H1374 H 0.39144 0.38004 0.14173 0.0
H1375 H 0.44034 0.34491 0.15663 0.0
H1376 H 0.36394 0.26461 0.17578 0.0
C1377 C 0.25515 0.3495 0.14926 0.0
C1378 C 0.24879 0.38301 0.1402 0.0
C1379 C 0.27753 0.40221 0.1316 0.0
C1380 C 0.31249 0.3901 0.13383 0.0
C1381 C 0.31815 0.35817 0.14412 0.0
C1382 C 0.29027 0.33743 0.15101 0.0
C1383 C 0.30382 0.30455 0.16195 0.0
C1384 C 0.29115 0.30336 0.18428 0.0
C1385 C 0.29287 0.27076 0.15032 0.0
C1386 C 0.34353 0.31087 0.16081 0.0
C1387 C 0.35123 0.34205 0.15062 0.0
C1388 C 0.38587 0.35488 0.14913 0.0
C1389 C 0.41354 0.3346 0.15766 0.0
C1390 C 0.40656 0.30142 0.16724 0.0
C1391 C 0.37079 0.28984 0.16889 0.0
H1392 H 0.94378 0.28571 0.48318 0.0
H1393 H 0.04056 0.33927 0.46424 0.0
H1394 H 0.05844 0.3456 0.50037 0.0
H1395 H 0.92808 0.33984 0.52819 0.0
H1396 H 0.91177 0.30322 0.54332 0.0
H1397 H 0.90616 0.30288 0.51592 0.0
H1398 H 0.93812 0.24209 0.51414 0.0
H1399 H 0.94375 0.2422 0.54152 0.0
H1400 H 0.9819 0.23741 0.52524 0.0
H1401 H 0.06659 0.34555 0.53851 0.0
H1402 H 0.065 0.33831 0.57596 0.0
H1403 H 0.96253 0.28594 0.57106 0.0
C1404 C 0.96858 0.29912 0.48652 0.0
C1405 C 0.99071 0.31194 0.47054 0.0
C1406 C 0.02322 0.32876 0.47592 0.0
C1407 C 0.03354 0.33273 0.49651 0.0
C1408 C 0.01112 0.31988 0.51175 0.0
C1409 C 0.9793 0.3034 0.50706 0.0
C1410 C 0.96041 0.29151 0.52645 0.0
C1411 C 0.92447 0.3105 0.52859 0.0
C1412 C 0.95578 0.25089 0.52685 0.0
C1413 C 0.98668 0.30373 0.54279 0.0
C1414 C 0.01571 0.32006 0.53388 0.0
C1415 C 0.04398 0.33284 0.54561 0.0
C1416 C 0.04288 0.32846 0.56692 0.0
C1417 C 0.01373 0.31146 0.57654 0.0
C1418 C 0.98499 0.29938 0.56423 0.0
H1419 H 0.67712 0.97532 0.59738 0.0
H1420 H 0.72634 0.07945 0.60052 0.0
H1421 H 0.73619 0.07846 0.56332 0.0
H1422 H 0.73509 0.93949 0.55689 0.0
H1423 H 0.69943 0.91554 0.54451 0.0
H1424 H 0.69826 0.92311 0.57171 0.0
H1425 H 0.63652 0.95282 0.56778 0.0
H1426 H 0.63756 0.94547 0.54058 0.0
H1427 H 0.63116 0.98972 0.55036 0.0
H1428 H 0.73734 0.0685 0.52557 0.0
H1429 H 0.73125 0.0491 0.48966 0.0
H1430 H 0.68169 0.95112 0.51003 0.0
C1431 C 0.69057 -0.00248 0.59024 0.0
C1432 C 0.70085 0.02756 0.60191 0.0
C1433 C 0.71786 0.05638 0.59192 0.0
C1434 C 0.72373 0.05599 0.57077 0.0
C1435 C 0.71256 0.02651 0.55962 0.0
C1436 C 0.69652 -0.00234 0.56895 0.0
C1437 C 0.68586 0.97003 0.55308 0.0
C1438 C 0.70586 0.93496 0.55677 0.0
C1439 C 0.64537 0.96418 0.55295 0.0
C1440 C 0.69807 0.9881 0.53347 0.0
C1441 C 0.71346 0.02063 0.53766 0.0
C1442 C 0.72558 0.04293 0.52211 0.0
C1443 C 0.72183 0.03179 0.50172 0.0
C1444 C 0.70616 -0.00144 0.49691 0.0
C1445 C 0.69436 0.97639 0.51314 0.0
H1446 H 0.02966 0.73179 0.56834 0.0
H1447 H 0.94012 0.66431 0.58354 0.0
H1448 H 0.92752 0.6559 0.54653 0.0
H1449 H 0.98987 0.77553 0.52494 0.0
H1450 H 0.03067 0.77672 0.51066 0.0
H1451 H 0.03204 0.77727 0.5382 0.0
H1452 H 0.07288 0.72183 0.53839 0.0
H1453 H 0.07187 0.72128 0.51086 0.0
H1454 H 0.05879 0.68231 0.52506 0.0
H1455 H 0.92468 0.65633 0.50667 0.0
H1456 H 0.93549 0.66114 0.46925 0.0
H1457 H 0.02683 0.72824 0.48138 0.0
C1458 C 0.00718 0.71544 0.56398 0.0
C1459 C 0.98572 0.69895 0.57897 0.0
C1460 C 0.95709 0.67709 0.57242 0.0
C1461 C 0.94959 0.6724 0.55139 0.0
C1462 C 0.97107 0.68956 0.53704 0.0
C1463 C -0.00049 0.71038 0.54318 0.0
C1464 C 0.01937 0.72526 0.52499 0.0
C1465 C 0.01788 0.76611 0.52469 0.0
C1466 C 0.058 0.71186 0.52482 0.0
C1467 C -0.00214 0.70958 0.50755 0.0
C1468 C 0.96985 0.68929 0.51465 0.0
C1469 C 0.94659 0.67217 0.50105 0.0
C1470 C 0.95271 0.67524 0.47981 0.0
C1471 C 0.98205 0.69494 0.47236 0.0
C1472 C 0.00435 0.71272 0.48656 0.0
H1473 H 0.3161 0.02749 0.58406 0.0
H1474 H 0.26035 0.92658 0.58638 0.0
H1475 H 0.25346 0.92748 0.54891 0.0
H1476 H 0.26344 0.06602 0.54167 0.0
H1477 H 0.30117 0.08764 0.53016 0.0
H1478 H 0.3003 0.08033 0.55741 0.0
H1479 H 0.36029 0.0469 0.55541 0.0
H1480 H 0.36127 0.05398 0.52816 0.0
H1481 H 0.36441 0.00954 0.5384 0.0
H1482 H 0.25456 0.93732 0.51128 0.0
H1483 H 0.26264 0.95624 0.47554 0.0
H1484 H 0.31805 0.05092 0.49634 0.0
C1485 C 0.30198 0.00593 0.57665 0.0
C1486 C 0.2889 0.97682 0.58823 0.0
C1487 C 0.27101 0.94888 0.5779 0.0
C1488 C 0.26678 0.94924 0.55659 0.0
C1489 C 0.28055 0.97779 0.54559 0.0
C1490 C 0.29767 0.00576 0.55519 0.0
C1491 C 0.3109 0.03252 0.53945 0.0
C1492 C 0.29287 0.06878 0.54235 0.0
C1493 C 0.35164 0.03593 0.54042 0.0
C1494 C 0.29877 0.015 0.51962 0.0
C1495 C 0.28124 0.98349 0.52362 0.0
C1496 C 0.2682 0.962 0.50795 0.0
C1497 C 0.27318 0.97287 0.48762 0.0
C1498 C 0.29115 0.005 0.48295 0.0
C1499 C 0.3039 0.0264 0.4993 0.0
H1500 H 0.53411 0.77837 0.9975 0.0
H1501 H 0.43676 0.83931 0.99349 0.0
H1502 H 0.4373 0.84704 1.03107 0.0
H1503 H 0.51036 0.7308 0.04211 0.0
H1504 H 0.55442 0.72993 0.05313 0.0
H1505 H 0.54877 0.73262 1.0258 0.0
H1506 H 0.58711 0.78984 1.02491 0.0
H1507 H 0.59304 0.78722 0.05226 0.0
H1508 H 0.57515 0.82703 0.04075 0.0
H1509 H 0.44676 0.8456 0.06921 0.0
H1510 H 0.46349 0.83428 0.10508 0.0
H1511 H 0.55302 0.77093 0.08473 0.0
C1512 C 0.5135 0.79406 1.00458 0.0
C1513 C 0.48561 0.8087 0.99265 0.0
C1514 C 0.4584 0.82813 1.00242 0.0
C1515 C 0.45855 0.83266 1.02372 0.0
C1516 C 0.48595 0.81728 0.03515 0.0
C1517 C 0.51293 0.79831 1.02596 0.0
C1518 C 0.53773 0.78233 0.04195 0.0
C1519 C 0.5378 0.7415 0.04067 0.0
C1520 C 0.5755 0.79752 0.03984 0.0
C1521 C 0.5203 0.79501 0.0615 0.0
C1522 C 0.49069 0.81542 0.05722 0.0
C1523 C 0.46994 0.82964 0.07275 0.0
C1524 C 0.47959 0.82277 0.09319 0.0
C1525 C 0.50962 0.8015 0.09812 0.0
C1526 C 0.53017 0.78764 0.08183 0.0
H1527 H 0.17479 0.46117 0.06895 0.0
H1528 H 0.23028 0.56205 0.07346 0.0
H1529 H 0.23579 0.56426 0.03599 0.0
H1530 H 0.2269 0.42625 1.0265 0.0
H1531 H 0.18931 0.40493 1.01442 0.0
H1532 H 0.19026 0.41074 0.04177 0.0
H1533 H 0.12993 0.44371 0.0398 0.0
H1534 H 0.1289 0.43816 1.01245 0.0
H1535 H 0.12538 0.48197 1.02331 0.0
H1536 H 0.23391 0.55684 0.99768 0.0
H1537 H 0.22701 0.53856 0.96158 0.0
H1538 H 0.17307 0.44249 0.98137 0.0
C1539 C 0.18848 0.48346 0.06207 0.0
C1540 C 0.20182 0.5116 0.07432 0.0
C1541 C 0.21925 0.54045 0.06454 0.0
C1542 C 0.2227 0.5419 0.04319 0.0
C1543 C 0.2087 0.51423 1.03156 0.0
C1544 C 0.19213 0.4854 0.04061 0.0
C1545 C 0.17911 0.45944 1.02442 0.0
C1546 C 0.1975 0.42319 1.02693 0.0
C1547 C 0.13842 0.45561 1.02504 0.0
C1548 C 0.19097 0.4782 1.00496 0.0
C1549 C 0.2079 0.50982 1.00943 0.0
C1550 C 0.22076 0.53204 0.994 0.0
C1551 C 0.21651 0.52156 0.97348 0.0
C1552 C 0.19963 0.48902 0.96842 0.0
C1553 C 0.1866 0.46727 0.98455 0.0
H1554 H 0.44859 0.20351 0.07812 0.0
H1555 H 0.54116 0.14222 0.09688 0.0
H1556 H 0.55755 0.135 0.06076 0.0
H1557 H 0.42739 0.15117 1.03296 0.0
H1558 H 0.41365 0.18912 1.01798 0.0
H1559 H 0.40879 0.18952 0.04538 0.0
H1560 H 0.44553 0.24767 0.04742 0.0
H1561 H 0.45043 0.2475 1.02003 0.0
H1562 H 0.48926 0.24914 0.03633 0.0
H1563 H 0.56495 0.13532 1.0226 0.0
H1564 H 0.56313 0.14365 0.98517 0.0
H1565 H 0.46496 0.20301 0.99034 0.0
C1566 C 0.47212 0.1882 0.07476 0.0
C1567 C 0.49351 0.17349 0.09071 0.0
C1568 C 0.52441 0.15421 0.08527 0.0
C1569 C 0.53386 0.14971 0.06467 0.0
C1570 C 0.51218 0.16447 0.04947 0.0
C1571 C 0.48191 0.1833 0.05423 0.0
C1572 C 0.4635 0.19686 0.0349 0.0
C1573 C 0.42611 0.1807 1.03268 0.0
C1574 C 0.46211 0.23772 0.03466 0.0
C1575 C 0.4883 0.18289 1.01852 0.0
C1576 C 0.51619 0.16428 1.02735 0.0
C1577 C 0.54317 0.14974 1.01556 0.0
C1578 C 0.54197 0.15472 0.99428 0.0
C1579 C 0.51394 0.17396 0.98478 0.0
C1580 C 0.48645 0.18779 0.99712 0.0
H1581 H 0.85477 0.46006 0.9819 0.0
H1582 H 0.7536 0.50764 0.96596 0.0
H1583 H 0.73751 0.50937 1.00279 0.0
H1584 H 0.81991 0.40346 1.0229 0.0
H1585 H 0.85952 0.40782 0.03839 0.0
H1586 H 0.86239 0.41053 1.01093 0.0
H1587 H 0.89321 0.4719 1.0141 0.0
H1588 H 0.89007 0.46958 0.04155 0.0
H1589 H 0.87152 0.50703 1.02793 0.0
H1590 H 0.73543 0.51044 0.04217 0.0
H1591 H 0.74335 0.50229 0.07969 0.0
H1592 H 0.84341 0.44892 0.06934 0.0
C1593 C 0.82909 0.47048 0.98623 0.0
C1594 C 0.80536 0.48379 0.97118 0.0
C1595 C 0.77193 0.49709 0.9773 0.0
C1596 C 0.76277 0.49838 0.99816 0.0
C1597 C 0.78707 0.48556 1.0127 0.0
C1598 C 0.81922 0.47108 1.00691 0.0
C1599 C 0.84021 0.45799 1.02536 0.0
C1600 C 0.84582 0.41755 1.02433 0.0
C1601 C 0.87586 0.47781 1.02734 0.0
C1602 C 0.81521 0.46782 0.04253 0.0
C1603 C 0.7849 0.4842 0.03499 0.0
C1604 C 0.75884 0.49718 0.04814 0.0
C1605 C 0.76359 0.49269 0.06941 0.0
C1606 C 0.79379 0.47478 0.07733 0.0
C1607 C 0.81988 0.46234 0.06364 0.0
loop_
_geom_bond_atom_site_label_1
_geom_bond_atom_site_label_2
_geom_bond_distance
_geom_bond_site_symmetry_2
_ccdc_geom_bond_type
C0 C1 1.351 . S
C0 N3 1.368 1_655 S
C0 H5 0.931 . S
C1 C0 1.351 . S
C1 N2 1.373 1_655 S
C1 H29 0.930 . S
N2 C1 1.373 1_455 S
N2 C4 1.340 . S
N3 C0 1.368 1_455 S
N3 C4 1.321 . S
N3 Co6 2.135 . S
C4 N2 1.340 . S
C4 N3 1.321 . S
C4 H28 0.930 . S
H5 C0 0.931 . S
Co6 N3 2.135 . S
Co6 N9 2.121 . S
Co6 O14 2.055 . S
Co6 O17 2.039 . S
Co6 N20 2.140 1_455 S
C7 O8 1.227 . S
C7 O17 1.265 . S
O8 C7 1.227 . S
N9 Co6 2.121 . S
N9 C11 1.375 . S
N9 C12 1.313 . S
C10 C11 1.338 . S
C10 N13 1.377 . S
C10 H30 0.930 . S
C11 N9 1.375 . S
C11 C10 1.338 . S
C11 H15 0.931 . S
C12 N9 1.313 . S
C12 N13 1.344 . S
C12 H16 0.930 . S
N13 C10 1.377 . S
N13 C12 1.344 . S
O14 Co6 2.055 . S
O14 C18 1.253 . S
H15 C11 0.931 . S
H16 C12 0.930 . S
O17 Co6 2.039 . S
O17 C7 1.265 . S
C18 O14 1.253 . S
C18 O19 1.227 1_455 S
O19 C18 1.227 1_655 S
N20 Co6 2.140 1_655 S
N20 C23 1.346 . S
N20 C24 1.345 . S
C21 C22 1.387 . S
C21 C25 1.391 . S
C22 C21 1.387 . S
C22 C23 1.369 . S
C22 H31 0.929 . S
C23 N20 1.346 . S
C23 C22 1.369 . S
C23 H26 0.928 . S
C24 N20 1.345 . S
C24 C25 1.371 . S
C24 H27 0.931 . S
C25 C21 1.391 . S
C25 C24 1.371 . S
C25 H32 0.930 . S
H26 C23 0.928 . S
H27 C24 0.931 . S
H28 C4 0.930 . S
H29 C1 0.930 . S
H30 C10 0.930 . S
H31 C22 0.929 . S
H32 C25 0.930 . S
C33 C34 1.351 . S
C33 N36 1.368 1_565 S
C33 H38 0.931 . S
C34 C33 1.351 . S
C34 N35 1.373 1_565 S
C34 H62 0.930 . S
N35 C34 1.373 1_545 S
N35 C37 1.340 . S
N36 C33 1.368 1_545 S
N36 C37 1.321 . S
N36 Co39 2.135 . S
C37 N35 1.340 . S
C37 N36 1.321 . S
C37 H61 0.930 . S
H38 C33 0.931 . S
Co39 N36 2.135 . S
Co39 N42 2.121 . S
Co39 O47 2.055 . S
Co39 O50 2.039 . S
Co39 N53 2.140 1_545 S
C40 O41 1.227 . S
C40 O50 1.265 . S
O41 C40 1.227 . S
N42 Co39 2.121 . S
N42 C44 1.375 . S
N42 C45 1.313 . S
C43 C44 1.338 . S
C43 N46 1.377 . S
C43 H63 0.930 . S
C44 N42 1.375 . S
C44 C43 1.338 . S
C44 H48 0.931 . S
C45 N42 1.313 . S
C45 N46 1.344 . S
C45 H49 0.930 . S
N46 C43 1.377 . S
N46 C45 1.344 . S
O47 Co39 2.055 . S
O47 C51 1.253 . S
H48 C44 0.931 . S
H49 C45 0.930 . S
O50 Co39 2.039 . S
O50 C40 1.265 . S
C51 O47 1.253 . S
C51 O52 1.227 1_545 S
O52 C51 1.227 1_565 S
N53 Co39 2.140 1_565 S
N53 C56 1.346 . S
N53 C57 1.345 . S
C54 C55 1.387 . S
C54 C58 1.391 . S
C55 C54 1.387 . S
C55 C56 1.369 . S
C55 H64 0.929 . S
C56 N53 1.346 . S
C56 C55 1.369 . S
C56 H59 0.928 . S
C57 N53 1.345 . S
C57 C58 1.371 . S
C57 H60 0.931 . S
C58 C54 1.391 . S
C58 C57 1.371 . S
C58 H65 0.930 . S
H59 C56 0.928 . S
H60 C57 0.931 . S
H61 C37 0.930 . S
H62 C34 0.930 . S
H63 C43 0.930 . S
H64 C55 0.929 . S
H65 C58 0.930 . S
C66 C67 1.351 . S
C66 N69 1.368 1_455 S
C66 H71 0.931 . S
C67 C66 1.351 . S
C67 N68 1.373 1_455 S
C67 H95 0.930 . S
N68 C67 1.373 1_655 S
N68 C70 1.340 . S
N69 C66 1.368 1_655 S
N69 C70 1.321 . S
N69 Co72 2.135 . S
C70 N68 1.340 . S
C70 N69 1.321 . S
C70 H94 0.930 . S
H71 C66 0.931 . S
Co72 N69 2.135 . S
Co72 N75 2.121 . S
Co72 O80 2.055 . S
Co72 O83 2.039 . S
Co72 N86 2.140 1_655 S
C73 O74 1.227 . S
C73 O83 1.265 . S
O74 C73 1.227 . S
N75 Co72 2.121 . S
N75 C77 1.375 . S
N75 C78 1.313 . S
C76 C77 1.338 . S
C76 N79 1.377 . S
C76 H96 0.930 . S
C77 N75 1.375 . S
C77 C76 1.338 . S
C77 H81 0.931 . S
C78 N75 1.313 . S
C78 N79 1.344 . S
C78 H82 0.930 . S
N79 C76 1.377 . S
N79 C78 1.344 . S
O80 Co72 2.055 . S
O80 C84 1.253 . S
H81 C77 0.931 . S
H82 C78 0.930 . S
O83 Co72 2.039 . S
O83 C73 1.265 . S
C84 O80 1.253 . S
C84 O85 1.227 1_655 S
O85 C84 1.227 1_455 S
N86 Co72 2.140 1_455 S
N86 C89 1.346 . S
N86 C90 1.345 . S
C87 C88 1.387 . S
C87 C91 1.391 . S
C88 C87 1.387 . S
C88 C89 1.369 . S
C88 H97 0.929 . S
C89 N86 1.346 . S
C89 C88 1.369 . S
C89 H92 0.928 . S
C90 N86 1.345 . S
C90 C91 1.371 . S
C90 H93 0.931 . S
C91 C87 1.391 . S
C91 C90 1.371 . S
C91 H98 0.930 . S
H92 C89 0.928 . S
H93 C90 0.931 . S
H94 C70 0.930 . S
H95 C67 0.930 . S
H96 C76 0.930 . S
H97 C88 0.929 . S
H98 C91 0.930 . S
C99 C100 1.351 . S
C99 N102 1.368 1_545 S
C99 H104 0.931 . S
C100 C99 1.351 . S
C100 N101 1.373 1_545 S
C100 H128 0.930 . S
N101 C100 1.373 1_565 S
N101 C103 1.340 . S
N102 C99 1.368 1_565 S
N102 C103 1.321 . S
N102 Co105 2.135 . S
C103 N101 1.340 . S
C103 N102 1.321 . S
C103 H127 0.930 . S
H104 C99 0.931 . S
Co105 N102 2.135 . S
Co105 N108 2.121 . S
Co105 O113 2.055 . S
Co105 O116 2.039 . S
Co105 N119 2.140 1_565 S
C106 O107 1.227 . S
C106 O116 1.265 . S
O107 C106 1.227 . S
N108 Co105 2.121 . S
N108 C110 1.375 . S
N108 C111 1.313 . S
C109 C110 1.338 . S
C109 N112 1.377 . S
C109 H129 0.930 . S
C110 N108 1.375 . S
C110 C109 1.338 . S
C110 H114 0.931 . S
C111 N108 1.313 . S
C111 N112 1.344 . S
C111 H115 0.930 . S
N112 C109 1.377 . S
N112 C111 1.344 . S
O113 Co105 2.055 . S
O113 C117 1.253 . S
H114 C110 0.931 . S
H115 C111 0.930 . S
O116 Co105 2.039 . S
O116 C106 1.265 . S
C117 O113 1.253 . S
C117 O118 1.227 1_565 S
O118 C117 1.227 1_545 S
N119 Co105 2.140 1_545 S
N119 C122 1.346 . S
N119 C123 1.345 . S
C120 C121 1.387 . S
C120 C124 1.391 . S
C121 C120 1.387 . S
C121 C122 1.369 . S
C121 H130 0.929 . S
C122 N119 1.346 . S
C122 C121 1.369 . S
C122 H125 0.928 . S
C123 N119 1.345 . S
C123 C124 1.371 . S
C123 H126 0.931 . S
C124 C120 1.391 . S
C124 C123 1.371 . S
C124 H131 0.930 . S
H125 C122 0.928 . S
H126 C123 0.931 . S
H127 C103 0.930 . S
H128 C100 0.930 . S
H129 C109 0.930 . S
H130 C121 0.929 . S
H131 C124 0.930 . S
C132 C133 1.351 . S
C132 N135 1.368 1_655 S
C132 H137 0.931 . S
C133 C132 1.351 . S
C133 N134 1.373 1_655 S
C133 H161 0.930 . S
N134 C133 1.373 1_455 S
N134 C136 1.340 . S
N135 C132 1.368 1_455 S
N135 C136 1.321 . S
N135 Co138 2.135 . S
C136 N134 1.340 . S
C136 N135 1.321 . S
C136 H160 0.930 . S
H137 C132 0.931 . S
Co138 N135 2.135 . S
Co138 N141 2.121 . S
Co138 O146 2.055 . S
Co138 O149 2.039 . S
Co138 N152 2.140 1_455 S
C139 O140 1.227 . S
C139 O149 1.265 . S
O140 C139 1.227 . S
N141 Co138 2.121 . S
N141 C143 1.375 . S
N141 C144 1.313 . S
C142 C143 1.338 . S
C142 N145 1.377 . S
C142 H162 0.930 . S
C143 N141 1.375 . S
C143 C142 1.338 . S
C143 H147 0.931 . S
C144 N141 1.313 . S
C144 N145 1.344 . S
C144 H148 0.930 . S
N145 C142 1.377 . S
N145 C144 1.344 . S
O146 Co138 2.055 . S
O146 C150 1.253 . S
H147 C143 0.931 . S
H148 C144 0.930 . S
O149 Co138 2.039 . S
O149 C139 1.265 . S
C150 O146 1.253 . S
C150 O151 1.227 1_455 S
O151 C150 1.227 1_655 S
N152 Co138 2.140 1_655 S
N152 C155 1.346 . S
N152 C156 1.345 . S
C153 C154 1.387 . S
C153 C157 1.391 . S
C154 C153 1.387 . S
C154 C155 1.369 . S
C154 H163 0.929 . S
C155 N152 1.346 . S
C155 C154 1.369 . S
C155 H158 0.928 . S
C156 N152 1.345 . S
C156 C157 1.371 . S
C156 H159 0.931 . S
C157 C153 1.391 . S
C157 C156 1.371 . S
C157 H164 0.930 . S
H158 C155 0.928 . S
H159 C156 0.931 . S
H160 C136 0.930 . S
H161 C133 0.930 . S
H162 C142 0.930 . S
H163 C154 0.929 . S
H164 C157 0.930 . S
C165 C166 1.351 . S
C165 N168 1.368 1_565 S
C165 H170 0.931 . S
C166 C165 1.351 . S
C166 N167 1.373 1_565 S
C166 H194 0.930 . S
N167 C166 1.373 1_545 S
N167 C169 1.340 . S
N168 C165 1.368 1_545 S
N168 C169 1.321 . S
N168 Co171 2.135 . S
C169 N167 1.340 . S
C169 N168 1.321 . S
C169 H193 0.930 . S
H170 C165 0.931 . S
Co171 N168 2.135 . S
Co171 N174 2.121 . S
Co171 O179 2.055 . S
Co171 O182 2.039 . S
Co171 N185 2.140 1_545 S
C172 O173 1.227 . S
C172 O182 1.265 . S
O173 C172 1.227 . S
N174 Co171 2.121 . S
N174 C176 1.375 . S
N174 C177 1.313 . S
C175 C176 1.338 . S
C175 N178 1.377 . S
C175 H195 0.930 . S
C176 N174 1.375 . S
C176 C175 1.338 . S
C176 H180 0.931 . S
C177 N174 1.313 . S
C177 N178 1.344 . S
C177 H181 0.930 . S
N178 C175 1.377 . S
N178 C177 1.344 . S
O179 Co171 2.055 . S
O179 C183 1.253 . S
H180 C176 0.931 . S
H181 C177 0.930 . S
O182 Co171 2.039 . S
O182 C172 1.265 . S
C183 O179 1.253 . S
C183 O184 1.227 1_545 S
O184 C183 1.227 1_565 S
N185 Co171 2.140 1_565 S
N185 C188 1.346 . S
N185 C189 1.345 . S
C186 C187 1.387 . S
C186 C190 1.391 . S
C187 C186 1.387 . S
C187 C188 1.369 . S
C187 H196 0.929 . S
C188 N185 1.346 . S
C188 C187 1.369 . S
C188 H191 0.928 . S
C189 N185 1.345 . S
C189 C190 1.371 . S
C189 H192 0.931 . S
C190 C186 1.391 . S
C190 C189 1.371 . S
C190 H197 0.930 . S
H191 C188 0.928 . S
H192 C189 0.931 . S
H193 C169 0.930 . S
H194 C166 0.930 . S
H195 C175 0.930 . S
H196 C187 0.929 . S
H197 C190 0.930 . S
C198 C199 1.351 . S
C198 N201 1.368 1_455 S
C198 H203 0.931 . S
C199 C198 1.351 . S
C199 N200 1.373 1_455 S
C199 H227 0.930 . S
N200 C199 1.373 1_655 S
N200 C202 1.340 . S
N201 C198 1.368 1_655 S
N201 C202 1.321 . S
N201 Co204 2.135 . S
C202 N200 1.340 . S
C202 N201 1.321 . S
C202 H226 0.930 . S
H203 C198 0.931 . S
Co204 N201 2.135 . S
Co204 N207 2.121 . S
Co204 O212 2.055 . S
Co204 O215 2.039 . S
Co204 N218 2.140 1_655 S
C205 O206 1.227 . S
C205 O215 1.265 . S
O206 C205 1.227 . S
N207 Co204 2.121 . S
N207 C209 1.375 . S
N207 C210 1.313 . S
C208 C209 1.338 . S
C208 N211 1.377 . S
C208 H228 0.930 . S
C209 N207 1.375 . S
C209 C208 1.338 . S
C209 H213 0.931 . S
C210 N207 1.313 . S
C210 N211 1.344 . S
C210 H214 0.930 . S
N211 C208 1.377 . S
N211 C210 1.344 . S
O212 Co204 2.055 . S
O212 C216 1.253 . S
H213 C209 0.931 . S
H214 C210 0.930 . S
O215 Co204 2.039 . S
O215 C205 1.265 . S
C216 O212 1.253 . S
C216 O217 1.227 1_655 S
O217 C216 1.227 1_455 S
N218 Co204 2.140 1_455 S
N218 C221 1.346 . S
N218 C222 1.345 . S
C219 C220 1.387 . S
C219 C223 1.391 . S
C220 C219 1.387 . S
C220 C221 1.369 . S
C220 H229 0.929 . S
C221 N218 1.346 . S
C221 C220 1.369 . S
C221 H224 0.928 . S
C222 N218 1.345 . S
C222 C223 1.371 . S
C222 H225 0.931 . S
C223 C219 1.391 . S
C223 C222 1.371 . S
C223 H230 0.930 . S
H224 C221 0.928 . S
H225 C222 0.931 . S
H226 C202 0.930 . S
H227 C199 0.930 . S
H228 C208 0.930 . S
H229 C220 0.929 . S
H230 C223 0.930 . S
C231 C232 1.351 . S
C231 N234 1.368 1_545 S
C231 H236 0.931 . S
C232 C231 1.351 . S
C232 N233 1.373 1_545 S
C232 H260 0.930 . S
N233 C232 1.373 1_565 S
N233 C235 1.340 . S
N234 C231 1.368 1_565 S
N234 C235 1.321 . S
N234 Co237 2.135 . S
C235 N233 1.340 . S
C235 N234 1.321 . S
C235 H259 0.930 . S
H236 C231 0.931 . S
Co237 N234 2.135 . S
Co237 N240 2.121 . S
Co237 O245 2.055 . S
Co237 O248 2.039 . S
Co237 N251 2.140 1_565 S
C238 O239 1.227 . S
C238 O248 1.265 . S
O239 C238 1.227 . S
N240 Co237 2.121 . S
N240 C242 1.375 . S
N240 C243 1.313 . S
C241 C242 1.338 . S
C241 N244 1.377 . S
C241 H261 0.930 . S
C242 N240 1.375 . S
C242 C241 1.338 . S
C242 H246 0.931 . S
C243 N240 1.313 . S
C243 N244 1.344 . S
C243 H247 0.930 . S
N244 C241 1.377 . S
N244 C243 1.344 . S
O245 Co237 2.055 . S
O245 C249 1.253 . S
H246 C242 0.931 . S
H247 C243 0.930 . S
O248 Co237 2.039 . S
O248 C238 1.265 . S
C249 O245 1.253 . S
C249 O250 1.227 1_565 S
O250 C249 1.227 1_545 S
N251 Co237 2.140 1_545 S
N251 C254 1.346 . S
N251 C255 1.345 . S
C252 C253 1.387 . S
C252 C256 1.391 . S
C253 C252 1.387 . S
C253 C254 1.369 . S
C253 H262 0.929 . S
C254 N251 1.346 . S
C254 C253 1.369 . S
C254 H257 0.928 . S
C255 N251 1.345 . S
C255 C256 1.371 . S
C255 H258 0.931 . S
C256 C252 1.391 . S
C256 C255 1.371 . S
C256 H263 0.930 . S
H257 C254 0.928 . S
H258 C255 0.931 . S
H259 C235 0.930 . S
H260 C232 0.930 . S
H261 C241 0.930 . S
H262 C253 0.929 . S
H263 C256 0.930 . S
C264 C265 1.351 . S
C264 N267 1.368 . S
C264 H269 0.931 . S
C265 C264 1.351 . S
C265 N266 1.373 . S
C265 H293 0.930 . S
N266 C265 1.373 . S
N266 C268 1.340 . S
N267 C264 1.368 . S
N267 C268 1.321 . S
N267 Co270 2.135 . S
C268 N266 1.340 . S
C268 N267 1.321 . S
C268 H292 0.930 . S
H269 C264 0.931 . S
Co270 N267 2.135 . S
Co270 N273 2.121 . S
Co270 O278 2.055 . S
Co270 O281 2.039 . S
Co270 N284 2.140 . S
C271 O272 1.227 . S
C271 O281 1.265 . S
O272 C271 1.227 . S
N273 Co270 2.121 . S
N273 C275 1.375 . S
N273 C276 1.313 . S
C274 C275 1.338 . S
C274 N277 1.377 . S
C274 H294 0.930 . S
C275 N273 1.375 . S
C275 C274 1.338 . S
C275 H279 0.931 . S
C276 N273 1.313 . S
C276 N277 1.344 . S
C276 H280 0.930 . S
N277 C274 1.377 . S
N277 C276 1.344 . S
O278 Co270 2.055 . S
O278 C282 1.253 . S
H279 C275 0.931 . S
H280 C276 0.930 . S
O281 Co270 2.039 . S
O281 C271 1.265 . S
C282 O278 1.253 . S
C282 O283 1.227 . S
O283 C282 1.227 . S
N284 Co270 2.140 . S
N284 C287 1.346 . S
N284 C288 1.345 . S
C285 C286 1.387 . S
C285 C289 1.391 . S
C286 C285 1.387 . S
C286 C287 1.369 . S
C286 H295 0.929 . S
C287 N284 1.346 . S
C287 C286 1.369 . S
C287 H290 0.928 . S
C288 N284 1.345 . S
C288 C289 1.371 . S
C288 H291 0.931 . S
C289 C285 1.391 . S
C289 C288 1.371 . S
C289 H296 0.930 . S
H290 C287 0.928 . S
H291 C288 0.931 . S
H292 C268 0.930 . S
H293 C265 0.930 . S
H294 C274 0.930 . S
H295 C286 0.929 . S
H296 C289 0.930 . S
C297 C298 1.351 . S
C297 N300 1.368 . S
C297 H302 0.931 . S
C298 C297 1.351 . S
C298 N299 1.373 . S
C298 H326 0.930 . S
N299 C298 1.373 . S
N299 C301 1.340 . S
N300 C297 1.368 . S
N300 C301 1.321 . S
N300 Co303 2.135 . S
C301 N299 1.340 . S
C301 N300 1.321 . S
C301 H325 0.930 . S
H302 C297 0.931 . S
Co303 N300 2.135 . S
Co303 N306 2.121 . S
Co303 O311 2.055 . S
Co303 O314 2.039 . S
Co303 N317 2.140 . S
C304 O305 1.227 . S
C304 O314 1.265 . S
O305 C304 1.227 . S
N306 Co303 2.121 . S
N306 C308 1.375 . S
N306 C309 1.313 . S
C307 C308 1.338 . S
C307 N310 1.377 . S
C307 H327 0.930 . S
C308 N306 1.375 . S
C308 C307 1.338 . S
C308 H312 0.931 . S
C309 N306 1.313 . S
C309 N310 1.344 . S
C309 H313 0.930 . S
N310 C307 1.377 . S
N310 C309 1.344 . S
O311 Co303 2.055 . S
O311 C315 1.253 . S
H312 C308 0.931 . S
H313 C309 0.930 . S
O314 Co303 2.039 . S
O314 C304 1.265 . S
C315 O311 1.253 . S
C315 O316 1.227 . S
O316 C315 1.227 . S
N317 Co303 2.140 . S
N317 C320 1.346 . S
N317 C321 1.345 . S
C318 C319 1.387 . S
C318 C322 1.391 . S
C319 C318 1.387 . S
C319 C320 1.369 . S
C319 H328 0.929 . S
C320 N317 1.346 . S
C320 C319 1.369 . S
C320 H323 0.928 . S
C321 N317 1.345 . S
C321 C322 1.371 . S
C321 H324 0.931 . S
C322 C318 1.391 . S
C322 C321 1.371 . S
C322 H329 0.930 . S
H323 C320 0.928 . S
H324 C321 0.931 . S
H325 C301 0.930 . S
H326 C298 0.930 . S
H327 C307 0.930 . S
H328 C319 0.929 . S
H329 C322 0.930 . S
C330 C331 1.351 . S
C330 N333 1.368 . S
C330 H335 0.931 . S
C331 C330 1.351 . S
C331 N332 1.373 . S
C331 H359 0.930 . S
N332 C331 1.373 . S
N332 C334 1.340 . S
N333 C330 1.368 . S
N333 C334 1.321 . S
N333 Co336 2.135 . S
C334 N332 1.340 . S
C334 N333 1.321 . S
C334 H358 0.930 . S
H335 C330 0.931 . S
Co336 N333 2.135 . S
Co336 N339 2.121 . S
Co336 O344 2.055 . S
Co336 O347 2.039 . S
Co336 N350 2.140 . S
C337 O338 1.227 . S
C337 O347 1.265 . S
O338 C337 1.227 . S
N339 Co336 2.121 . S
N339 C341 1.375 . S
N339 C342 1.313 . S
C340 C341 1.338 . S
C340 N343 1.377 . S
C340 H360 0.930 . S
C341 N339 1.375 . S
C341 C340 1.338 . S
C341 H345 0.931 . S
C342 N339 1.313 . S
C342 N343 1.344 . S
C342 H346 0.930 . S
N343 C340 1.377 . S
N343 C342 1.344 . S
O344 Co336 2.055 . S
O344 C348 1.253 . S
H345 C341 0.931 . S
H346 C342 0.930 . S
O347 Co336 2.039 . S
O347 C337 1.265 . S
C348 O344 1.253 . S
C348 O349 1.227 . S
O349 C348 1.227 . S
N350 Co336 2.140 . S
N350 C353 1.346 . S
N350 C354 1.345 . S
C351 C352 1.387 . S
C351 C355 1.391 . S
C352 C351 1.387 . S
C352 C353 1.369 . S
C352 H361 0.929 . S
C353 N350 1.346 . S
C353 C352 1.369 . S
C353 H356 0.928 . S
C354 N350 1.345 . S
C354 C355 1.371 . S
C354 H357 0.931 . S
C355 C351 1.391 . S
C355 C354 1.371 . S
C355 H362 0.930 . S
H356 C353 0.928 . S
H357 C354 0.931 . S
H358 C334 0.930 . S
H359 C331 0.930 . S
H360 C340 0.930 . S
H361 C352 0.929 . S
H362 C355 0.930 . S
C363 C364 1.351 . S
C363 N366 1.368 . S
C363 H368 0.931 . S
C364 C363 1.351 . S
C364 N365 1.373 . S
C364 H392 0.930 . S
N365 C364 1.373 . S
N365 C367 1.340 . S
N366 C363 1.368 . S
N366 C367 1.321 . S
N366 Co369 2.135 . S
C367 N365 1.340 . S
C367 N366 1.321 . S
C367 H391 0.930 . S
H368 C363 0.931 . S
Co369 N366 2.135 . S
Co369 N372 2.121 . S
Co369 O377 2.055 . S
Co369 O380 2.039 . S
Co369 N383 2.140 . S
C370 O371 1.227 . S
C370 O380 1.265 . S
O371 C370 1.227 . S
N372 Co369 2.121 . S
N372 C374 1.375 . S
N372 C375 1.313 . S
C373 C374 1.338 . S
C373 N376 1.377 . S
C373 H393 0.930 . S
C374 N372 1.375 . S
C374 C373 1.338 . S
C374 H378 0.931 . S
C375 N372 1.313 . S
C375 N376 1.344 . S
C375 H379 0.930 . S
N376 C373 1.377 . S
N376 C375 1.344 . S
O377 Co369 2.055 . S
O377 C381 1.253 . S
H378 C374 0.931 . S
H379 C375 0.930 . S
O380 Co369 2.039 . S
O380 C370 1.265 . S
C381 O377 1.253 . S
C381 O382 1.227 . S
O382 C381 1.227 . S
N383 Co369 2.140 . S
N383 C386 1.346 . S
N383 C387 1.345 . S
C384 C385 1.387 . S
C384 C388 1.391 . S
C385 C384 1.387 . S
C385 C386 1.369 . S
C385 H394 0.929 . S
C386 N383 1.346 . S
C386 C385 1.369 . S
C386 H389 0.928 . S
C387 N383 1.345 . S
C387 C388 1.371 . S
C387 H390 0.931 . S
C388 C384 1.391 . S
C388 C387 1.371 . S
C388 H395 0.930 . S
H389 C386 0.928 . S
H390 C387 0.931 . S
H391 C367 0.930 . S
H392 C364 0.930 . S
H393 C373 0.930 . S
H394 C385 0.929 . S
H395 C388 0.930 . S
C396 C397 1.351 . S
C396 N399 1.368 . S
C396 H401 0.931 . S
C397 C396 1.351 . S
C397 N398 1.373 . S
C397 H425 0.930 . S
N398 C397 1.373 . S
N398 C400 1.340 . S
N399 C396 1.368 . S
N399 C400 1.321 . S
N399 Co402 2.135 . S
C400 N398 1.340 . S
C400 N399 1.321 . S
C400 H424 0.930 . S
H401 C396 0.931 . S
Co402 N399 2.135 . S
Co402 N405 2.121 . S
Co402 O410 2.055 . S
Co402 O413 2.039 . S
Co402 N416 2.140 . S
C403 O404 1.227 . S
C403 O413 1.265 . S
O404 C403 1.227 . S
N405 Co402 2.121 . S
N405 C407 1.375 . S
N405 C408 1.313 . S
C406 C407 1.338 . S
C406 N409 1.377 . S
C406 H426 0.930 . S
C407 N405 1.375 . S
C407 C406 1.338 . S
C407 H411 0.931 . S
C408 N405 1.313 . S
C408 N409 1.344 . S
C408 H412 0.930 . S
N409 C406 1.377 . S
N409 C408 1.344 . S
O410 Co402 2.055 . S
O410 C414 1.253 . S
H411 C407 0.931 . S
H412 C408 0.930 . S
O413 Co402 2.039 . S
O413 C403 1.265 . S
C414 O410 1.253 . S
C414 O415 1.227 . S
O415 C414 1.227 . S
N416 Co402 2.140 . S
N416 C419 1.346 . S
N416 C420 1.345 . S
C417 C418 1.387 . S
C417 C421 1.391 . S
C418 C417 1.387 . S
C418 C419 1.369 . S
C418 H427 0.929 . S
C419 N416 1.346 . S
C419 C418 1.369 . S
C419 H422 0.928 . S
C420 N416 1.345 . S
C420 C421 1.371 . S
C420 H423 0.931 . S
C421 C417 1.391 . S
C421 C420 1.371 . S
C421 H428 0.930 . S
H422 C419 0.928 . S
H423 C420 0.931 . S
H424 C400 0.930 . S
H425 C397 0.930 . S
H426 C406 0.930 . S
H427 C418 0.929 . S
H428 C421 0.930 . S
C429 C430 1.351 . S
C429 N432 1.368 . S
C429 H434 0.931 . S
C430 C429 1.351 . S
C430 N431 1.373 . S
C430 H458 0.930 . S
N431 C430 1.373 . S
N431 C433 1.340 . S
N432 C429 1.368 . S
N432 C433 1.321 . S
N432 Co435 2.135 . S
C433 N431 1.340 . S
C433 N432 1.321 . S
C433 H457 0.930 . S
H434 C429 0.931 . S
Co435 N432 2.135 . S
Co435 N438 2.121 . S
Co435 O443 2.055 . S
Co435 O446 2.039 . S
Co435 N449 2.140 . S
C436 O437 1.227 . S
C436 O446 1.265 . S
O437 C436 1.227 . S
N438 Co435 2.121 . S
N438 C440 1.375 . S
N438 C441 1.313 . S
C439 C440 1.338 . S
C439 N442 1.377 . S
C439 H459 0.930 . S
C440 N438 1.375 . S
C440 C439 1.338 . S
C440 H444 0.931 . S
C441 N438 1.313 . S
C441 N442 1.344 . S
C441 H445 0.930 . S
N442 C439 1.377 . S
N442 C441 1.344 . S
O443 Co435 2.055 . S
O443 C447 1.253 . S
H444 C440 0.931 . S
H445 C441 0.930 . S
O446 Co435 2.039 . S
O446 C436 1.265 . S
C447 O443 1.253 . S
C447 O448 1.227 . S
O448 C447 1.227 . S
N449 Co435 2.140 . S
N449 C452 1.346 . S
N449 C453 1.345 . S
C450 C451 1.387 . S
C450 C454 1.391 . S
C451 C450 1.387 . S
C451 C452 1.369 . S
C451 H460 0.929 . S
C452 N449 1.346 . S
C452 C451 1.369 . S
C452 H455 0.928 . S
C453 N449 1.345 . S
C453 C454 1.371 . S
C453 H456 0.931 . S
C454 C450 1.391 . S
C454 C453 1.371 . S
C454 H461 0.930 . S
H455 C452 0.928 . S
H456 C453 0.931 . S
H457 C433 0.930 . S
H458 C430 0.930 . S
H459 C439 0.930 . S
H460 C451 0.929 . S
H461 C454 0.930 . S
C462 C463 1.351 . S
C462 N465 1.368 . S
C462 H467 0.931 . S
C463 C462 1.351 . S
C463 N464 1.373 . S
C463 H491 0.930 . S
N464 C463 1.373 . S
N464 C466 1.340 . S
N465 C462 1.368 . S
N465 C466 1.321 . S
N465 Co468 2.135 . S
C466 N464 1.340 . S
C466 N465 1.321 . S
C466 H490 0.930 . S
H467 C462 0.931 . S
Co468 N465 2.135 . S
Co468 N471 2.121 . S
Co468 O476 2.055 . S
Co468 O479 2.039 . S
Co468 N482 2.140 . S
C469 O470 1.227 . S
C469 O479 1.265 . S
O470 C469 1.227 . S
N471 Co468 2.121 . S
N471 C473 1.375 . S
N471 C474 1.313 . S
C472 C473 1.338 . S
C472 N475 1.377 . S
C472 H492 0.930 . S
C473 N471 1.375 . S
C473 C472 1.338 . S
C473 H477 0.931 . S
C474 N471 1.313 . S
C474 N475 1.344 . S
C474 H478 0.930 . S
N475 C472 1.377 . S
N475 C474 1.344 . S
O476 Co468 2.055 . S
O476 C480 1.253 . S
H477 C473 0.931 . S
H478 C474 0.930 . S
O479 Co468 2.039 . S
O479 C469 1.265 . S
C480 O476 1.253 . S
C480 O481 1.227 . S
O481 C480 1.227 . S
N482 Co468 2.140 . S
N482 C485 1.346 . S
N482 C486 1.345 . S
C483 C484 1.387 . S
C483 C487 1.391 . S
C484 C483 1.387 . S
C484 C485 1.369 . S
C484 H493 0.929 . S
C485 N482 1.346 . S
C485 C484 1.369 . S
C485 H488 0.928 . S
C486 N482 1.345 . S
C486 C487 1.371 . S
C486 H489 0.931 . S
C487 C483 1.391 . S
C487 C486 1.371 . S
C487 H494 0.930 . S
H488 C485 0.928 . S
H489 C486 0.931 . S
H490 C466 0.930 . S
H491 C463 0.930 . S
H492 C472 0.930 . S
H493 C484 0.929 . S
H494 C487 0.930 . S
C495 C496 1.351 . S
C495 N498 1.368 . S
C495 H500 0.931 . S
C496 C495 1.351 . S
C496 N497 1.373 . S
C496 H524 0.930 . S
N497 C496 1.373 . S
N497 C499 1.340 . S
N498 C495 1.368 . S
N498 C499 1.321 . S
N498 Co501 2.135 . S
C499 N497 1.340 . S
C499 N498 1.321 . S
C499 H523 0.930 . S
H500 C495 0.931 . S
Co501 N498 2.135 . S
Co501 N504 2.121 . S
Co501 O509 2.055 . S
Co501 O512 2.039 . S
Co501 N515 2.140 . S
C502 O503 1.227 . S
C502 O512 1.265 . S
O503 C502 1.227 . S
N504 Co501 2.121 . S
N504 C506 1.375 . S
N504 C507 1.313 . S
C505 C506 1.338 . S
C505 N508 1.377 . S
C505 H525 0.930 . S
C506 N504 1.375 . S
C506 C505 1.338 . S
C506 H510 0.931 . S
C507 N504 1.313 . S
C507 N508 1.344 . S
C507 H511 0.930 . S
N508 C505 1.377 . S
N508 C507 1.344 . S
O509 Co501 2.055 . S
O509 C513 1.253 . S
H510 C506 0.931 . S
H511 C507 0.930 . S
O512 Co501 2.039 . S
O512 C502 1.265 . S
C513 O509 1.253 . S
C513 O514 1.227 . S
O514 C513 1.227 . S
N515 Co501 2.140 . S
N515 C518 1.346 . S
N515 C519 1.345 . S
C516 C517 1.387 . S
C516 C520 1.391 . S
C517 C516 1.387 . S
C517 C518 1.369 . S
C517 H526 0.929 . S
C518 N515 1.346 . S
C518 C517 1.369 . S
C518 H521 0.928 . S
C519 N515 1.345 . S
C519 C520 1.371 . S
C519 H522 0.931 . S
C520 C516 1.391 . S
C520 C519 1.371 . S
C520 H527 0.930 . S
H521 C518 0.928 . S
H522 C519 0.931 . S
H523 C499 0.930 . S
H524 C496 0.930 . S
H525 C505 0.930 . S
H526 C517 0.929 . S
H527 C520 0.930 . S
H528 C540 0.930 . S
H529 C542 0.930 . S
H530 C543 0.930 . S
H531 C547 0.959 . S
H532 C547 0.959 . S
H533 C547 0.961 . S
H534 C548 0.960 . S
H535 C548 0.961 . S
H536 C548 0.959 1_655 S
H537 C551 0.929 . S
H538 C552 0.931 . S
H539 C554 0.930 . S
C540 H528 0.930 . S
C540 C541 1.399 1_455 S
C540 C545 1.399 . S
C541 C540 1.399 1_655 S
C541 C542 1.376 . S
C542 H529 0.930 . S
C542 C541 1.376 . S
C542 C543 1.388 . S
C543 H530 0.930 . S
C543 C542 1.388 . S
C543 C544 1.390 . S
C544 C543 1.390 . S
C544 C545 1.394 1_655 S
C544 C550 1.465 . S
C545 C540 1.399 . S
C545 C544 1.394 1_455 S
C545 C546 1.516 . S
C546 C545 1.516 . S
C546 C547 1.502 . S
C546 C548 1.561 . S
C546 C549 1.526 . S
C547 H531 0.959 . S
C547 H532 0.959 . S
C547 H533 0.961 . S
C547 C546 1.502 . S
C548 H534 0.960 . S
C548 H535 0.961 . S
C548 H536 0.959 1_455 S
C548 C546 1.561 . S
C549 C546 1.526 . S
C549 C550 1.396 1_455 S
C549 C554 1.390 . S
C550 C544 1.465 . S
C550 C549 1.396 1_655 S
C550 C551 1.399 . S
C551 H537 0.929 . S
C551 C550 1.399 . S
C551 C552 1.385 . S
C552 H538 0.931 . S
C552 C551 1.385 . S
C552 C553 1.389 1_655 S
C553 C552 1.389 1_455 S
C553 C554 1.387 . S
C554 H539 0.930 . S
C554 C549 1.390 . S
C554 C553 1.387 . S
H555 C567 0.930 . S
H556 C569 0.931 . S
H557 C570 0.930 . S
H558 C574 0.959 . S
H559 C574 0.959 . S
H560 C574 0.961 . S
H561 C575 0.960 . S
H562 C575 0.961 . S
H563 C575 0.959 . S
H564 C578 0.929 . S
H565 C579 0.931 . S
H566 C581 0.930 . S
C567 H555 0.930 . S
C567 C568 1.399 . S
C567 C572 1.399 . S
C568 C567 1.399 . S
C568 C569 1.374 1_545 S
C569 H556 0.931 . S
C569 C568 1.374 1_565 S
C569 C570 1.390 . S
C570 H557 0.930 . S
C570 C569 1.390 . S
C570 C571 1.390 . S
C571 C570 1.390 . S
C571 C572 1.394 1_565 S
C571 C577 1.465 . S
C572 C567 1.399 . S
C572 C571 1.394 1_545 S
C572 C573 1.516 . S
C573 C572 1.516 . S
C573 C574 1.502 . S
C573 C575 1.561 1_545 S
C573 C576 1.526 1_545 S
C574 H558 0.959 . S
C574 H559 0.959 . S
C574 H560 0.961 . S
C574 C573 1.502 . S
C575 H561 0.960 . S
C575 H562 0.961 . S
C575 H563 0.959 . S
C575 C573 1.561 1_565 S
C576 C573 1.526 1_565 S
C576 C577 1.396 . S
C576 C581 1.390 . S
C577 C571 1.465 . S
C577 C576 1.396 . S
C577 C578 1.399 . S
C578 H564 0.929 . S
C578 C577 1.399 . S
C578 C579 1.385 . S
C579 H565 0.931 . S
C579 C578 1.385 . S
C579 C580 1.389 . S
C580 C579 1.389 . S
C580 C581 1.387 . S
C581 H566 0.930 . S
C581 C576 1.390 . S
C581 C580 1.387 . S
H582 C594 0.930 . S
H583 C596 0.930 . S
H584 C597 0.930 . S
H585 C601 0.959 . S
H586 C601 0.959 . S
H587 C601 0.961 . S
H588 C602 0.960 . S
H589 C602 0.961 . S
H590 C602 0.959 . S
H591 C605 0.929 . S
H592 C606 0.931 . S
H593 C608 0.925 1_655 S
C594 H582 0.930 . S
C594 C595 1.399 . S
C594 C599 1.399 . S
C595 C594 1.399 . S
C595 C596 1.376 1_655 S
C596 H583 0.930 . S
C596 C595 1.376 1_455 S
C596 C597 1.388 . S
C597 H584 0.930 . S
C597 C596 1.388 . S
C597 C598 1.390 . S
C598 C597 1.390 . S
C598 C599 1.394 1_455 S
C598 C604 1.465 . S
C599 C594 1.399 . S
C599 C598 1.394 1_655 S
C599 C600 1.516 . S
C600 C599 1.516 . S
C600 C601 1.502 . S
C600 C602 1.561 1_655 S
C600 C603 1.529 . S
C601 H585 0.959 . S
C601 H586 0.959 . S
C601 H587 0.961 . S
C601 C600 1.502 . S
C602 H588 0.960 . S
C602 H589 0.961 . S
C602 H590 0.959 . S
C602 C600 1.561 1_455 S
C603 C600 1.529 . S
C603 C604 1.392 1_655 S
C603 C608 1.389 1_655 S
C604 C598 1.465 . S
C604 C603 1.392 1_455 S
C604 C605 1.399 . S
C605 H591 0.929 . S
C605 C604 1.399 . S
C605 C606 1.385 . S
C606 H592 0.931 . S
C606 C605 1.385 . S
C606 C607 1.389 . S
C607 C606 1.389 . S
C607 C608 1.392 . S
C608 H593 0.925 1_455 S
C608 C603 1.389 1_455 S
C608 C607 1.392 . S
H609 C621 0.930 . S
H610 C623 0.930 . S
H611 C624 0.930 . S
H612 C628 0.959 . S
H613 C628 0.959 . S
H614 C628 0.961 . S
H615 C629 0.960 . S
H616 C629 0.961 . S
H617 C629 0.959 . S
H618 C632 0.929 . S
H619 C633 0.931 . S
H620 C635 0.930 . S
C621 H609 0.930 . S
C621 C622 1.399 . S
C621 C626 1.400 1_565 S
C622 C621 1.399 . S
C622 C623 1.376 . S
C623 H610 0.930 . S
C623 C622 1.376 . S
C623 C624 1.388 . S
C624 H611 0.930 . S
C624 C623 1.388 . S
C624 C625 1.392 . S
C625 C624 1.392 . S
C625 C626 1.394 1_565 S
C625 C631 1.463 1_565 S
C626 C621 1.400 1_545 S
C626 C625 1.394 1_545 S
C626 C627 1.516 . S
C627 C626 1.516 . S
C627 C628 1.502 1_545 S
C627 C629 1.561 . S
C627 C630 1.526 . S
C628 H612 0.959 . S
C628 H613 0.959 . S
C628 H614 0.961 . S
C628 C627 1.502 1_565 S
C629 H615 0.960 . S
C629 H616 0.961 . S
C629 H617 0.959 . S
C629 C627 1.561 . S
C630 C627 1.526 . S
C630 C631 1.396 . S
C630 C635 1.390 . S
C631 C625 1.463 1_545 S
C631 C630 1.396 . S
C631 C632 1.399 . S
C632 H618 0.929 . S
C632 C631 1.399 . S
C632 C633 1.385 . S
C633 H619 0.931 . S
C633 C632 1.385 . S
C633 C634 1.389 . S
C634 C633 1.389 . S
C634 C635 1.387 . S
C635 H620 0.930 . S
C635 C630 1.390 . S
C635 C634 1.387 . S
H636 C648 0.930 . S
H637 C650 0.930 . S
H638 C651 0.930 . S
H639 C655 0.959 . S
H640 C655 0.959 1_545 S
H641 C655 0.961 . S
H642 C656 0.960 1_565 S
H643 C656 0.961 . S
H644 C656 0.959 . S
H645 C659 0.929 . S
H646 C660 0.931 . S
H647 C662 0.930 . S
C648 H636 0.930 . S
C648 C649 1.399 . S
C648 C653 1.399 . S
C649 C648 1.399 . S
C649 C650 1.376 . S
C650 H637 0.930 . S
C650 C649 1.376 . S
C650 C651 1.388 . S
C651 H638 0.930 . S
C651 C650 1.388 . S
C651 C652 1.390 . S
C652 C651 1.390 . S
C652 C653 1.394 . S
C652 C658 1.465 1_565 S
C653 C648 1.399 . S
C653 C652 1.394 . S
C653 C654 1.516 . S
C654 C653 1.516 . S
C654 C655 1.502 . S
C654 C656 1.561 1_565 S
C654 C657 1.526 1_565 S
C655 H639 0.959 . S
C655 H640 0.959 1_565 S
C655 H641 0.961 . S
C655 C654 1.502 . S
C656 H642 0.960 1_545 S
C656 H643 0.961 . S
C656 H644 0.959 . S
C656 C654 1.561 1_545 S
C657 C654 1.526 1_545 S
C657 C658 1.396 . S
C657 C662 1.390 . S
C658 C652 1.465 1_545 S
C658 C657 1.396 . S
C658 C659 1.399 . S
C659 H645 0.929 . S
C659 C658 1.399 . S
C659 C660 1.385 . S
C660 H646 0.931 . S
C660 C659 1.385 . S
C660 C661 1.389 . S
C661 C660 1.389 . S
C661 C662 1.387 . S
C662 H647 0.930 . S
C662 C657 1.390 . S
C662 C661 1.387 . S
H663 C675 0.930 . S
H664 C677 0.930 . S
H665 C678 0.930 . S
H666 C682 0.962 . S
H667 C682 0.966 . S
H668 C682 0.952 1_655 S
H669 C683 0.960 . S
H670 C683 0.961 1_455 S
H671 C683 0.959 . S
H672 C686 0.929 . S
H673 C687 0.931 . S
H674 C689 0.930 . S
C675 H663 0.930 . S
C675 C676 1.399 . S
C675 C680 1.399 . S
C676 C675 1.399 . S
C676 C677 1.376 . S
C677 H664 0.930 . S
C677 C676 1.376 . S
C677 C678 1.388 . S
C678 H665 0.930 . S
C678 C677 1.388 . S
C678 C679 1.390 . S
C679 C678 1.390 . S
C679 C680 1.394 . S
C679 C685 1.465 1_655 S
C680 C675 1.399 . S
C680 C679 1.394 . S
C680 C681 1.516 . S
C681 C680 1.516 . S
C681 C682 1.501 1_655 S
C681 C683 1.561 . S
C681 C684 1.526 1_655 S
C682 H666 0.962 . S
C682 H667 0.966 . S
C682 H668 0.952 1_455 S
C682 C681 1.501 1_455 S
C683 H669 0.960 . S
C683 H670 0.961 1_655 S
C683 H671 0.959 . S
C683 C681 1.561 . S
C684 C681 1.526 1_455 S
C684 C685 1.396 . S
C684 C689 1.390 . S
C685 C679 1.465 1_455 S
C685 C684 1.396 . S
C685 C686 1.399 . S
C686 H672 0.929 . S
C686 C685 1.399 . S
C686 C687 1.385 . S
C687 H673 0.931 . S
C687 C686 1.385 . S
C687 C688 1.389 . S
C688 C687 1.389 . S
C688 C689 1.387 . S
C689 H674 0.930 . S
C689 C684 1.390 . S
C689 C688 1.387 . S
H690 C702 0.930 . S
H691 C704 0.930 . S
H692 C705 0.930 . S
H693 C709 0.959 . S
H694 C709 0.959 . S
H695 C709 0.961 1_565 S
H696 C710 0.960 . S
H697 C710 0.961 1_545 S
H698 C710 0.959 . S
H699 C713 0.929 . S
H700 C714 0.931 . S
H701 C716 0.930 . S
C702 H690 0.930 . S
C702 C703 1.399 . S
C702 C707 1.399 . S
C703 C702 1.399 . S
C703 C704 1.376 . S
C704 H691 0.930 . S
C704 C703 1.376 . S
C704 C705 1.388 . S
C705 H692 0.930 . S
C705 C704 1.388 . S
C705 C706 1.390 . S
C706 C705 1.390 . S
C706 C707 1.394 . S
C706 C712 1.465 1_565 S
C707 C702 1.399 . S
C707 C706 1.394 . S
C707 C708 1.516 1_565 S
C708 C707 1.516 1_545 S
C708 C709 1.502 . S
C708 C710 1.561 1_545 S
C708 C711 1.526 . S
C709 H693 0.959 . S
C709 H694 0.959 . S
C709 H695 0.961 1_545 S
C709 C708 1.502 . S
C710 H696 0.960 . S
C710 H697 0.961 1_565 S
C710 H698 0.959 . S
C710 C708 1.561 1_565 S
C711 C708 1.526 . S
C711 C712 1.396 . S
C711 C716 1.390 . S
C712 C706 1.465 1_545 S
C712 C711 1.396 . S
C712 C713 1.399 . S
C713 H699 0.929 . S
C713 C712 1.399 . S
C713 C714 1.385 . S
C714 H700 0.931 . S
C714 C713 1.385 . S
C714 C715 1.389 . S
C715 C714 1.389 . S
C715 C716 1.387 . S
C716 H701 0.930 . S
C716 C711 1.390 . S
C716 C715 1.387 . S
H717 C729 0.930 . S
H718 C731 0.930 . S
H719 C732 0.930 . S
H720 C736 0.959 . S
H721 C736 0.959 1_455 S
H722 C736 0.961 . S
H723 C737 0.960 1_655 S
H724 C737 0.961 . S
H725 C737 0.959 . S
H726 C740 0.929 . S
H727 C741 0.931 . S
H728 C743 0.930 . S
C729 H717 0.930 . S
C729 C730 1.399 . S
C729 C734 1.399 . S
C730 C729 1.399 . S
C730 C731 1.376 . S
C731 H718 0.930 . S
C731 C730 1.376 . S
C731 C732 1.388 . S
C732 H719 0.930 . S
C732 C731 1.388 . S
C732 C733 1.390 . S
C733 C732 1.390 . S
C733 C734 1.394 . S
C733 C739 1.465 1_655 S
C734 C729 1.399 . S
C734 C733 1.394 . S
C734 C735 1.516 . S
C735 C734 1.516 . S
C735 C736 1.502 . S
C735 C737 1.561 1_655 S
C735 C738 1.526 1_655 S
C736 H720 0.959 . S
C736 H721 0.959 1_655 S
C736 H722 0.961 . S
C736 C735 1.502 . S
C737 H723 0.960 1_455 S
C737 H724 0.961 . S
C737 H725 0.959 . S
C737 C735 1.561 1_455 S
C738 C735 1.526 1_455 S
C738 C739 1.396 . S
C738 C743 1.390 . S
C739 C733 1.465 1_455 S
C739 C738 1.396 . S
C739 C740 1.399 . S
C740 H726 0.929 . S
C740 C739 1.399 . S
C740 C741 1.385 . S
C741 H727 0.931 . S
C741 C740 1.385 . S
C741 C742 1.389 . S
C742 C741 1.389 . S
C742 C743 1.387 . S
C743 H728 0.930 . S
C743 C738 1.390 . S
C743 C742 1.387 . S
H744 C756 0.930 . S
H745 C758 0.930 . S
H746 C759 0.930 . S
H747 C763 0.959 . S
H748 C763 0.959 . S
H749 C763 0.961 . S
H750 C764 0.960 . S
H751 C764 0.961 . S
H752 C764 0.959 . S
H753 C767 0.929 . S
H754 C768 0.931 . S
H755 C770 0.930 . S
C756 H744 0.930 . S
C756 C757 1.399 . S
C756 C761 1.399 . S
C757 C756 1.399 . S
C757 C758 1.376 . S
C758 H745 0.930 . S
C758 C757 1.376 . S
C758 C759 1.388 . S
C759 H746 0.930 . S
C759 C758 1.388 . S
C759 C760 1.390 . S
C760 C759 1.390 . S
C760 C761 1.394 . S
C760 C766 1.465 . S
C761 C756 1.399 . S
C761 C760 1.394 . S
C761 C762 1.516 . S
C762 C761 1.516 . S
C762 C763 1.502 . S
C762 C764 1.561 . S
C762 C765 1.526 . S
C763 H747 0.959 . S
C763 H748 0.959 . S
C763 H749 0.961 . S
C763 C762 1.502 . S
C764 H750 0.960 . S
C764 H751 0.961 . S
C764 H752 0.959 . S
C764 C762 1.561 . S
C765 C762 1.526 . S
C765 C766 1.396 . S
C765 C770 1.390 . S
C766 C760 1.465 . S
C766 C765 1.396 . S
C766 C767 1.399 . S
C767 H753 0.929 . S
C767 C766 1.399 . S
C767 C768 1.385 . S
C768 H754 0.931 . S
C768 C767 1.385 . S
C768 C769 1.389 . S
C769 C768 1.389 . S
C769 C770 1.387 . S
C770 H755 0.930 . S
C770 C765 1.390 . S
C770 C769 1.387 . S
H771 C783 0.930 . S
H772 C785 0.930 . S
H773 C786 0.930 . S
H774 C790 0.959 . S
H775 C790 0.959 . S
H776 C790 0.961 . S
H777 C791 0.960 . S
H778 C791 0.961 . S
H779 C791 0.959 . S
H780 C794 0.929 . S
H781 C795 0.963 . S
H782 C797 0.930 . S
C783 H771 0.930 . S
C783 C784 1.399 . S
C783 C788 1.399 . S
C784 C783 1.399 . S
C784 C785 1.376 . S
C785 H772 0.930 . S
C785 C784 1.376 . S
C785 C786 1.388 . S
C786 H773 0.930 . S
C786 C785 1.388 . S
C786 C787 1.390 . S
C787 C786 1.390 . S
C787 C788 1.394 . S
C787 C793 1.465 . S
C788 C783 1.399 . S
C788 C787 1.394 . S
C788 C789 1.516 . S
C789 C788 1.516 . S
C789 C790 1.502 . S
C789 C791 1.561 . S
C789 C792 1.526 . S
C790 H774 0.959 . S
C790 H775 0.959 . S
C790 H776 0.961 . S
C790 C789 1.502 . S
C791 H777 0.960 . S
C791 H778 0.961 . S
C791 H779 0.959 . S
C791 C789 1.561 . S
C792 C789 1.526 . S
C792 C793 1.396 . S
C792 C797 1.390 . S
C793 C787 1.465 . S
C793 C792 1.396 . S
C793 C794 1.399 . S
C794 H780 0.929 . S
C794 C793 1.399 . S
C794 C795 1.385 . S
C795 H781 0.963 . S
C795 C794 1.385 . S
C795 C796 1.389 . S
C796 C795 1.389 . S
C796 C797 1.387 . S
C797 H782 0.930 . S
C797 C792 1.390 . S
C797 C796 1.387 . S
H798 C810 0.930 . S
H799 C812 0.930 . S
H800 C813 0.930 . S
H801 C817 0.959 . S
H802 C817 0.959 . S
H803 C817 0.961 . S
H804 C818 0.960 . S
H805 C818 0.961 . S
H806 C818 0.959 . S
H807 C821 0.929 . S
H808 C822 0.931 . S
H809 C824 0.930 . S
C810 H798 0.930 . S
C810 C811 1.399 . S
C810 C815 1.399 . S
C811 C810 1.399 . S
C811 C812 1.376 . S
C812 H799 0.930 . S
C812 C811 1.376 . S
C812 C813 1.388 . S
C813 H800 0.930 . S
C813 C812 1.388 . S
C813 C814 1.390 . S
C814 C813 1.390 . S
C814 C815 1.394 . S
C814 C820 1.465 . S
C815 C810 1.399 . S
C815 C814 1.394 . S
C815 C816 1.516 . S
C816 C815 1.516 . S
C816 C817 1.502 . S
C816 C818 1.561 . S
C816 C819 1.526 . S
C817 H801 0.959 . S
C817 H802 0.959 . S
C817 H803 0.961 . S
C817 C816 1.502 . S
C818 H804 0.960 . S
C818 H805 0.961 . S
C818 H806 0.959 . S
C818 C816 1.561 . S
C819 C816 1.526 . S
C819 C820 1.396 . S
C819 C824 1.390 . S
C820 C814 1.465 . S
C820 C819 1.396 . S
C820 C821 1.399 . S
C821 H807 0.929 . S
C821 C820 1.399 . S
C821 C822 1.385 . S
C822 H808 0.931 . S
C822 C821 1.385 . S
C822 C823 1.389 . S
C823 C822 1.389 . S
C823 C824 1.387 . S
C824 H809 0.930 . S
C824 C819 1.390 . S
C824 C823 1.387 . S
H825 C837 0.930 . S
H826 C839 0.930 . S
H827 C840 0.930 . S
H828 C844 0.959 . S
H829 C844 0.959 . S
H830 C844 0.961 . S
H831 C845 0.960 . S
H832 C845 0.961 . S
H833 C845 0.959 . S
H834 C848 0.929 . S
H835 C849 0.931 . S
H836 C851 0.930 . S
C837 H825 0.930 . S
C837 C838 1.399 . S
C837 C842 1.399 . S
C838 C837 1.399 . S
C838 C839 1.376 . S
C839 H826 0.930 . S
C839 C838 1.376 . S
C839 C840 1.388 . S
C840 H827 0.930 . S
C840 C839 1.388 . S
C840 C841 1.390 . S
C841 C840 1.390 . S
C841 C842 1.394 . S
C841 C847 1.465 . S
C842 C837 1.399 . S
C842 C841 1.394 . S
C842 C843 1.516 . S
C843 C842 1.516 . S
C843 C844 1.502 . S
C843 C845 1.561 . S
C843 C846 1.526 . S
C844 H828 0.959 . S
C844 H829 0.959 . S
C844 H830 0.961 . S
C844 C843 1.502 . S
C845 H831 0.960 . S
C845 H832 0.961 . S
C845 H833 0.959 . S
C845 C843 1.561 . S
C846 C843 1.526 . S
C846 C847 1.396 . S
C846 C851 1.390 . S
C847 C841 1.465 . S
C847 C846 1.396 . S
C847 C848 1.399 . S
C848 H834 0.929 . S
C848 C847 1.399 . S
C848 C849 1.385 . S
C849 H835 0.931 . S
C849 C848 1.385 . S
C849 C850 1.389 . S
C850 C849 1.389 . S
C850 C851 1.387 . S
C851 H836 0.930 . S
C851 C846 1.390 . S
C851 C850 1.387 . S
H852 C864 0.930 . S
H853 C866 0.930 . S
H854 C867 0.930 . S
H855 C871 0.959 . S
H856 C871 0.959 . S
H857 C871 0.961 . S
H858 C872 0.960 . S
H859 C872 0.961 . S
H860 C872 0.959 . S
H861 C875 0.929 . S
H862 C876 0.904 1_655 S
H863 C878 0.930 . S
C864 H852 0.930 . S
C864 C865 1.399 . S
C864 C869 1.399 . S
C865 C864 1.399 . S
C865 C866 1.376 . S
C866 H853 0.930 . S
C866 C865 1.376 . S
C866 C867 1.388 . S
C867 H854 0.930 . S
C867 C866 1.388 . S
C867 C868 1.390 . S
C868 C867 1.390 . S
C868 C869 1.394 . S
C868 C874 1.465 . S
C869 C864 1.399 . S
C869 C868 1.394 . S
C869 C870 1.516 . S
C870 C869 1.516 . S
C870 C871 1.502 . S
C870 C872 1.561 . S
C870 C873 1.526 . S
C871 H855 0.959 . S
C871 H856 0.959 . S
C871 H857 0.961 . S
C871 C870 1.502 . S
C872 H858 0.960 . S
C872 H859 0.961 . S
C872 H860 0.959 . S
C872 C870 1.561 . S
C873 C870 1.526 . S
C873 C874 1.396 . S
C873 C878 1.390 . S
C874 C868 1.465 . S
C874 C873 1.396 . S
C874 C875 1.399 . S
C875 H861 0.929 . S
C875 C874 1.399 . S
C875 C876 1.385 . S
C876 H862 0.904 1_455 S
C876 C875 1.385 . S
C876 C877 1.389 . S
C877 C876 1.389 . S
C877 C878 1.387 . S
C878 H863 0.930 . S
C878 C873 1.390 . S
C878 C877 1.387 . S
H879 C891 0.930 . S
H880 C893 0.930 . S
H881 C894 0.930 . S
H882 C898 0.959 . S
H883 C898 0.959 . S
H884 C898 0.961 . S
H885 C899 0.960 . S
H886 C899 0.961 . S
H887 C899 0.959 . S
H888 C902 0.929 . S
H889 C903 0.904 1_565 S
H890 C905 0.930 . S
C891 H879 0.930 . S
C891 C892 1.399 . S
C891 C896 1.399 . S
C892 C891 1.399 . S
C892 C893 1.376 . S
C893 H880 0.930 . S
C893 C892 1.376 . S
C893 C894 1.388 . S
C894 H881 0.930 . S
C894 C893 1.388 . S
C894 C895 1.390 . S
C895 C894 1.390 . S
C895 C896 1.394 . S
C895 C901 1.465 . S
C896 C891 1.399 . S
C896 C895 1.394 . S
C896 C897 1.516 . S
C897 C896 1.516 . S
C897 C898 1.502 . S
C897 C899 1.561 . S
C897 C900 1.526 . S
C898 H882 0.959 . S
C898 H883 0.959 . S
C898 H884 0.961 . S
C898 C897 1.502 . S
C899 H885 0.960 . S
C899 H886 0.961 . S
C899 H887 0.959 . S
C899 C897 1.561 . S
C900 C897 1.526 . S
C900 C901 1.396 . S
C900 C905 1.390 . S
C901 C895 1.465 . S
C901 C900 1.396 . S
C901 C902 1.399 . S
C902 H888 0.929 . S
C902 C901 1.399 . S
C902 C903 1.385 . S
C903 H889 0.904 1_545 S
C903 C902 1.385 . S
C903 C904 1.389 . S
C904 C903 1.389 . S
C904 C905 1.387 . S
C905 H890 0.930 . S
C905 C900 1.390 . S
C905 C904 1.387 . S
H906 C918 0.930 . S
H907 C920 0.930 . S
H908 C921 0.930 . S
H909 C925 0.959 . S
H910 C925 0.959 . S
H911 C925 0.961 . S
H912 C926 0.960 . S
H913 C926 0.961 . S
H914 C926 0.959 . S
H915 C929 0.929 . S
H916 C930 0.931 . S
H917 C932 0.930 . S
C918 H906 0.930 . S
C918 C919 1.399 . S
C918 C923 1.399 . S
C919 C918 1.399 . S
C919 C920 1.376 . S
C920 H907 0.930 . S
C920 C919 1.376 . S
C920 C921 1.388 . S
C921 H908 0.930 . S
C921 C920 1.388 . S
C921 C922 1.390 . S
C922 C921 1.390 . S
C922 C923 1.394 . S
C922 C928 1.465 . S
C923 C918 1.399 . S
C923 C922 1.394 . S
C923 C924 1.516 . S
C924 C923 1.516 . S
C924 C925 1.502 . S
C924 C926 1.561 . S
C924 C927 1.526 . S
C925 H909 0.959 . S
C925 H910 0.959 . S
C925 H911 0.961 . S
C925 C924 1.502 . S
C926 H912 0.960 . S
C926 H913 0.961 . S
C926 H914 0.959 . S
C926 C924 1.561 . S
C927 C924 1.526 . S
C927 C928 1.396 . S
C927 C932 1.390 . S
C928 C922 1.465 . S
C928 C927 1.396 . S
C928 C929 1.399 . S
C929 H915 0.929 . S
C929 C928 1.399 . S
C929 C930 1.385 . S
C930 H916 0.931 . S
C930 C929 1.385 . S
C930 C931 1.389 . S
C931 C930 1.389 . S
C931 C932 1.387 . S
C932 H917 0.930 . S
C932 C927 1.390 . S
C932 C931 1.387 . S
H933 C945 0.930 . S
H934 C947 0.930 . S
H935 C948 0.930 . S
H936 C952 0.959 . S
H937 C952 0.959 . S
H938 C952 0.961 . S
H939 C953 0.960 . S
H940 C953 0.961 . S
H941 C953 0.959 . S
H942 C956 0.929 . S
H943 C957 0.931 . S
H944 C959 0.930 . S
C945 H933 0.930 . S
C945 C946 1.399 . S
C945 C950 1.399 . S
C946 C945 1.399 . S
C946 C947 1.376 . S
C947 H934 0.930 . S
C947 C946 1.376 . S
C947 C948 1.388 . S
C948 H935 0.930 . S
C948 C947 1.388 . S
C948 C949 1.390 . S
C949 C948 1.390 . S
C949 C950 1.394 . S
C949 C955 1.465 . S
C950 C945 1.399 . S
C950 C949 1.394 . S
C950 C951 1.516 . S
C951 C950 1.516 . S
C951 C952 1.502 . S
C951 C953 1.561 . S
C951 C954 1.526 . S
C952 H936 0.959 . S
C952 H937 0.959 . S
C952 H938 0.961 . S
C952 C951 1.502 . S
C953 H939 0.960 . S
C953 H940 0.961 . S
C953 H941 0.959 . S
C953 C951 1.561 . S
C954 C951 1.526 . S
C954 C955 1.396 . S
C954 C959 1.390 . S
C955 C949 1.465 . S
C955 C954 1.396 . S
C955 C956 1.399 . S
C956 H942 0.929 . S
C956 C955 1.399 . S
C956 C957 1.385 . S
C957 H943 0.931 . S
C957 C956 1.385 . S
C957 C958 1.389 . S
C958 C957 1.389 . S
C958 C959 1.387 . S
C959 H944 0.930 . S
C959 C954 1.390 . S
C959 C958 1.387 . S
H960 C972 0.930 . S
H961 C974 0.930 . S
H962 C975 0.930 . S
H963 C979 0.959 . S
H964 C979 0.959 . S
H965 C979 0.961 . S
H966 C980 0.960 . S
H967 C980 0.961 . S
H968 C980 0.959 . S
H969 C983 0.929 . S
H970 C984 0.931 . S
H971 C986 0.930 . S
C972 H960 0.930 . S
C972 C973 1.399 . S
C972 C977 1.399 . S
C973 C972 1.399 . S
C973 C974 1.376 . S
C974 H961 0.930 . S
C974 C973 1.376 . S
C974 C975 1.388 . S
C975 H962 0.930 . S
C975 C974 1.388 . S
C975 C976 1.390 . S
C976 C975 1.390 . S
C976 C977 1.394 . S
C976 C982 1.465 . S
C977 C972 1.399 . S
C977 C976 1.394 . S
C977 C978 1.516 . S
C978 C977 1.516 . S
C978 C979 1.502 . S
C978 C980 1.561 . S
C978 C981 1.526 . S
C979 H963 0.959 . S
C979 H964 0.959 . S
C979 H965 0.961 . S
C979 C978 1.502 . S
C980 H966 0.960 . S
C980 H967 0.961 . S
C980 H968 0.959 . S
C980 C978 1.561 . S
C981 C978 1.526 . S
C981 C982 1.396 . S
C981 C986 1.390 . S
C982 C976 1.465 . S
C982 C981 1.396 . S
C982 C983 1.399 . S
C983 H969 0.929 . S
C983 C982 1.399 . S
C983 C984 1.385 . S
C984 H970 0.931 . S
C984 C983 1.385 . S
C984 C985 1.389 . S
C985 C984 1.389 . S
C985 C986 1.387 . S
C986 H971 0.930 . S
C986 C981 1.390 . S
C986 C985 1.387 . S
H987 C999 0.930 . S
H988 C1001 0.930 . S
H989 C1002 0.930 . S
H990 C1006 0.959 . S
H991 C1006 0.959 . S
H992 C1006 0.961 . S
H993 C1007 0.960 . S
H994 C1007 0.961 . S
H995 C1007 0.959 . S
H996 C1010 0.929 . S
H997 C1011 0.931 . S
H998 C1013 0.930 . S
C999 H987 0.930 . S
C999 C1000 1.399 . S
C999 C1004 1.399 . S
C1000 C999 1.399 . S
C1000 C1001 1.376 . S
C1001 H988 0.930 . S
C1001 C1000 1.376 . S
C1001 C1002 1.388 . S
C1002 H989 0.930 . S
C1002 C1001 1.388 . S
C1002 C1003 1.390 . S
C1003 C1002 1.390 . S
C1003 C1004 1.394 . S
C1003 C1009 1.465 . S
C1004 C999 1.399 . S
C1004 C1003 1.394 . S
C1004 C1005 1.516 . S
C1005 C1004 1.516 . S
C1005 C1006 1.502 . S
C1005 C1007 1.561 . S
C1005 C1008 1.526 . S
C1006 H990 0.959 . S
C1006 H991 0.959 . S
C1006 H992 0.961 . S
C1006 C1005 1.502 . S
C1007 H993 0.960 . S
C1007 H994 0.961 . S
C1007 H995 0.959 . S
C1007 C1005 1.561 . S
C1008 C1005 1.526 . S
C1008 C1009 1.396 . S
C1008 C1013 1.390 . S
C1009 C1003 1.465 . S
C1009 C1008 1.396 . S
C1009 C1010 1.399 . S
C1010 H996 0.929 . S
C1010 C1009 1.399 . S
C1010 C1011 1.385 . S
C1011 H997 0.931 . S
C1011 C1010 1.385 . S
C1011 C1012 1.389 . S
C1012 C1011 1.389 . S
C1012 C1013 1.387 . S
C1013 H998 0.930 . S
C1013 C1008 1.390 . S
C1013 C1012 1.387 . S
H1014 C1026 0.930 . S
H1015 C1028 0.930 . S
H1016 C1029 0.930 . S
H1017 C1033 0.959 . S
H1018 C1033 0.959 . S
H1019 C1033 0.961 . S
H1020 C1034 0.960 . S
H1021 C1034 0.961 . S
H1022 C1034 0.959 . S
H1023 C1037 0.929 . S
H1024 C1038 0.931 . S
H1025 C1040 0.930 . S
C1026 H1014 0.930 . S
C1026 C1027 1.399 . S
C1026 C1031 1.399 . S
C1027 C1026 1.399 . S
C1027 C1028 1.376 . S
C1028 H1015 0.930 . S
C1028 C1027 1.376 . S
C1028 C1029 1.388 . S
C1029 H1016 0.930 . S
C1029 C1028 1.388 . S
C1029 C1030 1.390 . S
C1030 C1029 1.390 . S
C1030 C1031 1.394 . S
C1030 C1036 1.465 . S
C1031 C1026 1.399 . S
C1031 C1030 1.394 . S
C1031 C1032 1.516 . S
C1032 C1031 1.516 . S
C1032 C1033 1.502 . S
C1032 C1034 1.561 . S
C1032 C1035 1.526 . S
C1033 H1017 0.959 . S
C1033 H1018 0.959 . S
C1033 H1019 0.961 . S
C1033 C1032 1.502 . S
C1034 H1020 0.960 . S
C1034 H1021 0.961 . S
C1034 H1022 0.959 . S
C1034 C1032 1.561 . S
C1035 C1032 1.526 . S
C1035 C1036 1.396 . S
C1035 C1040 1.390 . S
C1036 C1030 1.465 . S
C1036 C1035 1.396 . S
C1036 C1037 1.399 . S
C1037 H1023 0.929 . S
C1037 C1036 1.399 . S
C1037 C1038 1.385 . S
C1038 H1024 0.931 . S
C1038 C1037 1.385 . S
C1038 C1039 1.389 . S
C1039 C1038 1.389 . S
C1039 C1040 1.387 . S
C1040 H1025 0.930 . S
C1040 C1035 1.390 . S
C1040 C1039 1.387 . S
H1041 C1053 0.930 . S
H1042 C1055 0.930 . S
H1043 C1056 0.930 . S
H1044 C1060 0.959 . S
H1045 C1060 0.959 . S
H1046 C1060 0.961 . S
H1047 C1061 0.960 . S
H1048 C1061 0.961 . S
H1049 C1061 0.959 . S
H1050 C1064 0.929 . S
H1051 C1065 0.931 . S
H1052 C1067 0.930 . S
C1053 H1041 0.930 . S
C1053 C1054 1.399 . S
C1053 C1058 1.399 . S
C1054 C1053 1.399 . S
C1054 C1055 1.376 . S
C1055 H1042 0.930 . S
C1055 C1054 1.376 . S
C1055 C1056 1.388 . S
C1056 H1043 0.930 . S
C1056 C1055 1.388 . S
C1056 C1057 1.390 . S
C1057 C1056 1.390 . S
C1057 C1058 1.394 . S
C1057 C1063 1.465 . S
C1058 C1053 1.399 . S
C1058 C1057 1.394 . S
C1058 C1059 1.516 . S
C1059 C1058 1.516 . S
C1059 C1060 1.502 . S
C1059 C1061 1.561 . S
C1059 C1062 1.526 . S
C1060 H1044 0.959 . S
C1060 H1045 0.959 . S
C1060 H1046 0.961 . S
C1060 C1059 1.502 . S
C1061 H1047 0.960 . S
C1061 H1048 0.961 . S
C1061 H1049 0.959 . S
C1061 C1059 1.561 . S
C1062 C1059 1.526 . S
C1062 C1063 1.396 . S
C1062 C1067 1.390 . S
C1063 C1057 1.465 . S
C1063 C1062 1.396 . S
C1063 C1064 1.399 . S
C1064 H1050 0.929 . S
C1064 C1063 1.399 . S
C1064 C1065 1.385 . S
C1065 H1051 0.931 . S
C1065 C1064 1.385 . S
C1065 C1066 1.389 . S
C1066 C1065 1.389 . S
C1066 C1067 1.387 . S
C1067 H1052 0.930 . S
C1067 C1062 1.390 . S
C1067 C1066 1.387 . S
H1068 C1080 0.930 . S
H1069 C1082 0.930 . S
H1070 C1083 0.930 . S
H1071 C1087 0.959 . S
H1072 C1087 0.959 . S
H1073 C1087 0.961 . S
H1074 C1088 0.960 . S
H1075 C1088 0.961 . S
H1076 C1088 0.959 . S
H1077 C1091 0.929 . S
H1078 C1092 0.931 . S
H1079 C1094 0.930 . S
C1080 H1068 0.930 . S
C1080 C1081 1.399 . S
C1080 C1085 1.399 . S
C1081 C1080 1.399 . S
C1081 C1082 1.376 . S
C1082 H1069 0.930 . S
C1082 C1081 1.376 . S
C1082 C1083 1.388 . S
C1083 H1070 0.930 . S
C1083 C1082 1.388 . S
C1083 C1084 1.390 . S
C1084 C1083 1.390 . S
C1084 C1085 1.394 . S
C1084 C1090 1.465 . S
C1085 C1080 1.399 . S
C1085 C1084 1.394 . S
C1085 C1086 1.516 . S
C1086 C1085 1.516 . S
C1086 C1087 1.502 . S
C1086 C1088 1.561 . S
C1086 C1089 1.526 . S
C1087 H1071 0.959 . S
C1087 H1072 0.959 . S
C1087 H1073 0.961 . S
C1087 C1086 1.502 . S
C1088 H1074 0.960 . S
C1088 H1075 0.961 . S
C1088 H1076 0.959 . S
C1088 C1086 1.561 . S
C1089 C1086 1.526 . S
C1089 C1090 1.396 . S
C1089 C1094 1.390 . S
C1090 C1084 1.465 . S
C1090 C1089 1.396 . S
C1090 C1091 1.399 . S
C1091 H1077 0.929 . S
C1091 C1090 1.399 . S
C1091 C1092 1.385 . S
C1092 H1078 0.931 . S
C1092 C1091 1.385 . S
C1092 C1093 1.389 . S
C1093 C1092 1.389 . S
C1093 C1094 1.387 . S
C1094 H1079 0.930 . S
C1094 C1089 1.390 . S
C1094 C1093 1.387 . S
H1095 C1107 0.930 . S
H1096 C1109 0.930 . S
H1097 C1110 0.930 . S
H1098 C1114 0.959 . S
H1099 C1114 0.959 . S
H1100 C1114 0.961 . S
H1101 C1115 0.960 . S
H1102 C1115 0.961 . S
H1103 C1115 0.959 . S
H1104 C1118 0.929 . S
H1105 C1119 0.931 . S
H1106 C1121 0.930 . S
C1107 H1095 0.930 . S
C1107 C1108 1.399 . S
C1107 C1112 1.399 . S
C1108 C1107 1.399 . S
C1108 C1109 1.376 . S
C1109 H1096 0.930 . S
C1109 C1108 1.376 . S
C1109 C1110 1.388 . S
C1110 H1097 0.930 . S
C1110 C1109 1.388 . S
C1110 C1111 1.390 . S
C1111 C1110 1.390 . S
C1111 C1112 1.394 . S
C1111 C1117 1.465 . S
C1112 C1107 1.399 . S
C1112 C1111 1.394 . S
C1112 C1113 1.516 . S
C1113 C1112 1.516 . S
C1113 C1114 1.502 . S
C1113 C1115 1.561 . S
C1113 C1116 1.526 . S
C1114 H1098 0.959 . S
C1114 H1099 0.959 . S
C1114 H1100 0.961 . S
C1114 C1113 1.502 . S
C1115 H1101 0.960 . S
C1115 H1102 0.961 . S
C1115 H1103 0.959 . S
C1115 C1113 1.561 . S
C1116 C1113 1.526 . S
C1116 C1117 1.396 . S
C1116 C1121 1.390 . S
C1117 C1111 1.465 . S
C1117 C1116 1.396 . S
C1117 C1118 1.399 . S
C1118 H1104 0.929 . S
C1118 C1117 1.399 . S
C1118 C1119 1.385 . S
C1119 H1105 0.931 . S
C1119 C1118 1.385 . S
C1119 C1120 1.389 . S
C1120 C1119 1.389 . S
C1120 C1121 1.387 . S
C1121 H1106 0.930 . S
C1121 C1116 1.390 . S
C1121 C1120 1.387 . S
H1122 C1134 0.930 . S
H1123 C1136 0.930 . S
H1124 C1137 0.930 . S
H1125 C1141 0.959 . S
H1126 C1141 0.959 . S
H1127 C1141 0.961 . S
H1128 C1142 0.960 . S
H1129 C1142 0.961 . S
H1130 C1142 0.959 . S
H1131 C1145 0.929 . S
H1132 C1146 0.931 . S
H1133 C1148 0.930 . S
C1134 H1122 0.930 . S
C1134 C1135 1.399 . S
C1134 C1139 1.399 . S
C1135 C1134 1.399 . S
C1135 C1136 1.376 . S
C1136 H1123 0.930 . S
C1136 C1135 1.376 . S
C1136 C1137 1.388 . S
C1137 H1124 0.930 . S
C1137 C1136 1.388 . S
C1137 C1138 1.390 . S
C1138 C1137 1.390 . S
C1138 C1139 1.394 . S
C1138 C1144 1.465 . S
C1139 C1134 1.399 . S
C1139 C1138 1.394 . S
C1139 C1140 1.516 . S
C1140 C1139 1.516 . S
C1140 C1141 1.502 . S
C1140 C1142 1.561 . S
C1140 C1143 1.526 . S
C1141 H1125 0.959 . S
C1141 H1126 0.959 . S
C1141 H1127 0.961 . S
C1141 C1140 1.502 . S
C1142 H1128 0.960 . S
C1142 H1129 0.961 . S
C1142 H1130 0.959 . S
C1142 C1140 1.561 . S
C1143 C1140 1.526 . S
C1143 C1144 1.396 . S
C1143 C1148 1.390 . S
C1144 C1138 1.465 . S
C1144 C1143 1.396 . S
C1144 C1145 1.399 . S
C1145 H1131 0.929 . S
C1145 C1144 1.399 . S
C1145 C1146 1.385 . S
C1146 H1132 0.931 . S
C1146 C1145 1.385 . S
C1146 C1147 1.389 . S
C1147 C1146 1.389 . S
C1147 C1148 1.387 . S
C1148 H1133 0.930 . S
C1148 C1143 1.390 . S
C1148 C1147 1.387 . S
H1149 C1161 0.930 . S
H1150 C1163 0.930 . S
H1151 C1164 0.930 . S
H1152 C1168 0.959 . S
H1153 C1168 0.959 . S
H1154 C1168 0.961 . S
H1155 C1169 0.960 . S
H1156 C1169 0.961 . S
H1157 C1169 0.959 . S
H1158 C1172 0.929 . S
H1159 C1173 0.931 . S
H1160 C1175 0.930 . S
C1161 H1149 0.930 . S
C1161 C1162 1.399 . S
C1161 C1166 1.399 . S
C1162 C1161 1.399 . S
C1162 C1163 1.376 . S
C1163 H1150 0.930 . S
C1163 C1162 1.376 . S
C1163 C1164 1.388 . S
C1164 H1151 0.930 . S
C1164 C1163 1.388 . S
C1164 C1165 1.390 . S
C1165 C1164 1.390 . S
C1165 C1166 1.394 . S
C1165 C1171 1.465 . S
C1166 C1161 1.399 . S
C1166 C1165 1.394 . S
C1166 C1167 1.516 . S
C1167 C1166 1.516 . S
C1167 C1168 1.502 . S
C1167 C1169 1.561 . S
C1167 C1170 1.526 . S
C1168 H1152 0.959 . S
C1168 H1153 0.959 . S
C1168 H1154 0.961 . S
C1168 C1167 1.502 . S
C1169 H1155 0.960 . S
C1169 H1156 0.961 . S
C1169 H1157 0.959 . S
C1169 C1167 1.561 . S
C1170 C1167 1.526 . S
C1170 C1171 1.396 . S
C1170 C1175 1.390 . S
C1171 C1165 1.465 . S
C1171 C1170 1.396 . S
C1171 C1172 1.399 . S
C1172 H1158 0.929 . S
C1172 C1171 1.399 . S
C1172 C1173 1.385 . S
C1173 H1159 0.931 . S
C1173 C1172 1.385 . S
C1173 C1174 1.389 . S
C1174 C1173 1.389 . S
C1174 C1175 1.387 . S
C1175 H1160 0.930 . S
C1175 C1170 1.390 . S
C1175 C1174 1.387 . S
H1176 C1188 0.930 . S
H1177 C1190 0.930 . S
H1178 C1191 0.930 . S
H1179 C1195 0.959 . S
H1180 C1195 0.959 . S
H1181 C1195 0.961 . S
H1182 C1196 0.960 . S
H1183 C1196 0.961 . S
H1184 C1196 0.959 . S
H1185 C1199 0.929 . S
H1186 C1200 0.931 . S
H1187 C1202 0.930 . S
C1188 H1176 0.930 . S
C1188 C1189 1.399 . S
C1188 C1193 1.399 . S
C1189 C1188 1.399 . S
C1189 C1190 1.376 . S
C1190 H1177 0.930 . S
C1190 C1189 1.376 . S
C1190 C1191 1.388 . S
C1191 H1178 0.930 . S
C1191 C1190 1.388 . S
C1191 C1192 1.390 . S
C1192 C1191 1.390 . S
C1192 C1193 1.394 . S
C1192 C1198 1.465 . S
C1193 C1188 1.399 . S
C1193 C1192 1.394 . S
C1193 C1194 1.516 . S
C1194 C1193 1.516 . S
C1194 C1195 1.502 . S
C1194 C1196 1.561 . S
C1194 C1197 1.526 . S
C1195 H1179 0.959 . S
C1195 H1180 0.959 . S
C1195 H1181 0.961 . S
C1195 C1194 1.502 . S
C1196 H1182 0.960 . S
C1196 H1183 0.961 . S
C1196 H1184 0.959 . S
C1196 C1194 1.561 . S
C1197 C1194 1.526 . S
C1197 C1198 1.396 . S
C1197 C1202 1.390 . S
C1198 C1192 1.465 . S
C1198 C1197 1.396 . S
C1198 C1199 1.399 . S
C1199 H1185 0.929 . S
C1199 C1198 1.399 . S
C1199 C1200 1.385 . S
C1200 H1186 0.931 . S
C1200 C1199 1.385 . S
C1200 C1201 1.389 . S
C1201 C1200 1.389 . S
C1201 C1202 1.387 . S
C1202 H1187 0.930 . S
C1202 C1197 1.390 . S
C1202 C1201 1.387 . S
H1203 C1215 0.930 . S
H1204 C1217 0.930 . S
H1205 C1218 0.930 . S
H1206 C1222 0.959 . S
H1207 C1222 0.959 . S
H1208 C1222 0.961 . S
H1209 C1223 0.960 . S
H1210 C1223 0.961 . S
H1211 C1223 0.959 . S
H1212 C1226 0.929 . S
H1213 C1227 0.931 . S
H1214 C1229 0.930 . S
C1215 H1203 0.930 . S
C1215 C1216 1.399 . S
C1215 C1220 1.399 . S
C1216 C1215 1.399 . S
C1216 C1217 1.376 . S
C1217 H1204 0.930 . S
C1217 C1216 1.376 . S
C1217 C1218 1.388 . S
C1218 H1205 0.930 . S
C1218 C1217 1.388 . S
C1218 C1219 1.390 . S
C1219 C1218 1.390 . S
C1219 C1220 1.394 . S
C1219 C1225 1.465 . S
C1220 C1215 1.399 . S
C1220 C1219 1.394 . S
C1220 C1221 1.516 . S
C1221 C1220 1.516 . S
C1221 C1222 1.502 . S
C1221 C1223 1.561 . S
C1221 C1224 1.526 . S
C1222 H1206 0.959 . S
C1222 H1207 0.959 . S
C1222 H1208 0.961 . S
C1222 C1221 1.502 . S
C1223 H1209 0.960 . S
C1223 H1210 0.961 . S
C1223 H1211 0.959 . S
C1223 C1221 1.561 . S
C1224 C1221 1.526 . S
C1224 C1225 1.396 . S
C1224 C1229 1.390 . S
C1225 C1219 1.465 . S
C1225 C1224 1.396 . S
C1225 C1226 1.399 . S
C1226 H1212 0.929 . S
C1226 C1225 1.399 . S
C1226 C1227 1.385 . S
C1227 H1213 0.931 . S
C1227 C1226 1.385 . S
C1227 C1228 1.389 . S
C1228 C1227 1.389 . S
C1228 C1229 1.387 . S
C1229 H1214 0.930 . S
C1229 C1224 1.390 . S
C1229 C1228 1.387 . S
H1230 C1242 0.930 . S
H1231 C1244 0.930 . S
H1232 C1245 0.930 . S
H1233 C1249 0.959 . S
H1234 C1249 0.959 . S
H1235 C1249 0.961 . S
H1236 C1250 0.960 . S
H1237 C1250 0.961 . S
H1238 C1250 0.959 . S
H1239 C1253 0.929 . S
H1240 C1254 0.931 . S
H1241 C1256 0.930 . S
C1242 H1230 0.930 . S
C1242 C1243 1.399 . S
C1242 C1247 1.399 . S
C1243 C1242 1.399 . S
C1243 C1244 1.376 . S
C1244 H1231 0.930 . S
C1244 C1243 1.376 . S
C1244 C1245 1.388 . S
C1245 H1232 0.930 . S
C1245 C1244 1.388 . S
C1245 C1246 1.390 . S
C1246 C1245 1.390 . S
C1246 C1247 1.394 . S
C1246 C1252 1.465 . S
C1247 C1242 1.399 . S
C1247 C1246 1.394 . S
C1247 C1248 1.516 . S
C1248 C1247 1.516 . S
C1248 C1249 1.502 . S
C1248 C1250 1.561 . S
C1248 C1251 1.526 . S
C1249 H1233 0.959 . S
C1249 H1234 0.959 . S
C1249 H1235 0.961 . S
C1249 C1248 1.502 . S
C1250 H1236 0.960 . S
C1250 H1237 0.961 . S
C1250 H1238 0.959 . S
C1250 C1248 1.561 . S
C1251 C1248 1.526 . S
C1251 C1252 1.396 . S
C1251 C1256 1.390 . S
C1252 C1246 1.465 . S
C1252 C1251 1.396 . S
C1252 C1253 1.399 . S
C1253 H1239 0.929 . S
C1253 C1252 1.399 . S
C1253 C1254 1.385 . S
C1254 H1240 0.931 . S
C1254 C1253 1.385 . S
C1254 C1255 1.389 . S
C1255 C1254 1.389 . S
C1255 C1256 1.387 . S
C1256 H1241 0.930 . S
C1256 C1251 1.390 . S
C1256 C1255 1.387 . S
H1257 C1269 0.930 . S
H1258 C1271 0.930 . S
H1259 C1272 0.930 . S
H1260 C1276 0.959 . S
H1261 C1276 0.959 . S
H1262 C1276 0.961 . S
H1263 C1277 0.960 . S
H1264 C1277 0.961 . S
H1265 C1277 0.959 . S
H1266 C1280 0.929 . S
H1267 C1281 0.931 . S
H1268 C1283 0.930 . S
C1269 H1257 0.930 . S
C1269 C1270 1.399 . S
C1269 C1274 1.399 . S
C1270 C1269 1.399 . S
C1270 C1271 1.376 . S
C1271 H1258 0.930 . S
C1271 C1270 1.376 . S
C1271 C1272 1.388 . S
C1272 H1259 0.930 . S
C1272 C1271 1.388 . S
C1272 C1273 1.390 . S
C1273 C1272 1.390 . S
C1273 C1274 1.394 . S
C1273 C1279 1.465 . S
C1274 C1269 1.399 . S
C1274 C1273 1.394 . S
C1274 C1275 1.516 . S
C1275 C1274 1.516 . S
C1275 C1276 1.502 . S
C1275 C1277 1.561 . S
C1275 C1278 1.526 . S
C1276 H1260 0.959 . S
C1276 H1261 0.959 . S
C1276 H1262 0.961 . S
C1276 C1275 1.502 . S
C1277 H1263 0.960 . S
C1277 H1264 0.961 . S
C1277 H1265 0.959 . S
C1277 C1275 1.561 . S
C1278 C1275 1.526 . S
C1278 C1279 1.396 . S
C1278 C1283 1.390 . S
C1279 C1273 1.465 . S
C1279 C1278 1.396 . S
C1279 C1280 1.399 . S
C1280 H1266 0.929 . S
C1280 C1279 1.399 . S
C1280 C1281 1.385 . S
C1281 H1267 0.931 . S
C1281 C1280 1.385 . S
C1281 C1282 1.389 . S
C1282 C1281 1.389 . S
C1282 C1283 1.387 . S
C1283 H1268 0.930 . S
C1283 C1278 1.390 . S
C1283 C1282 1.387 . S
H1284 C1296 0.930 . S
H1285 C1298 0.930 . S
H1286 C1299 0.930 . S
H1287 C1303 0.959 . S
H1288 C1303 0.959 . S
H1289 C1303 0.961 . S
H1290 C1304 0.960 . S
H1291 C1304 0.961 . S
H1292 C1304 0.959 . S
H1293 C1307 0.929 . S
H1294 C1308 0.931 . S
H1295 C1310 0.930 . S
C1296 H1284 0.930 . S
C1296 C1297 1.399 . S
C1296 C1301 1.399 . S
C1297 C1296 1.399 . S
C1297 C1298 1.376 . S
C1298 H1285 0.930 . S
C1298 C1297 1.376 . S
C1298 C1299 1.388 . S
C1299 H1286 0.930 . S
C1299 C1298 1.388 . S
C1299 C1300 1.390 . S
C1300 C1299 1.390 . S
C1300 C1301 1.394 . S
C1300 C1306 1.465 . S
C1301 C1296 1.399 . S
C1301 C1300 1.394 . S
C1301 C1302 1.516 . S
C1302 C1301 1.516 . S
C1302 C1303 1.502 . S
C1302 C1304 1.561 . S
C1302 C1305 1.526 . S
C1303 H1287 0.959 . S
C1303 H1288 0.959 . S
C1303 H1289 0.961 . S
C1303 C1302 1.502 . S
C1304 H1290 0.960 . S
C1304 H1291 0.961 . S
C1304 H1292 0.959 . S
C1304 C1302 1.561 . S
C1305 C1302 1.526 . S
C1305 C1306 1.396 . S
C1305 C1310 1.390 . S
C1306 C1300 1.465 . S
C1306 C1305 1.396 . S
C1306 C1307 1.399 . S
C1307 H1293 0.929 . S
C1307 C1306 1.399 . S
C1307 C1308 1.385 . S
C1308 H1294 0.931 . S
C1308 C1307 1.385 . S
C1308 C1309 1.389 . S
C1309 C1308 1.389 . S
C1309 C1310 1.387 . S
C1310 H1295 0.930 . S
C1310 C1305 1.390 . S
C1310 C1309 1.387 . S
H1311 C1323 0.930 . S
H1312 C1325 0.930 . S
H1313 C1326 0.930 . S
H1314 C1330 0.959 . S
H1315 C1330 0.959 . S
H1316 C1330 0.961 . S
H1317 C1331 0.960 . S
H1318 C1331 0.961 . S
H1319 C1331 0.959 . S
H1320 C1334 0.929 . S
H1321 C1335 0.931 . S
H1322 C1337 0.930 . S
C1323 H1311 0.930 . S
C1323 C1324 1.399 . S
C1323 C1328 1.399 . S
C1324 C1323 1.399 . S
C1324 C1325 1.376 . S
C1325 H1312 0.930 . S
C1325 C1324 1.376 . S
C1325 C1326 1.388 . S
C1326 H1313 0.930 . S
C1326 C1325 1.388 . S
C1326 C1327 1.390 . S
C1327 C1326 1.390 . S
C1327 C1328 1.394 . S
C1327 C1333 1.465 . S
C1328 C1323 1.399 . S
C1328 C1327 1.394 . S
C1328 C1329 1.516 . S
C1329 C1328 1.516 . S
C1329 C1330 1.502 . S
C1329 C1331 1.561 . S
C1329 C1332 1.526 . S
C1330 H1314 0.959 . S
C1330 H1315 0.959 . S
C1330 H1316 0.961 . S
C1330 C1329 1.502 . S
C1331 H1317 0.960 . S
C1331 H1318 0.961 . S
C1331 H1319 0.959 . S
C1331 C1329 1.561 . S
C1332 C1329 1.526 . S
C1332 C1333 1.396 . S
C1332 C1337 1.390 . S
C1333 C1327 1.465 . S
C1333 C1332 1.396 . S
C1333 C1334 1.399 . S
C1334 H1320 0.929 . S
C1334 C1333 1.399 . S
C1334 C1335 1.385 . S
C1335 H1321 0.931 . S
C1335 C1334 1.385 . S
C1335 C1336 1.389 . S
C1336 C1335 1.389 . S
C1336 C1337 1.387 . S
C1337 H1322 0.930 . S
C1337 C1332 1.390 . S
C1337 C1336 1.387 . S
H1338 C1350 0.930 . S
H1339 C1352 0.930 . S
H1340 C1353 0.930 . S
H1341 C1357 0.959 . S
H1342 C1357 0.959 . S
H1343 C1357 0.961 . S
H1344 C1358 0.960 . S
H1345 C1358 0.961 . S
H1346 C1358 0.959 . S
H1347 C1361 0.929 . S
H1348 C1362 0.931 . S
H1349 C1364 0.930 . S
C1350 H1338 0.930 . S
C1350 C1351 1.399 . S
C1350 C1355 1.399 . S
C1351 C1350 1.399 . S
C1351 C1352 1.376 . S
C1352 H1339 0.930 . S
C1352 C1351 1.376 . S
C1352 C1353 1.388 . S
C1353 H1340 0.930 . S
C1353 C1352 1.388 . S
C1353 C1354 1.390 . S
C1354 C1353 1.390 . S
C1354 C1355 1.394 . S
C1354 C1360 1.465 . S
C1355 C1350 1.399 . S
C1355 C1354 1.394 . S
C1355 C1356 1.516 . S
C1356 C1355 1.516 . S
C1356 C1357 1.502 . S
C1356 C1358 1.561 . S
C1356 C1359 1.526 . S
C1357 H1341 0.959 . S
C1357 H1342 0.959 . S
C1357 H1343 0.961 . S
C1357 C1356 1.502 . S
C1358 H1344 0.960 . S
C1358 H1345 0.961 . S
C1358 H1346 0.959 . S
C1358 C1356 1.561 . S
C1359 C1356 1.526 . S
C1359 C1360 1.396 . S
C1359 C1364 1.390 . S
C1360 C1354 1.465 . S
C1360 C1359 1.396 . S
C1360 C1361 1.399 . S
C1361 H1347 0.929 . S
C1361 C1360 1.399 . S
C1361 C1362 1.385 . S
C1362 H1348 0.931 . S
C1362 C1361 1.385 . S
C1362 C1363 1.389 . S
C1363 C1362 1.389 . S
C1363 C1364 1.387 . S
C1364 H1349 0.930 . S
C1364 C1359 1.390 . S
C1364 C1363 1.387 . S
H1365 C1377 0.930 . S
H1366 C1379 0.930 . S
H1367 C1380 0.930 . S
H1368 C1384 0.959 . S
H1369 C1384 0.959 . S
H1370 C1384 0.961 . S
H1371 C1385 0.960 . S
H1372 C1385 0.961 . S
H1373 C1385 0.959 . S
H1374 C1388 0.929 . S
H1375 C1389 0.931 . S
H1376 C1391 0.930 . S
C1377 H1365 0.930 . S
C1377 C1378 1.399 . S
C1377 C1382 1.399 . S
C1378 C1377 1.399 . S
C1378 C1379 1.376 . S
C1379 H1366 0.930 . S
C1379 C1378 1.376 . S
C1379 C1380 1.388 . S
C1380 H1367 0.930 . S
C1380 C1379 1.388 . S
C1380 C1381 1.390 . S
C1381 C1380 1.390 . S
C1381 C1382 1.394 . S
C1381 C1387 1.465 . S
C1382 C1377 1.399 . S
C1382 C1381 1.394 . S
C1382 C1383 1.516 . S
C1383 C1382 1.516 . S
C1383 C1384 1.502 . S
C1383 C1385 1.561 . S
C1383 C1386 1.526 . S
C1384 H1368 0.959 . S
C1384 H1369 0.959 . S
C1384 H1370 0.961 . S
C1384 C1383 1.502 . S
C1385 H1371 0.960 . S
C1385 H1372 0.961 . S
C1385 H1373 0.959 . S
C1385 C1383 1.561 . S
C1386 C1383 1.526 . S
C1386 C1387 1.396 . S
C1386 C1391 1.390 . S
C1387 C1381 1.465 . S
C1387 C1386 1.396 . S
C1387 C1388 1.399 . S
C1388 H1374 0.929 . S
C1388 C1387 1.399 . S
C1388 C1389 1.385 . S
C1389 H1375 0.931 . S
C1389 C1388 1.385 . S
C1389 C1390 1.389 . S
C1390 C1389 1.389 . S
C1390 C1391 1.387 . S
C1391 H1376 0.930 . S
C1391 C1386 1.390 . S
C1391 C1390 1.387 . S
H1392 C1404 0.930 . S
H1393 C1406 0.930 . S
H1394 C1407 0.930 . S
H1395 C1411 0.959 . S
H1396 C1411 0.959 . S
H1397 C1411 0.961 . S
H1398 C1412 0.960 . S
H1399 C1412 0.961 . S
H1400 C1412 0.959 . S
H1401 C1415 0.929 . S
H1402 C1416 0.931 . S
H1403 C1418 0.930 . S
C1404 H1392 0.930 . S
C1404 C1405 1.399 . S
C1404 C1409 1.399 . S
C1405 C1404 1.399 . S
C1405 C1406 1.376 . S
C1406 H1393 0.930 . S
C1406 C1405 1.376 . S
C1406 C1407 1.388 . S
C1407 H1394 0.930 . S
C1407 C1406 1.388 . S
C1407 C1408 1.390 . S
C1408 C1407 1.390 . S
C1408 C1409 1.394 . S
C1408 C1414 1.465 . S
C1409 C1404 1.399 . S
C1409 C1408 1.394 . S
C1409 C1410 1.519 . S
C1410 C1409 1.519 . S
C1410 C1411 1.479 1_455 S
C1410 C1412 1.586 . S
C1410 C1413 1.524 1_455 S
C1411 H1395 0.959 . S
C1411 H1396 0.959 . S
C1411 H1397 0.961 . S
C1411 C1410 1.479 1_655 S
C1412 H1398 0.960 . S
C1412 H1399 0.961 . S
C1412 H1400 0.959 . S
C1412 C1410 1.586 . S
C1413 C1410 1.524 1_655 S
C1413 C1414 1.396 1_655 S
C1413 C1418 1.390 . S
C1414 C1408 1.465 . S
C1414 C1413 1.396 1_455 S
C1414 C1415 1.399 . S
C1415 H1401 0.929 . S
C1415 C1414 1.399 . S
C1415 C1416 1.385 1_455 S
C1416 H1402 0.931 . S
C1416 C1415 1.385 1_655 S
C1416 C1417 1.389 . S
C1417 C1416 1.389 . S
C1417 C1418 1.387 . S
C1418 H1403 0.930 . S
C1418 C1413 1.390 . S
C1418 C1417 1.387 . S
H1419 C1431 0.930 . S
H1420 C1433 0.930 . S
H1421 C1434 0.930 . S
H1422 C1438 0.959 . S
H1423 C1438 0.959 . S
H1424 C1438 0.961 . S
H1425 C1439 0.960 . S
H1426 C1439 0.961 . S
H1427 C1439 0.959 . S
H1428 C1442 0.929 . S
H1429 C1443 0.931 . S
H1430 C1445 0.930 . S
C1431 H1419 0.930 . S
C1431 C1432 1.399 . S
C1431 C1436 1.399 . S
C1432 C1431 1.399 . S
C1432 C1433 1.376 1_565 S
C1433 H1420 0.930 . S
C1433 C1432 1.376 1_545 S
C1433 C1434 1.388 . S
C1434 H1421 0.930 . S
C1434 C1433 1.388 . S
C1434 C1435 1.390 . S
C1435 C1434 1.390 . S
C1435 C1436 1.394 1_545 S
C1435 C1441 1.465 . S
C1436 C1431 1.399 . S
C1436 C1435 1.394 1_565 S
C1436 C1437 1.516 . S
C1437 C1436 1.516 . S
C1437 C1438 1.502 . S
C1437 C1439 1.561 . S
C1437 C1440 1.526 . S
C1438 H1422 0.959 . S
C1438 H1423 0.959 . S
C1438 H1424 0.961 . S
C1438 C1437 1.502 . S
C1439 H1425 0.960 . S
C1439 H1426 0.961 . S
C1439 H1427 0.959 . S
C1439 C1437 1.561 . S
C1440 C1437 1.526 . S
C1440 C1441 1.396 1_565 S
C1440 C1445 1.390 . S
C1441 C1435 1.465 . S
C1441 C1440 1.396 1_545 S
C1441 C1442 1.399 . S
C1442 H1428 0.929 . S
C1442 C1441 1.399 . S
C1442 C1443 1.385 . S
C1443 H1429 0.931 . S
C1443 C1442 1.385 . S
C1443 C1444 1.389 . S
C1444 C1443 1.389 . S
C1444 C1445 1.387 1_545 S
C1445 H1430 0.930 . S
C1445 C1440 1.390 . S
C1445 C1444 1.387 1_565 S
H1446 C1458 0.923 1_655 S
H1447 C1460 0.930 . S
H1448 C1461 0.930 . S
H1449 C1465 0.959 . S
H1450 C1465 0.959 . S
H1451 C1465 0.961 . S
H1452 C1466 0.960 . S
H1453 C1466 0.961 . S
H1454 C1466 0.959 . S
H1455 C1469 0.929 . S
H1456 C1470 0.931 . S
H1457 C1472 0.930 . S
C1458 H1446 0.923 1_455 S
C1458 C1459 1.406 . S
C1458 C1463 1.399 . S
C1459 C1458 1.406 . S
C1459 C1460 1.376 . S
C1460 H1447 0.930 . S
C1460 C1459 1.376 . S
C1460 C1461 1.388 . S
C1461 H1448 0.930 . S
C1461 C1460 1.388 . S
C1461 C1462 1.390 . S
C1462 C1461 1.390 . S
C1462 C1463 1.402 . S
C1462 C1468 1.465 . S
C1463 C1458 1.399 . S
C1463 C1462 1.402 . S
C1463 C1464 1.510 1_455 S
C1464 C1463 1.510 1_655 S
C1464 C1465 1.502 . S
C1464 C1466 1.561 1_655 S
C1464 C1467 1.526 . S
C1465 H1449 0.959 . S
C1465 H1450 0.959 . S
C1465 H1451 0.961 . S
C1465 C1464 1.502 . S
C1466 H1452 0.960 . S
C1466 H1453 0.961 . S
C1466 H1454 0.959 . S
C1466 C1464 1.561 1_455 S
C1467 C1464 1.526 . S
C1467 C1468 1.396 1_655 S
C1467 C1472 1.390 . S
C1468 C1462 1.465 . S
C1468 C1467 1.396 1_455 S
C1468 C1469 1.399 . S
C1469 H1455 0.929 . S
C1469 C1468 1.399 . S
C1469 C1470 1.385 . S
C1470 H1456 0.931 . S
C1470 C1469 1.385 . S
C1470 C1471 1.389 1_455 S
C1471 C1470 1.389 1_655 S
C1471 C1472 1.387 . S
C1472 H1457 0.930 . S
C1472 C1467 1.390 . S
C1472 C1471 1.387 . S
H1473 C1485 0.930 . S
H1474 C1487 0.930 . S
H1475 C1488 0.930 . S
H1476 C1492 0.959 . S
H1477 C1492 0.959 . S
H1478 C1492 0.961 . S
H1479 C1493 0.960 . S
H1480 C1493 0.961 . S
H1481 C1493 0.959 . S
H1482 C1496 0.929 . S
H1483 C1497 0.931 . S
H1484 C1499 0.930 . S
C1485 H1473 0.930 . S
C1485 C1486 1.399 . S
C1485 C1490 1.399 . S
C1486 C1485 1.399 . S
C1486 C1487 1.376 1_545 S
C1487 H1474 0.930 . S
C1487 C1486 1.376 1_565 S
C1487 C1488 1.388 . S
C1488 H1475 0.930 . S
C1488 C1487 1.388 . S
C1488 C1489 1.390 . S
C1489 C1488 1.390 . S
C1489 C1490 1.394 1_565 S
C1489 C1495 1.465 . S
C1490 C1485 1.399 . S
C1490 C1489 1.394 1_545 S
C1490 C1491 1.516 . S
C1491 C1490 1.516 . S
C1491 C1492 1.502 . S
C1491 C1493 1.561 . S
C1491 C1494 1.526 . S
C1492 H1476 0.959 . S
C1492 H1477 0.959 . S
C1492 H1478 0.961 . S
C1492 C1491 1.502 . S
C1493 H1479 0.960 . S
C1493 H1480 0.961 . S
C1493 H1481 0.959 . S
C1493 C1491 1.561 . S
C1494 C1491 1.526 . S
C1494 C1495 1.396 1_545 S
C1494 C1499 1.390 . S
C1495 C1489 1.465 . S
C1495 C1494 1.396 1_565 S
C1495 C1496 1.399 . S
C1496 H1482 0.929 . S
C1496 C1495 1.399 . S
C1496 C1497 1.385 . S
C1497 H1483 0.931 . S
C1497 C1496 1.385 . S
C1497 C1498 1.389 . S
C1498 C1497 1.389 . S
C1498 C1499 1.387 1_565 S
C1499 H1484 0.930 . S
C1499 C1494 1.390 . S
C1499 C1498 1.387 1_545 S
H1500 C1512 0.930 . S
H1501 C1514 0.930 . S
H1502 C1515 0.930 . S
H1503 C1519 0.959 . S
H1504 C1519 0.959 . S
H1505 C1519 0.961 1_556 S
H1506 C1520 0.999 . S
H1507 C1520 0.925 1_554 S
H1508 C1520 0.959 . S
H1509 C1523 0.929 . S
H1510 C1524 0.931 . S
H1511 C1526 0.930 . S
C1512 H1500 0.930 . S
C1512 C1513 1.399 . S
C1512 C1517 1.399 . S
C1513 C1512 1.399 . S
C1513 C1514 1.376 . S
C1514 H1501 0.930 . S
C1514 C1513 1.376 . S
C1514 C1515 1.388 . S
C1515 H1502 0.930 . S
C1515 C1514 1.388 . S
C1515 C1516 1.390 . S
C1516 C1515 1.390 . S
C1516 C1517 1.394 . S
C1516 C1522 1.465 1_556 S
C1517 C1512 1.399 . S
C1517 C1516 1.394 . S
C1517 C1518 1.483 1_556 S
C1518 C1517 1.483 1_554 S
C1518 C1519 1.507 . S
C1518 C1520 1.558 1_554 S
C1518 C1521 1.558 . S
C1519 H1503 0.959 . S
C1519 H1504 0.959 . S
C1519 H1505 0.961 1_554 S
C1519 C1518 1.507 . S
C1520 H1506 0.999 . S
C1520 H1507 0.925 1_556 S
C1520 H1508 0.959 . S
C1520 C1518 1.558 1_556 S
C1521 C1518 1.558 . S
C1521 C1522 1.396 . S
C1521 C1526 1.390 . S
C1522 C1516 1.465 1_554 S
C1522 C1521 1.396 . S
C1522 C1523 1.399 . S
C1523 H1509 0.929 . S
C1523 C1522 1.399 . S
C1523 C1524 1.385 . S
C1524 H1510 0.931 . S
C1524 C1523 1.385 . S
C1524 C1525 1.389 . S
C1525 C1524 1.389 . S
C1525 C1526 1.387 . S
C1526 H1511 0.930 . S
C1526 C1521 1.390 . S
C1526 C1525 1.387 . S
H1527 C1539 0.930 . S
H1528 C1541 0.930 . S
H1529 C1542 0.930 . S
H1530 C1546 0.959 . S
H1531 C1546 0.959 . S
H1532 C1546 0.961 1_554 S
H1533 C1547 0.960 1_554 S
H1534 C1547 0.961 . S
H1535 C1547 0.959 . S
H1536 C1550 0.929 . S
H1537 C1551 0.931 . S
H1538 C1553 0.930 . S
C1539 H1527 0.930 . S
C1539 C1540 1.399 . S
C1539 C1544 1.399 . S
C1540 C1539 1.399 . S
C1540 C1541 1.376 . S
C1541 H1528 0.930 . S
C1541 C1540 1.376 . S
C1541 C1542 1.388 . S
C1542 H1529 0.930 . S
C1542 C1541 1.388 . S
C1542 C1543 1.390 . S
C1543 C1542 1.390 . S
C1543 C1544 1.394 . S
C1543 C1549 1.465 1_554 S
C1544 C1539 1.399 . S
C1544 C1543 1.394 . S
C1544 C1545 1.516 1_554 S
C1545 C1544 1.516 1_556 S
C1545 C1546 1.502 . S
C1545 C1547 1.561 . S
C1545 C1548 1.526 . S
C1546 H1530 0.959 . S
C1546 H1531 0.959 . S
C1546 H1532 0.961 1_556 S
C1546 C1545 1.502 . S
C1547 H1533 0.960 1_556 S
C1547 H1534 0.961 . S
C1547 H1535 0.959 . S
C1547 C1545 1.561 . S
C1548 C1545 1.526 . S
C1548 C1549 1.396 . S
C1548 C1553 1.390 . S
C1549 C1543 1.465 1_556 S
C1549 C1548 1.396 . S
C1549 C1550 1.399 . S
C1550 H1536 0.929 . S
C1550 C1549 1.399 . S
C1550 C1551 1.385 . S
C1551 H1537 0.931 . S
C1551 C1550 1.385 . S
C1551 C1552 1.389 . S
C1552 C1551 1.389 . S
C1552 C1553 1.387 . S
C1553 H1538 0.930 . S
C1553 C1548 1.390 . S
C1553 C1552 1.387 . S
H1554 C1566 0.930 . S
H1555 C1568 0.930 . S
H1556 C1569 0.930 . S
H1557 C1573 0.971 . S
H1558 C1573 0.959 1_556 S
H1559 C1573 0.961 . S
H1560 C1574 0.960 . S
H1561 C1574 0.961 1_556 S
H1562 C1574 0.959 . S
H1563 C1577 0.929 . S
H1564 C1578 0.931 . S
H1565 C1580 0.930 . S
C1566 H1554 0.930 . S
C1566 C1567 1.399 . S
C1566 C1571 1.399 . S
C1567 C1566 1.399 . S
C1567 C1568 1.376 . S
C1568 H1555 0.930 . S
C1568 C1567 1.376 . S
C1568 C1569 1.388 . S
C1569 H1556 0.930 . S
C1569 C1568 1.388 . S
C1569 C1570 1.390 . S
C1570 C1569 1.390 . S
C1570 C1571 1.394 . S
C1570 C1576 1.465 1_554 S
C1571 C1566 1.399 . S
C1571 C1570 1.394 . S
C1571 C1572 1.516 . S
C1572 C1571 1.516 . S
C1572 C1573 1.502 . S
C1572 C1574 1.561 . S
C1572 C1575 1.526 1_554 S
C1573 H1557 0.971 . S
C1573 H1558 0.959 1_554 S
C1573 H1559 0.961 . S
C1573 C1572 1.502 . S
C1574 H1560 0.960 . S
C1574 H1561 0.961 1_554 S
C1574 H1562 0.959 . S
C1574 C1572 1.561 . S
C1575 C1572 1.526 1_556 S
C1575 C1576 1.396 . S
C1575 C1580 1.390 . S
C1576 C1570 1.465 1_556 S
C1576 C1575 1.396 . S
C1576 C1577 1.399 . S
C1577 H1563 0.929 . S
C1577 C1576 1.399 . S
C1577 C1578 1.385 . S
C1578 H1564 0.931 . S
C1578 C1577 1.385 . S
C1578 C1579 1.389 . S
C1579 C1578 1.389 . S
C1579 C1580 1.387 . S
C1580 H1565 0.930 . S
C1580 C1575 1.390 . S
C1580 C1579 1.387 . S
H1581 C1593 0.930 . S
H1582 C1595 0.930 . S
H1583 C1596 0.930 . S
H1584 C1600 0.959 . S
H1585 C1600 0.959 . S
H1586 C1600 0.961 1_556 S
H1587 C1601 0.960 1_556 S
H1588 C1601 0.961 . S
H1589 C1601 0.959 . S
H1590 C1604 0.929 . S
H1591 C1605 0.931 . S
H1592 C1607 0.930 . S
C1593 H1581 0.930 . S
C1593 C1594 1.399 . S
C1593 C1598 1.399 . S
C1594 C1593 1.399 . S
C1594 C1595 1.376 . S
C1595 H1582 0.930 . S
C1595 C1594 1.376 . S
C1595 C1596 1.388 . S
C1596 H1583 0.930 . S
C1596 C1595 1.388 . S
C1596 C1597 1.390 . S
C1597 C1596 1.390 . S
C1597 C1598 1.394 . S
C1597 C1603 1.465 1_556 S
C1598 C1593 1.399 . S
C1598 C1597 1.394 . S
C1598 C1599 1.516 1_556 S
C1599 C1598 1.516 1_554 S
C1599 C1600 1.502 . S
C1599 C1601 1.561 . S
C1599 C1602 1.526 . S
C1600 H1584 0.959 . S
C1600 H1585 0.959 . S
C1600 H1586 0.961 1_554 S
C1600 C1599 1.502 . S
C1601 H1587 0.960 1_554 S
C1601 H1588 0.961 . S
C1601 H1589 0.959 . S
C1601 C1599 1.561 . S
C1602 C1599 1.526 . S
C1602 C1603 1.396 . S
C1602 C1607 1.390 . S
C1603 C1597 1.465 1_554 S
C1603 C1602 1.396 . S
C1603 C1604 1.399 . S
C1604 H1590 0.929 . S
C1604 C1603 1.399 . S
C1604 C1605 1.385 . S
C1605 H1591 0.931 . S
C1605 C1604 1.385 . S
C1605 C1606 1.389 . S
C1606 C1605 1.389 . S
C1606 C1607 1.387 . S
C1607 H1592 0.930 . S
C1607 C1602 1.390 . S
C1607 C1606 1.387 . S
C541 C84 0.496 . S
C553 C18 0.428 . S
C568 C51 0.453 . S
C580 C117 0.488 . S
C595 C216 0.445 . S
C607 C150 0.494 . S
C622 C249 0.465 . S
C634 C183 0.478 . S
C649 C282 0.484 . S
C661 C348 0.436 . S
C676 C381 0.475 . S
C688 C315 0.469 . S
C703 C480 0.446 . S
C715 C414 0.493 . S
C730 C447 0.483 . S
C742 C513 0.437 . S
C757 N13 1.776 . S
C769 N508 1.778 . S
C784 N409 1.775 . S
C796 N46 1.778 . S
C811 N442 1.740 . S
C823 N79 1.769 . S
C838 N475 1.724 . S
C850 N112 1.717 . S
C865 N310 1.770 . S
C877 N145 1.780 . S
C892 N343 1.770 . S
C904 N178 1.780 . S
C919 N376 1.780 . S
C931 N211 1.769 . S
C946 N277 1.776 . S
C958 N244 1.778 . S
C973 C7 1.336 . S
C985 C120 1.361 . S
C1000 C21 1.344 . S
C1012 C40 1.385 . S
C1027 C73 1.392 . S
C1039 C54 1.364 . S
C1054 C87 1.338 . S
C1066 C106 1.353 . S
C1081 C186 1.335 . S
C1093 C139 1.368 . S
C1108 C172 1.335 . S
C1120 C219 1.364 . S
C1135 C252 1.336 . S
C1147 C205 1.361 . S
C1162 C153 1.392 . S
C1174 C238 1.361 . S
C1189 C271 1.343 . S
C1201 C384 1.384 . S
C1216 C285 1.336 . S
C1228 C304 1.373 . S
C1243 C337 1.386 . S
C1255 C318 1.381 . S
C1270 C370 1.387 . S
C1282 C351 1.347 . S
C1297 C403 1.339 . S
C1309 C450 1.378 . S
C1324 C483 1.392 . S
C1336 C436 1.364 . S
C1351 C516 1.391 . S
C1363 C469 1.371 . S
C1378 C502 1.336 . S
C1390 C417 1.362 . S
C1405 N2 1.536 . S
C1417 N200 1.525 . S
C1432 N233 1.528 . S
C1444 N35 1.555 . S
C1459 N134 1.543 . S
C1471 N68 1.526 . S
C1486 N167 1.536 . S
C1498 N101 1.567 . S
C1513 N266 1.583 . S
C1525 N464 1.602 . S
C1540 N497 1.528 . S
C1552 N299 1.554 . S
C1567 N398 1.596 . S
C1579 N332 1.569 . S
C1594 N365 1.529 . S
C1606 N431 1.556 . S
