# Generated by pormake.
# Topology sof, (5)-cn, num edge types: 1
# Building blocks:
#     Node 0, Type 0, BuildingBlock: BEQFEK_clean_sbu_0, # of connection points: 5
#     Node 1, Type 0, BuildingBlock: BEQFEK_clean_sbu_0, # of connection points: 5
#     Node 2, Type 0, BuildingBlock: BEQFEK_clean_sbu_0, # of connection points: 5
#     Node 3, Type 0, BuildingBlock: BEQFEK_clean_sbu_0, # of connection points: 5
#     Node 4, Type 0, BuildingBlock: BEQFEK_clean_sbu_0, # of connection points: 5
#     Node 5, Type 0, BuildingBlock: BEQFEK_clean_sbu_0, # of connection points: 5
#     Node 6, Type 0, BuildingBlock: BEQFEK_clean_sbu_0, # of connection points: 5
#     Node 7, Type 0, BuildingBlock: BEQFEK_clean_sbu_0, # of connection points: 5
#     Edge 8, Type (0, 0), BuildingBlock: KIFKEQ_clean_linker_1, # of connection points: 2
#     Edge 9, Type (0, 0), BuildingBlock: KIFKEQ_clean_linker_1, # of connection points: 2
#     Edge 10, Type (0, 0), BuildingBlock: KIFKEQ_clean_linker_1, # of connection points: 2
#     Edge 11, Type (0, 0), BuildingBlock: KIFKEQ_clean_linker_1, # of connection points: 2
#     Edge 12, Type (0, 0), BuildingBlock: KIFKEQ_clean_linker_1, # of connection points: 2
#     Edge 13, Type (0, 0), BuildingBlock: KIFKEQ_clean_linker_1, # of connection points: 2
#     Edge 14, Type (0, 0), BuildingBlock: KIFKEQ_clean_linker_1, # of connection points: 2
#     Edge 15, Type (0, 0), BuildingBlock: KIFKEQ_clean_linker_1, # of connection points: 2
#     Edge 16, Type (0, 0), BuildingBlock: KIFKEQ_clean_linker_1, # of connection points: 2
#     Edge 17, Type (0, 0), BuildingBlock: KIFKEQ_clean_linker_1, # of connection points: 2
#     Edge 18, Type (0, 0), BuildingBlock: KIFKEQ_clean_linker_1, # of connection points: 2
#     Edge 19, Type (0, 0), BuildingBlock: KIFKEQ_clean_linker_1, # of connection points: 2
#     Edge 20, Type (0, 0), BuildingBlock: KIFKEQ_clean_linker_1, # of connection points: 2
#     Edge 21, Type (0, 0), BuildingBlock: KIFKEQ_clean_linker_1, # of connection points: 2
#     Edge 22, Type (0, 0), BuildingBlock: KIFKEQ_clean_linker_1, # of connection points: 2
#     Edge 23, Type (0, 0), BuildingBlock: KIFKEQ_clean_linker_1, # of connection points: 2
#     Edge 24, Type (0, 0), BuildingBlock: KIFKEQ_clean_linker_1, # of connection points: 2
#     Edge 25, Type (0, 0), BuildingBlock: KIFKEQ_clean_linker_1, # of connection points: 2
#     Edge 26, Type (0, 0), BuildingBlock: KIFKEQ_clean_linker_1, # of connection points: 2
#     Edge 27, Type (0, 0), BuildingBlock: KIFKEQ_clean_linker_1, # of connection points: 2
# Relax obj value: 0.155
# Max RMSD: 0.171
# Mean RMSD: 0.171
data_MOF--net-sof--node1-BEQFEK_clean_sbu_0--edge1-KIFKEQ_clean_linker_1
_symmetry_space_group_name_H-M    P1
_symmetry_Int_Tables_number       1
_symmetry_cell_setting            triclinic
loop_
_symmetry_equiv_pos_as_xyz
'x, y, z'
_cell_length_a     59.41992
_cell_length_b     19.116245
_cell_length_c     44.777362
_cell_angle_alpha  89.985661
_cell_angle_beta   90.15106
_cell_angle_gamma 90.041676
loop_
_atom_site_label
_atom_site_type_symbol
_atom_site_fract_x
_atom_site_fract_y
_atom_site_fract_z
_atom_type_partial_charge
Co0 Co 0.13195 0.14856 0.08777 0.0
Co1 Co 0.12909 -0.00109 0.11514 0.0
C2 C 0.17159 0.05545 0.08617 0.0
O3 O 0.16278 0.11378 0.07884 0.0
O4 O 0.16031 0.00924 0.10014 0.0
C5 C 0.14225 0.28583 0.06409 0.0
O6 O 0.16303 0.26336 0.06138 0.0
C7 C 0.13191 0.84905 0.10773 0.0
C8 C 0.11183 0.80792 0.1453 0.0
C9 C 0.12382 0.78806 0.12022 0.0
N10 N 0.12508 0.90298 0.12458 0.0
N11 N 0.11332 0.87815 0.14727 0.0
C12 C 0.14387 0.85663 0.07854 0.0
H13 H 0.14049 0.90878 0.06862 0.0
H14 H 0.13857 0.81502 0.06271 0.0
H15 H 0.16224 0.85137 0.0824 0.0
C16 C 0.09241 0.09699 0.05385 0.0
N17 N 0.10938 0.08762 0.07342 0.0
N18 N 0.10771 0.02505 0.08542 0.0
C19 C 0.08952 0.99251 0.07383 0.0
C20 C 0.07927 0.03693 0.05338 0.0
C21 C 0.0888 0.16265 0.03631 0.0
H22 H 0.08201 0.20363 0.05134 0.0
H23 H 0.10512 0.18156 0.02742 0.0
H24 H 0.07683 0.1542 0.01758 0.0
O25 O 0.12847 0.16125 0.13133 0.0
O26 O 0.1256 0.05609 0.1519 0.0
H27 H 0.08128 0.92082 0.10888 0.0
H28 H 0.06337 0.91353 0.07652 0.0
C29 C 0.08087 0.92306 0.08417 0.0
H30 H 0.09182 0.88104 0.07528 0.0
H31 H 0.10564 0.90928 0.16345 0.0
O32 O 0.12699 0.24371 0.07243 0.0
C33 C 0.12596 0.1225 0.15418 0.0
Co34 Co 0.37499 0.85759 0.08373 0.0
Co35 Co 0.38094 0.00334 0.11436 0.0
C36 C 0.3374 0.95716 0.08359 0.0
O37 O 0.34527 0.89896 0.07459 0.0
O38 O 0.34938 -0.00108 0.09911 0.0
C39 C 0.36114 0.72187 0.07613 0.0
O40 O 0.34405 0.75027 0.09022 0.0
C41 C 0.38307 0.15414 0.1066 0.0
C42 C 0.39107 0.19239 0.15192 0.0
C43 C 0.38637 0.21472 0.12308 0.0
N44 N 0.38585 0.0988 0.12475 0.0
N45 N 0.3908 0.12191 0.15179 0.0
C46 C 0.3756 0.14852 0.07472 0.0
H47 H 0.36991 0.0947 0.06946 0.0
H48 H 0.3899 0.16121 0.05981 0.0
H49 H 0.36186 0.18639 0.07014 0.0
C50 C 0.41543 0.90671 0.05068 0.0
N51 N 0.3988 0.91589 0.07068 0.0
N52 N 0.40206 0.97517 0.08494 0.0
C53 C 0.42135 0.00443 0.07532 0.0
C54 C 0.43039 0.96269 0.05288 0.0
C55 C 0.41659 0.84574 0.02981 0.0
H56 H 0.39937 0.82769 0.02405 0.0
H57 H 0.42577 0.85973 0.0091 0.0
H58 H 0.42552 0.80203 0.04104 0.0
O59 O 0.37754 0.84179 0.12744 0.0
O60 O 0.38371 0.94302 0.15019 0.0
H61 H 0.4279 0.06766 0.11411 0.0
H62 H 0.45099 0.06287 0.08819 0.0
C63 C 0.4324 0.06583 0.09013 0.0
H64 H 0.42662 0.11479 0.07928 0.0
H65 H 0.3934 0.08967 0.17029 0.0
O66 O 0.37714 0.76133 0.0677 0.0
C67 C 0.38124 0.87685 0.15111 0.0
Co68 Co 0.13386 0.34328 0.42052 0.0
Co69 Co 0.12825 0.49187 0.39279 0.0
C70 C 0.17186 0.44355 0.42136 0.0
O71 O 0.16392 0.38437 0.42904 0.0
O72 O 0.15984 0.48756 0.40719 0.0
C73 C 0.14863 0.20871 0.42946 0.0
O74 O 0.16585 0.23705 0.41561 0.0
C75 C 0.12669 0.64223 0.40079 0.0
C76 C 0.11636 0.68066 0.35629 0.0
C77 C 0.12252 0.70269 0.38466 0.0
N78 N 0.12296 0.58703 0.3829 0.0
N79 N 0.11663 0.61019 0.35638 0.0
C80 C 0.13599 0.63677 0.43183 0.0
H81 H 0.15116 0.6703 0.43404 0.0
H82 H 0.14019 0.58189 0.43748 0.0
H83 H 0.12334 0.65551 0.44811 0.0
C84 C 0.09317 0.38739 0.45368 0.0
N85 N 0.11022 0.40008 0.43469 0.0
N86 N 0.1075 0.4623 0.42262 0.0
C87 C 0.08852 0.49112 0.43355 0.0
C88 C 0.07898 0.44491 0.45374 0.0
C89 C 0.09008 0.3202 0.47027 0.0
H90 H 0.08556 0.27834 0.45417 0.0
H91 H 0.10617 0.30512 0.48113 0.0
H92 H 0.07665 0.32462 0.48734 0.0
O93 O 0.13007 0.3288 0.37707 0.0
O94 O 0.12535 0.43319 0.35629 0.0
H95 H 0.08078 0.5633 0.39823 0.0
H96 H 0.06008 0.56044 0.42772 0.0
C97 C 0.07834 0.55807 0.42266 0.0
H98 H 0.08669 0.60268 0.43395 0.0
H99 H 0.11307 0.57799 0.33815 0.0
O100 O 0.13225 0.24765 0.43681 0.0
C101 C 0.12669 0.36684 0.35418 0.0
Co102 Co 0.37594 0.64323 0.4156 0.0
Co103 Co 0.3803 0.49537 0.3868 0.0
C104 C 0.3374 0.54684 0.41708 0.0
O105 O 0.34582 0.60498 0.42546 0.0
O106 O 0.34892 0.50318 0.402 0.0
C107 C 0.36452 0.78162 0.43562 0.0
O108 O 0.3436 0.75947 0.43459 0.0
C109 C 0.37785 0.34498 0.39309 0.0
C110 C 0.39843 0.30578 0.35566 0.0
C111 C 0.38609 0.28464 0.38026 0.0
N112 N 0.38489 0.3998 0.37689 0.0
N113 N 0.397 0.37613 0.35431 0.0
C114 C 0.36535 0.35095 0.42194 0.0
H115 H 0.36888 0.40208 0.43271 0.0
H116 H 0.37005 0.30781 0.43734 0.0
H117 H 0.34704 0.34717 0.41737 0.0
C118 C 0.41641 0.5945 0.4483 0.0
N119 N 0.3994 0.58425 0.42886 0.0
N120 N 0.40149 0.52212 0.41658 0.0
C121 C 0.41995 0.49066 0.42794 0.0
C122 C 0.42997 0.53544 0.44844 0.0
C123 C 0.41961 0.65996 0.4661 0.0
H124 H 0.42572 0.7021 0.45111 0.0
H125 H 0.40324 0.67686 0.47553 0.0
H126 H 0.43196 0.65224 0.48445 0.0
O127 O 0.37798 0.65708 0.372 0.0
O128 O 0.38353 0.55431 0.35037 0.0
H129 H 0.42901 0.42034 0.3928 0.0
H130 H 0.44623 0.41213 0.42581 0.0
C131 C 0.4289 0.4217 0.41753 0.0
H132 H 0.41778 0.37924 0.42569 0.0
H133 H 0.40485 0.40807 0.33855 0.0
O134 O 0.38041 0.73868 0.43098 0.0
C135 C 0.38134 0.62051 0.34872 0.0
Co136 Co 0.87585 0.84578 0.91871 0.0
Co137 Co 0.88159 0.99224 0.88923 0.0
C138 C 0.83822 0.94522 0.91959 0.0
O139 O 0.84617 0.88678 0.9282 0.0
O140 O 0.85011 0.98765 0.90439 0.0
C141 C 0.86193 0.71044 0.92721 0.0
O142 O 0.84463 0.73792 0.91314 0.0
C143 C 0.88031 0.14144 0.89697 0.0
C144 C 0.8967 0.18323 0.85651 0.0
C145 C 0.88644 0.20322 0.88298 0.0
N146 N 0.88647 0.0877 0.87957 0.0
N147 N 0.89622 0.11276 0.85534 0.0
C148 C 0.87049 0.13249 0.9275 0.0
H149 H 0.8753 0.08095 0.93695 0.0
H150 H 0.87627 0.1748 0.94267 0.0
H151 H 0.85187 0.13447 0.92592 0.0
C152 C 0.91679 0.89204 0.95139 0.0
N153 N 0.89981 0.90295 0.93196 0.0
N154 N 0.90278 0.96358 0.91863 0.0
C155 C 0.92202 0.9926 0.92873 0.0
C156 C 0.93144 0.94848 0.94992 0.0
C157 C 0.91971 0.82639 0.96913 0.0
H158 H 0.9238 0.78276 0.95373 0.0
H159 H 0.90366 0.81318 0.98043 0.0
H160 H 0.93338 0.83166 0.98592 0.0
O161 O 0.87813 0.83087 0.87501 0.0
O162 O 0.88423 0.93305 0.853 0.0
H163 H 0.931 0.06154 0.89296 0.0
H164 H 0.94908 0.06845 0.92544 0.0
C165 C 0.93153 0.06037 0.91771 0.0
H166 H 0.9211 0.10406 0.9262 0.0
H167 H 0.90265 0.08186 0.83815 0.0
O168 O 0.87804 0.75029 0.93496 0.0
C169 C 0.88172 0.86692 0.8516 0.0
Co170 Co 0.63492 0.1502 0.91934 0.0
Co171 Co 0.62917 0.00231 0.89109 0.0
C172 C 0.67278 0.05072 0.92023 0.0
O173 O 0.66476 0.10926 0.92853 0.0
O174 O 0.66086 0.00742 0.90547 0.0
C175 C 0.64945 0.28499 0.92771 0.0
O176 O 0.66661 0.2565 0.91383 0.0
C177 C 0.62783 0.85176 0.89892 0.0
C178 C 0.61749 0.81354 0.8544 0.0
C179 C 0.62368 0.79135 0.88274 0.0
N180 N 0.62407 0.90706 0.88109 0.0
N181 N 0.61774 0.88401 0.85455 0.0
C182 C 0.63708 0.85711 0.92999 0.0
H183 H 0.64159 0.91182 0.93552 0.0
H184 H 0.62426 0.8393 0.94625 0.0
H185 H 0.65204 0.82279 0.93238 0.0
C186 C 0.594 0.10541 0.95212 0.0
N187 N 0.61107 0.09328 0.93309 0.0
N188 N 0.60842 0.03115 0.92091 0.0
C189 C 0.58947 0.00187 0.93176 0.0
C190 C 0.57987 0.04763 0.95205 0.0
C191 C 0.59096 0.17208 0.96907 0.0
H192 H 0.58596 0.21409 0.95328 0.0
H193 H 0.60717 0.18765 0.97948 0.0
H194 H 0.57785 0.16668 0.98655 0.0
O195 O 0.63208 0.16451 0.87573 0.0
O196 O 0.62587 0.06123 0.85475 0.0
H197 H 0.58194 0.93013 0.89619 0.0
H198 H 0.56103 0.93266 0.9254 0.0
C199 C 0.57933 0.93506 0.92059 0.0
H200 H 0.58756 0.89029 0.9319 0.0
H201 H 0.61414 0.9163 0.83636 0.0
O202 O 0.63313 0.24603 0.93538 0.0
C203 C 0.6282 0.12733 0.85273 0.0
Co204 Co 0.87527 0.63618 0.58605 0.0
Co205 Co 0.87953 0.48903 0.61568 0.0
C206 C 0.8366 0.54122 0.58487 0.0
O207 O 0.84501 0.59925 0.57642 0.0
O208 O 0.84815 0.49753 0.6 0.0
C209 C 0.86458 0.77491 0.56485 0.0
O210 O 0.84361 0.75315 0.56418 0.0
C211 C 0.87751 0.33911 0.60799 0.0
C212 C 0.89614 0.29792 0.64694 0.0
C213 C 0.88506 0.27805 0.62105 0.0
N214 N 0.88376 0.39307 0.62529 0.0
N215 N 0.89471 0.36821 0.64875 0.0
C216 C 0.86623 0.34663 0.57826 0.0
H217 H 0.86987 0.39876 0.56849 0.0
H218 H 0.87183 0.3049 0.56274 0.0
H219 H 0.84777 0.34155 0.58127 0.0
C220 C 0.91496 0.58439 0.55267 0.0
N221 N 0.89831 0.57583 0.57269 0.0
N222 N 0.90098 0.51566 0.58642 0.0
C223 C 0.91983 0.48471 0.57622 0.0
C224 C 0.9293 0.52689 0.55422 0.0
C225 C 0.9167 0.64618 0.5323 0.0
H226 H 0.92536 0.68942 0.54423 0.0
H227 H 0.89964 0.66448 0.52593 0.0
H228 H 0.92634 0.63306 0.51186 0.0
O229 O 0.87762 0.65005 0.62984 0.0
O230 O 0.8828 0.54756 0.65197 0.0
H231 H 0.92729 0.42074 0.61428 0.0
H232 H 0.94818 0.41661 0.58542 0.0
C233 C 0.92987 0.42024 0.5898 0.0
H234 H 0.9214 0.37341 0.58037 0.0
H235 H 0.90174 0.3993 0.66551 0.0
O236 O 0.88017 0.73173 0.57084 0.0
C237 C 0.88088 0.61384 0.65331 0.0
Co238 Co 0.63208 0.34794 0.58552 0.0
Co239 Co 0.62744 0.49591 0.61416 0.0
C240 C 0.67062 0.44423 0.58453 0.0
O241 O 0.66227 0.38595 0.57623 0.0
O242 O 0.65897 0.48824 0.59925 0.0
C243 C 0.64377 0.20959 0.56603 0.0
O244 O 0.66466 0.23174 0.56788 0.0
C245 C 0.63003 0.64652 0.60836 0.0
C246 C 0.60831 0.68493 0.6448 0.0
C247 C 0.62135 0.70659 0.62093 0.0
N248 N 0.62257 0.59138 0.62402 0.0
N249 N 0.60978 0.61458 0.64602 0.0
C250 C 0.6432 0.64113 0.58002 0.0
H251 H 0.63986 0.59033 0.56887 0.0
H252 H 0.63893 0.68469 0.56462 0.0
H253 H 0.6614 0.64459 0.58538 0.0
C254 C 0.59195 0.39667 0.55203 0.0
N255 N 0.60883 0.40705 0.57169 0.0
N256 N 0.60629 0.46846 0.58448 0.0
C257 C 0.58746 0.4987 0.57366 0.0
C258 C 0.57783 0.45435 0.55271 0.0
C259 C 0.58855 0.33039 0.53487 0.0
H260 H 0.58397 0.28789 0.55062 0.0
H261 H 0.60454 0.31535 0.52385 0.0
H262 H 0.57504 0.33588 0.51788 0.0
O263 O 0.62959 0.33414 0.6292 0.0
O264 O 0.62414 0.43735 0.65051 0.0
H265 H 0.57662 0.56778 0.60832 0.0
H266 H 0.56203 0.58011 0.57321 0.0
C267 C 0.5785 0.56794 0.58369 0.0
H268 H 0.59061 0.60961 0.57757 0.0
H269 H 0.6015 0.58231 0.66126 0.0
O270 O 0.62778 0.25257 0.56998 0.0
C271 C 0.62617 0.37115 0.65235 0.0
H272 H 0.19442 0.93316 0.09435 0.0
H273 H 0.20345 0.14607 0.06408 0.0
H274 H 0.23442 0.91195 0.08861 0.0
H275 H 0.24374 0.12429 0.05801 0.0
H276 H 0.31567 0.07954 0.09654 0.0
H277 H 0.27561 0.10427 0.09215 0.0
H278 H 0.2649 0.90097 0.05249 0.0
H279 H 0.30496 0.8755 0.05735 0.0
C280 C 0.20487 0.97528 0.08605 0.0
C281 C 0.19567 0.04149 0.07983 0.0
C282 C 0.22785 0.96288 0.08257 0.0
C283 C 0.2423 0.0164 0.07286 0.0
C284 C 0.23307 0.08215 0.0658 0.0
C285 C 0.20997 0.09451 0.06914 0.0
C286 C 0.30484 0.04028 0.08659 0.0
C287 C 0.31353 0.97514 0.07763 0.0
C288 C 0.28187 0.05476 0.08386 0.0
C289 C 0.26703 0.00441 0.07216 0.0
C290 C 0.27585 0.94047 0.06199 0.0
C291 C 0.29885 0.92603 0.06465 0.0
H292 H 0.30572 0.63065 0.44376 0.0
H293 H 0.31475 0.42591 0.40461 0.0
H294 H 0.26567 0.60595 0.45032 0.0
H295 H 0.27494 0.40184 0.41089 0.0
H296 H 0.20486 0.35678 0.44297 0.0
H297 H 0.24503 0.38177 0.44734 0.0
H298 H 0.23335 0.59283 0.41656 0.0
H299 H 0.19326 0.56848 0.41267 0.0
C300 C 0.29926 0.58019 0.43683 0.0
C301 C 0.31349 0.53041 0.42355 0.0
C302 C 0.27629 0.56617 0.44048 0.0
C303 C 0.2671 0.50196 0.43109 0.0
C304 C 0.28149 0.45143 0.41876 0.0
C305 C 0.30436 0.4655 0.41499 0.0
C306 C 0.21081 0.40882 0.43756 0.0
C307 C 0.19584 0.46038 0.42719 0.0
C308 C 0.23385 0.42301 0.43991 0.0
C309 C 0.24242 0.48913 0.43208 0.0
C310 C 0.22731 0.54156 0.42302 0.0
C311 C 0.20431 0.52735 0.42057 0.0
H312 H 0.81638 0.06779 0.90735 0.0
H313 H 0.80586 0.86221 0.94511 0.0
H314 H 0.77645 0.09273 0.91237 0.0
H315 H 0.76582 0.88778 0.95045 0.0
H316 H 0.70557 0.13695 0.94284 0.0
H317 H 0.74569 0.112 0.94787 0.0
H318 H 0.73438 0.90214 0.91536 0.0
H319 H 0.69434 0.92647 0.91077 0.0
C320 C 0.80562 0.02822 0.91714 0.0
C321 C 0.81435 0.96276 0.92564 0.0
C322 C 0.78271 0.04276 0.92018 0.0
C323 C 0.76792 0.99215 0.93171 0.0
C324 C 0.77674 0.92756 0.94117 0.0
C325 C 0.79971 0.91308 0.93824 0.0
C326 C 0.71159 0.08518 0.93716 0.0
C327 C 0.69674 0.03391 0.92617 0.0
C328 C 0.7346 0.07104 0.93988 0.0
C329 C 0.74325 0.00523 0.93185 0.0
C330 C 0.72826 0.95315 0.92202 0.0
C331 C 0.7053 0.96733 0.91918 0.0
H332 H 0.69331 0.56549 0.5965 0.0
H333 H 0.70254 0.3586 0.55956 0.0
H334 H 0.73334 0.58821 0.59136 0.0
H335 H 0.74277 0.38181 0.55429 0.0
H336 H 0.81419 0.41876 0.5953 0.0
H337 H 0.77411 0.39603 0.59012 0.0
H338 H 0.76427 0.60454 0.55534 0.0
H339 H 0.80451 0.62781 0.56074 0.0
C340 C 0.70379 0.52517 0.58684 0.0
C341 C 0.69465 0.46006 0.57857 0.0
C342 C 0.72678 0.53842 0.58375 0.0
C343 C 0.74126 0.48678 0.57247 0.0
C344 C 0.73206 0.42241 0.56332 0.0
C345 C 0.70899 0.40927 0.56623 0.0
C346 C 0.80359 0.4596 0.58618 0.0
C347 C 0.8126 0.52534 0.57865 0.0
C348 C 0.78058 0.44633 0.58304 0.0
C349 C 0.76599 0.49855 0.57242 0.0
C350 C 0.77507 0.56349 0.56389 0.0
C351 C 0.79814 0.57668 0.56685 0.0
H352 H 0.04132 0.11629 0.05483 0.0
H353 H 0.0694 0.92961 0.01582 0.0
H354 H 0.00534 0.09271 0.02985 0.0
H355 H 0.03347 0.90581 0.99073 0.0
H356 H 0.97301 0.94054 0.92548 0.0
H357 H 0.00926 0.9618 0.9502 0.0
H358 H 0.9747 -0.00088 0.03344 0.0
H359 H 0.93849 0.97719 0.00854 0.0
C360 C 0.03977 0.07059 0.04067 0.0
C361 C 0.058 0.0248 0.03706 0.0
C362 C 0.0192 0.05674 0.02663 0.0
C363 C 0.01662 -0.00272 0.00846 0.0
C364 C 0.03504 0.95218 0.00448 0.0
C365 C 0.05551 0.96561 0.01883 0.0
C366 C 0.97332 0.95271 0.94911 0.0
C367 C 0.95321 0.95725 0.96528 0.0
C368 C 0.99396 0.96474 0.96324 0.0
C369 C 0.99476 0.98238 0.99369 0.0
C370 C 0.97454 0.9863 0.00987 0.0
C371 C 0.95391 0.97336 0.99579 0.0
H372 H 0.44625 0.08559 0.03042 0.0
H373 H 0.46288 0.86673 0.03852 0.0
H374 H 0.48258 0.10819 0.00773 0.0
H375 H 0.49828 0.88745 0.01291 0.0
H376 H 0.56997 0.95205 0.9946 0.0
H377 H 0.53384 0.93228 0.01893 0.0
H378 H 0.50462 0.09896 0.96603 0.0
H379 H 0.54133 0.12114 0.9436 0.0
C380 C 0.45763 0.04211 0.02706 0.0
C381 C 0.45174 0.97449 0.03648 0.0
C382 C 0.47839 0.05481 0.01355 0.0
C383 C 0.49364 -0.00019 0.00839 0.0
C384 C 0.48734 0.93163 0.01701 0.0
C385 C 0.46676 0.9193 0.03117 0.0
C386 C 0.55578 0.98482 0.98866 0.0
C387 C 0.55827 0.03847 0.96764 0.0
C388 C 0.53497 0.97305 0.00222 0.0
C389 C 0.51603 0.01359 0.99443 0.0
C390 C 0.51875 0.06742 0.97318 0.0
C391 C 0.53973 0.08013 0.96016 0.0
H392 H 0.03997 0.37578 0.44263 0.0
H393 H 0.06949 0.53412 0.49882 0.0
H394 H 1.00323 0.3969 0.46521 0.0
H395 H 0.0333 0.55256 0.52319 0.0
H396 H 0.96277 0.62142 0.54289 0.0
H397 H 0.99825 0.60131 0.51746 0.0
H398 H 0.98064 0.38308 0.5064 0.0
H399 H 0.94424 0.40555 0.52914 0.0
C400 C 0.03853 0.41417 0.46032 0.0
C401 C 0.05733 0.4532 0.46923 0.0
C402 C 0.01755 0.42621 0.47343 0.0
C403 C 0.01507 0.47672 0.49613 0.0
C404 C 0.03426 0.5145 0.50536 0.0
C405 C 0.05509 0.50344 0.49175 0.0
C406 C 0.96627 0.56961 0.53433 0.0
C407 C 0.9507 0.51511 0.53798 0.0
C408 C 0.98688 0.55755 0.52025 0.0
C409 C 0.99265 0.49021 0.51005 0.0
C410 C 0.97686 0.43586 0.51352 0.0
C411 C 0.95606 0.44841 0.52699 0.0
H412 H 0.46783 0.61496 0.44565 0.0
H413 H 0.44003 0.43073 0.48719 0.0
H414 H 0.50392 0.59359 0.47079 0.0
H415 H 0.47601 0.40953 0.51264 0.0
H416 H 0.53634 0.45318 0.5776 0.0
H417 H 0.50011 0.47266 0.55257 0.0
H418 H 0.53452 0.49695 0.46836 0.0
H419 H 0.57072 0.47649 0.49354 0.0
C420 C 0.46948 0.57028 0.46039 0.0
C421 C 0.45132 0.5245 0.46468 0.0
C422 C 0.49009 0.55775 0.47454 0.0
C423 C 0.49273 0.49982 0.49357 0.0
C424 C 0.47437 0.45473 0.49821 0.0
C425 C 0.45388 0.46669 0.48367 0.0
C426 C 0.53601 0.46223 0.55372 0.0
C427 C 0.55608 0.46337 0.53733 0.0
C428 C 0.51538 0.4732 0.53942 0.0
C429 C 0.51456 0.4865 0.50857 0.0
C430 C 0.53473 0.4874 0.4922 0.0
C431 C 0.55534 0.47537 0.50647 0.0
H432 H 0.11502 0.23159 0.34308 0.0
H433 H 0.13379 0.42361 0.29883 0.0
H434 H 0.11282 0.17242 0.29517 0.0
H435 H 0.13284 0.36363 0.25084 0.0
H436 H 0.11207 0.25526 0.16595 0.0
H437 H 0.1103 0.31395 0.214 0.0
H438 H 0.13488 0.12637 0.25718 0.0
H439 H 0.13541 0.06669 0.20911 0.0
C440 C 0.11881 0.26109 0.32305 0.0
C441 C 0.12461 0.33229 0.32473 0.0
C442 C 0.11773 0.22696 0.29552 0.0
C443 C 0.12281 0.26278 0.26894 0.0
C444 C 0.12842 0.33436 0.27067 0.0
C445 C 0.12911 0.36885 0.29823 0.0
C446 C 0.11694 0.22642 0.18577 0.0
C447 C 0.12392 0.15635 0.18375 0.0
C448 C 0.11611 0.26031 0.21337 0.0
C449 C 0.12263 0.22542 0.23966 0.0
C450 C 0.12937 0.15485 0.2376 0.0
C451 C 0.1298 0.12055 0.21 0.0
H452 H 0.3714 0.75694 0.33711 0.0
H453 H 0.39371 0.56687 0.29414 0.0
H454 H 0.37233 0.8176 0.28963 0.0
H455 H 0.3954 0.6287 0.24643 0.0
H456 H 0.37045 0.74037 0.16196 0.0
H457 H 0.37148 0.67819 0.20925 0.0
H458 H 0.39672 0.86418 0.25288 0.0
H459 H 0.39492 0.92731 0.2056 0.0
C460 C 0.37672 0.72811 0.31754 0.0
C461 C 0.38244 0.65683 0.31948 0.0
C462 C 0.37743 0.76325 0.29026 0.0
C463 C 0.38405 0.72834 0.26412 0.0
C464 C 0.38994 0.65708 0.26604 0.0
C465 C 0.38908 0.62164 0.29341 0.0
C466 C 0.37626 0.76812 0.18162 0.0
C467 C 0.38249 0.83907 0.17999 0.0
C468 C 0.37702 0.73216 0.20875 0.0
C469 C 0.38418 0.76598 0.23497 0.0
C470 C 0.39075 0.8367 0.23325 0.0
C471 C 0.38982 0.87291 0.20611 0.0
H472 H 0.87057 0.73122 0.83991 0.0
H473 H 0.89515 0.9192 0.79734 0.0
H474 H 0.87132 0.67057 0.79234 0.0
H475 H 0.89666 0.85748 0.74968 0.0
H476 H 0.87129 0.75075 0.66476 0.0
H477 H 0.87241 0.81135 0.71233 0.0
H478 H 0.89532 0.62193 0.75548 0.0
H479 H 0.89342 0.56034 0.70781 0.0
C480 C 0.87635 0.75953 0.82042 0.0
C481 C 0.88273 0.83028 0.82245 0.0
C482 C 0.87694 0.72443 0.79311 0.0
C483 C 0.8841 0.75889 0.76709 0.0
C484 C 0.89073 0.82951 0.76916 0.0
C485 C 0.88997 0.86489 0.79651 0.0
C486 C 0.87661 0.72186 0.68435 0.0
C487 C 0.88218 0.65047 0.68245 0.0
C488 C 0.87742 0.75692 0.71167 0.0
C489 C 0.884 0.72175 0.73783 0.0
C490 C 0.88985 0.65048 0.73589 0.0
C491 C 0.88886 0.61517 0.70853 0.0
H492 H 0.6141 0.07211 0.79922 0.0
H493 H 0.63871 0.2628 0.83964 0.0
H494 H 0.61167 0.13149 0.75106 0.0
H495 H 0.63706 0.32114 0.79156 0.0
H496 H 0.61379 0.42674 0.70644 0.0
H497 H 0.61243 0.36731 0.75465 0.0
H498 H 0.6353 0.17636 0.71291 0.0
H499 H 0.63588 0.23477 0.66483 0.0
C500 C 0.61909 0.12652 0.79782 0.0
C501 C 0.62661 0.16257 0.8233 0.0
C502 C 0.6178 0.16056 0.77018 0.0
C503 C 0.62418 0.23125 0.76735 0.0
C504 C 0.63161 0.26716 0.79292 0.0
C505 C 0.63272 0.2334 0.82052 0.0
C506 C 0.61843 0.37202 0.70758 0.0
C507 C 0.62497 0.33567 0.68176 0.0
C508 C 0.61776 0.33795 0.73525 0.0
C509 C 0.6238 0.26692 0.73776 0.0
C510 C 0.63016 0.23064 0.71184 0.0
C511 C 0.63066 0.26445 0.68422 0.0
H512 H 0.08983 0.70199 0.10366 0.0
H513 H 0.16211 0.71634 0.10875 0.0
H514 H 0.09285 0.58478 0.08256 0.0
H515 H 0.16545 0.59717 0.08995 0.0
H516 H 0.16847 0.39306 0.04301 0.0
H517 H 0.16283 0.51799 0.05122 0.0
H518 H 0.10037 0.47288 0.09693 0.0
H519 H 0.10527 0.34999 0.08687 0.0
C520 C 0.10636 0.67924 0.10055 0.0
C521 C 0.12574 0.71712 0.10798 0.0
C522 C 0.10817 0.61205 0.08859 0.0
C523 C 0.12941 0.5806 0.0847 0.0
C524 C 0.14881 0.6196 0.09197 0.0
C525 C 0.14696 0.68754 0.10314 0.0
C526 C 0.1533 0.41034 0.05417 0.0
C527 C 0.13743 0.36164 0.06447 0.0
C528 C 0.15016 0.48191 0.05922 0.0
C529 C 0.13131 0.50605 0.07525 0.0
C530 C 0.11495 0.45714 0.08416 0.0
C531 C 0.11785 0.38608 0.07853 0.0
H532 H 0.39954 0.27747 0.07071 0.0
H533 H 0.36628 0.31827 0.15451 0.0
H534 H 0.39227 0.3978 0.05485 0.0
H535 H 0.35955 0.43879 0.13906 0.0
H536 H 0.39798 0.64438 0.05965 0.0
H537 H 0.40401 0.51959 0.06861 0.0
H538 H 0.33608 0.50085 0.10169 0.0
H539 H 0.33007 0.62508 0.09305 0.0
C540 C 0.39044 0.31183 0.08557 0.0
C541 C 0.383 0.28808 0.11357 0.0
C542 C 0.38654 0.38095 0.07664 0.0
C543 C 0.37506 0.42743 0.09553 0.0
C544 C 0.36803 0.40382 0.12375 0.0
C545 C 0.37207 0.33504 0.13272 0.0
C546 C 0.38419 0.61332 0.06827 0.0
C547 C 0.36364 0.64484 0.07599 0.0
C548 C 0.38766 0.54185 0.0734 0.0
C549 C 0.37064 0.50079 0.08637 0.0
C550 C 0.34966 0.53152 0.09229 0.0
C551 C 0.34619 0.60266 0.08713 0.0
H552 H 0.18006 0.11194 0.41378 0.0
H553 H 0.11198 0.13149 0.44658 0.0
H554 H 0.17418 0.98724 0.40599 0.0
H555 H 0.10609 0.00651 0.43845 0.0
H556 H 0.10974 0.76563 0.43689 0.0
H557 H 0.11771 0.8855 0.45278 0.0
H558 H 0.15062 0.92505 0.36852 0.0
H559 H 0.14321 0.80478 0.35309 0.0
C560 C 0.16395 0.08948 0.41978 0.0
C561 C 0.14638 0.13177 0.4304 0.0
C562 C 0.16056 0.01813 0.41511 0.0
C563 C 0.13955 0.98752 0.42106 0.0
C564 C 0.12246 0.02874 0.43366 0.0
C565 C 0.12584 0.10032 0.43829 0.0
C566 C 0.11907 0.79957 0.42207 0.0
C567 C 0.12635 0.77566 0.39406 0.0
C568 C 0.12337 0.86837 0.43101 0.0
C569 C 0.13507 0.91425 0.41208 0.0
C570 C 0.14199 0.89042 0.38385 0.0
C571 C 0.13755 0.82191 0.37488 0.0
H572 H 0.40249 0.84444 0.41507 0.0
H573 H 0.33746 0.88977 0.45331 0.0
H574 H 0.40802 0.967 0.40439 0.0
H575 H 0.34363 0.01428 0.44465 0.0
H576 H 0.34732 0.21276 0.38812 0.0
H577 H 0.34296 0.09308 0.40593 0.0
H578 H 0.41515 0.0792 0.41848 0.0
H579 H 0.41925 0.19702 0.39828 0.0
C580 C 0.38963 0.88104 0.42208 0.0
C581 C 0.36942 0.85735 0.43479 0.0
C582 C 0.39286 0.95187 0.41608 0.0
C583 C 0.37619 0.00128 0.42329 0.0
C584 C 0.3566 0.97785 0.43791 0.0
C585 C 0.35313 0.90653 0.44326 0.0
C586 C 0.36216 0.18347 0.39459 0.0
C587 C 0.3836 0.21294 0.39153 0.0
C588 C 0.35972 0.11521 0.40521 0.0
C589 C 0.3787 0.0757 0.41377 0.0
C590 C 0.40015 0.10683 0.41147 0.0
C591 C 0.40258 0.1744 0.40003 0.0
H592 H 0.83072 0.6121 0.91231 0.0
H593 H 0.89921 0.6352 0.94359 0.0
H594 H 0.83688 0.48766 0.90499 0.0
H595 H 0.90524 0.50986 0.93673 0.0
H596 H 0.91473 0.31395 0.87638 0.0
H597 H 0.90863 0.43475 0.89225 0.0
H598 H 0.84412 0.37629 0.92897 0.0
H599 H 0.84981 0.25676 0.91198 0.0
C600 C 0.84696 0.59036 0.91823 0.0
C601 C 0.86454 0.63364 0.92824 0.0
C602 C 0.85046 0.51887 0.91413 0.0
C603 C 0.87163 0.48905 0.91998 0.0
C604 C 0.88886 0.53163 0.93156 0.0
C605 C 0.88534 0.60326 0.93574 0.0
C606 C 0.89931 0.32705 0.88795 0.0
C607 C 0.88296 0.27568 0.89345 0.0
C608 C 0.89592 0.39595 0.89733 0.0
C609 C 0.87598 0.41491 0.91214 0.0
C610 C 0.85966 0.36335 0.91764 0.0
C611 C 0.86306 0.29457 0.90827 0.0
H612 H 0.61113 0.72841 0.93512 0.0
H613 H 0.64393 0.689 0.8509 0.0
H614 H 0.61895 0.60837 0.95086 0.0
H615 H 0.65119 0.56856 0.8662 0.0
H616 H 0.61292 0.36243 0.945 0.0
H617 H 0.60706 0.48739 0.93671 0.0
H618 H 0.67493 0.50618 0.90337 0.0
H619 H 0.68078 0.38156 0.91133 0.0
C620 C 0.62028 0.69438 0.92017 0.0
C621 C 0.62742 0.71829 0.89208 0.0
C622 C 0.62449 0.62547 0.92902 0.0
C623 C 0.63596 0.57946 0.90994 0.0
C624 C 0.64274 0.60328 0.88164 0.0
C625 C 0.63839 0.6719 0.87275 0.0
C626 C 0.62674 0.3935 0.93647 0.0
C627 C 0.64721 0.36194 0.92842 0.0
C628 C 0.62337 0.46506 0.93175 0.0
C629 C 0.64041 0.50614 0.91888 0.0
C630 C 0.66134 0.4754 0.91271 0.0
C631 C 0.66472 0.4041 0.91747 0.0
H632 H 0.83876 0.88347 0.54426 0.0
H633 H 0.90151 0.83723 0.58892 0.0
H634 H 0.84487 0.00804 0.55294 0.0
H635 H 0.90687 0.95982 0.59959 0.0
H636 H 0.91868 0.18901 0.60631 0.0
H637 H 0.91515 0.07123 0.58592 0.0
H638 H 0.84256 0.0885 0.5908 0.0
H639 H 0.84648 0.20816 0.6088 0.0
C640 C 0.85392 0.90004 0.55575 0.0
C641 C 0.86959 0.85059 0.56595 0.0
C642 C 0.85734 0.97141 0.5611 0.0
C643 C 0.87623 0.99467 0.57745 0.0
C644 C 0.8923 0.9449 0.58652 0.0
C645 C 0.88916 0.87402 0.58052 0.0
C646 C 0.90204 0.1672 0.60279 0.0
C647 C 0.88284 0.20671 0.60921 0.0
C648 C 0.89994 0.09961 0.59125 0.0
C649 C 0.87853 0.06932 0.58683 0.0
C650 C 0.85933 0.10988 0.59321 0.0
C651 C 0.86149 0.17819 0.60391 0.0
H652 H 0.66021 0.77893 0.61469 0.0
H653 H 0.5885 0.79407 0.60183 0.0
H654 H 0.66483 0.89864 0.59704 0.0
H655 H 0.59293 0.91194 0.58179 0.0
H656 H 0.6054 0.14683 0.58526 0.0
H657 H 0.5997 0.02434 0.59596 0.0
H658 H 0.66492 0.97698 0.55813 0.0
H659 H 0.6712 0.10142 0.54948 0.0
C660 C 0.64548 0.80811 0.60768 0.0
C661 C 0.62401 0.77843 0.6099 0.0
C662 C 0.64809 0.87638 0.59714 0.0
C663 C 0.62927 0.91569 0.58784 0.0
C664 C 0.6078 0.88443 0.58937 0.0
C665 C 0.60518 0.81684 0.60072 0.0
C666 C 0.61841 0.11022 0.57879 0.0
C667 C 0.63886 0.13387 0.56678 0.0
C668 C 0.61509 0.03943 0.58481 0.0
C669 C 0.63193 0.99004 0.57829 0.0
C670 C 0.6518 0.01341 0.56434 0.0
C671 C 0.65534 0.08468 0.55899 0.0
loop_
_geom_bond_atom_site_label_1
_geom_bond_atom_site_label_2
_geom_bond_distance
_geom_bond_site_symmetry_2
_ccdc_geom_bond_type
Co0 O3 1.970 . S
Co0 N17 1.989 . S
Co0 O25 1.967 . S
Co0 O32 1.920 . S
Co1 O4 1.966 1_565 S
Co1 N10 2.022 . S
Co1 N18 1.993 1_565 S
Co1 O26 1.941 1_565 S
C2 O3 1.258 . S
C2 O4 1.263 . S
O3 Co0 1.970 . S
O3 C2 1.258 . S
O4 Co1 1.966 1_545 S
O4 C2 1.263 . S
C5 O6 1.235 . S
C5 O32 1.289 . S
O6 C5 1.235 . S
C7 C9 1.400 . S
C7 N10 1.351 . S
C7 C12 1.501 . S
C8 C9 1.387 . S
C8 N11 1.341 . S
C9 C7 1.400 . S
C9 C8 1.387 . S
N10 Co1 2.022 . S
N10 C7 1.351 . S
N10 N11 1.365 . S
N11 C8 1.341 . S
N11 N10 1.365 . S
N11 H31 0.862 . S
C12 C7 1.501 . S
C12 H13 0.961 . S
C12 H14 0.961 . S
C12 H15 0.960 . S
H13 C12 0.961 . S
H14 C12 0.961 . S
H15 C12 0.960 . S
C16 N17 1.342 . S
C16 C20 1.401 . S
C16 C21 1.499 . S
N17 Co0 1.989 . S
N17 C16 1.342 . S
N17 N18 1.388 . S
N18 Co1 1.993 1_545 S
N18 N17 1.388 . S
N18 C19 1.346 1_545 S
C19 N18 1.346 1_565 S
C19 C20 1.396 1_565 S
C19 C29 1.510 . S
C20 C16 1.401 . S
C20 C19 1.396 1_545 S
C21 C16 1.499 . S
C21 H22 0.959 . S
C21 H23 0.960 . S
C21 H24 0.961 . S
H22 C21 0.959 . S
H23 C21 0.960 . S
H24 C21 0.961 . S
O25 Co0 1.967 . S
O25 C33 1.258 . S
O26 Co1 1.941 1_545 S
O26 C33 1.266 . S
H27 C29 0.959 . S
H28 C29 0.961 . S
C29 C19 1.510 . S
C29 H27 0.959 . S
C29 H28 0.961 . S
C29 H30 0.960 . S
H30 C29 0.960 . S
H31 N11 0.862 . S
O32 Co0 1.920 . S
O32 C5 1.289 . S
C33 O25 1.258 . S
C33 O26 1.266 . S
Co34 O37 1.970 . S
Co34 N51 1.989 . S
Co34 O59 1.967 . S
Co34 O66 1.920 . S
Co35 O38 1.966 1_545 S
Co35 N44 2.022 . S
Co35 N52 1.993 1_545 S
Co35 O60 1.941 1_545 S
C36 O37 1.258 . S
C36 O38 1.263 . S
O37 Co34 1.970 . S
O37 C36 1.258 . S
O38 Co35 1.966 1_565 S
O38 C36 1.263 . S
C39 O40 1.235 . S
C39 O66 1.289 . S
O40 C39 1.235 . S
C41 C43 1.400 . S
C41 N44 1.351 . S
C41 C46 1.501 . S
C42 C43 1.387 . S
C42 N45 1.341 . S
C43 C41 1.400 . S
C43 C42 1.387 . S
N44 Co35 2.022 . S
N44 C41 1.351 . S
N44 N45 1.365 . S
N45 C42 1.341 . S
N45 N44 1.365 . S
N45 H65 0.862 . S
C46 C41 1.501 . S
C46 H47 0.961 . S
C46 H48 0.961 . S
C46 H49 0.960 . S
H47 C46 0.961 . S
H48 C46 0.961 . S
H49 C46 0.960 . S
C50 N51 1.342 . S
C50 C54 1.401 . S
C50 C55 1.499 . S
N51 Co34 1.989 . S
N51 C50 1.342 . S
N51 N52 1.388 . S
N52 Co35 1.993 1_565 S
N52 N51 1.388 . S
N52 C53 1.346 1_565 S
C53 N52 1.346 1_545 S
C53 C54 1.396 1_545 S
C53 C63 1.510 . S
C54 C50 1.401 . S
C54 C53 1.396 1_565 S
C55 C50 1.499 . S
C55 H56 0.959 . S
C55 H57 0.960 . S
C55 H58 0.961 . S
H56 C55 0.959 . S
H57 C55 0.960 . S
H58 C55 0.961 . S
O59 Co34 1.967 . S
O59 C67 1.258 . S
O60 Co35 1.941 1_565 S
O60 C67 1.266 . S
H61 C63 0.959 . S
H62 C63 0.961 . S
C63 C53 1.510 . S
C63 H61 0.959 . S
C63 H62 0.961 . S
C63 H64 0.960 . S
H64 C63 0.960 . S
H65 N45 0.862 . S
O66 Co34 1.920 . S
O66 C39 1.289 . S
C67 O59 1.258 . S
C67 O60 1.266 . S
Co68 O71 1.970 . S
Co68 N85 1.989 . S
Co68 O93 1.967 . S
Co68 O100 1.920 . S
Co69 O72 1.966 . S
Co69 N78 2.022 . S
Co69 N86 1.993 . S
Co69 O94 1.941 . S
C70 O71 1.258 . S
C70 O72 1.263 . S
O71 Co68 1.970 . S
O71 C70 1.258 . S
O72 Co69 1.966 . S
O72 C70 1.263 . S
C73 O74 1.235 . S
C73 O100 1.289 . S
O74 C73 1.235 . S
C75 C77 1.400 . S
C75 N78 1.351 . S
C75 C80 1.501 . S
C76 C77 1.387 . S
C76 N79 1.341 . S
C77 C75 1.400 . S
C77 C76 1.387 . S
N78 Co69 2.022 . S
N78 C75 1.351 . S
N78 N79 1.365 . S
N79 C76 1.341 . S
N79 N78 1.365 . S
N79 H99 0.862 . S
C80 C75 1.501 . S
C80 H81 0.961 . S
C80 H82 0.961 . S
C80 H83 0.960 . S
H81 C80 0.961 . S
H82 C80 0.961 . S
H83 C80 0.960 . S
C84 N85 1.342 . S
C84 C88 1.401 . S
C84 C89 1.499 . S
N85 Co68 1.989 . S
N85 C84 1.342 . S
N85 N86 1.388 . S
N86 Co69 1.993 . S
N86 N85 1.388 . S
N86 C87 1.346 . S
C87 N86 1.346 . S
C87 C88 1.396 . S
C87 C97 1.510 . S
C88 C84 1.401 . S
C88 C87 1.396 . S
C89 C84 1.499 . S
C89 H90 0.959 . S
C89 H91 0.960 . S
C89 H92 0.961 . S
H90 C89 0.959 . S
H91 C89 0.960 . S
H92 C89 0.961 . S
O93 Co68 1.967 . S
O93 C101 1.258 . S
O94 Co69 1.941 . S
O94 C101 1.266 . S
H95 C97 0.959 . S
H96 C97 0.961 . S
C97 C87 1.510 . S
C97 H95 0.959 . S
C97 H96 0.961 . S
C97 H98 0.960 . S
H98 C97 0.960 . S
H99 N79 0.862 . S
O100 Co68 1.920 . S
O100 C73 1.289 . S
C101 O93 1.258 . S
C101 O94 1.266 . S
Co102 O105 1.970 . S
Co102 N119 1.989 . S
Co102 O127 1.967 . S
Co102 O134 1.920 . S
Co103 O106 1.966 . S
Co103 N112 2.022 . S
Co103 N120 1.993 . S
Co103 O128 1.941 . S
C104 O105 1.258 . S
C104 O106 1.263 . S
O105 Co102 1.970 . S
O105 C104 1.258 . S
O106 Co103 1.966 . S
O106 C104 1.263 . S
C107 O108 1.235 . S
C107 O134 1.289 . S
O108 C107 1.235 . S
C109 C111 1.400 . S
C109 N112 1.351 . S
C109 C114 1.501 . S
C110 C111 1.387 . S
C110 N113 1.341 . S
C111 C109 1.400 . S
C111 C110 1.387 . S
N112 Co103 2.022 . S
N112 C109 1.351 . S
N112 N113 1.365 . S
N113 C110 1.341 . S
N113 N112 1.365 . S
N113 H133 0.862 . S
C114 C109 1.501 . S
C114 H115 0.961 . S
C114 H116 0.961 . S
C114 H117 0.960 . S
H115 C114 0.961 . S
H116 C114 0.961 . S
H117 C114 0.960 . S
C118 N119 1.342 . S
C118 C122 1.401 . S
C118 C123 1.499 . S
N119 Co102 1.989 . S
N119 C118 1.342 . S
N119 N120 1.388 . S
N120 Co103 1.993 . S
N120 N119 1.388 . S
N120 C121 1.346 . S
C121 N120 1.346 . S
C121 C122 1.396 . S
C121 C131 1.510 . S
C122 C118 1.401 . S
C122 C121 1.396 . S
C123 C118 1.499 . S
C123 H124 0.959 . S
C123 H125 0.960 . S
C123 H126 0.961 . S
H124 C123 0.959 . S
H125 C123 0.960 . S
H126 C123 0.961 . S
O127 Co102 1.967 . S
O127 C135 1.258 . S
O128 Co103 1.941 . S
O128 C135 1.266 . S
H129 C131 0.959 . S
H130 C131 0.961 . S
C131 C121 1.510 . S
C131 H129 0.959 . S
C131 H130 0.961 . S
C131 H132 0.960 . S
H132 C131 0.960 . S
H133 N113 0.862 . S
O134 Co102 1.920 . S
O134 C107 1.289 . S
C135 O127 1.258 . S
C135 O128 1.266 . S
Co136 O139 1.970 . S
Co136 N153 1.989 . S
Co136 O161 1.967 . S
Co136 O168 1.920 . S
Co137 O140 1.966 1_545 S
Co137 N146 2.022 . S
Co137 N154 1.993 1_545 S
Co137 O162 1.941 1_545 S
C138 O139 1.258 . S
C138 O140 1.263 . S
O139 Co136 1.970 . S
O139 C138 1.258 . S
O140 Co137 1.966 1_565 S
O140 C138 1.263 . S
C141 O142 1.235 . S
C141 O168 1.289 . S
O142 C141 1.235 . S
C143 C145 1.400 . S
C143 N146 1.351 . S
C143 C148 1.501 . S
C144 C145 1.387 . S
C144 N147 1.341 . S
C145 C143 1.400 . S
C145 C144 1.387 . S
N146 Co137 2.022 . S
N146 C143 1.351 . S
N146 N147 1.365 . S
N147 C144 1.341 . S
N147 N146 1.365 . S
N147 H167 0.862 . S
C148 C143 1.501 . S
C148 H149 0.961 . S
C148 H150 0.961 . S
C148 H151 0.960 . S
H149 C148 0.961 . S
H150 C148 0.961 . S
H151 C148 0.960 . S
C152 N153 1.342 . S
C152 C156 1.401 . S
C152 C157 1.499 . S
N153 Co136 1.989 . S
N153 C152 1.342 . S
N153 N154 1.388 . S
N154 Co137 1.993 1_565 S
N154 N153 1.388 . S
N154 C155 1.346 1_565 S
C155 N154 1.346 1_545 S
C155 C156 1.396 1_545 S
C155 C165 1.510 . S
C156 C152 1.401 . S
C156 C155 1.396 1_565 S
C157 C152 1.499 . S
C157 H158 0.959 . S
C157 H159 0.960 . S
C157 H160 0.961 . S
H158 C157 0.959 . S
H159 C157 0.960 . S
H160 C157 0.961 . S
O161 Co136 1.967 . S
O161 C169 1.258 . S
O162 Co137 1.941 1_565 S
O162 C169 1.266 . S
H163 C165 0.959 . S
H164 C165 0.961 . S
C165 C155 1.510 . S
C165 H163 0.959 . S
C165 H164 0.961 . S
C165 H166 0.960 . S
H166 C165 0.960 . S
H167 N147 0.862 . S
O168 Co136 1.920 . S
O168 C141 1.289 . S
C169 O161 1.258 . S
C169 O162 1.266 . S
Co170 O173 1.970 . S
Co170 N187 1.989 . S
Co170 O195 1.967 . S
Co170 O202 1.920 . S
Co171 O174 1.966 1_565 S
Co171 N180 2.022 . S
Co171 N188 1.993 1_565 S
Co171 O196 1.941 1_565 S
C172 O173 1.258 . S
C172 O174 1.263 . S
O173 Co170 1.970 . S
O173 C172 1.258 . S
O174 Co171 1.966 1_545 S
O174 C172 1.263 . S
C175 O176 1.235 . S
C175 O202 1.289 . S
O176 C175 1.235 . S
C177 C179 1.400 . S
C177 N180 1.351 . S
C177 C182 1.501 . S
C178 C179 1.387 . S
C178 N181 1.341 . S
C179 C177 1.400 . S
C179 C178 1.387 . S
N180 Co171 2.022 . S
N180 C177 1.351 . S
N180 N181 1.365 . S
N181 C178 1.341 . S
N181 N180 1.365 . S
N181 H201 0.862 . S
C182 C177 1.501 . S
C182 H183 0.961 . S
C182 H184 0.961 . S
C182 H185 0.960 . S
H183 C182 0.961 . S
H184 C182 0.961 . S
H185 C182 0.960 . S
C186 N187 1.342 . S
C186 C190 1.401 . S
C186 C191 1.499 . S
N187 Co170 1.989 . S
N187 C186 1.342 . S
N187 N188 1.388 . S
N188 Co171 1.993 1_545 S
N188 N187 1.388 . S
N188 C189 1.346 1_545 S
C189 N188 1.346 1_565 S
C189 C190 1.396 1_565 S
C189 C199 1.510 . S
C190 C186 1.401 . S
C190 C189 1.396 1_545 S
C191 C186 1.499 . S
C191 H192 0.959 . S
C191 H193 0.960 . S
C191 H194 0.961 . S
H192 C191 0.959 . S
H193 C191 0.960 . S
H194 C191 0.961 . S
O195 Co170 1.967 . S
O195 C203 1.258 . S
O196 Co171 1.941 1_545 S
O196 C203 1.266 . S
H197 C199 0.959 . S
H198 C199 0.961 . S
C199 C189 1.510 . S
C199 H197 0.959 . S
C199 H198 0.961 . S
C199 H200 0.960 . S
H200 C199 0.960 . S
H201 N181 0.862 . S
O202 Co170 1.920 . S
O202 C175 1.289 . S
C203 O195 1.258 . S
C203 O196 1.266 . S
Co204 O207 1.970 . S
Co204 N221 1.989 . S
Co204 O229 1.967 . S
Co204 O236 1.920 . S
Co205 O208 1.966 . S
Co205 N214 2.022 . S
Co205 N222 1.993 . S
Co205 O230 1.941 . S
C206 O207 1.258 . S
C206 O208 1.263 . S
O207 Co204 1.970 . S
O207 C206 1.258 . S
O208 Co205 1.966 . S
O208 C206 1.263 . S
C209 O210 1.235 . S
C209 O236 1.289 . S
O210 C209 1.235 . S
C211 C213 1.400 . S
C211 N214 1.351 . S
C211 C216 1.501 . S
C212 C213 1.387 . S
C212 N215 1.341 . S
C213 C211 1.400 . S
C213 C212 1.387 . S
N214 Co205 2.022 . S
N214 C211 1.351 . S
N214 N215 1.365 . S
N215 C212 1.341 . S
N215 N214 1.365 . S
N215 H235 0.862 . S
C216 C211 1.501 . S
C216 H217 0.961 . S
C216 H218 0.961 . S
C216 H219 0.960 . S
H217 C216 0.961 . S
H218 C216 0.961 . S
H219 C216 0.960 . S
C220 N221 1.342 . S
C220 C224 1.401 . S
C220 C225 1.499 . S
N221 Co204 1.989 . S
N221 C220 1.342 . S
N221 N222 1.388 . S
N222 Co205 1.993 . S
N222 N221 1.388 . S
N222 C223 1.346 . S
C223 N222 1.346 . S
C223 C224 1.396 . S
C223 C233 1.510 . S
C224 C220 1.401 . S
C224 C223 1.396 . S
C225 C220 1.499 . S
C225 H226 0.959 . S
C225 H227 0.960 . S
C225 H228 0.961 . S
H226 C225 0.959 . S
H227 C225 0.960 . S
H228 C225 0.961 . S
O229 Co204 1.967 . S
O229 C237 1.258 . S
O230 Co205 1.941 . S
O230 C237 1.266 . S
H231 C233 0.959 . S
H232 C233 0.961 . S
C233 C223 1.510 . S
C233 H231 0.959 . S
C233 H232 0.961 . S
C233 H234 0.960 . S
H234 C233 0.960 . S
H235 N215 0.862 . S
O236 Co204 1.920 . S
O236 C209 1.289 . S
C237 O229 1.258 . S
C237 O230 1.266 . S
Co238 O241 1.970 . S
Co238 N255 1.989 . S
Co238 O263 1.967 . S
Co238 O270 1.920 . S
Co239 O242 1.966 . S
Co239 N248 2.022 . S
Co239 N256 1.993 . S
Co239 O264 1.941 . S
C240 O241 1.258 . S
C240 O242 1.263 . S
O241 Co238 1.970 . S
O241 C240 1.258 . S
O242 Co239 1.966 . S
O242 C240 1.263 . S
C243 O244 1.235 . S
C243 O270 1.289 . S
O244 C243 1.235 . S
C245 C247 1.400 . S
C245 N248 1.351 . S
C245 C250 1.501 . S
C246 C247 1.387 . S
C246 N249 1.341 . S
C247 C245 1.400 . S
C247 C246 1.387 . S
N248 Co239 2.022 . S
N248 C245 1.351 . S
N248 N249 1.365 . S
N249 C246 1.341 . S
N249 N248 1.365 . S
N249 H269 0.862 . S
C250 C245 1.501 . S
C250 H251 0.961 . S
C250 H252 0.961 . S
C250 H253 0.960 . S
H251 C250 0.961 . S
H252 C250 0.961 . S
H253 C250 0.960 . S
C254 N255 1.342 . S
C254 C258 1.401 . S
C254 C259 1.499 . S
N255 Co238 1.989 . S
N255 C254 1.342 . S
N255 N256 1.388 . S
N256 Co239 1.993 . S
N256 N255 1.388 . S
N256 C257 1.346 . S
C257 N256 1.346 . S
C257 C258 1.396 . S
C257 C267 1.510 . S
C258 C254 1.401 . S
C258 C257 1.396 . S
C259 C254 1.499 . S
C259 H260 0.959 . S
C259 H261 0.960 . S
C259 H262 0.961 . S
H260 C259 0.959 . S
H261 C259 0.960 . S
H262 C259 0.961 . S
O263 Co238 1.967 . S
O263 C271 1.258 . S
O264 Co239 1.941 . S
O264 C271 1.266 . S
H265 C267 0.959 . S
H266 C267 0.961 . S
C267 C257 1.510 . S
C267 H265 0.959 . S
C267 H266 0.961 . S
C267 H268 0.960 . S
H268 C267 0.960 . S
H269 N249 0.862 . S
O270 Co238 1.920 . S
O270 C243 1.289 . S
C271 O263 1.258 . S
C271 O264 1.266 . S
H272 C280 0.950 . S
H273 C285 0.950 . S
H274 C282 0.950 . S
H275 C284 0.950 . S
H276 C286 0.950 . S
H277 C288 0.950 . S
H278 C290 0.950 . S
H279 C291 0.950 . S
C280 H272 0.950 . S
C280 C281 1.386 1_565 S
C280 C282 1.391 . S
C281 C280 1.386 1_545 S
C281 C285 1.393 . S
C282 H274 0.950 . S
C282 C280 1.391 . S
C282 C283 1.400 1_565 S
C283 C282 1.400 1_545 S
C283 C284 1.398 . S
C283 C289 1.491 1_545 S
C284 H275 0.950 . S
C284 C283 1.398 . S
C284 C285 1.391 . S
C285 H273 0.950 . S
C285 C281 1.393 . S
C285 C284 1.391 . S
C286 H276 0.950 . S
C286 C287 1.386 1_545 S
C286 C288 1.391 . S
C287 C286 1.386 1_565 S
C287 C291 1.393 . S
C288 H277 0.950 . S
C288 C286 1.391 . S
C288 C289 1.400 1_545 S
C289 C283 1.491 1_565 S
C289 C288 1.400 1_565 S
C289 C290 1.398 . S
C290 H278 0.950 . S
C290 C289 1.398 . S
C290 C291 1.391 . S
C291 H279 0.950 . S
C291 C287 1.393 . S
C291 C290 1.391 . S
H292 C300 0.950 . S
H293 C305 0.950 . S
H294 C302 0.950 . S
H295 C304 0.950 . S
H296 C306 0.950 . S
H297 C308 0.950 . S
H298 C310 0.950 . S
H299 C311 0.950 . S
C300 H292 0.950 . S
C300 C301 1.386 . S
C300 C302 1.391 . S
C301 C300 1.386 . S
C301 C305 1.393 . S
C302 H294 0.950 . S
C302 C300 1.391 . S
C302 C303 1.400 . S
C303 C302 1.400 . S
C303 C304 1.398 . S
C303 C309 1.491 . S
C304 H295 0.950 . S
C304 C303 1.398 . S
C304 C305 1.391 . S
C305 H293 0.950 . S
C305 C301 1.393 . S
C305 C304 1.391 . S
C306 H296 0.950 . S
C306 C307 1.386 . S
C306 C308 1.391 . S
C307 C306 1.386 . S
C307 C311 1.393 . S
C308 H297 0.950 . S
C308 C306 1.391 . S
C308 C309 1.400 . S
C309 C303 1.491 . S
C309 C308 1.400 . S
C309 C310 1.398 . S
C310 H298 0.950 . S
C310 C309 1.398 . S
C310 C311 1.391 . S
C311 H299 0.950 . S
C311 C307 1.393 . S
C311 C310 1.391 . S
H312 C320 0.950 1_545 S
H313 C325 0.950 . S
H314 C322 0.950 . S
H315 C324 0.950 . S
H316 C326 0.950 1_565 S
H317 C328 0.950 . S
H318 C330 0.950 . S
H319 C331 0.950 . S
C320 H312 0.950 1_565 S
C320 C321 1.386 . S
C320 C322 1.391 1_565 S
C321 C320 1.386 . S
C321 C325 1.393 . S
C322 H314 0.950 . S
C322 C320 1.391 1_545 S
C322 C323 1.400 1_545 S
C323 C322 1.400 1_565 S
C323 C324 1.398 . S
C323 C329 1.491 1_565 S
C324 H315 0.950 . S
C324 C323 1.398 . S
C324 C325 1.391 . S
C325 H313 0.950 . S
C325 C321 1.393 . S
C325 C324 1.391 . S
C326 H316 0.950 1_545 S
C326 C327 1.386 . S
C326 C328 1.391 1_545 S
C327 C326 1.386 . S
C327 C331 1.393 . S
C328 H317 0.950 . S
C328 C326 1.391 1_565 S
C328 C329 1.400 1_565 S
C329 C323 1.491 1_545 S
C329 C328 1.400 1_545 S
C329 C330 1.398 . S
C330 H318 0.950 . S
C330 C329 1.398 . S
C330 C331 1.391 . S
C331 H319 0.950 . S
C331 C327 1.393 . S
C331 C330 1.391 . S
H332 C340 0.950 . S
H333 C345 0.950 . S
H334 C342 0.950 . S
H335 C344 0.950 . S
H336 C346 0.950 . S
H337 C348 0.950 . S
H338 C350 0.950 . S
H339 C351 0.950 . S
C340 H332 0.950 . S
C340 C341 1.386 . S
C340 C342 1.391 . S
C341 C340 1.386 . S
C341 C345 1.393 . S
C342 H334 0.950 . S
C342 C340 1.391 . S
C342 C343 1.400 . S
C343 C342 1.400 . S
C343 C344 1.398 . S
C343 C349 1.491 . S
C344 H335 0.950 . S
C344 C343 1.398 . S
C344 C345 1.391 . S
C345 H333 0.950 . S
C345 C341 1.393 . S
C345 C344 1.391 . S
C346 H336 0.950 . S
C346 C347 1.386 . S
C346 C348 1.391 . S
C347 C346 1.386 . S
C347 C351 1.393 . S
C348 H337 0.950 . S
C348 C346 1.391 . S
C348 C349 1.400 . S
C349 C343 1.491 . S
C349 C348 1.400 . S
C349 C350 1.398 . S
C350 H338 0.950 . S
C350 C349 1.398 . S
C350 C351 1.391 . S
C351 H339 0.950 . S
C351 C347 1.393 . S
C351 C350 1.391 . S
H352 C360 0.949 1_565 S
H353 C365 0.938 1_556 S
H354 C362 0.950 . S
H355 C364 0.950 . S
H356 C366 0.949 1_545 S
H357 C368 0.950 . S
H358 C370 0.950 . S
H359 C371 0.938 1_554 S
C360 H352 0.949 1_545 S
C360 C361 1.387 . S
C360 C362 1.391 1_545 S
C361 C360 1.387 . S
C361 C365 1.393 . S
C362 H354 0.950 . S
C362 C360 1.391 1_565 S
C362 C363 1.400 1_565 S
C363 C362 1.400 1_545 S
C363 C364 1.398 1_554 S
C363 C369 1.491 1_444 S
C364 H355 0.950 . S
C364 C363 1.398 1_556 S
C364 C365 1.391 1_556 S
C365 H353 0.938 1_554 S
C365 C361 1.393 . S
C365 C364 1.391 1_554 S
C366 H356 0.949 1_565 S
C366 C367 1.387 . S
C366 C368 1.391 1_565 S
C367 C366 1.387 . S
C367 C371 1.393 . S
C368 H357 0.950 . S
C368 C366 1.391 1_545 S
C368 C369 1.400 1_545 S
C369 C363 1.491 1_666 S
C369 C368 1.400 1_565 S
C369 C370 1.398 1_556 S
C370 H358 0.950 . S
C370 C369 1.398 1_554 S
C370 C371 1.391 1_554 S
C371 H359 0.938 1_556 S
C371 C367 1.393 . S
C371 C370 1.391 1_556 S
H372 C380 0.950 . S
H373 C385 0.950 . S
H374 C382 0.950 1_556 S
H375 C384 0.950 . S
H376 C386 0.950 . S
H377 C388 0.950 1_554 S
H378 C390 0.950 . S
H379 C391 0.950 . S
C380 H372 0.950 . S
C380 C381 1.386 1_545 S
C380 C382 1.391 . S
C381 C380 1.386 1_565 S
C381 C385 1.393 . S
C382 H374 0.950 1_554 S
C382 C380 1.391 . S
C382 C383 1.400 1_545 S
C383 C382 1.400 1_565 S
C383 C384 1.398 . S
C383 C389 1.491 1_564 S
C384 H375 0.950 . S
C384 C383 1.398 . S
C384 C385 1.391 . S
C385 H373 0.950 . S
C385 C381 1.393 . S
C385 C384 1.391 . S
C386 H376 0.950 . S
C386 C387 1.386 1_565 S
C386 C388 1.391 . S
C387 C386 1.386 1_545 S
C387 C391 1.393 . S
C388 H377 0.950 1_556 S
C388 C386 1.391 . S
C388 C389 1.400 1_565 S
C389 C383 1.491 1_546 S
C389 C388 1.400 1_545 S
C389 C390 1.398 . S
C390 H378 0.950 . S
C390 C389 1.398 . S
C390 C391 1.391 . S
C391 H379 0.950 . S
C391 C387 1.393 . S
C391 C390 1.391 . S
H392 C400 0.950 . S
H393 C405 0.950 . S
H394 C402 0.950 1_655 S
H395 C404 0.950 . S
H396 C406 0.950 . S
H397 C408 0.950 1_455 S
H398 C410 0.950 . S
H399 C411 0.950 . S
C400 H392 0.950 . S
C400 C401 1.386 . S
C400 C402 1.391 . S
C401 C400 1.386 . S
C401 C405 1.393 . S
C402 H394 0.950 1_455 S
C402 C400 1.391 . S
C402 C403 1.400 . S
C403 C402 1.400 . S
C403 C404 1.398 . S
C403 C409 1.491 1_455 S
C404 H395 0.950 . S
C404 C403 1.398 . S
C404 C405 1.391 . S
C405 H393 0.950 . S
C405 C401 1.393 . S
C405 C404 1.391 . S
C406 H396 0.950 . S
C406 C407 1.386 . S
C406 C408 1.391 . S
C407 C406 1.386 . S
C407 C411 1.393 . S
C408 H397 0.950 1_655 S
C408 C406 1.391 . S
C408 C409 1.400 . S
C409 C403 1.491 1_655 S
C409 C408 1.400 . S
C409 C410 1.398 . S
C410 H398 0.950 . S
C410 C409 1.398 . S
C410 C411 1.391 . S
C411 H399 0.950 . S
C411 C407 1.393 . S
C411 C410 1.391 . S
H412 C420 0.950 . S
H413 C425 0.950 . S
H414 C422 0.950 . S
H415 C424 0.950 . S
H416 C426 0.950 . S
H417 C428 0.950 . S
H418 C430 0.950 . S
H419 C431 0.950 . S
C420 H412 0.950 . S
C420 C421 1.386 . S
C420 C422 1.391 . S
C421 C420 1.386 . S
C421 C425 1.393 . S
C422 H414 0.950 . S
C422 C420 1.391 . S
C422 C423 1.400 . S
C423 C422 1.400 . S
C423 C424 1.398 . S
C423 C429 1.491 . S
C424 H415 0.950 . S
C424 C423 1.398 . S
C424 C425 1.391 . S
C425 H413 0.950 . S
C425 C421 1.393 . S
C425 C424 1.391 . S
C426 H416 0.950 . S
C426 C427 1.386 . S
C426 C428 1.391 . S
C427 C426 1.386 . S
C427 C431 1.393 . S
C428 H417 0.950 . S
C428 C426 1.391 . S
C428 C429 1.400 . S
C429 C423 1.491 . S
C429 C428 1.400 . S
C429 C430 1.398 . S
C430 H418 0.950 . S
C430 C429 1.398 . S
C430 C431 1.391 . S
C431 H419 0.950 . S
C431 C427 1.393 . S
C431 C430 1.391 . S
H432 C440 0.950 . S
H433 C445 0.950 . S
H434 C442 0.950 . S
H435 C444 0.950 . S
H436 C446 0.950 . S
H437 C448 0.950 . S
H438 C450 0.950 . S
H439 C451 0.950 . S
C440 H432 0.950 . S
C440 C441 1.386 . S
C440 C442 1.391 . S
C441 C440 1.386 . S
C441 C445 1.393 . S
C442 H434 0.950 . S
C442 C440 1.391 . S
C442 C443 1.400 . S
C443 C442 1.400 . S
C443 C444 1.398 . S
C443 C449 1.491 . S
C444 H435 0.950 . S
C444 C443 1.398 . S
C444 C445 1.391 . S
C445 H433 0.950 . S
C445 C441 1.393 . S
C445 C444 1.391 . S
C446 H436 0.950 . S
C446 C447 1.386 . S
C446 C448 1.391 . S
C447 C446 1.386 . S
C447 C451 1.393 . S
C448 H437 0.950 . S
C448 C446 1.391 . S
C448 C449 1.400 . S
C449 C443 1.491 . S
C449 C448 1.400 . S
C449 C450 1.398 . S
C450 H438 0.950 . S
C450 C449 1.398 . S
C450 C451 1.391 . S
C451 H439 0.950 . S
C451 C447 1.393 . S
C451 C450 1.391 . S
H452 C460 0.950 . S
H453 C465 0.950 . S
H454 C462 0.950 . S
H455 C464 0.950 . S
H456 C466 0.950 . S
H457 C468 0.950 . S
H458 C470 0.950 . S
H459 C471 0.950 . S
C460 H452 0.950 . S
C460 C461 1.386 . S
C460 C462 1.391 . S
C461 C460 1.386 . S
C461 C465 1.393 . S
C462 H454 0.950 . S
C462 C460 1.391 . S
C462 C463 1.400 . S
C463 C462 1.400 . S
C463 C464 1.398 . S
C463 C469 1.491 . S
C464 H455 0.950 . S
C464 C463 1.398 . S
C464 C465 1.391 . S
C465 H453 0.950 . S
C465 C461 1.393 . S
C465 C464 1.391 . S
C466 H456 0.950 . S
C466 C467 1.386 . S
C466 C468 1.391 . S
C467 C466 1.386 . S
C467 C471 1.393 . S
C468 H457 0.950 . S
C468 C466 1.391 . S
C468 C469 1.400 . S
C469 C463 1.491 . S
C469 C468 1.400 . S
C469 C470 1.398 . S
C470 H458 0.950 . S
C470 C469 1.398 . S
C470 C471 1.391 . S
C471 H459 0.950 . S
C471 C467 1.393 . S
C471 C470 1.391 . S
H472 C480 0.950 . S
H473 C485 0.950 . S
H474 C482 0.950 . S
H475 C484 0.950 . S
H476 C486 0.950 . S
H477 C488 0.950 . S
H478 C490 0.950 . S
H479 C491 0.950 . S
C480 H472 0.950 . S
C480 C481 1.386 . S
C480 C482 1.391 . S
C481 C480 1.386 . S
C481 C485 1.393 . S
C482 H474 0.950 . S
C482 C480 1.391 . S
C482 C483 1.400 . S
C483 C482 1.400 . S
C483 C484 1.398 . S
C483 C489 1.491 . S
C484 H475 0.950 . S
C484 C483 1.398 . S
C484 C485 1.391 . S
C485 H473 0.950 . S
C485 C481 1.393 . S
C485 C484 1.391 . S
C486 H476 0.950 . S
C486 C487 1.386 . S
C486 C488 1.391 . S
C487 C486 1.386 . S
C487 C491 1.393 . S
C488 H477 0.950 . S
C488 C486 1.391 . S
C488 C489 1.400 . S
C489 C483 1.491 . S
C489 C488 1.400 . S
C489 C490 1.398 . S
C490 H478 0.950 . S
C490 C489 1.398 . S
C490 C491 1.391 . S
C491 H479 0.950 . S
C491 C487 1.393 . S
C491 C490 1.391 . S
H492 C500 0.950 . S
H493 C505 0.950 . S
H494 C502 0.950 . S
H495 C504 0.950 . S
H496 C506 0.950 . S
H497 C508 0.950 . S
H498 C510 0.950 . S
H499 C511 0.950 . S
C500 H492 0.950 . S
C500 C501 1.386 . S
C500 C502 1.391 . S
C501 C500 1.386 . S
C501 C505 1.393 . S
C502 H494 0.950 . S
C502 C500 1.391 . S
C502 C503 1.400 . S
C503 C502 1.400 . S
C503 C504 1.398 . S
C503 C509 1.491 . S
C504 H495 0.950 . S
C504 C503 1.398 . S
C504 C505 1.391 . S
C505 H493 0.950 . S
C505 C501 1.393 . S
C505 C504 1.391 . S
C506 H496 0.950 . S
C506 C507 1.386 . S
C506 C508 1.391 . S
C507 C506 1.386 . S
C507 C511 1.393 . S
C508 H497 0.950 . S
C508 C506 1.391 . S
C508 C509 1.400 . S
C509 C503 1.491 . S
C509 C508 1.400 . S
C509 C510 1.398 . S
C510 H498 0.950 . S
C510 C509 1.398 . S
C510 C511 1.391 . S
C511 H499 0.950 . S
C511 C507 1.393 . S
C511 C510 1.391 . S
H512 C520 0.950 . S
H513 C525 0.950 . S
H514 C522 0.950 . S
H515 C524 0.950 . S
H516 C526 0.950 . S
H517 C528 0.950 . S
H518 C530 0.950 . S
H519 C531 0.950 . S
C520 H512 0.950 . S
C520 C521 1.386 . S
C520 C522 1.391 . S
C521 C520 1.386 . S
C521 C525 1.393 . S
C522 H514 0.950 . S
C522 C520 1.391 . S
C522 C523 1.400 . S
C523 C522 1.400 . S
C523 C524 1.398 . S
C523 C529 1.491 . S
C524 H515 0.950 . S
C524 C523 1.398 . S
C524 C525 1.391 . S
C525 H513 0.950 . S
C525 C521 1.393 . S
C525 C524 1.391 . S
C526 H516 0.950 . S
C526 C527 1.386 . S
C526 C528 1.391 . S
C527 C526 1.386 . S
C527 C531 1.393 . S
C528 H517 0.950 . S
C528 C526 1.391 . S
C528 C529 1.400 . S
C529 C523 1.491 . S
C529 C528 1.400 . S
C529 C530 1.398 . S
C530 H518 0.950 . S
C530 C529 1.398 . S
C530 C531 1.391 . S
C531 H519 0.950 . S
C531 C527 1.393 . S
C531 C530 1.391 . S
H532 C540 0.950 . S
H533 C545 0.950 . S
H534 C542 0.950 . S
H535 C544 0.950 . S
H536 C546 0.950 . S
H537 C548 0.950 . S
H538 C550 0.950 . S
H539 C551 0.950 . S
C540 H532 0.950 . S
C540 C541 1.386 . S
C540 C542 1.391 . S
C541 C540 1.386 . S
C541 C545 1.393 . S
C542 H534 0.950 . S
C542 C540 1.391 . S
C542 C543 1.400 . S
C543 C542 1.400 . S
C543 C544 1.398 . S
C543 C549 1.491 . S
C544 H535 0.950 . S
C544 C543 1.398 . S
C544 C545 1.391 . S
C545 H533 0.950 . S
C545 C541 1.393 . S
C545 C544 1.391 . S
C546 H536 0.950 . S
C546 C547 1.386 . S
C546 C548 1.391 . S
C547 C546 1.386 . S
C547 C551 1.393 . S
C548 H537 0.950 . S
C548 C546 1.391 . S
C548 C549 1.400 . S
C549 C543 1.491 . S
C549 C548 1.400 . S
C549 C550 1.398 . S
C550 H538 0.950 . S
C550 C549 1.398 . S
C550 C551 1.391 . S
C551 H539 0.950 . S
C551 C547 1.393 . S
C551 C550 1.391 . S
H552 C560 0.950 . S
H553 C565 0.950 . S
H554 C562 0.950 . S
H555 C564 0.950 . S
H556 C566 0.950 . S
H557 C568 0.950 . S
H558 C570 0.950 . S
H559 C571 0.950 . S
C560 H552 0.950 . S
C560 C561 1.386 . S
C560 C562 1.391 . S
C561 C560 1.386 . S
C561 C565 1.393 . S
C562 H554 0.950 . S
C562 C560 1.391 . S
C562 C563 1.400 . S
C563 C562 1.400 . S
C563 C564 1.398 . S
C563 C569 1.491 1_545 S
C564 H555 0.950 . S
C564 C563 1.398 . S
C564 C565 1.391 . S
C565 H553 0.950 . S
C565 C561 1.393 . S
C565 C564 1.391 . S
C566 H556 0.950 . S
C566 C567 1.386 . S
C566 C568 1.391 . S
C567 C566 1.386 . S
C567 C571 1.393 . S
C568 H557 0.950 . S
C568 C566 1.391 . S
C568 C569 1.400 . S
C569 C563 1.491 1_565 S
C569 C568 1.400 . S
C569 C570 1.398 . S
C570 H558 0.950 . S
C570 C569 1.398 . S
C570 C571 1.391 . S
C571 H559 0.950 . S
C571 C567 1.393 . S
C571 C570 1.391 . S
H572 C580 0.950 . S
H573 C585 0.950 . S
H574 C582 0.950 . S
H575 C584 0.950 . S
H576 C586 0.950 . S
H577 C588 0.950 . S
H578 C590 0.950 . S
H579 C591 0.950 . S
C580 H572 0.950 . S
C580 C581 1.386 . S
C580 C582 1.391 . S
C581 C580 1.386 . S
C581 C585 1.393 . S
C582 H574 0.950 . S
C582 C580 1.391 . S
C582 C583 1.400 . S
C583 C582 1.400 . S
C583 C584 1.398 . S
C583 C589 1.491 1_565 S
C584 H575 0.950 . S
C584 C583 1.398 . S
C584 C585 1.391 . S
C585 H573 0.950 . S
C585 C581 1.393 . S
C585 C584 1.391 . S
C586 H576 0.950 . S
C586 C587 1.386 . S
C586 C588 1.391 . S
C587 C586 1.386 . S
C587 C591 1.393 . S
C588 H577 0.950 . S
C588 C586 1.391 . S
C588 C589 1.400 . S
C589 C583 1.491 1_545 S
C589 C588 1.400 . S
C589 C590 1.398 . S
C590 H578 0.950 . S
C590 C589 1.398 . S
C590 C591 1.391 . S
C591 H579 0.950 . S
C591 C587 1.393 . S
C591 C590 1.391 . S
H592 C600 0.950 . S
H593 C605 0.950 . S
H594 C602 0.950 . S
H595 C604 0.950 . S
H596 C606 0.950 . S
H597 C608 0.950 . S
H598 C610 0.950 . S
H599 C611 0.950 . S
C600 H592 0.950 . S
C600 C601 1.386 . S
C600 C602 1.391 . S
C601 C600 1.386 . S
C601 C605 1.393 . S
C602 H594 0.950 . S
C602 C600 1.391 . S
C602 C603 1.400 . S
C603 C602 1.400 . S
C603 C604 1.398 . S
C603 C609 1.491 . S
C604 H595 0.950 . S
C604 C603 1.398 . S
C604 C605 1.391 . S
C605 H593 0.950 . S
C605 C601 1.393 . S
C605 C604 1.391 . S
C606 H596 0.950 . S
C606 C607 1.386 . S
C606 C608 1.391 . S
C607 C606 1.386 . S
C607 C611 1.393 . S
C608 H597 0.950 . S
C608 C606 1.391 . S
C608 C609 1.400 . S
C609 C603 1.491 . S
C609 C608 1.400 . S
C609 C610 1.398 . S
C610 H598 0.950 . S
C610 C609 1.398 . S
C610 C611 1.391 . S
C611 H599 0.950 . S
C611 C607 1.393 . S
C611 C610 1.391 . S
H612 C620 0.950 . S
H613 C625 0.950 . S
H614 C622 0.950 . S
H615 C624 0.950 . S
H616 C626 0.950 . S
H617 C628 0.950 . S
H618 C630 0.950 . S
H619 C631 0.950 . S
C620 H612 0.950 . S
C620 C621 1.386 . S
C620 C622 1.391 . S
C621 C620 1.386 . S
C621 C625 1.393 . S
C622 H614 0.950 . S
C622 C620 1.391 . S
C622 C623 1.400 . S
C623 C622 1.400 . S
C623 C624 1.398 . S
C623 C629 1.491 . S
C624 H615 0.950 . S
C624 C623 1.398 . S
C624 C625 1.391 . S
C625 H613 0.950 . S
C625 C621 1.393 . S
C625 C624 1.391 . S
C626 H616 0.950 . S
C626 C627 1.386 . S
C626 C628 1.391 . S
C627 C626 1.386 . S
C627 C631 1.393 . S
C628 H617 0.950 . S
C628 C626 1.391 . S
C628 C629 1.400 . S
C629 C623 1.491 . S
C629 C628 1.400 . S
C629 C630 1.398 . S
C630 H618 0.950 . S
C630 C629 1.398 . S
C630 C631 1.391 . S
C631 H619 0.950 . S
C631 C627 1.393 . S
C631 C630 1.391 . S
H632 C640 0.950 . S
H633 C645 0.950 . S
H634 C642 0.950 . S
H635 C644 0.950 . S
H636 C646 0.950 . S
H637 C648 0.950 . S
H638 C650 0.950 . S
H639 C651 0.950 . S
C640 H632 0.950 . S
C640 C641 1.386 . S
C640 C642 1.391 . S
C641 C640 1.386 . S
C641 C645 1.393 . S
C642 H634 0.950 . S
C642 C640 1.391 . S
C642 C643 1.400 . S
C643 C642 1.400 . S
C643 C644 1.398 . S
C643 C649 1.491 1_565 S
C644 H635 0.950 . S
C644 C643 1.398 . S
C644 C645 1.391 . S
C645 H633 0.950 . S
C645 C641 1.393 . S
C645 C644 1.391 . S
C646 H636 0.950 . S
C646 C647 1.386 . S
C646 C648 1.391 . S
C647 C646 1.386 . S
C647 C651 1.393 . S
C648 H637 0.950 . S
C648 C646 1.391 . S
C648 C649 1.400 . S
C649 C643 1.491 1_545 S
C649 C648 1.400 . S
C649 C650 1.398 . S
C650 H638 0.950 . S
C650 C649 1.398 . S
C650 C651 1.391 . S
C651 H639 0.950 . S
C651 C647 1.393 . S
C651 C650 1.391 . S
H652 C660 0.950 . S
H653 C665 0.950 . S
H654 C662 0.950 . S
H655 C664 0.950 . S
H656 C666 0.950 . S
H657 C668 0.950 . S
H658 C670 0.950 . S
H659 C671 0.950 . S
C660 H652 0.950 . S
C660 C661 1.386 . S
C660 C662 1.391 . S
C661 C660 1.386 . S
C661 C665 1.393 . S
C662 H654 0.950 . S
C662 C660 1.391 . S
C662 C663 1.400 . S
C663 C662 1.400 . S
C663 C664 1.398 . S
C663 C669 1.491 1_565 S
C664 H655 0.950 . S
C664 C663 1.398 . S
C664 C665 1.391 . S
C665 H653 0.950 . S
C665 C661 1.393 . S
C665 C664 1.391 . S
C666 H656 0.950 . S
C666 C667 1.386 . S
C666 C668 1.391 . S
C667 C666 1.386 . S
C667 C671 1.393 . S
C668 H657 0.950 . S
C668 C666 1.391 . S
C668 C669 1.400 . S
C669 C663 1.491 1_545 S
C669 C668 1.400 . S
C669 C670 1.398 . S
C670 H658 0.950 . S
C670 C669 1.398 . S
C670 C671 1.391 . S
C671 H659 0.950 . S
C671 C667 1.393 . S
C671 C670 1.391 . S
C281 C2 1.559 . S
C287 C36 1.556 . S
C301 C104 1.558 . S
C307 C70 1.561 . S
C321 C138 1.560 . S
C327 C172 1.561 . S
C341 C240 1.560 . S
C347 C206 1.561 . S
C361 C20 1.535 . S
C367 C156 1.535 . S
C381 C54 1.531 . S
C387 C190 1.531 . S
C401 C88 1.534 . S
C407 C224 1.534 . S
C421 C122 1.534 . S
C427 C258 1.534 . S
C441 C101 1.624 . S
C447 C33 1.624 . S
C461 C135 1.615 . S
C467 C67 1.612 . S
C481 C169 1.621 . S
C487 C237 1.623 . S
C501 C203 1.611 . S
C507 C271 1.609 . S
C521 C9 1.188 . S
C527 C5 1.184 . S
C541 C43 1.175 . S
C547 C39 1.195 . S
C561 C73 1.192 . S
C567 C77 1.169 . S
C581 C107 1.184 . S
C587 C111 1.184 . S
C601 C141 1.185 . S
C607 C145 1.189 . S
C621 C179 1.168 . S
C627 C175 1.194 . S
C641 C209 1.184 . S
C647 C213 1.184 . S
C661 C247 1.185 . S
C667 C243 1.184 . S
