# Generated by pormake.
# Topology rob, (6)-cn, num edge types: 1
# Building blocks:
#     Node 0, Type 0, BuildingBlock: MIFKUJ_clean_sbu_0, # of connection points: 6
#     Node 1, Type 0, BuildingBlock: MIFKUJ_clean_sbu_0, # of connection points: 6
#     Node 2, Type 0, BuildingBlock: MIFKUJ_clean_sbu_0, # of connection points: 6
#     Node 3, Type 0, BuildingBlock: MIFKUJ_clean_sbu_0, # of connection points: 6
#     Edge 4, Type (0, 0), BuildingBlock: CIFDUS_clean_linker_0, # of connection points: 2
#     Edge 5, Type (0, 0), BuildingBlock: CIFDUS_clean_linker_0, # of connection points: 2
#     Edge 6, Type (0, 0), BuildingBlock: CIFDUS_clean_linker_0, # of connection points: 2
#     Edge 7, Type (0, 0), BuildingBlock: CIFDUS_clean_linker_0, # of connection points: 2
#     Edge 8, Type (0, 0), BuildingBlock: CIFDUS_clean_linker_0, # of connection points: 2
#     Edge 9, Type (0, 0), BuildingBlock: CIFDUS_clean_linker_0, # of connection points: 2
#     Edge 10, Type (0, 0), BuildingBlock: CIFDUS_clean_linker_0, # of connection points: 2
#     Edge 11, Type (0, 0), BuildingBlock: CIFDUS_clean_linker_0, # of connection points: 2
#     Edge 12, Type (0, 0), BuildingBlock: CIFDUS_clean_linker_0, # of connection points: 2
#     Edge 13, Type (0, 0), BuildingBlock: CIFDUS_clean_linker_0, # of connection points: 2
#     Edge 14, Type (0, 0), BuildingBlock: CIFDUS_clean_linker_0, # of connection points: 2
#     Edge 15, Type (0, 0), BuildingBlock: CIFDUS_clean_linker_0, # of connection points: 2
# Relax obj value: 0.074
# Max RMSD: 0.172
# Mean RMSD: 0.172
data_MOF--net-rob--node1-MIFKUJ_clean_sbu_0--edge1-CIFDUS_clean_linker_0
_symmetry_space_group_name_H-M    P1
_symmetry_Int_Tables_number       1
_symmetry_cell_setting            triclinic
loop_
_symmetry_equiv_pos_as_xyz
'x, y, z'
_cell_length_a     14.707275
_cell_length_b     20.435281
_cell_length_c     26.867626
_cell_angle_alpha  88.844732
_cell_angle_beta   83.229504
_cell_angle_gamma 90.003263
loop_
_atom_site_label
_atom_site_type_symbol
_atom_site_fract_x
_atom_site_fract_y
_atom_site_fract_z
_atom_type_partial_charge
Zn0 Zn 0.18774 0.23462 0.96076 0.0
Zn1 Zn 0.29802 0.1816 0.05589 0.0
C2 C 0.29325 0.28547 0.87886 0.0
O3 O 0.24778 0.33507 0.89986 0.0
C4 C 0.16132 0.19436 0.1364 0.0
O5 O 0.20112 0.13928 0.1475 0.0
O6 O 0.08233 0.27155 0.92683 0.0
O7 O 0.1497 0.14384 0.98833 0.0
O8 O 0.25633 0.09782 0.02921 0.0
C9 C 0.00534 0.24338 0.92698 0.0
O10 O -0.01577 0.19446 0.95863 0.0
O11 O 0.28314 0.22923 0.90015 0.0
C12 C 0.3902 0.21088 0.1382 0.0
O13 O 0.3508 0.26682 0.12898 0.0
O14 O 0.38313 0.16342 0.10892 0.0
O15 O 0.36311 0.24582 1.00735 0.0
O16 O 0.23716 0.30257 1.00465 0.0
O17 O 0.18699 0.22314 0.09471 0.0
C18 C 0.1822 0.09411 1.00944 0.0
C19 C 0.32346 0.30075 1.00551 0.0
Zn20 Zn 0.70412 0.72922 0.97517 0.0
Zn21 Zn 0.79104 0.66596 0.0663 0.0
C22 C 0.81354 0.67695 0.88978 0.0
O23 O 0.73321 0.65716 0.8791 0.0
C24 C 0.63275 0.64285 0.13065 0.0
O25 O 0.66791 0.58432 0.12283 0.0
O26 O 0.62744 0.76924 0.92454 0.0
O27 O 0.63916 0.64877 1.00526 0.0
O28 O 0.76163 0.59375 0.02037 0.0
C29 C 0.55179 0.74378 0.91657 0.0
O30 O 0.51659 0.69645 0.94654 0.0
O31 O 0.81886 0.70394 0.9316 0.0
C32 C 0.86048 0.66718 0.15752 0.0
O33 O 0.82058 0.72445 0.15465 0.0
O34 O 0.86327 0.62949 0.12023 0.0
O35 O 0.86139 0.74466 0.03627 0.0
O36 O 0.73981 0.79996 0.02001 0.0
O37 O 0.672 0.69174 0.10715 0.0
C38 C 0.67974 0.59446 1.00956 0.0
C39 C 0.8229 0.79902 0.02873 0.0
Zn40 Zn 0.28614 0.77359 0.56843 0.0
Zn41 Zn 0.19031 0.73217 0.46858 0.0
C42 C 0.14098 0.76113 0.64183 0.0
O43 O 0.17951 0.81714 0.65046 0.0
C44 C 0.31278 0.70099 0.38488 0.0
O45 O 0.28044 0.64371 0.40126 0.0
O46 O 0.36014 0.78286 0.62703 0.0
O47 O 0.359 0.71432 0.52074 0.0
O48 O 0.23724 0.65744 0.50888 0.0
C49 C 0.36367 0.72868 0.65094 0.0
O50 O 0.33208 0.67582 0.63177 0.0
O51 O 0.17012 0.73048 0.60238 0.0
C52 C 0.06254 0.64812 0.41728 0.0
O53 O 0.1099 0.59591 0.42704 0.0
O54 O 0.08318 0.70343 0.43376 0.0
O55 O 0.14653 0.81713 0.50014 0.0
O56 O 0.25048 0.86099 0.5426 0.0
O57 O 0.28832 0.75137 0.41009 0.0
C58 C 0.32232 0.65982 0.5132 0.0
C59 C 0.1769 0.86551 0.5223 0.0
Zn60 Zn 0.78878 0.28779 0.56097 0.0
Zn61 Zn 0.71098 0.23754 0.46187 0.0
C62 C 0.62785 0.30004 0.62341 0.0
O63 O 0.66317 0.35927 0.62004 0.0
C64 C 0.82703 0.28884 0.37668 0.0
O65 O 0.74855 0.30958 0.36353 0.0
O66 O 0.85529 0.31256 0.62012 0.0
O67 O 0.86132 0.2147 0.52752 0.0
O68 O 0.74245 0.16166 0.50574 0.0
C69 C 0.84646 0.2697 0.65547 0.0
O70 O 0.80435 0.21449 0.64855 0.0
O71 O 0.66697 0.25582 0.59599 0.0
C72 C 0.54835 0.22318 0.4113 0.0
O73 O 0.50957 0.25491 0.4502 0.0
O74 O 0.63157 0.20593 0.41035 0.0
O75 O 0.64864 0.31717 0.49251 0.0
O76 O 0.76476 0.36793 0.5196 0.0
O77 O 0.82847 0.26224 0.41977 0.0
C78 C 0.82359 0.16134 0.51775 0.0
C79 C 0.68633 0.36973 0.50415 0.0
H80 H 0.49941 0.58201 0.99959 0.0
H81 H 0.74184 0.46841 1.01646 0.0
H82 H 0.65261 0.36742 1.01624 0.0
H83 H 0.50555 0.31198 1.0125 0.0
H84 H 0.2637 0.42644 0.99576 0.0
H85 H 0.35369 0.52698 0.99449 0.0
C86 C 0.53323 0.53527 1.00283 0.0
C87 C 0.62738 0.53287 1.00786 0.0
C88 C 0.48162 0.47768 1.00285 0.0
C89 C 0.66953 0.47171 1.0125 0.0
C90 C 0.61854 0.41397 1.01241 0.0
C91 C 0.47242 0.35889 1.00846 0.0
C92 C 0.37789 0.36167 1.00434 0.0
C93 C 0.52448 0.41646 1.00782 0.0
C94 C 0.33619 0.42288 0.99919 0.0
C95 C 0.38761 0.48038 0.9984 0.0
H96 H 0.50084 0.64755 0.5287 0.0
H97 H 0.27154 0.53806 0.48659 0.0
H98 H 0.36569 0.43966 0.47828 0.0
H99 H 0.51124 0.38471 0.48421 0.0
H100 H 0.74051 0.49268 0.52791 0.0
H101 H 0.64784 0.59225 0.53397 0.0
C102 C 0.47142 0.60221 0.51759 0.0
C103 C 0.37919 0.60016 0.50831 0.0
C104 C 0.52579 0.54576 0.51309 0.0
C105 C 0.34215 0.54096 0.49413 0.0
C106 C 0.39598 0.48471 0.48927 0.0
C107 C 0.54145 0.42998 0.49485 0.0
C108 C 0.63284 0.43114 0.50559 0.0
C109 C 0.48767 0.48658 0.49881 0.0
C110 C 0.67041 0.49036 0.51942 0.0
C111 C 0.61741 0.54726 0.52299 0.0
H112 H 0.00308 0.07869 0.99801 0.0
H113 H 0.24102 0.97083 0.03206 0.0
H114 H 0.15011 0.87008 0.04208 0.0
H115 H 0.00298 0.81311 0.04109 0.0
H116 H 0.76532 0.92265 1.00807 0.0
H117 H 0.85661 0.02268 0.99798 0.0
C118 C 0.03556 0.03316 1.00706 0.0
C119 C 0.12903 0.0323 1.01369 0.0
C120 C -0.01722 0.97587 1.01336 0.0
C121 C 0.16929 0.97288 0.02654 0.0
C122 C 0.11731 0.91529 0.03235 0.0
C123 C 0.97096 0.85887 0.03185 0.0
C124 C 0.87733 0.86023 0.02527 0.0
C125 C 0.02392 0.9163 0.02596 0.0
C126 C 0.83712 0.92006 1.01338 0.0
C127 C 0.88933 -0.02269 1.00745 0.0
H128 H -0.00796 0.14356 0.54782 0.0
H129 H 0.77529 0.04128 0.48612 0.0
H130 H 0.8665 0.94133 0.48186 0.0
H131 H 0.00751 0.88376 0.49449 0.0
H132 H 0.22431 -0.01522 0.55706 0.0
H133 H 0.13285 0.08497 0.56194 0.0
C134 C 0.96457 0.0994 0.53348 0.0
C135 C 0.87696 0.09999 0.51716 0.0
C136 C 0.01736 0.04214 0.5311 0.0
C137 C 0.84234 0.04222 0.49899 0.0
C138 C 0.89456 -0.01491 0.49641 0.0
C139 C 0.03524 0.92766 0.50907 0.0
C140 C 0.12305 0.92681 0.52509 0.0
C141 C -0.01778 -0.01533 0.51211 0.0
C142 C 0.15713 -0.01591 0.54433 0.0
C143 C 0.10484 0.04135 0.54716 0.0
H144 H 0.60507 0.15816 0.32512 0.0
H145 H 0.38622 0.27867 0.39444 0.0
H146 H 0.31829 0.28445 0.31611 0.0
H147 H 0.32595 0.26172 0.22672 0.0
H148 H 0.53848 0.13717 0.15702 0.0
H149 H 0.60442 0.12666 0.23669 0.0
C150 C 0.54196 0.18504 0.32324 0.0
C151 C 0.50138 0.2184 0.36561 0.0
C152 C 0.50286 0.18817 0.27789 0.0
C153 C 0.41918 0.2526 0.36255 0.0
C154 C 0.38041 0.25629 0.31764 0.0
C155 C 0.38681 0.2323 0.22901 0.0
C156 C 0.42859 0.20124 0.18609 0.0
C157 C 0.42268 0.22547 0.27489 0.0
C158 C 0.50581 0.16187 0.18966 0.0
C159 C 0.54334 0.15593 0.23512 0.0
H160 H 0.59586 0.74803 0.19097 0.0
H161 H 0.50196 0.55394 0.16187 0.0
H162 H 0.39213 0.5566 0.23712 0.0
H163 H 0.33179 0.60951 0.31405 0.0
H164 H 0.42436 0.8027 0.34632 0.0
H165 H 0.5259 0.80512 0.26686 0.0
C166 C 0.54985 0.70706 0.20067 0.0
C167 C 0.55692 0.65077 0.17108 0.0
C168 C 0.48796 0.7083 0.24484 0.0
C169 C 0.49792 0.59761 0.18425 0.0
C170 C 0.43539 0.59898 0.22734 0.0
C171 C 0.3741 0.65231 0.30385 0.0
C172 C 0.37168 0.70544 0.33636 0.0
C173 C 0.43159 0.65326 0.2585 0.0
C174 C 0.42557 0.76097 0.32203 0.0
C175 C 0.4835 0.76233 0.27664 0.0
H176 H 0.43367 0.66836 0.87354 0.0
H177 H 0.59009 0.84726 0.8507 0.0
H178 H 0.54307 0.86036 0.76654 0.0
H179 H 0.46396 0.81693 0.69752 0.0
H180 H 0.31731 0.63369 0.72081 0.0
H181 H 0.35448 0.62632 0.80646 0.0
C182 C 0.45652 0.71083 0.85055 0.0
C183 C 0.51493 0.7569 0.86845 0.0
C184 C 0.43195 0.71677 0.80186 0.0
C185 C 0.54482 0.81114 0.83779 0.0
C186 C 0.51833 0.81847 0.78959 0.0
C187 C 0.4403 0.77552 0.72145 0.0
C188 C 0.38884 0.72565 0.70258 0.0
C189 C 0.46317 0.7709 0.77086 0.0
C190 C 0.35831 0.67229 0.73403 0.0
C191 C 0.37898 0.66814 0.78322 0.0
H192 H 0.52583 0.38531 0.68072 0.0
H193 H 0.57172 0.17849 0.66107 0.0
H194 H 0.47127 0.15474 0.73882 0.0
H195 H 0.37756 0.1941 0.81538 0.0
H196 H 0.33813 0.40223 0.83344 0.0
H197 H 0.42982 0.42386 0.75376 0.0
C198 C 0.51331 0.3349 0.69309 0.0
C199 C 0.55645 0.28383 0.66529 0.0
C200 C 0.45759 0.32184 0.73806 0.0
C201 C 0.53887 0.21877 0.68168 0.0
C202 C 0.48214 0.20521 0.72638 0.0
C203 C 0.38937 0.24408 0.80184 0.0
C204 C 0.3514 0.29638 0.83062 0.0
C205 C 0.44255 0.25652 0.75547 0.0
C206 C 0.36657 0.36092 0.81231 0.0
C207 C 0.41892 0.37351 0.76658 0.0
H208 H 0.8231 0.72242 0.24776 0.0
H209 H -0.02141 0.5664 0.17294 0.0
H210 H 0.04584 0.53994 0.2502 0.0
H211 H 0.07134 0.56905 0.33647 0.0
H212 H 0.91821 0.72809 0.40868 0.0
H213 H 0.83751 0.74464 0.33516 0.0
C214 C 0.87157 0.68246 0.24825 0.0
C215 C 0.89726 0.64724 0.20443 0.0
C216 C 0.90985 0.66788 0.29246 0.0
C217 C 0.95849 0.59468 0.20608 0.0
C218 C -0.00316 0.57956 0.25023 0.0
C219 C 0.01853 0.6061 0.33654 0.0
C220 C 0.00073 0.64743 0.37784 0.0
C221 C 0.97439 0.61675 0.29338 0.0
C222 C 0.93309 0.69584 0.37724 0.0
C223 C 0.88741 0.70559 0.33513 0.0
H224 H 0.8395 0.32167 0.27712 0.0
H225 H -0.00568 0.23804 0.38971 0.0
H226 H 0.1137 0.20449 0.32466 0.0
H227 H 0.16557 0.18782 0.23598 0.0
H228 H 0.01453 0.2722 0.12255 0.0
H229 H 0.90166 0.31647 0.18787 0.0
C230 C 0.90007 0.29714 0.28753 0.0
C231 C 0.90704 0.28143 0.33825 0.0
C232 C 0.96813 0.27703 0.2498 0.0
C233 C -0.01343 0.25022 0.35101 0.0
C234 C 0.05473 0.23061 0.31381 0.0
C235 C 0.10794 0.21603 0.2256 0.0
C236 C 0.09669 0.22555 0.17478 0.0
C237 C 0.04457 0.24172 0.26313 0.0
C238 C 0.02362 0.26375 0.1616 0.0
C239 C 0.95932 0.28898 0.19888 0.0
H240 H 0.78125 0.21369 0.74412 0.0
H241 H -0.01735 0.35258 0.67722 0.0
H242 H 0.04327 0.36299 0.75796 0.0
H243 H 0.04757 0.32418 0.84518 0.0
H244 H 0.845 0.18477 0.91094 0.0
H245 H 0.77507 0.18411 0.8331 0.0
C246 C 0.83826 0.24647 0.74721 0.0
C247 C 0.87873 0.28136 0.70462 0.0
C248 C 0.87222 0.25225 0.79354 0.0
C249 C 0.95094 0.32484 0.70944 0.0
C250 C -0.01443 0.3307 0.75555 0.0
C251 C -0.01296 0.29459 0.84289 0.0
C252 C 0.95235 0.25392 0.88382 0.0
C253 C 0.94792 0.29354 0.79759 0.0
C254 C 0.87361 0.2162 0.88008 0.0
C255 C 0.83381 0.21548 0.83543 0.0
H256 H 0.15212 0.76591 0.74032 0.0
H257 H -0.01133 0.68676 0.63278 0.0
H258 H 0.87598 0.64616 0.70136 0.0
H259 H 0.81796 0.6436 0.79158 0.0
H260 H -0.01487 0.72275 0.89797 0.0
H261 H 0.10366 0.75172 0.83 0.0
C262 C 0.09184 0.73956 0.73194 0.0
C263 C 0.07701 0.73054 0.68185 0.0
C264 C 0.02852 0.71628 0.77128 0.0
C265 C 0.00055 0.69471 0.67124 0.0
C266 C 0.93634 0.67168 0.71038 0.0
C267 C 0.88098 0.66612 0.80001 0.0
C268 C 0.89185 0.68193 0.84982 0.0
C269 C 0.94866 0.68358 0.76055 0.0
C270 C 0.9744 0.71058 0.86003 0.0
C271 C 0.04214 0.72751 0.82115 0.0
loop_
_geom_bond_atom_site_label_1
_geom_bond_atom_site_label_2
_geom_bond_distance
_geom_bond_site_symmetry_2
_ccdc_geom_bond_type
Zn0 O6 1.969 . S
Zn0 O7 1.965 . S
Zn0 O11 2.024 . S
Zn0 O16 1.969 . S
Zn1 O8 1.969 . S
Zn1 O14 1.969 . S
Zn1 O15 1.965 . S
Zn1 O17 2.024 . S
C2 O3 1.229 . S
C2 O11 1.058 . S
O3 C2 1.229 . S
C4 O5 1.229 . S
C4 O17 1.058 . S
O5 C4 1.229 . S
O6 Zn0 1.969 . S
O6 C9 1.267 . S
O7 Zn0 1.965 . S
O7 C18 1.260 1_556 S
O8 Zn1 1.969 . S
O8 C18 1.258 . S
C9 O6 1.267 . S
C9 O10 1.228 . S
O10 C9 1.228 . S
O11 Zn0 2.024 . S
O11 C2 1.058 . S
C12 O13 1.228 . S
C12 O14 1.267 . S
O13 C12 1.228 . S
O14 Zn1 1.969 . S
O14 C12 1.267 . S
O15 Zn1 1.965 . S
O15 C19 1.260 1_554 S
O16 Zn0 1.969 . S
O16 C19 1.258 . S
O17 Zn1 2.024 . S
O17 C4 1.058 . S
C18 O7 1.260 1_554 S
C18 O8 1.258 . S
C19 O15 1.260 1_556 S
C19 O16 1.258 . S
Zn20 O26 1.969 . S
Zn20 O27 1.965 . S
Zn20 O31 2.024 . S
Zn20 O36 1.969 . S
Zn21 O28 1.969 . S
Zn21 O34 1.969 . S
Zn21 O35 1.965 . S
Zn21 O37 2.024 . S
C22 O23 1.229 . S
C22 O31 1.058 . S
O23 C22 1.229 . S
C24 O25 1.229 . S
C24 O37 1.058 . S
O25 C24 1.229 . S
O26 Zn20 1.969 . S
O26 C29 1.267 . S
O27 Zn20 1.965 . S
O27 C38 1.260 1_556 S
O28 Zn21 1.969 . S
O28 C38 1.258 . S
C29 O26 1.267 . S
C29 O30 1.228 . S
O30 C29 1.228 . S
O31 Zn20 2.024 . S
O31 C22 1.058 . S
C32 O33 1.228 . S
C32 O34 1.267 . S
O33 C32 1.228 . S
O34 Zn21 1.969 . S
O34 C32 1.267 . S
O35 Zn21 1.965 . S
O35 C39 1.260 1_554 S
O36 Zn20 1.969 . S
O36 C39 1.258 . S
O37 Zn21 2.024 . S
O37 C24 1.058 . S
C38 O27 1.260 1_554 S
C38 O28 1.258 . S
C39 O35 1.260 1_556 S
C39 O36 1.258 . S
Zn40 O46 1.969 . S
Zn40 O47 1.965 . S
Zn40 O51 2.024 . S
Zn40 O56 1.969 . S
Zn41 O48 1.969 . S
Zn41 O54 1.969 . S
Zn41 O55 1.965 . S
Zn41 O57 2.024 . S
C42 O43 1.229 . S
C42 O51 1.058 . S
O43 C42 1.229 . S
C44 O45 1.229 . S
C44 O57 1.058 . S
O45 C44 1.229 . S
O46 Zn40 1.969 . S
O46 C49 1.267 . S
O47 Zn40 1.965 . S
O47 C58 1.260 . S
O48 Zn41 1.969 . S
O48 C58 1.258 . S
C49 O46 1.267 . S
C49 O50 1.228 . S
O50 C49 1.228 . S
O51 Zn40 2.024 . S
O51 C42 1.058 . S
C52 O53 1.228 . S
C52 O54 1.267 . S
O53 C52 1.228 . S
O54 Zn41 1.969 . S
O54 C52 1.267 . S
O55 Zn41 1.965 . S
O55 C59 1.260 . S
O56 Zn40 1.969 . S
O56 C59 1.258 . S
O57 Zn41 2.024 . S
O57 C44 1.058 . S
C58 O47 1.260 . S
C58 O48 1.258 . S
C59 O55 1.260 . S
C59 O56 1.258 . S
Zn60 O66 1.969 . S
Zn60 O67 1.965 . S
Zn60 O71 2.024 . S
Zn60 O76 1.969 . S
Zn61 O68 1.969 . S
Zn61 O74 1.969 . S
Zn61 O75 1.965 . S
Zn61 O77 2.024 . S
C62 O63 1.229 . S
C62 O71 1.058 . S
O63 C62 1.229 . S
C64 O65 1.229 . S
C64 O77 1.058 . S
O65 C64 1.229 . S
O66 Zn60 1.969 . S
O66 C69 1.267 . S
O67 Zn60 1.965 . S
O67 C78 1.260 . S
O68 Zn61 1.969 . S
O68 C78 1.258 . S
C69 O66 1.267 . S
C69 O70 1.228 . S
O70 C69 1.228 . S
O71 Zn60 2.024 . S
O71 C62 1.058 . S
C72 O73 1.228 . S
C72 O74 1.267 . S
O73 C72 1.228 . S
O74 Zn61 1.969 . S
O74 C72 1.267 . S
O75 Zn61 1.965 . S
O75 C79 1.260 . S
O76 Zn60 1.969 . S
O76 C79 1.258 . S
O77 Zn61 2.024 . S
O77 C64 1.058 . S
C78 O67 1.260 . S
C78 O68 1.258 . S
C79 O75 1.260 . S
C79 O76 1.258 . S
H80 C86 0.930 . S
H81 C89 0.930 . S
H82 C90 0.930 . S
H83 C91 0.930 . S
H84 C94 0.930 . S
H85 C95 0.930 . S
C86 H80 0.930 . S
C86 C87 1.355 1_554 S
C86 C88 1.415 . S
C87 C86 1.355 1_556 S
C87 C89 1.419 . S
C88 C86 1.415 . S
C88 C93 1.425 1_554 S
C88 C95 1.409 . S
C89 H81 0.930 . S
C89 C87 1.419 . S
C89 C90 1.362 . S
C90 H82 0.930 . S
C90 C89 1.362 . S
C90 C93 1.409 . S
C91 H83 0.930 . S
C91 C92 1.355 1_556 S
C91 C93 1.415 . S
C92 C91 1.355 1_554 S
C92 C94 1.419 . S
C93 C88 1.425 1_556 S
C93 C90 1.409 . S
C93 C91 1.415 . S
C94 H84 0.930 . S
C94 C92 1.419 . S
C94 C95 1.362 . S
C95 H85 0.930 . S
C95 C88 1.409 . S
C95 C94 1.362 . S
H96 C102 0.930 . S
H97 C105 0.930 . S
H98 C106 0.930 . S
H99 C107 0.930 . S
H100 C110 0.930 . S
H101 C111 0.930 . S
C102 H96 0.930 . S
C102 C103 1.355 . S
C102 C104 1.415 . S
C103 C102 1.355 . S
C103 C105 1.419 . S
C104 C102 1.415 . S
C104 C109 1.425 . S
C104 C111 1.409 . S
C105 H97 0.930 . S
C105 C103 1.419 . S
C105 C106 1.362 . S
C106 H98 0.930 . S
C106 C105 1.362 . S
C106 C109 1.409 . S
C107 H99 0.930 . S
C107 C108 1.355 . S
C107 C109 1.415 . S
C108 C107 1.355 . S
C108 C110 1.419 . S
C109 C104 1.425 . S
C109 C106 1.409 . S
C109 C107 1.415 . S
C110 H100 0.930 . S
C110 C108 1.419 . S
C110 C111 1.362 . S
C111 H101 0.930 . S
C111 C104 1.409 . S
C111 C110 1.362 . S
H112 C118 0.930 . S
H113 C121 0.930 . S
H114 C122 0.930 . S
H115 C123 0.930 . S
H116 C126 0.930 . S
H117 C127 0.930 . S
C118 H112 0.930 . S
C118 C119 1.355 1_554 S
C118 C120 1.415 1_455 S
C119 C118 1.355 1_556 S
C119 C121 1.419 . S
C120 C118 1.415 1_655 S
C120 C125 1.425 1_644 S
C120 C127 1.409 . S
C121 H113 0.930 . S
C121 C119 1.419 . S
C121 C122 1.362 1_545 S
C122 H114 0.930 . S
C122 C121 1.362 1_565 S
C122 C125 1.409 . S
C123 H115 0.930 . S
C123 C124 1.355 1_556 S
C123 C125 1.415 1_655 S
C124 C123 1.355 1_554 S
C124 C126 1.419 . S
C125 C120 1.425 1_466 S
C125 C122 1.409 . S
C125 C123 1.415 1_455 S
C126 H116 0.930 . S
C126 C124 1.419 . S
C126 C127 1.362 1_565 S
C127 H117 0.930 . S
C127 C120 1.409 . S
C127 C126 1.362 1_545 S
H128 C134 0.930 . S
H129 C137 0.930 . S
H130 C138 0.930 1_565 S
H131 C139 0.930 . S
H132 C142 0.930 . S
H133 C143 0.930 1_545 S
C134 H128 0.930 . S
C134 C135 1.355 . S
C134 C136 1.415 1_655 S
C135 C134 1.355 . S
C135 C137 1.419 . S
C136 C134 1.415 1_455 S
C136 C141 1.425 1_445 S
C136 C143 1.409 1_545 S
C137 H129 0.930 . S
C137 C135 1.419 . S
C137 C138 1.362 . S
C138 H130 0.930 1_545 S
C138 C137 1.362 . S
C138 C141 1.409 1_545 S
C139 H131 0.930 . S
C139 C140 1.355 . S
C139 C141 1.415 1_455 S
C140 C139 1.355 . S
C140 C142 1.419 . S
C141 C136 1.425 1_665 S
C141 C138 1.409 1_565 S
C141 C139 1.415 1_655 S
C142 H132 0.930 . S
C142 C140 1.419 . S
C142 C143 1.362 . S
C143 H133 0.930 1_565 S
C143 C136 1.409 1_565 S
C143 C142 1.362 . S
H144 C150 0.930 . S
H145 C153 0.930 . S
H146 C154 0.930 . S
H147 C155 0.930 . S
H148 C158 0.930 . S
H149 C159 0.930 . S
C150 H144 0.930 . S
C150 C151 1.355 . S
C150 C152 1.415 . S
C151 C150 1.355 . S
C151 C153 1.419 . S
C152 C150 1.415 . S
C152 C157 1.425 . S
C152 C159 1.409 . S
C153 H145 0.930 . S
C153 C151 1.419 . S
C153 C154 1.362 . S
C154 H146 0.930 . S
C154 C153 1.362 . S
C154 C157 1.409 . S
C155 H147 0.930 . S
C155 C156 1.355 . S
C155 C157 1.415 . S
C156 C155 1.355 . S
C156 C158 1.419 . S
C157 C152 1.425 . S
C157 C154 1.409 . S
C157 C155 1.415 . S
C158 H148 0.930 . S
C158 C156 1.419 . S
C158 C159 1.362 . S
C159 H149 0.930 . S
C159 C152 1.409 . S
C159 C158 1.362 . S
H160 C166 0.930 . S
H161 C169 0.930 . S
H162 C170 0.930 . S
H163 C171 0.930 . S
H164 C174 0.930 . S
H165 C175 0.930 . S
C166 H160 0.930 . S
C166 C167 1.355 . S
C166 C168 1.415 . S
C167 C166 1.355 . S
C167 C169 1.419 . S
C168 C166 1.415 . S
C168 C173 1.425 . S
C168 C175 1.409 . S
C169 H161 0.930 . S
C169 C167 1.419 . S
C169 C170 1.362 . S
C170 H162 0.930 . S
C170 C169 1.362 . S
C170 C173 1.409 . S
C171 H163 0.930 . S
C171 C172 1.355 . S
C171 C173 1.415 . S
C172 C171 1.355 . S
C172 C174 1.419 . S
C173 C168 1.425 . S
C173 C170 1.409 . S
C173 C171 1.415 . S
C174 H164 0.930 . S
C174 C172 1.419 . S
C174 C175 1.362 . S
C175 H165 0.930 . S
C175 C168 1.409 . S
C175 C174 1.362 . S
H176 C182 0.930 . S
H177 C185 0.930 . S
H178 C186 0.930 . S
H179 C187 0.930 . S
H180 C190 0.930 . S
H181 C191 0.930 . S
C182 H176 0.930 . S
C182 C183 1.355 . S
C182 C184 1.415 . S
C183 C182 1.355 . S
C183 C185 1.419 . S
C184 C182 1.415 . S
C184 C189 1.425 . S
C184 C191 1.409 . S
C185 H177 0.930 . S
C185 C183 1.419 . S
C185 C186 1.362 . S
C186 H178 0.930 . S
C186 C185 1.362 . S
C186 C189 1.409 . S
C187 H179 0.930 . S
C187 C188 1.355 . S
C187 C189 1.415 . S
C188 C187 1.355 . S
C188 C190 1.419 . S
C189 C184 1.425 . S
C189 C186 1.409 . S
C189 C187 1.415 . S
C190 H180 0.930 . S
C190 C188 1.419 . S
C190 C191 1.362 . S
C191 H181 0.930 . S
C191 C184 1.409 . S
C191 C190 1.362 . S
H192 C198 0.930 . S
H193 C201 0.930 . S
H194 C202 0.930 . S
H195 C203 0.930 . S
H196 C206 0.930 . S
H197 C207 0.930 . S
C198 H192 0.930 . S
C198 C199 1.355 . S
C198 C200 1.415 . S
C199 C198 1.355 . S
C199 C201 1.419 . S
C200 C198 1.415 . S
C200 C205 1.425 . S
C200 C207 1.409 . S
C201 H193 0.930 . S
C201 C199 1.419 . S
C201 C202 1.362 . S
C202 H194 0.930 . S
C202 C201 1.362 . S
C202 C205 1.409 . S
C203 H195 0.930 . S
C203 C204 1.355 . S
C203 C205 1.415 . S
C204 C203 1.355 . S
C204 C206 1.419 . S
C205 C200 1.425 . S
C205 C202 1.409 . S
C205 C203 1.415 . S
C206 H196 0.930 . S
C206 C204 1.419 . S
C206 C207 1.362 . S
C207 H197 0.930 . S
C207 C200 1.409 . S
C207 C206 1.362 . S
H208 C214 0.930 . S
H209 C217 0.930 . S
H210 C218 0.930 . S
H211 C219 0.930 . S
H212 C222 0.930 . S
H213 C223 0.930 . S
C214 H208 0.930 . S
C214 C215 1.355 1_455 S
C214 C216 1.415 . S
C215 C214 1.355 1_655 S
C215 C217 1.419 . S
C216 C214 1.415 . S
C216 C221 1.425 1_455 S
C216 C223 1.409 . S
C217 H209 0.930 . S
C217 C215 1.419 . S
C217 C218 1.362 . S
C218 H210 0.930 . S
C218 C217 1.362 . S
C218 C221 1.409 . S
C219 H211 0.930 . S
C219 C220 1.355 1_655 S
C219 C221 1.415 . S
C220 C219 1.355 1_455 S
C220 C222 1.419 . S
C221 C216 1.425 1_655 S
C221 C218 1.409 . S
C221 C219 1.415 . S
C222 H212 0.930 . S
C222 C220 1.419 . S
C222 C223 1.362 . S
C223 H213 0.930 . S
C223 C216 1.409 . S
C223 C222 1.362 . S
H224 C230 0.930 . S
H225 C233 0.930 . S
H226 C234 0.930 . S
H227 C235 0.930 . S
H228 C238 0.930 . S
H229 C239 0.930 . S
C230 H224 0.930 . S
C230 C231 1.355 . S
C230 C232 1.415 . S
C231 C230 1.355 . S
C231 C233 1.419 1_655 S
C232 C230 1.415 . S
C232 C237 1.425 1_655 S
C232 C239 1.409 . S
C233 H225 0.930 . S
C233 C231 1.419 1_455 S
C233 C234 1.362 . S
C234 H226 0.930 . S
C234 C233 1.362 . S
C234 C237 1.409 . S
C235 H227 0.930 . S
C235 C236 1.355 . S
C235 C237 1.415 . S
C236 C235 1.355 . S
C236 C238 1.419 1_455 S
C237 C232 1.425 1_455 S
C237 C234 1.409 . S
C237 C235 1.415 . S
C238 H228 0.930 . S
C238 C236 1.419 1_655 S
C238 C239 1.362 . S
C239 H229 0.930 . S
C239 C232 1.409 . S
C239 C238 1.362 . S
H240 C246 0.930 . S
H241 C249 0.930 . S
H242 C250 0.930 . S
H243 C251 0.930 . S
H244 C254 0.930 . S
H245 C255 0.930 . S
C246 H240 0.930 . S
C246 C247 1.355 1_455 S
C246 C248 1.415 . S
C247 C246 1.355 1_655 S
C247 C249 1.419 . S
C248 C246 1.415 . S
C248 C253 1.425 1_455 S
C248 C255 1.409 . S
C249 H241 0.930 . S
C249 C247 1.419 . S
C249 C250 1.362 . S
C250 H242 0.930 . S
C250 C249 1.362 . S
C250 C253 1.409 . S
C251 H243 0.930 . S
C251 C252 1.355 1_655 S
C251 C253 1.415 . S
C252 C251 1.355 1_455 S
C252 C254 1.419 . S
C253 C248 1.425 1_655 S
C253 C250 1.409 . S
C253 C251 1.415 . S
C254 H244 0.930 . S
C254 C252 1.419 . S
C254 C255 1.362 . S
C255 H245 0.930 . S
C255 C248 1.409 . S
C255 C254 1.362 . S
H256 C262 0.930 . S
H257 C265 0.930 . S
H258 C266 0.930 . S
H259 C267 0.930 . S
H260 C270 0.930 . S
H261 C271 0.930 . S
C262 H256 0.930 . S
C262 C263 1.355 . S
C262 C264 1.415 1_455 S
C263 C262 1.355 . S
C263 C265 1.419 . S
C264 C262 1.415 1_655 S
C264 C269 1.425 1_655 S
C264 C271 1.409 . S
C265 H257 0.930 . S
C265 C263 1.419 . S
C265 C266 1.362 . S
C266 H258 0.930 . S
C266 C265 1.362 . S
C266 C269 1.409 . S
C267 H259 0.930 . S
C267 C268 1.355 . S
C267 C269 1.415 1_655 S
C268 C267 1.355 . S
C268 C270 1.419 . S
C269 C264 1.425 1_455 S
C269 C266 1.409 . S
C269 C267 1.415 1_455 S
C270 H260 0.930 . S
C270 C268 1.419 . S
C270 C271 1.362 . S
C271 H261 0.930 . S
C271 C264 1.409 . S
C271 C270 1.362 . S
C87 C38 1.521 1_556 S
C92 C19 1.521 1_554 S
C103 C58 1.469 . S
C108 C79 1.469 . S
C119 C18 1.521 1_556 S
C124 C39 1.521 1_554 S
C135 C78 1.471 . S
C140 C59 1.471 . S
C151 C72 1.251 . S
C156 C12 1.310 . S
C167 C24 1.108 . S
C172 C44 1.132 . S
C183 C29 1.240 . S
C188 C49 1.205 . S
C199 C62 0.986 . S
C204 C2 1.021 . S
C215 C32 1.257 . S
C220 C52 1.206 . S
C231 C64 1.135 . S
C236 C4 1.096 . S
C247 C69 1.238 . S
C252 C9 1.206 . S
C263 C42 1.055 . S
C268 C22 0.986 . S
