# Generated by pormake.
# Topology uol, (4)-cn, num edge types: 1
# Building blocks:
#     Node 0, Type 0, BuildingBlock: TATPOV_clean_sbu_0, # of connection points: 4
#     Node 1, Type 0, BuildingBlock: TATPOV_clean_sbu_0, # of connection points: 4
#     Node 2, Type 0, BuildingBlock: TATPOV_clean_sbu_0, # of connection points: 4
#     Node 3, Type 0, BuildingBlock: TATPOV_clean_sbu_0, # of connection points: 4
#     Node 4, Type 0, BuildingBlock: TATPOV_clean_sbu_0, # of connection points: 4
#     Node 5, Type 0, BuildingBlock: TATPOV_clean_sbu_0, # of connection points: 4
#     Node 6, Type 0, BuildingBlock: TATPOV_clean_sbu_0, # of connection points: 4
#     Node 7, Type 0, BuildingBlock: TATPOV_clean_sbu_0, # of connection points: 4
#     Node 8, Type 0, BuildingBlock: TATPOV_clean_sbu_0, # of connection points: 4
#     Node 9, Type 0, BuildingBlock: TATPOV_clean_sbu_0, # of connection points: 4
#     Node 10, Type 0, BuildingBlock: TATPOV_clean_sbu_0, # of connection points: 4
#     Node 11, Type 0, BuildingBlock: TATPOV_clean_sbu_0, # of connection points: 4
#     Edge 12, Type (0, 0), BuildingBlock: ZUJKAS_clean_linker_0, # of connection points: 2
#     Edge 13, Type (0, 0), BuildingBlock: ZUJKAS_clean_linker_0, # of connection points: 2
#     Edge 14, Type (0, 0), BuildingBlock: ZUJKAS_clean_linker_0, # of connection points: 2
#     Edge 15, Type (0, 0), BuildingBlock: ZUJKAS_clean_linker_0, # of connection points: 2
#     Edge 16, Type (0, 0), BuildingBlock: ZUJKAS_clean_linker_0, # of connection points: 2
#     Edge 17, Type (0, 0), BuildingBlock: ZUJKAS_clean_linker_0, # of connection points: 2
#     Edge 18, Type (0, 0), BuildingBlock: ZUJKAS_clean_linker_0, # of connection points: 2
#     Edge 19, Type (0, 0), BuildingBlock: ZUJKAS_clean_linker_0, # of connection points: 2
#     Edge 20, Type (0, 0), BuildingBlock: ZUJKAS_clean_linker_0, # of connection points: 2
#     Edge 21, Type (0, 0), BuildingBlock: ZUJKAS_clean_linker_0, # of connection points: 2
#     Edge 22, Type (0, 0), BuildingBlock: ZUJKAS_clean_linker_0, # of connection points: 2
#     Edge 23, Type (0, 0), BuildingBlock: ZUJKAS_clean_linker_0, # of connection points: 2
#     Edge 24, Type (0, 0), BuildingBlock: ZUJKAS_clean_linker_0, # of connection points: 2
#     Edge 25, Type (0, 0), BuildingBlock: ZUJKAS_clean_linker_0, # of connection points: 2
#     Edge 26, Type (0, 0), BuildingBlock: ZUJKAS_clean_linker_0, # of connection points: 2
#     Edge 27, Type (0, 0), BuildingBlock: ZUJKAS_clean_linker_0, # of connection points: 2
#     Edge 28, Type (0, 0), BuildingBlock: ZUJKAS_clean_linker_0, # of connection points: 2
#     Edge 29, Type (0, 0), BuildingBlock: ZUJKAS_clean_linker_0, # of connection points: 2
#     Edge 30, Type (0, 0), BuildingBlock: ZUJKAS_clean_linker_0, # of connection points: 2
#     Edge 31, Type (0, 0), BuildingBlock: ZUJKAS_clean_linker_0, # of connection points: 2
#     Edge 32, Type (0, 0), BuildingBlock: ZUJKAS_clean_linker_0, # of connection points: 2
#     Edge 33, Type (0, 0), BuildingBlock: ZUJKAS_clean_linker_0, # of connection points: 2
#     Edge 34, Type (0, 0), BuildingBlock: ZUJKAS_clean_linker_0, # of connection points: 2
#     Edge 35, Type (0, 0), BuildingBlock: ZUJKAS_clean_linker_0, # of connection points: 2
# Relax obj value: 0.217
# Max RMSD: 0.260
# Mean RMSD: 0.260
data_MOF--net-uol--node1-TATPOV_clean_sbu_0--edge1-ZUJKAS_clean_linker_0
_symmetry_space_group_name_H-M    P1
_symmetry_Int_Tables_number       1
_symmetry_cell_setting            triclinic
loop_
_symmetry_equiv_pos_as_xyz
'x, y, z'
_cell_length_a     42.805972
_cell_length_b     42.94913
_cell_length_c     80.923309
_cell_angle_alpha  89.741933
_cell_angle_beta   89.971539
_cell_angle_gamma 120.01454
loop_
_atom_site_label
_atom_site_type_symbol
_atom_site_fract_x
_atom_site_fract_y
_atom_site_fract_z
_atom_type_partial_charge
Zn0 Zn 0.12809 0.28446 0.0678 0.0
Zn1 Zn 0.15799 0.35429 0.0728 0.0
O2 O 0.16994 0.35068 0.04819 0.0
O3 O 0.14053 0.29236 0.04369 0.0
O4 O 0.17452 0.40693 0.07601 0.0
O5 O 0.07934 0.27338 0.07584 0.0
O6 O 0.10435 0.33141 0.08023 0.0
C7 C 0.16049 0.32414 0.03846 0.0
C8 C 0.18734 0.31304 0.09145 0.0
O9 O 0.18866 0.34295 0.08871 0.0
O10 O 0.16428 0.28492 0.08403 0.0
C11 C 0.20377 0.43351 0.07076 0.0
O12 O 0.22703 0.42764 0.06276 0.0
C13 C 0.07683 0.29987 0.08089 0.0
Zn14 Zn 0.84158 0.13349 0.23667 0.0
Zn15 Zn 0.79908 0.16121 0.24137 0.0
O16 O 0.81655 0.17444 0.21704 0.0
O17 O 0.84768 0.14715 0.21264 0.0
O18 O 0.7624 0.1774 0.24393 0.0
O19 O 0.80357 0.08436 0.24417 0.0
O20 O 0.7684 0.10734 0.24805 0.0
C21 C 0.83505 0.16642 0.20742 0.0
C22 C 0.86822 0.19046 0.26125 0.0
O23 O 0.83918 0.19082 0.25816 0.0
O24 O 0.8753 0.16904 0.25358 0.0
C25 C 0.76441 0.20494 0.23696 0.0
O26 O 0.7928 0.22584 0.22786 0.0
C27 C 0.77358 0.08058 0.24872 0.0
Zn28 Zn 0.703 0.83693 0.39966 0.0
Zn29 Zn 0.63267 0.79704 0.40574 0.0
O30 O 0.63524 0.81352 0.3814 0.0
O31 O 0.69341 0.84243 0.37582 0.0
O32 O 0.57973 0.76196 0.40945 0.0
O33 O 0.71288 0.79785 0.40678 0.0
O34 O 0.6548 0.76516 0.41193 0.0
C35 C 0.66118 0.83076 0.37125 0.0
C36 C 0.6762 0.86636 0.42485 0.0
O37 O 0.64588 0.83816 0.42221 0.0
O38 O 0.70389 0.8718 0.41676 0.0
C39 C 0.55386 0.76533 0.4038 0.0
O40 O 0.56105 0.7943 0.3953 0.0
C41 C 0.68625 0.76877 0.41188 0.0
Zn42 Zn 0.85019 0.6968 0.56443 0.0
Zn43 Zn 0.82034 0.6267 0.57042 0.0
O44 O 0.80943 0.62988 0.54563 0.0
O45 O 0.83691 0.68802 0.54049 0.0
O46 O 0.80422 0.57421 0.57391 0.0
O47 O 0.89943 0.70778 0.57192 0.0
O48 O 0.87319 0.65055 0.57878 0.0
C49 C 0.81797 0.65593 0.53559 0.0
C50 C 0.79032 0.66745 0.5884 0.0
O51 O 0.78872 0.63749 0.58564 0.0
O52 O 0.81387 0.69577 0.5811 0.0
C53 C 0.77569 0.5479 0.56807 0.0
O54 O 0.75342 0.5542 0.55944 0.0
C55 C 0.90111 0.68182 0.5784 0.0
Zn56 Zn 0.15216 0.86321 0.74032 0.0
Zn57 Zn 0.19017 0.83124 0.74029 0.0
O58 O 0.16544 0.81868 0.71712 0.0
O59 O 0.12938 0.84125 0.71878 0.0
O60 O 0.22596 0.81343 0.73906 0.0
O61 O 0.1947 0.91319 0.74133 0.0
O62 O 0.22431 0.88476 0.74672 0.0
C63 C 0.14068 0.82342 0.71093 0.0
C64 C 0.13279 0.81048 0.76657 0.0
O65 O 0.15444 0.80293 0.75914 0.0
O66 O 0.1289 0.8363 0.7615 0.0
C67 C 0.2253 0.78797 0.74744 0.0
O68 O 0.19848 0.76948 0.75775 0.0
C69 C 0.22332 0.91392 0.74584 0.0
Zn70 Zn 0.27682 0.13722 0.90437 0.0
Zn71 Zn 0.34723 0.18198 0.90568 0.0
O72 O 0.33874 0.16477 0.88125 0.0
O73 O 0.27997 0.12873 0.88027 0.0
O74 O 0.39993 0.22028 0.90642 0.0
O75 O 0.26493 0.17445 0.9121 0.0
O76 O 0.32342 0.21105 0.91395 0.0
C77 C 0.31044 0.14343 0.87318 0.0
C78 C 0.31398 0.1136 0.92665 0.0
O79 O 0.34208 0.14254 0.92206 0.0
O80 O 0.28336 0.1058 0.92095 0.0
C81 C 0.42464 0.22178 0.89714 0.0
O82 O 0.41668 0.19597 0.88644 0.0
C83 C 0.29122 0.20494 0.9158 0.0
Zn84 Zn 0.70552 0.84981 0.74181 0.0
Zn85 Zn 0.63505 0.82177 0.73999 0.0
O86 O 0.64294 0.81038 0.76424 0.0
O87 O 0.702 0.83552 0.76553 0.0
O88 O 0.5819 0.80586 0.73866 0.0
O89 O 0.71609 0.89917 0.73524 0.0
O90 O 0.65741 0.87537 0.73288 0.0
C91 C 0.67138 0.81771 0.77236 0.0
C92 C 0.67208 0.79212 0.71808 0.0
O93 O 0.64299 0.79094 0.7227 0.0
O94 O 0.70194 0.81492 0.72437 0.0
C95 C 0.55662 0.78128 0.74725 0.0
O96 O 0.56417 0.76269 0.75781 0.0
C97 C 0.68916 0.90246 0.73159 0.0
Zn98 Zn 0.8352 0.70057 0.91442 0.0
Zn99 Zn 0.80064 0.63017 0.9093 0.0
O100 O 0.81759 0.63615 0.93373 0.0
O101 O 0.84401 0.69436 0.93822 0.0
O102 O 0.76816 0.57648 0.90724 0.0
O103 O 0.7927 0.70587 0.90804 0.0
O104 O 0.76662 0.64869 0.90135 0.0
C105 C 0.83425 0.66294 0.94337 0.0
C106 C 0.86867 0.67568 0.88984 0.0
O107 O 0.84275 0.64431 0.89329 0.0
O108 O 0.87066 0.70297 0.89688 0.0
C109 C 0.75166 0.56274 0.89382 0.0
O110 O 0.75803 0.58375 0.8809 0.0
C111 C 0.7663 0.67819 0.90191 0.0
Zn112 Zn 0.14062 0.84913 0.07684 0.0
Zn113 Zn 0.16724 0.80575 0.07499 0.0
O114 O 0.17625 0.82227 0.09959 0.0
O115 O 0.15207 0.85691 0.10088 0.0
O116 O 0.18238 0.76817 0.07348 0.0
O117 O 0.09156 0.81197 0.06909 0.0
O118 O 0.11408 0.77608 0.06689 0.0
C119 C 0.16852 0.84283 0.10783 0.0
C120 C 0.20121 0.87484 0.05441 0.0
O121 O 0.20089 0.84603 0.05867 0.0
O122 O 0.17812 0.88189 0.06042 0.0
C123 C 0.20822 0.76821 0.08125 0.0
O124 O 0.22842 0.7952 0.09104 0.0
C125 C 0.08768 0.78174 0.06523 0.0
Zn126 Zn 0.27981 0.125 0.2403 0.0
Zn127 Zn 0.35041 0.15785 0.2406 0.0
O128 O 0.33732 0.16879 0.26385 0.0
O129 O 0.2784 0.14477 0.2624 0.0
O130 O 0.40404 0.17639 0.24229 0.0
O131 O 0.27349 0.07557 0.23819 0.0
O132 O 0.33202 0.1049 0.23367 0.0
C133 C 0.30756 0.16282 0.27026 0.0
C134 C 0.31409 0.1802 0.2149 0.0
O135 O 0.34329 0.18693 0.22211 0.0
O136 O 0.2842 0.15422 0.21982 0.0
C137 C 0.42928 0.2022 0.23421 0.0
O138 O 0.42143 0.2207 0.22373 0.0
C139 C 0.30191 0.07552 0.23401 0.0
Zn140 Zn 0.14499 0.28806 0.41676 0.0
Zn141 Zn 0.18402 0.3582 0.41029 0.0
O142 O 0.16966 0.3553 0.43503 0.0
O143 O 0.13983 0.29731 0.44058 0.0
O144 O 0.21956 0.41092 0.40657 0.0
O145 O 0.18433 0.27836 0.40968 0.0
O146 O 0.21404 0.33534 0.40227 0.0
C147 C 0.15243 0.32947 0.44523 0.0
C148 C 0.11363 0.31524 0.39219 0.0
O149 O 0.14145 0.34574 0.3949 0.0
O150 O 0.10948 0.28746 0.39976 0.0
C151 C 0.21796 0.43678 0.4133 0.0
O152 O 0.19053 0.42979 0.42298 0.0
C153 C 0.21158 0.30452 0.403 0.0
Zn154 Zn 0.85703 0.14639 0.58009 0.0
Zn155 Zn 0.82563 0.18541 0.57463 0.0
O156 O 0.81186 0.16797 0.59891 0.0
O157 O 0.84146 0.13926 0.60387 0.0
O158 O 0.80722 0.22008 0.57124 0.0
O159 O 0.90595 0.18635 0.57336 0.0
O160 O 0.8797 0.21824 0.56854 0.0
C161 C 0.82069 0.1504 0.60876 0.0
C162 C 0.80104 0.11711 0.55483 0.0
O163 O 0.79818 0.14471 0.55785 0.0
O164 O 0.82371 0.11201 0.5627 0.0
C165 C 0.77935 0.21785 0.578 0.0
O166 O 0.75911 0.19022 0.58761 0.0
C167 C 0.90793 0.21533 0.56851 0.0
H168 H 0.2601 0.75839 0.09633 0.0
H169 H 0.26806 0.70582 0.09454 0.0
H170 H 0.17721 0.6549 0.06153 0.0
H171 H 0.16945 0.70732 0.063 0.0
H172 H 0.22085 0.63655 0.10361 0.0
H173 H 0.25238 0.64183 0.03702 0.0
H174 H 0.25363 0.67923 0.04772 0.0
H175 H 0.2114 0.6426 0.04056 0.0
C176 C 0.24206 0.73616 0.08855 0.0
C177 C 0.21422 0.73717 0.07976 0.0
C178 C 0.24663 0.70612 0.08756 0.0
C179 C 0.22362 0.67666 0.07769 0.0
C180 C 0.19587 0.67765 0.0689 0.0
H181 H 0.15905 0.45399 0.08504 0.0
H182 H 0.16824 0.51456 0.08746 0.0
C183 C 0.19132 0.70762 0.06985 0.0
C184 C 0.22715 0.64397 0.07722 0.0
H185 H 0.23301 0.58534 0.05078 0.0
C186 C 0.22399 0.62559 0.09208 0.0
C187 C 0.23188 0.62996 0.06223 0.0
C188 C 0.23791 0.64964 0.046 0.0
C189 C 0.2237 0.59274 0.09225 0.0
C190 C 0.22591 0.57751 0.07713 0.0
C191 C 0.23084 0.59675 0.06236 0.0
C192 C 0.22133 0.5409 0.07624 0.0
C193 C 0.22089 0.57464 0.10865 0.0
C194 C 0.24776 0.53534 0.06878 0.0
C195 C 0.24243 0.50054 0.06721 0.0
C196 C 0.21043 0.47062 0.073 0.0
C197 C 0.18412 0.47637 0.08054 0.0
C198 C 0.18944 0.51108 0.08205 0.0
H199 H 0.23127 0.59444 0.11888 0.0
H200 H 0.19212 0.55511 0.11131 0.0
H201 H 0.23607 0.55992 0.10851 0.0
H202 H 0.27247 0.55794 0.06409 0.0
H203 H 0.2632 0.49708 0.06131 0.0
H204 H 0.70152 0.16616 0.2543 0.0
H205 H 0.649 0.17433 0.25447 0.0
H206 H 0.70488 0.26695 0.22258 0.0
H207 H 0.75756 0.25879 0.22216 0.0
H208 H 0.64155 0.23399 0.26387 0.0
H209 H 0.61132 0.20079 0.19728 0.0
H210 H 0.64206 0.19142 0.20858 0.0
H211 H 0.65607 0.23648 0.20192 0.0
C212 C 0.7028 0.18841 0.24737 0.0
C213 C 0.73368 0.21164 0.23809 0.0
C214 C 0.67274 0.19306 0.24751 0.0
C215 C 0.67285 0.2209 0.23834 0.0
C216 C 0.70402 0.2449 0.22951 0.0
H217 H 0.49002 0.25386 0.21833 0.0
H218 H 0.5513 0.26327 0.22009 0.0
C219 C 0.73416 0.24028 0.22935 0.0
C220 C 0.63985 0.22396 0.23775 0.0
H221 H 0.57258 0.21475 0.21201 0.0
C222 C 0.62656 0.23002 0.25252 0.0
C223 C 0.62045 0.21891 0.22291 0.0
C224 C 0.63292 0.21126 0.20677 0.0
C225 C 0.59412 0.23075 0.25288 0.0
C226 C 0.57411 0.22453 0.23814 0.0
C227 C 0.58797 0.21953 0.22329 0.0
C228 C 0.53768 0.22075 0.23799 0.0
C229 C 0.58164 0.23823 0.26906 0.0
C230 C 0.50967 0.19369 0.24742 0.0
C231 C 0.47472 0.18829 0.24648 0.0
C232 C 0.4669 0.20962 0.23593 0.0
C233 C 0.49509 0.23699 0.2266 0.0
C234 C 0.53013 0.2424 0.22758 0.0
H235 H 0.60463 0.25353 0.27759 0.0
H236 H 0.56744 0.25363 0.26711 0.0
H237 H 0.56269 0.21233 0.27516 0.0
H238 H 0.51461 0.17605 0.25522 0.0
H239 H 0.45367 0.16684 0.25377 0.0
H240 H 0.49173 0.76238 0.39291 0.0
H241 H 0.42993 0.71169 0.39519 0.0
H242 H 0.46912 0.65016 0.42114 0.0
H243 H 0.53061 0.70065 0.41922 0.0
H244 H 0.40293 0.64459 0.38252 0.0
H245 H 0.38605 0.63512 0.45042 0.0
H246 H 0.4222 0.67399 0.44026 0.0
H247 H 0.42602 0.6347 0.44414 0.0
C248 C 0.48713 0.73822 0.39929 0.0
C249 C 0.51614 0.73564 0.40592 0.0
C250 C 0.4518 0.70927 0.40056 0.0
C251 C 0.44481 0.67733 0.40857 0.0
C252 C 0.4737 0.67482 0.41528 0.0
H253 H 0.27996 0.45949 0.39549 0.0
H254 H 0.33191 0.52006 0.39376 0.0
C255 C 0.50894 0.7037 0.41406 0.0
C256 C 0.40777 0.6457 0.40904 0.0
H257 H 0.34534 0.58231 0.43507 0.0
C258 C 0.39009 0.63126 0.39403 0.0
C259 C 0.39069 0.62863 0.42405 0.0
C260 C 0.40706 0.64414 0.44063 0.0
C261 C 0.35668 0.59921 0.39359 0.0
C262 C 0.3409 0.58075 0.40853 0.0
C263 C 0.35765 0.59619 0.42359 0.0
C264 C 0.3082 0.54447 0.4088 0.0
C265 C 0.33877 0.58534 0.37709 0.0
C266 C 0.27772 0.5378 0.41808 0.0
C267 C 0.24795 0.50298 0.41924 0.0
C268 C 0.24826 0.47414 0.41121 0.0
C269 C 0.27868 0.48105 0.40176 0.0
C270 C 0.30837 0.51578 0.40065 0.0
H271 H 0.34749 0.60752 0.36792 0.0
H272 H 0.34662 0.56609 0.37222 0.0
H273 H 0.30892 0.57123 0.37821 0.0
H274 H 0.27711 0.5595 0.42457 0.0
H275 H 0.22501 0.49859 0.42665 0.0
H276 H 0.71794 0.485 0.55713 0.0
H277 H 0.709 0.42416 0.5595 0.0
H278 H 0.80993 0.46615 0.58551 0.0
H279 H 0.81874 0.52666 0.58351 0.0
H280 H 0.75097 0.39902 0.54698 0.0
H281 H 0.74343 0.38263 0.61492 0.0
H282 H 0.73947 0.41792 0.60467 0.0
H283 H 0.78324 0.42307 0.60855 0.0
C284 C 0.73802 0.48122 0.56354 0.0
C285 C 0.769 0.51073 0.57018 0.0
C286 C 0.73287 0.44643 0.56486 0.0
C287 C 0.75849 0.44049 0.57292 0.0
C288 C 0.78933 0.46989 0.57962 0.0
H289 H 0.8179 0.27999 0.56024 0.0
H290 H 0.80774 0.33091 0.55847 0.0
C291 C 0.79444 0.50458 0.57835 0.0
C292 C 0.75437 0.40404 0.57349 0.0
H293 H 0.75727 0.343 0.59968 0.0
C294 C 0.75183 0.38652 0.55852 0.0
C295 C 0.75484 0.38739 0.58855 0.0
C296 C 0.755 0.40355 0.60508 0.0
C297 C 0.75159 0.35372 0.55817 0.0
C298 C 0.75471 0.33839 0.57316 0.0
C299 C 0.75537 0.35497 0.58817 0.0
C300 C 0.75935 0.30636 0.57351 0.0
C301 C 0.74823 0.33592 0.54171 0.0
C302 C 0.73589 0.27576 0.58282 0.0
C303 C 0.74183 0.24658 0.58399 0.0
C304 C 0.77148 0.24759 0.57596 0.0
C305 C 0.79466 0.27816 0.56651 0.0
C306 C 0.78875 0.30727 0.56538 0.0
H307 H 0.73439 0.34407 0.5325 0.0
H308 H 0.77559 0.34433 0.53686 0.0
H309 H 0.7331 0.30616 0.5429 0.0
H310 H 0.71317 0.27459 0.58929 0.0
H311 H 0.72351 0.22352 0.5914 0.0
H312 H 0.49631 0.73299 0.7645 0.0
H313 H 0.43603 0.72629 0.76354 0.0
H314 H 0.47296 0.81047 0.7268 0.0
H315 H 0.53293 0.817 0.72748 0.0
H316 H 0.41827 0.77801 0.77103 0.0
H317 H 0.37962 0.73294 0.7065 0.0
H318 H 0.41673 0.73213 0.71669 0.0
H319 H 0.42261 0.77335 0.70796 0.0
C320 C 0.49149 0.74977 0.75606 0.0
C321 C 0.51948 0.77548 0.74604 0.0
C322 C 0.45702 0.74591 0.75554 0.0
C323 C 0.44981 0.76748 0.74492 0.0
C324 C 0.47761 0.79292 0.7348 0.0
H325 H 0.28636 0.82363 0.72855 0.0
H326 H 0.33861 0.81503 0.72819 0.0
C327 C 0.51201 0.79678 0.7353 0.0
C328 C 0.41403 0.76523 0.74515 0.0
H329 H 0.34492 0.75478 0.72032 0.0
C330 C 0.40196 0.77242 0.76001 0.0
C331 C 0.3928 0.75799 0.73074 0.0
C332 C 0.4034 0.74831 0.71461 0.0
C333 C 0.37003 0.77409 0.7607 0.0
C334 C 0.34929 0.76777 0.74619 0.0
C335 C 0.36089 0.75969 0.73142 0.0
C336 C 0.31649 0.77128 0.74591 0.0
C337 C 0.35957 0.78407 0.77681 0.0
C338 C 0.28632 0.749 0.75573 0.0
C339 C 0.25635 0.7539 0.75602 0.0
C340 C 0.25593 0.78106 0.74639 0.0
C341 C 0.28577 0.80254 0.73617 0.0
C342 C 0.31569 0.79765 0.73592 0.0
H343 H 0.38232 0.79578 0.78571 0.0
H344 H 0.35028 0.80371 0.7747 0.0
H345 H 0.33705 0.7596 0.78254 0.0
H346 H 0.28607 0.728 0.76329 0.0
H347 H 0.23374 0.73671 0.76394 0.0
H348 H 0.48283 0.23665 0.87753 0.0
H349 H 0.54163 0.29194 0.87689 0.0
H350 H 0.50821 0.33472 0.91691 0.0
H351 H 0.44935 0.27988 0.91754 0.0
H352 H 0.53652 0.38112 0.89007 0.0
H353 H 0.62726 0.32973 0.909 0.0
H354 H 0.59757 0.30611 0.89214 0.0
H355 H 0.57905 0.30451 0.91226 0.0
C356 C 0.48813 0.25764 0.88633 0.0
C357 C 0.46132 0.25384 0.89757 0.0
C358 C 0.52184 0.28915 0.886 0.0
C359 C 0.52941 0.3173 0.89696 0.0
C360 C 0.50296 0.31328 0.90838 0.0
H361 H 0.72745 0.51344 0.91911 0.0
H362 H 0.67478 0.45285 0.91904 0.0
C363 C 0.46931 0.28187 0.90872 0.0
C364 C 0.56391 0.35192 0.89587 0.0
H365 H 0.65531 0.39042 0.89983 0.0
C366 C 0.5625 0.38315 0.89219 0.0
C367 C 0.59771 0.35451 0.89878 0.0
C368 C 0.60067 0.32202 0.90341 0.0
C369 C 0.59396 0.41693 0.8913 0.0
C370 C 0.62785 0.41948 0.89389 0.0
C371 C 0.62931 0.38829 0.89767 0.0
C372 C 0.66183 0.45463 0.89335 0.0
C373 C 0.59055 0.44973 0.88799 0.0
C374 C 0.67265 0.47526 0.87878 0.0
C375 C 0.70267 0.50995 0.87877 0.0
C376 C 0.72255 0.52457 0.89333 0.0
C377 C 0.71266 0.50309 0.9077 0.0
C378 C 0.6826 0.46842 0.90769 0.0
H379 H 0.5626 0.44427 0.89011 0.0
H380 H 0.60918 0.47246 0.89596 0.0
H381 H 0.59775 0.45816 0.87491 0.0
H382 H 0.65736 0.46483 0.8675 0.0
H383 H 0.70969 0.52561 0.86746 0.0
H384 H 0.26103 0.16279 0.19238 0.0
H385 H 0.25773 0.20088 0.17087 0.0
H386 H 0.36297 0.28717 0.18443 0.0
H387 H 0.36682 0.24879 0.20615 0.0
H388 H 0.2823 0.28906 0.1815 0.0
H389 H 0.34016 0.25361 0.12812 0.0
H390 H 0.3138 0.21867 0.14293 0.0
H391 H 0.3562 0.25616 0.14903 0.0
C392 C 0.28368 0.18976 0.19078 0.0
C393 C 0.31412 0.20284 0.20104 0.0
C394 C 0.28173 0.21144 0.17845 0.0
C395 C 0.31003 0.24672 0.17615 0.0
C396 C 0.34091 0.2599 0.18607 0.0
H397 H 0.24188 0.36687 0.10976 0.0
H398 H 0.28114 0.36034 0.12996 0.0
C399 C 0.34308 0.23796 0.1984 0.0
C400 C 0.30559 0.26948 0.16373 0.0
H401 H 0.30232 0.27798 0.12198 0.0
C402 C 0.28764 0.2878 0.16849 0.0
C403 C 0.3125 0.26739 0.14685 0.0
C404 C 0.33191 0.24808 0.14131 0.0
C405 C 0.27369 0.30159 0.15665 0.0
C406 C 0.27832 0.2972 0.13966 0.0
C407 C 0.29883 0.28135 0.135 0.0
C408 C 0.25702 0.30285 0.12676 0.0
C409 C 0.25154 0.31796 0.16238 0.0
C410 C 0.23114 0.27294 0.11801 0.0
C411 C 0.20899 0.27656 0.10649 0.0
C412 C 0.21213 0.31027 0.1034 0.0
C413 C 0.23861 0.34049 0.11193 0.0
C414 C 0.26098 0.33681 0.1235 0.0
H415 H 0.24681 0.31519 0.17594 0.0
H416 H 0.26585 0.34701 0.15921 0.0
H417 H 0.22501 0.30507 0.15604 0.0
H418 H 0.22751 0.24646 0.12035 0.0
H419 H 0.18904 0.25268 0.10016 0.0
H420 H 0.86152 0.23761 0.28195 0.0
H421 H 0.90285 0.27369 0.30412 0.0
H422 H 0.97269 0.23154 0.292 0.0
H423 H 0.93239 0.1963 0.26987 0.0
H424 H 0.92138 0.24964 0.33126 0.0
H425 H 0.04482 0.33716 0.29571 0.0
H426 H 0.00111 0.31234 0.28603 0.0
H427 H 0.02762 0.29115 0.29004 0.0
C428 C 0.88596 0.23649 0.28388 0.0
C429 C 0.89363 0.21409 0.2741 0.0
C430 C 0.90954 0.25711 0.29654 0.0
C431 C 0.94126 0.2559 0.2995 0.0
C432 C 0.94898 0.23379 0.28966 0.0
H433 H 0.05341 0.2536 0.38275 0.0
H434 H 0.01036 0.24626 0.3614 0.0
C435 C 0.92561 0.21331 0.27707 0.0
C436 C 0.96504 0.27497 0.3137 0.0
H437 H 0.05402 0.32396 0.32408 0.0
C438 C 0.9503 0.26662 0.32969 0.0
C439 C 0.00269 0.29787 0.31172 0.0
C440 C 0.01988 0.31046 0.29492 0.0
C441 C 0.97254 0.27797 0.3437 0.0
C442 C 0.01047 0.2974 0.34162 0.0
C443 C 0.02498 0.30844 0.3257 0.0
C444 C 0.03547 0.30297 0.35547 0.0
C445 C 0.95513 0.26811 0.36057 0.0
C446 C 0.06462 0.33726 0.35901 0.0
C447 C 0.08979 0.34155 0.37116 0.0
C448 C 0.08633 0.31154 0.37988 0.0
C449 C 0.05687 0.27736 0.37637 0.0
C450 C 0.03192 0.27312 0.36425 0.0
H451 H 0.92828 0.26623 0.36042 0.0
H452 H 0.95091 0.24134 0.36423 0.0
H453 H 0.97219 0.28804 0.37003 0.0
H454 H 0.06812 0.36063 0.35226 0.0
H455 H 0.11219 0.36824 0.37353 0.0
H456 H 0.80403 0.05828 0.54476 0.0
H457 H 0.77001 0.01655 0.52283 0.0
H458 H 0.71277 0.07379 0.51372 0.0
H459 H 0.74757 0.11661 0.53563 0.0
H460 H 0.6972 0.97109 0.51884 0.0
H461 H 0.75352 0.07301 0.46821 0.0
H462 H 0.77237 0.08223 0.48873 0.0
H463 H 0.73079 0.08157 0.48473 0.0
C464 C 0.78421 0.06214 0.53816 0.0
C465 C 0.77877 0.09105 0.54189 0.0
C466 C 0.76464 0.03809 0.52563 0.0
C467 C 0.7391 0.04222 0.51651 0.0
C468 C 0.7328 0.07046 0.52042 0.0
H469 H 0.62317 0.86631 0.44421 0.0
H470 H 0.63106 0.90931 0.46597 0.0
C471 C 0.7526 0.0948 0.53298 0.0
C472 C 0.72034 0.01721 0.50267 0.0
H473 H 0.71751 0.01277 0.46054 0.0
C474 C 0.70105 0.98014 0.50608 0.0
C475 C 0.72555 0.02918 0.48605 0.0
C476 C 0.74685 0.06861 0.4816 0.0
C477 C 0.68871 0.95467 0.49334 0.0
C478 C 0.69517 0.96665 0.47671 0.0
C479 C 0.71254 0.0037 0.4733 0.0
C480 C 0.68895 0.9417 0.46285 0.0
C481 C 0.67109 0.91528 0.4978 0.0
C482 C 0.71863 0.94626 0.45356 0.0
C483 C 0.7142 0.92211 0.4411 0.0
C484 C 0.67993 0.89266 0.43762 0.0
C485 C 0.64997 0.88853 0.44667 0.0
C486 C 0.65444 0.91298 0.45914 0.0
H487 H 0.6738 0.91101 0.51116 0.0
H488 H 0.64191 0.90192 0.49485 0.0
H489 H 0.68309 0.90196 0.49054 0.0
H490 H 0.74551 0.96819 0.4562 0.0
H491 H 0.7379 0.92627 0.43439 0.0
H492 H 0.73571 0.61299 0.60652 0.0
H493 H 0.69718 0.61862 0.62736 0.0
H494 H 0.75126 0.73307 0.6186 0.0
H495 H 0.78897 0.72768 0.5977 0.0
H496 H 0.71757 0.65444 0.65561 0.0
H497 H 0.64841 0.71039 0.61923 0.0
H498 H 0.67166 0.68982 0.60961 0.0
H499 H 0.696 0.73651 0.61553 0.0
C500 C 0.73899 0.63927 0.60888 0.0
C501 C 0.76545 0.66988 0.60041 0.0
C502 C 0.7169 0.64241 0.62076 0.0
C503 C 0.72073 0.67615 0.6243 0.0
C504 C 0.7469 0.70658 0.61574 0.0
H505 H 0.72884 0.78496 0.70825 0.0
H506 H 0.73096 0.74781 0.68633 0.0
C507 C 0.76881 0.70348 0.60388 0.0
C508 C 0.70042 0.68074 0.63805 0.0
H509 H 0.65882 0.7281 0.64842 0.0
C510 C 0.70385 0.66971 0.65397 0.0
C511 C 0.68158 0.69977 0.63597 0.0
C512 C 0.67385 0.70938 0.6191 0.0
C513 C 0.69219 0.68032 0.66795 0.0
C514 C 0.67754 0.70322 0.66596 0.0
C515 C 0.67075 0.71116 0.64998 0.0
C516 C 0.6744 0.72345 0.68007 0.0
C517 C 0.69713 0.66813 0.68477 0.0
C518 C 0.64198 0.72287 0.68365 0.0
C519 C 0.64069 0.74458 0.69625 0.0
C520 C 0.67195 0.76748 0.70526 0.0
C521 C 0.70418 0.76766 0.70163 0.0
C522 C 0.70539 0.74607 0.68916 0.0
H523 H 0.69495 0.64129 0.68408 0.0
H524 H 0.72448 0.68739 0.68942 0.0
H525 H 0.67687 0.66675 0.69377 0.0
H526 H 0.61785 0.70592 0.67661 0.0
H527 H 0.61549 0.74391 0.6987 0.0
H528 H 0.92486 0.73916 0.87892 0.0
H529 H 0.9717 0.74855 0.85918 0.0
H530 H 0.92466 0.63389 0.85377 0.0
H531 H 0.87688 0.62407 0.87348 0.0
H532 H 0.02224 0.72545 0.86089 0.0
H533 H 0.933 0.66961 0.80589 0.0
H534 H 0.9179 0.68054 0.82467 0.0
H535 H 0.92213 0.64107 0.82381 0.0
C536 C 0.92426 0.71581 0.87355 0.0
C537 C 0.89694 0.68083 0.87775 0.0
C538 C 0.9512 0.72127 0.86229 0.0
C539 C 0.95157 0.69196 0.85493 0.0
C540 C 0.92459 0.65691 0.85914 0.0
H541 H 0.11086 0.74004 0.77439 0.0
H542 H 0.06934 0.70393 0.79685 0.0
C543 C 0.89739 0.65136 0.87044 0.0
C544 C 0.98031 0.69901 0.84276 0.0
H545 H -0.00457 0.69947 0.80128 0.0
C546 C 0.01638 0.71908 0.8479 0.0
C547 C 0.97263 0.69047 0.82583 0.0
C548 C 0.93438 0.66942 0.8196 0.0
C549 C 0.04484 0.73286 0.83644 0.0
C550 C 0.03699 0.7265 0.81944 0.0
C551 C 0.00122 0.70414 0.81437 0.0
C552 C 0.06436 0.74795 0.80676 0.0
C553 C 0.08301 0.75579 0.84247 0.0
C554 C 0.07518 0.78444 0.80502 0.0
C555 C 0.09823 0.80477 0.79221 0.0
C556 C 0.11123 0.78913 0.78092 0.0
C557 C 0.10139 0.7528 0.78298 0.0
C558 C 0.07768 0.73218 0.79573 0.0
H559 H 0.0856 0.75049 0.85571 0.0
H560 H 0.10199 0.75095 0.83504 0.0
H561 H 0.09105 0.78458 0.84112 0.0
H562 H 0.06489 0.79696 0.81332 0.0
H563 H 0.10544 0.83272 0.791 0.0
H564 H 0.25184 0.86779 0.03614 0.0
H565 H 0.29275 0.9096 0.01495 0.0
H566 H 0.25036 0.98038 0.024 0.0
H567 H 0.21053 0.93978 0.04509 0.0
H568 H 0.27445 0.92867 0.98674 0.0
H569 H 0.35585 0.05219 0.02208 0.0
H570 H 0.33005 0.00886 0.03206 0.0
H571 H 0.30933 0.0354 0.027 0.0
C572 C 0.25177 0.89259 0.03377 0.0
C573 C 0.22785 0.90037 0.04231 0.0
C574 C 0.27518 0.91646 0.0217 0.0
C575 C 0.27529 0.9486 0.01815 0.0
C576 C 0.25176 0.95644 0.02686 0.0
H577 H 0.259 0.04943 0.93741 0.0
H578 H 0.26055 0.0094 0.95814 0.0
C579 C 0.22854 0.93282 0.03883 0.0
C580 C 0.29642 0.97233 0.00416 0.0
H581 H 0.34104 0.06118 -0.00652 0.0
C582 C 0.29003 0.95761 0.98824 0.0
C583 C 0.3178 0.01006 0.00601 0.0
C584 C 0.32897 0.0274 0.02276 0.0
C585 C 0.30065 0.97979 0.97416 0.0
C586 C 0.31716 0.01751 0.9761 0.0
C587 C 0.32751 0.03225 -0.00805 0.0
C588 C 0.31807 0.04115 0.96244 0.0
C589 C 0.29235 0.96247 0.95735 0.0
C590 C 0.34978 0.07314 0.95822 0.0
C591 C 0.34892 0.09667 0.94636 0.0
C592 C 0.31623 0.08869 0.93872 0.0
C593 C 0.28472 0.0565 0.94296 0.0
C594 C 0.28562 0.03321 0.95471 0.0
H595 H 0.29437 0.93766 0.95753 0.0
H596 H 0.26423 0.95452 0.95394 0.0
H597 H 0.3109 0.98102 0.94773 0.0
H598 H 0.37504 0.08007 0.96422 0.0
H599 H 0.37364 0.12127 0.9434 0.0
H600 H 0.13245 0.27887 0.01241 0.0
H601 H 0.16393 0.27924 0.98722 0.0
H602 H 0.25586 0.38026 0.00137 0.0
H603 H 0.22431 0.3801 0.02679 0.0
H604 H 0.20182 0.33096 0.95999 0.0
H605 H 0.29084 0.30469 0.00111 0.0
H606 H 0.24891 0.30001 0.00847 0.0
H607 H 0.28698 0.34391 0.00484 0.0
C608 C 0.159 0.30167 0.00998 0.0
C609 C 0.17609 0.32924 0.02167 0.0
C610 C 0.17693 0.30188 -0.00445 0.0
C611 C 0.21238 0.32948 -0.00743 0.0
C612 C 0.22858 0.35856 0.00355 0.0
H613 H 0.3402 0.27114 0.92833 0.0
H614 H 0.327 0.3116 0.94431 0.0
C615 C 0.21045 0.35853 0.018 0.0
C616 C 0.2332 0.32478 0.97915 0.0
H617 H 0.29216 0.29432 0.97293 0.0
C618 C 0.22222 0.32377 0.96273 0.0
C619 C 0.25994 0.3156 0.98275 0.0
C620 C 0.27244 0.31587 0.00022 0.0
C621 C 0.23589 0.31194 0.94994 0.0
C622 C 0.26038 0.29987 0.95376 0.0
C623 C 0.27329 0.30342 0.96999 0.0
C624 C 0.26903 0.27895 0.94187 0.0
C625 C 0.22315 0.31156 0.93253 0.0
C626 C 0.24092 0.24736 0.93502 0.0
C627 C 0.24835 0.22433 0.92588 0.0
C628 C 0.2841 0.23206 0.92354 0.0
C629 C 0.31237 0.26438 0.92988 0.0
C630 C 0.30487 0.28754 0.93902 0.0
H631 H 0.21718 0.33369 0.93059 0.0
H632 H 0.24349 0.31424 0.92326 0.0
H633 H 0.19778 0.28583 0.9304 0.0
H634 H 0.21303 0.23948 0.93742 0.0
H635 H 0.22587 0.19968 0.92123 0.0
H636 H 0.85543 0.14096 0.18135 0.0
H637 H 0.8849 0.17313 0.15595 0.0
H638 H 0.86979 0.26121 0.17039 0.0
H639 H 0.83976 0.22887 0.19595 0.0
H640 H 0.86448 0.21135 0.12903 0.0
H641 H 0.9834 0.29805 0.16852 0.0
H642 H 0.94834 0.25463 0.17572 0.0
H643 H 0.93959 0.2912 0.174 0.0
C644 C 0.85754 0.16679 0.17896 0.0
C645 C 0.84561 0.18255 0.19072 0.0
C646 C 0.87428 0.18507 0.16441 0.0
C647 C 0.87975 0.2196 0.1614 0.0
C648 C 0.86581 0.23456 0.17255 0.0
H649 H 0.06222 0.34902 0.09542 0.0
H650 H 0.00964 0.33604 0.11244 0.0
C651 C 0.84859 0.21601 0.18709 0.0
C652 C 0.904 0.24104 0.1477 0.0
H653 H -0.00697 0.29953 0.14006 0.0
C654 C 0.89242 0.23131 0.13136 0.0
C655 C 0.94029 0.26727 0.1508 0.0
C656 C 0.95397 0.27856 0.16818 0.0
C657 C 0.91677 0.24573 0.11806 0.0
C658 C 0.9538 0.26953 0.12129 0.0
C659 C 0.96473 0.28121 0.13755 0.0
C660 C 0.9823 0.27849 0.10862 0.0
C661 C 0.90265 0.23455 0.10076 0.0
C662 C 0.98424 0.25063 0.10057 0.0
C663 C 0.01403 0.25795 0.0908 0.0
C664 C 0.04299 0.29332 0.08904 0.0
C665 C 0.04041 0.32147 0.09651 0.0
C666 C 0.01036 0.3141 0.10625 0.0
H667 H 0.87469 0.22974 0.09971 0.0
H668 H 0.91993 0.25516 0.09148 0.0
H669 H 0.90175 0.20891 0.09781 0.0
H670 H 0.96364 0.22285 0.10256 0.0
H671 H 0.01505 0.23556 0.08527 0.0
H672 H 0.70586 0.0616 0.26039 0.0
H673 H 0.66565 0.00808 0.27677 0.0
H674 H 0.74057 0.96924 0.27151 0.0
H675 H 0.77994 0.0215 0.25474 0.0
H676 H 0.67163 0.91438 0.27061 0.0
H677 H 0.69082 0.00315 0.32426 0.0
H678 H 0.67008 0.00969 0.30632 0.0
H679 H 0.71633 0.02025 0.30541 0.0
C680 C 0.71342 0.04132 0.26249 0.0
C681 C 0.74642 0.04616 0.25646 0.0
C682 C 0.69051 0.01085 0.27194 0.0
C683 C 0.70053 0.98508 0.27574 0.0
C684 C 0.7323 0.9888 0.26883 0.0
H685 H 0.70314 0.84551 0.3439 0.0
H686 H 0.70052 0.87539 0.31867 0.0
C687 C 0.75491 0.01889 0.25927 0.0
C688 C 0.68024 0.95583 0.28797 0.0
H689 H 0.66289 0.94156 0.32935 0.0
C690 C 0.66905 0.92023 0.2834 0.0
C691 C 0.67672 0.96338 0.30468 0.0
C692 C 0.6893 0.00115 0.31056 0.0
C693 C 0.65662 0.8925 0.29522 0.0
C694 C 0.65538 0.90059 0.31202 0.0
C695 C 0.6638 0.93548 0.31642 0.0
C696 C 0.65165 0.87545 0.32549 0.0
C697 C 0.64641 0.85508 0.28977 0.0
C698 C 0.62459 0.86484 0.33757 0.0
C699 C 0.62586 0.84737 0.35201 0.0
C700 C 0.65474 0.84114 0.35471 0.0
C701 C 0.6806 0.85 0.34216 0.0
C702 C 0.67899 0.86687 0.32768 0.0
H703 H 0.63765 0.85057 0.27665 0.0
H704 H 0.67025 0.85148 0.29089 0.0
H705 H 0.62442 0.83442 0.2976 0.0
H706 H 0.6035 0.8716 0.33618 0.0
H707 H 0.60573 0.84109 0.36153 0.0
H708 H 0.845 0.70026 0.50894 0.0
H709 H 0.81302 0.69764 0.48357 0.0
H710 H 0.72298 0.596 0.49901 0.0
H711 H 0.75509 0.59831 0.52456 0.0
H712 H 0.7739 0.64163 0.45699 0.0
H713 H 0.68768 0.67252 0.4977 0.0
H714 H 0.73052 0.67895 0.5047 0.0
H715 H 0.69283 0.63436 0.50251 0.0
C716 C 0.81881 0.67684 0.50675 0.0
C717 C 0.80237 0.6497 0.51881 0.0
C718 C 0.80062 0.67533 0.49222 0.0
C719 C 0.76553 0.64685 0.48953 0.0
C720 C 0.75003 0.61827 0.50093 0.0
H721 H 0.63665 0.70405 0.42579 0.0
H722 H 0.64932 0.66319 0.4419 0.0
C723 C 0.76846 0.61956 0.51546 0.0
C724 C 0.74407 0.65033 0.47606 0.0
H725 H 0.68572 0.68131 0.46936 0.0
C726 C 0.75393 0.64945 0.45961 0.0
C727 C 0.71785 0.66025 0.47953 0.0
C728 C 0.70648 0.66178 0.49704 0.0
C729 C 0.73966 0.66019 0.44659 0.0
C730 C 0.71587 0.67322 0.4502 0.0
C731 C 0.70403 0.67148 0.46655 0.0
C732 C 0.70707 0.69351 0.4379 0.0
C733 C 0.75102 0.65833 0.42915 0.0
C734 C 0.73516 0.72378 0.43002 0.0
C735 C 0.728 0.74695 0.42074 0.0
C736 C 0.6926 0.74081 0.41935 0.0
C737 C 0.66423 0.70961 0.42662 0.0
C738 C 0.67143 0.68622 0.43584 0.0
H739 H 0.75571 0.63527 0.42772 0.0
H740 H 0.73048 0.65563 0.42001 0.0
H741 H 0.77685 0.6832 0.42633 0.0
H742 H 0.76298 0.73075 0.43179 0.0
H743 H 0.75056 0.77072 0.41537 0.0
H744 H 0.07627 0.81233 0.69987 0.0
H745 H 0.04617 0.78551 0.67411 0.0
H746 H 0.13492 0.77066 0.65971 0.0
H747 H 0.16505 0.79668 0.68613 0.0
H748 H 0.06816 0.80969 0.64372 0.0
H749 H 0.04921 0.67226 0.65014 0.0
H750 H 0.06288 0.70318 0.66722 0.0
H751 H 0.09485 0.70891 0.65142 0.0
C752 C 0.08954 0.80335 0.6913 0.0
C753 C 0.12321 0.80683 0.69504 0.0
C754 C 0.0722 0.78793 0.67653 0.0
C755 C 0.0881 0.77586 0.66496 0.0
C756 C 0.12179 0.77918 0.66857 0.0
H757 H 0.97079 0.73209 0.57115 0.0
H758 H 0.02311 0.75277 0.58935 0.0
C759 C 0.13909 0.79427 0.6836 0.0
C760 C 0.06914 0.76109 0.64906 0.0
H761 H 0.02426 0.68382 0.62662 0.0
C762 C 0.05889 0.78227 0.63985 0.0
C763 C 0.057 0.72529 0.64409 0.0
C764 C 0.06624 0.70087 0.65375 0.0
C765 C 0.03501 0.76815 0.62652 0.0
C766 C 0.02232 0.73212 0.62164 0.0
C767 C 0.03414 0.71145 0.63029 0.0
C768 C -0.00626 0.7145 0.60889 0.0
C769 C 0.02171 0.79136 0.61866 0.0
C770 C 0.96072 0.68396 0.61312 0.0
C771 C 0.93117 0.67127 0.60247 0.0
C772 C 0.934 0.68932 0.58753 0.0
C773 C 0.96778 0.71802 0.58271 0.0
C774 C -0.00242 0.73003 0.59317 0.0
H775 H 0.02709 0.81464 0.62654 0.0
H776 H 0.0359 0.80217 0.60672 0.0
H777 H 0.99226 0.77563 0.61627 0.0
H778 H 0.95709 0.67128 0.62512 0.0
H779 H 0.90544 0.6491 0.6065 0.0
H780 H 0.37064 0.16745 0.85322 0.0
H781 H 0.3734 0.14508 0.82564 0.0
H782 H 0.25855 0.0718 0.82749 0.0
H783 H 0.25535 0.09461 0.85432 0.0
H784 H 0.35927 0.08074 0.81632 0.0
H785 H 0.26651 0.11027 0.7822 0.0
H786 H 0.2844 0.13019 0.80206 0.0
H787 H 0.24392 0.08674 0.80068 0.0
C788 C 0.34592 0.14712 0.84754 0.0
C789 C 0.31275 0.13303 0.85596 0.0
C790 C 0.34755 0.1343 0.83181 0.0
C791 C 0.31605 0.10731 0.82427 0.0
C792 C 0.28306 0.09351 0.8327 0.0
H793 H 0.26036 0.92082 0.77396 0.0
H794 H 0.29423 0.97543 0.78996 0.0
C795 C 0.28134 0.10644 0.8482 0.0
C796 C 0.31712 0.09087 0.8083 0.0
H797 H 0.26575 0.05471 0.77402 0.0
C798 C 0.33952 0.07582 0.8068 0.0
C799 C 0.29255 0.08556 0.79547 0.0
C800 C 0.27088 0.10451 0.79513 0.0
C801 C 0.33524 0.05257 0.79371 0.0
C802 C 0.30676 0.04289 0.78229 0.0
C803 C 0.28707 0.06104 0.78289 0.0
C804 C 0.29364 0.01124 0.7711 0.0
C805 C 0.36094 0.03826 0.79255 0.0
C806 C 0.28183 0.01255 0.75501 0.0
C807 C 0.26093 0.98089 0.74614 0.0
C808 C 0.2525 0.94745 0.75294 0.0
C809 C 0.26707 0.94635 0.76831 0.0
C810 C 0.28681 0.97782 0.77744 0.0
H811 H 0.38856 0.05926 0.79621 0.0
H812 H 0.3523 0.01542 0.80131 0.0
H813 H 0.36212 0.02912 0.77987 0.0
H814 H 0.28674 0.03783 0.74973 0.0
H815 H 0.24986 0.98236 0.73431 0.0
H816 H 0.61111 0.77532 0.79158 0.0
H817 H 0.60975 0.74858 0.81873 0.0
H818 H 0.72584 0.79949 0.81775 0.0
H819 H 0.72756 0.82694 0.79138 0.0
H820 H 0.63022 0.70178 0.82743 0.0
H821 H 0.71204 0.82418 0.86332 0.0
H822 H 0.69366 0.82552 0.84343 0.0
H823 H 0.73654 0.8271 0.84491 0.0
C824 C 0.63632 0.78134 0.79736 0.0
C825 C 0.66944 0.80352 0.78932 0.0
C826 C 0.6355 0.76596 0.81284 0.0
C827 C 0.66776 0.77267 0.8205 0.0
C828 C 0.70064 0.79485 0.81245 0.0
H829 H 0.73608 0.65031 0.87225 0.0
H830 H 0.70163 0.66886 0.85499 0.0
C831 C 0.70153 0.81035 0.7972 0.0
C832 C 0.66794 0.75485 0.83627 0.0
H833 H 0.71813 0.77215 0.87119 0.0
C834 C 0.6487 0.71713 0.83726 0.0
C835 C 0.69089 0.77465 0.84946 0.0
C836 C 0.70904 0.81511 0.85028 0.0
C837 C 0.65459 0.6988 0.85025 0.0
C838 C 0.68155 0.71872 0.86215 0.0
C839 C 0.69805 0.75644 0.86197 0.0
C840 C 0.69611 0.70186 0.8737 0.0
C841 C 0.63212 0.65835 0.85085 0.0
C842 C 0.70495 0.71409 0.89007 0.0
C843 C 0.72616 0.70471 0.89969 0.0
C844 C 0.73795 0.68197 0.89334 0.0
C845 C 0.72678 0.66739 0.87753 0.0
C846 C 0.70669 0.6778 0.86768 0.0
H847 H 0.60423 0.64924 0.84655 0.0
H848 H 0.64389 0.64672 0.84235 0.0
H849 H 0.63073 0.64762 0.86351 0.0
H850 H 0.69716 0.73254 0.89512 0.0
H851 H 0.73453 0.71633 0.91187 0.0
H852 H 0.85387 0.70913 0.96924 0.0
H853 H 0.88624 0.70908 -0.00597 0.0
H854 H 0.87611 0.60791 0.97965 0.0
H855 H 0.84341 0.60766 0.95466 0.0
H856 H 0.8719 0.6555 0.02118 0.0
H857 H 0.98748 0.68492 0.97949 0.0
H858 H 0.95029 0.69016 0.97257 0.0
H859 H 0.94416 0.64603 0.97547 0.0
C860 C 0.85774 0.68641 0.97151 0.0
C861 C 0.84645 0.6586 0.9599 0.0
C862 C 0.87615 0.68638 0.98572 0.0
C863 C 0.88391 0.65874 0.98854 0.0
C864 C 0.87052 0.6296 0.9776 0.0
H865 H 0.07122 0.71643 0.05191 0.0
H866 H 0.01751 0.6761 0.03585 0.0
C867 C 0.85172 0.62943 0.96339 0.0
C868 C 0.90964 0.66327 0.00181 0.0
H869 H -0.00066 0.69431 0.00772 0.0
C870 C 0.89961 0.66319 0.01832 0.0
C871 C 0.94568 0.67302 -0.00196 0.0
C872 C 0.95786 0.67376 0.98046 0.0
C873 C 0.92517 0.67449 0.03108 0.0
C874 C 0.96185 0.68718 0.02713 0.0
C875 C 0.97129 0.68473 0.01076 0.0
C876 C 0.99142 0.70776 0.03909 0.0
C877 C 0.91273 0.67362 0.0486 0.0
C878 C -0.00551 0.73872 0.04641 0.0
C879 C 0.02495 0.76165 0.05559 0.0
C880 C 0.05342 0.75448 0.0575 0.0
C881 C 0.04979 0.72273 0.0507 0.0
C882 C 0.0191 0.69965 0.04152 0.0
H883 H 0.88472 0.65105 0.05043 0.0
H884 H 0.93062 0.67078 0.05767 0.0
H885 H 0.91268 0.69896 0.05116 0.0
H886 H 0.97413 0.74624 0.04435 0.0
H887 H 0.02678 0.78584 0.06061 0.0
H888 H 0.20822 0.82228 0.12737 0.0
H889 H 0.23275 0.84509 0.15502 0.0
H890 H 0.1833 0.91137 0.15407 0.0
H891 H 0.1579 0.88804 0.12725 0.0
H892 H 0.27972 0.91036 0.16457 0.0
H893 H 0.15583 0.87202 0.19931 0.0
H894 H 0.15481 0.85285 0.17937 0.0
H895 H 0.15419 0.8945 0.18095 0.0
C896 C 0.20196 0.84108 0.13328 0.0
C897 C 0.1809 0.85313 0.1251 0.0
C898 C 0.21607 0.85417 0.14904 0.0
C899 C 0.20919 0.87934 0.15685 0.0
C900 C 0.18797 0.89101 0.14868 0.0
H901 H 0.33212 0.06967 0.2057 0.0
H902 H 0.31382 0.01497 0.19011 0.0
C903 C 0.17369 0.87781 0.13316 0.0
C904 C 0.22634 0.89641 0.1728 0.0
H905 H 0.20826 0.93061 0.20696 0.0
C906 C 0.26408 0.91401 0.17413 0.0
C907 C 0.20615 0.9001 0.18571 0.0
C908 C 0.16548 0.8784 0.18631 0.0
C909 C 0.28218 0.93823 0.18704 0.0
C910 C 0.26208 0.94632 0.19844 0.0
C911 C 0.22419 0.9256 0.19809 0.0
C912 C 0.27899 0.97867 0.2093 0.0
C913 C 0.32263 0.95524 0.18804 0.0
C914 C 0.2657 0.97718 0.22538 0.0
C915 C 0.27491 0.0088 0.23399 0.0
C916 C 0.29861 0.04245 0.22694 0.0
C917 C 0.31433 0.04398 0.21153 0.0
C918 C 0.30406 0.01249 0.20266 0.0
H919 H 0.33105 0.93549 0.1846 0.0
H920 H 0.33543 0.9778 0.17905 0.0
H921 H 0.33289 0.96544 0.20062 0.0
H922 H 0.24647 0.95163 0.23091 0.0
H923 H 0.26235 0.00702 0.24585 0.0
H924 H 0.25257 0.16998 0.28248 0.0
H925 H 0.2498 0.19679 0.30833 0.0
H926 H 0.35644 0.21746 0.32092 0.0
H927 H 0.36002 0.19159 0.2944 0.0
H928 H 0.25107 0.17574 0.33879 0.0
H929 H 0.36636 0.31448 0.32969 0.0
H930 H 0.34874 0.28221 0.31314 0.0
H931 H 0.37697 0.279 0.32868 0.0
C932 C 0.27557 0.18019 0.29068 0.0
C933 C 0.30652 0.17855 0.28637 0.0
C934 C 0.27393 0.19558 0.30551 0.0
C935 C 0.30298 0.20944 0.31657 0.0
C936 C 0.33395 0.20762 0.31245 0.0
H937 H 0.23325 0.2563 0.41072 0.0
H938 H 0.26499 0.23576 0.39252 0.0
C939 C 0.33586 0.19258 0.29736 0.0
C940 C 0.2995 0.22483 0.33242 0.0
H941 H 0.3318 0.30331 0.35387 0.0
C942 C 0.26895 0.20354 0.3422 0.0
C943 C 0.32282 0.26115 0.33681 0.0
C944 C 0.35544 0.28573 0.32651 0.0
C945 C 0.25963 0.21798 0.35555 0.0
C946 C 0.28262 0.2545 0.35986 0.0
C947 C 0.31433 0.27532 0.35064 0.0
C948 C 0.27185 0.27238 0.37254 0.0
C949 C 0.22383 0.19447 0.36404 0.0
C950 C 0.26832 0.30212 0.36803 0.0
C951 C 0.25149 0.31481 0.37868 0.0
C952 C 0.23732 0.29753 0.39388 0.0
C953 C 0.24352 0.26976 0.39896 0.0
C954 C 0.26133 0.2578 0.3885 0.0
H955 H 0.20578 0.17044 0.35658 0.0
H956 H 0.22848 0.18481 0.37602 0.0
H957 H 0.20955 0.2096 0.36645 0.0
H958 H 0.27647 0.31408 0.35584 0.0
H959 H 0.24704 0.33624 0.37444 0.0
H960 H 0.13535 0.28597 0.47217 0.0
H961 H 0.10597 0.28907 0.49744 0.0
H962 H 0.11678 0.38977 0.48123 0.0
H963 H 0.1466 0.38698 0.45577 0.0
H964 H 0.12279 0.34589 0.52361 0.0
H965 H 0.00492 0.31247 0.48294 0.0
H966 H 0.04151 0.30625 0.47604 0.0
H967 H 0.04817 0.35075 0.47793 0.0
C968 C 0.13239 0.30929 0.47416 0.0
C969 C 0.14288 0.33602 0.46191 0.0
C970 C 0.11571 0.31108 0.48864 0.0
C971 C 0.10888 0.33942 0.49109 0.0
C972 C 0.12174 0.36762 0.4795 0.0
H973 H 0.9219 0.2797 0.5547 0.0
H974 H 0.97534 0.32153 0.5387 0.0
C975 C 0.13887 0.36604 0.46501 0.0
C976 C 0.08394 0.33611 0.50454 0.0
H977 H -0.0057 0.30397 0.5113 0.0
C978 C 0.09485 0.3376 0.52099 0.0
C979 C 0.04762 0.32561 0.50108 0.0
C980 C 0.03454 0.32348 0.48357 0.0
C981 C 0.06984 0.32679 0.53405 0.0
C982 C 0.03286 0.31308 0.53045 0.0
C983 C 0.02257 0.31431 0.51409 0.0
C984 C 0.00386 0.29241 0.54278 0.0
C985 C 0.08322 0.32924 0.55149 0.0
C986 C 0.00231 0.26251 0.55069 0.0
C987 C 0.97202 0.23878 0.5599 0.0
C988 C 0.94218 0.24398 0.5612 0.0
C989 C 0.94437 0.27485 0.55394 0.0
C990 C 0.97493 0.29881 0.54479 0.0
H991 H 0.11081 0.35275 0.55284 0.0
H992 H 0.06511 0.33158 0.56061 0.0
H993 H 0.08477 0.30478 0.5544 0.0
H994 H 0.02363 0.25622 0.54896 0.0
H995 H 0.97132 0.2153 0.56528 0.0
H996 H 0.75334 0.96447 0.72737 0.0
H997 H 0.76502 0.01689 0.71115 0.0
H998 H 0.65089 0.97145 0.70279 0.0
H999 H 0.63892 0.91795 0.71877 0.0
H1000 H 0.68648 0.98965 0.67469 0.0
H1001 H 0.75764 0.10514 0.71623 0.0
H1002 H 0.77861 0.07808 0.71725 0.0
H1003 H 0.73242 0.05955 0.72395 0.0
C1004 C 0.73054 0.96582 0.72242 0.0
C1005 C 0.69518 0.93678 0.72427 0.0
C1006 C 0.73728 -0.00384 0.71327 0.0
C1007 C 0.70883 -0.00146 0.70594 0.0
C1008 C 0.67327 0.97039 0.70845 0.0
H1009 H 0.75658 0.14313 0.61961 0.0
H1010 H 0.7238 0.11211 0.64493 0.0
C1011 C 0.66647 0.93981 0.71759 0.0
C1012 C 0.7171 0.02766 0.69373 0.0
H1013 H 0.7751 0.11711 0.68684 0.0
C1014 C 0.70488 0.01772 0.67746 0.0
C1015 C 0.74099 0.06436 0.6973 0.0
C1016 C 0.75279 0.07736 0.7147 0.0
C1017 C 0.71852 0.04282 0.66446 0.0
C1018 C 0.7449 0.07883 0.66785 0.0
C1019 C 0.75502 0.08941 0.68427 0.0
C1020 C 0.76636 0.10376 0.65433 0.0
C1021 C 0.70684 0.03009 0.647 0.0
C1022 C 0.8016 0.11061 0.65166 0.0
C1023 C 0.82018 0.128 0.63727 0.0
C1024 C 0.80398 0.13918 0.62532 0.0
C1025 C 0.76975 0.13486 0.62861 0.0
C1026 C 0.75095 0.11704 0.64302 0.0
H1027 H 0.68797 0.00062 0.64638 0.0
H1028 H 0.69317 0.044 0.64169 0.0
H1029 H 0.73074 0.03687 0.63916 0.0
H1030 H 0.81394 0.10057 0.66026 0.0
H1031 H 0.84662 0.13118 0.63514 0.0
loop_
_geom_bond_atom_site_label_1
_geom_bond_atom_site_label_2
_geom_bond_distance
_geom_bond_site_symmetry_2
_ccdc_geom_bond_type
Zn0 O3 2.031 . S
Zn0 O5 2.049 . S
Zn0 O10 2.067 . S
Zn1 O2 1.962 . S
Zn1 O4 1.986 . S
Zn1 O6 1.996 . S
Zn1 O9 1.943 . S
O2 Zn1 1.962 . S
O2 C7 1.254 . S
O3 Zn0 2.031 . S
O3 C7 1.269 . S
O4 Zn1 1.986 . S
O4 C11 1.262 . S
O5 Zn0 2.049 . S
O5 C13 1.260 . S
O6 Zn1 1.996 . S
O6 C13 1.257 . S
C7 O2 1.254 . S
C7 O3 1.269 . S
C8 O9 1.249 . S
C8 O10 1.270 . S
O9 Zn1 1.943 . S
O9 C8 1.249 . S
O10 Zn0 2.067 . S
O10 C8 1.270 . S
C11 O4 1.262 . S
C11 O12 1.232 . S
O12 C11 1.232 . S
C13 O5 1.260 . S
C13 O6 1.257 . S
Zn14 O17 2.031 . S
Zn14 O19 2.049 . S
Zn14 O24 2.067 . S
Zn15 O16 1.962 . S
Zn15 O18 1.986 . S
Zn15 O20 1.996 . S
Zn15 O23 1.943 . S
O16 Zn15 1.962 . S
O16 C21 1.254 . S
O17 Zn14 2.031 . S
O17 C21 1.269 . S
O18 Zn15 1.986 . S
O18 C25 1.262 . S
O19 Zn14 2.049 . S
O19 C27 1.260 . S
O20 Zn15 1.996 . S
O20 C27 1.257 . S
C21 O16 1.254 . S
C21 O17 1.269 . S
C22 O23 1.249 . S
C22 O24 1.270 . S
O23 Zn15 1.943 . S
O23 C22 1.249 . S
O24 Zn14 2.067 . S
O24 C22 1.270 . S
C25 O18 1.262 . S
C25 O26 1.232 . S
O26 C25 1.232 . S
C27 O19 1.260 . S
C27 O20 1.257 . S
Zn28 O31 2.031 . S
Zn28 O33 2.049 . S
Zn28 O38 2.067 . S
Zn29 O30 1.962 . S
Zn29 O32 1.986 . S
Zn29 O34 1.996 . S
Zn29 O37 1.943 . S
O30 Zn29 1.962 . S
O30 C35 1.254 . S
O31 Zn28 2.031 . S
O31 C35 1.269 . S
O32 Zn29 1.986 . S
O32 C39 1.262 . S
O33 Zn28 2.049 . S
O33 C41 1.260 . S
O34 Zn29 1.996 . S
O34 C41 1.257 . S
C35 O30 1.254 . S
C35 O31 1.269 . S
C36 O37 1.249 . S
C36 O38 1.270 . S
O37 Zn29 1.943 . S
O37 C36 1.249 . S
O38 Zn28 2.067 . S
O38 C36 1.270 . S
C39 O32 1.262 . S
C39 O40 1.232 . S
O40 C39 1.232 . S
C41 O33 1.260 . S
C41 O34 1.257 . S
Zn42 O45 2.031 . S
Zn42 O47 2.049 . S
Zn42 O52 2.067 . S
Zn43 O44 1.962 . S
Zn43 O46 1.986 . S
Zn43 O48 1.996 . S
Zn43 O51 1.943 . S
O44 Zn43 1.962 . S
O44 C49 1.254 . S
O45 Zn42 2.031 . S
O45 C49 1.269 . S
O46 Zn43 1.986 . S
O46 C53 1.262 . S
O47 Zn42 2.049 . S
O47 C55 1.260 . S
O48 Zn43 1.996 . S
O48 C55 1.257 . S
C49 O44 1.254 . S
C49 O45 1.269 . S
C50 O51 1.249 . S
C50 O52 1.270 . S
O51 Zn43 1.943 . S
O51 C50 1.249 . S
O52 Zn42 2.067 . S
O52 C50 1.270 . S
C53 O46 1.262 . S
C53 O54 1.232 . S
O54 C53 1.232 . S
C55 O47 1.260 . S
C55 O48 1.257 . S
Zn56 O59 2.031 . S
Zn56 O61 2.049 . S
Zn56 O66 2.067 . S
Zn57 O58 1.962 . S
Zn57 O60 1.986 . S
Zn57 O62 1.996 . S
Zn57 O65 1.943 . S
O58 Zn57 1.962 . S
O58 C63 1.254 . S
O59 Zn56 2.031 . S
O59 C63 1.269 . S
O60 Zn57 1.986 . S
O60 C67 1.262 . S
O61 Zn56 2.049 . S
O61 C69 1.260 . S
O62 Zn57 1.996 . S
O62 C69 1.257 . S
C63 O58 1.254 . S
C63 O59 1.269 . S
C64 O65 1.249 . S
C64 O66 1.270 . S
O65 Zn57 1.943 . S
O65 C64 1.249 . S
O66 Zn56 2.067 . S
O66 C64 1.270 . S
C67 O60 1.262 . S
C67 O68 1.232 . S
O68 C67 1.232 . S
C69 O61 1.260 . S
C69 O62 1.257 . S
Zn70 O73 2.031 . S
Zn70 O75 2.049 . S
Zn70 O80 2.067 . S
Zn71 O72 1.962 . S
Zn71 O74 1.986 . S
Zn71 O76 1.996 . S
Zn71 O79 1.943 . S
O72 Zn71 1.962 . S
O72 C77 1.254 . S
O73 Zn70 2.031 . S
O73 C77 1.269 . S
O74 Zn71 1.986 . S
O74 C81 1.262 . S
O75 Zn70 2.049 . S
O75 C83 1.260 . S
O76 Zn71 1.996 . S
O76 C83 1.257 . S
C77 O72 1.254 . S
C77 O73 1.269 . S
C78 O79 1.249 . S
C78 O80 1.270 . S
O79 Zn71 1.943 . S
O79 C78 1.249 . S
O80 Zn70 2.067 . S
O80 C78 1.270 . S
C81 O74 1.262 . S
C81 O82 1.232 . S
O82 C81 1.232 . S
C83 O75 1.260 . S
C83 O76 1.257 . S
Zn84 O87 2.031 . S
Zn84 O89 2.049 . S
Zn84 O94 2.067 . S
Zn85 O86 1.962 . S
Zn85 O88 1.986 . S
Zn85 O90 1.996 . S
Zn85 O93 1.943 . S
O86 Zn85 1.962 . S
O86 C91 1.254 . S
O87 Zn84 2.031 . S
O87 C91 1.269 . S
O88 Zn85 1.986 . S
O88 C95 1.262 . S
O89 Zn84 2.049 . S
O89 C97 1.260 . S
O90 Zn85 1.996 . S
O90 C97 1.257 . S
C91 O86 1.254 . S
C91 O87 1.269 . S
C92 O93 1.249 . S
C92 O94 1.270 . S
O93 Zn85 1.943 . S
O93 C92 1.249 . S
O94 Zn84 2.067 . S
O94 C92 1.270 . S
C95 O88 1.262 . S
C95 O96 1.232 . S
O96 C95 1.232 . S
C97 O89 1.260 . S
C97 O90 1.257 . S
Zn98 O101 2.031 . S
Zn98 O103 2.049 . S
Zn98 O108 2.067 . S
Zn99 O100 1.962 . S
Zn99 O102 1.986 . S
Zn99 O104 1.996 . S
Zn99 O107 1.943 . S
O100 Zn99 1.962 . S
O100 C105 1.254 . S
O101 Zn98 2.031 . S
O101 C105 1.269 . S
O102 Zn99 1.986 . S
O102 C109 1.262 . S
O103 Zn98 2.049 . S
O103 C111 1.260 . S
O104 Zn99 1.996 . S
O104 C111 1.257 . S
C105 O100 1.254 . S
C105 O101 1.269 . S
C106 O107 1.249 . S
C106 O108 1.270 . S
O107 Zn99 1.943 . S
O107 C106 1.249 . S
O108 Zn98 2.067 . S
O108 C106 1.270 . S
C109 O102 1.262 . S
C109 O110 1.232 . S
O110 C109 1.232 . S
C111 O103 1.260 . S
C111 O104 1.257 . S
Zn112 O115 2.031 . S
Zn112 O117 2.049 . S
Zn112 O122 2.067 . S
Zn113 O114 1.962 . S
Zn113 O116 1.986 . S
Zn113 O118 1.996 . S
Zn113 O121 1.943 . S
O114 Zn113 1.962 . S
O114 C119 1.254 . S
O115 Zn112 2.031 . S
O115 C119 1.269 . S
O116 Zn113 1.986 . S
O116 C123 1.262 . S
O117 Zn112 2.049 . S
O117 C125 1.260 . S
O118 Zn113 1.996 . S
O118 C125 1.257 . S
C119 O114 1.254 . S
C119 O115 1.269 . S
C120 O121 1.249 . S
C120 O122 1.270 . S
O121 Zn113 1.943 . S
O121 C120 1.249 . S
O122 Zn112 2.067 . S
O122 C120 1.270 . S
C123 O116 1.262 . S
C123 O124 1.232 . S
O124 C123 1.232 . S
C125 O117 1.260 . S
C125 O118 1.257 . S
Zn126 O129 2.031 . S
Zn126 O131 2.049 . S
Zn126 O136 2.067 . S
Zn127 O128 1.962 . S
Zn127 O130 1.986 . S
Zn127 O132 1.996 . S
Zn127 O135 1.943 . S
O128 Zn127 1.962 . S
O128 C133 1.254 . S
O129 Zn126 2.031 . S
O129 C133 1.269 . S
O130 Zn127 1.986 . S
O130 C137 1.262 . S
O131 Zn126 2.049 . S
O131 C139 1.260 . S
O132 Zn127 1.996 . S
O132 C139 1.257 . S
C133 O128 1.254 . S
C133 O129 1.269 . S
C134 O135 1.249 . S
C134 O136 1.270 . S
O135 Zn127 1.943 . S
O135 C134 1.249 . S
O136 Zn126 2.067 . S
O136 C134 1.270 . S
C137 O130 1.262 . S
C137 O138 1.232 . S
O138 C137 1.232 . S
C139 O131 1.260 . S
C139 O132 1.257 . S
Zn140 O143 2.031 . S
Zn140 O145 2.049 . S
Zn140 O150 2.067 . S
Zn141 O142 1.962 . S
Zn141 O144 1.986 . S
Zn141 O146 1.996 . S
Zn141 O149 1.943 . S
O142 Zn141 1.962 . S
O142 C147 1.254 . S
O143 Zn140 2.031 . S
O143 C147 1.269 . S
O144 Zn141 1.986 . S
O144 C151 1.262 . S
O145 Zn140 2.049 . S
O145 C153 1.260 . S
O146 Zn141 1.996 . S
O146 C153 1.257 . S
C147 O142 1.254 . S
C147 O143 1.269 . S
C148 O149 1.249 . S
C148 O150 1.270 . S
O149 Zn141 1.943 . S
O149 C148 1.249 . S
O150 Zn140 2.067 . S
O150 C148 1.270 . S
C151 O144 1.262 . S
C151 O152 1.232 . S
O152 C151 1.232 . S
C153 O145 1.260 . S
C153 O146 1.257 . S
Zn154 O157 2.031 . S
Zn154 O159 2.049 . S
Zn154 O164 2.067 . S
Zn155 O156 1.962 . S
Zn155 O158 1.986 . S
Zn155 O160 1.996 . S
Zn155 O163 1.943 . S
O156 Zn155 1.962 . S
O156 C161 1.254 . S
O157 Zn154 2.031 . S
O157 C161 1.269 . S
O158 Zn155 1.986 . S
O158 C165 1.262 . S
O159 Zn154 2.049 . S
O159 C167 1.260 . S
O160 Zn155 1.996 . S
O160 C167 1.257 . S
C161 O156 1.254 . S
C161 O157 1.269 . S
C162 O163 1.249 . S
C162 O164 1.270 . S
O163 Zn155 1.943 . S
O163 C162 1.249 . S
O164 Zn154 2.067 . S
O164 C162 1.270 . S
C165 O158 1.262 . S
C165 O166 1.232 . S
O166 C165 1.232 . S
C167 O159 1.260 . S
C167 O160 1.257 . S
H168 C176 0.929 . S
H169 C178 0.930 . S
H170 C180 0.930 . S
H171 C183 0.929 . S
H172 C186 0.930 . S
H173 C188 0.960 . S
H174 C188 0.960 . S
H175 C188 0.960 . S
C176 H168 0.929 . S
C176 C177 1.377 . S
C176 C178 1.384 . S
C177 C176 1.377 . S
C177 C183 1.390 . S
C178 H169 0.930 . S
C178 C176 1.384 . S
C178 C179 1.372 . S
C179 C178 1.372 . S
C179 C180 1.400 . S
C179 C184 1.490 . S
C180 H170 0.930 . S
C180 C179 1.400 . S
C180 C183 1.386 . S
H181 C197 0.930 . S
H182 C198 0.931 . S
C183 H171 0.929 . S
C183 C177 1.390 . S
C183 C180 1.386 . S
C184 C179 1.490 . S
C184 C186 1.395 . S
C184 C187 1.403 . S
H185 C191 0.930 . S
C186 H172 0.930 . S
C186 C184 1.395 . S
C186 C189 1.403 . S
C187 C184 1.403 . S
C187 C188 1.524 . S
C187 C191 1.400 . S
C188 H173 0.960 . S
C188 H174 0.960 . S
C188 H175 0.960 . S
C188 C187 1.524 . S
C189 C186 1.403 . S
C189 C190 1.392 . S
C189 C193 1.495 . S
C190 C189 1.392 . S
C190 C191 1.385 . S
C190 C192 1.478 . S
C191 H185 0.930 . S
C191 C187 1.400 . S
C191 C190 1.385 . S
C192 C190 1.478 . S
C192 C194 1.381 . S
C192 C198 1.383 . S
C193 C189 1.495 . S
C193 H199 0.959 . S
C193 H200 0.961 . S
C193 H201 0.960 . S
C194 C192 1.381 . S
C194 C195 1.394 . S
C194 H202 0.930 . S
C195 C194 1.394 . S
C195 C196 1.383 . S
C195 H203 0.929 . S
C196 C195 1.383 . S
C196 C197 1.377 . S
C197 H181 0.930 . S
C197 C196 1.377 . S
C197 C198 1.379 . S
C198 H182 0.931 . S
C198 C192 1.383 . S
C198 C197 1.379 . S
H199 C193 0.959 . S
H200 C193 0.961 . S
H201 C193 0.960 . S
H202 C194 0.930 . S
H203 C195 0.929 . S
H204 C212 0.929 . S
H205 C214 0.930 . S
H206 C216 0.930 . S
H207 C219 0.929 . S
H208 C222 0.930 . S
H209 C224 0.960 . S
H210 C224 0.960 . S
H211 C224 0.960 . S
C212 H204 0.929 . S
C212 C213 1.377 . S
C212 C214 1.384 . S
C213 C212 1.377 . S
C213 C219 1.390 . S
C214 H205 0.930 . S
C214 C212 1.384 . S
C214 C215 1.372 . S
C215 C214 1.372 . S
C215 C216 1.400 . S
C215 C220 1.490 . S
C216 H206 0.930 . S
C216 C215 1.400 . S
C216 C219 1.386 . S
H217 C233 0.930 . S
H218 C234 0.931 . S
C219 H207 0.929 . S
C219 C213 1.390 . S
C219 C216 1.386 . S
C220 C215 1.490 . S
C220 C222 1.395 . S
C220 C223 1.403 . S
H221 C227 0.930 . S
C222 H208 0.930 . S
C222 C220 1.395 . S
C222 C225 1.403 . S
C223 C220 1.403 . S
C223 C224 1.524 . S
C223 C227 1.400 . S
C224 H209 0.960 . S
C224 H210 0.960 . S
C224 H211 0.960 . S
C224 C223 1.524 . S
C225 C222 1.403 . S
C225 C226 1.392 . S
C225 C229 1.495 . S
C226 C225 1.392 . S
C226 C227 1.385 . S
C226 C228 1.478 . S
C227 H221 0.930 . S
C227 C223 1.400 . S
C227 C226 1.385 . S
C228 C226 1.478 . S
C228 C230 1.381 . S
C228 C234 1.383 . S
C229 C225 1.495 . S
C229 H235 0.959 . S
C229 H236 0.961 . S
C229 H237 0.960 . S
C230 C228 1.381 . S
C230 C231 1.394 . S
C230 H238 0.930 . S
C231 C230 1.394 . S
C231 C232 1.383 . S
C231 H239 0.929 . S
C232 C231 1.383 . S
C232 C233 1.377 . S
C233 H217 0.930 . S
C233 C232 1.377 . S
C233 C234 1.379 . S
C234 H218 0.931 . S
C234 C228 1.383 . S
C234 C233 1.379 . S
H235 C229 0.959 . S
H236 C229 0.961 . S
H237 C229 0.960 . S
H238 C230 0.930 . S
H239 C231 0.929 . S
H240 C248 0.929 . S
H241 C250 0.930 . S
H242 C252 0.930 . S
H243 C255 0.929 . S
H244 C258 0.930 . S
H245 C260 0.960 . S
H246 C260 0.960 . S
H247 C260 0.960 . S
C248 H240 0.929 . S
C248 C249 1.377 . S
C248 C250 1.384 . S
C249 C248 1.377 . S
C249 C255 1.390 . S
C250 H241 0.930 . S
C250 C248 1.384 . S
C250 C251 1.372 . S
C251 C250 1.372 . S
C251 C252 1.400 . S
C251 C256 1.490 . S
C252 H242 0.930 . S
C252 C251 1.400 . S
C252 C255 1.386 . S
H253 C269 0.930 . S
H254 C270 0.931 . S
C255 H243 0.929 . S
C255 C249 1.390 . S
C255 C252 1.386 . S
C256 C251 1.490 . S
C256 C258 1.395 . S
C256 C259 1.403 . S
H257 C263 0.930 . S
C258 H244 0.930 . S
C258 C256 1.395 . S
C258 C261 1.403 . S
C259 C256 1.403 . S
C259 C260 1.524 . S
C259 C263 1.400 . S
C260 H245 0.960 . S
C260 H246 0.960 . S
C260 H247 0.960 . S
C260 C259 1.524 . S
C261 C258 1.403 . S
C261 C262 1.392 . S
C261 C265 1.495 . S
C262 C261 1.392 . S
C262 C263 1.385 . S
C262 C264 1.478 . S
C263 H257 0.930 . S
C263 C259 1.400 . S
C263 C262 1.385 . S
C264 C262 1.478 . S
C264 C266 1.381 . S
C264 C270 1.383 . S
C265 C261 1.495 . S
C265 H271 0.959 . S
C265 H272 0.961 . S
C265 H273 0.960 . S
C266 C264 1.381 . S
C266 C267 1.394 . S
C266 H274 0.930 . S
C267 C266 1.394 . S
C267 C268 1.383 . S
C267 H275 0.929 . S
C268 C267 1.383 . S
C268 C269 1.377 . S
C269 H253 0.930 . S
C269 C268 1.377 . S
C269 C270 1.379 . S
C270 H254 0.931 . S
C270 C264 1.383 . S
C270 C269 1.379 . S
H271 C265 0.959 . S
H272 C265 0.961 . S
H273 C265 0.960 . S
H274 C266 0.930 . S
H275 C267 0.929 . S
H276 C284 0.929 . S
H277 C286 0.930 . S
H278 C288 0.930 . S
H279 C291 0.929 . S
H280 C294 0.930 . S
H281 C296 0.960 . S
H282 C296 0.960 . S
H283 C296 0.960 . S
C284 H276 0.929 . S
C284 C285 1.377 . S
C284 C286 1.384 . S
C285 C284 1.377 . S
C285 C291 1.390 . S
C286 H277 0.930 . S
C286 C284 1.384 . S
C286 C287 1.372 . S
C287 C286 1.372 . S
C287 C288 1.400 . S
C287 C292 1.490 . S
C288 H278 0.930 . S
C288 C287 1.400 . S
C288 C291 1.386 . S
H289 C305 0.930 . S
H290 C306 0.931 . S
C291 H279 0.929 . S
C291 C285 1.390 . S
C291 C288 1.386 . S
C292 C287 1.490 . S
C292 C294 1.395 . S
C292 C295 1.403 . S
H293 C299 0.930 . S
C294 H280 0.930 . S
C294 C292 1.395 . S
C294 C297 1.403 . S
C295 C292 1.403 . S
C295 C296 1.524 . S
C295 C299 1.400 . S
C296 H281 0.960 . S
C296 H282 0.960 . S
C296 H283 0.960 . S
C296 C295 1.524 . S
C297 C294 1.403 . S
C297 C298 1.392 . S
C297 C301 1.495 . S
C298 C297 1.392 . S
C298 C299 1.385 . S
C298 C300 1.478 . S
C299 H293 0.930 . S
C299 C295 1.400 . S
C299 C298 1.385 . S
C300 C298 1.478 . S
C300 C302 1.381 . S
C300 C306 1.383 . S
C301 C297 1.495 . S
C301 H307 0.959 . S
C301 H308 0.961 . S
C301 H309 0.960 . S
C302 C300 1.381 . S
C302 C303 1.394 . S
C302 H310 0.930 . S
C303 C302 1.394 . S
C303 C304 1.383 . S
C303 H311 0.929 . S
C304 C303 1.383 . S
C304 C305 1.377 . S
C305 H289 0.930 . S
C305 C304 1.377 . S
C305 C306 1.379 . S
C306 H290 0.931 . S
C306 C300 1.383 . S
C306 C305 1.379 . S
H307 C301 0.959 . S
H308 C301 0.961 . S
H309 C301 0.960 . S
H310 C302 0.930 . S
H311 C303 0.929 . S
H312 C320 0.929 . S
H313 C322 0.930 . S
H314 C324 0.930 . S
H315 C327 0.929 . S
H316 C330 0.930 . S
H317 C332 0.960 . S
H318 C332 0.960 . S
H319 C332 0.960 . S
C320 H312 0.929 . S
C320 C321 1.377 . S
C320 C322 1.384 . S
C321 C320 1.377 . S
C321 C327 1.390 . S
C322 H313 0.930 . S
C322 C320 1.384 . S
C322 C323 1.372 . S
C323 C322 1.372 . S
C323 C324 1.400 . S
C323 C328 1.490 . S
C324 H314 0.930 . S
C324 C323 1.400 . S
C324 C327 1.386 . S
H325 C341 0.930 . S
H326 C342 0.931 . S
C327 H315 0.929 . S
C327 C321 1.390 . S
C327 C324 1.386 . S
C328 C323 1.490 . S
C328 C330 1.395 . S
C328 C331 1.403 . S
H329 C335 0.930 . S
C330 H316 0.930 . S
C330 C328 1.395 . S
C330 C333 1.403 . S
C331 C328 1.403 . S
C331 C332 1.524 . S
C331 C335 1.400 . S
C332 H317 0.960 . S
C332 H318 0.960 . S
C332 H319 0.960 . S
C332 C331 1.524 . S
C333 C330 1.403 . S
C333 C334 1.392 . S
C333 C337 1.495 . S
C334 C333 1.392 . S
C334 C335 1.385 . S
C334 C336 1.478 . S
C335 H329 0.930 . S
C335 C331 1.400 . S
C335 C334 1.385 . S
C336 C334 1.478 . S
C336 C338 1.381 . S
C336 C342 1.383 . S
C337 C333 1.495 . S
C337 H343 0.959 . S
C337 H344 0.961 . S
C337 H345 0.960 . S
C338 C336 1.381 . S
C338 C339 1.394 . S
C338 H346 0.930 . S
C339 C338 1.394 . S
C339 C340 1.383 . S
C339 H347 0.929 . S
C340 C339 1.383 . S
C340 C341 1.377 . S
C341 H325 0.930 . S
C341 C340 1.377 . S
C341 C342 1.379 . S
C342 H326 0.931 . S
C342 C336 1.383 . S
C342 C341 1.379 . S
H343 C337 0.959 . S
H344 C337 0.961 . S
H345 C337 0.960 . S
H346 C338 0.930 . S
H347 C339 0.929 . S
H348 C356 0.929 . S
H349 C358 0.930 . S
H350 C360 0.930 . S
H351 C363 0.929 . S
H352 C366 0.930 . S
H353 C368 0.960 . S
H354 C368 0.960 . S
H355 C368 0.960 . S
C356 H348 0.929 . S
C356 C357 1.377 . S
C356 C358 1.384 . S
C357 C356 1.377 . S
C357 C363 1.390 . S
C358 H349 0.930 . S
C358 C356 1.384 . S
C358 C359 1.372 . S
C359 C358 1.372 . S
C359 C360 1.400 . S
C359 C364 1.490 . S
C360 H350 0.930 . S
C360 C359 1.400 . S
C360 C363 1.386 . S
H361 C377 0.930 . S
H362 C378 0.931 . S
C363 H351 0.929 . S
C363 C357 1.390 . S
C363 C360 1.386 . S
C364 C359 1.490 . S
C364 C366 1.395 . S
C364 C367 1.403 . S
H365 C371 0.930 . S
C366 H352 0.930 . S
C366 C364 1.395 . S
C366 C369 1.403 . S
C367 C364 1.403 . S
C367 C368 1.524 . S
C367 C371 1.400 . S
C368 H353 0.960 . S
C368 H354 0.960 . S
C368 H355 0.960 . S
C368 C367 1.524 . S
C369 C366 1.403 . S
C369 C370 1.392 . S
C369 C373 1.495 . S
C370 C369 1.392 . S
C370 C371 1.385 . S
C370 C372 1.478 . S
C371 H365 0.930 . S
C371 C367 1.400 . S
C371 C370 1.385 . S
C372 C370 1.478 . S
C372 C374 1.381 . S
C372 C378 1.383 . S
C373 C369 1.495 . S
C373 H379 0.959 . S
C373 H380 0.961 . S
C373 H381 0.960 . S
C374 C372 1.381 . S
C374 C375 1.394 . S
C374 H382 0.930 . S
C375 C374 1.394 . S
C375 C376 1.383 . S
C375 H383 0.929 . S
C376 C375 1.383 . S
C376 C377 1.377 . S
C377 H361 0.930 . S
C377 C376 1.377 . S
C377 C378 1.379 . S
C378 H362 0.931 . S
C378 C372 1.383 . S
C378 C377 1.379 . S
H379 C373 0.959 . S
H380 C373 0.961 . S
H381 C373 0.960 . S
H382 C374 0.930 . S
H383 C375 0.929 . S
H384 C392 0.929 . S
H385 C394 0.930 . S
H386 C396 0.930 . S
H387 C399 0.929 . S
H388 C402 0.930 . S
H389 C404 0.960 . S
H390 C404 0.960 . S
H391 C404 0.960 . S
C392 H384 0.929 . S
C392 C393 1.377 . S
C392 C394 1.384 . S
C393 C392 1.377 . S
C393 C399 1.390 . S
C394 H385 0.930 . S
C394 C392 1.384 . S
C394 C395 1.372 . S
C395 C394 1.372 . S
C395 C396 1.400 . S
C395 C400 1.490 . S
C396 H386 0.930 . S
C396 C395 1.400 . S
C396 C399 1.386 . S
H397 C413 0.930 . S
H398 C414 0.931 . S
C399 H387 0.929 . S
C399 C393 1.390 . S
C399 C396 1.386 . S
C400 C395 1.490 . S
C400 C402 1.395 . S
C400 C403 1.403 . S
H401 C407 0.930 . S
C402 H388 0.930 . S
C402 C400 1.395 . S
C402 C405 1.403 . S
C403 C400 1.403 . S
C403 C404 1.524 . S
C403 C407 1.400 . S
C404 H389 0.960 . S
C404 H390 0.960 . S
C404 H391 0.960 . S
C404 C403 1.524 . S
C405 C402 1.403 . S
C405 C406 1.392 . S
C405 C409 1.495 . S
C406 C405 1.392 . S
C406 C407 1.385 . S
C406 C408 1.478 . S
C407 H401 0.930 . S
C407 C403 1.400 . S
C407 C406 1.385 . S
C408 C406 1.478 . S
C408 C410 1.381 . S
C408 C414 1.383 . S
C409 C405 1.495 . S
C409 H415 0.959 . S
C409 H416 0.961 . S
C409 H417 0.960 . S
C410 C408 1.381 . S
C410 C411 1.394 . S
C410 H418 0.930 . S
C411 C410 1.394 . S
C411 C412 1.383 . S
C411 H419 0.929 . S
C412 C411 1.383 . S
C412 C413 1.377 . S
C413 H397 0.930 . S
C413 C412 1.377 . S
C413 C414 1.379 . S
C414 H398 0.931 . S
C414 C408 1.383 . S
C414 C413 1.379 . S
H415 C409 0.959 . S
H416 C409 0.961 . S
H417 C409 0.960 . S
H418 C410 0.930 . S
H419 C411 0.929 . S
H420 C428 0.929 . S
H421 C430 0.930 . S
H422 C432 0.930 . S
H423 C435 0.929 . S
H424 C438 0.930 . S
H425 C440 0.960 1_455 S
H426 C440 0.960 . S
H427 C440 0.960 . S
C428 H420 0.929 . S
C428 C429 1.377 . S
C428 C430 1.384 . S
C429 C428 1.377 . S
C429 C435 1.390 . S
C430 H421 0.930 . S
C430 C428 1.384 . S
C430 C431 1.372 . S
C431 C430 1.372 . S
C431 C432 1.400 . S
C431 C436 1.490 . S
C432 H422 0.930 . S
C432 C431 1.400 . S
C432 C435 1.386 . S
H433 C449 0.930 . S
H434 C450 0.931 . S
C435 H423 0.929 . S
C435 C429 1.390 . S
C435 C432 1.386 . S
C436 C431 1.490 . S
C436 C438 1.395 . S
C436 C439 1.403 . S
H437 C443 0.930 . S
C438 H424 0.930 . S
C438 C436 1.395 . S
C438 C441 1.403 1_655 S
C439 C436 1.403 . S
C439 C440 1.524 . S
C439 C443 1.400 1_655 S
C440 H425 0.960 1_655 S
C440 H426 0.960 . S
C440 H427 0.960 . S
C440 C439 1.524 . S
C441 C438 1.403 1_455 S
C441 C442 1.392 . S
C441 C445 1.495 . S
C442 C441 1.392 . S
C442 C443 1.385 . S
C442 C444 1.478 . S
C443 H437 0.930 . S
C443 C439 1.400 1_455 S
C443 C442 1.385 . S
C444 C442 1.478 . S
C444 C446 1.381 . S
C444 C450 1.383 . S
C445 C441 1.495 . S
C445 H451 0.959 1_455 S
C445 H452 0.961 . S
C445 H453 0.960 . S
C446 C444 1.381 . S
C446 C447 1.394 . S
C446 H454 0.930 . S
C447 C446 1.394 . S
C447 C448 1.383 . S
C447 H455 0.929 . S
C448 C447 1.383 . S
C448 C449 1.377 . S
C449 H433 0.930 . S
C449 C448 1.377 . S
C449 C450 1.379 . S
C450 H434 0.931 . S
C450 C444 1.383 . S
C450 C449 1.379 . S
H451 C445 0.959 1_655 S
H452 C445 0.961 . S
H453 C445 0.960 . S
H454 C446 0.930 . S
H455 C447 0.929 . S
H456 C464 0.929 . S
H457 C466 0.930 . S
H458 C468 0.930 . S
H459 C471 0.929 . S
H460 C474 0.930 . S
H461 C476 0.960 . S
H462 C476 0.960 . S
H463 C476 0.960 . S
C464 H456 0.929 . S
C464 C465 1.377 . S
C464 C466 1.384 . S
C465 C464 1.377 . S
C465 C471 1.390 . S
C466 H457 0.930 . S
C466 C464 1.384 . S
C466 C467 1.372 . S
C467 C466 1.372 . S
C467 C468 1.400 . S
C467 C472 1.490 . S
C468 H458 0.930 . S
C468 C467 1.400 . S
C468 C471 1.386 . S
H469 C485 0.930 . S
H470 C486 0.931 . S
C471 H459 0.929 . S
C471 C465 1.390 . S
C471 C468 1.386 . S
C472 C467 1.490 . S
C472 C474 1.395 . S
C472 C475 1.403 . S
H473 C479 0.930 . S
C474 H460 0.930 . S
C474 C472 1.395 . S
C474 C477 1.403 1_545 S
C475 C472 1.403 . S
C475 C476 1.524 . S
C475 C479 1.400 1_545 S
C476 H461 0.960 . S
C476 H462 0.960 . S
C476 H463 0.960 . S
C476 C475 1.524 . S
C477 C474 1.403 1_565 S
C477 C478 1.392 . S
C477 C481 1.495 . S
C478 C477 1.392 . S
C478 C479 1.385 . S
C478 C480 1.478 . S
C479 H473 0.930 . S
C479 C475 1.400 1_565 S
C479 C478 1.385 . S
C480 C478 1.478 . S
C480 C482 1.381 . S
C480 C486 1.383 . S
C481 C477 1.495 . S
C481 H487 0.959 . S
C481 H488 0.961 . S
C481 H489 0.960 . S
C482 C480 1.381 . S
C482 C483 1.394 . S
C482 H490 0.930 . S
C483 C482 1.394 . S
C483 C484 1.383 . S
C483 H491 0.929 . S
C484 C483 1.383 . S
C484 C485 1.377 . S
C485 H469 0.930 . S
C485 C484 1.377 . S
C485 C486 1.379 . S
C486 H470 0.931 . S
C486 C480 1.383 . S
C486 C485 1.379 . S
H487 C481 0.959 . S
H488 C481 0.961 . S
H489 C481 0.960 . S
H490 C482 0.930 . S
H491 C483 0.929 . S
H492 C500 0.929 . S
H493 C502 0.930 . S
H494 C504 0.930 . S
H495 C507 0.929 . S
H496 C510 0.930 . S
H497 C512 0.960 . S
H498 C512 0.960 . S
H499 C512 0.960 . S
C500 H492 0.929 . S
C500 C501 1.377 . S
C500 C502 1.384 . S
C501 C500 1.377 . S
C501 C507 1.390 . S
C502 H493 0.930 . S
C502 C500 1.384 . S
C502 C503 1.372 . S
C503 C502 1.372 . S
C503 C504 1.400 . S
C503 C508 1.490 . S
C504 H494 0.930 . S
C504 C503 1.400 . S
C504 C507 1.386 . S
H505 C521 0.930 . S
H506 C522 0.931 . S
C507 H495 0.929 . S
C507 C501 1.390 . S
C507 C504 1.386 . S
C508 C503 1.490 . S
C508 C510 1.395 . S
C508 C511 1.403 . S
H509 C515 0.930 . S
C510 H496 0.930 . S
C510 C508 1.395 . S
C510 C513 1.403 . S
C511 C508 1.403 . S
C511 C512 1.524 . S
C511 C515 1.400 . S
C512 H497 0.960 . S
C512 H498 0.960 . S
C512 H499 0.960 . S
C512 C511 1.524 . S
C513 C510 1.403 . S
C513 C514 1.392 . S
C513 C517 1.495 . S
C514 C513 1.392 . S
C514 C515 1.385 . S
C514 C516 1.478 . S
C515 H509 0.930 . S
C515 C511 1.400 . S
C515 C514 1.385 . S
C516 C514 1.478 . S
C516 C518 1.381 . S
C516 C522 1.383 . S
C517 C513 1.495 . S
C517 H523 0.959 . S
C517 H524 0.961 . S
C517 H525 0.960 . S
C518 C516 1.381 . S
C518 C519 1.394 . S
C518 H526 0.930 . S
C519 C518 1.394 . S
C519 C520 1.383 . S
C519 H527 0.929 . S
C520 C519 1.383 . S
C520 C521 1.377 . S
C521 H505 0.930 . S
C521 C520 1.377 . S
C521 C522 1.379 . S
C522 H506 0.931 . S
C522 C516 1.383 . S
C522 C521 1.379 . S
H523 C517 0.959 . S
H524 C517 0.961 . S
H525 C517 0.960 . S
H526 C518 0.930 . S
H527 C519 0.929 . S
H528 C536 0.929 . S
H529 C538 0.930 . S
H530 C540 0.930 . S
H531 C543 0.929 . S
H532 C546 0.930 . S
H533 C548 0.960 . S
H534 C548 0.960 . S
H535 C548 0.960 . S
C536 H528 0.929 . S
C536 C537 1.377 . S
C536 C538 1.384 . S
C537 C536 1.377 . S
C537 C543 1.390 . S
C538 H529 0.930 . S
C538 C536 1.384 . S
C538 C539 1.372 . S
C539 C538 1.372 . S
C539 C540 1.400 . S
C539 C544 1.490 . S
C540 H530 0.930 . S
C540 C539 1.400 . S
C540 C543 1.386 . S
H541 C557 0.930 . S
H542 C558 0.931 . S
C543 H531 0.929 . S
C543 C537 1.390 . S
C543 C540 1.386 . S
C544 C539 1.490 . S
C544 C546 1.395 1_655 S
C544 C547 1.403 . S
H545 C551 0.930 . S
C546 H532 0.930 . S
C546 C544 1.395 1_455 S
C546 C549 1.403 . S
C547 C544 1.403 . S
C547 C548 1.524 . S
C547 C551 1.400 1_655 S
C548 H533 0.960 . S
C548 H534 0.960 . S
C548 H535 0.960 . S
C548 C547 1.524 . S
C549 C546 1.403 . S
C549 C550 1.392 . S
C549 C553 1.495 . S
C550 C549 1.392 . S
C550 C551 1.385 . S
C550 C552 1.478 . S
C551 H545 0.930 . S
C551 C547 1.400 1_455 S
C551 C550 1.385 . S
C552 C550 1.478 . S
C552 C554 1.381 . S
C552 C558 1.383 . S
C553 C549 1.495 . S
C553 H559 0.959 . S
C553 H560 0.961 . S
C553 H561 0.960 . S
C554 C552 1.381 . S
C554 C555 1.394 . S
C554 H562 0.930 . S
C555 C554 1.394 . S
C555 C556 1.383 . S
C555 H563 0.929 . S
C556 C555 1.383 . S
C556 C557 1.377 . S
C557 H541 0.930 . S
C557 C556 1.377 . S
C557 C558 1.379 . S
C558 H542 0.931 . S
C558 C552 1.383 . S
C558 C557 1.379 . S
H559 C553 0.959 . S
H560 C553 0.961 . S
H561 C553 0.960 . S
H562 C554 0.930 . S
H563 C555 0.929 . S
H564 C572 0.929 . S
H565 C574 0.930 . S
H566 C576 0.930 . S
H567 C579 0.929 . S
H568 C582 0.930 . S
H569 C584 0.960 . S
H570 C584 0.960 . S
H571 C584 0.960 1_565 S
C572 H564 0.929 . S
C572 C573 1.377 . S
C572 C574 1.384 . S
C573 C572 1.377 . S
C573 C579 1.390 . S
C574 H565 0.930 . S
C574 C572 1.384 . S
C574 C575 1.372 . S
C575 C574 1.372 . S
C575 C576 1.400 . S
C575 C580 1.490 . S
C576 H566 0.930 . S
C576 C575 1.400 . S
C576 C579 1.386 . S
H577 C593 0.930 . S
H578 C594 0.931 . S
C579 H567 0.929 . S
C579 C573 1.390 . S
C579 C576 1.386 . S
C580 C575 1.490 . S
C580 C582 1.395 1_554 S
C580 C583 1.403 1_565 S
H581 C587 0.930 . S
C582 H568 0.930 . S
C582 C580 1.395 1_556 S
C582 C585 1.403 . S
C583 C580 1.403 1_545 S
C583 C584 1.524 . S
C583 C587 1.400 . S
C584 H569 0.960 . S
C584 H570 0.960 . S
C584 H571 0.960 1_545 S
C584 C583 1.524 . S
C585 C582 1.403 . S
C585 C586 1.392 1_565 S
C585 C589 1.495 . S
C586 C585 1.392 1_545 S
C586 C587 1.385 1_556 S
C586 C588 1.478 . S
C587 H581 0.930 . S
C587 C583 1.400 . S
C587 C586 1.385 1_554 S
C588 C586 1.478 . S
C588 C590 1.381 . S
C588 C594 1.383 . S
C589 C585 1.495 . S
C589 H595 0.959 . S
C589 H596 0.961 . S
C589 H597 0.960 . S
C590 C588 1.381 . S
C590 C591 1.394 . S
C590 H598 0.930 . S
C591 C590 1.394 . S
C591 C592 1.383 . S
C591 H599 0.929 . S
C592 C591 1.383 . S
C592 C593 1.377 . S
C593 H577 0.930 . S
C593 C592 1.377 . S
C593 C594 1.379 . S
C594 H578 0.931 . S
C594 C588 1.383 . S
C594 C593 1.379 . S
H595 C589 0.959 . S
H596 C589 0.961 . S
H597 C589 0.960 . S
H598 C590 0.930 . S
H599 C591 0.929 . S
H600 C608 0.929 . S
H601 C610 0.930 . S
H602 C612 0.930 . S
H603 C615 0.929 . S
H604 C618 0.930 . S
H605 C620 0.960 . S
H606 C620 0.960 . S
H607 C620 0.960 . S
C608 H600 0.929 . S
C608 C609 1.377 . S
C608 C610 1.384 . S
C609 C608 1.377 . S
C609 C615 1.390 . S
C610 H601 0.930 . S
C610 C608 1.384 . S
C610 C611 1.372 . S
C611 C610 1.372 . S
C611 C612 1.400 . S
C611 C616 1.490 . S
C612 H602 0.930 . S
C612 C611 1.400 . S
C612 C615 1.386 . S
H613 C629 0.930 . S
H614 C630 0.931 . S
C615 H603 0.929 . S
C615 C609 1.390 . S
C615 C612 1.386 . S
C616 C611 1.490 . S
C616 C618 1.395 . S
C616 C619 1.403 . S
H617 C623 0.930 . S
C618 H604 0.930 . S
C618 C616 1.395 . S
C618 C621 1.403 . S
C619 C616 1.403 . S
C619 C620 1.524 . S
C619 C623 1.400 . S
C620 H605 0.960 . S
C620 H606 0.960 . S
C620 H607 0.960 . S
C620 C619 1.524 . S
C621 C618 1.403 . S
C621 C622 1.389 1_554 S
C621 C625 1.495 1_554 S
C622 C621 1.389 1_556 S
C622 C623 1.366 1_556 S
C622 C624 1.500 . S
C623 H617 0.930 . S
C623 C619 1.400 . S
C623 C622 1.366 1_554 S
C624 C622 1.500 . S
C624 C626 1.381 . S
C624 C630 1.383 . S
C625 C621 1.495 1_556 S
C625 H631 0.959 . S
C625 H632 0.961 . S
C625 H633 0.960 . S
C626 C624 1.381 . S
C626 C627 1.394 . S
C626 H634 0.930 . S
C627 C626 1.394 . S
C627 C628 1.383 . S
C627 H635 0.929 . S
C628 C627 1.383 . S
C628 C629 1.377 . S
C629 H613 0.930 . S
C629 C628 1.377 . S
C629 C630 1.379 . S
C630 H614 0.931 . S
C630 C624 1.383 . S
C630 C629 1.379 . S
H631 C625 0.959 . S
H632 C625 0.961 . S
H633 C625 0.960 . S
H634 C626 0.930 . S
H635 C627 0.929 . S
H636 C644 0.929 . S
H637 C646 0.930 . S
H638 C648 0.930 . S
H639 C651 0.929 . S
H640 C654 0.930 . S
H641 C656 0.960 . S
H642 C656 0.960 1_655 S
H643 C656 0.960 1_655 S
C644 H636 0.929 . S
C644 C645 1.377 . S
C644 C646 1.384 . S
C645 C644 1.377 . S
C645 C651 1.390 . S
C646 H637 0.930 . S
C646 C644 1.384 . S
C646 C647 1.372 . S
C647 C646 1.372 . S
C647 C648 1.400 . S
C647 C652 1.490 . S
C648 H638 0.930 . S
C648 C647 1.400 . S
C648 C651 1.386 . S
H649 C665 0.930 . S
H650 C666 0.931 . S
C651 H639 0.929 . S
C651 C645 1.390 . S
C651 C648 1.386 . S
C652 C647 1.490 . S
C652 C654 1.395 . S
C652 C655 1.403 . S
H653 C659 0.930 . S
C654 H640 0.930 . S
C654 C652 1.395 . S
C654 C657 1.403 . S
C655 C652 1.403 . S
C655 C656 1.524 1_655 S
C655 C659 1.400 1_655 S
C656 H641 0.960 . S
C656 H642 0.960 1_455 S
C656 H643 0.960 1_455 S
C656 C655 1.524 1_455 S
C657 C654 1.403 . S
C657 C658 1.392 . S
C657 C661 1.495 . S
C658 C657 1.392 . S
C658 C659 1.385 1_655 S
C658 C660 1.478 1_655 S
C659 H653 0.930 . S
C659 C655 1.400 1_455 S
C659 C658 1.385 1_455 S
C660 C658 1.478 1_455 S
C660 C662 1.381 . S
C660 C666 1.383 . S
C661 C657 1.495 . S
C661 H667 0.959 . S
C661 H668 0.961 . S
C661 H669 0.960 . S
C662 C660 1.381 . S
C662 C663 1.394 . S
C662 H670 0.930 . S
C663 C662 1.394 . S
C663 C664 1.383 . S
C663 H671 0.929 . S
C664 C663 1.383 . S
C664 C665 1.377 . S
C665 H649 0.930 . S
C665 C664 1.377 . S
C665 C666 1.379 . S
C666 H650 0.931 . S
C666 C660 1.383 . S
C666 C665 1.379 . S
H667 C661 0.959 . S
H668 C661 0.961 . S
H669 C661 0.960 . S
H670 C662 0.930 . S
H671 C663 0.929 . S
H672 C680 0.929 . S
H673 C682 0.930 . S
H674 C684 0.930 . S
H675 C687 0.929 . S
H676 C690 0.930 . S
H677 C692 0.960 . S
H678 C692 0.960 . S
H679 C692 0.960 . S
C680 H672 0.929 . S
C680 C681 1.377 . S
C680 C682 1.384 . S
C681 C680 1.377 . S
C681 C687 1.390 . S
C682 H673 0.930 . S
C682 C680 1.384 . S
C682 C683 1.372 . S
C683 C682 1.372 . S
C683 C684 1.400 . S
C683 C688 1.490 . S
C684 H674 0.930 . S
C684 C683 1.400 . S
C684 C687 1.386 . S
H685 C701 0.930 . S
H686 C702 0.931 . S
C687 H675 0.929 . S
C687 C681 1.390 . S
C687 C684 1.386 . S
C688 C683 1.490 . S
C688 C690 1.395 1_545 S
C688 C691 1.403 . S
H689 C695 0.930 . S
C690 H676 0.930 . S
C690 C688 1.395 1_565 S
C690 C693 1.403 . S
C691 C688 1.403 . S
C691 C692 1.524 . S
C691 C695 1.400 1_545 S
C692 H677 0.960 . S
C692 H678 0.960 . S
C692 H679 0.960 . S
C692 C691 1.524 . S
C693 C690 1.403 . S
C693 C694 1.392 . S
C693 C697 1.495 . S
C694 C693 1.392 . S
C694 C695 1.385 . S
C694 C696 1.478 . S
C695 H689 0.930 . S
C695 C691 1.400 1_565 S
C695 C694 1.385 . S
C696 C694 1.478 . S
C696 C698 1.381 . S
C696 C702 1.383 . S
C697 C693 1.495 . S
C697 H703 0.959 . S
C697 H704 0.961 . S
C697 H705 0.960 . S
C698 C696 1.381 . S
C698 C699 1.394 . S
C698 H706 0.930 . S
C699 C698 1.394 . S
C699 C700 1.383 . S
C699 H707 0.929 . S
C700 C699 1.383 . S
C700 C701 1.377 . S
C701 H685 0.930 . S
C701 C700 1.377 . S
C701 C702 1.379 . S
C702 H686 0.931 . S
C702 C696 1.383 . S
C702 C701 1.379 . S
H703 C697 0.959 . S
H704 C697 0.961 . S
H705 C697 0.960 . S
H706 C698 0.930 . S
H707 C699 0.929 . S
H708 C716 0.929 . S
H709 C718 0.930 . S
H710 C720 0.930 . S
H711 C723 0.929 . S
H712 C726 0.930 . S
H713 C728 0.960 . S
H714 C728 0.960 . S
H715 C728 0.960 . S
C716 H708 0.929 . S
C716 C717 1.377 . S
C716 C718 1.384 . S
C717 C716 1.377 . S
C717 C723 1.390 . S
C718 H709 0.930 . S
C718 C716 1.384 . S
C718 C719 1.372 . S
C719 C718 1.372 . S
C719 C720 1.400 . S
C719 C724 1.490 . S
C720 H710 0.930 . S
C720 C719 1.400 . S
C720 C723 1.386 . S
H721 C737 0.930 . S
H722 C738 0.931 . S
C723 H711 0.929 . S
C723 C717 1.390 . S
C723 C720 1.386 . S
C724 C719 1.490 . S
C724 C726 1.395 . S
C724 C727 1.403 . S
H725 C731 0.930 . S
C726 H712 0.930 . S
C726 C724 1.395 . S
C726 C729 1.403 . S
C727 C724 1.403 . S
C727 C728 1.524 . S
C727 C731 1.400 . S
C728 H713 0.960 . S
C728 H714 0.960 . S
C728 H715 0.960 . S
C728 C727 1.524 . S
C729 C726 1.403 . S
C729 C730 1.392 . S
C729 C733 1.495 . S
C730 C729 1.392 . S
C730 C731 1.385 . S
C730 C732 1.478 . S
C731 H725 0.930 . S
C731 C727 1.400 . S
C731 C730 1.385 . S
C732 C730 1.478 . S
C732 C734 1.381 . S
C732 C738 1.383 . S
C733 C729 1.495 . S
C733 H739 0.959 . S
C733 H740 0.961 . S
C733 H741 0.960 . S
C734 C732 1.381 . S
C734 C735 1.394 . S
C734 H742 0.930 . S
C735 C734 1.394 . S
C735 C736 1.383 . S
C735 H743 0.929 . S
C736 C735 1.383 . S
C736 C737 1.377 . S
C737 H721 0.930 . S
C737 C736 1.377 . S
C737 C738 1.379 . S
C738 H722 0.931 . S
C738 C732 1.383 . S
C738 C737 1.379 . S
H739 C733 0.959 . S
H740 C733 0.961 . S
H741 C733 0.960 . S
H742 C734 0.930 . S
H743 C735 0.929 . S
H744 C752 0.929 . S
H745 C754 0.930 . S
H746 C756 0.930 . S
H747 C759 0.929 . S
H748 C762 0.930 . S
H749 C764 0.960 . S
H750 C764 0.960 . S
H751 C764 0.960 . S
C752 H744 0.929 . S
C752 C753 1.377 . S
C752 C754 1.384 . S
C753 C752 1.377 . S
C753 C759 1.390 . S
C754 H745 0.930 . S
C754 C752 1.384 . S
C754 C755 1.372 . S
C755 C754 1.372 . S
C755 C756 1.400 . S
C755 C760 1.490 . S
C756 H746 0.930 . S
C756 C755 1.400 . S
C756 C759 1.386 . S
H757 C773 0.930 . S
H758 C774 0.932 . S
C759 H747 0.929 . S
C759 C753 1.390 . S
C759 C756 1.386 . S
C760 C755 1.490 . S
C760 C762 1.395 . S
C760 C763 1.403 . S
H761 C767 0.930 . S
C762 H748 0.930 . S
C762 C760 1.395 . S
C762 C765 1.403 1_455 S
C763 C760 1.403 . S
C763 C764 1.524 . S
C763 C767 1.400 . S
C764 H749 0.960 . S
C764 H750 0.960 . S
C764 H751 0.960 . S
C764 C763 1.524 . S
C765 C762 1.403 1_655 S
C765 C766 1.392 . S
C765 C769 1.495 . S
C766 C765 1.392 . S
C766 C767 1.385 1_655 S
C766 C768 1.478 . S
C767 H761 0.930 . S
C767 C763 1.400 . S
C767 C766 1.385 1_455 S
C768 C766 1.478 . S
C768 C770 1.381 . S
C768 C774 1.383 . S
C769 C765 1.495 . S
C769 H775 0.959 . S
C769 H776 0.961 . S
C769 H777 0.960 . S
C770 C768 1.381 . S
C770 C771 1.394 . S
C770 H778 0.930 . S
C771 C770 1.394 . S
C771 C772 1.383 . S
C771 H779 0.929 . S
C772 C771 1.383 . S
C772 C773 1.377 . S
C773 H757 0.930 . S
C773 C772 1.377 . S
C773 C774 1.379 . S
C774 H758 0.932 . S
C774 C768 1.383 . S
C774 C773 1.379 . S
H775 C769 0.959 . S
H776 C769 0.961 . S
H777 C769 0.960 . S
H778 C770 0.930 . S
H779 C771 0.929 . S
H780 C788 0.929 . S
H781 C790 0.930 . S
H782 C792 0.930 . S
H783 C795 0.929 . S
H784 C798 0.930 . S
H785 C800 0.960 . S
H786 C800 0.960 . S
H787 C800 0.960 . S
C788 H780 0.929 . S
C788 C789 1.377 . S
C788 C790 1.384 . S
C789 C788 1.377 . S
C789 C795 1.390 . S
C790 H781 0.930 . S
C790 C788 1.384 . S
C790 C791 1.372 . S
C791 C790 1.372 . S
C791 C792 1.400 . S
C791 C796 1.490 . S
C792 H782 0.930 . S
C792 C791 1.400 . S
C792 C795 1.386 . S
H793 C809 0.930 . S
H794 C810 0.931 . S
C795 H783 0.929 . S
C795 C789 1.390 . S
C795 C792 1.386 . S
C796 C791 1.490 . S
C796 C798 1.395 . S
C796 C799 1.403 . S
H797 C803 0.930 1_565 S
C798 H784 0.930 . S
C798 C796 1.395 . S
C798 C801 1.403 . S
C799 C796 1.403 . S
C799 C800 1.524 . S
C799 C803 1.401 . S
C800 H785 0.960 . S
C800 H786 0.960 . S
C800 H787 0.960 . S
C800 C799 1.524 . S
C801 C798 1.403 . S
C801 C802 1.391 . S
C801 C805 1.495 . S
C802 C801 1.391 . S
C802 C803 1.383 . S
C802 C804 1.480 1_545 S
C803 H797 0.930 1_545 S
C803 C799 1.401 . S
C803 C802 1.383 . S
C804 C802 1.480 1_565 S
C804 C806 1.381 . S
C804 C810 1.383 . S
C805 C801 1.495 . S
C805 H811 0.959 . S
C805 H812 0.961 . S
C805 H813 0.960 . S
C806 C804 1.381 . S
C806 C807 1.394 . S
C806 H814 0.930 1_565 S
C807 C806 1.394 . S
C807 C808 1.383 . S
C807 H815 0.929 . S
C808 C807 1.383 . S
C808 C809 1.377 . S
C809 H793 0.930 . S
C809 C808 1.377 . S
C809 C810 1.379 . S
C810 H794 0.931 . S
C810 C804 1.383 . S
C810 C809 1.379 . S
H811 C805 0.959 . S
H812 C805 0.961 . S
H813 C805 0.960 . S
H814 C806 0.930 1_545 S
H815 C807 0.929 . S
H816 C824 0.929 . S
H817 C826 0.930 . S
H818 C828 0.930 . S
H819 C831 0.929 . S
H820 C834 0.930 . S
H821 C836 0.960 . S
H822 C836 0.960 . S
H823 C836 0.960 . S
C824 H816 0.929 . S
C824 C825 1.377 . S
C824 C826 1.384 . S
C825 C824 1.377 . S
C825 C831 1.390 . S
C826 H817 0.930 . S
C826 C824 1.384 . S
C826 C827 1.372 . S
C827 C826 1.372 . S
C827 C828 1.400 . S
C827 C832 1.490 . S
C828 H818 0.930 . S
C828 C827 1.400 . S
C828 C831 1.386 . S
H829 C845 0.930 . S
H830 C846 0.931 . S
C831 H819 0.929 . S
C831 C825 1.390 . S
C831 C828 1.386 . S
C832 C827 1.490 . S
C832 C834 1.395 . S
C832 C835 1.403 . S
H833 C839 0.930 . S
C834 H820 0.930 . S
C834 C832 1.395 . S
C834 C837 1.403 . S
C835 C832 1.403 . S
C835 C836 1.524 . S
C835 C839 1.400 . S
C836 H821 0.960 . S
C836 H822 0.960 . S
C836 H823 0.960 . S
C836 C835 1.524 . S
C837 C834 1.403 . S
C837 C838 1.392 . S
C837 C841 1.495 . S
C838 C837 1.392 . S
C838 C839 1.385 . S
C838 C840 1.478 . S
C839 H833 0.930 . S
C839 C835 1.400 . S
C839 C838 1.385 . S
C840 C838 1.478 . S
C840 C842 1.381 . S
C840 C846 1.383 . S
C841 C837 1.495 . S
C841 H847 0.959 . S
C841 H848 0.961 . S
C841 H849 0.960 . S
C842 C840 1.381 . S
C842 C843 1.394 . S
C842 H850 0.930 . S
C843 C842 1.394 . S
C843 C844 1.383 . S
C843 H851 0.929 . S
C844 C843 1.383 . S
C844 C845 1.377 . S
C845 H829 0.930 . S
C845 C844 1.377 . S
C845 C846 1.379 . S
C846 H830 0.931 . S
C846 C840 1.383 . S
C846 C845 1.379 . S
H847 C841 0.959 . S
H848 C841 0.961 . S
H849 C841 0.960 . S
H850 C842 0.930 . S
H851 C843 0.929 . S
H852 C860 0.929 . S
H853 C862 0.930 . S
H854 C864 0.930 . S
H855 C867 0.929 . S
H856 C870 0.930 . S
H857 C872 0.972 . S
H858 C872 0.947 1_655 S
H859 C872 0.963 1_655 S
C860 H852 0.929 . S
C860 C861 1.377 . S
C860 C862 1.384 . S
C861 C860 1.377 . S
C861 C867 1.390 . S
C862 H853 0.930 . S
C862 C860 1.384 . S
C862 C863 1.372 . S
C863 C862 1.372 . S
C863 C864 1.400 . S
C863 C868 1.490 . S
C864 H854 0.930 . S
C864 C863 1.400 . S
C864 C867 1.386 . S
H865 C881 0.930 . S
H866 C882 0.931 . S
C867 H855 0.929 . S
C867 C861 1.390 . S
C867 C864 1.386 . S
C868 C863 1.490 . S
C868 C870 1.395 . S
C868 C871 1.403 . S
H869 C875 0.930 . S
C870 H856 0.930 . S
C870 C868 1.395 . S
C870 C873 1.403 1_556 S
C871 C868 1.403 . S
C871 C872 1.522 1_655 S
C871 C875 1.400 1_655 S
C872 H857 0.972 . S
C872 H858 0.947 1_455 S
C872 H859 0.963 1_455 S
C872 C871 1.522 1_455 S
C873 C870 1.403 1_554 S
C873 C874 1.392 . S
C873 C877 1.495 . S
C874 C873 1.392 . S
C874 C875 1.385 1_654 S
C874 C876 1.478 1_655 S
C875 H869 0.930 . S
C875 C871 1.400 1_455 S
C875 C874 1.385 1_456 S
C876 C874 1.478 1_455 S
C876 C878 1.381 . S
C876 C882 1.383 . S
C877 C873 1.495 . S
C877 H883 0.959 . S
C877 H884 0.961 . S
C877 H885 0.960 . S
C878 C876 1.381 . S
C878 C879 1.394 . S
C878 H886 0.930 . S
C879 C878 1.394 . S
C879 C880 1.383 . S
C879 H887 0.929 . S
C880 C879 1.383 . S
C880 C881 1.377 . S
C881 H865 0.930 . S
C881 C880 1.377 . S
C881 C882 1.379 . S
C882 H866 0.931 . S
C882 C876 1.383 . S
C882 C881 1.379 . S
H883 C877 0.959 . S
H884 C877 0.961 . S
H885 C877 0.960 . S
H886 C878 0.930 . S
H887 C879 0.929 . S
H888 C896 0.929 . S
H889 C898 0.930 . S
H890 C900 0.930 . S
H891 C903 0.929 . S
H892 C906 0.930 . S
H893 C908 0.960 . S
H894 C908 0.960 . S
H895 C908 0.960 . S
C896 H888 0.929 . S
C896 C897 1.377 . S
C896 C898 1.384 . S
C897 C896 1.377 . S
C897 C903 1.390 . S
C898 H889 0.930 . S
C898 C896 1.384 . S
C898 C899 1.372 . S
C899 C898 1.372 . S
C899 C900 1.400 . S
C899 C904 1.490 . S
C900 H890 0.930 . S
C900 C899 1.400 . S
C900 C903 1.386 . S
H901 C917 0.930 . S
H902 C918 0.931 . S
C903 H891 0.929 . S
C903 C897 1.390 . S
C903 C900 1.386 . S
C904 C899 1.490 . S
C904 C906 1.395 . S
C904 C907 1.403 . S
H905 C911 0.933 . S
C906 H892 0.930 . S
C906 C904 1.395 . S
C906 C909 1.403 . S
C907 C904 1.403 . S
C907 C908 1.524 . S
C907 C911 1.400 . S
C908 H893 0.960 . S
C908 H894 0.960 . S
C908 H895 0.960 . S
C908 C907 1.524 . S
C909 C906 1.403 . S
C909 C910 1.392 1_565 S
C909 C913 1.495 1_565 S
C910 C909 1.392 1_545 S
C910 C911 1.385 1_545 S
C910 C912 1.478 . S
C911 H905 0.933 . S
C911 C907 1.400 . S
C911 C910 1.385 1_565 S
C912 C910 1.478 . S
C912 C914 1.381 . S
C912 C918 1.383 . S
C913 C909 1.495 1_545 S
C913 H919 0.959 1_545 S
C913 H920 0.961 . S
C913 H921 0.960 1_545 S
C914 C912 1.381 . S
C914 C915 1.394 . S
C914 H922 0.956 . S
C915 C914 1.394 . S
C915 C916 1.383 . S
C915 H923 0.929 . S
C916 C915 1.383 . S
C916 C917 1.377 . S
C917 H901 0.930 . S
C917 C916 1.377 . S
C917 C918 1.379 . S
C918 H902 0.931 . S
C918 C912 1.383 . S
C918 C917 1.379 . S
H919 C913 0.959 1_565 S
H920 C913 0.961 . S
H921 C913 0.960 1_565 S
H922 C914 0.956 . S
H923 C915 0.929 . S
H924 C932 0.929 . S
H925 C934 0.930 . S
H926 C936 0.930 . S
H927 C939 0.929 . S
H928 C942 0.930 . S
H929 C944 0.960 . S
H930 C944 0.960 . S
H931 C944 0.960 . S
C932 H924 0.929 . S
C932 C933 1.377 . S
C932 C934 1.384 . S
C933 C932 1.377 . S
C933 C939 1.390 . S
C934 H925 0.930 . S
C934 C932 1.384 . S
C934 C935 1.372 . S
C935 C934 1.372 . S
C935 C936 1.400 . S
C935 C940 1.490 . S
C936 H926 0.930 . S
C936 C935 1.400 . S
C936 C939 1.386 . S
H937 C953 0.930 . S
H938 C954 0.931 . S
C939 H927 0.929 . S
C939 C933 1.390 . S
C939 C936 1.386 . S
C940 C935 1.490 . S
C940 C942 1.395 . S
C940 C943 1.403 . S
H941 C947 0.930 . S
C942 H928 0.930 . S
C942 C940 1.395 . S
C942 C945 1.403 . S
C943 C940 1.403 . S
C943 C944 1.524 . S
C943 C947 1.400 . S
C944 H929 0.960 . S
C944 H930 0.960 . S
C944 H931 0.960 . S
C944 C943 1.524 . S
C945 C942 1.403 . S
C945 C946 1.392 . S
C945 C949 1.495 . S
C946 C945 1.392 . S
C946 C947 1.385 . S
C946 C948 1.478 . S
C947 H941 0.930 . S
C947 C943 1.400 . S
C947 C946 1.385 . S
C948 C946 1.478 . S
C948 C950 1.381 . S
C948 C954 1.383 . S
C949 C945 1.495 . S
C949 H955 0.959 . S
C949 H956 0.961 . S
C949 H957 0.960 . S
C950 C948 1.381 . S
C950 C951 1.394 . S
C950 H958 0.930 . S
C951 C950 1.394 . S
C951 C952 1.383 . S
C951 H959 0.929 . S
C952 C951 1.383 . S
C952 C953 1.377 . S
C953 H937 0.930 . S
C953 C952 1.377 . S
C953 C954 1.379 . S
C954 H938 0.931 . S
C954 C948 1.383 . S
C954 C953 1.379 . S
H955 C949 0.959 . S
H956 C949 0.961 . S
H957 C949 0.960 . S
H958 C950 0.930 . S
H959 C951 0.929 . S
H960 C968 0.929 . S
H961 C970 0.930 . S
H962 C972 0.930 . S
H963 C975 0.929 . S
H964 C978 0.930 . S
H965 C980 0.960 . S
H966 C980 0.960 1_455 S
H967 C980 0.960 1_455 S
C968 H960 0.929 . S
C968 C969 1.377 . S
C968 C970 1.384 . S
C969 C968 1.377 . S
C969 C975 1.390 . S
C970 H961 0.930 . S
C970 C968 1.384 . S
C970 C971 1.372 . S
C971 C970 1.372 . S
C971 C972 1.400 . S
C971 C976 1.490 . S
C972 H962 0.930 . S
C972 C971 1.400 . S
C972 C975 1.386 . S
H973 C989 0.930 . S
H974 C990 0.931 . S
C975 H963 0.929 . S
C975 C969 1.390 . S
C975 C972 1.386 . S
C976 C971 1.490 . S
C976 C978 1.395 . S
C976 C979 1.403 . S
H977 C983 0.930 . S
C978 H964 0.930 . S
C978 C976 1.395 . S
C978 C981 1.403 . S
C979 C976 1.403 . S
C979 C980 1.524 1_455 S
C979 C983 1.400 1_455 S
C980 H965 0.960 . S
C980 H966 0.960 1_655 S
C980 H967 0.960 1_655 S
C980 C979 1.524 1_655 S
C981 C978 1.403 . S
C981 C982 1.392 . S
C981 C985 1.495 . S
C982 C981 1.392 . S
C982 C983 1.385 1_455 S
C982 C984 1.478 1_455 S
C983 H977 0.930 . S
C983 C979 1.400 1_655 S
C983 C982 1.385 1_655 S
C984 C982 1.478 1_655 S
C984 C986 1.381 . S
C984 C990 1.383 . S
C985 C981 1.495 . S
C985 H991 0.959 . S
C985 H992 0.961 . S
C985 H993 0.960 . S
C986 C984 1.381 . S
C986 C987 1.394 . S
C986 H994 0.930 . S
C987 C986 1.394 . S
C987 C988 1.383 . S
C987 H995 0.929 . S
C988 C987 1.383 . S
C988 C989 1.377 . S
C989 H973 0.930 . S
C989 C988 1.377 . S
C989 C990 1.379 . S
C990 H974 0.931 . S
C990 C984 1.383 . S
C990 C989 1.379 . S
H991 C985 0.959 . S
H992 C985 0.961 . S
H993 C985 0.960 . S
H994 C986 0.930 . S
H995 C987 0.929 . S
H996 C1004 0.929 . S
H997 C1006 0.930 . S
H998 C1008 0.930 . S
H999 C1011 0.929 . S
H1000 C1014 0.930 . S
H1001 C1016 0.960 . S
H1002 C1016 0.960 . S
H1003 C1016 0.960 . S
C1004 H996 0.929 . S
C1004 C1005 1.377 . S
C1004 C1006 1.384 . S
C1005 C1004 1.377 . S
C1005 C1011 1.390 . S
C1006 H997 0.930 . S
C1006 C1004 1.384 . S
C1006 C1007 1.372 . S
C1007 C1006 1.372 . S
C1007 C1008 1.400 . S
C1007 C1012 1.490 . S
C1008 H998 0.930 . S
C1008 C1007 1.400 . S
C1008 C1011 1.386 . S
H1009 C1025 0.930 . S
H1010 C1026 0.931 . S
C1011 H999 0.929 . S
C1011 C1005 1.390 . S
C1011 C1008 1.386 . S
C1012 C1007 1.490 . S
C1012 C1014 1.395 . S
C1012 C1015 1.403 1_565 S
H1013 C1019 0.930 . S
C1014 H1000 0.930 . S
C1014 C1012 1.395 . S
C1014 C1017 1.403 1_565 S
C1015 C1012 1.403 1_545 S
C1015 C1016 1.524 . S
C1015 C1019 1.400 . S
C1016 H1001 0.960 . S
C1016 H1002 0.960 . S
C1016 H1003 0.960 . S
C1016 C1015 1.524 . S
C1017 C1014 1.403 1_545 S
C1017 C1018 1.392 . S
C1017 C1021 1.495 1_545 S
C1018 C1017 1.392 . S
C1018 C1019 1.385 . S
C1018 C1020 1.478 . S
C1019 H1013 0.930 . S
C1019 C1015 1.400 . S
C1019 C1018 1.385 . S
C1020 C1018 1.478 . S
C1020 C1022 1.381 . S
C1020 C1026 1.383 . S
C1021 C1017 1.495 1_565 S
C1021 H1027 0.959 . S
C1021 H1028 0.961 . S
C1021 H1029 0.960 1_565 S
C1022 C1020 1.381 . S
C1022 C1023 1.394 . S
C1022 H1030 0.930 . S
C1023 C1022 1.394 . S
C1023 C1024 1.383 . S
C1023 H1031 0.929 . S
C1024 C1023 1.383 . S
C1024 C1025 1.377 . S
C1025 H1009 0.930 . S
C1025 C1024 1.377 . S
C1025 C1026 1.379 . S
C1026 H1010 0.931 . S
C1026 C1020 1.383 . S
C1026 C1025 1.379 . S
H1027 C1021 0.959 . S
H1028 C1021 0.961 . S
H1029 C1021 0.960 1_545 S
H1030 C1022 0.930 . S
H1031 C1023 0.929 . S
C177 C123 1.133 . S
C196 C11 1.125 . S
C213 C25 1.130 . S
C232 C137 1.121 . S
C249 C39 1.135 . S
C268 C151 1.144 . S
C285 C53 1.135 . S
C304 C165 1.145 . S
C321 C95 1.136 . S
C340 C67 1.145 . S
C357 C81 1.134 . S
C376 C109 1.128 . S
C393 C134 0.664 . S
C412 C8 0.607 . S
C429 C22 0.678 . S
C448 C148 0.596 . S
C465 C162 0.669 . S
C484 C36 0.595 . S
C501 C50 0.671 . S
C520 C92 0.592 . S
C537 C106 0.654 . S
C556 C64 0.659 . S
C573 C120 0.683 . S
C592 C78 0.688 . S
C609 C7 1.169 . S
C628 C83 1.078 . S
C645 C21 1.172 . S
C664 C13 1.135 . S
C681 C27 1.114 . S
C700 C35 1.185 . S
C717 C49 1.171 . S
C736 C41 1.120 . S
C753 C63 1.170 . S
C772 C55 1.065 . S
C789 C77 1.175 . S
C808 C69 1.153 . S
C825 C91 1.175 . S
C844 C111 1.153 . S
C861 C105 1.172 . S
C880 C125 1.138 . S
C897 C119 1.176 . S
C916 C139 1.150 . S
C933 C133 1.172 . S
C952 C153 1.078 . S
C969 C147 1.171 . S
C988 C167 1.125 . S
C1005 C97 1.105 . S
C1024 C161 1.153 . S
