# Generated by pormake.
# Topology umw, (4)-cn, num edge types: 1
# Building blocks:
#     Node 0, Type 0, BuildingBlock: UXUYUI_clean_sbu_0, # of connection points: 4
#     Node 1, Type 0, BuildingBlock: UXUYUI_clean_sbu_0, # of connection points: 4
#     Node 2, Type 0, BuildingBlock: UXUYUI_clean_sbu_0, # of connection points: 4
#     Node 3, Type 0, BuildingBlock: UXUYUI_clean_sbu_0, # of connection points: 4
#     Node 4, Type 0, BuildingBlock: UXUYUI_clean_sbu_0, # of connection points: 4
#     Node 5, Type 0, BuildingBlock: UXUYUI_clean_sbu_0, # of connection points: 4
#     Node 6, Type 0, BuildingBlock: UXUYUI_clean_sbu_0, # of connection points: 4
#     Node 7, Type 0, BuildingBlock: UXUYUI_clean_sbu_0, # of connection points: 4
#     Edge 8, Type (0, 0), BuildingBlock: OJICUG_clean_linker_0, # of connection points: 2
#     Edge 9, Type (0, 0), BuildingBlock: OJICUG_clean_linker_0, # of connection points: 2
#     Edge 10, Type (0, 0), BuildingBlock: OJICUG_clean_linker_0, # of connection points: 2
#     Edge 11, Type (0, 0), BuildingBlock: OJICUG_clean_linker_0, # of connection points: 2
#     Edge 12, Type (0, 0), BuildingBlock: OJICUG_clean_linker_0, # of connection points: 2
#     Edge 13, Type (0, 0), BuildingBlock: OJICUG_clean_linker_0, # of connection points: 2
#     Edge 14, Type (0, 0), BuildingBlock: OJICUG_clean_linker_0, # of connection points: 2
#     Edge 15, Type (0, 0), BuildingBlock: OJICUG_clean_linker_0, # of connection points: 2
#     Edge 16, Type (0, 0), BuildingBlock: OJICUG_clean_linker_0, # of connection points: 2
#     Edge 17, Type (0, 0), BuildingBlock: OJICUG_clean_linker_0, # of connection points: 2
#     Edge 18, Type (0, 0), BuildingBlock: OJICUG_clean_linker_0, # of connection points: 2
#     Edge 19, Type (0, 0), BuildingBlock: OJICUG_clean_linker_0, # of connection points: 2
#     Edge 20, Type (0, 0), BuildingBlock: OJICUG_clean_linker_0, # of connection points: 2
#     Edge 21, Type (0, 0), BuildingBlock: OJICUG_clean_linker_0, # of connection points: 2
#     Edge 22, Type (0, 0), BuildingBlock: OJICUG_clean_linker_0, # of connection points: 2
#     Edge 23, Type (0, 0), BuildingBlock: OJICUG_clean_linker_0, # of connection points: 2
# Relax obj value: 0.239
# Max RMSD: 0.148
# Mean RMSD: 0.148
data_MOF--net-umw--node1-UXUYUI_clean_sbu_0--edge1-OJICUG_clean_linker_0
_symmetry_space_group_name_H-M    P1
_symmetry_Int_Tables_number       1
_symmetry_cell_setting            triclinic
loop_
_symmetry_equiv_pos_as_xyz
'x, y, z'
_cell_length_a     51.693745
_cell_length_b     51.689035
_cell_length_c     28.604964
_cell_angle_alpha  90.000397
_cell_angle_beta   90.00246
_cell_angle_gamma 89.998269
loop_
_atom_site_label
_atom_site_type_symbol
_atom_site_fract_x
_atom_site_fract_y
_atom_site_fract_z
_atom_type_partial_charge
Li0 Li 0.38228 0.14391 0.26433 0.0
Li1 Li 0.41388 0.17327 0.30991 0.0
Li2 Li 0.37348 0.18931 0.27836 0.0
Li3 Li 0.40731 0.17889 0.22593 0.0
C4 C 0.35837 0.16499 0.35633 0.0
N5 N 0.31751 0.17384 0.4166 0.0
C6 C 0.36197 0.17986 0.39662 0.0
C7 C 0.33411 0.15418 0.34725 0.0
C8 C 0.34104 0.18424 0.42651 0.0
C9 C 0.31367 0.15898 0.37799 0.0
C10 C 0.44115 0.14028 0.23287 0.0
C11 C 0.48554 0.14531 0.20865 0.0
N12 N 0.48189 0.12696 0.17521 0.0
C13 C 0.43786 0.12136 0.19849 0.0
C14 C 0.4652 0.15227 0.23824 0.0
C15 C 0.45869 0.11493 0.16962 0.0
C16 C 0.36634 0.09685 0.22106 0.0
N17 N 0.3709 0.10916 0.2622 0.0
C18 C 0.36475 0.06997 0.30495 0.0
C19 C 0.36986 0.09644 0.30371 0.0
C20 C 0.36089 0.05641 0.26297 0.0
C21 C 0.36122 0.07029 0.22064 0.0
H22 H 0.36749 0.10749 0.18856 0.0
H23 H 0.37395 0.10673 0.3358 0.0
C24 C 0.43484 0.19468 0.39056 0.0
N25 N 0.43708 0.17466 0.36016 0.0
C26 C 0.45027 0.19559 0.43048 0.0
C27 C 0.4711 0.15607 0.40527 0.0
C28 C 0.4548 0.1556 0.36644 0.0
C29 C 0.46867 0.17603 0.43851 0.0
H30 H 0.42063 0.20963 0.38427 0.0
H31 H 0.4561 0.13994 0.34149 0.0
C32 C 0.34633 0.1721 0.19824 0.0
N33 N 0.29793 0.17646 0.15784 0.0
C34 C 0.34179 0.19066 0.16363 0.0
C35 C 0.32642 0.15528 0.21129 0.0
C36 C 0.31714 0.19271 0.14394 0.0
C37 C 0.30205 0.15791 0.19072 0.0
C38 C 0.40933 0.23011 0.25885 0.0
C39 C 0.39184 0.23824 0.22471 0.0
C40 C 0.42776 0.24743 0.2761 0.0
C41 C 0.39317 0.2636 0.208 0.0
C42 C 0.4285 0.27264 0.25849 0.0
N43 N 0.41133 0.28013 0.22508 0.0
C44 C 0.35733 0.23054 0.33077 0.0
C45 C 0.32213 0.21318 0.28806 0.0
C46 C 0.34096 0.2474 0.35445 0.0
N47 N 0.3478 0.21371 0.29857 0.0
C48 C 0.30496 0.22994 0.31085 0.0
C49 C 0.31432 0.2472 0.34496 0.0
H50 H 0.37762 0.22999 0.33981 0.0
H51 H 0.31477 0.19931 0.26325 0.0
C52 C 0.42212 0.17227 0.13141 0.0
N53 N 0.42685 0.18627 0.17072 0.0
C54 C 0.43919 0.1735 0.09355 0.0
C55 C 0.46481 0.20463 0.13633 0.0
C56 C 0.4475 0.20251 0.17358 0.0
C57 C 0.46109 0.18953 0.09611 0.0
H58 H 0.40582 0.15915 0.13044 0.0
H59 H 0.45138 0.21275 0.20574 0.0
O60 O 0.37842 0.16119 0.32577 0.0
O61 O 0.42075 0.1475 0.26038 0.0
O62 O 0.37044 0.16958 0.21746 0.0
O63 O 0.40838 0.2054 0.27583 0.0
H64 H 0.3806 0.18824 0.40447 0.0
H65 H 0.33106 0.14224 0.31679 0.0
H66 H 0.3435 0.19597 0.45751 0.0
H67 H 0.29475 0.15088 0.37115 0.0
H68 H 0.5042 0.1546 0.21211 0.0
H69 H 0.41933 0.11198 0.19377 0.0
H70 H 0.46797 0.16714 0.26442 0.0
H71 H 0.45639 0.10045 0.14262 0.0
H72 H 0.3651 0.06003 0.33827 0.0
H73 H 0.35812 0.06063 0.18752 0.0
H74 H 0.44726 0.21116 0.45519 0.0
H75 H 0.48536 0.14089 0.40912 0.0
H76 H 0.35718 0.20319 0.15166 0.0
H77 H 0.32971 0.1403 0.23686 0.0
H78 H 0.31333 0.2071 0.11736 0.0
H79 H 0.28643 0.14515 0.2008 0.0
H80 H 0.37729 0.22517 0.21165 0.0
H81 H 0.44137 0.24141 0.30272 0.0
H82 H 0.37972 0.27015 0.18156 0.0
H83 H 0.4427 0.28624 0.27141 0.0
H84 H 0.34907 0.2598 0.38121 0.0
H85 H 0.2846 0.22921 0.30214 0.0
H86 H 0.43561 0.16163 0.06302 0.0
H87 H 0.48166 0.21693 0.13993 0.0
Li88 Li 0.82721 0.41366 0.56062 0.0
Li89 Li 0.85639 0.38203 0.51459 0.0
Li90 Li 0.82133 0.40725 0.47652 0.0
Li91 Li 0.81098 0.37328 0.52877 0.0
C92 C 0.86018 0.4408 0.48301 0.0
N93 N 0.87363 0.48118 0.42462 0.0
C94 C 0.87903 0.43724 0.44859 0.0
C95 C 0.84833 0.46494 0.48804 0.0
C96 C 0.88553 0.45789 0.41935 0.0
C97 C 0.85535 0.4851 0.45809 0.0
C98 C 0.83579 0.35753 0.60568 0.0
C99 C 0.84191 0.31243 0.62443 0.0
N100 N 0.8277 0.31566 0.66401 0.0
C101 C 0.82158 0.36048 0.64691 0.0
C102 C 0.84631 0.33339 0.59463 0.0
C103 C 0.81758 0.33906 0.6758 0.0
C104 C 0.80634 0.43365 0.64238 0.0
N105 N 0.82586 0.43666 0.61116 0.0
C106 C 0.84382 0.47122 0.65578 0.0
C107 C 0.84437 0.45501 0.61681 0.0
C108 C 0.82437 0.46804 0.68978 0.0
C109 C 0.80538 0.44897 0.68243 0.0
H110 H 0.7918 0.41895 0.63657 0.0
H111 H 0.85967 0.4569 0.59125 0.0
C112 C 0.90329 0.36566 0.47115 0.0
N113 N 0.89105 0.37043 0.51228 0.0
C114 C 0.92982 0.36041 0.47068 0.0
C115 C 0.93026 0.36421 0.55495 0.0
C116 C 0.90381 0.36945 0.55375 0.0
C117 C 0.94374 0.36016 0.51296 0.0
H118 H 0.89261 0.36677 0.43867 0.0
H119 H 0.89359 0.37371 0.58584 0.0
C120 C 0.77017 0.4101 0.51112 0.0
N121 N 0.71973 0.41406 0.48013 0.0
C122 C 0.76065 0.39266 0.47809 0.0
C123 C 0.75401 0.42946 0.52872 0.0
C124 C 0.7351 0.39499 0.46278 0.0
C125 C 0.72857 0.43119 0.51251 0.0
C126 C 0.8271 0.34672 0.44751 0.0
C127 C 0.80773 0.34324 0.414 0.0
C128 C 0.84367 0.3262 0.45833 0.0
C129 C 0.80462 0.31898 0.39319 0.0
C130 C 0.83998 0.30225 0.43669 0.0
N131 N 0.82064 0.29915 0.40493 0.0
C132 C 0.82767 0.42202 0.38198 0.0
C133 C 0.79768 0.44758 0.42441 0.0
C134 C 0.82641 0.43908 0.3441 0.0
N135 N 0.81381 0.42685 0.42143 0.0
C136 C 0.79554 0.46488 0.38713 0.0
C137 C 0.8105 0.46107 0.34677 0.0
H138 H 0.8407 0.40566 0.38091 0.0
H139 H 0.78757 0.45154 0.45665 0.0
C140 C 0.77015 0.35709 0.5819 0.0
N141 N 0.78659 0.34763 0.54901 0.0
C142 C 0.75332 0.34073 0.60567 0.0
C143 C 0.77003 0.30487 0.56074 0.0
C144 C 0.78678 0.32203 0.5379 0.0
C145 C 0.75315 0.31416 0.59553 0.0
H146 H 0.77098 0.37732 0.59134 0.0
H147 H 0.80036 0.31471 0.51254 0.0
O148 O 0.85289 0.42057 0.51087 0.0
O149 O 0.83919 0.37807 0.57606 0.0
O150 O 0.79509 0.40818 0.52678 0.0
O151 O 0.83065 0.37043 0.4678 0.0
H152 H 0.88829 0.41864 0.44412 0.0
H153 H 0.83351 0.46792 0.51423 0.0
H154 H 0.89995 0.45537 0.39233 0.0
H155 H 0.84617 0.50382 0.46127 0.0
H156 H 0.84977 0.2936 0.61606 0.0
H157 H 0.81344 0.37901 0.65626 0.0
H158 H 0.85768 0.33082 0.56333 0.0
H159 H 0.80637 0.34102 0.70754 0.0
H160 H 0.85854 0.48599 0.65912 0.0
H161 H 0.79024 0.44539 0.70773 0.0
H162 H 0.93944 0.35719 0.43756 0.0
H163 H 0.94024 0.36462 0.58822 0.0
H164 H 0.7728 0.37735 0.46487 0.0
H165 H 0.76111 0.44304 0.55453 0.0
H166 H 0.72748 0.38159 0.4372 0.0
H167 H 0.71586 0.44613 0.52569 0.0
H168 H 0.79539 0.35914 0.40369 0.0
H169 H 0.85928 0.32872 0.48297 0.0
H170 H 0.78959 0.31597 0.36744 0.0
H171 H 0.85254 0.28616 0.44504 0.0
H172 H 0.83817 0.43542 0.31347 0.0
H173 H 0.78334 0.4818 0.39083 0.0
H174 H 0.74124 0.34877 0.63295 0.0
H175 H 0.77047 0.28456 0.55153 0.0
Li176 Li 0.58591 0.82663 0.81008 0.0
Li177 Li 0.61751 0.85596 0.7644 0.0
Li178 Li 0.59252 0.8209 0.7261 0.0
Li179 Li 0.62635 0.81059 0.77861 0.0
C180 C 0.55861 0.85945 0.73288 0.0
N181 N 0.51783 0.87255 0.67515 0.0
C182 C 0.56183 0.87835 0.69844 0.0
C183 C 0.5346 0.84737 0.73828 0.0
C184 C 0.54098 0.88467 0.66953 0.0
C185 C 0.51423 0.85423 0.70865 0.0
C186 C 0.64144 0.83505 0.85645 0.0
C187 C 0.68621 0.84098 0.87778 0.0
N188 N 0.68234 0.82641 0.91674 0.0
C189 C 0.63783 0.82048 0.8971 0.0
C190 C 0.66574 0.84567 0.84702 0.0
C191 C 0.65877 0.8162 0.92698 0.0
C192 C 0.5651 0.8053 0.89089 0.0
N193 N 0.56273 0.82524 0.86035 0.0
C194 C 0.52861 0.84371 0.90541 0.0
C195 C 0.54489 0.8442 0.86654 0.0
C196 C 0.5312 0.82384 0.93879 0.0
C197 C 0.54971 0.80437 0.93084 0.0
H198 H 0.57941 0.79042 0.88467 0.0
H199 H 0.54348 0.8598 0.84148 0.0
C200 C 0.63333 0.90301 0.72096 0.0
N201 N 0.62889 0.8907 0.76216 0.0
C202 C 0.63846 0.92956 0.72047 0.0
C203 C 0.63521 0.9299 0.80482 0.0
C204 C 0.63008 0.90342 0.80365 0.0
C205 C 0.63894 0.94344 0.76279 0.0
H206 H 0.63206 0.89236 0.68848 0.0
H207 H 0.62609 0.89315 0.83579 0.0
C208 C 0.59048 0.76969 0.75952 0.0
N209 N 0.58837 0.71953 0.72651 0.0
C210 C 0.60795 0.76137 0.72551 0.0
C211 C 0.57201 0.75249 0.77702 0.0
C212 C 0.60657 0.73594 0.70919 0.0
C213 C 0.57122 0.72721 0.7598 0.0
C214 C 0.65344 0.82763 0.69831 0.0
C215 C 0.65789 0.80892 0.66392 0.0
C216 C 0.6734 0.84446 0.71102 0.0
C217 C 0.6825 0.80675 0.64411 0.0
C218 C 0.69773 0.84171 0.69035 0.0
N219 N 0.70176 0.82303 0.65769 0.0
C220 C 0.57775 0.82741 0.63158 0.0
C221 C 0.5524 0.79714 0.67374 0.0
C222 C 0.56069 0.82617 0.59371 0.0
N223 N 0.57302 0.81342 0.67089 0.0
C224 C 0.53508 0.79501 0.63648 0.0
C225 C 0.53878 0.81012 0.59626 0.0
H226 H 0.59403 0.84055 0.63062 0.0
H227 H 0.54853 0.7869 0.7059 0.0
C228 C 0.64254 0.76963 0.83152 0.0
N229 N 0.65204 0.78624 0.79894 0.0
C230 C 0.65891 0.7528 0.85528 0.0
C231 C 0.69483 0.76983 0.81095 0.0
C232 C 0.67767 0.78658 0.78811 0.0
C233 C 0.68551 0.75279 0.84545 0.0
H234 H 0.62228 0.77032 0.84075 0.0
H235 H 0.68501 0.80027 0.76296 0.0
O236 O 0.57903 0.85233 0.76042 0.0
O237 O 0.62137 0.83875 0.82591 0.0
O238 O 0.59148 0.79448 0.77614 0.0
O239 O 0.62937 0.83025 0.71764 0.0
H240 H 0.58032 0.88778 0.6937 0.0
H241 H 0.53188 0.83253 0.76451 0.0
H242 H 0.54324 0.89912 0.64248 0.0
H243 H 0.49562 0.84488 0.71212 0.0
H244 H 0.70516 0.84893 0.87066 0.0
H245 H 0.61916 0.81226 0.90522 0.0
H246 H 0.66881 0.85738 0.81628 0.0
H247 H 0.6563 0.8047 0.95826 0.0
H248 H 0.51426 0.85881 0.90918 0.0
H249 H 0.55284 0.78888 0.95566 0.0
H250 H 0.64144 0.93922 0.68732 0.0
H251 H 0.63498 0.93984 0.83814 0.0
H252 H 0.62253 0.77436 0.71227 0.0
H253 H 0.55841 0.75866 0.80355 0.0
H254 H 0.62001 0.72924 0.68285 0.0
H255 H 0.55699 0.71369 0.77292 0.0
H256 H 0.64246 0.79637 0.65219 0.0
H257 H 0.67016 0.85957 0.73638 0.0
H258 H 0.68624 0.79225 0.61771 0.0
H259 H 0.71338 0.8545 0.70017 0.0
H260 H 0.56426 0.83804 0.56319 0.0
H261 H 0.51824 0.7827 0.64008 0.0
H262 H 0.65083 0.74058 0.88233 0.0
H263 H 0.71516 0.7704 0.80196 0.0
Li264 Li 0.14363 0.61786 0.01425 0.0
Li265 Li 0.17287 0.58624 0.06005 0.0
Li266 Li 0.18902 0.62659 0.02845 0.0
Li267 Li 0.17861 0.59272 0.97609 0.0
C268 C 0.16466 0.64175 0.10636 0.0
N269 N 0.17356 0.68255 0.16677 0.0
C270 C 0.17936 0.63805 0.14682 0.0
C271 C 0.15404 0.66609 0.09717 0.0
C272 C 0.18378 0.65894 0.17677 0.0
C273 C 0.15887 0.6865 0.12799 0.0
C274 C 0.13993 0.55897 0.98293 0.0
C275 C 0.14484 0.51452 0.95896 0.0
N276 N 0.12663 0.51822 0.92529 0.0
C277 C 0.12115 0.56231 0.94831 0.0
C278 C 0.15179 0.53487 0.98854 0.0
C279 C 0.11473 0.54146 0.91945 0.0
C280 C 0.09663 0.63388 0.97082 0.0
N281 N 0.10892 0.62931 0.01199 0.0
C282 C 0.06971 0.63551 0.05466 0.0
C283 C 0.09618 0.63038 0.05347 0.0
C284 C 0.05618 0.63937 0.01266 0.0
C285 C 0.07008 0.63903 0.97036 0.0
H286 H 0.10728 0.6327 0.93834 0.0
H287 H 0.10644 0.62628 0.08558 0.0
C288 C 0.19427 0.5652 0.14062 0.0
N289 N 0.17416 0.56309 0.11037 0.0
C290 C 0.19518 0.54977 0.18053 0.0
C291 C 0.15543 0.52923 0.15568 0.0
C292 C 0.15499 0.54552 0.11683 0.0
C293 C 0.1755 0.53151 0.18873 0.0
H294 H 0.2093 0.57931 0.1342 0.0
H295 H 0.13926 0.54432 0.09199 0.0
C296 C 0.17197 0.65368 0.94814 0.0
N297 N 0.17651 0.70201 0.90753 0.0
C298 C 0.19059 0.65812 0.91359 0.0
C299 C 0.1552 0.67366 0.96104 0.0
C300 C 0.19272 0.68274 0.89379 0.0
C301 C 0.15791 0.69799 0.94036 0.0
C302 C 0.22978 0.59064 0.00923 0.0
C303 C 0.23802 0.60811 0.97516 0.0
C304 C 0.247 0.57213 0.02653 0.0
C305 C 0.26338 0.60669 0.95856 0.0
C306 C 0.27222 0.5713 0.00903 0.0
N307 N 0.27982 0.58845 0.97568 0.0
C308 C 0.23012 0.64274 0.08113 0.0
C309 C 0.21301 0.6779 0.03798 0.0
C310 C 0.24695 0.65911 0.10487 0.0
N311 N 0.21342 0.65225 0.0487 0.0
C312 C 0.22976 0.69507 0.06081 0.0
C313 C 0.24688 0.68573 0.09518 0.0
H314 H 0.22948 0.62247 0.0903 0.0
H315 H 0.19926 0.68525 0.01296 0.0
C316 C 0.17221 0.57792 0.88151 0.0
N317 N 0.18605 0.57312 0.92098 0.0
C318 C 0.17348 0.56084 0.84368 0.0
C319 C 0.20435 0.53507 0.88681 0.0
C320 C 0.20218 0.5524 0.92404 0.0
C321 C 0.18941 0.53885 0.84641 0.0
H322 H 0.15917 0.59428 0.88039 0.0
H323 H 0.2123 0.54848 0.95631 0.0
O324 O 0.16083 0.62174 0.07575 0.0
O325 O 0.14715 0.57937 0.01043 0.0
O326 O 0.16937 0.6296 0.96746 0.0
O327 O 0.20505 0.59166 0.02611 0.0
H328 H 0.18759 0.61936 0.15474 0.0
H329 H 0.14224 0.66923 0.06657 0.0
H330 H 0.19538 0.6564 0.20791 0.0
H331 H 0.15093 0.70548 0.12106 0.0
H332 H 0.15402 0.49582 0.96261 0.0
H333 H 0.11189 0.58087 0.9434 0.0
H334 H 0.16654 0.53206 0.01492 0.0
H335 H 0.10037 0.54381 0.89227 0.0
H336 H 0.05976 0.63517 0.08797 0.0
H337 H 0.06044 0.64212 0.93722 0.0
H338 H 0.21083 0.55264 0.20511 0.0
H339 H 0.14016 0.51509 0.15969 0.0
H340 H 0.2031 0.64268 0.90175 0.0
H341 H 0.14018 0.67044 0.98656 0.0
H342 H 0.20716 0.68647 0.86726 0.0
H343 H 0.14518 0.71366 0.95032 0.0
H344 H 0.22501 0.62271 0.96206 0.0
H345 H 0.2409 0.55852 0.05311 0.0
H346 H 0.27002 0.62013 0.93216 0.0
H347 H 0.28576 0.55704 0.02199 0.0
H348 H 0.25923 0.65102 0.13182 0.0
H349 H 0.22913 0.71542 0.05192 0.0
H350 H 0.16174 0.56447 0.81301 0.0
H351 H 0.21655 0.51816 0.89055 0.0
Li352 Li 0.40712 0.82222 0.32081 0.0
Li353 Li 0.37356 0.81147 0.26823 0.0
Li354 Li 0.41415 0.82705 0.2364 0.0
Li355 Li 0.38241 0.85695 0.28068 0.0
C356 C 0.40873 0.77035 0.28693 0.0
N357 N 0.40935 0.71963 0.31727 0.0
C358 C 0.39306 0.7627 0.32415 0.0
C359 C 0.42471 0.75224 0.265 0.0
C360 C 0.39363 0.73697 0.33902 0.0
C361 C 0.42477 0.72668 0.28089 0.0
C362 C 0.34574 0.82989 0.34643 0.0
C363 C 0.30173 0.84519 0.35189 0.0
N364 N 0.2966 0.82655 0.38413 0.0
C365 C 0.34015 0.81124 0.38038 0.0
C366 C 0.3265 0.84731 0.33271 0.0
C367 C 0.31514 0.80972 0.39871 0.0
C368 C 0.42252 0.8298 0.41493 0.0
N369 N 0.42651 0.81502 0.37629 0.0
C370 C 0.46361 0.79538 0.41143 0.0
C371 C 0.44636 0.79779 0.37413 0.0
C372 C 0.46066 0.81118 0.45097 0.0
C373 C 0.43956 0.8283 0.4528 0.0
H374 H 0.40685 0.84367 0.41534 0.0
H375 H 0.44966 0.78686 0.3425 0.0
C376 C 0.35734 0.77066 0.21514 0.0
N377 N 0.34794 0.78688 0.24845 0.0
C378 C 0.34098 0.75378 0.19149 0.0
C379 C 0.30528 0.76993 0.23746 0.0
C380 C 0.32243 0.78675 0.26016 0.0
C381 C 0.31448 0.7533 0.2022 0.0
H382 H 0.37748 0.77175 0.20521 0.0
H383 H 0.31513 0.80015 0.28585 0.0
C384 C 0.44186 0.85989 0.312 0.0
N385 N 0.48373 0.87206 0.36784 0.0
C386 C 0.4398 0.87943 0.34554 0.0
C387 C 0.46526 0.84667 0.30655 0.0
C388 C 0.46118 0.88527 0.3735 0.0
C389 C 0.48619 0.85308 0.3352 0.0
C390 C 0.35924 0.83439 0.18846 0.0
C391 C 0.36418 0.82083 0.14713 0.0
C392 C 0.33416 0.84309 0.19776 0.0
C393 C 0.34383 0.81565 0.11638 0.0
C394 C 0.31433 0.83752 0.16615 0.0
N395 N 0.31952 0.82398 0.12649 0.0
C396 C 0.43581 0.80497 0.1567 0.0
C397 C 0.45508 0.84455 0.17992 0.0
C398 C 0.45134 0.80398 0.11692 0.0
N399 N 0.43763 0.82528 0.18656 0.0
C400 C 0.47149 0.84402 0.14125 0.0
C401 C 0.46942 0.8238 0.10847 0.0
H402 H 0.42174 0.78989 0.16317 0.0
H403 H 0.45605 0.86045 0.20442 0.0
C404 C 0.36934 0.90613 0.32008 0.0
N405 N 0.3711 0.89182 0.28035 0.0
C406 C 0.36442 0.93271 0.31739 0.0
C407 C 0.36209 0.92887 0.23326 0.0
C408 C 0.36721 0.90252 0.23755 0.0
C409 C 0.36132 0.94451 0.27339 0.0
H410 H 0.37272 0.89709 0.35364 0.0
H411 H 0.36896 0.89072 0.20652 0.0
O412 O 0.40843 0.79541 0.27164 0.0
O413 O 0.37021 0.83187 0.32847 0.0
O414 O 0.42088 0.85322 0.28547 0.0
O415 O 0.37877 0.83894 0.21979 0.0
H416 H 0.38058 0.77649 0.34116 0.0
H417 H 0.43695 0.7579 0.23604 0.0
H418 H 0.38156 0.73078 0.36782 0.0
H419 H 0.43705 0.71244 0.2643 0.0
H420 H 0.28663 0.85843 0.34128 0.0
H421 H 0.35497 0.79823 0.39291 0.0
H422 H 0.33061 0.86242 0.30778 0.0
H423 H 0.31052 0.79526 0.42474 0.0
H424 H 0.47983 0.78222 0.40837 0.0
H425 H 0.43658 0.84074 0.48279 0.0
H426 H 0.34895 0.7419 0.16384 0.0
H427 H 0.28503 0.77013 0.24712 0.0
H428 H 0.4218 0.88975 0.35033 0.0
H429 H 0.46708 0.83131 0.28105 0.0
H430 H 0.45982 0.90022 0.39984 0.0
H431 H 0.50434 0.84286 0.33167 0.0
H432 H 0.38344 0.81414 0.13904 0.0
H433 H 0.33 0.85389 0.22913 0.0
H434 H 0.34737 0.80494 0.08452 0.0
H435 H 0.2948 0.84395 0.17318 0.0
H436 H 0.44861 0.7882 0.09256 0.0
H437 H 0.4855 0.8594 0.13711 0.0
H438 H 0.36426 0.94404 0.34923 0.0
H439 H 0.35941 0.93702 0.19872 0.0
Li440 Li 0.1777 0.40739 0.57061 0.0
Li441 Li 0.18856 0.37376 0.51816 0.0
Li442 Li 0.17264 0.4143 0.48614 0.0
Li443 Li 0.14301 0.38238 0.53068 0.0
C444 C 0.22951 0.41009 0.53541 0.0
N445 N 0.28052 0.41294 0.56357 0.0
C446 C 0.23867 0.39376 0.57056 0.0
C447 C 0.24627 0.4278 0.51437 0.0
C448 C 0.26453 0.39549 0.58437 0.0
C449 C 0.272 0.42898 0.52916 0.0
C450 C 0.17109 0.3464 0.59747 0.0
C451 C 0.15708 0.30212 0.60592 0.0
N452 N 0.17633 0.29799 0.63746 0.0
C453 C 0.19038 0.34186 0.63075 0.0
C454 C 0.154 0.3265 0.5856 0.0
C455 C 0.19285 0.3172 0.65025 0.0
C456 C 0.17013 0.42272 0.66469 0.0
N457 N 0.18491 0.4268 0.62608 0.0
C458 C 0.20444 0.46391 0.66141 0.0
C459 C 0.20208 0.4467 0.62402 0.0
C460 C 0.18863 0.46087 0.70091 0.0
C461 C 0.17157 0.43972 0.70263 0.0
H462 H 0.1563 0.407 0.66502 0.0
H463 H 0.21299 0.4501 0.59242 0.0
C464 C 0.22928 0.35764 0.46482 0.0
N465 N 0.21324 0.34824 0.49841 0.0
C466 C 0.24616 0.3413 0.44112 0.0
C467 C 0.23039 0.30564 0.48762 0.0
C468 C 0.21356 0.32276 0.51037 0.0
C469 C 0.24682 0.31484 0.45206 0.0
H470 H 0.22805 0.37776 0.45475 0.0
H471 H 0.20029 0.31547 0.53627 0.0
C472 C 0.13967 0.44174 0.56217 0.0
N473 N 0.12718 0.48327 0.61862 0.0
C474 C 0.1201 0.43941 0.5956 0.0
C475 C 0.15275 0.46525 0.55715 0.0
C476 C 0.1141 0.46062 0.62386 0.0
C477 C 0.14619 0.486 0.58611 0.0
C478 C 0.16531 0.35884 0.4392 0.0
C479 C 0.17854 0.36325 0.39732 0.0
C480 C 0.15676 0.33389 0.44987 0.0
C481 C 0.1835 0.34248 0.36735 0.0
C482 C 0.16209 0.31363 0.41902 0.0
N483 N 0.17529 0.3183 0.37877 0.0
C484 C 0.19421 0.43538 0.40557 0.0
C485 C 0.15532 0.45553 0.43011 0.0
C486 C 0.19514 0.4509 0.36577 0.0
N487 N 0.17427 0.43767 0.43614 0.0
C488 C 0.15581 0.47192 0.39142 0.0
C489 C 0.17566 0.46943 0.35801 0.0
H490 H 0.20905 0.421 0.41158 0.0
H491 H 0.13969 0.45685 0.45514 0.0
C492 C 0.09396 0.36876 0.57015 0.0
N493 N 0.10826 0.37072 0.53044 0.0
C494 C 0.06741 0.3637 0.56743 0.0
C495 C 0.07127 0.36157 0.48328 0.0
C496 C 0.09758 0.36686 0.48761 0.0
C497 C 0.05563 0.36064 0.5234 0.0
H498 H 0.10298 0.37214 0.60374 0.0
H499 H 0.10934 0.36878 0.45658 0.0
O500 O 0.2043 0.40869 0.52115 0.0
O501 O 0.16817 0.3705 0.5784 0.0
O502 O 0.1465 0.42093 0.53536 0.0
O503 O 0.161 0.37877 0.46979 0.0
H504 H 0.22597 0.37983 0.58668 0.0
H505 H 0.23943 0.44054 0.48697 0.0
H506 H 0.27189 0.38294 0.61155 0.0
H507 H 0.2852 0.44264 0.51327 0.0
H508 H 0.1441 0.28651 0.59676 0.0
H509 H 0.20314 0.35724 0.64187 0.0
H510 H 0.1384 0.32984 0.56122 0.0
H511 H 0.20781 0.31338 0.67579 0.0
H512 H 0.21755 0.48017 0.65844 0.0
H513 H 0.15912 0.43667 0.73258 0.0
H514 H 0.25789 0.34926 0.41325 0.0
H515 H 0.23033 0.28542 0.49747 0.0
H516 H 0.10988 0.42132 0.60006 0.0
H517 H 0.16814 0.46727 0.53176 0.0
H518 H 0.09912 0.45905 0.65011 0.0
H519 H 0.15631 0.50423 0.58292 0.0
H520 H 0.18513 0.38241 0.38821 0.0
H521 H 0.14626 0.33015 0.48177 0.0
H522 H 0.19394 0.34559 0.33506 0.0
H523 H 0.15576 0.29419 0.4271 0.0
H524 H 0.21061 0.44785 0.3409 0.0
H525 H 0.1407 0.48628 0.38777 0.0
H526 H 0.05609 0.36342 0.59926 0.0
H527 H 0.06314 0.35891 0.44872 0.0
Li528 Li 0.62633 0.18841 0.76811 0.0
Li529 Li 0.59266 0.17763 0.82049 0.0
Li530 Li 0.61746 0.1429 0.78048 0.0
Li531 Li 0.58574 0.17278 0.73611 0.0
C532 C 0.65388 0.17021 0.84672 0.0
N533 N 0.70277 0.17409 0.88533 0.0
C534 C 0.65912 0.18904 0.88054 0.0
C535 C 0.67334 0.15289 0.8336 0.0
C536 C 0.684 0.19083 0.89932 0.0
C537 C 0.69797 0.15529 0.85323 0.0
C538 C 0.59064 0.22944 0.78676 0.0
C539 C 0.57288 0.2725 0.78236 0.0
N540 N 0.58893 0.28006 0.81748 0.0
C541 C 0.60698 0.23762 0.82266 0.0
C542 C 0.57348 0.24698 0.76628 0.0
C543 C 0.60583 0.26329 0.83776 0.0
C544 C 0.64257 0.22941 0.71548 0.0
N545 N 0.65198 0.213 0.74848 0.0
C546 C 0.6947 0.22975 0.73733 0.0
C547 C 0.67752 0.21293 0.75996 0.0
C548 C 0.68549 0.24657 0.70238 0.0
C549 C 0.65896 0.2463 0.69192 0.0
H550 H 0.62239 0.22847 0.70572 0.0
H551 H 0.68482 0.19937 0.78537 0.0
C552 C 0.57734 0.17013 0.91465 0.0
N553 N 0.57324 0.18482 0.87594 0.0
C554 C 0.56032 0.17159 0.95255 0.0
C555 C 0.53605 0.2043 0.91106 0.0
C556 C 0.55327 0.20192 0.87373 0.0
C557 C 0.53912 0.18859 0.95068 0.0
H558 H 0.5931 0.15635 0.91511 0.0
H559 H 0.54986 0.21276 0.84204 0.0
C560 C 0.64091 0.16539 0.6887 0.0
N561 N 0.68105 0.17565 0.62757 0.0
C562 C 0.63632 0.17916 0.64746 0.0
C563 C 0.66584 0.15642 0.69834 0.0
C564 C 0.65688 0.18427 0.61714 0.0
C565 C 0.6859 0.1619 0.66715 0.0
C566 C 0.55809 0.13982 0.81181 0.0
C567 C 0.56035 0.12032 0.84539 0.0
C568 C 0.5346 0.15288 0.80649 0.0
C569 C 0.53906 0.11437 0.8735 0.0
C570 C 0.51377 0.14637 0.8353 0.0
N571 N 0.51642 0.12743 0.86796 0.0
C572 C 0.63079 0.09376 0.81987 0.0
C573 C 0.63249 0.09732 0.73731 0.0
C574 C 0.6357 0.06718 0.81716 0.0
N575 N 0.62882 0.10804 0.78014 0.0
C576 C 0.63761 0.07097 0.73299 0.0
C577 C 0.63858 0.05535 0.77313 0.0
H578 H 0.62758 0.10282 0.85347 0.0
H579 H 0.63057 0.10909 0.70628 0.0
C580 C 0.56433 0.19476 0.65611 0.0
N581 N 0.56234 0.17455 0.68617 0.0
C582 C 0.54881 0.19574 0.61631 0.0
C583 C 0.52836 0.15592 0.64099 0.0
C584 C 0.54476 0.15539 0.67968 0.0
C585 C 0.53058 0.17604 0.60803 0.0
H586 H 0.57849 0.20976 0.66249 0.0
H587 H 0.54366 0.13956 0.70433 0.0
O588 O 0.62955 0.16797 0.82832 0.0
O589 O 0.59147 0.20443 0.77126 0.0
O590 O 0.62117 0.16093 0.71964 0.0
O591 O 0.57897 0.14659 0.78512 0.0
H592 H 0.64411 0.20197 0.89262 0.0
H593 H 0.66949 0.13765 0.80877 0.0
H594 H 0.68835 0.20542 0.92527 0.0
H595 H 0.71324 0.14212 0.84309 0.0
H596 H 0.55966 0.28629 0.76692 0.0
H597 H 0.62046 0.22431 0.8384 0.0
H598 H 0.56074 0.2409 0.73832 0.0
H599 H 0.6184 0.26989 0.86554 0.0
H600 H 0.71498 0.22939 0.74678 0.0
H601 H 0.65098 0.25834 0.66452 0.0
H602 H 0.56339 0.15922 0.9826 0.0
H603 H 0.51974 0.21735 0.90796 0.0
H604 H 0.61716 0.18609 0.63914 0.0
H605 H 0.66973 0.14547 0.72966 0.0
H606 H 0.65362 0.19513 0.58536 0.0
H607 H 0.70533 0.15526 0.67445 0.0
H608 H 0.57842 0.11011 0.85008 0.0
H609 H 0.53263 0.16822 0.78097 0.0
H610 H 0.54057 0.09944 0.89987 0.0
H611 H 0.49555 0.15648 0.83188 0.0
H612 H 0.63603 0.05587 0.84902 0.0
H613 H 0.64012 0.0628 0.69842 0.0
H614 H 0.55165 0.21144 0.59181 0.0
H615 H 0.51423 0.14064 0.63699 0.0
Li616 Li 0.81131 0.62615 0.01845 0.0
Li617 Li 0.82222 0.59265 0.07108 0.0
Li618 Li 0.85681 0.61742 0.03078 0.0
Li619 Li 0.82696 0.58558 0.98674 0.0
C620 C 0.83002 0.65419 0.09626 0.0
N621 N 0.82718 0.70354 0.13327 0.0
C622 C 0.81167 0.66003 0.13061 0.0
C623 C 0.84738 0.67331 0.08175 0.0
C624 C 0.81041 0.68513 0.14859 0.0
C625 C 0.84552 0.69817 0.1006 0.0
C626 C 0.77035 0.59123 0.03797 0.0
C627 C 0.72636 0.57602 0.03261 0.0
N628 N 0.71987 0.59125 0.06958 0.0
C629 C 0.76326 0.60671 0.07581 0.0
C630 C 0.75179 0.57575 0.01608 0.0
C631 C 0.73764 0.60647 0.09132 0.0
C632 C 0.77035 0.64229 0.96559 0.0
N633 N 0.78666 0.65172 0.99873 0.0
C634 C 0.76975 0.6944 0.98762 0.0
C635 C 0.78658 0.67725 0.01031 0.0
C636 C 0.75305 0.68516 0.9525 0.0
C637 C 0.75345 0.65865 0.94196 0.0
H638 H 0.77138 0.62213 0.95575 0.0
H639 H 0.80005 0.68458 0.03586 0.0
C640 C 0.83002 0.57724 0.16518 0.0
N641 N 0.81518 0.57325 0.12662 0.0
C642 C 0.82858 0.5602 0.20306 0.0
C643 C 0.79561 0.53613 0.16184 0.0
C644 C 0.79796 0.55338 0.12453 0.0
C645 C 0.81146 0.53909 0.20131 0.0
H646 H 0.84388 0.59293 0.16553 0.0
H647 H 0.78699 0.55007 0.09295 0.0
C648 C 0.83393 0.64025 0.93824 0.0
N649 N 0.82297 0.67946 0.87553 0.0
C650 C 0.82021 0.63492 0.89724 0.0
C651 C 0.8425 0.66545 0.94683 0.0
C652 C 0.81475 0.65502 0.8661 0.0
C653 C 0.83666 0.68502 0.91486 0.0
C654 C 0.85991 0.55793 0.06201 0.0
C655 C 0.87948 0.55991 0.09551 0.0
C656 C 0.84671 0.53453 0.0564 0.0
C657 C 0.88537 0.53845 0.12325 0.0
C658 C 0.85317 0.51352 0.08484 0.0
N659 N 0.87218 0.51591 0.11743 0.0
C660 C 0.90602 0.6305 0.06999 0.0
C661 C 0.90229 0.63281 0.98749 0.0
C662 C 0.93258 0.6355 0.06723 0.0
N663 N 0.89166 0.62879 0.03031 0.0
C664 C 0.92862 0.63802 0.98313 0.0
C665 C 0.94431 0.63874 0.0232 0.0
H666 H 0.89704 0.62702 0.10356 0.0
H667 H 0.89046 0.63111 0.9565 0.0
C668 C 0.80474 0.5633 0.90762 0.0
N669 N 0.82529 0.56201 0.93704 0.0
C670 C 0.80385 0.54767 0.86797 0.0
C671 C 0.8445 0.5285 0.89152 0.0
C672 C 0.8449 0.54499 0.93008 0.0
C673 C 0.82402 0.53003 0.85918 0.0
H674 H 0.78941 0.57706 0.91432 0.0
H675 H 0.86099 0.54443 0.95424 0.0
O676 O 0.83175 0.62963 0.07864 0.0
O677 O 0.79529 0.59123 0.02206 0.0
O678 O 0.83875 0.62096 0.96994 0.0
O679 O 0.8532 0.57897 0.03569 0.0
H680 H 0.79869 0.64533 0.14371 0.0
H681 H 0.86225 0.66903 0.05644 0.0
H682 H 0.79619 0.68993 0.17495 0.0
H683 H 0.85872 0.71317 0.08938 0.0
H684 H 0.71178 0.56412 0.01604 0.0
H685 H 0.77741 0.61877 0.09286 0.0
H686 H 0.75701 0.56366 0.98666 0.0
H687 H 0.73189 0.61839 0.12061 0.0
H688 H 0.77001 0.71466 0.99716 0.0
H689 H 0.7415 0.65064 0.91443 0.0
H690 H 0.84106 0.56318 0.23299 0.0
H691 H 0.78246 0.5199 0.15885 0.0
H692 H 0.8136 0.61556 0.8897 0.0
H693 H 0.85342 0.6699 0.97794 0.0
H694 H 0.80392 0.65119 0.83449 0.0
H695 H 0.84299 0.70464 0.92134 0.0
H696 H 0.88979 0.57791 0.10042 0.0
H697 H 0.83132 0.53277 0.03093 0.0
H698 H 0.90035 0.53976 0.14955 0.0
H699 H 0.84296 0.49537 0.08118 0.0
H700 H 0.94395 0.63563 0.09902 0.0
H701 H 0.93672 0.6408 0.94858 0.0
H702 H 0.78784 0.54997 0.84393 0.0
H703 H 0.86018 0.51484 0.88709 0.0
C704 C 0.49226 0.15271 0.50286 0.0
C705 C 0.48473 0.1761 0.48174 0.0
H706 H 0.51319 0.13426 0.55767 0.0
C707 C 0.49231 0.19951 0.50276 0.0
H708 H 0.48644 0.13425 0.48843 0.0
C709 C 0.50673 0.19951 0.54402 0.0
C710 C 0.51452 0.17611 0.56481 0.0
H711 H 0.48731 0.21795 0.48732 0.0
H712 H 0.51158 0.21795 0.55964 0.0
C713 C 0.5072 0.15272 0.54344 0.0
C714 C 0.84754 0.49243 0.75332 0.0
C715 C 0.82421 0.48408 0.73302 0.0
H716 H 0.86583 0.51402 0.80748 0.0
C717 C 0.80078 0.49087 0.75485 0.0
H718 H 0.86603 0.48725 0.73824 0.0
C719 C 0.80072 0.50531 0.79607 0.0
C720 C 0.82405 0.51392 0.81604 0.0
H721 H 0.78236 0.48521 0.74005 0.0
H722 H 0.78229 0.50954 0.81232 0.0
C723 C 0.84745 0.50739 0.79389 0.0
C724 C 0.49259 0.84713 0.04365 0.0
C725 C 0.48546 0.82374 0.06522 0.0
H726 H 0.51317 0.86561 0.98843 0.0
C727 C 0.49341 0.80035 0.0446 0.0
H728 H 0.48648 0.86558 0.05774 0.0
C729 C 0.50778 0.80035 0.0033 0.0
C730 C 0.51518 0.82376 0.98206 0.0
H731 H 0.48871 0.78191 0.06038 0.0
H732 H 0.5129 0.7819 0.98799 0.0
C733 C 0.5075 0.84715 0.00302 0.0
C734 C 0.15227 0.49316 0.29392 0.0
C735 C 0.17569 0.48554 0.31486 0.0
H736 H 0.13377 0.51418 0.23924 0.0
C737 C 0.19907 0.49308 0.29371 0.0
H738 H 0.13383 0.48737 0.30846 0.0
C739 C 0.19902 0.50755 0.25252 0.0
C740 C 0.1756 0.51543 0.23191 0.0
H741 H 0.21753 0.48799 0.30901 0.0
H742 H 0.21744 0.51238 0.23679 0.0
C743 C 0.15223 0.50814 0.25337 0.0
C744 C 0.30464 0.28957 0.38418 0.0
C745 C 0.29662 0.26453 0.3716 0.0
H746 H 0.29583 0.32453 0.4205 0.0
C747 C 0.27206 0.25599 0.38618 0.0
H748 H 0.32326 0.29698 0.37316 0.0
C749 C 0.25598 0.27212 0.4127 0.0
C750 C 0.26413 0.29713 0.42541 0.0
H751 H 0.26538 0.2367 0.37769 0.0
H752 H 0.23703 0.2651 0.42265 0.0
C753 C 0.28872 0.30555 0.41096 0.0
C754 C 0.71097 0.30467 0.63555 0.0
C755 C 0.73583 0.29645 0.62216 0.0
H756 H 0.67617 0.29596 0.67244 0.0
C757 C 0.74418 0.27168 0.63589 0.0
H758 H 0.70371 0.32346 0.6252 0.0
C759 C 0.72805 0.25557 0.66236 0.0
C760 C 0.70323 0.2639 0.67586 0.0
H761 H 0.76332 0.26484 0.62677 0.0
H762 H 0.7349 0.23645 0.67164 0.0
C763 C 0.695 0.28872 0.66227 0.0
C764 C 0.744 0.72776 0.91265 0.0
C765 C 0.73573 0.70288 0.92589 0.0
H766 H 0.73469 0.76309 0.87724 0.0
C767 C 0.711 0.69458 0.91199 0.0
H768 H 0.76306 0.73468 0.92217 0.0
C769 C 0.69507 0.71054 0.88522 0.0
C770 C 0.70321 0.73547 0.8721 0.0
H771 H 0.7038 0.67569 0.92195 0.0
H772 H 0.67634 0.70322 0.87462 0.0
C773 C 0.7279 0.74389 0.88614 0.0
C774 C 0.28915 0.69534 0.13479 0.0
C775 C 0.26419 0.70344 0.12184 0.0
H776 H 0.32403 0.70412 0.17138 0.0
C777 C 0.25572 0.72809 0.13605 0.0
H778 H 0.29651 0.67665 0.12406 0.0
C779 C 0.27184 0.74419 0.16255 0.0
C780 C 0.29677 0.73597 0.17562 0.0
H781 H 0.23649 0.73484 0.12728 0.0
H782 H 0.26488 0.76322 0.17221 0.0
C783 C 0.30511 0.71128 0.16155 0.0
C784 C 0.37289 0.98605 0.23328 0.0
C785 C 0.35933 0.97311 0.26894 0.0
H786 H 0.38408 0.02229 0.20362 0.0
C787 C 0.34497 0.98781 0.30114 0.0
H788 H 0.38458 0.97542 0.20842 0.0
C789 C 0.34471 0.01484 0.29836 0.0
C790 C 0.35881 0.02774 0.26333 0.0
H791 H 0.33405 0.97843 0.32865 0.0
H792 H 0.33367 0.02566 0.32392 0.0
C793 C 0.37259 0.01299 0.23047 0.0
C794 C 0.98531 0.34394 0.54831 0.0
C795 C 0.97241 0.35802 0.51326 0.0
H796 H 0.02172 0.33331 0.57863 0.0
C797 C 0.98714 0.37179 0.48036 0.0
H798 H 0.97449 0.33292 0.5739 0.0
C799 C 0.01408 0.37211 0.48319 0.0
C800 C 0.02703 0.35858 0.51889 0.0
H801 H 0.97784 0.38325 0.45349 0.0
H802 H 0.02469 0.38381 0.45833 0.0
C803 C 0.01234 0.34422 0.5511 0.0
C804 C 0.6271 0.98686 0.73044 0.0
C805 C 0.64102 0.97211 0.76312 0.0
H806 H 0.61502 0.02442 0.70853 0.0
C807 C 0.65527 0.98502 0.79795 0.0
H808 H 0.6155 0.97755 0.70376 0.0
C809 C 0.65503 0.01205 0.80071 0.0
C810 C 0.64054 0.02675 0.76869 0.0
H811 H 0.66641 0.9742 0.82336 0.0
H812 H 0.66608 0.02143 0.82806 0.0
C813 C 0.62682 0.0138 0.73324 0.0
C814 C 0.98583 0.62735 0.98292 0.0
C815 C 0.97289 0.64083 0.01866 0.0
H816 H 0.02208 0.61624 0.95319 0.0
C817 C 0.98757 0.65519 0.05088 0.0
H818 H 0.97521 0.61567 0.95803 0.0
C819 C 0.01459 0.6555 0.04807 0.0
C820 C 0.02751 0.64145 0.01299 0.0
H821 H 0.97819 0.66606 0.07845 0.0
H822 H 0.0254 0.66654 0.07366 0.0
C823 C 0.01278 0.62769 0.98008 0.0
C824 C 0.51014 0.21248 0.00642 0.0
C825 C 0.51946 0.18894 0.98851 0.0
H826 H 0.48437 0.23113 0.05457 0.0
C827 C 0.50924 0.16564 0.00585 0.0
H828 H 0.51772 0.23072 0.99373 0.0
C829 C 0.49001 0.16588 0.04023 0.0
C830 C 0.4808 0.18942 0.05836 0.0
H831 H 0.51583 0.14721 0.99229 0.0
H832 H 0.48262 0.14762 0.05317 0.0
C833 C 0.49115 0.21272 0.04127 0.0
C834 C 0.78757 0.51023 0.25724 0.0
C835 C 0.81111 0.51942 0.23913 0.0
H836 H 0.76891 0.48456 0.30557 0.0
C837 C 0.8344 0.50907 0.25627 0.0
H838 H 0.76934 0.5179 0.24471 0.0
C839 C 0.83414 0.48985 0.29067 0.0
C840 C 0.81061 0.48076 0.309 0.0
H841 H 0.85282 0.51557 0.24255 0.0
H842 H 0.8524 0.48236 0.30345 0.0
C843 C 0.78733 0.49123 0.2921 0.0
C844 C 0.50864 0.78697 0.5415 0.0
C845 C 0.51906 0.81026 0.55854 0.0
H846 H 0.482 0.76901 0.49406 0.0
C847 C 0.50989 0.8338 0.54039 0.0
H848 H 0.51538 0.76855 0.55482 0.0
C849 C 0.49065 0.83408 0.50603 0.0
C850 C 0.48035 0.8108 0.48875 0.0
H851 H 0.51733 0.85205 0.55329 0.0
H852 H 0.4841 0.85251 0.49245 0.0
C853 C 0.48963 0.78724 0.50669 0.0
C854 C 0.21266 0.50871 0.7918 0.0
C855 C 0.18934 0.51916 0.80865 0.0
H856 H 0.2307 0.48209 0.74442 0.0
C857 C 0.16583 0.51004 0.79027 0.0
H858 H 0.23105 0.51541 0.80532 0.0
C859 C 0.16563 0.49082 0.75586 0.0
C860 C 0.18894 0.48051 0.73875 0.0
H861 H 0.14757 0.51751 0.80302 0.0
H862 H 0.14722 0.48431 0.7421 0.0
C863 C 0.21246 0.48973 0.75692 0.0
loop_
_geom_bond_atom_site_label_1
_geom_bond_atom_site_label_2
_geom_bond_distance
_geom_bond_site_symmetry_2
_ccdc_geom_bond_type
Li0 N17 1.990 . S
Li0 O60 1.956 . S
Li0 O61 1.970 . S
Li0 O62 1.961 . S
Li1 N25 1.990 . S
Li1 O60 1.970 . S
Li1 O61 1.956 . S
Li1 O63 1.961 . S
Li2 N47 1.990 . S
Li2 O60 1.961 . S
Li2 O62 1.956 . S
Li2 O63 1.970 . S
Li3 N53 1.990 . S
Li3 O61 1.961 . S
Li3 O62 1.970 . S
Li3 O63 1.956 . S
C4 C6 1.348 . S
C4 C7 1.356 . S
C4 O60 1.325 . S
N5 C8 1.314 . S
N5 C9 1.279 . S
C6 C4 1.348 . S
C6 C8 1.353 . S
C6 H64 0.929 . S
C7 C4 1.356 . S
C7 C9 1.358 . S
C7 H65 0.930 . S
C8 N5 1.314 . S
C8 C6 1.353 . S
C8 H66 0.930 . S
C9 N5 1.279 . S
C9 C7 1.358 . S
C9 H67 0.930 . S
C10 C13 1.348 . S
C10 C14 1.356 . S
C10 O61 1.325 . S
C11 N12 1.279 . S
C11 C14 1.358 . S
C11 H68 0.930 . S
N12 C11 1.279 . S
N12 C15 1.314 . S
C13 C10 1.348 . S
C13 C15 1.353 . S
C13 H69 0.929 . S
C14 C10 1.356 . S
C14 C11 1.358 . S
C14 H70 0.930 . S
C15 N12 1.314 . S
C15 C13 1.353 . S
C15 H71 0.930 . S
C16 N17 1.314 . S
C16 C21 1.353 . S
C16 H22 0.930 . S
N17 Li0 1.990 . S
N17 C16 1.314 . S
N17 C19 1.279 . S
C18 C19 1.358 . S
C18 C20 1.356 . S
C18 H72 0.930 . S
C19 N17 1.279 . S
C19 C18 1.358 . S
C19 H23 0.930 . S
C20 C18 1.356 . S
C20 C21 1.348 . S
C21 C16 1.353 . S
C21 C20 1.348 . S
C21 H73 0.929 . S
H22 C16 0.930 . S
H23 C19 0.930 . S
C24 N25 1.314 . S
C24 C26 1.353 . S
C24 H30 0.930 . S
N25 Li1 1.990 . S
N25 C24 1.314 . S
N25 C28 1.279 . S
C26 C24 1.353 . S
C26 C29 1.348 . S
C26 H74 0.929 . S
C27 C28 1.358 . S
C27 C29 1.356 . S
C27 H75 0.930 . S
C28 N25 1.279 . S
C28 C27 1.358 . S
C28 H31 0.930 . S
C29 C26 1.348 . S
C29 C27 1.356 . S
H30 C24 0.930 . S
H31 C28 0.930 . S
C32 C34 1.348 . S
C32 C35 1.356 . S
C32 O62 1.325 . S
N33 C36 1.314 . S
N33 C37 1.279 . S
C34 C32 1.348 . S
C34 C36 1.353 . S
C34 H76 0.929 . S
C35 C32 1.356 . S
C35 C37 1.358 . S
C35 H77 0.930 . S
C36 N33 1.314 . S
C36 C34 1.353 . S
C36 H78 0.930 . S
C37 N33 1.279 . S
C37 C35 1.358 . S
C37 H79 0.930 . S
C38 C39 1.348 . S
C38 C40 1.356 . S
C38 O63 1.325 . S
C39 C38 1.348 . S
C39 C41 1.353 . S
C39 H80 0.929 . S
C40 C38 1.356 . S
C40 C42 1.358 . S
C40 H81 0.930 . S
C41 C39 1.353 . S
C41 N43 1.314 . S
C41 H82 0.930 . S
C42 C40 1.358 . S
C42 N43 1.279 . S
C42 H83 0.930 . S
N43 C41 1.314 . S
N43 C42 1.279 . S
C44 C46 1.353 . S
C44 N47 1.314 . S
C44 H50 0.930 . S
C45 N47 1.279 . S
C45 C48 1.358 . S
C45 H51 0.930 . S
C46 C44 1.353 . S
C46 C49 1.348 . S
C46 H84 0.929 . S
N47 Li2 1.990 . S
N47 C44 1.314 . S
N47 C45 1.279 . S
C48 C45 1.358 . S
C48 C49 1.356 . S
C48 H85 0.930 . S
C49 C46 1.348 . S
C49 C48 1.356 . S
H50 C44 0.930 . S
H51 C45 0.930 . S
C52 N53 1.314 . S
C52 C54 1.353 . S
C52 H58 0.930 . S
N53 Li3 1.990 . S
N53 C52 1.314 . S
N53 C56 1.279 . S
C54 C52 1.353 . S
C54 C57 1.348 . S
C54 H86 0.929 . S
C55 C56 1.358 . S
C55 C57 1.356 . S
C55 H87 0.930 . S
C56 N53 1.279 . S
C56 C55 1.358 . S
C56 H59 0.930 . S
C57 C54 1.348 . S
C57 C55 1.356 . S
H58 C52 0.930 . S
H59 C56 0.930 . S
O60 Li0 1.956 . S
O60 Li1 1.970 . S
O60 Li2 1.961 . S
O60 C4 1.325 . S
O61 Li0 1.970 . S
O61 Li1 1.956 . S
O61 Li3 1.961 . S
O61 C10 1.325 . S
O62 Li0 1.961 . S
O62 Li2 1.956 . S
O62 Li3 1.970 . S
O62 C32 1.325 . S
O63 Li1 1.961 . S
O63 Li2 1.970 . S
O63 Li3 1.956 . S
O63 C38 1.325 . S
H64 C6 0.929 . S
H65 C7 0.930 . S
H66 C8 0.930 . S
H67 C9 0.930 . S
H68 C11 0.930 . S
H69 C13 0.929 . S
H70 C14 0.930 . S
H71 C15 0.930 . S
H72 C18 0.930 . S
H73 C21 0.929 . S
H74 C26 0.929 . S
H75 C27 0.930 . S
H76 C34 0.929 . S
H77 C35 0.930 . S
H78 C36 0.930 . S
H79 C37 0.930 . S
H80 C39 0.929 . S
H81 C40 0.930 . S
H82 C41 0.930 . S
H83 C42 0.930 . S
H84 C46 0.929 . S
H85 C48 0.930 . S
H86 C54 0.929 . S
H87 C55 0.930 . S
Li88 N105 1.990 . S
Li88 O148 1.956 . S
Li88 O149 1.970 . S
Li88 O150 1.961 . S
Li89 N113 1.990 . S
Li89 O148 1.970 . S
Li89 O149 1.956 . S
Li89 O151 1.961 . S
Li90 N135 1.990 . S
Li90 O148 1.961 . S
Li90 O150 1.956 . S
Li90 O151 1.970 . S
Li91 N141 1.990 . S
Li91 O149 1.961 . S
Li91 O150 1.970 . S
Li91 O151 1.956 . S
C92 C94 1.348 . S
C92 C95 1.356 . S
C92 O148 1.325 . S
N93 C96 1.314 . S
N93 C97 1.279 . S
C94 C92 1.348 . S
C94 C96 1.353 . S
C94 H152 0.929 . S
C95 C92 1.356 . S
C95 C97 1.358 . S
C95 H153 0.930 . S
C96 N93 1.314 . S
C96 C94 1.353 . S
C96 H154 0.930 . S
C97 N93 1.279 . S
C97 C95 1.358 . S
C97 H155 0.930 . S
C98 C101 1.348 . S
C98 C102 1.356 . S
C98 O149 1.325 . S
C99 N100 1.279 . S
C99 C102 1.358 . S
C99 H156 0.930 . S
N100 C99 1.279 . S
N100 C103 1.314 . S
C101 C98 1.348 . S
C101 C103 1.353 . S
C101 H157 0.929 . S
C102 C98 1.356 . S
C102 C99 1.358 . S
C102 H158 0.930 . S
C103 N100 1.314 . S
C103 C101 1.353 . S
C103 H159 0.930 . S
C104 N105 1.314 . S
C104 C109 1.353 . S
C104 H110 0.930 . S
N105 Li88 1.990 . S
N105 C104 1.314 . S
N105 C107 1.279 . S
C106 C107 1.358 . S
C106 C108 1.356 . S
C106 H160 0.930 . S
C107 N105 1.279 . S
C107 C106 1.358 . S
C107 H111 0.930 . S
C108 C106 1.356 . S
C108 C109 1.348 . S
C109 C104 1.353 . S
C109 C108 1.348 . S
C109 H161 0.929 . S
H110 C104 0.930 . S
H111 C107 0.930 . S
C112 N113 1.314 . S
C112 C114 1.353 . S
C112 H118 0.930 . S
N113 Li89 1.990 . S
N113 C112 1.314 . S
N113 C116 1.279 . S
C114 C112 1.353 . S
C114 C117 1.348 . S
C114 H162 0.929 . S
C115 C116 1.358 . S
C115 C117 1.356 . S
C115 H163 0.930 . S
C116 N113 1.279 . S
C116 C115 1.358 . S
C116 H119 0.930 . S
C117 C114 1.348 . S
C117 C115 1.356 . S
H118 C112 0.930 . S
H119 C116 0.930 . S
C120 C122 1.348 . S
C120 C123 1.356 . S
C120 O150 1.325 . S
N121 C124 1.314 . S
N121 C125 1.279 . S
C122 C120 1.348 . S
C122 C124 1.353 . S
C122 H164 0.929 . S
C123 C120 1.356 . S
C123 C125 1.358 . S
C123 H165 0.930 . S
C124 N121 1.314 . S
C124 C122 1.353 . S
C124 H166 0.930 . S
C125 N121 1.279 . S
C125 C123 1.358 . S
C125 H167 0.930 . S
C126 C127 1.348 . S
C126 C128 1.356 . S
C126 O151 1.325 . S
C127 C126 1.348 . S
C127 C129 1.353 . S
C127 H168 0.929 . S
C128 C126 1.356 . S
C128 C130 1.358 . S
C128 H169 0.930 . S
C129 C127 1.353 . S
C129 N131 1.314 . S
C129 H170 0.930 . S
C130 C128 1.358 . S
C130 N131 1.279 . S
C130 H171 0.930 . S
N131 C129 1.314 . S
N131 C130 1.279 . S
C132 C134 1.353 . S
C132 N135 1.314 . S
C132 H138 0.930 . S
C133 N135 1.279 . S
C133 C136 1.358 . S
C133 H139 0.930 . S
C134 C132 1.353 . S
C134 C137 1.348 . S
C134 H172 0.929 . S
N135 Li90 1.990 . S
N135 C132 1.314 . S
N135 C133 1.279 . S
C136 C133 1.358 . S
C136 C137 1.356 . S
C136 H173 0.930 . S
C137 C134 1.348 . S
C137 C136 1.356 . S
H138 C132 0.930 . S
H139 C133 0.930 . S
C140 N141 1.314 . S
C140 C142 1.353 . S
C140 H146 0.930 . S
N141 Li91 1.990 . S
N141 C140 1.314 . S
N141 C144 1.279 . S
C142 C140 1.353 . S
C142 C145 1.348 . S
C142 H174 0.929 . S
C143 C144 1.358 . S
C143 C145 1.356 . S
C143 H175 0.930 . S
C144 N141 1.279 . S
C144 C143 1.358 . S
C144 H147 0.930 . S
C145 C142 1.348 . S
C145 C143 1.356 . S
H146 C140 0.930 . S
H147 C144 0.930 . S
O148 Li88 1.956 . S
O148 Li89 1.970 . S
O148 Li90 1.961 . S
O148 C92 1.325 . S
O149 Li88 1.970 . S
O149 Li89 1.956 . S
O149 Li91 1.961 . S
O149 C98 1.325 . S
O150 Li88 1.961 . S
O150 Li90 1.956 . S
O150 Li91 1.970 . S
O150 C120 1.325 . S
O151 Li89 1.961 . S
O151 Li90 1.970 . S
O151 Li91 1.956 . S
O151 C126 1.325 . S
H152 C94 0.929 . S
H153 C95 0.930 . S
H154 C96 0.930 . S
H155 C97 0.930 . S
H156 C99 0.930 . S
H157 C101 0.929 . S
H158 C102 0.930 . S
H159 C103 0.930 . S
H160 C106 0.930 . S
H161 C109 0.929 . S
H162 C114 0.929 . S
H163 C115 0.930 . S
H164 C122 0.929 . S
H165 C123 0.930 . S
H166 C124 0.930 . S
H167 C125 0.930 . S
H168 C127 0.929 . S
H169 C128 0.930 . S
H170 C129 0.930 . S
H171 C130 0.930 . S
H172 C134 0.929 . S
H173 C136 0.930 . S
H174 C142 0.929 . S
H175 C143 0.930 . S
Li176 N193 1.990 . S
Li176 O236 1.956 . S
Li176 O237 1.970 . S
Li176 O238 1.961 . S
Li177 N201 1.990 . S
Li177 O236 1.970 . S
Li177 O237 1.956 . S
Li177 O239 1.961 . S
Li178 N223 1.990 . S
Li178 O236 1.961 . S
Li178 O238 1.956 . S
Li178 O239 1.970 . S
Li179 N229 1.990 . S
Li179 O237 1.961 . S
Li179 O238 1.970 . S
Li179 O239 1.956 . S
C180 C182 1.348 . S
C180 C183 1.356 . S
C180 O236 1.325 . S
N181 C184 1.314 . S
N181 C185 1.279 . S
C182 C180 1.348 . S
C182 C184 1.353 . S
C182 H240 0.929 . S
C183 C180 1.356 . S
C183 C185 1.358 . S
C183 H241 0.930 . S
C184 N181 1.314 . S
C184 C182 1.353 . S
C184 H242 0.930 . S
C185 N181 1.279 . S
C185 C183 1.358 . S
C185 H243 0.930 . S
C186 C189 1.348 . S
C186 C190 1.356 . S
C186 O237 1.325 . S
C187 N188 1.279 . S
C187 C190 1.358 . S
C187 H244 0.930 . S
N188 C187 1.279 . S
N188 C191 1.314 . S
C189 C186 1.348 . S
C189 C191 1.353 . S
C189 H245 0.929 . S
C190 C186 1.356 . S
C190 C187 1.358 . S
C190 H246 0.930 . S
C191 N188 1.314 . S
C191 C189 1.353 . S
C191 H247 0.930 . S
C192 N193 1.314 . S
C192 C197 1.353 . S
C192 H198 0.930 . S
N193 Li176 1.990 . S
N193 C192 1.314 . S
N193 C195 1.279 . S
C194 C195 1.358 . S
C194 C196 1.356 . S
C194 H248 0.930 . S
C195 N193 1.279 . S
C195 C194 1.358 . S
C195 H199 0.930 . S
C196 C194 1.356 . S
C196 C197 1.348 . S
C197 C192 1.353 . S
C197 C196 1.348 . S
C197 H249 0.929 . S
H198 C192 0.930 . S
H199 C195 0.930 . S
C200 N201 1.314 . S
C200 C202 1.353 . S
C200 H206 0.930 . S
N201 Li177 1.990 . S
N201 C200 1.314 . S
N201 C204 1.279 . S
C202 C200 1.353 . S
C202 C205 1.348 . S
C202 H250 0.929 . S
C203 C204 1.358 . S
C203 C205 1.356 . S
C203 H251 0.930 . S
C204 N201 1.279 . S
C204 C203 1.358 . S
C204 H207 0.930 . S
C205 C202 1.348 . S
C205 C203 1.356 . S
H206 C200 0.930 . S
H207 C204 0.930 . S
C208 C210 1.348 . S
C208 C211 1.356 . S
C208 O238 1.325 . S
N209 C212 1.314 . S
N209 C213 1.279 . S
C210 C208 1.348 . S
C210 C212 1.353 . S
C210 H252 0.929 . S
C211 C208 1.356 . S
C211 C213 1.358 . S
C211 H253 0.930 . S
C212 N209 1.314 . S
C212 C210 1.353 . S
C212 H254 0.930 . S
C213 N209 1.279 . S
C213 C211 1.358 . S
C213 H255 0.930 . S
C214 C215 1.348 . S
C214 C216 1.356 . S
C214 O239 1.325 . S
C215 C214 1.348 . S
C215 C217 1.353 . S
C215 H256 0.929 . S
C216 C214 1.356 . S
C216 C218 1.358 . S
C216 H257 0.930 . S
C217 C215 1.353 . S
C217 N219 1.314 . S
C217 H258 0.930 . S
C218 C216 1.358 . S
C218 N219 1.279 . S
C218 H259 0.930 . S
N219 C217 1.314 . S
N219 C218 1.279 . S
C220 C222 1.353 . S
C220 N223 1.314 . S
C220 H226 0.930 . S
C221 N223 1.279 . S
C221 C224 1.358 . S
C221 H227 0.930 . S
C222 C220 1.353 . S
C222 C225 1.348 . S
C222 H260 0.929 . S
N223 Li178 1.990 . S
N223 C220 1.314 . S
N223 C221 1.279 . S
C224 C221 1.358 . S
C224 C225 1.356 . S
C224 H261 0.930 . S
C225 C222 1.348 . S
C225 C224 1.356 . S
H226 C220 0.930 . S
H227 C221 0.930 . S
C228 N229 1.314 . S
C228 C230 1.353 . S
C228 H234 0.930 . S
N229 Li179 1.990 . S
N229 C228 1.314 . S
N229 C232 1.279 . S
C230 C228 1.353 . S
C230 C233 1.348 . S
C230 H262 0.929 . S
C231 C232 1.358 . S
C231 C233 1.356 . S
C231 H263 0.930 . S
C232 N229 1.279 . S
C232 C231 1.358 . S
C232 H235 0.930 . S
C233 C230 1.348 . S
C233 C231 1.356 . S
H234 C228 0.930 . S
H235 C232 0.930 . S
O236 Li176 1.956 . S
O236 Li177 1.970 . S
O236 Li178 1.961 . S
O236 C180 1.325 . S
O237 Li176 1.970 . S
O237 Li177 1.956 . S
O237 Li179 1.961 . S
O237 C186 1.325 . S
O238 Li176 1.961 . S
O238 Li178 1.956 . S
O238 Li179 1.970 . S
O238 C208 1.325 . S
O239 Li177 1.961 . S
O239 Li178 1.970 . S
O239 Li179 1.956 . S
O239 C214 1.325 . S
H240 C182 0.929 . S
H241 C183 0.930 . S
H242 C184 0.930 . S
H243 C185 0.930 . S
H244 C187 0.930 . S
H245 C189 0.929 . S
H246 C190 0.930 . S
H247 C191 0.930 . S
H248 C194 0.930 . S
H249 C197 0.929 . S
H250 C202 0.929 . S
H251 C203 0.930 . S
H252 C210 0.929 . S
H253 C211 0.930 . S
H254 C212 0.930 . S
H255 C213 0.930 . S
H256 C215 0.929 . S
H257 C216 0.930 . S
H258 C217 0.930 . S
H259 C218 0.930 . S
H260 C222 0.929 . S
H261 C224 0.930 . S
H262 C230 0.929 . S
H263 C231 0.930 . S
Li264 N281 1.990 . S
Li264 O324 1.956 . S
Li264 O325 1.970 . S
Li264 O326 1.961 1_554 S
Li265 N289 1.990 . S
Li265 O324 1.970 . S
Li265 O325 1.956 . S
Li265 O327 1.961 . S
Li266 N311 1.990 . S
Li266 O324 1.961 . S
Li266 O326 1.956 1_554 S
Li266 O327 1.970 . S
Li267 N317 1.990 . S
Li267 O325 1.961 1_556 S
Li267 O326 1.970 . S
Li267 O327 1.956 1_556 S
C268 C270 1.348 . S
C268 C271 1.356 . S
C268 O324 1.325 . S
N269 C272 1.314 . S
N269 C273 1.279 . S
C270 C268 1.348 . S
C270 C272 1.353 . S
C270 H328 0.929 . S
C271 C268 1.356 . S
C271 C273 1.358 . S
C271 H329 0.930 . S
C272 N269 1.314 . S
C272 C270 1.353 . S
C272 H330 0.930 . S
C273 N269 1.279 . S
C273 C271 1.358 . S
C273 H331 0.930 . S
C274 C277 1.348 . S
C274 C278 1.356 . S
C274 O325 1.325 . S
C275 N276 1.279 . S
C275 C278 1.358 . S
C275 H332 0.930 1_554 S
N276 C275 1.279 . S
N276 C279 1.314 . S
C277 C274 1.348 . S
C277 C279 1.353 . S
C277 H333 0.929 . S
C278 C274 1.356 . S
C278 C275 1.358 . S
C278 H334 0.930 . S
C279 N276 1.314 . S
C279 C277 1.353 . S
C279 H335 0.930 . S
C280 N281 1.314 1_556 S
C280 C285 1.353 . S
C280 H286 0.930 . S
N281 Li264 1.990 . S
N281 C280 1.314 1_554 S
N281 C283 1.279 . S
C282 C283 1.358 . S
C282 C284 1.356 . S
C282 H336 0.930 . S
C283 N281 1.279 . S
C283 C282 1.358 . S
C283 H287 0.930 . S
C284 C282 1.356 . S
C284 C285 1.348 1_554 S
C285 C280 1.353 . S
C285 C284 1.348 1_556 S
C285 H337 0.929 . S
H286 C280 0.930 . S
H287 C283 0.930 . S
C288 N289 1.314 . S
C288 C290 1.353 . S
C288 H294 0.930 . S
N289 Li265 1.990 . S
N289 C288 1.314 . S
N289 C292 1.279 . S
C290 C288 1.353 . S
C290 C293 1.348 . S
C290 H338 0.929 . S
C291 C292 1.358 . S
C291 C293 1.356 . S
C291 H339 0.930 . S
C292 N289 1.279 . S
C292 C291 1.358 . S
C292 H295 0.930 . S
C293 C290 1.348 . S
C293 C291 1.356 . S
H294 C288 0.930 . S
H295 C292 0.930 . S
C296 C298 1.348 . S
C296 C299 1.356 . S
C296 O326 1.325 . S
N297 C300 1.314 . S
N297 C301 1.279 . S
C298 C296 1.348 . S
C298 C300 1.353 . S
C298 H340 0.929 . S
C299 C296 1.356 . S
C299 C301 1.358 . S
C299 H341 0.930 . S
C300 N297 1.314 . S
C300 C298 1.353 . S
C300 H342 0.930 . S
C301 N297 1.279 . S
C301 C299 1.358 . S
C301 H343 0.930 . S
C302 C303 1.348 . S
C302 C304 1.356 . S
C302 O327 1.325 . S
C303 C302 1.348 . S
C303 C305 1.353 . S
C303 H344 0.929 . S
C304 C302 1.356 . S
C304 C306 1.358 . S
C304 H345 0.930 . S
C305 C303 1.353 . S
C305 N307 1.314 . S
C305 H346 0.930 . S
C306 C304 1.358 . S
C306 N307 1.279 . S
C306 H347 0.930 . S
N307 C305 1.314 . S
N307 C306 1.279 . S
C308 C310 1.353 . S
C308 N311 1.314 . S
C308 H314 0.930 . S
C309 N311 1.279 . S
C309 C312 1.358 . S
C309 H315 0.930 1_554 S
C310 C308 1.353 . S
C310 C313 1.348 . S
C310 H348 0.929 . S
N311 Li266 1.990 . S
N311 C308 1.314 . S
N311 C309 1.279 . S
C312 C309 1.358 . S
C312 C313 1.356 . S
C312 H349 0.930 1_554 S
C313 C310 1.348 . S
C313 C312 1.356 . S
H314 C308 0.930 . S
H315 C309 0.930 1_556 S
C316 N317 1.314 . S
C316 C318 1.353 . S
C316 H322 0.930 . S
N317 Li267 1.990 . S
N317 C316 1.314 . S
N317 C320 1.279 . S
C318 C316 1.353 . S
C318 C321 1.348 . S
C318 H350 0.929 . S
C319 C320 1.358 . S
C319 C321 1.356 . S
C319 H351 0.930 . S
C320 N317 1.279 . S
C320 C319 1.358 . S
C320 H323 0.930 . S
C321 C318 1.348 . S
C321 C319 1.356 . S
H322 C316 0.930 . S
H323 C320 0.930 . S
O324 Li264 1.956 . S
O324 Li265 1.970 . S
O324 Li266 1.961 . S
O324 C268 1.325 . S
O325 Li264 1.970 . S
O325 Li265 1.956 . S
O325 Li267 1.961 1_554 S
O325 C274 1.325 . S
O326 Li264 1.961 1_556 S
O326 Li266 1.956 1_556 S
O326 Li267 1.970 . S
O326 C296 1.325 . S
O327 Li265 1.961 . S
O327 Li266 1.970 . S
O327 Li267 1.956 1_554 S
O327 C302 1.325 . S
H328 C270 0.929 . S
H329 C271 0.930 . S
H330 C272 0.930 . S
H331 C273 0.930 . S
H332 C275 0.930 1_556 S
H333 C277 0.929 . S
H334 C278 0.930 . S
H335 C279 0.930 . S
H336 C282 0.930 . S
H337 C285 0.929 . S
H338 C290 0.929 . S
H339 C291 0.930 . S
H340 C298 0.929 . S
H341 C299 0.930 . S
H342 C300 0.930 . S
H343 C301 0.930 . S
H344 C303 0.929 . S
H345 C304 0.930 . S
H346 C305 0.930 . S
H347 C306 0.930 . S
H348 C310 0.929 . S
H349 C312 0.930 1_556 S
H350 C318 0.929 . S
H351 C319 0.930 . S
Li352 N369 1.990 . S
Li352 O412 1.956 . S
Li352 O413 1.970 . S
Li352 O414 1.961 . S
Li353 N377 1.990 . S
Li353 O412 1.970 . S
Li353 O413 1.956 . S
Li353 O415 1.961 . S
Li354 N399 1.990 . S
Li354 O412 1.961 . S
Li354 O414 1.956 . S
Li354 O415 1.970 . S
Li355 N405 1.990 . S
Li355 O413 1.961 . S
Li355 O414 1.970 . S
Li355 O415 1.956 . S
C356 C358 1.348 . S
C356 C359 1.356 . S
C356 O412 1.325 . S
N357 C360 1.314 . S
N357 C361 1.279 . S
C358 C356 1.348 . S
C358 C360 1.353 . S
C358 H416 0.929 . S
C359 C356 1.356 . S
C359 C361 1.358 . S
C359 H417 0.930 . S
C360 N357 1.314 . S
C360 C358 1.353 . S
C360 H418 0.930 . S
C361 N357 1.279 . S
C361 C359 1.358 . S
C361 H419 0.930 . S
C362 C365 1.348 . S
C362 C366 1.356 . S
C362 O413 1.325 . S
C363 N364 1.279 . S
C363 C366 1.358 . S
C363 H420 0.930 . S
N364 C363 1.279 . S
N364 C367 1.314 . S
C365 C362 1.348 . S
C365 C367 1.353 . S
C365 H421 0.929 . S
C366 C362 1.356 . S
C366 C363 1.358 . S
C366 H422 0.930 . S
C367 N364 1.314 . S
C367 C365 1.353 . S
C367 H423 0.930 . S
C368 N369 1.314 . S
C368 C373 1.353 . S
C368 H374 0.930 . S
N369 Li352 1.990 . S
N369 C368 1.314 . S
N369 C371 1.279 . S
C370 C371 1.358 . S
C370 C372 1.356 . S
C370 H424 0.930 . S
C371 N369 1.279 . S
C371 C370 1.358 . S
C371 H375 0.930 . S
C372 C370 1.356 . S
C372 C373 1.348 . S
C373 C368 1.353 . S
C373 C372 1.348 . S
C373 H425 0.929 . S
H374 C368 0.930 . S
H375 C371 0.930 . S
C376 N377 1.314 . S
C376 C378 1.353 . S
C376 H382 0.930 . S
N377 Li353 1.990 . S
N377 C376 1.314 . S
N377 C380 1.279 . S
C378 C376 1.353 . S
C378 C381 1.348 . S
C378 H426 0.929 . S
C379 C380 1.358 . S
C379 C381 1.356 . S
C379 H427 0.930 . S
C380 N377 1.279 . S
C380 C379 1.358 . S
C380 H383 0.930 . S
C381 C378 1.348 . S
C381 C379 1.356 . S
H382 C376 0.930 . S
H383 C380 0.930 . S
C384 C386 1.348 . S
C384 C387 1.356 . S
C384 O414 1.325 . S
N385 C388 1.314 . S
N385 C389 1.279 . S
C386 C384 1.348 . S
C386 C388 1.353 . S
C386 H428 0.929 . S
C387 C384 1.356 . S
C387 C389 1.358 . S
C387 H429 0.930 . S
C388 N385 1.314 . S
C388 C386 1.353 . S
C388 H430 0.930 . S
C389 N385 1.279 . S
C389 C387 1.358 . S
C389 H431 0.930 . S
C390 C391 1.348 . S
C390 C392 1.356 . S
C390 O415 1.325 . S
C391 C390 1.348 . S
C391 C393 1.353 . S
C391 H432 0.929 . S
C392 C390 1.356 . S
C392 C394 1.358 . S
C392 H433 0.930 . S
C393 C391 1.353 . S
C393 N395 1.314 . S
C393 H434 0.930 . S
C394 C392 1.358 . S
C394 N395 1.279 . S
C394 H435 0.930 . S
N395 C393 1.314 . S
N395 C394 1.279 . S
C396 C398 1.353 . S
C396 N399 1.314 . S
C396 H402 0.930 . S
C397 N399 1.279 . S
C397 C400 1.358 . S
C397 H403 0.930 . S
C398 C396 1.353 . S
C398 C401 1.348 . S
C398 H436 0.929 . S
N399 Li354 1.990 . S
N399 C396 1.314 . S
N399 C397 1.279 . S
C400 C397 1.358 . S
C400 C401 1.356 . S
C400 H437 0.930 . S
C401 C398 1.348 . S
C401 C400 1.356 . S
H402 C396 0.930 . S
H403 C397 0.930 . S
C404 N405 1.314 . S
C404 C406 1.353 . S
C404 H410 0.930 . S
N405 Li355 1.990 . S
N405 C404 1.314 . S
N405 C408 1.279 . S
C406 C404 1.353 . S
C406 C409 1.348 . S
C406 H438 0.929 . S
C407 C408 1.358 . S
C407 C409 1.356 . S
C407 H439 0.930 . S
C408 N405 1.279 . S
C408 C407 1.358 . S
C408 H411 0.930 . S
C409 C406 1.348 . S
C409 C407 1.356 . S
H410 C404 0.930 . S
H411 C408 0.930 . S
O412 Li352 1.956 . S
O412 Li353 1.970 . S
O412 Li354 1.961 . S
O412 C356 1.325 . S
O413 Li352 1.970 . S
O413 Li353 1.956 . S
O413 Li355 1.961 . S
O413 C362 1.325 . S
O414 Li352 1.961 . S
O414 Li354 1.956 . S
O414 Li355 1.970 . S
O414 C384 1.325 . S
O415 Li353 1.961 . S
O415 Li354 1.970 . S
O415 Li355 1.956 . S
O415 C390 1.325 . S
H416 C358 0.929 . S
H417 C359 0.930 . S
H418 C360 0.930 . S
H419 C361 0.930 . S
H420 C363 0.930 . S
H421 C365 0.929 . S
H422 C366 0.930 . S
H423 C367 0.930 . S
H424 C370 0.930 . S
H425 C373 0.929 . S
H426 C378 0.929 . S
H427 C379 0.930 . S
H428 C386 0.929 . S
H429 C387 0.930 . S
H430 C388 0.930 . S
H431 C389 0.930 . S
H432 C391 0.929 . S
H433 C392 0.930 . S
H434 C393 0.930 . S
H435 C394 0.930 . S
H436 C398 0.929 . S
H437 C400 0.930 . S
H438 C406 0.929 . S
H439 C407 0.930 . S
Li440 N457 1.990 . S
Li440 O500 1.956 . S
Li440 O501 1.970 . S
Li440 O502 1.961 . S
Li441 N465 1.990 . S
Li441 O500 1.970 . S
Li441 O501 1.956 . S
Li441 O503 1.961 . S
Li442 N487 1.990 . S
Li442 O500 1.961 . S
Li442 O502 1.956 . S
Li442 O503 1.970 . S
Li443 N493 1.990 . S
Li443 O501 1.961 . S
Li443 O502 1.970 . S
Li443 O503 1.956 . S
C444 C446 1.348 . S
C444 C447 1.356 . S
C444 O500 1.325 . S
N445 C448 1.314 . S
N445 C449 1.279 . S
C446 C444 1.348 . S
C446 C448 1.353 . S
C446 H504 0.929 . S
C447 C444 1.356 . S
C447 C449 1.358 . S
C447 H505 0.930 . S
C448 N445 1.314 . S
C448 C446 1.353 . S
C448 H506 0.930 . S
C449 N445 1.279 . S
C449 C447 1.358 . S
C449 H507 0.930 . S
C450 C453 1.348 . S
C450 C454 1.356 . S
C450 O501 1.325 . S
C451 N452 1.279 . S
C451 C454 1.358 . S
C451 H508 0.930 . S
N452 C451 1.279 . S
N452 C455 1.314 . S
C453 C450 1.348 . S
C453 C455 1.353 . S
C453 H509 0.929 . S
C454 C450 1.356 . S
C454 C451 1.358 . S
C454 H510 0.930 . S
C455 N452 1.314 . S
C455 C453 1.353 . S
C455 H511 0.930 . S
C456 N457 1.314 . S
C456 C461 1.353 . S
C456 H462 0.930 . S
N457 Li440 1.990 . S
N457 C456 1.314 . S
N457 C459 1.279 . S
C458 C459 1.358 . S
C458 C460 1.356 . S
C458 H512 0.930 . S
C459 N457 1.279 . S
C459 C458 1.358 . S
C459 H463 0.930 . S
C460 C458 1.356 . S
C460 C461 1.348 . S
C461 C456 1.353 . S
C461 C460 1.348 . S
C461 H513 0.929 . S
H462 C456 0.930 . S
H463 C459 0.930 . S
C464 N465 1.314 . S
C464 C466 1.353 . S
C464 H470 0.930 . S
N465 Li441 1.990 . S
N465 C464 1.314 . S
N465 C468 1.279 . S
C466 C464 1.353 . S
C466 C469 1.348 . S
C466 H514 0.929 . S
C467 C468 1.358 . S
C467 C469 1.356 . S
C467 H515 0.930 . S
C468 N465 1.279 . S
C468 C467 1.358 . S
C468 H471 0.930 . S
C469 C466 1.348 . S
C469 C467 1.356 . S
H470 C464 0.930 . S
H471 C468 0.930 . S
C472 C474 1.348 . S
C472 C475 1.356 . S
C472 O502 1.325 . S
N473 C476 1.314 . S
N473 C477 1.279 . S
C474 C472 1.348 . S
C474 C476 1.353 . S
C474 H516 0.929 . S
C475 C472 1.356 . S
C475 C477 1.358 . S
C475 H517 0.930 . S
C476 N473 1.314 . S
C476 C474 1.353 . S
C476 H518 0.930 . S
C477 N473 1.279 . S
C477 C475 1.358 . S
C477 H519 0.930 . S
C478 C479 1.348 . S
C478 C480 1.356 . S
C478 O503 1.325 . S
C479 C478 1.348 . S
C479 C481 1.353 . S
C479 H520 0.929 . S
C480 C478 1.356 . S
C480 C482 1.358 . S
C480 H521 0.930 . S
C481 C479 1.353 . S
C481 N483 1.314 . S
C481 H522 0.930 . S
C482 C480 1.358 . S
C482 N483 1.279 . S
C482 H523 0.930 . S
N483 C481 1.314 . S
N483 C482 1.279 . S
C484 C486 1.353 . S
C484 N487 1.314 . S
C484 H490 0.930 . S
C485 N487 1.279 . S
C485 C488 1.358 . S
C485 H491 0.930 . S
C486 C484 1.353 . S
C486 C489 1.348 . S
C486 H524 0.929 . S
N487 Li442 1.990 . S
N487 C484 1.314 . S
N487 C485 1.279 . S
C488 C485 1.358 . S
C488 C489 1.356 . S
C488 H525 0.930 . S
C489 C486 1.348 . S
C489 C488 1.356 . S
H490 C484 0.930 . S
H491 C485 0.930 . S
C492 N493 1.314 . S
C492 C494 1.353 . S
C492 H498 0.930 . S
N493 Li443 1.990 . S
N493 C492 1.314 . S
N493 C496 1.279 . S
C494 C492 1.353 . S
C494 C497 1.348 . S
C494 H526 0.929 . S
C495 C496 1.358 . S
C495 C497 1.356 . S
C495 H527 0.930 . S
C496 N493 1.279 . S
C496 C495 1.358 . S
C496 H499 0.930 . S
C497 C494 1.348 . S
C497 C495 1.356 . S
H498 C492 0.930 . S
H499 C496 0.930 . S
O500 Li440 1.956 . S
O500 Li441 1.970 . S
O500 Li442 1.961 . S
O500 C444 1.325 . S
O501 Li440 1.970 . S
O501 Li441 1.956 . S
O501 Li443 1.961 . S
O501 C450 1.325 . S
O502 Li440 1.961 . S
O502 Li442 1.956 . S
O502 Li443 1.970 . S
O502 C472 1.325 . S
O503 Li441 1.961 . S
O503 Li442 1.970 . S
O503 Li443 1.956 . S
O503 C478 1.325 . S
H504 C446 0.929 . S
H505 C447 0.930 . S
H506 C448 0.930 . S
H507 C449 0.930 . S
H508 C451 0.930 . S
H509 C453 0.929 . S
H510 C454 0.930 . S
H511 C455 0.930 . S
H512 C458 0.930 . S
H513 C461 0.929 . S
H514 C466 0.929 . S
H515 C467 0.930 . S
H516 C474 0.929 . S
H517 C475 0.930 . S
H518 C476 0.930 . S
H519 C477 0.930 . S
H520 C479 0.929 . S
H521 C480 0.930 . S
H522 C481 0.930 . S
H523 C482 0.930 . S
H524 C486 0.929 . S
H525 C488 0.930 . S
H526 C494 0.929 . S
H527 C495 0.930 . S
Li528 N545 1.990 . S
Li528 O588 1.956 . S
Li528 O589 1.970 . S
Li528 O590 1.961 . S
Li529 N553 1.990 . S
Li529 O588 1.970 . S
Li529 O589 1.956 . S
Li529 O591 1.961 . S
Li530 N575 1.990 . S
Li530 O588 1.961 . S
Li530 O590 1.956 . S
Li530 O591 1.970 . S
Li531 N581 1.990 . S
Li531 O589 1.961 . S
Li531 O590 1.970 . S
Li531 O591 1.956 . S
C532 C534 1.348 . S
C532 C535 1.356 . S
C532 O588 1.325 . S
N533 C536 1.314 . S
N533 C537 1.279 . S
C534 C532 1.348 . S
C534 C536 1.353 . S
C534 H592 0.929 . S
C535 C532 1.356 . S
C535 C537 1.358 . S
C535 H593 0.930 . S
C536 N533 1.314 . S
C536 C534 1.353 . S
C536 H594 0.930 . S
C537 N533 1.279 . S
C537 C535 1.358 . S
C537 H595 0.930 . S
C538 C541 1.348 . S
C538 C542 1.356 . S
C538 O589 1.325 . S
C539 N540 1.279 . S
C539 C542 1.358 . S
C539 H596 0.930 . S
N540 C539 1.279 . S
N540 C543 1.314 . S
C541 C538 1.348 . S
C541 C543 1.353 . S
C541 H597 0.929 . S
C542 C538 1.356 . S
C542 C539 1.358 . S
C542 H598 0.930 . S
C543 N540 1.314 . S
C543 C541 1.353 . S
C543 H599 0.930 . S
C544 N545 1.314 . S
C544 C549 1.353 . S
C544 H550 0.930 . S
N545 Li528 1.990 . S
N545 C544 1.314 . S
N545 C547 1.279 . S
C546 C547 1.358 . S
C546 C548 1.356 . S
C546 H600 0.930 . S
C547 N545 1.279 . S
C547 C546 1.358 . S
C547 H551 0.930 . S
C548 C546 1.356 . S
C548 C549 1.348 . S
C549 C544 1.353 . S
C549 C548 1.348 . S
C549 H601 0.929 . S
H550 C544 0.930 . S
H551 C547 0.930 . S
C552 N553 1.314 . S
C552 C554 1.353 . S
C552 H558 0.930 . S
N553 Li529 1.990 . S
N553 C552 1.314 . S
N553 C556 1.279 . S
C554 C552 1.353 . S
C554 C557 1.348 . S
C554 H602 0.929 . S
C555 C556 1.358 . S
C555 C557 1.356 . S
C555 H603 0.930 . S
C556 N553 1.279 . S
C556 C555 1.358 . S
C556 H559 0.930 . S
C557 C554 1.348 . S
C557 C555 1.356 . S
H558 C552 0.930 . S
H559 C556 0.930 . S
C560 C562 1.348 . S
C560 C563 1.356 . S
C560 O590 1.325 . S
N561 C564 1.314 . S
N561 C565 1.279 . S
C562 C560 1.348 . S
C562 C564 1.353 . S
C562 H604 0.929 . S
C563 C560 1.356 . S
C563 C565 1.358 . S
C563 H605 0.930 . S
C564 N561 1.314 . S
C564 C562 1.353 . S
C564 H606 0.930 . S
C565 N561 1.279 . S
C565 C563 1.358 . S
C565 H607 0.930 . S
C566 C567 1.348 . S
C566 C568 1.356 . S
C566 O591 1.325 . S
C567 C566 1.348 . S
C567 C569 1.353 . S
C567 H608 0.929 . S
C568 C566 1.356 . S
C568 C570 1.358 . S
C568 H609 0.930 . S
C569 C567 1.353 . S
C569 N571 1.314 . S
C569 H610 0.930 . S
C570 C568 1.358 . S
C570 N571 1.279 . S
C570 H611 0.930 . S
N571 C569 1.314 . S
N571 C570 1.279 . S
C572 C574 1.353 . S
C572 N575 1.314 . S
C572 H578 0.930 . S
C573 N575 1.279 . S
C573 C576 1.358 . S
C573 H579 0.930 . S
C574 C572 1.353 . S
C574 C577 1.348 . S
C574 H612 0.929 . S
N575 Li530 1.990 . S
N575 C572 1.314 . S
N575 C573 1.279 . S
C576 C573 1.358 . S
C576 C577 1.356 . S
C576 H613 0.930 . S
C577 C574 1.348 . S
C577 C576 1.356 . S
H578 C572 0.930 . S
H579 C573 0.930 . S
C580 N581 1.314 . S
C580 C582 1.353 . S
C580 H586 0.930 . S
N581 Li531 1.990 . S
N581 C580 1.314 . S
N581 C584 1.279 . S
C582 C580 1.353 . S
C582 C585 1.348 . S
C582 H614 0.929 . S
C583 C584 1.358 . S
C583 C585 1.356 . S
C583 H615 0.930 . S
C584 N581 1.279 . S
C584 C583 1.358 . S
C584 H587 0.930 . S
C585 C582 1.348 . S
C585 C583 1.356 . S
H586 C580 0.930 . S
H587 C584 0.930 . S
O588 Li528 1.956 . S
O588 Li529 1.970 . S
O588 Li530 1.961 . S
O588 C532 1.325 . S
O589 Li528 1.970 . S
O589 Li529 1.956 . S
O589 Li531 1.961 . S
O589 C538 1.325 . S
O590 Li528 1.961 . S
O590 Li530 1.956 . S
O590 Li531 1.970 . S
O590 C560 1.325 . S
O591 Li529 1.961 . S
O591 Li530 1.970 . S
O591 Li531 1.956 . S
O591 C566 1.325 . S
H592 C534 0.929 . S
H593 C535 0.930 . S
H594 C536 0.930 . S
H595 C537 0.930 . S
H596 C539 0.930 . S
H597 C541 0.929 . S
H598 C542 0.930 . S
H599 C543 0.930 . S
H600 C546 0.930 . S
H601 C549 0.929 . S
H602 C554 0.929 . S
H603 C555 0.930 . S
H604 C562 0.929 . S
H605 C563 0.930 . S
H606 C564 0.930 . S
H607 C565 0.930 . S
H608 C567 0.929 . S
H609 C568 0.930 . S
H610 C569 0.930 . S
H611 C570 0.930 . S
H612 C574 0.929 . S
H613 C576 0.930 . S
H614 C582 0.929 . S
H615 C583 0.930 . S
Li616 N633 1.990 1_554 S
Li616 O676 1.956 . S
Li616 O677 1.970 . S
Li616 O678 1.961 1_554 S
Li617 N641 1.990 . S
Li617 O676 1.970 . S
Li617 O677 1.956 . S
Li617 O679 1.961 . S
Li618 N663 1.990 . S
Li618 O676 1.961 . S
Li618 O678 1.956 1_554 S
Li618 O679 1.970 . S
Li619 N669 1.990 . S
Li619 O677 1.961 1_556 S
Li619 O678 1.970 . S
Li619 O679 1.956 1_556 S
C620 C622 1.348 . S
C620 C623 1.356 . S
C620 O676 1.325 . S
N621 C624 1.314 . S
N621 C625 1.279 . S
C622 C620 1.348 . S
C622 C624 1.353 . S
C622 H680 0.929 . S
C623 C620 1.356 . S
C623 C625 1.358 . S
C623 H681 0.930 . S
C624 N621 1.314 . S
C624 C622 1.353 . S
C624 H682 0.930 . S
C625 N621 1.279 . S
C625 C623 1.358 . S
C625 H683 0.930 . S
C626 C629 1.348 . S
C626 C630 1.356 . S
C626 O677 1.325 . S
C627 N628 1.279 . S
C627 C630 1.358 . S
C627 H684 0.930 1_554 S
N628 C627 1.279 . S
N628 C631 1.314 . S
C629 C626 1.348 . S
C629 C631 1.353 . S
C629 H685 0.929 . S
C630 C626 1.356 . S
C630 C627 1.358 . S
C630 H686 0.931 . S
C631 N628 1.314 . S
C631 C629 1.353 . S
C631 H687 0.930 . S
C632 N633 1.314 . S
C632 C637 1.353 . S
C632 H638 0.930 . S
N633 Li616 1.990 1_556 S
N633 C632 1.314 . S
N633 C635 1.279 1_556 S
C634 C635 1.358 . S
C634 C636 1.356 1_554 S
C634 H688 0.930 . S
C635 N633 1.279 1_554 S
C635 C634 1.358 . S
C635 H639 0.930 . S
C636 C634 1.356 1_556 S
C636 C637 1.348 . S
C637 C632 1.353 . S
C637 C636 1.348 . S
C637 H689 0.929 . S
H638 C632 0.930 . S
H639 C635 0.930 . S
C640 N641 1.314 . S
C640 C642 1.353 . S
C640 H646 0.930 . S
N641 Li617 1.990 . S
N641 C640 1.314 . S
N641 C644 1.279 . S
C642 C640 1.353 . S
C642 C645 1.348 . S
C642 H690 0.929 . S
C643 C644 1.358 . S
C643 C645 1.356 . S
C643 H691 0.930 . S
C644 N641 1.279 . S
C644 C643 1.358 . S
C644 H647 0.930 . S
C645 C642 1.348 . S
C645 C643 1.356 . S
H646 C640 0.930 . S
H647 C644 0.930 . S
C648 C650 1.348 . S
C648 C651 1.356 . S
C648 O678 1.325 . S
N649 C652 1.314 . S
N649 C653 1.279 . S
C650 C648 1.348 . S
C650 C652 1.353 . S
C650 H692 0.929 . S
C651 C648 1.356 . S
C651 C653 1.358 . S
C651 H693 0.930 . S
C652 N649 1.314 . S
C652 C650 1.353 . S
C652 H694 0.930 . S
C653 N649 1.279 . S
C653 C651 1.358 . S
C653 H695 0.930 . S
C654 C655 1.348 . S
C654 C656 1.356 . S
C654 O679 1.325 . S
C655 C654 1.348 . S
C655 C657 1.353 . S
C655 H696 0.929 . S
C656 C654 1.356 . S
C656 C658 1.358 . S
C656 H697 0.930 . S
C657 C655 1.353 . S
C657 N659 1.314 . S
C657 H698 0.930 . S
C658 C656 1.358 . S
C658 N659 1.279 . S
C658 H699 0.930 . S
N659 C657 1.314 . S
N659 C658 1.279 . S
C660 C662 1.353 . S
C660 N663 1.314 . S
C660 H666 0.930 . S
C661 N663 1.279 1_556 S
C661 C664 1.358 . S
C661 H667 0.930 . S
C662 C660 1.353 . S
C662 C665 1.348 . S
C662 H700 0.929 . S
N663 Li618 1.990 . S
N663 C660 1.314 . S
N663 C661 1.279 1_554 S
C664 C661 1.358 . S
C664 C665 1.356 1_556 S
C664 H701 0.930 . S
C665 C662 1.348 . S
C665 C664 1.356 1_554 S
H666 C660 0.930 . S
H667 C661 0.930 . S
C668 N669 1.314 . S
C668 C670 1.353 . S
C668 H674 0.930 . S
N669 Li619 1.990 . S
N669 C668 1.314 . S
N669 C672 1.279 . S
C670 C668 1.353 . S
C670 C673 1.348 . S
C670 H702 0.929 . S
C671 C672 1.358 . S
C671 C673 1.356 . S
C671 H703 0.930 . S
C672 N669 1.279 . S
C672 C671 1.358 . S
C672 H675 0.930 . S
C673 C670 1.348 . S
C673 C671 1.356 . S
H674 C668 0.930 . S
H675 C672 0.930 . S
O676 Li616 1.956 . S
O676 Li617 1.970 . S
O676 Li618 1.961 . S
O676 C620 1.325 . S
O677 Li616 1.970 . S
O677 Li617 1.956 . S
O677 Li619 1.961 1_554 S
O677 C626 1.325 . S
O678 Li616 1.961 1_556 S
O678 Li618 1.956 1_556 S
O678 Li619 1.970 . S
O678 C648 1.325 . S
O679 Li617 1.961 . S
O679 Li618 1.970 . S
O679 Li619 1.956 1_554 S
O679 C654 1.325 . S
H680 C622 0.929 . S
H681 C623 0.930 . S
H682 C624 0.930 . S
H683 C625 0.930 . S
H684 C627 0.930 1_556 S
H685 C629 0.929 . S
H686 C630 0.931 . S
H687 C631 0.930 . S
H688 C634 0.930 . S
H689 C637 0.929 . S
H690 C642 0.929 . S
H691 C643 0.930 . S
H692 C650 0.929 . S
H693 C651 0.930 . S
H694 C652 0.930 . S
H695 C653 0.930 . S
H696 C655 0.929 . S
H697 C656 0.930 . S
H698 C657 0.930 . S
H699 C658 0.930 . S
H700 C662 0.929 . S
H701 C664 0.930 . S
H702 C670 0.929 . S
H703 C671 0.930 . S
C704 C705 1.387 . S
C704 H708 0.950 . S
C704 C713 1.390 . S
C705 C704 1.387 . S
C705 C707 1.387 . S
H706 C713 0.950 . S
C707 C705 1.387 . S
C707 C709 1.390 . S
C707 H711 0.950 . S
H708 C704 0.950 . S
C709 C707 1.390 . S
C709 C710 1.387 . S
C709 H712 0.950 . S
C710 C709 1.387 . S
C710 C713 1.387 . S
H711 C707 0.950 . S
H712 C709 0.950 . S
C713 C704 1.390 . S
C713 H706 0.950 . S
C713 C710 1.387 . S
C714 C715 1.387 . S
C714 H718 0.950 . S
C714 C723 1.390 . S
C715 C714 1.387 . S
C715 C717 1.387 . S
H716 C723 0.950 . S
C717 C715 1.387 . S
C717 C719 1.390 . S
C717 H721 0.950 . S
H718 C714 0.950 . S
C719 C717 1.390 . S
C719 C720 1.387 . S
C719 H722 0.950 . S
C720 C719 1.387 . S
C720 C723 1.387 . S
H721 C717 0.950 . S
H722 C719 0.950 . S
C723 C714 1.390 . S
C723 H716 0.950 . S
C723 C720 1.387 . S
C724 C725 1.387 . S
C724 H728 0.950 . S
C724 C733 1.390 . S
C725 C724 1.387 . S
C725 C727 1.387 . S
H726 C733 0.950 1_556 S
C727 C725 1.387 . S
C727 C729 1.390 . S
C727 H731 0.950 . S
H728 C724 0.950 . S
C729 C727 1.390 . S
C729 C730 1.387 1_554 S
C729 H732 0.950 1_554 S
C730 C729 1.387 1_556 S
C730 C733 1.387 1_556 S
H731 C727 0.950 . S
H732 C729 0.950 1_556 S
C733 C724 1.390 . S
C733 H726 0.950 1_554 S
C733 C730 1.387 1_554 S
C734 C735 1.387 . S
C734 H738 0.950 . S
C734 C743 1.390 . S
C735 C734 1.387 . S
C735 C737 1.387 . S
H736 C743 0.950 . S
C737 C735 1.387 . S
C737 C739 1.390 . S
C737 H741 0.950 . S
H738 C734 0.950 . S
C739 C737 1.390 . S
C739 C740 1.387 . S
C739 H742 0.950 . S
C740 C739 1.387 . S
C740 C743 1.387 . S
H741 C737 0.950 . S
H742 C739 0.950 . S
C743 C734 1.390 . S
C743 H736 0.950 . S
C743 C740 1.387 . S
C744 C745 1.387 . S
C744 H748 0.950 . S
C744 C753 1.390 . S
C745 C744 1.387 . S
C745 C747 1.387 . S
H746 C753 0.950 . S
C747 C745 1.387 . S
C747 C749 1.390 . S
C747 H751 0.950 . S
H748 C744 0.950 . S
C749 C747 1.390 . S
C749 C750 1.387 . S
C749 H752 0.950 . S
C750 C749 1.387 . S
C750 C753 1.387 . S
H751 C747 0.950 . S
H752 C749 0.950 . S
C753 C744 1.390 . S
C753 H746 0.950 . S
C753 C750 1.387 . S
C754 C755 1.387 . S
C754 H758 0.950 . S
C754 C763 1.390 . S
C755 C754 1.387 . S
C755 C757 1.387 . S
H756 C763 0.950 . S
C757 C755 1.387 . S
C757 C759 1.390 . S
C757 H761 0.950 . S
H758 C754 0.950 . S
C759 C757 1.390 . S
C759 C760 1.387 . S
C759 H762 0.950 . S
C760 C759 1.387 . S
C760 C763 1.387 . S
H761 C757 0.950 . S
H762 C759 0.950 . S
C763 C754 1.390 . S
C763 H756 0.950 . S
C763 C760 1.387 . S
C764 C765 1.387 . S
C764 H768 0.950 . S
C764 C773 1.390 . S
C765 C764 1.387 . S
C765 C767 1.387 . S
H766 C773 0.950 . S
C767 C765 1.387 . S
C767 C769 1.390 . S
C767 H771 0.950 . S
H768 C764 0.950 . S
C769 C767 1.390 . S
C769 C770 1.387 . S
C769 H772 0.950 . S
C770 C769 1.387 . S
C770 C773 1.387 . S
H771 C767 0.950 . S
H772 C769 0.950 . S
C773 C764 1.390 . S
C773 H766 0.950 . S
C773 C770 1.387 . S
C774 C775 1.387 . S
C774 H778 0.950 . S
C774 C783 1.390 . S
C775 C774 1.387 . S
C775 C777 1.387 . S
H776 C783 0.950 . S
C777 C775 1.387 . S
C777 C779 1.390 . S
C777 H781 0.950 . S
H778 C774 0.950 . S
C779 C777 1.390 . S
C779 C780 1.387 . S
C779 H782 0.950 . S
C780 C779 1.387 . S
C780 C783 1.387 . S
H781 C777 0.950 . S
H782 C779 0.950 . S
C783 C774 1.390 . S
C783 H776 0.950 . S
C783 C780 1.387 . S
C784 C785 1.387 . S
C784 H788 0.950 . S
C784 C793 1.390 1_565 S
C785 C784 1.387 . S
C785 C787 1.387 . S
H786 C793 0.950 . S
C787 C785 1.387 . S
C787 C789 1.390 1_565 S
C787 H791 0.950 . S
H788 C784 0.950 . S
C789 C787 1.390 1_545 S
C789 C790 1.387 . S
C789 H792 0.950 . S
C790 C789 1.387 . S
C790 C793 1.387 . S
H791 C787 0.950 . S
H792 C789 0.950 . S
C793 C784 1.390 1_545 S
C793 H786 0.950 . S
C793 C790 1.387 . S
C794 C795 1.387 . S
C794 H798 0.950 . S
C794 C803 1.390 1_655 S
C795 C794 1.387 . S
C795 C797 1.387 . S
H796 C803 0.950 . S
C797 C795 1.387 . S
C797 C799 1.390 1_655 S
C797 H801 0.950 . S
H798 C794 0.950 . S
C799 C797 1.390 1_455 S
C799 C800 1.387 . S
C799 H802 0.950 . S
C800 C799 1.387 . S
C800 C803 1.387 . S
H801 C797 0.950 . S
H802 C799 0.950 . S
C803 C794 1.390 1_455 S
C803 H796 0.950 . S
C803 C800 1.387 . S
C804 C805 1.387 . S
C804 H808 0.950 . S
C804 C813 1.390 1_565 S
C805 C804 1.387 . S
C805 C807 1.387 . S
H806 C813 0.950 . S
C807 C805 1.387 . S
C807 C809 1.390 1_565 S
C807 H811 0.950 . S
H808 C804 0.950 . S
C809 C807 1.390 1_545 S
C809 C810 1.387 . S
C809 H812 0.950 . S
C810 C809 1.387 . S
C810 C813 1.387 . S
H811 C807 0.950 . S
H812 C809 0.950 . S
C813 C804 1.390 1_545 S
C813 H806 0.950 . S
C813 C810 1.387 . S
C814 C815 1.387 . S
C814 H818 0.950 . S
C814 C823 1.390 1_655 S
C815 C814 1.387 . S
C815 C817 1.387 . S
H816 C823 0.950 . S
C817 C815 1.387 . S
C817 C819 1.390 1_655 S
C817 H821 0.950 . S
H818 C814 0.950 . S
C819 C817 1.390 1_455 S
C819 C820 1.387 . S
C819 H822 0.950 . S
C820 C819 1.387 . S
C820 C823 1.387 . S
H821 C817 0.950 . S
H822 C819 0.950 . S
C823 C814 1.390 1_455 S
C823 H816 0.950 . S
C823 C820 1.387 . S
C824 C825 1.387 1_554 S
C824 H828 0.950 . S
C824 C833 1.390 . S
C825 C824 1.387 1_556 S
C825 C827 1.387 1_556 S
H826 C833 0.950 . S
C827 C825 1.387 1_554 S
C827 C829 1.390 . S
C827 H831 0.950 . S
H828 C824 0.950 . S
C829 C827 1.390 . S
C829 C830 1.387 . S
C829 H832 0.950 . S
C830 C829 1.387 . S
C830 C833 1.387 . S
H831 C827 0.950 . S
H832 C829 0.950 . S
C833 C824 1.390 . S
C833 H826 0.950 . S
C833 C830 1.387 . S
C834 C835 1.387 . S
C834 H838 0.950 . S
C834 C843 1.390 . S
C835 C834 1.387 . S
C835 C837 1.387 . S
H836 C843 0.950 . S
C837 C835 1.387 . S
C837 C839 1.390 . S
C837 H841 0.950 . S
H838 C834 0.950 . S
C839 C837 1.390 . S
C839 C840 1.387 . S
C839 H842 0.950 . S
C840 C839 1.387 . S
C840 C843 1.387 . S
H841 C837 0.950 . S
H842 C839 0.950 . S
C843 C834 1.390 . S
C843 H836 0.950 . S
C843 C840 1.387 . S
C844 C845 1.387 . S
C844 H848 0.950 . S
C844 C853 1.390 . S
C845 C844 1.387 . S
C845 C847 1.387 . S
H846 C853 0.950 . S
C847 C845 1.387 . S
C847 C849 1.390 . S
C847 H851 0.950 . S
H848 C844 0.950 . S
C849 C847 1.390 . S
C849 C850 1.387 . S
C849 H852 0.950 . S
C850 C849 1.387 . S
C850 C853 1.387 . S
H851 C847 0.950 . S
H852 C849 0.950 . S
C853 C844 1.390 . S
C853 H846 0.950 . S
C853 C850 1.387 . S
C854 C855 1.387 . S
C854 H858 0.950 . S
C854 C863 1.390 . S
C855 C854 1.387 . S
C855 C857 1.387 . S
H856 C863 0.950 . S
C857 C855 1.387 . S
C857 C859 1.390 . S
C857 H861 0.950 . S
H858 C854 0.950 . S
C859 C857 1.390 . S
C859 C860 1.387 . S
C859 H862 0.950 . S
C860 C859 1.387 . S
C860 C863 1.387 . S
H861 C857 0.950 . S
H862 C859 0.950 . S
C863 C854 1.390 . S
C863 H856 0.950 . S
C863 C860 1.387 . S
C705 C29 0.975 . S
C710 C585 0.975 . S
C715 C108 0.975 . S
C720 C673 0.975 . S
C725 C401 0.975 . S
C730 C196 0.975 . S
C735 C489 0.975 . S
C740 C293 0.975 . S
C745 C49 1.667 . S
C750 C469 1.667 . S
C755 C145 1.668 . S
C760 C548 1.668 . S
C765 C636 1.670 . S
C770 C233 1.671 . S
C775 C313 1.667 . S
C780 C381 1.667 . S
C785 C409 1.436 . S
C790 C20 1.436 . S
C795 C117 1.435 . S
C800 C497 1.435 . S
C805 C205 1.436 . S
C810 C577 1.436 . S
C815 C665 1.436 . S
C820 C284 1.436 . S
C825 C557 1.797 . S
C830 C57 1.797 . S
C835 C645 1.797 . S
C840 C137 1.797 . S
C845 C225 1.797 . S
C850 C372 1.797 . S
C855 C321 1.797 . S
C860 C460 1.797 . S
