# Generated by pormake.
# Topology vbm, (6)-cn, num edge types: 1
# Building blocks:
#     Node 0, Type 0, BuildingBlock: BETDEL_clean_sbu_0, # of connection points: 6
#     Node 1, Type 0, BuildingBlock: BETDEL_clean_sbu_0, # of connection points: 6
#     Node 2, Type 0, BuildingBlock: BETDEL_clean_sbu_0, # of connection points: 6
#     Node 3, Type 0, BuildingBlock: BETDEL_clean_sbu_0, # of connection points: 6
#     Node 4, Type 0, BuildingBlock: BETDEL_clean_sbu_0, # of connection points: 6
#     Node 5, Type 0, BuildingBlock: BETDEL_clean_sbu_0, # of connection points: 6
#     Node 6, Type 0, BuildingBlock: BETDEL_clean_sbu_0, # of connection points: 6
#     Node 7, Type 0, BuildingBlock: BETDEL_clean_sbu_0, # of connection points: 6
#     Node 8, Type 0, BuildingBlock: BETDEL_clean_sbu_0, # of connection points: 6
#     Node 9, Type 0, BuildingBlock: BETDEL_clean_sbu_0, # of connection points: 6
#     Node 10, Type 0, BuildingBlock: BETDEL_clean_sbu_0, # of connection points: 6
#     Node 11, Type 0, BuildingBlock: BETDEL_clean_sbu_0, # of connection points: 6
#     Node 12, Type 0, BuildingBlock: BETDEL_clean_sbu_0, # of connection points: 6
#     Node 13, Type 0, BuildingBlock: BETDEL_clean_sbu_0, # of connection points: 6
#     Node 14, Type 0, BuildingBlock: BETDEL_clean_sbu_0, # of connection points: 6
#     Node 15, Type 0, BuildingBlock: BETDEL_clean_sbu_0, # of connection points: 6
#     Edge 16, Type (0, 0), BuildingBlock: EZIPEK_clean_linker_0, # of connection points: 2
#     Edge 17, Type (0, 0), BuildingBlock: EZIPEK_clean_linker_0, # of connection points: 2
#     Edge 18, Type (0, 0), BuildingBlock: EZIPEK_clean_linker_0, # of connection points: 2
#     Edge 19, Type (0, 0), BuildingBlock: EZIPEK_clean_linker_0, # of connection points: 2
#     Edge 20, Type (0, 0), BuildingBlock: EZIPEK_clean_linker_0, # of connection points: 2
#     Edge 21, Type (0, 0), BuildingBlock: EZIPEK_clean_linker_0, # of connection points: 2
#     Edge 22, Type (0, 0), BuildingBlock: EZIPEK_clean_linker_0, # of connection points: 2
#     Edge 23, Type (0, 0), BuildingBlock: EZIPEK_clean_linker_0, # of connection points: 2
#     Edge 24, Type (0, 0), BuildingBlock: EZIPEK_clean_linker_0, # of connection points: 2
#     Edge 25, Type (0, 0), BuildingBlock: EZIPEK_clean_linker_0, # of connection points: 2
#     Edge 26, Type (0, 0), BuildingBlock: EZIPEK_clean_linker_0, # of connection points: 2
#     Edge 27, Type (0, 0), BuildingBlock: EZIPEK_clean_linker_0, # of connection points: 2
#     Edge 28, Type (0, 0), BuildingBlock: EZIPEK_clean_linker_0, # of connection points: 2
#     Edge 29, Type (0, 0), BuildingBlock: EZIPEK_clean_linker_0, # of connection points: 2
#     Edge 30, Type (0, 0), BuildingBlock: EZIPEK_clean_linker_0, # of connection points: 2
#     Edge 31, Type (0, 0), BuildingBlock: EZIPEK_clean_linker_0, # of connection points: 2
#     Edge 32, Type (0, 0), BuildingBlock: EZIPEK_clean_linker_0, # of connection points: 2
#     Edge 33, Type (0, 0), BuildingBlock: EZIPEK_clean_linker_0, # of connection points: 2
#     Edge 34, Type (0, 0), BuildingBlock: EZIPEK_clean_linker_0, # of connection points: 2
#     Edge 35, Type (0, 0), BuildingBlock: EZIPEK_clean_linker_0, # of connection points: 2
#     Edge 36, Type (0, 0), BuildingBlock: EZIPEK_clean_linker_0, # of connection points: 2
#     Edge 37, Type (0, 0), BuildingBlock: EZIPEK_clean_linker_0, # of connection points: 2
#     Edge 38, Type (0, 0), BuildingBlock: EZIPEK_clean_linker_0, # of connection points: 2
#     Edge 39, Type (0, 0), BuildingBlock: EZIPEK_clean_linker_0, # of connection points: 2
#     Edge 40, Type (0, 0), BuildingBlock: EZIPEK_clean_linker_0, # of connection points: 2
#     Edge 41, Type (0, 0), BuildingBlock: EZIPEK_clean_linker_0, # of connection points: 2
#     Edge 42, Type (0, 0), BuildingBlock: EZIPEK_clean_linker_0, # of connection points: 2
#     Edge 43, Type (0, 0), BuildingBlock: EZIPEK_clean_linker_0, # of connection points: 2
#     Edge 44, Type (0, 0), BuildingBlock: EZIPEK_clean_linker_0, # of connection points: 2
#     Edge 45, Type (0, 0), BuildingBlock: EZIPEK_clean_linker_0, # of connection points: 2
#     Edge 46, Type (0, 0), BuildingBlock: EZIPEK_clean_linker_0, # of connection points: 2
#     Edge 47, Type (0, 0), BuildingBlock: EZIPEK_clean_linker_0, # of connection points: 2
#     Edge 48, Type (0, 0), BuildingBlock: EZIPEK_clean_linker_0, # of connection points: 2
#     Edge 49, Type (0, 0), BuildingBlock: EZIPEK_clean_linker_0, # of connection points: 2
#     Edge 50, Type (0, 0), BuildingBlock: EZIPEK_clean_linker_0, # of connection points: 2
#     Edge 51, Type (0, 0), BuildingBlock: EZIPEK_clean_linker_0, # of connection points: 2
#     Edge 52, Type (0, 0), BuildingBlock: EZIPEK_clean_linker_0, # of connection points: 2
#     Edge 53, Type (0, 0), BuildingBlock: EZIPEK_clean_linker_0, # of connection points: 2
#     Edge 54, Type (0, 0), BuildingBlock: EZIPEK_clean_linker_0, # of connection points: 2
#     Edge 55, Type (0, 0), BuildingBlock: EZIPEK_clean_linker_0, # of connection points: 2
#     Edge 56, Type (0, 0), BuildingBlock: EZIPEK_clean_linker_0, # of connection points: 2
#     Edge 57, Type (0, 0), BuildingBlock: EZIPEK_clean_linker_0, # of connection points: 2
#     Edge 58, Type (0, 0), BuildingBlock: EZIPEK_clean_linker_0, # of connection points: 2
#     Edge 59, Type (0, 0), BuildingBlock: EZIPEK_clean_linker_0, # of connection points: 2
#     Edge 60, Type (0, 0), BuildingBlock: EZIPEK_clean_linker_0, # of connection points: 2
#     Edge 61, Type (0, 0), BuildingBlock: EZIPEK_clean_linker_0, # of connection points: 2
#     Edge 62, Type (0, 0), BuildingBlock: EZIPEK_clean_linker_0, # of connection points: 2
#     Edge 63, Type (0, 0), BuildingBlock: EZIPEK_clean_linker_0, # of connection points: 2
# Relax obj value: 0.061
# Max RMSD: 0.119
# Mean RMSD: 0.119
data_MOF--net-vbm--node1-BETDEL_clean_sbu_0--edge1-EZIPEK_clean_linker_0
_symmetry_space_group_name_H-M    P1
_symmetry_Int_Tables_number       1
_symmetry_cell_setting            triclinic
loop_
_symmetry_equiv_pos_as_xyz
'x, y, z'
_cell_length_a     42.921731
_cell_length_b     14.020078
_cell_length_c     41.324747
_cell_angle_alpha  89.82564
_cell_angle_beta   90.049906
_cell_angle_gamma 90.103091
loop_
_atom_site_label
_atom_site_type_symbol
_atom_site_fract_x
_atom_site_fract_y
_atom_site_fract_z
_atom_type_partial_charge
Dy0 Dy 0.12276 1.01958 0.13828 0.0
C1 C 0.10273 0.4185 0.14643 0.0
C2 C 0.12173 0.82535 0.14095 0.0
Dy3 Dy 0.1096 0.2261 0.15022 0.0
O4 O 0.11011 0.87653 0.11773 0.0
O5 O 0.13501 0.87992 0.16225 0.0
O6 O 0.14378 0.05144 0.09026 0.0
O7 O 0.10682 0.13603 0.10658 0.0
C8 C 0.12655 0.1253 0.084 0.0
C9 C 0.12537 0.1234 0.20409 0.0
O10 O 0.06015 0.18261 0.14462 0.0
O11 O 0.07053 1.01988 0.14083 0.0
O12 O 0.09028 0.36517 0.16883 0.0
O13 O 0.11781 0.36644 0.12591 0.0
O14 O 0.13279 0.21211 0.19941 0.0
O15 O 0.10842 0.09769 0.1809 0.0
O16 O 0.17115 0.07602 0.14872 0.0
O17 O 0.15885 0.23137 0.13571 0.0
C18 C 0.05101 0.09279 0.14235 0.0
C19 C 0.17939 0.16514 0.14214 0.0
Dy20 Dy 0.84936 1.02313 0.14008 0.0
C21 C 0.87253 0.62273 0.1445 0.0
C22 C 0.84638 0.21708 0.14553 0.0
Dy23 Dy 0.86967 0.81705 0.14922 0.0
O24 O 0.83768 0.16863 0.12037 0.0
O25 O 0.85543 0.15931 0.16825 0.0
O26 O 0.83395 0.99299 0.08982 0.0
O27 O 0.87237 0.9181 0.10842 0.0
C28 C 0.85405 0.92588 0.08441 0.0
C29 C 0.86557 0.91658 0.2048 0.0
O30 O 0.91701 0.87804 0.14102 0.0
O31 O 0.90112 0.03622 0.14492 0.0
O32 O 0.88059 0.67182 0.16972 0.0
O33 O 0.8643 0.68002 0.12131 0.0
O34 O 0.88287 0.84172 0.20089 0.0
O35 O 0.84793 0.92441 0.18038 0.0
O36 O 0.8023 0.95882 0.14943 0.0
O37 O 0.81871 0.80287 0.14126 0.0
C38 C 0.92314 0.9705 0.14354 0.0
C39 C 0.79656 0.86665 0.14506 0.0
Dy40 Dy 0.12233 0.03387 0.39515 0.0
C41 C 0.10179 0.62562 0.39005 0.0
C42 C 0.13033 0.22422 0.38839 0.0
Dy43 Dy 0.10339 0.81761 0.38212 0.0
O44 O 0.14229 0.17347 0.41178 0.0
O45 O 0.11586 0.16995 0.36788 0.0
O46 O 0.10371 1.02486 0.44522 0.0
O47 O 0.12097 0.90153 0.42368 0.0
C48 C 0.1071 0.93329 0.44853 0.0
C49 C 0.10892 0.92107 0.32638 0.0
O50 O 0.05725 0.8759 0.39692 0.0
O51 O 0.07032 0.03706 0.39071 0.0
O52 O 0.08668 0.67171 0.36764 0.0
O53 O 0.11646 0.68454 0.40876 0.0
O54 O 0.10223 0.83053 0.32664 0.0
O55 O 0.11193 0.94529 0.3553 0.0
O56 O 0.16995 0.96856 0.3873 0.0
O57 O 0.15478 0.8092 0.3795 0.0
C58 C 0.04982 0.96748 0.3953 0.0
C59 C 0.1762 0.8764 0.38244 0.0
Dy60 Dy 0.85081 0.04349 0.3897 0.0
C61 C 0.87017 0.44106 0.37914 0.0
C62 C 0.84997 0.84932 0.38329 0.0
Dy63 Dy 0.86858 0.24614 0.37912 0.0
O64 O 0.84276 0.89535 0.40943 0.0
O65 O 0.85624 0.90944 0.36027 0.0
O66 O 0.83116 0.07375 0.43804 0.0
O67 O 0.87012 0.15241 0.42227 0.0
C68 C 0.85042 0.14233 0.44506 0.0
C69 C 0.86861 0.1375 0.32519 0.0
O70 O 0.91693 0.20039 0.38987 0.0
O71 O 0.90358 0.0398 0.39067 0.0
O72 O 0.86399 0.38856 0.3542 0.0
O73 O 0.87633 0.38738 0.40397 0.0
O74 O 0.8886 0.20521 0.33059 0.0
O75 O 0.84861 0.13546 0.34756 0.0
O76 O 0.80301 0.10152 0.37951 0.0
O77 O 0.81785 0.25725 0.38979 0.0
C78 C 0.92458 0.10938 0.39133 0.0
C79 C 0.79618 0.19242 0.38476 0.0
Dy80 Dy 0.87059 0.81598 0.88134 0.0
C81 C 0.85272 0.20978 0.88273 0.0
C82 C 0.87227 0.62069 0.88069 0.0
Dy83 Dy 0.85151 1.01492 0.89068 0.0
O84 O 0.8619 0.67428 0.8575 0.0
O85 O 0.88311 0.6738 0.90385 0.0
O86 O 0.88752 0.85878 0.83179 0.0
O87 O 0.84703 0.92042 0.8495 0.0
C88 C 0.86539 0.91947 0.82574 0.0
C89 C 0.8557 0.92302 0.94768 0.0
O90 O 0.80481 0.94751 0.88001 0.0
O91 O 0.82166 0.80089 0.89773 0.0
O92 O 0.83097 0.16246 0.89787 0.0
O93 O 0.87268 0.15002 0.87111 0.0
O94 O 0.83696 0.9934 0.94176 0.0
O95 O 0.87387 0.91172 0.92375 0.0
O96 O 0.91893 0.86714 0.88784 0.0
O97 O 0.9037 1.02517 0.8844 0.0
C98 C 0.79902 0.85884 0.88958 0.0
C99 C 0.9256 0.95886 0.88584 0.0
Dy100 Dy 0.10792 0.23804 0.88158 0.0
C101 C 0.12797 0.84225 0.88811 0.0
C102 C 0.10726 0.43361 0.88291 0.0
Dy103 Dy 0.12759 0.03827 0.89129 0.0
O104 O 0.11389 0.382 0.85788 0.0
O105 O 0.09919 0.3784 0.90678 0.0
O106 O 0.08972 0.19839 0.8326 0.0
O107 O 0.13023 0.13213 0.84928 0.0
C108 C 0.11086 0.1349 0.82623 0.0
C109 C 0.12384 0.13636 0.94749 0.0
O110 O 0.17368 0.10329 0.87694 0.0
O111 O 0.15795 0.25044 0.89494 0.0
O112 O 0.15027 0.89386 0.90033 0.0
O113 O 0.10628 0.89761 0.87725 0.0
O114 O 0.14299 0.06697 0.94211 0.0
O115 O 0.10537 0.14264 0.92375 0.0
O116 O 0.06018 0.182 0.89081 0.0
O117 O 0.07599 1.02727 0.8809 0.0
C118 C 0.18009 0.19215 0.88568 0.0
C119 C 0.05373 0.09091 0.8858 0.0
Dy120 Dy 0.86839 0.23724 0.64912 0.0
C121 C 0.84752 0.84086 0.6447 0.0
C122 C 0.86789 0.43235 0.65072 0.0
Dy123 Dy 0.84933 0.03529 0.63802 0.0
O124 O 0.85143 0.37682 0.66907 0.0
O125 O 0.88557 0.38157 0.63192 0.0
O126 O 0.88687 0.19894 0.69867 0.0
O127 O 0.84837 0.12546 0.68037 0.0
C128 C 0.86817 0.1272 0.70295 0.0
C129 C 0.85021 0.13656 0.58273 0.0
O130 O 0.80241 0.09959 0.64888 0.0
O131 O 0.81909 0.24886 0.63295 0.0
O132 O 0.83825 0.88766 0.61929 0.0
O133 O 0.85632 0.90036 0.66683 0.0
O134 O 0.83066 0.06818 0.58925 0.0
O135 O 0.86966 0.14432 0.60584 0.0
O136 O 0.91656 0.18774 0.63922 0.0
O137 O 0.90199 1.02807 0.63746 0.0
C138 C 0.79657 0.18938 0.64061 0.0
C139 C 0.92351 0.09614 0.63748 0.0
Dy140 Dy 0.10479 0.81495 0.65125 0.0
C141 C 0.12777 0.21379 0.64616 0.0
C142 C 0.10603 0.6205 0.65244 0.0
Dy143 Dy 0.12093 1.02238 0.63811 0.0
O144 O 0.11944 0.67554 0.67343 0.0
O145 O 0.09064 0.67139 0.63148 0.0
O146 O 0.08472 0.85517 0.70001 0.0
O147 O 0.12138 0.93412 0.68102 0.0
C148 C 0.10155 0.93155 0.70344 0.0
C149 C 0.10515 0.92561 0.58401 0.0
O150 O 0.17007 0.96507 0.6402 0.0
O151 O 0.15582 0.8049 0.64416 0.0
O152 O 0.13935 0.16578 0.62202 0.0
O153 O 0.11412 0.15644 0.66636 0.0
O154 O 0.09956 1.01528 0.58904 0.0
O155 O 0.12048 0.89363 0.60789 0.0
O156 O 0.05779 0.86355 0.63514 0.0
O157 O 0.069 1.0228 0.64415 0.0
C158 C 0.17703 0.87257 0.64161 0.0
C159 C 0.04902 0.95326 0.63814 0.0
Dy160 Dy 0.62268 0.52992 0.13847 0.0
C161 C 0.60513 0.92941 0.14704 0.0
C162 C 0.62771 0.33769 0.1475 0.0
Dy163 Dy 0.60512 0.7349 0.1455 0.0
O164 O 0.64604 0.38838 0.12897 0.0
O165 O 0.60854 0.39348 0.16252 0.0
O166 O 0.60416 0.52384 0.08807 0.0
O167 O 0.62222 0.65155 0.10428 0.0
C168 C 0.60807 0.61286 0.08097 0.0
C169 C 0.60453 0.6313 0.20151 0.0
O170 O 0.55944 0.67775 0.12895 0.0
O171 O 0.57129 0.52886 0.14884 0.0
O172 O 0.61741 0.87418 0.1687 0.0
O173 O 0.59137 0.8784 0.12495 0.0
O174 O 0.58358 0.69372 0.19349 0.0
O175 O 0.62407 0.62796 0.179 0.0
O176 O 0.67118 0.58929 0.1437 0.0
O177 O 0.65602 0.74764 0.13734 0.0
C178 C 0.55088 0.591 0.1376 0.0
C179 C 0.67767 0.68167 0.14058 0.0
Dy180 Dy 0.34819 0.51888 0.13411 0.0
C181 C 0.3712 0.11911 0.14068 0.0
C182 C 0.34542 0.71307 0.13933 0.0
Dy183 Dy 0.3686 0.31374 0.14443 0.0
O184 O 0.33812 0.6648 0.11365 0.0
O185 O 0.35305 0.65511 0.16253 0.0
O186 O 0.33162 0.48537 0.08451 0.0
O187 O 0.37065 0.4122 0.10276 0.0
C188 C 0.35193 0.41885 0.07898 0.0
C189 C 0.36554 0.41844 0.19918 0.0
O190 O 0.41609 0.37245 0.13629 0.0
O191 O 0.40026 0.53102 0.13799 0.0
O192 O 0.37616 0.16867 0.16665 0.0
O193 O 0.36626 0.17606 0.11639 0.0
O194 O 0.38316 0.3441 0.19539 0.0
O195 O 0.34733 0.42322 0.17514 0.0
O196 O 0.30108 0.45439 0.14393 0.0
O197 O 0.31774 0.29828 0.13686 0.0
C198 C 0.42232 0.46503 0.13741 0.0
C199 C 0.29553 0.36173 0.14054 0.0
Dy200 Dy 0.61979 0.5184 0.38718 0.0
C201 C 0.60401 0.11628 0.37549 0.0
C202 C 0.62628 0.70939 0.37787 0.0
Dy203 Dy 0.60269 0.31063 0.37724 0.0
O204 O 0.63961 0.66144 0.40114 0.0
O205 O 0.61109 0.65208 0.35892 0.0
O206 O 0.60032 0.51748 0.43696 0.0
O207 O 0.61984 0.39237 0.41923 0.0
C208 C 0.60545 0.42812 0.44303 0.0
C209 C 0.59811 0.42343 0.32412 0.0
O210 O 0.5565 0.36195 0.39466 0.0
O211 O 0.56781 0.51908 0.38192 0.0
O212 O 0.61617 0.17235 0.35394 0.0
O213 O 0.5898 0.16611 0.39751 0.0
O214 O 0.5802 0.35036 0.32936 0.0
O215 O 0.61883 0.42595 0.34561 0.0
O216 O 0.6686 0.46056 0.38291 0.0
O217 O 0.65397 0.30032 0.38341 0.0
C218 C 0.54789 0.45144 0.39034 0.0
C219 C 0.67535 0.36794 0.38321 0.0
Dy220 Dy 0.35068 0.54427 0.38557 0.0
C221 C 0.37121 0.94207 0.37488 0.0
C222 C 0.34925 0.34959 0.38028 0.0
Dy223 Dy 0.36956 0.7471 0.37373 0.0
O224 O 0.34405 0.39686 0.40666 0.0
O225 O 0.35386 0.40864 0.35655 0.0
O226 O 0.33118 0.57737 0.43386 0.0
O227 O 0.37006 0.65518 0.41719 0.0
C228 C 0.35007 0.64766 0.43982 0.0
C229 C 0.36966 0.63517 0.32058 0.0
O230 O 0.41768 0.69954 0.38502 0.0
O231 O 0.40349 0.53954 0.38587 0.0
O232 O 0.36706 0.89074 0.34918 0.0
O233 O 0.3756 0.88709 0.39979 0.0
O234 O 0.38945 0.70393 0.32543 0.0
O235 O 0.3495 0.63475 0.34287 0.0
O236 O 0.30283 0.60351 0.37582 0.0
O237 O 0.31848 0.76068 0.38212 0.0
C238 C 0.42486 0.60812 0.38661 0.0
C239 C 0.29649 0.69571 0.37906 0.0
Dy240 Dy 0.36767 0.33255 0.87498 0.0
C241 C 0.35033 0.73929 0.88328 0.0
C242 C 0.37476 0.14106 0.8783 0.0
Dy243 Dy 0.35084 0.54678 0.88792 0.0
O244 O 0.38516 0.19405 0.85472 0.0
O245 O 0.36247 0.19347 0.90071 0.0
O246 O 0.34729 0.34713 0.82491 0.0
O247 O 0.36757 0.46525 0.84646 0.0
C248 C 0.35253 0.43798 0.82194 0.0
C249 C 0.35544 0.45177 0.94492 0.0
O250 O 0.30294 0.48544 0.87896 0.0
O251 O 0.31703 0.32567 0.88482 0.0
O252 O 0.36792 0.69024 0.90256 0.0
O253 O 0.33174 0.68347 0.86703 0.0
O254 O 0.34841 0.54148 0.94264 0.0
O255 O 0.35885 0.42002 0.91667 0.0
O256 O 0.41538 0.38998 0.88516 0.0
O257 O 0.40192 0.54895 0.8767 0.0
C258 C 0.29596 0.39325 0.88159 0.0
C259 C 0.4229 0.48135 0.88163 0.0
Dy260 Dy 0.61216 0.72699 0.878 0.0
C261 C 0.63006 0.32563 0.88587 0.0
C262 C 0.60563 0.92052 0.87785 0.0
Dy263 Dy 0.62338 0.51891 0.88952 0.0
O264 O 0.61896 0.87117 0.8554 0.0
O265 O 0.59443 0.8639 0.89995 0.0
O266 O 0.63176 0.71091 0.82749 0.0
O267 O 0.60755 0.59855 0.84809 0.0
C268 C 0.62377 0.62238 0.82418 0.0
C269 C 0.60924 0.61579 0.94381 0.0
O270 O 0.67299 0.57511 0.8837 0.0
O271 O 0.66087 0.7322 0.8948 0.0
O272 O 0.62829 0.37397 0.91252 0.0
O273 O 0.63048 0.38357 0.86134 0.0
O274 O 0.59972 0.53028 0.93715 0.0
O275 O 0.62672 0.64496 0.9211 0.0
O276 O 0.56246 0.68016 0.88366 0.0
O277 O 0.57236 0.51803 0.87875 0.0
C278 C 0.68143 0.66499 0.88934 0.0
C279 C 0.55283 0.59055 0.88119 0.0
Dy280 Dy 0.37012 0.73671 0.64301 0.0
C281 C 0.34781 0.33923 0.63056 0.0
C282 C 0.37012 0.93167 0.63827 0.0
Dy283 Dy 0.34993 0.53483 0.62888 0.0
O284 O 0.38473 0.88323 0.66051 0.0
O285 O 0.35667 0.87371 0.61828 0.0
O286 O 0.38594 0.69716 0.69328 0.0
O287 O 0.34905 0.62222 0.67241 0.0
C288 C 0.3678 0.62331 0.69606 0.0
C289 C 0.3519 0.64772 0.57611 0.0
O290 O 0.30183 0.59384 0.63631 0.0
O291 O 0.31845 0.75132 0.64004 0.0
O292 O 0.35741 0.39037 0.60634 0.0
O293 O 0.33808 0.39487 0.6535 0.0
O294 O 0.33188 0.57903 0.58048 0.0
O295 O 0.37127 0.64809 0.59933 0.0
O296 O 0.41707 0.68194 0.62953 0.0
O297 O 0.40175 0.52471 0.63599 0.0
C298 C 0.29614 0.68673 0.63829 0.0
C299 C 0.42363 0.59008 0.6323 0.0
Dy300 Dy 0.60703 0.31733 0.64574 0.0
C301 C 0.63079 0.72306 0.63675 0.0
C302 C 0.60716 0.12497 0.64257 0.0
Dy303 Dy 0.62263 0.53216 0.63251 0.0
O304 O 0.62461 0.17542 0.66153 0.0
O305 O 0.58842 0.1792 0.62587 0.0
O306 O 0.60182 0.32945 0.70089 0.0
O307 O 0.61315 0.4453 0.67338 0.0
C308 C 0.60897 0.41948 0.70206 0.0
C309 C 0.6076 0.43101 0.57938 0.0
O310 O 0.67127 0.4736 0.64006 0.0
O311 O 0.65786 0.31275 0.6364 0.0
O312 O 0.63888 0.67203 0.61191 0.0
O313 O 0.62001 0.66907 0.65969 0.0
O314 O 0.60058 0.51987 0.58415 0.0
O315 O 0.62348 0.40113 0.60331 0.0
O316 O 0.55929 0.36804 0.63348 0.0
O317 O 0.57056 0.53054 0.63791 0.0
C318 C 0.6787 0.38149 0.63871 0.0
C319 C 0.5507 0.45858 0.63486 0.0
C320 C 0.22609 0.22393 0.1721 0.0
C321 C 0.21208 0.19768 0.14233 0.0
C322 C 0.2487 0.2998 0.11278 0.0
C323 C 0.26387 0.32175 0.14223 0.0
N324 N 0.2705 0.29425 0.19945 0.0
N325 N 0.21394 0.19254 0.08428 0.0
C326 C 0.25354 0.28084 0.17181 0.0
C327 C 0.22467 0.23023 0.11262 0.0
N328 N 0.21252 0.19738 0.20062 0.0
N329 N 0.25713 0.3465 0.08506 0.0
H330 H 0.19709 0.13889 0.08382 0.0
H331 H 0.22373 0.20705 0.06175 0.0
H332 H 0.27443 0.39888 0.08472 0.0
H333 H 0.24524 0.33992 0.06321 0.0
H334 H 0.21912 0.22448 0.22304 0.0
H335 H 0.19357 0.15097 0.20168 0.0
H336 H 0.26645 0.25695 0.22087 0.0
H337 H 0.28985 0.33925 0.20047 0.0
C338 C 0.74683 0.83094 0.11677 0.0
C339 C 0.76465 0.82824 0.14559 0.0
C340 C 0.7266 0.72027 0.17068 0.0
C341 C 0.70995 0.71764 0.14105 0.0
N342 N 0.70615 0.7576 0.08446 0.0
N343 N 0.77438 0.76174 0.19857 0.0
C344 C 0.72069 0.76937 0.11365 0.0
C345 C 0.75538 0.77022 0.17213 0.0
N346 N 0.75485 0.89279 0.09252 0.0
N347 N 0.71417 0.67946 0.19785 0.0
H348 H 0.79464 0.80203 0.20153 0.0
H349 H 0.77103 0.71105 0.21671 0.0
H350 H 0.69342 0.64081 0.19771 0.0
H351 H 0.72326 0.68917 0.22098 0.0
H352 H 0.74124 0.90494 0.07207 0.0
H353 H 0.77399 0.93841 0.09409 0.0
H354 H 0.71446 0.78557 0.06276 0.0
H355 H 0.68704 0.71248 0.08144 0.0
C356 C 0.24578 0.72649 0.40733 0.0
C357 C 0.26406 0.73227 0.37886 0.0
C358 C 0.22805 0.85145 0.35611 0.0
C359 C 0.20859 0.84022 0.38347 0.0
N360 N 0.19705 0.76179 0.43422 0.0
N361 N 0.27045 0.78714 0.3241 0.0
C362 C 0.21701 0.77636 0.40886 0.0
C363 C 0.25457 0.79141 0.35268 0.0
N364 N 0.25642 0.67583 0.43336 0.0
N365 N 0.2212 0.91962 0.33351 0.0
H366 H 0.28915 0.7409 0.32077 0.0
H367 H 0.26344 0.82154 0.30297 0.0
H368 H 0.20184 0.96409 0.33538 0.0
H369 H 0.23588 0.93759 0.3144 0.0
H370 H 0.24671 0.67979 0.45639 0.0
H371 H 0.27613 0.63292 0.43231 0.0
H372 H 0.19963 0.70729 0.45116 0.0
H373 H 0.17681 0.80151 0.43754 0.0
C374 C 0.74892 0.24927 0.41428 0.0
C375 C 0.76367 0.22715 0.38455 0.0
C376 C 0.72393 0.31832 0.35507 0.0
C377 C 0.70785 0.33371 0.38451 0.0
N378 N 0.70176 0.2989 0.44141 0.0
N379 N 0.76273 0.22541 0.32638 0.0
C380 C 0.71945 0.29509 0.41395 0.0
C381 C 0.75038 0.2572 0.35481 0.0
N382 N 0.76329 0.22773 0.44289 0.0
N383 N 0.7139 0.36246 0.32744 0.0
H384 H 0.78141 0.17804 0.32573 0.0
H385 H 0.75276 0.23797 0.3038 0.0
H386 H 0.69464 0.40775 0.32704 0.0
H387 H 0.72608 0.36108 0.30567 0.0
H388 H 0.75576 0.25314 0.46521 0.0
H389 H 0.78387 0.18866 0.44413 0.0
H390 H 0.7073 0.2624 0.46263 0.0
H391 H 0.68024 0.33295 0.4423 0.0
C392 C 0.7279 0.72554 0.91866 0.0
C393 C 0.71427 0.69724 0.88895 0.0
C394 C 0.75559 0.78113 0.85909 0.0
C395 C 0.7675 0.81642 0.8888 0.0
N396 N 0.76377 0.83135 0.94663 0.0
N397 N 0.71288 0.7049 0.83071 0.0
C398 C 0.7533 0.79091 0.91857 0.0
C399 C 0.72765 0.72632 0.85909 0.0
N400 N 0.71651 0.68874 0.94694 0.0
N401 N 0.77157 0.79728 0.83098 0.0
H402 H 0.69339 0.66069 0.82969 0.0
H403 H 0.71894 0.73451 0.80845 0.0
H404 H 0.79129 0.84067 0.82972 0.0
H405 H 0.7664 0.76346 0.80923 0.0
H406 H 0.72672 0.69935 0.96949 0.0
H407 H 0.69813 0.64012 0.94736 0.0
H408 H 0.75301 0.82257 0.96899 0.0
H409 H 0.782 0.88067 0.94712 0.0
C410 C 0.25081 0.32222 0.85204 0.0
C411 C 0.2634 0.35896 0.88123 0.0
C412 C 0.22575 0.26601 0.91258 0.0
C413 C 0.21168 0.23402 0.88354 0.0
N414 N 0.20771 0.24206 0.82538 0.0
N415 N 0.25863 0.38428 0.9384 0.0
C416 C 0.2234 0.26477 0.85311 0.0
C417 C 0.24944 0.33662 0.91125 0.0
N418 N 0.2655 0.34081 0.82339 0.0
N419 N 0.21707 0.22618 0.94141 0.0
H420 H 0.27565 0.43756 0.93775 0.0
H421 H 0.24746 0.37748 0.96067 0.0
H422 H 0.20051 0.17174 0.94287 0.0
H423 H 0.22837 0.24013 0.96321 0.0
H424 H 0.26003 0.30666 0.80178 0.0
H425 H 0.28414 0.38839 0.82162 0.0
H426 H 0.21287 0.27164 0.80287 0.0
H427 H 0.18832 0.19716 0.82513 0.0
C428 C 0.72529 0.32515 0.66936 0.0
C429 C 0.71146 0.34858 0.63919 0.0
C430 C 0.75031 0.25147 0.61079 0.0
C431 C 0.76471 0.23 0.64084 0.0
N432 N 0.76817 0.25117 0.6985 0.0
N433 N 0.71248 0.34642 0.58111 0.0
C434 C 0.75274 0.26802 0.67011 0.0
C435 C 0.72461 0.31545 0.60986 0.0
N436 N 0.71148 0.35541 0.69729 0.0
N437 N 0.76082 0.20821 0.58328 0.0
H438 H 0.69371 0.39326 0.58003 0.0
H439 H 0.72222 0.33251 0.55858 0.0
H440 H 0.77908 0.15939 0.58349 0.0
H441 H 0.75013 0.214 0.56078 0.0
H442 H 0.71774 0.33192 0.72029 0.0
H443 H 0.69279 0.4029 0.69731 0.0
H444 H 0.76323 0.28542 0.72019 0.0
H445 H 0.7869 0.20417 0.70011 0.0
C446 C 0.2293 0.84104 0.66574 0.0
C447 C 0.20938 0.83748 0.63847 0.0
C448 C 0.24504 0.72539 0.61161 0.0
C449 C 0.26393 0.72458 0.63976 0.0
N450 N 0.27131 0.76573 0.69567 0.0
N451 N 0.1963 0.77147 0.58633 0.0
C452 C 0.25529 0.77837 0.66738 0.0
C453 C 0.21678 0.77838 0.6116 0.0
N454 N 0.22318 0.9038 0.69017 0.0
N455 N 0.25459 0.67801 0.58454 0.0
H456 H 0.17659 0.81443 0.58428 0.0
H457 H 0.19794 0.72066 0.56811 0.0
H458 H 0.27409 0.63399 0.58425 0.0
H459 H 0.24422 0.68566 0.56191 0.0
H460 H 0.23837 0.91673 0.70931 0.0
H461 H 0.20396 0.94918 0.68993 0.0
H462 H 0.2649 0.79609 0.71762 0.0
H463 H 0.28935 0.71638 0.69782 0.0
C464 C 0.13955 0.95302 0.27562 0.0
C465 C 0.11531 0.98044 0.29694 0.0
C466 C 0.1011 0.11154 0.25975 0.0
C467 C 0.12335 0.0781 0.23695 0.0
N468 N 0.16283 0.96409 0.22238 0.0
N469 N 0.07166 0.08195 0.30886 0.0
C470 C 0.14236 0.99819 0.24476 0.0
C471 C 0.09603 0.05963 0.2891 0.0
N472 N 0.16066 0.88586 0.28543 0.0
N473 N 0.08461 0.19285 0.25333 0.0
H474 H 0.0679 0.0478 0.33082 0.0
H475 H 0.05405 0.12974 0.30283 0.0
H476 H 0.08553 0.22886 0.23127 0.0
H477 H 0.07119 0.22828 0.27045 0.0
H478 H 0.18094 0.86967 0.27283 0.0
H479 H 0.1595 0.85179 0.30787 0.0
H480 H 0.17433 0.89907 0.22446 0.0
H481 H 0.16702 0.99855 0.20057 0.0
C482 C 0.8431 0.09782 0.27139 0.0
C483 C 0.86695 0.08122 0.29446 0.0
C484 C 0.89223 0.97353 0.25604 0.0
C485 C 0.86579 0.97693 0.23503 0.0
N486 N 0.81193 1.02791 0.22903 0.0
N487 N 0.9095 0.98096 0.31128 0.0
C488 C 0.84002 0.03536 0.2443 0.0
C489 C 0.89005 1.01241 0.28754 0.0
N490 N 0.82375 0.17423 0.2748 0.0
N491 N 0.92019 0.93763 0.24597 0.0
H492 H 0.90787 1.00547 0.33482 0.0
H493 H 0.92461 0.92348 0.30831 0.0
H494 H 0.92487 0.91657 0.22239 0.0
H495 H 0.94037 0.9421 0.25998 0.0
H496 H 0.80786 0.1947 0.257 0.0
H497 H 0.82588 0.22244 0.29386 0.0
H498 H 0.79214 0.06421 0.23681 0.0
H499 H 0.80703 0.97645 0.21176 0.0
C500 C 0.84584 0.10763 0.75933 0.0
C501 C 0.8652 0.073 0.73411 0.0
C502 C 0.87489 0.92769 0.76573 0.0
C503 C 0.86057 0.96843 0.79337 0.0
N504 N 0.82767 0.09417 0.81481 0.0
N505 N 0.90218 0.95585 0.71577 0.0
C506 C 0.84431 0.05717 0.78965 0.0
C507 C 0.88087 0.98489 0.73808 0.0
N508 N 0.8292 0.18953 0.75426 0.0
N509 N 0.88061 0.83186 0.76471 0.0
H510 H 0.90698 0.99494 0.69503 0.0
H511 H 0.91683 0.89751 0.71934 0.0
H512 H 0.87287 0.78496 0.78263 0.0
H513 H 0.8886 0.79728 0.74403 0.0
H514 H 0.81196 0.21509 0.76956 0.0
H515 H 0.83173 0.23137 0.73352 0.0
H516 H 0.81712 0.16078 0.81474 0.0
H517 H 0.8243 0.05991 0.83668 0.0
C518 C 0.1271 0.99292 0.79004 0.0
C519 C 0.11374 0.08567 0.79388 0.0
C520 C 0.09118 0.07315 0.73948 0.0
C521 C 0.10545 0.98322 0.73483 0.0
N522 N 0.1426 0.86645 0.75322 0.0
N523 N 0.09573 0.22607 0.76547 0.0
C524 C 0.12519 0.94593 0.75936 0.0
C525 C 0.09955 0.12939 0.76657 0.0
N526 N 0.1409 0.94767 0.81552 0.0
N527 N 0.06883 0.10461 0.71862 0.0
H528 H 0.10492 0.27137 0.78305 0.0
H529 H 0.08769 0.26178 0.74493 0.0
H530 H 0.06113 0.06374 0.69935 0.0
H531 H 0.05575 0.16601 0.72268 0.0
H532 H 0.14646 0.8754 0.81536 0.0
H533 H 0.14577 0.9803 0.83739 0.0
H534 H 0.16028 0.84239 0.76846 0.0
H535 H 0.14111 0.82852 0.7316 0.0
C536 C 0.6249 0.45224 0.27058 0.0
C537 C 0.60057 0.47475 0.29252 0.0
C538 C 0.5873 0.61429 0.25961 0.0
C539 C 0.60716 0.58288 0.23428 0.0
N540 N 0.64931 0.47637 0.21834 0.0
N541 N 0.55541 0.56932 0.30509 0.0
C542 C 0.62748 0.50344 0.24055 0.0
C543 C 0.58071 0.55284 0.286 0.0
N544 N 0.6455 0.38142 0.27852 0.0
N545 N 0.57703 0.70648 0.26034 0.0
H546 H 0.54989 0.52607 0.32468 0.0
H547 H 0.53842 0.61978 0.29941 0.0
H548 H 0.58556 0.759 0.24479 0.0
H549 H 0.56437 0.73446 0.27961 0.0
H550 H 0.66627 0.36837 0.26643 0.0
H551 H 0.64265 0.33703 0.2986 0.0
H552 H 0.66295 0.41551 0.22017 0.0
H553 H 0.65476 0.51365 0.19754 0.0
C554 C 0.34555 0.60616 0.26522 0.0
C555 C 0.36733 0.58052 0.28952 0.0
C556 C 0.39151 0.471 0.25114 0.0
C557 C 0.36612 0.4808 0.22908 0.0
N558 N 0.31467 0.55036 0.22037 0.0
N559 N 0.40534 0.46577 0.30735 0.0
C560 C 0.34184 0.5465 0.23744 0.0
C561 C 0.38848 0.50592 0.28304 0.0
N562 N 0.32893 0.68855 0.26809 0.0
N563 N 0.41946 0.43374 0.24171 0.0
H564 H 0.40299 0.4876 0.33114 0.0
H565 H 0.41902 0.40509 0.30408 0.0
H566 H 0.42511 0.41919 0.21776 0.0
H567 H 0.43878 0.43183 0.25704 0.0
H568 H 0.31484 0.71515 0.24959 0.0
H569 H 0.33204 0.73518 0.28744 0.0
H570 H 0.29575 0.5915 0.22767 0.0
H571 H 0.30932 0.50527 0.2014 0.0
C572 C 0.33837 0.56829 0.78191 0.0
C573 C 0.35567 0.48494 0.78955 0.0
C574 C 0.37648 0.48416 0.7342 0.0
C575 C 0.36223 0.57364 0.72774 0.0
N576 N 0.33359 0.70891 0.74792 0.0
N577 N 0.39665 0.37565 0.77468 0.0
C578 C 0.34436 0.61818 0.75237 0.0
C579 C 0.37624 0.44619 0.76616 0.0
N580 N 0.31531 0.59779 0.80223 0.0
N581 N 0.38976 0.43378 0.7097 0.0
H582 H 0.39794 0.34686 0.79791 0.0
H583 H 0.41452 0.35248 0.75959 0.0
H584 H 0.3898 0.45837 0.68608 0.0
H585 H 0.3975 0.36373 0.71219 0.0
H586 H 0.29979 0.65237 0.79652 0.0
H587 H 0.30983 0.5614 0.82348 0.0
H588 H 0.32335 0.7487 0.7663 0.0
H589 H 0.33707 0.74729 0.72657 0.0
C590 C 0.59878 0.60482 0.76956 0.0
C591 C 0.62132 0.57387 0.79229 0.0
C592 C 0.63569 0.44182 0.75614 0.0
C593 C 0.61449 0.47646 0.73231 0.0
N594 N 0.58064 0.60372 0.71445 0.0
N595 N 0.66492 0.47315 0.80528 0.0
C596 C 0.59764 0.56205 0.73841 0.0
C597 C 0.64078 0.49513 0.78504 0.0
N598 N 0.57741 0.67246 0.77817 0.0
N599 N 0.65109 0.35777 0.7513 0.0
H600 H 0.66888 0.50917 0.82687 0.0
H601 H 0.68234 0.4244 0.79966 0.0
H602 H 0.65076 0.32086 0.72947 0.0
H603 H 0.66325 0.32205 0.76946 0.0
H604 H 0.55793 0.68907 0.76422 0.0
H605 H 0.57741 0.70613 0.80064 0.0
H606 H 0.57103 0.67171 0.71611 0.0
H607 H 0.57852 0.57382 0.69178 0.0
C608 C 0.13708 0.2232 0.99884 0.0
C609 C 0.11631 0.16361 0.98145 0.0
C610 C 0.09839 0.09135 0.03191 0.0
C611 C 0.11967 0.14879 0.04962 0.0
N612 N 0.15353 0.28566 0.05104 0.0
N613 N 0.06814 0.07658 0.98283 0.0
C614 C 0.13708 0.2206 0.0334 0.0
C615 C 0.09393 0.10938 0.99848 0.0
N616 N 0.15708 0.28081 0.98214 0.0
N617 N 0.08383 1.01568 0.04633 0.0
H618 H 0.0631 0.09758 0.95922 0.0
H619 H 0.04994 0.04144 0.9946 0.0
H620 H 0.08646 0.99887 0.07076 0.0
H621 H 0.07088 0.96567 0.0334 0.0
H622 H 0.17539 0.31809 0.99277 0.0
H623 H 0.15547 0.28926 0.9571 0.0
H624 H 0.16505 0.34399 0.04099 0.0
H625 H 0.15351 0.28527 0.07625 0.0
C626 C 0.88393 0.96555 0.9989 0.0
C627 C 0.86412 0.9018 0.98193 0.0
C628 C 0.84611 0.83279 0.03342 0.0
C629 C 0.86288 0.90435 0.05037 0.0
N630 N 0.89809 0.03865 0.0501 0.0
N631 N 0.83278 0.76014 0.98169 0.0
C632 C 0.88262 0.969 0.03338 0.0
C633 C 0.84736 0.83029 0.99889 0.0
N634 N 0.90373 1.02342 0.98187 0.0
N635 N 0.82763 0.77093 0.05043 0.0
H636 H 0.8342 0.75667 0.95655 0.0
H637 H 0.82135 0.70201 0.99191 0.0
H638 H 0.82719 0.76941 0.07567 0.0
H639 H 0.81218 0.72285 0.03998 0.0
H640 H 0.92104 0.06509 0.99236 0.0
H641 H 0.90454 1.02445 0.95668 0.0
H642 H 0.90979 0.09547 0.03935 0.0
H643 H 0.89828 0.04242 0.07527 0.0
C644 C 0.13859 0.93001 0.49914 0.0
C645 C 0.11232 0.89601 0.48182 0.0
C646 C 0.08834 0.84384 0.5329 0.0
C647 C 0.11134 0.89569 0.5501 0.0
N648 N 0.15959 0.98438 0.55033 0.0
N649 N 0.06395 0.81011 0.48088 0.0
C650 C 0.13729 0.93549 0.53346 0.0
C651 C 0.08796 0.84797 0.49834 0.0
N652 N 0.16448 0.95923 0.48258 0.0
N653 N 0.06687 0.79183 0.54979 0.0
H654 H 0.06441 0.80754 0.45567 0.0
H655 H 0.04358 0.78317 0.49106 0.0
H656 H 0.06727 0.78759 0.575 0.0
H657 H 0.05038 0.7475 0.5391 0.0
H658 H 0.18562 0.97571 0.4936 0.0
H659 H 0.16571 0.95908 0.4574 0.0
H660 H 0.17675 1.02618 0.53953 0.0
H661 H 0.16021 0.98685 0.57551 0.0
C662 C 0.87255 0.07587 0.53078 0.0
C663 C 0.85881 0.15217 0.54823 0.0
C664 C 0.84659 0.23465 0.49716 0.0
C665 C 0.85862 0.15573 0.47977 0.0
N666 N 0.88905 1.01133 0.47917 0.0
N667 N 0.83915 0.31228 0.54935 0.0
C668 C 0.87381 0.08008 0.4964 0.0
C669 C 0.84808 0.23468 0.53175 0.0
N670 N 0.88273 0.9967 0.54709 0.0
N671 N 0.83258 0.30727 0.48053 0.0
H672 H 0.84037 0.31338 0.57457 0.0
H673 H 0.83286 0.37751 0.53925 0.0
H674 H 0.83249 0.31054 0.45529 0.0
H675 H 0.82027 0.36239 0.49139 0.0
H676 H 0.88896 0.93305 0.53598 0.0
H677 H 0.88386 0.99287 0.57226 0.0
H678 H 0.9035 0.96013 0.48953 0.0
H679 H 0.88946 1.00982 0.45397 0.0
C680 C 0.59273 0.69708 0.02936 0.0
C681 C 0.61404 0.63883 0.04663 0.0
C682 C 0.63759 0.58572 0.9958 0.0
C683 C 0.615 0.63911 0.97833 0.0
N684 N 0.57632 0.76252 0.97736 0.0
N685 N 0.66241 0.55196 0.0473 0.0
C686 C 0.59438 0.70101 0.99484 0.0
C687 C 0.63846 0.59162 0.03009 0.0
N688 N 0.57022 0.74518 0.04595 0.0
N689 N 0.65696 0.52464 0.97975 0.0
H690 H 0.66354 0.55402 0.07249 0.0
H691 H 0.68256 0.5252 0.03669 0.0
H692 H 0.65807 0.52083 0.95458 0.0
H693 H 0.67086 0.47409 0.99126 0.0
H694 H 0.5517 0.78061 0.03501 0.0
H695 H 0.56975 0.74736 0.07116 0.0
H696 H 0.56223 0.81464 0.9876 0.0
H697 H 0.57733 0.76583 0.95217 0.0
C698 C 0.38719 0.4409 0.99473 0.0
C699 C 0.36221 0.40403 0.97645 0.0
C700 C 0.33939 0.33906 0.02637 0.0
C701 C 0.3601 0.39668 0.04477 0.0
N702 N 0.40335 0.50803 0.04574 0.0
N703 N 0.31712 0.30375 0.97339 0.0
C704 C 0.38447 0.44736 0.02889 0.0
C705 C 0.33933 0.34706 0.99183 0.0
N706 N 0.41345 0.47021 0.97906 0.0
N707 N 0.31965 0.27814 0.04211 0.0
H708 H 0.31828 0.30442 0.94819 0.0
H709 H 0.29771 0.26872 0.98274 0.0
H710 H 0.31982 0.27074 0.06726 0.0
H711 H 0.30495 0.23012 0.03048 0.0
H712 H 0.43365 0.49196 0.99096 0.0
H713 H 0.41589 0.46058 0.95416 0.0
H714 H 0.41903 0.55446 0.0346 0.0
H715 H 0.4019 0.51763 0.07064 0.0
C716 C 0.63697 0.44806 0.4933 0.0
C717 C 0.61214 0.40106 0.47714 0.0
C718 C 0.59276 0.34078 0.52931 0.0
C719 C 0.61388 0.40223 0.54543 0.0
N720 N 0.65702 0.51274 0.54346 0.0
N721 N 0.5679 0.29605 0.47854 0.0
C722 C 0.6368 0.45343 0.52761 0.0
C723 C 0.59081 0.34374 0.49479 0.0
N724 N 0.66038 0.48931 0.47567 0.0
N725 N 0.57439 0.2811 0.5472 0.0
H726 H 0.56712 0.29358 0.45333 0.0
H727 H 0.54937 0.26122 0.48972 0.0
H728 H 0.57564 0.2789 0.57241 0.0
H729 H 0.55977 0.22956 0.53735 0.0
H730 H 0.68088 0.51551 0.48578 0.0
H731 H 0.66063 0.49002 0.45045 0.0
H732 H 0.67132 0.56225 0.53194 0.0
H733 H 0.65854 0.51595 0.56861 0.0
C734 C 0.38383 0.64711 0.52524 0.0
C735 C 0.35813 0.68355 0.5426 0.0
C736 C 0.33435 0.73145 0.49083 0.0
C737 C 0.35617 0.67362 0.47415 0.0
N738 N 0.39906 0.56201 0.4773 0.0
N739 N 0.31022 0.77146 0.54235 0.0
C740 C 0.38056 0.62864 0.4917 0.0
C741 C 0.33391 0.73025 0.52542 0.0
N742 N 0.41143 0.63084 0.54052 0.0
N743 N 0.31404 0.78657 0.47353 0.0
H744 H 0.31084 0.77741 0.56752 0.0
H745 H 0.2899 0.79728 0.53172 0.0
H746 H 0.31427 0.7889 0.44829 0.0
H747 H 0.2989 0.83549 0.48399 0.0
H748 H 0.43148 0.60989 0.52822 0.0
H749 H 0.41525 0.65147 0.56436 0.0
H750 H 0.41479 0.52015 0.4903 0.0
H751 H 0.39691 0.54256 0.4531 0.0
C752 C 0.96788 0.05455 0.17018 0.0
C753 C 0.95568 1.0044 0.14306 0.0
C754 C 0.0038 0.03583 0.11327 0.0
C755 C 0.0175 0.07109 0.14199 0.0
N756 N 0.01418 0.10449 0.19908 0.0
N757 N 0.96248 0.94309 0.08885 0.0
C758 C -2e-05 0.07832 0.17082 0.0
C759 C 0.97386 0.99308 0.11465 0.0
N760 N 0.94888 0.0814 0.19506 0.0
N761 N 0.01877 0.04829 0.08442 0.0
H762 H 0.93992 0.91565 0.08791 0.0
H763 H 0.97609 0.92378 0.06908 0.0
H764 H 0.03958 0.0864 0.08271 0.0
H765 H 0.00898 0.03148 0.06208 0.0
H766 H 0.95604 0.12686 0.21353 0.0
H767 H 0.92523 0.06528 0.19604 0.0
H768 H 0.00336 0.0997 0.22159 0.0
H769 H 0.03762 0.124 0.20043 0.0
C770 C 0.97366 0.06014 0.36428 0.0
C771 C 0.95774 0.08208 0.39325 0.0
C772 C 0.00268 1.02703 0.42482 0.0
C773 C 0.01673 0.99512 0.39572 0.0
N774 N 0.01232 0.96066 0.33881 0.0
N775 N 0.95609 0.08631 0.45143 0.0
C776 C 0.00117 1.00522 0.36576 0.0
C777 C 0.97196 0.06533 0.42372 0.0
N778 N 0.96339 0.09598 0.33547 0.0
N779 N 0.01895 1.02228 0.45322 0.0
H780 H 0.93483 0.12222 0.45118 0.0
H781 H 0.9634 0.06583 0.47445 0.0
H782 H 0.04081 0.99042 0.45491 0.0
H783 H 0.01151 0.05326 0.47472 0.0
H784 H 0.97573 0.08912 0.31389 0.0
H785 H 0.94425 0.14137 0.33391 0.0
H786 H 0.00021 0.95892 0.31694 0.0
H787 H 0.03207 0.9174 0.33928 0.0
C788 C 0.01088 0.98845 0.90901 0.0
C789 C 0.02083 0.05729 0.88578 0.0
C790 C 0.96935 0.04982 0.85992 0.0
C791 C 0.95857 0.99013 0.88537 0.0
N792 N 0.96738 0.91826 0.93772 0.0
N793 N 0.00832 0.16145 0.84087 0.0
C794 C 0.97887 0.96337 0.91085 0.0
C795 C -0.00038 0.09093 0.86191 0.0
N796 N 0.03188 0.94585 0.92924 0.0
N797 N 0.9513 0.06319 0.83297 0.0
H798 H 0.03075 0.18946 0.83991 0.0
H799 H -0.00731 0.19682 0.82575 0.0
H800 H 0.92945 0.03172 0.83005 0.0
H801 H 0.95916 0.09741 0.81211 0.0
H802 H 0.02638 0.88744 0.94381 0.0
H803 H 0.05541 0.9633 0.92979 0.0
H804 H 0.98039 0.90769 0.95872 0.0
H805 H 0.94402 0.89955 0.94043 0.0
C806 C 0.97219 0.04984 0.66616 0.0
C807 C 0.95648 0.06613 0.63656 0.0
C808 C 0.00137 1.00275 0.60684 0.0
C809 C 0.01561 0.97871 0.63679 0.0
N810 N 0.01053 0.9551 0.69426 0.0
N811 N 0.95452 0.05338 0.57851 0.0
C812 C -0.00021 0.99504 0.66625 0.0
C813 C 0.97058 0.04085 0.60675 0.0
N814 N 0.96135 0.08928 0.69412 0.0
N815 N 0.01754 0.99118 0.57868 0.0
H816 H 0.93306 0.08812 0.57758 0.0
H817 H 0.96178 1.02649 0.55631 0.0
H818 H 0.03937 0.95896 0.57794 0.0
H819 H 0.01003 1.01692 0.55635 0.0
H820 H 0.97358 0.08691 0.7159 0.0
H821 H 0.94178 0.13297 0.69472 0.0
H822 H -0.00167 0.95746 0.71604 0.0
H823 H 0.02991 0.91062 0.69475 0.0
C824 C 0.47604 0.46286 0.11344 0.0
C825 C 0.45512 0.49808 0.13706 0.0
C826 C 0.49573 0.60649 0.15718 0.0
C827 C 0.51761 0.5626 0.13626 0.0
N828 N 0.52947 0.43841 0.09766 0.0
N829 N 0.44654 0.59242 0.18521 0.0
C830 C 0.50805 0.48738 0.11546 0.0
C831 C 0.46528 0.5674 0.15986 0.0
N832 N 0.46521 0.41026 0.08796 0.0
N833 N 0.50393 0.68516 0.17472 0.0
H834 H 0.42422 0.56512 0.1887 0.0
H835 H 0.45416 0.63333 0.20468 0.0
H836 H 0.52632 0.71366 0.17495 0.0
H837 H 0.48787 0.7269 0.18714 0.0
H838 H 0.47889 0.39246 0.06807 0.0
H839 H 0.44183 0.39264 0.08481 0.0
H840 H 0.52432 0.3754 0.08545 0.0
H841 H 0.55292 0.45642 0.09696 0.0
C842 C 0.47111 0.53692 0.36033 0.0
C843 C 0.45789 0.57847 0.38814 0.0
C844 C 0.50363 0.52953 0.4197 0.0
C845 C 0.5147 0.47871 0.39233 0.0
N846 N 0.50408 0.4122 0.3398 0.0
N847 N 0.46132 0.61873 0.44452 0.0
C848 C 0.49682 0.4753 0.36369 0.0
C849 C 0.47411 0.57615 0.41802 0.0
N850 N 0.4605 0.56193 0.3304 0.0
N851 N 0.52146 0.5332 0.44705 0.0
H852 H 0.4413 0.6606 0.44298 0.0
H853 H 0.46998 0.61148 0.46792 0.0
H854 H 0.54155 0.49232 0.44977 0.0
H855 H 0.51674 0.57704 0.4667 0.0
H856 H 0.47127 0.54004 0.30906 0.0
H857 H 0.44317 0.61319 0.32724 0.0
H858 H 0.49013 0.40238 0.3194 0.0
H859 H 0.52212 0.36308 0.34224 0.0
C860 C 0.4759 0.47945 0.85585 0.0
C861 C 0.45608 0.51059 0.8812 0.0
C862 C 0.49984 0.59464 0.9066 0.0
C863 C 0.51912 0.56884 0.88024 0.0
N864 N 0.52415 0.50451 0.82645 0.0
N865 N 0.44751 0.61722 0.92639 0.0
C866 C 0.5068 0.51593 0.85393 0.0
C867 C 0.46747 0.57456 0.90514 0.0
N868 N 0.46516 0.41611 0.83335 0.0
N869 N 0.51263 0.63325 0.93391 0.0
H870 H 0.42369 0.60337 0.92713 0.0
H871 H 0.45421 0.67265 0.94164 0.0
H872 H 0.53638 0.64683 0.93642 0.0
H873 H 0.50019 0.64308 0.95528 0.0
H874 H 0.47953 0.3819 0.81676 0.0
H875 H 0.44208 0.39326 0.83232 0.0
H876 H 0.51546 0.47515 0.80516 0.0
H877 H 0.54647 0.53298 0.82377 0.0
C878 C 0.47489 0.57011 0.6603 0.0
C879 C 0.45629 0.55683 0.63228 0.0
C880 C 0.4995 0.47385 0.60577 0.0
C881 C 0.51722 0.48232 0.63453 0.0
N882 N 0.51779 0.50838 0.692 0.0
N883 N 0.44799 0.47216 0.58204 0.0
C884 C 0.50379 0.52197 0.66266 0.0
C885 C 0.46765 0.5012 0.6061 0.0
N886 N 0.46496 0.62762 0.6848 0.0
N887 N 0.51322 0.44251 0.57796 0.0
H888 H 0.42439 0.48914 0.58157 0.0
H889 H 0.45449 0.42384 0.56418 0.0
H890 H 0.53642 0.42094 0.57698 0.0
H891 H 0.50226 0.44492 0.55546 0.0
H892 H 0.4791 0.6469 0.70423 0.0
H893 H 0.44358 0.66249 0.6844 0.0
H894 H 0.50781 0.52894 0.71386 0.0
H895 H 0.53755 0.4658 0.69466 0.0
C896 C 0.14241 0.65961 0.14869 0.0
C897 C 0.11662 0.72151 0.1447 0.0
C898 C 0.081 0.58427 0.14313 0.0
C899 C 0.10666 0.52295 0.14836 0.0
N900 N 0.16047 0.50202 0.16383 0.0
N901 N 0.06087 0.7453 0.14599 0.0
C902 C 0.137 0.56061 0.15348 0.0
C903 C 0.08572 0.68463 0.14413 0.0
N904 N 0.17209 0.69458 0.14644 0.0
N905 N 0.05237 0.54669 0.13616 0.0
H906 H 0.06328 0.81906 0.14793 0.0
H907 H 0.03796 0.72227 0.14888 0.0
H908 H 0.04797 0.47347 0.13605 0.0
H909 H 0.03358 0.58755 0.12828 0.0
H910 H 0.19176 0.65132 0.14544 0.0
H911 H 0.17707 0.76663 0.14279 0.0
H912 H 0.18224 0.52682 0.17113 0.0
H913 H 0.15729 0.42933 0.16822 0.0
C914 C 0.8758 0.35799 0.12369 0.0
C915 C 0.85287 0.321 0.14525 0.0
C916 C 0.84307 0.48169 0.16625 0.0
C917 C 0.86611 0.5187 0.14482 0.0
N918 N 0.90138 0.49668 0.10021 0.0
N919 N 0.81819 0.3429 0.19038 0.0
C920 C 0.88155 0.4581 0.12264 0.0
C921 C 0.83758 0.38153 0.16755 0.0
N922 N 0.89368 0.29656 0.10594 0.0
N923 N 0.82479 0.543 0.18359 0.0
H924 H 0.8123 0.2707 0.19101 0.0
H925 H 0.80946 0.38071 0.21001 0.0
H926 H 0.82718 0.61694 0.18262 0.0
H927 H 0.80531 0.5219 0.19677 0.0
H928 H 0.913 0.31723 0.09245 0.0
H929 H 0.89103 0.22268 0.10666 0.0
H930 H 0.91034 0.45923 0.08064 0.0
H931 H 0.90761 0.56861 0.09997 0.0
C932 C 0.13472 0.3866 0.36377 0.0
C933 C 0.12493 0.32804 0.38989 0.0
C934 C 0.09945 0.46466 0.4158 0.0
C935 C 0.10862 0.52268 0.38938 0.0
N936 N 0.1399 0.54603 0.34142 0.0
N937 N 0.0924 0.30532 0.43714 0.0
C938 C 0.12736 0.48549 0.36401 0.0
C939 C 0.10611 0.36552 0.41519 0.0
N940 N 0.15043 0.34684 0.33837 0.0
N941 N 0.08478 0.50482 0.4418 0.0
H942 H 0.09557 0.23171 0.43727 0.0
H943 H 0.07548 0.32665 0.4536 0.0
H944 H 0.07776 0.576 0.44233 0.0
H945 H 0.08135 0.46961 0.46373 0.0
H946 H 0.15464 0.38171 0.31654 0.0
H947 H 0.15805 0.27623 0.33837 0.0
H948 H 0.15653 0.52597 0.32448 0.0
H949 H 0.13559 0.61916 0.34091 0.0
C950 C 0.8378 0.58201 0.39501 0.0
C951 C 0.86518 0.54542 0.38034 0.0
C952 C 0.88355 0.70796 0.36967 0.0
C953 C 0.85487 0.74459 0.38159 0.0
N954 N 0.80251 0.71595 0.40042 0.0
N955 N 0.9117 0.57145 0.34891 0.0
C956 C 0.83142 0.68147 0.39301 0.0
C957 C 0.88721 0.60779 0.36601 0.0
N958 N 0.81781 0.52178 0.41082 0.0
N959 N 0.9081 0.76801 0.36391 0.0
H960 H 0.91591 0.49844 0.34688 0.0
H961 H 0.92643 0.61338 0.33474 0.0
H962 H 0.90727 0.84117 0.36811 0.0
H963 H 0.93042 0.74426 0.35833 0.0
H964 H 0.79952 0.54535 0.42526 0.0
H965 H 0.82067 0.44798 0.41139 0.0
H966 H 0.78344 0.67254 0.40558 0.0
H967 H 0.79668 0.7879 0.39845 0.0
C968 C 0.8691 0.36137 0.85393 0.0
C969 C 0.85706 0.31557 0.88214 0.0
C970 C 0.85298 0.47171 0.90856 0.0
C971 C 0.86822 0.51543 0.88188 0.0
N972 N 0.89632 0.49832 0.83178 0.0
N973 N 0.84626 0.32709 0.93956 0.0
C974 C 0.87784 0.45923 0.85528 0.0
C975 C 0.85135 0.37059 0.91039 0.0
N976 N 0.87124 0.31292 0.82538 0.0
N977 N 0.83878 0.52622 0.93158 0.0
H978 H 0.8471 0.25353 0.94293 0.0
H979 H 0.84502 0.36467 0.96125 0.0
H980 H 0.83823 0.60042 0.93065 0.0
H981 H 0.82464 0.49738 0.94964 0.0
H982 H 0.87634 0.34589 0.80338 0.0
H983 H 0.86506 0.2417 0.82286 0.0
H984 H 0.90687 0.45821 0.81367 0.0
H985 H 0.90376 0.56918 0.83224 0.0
C986 C 0.14301 0.57555 0.8765 0.0
C987 C 0.11341 0.53781 0.88556 0.0
C988 C 0.09753 0.6967 0.90358 0.0
C989 C 0.12491 0.7366 0.88976 0.0
N990 N 0.17269 0.71491 0.86008 0.0
N991 N 0.06086 0.56532 0.90393 0.0
C992 C 0.14749 0.67628 0.87552 0.0
C993 C 0.09024 0.59912 0.89819 0.0
N994 N 0.16736 0.51545 0.87042 0.0
N995 N 0.07918 0.75115 0.92317 0.0
H996 H 0.0544 0.49463 0.89985 0.0
H997 H 0.04219 0.60934 0.90983 0.0
H998 H 0.08504 0.82094 0.92936 0.0
H999 H 0.06045 0.72386 0.93629 0.0
H1000 H 0.19015 0.53909 0.86696 0.0
H1001 H 0.16565 0.44149 0.87225 0.0
H1002 H 0.18791 0.67498 0.84594 0.0
H1003 H 0.17711 0.78802 0.85939 0.0
C1004 C 0.88319 0.7003 0.65236 0.0
C1005 C 0.85277 0.73618 0.64601 0.0
C1006 C 0.83365 0.57277 0.63843 0.0
C1007 C 0.86318 0.53693 0.6482 0.0
N1008 N 0.91482 0.56541 0.66889 0.0
N1009 N 0.79803 0.70687 0.63753 0.0
C1010 C 0.88764 0.60038 0.65636 0.0
C1011 C 0.82771 0.67248 0.64019 0.0
N1012 N 0.90817 0.76102 0.65291 0.0
N1013 N 0.81167 0.51193 0.62625 0.0
H1014 H 0.79275 0.77934 0.63881 0.0
H1015 H 0.77836 0.66331 0.63688 0.0
H1016 H 0.81531 0.4388 0.62391 0.0
H1017 H 0.79098 0.53477 0.61559 0.0
H1018 H 0.93119 0.73792 0.65405 0.0
H1019 H 0.9063 0.83421 0.64897 0.0
H1020 H 0.93209 0.60849 0.67891 0.0
H1021 H 0.91908 0.49262 0.67172 0.0
C1022 C 0.09158 0.35352 0.64603 0.0
C1023 C 0.12264 0.31824 0.64617 0.0
C1024 C 0.14255 0.48203 0.64585 0.0
C1025 C 0.11163 0.51655 0.64988 0.0
N1026 N 0.05702 0.48498 0.65828 0.0
N1027 N 0.17784 0.34735 0.64969 0.0
C1028 C 0.0862 0.45226 0.65113 0.0
C1029 C 0.14821 0.38207 0.64694 0.0
N1030 N 0.06724 0.29347 0.63946 0.0
N1031 N 0.16632 0.54441 0.63949 0.0
H1032 H 0.18282 0.27455 0.65009 0.0
H1033 H 0.19719 0.39033 0.65407 0.0
H1034 H 0.16306 0.61781 0.63752 0.0
H1035 H 0.18868 0.52298 0.63303 0.0
H1036 H 0.04449 0.31692 0.63584 0.0
H1037 H 0.07014 0.2214 0.63414 0.0
H1038 H 0.03825 0.4401 0.66324 0.0
H1039 H 0.05212 0.55693 0.66208 0.0
C1040 C 0.60553 0.08751 0.17495 0.0
C1041 C 0.60993 0.03416 0.14627 0.0
C1042 C 0.62433 0.18068 0.11742 0.0
C1043 C 0.62402 0.23194 0.14713 0.0
N1044 N 0.61996 0.22729 0.20547 0.0
N1045 N 0.63135 1.02707 0.09218 0.0
C1046 C 0.61625 0.18329 0.17629 0.0
C1047 C 0.62159 0.0797 0.11803 0.0
N1048 N 0.59006 0.048 0.20063 0.0
N1049 N 0.62516 0.2276 0.08839 0.0
H1050 H 0.63096 0.95278 0.0918 0.0
H1051 H 0.64299 0.05712 0.07249 0.0
H1052 H 0.62484 0.3015 0.08613 0.0
H1053 H 0.62232 0.19282 0.06632 0.0
H1054 H 0.58343 0.08694 0.22092 0.0
H1055 H 0.58087 0.97909 0.20022 0.0
H1056 H 0.61769 0.19194 0.22757 0.0
H1057 H 0.62854 0.2963 0.20766 0.0
C1058 C 0.33452 0.87756 0.16024 0.0
C1059 C 0.35185 0.81705 0.13961 0.0
C1060 C 0.38254 0.95423 0.12008 0.0
C1061 C 0.36486 1.01495 0.14038 0.0
N1062 N 0.31977 0.03894 0.17437 0.0
N1063 N 0.3959 0.79259 0.10433 0.0
C1064 C 0.33988 0.9778 0.15928 0.0
C1065 C 0.37664 0.85409 0.12042 0.0
N1066 N 0.31329 0.83888 0.18121 0.0
N1067 N 0.40472 0.99276 0.10016 0.0
H1068 H 0.39294 0.71878 0.10452 0.0
H1069 H 0.41634 0.81295 0.09271 0.0
H1070 H 0.41108 0.06455 0.10077 0.0
H1071 H 0.41581 0.95543 0.08178 0.0
H1072 H 0.30281 0.87691 0.19984 0.0
H1073 H 0.30761 0.76651 0.1815 0.0
H1074 H 0.29912 1.01744 0.18539 0.0
H1075 H 0.32198 0.11293 0.17342 0.0
C1076 C 0.5843 0.94785 0.37779 0.0
C1077 C 0.60974 1.01219 0.37714 0.0
C1078 C 0.64641 0.87774 0.37563 0.0
C1079 C 0.62102 0.81373 0.3784 0.0
N1080 N 0.56645 0.78818 0.39023 0.0
N1081 N 0.66513 0.03942 0.38264 0.0
C1082 C 0.59011 0.84879 0.38173 0.0
C1083 C 0.64089 0.97752 0.37801 0.0
N1084 N 0.55462 0.98084 0.3735 0.0
N1085 N 0.67566 0.84343 0.36982 0.0
H1086 H 0.66208 0.11256 0.38562 0.0
H1087 H 0.68797 1.01751 0.38677 0.0
H1088 H 0.68057 0.77071 0.36838 0.0
H1089 H 0.69454 0.88687 0.36391 0.0
H1090 H 0.53551 0.93613 0.37 0.0
H1091 H 0.5494 0.05298 0.37057 0.0
H1092 H 0.54414 0.81134 0.39617 0.0
H1093 H 0.56979 0.71574 0.39477 0.0
C1094 C 0.38773 0.11019 0.36289 0.0
C1095 C 0.36571 0.04629 0.37646 0.0
C1096 C 0.33142 0.18084 0.38983 0.0
C1097 C 0.35468 0.24508 0.37879 0.0
N1098 N 0.4079 0.27143 0.36185 0.0
N1099 N 0.31787 1.0195 0.40593 0.0
C1100 C 0.3836 0.21002 0.36702 0.0
C1101 C 0.33799 0.08131 0.39103 0.0
N1102 N 0.41269 0.0756 0.3461 0.0
N1103 N 0.30253 0.21454 0.39774 0.0
H1104 H 0.32068 0.94571 0.40565 0.0
H1105 H 0.29935 0.04144 0.42034 0.0
H1106 H 0.29677 0.28674 0.39683 0.0
H1107 H 0.28346 0.17077 0.40254 0.0
H1108 H 0.42749 0.11871 0.33243 0.0
H1109 H 0.41731 1.0029 0.34384 0.0
H1110 H 0.4304 0.24912 0.35636 0.0
H1111 H 0.40658 0.3443 0.36648 0.0
C1112 C 0.38598 0.87383 0.86974 0.0
C1113 C 0.35536 0.84168 0.87713 0.0
C1114 C 0.33692 1.00602 0.87686 0.0
C1115 C 0.36834 0.03816 0.87546 0.0
N1116 N 0.42322 1.00379 0.87219 0.0
N1117 N 0.30186 0.87649 0.89034 0.0
C1118 C 0.39304 0.97247 0.87204 0.0
C1119 C 0.33075 0.90744 0.88112 0.0
N1120 N 0.40797 0.81035 0.85945 0.0
N1121 N 0.31298 0.06919 0.87281 0.0
H1122 H 0.29633 0.80459 0.89342 0.0
H1123 H 0.28408 0.92248 0.89734 0.0
H1124 H 0.31654 0.14131 0.86783 0.0
H1125 H 0.28974 0.04846 0.87071 0.0
H1126 H 0.42985 0.83067 0.85097 0.0
H1127 H 0.4032 0.7381 0.85605 0.0
H1128 H 0.4423 0.95817 0.87351 0.0
H1129 H 0.42919 0.07586 0.8734 0.0
C1130 C 0.64199 0.15697 0.90222 0.0
C1131 C 0.62384 0.22171 0.88376 0.0
C1132 C 0.59388 0.08826 0.86107 0.0
C1133 C 0.61031 1.02445 0.88142 0.0
N1134 N 0.64765 0.99738 0.92425 0.0
N1135 N 0.57735 0.25078 0.85195 0.0
C1136 C 0.63352 0.05873 0.90305 0.0
C1137 C 0.59843 0.18801 0.86475 0.0
N1138 N 0.66819 0.18867 0.91773 0.0
N1139 N 0.57396 0.05364 0.83807 0.0
H1140 H 0.57847 0.32422 0.85546 0.0
H1141 H 0.55674 0.22948 0.84077 0.0
H1142 H 0.56879 0.98124 0.8357 0.0
H1143 H 0.56431 0.09601 0.8199 0.0
H1144 H 0.68434 0.1437 0.9287 0.0
H1145 H 0.67534 0.2598 0.91726 0.0
H1146 H 0.66198 1.0197 0.94311 0.0
H1147 H 0.64346 0.92414 0.92454 0.0
C1148 C 0.39014 0.10021 0.63403 0.0
C1149 C 0.36485 0.03645 0.63848 0.0
C1150 C 0.32809 0.17101 0.63709 0.0
C1151 C 0.3535 0.23511 0.63411 0.0
N1152 N 0.40898 0.26309 0.6367 0.0
N1153 N 0.31054 1.01167 0.65122 0.0
C1154 C 0.38463 0.20038 0.63453 0.0
C1155 C 0.334 0.07201 0.64196 0.0
N1156 N 0.41927 0.06508 0.62811 0.0
N1157 N 0.29829 0.20429 0.63419 0.0
H1158 H 0.31408 0.9394 0.65592 0.0
H1159 H 0.28824 0.03452 0.6573 0.0
H1160 H 0.29311 0.27641 0.63109 0.0
H1161 H 0.27887 0.16004 0.63236 0.0
H1162 H 0.43797 0.10742 0.62085 0.0
H1163 H 0.42427 0.9923 0.62804 0.0
H1164 H 0.43194 0.24222 0.64064 0.0
H1165 H 0.40599 0.33675 0.63759 0.0
C1166 C 0.64935 0.8915 0.63091 0.0
C1167 C 0.62458 0.82608 0.63513 0.0
C1168 C 0.58758 0.95696 0.64247 0.0
C1169 C 0.61215 1.02249 0.63727 0.0
N1170 N 0.66437 0.05382 0.61814 0.0
N1171 N 0.56909 0.79546 0.63544 0.0
C1172 C 0.64249 0.99029 0.62898 0.0
C1173 C 0.59334 0.8584 0.63811 0.0
N1174 N 0.67941 0.85961 0.62984 0.0
N1175 N 0.55916 0.98824 0.65288 0.0
H1176 H 0.5722 0.7231 0.63076 0.0
H1177 H 0.54585 0.81646 0.63433 0.0
H1178 H 0.55393 0.06019 0.6561 0.0
H1179 H 0.54157 0.94249 0.66077 0.0
H1180 H 0.69869 0.90477 0.63051 0.0
H1181 H 0.68517 0.78739 0.63071 0.0
H1182 H 0.68595 0.03355 0.60899 0.0
H1183 H 0.65977 0.1263 0.61508 0.0
loop_
_geom_bond_atom_site_label_1
_geom_bond_atom_site_label_2
_geom_bond_distance
_geom_bond_site_symmetry_2
_ccdc_geom_bond_type
Dy0 O4 2.398 . S
Dy0 O5 2.491 . S
Dy0 O6 2.403 1_565 S
Dy0 O7 2.664 1_565 S
Dy0 O11 2.326 . S
Dy0 O15 2.310 1_565 S
Dy0 O16 2.351 1_565 S
C1 O12 1.185 . S
C1 O13 1.355 . S
C2 O4 1.185 . S
C2 O5 1.355 . S
Dy3 O7 2.310 . S
Dy3 O10 2.351 . S
Dy3 O12 2.398 . S
Dy3 O13 2.491 . S
Dy3 O14 2.403 . S
Dy3 O15 2.664 . S
Dy3 O17 2.326 . S
O4 Dy0 2.398 . S
O4 C2 1.185 . S
O5 Dy0 2.491 . S
O5 C2 1.355 . S
O6 Dy0 2.403 1_545 S
O6 C8 1.254 . S
O7 Dy0 2.664 1_545 S
O7 Dy3 2.310 . S
O7 C8 1.268 . S
C8 O6 1.254 . S
C8 O7 1.268 . S
C9 O14 1.254 . S
C9 O15 1.268 . S
O10 Dy3 2.351 . S
O10 C18 1.249 . S
O11 Dy0 2.326 . S
O11 C18 1.267 1_565 S
O12 C1 1.185 . S
O12 Dy3 2.398 . S
O13 C1 1.355 . S
O13 Dy3 2.491 . S
O14 Dy3 2.403 . S
O14 C9 1.254 . S
O15 Dy0 2.310 1_545 S
O15 Dy3 2.664 . S
O15 C9 1.268 . S
O16 Dy0 2.351 1_545 S
O16 C19 1.249 . S
O17 Dy3 2.326 . S
O17 C19 1.267 . S
C18 O10 1.249 . S
C18 O11 1.267 1_545 S
C19 O16 1.249 . S
C19 O17 1.267 . S
Dy20 O24 2.398 . S
Dy20 O25 2.491 . S
Dy20 O26 2.403 1_545 S
Dy20 O27 2.664 1_545 S
Dy20 O31 2.326 . S
Dy20 O35 2.310 1_545 S
Dy20 O36 2.351 1_545 S
C21 O32 1.185 . S
C21 O33 1.355 . S
C22 O24 1.185 . S
C22 O25 1.355 . S
Dy23 O27 2.310 . S
Dy23 O30 2.351 . S
Dy23 O32 2.398 . S
Dy23 O33 2.491 . S
Dy23 O34 2.403 . S
Dy23 O35 2.664 . S
Dy23 O37 2.326 . S
O24 Dy20 2.398 . S
O24 C22 1.185 . S
O25 Dy20 2.491 . S
O25 C22 1.355 . S
O26 Dy20 2.403 1_565 S
O26 C28 1.254 . S
O27 Dy20 2.664 1_565 S
O27 Dy23 2.310 . S
O27 C28 1.268 . S
C28 O26 1.254 . S
C28 O27 1.268 . S
C29 O34 1.254 . S
C29 O35 1.268 . S
O30 Dy23 2.351 . S
O30 C38 1.249 . S
O31 Dy20 2.326 . S
O31 C38 1.267 1_545 S
O32 C21 1.185 . S
O32 Dy23 2.398 . S
O33 C21 1.355 . S
O33 Dy23 2.491 . S
O34 Dy23 2.403 . S
O34 C29 1.254 . S
O35 Dy20 2.310 1_565 S
O35 Dy23 2.664 . S
O35 C29 1.268 . S
O36 Dy20 2.351 1_565 S
O36 C39 1.249 . S
O37 Dy23 2.326 . S
O37 C39 1.267 . S
C38 O30 1.249 . S
C38 O31 1.267 1_565 S
C39 O36 1.249 . S
C39 O37 1.267 . S
Dy40 O44 2.398 . S
Dy40 O45 2.491 . S
Dy40 O46 2.403 1_545 S
Dy40 O47 2.664 1_545 S
Dy40 O51 2.326 . S
Dy40 O55 2.310 1_545 S
Dy40 O56 2.351 1_545 S
C41 O52 1.185 . S
C41 O53 1.355 . S
C42 O44 1.185 . S
C42 O45 1.355 . S
Dy43 O47 2.310 . S
Dy43 O50 2.351 . S
Dy43 O52 2.398 . S
Dy43 O53 2.491 . S
Dy43 O54 2.403 . S
Dy43 O55 2.664 . S
Dy43 O57 2.326 . S
O44 Dy40 2.398 . S
O44 C42 1.185 . S
O45 Dy40 2.491 . S
O45 C42 1.355 . S
O46 Dy40 2.403 1_565 S
O46 C48 1.254 . S
O47 Dy40 2.664 1_565 S
O47 Dy43 2.310 . S
O47 C48 1.268 . S
C48 O46 1.254 . S
C48 O47 1.268 . S
C49 O54 1.254 . S
C49 O55 1.268 . S
O50 Dy43 2.351 . S
O50 C58 1.249 . S
O51 Dy40 2.326 . S
O51 C58 1.267 1_545 S
O52 C41 1.185 . S
O52 Dy43 2.398 . S
O53 C41 1.355 . S
O53 Dy43 2.491 . S
O54 Dy43 2.403 . S
O54 C49 1.254 . S
O55 Dy40 2.310 1_565 S
O55 Dy43 2.664 . S
O55 C49 1.268 . S
O56 Dy40 2.351 1_565 S
O56 C59 1.249 . S
O57 Dy43 2.326 . S
O57 C59 1.267 . S
C58 O50 1.249 . S
C58 O51 1.267 1_565 S
C59 O56 1.249 . S
C59 O57 1.267 . S
Dy60 O64 2.398 . S
Dy60 O65 2.491 . S
Dy60 O66 2.403 1_565 S
Dy60 O67 2.664 1_565 S
Dy60 O71 2.326 . S
Dy60 O75 2.310 1_565 S
Dy60 O76 2.351 1_565 S
C61 O72 1.185 . S
C61 O73 1.355 . S
C62 O64 1.185 . S
C62 O65 1.355 . S
Dy63 O67 2.310 . S
Dy63 O70 2.351 . S
Dy63 O72 2.398 . S
Dy63 O73 2.491 . S
Dy63 O74 2.403 . S
Dy63 O75 2.664 . S
Dy63 O77 2.326 . S
O64 Dy60 2.398 . S
O64 C62 1.185 . S
O65 Dy60 2.491 . S
O65 C62 1.355 . S
O66 Dy60 2.403 1_545 S
O66 C68 1.254 . S
O67 Dy60 2.664 1_545 S
O67 Dy63 2.310 . S
O67 C68 1.268 . S
C68 O66 1.254 . S
C68 O67 1.268 . S
C69 O74 1.254 . S
C69 O75 1.268 . S
O70 Dy63 2.351 . S
O70 C78 1.249 . S
O71 Dy60 2.326 . S
O71 C78 1.267 1_565 S
O72 C61 1.185 . S
O72 Dy63 2.398 . S
O73 C61 1.355 . S
O73 Dy63 2.491 . S
O74 Dy63 2.403 . S
O74 C69 1.254 . S
O75 Dy60 2.310 1_545 S
O75 Dy63 2.664 . S
O75 C69 1.268 . S
O76 Dy60 2.351 1_545 S
O76 C79 1.249 . S
O77 Dy63 2.326 . S
O77 C79 1.267 . S
C78 O70 1.249 . S
C78 O71 1.267 1_545 S
C79 O76 1.249 . S
C79 O77 1.267 . S
Dy80 O84 2.398 . S
Dy80 O85 2.491 . S
Dy80 O86 2.403 . S
Dy80 O87 2.664 . S
Dy80 O91 2.326 . S
Dy80 O95 2.310 . S
Dy80 O96 2.351 . S
C81 O92 1.185 . S
C81 O93 1.355 . S
C82 O84 1.185 . S
C82 O85 1.355 . S
Dy83 O87 2.310 1_545 S
Dy83 O90 2.351 1_545 S
Dy83 O92 2.398 . S
Dy83 O93 2.491 . S
Dy83 O94 2.403 1_545 S
Dy83 O95 2.664 1_545 S
Dy83 O97 2.326 . S
O84 Dy80 2.398 . S
O84 C82 1.185 . S
O85 Dy80 2.491 . S
O85 C82 1.355 . S
O86 Dy80 2.403 . S
O86 C88 1.254 . S
O87 Dy80 2.664 . S
O87 Dy83 2.310 1_565 S
O87 C88 1.268 . S
C88 O86 1.254 . S
C88 O87 1.268 . S
C89 O94 1.254 . S
C89 O95 1.268 . S
O90 Dy83 2.351 1_565 S
O90 C98 1.249 . S
O91 Dy80 2.326 . S
O91 C98 1.267 . S
O92 C81 1.185 . S
O92 Dy83 2.398 . S
O93 C81 1.355 . S
O93 Dy83 2.491 . S
O94 Dy83 2.403 1_565 S
O94 C89 1.254 . S
O95 Dy80 2.310 . S
O95 Dy83 2.664 1_565 S
O95 C89 1.268 . S
O96 Dy80 2.351 . S
O96 C99 1.249 . S
O97 Dy83 2.326 . S
O97 C99 1.267 1_545 S
C98 O90 1.249 . S
C98 O91 1.267 . S
C99 O96 1.249 . S
C99 O97 1.267 1_565 S
Dy100 O104 2.398 . S
Dy100 O105 2.491 . S
Dy100 O106 2.403 . S
Dy100 O107 2.664 . S
Dy100 O111 2.326 . S
Dy100 O115 2.310 . S
Dy100 O116 2.351 . S
C101 O112 1.185 . S
C101 O113 1.355 . S
C102 O104 1.185 . S
C102 O105 1.355 . S
Dy103 O107 2.310 1_565 S
Dy103 O110 2.351 1_565 S
Dy103 O112 2.398 . S
Dy103 O113 2.491 . S
Dy103 O114 2.403 1_565 S
Dy103 O115 2.664 1_565 S
Dy103 O117 2.326 . S
O104 Dy100 2.398 . S
O104 C102 1.185 . S
O105 Dy100 2.491 . S
O105 C102 1.355 . S
O106 Dy100 2.403 . S
O106 C108 1.254 . S
O107 Dy100 2.664 . S
O107 Dy103 2.310 1_545 S
O107 C108 1.268 . S
C108 O106 1.254 . S
C108 O107 1.268 . S
C109 O114 1.254 . S
C109 O115 1.268 . S
O110 Dy103 2.351 1_545 S
O110 C118 1.249 . S
O111 Dy100 2.326 . S
O111 C118 1.267 . S
O112 C101 1.185 . S
O112 Dy103 2.398 . S
O113 C101 1.355 . S
O113 Dy103 2.491 . S
O114 Dy103 2.403 1_545 S
O114 C109 1.254 . S
O115 Dy100 2.310 . S
O115 Dy103 2.664 1_545 S
O115 C109 1.268 . S
O116 Dy100 2.351 . S
O116 C119 1.249 . S
O117 Dy103 2.326 . S
O117 C119 1.267 1_565 S
C118 O110 1.249 . S
C118 O111 1.267 . S
C119 O116 1.249 . S
C119 O117 1.267 1_545 S
Dy120 O124 2.398 . S
Dy120 O125 2.491 . S
Dy120 O126 2.403 . S
Dy120 O127 2.664 . S
Dy120 O131 2.326 . S
Dy120 O135 2.310 . S
Dy120 O136 2.351 . S
C121 O132 1.185 . S
C121 O133 1.355 . S
C122 O124 1.185 . S
C122 O125 1.355 . S
Dy123 O127 2.310 1_565 S
Dy123 O130 2.351 1_565 S
Dy123 O132 2.398 . S
Dy123 O133 2.491 . S
Dy123 O134 2.403 1_565 S
Dy123 O135 2.664 1_565 S
Dy123 O137 2.326 . S
O124 Dy120 2.398 . S
O124 C122 1.185 . S
O125 Dy120 2.491 . S
O125 C122 1.355 . S
O126 Dy120 2.403 . S
O126 C128 1.254 . S
O127 Dy120 2.664 . S
O127 Dy123 2.310 1_545 S
O127 C128 1.268 . S
C128 O126 1.254 . S
C128 O127 1.268 . S
C129 O134 1.254 . S
C129 O135 1.268 . S
O130 Dy123 2.351 1_545 S
O130 C138 1.249 . S
O131 Dy120 2.326 . S
O131 C138 1.267 . S
O132 C121 1.185 . S
O132 Dy123 2.398 . S
O133 C121 1.355 . S
O133 Dy123 2.491 . S
O134 Dy123 2.403 1_545 S
O134 C129 1.254 . S
O135 Dy120 2.310 . S
O135 Dy123 2.664 1_545 S
O135 C129 1.268 . S
O136 Dy120 2.351 . S
O136 C139 1.249 . S
O137 Dy123 2.326 . S
O137 C139 1.267 1_565 S
C138 O130 1.249 . S
C138 O131 1.267 . S
C139 O136 1.249 . S
C139 O137 1.267 1_545 S
Dy140 O144 2.398 . S
Dy140 O145 2.491 . S
Dy140 O146 2.403 . S
Dy140 O147 2.664 . S
Dy140 O151 2.326 . S
Dy140 O155 2.310 . S
Dy140 O156 2.351 . S
C141 O152 1.185 . S
C141 O153 1.355 . S
C142 O144 1.185 . S
C142 O145 1.355 . S
Dy143 O147 2.310 1_545 S
Dy143 O150 2.351 1_545 S
Dy143 O152 2.398 . S
Dy143 O153 2.491 . S
Dy143 O154 2.403 1_545 S
Dy143 O155 2.664 1_545 S
Dy143 O157 2.326 . S
O144 Dy140 2.398 . S
O144 C142 1.185 . S
O145 Dy140 2.491 . S
O145 C142 1.355 . S
O146 Dy140 2.403 . S
O146 C148 1.254 . S
O147 Dy140 2.664 . S
O147 Dy143 2.310 1_565 S
O147 C148 1.268 . S
C148 O146 1.254 . S
C148 O147 1.268 . S
C149 O154 1.254 . S
C149 O155 1.268 . S
O150 Dy143 2.351 1_565 S
O150 C158 1.249 . S
O151 Dy140 2.326 . S
O151 C158 1.267 . S
O152 C141 1.185 . S
O152 Dy143 2.398 . S
O153 C141 1.355 . S
O153 Dy143 2.491 . S
O154 Dy143 2.403 1_565 S
O154 C149 1.254 . S
O155 Dy140 2.310 . S
O155 Dy143 2.664 1_565 S
O155 C149 1.268 . S
O156 Dy140 2.351 . S
O156 C159 1.249 . S
O157 Dy143 2.326 . S
O157 C159 1.267 1_545 S
C158 O150 1.249 . S
C158 O151 1.267 . S
C159 O156 1.249 . S
C159 O157 1.267 1_565 S
Dy160 O164 2.398 . S
Dy160 O165 2.491 . S
Dy160 O166 2.403 . S
Dy160 O167 2.664 . S
Dy160 O171 2.326 . S
Dy160 O175 2.310 . S
Dy160 O176 2.351 . S
C161 O172 1.185 . S
C161 O173 1.355 . S
C162 O164 1.185 . S
C162 O165 1.355 . S
Dy163 O167 2.310 . S
Dy163 O170 2.351 . S
Dy163 O172 2.398 . S
Dy163 O173 2.491 . S
Dy163 O174 2.403 . S
Dy163 O175 2.664 . S
Dy163 O177 2.326 . S
O164 Dy160 2.398 . S
O164 C162 1.185 . S
O165 Dy160 2.491 . S
O165 C162 1.355 . S
O166 Dy160 2.403 . S
O166 C168 1.254 . S
O167 Dy160 2.664 . S
O167 Dy163 2.310 . S
O167 C168 1.268 . S
C168 O166 1.254 . S
C168 O167 1.268 . S
C169 O174 1.254 . S
C169 O175 1.268 . S
O170 Dy163 2.351 . S
O170 C178 1.249 . S
O171 Dy160 2.326 . S
O171 C178 1.267 . S
O172 C161 1.185 . S
O172 Dy163 2.398 . S
O173 C161 1.355 . S
O173 Dy163 2.491 . S
O174 Dy163 2.403 . S
O174 C169 1.254 . S
O175 Dy160 2.310 . S
O175 Dy163 2.664 . S
O175 C169 1.268 . S
O176 Dy160 2.351 . S
O176 C179 1.249 . S
O177 Dy163 2.326 . S
O177 C179 1.267 . S
C178 O170 1.249 . S
C178 O171 1.267 . S
C179 O176 1.249 . S
C179 O177 1.267 . S
Dy180 O184 2.398 . S
Dy180 O185 2.491 . S
Dy180 O186 2.403 . S
Dy180 O187 2.664 . S
Dy180 O191 2.326 . S
Dy180 O195 2.310 . S
Dy180 O196 2.351 . S
C181 O192 1.185 . S
C181 O193 1.355 . S
C182 O184 1.185 . S
C182 O185 1.355 . S
Dy183 O187 2.310 . S
Dy183 O190 2.351 . S
Dy183 O192 2.398 . S
Dy183 O193 2.491 . S
Dy183 O194 2.403 . S
Dy183 O195 2.664 . S
Dy183 O197 2.326 . S
O184 Dy180 2.398 . S
O184 C182 1.185 . S
O185 Dy180 2.491 . S
O185 C182 1.355 . S
O186 Dy180 2.403 . S
O186 C188 1.254 . S
O187 Dy180 2.664 . S
O187 Dy183 2.310 . S
O187 C188 1.268 . S
C188 O186 1.254 . S
C188 O187 1.268 . S
C189 O194 1.254 . S
C189 O195 1.268 . S
O190 Dy183 2.351 . S
O190 C198 1.249 . S
O191 Dy180 2.326 . S
O191 C198 1.267 . S
O192 C181 1.185 . S
O192 Dy183 2.398 . S
O193 C181 1.355 . S
O193 Dy183 2.491 . S
O194 Dy183 2.403 . S
O194 C189 1.254 . S
O195 Dy180 2.310 . S
O195 Dy183 2.664 . S
O195 C189 1.268 . S
O196 Dy180 2.351 . S
O196 C199 1.249 . S
O197 Dy183 2.326 . S
O197 C199 1.267 . S
C198 O190 1.249 . S
C198 O191 1.267 . S
C199 O196 1.249 . S
C199 O197 1.267 . S
Dy200 O204 2.398 . S
Dy200 O205 2.491 . S
Dy200 O206 2.403 . S
Dy200 O207 2.664 . S
Dy200 O211 2.326 . S
Dy200 O215 2.310 . S
Dy200 O216 2.351 . S
C201 O212 1.185 . S
C201 O213 1.355 . S
C202 O204 1.185 . S
C202 O205 1.355 . S
Dy203 O207 2.310 . S
Dy203 O210 2.351 . S
Dy203 O212 2.398 . S
Dy203 O213 2.491 . S
Dy203 O214 2.403 . S
Dy203 O215 2.664 . S
Dy203 O217 2.326 . S
O204 Dy200 2.398 . S
O204 C202 1.185 . S
O205 Dy200 2.491 . S
O205 C202 1.355 . S
O206 Dy200 2.403 . S
O206 C208 1.254 . S
O207 Dy200 2.664 . S
O207 Dy203 2.310 . S
O207 C208 1.268 . S
C208 O206 1.254 . S
C208 O207 1.268 . S
C209 O214 1.254 . S
C209 O215 1.268 . S
O210 Dy203 2.351 . S
O210 C218 1.249 . S
O211 Dy200 2.326 . S
O211 C218 1.267 . S
O212 C201 1.185 . S
O212 Dy203 2.398 . S
O213 C201 1.355 . S
O213 Dy203 2.491 . S
O214 Dy203 2.403 . S
O214 C209 1.254 . S
O215 Dy200 2.310 . S
O215 Dy203 2.664 . S
O215 C209 1.268 . S
O216 Dy200 2.351 . S
O216 C219 1.249 . S
O217 Dy203 2.326 . S
O217 C219 1.267 . S
C218 O210 1.249 . S
C218 O211 1.267 . S
C219 O216 1.249 . S
C219 O217 1.267 . S
Dy220 O224 2.398 . S
Dy220 O225 2.491 . S
Dy220 O226 2.403 . S
Dy220 O227 2.664 . S
Dy220 O231 2.326 . S
Dy220 O235 2.310 . S
Dy220 O236 2.351 . S
C221 O232 1.185 . S
C221 O233 1.355 . S
C222 O224 1.185 . S
C222 O225 1.355 . S
Dy223 O227 2.310 . S
Dy223 O230 2.351 . S
Dy223 O232 2.398 . S
Dy223 O233 2.491 . S
Dy223 O234 2.403 . S
Dy223 O235 2.664 . S
Dy223 O237 2.326 . S
O224 Dy220 2.398 . S
O224 C222 1.185 . S
O225 Dy220 2.491 . S
O225 C222 1.355 . S
O226 Dy220 2.403 . S
O226 C228 1.254 . S
O227 Dy220 2.664 . S
O227 Dy223 2.310 . S
O227 C228 1.268 . S
C228 O226 1.254 . S
C228 O227 1.268 . S
C229 O234 1.254 . S
C229 O235 1.268 . S
O230 Dy223 2.351 . S
O230 C238 1.249 . S
O231 Dy220 2.326 . S
O231 C238 1.267 . S
O232 C221 1.185 . S
O232 Dy223 2.398 . S
O233 C221 1.355 . S
O233 Dy223 2.491 . S
O234 Dy223 2.403 . S
O234 C229 1.254 . S
O235 Dy220 2.310 . S
O235 Dy223 2.664 . S
O235 C229 1.268 . S
O236 Dy220 2.351 . S
O236 C239 1.249 . S
O237 Dy223 2.326 . S
O237 C239 1.267 . S
C238 O230 1.249 . S
C238 O231 1.267 . S
C239 O236 1.249 . S
C239 O237 1.267 . S
Dy240 O244 2.398 . S
Dy240 O245 2.491 . S
Dy240 O246 2.403 . S
Dy240 O247 2.664 . S
Dy240 O251 2.326 . S
Dy240 O255 2.310 . S
Dy240 O256 2.351 . S
C241 O252 1.185 . S
C241 O253 1.355 . S
C242 O244 1.185 . S
C242 O245 1.355 . S
Dy243 O247 2.310 . S
Dy243 O250 2.351 . S
Dy243 O252 2.398 . S
Dy243 O253 2.491 . S
Dy243 O254 2.403 . S
Dy243 O255 2.664 . S
Dy243 O257 2.326 . S
O244 Dy240 2.398 . S
O244 C242 1.185 . S
O245 Dy240 2.491 . S
O245 C242 1.355 . S
O246 Dy240 2.403 . S
O246 C248 1.254 . S
O247 Dy240 2.664 . S
O247 Dy243 2.310 . S
O247 C248 1.268 . S
C248 O246 1.254 . S
C248 O247 1.268 . S
C249 O254 1.254 . S
C249 O255 1.268 . S
O250 Dy243 2.351 . S
O250 C258 1.249 . S
O251 Dy240 2.326 . S
O251 C258 1.267 . S
O252 C241 1.185 . S
O252 Dy243 2.398 . S
O253 C241 1.355 . S
O253 Dy243 2.491 . S
O254 Dy243 2.403 . S
O254 C249 1.254 . S
O255 Dy240 2.310 . S
O255 Dy243 2.664 . S
O255 C249 1.268 . S
O256 Dy240 2.351 . S
O256 C259 1.249 . S
O257 Dy243 2.326 . S
O257 C259 1.267 . S
C258 O250 1.249 . S
C258 O251 1.267 . S
C259 O256 1.249 . S
C259 O257 1.267 . S
Dy260 O264 2.398 . S
Dy260 O265 2.491 . S
Dy260 O266 2.403 . S
Dy260 O267 2.664 . S
Dy260 O271 2.326 . S
Dy260 O275 2.310 . S
Dy260 O276 2.351 . S
C261 O272 1.185 . S
C261 O273 1.355 . S
C262 O264 1.185 . S
C262 O265 1.355 . S
Dy263 O267 2.310 . S
Dy263 O270 2.351 . S
Dy263 O272 2.398 . S
Dy263 O273 2.491 . S
Dy263 O274 2.403 . S
Dy263 O275 2.664 . S
Dy263 O277 2.326 . S
O264 Dy260 2.398 . S
O264 C262 1.185 . S
O265 Dy260 2.491 . S
O265 C262 1.355 . S
O266 Dy260 2.403 . S
O266 C268 1.254 . S
O267 Dy260 2.664 . S
O267 Dy263 2.310 . S
O267 C268 1.268 . S
C268 O266 1.254 . S
C268 O267 1.268 . S
C269 O274 1.254 . S
C269 O275 1.268 . S
O270 Dy263 2.351 . S
O270 C278 1.249 . S
O271 Dy260 2.326 . S
O271 C278 1.267 . S
O272 C261 1.185 . S
O272 Dy263 2.398 . S
O273 C261 1.355 . S
O273 Dy263 2.491 . S
O274 Dy263 2.403 . S
O274 C269 1.254 . S
O275 Dy260 2.310 . S
O275 Dy263 2.664 . S
O275 C269 1.268 . S
O276 Dy260 2.351 . S
O276 C279 1.249 . S
O277 Dy263 2.326 . S
O277 C279 1.267 . S
C278 O270 1.249 . S
C278 O271 1.267 . S
C279 O276 1.249 . S
C279 O277 1.267 . S
Dy280 O284 2.398 . S
Dy280 O285 2.491 . S
Dy280 O286 2.403 . S
Dy280 O287 2.664 . S
Dy280 O291 2.326 . S
Dy280 O295 2.310 . S
Dy280 O296 2.351 . S
C281 O292 1.185 . S
C281 O293 1.355 . S
C282 O284 1.185 . S
C282 O285 1.355 . S
Dy283 O287 2.310 . S
Dy283 O290 2.351 . S
Dy283 O292 2.398 . S
Dy283 O293 2.491 . S
Dy283 O294 2.403 . S
Dy283 O295 2.664 . S
Dy283 O297 2.326 . S
O284 Dy280 2.398 . S
O284 C282 1.185 . S
O285 Dy280 2.491 . S
O285 C282 1.355 . S
O286 Dy280 2.403 . S
O286 C288 1.254 . S
O287 Dy280 2.664 . S
O287 Dy283 2.310 . S
O287 C288 1.268 . S
C288 O286 1.254 . S
C288 O287 1.268 . S
C289 O294 1.254 . S
C289 O295 1.268 . S
O290 Dy283 2.351 . S
O290 C298 1.249 . S
O291 Dy280 2.326 . S
O291 C298 1.267 . S
O292 C281 1.185 . S
O292 Dy283 2.398 . S
O293 C281 1.355 . S
O293 Dy283 2.491 . S
O294 Dy283 2.403 . S
O294 C289 1.254 . S
O295 Dy280 2.310 . S
O295 Dy283 2.664 . S
O295 C289 1.268 . S
O296 Dy280 2.351 . S
O296 C299 1.249 . S
O297 Dy283 2.326 . S
O297 C299 1.267 . S
C298 O290 1.249 . S
C298 O291 1.267 . S
C299 O296 1.249 . S
C299 O297 1.267 . S
Dy300 O304 2.398 . S
Dy300 O305 2.491 . S
Dy300 O306 2.403 . S
Dy300 O307 2.664 . S
Dy300 O311 2.326 . S
Dy300 O315 2.310 . S
Dy300 O316 2.351 . S
C301 O312 1.185 . S
C301 O313 1.355 . S
C302 O304 1.185 . S
C302 O305 1.355 . S
Dy303 O307 2.310 . S
Dy303 O310 2.351 . S
Dy303 O312 2.398 . S
Dy303 O313 2.491 . S
Dy303 O314 2.403 . S
Dy303 O315 2.664 . S
Dy303 O317 2.326 . S
O304 Dy300 2.398 . S
O304 C302 1.185 . S
O305 Dy300 2.491 . S
O305 C302 1.355 . S
O306 Dy300 2.403 . S
O306 C308 1.254 . S
O307 Dy300 2.664 . S
O307 Dy303 2.310 . S
O307 C308 1.268 . S
C308 O306 1.254 . S
C308 O307 1.268 . S
C309 O314 1.254 . S
C309 O315 1.268 . S
O310 Dy303 2.351 . S
O310 C318 1.249 . S
O311 Dy300 2.326 . S
O311 C318 1.267 . S
O312 C301 1.185 . S
O312 Dy303 2.398 . S
O313 C301 1.355 . S
O313 Dy303 2.491 . S
O314 Dy303 2.403 . S
O314 C309 1.254 . S
O315 Dy300 2.310 . S
O315 Dy303 2.664 . S
O315 C309 1.268 . S
O316 Dy300 2.351 . S
O316 C319 1.249 . S
O317 Dy303 2.326 . S
O317 C319 1.267 . S
C318 O310 1.249 . S
C318 O311 1.267 . S
C319 O316 1.249 . S
C319 O317 1.267 . S
C320 C321 1.363 . S
C320 C326 1.379 . S
C320 N328 1.356 . S
C321 C320 1.363 . S
C321 C327 1.363 . S
C322 C323 1.363 . S
C322 C327 1.379 . S
C322 N329 1.356 . S
C323 C322 1.363 . S
C323 C326 1.363 . S
N324 C326 1.356 . S
N324 H336 0.984 . S
N324 H337 0.985 . S
N325 C327 1.356 . S
N325 H330 0.984 . S
N325 H331 0.985 . S
C326 C320 1.379 . S
C326 C323 1.363 . S
C326 N324 1.356 . S
C327 C321 1.363 . S
C327 C322 1.379 . S
C327 N325 1.356 . S
N328 C320 1.356 . S
N328 H334 0.984 . S
N328 H335 0.984 . S
N329 C322 1.356 . S
N329 H332 0.984 . S
N329 H333 0.985 . S
H330 N325 0.984 . S
H331 N325 0.985 . S
H332 N329 0.984 . S
H333 N329 0.985 . S
H334 N328 0.984 . S
H335 N328 0.984 . S
H336 N324 0.984 . S
H337 N324 0.985 . S
C338 C339 1.363 . S
C338 C344 1.379 . S
C338 N346 1.356 . S
C339 C338 1.363 . S
C339 C345 1.363 . S
C340 C341 1.363 . S
C340 C345 1.379 . S
C340 N347 1.356 . S
C341 C340 1.363 . S
C341 C344 1.363 . S
N342 C344 1.356 . S
N342 H354 0.984 . S
N342 H355 0.985 . S
N343 C345 1.356 . S
N343 H348 0.984 . S
N343 H349 0.985 . S
C344 C338 1.379 . S
C344 C341 1.363 . S
C344 N342 1.356 . S
C345 C339 1.363 . S
C345 C340 1.379 . S
C345 N343 1.356 . S
N346 C338 1.356 . S
N346 H352 0.984 . S
N346 H353 0.984 . S
N347 C340 1.356 . S
N347 H350 0.984 . S
N347 H351 0.985 . S
H348 N343 0.984 . S
H349 N343 0.985 . S
H350 N347 0.984 . S
H351 N347 0.985 . S
H352 N346 0.984 . S
H353 N346 0.984 . S
H354 N342 0.984 . S
H355 N342 0.985 . S
C356 C357 1.363 . S
C356 C362 1.379 . S
C356 N364 1.356 . S
C357 C356 1.363 . S
C357 C363 1.363 . S
C358 C359 1.363 . S
C358 C363 1.379 . S
C358 N365 1.356 . S
C359 C358 1.363 . S
C359 C362 1.363 . S
N360 C362 1.356 . S
N360 H372 0.984 . S
N360 H373 0.985 . S
N361 C363 1.356 . S
N361 H366 0.984 . S
N361 H367 0.985 . S
C362 C356 1.379 . S
C362 C359 1.363 . S
C362 N360 1.356 . S
C363 C357 1.363 . S
C363 C358 1.379 . S
C363 N361 1.356 . S
N364 C356 1.356 . S
N364 H370 0.984 . S
N364 H371 0.984 . S
N365 C358 1.356 . S
N365 H368 0.984 . S
N365 H369 0.985 . S
H366 N361 0.984 . S
H367 N361 0.985 . S
H368 N365 0.984 . S
H369 N365 0.985 . S
H370 N364 0.984 . S
H371 N364 0.984 . S
H372 N360 0.984 . S
H373 N360 0.985 . S
C374 C375 1.363 . S
C374 C380 1.379 . S
C374 N382 1.356 . S
C375 C374 1.363 . S
C375 C381 1.363 . S
C376 C377 1.363 . S
C376 C381 1.379 . S
C376 N383 1.356 . S
C377 C376 1.363 . S
C377 C380 1.363 . S
N378 C380 1.356 . S
N378 H390 0.984 . S
N378 H391 0.985 . S
N379 C381 1.356 . S
N379 H384 0.984 . S
N379 H385 0.985 . S
C380 C374 1.379 . S
C380 C377 1.363 . S
C380 N378 1.356 . S
C381 C375 1.363 . S
C381 C376 1.379 . S
C381 N379 1.356 . S
N382 C374 1.356 . S
N382 H388 0.984 . S
N382 H389 0.984 . S
N383 C376 1.356 . S
N383 H386 0.984 . S
N383 H387 0.985 . S
H384 N379 0.984 . S
H385 N379 0.985 . S
H386 N383 0.984 . S
H387 N383 0.985 . S
H388 N382 0.984 . S
H389 N382 0.984 . S
H390 N378 0.984 . S
H391 N378 0.985 . S
C392 C393 1.363 . S
C392 C398 1.379 . S
C392 N400 1.356 . S
C393 C392 1.363 . S
C393 C399 1.363 . S
C394 C395 1.363 . S
C394 C399 1.379 . S
C394 N401 1.356 . S
C395 C394 1.363 . S
C395 C398 1.363 . S
N396 C398 1.356 . S
N396 H408 0.984 . S
N396 H409 0.985 . S
N397 C399 1.356 . S
N397 H402 0.984 . S
N397 H403 0.985 . S
C398 C392 1.379 . S
C398 C395 1.363 . S
C398 N396 1.356 . S
C399 C393 1.363 . S
C399 C394 1.379 . S
C399 N397 1.356 . S
N400 C392 1.356 . S
N400 H406 0.984 . S
N400 H407 0.984 . S
N401 C394 1.356 . S
N401 H404 0.984 . S
N401 H405 0.985 . S
H402 N397 0.984 . S
H403 N397 0.985 . S
H404 N401 0.984 . S
H405 N401 0.985 . S
H406 N400 0.984 . S
H407 N400 0.984 . S
H408 N396 0.984 . S
H409 N396 0.985 . S
C410 C411 1.363 . S
C410 C416 1.379 . S
C410 N418 1.356 . S
C411 C410 1.363 . S
C411 C417 1.363 . S
C412 C413 1.363 . S
C412 C417 1.379 . S
C412 N419 1.356 . S
C413 C412 1.363 . S
C413 C416 1.363 . S
N414 C416 1.356 . S
N414 H426 0.984 . S
N414 H427 0.985 . S
N415 C417 1.356 . S
N415 H420 0.984 . S
N415 H421 0.985 . S
C416 C410 1.379 . S
C416 C413 1.363 . S
C416 N414 1.356 . S
C417 C411 1.363 . S
C417 C412 1.379 . S
C417 N415 1.356 . S
N418 C410 1.356 . S
N418 H424 0.984 . S
N418 H425 0.984 . S
N419 C412 1.356 . S
N419 H422 0.984 . S
N419 H423 0.985 . S
H420 N415 0.984 . S
H421 N415 0.985 . S
H422 N419 0.984 . S
H423 N419 0.985 . S
H424 N418 0.984 . S
H425 N418 0.984 . S
H426 N414 0.984 . S
H427 N414 0.985 . S
C428 C429 1.363 . S
C428 C434 1.379 . S
C428 N436 1.356 . S
C429 C428 1.363 . S
C429 C435 1.363 . S
C430 C431 1.363 . S
C430 C435 1.379 . S
C430 N437 1.356 . S
C431 C430 1.363 . S
C431 C434 1.363 . S
N432 C434 1.356 . S
N432 H444 0.984 . S
N432 H445 0.985 . S
N433 C435 1.356 . S
N433 H438 0.984 . S
N433 H439 0.985 . S
C434 C428 1.379 . S
C434 C431 1.363 . S
C434 N432 1.356 . S
C435 C429 1.363 . S
C435 C430 1.379 . S
C435 N433 1.356 . S
N436 C428 1.356 . S
N436 H442 0.984 . S
N436 H443 0.984 . S
N437 C430 1.356 . S
N437 H440 0.984 . S
N437 H441 0.985 . S
H438 N433 0.984 . S
H439 N433 0.985 . S
H440 N437 0.984 . S
H441 N437 0.985 . S
H442 N436 0.984 . S
H443 N436 0.984 . S
H444 N432 0.984 . S
H445 N432 0.985 . S
C446 C447 1.363 . S
C446 C452 1.379 . S
C446 N454 1.356 . S
C447 C446 1.363 . S
C447 C453 1.363 . S
C448 C449 1.363 . S
C448 C453 1.379 . S
C448 N455 1.356 . S
C449 C448 1.363 . S
C449 C452 1.363 . S
N450 C452 1.356 . S
N450 H462 0.984 . S
N450 H463 0.985 . S
N451 C453 1.356 . S
N451 H456 0.984 . S
N451 H457 0.985 . S
C452 C446 1.379 . S
C452 C449 1.363 . S
C452 N450 1.356 . S
C453 C447 1.363 . S
C453 C448 1.379 . S
C453 N451 1.356 . S
N454 C446 1.356 . S
N454 H460 0.984 . S
N454 H461 0.984 . S
N455 C448 1.356 . S
N455 H458 0.984 . S
N455 H459 0.985 . S
H456 N451 0.984 . S
H457 N451 0.985 . S
H458 N455 0.984 . S
H459 N455 0.985 . S
H460 N454 0.984 . S
H461 N454 0.984 . S
H462 N450 0.984 . S
H463 N450 0.985 . S
C464 C465 1.363 . S
C464 C470 1.379 . S
C464 N472 1.356 . S
C465 C464 1.363 . S
C465 C471 1.363 1_565 S
C466 C467 1.363 . S
C466 C471 1.379 . S
C466 N473 1.356 . S
C467 C466 1.363 . S
C467 C470 1.363 1_545 S
N468 C470 1.356 . S
N468 H480 0.984 . S
N468 H481 0.985 . S
N469 C471 1.356 . S
N469 H474 0.984 . S
N469 H475 0.985 . S
C470 C464 1.379 . S
C470 C467 1.363 1_565 S
C470 N468 1.356 . S
C471 C465 1.363 1_545 S
C471 C466 1.379 . S
C471 N469 1.356 . S
N472 C464 1.356 . S
N472 H478 0.984 . S
N472 H479 0.984 . S
N473 C466 1.356 . S
N473 H476 0.984 . S
N473 H477 0.985 . S
H474 N469 0.984 . S
H475 N469 0.985 . S
H476 N473 0.984 . S
H477 N473 0.985 . S
H478 N472 0.984 . S
H479 N472 0.984 . S
H480 N468 0.984 . S
H481 N468 0.985 . S
C482 C483 1.363 . S
C482 C488 1.379 . S
C482 N490 1.356 . S
C483 C482 1.363 . S
C483 C489 1.363 1_545 S
C484 C485 1.363 . S
C484 C489 1.379 . S
C484 N491 1.356 . S
C485 C484 1.363 . S
C485 C488 1.363 1_565 S
N486 C488 1.356 . S
N486 H498 0.984 . S
N486 H499 0.985 . S
N487 C489 1.356 . S
N487 H492 0.984 . S
N487 H493 0.985 . S
C488 C482 1.379 . S
C488 C485 1.363 1_545 S
C488 N486 1.356 . S
C489 C483 1.363 1_565 S
C489 C484 1.379 . S
C489 N487 1.356 . S
N490 C482 1.356 . S
N490 H496 0.984 . S
N490 H497 0.984 . S
N491 C484 1.356 . S
N491 H494 0.984 . S
N491 H495 0.985 . S
H492 N487 0.984 . S
H493 N487 0.985 . S
H494 N491 0.984 . S
H495 N491 0.985 . S
H496 N490 0.984 . S
H497 N490 0.984 . S
H498 N486 0.984 . S
H499 N486 0.985 . S
C500 C501 1.363 . S
C500 C506 1.379 . S
C500 N508 1.356 . S
C501 C500 1.363 . S
C501 C507 1.363 1_545 S
C502 C503 1.363 . S
C502 C507 1.379 . S
C502 N509 1.356 . S
C503 C502 1.363 . S
C503 C506 1.363 1_565 S
N504 C506 1.356 . S
N504 H516 0.984 . S
N504 H517 0.985 . S
N505 C507 1.356 . S
N505 H510 0.984 . S
N505 H511 0.985 . S
C506 C500 1.379 . S
C506 C503 1.363 1_545 S
C506 N504 1.356 . S
C507 C501 1.363 1_565 S
C507 C502 1.379 . S
C507 N505 1.356 . S
N508 C500 1.356 . S
N508 H514 0.984 . S
N508 H515 0.984 . S
N509 C502 1.356 . S
N509 H512 0.984 . S
N509 H513 0.985 . S
H510 N505 0.984 . S
H511 N505 0.985 . S
H512 N509 0.984 . S
H513 N509 0.985 . S
H514 N508 0.984 . S
H515 N508 0.984 . S
H516 N504 0.984 . S
H517 N504 0.985 . S
C518 C519 1.363 1_565 S
C518 C524 1.379 . S
C518 N526 1.356 . S
C519 C518 1.363 1_545 S
C519 C525 1.363 . S
C520 C521 1.363 1_545 S
C520 C525 1.379 . S
C520 N527 1.356 . S
C521 C520 1.363 1_565 S
C521 C524 1.363 . S
N522 C524 1.356 . S
N522 H534 0.984 . S
N522 H535 0.985 . S
N523 C525 1.356 . S
N523 H528 0.984 . S
N523 H529 0.985 . S
C524 C518 1.379 . S
C524 C521 1.363 . S
C524 N522 1.356 . S
C525 C519 1.363 . S
C525 C520 1.379 . S
C525 N523 1.356 . S
N526 C518 1.356 . S
N526 H532 0.984 . S
N526 H533 0.984 . S
N527 C520 1.356 . S
N527 H530 0.984 . S
N527 H531 0.985 . S
H528 N523 0.984 . S
H529 N523 0.985 . S
H530 N527 0.984 . S
H531 N527 0.985 . S
H532 N526 0.984 . S
H533 N526 0.984 . S
H534 N522 0.984 . S
H535 N522 0.985 . S
C536 C537 1.363 . S
C536 C542 1.379 . S
C536 N544 1.356 . S
C537 C536 1.363 . S
C537 C543 1.363 . S
C538 C539 1.363 . S
C538 C543 1.379 . S
C538 N545 1.356 . S
C539 C538 1.363 . S
C539 C542 1.363 . S
N540 C542 1.356 . S
N540 H552 0.984 . S
N540 H553 0.985 . S
N541 C543 1.356 . S
N541 H546 0.984 . S
N541 H547 0.985 . S
C542 C536 1.379 . S
C542 C539 1.363 . S
C542 N540 1.356 . S
C543 C537 1.363 . S
C543 C538 1.379 . S
C543 N541 1.356 . S
N544 C536 1.356 . S
N544 H550 0.984 . S
N544 H551 0.984 . S
N545 C538 1.356 . S
N545 H548 0.984 . S
N545 H549 0.985 . S
H546 N541 0.984 . S
H547 N541 0.985 . S
H548 N545 0.984 . S
H549 N545 0.985 . S
H550 N544 0.984 . S
H551 N544 0.984 . S
H552 N540 0.984 . S
H553 N540 0.985 . S
C554 C555 1.363 . S
C554 C560 1.379 . S
C554 N562 1.356 . S
C555 C554 1.363 . S
C555 C561 1.363 . S
C556 C557 1.363 . S
C556 C561 1.379 . S
C556 N563 1.356 . S
C557 C556 1.363 . S
C557 C560 1.363 . S
N558 C560 1.356 . S
N558 H570 0.984 . S
N558 H571 0.985 . S
N559 C561 1.356 . S
N559 H564 0.984 . S
N559 H565 0.985 . S
C560 C554 1.379 . S
C560 C557 1.363 . S
C560 N558 1.356 . S
C561 C555 1.363 . S
C561 C556 1.379 . S
C561 N559 1.356 . S
N562 C554 1.356 . S
N562 H568 0.984 . S
N562 H569 0.984 . S
N563 C556 1.356 . S
N563 H566 0.984 . S
N563 H567 0.985 . S
H564 N559 0.984 . S
H565 N559 0.985 . S
H566 N563 0.984 . S
H567 N563 0.985 . S
H568 N562 0.984 . S
H569 N562 0.984 . S
H570 N558 0.984 . S
H571 N558 0.985 . S
C572 C573 1.363 . S
C572 C578 1.379 . S
C572 N580 1.356 . S
C573 C572 1.363 . S
C573 C579 1.363 . S
C574 C575 1.363 . S
C574 C579 1.379 . S
C574 N581 1.356 . S
C575 C574 1.363 . S
C575 C578 1.363 . S
N576 C578 1.356 . S
N576 H588 0.984 . S
N576 H589 0.985 . S
N577 C579 1.356 . S
N577 H582 0.984 . S
N577 H583 0.985 . S
C578 C572 1.379 . S
C578 C575 1.363 . S
C578 N576 1.356 . S
C579 C573 1.363 . S
C579 C574 1.379 . S
C579 N577 1.356 . S
N580 C572 1.356 . S
N580 H586 0.984 . S
N580 H587 0.984 . S
N581 C574 1.356 . S
N581 H584 0.984 . S
N581 H585 0.985 . S
H582 N577 0.984 . S
H583 N577 0.985 . S
H584 N581 0.984 . S
H585 N581 0.985 . S
H586 N580 0.984 . S
H587 N580 0.984 . S
H588 N576 0.984 . S
H589 N576 0.985 . S
C590 C591 1.363 . S
C590 C596 1.379 . S
C590 N598 1.356 . S
C591 C590 1.363 . S
C591 C597 1.363 . S
C592 C593 1.363 . S
C592 C597 1.379 . S
C592 N599 1.356 . S
C593 C592 1.363 . S
C593 C596 1.363 . S
N594 C596 1.356 . S
N594 H606 0.984 . S
N594 H607 0.985 . S
N595 C597 1.356 . S
N595 H600 0.984 . S
N595 H601 0.985 . S
C596 C590 1.379 . S
C596 C593 1.363 . S
C596 N594 1.356 . S
C597 C591 1.363 . S
C597 C592 1.379 . S
C597 N595 1.356 . S
N598 C590 1.356 . S
N598 H604 0.984 . S
N598 H605 0.984 . S
N599 C592 1.356 . S
N599 H602 0.984 . S
N599 H603 0.985 . S
H600 N595 0.984 . S
H601 N595 0.985 . S
H602 N599 0.984 . S
H603 N599 0.985 . S
H604 N598 0.984 . S
H605 N598 0.984 . S
H606 N594 0.984 . S
H607 N594 0.985 . S
C608 C609 1.363 . S
C608 C614 1.379 1_556 S
C608 N616 1.356 . S
C609 C608 1.363 . S
C609 C615 1.363 . S
C610 C611 1.363 . S
C610 C615 1.379 1_554 S
C610 N617 1.353 1_545 S
C611 C610 1.363 . S
C611 C614 1.363 . S
N612 C614 1.356 . S
N612 H624 0.984 . S
N612 H625 0.985 . S
N613 C615 1.353 1_565 S
N613 H618 0.983 1_565 S
N613 H619 0.989 . S
C614 C608 1.379 1_554 S
C614 C611 1.363 . S
C614 N612 1.356 . S
C615 C609 1.363 . S
C615 C610 1.379 1_556 S
C615 N613 1.353 1_545 S
N616 C608 1.356 . S
N616 H622 0.984 . S
N616 H623 0.984 . S
N617 C610 1.353 1_565 S
N617 H620 0.983 1_565 S
N617 H621 0.989 . S
H618 N613 0.983 1_545 S
H619 N613 0.989 . S
H620 N617 0.983 1_545 S
H621 N617 0.989 . S
H622 N616 0.984 . S
H623 N616 0.984 . S
H624 N612 0.984 . S
H625 N612 0.985 . S
C626 C627 1.363 . S
C626 C632 1.379 1_556 S
C626 N634 1.353 1_565 S
C627 C626 1.363 . S
C627 C633 1.363 . S
C628 C629 1.363 . S
C628 C633 1.379 1_554 S
C628 N635 1.356 . S
C629 C628 1.363 . S
C629 C632 1.363 . S
N630 C632 1.353 1_545 S
N630 H642 0.989 . S
N630 H643 0.983 1_545 S
N631 C633 1.356 . S
N631 H636 0.984 . S
N631 H637 0.985 . S
C632 C626 1.379 1_554 S
C632 C629 1.363 . S
C632 N630 1.353 1_565 S
C633 C627 1.363 . S
C633 C628 1.379 1_556 S
C633 N631 1.356 . S
N634 C626 1.353 1_545 S
N634 H640 0.989 . S
N634 H641 0.983 1_545 S
N635 C628 1.356 . S
N635 H638 0.984 . S
N635 H639 0.985 . S
H636 N631 0.984 . S
H637 N631 0.985 . S
H638 N635 0.984 . S
H639 N635 0.985 . S
H640 N634 0.989 . S
H641 N634 0.983 1_565 S
H642 N630 0.989 . S
H643 N630 0.983 1_565 S
C644 C645 1.363 . S
C644 C650 1.379 . S
C644 N652 1.353 1_565 S
C645 C644 1.363 . S
C645 C651 1.363 . S
C646 C647 1.363 . S
C646 C651 1.379 . S
C646 N653 1.356 . S
C647 C646 1.363 . S
C647 C650 1.363 . S
N648 C650 1.353 1_545 S
N648 H660 0.989 . S
N648 H661 0.983 1_545 S
N649 C651 1.356 . S
N649 H654 0.984 . S
N649 H655 0.985 . S
C650 C644 1.379 . S
C650 C647 1.363 . S
C650 N648 1.353 1_565 S
C651 C645 1.363 . S
C651 C646 1.379 . S
C651 N649 1.356 . S
N652 C644 1.353 1_545 S
N652 H658 0.989 . S
N652 H659 0.983 1_545 S
N653 C646 1.356 . S
N653 H656 0.984 . S
N653 H657 0.985 . S
H654 N649 0.984 . S
H655 N649 0.985 . S
H656 N653 0.984 . S
H657 N653 0.985 . S
H658 N652 0.989 . S
H659 N652 0.983 1_565 S
H660 N648 0.989 . S
H661 N648 0.983 1_565 S
C662 C663 1.363 . S
C662 C668 1.379 . S
C662 N670 1.353 1_545 S
C663 C662 1.363 . S
C663 C669 1.363 . S
C664 C665 1.363 . S
C664 C669 1.379 . S
C664 N671 1.356 . S
C665 C664 1.363 . S
C665 C668 1.363 . S
N666 C668 1.353 1_565 S
N666 H678 0.989 . S
N666 H679 0.983 1_565 S
N667 C669 1.356 . S
N667 H672 0.984 . S
N667 H673 0.985 . S
C668 C662 1.379 . S
C668 C665 1.363 . S
C668 N666 1.353 1_545 S
C669 C663 1.363 . S
C669 C664 1.379 . S
C669 N667 1.356 . S
N670 C662 1.353 1_565 S
N670 H676 0.989 . S
N670 H677 0.983 1_565 S
N671 C664 1.356 . S
N671 H674 0.984 . S
N671 H675 0.985 . S
H672 N667 0.984 . S
H673 N667 0.985 . S
H674 N671 0.984 . S
H675 N671 0.985 . S
H676 N670 0.989 . S
H677 N670 0.983 1_545 S
H678 N666 0.989 . S
H679 N666 0.983 1_545 S
C680 C681 1.363 . S
C680 C686 1.379 1_554 S
C680 N688 1.356 . S
C681 C680 1.363 . S
C681 C687 1.363 . S
C682 C683 1.363 . S
C682 C687 1.379 1_556 S
C682 N689 1.356 . S
C683 C682 1.363 . S
C683 C686 1.363 . S
N684 C686 1.356 . S
N684 H696 0.984 . S
N684 H697 0.985 . S
N685 C687 1.356 . S
N685 H690 0.984 . S
N685 H691 0.985 . S
C686 C680 1.379 1_556 S
C686 C683 1.363 . S
C686 N684 1.356 . S
C687 C681 1.363 . S
C687 C682 1.379 1_554 S
C687 N685 1.356 . S
N688 C680 1.356 . S
N688 H694 0.984 . S
N688 H695 0.984 . S
N689 C682 1.356 . S
N689 H692 0.984 . S
N689 H693 0.985 . S
H690 N685 0.984 . S
H691 N685 0.985 . S
H692 N689 0.984 . S
H693 N689 0.985 . S
H694 N688 0.984 . S
H695 N688 0.984 . S
H696 N684 0.984 . S
H697 N684 0.985 . S
C698 C699 1.363 . S
C698 C704 1.379 1_556 S
C698 N706 1.356 . S
C699 C698 1.363 . S
C699 C705 1.363 . S
C700 C701 1.363 . S
C700 C705 1.379 1_554 S
C700 N707 1.356 . S
C701 C700 1.363 . S
C701 C704 1.363 . S
N702 C704 1.356 . S
N702 H714 0.984 . S
N702 H715 0.985 . S
N703 C705 1.356 . S
N703 H708 0.984 . S
N703 H709 0.985 . S
C704 C698 1.379 1_554 S
C704 C701 1.363 . S
C704 N702 1.356 . S
C705 C699 1.363 . S
C705 C700 1.379 1_556 S
C705 N703 1.356 . S
N706 C698 1.356 . S
N706 H712 0.984 . S
N706 H713 0.984 . S
N707 C700 1.356 . S
N707 H710 0.984 . S
N707 H711 0.985 . S
H708 N703 0.984 . S
H709 N703 0.985 . S
H710 N707 0.984 . S
H711 N707 0.985 . S
H712 N706 0.984 . S
H713 N706 0.984 . S
H714 N702 0.984 . S
H715 N702 0.985 . S
C716 C717 1.363 . S
C716 C722 1.379 . S
C716 N724 1.356 . S
C717 C716 1.363 . S
C717 C723 1.363 . S
C718 C719 1.363 . S
C718 C723 1.379 . S
C718 N725 1.356 . S
C719 C718 1.363 . S
C719 C722 1.363 . S
N720 C722 1.356 . S
N720 H732 0.984 . S
N720 H733 0.985 . S
N721 C723 1.356 . S
N721 H726 0.984 . S
N721 H727 0.985 . S
C722 C716 1.379 . S
C722 C719 1.363 . S
C722 N720 1.356 . S
C723 C717 1.363 . S
C723 C718 1.379 . S
C723 N721 1.356 . S
N724 C716 1.356 . S
N724 H730 0.984 . S
N724 H731 0.984 . S
N725 C718 1.356 . S
N725 H728 0.984 . S
N725 H729 0.985 . S
H726 N721 0.984 . S
H727 N721 0.985 . S
H728 N725 0.984 . S
H729 N725 0.985 . S
H730 N724 0.984 . S
H731 N724 0.984 . S
H732 N720 0.984 . S
H733 N720 0.985 . S
C734 C735 1.363 . S
C734 C740 1.379 . S
C734 N742 1.356 . S
C735 C734 1.363 . S
C735 C741 1.363 . S
C736 C737 1.363 . S
C736 C741 1.379 . S
C736 N743 1.356 . S
C737 C736 1.363 . S
C737 C740 1.363 . S
N738 C740 1.356 . S
N738 H750 0.984 . S
N738 H751 0.985 . S
N739 C741 1.356 . S
N739 H744 0.984 . S
N739 H745 0.985 . S
C740 C734 1.379 . S
C740 C737 1.363 . S
C740 N738 1.356 . S
C741 C735 1.363 . S
C741 C736 1.379 . S
C741 N739 1.356 . S
N742 C734 1.356 . S
N742 H748 0.984 . S
N742 H749 0.984 . S
N743 C736 1.356 . S
N743 H746 0.984 . S
N743 H747 0.985 . S
H744 N739 0.984 . S
H745 N739 0.985 . S
H746 N743 0.984 . S
H747 N743 0.985 . S
H748 N742 0.984 . S
H749 N742 0.984 . S
H750 N738 0.984 . S
H751 N738 0.985 . S
C752 C753 1.363 . S
C752 C758 1.379 1_655 S
C752 N760 1.356 . S
C753 C752 1.363 . S
C753 C759 1.363 1_545 S
C754 C755 1.363 . S
C754 C759 1.379 1_455 S
C754 N761 1.356 . S
C755 C754 1.363 . S
C755 C758 1.363 1_565 S
N756 C758 1.356 . S
N756 H768 0.984 . S
N756 H769 0.985 . S
N757 C759 1.356 . S
N757 H762 0.984 . S
N757 H763 0.985 . S
C758 C752 1.379 1_455 S
C758 C755 1.363 1_545 S
C758 N756 1.356 . S
C759 C753 1.363 1_565 S
C759 C754 1.379 1_655 S
C759 N757 1.356 . S
N760 C752 1.356 . S
N760 H766 0.984 . S
N760 H767 0.984 . S
N761 C754 1.356 . S
N761 H764 0.984 . S
N761 H765 0.985 . S
H762 N757 0.984 . S
H763 N757 0.985 . S
H764 N761 0.984 . S
H765 N761 0.985 . S
H766 N760 0.984 . S
H767 N760 0.984 . S
H768 N756 0.984 . S
H769 N756 0.985 . S
C770 C771 1.363 . S
C770 C776 1.379 1_655 S
C770 N778 1.356 . S
C771 C770 1.363 . S
C771 C777 1.363 1_565 S
C772 C773 1.363 . S
C772 C777 1.379 1_455 S
C772 N779 1.356 . S
C773 C772 1.363 . S
C773 C776 1.363 1_545 S
N774 C776 1.356 . S
N774 H786 0.984 . S
N774 H787 0.985 . S
N775 C777 1.356 . S
N775 H780 0.984 . S
N775 H781 0.985 . S
C776 C770 1.379 1_455 S
C776 C773 1.363 1_565 S
C776 N774 1.356 . S
C777 C771 1.363 1_545 S
C777 C772 1.379 1_655 S
C777 N775 1.356 . S
N778 C770 1.356 . S
N778 H784 0.984 . S
N778 H785 0.984 . S
N779 C772 1.356 . S
N779 H782 0.984 . S
N779 H783 0.985 . S
H780 N775 0.984 . S
H781 N775 0.985 . S
H782 N779 0.984 . S
H783 N779 0.985 . S
H784 N778 0.984 . S
H785 N778 0.984 . S
H786 N774 0.984 . S
H787 N774 0.985 . S
C788 C789 1.363 . S
C788 C794 1.379 1_455 S
C788 N796 1.356 . S
C789 C788 1.363 . S
C789 C795 1.363 1_565 S
C790 C791 1.363 . S
C790 C795 1.379 1_655 S
C790 N797 1.356 . S
C791 C790 1.363 . S
C791 C794 1.363 1_545 S
N792 C794 1.356 . S
N792 H804 0.984 . S
N792 H805 0.985 . S
N793 C795 1.356 . S
N793 H798 0.984 . S
N793 H799 0.985 . S
C794 C788 1.379 1_655 S
C794 C791 1.363 1_565 S
C794 N792 1.356 . S
C795 C789 1.363 1_545 S
C795 C790 1.379 1_455 S
C795 N793 1.356 . S
N796 C788 1.356 . S
N796 H802 0.984 . S
N796 H803 0.984 . S
N797 C790 1.356 . S
N797 H800 0.984 . S
N797 H801 0.985 . S
H798 N793 0.984 . S
H799 N793 0.985 . S
H800 N797 0.984 . S
H801 N797 0.985 . S
H802 N796 0.984 . S
H803 N796 0.984 . S
H804 N792 0.984 . S
H805 N792 0.985 . S
C806 C807 1.363 1_545 S
C806 C812 1.379 1_655 S
C806 N814 1.356 . S
C807 C806 1.363 1_565 S
C807 C813 1.363 . S
C808 C809 1.363 1_565 S
C808 C813 1.379 1_455 S
C808 N815 1.356 . S
C809 C808 1.363 1_545 S
C809 C812 1.363 . S
N810 C812 1.356 . S
N810 H822 0.984 . S
N810 H823 0.985 . S
N811 C813 1.356 . S
N811 H816 0.984 . S
N811 H817 0.985 . S
C812 C806 1.379 1_455 S
C812 C809 1.363 . S
C812 N810 1.356 . S
C813 C807 1.363 . S
C813 C808 1.379 1_655 S
C813 N811 1.356 . S
N814 C806 1.356 . S
N814 H820 0.984 . S
N814 H821 0.984 . S
N815 C808 1.356 . S
N815 H818 0.984 . S
N815 H819 0.985 . S
H816 N811 0.984 . S
H817 N811 0.985 . S
H818 N815 0.984 . S
H819 N815 0.985 . S
H820 N814 0.984 . S
H821 N814 0.984 . S
H822 N810 0.984 . S
H823 N810 0.985 . S
C824 C825 1.363 . S
C824 C830 1.379 . S
C824 N832 1.356 . S
C825 C824 1.363 . S
C825 C831 1.363 . S
C826 C827 1.363 . S
C826 C831 1.379 . S
C826 N833 1.356 . S
C827 C826 1.363 . S
C827 C830 1.363 . S
N828 C830 1.356 . S
N828 H840 0.984 . S
N828 H841 0.985 . S
N829 C831 1.356 . S
N829 H834 0.984 . S
N829 H835 0.985 . S
C830 C824 1.379 . S
C830 C827 1.363 . S
C830 N828 1.356 . S
C831 C825 1.363 . S
C831 C826 1.379 . S
C831 N829 1.356 . S
N832 C824 1.356 . S
N832 H838 0.984 . S
N832 H839 0.984 . S
N833 C826 1.356 . S
N833 H836 0.984 . S
N833 H837 0.985 . S
H834 N829 0.984 . S
H835 N829 0.985 . S
H836 N833 0.984 . S
H837 N833 0.985 . S
H838 N832 0.984 . S
H839 N832 0.984 . S
H840 N828 0.984 . S
H841 N828 0.985 . S
C842 C843 1.363 . S
C842 C848 1.379 . S
C842 N850 1.356 . S
C843 C842 1.363 . S
C843 C849 1.363 . S
C844 C845 1.363 . S
C844 C849 1.379 . S
C844 N851 1.356 . S
C845 C844 1.363 . S
C845 C848 1.363 . S
N846 C848 1.356 . S
N846 H858 0.984 . S
N846 H859 0.985 . S
N847 C849 1.356 . S
N847 H852 0.984 . S
N847 H853 0.985 . S
C848 C842 1.379 . S
C848 C845 1.363 . S
C848 N846 1.356 . S
C849 C843 1.363 . S
C849 C844 1.379 . S
C849 N847 1.356 . S
N850 C842 1.356 . S
N850 H856 0.984 . S
N850 H857 0.984 . S
N851 C844 1.356 . S
N851 H854 0.984 . S
N851 H855 0.985 . S
H852 N847 0.984 . S
H853 N847 0.985 . S
H854 N851 0.984 . S
H855 N851 0.985 . S
H856 N850 0.984 . S
H857 N850 0.984 . S
H858 N846 0.984 . S
H859 N846 0.985 . S
C860 C861 1.363 . S
C860 C866 1.379 . S
C860 N868 1.356 . S
C861 C860 1.363 . S
C861 C867 1.363 . S
C862 C863 1.363 . S
C862 C867 1.379 . S
C862 N869 1.356 . S
C863 C862 1.363 . S
C863 C866 1.363 . S
N864 C866 1.356 . S
N864 H876 0.984 . S
N864 H877 0.985 . S
N865 C867 1.356 . S
N865 H870 0.984 . S
N865 H871 0.985 . S
C866 C860 1.379 . S
C866 C863 1.363 . S
C866 N864 1.356 . S
C867 C861 1.363 . S
C867 C862 1.379 . S
C867 N865 1.356 . S
N868 C860 1.356 . S
N868 H874 0.984 . S
N868 H875 0.984 . S
N869 C862 1.356 . S
N869 H872 0.984 . S
N869 H873 0.985 . S
H870 N865 0.984 . S
H871 N865 0.985 . S
H872 N869 0.984 . S
H873 N869 0.985 . S
H874 N868 0.984 . S
H875 N868 0.984 . S
H876 N864 0.984 . S
H877 N864 0.985 . S
C878 C879 1.363 . S
C878 C884 1.379 . S
C878 N886 1.356 . S
C879 C878 1.363 . S
C879 C885 1.363 . S
C880 C881 1.363 . S
C880 C885 1.379 . S
C880 N887 1.356 . S
C881 C880 1.363 . S
C881 C884 1.363 . S
N882 C884 1.356 . S
N882 H894 0.984 . S
N882 H895 0.985 . S
N883 C885 1.356 . S
N883 H888 0.984 . S
N883 H889 0.985 . S
C884 C878 1.379 . S
C884 C881 1.363 . S
C884 N882 1.356 . S
C885 C879 1.363 . S
C885 C880 1.379 . S
C885 N883 1.356 . S
N886 C878 1.356 . S
N886 H892 0.984 . S
N886 H893 0.984 . S
N887 C880 1.356 . S
N887 H890 0.984 . S
N887 H891 0.985 . S
H888 N883 0.984 . S
H889 N883 0.985 . S
H890 N887 0.984 . S
H891 N887 0.985 . S
H892 N886 0.984 . S
H893 N886 0.984 . S
H894 N882 0.984 . S
H895 N882 0.985 . S
C896 C897 1.363 . S
C896 C902 1.379 . S
C896 N904 1.356 . S
C897 C896 1.363 . S
C897 C903 1.363 . S
C898 C899 1.363 . S
C898 C903 1.379 . S
C898 N905 1.356 . S
C899 C898 1.363 . S
C899 C902 1.363 . S
N900 C902 1.356 . S
N900 H912 0.984 . S
N900 H913 0.985 . S
N901 C903 1.356 . S
N901 H906 0.984 . S
N901 H907 0.985 . S
C902 C896 1.379 . S
C902 C899 1.363 . S
C902 N900 1.356 . S
C903 C897 1.363 . S
C903 C898 1.379 . S
C903 N901 1.356 . S
N904 C896 1.356 . S
N904 H910 0.984 . S
N904 H911 0.984 . S
N905 C898 1.356 . S
N905 H908 0.984 . S
N905 H909 0.985 . S
H906 N901 0.984 . S
H907 N901 0.985 . S
H908 N905 0.984 . S
H909 N905 0.985 . S
H910 N904 0.984 . S
H911 N904 0.984 . S
H912 N900 0.984 . S
H913 N900 0.985 . S
C914 C915 1.363 . S
C914 C920 1.379 . S
C914 N922 1.356 . S
C915 C914 1.363 . S
C915 C921 1.363 . S
C916 C917 1.363 . S
C916 C921 1.379 . S
C916 N923 1.356 . S
C917 C916 1.363 . S
C917 C920 1.363 . S
N918 C920 1.356 . S
N918 H930 0.984 . S
N918 H931 0.985 . S
N919 C921 1.356 . S
N919 H924 0.984 . S
N919 H925 0.985 . S
C920 C914 1.379 . S
C920 C917 1.363 . S
C920 N918 1.356 . S
C921 C915 1.363 . S
C921 C916 1.379 . S
C921 N919 1.356 . S
N922 C914 1.356 . S
N922 H928 0.984 . S
N922 H929 0.984 . S
N923 C916 1.356 . S
N923 H926 0.984 . S
N923 H927 0.985 . S
H924 N919 0.984 . S
H925 N919 0.985 . S
H926 N923 0.984 . S
H927 N923 0.985 . S
H928 N922 0.984 . S
H929 N922 0.984 . S
H930 N918 0.984 . S
H931 N918 0.985 . S
C932 C933 1.363 . S
C932 C938 1.379 . S
C932 N940 1.356 . S
C933 C932 1.363 . S
C933 C939 1.363 . S
C934 C935 1.363 . S
C934 C939 1.379 . S
C934 N941 1.356 . S
C935 C934 1.363 . S
C935 C938 1.363 . S
N936 C938 1.356 . S
N936 H948 0.984 . S
N936 H949 0.985 . S
N937 C939 1.356 . S
N937 H942 0.984 . S
N937 H943 0.985 . S
C938 C932 1.379 . S
C938 C935 1.363 . S
C938 N936 1.356 . S
C939 C933 1.363 . S
C939 C934 1.379 . S
C939 N937 1.356 . S
N940 C932 1.356 . S
N940 H946 0.984 . S
N940 H947 0.984 . S
N941 C934 1.356 . S
N941 H944 0.984 . S
N941 H945 0.985 . S
H942 N937 0.984 . S
H943 N937 0.985 . S
H944 N941 0.984 . S
H945 N941 0.985 . S
H946 N940 0.984 . S
H947 N940 0.984 . S
H948 N936 0.984 . S
H949 N936 0.985 . S
C950 C951 1.363 . S
C950 C956 1.379 . S
C950 N958 1.356 . S
C951 C950 1.363 . S
C951 C957 1.363 . S
C952 C953 1.363 . S
C952 C957 1.379 . S
C952 N959 1.356 . S
C953 C952 1.363 . S
C953 C956 1.363 . S
N954 C956 1.356 . S
N954 H966 0.984 . S
N954 H967 0.985 . S
N955 C957 1.356 . S
N955 H960 0.984 . S
N955 H961 0.985 . S
C956 C950 1.379 . S
C956 C953 1.363 . S
C956 N954 1.356 . S
C957 C951 1.363 . S
C957 C952 1.379 . S
C957 N955 1.356 . S
N958 C950 1.356 . S
N958 H964 0.984 . S
N958 H965 0.984 . S
N959 C952 1.356 . S
N959 H962 0.984 . S
N959 H963 0.985 . S
H960 N955 0.984 . S
H961 N955 0.985 . S
H962 N959 0.984 . S
H963 N959 0.985 . S
H964 N958 0.984 . S
H965 N958 0.984 . S
H966 N954 0.984 . S
H967 N954 0.985 . S
C968 C969 1.363 . S
C968 C974 1.379 . S
C968 N976 1.356 . S
C969 C968 1.363 . S
C969 C975 1.363 . S
C970 C971 1.363 . S
C970 C975 1.379 . S
C970 N977 1.356 . S
C971 C970 1.363 . S
C971 C974 1.363 . S
N972 C974 1.356 . S
N972 H984 0.984 . S
N972 H985 0.985 . S
N973 C975 1.356 . S
N973 H978 0.984 . S
N973 H979 0.985 . S
C974 C968 1.379 . S
C974 C971 1.363 . S
C974 N972 1.356 . S
C975 C969 1.363 . S
C975 C970 1.379 . S
C975 N973 1.356 . S
N976 C968 1.356 . S
N976 H982 0.984 . S
N976 H983 0.984 . S
N977 C970 1.356 . S
N977 H980 0.984 . S
N977 H981 0.985 . S
H978 N973 0.984 . S
H979 N973 0.985 . S
H980 N977 0.984 . S
H981 N977 0.985 . S
H982 N976 0.984 . S
H983 N976 0.984 . S
H984 N972 0.984 . S
H985 N972 0.985 . S
C986 C987 1.363 . S
C986 C992 1.379 . S
C986 N994 1.356 . S
C987 C986 1.363 . S
C987 C993 1.363 . S
C988 C989 1.363 . S
C988 C993 1.379 . S
C988 N995 1.356 . S
C989 C988 1.363 . S
C989 C992 1.363 . S
N990 C992 1.356 . S
N990 H1002 0.984 . S
N990 H1003 0.985 . S
N991 C993 1.356 . S
N991 H996 0.984 . S
N991 H997 0.985 . S
C992 C986 1.379 . S
C992 C989 1.363 . S
C992 N990 1.356 . S
C993 C987 1.363 . S
C993 C988 1.379 . S
C993 N991 1.356 . S
N994 C986 1.356 . S
N994 H1000 0.984 . S
N994 H1001 0.984 . S
N995 C988 1.356 . S
N995 H998 0.984 . S
N995 H999 0.985 . S
H996 N991 0.984 . S
H997 N991 0.985 . S
H998 N995 0.984 . S
H999 N995 0.985 . S
H1000 N994 0.984 . S
H1001 N994 0.984 . S
H1002 N990 0.984 . S
H1003 N990 0.985 . S
C1004 C1005 1.363 . S
C1004 C1010 1.379 . S
C1004 N1012 1.356 . S
C1005 C1004 1.363 . S
C1005 C1011 1.363 . S
C1006 C1007 1.363 . S
C1006 C1011 1.379 . S
C1006 N1013 1.356 . S
C1007 C1006 1.363 . S
C1007 C1010 1.363 . S
N1008 C1010 1.356 . S
N1008 H1020 0.984 . S
N1008 H1021 0.985 . S
N1009 C1011 1.356 . S
N1009 H1014 0.984 . S
N1009 H1015 0.985 . S
C1010 C1004 1.379 . S
C1010 C1007 1.363 . S
C1010 N1008 1.356 . S
C1011 C1005 1.363 . S
C1011 C1006 1.379 . S
C1011 N1009 1.356 . S
N1012 C1004 1.356 . S
N1012 H1018 0.984 . S
N1012 H1019 0.984 . S
N1013 C1006 1.356 . S
N1013 H1016 0.984 . S
N1013 H1017 0.985 . S
H1014 N1009 0.984 . S
H1015 N1009 0.985 . S
H1016 N1013 0.984 . S
H1017 N1013 0.985 . S
H1018 N1012 0.984 . S
H1019 N1012 0.984 . S
H1020 N1008 0.984 . S
H1021 N1008 0.985 . S
C1022 C1023 1.363 . S
C1022 C1028 1.379 . S
C1022 N1030 1.356 . S
C1023 C1022 1.363 . S
C1023 C1029 1.363 . S
C1024 C1025 1.363 . S
C1024 C1029 1.379 . S
C1024 N1031 1.356 . S
C1025 C1024 1.363 . S
C1025 C1028 1.363 . S
N1026 C1028 1.356 . S
N1026 H1038 0.984 . S
N1026 H1039 0.985 . S
N1027 C1029 1.356 . S
N1027 H1032 0.984 . S
N1027 H1033 0.985 . S
C1028 C1022 1.379 . S
C1028 C1025 1.363 . S
C1028 N1026 1.356 . S
C1029 C1023 1.363 . S
C1029 C1024 1.379 . S
C1029 N1027 1.356 . S
N1030 C1022 1.356 . S
N1030 H1036 0.984 . S
N1030 H1037 0.984 . S
N1031 C1024 1.356 . S
N1031 H1034 0.984 . S
N1031 H1035 0.985 . S
H1032 N1027 0.984 . S
H1033 N1027 0.985 . S
H1034 N1031 0.984 . S
H1035 N1031 0.985 . S
H1036 N1030 0.984 . S
H1037 N1030 0.984 . S
H1038 N1026 0.984 . S
H1039 N1026 0.985 . S
C1040 C1041 1.358 1_545 S
C1040 C1046 1.379 . S
C1040 N1048 1.356 1_545 S
C1041 C1040 1.358 1_565 S
C1041 C1047 1.357 1_565 S
C1042 C1043 1.363 . S
C1042 C1047 1.379 . S
C1042 N1049 1.356 . S
C1043 C1042 1.363 . S
C1043 C1046 1.363 . S
N1044 C1046 1.356 . S
N1044 H1056 0.984 . S
N1044 H1057 0.985 . S
N1045 C1047 1.356 1_565 S
N1045 H1050 0.984 . S
N1045 H1051 0.985 1_565 S
C1046 C1040 1.379 . S
C1046 C1043 1.363 . S
C1046 N1044 1.356 . S
C1047 C1041 1.357 1_545 S
C1047 C1042 1.379 . S
C1047 N1045 1.356 1_545 S
N1048 C1040 1.356 1_565 S
N1048 H1054 0.984 . S
N1048 H1055 0.984 . S
N1049 C1042 1.356 . S
N1049 H1052 0.984 . S
N1049 H1053 0.985 . S
H1050 N1045 0.984 . S
H1051 N1045 0.985 1_545 S
H1052 N1049 0.984 . S
H1053 N1049 0.985 . S
H1054 N1048 0.984 . S
H1055 N1048 0.984 . S
H1056 N1044 0.984 . S
H1057 N1044 0.985 . S
C1058 C1059 1.363 . S
C1058 C1064 1.379 . S
C1058 N1066 1.356 . S
C1059 C1058 1.363 . S
C1059 C1065 1.363 . S
C1060 C1061 1.359 1_565 S
C1060 C1065 1.379 . S
C1060 N1067 1.356 1_565 S
C1061 C1060 1.359 1_545 S
C1061 C1064 1.356 1_545 S
N1062 C1064 1.356 . S
N1062 H1074 0.984 . S
N1062 H1075 0.985 1_565 S
N1063 C1065 1.356 . S
N1063 H1068 0.984 . S
N1063 H1069 0.985 . S
C1064 C1058 1.379 . S
C1064 C1061 1.356 1_565 S
C1064 N1062 1.356 . S
C1065 C1059 1.363 . S
C1065 C1060 1.379 . S
C1065 N1063 1.356 . S
N1066 C1058 1.356 . S
N1066 H1072 0.984 . S
N1066 H1073 0.984 . S
N1067 C1060 1.356 1_545 S
N1067 H1070 0.984 . S
N1067 H1071 0.985 . S
H1068 N1063 0.984 . S
H1069 N1063 0.985 . S
H1070 N1067 0.984 . S
H1071 N1067 0.985 . S
H1072 N1066 0.984 . S
H1073 N1066 0.984 . S
H1074 N1062 0.984 . S
H1075 N1062 0.985 1_545 S
C1076 C1077 1.358 1_565 S
C1076 C1082 1.379 . S
C1076 N1084 1.356 1_565 S
C1077 C1076 1.358 1_545 S
C1077 C1083 1.357 1_545 S
C1078 C1079 1.363 . S
C1078 C1083 1.379 . S
C1078 N1085 1.356 . S
C1079 C1078 1.363 . S
C1079 C1082 1.363 . S
N1080 C1082 1.356 . S
N1080 H1092 0.984 . S
N1080 H1093 0.985 . S
N1081 C1083 1.356 1_545 S
N1081 H1086 0.984 . S
N1081 H1087 0.985 1_545 S
C1082 C1076 1.379 . S
C1082 C1079 1.363 . S
C1082 N1080 1.356 . S
C1083 C1077 1.357 1_565 S
C1083 C1078 1.379 . S
C1083 N1081 1.356 1_565 S
N1084 C1076 1.356 1_545 S
N1084 H1090 0.984 . S
N1084 H1091 0.984 . S
N1085 C1078 1.356 . S
N1085 H1088 0.984 . S
N1085 H1089 0.985 . S
H1086 N1081 0.984 . S
H1087 N1081 0.985 1_565 S
H1088 N1085 0.984 . S
H1089 N1085 0.985 . S
H1090 N1084 0.984 . S
H1091 N1084 0.984 . S
H1092 N1080 0.984 . S
H1093 N1080 0.985 . S
C1094 C1095 1.358 1_545 S
C1094 C1100 1.379 . S
C1094 N1102 1.356 1_545 S
C1095 C1094 1.358 1_565 S
C1095 C1101 1.357 1_565 S
C1096 C1097 1.363 . S
C1096 C1101 1.379 . S
C1096 N1103 1.356 . S
C1097 C1096 1.363 . S
C1097 C1100 1.363 . S
N1098 C1100 1.356 . S
N1098 H1110 0.984 . S
N1098 H1111 0.985 . S
N1099 C1101 1.356 1_565 S
N1099 H1104 0.984 . S
N1099 H1105 0.985 1_565 S
C1100 C1094 1.379 . S
C1100 C1097 1.363 . S
C1100 N1098 1.356 . S
C1101 C1095 1.357 1_545 S
C1101 C1096 1.379 . S
C1101 N1099 1.356 1_545 S
N1102 C1094 1.356 1_565 S
N1102 H1108 0.984 . S
N1102 H1109 0.984 . S
N1103 C1096 1.356 . S
N1103 H1106 0.984 . S
N1103 H1107 0.985 . S
H1104 N1099 0.984 . S
H1105 N1099 0.985 1_545 S
H1106 N1103 0.984 . S
H1107 N1103 0.985 . S
H1108 N1102 0.984 . S
H1109 N1102 0.984 . S
H1110 N1098 0.984 . S
H1111 N1098 0.985 . S
C1112 C1113 1.363 . S
C1112 C1118 1.379 . S
C1112 N1120 1.356 . S
C1113 C1112 1.363 . S
C1113 C1119 1.363 . S
C1114 C1115 1.357 1_565 S
C1114 C1119 1.379 . S
C1114 N1121 1.356 1_565 S
C1115 C1114 1.357 1_545 S
C1115 C1118 1.358 1_545 S
N1116 C1118 1.356 1_545 S
N1116 H1128 0.984 . S
N1116 H1129 0.985 . S
N1117 C1119 1.356 . S
N1117 H1122 0.984 . S
N1117 H1123 0.985 . S
C1118 C1112 1.379 . S
C1118 C1115 1.358 1_565 S
C1118 N1116 1.356 1_565 S
C1119 C1113 1.363 . S
C1119 C1114 1.379 . S
C1119 N1117 1.356 . S
N1120 C1112 1.356 . S
N1120 H1126 0.984 . S
N1120 H1127 0.984 . S
N1121 C1114 1.356 1_545 S
N1121 H1124 0.984 . S
N1121 H1125 0.985 1_545 S
H1122 N1117 0.984 . S
H1123 N1117 0.985 . S
H1124 N1121 0.984 . S
H1125 N1121 0.985 1_565 S
H1126 N1120 0.984 . S
H1127 N1120 0.984 . S
H1128 N1116 0.984 . S
H1129 N1116 0.985 . S
C1130 C1131 1.363 . S
C1130 C1136 1.379 . S
C1130 N1138 1.356 . S
C1131 C1130 1.363 . S
C1131 C1137 1.363 . S
C1132 C1133 1.358 1_545 S
C1132 C1137 1.379 . S
C1132 N1139 1.356 1_545 S
C1133 C1132 1.358 1_565 S
C1133 C1136 1.357 1_565 S
N1134 C1136 1.356 1_565 S
N1134 H1146 0.984 . S
N1134 H1147 0.985 . S
N1135 C1137 1.356 . S
N1135 H1140 0.984 . S
N1135 H1141 0.985 . S
C1136 C1130 1.379 . S
C1136 C1133 1.357 1_545 S
C1136 N1134 1.356 1_545 S
C1137 C1131 1.363 . S
C1137 C1132 1.379 . S
C1137 N1135 1.356 . S
N1138 C1130 1.356 . S
N1138 H1144 0.984 . S
N1138 H1145 0.984 . S
N1139 C1132 1.356 1_565 S
N1139 H1142 0.984 . S
N1139 H1143 0.985 . S
H1140 N1135 0.984 . S
H1141 N1135 0.985 . S
H1142 N1139 0.984 . S
H1143 N1139 0.985 . S
H1144 N1138 0.984 . S
H1145 N1138 0.984 . S
H1146 N1134 0.984 . S
H1147 N1134 0.985 . S
C1148 C1149 1.359 1_545 S
C1148 C1154 1.379 . S
C1148 N1156 1.356 1_545 S
C1149 C1148 1.359 1_565 S
C1149 C1155 1.355 1_565 S
C1150 C1151 1.363 . S
C1150 C1155 1.379 . S
C1150 N1157 1.356 . S
C1151 C1150 1.363 . S
C1151 C1154 1.363 . S
N1152 C1154 1.356 . S
N1152 H1164 0.984 . S
N1152 H1165 0.985 . S
N1153 C1155 1.356 . S
N1153 H1158 0.984 1_545 S
N1153 H1159 0.985 . S
C1154 C1148 1.379 . S
C1154 C1151 1.363 . S
C1154 N1152 1.356 . S
C1155 C1149 1.355 1_545 S
C1155 C1150 1.379 . S
C1155 N1153 1.356 . S
N1156 C1148 1.356 1_565 S
N1156 H1162 0.984 . S
N1156 H1163 0.984 . S
N1157 C1150 1.356 . S
N1157 H1160 0.984 . S
N1157 H1161 0.985 . S
H1158 N1153 0.984 1_565 S
H1159 N1153 0.985 . S
H1160 N1157 0.984 . S
H1161 N1157 0.985 . S
H1162 N1156 0.984 . S
H1163 N1156 0.984 . S
H1164 N1152 0.984 . S
H1165 N1152 0.985 . S
C1166 C1167 1.363 . S
C1166 C1172 1.379 . S
C1166 N1174 1.356 . S
C1167 C1166 1.363 . S
C1167 C1173 1.363 . S
C1168 C1169 1.358 1_565 S
C1168 C1173 1.379 . S
C1168 N1175 1.356 1_565 S
C1169 C1168 1.358 1_545 S
C1169 C1172 1.357 1_545 S
N1170 C1172 1.356 1_545 S
N1170 H1182 0.984 1_545 S
N1170 H1183 0.985 . S
N1171 C1173 1.356 . S
N1171 H1176 0.984 . S
N1171 H1177 0.985 . S
C1172 C1166 1.379 . S
C1172 C1169 1.357 1_565 S
C1172 N1170 1.356 1_565 S
C1173 C1167 1.363 . S
C1173 C1168 1.379 . S
C1173 N1171 1.356 . S
N1174 C1166 1.356 . S
N1174 H1180 0.984 . S
N1174 H1181 0.984 . S
N1175 C1168 1.356 1_545 S
N1175 H1178 0.984 . S
N1175 H1179 0.985 . S
H1176 N1171 0.984 . S
H1177 N1171 0.985 . S
H1178 N1175 0.984 . S
H1179 N1175 0.985 . S
H1180 N1174 0.984 . S
H1181 N1174 0.984 . S
H1182 N1170 0.984 1_565 S
H1183 N1170 0.985 . S
C321 C19 1.508 . S
C323 C199 1.508 . S
C339 C39 1.508 . S
C341 C179 1.508 . S
C357 C239 1.508 . S
C359 C59 1.508 . S
C375 C79 1.508 . S
C377 C219 1.508 . S
C393 C278 1.508 . S
C395 C98 1.508 . S
C411 C258 1.508 . S
C413 C118 1.508 . S
C429 C318 1.508 . S
C431 C138 1.508 . S
C447 C158 1.508 . S
C449 C298 1.508 . S
C465 C49 1.611 . S
C467 C9 1.611 . S
C483 C69 1.611 . S
C485 C29 1.611 . S
C501 C128 1.611 . S
C503 C88 1.611 . S
C519 C108 1.611 . S
C521 C148 1.611 . S
C537 C209 1.611 . S
C539 C169 1.611 . S
C555 C229 1.611 . S
C557 C189 1.611 . S
C573 C248 1.611 . S
C575 C288 1.611 . S
C591 C268 1.611 . S
C593 C308 1.611 . S
C609 C109 1.483 . S
C611 C8 1.483 . S
C627 C89 1.483 . S
C629 C28 1.483 . S
C645 C48 1.483 . S
C647 C149 1.483 . S
C663 C129 1.483 . S
C665 C68 1.483 . S
C681 C168 1.483 . S
C683 C269 1.483 . S
C699 C249 1.483 . S
C701 C188 1.483 . S
C717 C208 1.483 . S
C719 C309 1.483 . S
C735 C289 1.483 . S
C737 C228 1.483 . S
C753 C38 1.591 1_545 S
C755 C18 1.591 1_565 S
C771 C78 1.591 1_565 S
C773 C58 1.591 1_545 S
C789 C119 1.591 1_565 S
C791 C99 1.591 1_545 S
C807 C139 1.591 1_565 S
C809 C159 1.591 1_545 S
C825 C198 1.591 . S
C827 C178 1.591 . S
C843 C238 1.591 . S
C845 C218 1.591 . S
C861 C259 1.591 . S
C863 C279 1.591 . S
C879 C299 1.591 . S
C881 C319 1.591 . S
C897 C2 1.574 . S
C899 C1 1.574 . S
C915 C22 1.574 . S
C917 C21 1.574 . S
C933 C42 1.574 . S
C935 C41 1.574 . S
C951 C61 1.574 . S
C953 C62 1.574 . S
C969 C81 1.574 . S
C971 C82 1.574 . S
C987 C102 1.574 . S
C989 C101 1.574 . S
C1005 C121 1.574 . S
C1007 C122 1.574 . S
C1023 C141 1.574 . S
C1025 C142 1.574 . S
C1041 C161 1.584 . S
C1043 C162 1.574 . S
C1059 C182 1.574 . S
C1061 C181 1.584 . S
C1077 C201 1.584 . S
C1079 C202 1.574 . S
C1095 C221 1.584 . S
C1097 C222 1.574 . S
C1113 C241 1.574 . S
C1115 C242 1.584 . S
C1131 C261 1.574 . S
C1133 C262 1.584 . S
C1149 C282 1.584 . S
C1151 C281 1.574 . S
C1167 C301 1.574 . S
C1169 C302 1.584 . S
