# Generated by pormake.
# Topology umy, (4)-cn, num edge types: 1
# Building blocks:
#     Node 0, Type 0, BuildingBlock: AZAVOO_clean_sbu_0, # of connection points: 4
#     Node 1, Type 0, BuildingBlock: AZAVOO_clean_sbu_0, # of connection points: 4
#     Node 2, Type 0, BuildingBlock: AZAVOO_clean_sbu_0, # of connection points: 4
#     Node 3, Type 0, BuildingBlock: AZAVOO_clean_sbu_0, # of connection points: 4
#     Node 4, Type 0, BuildingBlock: AZAVOO_clean_sbu_0, # of connection points: 4
#     Node 5, Type 0, BuildingBlock: AZAVOO_clean_sbu_0, # of connection points: 4
#     Node 6, Type 0, BuildingBlock: AZAVOO_clean_sbu_0, # of connection points: 4
#     Node 7, Type 0, BuildingBlock: AZAVOO_clean_sbu_0, # of connection points: 4
#     Node 8, Type 0, BuildingBlock: AZAVOO_clean_sbu_0, # of connection points: 4
#     Node 9, Type 0, BuildingBlock: AZAVOO_clean_sbu_0, # of connection points: 4
#     Node 10, Type 0, BuildingBlock: AZAVOO_clean_sbu_0, # of connection points: 4
#     Node 11, Type 0, BuildingBlock: AZAVOO_clean_sbu_0, # of connection points: 4
#     Edge 12, Type (0, 0), BuildingBlock: KIFKEQ_clean_linker_1, # of connection points: 2
#     Edge 13, Type (0, 0), BuildingBlock: KIFKEQ_clean_linker_1, # of connection points: 2
#     Edge 14, Type (0, 0), BuildingBlock: KIFKEQ_clean_linker_1, # of connection points: 2
#     Edge 15, Type (0, 0), BuildingBlock: KIFKEQ_clean_linker_1, # of connection points: 2
#     Edge 16, Type (0, 0), BuildingBlock: KIFKEQ_clean_linker_1, # of connection points: 2
#     Edge 17, Type (0, 0), BuildingBlock: KIFKEQ_clean_linker_1, # of connection points: 2
#     Edge 18, Type (0, 0), BuildingBlock: KIFKEQ_clean_linker_1, # of connection points: 2
#     Edge 19, Type (0, 0), BuildingBlock: KIFKEQ_clean_linker_1, # of connection points: 2
#     Edge 20, Type (0, 0), BuildingBlock: KIFKEQ_clean_linker_1, # of connection points: 2
#     Edge 21, Type (0, 0), BuildingBlock: KIFKEQ_clean_linker_1, # of connection points: 2
#     Edge 22, Type (0, 0), BuildingBlock: KIFKEQ_clean_linker_1, # of connection points: 2
#     Edge 23, Type (0, 0), BuildingBlock: KIFKEQ_clean_linker_1, # of connection points: 2
#     Edge 24, Type (0, 0), BuildingBlock: KIFKEQ_clean_linker_1, # of connection points: 2
#     Edge 25, Type (0, 0), BuildingBlock: KIFKEQ_clean_linker_1, # of connection points: 2
#     Edge 26, Type (0, 0), BuildingBlock: KIFKEQ_clean_linker_1, # of connection points: 2
#     Edge 27, Type (0, 0), BuildingBlock: KIFKEQ_clean_linker_1, # of connection points: 2
#     Edge 28, Type (0, 0), BuildingBlock: KIFKEQ_clean_linker_1, # of connection points: 2
#     Edge 29, Type (0, 0), BuildingBlock: KIFKEQ_clean_linker_1, # of connection points: 2
#     Edge 30, Type (0, 0), BuildingBlock: KIFKEQ_clean_linker_1, # of connection points: 2
#     Edge 31, Type (0, 0), BuildingBlock: KIFKEQ_clean_linker_1, # of connection points: 2
#     Edge 32, Type (0, 0), BuildingBlock: KIFKEQ_clean_linker_1, # of connection points: 2
#     Edge 33, Type (0, 0), BuildingBlock: KIFKEQ_clean_linker_1, # of connection points: 2
#     Edge 34, Type (0, 0), BuildingBlock: KIFKEQ_clean_linker_1, # of connection points: 2
#     Edge 35, Type (0, 0), BuildingBlock: KIFKEQ_clean_linker_1, # of connection points: 2
# Relax obj value: 0.136
# Max RMSD: 0.150
# Mean RMSD: 0.150
data_MOF--net-umy--node1-AZAVOO_clean_sbu_0--edge1-KIFKEQ_clean_linker_1
_symmetry_space_group_name_H-M    P1
_symmetry_Int_Tables_number       1
_symmetry_cell_setting            triclinic
loop_
_symmetry_equiv_pos_as_xyz
'x, y, z'
_cell_length_a     41.327732
_cell_length_b     41.436418
_cell_length_c     46.033088
_cell_angle_alpha  89.870061
_cell_angle_beta   90.061125
_cell_angle_gamma 120.01031
loop_
_atom_site_label
_atom_site_type_symbol
_atom_site_fract_x
_atom_site_fract_y
_atom_site_fract_z
_atom_type_partial_charge
Mg0 Mg 0.1112 0.36695 0.08841 0.0
O1 O 0.14087 0.37557 0.13171 0.0
O2 O 0.20258 0.41012 0.12652 0.0
Mg3 Mg 0.21249 0.42355 0.07766 0.0
C4 C 0.17367 0.39187 0.14241 0.0
C5 C 0.04868 0.31471 0.12892 0.0
O6 O 0.07079 0.3005 0.12744 0.0
O7 O 0.12222 0.42662 0.09035 0.0
O8 O 0.18358 0.45856 0.08099 0.0
O9 O 0.11689 0.31716 0.0785 0.0
O10 O 0.15852 0.37461 0.06591 0.0
C11 C 0.15248 0.45731 0.08576 0.0
C12 C 0.14866 0.33987 0.06659 0.0
O13 O 0.05689 0.34385 0.11423 0.0
Mg14 Mg 0.75023 0.13039 0.26756 0.0
O15 O 0.76793 0.15803 0.31192 0.0
O16 O 0.79101 0.21934 0.30828 0.0
Mg17 Mg 0.78602 0.23061 0.26006 0.0
C18 C 0.78218 0.19022 0.3234 0.0
C19 C 0.74365 0.06488 0.30349 0.0
O20 O 0.77997 0.08711 0.3017 0.0
O21 O 0.69775 0.13507 0.26962 0.0
O22 O 0.72182 0.19659 0.2641 0.0
O23 O 0.80813 0.14226 0.25854 0.0
O24 O 0.78728 0.18022 0.24645 0.0
C25 C 0.69392 0.16371 0.26746 0.0
C26 C 0.81452 0.17357 0.24732 0.0
O27 O 0.72216 0.07437 0.29109 0.0
Mg28 Mg 0.62126 0.75324 0.42543 0.0
O29 O 0.61149 0.77278 0.46888 0.0
O30 O 0.57309 0.79562 0.46376 0.0
Mg31 Mg 0.56121 0.79372 0.41469 0.0
C32 C 0.59302 0.78696 0.47956 0.0
C33 C 0.66499 0.71094 0.43875 0.0
O34 O 0.66828 0.71227 0.41033 0.0
O35 O 0.56222 0.70266 0.42663 0.0
O36 O 0.52827 0.72977 0.41686 0.0
O37 O 0.67001 0.80966 0.41724 0.0
O38 O 0.6123 0.79215 0.40346 0.0
C39 C 0.53087 0.70072 0.42154 0.0
C40 C 0.64675 0.81801 0.4053 0.0
O41 O 0.646 0.72364 0.45071 0.0
Mg42 Mg 0.87348 0.6277 0.58092 0.0
O43 O 0.84111 0.61844 0.62315 0.0
O44 O 0.78092 0.57682 0.61597 0.0
Mg45 Mg 0.7742 0.56211 0.56742 0.0
C46 C 0.80784 0.59851 0.63257 0.0
C47 C 0.93659 0.68761 0.6189 0.0
O48 O 0.91532 0.70243 0.61468 0.0
O49 O 0.86859 0.57048 0.58633 0.0
O50 O 0.80832 0.53323 0.57517 0.0
O51 O 0.86184 0.6731 0.56743 0.0
O52 O 0.8259 0.61374 0.55648 0.0
C53 C 0.84043 0.53806 0.58201 0.0
C54 C 0.83175 0.64721 0.55531 0.0
O55 O 0.9273 0.6563 0.60739 0.0
Mg56 Mg 0.24377 0.87501 0.74834 0.0
O57 O 0.22473 0.84611 0.79204 0.0
O58 O 0.19919 0.78462 0.78757 0.0
Mg59 Mg 0.20298 0.77434 0.73885 0.0
C60 C 0.20934 0.8136 0.80312 0.0
C61 C 0.25791 0.94953 0.77382 0.0
O62 O 0.22837 0.93975 0.75749 0.0
O63 O 0.29447 0.86692 0.7504 0.0
O64 O 0.26714 0.80553 0.74255 0.0
O65 O 0.18672 0.86624 0.73971 0.0
O66 O 0.20492 0.82668 0.72643 0.0
C67 C 0.2963 0.83729 0.74682 0.0
C68 C 0.17878 0.83488 0.72783 0.0
O69 O 0.2733 0.92956 0.77355 0.0
Mg70 Mg 0.35346 0.23072 0.92869 0.0
O71 O 0.35988 0.21104 0.97354 0.0
O72 O 0.39689 0.18633 0.9711 0.0
Mg73 Mg 0.4151 0.19092 0.92354 0.0
C74 C 0.37659 0.1957 0.98558 0.0
C75 C 0.29087 0.242 0.95462 0.0
O76 O 0.27179 0.20813 0.94405 0.0
O77 O 0.41186 0.28148 0.93243 0.0
O78 O 0.44711 0.25469 0.92778 0.0
O79 O 0.30648 0.17387 0.91737 0.0
O80 O 0.36573 0.19309 0.90827 0.0
C81 C 0.44371 0.28351 0.93092 0.0
C82 C 0.33145 0.16688 0.9071 0.0
O83 O 0.32611 0.26021 0.95108 0.0
Mg84 Mg 0.62666 0.86377 0.75414 0.0
O85 O 0.61609 0.83681 0.70945 0.0
O86 O 0.57484 0.77606 0.71318 0.0
Mg87 Mg 0.56182 0.76373 0.76185 0.0
C88 C 0.59597 0.80486 0.69799 0.0
C89 C 0.64465 0.92987 0.70983 0.0
O90 O 0.61149 0.90677 0.69913 0.0
O91 O 0.56921 0.85929 0.75265 0.0
O92 O 0.53221 0.79814 0.76042 0.0
O93 O 0.67306 0.85237 0.76164 0.0
O94 O 0.61446 0.81373 0.77426 0.0
C95 C 0.53688 0.83079 0.75664 0.0
C96 C 0.64845 0.82064 0.77254 0.0
O97 O 0.65619 0.92048 0.73212 0.0
Mg98 Mg 0.74832 0.60764 0.90843 0.0
O99 O 0.76714 0.60164 0.86317 0.0
O100 O 0.78602 0.55979 0.86409 0.0
Mg101 Mg 0.78244 0.54143 0.91164 0.0
C102 C 0.77948 0.58273 0.85038 0.0
C103 C 0.74207 0.66818 0.87464 0.0
O104 O 0.77835 0.6816 0.8757 0.0
O105 O 0.69549 0.551 0.90442 0.0
O106 O 0.71841 0.51239 0.90886 0.0
O107 O 0.80606 0.65245 0.91974 0.0
O108 O 0.78456 0.59261 0.92785 0.0
C109 C 0.69096 0.51821 0.90605 0.0
C110 C 0.8119 0.62635 0.92919 0.0
O111 O 0.72058 0.63727 0.88705 0.0
Mg112 Mg 0.12038 0.75585 0.07514 0.0
O113 O 0.15079 0.77608 0.03215 0.0
O114 O 0.21219 0.80069 0.03758 0.0
Mg115 Mg 0.221 0.79677 0.08659 0.0
C116 C 0.18359 0.79118 0.02157 0.0
C117 C 0.03781 0.6961 0.05297 0.0
O118 O 0.03543 0.67685 0.07638 0.0
O119 O 0.12908 0.70576 0.07345 0.0
O120 O 0.19018 0.73282 0.08333 0.0
O121 O 0.12763 0.81185 0.08475 0.0
O122 O 0.16784 0.79425 0.09805 0.0
C123 C 0.15851 0.70383 0.07835 0.0
C124 C 0.15889 0.81986 0.09719 0.0
O125 O 0.06731 0.72699 0.04823 0.0
Mg126 Mg 0.35422 0.11305 0.25901 0.0
O127 O 0.36252 0.14227 0.21542 0.0
O128 O 0.39772 0.20391 0.21891 0.0
Mg129 Mg 0.41498 0.21421 0.26691 0.0
C130 C 0.37832 0.17454 0.20392 0.0
C131 C 0.30204 0.05365 0.21604 0.0
O132 O 0.29279 0.07963 0.21394 0.0
O133 O 0.41287 0.12112 0.25521 0.0
O134 O 0.44745 0.18302 0.26065 0.0
O135 O 0.3065 0.12158 0.27007 0.0
O136 O 0.36531 0.16173 0.28082 0.0
C137 C 0.44451 0.15111 0.25674 0.0
C138 C 0.33081 0.15328 0.28112 0.0
O139 O 0.32718 0.05793 0.23416 0.0
Mg140 Mg 0.23325 0.36735 0.41656 0.0
O141 O 0.21479 0.37653 0.37218 0.0
O142 O 0.18966 0.41298 0.3762 0.0
Mg143 Mg 0.19261 0.42759 0.42471 0.0
C144 C 0.19965 0.39382 0.36086 0.0
C145 C 0.24978 0.30649 0.3967 0.0
O146 O 0.22179 0.28854 0.4148 0.0
O147 O 0.28409 0.42594 0.4146 0.0
O148 O 0.25684 0.46023 0.42204 0.0
O149 O 0.17613 0.31936 0.42532 0.0
O150 O 0.19437 0.37737 0.43777 0.0
C151 C 0.286 0.45744 0.41821 0.0
C152 C 0.1683 0.34303 0.43693 0.0
O153 O 0.26324 0.34134 0.39324 0.0
Mg154 Mg 0.87109 0.23841 0.59636 0.0
O155 O 0.84195 0.22251 0.55245 0.0
O156 O 0.78104 0.20197 0.55743 0.0
Mg157 Mg 0.77115 0.20488 0.60624 0.0
C158 C 0.80947 0.21002 0.54163 0.0
C159 C 0.93512 0.24504 0.558 0.0
O160 O 0.91329 0.20877 0.56006 0.0
O161 O 0.86782 0.29176 0.59569 0.0
O162 O 0.80689 0.26862 0.60441 0.0
O163 O 0.85782 0.17961 0.60437 0.0
O164 O 0.82115 0.20148 0.61746 0.0
C165 C 0.8398 0.29617 0.60036 0.0
C166 C 0.82665 0.17363 0.6157 0.0
O167 O 0.92628 0.26621 0.57157 0.0
H168 H 0.21239 0.68861 0.09601 0.0
H169 H 0.09917 0.63547 0.06331 0.0
H170 H 0.20908 0.62867 0.09858 0.0
H171 H 0.09631 0.5751 0.06511 0.0
H172 H 0.0949 0.46947 0.10041 0.0
H173 H 0.09496 0.52851 0.09866 0.0
H174 H 0.20819 0.58357 0.06606 0.0
H175 H 0.20859 0.52542 0.06858 0.0
C176 C 0.18684 0.66417 0.08909 0.0
C177 C 0.15612 0.66696 0.07926 0.0
C178 C 0.18501 0.62972 0.09047 0.0
C179 C 0.15256 0.59709 0.0818 0.0
C180 C 0.12162 0.59969 0.07218 0.0
C181 C 0.12336 0.6343 0.07096 0.0
C182 C 0.1198 0.49424 0.09297 0.0
C183 C 0.15184 0.49273 0.0849 0.0
C184 C 0.11975 0.528 0.09178 0.0
C185 C 0.15167 0.56081 0.08241 0.0
C186 C 0.18339 0.55903 0.07398 0.0
C187 C 0.18354 0.52553 0.07533 0.0
H188 H 0.62745 0.10086 0.25475 0.0
H189 H 0.67481 0.21602 0.2803 0.0
H190 H 0.56601 0.09547 0.25038 0.0
H191 H 0.61356 0.21032 0.27719 0.0
H192 H 0.51263 0.20564 0.23871 0.0
H193 H 0.57158 0.20619 0.24094 0.0
H194 H 0.51462 0.09402 0.27547 0.0
H195 H 0.45507 0.09301 0.27193 0.0
C196 C 0.62461 0.12483 0.25987 0.0
C197 C 0.65602 0.15898 0.26756 0.0
C198 C 0.58939 0.12173 0.25743 0.0
C199 C 0.58486 0.15263 0.26295 0.0
C200 C 0.61612 0.18625 0.27187 0.0
C201 C 0.65126 0.18947 0.2739 0.0
C202 C 0.51264 0.18095 0.24652 0.0
C203 C 0.47932 0.1494 0.25537 0.0
C204 C 0.5465 0.18136 0.24807 0.0
C205 C 0.54807 0.15046 0.25902 0.0
C206 C 0.51447 0.11827 0.26684 0.0
C207 C 0.48035 0.11767 0.26485 0.0
H208 H 0.46269 0.68579 0.4018 0.0
H209 H 0.52038 0.63224 0.43827 0.0
H210 H 0.40523 0.62639 0.40018 0.0
H211 H 0.46196 0.57234 0.43738 0.0
H212 H 0.35496 0.46635 0.40473 0.0
H213 H 0.41526 0.52434 0.4051 0.0
H214 H 0.36058 0.58412 0.43427 0.0
H215 H 0.3008 0.52705 0.43316 0.0
C216 C 0.46311 0.66135 0.4097 0.0
C217 C 0.49617 0.66392 0.42045 0.0
C218 C 0.43 0.62722 0.40886 0.0
C219 C 0.42883 0.59465 0.419 0.0
C220 C 0.46199 0.59691 0.42925 0.0
C221 C 0.49539 0.63123 0.42993 0.0
C222 C 0.35589 0.49194 0.41116 0.0
C223 C 0.32294 0.49205 0.41863 0.0
C224 C 0.39046 0.52509 0.41154 0.0
C225 C 0.3927 0.55893 0.41946 0.0
C226 C 0.35981 0.55875 0.42742 0.0
C227 C 0.32544 0.52587 0.4269 0.0
H228 H 0.78679 0.46618 0.57235 0.0
H229 H 0.90233 0.53358 0.59857 0.0
H230 H 0.79087 0.41043 0.57847 0.0
H231 H 0.90611 0.47671 0.6051 0.0
H232 H 0.89847 0.36136 0.57895 0.0
H233 H 0.90226 0.42229 0.57585 0.0
H234 H 0.7966 0.37717 0.62065 0.0
H235 H 0.7924 0.31676 0.62327 0.0
C236 C 0.81314 0.46921 0.57953 0.0
C237 C 0.84417 0.50449 0.58522 0.0
C238 C 0.81536 0.43708 0.58318 0.0
C239 C 0.84862 0.43918 0.5927 0.0
C240 C 0.88011 0.47436 0.59775 0.0
C241 C 0.87788 0.50682 0.59412 0.0
C242 C 0.8763 0.36467 0.58836 0.0
C243 C 0.84478 0.33407 0.60083 0.0
C244 C 0.87856 0.39953 0.5867 0.0
C245 C 0.8494 0.40422 0.59756 0.0
C246 C 0.81907 0.37414 0.61146 0.0
C247 C 0.8167 0.3395 0.61297 0.0
H248 H 0.53056 0.89093 0.73875 0.0
H249 H 0.46697 0.77992 0.77475 0.0
H250 H 0.47339 0.89487 0.73622 0.0
H251 H 0.4107 0.78423 0.77284 0.0
H252 H 0.31126 0.78241 0.73239 0.0
H253 H 0.37044 0.78374 0.73481 0.0
H254 H 0.42433 0.89725 0.76579 0.0
H255 H 0.36468 0.8963 0.76274 0.0
C256 C 0.50455 0.86756 0.74636 0.0
C257 C 0.50327 0.83493 0.7566 0.0
C258 C 0.47187 0.86989 0.74502 0.0
C259 C 0.43742 0.83965 0.75394 0.0
C260 C 0.43658 0.80767 0.7651 0.0
C261 C 0.46897 0.80527 0.76631 0.0
C262 C 0.33562 0.80776 0.73974 0.0
C263 C 0.33306 0.83915 0.74765 0.0
C264 C 0.3696 0.80844 0.74124 0.0
C265 C 0.40201 0.84041 0.7509 0.0
C266 C 0.39985 0.87223 0.75816 0.0
C267 C 0.36567 0.87162 0.75654 0.0
H268 H 0.45194 0.35077 0.91424 0.0
H269 H 0.51335 0.2991 0.94659 0.0
H270 H 0.51071 0.40912 0.90679 0.0
H271 H 0.57161 0.35734 0.94024 0.0
H272 H 0.66985 0.44639 0.89312 0.0
H273 H 0.60881 0.3915 0.89984 0.0
H274 H 0.56473 0.46104 0.92897 0.0
H275 H 0.62591 0.51638 0.92117 0.0
C276 C 0.47792 0.35214 0.92034 0.0
C277 C 0.47815 0.3203 0.93065 0.0
C278 C 0.51157 0.38553 0.91606 0.0
C279 C 0.54593 0.38767 0.92231 0.0
C280 C 0.54577 0.35635 0.93428 0.0
C281 C 0.51234 0.32302 0.93819 0.0
C282 C 0.64707 0.45003 0.90069 0.0
C283 C 0.65276 0.48566 0.90686 0.0
C284 C 0.61211 0.41853 0.90481 0.0
C285 C 0.58205 0.42177 0.91562 0.0
C286 C 0.58727 0.45755 0.9206 0.0
C287 C 0.6223 0.48925 0.91613 0.0
H288 H 0.21329 0.38033 0.03594 0.0
H289 H 0.13738 0.26899 0.06698 0.0
H290 H 0.24893 0.35729 0.01001 0.0
H291 H 0.17354 0.24602 0.04148 0.0
H292 H 0.2159 0.2117 0.96249 0.0
H293 H 0.18362 0.23584 0.99146 0.0
H294 H 0.2896 0.33111 0.01518 0.0
H295 H 0.32203 0.30728 0.98551 0.0
C296 C 0.20457 0.35103 0.03766 0.0
C297 C 0.17242 0.32645 0.05345 0.0
C298 C 0.2251 0.33784 0.02283 0.0
C299 C 0.21395 0.29977 0.02348 0.0
C300 C 0.1825 0.27541 0.0401 0.0
C301 C 0.16192 0.2886 0.05489 0.0
C302 C 0.23239 0.23784 0.97382 0.0
C303 C 0.27155 0.25759 0.97166 0.0
C304 C 0.21385 0.25153 0.99066 0.0
C305 C 0.23402 0.28525 0.00586 0.0
C306 C 0.27322 0.30518 0.00356 0.0
C307 C 0.29181 0.29151 0.98661 0.0
H308 H 0.83072 0.23028 0.20938 0.0
H309 H 0.8809 0.17576 0.2559 0.0
H310 H 0.88849 0.26706 0.18239 0.0
H311 H 0.93939 0.21385 0.23007 0.0
H312 H 0.01605 0.24518 0.15207 0.0
H313 H 0.96152 0.21503 0.18313 0.0
H314 H 0.95196 0.31429 0.18091 0.0
H315 H 0.00601 0.34397 0.1485 0.0
C316 C 0.85444 0.22681 0.21433 0.0
C317 C 0.85119 0.19981 0.23447 0.0
C318 C 0.88769 0.24805 0.19893 0.0
C319 C 0.91856 0.24309 0.20365 0.0
C320 C 0.91589 0.21768 0.2252 0.0
C321 C 0.88247 0.19604 0.24023 0.0
C322 C 0.00236 0.26063 0.1582 0.0
C323 C 0.01527 0.29692 0.14777 0.0
C324 C 0.97122 0.24345 0.17631 0.0
C325 C 0.95241 0.26228 0.1849 0.0
C326 C 0.96546 0.29876 0.17454 0.0
C327 C -0.00353 0.31583 0.15602 0.0
H328 H 0.60841 0.83938 0.36937 0.0
H329 H 0.71347 0.88157 0.41463 0.0
H330 H 0.63111 0.89965 0.34609 0.0
H331 H 0.73573 0.94251 0.3924 0.0
H332 H 0.78087 0.0294 0.32046 0.0
H333 H 0.75648 0.97102 0.34683 0.0
H334 H 0.64804 0.96274 0.35117 0.0
H335 H 0.67227 0.02057 0.32349 0.0
C336 C 0.63614 0.86179 0.37477 0.0
C337 C 0.65927 0.85569 0.39367 0.0
C338 C 0.64913 0.89648 0.36152 0.0
C339 C 0.68542 0.92602 0.36714 0.0
C340 C 0.70796 0.92021 0.387 0.0
C341 C 0.69513 0.88536 0.39995 0.0
C342 C 0.75181 0.01513 0.32706 0.0
C343 C 0.72845 0.0295 0.31981 0.0
C344 C 0.73786 0.98175 0.34244 0.0
C345 C 0.70028 0.96212 0.35136 0.0
C346 C 0.67697 0.97676 0.34432 0.0
C347 C 0.69086 0.00998 0.32855 0.0
H348 H 0.6773 0.72006 0.49725 0.0
H349 H 0.70145 0.6745 0.42135 0.0
H350 H 0.71623 0.70381 0.52671 0.0
H351 H 0.74024 0.65812 0.45098 0.0
H352 H 0.77441 0.60085 0.52003 0.0
H353 H 0.73213 0.61461 0.49285 0.0
H354 H 0.78611 0.72551 0.52904 0.0
H355 H 0.82875 0.71182 0.55636 0.0
C356 C 0.69062 0.70627 0.48689 0.0
C357 C 0.68632 0.69857 0.45693 0.0
C358 C 0.71311 0.69724 0.50375 0.0
C359 C 0.73132 0.67986 0.4911 0.0
C360 C 0.72631 0.67132 0.46132 0.0
C361 C 0.7042 0.68078 0.44435 0.0
C362 C 0.77711 0.62808 0.52246 0.0
C363 C 0.8049 0.65527 0.54038 0.0
C364 C 0.75304 0.636 0.5067 0.0
C365 C 0.75595 0.67113 0.50876 0.0
C366 C 0.78314 0.69809 0.52721 0.0
C367 C 0.80758 0.69032 0.54275 0.0
H368 H 0.97904 0.65982 0.64146 0.0
H369 H 0.97136 0.75991 0.63679 0.0
H370 H 0.03531 0.69257 0.67103 0.0
H371 H 0.02831 0.79308 0.66517 0.0
H372 H 0.11487 0.83808 0.73538 0.0
H373 H 0.05472 0.80004 0.71166 0.0
H374 H 0.09894 0.73843 0.66741 0.0
H375 H 0.15837 0.77537 0.69213 0.0
C376 C 0.98952 0.68889 0.6466 0.0
C377 C 0.9708 0.7073 0.63675 0.0
C378 C 0.02188 0.70774 0.66346 0.0
C379 C 0.0365 0.74556 0.67057 0.0
C380 C 0.01758 0.76382 0.6607 0.0
C381 C 0.98503 0.74486 0.64417 0.0
C382 C 0.11153 0.81608 0.72086 0.0
C383 C 0.14136 0.80979 0.71555 0.0
C384 C 0.07713 0.79444 0.70705 0.0
C385 C 0.07196 0.76634 0.68731 0.0
C386 C 0.1016 0.75943 0.68271 0.0
C387 C 0.13582 0.78076 0.6968 0.0
H388 H 0.31451 0.97437 0.81391 0.0
H389 H 0.22885 -0.00471 0.78058 0.0
H390 H 0.33184 0.0238 0.84976 0.0
H391 H 0.24645 0.04472 0.81601 0.0
H392 H 0.26138 0.10728 0.89893 0.0
H393 H 0.24398 0.05271 0.86865 0.0
H394 H 0.36055 0.09212 0.85114 0.0
H395 H 0.37797 0.1463 0.88157 0.0
C396 C 0.29958 0.98966 0.81408 0.0
C397 C 0.27033 0.98093 0.79437 0.0
C398 C 0.30949 0.01793 0.83462 0.0
C399 C 0.29024 0.03787 0.83591 0.0
C400 C 0.2613 0.02934 0.81599 0.0
C401 C 0.25148 0.00124 0.79546 0.0
C402 C 0.2833 0.10396 0.88903 0.0
C403 C 0.32103 0.13123 0.89254 0.0
C404 C 0.27334 0.07286 0.87152 0.0
C405 C 0.30089 0.06839 0.85721 0.0
C406 C 0.33868 0.09465 0.86199 0.0
C407 C 0.34864 0.12577 0.87942 0.0
H408 H 0.77978 0.7402 0.85624 0.0
H409 H 0.67004 0.64207 0.85654 0.0
H410 H 0.75549 0.77413 0.82961 0.0
H411 H 0.64583 0.67557 0.82863 0.0
H412 H 0.60891 0.76173 0.80896 0.0
H413 H 0.63042 0.72315 0.83249 0.0
H414 H 0.73372 0.78009 0.78395 0.0
H415 H 0.7128 0.81977 0.76156 0.0
C416 C 0.75047 0.72576 0.85036 0.0
C417 C 0.72681 0.6885 0.85856 0.0
C418 C 0.73656 0.74513 0.83481 0.0
C419 C 0.69869 0.72758 0.82666 0.0
C420 C 0.67502 0.69016 0.8348 0.0
C421 C 0.68889 0.67089 0.85073 0.0
C422 C 0.63604 0.76567 0.80311 0.0
C423 C 0.65934 0.79399 0.78366 0.0
C424 C 0.64835 0.74344 0.81652 0.0
C425 C 0.68407 0.74875 0.81046 0.0
C426 C 0.70649 0.77585 0.78978 0.0
C427 C 0.69439 0.79841 0.77672 0.0
H428 H 0.83121 0.57751 0.95242 0.0
H429 H 0.87338 0.69489 0.9375 0.0
H430 H 0.8874 0.59231 0.97984 0.0
H431 H 0.92904 0.70972 0.96559 0.0
H432 H 0.03779 0.72515 0.99979 0.0
H433 H 0.9854 0.70636 0.96682 0.0
H434 H 0.9136 0.61928 0.02666 0.0
H435 H 0.96641 0.63753 0.05943 0.0
C436 C 0.85264 0.60646 0.95469 0.0
C437 C 0.8478 0.63504 0.94279 0.0
C438 C 0.8847 0.61494 0.97067 0.0
C439 C 0.9126 0.65219 0.97514 0.0
C440 C 0.90832 0.6807 0.96232 0.0
C441 C 0.87631 0.67221 0.94629 0.0
C442 C 0.01087 0.70184 0.00589 0.0
C443 C 0.00618 0.68302 0.03239 0.0
C444 C 0.9808 0.69118 0.987 0.0
C445 C 0.94522 0.66152 0.99416 0.0
C446 C 0.94073 0.64201 0.02031 0.0
C447 C 0.97093 0.65259 0.0392 0.0
H448 H 0.2994 0.98665 0.22269 0.0
H449 H 0.26343 0.04615 0.16631 0.0
H450 H 0.26636 0.93143 0.1922 0.0
H451 H 0.23184 0.99176 0.13517 0.0
H452 H 0.14248 0.87514 0.10652 0.0
H453 H 0.17847 0.93208 0.13433 0.0
H454 H 0.26564 0.90462 0.14683 0.0
H455 H 0.22877 0.84688 0.12028 0.0
C456 C 0.28478 0.98802 0.2036 0.0
C457 C 0.28369 0.02056 0.19705 0.0
C458 C 0.26603 0.95647 0.18597 0.0
C459 C 0.24622 0.95698 0.16119 0.0
C460 C 0.24605 0.98998 0.15436 0.0
C461 C 0.26434 0.02127 0.17217 0.0
C462 C 0.1695 0.88145 0.11496 0.0
C463 C 0.18272 0.85644 0.11114 0.0
C464 C 0.19028 0.91424 0.13084 0.0
C465 C 0.22501 0.92301 0.14301 0.0
C466 C 0.23873 0.8985 0.13831 0.0
C467 C 0.21773 0.86551 0.12274 0.0
H468 H 0.26017 0.1423 0.28674 0.0
H469 H 0.37572 0.22099 0.30639 0.0
H470 H 0.24109 0.18104 0.3132 0.0
H471 H 0.35658 0.25952 0.33281 0.0
H472 H 0.30744 0.3343 0.35742 0.0
H473 H 0.32699 0.29893 0.32679 0.0
H474 H 0.2415 0.19639 0.36536 0.0
H475 H 0.22183 0.23143 0.39573 0.0
C476 C 0.28152 0.16804 0.29639 0.0
C477 C 0.31945 0.17853 0.29446 0.0
C478 C 0.27057 0.19009 0.31168 0.0
C479 C 0.29734 0.22317 0.32524 0.0
C480 C 0.33535 0.23435 0.32239 0.0
C481 C 0.34628 0.2122 0.30726 0.0
C482 C 0.29293 0.30422 0.35941 0.0
C483 C 0.2631 0.28568 0.37902 0.0
C484 C 0.30414 0.28401 0.3419 0.0
C485 C 0.28555 0.24489 0.34352 0.0
C486 C 0.25594 0.22646 0.36326 0.0
C487 C 0.24491 0.24661 0.38085 0.0
H488 H 0.10419 0.27584 0.43112 0.0
H489 H 0.14978 0.38241 0.47396 0.0
H490 H 0.0461 0.25334 0.45809 0.0
H491 H 0.09261 0.35952 0.50199 0.0
H492 H 0.97515 0.31585 0.53613 0.0
H493 H 0.02874 0.34042 0.50343 0.0
H494 H 0.02463 0.23406 0.50557 0.0
H495 H 0.9702 0.20925 0.53701 0.0
C496 C 0.1017 0.29451 0.4462 0.0
C497 C 0.13158 0.3308 0.45052 0.0
C498 C 0.06853 0.28153 0.46191 0.0
C499 C 0.06473 0.30436 0.48264 0.0
C500 C 0.09422 0.34119 0.48606 0.0
C501 C 0.12715 0.35433 0.47004 0.0
C502 C 0.98579 0.2978 0.52957 0.0
C503 C 0.96852 0.26065 0.53915 0.0
C504 C 0.01658 0.31189 0.51087 0.0
C505 C 0.03107 0.28924 0.50166 0.0
C506 C 0.01382 0.25214 0.51155 0.0
C507 C 0.98278 0.23796 0.52987 0.0
H508 H 0.83184 0.1104 0.6184 0.0
H509 H 0.75734 0.15246 0.63763 0.0
H510 H 0.78656 0.05013 0.63935 0.0
H511 H 0.71211 0.09225 0.65785 0.0
H512 H 0.62725 0.96575 0.66786 0.0
H513 H 0.67033 0.02349 0.64231 0.0
H514 H 0.76252 0.03056 0.69167 0.0
H515 H 0.71979 0.97341 0.71734 0.0
C516 C 0.80568 0.1067 0.62668 0.0
C517 C 0.79819 0.13625 0.62619 0.0
C518 C 0.77985 0.07227 0.63873 0.0
C519 C 0.74587 0.06662 0.65015 0.0
C520 C 0.7379 0.09575 0.64888 0.0
C521 C 0.7639 0.13028 0.63725 0.0
C522 C 0.65669 0.9797 0.67326 0.0
C523 C 0.67008 0.96514 0.69471 0.0
C524 C 0.68128 0.01268 0.65867 0.0
C525 C 0.71973 0.03124 0.66491 0.0
C526 C 0.73308 0.01653 0.68618 0.0
C527 C 0.70852 0.98399 0.70106 0.0
H528 H 0.15869 0.41635 0.32841 0.0
H529 H 0.23058 0.36881 0.32068 0.0
H530 H 0.1527 0.41544 0.27553 0.0
H531 H 0.22457 0.36806 0.26798 0.0
H532 H 0.2379 0.41498 0.17416 0.0
H533 H 0.2439 0.41512 0.22704 0.0
H534 H 0.12455 0.36705 0.23583 0.0
H535 H 0.11835 0.36673 0.18323 0.0
C536 C 0.17314 0.40567 0.3155 0.0
C537 C 0.19505 0.39261 0.32884 0.0
C538 C 0.16961 0.40503 0.28523 0.0
C539 C 0.18825 0.39176 0.26765 0.0
C540 C 0.21018 0.37878 0.28095 0.0
C541 C 0.21337 0.37899 0.31118 0.0
C542 C 0.21294 0.40433 0.18735 0.0
C543 C 0.17769 0.39087 0.17439 0.0
C544 C 0.21637 0.4043 0.21762 0.0
C545 C 0.18469 0.39125 0.23554 0.0
C546 C 0.14949 0.37768 0.22259 0.0
C547 C 0.14599 0.37729 0.1924 0.0
H548 H 0.86478 0.24001 0.50082 0.0
H549 H 0.74488 0.17215 0.50994 0.0
H550 H 0.85829 0.23559 0.44812 0.0
H551 H 0.7386 0.1676 0.45704 0.0
H552 H 0.75155 0.13399 0.36338 0.0
H553 H 0.75786 0.13877 0.41608 0.0
H554 H 0.82984 0.25788 0.40878 0.0
H555 H 0.82341 0.25333 0.35588 0.0
C556 C 0.83702 0.22401 0.49162 0.0
C557 C 0.8053 0.20637 0.50963 0.0
C558 C 0.83336 0.22174 0.46142 0.0
C559 C 0.79797 0.20135 0.44853 0.0
C560 C 0.76625 0.18335 0.46645 0.0
C561 C 0.76984 0.18606 0.49671 0.0
C562 C 0.76883 0.16125 0.37293 0.0
C563 C 0.78703 0.19332 0.35537 0.0
C564 C 0.7722 0.16394 0.40314 0.0
C565 C 0.79424 0.19867 0.41647 0.0
C566 C 0.81282 0.23072 0.399 0.0
C567 C 0.80903 0.22812 0.36875 0.0
H568 H 0.64998 0.85195 0.66028 0.0
H569 H 0.54198 0.75149 0.66325 0.0
H570 H 0.64921 0.84882 0.60728 0.0
H571 H 0.54109 0.7489 0.61007 0.0
H572 H 0.54014 0.78873 0.51434 0.0
H573 H 0.54067 0.79274 0.56753 0.0
H574 H 0.64889 0.80087 0.56964 0.0
H575 H 0.64822 0.79621 0.51676 0.0
C576 C 0.62611 0.82917 0.64963 0.0
C577 C 0.5961 0.80185 0.66596 0.0
C578 C 0.62573 0.82742 0.61933 0.0
C579 C 0.59502 0.79874 0.60469 0.0
C580 C 0.56494 0.77146 0.62091 0.0
C581 C 0.56563 0.77278 0.65129 0.0
C582 C 0.56413 0.79166 0.52618 0.0
C583 C 0.59412 0.79215 0.5114 0.0
C584 C 0.56429 0.79366 0.55655 0.0
C585 C 0.59478 0.797 0.57257 0.0
C586 C 0.62513 0.79844 0.55776 0.0
C587 C 0.62466 0.79568 0.52752 0.0
H588 H 0.85011 0.65251 0.67205 0.0
H589 H 0.75131 0.54382 0.66469 0.0
H590 H 0.84291 0.64953 0.72488 0.0
H591 H 0.74461 0.54075 0.71758 0.0
H592 H 0.78168 0.53317 0.81241 0.0
H593 H 0.78668 0.53802 0.75944 0.0
H594 H 0.79391 0.64549 0.76321 0.0
H595 H 0.78832 0.64055 0.81613 0.0
C596 C 0.82668 0.62815 0.68168 0.0
C597 C 0.80125 0.5984 0.66419 0.0
C598 C 0.82257 0.62651 0.71188 0.0
C599 C 0.79339 0.5948 0.72523 0.0
C600 C 0.76754 0.56536 0.70778 0.0
C601 C 0.77122 0.56729 0.67753 0.0
C602 C 0.78453 0.55792 0.80197 0.0
C603 C 0.78465 0.58649 0.81847 0.0
C604 C 0.78708 0.56053 0.77167 0.0
C605 C 0.79049 0.59204 0.75732 0.0
C606 C 0.79138 0.62095 0.77379 0.0
C607 C 0.78812 0.61805 0.80404 0.0
H608 H 0.24078 0.8693 0.84331 0.0
H609 H 0.16835 0.7501 0.83555 0.0
H610 H 0.23511 0.86405 0.89598 0.0
H611 H 0.16271 0.74504 0.88849 0.0
H612 H 0.12846 0.7609 0.9807 0.0
H613 H 0.13482 0.76598 0.9281 0.0
H614 H 0.25429 0.83603 0.93693 0.0
H615 H 0.24812 0.83097 0.98986 0.0
C616 C 0.22353 0.84195 0.8528 0.0
C617 C 0.20491 0.81007 0.83514 0.0
C618 C 0.22056 0.83898 0.88301 0.0
C619 C 0.19858 0.80416 0.89632 0.0
C620 C 0.17968 0.77229 0.87877 0.0
C621 C 0.183 0.77517 0.84848 0.0
C622 C 0.15616 0.77755 0.97154 0.0
C623 C 0.18783 0.79562 0.98957 0.0
C624 C 0.15975 0.78017 0.94135 0.0
C625 C 0.19502 0.80125 0.92843 0.0
C626 C 0.2267 0.81973 0.94635 0.0
C627 C 0.22318 0.81675 0.97663 0.0
H628 H 0.40025 0.23748 0.17094 0.0
H629 H 0.34974 0.11773 0.16451 0.0
H630 H 0.39778 0.24153 0.11804 0.0
H631 H 0.34748 0.12201 0.11189 0.0
H632 H 0.39731 0.15405 0.01877 0.0
H633 H 0.39587 0.14868 0.07166 0.0
H634 H 0.34908 0.2211 0.07771 0.0
H635 H 0.3503 0.22647 0.02488 0.0
C636 C 0.38849 0.21206 0.15833 0.0
C637 C 0.37531 0.17734 0.17202 0.0
C638 C 0.38694 0.21437 0.12807 0.0
C639 C 0.3726 0.18208 0.11089 0.0
C640 C 0.35905 0.14738 0.12457 0.0
C641 C 0.36018 0.14499 0.15477 0.0
C642 C 0.38652 0.16866 0.03134 0.0
C643 C 0.37393 0.19067 0.01755 0.0
C644 C 0.38557 0.16547 0.06161 0.0
C645 C 0.37247 0.18458 0.07876 0.0
C646 C 0.35964 0.20636 0.06502 0.0
C647 C 0.36012 0.20918 0.03475 0.0
loop_
_geom_bond_atom_site_label_1
_geom_bond_atom_site_label_2
_geom_bond_distance
_geom_bond_site_symmetry_2
_ccdc_geom_bond_type
Mg0 O1 2.028 . S
Mg0 O7 1.986 . S
Mg0 O9 2.114 . S
Mg0 O10 2.251 . S
Mg0 O13 2.010 . S
O1 Mg0 2.028 . S
O1 C4 1.250 . S
O2 Mg3 2.028 . S
O2 C4 1.248 . S
Mg3 O2 2.028 . S
Mg3 O8 2.032 . S
Mg3 O10 2.079 . S
C4 O1 1.250 . S
C4 O2 1.248 . S
C5 O6 1.264 . S
C5 O13 1.249 1_655 S
O6 C5 1.264 . S
O7 Mg0 1.986 . S
O7 C11 1.246 . S
O8 Mg3 2.032 . S
O8 C11 1.259 . S
O9 Mg0 2.114 . S
O9 C12 1.252 . S
O10 Mg0 2.251 . S
O10 Mg3 2.079 . S
O10 C12 1.273 . S
C11 O7 1.246 . S
C11 O8 1.259 . S
C12 O9 1.252 . S
C12 O10 1.273 . S
O13 Mg0 2.010 . S
O13 C5 1.249 1_455 S
Mg14 O15 2.028 . S
Mg14 O21 1.986 . S
Mg14 O23 2.114 . S
Mg14 O24 2.251 . S
Mg14 O27 2.010 . S
O15 Mg14 2.028 . S
O15 C18 1.250 . S
O16 Mg17 2.028 . S
O16 C18 1.248 . S
Mg17 O16 2.028 . S
Mg17 O22 2.032 . S
Mg17 O24 2.079 . S
C18 O15 1.250 . S
C18 O16 1.248 . S
C19 O20 1.264 . S
C19 O27 1.249 1_565 S
O20 C19 1.264 . S
O21 Mg14 1.986 . S
O21 C25 1.246 . S
O22 Mg17 2.032 . S
O22 C25 1.259 . S
O23 Mg14 2.114 . S
O23 C26 1.252 . S
O24 Mg14 2.251 . S
O24 Mg17 2.079 . S
O24 C26 1.273 . S
C25 O21 1.246 . S
C25 O22 1.259 . S
C26 O23 1.252 . S
C26 O24 1.273 . S
O27 Mg14 2.010 . S
O27 C19 1.249 1_545 S
Mg28 O29 2.028 . S
Mg28 O35 1.986 . S
Mg28 O37 2.114 . S
Mg28 O38 2.251 . S
Mg28 O41 2.010 . S
O29 Mg28 2.028 . S
O29 C32 1.250 . S
O30 Mg31 2.028 . S
O30 C32 1.248 . S
Mg31 O30 2.028 . S
Mg31 O36 2.032 . S
Mg31 O38 2.079 . S
C32 O29 1.250 . S
C32 O30 1.248 . S
C33 O34 1.264 . S
C33 O41 1.249 . S
O34 C33 1.264 . S
O35 Mg28 1.986 . S
O35 C39 1.246 . S
O36 Mg31 2.032 . S
O36 C39 1.259 . S
O37 Mg28 2.114 . S
O37 C40 1.252 . S
O38 Mg28 2.251 . S
O38 Mg31 2.079 . S
O38 C40 1.273 . S
C39 O35 1.246 . S
C39 O36 1.259 . S
C40 O37 1.252 . S
C40 O38 1.273 . S
O41 Mg28 2.010 . S
O41 C33 1.249 . S
Mg42 O43 2.028 . S
Mg42 O49 1.986 . S
Mg42 O51 2.114 . S
Mg42 O52 2.251 . S
Mg42 O55 2.010 . S
O43 Mg42 2.028 . S
O43 C46 1.250 . S
O44 Mg45 2.028 . S
O44 C46 1.248 . S
Mg45 O44 2.028 . S
Mg45 O50 2.032 . S
Mg45 O52 2.079 . S
C46 O43 1.250 . S
C46 O44 1.248 . S
C47 O48 1.264 . S
C47 O55 1.249 1_455 S
O48 C47 1.264 . S
O49 Mg42 1.986 . S
O49 C53 1.246 . S
O50 Mg45 2.032 . S
O50 C53 1.259 . S
O51 Mg42 2.114 . S
O51 C54 1.252 . S
O52 Mg42 2.251 . S
O52 Mg45 2.079 . S
O52 C54 1.273 . S
C53 O49 1.246 . S
C53 O50 1.259 . S
C54 O51 1.252 . S
C54 O52 1.273 . S
O55 Mg42 2.010 . S
O55 C47 1.249 1_655 S
Mg56 O57 2.028 . S
Mg56 O63 1.986 . S
Mg56 O65 2.114 . S
Mg56 O66 2.251 . S
Mg56 O69 2.010 . S
O57 Mg56 2.028 . S
O57 C60 1.250 . S
O58 Mg59 2.028 . S
O58 C60 1.248 . S
Mg59 O58 2.028 . S
Mg59 O64 2.032 . S
Mg59 O66 2.079 . S
C60 O57 1.250 . S
C60 O58 1.248 . S
C61 O62 1.264 . S
C61 O69 1.249 1_545 S
O62 C61 1.264 . S
O63 Mg56 1.986 . S
O63 C67 1.246 . S
O64 Mg59 2.032 . S
O64 C67 1.259 . S
O65 Mg56 2.114 . S
O65 C68 1.252 . S
O66 Mg56 2.251 . S
O66 Mg59 2.079 . S
O66 C68 1.273 . S
C67 O63 1.246 . S
C67 O64 1.259 . S
C68 O65 1.252 . S
C68 O66 1.273 . S
O69 Mg56 2.010 . S
O69 C61 1.249 1_565 S
Mg70 O71 2.028 . S
Mg70 O77 1.986 . S
Mg70 O79 2.114 . S
Mg70 O80 2.251 . S
Mg70 O83 2.010 . S
O71 Mg70 2.028 . S
O71 C74 1.250 . S
O72 Mg73 2.028 . S
O72 C74 1.248 . S
Mg73 O72 2.028 . S
Mg73 O78 2.032 . S
Mg73 O80 2.079 . S
C74 O71 1.250 . S
C74 O72 1.248 . S
C75 O76 1.264 . S
C75 O83 1.249 . S
O76 C75 1.264 . S
O77 Mg70 1.986 . S
O77 C81 1.246 . S
O78 Mg73 2.032 . S
O78 C81 1.259 . S
O79 Mg70 2.114 . S
O79 C82 1.252 . S
O80 Mg70 2.251 . S
O80 Mg73 2.079 . S
O80 C82 1.273 . S
C81 O77 1.246 . S
C81 O78 1.259 . S
C82 O79 1.252 . S
C82 O80 1.273 . S
O83 Mg70 2.010 . S
O83 C75 1.249 . S
Mg84 O85 2.028 . S
Mg84 O91 1.986 . S
Mg84 O93 2.114 . S
Mg84 O94 2.251 . S
Mg84 O97 2.010 . S
O85 Mg84 2.028 . S
O85 C88 1.250 . S
O86 Mg87 2.028 . S
O86 C88 1.248 . S
Mg87 O86 2.028 . S
Mg87 O92 2.032 . S
Mg87 O94 2.079 . S
C88 O85 1.250 . S
C88 O86 1.248 . S
C89 O90 1.264 . S
C89 O97 1.249 1_545 S
O90 C89 1.264 . S
O91 Mg84 1.986 . S
O91 C95 1.246 . S
O92 Mg87 2.032 . S
O92 C95 1.259 . S
O93 Mg84 2.114 . S
O93 C96 1.252 . S
O94 Mg84 2.251 . S
O94 Mg87 2.079 . S
O94 C96 1.273 . S
C95 O91 1.246 . S
C95 O92 1.259 . S
C96 O93 1.252 . S
C96 O94 1.273 . S
O97 Mg84 2.010 . S
O97 C89 1.249 1_565 S
Mg98 O99 2.028 . S
Mg98 O105 1.986 . S
Mg98 O107 2.114 . S
Mg98 O108 2.251 . S
Mg98 O111 2.010 . S
O99 Mg98 2.028 . S
O99 C102 1.250 . S
O100 Mg101 2.028 . S
O100 C102 1.248 . S
Mg101 O100 2.028 . S
Mg101 O106 2.032 . S
Mg101 O108 2.079 . S
C102 O99 1.250 . S
C102 O100 1.248 . S
C103 O104 1.264 . S
C103 O111 1.249 . S
O104 C103 1.264 . S
O105 Mg98 1.986 . S
O105 C109 1.246 . S
O106 Mg101 2.032 . S
O106 C109 1.259 . S
O107 Mg98 2.114 . S
O107 C110 1.252 . S
O108 Mg98 2.251 . S
O108 Mg101 2.079 . S
O108 C110 1.273 . S
C109 O105 1.246 . S
C109 O106 1.259 . S
C110 O107 1.252 . S
C110 O108 1.273 . S
O111 Mg98 2.010 . S
O111 C103 1.249 . S
Mg112 O113 2.028 . S
Mg112 O119 1.986 . S
Mg112 O121 2.114 . S
Mg112 O122 2.251 . S
Mg112 O125 2.010 . S
O113 Mg112 2.028 . S
O113 C116 1.250 . S
O114 Mg115 2.028 . S
O114 C116 1.248 . S
Mg115 O114 2.028 . S
Mg115 O120 2.032 . S
Mg115 O122 2.079 . S
C116 O113 1.250 . S
C116 O114 1.248 . S
C117 O118 1.264 . S
C117 O125 1.249 1_655 S
O118 C117 1.264 . S
O119 Mg112 1.986 . S
O119 C123 1.246 . S
O120 Mg115 2.032 . S
O120 C123 1.259 . S
O121 Mg112 2.114 . S
O121 C124 1.252 . S
O122 Mg112 2.251 . S
O122 Mg115 2.079 . S
O122 C124 1.273 . S
C123 O119 1.246 . S
C123 O120 1.259 . S
C124 O121 1.252 . S
C124 O122 1.273 . S
O125 Mg112 2.010 . S
O125 C117 1.249 1_455 S
Mg126 O127 2.028 . S
Mg126 O133 1.986 . S
Mg126 O135 2.114 . S
Mg126 O136 2.251 . S
Mg126 O139 2.010 . S
O127 Mg126 2.028 . S
O127 C130 1.250 . S
O128 Mg129 2.028 . S
O128 C130 1.248 . S
Mg129 O128 2.028 . S
Mg129 O134 2.032 . S
Mg129 O136 2.079 . S
C130 O127 1.250 . S
C130 O128 1.248 . S
C131 O132 1.264 . S
C131 O139 1.249 1_565 S
O132 C131 1.264 . S
O133 Mg126 1.986 . S
O133 C137 1.246 . S
O134 Mg129 2.032 . S
O134 C137 1.259 . S
O135 Mg126 2.114 . S
O135 C138 1.252 . S
O136 Mg126 2.251 . S
O136 Mg129 2.079 . S
O136 C138 1.273 . S
C137 O133 1.246 . S
C137 O134 1.259 . S
C138 O135 1.252 . S
C138 O136 1.273 . S
O139 Mg126 2.010 . S
O139 C131 1.249 1_545 S
Mg140 O141 2.028 . S
Mg140 O147 1.986 . S
Mg140 O149 2.114 . S
Mg140 O150 2.251 . S
Mg140 O153 2.010 . S
O141 Mg140 2.028 . S
O141 C144 1.250 . S
O142 Mg143 2.028 . S
O142 C144 1.248 . S
Mg143 O142 2.028 . S
Mg143 O148 2.032 . S
Mg143 O150 2.079 . S
C144 O141 1.250 . S
C144 O142 1.248 . S
C145 O146 1.264 . S
C145 O153 1.249 . S
O146 C145 1.264 . S
O147 Mg140 1.986 . S
O147 C151 1.246 . S
O148 Mg143 2.032 . S
O148 C151 1.259 . S
O149 Mg140 2.114 . S
O149 C152 1.252 . S
O150 Mg140 2.251 . S
O150 Mg143 2.079 . S
O150 C152 1.273 . S
C151 O147 1.246 . S
C151 O148 1.259 . S
C152 O149 1.252 . S
C152 O150 1.273 . S
O153 Mg140 2.010 . S
O153 C145 1.249 . S
Mg154 O155 2.028 . S
Mg154 O161 1.986 . S
Mg154 O163 2.114 . S
Mg154 O164 2.251 . S
Mg154 O167 2.010 . S
O155 Mg154 2.028 . S
O155 C158 1.250 . S
O156 Mg157 2.028 . S
O156 C158 1.248 . S
Mg157 O156 2.028 . S
Mg157 O162 2.032 . S
Mg157 O164 2.079 . S
C158 O155 1.250 . S
C158 O156 1.248 . S
C159 O160 1.264 . S
C159 O167 1.249 1_455 S
O160 C159 1.264 . S
O161 Mg154 1.986 . S
O161 C165 1.246 . S
O162 Mg157 2.032 . S
O162 C165 1.259 . S
O163 Mg154 2.114 . S
O163 C166 1.252 . S
O164 Mg154 2.251 . S
O164 Mg157 2.079 . S
O164 C166 1.273 . S
C165 O161 1.246 . S
C165 O162 1.259 . S
C166 O163 1.252 . S
C166 O164 1.273 . S
O167 Mg154 2.010 . S
O167 C159 1.249 1_655 S
H168 C176 0.950 . S
H169 C181 0.950 . S
H170 C178 0.950 . S
H171 C180 0.950 . S
H172 C182 0.950 . S
H173 C184 0.950 . S
H174 C186 0.950 . S
H175 C187 0.950 . S
C176 H168 0.950 . S
C176 C177 1.386 . S
C176 C178 1.391 . S
C177 C176 1.386 . S
C177 C181 1.393 . S
C178 H170 0.950 . S
C178 C176 1.391 . S
C178 C179 1.400 . S
C179 C178 1.400 . S
C179 C180 1.398 . S
C179 C185 1.491 . S
C180 H171 0.950 . S
C180 C179 1.398 . S
C180 C181 1.391 . S
C181 H169 0.950 . S
C181 C177 1.393 . S
C181 C180 1.391 . S
C182 H172 0.950 . S
C182 C183 1.386 . S
C182 C184 1.391 . S
C183 C182 1.386 . S
C183 C187 1.393 . S
C184 H173 0.950 . S
C184 C182 1.391 . S
C184 C185 1.400 . S
C185 C179 1.491 . S
C185 C184 1.400 . S
C185 C186 1.398 . S
C186 H174 0.950 . S
C186 C185 1.398 . S
C186 C187 1.391 . S
C187 H175 0.950 . S
C187 C183 1.393 . S
C187 C186 1.391 . S
H188 C196 0.950 . S
H189 C201 0.950 . S
H190 C198 0.950 . S
H191 C200 0.950 . S
H192 C202 0.950 . S
H193 C204 0.950 . S
H194 C206 0.950 . S
H195 C207 0.950 . S
C196 H188 0.950 . S
C196 C197 1.386 . S
C196 C198 1.391 . S
C197 C196 1.386 . S
C197 C201 1.393 . S
C198 H190 0.950 . S
C198 C196 1.391 . S
C198 C199 1.400 . S
C199 C198 1.400 . S
C199 C200 1.398 . S
C199 C205 1.491 . S
C200 H191 0.950 . S
C200 C199 1.398 . S
C200 C201 1.391 . S
C201 H189 0.950 . S
C201 C197 1.393 . S
C201 C200 1.391 . S
C202 H192 0.950 . S
C202 C203 1.386 . S
C202 C204 1.391 . S
C203 C202 1.386 . S
C203 C207 1.393 . S
C204 H193 0.950 . S
C204 C202 1.391 . S
C204 C205 1.400 . S
C205 C199 1.491 . S
C205 C204 1.400 . S
C205 C206 1.398 . S
C206 H194 0.950 . S
C206 C205 1.398 . S
C206 C207 1.391 . S
C207 H195 0.950 . S
C207 C203 1.393 . S
C207 C206 1.391 . S
H208 C216 0.950 . S
H209 C221 0.950 . S
H210 C218 0.950 . S
H211 C220 0.950 . S
H212 C222 0.950 . S
H213 C224 0.950 . S
H214 C226 0.950 . S
H215 C227 0.950 . S
C216 H208 0.950 . S
C216 C217 1.386 . S
C216 C218 1.391 . S
C217 C216 1.386 . S
C217 C221 1.393 . S
C218 H210 0.950 . S
C218 C216 1.391 . S
C218 C219 1.400 . S
C219 C218 1.400 . S
C219 C220 1.398 . S
C219 C225 1.491 . S
C220 H211 0.950 . S
C220 C219 1.398 . S
C220 C221 1.391 . S
C221 H209 0.950 . S
C221 C217 1.393 . S
C221 C220 1.391 . S
C222 H212 0.950 . S
C222 C223 1.386 . S
C222 C224 1.391 . S
C223 C222 1.386 . S
C223 C227 1.393 . S
C224 H213 0.950 . S
C224 C222 1.391 . S
C224 C225 1.400 . S
C225 C219 1.491 . S
C225 C224 1.400 . S
C225 C226 1.398 . S
C226 H214 0.950 . S
C226 C225 1.398 . S
C226 C227 1.391 . S
C227 H215 0.950 . S
C227 C223 1.393 . S
C227 C226 1.391 . S
H228 C236 0.950 . S
H229 C241 0.950 . S
H230 C238 0.950 . S
H231 C240 0.950 . S
H232 C242 0.950 . S
H233 C244 0.950 . S
H234 C246 0.950 . S
H235 C247 0.950 . S
C236 H228 0.950 . S
C236 C237 1.386 . S
C236 C238 1.391 . S
C237 C236 1.386 . S
C237 C241 1.393 . S
C238 H230 0.950 . S
C238 C236 1.391 . S
C238 C239 1.400 . S
C239 C238 1.400 . S
C239 C240 1.398 . S
C239 C245 1.491 . S
C240 H231 0.950 . S
C240 C239 1.398 . S
C240 C241 1.391 . S
C241 H229 0.950 . S
C241 C237 1.393 . S
C241 C240 1.391 . S
C242 H232 0.950 . S
C242 C243 1.386 . S
C242 C244 1.391 . S
C243 C242 1.386 . S
C243 C247 1.393 . S
C244 H233 0.950 . S
C244 C242 1.391 . S
C244 C245 1.400 . S
C245 C239 1.491 . S
C245 C244 1.400 . S
C245 C246 1.398 . S
C246 H234 0.950 . S
C246 C245 1.398 . S
C246 C247 1.391 . S
C247 H235 0.950 . S
C247 C243 1.393 . S
C247 C246 1.391 . S
H248 C256 0.950 . S
H249 C261 0.950 . S
H250 C258 0.950 . S
H251 C260 0.950 . S
H252 C262 0.950 . S
H253 C264 0.950 . S
H254 C266 0.950 . S
H255 C267 0.950 . S
C256 H248 0.950 . S
C256 C257 1.386 . S
C256 C258 1.391 . S
C257 C256 1.386 . S
C257 C261 1.393 . S
C258 H250 0.950 . S
C258 C256 1.391 . S
C258 C259 1.400 . S
C259 C258 1.400 . S
C259 C260 1.398 . S
C259 C265 1.491 . S
C260 H251 0.950 . S
C260 C259 1.398 . S
C260 C261 1.391 . S
C261 H249 0.950 . S
C261 C257 1.393 . S
C261 C260 1.391 . S
C262 H252 0.950 . S
C262 C263 1.386 . S
C262 C264 1.391 . S
C263 C262 1.386 . S
C263 C267 1.393 . S
C264 H253 0.950 . S
C264 C262 1.391 . S
C264 C265 1.400 . S
C265 C259 1.491 . S
C265 C264 1.400 . S
C265 C266 1.398 . S
C266 H254 0.950 . S
C266 C265 1.398 . S
C266 C267 1.391 . S
C267 H255 0.950 . S
C267 C263 1.393 . S
C267 C266 1.391 . S
H268 C276 0.950 . S
H269 C281 0.950 . S
H270 C278 0.950 . S
H271 C280 0.950 . S
H272 C282 0.950 . S
H273 C284 0.950 . S
H274 C286 0.950 . S
H275 C287 0.950 . S
C276 H268 0.950 . S
C276 C277 1.386 . S
C276 C278 1.391 . S
C277 C276 1.386 . S
C277 C281 1.393 . S
C278 H270 0.950 . S
C278 C276 1.391 . S
C278 C279 1.400 . S
C279 C278 1.400 . S
C279 C280 1.398 . S
C279 C285 1.491 . S
C280 H271 0.950 . S
C280 C279 1.398 . S
C280 C281 1.391 . S
C281 H269 0.950 . S
C281 C277 1.393 . S
C281 C280 1.391 . S
C282 H272 0.950 . S
C282 C283 1.386 . S
C282 C284 1.391 . S
C283 C282 1.386 . S
C283 C287 1.393 . S
C284 H273 0.950 . S
C284 C282 1.391 . S
C284 C285 1.400 . S
C285 C279 1.491 . S
C285 C284 1.400 . S
C285 C286 1.398 . S
C286 H274 0.950 . S
C286 C285 1.398 . S
C286 C287 1.391 . S
C287 H275 0.950 . S
C287 C283 1.393 . S
C287 C286 1.391 . S
H288 C296 0.950 . S
H289 C301 0.950 . S
H290 C298 0.950 . S
H291 C300 0.968 . S
H292 C302 0.950 . S
H293 C304 0.950 . S
H294 C306 0.950 . S
H295 C307 0.950 . S
C296 H288 0.950 . S
C296 C297 1.386 . S
C296 C298 1.391 . S
C297 C296 1.386 . S
C297 C301 1.393 . S
C298 H290 0.950 . S
C298 C296 1.391 . S
C298 C299 1.400 . S
C299 C298 1.400 . S
C299 C300 1.398 . S
C299 C305 1.491 . S
C300 H291 0.968 . S
C300 C299 1.398 . S
C300 C301 1.391 . S
C301 H289 0.950 . S
C301 C297 1.393 . S
C301 C300 1.391 . S
C302 H292 0.950 . S
C302 C303 1.386 . S
C302 C304 1.391 . S
C303 C302 1.386 . S
C303 C307 1.393 1_556 S
C304 H293 0.950 . S
C304 C302 1.391 . S
C304 C305 1.400 1_556 S
C305 C299 1.491 . S
C305 C304 1.400 1_554 S
C305 C306 1.398 . S
C306 H294 0.950 . S
C306 C305 1.398 . S
C306 C307 1.391 . S
C307 H295 0.950 . S
C307 C303 1.393 1_554 S
C307 C306 1.391 . S
H308 C316 0.950 . S
H309 C321 0.950 . S
H310 C318 0.950 . S
H311 C320 0.950 . S
H312 C322 0.950 . S
H313 C324 0.950 . S
H314 C326 0.950 . S
H315 C327 0.950 . S
C316 H308 0.950 . S
C316 C317 1.386 . S
C316 C318 1.391 . S
C317 C316 1.386 . S
C317 C321 1.393 . S
C318 H310 0.950 . S
C318 C316 1.391 . S
C318 C319 1.400 . S
C319 C318 1.400 . S
C319 C320 1.398 . S
C319 C325 1.491 . S
C320 H311 0.950 . S
C320 C319 1.398 . S
C320 C321 1.391 . S
C321 H309 0.950 . S
C321 C317 1.393 . S
C321 C320 1.391 . S
C322 H312 0.950 . S
C322 C323 1.386 . S
C322 C324 1.391 . S
C323 C322 1.386 . S
C323 C327 1.393 . S
C324 H313 0.950 . S
C324 C322 1.391 . S
C324 C325 1.400 . S
C325 C319 1.491 . S
C325 C324 1.400 . S
C325 C326 1.398 . S
C326 H314 0.950 . S
C326 C325 1.398 . S
C326 C327 1.391 . S
C327 H315 0.950 . S
C327 C323 1.393 . S
C327 C326 1.391 . S
H328 C336 0.950 . S
H329 C341 0.950 . S
H330 C338 0.950 . S
H331 C340 0.950 . S
H332 C342 0.950 . S
H333 C344 0.950 . S
H334 C346 0.950 . S
H335 C347 0.950 . S
C336 H328 0.950 . S
C336 C337 1.386 . S
C336 C338 1.391 . S
C337 C336 1.386 . S
C337 C341 1.393 . S
C338 H330 0.950 . S
C338 C336 1.391 . S
C338 C339 1.400 . S
C339 C338 1.400 . S
C339 C340 1.398 . S
C339 C345 1.491 . S
C340 H331 0.950 . S
C340 C339 1.398 . S
C340 C341 1.391 . S
C341 H329 0.950 . S
C341 C337 1.393 . S
C341 C340 1.391 . S
C342 H332 0.950 . S
C342 C343 1.386 . S
C342 C344 1.391 . S
C343 C342 1.386 . S
C343 C347 1.393 . S
C344 H333 0.950 . S
C344 C342 1.391 . S
C344 C345 1.400 . S
C345 C339 1.491 . S
C345 C344 1.400 . S
C345 C346 1.398 . S
C346 H334 0.950 . S
C346 C345 1.398 . S
C346 C347 1.391 . S
C347 H335 0.950 . S
C347 C343 1.393 . S
C347 C346 1.391 . S
H348 C356 0.950 . S
H349 C361 0.950 . S
H350 C358 0.950 . S
H351 C360 0.950 . S
H352 C362 0.950 . S
H353 C364 0.950 . S
H354 C366 0.950 . S
H355 C367 0.950 . S
C356 H348 0.950 . S
C356 C357 1.386 . S
C356 C358 1.391 . S
C357 C356 1.386 . S
C357 C361 1.393 . S
C358 H350 0.950 . S
C358 C356 1.391 . S
C358 C359 1.400 . S
C359 C358 1.400 . S
C359 C360 1.398 . S
C359 C365 1.491 . S
C360 H351 0.950 . S
C360 C359 1.398 . S
C360 C361 1.391 . S
C361 H349 0.950 . S
C361 C357 1.393 . S
C361 C360 1.391 . S
C362 H352 0.950 . S
C362 C363 1.386 . S
C362 C364 1.391 . S
C363 C362 1.386 . S
C363 C367 1.393 . S
C364 H353 0.950 . S
C364 C362 1.391 . S
C364 C365 1.400 . S
C365 C359 1.491 . S
C365 C364 1.400 . S
C365 C366 1.398 . S
C366 H354 0.950 . S
C366 C365 1.398 . S
C366 C367 1.391 . S
C367 H355 0.950 . S
C367 C363 1.393 . S
C367 C366 1.391 . S
H368 C376 0.950 . S
H369 C381 0.950 . S
H370 C378 0.950 . S
H371 C380 0.950 . S
H372 C382 0.950 . S
H373 C384 0.950 . S
H374 C386 0.950 . S
H375 C387 0.950 . S
C376 H368 0.950 . S
C376 C377 1.386 . S
C376 C378 1.391 . S
C377 C376 1.386 . S
C377 C381 1.393 . S
C378 H370 0.950 . S
C378 C376 1.391 . S
C378 C379 1.400 . S
C379 C378 1.400 . S
C379 C380 1.398 . S
C379 C385 1.491 . S
C380 H371 0.950 . S
C380 C379 1.398 . S
C380 C381 1.391 . S
C381 H369 0.950 . S
C381 C377 1.393 . S
C381 C380 1.391 . S
C382 H372 0.950 . S
C382 C383 1.386 . S
C382 C384 1.391 . S
C383 C382 1.386 . S
C383 C387 1.393 . S
C384 H373 0.950 . S
C384 C382 1.391 . S
C384 C385 1.400 . S
C385 C379 1.491 . S
C385 C384 1.400 . S
C385 C386 1.398 . S
C386 H374 0.950 . S
C386 C385 1.398 . S
C386 C387 1.391 . S
C387 H375 0.950 . S
C387 C383 1.393 . S
C387 C386 1.391 . S
H388 C396 0.950 . S
H389 C401 0.950 . S
H390 C398 0.950 . S
H391 C400 0.950 . S
H392 C402 0.950 . S
H393 C404 0.950 . S
H394 C406 0.950 . S
H395 C407 0.950 . S
C396 H388 0.950 . S
C396 C397 1.386 . S
C396 C398 1.391 . S
C397 C396 1.386 . S
C397 C401 1.393 . S
C398 H390 0.950 . S
C398 C396 1.391 . S
C398 C399 1.400 . S
C399 C398 1.400 . S
C399 C400 1.398 . S
C399 C405 1.491 . S
C400 H391 0.950 . S
C400 C399 1.398 . S
C400 C401 1.391 . S
C401 H389 0.950 . S
C401 C397 1.393 . S
C401 C400 1.391 . S
C402 H392 0.950 . S
C402 C403 1.386 . S
C402 C404 1.391 . S
C403 C402 1.386 . S
C403 C407 1.393 . S
C404 H393 0.950 . S
C404 C402 1.391 . S
C404 C405 1.400 . S
C405 C399 1.491 . S
C405 C404 1.400 . S
C405 C406 1.398 . S
C406 H394 0.950 . S
C406 C405 1.398 . S
C406 C407 1.391 . S
C407 H395 0.950 . S
C407 C403 1.393 . S
C407 C406 1.391 . S
H408 C416 0.950 . S
H409 C421 0.950 . S
H410 C418 0.950 . S
H411 C420 0.950 . S
H412 C422 0.950 . S
H413 C424 0.950 . S
H414 C426 0.950 . S
H415 C427 0.950 . S
C416 H408 0.950 . S
C416 C417 1.386 . S
C416 C418 1.391 . S
C417 C416 1.386 . S
C417 C421 1.393 . S
C418 H410 0.950 . S
C418 C416 1.391 . S
C418 C419 1.400 . S
C419 C418 1.400 . S
C419 C420 1.398 . S
C419 C425 1.491 . S
C420 H411 0.950 . S
C420 C419 1.398 . S
C420 C421 1.391 . S
C421 H409 0.950 . S
C421 C417 1.393 . S
C421 C420 1.391 . S
C422 H412 0.950 . S
C422 C423 1.386 . S
C422 C424 1.391 . S
C423 C422 1.386 . S
C423 C427 1.393 . S
C424 H413 0.950 . S
C424 C422 1.391 . S
C424 C425 1.400 . S
C425 C419 1.491 . S
C425 C424 1.400 . S
C425 C426 1.398 . S
C426 H414 0.950 . S
C426 C425 1.398 . S
C426 C427 1.391 . S
C427 H415 0.950 . S
C427 C423 1.393 . S
C427 C426 1.391 . S
H428 C436 0.950 . S
H429 C441 0.950 . S
H430 C438 0.950 . S
H431 C440 0.950 . S
H432 C442 0.950 1_455 S
H433 C444 0.950 . S
H434 C446 0.950 . S
H435 C447 0.950 . S
C436 H428 0.950 . S
C436 C437 1.386 . S
C436 C438 1.391 . S
C437 C436 1.386 . S
C437 C441 1.393 . S
C438 H430 0.950 . S
C438 C436 1.391 . S
C438 C439 1.400 . S
C439 C438 1.400 . S
C439 C440 1.398 . S
C439 C445 1.491 . S
C440 H431 0.950 . S
C440 C439 1.398 . S
C440 C441 1.391 . S
C441 H429 0.950 . S
C441 C437 1.393 . S
C441 C440 1.391 . S
C442 H432 0.950 1_655 S
C442 C443 1.386 1_556 S
C442 C444 1.391 . S
C443 C442 1.386 1_554 S
C443 C447 1.393 . S
C444 H433 0.950 . S
C444 C442 1.391 . S
C444 C445 1.400 . S
C445 C439 1.491 . S
C445 C444 1.400 . S
C445 C446 1.398 1_556 S
C446 H434 0.950 . S
C446 C445 1.398 1_554 S
C446 C447 1.391 . S
C447 H435 0.950 . S
C447 C443 1.393 . S
C447 C446 1.391 . S
H448 C456 0.950 . S
H449 C461 0.950 . S
H450 C458 0.950 . S
H451 C460 0.950 . S
H452 C462 0.950 . S
H453 C464 0.950 . S
H454 C466 0.950 . S
H455 C467 0.950 . S
C456 H448 0.950 . S
C456 C457 1.386 . S
C456 C458 1.391 . S
C457 C456 1.386 . S
C457 C461 1.393 . S
C458 H450 0.950 . S
C458 C456 1.391 . S
C458 C459 1.400 . S
C459 C458 1.400 . S
C459 C460 1.398 . S
C459 C465 1.491 . S
C460 H451 0.950 . S
C460 C459 1.398 . S
C460 C461 1.391 . S
C461 H449 0.950 . S
C461 C457 1.393 . S
C461 C460 1.391 . S
C462 H452 0.950 . S
C462 C463 1.386 . S
C462 C464 1.391 . S
C463 C462 1.386 . S
C463 C467 1.393 . S
C464 H453 0.950 . S
C464 C462 1.391 . S
C464 C465 1.400 . S
C465 C459 1.491 . S
C465 C464 1.400 . S
C465 C466 1.398 . S
C466 H454 0.950 . S
C466 C465 1.398 . S
C466 C467 1.391 . S
C467 H455 0.950 . S
C467 C463 1.393 . S
C467 C466 1.391 . S
H468 C476 0.950 . S
H469 C481 0.950 . S
H470 C478 0.950 . S
H471 C480 0.950 . S
H472 C482 0.950 . S
H473 C484 0.950 . S
H474 C486 0.950 . S
H475 C487 0.950 . S
C476 H468 0.950 . S
C476 C477 1.386 . S
C476 C478 1.391 . S
C477 C476 1.386 . S
C477 C481 1.393 . S
C478 H470 0.950 . S
C478 C476 1.391 . S
C478 C479 1.400 . S
C479 C478 1.400 . S
C479 C480 1.398 . S
C479 C485 1.491 . S
C480 H471 0.950 . S
C480 C479 1.398 . S
C480 C481 1.391 . S
C481 H469 0.950 . S
C481 C477 1.393 . S
C481 C480 1.391 . S
C482 H472 0.950 . S
C482 C483 1.386 . S
C482 C484 1.391 . S
C483 C482 1.386 . S
C483 C487 1.393 . S
C484 H473 0.950 . S
C484 C482 1.391 . S
C484 C485 1.400 . S
C485 C479 1.491 . S
C485 C484 1.400 . S
C485 C486 1.398 . S
C486 H474 0.950 . S
C486 C485 1.398 . S
C486 C487 1.391 . S
C487 H475 0.950 . S
C487 C483 1.393 . S
C487 C486 1.391 . S
H488 C496 0.950 . S
H489 C501 0.950 . S
H490 C498 0.950 . S
H491 C500 0.950 . S
H492 C502 0.950 . S
H493 C504 0.950 . S
H494 C506 0.950 . S
H495 C507 0.950 1_655 S
C496 H488 0.950 . S
C496 C497 1.386 . S
C496 C498 1.391 . S
C497 C496 1.386 . S
C497 C501 1.393 . S
C498 H490 0.950 . S
C498 C496 1.391 . S
C498 C499 1.400 . S
C499 C498 1.400 . S
C499 C500 1.398 . S
C499 C505 1.491 . S
C500 H491 0.950 . S
C500 C499 1.398 . S
C500 C501 1.391 . S
C501 H489 0.950 . S
C501 C497 1.393 . S
C501 C500 1.391 . S
C502 H492 0.950 . S
C502 C503 1.386 . S
C502 C504 1.391 . S
C503 C502 1.386 . S
C503 C507 1.393 . S
C504 H493 0.950 . S
C504 C502 1.391 . S
C504 C505 1.400 . S
C505 C499 1.491 . S
C505 C504 1.400 . S
C505 C506 1.398 . S
C506 H494 0.950 . S
C506 C505 1.398 . S
C506 C507 1.391 . S
C507 H495 0.950 1_455 S
C507 C503 1.393 . S
C507 C506 1.391 . S
H508 C516 0.950 . S
H509 C521 0.950 . S
H510 C518 0.950 . S
H511 C520 0.950 . S
H512 C522 0.950 . S
H513 C524 0.950 . S
H514 C526 0.950 . S
H515 C527 0.950 1_565 S
C516 H508 0.950 . S
C516 C517 1.386 . S
C516 C518 1.391 . S
C517 C516 1.386 . S
C517 C521 1.393 . S
C518 H510 0.950 . S
C518 C516 1.391 . S
C518 C519 1.400 . S
C519 C518 1.400 . S
C519 C520 1.398 . S
C519 C525 1.491 . S
C520 H511 0.950 . S
C520 C519 1.398 . S
C520 C521 1.391 . S
C521 H509 0.950 . S
C521 C517 1.393 . S
C521 C520 1.391 . S
C522 H512 0.950 . S
C522 C523 1.386 . S
C522 C524 1.391 . S
C523 C522 1.386 . S
C523 C527 1.393 . S
C524 H513 0.950 . S
C524 C522 1.391 . S
C524 C525 1.400 . S
C525 C519 1.491 . S
C525 C524 1.400 . S
C525 C526 1.398 . S
C526 H514 0.950 . S
C526 C525 1.398 . S
C526 C527 1.391 . S
C527 H515 0.950 1_545 S
C527 C523 1.393 . S
C527 C526 1.391 . S
H528 C536 0.950 . S
H529 C541 0.950 . S
H530 C538 0.950 . S
H531 C540 0.950 . S
H532 C542 0.950 . S
H533 C544 0.950 . S
H534 C546 0.950 . S
H535 C547 0.950 . S
C536 H528 0.950 . S
C536 C537 1.386 . S
C536 C538 1.391 . S
C537 C536 1.386 . S
C537 C541 1.393 . S
C538 H530 0.950 . S
C538 C536 1.391 . S
C538 C539 1.400 . S
C539 C538 1.400 . S
C539 C540 1.398 . S
C539 C545 1.491 . S
C540 H531 0.950 . S
C540 C539 1.398 . S
C540 C541 1.391 . S
C541 H529 0.950 . S
C541 C537 1.393 . S
C541 C540 1.391 . S
C542 H532 0.950 . S
C542 C543 1.386 . S
C542 C544 1.391 . S
C543 C542 1.386 . S
C543 C547 1.393 . S
C544 H533 0.950 . S
C544 C542 1.391 . S
C544 C545 1.400 . S
C545 C539 1.491 . S
C545 C544 1.400 . S
C545 C546 1.398 . S
C546 H534 0.950 . S
C546 C545 1.398 . S
C546 C547 1.391 . S
C547 H535 0.950 . S
C547 C543 1.393 . S
C547 C546 1.391 . S
H548 C556 0.950 . S
H549 C561 0.950 . S
H550 C558 0.950 . S
H551 C560 0.950 . S
H552 C562 0.950 . S
H553 C564 0.950 . S
H554 C566 0.950 . S
H555 C567 0.950 . S
C556 H548 0.950 . S
C556 C557 1.386 . S
C556 C558 1.391 . S
C557 C556 1.386 . S
C557 C561 1.393 . S
C558 H550 0.950 . S
C558 C556 1.391 . S
C558 C559 1.400 . S
C559 C558 1.400 . S
C559 C560 1.398 . S
C559 C565 1.491 . S
C560 H551 0.950 . S
C560 C559 1.398 . S
C560 C561 1.391 . S
C561 H549 0.950 . S
C561 C557 1.393 . S
C561 C560 1.391 . S
C562 H552 0.950 . S
C562 C563 1.386 . S
C562 C564 1.391 . S
C563 C562 1.386 . S
C563 C567 1.393 . S
C564 H553 0.950 . S
C564 C562 1.391 . S
C564 C565 1.400 . S
C565 C559 1.491 . S
C565 C564 1.400 . S
C565 C566 1.398 . S
C566 H554 0.950 . S
C566 C565 1.398 . S
C566 C567 1.391 . S
C567 H555 0.950 . S
C567 C563 1.393 . S
C567 C566 1.391 . S
H568 C576 0.950 . S
H569 C581 0.950 . S
H570 C578 0.950 . S
H571 C580 0.950 . S
H572 C582 0.950 . S
H573 C584 0.950 . S
H574 C586 0.950 . S
H575 C587 0.950 . S
C576 H568 0.950 . S
C576 C577 1.386 . S
C576 C578 1.391 . S
C577 C576 1.386 . S
C577 C581 1.393 . S
C578 H570 0.950 . S
C578 C576 1.391 . S
C578 C579 1.400 . S
C579 C578 1.400 . S
C579 C580 1.398 . S
C579 C585 1.491 . S
C580 H571 0.950 . S
C580 C579 1.398 . S
C580 C581 1.391 . S
C581 H569 0.950 . S
C581 C577 1.393 . S
C581 C580 1.391 . S
C582 H572 0.950 . S
C582 C583 1.386 . S
C582 C584 1.391 . S
C583 C582 1.386 . S
C583 C587 1.393 . S
C584 H573 0.950 . S
C584 C582 1.391 . S
C584 C585 1.400 . S
C585 C579 1.491 . S
C585 C584 1.400 . S
C585 C586 1.398 . S
C586 H574 0.950 . S
C586 C585 1.398 . S
C586 C587 1.391 . S
C587 H575 0.950 . S
C587 C583 1.393 . S
C587 C586 1.391 . S
H588 C596 0.950 . S
H589 C601 0.950 . S
H590 C598 0.950 . S
H591 C600 0.950 . S
H592 C602 0.950 . S
H593 C604 0.950 . S
H594 C606 0.950 . S
H595 C607 0.950 . S
C596 H588 0.950 . S
C596 C597 1.386 . S
C596 C598 1.391 . S
C597 C596 1.386 . S
C597 C601 1.393 . S
C598 H590 0.950 . S
C598 C596 1.391 . S
C598 C599 1.400 . S
C599 C598 1.400 . S
C599 C600 1.398 . S
C599 C605 1.491 . S
C600 H591 0.950 . S
C600 C599 1.398 . S
C600 C601 1.391 . S
C601 H589 0.950 . S
C601 C597 1.393 . S
C601 C600 1.391 . S
C602 H592 0.950 . S
C602 C603 1.386 . S
C602 C604 1.391 . S
C603 C602 1.386 . S
C603 C607 1.393 . S
C604 H593 0.950 . S
C604 C602 1.391 . S
C604 C605 1.400 . S
C605 C599 1.491 . S
C605 C604 1.400 . S
C605 C606 1.398 . S
C606 H594 0.950 . S
C606 C605 1.398 . S
C606 C607 1.391 . S
C607 H595 0.950 . S
C607 C603 1.393 . S
C607 C606 1.391 . S
H608 C616 0.950 . S
H609 C621 0.950 . S
H610 C618 0.950 . S
H611 C620 0.950 . S
H612 C622 0.950 . S
H613 C624 0.950 . S
H614 C626 0.950 . S
H615 C627 0.950 . S
C616 H608 0.950 . S
C616 C617 1.386 . S
C616 C618 1.391 . S
C617 C616 1.386 . S
C617 C621 1.393 . S
C618 H610 0.950 . S
C618 C616 1.391 . S
C618 C619 1.400 . S
C619 C618 1.400 . S
C619 C620 1.398 . S
C619 C625 1.491 . S
C620 H611 0.950 . S
C620 C619 1.398 . S
C620 C621 1.391 . S
C621 H609 0.950 . S
C621 C617 1.393 . S
C621 C620 1.391 . S
C622 H612 0.950 . S
C622 C623 1.386 . S
C622 C624 1.391 . S
C623 C622 1.386 . S
C623 C627 1.393 . S
C624 H613 0.950 . S
C624 C622 1.391 . S
C624 C625 1.400 . S
C625 C619 1.491 . S
C625 C624 1.400 . S
C625 C626 1.398 . S
C626 H614 0.950 . S
C626 C625 1.398 . S
C626 C627 1.391 . S
C627 H615 0.950 . S
C627 C623 1.393 . S
C627 C626 1.391 . S
H628 C636 0.950 . S
H629 C641 0.950 . S
H630 C638 0.950 . S
H631 C640 0.950 . S
H632 C642 0.950 . S
H633 C644 0.950 . S
H634 C646 0.950 . S
H635 C647 0.950 . S
C636 H628 0.950 . S
C636 C637 1.386 . S
C636 C638 1.391 . S
C637 C636 1.386 . S
C637 C641 1.393 . S
C638 H630 0.950 . S
C638 C636 1.391 . S
C638 C639 1.400 . S
C639 C638 1.400 . S
C639 C640 1.398 . S
C639 C645 1.491 . S
C640 H631 0.950 . S
C640 C639 1.398 . S
C640 C641 1.391 . S
C641 H629 0.950 . S
C641 C637 1.393 . S
C641 C640 1.391 . S
C642 H632 0.950 . S
C642 C643 1.386 . S
C642 C644 1.391 . S
C643 C642 1.386 . S
C643 C647 1.393 . S
C644 H633 0.950 . S
C644 C642 1.391 . S
C644 C645 1.400 . S
C645 C639 1.491 . S
C645 C644 1.400 . S
C645 C646 1.398 . S
C646 H634 0.950 . S
C646 C645 1.398 . S
C646 C647 1.391 . S
C647 H635 0.950 . S
C647 C643 1.393 . S
C647 C646 1.391 . S
C177 C123 1.351 . S
C183 C11 1.336 . S
C197 C25 1.337 . S
C203 C137 1.346 . S
C217 C39 1.342 . S
C223 C151 1.347 . S
C237 C53 1.338 . S
C243 C165 1.350 . S
C257 C95 1.335 . S
C263 C67 1.348 . S
C277 C81 1.346 . S
C283 C109 1.337 . S
C297 C12 1.373 . S
C303 C75 1.259 . S
C317 C26 1.363 . S
C323 C5 1.236 . S
C337 C40 1.367 . S
C343 C19 1.235 . S
C357 C33 1.247 . S
C363 C54 1.371 . S
C377 C47 1.233 . S
C383 C68 1.365 . S
C397 C61 1.234 . S
C403 C82 1.364 . S
C417 C103 1.276 . S
C423 C96 1.374 . S
C437 C110 1.363 . S
C443 C117 1.248 . S
C457 C131 1.238 . S
C463 C124 1.368 . S
C477 C138 1.374 . S
C483 C145 1.273 . S
C497 C152 1.374 . S
C503 C159 1.271 . S
C517 C166 1.374 . S
C523 C89 1.267 . S
C537 C144 1.251 . S
C543 C4 1.256 . S
C557 C158 1.256 . S
C563 C18 1.255 . S
C577 C88 1.240 . S
C583 C32 1.247 . S
C597 C46 1.246 . S
C603 C102 1.239 . S
C617 C60 1.256 . S
C623 C116 1.250 1_556 S
C637 C130 1.238 . S
C643 C74 1.245 1_554 S
