# Generated by pormake.
# Topology fnl, (5)-cn, num edge types: 1
# Building blocks:
#     Node 0, Type 0, BuildingBlock: XOMCOT_clean_sbu_1, # of connection points: 5
#     Node 1, Type 0, BuildingBlock: XOMCOT_clean_sbu_1, # of connection points: 5
#     Node 2, Type 0, BuildingBlock: XOMCOT_clean_sbu_1, # of connection points: 5
#     Node 3, Type 0, BuildingBlock: XOMCOT_clean_sbu_1, # of connection points: 5
#     Node 4, Type 0, BuildingBlock: XOMCOT_clean_sbu_1, # of connection points: 5
#     Node 5, Type 0, BuildingBlock: XOMCOT_clean_sbu_1, # of connection points: 5
#     Node 6, Type 0, BuildingBlock: XOMCOT_clean_sbu_1, # of connection points: 5
#     Node 7, Type 0, BuildingBlock: XOMCOT_clean_sbu_1, # of connection points: 5
#     Node 8, Type 0, BuildingBlock: XOMCOT_clean_sbu_1, # of connection points: 5
#     Node 9, Type 0, BuildingBlock: XOMCOT_clean_sbu_1, # of connection points: 5
#     Node 10, Type 0, BuildingBlock: XOMCOT_clean_sbu_1, # of connection points: 5
#     Node 11, Type 0, BuildingBlock: XOMCOT_clean_sbu_1, # of connection points: 5
#     Node 12, Type 0, BuildingBlock: XOMCOT_clean_sbu_1, # of connection points: 5
#     Node 13, Type 0, BuildingBlock: XOMCOT_clean_sbu_1, # of connection points: 5
#     Node 14, Type 0, BuildingBlock: XOMCOT_clean_sbu_1, # of connection points: 5
#     Node 15, Type 0, BuildingBlock: XOMCOT_clean_sbu_1, # of connection points: 5
#     Edge 16, Type (0, 0), BuildingBlock: KIFKEQ_clean_linker_1, # of connection points: 2
#     Edge 17, Type (0, 0), BuildingBlock: KIFKEQ_clean_linker_1, # of connection points: 2
#     Edge 18, Type (0, 0), BuildingBlock: KIFKEQ_clean_linker_1, # of connection points: 2
#     Edge 19, Type (0, 0), BuildingBlock: KIFKEQ_clean_linker_1, # of connection points: 2
#     Edge 20, Type (0, 0), BuildingBlock: KIFKEQ_clean_linker_1, # of connection points: 2
#     Edge 21, Type (0, 0), BuildingBlock: KIFKEQ_clean_linker_1, # of connection points: 2
#     Edge 22, Type (0, 0), BuildingBlock: KIFKEQ_clean_linker_1, # of connection points: 2
#     Edge 23, Type (0, 0), BuildingBlock: KIFKEQ_clean_linker_1, # of connection points: 2
#     Edge 24, Type (0, 0), BuildingBlock: KIFKEQ_clean_linker_1, # of connection points: 2
#     Edge 25, Type (0, 0), BuildingBlock: KIFKEQ_clean_linker_1, # of connection points: 2
#     Edge 26, Type (0, 0), BuildingBlock: KIFKEQ_clean_linker_1, # of connection points: 2
#     Edge 27, Type (0, 0), BuildingBlock: KIFKEQ_clean_linker_1, # of connection points: 2
#     Edge 28, Type (0, 0), BuildingBlock: KIFKEQ_clean_linker_1, # of connection points: 2
#     Edge 29, Type (0, 0), BuildingBlock: KIFKEQ_clean_linker_1, # of connection points: 2
#     Edge 30, Type (0, 0), BuildingBlock: KIFKEQ_clean_linker_1, # of connection points: 2
#     Edge 31, Type (0, 0), BuildingBlock: KIFKEQ_clean_linker_1, # of connection points: 2
#     Edge 32, Type (0, 0), BuildingBlock: KIFKEQ_clean_linker_1, # of connection points: 2
#     Edge 33, Type (0, 0), BuildingBlock: KIFKEQ_clean_linker_1, # of connection points: 2
#     Edge 34, Type (0, 0), BuildingBlock: KIFKEQ_clean_linker_1, # of connection points: 2
#     Edge 35, Type (0, 0), BuildingBlock: KIFKEQ_clean_linker_1, # of connection points: 2
#     Edge 36, Type (0, 0), BuildingBlock: KIFKEQ_clean_linker_1, # of connection points: 2
#     Edge 37, Type (0, 0), BuildingBlock: KIFKEQ_clean_linker_1, # of connection points: 2
#     Edge 38, Type (0, 0), BuildingBlock: KIFKEQ_clean_linker_1, # of connection points: 2
#     Edge 39, Type (0, 0), BuildingBlock: KIFKEQ_clean_linker_1, # of connection points: 2
#     Edge 40, Type (0, 0), BuildingBlock: KIFKEQ_clean_linker_1, # of connection points: 2
#     Edge 41, Type (0, 0), BuildingBlock: KIFKEQ_clean_linker_1, # of connection points: 2
#     Edge 42, Type (0, 0), BuildingBlock: KIFKEQ_clean_linker_1, # of connection points: 2
#     Edge 43, Type (0, 0), BuildingBlock: KIFKEQ_clean_linker_1, # of connection points: 2
#     Edge 44, Type (0, 0), BuildingBlock: KIFKEQ_clean_linker_1, # of connection points: 2
#     Edge 45, Type (0, 0), BuildingBlock: KIFKEQ_clean_linker_1, # of connection points: 2
#     Edge 46, Type (0, 0), BuildingBlock: KIFKEQ_clean_linker_1, # of connection points: 2
#     Edge 47, Type (0, 0), BuildingBlock: KIFKEQ_clean_linker_1, # of connection points: 2
#     Edge 48, Type (0, 0), BuildingBlock: KIFKEQ_clean_linker_1, # of connection points: 2
#     Edge 49, Type (0, 0), BuildingBlock: KIFKEQ_clean_linker_1, # of connection points: 2
#     Edge 50, Type (0, 0), BuildingBlock: KIFKEQ_clean_linker_1, # of connection points: 2
#     Edge 51, Type (0, 0), BuildingBlock: KIFKEQ_clean_linker_1, # of connection points: 2
#     Edge 52, Type (0, 0), BuildingBlock: KIFKEQ_clean_linker_1, # of connection points: 2
#     Edge 53, Type (0, 0), BuildingBlock: KIFKEQ_clean_linker_1, # of connection points: 2
#     Edge 54, Type (0, 0), BuildingBlock: KIFKEQ_clean_linker_1, # of connection points: 2
#     Edge 55, Type (0, 0), BuildingBlock: KIFKEQ_clean_linker_1, # of connection points: 2
# Relax obj value: 0.497
# Max RMSD: 0.266
# Mean RMSD: 0.266
data_MOF--net-fnl--node1-XOMCOT_clean_sbu_1--edge1-KIFKEQ_clean_linker_1
_symmetry_space_group_name_H-M    P1
_symmetry_Int_Tables_number       1
_symmetry_cell_setting            triclinic
loop_
_symmetry_equiv_pos_as_xyz
'x, y, z'
_cell_length_a     34.80373
_cell_length_b     34.827979
_cell_length_c     98.59123
_cell_angle_alpha  89.99512
_cell_angle_beta   90.039957
_cell_angle_gamma 89.970822
loop_
_atom_site_label
_atom_site_type_symbol
_atom_site_fract_x
_atom_site_fract_y
_atom_site_fract_z
_atom_type_partial_charge
C0 C 0.97414 0.01039 0.05702 0.0
C1 C 0.96661 0.97213 0.05498 0.0
N2 N 0.9929 0.95129 0.06186 0.0
N3 N 0.00485 0.01385 0.06521 0.0
C4 C 0.01589 0.97752 0.06793 0.0
H5 H 0.9578 0.03431 0.05304 0.0
Co6 Co 0.02294 0.06058 0.07125 0.0
C7 C 0.06808 0.04506 0.09605 0.0
O8 O 0.05197 0.07536 0.10162 0.0
N9 N 0.04127 0.10878 0.07692 0.0
C10 C 0.08087 0.15703 0.08177 0.0
C11 C 0.07855 0.11886 0.07833 0.0
C12 C 0.02171 0.14164 0.07912 0.0
N13 N 0.04493 0.17132 0.08228 0.0
O14 O 0.06087 0.05954 0.05729 0.0
H15 H 0.10262 0.09967 0.07682 0.0
H16 H 0.99123 0.14458 0.07773 0.0
O17 O 0.05881 0.03529 0.08394 0.0
C18 C 0.05329 0.08212 0.04748 0.0
O19 O 0.02359 0.10524 0.04858 0.0
N20 N 0.98263 0.06113 0.084 0.0
C21 C 0.91448 0.05742 0.09886 0.0
C22 C 0.94613 0.0346 0.10237 0.0
C23 C 0.97942 0.03597 0.09457 0.0
C24 C 0.95139 0.08201 0.08004 0.0
C25 C 0.91724 0.08122 0.08746 0.0
H26 H 0.00131 0.01488 0.09662 0.0
H27 H 0.95235 0.09803 0.07065 0.0
H28 H 0.04019 0.97055 0.07429 0.0
H29 H 0.94289 0.96081 0.04913 0.0
H30 H 0.10705 0.17295 0.08358 0.0
H31 H 0.94433 0.01389 0.11055 0.0
H32 H 0.89289 0.09804 0.08406 0.0
C33 C 0.29992 0.78422 0.30766 0.0
C34 C 0.33844 0.77751 0.30567 0.0
N35 N 0.35827 0.80504 0.3122 0.0
N36 N 0.29562 0.81549 0.31557 0.0
C37 C 0.33171 0.8279 0.31805 0.0
H38 H 0.27647 0.7667 0.30399 0.0
Co39 Co 0.24855 0.83129 0.32223 0.0
C40 C 0.2643 0.87379 0.34752 0.0
O41 O 0.23517 0.85571 0.3531 0.0
N42 N 0.20005 0.84733 0.32855 0.0
C43 C 0.15084 0.88529 0.33392 0.0
C44 C 0.18899 0.88419 0.33035 0.0
C45 C 0.16779 0.82675 0.33077 0.0
N46 N 0.13757 0.849 0.33417 0.0
O47 O 0.24732 0.87069 0.30879 0.0
H48 H 0.20744 0.90886 0.32893 0.0
H49 H 0.16554 0.79628 0.32922 0.0
O50 O 0.27344 0.86656 0.33518 0.0
C51 C 0.22433 0.86358 0.29906 0.0
O52 O 0.20202 0.83324 0.29995 0.0
N53 N 0.25044 0.78964 0.3344 0.0
C54 C 0.26319 0.71855 0.34653 0.0
C55 C 0.28426 0.75073 0.35056 0.0
C56 C 0.27808 0.78582 0.34418 0.0
C57 C 0.23025 0.75817 0.33022 0.0
C58 C 0.23548 0.72242 0.33638 0.0
H59 H 0.29809 0.80858 0.34634 0.0
H60 H 0.2123 0.76 0.3213 0.0
H61 H 0.33858 0.85208 0.32449 0.0
H62 H 0.35096 0.754 0.3 0.0
H63 H 0.13416 0.91086 0.33595 0.0
H64 H 0.30723 0.74811 0.35793 0.0
H65 H 0.22021 0.69756 0.33257 0.0
C66 C 0.53982 0.10068 0.5648 0.0
C67 C 0.54802 0.13841 0.56184 0.0
N68 N 0.51798 0.16011 0.56579 0.0
N69 N 0.50492 0.09865 0.57064 0.0
C70 C 0.49213 0.13527 0.57101 0.0
H71 H 0.5585 0.0763 0.56314 0.0
Co72 Co 0.48418 0.05383 0.57764 0.0
C73 C 0.40939 0.08071 0.58762 0.0
O74 O 0.39213 0.05531 0.57988 0.0
N75 N 0.46454 0.00837 0.58472 0.0
C76 C 0.44591 0.96363 0.59937 0.0
C77 C 0.44882 0.00243 0.59707 0.0
C78 C 0.47115 0.97288 0.57978 0.0
N79 N 0.46021 0.94513 0.5885 0.0
O80 O 0.45099 0.05054 0.56226 0.0
H81 H 0.44251 0.0247 0.60438 0.0
H82 H 0.48691 0.96745 0.57054 0.0
O83 O 0.44595 0.08307 0.58756 0.0
C84 C 0.46538 0.03357 0.55202 0.0
O85 O 0.50014 0.01912 0.55304 0.0
N86 N 0.51871 0.05631 0.59199 0.0
C87 C 0.57969 0.06078 0.61016 0.0
C88 C 0.54865 0.08643 0.61106 0.0
C89 C 0.51851 0.08394 0.60179 0.0
C90 C 0.54797 0.03041 0.59119 0.0
C91 C 0.57883 0.03207 0.60021 0.0
H92 H 0.49623 0.10543 0.60212 0.0
H93 H 0.54805 0.00929 0.58315 0.0
H94 H 0.46509 0.14385 0.57549 0.0
H95 H 0.57415 0.14905 0.55724 0.0
H96 H 0.43593 0.95015 0.60861 0.0
H97 H 0.54869 0.10971 0.61834 0.0
H98 H 0.6023 0.01187 0.59915 0.0
C99 C 0.20453 0.3283 0.80543 0.0
C100 C 0.16628 0.33615 0.80333 0.0
N101 N 0.14562 0.31674 0.81264 0.0
N102 N 0.20798 0.30409 0.816 0.0
C103 C 0.17168 0.2975 0.8202 0.0
H104 H 0.22842 0.33932 0.79961 0.0
Co105 Co 0.2547 0.28642 0.82221 0.0
C106 C 0.23877 0.23943 0.84661 0.0
O107 O 0.26923 0.25449 0.85244 0.0
N108 N 0.30285 0.26848 0.82799 0.0
C109 C 0.35159 0.22926 0.8326 0.0
C110 C 0.3134 0.23129 0.82916 0.0
C111 C 0.33545 0.28835 0.83034 0.0
N112 N 0.36548 0.26531 0.83332 0.0
O113 O 0.25435 0.2487 0.80815 0.0
H114 H 0.29454 0.20709 0.82744 0.0
H115 H 0.33785 0.31896 0.82914 0.0
O116 O 0.22922 0.25007 0.83462 0.0
C117 C 0.2772 0.25606 0.79841 0.0
O118 O 0.30055 0.28554 0.79957 0.0
N119 N 0.25475 0.32648 0.83503 0.0
C120 C 0.25264 0.3936 0.85035 0.0
C121 C 0.23119 0.36152 0.85424 0.0
C122 C 0.23153 0.32871 0.84618 0.0
C123 C 0.27431 0.35824 0.83078 0.0
C124 C 0.27394 0.39217 0.83836 0.0
H125 H 0.21136 0.30637 0.84862 0.0
H126 H 0.2893 0.35761 0.82118 0.0
H127 H 0.1645 0.2794 0.82874 0.0
H128 H 0.15464 0.35416 0.79538 0.0
H129 H 0.36781 0.20316 0.83421 0.0
H130 H 0.21249 0.36266 0.86301 0.0
H131 H 0.2893 0.41719 0.83474 0.0
C132 C 0.96372 0.10566 0.93813 0.0
C133 C 0.95661 0.144 0.94021 0.0
N134 N 0.98779 0.16381 0.93621 0.0
N135 N -0.00107 0.10148 0.93264 0.0
C136 C 0.01321 0.13742 0.93175 0.0
H137 H 0.94423 0.08226 0.94026 0.0
Co138 Co 0.01863 0.05469 0.92727 0.0
C139 C 0.06635 0.07007 0.90312 0.0
O140 O 0.0513 0.03943 0.89742 0.0
N141 N 0.03849 0.00643 0.92238 0.0
C142 C 0.07904 0.95785 0.91877 0.0
C143 C 0.07597 -0.00323 0.92099 0.0
C144 C 0.01968 0.97269 0.92151 0.0
N145 N 0.04348 0.94297 0.91922 0.0
O146 O 0.0548 0.05713 0.9418 0.0
H147 H 0.09971 0.01663 0.92192 0.0
H148 H 0.9893 0.96916 0.92306 0.0
O149 O 0.05566 0.07996 0.91506 0.0
C150 C 0.04667 0.03534 0.95175 0.0
O151 O 0.0168 0.01243 0.95072 0.0
N152 N 0.98013 0.05275 0.91373 0.0
C153 C 0.91459 0.05549 0.89734 0.0
C154 C 0.94617 0.0793 0.89471 0.0
C155 C 0.97801 0.07838 0.90325 0.0
C156 C 0.94885 0.03079 0.91681 0.0
C157 C 0.91607 0.03108 0.90861 0.0
H158 H -0.00051 0.10028 0.90188 0.0
H159 H 0.94813 0.01493 0.92622 0.0
H160 H 0.04116 0.14428 0.92761 0.0
H161 H 0.93063 0.15643 0.94436 0.0
H162 H 0.10532 0.94154 0.9176 0.0
H163 H 0.94522 0.10054 0.88669 0.0
H164 H 0.89159 0.0136 0.91139 0.0
C165 C 0.1983 0.77802 0.19144 0.0
C166 C 0.15975 0.77095 0.19315 0.0
N167 N 0.14011 0.80084 0.18797 0.0
N168 N 0.2028 0.81191 0.18504 0.0
C169 C 0.16681 0.82545 0.1832 0.0
H170 H 0.22163 0.75929 0.1944 0.0
Co171 Co 0.24994 0.83074 0.17957 0.0
C172 C 0.23582 0.87718 0.155 0.0
O173 O 0.26686 0.86199 0.14962 0.0
N174 N 0.29845 0.84986 0.17447 0.0
C175 C 0.34674 0.89033 0.17054 0.0
C176 C 0.30847 0.88733 0.17384 0.0
C177 C 0.33138 0.83081 0.17182 0.0
N178 N 0.361 0.8546 0.16923 0.0
O179 O 0.24749 0.86801 0.19374 0.0
H180 H 0.28914 0.91104 0.17577 0.0
H181 H 0.33451 0.80015 0.17239 0.0
O182 O 0.2252 0.86694 0.16691 0.0
C183 C 0.26954 0.86056 0.2037 0.0
O184 O 0.29275 0.83088 0.20281 0.0
N185 N 0.25184 0.79117 0.16654 0.0
C186 C 0.24913 0.72369 0.15127 0.0
C187 C 0.22632 0.75539 0.14781 0.0
C188 C 0.22721 0.78833 0.15579 0.0
C189 C 0.2729 0.75994 0.1704 0.0
C190 C 0.2726 0.72615 0.16277 0.0
H191 H 0.20605 0.81016 0.15376 0.0
H192 H 0.28863 0.76061 0.17985 0.0
H193 H 0.16014 0.85215 0.1781 0.0
H194 H 0.1471 0.7458 0.1978 0.0
H195 H 0.36277 0.91671 0.1693 0.0
H196 H 0.20586 0.75383 0.13954 0.0
H197 H 0.28947 0.70178 0.16612 0.0
C198 C 0.52744 0.00337 0.44544 0.0
C199 C 0.53539 0.96496 0.44702 0.0
N200 N 0.50908 0.94484 0.43996 0.0
N201 N 0.49651 0.00736 0.43734 0.0
C202 C 0.48571 0.97121 0.43423 0.0
H203 H 0.5435 0.02703 0.44972 0.0
Co204 Co 0.47799 0.05435 0.43175 0.0
C205 C 0.43173 0.04026 0.40709 0.0
O206 O 0.44743 0.07096 0.40166 0.0
N207 N 0.45926 0.10282 0.42654 0.0
C208 C 0.41959 0.1513 0.42202 0.0
C209 C 0.42195 0.11307 0.42538 0.0
C210 C 0.4788 0.13563 0.42428 0.0
N211 N 0.45555 0.16548 0.42131 0.0
O212 O 0.44067 0.05223 0.44593 0.0
H213 H 0.39792 0.0939 0.42696 0.0
H214 H 0.50936 0.13832 0.42545 0.0
O215 O 0.44168 0.02973 0.41905 0.0
C216 C 0.44771 0.0747 0.45581 0.0
O217 O 0.47626 0.09918 0.45468 0.0
N218 N 0.51782 0.05581 0.41883 0.0
C219 C 0.58611 0.05205 0.40404 0.0
C220 C 0.55413 0.03005 0.40027 0.0
C221 C 0.52074 0.03144 0.40802 0.0
C222 C 0.54925 0.07611 0.42297 0.0
C223 C 0.58346 0.0753 0.41558 0.0
H224 H 0.49864 0.01078 0.40578 0.0
H225 H 0.54841 0.09154 0.43248 0.0
H226 H 0.46193 0.96426 0.42761 0.0
H227 H 0.55857 0.95277 0.45295 0.0
H228 H 0.39335 0.16728 0.42036 0.0
H229 H 0.55574 0.00979 0.39195 0.0
H230 H 0.60797 0.09156 0.41915 0.0
C231 C 0.29764 0.34224 0.68835 0.0
C232 C 0.33616 0.3498 0.68965 0.0
N233 N 0.35566 0.31935 0.68486 0.0
N234 N 0.29301 0.30748 0.68256 0.0
C235 C 0.32895 0.29386 0.68071 0.0
H236 H 0.27436 0.36117 0.69118 0.0
Co237 Co 0.24532 0.28866 0.67795 0.0
C238 C 0.25585 0.24082 0.65356 0.0
O239 O 0.2247 0.25697 0.6486 0.0
N240 N 0.19597 0.26994 0.6739 0.0
C241 C 0.14576 0.23097 0.67093 0.0
C242 C 0.18505 0.23282 0.67251 0.0
C243 C 0.16266 0.28971 0.67379 0.0
N244 N 0.13205 0.2669 0.67185 0.0
O245 O 0.24884 0.2526 0.69247 0.0
H246 H 0.20435 0.2085 0.67296 0.0
H247 H 0.16008 0.32 0.67569 0.0
O248 O 0.26823 0.25096 0.66529 0.0
C249 C 0.22854 0.2619 0.7027 0.0
O250 O 0.20671 0.29262 0.70186 0.0
N251 N 0.24243 0.32712 0.66442 0.0
C252 C 0.24519 0.39275 0.64811 0.0
C253 C 0.26776 0.36054 0.6451 0.0
C254 C 0.2669 0.32864 0.65359 0.0
C255 C 0.22165 0.35894 0.66783 0.0
C256 C 0.22193 0.39177 0.65968 0.0
H257 H 0.28808 0.30661 0.65188 0.0
H258 H 0.20701 0.36009 0.67747 0.0
H259 H 0.33551 0.26647 0.67608 0.0
H260 H 0.34894 0.37561 0.69379 0.0
H261 H 0.12848 0.2053 0.66988 0.0
H262 H 0.28817 0.36101 0.63681 0.0
H263 H 0.20548 0.4167 0.66275 0.0
C264 C 0.70073 0.29007 0.69524 0.0
C265 C 0.66243 0.28142 0.6967 0.0
N266 N 0.64201 0.30808 0.68995 0.0
N267 N 0.70428 0.32164 0.68743 0.0
C268 C 0.66794 0.33231 0.68449 0.0
H269 H 0.72462 0.27376 0.69925 0.0
Co270 Co 0.75106 0.33999 0.68157 0.0
C271 C 0.7359 0.3823 0.65602 0.0
O272 O 0.76655 0.36615 0.6507 0.0
N273 N 0.79936 0.35829 0.6761 0.0
C274 C 0.84869 0.39653 0.67097 0.0
C275 C 0.80971 0.39496 0.67336 0.0
C276 C 0.83271 0.33861 0.67586 0.0
N277 N 0.86278 0.36097 0.67267 0.0
O278 O 0.74789 0.37974 0.69492 0.0
H279 H 0.7903 0.41923 0.67345 0.0
H280 H 0.83572 0.30881 0.67855 0.0
O281 O 0.72596 0.37393 0.66819 0.0
C282 C 0.77212 0.38034 0.70461 0.0
O283 O 0.80129 0.35641 0.70442 0.0
N284 N 0.75329 0.29819 0.6694 0.0
C285 C 0.74936 0.22779 0.65592 0.0
C286 C 0.72756 0.2592 0.65151 0.0
C287 C 0.7289 0.29362 0.65865 0.0
C288 C 0.7737 0.26742 0.67408 0.0
C289 C 0.77264 0.23207 0.66739 0.0
H290 H 0.70797 0.31514 0.65605 0.0
H291 H 0.78877 0.26942 0.68364 0.0
H292 H 0.66053 0.35636 0.67805 0.0
H293 H 0.65048 0.25733 0.70221 0.0
H294 H 0.86559 0.42191 0.66885 0.0
H295 H 0.70724 0.25631 0.64324 0.0
H296 H 0.78847 0.20793 0.67149 0.0
C297 C 0.79518 0.84998 0.18839 0.0
C298 C 0.83364 0.85733 0.19019 0.0
N299 N 0.85347 0.82631 0.18603 0.0
N300 N 0.79091 0.81475 0.18293 0.0
C301 C 0.82694 0.80075 0.18177 0.0
H302 H 0.77176 0.86934 0.19067 0.0
Co303 Co 0.74398 0.79467 0.17777 0.0
C304 C 0.75894 0.74395 0.15437 0.0
O305 O 0.72791 0.75789 0.14856 0.0
N306 N 0.69569 0.77436 0.17301 0.0
C307 C 0.64754 0.73304 0.17007 0.0
C308 C 0.68593 0.73678 0.17312 0.0
C309 C 0.66251 0.79276 0.17018 0.0
N310 N 0.63295 0.76843 0.1682 0.0
O311 O 0.74637 0.7601 0.19275 0.0
H312 H 0.70547 0.71354 0.17546 0.0
H313 H 0.65913 0.82344 0.17028 0.0
O314 O 0.76923 0.75641 0.16605 0.0
C315 C 0.72423 0.76917 0.20251 0.0
O316 O 0.70088 0.79853 0.20095 0.0
N317 N 0.7421 0.83175 0.16385 0.0
C318 C 0.74541 0.8967 0.14726 0.0
C319 C 0.76829 0.86447 0.14454 0.0
C320 C 0.76707 0.83284 0.15316 0.0
C321 C 0.72077 0.86347 0.16692 0.0
C322 C 0.72136 0.89597 0.15863 0.0
H323 H 0.78835 0.81078 0.1517 0.0
H324 H 0.70483 0.86443 0.17632 0.0
H325 H 0.83378 0.77292 0.17754 0.0
H326 H 0.84612 0.8834 0.19423 0.0
H327 H 0.63161 0.70642 0.16948 0.0
H328 H 0.78915 0.86474 0.13639 0.0
H329 H 0.70439 0.92083 0.16141 0.0
C330 C 0.7993 0.29071 0.80706 0.0
C331 C 0.83758 0.28335 0.80482 0.0
N332 N 0.85838 0.30594 0.81315 0.0
N333 N 0.796 0.31765 0.81678 0.0
C334 C 0.83243 0.32656 0.82027 0.0
H335 H 0.77526 0.27717 0.80202 0.0
Co336 Co 0.74927 0.3347 0.82316 0.0
C337 C 0.76536 0.37737 0.84853 0.0
O338 O 0.73523 0.36107 0.85413 0.0
N339 N 0.70099 0.35197 0.82915 0.0
C340 C 0.65157 0.38996 0.8344 0.0
C341 C 0.69029 0.38872 0.83156 0.0
C342 C 0.66807 0.33179 0.83015 0.0
N343 N 0.63783 0.35404 0.83339 0.0
O344 O 0.75049 0.3747 0.80987 0.0
H345 H 0.70925 0.41325 0.83091 0.0
H346 H 0.6655 0.30157 0.82805 0.0
O347 O 0.77457 0.36894 0.8363 0.0
C348 C 0.72568 0.375 0.80037 0.0
O349 O 0.69709 0.3504 0.8007 0.0
N350 N 0.74894 0.29275 0.83527 0.0
C351 C 0.75245 0.22344 0.84949 0.0
C352 C 0.77495 0.25488 0.85342 0.0
C353 C 0.7737 0.28875 0.84595 0.0
C354 C 0.72853 0.26171 0.83086 0.0
C355 C 0.72926 0.22695 0.83795 0.0
H356 H 0.79458 0.3105 0.84834 0.0
H357 H 0.71291 0.26335 0.82139 0.0
H358 H 0.83985 0.34708 0.82807 0.0
H359 H 0.84917 0.26323 0.79753 0.0
H360 H 0.63455 0.41537 0.83638 0.0
H361 H 0.79529 0.25256 0.8617 0.0
H362 H 0.71277 0.2028 0.83421 0.0
C363 C 0.70317 0.84983 0.31613 0.0
C364 C 0.6647 0.85768 0.31468 0.0
N365 N 0.64491 0.82573 0.31782 0.0
N366 N 0.70753 0.81331 0.32041 0.0
C367 C 0.67148 0.7991 0.32116 0.0
H368 H 0.72653 0.86962 0.31433 0.0
Co369 Co 0.7546 0.79148 0.32456 0.0
C370 C 0.7414 0.73642 0.34691 0.0
O371 O 0.77427 0.74687 0.35233 0.0
N372 N 0.80303 0.7695 0.32828 0.0
C373 C 0.85097 0.72715 0.3295 0.0
C374 C 0.8125 0.73206 0.32677 0.0
C375 C 0.83644 0.78668 0.33167 0.0
N376 N 0.86588 0.76167 0.33263 0.0
O377 O 0.74976 0.75905 0.30907 0.0
H378 H 0.79267 0.70973 0.32375 0.0
H379 H 0.84003 0.81717 0.3328 0.0
O380 O 0.72957 0.75238 0.33596 0.0
C381 C 0.77096 0.76911 0.29917 0.0
O382 O 0.79459 0.79817 0.30084 0.0
N383 N 0.75894 0.82644 0.33907 0.0
C384 C 0.75694 0.89037 0.35618 0.0
C385 C 0.73517 0.85752 0.35909 0.0
C386 C 0.73583 0.8263 0.35027 0.0
C387 C 0.7799 0.85839 0.336 0.0
C388 C 0.77997 0.89036 0.34454 0.0
H389 H 0.71522 0.80379 0.35198 0.0
H390 H 0.79491 0.85997 0.32642 0.0
H391 H 0.66471 0.77015 0.32434 0.0
H392 H 0.65219 0.88466 0.31146 0.0
H393 H 0.86671 0.70037 0.32909 0.0
H394 H 0.71527 0.85703 0.36753 0.0
H395 H 0.7964 0.91549 0.34168 0.0
C396 C 0.47208 0.50514 0.55782 0.0
C397 C 0.46648 0.46663 0.5556 0.0
N398 N 0.49482 0.44698 0.56187 0.0
N399 N 0.5036 0.50995 0.56554 0.0
C400 C 0.51703 0.47412 0.56781 0.0
H401 H 0.45409 0.52829 0.55419 0.0
Co402 Co 0.52047 0.55778 0.57105 0.0
C403 C 0.56675 0.54543 0.59582 0.0
O404 O 0.55037 0.57594 0.60113 0.0
N405 N 0.53753 0.60717 0.57608 0.0
C406 C 0.57622 0.65721 0.57958 0.0
C407 C 0.57463 0.61833 0.57719 0.0
C408 C 0.51731 0.64006 0.57745 0.0
N409 N 0.54004 0.67075 0.57965 0.0
O410 O 0.55817 0.5566 0.55704 0.0
H411 H 0.5991 0.59947 0.57599 0.0
H412 H 0.48659 0.64217 0.5765 0.0
O413 O 0.55724 0.53449 0.58386 0.0
C414 C 0.5501 0.5783 0.54704 0.0
O415 O 0.51962 0.60048 0.54785 0.0
N416 N 0.48051 0.55837 0.58393 0.0
C417 C 0.41294 0.55411 0.59912 0.0
C418 C 0.44521 0.53216 0.60265 0.0
C419 C 0.47822 0.53382 0.59471 0.0
C420 C 0.44872 0.57841 0.57997 0.0
C421 C 0.41487 0.57737 0.58756 0.0
H422 H 0.50067 0.51337 0.59682 0.0
H423 H 0.44897 0.59381 0.57045 0.0
H424 H 0.54268 0.46814 0.57362 0.0
H425 H 0.4428 0.45423 0.55 0.0
H426 H 0.60196 0.6744 0.58061 0.0
H427 H 0.44414 0.51186 0.61097 0.0
H428 H 0.3901 0.59355 0.58415 0.0
C429 C 0.02902 0.60564 0.06137 0.0
C430 C 0.03668 0.64387 0.05927 0.0
N431 N 0.00895 0.66456 0.06538 0.0
N432 N -0.00316 0.6023 0.06886 0.0
C433 C 0.98497 0.63868 0.07106 0.0
H434 H 0.04605 0.58168 0.05783 0.0
Co435 Co 0.97826 0.55553 0.07464 0.0
C436 C 0.93124 0.57128 0.099 0.0
O437 O 0.9467 0.54105 0.10484 0.0
N438 N 0.95965 0.50717 0.07995 0.0
C439 C 0.9206 0.45771 0.08402 0.0
C440 C 0.92251 0.49663 0.08163 0.0
C441 C 0.9794 0.47395 0.08086 0.0
N442 N 0.95653 0.44372 0.08341 0.0
O443 O 0.94118 0.55686 0.0604 0.0
H444 H 0.89822 0.51586 0.08075 0.0
H445 H 0.00979 0.47116 0.07913 0.0
O446 O 0.94158 0.58072 0.08698 0.0
C447 C 0.94919 0.53481 0.0505 0.0
O448 O 0.9792 0.51206 0.05154 0.0
N449 N 0.01766 0.55467 0.08779 0.0
C450 C 0.08451 0.55805 0.10345 0.0
C451 C 0.05262 0.58095 0.1066 0.0
C452 C 0.02003 0.57973 0.09842 0.0
C453 C 0.0492 0.53375 0.08417 0.0
C454 C 0.08264 0.53432 0.09201 0.0
H455 H -0.00192 0.60093 0.10022 0.0
H456 H 0.0493 0.51822 0.07469 0.0
H457 H 0.9599 0.64617 0.07697 0.0
H458 H 0.06064 0.65555 0.05363 0.0
H459 H 0.89483 0.44076 0.08539 0.0
H460 H 0.05376 0.60168 0.11478 0.0
H461 H 0.10723 0.51749 0.08885 0.0
C462 C 0.46905 0.59934 0.43879 0.0
C463 C 0.46156 0.6374 0.44117 0.0
N464 N 0.49071 0.65841 0.43605 0.0
N465 N 0.5025 0.59615 0.43205 0.0
C466 C 0.51528 0.63251 0.43061 0.0
H467 H 0.45118 0.57539 0.44175 0.0
Co468 Co 0.52258 0.54935 0.42694 0.0
C469 C 0.57539 0.56363 0.40379 0.0
O470 O 0.5646 0.53115 0.39818 0.0
N471 N 0.54231 0.50092 0.42241 0.0
C472 C 0.58135 0.45055 0.42009 0.0
C473 C 0.57953 0.48961 0.42222 0.0
C474 C 0.52225 0.46811 0.42089 0.0
N475 N 0.54515 0.43734 0.41937 0.0
O476 O 0.55793 0.55227 0.44168 0.0
H477 H 0.60377 0.50843 0.42394 0.0
H478 H 0.49144 0.46604 0.42148 0.0
O479 O 0.56025 0.57463 0.41498 0.0
C480 C 0.54952 0.53061 0.45163 0.0
O481 O 0.51982 0.50752 0.45051 0.0
N482 N 0.48493 0.5467 0.41319 0.0
C483 C 0.41998 0.54747 0.39663 0.0
C484 C 0.45329 0.56719 0.39282 0.0
C485 C 0.48498 0.56753 0.40144 0.0
C486 C 0.4523 0.52807 0.41715 0.0
C487 C 0.41948 0.52789 0.40899 0.0
H488 H 0.50804 0.58677 0.39895 0.0
H489 H 0.45112 0.51476 0.42706 0.0
H490 H 0.54231 0.6397 0.42587 0.0
H491 H 0.43623 0.64852 0.44616 0.0
H492 H 0.60702 0.43299 0.41984 0.0
H493 H 0.45383 0.58458 0.38371 0.0
H494 H 0.39362 0.51376 0.41252 0.0
C495 C 0.0335 0.50825 0.94482 0.0
C496 C 0.04061 0.46985 0.94688 0.0
N497 N 0.01152 0.44982 0.94134 0.0
N498 N 0.00043 0.51221 0.93784 0.0
C499 C 0.98737 0.4761 0.936 0.0
H500 H 0.05185 0.53182 0.94782 0.0
Co501 Co 0.98267 0.55871 0.93139 0.0
C502 C 0.93853 0.54196 0.90656 0.0
O503 O 0.95572 0.57134 0.9008 0.0
N504 N 0.96457 0.60662 0.92532 0.0
C505 C 0.92471 0.65432 0.92002 0.0
C506 C 0.92727 0.6163 0.9236 0.0
C507 C 0.98388 0.63964 0.92315 0.0
N508 N 0.96049 0.669 0.91974 0.0
O509 O 0.94438 0.55868 0.94522 0.0
H510 H 0.90331 0.59696 0.92505 0.0
H511 H 0.01423 0.64296 0.92477 0.0
O512 O 0.94691 0.53293 0.91882 0.0
C513 C 0.95122 0.58166 0.95497 0.0
O514 O 0.98089 0.60483 0.954 0.0
N515 N 0.02325 0.55809 0.9187 0.0
C516 C 0.09258 0.54863 0.905 0.0
C517 C 0.0608 0.52597 0.90173 0.0
C518 C 0.02671 0.53045 0.90891 0.0
C519 C 0.05454 0.57953 0.92225 0.0
C520 C 0.08937 0.5759 0.91531 0.0
H521 H 0.00454 0.5094 0.90727 0.0
H522 H 0.0535 0.59733 0.93121 0.0
H523 H 0.96163 0.46899 0.93039 0.0
H524 H 0.06538 0.45754 0.95191 0.0
H525 H 0.89842 0.6699 0.918 0.0
H526 H 0.06314 0.50318 0.89429 0.0
H527 H 0.11416 0.59229 0.91857 0.0
H528 H 0.00901 0.40989 0.06743 0.0
H529 H 0.93068 0.38894 0.10046 0.0
H530 H 0.03114 0.34382 0.06853 0.0
H531 H 0.95376 0.32261 0.10203 0.0
H532 H 0.97422 0.19701 0.08967 0.0
H533 H 0.95259 0.26306 0.09048 0.0
H534 H 0.06811 0.30153 0.08188 0.0
H535 H 0.08917 0.23538 0.08003 0.0
C536 C -0.00308 0.39106 0.07505 0.0
C537 C 0.96838 0.40433 0.08392 0.0
C538 C 0.00974 0.35328 0.07576 0.0
C539 C 0.99466 0.32796 0.0855 0.0
C540 C 0.96577 0.34124 0.09433 0.0
C541 C 0.95254 0.37908 0.09347 0.0
C542 C 0.99502 0.21943 0.0878 0.0
C543 C 0.03332 0.2106 0.08443 0.0
C544 C 0.98267 0.25747 0.08849 0.0
C545 C 0.00846 0.28767 0.08606 0.0
C546 C 0.04723 0.27893 0.08347 0.0
C547 C 0.05947 0.24087 0.08259 0.0
H548 H 0.11404 0.77849 0.34242 0.0
H549 H 0.07234 0.89064 0.33068 0.0
H550 H 0.04811 0.7553 0.34383 0.0
H551 H 0.00656 0.86757 0.33241 0.0
H552 H 0.89238 0.82194 0.34722 0.0
H553 H 0.95892 0.84267 0.34941 0.0
H554 H 0.99589 0.74367 0.32651 0.0
H555 H 0.92922 0.72322 0.32407 0.0
C556 C 0.09091 0.79823 0.34015 0.0
C557 C 0.0986 0.83635 0.33626 0.0
C558 C 0.05317 0.78493 0.34101 0.0
C559 C 0.02232 0.80959 0.33818 0.0
C560 C 0.02984 0.84804 0.3348 0.0
C561 C 0.06758 0.86127 0.33382 0.0
C562 C 0.91465 0.8046 0.34263 0.0
C563 C 0.90542 0.77125 0.33527 0.0
C564 C 0.95273 0.81643 0.34393 0.0
C565 C 0.98244 0.79497 0.33803 0.0
C566 C 0.97351 0.76061 0.33125 0.0
C567 C 0.93533 0.74888 0.32986 0.0
H568 H 0.47823 0.89621 0.60889 0.0
H569 H 0.46234 0.90309 0.56552 0.0
H570 H 0.49686 0.82895 0.60675 0.0
H571 H 0.48166 0.83587 0.56333 0.0
H572 H 0.47909 0.70425 0.5674 0.0
H573 H 0.45782 0.77062 0.5698 0.0
H574 H 0.55289 0.7931 0.59684 0.0
H575 H 0.57377 0.7263 0.59462 0.0
C576 C 0.47826 0.88322 0.59892 0.0
C577 C 0.46873 0.90485 0.58736 0.0
C578 C 0.48939 0.84487 0.59768 0.0
C579 C 0.4909 0.8273 0.58487 0.0
C580 C 0.48055 0.84866 0.57334 0.0
C581 C 0.46974 0.88711 0.57457 0.0
C582 C 0.49523 0.72325 0.57396 0.0
C583 C 0.52798 0.71008 0.5809 0.0
C584 C 0.48327 0.76132 0.57522 0.0
C585 C 0.50365 0.78694 0.58353 0.0
C586 C 0.53642 0.77382 0.59047 0.0
C587 C 0.54858 0.73578 0.58911 0.0
H588 H 0.42969 0.22129 0.83084 0.0
H589 H 0.39117 0.33606 0.84069 0.0
H590 H 0.4958 0.2424 0.8325 0.0
H591 H 0.45734 0.35773 0.84135 0.0
H592 H 0.58391 0.37898 0.85098 0.0
H593 H 0.51759 0.35601 0.8528 0.0
H594 H 0.5372 0.27978 0.81886 0.0
H595 H 0.60321 0.30189 0.81745 0.0
C596 C 0.43512 0.25096 0.83342 0.0
C597 C 0.40479 0.27704 0.83538 0.0
C598 C 0.47318 0.26322 0.83419 0.0
C599 C 0.4819 0.30194 0.83679 0.0
C600 C 0.4517 0.32768 0.83935 0.0
C601 C 0.41362 0.31531 0.83874 0.0
C602 C 0.57374 0.35737 0.84396 0.0
C603 C 0.59855 0.34188 0.83418 0.0
C604 C 0.53589 0.34422 0.84496 0.0
C605 C 0.52218 0.3157 0.83607 0.0
C606 C 0.54704 0.3009 0.82613 0.0
C607 C 0.58482 0.31368 0.82526 0.0
H608 H 0.91503 0.73237 0.92149 0.0
H609 H 0.03137 0.69577 0.91305 0.0
H610 H 0.9351 0.7988 0.91982 0.0
H611 H 0.05192 0.7622 0.91243 0.0
H612 H 0.07182 0.88865 0.90247 0.0
H613 H 0.0504 0.82182 0.90078 0.0
H614 H 0.97034 0.84151 0.93362 0.0
H615 H 0.99088 0.90805 0.93484 0.0
C616 C 0.94483 0.7383 0.91923 0.0
C617 C 0.97163 0.70844 0.91767 0.0
C618 C 0.95648 0.77654 0.91846 0.0
C619 C 0.99529 0.78588 0.91627 0.0
C620 C 0.02179 0.75611 0.91411 0.0
C621 C 0.01004 0.71786 0.9147 0.0
C622 C 0.04975 0.87835 0.9093 0.0
C623 C 0.03269 0.9033 0.91868 0.0
C624 C 0.03747 0.84022 0.90836 0.0
C625 C 0.00829 0.82639 0.91696 0.0
C626 C 0.99202 0.8514 0.92656 0.0
C627 C 0.00391 0.88946 0.92734 0.0
H628 H 0.42545 0.89577 0.17453 0.0
H629 H 0.38553 0.78788 0.15808 0.0
H630 H 0.49167 0.87404 0.17213 0.0
H631 H 0.45173 0.76597 0.15596 0.0
H632 H 0.56928 0.7278 0.17497 0.0
H633 H 0.50278 0.7491 0.1731 0.0
H634 H 0.54053 0.85482 0.15453 0.0
H635 H 0.60699 0.83329 0.15612 0.0
C636 C 0.43075 0.8677 0.17022 0.0
C637 C 0.40015 0.84338 0.16668 0.0
C638 C 0.46868 0.85524 0.16885 0.0
C639 C 0.47671 0.8182 0.16396 0.0
C640 C 0.44625 0.79442 0.15996 0.0
C641 C 0.40838 0.80695 0.16123 0.0
C642 C 0.56342 0.7552 0.17023 0.0
C643 C 0.59351 0.77906 0.16587 0.0
C644 C 0.52532 0.76742 0.16918 0.0
C645 C 0.51664 0.80375 0.16379 0.0
C646 C 0.54654 0.82696 0.15894 0.0
C647 C 0.58456 0.81465 0.1599 0.0
H648 H 0.52678 0.19099 0.41433 0.0
H649 H 0.41103 0.22972 0.42266 0.0
H650 H 0.5483 0.25682 0.4133 0.0
H651 H 0.43206 0.29571 0.42044 0.0
H652 H 0.48963 0.40536 0.43444 0.0
H653 H 0.46705 0.33944 0.4335 0.0
H654 H 0.54904 0.31534 0.40162 0.0
H655 H 0.57271 0.38141 0.40317 0.0
C656 C 0.50574 0.2134 0.41588 0.0
C657 C 0.46724 0.20468 0.41899 0.0
C658 C 0.51807 0.25139 0.41503 0.0
C659 C 0.49208 0.28172 0.41697 0.0
C660 C 0.45313 0.27307 0.41926 0.0
C661 C 0.44091 0.23505 0.42035 0.0
C662 C 0.50265 0.38587 0.42723 0.0
C663 C 0.53274 0.39818 0.41885 0.0
C664 C 0.48956 0.34818 0.42658 0.0
C665 C 0.50585 0.32205 0.41736 0.0
C666 C 0.5361 0.33452 0.40895 0.0
C667 C 0.54966 0.37222 0.40979 0.0
H668 H 0.91546 0.37525 0.65333 0.0
H669 H 0.89807 0.31977 0.69193 0.0
H670 H 0.98188 0.35065 0.65272 0.0
H671 H 0.96434 0.29606 0.69152 0.0
H672 H 0.09972 0.31333 0.69024 0.0
H673 H 0.03352 0.33727 0.69021 0.0
H674 H 0.01023 0.27273 0.65376 0.0
H675 H 0.0766 0.24798 0.65401 0.0
C676 C 0.92615 0.35817 0.6617 0.0
C677 C 0.90214 0.34921 0.67266 0.0
C678 C 0.9637 0.34393 0.66131 0.0
C679 C 0.97768 0.32143 0.67205 0.0
C680 C 0.95391 0.3133 0.68314 0.0
C681 C 0.91627 0.32677 0.68337 0.0
C682 C 0.08029 0.30423 0.68228 0.0
C683 C 0.09278 0.27892 0.67213 0.0
C684 C 0.04269 0.31783 0.68226 0.0
C685 C 0.0173 0.30694 0.67193 0.0
C686 C 0.02966 0.28161 0.66175 0.0
C687 C 0.06719 0.26728 0.66195 0.0
H688 H 0.09439 0.02079 0.03775 0.0
H689 H 0.05377 0.13392 0.02696 0.0
H690 H 0.10996 0.00839 0.01396 0.0
H691 H 0.06849 0.12145 0.00333 0.0
H692 H 0.09135 0.0949 0.96089 0.0
H693 H 0.11059 0.10672 0.98441 0.0
H694 H 0.06383 -0.00346 0.99596 0.0
H695 H 0.04543 0.98462 0.97262 0.0
C696 C 0.08993 0.04342 0.03038 0.0
C697 C 0.07216 0.07803 0.03415 0.0
C698 C 0.09862 0.03626 0.01674 0.0
C699 C 0.08985 0.06366 0.0067 0.0
C700 C 0.07583 0.09972 0.01075 0.0
C701 C 0.06703 0.10677 0.02432 0.0
C702 C 0.08633 0.07277 0.96841 0.0
C703 C 0.06622 0.03917 0.96499 0.0
C704 C 0.09718 0.07959 0.98188 0.0
C705 C 0.08829 0.05282 0.99211 0.0
C706 C 0.07144 0.01771 0.98838 0.0
C707 C 0.06047 0.01102 0.97498 0.0
H708 H 0.28415 0.90724 0.28956 0.0
H709 H 0.17193 0.86421 0.2787 0.0
H710 H 0.29569 0.9245 0.26587 0.0
H711 H 0.18359 0.88056 0.25516 0.0
H712 H 0.2091 0.90413 0.21281 0.0
H713 H 0.19708 0.9232 0.23632 0.0
H714 H 0.30874 0.87943 0.24774 0.0
H715 H 0.32082 0.86123 0.2244 0.0
C716 C 0.26149 0.90261 0.2822 0.0
C717 C 0.22747 0.88364 0.2859 0.0
C718 C 0.26817 0.91228 0.26862 0.0
C719 C 0.24088 0.90325 0.25856 0.0
C720 C 0.20523 0.88812 0.26259 0.0
C721 C 0.19865 0.87837 0.27611 0.0
C722 C 0.2315 0.8998 0.22029 0.0
C723 C 0.26557 0.8805 0.21685 0.0
C724 C 0.22457 0.91054 0.23376 0.0
C725 C 0.25169 0.90233 0.24397 0.0
C726 C 0.28726 0.88648 0.24019 0.0
C727 C 0.29407 0.87563 0.22679 0.0
H728 H 0.41048 0.08371 0.5428 0.0
H729 H 0.47774 0.98501 0.531 0.0
H730 H 0.38954 0.09185 0.51923 0.0
H731 H 0.45705 0.99306 0.50763 0.0
H732 H 0.44096 0.12698 0.47602 0.0
H733 H 0.43002 0.11352 0.4999 0.0
H734 H 0.40554 0.99508 0.4902 0.0
H735 H 0.41672 0.00867 0.46616 0.0
C736 C 0.41989 0.06314 0.53525 0.0
C737 C 0.44619 0.03409 0.53866 0.0
C738 C 0.40801 0.06786 0.52177 0.0
C739 C 0.42183 0.04325 0.51155 0.0
C740 C 0.44553 0.01229 0.51525 0.0
C741 C 0.45772 0.0079 0.52864 0.0
C742 C 0.43199 0.09835 0.47893 0.0
C743 C 0.43026 0.06875 0.46929 0.0
C744 C 0.42545 0.09067 0.49263 0.0
C745 C 0.41742 0.0531 0.49697 0.0
C746 C 0.41209 0.02423 0.48715 0.0
C747 C 0.41825 0.03205 0.47339 0.0
H748 H 0.28856 0.21753 0.71171 0.0
H749 H 0.17838 0.26336 0.72367 0.0
H750 H 0.3011 0.19877 0.73524 0.0
H751 H 0.19094 0.24535 0.74702 0.0
H752 H 0.21598 0.21471 0.78873 0.0
H753 H 0.20332 0.19909 0.76496 0.0
H754 H 0.31594 0.24133 0.75414 0.0
H755 H 0.32869 0.25613 0.77777 0.0
C756 C 0.2666 0.22258 0.71928 0.0
C757 C 0.23281 0.24251 0.71593 0.0
C758 C 0.27383 0.21202 0.73276 0.0
C759 C 0.24724 0.22098 0.74305 0.0
C760 C 0.21196 0.23769 0.73939 0.0
C761 C 0.2049 0.24841 0.72599 0.0
C762 C 0.23848 0.21935 0.78133 0.0
C763 C 0.27303 0.23733 0.78505 0.0
C764 C 0.23116 0.21062 0.7677 0.0
C765 C 0.25836 0.21956 0.75761 0.0
C766 C 0.29438 0.23385 0.76161 0.0
C767 C 0.30159 0.2427 0.77517 0.0
H768 H 0.67399 0.4102 0.78383 0.0
H769 H 0.7945 0.38415 0.78799 0.0
H770 H 0.68442 0.4299 0.7604 0.0
H771 H 0.80482 0.40023 0.76441 0.0
H772 H 0.82143 0.41753 0.72147 0.0
H773 H 0.80973 0.43447 0.74509 0.0
H774 H 0.6913 0.39831 0.74059 0.0
H775 H 0.70267 0.38504 0.71685 0.0
C776 C 0.70286 0.40938 0.77974 0.0
C777 C 0.73341 0.39554 0.78762 0.0
C778 C 0.70887 0.42013 0.76624 0.0
C779 C 0.74529 0.41567 0.76018 0.0
C780 C 0.77636 0.40461 0.76853 0.0
C781 C 0.77052 0.39514 0.78214 0.0
C782 C 0.79261 0.41477 0.7255 0.0
C783 C 0.76298 0.39988 0.71744 0.0
C784 C 0.78592 0.42388 0.73911 0.0
C785 C 0.74983 0.41666 0.74508 0.0
C786 C 0.71946 0.40473 0.73656 0.0
C787 C 0.7259 0.39691 0.72285 0.0
H788 H 0.78477 0.7274 0.2125 0.0
H789 H 0.67296 0.77187 0.22319 0.0
H790 H 0.79665 0.71169 0.23634 0.0
H791 H 0.6849 0.75678 0.24686 0.0
H792 H 0.71018 0.7276 0.28924 0.0
H793 H 0.698 0.71172 0.26543 0.0
H794 H 0.8092 0.75759 0.25465 0.0
H795 H 0.8214 0.77288 0.27828 0.0
C796 C 0.76233 0.7328 0.21987 0.0
C797 C 0.72823 0.7515 0.21605 0.0
C798 C 0.76919 0.72398 0.23352 0.0
C799 C 0.74193 0.73345 0.24352 0.0
C800 C 0.70643 0.74884 0.23945 0.0
C801 C 0.69971 0.75786 0.22587 0.0
C802 C 0.73239 0.73322 0.28181 0.0
C803 C 0.76645 0.75209 0.28555 0.0
C804 C 0.72538 0.72428 0.26818 0.0
C805 C 0.75246 0.73376 0.25812 0.0
C806 C 0.78783 0.74957 0.26211 0.0
C807 C 0.79469 0.75874 0.27566 0.0
H808 H 0.5933 0.59066 0.46085 0.0
H809 H 0.54817 0.48 0.47252 0.0
H810 H 0.61144 0.603 0.48444 0.0
H811 H 0.56556 0.49241 0.49593 0.0
H812 H 0.55052 0.62969 0.52641 0.0
H813 H 0.56731 0.61724 0.50295 0.0
H814 H 0.61094 0.50547 0.5142 0.0
H815 H 0.59339 0.51789 0.53783 0.0
C816 C 0.58827 0.56855 0.46838 0.0
C817 C 0.56862 0.53471 0.46493 0.0
C818 C 0.59851 0.57566 0.48188 0.0
C819 C 0.58948 0.54893 0.49211 0.0
C820 C 0.57323 0.51356 0.48835 0.0
C821 C 0.56284 0.50658 0.47492 0.0
C822 C 0.56468 0.60287 0.52395 0.0
C823 C 0.56988 0.57443 0.53388 0.0
C824 C 0.57469 0.59584 0.51049 0.0
C825 C 0.58995 0.5601 0.50665 0.0
C826 C 0.59871 0.53309 0.51683 0.0
C827 C 0.58886 0.54026 0.53036 0.0
H828 H 0.95083 0.6332 0.9756 0.0
H829 H 0.90749 0.52159 0.96421 0.0
H830 H 0.93348 0.62107 0.99902 0.0
H831 H 0.88928 0.50958 0.98778 0.0
H832 H 0.94966 0.48363 0.02979 0.0
H833 H 0.93325 0.49604 0.00629 0.0
H834 H 0.88905 0.60767 0.01741 0.0
H835 H 0.90628 0.59532 0.04109 0.0
C836 C 0.93647 0.6065 0.97804 0.0
C837 C 0.9313 0.57801 0.96813 0.0
C838 C 0.92614 0.59965 0.99149 0.0
C839 C 0.9105 0.56408 0.99534 0.0
C840 C 0.90183 0.53705 0.98517 0.0
C841 C 0.91206 0.544 0.97165 0.0
C842 C 0.9355 0.51043 0.02729 0.0
C843 C 0.92998 0.53882 0.03721 0.0
C844 C 0.9257 0.51744 0.0138 0.0
C845 C 0.9103 0.5531 0.00992 0.0
C846 C 0.90139 0.58011 0.02007 0.0
C847 C 0.91106 0.57298 0.03363 0.0
H848 H 0.16805 0.91238 0.16198 0.0
H849 H 0.24797 0.89872 0.12878 0.0
H850 H 0.12709 0.95214 0.14753 0.0
H851 H 0.20736 0.93864 0.11448 0.0
H852 H 0.10418 0.97793 0.08883 0.0
H853 H 0.14405 0.93686 0.10323 0.0
H854 H 0.12886 0.01573 0.13661 0.0
H855 H 0.08889 0.0564 0.12238 0.0
C856 C 0.17697 0.91796 0.15165 0.0
C857 C 0.21128 0.90237 0.14655 0.0
C858 C 0.15357 0.94081 0.14338 0.0
C859 C 0.16396 0.94842 0.12985 0.0
C860 C 0.19829 0.93287 0.12479 0.0
C861 C 0.2217 0.91021 0.13305 0.0
C862 C 0.10943 0.98651 0.09923 0.0
C863 C 0.09334 0.02044 0.10444 0.0
C864 C 0.13234 0.96306 0.10746 0.0
C865 C 0.13946 0.973 0.12108 0.0
C866 C 0.12345 0.00697 0.12624 0.0
C867 C 0.10075 0.03043 0.11802 0.0
H868 H 0.32973 0.91282 0.34032 0.0
H869 H 0.25371 0.89168 0.37416 0.0
H870 H 0.37035 0.95245 0.35491 0.0
H871 H 0.29388 0.93157 0.3886 0.0
H872 H 0.39759 0.97168 0.41376 0.0
H873 H 0.35763 0.93123 0.39921 0.0
H874 H 0.36802 0.01411 0.36682 0.0
H875 H 0.4082 0.05411 0.38119 0.0
C876 C 0.32157 0.91677 0.35083 0.0
C877 C 0.28849 0.89906 0.35606 0.0
C878 C 0.34476 0.93956 0.35918 0.0
C879 C 0.33539 0.94504 0.37294 0.0
C880 C 0.30222 0.92746 0.37812 0.0
C881 C 0.27904 0.9048 0.36979 0.0
C882 C 0.39126 0.98128 0.40355 0.0
C883 C 0.40616 0.01609 0.39865 0.0
C884 C 0.36827 0.95818 0.39522 0.0
C885 C 0.35979 0.9694 0.38183 0.0
C886 C 0.3745 0.00434 0.377 0.0
C887 C 0.39733 0.0274 0.3853 0.0
H888 H 0.43461 0.13961 0.60374 0.0
H889 H 0.33334 0.07345 0.59392 0.0
H890 H 0.39785 0.17604 0.6204 0.0
H891 H 0.29681 0.10941 0.6107 0.0
H892 H 0.23442 0.21222 0.62908 0.0
H893 H 0.27178 0.17327 0.61357 0.0
H894 H 0.36531 0.17039 0.6424 0.0
H895 H 0.32791 0.2105 0.65795 0.0
C896 C 0.40458 0.13267 0.60518 0.0
C897 C 0.38691 0.10363 0.59747 0.0
C898 C 0.38357 0.15341 0.6148 0.0
C899 C 0.34441 0.14561 0.61692 0.0
C900 C 0.32682 0.11649 0.60922 0.0
C901 C 0.34778 0.09583 0.59959 0.0
C902 C 0.26288 0.20321 0.6322 0.0
C903 C 0.27821 0.21461 0.64476 0.0
C904 C 0.28424 0.18059 0.6233 0.0
C905 C 0.32154 0.16864 0.62673 0.0
C906 C 0.33679 0.17949 0.6394 0.0
C907 C 0.31528 0.2022 0.64835 0.0
H908 H 0.08859 0.05973 0.87688 0.0
H909 H 0.10213 0.13672 0.91094 0.0
H910 H 0.12958 0.10083 0.86319 0.0
H911 H 0.14305 0.17816 0.8971 0.0
H912 H 0.24909 0.21618 0.87275 0.0
H913 H 0.20722 0.17592 0.88641 0.0
H914 H 0.12886 0.16526 0.85263 0.0
H915 H 0.17107 0.20547 0.83882 0.0
C916 C 0.1003 0.08545 0.88147 0.0
C917 C 0.09212 0.09491 0.89503 0.0
C918 C 0.12357 0.10915 0.87356 0.0
C919 C 0.13942 0.14279 0.87903 0.0
C920 C 0.13148 0.15222 0.89263 0.0
C921 C 0.10798 0.12856 0.90055 0.0
C922 C 0.22298 0.20526 0.86818 0.0
C923 C 0.21347 0.214 0.85466 0.0
C924 C 0.19885 0.18239 0.87607 0.0
C925 C 0.16468 0.16755 0.87063 0.0
C926 C 0.1552 0.17604 0.85708 0.0
C927 C 0.17931 0.19913 0.84917 0.0
H928 H 0.90706 0.0624 0.86994 0.0
H929 H 0.84127 0.06212 0.90706 0.0
H930 H 0.85311 0.09073 0.85799 0.0
H931 H 0.78638 0.08902 0.89496 0.0
H932 H 0.75475 0.21031 0.87668 0.0
H933 H 0.78198 0.15456 0.88786 0.0
H934 H 0.78904 0.0959 0.84929 0.0
H935 H 0.76306 0.15268 0.83803 0.0
C936 C 0.88051 0.06715 0.87543 0.0
C937 C 0.87871 0.06102 0.88948 0.0
C938 C 0.8493 0.08301 0.86854 0.0
C939 C 0.81559 0.09296 0.87559 0.0
C940 C 0.81223 0.08241 0.88931 0.0
C941 C 0.84359 0.06667 0.89622 0.0
C942 C 0.76119 0.18511 0.87065 0.0
C943 C 0.75773 0.18616 0.85647 0.0
C944 C 0.77642 0.15286 0.87707 0.0
C945 C 0.78845 0.12093 0.86943 0.0
C946 C 0.78074 0.12033 0.85542 0.0
C947 C 0.76556 0.15274 0.84898 0.0
H948 H 0.65445 0.0598 0.6018 0.0
H949 H 0.58351 0.07765 0.63716 0.0
H950 H 0.70956 0.0862 0.61389 0.0
H951 H 0.63807 0.10515 0.64909 0.0
H952 H 0.73288 0.16066 0.6689 0.0
H953 H 0.70262 0.10429 0.65877 0.0
H954 H 0.71756 0.15413 0.61897 0.0
H955 H 0.74848 0.20972 0.62908 0.0
C956 C 0.65092 0.06816 0.6123 0.0
C957 C 0.61452 0.0674 0.61847 0.0
C958 C 0.68244 0.08352 0.61919 0.0
C959 C 0.67807 0.09838 0.63236 0.0
C960 C 0.64258 0.09383 0.63898 0.0
C961 C 0.61111 0.07851 0.6321 0.0
C962 C 0.73121 0.15869 0.65795 0.0
C963 C 0.74237 0.18974 0.64976 0.0
C964 C 0.71361 0.12657 0.65216 0.0
C965 C 0.707 0.12507 0.6381 0.0
C966 C 0.72228 0.1542 0.62983 0.0
C967 C 0.73974 0.18627 0.63561 0.0
H968 H 0.74991 0.89789 0.38365 0.0
H969 H 0.74789 0.9634 0.34645 0.0
H970 H 0.71998 0.95107 0.39553 0.0
H971 H 0.71973 0.01749 0.35849 0.0
H972 H 0.65707 0.04134 0.41537 0.0
H973 H 0.71369 0.01514 0.40412 0.0
H974 H 0.65421 0.02061 0.36565 0.0
H975 H 0.59858 0.04818 0.37681 0.0
C976 C 0.74428 0.92418 0.37812 0.0
C977 C 0.75029 0.92603 0.36405 0.0
C978 C 0.72752 0.95497 0.38497 0.0
C979 C 0.71665 0.98833 0.37788 0.0
C980 C 0.72702 0.99187 0.36416 0.0
C981 C 0.74355 0.96094 0.35729 0.0
C982 C 0.65675 0.03843 0.40443 0.0
C983 C 0.62316 0.04604 0.39698 0.0
C984 C 0.68908 0.02309 0.39801 0.0
C985 C 0.68826 0.01499 0.38403 0.0
C986 C 0.65607 0.02653 0.37641 0.0
C987 C 0.62389 0.04194 0.38282 0.0
H988 H 0.75199 0.90415 0.11984 0.0
H989 H 0.75393 0.9697 0.15701 0.0
H990 H 0.78112 0.95759 0.10786 0.0
H991 H 0.78166 0.02401 0.1449 0.0
H992 H 0.90296 0.05358 0.12612 0.0
H993 H 0.84739 0.02665 0.13751 0.0
H994 H 0.78654 0.02207 0.0993 0.0
H995 H 0.84304 0.04781 0.08782 0.0
C996 C 0.75741 0.93054 0.12533 0.0
C997 C 0.75162 0.93241 0.1394 0.0
C998 C 0.77372 0.96144 0.11844 0.0
C999 C 0.78447 0.99487 0.12549 0.0
C1000 C 0.77438 -0.00164 0.13924 0.0
C1001 C 0.75817 0.96733 0.14616 0.0
C1002 C 0.87734 0.04774 0.12022 0.0
C1003 C 0.87761 0.05191 0.10607 0.0
C1004 C 0.84522 0.0327 0.12676 0.0
C1005 C 0.81267 0.02155 0.11927 0.0
C1006 C 0.81143 0.02977 0.10531 0.0
C1007 C 0.84369 0.0448 0.09875 0.0
H1008 H 0.66869 0.41881 0.66285 0.0
H1009 H 0.74716 0.40096 0.62947 0.0
H1010 H 0.62763 0.45761 0.64811 0.0
H1011 H 0.7065 0.43998 0.61488 0.0
H1012 H 0.6029 0.47785 0.58921 0.0
H1013 H 0.64315 0.43805 0.60389 0.0
H1014 H 0.62907 0.51988 0.63643 0.0
H1015 H 0.58863 0.55928 0.62191 0.0
C1016 C 0.67727 0.42326 0.65241 0.0
C1017 C 0.71121 0.40677 0.64735 0.0
C1018 C 0.65383 0.44559 0.64398 0.0
C1019 C 0.66378 0.45178 0.63031 0.0
C1020 C 0.69774 0.43532 0.62529 0.0
C1021 C 0.72119 0.41316 0.63371 0.0
C1022 C 0.60849 0.48737 0.59948 0.0
C1023 C 0.59251 0.52174 0.60437 0.0
C1024 C 0.63163 0.46464 0.60788 0.0
C1025 C 0.63917 0.47575 0.62135 0.0
C1026 C 0.62335 0.51021 0.62618 0.0
C1027 C 0.60038 0.53294 0.6178 0.0
H1028 H 0.91657 0.55374 0.88039 0.0
H1029 H 0.90147 0.47564 0.91404 0.0
H1030 H 0.87498 0.51399 0.86645 0.0
H1031 H 0.86012 0.43535 0.89993 0.0
H1032 H 0.75504 0.39786 0.87497 0.0
H1033 H 0.79675 0.43715 0.88909 0.0
H1034 H 0.8749 0.45124 0.85543 0.0
H1035 H 0.83278 0.41237 0.84117 0.0
C1036 C 0.90445 0.52801 0.88482 0.0
C1037 C 0.91239 0.51785 0.89835 0.0
C1038 C 0.88079 0.50507 0.87678 0.0
C1039 C 0.86442 0.47141 0.88204 0.0
C1040 C 0.87206 0.46133 0.89561 0.0
C1041 C 0.89584 0.48431 0.90368 0.0
C1042 C 0.78108 0.40937 0.87054 0.0
C1043 C 0.79055 0.40201 0.85692 0.0
C1044 C 0.80512 0.43166 0.87869 0.0
C1045 C 0.83918 0.44722 0.87341 0.0
C1046 C 0.84863 0.43998 0.85976 0.0
C1047 C 0.82457 0.41761 0.8516 0.0
H1048 H 0.9098 0.56242 0.12541 0.0
H1049 H 0.89436 0.63691 0.09075 0.0
H1050 H 0.86854 0.60394 0.13888 0.0
H1051 H 0.85324 0.67876 0.10435 0.0
H1052 H 0.7478 0.71805 0.12859 0.0
H1053 H 0.7894 0.67664 0.11525 0.0
H1054 H 0.86872 0.66913 0.14886 0.0
H1055 H 0.82676 0.71048 0.16236 0.0
C1056 C 0.89762 0.58767 0.12064 0.0
C1057 C 0.90535 0.59631 0.10697 0.0
C1058 C 0.87419 0.61161 0.12842 0.0
C1059 C 0.85774 0.64467 0.1227 0.0
C1060 C 0.86525 0.65326 0.10901 0.0
C1061 C 0.88889 0.62937 0.10123 0.0
C1062 C 0.77404 0.70755 0.13319 0.0
C1063 C 0.78395 0.71761 0.14656 0.0
C1064 C 0.79803 0.68402 0.12548 0.0
C1065 C 0.83242 0.66979 0.13096 0.0
C1066 C 0.84222 0.67945 0.14439 0.0
C1067 C 0.81825 0.70321 0.15211 0.0
H1068 H 0.66278 0.73379 0.34746 0.0
H1069 H 0.76438 0.67945 0.36376 0.0
H1070 H 0.62248 0.69242 0.36176 0.0
H1071 H 0.72417 0.63776 0.37776 0.0
H1072 H 0.63149 0.54262 0.38627 0.0
H1073 H 0.67138 0.58432 0.37215 0.0
H1074 H 0.61581 0.68402 0.3892 0.0
H1075 H 0.57627 0.64226 0.40359 0.0
C1076 C 0.67641 0.71268 0.35394 0.0
C1077 C 0.71663 0.70966 0.3545 0.0
C1078 C 0.65344 0.68935 0.36219 0.0
C1079 C 0.67037 0.66213 0.37086 0.0
C1080 C 0.7105 0.65852 0.37114 0.0
C1081 C 0.73343 0.68233 0.36315 0.0
C1082 C 0.62803 0.57345 0.38708 0.0
C1083 C 0.60103 0.58927 0.39607 0.0
C1084 C 0.6508 0.59722 0.37902 0.0
C1085 C 0.64641 0.63724 0.37957 0.0
C1086 C 0.61946 0.65318 0.38855 0.0
C1087 C 0.5972 0.62937 0.39686 0.0
H1088 H 0.40864 0.53192 0.36988 0.0
H1089 H 0.35273 0.57769 0.4054 0.0
H1090 H 0.35861 0.55978 0.35555 0.0
H1091 H 0.30379 0.60713 0.39117 0.0
H1092 H 0.2257 0.66986 0.36382 0.0
H1093 H 0.25301 0.61234 0.37462 0.0
H1094 H 0.35631 0.62652 0.35072 0.0
H1095 H 0.32867 0.68271 0.33998 0.0
C1096 C 0.38488 0.54692 0.37461 0.0
C1097 C 0.38462 0.55324 0.38866 0.0
C1098 C 0.35639 0.56306 0.36644 0.0
C1099 C 0.32785 0.58666 0.37217 0.0
C1100 C 0.32522 0.58911 0.38639 0.0
C1101 C 0.35336 0.57235 0.39457 0.0
C1102 C 0.25374 0.65967 0.36069 0.0
C1103 C 0.27545 0.68047 0.35124 0.0
C1104 C 0.26943 0.62698 0.36686 0.0
C1105 C 0.30693 0.61483 0.36359 0.0
C1106 C 0.32717 0.63442 0.35336 0.0
C1107 C 0.31159 0.66691 0.34729 0.0
H1108 H 0.24501 0.7127 0.12396 0.0
H1109 H 0.23992 0.65199 0.1621 0.0
H1110 H 0.21723 0.65768 0.11251 0.0
H1111 H 0.2135 0.596 0.15055 0.0
H1112 H 0.09406 0.56361 0.13081 0.0
H1113 H 0.14873 0.59149 0.14246 0.0
H1114 H 0.21259 0.59259 0.10486 0.0
H1115 H 0.15696 0.56617 0.09308 0.0
C1116 C 0.23918 0.687 0.12981 0.0
C1117 C 0.24368 0.68697 0.14395 0.0
C1118 C 0.22365 0.65518 0.12322 0.0
C1119 C 0.21238 0.62261 0.13067 0.0
C1120 C 0.22119 0.62095 0.14458 0.0
C1121 C 0.23664 0.65292 0.15118 0.0
C1122 C 0.12013 0.56892 0.12511 0.0
C1123 C 0.12089 0.56369 0.11099 0.0
C1124 C 0.15176 0.5845 0.13181 0.0
C1125 C 0.18486 0.59504 0.12453 0.0
C1126 C 0.18722 0.58547 0.11069 0.0
C1127 C 0.15543 0.57002 0.10397 0.0
H1128 H 0.13205 0.58553 0.88492 0.0
H1129 H 0.1359 0.48806 0.9118 0.0
H1130 H 0.18681 0.55953 0.87218 0.0
H1131 H 0.18915 0.46135 0.8991 0.0
H1132 H 0.27682 0.40886 0.87595 0.0
H1133 H 0.25216 0.45959 0.89069 0.0
H1134 H 0.18918 0.50711 0.85675 0.0
H1135 H 0.2158 0.45772 0.84204 0.0
C1136 C 0.14546 0.55912 0.88828 0.0
C1137 C 0.13009 0.53851 0.89921 0.0
C1138 C 0.17653 0.54407 0.88099 0.0
C1139 C 0.19229 0.50813 0.8845 0.0
C1140 C 0.17843 0.48932 0.89616 0.0
C1141 C 0.14764 0.50438 0.90341 0.0
C1142 C 0.25908 0.4313 0.87161 0.0
C1143 C 0.24784 0.42954 0.85798 0.0
C1144 C 0.24466 0.46012 0.88002 0.0
C1145 C 0.21776 0.48682 0.87501 0.0
C1146 C 0.20989 0.48725 0.861 0.0
C1147 C 0.22498 0.45886 0.85254 0.0
H1148 H 0.25487 0.46545 0.65804 0.0
H1149 H 0.25005 0.40093 0.62068 0.0
H1150 H 0.28241 0.51981 0.64589 0.0
H1151 H 0.27908 0.45431 0.60866 0.0
H1152 H 0.34104 0.5441 0.58844 0.0
H1153 H 0.28504 0.5184 0.60018 0.0
H1154 H 0.3474 0.52281 0.63809 0.0
H1155 H 0.40243 0.54997 0.62646 0.0
C1156 C 0.25844 0.46333 0.64715 0.0
C1157 C 0.25114 0.42865 0.64033 0.0
C1158 C 0.27458 0.49437 0.64021 0.0
C1159 C 0.28388 0.49113 0.62638 0.0
C1160 C 0.27235 0.458 0.6193 0.0
C1161 C 0.25607 0.42712 0.62622 0.0
C1162 C 0.34216 0.54107 0.59936 0.0
C1163 C 0.37637 0.54824 0.60651 0.0
C1164 C 0.31017 0.52603 0.60608 0.0
C1165 C 0.31195 0.51774 0.62002 0.0
C1166 C 0.3448 0.52887 0.62736 0.0
C1167 C 0.37663 0.54402 0.62067 0.0
H1168 H 0.95659 0.89867 0.04589 0.0
H1169 H 0.03407 0.90876 0.08009 0.0
H1170 H 0.95934 0.82926 0.04777 0.0
H1171 H 0.0375 0.83916 0.08156 0.0
H1172 H 0.0676 0.71506 0.06666 0.0
H1173 H 0.0632 0.7851 0.0664 0.0
H1174 H 0.93946 0.77729 0.06489 0.0
H1175 H 0.94395 0.70708 0.06512 0.0
C1176 C 0.97401 0.88642 0.05387 0.0
C1177 C 0.99503 0.90988 0.06285 0.0
C1178 C 0.97556 0.84647 0.05491 0.0
C1179 C -0.00147 0.82891 0.06482 0.0
C1180 C 0.01976 0.85204 0.07375 0.0
C1181 C 0.01786 0.89205 0.07284 0.0
C1182 C 0.0395 0.72835 0.06626 0.0
C1183 C 0.00611 0.70573 0.06583 0.0
C1184 C 0.03698 0.76836 0.06624 0.0
C1185 C 0.00101 0.78653 0.06559 0.0
C1186 C 0.96756 0.76394 0.0653 0.0
C1187 C 0.97008 0.72388 0.06553 0.0
H1188 H 0.40782 0.74675 0.31626 0.0
H1189 H 0.40102 0.86937 0.31107 0.0
H1190 H 0.47739 0.75096 0.31858 0.0
H1191 H 0.47083 0.87391 0.3125 0.0
H1192 H 0.5933 0.8769 0.32704 0.0
H1193 H 0.52357 0.87126 0.32652 0.0
H1194 H 0.53434 0.76023 0.30714 0.0
H1195 H 0.60417 0.76538 0.30855 0.0
C1196 C 0.42149 0.77458 0.31544 0.0
C1197 C 0.39929 0.80775 0.31347 0.0
C1198 C 0.4614 0.77707 0.31668 0.0
C1199 C 0.48016 0.81279 0.31568 0.0
C1200 C 0.45764 0.84597 0.31363 0.0
C1201 C 0.41763 0.84348 0.31271 0.0
C1202 C 0.58052 0.8513 0.32274 0.0
C1203 C 0.60387 0.82159 0.31781 0.0
C1204 C 0.54055 0.84809 0.32233 0.0
C1205 C 0.52291 0.81542 0.31667 0.0
C1206 C 0.54658 0.78556 0.31181 0.0
C1207 C 0.58662 0.78846 0.31252 0.0
H1208 H 0.45326 0.20226 0.56264 0.0
H1209 H 0.57607 0.21147 0.56784 0.0
H1210 H 0.44828 0.27224 0.56184 0.0
H1211 H 0.57118 0.28141 0.56688 0.0
H1212 H 0.53697 0.40513 0.57994 0.0
H1213 H 0.54321 0.33546 0.58087 0.0
H1214 H 0.46903 0.32492 0.54599 0.0
H1215 H 0.46343 0.39432 0.54476 0.0
C1216 C 0.47914 0.21924 0.56365 0.0
C1217 C 0.51505 0.20136 0.56525 0.0
C1218 C 0.47635 0.25926 0.56309 0.0
C1219 C 0.50937 0.28228 0.56428 0.0
C1220 C 0.54523 0.26442 0.56602 0.0
C1221 C 0.54807 0.22439 0.56643 0.0
C1222 C 0.52234 0.38815 0.57234 0.0
C1223 C 0.49949 0.40571 0.56231 0.0
C1224 C 0.52586 0.34815 0.57292 0.0
C1225 C 0.50638 0.32475 0.56356 0.0
C1226 C 0.48385 0.34218 0.55348 0.0
C1227 C 0.48061 0.38211 0.55281 0.0
H1228 H 0.09541 0.37193 0.80474 0.0
H1229 H 0.10192 0.25998 0.8235 0.0
H1230 H 0.02559 0.36925 0.80571 0.0
H1231 H 0.03204 0.25796 0.82491 0.0
H1232 H 0.90862 0.24833 0.80818 0.0
H1233 H 0.97849 0.25161 0.80896 0.0
H1234 H 0.97175 0.37009 0.82171 0.0
H1235 H 0.90175 0.36709 0.82053 0.0
C1236 C 0.082 0.34679 0.80911 0.0
C1237 C 0.10435 0.31604 0.81394 0.0
C1238 C 0.04195 0.34547 0.80981 0.0
C1239 C 0.02327 0.31336 0.81536 0.0
C1240 C 0.04559 0.28292 0.82044 0.0
C1241 C 0.08567 0.28427 0.81976 0.0
C1242 C 0.92204 0.27513 0.81108 0.0
C1243 C 0.89963 0.30752 0.8142 0.0
C1244 C 0.96208 0.27688 0.81169 0.0
C1245 C 0.98067 0.31111 0.81539 0.0
C1246 C 0.95827 0.34339 0.8187 0.0
C1247 C 0.91818 0.34158 0.81815 0.0
H1248 H 0.93484 0.21589 0.92879 0.0
H1249 H 0.0504 0.20378 0.94386 0.0
H1250 H 0.94109 0.28551 0.92935 0.0
H1251 H 0.05637 0.27349 0.94534 0.0
H1252 H 0.06842 0.39997 0.9357 0.0
H1253 H 0.06325 0.33044 0.93364 0.0
H1254 H 0.94232 0.33778 0.94361 0.0
H1255 H 0.9476 0.40752 0.94477 0.0
C1256 C 0.96147 0.22839 0.93236 0.0
C1257 C 0.99213 0.20476 0.93631 0.0
C1258 C 0.96506 0.26827 0.9328 0.0
C1259 C -0.00086 0.28549 0.93752 0.0
C1260 C 0.02991 0.26154 0.94142 0.0
C1261 C 0.02655 0.22159 0.94066 0.0
C1262 C 0.04085 0.38647 0.93745 0.0
C1263 C 0.00839 0.40883 0.9404 0.0
C1264 C 0.03782 0.3466 0.93634 0.0
C1265 C 0.00235 0.32812 0.93848 0.0
C1266 C 0.96995 0.3508 0.94158 0.0
C1267 C 0.97289 0.39074 0.94236 0.0
H1268 H 0.08926 0.74528 0.18185 0.0
H1269 H 0.09862 0.865 0.19232 0.0
H1270 H 0.01962 0.75124 0.18056 0.0
H1271 H 0.02879 0.87099 0.1919 0.0
H1272 H 0.90496 0.88012 0.17879 0.0
H1273 H 0.97465 0.87384 0.17846 0.0
H1274 H 0.96417 0.75719 0.19318 0.0
H1275 H 0.89435 0.76329 0.19264 0.0
C1276 C 0.07616 0.77279 0.18404 0.0
C1277 C 0.09908 0.80468 0.1872 0.0
C1278 C 0.03622 0.77626 0.18339 0.0
C1279 C 0.01818 0.81158 0.1862 0.0
C1280 C 0.04142 0.84348 0.1894 0.0
C1281 C 0.08144 0.84014 0.18973 0.0
C1282 C 0.91779 0.8532 0.18192 0.0
C1283 C 0.89451 0.82219 0.18576 0.0
C1284 C 0.95774 0.84958 0.18183 0.0
C1285 C 0.97543 0.81505 0.18588 0.0
C1286 C 0.95184 0.784 0.18973 0.0
C1287 C 0.91182 0.78743 0.18951 0.0
H1288 H 0.5374 0.70319 0.42044 0.0
H1289 H 0.45247 0.70832 0.45244 0.0
H1290 H 0.54245 0.77302 0.4209 0.0
H1291 H 0.45684 0.77779 0.45248 0.0
H1292 H 0.4447 0.90213 0.43751 0.0
H1293 H 0.44076 0.83215 0.43599 0.0
H1294 H 0.56449 0.82473 0.43794 0.0
H1295 H 0.56839 0.89475 0.4394 0.0
C1296 C 0.51994 0.71892 0.42761 0.0
C1297 C 0.49436 0.69974 0.43635 0.0
C1298 C 0.52278 0.75898 0.42782 0.0
C1299 C 0.49979 0.78072 0.43665 0.0
C1300 C 0.47441 0.76172 0.44541 0.0
C1301 C 0.47189 0.72177 0.44533 0.0
C1302 C 0.47101 0.88554 0.43749 0.0
C1303 C 0.50683 0.90379 0.43865 0.0
C1304 C 0.46877 0.84556 0.43672 0.0
C1305 C 0.50233 0.82313 0.43689 0.0
C1306 C 0.5382 0.8414 0.43772 0.0
C1307 C 0.54041 0.88136 0.43869 0.0
H1308 H 0.59662 0.37037 0.69147 0.0
H1309 H 0.59549 0.24819 0.68474 0.0
H1310 H 0.52681 0.37212 0.68966 0.0
H1311 H 0.52587 0.24969 0.68198 0.0
H1312 H 0.39835 0.25869 0.69255 0.0
H1313 H 0.46841 0.25542 0.69341 0.0
H1314 H 0.47474 0.36869 0.67542 0.0
H1315 H 0.40484 0.37238 0.67555 0.0
C1316 C 0.58123 0.34401 0.68938 0.0
C1317 C 0.60109 0.30917 0.68832 0.0
C1318 C 0.54125 0.34489 0.68822 0.0
C1319 C 0.52034 0.31101 0.68562 0.0
C1320 C 0.54064 0.27624 0.68428 0.0
C1321 C 0.58054 0.2753 0.68578 0.0
C1322 C 0.41504 0.28259 0.68873 0.0
C1323 C 0.39661 0.31585 0.68409 0.0
C1324 C 0.45516 0.2808 0.68913 0.0
C1325 C 0.47759 0.31196 0.68459 0.0
C1326 C 0.45871 0.34457 0.67939 0.0
C1327 C 0.41869 0.34665 0.67933 0.0
loop_
_geom_bond_atom_site_label_1
_geom_bond_atom_site_label_2
_geom_bond_distance
_geom_bond_site_symmetry_2
_ccdc_geom_bond_type
C0 C1 1.351 . S
C0 N3 1.368 1_655 S
C0 H5 0.931 . S
C1 C0 1.351 . S
C1 N2 1.373 1_655 S
C1 H29 0.930 . S
N2 C1 1.373 1_455 S
N2 C4 1.340 . S
N3 C0 1.368 1_455 S
N3 C4 1.321 . S
N3 Co6 2.135 1_565 S
C4 N2 1.340 . S
C4 N3 1.321 . S
C4 H28 0.930 . S
H5 C0 0.931 . S
Co6 N3 2.135 1_545 S
Co6 N9 2.121 . S
Co6 O14 2.055 . S
Co6 O17 2.039 . S
Co6 N20 2.140 1_455 S
C7 O8 1.227 . S
C7 O17 1.265 . S
O8 C7 1.227 . S
N9 Co6 2.121 . S
N9 C11 1.375 . S
N9 C12 1.313 . S
C10 C11 1.338 . S
C10 N13 1.377 . S
C10 H30 0.930 . S
C11 N9 1.375 . S
C11 C10 1.338 . S
C11 H15 0.931 . S
C12 N9 1.313 . S
C12 N13 1.344 . S
C12 H16 0.930 . S
N13 C10 1.377 . S
N13 C12 1.344 . S
O14 Co6 2.055 . S
O14 C18 1.253 . S
H15 C11 0.931 . S
H16 C12 0.930 . S
O17 Co6 2.039 . S
O17 C7 1.265 . S
C18 O14 1.253 . S
C18 O19 1.227 1_455 S
O19 C18 1.227 1_655 S
N20 Co6 2.140 1_655 S
N20 C23 1.346 . S
N20 C24 1.345 . S
C21 C22 1.387 . S
C21 C25 1.391 . S
C22 C21 1.387 . S
C22 C23 1.369 . S
C22 H31 0.929 1_545 S
C23 N20 1.346 . S
C23 C22 1.369 . S
C23 H26 0.928 1_545 S
C24 N20 1.345 . S
C24 C25 1.371 . S
C24 H27 0.931 . S
C25 C21 1.391 . S
C25 C24 1.371 . S
C25 H32 0.930 . S
H26 C23 0.928 1_565 S
H27 C24 0.931 . S
H28 C4 0.930 . S
H29 C1 0.930 . S
H30 C10 0.930 . S
H31 C22 0.929 1_565 S
H32 C25 0.930 . S
C33 C34 1.351 . S
C33 N36 1.368 . S
C33 H38 0.931 . S
C34 C33 1.351 . S
C34 N35 1.373 . S
C34 H62 0.930 . S
N35 C34 1.373 . S
N35 C37 1.340 . S
N36 C33 1.368 . S
N36 C37 1.321 . S
N36 Co39 2.135 . S
C37 N35 1.340 . S
C37 N36 1.321 . S
C37 H61 0.930 . S
H38 C33 0.931 . S
Co39 N36 2.135 . S
Co39 N42 2.121 . S
Co39 O47 2.055 . S
Co39 O50 2.039 . S
Co39 N53 2.140 . S
C40 O41 1.227 . S
C40 O50 1.265 . S
O41 C40 1.227 . S
N42 Co39 2.121 . S
N42 C44 1.375 . S
N42 C45 1.313 . S
C43 C44 1.338 . S
C43 N46 1.377 . S
C43 H63 0.930 . S
C44 N42 1.375 . S
C44 C43 1.338 . S
C44 H48 0.931 . S
C45 N42 1.313 . S
C45 N46 1.344 . S
C45 H49 0.930 . S
N46 C43 1.377 . S
N46 C45 1.344 . S
O47 Co39 2.055 . S
O47 C51 1.253 . S
H48 C44 0.931 . S
H49 C45 0.930 . S
O50 Co39 2.039 . S
O50 C40 1.265 . S
C51 O47 1.253 . S
C51 O52 1.227 . S
O52 C51 1.227 . S
N53 Co39 2.140 . S
N53 C56 1.346 . S
N53 C57 1.345 . S
C54 C55 1.387 . S
C54 C58 1.391 . S
C55 C54 1.387 . S
C55 C56 1.369 . S
C55 H64 0.929 . S
C56 N53 1.346 . S
C56 C55 1.369 . S
C56 H59 0.928 . S
C57 N53 1.345 . S
C57 C58 1.371 . S
C57 H60 0.931 . S
C58 C54 1.391 . S
C58 C57 1.371 . S
C58 H65 0.930 . S
H59 C56 0.928 . S
H60 C57 0.931 . S
H61 C37 0.930 . S
H62 C34 0.930 . S
H63 C43 0.930 . S
H64 C55 0.929 . S
H65 C58 0.930 . S
C66 C67 1.351 . S
C66 N69 1.368 . S
C66 H71 0.931 . S
C67 C66 1.351 . S
C67 N68 1.373 . S
C67 H95 0.930 . S
N68 C67 1.373 . S
N68 C70 1.340 . S
N69 C66 1.368 . S
N69 C70 1.321 . S
N69 Co72 2.135 . S
C70 N68 1.340 . S
C70 N69 1.321 . S
C70 H94 0.930 . S
H71 C66 0.931 . S
Co72 N69 2.135 . S
Co72 N75 2.121 . S
Co72 O80 2.055 . S
Co72 O83 2.039 . S
Co72 N86 2.140 . S
C73 O74 1.227 . S
C73 O83 1.265 . S
O74 C73 1.227 . S
N75 Co72 2.121 . S
N75 C77 1.375 . S
N75 C78 1.313 1_545 S
C76 C77 1.338 1_565 S
C76 N79 1.377 . S
C76 H96 0.930 . S
C77 N75 1.375 . S
C77 C76 1.338 1_545 S
C77 H81 0.931 . S
C78 N75 1.313 1_565 S
C78 N79 1.344 . S
C78 H82 0.930 . S
N79 C76 1.377 . S
N79 C78 1.344 . S
O80 Co72 2.055 . S
O80 C84 1.253 . S
H81 C77 0.931 . S
H82 C78 0.930 . S
O83 Co72 2.039 . S
O83 C73 1.265 . S
C84 O80 1.253 . S
C84 O85 1.227 . S
O85 C84 1.227 . S
N86 Co72 2.140 . S
N86 C89 1.346 . S
N86 C90 1.345 . S
C87 C88 1.387 . S
C87 C91 1.391 . S
C88 C87 1.387 . S
C88 C89 1.369 . S
C88 H97 0.929 . S
C89 N86 1.346 . S
C89 C88 1.369 . S
C89 H92 0.928 . S
C90 N86 1.345 . S
C90 C91 1.371 . S
C90 H93 0.931 . S
C91 C87 1.391 . S
C91 C90 1.371 . S
C91 H98 0.930 . S
H92 C89 0.928 . S
H93 C90 0.931 . S
H94 C70 0.930 . S
H95 C67 0.930 . S
H96 C76 0.930 . S
H97 C88 0.929 . S
H98 C91 0.930 . S
C99 C100 1.351 . S
C99 N102 1.368 . S
C99 H104 0.931 . S
C100 C99 1.351 . S
C100 N101 1.373 . S
C100 H128 0.930 . S
N101 C100 1.373 . S
N101 C103 1.340 . S
N102 C99 1.368 . S
N102 C103 1.321 . S
N102 Co105 2.135 . S
C103 N101 1.340 . S
C103 N102 1.321 . S
C103 H127 0.930 . S
H104 C99 0.931 . S
Co105 N102 2.135 . S
Co105 N108 2.121 . S
Co105 O113 2.055 . S
Co105 O116 2.039 . S
Co105 N119 2.140 . S
C106 O107 1.227 . S
C106 O116 1.265 . S
O107 C106 1.227 . S
N108 Co105 2.121 . S
N108 C110 1.375 . S
N108 C111 1.313 . S
C109 C110 1.338 . S
C109 N112 1.377 . S
C109 H129 0.930 . S
C110 N108 1.375 . S
C110 C109 1.338 . S
C110 H114 0.931 . S
C111 N108 1.313 . S
C111 N112 1.344 . S
C111 H115 0.930 . S
N112 C109 1.377 . S
N112 C111 1.344 . S
O113 Co105 2.055 . S
O113 C117 1.253 . S
H114 C110 0.931 . S
H115 C111 0.930 . S
O116 Co105 2.039 . S
O116 C106 1.265 . S
C117 O113 1.253 . S
C117 O118 1.227 . S
O118 C117 1.227 . S
N119 Co105 2.140 . S
N119 C122 1.346 . S
N119 C123 1.345 . S
C120 C121 1.387 . S
C120 C124 1.391 . S
C121 C120 1.387 . S
C121 C122 1.369 . S
C121 H130 0.929 . S
C122 N119 1.346 . S
C122 C121 1.369 . S
C122 H125 0.928 . S
C123 N119 1.345 . S
C123 C124 1.371 . S
C123 H126 0.931 . S
C124 C120 1.391 . S
C124 C123 1.371 . S
C124 H131 0.930 . S
H125 C122 0.928 . S
H126 C123 0.931 . S
H127 C103 0.930 . S
H128 C100 0.930 . S
H129 C109 0.930 . S
H130 C121 0.929 . S
H131 C124 0.930 . S
C132 C133 1.351 . S
C132 N135 1.368 1_655 S
C132 H137 0.931 . S
C133 C132 1.351 . S
C133 N134 1.373 1_655 S
C133 H161 0.930 . S
N134 C133 1.373 1_455 S
N134 C136 1.340 . S
N135 C132 1.368 1_455 S
N135 C136 1.321 . S
N135 Co138 2.135 . S
C136 N134 1.340 . S
C136 N135 1.321 . S
C136 H160 0.930 . S
H137 C132 0.931 . S
Co138 N135 2.135 . S
Co138 N141 2.121 . S
Co138 O146 2.055 . S
Co138 O149 2.039 . S
Co138 N152 2.140 1_455 S
C139 O140 1.227 . S
C139 O149 1.265 . S
O140 C139 1.227 . S
N141 Co138 2.121 . S
N141 C143 1.375 . S
N141 C144 1.313 1_545 S
C142 C143 1.338 1_565 S
C142 N145 1.377 . S
C142 H162 0.930 . S
C143 N141 1.375 . S
C143 C142 1.338 1_545 S
C143 H147 0.931 . S
C144 N141 1.313 1_565 S
C144 N145 1.344 . S
C144 H148 0.930 . S
N145 C142 1.377 . S
N145 C144 1.344 . S
O146 Co138 2.055 . S
O146 C150 1.253 . S
H147 C143 0.931 . S
H148 C144 0.930 . S
O149 Co138 2.039 . S
O149 C139 1.265 . S
C150 O146 1.253 . S
C150 O151 1.227 1_455 S
O151 C150 1.227 1_655 S
N152 Co138 2.140 1_655 S
N152 C155 1.346 . S
N152 C156 1.345 . S
C153 C154 1.387 . S
C153 C157 1.391 . S
C154 C153 1.387 . S
C154 C155 1.369 . S
C154 H163 0.929 . S
C155 N152 1.346 . S
C155 C154 1.369 . S
C155 H158 0.928 . S
C156 N152 1.345 . S
C156 C157 1.371 . S
C156 H159 0.931 . S
C157 C153 1.391 . S
C157 C156 1.371 . S
C157 H164 0.930 . S
H158 C155 0.928 . S
H159 C156 0.931 . S
H160 C136 0.930 . S
H161 C133 0.930 . S
H162 C142 0.930 . S
H163 C154 0.929 . S
H164 C157 0.930 . S
C165 C166 1.351 . S
C165 N168 1.368 . S
C165 H170 0.931 . S
C166 C165 1.351 . S
C166 N167 1.373 . S
C166 H194 0.930 . S
N167 C166 1.373 . S
N167 C169 1.340 . S
N168 C165 1.368 . S
N168 C169 1.321 . S
N168 Co171 2.135 . S
C169 N167 1.340 . S
C169 N168 1.321 . S
C169 H193 0.930 . S
H170 C165 0.931 . S
Co171 N168 2.135 . S
Co171 N174 2.121 . S
Co171 O179 2.055 . S
Co171 O182 2.039 . S
Co171 N185 2.140 . S
C172 O173 1.227 . S
C172 O182 1.265 . S
O173 C172 1.227 . S
N174 Co171 2.121 . S
N174 C176 1.375 . S
N174 C177 1.313 . S
C175 C176 1.338 . S
C175 N178 1.377 . S
C175 H195 0.930 . S
C176 N174 1.375 . S
C176 C175 1.338 . S
C176 H180 0.931 . S
C177 N174 1.313 . S
C177 N178 1.344 . S
C177 H181 0.930 . S
N178 C175 1.377 . S
N178 C177 1.344 . S
O179 Co171 2.055 . S
O179 C183 1.253 . S
H180 C176 0.931 . S
H181 C177 0.930 . S
O182 Co171 2.039 . S
O182 C172 1.265 . S
C183 O179 1.253 . S
C183 O184 1.227 . S
O184 C183 1.227 . S
N185 Co171 2.140 . S
N185 C188 1.346 . S
N185 C189 1.345 . S
C186 C187 1.387 . S
C186 C190 1.391 . S
C187 C186 1.387 . S
C187 C188 1.369 . S
C187 H196 0.929 . S
C188 N185 1.346 . S
C188 C187 1.369 . S
C188 H191 0.928 . S
C189 N185 1.345 . S
C189 C190 1.371 . S
C189 H192 0.931 . S
C190 C186 1.391 . S
C190 C189 1.371 . S
C190 H197 0.930 . S
H191 C188 0.928 . S
H192 C189 0.931 . S
H193 C169 0.930 . S
H194 C166 0.930 . S
H195 C175 0.930 . S
H196 C187 0.929 . S
H197 C190 0.930 . S
C198 C199 1.351 . S
C198 N201 1.368 . S
C198 H203 0.931 . S
C199 C198 1.351 . S
C199 N200 1.373 . S
C199 H227 0.930 . S
N200 C199 1.373 . S
N200 C202 1.340 . S
N201 C198 1.368 . S
N201 C202 1.321 . S
N201 Co204 2.135 1_565 S
C202 N200 1.340 . S
C202 N201 1.321 . S
C202 H226 0.930 . S
H203 C198 0.931 . S
Co204 N201 2.135 1_545 S
Co204 N207 2.121 . S
Co204 O212 2.055 . S
Co204 O215 2.039 . S
Co204 N218 2.140 . S
C205 O206 1.227 . S
C205 O215 1.265 . S
O206 C205 1.227 . S
N207 Co204 2.121 . S
N207 C209 1.375 . S
N207 C210 1.313 . S
C208 C209 1.338 . S
C208 N211 1.377 . S
C208 H228 0.930 . S
C209 N207 1.375 . S
C209 C208 1.338 . S
C209 H213 0.931 . S
C210 N207 1.313 . S
C210 N211 1.344 . S
C210 H214 0.930 . S
N211 C208 1.377 . S
N211 C210 1.344 . S
O212 Co204 2.055 . S
O212 C216 1.253 . S
H213 C209 0.931 . S
H214 C210 0.930 . S
O215 Co204 2.039 . S
O215 C205 1.265 . S
C216 O212 1.253 . S
C216 O217 1.227 . S
O217 C216 1.227 . S
N218 Co204 2.140 . S
N218 C221 1.346 . S
N218 C222 1.345 . S
C219 C220 1.387 . S
C219 C223 1.391 . S
C220 C219 1.387 . S
C220 C221 1.369 . S
C220 H229 0.929 1_545 S
C221 N218 1.346 . S
C221 C220 1.369 . S
C221 H224 0.928 1_545 S
C222 N218 1.345 . S
C222 C223 1.371 . S
C222 H225 0.931 . S
C223 C219 1.391 . S
C223 C222 1.371 . S
C223 H230 0.930 . S
H224 C221 0.928 1_565 S
H225 C222 0.931 . S
H226 C202 0.930 . S
H227 C199 0.930 . S
H228 C208 0.930 . S
H229 C220 0.929 1_565 S
H230 C223 0.930 . S
C231 C232 1.351 . S
C231 N234 1.368 . S
C231 H236 0.931 . S
C232 C231 1.351 . S
C232 N233 1.373 . S
C232 H260 0.930 . S
N233 C232 1.373 . S
N233 C235 1.340 . S
N234 C231 1.368 . S
N234 C235 1.321 . S
N234 Co237 2.135 . S
C235 N233 1.340 . S
C235 N234 1.321 . S
C235 H259 0.930 . S
H236 C231 0.931 . S
Co237 N234 2.135 . S
Co237 N240 2.121 . S
Co237 O245 2.055 . S
Co237 O248 2.039 . S
Co237 N251 2.140 . S
C238 O239 1.227 . S
C238 O248 1.265 . S
O239 C238 1.227 . S
N240 Co237 2.121 . S
N240 C242 1.375 . S
N240 C243 1.313 . S
C241 C242 1.338 . S
C241 N244 1.377 . S
C241 H261 0.930 . S
C242 N240 1.375 . S
C242 C241 1.338 . S
C242 H246 0.931 . S
C243 N240 1.313 . S
C243 N244 1.344 . S
C243 H247 0.930 . S
N244 C241 1.377 . S
N244 C243 1.344 . S
O245 Co237 2.055 . S
O245 C249 1.253 . S
H246 C242 0.931 . S
H247 C243 0.930 . S
O248 Co237 2.039 . S
O248 C238 1.265 . S
C249 O245 1.253 . S
C249 O250 1.227 . S
O250 C249 1.227 . S
N251 Co237 2.140 . S
N251 C254 1.346 . S
N251 C255 1.345 . S
C252 C253 1.387 . S
C252 C256 1.391 . S
C253 C252 1.387 . S
C253 C254 1.369 . S
C253 H262 0.929 . S
C254 N251 1.346 . S
C254 C253 1.369 . S
C254 H257 0.928 . S
C255 N251 1.345 . S
C255 C256 1.371 . S
C255 H258 0.931 . S
C256 C252 1.391 . S
C256 C255 1.371 . S
C256 H263 0.930 . S
H257 C254 0.928 . S
H258 C255 0.931 . S
H259 C235 0.930 . S
H260 C232 0.930 . S
H261 C241 0.930 . S
H262 C253 0.929 . S
H263 C256 0.930 . S
C264 C265 1.351 . S
C264 N267 1.368 . S
C264 H269 0.931 . S
C265 C264 1.351 . S
C265 N266 1.373 . S
C265 H293 0.930 . S
N266 C265 1.373 . S
N266 C268 1.340 . S
N267 C264 1.368 . S
N267 C268 1.321 . S
N267 Co270 2.135 . S
C268 N266 1.340 . S
C268 N267 1.321 . S
C268 H292 0.930 . S
H269 C264 0.931 . S
Co270 N267 2.135 . S
Co270 N273 2.121 . S
Co270 O278 2.055 . S
Co270 O281 2.039 . S
Co270 N284 2.140 . S
C271 O272 1.227 . S
C271 O281 1.265 . S
O272 C271 1.227 . S
N273 Co270 2.121 . S
N273 C275 1.375 . S
N273 C276 1.313 . S
C274 C275 1.338 . S
C274 N277 1.377 . S
C274 H294 0.930 . S
C275 N273 1.375 . S
C275 C274 1.338 . S
C275 H279 0.931 . S
C276 N273 1.313 . S
C276 N277 1.344 . S
C276 H280 0.930 . S
N277 C274 1.377 . S
N277 C276 1.344 . S
O278 Co270 2.055 . S
O278 C282 1.253 . S
H279 C275 0.931 . S
H280 C276 0.930 . S
O281 Co270 2.039 . S
O281 C271 1.265 . S
C282 O278 1.253 . S
C282 O283 1.227 . S
O283 C282 1.227 . S
N284 Co270 2.140 . S
N284 C287 1.346 . S
N284 C288 1.345 . S
C285 C286 1.387 . S
C285 C289 1.391 . S
C286 C285 1.387 . S
C286 C287 1.369 . S
C286 H295 0.929 . S
C287 N284 1.346 . S
C287 C286 1.369 . S
C287 H290 0.928 . S
C288 N284 1.345 . S
C288 C289 1.371 . S
C288 H291 0.931 . S
C289 C285 1.391 . S
C289 C288 1.371 . S
C289 H296 0.930 . S
H290 C287 0.928 . S
H291 C288 0.931 . S
H292 C268 0.930 . S
H293 C265 0.930 . S
H294 C274 0.930 . S
H295 C286 0.929 . S
H296 C289 0.930 . S
C297 C298 1.351 . S
C297 N300 1.368 . S
C297 H302 0.931 . S
C298 C297 1.351 . S
C298 N299 1.373 . S
C298 H326 0.930 . S
N299 C298 1.373 . S
N299 C301 1.340 . S
N300 C297 1.368 . S
N300 C301 1.321 . S
N300 Co303 2.135 . S
C301 N299 1.340 . S
C301 N300 1.321 . S
C301 H325 0.930 . S
H302 C297 0.931 . S
Co303 N300 2.135 . S
Co303 N306 2.121 . S
Co303 O311 2.055 . S
Co303 O314 2.039 . S
Co303 N317 2.140 . S
C304 O305 1.227 . S
C304 O314 1.265 . S
O305 C304 1.227 . S
N306 Co303 2.121 . S
N306 C308 1.375 . S
N306 C309 1.313 . S
C307 C308 1.338 . S
C307 N310 1.377 . S
C307 H327 0.930 . S
C308 N306 1.375 . S
C308 C307 1.338 . S
C308 H312 0.931 . S
C309 N306 1.313 . S
C309 N310 1.344 . S
C309 H313 0.930 . S
N310 C307 1.377 . S
N310 C309 1.344 . S
O311 Co303 2.055 . S
O311 C315 1.253 . S
H312 C308 0.931 . S
H313 C309 0.930 . S
O314 Co303 2.039 . S
O314 C304 1.265 . S
C315 O311 1.253 . S
C315 O316 1.227 . S
O316 C315 1.227 . S
N317 Co303 2.140 . S
N317 C320 1.346 . S
N317 C321 1.345 . S
C318 C319 1.387 . S
C318 C322 1.391 . S
C319 C318 1.387 . S
C319 C320 1.369 . S
C319 H328 0.929 . S
C320 N317 1.346 . S
C320 C319 1.369 . S
C320 H323 0.928 . S
C321 N317 1.345 . S
C321 C322 1.371 . S
C321 H324 0.931 . S
C322 C318 1.391 . S
C322 C321 1.371 . S
C322 H329 0.930 . S
H323 C320 0.928 . S
H324 C321 0.931 . S
H325 C301 0.930 . S
H326 C298 0.930 . S
H327 C307 0.930 . S
H328 C319 0.929 . S
H329 C322 0.930 . S
C330 C331 1.351 . S
C330 N333 1.368 . S
C330 H335 0.931 . S
C331 C330 1.351 . S
C331 N332 1.373 . S
C331 H359 0.930 . S
N332 C331 1.373 . S
N332 C334 1.340 . S
N333 C330 1.368 . S
N333 C334 1.321 . S
N333 Co336 2.135 . S
C334 N332 1.340 . S
C334 N333 1.321 . S
C334 H358 0.930 . S
H335 C330 0.931 . S
Co336 N333 2.135 . S
Co336 N339 2.121 . S
Co336 O344 2.055 . S
Co336 O347 2.039 . S
Co336 N350 2.140 . S
C337 O338 1.227 . S
C337 O347 1.265 . S
O338 C337 1.227 . S
N339 Co336 2.121 . S
N339 C341 1.375 . S
N339 C342 1.313 . S
C340 C341 1.338 . S
C340 N343 1.377 . S
C340 H360 0.930 . S
C341 N339 1.375 . S
C341 C340 1.338 . S
C341 H345 0.931 . S
C342 N339 1.313 . S
C342 N343 1.344 . S
C342 H346 0.930 . S
N343 C340 1.377 . S
N343 C342 1.344 . S
O344 Co336 2.055 . S
O344 C348 1.253 . S
H345 C341 0.931 . S
H346 C342 0.930 . S
O347 Co336 2.039 . S
O347 C337 1.265 . S
C348 O344 1.253 . S
C348 O349 1.227 . S
O349 C348 1.227 . S
N350 Co336 2.140 . S
N350 C353 1.346 . S
N350 C354 1.345 . S
C351 C352 1.387 . S
C351 C355 1.391 . S
C352 C351 1.387 . S
C352 C353 1.369 . S
C352 H361 0.929 . S
C353 N350 1.346 . S
C353 C352 1.369 . S
C353 H356 0.928 . S
C354 N350 1.345 . S
C354 C355 1.371 . S
C354 H357 0.931 . S
C355 C351 1.391 . S
C355 C354 1.371 . S
C355 H362 0.930 . S
H356 C353 0.928 . S
H357 C354 0.931 . S
H358 C334 0.930 . S
H359 C331 0.930 . S
H360 C340 0.930 . S
H361 C352 0.929 . S
H362 C355 0.930 . S
C363 C364 1.351 . S
C363 N366 1.368 . S
C363 H368 0.931 . S
C364 C363 1.351 . S
C364 N365 1.373 . S
C364 H392 0.930 . S
N365 C364 1.373 . S
N365 C367 1.340 . S
N366 C363 1.368 . S
N366 C367 1.321 . S
N366 Co369 2.135 . S
C367 N365 1.340 . S
C367 N366 1.321 . S
C367 H391 0.930 . S
H368 C363 0.931 . S
Co369 N366 2.135 . S
Co369 N372 2.121 . S
Co369 O377 2.055 . S
Co369 O380 2.039 . S
Co369 N383 2.140 . S
C370 O371 1.227 . S
C370 O380 1.265 . S
O371 C370 1.227 . S
N372 Co369 2.121 . S
N372 C374 1.375 . S
N372 C375 1.313 . S
C373 C374 1.338 . S
C373 N376 1.377 . S
C373 H393 0.930 . S
C374 N372 1.375 . S
C374 C373 1.338 . S
C374 H378 0.931 . S
C375 N372 1.313 . S
C375 N376 1.344 . S
C375 H379 0.930 . S
N376 C373 1.377 . S
N376 C375 1.344 . S
O377 Co369 2.055 . S
O377 C381 1.253 . S
H378 C374 0.931 . S
H379 C375 0.930 . S
O380 Co369 2.039 . S
O380 C370 1.265 . S
C381 O377 1.253 . S
C381 O382 1.227 . S
O382 C381 1.227 . S
N383 Co369 2.140 . S
N383 C386 1.346 . S
N383 C387 1.345 . S
C384 C385 1.387 . S
C384 C388 1.391 . S
C385 C384 1.387 . S
C385 C386 1.369 . S
C385 H394 0.929 . S
C386 N383 1.346 . S
C386 C385 1.369 . S
C386 H389 0.928 . S
C387 N383 1.345 . S
C387 C388 1.371 . S
C387 H390 0.931 . S
C388 C384 1.391 . S
C388 C387 1.371 . S
C388 H395 0.930 . S
H389 C386 0.928 . S
H390 C387 0.931 . S
H391 C367 0.930 . S
H392 C364 0.930 . S
H393 C373 0.930 . S
H394 C385 0.929 . S
H395 C388 0.930 . S
C396 C397 1.351 . S
C396 N399 1.368 . S
C396 H401 0.931 . S
C397 C396 1.351 . S
C397 N398 1.373 . S
C397 H425 0.930 . S
N398 C397 1.373 . S
N398 C400 1.340 . S
N399 C396 1.368 . S
N399 C400 1.321 . S
N399 Co402 2.135 . S
C400 N398 1.340 . S
C400 N399 1.321 . S
C400 H424 0.930 . S
H401 C396 0.931 . S
Co402 N399 2.135 . S
Co402 N405 2.121 . S
Co402 O410 2.055 . S
Co402 O413 2.039 . S
Co402 N416 2.140 . S
C403 O404 1.227 . S
C403 O413 1.265 . S
O404 C403 1.227 . S
N405 Co402 2.121 . S
N405 C407 1.375 . S
N405 C408 1.313 . S
C406 C407 1.338 . S
C406 N409 1.377 . S
C406 H426 0.930 . S
C407 N405 1.375 . S
C407 C406 1.338 . S
C407 H411 0.931 . S
C408 N405 1.313 . S
C408 N409 1.344 . S
C408 H412 0.930 . S
N409 C406 1.377 . S
N409 C408 1.344 . S
O410 Co402 2.055 . S
O410 C414 1.253 . S
H411 C407 0.931 . S
H412 C408 0.930 . S
O413 Co402 2.039 . S
O413 C403 1.265 . S
C414 O410 1.253 . S
C414 O415 1.227 . S
O415 C414 1.227 . S
N416 Co402 2.140 . S
N416 C419 1.346 . S
N416 C420 1.345 . S
C417 C418 1.387 . S
C417 C421 1.391 . S
C418 C417 1.387 . S
C418 C419 1.369 . S
C418 H427 0.929 . S
C419 N416 1.346 . S
C419 C418 1.369 . S
C419 H422 0.928 . S
C420 N416 1.345 . S
C420 C421 1.371 . S
C420 H423 0.931 . S
C421 C417 1.391 . S
C421 C420 1.371 . S
C421 H428 0.930 . S
H422 C419 0.928 . S
H423 C420 0.931 . S
H424 C400 0.930 . S
H425 C397 0.930 . S
H426 C406 0.930 . S
H427 C418 0.929 . S
H428 C421 0.930 . S
C429 C430 1.351 . S
C429 N432 1.368 1_455 S
C429 H434 0.931 . S
C430 C429 1.351 . S
C430 N431 1.373 1_455 S
C430 H458 0.930 . S
N431 C430 1.373 1_655 S
N431 C433 1.340 . S
N432 C429 1.368 1_655 S
N432 C433 1.321 . S
N432 Co435 2.135 . S
C433 N431 1.340 . S
C433 N432 1.321 . S
C433 H457 0.930 . S
H434 C429 0.931 . S
Co435 N432 2.135 . S
Co435 N438 2.121 . S
Co435 O443 2.055 . S
Co435 O446 2.039 . S
Co435 N449 2.140 1_655 S
C436 O437 1.227 . S
C436 O446 1.265 . S
O437 C436 1.227 . S
N438 Co435 2.121 . S
N438 C440 1.375 . S
N438 C441 1.313 . S
C439 C440 1.338 . S
C439 N442 1.377 . S
C439 H459 0.930 . S
C440 N438 1.375 . S
C440 C439 1.338 . S
C440 H444 0.931 . S
C441 N438 1.313 . S
C441 N442 1.344 . S
C441 H445 0.930 . S
N442 C439 1.377 . S
N442 C441 1.344 . S
O443 Co435 2.055 . S
O443 C447 1.253 1_655 S
H444 C440 0.931 . S
H445 C441 0.930 . S
O446 Co435 2.039 . S
O446 C436 1.265 . S
C447 O443 1.253 1_455 S
C447 O448 1.227 . S
O448 C447 1.227 . S
N449 Co435 2.140 1_455 S
N449 C452 1.346 . S
N449 C453 1.345 . S
C450 C451 1.387 . S
C450 C454 1.391 . S
C451 C450 1.387 . S
C451 C452 1.369 . S
C451 H460 0.929 . S
C452 N449 1.346 . S
C452 C451 1.369 . S
C452 H455 0.928 . S
C453 N449 1.345 . S
C453 C454 1.371 . S
C453 H456 0.931 . S
C454 C450 1.391 . S
C454 C453 1.371 . S
C454 H461 0.930 . S
H455 C452 0.928 . S
H456 C453 0.931 . S
H457 C433 0.930 . S
H458 C430 0.930 . S
H459 C439 0.930 . S
H460 C451 0.929 . S
H461 C454 0.930 . S
C462 C463 1.351 . S
C462 N465 1.368 . S
C462 H467 0.931 . S
C463 C462 1.351 . S
C463 N464 1.373 . S
C463 H491 0.930 . S
N464 C463 1.373 . S
N464 C466 1.340 . S
N465 C462 1.368 . S
N465 C466 1.321 . S
N465 Co468 2.135 . S
C466 N464 1.340 . S
C466 N465 1.321 . S
C466 H490 0.930 . S
H467 C462 0.931 . S
Co468 N465 2.135 . S
Co468 N471 2.121 . S
Co468 O476 2.055 . S
Co468 O479 2.039 . S
Co468 N482 2.140 . S
C469 O470 1.227 . S
C469 O479 1.265 . S
O470 C469 1.227 . S
N471 Co468 2.121 . S
N471 C473 1.375 . S
N471 C474 1.313 . S
C472 C473 1.338 . S
C472 N475 1.377 . S
C472 H492 0.930 . S
C473 N471 1.375 . S
C473 C472 1.338 . S
C473 H477 0.931 . S
C474 N471 1.313 . S
C474 N475 1.344 . S
C474 H478 0.930 . S
N475 C472 1.377 . S
N475 C474 1.344 . S
O476 Co468 2.055 . S
O476 C480 1.253 . S
H477 C473 0.931 . S
H478 C474 0.930 . S
O479 Co468 2.039 . S
O479 C469 1.265 . S
C480 O476 1.253 . S
C480 O481 1.227 . S
O481 C480 1.227 . S
N482 Co468 2.140 . S
N482 C485 1.346 . S
N482 C486 1.345 . S
C483 C484 1.387 . S
C483 C487 1.391 . S
C484 C483 1.387 . S
C484 C485 1.369 . S
C484 H493 0.929 . S
C485 N482 1.346 . S
C485 C484 1.369 . S
C485 H488 0.928 . S
C486 N482 1.345 . S
C486 C487 1.371 . S
C486 H489 0.931 . S
C487 C483 1.391 . S
C487 C486 1.371 . S
C487 H494 0.930 . S
H488 C485 0.928 . S
H489 C486 0.931 . S
H490 C466 0.930 . S
H491 C463 0.930 . S
H492 C472 0.930 . S
H493 C484 0.929 . S
H494 C487 0.930 . S
C495 C496 1.351 . S
C495 N498 1.368 1_455 S
C495 H500 0.931 . S
C496 C495 1.351 . S
C496 N497 1.373 1_455 S
C496 H524 0.930 . S
N497 C496 1.373 1_655 S
N497 C499 1.340 . S
N498 C495 1.368 1_655 S
N498 C499 1.321 . S
N498 Co501 2.135 . S
C499 N497 1.340 . S
C499 N498 1.321 . S
C499 H523 0.930 . S
H500 C495 0.931 . S
Co501 N498 2.135 . S
Co501 N504 2.121 . S
Co501 O509 2.055 . S
Co501 O512 2.039 . S
Co501 N515 2.140 1_655 S
C502 O503 1.227 . S
C502 O512 1.265 . S
O503 C502 1.227 . S
N504 Co501 2.121 . S
N504 C506 1.375 . S
N504 C507 1.313 . S
C505 C506 1.338 . S
C505 N508 1.377 . S
C505 H525 0.930 . S
C506 N504 1.375 . S
C506 C505 1.338 . S
C506 H510 0.931 . S
C507 N504 1.313 . S
C507 N508 1.344 . S
C507 H511 0.930 . S
N508 C505 1.377 . S
N508 C507 1.344 . S
O509 Co501 2.055 . S
O509 C513 1.253 1_655 S
H510 C506 0.931 . S
H511 C507 0.930 . S
O512 Co501 2.039 . S
O512 C502 1.265 . S
C513 O509 1.253 1_455 S
C513 O514 1.227 . S
O514 C513 1.227 . S
N515 Co501 2.140 1_455 S
N515 C518 1.346 . S
N515 C519 1.345 . S
C516 C517 1.387 . S
C516 C520 1.391 . S
C517 C516 1.387 . S
C517 C518 1.369 . S
C517 H526 0.929 . S
C518 N515 1.346 . S
C518 C517 1.369 . S
C518 H521 0.928 . S
C519 N515 1.345 . S
C519 C520 1.371 . S
C519 H522 0.931 . S
C520 C516 1.391 . S
C520 C519 1.371 . S
C520 H527 0.930 . S
H521 C518 0.928 . S
H522 C519 0.931 . S
H523 C499 0.930 . S
H524 C496 0.930 . S
H525 C505 0.930 . S
H526 C517 0.929 . S
H527 C520 0.930 . S
H528 C536 0.950 . S
H529 C541 0.950 . S
H530 C538 0.950 . S
H531 C540 0.950 . S
H532 C542 0.950 . S
H533 C544 0.950 . S
H534 C546 0.950 . S
H535 C547 0.950 . S
C536 H528 0.950 . S
C536 C537 1.386 1_455 S
C536 C538 1.391 . S
C537 C536 1.386 1_655 S
C537 C541 1.393 . S
C538 H530 0.950 . S
C538 C536 1.391 . S
C538 C539 1.400 . S
C539 C538 1.400 . S
C539 C540 1.398 1_455 S
C539 C545 1.491 . S
C540 H531 0.950 . S
C540 C539 1.398 1_655 S
C540 C541 1.391 . S
C541 H529 0.950 . S
C541 C537 1.393 . S
C541 C540 1.391 . S
C542 H532 0.950 . S
C542 C543 1.386 1_655 S
C542 C544 1.391 . S
C543 C542 1.386 1_455 S
C543 C547 1.393 . S
C544 H533 0.950 . S
C544 C542 1.391 . S
C544 C545 1.400 1_655 S
C545 C539 1.491 . S
C545 C544 1.400 1_455 S
C545 C546 1.398 . S
C546 H534 0.950 . S
C546 C545 1.398 . S
C546 C547 1.391 . S
C547 H535 0.950 . S
C547 C543 1.393 . S
C547 C546 1.391 . S
H548 C556 0.950 . S
H549 C561 0.950 . S
H550 C558 0.950 . S
H551 C560 0.950 . S
H552 C562 0.950 . S
H553 C564 0.950 . S
H554 C566 0.950 . S
H555 C567 0.950 . S
C556 H548 0.950 . S
C556 C557 1.386 . S
C556 C558 1.391 . S
C557 C556 1.386 . S
C557 C561 1.393 . S
C558 H550 0.950 . S
C558 C556 1.391 . S
C558 C559 1.400 . S
C559 C558 1.400 . S
C559 C560 1.398 . S
C559 C565 1.491 1_455 S
C560 H551 0.950 . S
C560 C559 1.398 . S
C560 C561 1.391 . S
C561 H549 0.950 . S
C561 C557 1.393 . S
C561 C560 1.391 . S
C562 H552 0.950 . S
C562 C563 1.386 . S
C562 C564 1.391 . S
C563 C562 1.386 . S
C563 C567 1.393 . S
C564 H553 0.950 . S
C564 C562 1.391 . S
C564 C565 1.400 . S
C565 C559 1.491 1_655 S
C565 C564 1.400 . S
C565 C566 1.398 . S
C566 H554 0.950 . S
C566 C565 1.398 . S
C566 C567 1.391 . S
C567 H555 0.950 . S
C567 C563 1.393 . S
C567 C566 1.391 . S
H568 C576 0.950 . S
H569 C581 0.950 . S
H570 C578 0.950 . S
H571 C580 0.950 . S
H572 C582 0.950 . S
H573 C584 0.950 . S
H574 C586 0.950 . S
H575 C587 0.950 . S
C576 H568 0.950 . S
C576 C577 1.386 . S
C576 C578 1.391 . S
C577 C576 1.386 . S
C577 C581 1.393 . S
C578 H570 0.950 . S
C578 C576 1.391 . S
C578 C579 1.400 . S
C579 C578 1.400 . S
C579 C580 1.398 . S
C579 C585 1.491 . S
C580 H571 0.950 . S
C580 C579 1.398 . S
C580 C581 1.391 . S
C581 H569 0.950 . S
C581 C577 1.393 . S
C581 C580 1.391 . S
C582 H572 0.950 . S
C582 C583 1.386 . S
C582 C584 1.391 . S
C583 C582 1.386 . S
C583 C587 1.393 . S
C584 H573 0.950 . S
C584 C582 1.391 . S
C584 C585 1.400 . S
C585 C579 1.491 . S
C585 C584 1.400 . S
C585 C586 1.398 . S
C586 H574 0.950 . S
C586 C585 1.398 . S
C586 C587 1.391 . S
C587 H575 0.950 . S
C587 C583 1.393 . S
C587 C586 1.391 . S
H588 C596 0.950 . S
H589 C601 0.950 . S
H590 C598 0.950 . S
H591 C600 0.950 . S
H592 C602 0.950 . S
H593 C604 0.950 . S
H594 C606 0.950 . S
H595 C607 0.950 . S
C596 H588 0.950 . S
C596 C597 1.386 . S
C596 C598 1.391 . S
C597 C596 1.386 . S
C597 C601 1.393 . S
C598 H590 0.950 . S
C598 C596 1.391 . S
C598 C599 1.400 . S
C599 C598 1.400 . S
C599 C600 1.398 . S
C599 C605 1.491 . S
C600 H591 0.950 . S
C600 C599 1.398 . S
C600 C601 1.391 . S
C601 H589 0.950 . S
C601 C597 1.393 . S
C601 C600 1.391 . S
C602 H592 0.950 . S
C602 C603 1.386 . S
C602 C604 1.391 . S
C603 C602 1.386 . S
C603 C607 1.393 . S
C604 H593 0.950 . S
C604 C602 1.391 . S
C604 C605 1.400 . S
C605 C599 1.491 . S
C605 C604 1.400 . S
C605 C606 1.398 . S
C606 H594 0.950 . S
C606 C605 1.398 . S
C606 C607 1.391 . S
C607 H595 0.950 . S
C607 C603 1.393 . S
C607 C606 1.391 . S
H608 C616 0.950 . S
H609 C621 0.950 . S
H610 C618 0.950 . S
H611 C620 0.950 . S
H612 C622 0.950 . S
H613 C624 0.950 . S
H614 C626 0.950 . S
H615 C627 0.950 . S
C616 H608 0.950 . S
C616 C617 1.386 . S
C616 C618 1.391 . S
C617 C616 1.386 . S
C617 C621 1.393 1_655 S
C618 H610 0.950 . S
C618 C616 1.391 . S
C618 C619 1.400 1_655 S
C619 C618 1.400 1_455 S
C619 C620 1.398 . S
C619 C625 1.491 . S
C620 H611 0.950 . S
C620 C619 1.398 . S
C620 C621 1.391 . S
C621 H609 0.950 . S
C621 C617 1.393 1_455 S
C621 C620 1.391 . S
C622 H612 0.950 . S
C622 C623 1.386 . S
C622 C624 1.391 . S
C623 C622 1.386 . S
C623 C627 1.393 1_455 S
C624 H613 0.950 . S
C624 C622 1.391 . S
C624 C625 1.400 . S
C625 C619 1.491 . S
C625 C624 1.400 . S
C625 C626 1.398 1_455 S
C626 H614 0.950 . S
C626 C625 1.398 1_655 S
C626 C627 1.391 . S
C627 H615 0.950 . S
C627 C623 1.393 1_655 S
C627 C626 1.391 . S
H628 C636 0.950 . S
H629 C641 0.950 . S
H630 C638 0.950 . S
H631 C640 0.950 . S
H632 C642 0.950 . S
H633 C644 0.950 . S
H634 C646 0.950 . S
H635 C647 0.950 . S
C636 H628 0.950 . S
C636 C637 1.386 . S
C636 C638 1.391 . S
C637 C636 1.386 . S
C637 C641 1.393 . S
C638 H630 0.950 . S
C638 C636 1.391 . S
C638 C639 1.400 . S
C639 C638 1.400 . S
C639 C640 1.398 . S
C639 C645 1.491 . S
C640 H631 0.950 . S
C640 C639 1.398 . S
C640 C641 1.391 . S
C641 H629 0.950 . S
C641 C637 1.393 . S
C641 C640 1.391 . S
C642 H632 0.950 . S
C642 C643 1.386 . S
C642 C644 1.391 . S
C643 C642 1.386 . S
C643 C647 1.393 . S
C644 H633 0.950 . S
C644 C642 1.391 . S
C644 C645 1.400 . S
C645 C639 1.491 . S
C645 C644 1.400 . S
C645 C646 1.398 . S
C646 H634 0.950 . S
C646 C645 1.398 . S
C646 C647 1.391 . S
C647 H635 0.950 . S
C647 C643 1.393 . S
C647 C646 1.391 . S
H648 C656 0.950 . S
H649 C661 0.950 . S
H650 C658 0.950 . S
H651 C660 0.950 . S
H652 C662 0.950 . S
H653 C664 0.950 . S
H654 C666 0.950 . S
H655 C667 0.950 . S
C656 H648 0.950 . S
C656 C657 1.386 . S
C656 C658 1.391 . S
C657 C656 1.386 . S
C657 C661 1.393 . S
C658 H650 0.950 . S
C658 C656 1.391 . S
C658 C659 1.400 . S
C659 C658 1.400 . S
C659 C660 1.398 . S
C659 C665 1.491 . S
C660 H651 0.950 . S
C660 C659 1.398 . S
C660 C661 1.391 . S
C661 H649 0.950 . S
C661 C657 1.393 . S
C661 C660 1.391 . S
C662 H652 0.950 . S
C662 C663 1.386 . S
C662 C664 1.391 . S
C663 C662 1.386 . S
C663 C667 1.393 . S
C664 H653 0.950 . S
C664 C662 1.391 . S
C664 C665 1.400 . S
C665 C659 1.491 . S
C665 C664 1.400 . S
C665 C666 1.398 . S
C666 H654 0.950 . S
C666 C665 1.398 . S
C666 C667 1.391 . S
C667 H655 0.950 . S
C667 C663 1.393 . S
C667 C666 1.391 . S
H668 C676 0.950 . S
H669 C681 0.950 . S
H670 C678 0.950 . S
H671 C680 0.950 . S
H672 C682 0.950 . S
H673 C684 0.950 . S
H674 C686 0.950 . S
H675 C687 0.950 . S
C676 H668 0.950 . S
C676 C677 1.386 . S
C676 C678 1.391 . S
C677 C676 1.386 . S
C677 C681 1.393 . S
C678 H670 0.950 . S
C678 C676 1.391 . S
C678 C679 1.400 . S
C679 C678 1.400 . S
C679 C680 1.398 . S
C679 C685 1.491 1_655 S
C680 H671 0.950 . S
C680 C679 1.398 . S
C680 C681 1.391 . S
C681 H669 0.950 . S
C681 C677 1.393 . S
C681 C680 1.391 . S
C682 H672 0.950 . S
C682 C683 1.386 . S
C682 C684 1.391 . S
C683 C682 1.386 . S
C683 C687 1.393 . S
C684 H673 0.950 . S
C684 C682 1.391 . S
C684 C685 1.400 . S
C685 C679 1.491 1_455 S
C685 C684 1.400 . S
C685 C686 1.398 . S
C686 H674 0.950 . S
C686 C685 1.398 . S
C686 C687 1.391 . S
C687 H675 0.950 . S
C687 C683 1.393 . S
C687 C686 1.391 . S
H688 C696 0.950 . S
H689 C701 0.950 . S
H690 C698 0.950 . S
H691 C700 0.950 . S
H692 C702 0.950 . S
H693 C704 0.950 . S
H694 C706 0.950 . S
H695 C707 0.950 1_565 S
C696 H688 0.950 . S
C696 C697 1.386 . S
C696 C698 1.391 . S
C697 C696 1.386 . S
C697 C701 1.393 1_455 S
C698 H690 0.950 . S
C698 C696 1.391 . S
C698 C699 1.400 . S
C699 C698 1.400 . S
C699 C700 1.398 1_455 S
C699 C705 1.491 1_554 S
C700 H691 0.950 . S
C700 C699 1.398 1_655 S
C700 C701 1.391 . S
C701 H689 0.950 . S
C701 C697 1.393 1_655 S
C701 C700 1.391 . S
C702 H692 0.950 . S
C702 C703 1.386 1_655 S
C702 C704 1.391 . S
C703 C702 1.386 1_455 S
C703 C707 1.393 . S
C704 H693 0.950 . S
C704 C702 1.391 . S
C704 C705 1.400 1_655 S
C705 C699 1.491 1_556 S
C705 C704 1.400 1_455 S
C705 C706 1.398 . S
C706 H694 0.950 . S
C706 C705 1.398 . S
C706 C707 1.391 . S
C707 H695 0.950 1_545 S
C707 C703 1.393 . S
C707 C706 1.391 . S
H708 C716 0.950 . S
H709 C721 0.950 . S
H710 C718 0.950 . S
H711 C720 0.950 . S
H712 C722 0.950 . S
H713 C724 0.950 . S
H714 C726 0.950 . S
H715 C727 0.950 . S
C716 H708 0.950 . S
C716 C717 1.386 . S
C716 C718 1.391 . S
C717 C716 1.386 . S
C717 C721 1.393 . S
C718 H710 0.950 . S
C718 C716 1.391 . S
C718 C719 1.400 . S
C719 C718 1.400 . S
C719 C720 1.398 . S
C719 C725 1.491 . S
C720 H711 0.950 . S
C720 C719 1.398 . S
C720 C721 1.391 . S
C721 H709 0.950 . S
C721 C717 1.393 . S
C721 C720 1.391 . S
C722 H712 0.950 . S
C722 C723 1.386 . S
C722 C724 1.391 . S
C723 C722 1.386 . S
C723 C727 1.393 . S
C724 H713 0.950 . S
C724 C722 1.391 . S
C724 C725 1.400 . S
C725 C719 1.491 . S
C725 C724 1.400 . S
C725 C726 1.398 . S
C726 H714 0.950 . S
C726 C725 1.398 . S
C726 C727 1.391 . S
C727 H715 0.950 . S
C727 C723 1.393 . S
C727 C726 1.391 . S
H728 C736 0.950 . S
H729 C741 0.950 . S
H730 C738 0.950 . S
H731 C740 0.950 . S
H732 C742 0.950 . S
H733 C744 0.950 . S
H734 C746 0.950 . S
H735 C747 0.950 . S
C736 H728 0.950 . S
C736 C737 1.386 . S
C736 C738 1.391 . S
C737 C736 1.386 . S
C737 C741 1.393 . S
C738 H730 0.950 . S
C738 C736 1.391 . S
C738 C739 1.400 . S
C739 C738 1.400 . S
C739 C740 1.398 . S
C739 C745 1.491 . S
C740 H731 0.950 . S
C740 C739 1.398 . S
C740 C741 1.391 . S
C741 H729 0.950 . S
C741 C737 1.393 . S
C741 C740 1.391 . S
C742 H732 0.950 . S
C742 C743 1.386 . S
C742 C744 1.391 . S
C743 C742 1.386 . S
C743 C747 1.393 . S
C744 H733 0.950 . S
C744 C742 1.391 . S
C744 C745 1.400 . S
C745 C739 1.491 . S
C745 C744 1.400 . S
C745 C746 1.398 . S
C746 H734 0.950 . S
C746 C745 1.398 . S
C746 C747 1.391 . S
C747 H735 0.950 . S
C747 C743 1.393 . S
C747 C746 1.391 . S
H748 C756 0.950 . S
H749 C761 0.950 . S
H750 C758 0.950 . S
H751 C760 0.950 . S
H752 C762 0.950 . S
H753 C764 0.950 . S
H754 C766 0.950 . S
H755 C767 0.950 . S
C756 H748 0.950 . S
C756 C757 1.386 . S
C756 C758 1.391 . S
C757 C756 1.386 . S
C757 C761 1.393 . S
C758 H750 0.950 . S
C758 C756 1.391 . S
C758 C759 1.400 . S
C759 C758 1.400 . S
C759 C760 1.398 . S
C759 C765 1.491 . S
C760 H751 0.950 . S
C760 C759 1.398 . S
C760 C761 1.391 . S
C761 H749 0.950 . S
C761 C757 1.393 . S
C761 C760 1.391 . S
C762 H752 0.950 . S
C762 C763 1.386 . S
C762 C764 1.391 . S
C763 C762 1.386 . S
C763 C767 1.393 . S
C764 H753 0.950 . S
C764 C762 1.391 . S
C764 C765 1.400 . S
C765 C759 1.491 . S
C765 C764 1.400 . S
C765 C766 1.398 . S
C766 H754 0.950 . S
C766 C765 1.398 . S
C766 C767 1.391 . S
C767 H755 0.950 . S
C767 C763 1.393 . S
C767 C766 1.391 . S
H768 C776 0.950 . S
H769 C781 0.950 . S
H770 C778 0.950 . S
H771 C780 0.950 . S
H772 C782 0.950 . S
H773 C784 0.950 . S
H774 C786 0.950 . S
H775 C787 0.950 . S
C776 H768 0.950 . S
C776 C777 1.386 . S
C776 C778 1.391 . S
C777 C776 1.386 . S
C777 C781 1.393 . S
C778 H770 0.950 . S
C778 C776 1.391 . S
C778 C779 1.400 . S
C779 C778 1.400 . S
C779 C780 1.398 . S
C779 C785 1.491 . S
C780 H771 0.950 . S
C780 C779 1.398 . S
C780 C781 1.391 . S
C781 H769 0.950 . S
C781 C777 1.393 . S
C781 C780 1.391 . S
C782 H772 0.950 . S
C782 C783 1.386 . S
C782 C784 1.391 . S
C783 C782 1.386 . S
C783 C787 1.393 . S
C784 H773 0.950 . S
C784 C782 1.391 . S
C784 C785 1.400 . S
C785 C779 1.491 . S
C785 C784 1.400 . S
C785 C786 1.398 . S
C786 H774 0.950 . S
C786 C785 1.398 . S
C786 C787 1.391 . S
C787 H775 0.950 . S
C787 C783 1.393 . S
C787 C786 1.391 . S
H788 C796 0.950 . S
H789 C801 0.950 . S
H790 C798 0.950 . S
H791 C800 0.950 . S
H792 C802 0.950 . S
H793 C804 0.950 . S
H794 C806 0.950 . S
H795 C807 0.950 . S
C796 H788 0.950 . S
C796 C797 1.386 . S
C796 C798 1.391 . S
C797 C796 1.386 . S
C797 C801 1.393 . S
C798 H790 0.950 . S
C798 C796 1.391 . S
C798 C799 1.400 . S
C799 C798 1.400 . S
C799 C800 1.398 . S
C799 C805 1.491 . S
C800 H791 0.950 . S
C800 C799 1.398 . S
C800 C801 1.391 . S
C801 H789 0.950 . S
C801 C797 1.393 . S
C801 C800 1.391 . S
C802 H792 0.950 . S
C802 C803 1.386 . S
C802 C804 1.391 . S
C803 C802 1.386 . S
C803 C807 1.393 . S
C804 H793 0.950 . S
C804 C802 1.391 . S
C804 C805 1.400 . S
C805 C799 1.491 . S
C805 C804 1.400 . S
C805 C806 1.398 . S
C806 H794 0.950 . S
C806 C805 1.398 . S
C806 C807 1.391 . S
C807 H795 0.950 . S
C807 C803 1.393 . S
C807 C806 1.391 . S
H808 C816 0.950 . S
H809 C821 0.950 . S
H810 C818 0.950 . S
H811 C820 0.950 . S
H812 C822 0.950 . S
H813 C824 0.950 . S
H814 C826 0.950 . S
H815 C827 0.950 . S
C816 H808 0.950 . S
C816 C817 1.386 . S
C816 C818 1.391 . S
C817 C816 1.386 . S
C817 C821 1.393 . S
C818 H810 0.950 . S
C818 C816 1.391 . S
C818 C819 1.400 . S
C819 C818 1.400 . S
C819 C820 1.398 . S
C819 C825 1.491 . S
C820 H811 0.950 . S
C820 C819 1.398 . S
C820 C821 1.391 . S
C821 H809 0.950 . S
C821 C817 1.393 . S
C821 C820 1.391 . S
C822 H812 0.950 . S
C822 C823 1.386 . S
C822 C824 1.391 . S
C823 C822 1.386 . S
C823 C827 1.393 . S
C824 H813 0.950 . S
C824 C822 1.391 . S
C824 C825 1.400 . S
C825 C819 1.491 . S
C825 C824 1.400 . S
C825 C826 1.398 . S
C826 H814 0.950 . S
C826 C825 1.398 . S
C826 C827 1.391 . S
C827 H815 0.950 . S
C827 C823 1.393 . S
C827 C826 1.391 . S
H828 C836 0.949 . S
H829 C841 0.950 . S
H830 C838 0.949 1_655 S
H831 C840 0.950 . S
H832 C842 0.950 . S
H833 C844 0.950 . S
H834 C846 0.950 . S
H835 C847 0.950 . S
C836 H828 0.949 . S
C836 C837 1.386 1_655 S
C836 C838 1.391 1_655 S
C837 C836 1.386 1_455 S
C837 C841 1.393 . S
C838 H830 0.949 1_455 S
C838 C836 1.391 1_455 S
C838 C839 1.401 . S
C839 C838 1.401 . S
C839 C840 1.398 . S
C839 C845 1.491 1_556 S
C840 H831 0.950 . S
C840 C839 1.398 . S
C840 C841 1.391 . S
C841 H829 0.950 . S
C841 C837 1.393 . S
C841 C840 1.391 . S
C842 H832 0.950 . S
C842 C843 1.386 . S
C842 C844 1.391 . S
C843 C842 1.386 . S
C843 C847 1.393 . S
C844 H833 0.950 . S
C844 C842 1.391 . S
C844 C845 1.400 . S
C845 C839 1.491 1_554 S
C845 C844 1.400 . S
C845 C846 1.398 . S
C846 H834 0.950 . S
C846 C845 1.398 . S
C846 C847 1.391 . S
C847 H835 0.950 . S
C847 C843 1.393 . S
C847 C846 1.391 . S
H848 C856 0.950 . S
H849 C861 0.950 . S
H850 C858 0.950 . S
H851 C860 0.950 . S
H852 C862 0.950 . S
H853 C864 0.950 . S
H854 C866 0.950 . S
H855 C867 0.950 . S
C856 H848 0.950 . S
C856 C857 1.386 . S
C856 C858 1.391 . S
C857 C856 1.386 . S
C857 C861 1.393 . S
C858 H850 0.950 . S
C858 C856 1.391 . S
C858 C859 1.400 . S
C859 C858 1.400 . S
C859 C860 1.398 . S
C859 C865 1.491 . S
C860 H851 0.950 . S
C860 C859 1.398 . S
C860 C861 1.391 . S
C861 H849 0.950 . S
C861 C857 1.393 . S
C861 C860 1.391 . S
C862 H852 0.950 . S
C862 C863 1.386 1_565 S
C862 C864 1.391 . S
C863 C862 1.386 1_545 S
C863 C867 1.393 . S
C864 H853 0.950 . S
C864 C862 1.391 . S
C864 C865 1.400 . S
C865 C859 1.491 . S
C865 C864 1.400 . S
C865 C866 1.398 1_565 S
C866 H854 0.950 . S
C866 C865 1.398 1_545 S
C866 C867 1.391 . S
C867 H855 0.950 . S
C867 C863 1.393 . S
C867 C866 1.391 . S
H868 C876 0.950 . S
H869 C881 0.950 . S
H870 C878 0.950 . S
H871 C880 0.950 . S
H872 C882 0.950 . S
H873 C884 0.950 . S
H874 C886 0.950 . S
H875 C887 0.950 . S
C876 H868 0.950 . S
C876 C877 1.386 . S
C876 C878 1.391 . S
C877 C876 1.386 . S
C877 C881 1.393 . S
C878 H870 0.950 . S
C878 C876 1.391 . S
C878 C879 1.400 . S
C879 C878 1.400 . S
C879 C880 1.398 . S
C879 C885 1.491 . S
C880 H871 0.950 . S
C880 C879 1.398 . S
C880 C881 1.391 . S
C881 H869 0.950 . S
C881 C877 1.393 . S
C881 C880 1.391 . S
C882 H872 0.950 . S
C882 C883 1.386 1_565 S
C882 C884 1.391 . S
C883 C882 1.386 1_545 S
C883 C887 1.393 . S
C884 H873 0.950 . S
C884 C882 1.391 . S
C884 C885 1.400 . S
C885 C879 1.491 . S
C885 C884 1.400 . S
C885 C886 1.398 1_565 S
C886 H874 0.950 . S
C886 C885 1.398 1_545 S
C886 C887 1.391 . S
C887 H875 0.950 . S
C887 C883 1.393 . S
C887 C886 1.391 . S
H888 C896 0.950 . S
H889 C901 0.950 . S
H890 C898 0.950 . S
H891 C900 0.950 . S
H892 C902 0.950 . S
H893 C904 0.950 . S
H894 C906 0.950 . S
H895 C907 0.950 . S
C896 H888 0.950 . S
C896 C897 1.386 . S
C896 C898 1.391 . S
C897 C896 1.386 . S
C897 C901 1.393 . S
C898 H890 0.950 . S
C898 C896 1.391 . S
C898 C899 1.400 . S
C899 C898 1.400 . S
C899 C900 1.398 . S
C899 C905 1.491 . S
C900 H891 0.950 . S
C900 C899 1.398 . S
C900 C901 1.391 . S
C901 H889 0.950 . S
C901 C897 1.393 . S
C901 C900 1.391 . S
C902 H892 0.950 . S
C902 C903 1.386 . S
C902 C904 1.391 . S
C903 C902 1.386 . S
C903 C907 1.393 . S
C904 H893 0.950 . S
C904 C902 1.391 . S
C904 C905 1.400 . S
C905 C899 1.491 . S
C905 C904 1.400 . S
C905 C906 1.398 . S
C906 H894 0.950 . S
C906 C905 1.398 . S
C906 C907 1.391 . S
C907 H895 0.950 . S
C907 C903 1.393 . S
C907 C906 1.391 . S
H908 C916 0.950 . S
H909 C921 0.950 . S
H910 C918 0.950 . S
H911 C920 0.950 . S
H912 C922 0.950 . S
H913 C924 0.950 . S
H914 C926 0.950 . S
H915 C927 0.950 . S
C916 H908 0.950 . S
C916 C917 1.386 . S
C916 C918 1.391 . S
C917 C916 1.386 . S
C917 C921 1.393 . S
C918 H910 0.950 . S
C918 C916 1.391 . S
C918 C919 1.400 . S
C919 C918 1.400 . S
C919 C920 1.398 . S
C919 C925 1.491 . S
C920 H911 0.950 . S
C920 C919 1.398 . S
C920 C921 1.391 . S
C921 H909 0.950 . S
C921 C917 1.393 . S
C921 C920 1.391 . S
C922 H912 0.950 . S
C922 C923 1.386 . S
C922 C924 1.391 . S
C923 C922 1.386 . S
C923 C927 1.393 . S
C924 H913 0.950 . S
C924 C922 1.391 . S
C924 C925 1.400 . S
C925 C919 1.491 . S
C925 C924 1.400 . S
C925 C926 1.398 . S
C926 H914 0.950 . S
C926 C925 1.398 . S
C926 C927 1.391 . S
C927 H915 0.950 . S
C927 C923 1.393 . S
C927 C926 1.391 . S
H928 C936 0.950 . S
H929 C941 0.950 . S
H930 C938 0.950 . S
H931 C940 0.950 . S
H932 C942 0.950 . S
H933 C944 0.950 . S
H934 C946 0.950 . S
H935 C947 0.950 . S
C936 H928 0.950 . S
C936 C937 1.386 . S
C936 C938 1.391 . S
C937 C936 1.386 . S
C937 C941 1.393 . S
C938 H930 0.950 . S
C938 C936 1.391 . S
C938 C939 1.400 . S
C939 C938 1.400 . S
C939 C940 1.398 . S
C939 C945 1.491 . S
C940 H931 0.950 . S
C940 C939 1.398 . S
C940 C941 1.391 . S
C941 H929 0.950 . S
C941 C937 1.393 . S
C941 C940 1.391 . S
C942 H932 0.950 . S
C942 C943 1.386 . S
C942 C944 1.391 . S
C943 C942 1.386 . S
C943 C947 1.393 . S
C944 H933 0.950 . S
C944 C942 1.391 . S
C944 C945 1.400 . S
C945 C939 1.491 . S
C945 C944 1.400 . S
C945 C946 1.398 . S
C946 H934 0.950 . S
C946 C945 1.398 . S
C946 C947 1.391 . S
C947 H935 0.950 . S
C947 C943 1.393 . S
C947 C946 1.391 . S
H948 C956 0.950 . S
H949 C961 0.950 . S
H950 C958 0.950 . S
H951 C960 0.950 . S
H952 C962 0.950 . S
H953 C964 0.950 . S
H954 C966 0.950 . S
H955 C967 0.950 . S
C956 H948 0.950 . S
C956 C957 1.386 . S
C956 C958 1.391 . S
C957 C956 1.386 . S
C957 C961 1.393 . S
C958 H950 0.950 . S
C958 C956 1.391 . S
C958 C959 1.400 . S
C959 C958 1.400 . S
C959 C960 1.398 . S
C959 C965 1.491 . S
C960 H951 0.950 . S
C960 C959 1.398 . S
C960 C961 1.391 . S
C961 H949 0.950 . S
C961 C957 1.393 . S
C961 C960 1.391 . S
C962 H952 0.950 . S
C962 C963 1.386 . S
C962 C964 1.391 . S
C963 C962 1.386 . S
C963 C967 1.393 . S
C964 H953 0.950 . S
C964 C962 1.391 . S
C964 C965 1.400 . S
C965 C959 1.491 . S
C965 C964 1.400 . S
C965 C966 1.398 . S
C966 H954 0.950 . S
C966 C965 1.398 . S
C966 C967 1.391 . S
C967 H955 0.950 . S
C967 C963 1.393 . S
C967 C966 1.391 . S
H968 C976 0.950 . S
H969 C981 0.950 . S
H970 C978 0.950 . S
H971 C980 0.950 1_545 S
H972 C982 0.950 . S
H973 C984 0.950 . S
H974 C986 0.950 . S
H975 C987 0.950 1_565 S
C976 H968 0.950 . S
C976 C977 1.386 . S
C976 C978 1.391 . S
C977 C976 1.386 . S
C977 C981 1.393 . S
C978 H970 0.950 . S
C978 C976 1.391 . S
C978 C979 1.400 . S
C979 C978 1.400 . S
C979 C980 1.398 . S
C979 C985 1.491 . S
C980 H971 0.950 1_565 S
C980 C979 1.398 . S
C980 C981 1.391 . S
C981 H969 0.950 . S
C981 C977 1.393 . S
C981 C980 1.391 . S
C982 H972 0.950 . S
C982 C983 1.386 . S
C982 C984 1.391 . S
C983 C982 1.386 . S
C983 C987 1.393 . S
C984 H973 0.950 . S
C984 C982 1.391 . S
C984 C985 1.400 1_545 S
C985 C979 1.491 . S
C985 C984 1.400 1_565 S
C985 C986 1.398 . S
C986 H974 0.950 . S
C986 C985 1.398 . S
C986 C987 1.391 1_565 S
C987 H975 0.950 1_545 S
C987 C983 1.393 . S
C987 C986 1.391 1_545 S
H988 C996 0.950 . S
H989 C1001 0.950 . S
H990 C998 0.950 . S
H991 C1000 0.950 1_545 S
H992 C1002 0.950 . S
H993 C1004 0.950 . S
H994 C1006 0.950 . S
H995 C1007 0.950 1_565 S
C996 H988 0.950 . S
C996 C997 1.386 . S
C996 C998 1.391 . S
C997 C996 1.386 . S
C997 C1001 1.393 . S
C998 H990 0.950 . S
C998 C996 1.391 . S
C998 C999 1.400 . S
C999 C998 1.400 . S
C999 C1000 1.398 . S
C999 C1005 1.491 . S
C1000 H991 0.950 1_565 S
C1000 C999 1.398 . S
C1000 C1001 1.391 . S
C1001 H989 0.950 . S
C1001 C997 1.393 . S
C1001 C1000 1.391 . S
C1002 H992 0.950 . S
C1002 C1003 1.386 . S
C1002 C1004 1.391 . S
C1003 C1002 1.386 . S
C1003 C1007 1.393 . S
C1004 H993 0.950 . S
C1004 C1002 1.391 . S
C1004 C1005 1.400 1_545 S
C1005 C999 1.491 . S
C1005 C1004 1.400 1_565 S
C1005 C1006 1.398 . S
C1006 H994 0.950 . S
C1006 C1005 1.398 . S
C1006 C1007 1.391 1_565 S
C1007 H995 0.950 1_545 S
C1007 C1003 1.393 . S
C1007 C1006 1.391 1_545 S
H1008 C1016 0.950 . S
H1009 C1021 0.950 . S
H1010 C1018 0.950 . S
H1011 C1020 0.950 . S
H1012 C1022 0.950 . S
H1013 C1024 0.950 . S
H1014 C1026 0.950 . S
H1015 C1027 0.950 . S
C1016 H1008 0.950 . S
C1016 C1017 1.386 . S
C1016 C1018 1.391 . S
C1017 C1016 1.386 . S
C1017 C1021 1.393 . S
C1018 H1010 0.950 . S
C1018 C1016 1.391 . S
C1018 C1019 1.400 . S
C1019 C1018 1.400 . S
C1019 C1020 1.398 . S
C1019 C1025 1.491 . S
C1020 H1011 0.950 . S
C1020 C1019 1.398 . S
C1020 C1021 1.391 . S
C1021 H1009 0.950 . S
C1021 C1017 1.393 . S
C1021 C1020 1.391 . S
C1022 H1012 0.950 . S
C1022 C1023 1.386 . S
C1022 C1024 1.391 . S
C1023 C1022 1.386 . S
C1023 C1027 1.393 . S
C1024 H1013 0.950 . S
C1024 C1022 1.391 . S
C1024 C1025 1.400 . S
C1025 C1019 1.491 . S
C1025 C1024 1.400 . S
C1025 C1026 1.398 . S
C1026 H1014 0.950 . S
C1026 C1025 1.398 . S
C1026 C1027 1.391 . S
C1027 H1015 0.950 . S
C1027 C1023 1.393 . S
C1027 C1026 1.391 . S
H1028 C1036 0.950 . S
H1029 C1041 0.950 . S
H1030 C1038 0.950 . S
H1031 C1040 0.950 . S
H1032 C1042 0.950 . S
H1033 C1044 0.950 . S
H1034 C1046 0.950 . S
H1035 C1047 0.950 . S
C1036 H1028 0.950 . S
C1036 C1037 1.386 . S
C1036 C1038 1.391 . S
C1037 C1036 1.386 . S
C1037 C1041 1.393 . S
C1038 H1030 0.950 . S
C1038 C1036 1.391 . S
C1038 C1039 1.400 . S
C1039 C1038 1.400 . S
C1039 C1040 1.398 . S
C1039 C1045 1.491 . S
C1040 H1031 0.950 . S
C1040 C1039 1.398 . S
C1040 C1041 1.391 . S
C1041 H1029 0.950 . S
C1041 C1037 1.393 . S
C1041 C1040 1.391 . S
C1042 H1032 0.950 . S
C1042 C1043 1.386 . S
C1042 C1044 1.391 . S
C1043 C1042 1.386 . S
C1043 C1047 1.393 . S
C1044 H1033 0.950 . S
C1044 C1042 1.391 . S
C1044 C1045 1.400 . S
C1045 C1039 1.491 . S
C1045 C1044 1.400 . S
C1045 C1046 1.398 . S
C1046 H1034 0.950 . S
C1046 C1045 1.398 . S
C1046 C1047 1.391 . S
C1047 H1035 0.950 . S
C1047 C1043 1.393 . S
C1047 C1046 1.391 . S
H1048 C1056 0.950 . S
H1049 C1061 0.950 . S
H1050 C1058 0.950 . S
H1051 C1060 0.950 . S
H1052 C1062 0.950 . S
H1053 C1064 0.950 . S
H1054 C1066 0.950 . S
H1055 C1067 0.950 . S
C1056 H1048 0.950 . S
C1056 C1057 1.386 . S
C1056 C1058 1.391 . S
C1057 C1056 1.386 . S
C1057 C1061 1.393 . S
C1058 H1050 0.950 . S
C1058 C1056 1.391 . S
C1058 C1059 1.400 . S
C1059 C1058 1.400 . S
C1059 C1060 1.398 . S
C1059 C1065 1.491 . S
C1060 H1051 0.950 . S
C1060 C1059 1.398 . S
C1060 C1061 1.391 . S
C1061 H1049 0.950 . S
C1061 C1057 1.393 . S
C1061 C1060 1.391 . S
C1062 H1052 0.950 . S
C1062 C1063 1.386 . S
C1062 C1064 1.391 . S
C1063 C1062 1.386 . S
C1063 C1067 1.393 . S
C1064 H1053 0.950 . S
C1064 C1062 1.391 . S
C1064 C1065 1.400 . S
C1065 C1059 1.491 . S
C1065 C1064 1.400 . S
C1065 C1066 1.398 . S
C1066 H1054 0.950 . S
C1066 C1065 1.398 . S
C1066 C1067 1.391 . S
C1067 H1055 0.950 . S
C1067 C1063 1.393 . S
C1067 C1066 1.391 . S
H1068 C1076 0.950 . S
H1069 C1081 0.950 . S
H1070 C1078 0.950 . S
H1071 C1080 0.950 . S
H1072 C1082 0.950 . S
H1073 C1084 0.950 . S
H1074 C1086 0.950 . S
H1075 C1087 0.950 . S
C1076 H1068 0.950 . S
C1076 C1077 1.386 . S
C1076 C1078 1.391 . S
C1077 C1076 1.386 . S
C1077 C1081 1.393 . S
C1078 H1070 0.950 . S
C1078 C1076 1.391 . S
C1078 C1079 1.400 . S
C1079 C1078 1.400 . S
C1079 C1080 1.398 . S
C1079 C1085 1.491 . S
C1080 H1071 0.950 . S
C1080 C1079 1.398 . S
C1080 C1081 1.391 . S
C1081 H1069 0.950 . S
C1081 C1077 1.393 . S
C1081 C1080 1.391 . S
C1082 H1072 0.950 . S
C1082 C1083 1.386 . S
C1082 C1084 1.391 . S
C1083 C1082 1.386 . S
C1083 C1087 1.393 . S
C1084 H1073 0.950 . S
C1084 C1082 1.391 . S
C1084 C1085 1.400 . S
C1085 C1079 1.491 . S
C1085 C1084 1.400 . S
C1085 C1086 1.398 . S
C1086 H1074 0.950 . S
C1086 C1085 1.398 . S
C1086 C1087 1.391 . S
C1087 H1075 0.950 . S
C1087 C1083 1.393 . S
C1087 C1086 1.391 . S
H1088 C1096 0.950 . S
H1089 C1101 0.950 . S
H1090 C1098 0.950 . S
H1091 C1100 0.950 . S
H1092 C1102 0.950 . S
H1093 C1104 0.950 . S
H1094 C1106 0.950 . S
H1095 C1107 0.950 . S
C1096 H1088 0.950 . S
C1096 C1097 1.386 . S
C1096 C1098 1.391 . S
C1097 C1096 1.386 . S
C1097 C1101 1.393 . S
C1098 H1090 0.950 . S
C1098 C1096 1.391 . S
C1098 C1099 1.400 . S
C1099 C1098 1.400 . S
C1099 C1100 1.398 . S
C1099 C1105 1.491 . S
C1100 H1091 0.950 . S
C1100 C1099 1.398 . S
C1100 C1101 1.391 . S
C1101 H1089 0.950 . S
C1101 C1097 1.393 . S
C1101 C1100 1.391 . S
C1102 H1092 0.950 . S
C1102 C1103 1.386 . S
C1102 C1104 1.391 . S
C1103 C1102 1.386 . S
C1103 C1107 1.393 . S
C1104 H1093 0.950 . S
C1104 C1102 1.391 . S
C1104 C1105 1.400 . S
C1105 C1099 1.491 . S
C1105 C1104 1.400 . S
C1105 C1106 1.398 . S
C1106 H1094 0.950 . S
C1106 C1105 1.398 . S
C1106 C1107 1.391 . S
C1107 H1095 0.950 . S
C1107 C1103 1.393 . S
C1107 C1106 1.391 . S
H1108 C1116 0.950 . S
H1109 C1121 0.950 . S
H1110 C1118 0.950 . S
H1111 C1120 0.950 . S
H1112 C1122 0.950 . S
H1113 C1124 0.950 . S
H1114 C1126 0.950 . S
H1115 C1127 0.950 . S
C1116 H1108 0.950 . S
C1116 C1117 1.386 . S
C1116 C1118 1.391 . S
C1117 C1116 1.386 . S
C1117 C1121 1.393 . S
C1118 H1110 0.950 . S
C1118 C1116 1.391 . S
C1118 C1119 1.400 . S
C1119 C1118 1.400 . S
C1119 C1120 1.398 . S
C1119 C1125 1.491 . S
C1120 H1111 0.950 . S
C1120 C1119 1.398 . S
C1120 C1121 1.391 . S
C1121 H1109 0.950 . S
C1121 C1117 1.393 . S
C1121 C1120 1.391 . S
C1122 H1112 0.950 . S
C1122 C1123 1.386 . S
C1122 C1124 1.391 . S
C1123 C1122 1.386 . S
C1123 C1127 1.393 . S
C1124 H1113 0.950 . S
C1124 C1122 1.391 . S
C1124 C1125 1.400 . S
C1125 C1119 1.491 . S
C1125 C1124 1.400 . S
C1125 C1126 1.398 . S
C1126 H1114 0.950 . S
C1126 C1125 1.398 . S
C1126 C1127 1.391 . S
C1127 H1115 0.950 . S
C1127 C1123 1.393 . S
C1127 C1126 1.391 . S
H1128 C1136 0.950 . S
H1129 C1141 0.950 . S
H1130 C1138 0.950 . S
H1131 C1140 0.950 . S
H1132 C1142 0.950 . S
H1133 C1144 0.950 . S
H1134 C1146 0.950 . S
H1135 C1147 0.950 . S
C1136 H1128 0.950 . S
C1136 C1137 1.386 . S
C1136 C1138 1.391 . S
C1137 C1136 1.386 . S
C1137 C1141 1.393 . S
C1138 H1130 0.950 . S
C1138 C1136 1.391 . S
C1138 C1139 1.400 . S
C1139 C1138 1.400 . S
C1139 C1140 1.398 . S
C1139 C1145 1.491 . S
C1140 H1131 0.950 . S
C1140 C1139 1.398 . S
C1140 C1141 1.391 . S
C1141 H1129 0.950 . S
C1141 C1137 1.393 . S
C1141 C1140 1.391 . S
C1142 H1132 0.950 . S
C1142 C1143 1.386 . S
C1142 C1144 1.391 . S
C1143 C1142 1.386 . S
C1143 C1147 1.393 . S
C1144 H1133 0.950 . S
C1144 C1142 1.391 . S
C1144 C1145 1.400 . S
C1145 C1139 1.491 . S
C1145 C1144 1.400 . S
C1145 C1146 1.398 . S
C1146 H1134 0.950 . S
C1146 C1145 1.398 . S
C1146 C1147 1.391 . S
C1147 H1135 0.950 . S
C1147 C1143 1.393 . S
C1147 C1146 1.391 . S
H1148 C1156 0.950 . S
H1149 C1161 0.950 . S
H1150 C1158 0.950 . S
H1151 C1160 0.950 . S
H1152 C1162 0.950 . S
H1153 C1164 0.950 . S
H1154 C1166 0.950 . S
H1155 C1167 0.950 . S
C1156 H1148 0.950 . S
C1156 C1157 1.386 . S
C1156 C1158 1.391 . S
C1157 C1156 1.386 . S
C1157 C1161 1.393 . S
C1158 H1150 0.950 . S
C1158 C1156 1.391 . S
C1158 C1159 1.400 . S
C1159 C1158 1.400 . S
C1159 C1160 1.398 . S
C1159 C1165 1.491 . S
C1160 H1151 0.950 . S
C1160 C1159 1.398 . S
C1160 C1161 1.391 . S
C1161 H1149 0.950 . S
C1161 C1157 1.393 . S
C1161 C1160 1.391 . S
C1162 H1152 0.950 . S
C1162 C1163 1.386 . S
C1162 C1164 1.391 . S
C1163 C1162 1.386 . S
C1163 C1167 1.393 . S
C1164 H1153 0.950 . S
C1164 C1162 1.391 . S
C1164 C1165 1.400 . S
C1165 C1159 1.491 . S
C1165 C1164 1.400 . S
C1165 C1166 1.398 . S
C1166 H1154 0.950 . S
C1166 C1165 1.398 . S
C1166 C1167 1.391 . S
C1167 H1155 0.950 . S
C1167 C1163 1.393 . S
C1167 C1166 1.391 . S
H1168 C1176 0.950 . S
H1169 C1181 0.950 . S
H1170 C1178 0.950 1_655 S
H1171 C1180 0.950 . S
H1172 C1182 0.950 1_455 S
H1173 C1184 0.950 . S
H1174 C1186 0.950 . S
H1175 C1187 0.950 . S
C1176 H1168 0.950 . S
C1176 C1177 1.386 . S
C1176 C1178 1.391 . S
C1177 C1176 1.386 . S
C1177 C1181 1.393 . S
C1178 H1170 0.950 1_455 S
C1178 C1176 1.391 . S
C1178 C1179 1.400 . S
C1179 C1178 1.400 . S
C1179 C1180 1.398 . S
C1179 C1185 1.491 1_455 S
C1180 H1171 0.950 . S
C1180 C1179 1.398 . S
C1180 C1181 1.391 . S
C1181 H1169 0.950 . S
C1181 C1177 1.393 . S
C1181 C1180 1.391 . S
C1182 H1172 0.950 1_655 S
C1182 C1183 1.386 . S
C1182 C1184 1.391 1_655 S
C1183 C1182 1.386 . S
C1183 C1187 1.393 . S
C1184 H1173 0.950 . S
C1184 C1182 1.391 1_455 S
C1184 C1185 1.400 1_455 S
C1185 C1179 1.491 1_655 S
C1185 C1184 1.400 1_655 S
C1185 C1186 1.398 . S
C1186 H1174 0.950 . S
C1186 C1185 1.398 . S
C1186 C1187 1.391 . S
C1187 H1175 0.950 . S
C1187 C1183 1.393 . S
C1187 C1186 1.391 . S
H1188 C1196 0.950 . S
H1189 C1201 0.950 . S
H1190 C1198 0.950 . S
H1191 C1200 0.950 . S
H1192 C1202 0.950 . S
H1193 C1204 0.950 . S
H1194 C1206 0.950 . S
H1195 C1207 0.950 . S
C1196 H1188 0.950 . S
C1196 C1197 1.386 . S
C1196 C1198 1.391 . S
C1197 C1196 1.386 . S
C1197 C1201 1.393 . S
C1198 H1190 0.950 . S
C1198 C1196 1.391 . S
C1198 C1199 1.400 . S
C1199 C1198 1.400 . S
C1199 C1200 1.398 . S
C1199 C1205 1.491 . S
C1200 H1191 0.950 . S
C1200 C1199 1.398 . S
C1200 C1201 1.391 . S
C1201 H1189 0.950 . S
C1201 C1197 1.393 . S
C1201 C1200 1.391 . S
C1202 H1192 0.950 . S
C1202 C1203 1.386 . S
C1202 C1204 1.391 . S
C1203 C1202 1.386 . S
C1203 C1207 1.393 . S
C1204 H1193 0.950 . S
C1204 C1202 1.391 . S
C1204 C1205 1.400 . S
C1205 C1199 1.491 . S
C1205 C1204 1.400 . S
C1205 C1206 1.398 . S
C1206 H1194 0.950 . S
C1206 C1205 1.398 . S
C1206 C1207 1.391 . S
C1207 H1195 0.950 . S
C1207 C1203 1.393 . S
C1207 C1206 1.391 . S
H1208 C1216 0.950 . S
H1209 C1221 0.950 . S
H1210 C1218 0.950 . S
H1211 C1220 0.950 . S
H1212 C1222 0.950 . S
H1213 C1224 0.950 . S
H1214 C1226 0.950 . S
H1215 C1227 0.950 . S
C1216 H1208 0.950 . S
C1216 C1217 1.386 . S
C1216 C1218 1.391 . S
C1217 C1216 1.386 . S
C1217 C1221 1.393 . S
C1218 H1210 0.950 . S
C1218 C1216 1.391 . S
C1218 C1219 1.400 . S
C1219 C1218 1.400 . S
C1219 C1220 1.398 . S
C1219 C1225 1.491 . S
C1220 H1211 0.950 . S
C1220 C1219 1.398 . S
C1220 C1221 1.391 . S
C1221 H1209 0.950 . S
C1221 C1217 1.393 . S
C1221 C1220 1.391 . S
C1222 H1212 0.950 . S
C1222 C1223 1.386 . S
C1222 C1224 1.391 . S
C1223 C1222 1.386 . S
C1223 C1227 1.393 . S
C1224 H1213 0.950 . S
C1224 C1222 1.391 . S
C1224 C1225 1.400 . S
C1225 C1219 1.491 . S
C1225 C1224 1.400 . S
C1225 C1226 1.398 . S
C1226 H1214 0.950 . S
C1226 C1225 1.398 . S
C1226 C1227 1.391 . S
C1227 H1215 0.950 . S
C1227 C1223 1.393 . S
C1227 C1226 1.391 . S
H1228 C1236 0.950 . S
H1229 C1241 0.950 . S
H1230 C1238 0.950 . S
H1231 C1240 0.950 . S
H1232 C1242 0.950 . S
H1233 C1244 0.950 . S
H1234 C1246 0.950 . S
H1235 C1247 0.950 . S
C1236 H1228 0.950 . S
C1236 C1237 1.386 . S
C1236 C1238 1.391 . S
C1237 C1236 1.386 . S
C1237 C1241 1.393 . S
C1238 H1230 0.950 . S
C1238 C1236 1.391 . S
C1238 C1239 1.400 . S
C1239 C1238 1.400 . S
C1239 C1240 1.398 . S
C1239 C1245 1.491 1_455 S
C1240 H1231 0.950 . S
C1240 C1239 1.398 . S
C1240 C1241 1.391 . S
C1241 H1229 0.950 . S
C1241 C1237 1.393 . S
C1241 C1240 1.391 . S
C1242 H1232 0.950 . S
C1242 C1243 1.386 . S
C1242 C1244 1.391 . S
C1243 C1242 1.386 . S
C1243 C1247 1.393 . S
C1244 H1233 0.950 . S
C1244 C1242 1.391 . S
C1244 C1245 1.400 . S
C1245 C1239 1.491 1_655 S
C1245 C1244 1.400 . S
C1245 C1246 1.398 . S
C1246 H1234 0.950 . S
C1246 C1245 1.398 . S
C1246 C1247 1.391 . S
C1247 H1235 0.950 . S
C1247 C1243 1.393 . S
C1247 C1246 1.391 . S
H1248 C1256 0.950 . S
H1249 C1261 0.950 . S
H1250 C1258 0.950 . S
H1251 C1260 0.950 . S
H1252 C1262 0.950 . S
H1253 C1264 0.950 . S
H1254 C1266 0.950 . S
H1255 C1267 0.950 . S
C1256 H1248 0.950 . S
C1256 C1257 1.386 1_655 S
C1256 C1258 1.391 . S
C1257 C1256 1.386 1_455 S
C1257 C1261 1.393 . S
C1258 H1250 0.950 . S
C1258 C1256 1.391 . S
C1258 C1259 1.400 1_655 S
C1259 C1258 1.400 1_455 S
C1259 C1260 1.398 . S
C1259 C1265 1.490 1_455 S
C1260 H1251 0.950 . S
C1260 C1259 1.398 . S
C1260 C1261 1.391 . S
C1261 H1249 0.950 . S
C1261 C1257 1.393 . S
C1261 C1260 1.391 . S
C1262 H1252 0.950 . S
C1262 C1263 1.386 1_455 S
C1262 C1264 1.391 . S
C1263 C1262 1.386 1_655 S
C1263 C1267 1.393 . S
C1264 H1253 0.950 . S
C1264 C1262 1.391 . S
C1264 C1265 1.397 1_455 S
C1265 C1259 1.490 1_655 S
C1265 C1264 1.397 1_655 S
C1265 C1266 1.403 . S
C1266 H1254 0.950 . S
C1266 C1265 1.403 . S
C1266 C1267 1.391 . S
C1267 H1255 0.950 . S
C1267 C1263 1.393 . S
C1267 C1266 1.391 . S
H1268 C1276 0.950 . S
H1269 C1281 0.950 . S
H1270 C1278 0.950 . S
H1271 C1280 0.950 . S
H1272 C1282 0.950 . S
H1273 C1284 0.950 . S
H1274 C1286 0.950 . S
H1275 C1287 0.950 . S
C1276 H1268 0.950 . S
C1276 C1277 1.386 . S
C1276 C1278 1.391 . S
C1277 C1276 1.386 . S
C1277 C1281 1.393 . S
C1278 H1270 0.950 . S
C1278 C1276 1.391 . S
C1278 C1279 1.400 . S
C1279 C1278 1.400 . S
C1279 C1280 1.398 . S
C1279 C1285 1.491 1_455 S
C1280 H1271 0.950 . S
C1280 C1279 1.398 . S
C1280 C1281 1.391 . S
C1281 H1269 0.950 . S
C1281 C1277 1.393 . S
C1281 C1280 1.391 . S
C1282 H1272 0.950 . S
C1282 C1283 1.386 . S
C1282 C1284 1.391 . S
C1283 C1282 1.386 . S
C1283 C1287 1.393 . S
C1284 H1273 0.950 . S
C1284 C1282 1.391 . S
C1284 C1285 1.400 . S
C1285 C1279 1.491 1_655 S
C1285 C1284 1.400 . S
C1285 C1286 1.398 . S
C1286 H1274 0.950 . S
C1286 C1285 1.398 . S
C1286 C1287 1.391 . S
C1287 H1275 0.950 . S
C1287 C1283 1.393 . S
C1287 C1286 1.391 . S
H1288 C1296 0.950 . S
H1289 C1301 0.950 . S
H1290 C1298 0.950 . S
H1291 C1300 0.950 . S
H1292 C1302 0.950 . S
H1293 C1304 0.950 . S
H1294 C1306 0.950 . S
H1295 C1307 0.950 . S
C1296 H1288 0.950 . S
C1296 C1297 1.386 . S
C1296 C1298 1.391 . S
C1297 C1296 1.386 . S
C1297 C1301 1.393 . S
C1298 H1290 0.950 . S
C1298 C1296 1.391 . S
C1298 C1299 1.400 . S
C1299 C1298 1.400 . S
C1299 C1300 1.398 . S
C1299 C1305 1.491 . S
C1300 H1291 0.950 . S
C1300 C1299 1.398 . S
C1300 C1301 1.391 . S
C1301 H1289 0.950 . S
C1301 C1297 1.393 . S
C1301 C1300 1.391 . S
C1302 H1292 0.950 . S
C1302 C1303 1.386 . S
C1302 C1304 1.391 . S
C1303 C1302 1.386 . S
C1303 C1307 1.393 . S
C1304 H1293 0.950 . S
C1304 C1302 1.391 . S
C1304 C1305 1.400 . S
C1305 C1299 1.491 . S
C1305 C1304 1.400 . S
C1305 C1306 1.398 . S
C1306 H1294 0.950 . S
C1306 C1305 1.398 . S
C1306 C1307 1.391 . S
C1307 H1295 0.950 . S
C1307 C1303 1.393 . S
C1307 C1306 1.391 . S
H1308 C1316 0.950 . S
H1309 C1321 0.950 . S
H1310 C1318 0.950 . S
H1311 C1320 0.950 . S
H1312 C1322 0.950 . S
H1313 C1324 0.950 . S
H1314 C1326 0.950 . S
H1315 C1327 0.950 . S
C1316 H1308 0.950 . S
C1316 C1317 1.386 . S
C1316 C1318 1.391 . S
C1317 C1316 1.386 . S
C1317 C1321 1.393 . S
C1318 H1310 0.950 . S
C1318 C1316 1.391 . S
C1318 C1319 1.400 . S
C1319 C1318 1.400 . S
C1319 C1320 1.398 . S
C1319 C1325 1.491 . S
C1320 H1311 0.950 . S
C1320 C1319 1.398 . S
C1320 C1321 1.391 . S
C1321 H1309 0.950 . S
C1321 C1317 1.393 . S
C1321 C1320 1.391 . S
C1322 H1312 0.950 . S
C1322 C1323 1.386 . S
C1322 C1324 1.391 . S
C1323 C1322 1.386 . S
C1323 C1327 1.393 . S
C1324 H1313 0.950 . S
C1324 C1322 1.391 . S
C1324 C1325 1.400 . S
C1325 C1319 1.491 . S
C1325 C1324 1.400 . S
C1325 C1326 1.398 . S
C1326 H1314 0.950 . S
C1326 C1325 1.398 . S
C1326 C1327 1.391 . S
C1327 H1315 0.950 . S
C1327 C1323 1.393 . S
C1327 C1326 1.391 . S
C537 N442 1.353 . S
C543 N13 1.367 . S
C557 N46 1.353 . S
C563 N376 1.365 . S
C577 N79 1.367 . S
C583 N409 1.353 . S
C597 N112 1.363 . S
C603 N343 1.362 . S
C617 N508 1.368 . S
C623 N145 1.354 . S
C637 N178 1.368 . S
C643 N310 1.354 . S
C657 N211 1.352 . S
C663 N475 1.367 . S
C677 N277 1.355 . S
C683 N244 1.362 . S
C697 C18 1.657 . S
C703 C150 1.658 . S
C717 C51 1.662 . S
C723 C183 1.662 . S
C737 C84 1.651 . S
C743 C216 1.651 . S
C757 C249 1.657 . S
C763 C117 1.657 . S
C777 C348 1.661 . S
C783 C282 1.661 . S
C797 C315 1.657 . S
C803 C381 1.657 . S
C817 C480 1.652 . S
C823 C414 1.651 . S
C837 C513 1.657 . S
C843 C447 1.657 . S
C857 C172 1.024 . S
C863 C7 0.988 . S
C877 C40 1.020 . S
C883 C205 0.992 . S
C897 C73 1.017 . S
C903 C238 0.995 . S
C917 C139 0.988 . S
C923 C106 1.023 . S
C937 C153 0.414 . S
C943 C351 0.381 . S
C957 C87 0.349 . S
C963 C285 0.447 . S
C977 C384 0.410 . S
C983 C219 0.399 . S
C997 C318 0.434 . S
C1003 C21 0.371 . S
C1017 C271 1.023 . S
C1023 C403 0.989 . S
C1037 C502 0.989 . S
C1043 C337 1.022 . S
C1057 C436 0.991 . S
C1063 C304 1.020 . S
C1077 C370 1.008 . S
C1083 C469 1.003 . S
C1097 C483 0.425 . S
C1103 C54 0.383 . S
C1117 C186 0.447 . S
C1123 C450 0.351 . S
C1137 C516 0.434 . S
C1143 C120 0.360 . S
C1157 C252 0.371 . S
C1163 C417 0.424 . S
C1177 N2 0.556 . S
C1183 N431 0.565 . S
C1197 N35 0.528 . S
C1203 N365 0.565 . S
C1217 N68 0.568 . S
C1223 N398 0.540 . S
C1237 N101 0.551 . S
C1243 N332 0.566 . S
C1257 N134 0.516 . S
C1263 N497 0.557 . S
C1277 N167 0.516 . S
C1283 N299 0.556 . S
C1297 N464 0.523 . S
C1303 N200 0.508 . S
C1317 N266 0.547 . S
C1323 N233 0.509 . S
