# Generated by pormake.
# Topology upa, (4)-cn, num edge types: 1
# Building blocks:
#     Node 0, Type 0, BuildingBlock: UXUYUI_clean_sbu_0, # of connection points: 4
#     Node 1, Type 0, BuildingBlock: UXUYUI_clean_sbu_0, # of connection points: 4
#     Node 2, Type 0, BuildingBlock: UXUYUI_clean_sbu_0, # of connection points: 4
#     Node 3, Type 0, BuildingBlock: UXUYUI_clean_sbu_0, # of connection points: 4
#     Node 4, Type 0, BuildingBlock: UXUYUI_clean_sbu_0, # of connection points: 4
#     Node 5, Type 0, BuildingBlock: UXUYUI_clean_sbu_0, # of connection points: 4
#     Node 6, Type 0, BuildingBlock: UXUYUI_clean_sbu_0, # of connection points: 4
#     Node 7, Type 0, BuildingBlock: UXUYUI_clean_sbu_0, # of connection points: 4
#     Edge 8, Type (0, 0), BuildingBlock: AJUNOK_clean_linker_0, # of connection points: 2
#     Edge 9, Type (0, 0), BuildingBlock: AJUNOK_clean_linker_0, # of connection points: 2
#     Edge 10, Type (0, 0), BuildingBlock: AJUNOK_clean_linker_0, # of connection points: 2
#     Edge 11, Type (0, 0), BuildingBlock: AJUNOK_clean_linker_0, # of connection points: 2
#     Edge 12, Type (0, 0), BuildingBlock: AJUNOK_clean_linker_0, # of connection points: 2
#     Edge 13, Type (0, 0), BuildingBlock: AJUNOK_clean_linker_0, # of connection points: 2
#     Edge 14, Type (0, 0), BuildingBlock: AJUNOK_clean_linker_0, # of connection points: 2
#     Edge 15, Type (0, 0), BuildingBlock: AJUNOK_clean_linker_0, # of connection points: 2
#     Edge 16, Type (0, 0), BuildingBlock: AJUNOK_clean_linker_0, # of connection points: 2
#     Edge 17, Type (0, 0), BuildingBlock: AJUNOK_clean_linker_0, # of connection points: 2
#     Edge 18, Type (0, 0), BuildingBlock: AJUNOK_clean_linker_0, # of connection points: 2
#     Edge 19, Type (0, 0), BuildingBlock: AJUNOK_clean_linker_0, # of connection points: 2
#     Edge 20, Type (0, 0), BuildingBlock: AJUNOK_clean_linker_0, # of connection points: 2
#     Edge 21, Type (0, 0), BuildingBlock: AJUNOK_clean_linker_0, # of connection points: 2
#     Edge 22, Type (0, 0), BuildingBlock: AJUNOK_clean_linker_0, # of connection points: 2
#     Edge 23, Type (0, 0), BuildingBlock: AJUNOK_clean_linker_0, # of connection points: 2
# Relax obj value: 0.344
# Max RMSD: 0.248
# Mean RMSD: 0.248
data_MOF--net-upa--node1-UXUYUI_clean_sbu_0--edge1-AJUNOK_clean_linker_0
_symmetry_space_group_name_H-M    P1
_symmetry_Int_Tables_number       1
_symmetry_cell_setting            triclinic
loop_
_symmetry_equiv_pos_as_xyz
'x, y, z'
_cell_length_a     31.788537
_cell_length_b     31.476072
_cell_length_c     51.656665
_cell_angle_alpha  89.999449
_cell_angle_beta   90.008763
_cell_angle_gamma 89.984821
loop_
_atom_site_label
_atom_site_type_symbol
_atom_site_fract_x
_atom_site_fract_y
_atom_site_fract_z
_atom_type_partial_charge
Li0 Li 0.15833 0.23181 0.31873 0.0
Li1 Li 0.19328 0.2145 0.36188 0.0
Li2 Li 0.23239 0.2064 0.31988 0.0
Li3 Li 0.17414 0.1612 0.3303 0.0
C4 C 0.19879 0.30067 0.34342 0.0
N5 N 0.17877 0.38189 0.35953 0.0
C6 C 0.16684 0.30704 0.36159 0.0
C7 C 0.22057 0.33556 0.33344 0.0
C8 C 0.1572 0.34835 0.3695 0.0
C9 C 0.20995 0.37639 0.34181 0.0
C10 C 0.10372 0.17713 0.35708 0.0
C11 C 0.07427 0.12407 0.38549 0.0
N12 N 0.03699 0.12705 0.3727 0.0
C13 C 0.06502 0.17983 0.34432 0.0
C14 C 0.10838 0.14912 0.3779 0.0
C15 C 0.03172 0.15414 0.35245 0.0
C16 C 0.09678 0.2364 0.2809 0.0
N17 N 0.11214 0.2597 0.30099 0.0
C18 C 0.05121 0.30476 0.29948 0.0
C19 C 0.09046 0.29391 0.31015 0.0
C20 C 0.03419 0.27987 0.27943 0.0
C21 C 0.05815 0.24612 0.26973 0.0
H22 H 0.11302 0.20832 0.27449 0.0
H23 H 0.10215 0.31128 0.32665 0.0
C24 C 0.23857 0.22972 0.40833 0.0
N25 N 0.19925 0.22594 0.39816 0.0
C26 C 0.24426 0.23142 0.4352 0.0
C27 C 0.16891 0.22616 0.44052 0.0
C28 C 0.16462 0.22529 0.41362 0.0
C29 C 0.20914 0.22857 0.45155 0.0
H30 H 0.26559 0.22969 0.3956 0.0
H31 H 0.13369 0.22264 0.40511 0.0
C32 C 0.1955 0.20446 0.27283 0.0
N33 N 0.21381 0.23717 0.22449 0.0
C34 C 0.19561 0.17795 0.25114 0.0
C35 C 0.20469 0.24765 0.26994 0.0
C36 C 0.20495 0.19508 0.22686 0.0
C37 C 0.21386 0.26356 0.24534 0.0
C38 C 0.23839 0.12663 0.35736 0.0
C39 C 0.25483 0.09757 0.33959 0.0
C40 C 0.23319 0.11474 0.38323 0.0
C41 C 0.26551 0.05678 0.348 0.0
C42 C 0.24434 0.07368 0.39088 0.0
N43 N 0.26009 0.04578 0.37325 0.0
C44 C 0.31469 0.23965 0.31116 0.0
C45 C 0.2974 0.17821 0.28687 0.0
C46 C 0.35498 0.24047 0.30025 0.0
N47 N 0.28694 0.20877 0.30435 0.0
C48 C 0.33724 0.17792 0.27542 0.0
C49 C 0.36665 0.20935 0.28208 0.0
H50 H 0.30558 0.26349 0.32517 0.0
H51 H 0.27484 0.15382 0.28193 0.0
C52 C 0.11674 0.11265 0.30624 0.0
N53 N 0.14582 0.1084 0.32531 0.0
C54 C 0.08342 0.08426 0.3043 0.0
C55 C 0.1133 0.04419 0.3397 0.0
C56 C 0.14559 0.07424 0.34145 0.0
C57 C 0.08035 0.05043 0.32187 0.0
H58 H 0.11718 0.14046 0.29403 0.0
H59 H 0.16825 0.07181 0.3569 0.0
O60 O 0.20922 0.26054 0.33556 0.0
O61 O 0.13692 0.20159 0.34915 0.0
O62 O 0.18681 0.18776 0.29673 0.0
O63 O 0.22831 0.16685 0.34961 0.0
H64 H 0.14923 0.28051 0.36923 0.0
H65 H 0.24543 0.3311 0.31937 0.0
H66 H 0.13245 0.35376 0.38349 0.0
H67 H 0.22653 0.40371 0.33424 0.0
H68 H 0.07754 0.10205 0.40144 0.0
H69 H 0.06077 0.20132 0.32821 0.0
H70 H 0.13823 0.14625 0.3878 0.0
H71 H 1.00169 0.1557 0.34264 0.0
H72 H 0.03339 0.33071 0.30779 0.0
H73 H 0.04628 0.22616 0.25428 0.0
H74 H 0.27576 0.23299 0.44313 0.0
H75 H 0.14115 0.22407 0.45262 0.0
H76 H 0.18862 0.14444 0.25308 0.0
H77 H 0.20468 0.26878 0.28641 0.0
H78 H 0.20519 0.1749 0.20991 0.0
H79 H 0.22101 0.2969 0.24282 0.0
H80 H 0.25904 0.10634 0.31952 0.0
H81 H 0.22061 0.13691 0.39724 0.0
H82 H 0.27811 0.03387 0.33446 0.0
H83 H 0.2404 0.06397 0.41082 0.0
H84 H 0.37672 0.26534 0.30582 0.0
H85 H 0.34518 0.15296 0.26185 0.0
H86 H 0.05882 0.09064 0.29033 0.0
H87 H 0.11307 0.01767 0.35303 0.0
Li88 Li 0.29368 0.72881 0.82084 0.0
Li89 Li 0.28799 0.69195 0.86384 0.0
Li90 Li 0.3405 0.67071 0.83255 0.0
Li91 Li 0.26765 0.65373 0.82408 0.0
C92 C 0.37348 0.73789 0.85843 0.0
N93 N 0.45266 0.76007 0.87591 0.0
C94 C 0.38705 0.72495 0.88292 0.0
C95 C 0.39989 0.76281 0.84303 0.0
C96 C 0.42727 0.73627 0.89136 0.0
C97 C 0.43988 0.77351 0.85215 0.0
C98 C 0.20276 0.69628 0.84909 0.0
C99 C 0.15985 0.65242 0.8768 0.0
N100 N 0.12531 0.67505 0.86962 0.0
C101 C 0.16688 0.71912 0.84199 0.0
C102 C 0.19928 0.66267 0.86665 0.0
C103 C 0.12799 0.70789 0.85258 0.0
C104 C 0.28064 0.78627 0.77839 0.0
N105 N 0.28936 0.78309 0.80409 0.0
C106 C 0.29715 0.85857 0.80728 0.0
C107 C 0.29719 0.81822 0.81863 0.0
C108 C 0.28965 0.86287 0.78057 0.0
C109 C 0.28085 0.82597 0.76617 0.0
H110 H 0.27442 0.75786 0.76724 0.0
H111 H 0.3038 0.81482 0.83907 0.0
C112 C 0.29054 0.66819 0.91621 0.0
N113 N 0.27904 0.70029 0.90011 0.0
C114 C 0.28845 0.67339 0.94301 0.0
C115 C 0.26278 0.74482 0.93633 0.0
C116 C 0.26517 0.73813 0.90955 0.0
C117 C 0.27456 0.71214 0.9534 0.0
H118 H 0.30264 0.63899 0.90822 0.0
H119 H 0.25685 0.76338 0.89629 0.0
C120 C 0.33363 0.68179 0.77793 0.0
N121 N 0.38384 0.68808 0.73438 0.0
C122 C 0.33327 0.64958 0.75926 0.0
C123 C 0.3597 0.71706 0.77444 0.0
C124 C 0.35886 0.65336 0.7374 0.0
C125 C 0.38476 0.71973 0.7523 0.0
C126 C 0.3126 0.59147 0.84936 0.0
C127 C 0.3246 0.5772 0.82479 0.0
C128 C 0.30959 0.56232 0.86971 0.0
C129 C 0.33345 0.53419 0.821 0.0
C130 C 0.31863 0.51952 0.86513 0.0
N131 N 0.33024 0.50645 0.84108 0.0
C132 C 0.40688 0.6287 0.85517 0.0
C133 C 0.41451 0.63224 0.80961 0.0
C134 C 0.43636 0.59603 0.85659 0.0
N135 N 0.39511 0.64475 0.83182 0.0
C136 C 0.44367 0.5991 0.8101 0.0
C137 C 0.45304 0.57906 0.83368 0.0
H138 H 0.39025 0.63812 0.87248 0.0
H139 H 0.40492 0.64489 0.79122 0.0
C140 C 0.23121 0.6065 0.783 0.0
N141 N 0.2337 0.60913 0.80924 0.0
C142 C 0.22077 0.56794 0.77111 0.0
C143 C 0.21231 0.53658 0.81346 0.0
C144 C 0.22222 0.57585 0.82452 0.0
C145 C 0.21308 0.53195 0.78646 0.0
H146 H 0.24051 0.63335 0.77128 0.0
H147 H 0.22458 0.57848 0.84532 0.0
O148 O 0.3342 0.72704 0.84983 0.0
O149 O 0.24099 0.70692 0.83881 0.0
O150 O 0.30873 0.67859 0.79947 0.0
O151 O 0.30301 0.63349 0.85344 0.0
H152 H 0.36691 0.70604 0.89523 0.0
H153 H 0.38958 0.77412 0.82433 0.0
H154 H 0.43829 0.72614 0.91018 0.0
H155 H 0.46069 0.79264 0.84039 0.0
H156 H 0.15671 0.62646 0.89039 0.0
H157 H 0.16908 0.74523 0.82841 0.0
H158 H 0.22665 0.6446 0.87239 0.0
H159 H 0.09994 0.72528 0.84725 0.0
H160 H 0.3027 0.88609 0.81938 0.0
H161 H 0.27489 0.82766 0.74555 0.0
H162 H 0.29888 0.6478 0.95547 0.0
H163 H 0.25214 0.77523 0.94364 0.0
H164 H 0.3139 0.62165 0.76173 0.0
H165 H 0.36063 0.74209 0.78868 0.0
H166 H 0.35896 0.62862 0.72286 0.0
H167 H 0.40501 0.74692 0.74938 0.0
H168 H 0.32674 0.59897 0.80871 0.0
H169 H 0.29993 0.57242 0.88879 0.0
H170 H 0.34267 0.52283 0.80207 0.0
H171 H 0.31634 0.49666 0.8807 0.0
H172 H 0.44376 0.58229 0.87526 0.0
H173 H 0.4561 0.58714 0.79199 0.0
H174 H 0.22178 0.56551 0.7502 0.0
H175 H 0.20632 0.50954 0.8259 0.0
Li176 Li 0.84415 0.77436 0.31851 0.0
Li177 Li 0.80955 0.79156 0.36176 0.0
Li178 Li 0.77018 0.79951 0.31991 0.0
Li179 Li 0.82841 0.84494 0.33016 0.0
C180 C 0.80439 0.7053 0.34313 0.0
N181 N 0.82512 0.624 0.35874 0.0
C182 C 0.83611 0.69893 0.36145 0.0
C183 C 0.78323 0.67035 0.33272 0.0
C184 C 0.8461 0.65758 0.36912 0.0
C185 C 0.79418 0.62948 0.34085 0.0
C186 C 0.89942 0.82864 0.35655 0.0
C187 C 0.92998 0.88152 0.38465 0.0
N188 N 0.96702 0.87799 0.37165 0.0
C189 C 0.9379 0.82535 0.34358 0.0
C190 C 0.89544 0.85686 0.37731 0.0
C191 C 0.97164 0.85068 0.35145 0.0
C192 C 0.90513 0.76999 0.28042 0.0
N193 N 0.89026 0.74675 0.30067 0.0
C194 C 0.95244 0.70345 0.29983 0.0
C195 C 0.9127 0.71328 0.31017 0.0
C196 C 0.9691 0.72879 0.27993 0.0
C197 C 0.94423 0.7613 0.26961 0.0
H198 H 0.88827 0.7975 0.27372 0.0
H199 H 0.90131 0.69595 0.32676 0.0
C200 C 0.76453 0.77572 0.40819 0.0
N201 N 0.8038 0.78005 0.39803 0.0
C202 C 0.75885 0.77408 0.43505 0.0
C203 C 0.83411 0.78048 0.4404 0.0
C204 C 0.83841 0.78128 0.4135 0.0
C205 C 0.79391 0.77754 0.45139 0.0
H206 H 0.73752 0.7753 0.39544 0.0
H207 H 0.8693 0.78435 0.405 0.0
C208 C 0.80629 0.8019 0.27277 0.0
N209 N 0.78698 0.76961 0.22447 0.0
C210 C 0.80506 0.82873 0.25123 0.0
C211 C 0.79768 0.75861 0.26974 0.0
C212 C 0.79525 0.81181 0.22697 0.0
C213 C 0.78799 0.74292 0.24516 0.0
C214 C 0.76481 0.87936 0.35782 0.0
C215 C 0.74792 0.90894 0.34053 0.0
C216 C 0.77107 0.89065 0.38371 0.0
C217 C 0.73783 0.94961 0.34942 0.0
C218 C 0.76051 0.93162 0.39185 0.0
N219 N 0.74428 0.96 0.37468 0.0
C220 C 0.69025 0.76275 0.30937 0.0
C221 C 0.70397 0.82763 0.28766 0.0
C222 C 0.65074 0.75993 0.29758 0.0
N223 N 0.71592 0.79619 0.30418 0.0
C224 C 0.66472 0.8261 0.27547 0.0
C225 C 0.63767 0.79174 0.28022 0.0
H226 H 0.7005 0.73829 0.32266 0.0
H227 H 0.72512 0.85376 0.28377 0.0
C228 C 0.88611 0.89296 0.30608 0.0
N229 N 0.85694 0.89759 0.32507 0.0
C230 C 0.91975 0.92098 0.30421 0.0
C231 C 0.88996 0.96155 0.33942 0.0
C232 C 0.85737 0.93183 0.34113 0.0
C233 C 0.92301 0.95487 0.32173 0.0
H234 H 0.88552 0.86506 0.29395 0.0
H235 H 0.83464 0.93456 0.35652 0.0
O236 O 0.79366 0.74546 0.33548 0.0
O237 O 0.86578 0.80453 0.34889 0.0
O238 O 0.81533 0.81839 0.29667 0.0
O239 O 0.77425 0.83923 0.3496 0.0
H240 H 0.85331 0.7255 0.3694 0.0
H241 H 0.75859 0.67479 0.3185 0.0
H242 H 0.87068 0.65218 0.38323 0.0
H243 H 0.77808 0.60212 0.33295 0.0
H244 H 0.92724 0.9037 0.40056 0.0
H245 H 0.94168 0.8037 0.32752 0.0
H246 H 0.86579 0.86018 0.38739 0.0
H247 H 1.00149 0.84865 0.34147 0.0
H248 H 0.97094 0.67815 0.30834 0.0
H249 H 0.95593 0.78136 0.25416 0.0
H250 H 0.72737 0.77206 0.44299 0.0
H251 H 0.8618 0.7831 0.45253 0.0
H252 H 0.81155 0.86233 0.25329 0.0
H253 H 0.79851 0.73726 0.2861 0.0
H254 H 0.79416 0.83222 0.21014 0.0
H255 H 0.78127 0.7095 0.24254 0.0
H256 H 0.74288 0.90066 0.32045 0.0
H257 H 0.784 0.8681 0.39736 0.0
H258 H 0.72489 0.97291 0.33625 0.0
H259 H 0.76526 0.94085 0.41181 0.0
H260 H 0.63049 0.73331 0.30215 0.0
H261 H 0.65588 0.85117 0.26217 0.0
H262 H 0.94441 0.91425 0.29035 0.0
H263 H 0.89032 0.98815 0.35269 0.0
Li264 Li 0.73368 0.35348 0.82496 0.0
Li265 Li 0.66134 0.33324 0.83214 0.0
Li266 Li 0.71317 0.31361 0.86429 0.0
Li267 Li 0.71047 0.27734 0.82082 0.0
C268 C 0.68508 0.41307 0.85115 0.0
N269 N 0.66011 0.49683 0.84603 0.0
C270 C 0.67237 0.4288 0.82707 0.0
C271 C 0.68553 0.4402 0.87258 0.0
C272 C 0.65963 0.4711 0.8249 0.0
C273 C 0.6728 0.48242 0.86959 0.0
C274 C 0.67166 0.32675 0.77722 0.0
C275 C 0.62516 0.29071 0.74752 0.0
N276 N 0.62534 0.32546 0.73189 0.0
C277 C 0.67138 0.36213 0.7608 0.0
C278 C 0.64832 0.29077 0.77051 0.0
C279 C 0.64775 0.36086 0.73801 0.0
C280 C 0.77097 0.40258 0.78493 0.0
N281 N 0.76652 0.39966 0.81106 0.0
C282 C 0.78501 0.47287 0.81605 0.0
C283 C 0.77565 0.43319 0.82672 0.0
C284 C 0.78573 0.47777 0.78906 0.0
C285 C 0.78075 0.44164 0.77343 0.0
H286 H 0.76361 0.37548 0.77289 0.0
H287 H 0.77198 0.43025 0.84744 0.0
C288 C 0.59283 0.37271 0.85394 0.0
N289 N 0.60579 0.35695 0.83074 0.0
C290 C 0.56206 0.40418 0.85497 0.0
C291 C 0.55586 0.40019 0.80841 0.0
C292 C 0.5864 0.36835 0.8083 0.0
C293 C 0.54482 0.41959 0.83186 0.0
H294 H 0.60957 0.36423 0.87141 0.0
H295 H 0.59674 0.3557 0.79007 0.0
C296 C 0.79908 0.31277 0.85075 0.0
N297 N 0.87484 0.33638 0.87267 0.0
C298 C 0.83602 0.29131 0.84413 0.0
C299 C 0.80064 0.34621 0.86853 0.0
C300 C 0.87403 0.30373 0.85542 0.0
C301 C 0.83924 0.35768 0.87939 0.0
C302 C 0.6286 0.26503 0.85521 0.0
C303 C 0.61142 0.27518 0.87933 0.0
C304 C 0.6046 0.24226 0.8373 0.0
C305 C 0.57008 0.26321 0.8849 0.0
C306 C 0.5634 0.23081 0.8436 0.0
N307 N 0.54711 0.2415 0.86705 0.0
C308 C 0.70126 0.33456 0.91631 0.0
C309 C 0.74188 0.27209 0.9107 0.0
C310 C 0.70292 0.33018 0.94317 0.0
N311 N 0.72066 0.30586 0.9007 0.0
C312 C 0.74402 0.26623 0.93757 0.0
C313 C 0.72446 0.29567 0.95411 0.0
H314 H 0.68349 0.36028 0.90784 0.0
H315 H 0.75658 0.24942 0.89781 0.0
C316 C 0.72816 0.22178 0.77822 0.0
N317 N 0.7172 0.22379 0.80364 0.0
C318 C 0.72946 0.1826 0.76543 0.0
C319 C 0.70976 0.14817 0.80541 0.0
C320 C 0.70828 0.18803 0.81734 0.0
C321 C 0.72028 0.14499 0.77905 0.0
H322 H 0.73478 0.25072 0.7677 0.0
H323 H 0.69949 0.19055 0.83751 0.0
O324 O 0.6964 0.37125 0.85389 0.0
O325 O 0.69482 0.32735 0.79959 0.0
O326 O 0.76168 0.30093 0.83981 0.0
O327 O 0.66889 0.27685 0.84932 0.0
H328 H 0.67202 0.40847 0.81026 0.0
H329 H 0.69571 0.4289 0.89132 0.0
H330 H 0.64939 0.48347 0.80641 0.0
H331 H 0.67295 0.50371 0.88603 0.0
H332 H 0.607 0.26303 0.74214 0.0
H333 H 0.68879 0.39051 0.76566 0.0
H334 H 0.64798 0.2632 0.78289 0.0
H335 H 0.64717 0.38806 0.72522 0.0
H336 H 0.7892 0.49998 0.82871 0.0
H337 H 0.78122 0.44423 0.75252 0.0
H338 H 0.55458 0.41886 0.87337 0.0
H339 H 0.54284 0.4113 0.79024 0.0
H340 H 0.83531 0.26534 0.83039 0.0
H341 H 0.77242 0.36319 0.87394 0.0
H342 H 0.90289 0.28742 0.85047 0.0
H343 H 0.8409 0.38351 0.89317 0.0
H344 H 0.62966 0.29243 0.89352 0.0
H345 H 0.61767 0.23324 0.8188 0.0
H346 H 0.55627 0.27117 0.90341 0.0
H347 H 0.54442 0.21333 0.82986 0.0
H348 H 0.68661 0.35298 0.95525 0.0
H349 H 0.76073 0.2391 0.94536 0.0
H350 H 0.73665 0.18196 0.74495 0.0
H351 H 0.70272 0.1201 0.81674 0.0
Li352 Li 0.67276 0.34399 0.18589 0.0
Li353 Li 0.73145 0.30034 0.19771 0.0
Li354 Li 0.69381 0.29031 0.15525 0.0
Li355 Li 0.65769 0.27383 0.19818 0.0
C356 C 0.7384 0.37962 0.16112 0.0
N357 N 0.76124 0.46154 0.14814 0.0
C358 C 0.75243 0.40762 0.18024 0.0
C359 C 0.73609 0.39317 0.13538 0.0
C360 C 0.76375 0.44897 0.1733 0.0
C361 C 0.74781 0.43473 0.12922 0.0
C362 C 0.69287 0.30305 0.24421 0.0
C363 C 0.71135 0.24499 0.2725 0.0
N364 N 0.70981 0.27183 0.29311 0.0
C365 C 0.69144 0.33003 0.26567 0.0
C366 C 0.70289 0.26014 0.24762 0.0
C367 C 0.70011 0.31365 0.29023 0.0
C368 C 0.61426 0.39309 0.20865 0.0
N369 N 0.64348 0.39651 0.1896 0.0
C370 C 0.61081 0.45985 0.17394 0.0
C371 C 0.64312 0.42973 0.17277 0.0
C372 C 0.57785 0.45454 0.19186 0.0
C373 C 0.58085 0.42146 0.20997 0.0
H374 H 0.61481 0.366 0.22143 0.0
H375 H 0.66587 0.43144 0.15734 0.0
C376 C 0.81317 0.26728 0.20638 0.0
N377 N 0.78571 0.29813 0.21366 0.0
C378 C 0.85327 0.26531 0.21745 0.0
C379 C 0.8361 0.32683 0.24336 0.0
C380 C 0.79632 0.32761 0.23179 0.0
C381 C 0.86527 0.29548 0.23613 0.0
H382 H 0.80396 0.24431 0.19187 0.0
H383 H 0.77383 0.35172 0.23733 0.0
C384 C 0.60465 0.32649 0.15742 0.0
N385 N 0.54007 0.37649 0.13862 0.0
C386 C 0.56547 0.32648 0.16971 0.0
C387 C 0.61088 0.35158 0.13543 0.0
C388 C 0.53326 0.35211 0.15996 0.0
C389 C 0.57785 0.37671 0.12625 0.0
C390 C 0.70117 0.20465 0.17516 0.0
C391 C 0.66935 0.19591 0.15729 0.0
C392 C 0.72486 0.17135 0.18553 0.0
C393 C 0.66174 0.15385 0.15003 0.0
C394 C 0.71626 0.1297 0.17781 0.0
N395 N 0.68516 0.12189 0.16036 0.0
C396 C 0.74107 0.28379 0.10958 0.0
C397 C 0.66843 0.27007 0.1034 0.0
C398 C 0.74797 0.28301 0.08286 0.0
N399 N 0.70166 0.27835 0.11924 0.0
C400 C 0.67403 0.2685 0.07656 0.0
C401 C 0.71399 0.27624 0.06601 0.0
H402 H 0.76681 0.2908 0.12259 0.0
H403 H 0.63727 0.26652 0.11151 0.0
C404 C 0.59506 0.2697 0.23528 0.0
N405 N 0.61166 0.2457 0.21588 0.0
C406 C 0.55719 0.2586 0.24696 0.0
C407 C 0.55327 0.1976 0.2188 0.0
C408 C 0.59176 0.20981 0.20768 0.0
C409 C 0.53521 0.22272 0.23841 0.0
H410 H 0.60989 0.29902 0.24088 0.0
H411 H 0.6045 0.19164 0.19181 0.0
O412 O 0.72768 0.3389 0.16747 0.0
O413 O 0.68472 0.31903 0.22005 0.0
O414 O 0.63687 0.30236 0.16702 0.0
O415 O 0.70959 0.24558 0.18235 0.0
H416 H 0.75425 0.39762 0.20024 0.0
H417 H 0.72515 0.37195 0.12035 0.0
H418 H 0.77452 0.47106 0.1879 0.0
H419 H 0.7461 0.4457 0.1094 0.0
H420 H 0.71914 0.21188 0.27542 0.0
H421 H 0.68376 0.36332 0.26333 0.0
H422 H 0.70404 0.23866 0.23135 0.0
H423 H 0.69915 0.3342 0.30701 0.0
H424 H 0.61075 0.4858 0.1602 0.0
H425 H 0.55624 0.41573 0.22404 0.0
H426 H 0.87485 0.24068 0.21128 0.0
H427 H 0.84372 0.35013 0.25805 0.0
H428 H 0.56012 0.30723 0.18674 0.0
H429 H 0.64113 0.35223 0.12583 0.0
H430 H 0.50289 0.35272 0.16939 0.0
H431 H 0.58232 0.3966 0.1094 0.0
H432 H 0.65027 0.2212 0.14944 0.0
H433 H 0.74964 0.17765 0.19939 0.0
H434 H 0.63709 0.14662 0.13629 0.0
H435 H 0.73434 0.10359 0.18567 0.0
H436 H 0.77929 0.28883 0.0754 0.0
H437 H 0.64705 0.26344 0.06411 0.0
H438 H 0.54413 0.27929 0.26167 0.0
H439 H 0.53733 0.1695 0.21172 0.0
Li440 Li 0.2083 0.23014 0.69786 0.0
Li441 Li 0.21262 0.19464 0.65402 0.0
Li442 Li 0.16015 0.17324 0.68601 0.0
Li443 Li 0.23264 0.15353 0.69409 0.0
C444 C 0.12583 0.24361 0.66961 0.0
N445 N 0.04278 0.2694 0.67112 0.0
C446 C 0.10069 0.24044 0.64751 0.0
C447 C 0.10882 0.26014 0.69243 0.0
C448 C 0.05874 0.25358 0.64867 0.0
C449 C 0.06675 0.27295 0.69282 0.0
C450 C 0.29854 0.19563 0.66916 0.0
C451 C 0.34107 0.14983 0.64238 0.0
N452 N 0.37571 0.17291 0.64879 0.0
C453 C 0.33453 0.21887 0.6755 0.0
C454 C 0.30179 0.16079 0.65248 0.0
C455 C 0.37327 0.20689 0.665 0.0
C456 C 0.21985 0.28731 0.74081 0.0
N457 N 0.21365 0.28408 0.71483 0.0
C458 C 0.20818 0.35969 0.7111 0.0
C459 C 0.2084 0.31925 0.6999 0.0
C460 C 0.21264 0.36409 0.73805 0.0
C461 C 0.21919 0.32715 0.75288 0.0
H462 H 0.22433 0.2589 0.75225 0.0
H463 H 0.20379 0.3158 0.67926 0.0
C464 C 0.18621 0.18867 0.60325 0.0
N465 N 0.21952 0.20225 0.61748 0.0
C466 C 0.18592 0.19347 0.57642 0.0
C467 C 0.25496 0.22519 0.57902 0.0
C468 C 0.25357 0.22045 0.606 0.0
C469 C 0.22057 0.21197 0.56383 0.0
H470 H 0.15964 0.17416 0.61286 0.0
H471 H 0.27965 0.23128 0.6177 0.0
C472 C 0.17138 0.16875 0.74083 0.0
N473 N 0.12851 0.14634 0.78539 0.0
C474 C 0.17042 0.12638 0.749 0.0
C475 C 0.15057 0.19971 0.75544 0.0
C476 C 0.14855 0.1157 0.77153 0.0
C477 C 0.12909 0.18775 0.77788 0.0
C478 C 0.18687 0.09659 0.65865 0.0
C479 C 0.17123 0.0693 0.67771 0.0
C480 C 0.19245 0.08155 0.63343 0.0
C481 C 0.16138 0.02739 0.6712 0.0
C482 C 0.18212 0.03946 0.62767 0.0
N483 N 0.16695 0.01347 0.64652 0.0
C484 C 0.09293 0.13189 0.66351 0.0
C485 C 0.08467 0.13805 0.70892 0.0
C486 C 0.06352 0.09906 0.66263 0.0
N487 N 0.10507 0.14842 0.68667 0.0
C488 C 0.05531 0.10514 0.70898 0.0
C489 C 0.04654 0.08366 0.68582 0.0
H490 H 0.10939 0.14093 0.64605 0.0
H491 H 0.09313 0.15278 0.72695 0.0
C492 C 0.27189 0.10534 0.73412 0.0
N493 N 0.26492 0.10698 0.70814 0.0
C494 C 0.28248 0.06677 0.746 0.0
C495 C 0.28213 0.03328 0.70394 0.0
C496 C 0.27207 0.07249 0.69287 0.0
C497 C 0.28589 0.02979 0.73092 0.0
H498 H 0.26573 0.13306 0.7459 0.0
H499 H 0.267 0.0745 0.67224 0.0
O500 O 0.1667 0.23002 0.66911 0.0
O501 O 0.26049 0.20683 0.67947 0.0
O502 O 0.19288 0.17997 0.71888 0.0
O503 O 0.197 0.13776 0.66456 0.0
H504 H 0.11331 0.22789 0.62966 0.0
H505 H 0.12784 0.2629 0.70968 0.0
H506 H 0.03888 0.25118 0.63173 0.0
H507 H 0.05316 0.28567 0.71038 0.0
H508 H 0.34401 0.123 0.62942 0.0
H509 H 0.33253 0.24586 0.68843 0.0
H510 H 0.2743 0.14256 0.64721 0.0
H511 H 0.4014 0.2246 0.66973 0.0
H512 H 0.20461 0.38719 0.69871 0.0
H513 H 0.22293 0.3289 0.77369 0.0
H514 H 0.15853 0.18311 0.56567 0.0
H515 H 0.28281 0.23865 0.5702 0.0
H516 H 0.18609 0.10184 0.73805 0.0
H517 H 0.15063 0.23259 0.74947 0.0
H518 H 0.14747 0.08301 0.77797 0.0
H519 H 0.11279 0.21139 0.7893 0.0
H520 H 0.1665 0.08041 0.69725 0.0
H521 H 0.20489 0.10208 0.61849 0.0
H522 H 0.14937 0.00592 0.68577 0.0
H523 H 0.18628 0.02741 0.60823 0.0
H524 H 0.05713 0.08339 0.64437 0.0
H525 H 0.04173 0.09471 0.72713 0.0
H526 H 0.28495 0.06529 0.76689 0.0
H527 H 0.28498 0.00553 0.69166 0.0
Li528 Li 0.27002 0.70903 0.19667 0.0
Li529 Li 0.3281 0.66433 0.18509 0.0
Li530 Li 0.34408 0.73427 0.19746 0.0
Li531 Li 0.30803 0.71845 0.15442 0.0
C532 C 0.30765 0.7054 0.2433 0.0
N533 N 0.28993 0.73643 0.29213 0.0
C534 C 0.30733 0.67805 0.2646 0.0
C535 C 0.29897 0.74857 0.24683 0.0
C536 C 0.2983 0.69434 0.28914 0.0
C537 C 0.29009 0.76362 0.27167 0.0
C538 C 0.26319 0.62995 0.15902 0.0
C539 C 0.25587 0.57672 0.12575 0.0
N540 N 0.24134 0.54881 0.14375 0.0
C541 C 0.24804 0.60083 0.17718 0.0
C542 C 0.2671 0.6179 0.13308 0.0
C543 C 0.23725 0.55991 0.16908 0.0
C544 C 0.18991 0.74491 0.20707 0.0
N545 N 0.21606 0.71208 0.21279 0.0
C546 C 0.16528 0.68273 0.24198 0.0
C547 C 0.20457 0.68122 0.22983 0.0
C548 C 0.13773 0.71647 0.23664 0.0
C549 C 0.15037 0.7477 0.21879 0.0
H550 H 0.19977 0.76887 0.19334 0.0
H551 H 0.22603 0.65551 0.2341 0.0
C552 C 0.38608 0.6152 0.20813 0.0
N553 N 0.35687 0.61156 0.18909 0.0
C554 C 0.41948 0.58684 0.20959 0.0
C555 C 0.38945 0.54795 0.17378 0.0
C556 C 0.35716 0.57808 0.17244 0.0
C557 C 0.42245 0.55351 0.19165 0.0
H558 H 0.38561 0.64251 0.22073 0.0
H559 H 0.33442 0.57618 0.15701 0.0
C560 C 0.30284 0.80417 0.17434 0.0
N561 N 0.322 0.88635 0.15975 0.0
C562 C 0.33449 0.81175 0.15616 0.0
C563 C 0.28093 0.83834 0.18512 0.0
C564 C 0.3437 0.85353 0.14902 0.0
C565 C 0.2911 0.87968 0.17751 0.0
C566 C 0.39725 0.68116 0.15729 0.0
C567 C 0.43616 0.68171 0.16991 0.0
C568 C 0.39165 0.65539 0.13552 0.0
C569 C 0.46871 0.65597 0.16072 0.0
C570 C 0.42501 0.63018 0.12691 0.0
N571 N 0.4625 0.63095 0.1396 0.0
C572 C 0.40619 0.73689 0.23483 0.0
C573 C 0.41279 0.79533 0.20627 0.0
C574 C 0.4453 0.74539 0.24568 0.0
N575 N 0.39079 0.76114 0.21517 0.0
C576 C 0.45253 0.80502 0.21667 0.0
C577 C 0.46966 0.77879 0.23601 0.0
H578 H 0.38964 0.70893 0.24108 0.0
H579 H 0.40096 0.81353 0.19014 0.0
C580 C 0.26054 0.72887 0.10905 0.0
N581 N 0.30046 0.73067 0.11843 0.0
C582 C 0.25326 0.72999 0.08237 0.0
C583 C 0.32812 0.73707 0.07553 0.0
C584 C 0.334 0.73559 0.10235 0.0
C585 C 0.28743 0.73297 0.06523 0.0
H586 H 0.2345 0.72456 0.12227 0.0
H587 H 0.36548 0.73657 0.11026 0.0
O588 O 0.31598 0.68951 0.21914 0.0
O589 O 0.27332 0.67031 0.16648 0.0
O590 O 0.29292 0.76356 0.18149 0.0
O591 O 0.36469 0.70542 0.16634 0.0
H592 H 0.31391 0.64454 0.26216 0.0
H593 H 0.29914 0.77033 0.23067 0.0
H594 H 0.29792 0.67351 0.30579 0.0
H595 H 0.28332 0.79694 0.27469 0.0
H596 H 0.25879 0.56691 0.10576 0.0
H597 H 0.24491 0.60967 0.19731 0.0
H598 H 0.27884 0.64002 0.11877 0.0
H599 H 0.22563 0.53697 0.18294 0.0
H600 H 0.15676 0.65811 0.25565 0.0
H601 H 0.12972 0.7738 0.21376 0.0
H602 H 0.44412 0.5928 0.2236 0.0
H603 H 0.38948 0.5218 0.16018 0.0
H604 H 0.35223 0.78576 0.14795 0.0
H605 H 0.25634 0.83295 0.19924 0.0
H606 H 0.36824 0.85987 0.13503 0.0
H607 H 0.27442 0.90645 0.1857 0.0
H608 H 0.44109 0.70146 0.18676 0.0
H609 H 0.36164 0.65432 0.12566 0.0
H610 H 0.49887 0.6558 0.17043 0.0
H611 H 0.42102 0.60979 0.11023 0.0
H612 H 0.45732 0.72466 0.26071 0.0
H613 H 0.47062 0.83105 0.20869 0.0
H614 H 0.22136 0.72736 0.07518 0.0
H615 H 0.35528 0.73929 0.06293 0.0
Li616 Li 0.77246 0.85358 0.69341 0.0
Li617 Li 0.8448 0.83302 0.68578 0.0
Li618 Li 0.7926 0.81258 0.65363 0.0
Li619 Li 0.79597 0.77691 0.69749 0.0
C620 C 0.82168 0.91097 0.66179 0.0
N621 N 0.8487 0.99402 0.65689 0.0
C622 C 0.83487 0.9337 0.68357 0.0
C623 C 0.82209 0.93055 0.63751 0.0
C624 C 0.84853 0.97559 0.6807 0.0
C625 C 0.83585 0.97257 0.63544 0.0
C626 C 0.83344 0.83311 0.74104 0.0
C627 C 0.87708 0.80593 0.77553 0.0
N628 N 0.87695 0.84491 0.78688 0.0
C629 C 0.83369 0.87291 0.75314 0.0
C630 C 0.85529 0.79934 0.75239 0.0
C631 C 0.85589 0.87822 0.77625 0.0
C632 C 0.73357 0.90268 0.73306 0.0
N633 N 0.74016 0.90024 0.70707 0.0
C634 C 0.72391 0.974 0.70217 0.0
C635 C 0.7331 0.93433 0.69145 0.0
C636 C 0.7212 0.97834 0.72914 0.0
C637 C 0.72392 0.94175 0.7446 0.0
H638 H 0.73946 0.87518 0.74508 0.0
H639 H 0.73811 0.9317 0.67083 0.0
C640 C 0.91359 0.87207 0.66342 0.0
N641 N 0.90019 0.85733 0.68675 0.0
C642 C 0.94378 0.90412 0.66215 0.0
C643 C 0.94924 0.90195 0.70876 0.0
C644 C 0.91927 0.86961 0.70909 0.0
C645 C 0.9603 0.92101 0.68514 0.0
H646 H 0.89771 0.86215 0.64593 0.0
H647 H 0.90913 0.85715 0.72739 0.0
C648 C 0.7065 0.81216 0.66831 0.0
N649 N 0.62975 0.83541 0.64759 0.0
C650 C 0.67011 0.78986 0.67502 0.0
C651 C 0.70388 0.84633 0.65109 0.0
C652 C 0.63159 0.80209 0.66432 0.0
C653 C 0.66479 0.85757 0.64081 0.0
C654 C 0.87837 0.76249 0.66738 0.0
C655 C 0.90167 0.76843 0.64473 0.0
C656 C 0.89693 0.74228 0.68858 0.0
C657 C 0.94346 0.75474 0.64385 0.0
C658 C 0.93877 0.72901 0.68695 0.0
N659 N 0.96101 0.73552 0.66481 0.0
C660 C 0.81653 0.82215 0.60246 0.0
C661 C 0.75275 0.78376 0.60614 0.0
C662 C 0.81627 0.81734 0.57563 0.0
N663 N 0.78534 0.80519 0.61714 0.0
C664 C 0.75081 0.77883 0.57919 0.0
C665 C 0.7832 0.79531 0.56354 0.0
H666 H 0.84203 0.83906 0.61171 0.0
H667 H 0.7283 0.77045 0.61823 0.0
C668 C 0.78036 0.72173 0.74059 0.0
N669 N 0.78941 0.72354 0.71489 0.0
C670 C 0.77933 0.68258 0.75343 0.0
C671 C 0.79511 0.64777 0.71291 0.0
C672 C 0.79645 0.6876 0.70094 0.0
C673 C 0.78668 0.64479 0.73957 0.0
H674 H 0.77502 0.75078 0.75128 0.0
H675 H 0.80368 0.68995 0.68053 0.0
O676 O 0.80879 0.86961 0.66409 0.0
O677 O 0.81157 0.82715 0.71846 0.0
O678 O 0.74437 0.80066 0.67876 0.0
O679 O 0.8376 0.77628 0.6688 0.0
H680 H 0.8349 0.91897 0.70243 0.0
H681 H 0.81181 0.9135 0.62046 0.0
H682 H 0.85914 0.9934 0.69737 0.0
H683 H 0.83634 0.98812 0.61677 0.0
H684 H 0.89413 0.78004 0.78446 0.0
H685 H 0.81735 0.89962 0.74474 0.0
H686 H 0.85557 0.76836 0.74348 0.0
H687 H 0.85645 0.90888 0.78571 0.0
H688 H 0.72139 1.00148 0.68963 0.0
H689 H 0.72189 0.94393 0.76548 0.0
H690 H 0.95188 0.91759 0.64351 0.0
H691 H 0.9609 0.91413 0.727 0.0
H692 H 0.67164 0.76338 0.68836 0.0
H693 H 0.73169 0.86387 0.64557 0.0
H694 H 0.60315 0.78511 0.66933 0.0
H695 H 0.66231 0.8839 0.62744 0.0
H696 H 0.88776 0.78358 0.62803 0.0
H697 H 0.87919 0.73674 0.70607 0.0
H698 H 0.96192 0.75939 0.62649 0.0
H699 H 0.95355 0.71347 0.70327 0.0
H700 H 0.84212 0.8303 0.5645 0.0
H701 H 0.72411 0.76259 0.57076 0.0
H702 H 0.77378 0.6821 0.7741 0.0
H703 H 0.80063 0.61957 0.70139 0.0
C704 C 0.02128 0.01291 0.29928 0.0
C705 C 0.04121 0.02447 0.32257 0.0
C706 C 0.9826 0.99171 0.29924 0.0
C707 C 0.96236 0.9805 0.32249 0.0
H708 H 0.03562 0.02038 0.28081 0.0
H709 H 0.96846 0.98406 0.28074 0.0
S710 S 1.00146 1.0028 0.38891 0.0
N711 N 0.03718 0.02388 0.36964 0.0
N712 N 0.96594 0.98153 0.36957 0.0
C713 C 0.98213 0.99142 0.34598 0.0
C714 C 0.02124 0.01374 0.34601 0.0
C715 C 0.51305 0.53346 0.8189 0.0
C716 C 0.47649 0.53828 0.83395 0.0
C717 C 0.53442 0.49458 0.81793 0.0
C718 C 0.52002 0.45921 0.83199 0.0
H719 H 0.52541 0.56002 0.80795 0.0
H720 H 0.56286 0.49236 0.80644 0.0
S721 S 0.42453 0.45397 0.87285 0.0
N722 N 0.42559 0.50335 0.86208 0.0
N723 N 0.4666 0.43065 0.86062 0.0
C724 C 0.48349 0.46335 0.84694 0.0
C725 C 0.46151 0.50279 0.84782 0.0
C726 C 0.51931 0.49322 0.21423 0.0
C727 C 0.53905 0.48105 0.19099 0.0
C728 C 0.48111 0.51525 0.21418 0.0
C729 C 0.46128 0.52702 0.1909 0.0
H730 H 0.53343 0.48563 0.23274 0.0
H731 H 0.46707 0.52315 0.23267 0.0
S732 S 0.50006 0.50351 0.12456 0.0
N733 N 0.53506 0.48138 0.14391 0.0
N734 N 0.46512 0.52595 0.14382 0.0
C735 C 0.48088 0.51559 0.16745 0.0
C736 C 0.51937 0.49212 0.16749 0.0
C737 C 0.98934 0.03547 0.67033 0.0
C738 C 0.0245 0.04237 0.6862 0.0
C739 C 0.96934 0.99582 0.66977 0.0
C740 C 0.98421 0.96151 0.68476 0.0
H741 H 0.97698 0.06102 0.65851 0.0
H742 H 0.94154 0.99231 0.65785 0.0
S743 S 0.07811 0.96247 0.72739 0.0
N744 N 0.07498 0.01143 0.71609 0.0
N745 N 0.03811 0.93652 0.71451 0.0
C746 C 0.02009 0.96784 0.70017 0.0
C747 C 0.04008 0.00835 0.701 0.0
C748 C 0.20087 0.18778 0.4926 0.0
C749 C 0.2143 0.22488 0.47997 0.0
C750 C 0.20412 0.1836 0.51953 0.0
C751 C 0.22032 0.21665 0.53503 0.0
H752 H 0.1878 0.1617 0.48151 0.0
H753 H 0.19368 0.15415 0.52827 0.0
S754 S 0.25851 0.32103 0.51102 0.0
N755 N 0.24442 0.29524 0.48456 0.0
N756 N 0.24914 0.28836 0.53538 0.0
C757 C 0.23406 0.25397 0.52249 0.0
C758 C 0.23131 0.25786 0.49494 0.0
C759 C 0.29554 0.75386 0.99276 0.0
C760 C 0.27445 0.71879 0.98191 0.0
C761 C 0.29911 0.75866 0.01972 0.0
C762 C 0.28116 0.72891 0.0368 0.0
H763 H 0.31053 0.77705 0.98032 0.0
H764 H 0.31632 0.78566 0.02727 0.0
S765 S 0.22146 0.63233 0.0182 0.0
N766 N 0.23428 0.65459 0.99035 0.0
N767 N 0.24114 0.66345 0.0409 0.0
C768 C 0.25917 0.69426 0.02618 0.0
C769 C 0.25582 0.68922 0.99879 0.0
C770 C 0.79541 0.82442 0.5189 0.0
C771 C 0.78305 0.79018 0.53478 0.0
C772 C 0.79847 0.82002 0.49197 0.0
C773 C 0.78866 0.78143 0.47976 0.0
H774 H 0.80302 0.85496 0.52734 0.0
H775 H 0.80864 0.84703 0.48056 0.0
S776 S 0.75515 0.68188 0.51183 0.0
N777 N 0.76169 0.71585 0.53588 0.0
N778 N 0.76597 0.70845 0.48507 0.0
C779 C 0.77543 0.74719 0.49508 0.0
C780 C 0.7729 0.75137 0.52262 0.0
C781 C 0.71009 0.25206 0.99382 0.0
C782 C 0.72504 0.28996 0.98266 0.0
C783 C 0.70695 0.24755 0.02083 0.0
C784 C 0.71944 0.28046 0.03758 0.0
H785 H 0.69955 0.22623 0.98157 0.0
H786 H 0.69447 0.21823 0.02867 0.0
S787 S 0.76187 0.38545 0.01808 0.0
N788 N 0.75326 0.36054 0.99044 0.0
N789 N 0.7477 0.35195 0.04109 0.0
C790 C 0.7353 0.31809 0.02665 0.0
C791 C 0.738 0.32288 0.99923 0.0
C792 C 0.48575 0.2158 0.27599 0.0
C793 C 0.49252 0.2141 0.24906 0.0
C794 C 0.44511 0.21357 0.28647 0.0
C795 C 0.40953 0.20948 0.27046 0.0
H796 H 0.51212 0.2197 0.28907 0.0
H797 H 0.44148 0.21539 0.30729 0.0
S798 S 0.40985 0.20466 0.19869 0.0
N799 N 0.46004 0.20856 0.2066 0.0
N800 N 0.38366 0.20415 0.2263 0.0
C801 C 0.41583 0.20691 0.24354 0.0
C802 C 0.45728 0.20923 0.23285 0.0
C803 C 0.25883 0.91629 0.7497 0.0
C804 C 0.2902 0.90553 0.76783 0.0
C805 C 0.2582 0.95623 0.73763 0.0
C806 C 0.28871 0.98724 0.74331 0.0
H807 H 0.23404 0.89393 0.74509 0.0
H808 H 0.23306 0.96323 0.72412 0.0
S809 S 0.37939 0.97455 0.78769 0.0
N810 N 0.35424 0.92873 0.78952 0.0
N811 N 0.35209 0.00417 0.76733 0.0
C812 C 0.32046 0.97699 0.76113 0.0
C813 C 0.32145 0.9361 0.77325 0.0
C814 C 0.56836 0.82417 0.26729 0.0
C815 C 0.59598 0.7891 0.2672 0.0
C816 C 0.52792 0.82137 0.25635 0.0
C817 C 0.5138 0.7834 0.24498 0.0
H818 H 0.57761 0.85359 0.27657 0.0
H819 H 0.5071 0.84856 0.25755 0.0
S820 S 0.57586 0.68454 0.23645 0.0
N821 N 0.60765 0.71675 0.25238 0.0
N822 N 0.53187 0.71146 0.23201 0.0
C823 C 0.54177 0.74882 0.24373 0.0
C824 C 0.58277 0.75165 0.25481 0.0
C825 C 0.6886 0.07289 0.77057 0.0
C826 C 0.72086 0.10272 0.76586 0.0
C827 C 0.68861 0.03278 0.75859 0.0
C828 C 0.72054 0.0212 0.74117 0.0
H829 H 0.66291 0.08068 0.7835 0.0
H830 H 0.66332 0.01079 0.76283 0.0
S831 S 0.81396 0.08562 0.72367 0.0
N832 N 0.78711 0.1162 0.74372 0.0
N833 N 0.78631 0.0415 0.72076 0.0
C834 C 0.75307 0.05041 0.7364 0.0
C835 C 0.7534 0.09098 0.74879 0.0
C836 C 0.96344 0.25062 0.26802 0.0
C837 C 0.99043 0.28598 0.26984 0.0
C838 C 0.92301 0.25421 0.25745 0.0
C839 C 0.90772 0.29335 0.2483 0.0
H840 H 0.97377 0.21971 0.27473 0.0
H841 H 0.90355 0.22601 0.25643 0.0
S842 S 0.96593 0.39559 0.24836 0.0
N843 N 0.99901 0.36144 0.26161 0.0
N844 N 0.92289 0.36832 0.24166 0.0
C845 C 0.93406 0.3292 0.2504 0.0
C846 C 0.97538 0.3255 0.26121 0.0
C847 C 0.24008 0.41741 0.77021 0.0
C848 C 0.21104 0.40688 0.75062 0.0
C849 C 0.23984 0.45759 0.78201 0.0
C850 C 0.21079 0.48903 0.77457 0.0
H851 H 0.2638 0.39472 0.77618 0.0
H852 H 0.26325 0.46446 0.79667 0.0
S853 S 0.12595 0.4771 0.72597 0.0
N854 N 0.15036 0.43077 0.72574 0.0
N855 N 0.1511 0.50665 0.74738 0.0
C856 C 0.18126 0.47898 0.75533 0.0
C857 C 0.18109 0.43787 0.74351 0.0
C858 C 0.0688 0.68355 0.24981 0.0
C859 C 0.0959 0.71902 0.24949 0.0
C860 C 0.02817 0.68623 0.26049 0.0
C861 C 0.01335 0.72448 0.27116 0.0
H862 H 0.0786 0.65388 0.24105 0.0
H863 H 0.00778 0.6587 0.25964 0.0
S864 S 0.07383 0.82456 0.27844 0.0
N865 N 0.10631 0.79214 0.26319 0.0
N866 N 0.03017 0.7972 0.28308 0.0
C867 C 0.04079 0.7595 0.27201 0.0
C868 C 0.08197 0.75679 0.2612 0.0
C869 C 0.81732 0.5317 0.75886 0.0
C870 C 0.78668 0.52085 0.7773 0.0
C871 C 0.81732 0.57188 0.74696 0.0
C872 C 0.78628 0.60252 0.75277 0.0
H873 H 0.84157 0.50904 0.75371 0.0
H874 H 0.84201 0.57905 0.7332 0.0
S875 S 0.6967 0.58768 0.79804 0.0
N876 N 0.72348 0.54287 0.8 0.0
N877 N 0.72246 0.61761 0.77713 0.0
C878 C 0.75503 0.59155 0.77091 0.0
C879 C 0.75546 0.55094 0.78325 0.0
loop_
_geom_bond_atom_site_label_1
_geom_bond_atom_site_label_2
_geom_bond_distance
_geom_bond_site_symmetry_2
_ccdc_geom_bond_type
Li0 N17 1.990 . S
Li0 O60 1.956 . S
Li0 O61 1.970 . S
Li0 O62 1.961 . S
Li1 N25 1.990 . S
Li1 O60 1.970 . S
Li1 O61 1.956 . S
Li1 O63 1.961 . S
Li2 N47 1.990 . S
Li2 O60 1.961 . S
Li2 O62 1.956 . S
Li2 O63 1.970 . S
Li3 N53 1.990 . S
Li3 O61 1.961 . S
Li3 O62 1.970 . S
Li3 O63 1.956 . S
C4 C6 1.348 . S
C4 C7 1.356 . S
C4 O60 1.325 . S
N5 C8 1.314 . S
N5 C9 1.279 . S
C6 C4 1.348 . S
C6 C8 1.353 . S
C6 H64 0.929 . S
C7 C4 1.356 . S
C7 C9 1.358 . S
C7 H65 0.930 . S
C8 N5 1.314 . S
C8 C6 1.353 . S
C8 H66 0.930 . S
C9 N5 1.279 . S
C9 C7 1.358 . S
C9 H67 0.930 . S
C10 C13 1.348 1_455 S
C10 C14 1.356 . S
C10 O61 1.325 . S
C11 N12 1.279 . S
C11 C14 1.358 1_655 S
C11 H68 0.930 . S
N12 C11 1.279 . S
N12 C15 1.314 . S
C13 C10 1.348 1_655 S
C13 C15 1.353 . S
C13 H69 0.929 . S
C14 C10 1.356 . S
C14 C11 1.358 1_455 S
C14 H70 0.930 . S
C15 N12 1.314 . S
C15 C13 1.353 . S
C15 H71 0.930 . S
C16 N17 1.314 1_655 S
C16 C21 1.353 . S
C16 H22 0.930 . S
N17 Li0 1.990 . S
N17 C16 1.314 1_455 S
N17 C19 1.279 . S
C18 C19 1.358 1_655 S
C18 C20 1.356 . S
C18 H72 0.930 . S
C19 N17 1.279 . S
C19 C18 1.358 1_455 S
C19 H23 0.930 . S
C20 C18 1.356 . S
C20 C21 1.348 . S
C21 C16 1.353 . S
C21 C20 1.348 . S
C21 H73 0.929 . S
H22 C16 0.930 . S
H23 C19 0.930 . S
C24 N25 1.314 . S
C24 C26 1.353 . S
C24 H30 0.930 . S
N25 Li1 1.990 . S
N25 C24 1.314 . S
N25 C28 1.279 . S
C26 C24 1.353 . S
C26 C29 1.348 . S
C26 H74 0.929 . S
C27 C28 1.358 . S
C27 C29 1.356 . S
C27 H75 0.930 . S
C28 N25 1.279 . S
C28 C27 1.358 . S
C28 H31 0.930 . S
C29 C26 1.348 . S
C29 C27 1.356 . S
H30 C24 0.930 . S
H31 C28 0.930 . S
C32 C34 1.348 . S
C32 C35 1.356 . S
C32 O62 1.325 . S
N33 C36 1.314 . S
N33 C37 1.279 . S
C34 C32 1.348 . S
C34 C36 1.353 . S
C34 H76 0.929 . S
C35 C32 1.356 . S
C35 C37 1.358 . S
C35 H77 0.930 . S
C36 N33 1.314 . S
C36 C34 1.353 . S
C36 H78 0.930 . S
C37 N33 1.279 . S
C37 C35 1.358 . S
C37 H79 0.930 . S
C38 C39 1.348 . S
C38 C40 1.356 . S
C38 O63 1.325 . S
C39 C38 1.348 . S
C39 C41 1.353 . S
C39 H80 0.929 . S
C40 C38 1.356 . S
C40 C42 1.358 . S
C40 H81 0.930 . S
C41 C39 1.353 . S
C41 N43 1.314 . S
C41 H82 0.930 . S
C42 C40 1.358 . S
C42 N43 1.279 . S
C42 H83 0.930 . S
N43 C41 1.314 . S
N43 C42 1.279 . S
C44 C46 1.353 . S
C44 N47 1.314 . S
C44 H50 0.930 . S
C45 N47 1.279 . S
C45 C48 1.358 . S
C45 H51 0.930 . S
C46 C44 1.353 . S
C46 C49 1.348 . S
C46 H84 0.929 . S
N47 Li2 1.990 . S
N47 C44 1.314 . S
N47 C45 1.279 . S
C48 C45 1.358 . S
C48 C49 1.356 . S
C48 H85 0.930 . S
C49 C46 1.348 . S
C49 C48 1.356 . S
H50 C44 0.930 . S
H51 C45 0.930 . S
C52 N53 1.314 . S
C52 C54 1.353 . S
C52 H58 0.930 . S
N53 Li3 1.990 . S
N53 C52 1.314 . S
N53 C56 1.279 . S
C54 C52 1.353 . S
C54 C57 1.348 . S
C54 H86 0.929 . S
C55 C56 1.358 . S
C55 C57 1.356 . S
C55 H87 0.930 . S
C56 N53 1.279 . S
C56 C55 1.358 . S
C56 H59 0.930 . S
C57 C54 1.348 . S
C57 C55 1.356 . S
H58 C52 0.930 . S
H59 C56 0.930 . S
O60 Li0 1.956 . S
O60 Li1 1.970 . S
O60 Li2 1.961 . S
O60 C4 1.325 . S
O61 Li0 1.970 . S
O61 Li1 1.956 . S
O61 Li3 1.961 . S
O61 C10 1.325 . S
O62 Li0 1.961 . S
O62 Li2 1.956 . S
O62 Li3 1.970 . S
O62 C32 1.325 . S
O63 Li1 1.961 . S
O63 Li2 1.970 . S
O63 Li3 1.956 . S
O63 C38 1.325 . S
H64 C6 0.929 . S
H65 C7 0.930 . S
H66 C8 0.930 . S
H67 C9 0.930 . S
H68 C11 0.930 . S
H69 C13 0.929 . S
H70 C14 0.930 . S
H71 C15 0.930 . S
H72 C18 0.930 . S
H73 C21 0.929 . S
H74 C26 0.929 . S
H75 C27 0.930 . S
H76 C34 0.929 . S
H77 C35 0.930 . S
H78 C36 0.930 . S
H79 C37 0.930 . S
H80 C39 0.929 . S
H81 C40 0.930 . S
H82 C41 0.930 . S
H83 C42 0.930 . S
H84 C46 0.929 . S
H85 C48 0.930 . S
H86 C54 0.929 . S
H87 C55 0.930 . S
Li88 N105 1.990 . S
Li88 O148 1.956 . S
Li88 O149 1.970 . S
Li88 O150 1.961 . S
Li89 N113 1.990 . S
Li89 O148 1.970 . S
Li89 O149 1.956 . S
Li89 O151 1.961 . S
Li90 N135 1.990 . S
Li90 O148 1.961 . S
Li90 O150 1.956 . S
Li90 O151 1.970 . S
Li91 N141 1.990 . S
Li91 O149 1.961 . S
Li91 O150 1.970 . S
Li91 O151 1.956 . S
C92 C94 1.348 . S
C92 C95 1.356 . S
C92 O148 1.325 . S
N93 C96 1.314 . S
N93 C97 1.279 . S
C94 C92 1.348 . S
C94 C96 1.353 . S
C94 H152 0.929 . S
C95 C92 1.356 . S
C95 C97 1.358 . S
C95 H153 0.930 . S
C96 N93 1.314 . S
C96 C94 1.353 . S
C96 H154 0.930 . S
C97 N93 1.279 . S
C97 C95 1.358 . S
C97 H155 0.930 . S
C98 C101 1.348 . S
C98 C102 1.356 . S
C98 O149 1.325 . S
C99 N100 1.279 . S
C99 C102 1.358 . S
C99 H156 0.930 . S
N100 C99 1.279 . S
N100 C103 1.314 . S
C101 C98 1.348 . S
C101 C103 1.353 . S
C101 H157 0.929 . S
C102 C98 1.356 . S
C102 C99 1.358 . S
C102 H158 0.930 . S
C103 N100 1.314 . S
C103 C101 1.353 . S
C103 H159 0.930 . S
C104 N105 1.314 . S
C104 C109 1.353 . S
C104 H110 0.930 . S
N105 Li88 1.990 . S
N105 C104 1.314 . S
N105 C107 1.279 . S
C106 C107 1.358 . S
C106 C108 1.356 . S
C106 H160 0.930 . S
C107 N105 1.279 . S
C107 C106 1.358 . S
C107 H111 0.930 . S
C108 C106 1.356 . S
C108 C109 1.348 . S
C109 C104 1.353 . S
C109 C108 1.348 . S
C109 H161 0.929 . S
H110 C104 0.930 . S
H111 C107 0.930 . S
C112 N113 1.314 . S
C112 C114 1.353 . S
C112 H118 0.930 . S
N113 Li89 1.990 . S
N113 C112 1.314 . S
N113 C116 1.279 . S
C114 C112 1.353 . S
C114 C117 1.348 . S
C114 H162 0.929 . S
C115 C116 1.358 . S
C115 C117 1.356 . S
C115 H163 0.930 . S
C116 N113 1.279 . S
C116 C115 1.358 . S
C116 H119 0.930 . S
C117 C114 1.348 . S
C117 C115 1.356 . S
H118 C112 0.930 . S
H119 C116 0.930 . S
C120 C122 1.348 . S
C120 C123 1.356 . S
C120 O150 1.325 . S
N121 C124 1.314 . S
N121 C125 1.279 . S
C122 C120 1.348 . S
C122 C124 1.353 . S
C122 H164 0.929 . S
C123 C120 1.356 . S
C123 C125 1.358 . S
C123 H165 0.930 . S
C124 N121 1.314 . S
C124 C122 1.353 . S
C124 H166 0.930 . S
C125 N121 1.279 . S
C125 C123 1.358 . S
C125 H167 0.930 . S
C126 C127 1.348 . S
C126 C128 1.356 . S
C126 O151 1.325 . S
C127 C126 1.348 . S
C127 C129 1.353 . S
C127 H168 0.929 . S
C128 C126 1.356 . S
C128 C130 1.358 . S
C128 H169 0.930 . S
C129 C127 1.353 . S
C129 N131 1.314 . S
C129 H170 0.930 . S
C130 C128 1.358 . S
C130 N131 1.279 . S
C130 H171 0.930 . S
N131 C129 1.314 . S
N131 C130 1.279 . S
C132 C134 1.353 . S
C132 N135 1.314 . S
C132 H138 0.930 . S
C133 N135 1.279 . S
C133 C136 1.358 . S
C133 H139 0.930 . S
C134 C132 1.353 . S
C134 C137 1.348 . S
C134 H172 0.929 . S
N135 Li90 1.990 . S
N135 C132 1.314 . S
N135 C133 1.279 . S
C136 C133 1.358 . S
C136 C137 1.356 . S
C136 H173 0.930 . S
C137 C134 1.348 . S
C137 C136 1.356 . S
H138 C132 0.930 . S
H139 C133 0.930 . S
C140 N141 1.314 . S
C140 C142 1.353 . S
C140 H146 0.930 . S
N141 Li91 1.990 . S
N141 C140 1.314 . S
N141 C144 1.279 . S
C142 C140 1.353 . S
C142 C145 1.348 . S
C142 H174 0.929 . S
C143 C144 1.358 . S
C143 C145 1.356 . S
C143 H175 0.930 . S
C144 N141 1.279 . S
C144 C143 1.358 . S
C144 H147 0.930 . S
C145 C142 1.348 . S
C145 C143 1.356 . S
H146 C140 0.930 . S
H147 C144 0.930 . S
O148 Li88 1.956 . S
O148 Li89 1.970 . S
O148 Li90 1.961 . S
O148 C92 1.325 . S
O149 Li88 1.970 . S
O149 Li89 1.956 . S
O149 Li91 1.961 . S
O149 C98 1.325 . S
O150 Li88 1.961 . S
O150 Li90 1.956 . S
O150 Li91 1.970 . S
O150 C120 1.325 . S
O151 Li89 1.961 . S
O151 Li90 1.970 . S
O151 Li91 1.956 . S
O151 C126 1.325 . S
H152 C94 0.929 . S
H153 C95 0.930 . S
H154 C96 0.930 . S
H155 C97 0.930 . S
H156 C99 0.930 . S
H157 C101 0.929 . S
H158 C102 0.930 . S
H159 C103 0.930 . S
H160 C106 0.930 . S
H161 C109 0.929 . S
H162 C114 0.929 . S
H163 C115 0.930 . S
H164 C122 0.929 . S
H165 C123 0.930 . S
H166 C124 0.930 . S
H167 C125 0.930 . S
H168 C127 0.929 . S
H169 C128 0.930 . S
H170 C129 0.930 . S
H171 C130 0.930 . S
H172 C134 0.929 . S
H173 C136 0.930 . S
H174 C142 0.929 . S
H175 C143 0.930 . S
Li176 N193 1.990 . S
Li176 O236 1.956 . S
Li176 O237 1.970 . S
Li176 O238 1.961 . S
Li177 N201 1.990 . S
Li177 O236 1.970 . S
Li177 O237 1.956 . S
Li177 O239 1.961 . S
Li178 N223 1.990 . S
Li178 O236 1.961 . S
Li178 O238 1.956 . S
Li178 O239 1.970 . S
Li179 N229 1.990 . S
Li179 O237 1.961 . S
Li179 O238 1.970 . S
Li179 O239 1.956 . S
C180 C182 1.348 . S
C180 C183 1.356 . S
C180 O236 1.325 . S
N181 C184 1.314 . S
N181 C185 1.279 . S
C182 C180 1.348 . S
C182 C184 1.353 . S
C182 H240 0.929 . S
C183 C180 1.356 . S
C183 C185 1.358 . S
C183 H241 0.930 . S
C184 N181 1.314 . S
C184 C182 1.353 . S
C184 H242 0.930 . S
C185 N181 1.279 . S
C185 C183 1.358 . S
C185 H243 0.930 . S
C186 C189 1.348 1_655 S
C186 C190 1.356 . S
C186 O237 1.325 . S
C187 N188 1.279 . S
C187 C190 1.358 1_455 S
C187 H244 0.930 . S
N188 C187 1.279 . S
N188 C191 1.314 . S
C189 C186 1.348 1_455 S
C189 C191 1.353 . S
C189 H245 0.929 . S
C190 C186 1.356 . S
C190 C187 1.358 1_655 S
C190 H246 0.930 . S
C191 N188 1.314 . S
C191 C189 1.353 . S
C191 H247 0.930 . S
C192 N193 1.314 1_455 S
C192 C197 1.353 . S
C192 H198 0.930 . S
N193 Li176 1.990 . S
N193 C192 1.314 1_655 S
N193 C195 1.279 . S
C194 C195 1.358 1_455 S
C194 C196 1.356 . S
C194 H248 0.930 . S
C195 N193 1.279 . S
C195 C194 1.358 1_655 S
C195 H199 0.930 . S
C196 C194 1.356 . S
C196 C197 1.348 . S
C197 C192 1.353 . S
C197 C196 1.348 . S
C197 H249 0.929 . S
H198 C192 0.930 . S
H199 C195 0.930 . S
C200 N201 1.314 . S
C200 C202 1.353 . S
C200 H206 0.930 . S
N201 Li177 1.990 . S
N201 C200 1.314 . S
N201 C204 1.279 . S
C202 C200 1.353 . S
C202 C205 1.348 . S
C202 H250 0.929 . S
C203 C204 1.358 . S
C203 C205 1.356 . S
C203 H251 0.930 . S
C204 N201 1.279 . S
C204 C203 1.358 . S
C204 H207 0.930 . S
C205 C202 1.348 . S
C205 C203 1.356 . S
H206 C200 0.930 . S
H207 C204 0.930 . S
C208 C210 1.348 . S
C208 C211 1.356 . S
C208 O238 1.325 . S
N209 C212 1.314 . S
N209 C213 1.279 . S
C210 C208 1.348 . S
C210 C212 1.353 . S
C210 H252 0.929 . S
C211 C208 1.356 . S
C211 C213 1.358 . S
C211 H253 0.930 . S
C212 N209 1.314 . S
C212 C210 1.353 . S
C212 H254 0.930 . S
C213 N209 1.279 . S
C213 C211 1.358 . S
C213 H255 0.930 . S
C214 C215 1.348 . S
C214 C216 1.356 . S
C214 O239 1.325 . S
C215 C214 1.348 . S
C215 C217 1.353 . S
C215 H256 0.929 . S
C216 C214 1.356 . S
C216 C218 1.358 . S
C216 H257 0.930 . S
C217 C215 1.353 . S
C217 N219 1.314 . S
C217 H258 0.930 . S
C218 C216 1.358 . S
C218 N219 1.279 . S
C218 H259 0.930 . S
N219 C217 1.314 . S
N219 C218 1.279 . S
C220 C222 1.353 . S
C220 N223 1.314 . S
C220 H226 0.930 . S
C221 N223 1.279 . S
C221 C224 1.358 . S
C221 H227 0.930 . S
C222 C220 1.353 . S
C222 C225 1.348 . S
C222 H260 0.929 . S
N223 Li178 1.990 . S
N223 C220 1.314 . S
N223 C221 1.279 . S
C224 C221 1.358 . S
C224 C225 1.356 . S
C224 H261 0.930 . S
C225 C222 1.348 . S
C225 C224 1.356 . S
H226 C220 0.930 . S
H227 C221 0.930 . S
C228 N229 1.314 . S
C228 C230 1.353 . S
C228 H234 0.930 . S
N229 Li179 1.990 . S
N229 C228 1.314 . S
N229 C232 1.279 . S
C230 C228 1.353 . S
C230 C233 1.348 . S
C230 H262 0.929 . S
C231 C232 1.358 . S
C231 C233 1.356 . S
C231 H263 0.930 . S
C232 N229 1.279 . S
C232 C231 1.358 . S
C232 H235 0.930 . S
C233 C230 1.348 . S
C233 C231 1.356 . S
H234 C228 0.930 . S
H235 C232 0.930 . S
O236 Li176 1.956 . S
O236 Li177 1.970 . S
O236 Li178 1.961 . S
O236 C180 1.325 . S
O237 Li176 1.970 . S
O237 Li177 1.956 . S
O237 Li179 1.961 . S
O237 C186 1.325 . S
O238 Li176 1.961 . S
O238 Li178 1.956 . S
O238 Li179 1.970 . S
O238 C208 1.325 . S
O239 Li177 1.961 . S
O239 Li178 1.970 . S
O239 Li179 1.956 . S
O239 C214 1.325 . S
H240 C182 0.929 . S
H241 C183 0.930 . S
H242 C184 0.930 . S
H243 C185 0.930 . S
H244 C187 0.930 . S
H245 C189 0.929 . S
H246 C190 0.930 . S
H247 C191 0.930 . S
H248 C194 0.930 . S
H249 C197 0.929 . S
H250 C202 0.929 . S
H251 C203 0.930 . S
H252 C210 0.929 . S
H253 C211 0.930 . S
H254 C212 0.930 . S
H255 C213 0.930 . S
H256 C215 0.929 . S
H257 C216 0.930 . S
H258 C217 0.930 . S
H259 C218 0.930 . S
H260 C222 0.929 . S
H261 C224 0.930 . S
H262 C230 0.929 . S
H263 C231 0.930 . S
Li264 N281 1.990 . S
Li264 O324 1.956 . S
Li264 O325 1.970 . S
Li264 O326 1.961 . S
Li265 N289 1.990 . S
Li265 O324 1.970 . S
Li265 O325 1.956 . S
Li265 O327 1.961 . S
Li266 N311 1.990 . S
Li266 O324 1.961 . S
Li266 O326 1.956 . S
Li266 O327 1.970 . S
Li267 N317 1.990 . S
Li267 O325 1.961 . S
Li267 O326 1.970 . S
Li267 O327 1.956 . S
C268 C270 1.348 . S
C268 C271 1.356 . S
C268 O324 1.325 . S
N269 C272 1.314 . S
N269 C273 1.279 . S
C270 C268 1.348 . S
C270 C272 1.353 . S
C270 H328 0.929 . S
C271 C268 1.356 . S
C271 C273 1.358 . S
C271 H329 0.930 . S
C272 N269 1.314 . S
C272 C270 1.353 . S
C272 H330 0.930 . S
C273 N269 1.279 . S
C273 C271 1.358 . S
C273 H331 0.930 . S
C274 C277 1.348 . S
C274 C278 1.356 . S
C274 O325 1.325 . S
C275 N276 1.279 . S
C275 C278 1.358 . S
C275 H332 0.930 . S
N276 C275 1.279 . S
N276 C279 1.314 . S
C277 C274 1.348 . S
C277 C279 1.353 . S
C277 H333 0.929 . S
C278 C274 1.356 . S
C278 C275 1.358 . S
C278 H334 0.930 . S
C279 N276 1.314 . S
C279 C277 1.353 . S
C279 H335 0.930 . S
C280 N281 1.314 . S
C280 C285 1.353 . S
C280 H286 0.930 . S
N281 Li264 1.990 . S
N281 C280 1.314 . S
N281 C283 1.279 . S
C282 C283 1.358 . S
C282 C284 1.356 . S
C282 H336 0.930 . S
C283 N281 1.279 . S
C283 C282 1.358 . S
C283 H287 0.930 . S
C284 C282 1.356 . S
C284 C285 1.348 . S
C285 C280 1.353 . S
C285 C284 1.348 . S
C285 H337 0.929 . S
H286 C280 0.930 . S
H287 C283 0.930 . S
C288 N289 1.314 . S
C288 C290 1.353 . S
C288 H294 0.930 . S
N289 Li265 1.990 . S
N289 C288 1.314 . S
N289 C292 1.279 . S
C290 C288 1.353 . S
C290 C293 1.348 . S
C290 H338 0.929 . S
C291 C292 1.358 . S
C291 C293 1.356 . S
C291 H339 0.930 . S
C292 N289 1.279 . S
C292 C291 1.358 . S
C292 H295 0.930 . S
C293 C290 1.348 . S
C293 C291 1.356 . S
H294 C288 0.930 . S
H295 C292 0.930 . S
C296 C298 1.348 . S
C296 C299 1.356 . S
C296 O326 1.325 . S
N297 C300 1.314 . S
N297 C301 1.279 . S
C298 C296 1.348 . S
C298 C300 1.353 . S
C298 H340 0.929 . S
C299 C296 1.356 . S
C299 C301 1.358 . S
C299 H341 0.930 . S
C300 N297 1.314 . S
C300 C298 1.353 . S
C300 H342 0.930 . S
C301 N297 1.279 . S
C301 C299 1.358 . S
C301 H343 0.930 . S
C302 C303 1.348 . S
C302 C304 1.356 . S
C302 O327 1.325 . S
C303 C302 1.348 . S
C303 C305 1.353 . S
C303 H344 0.929 . S
C304 C302 1.356 . S
C304 C306 1.358 . S
C304 H345 0.930 . S
C305 C303 1.353 . S
C305 N307 1.314 . S
C305 H346 0.930 . S
C306 C304 1.358 . S
C306 N307 1.279 . S
C306 H347 0.930 . S
N307 C305 1.314 . S
N307 C306 1.279 . S
C308 C310 1.353 . S
C308 N311 1.314 . S
C308 H314 0.930 . S
C309 N311 1.279 . S
C309 C312 1.358 . S
C309 H315 0.930 . S
C310 C308 1.353 . S
C310 C313 1.348 . S
C310 H348 0.929 . S
N311 Li266 1.990 . S
N311 C308 1.314 . S
N311 C309 1.279 . S
C312 C309 1.358 . S
C312 C313 1.356 . S
C312 H349 0.930 . S
C313 C310 1.348 . S
C313 C312 1.356 . S
H314 C308 0.930 . S
H315 C309 0.930 . S
C316 N317 1.314 . S
C316 C318 1.353 . S
C316 H322 0.930 . S
N317 Li267 1.990 . S
N317 C316 1.314 . S
N317 C320 1.279 . S
C318 C316 1.353 . S
C318 C321 1.348 . S
C318 H350 0.929 . S
C319 C320 1.358 . S
C319 C321 1.356 . S
C319 H351 0.930 . S
C320 N317 1.279 . S
C320 C319 1.358 . S
C320 H323 0.930 . S
C321 C318 1.348 . S
C321 C319 1.356 . S
H322 C316 0.930 . S
H323 C320 0.930 . S
O324 Li264 1.956 . S
O324 Li265 1.970 . S
O324 Li266 1.961 . S
O324 C268 1.325 . S
O325 Li264 1.970 . S
O325 Li265 1.956 . S
O325 Li267 1.961 . S
O325 C274 1.325 . S
O326 Li264 1.961 . S
O326 Li266 1.956 . S
O326 Li267 1.970 . S
O326 C296 1.325 . S
O327 Li265 1.961 . S
O327 Li266 1.970 . S
O327 Li267 1.956 . S
O327 C302 1.325 . S
H328 C270 0.929 . S
H329 C271 0.930 . S
H330 C272 0.930 . S
H331 C273 0.930 . S
H332 C275 0.930 . S
H333 C277 0.929 . S
H334 C278 0.930 . S
H335 C279 0.930 . S
H336 C282 0.930 . S
H337 C285 0.929 . S
H338 C290 0.929 . S
H339 C291 0.930 . S
H340 C298 0.929 . S
H341 C299 0.930 . S
H342 C300 0.930 . S
H343 C301 0.930 . S
H344 C303 0.929 . S
H345 C304 0.930 . S
H346 C305 0.930 . S
H347 C306 0.930 . S
H348 C310 0.929 . S
H349 C312 0.930 . S
H350 C318 0.929 . S
H351 C319 0.930 . S
Li352 N369 1.990 . S
Li352 O412 1.956 . S
Li352 O413 1.970 . S
Li352 O414 1.961 . S
Li353 N377 1.990 . S
Li353 O412 1.970 . S
Li353 O413 1.956 . S
Li353 O415 1.961 . S
Li354 N399 1.990 . S
Li354 O412 1.961 . S
Li354 O414 1.956 . S
Li354 O415 1.970 . S
Li355 N405 1.990 . S
Li355 O413 1.961 . S
Li355 O414 1.970 . S
Li355 O415 1.956 . S
C356 C358 1.348 . S
C356 C359 1.356 . S
C356 O412 1.325 . S
N357 C360 1.314 . S
N357 C361 1.279 . S
C358 C356 1.348 . S
C358 C360 1.353 . S
C358 H416 0.929 . S
C359 C356 1.356 . S
C359 C361 1.358 . S
C359 H417 0.930 . S
C360 N357 1.314 . S
C360 C358 1.353 . S
C360 H418 0.930 . S
C361 N357 1.279 . S
C361 C359 1.358 . S
C361 H419 0.930 . S
C362 C365 1.348 . S
C362 C366 1.356 . S
C362 O413 1.325 . S
C363 N364 1.279 . S
C363 C366 1.358 . S
C363 H420 0.930 . S
N364 C363 1.279 . S
N364 C367 1.314 . S
C365 C362 1.348 . S
C365 C367 1.353 . S
C365 H421 0.929 . S
C366 C362 1.356 . S
C366 C363 1.358 . S
C366 H422 0.930 . S
C367 N364 1.314 . S
C367 C365 1.353 . S
C367 H423 0.930 . S
C368 N369 1.314 . S
C368 C373 1.353 . S
C368 H374 0.930 . S
N369 Li352 1.990 . S
N369 C368 1.314 . S
N369 C371 1.279 . S
C370 C371 1.358 . S
C370 C372 1.356 . S
C370 H424 0.930 . S
C371 N369 1.279 . S
C371 C370 1.358 . S
C371 H375 0.930 . S
C372 C370 1.356 . S
C372 C373 1.348 . S
C373 C368 1.353 . S
C373 C372 1.348 . S
C373 H425 0.929 . S
H374 C368 0.930 . S
H375 C371 0.930 . S
C376 N377 1.314 . S
C376 C378 1.353 . S
C376 H382 0.930 . S
N377 Li353 1.990 . S
N377 C376 1.314 . S
N377 C380 1.279 . S
C378 C376 1.353 . S
C378 C381 1.348 . S
C378 H426 0.929 . S
C379 C380 1.358 . S
C379 C381 1.356 . S
C379 H427 0.930 . S
C380 N377 1.279 . S
C380 C379 1.358 . S
C380 H383 0.930 . S
C381 C378 1.348 . S
C381 C379 1.356 . S
H382 C376 0.930 . S
H383 C380 0.930 . S
C384 C386 1.348 . S
C384 C387 1.356 . S
C384 O414 1.325 . S
N385 C388 1.314 . S
N385 C389 1.279 . S
C386 C384 1.348 . S
C386 C388 1.353 . S
C386 H428 0.929 . S
C387 C384 1.356 . S
C387 C389 1.358 . S
C387 H429 0.930 . S
C388 N385 1.314 . S
C388 C386 1.353 . S
C388 H430 0.930 . S
C389 N385 1.279 . S
C389 C387 1.358 . S
C389 H431 0.930 . S
C390 C391 1.348 . S
C390 C392 1.356 . S
C390 O415 1.325 . S
C391 C390 1.348 . S
C391 C393 1.353 . S
C391 H432 0.929 . S
C392 C390 1.356 . S
C392 C394 1.358 . S
C392 H433 0.930 . S
C393 C391 1.353 . S
C393 N395 1.314 . S
C393 H434 0.930 . S
C394 C392 1.358 . S
C394 N395 1.279 . S
C394 H435 0.930 . S
N395 C393 1.314 . S
N395 C394 1.279 . S
C396 C398 1.353 . S
C396 N399 1.314 . S
C396 H402 0.930 . S
C397 N399 1.279 . S
C397 C400 1.358 . S
C397 H403 0.930 . S
C398 C396 1.353 . S
C398 C401 1.348 . S
C398 H436 0.929 . S
N399 Li354 1.990 . S
N399 C396 1.314 . S
N399 C397 1.279 . S
C400 C397 1.358 . S
C400 C401 1.356 . S
C400 H437 0.930 . S
C401 C398 1.348 . S
C401 C400 1.356 . S
H402 C396 0.930 . S
H403 C397 0.930 . S
C404 N405 1.314 . S
C404 C406 1.353 . S
C404 H410 0.930 . S
N405 Li355 1.990 . S
N405 C404 1.314 . S
N405 C408 1.279 . S
C406 C404 1.353 . S
C406 C409 1.348 . S
C406 H438 0.929 . S
C407 C408 1.358 . S
C407 C409 1.356 . S
C407 H439 0.930 . S
C408 N405 1.279 . S
C408 C407 1.358 . S
C408 H411 0.930 . S
C409 C406 1.348 . S
C409 C407 1.356 . S
H410 C404 0.930 . S
H411 C408 0.930 . S
O412 Li352 1.956 . S
O412 Li353 1.970 . S
O412 Li354 1.961 . S
O412 C356 1.325 . S
O413 Li352 1.970 . S
O413 Li353 1.956 . S
O413 Li355 1.961 . S
O413 C362 1.325 . S
O414 Li352 1.961 . S
O414 Li354 1.956 . S
O414 Li355 1.970 . S
O414 C384 1.325 . S
O415 Li353 1.961 . S
O415 Li354 1.970 . S
O415 Li355 1.956 . S
O415 C390 1.325 . S
H416 C358 0.929 . S
H417 C359 0.930 . S
H418 C360 0.930 . S
H419 C361 0.930 . S
H420 C363 0.930 . S
H421 C365 0.929 . S
H422 C366 0.930 . S
H423 C367 0.930 . S
H424 C370 0.930 . S
H425 C373 0.929 . S
H426 C378 0.929 . S
H427 C379 0.930 . S
H428 C386 0.929 . S
H429 C387 0.930 . S
H430 C388 0.930 . S
H431 C389 0.930 . S
H432 C391 0.929 . S
H433 C392 0.930 . S
H434 C393 0.930 . S
H435 C394 0.930 . S
H436 C398 0.929 . S
H437 C400 0.930 . S
H438 C406 0.929 . S
H439 C407 0.930 . S
Li440 N457 1.990 . S
Li440 O500 1.956 . S
Li440 O501 1.970 . S
Li440 O502 1.961 . S
Li441 N465 1.990 . S
Li441 O500 1.970 . S
Li441 O501 1.956 . S
Li441 O503 1.961 . S
Li442 N487 1.990 . S
Li442 O500 1.961 . S
Li442 O502 1.956 . S
Li442 O503 1.970 . S
Li443 N493 1.990 . S
Li443 O501 1.961 . S
Li443 O502 1.970 . S
Li443 O503 1.956 . S
C444 C446 1.348 . S
C444 C447 1.356 . S
C444 O500 1.325 . S
N445 C448 1.314 . S
N445 C449 1.279 . S
C446 C444 1.348 . S
C446 C448 1.353 . S
C446 H504 0.929 . S
C447 C444 1.356 . S
C447 C449 1.358 . S
C447 H505 0.930 . S
C448 N445 1.314 . S
C448 C446 1.353 . S
C448 H506 0.930 . S
C449 N445 1.279 . S
C449 C447 1.358 . S
C449 H507 0.930 . S
C450 C453 1.348 . S
C450 C454 1.356 . S
C450 O501 1.325 . S
C451 N452 1.279 . S
C451 C454 1.358 . S
C451 H508 0.930 . S
N452 C451 1.279 . S
N452 C455 1.314 . S
C453 C450 1.348 . S
C453 C455 1.353 . S
C453 H509 0.929 . S
C454 C450 1.356 . S
C454 C451 1.358 . S
C454 H510 0.930 . S
C455 N452 1.314 . S
C455 C453 1.353 . S
C455 H511 0.930 . S
C456 N457 1.314 . S
C456 C461 1.353 . S
C456 H462 0.930 . S
N457 Li440 1.990 . S
N457 C456 1.314 . S
N457 C459 1.279 . S
C458 C459 1.358 . S
C458 C460 1.356 . S
C458 H512 0.930 . S
C459 N457 1.279 . S
C459 C458 1.358 . S
C459 H463 0.930 . S
C460 C458 1.356 . S
C460 C461 1.348 . S
C461 C456 1.353 . S
C461 C460 1.348 . S
C461 H513 0.929 . S
H462 C456 0.930 . S
H463 C459 0.930 . S
C464 N465 1.314 . S
C464 C466 1.353 . S
C464 H470 0.930 . S
N465 Li441 1.990 . S
N465 C464 1.314 . S
N465 C468 1.279 . S
C466 C464 1.353 . S
C466 C469 1.348 . S
C466 H514 0.929 . S
C467 C468 1.358 . S
C467 C469 1.356 . S
C467 H515 0.930 . S
C468 N465 1.279 . S
C468 C467 1.358 . S
C468 H471 0.930 . S
C469 C466 1.348 . S
C469 C467 1.356 . S
H470 C464 0.930 . S
H471 C468 0.930 . S
C472 C474 1.348 . S
C472 C475 1.356 . S
C472 O502 1.325 . S
N473 C476 1.314 . S
N473 C477 1.279 . S
C474 C472 1.348 . S
C474 C476 1.353 . S
C474 H516 0.929 . S
C475 C472 1.356 . S
C475 C477 1.358 . S
C475 H517 0.930 . S
C476 N473 1.314 . S
C476 C474 1.353 . S
C476 H518 0.930 . S
C477 N473 1.279 . S
C477 C475 1.358 . S
C477 H519 0.930 . S
C478 C479 1.348 . S
C478 C480 1.356 . S
C478 O503 1.325 . S
C479 C478 1.348 . S
C479 C481 1.353 1_545 S
C479 H520 0.929 . S
C480 C478 1.356 . S
C480 C482 1.358 1_545 S
C480 H521 0.930 . S
C481 C479 1.353 1_565 S
C481 N483 1.314 . S
C481 H522 0.930 . S
C482 C480 1.358 1_565 S
C482 N483 1.279 . S
C482 H523 0.930 . S
N483 C481 1.314 . S
N483 C482 1.279 . S
C484 C486 1.353 . S
C484 N487 1.314 . S
C484 H490 0.930 . S
C485 N487 1.279 . S
C485 C488 1.358 . S
C485 H491 0.930 . S
C486 C484 1.353 . S
C486 C489 1.348 . S
C486 H524 0.929 . S
N487 Li442 1.990 . S
N487 C484 1.314 . S
N487 C485 1.279 . S
C488 C485 1.358 . S
C488 C489 1.356 . S
C488 H525 0.930 . S
C489 C486 1.348 . S
C489 C488 1.356 . S
H490 C484 0.930 . S
H491 C485 0.930 . S
C492 N493 1.314 . S
C492 C494 1.353 . S
C492 H498 0.930 . S
N493 Li443 1.990 . S
N493 C492 1.314 . S
N493 C496 1.279 1_545 S
C494 C492 1.353 . S
C494 C497 1.348 1_545 S
C494 H526 0.929 . S
C495 C496 1.358 . S
C495 C497 1.356 . S
C495 H527 0.930 . S
C496 N493 1.279 1_565 S
C496 C495 1.358 . S
C496 H499 0.930 . S
C497 C494 1.348 1_565 S
C497 C495 1.356 . S
H498 C492 0.930 . S
H499 C496 0.930 . S
O500 Li440 1.956 . S
O500 Li441 1.970 . S
O500 Li442 1.961 . S
O500 C444 1.325 . S
O501 Li440 1.970 . S
O501 Li441 1.956 . S
O501 Li443 1.961 . S
O501 C450 1.325 . S
O502 Li440 1.961 . S
O502 Li442 1.956 . S
O502 Li443 1.970 . S
O502 C472 1.325 . S
O503 Li441 1.961 . S
O503 Li442 1.970 . S
O503 Li443 1.956 . S
O503 C478 1.325 . S
H504 C446 0.929 . S
H505 C447 0.930 . S
H506 C448 0.930 . S
H507 C449 0.930 . S
H508 C451 0.930 . S
H509 C453 0.929 . S
H510 C454 0.930 . S
H511 C455 0.930 . S
H512 C458 0.930 . S
H513 C461 0.929 . S
H514 C466 0.929 . S
H515 C467 0.930 . S
H516 C474 0.929 . S
H517 C475 0.930 . S
H518 C476 0.930 . S
H519 C477 0.930 . S
H520 C479 0.929 . S
H521 C480 0.930 . S
H522 C481 0.930 . S
H523 C482 0.930 . S
H524 C486 0.929 . S
H525 C488 0.930 . S
H526 C494 0.929 . S
H527 C495 0.930 . S
Li528 N545 1.990 . S
Li528 O588 1.956 . S
Li528 O589 1.970 . S
Li528 O590 1.961 . S
Li529 N553 1.990 . S
Li529 O588 1.970 . S
Li529 O589 1.956 . S
Li529 O591 1.961 . S
Li530 N575 1.990 . S
Li530 O588 1.961 . S
Li530 O590 1.956 . S
Li530 O591 1.970 . S
Li531 N581 1.990 . S
Li531 O589 1.961 . S
Li531 O590 1.970 . S
Li531 O591 1.956 . S
C532 C534 1.348 . S
C532 C535 1.356 . S
C532 O588 1.325 . S
N533 C536 1.314 . S
N533 C537 1.279 . S
C534 C532 1.348 . S
C534 C536 1.353 . S
C534 H592 0.929 . S
C535 C532 1.356 . S
C535 C537 1.358 . S
C535 H593 0.930 . S
C536 N533 1.314 . S
C536 C534 1.353 . S
C536 H594 0.930 . S
C537 N533 1.279 . S
C537 C535 1.358 . S
C537 H595 0.930 . S
C538 C541 1.348 . S
C538 C542 1.356 . S
C538 O589 1.325 . S
C539 N540 1.279 . S
C539 C542 1.358 . S
C539 H596 0.930 . S
N540 C539 1.279 . S
N540 C543 1.314 . S
C541 C538 1.348 . S
C541 C543 1.353 . S
C541 H597 0.929 . S
C542 C538 1.356 . S
C542 C539 1.358 . S
C542 H598 0.930 . S
C543 N540 1.314 . S
C543 C541 1.353 . S
C543 H599 0.930 . S
C544 N545 1.314 . S
C544 C549 1.353 . S
C544 H550 0.930 . S
N545 Li528 1.990 . S
N545 C544 1.314 . S
N545 C547 1.279 . S
C546 C547 1.358 . S
C546 C548 1.356 . S
C546 H600 0.930 . S
C547 N545 1.279 . S
C547 C546 1.358 . S
C547 H551 0.930 . S
C548 C546 1.356 . S
C548 C549 1.348 . S
C549 C544 1.353 . S
C549 C548 1.348 . S
C549 H601 0.929 . S
H550 C544 0.930 . S
H551 C547 0.930 . S
C552 N553 1.314 . S
C552 C554 1.353 . S
C552 H558 0.930 . S
N553 Li529 1.990 . S
N553 C552 1.314 . S
N553 C556 1.279 . S
C554 C552 1.353 . S
C554 C557 1.348 . S
C554 H602 0.929 . S
C555 C556 1.358 . S
C555 C557 1.356 . S
C555 H603 0.930 . S
C556 N553 1.279 . S
C556 C555 1.358 . S
C556 H559 0.930 . S
C557 C554 1.348 . S
C557 C555 1.356 . S
H558 C552 0.930 . S
H559 C556 0.930 . S
C560 C562 1.348 . S
C560 C563 1.356 . S
C560 O590 1.325 . S
N561 C564 1.314 . S
N561 C565 1.279 . S
C562 C560 1.348 . S
C562 C564 1.353 . S
C562 H604 0.929 . S
C563 C560 1.356 . S
C563 C565 1.358 . S
C563 H605 0.930 . S
C564 N561 1.314 . S
C564 C562 1.353 . S
C564 H606 0.930 . S
C565 N561 1.279 . S
C565 C563 1.358 . S
C565 H607 0.930 . S
C566 C567 1.348 . S
C566 C568 1.356 . S
C566 O591 1.325 . S
C567 C566 1.348 . S
C567 C569 1.353 . S
C567 H608 0.929 . S
C568 C566 1.356 . S
C568 C570 1.358 . S
C568 H609 0.930 . S
C569 C567 1.353 . S
C569 N571 1.314 . S
C569 H610 0.930 . S
C570 C568 1.358 . S
C570 N571 1.279 . S
C570 H611 0.930 . S
N571 C569 1.314 . S
N571 C570 1.279 . S
C572 C574 1.353 . S
C572 N575 1.314 . S
C572 H578 0.930 . S
C573 N575 1.279 . S
C573 C576 1.358 . S
C573 H579 0.930 . S
C574 C572 1.353 . S
C574 C577 1.348 . S
C574 H612 0.929 . S
N575 Li530 1.990 . S
N575 C572 1.314 . S
N575 C573 1.279 . S
C576 C573 1.358 . S
C576 C577 1.356 . S
C576 H613 0.930 . S
C577 C574 1.348 . S
C577 C576 1.356 . S
H578 C572 0.930 . S
H579 C573 0.930 . S
C580 N581 1.314 . S
C580 C582 1.353 . S
C580 H586 0.930 . S
N581 Li531 1.990 . S
N581 C580 1.314 . S
N581 C584 1.279 . S
C582 C580 1.353 . S
C582 C585 1.348 . S
C582 H614 0.929 . S
C583 C584 1.358 . S
C583 C585 1.356 . S
C583 H615 0.930 . S
C584 N581 1.279 . S
C584 C583 1.358 . S
C584 H587 0.930 . S
C585 C582 1.348 . S
C585 C583 1.356 . S
H586 C580 0.930 . S
H587 C584 0.930 . S
O588 Li528 1.956 . S
O588 Li529 1.970 . S
O588 Li530 1.961 . S
O588 C532 1.325 . S
O589 Li528 1.970 . S
O589 Li529 1.956 . S
O589 Li531 1.961 . S
O589 C538 1.325 . S
O590 Li528 1.961 . S
O590 Li530 1.956 . S
O590 Li531 1.970 . S
O590 C560 1.325 . S
O591 Li529 1.961 . S
O591 Li530 1.970 . S
O591 Li531 1.956 . S
O591 C566 1.325 . S
H592 C534 0.929 . S
H593 C535 0.930 . S
H594 C536 0.930 . S
H595 C537 0.930 . S
H596 C539 0.930 . S
H597 C541 0.929 . S
H598 C542 0.930 . S
H599 C543 0.930 . S
H600 C546 0.930 . S
H601 C549 0.929 . S
H602 C554 0.929 . S
H603 C555 0.930 . S
H604 C562 0.929 . S
H605 C563 0.930 . S
H606 C564 0.930 . S
H607 C565 0.930 . S
H608 C567 0.929 . S
H609 C568 0.930 . S
H610 C569 0.930 . S
H611 C570 0.930 . S
H612 C574 0.929 . S
H613 C576 0.930 . S
H614 C582 0.929 . S
H615 C583 0.930 . S
Li616 N633 1.990 . S
Li616 O676 1.956 . S
Li616 O677 1.970 . S
Li616 O678 1.961 . S
Li617 N641 1.990 . S
Li617 O676 1.970 . S
Li617 O677 1.956 . S
Li617 O679 1.961 . S
Li618 N663 1.990 . S
Li618 O676 1.961 . S
Li618 O678 1.956 . S
Li618 O679 1.970 . S
Li619 N669 1.990 . S
Li619 O677 1.961 . S
Li619 O678 1.970 . S
Li619 O679 1.956 . S
C620 C622 1.348 . S
C620 C623 1.356 . S
C620 O676 1.325 . S
N621 C624 1.314 . S
N621 C625 1.279 . S
C622 C620 1.348 . S
C622 C624 1.353 1_565 S
C622 H680 0.929 . S
C623 C620 1.356 . S
C623 C625 1.358 1_565 S
C623 H681 0.930 . S
C624 N621 1.314 . S
C624 C622 1.353 1_545 S
C624 H682 0.930 . S
C625 N621 1.279 . S
C625 C623 1.358 1_545 S
C625 H683 0.930 . S
C626 C629 1.348 . S
C626 C630 1.356 . S
C626 O677 1.325 . S
C627 N628 1.279 . S
C627 C630 1.358 . S
C627 H684 0.930 . S
N628 C627 1.279 . S
N628 C631 1.314 . S
C629 C626 1.348 . S
C629 C631 1.353 . S
C629 H685 0.929 . S
C630 C626 1.356 . S
C630 C627 1.358 . S
C630 H686 0.930 . S
C631 N628 1.314 . S
C631 C629 1.353 . S
C631 H687 0.930 . S
C632 N633 1.314 . S
C632 C637 1.353 . S
C632 H638 0.930 . S
N633 Li616 1.990 . S
N633 C632 1.314 . S
N633 C635 1.279 1_565 S
C634 C635 1.358 . S
C634 C636 1.356 . S
C634 H688 0.930 . S
C635 N633 1.279 1_545 S
C635 C634 1.358 . S
C635 H639 0.930 . S
C636 C634 1.356 . S
C636 C637 1.348 1_545 S
C637 C632 1.353 . S
C637 C636 1.348 1_565 S
C637 H689 0.929 . S
H638 C632 0.930 . S
H639 C635 0.930 . S
C640 N641 1.314 . S
C640 C642 1.353 . S
C640 H646 0.930 . S
N641 Li617 1.990 . S
N641 C640 1.314 . S
N641 C644 1.279 . S
C642 C640 1.353 . S
C642 C645 1.348 . S
C642 H690 0.929 . S
C643 C644 1.358 . S
C643 C645 1.356 . S
C643 H691 0.930 . S
C644 N641 1.279 . S
C644 C643 1.358 . S
C644 H647 0.930 . S
C645 C642 1.348 . S
C645 C643 1.356 . S
H646 C640 0.930 . S
H647 C644 0.930 . S
C648 C650 1.348 . S
C648 C651 1.356 . S
C648 O678 1.325 . S
N649 C652 1.314 . S
N649 C653 1.279 . S
C650 C648 1.348 . S
C650 C652 1.353 . S
C650 H692 0.929 . S
C651 C648 1.356 . S
C651 C653 1.358 . S
C651 H693 0.930 . S
C652 N649 1.314 . S
C652 C650 1.353 . S
C652 H694 0.930 . S
C653 N649 1.279 . S
C653 C651 1.358 . S
C653 H695 0.930 . S
C654 C655 1.348 . S
C654 C656 1.356 . S
C654 O679 1.325 . S
C655 C654 1.348 . S
C655 C657 1.353 . S
C655 H696 0.929 . S
C656 C654 1.356 . S
C656 C658 1.358 . S
C656 H697 0.930 . S
C657 C655 1.353 . S
C657 N659 1.314 . S
C657 H698 0.930 . S
C658 C656 1.358 . S
C658 N659 1.279 . S
C658 H699 0.930 . S
N659 C657 1.314 . S
N659 C658 1.279 . S
C660 C662 1.353 . S
C660 N663 1.314 . S
C660 H666 0.930 . S
C661 N663 1.279 . S
C661 C664 1.358 . S
C661 H667 0.930 . S
C662 C660 1.353 . S
C662 C665 1.348 . S
C662 H700 0.929 . S
N663 Li618 1.990 . S
N663 C660 1.314 . S
N663 C661 1.279 . S
C664 C661 1.358 . S
C664 C665 1.356 . S
C664 H701 0.930 . S
C665 C662 1.348 . S
C665 C664 1.356 . S
H666 C660 0.930 . S
H667 C661 0.930 . S
C668 N669 1.314 . S
C668 C670 1.353 . S
C668 H674 0.930 . S
N669 Li619 1.990 . S
N669 C668 1.314 . S
N669 C672 1.279 . S
C670 C668 1.353 . S
C670 C673 1.348 . S
C670 H702 0.929 . S
C671 C672 1.358 . S
C671 C673 1.356 . S
C671 H703 0.930 . S
C672 N669 1.279 . S
C672 C671 1.358 . S
C672 H675 0.930 . S
C673 C670 1.348 . S
C673 C671 1.356 . S
H674 C668 0.930 . S
H675 C672 0.930 . S
O676 Li616 1.956 . S
O676 Li617 1.970 . S
O676 Li618 1.961 . S
O676 C620 1.325 . S
O677 Li616 1.970 . S
O677 Li617 1.956 . S
O677 Li619 1.961 . S
O677 C626 1.325 . S
O678 Li616 1.961 . S
O678 Li618 1.956 . S
O678 Li619 1.970 . S
O678 C648 1.325 . S
O679 Li617 1.961 . S
O679 Li618 1.970 . S
O679 Li619 1.956 . S
O679 C654 1.325 . S
H680 C622 0.929 . S
H681 C623 0.930 . S
H682 C624 0.930 . S
H683 C625 0.930 . S
H684 C627 0.930 . S
H685 C629 0.929 . S
H686 C630 0.930 . S
H687 C631 0.930 . S
H688 C634 0.930 . S
H689 C637 0.929 . S
H690 C642 0.929 . S
H691 C643 0.930 . S
H692 C650 0.929 . S
H693 C651 0.930 . S
H694 C652 0.930 . S
H695 C653 0.930 . S
H696 C655 0.929 . S
H697 C656 0.930 . S
H698 C657 0.930 . S
H699 C658 0.930 . S
H700 C662 0.929 . S
H701 C664 0.930 . S
H702 C670 0.929 . S
H703 C671 0.930 . S
C704 C705 1.369 1_545 S
C704 C706 1.419 1_455 S
C704 H708 0.930 . S
C705 C704 1.369 1_565 S
C705 C714 1.429 . S
C706 C704 1.419 1_655 S
C706 C707 1.363 . S
C706 H709 0.929 . S
C707 C706 1.363 . S
C707 C713 1.428 1_545 S
H708 C704 0.930 . S
H709 C706 0.929 . S
S710 N711 1.613 1_655 S
S710 N712 1.610 . S
N711 S710 1.613 1_455 S
N711 C714 1.350 . S
N712 S710 1.610 . S
N712 C713 1.351 . S
C713 C707 1.428 1_565 S
C713 N712 1.351 . S
C713 C714 1.434 1_655 S
C714 C705 1.429 . S
C714 N711 1.350 . S
C714 C713 1.434 1_455 S
C715 C716 1.369 . S
C715 C717 1.419 . S
C715 H719 0.930 . S
C716 C715 1.369 . S
C716 C725 1.429 . S
C717 C715 1.419 . S
C717 C718 1.363 . S
C717 H720 0.929 . S
C718 C717 1.363 . S
C718 C724 1.428 . S
H719 C715 0.930 . S
H720 C717 0.929 . S
S721 N722 1.613 . S
S721 N723 1.610 . S
N722 S721 1.613 . S
N722 C725 1.350 . S
N723 S721 1.610 . S
N723 C724 1.351 . S
C724 C718 1.428 . S
C724 N723 1.351 . S
C724 C725 1.434 . S
C725 C716 1.429 . S
C725 N722 1.350 . S
C725 C724 1.434 . S
C726 C727 1.369 . S
C726 C728 1.419 . S
C726 H730 0.930 . S
C727 C726 1.369 . S
C727 C736 1.429 . S
C728 C726 1.419 . S
C728 C729 1.363 . S
C728 H731 0.929 . S
C729 C728 1.363 . S
C729 C735 1.428 . S
H730 C726 0.930 . S
H731 C728 0.929 . S
S732 N733 1.613 . S
S732 N734 1.610 . S
N733 S732 1.613 . S
N733 C736 1.350 . S
N734 S732 1.610 . S
N734 C735 1.351 . S
C735 C729 1.428 . S
C735 N734 1.351 . S
C735 C736 1.434 . S
C736 C727 1.429 . S
C736 N733 1.350 . S
C736 C735 1.434 . S
C737 C738 1.369 . S
C737 C739 1.419 1_545 S
C737 H741 0.930 . S
C738 C737 1.369 . S
C738 C747 1.429 1_655 S
C739 C737 1.419 1_565 S
C739 C740 1.363 1_655 S
C739 H742 0.929 . S
C740 C739 1.363 1_455 S
C740 C746 1.428 . S
H741 C737 0.930 . S
H742 C739 0.929 . S
S743 N744 1.613 . S
S743 N745 1.610 1_545 S
N744 S743 1.613 . S
N744 C747 1.350 . S
N745 S743 1.610 1_565 S
N745 C746 1.351 . S
C746 C740 1.428 . S
C746 N745 1.351 . S
C746 C747 1.434 1_565 S
C747 C738 1.429 1_455 S
C747 N744 1.350 . S
C747 C746 1.434 1_545 S
C748 C749 1.369 . S
C748 C750 1.419 . S
C748 H752 0.930 . S
C749 C748 1.369 . S
C749 C758 1.429 . S
C750 C748 1.419 . S
C750 C751 1.363 . S
C750 H753 0.929 . S
C751 C750 1.363 . S
C751 C757 1.428 . S
H752 C748 0.930 . S
H753 C750 0.929 . S
S754 N755 1.613 . S
S754 N756 1.610 . S
N755 S754 1.613 . S
N755 C758 1.350 . S
N756 S754 1.610 . S
N756 C757 1.351 . S
C757 C751 1.428 . S
C757 N756 1.351 . S
C757 C758 1.434 . S
C758 C749 1.429 . S
C758 N755 1.350 . S
C758 C757 1.434 . S
C759 C760 1.369 . S
C759 C761 1.419 . S
C759 H763 0.930 . S
C760 C759 1.369 . S
C760 C769 1.429 1_556 S
C761 C759 1.419 . S
C761 C762 1.363 1_556 S
C761 H764 0.929 . S
C762 C761 1.363 1_554 S
C762 C768 1.428 . S
H763 C759 0.930 . S
H764 C761 0.929 . S
S765 N766 1.613 . S
S765 N767 1.610 . S
N766 S765 1.613 . S
N766 C769 1.350 . S
N767 S765 1.610 . S
N767 C768 1.351 . S
C768 C762 1.428 . S
C768 N767 1.351 . S
C768 C769 1.434 . S
C769 C760 1.429 1_554 S
C769 N766 1.350 . S
C769 C768 1.434 . S
C770 C771 1.369 . S
C770 C772 1.419 . S
C770 H774 0.930 . S
C771 C770 1.369 . S
C771 C780 1.429 . S
C772 C770 1.419 . S
C772 C773 1.363 . S
C772 H775 0.929 . S
C773 C772 1.363 . S
C773 C779 1.428 . S
H774 C770 0.930 . S
H775 C772 0.929 . S
S776 N777 1.613 . S
S776 N778 1.610 . S
N777 S776 1.613 . S
N777 C780 1.350 . S
N778 S776 1.610 . S
N778 C779 1.351 . S
C779 C773 1.428 . S
C779 N778 1.351 . S
C779 C780 1.434 . S
C780 C771 1.429 . S
C780 N777 1.350 . S
C780 C779 1.434 . S
C781 C782 1.369 . S
C781 C783 1.419 1_556 S
C781 H785 0.930 . S
C782 C781 1.369 . S
C782 C791 1.429 . S
C783 C781 1.419 1_554 S
C783 C784 1.363 . S
C783 H786 0.929 . S
C784 C783 1.363 . S
C784 C790 1.428 . S
H785 C781 0.930 . S
H786 C783 0.929 . S
S787 N788 1.613 1_554 S
S787 N789 1.610 . S
N788 S787 1.613 1_556 S
N788 C791 1.350 . S
N789 S787 1.610 . S
N789 C790 1.351 . S
C790 C784 1.428 . S
C790 N789 1.351 . S
C790 C791 1.434 1_554 S
C791 C782 1.429 . S
C791 N788 1.350 . S
C791 C790 1.434 1_556 S
C792 C793 1.369 . S
C792 C794 1.419 . S
C792 H796 0.930 . S
C793 C792 1.369 . S
C793 C802 1.429 . S
C794 C792 1.419 . S
C794 C795 1.363 . S
C794 H797 0.929 . S
C795 C794 1.363 . S
C795 C801 1.428 . S
H796 C792 0.930 . S
H797 C794 0.929 . S
S798 N799 1.613 . S
S798 N800 1.610 . S
N799 S798 1.613 . S
N799 C802 1.350 . S
N800 S798 1.610 . S
N800 C801 1.351 . S
C801 C795 1.428 . S
C801 N800 1.351 . S
C801 C802 1.434 . S
C802 C793 1.429 . S
C802 N799 1.350 . S
C802 C801 1.434 . S
C803 C804 1.369 . S
C803 C805 1.419 . S
C803 H807 0.930 . S
C804 C803 1.369 . S
C804 C813 1.429 . S
C805 C803 1.419 . S
C805 C806 1.363 . S
C805 H808 0.929 . S
C806 C805 1.363 . S
C806 C812 1.428 . S
H807 C803 0.930 . S
H808 C805 0.929 . S
S809 N810 1.613 . S
S809 N811 1.610 . S
N810 S809 1.613 . S
N810 C813 1.350 . S
N811 S809 1.610 . S
N811 C812 1.351 . S
C812 C806 1.428 . S
C812 N811 1.351 . S
C812 C813 1.434 . S
C813 C804 1.429 . S
C813 N810 1.350 . S
C813 C812 1.434 . S
C814 C815 1.369 . S
C814 C816 1.419 . S
C814 H818 0.930 . S
C815 C814 1.369 . S
C815 C824 1.429 . S
C816 C814 1.419 . S
C816 C817 1.363 . S
C816 H819 0.929 . S
C817 C816 1.363 . S
C817 C823 1.428 . S
H818 C814 0.930 . S
H819 C816 0.929 . S
S820 N821 1.613 . S
S820 N822 1.610 . S
N821 S820 1.613 . S
N821 C824 1.350 . S
N822 S820 1.610 . S
N822 C823 1.351 . S
C823 C817 1.428 . S
C823 N822 1.351 . S
C823 C824 1.434 . S
C824 C815 1.429 . S
C824 N821 1.350 . S
C824 C823 1.434 . S
C825 C826 1.369 . S
C825 C827 1.419 . S
C825 H829 0.930 . S
C826 C825 1.369 . S
C826 C835 1.429 . S
C827 C825 1.419 . S
C827 C828 1.363 . S
C827 H830 0.929 . S
C828 C827 1.363 . S
C828 C834 1.428 . S
H829 C825 0.930 . S
H830 C827 0.929 . S
S831 N832 1.613 . S
S831 N833 1.610 . S
N832 S831 1.613 . S
N832 C835 1.350 . S
N833 S831 1.610 . S
N833 C834 1.351 . S
C834 C828 1.428 . S
C834 N833 1.351 . S
C834 C835 1.434 . S
C835 C826 1.429 . S
C835 N832 1.350 . S
C835 C834 1.434 . S
C836 C837 1.369 . S
C836 C838 1.419 . S
C836 H840 0.930 . S
C837 C836 1.369 . S
C837 C846 1.429 . S
C838 C836 1.419 . S
C838 C839 1.363 . S
C838 H841 0.929 . S
C839 C838 1.363 . S
C839 C845 1.428 . S
H840 C836 0.930 . S
H841 C838 0.929 . S
S842 N843 1.613 . S
S842 N844 1.610 . S
N843 S842 1.613 . S
N843 C846 1.350 . S
N844 S842 1.610 . S
N844 C845 1.351 . S
C845 C839 1.428 . S
C845 N844 1.351 . S
C845 C846 1.434 . S
C846 C837 1.429 . S
C846 N843 1.350 . S
C846 C845 1.434 . S
C847 C848 1.369 . S
C847 C849 1.419 . S
C847 H851 0.930 . S
C848 C847 1.369 . S
C848 C857 1.429 . S
C849 C847 1.419 . S
C849 C850 1.363 . S
C849 H852 0.929 . S
C850 C849 1.363 . S
C850 C856 1.428 . S
H851 C847 0.930 . S
H852 C849 0.929 . S
S853 N854 1.613 . S
S853 N855 1.610 . S
N854 S853 1.613 . S
N854 C857 1.350 . S
N855 S853 1.610 . S
N855 C856 1.351 . S
C856 C850 1.428 . S
C856 N855 1.351 . S
C856 C857 1.434 . S
C857 C848 1.429 . S
C857 N854 1.350 . S
C857 C856 1.434 . S
C858 C859 1.369 . S
C858 C860 1.419 . S
C858 H862 0.930 . S
C859 C858 1.369 . S
C859 C868 1.429 . S
C860 C858 1.419 . S
C860 C861 1.363 . S
C860 H863 0.929 . S
C861 C860 1.363 . S
C861 C867 1.428 . S
H862 C858 0.930 . S
H863 C860 0.929 . S
S864 N865 1.613 . S
S864 N866 1.610 . S
N865 S864 1.613 . S
N865 C868 1.350 . S
N866 S864 1.610 . S
N866 C867 1.351 . S
C867 C861 1.428 . S
C867 N866 1.351 . S
C867 C868 1.434 . S
C868 C859 1.429 . S
C868 N865 1.350 . S
C868 C867 1.434 . S
C869 C870 1.369 . S
C869 C871 1.419 . S
C869 H873 0.930 . S
C870 C869 1.369 . S
C870 C879 1.429 . S
C871 C869 1.419 . S
C871 C872 1.363 . S
C871 H874 0.929 . S
C872 C871 1.363 . S
C872 C878 1.428 . S
H873 C869 0.930 . S
H874 C871 0.929 . S
S875 N876 1.613 . S
S875 N877 1.610 . S
N876 S875 1.613 . S
N876 C879 1.350 . S
N877 S875 1.610 . S
N877 C878 1.351 . S
C878 C872 1.428 . S
C878 N877 1.351 . S
C878 C879 1.434 . S
C879 C870 1.429 . S
C879 N876 1.350 . S
C879 C878 1.434 . S
C705 C57 0.818 1_565 S
C707 C233 0.792 1_545 S
C716 C137 0.820 . S
C718 C293 0.832 . S
C727 C372 0.793 . S
C729 C557 0.810 . S
C738 C489 0.811 1_655 S
C740 C645 0.839 1_455 S
C749 C29 2.114 . S
C751 C469 2.138 . S
C760 C117 2.142 . S
C762 C585 2.107 . S
C771 C665 2.137 . S
C773 C205 2.113 . S
C782 C313 2.140 . S
C784 C401 2.108 . S
C793 C409 1.955 . S
C795 C49 2.123 . S
C804 C108 2.069 . S
C806 C497 1.921 . S
C815 C225 2.126 . S
C817 C577 1.952 . S
C826 C321 2.076 . S
C828 C636 1.913 . S
C837 C20 1.962 . S
C839 C381 2.119 . S
C848 C460 2.069 . S
C850 C145 1.920 . S
C859 C548 2.126 . S
C861 C196 1.952 . S
C870 C284 1.911 . S
C872 C673 2.076 . S
