# Generated by pormake.
# Topology lon, (4)-cn, num edge types: 1
# Building blocks:
#     Node 0, Type 0, BuildingBlock: UXUYUI_clean_sbu_0, # of connection points: 4
#     Node 1, Type 0, BuildingBlock: UXUYUI_clean_sbu_0, # of connection points: 4
#     Node 2, Type 0, BuildingBlock: UXUYUI_clean_sbu_0, # of connection points: 4
#     Node 3, Type 0, BuildingBlock: UXUYUI_clean_sbu_0, # of connection points: 4
#     Edge 4, Type (0, 0), BuildingBlock: KIFKEQ_clean_linker_1, # of connection points: 2
#     Edge 5, Type (0, 0), BuildingBlock: KIFKEQ_clean_linker_1, # of connection points: 2
#     Edge 6, Type (0, 0), BuildingBlock: KIFKEQ_clean_linker_1, # of connection points: 2
#     Edge 7, Type (0, 0), BuildingBlock: KIFKEQ_clean_linker_1, # of connection points: 2
#     Edge 8, Type (0, 0), BuildingBlock: KIFKEQ_clean_linker_1, # of connection points: 2
#     Edge 9, Type (0, 0), BuildingBlock: KIFKEQ_clean_linker_1, # of connection points: 2
#     Edge 10, Type (0, 0), BuildingBlock: KIFKEQ_clean_linker_1, # of connection points: 2
#     Edge 11, Type (0, 0), BuildingBlock: KIFKEQ_clean_linker_1, # of connection points: 2
# Relax obj value: 0.000
# Max RMSD: 0.004
# Mean RMSD: 0.003
data_MOF--net-lon--node1-UXUYUI_clean_sbu_0--edge1-KIFKEQ_clean_linker_1
_symmetry_space_group_name_H-M    P1
_symmetry_Int_Tables_number       1
_symmetry_cell_setting            triclinic
loop_
_symmetry_equiv_pos_as_xyz
'x, y, z'
_cell_length_a     36.858008
_cell_length_b     36.749268
_cell_length_c     60.078931
_cell_angle_alpha  90.191483
_cell_angle_beta   89.886597
_cell_angle_gamma 120.14441
loop_
_atom_site_label
_atom_site_type_symbol
_atom_site_fract_x
_atom_site_fract_y
_atom_site_fract_z
_atom_type_partial_charge
Li0 Li 0.35159 0.67969 0.0976 0.0
Li1 Li 0.37144 0.65633 0.06374 0.0
Li2 Li 0.37162 0.72502 0.06401 0.0
Li3 Li 0.30568 0.65632 0.06314 0.0
C4 C 0.43979 0.73389 0.09475 0.0
N5 N 0.50747 0.7866 0.12117 0.0
C6 C 0.46994 0.72296 0.10021 0.0
C7 C 0.44441 0.7719 0.10245 0.0
C8 C 0.50382 0.74994 0.11368 0.0
C9 C 0.47875 0.79806 0.11585 0.0
C10 C 0.31924 0.58532 0.08483 0.0
C11 C 0.30292 0.51842 0.06899 0.0
N12 N 0.31668 0.50909 0.08794 0.0
C13 C 0.33288 0.57496 0.10423 0.0
C14 C 0.30379 0.55674 0.06714 0.0
C15 C 0.33144 0.53629 0.10545 0.0
C16 C 0.31882 0.67905 0.14016 0.0
N17 N 0.35146 0.67939 0.12938 0.0
C18 C 0.38299 0.67896 0.16405 0.0
C19 C 0.38295 0.67878 0.1408 0.0
C20 C 0.35004 0.67932 0.17568 0.0
C21 C 0.31754 0.67916 0.1634 0.0
H22 H 0.2938 0.67882 0.13068 0.0
H23 H 0.40782 0.67764 0.13189 0.0
C24 C 0.40341 0.62429 0.03092 0.0
N25 N 0.40026 0.62861 0.0532 0.0
C26 C 0.42393 0.60372 0.02281 0.0
C27 C 0.43789 0.59268 0.06073 0.0
C28 C 0.41734 0.61371 0.06808 0.0
C29 C 0.44141 0.58738 0.03778 0.0
H30 H 0.39022 0.63705 0.01941 0.0
H31 H 0.41481 0.61798 0.08571 0.0
C32 C 0.31081 0.73408 0.09036 0.0
N33 N 0.29005 0.79272 0.10495 0.0
C34 C 0.2771 0.73568 0.08079 0.0
C35 C 0.33357 0.76192 0.10757 0.0
C36 C 0.26722 0.76567 0.08833 0.0
C37 C 0.32269 0.79143 0.11465 0.0
C38 C 0.33248 0.67425 0.02034 0.0
C39 C 0.33407 0.70798 1.00881 0.0
C40 C 0.31106 0.63385 0.01112 0.0
C41 C 0.31365 0.7006 0.98831 0.0
C42 C 0.29099 0.62775 0.99061 0.0
N43 N 0.29267 0.66096 0.97973 0.0
C44 C 0.44119 0.79876 0.04756 0.0
C45 C 0.38035 0.80447 0.05204 0.0
C46 C 0.464 0.84029 0.04004 0.0
N47 N 0.40025 0.78186 0.05356 0.0
C48 C 0.40206 0.84621 0.04487 0.0
C49 C 0.44448 0.86466 0.03882 0.0
H50 H 0.45617 0.77998 0.04874 0.0
H51 H 0.34756 0.79016 0.05619 0.0
C52 C 0.22191 0.58904 0.06173 0.0
N53 N 0.24881 0.62743 0.05294 0.0
C54 C 0.18018 0.56663 0.05461 0.0
C55 C 0.19463 0.62357 0.02948 0.0
C56 C 0.2358 0.64521 0.03739 0.0
C57 C 0.16629 0.58376 0.03812 0.0
H58 H 0.23285 0.57581 0.07428 0.0
H59 H 0.25736 0.67625 0.03112 0.0
O60 O 0.40638 0.70772 0.08162 0.0
O61 O 0.32098 0.62327 0.0832 0.0
O62 O 0.32089 0.70491 0.08312 0.0
O63 O 0.3521 0.68086 0.04048 0.0
H64 H 0.46708 0.69385 0.09422 0.0
H65 H 0.422 0.78135 0.09796 0.0
H66 H 0.52724 0.74175 0.11815 0.0
H67 H 0.48264 0.82754 0.12195 0.0
H68 H 0.2913 0.49611 0.05537 0.0
H69 H 0.34476 0.59666 0.11811 0.0
H70 H 0.29279 0.56416 0.0521 0.0
H71 H 0.34214 0.52794 0.1203 0.0
H72 H 0.40822 0.67816 0.17282 0.0
H73 H 0.29164 0.67966 0.17165 0.0
H74 H 0.42656 0.60119 1.00499 0.0
H75 H 0.45042 0.58029 0.07292 0.0
H76 H 0.25893 0.7142 0.06758 0.0
H77 H 0.35905 0.7605 0.11556 0.0
H78 H 0.24138 0.76743 0.08097 0.0
H79 H 0.3401 0.8132 0.12793 0.0
H80 H 0.35068 0.73948 0.01565 0.0
H81 H 0.30973 0.60745 0.01977 0.0
H82 H 0.31444 0.72637 0.97924 0.0
H83 H 0.27406 0.59661 0.98334 0.0
H84 H 0.4967 0.85341 0.03557 0.0
H85 H 0.38568 0.86371 0.04377 0.0
H86 H 0.15918 0.53598 0.06166 0.0
H87 H 0.18484 0.63805 0.01699 0.0
Li88 Li 0.65941 0.3701 0.56267 0.0
Li89 Li 0.72906 0.37131 0.56336 0.0
Li90 Li 0.66395 0.30751 0.56323 0.0
Li91 Li 0.68407 0.3468 0.59709 0.0
C92 C 0.67719 0.32839 0.52104 0.0
N93 N 0.65856 0.27831 0.48359 0.0
C94 C 0.70206 0.31101 0.5153 0.0
C95 C 0.64307 0.32065 0.50764 0.0
C96 C 0.69204 0.28565 0.49634 0.0
C97 C 0.63413 0.29518 0.48879 0.0
C98 C 0.73156 0.44507 0.58648 0.0
C99 C 0.77546 0.5041 0.61025 0.0
N100 N 0.77533 0.53075 0.59463 0.0
C101 C 0.73165 0.47307 0.57076 0.0
C102 C 0.75344 0.46071 0.60647 0.0
C103 C 0.75407 0.51624 0.57514 0.0
C104 C 0.60301 0.40057 0.56685 0.0
N105 N 0.63089 0.39817 0.55297 0.0
C106 C 0.61894 0.43713 0.52504 0.0
C107 C 0.63904 0.41572 0.53237 0.0
C108 C 0.58999 0.44026 0.53901 0.0
C109 C 0.582 0.42149 0.56015 0.0
H110 H 0.59726 0.38635 0.58317 0.0
H111 H 0.66146 0.41336 0.5217 0.0
C112 C 0.80623 0.37908 0.54963 0.0
N113 N 0.78576 0.40092 0.55253 0.0
C114 C 0.8476 0.39936 0.54194 0.0
C115 C 0.84594 0.46412 0.53987 0.0
C116 C 0.8046 0.44256 0.54758 0.0
C117 C 0.86812 0.44255 0.53702 0.0
H118 H 0.79038 0.34579 0.55324 0.0
H119 H 0.7876 0.45914 0.54949 0.0
C120 C 0.59271 0.28359 0.58572 0.0
N121 N 0.52083 0.20659 0.59152 0.0
C122 C 0.59374 0.25267 0.59873 0.0
C123 C 0.55511 0.2756 0.57586 0.0
C124 C 0.55707 0.21385 0.60139 0.0
C125 C 0.51909 0.2364 0.57895 0.0
C126 C 0.74713 0.32752 0.59476 0.0
C127 C 0.75414 0.29454 0.60009 0.0
C128 C 0.77458 0.36795 0.60282 0.0
C129 C 0.78845 0.30259 0.61339 0.0
C130 C 0.80855 0.37476 0.61605 0.0
N131 N 0.81473 0.34221 0.62103 0.0
C132 C 0.65287 0.22638 0.55594 0.0
C133 C 0.59907 0.23557 0.54033 0.0
C134 C 0.63315 0.18475 0.54847 0.0
N135 N 0.63556 0.25077 0.55191 0.0
C136 C 0.5783 0.19414 0.53252 0.0
C137 C 0.59523 0.16802 0.53663 0.0
H138 H 0.68208 0.2393 0.56496 0.0
H139 H 0.58595 0.25558 0.53723 0.0
C140 C 0.67591 0.37514 0.63954 0.0
N141 N 0.68274 0.34651 0.62881 0.0
C142 C 0.67513 0.37611 0.66279 0.0
C143 C 0.68777 0.31764 0.66349 0.0
C144 C 0.68804 0.31765 0.64025 0.0
C145 C 0.68142 0.34725 0.67507 0.0
H146 H 0.67126 0.39739 0.63 0.0
H147 H 0.69231 0.29447 0.63135 0.0
O148 O 0.68604 0.35261 0.53976 0.0
O149 O 0.70909 0.40258 0.58265 0.0
O150 O 0.62839 0.32151 0.58264 0.0
O151 O 0.71331 0.31985 0.5819 0.0
H152 H 0.72845 0.31657 0.52557 0.0
H153 H 0.62337 0.33369 0.51193 0.0
H154 H 0.71081 0.27171 0.49179 0.0
H155 H 0.60766 0.28868 0.47834 0.0
H156 H 0.79259 0.51659 0.62562 0.0
H157 H 0.71518 0.46166 0.55516 0.0
H158 H 0.7534 0.43963 0.619 0.0
H159 H 0.7546 0.53823 0.56304 0.0
H160 H 0.62567 0.45068 0.50852 0.0
H161 H 0.56023 0.42349 0.57153 0.0
H162 H 0.86312 0.38123 0.5396 0.0
H163 H 0.8605 0.49746 0.53644 0.0
H164 H 0.62269 0.25842 0.60641 0.0
H165 H 0.55388 0.29931 0.56576 0.0
H166 H 0.55744 0.18948 0.61126 0.0
H167 H 0.48979 0.22964 0.57132 0.0
H168 H 0.73317 0.26295 0.59414 0.0
H169 H 0.77003 0.39388 0.59874 0.0
H170 H 0.79416 0.27733 0.61766 0.0
H171 H 0.83005 0.40596 0.62232 0.0
H172 H 0.64771 0.16601 0.55172 0.0
H173 H 0.54895 0.18251 0.52366 0.0
H174 H 0.67032 0.39958 0.67105 0.0
H175 H 0.69194 0.29432 0.67229 0.0
Li176 Li 0.37483 0.72642 0.45744 0.0
Li177 Li 0.34951 0.68026 0.42206 0.0
Li178 Li 0.30766 0.66063 0.45655 0.0
Li179 Li 0.3707 0.65823 0.45539 0.0
C180 C 0.29126 0.7162 0.43995 0.0
N181 N 0.21981 0.72176 0.44553 0.0
C182 C 0.25774 0.69568 0.42512 0.0
C183 C 0.28859 0.73973 0.45754 0.0
C184 C 0.22183 0.69881 0.42826 0.0
C185 C 0.25217 0.74213 0.46008 0.0
C186 C 0.44272 0.70881 0.43706 0.0
C187 C 0.48802 0.68486 0.42233 0.0
N188 N 0.51581 0.70543 0.43905 0.0
C189 C 0.47179 0.72992 0.45402 0.0
C190 C 0.45089 0.68624 0.42101 0.0
C191 C 0.50854 0.72776 0.45476 0.0
C192 C 0.42247 0.79166 0.48833 0.0
N193 N 0.40431 0.78276 0.46787 0.0
C194 C 0.42687 0.85528 0.46175 0.0
C195 C 0.40618 0.81345 0.45455 0.0
C196 C 0.44588 0.86561 0.48286 0.0
C197 C 0.44358 0.83311 0.49619 0.0
H198 H 0.42039 0.76651 0.49856 0.0
H199 H 0.39143 0.80534 0.43834 0.0
C200 C 0.31214 0.6559 0.37952 0.0
N201 N 0.34849 0.68146 0.39048 0.0
C202 C 0.31108 0.65555 0.35627 0.0
C203 C 0.38484 0.70804 0.35607 0.0
C204 C 0.38445 0.70739 0.37932 0.0
C205 C 0.34783 0.68179 0.3442 0.0
H206 H 0.28406 0.63548 0.38887 0.0
H207 H 0.41293 0.72731 0.3885 0.0
C208 C 0.33692 0.6568 0.49839 0.0
N209 N 0.30626 0.60686 0.5358 0.0
C210 C 0.31805 0.61311 0.49655 0.0
C211 C 0.34021 0.67513 0.51925 0.0
C212 C 0.30275 0.58839 0.51565 0.0
C213 C 0.3245 0.64934 0.53798 0.0
C214 C 0.31143 0.58736 0.42852 0.0
C215 C 0.28244 0.55018 0.43917 0.0
C216 C 0.33068 0.58522 0.40886 0.0
C217 C 0.27381 0.51151 0.43022 0.0
C218 C 0.32118 0.54593 0.40043 0.0
N219 N 0.29321 0.5102 0.4112 0.0
C220 C 0.22091 0.60202 0.4549 0.0
C221 C 0.24193 0.64718 0.48634 0.0
C222 C 0.17923 0.5815 0.46207 0.0
N223 N 0.25122 0.63398 0.46711 0.0
C224 C 0.20066 0.62757 0.49413 0.0
C225 C 0.16862 0.59411 0.48199 0.0
H226 H 0.22915 0.59248 0.43955 0.0
H227 H 0.26656 0.67313 0.49555 0.0
C228 C 0.41924 0.64209 0.48613 0.0
N229 N 0.39951 0.6298 0.46608 0.0
C230 C 0.44047 0.62276 0.49486 0.0
C231 C 0.42164 0.57905 0.46199 0.0
C232 C 0.401 0.59935 0.45387 0.0
C233 C 0.44151 0.59047 0.48282 0.0
H234 H 0.4186 0.66707 0.49535 0.0
H235 H 0.38684 0.59108 0.43766 0.0
O236 O 0.32607 0.71235 0.43763 0.0
O237 O 0.40596 0.7094 0.4365 0.0
O238 O 0.3517 0.68166 0.47989 0.0
O239 O 0.31944 0.62547 0.43676 0.0
H240 H 0.25926 0.67714 0.41151 0.0
H241 H 0.31415 0.75548 0.46927 0.0
H242 H 0.19552 0.68288 0.417 0.0
H243 H 0.24954 0.76002 0.47369 0.0
H244 H 0.49466 0.6673 0.41012 0.0
H245 H 0.46575 0.74733 0.46663 0.0
H246 H 0.42858 0.66959 0.40784 0.0
H247 H 0.53121 0.74369 0.46788 0.0
H248 H 0.42831 0.87931 0.45079 0.0
H249 H 0.45735 0.83952 0.51266 0.0
H250 H 0.28173 0.63518 0.34786 0.0
H251 H 0.41402 0.72834 0.34751 0.0
H252 H 0.31543 0.59851 0.48057 0.0
H253 H 0.35458 0.70893 0.52093 0.0
H254 H 0.28811 0.55453 0.51446 0.0
H255 H 0.32678 0.66308 0.55423 0.0
H256 H 0.26652 0.55107 0.45413 0.0
H257 H 0.35332 0.61353 0.4004 0.0
H258 H 0.25155 0.48252 0.43834 0.0
H259 H 0.33613 0.54387 0.38534 0.0
H260 H 0.15571 0.55563 0.45227 0.0
H261 H 0.19387 0.63886 0.50936 0.0
H262 H 0.45538 0.63259 0.511 0.0
H263 H 0.42256 0.55506 0.45189 0.0
Li264 Li 0.65928 0.30341 0.95534 0.0
Li265 Li 0.66156 0.36923 0.95523 0.0
Li266 Li 0.68289 0.34915 0.92185 0.0
Li267 Li 0.72752 0.37106 0.95655 0.0
C268 C 0.5994 0.28714 0.9227 0.0
N269 N 0.54538 0.22017 0.89611 0.0
C270 C 0.55815 0.27811 0.91949 0.0
C271 C 0.61318 0.26211 0.91235 0.0
C272 C 0.53131 0.24411 0.906 0.0
C273 C 0.58541 0.22841 0.89897 0.0
C274 C 0.65585 0.33328 0.99708 0.0
C275 C 0.64466 0.32449 0.03672 0.0
N276 N 0.60252 0.3051 0.03332 0.0
C277 C 0.61243 0.31331 0.99397 0.0
C278 C 0.67214 0.33896 0.0186 0.0
C279 C 0.586 0.29926 0.01251 0.0
C280 C 0.65607 0.2325 0.97536 0.0
N281 N 0.63196 0.24685 0.96618 0.0
C282 C 0.56973 0.18115 0.97336 0.0
C283 C 0.58949 0.22228 0.9653 0.0
C284 C 0.59374 0.16519 0.98286 0.0
C285 C 0.63757 0.19162 0.98384 0.0
H286 H 0.68974 0.25297 0.9762 0.0
H287 H 0.57075 0.23457 0.95848 0.0
C288 C 0.60069 0.39455 0.95393 0.0
N289 N 0.63314 0.39725 0.96598 0.0
C290 C 0.57932 0.41475 0.96131 0.0
C291 C 0.62537 0.44035 0.99325 0.0
C292 C 0.64561 0.41938 0.98535 0.0
C293 C 0.59169 0.43813 0.98119 0.0
H294 H 0.59161 0.37687 0.93853 0.0
H295 H 0.67154 0.42099 0.99459 0.0
C296 C 0.7367 0.30892 0.92894 0.0
N297 N 0.79164 0.28497 0.91243 0.0
C298 C 0.77776 0.33936 0.92335 0.0
C299 C 0.72361 0.2663 0.92616 0.0
C300 C 0.80505 0.32662 0.91502 0.0
C301 C 0.75184 0.25483 0.91777 0.0
C302 C 0.7103 0.44065 0.93613 0.0
C303 C 0.68962 0.44753 0.9186 0.0
C304 C 0.7271 0.46994 0.9535 0.0
C305 C 0.68585 0.4835 0.91879 0.0
C306 C 0.72267 0.50552 0.95307 0.0
N307 N 0.70228 0.5115 0.93588 0.0
C308 C 0.65176 0.35111 0.87915 0.0
C309 C 0.71427 0.34779 0.87841 0.0
C310 C 0.65037 0.35092 0.85591 0.0
N311 N 0.68335 0.34947 0.88991 0.0
C312 C 0.71399 0.34728 0.85516 0.0
C313 C 0.68172 0.34883 0.8436 0.0
H314 H 0.62752 0.35249 0.88865 0.0
H315 H 0.73929 0.34697 0.88718 0.0
C316 C 0.79653 0.37363 0.97855 0.0
N317 N 0.78356 0.39716 0.9674 0.0
C318 C 0.83789 0.39189 0.98616 0.0
C319 C 0.85141 0.45837 0.97098 0.0
C320 C 0.81007 0.43867 0.96336 0.0
C321 C 0.86607 0.43497 0.98249 0.0
H322 H 0.77485 0.34051 0.98127 0.0
H323 H 0.79921 0.4565 0.9541 0.0
O324 O 0.62585 0.32043 0.93589 0.0
O325 O 0.68251 0.34752 0.97923 0.0
O326 O 0.70964 0.32064 0.93749 0.0
O327 O 0.71331 0.40503 0.93651 0.0
H328 H 0.54697 0.29716 0.9274 0.0
H329 H 0.64493 0.26858 0.91453 0.0
H330 H 0.49929 0.23675 0.9034 0.0
H331 H 0.59568 0.20882 0.89087 0.0
H332 H 0.65683 0.32869 0.05348 0.0
H333 H 0.59922 0.30881 0.97746 0.0
H334 H 0.7057 0.35444 0.02126 0.0
H335 H 0.55235 0.28375 1.01036 0.0
H336 H 0.53596 0.16202 0.97195 0.0
H337 H 0.65739 0.18115 0.99138 0.0
H338 H 0.5538 0.41261 0.9514 0.0
H339 H 0.63562 0.45768 1.00876 0.0
H340 H 0.78831 0.37251 0.92518 0.0
H341 H 0.69195 0.2423 0.9304 0.0
H342 H 0.83687 0.34984 0.91058 0.0
H343 H 0.74211 0.22196 0.91551 0.0
H344 H 0.67636 0.42519 0.90507 0.0
H345 H 0.74254 0.46478 0.96742 0.0
H346 H 0.66976 0.48911 0.90537 0.0
H347 H 0.73518 0.52824 0.9665 0.0
H348 H 0.62471 0.3518 0.84767 0.0
H349 H 0.73912 0.34626 0.84634 0.0
H350 H 0.84771 0.37223 0.99452 0.0
H351 H 0.87146 0.49171 0.968 0.0
H352 H 0.28297 0.63486 0.20342 0.0
H353 H 0.41592 0.72465 0.20396 0.0
H354 H 0.28203 0.63607 0.24401 0.0
H355 H 0.41524 0.72481 0.24456 0.0
H356 H 0.38811 0.74903 0.31599 0.0
H357 H 0.38856 0.74843 0.27541 0.0
H358 H 0.30754 0.61342 0.27567 0.0
H359 H 0.30728 0.61392 0.31624 0.0
C360 C 0.31198 0.65493 0.2122 0.0
C361 C 0.34951 0.6797 0.20043 0.0
C362 C 0.31153 0.65527 0.23547 0.0
C363 C 0.34857 0.68051 0.24754 0.0
C364 C 0.38608 0.70534 0.23577 0.0
C365 C 0.38656 0.70488 0.2125 0.0
C366 C 0.37068 0.71916 0.30741 0.0
C367 C 0.34767 0.68152 0.31942 0.0
C368 C 0.37093 0.71883 0.28414 0.0
C369 C 0.34811 0.68088 0.27229 0.0
C370 C 0.32496 0.64327 0.28428 0.0
C371 C 0.32478 0.64357 0.30755 0.0
H372 H 0.73545 0.3399 0.70326 0.0
H373 H 0.62732 0.35621 0.70278 0.0
H374 H 0.73535 0.34057 0.74381 0.0
H375 H 0.62669 0.3562 0.74339 0.0
H376 H 0.66458 0.39715 0.81579 0.0
H377 H 0.66459 0.39723 0.77518 0.0
H378 H 0.69635 0.29888 0.77496 0.0
H379 H 0.69697 0.29937 0.81551 0.0
C380 C 0.71141 0.34323 0.71184 0.0
C381 C 0.68136 0.34793 0.69981 0.0
C382 C 0.71127 0.34354 0.7351 0.0
C383 C 0.68092 0.34829 0.74693 0.0
C384 C 0.65092 0.35311 0.73486 0.0
C385 C 0.65121 0.35304 0.71158 0.0
C386 C 0.67127 0.37536 0.80704 0.0
C387 C 0.6809 0.34834 0.81886 0.0
C388 C 0.67122 0.37534 0.78375 0.0
C389 C 0.68057 0.34813 0.77174 0.0
C390 C 0.6898 0.32083 0.78362 0.0
C391 C 0.69008 0.32103 0.80688 0.0
H392 H 0.42027 0.53349 1.0022 0.0
H393 H 0.51235 0.59099 0.05457 0.0
H394 H 0.45698 0.49858 0.98816 0.0
H395 H 0.54766 0.55416 0.0413 0.0
H396 H 0.62633 0.51795 0.99793 0.0
H397 H 0.59015 0.55397 0.01137 0.0
H398 H 0.47078 0.44334 0.99672 0.0
H399 H 0.50715 0.40777 0.98287 0.0
C400 C 0.44835 0.53874 0.01073 0.0
C401 C 0.46335 0.56523 0.0295 0.0
C402 C 0.46911 0.51821 1.00285 0.0
C403 C 0.50531 0.52344 0.01359 0.0
C404 C 0.5202 0.54977 0.03242 0.0
C405 C 0.49956 0.57047 0.04024 0.0
C406 C 0.59235 0.5013 0.99769 0.0
C407 C 0.56959 0.46003 0.98934 0.0
C408 C 0.57157 0.52189 1.00545 0.0
C409 C 0.52747 0.50159 1.00519 0.0
C410 C 0.50475 0.46024 0.99684 0.0
C411 C 0.52557 0.43977 0.98894 0.0
H412 H 0.09673 0.56618 0.4575 0.0
H413 H 0.14051 0.57267 0.52485 0.0
H414 H 0.02442 0.529 0.47067 0.0
H415 H 0.06829 0.53716 0.53815 0.0
H416 H 0.93345 0.43272 0.55094 0.0
H417 H 1.00551 0.46879 0.53739 0.0
H418 H 0.97534 0.54048 0.49185 0.0
H419 H 0.90284 0.50306 0.50468 0.0
C420 C 0.09095 0.55967 0.47512 0.0
C421 C 0.12449 0.57235 0.4901 0.0
C422 C 0.04948 0.53879 0.48271 0.0
C423 C 0.04048 0.53008 0.50548 0.0
C424 C 0.07403 0.54291 0.52047 0.0
C425 C 0.1155 0.56376 0.51288 0.0
C426 C 0.94205 0.45583 0.53786 0.0
C427 C 0.91226 0.46491 0.5289 0.0
C428 C 0.98353 0.47691 0.53028 0.0
C429 C 0.9963 0.50764 0.51356 0.0
C430 C 0.96651 0.5167 0.50458 0.0
C431 C 0.92503 0.4956 0.51215 0.0
H432 H 0.5181 0.12185 1.00448 0.0
H433 H 0.62235 0.10902 0.98151 0.0
H434 H 0.48294 0.04973 0.01755 0.0
H435 H 0.58846 0.03771 0.99609 0.0
H436 H 0.49575 0.89646 1.00253 0.0
H437 H 0.53237 0.96899 0.98933 0.0
H438 H 0.48401 1.00569 0.0454 0.0
H439 H 0.44633 0.93291 0.05801 0.0
C440 C 0.53364 0.10373 1.00222 0.0
C441 C 0.57306 0.12142 0.99175 0.0
C442 C 0.51369 0.06241 1.01008 0.0
C443 C 0.53279 0.03767 1.00798 0.0
C444 C 0.57246 0.0555 0.99776 0.0
C445 C 0.59224 0.09675 0.98968 0.0
C446 C 0.49321 0.92017 0.01205 0.0
C447 C 0.46804 0.90903 0.03123 0.0
C448 C 0.51432 0.96181 1.00456 0.0
C449 C 0.51116 0.99341 0.01622 0.0
C450 C 0.48652 0.9822 0.03567 0.0
C451 C 0.46503 0.9405 0.04299 0.0
H452 H 0.62365 0.51524 0.51684 0.0
H453 H 0.50722 0.41657 0.54424 0.0
H454 H 0.58767 0.55161 0.50372 0.0
H455 H 0.47147 0.45351 0.53162 0.0
H456 H 0.41424 0.50625 0.48216 0.0
H457 H 0.45029 0.47056 0.49611 0.0
H458 H 0.55335 0.58972 0.51829 0.0
H459 H 0.5177 0.6256 0.50383 0.0
C460 C 0.59037 0.50131 0.52005 0.0
C461 C 0.56827 0.46293 0.53152 0.0
C462 C 0.56985 0.52238 0.51275 0.0
C463 C 0.52671 0.50545 0.51663 0.0
C464 C 0.50465 0.46718 0.52819 0.0
C465 C 0.52521 0.44623 0.53561 0.0
C466 C 0.44471 0.52486 0.4899 0.0
C467 C 0.46317 0.56877 0.49183 0.0
C468 C 0.46516 0.50436 0.4981 0.0
C469 C 0.50467 0.52729 0.50833 0.0
C470 C 0.5231 0.5712 0.51033 0.0
C471 C 0.50251 0.5917 0.50224 0.0
H472 H 0.13948 0.56685 0.99515 0.0
H473 H 0.09448 0.54812 0.06282 0.0
H474 H 0.06747 0.52878 0.98158 0.0
H475 H 0.02226 0.51192 0.04942 0.0
H476 H 0.89645 0.41785 0.02048 0.0
H477 H 0.96859 0.45096 0.03326 0.0
H478 H 1.0081 0.53421 0.97647 0.0
H479 H 0.93674 0.49864 0.96268 0.0
C480 C 0.11401 0.55485 1.00709 0.0
C481 C 0.12244 0.56039 0.03 0.0
C482 C 0.07267 0.53323 0.99935 0.0
C483 C 0.03868 0.5173 0.01434 0.0
C484 C 0.04737 0.52293 0.03733 0.0
C485 C 0.08877 0.5439 0.04506 0.0
C486 C 0.92057 0.44265 0.01045 0.0
C487 C 0.91039 0.45542 0.99049 0.0
C488 C 0.96205 0.46223 0.01802 0.0
C489 C 0.99451 0.49557 1.00603 0.0
C490 C 0.98429 0.5083 0.98607 0.0
C491 C 0.94297 0.4883 0.97833 0.0
H492 H 0.58499 0.09844 0.55877 0.0
H493 H 0.55603 0.137 0.49662 0.0
H494 H 0.54907 0.02563 0.5459 0.0
H495 H 0.52013 0.06417 0.48374 0.0
H496 H 0.42139 0.92426 0.47809 0.0
H497 H 0.4574 0.997 0.49103 0.0
H498 H 0.556 0.98019 0.51883 0.0
H499 H 0.51995 0.90739 0.50589 0.0
C500 C 0.5713 0.09145 0.54227 0.0
C501 C 0.57342 0.1236 0.52873 0.0
C502 C 0.5507 0.04967 0.53489 0.0
C503 C 0.53169 0.039 0.51378 0.0
C504 C 0.53384 0.07117 0.50023 0.0
C505 C 0.55444 0.11294 0.50761 0.0
C506 C 0.45094 0.93617 0.48679 0.0
C507 C 0.46779 0.90995 0.49091 0.0
C508 C 0.4716 0.9779 0.49422 0.0
C509 C 0.50965 0.99451 0.50595 0.0
C510 C 0.52645 0.96826 0.51013 0.0
C511 C 0.50577 0.9265 0.50271 0.0
loop_
_geom_bond_atom_site_label_1
_geom_bond_atom_site_label_2
_geom_bond_distance
_geom_bond_site_symmetry_2
_ccdc_geom_bond_type
Li0 N17 1.990 . S
Li0 O60 1.956 . S
Li0 O61 1.970 . S
Li0 O62 1.961 . S
Li1 N25 1.990 . S
Li1 O60 1.970 . S
Li1 O61 1.956 . S
Li1 O63 1.961 . S
Li2 N47 1.990 . S
Li2 O60 1.961 . S
Li2 O62 1.956 . S
Li2 O63 1.970 . S
Li3 N53 1.990 . S
Li3 O61 1.961 . S
Li3 O62 1.970 . S
Li3 O63 1.956 . S
C4 C6 1.348 . S
C4 C7 1.356 . S
C4 O60 1.325 . S
N5 C8 1.314 . S
N5 C9 1.279 . S
C6 C4 1.348 . S
C6 C8 1.353 . S
C6 H64 0.929 . S
C7 C4 1.356 . S
C7 C9 1.358 . S
C7 H65 0.930 . S
C8 N5 1.314 . S
C8 C6 1.353 . S
C8 H66 0.930 . S
C9 N5 1.279 . S
C9 C7 1.358 . S
C9 H67 0.930 . S
C10 C13 1.348 . S
C10 C14 1.356 . S
C10 O61 1.325 . S
C11 N12 1.279 . S
C11 C14 1.358 . S
C11 H68 0.930 . S
N12 C11 1.279 . S
N12 C15 1.314 . S
C13 C10 1.348 . S
C13 C15 1.353 . S
C13 H69 0.929 . S
C14 C10 1.356 . S
C14 C11 1.358 . S
C14 H70 0.930 . S
C15 N12 1.314 . S
C15 C13 1.353 . S
C15 H71 0.930 . S
C16 N17 1.314 . S
C16 C21 1.353 . S
C16 H22 0.930 . S
N17 Li0 1.990 . S
N17 C16 1.314 . S
N17 C19 1.279 . S
C18 C19 1.358 . S
C18 C20 1.356 . S
C18 H72 0.930 . S
C19 N17 1.279 . S
C19 C18 1.358 . S
C19 H23 0.930 . S
C20 C18 1.356 . S
C20 C21 1.348 . S
C21 C16 1.353 . S
C21 C20 1.348 . S
C21 H73 0.929 . S
H22 C16 0.930 . S
H23 C19 0.930 . S
C24 N25 1.314 . S
C24 C26 1.353 . S
C24 H30 0.930 . S
N25 Li1 1.990 . S
N25 C24 1.314 . S
N25 C28 1.279 . S
C26 C24 1.353 . S
C26 C29 1.348 . S
C26 H74 0.929 . S
C27 C28 1.358 . S
C27 C29 1.356 . S
C27 H75 0.930 . S
C28 N25 1.279 . S
C28 C27 1.358 . S
C28 H31 0.930 . S
C29 C26 1.348 . S
C29 C27 1.356 . S
H30 C24 0.930 . S
H31 C28 0.930 . S
C32 C34 1.348 . S
C32 C35 1.356 . S
C32 O62 1.325 . S
N33 C36 1.314 . S
N33 C37 1.279 . S
C34 C32 1.348 . S
C34 C36 1.353 . S
C34 H76 0.929 . S
C35 C32 1.356 . S
C35 C37 1.358 . S
C35 H77 0.930 . S
C36 N33 1.314 . S
C36 C34 1.353 . S
C36 H78 0.930 . S
C37 N33 1.279 . S
C37 C35 1.358 . S
C37 H79 0.930 . S
C38 C39 1.347 . S
C38 C40 1.371 . S
C38 O63 1.325 . S
C39 C38 1.347 . S
C39 C41 1.355 1_554 S
C39 H80 0.929 . S
C40 C38 1.371 . S
C40 C42 1.330 1_554 S
C40 H81 0.944 . S
C41 C39 1.355 1_556 S
C41 N43 1.314 . S
C41 H82 0.930 . S
C42 C40 1.330 1_556 S
C42 N43 1.279 . S
C42 H83 0.930 . S
N43 C41 1.314 . S
N43 C42 1.279 . S
C44 C46 1.353 . S
C44 N47 1.314 . S
C44 H50 0.930 . S
C45 N47 1.279 . S
C45 C48 1.358 . S
C45 H51 0.930 . S
C46 C44 1.353 . S
C46 C49 1.348 . S
C46 H84 0.929 . S
N47 Li2 1.990 . S
N47 C44 1.314 . S
N47 C45 1.279 . S
C48 C45 1.358 . S
C48 C49 1.356 . S
C48 H85 0.930 . S
C49 C46 1.348 . S
C49 C48 1.356 . S
H50 C44 0.930 . S
H51 C45 0.930 . S
C52 N53 1.314 . S
C52 C54 1.353 . S
C52 H58 0.930 . S
N53 Li3 1.990 . S
N53 C52 1.314 . S
N53 C56 1.279 . S
C54 C52 1.353 . S
C54 C57 1.348 . S
C54 H86 0.929 . S
C55 C56 1.358 . S
C55 C57 1.356 . S
C55 H87 0.900 1_554 S
C56 N53 1.279 . S
C56 C55 1.358 . S
C56 H59 0.930 . S
C57 C54 1.348 . S
C57 C55 1.356 . S
H58 C52 0.930 . S
H59 C56 0.930 . S
O60 Li0 1.956 . S
O60 Li1 1.970 . S
O60 Li2 1.961 . S
O60 C4 1.325 . S
O61 Li0 1.970 . S
O61 Li1 1.956 . S
O61 Li3 1.961 . S
O61 C10 1.325 . S
O62 Li0 1.961 . S
O62 Li2 1.956 . S
O62 Li3 1.970 . S
O62 C32 1.325 . S
O63 Li1 1.961 . S
O63 Li2 1.970 . S
O63 Li3 1.956 . S
O63 C38 1.325 . S
H64 C6 0.929 . S
H65 C7 0.930 . S
H66 C8 0.930 . S
H67 C9 0.930 . S
H68 C11 0.930 . S
H69 C13 0.929 . S
H70 C14 0.930 . S
H71 C15 0.930 . S
H72 C18 0.930 . S
H73 C21 0.929 . S
H74 C26 0.929 . S
H75 C27 0.930 . S
H76 C34 0.929 . S
H77 C35 0.930 . S
H78 C36 0.930 . S
H79 C37 0.930 . S
H80 C39 0.929 . S
H81 C40 0.944 . S
H82 C41 0.930 . S
H83 C42 0.930 . S
H84 C46 0.929 . S
H85 C48 0.930 . S
H86 C54 0.929 . S
H87 C55 0.900 1_556 S
Li88 N105 1.990 . S
Li88 O148 1.956 . S
Li88 O149 1.970 . S
Li88 O150 1.961 . S
Li89 N113 1.990 . S
Li89 O148 1.970 . S
Li89 O149 1.956 . S
Li89 O151 1.961 . S
Li90 N135 1.990 . S
Li90 O148 1.961 . S
Li90 O150 1.956 . S
Li90 O151 1.970 . S
Li91 N141 1.990 . S
Li91 O149 1.961 . S
Li91 O150 1.970 . S
Li91 O151 1.956 . S
C92 C94 1.348 . S
C92 C95 1.356 . S
C92 O148 1.325 . S
N93 C96 1.314 . S
N93 C97 1.279 . S
C94 C92 1.348 . S
C94 C96 1.353 . S
C94 H152 0.929 . S
C95 C92 1.356 . S
C95 C97 1.358 . S
C95 H153 0.930 . S
C96 N93 1.314 . S
C96 C94 1.353 . S
C96 H154 0.930 . S
C97 N93 1.279 . S
C97 C95 1.358 . S
C97 H155 0.930 . S
C98 C101 1.348 . S
C98 C102 1.356 . S
C98 O149 1.325 . S
C99 N100 1.279 . S
C99 C102 1.358 . S
C99 H156 0.930 . S
N100 C99 1.279 . S
N100 C103 1.314 . S
C101 C98 1.348 . S
C101 C103 1.353 . S
C101 H157 0.929 . S
C102 C98 1.356 . S
C102 C99 1.358 . S
C102 H158 0.930 . S
C103 N100 1.314 . S
C103 C101 1.353 . S
C103 H159 0.930 . S
C104 N105 1.314 . S
C104 C109 1.353 . S
C104 H110 0.930 . S
N105 Li88 1.990 . S
N105 C104 1.314 . S
N105 C107 1.279 . S
C106 C107 1.358 . S
C106 C108 1.356 . S
C106 H160 0.930 . S
C107 N105 1.279 . S
C107 C106 1.358 . S
C107 H111 0.930 . S
C108 C106 1.356 . S
C108 C109 1.348 . S
C109 C104 1.353 . S
C109 C108 1.348 . S
C109 H161 0.929 . S
H110 C104 0.930 . S
H111 C107 0.930 . S
C112 N113 1.314 . S
C112 C114 1.353 . S
C112 H118 0.930 . S
N113 Li89 1.990 . S
N113 C112 1.314 . S
N113 C116 1.279 . S
C114 C112 1.353 . S
C114 C117 1.348 . S
C114 H162 0.929 . S
C115 C116 1.358 . S
C115 C117 1.356 . S
C115 H163 0.930 . S
C116 N113 1.279 . S
C116 C115 1.358 . S
C116 H119 0.930 . S
C117 C114 1.348 . S
C117 C115 1.356 . S
H118 C112 0.930 . S
H119 C116 0.930 . S
C120 C122 1.348 . S
C120 C123 1.356 . S
C120 O150 1.325 . S
N121 C124 1.314 . S
N121 C125 1.279 . S
C122 C120 1.348 . S
C122 C124 1.353 . S
C122 H164 0.929 . S
C123 C120 1.356 . S
C123 C125 1.358 . S
C123 H165 0.930 . S
C124 N121 1.314 . S
C124 C122 1.353 . S
C124 H166 0.930 . S
C125 N121 1.279 . S
C125 C123 1.358 . S
C125 H167 0.930 . S
C126 C127 1.348 . S
C126 C128 1.356 . S
C126 O151 1.325 . S
C127 C126 1.348 . S
C127 C129 1.353 . S
C127 H168 0.929 . S
C128 C126 1.356 . S
C128 C130 1.358 . S
C128 H169 0.930 . S
C129 C127 1.353 . S
C129 N131 1.314 . S
C129 H170 0.930 . S
C130 C128 1.358 . S
C130 N131 1.279 . S
C130 H171 0.930 . S
N131 C129 1.314 . S
N131 C130 1.279 . S
C132 C134 1.353 . S
C132 N135 1.314 . S
C132 H138 0.930 . S
C133 N135 1.279 . S
C133 C136 1.358 . S
C133 H139 0.930 . S
C134 C132 1.353 . S
C134 C137 1.348 . S
C134 H172 0.929 . S
N135 Li90 1.990 . S
N135 C132 1.314 . S
N135 C133 1.279 . S
C136 C133 1.358 . S
C136 C137 1.356 . S
C136 H173 0.930 . S
C137 C134 1.348 . S
C137 C136 1.356 . S
H138 C132 0.930 . S
H139 C133 0.930 . S
C140 N141 1.314 . S
C140 C142 1.353 . S
C140 H146 0.930 . S
N141 Li91 1.990 . S
N141 C140 1.314 . S
N141 C144 1.279 . S
C142 C140 1.353 . S
C142 C145 1.348 . S
C142 H174 0.929 . S
C143 C144 1.358 . S
C143 C145 1.356 . S
C143 H175 0.930 . S
C144 N141 1.279 . S
C144 C143 1.358 . S
C144 H147 0.930 . S
C145 C142 1.348 . S
C145 C143 1.356 . S
H146 C140 0.930 . S
H147 C144 0.930 . S
O148 Li88 1.956 . S
O148 Li89 1.970 . S
O148 Li90 1.961 . S
O148 C92 1.325 . S
O149 Li88 1.970 . S
O149 Li89 1.956 . S
O149 Li91 1.961 . S
O149 C98 1.325 . S
O150 Li88 1.961 . S
O150 Li90 1.956 . S
O150 Li91 1.970 . S
O150 C120 1.325 . S
O151 Li89 1.961 . S
O151 Li90 1.970 . S
O151 Li91 1.956 . S
O151 C126 1.325 . S
H152 C94 0.929 . S
H153 C95 0.930 . S
H154 C96 0.930 . S
H155 C97 0.930 . S
H156 C99 0.930 . S
H157 C101 0.929 . S
H158 C102 0.930 . S
H159 C103 0.930 . S
H160 C106 0.930 . S
H161 C109 0.929 . S
H162 C114 0.929 . S
H163 C115 0.930 . S
H164 C122 0.929 . S
H165 C123 0.930 . S
H166 C124 0.930 . S
H167 C125 0.930 . S
H168 C127 0.929 . S
H169 C128 0.930 . S
H170 C129 0.930 . S
H171 C130 0.930 . S
H172 C134 0.929 . S
H173 C136 0.930 . S
H174 C142 0.929 . S
H175 C143 0.930 . S
Li176 N193 1.990 . S
Li176 O236 1.956 . S
Li176 O237 1.970 . S
Li176 O238 1.961 . S
Li177 N201 1.990 . S
Li177 O236 1.970 . S
Li177 O237 1.956 . S
Li177 O239 1.961 . S
Li178 N223 1.990 . S
Li178 O236 1.961 . S
Li178 O238 1.956 . S
Li178 O239 1.970 . S
Li179 N229 1.990 . S
Li179 O237 1.961 . S
Li179 O238 1.970 . S
Li179 O239 1.956 . S
C180 C182 1.348 . S
C180 C183 1.356 . S
C180 O236 1.325 . S
N181 C184 1.314 . S
N181 C185 1.279 . S
C182 C180 1.348 . S
C182 C184 1.353 . S
C182 H240 0.929 . S
C183 C180 1.356 . S
C183 C185 1.358 . S
C183 H241 0.930 . S
C184 N181 1.314 . S
C184 C182 1.353 . S
C184 H242 0.930 . S
C185 N181 1.279 . S
C185 C183 1.358 . S
C185 H243 0.930 . S
C186 C189 1.348 . S
C186 C190 1.356 . S
C186 O237 1.325 . S
C187 N188 1.279 . S
C187 C190 1.358 . S
C187 H244 0.930 . S
N188 C187 1.279 . S
N188 C191 1.314 . S
C189 C186 1.348 . S
C189 C191 1.353 . S
C189 H245 0.929 . S
C190 C186 1.356 . S
C190 C187 1.358 . S
C190 H246 0.930 . S
C191 N188 1.314 . S
C191 C189 1.353 . S
C191 H247 0.930 . S
C192 N193 1.314 . S
C192 C197 1.353 . S
C192 H198 0.930 . S
N193 Li176 1.990 . S
N193 C192 1.314 . S
N193 C195 1.279 . S
C194 C195 1.358 . S
C194 C196 1.356 . S
C194 H248 0.930 . S
C195 N193 1.279 . S
C195 C194 1.358 . S
C195 H199 0.930 . S
C196 C194 1.356 . S
C196 C197 1.348 . S
C197 C192 1.353 . S
C197 C196 1.348 . S
C197 H249 0.929 . S
H198 C192 0.930 . S
H199 C195 0.930 . S
C200 N201 1.314 . S
C200 C202 1.353 . S
C200 H206 0.930 . S
N201 Li177 1.990 . S
N201 C200 1.314 . S
N201 C204 1.279 . S
C202 C200 1.353 . S
C202 C205 1.348 . S
C202 H250 0.929 . S
C203 C204 1.358 . S
C203 C205 1.356 . S
C203 H251 0.930 . S
C204 N201 1.279 . S
C204 C203 1.358 . S
C204 H207 0.930 . S
C205 C202 1.348 . S
C205 C203 1.356 . S
H206 C200 0.930 . S
H207 C204 0.930 . S
C208 C210 1.348 . S
C208 C211 1.356 . S
C208 O238 1.325 . S
N209 C212 1.314 . S
N209 C213 1.279 . S
C210 C208 1.348 . S
C210 C212 1.353 . S
C210 H252 0.929 . S
C211 C208 1.356 . S
C211 C213 1.358 . S
C211 H253 0.930 . S
C212 N209 1.314 . S
C212 C210 1.353 . S
C212 H254 0.930 . S
C213 N209 1.279 . S
C213 C211 1.358 . S
C213 H255 0.930 . S
C214 C215 1.348 . S
C214 C216 1.356 . S
C214 O239 1.325 . S
C215 C214 1.348 . S
C215 C217 1.353 . S
C215 H256 0.929 . S
C216 C214 1.356 . S
C216 C218 1.358 . S
C216 H257 0.930 . S
C217 C215 1.353 . S
C217 N219 1.314 . S
C217 H258 0.930 . S
C218 C216 1.358 . S
C218 N219 1.279 . S
C218 H259 0.930 . S
N219 C217 1.314 . S
N219 C218 1.279 . S
C220 C222 1.353 . S
C220 N223 1.314 . S
C220 H226 0.930 . S
C221 N223 1.279 . S
C221 C224 1.358 . S
C221 H227 0.930 . S
C222 C220 1.353 . S
C222 C225 1.348 . S
C222 H260 0.929 . S
N223 Li178 1.990 . S
N223 C220 1.314 . S
N223 C221 1.279 . S
C224 C221 1.358 . S
C224 C225 1.356 . S
C224 H261 0.930 . S
C225 C222 1.348 . S
C225 C224 1.356 . S
H226 C220 0.930 . S
H227 C221 0.930 . S
C228 N229 1.314 . S
C228 C230 1.353 . S
C228 H234 0.930 . S
N229 Li179 1.990 . S
N229 C228 1.314 . S
N229 C232 1.279 . S
C230 C228 1.353 . S
C230 C233 1.348 . S
C230 H262 0.929 . S
C231 C232 1.358 . S
C231 C233 1.356 . S
C231 H263 0.930 . S
C232 N229 1.279 . S
C232 C231 1.358 . S
C232 H235 0.930 . S
C233 C230 1.348 . S
C233 C231 1.356 . S
H234 C228 0.930 . S
H235 C232 0.930 . S
O236 Li176 1.956 . S
O236 Li177 1.970 . S
O236 Li178 1.961 . S
O236 C180 1.325 . S
O237 Li176 1.970 . S
O237 Li177 1.956 . S
O237 Li179 1.961 . S
O237 C186 1.325 . S
O238 Li176 1.961 . S
O238 Li178 1.956 . S
O238 Li179 1.970 . S
O238 C208 1.325 . S
O239 Li177 1.961 . S
O239 Li178 1.970 . S
O239 Li179 1.956 . S
O239 C214 1.325 . S
H240 C182 0.929 . S
H241 C183 0.930 . S
H242 C184 0.930 . S
H243 C185 0.930 . S
H244 C187 0.930 . S
H245 C189 0.929 . S
H246 C190 0.930 . S
H247 C191 0.930 . S
H248 C194 0.930 . S
H249 C197 0.929 . S
H250 C202 0.929 . S
H251 C203 0.930 . S
H252 C210 0.929 . S
H253 C211 0.930 . S
H254 C212 0.930 . S
H255 C213 0.930 . S
H256 C215 0.929 . S
H257 C216 0.930 . S
H258 C217 0.930 . S
H259 C218 0.930 . S
H260 C222 0.929 . S
H261 C224 0.930 . S
H262 C230 0.929 . S
H263 C231 0.930 . S
Li264 N281 1.990 . S
Li264 O324 1.956 . S
Li264 O325 1.970 . S
Li264 O326 1.961 . S
Li265 N289 1.990 . S
Li265 O324 1.970 . S
Li265 O325 1.956 . S
Li265 O327 1.961 . S
Li266 N311 1.990 . S
Li266 O324 1.961 . S
Li266 O326 1.956 . S
Li266 O327 1.970 . S
Li267 N317 1.990 . S
Li267 O325 1.961 . S
Li267 O326 1.970 . S
Li267 O327 1.956 . S
C268 C270 1.348 . S
C268 C271 1.356 . S
C268 O324 1.325 . S
N269 C272 1.314 . S
N269 C273 1.279 . S
C270 C268 1.348 . S
C270 C272 1.353 . S
C270 H328 0.929 . S
C271 C268 1.356 . S
C271 C273 1.358 . S
C271 H329 0.930 . S
C272 N269 1.314 . S
C272 C270 1.353 . S
C272 H330 0.930 . S
C273 N269 1.279 . S
C273 C271 1.358 . S
C273 H331 0.930 . S
C274 C277 1.347 . S
C274 C278 1.371 . S
C274 O325 1.325 . S
C275 N276 1.279 . S
C275 C278 1.330 1_554 S
C275 H332 0.930 . S
N276 C275 1.279 . S
N276 C279 1.314 . S
C277 C274 1.347 . S
C277 C279 1.355 1_556 S
C277 H333 0.929 . S
C278 C274 1.371 . S
C278 C275 1.330 1_556 S
C278 H334 0.944 . S
C279 N276 1.314 . S
C279 C277 1.355 1_554 S
C279 H335 0.930 . S
C280 N281 1.314 . S
C280 C285 1.353 . S
C280 H286 0.930 . S
N281 Li264 1.990 . S
N281 C280 1.314 . S
N281 C283 1.279 . S
C282 C283 1.358 . S
C282 C284 1.356 . S
C282 H336 0.930 . S
C283 N281 1.279 . S
C283 C282 1.358 . S
C283 H287 0.930 . S
C284 C282 1.356 . S
C284 C285 1.348 . S
C285 C280 1.353 . S
C285 C284 1.348 . S
C285 H337 0.929 . S
H286 C280 0.930 . S
H287 C283 0.930 . S
C288 N289 1.314 . S
C288 C290 1.353 . S
C288 H294 0.930 . S
N289 Li265 1.990 . S
N289 C288 1.314 . S
N289 C292 1.279 . S
C290 C288 1.353 . S
C290 C293 1.348 . S
C290 H338 0.929 . S
C291 C292 1.358 . S
C291 C293 1.356 . S
C291 H339 0.900 1_556 S
C292 N289 1.279 . S
C292 C291 1.358 . S
C292 H295 0.930 . S
C293 C290 1.348 . S
C293 C291 1.356 . S
H294 C288 0.930 . S
H295 C292 0.930 . S
C296 C298 1.348 . S
C296 C299 1.356 . S
C296 O326 1.325 . S
N297 C300 1.314 . S
N297 C301 1.279 . S
C298 C296 1.348 . S
C298 C300 1.353 . S
C298 H340 0.929 . S
C299 C296 1.356 . S
C299 C301 1.358 . S
C299 H341 0.930 . S
C300 N297 1.314 . S
C300 C298 1.353 . S
C300 H342 0.930 . S
C301 N297 1.279 . S
C301 C299 1.358 . S
C301 H343 0.930 . S
C302 C303 1.348 . S
C302 C304 1.356 . S
C302 O327 1.325 . S
C303 C302 1.348 . S
C303 C305 1.353 . S
C303 H344 0.929 . S
C304 C302 1.356 . S
C304 C306 1.358 . S
C304 H345 0.930 . S
C305 C303 1.353 . S
C305 N307 1.314 . S
C305 H346 0.930 . S
C306 C304 1.358 . S
C306 N307 1.279 . S
C306 H347 0.930 . S
N307 C305 1.314 . S
N307 C306 1.279 . S
C308 C310 1.353 . S
C308 N311 1.314 . S
C308 H314 0.930 . S
C309 N311 1.279 . S
C309 C312 1.358 . S
C309 H315 0.930 . S
C310 C308 1.353 . S
C310 C313 1.348 . S
C310 H348 0.929 . S
N311 Li266 1.990 . S
N311 C308 1.314 . S
N311 C309 1.279 . S
C312 C309 1.358 . S
C312 C313 1.356 . S
C312 H349 0.930 . S
C313 C310 1.348 . S
C313 C312 1.356 . S
H314 C308 0.930 . S
H315 C309 0.930 . S
C316 N317 1.314 . S
C316 C318 1.353 . S
C316 H322 0.930 . S
N317 Li267 1.990 . S
N317 C316 1.314 . S
N317 C320 1.279 . S
C318 C316 1.353 . S
C318 C321 1.348 . S
C318 H350 0.929 . S
C319 C320 1.358 . S
C319 C321 1.356 . S
C319 H351 0.930 . S
C320 N317 1.279 . S
C320 C319 1.358 . S
C320 H323 0.930 . S
C321 C318 1.348 . S
C321 C319 1.356 . S
H322 C316 0.930 . S
H323 C320 0.930 . S
O324 Li264 1.956 . S
O324 Li265 1.970 . S
O324 Li266 1.961 . S
O324 C268 1.325 . S
O325 Li264 1.970 . S
O325 Li265 1.956 . S
O325 Li267 1.961 . S
O325 C274 1.325 . S
O326 Li264 1.961 . S
O326 Li266 1.956 . S
O326 Li267 1.970 . S
O326 C296 1.325 . S
O327 Li265 1.961 . S
O327 Li266 1.970 . S
O327 Li267 1.956 . S
O327 C302 1.325 . S
H328 C270 0.929 . S
H329 C271 0.930 . S
H330 C272 0.930 . S
H331 C273 0.930 . S
H332 C275 0.930 . S
H333 C277 0.929 . S
H334 C278 0.944 . S
H335 C279 0.930 . S
H336 C282 0.930 . S
H337 C285 0.929 . S
H338 C290 0.929 . S
H339 C291 0.900 1_554 S
H340 C298 0.929 . S
H341 C299 0.930 . S
H342 C300 0.930 . S
H343 C301 0.930 . S
H344 C303 0.929 . S
H345 C304 0.930 . S
H346 C305 0.930 . S
H347 C306 0.930 . S
H348 C310 0.929 . S
H349 C312 0.930 . S
H350 C318 0.929 . S
H351 C319 0.930 . S
H352 C360 0.950 . S
H353 C365 0.950 . S
H354 C362 0.950 . S
H355 C364 0.950 . S
H356 C366 0.950 . S
H357 C368 0.950 . S
H358 C370 0.950 . S
H359 C371 0.950 . S
C360 H352 0.950 . S
C360 C361 1.386 . S
C360 C362 1.391 . S
C361 C360 1.386 . S
C361 C365 1.393 . S
C362 H354 0.950 . S
C362 C360 1.391 . S
C362 C363 1.400 . S
C363 C362 1.400 . S
C363 C364 1.398 . S
C363 C369 1.491 . S
C364 H355 0.950 . S
C364 C363 1.398 . S
C364 C365 1.391 . S
C365 H353 0.950 . S
C365 C361 1.393 . S
C365 C364 1.391 . S
C366 H356 0.950 . S
C366 C367 1.386 . S
C366 C368 1.391 . S
C367 C366 1.386 . S
C367 C371 1.393 . S
C368 H357 0.950 . S
C368 C366 1.391 . S
C368 C369 1.400 . S
C369 C363 1.491 . S
C369 C368 1.400 . S
C369 C370 1.398 . S
C370 H358 0.950 . S
C370 C369 1.398 . S
C370 C371 1.391 . S
C371 H359 0.950 . S
C371 C367 1.393 . S
C371 C370 1.391 . S
H372 C380 0.950 . S
H373 C385 0.950 . S
H374 C382 0.950 . S
H375 C384 0.950 . S
H376 C386 0.950 . S
H377 C388 0.950 . S
H378 C390 0.950 . S
H379 C391 0.950 . S
C380 H372 0.950 . S
C380 C381 1.386 . S
C380 C382 1.391 . S
C381 C380 1.386 . S
C381 C385 1.393 . S
C382 H374 0.950 . S
C382 C380 1.391 . S
C382 C383 1.400 . S
C383 C382 1.400 . S
C383 C384 1.398 . S
C383 C389 1.491 . S
C384 H375 0.950 . S
C384 C383 1.398 . S
C384 C385 1.391 . S
C385 H373 0.950 . S
C385 C381 1.393 . S
C385 C384 1.391 . S
C386 H376 0.950 . S
C386 C387 1.386 . S
C386 C388 1.391 . S
C387 C386 1.386 . S
C387 C391 1.393 . S
C388 H377 0.950 . S
C388 C386 1.391 . S
C388 C389 1.400 . S
C389 C383 1.491 . S
C389 C388 1.400 . S
C389 C390 1.398 . S
C390 H378 0.950 . S
C390 C389 1.398 . S
C390 C391 1.391 . S
C391 H379 0.950 . S
C391 C387 1.393 . S
C391 C390 1.391 . S
H392 C400 0.950 . S
H393 C405 0.950 . S
H394 C402 0.950 . S
H395 C404 0.950 . S
H396 C406 0.950 . S
H397 C408 0.950 . S
H398 C410 0.950 . S
H399 C411 0.950 . S
C400 H392 0.950 . S
C400 C401 1.386 1_556 S
C400 C402 1.391 . S
C401 C400 1.386 1_554 S
C401 C405 1.393 . S
C402 H394 0.950 . S
C402 C400 1.391 . S
C402 C403 1.400 1_556 S
C403 C402 1.400 1_554 S
C403 C404 1.398 . S
C403 C409 1.491 1_554 S
C404 H395 0.950 . S
C404 C403 1.398 . S
C404 C405 1.391 . S
C405 H393 0.950 . S
C405 C401 1.393 . S
C405 C404 1.391 . S
C406 H396 0.950 . S
C406 C407 1.386 1_554 S
C406 C408 1.391 . S
C407 C406 1.386 1_556 S
C407 C411 1.393 . S
C408 H397 0.950 . S
C408 C406 1.391 . S
C408 C409 1.400 1_554 S
C409 C403 1.491 1_556 S
C409 C408 1.400 1_556 S
C409 C410 1.398 . S
C410 H398 0.950 . S
C410 C409 1.398 . S
C410 C411 1.391 . S
C411 H399 0.950 . S
C411 C407 1.393 . S
C411 C410 1.391 . S
H412 C420 0.950 . S
H413 C425 0.950 . S
H414 C422 0.950 . S
H415 C424 0.950 . S
H416 C426 0.950 . S
H417 C428 0.950 . S
H418 C430 0.950 . S
H419 C431 0.950 . S
C420 H412 0.950 . S
C420 C421 1.386 . S
C420 C422 1.391 . S
C421 C420 1.386 . S
C421 C425 1.393 . S
C422 H414 0.950 . S
C422 C420 1.391 . S
C422 C423 1.400 . S
C423 C422 1.400 . S
C423 C424 1.398 . S
C423 C429 1.491 1_455 S
C424 H415 0.950 . S
C424 C423 1.398 . S
C424 C425 1.391 . S
C425 H413 0.950 . S
C425 C421 1.393 . S
C425 C424 1.391 . S
C426 H416 0.950 . S
C426 C427 1.386 . S
C426 C428 1.391 . S
C427 C426 1.386 . S
C427 C431 1.393 . S
C428 H417 0.950 . S
C428 C426 1.391 . S
C428 C429 1.400 . S
C429 C423 1.491 1_655 S
C429 C428 1.400 . S
C429 C430 1.398 . S
C430 H418 0.950 . S
C430 C429 1.398 . S
C430 C431 1.391 . S
C431 H419 0.950 . S
C431 C427 1.393 . S
C431 C430 1.391 . S
H432 C440 0.950 . S
H433 C445 0.950 . S
H434 C442 0.950 . S
H435 C444 0.950 . S
H436 C446 0.950 . S
H437 C448 0.950 . S
H438 C450 0.950 . S
H439 C451 0.950 . S
C440 H432 0.950 . S
C440 C441 1.386 . S
C440 C442 1.391 1_556 S
C441 C440 1.386 . S
C441 C445 1.393 . S
C442 H434 0.950 . S
C442 C440 1.391 1_554 S
C442 C443 1.400 1_554 S
C443 C442 1.400 1_556 S
C443 C444 1.398 . S
C443 C449 1.491 1_546 S
C444 H435 0.950 . S
C444 C443 1.398 . S
C444 C445 1.391 . S
C445 H433 0.950 . S
C445 C441 1.393 . S
C445 C444 1.391 . S
C446 H436 0.950 . S
C446 C447 1.386 . S
C446 C448 1.391 1_554 S
C447 C446 1.386 . S
C447 C451 1.393 . S
C448 H437 0.950 . S
C448 C446 1.391 1_556 S
C448 C449 1.400 1_556 S
C449 C443 1.491 1_564 S
C449 C448 1.400 1_554 S
C449 C450 1.398 . S
C450 H438 0.950 . S
C450 C449 1.398 . S
C450 C451 1.391 . S
C451 H439 0.950 . S
C451 C447 1.393 . S
C451 C450 1.391 . S
H452 C460 0.950 . S
H453 C465 0.950 . S
H454 C462 0.950 . S
H455 C464 0.950 . S
H456 C466 0.950 . S
H457 C468 0.950 . S
H458 C470 0.950 . S
H459 C471 0.950 . S
C460 H452 0.950 . S
C460 C461 1.386 . S
C460 C462 1.391 . S
C461 C460 1.386 . S
C461 C465 1.393 . S
C462 H454 0.950 . S
C462 C460 1.391 . S
C462 C463 1.400 . S
C463 C462 1.400 . S
C463 C464 1.398 . S
C463 C469 1.491 . S
C464 H455 0.950 . S
C464 C463 1.398 . S
C464 C465 1.391 . S
C465 H453 0.950 . S
C465 C461 1.393 . S
C465 C464 1.391 . S
C466 H456 0.950 . S
C466 C467 1.386 . S
C466 C468 1.391 . S
C467 C466 1.386 . S
C467 C471 1.393 . S
C468 H457 0.950 . S
C468 C466 1.391 . S
C468 C469 1.400 . S
C469 C463 1.491 . S
C469 C468 1.400 . S
C469 C470 1.398 . S
C470 H458 0.950 . S
C470 C469 1.398 . S
C470 C471 1.391 . S
C471 H459 0.950 . S
C471 C467 1.393 . S
C471 C470 1.391 . S
H472 C480 0.950 . S
H473 C485 0.950 . S
H474 C482 0.950 . S
H475 C484 0.950 . S
H476 C486 0.950 . S
H477 C488 0.950 . S
H478 C490 0.950 . S
H479 C491 0.950 . S
C480 H472 0.950 . S
C480 C481 1.386 1_556 S
C480 C482 1.391 . S
C481 C480 1.386 1_554 S
C481 C485 1.393 . S
C482 H474 0.950 . S
C482 C480 1.391 . S
C482 C483 1.400 1_556 S
C483 C482 1.400 1_554 S
C483 C484 1.398 . S
C483 C489 1.491 1_454 S
C484 H475 0.950 . S
C484 C483 1.398 . S
C484 C485 1.391 . S
C485 H473 0.950 . S
C485 C481 1.393 . S
C485 C484 1.391 . S
C486 H476 0.950 . S
C486 C487 1.386 1_554 S
C486 C488 1.391 . S
C487 C486 1.386 1_556 S
C487 C491 1.393 . S
C488 H477 0.950 . S
C488 C486 1.391 . S
C488 C489 1.400 1_554 S
C489 C483 1.491 1_656 S
C489 C488 1.400 1_556 S
C489 C490 1.398 . S
C490 H478 0.950 . S
C490 C489 1.398 . S
C490 C491 1.391 . S
C491 H479 0.950 . S
C491 C487 1.393 . S
C491 C490 1.391 . S
H492 C500 0.950 . S
H493 C505 0.950 . S
H494 C502 0.950 . S
H495 C504 0.950 . S
H496 C506 0.950 . S
H497 C508 0.950 . S
H498 C510 0.950 . S
H499 C511 0.950 . S
C500 H492 0.950 . S
C500 C501 1.386 . S
C500 C502 1.391 . S
C501 C500 1.386 . S
C501 C505 1.393 . S
C502 H494 0.950 . S
C502 C500 1.391 . S
C502 C503 1.400 . S
C503 C502 1.400 . S
C503 C504 1.398 . S
C503 C509 1.491 1_545 S
C504 H495 0.950 . S
C504 C503 1.398 . S
C504 C505 1.391 . S
C505 H493 0.950 . S
C505 C501 1.393 . S
C505 C504 1.391 . S
C506 H496 0.950 . S
C506 C507 1.386 . S
C506 C508 1.391 . S
C507 C506 1.386 . S
C507 C511 1.393 . S
C508 H497 0.950 . S
C508 C506 1.391 . S
C508 C509 1.400 . S
C509 C503 1.491 1_565 S
C509 C508 1.400 . S
C509 C510 1.398 . S
C510 H498 0.950 . S
C510 C509 1.398 . S
C510 C511 1.391 . S
C511 H499 0.950 . S
C511 C507 1.393 . S
C511 C510 1.391 . S
C361 C20 1.499 . S
C367 C205 1.500 . S
C381 C145 1.499 . S
C387 C313 1.498 . S
C401 C29 1.494 . S
C407 C293 1.493 . S
C421 C225 1.506 . S
C427 C117 1.505 . S
C441 C284 1.510 . S
C447 C49 1.510 . S
C461 C108 1.504 . S
C467 C233 1.506 . S
C481 C57 1.492 . S
C487 C321 1.492 . S
C501 C137 1.486 . S
C507 C196 1.488 . S
