# Generated by pormake.
# Topology smn, (6)-cn, num edge types: 1
# Building blocks:
#     Node 0, Type 0, BuildingBlock: IZENUY_clean_sbu_0, # of connection points: 6
#     Node 1, Type 0, BuildingBlock: IZENUY_clean_sbu_0, # of connection points: 6
#     Node 2, Type 0, BuildingBlock: IZENUY_clean_sbu_0, # of connection points: 6
#     Node 3, Type 0, BuildingBlock: IZENUY_clean_sbu_0, # of connection points: 6
#     Node 4, Type 0, BuildingBlock: IZENUY_clean_sbu_0, # of connection points: 6
#     Node 5, Type 0, BuildingBlock: IZENUY_clean_sbu_0, # of connection points: 6
#     Node 6, Type 0, BuildingBlock: IZENUY_clean_sbu_0, # of connection points: 6
#     Node 7, Type 0, BuildingBlock: IZENUY_clean_sbu_0, # of connection points: 6
#     Node 8, Type 0, BuildingBlock: IZENUY_clean_sbu_0, # of connection points: 6
#     Node 9, Type 0, BuildingBlock: IZENUY_clean_sbu_0, # of connection points: 6
#     Node 10, Type 0, BuildingBlock: IZENUY_clean_sbu_0, # of connection points: 6
#     Node 11, Type 0, BuildingBlock: IZENUY_clean_sbu_0, # of connection points: 6
#     Node 12, Type 0, BuildingBlock: IZENUY_clean_sbu_0, # of connection points: 6
#     Node 13, Type 0, BuildingBlock: IZENUY_clean_sbu_0, # of connection points: 6
#     Node 14, Type 0, BuildingBlock: IZENUY_clean_sbu_0, # of connection points: 6
#     Node 15, Type 0, BuildingBlock: IZENUY_clean_sbu_0, # of connection points: 6
#     Node 16, Type 0, BuildingBlock: IZENUY_clean_sbu_0, # of connection points: 6
#     Node 17, Type 0, BuildingBlock: IZENUY_clean_sbu_0, # of connection points: 6
#     Edge 18, Type (0, 0), BuildingBlock: CIFDUS_clean_linker_0, # of connection points: 2
#     Edge 19, Type (0, 0), BuildingBlock: CIFDUS_clean_linker_0, # of connection points: 2
#     Edge 20, Type (0, 0), BuildingBlock: CIFDUS_clean_linker_0, # of connection points: 2
#     Edge 21, Type (0, 0), BuildingBlock: CIFDUS_clean_linker_0, # of connection points: 2
#     Edge 22, Type (0, 0), BuildingBlock: CIFDUS_clean_linker_0, # of connection points: 2
#     Edge 23, Type (0, 0), BuildingBlock: CIFDUS_clean_linker_0, # of connection points: 2
#     Edge 24, Type (0, 0), BuildingBlock: CIFDUS_clean_linker_0, # of connection points: 2
#     Edge 25, Type (0, 0), BuildingBlock: CIFDUS_clean_linker_0, # of connection points: 2
#     Edge 26, Type (0, 0), BuildingBlock: CIFDUS_clean_linker_0, # of connection points: 2
#     Edge 27, Type (0, 0), BuildingBlock: CIFDUS_clean_linker_0, # of connection points: 2
#     Edge 28, Type (0, 0), BuildingBlock: CIFDUS_clean_linker_0, # of connection points: 2
#     Edge 29, Type (0, 0), BuildingBlock: CIFDUS_clean_linker_0, # of connection points: 2
#     Edge 30, Type (0, 0), BuildingBlock: CIFDUS_clean_linker_0, # of connection points: 2
#     Edge 31, Type (0, 0), BuildingBlock: CIFDUS_clean_linker_0, # of connection points: 2
#     Edge 32, Type (0, 0), BuildingBlock: CIFDUS_clean_linker_0, # of connection points: 2
#     Edge 33, Type (0, 0), BuildingBlock: CIFDUS_clean_linker_0, # of connection points: 2
#     Edge 34, Type (0, 0), BuildingBlock: CIFDUS_clean_linker_0, # of connection points: 2
#     Edge 35, Type (0, 0), BuildingBlock: CIFDUS_clean_linker_0, # of connection points: 2
#     Edge 36, Type (0, 0), BuildingBlock: CIFDUS_clean_linker_0, # of connection points: 2
#     Edge 37, Type (0, 0), BuildingBlock: CIFDUS_clean_linker_0, # of connection points: 2
#     Edge 38, Type (0, 0), BuildingBlock: CIFDUS_clean_linker_0, # of connection points: 2
#     Edge 39, Type (0, 0), BuildingBlock: CIFDUS_clean_linker_0, # of connection points: 2
#     Edge 40, Type (0, 0), BuildingBlock: CIFDUS_clean_linker_0, # of connection points: 2
#     Edge 41, Type (0, 0), BuildingBlock: CIFDUS_clean_linker_0, # of connection points: 2
#     Edge 42, Type (0, 0), BuildingBlock: CIFDUS_clean_linker_0, # of connection points: 2
#     Edge 43, Type (0, 0), BuildingBlock: CIFDUS_clean_linker_0, # of connection points: 2
#     Edge 44, Type (0, 0), BuildingBlock: CIFDUS_clean_linker_0, # of connection points: 2
#     Edge 45, Type (0, 0), BuildingBlock: CIFDUS_clean_linker_0, # of connection points: 2
#     Edge 46, Type (0, 0), BuildingBlock: CIFDUS_clean_linker_0, # of connection points: 2
#     Edge 47, Type (0, 0), BuildingBlock: CIFDUS_clean_linker_0, # of connection points: 2
#     Edge 48, Type (0, 0), BuildingBlock: CIFDUS_clean_linker_0, # of connection points: 2
#     Edge 49, Type (0, 0), BuildingBlock: CIFDUS_clean_linker_0, # of connection points: 2
#     Edge 50, Type (0, 0), BuildingBlock: CIFDUS_clean_linker_0, # of connection points: 2
#     Edge 51, Type (0, 0), BuildingBlock: CIFDUS_clean_linker_0, # of connection points: 2
#     Edge 52, Type (0, 0), BuildingBlock: CIFDUS_clean_linker_0, # of connection points: 2
#     Edge 53, Type (0, 0), BuildingBlock: CIFDUS_clean_linker_0, # of connection points: 2
#     Edge 54, Type (0, 0), BuildingBlock: CIFDUS_clean_linker_0, # of connection points: 2
#     Edge 55, Type (0, 0), BuildingBlock: CIFDUS_clean_linker_0, # of connection points: 2
#     Edge 56, Type (0, 0), BuildingBlock: CIFDUS_clean_linker_0, # of connection points: 2
#     Edge 57, Type (0, 0), BuildingBlock: CIFDUS_clean_linker_0, # of connection points: 2
#     Edge 58, Type (0, 0), BuildingBlock: CIFDUS_clean_linker_0, # of connection points: 2
#     Edge 59, Type (0, 0), BuildingBlock: CIFDUS_clean_linker_0, # of connection points: 2
#     Edge 60, Type (0, 0), BuildingBlock: CIFDUS_clean_linker_0, # of connection points: 2
#     Edge 61, Type (0, 0), BuildingBlock: CIFDUS_clean_linker_0, # of connection points: 2
#     Edge 62, Type (0, 0), BuildingBlock: CIFDUS_clean_linker_0, # of connection points: 2
#     Edge 63, Type (0, 0), BuildingBlock: CIFDUS_clean_linker_0, # of connection points: 2
#     Edge 64, Type (0, 0), BuildingBlock: CIFDUS_clean_linker_0, # of connection points: 2
#     Edge 65, Type (0, 0), BuildingBlock: CIFDUS_clean_linker_0, # of connection points: 2
#     Edge 66, Type (0, 0), BuildingBlock: CIFDUS_clean_linker_0, # of connection points: 2
#     Edge 67, Type (0, 0), BuildingBlock: CIFDUS_clean_linker_0, # of connection points: 2
#     Edge 68, Type (0, 0), BuildingBlock: CIFDUS_clean_linker_0, # of connection points: 2
#     Edge 69, Type (0, 0), BuildingBlock: CIFDUS_clean_linker_0, # of connection points: 2
#     Edge 70, Type (0, 0), BuildingBlock: CIFDUS_clean_linker_0, # of connection points: 2
#     Edge 71, Type (0, 0), BuildingBlock: CIFDUS_clean_linker_0, # of connection points: 2
# Relax obj value: 0.165
# Max RMSD: 0.234
# Mean RMSD: 0.233
data_MOF--net-smn--node1-IZENUY_clean_sbu_0--edge1-CIFDUS_clean_linker_0
_symmetry_space_group_name_H-M    P1
_symmetry_Int_Tables_number       1
_symmetry_cell_setting            triclinic
loop_
_symmetry_equiv_pos_as_xyz
'x, y, z'
_cell_length_a     54.519313
_cell_length_b     54.490795
_cell_length_c     16.397689
_cell_angle_alpha  90.094358
_cell_angle_beta   89.97756
_cell_angle_gamma 120.05889
loop_
_atom_site_label
_atom_site_type_symbol
_atom_site_fract_x
_atom_site_fract_y
_atom_site_fract_z
_atom_type_partial_charge
Fe0 Fe 0.02966 0.23553 0.68478 0.0
Fe1 Fe 0.04635 0.19675 0.77412 0.0
O2 O 0.0434 0.22776 0.77322 0.0
Fe3 Fe 0.05452 0.25012 0.86052 0.0
O4 O 1.02116 0.24902 0.87055 0.0
O5 O 1.00962 0.24933 0.74192 0.0
O6 O 0.99714 0.20086 0.68518 0.0
C7 C 0.99746 0.17807 0.67744 0.0
C8 C 0.07395 0.28919 0.72587 0.0
O9 O 1.01922 0.17719 0.69773 0.0
C10 C 0.09409 0.23339 0.86637 0.0
O11 O 0.04884 0.22399 0.61408 0.0
O12 O 0.07306 0.21154 0.69632 0.0
O13 O 0.07058 0.28382 0.80195 0.0
O14 O 0.06009 0.27031 0.67388 0.0
C15 C 1.02118 0.19323 0.91972 0.0
O16 O 0.07442 0.20878 0.85023 0.0
O17 O 0.08972 0.25386 0.86031 0.0
C18 C 0.06971 0.22001 0.62765 0.0
O19 O 1.01969 0.18138 0.8521 0.0
O20 O 0.03921 0.21942 0.93226 0.0
C21 C 1.00587 0.25148 0.81772 0.0
Fe22 Fe 0.81599 0.82207 0.85296 0.0
Fe23 Fe 0.86893 0.86841 0.76822 0.0
O24 O 0.83856 0.83396 0.76654 0.0
Fe25 Fe 0.83174 0.81253 0.6782 0.0
O26 O 0.79674 0.80758 0.66508 0.0
O27 O 0.78266 0.80375 0.7929 0.0
O28 O 0.8112 0.85282 0.85308 0.0
C29 C 0.83111 0.87792 0.86055 0.0
C30 C 0.81608 0.77282 0.81052 0.0
O31 O 0.85601 0.8839 0.84392 0.0
C32 C 0.88909 0.83892 0.67358 0.0
O33 O 0.84633 0.83802 0.92552 0.0
O34 O 0.88461 0.85752 0.84675 0.0
O35 O 0.81795 0.77856 0.73475 0.0
O36 O 0.81819 0.79049 0.86312 0.0
C37 C 0.84596 0.86752 0.62073 0.0
O38 O 0.88922 0.86137 0.69263 0.0
O39 O 0.86666 0.81546 0.68179 0.0
C40 C 0.87243 0.84604 0.91307 0.0
O41 O 0.85353 0.87958 0.68953 0.0
O42 O 0.84366 0.8433 0.60767 0.0
C43 C 0.77754 0.80191 0.71662 0.0
Fe44 Fe 0.24143 1.01037 0.84372 0.0
Fe45 Fe 0.20682 0.03171 0.75296 0.0
O46 O 0.23584 0.02564 0.755 0.0
Fe47 Fe 0.2584 0.03507 0.66896 0.0
O48 O 0.25423 1.00047 0.6599 0.0
O49 O 0.25477 0.98955 0.78849 0.0
O50 O 0.20585 0.9792 0.83857 0.0
C51 C 0.18407 0.98149 0.84563 0.0
C52 C 0.29613 0.05261 0.80635 0.0
O53 O 0.18543 1.00462 0.8278 0.0
C54 C 0.24643 0.07791 0.66061 0.0
O55 O 0.23028 0.02996 0.9137 0.0
O56 O 0.22333 0.05821 0.83178 0.0
O57 O 0.2914 0.04891 0.72995 0.0
O58 O 0.27667 0.0397 0.85755 0.0
C59 C 0.20183 1.00484 0.60819 0.0
O60 O 0.22117 0.06011 0.67754 0.0
O61 O 0.26527 0.07129 0.66779 0.0
C62 C 0.23017 0.05301 0.90059 0.0
O63 O 0.19019 1.00535 0.67449 0.0
O64 O 0.22828 0.02172 0.59585 0.0
C65 C 0.25662 0.98532 0.71301 0.0
Fe66 Fe 1.0228 0.80424 0.16793 0.0
Fe67 Fe 0.04813 0.81992 0.34342 0.0
O68 O 0.0345 0.82724 0.25394 0.0
Fe69 Fe 0.03247 0.85877 0.25041 0.0
O70 O 0.05967 0.87291 0.17398 0.0
O71 O 0.0398 0.83451 0.09506 0.0
O72 O 0.05526 0.80336 0.16006 0.0
C73 C 0.07116 0.8021 0.21323 0.0
C74 C 0.98487 0.82313 0.1568 0.0
O75 O 0.0683 0.80588 0.28847 0.0
C76 C 1.00815 0.83627 0.39645 0.0
O77 O 1.00527 0.77111 0.22853 0.0
O78 O 1.01781 0.78522 0.35551 0.0
O79 O 1.00516 0.84741 0.17226 0.0
O80 O 0.98821 0.80208 0.16528 0.0
C81 C 0.08069 0.87738 0.34914 0.0
O82 O 0.0287 0.83189 0.41167 0.0
O83 O 1.00529 0.84482 0.32717 0.0
C84 C 1.00284 0.76627 0.30488 0.0
O85 O 0.08079 0.85448 0.34238 0.0
O86 O 0.05908 0.87831 0.32798 0.0
C87 C 0.05855 0.86051 0.1075 0.0
Fe88 Fe 0.26416 0.23825 0.17212 0.0
Fe89 Fe 0.2112 0.19184 0.25604 0.0
O90 O 0.24137 0.22636 0.25796 0.0
Fe91 Fe 0.24781 0.24782 0.34608 0.0
O92 O 0.28283 0.25296 0.36018 0.0
O93 O 0.29725 0.25676 0.23276 0.0
O94 O 0.26924 0.20773 0.17293 0.0
C95 C 0.24942 0.18264 0.16481 0.0
C96 C 0.26364 0.28731 0.21359 0.0
O97 O 0.22446 0.17652 0.18096 0.0
C98 C 0.19045 0.22104 0.34963 0.0
O99 O 0.23408 0.22203 0.09895 0.0
O100 O 0.19558 0.20253 0.17689 0.0
O101 O 0.2616 0.28167 0.28938 0.0
O102 O 0.26168 0.26962 0.16129 0.0
C103 C 0.23433 0.19328 0.40359 0.0
O104 O 0.19062 0.19871 0.33097 0.0
O105 O 0.21277 0.24462 0.34152 0.0
C106 C 0.20792 0.21383 0.11061 0.0
O107 O 0.22671 0.181 0.33512 0.0
O108 O 0.23595 0.21718 0.41663 0.0
C109 C 0.30212 0.25854 0.3091 0.0
Fe110 Fe 0.87127 0.03061 0.26305 0.0
Fe111 Fe 0.81816 0.02278 0.3507 0.0
O112 O 0.84028 0.03352 0.26357 0.0
Fe113 Fe 0.83212 0.04723 0.17615 0.0
O114 O 0.8656 0.08031 0.18241 0.0
O115 O 0.89113 0.0598 0.19025 0.0
O116 O 0.88643 0.05636 0.34346 0.0
C117 C 0.8747 0.05515 0.41097 0.0
C118 C 0.84857 1.00895 0.11497 0.0
O119 O 0.84854 0.03722 0.42311 0.0
C120 C 0.77939 1.00269 0.21518 0.0
O121 O 0.85855 1.00118 0.33619 0.0
O122 O 0.81374 0.98755 0.34961 0.0
O123 O 0.846 0.03071 0.1037 0.0
O124 O 0.85662 1.00457 0.1827 0.0
C125 C 0.81573 0.07033 0.30889 0.0
O126 O 0.78454 1.00748 0.29124 0.0
O127 O 0.79846 1.0156 0.16297 0.0
C128 C 0.83374 0.9825 0.35595 0.0
O129 O 0.82047 0.05659 0.36141 0.0
O130 O 0.81601 0.06518 0.23332 0.0
C131 C 0.88928 0.08169 0.17663 0.0
Fe132 Fe 0.72326 0.58621 0.18136 0.0
Fe133 Fe 0.70251 0.53011 0.0908 0.0
O134 O 0.70823 0.56515 0.09252 0.0
Fe135 Fe 0.69865 0.57795 1.00597 0.0
O136 O 0.73305 0.60879 0.99714 0.0
O137 O 0.74441 0.62029 0.12577 0.0
O138 O 0.75442 0.58174 0.17826 0.0
C139 C 0.75217 0.55771 0.18634 0.0
C140 C 0.68139 0.59917 0.14242 0.0
O141 O 0.72924 0.53588 0.16723 0.0
C142 C 0.65637 0.52271 0.99648 0.0
O143 O 0.70322 0.55545 0.25116 0.0
O144 O 0.67572 0.51995 0.16846 0.0
O145 O 0.68449 0.5971 0.06609 0.0
O146 O 0.69411 0.59253 0.19403 0.0
C147 C 0.72938 0.55182 0.94632 0.0
O148 O 0.67443 0.51571 0.01427 0.0
O149 O 0.66253 0.54809 1.00401 0.0
C150 C 0.68042 0.53203 0.23726 0.0
O151 O 0.72914 0.54 0.01302 0.0
O152 O 0.7125 0.56137 0.93371 0.0
C153 C 0.74837 0.62637 0.0502 0.0
Fe154 Fe 0.48175 0.15431 0.18455 0.0
Fe155 Fe 0.53746 0.19397 0.0977 0.0
O156 O 0.50363 0.16288 0.0969 0.0
Fe157 Fe 0.49228 0.14098 1.00932 0.0
O158 O 0.4609 0.14347 0.99961 0.0
O159 O 0.44758 0.13751 0.12757 0.0
O160 O 0.48182 0.18774 0.17936 0.0
C161 C 0.50417 0.2115 0.18546 0.0
C162 C 0.47335 0.10174 0.14377 0.0
O163 O 0.52793 0.2135 0.17107 0.0
C164 C 0.54816 0.15668 1.00391 0.0
O165 O 0.51216 0.1685 0.25685 0.0
O166 O 0.54888 0.17926 0.1775 0.0
O167 O 0.47371 0.10719 0.06797 0.0
O168 O 0.48018 0.12081 0.19663 0.0
C169 C 0.51657 0.1976 0.94986 0.0
O170 O 0.55422 0.18144 0.02418 0.0
O171 O 0.52309 0.13656 1.00976 0.0
C172 C 0.53648 0.17112 0.24526 0.0
O173 O 0.52694 0.20929 0.0176 0.0
O174 O 0.50833 0.17145 0.93749 0.0
C175 C 0.44199 0.13707 0.05209 0.0
Fe176 Fe 0.91157 0.3461 0.18127 0.0
Fe177 Fe 0.87702 0.36726 0.08926 0.0
O178 O 0.9061 0.36122 0.09196 0.0
Fe179 Fe 0.92876 0.37052 1.00598 0.0
O180 O 0.92489 0.33594 0.99777 0.0
O181 O 0.92452 0.32477 0.1267 0.0
O182 O 0.8758 0.31507 0.1772 0.0
C183 C 0.85414 0.31755 0.18455 0.0
C184 C 0.96667 0.38749 0.14362 0.0
O185 O 0.85558 0.3406 0.16528 0.0
C186 C 0.91634 0.41316 0.9952 0.0
O187 O 0.90083 0.36632 0.25041 0.0
O188 O 0.89362 0.39409 0.16714 0.0
O189 O 0.9618 0.38446 0.06713 0.0
O190 O 0.94706 0.37507 0.19473 0.0
C191 C 0.87208 0.34022 0.94502 0.0
O192 O 0.89119 0.39529 0.01285 0.0
O193 O 0.9354 0.40681 1.00319 0.0
C194 C 0.90059 0.38927 0.23628 0.0
O195 O 0.86035 0.34064 1.01131 0.0
O196 O 0.8986 0.35684 0.93296 0.0
C197 C 0.92697 0.32072 0.05137 0.0
Fe198 Fe 0.69339 0.14291 0.50523 0.0
Fe199 Fe 0.71804 0.15928 0.68035 0.0
O200 O 0.70316 0.16542 0.5917 0.0
Fe201 Fe 0.698 0.19506 0.58968 0.0
O202 O 0.72452 0.21125 0.51125 0.0
O203 O 0.70695 0.17308 0.43247 0.0
O204 O 0.72782 0.14668 0.49591 0.0
C205 C 0.74293 0.14417 0.54895 0.0
C206 C 0.65125 0.15595 0.49757 0.0
O207 O 0.73863 0.14577 0.62457 0.0
C208 C 0.67631 0.17209 0.73734 0.0
O209 O 0.67949 0.10971 0.56532 0.0
O210 O 0.6884 0.12401 0.69338 0.0
O211 O 0.66957 0.18112 0.51411 0.0
O212 O 0.65732 0.13665 0.50453 0.0
C213 C 0.74793 0.21676 0.68356 0.0
O214 O 0.69873 0.17077 0.7505 0.0
O215 O 0.67145 0.17915 0.66839 0.0
C216 C 0.67601 0.10456 0.64154 0.0
O217 O 0.74959 0.19462 0.67635 0.0
O218 O 0.7252 0.2161 0.66495 0.0
C219 C 0.72454 0.19937 0.44484 0.0
Fe220 Fe 0.87572 0.52479 0.59022 0.0
Fe221 Fe 0.92747 0.57303 0.50668 0.0
O222 O 0.90504 0.55981 0.59294 0.0
Fe223 Fe 0.91095 0.58055 0.6822 0.0
O224 O 0.87544 0.57627 0.67831 0.0
O225 O 0.85455 0.53039 0.66659 0.0
O226 O 0.85917 0.53504 0.51271 0.0
C227 C 0.87091 0.54722 0.4465 0.0
C228 C 0.89946 0.52623 0.73682 0.0
O229 O 0.89723 0.55623 0.43389 0.0
C230 C 0.96576 0.59417 0.64352 0.0
O231 O 0.88984 0.51083 0.51346 0.0
O232 O 0.93417 0.5435 0.50456 0.0
O233 O 0.89989 0.54953 0.75125 0.0
O234 O 0.89217 0.51434 0.66776 0.0
C235 C 0.9259 0.62099 0.55204 0.0
O236 O 0.96069 0.59261 0.56717 0.0
O237 O 0.94623 0.58657 0.69505 0.0
C238 C 0.91505 0.51808 0.49634 0.0
O239 O 0.9232 0.60339 0.49855 0.0
O240 O 0.92427 0.61489 0.62752 0.0
C241 C 0.85351 0.55228 0.68543 0.0
Fe242 Fe 0.48978 0.35017 0.67958 0.0
Fe243 Fe 0.54602 0.37101 0.59042 0.0
O244 O 0.51079 0.36462 0.59061 0.0
Fe245 Fe 0.49745 0.37295 0.503 0.0
O246 O 0.46757 0.33778 0.49562 0.0
O247 O 0.45546 0.32954 0.62446 0.0
O248 O 0.49378 0.31877 0.67647 0.0
C249 C 0.51776 0.32083 0.6841 0.0
C250 C 0.47635 0.39104 0.63789 0.0
O251 O 0.53982 0.34383 0.66608 0.0
C252 C 0.55213 0.41656 0.49471 0.0
O253 O 0.5204 0.36969 0.75019 0.0
O254 O 0.55554 0.3977 0.66836 0.0
O255 O 0.47726 0.38635 0.56193 0.0
O256 O 0.48444 0.37993 0.69064 0.0
C257 C 0.52584 0.34421 0.44477 0.0
O258 O 0.56012 0.39941 0.51483 0.0
O259 O 0.52642 0.40945 0.50018 0.0
C260 C 0.54352 0.39276 0.73701 0.0
O261 O 0.53737 0.34471 0.5121 0.0
O262 O 0.51501 0.35991 0.43164 0.0
C263 C 0.44941 0.32421 0.54921 0.0
Fe264 Fe 0.38206 0.91435 0.51638 0.0
Fe265 Fe 0.35763 0.90026 0.34181 0.0
O266 O 0.37132 0.89213 0.42926 0.0
Fe267 Fe 0.37406 0.86103 0.42918 0.0
O268 O 0.34845 0.84611 0.51011 0.0
O269 O 0.36819 0.88418 0.58907 0.0
O270 O 0.34805 0.91157 0.52735 0.0
C271 C 0.33422 0.91618 0.47469 0.0
C272 C 0.42256 0.89901 0.52011 0.0
O273 O 0.33965 0.91629 0.39917 0.0
C274 C 0.3955 0.88313 0.28036 0.0
O275 O 0.39667 0.94792 0.45712 0.0
O276 O 0.38926 0.93401 0.32879 0.0
O277 O 0.40369 0.87407 0.50168 0.0
O278 O 0.41743 0.91903 0.51451 0.0
C279 C 0.32296 0.84307 0.3431 0.0
O280 O 0.37406 0.88626 0.26924 0.0
O281 O 0.39991 0.87526 0.34835 0.0
C282 C 0.40137 0.95327 0.38119 0.0
O283 O 0.32456 0.86685 0.34809 0.0
O284 O 0.34472 0.84103 0.35683 0.0
C285 C 0.34995 0.85808 0.57748 0.0
Fe286 Fe 0.15281 0.48426 0.52541 0.0
Fe287 Fe 0.20291 0.53265 0.43592 0.0
O288 O 0.1745 0.49714 0.43758 0.0
Fe289 Fe 0.16835 0.47553 0.35003 0.0
O290 O 0.13294 0.46914 0.3383 0.0
O291 O 0.11921 0.46331 0.46689 0.0
O292 O 0.14484 0.51294 0.52568 0.0
C293 C 0.16322 0.53876 0.53014 0.0
C294 C 0.15436 0.43621 0.48329 0.0
O295 O 0.18842 0.54689 0.5104 0.0
C296 C 0.22567 0.50473 0.34413 0.0
O297 O 0.18352 0.50274 0.59625 0.0
O298 O 0.22099 0.52509 0.51502 0.0
O299 O 0.15546 0.44176 0.40752 0.0
O300 O 0.1583 0.4546 0.53563 0.0
C301 C 0.17813 0.52843 0.28931 0.0
O302 O 0.22414 0.52654 0.36093 0.0
O303 O 0.20414 0.48052 0.35348 0.0
C304 C 0.21014 0.51411 0.58302 0.0
O305 O 0.18519 0.54101 0.35725 0.0
O306 O 0.17864 0.50551 0.27751 0.0
C307 C 0.11369 0.46158 0.39074 0.0
Fe308 Fe 0.58949 0.70956 0.3452 0.0
Fe309 Fe 0.581 0.68585 0.52109 0.0
O310 O 0.56816 0.69484 0.43353 0.0
Fe311 Fe 0.53305 0.68885 0.43323 0.0
O312 O 0.52345 0.66243 0.35437 0.0
O313 O 0.55904 0.6904 0.27359 0.0
O314 O 0.59478 0.67975 0.33341 0.0
C315 C 0.60265 0.66834 0.38587 0.0
C316 C 0.56179 0.73919 0.34043 0.0
O317 O 0.60116 0.67241 0.46201 0.0
C318 C 0.55295 0.71492 0.57982 0.0
O319 O 0.62364 0.72989 0.40155 0.0
O320 O 0.61126 0.72078 0.53014 0.0
O321 O 0.53965 0.71629 0.35834 0.0
O322 O 0.58569 0.74111 0.34863 0.0
C323 C 0.52597 0.64264 0.52743 0.0
O324 O 0.56348 0.69892 0.59265 0.0
O325 O 0.54178 0.7149 0.51227 0.0
C326 C 0.62957 0.73465 0.47709 0.0
O327 O 0.55162 0.64942 0.52243 0.0
O328 O 0.51845 0.66019 0.50792 0.0
C329 C 0.53555 0.6676 0.28577 0.0
Fe330 Fe 0.38153 0.48316 0.01498 0.0
Fe331 Fe 0.37396 0.52871 0.92847 0.0
O332 O 0.37091 0.49473 0.92814 0.0
Fe333 Fe 0.35713 0.47297 0.84034 0.0
O334 O 0.38855 0.47059 0.82702 0.0
O335 O 0.3963 0.46437 0.95521 0.0
O336 O 0.41693 0.5139 0.01417 0.0
C337 C 0.42206 0.53903 0.02079 0.0
C338 C 0.33379 0.43337 0.97247 0.0
O339 O 0.40334 0.54516 1.00181 0.0
C340 C 0.32295 0.49598 0.84137 0.0
O341 O 0.36747 0.49932 0.08777 0.0
O342 O 0.34817 0.51806 1.0089 0.0
O343 O 0.33898 0.43884 0.89697 0.0
O344 O 0.34754 0.45185 0.02527 0.0
C345 C 0.39576 0.52778 0.78049 0.0
O346 O 0.34489 0.51966 0.85539 0.0
O347 O 0.32418 0.47359 0.84669 0.0
C348 C 0.34946 0.50745 0.07614 0.0
O349 O 0.40004 0.54016 0.84843 0.0
O350 O 0.37389 0.50352 0.76853 0.0
C351 C 0.4008 0.4636 0.8791 0.0
Fe352 Fe 0.59289 0.90352 0.83964 0.0
Fe353 Fe 0.53726 0.86318 0.9259 0.0
O354 O 0.57082 0.89468 0.92691 0.0
Fe355 Fe 0.58173 0.91662 0.0146 0.0
O356 O 0.6135 0.91481 0.0252 0.0
O357 O 0.62693 0.92049 0.89726 0.0
O358 O 0.59333 0.87038 0.84491 0.0
C359 C 0.57128 0.84641 0.83868 0.0
C360 C 0.60088 0.95598 0.88014 0.0
O361 O 0.54731 0.84392 0.85299 0.0
C362 C 0.52552 0.89996 0.019 0.0
O363 O 0.56258 0.88903 0.76678 0.0
O364 O 0.52544 0.8773 0.84547 0.0
O365 O 0.60011 0.95046 0.95603 0.0
O366 O 0.59412 0.93689 0.82735 0.0
C367 C 0.55837 0.86015 0.07409 0.0
O368 O 0.51995 0.87532 0.99891 0.0
O369 O 0.55048 0.92038 0.01346 0.0
C370 C 0.53783 0.88545 0.77769 0.0
O371 O 0.5482 0.84838 1.00632 0.0
O372 O 0.56595 0.88614 0.08649 0.0
C373 C 0.63244 0.92101 0.97287 0.0
Fe374 Fe 0.20201 0.6874 0.93706 0.0
Fe375 Fe 0.15168 0.68563 0.02569 0.0
O376 O 0.17362 0.6945 0.93822 0.0
Fe377 Fe 0.16775 0.70999 0.85037 0.0
O378 O 0.20359 0.74083 0.85437 0.0
O379 O 0.22345 0.71476 0.8625 0.0
O380 O 0.21991 0.713 0.01652 0.0
C381 C 0.20894 0.71313 0.08434 0.0
C382 C 0.17763 0.66691 0.78994 0.0
O383 O 0.18225 0.69812 0.09702 0.0
C384 C 0.11293 0.66905 0.89008 0.0
O385 O 0.18745 0.65866 1.01122 0.0
O386 O 0.14389 0.64897 0.02667 0.0
O387 O 0.17815 0.69031 0.7782 0.0
O388 O 0.18444 0.66131 0.85804 0.0
C389 C 0.15339 0.73537 0.98273 0.0
O390 O 0.11826 0.67267 0.96637 0.0
O391 O 0.13229 0.68096 0.83799 0.0
C392 C 0.16229 0.64159 0.03123 0.0
O393 O 0.15681 0.72078 0.03566 0.0
O394 O 0.15489 0.73093 0.90718 0.0
C395 C 0.22508 0.7381 0.84542 0.0
H396 H 0.09467 0.18873 0.61001 0.0
H397 H 0.08954 0.25761 0.49892 0.0
H398 H 0.12728 0.26503 0.4024 0.0
H399 H 0.16351 0.25267 0.35403 0.0
H400 H 0.16568 0.18231 0.46746 0.0
H401 H 0.12773 0.17505 0.55916 0.0
C402 C 0.10165 0.20529 0.56434 0.0
C403 C 0.08948 0.22267 0.56177 0.0
C404 C 0.12314 0.20936 0.50996 0.0
C405 C 0.09849 0.2438 0.50163 0.0
C406 C 0.12023 0.24819 0.44703 0.0
C407 C 0.15559 0.23585 0.39898 0.0
C408 C 0.16745 0.21809 0.40396 0.0
C409 C 0.13306 0.23131 0.45136 0.0
C410 C 0.15684 0.19616 0.46193 0.0
C411 C 0.13512 0.19196 0.51458 0.0
H412 H 0.86329 0.95435 0.34338 0.0
H413 H 0.79411 0.95393 0.47259 0.0
H414 H 0.79045 0.91661 0.56238 0.0
H415 H 0.80991 0.88738 0.61288 0.0
H416 H 0.87695 0.88511 0.48054 0.0
H417 H 0.87835 0.9199 0.38268 0.0
C418 C 0.84719 0.94577 0.39053 0.0
C419 C 0.82922 0.95714 0.40184 0.0
C420 C 0.8449 0.92392 0.44149 0.0
C421 C 0.8082 0.94559 0.46248 0.0
C422 C 0.80616 0.92432 0.5142 0.0
C423 C 0.82438 0.89414 0.56148 0.0
C424 C 0.84334 0.88393 0.55352 0.0
C425 C 0.8248 0.9138 0.50545 0.0
C426 C 0.86205 0.89264 0.48711 0.0
C427 C 0.86297 0.91265 0.4317 0.0
H428 H 0.14476 0.97569 0.60225 0.0
H429 H 0.21843 0.98516 0.47602 0.0
H430 H 0.18778 0.94545 0.38569 0.0
H431 H 0.13925 0.9068 0.34512 0.0
H432 H 0.06695 0.89938 0.47481 0.0
H433 H 0.09787 0.93904 0.56213 0.0
C434 C 0.15426 0.96929 0.55468 0.0
C435 C 0.18388 0.98349 0.54595 0.0
C436 C 0.13667 0.9464 0.5042 0.0
C437 C 0.19566 0.97484 0.48358 0.0
C438 C 0.17814 0.95193 0.43244 0.0
C439 C 0.13048 0.91382 0.39307 0.0
C440 C 0.10089 0.90013 0.40385 0.0
C441 C 0.14853 0.93727 0.44276 0.0
C442 C 0.08965 0.90961 0.46534 0.0
C443 C 0.10729 0.93234 0.5152 0.0
H444 H 0.2679 0.10873 0.90499 0.0
H445 H 0.20159 0.04118 0.04457 0.0
H446 H 0.20336 0.07568 0.1444 0.0
H447 H 0.22036 0.12555 0.18257 0.0
H448 H 0.28837 0.19281 0.04597 0.0
H449 H 0.28984 0.15796 0.95496 0.0
C450 C 0.25427 0.10165 0.95827 0.0
C451 C 0.23452 0.07269 0.96774 0.0
C452 C 0.25567 0.12152 0.01539 0.0
C453 C 0.217 0.06345 0.03674 0.0
C454 C 0.21792 0.08317 0.09331 0.0
C455 C 0.23583 0.13248 0.1337 0.0
C456 C 0.254 0.16167 0.12029 0.0
C457 C 0.23664 0.11232 0.08198 0.0
C458 C 0.27419 0.17046 0.05753 0.0
C459 C 0.27489 0.15056 1.00514 0.0
H460 H 0.94158 0.08984 0.13931 0.0
H461 H 0.89225 0.13181 0.13457 0.0
H462 H 0.93083 0.17235 0.06475 0.0
H463 H 0.97678 0.1938 0.99197 0.0
H464 H 1.0244 0.15026 0.99019 0.0
H465 H 0.98873 0.1128 0.07665 0.0
C466 C 0.93932 0.10795 0.12385 0.0
C467 C 0.91381 0.1075 0.14143 0.0
C468 C 0.96145 0.13106 0.08259 0.0
C469 C 0.91147 0.13135 0.12121 0.0
C470 C 0.93357 0.15462 0.08124 0.0
C471 C 0.97963 0.17651 0.01283 0.0
C472 C 1.00328 0.17487 0.98624 0.0
C473 C 0.95843 0.15447 0.05999 0.0
C474 C 1.0065 0.15203 1.01124 0.0
C475 C 0.986 0.13052 0.05996 0.0
H476 H 0.87738 0.80037 0.94938 0.0
H477 H 0.90796 0.88744 0.01609 0.0
H478 H 0.9442 0.88706 0.10356 0.0
H479 H 0.96995 0.86359 0.14953 0.0
H480 H 0.94115 0.77699 0.07921 0.0
H481 H 0.90125 0.77535 1.00533 0.0
C482 C 0.89157 0.81894 0.98499 0.0
C483 C 0.8899 0.8438 0.97781 0.0
C484 C 0.91285 0.81873 0.0333 0.0
C485 C 0.90869 0.86801 0.02215 0.0
C486 C 0.9295 0.86783 0.07145 0.0
C487 C 0.95487 0.84422 0.11858 0.0
C488 C 0.95884 0.82056 0.11906 0.0
C489 C 0.93226 0.84357 0.07568 0.0
C490 C 0.93877 0.79557 0.07953 0.0
C491 C 0.91597 0.79465 0.0371 0.0
H492 H 0.91392 0.80544 0.66713 0.0
H493 H 0.91608 0.87876 0.55943 0.0
H494 H 0.95369 0.88495 0.46783 0.0
H495 H 0.98519 0.86939 0.41511 0.0
H496 H 0.9863 0.79784 0.52235 0.0
H497 H 0.94876 0.7914 0.61821 0.0
C498 C 0.92272 0.82269 0.62353 0.0
C499 C 0.91214 0.84155 0.61999 0.0
C500 C 0.94509 0.82662 0.57142 0.0
C501 C 0.92391 0.86404 0.5638 0.0
C502 C 0.94544 0.86762 0.51118 0.0
C503 C 0.97737 0.85247 0.45985 0.0
C504 C 0.98833 0.83404 0.46152 0.0
C505 C 0.9561 0.84906 0.51424 0.0
C506 C 0.97827 0.81243 0.52039 0.0
C507 C 0.95666 0.80863 0.57464 0.0
H508 H 0.22059 0.10886 0.68226 0.0
H509 H 0.28545 0.10521 0.54101 0.0
H510 H 0.28921 0.14297 0.45234 0.0
H511 H 0.26979 0.1727 0.4054 0.0
H512 H 0.20661 0.17823 0.54922 0.0
H513 H 0.20653 0.14421 0.64742 0.0
C514 C 0.23588 0.11673 0.63287 0.0
C515 C 0.25245 0.10407 0.61732 0.0
C516 C 0.23803 0.13856 0.58254 0.0
C517 C 0.27247 0.11463 0.55405 0.0
C518 C 0.27449 0.13608 0.50306 0.0
C519 C 0.25648 0.16683 0.45931 0.0
C520 C 0.23808 0.17757 0.4704 0.0
C521 C 0.25677 0.14755 0.5153 0.0
C522 C 0.22098 0.17017 0.54017 0.0
C523 C 0.22082 0.15062 0.59576 0.0
H524 H 0.93116 0.07948 0.42619 0.0
H525 H 0.85844 0.07683 0.53882 0.0
H526 H 0.88981 0.1156 0.63118 0.0
H527 H 0.9389 0.15199 0.67557 0.0
H528 H 1.01016 0.15224 0.55967 0.0
H529 H 0.97845 0.11316 0.4722 0.0
C530 C 0.92206 0.08717 0.47137 0.0
C531 C 0.89253 0.07531 0.47555 0.0
C532 C 0.94009 0.10943 0.52303 0.0
C533 C 0.88113 0.08541 0.53494 0.0
C534 C 0.89909 0.10779 0.58712 0.0
C535 C 0.9473 0.14347 0.6308 0.0
C536 C 0.97685 0.15506 0.62398 0.0
C537 C 0.92873 0.12032 0.5809 0.0
C538 C 0.98753 0.14364 0.56643 0.0
C539 C 0.96942 0.12124 0.51632 0.0
H540 H 0.8096 0.95369 0.10727 0.0
H541 H 0.87954 0.02026 0.97539 0.0
H542 H 0.87893 0.98526 0.87952 0.0
H543 H 0.86173 0.93514 0.84361 0.0
H544 H 0.79052 0.86884 0.97321 0.0
H545 H 0.78799 0.90426 0.05899 0.0
C546 C 0.82422 0.96048 0.05622 0.0
C547 C 0.84458 0.98933 0.04783 0.0
C548 C 0.82363 0.94028 1.00169 0.0
C549 C 0.86355 0.99813 0.98211 0.0
C550 C 0.86332 0.9781 0.92792 0.0
C551 C 0.8454 0.92851 0.88986 0.0
C552 C 0.82657 0.89939 0.90281 0.0
C553 C 0.84397 0.94904 0.9386 0.0
C554 C 0.80526 0.89109 0.96208 0.0
C555 C 0.80391 0.91133 1.01145 0.0
H556 H 0.15871 0.92302 0.85311 0.0
H557 H 0.1543 0.99452 0.94981 0.0
H558 H 0.11403 0.96321 0.03337 0.0
H559 H 0.08102 0.91632 0.08338 0.0
H560 H 0.08284 0.84335 0.98963 0.0
H561 H 0.12253 0.87417 0.89936 0.0
C562 C 0.14884 0.93157 0.89256 0.0
C563 C 0.15957 0.96109 0.89513 0.0
C564 C 0.12504 0.91322 0.94043 0.0
C565 C 0.14642 0.97192 0.94599 0.0
C566 C 0.12334 0.95404 0.99407 0.0
C567 C 0.08989 0.90706 0.04263 0.0
C568 C 0.07913 0.87767 0.04333 0.0
C569 C 0.11258 0.92478 0.99205 0.0
C570 C 0.09065 0.86595 0.98964 0.0
C571 C 0.11351 0.88361 0.9387 0.0
H572 H 0.11203 0.19522 0.86696 0.0
H573 H 0.13551 0.27942 0.94966 0.0
H574 H 0.17557 0.28211 0.02508 0.0
H575 H 0.20063 0.25823 0.07955 0.0
H576 H 0.17557 0.17347 1.00043 0.0
H577 H 0.13951 0.17328 0.9107 0.0
C578 C 0.12603 0.2143 0.90088 0.0
C579 C 0.12048 0.23692 0.90365 0.0
C580 C 0.14872 0.21553 0.9447 0.0
C581 C 0.13916 0.26164 0.94684 0.0
C582 C 0.16202 0.26315 0.99019 0.0
C583 C 0.18768 0.24009 0.04084 0.0
C584 C 0.19075 0.216 0.0452 0.0
C585 C 0.16657 0.23994 0.99118 0.0
C586 C 0.17367 0.1923 0.99664 0.0
C587 C 0.15298 0.19215 0.94605 0.0
H588 H 0.82928 0.58627 0.69262 0.0
H589 H 0.82267 0.50952 0.78927 0.0
H590 H 0.78284 0.5018 0.87363 0.0
H591 H 0.75086 0.51721 0.92446 0.0
H592 H 0.75478 0.59259 0.82784 0.0
H593 H 0.79407 0.60016 0.73814 0.0
C594 C 0.81902 0.56791 0.73216 0.0
C595 C 0.82905 0.54857 0.73469 0.0
C596 C 0.79547 0.56317 0.78012 0.0
C597 C 0.81535 0.52467 0.78561 0.0
C598 C 0.79254 0.5202 0.83414 0.0
C599 C 0.76008 0.53516 0.88315 0.0
C600 C 0.74995 0.55432 0.88298 0.0
C601 C 0.78252 0.53932 0.83224 0.0
C602 C 0.76202 0.57736 0.82862 0.0
C603 C 0.78468 0.58183 0.7779 0.0
H604 H 0.55149 0.25347 0.92732 0.0
H605 H 0.47654 0.18179 0.82876 0.0
H606 H 0.46958 0.2134 0.73686 0.0
H607 H 0.48374 0.26253 0.69059 0.0
H608 H 0.56005 0.33285 0.78979 0.0
H609 H 0.5673 0.3008 0.87556 0.0
C610 C 0.53378 0.24468 0.88506 0.0
C611 C 0.51454 0.21539 0.88496 0.0
C612 C 0.52996 0.26287 0.83307 0.0
C613 C 0.49182 0.20428 0.82942 0.0
C614 C 0.48769 0.2224 0.7775 0.0
C615 C 0.50191 0.27068 0.73095 0.0
C616 C 0.52125 0.30007 0.73382 0.0
C617 C 0.50638 0.25189 0.7798 0.0
C618 C 0.54491 0.31035 0.78582 0.0
C619 C 0.54911 0.29204 0.83518 0.0
H620 H 0.81626 0.31957 0.92173 0.0
H621 H 0.88725 0.31423 0.82759 0.0
H622 H 0.8553 0.27498 0.73774 0.0
H623 H 0.80608 0.2402 0.69159 0.0
H624 H 0.73648 0.24815 0.78663 0.0
H625 H 0.76886 0.28797 0.87069 0.0
C626 C 0.82484 0.31004 0.88093 0.0
C627 C 0.85404 0.31974 0.88146 0.0
C628 C 0.80646 0.28762 0.83013 0.0
C629 C 0.86484 0.30731 0.82777 0.0
C630 C 0.84653 0.28468 0.77699 0.0
C631 C 0.79816 0.25074 0.73073 0.0
C632 C 0.76888 0.24112 0.73284 0.0
C633 C 0.81714 0.27428 0.77863 0.0
C634 C 0.7589 0.25516 0.78326 0.0
C635 C 0.77739 0.27798 0.83163 0.0
H636 H 0.8896 0.46125 0.51851 0.0
H637 H 0.95241 0.52948 0.37191 0.0
H638 H 0.95499 0.49519 0.28105 0.0
H639 H 0.9353 0.44575 0.23487 0.0
H640 H 0.87453 0.37737 0.38471 0.0
H641 H 0.87532 0.41168 0.48349 0.0
C642 C 0.90421 0.46855 0.46745 0.0
C643 C 0.92057 0.4978 0.45129 0.0
C644 C 0.90574 0.4487 0.41593 0.0
C645 C 0.93967 0.50709 0.38565 0.0
C646 C 0.94099 0.48748 0.33337 0.0
C647 C 0.92267 0.43846 0.29008 0.0
C648 C 0.90471 0.40924 0.30267 0.0
C649 C 0.92354 0.45826 0.34665 0.0
C650 C 0.88856 0.39982 0.37428 0.0
C651 C 0.8889 0.41942 0.4303 0.0
H652 H 0.60879 0.44904 0.51891 0.0
H653 H 0.54045 0.44189 0.3693 0.0
H654 H 0.57455 0.47912 0.27928 0.0
H655 H 0.62395 0.50956 0.2345 0.0
H656 H 0.69242 0.51875 0.38681 0.0
H657 H 0.6582 0.48505 0.48519 0.0
C658 C 0.60141 0.45604 0.46737 0.0
C659 C 0.5722 0.44254 0.4501 0.0
C660 C 0.62115 0.47761 0.41626 0.0
C661 C 0.5628 0.45198 0.38387 0.0
C662 C 0.58231 0.47312 0.33208 0.0
C663 C 0.63127 0.50454 0.29018 0.0
C664 C 0.66049 0.51628 0.30359 0.0
C665 C 0.61152 0.48546 0.34639 0.0
C666 C 0.66996 0.50996 0.37577 0.0
C667 C 0.65041 0.49058 0.43155 0.0
H668 H 0.62237 0.184 0.51893 0.0
H669 H 0.62153 0.11609 0.38107 0.0
H670 H 0.58349 0.11304 0.29482 0.0
H671 H 0.5547 0.1337 0.24858 0.0
H672 H 0.55399 0.20025 0.38868 0.0
H673 H 0.58825 0.19974 0.48499 0.0
C674 C 0.61349 0.16822 0.47081 0.0
C675 C 0.62497 0.15055 0.45559 0.0
C676 C 0.59153 0.16651 0.4218 0.0
C677 C 0.61307 0.12993 0.39393 0.0
C678 C 0.59144 0.1283 0.3443 0.0
C679 C 0.56163 0.1476 0.30142 0.0
C680 C 0.55209 0.16704 0.31199 0.0
C681 C 0.58113 0.14704 0.35621 0.0
C682 C 0.56101 0.185 0.38016 0.0
C683 C 0.58071 0.18483 0.43463 0.0
H684 H 0.60577 0.18683 0.0169 0.0
H685 H 0.53761 0.11725 0.88651 0.0
H686 H 0.57168 0.1146 0.79577 0.0
H687 H 0.6205 0.13517 0.74478 0.0
H688 H 0.6892 0.20277 0.87812 0.0
H689 H 0.65544 0.20302 0.97701 0.0
C690 C 0.59847 0.17085 0.96932 0.0
C691 C 0.56918 0.15248 0.9579 0.0
C692 C 0.61826 0.1692 0.91776 0.0
C693 C 0.56 0.13163 0.8967 0.0
C694 C 0.57947 0.13019 0.84443 0.0
C695 C 0.62801 0.14953 0.79657 0.0
C696 C 0.65709 0.16897 0.80459 0.0
C697 C 0.60856 0.14929 0.85317 0.0
C698 C 0.66683 0.1875 0.87154 0.0
C699 C 0.64753 0.18776 0.92753 0.0
H700 H 0.8911 0.44458 0.0194 0.0
H701 H 0.95301 0.43899 0.86893 0.0
H702 H 0.95468 0.47538 0.77795 0.0
H703 H 0.93431 0.50465 0.73298 0.0
H704 H 0.87438 0.5123 0.88665 0.0
H705 H 0.87621 0.47939 0.98529 0.0
C706 C 0.90536 0.45177 0.96751 0.0
C707 C 0.92172 0.43896 0.95035 0.0
C708 C 0.90631 0.47283 0.91586 0.0
C709 C 0.94031 0.4486 0.88352 0.0
C710 C 0.94108 0.46924 0.83116 0.0
C711 C 0.92208 0.49944 0.78893 0.0
C712 C 0.90407 0.51057 0.80268 0.0
C713 C 0.92356 0.48086 0.84546 0.0
C714 C 0.88845 0.504 0.87529 0.0
C715 C 0.88938 0.48508 0.93125 0.0
H716 H 0.62588 0.46582 0.01884 0.0
H717 H 0.62948 0.53334 0.87296 0.0
H718 H 0.59276 0.49854 0.78262 0.0
H719 H 0.56384 0.44898 0.73633 0.0
H720 H 0.55825 0.38129 0.88511 0.0
H721 H 0.59137 0.416 0.98388 0.0
C722 C 0.61821 0.47286 0.96807 0.0
C723 C 0.63057 0.50208 0.95193 0.0
C724 C 0.59695 0.45272 0.91678 0.0
C725 C 0.62027 0.51099 0.88667 0.0
C726 C 0.59943 0.4911 0.83469 0.0
C727 C 0.5695 0.44192 0.79136 0.0
C728 C 0.55892 0.41279 0.80367 0.0
C729 C 0.58825 0.46195 0.84783 0.0
C730 C 0.56611 0.40366 0.87498 0.0
C731 C 0.58516 0.4235 0.93096 0.0
H732 H 0.54878 0.26257 0.23007 0.0
H733 H 0.45735 0.21583 0.22343 0.0
H734 H 0.45603 0.25485 0.29347 0.0
H735 H 0.48095 0.30063 0.3681 0.0
H736 H 0.57209 0.34502 0.38251 0.0
H737 H 0.5735 0.30894 0.29691 0.0
C738 C 0.52851 0.26094 0.2431 0.0
C739 C 0.5032 0.23608 0.22191 0.0
C740 C 0.5279 0.28321 0.28474 0.0
C741 C 0.47719 0.23455 0.23943 0.0
C742 C 0.47641 0.2569 0.27951 0.0
C743 C 0.50107 0.30268 0.3504 0.0
C744 C 0.52644 0.3256 0.38024 0.0
C745 C 0.50162 0.28114 0.30386 0.0
C746 C 0.55238 0.32771 0.35921 0.0
C747 C 0.55315 0.30698 0.31086 0.0
H748 H 0.82392 0.25885 0.1849 0.0
H749 H 0.83043 0.33279 0.30269 0.0
H750 H 0.79023 0.30299 0.38925 0.0
H751 H 0.7536 0.25647 0.43353 0.0
H752 H 0.7447 0.18136 0.31754 0.0
H753 H 0.78481 0.21089 0.22747 0.0
C754 C 0.81651 0.26826 0.22984 0.0
C755 C 0.83021 0.29801 0.2374 0.0
C756 C 0.7927 0.25084 0.27911 0.0
C757 C 0.82021 0.30999 0.29528 0.0
C758 C 0.79717 0.29298 0.34491 0.0
C759 C 0.7602 0.24645 0.38811 0.0
C760 C 0.74607 0.21673 0.38236 0.0
C761 C 0.78324 0.26346 0.33731 0.0
C762 C 0.75496 0.20422 0.32277 0.0
C763 C 0.7781 0.22111 0.27176 0.0
H764 H 0.81375 0.51961 0.4374 0.0
H765 H 0.88854 0.58478 0.31786 0.0
H766 H 0.85884 0.59506 0.22775 0.0
H767 H 0.81084 0.58611 0.18559 0.0
H768 H 0.7372 0.51971 0.3069 0.0
H769 H 0.76717 0.50975 0.39406 0.0
C770 C 0.82367 0.53594 0.39125 0.0
C771 C 0.85336 0.55132 0.38447 0.0
C772 C 0.80657 0.5418 0.34038 0.0
C773 C 0.86571 0.57235 0.32395 0.0
C774 C 0.84872 0.57843 0.27287 0.0
C775 C 0.80153 0.56963 0.23147 0.0
C776 C 0.77182 0.55373 0.23983 0.0
C777 C 0.81904 0.56348 0.28107 0.0
C778 C 0.75997 0.53218 0.29891 0.0
C779 C 0.77708 0.52641 0.34886 0.0
H780 H 0.45094 0.92127 0.27149 0.0
H781 H 0.3834 0.85153 0.14118 0.0
H782 H 0.41781 0.85143 0.04436 0.0
H783 H 0.46783 0.86844 1.00587 0.0
H784 H 0.53479 0.93987 0.13381 0.0
H785 H 0.49999 0.94234 0.22183 0.0
C786 C 0.44379 0.90651 0.22064 0.0
C787 C 0.41483 0.88647 0.21293 0.0
C788 C 0.46364 0.90674 0.16543 0.0
C789 C 0.40562 0.86731 0.14744 0.0
C790 C 0.42532 0.86713 0.09268 0.0
C791 C 0.47472 0.88477 0.05231 0.0
C792 C 0.50393 0.90375 0.06374 0.0
C793 C 0.45448 0.8863 0.10236 0.0
C794 C 0.51251 0.92501 0.12354 0.0
C795 C 0.49261 0.92637 0.17426 0.0
H796 H 0.14239 0.54884 0.2904 0.0
H797 H 0.20311 0.54165 0.13916 0.0
H798 H 0.20141 0.57448 0.03992 0.0
H799 H 0.18694 0.60962 1.00601 0.0
H800 H 0.12479 0.61524 0.15539 0.0
H801 H 0.12226 0.57819 0.24501 0.0
C802 C 0.15474 0.55404 0.23468 0.0
C803 C 0.17298 0.54314 0.22188 0.0
C804 C 0.1535 0.57273 0.17816 0.0
C805 C 0.18883 0.54975 0.1497 0.0
C806 C 0.188 0.56865 0.09347 0.0
C807 C 0.17244 0.6023 0.05732 0.0
C808 C 0.15632 0.61537 0.07471 0.0
C809 C 0.17106 0.58093 0.10841 0.0
C810 C 0.13737 0.6055 0.14069 0.0
C811 C 0.13608 0.58447 0.19229 0.0
H812 H 0.45043 0.59664 1.00587 0.0
H813 H 0.4505 0.52846 0.13916 0.0
H814 H 0.48748 0.56266 0.2294 0.0
H815 H 0.51621 0.61166 0.2793 0.0
H816 H 0.51872 0.68033 0.14297 0.0
H817 H 0.4846 0.6464 0.04437 0.0
C818 C 0.45889 0.58935 0.05394 0.0
C819 C 0.4475 0.56003 0.06635 0.0
C820 C 0.48051 0.60922 0.10517 0.0
C821 C 0.45888 0.55087 0.1282 0.0
C822 C 0.47994 0.57042 0.18017 0.0
C823 C 0.50969 0.61913 0.22688 0.0
C824 C 0.51974 0.64828 0.21806 0.0
C825 C 0.49039 0.59957 0.17046 0.0
C826 C 0.51133 0.65794 0.15027 0.0
C827 C 0.49169 0.63853 0.09444 0.0
H828 H 0.52747 0.79447 0.796 0.0
H829 H 0.61885 0.84365 0.79938 0.0
H830 H 0.62132 0.80527 0.7294 0.0
H831 H 0.59735 0.75936 0.65535 0.0
H832 H 0.50617 0.71228 0.64463 0.0
H833 H 0.50374 0.74779 0.73038 0.0
C834 C 0.54798 0.79676 0.78228 0.0
C835 C 0.57293 0.82215 0.80248 0.0
C836 C 0.54925 0.7748 0.74076 0.0
C837 C 0.59926 0.82453 0.78414 0.0
C838 C 0.60071 0.80253 0.74409 0.0
C839 C 0.57702 0.75659 0.67398 0.0
C840 C 0.55193 0.73308 0.64512 0.0
C841 C 0.57584 0.77777 0.72065 0.0
C842 C 0.52568 0.73004 0.66728 0.0
C843 C 0.52432 0.75046 0.71567 0.0
H844 H 0.32529 0.8016 0.5967 0.0
H845 H 0.32843 0.8756 0.70222 0.0
H846 H 0.28945 0.84528 0.79494 0.0
H847 H 0.25249 0.79676 0.84096 0.0
H848 H 0.25193 0.72407 0.73349 0.0
H849 H 0.29145 0.75474 0.64634 0.0
C850 C 0.31769 0.81119 0.64056 0.0
C851 C 0.32972 0.84078 0.64247 0.0
C852 C 0.29537 0.79374 0.69284 0.0
C853 C 0.31972 0.85285 0.70008 0.0
C854 C 0.29723 0.83549 0.75251 0.0
C855 C 0.26111 0.7878 0.79839 0.0
C856 C 0.2492 0.75814 0.79385 0.0
C857 C 0.28451 0.80578 0.74857 0.0
C858 C 0.26075 0.74679 0.73887 0.0
C859 C 0.28339 0.76431 0.68873 0.0
H860 H 0.20897 0.47057 0.66642 0.0
H861 H 0.25612 0.56136 0.6392 0.0
H862 H 0.29434 0.56407 0.72385 0.0
H863 H 0.31656 0.54026 0.79258 0.0
H864 H 0.27118 0.449 0.8116 0.0
H865 H 0.23023 0.44679 0.74365 0.0
C866 C 0.22729 0.49094 0.68124 0.0
C867 C 0.22967 0.5158 0.64789 0.0
C868 C 0.24977 0.49219 0.72713 0.0
C869 C 0.2538 0.54204 0.66521 0.0
C870 C 0.27572 0.54355 0.713 0.0
C871 C 0.29763 0.51987 0.78276 0.0
C872 C 0.29717 0.49483 0.80662 0.0
C873 C 0.27432 0.51871 0.74223 0.0
C874 C 0.27232 0.46863 0.79329 0.0
C875 C 0.24882 0.46733 0.75446 0.0
H876 H 0.25195 0.4725 0.33863 0.0
H877 H 0.25375 0.54613 0.23438 0.0
H878 H 0.29316 0.55439 0.14751 0.0
H879 H 0.32613 0.54038 0.09686 0.0
H880 H 0.32694 0.46804 0.19949 0.0
H881 H 0.28814 0.46 0.29215 0.0
C882 C 0.26106 0.4903 0.29687 0.0
C883 C 0.24983 0.50862 0.2931 0.0
C884 C 0.28439 0.49537 0.24723 0.0
C885 C 0.26204 0.53179 0.23917 0.0
C886 C 0.28461 0.53657 0.18917 0.0
C887 C 0.31806 0.52299 0.14009 0.0
C888 C 0.32936 0.50483 0.14117 0.0
C889 C 0.29586 0.5185 0.1924 0.0
C890 C 0.31878 0.48252 0.19799 0.0
C891 C 0.2964 0.47776 0.25039 0.0
H892 H 0.59305 0.79788 0.33841 0.0
H893 H 0.52221 0.72554 0.22493 0.0
H894 H 0.51394 0.75652 0.13752 0.0
H895 H 0.52692 0.80355 0.09011 0.0
H896 H 0.59653 0.87725 0.20132 0.0
H897 H 0.60473 0.84659 0.29384 0.0
C898 C 0.57591 0.78907 0.29437 0.0
C899 C 0.55832 0.75942 0.28818 0.0
C900 C 0.57079 0.80722 0.2445 0.0
C901 C 0.53597 0.74825 0.23141 0.0
C902 C 0.53117 0.76594 0.18122 0.0
C903 C 0.54376 0.81301 0.13508 0.0
C904 C 0.56109 0.84262 0.13872 0.0
C905 C 0.5484 0.79537 0.18711 0.0
C906 C 0.58268 0.85449 0.19782 0.0
C907 C 0.58755 0.83694 0.25012 0.0
H908 H 0.31559 0.79192 0.29486 0.0
H909 H 0.27159 0.83907 0.31445 0.0
H910 H 0.23024 0.80064 0.24666 0.0
H911 H 0.2084 0.75567 0.16872 0.0
H912 H 0.25415 0.7107 0.14092 0.0
H913 H 0.29261 0.74577 0.22618 0.0
C914 C 0.29686 0.7937 0.28524 0.0
C915 C 0.29691 0.81856 0.30903 0.0
C916 C 0.27333 0.77175 0.24478 0.0
C917 C 0.27233 0.82035 0.29607 0.0
C918 C 0.2486 0.79834 0.25735 0.0
C919 C 0.22645 0.75322 0.18359 0.0
C920 C 0.22842 0.73056 0.14982 0.0
C921 C 0.24907 0.77419 0.22979 0.0
C922 C 0.25218 0.72789 0.16724 0.0
C923 C 0.27424 0.74804 0.21535 0.0
H924 H 0.14187 0.61075 0.78903 0.0
H925 H 0.20349 0.67923 0.64118 0.0
H926 H 0.20236 0.64501 0.54145 0.0
H927 H 0.1881 0.59548 0.50648 0.0
H928 H 0.12508 0.52717 0.65258 0.0
H929 H 0.122 0.56141 0.74233 0.0
C930 C 0.15455 0.61809 0.73392 0.0
C931 C 0.17288 0.64728 0.7222 0.0
C932 C 0.15363 0.59835 0.67717 0.0
C933 C 0.18914 0.65679 0.65082 0.0
C934 C 0.18863 0.63724 0.59434 0.0
C935 C 0.17331 0.58813 0.55712 0.0
C936 C 0.15711 0.55889 0.57364 0.0
C937 C 0.17161 0.60795 0.60828 0.0
C938 C 0.13775 0.54955 0.63864 0.0
C939 C 0.13614 0.56913 0.6903 0.0
H940 H 0.45182 0.54793 0.78136 0.0
H941 H 0.38441 0.54321 0.63311 0.0
H942 H 0.41929 0.57705 0.53614 0.0
H943 H 0.46914 0.61196 0.50317 0.0
H944 H 0.53638 0.61493 0.64917 0.0
H945 H 0.50145 0.57737 0.73685 0.0
C946 C 0.44486 0.55391 0.72674 0.0
C947 C 0.41576 0.54336 0.71407 0.0
C948 C 0.46498 0.57313 0.67148 0.0
C949 C 0.40675 0.55102 0.64343 0.0
C950 C 0.42669 0.57049 0.58853 0.0
C951 C 0.47611 0.60399 0.55337 0.0
C952 C 0.50529 0.61643 0.57033 0.0
C953 C 0.45588 0.58228 0.60325 0.0
C954 C 0.51408 0.60571 0.63482 0.0
C955 C 0.4941 0.58437 0.6853 0.0
H956 H 0.44853 0.86743 0.50841 0.0
H957 H 0.45486 0.94095 0.62838 0.0
H958 H 0.49329 0.94479 0.71373 0.0
H959 H 0.52154 0.92419 0.76455 0.0
H960 H 0.51692 0.85194 0.64283 0.0
H961 H 0.48166 0.85076 0.54712 0.0
C962 C 0.45861 0.88451 0.5525 0.0
C963 C 0.44856 0.90365 0.56269 0.0
C964 C 0.48095 0.88675 0.60112 0.0
C965 C 0.4621 0.92591 0.61927 0.0
C966 C 0.48402 0.92806 0.66844 0.0
C967 C 0.51326 0.90867 0.71563 0.0
C968 C 0.52169 0.88825 0.71002 0.0
C969 C 0.49312 0.9082 0.66128 0.0
C970 C 0.51086 0.86804 0.64725 0.0
C971 C 0.49056 0.86725 0.59319 0.0
H972 H 0.08753 0.3055 0.56712 0.0
H973 H 0.10468 0.33896 0.81251 0.0
H974 H 0.13386 0.38695 0.75813 0.0
H975 H 0.15141 0.41949 0.64144 0.0
H976 H 0.13235 0.38624 0.39598 0.0
H977 H 0.10745 0.33789 0.4504 0.0
C978 C 0.09768 0.32319 0.60921 0.0
C979 C 0.09349 0.31843 0.69435 0.0
C980 C 0.11417 0.35076 0.5774 0.0
C981 C 0.10726 0.34181 0.7471 0.0
C982 C 0.12396 0.3693 0.71588 0.0
C983 C 0.14213 0.40174 0.59934 0.0
C984 C 0.14372 0.40674 0.51416 0.0
C985 C 0.12714 0.37404 0.63116 0.0
C986 C 0.13164 0.38324 0.46139 0.0
C987 C 0.11717 0.35555 0.49267 0.0
H988 H 0.76068 0.79728 0.55742 0.0
H989 H 0.72815 0.78372 0.80347 0.0
H990 H 0.6801 0.76484 0.75003 0.0
H991 H 0.64714 0.74935 0.63435 0.0
H992 H 0.67923 0.76092 0.38817 0.0
H993 H 0.72778 0.78404 0.4412 0.0
C994 C 0.74317 0.79031 0.59978 0.0
C995 C 0.74824 0.79173 0.68491 0.0
C996 C 0.7155 0.77923 0.56852 0.0
C997 C 0.72508 0.78279 0.73805 0.0
C998 C 0.69754 0.77198 0.70739 0.0
C999 C 0.66469 0.75717 0.59176 0.0
C1000 C 0.65929 0.75314 0.50685 0.0
C1001 C 0.69248 0.76972 0.62281 0.0
C1002 C 0.68253 0.7637 0.45343 0.0
C1003 C 0.71034 0.77674 0.48392 0.0
H1004 H 0.25822 0.97017 0.55592 0.0
H1005 H 0.27635 0.95579 0.802 0.0
H1006 H 0.29938 0.93035 0.74843 0.0
H1007 H 0.31887 0.91718 0.63231 0.0
H1008 H 0.3036 0.93471 0.38646 0.0
H1009 H 0.27479 0.95403 0.43994 0.0
C1010 C 0.26691 0.96125 0.59835 0.0
C1011 C 0.26579 0.96528 0.68333 0.0
C1012 C 0.28092 0.94755 0.56705 0.0
C1013 C 0.27687 0.95312 0.73667 0.0
C1014 C 0.29024 0.93876 0.7059 0.0
C1015 C 0.30911 0.925 0.58994 0.0
C1016 C 0.31381 0.92478 0.50504 0.0
C1017 C 0.29314 0.93665 0.62124 0.0
C1018 C 0.30057 0.93472 0.45174 0.0
C1019 C 0.28415 0.94584 0.48243 0.0
H1020 H 0.31192 0.0643 0.96586 0.0
H1021 H 0.34574 0.08469 0.72128 0.0
H1022 H 0.39325 0.1151 0.77709 0.0
H1023 H 0.42523 0.13357 0.89429 0.0
H1024 H 0.39192 0.11137 0.13896 0.0
H1025 H 0.34379 0.08439 0.08349 0.0
C1026 C 0.3296 0.07536 0.9243 0.0
C1027 C 0.32514 0.07185 0.83899 0.0
C1028 C 0.35687 0.0926 0.95685 0.0
C1029 C 0.34844 0.08671 0.78683 0.0
C1030 C 0.37562 0.10417 0.81883 0.0
C1031 C 0.40751 0.12308 0.93604 0.0
C1032 C 0.41238 0.12444 0.02116 0.0
C1033 C 0.38009 0.10696 0.90364 0.0
C1034 C 0.38895 0.11081 0.07354 0.0
C1035 C 0.36143 0.09519 0.0417 0.0
H1036 H 0.99083 0.2535 0.97546 0.0
H1037 H 0.97398 0.26825 0.72836 0.0
H1038 H 0.94493 0.28753 0.78021 0.0
H1039 H 0.92856 0.30458 0.89498 0.0
H1040 H 0.94758 0.29231 0.1421 0.0
H1041 H 0.97116 0.26714 0.09055 0.0
C1042 C 0.98066 0.26069 0.93249 0.0
C1043 C 0.98503 0.25969 0.84761 0.0
C1044 C 0.96443 0.27226 0.96286 0.0
C1045 C 0.97122 0.2688 0.79362 0.0
C1046 C 0.95466 0.27994 0.82339 0.0
C1047 C 0.93753 0.29615 0.93806 0.0
C1048 C 0.93646 0.30071 0.02278 0.0
C1049 C 0.95175 0.28243 0.90784 0.0
C1050 C 0.94798 0.28921 0.07696 0.0
C1051 C 0.96169 0.27499 0.04732 0.0
H1052 H 0.81564 0.75689 0.9683 0.0
H1053 H 0.7991 0.72363 0.72268 0.0
H1054 H 0.78031 0.67561 0.77668 0.0
H1055 H 0.76391 0.64298 0.89306 0.0
H1056 H 0.77749 0.67598 0.13875 0.0
H1057 H 0.80265 0.72441 0.08482 0.0
C1058 C 0.80816 0.73924 0.92609 0.0
C1059 C 0.80846 0.74402 0.84105 0.0
C1060 C 0.79678 0.71165 0.95771 0.0
C1061 C 0.79906 0.72075 0.78802 0.0
C1062 C 0.78819 0.69324 0.81904 0.0
C1063 C 0.77262 0.66069 0.93534 0.0
C1064 C 0.76841 0.65565 0.02035 0.0
C1065 C 0.78624 0.68841 0.90375 0.0
C1066 C 0.7803 0.67904 0.07344 0.0
C1067 C 0.79451 0.70677 0.04243 0.0
H1068 H 0.9245 0.63709 0.39622 0.0
H1069 H 0.94966 0.67109 0.63944 0.0
H1070 H 0.97374 0.71927 0.58348 0.0
H1071 H 0.99183 0.75102 0.46497 0.0
H1072 H 0.96906 0.71654 0.22135 0.0
H1073 H 0.9399 0.66901 0.27855 0.0
C1074 C 0.93496 0.65499 0.43756 0.0
C1075 C 0.93545 0.6503 0.52234 0.0
C1076 C 0.94956 0.68248 0.40467 0.0
C1077 C 0.94882 0.67391 0.57434 0.0
C1078 C 0.96284 0.70147 0.54212 0.0
C1079 C 0.98043 0.73321 0.42391 0.0
C1080 C 0.98307 0.73749 0.33838 0.0
C1081 C 0.96407 0.70591 0.45725 0.0
C1082 C 0.9677 0.71401 0.28699 0.0
C1083 C 0.95102 0.68681 0.3198 0.0
H1084 H 0.31865 0.26373 0.46861 0.0
H1085 H 0.35128 0.27504 0.22301 0.0
H1086 H 0.39907 0.29288 0.27712 0.0
H1087 H 0.43182 0.3082 0.39292 0.0
H1088 H 0.39982 0.29929 0.63854 0.0
H1089 H 0.35133 0.27679 0.58525 0.0
C1090 C 0.33614 0.27 0.42653 0.0
C1091 C 0.33122 0.26828 0.34133 0.0
C1092 C 0.36364 0.28049 0.45813 0.0
C1093 C 0.35429 0.27628 0.28849 0.0
C1094 C 0.38166 0.28645 0.31952 0.0
C1095 C 0.4143 0.30109 0.43535 0.0
C1096 C 0.41968 0.30571 0.52008 0.0
C1097 C 0.38662 0.28904 0.40411 0.0
C1098 C 0.39649 0.29602 0.5734 0.0
C1099 C 0.36874 0.28338 0.54275 0.0
H1100 H 0.81406 0.08506 0.46678 0.0
H1101 H 0.79622 0.10026 0.22119 0.0
H1102 H 0.77547 0.12773 0.27532 0.0
H1103 H 0.75825 0.14308 0.39169 0.0
H1104 H 0.77309 0.12501 0.63736 0.0
H1105 H 0.79971 0.10331 0.5833 0.0
C1106 C 0.80587 0.09452 0.42459 0.0
C1107 C 0.80644 0.09019 0.33955 0.0
C1108 C 0.79337 0.10967 0.45625 0.0
C1109 C 0.79599 0.10303 0.28655 0.0
C1110 C 0.78403 0.11867 0.31762 0.0
C1111 C 0.7675 0.13467 0.43394 0.0
C1112 C 0.76328 0.13543 0.51894 0.0
C1113 C 0.78196 0.12147 0.40232 0.0
C1114 C 0.77587 0.12473 0.57203 0.0
C1115 C 0.79094 0.11214 0.54097 0.0
H1116 H 0.64931 0.92531 0.1311 0.0
H1117 H 0.68235 0.94431 0.88557 0.0
H1118 H 0.7307 0.96957 0.94001 0.0
H1119 H 0.76306 0.98921 0.05665 0.0
H1120 H 0.7298 0.97225 0.30209 0.0
H1121 H 0.68179 0.94311 0.2477 0.0
C1122 C 0.66701 0.93473 0.08898 0.0
C1123 C 0.66201 0.93299 1.00384 0.0
C1124 C 0.69465 0.94981 0.12077 0.0
C1125 C 0.68541 0.94524 0.95099 0.0
C1126 C 0.71307 0.95983 0.98225 0.0
C1127 C 0.74541 0.97912 0.09875 0.0
C1128 C 0.75019 0.98328 0.18384 0.0
C1129 C 0.71787 0.96276 0.06697 0.0
C1130 C 0.72689 0.96966 0.23668 0.0
C1131 C 0.69941 0.95299 0.20547 0.0
H1132 H 0.08693 0.8002 0.05643 0.0
H1133 H 0.10277 0.78535 0.30439 0.0
H1134 H 0.13245 0.76654 0.25415 0.0
H1135 H 0.14999 0.75016 0.13998 0.0
H1136 H 0.13246 0.76336 0.8921 0.0
H1137 H 0.10772 0.78743 0.94257 0.0
C1138 C 0.097 0.79308 0.09993 0.0
C1139 C 0.09218 0.79393 0.18453 0.0
C1140 C 0.11371 0.78192 0.0705 0.0
C1141 C 0.10589 0.78492 0.23928 0.0
C1142 C 0.12281 0.77405 0.21043 0.0
C1143 C 0.14112 0.7586 0.09658 0.0
C1144 C 0.14299 0.75461 1.01185 0.0
C1145 C 0.12631 0.77184 0.12615 0.0
C1146 C 0.13147 0.76602 0.95727 0.0
C1147 C 0.11711 0.77963 0.98625 0.0
H1148 H 0.2649 0.30306 0.05566 0.0
H1149 H 0.28072 0.33656 0.30102 0.0
H1150 H 0.30069 0.38465 0.24634 0.0
H1151 H 0.31825 0.41708 0.12971 0.0
H1152 H 0.30544 0.38365 0.88457 0.0
H1153 H 0.27934 0.33535 0.93889 0.0
C1154 C 0.27248 0.32079 0.09766 0.0
C1155 C 0.27165 0.3161 0.18278 0.0
C1156 C 0.28465 0.34835 0.06574 0.0
C1157 C 0.28117 0.33943 0.23558 0.0
C1158 C 0.29273 0.36695 0.2042 0.0
C1159 C 0.30958 0.39931 0.08765 0.0
C1160 C 0.31422 0.40413 1.00276 0.0
C1161 C 0.29532 0.37167 0.11946 0.0
C1162 C 0.30238 0.3807 0.94984 0.0
C1163 C 0.28756 0.35306 0.98103 0.0
H1164 H 0.98287 0.3967 0.30345 0.0
H1165 H 1.0169 0.41684 0.05908 0.0
H1166 H 0.06496 0.4426 0.11516 0.0
H1167 H 0.0971 0.45761 0.23238 0.0
H1168 H 0.06336 0.43643 0.47682 0.0
H1169 H 1.01512 0.41291 0.42122 0.0
C1170 C 1.00071 0.40675 0.26198 0.0
C1171 C 0.99607 0.40459 0.17658 0.0
C1172 C 0.02829 0.42127 0.29468 0.0
C1173 C 1.01966 0.418 0.12465 0.0
C1174 C 0.04717 0.43271 0.15682 0.0
C1175 C 0.0793 0.44794 0.27407 0.0
C1176 C 0.08406 0.44871 0.3592 0.0
C1177 C 0.05171 0.4342 0.24161 0.0
C1178 C 0.0605 0.43619 0.41142 0.0
C1179 C 0.03289 0.42267 0.37949 0.0
H1180 H 0.67093 0.60552 0.30179 0.0
H1181 H 0.65163 0.61924 0.05635 0.0
H1182 H 0.62443 0.64021 0.11089 0.0
H1183 H 0.60784 0.65628 0.22738 0.0
H1184 H 0.62811 0.64375 0.47288 0.0
H1185 H 0.65311 0.62038 0.4186 0.0
C1186 C 0.66077 0.613 0.25975 0.0
C1187 C 0.66361 0.61086 0.1745 0.0
C1188 C 0.64534 0.62525 0.29161 0.0
C1189 C 0.65 0.6206 0.12184 0.0
C1190 C 0.63444 0.63263 0.15314 0.0
C1191 C 0.61758 0.64838 0.26956 0.0
C1192 C 0.6161 0.65202 0.35467 0.0
C1193 C 0.63222 0.63531 0.23783 0.0
C1194 C 0.62882 0.64136 0.40748 0.0
C1195 C 0.64321 0.62806 0.37631 0.0
H1196 H 0.41295 0.97058 0.22283 0.0
H1197 H 0.42926 1.00291 0.46951 0.0
H1198 H 0.45456 0.05144 0.41684 0.0
H1199 H 0.46946 0.08447 0.30155 0.0
H1200 H 0.4515 0.05217 0.05492 0.0
H1201 H 0.4295 1.00365 0.10737 0.0
C1202 C 0.42214 0.98816 0.26553 0.0
C1203 C 0.41894 0.9829 0.35051 0.0
C1204 C 0.43625 1.01599 0.23478 0.0
C1205 C 0.43124 1.00615 0.40414 0.0
C1206 C 0.44566 0.03394 0.37394 0.0
C1207 C 0.46089 0.0669 0.25878 0.0
C1208 C 0.46203 0.07215 0.17394 0.0
C1209 C 0.44789 0.03908 0.28945 0.0
C1210 C 0.45092 0.04893 0.1202 0.0
C1211 C 0.43826 0.02115 0.15029 0.0
H1212 H 0.60498 0.97341 0.72235 0.0
H1213 H 0.62427 1.00571 0.96878 0.0
H1214 H 0.64785 0.05428 0.91617 0.0
H1215 H 0.66522 0.08736 0.80043 0.0
H1216 H 0.64714 0.05487 0.55402 0.0
H1217 H 0.62078 1.00645 0.60696 0.0
C1218 C 0.61416 0.99099 0.76504 0.0
C1219 C 0.61289 0.98569 0.8499 0.0
C1220 C 0.62807 0.01883 0.73428 0.0
C1221 C 0.62484 1.00896 0.90351 0.0
C1222 C 0.63845 0.03678 0.87331 0.0
C1223 C 0.65547 0.06977 0.75788 0.0
C1224 C 0.65845 0.07497 0.67284 0.0
C1225 C 0.64057 0.04195 0.7888 0.0
C1226 C 0.64539 0.0517 0.61942 0.0
C1227 C 0.63031 0.02396 0.64978 0.0
H1228 H 0.09643 0.65734 0.73118 0.0
H1229 H 0.06265 0.64231 0.97596 0.0
H1230 H 1.01444 0.61674 0.92046 0.0
H1231 H 0.98216 0.60051 0.80297 0.0
H1232 H 1.01604 0.61676 0.55822 0.0
H1233 H 0.0642 0.64003 0.61391 0.0
C1234 C 0.07861 0.64847 0.77294 0.0
C1235 C 0.08337 0.65202 0.85819 0.0
C1236 C 0.05101 0.63409 0.74055 0.0
C1237 C 0.0598 0.64006 0.91048 0.0
C1238 C 0.03221 0.62547 0.87862 0.0
C1239 C 0.99998 0.60901 0.7613 0.0
C1240 C 0.99527 0.60691 0.67595 0.0
C1241 C 0.02759 0.62264 0.79379 0.0
C1242 C 1.01885 0.61803 0.62377 0.0
C1243 C 0.04642 0.6314 0.65572 0.0
H1244 H 0.47142 0.4034 0.7961 0.0
H1245 H 0.45225 0.41681 0.55018 0.0
H1246 H 0.42879 0.4418 0.60388 0.0
H1247 H 0.41187 0.45768 0.72022 0.0
H1248 H 0.42964 0.44271 0.96613 0.0
H1249 H 0.45575 0.42049 0.91218 0.0
C1250 C 0.46224 0.41182 0.75371 0.0
C1251 C 0.46355 0.40796 0.66868 0.0
C1252 C 0.44848 0.4258 0.78508 0.0
C1253 C 0.45159 0.41931 0.61554 0.0
C1254 C 0.43811 0.43357 0.64636 0.0
C1255 C 0.42152 0.44972 0.7625 0.0
C1256 C 0.41855 0.45183 0.84767 0.0
C1257 C 0.43614 0.43661 0.73101 0.0
C1258 C 0.43143 0.44141 0.90068 0.0
C1259 C 0.44633 0.42863 0.86973 0.0
loop_
_geom_bond_atom_site_label_1
_geom_bond_atom_site_label_2
_geom_bond_distance
_geom_bond_site_symmetry_2
_ccdc_geom_bond_type
Fe0 O2 1.918 . S
Fe0 O5 1.997 1_455 S
Fe0 O6 2.002 1_455 S
Fe0 O11 1.976 . S
Fe0 O14 1.996 . S
Fe1 O2 1.918 . S
Fe1 O9 1.997 1_455 S
Fe1 O12 1.996 . S
Fe1 O16 1.976 . S
Fe1 O19 2.002 1_455 S
O2 Fe0 1.918 . S
O2 Fe1 1.918 . S
O2 Fe3 1.918 . S
Fe3 O2 1.918 . S
Fe3 O4 2.002 1_455 S
Fe3 O13 1.976 . S
Fe3 O17 1.996 . S
Fe3 O20 1.997 1_455 S
O4 Fe3 2.002 1_655 S
O4 C21 1.295 . S
O5 Fe0 1.997 1_655 S
O5 C21 1.235 . S
O6 Fe0 2.002 1_655 S
O6 C7 1.295 . S
C7 O6 1.295 . S
C7 O9 1.235 . S
C8 O13 1.287 . S
C8 O14 1.255 . S
O9 Fe1 1.997 1_655 S
O9 C7 1.235 . S
C10 O16 1.287 . S
C10 O17 1.255 . S
O11 Fe0 1.976 . S
O11 C18 1.287 . S
O12 Fe1 1.996 . S
O12 C18 1.255 . S
O13 Fe3 1.976 . S
O13 C8 1.287 . S
O14 Fe0 1.996 . S
O14 C8 1.255 . S
C15 O19 1.295 . S
C15 O20 1.235 . S
O16 Fe1 1.976 . S
O16 C10 1.287 . S
O17 Fe3 1.996 . S
O17 C10 1.255 . S
C18 O11 1.287 . S
C18 O12 1.255 . S
O19 Fe1 2.002 1_655 S
O19 C15 1.295 . S
O20 Fe3 1.997 1_655 S
O20 C15 1.235 . S
C21 O4 1.295 . S
C21 O5 1.235 . S
Fe22 O24 1.918 . S
Fe22 O27 1.997 . S
Fe22 O28 2.002 . S
Fe22 O33 1.976 . S
Fe22 O36 1.996 . S
Fe23 O24 1.918 . S
Fe23 O31 1.997 . S
Fe23 O34 1.996 . S
Fe23 O38 1.976 . S
Fe23 O41 2.002 . S
O24 Fe22 1.918 . S
O24 Fe23 1.918 . S
O24 Fe25 1.918 . S
Fe25 O24 1.918 . S
Fe25 O26 2.002 . S
Fe25 O35 1.976 . S
Fe25 O39 1.996 . S
Fe25 O42 1.997 . S
O26 Fe25 2.002 . S
O26 C43 1.295 . S
O27 Fe22 1.997 . S
O27 C43 1.235 . S
O28 Fe22 2.002 . S
O28 C29 1.295 . S
C29 O28 1.295 . S
C29 O31 1.235 . S
C30 O35 1.287 . S
C30 O36 1.255 . S
O31 Fe23 1.997 . S
O31 C29 1.235 . S
C32 O38 1.287 . S
C32 O39 1.255 . S
O33 Fe22 1.976 . S
O33 C40 1.287 . S
O34 Fe23 1.996 . S
O34 C40 1.255 . S
O35 Fe25 1.976 . S
O35 C30 1.287 . S
O36 Fe22 1.996 . S
O36 C30 1.255 . S
C37 O41 1.295 . S
C37 O42 1.235 . S
O38 Fe23 1.976 . S
O38 C32 1.287 . S
O39 Fe25 1.996 . S
O39 C32 1.255 . S
C40 O33 1.287 . S
C40 O34 1.255 . S
O41 Fe23 2.002 . S
O41 C37 1.295 . S
O42 Fe25 1.997 . S
O42 C37 1.235 . S
C43 O26 1.295 . S
C43 O27 1.235 . S
Fe44 O46 1.918 . S
Fe44 O49 1.997 1_545 S
Fe44 O50 2.002 1_545 S
Fe44 O55 1.976 . S
Fe44 O58 1.996 . S
Fe45 O46 1.918 . S
Fe45 O53 1.997 1_545 S
Fe45 O56 1.996 . S
Fe45 O60 1.976 . S
Fe45 O63 2.002 1_545 S
O46 Fe44 1.918 . S
O46 Fe45 1.918 . S
O46 Fe47 1.918 . S
Fe47 O46 1.918 . S
Fe47 O48 2.002 1_545 S
Fe47 O57 1.976 . S
Fe47 O61 1.996 . S
Fe47 O64 1.997 1_545 S
O48 Fe47 2.002 1_565 S
O48 C65 1.295 . S
O49 Fe44 1.997 1_565 S
O49 C65 1.235 . S
O50 Fe44 2.002 1_565 S
O50 C51 1.295 . S
C51 O50 1.295 . S
C51 O53 1.235 . S
C52 O57 1.287 . S
C52 O58 1.255 . S
O53 Fe45 1.997 1_565 S
O53 C51 1.235 . S
C54 O60 1.287 . S
C54 O61 1.255 . S
O55 Fe44 1.976 . S
O55 C62 1.287 . S
O56 Fe45 1.996 . S
O56 C62 1.255 . S
O57 Fe47 1.976 . S
O57 C52 1.287 . S
O58 Fe44 1.996 . S
O58 C52 1.255 . S
C59 O63 1.295 . S
C59 O64 1.235 . S
O60 Fe45 1.976 . S
O60 C54 1.287 . S
O61 Fe47 1.996 . S
O61 C54 1.255 . S
C62 O55 1.287 . S
C62 O56 1.255 . S
O63 Fe45 2.002 1_565 S
O63 C59 1.295 . S
O64 Fe47 1.997 1_565 S
O64 C59 1.235 . S
C65 O48 1.295 . S
C65 O49 1.235 . S
Fe66 O68 1.918 . S
Fe66 O71 1.997 . S
Fe66 O72 2.002 . S
Fe66 O77 1.976 1_455 S
Fe66 O80 1.996 1_455 S
Fe67 O68 1.918 . S
Fe67 O75 1.997 . S
Fe67 O78 1.996 1_455 S
Fe67 O82 1.976 1_455 S
Fe67 O85 2.002 . S
O68 Fe66 1.918 . S
O68 Fe67 1.918 . S
O68 Fe69 1.918 . S
Fe69 O68 1.918 . S
Fe69 O70 2.002 . S
Fe69 O79 1.976 1_455 S
Fe69 O83 1.996 1_455 S
Fe69 O86 1.997 . S
O70 Fe69 2.002 . S
O70 C87 1.295 . S
O71 Fe66 1.997 . S
O71 C87 1.235 . S
O72 Fe66 2.002 . S
O72 C73 1.295 . S
C73 O72 1.295 . S
C73 O75 1.235 . S
C74 O79 1.287 . S
C74 O80 1.255 . S
O75 Fe67 1.997 . S
O75 C73 1.235 . S
C76 O82 1.287 . S
C76 O83 1.255 . S
O77 Fe66 1.976 1_655 S
O77 C84 1.287 . S
O78 Fe67 1.996 1_655 S
O78 C84 1.255 . S
O79 Fe69 1.976 1_655 S
O79 C74 1.287 . S
O80 Fe66 1.996 1_655 S
O80 C74 1.255 . S
C81 O85 1.295 . S
C81 O86 1.235 . S
O82 Fe67 1.976 1_655 S
O82 C76 1.287 . S
O83 Fe69 1.996 1_655 S
O83 C76 1.255 . S
C84 O77 1.287 . S
C84 O78 1.255 . S
O85 Fe67 2.002 . S
O85 C81 1.295 . S
O86 Fe69 1.997 . S
O86 C81 1.235 . S
C87 O70 1.295 . S
C87 O71 1.235 . S
Fe88 O90 1.918 . S
Fe88 O93 1.997 . S
Fe88 O94 2.002 . S
Fe88 O99 1.976 . S
Fe88 O102 1.996 . S
Fe89 O90 1.918 . S
Fe89 O97 1.997 . S
Fe89 O100 1.996 . S
Fe89 O104 1.976 . S
Fe89 O107 2.002 . S
O90 Fe88 1.918 . S
O90 Fe89 1.918 . S
O90 Fe91 1.918 . S
Fe91 O90 1.918 . S
Fe91 O92 2.002 . S
Fe91 O101 1.976 . S
Fe91 O105 1.996 . S
Fe91 O108 1.997 . S
O92 Fe91 2.002 . S
O92 C109 1.295 . S
O93 Fe88 1.997 . S
O93 C109 1.235 . S
O94 Fe88 2.002 . S
O94 C95 1.295 . S
C95 O94 1.295 . S
C95 O97 1.235 . S
C96 O101 1.287 . S
C96 O102 1.255 . S
O97 Fe89 1.997 . S
O97 C95 1.235 . S
C98 O104 1.287 . S
C98 O105 1.255 . S
O99 Fe88 1.976 . S
O99 C106 1.287 . S
O100 Fe89 1.996 . S
O100 C106 1.255 . S
O101 Fe91 1.976 . S
O101 C96 1.287 . S
O102 Fe88 1.996 . S
O102 C96 1.255 . S
C103 O107 1.295 . S
C103 O108 1.235 . S
O104 Fe89 1.976 . S
O104 C98 1.287 . S
O105 Fe91 1.996 . S
O105 C98 1.255 . S
C106 O99 1.287 . S
C106 O100 1.255 . S
O107 Fe89 2.002 . S
O107 C103 1.295 . S
O108 Fe91 1.997 . S
O108 C103 1.235 . S
C109 O92 1.295 . S
C109 O93 1.235 . S
Fe110 O112 1.918 . S
Fe110 O115 1.997 . S
Fe110 O116 2.002 . S
Fe110 O121 1.976 1_545 S
Fe110 O124 1.996 1_545 S
Fe111 O112 1.918 . S
Fe111 O119 1.997 . S
Fe111 O122 1.996 1_545 S
Fe111 O126 1.976 1_545 S
Fe111 O129 2.002 . S
O112 Fe110 1.918 . S
O112 Fe111 1.918 . S
O112 Fe113 1.918 . S
Fe113 O112 1.918 . S
Fe113 O114 2.002 . S
Fe113 O123 1.976 1_545 S
Fe113 O127 1.996 1_545 S
Fe113 O130 1.997 . S
O114 Fe113 2.002 . S
O114 C131 1.295 . S
O115 Fe110 1.997 . S
O115 C131 1.235 . S
O116 Fe110 2.002 . S
O116 C117 1.295 . S
C117 O116 1.295 . S
C117 O119 1.235 . S
C118 O123 1.287 . S
C118 O124 1.255 . S
O119 Fe111 1.997 . S
O119 C117 1.235 . S
C120 O126 1.287 . S
C120 O127 1.255 . S
O121 Fe110 1.976 1_565 S
O121 C128 1.287 . S
O122 Fe111 1.996 1_565 S
O122 C128 1.255 . S
O123 Fe113 1.976 1_565 S
O123 C118 1.287 . S
O124 Fe110 1.996 1_565 S
O124 C118 1.255 . S
C125 O129 1.295 . S
C125 O130 1.235 . S
O126 Fe111 1.976 1_565 S
O126 C120 1.287 . S
O127 Fe113 1.996 1_565 S
O127 C120 1.255 . S
C128 O121 1.287 . S
C128 O122 1.255 . S
O129 Fe111 2.002 . S
O129 C125 1.295 . S
O130 Fe113 1.997 . S
O130 C125 1.235 . S
C131 O114 1.295 . S
C131 O115 1.235 . S
Fe132 O134 1.918 . S
Fe132 O137 1.997 . S
Fe132 O138 2.002 . S
Fe132 O143 1.976 . S
Fe132 O146 1.996 . S
Fe133 O134 1.918 . S
Fe133 O141 1.997 . S
Fe133 O144 1.996 . S
Fe133 O148 1.976 . S
Fe133 O151 2.002 1_554 S
O134 Fe132 1.918 . S
O134 Fe133 1.918 . S
O134 Fe135 1.918 1_554 S
Fe135 O134 1.918 1_556 S
Fe135 O136 2.002 1_556 S
Fe135 O145 1.976 1_556 S
Fe135 O149 1.996 . S
Fe135 O152 1.997 . S
O136 Fe135 2.002 1_554 S
O136 C153 1.295 . S
O137 Fe132 1.997 . S
O137 C153 1.235 . S
O138 Fe132 2.002 . S
O138 C139 1.295 . S
C139 O138 1.295 . S
C139 O141 1.235 . S
C140 O145 1.287 . S
C140 O146 1.255 . S
O141 Fe133 1.997 . S
O141 C139 1.235 . S
C142 O148 1.287 1_556 S
C142 O149 1.255 . S
O143 Fe132 1.976 . S
O143 C150 1.287 . S
O144 Fe133 1.996 . S
O144 C150 1.255 . S
O145 Fe135 1.976 1_554 S
O145 C140 1.287 . S
O146 Fe132 1.996 . S
O146 C140 1.255 . S
C147 O151 1.295 . S
C147 O152 1.235 . S
O148 Fe133 1.976 . S
O148 C142 1.287 1_554 S
O149 Fe135 1.996 . S
O149 C142 1.255 . S
C150 O143 1.287 . S
C150 O144 1.255 . S
O151 Fe133 2.002 1_556 S
O151 C147 1.295 . S
O152 Fe135 1.997 . S
O152 C147 1.235 . S
C153 O136 1.295 . S
C153 O137 1.235 . S
Fe154 O156 1.918 . S
Fe154 O159 1.997 . S
Fe154 O160 2.002 . S
Fe154 O165 1.976 . S
Fe154 O168 1.996 . S
Fe155 O156 1.918 . S
Fe155 O163 1.997 . S
Fe155 O166 1.996 . S
Fe155 O170 1.976 . S
Fe155 O173 2.002 1_554 S
O156 Fe154 1.918 . S
O156 Fe155 1.918 . S
O156 Fe157 1.918 1_554 S
Fe157 O156 1.918 1_556 S
Fe157 O158 2.002 1_556 S
Fe157 O167 1.976 1_556 S
Fe157 O171 1.996 . S
Fe157 O174 1.997 . S
O158 Fe157 2.002 1_554 S
O158 C175 1.295 . S
O159 Fe154 1.997 . S
O159 C175 1.235 . S
O160 Fe154 2.002 . S
O160 C161 1.295 . S
C161 O160 1.295 . S
C161 O163 1.235 . S
C162 O167 1.287 . S
C162 O168 1.255 . S
O163 Fe155 1.997 . S
O163 C161 1.235 . S
C164 O170 1.287 1_556 S
C164 O171 1.255 . S
O165 Fe154 1.976 . S
O165 C172 1.287 . S
O166 Fe155 1.996 . S
O166 C172 1.255 . S
O167 Fe157 1.976 1_554 S
O167 C162 1.287 . S
O168 Fe154 1.996 . S
O168 C162 1.255 . S
C169 O173 1.295 . S
C169 O174 1.235 . S
O170 Fe155 1.976 . S
O170 C164 1.287 1_554 S
O171 Fe157 1.996 . S
O171 C164 1.255 . S
C172 O165 1.287 . S
C172 O166 1.255 . S
O173 Fe155 2.002 1_556 S
O173 C169 1.295 . S
O174 Fe157 1.997 . S
O174 C169 1.235 . S
C175 O158 1.295 . S
C175 O159 1.235 . S
Fe176 O178 1.918 . S
Fe176 O181 1.997 . S
Fe176 O182 2.002 . S
Fe176 O187 1.976 . S
Fe176 O190 1.996 . S
Fe177 O178 1.918 . S
Fe177 O185 1.997 . S
Fe177 O188 1.996 . S
Fe177 O192 1.976 . S
Fe177 O195 2.002 1_554 S
O178 Fe176 1.918 . S
O178 Fe177 1.918 . S
O178 Fe179 1.918 1_554 S
Fe179 O178 1.918 1_556 S
Fe179 O180 2.002 1_556 S
Fe179 O189 1.976 1_556 S
Fe179 O193 1.996 . S
Fe179 O196 1.997 . S
O180 Fe179 2.002 1_554 S
O180 C197 1.295 . S
O181 Fe176 1.997 . S
O181 C197 1.235 . S
O182 Fe176 2.002 . S
O182 C183 1.295 . S
C183 O182 1.295 . S
C183 O185 1.235 . S
C184 O189 1.287 . S
C184 O190 1.255 . S
O185 Fe177 1.997 . S
O185 C183 1.235 . S
C186 O192 1.287 1_556 S
C186 O193 1.255 . S
O187 Fe176 1.976 . S
O187 C194 1.287 . S
O188 Fe177 1.996 . S
O188 C194 1.255 . S
O189 Fe179 1.976 1_554 S
O189 C184 1.287 . S
O190 Fe176 1.996 . S
O190 C184 1.255 . S
C191 O195 1.295 . S
C191 O196 1.235 . S
O192 Fe177 1.976 . S
O192 C186 1.287 1_554 S
O193 Fe179 1.996 . S
O193 C186 1.255 . S
C194 O187 1.287 . S
C194 O188 1.255 . S
O195 Fe177 2.002 1_556 S
O195 C191 1.295 . S
O196 Fe179 1.997 . S
O196 C191 1.235 . S
C197 O180 1.295 . S
C197 O181 1.235 . S
Fe198 O200 1.918 . S
Fe198 O203 1.997 . S
Fe198 O204 2.002 . S
Fe198 O209 1.976 . S
Fe198 O212 1.996 . S
Fe199 O200 1.918 . S
Fe199 O207 1.997 . S
Fe199 O210 1.996 . S
Fe199 O214 1.976 . S
Fe199 O217 2.002 . S
O200 Fe198 1.918 . S
O200 Fe199 1.918 . S
O200 Fe201 1.918 . S
Fe201 O200 1.918 . S
Fe201 O202 2.002 . S
Fe201 O211 1.976 . S
Fe201 O215 1.996 . S
Fe201 O218 1.997 . S
O202 Fe201 2.002 . S
O202 C219 1.295 . S
O203 Fe198 1.997 . S
O203 C219 1.235 . S
O204 Fe198 2.002 . S
O204 C205 1.295 . S
C205 O204 1.295 . S
C205 O207 1.235 . S
C206 O211 1.287 . S
C206 O212 1.255 . S
O207 Fe199 1.997 . S
O207 C205 1.235 . S
C208 O214 1.287 . S
C208 O215 1.255 . S
O209 Fe198 1.976 . S
O209 C216 1.287 . S
O210 Fe199 1.996 . S
O210 C216 1.255 . S
O211 Fe201 1.976 . S
O211 C206 1.287 . S
O212 Fe198 1.996 . S
O212 C206 1.255 . S
C213 O217 1.295 . S
C213 O218 1.235 . S
O214 Fe199 1.976 . S
O214 C208 1.287 . S
O215 Fe201 1.996 . S
O215 C208 1.255 . S
C216 O209 1.287 . S
C216 O210 1.255 . S
O217 Fe199 2.002 . S
O217 C213 1.295 . S
O218 Fe201 1.997 . S
O218 C213 1.235 . S
C219 O202 1.295 . S
C219 O203 1.235 . S
Fe220 O222 1.918 . S
Fe220 O225 1.997 . S
Fe220 O226 2.002 . S
Fe220 O231 1.976 . S
Fe220 O234 1.996 . S
Fe221 O222 1.918 . S
Fe221 O229 1.997 . S
Fe221 O232 1.996 . S
Fe221 O236 1.976 . S
Fe221 O239 2.002 . S
O222 Fe220 1.918 . S
O222 Fe221 1.918 . S
O222 Fe223 1.918 . S
Fe223 O222 1.918 . S
Fe223 O224 2.002 . S
Fe223 O233 1.976 . S
Fe223 O237 1.996 . S
Fe223 O240 1.997 . S
O224 Fe223 2.002 . S
O224 C241 1.295 . S
O225 Fe220 1.997 . S
O225 C241 1.235 . S
O226 Fe220 2.002 . S
O226 C227 1.295 . S
C227 O226 1.295 . S
C227 O229 1.235 . S
C228 O233 1.287 . S
C228 O234 1.255 . S
O229 Fe221 1.997 . S
O229 C227 1.235 . S
C230 O236 1.287 . S
C230 O237 1.255 . S
O231 Fe220 1.976 . S
O231 C238 1.287 . S
O232 Fe221 1.996 . S
O232 C238 1.255 . S
O233 Fe223 1.976 . S
O233 C228 1.287 . S
O234 Fe220 1.996 . S
O234 C228 1.255 . S
C235 O239 1.295 . S
C235 O240 1.235 . S
O236 Fe221 1.976 . S
O236 C230 1.287 . S
O237 Fe223 1.996 . S
O237 C230 1.255 . S
C238 O231 1.287 . S
C238 O232 1.255 . S
O239 Fe221 2.002 . S
O239 C235 1.295 . S
O240 Fe223 1.997 . S
O240 C235 1.235 . S
C241 O224 1.295 . S
C241 O225 1.235 . S
Fe242 O244 1.918 . S
Fe242 O247 1.997 . S
Fe242 O248 2.002 . S
Fe242 O253 1.976 . S
Fe242 O256 1.996 . S
Fe243 O244 1.918 . S
Fe243 O251 1.997 . S
Fe243 O254 1.996 . S
Fe243 O258 1.976 . S
Fe243 O261 2.002 . S
O244 Fe242 1.918 . S
O244 Fe243 1.918 . S
O244 Fe245 1.918 . S
Fe245 O244 1.918 . S
Fe245 O246 2.002 . S
Fe245 O255 1.976 . S
Fe245 O259 1.996 . S
Fe245 O262 1.997 . S
O246 Fe245 2.002 . S
O246 C263 1.295 . S
O247 Fe242 1.997 . S
O247 C263 1.235 . S
O248 Fe242 2.002 . S
O248 C249 1.295 . S
C249 O248 1.295 . S
C249 O251 1.235 . S
C250 O255 1.287 . S
C250 O256 1.255 . S
O251 Fe243 1.997 . S
O251 C249 1.235 . S
C252 O258 1.287 . S
C252 O259 1.255 . S
O253 Fe242 1.976 . S
O253 C260 1.287 . S
O254 Fe243 1.996 . S
O254 C260 1.255 . S
O255 Fe245 1.976 . S
O255 C250 1.287 . S
O256 Fe242 1.996 . S
O256 C250 1.255 . S
C257 O261 1.295 . S
C257 O262 1.235 . S
O258 Fe243 1.976 . S
O258 C252 1.287 . S
O259 Fe245 1.996 . S
O259 C252 1.255 . S
C260 O253 1.287 . S
C260 O254 1.255 . S
O261 Fe243 2.002 . S
O261 C257 1.295 . S
O262 Fe245 1.997 . S
O262 C257 1.235 . S
C263 O246 1.295 . S
C263 O247 1.235 . S
Fe264 O266 1.918 . S
Fe264 O269 1.997 . S
Fe264 O270 2.002 . S
Fe264 O275 1.976 . S
Fe264 O278 1.996 . S
Fe265 O266 1.918 . S
Fe265 O273 1.997 . S
Fe265 O276 1.996 . S
Fe265 O280 1.976 . S
Fe265 O283 2.002 . S
O266 Fe264 1.918 . S
O266 Fe265 1.918 . S
O266 Fe267 1.918 . S
Fe267 O266 1.918 . S
Fe267 O268 2.002 . S
Fe267 O277 1.976 . S
Fe267 O281 1.996 . S
Fe267 O284 1.997 . S
O268 Fe267 2.002 . S
O268 C285 1.295 . S
O269 Fe264 1.997 . S
O269 C285 1.235 . S
O270 Fe264 2.002 . S
O270 C271 1.295 . S
C271 O270 1.295 . S
C271 O273 1.235 . S
C272 O277 1.287 . S
C272 O278 1.255 . S
O273 Fe265 1.997 . S
O273 C271 1.235 . S
C274 O280 1.287 . S
C274 O281 1.255 . S
O275 Fe264 1.976 . S
O275 C282 1.287 . S
O276 Fe265 1.996 . S
O276 C282 1.255 . S
O277 Fe267 1.976 . S
O277 C272 1.287 . S
O278 Fe264 1.996 . S
O278 C272 1.255 . S
C279 O283 1.295 . S
C279 O284 1.235 . S
O280 Fe265 1.976 . S
O280 C274 1.287 . S
O281 Fe267 1.996 . S
O281 C274 1.255 . S
C282 O275 1.287 . S
C282 O276 1.255 . S
O283 Fe265 2.002 . S
O283 C279 1.295 . S
O284 Fe267 1.997 . S
O284 C279 1.235 . S
C285 O268 1.295 . S
C285 O269 1.235 . S
Fe286 O288 1.918 . S
Fe286 O291 1.997 . S
Fe286 O292 2.002 . S
Fe286 O297 1.976 . S
Fe286 O300 1.996 . S
Fe287 O288 1.918 . S
Fe287 O295 1.997 . S
Fe287 O298 1.996 . S
Fe287 O302 1.976 . S
Fe287 O305 2.002 . S
O288 Fe286 1.918 . S
O288 Fe287 1.918 . S
O288 Fe289 1.918 . S
Fe289 O288 1.918 . S
Fe289 O290 2.002 . S
Fe289 O299 1.976 . S
Fe289 O303 1.996 . S
Fe289 O306 1.997 . S
O290 Fe289 2.002 . S
O290 C307 1.295 . S
O291 Fe286 1.997 . S
O291 C307 1.235 . S
O292 Fe286 2.002 . S
O292 C293 1.295 . S
C293 O292 1.295 . S
C293 O295 1.235 . S
C294 O299 1.287 . S
C294 O300 1.255 . S
O295 Fe287 1.997 . S
O295 C293 1.235 . S
C296 O302 1.287 . S
C296 O303 1.255 . S
O297 Fe286 1.976 . S
O297 C304 1.287 . S
O298 Fe287 1.996 . S
O298 C304 1.255 . S
O299 Fe289 1.976 . S
O299 C294 1.287 . S
O300 Fe286 1.996 . S
O300 C294 1.255 . S
C301 O305 1.295 . S
C301 O306 1.235 . S
O302 Fe287 1.976 . S
O302 C296 1.287 . S
O303 Fe289 1.996 . S
O303 C296 1.255 . S
C304 O297 1.287 . S
C304 O298 1.255 . S
O305 Fe287 2.002 . S
O305 C301 1.295 . S
O306 Fe289 1.997 . S
O306 C301 1.235 . S
C307 O290 1.295 . S
C307 O291 1.235 . S
Fe308 O310 1.918 . S
Fe308 O313 1.997 . S
Fe308 O314 2.002 . S
Fe308 O319 1.976 . S
Fe308 O322 1.996 . S
Fe309 O310 1.918 . S
Fe309 O317 1.997 . S
Fe309 O320 1.996 . S
Fe309 O324 1.976 . S
Fe309 O327 2.002 . S
O310 Fe308 1.918 . S
O310 Fe309 1.918 . S
O310 Fe311 1.918 . S
Fe311 O310 1.918 . S
Fe311 O312 2.002 . S
Fe311 O321 1.976 . S
Fe311 O325 1.996 . S
Fe311 O328 1.997 . S
O312 Fe311 2.002 . S
O312 C329 1.295 . S
O313 Fe308 1.997 . S
O313 C329 1.235 . S
O314 Fe308 2.002 . S
O314 C315 1.295 . S
C315 O314 1.295 . S
C315 O317 1.235 . S
C316 O321 1.287 . S
C316 O322 1.255 . S
O317 Fe309 1.997 . S
O317 C315 1.235 . S
C318 O324 1.287 . S
C318 O325 1.255 . S
O319 Fe308 1.976 . S
O319 C326 1.287 . S
O320 Fe309 1.996 . S
O320 C326 1.255 . S
O321 Fe311 1.976 . S
O321 C316 1.287 . S
O322 Fe308 1.996 . S
O322 C316 1.255 . S
C323 O327 1.295 . S
C323 O328 1.235 . S
O324 Fe309 1.976 . S
O324 C318 1.287 . S
O325 Fe311 1.996 . S
O325 C318 1.255 . S
C326 O319 1.287 . S
C326 O320 1.255 . S
O327 Fe309 2.002 . S
O327 C323 1.295 . S
O328 Fe311 1.997 . S
O328 C323 1.235 . S
C329 O312 1.295 . S
C329 O313 1.235 . S
Fe330 O332 1.918 1_554 S
Fe330 O335 1.997 1_554 S
Fe330 O336 2.002 . S
Fe330 O341 1.976 . S
Fe330 O344 1.996 1_554 S
Fe331 O332 1.918 . S
Fe331 O339 1.997 . S
Fe331 O342 1.996 1_556 S
Fe331 O346 1.976 . S
Fe331 O349 2.002 . S
O332 Fe330 1.918 1_556 S
O332 Fe331 1.918 . S
O332 Fe333 1.918 . S
Fe333 O332 1.918 . S
Fe333 O334 2.002 . S
Fe333 O343 1.976 . S
Fe333 O347 1.996 . S
Fe333 O350 1.997 . S
O334 Fe333 2.002 . S
O334 C351 1.295 . S
O335 Fe330 1.997 1_556 S
O335 C351 1.235 . S
O336 Fe330 2.002 . S
O336 C337 1.295 . S
C337 O336 1.295 . S
C337 O339 1.235 1_554 S
C338 O343 1.287 . S
C338 O344 1.255 . S
O339 Fe331 1.997 . S
O339 C337 1.235 1_556 S
C340 O346 1.287 . S
C340 O347 1.255 . S
O341 Fe330 1.976 . S
O341 C348 1.287 . S
O342 Fe331 1.996 1_554 S
O342 C348 1.255 . S
O343 Fe333 1.976 . S
O343 C338 1.287 . S
O344 Fe330 1.996 1_556 S
O344 C338 1.255 . S
C345 O349 1.295 . S
C345 O350 1.235 . S
O346 Fe331 1.976 . S
O346 C340 1.287 . S
O347 Fe333 1.996 . S
O347 C340 1.255 . S
C348 O341 1.287 . S
C348 O342 1.255 . S
O349 Fe331 2.002 . S
O349 C345 1.295 . S
O350 Fe333 1.997 . S
O350 C345 1.235 . S
C351 O334 1.295 . S
C351 O335 1.235 . S
Fe352 O354 1.918 . S
Fe352 O357 1.997 . S
Fe352 O358 2.002 . S
Fe352 O363 1.976 . S
Fe352 O366 1.996 . S
Fe353 O354 1.918 . S
Fe353 O361 1.997 . S
Fe353 O364 1.996 . S
Fe353 O368 1.976 . S
Fe353 O371 2.002 1_556 S
O354 Fe352 1.918 . S
O354 Fe353 1.918 . S
O354 Fe355 1.918 1_556 S
Fe355 O354 1.918 1_554 S
Fe355 O356 2.002 1_554 S
Fe355 O365 1.976 1_554 S
Fe355 O369 1.996 . S
Fe355 O372 1.997 . S
O356 Fe355 2.002 1_556 S
O356 C373 1.295 . S
O357 Fe352 1.997 . S
O357 C373 1.235 . S
O358 Fe352 2.002 . S
O358 C359 1.295 . S
C359 O358 1.295 . S
C359 O361 1.235 . S
C360 O365 1.287 . S
C360 O366 1.255 . S
O361 Fe353 1.997 . S
O361 C359 1.235 . S
C362 O368 1.287 1_554 S
C362 O369 1.255 . S
O363 Fe352 1.976 . S
O363 C370 1.287 . S
O364 Fe353 1.996 . S
O364 C370 1.255 . S
O365 Fe355 1.976 1_556 S
O365 C360 1.287 . S
O366 Fe352 1.996 . S
O366 C360 1.255 . S
C367 O371 1.295 . S
C367 O372 1.235 . S
O368 Fe353 1.976 . S
O368 C362 1.287 1_556 S
O369 Fe355 1.996 . S
O369 C362 1.255 . S
C370 O363 1.287 . S
C370 O364 1.255 . S
O371 Fe353 2.002 1_554 S
O371 C367 1.295 . S
O372 Fe355 1.997 . S
O372 C367 1.235 . S
C373 O356 1.295 . S
C373 O357 1.235 . S
Fe374 O376 1.918 . S
Fe374 O379 1.997 . S
Fe374 O380 2.002 1_556 S
Fe374 O385 1.976 . S
Fe374 O388 1.996 . S
Fe375 O376 1.918 1_554 S
Fe375 O383 1.997 . S
Fe375 O386 1.996 . S
Fe375 O390 1.976 1_554 S
Fe375 O393 2.002 1_554 S
O376 Fe374 1.918 . S
O376 Fe375 1.918 1_556 S
O376 Fe377 1.918 . S
Fe377 O376 1.918 . S
Fe377 O378 2.002 . S
Fe377 O387 1.976 . S
Fe377 O391 1.996 . S
Fe377 O394 1.997 . S
O378 Fe377 2.002 . S
O378 C395 1.295 . S
O379 Fe374 1.997 . S
O379 C395 1.235 . S
O380 Fe374 2.002 1_554 S
O380 C381 1.295 . S
C381 O380 1.295 . S
C381 O383 1.235 . S
C382 O387 1.287 . S
C382 O388 1.255 . S
O383 Fe375 1.997 . S
O383 C381 1.235 . S
C384 O390 1.287 . S
C384 O391 1.255 . S
O385 Fe374 1.976 . S
O385 C392 1.287 1_556 S
O386 Fe375 1.996 . S
O386 C392 1.255 . S
O387 Fe377 1.976 . S
O387 C382 1.287 . S
O388 Fe374 1.996 . S
O388 C382 1.255 . S
C389 O393 1.295 . S
C389 O394 1.235 . S
O390 Fe375 1.976 1_556 S
O390 C384 1.287 . S
O391 Fe377 1.996 . S
O391 C384 1.255 . S
C392 O385 1.287 1_554 S
C392 O386 1.255 . S
O393 Fe375 2.002 1_556 S
O393 C389 1.295 . S
O394 Fe377 1.997 . S
O394 C389 1.235 . S
C395 O378 1.295 . S
C395 O379 1.235 . S
H396 C402 0.930 . S
H397 C405 0.930 . S
H398 C406 0.930 . S
H399 C407 0.930 . S
H400 C410 0.930 . S
H401 C411 0.930 . S
C402 H396 0.930 . S
C402 C403 1.355 . S
C402 C404 1.415 . S
C403 C402 1.355 . S
C403 C405 1.419 . S
C404 C402 1.415 . S
C404 C409 1.425 . S
C404 C411 1.409 . S
C405 H397 0.930 . S
C405 C403 1.419 . S
C405 C406 1.362 . S
C406 H398 0.930 . S
C406 C405 1.362 . S
C406 C409 1.409 . S
C407 H399 0.930 . S
C407 C408 1.355 . S
C407 C409 1.415 . S
C408 C407 1.355 . S
C408 C410 1.419 . S
C409 C404 1.425 . S
C409 C406 1.409 . S
C409 C407 1.415 . S
C410 H400 0.930 . S
C410 C408 1.419 . S
C410 C411 1.362 . S
C411 H401 0.930 . S
C411 C404 1.409 . S
C411 C410 1.362 . S
H412 C418 0.930 . S
H413 C421 0.930 . S
H414 C422 0.930 . S
H415 C423 0.930 . S
H416 C426 0.930 . S
H417 C427 0.930 . S
C418 H412 0.930 . S
C418 C419 1.355 . S
C418 C420 1.415 . S
C419 C418 1.355 . S
C419 C421 1.419 . S
C420 C418 1.415 . S
C420 C425 1.425 . S
C420 C427 1.409 . S
C421 H413 0.930 . S
C421 C419 1.419 . S
C421 C422 1.362 . S
C422 H414 0.930 . S
C422 C421 1.362 . S
C422 C425 1.409 . S
C423 H415 0.930 . S
C423 C424 1.355 . S
C423 C425 1.415 . S
C424 C423 1.355 . S
C424 C426 1.419 . S
C425 C420 1.425 . S
C425 C422 1.409 . S
C425 C423 1.415 . S
C426 H416 0.930 . S
C426 C424 1.419 . S
C426 C427 1.362 . S
C427 H417 0.930 . S
C427 C420 1.409 . S
C427 C426 1.362 . S
H428 C434 0.930 . S
H429 C437 0.930 . S
H430 C438 0.930 . S
H431 C439 0.930 . S
H432 C442 0.930 . S
H433 C443 0.930 . S
C434 H428 0.930 . S
C434 C435 1.355 . S
C434 C436 1.415 . S
C435 C434 1.355 . S
C435 C437 1.419 . S
C436 C434 1.415 . S
C436 C441 1.425 . S
C436 C443 1.409 . S
C437 H429 0.930 . S
C437 C435 1.419 . S
C437 C438 1.362 . S
C438 H430 0.930 . S
C438 C437 1.362 . S
C438 C441 1.409 . S
C439 H431 0.930 . S
C439 C440 1.355 . S
C439 C441 1.415 . S
C440 C439 1.355 . S
C440 C442 1.419 . S
C441 C436 1.425 . S
C441 C438 1.409 . S
C441 C439 1.415 . S
C442 H432 0.930 . S
C442 C440 1.419 . S
C442 C443 1.362 . S
C443 H433 0.930 . S
C443 C436 1.409 . S
C443 C442 1.362 . S
H444 C450 0.930 . S
H445 C453 0.930 . S
H446 C454 0.930 . S
H447 C455 0.930 . S
H448 C458 0.930 . S
H449 C459 0.930 . S
C450 H444 0.930 . S
C450 C451 1.355 1_554 S
C450 C452 1.415 . S
C451 C450 1.355 1_556 S
C451 C453 1.419 . S
C452 C450 1.415 . S
C452 C457 1.425 . S
C452 C459 1.409 . S
C453 H445 0.930 . S
C453 C451 1.419 . S
C453 C454 1.362 . S
C454 H446 0.930 . S
C454 C453 1.362 . S
C454 C457 1.409 1_556 S
C455 H447 0.930 . S
C455 C456 1.355 . S
C455 C457 1.415 . S
C456 C455 1.355 . S
C456 C458 1.419 . S
C457 C452 1.425 . S
C457 C454 1.409 1_554 S
C457 C455 1.415 . S
C458 H448 0.930 . S
C458 C456 1.419 . S
C458 C459 1.362 . S
C459 H449 0.930 . S
C459 C452 1.409 . S
C459 C458 1.362 . S
H460 C466 0.930 . S
H461 C469 0.930 . S
H462 C470 0.930 . S
H463 C471 0.930 . S
H464 C474 0.930 . S
H465 C475 0.930 . S
C466 H460 0.930 . S
C466 C467 1.355 . S
C466 C468 1.415 . S
C467 C466 1.355 . S
C467 C469 1.419 . S
C468 C466 1.415 . S
C468 C473 1.425 . S
C468 C475 1.409 1_554 S
C469 H461 0.930 . S
C469 C467 1.419 . S
C469 C470 1.362 . S
C470 H462 0.930 . S
C470 C469 1.362 . S
C470 C473 1.409 . S
C471 H463 0.930 . S
C471 C472 1.355 . S
C471 C473 1.415 1_556 S
C472 C471 1.355 . S
C472 C474 1.419 . S
C473 C468 1.425 . S
C473 C470 1.409 . S
C473 C471 1.415 1_554 S
C474 H464 0.930 . S
C474 C472 1.419 . S
C474 C475 1.362 . S
C475 H465 0.930 . S
C475 C468 1.409 1_556 S
C475 C474 1.362 . S
H476 C482 0.930 . S
H477 C485 0.930 . S
H478 C486 0.930 . S
H479 C487 0.930 . S
H480 C490 0.930 1_556 S
H481 C491 0.930 . S
C482 H476 0.930 . S
C482 C483 1.355 . S
C482 C484 1.415 . S
C483 C482 1.355 . S
C483 C485 1.419 1_556 S
C484 C482 1.415 . S
C484 C489 1.425 1_556 S
C484 C491 1.409 . S
C485 H477 0.930 . S
C485 C483 1.419 1_554 S
C485 C486 1.362 . S
C486 H478 0.930 . S
C486 C485 1.362 . S
C486 C489 1.409 . S
C487 H479 0.930 . S
C487 C488 1.355 . S
C487 C489 1.415 . S
C488 C487 1.355 . S
C488 C490 1.419 . S
C489 C484 1.425 1_554 S
C489 C486 1.409 . S
C489 C487 1.415 . S
C490 H480 0.930 1_554 S
C490 C488 1.419 . S
C490 C491 1.362 1_554 S
C491 H481 0.930 . S
C491 C484 1.409 . S
C491 C490 1.362 1_556 S
H492 C498 0.930 . S
H493 C501 0.930 . S
H494 C502 0.930 . S
H495 C503 0.930 . S
H496 C506 0.930 . S
H497 C507 0.930 . S
C498 H492 0.930 . S
C498 C499 1.355 . S
C498 C500 1.415 . S
C499 C498 1.355 . S
C499 C501 1.419 . S
C500 C498 1.415 . S
C500 C505 1.425 . S
C500 C507 1.409 . S
C501 H493 0.930 . S
C501 C499 1.419 . S
C501 C502 1.362 . S
C502 H494 0.930 . S
C502 C501 1.362 . S
C502 C505 1.409 . S
C503 H495 0.930 . S
C503 C504 1.355 . S
C503 C505 1.415 . S
C504 C503 1.355 . S
C504 C506 1.419 . S
C505 C500 1.425 . S
C505 C502 1.409 . S
C505 C503 1.415 . S
C506 H496 0.930 . S
C506 C504 1.419 . S
C506 C507 1.362 . S
C507 H497 0.930 . S
C507 C500 1.409 . S
C507 C506 1.362 . S
H508 C514 0.930 . S
H509 C517 0.930 . S
H510 C518 0.930 . S
H511 C519 0.930 . S
H512 C522 0.930 . S
H513 C523 0.930 . S
C514 H508 0.930 . S
C514 C515 1.355 . S
C514 C516 1.415 . S
C515 C514 1.355 . S
C515 C517 1.419 . S
C516 C514 1.415 . S
C516 C521 1.425 . S
C516 C523 1.409 . S
C517 H509 0.930 . S
C517 C515 1.419 . S
C517 C518 1.362 . S
C518 H510 0.930 . S
C518 C517 1.362 . S
C518 C521 1.409 . S
C519 H511 0.930 . S
C519 C520 1.355 . S
C519 C521 1.415 . S
C520 C519 1.355 . S
C520 C522 1.419 . S
C521 C516 1.425 . S
C521 C518 1.409 . S
C521 C519 1.415 . S
C522 H512 0.930 . S
C522 C520 1.419 . S
C522 C523 1.362 . S
C523 H513 0.930 . S
C523 C516 1.409 . S
C523 C522 1.362 . S
H524 C530 0.930 . S
H525 C533 0.930 . S
H526 C534 0.930 . S
H527 C535 0.930 . S
H528 C538 0.930 . S
H529 C539 0.930 . S
C530 H524 0.930 . S
C530 C531 1.355 . S
C530 C532 1.415 . S
C531 C530 1.355 . S
C531 C533 1.419 . S
C532 C530 1.415 . S
C532 C537 1.425 . S
C532 C539 1.409 . S
C533 H525 0.930 . S
C533 C531 1.419 . S
C533 C534 1.362 . S
C534 H526 0.930 . S
C534 C533 1.362 . S
C534 C537 1.409 . S
C535 H527 0.930 . S
C535 C536 1.355 . S
C535 C537 1.415 . S
C536 C535 1.355 . S
C536 C538 1.419 . S
C537 C532 1.425 . S
C537 C534 1.409 . S
C537 C535 1.415 . S
C538 H528 0.930 . S
C538 C536 1.419 . S
C538 C539 1.362 . S
C539 H529 0.930 . S
C539 C532 1.409 . S
C539 C538 1.362 . S
H540 C546 0.930 . S
H541 C549 0.930 . S
H542 C550 0.930 . S
H543 C551 0.930 1_554 S
H544 C554 0.930 . S
H545 C555 0.930 . S
C546 H540 0.930 . S
C546 C547 1.355 1_556 S
C546 C548 1.415 . S
C547 C546 1.355 1_554 S
C547 C549 1.419 . S
C548 C546 1.415 . S
C548 C553 1.425 1_556 S
C548 C555 1.409 . S
C549 H541 0.930 . S
C549 C547 1.419 . S
C549 C550 1.362 . S
C550 H542 0.930 . S
C550 C549 1.362 . S
C550 C553 1.409 . S
C551 H543 0.930 1_556 S
C551 C552 1.355 . S
C551 C553 1.415 1_556 S
C552 C551 1.355 . S
C552 C554 1.419 . S
C553 C548 1.425 1_554 S
C553 C550 1.409 . S
C553 C551 1.415 1_554 S
C554 H544 0.930 . S
C554 C552 1.419 . S
C554 C555 1.362 . S
C555 H545 0.930 . S
C555 C548 1.409 . S
C555 C554 1.362 . S
H556 C562 0.930 . S
H557 C565 0.930 . S
H558 C566 0.930 . S
H559 C567 0.930 . S
H560 C570 0.930 . S
H561 C571 0.930 . S
C562 H556 0.930 . S
C562 C563 1.355 . S
C562 C564 1.415 1_556 S
C563 C562 1.355 . S
C563 C565 1.419 . S
C564 C562 1.415 1_554 S
C564 C569 1.425 1_554 S
C564 C571 1.409 . S
C565 H557 0.930 . S
C565 C563 1.419 . S
C565 C566 1.362 . S
C566 H558 0.930 . S
C566 C565 1.362 . S
C566 C569 1.409 . S
C567 H559 0.930 . S
C567 C568 1.355 1_556 S
C567 C569 1.415 . S
C568 C567 1.355 1_554 S
C568 C570 1.419 . S
C569 C564 1.425 1_556 S
C569 C566 1.409 . S
C569 C567 1.415 . S
C570 H560 0.930 . S
C570 C568 1.419 . S
C570 C571 1.362 . S
C571 H561 0.930 . S
C571 C564 1.409 . S
C571 C570 1.362 . S
H572 C578 0.930 . S
H573 C581 0.930 1_554 S
H574 C582 0.930 . S
H575 C583 0.930 . S
H576 C586 0.930 . S
H577 C587 0.930 . S
C578 H572 0.930 . S
C578 C579 1.355 . S
C578 C580 1.415 . S
C579 C578 1.355 . S
C579 C581 1.419 . S
C580 C578 1.415 . S
C580 C585 1.425 1_556 S
C580 C587 1.409 . S
C581 H573 0.930 1_556 S
C581 C579 1.419 . S
C581 C582 1.362 1_556 S
C582 H574 0.930 . S
C582 C581 1.362 1_554 S
C582 C585 1.409 . S
C583 H575 0.930 . S
C583 C584 1.355 . S
C583 C585 1.415 . S
C584 C583 1.355 . S
C584 C586 1.419 1_554 S
C585 C580 1.425 1_554 S
C585 C582 1.409 . S
C585 C583 1.415 . S
C586 H576 0.930 . S
C586 C584 1.419 1_556 S
C586 C587 1.362 . S
C587 H577 0.930 . S
C587 C580 1.409 . S
C587 C586 1.362 . S
H588 C594 0.930 . S
H589 C597 0.930 . S
H590 C598 0.930 . S
H591 C599 0.930 . S
H592 C602 0.930 . S
H593 C603 0.930 . S
C594 H588 0.930 . S
C594 C595 1.355 . S
C594 C596 1.415 . S
C595 C594 1.355 . S
C595 C597 1.419 . S
C596 C594 1.415 . S
C596 C601 1.425 . S
C596 C603 1.409 . S
C597 H589 0.930 . S
C597 C595 1.419 . S
C597 C598 1.362 . S
C598 H590 0.930 . S
C598 C597 1.362 . S
C598 C601 1.409 . S
C599 H591 0.930 . S
C599 C600 1.355 . S
C599 C601 1.415 . S
C600 C599 1.355 . S
C600 C602 1.419 . S
C601 C596 1.425 . S
C601 C598 1.409 . S
C601 C599 1.415 . S
C602 H592 0.930 . S
C602 C600 1.419 . S
C602 C603 1.362 . S
C603 H593 0.930 . S
C603 C596 1.409 . S
C603 C602 1.362 . S
H604 C610 0.930 . S
H605 C613 0.930 . S
H606 C614 0.930 . S
H607 C615 0.930 . S
H608 C618 0.930 . S
H609 C619 0.930 . S
C610 H604 0.930 . S
C610 C611 1.355 . S
C610 C612 1.415 . S
C611 C610 1.355 . S
C611 C613 1.419 . S
C612 C610 1.415 . S
C612 C617 1.425 . S
C612 C619 1.409 . S
C613 H605 0.930 . S
C613 C611 1.419 . S
C613 C614 1.362 . S
C614 H606 0.930 . S
C614 C613 1.362 . S
C614 C617 1.409 . S
C615 H607 0.930 . S
C615 C616 1.355 . S
C615 C617 1.415 . S
C616 C615 1.355 . S
C616 C618 1.419 . S
C617 C612 1.425 . S
C617 C614 1.409 . S
C617 C615 1.415 . S
C618 H608 0.930 . S
C618 C616 1.419 . S
C618 C619 1.362 . S
C619 H609 0.930 . S
C619 C612 1.409 . S
C619 C618 1.362 . S
H620 C626 0.930 . S
H621 C629 0.930 . S
H622 C630 0.930 . S
H623 C631 0.930 . S
H624 C634 0.930 . S
H625 C635 0.930 . S
C626 H620 0.930 . S
C626 C627 1.355 . S
C626 C628 1.415 . S
C627 C626 1.355 . S
C627 C629 1.419 . S
C628 C626 1.415 . S
C628 C633 1.425 . S
C628 C635 1.409 . S
C629 H621 0.930 . S
C629 C627 1.419 . S
C629 C630 1.362 . S
C630 H622 0.930 . S
C630 C629 1.362 . S
C630 C633 1.409 . S
C631 H623 0.930 . S
C631 C632 1.355 . S
C631 C633 1.415 . S
C632 C631 1.355 . S
C632 C634 1.419 . S
C633 C628 1.425 . S
C633 C630 1.409 . S
C633 C631 1.415 . S
C634 H624 0.930 . S
C634 C632 1.419 . S
C634 C635 1.362 . S
C635 H625 0.930 . S
C635 C628 1.409 . S
C635 C634 1.362 . S
H636 C642 0.930 . S
H637 C645 0.930 . S
H638 C646 0.930 . S
H639 C647 0.930 . S
H640 C650 0.930 . S
H641 C651 0.930 . S
C642 H636 0.930 . S
C642 C643 1.355 . S
C642 C644 1.415 . S
C643 C642 1.355 . S
C643 C645 1.419 . S
C644 C642 1.415 . S
C644 C649 1.425 . S
C644 C651 1.409 . S
C645 H637 0.930 . S
C645 C643 1.419 . S
C645 C646 1.362 . S
C646 H638 0.930 . S
C646 C645 1.362 . S
C646 C649 1.409 . S
C647 H639 0.930 . S
C647 C648 1.355 . S
C647 C649 1.415 . S
C648 C647 1.355 . S
C648 C650 1.419 . S
C649 C644 1.425 . S
C649 C646 1.409 . S
C649 C647 1.415 . S
C650 H640 0.930 . S
C650 C648 1.419 . S
C650 C651 1.362 . S
C651 H641 0.930 . S
C651 C644 1.409 . S
C651 C650 1.362 . S
H652 C658 0.930 . S
H653 C661 0.930 . S
H654 C662 0.930 . S
H655 C663 0.930 . S
H656 C666 0.930 . S
H657 C667 0.930 . S
C658 H652 0.930 . S
C658 C659 1.355 . S
C658 C660 1.415 . S
C659 C658 1.355 . S
C659 C661 1.419 . S
C660 C658 1.415 . S
C660 C665 1.425 . S
C660 C667 1.409 . S
C661 H653 0.930 . S
C661 C659 1.419 . S
C661 C662 1.362 . S
C662 H654 0.930 . S
C662 C661 1.362 . S
C662 C665 1.409 . S
C663 H655 0.930 . S
C663 C664 1.355 . S
C663 C665 1.415 . S
C664 C663 1.355 . S
C664 C666 1.419 . S
C665 C660 1.425 . S
C665 C662 1.409 . S
C665 C663 1.415 . S
C666 H656 0.930 . S
C666 C664 1.419 . S
C666 C667 1.362 . S
C667 H657 0.930 . S
C667 C660 1.409 . S
C667 C666 1.362 . S
H668 C674 0.930 . S
H669 C677 0.930 . S
H670 C678 0.930 . S
H671 C679 0.930 . S
H672 C682 0.930 . S
H673 C683 0.930 . S
C674 H668 0.930 . S
C674 C675 1.355 . S
C674 C676 1.415 . S
C675 C674 1.355 . S
C675 C677 1.419 . S
C676 C674 1.415 . S
C676 C681 1.425 . S
C676 C683 1.409 . S
C677 H669 0.930 . S
C677 C675 1.419 . S
C677 C678 1.362 . S
C678 H670 0.930 . S
C678 C677 1.362 . S
C678 C681 1.409 . S
C679 H671 0.930 . S
C679 C680 1.355 . S
C679 C681 1.415 . S
C680 C679 1.355 . S
C680 C682 1.419 . S
C681 C676 1.425 . S
C681 C678 1.409 . S
C681 C679 1.415 . S
C682 H672 0.930 . S
C682 C680 1.419 . S
C682 C683 1.362 . S
C683 H673 0.930 . S
C683 C676 1.409 . S
C683 C682 1.362 . S
H684 C690 0.930 . S
H685 C693 0.930 . S
H686 C694 0.930 . S
H687 C695 0.930 . S
H688 C698 0.930 . S
H689 C699 0.930 . S
C690 H684 0.930 . S
C690 C691 1.355 . S
C690 C692 1.415 . S
C691 C690 1.355 . S
C691 C693 1.419 . S
C692 C690 1.415 . S
C692 C697 1.425 . S
C692 C699 1.409 . S
C693 H685 0.930 . S
C693 C691 1.419 . S
C693 C694 1.362 . S
C694 H686 0.930 . S
C694 C693 1.362 . S
C694 C697 1.409 . S
C695 H687 0.930 . S
C695 C696 1.355 . S
C695 C697 1.415 . S
C696 C695 1.355 . S
C696 C698 1.419 . S
C697 C692 1.425 . S
C697 C694 1.409 . S
C697 C695 1.415 . S
C698 H688 0.930 . S
C698 C696 1.419 . S
C698 C699 1.362 . S
C699 H689 0.930 . S
C699 C692 1.409 . S
C699 C698 1.362 . S
H700 C706 0.930 . S
H701 C709 0.930 . S
H702 C710 0.930 . S
H703 C711 0.930 . S
H704 C714 0.930 . S
H705 C715 0.930 . S
C706 H700 0.930 . S
C706 C707 1.355 . S
C706 C708 1.415 . S
C707 C706 1.355 . S
C707 C709 1.419 . S
C708 C706 1.415 . S
C708 C713 1.425 . S
C708 C715 1.409 . S
C709 H701 0.930 . S
C709 C707 1.419 . S
C709 C710 1.362 . S
C710 H702 0.930 . S
C710 C709 1.362 . S
C710 C713 1.409 . S
C711 H703 0.930 . S
C711 C712 1.355 . S
C711 C713 1.415 . S
C712 C711 1.355 . S
C712 C714 1.419 . S
C713 C708 1.425 . S
C713 C710 1.409 . S
C713 C711 1.415 . S
C714 H704 0.930 . S
C714 C712 1.419 . S
C714 C715 1.362 . S
C715 H705 0.930 . S
C715 C708 1.409 . S
C715 C714 1.362 . S
H716 C722 0.930 . S
H717 C725 0.930 . S
H718 C726 0.930 . S
H719 C727 0.930 . S
H720 C730 0.930 . S
H721 C731 0.930 . S
C722 H716 0.930 . S
C722 C723 1.355 . S
C722 C724 1.415 . S
C723 C722 1.355 . S
C723 C725 1.419 . S
C724 C722 1.415 . S
C724 C729 1.425 . S
C724 C731 1.409 . S
C725 H717 0.930 . S
C725 C723 1.419 . S
C725 C726 1.362 . S
C726 H718 0.930 . S
C726 C725 1.362 . S
C726 C729 1.409 . S
C727 H719 0.930 . S
C727 C728 1.355 . S
C727 C729 1.415 . S
C728 C727 1.355 . S
C728 C730 1.419 . S
C729 C724 1.425 . S
C729 C726 1.409 . S
C729 C727 1.415 . S
C730 H720 0.930 . S
C730 C728 1.419 . S
C730 C731 1.362 . S
C731 H721 0.930 . S
C731 C724 1.409 . S
C731 C730 1.362 . S
H732 C738 0.930 . S
H733 C741 0.930 . S
H734 C742 0.930 . S
H735 C743 0.930 . S
H736 C746 0.930 . S
H737 C747 0.930 . S
C738 H732 0.930 . S
C738 C739 1.355 . S
C738 C740 1.415 . S
C739 C738 1.355 . S
C739 C741 1.419 . S
C740 C738 1.415 . S
C740 C745 1.425 . S
C740 C747 1.409 . S
C741 H733 0.930 . S
C741 C739 1.419 . S
C741 C742 1.362 . S
C742 H734 0.930 . S
C742 C741 1.362 . S
C742 C745 1.409 . S
C743 H735 0.930 . S
C743 C744 1.355 . S
C743 C745 1.415 . S
C744 C743 1.355 . S
C744 C746 1.419 . S
C745 C740 1.425 . S
C745 C742 1.409 . S
C745 C743 1.415 . S
C746 H736 0.930 . S
C746 C744 1.419 . S
C746 C747 1.362 . S
C747 H737 0.930 . S
C747 C740 1.409 . S
C747 C746 1.362 . S
H748 C754 0.930 . S
H749 C757 0.930 . S
H750 C758 0.930 . S
H751 C759 0.930 . S
H752 C762 0.930 . S
H753 C763 0.930 . S
C754 H748 0.930 . S
C754 C755 1.355 . S
C754 C756 1.415 . S
C755 C754 1.355 . S
C755 C757 1.419 . S
C756 C754 1.415 . S
C756 C761 1.425 . S
C756 C763 1.409 . S
C757 H749 0.930 . S
C757 C755 1.419 . S
C757 C758 1.362 . S
C758 H750 0.930 . S
C758 C757 1.362 . S
C758 C761 1.409 . S
C759 H751 0.930 . S
C759 C760 1.355 . S
C759 C761 1.415 . S
C760 C759 1.355 . S
C760 C762 1.419 . S
C761 C756 1.425 . S
C761 C758 1.409 . S
C761 C759 1.415 . S
C762 H752 0.930 . S
C762 C760 1.419 . S
C762 C763 1.362 . S
C763 H753 0.930 . S
C763 C756 1.409 . S
C763 C762 1.362 . S
H764 C770 0.930 . S
H765 C773 0.930 . S
H766 C774 0.930 . S
H767 C775 0.930 . S
H768 C778 0.930 . S
H769 C779 0.930 . S
C770 H764 0.930 . S
C770 C771 1.355 . S
C770 C772 1.415 . S
C771 C770 1.355 . S
C771 C773 1.419 . S
C772 C770 1.415 . S
C772 C777 1.425 . S
C772 C779 1.409 . S
C773 H765 0.930 . S
C773 C771 1.419 . S
C773 C774 1.362 . S
C774 H766 0.930 . S
C774 C773 1.362 . S
C774 C777 1.409 . S
C775 H767 0.930 . S
C775 C776 1.355 . S
C775 C777 1.415 . S
C776 C775 1.355 . S
C776 C778 1.419 . S
C777 C772 1.425 . S
C777 C774 1.409 . S
C777 C775 1.415 . S
C778 H768 0.930 . S
C778 C776 1.419 . S
C778 C779 1.362 . S
C779 H769 0.930 . S
C779 C772 1.409 . S
C779 C778 1.362 . S
H780 C786 0.930 . S
H781 C789 0.930 . S
H782 C790 0.930 . S
H783 C791 0.930 . S
H784 C794 0.930 1_556 S
H785 C795 0.930 . S
C786 H780 0.930 . S
C786 C787 1.355 . S
C786 C788 1.415 . S
C787 C786 1.355 . S
C787 C789 1.419 . S
C788 C786 1.415 . S
C788 C793 1.425 . S
C788 C795 1.409 . S
C789 H781 0.930 . S
C789 C787 1.419 . S
C789 C790 1.362 . S
C790 H782 0.930 . S
C790 C789 1.362 . S
C790 C793 1.409 . S
C791 H783 0.930 . S
C791 C792 1.355 . S
C791 C793 1.415 . S
C792 C791 1.355 . S
C792 C794 1.419 . S
C793 C788 1.425 . S
C793 C790 1.409 . S
C793 C791 1.415 . S
C794 H784 0.930 1_554 S
C794 C792 1.419 . S
C794 C795 1.362 . S
C795 H785 0.930 . S
C795 C788 1.409 . S
C795 C794 1.362 . S
H796 C802 0.930 . S
H797 C805 0.930 . S
H798 C806 0.930 . S
H799 C807 0.930 . S
H800 C810 0.930 . S
H801 C811 0.930 . S
C802 H796 0.930 . S
C802 C803 1.355 . S
C802 C804 1.415 . S
C803 C802 1.355 . S
C803 C805 1.419 . S
C804 C802 1.415 . S
C804 C809 1.425 . S
C804 C811 1.409 . S
C805 H797 0.930 . S
C805 C803 1.419 . S
C805 C806 1.362 . S
C806 H798 0.930 . S
C806 C805 1.362 . S
C806 C809 1.409 . S
C807 H799 0.930 . S
C807 C808 1.355 . S
C807 C809 1.415 . S
C808 C807 1.355 . S
C808 C810 1.419 . S
C809 C804 1.425 . S
C809 C806 1.409 . S
C809 C807 1.415 . S
C810 H800 0.930 . S
C810 C808 1.419 . S
C810 C811 1.362 . S
C811 H801 0.930 . S
C811 C804 1.409 . S
C811 C810 1.362 . S
H812 C818 0.930 . S
H813 C821 0.930 . S
H814 C822 0.930 . S
H815 C823 0.930 . S
H816 C826 0.930 . S
H817 C827 0.930 . S
C818 H812 0.930 . S
C818 C819 1.355 . S
C818 C820 1.415 . S
C819 C818 1.355 . S
C819 C821 1.419 . S
C820 C818 1.415 . S
C820 C825 1.425 . S
C820 C827 1.409 . S
C821 H813 0.930 . S
C821 C819 1.419 . S
C821 C822 1.362 . S
C822 H814 0.930 . S
C822 C821 1.362 . S
C822 C825 1.409 . S
C823 H815 0.930 . S
C823 C824 1.355 . S
C823 C825 1.415 . S
C824 C823 1.355 . S
C824 C826 1.419 . S
C825 C820 1.425 . S
C825 C822 1.409 . S
C825 C823 1.415 . S
C826 H816 0.930 . S
C826 C824 1.419 . S
C826 C827 1.362 . S
C827 H817 0.930 . S
C827 C820 1.409 . S
C827 C826 1.362 . S
H828 C834 0.930 . S
H829 C837 0.930 . S
H830 C838 0.930 . S
H831 C839 0.930 . S
H832 C842 0.930 . S
H833 C843 0.930 . S
C834 H828 0.930 . S
C834 C835 1.355 . S
C834 C836 1.415 . S
C835 C834 1.355 . S
C835 C837 1.419 . S
C836 C834 1.415 . S
C836 C841 1.425 . S
C836 C843 1.409 . S
C837 H829 0.930 . S
C837 C835 1.419 . S
C837 C838 1.362 . S
C838 H830 0.930 . S
C838 C837 1.362 . S
C838 C841 1.409 . S
C839 H831 0.930 . S
C839 C840 1.355 . S
C839 C841 1.415 . S
C840 C839 1.355 . S
C840 C842 1.419 . S
C841 C836 1.425 . S
C841 C838 1.409 . S
C841 C839 1.415 . S
C842 H832 0.930 . S
C842 C840 1.419 . S
C842 C843 1.362 . S
C843 H833 0.930 . S
C843 C836 1.409 . S
C843 C842 1.362 . S
H844 C850 0.930 . S
H845 C853 0.930 . S
H846 C854 0.930 . S
H847 C855 0.930 . S
H848 C858 0.930 . S
H849 C859 0.930 . S
C850 H844 0.930 . S
C850 C851 1.355 . S
C850 C852 1.415 . S
C851 C850 1.355 . S
C851 C853 1.419 . S
C852 C850 1.415 . S
C852 C857 1.425 . S
C852 C859 1.409 . S
C853 H845 0.930 . S
C853 C851 1.419 . S
C853 C854 1.362 . S
C854 H846 0.930 . S
C854 C853 1.362 . S
C854 C857 1.409 . S
C855 H847 0.930 . S
C855 C856 1.355 . S
C855 C857 1.415 . S
C856 C855 1.355 . S
C856 C858 1.419 . S
C857 C852 1.425 . S
C857 C854 1.409 . S
C857 C855 1.415 . S
C858 H848 0.930 . S
C858 C856 1.419 . S
C858 C859 1.362 . S
C859 H849 0.930 . S
C859 C852 1.409 . S
C859 C858 1.362 . S
H860 C866 0.930 . S
H861 C869 0.930 . S
H862 C870 0.930 . S
H863 C871 0.930 . S
H864 C874 0.930 . S
H865 C875 0.930 . S
C866 H860 0.930 . S
C866 C867 1.355 . S
C866 C868 1.415 . S
C867 C866 1.355 . S
C867 C869 1.419 . S
C868 C866 1.415 . S
C868 C873 1.425 . S
C868 C875 1.409 . S
C869 H861 0.930 . S
C869 C867 1.419 . S
C869 C870 1.362 . S
C870 H862 0.930 . S
C870 C869 1.362 . S
C870 C873 1.409 . S
C871 H863 0.930 . S
C871 C872 1.355 . S
C871 C873 1.415 . S
C872 C871 1.355 . S
C872 C874 1.419 . S
C873 C868 1.425 . S
C873 C870 1.409 . S
C873 C871 1.415 . S
C874 H864 0.930 . S
C874 C872 1.419 . S
C874 C875 1.362 . S
C875 H865 0.930 . S
C875 C868 1.409 . S
C875 C874 1.362 . S
H876 C882 0.930 . S
H877 C885 0.930 . S
H878 C886 0.930 . S
H879 C887 0.930 . S
H880 C890 0.930 . S
H881 C891 0.930 . S
C882 H876 0.930 . S
C882 C883 1.355 . S
C882 C884 1.415 . S
C883 C882 1.355 . S
C883 C885 1.419 . S
C884 C882 1.415 . S
C884 C889 1.425 . S
C884 C891 1.409 . S
C885 H877 0.930 . S
C885 C883 1.419 . S
C885 C886 1.362 . S
C886 H878 0.930 . S
C886 C885 1.362 . S
C886 C889 1.409 . S
C887 H879 0.930 . S
C887 C888 1.355 . S
C887 C889 1.415 . S
C888 C887 1.355 . S
C888 C890 1.419 . S
C889 C884 1.425 . S
C889 C886 1.409 . S
C889 C887 1.415 . S
C890 H880 0.930 . S
C890 C888 1.419 . S
C890 C891 1.362 . S
C891 H881 0.930 . S
C891 C884 1.409 . S
C891 C890 1.362 . S
H892 C898 0.930 . S
H893 C901 0.930 . S
H894 C902 0.930 . S
H895 C903 0.930 . S
H896 C906 0.930 1_556 S
H897 C907 0.930 . S
C898 H892 0.930 . S
C898 C899 1.355 . S
C898 C900 1.415 . S
C899 C898 1.355 . S
C899 C901 1.419 . S
C900 C898 1.415 . S
C900 C905 1.425 . S
C900 C907 1.409 . S
C901 H893 0.930 . S
C901 C899 1.419 . S
C901 C902 1.362 . S
C902 H894 0.930 . S
C902 C901 1.362 . S
C902 C905 1.409 . S
C903 H895 0.930 . S
C903 C904 1.355 . S
C903 C905 1.415 . S
C904 C903 1.355 . S
C904 C906 1.419 . S
C905 C900 1.425 . S
C905 C902 1.409 . S
C905 C903 1.415 . S
C906 H896 0.930 1_554 S
C906 C904 1.419 . S
C906 C907 1.362 . S
C907 H897 0.930 . S
C907 C900 1.409 . S
C907 C906 1.362 . S
H908 C914 0.930 . S
H909 C917 0.930 . S
H910 C918 0.930 . S
H911 C919 0.930 . S
H912 C922 0.930 . S
H913 C923 0.930 . S
C914 H908 0.930 . S
C914 C915 1.355 . S
C914 C916 1.415 . S
C915 C914 1.355 . S
C915 C917 1.419 . S
C916 C914 1.415 . S
C916 C921 1.425 . S
C916 C923 1.409 . S
C917 H909 0.930 . S
C917 C915 1.419 . S
C917 C918 1.362 . S
C918 H910 0.930 . S
C918 C917 1.362 . S
C918 C921 1.409 . S
C919 H911 0.930 . S
C919 C920 1.355 . S
C919 C921 1.415 . S
C920 C919 1.355 . S
C920 C922 1.419 . S
C921 C916 1.425 . S
C921 C918 1.409 . S
C921 C919 1.415 . S
C922 H912 0.930 . S
C922 C920 1.419 . S
C922 C923 1.362 . S
C923 H913 0.930 . S
C923 C916 1.409 . S
C923 C922 1.362 . S
H924 C930 0.930 . S
H925 C933 0.930 . S
H926 C934 0.930 . S
H927 C935 0.930 . S
H928 C938 0.930 . S
H929 C939 0.930 . S
C930 H924 0.930 . S
C930 C931 1.355 . S
C930 C932 1.415 . S
C931 C930 1.355 . S
C931 C933 1.419 . S
C932 C930 1.415 . S
C932 C937 1.425 . S
C932 C939 1.409 . S
C933 H925 0.930 . S
C933 C931 1.419 . S
C933 C934 1.362 . S
C934 H926 0.930 . S
C934 C933 1.362 . S
C934 C937 1.409 . S
C935 H927 0.930 . S
C935 C936 1.355 . S
C935 C937 1.415 . S
C936 C935 1.355 . S
C936 C938 1.419 . S
C937 C932 1.425 . S
C937 C934 1.409 . S
C937 C935 1.415 . S
C938 H928 0.930 . S
C938 C936 1.419 . S
C938 C939 1.362 . S
C939 H929 0.930 . S
C939 C932 1.409 . S
C939 C938 1.362 . S
H940 C946 0.930 . S
H941 C949 0.930 . S
H942 C950 0.930 . S
H943 C951 0.930 . S
H944 C954 0.930 . S
H945 C955 0.930 . S
C946 H940 0.930 . S
C946 C947 1.355 . S
C946 C948 1.415 . S
C947 C946 1.355 . S
C947 C949 1.419 . S
C948 C946 1.415 . S
C948 C953 1.425 . S
C948 C955 1.409 . S
C949 H941 0.930 . S
C949 C947 1.419 . S
C949 C950 1.362 . S
C950 H942 0.930 . S
C950 C949 1.362 . S
C950 C953 1.409 . S
C951 H943 0.930 . S
C951 C952 1.355 . S
C951 C953 1.415 . S
C952 C951 1.355 . S
C952 C954 1.419 . S
C953 C948 1.425 . S
C953 C950 1.409 . S
C953 C951 1.415 . S
C954 H944 0.930 . S
C954 C952 1.419 . S
C954 C955 1.362 . S
C955 H945 0.930 . S
C955 C948 1.409 . S
C955 C954 1.362 . S
H956 C962 0.930 . S
H957 C965 0.930 . S
H958 C966 0.930 . S
H959 C967 0.930 . S
H960 C970 0.930 . S
H961 C971 0.930 . S
C962 H956 0.930 . S
C962 C963 1.355 . S
C962 C964 1.415 . S
C963 C962 1.355 . S
C963 C965 1.419 . S
C964 C962 1.415 . S
C964 C969 1.425 . S
C964 C971 1.409 . S
C965 H957 0.930 . S
C965 C963 1.419 . S
C965 C966 1.362 . S
C966 H958 0.930 . S
C966 C965 1.362 . S
C966 C969 1.409 . S
C967 H959 0.930 . S
C967 C968 1.355 . S
C967 C969 1.415 . S
C968 C967 1.355 . S
C968 C970 1.419 . S
C969 C964 1.425 . S
C969 C966 1.409 . S
C969 C967 1.415 . S
C970 H960 0.930 . S
C970 C968 1.419 . S
C970 C971 1.362 . S
C971 H961 0.930 . S
C971 C964 1.409 . S
C971 C970 1.362 . S
H972 C978 0.930 . S
H973 C981 0.930 . S
H974 C982 0.930 . S
H975 C983 0.930 . S
H976 C986 0.930 . S
H977 C987 0.930 . S
C978 H972 0.930 . S
C978 C979 1.355 . S
C978 C980 1.415 . S
C979 C978 1.355 . S
C979 C981 1.419 . S
C980 C978 1.415 . S
C980 C985 1.425 . S
C980 C987 1.409 . S
C981 H973 0.930 . S
C981 C979 1.419 . S
C981 C982 1.362 . S
C982 H974 0.930 . S
C982 C981 1.362 . S
C982 C985 1.409 . S
C983 H975 0.930 . S
C983 C984 1.355 . S
C983 C985 1.415 . S
C984 C983 1.355 . S
C984 C986 1.419 . S
C985 C980 1.425 . S
C985 C982 1.409 . S
C985 C983 1.415 . S
C986 H976 0.930 . S
C986 C984 1.419 . S
C986 C987 1.362 . S
C987 H977 0.930 . S
C987 C980 1.409 . S
C987 C986 1.362 . S
H988 C994 0.930 . S
H989 C997 0.930 . S
H990 C998 0.930 . S
H991 C999 0.930 . S
H992 C1002 0.930 . S
H993 C1003 0.930 . S
C994 H988 0.930 . S
C994 C995 1.355 . S
C994 C996 1.415 . S
C995 C994 1.355 . S
C995 C997 1.419 . S
C996 C994 1.415 . S
C996 C1001 1.425 . S
C996 C1003 1.409 . S
C997 H989 0.930 . S
C997 C995 1.419 . S
C997 C998 1.362 . S
C998 H990 0.930 . S
C998 C997 1.362 . S
C998 C1001 1.409 . S
C999 H991 0.930 . S
C999 C1000 1.355 . S
C999 C1001 1.415 . S
C1000 C999 1.355 . S
C1000 C1002 1.419 . S
C1001 C996 1.425 . S
C1001 C998 1.409 . S
C1001 C999 1.415 . S
C1002 H992 0.930 . S
C1002 C1000 1.419 . S
C1002 C1003 1.362 . S
C1003 H993 0.930 . S
C1003 C996 1.409 . S
C1003 C1002 1.362 . S
H1004 C1010 0.930 . S
H1005 C1013 0.930 . S
H1006 C1014 0.930 . S
H1007 C1015 0.930 . S
H1008 C1018 0.930 . S
H1009 C1019 0.930 . S
C1010 H1004 0.930 . S
C1010 C1011 1.355 . S
C1010 C1012 1.415 . S
C1011 C1010 1.355 . S
C1011 C1013 1.419 . S
C1012 C1010 1.415 . S
C1012 C1017 1.425 . S
C1012 C1019 1.409 . S
C1013 H1005 0.930 . S
C1013 C1011 1.419 . S
C1013 C1014 1.362 . S
C1014 H1006 0.930 . S
C1014 C1013 1.362 . S
C1014 C1017 1.409 . S
C1015 H1007 0.930 . S
C1015 C1016 1.355 . S
C1015 C1017 1.415 . S
C1016 C1015 1.355 . S
C1016 C1018 1.419 . S
C1017 C1012 1.425 . S
C1017 C1014 1.409 . S
C1017 C1015 1.415 . S
C1018 H1008 0.930 . S
C1018 C1016 1.419 . S
C1018 C1019 1.362 . S
C1019 H1009 0.930 . S
C1019 C1012 1.409 . S
C1019 C1018 1.362 . S
H1020 C1026 0.930 . S
H1021 C1029 0.930 . S
H1022 C1030 0.930 . S
H1023 C1031 0.930 . S
H1024 C1034 0.933 . S
H1025 C1035 0.930 . S
C1026 H1020 0.930 . S
C1026 C1027 1.355 . S
C1026 C1028 1.415 . S
C1027 C1026 1.355 . S
C1027 C1029 1.419 . S
C1028 C1026 1.415 . S
C1028 C1033 1.425 . S
C1028 C1035 1.409 . S
C1029 H1021 0.930 . S
C1029 C1027 1.419 . S
C1029 C1030 1.362 . S
C1030 H1022 0.930 . S
C1030 C1029 1.362 . S
C1030 C1033 1.409 . S
C1031 H1023 0.930 . S
C1031 C1032 1.355 1_556 S
C1031 C1033 1.415 . S
C1032 C1031 1.355 1_554 S
C1032 C1034 1.420 . S
C1033 C1028 1.425 . S
C1033 C1030 1.409 . S
C1033 C1031 1.415 . S
C1034 H1024 0.933 . S
C1034 C1032 1.420 . S
C1034 C1035 1.358 1_554 S
C1035 H1025 0.930 . S
C1035 C1028 1.409 . S
C1035 C1034 1.358 1_556 S
H1036 C1042 0.930 . S
H1037 C1045 0.930 . S
H1038 C1046 0.930 . S
H1039 C1047 0.930 1_554 S
H1040 C1050 0.930 . S
H1041 C1051 0.930 . S
C1042 H1036 0.930 . S
C1042 C1043 1.355 . S
C1042 C1044 1.415 . S
C1043 C1042 1.355 . S
C1043 C1045 1.419 . S
C1044 C1042 1.415 . S
C1044 C1049 1.425 . S
C1044 C1051 1.409 . S
C1045 H1037 0.930 . S
C1045 C1043 1.419 . S
C1045 C1046 1.362 . S
C1046 H1038 0.930 . S
C1046 C1045 1.362 . S
C1046 C1049 1.409 . S
C1047 H1039 0.930 1_556 S
C1047 C1048 1.355 1_556 S
C1047 C1049 1.415 . S
C1048 C1047 1.355 1_554 S
C1048 C1050 1.419 1_554 S
C1049 C1044 1.425 . S
C1049 C1046 1.409 . S
C1049 C1047 1.415 . S
C1050 H1040 0.930 . S
C1050 C1048 1.419 1_556 S
C1050 C1051 1.362 . S
C1051 H1041 0.930 . S
C1051 C1044 1.409 . S
C1051 C1050 1.362 . S
H1052 C1058 0.930 . S
H1053 C1061 0.930 . S
H1054 C1062 0.930 . S
H1055 C1063 0.930 . S
H1056 C1066 0.930 . S
H1057 C1067 0.930 . S
C1058 H1052 0.930 . S
C1058 C1059 1.355 . S
C1058 C1060 1.415 . S
C1059 C1058 1.355 . S
C1059 C1061 1.419 . S
C1060 C1058 1.415 . S
C1060 C1065 1.425 . S
C1060 C1067 1.409 . S
C1061 H1053 0.930 . S
C1061 C1059 1.419 . S
C1061 C1062 1.362 . S
C1062 H1054 0.930 . S
C1062 C1061 1.362 . S
C1062 C1065 1.409 . S
C1063 H1055 0.930 . S
C1063 C1064 1.355 . S
C1063 C1065 1.415 1_554 S
C1064 C1063 1.355 . S
C1064 C1066 1.419 1_554 S
C1065 C1060 1.425 . S
C1065 C1062 1.409 . S
C1065 C1063 1.415 1_556 S
C1066 H1056 0.930 . S
C1066 C1064 1.419 1_556 S
C1066 C1067 1.362 . S
C1067 H1057 0.930 . S
C1067 C1060 1.409 . S
C1067 C1066 1.362 . S
H1068 C1074 0.930 . S
H1069 C1077 0.930 . S
H1070 C1078 0.930 . S
H1071 C1079 0.930 . S
H1072 C1082 0.930 . S
H1073 C1083 0.930 . S
C1074 H1068 0.930 . S
C1074 C1075 1.355 . S
C1074 C1076 1.415 . S
C1075 C1074 1.355 . S
C1075 C1077 1.419 . S
C1076 C1074 1.415 . S
C1076 C1081 1.425 . S
C1076 C1083 1.409 . S
C1077 H1069 0.930 . S
C1077 C1075 1.419 . S
C1077 C1078 1.362 . S
C1078 H1070 0.930 . S
C1078 C1077 1.362 . S
C1078 C1081 1.409 . S
C1079 H1071 0.930 . S
C1079 C1080 1.355 . S
C1079 C1081 1.415 . S
C1080 C1079 1.355 . S
C1080 C1082 1.419 . S
C1081 C1076 1.425 . S
C1081 C1078 1.409 . S
C1081 C1079 1.415 . S
C1082 H1072 0.930 . S
C1082 C1080 1.419 . S
C1082 C1083 1.362 . S
C1083 H1073 0.930 . S
C1083 C1076 1.409 . S
C1083 C1082 1.362 . S
H1084 C1090 0.930 . S
H1085 C1093 0.930 . S
H1086 C1094 0.930 . S
H1087 C1095 0.930 . S
H1088 C1098 0.930 . S
H1089 C1099 0.930 . S
C1090 H1084 0.930 . S
C1090 C1091 1.355 . S
C1090 C1092 1.415 . S
C1091 C1090 1.355 . S
C1091 C1093 1.419 . S
C1092 C1090 1.415 . S
C1092 C1097 1.425 . S
C1092 C1099 1.409 . S
C1093 H1085 0.930 . S
C1093 C1091 1.419 . S
C1093 C1094 1.362 . S
C1094 H1086 0.930 . S
C1094 C1093 1.362 . S
C1094 C1097 1.409 . S
C1095 H1087 0.930 . S
C1095 C1096 1.355 . S
C1095 C1097 1.415 . S
C1096 C1095 1.355 . S
C1096 C1098 1.419 . S
C1097 C1092 1.425 . S
C1097 C1094 1.409 . S
C1097 C1095 1.415 . S
C1098 H1088 0.930 . S
C1098 C1096 1.419 . S
C1098 C1099 1.362 . S
C1099 H1089 0.930 . S
C1099 C1092 1.409 . S
C1099 C1098 1.362 . S
H1100 C1106 0.930 . S
H1101 C1109 0.930 . S
H1102 C1110 0.930 . S
H1103 C1111 0.930 . S
H1104 C1114 0.930 . S
H1105 C1115 0.930 . S
C1106 H1100 0.930 . S
C1106 C1107 1.355 . S
C1106 C1108 1.415 . S
C1107 C1106 1.355 . S
C1107 C1109 1.419 . S
C1108 C1106 1.415 . S
C1108 C1113 1.425 . S
C1108 C1115 1.409 . S
C1109 H1101 0.930 . S
C1109 C1107 1.419 . S
C1109 C1110 1.362 . S
C1110 H1102 0.930 . S
C1110 C1109 1.362 . S
C1110 C1113 1.409 . S
C1111 H1103 0.930 . S
C1111 C1112 1.355 . S
C1111 C1113 1.415 . S
C1112 C1111 1.355 . S
C1112 C1114 1.419 . S
C1113 C1108 1.425 . S
C1113 C1110 1.409 . S
C1113 C1111 1.415 . S
C1114 H1104 0.930 . S
C1114 C1112 1.419 . S
C1114 C1115 1.362 . S
C1115 H1105 0.930 . S
C1115 C1108 1.409 . S
C1115 C1114 1.362 . S
H1116 C1122 0.930 . S
H1117 C1125 0.930 . S
H1118 C1126 0.930 . S
H1119 C1127 0.930 . S
H1120 C1130 0.930 . S
H1121 C1131 0.930 . S
C1122 H1116 0.930 . S
C1122 C1123 1.355 1_554 S
C1122 C1124 1.415 . S
C1123 C1122 1.355 1_556 S
C1123 C1125 1.419 . S
C1124 C1122 1.415 . S
C1124 C1129 1.425 . S
C1124 C1131 1.409 . S
C1125 H1117 0.930 . S
C1125 C1123 1.419 . S
C1125 C1126 1.362 . S
C1126 H1118 0.930 . S
C1126 C1125 1.362 . S
C1126 C1129 1.409 1_556 S
C1127 H1119 0.930 . S
C1127 C1128 1.355 . S
C1127 C1129 1.415 . S
C1128 C1127 1.355 . S
C1128 C1130 1.419 . S
C1129 C1124 1.425 . S
C1129 C1126 1.409 1_554 S
C1129 C1127 1.415 . S
C1130 H1120 0.930 . S
C1130 C1128 1.419 . S
C1130 C1131 1.362 . S
C1131 H1121 0.930 . S
C1131 C1124 1.409 . S
C1131 C1130 1.362 . S
H1132 C1138 0.930 . S
H1133 C1141 0.930 . S
H1134 C1142 0.930 . S
H1135 C1143 0.930 . S
H1136 C1146 0.930 . S
H1137 C1147 0.930 . S
C1138 H1132 0.930 . S
C1138 C1139 1.355 . S
C1138 C1140 1.415 . S
C1139 C1138 1.355 . S
C1139 C1141 1.419 . S
C1140 C1138 1.415 . S
C1140 C1145 1.425 . S
C1140 C1147 1.409 1_554 S
C1141 H1133 0.930 . S
C1141 C1139 1.419 . S
C1141 C1142 1.362 . S
C1142 H1134 0.930 . S
C1142 C1141 1.362 . S
C1142 C1145 1.409 . S
C1143 H1135 0.930 . S
C1143 C1144 1.355 1_554 S
C1143 C1145 1.415 . S
C1144 C1143 1.355 1_556 S
C1144 C1146 1.419 . S
C1145 C1140 1.425 . S
C1145 C1142 1.409 . S
C1145 C1143 1.415 . S
C1146 H1136 0.930 . S
C1146 C1144 1.419 . S
C1146 C1147 1.362 . S
C1147 H1137 0.930 . S
C1147 C1140 1.409 1_556 S
C1147 C1146 1.362 . S
H1148 C1154 0.930 . S
H1149 C1157 0.930 . S
H1150 C1158 0.930 . S
H1151 C1159 0.930 . S
H1152 C1162 0.930 . S
H1153 C1163 0.930 . S
C1154 H1148 0.930 . S
C1154 C1155 1.355 . S
C1154 C1156 1.415 . S
C1155 C1154 1.355 . S
C1155 C1157 1.419 . S
C1156 C1154 1.415 . S
C1156 C1161 1.425 . S
C1156 C1163 1.409 1_554 S
C1157 H1149 0.930 . S
C1157 C1155 1.419 . S
C1157 C1158 1.362 . S
C1158 H1150 0.930 . S
C1158 C1157 1.362 . S
C1158 C1161 1.409 . S
C1159 H1151 0.930 . S
C1159 C1160 1.355 1_554 S
C1159 C1161 1.415 . S
C1160 C1159 1.355 1_556 S
C1160 C1162 1.419 . S
C1161 C1156 1.425 . S
C1161 C1158 1.409 . S
C1161 C1159 1.415 . S
C1162 H1152 0.930 . S
C1162 C1160 1.419 . S
C1162 C1163 1.362 . S
C1163 H1153 0.930 . S
C1163 C1156 1.409 1_556 S
C1163 C1162 1.362 . S
H1164 C1170 0.951 . S
H1165 C1173 0.930 . S
H1166 C1174 0.930 . S
H1167 C1175 0.930 . S
H1168 C1178 0.930 . S
H1169 C1179 0.930 . S
C1170 H1164 0.951 . S
C1170 C1171 1.312 1_455 S
C1170 C1172 1.437 . S
C1171 C1170 1.312 1_655 S
C1171 C1173 1.419 . S
C1172 C1170 1.437 . S
C1172 C1177 1.425 . S
C1172 C1179 1.409 . S
C1173 H1165 0.930 . S
C1173 C1171 1.419 . S
C1173 C1174 1.362 . S
C1174 H1166 0.930 . S
C1174 C1173 1.362 . S
C1174 C1177 1.409 1_655 S
C1175 H1167 0.930 . S
C1175 C1176 1.355 . S
C1175 C1177 1.415 . S
C1176 C1175 1.355 . S
C1176 C1178 1.419 . S
C1177 C1172 1.425 . S
C1177 C1174 1.409 1_455 S
C1177 C1175 1.415 . S
C1178 H1168 0.930 . S
C1178 C1176 1.419 . S
C1178 C1179 1.362 . S
C1179 H1169 0.930 . S
C1179 C1172 1.409 . S
C1179 C1178 1.362 . S
H1180 C1186 0.930 . S
H1181 C1189 0.930 . S
H1182 C1190 0.930 . S
H1183 C1191 0.930 . S
H1184 C1194 0.930 . S
H1185 C1195 0.930 . S
C1186 H1180 0.930 . S
C1186 C1187 1.355 . S
C1186 C1188 1.415 . S
C1187 C1186 1.355 . S
C1187 C1189 1.419 . S
C1188 C1186 1.415 . S
C1188 C1193 1.425 . S
C1188 C1195 1.409 . S
C1189 H1181 0.930 . S
C1189 C1187 1.419 . S
C1189 C1190 1.362 . S
C1190 H1182 0.930 . S
C1190 C1189 1.362 . S
C1190 C1193 1.409 . S
C1191 H1183 0.930 . S
C1191 C1192 1.355 . S
C1191 C1193 1.415 . S
C1192 C1191 1.355 . S
C1192 C1194 1.419 . S
C1193 C1188 1.425 . S
C1193 C1190 1.409 . S
C1193 C1191 1.415 . S
C1194 H1184 0.930 . S
C1194 C1192 1.419 . S
C1194 C1195 1.362 . S
C1195 H1185 0.930 . S
C1195 C1188 1.409 . S
C1195 C1194 1.362 . S
H1196 C1202 0.930 . S
H1197 C1205 0.930 . S
H1198 C1206 0.930 . S
H1199 C1207 0.930 . S
H1200 C1210 0.930 . S
H1201 C1211 0.930 1_565 S
C1202 H1196 0.930 . S
C1202 C1203 1.355 . S
C1202 C1204 1.415 1_565 S
C1203 C1202 1.355 . S
C1203 C1205 1.419 . S
C1204 C1202 1.415 1_545 S
C1204 C1209 1.425 . S
C1204 C1211 1.409 . S
C1205 H1197 0.930 . S
C1205 C1203 1.419 . S
C1205 C1206 1.362 1_565 S
C1206 H1198 0.930 . S
C1206 C1205 1.362 1_545 S
C1206 C1209 1.409 . S
C1207 H1199 0.930 . S
C1207 C1208 1.355 . S
C1207 C1209 1.415 . S
C1208 C1207 1.355 . S
C1208 C1210 1.419 . S
C1209 C1204 1.425 . S
C1209 C1206 1.409 . S
C1209 C1207 1.415 . S
C1210 H1200 0.930 . S
C1210 C1208 1.419 . S
C1210 C1211 1.362 . S
C1211 H1201 0.930 1_545 S
C1211 C1204 1.409 . S
C1211 C1210 1.362 . S
H1212 C1218 0.930 . S
H1213 C1221 0.930 . S
H1214 C1222 0.930 . S
H1215 C1223 0.930 . S
H1216 C1226 0.930 . S
H1217 C1227 0.930 . S
C1218 H1212 0.930 . S
C1218 C1219 1.355 . S
C1218 C1220 1.415 1_565 S
C1219 C1218 1.355 . S
C1219 C1221 1.419 . S
C1220 C1218 1.415 1_545 S
C1220 C1225 1.425 . S
C1220 C1227 1.409 . S
C1221 H1213 0.930 . S
C1221 C1219 1.419 . S
C1221 C1222 1.362 . S
C1222 H1214 0.930 . S
C1222 C1221 1.362 . S
C1222 C1225 1.409 1_565 S
C1223 H1215 0.930 . S
C1223 C1224 1.355 . S
C1223 C1225 1.415 . S
C1224 C1223 1.355 . S
C1224 C1226 1.419 . S
C1225 C1220 1.425 . S
C1225 C1222 1.409 1_545 S
C1225 C1223 1.415 . S
C1226 H1216 0.930 . S
C1226 C1224 1.419 . S
C1226 C1227 1.362 . S
C1227 H1217 0.930 . S
C1227 C1220 1.409 . S
C1227 C1226 1.362 . S
H1228 C1234 0.930 . S
H1229 C1237 0.930 . S
H1230 C1238 0.930 1_655 S
H1231 C1239 0.930 . S
H1232 C1242 0.930 . S
H1233 C1243 0.930 . S
C1234 H1228 0.930 . S
C1234 C1235 1.355 . S
C1234 C1236 1.415 . S
C1235 C1234 1.355 . S
C1235 C1237 1.419 . S
C1236 C1234 1.415 . S
C1236 C1241 1.425 . S
C1236 C1243 1.409 . S
C1237 H1229 0.930 . S
C1237 C1235 1.419 . S
C1237 C1238 1.362 . S
C1238 H1230 0.930 1_455 S
C1238 C1237 1.362 . S
C1238 C1241 1.409 . S
C1239 H1231 0.930 . S
C1239 C1240 1.355 . S
C1239 C1241 1.415 1_655 S
C1240 C1239 1.355 . S
C1240 C1242 1.419 . S
C1241 C1236 1.425 . S
C1241 C1238 1.409 . S
C1241 C1239 1.415 1_455 S
C1242 H1232 0.930 . S
C1242 C1240 1.419 . S
C1242 C1243 1.362 1_655 S
C1243 H1233 0.930 . S
C1243 C1236 1.409 . S
C1243 C1242 1.362 1_455 S
H1244 C1250 0.930 . S
H1245 C1253 0.930 . S
H1246 C1254 0.930 . S
H1247 C1255 0.930 . S
H1248 C1258 0.930 . S
H1249 C1259 0.930 . S
C1250 H1244 0.930 . S
C1250 C1251 1.355 . S
C1250 C1252 1.415 . S
C1251 C1250 1.355 . S
C1251 C1253 1.419 . S
C1252 C1250 1.415 . S
C1252 C1257 1.425 . S
C1252 C1259 1.409 . S
C1253 H1245 0.930 . S
C1253 C1251 1.419 . S
C1253 C1254 1.362 . S
C1254 H1246 0.930 . S
C1254 C1253 1.362 . S
C1254 C1257 1.409 . S
C1255 H1247 0.930 . S
C1255 C1256 1.355 . S
C1255 C1257 1.415 . S
C1256 C1255 1.355 . S
C1256 C1258 1.419 . S
C1257 C1252 1.425 . S
C1257 C1254 1.409 . S
C1257 C1255 1.415 . S
C1258 H1248 0.930 . S
C1258 C1256 1.419 . S
C1258 C1259 1.362 . S
C1259 H1249 0.930 . S
C1259 C1252 1.409 . S
C1259 C1258 1.362 . S
C403 C18 1.199 . S
C408 C98 1.226 . S
C419 C128 1.269 . S
C424 C37 1.273 . S
C435 C59 1.266 . S
C440 C81 1.285 . S
C451 C62 1.229 . S
C456 C95 1.256 . S
C467 C131 1.295 . S
C472 C15 1.269 . S
C483 C40 1.220 . S
C488 C74 1.212 . S
C499 C32 1.202 . S
C504 C76 1.179 . S
C515 C54 1.257 . S
C520 C103 1.251 . S
C531 C117 1.291 . S
C536 C7 1.261 . S
C547 C118 1.220 . S
C552 C29 1.258 . S
C563 C51 1.282 . S
C568 C87 1.273 . S
C579 C10 1.236 . S
C584 C106 1.242 . S
C595 C241 1.278 . S
C600 C147 1.285 . S
C611 C169 1.283 . S
C616 C249 1.290 . S
C627 C191 1.280 . S
C632 C213 1.248 . S
C643 C238 1.210 . S
C648 C194 1.213 . S
C659 C252 1.225 . S
C664 C150 1.230 . S
C675 C206 1.247 . S
C680 C172 1.248 . S
C691 C164 1.232 . S
C696 C208 1.241 . S
C707 C186 1.244 . S
C712 C228 1.235 . S
C723 C142 1.218 . S
C728 C260 1.199 . S
C739 C161 1.285 . S
C744 C257 1.258 . S
C755 C183 1.255 . S
C760 C219 1.285 . S
C771 C227 1.289 . S
C776 C139 1.290 . S
C787 C274 1.191 . S
C792 C362 1.224 . S
C803 C301 1.271 . S
C808 C392 1.270 . S
C819 C337 1.275 . S
C824 C329 1.297 . S
C835 C359 1.256 . S
C840 C318 1.230 . S
C851 C285 1.272 . S
C856 C395 1.260 . S
C867 C304 1.200 . S
C872 C340 1.230 . S
C883 C296 1.215 . S
C888 C348 1.200 . S
C899 C316 1.256 . S
C904 C367 1.237 . S
C915 C279 1.283 . S
C920 C381 1.260 . S
C931 C382 1.247 . S
C936 C293 1.270 . S
C947 C345 1.282 . S
C952 C323 1.302 . S
C963 C272 1.220 . S
C968 C370 1.193 . S
C979 C8 1.954 . S
C984 C294 1.946 . S
C995 C43 1.958 . S
C1000 C326 1.954 . S
C1011 C65 1.920 . S
C1016 C271 1.906 . S
C1027 C52 1.927 . S
C1032 C175 1.880 . S
C1043 C21 1.947 . S
C1048 C197 1.916 . S
C1059 C30 1.911 . S
C1064 C153 1.887 . S
C1075 C235 1.924 . S
C1080 C84 1.969 . S
C1091 C109 1.996 . S
C1096 C263 1.968 . S
C1107 C125 1.975 . S
C1112 C205 1.935 . S
C1123 C373 1.939 . S
C1128 C120 1.970 . S
C1139 C73 1.962 . S
C1144 C389 1.974 . S
C1155 C96 1.951 . S
C1160 C338 1.952 . S
C1171 C184 1.923 . S
C1176 C307 1.904 . S
C1187 C140 1.910 . S
C1192 C315 1.922 . S
C1203 C282 1.941 . S
C1208 C162 1.919 . S
C1219 C360 1.879 . S
C1224 C216 1.897 . S
C1235 C384 1.898 . S
C1240 C230 1.921 . S
C1251 C250 1.942 . S
C1256 C351 1.951 . S
