# Generated by pormake.
# Topology ums, (4)-cn, num edge types: 1
# Building blocks:
#     Node 0, Type 0, BuildingBlock: TATPOV_clean_sbu_0, # of connection points: 4
#     Node 1, Type 0, BuildingBlock: TATPOV_clean_sbu_0, # of connection points: 4
#     Node 2, Type 0, BuildingBlock: TATPOV_clean_sbu_0, # of connection points: 4
#     Node 3, Type 0, BuildingBlock: TATPOV_clean_sbu_0, # of connection points: 4
#     Node 4, Type 0, BuildingBlock: TATPOV_clean_sbu_0, # of connection points: 4
#     Node 5, Type 0, BuildingBlock: TATPOV_clean_sbu_0, # of connection points: 4
#     Node 6, Type 0, BuildingBlock: TATPOV_clean_sbu_0, # of connection points: 4
#     Node 7, Type 0, BuildingBlock: TATPOV_clean_sbu_0, # of connection points: 4
#     Node 8, Type 0, BuildingBlock: TATPOV_clean_sbu_0, # of connection points: 4
#     Node 9, Type 0, BuildingBlock: TATPOV_clean_sbu_0, # of connection points: 4
#     Node 10, Type 0, BuildingBlock: TATPOV_clean_sbu_0, # of connection points: 4
#     Node 11, Type 0, BuildingBlock: TATPOV_clean_sbu_0, # of connection points: 4
#     Node 12, Type 0, BuildingBlock: TATPOV_clean_sbu_0, # of connection points: 4
#     Node 13, Type 0, BuildingBlock: TATPOV_clean_sbu_0, # of connection points: 4
#     Node 14, Type 0, BuildingBlock: TATPOV_clean_sbu_0, # of connection points: 4
#     Node 15, Type 0, BuildingBlock: TATPOV_clean_sbu_0, # of connection points: 4
#     Node 16, Type 0, BuildingBlock: TATPOV_clean_sbu_0, # of connection points: 4
#     Node 17, Type 0, BuildingBlock: TATPOV_clean_sbu_0, # of connection points: 4
#     Node 18, Type 0, BuildingBlock: TATPOV_clean_sbu_0, # of connection points: 4
#     Node 19, Type 0, BuildingBlock: TATPOV_clean_sbu_0, # of connection points: 4
#     Node 20, Type 0, BuildingBlock: TATPOV_clean_sbu_0, # of connection points: 4
#     Node 21, Type 0, BuildingBlock: TATPOV_clean_sbu_0, # of connection points: 4
#     Node 22, Type 0, BuildingBlock: TATPOV_clean_sbu_0, # of connection points: 4
#     Node 23, Type 0, BuildingBlock: TATPOV_clean_sbu_0, # of connection points: 4
#     Node 24, Type 0, BuildingBlock: TATPOV_clean_sbu_0, # of connection points: 4
#     Node 25, Type 0, BuildingBlock: TATPOV_clean_sbu_0, # of connection points: 4
#     Node 26, Type 0, BuildingBlock: TATPOV_clean_sbu_0, # of connection points: 4
#     Node 27, Type 0, BuildingBlock: TATPOV_clean_sbu_0, # of connection points: 4
#     Node 28, Type 0, BuildingBlock: TATPOV_clean_sbu_0, # of connection points: 4
#     Node 29, Type 0, BuildingBlock: TATPOV_clean_sbu_0, # of connection points: 4
#     Node 30, Type 0, BuildingBlock: TATPOV_clean_sbu_0, # of connection points: 4
#     Node 31, Type 0, BuildingBlock: TATPOV_clean_sbu_0, # of connection points: 4
#     Node 32, Type 0, BuildingBlock: TATPOV_clean_sbu_0, # of connection points: 4
#     Node 33, Type 0, BuildingBlock: TATPOV_clean_sbu_0, # of connection points: 4
#     Node 34, Type 0, BuildingBlock: TATPOV_clean_sbu_0, # of connection points: 4
#     Node 35, Type 0, BuildingBlock: TATPOV_clean_sbu_0, # of connection points: 4
#     Edge 36, Type (0, 0), BuildingBlock: KIFKEQ_clean_linker_1, # of connection points: 2
#     Edge 37, Type (0, 0), BuildingBlock: KIFKEQ_clean_linker_1, # of connection points: 2
#     Edge 38, Type (0, 0), BuildingBlock: KIFKEQ_clean_linker_1, # of connection points: 2
#     Edge 39, Type (0, 0), BuildingBlock: KIFKEQ_clean_linker_1, # of connection points: 2
#     Edge 40, Type (0, 0), BuildingBlock: KIFKEQ_clean_linker_1, # of connection points: 2
#     Edge 41, Type (0, 0), BuildingBlock: KIFKEQ_clean_linker_1, # of connection points: 2
#     Edge 42, Type (0, 0), BuildingBlock: KIFKEQ_clean_linker_1, # of connection points: 2
#     Edge 43, Type (0, 0), BuildingBlock: KIFKEQ_clean_linker_1, # of connection points: 2
#     Edge 44, Type (0, 0), BuildingBlock: KIFKEQ_clean_linker_1, # of connection points: 2
#     Edge 45, Type (0, 0), BuildingBlock: KIFKEQ_clean_linker_1, # of connection points: 2
#     Edge 46, Type (0, 0), BuildingBlock: KIFKEQ_clean_linker_1, # of connection points: 2
#     Edge 47, Type (0, 0), BuildingBlock: KIFKEQ_clean_linker_1, # of connection points: 2
#     Edge 48, Type (0, 0), BuildingBlock: KIFKEQ_clean_linker_1, # of connection points: 2
#     Edge 49, Type (0, 0), BuildingBlock: KIFKEQ_clean_linker_1, # of connection points: 2
#     Edge 50, Type (0, 0), BuildingBlock: KIFKEQ_clean_linker_1, # of connection points: 2
#     Edge 51, Type (0, 0), BuildingBlock: KIFKEQ_clean_linker_1, # of connection points: 2
#     Edge 52, Type (0, 0), BuildingBlock: KIFKEQ_clean_linker_1, # of connection points: 2
#     Edge 53, Type (0, 0), BuildingBlock: KIFKEQ_clean_linker_1, # of connection points: 2
#     Edge 54, Type (0, 0), BuildingBlock: KIFKEQ_clean_linker_1, # of connection points: 2
#     Edge 55, Type (0, 0), BuildingBlock: KIFKEQ_clean_linker_1, # of connection points: 2
#     Edge 56, Type (0, 0), BuildingBlock: KIFKEQ_clean_linker_1, # of connection points: 2
#     Edge 57, Type (0, 0), BuildingBlock: KIFKEQ_clean_linker_1, # of connection points: 2
#     Edge 58, Type (0, 0), BuildingBlock: KIFKEQ_clean_linker_1, # of connection points: 2
#     Edge 59, Type (0, 0), BuildingBlock: KIFKEQ_clean_linker_1, # of connection points: 2
#     Edge 60, Type (0, 0), BuildingBlock: KIFKEQ_clean_linker_1, # of connection points: 2
#     Edge 61, Type (0, 0), BuildingBlock: KIFKEQ_clean_linker_1, # of connection points: 2
#     Edge 62, Type (0, 0), BuildingBlock: KIFKEQ_clean_linker_1, # of connection points: 2
#     Edge 63, Type (0, 0), BuildingBlock: KIFKEQ_clean_linker_1, # of connection points: 2
#     Edge 64, Type (0, 0), BuildingBlock: KIFKEQ_clean_linker_1, # of connection points: 2
#     Edge 65, Type (0, 0), BuildingBlock: KIFKEQ_clean_linker_1, # of connection points: 2
#     Edge 66, Type (0, 0), BuildingBlock: KIFKEQ_clean_linker_1, # of connection points: 2
#     Edge 67, Type (0, 0), BuildingBlock: KIFKEQ_clean_linker_1, # of connection points: 2
#     Edge 68, Type (0, 0), BuildingBlock: KIFKEQ_clean_linker_1, # of connection points: 2
#     Edge 69, Type (0, 0), BuildingBlock: KIFKEQ_clean_linker_1, # of connection points: 2
#     Edge 70, Type (0, 0), BuildingBlock: KIFKEQ_clean_linker_1, # of connection points: 2
#     Edge 71, Type (0, 0), BuildingBlock: KIFKEQ_clean_linker_1, # of connection points: 2
#     Edge 72, Type (0, 0), BuildingBlock: KIFKEQ_clean_linker_1, # of connection points: 2
#     Edge 73, Type (0, 0), BuildingBlock: KIFKEQ_clean_linker_1, # of connection points: 2
#     Edge 74, Type (0, 0), BuildingBlock: KIFKEQ_clean_linker_1, # of connection points: 2
#     Edge 75, Type (0, 0), BuildingBlock: KIFKEQ_clean_linker_1, # of connection points: 2
#     Edge 76, Type (0, 0), BuildingBlock: KIFKEQ_clean_linker_1, # of connection points: 2
#     Edge 77, Type (0, 0), BuildingBlock: KIFKEQ_clean_linker_1, # of connection points: 2
#     Edge 78, Type (0, 0), BuildingBlock: KIFKEQ_clean_linker_1, # of connection points: 2
#     Edge 79, Type (0, 0), BuildingBlock: KIFKEQ_clean_linker_1, # of connection points: 2
#     Edge 80, Type (0, 0), BuildingBlock: KIFKEQ_clean_linker_1, # of connection points: 2
#     Edge 81, Type (0, 0), BuildingBlock: KIFKEQ_clean_linker_1, # of connection points: 2
#     Edge 82, Type (0, 0), BuildingBlock: KIFKEQ_clean_linker_1, # of connection points: 2
#     Edge 83, Type (0, 0), BuildingBlock: KIFKEQ_clean_linker_1, # of connection points: 2
#     Edge 84, Type (0, 0), BuildingBlock: KIFKEQ_clean_linker_1, # of connection points: 2
#     Edge 85, Type (0, 0), BuildingBlock: KIFKEQ_clean_linker_1, # of connection points: 2
#     Edge 86, Type (0, 0), BuildingBlock: KIFKEQ_clean_linker_1, # of connection points: 2
#     Edge 87, Type (0, 0), BuildingBlock: KIFKEQ_clean_linker_1, # of connection points: 2
#     Edge 88, Type (0, 0), BuildingBlock: KIFKEQ_clean_linker_1, # of connection points: 2
#     Edge 89, Type (0, 0), BuildingBlock: KIFKEQ_clean_linker_1, # of connection points: 2
#     Edge 90, Type (0, 0), BuildingBlock: KIFKEQ_clean_linker_1, # of connection points: 2
#     Edge 91, Type (0, 0), BuildingBlock: KIFKEQ_clean_linker_1, # of connection points: 2
#     Edge 92, Type (0, 0), BuildingBlock: KIFKEQ_clean_linker_1, # of connection points: 2
#     Edge 93, Type (0, 0), BuildingBlock: KIFKEQ_clean_linker_1, # of connection points: 2
#     Edge 94, Type (0, 0), BuildingBlock: KIFKEQ_clean_linker_1, # of connection points: 2
#     Edge 95, Type (0, 0), BuildingBlock: KIFKEQ_clean_linker_1, # of connection points: 2
#     Edge 96, Type (0, 0), BuildingBlock: KIFKEQ_clean_linker_1, # of connection points: 2
#     Edge 97, Type (0, 0), BuildingBlock: KIFKEQ_clean_linker_1, # of connection points: 2
#     Edge 98, Type (0, 0), BuildingBlock: KIFKEQ_clean_linker_1, # of connection points: 2
#     Edge 99, Type (0, 0), BuildingBlock: KIFKEQ_clean_linker_1, # of connection points: 2
#     Edge 100, Type (0, 0), BuildingBlock: KIFKEQ_clean_linker_1, # of connection points: 2
#     Edge 101, Type (0, 0), BuildingBlock: KIFKEQ_clean_linker_1, # of connection points: 2
#     Edge 102, Type (0, 0), BuildingBlock: KIFKEQ_clean_linker_1, # of connection points: 2
#     Edge 103, Type (0, 0), BuildingBlock: KIFKEQ_clean_linker_1, # of connection points: 2
#     Edge 104, Type (0, 0), BuildingBlock: KIFKEQ_clean_linker_1, # of connection points: 2
#     Edge 105, Type (0, 0), BuildingBlock: KIFKEQ_clean_linker_1, # of connection points: 2
#     Edge 106, Type (0, 0), BuildingBlock: KIFKEQ_clean_linker_1, # of connection points: 2
#     Edge 107, Type (0, 0), BuildingBlock: KIFKEQ_clean_linker_1, # of connection points: 2
# Relax obj value: 0.121
# Max RMSD: 0.107
# Mean RMSD: 0.107
data_MOF--net-ums--node1-TATPOV_clean_sbu_0--edge1-KIFKEQ_clean_linker_1
_symmetry_space_group_name_H-M    P1
_symmetry_Int_Tables_number       1
_symmetry_cell_setting            triclinic
loop_
_symmetry_equiv_pos_as_xyz
'x, y, z'
_cell_length_a     103.13398
_cell_length_b     103.10332
_cell_length_c     24.034711
_cell_angle_alpha  90.027145
_cell_angle_beta   90.001511
_cell_angle_gamma 120.03623
loop_
_atom_site_label
_atom_site_type_symbol
_atom_site_fract_x
_atom_site_fract_y
_atom_site_fract_z
_atom_type_partial_charge
Zn0 Zn 0.16366 0.27558 0.13548 0.0
Zn1 Zn 0.17178 0.25607 0.14905 0.0
O2 O 0.19095 0.27736 0.14597 0.0
O3 O 0.18313 0.29348 0.15643 0.0
O4 O 0.18024 0.24341 0.17772 0.0
O5 O 0.14648 0.26641 0.18804 0.0
O6 O 0.15398 0.25017 0.203 0.0
C7 C 0.1938 0.29084 0.15184 0.0
C8 C 0.15964 0.25659 0.03877 0.0
O9 O 0.16328 0.24915 0.07105 0.0
O10 O 0.15997 0.26842 0.05556 0.0
C11 C 0.1825 0.23404 0.15131 0.0
O12 O 0.17894 0.23156 0.09835 0.0
C13 C 0.14479 0.25479 0.21227 0.0
Zn14 Zn 0.71335 0.8909 0.28453 0.0
Zn15 Zn 0.7342 0.91744 0.26304 0.0
O16 O 0.71407 0.91671 0.24387 0.0
O17 O 0.69633 0.89443 0.27022 0.0
O18 O 0.74957 0.93949 0.26132 0.0
O19 O 0.71975 0.88934 0.36021 0.0
O20 O 0.73923 0.91108 0.33878 0.0
C21 C 0.70017 0.90703 0.24869 0.0
C22 C 0.73267 0.89323 0.19161 0.0
O23 O 0.73913 0.90731 0.20014 0.0
O24 O 0.72176 0.88426 0.22177 0.0
C25 C 0.75168 0.94825 0.22081 0.0
O26 O 0.74376 0.94281 0.17515 0.0
C27 C 0.73275 0.89989 0.37153 0.0
Zn28 Zn 0.10708 0.8414 0.13747 0.0
Zn29 Zn 0.08019 0.8292 0.16394 0.0
O30 O 0.08277 0.81121 0.13867 0.0
O31 O 0.10479 0.8233 0.09799 0.0
O32 O 0.05873 0.81918 0.19046 0.0
O33 O 0.1152 0.84659 0.21373 0.0
O34 O 0.0921 0.84057 0.23463 0.0
C35 C 0.09305 0.81113 0.10945 0.0
C36 C 0.09316 0.85505 0.08205 0.0
O37 O 0.0814 0.84345 0.09971 0.0
O38 O 0.10593 0.85736 0.09624 0.0
C39 C 0.05449 0.80899 0.22728 0.0
O40 O 0.06415 0.80529 0.24623 0.0
C41 C 0.10586 0.84638 0.24827 0.0
Zn42 Zn 0.2791 0.16905 0.27472 0.0
Zn43 Zn 0.25763 0.17423 0.30357 0.0
O44 O 0.27771 0.1943 0.31574 0.0
O45 O 0.29553 0.19019 0.28658 0.0
O46 O 0.24157 0.18006 0.30563 0.0
O47 O 0.27133 0.16138 0.19864 0.0
O48 O 0.25165 0.16202 0.23008 0.0
C49 C 0.29157 0.19893 0.3075 0.0
C50 C 0.26134 0.15281 0.37418 0.0
O51 O 0.25454 0.16017 0.36783 0.0
O52 O 0.27151 0.15448 0.34025 0.0
C53 C 0.24367 0.19281 0.32062 0.0
O54 O 0.25658 0.20256 0.34271 0.0
C55 C 0.25789 0.15822 0.19289 0.0
Zn56 Zn 0.82618 0.11529 0.18728 0.0
Zn57 Zn 0.8245 0.0901 0.21554 0.0
O58 O 0.80556 0.08956 0.24872 0.0
O59 O 0.80689 0.11067 0.22363 0.0
O60 O 0.81963 0.06861 0.22431 0.0
O61 O 0.82711 0.11245 0.10562 0.0
O62 O 0.82989 0.09352 0.13137 0.0
C63 C 0.80019 0.09834 0.24942 0.0
C64 C 0.85001 0.11794 0.26273 0.0
O65 O 0.84284 0.10365 0.2633 0.0
O66 O 0.84545 0.12501 0.23288 0.0
C67 C 0.81217 0.06034 0.26493 0.0
O68 O 0.80867 0.06628 0.30652 0.0
C69 C 0.82986 0.10216 0.09353 0.0
Zn70 Zn 0.88726 0.71534 0.31667 0.0
Zn71 Zn 0.91441 0.73529 0.33116 0.0
O72 O 0.91295 0.71468 0.3483 0.0
O73 O 0.88996 0.69767 0.32588 0.0
O74 O 0.93657 0.74962 0.32285 0.0
O75 O 0.88386 0.72153 0.24319 0.0
O76 O 0.90628 0.74052 0.26018 0.0
C77 C 0.90276 0.70094 0.34379 0.0
C78 C 0.89305 0.73569 0.41119 0.0
O79 O 0.90684 0.74155 0.39841 0.0
O80 O 0.88313 0.72477 0.38332 0.0
C81 C 0.94683 0.75118 0.35616 0.0
O82 O 0.94316 0.74339 0.40252 0.0
C83 C 0.8944 0.73443 0.23067 0.0
Zn84 Zn 0.84101 0.73225 0.87584 0.0
Zn85 Zn 0.83039 0.74846 0.85216 0.0
O86 O 0.81162 0.72841 0.87645 0.0
O87 O 0.82258 0.71719 0.916 0.0
O88 O 0.82157 0.76116 0.82856 0.0
O89 O 0.8454 0.72909 0.79859 0.0
O90 O 0.84124 0.74759 0.78058 0.0
C91 C 0.81082 0.71764 0.90522 0.0
C92 C 0.85635 0.7596 0.9326 0.0
O93 O 0.84508 0.76056 0.91648 0.0
O94 O 0.85784 0.74874 0.91676 0.0
C95 C 0.81274 0.7629 0.86049 0.0
O96 O 0.80967 0.75655 0.90981 0.0
C97 C 0.84605 0.7389 0.76538 0.0
Zn98 Zn 0.27789 0.11279 0.84373 0.0
Zn99 Zn 0.26285 0.08492 0.82104 0.0
O100 O 0.28388 0.08852 0.84554 0.0
O101 O 0.29479 0.11155 0.87816 0.0
O102 O 0.25207 0.06303 0.79985 0.0
O103 O 0.2784 0.1191 0.7653 0.0
O104 O 0.26249 0.09537 0.74768 0.0
C105 C 0.2949 0.0995 0.86994 0.0
C106 C 0.25054 0.09866 0.90279 0.0
O107 O 0.2496 0.08671 0.88311 0.0
O108 O 0.26148 0.11133 0.89036 0.0
C109 C 0.23867 0.05616 0.78191 0.0
O110 O 0.23124 0.0634 0.77819 0.0
C111 C 0.26956 0.10903 0.73208 0.0
Zn112 Zn 0.88476 0.18039 0.68689 0.0
Zn113 Zn 0.90973 0.18143 0.713 0.0
O114 O 0.90993 0.19994 0.74909 0.0
O115 O 0.88979 0.20007 0.72048 0.0
O116 O 0.93124 0.18683 0.72522 0.0
O117 O 0.88694 0.17848 0.6055 0.0
O118 O 0.90676 0.17688 0.62798 0.0
C119 C 0.90172 0.20597 0.74878 0.0
C120 C 0.88188 0.15637 0.76183 0.0
O121 O 0.8961 0.16258 0.75812 0.0
O122 O 0.87499 0.16178 0.73568 0.0
C123 C 0.93761 0.18028 0.70299 0.0
O124 O 0.9296 0.16819 0.67291 0.0
C125 C 0.89752 0.17632 0.59145 0.0
Zn126 Zn 0.7244 0.8414 0.72783 0.0
Zn127 Zn 0.74171 0.8315 0.74321 0.0
O128 O 0.7234 0.81346 0.70477 0.0
O129 O 0.71117 0.82466 0.67681 0.0
O130 O 0.75509 0.8232 0.76332 0.0
O131 O 0.71909 0.84179 0.80651 0.0
O132 O 0.73856 0.83891 0.81985 0.0
C133 C 0.71274 0.81327 0.67724 0.0
C134 C 0.7527 0.86033 0.67953 0.0
O135 O 0.75428 0.84902 0.68887 0.0
O136 O 0.74116 0.86037 0.6969 0.0
C137 C 0.75828 0.81581 0.7291 0.0
O138 O 0.75298 0.81376 0.67816 0.0
C139 C 0.72888 0.84204 0.83876 0.0
Zn140 Zn 0.16963 0.88882 0.70318 0.0
Zn141 Zn 0.17558 0.91572 0.68744 0.0
O142 O 0.19552 0.91528 0.67606 0.0
O143 O 0.1905 0.89258 0.69815 0.0
O144 O 0.1824 0.93786 0.69088 0.0
O145 O 0.15918 0.88546 0.77489 0.0
O146 O 0.16174 0.90752 0.75737 0.0
C147 C 0.19976 0.90566 0.68185 0.0
C148 C 0.1553 0.89324 0.6055 0.0
O149 O 0.16242 0.90707 0.61866 0.0
O150 O 0.15671 0.88373 0.63437 0.0
C151 C 0.19412 0.94788 0.66667 0.0
O152 O 0.20181 0.94379 0.63485 0.0
C153 C 0.15613 0.89558 0.78654 0.0
Zn154 Zn 0.1054 0.25818 0.58663 0.0
Zn155 Zn 0.07947 0.24467 0.62549 0.0
O156 O 0.08419 0.26687 0.61676 0.0
O157 O 0.1046 0.27646 0.5657 0.0
O158 O 0.05815 0.23348 0.65477 0.0
O159 O 0.11504 0.257 0.65566 0.0
O160 O 0.09227 0.24172 0.68649 0.0
C161 C 0.09423 0.27771 0.58834 0.0
C162 C 0.08783 0.23324 0.52174 0.0
O163 O 0.07753 0.23321 0.55115 0.0
O164 O 0.10138 0.24271 0.53106 0.0
C165 C 0.04875 0.23727 0.63872 0.0
O166 O 0.05319 0.24864 0.60445 0.0
C167 C 0.10647 0.24789 0.692 0.0
Zn168 Zn 0.82623 0.60512 0.60958 0.0
Zn169 Zn 0.83168 0.58391 0.57829 0.0
O170 O 0.85162 0.60405 0.56813 0.0
O171 O 0.84738 0.62172 0.59807 0.0
O172 O 0.8383 0.56858 0.57143 0.0
O173 O 0.81869 0.59648 0.68502 0.0
O174 O 0.81971 0.57711 0.65203 0.0
C175 C 0.85619 0.61788 0.57694 0.0
C176 C 0.8102 0.588 0.5089 0.0
O177 O 0.81763 0.58125 0.51447 0.0
O178 O 0.81169 0.5979 0.54385 0.0
C179 C 0.84895 0.57018 0.54024 0.0
O180 O 0.85515 0.58161 0.50592 0.0
C181 C 0.81584 0.58311 0.68997 0.0
Zn182 Zn 0.39243 0.23137 0.5226 0.0
Zn183 Zn 0.41281 0.25789 0.50617 0.0
O184 O 0.39189 0.25672 0.50282 0.0
O185 O 0.37569 0.23513 0.53956 0.0
O186 O 0.4281 0.27995 0.5146 0.0
O187 O 0.40227 0.22575 0.58073 0.0
O188 O 0.42003 0.2491 0.5693 0.0
C189 C 0.37853 0.24751 0.5185 0.0
C190 C 0.40698 0.23724 0.41316 0.0
O191 O 0.416 0.25031 0.4318 0.0
O192 O 0.39606 0.22796 0.44269 0.0
C193 C 0.42552 0.29076 0.51076 0.0
O194 O 0.41223 0.28807 0.49447 0.0
C195 C 0.41517 0.23639 0.59264 0.0
Zn196 Zn 0.7836 0.15347 0.63194 0.0
Zn197 Zn 0.75788 0.15113 0.60966 0.0
O198 O 0.75759 0.13298 0.56997 0.0
O199 O 0.77912 0.13475 0.59152 0.0
O200 O 0.73624 0.14601 0.60382 0.0
O201 O 0.78156 0.15337 0.71413 0.0
O202 O 0.76162 0.15505 0.6949 0.0
C203 C 0.76671 0.12805 0.56625 0.0
C204 C 0.78509 0.17781 0.56363 0.0
O205 O 0.77081 0.17029 0.56484 0.0
O206 O 0.79269 0.17321 0.58994 0.0
C207 C 0.7273 0.13453 0.63204 0.0
O208 O 0.7328 0.1274 0.6599 0.0
C209 C 0.77091 0.15518 0.73024 0.0
Zn210 Zn 0.94968 0.5026 0.59341 0.0
Zn211 Zn 0.92831 0.50809 0.60591 0.0
O212 O 0.94799 0.52804 0.62484 0.0
O213 O 0.96621 0.52355 0.60584 0.0
O214 O 0.913 0.51462 0.59682 0.0
O215 O 0.94446 0.49362 0.51843 0.0
O216 O 0.9245 0.49549 0.53381 0.0
C217 C 0.96196 0.53246 0.62237 0.0
C218 C 0.92869 0.48636 0.68459 0.0
O219 O 0.92231 0.49381 0.67181 0.0
O220 O 0.94014 0.48827 0.65799 0.0
C221 C 0.90795 0.51948 0.63473 0.0
O222 O 0.9125 0.52014 0.68626 0.0
C223 C 0.93144 0.49058 0.5045 0.0
Zn224 Zn 0.52241 0.44293 0.80267 0.0
Zn225 Zn 0.50764 0.41804 0.74903 0.0
O226 O 0.49185 0.42445 0.76625 0.0
O227 O 0.50384 0.44333 0.82405 0.0
O228 O 0.49588 0.39908 0.7032 0.0
O229 O 0.53439 0.45419 0.73712 0.0
O230 O 0.52425 0.4324 0.6944 0.0
C231 C 0.49196 0.43433 0.79856 0.0
C232 C 0.52595 0.41999 0.85159 0.0
O233 O 0.51567 0.41167 0.8174 0.0
O234 O 0.53117 0.43399 0.85162 0.0
C235 C 0.49027 0.38599 0.72372 0.0
O236 O 0.49209 0.38448 0.77696 0.0
C237 C 0.53362 0.44646 0.69514 0.0
Zn238 Zn 0.559 0.05291 0.55584 0.0
Zn239 Zn 0.58603 0.07309 0.5847 0.0
O240 O 0.58392 0.05281 0.6118 0.0
O241 O 0.56113 0.03605 0.58524 0.0
O242 O 0.60806 0.08772 0.59625 0.0
O243 O 0.56209 0.05746 0.47545 0.0
O244 O 0.58381 0.07656 0.50045 0.0
C245 C 0.57336 0.03922 0.60834 0.0
C246 C 0.5602 0.07485 0.63523 0.0
O247 O 0.57429 0.07987 0.63473 0.0
O248 O 0.5516 0.06384 0.60461 0.0
C249 C 0.61505 0.08894 0.64124 0.0
O250 O 0.60755 0.08097 0.68464 0.0
C251 C 0.57407 0.06927 0.46302 0.0
Zn252 Zn 0.50431 0.0581 0.06506 0.0
Zn253 Zn 0.50273 0.08194 0.0883 0.0
O254 O 0.48353 0.06415 0.12382 0.0
O255 O 0.4849 0.04417 0.10178 0.0
O256 O 0.4992 0.09956 0.09212 0.0
O257 O 0.50506 0.06054 0.98317 0.0
O258 O 0.50757 0.08245 0.00375 0.0
C259 C 0.47811 0.04999 0.12556 0.0
C260 C 0.52843 0.08004 0.13663 0.0
O261 O 0.52123 0.08711 0.13562 0.0
O262 O 0.52371 0.06797 0.10926 0.0
C263 C 0.48913 0.10009 0.12094 0.0
O264 O 0.481 0.0891 0.15545 0.0
C265 C 0.50762 0.07333 0.96803 0.0
Zn266 Zn 0.93481 0.43823 0.14293 0.0
Zn267 Zn 0.91933 0.41141 0.12301 0.0
O268 O 0.94005 0.41375 0.14475 0.0
O269 O 0.95062 0.43612 0.1829 0.0
O270 O 0.90679 0.38946 0.10385 0.0
O271 O 0.93732 0.44517 0.06522 0.0
O272 O 0.9189 0.42224 0.05032 0.0
C273 C 0.95075 0.42417 0.17245 0.0
C274 C 0.90841 0.42654 0.20351 0.0
O275 O 0.90784 0.41436 0.18892 0.0
O276 O 0.91864 0.43887 0.18468 0.0
C277 C 0.9031 0.37966 0.14185 0.0
O278 O 0.90748 0.3841 0.19316 0.0
C279 C 0.92725 0.43568 0.0336 0.0
Zn280 Zn 0.54368 0.48262 0.2367 0.0
Zn281 Zn 0.57172 0.4966 0.2096 0.0
O282 O 0.56401 0.51163 0.19408 0.0
O283 O 0.5395 0.49738 0.19964 0.0
O284 O 0.59295 0.50738 0.18036 0.0
O285 O 0.53914 0.46369 0.19817 0.0
O286 O 0.56239 0.47619 0.16812 0.0
C287 C 0.55091 0.5099 0.18908 0.0
C288 C 0.56363 0.4898 0.32987 0.0
O289 O 0.57368 0.49366 0.29269 0.0
O290 O 0.55024 0.4857 0.31669 0.0
C291 C 0.60336 0.51906 0.20346 0.0
O292 O 0.60029 0.52439 0.24806 0.0
C293 C 0.54968 0.46417 0.16972 0.0
Zn294 Zn 0.41171 0.18539 0.94354 0.0
Zn295 Zn 0.4279 0.17639 0.98094 0.0
O296 O 0.40823 0.15689 0.95821 0.0
O297 O 0.39783 0.1663 0.90422 0.0
O298 O 0.44043 0.16827 0.01382 0.0
O299 O 0.40636 0.19016 0.01676 0.0
O300 O 0.42536 0.18808 0.04674 0.0
C301 C 0.398 0.15502 0.92383 0.0
C302 C 0.4397 0.20085 0.89347 0.0
O303 O 0.44076 0.19013 0.9152 0.0
O304 O 0.42841 0.20216 0.9036 0.0
C305 C 0.4463 0.16269 0.98242 0.0
O306 O 0.44442 0.16268 0.92834 0.0
C307 C 0.41556 0.192 0.0549 0.0
Zn308 Zn 0.84287 0.21411 0.13424 0.0
Zn309 Zn 0.84323 0.23905 0.11059 0.0
O310 O 0.86243 0.24099 0.07394 0.0
O311 O 0.86221 0.22017 0.09514 0.0
O312 O 0.84634 0.25996 0.10354 0.0
O313 O 0.84237 0.21642 0.21631 0.0
O314 O 0.83919 0.2354 0.19557 0.0
C315 C 0.86834 0.23271 0.07072 0.0
C316 C 0.81805 0.21061 0.06373 0.0
O317 O 0.82468 0.22489 0.06487 0.0
O318 O 0.82333 0.20374 0.09084 0.0
C319 C 0.85389 0.26905 0.06487 0.0
O320 O 0.85896 0.26439 0.0239 0.0
C321 C 0.83962 0.22652 0.23151 0.0
Zn322 Zn 0.76914 0.60161 0.03695 0.0
Zn323 Zn 0.74157 0.58606 0.05892 0.0
O324 O 0.74394 0.60626 0.02968 0.0
O325 O 0.76686 0.61715 -0.00387 0.0
O326 O 0.7199 0.57439 0.08284 0.0
O327 O 0.776 0.60431 0.11541 0.0
O328 O 0.75263 0.58731 0.13288 0.0
C329 C 0.75461 0.61695 0.00284 0.0
C330 C 0.7562 0.5736 0.98267 0.0
O331 O 0.74399 0.57265 -0.00086 0.0
O332 O 0.76865 0.58474 -0.00389 0.0
C333 C 0.70887 0.57038 0.04997 0.0
O334 O 0.71145 0.57365 -0.00317 0.0
C335 C 0.76618 0.59534 0.14902 0.0
Zn336 Zn 0.49046 0.93365 0.84928 0.0
Zn337 Zn 0.50157 0.91836 0.86667 0.0
O338 O 0.51947 0.93769 0.83202 0.0
O339 O 0.50637 0.9471 0.79607 0.0
O340 O 0.51049 0.90531 0.88458 0.0
O341 O 0.49023 0.93998 0.9262 0.0
O342 O 0.49321 0.92072 0.94306 0.0
C343 C 0.51867 0.94729 0.8009 0.0
C344 C 0.47281 0.9061 0.80035 0.0
O345 O 0.48489 0.90582 0.80855 0.0
O346 O 0.47142 0.91658 0.82119 0.0
C347 C 0.52144 0.90986 0.91817 0.0
O348 O 0.52679 0.92314 0.94121 0.0
C349 C 0.48987 0.93043 0.95996 0.0
Zn350 Zn 0.05344 0.55552 0.87599 0.0
Zn351 Zn 0.07572 0.58049 0.85138 0.0
O352 O 0.05614 0.58177 0.84453 0.0
O353 O 0.03805 0.56172 0.88405 0.0
O354 O 0.09216 0.60221 0.85208 0.0
O355 O 0.06217 0.55067 0.94033 0.0
O356 O 0.08187 0.57231 0.9197 0.0
C357 C 0.04246 0.57406 0.85951 0.0
C358 C 0.06766 0.55668 0.76843 0.0
O359 O 0.07739 0.57009 0.78153 0.0
O360 O 0.05666 0.54898 0.80044 0.0
C361 C 0.09137 0.61268 0.82728 0.0
O362 O 0.07993 0.60929 0.79443 0.0
C363 C 0.0757 0.56039 0.9489 0.0
Zn364 Zn 0.45196 0.52474 0.73695 0.0
Zn365 Zn 0.42508 0.51001 0.78823 0.0
O366 O 0.43293 0.49493 0.788 0.0
O367 O 0.45462 0.50687 0.74449 0.0
O368 O 0.40556 0.49923 0.8311 0.0
O369 O 0.45956 0.54146 0.79313 0.0
O370 O 0.43731 0.52948 0.83255 0.0
C371 C 0.44458 0.49523 0.76842 0.0
C372 C 0.42723 0.52137 0.67018 0.0
O373 O 0.41909 0.51458 0.71206 0.0
O374 O 0.4412 0.52635 0.67087 0.0
C375 C 0.39702 0.48511 0.82772 0.0
O376 O 0.40088 0.47738 0.7951 0.0
C377 C 0.45046 0.54086 0.82974 0.0
Zn378 Zn 0.61924 0.83981 0.90513 0.0
Zn379 Zn 0.59602 0.84263 0.92504 0.0
O380 O 0.61409 0.86139 0.96138 0.0
O381 O 0.63363 0.85893 0.94316 0.0
O382 O 0.57953 0.84774 0.92956 0.0
O383 O 0.61719 0.83918 0.82291 0.0
O384 O 0.59556 0.83767 0.84054 0.0
C385 C 0.62812 0.8662 0.96538 0.0
C386 C 0.59613 0.81612 0.97468 0.0
O387 O 0.58966 0.8239 0.97262 0.0
O388 O 0.6083 0.82035 0.94864 0.0
C389 C 0.57746 0.85394 0.97172 0.0
O390 O 0.58565 0.85621 0.01648 0.0
C391 C 0.6047 0.83714 0.80611 0.0
Zn392 Zn 0.17321 0.77942 0.94867 0.0
Zn393 Zn 0.16446 0.75225 0.94201 0.0
O394 O 0.14577 0.75271 0.97328 0.0
O395 O 0.1565 0.77631 -0.00086 0.0
O396 O 0.15658 0.73036 0.92551 0.0
O397 O 0.17235 0.78277 0.86731 0.0
O398 O 0.17168 0.76118 0.86319 0.0
C399 C 0.14517 0.76331 -0.00159 0.0
C400 C 0.19305 0.77233 0.0039 0.0
O401 O 0.18202 0.75902 -0.00136 0.0
O402 O 0.19261 0.78312 0.98085 0.0
C403 C 0.15085 0.71955 0.95988 0.0
O404 O 0.15025 0.72235 0.01286 0.0
C405 C 0.17333 0.77293 0.83921 0.0
Zn406 Zn 0.23606 0.39998 0.95859 0.0
Zn407 Zn 0.2634 0.41858 0.9899 0.0
O408 O 0.26036 0.39701 -0.00396 0.0
O409 O 0.23816 0.38177 0.9608 0.0
O410 O 0.2859 0.43247 -0.00562 0.0
O411 O 0.23686 0.40988 0.88701 0.0
O412 O 0.25877 0.42716 0.91891 0.0
C413 C 0.25015 0.38379 0.98287 0.0
C414 C 0.23937 0.416 0.06453 0.0
O415 O 0.25346 0.42199 0.05714 0.0
O416 O 0.23028 0.40686 0.029 0.0
C417 C 0.29532 0.42833 0.00601 0.0
O418 O 0.29043 0.41452 0.02273 0.0
C419 C 0.24841 0.42262 0.88257 0.0
Zn420 Zn 0.18372 0.3995 0.54174 0.0
Zn421 Zn 0.17091 0.41488 0.51245 0.0
O422 O 0.15306 0.39423 0.53748 0.0
O423 O 0.16449 0.38278 0.57151 0.0
O424 O 0.16086 0.42607 0.48395 0.0
O425 O 0.19083 0.39937 0.46443 0.0
O426 O 0.18223 0.41437 0.4424 0.0
C427 C 0.15255 0.38301 0.56205 0.0
C428 C 0.19583 0.42749 0.59883 0.0
O429 O 0.18545 0.42859 0.57435 0.0
O430 O 0.19745 0.41627 0.59075 0.0
C431 C 0.15037 0.42666 0.50944 0.0
O432 O 0.14586 0.41996 0.55786 0.0
C433 C 0.18937 0.40768 0.42932 0.0
Zn434 Zn 0.61909 0.77946 0.39358 0.0
Zn435 Zn 0.59627 0.75366 0.42095 0.0
O436 O 0.61494 0.75296 0.45152 0.0
O437 O 0.63396 0.77434 0.42312 0.0
O438 O 0.57901 0.73226 0.42601 0.0
O439 O 0.61517 0.77781 0.31276 0.0
O440 O 0.59437 0.75745 0.33667 0.0
C441 C 0.62902 0.76196 0.44796 0.0
C442 C 0.59838 0.78117 0.47279 0.0
O443 O 0.59141 0.76688 0.47107 0.0
O444 O 0.60998 0.7887 0.44325 0.0
C445 C 0.57964 0.72113 0.44575 0.0
O446 O 0.59185 0.72344 0.47147 0.0
C447 C 0.60257 0.76688 0.29971 0.0
Zn448 Zn 0.22779 0.84102 0.39272 0.0
Zn449 Zn 0.25271 0.84385 0.43154 0.0
O450 O 0.25264 0.86364 0.44968 0.0
O451 O 0.23259 0.86189 0.41056 0.0
O452 O 0.27422 0.84929 0.44566 0.0
O453 O 0.23033 0.83537 0.31584 0.0
O454 O 0.24943 0.83454 0.35251 0.0
C455 C 0.24431 0.86925 0.43933 0.0
C456 C 0.22484 0.82127 0.48741 0.0
O457 O 0.23911 0.82776 0.48661 0.0
O458 O 0.21797 0.82485 0.45228 0.0
C459 C 0.28312 0.86009 0.47678 0.0
O460 O 0.27788 0.86718 0.50631 0.0
C461 C 0.24065 0.83222 0.31167 0.0
Zn462 Zn 0.06717 0.50435 0.29836 0.0
Zn463 Zn 0.08207 0.49329 0.32768 0.0
O464 O 0.06222 0.47489 0.29912 0.0
O465 O 0.05356 0.48691 0.2503 0.0
O466 O 0.09398 0.4842 0.35786 0.0
O467 O 0.06083 0.50666 0.3739 0.0
O468 O 0.07981 0.50384 0.39776 0.0
C469 C 0.05279 0.47473 0.26437 0.0
C470 C 0.09552 0.52001 0.25098 0.0
O471 O 0.09545 0.50808 0.26554 0.0
O472 O 0.08497 0.52207 0.26618 0.0
C473 C 0.09738 0.47595 0.32933 0.0
O474 O 0.09324 0.47327 0.27693 0.0
C475 C 0.07007 0.50753 0.4103 0.0
Zn476 Zn 0.46792 0.56449 0.21925 0.0
Zn477 Zn 0.48852 0.5886 0.2665 0.0
O478 O 0.50028 0.57738 0.25294 0.0
O479 O 0.48278 0.55741 0.20995 0.0
O480 O 0.50304 0.6078 0.30682 0.0
O481 O 0.4537 0.55753 0.2815 0.0
O482 O 0.47054 0.57825 0.32259 0.0
C483 C 0.49605 0.56493 0.22822 0.0
C484 C 0.47437 0.58977 0.15544 0.0
O485 O 0.48466 0.5962 0.19169 0.0
O486 O 0.46496 0.57597 0.15958 0.0
C487 C 0.51245 0.61931 0.2798 0.0
O488 O 0.51316 0.6184 0.22548 0.0
C489 C 0.45775 0.56625 0.32282 0.0
Zn490 Zn 0.45138 0.95625 0.41383 0.0
Zn491 Zn 0.42357 0.93759 0.39446 0.0
O492 O 0.42672 0.959 0.38106 0.0
O493 O 0.44999 0.97477 0.40468 0.0
O494 O 0.40104 0.92463 0.39391 0.0
O495 O 0.4522 0.94828 0.48764 0.0
O496 O 0.42926 0.93076 0.46733 0.0
C497 C 0.43748 0.97244 0.38676 0.0
C498 C 0.44566 0.93654 0.31798 0.0
O499 O 0.43184 0.93147 0.32863 0.0
O500 O 0.45568 0.94685 0.34767 0.0
C501 C 0.39433 0.91081 0.40682 0.0
O502 O 0.40226 0.90432 0.41702 0.0
C503 C 0.44075 0.93583 0.49872 0.0
H504 H 0.21734 0.17656 0.26345 0.0
H505 H 0.24535 0.21975 0.34011 0.0
H506 H 0.20116 0.18543 0.22631 0.0
H507 H 0.22931 0.22865 0.30225 0.0
H508 H 0.19146 0.23715 0.25991 0.0
H509 H 0.20453 0.22598 0.30615 0.0
H510 H 0.20334 0.20312 0.15393 0.0
H511 H 0.19003 0.2141 0.10776 0.0
C512 C 0.21996 0.18789 0.27297 0.0
C513 C 0.23272 0.19747 0.30454 0.0
C514 C 0.21074 0.193 0.25126 0.0
C515 C 0.21402 0.20779 0.26081 0.0
C516 C 0.22639 0.21716 0.29442 0.0
C517 C 0.23563 0.21206 0.31601 0.0
C518 C 0.19389 0.22966 0.2363 0.0
C519 C 0.18976 0.22659 0.17995 0.0
C520 C 0.20144 0.22331 0.26283 0.0
C521 C 0.20504 0.21371 0.23374 0.0
C522 C 0.20059 0.21034 0.17776 0.0
C523 C 0.19305 0.21671 0.15116 0.0
H524 H 0.79479 0.0392 0.34201 0.0
H525 H 0.81451 0.04411 0.17919 0.0
H526 H 0.78151 0.01206 0.33117 0.0
H527 H 0.80136 0.01694 0.16874 0.0
H528 H 0.75898 0.97027 0.14311 0.0
H529 H 0.77516 0.99723 0.15516 0.0
H530 H 0.78467 0.9901 0.32379 0.0
H531 H 0.76836 0.96317 0.31208 0.0
C532 C 0.79648 0.0345 0.30426 0.0
C533 C 0.80565 0.04386 0.26136 0.0
C534 C 0.7889 0.01892 0.29813 0.0
C535 C 0.79028 0.01233 0.24889 0.0
C536 C 0.79988 0.02167 0.20682 0.0
C537 C 0.8075 0.03725 0.21303 0.0
C538 C 0.7646 0.97444 0.18263 0.0
C539 C 0.76229 0.96455 0.22669 0.0
C540 C 0.77395 0.98989 0.18944 0.0
C541 C 0.78118 0.99583 0.24052 0.0
C542 C 0.77913 0.98591 0.28416 0.0
C543 C 0.76982 0.97046 0.2773 0.0
H544 H 0.97184 0.75832 0.41828 0.0
H545 H 0.9579 0.76586 0.25778 0.0
H546 H 0.99799 0.77323 0.38981 0.0
H547 H 0.9839 0.78028 0.22875 0.0
H548 H 0.03252 0.81591 0.20656 0.0
H549 H 0.00686 0.8031 0.24113 0.0
H550 H 0.01542 0.77159 0.3291 0.0
H551 H 0.04117 0.78469 0.29606 0.0
C552 C 0.97434 0.76316 0.37697 0.0
C553 C 0.96276 0.76086 0.34033 0.0
C554 C 0.98934 0.77164 0.36047 0.0
C555 C 0.9931 0.77793 0.30682 0.0
C556 C 0.98149 0.77582 0.27062 0.0
C557 C 0.96653 0.76744 0.28721 0.0
C558 C 0.02893 0.80627 0.23342 0.0
C559 C 0.03889 0.80131 0.24841 0.0
C560 C 0.01418 0.79887 0.25307 0.0
C561 C 0.009 0.78626 0.2879 0.0
C562 C 0.01904 0.78139 0.30315 0.0
C563 C 0.0338 0.78884 0.28381 0.0
H564 H 0.7926 0.76783 0.91687 0.0
H565 H 0.81662 0.77737 0.76114 0.0
H566 H 0.78009 0.78115 0.88449 0.0
H567 H 0.80431 0.79097 0.72921 0.0
H568 H 0.76589 0.7981 0.66869 0.0
H569 H 0.77958 0.78589 0.70055 0.0
H570 H 0.78491 0.80613 0.86258 0.0
H571 H 0.77096 0.81808 0.83116 0.0
C572 C 0.7953 0.77287 0.87589 0.0
C573 C 0.80558 0.7715 0.84157 0.0
C574 C 0.78819 0.78058 0.85743 0.0
C575 C 0.79119 0.78713 0.80423 0.0
C576 C 0.8016 0.78589 0.77012 0.0
C577 C 0.80871 0.77817 0.78858 0.0
C578 C 0.77003 0.8 0.71104 0.0
C579 C 0.76727 0.80901 0.74743 0.0
C580 C 0.77796 0.79306 0.72922 0.0
C581 C 0.7833 0.79499 0.78419 0.0
C582 C 0.78075 0.80422 0.82025 0.0
C583 C 0.77282 0.81115 0.8021 0.0
H584 H 0.20979 0.03755 0.74762 0.0
H585 H 0.25185 0.03888 0.77504 0.0
H586 H 0.19858 0.01158 0.71633 0.0
H587 H 0.24061 0.01295 0.74427 0.0
H588 H 0.22052 0.97189 0.63235 0.0
H589 H 0.23088 0.99812 0.65818 0.0
H590 H 0.19125 0.98653 0.75492 0.0
H591 H 0.18079 0.96028 0.72874 0.0
C592 C 0.21664 0.03231 0.7471 0.0
C593 C 0.23172 0.04031 0.76384 0.0
C594 C 0.21019 0.01741 0.72936 0.0
C595 C 0.21872 0.01023 0.72758 0.0
C596 C 0.23379 0.01823 0.74438 0.0
C597 C 0.24021 0.03307 0.76242 0.0
C598 C 0.21394 0.97493 0.65872 0.0
C599 C 0.19985 0.96396 0.67866 0.0
C600 C 0.21993 0.98996 0.67383 0.0
C601 C 0.21194 0.99439 0.70897 0.0
C602 C 0.19765 0.98349 0.72751 0.0
C603 C 0.19168 0.96844 0.71266 0.0
H604 H 0.03369 0.20925 0.68562 0.0
H605 H 0.02782 0.24588 0.63068 0.0
H606 H 0.00698 0.19472 0.70887 0.0
H607 H 1.00132 0.23146 0.65411 0.0
H608 H 0.95759 0.20754 0.74709 0.0
H609 H 0.98477 0.22091 0.73856 0.0
H610 H 0.98251 0.18301 0.65301 0.0
H611 H 0.9552 0.16954 0.66133 0.0
C612 C 0.02675 0.21425 0.67902 0.0
C613 C 0.03286 0.2287 0.6562 0.0
C614 C 0.01147 0.20591 0.69206 0.0
C615 C 0.00209 0.21197 0.68343 0.0
C616 C 0.0083 0.22655 0.66183 0.0
C617 C 0.02347 0.23477 0.64809 0.0
C618 C 0.96285 0.20193 0.72711 0.0
C619 C 0.95418 0.1875 0.70438 0.0
C620 C 0.97844 0.20965 0.72204 0.0
C621 C 0.98575 0.20307 0.69465 0.0
C622 C 0.97718 0.18834 0.67454 0.0
C623 C 0.96154 0.18066 0.67912 0.0
H624 H 0.87224 0.57085 0.48316 0.0
H625 H 0.84122 0.54802 0.61759 0.0
H626 H 0.88534 0.55729 0.50494 0.0
H627 H 0.85427 0.53438 0.63894 0.0
H628 H 0.89456 0.53035 0.70438 0.0
H629 H 0.879 0.54109 0.67856 0.0
H630 H 0.88266 0.53216 0.50542 0.0
H631 H 0.89829 0.52156 0.53098 0.0
C632 C 0.86807 0.56278 0.51681 0.0
C633 C 0.85573 0.5606 0.54879 0.0
C634 C 0.87556 0.55498 0.52919 0.0
C635 C 0.87091 0.54485 0.57397 0.0
C636 C 0.85825 0.54227 0.60472 0.0
C637 C 0.85071 0.55002 0.59216 0.0
C638 C 0.89196 0.53058 0.66086 0.0
C639 C 0.89774 0.52516 0.61979 0.0
C640 C 0.88298 0.53666 0.64607 0.0
C641 C 0.87963 0.53751 0.5899 0.0
C642 C 0.88518 0.53182 0.54897 0.0
C643 C 0.89408 0.52569 0.56374 0.0
H644 H 0.42383 0.31648 0.51029 0.0
H645 H 0.45215 0.2989 0.56242 0.0
H646 H 0.44041 0.34004 0.55785 0.0
H647 H 0.46868 0.32244 0.60959 0.0
H648 H 0.48018 0.3568 0.75133 0.0
H649 H 0.4657 0.33459 0.69423 0.0
H650 H 0.4664 0.36238 0.55862 0.0
H651 H 0.48092 0.38472 0.61592 0.0
C652 C 0.4337 0.3177 0.53113 0.0
C653 C 0.43658 0.30574 0.53288 0.0
C654 C 0.44322 0.33123 0.55824 0.0
C655 C 0.45576 0.33303 0.58799 0.0
C656 C 0.45897 0.3213 0.58775 0.0
C657 C 0.44954 0.30784 0.56036 0.0
C658 C 0.47731 0.35821 0.7093 0.0
C659 C 0.4817 0.37255 0.68826 0.0
C660 C 0.46909 0.34547 0.67642 0.0
C661 C 0.46496 0.34673 0.62181 0.0
C662 C 0.46935 0.36105 0.60064 0.0
C663 C 0.47771 0.37384 0.63341 0.0
H664 H 0.71174 0.1466 0.58194 0.0
H665 H 0.70595 0.11022 0.68783 0.0
H666 H 0.6848 0.13738 0.58695 0.0
H667 H 0.67922 0.1009 0.69182 0.0
H668 H 0.63367 0.09388 0.72976 0.0
H669 H 0.66093 0.10645 0.72936 0.0
H670 H 0.6613 0.11644 0.55463 0.0
H671 H 0.63406 0.10422 0.55534 0.0
C672 C 0.70474 0.13665 0.60618 0.0
C673 C 0.71101 0.12916 0.63444 0.0
C674 C 0.6893 0.13133 0.60892 0.0
C675 C 0.67983 0.11843 0.64006 0.0
C676 C 0.68617 0.11102 0.66836 0.0
C677 C 0.70154 0.11632 0.66564 0.0
C678 C 0.63956 0.09891 0.6914 0.0
C679 C 0.63165 0.09791 0.64249 0.0
C680 C 0.6552 0.10604 0.69107 0.0
C681 C 0.66333 0.1123 0.64177 0.0
C682 C 0.65544 0.11185 0.59342 0.0
C683 C 0.63979 0.10475 0.59379 0.0
H684 H 0.46615 0.10279 0.16549 0.0
H685 H 0.5028 0.12365 0.04855 0.0
H686 H 0.4573 0.11959 0.13548 0.0
H687 H 0.49408 0.1406 0.01931 0.0
H688 H 0.46075 0.15054 0.92663 0.0
H689 H 0.47265 0.1373 0.96535 0.0
H690 H 0.46233 0.14544 0.13143 0.0
H691 H 0.45017 0.15854 0.09257 0.0
C692 C 0.47249 0.11114 0.13415 0.0
C693 C 0.48509 0.11174 0.109 0.0
C694 C 0.46744 0.12082 0.11708 0.0
C695 C 0.47488 0.13133 0.0745 0.0
C696 C 0.48793 0.13244 0.05146 0.0
C697 C 0.49298 0.12278 0.06851 0.0
C698 C 0.46109 0.14962 0.97143 0.0
C699 C 0.45443 0.15554 0.00645 0.0
C700 C 0.46803 0.14211 -0.00631 0.0
C701 C 0.46846 0.14031 0.05154 0.0
C702 C 0.46206 0.1465 0.08668 0.0
C703 C 0.45515 0.15407 0.06439 0.0
H704 H 0.84584 0.28246 0.14532 0.0
H705 H 0.87311 0.29219 -0.00225 0.0
H706 H 0.85621 0.30919 0.16126 0.0
H707 H 0.88372 0.31893 0.01441 0.0
H708 H 0.89277 0.36655 0.03989 0.0
H709 H 0.87905 0.33983 0.01796 0.0
H710 H 0.88026 0.32949 0.1914 0.0
H711 H 0.89367 0.35609 0.21343 0.0
C712 C 0.85394 0.29029 0.11596 0.0
C713 C 0.85873 0.28517 0.0705 0.0
C714 C 0.85997 0.30563 0.12534 0.0
C715 C 0.87094 0.31622 0.08954 0.0
C716 C 0.87522 0.31109 0.04263 0.0
C717 C 0.86917 0.29574 0.03319 0.0
C718 C 0.89002 0.35856 0.07338 0.0
C719 C 0.89436 0.36347 0.12842 0.0
C720 C 0.88221 0.34325 0.06075 0.0
C721 C 0.87853 0.3325 0.10289 0.0
C722 C 0.88269 0.33744 0.15801 0.0
C723 C 0.8905 0.35272 0.17061 0.0
H724 H 0.62838 0.54348 0.24495 0.0
H725 H 0.61327 0.51153 0.10981 0.0
H726 H 0.65372 0.55572 0.20724 0.0
H727 H 0.63868 0.52368 0.07257 0.0
H728 H 0.68266 0.55957 0.99147 0.0
H729 H 0.65717 0.5472 0.02815 0.0
H730 H 0.67444 0.55084 0.19465 0.0
H731 H 0.6999 0.56337 0.15822 0.0
C732 C 0.63046 0.53904 0.20727 0.0
C733 C 0.61878 0.52651 0.18045 0.0
C734 C 0.64502 0.54601 0.18582 0.0
C735 C 0.64824 0.54067 0.13694 0.0
C736 C 0.63655 0.52818 0.10996 0.0
C737 C 0.62199 0.52117 0.13151 0.0
C738 C 0.68102 0.55772 0.03589 0.0
C739 C 0.69334 0.5625 0.07188 0.0
C740 C 0.6664 0.55055 0.05689 0.0
C741 C 0.66376 0.54806 0.11437 0.0
C742 C 0.67608 0.55277 0.15026 0.0
C743 C 0.69068 0.55987 0.12929 0.0
H744 H 0.51239 0.88143 0.8814 0.0
H745 H 0.54618 0.91722 0.98152 0.0
H746 H 0.52431 0.86649 0.89847 0.0
H747 H 0.5583 0.90247 -0.00265 0.0
H748 H 0.57082 0.8684 0.05269 0.0
H749 H 0.55595 0.88068 0.0433 0.0
H750 H 0.54665 0.86629 0.87185 0.0
H751 H 0.56114 0.85371 0.88164 0.0
C752 C 0.52236 0.88612 0.90705 0.0
C753 C 0.52836 0.90055 0.92991 0.0
C754 C 0.52924 0.87757 0.91664 0.0
C755 C 0.5423 0.88327 0.9492 0.0
C756 C 0.54814 0.89762 0.97276 0.0
C757 C 0.54124 0.90614 0.96333 0.0
C758 C 0.56545 0.86771 0.01319 0.0
C759 C 0.56725 0.86014 0.96785 0.0
C760 C 0.55701 0.87484 0.00768 0.0
C761 C 0.5502 0.87461 0.95667 0.0
C762 C 0.55159 0.86659 0.91192 0.0
C763 C 0.55998 0.85942 0.91748 0.0
H764 H 0.11369 0.62338 0.90543 0.0
H765 H 0.09309 0.63788 0.78238 0.0
H766 H 0.12941 0.64925 0.93595 0.0
H767 H 0.10874 0.66371 0.81326 0.0
H768 H 0.14777 0.7101 0.8519 0.0
H769 H 0.13494 0.68445 0.81718 0.0
H770 H 0.12516 0.66789 0.98583 0.0
H771 H 0.13811 0.69358 0.02081 0.0
C772 C 0.11262 0.63209 0.88445 0.0
C773 C 0.10207 0.62853 0.84155 0.0
C774 C 0.12156 0.6469 0.90227 0.0
C775 C 0.12026 0.65852 0.87732 0.0
C776 C 0.11011 0.65504 0.83307 0.0
C777 C 0.10109 0.64021 0.81549 0.0
C778 C 0.14299 0.70101 0.88171 0.0
C779 C 0.14391 0.70392 0.93922 0.0
C780 C 0.13557 0.6863 0.86171 0.0
C781 C 0.12898 0.67413 0.89869 0.0
C782 C 0.13025 0.67702 0.95625 0.0
C783 C 0.1376 0.69175 0.9763 0.0
H784 H 0.30889 0.45668 0.96231 0.0
H785 H 0.31801 0.42199 0.01536 0.0
H786 H 0.33417 0.47097 0.92474 0.0
H787 H 0.34336 0.43641 0.97851 0.0
H788 H 0.37727 0.45506 0.83396 0.0
H789 H 0.35368 0.44235 0.88447 0.0
H790 H 0.36107 0.48492 0.94566 0.0
H791 H 0.38468 0.49773 0.89435 0.0
C792 C 0.31636 0.45222 0.96693 0.0
C793 C 0.31134 0.43809 0.99136 0.0
C794 C 0.33089 0.46045 0.94552 0.0
C795 C 0.34073 0.45474 0.94798 0.0
C796 C 0.33596 0.44099 0.97499 0.0
C797 C 0.32145 0.43277 -0.0035 0.0
C798 C 0.37392 0.46174 0.85829 0.0
C799 C 0.38285 0.47743 0.85988 0.0
C800 C 0.36043 0.45442 0.88768 0.0
C801 C 0.3555 0.46261 0.91932 0.0
C802 C 0.36449 0.4783 0.92134 0.0
C803 C 0.37804 0.48563 0.89207 0.0
H804 H 0.10675 0.45804 0.28055 0.0
H805 H 0.10655 0.4784 0.43754 0.0
H806 H 0.11969 0.44637 0.32445 0.0
H807 H 0.11968 0.46692 0.48109 0.0
H808 H 0.12763 0.43006 0.5521 0.0
H809 H 0.11505 0.44212 0.50839 0.0
H810 H 0.14396 0.45293 0.36514 0.0
H811 H 0.15639 0.44069 0.40836 0.0
C812 C 0.10952 0.46009 0.32433 0.0
C813 C 0.10559 0.46914 0.3555 0.0
C814 C 0.11702 0.45346 0.34943 0.0
C815 C 0.12071 0.4557 0.40632 0.0
C816 C 0.11683 0.46481 0.43738 0.0
C817 C 0.10938 0.47147 0.41228 0.0
C818 C 0.13133 0.43504 0.51134 0.0
C819 C 0.14301 0.43438 0.48375 0.0
C820 C 0.12417 0.44202 0.48639 0.0
C821 C 0.12848 0.44848 0.43322 0.0
C822 C 0.14022 0.4479 0.4058 0.0
C823 C 0.14741 0.44095 0.43078 0.0
H824 H 0.52888 0.6468 0.2321 0.0
H825 H 0.5172 0.62473 0.39205 0.0
H826 H 0.54374 0.67089 0.27808 0.0
H827 H 0.53226 0.64901 0.43819 0.0
H828 H 0.57712 0.69459 0.48014 0.0
H829 H 0.56002 0.66951 0.44401 0.0
H830 H 0.53872 0.68765 0.34057 0.0
H831 H 0.55569 0.71265 0.37649 0.0
C832 C 0.52951 0.64707 0.2771 0.0
C833 C 0.52183 0.63383 0.30838 0.0
C834 C 0.53794 0.6609 0.30346 0.0
C835 C 0.53905 0.66185 0.36174 0.0
C836 C 0.5316 0.6486 0.39319 0.0
C837 C 0.52297 0.63473 0.36677 0.0
C838 C 0.56863 0.6932 0.4504 0.0
C839 C 0.56788 0.70567 0.43085 0.0
C840 C 0.55882 0.67882 0.42983 0.0
C841 C 0.54818 0.67667 0.38894 0.0
C842 C 0.54697 0.68902 0.37144 0.0
C843 C 0.55664 0.70333 0.39235 0.0
H844 H 0.37529 0.92202 0.40405 0.0
H845 H 0.37616 0.88099 0.43033 0.0
H846 H 0.34858 0.90893 0.42446 0.0
H847 H 0.34935 0.8679 0.45099 0.0
H848 H 0.29788 0.84828 0.41993 0.0
H849 H 0.32481 0.85999 0.40355 0.0
H850 H 0.33234 0.89732 0.50737 0.0
H851 H 0.30548 0.88572 0.52362 0.0
C852 C 0.36978 0.91019 0.41391 0.0
C853 C 0.37789 0.90257 0.41563 0.0
C854 C 0.35449 0.90272 0.42609 0.0
C855 C 0.34689 0.88742 0.4399 0.0
C856 C 0.35489 0.87969 0.44035 0.0
C857 C 0.37025 0.8872 0.4286 0.0
C858 C 0.30529 0.8589 0.43986 0.0
C859 C 0.2995 0.86611 0.47278 0.0
C860 C 0.32072 0.86558 0.43054 0.0
C861 C 0.33066 0.87966 0.45359 0.0
C862 C 0.32493 0.88658 0.48824 0.0
C863 C 0.30953 0.87986 0.4979 0.0
H864 H 0.13409 0.25105 0.69469 0.0
H865 H 0.09453 0.23681 0.79546 0.0
H866 H 0.14738 0.24905 0.77455 0.0
H867 H 0.10808 0.23499 0.8764 0.0
H868 H 0.13671 0.22913 0.00897 0.0
H869 H 0.12288 0.22304 0.92041 0.0
H870 H 0.15534 0.26655 0.85642 0.0
H871 H 0.1688 0.2726 0.94439 0.0
C872 C 0.12817 0.24734 0.7339 0.0
C873 C 0.11338 0.24446 0.73929 0.0
C874 C 0.13578 0.24612 0.77949 0.0
C875 C 0.12883 0.24206 0.83166 0.0
C876 C 0.11367 0.23807 0.83642 0.0
C877 C 0.10596 0.23922 0.79035 0.0
C878 C 0.14109 0.2371 0.97501 0.0
C879 C 0.15382 0.25126 0.98278 0.0
C880 C 0.13312 0.2337 0.92485 0.0
C881 C 0.13804 0.24433 0.88178 0.0
C882 C 0.15138 0.25807 0.88863 0.0
C883 C 0.15911 0.26154 0.93884 0.0
H884 H 0.74411 0.90654 0.0916 0.0
H885 H 0.73023 0.86583 0.18464 0.0
H886 H 0.74547 0.894 0.00701 0.0
H887 H 0.7319 0.85346 0.10032 0.0
H888 H 0.74698 0.84285 0.92446 0.0
H889 H 0.75151 0.85642 0.01307 0.0
H890 H 0.71956 0.86985 0.96633 0.0
H891 H 0.71469 0.85617 0.87951 0.0
C892 C 0.74185 0.89511 0.09431 0.0
C893 C 0.73686 0.88706 0.14423 0.0
C894 C 0.7426 0.88795 0.04608 0.0
C895 C 0.73869 0.8728 0.04758 0.0
C896 C 0.73502 0.86517 0.09845 0.0
C897 C 0.73399 0.87222 0.1464 0.0
C898 C 0.7408 0.84853 0.93358 0.0
C899 C 0.73047 0.84841 0.89503 0.0
C900 C 0.74347 0.85635 0.98387 0.0
C901 C 0.73611 0.86439 -0.00461 0.0
C902 C 0.72558 0.86397 0.95759 0.0
C903 C 0.72269 0.85597 0.90821 0.0
H904 H 0.10812 0.88529 0.07803 0.0
H905 H 0.07876 0.84588 0.98293 0.0
H906 H 0.12052 0.8984 -0.00692 0.0
H907 H 0.09104 0.85906 0.89749 0.0
H908 H 0.13845 0.86898 0.83728 0.0
H909 H 0.11729 0.86206 0.89744 0.0
H910 H 0.12471 0.90711 0.8894 0.0
H911 H 0.14617 0.91418 0.82697 0.0
C912 C 0.10359 0.87981 0.03851 0.0
C913 C 0.09285 0.86446 0.03686 0.0
C914 C 0.11075 0.88732 0.98973 0.0
C915 C 0.10714 0.8795 0.93915 0.0
C916 C 0.09424 0.8652 0.93639 0.0
C917 C 0.08707 0.85769 0.98528 0.0
C918 C 0.13568 0.87751 0.84795 0.0
C919 C 0.14413 0.8922 0.82755 0.0
C920 C 0.12329 0.87342 0.88168 0.0
C921 C 0.11904 0.88392 0.89674 0.0
C922 C 0.12758 0.89873 0.87739 0.0
C923 C 0.13994 0.9028 0.84241 0.0
H924 H 0.25558 0.09139 0.64066 0.0
H925 H 0.27642 0.13701 0.7008 0.0
H926 H 0.25023 0.09953 0.55169 0.0
H927 H 0.27091 0.14491 0.61327 0.0
H928 H 0.24804 0.15315 0.47212 0.0
H929 H 0.24741 0.14024 0.55827 0.0
H930 H 0.26755 0.11782 0.47331 0.0
H931 H 0.26826 0.13072 0.38729 0.0
C932 C 0.25899 0.10309 0.63496 0.0
C933 C 0.26652 0.11357 0.67753 0.0
C934 C 0.25588 0.10772 0.58431 0.0
C935 C 0.25998 0.12279 0.57616 0.0
C936 C 0.26739 0.13318 0.61888 0.0
C937 C 0.2707 0.12865 0.66878 0.0
C938 C 0.25201 0.14521 0.47152 0.0
C939 C 0.25842 0.14312 0.42327 0.0
C940 C 0.25169 0.13787 0.52077 0.0
C941 C 0.25756 0.12817 0.52232 0.0
C942 C 0.2629 0.12519 0.4731 0.0
C943 C 0.2634 0.13268 0.42405 0.0
H944 H 0.8569 0.10853 0.35927 0.0
H945 H 0.8718 0.14712 0.25262 0.0
H946 H 0.87397 0.12456 0.43195 0.0
H947 H 0.88906 0.16304 0.3246 0.0
H948 H 0.90609 0.15639 0.55743 0.0
H949 H 0.8994 0.14269 0.46893 0.0
H950 H 0.88147 0.17014 0.41017 0.0
H951 H 0.88808 0.18365 0.4978 0.0
C952 C 0.86418 0.12033 0.35064 0.0
C953 C 0.86276 0.12663 0.30081 0.0
C954 C 0.87403 0.12952 0.39219 0.0
C955 C 0.88267 0.14513 0.38436 0.0
C956 C 0.88233 0.15112 0.33228 0.0
C957 C 0.87244 0.14198 0.29106 0.0
C958 C 0.90121 0.15981 0.5247 0.0
C959 C 0.89749 0.17099 0.53445 0.0
C960 C 0.89726 0.15188 0.47432 0.0
C961 C 0.88979 0.15523 0.43272 0.0
C962 C 0.88733 0.16733 0.44098 0.0
C963 C 0.89106 0.17506 0.49136 0.0
H964 H 0.86479 0.7287 0.73727 0.0
H965 H 0.8453 0.75431 0.67327 0.0
H966 H 0.87824 0.73236 0.65063 0.0
H967 H 0.8588 0.75781 0.58528 0.0
H968 H 0.86619 0.73398 0.42536 0.0
H969 H 0.85627 0.73841 0.51071 0.0
H970 H 0.89885 0.75353 0.59167 0.0
H971 H 0.9089 0.74919 0.50567 0.0
C972 C 0.86335 0.73511 0.70461 0.0
C973 C 0.85384 0.74108 0.71181 0.0
C974 C 0.87125 0.73739 0.6553 0.0
C975 C 0.86969 0.74552 0.61171 0.0
C976 C 0.86023 0.75157 0.61862 0.0
C977 C 0.85248 0.74951 0.66865 0.0
C978 C 0.87354 0.73856 0.46105 0.0
C979 C 0.88822 0.741 0.45942 0.0
C980 C 0.86789 0.74122 0.50965 0.0
C981 C 0.87677 0.74619 0.55767 0.0
C982 C 0.89179 0.74961 0.55504 0.0
C983 C 0.89753 0.74716 0.506 0.0
H984 H 0.88651 0.77288 0.93635 0.0
H985 H 0.84811 0.76563 0.03215 0.0
H986 H 0.89932 0.77284 0.02118 0.0
H987 H 0.86098 0.76572 0.11741 0.0
H988 H 0.86818 0.72642 0.1784 0.0
H989 H 0.86234 0.74131 0.11704 0.0
H990 H 0.90815 0.77752 0.12555 0.0
H991 H 0.91412 0.76252 0.18911 0.0
C992 C 0.88125 0.77237 0.97596 0.0
C993 C 0.86619 0.76878 0.97794 0.0
C994 C 0.88859 0.7723 0.02464 0.0
C995 C 0.88086 0.76865 0.07539 0.0
C996 C 0.86702 0.76824 0.07837 0.0
C997 C 0.85969 0.76833 0.0296 0.0
C998 C 0.8771 0.73754 0.16751 0.0
C999 C 0.89166 0.74322 0.18847 0.0
C1000 C 0.87365 0.74621 0.13312 0.0
C1001 C 0.88468 0.76076 0.118 0.0
C1002 C 0.89938 0.76644 0.13767 0.0
C1003 C 0.90281 0.75779 0.17328 0.0
H1004 H 0.24554 0.0885 0.00924 0.0
H1005 H 0.23274 0.11033 0.88596 0.0
H1006 H 0.23967 0.10111 0.08292 0.0
H1007 H 0.22705 0.12306 0.95931 0.0
H1008 H 0.26418 0.16186 0.08288 0.0
H1009 H 0.25327 0.14245 0.01148 0.0
H1010 H 0.22191 0.11152 0.1315 0.0
H1011 H 0.23246 0.13132 0.20266 0.0
C1012 C 0.24044 0.09512 -0.00191 0.0
C1013 C 0.23966 0.09856 0.94221 0.0
C1014 C 0.23716 0.10243 0.04022 0.0
C1015 C 0.2332 0.11325 0.02646 0.0
C1016 C 0.23014 0.1148 0.97081 0.0
C1017 C 0.2333 0.10744 0.92891 0.0
C1018 C 0.25453 0.15113 0.09324 0.0
C1019 C 0.24903 0.14805 0.14773 0.0
C1020 C 0.24826 0.14003 0.05254 0.0
C1021 C 0.2367 0.12553 0.06612 0.0
C1022 C 0.23068 0.12265 0.12003 0.0
C1023 C 0.23667 0.13396 0.16044 0.0
H1024 H 0.85839 0.1104 0.06918 0.0
H1025 H 0.8153 0.09574 -0.0057 0.0
H1026 H 0.8705 0.11958 0.97975 0.0
H1027 H 0.8271 0.1036 0.90314 0.0
H1028 H 0.8529 0.14479 0.79318 0.0
H1029 H 0.8396 0.12685 0.86523 0.0
H1030 H 0.8775 0.12018 0.88842 0.0
H1031 H 0.8913 0.13917 0.81753 0.0
C1032 C 0.85147 0.10843 0.0327 0.0
C1033 C 0.83598 0.10247 0.03821 0.0
C1034 C 0.85839 0.11368 0.98114 0.0
C1035 C 0.84988 0.11279 0.93393 0.0
C1036 C 0.83413 0.10506 0.93877 0.0
C1037 C 0.82728 0.1003 0.99073 0.0
C1038 C 0.85839 0.13939 0.81299 0.0
C1039 C 0.87328 0.14362 0.80014 0.0
C1040 C 0.85063 0.12885 0.85425 0.0
C1041 C 0.85739 0.12194 0.8834 0.0
C1042 C 0.87198 0.12545 0.8679 0.0
C1043 C 0.8799 0.13628 0.82702 0.0
H1044 H 0.75866 0.92091 0.42438 0.0
H1045 H 0.72615 0.87357 0.41881 0.0
H1046 H 0.77278 0.91595 0.49602 0.0
H1047 H 0.74024 0.86875 0.48758 0.0
H1048 H 0.76467 0.85687 0.58361 0.0
H1049 H 0.767 0.87127 0.49996 0.0
H1050 H 0.76318 0.90408 0.59915 0.0
H1051 H 0.7609 0.88974 0.68262 0.0
C1052 C 0.75458 0.90952 0.43819 0.0
C1053 C 0.74117 0.89767 0.41663 0.0
C1054 C 0.76274 0.90669 0.47843 0.0
C1055 C 0.75782 0.89193 0.49593 0.0
C1056 C 0.74456 0.88018 0.47364 0.0
C1057 C 0.7363 0.88301 0.43496 0.0
C1058 C 0.76536 0.86765 0.588 0.0
C1059 C 0.76208 0.87197 0.63902 0.0
C1060 C 0.76665 0.87589 0.54007 0.0
C1061 C 0.76473 0.88846 0.54321 0.0
C1062 C 0.76455 0.89435 0.59557 0.0
C1063 C 0.76319 0.88609 0.64339 0.0
H1064 H 0.08978 0.84367 0.34302 0.0
H1065 H 0.13451 0.86688 0.27418 0.0
H1066 H 0.09967 0.85677 0.43178 0.0
H1067 H 0.14419 0.87991 0.36174 0.0
H1068 H 0.15663 0.90911 0.51223 0.0
H1069 H 0.14246 0.8989 0.42583 0.0
H1070 H 0.11776 0.85525 0.50225 0.0
H1071 H 0.13185 0.86533 0.58798 0.0
C1072 C 0.10165 0.85159 0.34674 0.0
C1073 C 0.11139 0.85411 0.302 0.0
C1074 C 0.10728 0.85911 0.39725 0.0
C1075 C 0.12265 0.86944 0.40318 0.0
C1076 C 0.13226 0.8722 0.35797 0.0
C1077 C 0.12672 0.86456 0.30809 0.0
C1078 C 0.14796 0.89742 0.51077 0.0
C1079 C 0.1455 0.88794 0.55627 0.0
C1080 C 0.13989 0.89159 0.4615 0.0
C1081 C 0.1291 0.87629 0.45754 0.0
C1082 C 0.12593 0.8671 0.50437 0.0
C1083 C 0.13412 0.87285 0.55317 0.0
H1084 H 0.0983 0.21464 0.49887 0.0
H1085 H 0.0718 0.23245 0.43071 0.0
H1086 H 0.10776 0.21428 0.40741 0.0
H1087 H 0.08066 0.23143 0.33759 0.0
H1088 H 0.12604 0.26388 0.25284 0.0
H1089 H 0.10499 0.25055 0.3146 0.0
H1090 H 0.11178 0.2124 0.31282 0.0
H1091 H 0.13346 0.22619 0.25211 0.0
C1092 C 0.09364 0.21743 0.46348 0.0
C1093 C 0.08477 0.22405 0.4717 0.0
C1094 C 0.09915 0.21732 0.41066 0.0
C1095 C 0.09565 0.22367 0.36547 0.0
C1096 C 0.08412 0.22712 0.37215 0.0
C1097 C 0.07876 0.22741 0.42534 0.0
C1098 C 0.12302 0.25261 0.26529 0.0
C1099 C 0.13164 0.24623 0.24864 0.0
C1100 C 0.11069 0.24479 0.30003 0.0
C1101 C 0.10652 0.23028 0.31876 0.0
C1102 C 0.11472 0.22359 0.29975 0.0
C1103 C 0.12722 0.23153 0.26531 0.0
H1104 H 0.78781 0.59455 0.49643 0.0
H1105 H 0.81135 0.57583 0.40936 0.0
H1106 H 0.7751 0.59421 0.4102 0.0
H1107 H 0.79871 0.57567 0.32309 0.0
H1108 H 0.7946 0.60471 0.18299 0.0
H1109 H 0.80284 0.59989 0.27119 0.0
H1110 H 0.75715 0.57618 0.32956 0.0
H1111 H 0.74866 0.58078 0.23994 0.0
C1112 C 0.79007 0.59012 0.45911 0.0
C1113 C 0.80072 0.58539 0.45941 0.0
C1114 C 0.78272 0.58985 0.40996 0.0
C1115 C 0.78606 0.58505 0.36019 0.0
C1116 C 0.79605 0.57951 0.36106 0.0
C1117 C 0.80323 0.57956 0.41039 0.0
C1118 C 0.78624 0.59851 0.2145 0.0
C1119 C 0.77095 0.59316 0.20451 0.0
C1120 C 0.79098 0.59562 0.26478 0.0
C1121 C 0.7806 0.58749 0.30664 0.0
C1122 C 0.76533 0.5824 0.29756 0.0
C1123 C 0.76051 0.58506 0.24653 0.0
H1124 H 0.39539 0.20045 0.08317 0.0
H1125 H 0.43501 0.20069 0.14375 0.0
H1126 H 0.39462 0.2131 0.16695 0.0
H1127 H 0.43404 0.21334 0.2289 0.0
H1128 H 0.43271 0.24854 0.35044 0.0
H1129 H 0.43587 0.23836 0.26213 0.0
H1130 H 0.38904 0.20443 0.26524 0.0
H1131 H 0.38587 0.21448 0.35199 0.0
C1132 C 0.40394 0.20315 0.11444 0.0
C1133 C 0.41519 0.1994 0.10701 0.0
C1134 C 0.40348 0.21043 0.16245 0.0
C1135 C 0.41423 0.21413 0.20437 0.0
C1136 C 0.42569 0.21069 0.19686 0.0
C1137 C 0.42614 0.20332 0.14853 0.0
C1138 C 0.42311 0.23903 0.3317 0.0
C1139 C 0.40906 0.2323 0.35799 0.0
C1140 C 0.42495 0.23314 0.28166 0.0
C1141 C 0.41269 0.22063 0.25706 0.0
C1142 C 0.39865 0.21416 0.283 0.0
C1143 C 0.39685 0.2199 0.33284 0.0
H1144 H 0.81971 0.23463 0.27 0.0
H1145 H 0.84808 0.21726 0.3229 0.0
H1146 H 0.807 0.22791 0.3604 0.0
H1147 H 0.83554 0.21058 0.4124 0.0
H1148 H 0.77444 0.1849 0.47097 0.0
H1149 H 0.78955 0.20242 0.39793 0.0
H1150 H 0.82908 0.21794 0.49996 0.0
H1151 H 0.81405 0.20022 0.57228 0.0
C1152 C 0.82358 0.22987 0.3016 0.0
C1153 C 0.83478 0.22633 0.28941 0.0
C1154 C 0.81623 0.22591 0.35311 0.0
C1155 C 0.82017 0.2186 0.39339 0.0
C1156 C 0.83229 0.21632 0.38265 0.0
C1157 C 0.83945 0.22007 0.33117 0.0
C1158 C 0.78626 0.19239 0.47848 0.0
C1159 C 0.79313 0.19094 0.52669 0.0
C1160 C 0.79493 0.20249 0.43671 0.0
C1161 C 0.81058 0.21135 0.44277 0.0
C1162 C 0.81711 0.21103 0.49363 0.0
C1163 C 0.80849 0.20089 0.53505 0.0
H1164 H 0.93198 0.46205 0.69709 0.0
H1165 H 0.91344 0.48667 0.77729 0.0
H1166 H 0.92744 0.44706 0.78074 0.0
H1167 H 0.90897 0.47163 0.86159 0.0
H1168 H 0.93507 0.46416 0.00763 0.0
H1169 H 0.93057 0.47356 0.92176 0.0
H1170 H 0.90809 0.42881 0.85344 0.0
H1171 H 0.91242 0.41916 0.94095 0.0
C1172 C 0.92664 0.46404 0.73232 0.0
C1173 C 0.92332 0.47571 0.73131 0.0
C1174 C 0.9239 0.45534 0.77991 0.0
C1175 C 0.91798 0.45829 0.82755 0.0
C1176 C 0.91363 0.46922 0.82525 0.0
C1177 C 0.91617 0.4778 0.7772 0.0
C1178 C 0.92912 0.45625 0.97451 0.0
C1179 C 0.92428 0.44094 0.98066 0.0
C1180 C 0.92634 0.46163 0.92564 0.0
C1181 C 0.91883 0.45188 0.88137 0.0
C1182 C 0.91382 0.43651 0.88734 0.0
C1183 C 0.91635 0.43103 0.93706 0.0
H1184 H 0.57002 0.45647 0.13196 0.0
H1185 H 0.5228 0.44166 0.13469 0.0
H1186 H 0.56524 0.43596 0.06915 0.0
H1187 H 0.51802 0.42212 0.06943 0.0
H1188 H 0.50843 0.39856 0.92728 0.0
H1189 H 0.51565 0.40177 0.02502 0.0
H1190 H 0.56144 0.43291 0.97736 0.0
H1191 H 0.55429 0.42863 0.88118 0.0
C1192 C 0.55862 0.4488 0.11907 0.0
C1193 C 0.54684 0.45093 0.13671 0.0
C1194 C 0.55582 0.43701 0.08302 0.0
C1195 C 0.54127 0.42747 0.06212 0.0
C1196 C 0.5294 0.42896 0.08405 0.0
C1197 C 0.53215 0.44044 0.12113 0.0
C1198 C 0.5202 0.40521 0.93789 0.0
C1199 C 0.53073 0.41395 0.89739 0.0
C1200 C 0.52434 0.40739 -0.00591 0.0
C1201 C 0.53887 0.41871 0.00965 0.0
C1202 C 0.54998 0.42457 0.96807 0.0
C1203 C 0.54591 0.42207 0.91218 0.0
H1204 H 0.57196 0.09033 0.73241 0.0
H1205 H 0.53281 0.07244 0.627 0.0
H1206 H 0.55808 0.0944 0.80629 0.0
H1207 H 0.51909 0.07674 0.70024 0.0
H1208 H 0.4977 0.05641 0.875 0.0
H1209 H 0.51062 0.0616 0.78624 0.0
H1210 H 0.5431 0.10591 0.84364 0.0
H1211 H 0.52991 0.10066 0.93304 0.0
C1212 C 0.56057 0.08774 0.72436 0.0
C1213 C 0.55335 0.08072 0.67453 0.0
C1214 C 0.55264 0.09014 0.76655 0.0
C1215 C 0.53741 0.08564 0.7593 0.0
C1216 C 0.53072 0.08007 0.70732 0.0
C1217 C 0.53859 0.07759 0.66546 0.0
C1218 C 0.50727 0.06745 0.8679 0.0
C1219 C 0.51284 0.07811 0.91072 0.0
C1220 C 0.51467 0.07047 0.817 0.0
C1221 C 0.52796 0.08415 0.80811 0.0
C1222 C 0.53293 0.09526 0.84953 0.0
C1223 C 0.52532 0.09231 0.90038 0.0
H1224 H 0.53516 0.09652 0.23251 0.0
H1225 H 0.55107 0.07402 0.12431 0.0
H1226 H 0.55274 0.09832 0.30426 0.0
H1227 H 0.56892 0.07619 0.19521 0.0
H1228 H 0.5835 0.09812 0.43199 0.0
H1229 H 0.57799 0.10586 0.34263 0.0
H1230 H 0.56128 0.06102 0.27913 0.0
H1231 H 0.56671 0.05346 0.36758 0.0
C1232 C 0.5428 0.09248 0.22329 0.0
C1233 C 0.5415 0.08479 0.17351 0.0
C1234 C 0.55296 0.09358 0.26427 0.0
C1235 C 0.56202 0.08712 0.25576 0.0
C1236 C 0.56187 0.08099 0.2034 0.0
C1237 C 0.55164 0.07974 0.16284 0.0
C1238 C 0.57925 0.09017 0.39793 0.0
C1239 C 0.57544 0.0752 0.40639 0.0
C1240 C 0.57596 0.09454 0.34709 0.0
C1241 C 0.56907 0.08404 0.30398 0.0
C1242 C 0.56672 0.06947 0.31108 0.0
C1243 C 0.56978 0.06508 0.36186 0.0
H1244 H 0.89425 0.44257 0.20848 0.0
H1245 H 0.90445 0.41355 0.30488 0.0
H1246 H 0.89439 0.45573 0.29271 0.0
H1247 H 0.90454 0.42669 0.38949 0.0
H1248 H 0.94157 0.47437 0.44991 0.0
H1249 H 0.92788 0.45348 0.38749 0.0
H1250 H 0.88936 0.45939 0.39761 0.0
H1251 H 0.90311 0.48048 0.46208 0.0
C1252 C 0.89548 0.43834 0.24823 0.0
C1253 C 0.89974 0.42736 0.25036 0.0
C1254 C 0.89562 0.44593 0.2965 0.0
C1255 C 0.90004 0.44255 0.34706 0.0
C1256 C 0.90138 0.42965 0.35057 0.0
C1257 C 0.90117 0.422 0.30222 0.0
C1258 C 0.9302 0.47133 0.43904 0.0
C1259 C 0.92347 0.47918 0.46091 0.0
C1260 C 0.92224 0.45913 0.40403 0.0
C1261 C 0.90739 0.45451 0.38924 0.0
C1262 C 0.9007 0.46256 0.40947 0.0
C1263 C 0.90864 0.47472 0.44563 0.0
H1264 H 0.5541 0.47615 0.68474 0.0
H1265 H 0.53499 0.43404 0.59591 0.0
H1266 H 0.56741 0.48939 0.60109 0.0
H1267 H 0.54842 0.44743 0.51211 0.0
H1268 H 0.55622 0.50042 0.41932 0.0
H1269 H 0.55404 0.49146 0.51449 0.0
H1270 H 0.57438 0.46534 0.46589 0.0
H1271 H 0.57689 0.47471 0.37029 0.0
C1272 C 0.55292 0.46967 0.64767 0.0
C1273 C 0.54321 0.45405 0.64656 0.0
C1274 C 0.56063 0.47728 0.59996 0.0
C1275 C 0.55889 0.46943 0.55034 0.0
C1276 C 0.55007 0.45372 0.55014 0.0
C1277 C 0.54225 0.44608 0.59789 0.0
C1278 C 0.56083 0.4933 0.42966 0.0
C1279 C 0.56673 0.48824 0.38807 0.0
C1280 C 0.5596 0.48817 0.484 0.0
C1281 C 0.56394 0.47762 0.49722 0.0
C1282 C 0.57093 0.47345 0.45648 0.0
C1283 C 0.57248 0.47889 0.40216 0.0
H1284 H 0.40997 0.20939 0.62996 0.0
H1285 H 0.4426 0.25665 0.63737 0.0
H1286 H 0.42512 0.20403 0.69162 0.0
H1287 H 0.45807 0.25119 0.69996 0.0
H1288 H 0.45312 0.23091 0.88495 0.0
H1289 H 0.45385 0.2427 0.79696 0.0
H1290 H 0.44815 0.20352 0.70988 0.0
H1291 H 0.44702 0.19158 0.79877 0.0
C1292 C 0.42048 0.21867 0.64447 0.0
C1293 C 0.42491 0.23349 0.62964 0.0
C1294 C 0.42938 0.21555 0.67907 0.0
C1295 C 0.44297 0.22716 0.70026 0.0
C1296 C 0.4477 0.242 0.68407 0.0
C1297 C 0.43879 0.24513 0.64872 0.0
C1298 C 0.45304 0.22523 0.84688 0.0
C1299 C 0.44951 0.21019 0.84836 0.0
C1300 C 0.4534 0.23198 0.79619 0.0
C1301 C 0.45029 0.22372 0.74665 0.0
C1302 C 0.45007 0.20994 0.74775 0.0
C1303 C 0.44964 0.20316 0.79864 0.0
H1304 H 0.76111 0.17355 0.77107 0.0
H1305 H 0.78137 0.14744 0.82015 0.0
H1306 H 0.76746 0.18604 0.86194 0.0
H1307 H 0.7877 0.15979 0.91007 0.0
H1308 H 0.80972 0.22035 0.97168 0.0
H1309 H 0.79261 0.20462 0.89865 0.0
H1310 H 0.78007 0.16529 -0.00129 0.0
H1311 H 0.7974 0.18095 0.07099 0.0
C1312 C 0.76643 0.17011 0.80196 0.0
C1313 C 0.77089 0.15964 0.78853 0.0
C1314 C 0.77018 0.17734 0.85372 0.0
C1315 C 0.7782 0.17401 0.89302 0.0
C1316 C 0.7814 0.16255 0.8811 0.0
C1317 C 0.77785 0.1555 0.82938 0.0
C1318 C 0.80298 0.2084 0.97874 0.0
C1319 C 0.80516 0.20185 0.0264 0.0
C1320 C 0.7931 0.19937 0.937 0.0
C1321 C 0.78519 0.18367 0.94251 0.0
C1322 C 0.78624 0.17732 0.99279 0.0
C1323 C 0.79617 0.1863 0.03418 0.0
H1324 H 0.74541 0.5673 0.87707 0.0
H1325 H 0.76971 0.55743 -0.00017 0.0
H1326 H 0.7584 0.56206 0.80307 0.0
H1327 H 0.78274 0.55228 0.92614 0.0
H1328 H 0.81975 0.58956 0.7998 0.0
H1329 H 0.80077 0.57812 0.87233 0.0
H1330 H 0.77006 0.54584 0.75397 0.0
H1331 H 0.78946 0.55699 0.68157 0.0
C1332 C 0.7527 0.56295 0.88816 0.0
C1333 C 0.75671 0.56289 0.94386 0.0
C1334 C 0.76023 0.56004 0.84582 0.0
C1335 C 0.77179 0.55709 0.85918 0.0
C1336 C 0.77394 0.55462 0.91491 0.0
C1337 C 0.76641 0.55747 0.95704 0.0
C1338 C 0.80918 0.57963 0.79 0.0
C1339 C 0.80604 0.57404 0.73562 0.0
C1340 C 0.79833 0.57304 0.83137 0.0
C1341 C 0.78399 0.56105 0.81864 0.0
C1342 C 0.78108 0.55496 0.7648 0.0
C1343 C 0.79216 0.56129 0.72367 0.0
H1344 H 0.41861 0.90858 0.5393 0.0
H1345 H 0.4658 0.94111 0.55393 0.0
H1346 H 0.42193 0.89208 0.60476 0.0
H1347 H 0.46902 0.92472 0.61686 0.0
H1348 H 0.47912 0.89752 0.70167 0.0
H1349 H 0.46682 0.89817 0.61607 0.0
H1350 H 0.43073 0.89678 0.71156 0.0
H1351 H 0.44292 0.89596 0.79701 0.0
C1352 C 0.42963 0.91221 0.55636 0.0
C1353 C 0.44191 0.92622 0.54178 0.0
C1354 C 0.43153 0.90269 0.59303 0.0
C1355 C 0.44581 0.90692 0.61421 0.0
C1356 C 0.45798 0.92092 0.59965 0.0
C1357 C 0.45605 0.93047 0.56433 0.0
C1358 C 0.46805 0.89625 0.70432 0.0
C1359 C 0.46224 0.89734 0.75574 0.0
C1360 C 0.46104 0.89672 0.65523 0.0
C1361 C 0.44819 0.89819 0.65767 0.0
C1362 C 0.44074 0.89589 0.70861 0.0
C1363 C 0.44775 0.89543 0.75763 0.0
H1364 H 0.09107 0.56745 0.69366 0.0
H1365 H 0.04694 0.52978 0.72628 0.0
H1366 H 0.09237 0.5551 0.60808 0.0
H1367 H 0.04836 0.51765 0.64215 0.0
H1368 H 0.04797 0.51126 0.45461 0.0
H1369 H 0.04841 0.52358 0.54127 0.0
H1370 H 0.09262 0.53093 0.57712 0.0
H1371 H 0.09227 0.51856 0.48938 0.0
C1372 C 0.0817 0.55659 0.68269 0.0
C1373 C 0.06888 0.54966 0.71657 0.0
C1374 C 0.0825 0.5495 0.63411 0.0
C1375 C 0.07043 0.53547 0.6186 0.0
C1376 C 0.05775 0.52853 0.65283 0.0
C1377 C 0.05698 0.53551 0.70116 0.0
C1378 C 0.05777 0.5154 0.481 0.0
C1379 C 0.07007 0.51389 0.46529 0.0
C1380 C 0.058 0.52244 0.53067 0.0
C1381 C 0.07055 0.5282 0.56576 0.0
C1382 C 0.08287 0.52667 0.55045 0.0
C1383 C 0.08259 0.51947 0.50068 0.0
H1384 H 0.41884 0.50673 0.57218 0.0
H1385 H 0.42429 0.54569 0.6592 0.0
H1386 H 0.42108 0.51909 0.48353 0.0
H1387 H 0.42668 0.55828 0.5704 0.0
H1388 H 0.46445 0.57815 0.42803 0.0
H1389 H 0.4499 0.56688 0.51216 0.0
H1390 H 0.41424 0.53256 0.41335 0.0
H1391 H 0.42874 0.54373 0.32934 0.0
C1392 C 0.41957 0.51758 0.57205 0.0
C1393 C 0.42127 0.52525 0.62199 0.0
C1394 C 0.42095 0.52475 0.52136 0.0
C1395 C 0.42433 0.53977 0.5202 0.0
C1396 C 0.42422 0.54676 0.57022 0.0
C1397 C 0.42266 0.5395 0.62091 0.0
C1398 C 0.45335 0.56846 0.42413 0.0
C1399 C 0.44793 0.56162 0.37228 0.0
C1400 C 0.44493 0.56206 0.47227 0.0
C1401 C 0.43099 0.54873 0.46924 0.0
C1402 C 0.42501 0.54272 0.41689 0.0
C1403 C 0.43338 0.54911 0.36888 0.0
H1404 H 0.57963 0.81022 0.07014 0.0
H1405 H 0.60023 0.79227 0.96189 0.0
H1406 H 0.57654 0.79205 0.14159 0.0
H1407 H 0.59675 0.77384 0.03242 0.0
H1408 H 0.57428 0.7597 0.26829 0.0
H1409 H 0.56742 0.76637 0.17938 0.0
H1410 H 0.61183 0.7806 0.1166 0.0
H1411 H 0.61854 0.77405 0.20459 0.0
C1412 C 0.58296 0.80202 0.06084 0.0
C1413 C 0.59052 0.80288 0.01118 0.0
C1414 C 0.58112 0.79154 0.10164 0.0
C1415 C 0.58669 0.78171 0.09303 0.0
C1416 C 0.59264 0.78148 0.0407 0.0
C1417 C 0.59464 0.79204 0.00035 0.0
C1418 C 0.58231 0.7637 0.23452 0.0
C1419 C 0.59696 0.76648 0.2431 0.0
C1420 C 0.57844 0.76763 0.18392 0.0
C1421 C 0.58911 0.77413 0.14111 0.0
C1422 C 0.60327 0.77549 0.14832 0.0
C1423 C 0.60718 0.7718 0.19887 0.0
H1424 H 0.2378 0.83811 0.20426 0.0
H1425 H 0.2428 0.80697 0.30921 0.0
H1426 H 0.23147 0.82102 0.12589 0.0
H1427 H 0.23595 0.78946 0.23066 0.0
H1428 H 0.19154 0.7615 0.10879 0.0
H1429 H 0.20925 0.77566 0.18312 0.0
H1430 H 0.23995 0.80668 0.06179 0.0
H1431 H 0.22223 0.79263 0.98786 0.0
C1432 C 0.23803 0.8278 0.2099 0.0
C1433 C 0.24083 0.82385 0.26241 0.0
C1434 C 0.23445 0.81801 0.16509 0.0
C1435 C 0.23323 0.80389 0.17224 0.0
C1436 C 0.23689 0.80029 0.22406 0.0
C1437 C 0.24089 0.81032 0.26874 0.0
C1438 C 0.20242 0.77083 0.09781 0.0
C1439 C 0.20546 0.77617 0.04293 0.0
C1440 C 0.21257 0.77898 0.14035 0.0
C1441 C 0.2258 0.79246 0.12814 0.0
C1442 C 0.22973 0.79645 0.07231 0.0
C1443 C 0.21962 0.78838 0.03004 0.0
H1444 H 0.2112 0.41106 0.08179 0.0
H1445 H 0.25367 0.42643 0.16434 0.0
H1446 H 0.19974 0.41114 0.17028 0.0
H1447 H 0.24213 0.42654 0.25318 0.0
H1448 H 0.20956 0.39948 0.39712 0.0
H1449 H 0.22278 0.40455 0.309 0.0
H1450 H 0.19988 0.4273 0.24992 0.0
H1451 H 0.18654 0.42225 0.33867 0.0
C1452 C 0.21815 0.41471 0.11873 0.0
C1453 C 0.23329 0.41857 0.11631 0.0
C1454 C 0.2116 0.41484 0.16931 0.0
C1455 C 0.22002 0.4187 0.21855 0.0
C1456 C 0.23536 0.42336 0.21577 0.0
C1457 C 0.24197 0.42339 0.16497 0.0
C1458 C 0.20729 0.40555 0.36544 0.0
C1459 C 0.19692 0.41039 0.37479 0.0
C1460 C 0.21501 0.40861 0.3152 0.0
C1461 C 0.21246 0.41645 0.27294 0.0
C1462 C 0.20205 0.42124 0.28195 0.0
C1463 C 0.19441 0.41832 0.33261 0.0
H1464 H 0.24415 0.44613 0.89867 0.0
H1465 H 0.25118 0.42081 0.77153 0.0
H1466 H 0.23509 0.4569 0.82814 0.0
H1467 H 0.24263 0.43178 0.70098 0.0
H1468 H 0.19079 0.43231 0.70539 0.0
H1469 H 0.2099 0.43992 0.7774 0.0
H1470 H 0.2441 0.45448 0.65097 0.0
H1471 H 0.22492 0.44683 0.57918 0.0
C1472 C 0.24452 0.44353 0.85521 0.0
C1473 C 0.24842 0.43278 0.84001 0.0
C1474 C 0.23928 0.44963 0.81503 0.0
C1475 C 0.23815 0.4452 0.75915 0.0
C1476 C 0.24359 0.43562 0.74356 0.0
C1477 C 0.24847 0.42929 0.78381 0.0
C1478 C 0.20248 0.43813 0.69322 0.0
C1479 C 0.20644 0.43895 0.63706 0.0
C1480 C 0.21346 0.44243 0.73443 0.0
C1481 C 0.22844 0.44746 0.71958 0.0
C1482 C 0.23262 0.4505 0.66344 0.0
C1483 C 0.22165 0.44624 0.62239 0.0
H1484 H 0.62262 0.84517 0.71551 0.0
H1485 H 0.57684 0.81668 0.7679 0.0
H1486 H 0.61707 0.83202 0.62717 0.0
H1487 H 0.5712 0.80331 0.67877 0.0
H1488 H 0.60527 0.81023 0.46623 0.0
H1489 H 0.60301 0.82529 0.53944 0.0
H1490 H 0.57982 0.7859 0.64262 0.0
H1491 H 0.58183 0.7707 0.56861 0.0
C1492 C 0.61123 0.83638 0.70728 0.0
C1493 C 0.60018 0.83191 0.74848 0.0
C1494 C 0.60801 0.82885 0.65656 0.0
C1495 C 0.5937 0.81653 0.64611 0.0
C1496 C 0.58234 0.81269 0.68587 0.0
C1497 C 0.58553 0.82043 0.73655 0.0
C1498 C 0.59937 0.8047 0.50404 0.0
C1499 C 0.594 0.78933 0.51219 0.0
C1500 C 0.59809 0.81334 0.54594 0.0
C1501 C 0.59149 0.80684 0.59714 0.0
C1502 C 0.58491 0.79122 0.6035 0.0
C1503 C 0.58612 0.78252 0.56124 0.0
H1504 H 0.16952 0.79129 0.76865 0.0
H1505 H 0.1882 0.76206 0.77822 0.0
H1506 H 0.1808 0.79982 0.6773 0.0
H1507 H 0.19967 0.77077 0.68639 0.0
H1508 H 0.23533 0.81202 0.57506 0.0
H1509 H 0.22086 0.79684 0.65449 0.0
H1510 H 0.18021 0.79076 0.57894 0.0
H1511 H 0.19451 0.80583 0.49987 0.0
C1512 C 0.17582 0.78649 0.7507 0.0
C1513 C 0.17803 0.77606 0.78053 0.0
C1514 C 0.18222 0.79132 0.69832 0.0
C1515 C 0.19114 0.78598 0.67496 0.0
C1516 C 0.19289 0.7751 0.70372 0.0
C1517 C 0.18625 0.77005 0.75594 0.0
C1518 C 0.22327 0.80721 0.57492 0.0
C1519 C 0.21611 0.81035 0.53155 0.0
C1520 C 0.215 0.79846 0.62022 0.0
C1521 C 0.19945 0.79277 0.62295 0.0
C1522 C 0.19221 0.79516 0.5781 0.0
C1523 C 0.20043 0.80381 0.53281 0.0
H1524 H 0.10316 0.57958 -0.00377 0.0
H1525 H 0.06856 0.53301 0.98768 0.0
H1526 H 0.11729 0.57289 0.0614 0.0
H1527 H 0.08249 0.52644 0.05107 0.0
H1528 H 0.1034 0.51194 0.15455 0.0
H1529 H 0.10576 0.52513 0.06756 0.0
H1530 H 0.11078 0.56328 0.16011 0.0
H1531 H 0.10868 0.55021 0.24654 0.0
C1532 C 0.09865 0.56795 0.00784 0.0
C1533 C 0.08461 0.55686 0.98779 0.0
C1534 C 0.10679 0.56412 0.04455 0.0
C1535 C 0.10115 0.54911 0.06056 0.0
C1536 C 0.08739 0.53805 0.03858 0.0
C1537 C 0.07921 0.54188 0.00303 0.0
C1538 C 0.10607 0.52352 0.1563 0.0
C1539 C 0.10537 0.52992 0.20688 0.0
C1540 C 0.10727 0.53104 0.10646 0.0
C1541 C 0.10775 0.54494 0.10721 0.0
C1542 C 0.11019 0.5525 0.15808 0.0
C1543 C 0.109 0.545 0.20777 0.0
H1544 H 0.47611 0.56833 0.82719 0.0
H1545 H 0.43463 0.54257 0.91728 0.0
H1546 H 0.4836 0.58911 0.89206 0.0
H1547 H 0.4422 0.56293 0.98256 0.0
H1548 H 0.45298 0.59348 0.10435 0.0
H1549 H 0.44786 0.58757 0.00592 0.0
H1550 H 0.49193 0.59292 0.98585 0.0
H1551 H 0.49724 0.59978 0.08295 0.0
C1552 C 0.46857 0.56711 0.86073 0.0
C1553 C 0.45488 0.55368 0.86774 0.0
C1554 C 0.47283 0.57907 0.89766 0.0
C1555 C 0.46352 0.57781 0.94249 0.0
C1556 C 0.44956 0.56456 0.94788 0.0
C1557 C 0.44529 0.5527 0.91092 0.0
C1558 C 0.46195 0.59454 0.07776 0.0
C1559 C 0.4753 0.59658 0.10114 0.0
C1560 C 0.45893 0.59084 0.02157 0.0
C1561 C 0.46911 0.58881 0.98902 0.0
C1562 C 0.48366 0.59403 0.00985 0.0
C1563 C 0.4868 0.59813 0.06576 0.0
H1564 H 0.47435 0.94379 -0.00637 0.0
H1565 H 0.49028 0.91449 0.05143 0.0
H1566 H 0.46188 0.94109 0.08171 0.0
H1567 H 0.47783 0.91209 0.14138 0.0
H1568 H 0.47217 0.93731 0.30447 0.0
H1569 H 0.48193 0.93257 0.21913 0.0
H1570 H 0.43982 0.91903 0.13703 0.0
H1571 H 0.42992 0.92363 0.22278 0.0
C1572 C 0.4753 0.93684 0.02531 0.0
C1573 C 0.4834 0.92941 0.01565 0.0
C1574 C 0.46796 0.93514 0.0755 0.0
C1575 C 0.4687 0.92618 0.11769 0.0
C1576 C 0.47701 0.91894 0.10896 0.0
C1577 C 0.48417 0.92039 0.05787 0.0
C1578 C 0.46488 0.93301 0.26854 0.0
C1579 C 0.45038 0.93109 0.26976 0.0
C1580 C 0.47043 0.93017 0.21999 0.0
C1581 C 0.46165 0.92556 0.17173 0.0
C1582 C 0.4468 0.92264 0.17393 0.0
C1583 C 0.44114 0.92526 0.22283 0.0
H1584 H 0.23767 0.35616 0.93563 0.0
H1585 H 0.26247 0.38132 0.07979 0.0
H1586 H 0.23019 0.33285 0.98496 0.0
H1587 H 0.25471 0.35789 0.1298 0.0
H1588 H 0.21498 0.29198 0.0809 0.0
H1589 H 0.23564 0.31482 0.04079 0.0
H1590 H 0.22709 0.34142 0.15793 0.0
H1591 H 0.20635 0.3187 0.19703 0.0
C1592 C 0.24206 0.35669 0.97705 0.0
C1593 C 0.25049 0.37052 0.00408 0.0
C1594 C 0.23781 0.34332 0.00535 0.0
C1595 C 0.2417 0.34355 0.06156 0.0
C1596 C 0.2515 0.3574 0.0866 0.0
C1597 C 0.25601 0.3708 0.05781 0.0
C1598 C 0.21796 0.30267 0.09964 0.0
C1599 C 0.20898 0.30361 0.14165 0.0
C1600 C 0.22973 0.31574 0.07647 0.0
C1601 C 0.23289 0.3299 0.09585 0.0
C1602 C 0.22502 0.33069 0.14231 0.0
C1603 C 0.21309 0.31768 0.16463 0.0
H1604 H 0.70438 0.92616 0.16258 0.0
H1605 H 0.66989 0.89125 0.26319 0.0
H1606 H 0.68573 0.92214 0.0919 0.0
H1607 H 0.65139 0.88708 0.19255 0.0
H1608 H 0.65828 0.88417 0.95876 0.0
H1609 H 0.67489 0.90025 0.03131 0.0
H1610 H 0.63667 0.89311 0.12886 0.0
H1611 H 0.61993 0.87679 0.0556 0.0
C1612 C 0.69274 0.91807 0.17077 0.0
C1613 C 0.68867 0.90876 0.21785 0.0
C1614 C 0.68206 0.91568 0.12998 0.0
C1615 C 0.66714 0.904 0.13579 0.0
C1616 C 0.66276 0.89614 0.18644 0.0
C1617 C 0.67342 0.89849 0.22702 0.0
C1618 C 0.65342 0.8864 -0.00511 0.0
C1619 C 0.63781 0.87902 0.0019 0.0
C1620 C 0.66296 0.89575 0.03647 0.0
C1621 C 0.65713 0.89786 0.08638 0.0
C1622 C 0.64151 0.89159 0.09117 0.0
C1623 C 0.63192 0.88231 0.04909 0.0
H1624 H 0.11812 0.75244 0.94732 0.0
H1625 H 0.14131 0.77089 0.10192 0.0
H1626 H 0.0984 0.75775 0.97599 0.0
H1627 H 0.1216 0.77587 0.13117 0.0
H1628 H 0.08723 0.78704 0.17392 0.0
H1629 H 0.09407 0.76801 0.15094 0.0
H1630 H 0.10464 0.78518 0.9832 0.0
H1631 H 0.09821 0.80425 0.00664 0.0
C1632 C 0.11857 0.75689 0.98856 0.0
C1633 C 0.13118 0.76132 0.02246 0.0
C1634 C 0.10735 0.76 0.00486 0.0
C1635 C 0.10852 0.76731 0.05564 0.0
C1636 C 0.12029 0.77009 0.09209 0.0
C1637 C 0.13161 0.76729 0.07532 0.0
C1638 C 0.0904 0.78627 0.1316 0.0
C1639 C 0.09229 0.79708 0.09201 0.0
C1640 C 0.09436 0.77545 0.11851 0.0
C1641 C 0.09994 0.77515 0.06535 0.0
C1642 C 0.10022 0.78498 0.02429 0.0
C1643 C 0.09661 0.79596 0.03771 0.0
H1644 H 0.32051 0.21573 0.27377 0.0
H1645 H 0.28926 0.21417 0.39674 0.0
H1646 H 0.34125 0.23433 0.32882 0.0
H1647 H 0.31015 0.2329 0.45237 0.0
H1648 H 0.37804 0.26426 0.43113 0.0
H1649 H 0.35581 0.25863 0.37691 0.0
H1650 H 0.32782 0.22777 0.50432 0.0
H1651 H 0.34994 0.23343 0.55837 0.0
C1652 C 0.31805 0.2198 0.31163 0.0
C1653 C 0.30329 0.21332 0.33132 0.0
C1654 C 0.32996 0.23056 0.34318 0.0
C1655 C 0.32739 0.23497 0.39551 0.0
C1656 C 0.3125 0.22962 0.41251 0.0
C1657 C 0.30053 0.21896 0.38046 0.0
C1658 C 0.36711 0.25682 0.44883 0.0
C1659 C 0.36575 0.24901 0.49845 0.0
C1660 C 0.35437 0.2535 0.41746 0.0
C1661 C 0.34006 0.24246 0.43556 0.0
C1662 C 0.33864 0.23631 0.48895 0.0
C1663 C 0.35136 0.23953 0.52001 0.0
H1664 H 0.74773 0.11832 0.47642 0.0
H1665 H 0.78064 0.11156 0.56246 0.0
H1666 H 0.74952 0.10482 0.39586 0.0
H1667 H 0.78265 0.09843 0.48226 0.0
H1668 H 0.78433 0.11299 0.25263 0.0
H1669 H 0.77011 0.11415 0.33079 0.0
H1670 H 0.77385 0.0789 0.41296 0.0
H1671 H 0.78846 0.07796 0.3347 0.0
C1672 C 0.75496 0.11352 0.47891 0.0
C1673 C 0.76428 0.11628 0.52534 0.0
C1674 C 0.75607 0.10588 0.43257 0.0
C1675 C 0.76646 0.10079 0.43202 0.0
C1676 C 0.77449 0.10211 0.481 0.0
C1677 C 0.77343 0.10977 0.52705 0.0
C1678 C 0.78175 0.10516 0.28656 0.0
C1679 C 0.78787 0.09565 0.28801 0.0
C1680 C 0.77346 0.10574 0.33141 0.0
C1681 C 0.77107 0.09683 0.37884 0.0
C1682 C 0.77575 0.08613 0.37754 0.0
C1683 C 0.78405 0.08553 0.33248 0.0
H1684 H 0.88899 0.67158 0.31429 0.0
H1685 H 0.91946 0.70304 0.43517 0.0
H1686 H 0.88409 0.65093 0.37577 0.0
H1687 H 0.91451 0.68226 0.49728 0.0
H1688 H 0.87242 0.61496 0.49267 0.0
H1689 H 0.89075 0.63525 0.43416 0.0
H1690 H 0.89014 0.66766 0.54642 0.0
H1691 H 0.87192 0.64749 0.6046 0.0
C1692 C 0.89515 0.67403 0.35304 0.0
C1693 C 0.90441 0.68891 0.37029 0.0
C1694 C 0.89239 0.66216 0.38836 0.0
C1695 C 0.8987 0.66496 0.44195 0.0
C1696 C 0.90935 0.67978 0.4565 0.0
C1697 C 0.91227 0.69167 0.42072 0.0
C1698 C 0.87665 0.62642 0.50604 0.0
C1699 C 0.8705 0.62963 0.55267 0.0
C1700 C 0.88711 0.63804 0.47232 0.0
C1701 C 0.89172 0.65306 0.48507 0.0
C1702 C 0.8869 0.65624 0.53536 0.0
C1703 C 0.87635 0.64465 0.56865 0.0
H1704 H 0.78516 0.70211 0.84423 0.0
H1705 H 0.80432 0.70431 0.00587 0.0
H1706 H 0.76425 0.67704 0.86635 0.0
H1707 H 0.78347 0.67963 0.02847 0.0
H1708 H 0.74769 0.63496 0.06354 0.0
H1709 H 0.75554 0.66106 0.04048 0.0
H1710 H 0.7684 0.65464 0.87626 0.0
H1711 H 0.76085 0.62885 0.8998 0.0
C1712 C 0.78454 0.6975 0.88529 0.0
C1713 C 0.79635 0.70499 0.92324 0.0
C1714 C 0.77262 0.68318 0.8979 0.0
C1715 C 0.77225 0.67635 0.94905 0.0
C1716 C 0.78331 0.68461 0.98899 0.0
C1717 C 0.79532 0.69871 0.97595 0.0
C1718 C 0.7515 0.63897 0.02171 0.0
C1719 C 0.75377 0.63002 0.98343 0.0
C1720 C 0.75607 0.6539 0.0086 0.0
C1721 C 0.76272 0.65992 0.95676 0.0
C1722 C 0.76321 0.65033 0.91633 0.0
C1723 C 0.75894 0.63556 0.92981 0.0
H1724 H 0.38261 0.14523 0.82719 0.0
H1725 H 0.38373 0.13153 -0.00413 0.0
H1726 H 0.35711 0.12455 0.81677 0.0
H1727 H 0.35796 0.11078 0.98576 0.0
H1728 H 0.31057 0.10919 0.9656 0.0
H1729 H 0.33663 0.11619 0.97921 0.0
H1730 H 0.3368 0.09721 0.81912 0.0
H1731 H 0.3104 0.08995 0.80608 0.0
C1732 C 0.37757 0.1374 0.86131 0.0
C1733 C 0.38502 0.14007 0.91253 0.0
C1734 C 0.36297 0.12547 0.85527 0.0
C1735 C 0.35545 0.11614 0.90071 0.0
C1736 C 0.36348 0.11786 0.95016 0.0
C1737 C 0.37823 0.12969 0.95588 0.0
C1738 C 0.31599 0.10593 0.93445 0.0
C1739 C 0.30858 0.09916 0.88468 0.0
C1740 C 0.33091 0.10986 0.94232 0.0
C1741 C 0.33882 0.10738 0.89997 0.0
C1742 C 0.33097 0.09929 0.85236 0.0
C1743 C 0.31588 0.09508 0.84499 0.0
H1744 H 0.92144 0.21631 0.83647 0.0
H1745 H 0.8875 0.22223 0.75428 0.0
H1746 H 0.9198 0.22961 0.91777 0.0
H1747 H 0.88556 0.23504 0.8355 0.0
H1748 H 0.88557 0.2196 0.06402 0.0
H1749 H 0.89985 0.2196 0.98414 0.0
H1750 H 0.89349 0.25381 0.90646 0.0
H1751 H 0.87875 0.25351 0.98651 0.0
C1752 C 0.91398 0.22085 0.83496 0.0
C1753 C 0.9043 0.21785 0.78946 0.0
C1754 C 0.91296 0.22839 0.88177 0.0
C1755 C 0.90226 0.23305 0.88393 0.0
C1756 C 0.89393 0.23164 0.83565 0.0
C1757 C 0.89497 0.22415 0.78896 0.0
C1758 C 0.88757 0.22745 0.03069 0.0
C1759 C 0.88068 0.23626 0.03102 0.0
C1760 C 0.89591 0.22756 0.98481 0.0
C1761 C 0.89759 0.23648 0.93811 0.0
C1762 C 0.89215 0.24656 0.94123 0.0
C1763 C 0.88378 0.24646 0.98732 0.0
H1764 H 0.70826 0.81423 0.56817 0.0
H1765 H 0.69427 0.78392 0.70764 0.0
H1766 H 0.68833 0.79523 0.51182 0.0
H1767 H 0.67385 0.76452 0.65085 0.0
H1768 H 0.62828 0.75587 0.5582 0.0
H1769 H 0.65057 0.76347 0.6151 0.0
H1770 H 0.67683 0.77102 0.46611 0.0
H1771 H 0.65467 0.7641 0.40959 0.0
C1772 C 0.70111 0.80326 0.58612 0.0
C1773 C 0.70273 0.80048 0.64196 0.0
C1774 C 0.68972 0.79228 0.55376 0.0
C1775 C 0.67947 0.77827 0.57669 0.0
C1776 C 0.68158 0.77519 0.63201 0.0
C1777 C 0.69326 0.78621 0.66436 0.0
C1778 C 0.63866 0.7584 0.53784 0.0
C1779 C 0.63987 0.75961 0.47968 0.0
C1780 C 0.65147 0.76279 0.57042 0.0
C1781 C 0.66557 0.76829 0.54502 0.0
C1782 C 0.6662 0.76721 0.48685 0.0
C1783 C 0.6535 0.76311 0.45444 0.0
H1784 H 0.21678 0.92565 0.60084 0.0
H1785 H 0.21498 0.89128 0.70847 0.0
H1786 H 0.23491 0.92358 0.54152 0.0
H1787 H 0.23286 0.88909 0.6494 0.0
H1788 H 0.23226 0.88679 0.41448 0.0
H1789 H 0.22818 0.9024 0.47945 0.0
H1790 H 0.25639 0.89737 0.60019 0.0
H1791 H 0.26033 0.8815 0.53497 0.0
C1792 C 0.22072 0.91811 0.61319 0.0
C1793 C 0.21422 0.90839 0.65867 0.0
C1794 C 0.23103 0.91684 0.57892 0.0
C1795 C 0.2351 0.90594 0.58991 0.0
C1796 C 0.23004 0.89763 0.6395 0.0
C1797 C 0.21968 0.89882 0.67338 0.0
C1798 C 0.23805 0.88945 0.45409 0.0
C1799 C 0.24632 0.88261 0.47002 0.0
C1800 C 0.23579 0.89852 0.4914 0.0
C1801 C 0.24169 0.90089 0.54562 0.0
C1802 C 0.25147 0.89554 0.55908 0.0
C1803 C 0.25381 0.88652 0.5215 0.0
H1804 H 0.14647 0.36504 0.65172 0.0
H1805 H 0.12658 0.37018 0.50148 0.0
H1806 H 0.12589 0.33946 0.66156 0.0
H1807 H 0.10589 0.3443 0.51088 0.0
H1808 H 0.10122 0.29545 0.4978 0.0
H1809 H 0.10969 0.32211 0.49688 0.0
H1810 H 0.09841 0.32009 0.67093 0.0
H1811 H 0.08966 0.29313 0.67141 0.0
C1812 C 0.13739 0.36082 0.62182 0.0
C1813 C 0.13818 0.36948 0.57548 0.0
C1814 C 0.12552 0.34619 0.62767 0.0
C1815 C 0.11433 0.33981 0.58671 0.0
C1816 C 0.11441 0.34893 0.54295 0.0
C1817 C 0.1262 0.36373 0.53766 0.0
C1818 C 0.09999 0.30059 0.53528 0.0
C1819 C 0.09494 0.29232 0.58479 0.0
C1820 C 0.10476 0.31586 0.53472 0.0
C1821 C 0.10485 0.32324 0.58398 0.0
C1822 C 0.09851 0.31468 0.63241 0.0
C1823 C 0.09345 0.29927 0.63266 0.0
H1824 H 0.04571 0.59269 0.77269 0.0
H1825 H 0.01313 0.56182 0.88986 0.0
H1826 H 0.0255 0.58966 0.71159 0.0
H1827 H 0.99304 0.55863 0.82874 0.0
H1828 H 0.95797 0.54741 0.70881 0.0
H1829 H 0.97773 0.56521 0.77068 0.0
H1830 H 0.01111 0.56675 0.65795 0.0
H1831 H 0.99149 0.54917 0.59666 0.0
C1832 C 0.03425 0.58576 0.78665 0.0
C1833 C 0.03102 0.57713 0.83538 0.0
C1834 C 0.02266 0.58395 0.75134 0.0
C1835 C 0.00765 0.57355 0.76437 0.0
C1836 C 0.00443 0.56669 0.81705 0.0
C1837 C 0.016 0.56846 0.85219 0.0
C1838 C 0.96954 0.55209 0.69615 0.0
C1839 C 0.97321 0.54671 0.64843 0.0
C1840 C 0.98087 0.5622 0.73181 0.0
C1841 C 0.99602 0.5672 0.71993 0.0
C1842 C 0.99961 0.56323 0.66857 0.0
C1843 C 0.98833 0.55304 0.63339 0.0
H1844 H 0.45871 0.4868 0.69451 0.0
H1845 H 0.43511 0.47406 0.85122 0.0
H1846 H 0.46497 0.46711 0.70448 0.0
H1847 H 0.44172 0.45433 0.86189 0.0
H1848 H 0.48475 0.44731 0.88245 0.0
H1849 H 0.46831 0.4579 0.87613 0.0
H1850 H 0.45427 0.43868 0.71238 0.0
H1851 H 0.47066 0.42793 0.71886 0.0
C1852 C 0.45469 0.47962 0.7308 0.0
C1853 C 0.44658 0.48205 0.77241 0.0
C1854 C 0.45814 0.46823 0.73621 0.0
C1855 C 0.45379 0.45915 0.78386 0.0
C1856 C 0.44516 0.46116 0.82466 0.0
C1857 C 0.44139 0.47241 0.8186 0.0
C1858 C 0.47777 0.44492 0.84586 0.0
C1859 C 0.47915 0.43699 0.80079 0.0
C1860 C 0.46829 0.45091 0.84241 0.0
C1861 C 0.46016 0.44926 0.79351 0.0
C1862 C 0.4605 0.44019 0.75042 0.0
C1863 C 0.46983 0.43399 0.75423 0.0
H1864 H 0.51868 0.95535 0.69486 0.0
H1865 H 0.5476 0.96536 0.8373 0.0
H1866 H 0.53785 0.97731 0.6474 0.0
H1867 H 0.56716 0.98779 0.78944 0.0
H1868 H 0.57701 0.03597 0.71843 0.0
H1869 H 0.56822 0.01191 0.76504 0.0
H1870 H 0.56239 0.99047 0.60523 0.0
H1871 H 0.57049 0.01439 0.55908 0.0
C1872 C 0.52937 0.9621 0.71536 0.0
C1873 C 0.53167 0.95873 0.76966 0.0
C1874 C 0.54046 0.97466 0.68801 0.0
C1875 C 0.55411 0.98435 0.71451 0.0
C1876 C 0.55676 0.98055 0.76796 0.0
C1877 C 0.54565 0.96771 0.79518 0.0
C1878 C 0.57453 0.02622 0.6936 0.0
C1879 C 0.57431 0.02693 0.63533 0.0
C1880 C 0.56947 0.01242 0.72023 0.0
C1881 C 0.56424 0.9992 0.68875 0.0
C1882 C 0.56602 1.00039 0.6306 0.0
C1883 C 0.57078 0.01409 0.60412 0.0
H1884 H 0.45783 0.02062 0.10997 0.0
H1885 H 0.46979 0.05734 0.22353 0.0
H1886 H 0.44208 0.00299 0.18072 0.0
H1887 H 0.45387 0.03958 0.29513 0.0
H1888 H 0.45591 0.00222 0.40673 0.0
H1889 H 0.46001 0.02255 0.34504 0.0
H1890 H 0.42148 0.99196 0.24767 0.0
H1891 H 0.41748 0.97146 0.30937 0.0
C1892 C 0.45662 0.02496 0.14954 0.0
C1893 C 0.46521 0.04031 0.16157 0.0
C1894 C 0.44749 0.01484 0.19015 0.0
C1895 C 0.44688 0.01983 0.24402 0.0
C1896 C 0.45426 0.03537 0.25422 0.0
C1897 C 0.46329 0.04555 0.21313 0.0
C1898 C 0.44797 0.99991 0.37338 0.0
C1899 C 0.4366 0.98516 0.36213 0.0
C1900 C 0.45026 0.01163 0.33807 0.0
C1901 C 0.44127 0.00883 0.2906 0.0
C1902 C 0.42877 0.99442 0.28336 0.0
C1903 C 0.42642 0.98268 0.31895 0.0
H1904 H 0.03988 0.46879 0.16256 0.0
H1905 H 0.03573 0.44938 0.32514 0.0
H1906 H 0.01438 0.44951 0.1403 0.0
H1907 H 0.00993 0.43006 0.3032 0.0
H1908 H 0.96413 0.43114 0.27299 0.0
H1909 H 0.9896 0.43705 0.29387 0.0
H1910 H 0.99343 0.42239 0.12944 0.0
H1911 H 0.9676 0.41616 0.10903 0.0
C1912 C 0.03367 0.46001 0.19271 0.0
C1913 C 0.03967 0.46063 0.24572 0.0
C1914 C 0.01908 0.4489 0.17987 0.0
C1915 C 0.01009 0.43836 0.22024 0.0
C1916 C 0.01661 0.43809 0.27139 0.0
C1917 C 0.03137 0.44909 0.28387 0.0
C1918 C 0.9702 0.42859 0.2422 0.0
C1919 C 0.96401 0.42329 0.1894 0.0
C1920 C 0.98477 0.43189 0.25421 0.0
C1921 C 0.99356 0.43028 0.21314 0.0
C1922 C 0.9869 0.42374 0.16183 0.0
C1923 C 0.97213 0.42012 0.15022 0.0
H1924 H 0.56136 0.53523 0.25099 0.0
H1925 H 0.53406 0.5124 0.10841 0.0
H1926 H 0.54995 0.55106 0.25598 0.0
H1927 H 0.52326 0.52869 0.11092 0.0
H1928 H 0.48875 0.53712 0.19276 0.0
H1929 H 0.50507 0.52716 0.17441 0.0
H1930 H 0.54344 0.56936 0.22243 0.0
H1931 H 0.52676 0.57937 0.24255 0.0
C1932 C 0.55349 0.53416 0.21898 0.0
C1933 C 0.54854 0.52264 0.17935 0.0
C1934 C 0.54688 0.54318 0.22193 0.0
C1935 C 0.53534 0.54085 0.18485 0.0
C1936 C 0.53174 0.53045 0.1413 0.0
C1937 C 0.53809 0.52127 0.13918 0.0
C1938 C 0.50066 0.54438 0.19937 0.0
C1939 C 0.50643 0.55908 0.21903 0.0
C1940 C 0.5101 0.53868 0.18814 0.0
C1941 C 0.52567 0.54754 0.19565 0.0
C1942 C 0.53151 0.56224 0.21601 0.0
C1943 C 0.52197 0.56797 0.22761 0.0
loop_
_geom_bond_atom_site_label_1
_geom_bond_atom_site_label_2
_geom_bond_distance
_geom_bond_site_symmetry_2
_ccdc_geom_bond_type
Zn0 O3 2.031 . S
Zn0 O5 2.049 . S
Zn0 O10 2.067 . S
Zn1 O2 1.962 . S
Zn1 O4 1.986 . S
Zn1 O6 1.996 . S
Zn1 O9 1.943 . S
O2 Zn1 1.962 . S
O2 C7 1.254 . S
O3 Zn0 2.031 . S
O3 C7 1.269 . S
O4 Zn1 1.986 . S
O4 C11 1.262 . S
O5 Zn0 2.049 . S
O5 C13 1.260 . S
O6 Zn1 1.996 . S
O6 C13 1.257 . S
C7 O2 1.254 . S
C7 O3 1.269 . S
C8 O9 1.249 . S
C8 O10 1.270 . S
O9 Zn1 1.943 . S
O9 C8 1.249 . S
O10 Zn0 2.067 . S
O10 C8 1.270 . S
C11 O4 1.262 . S
C11 O12 1.232 . S
O12 C11 1.232 . S
C13 O5 1.260 . S
C13 O6 1.257 . S
Zn14 O17 2.031 . S
Zn14 O19 2.049 . S
Zn14 O24 2.067 . S
Zn15 O16 1.962 . S
Zn15 O18 1.986 . S
Zn15 O20 1.996 . S
Zn15 O23 1.943 . S
O16 Zn15 1.962 . S
O16 C21 1.254 . S
O17 Zn14 2.031 . S
O17 C21 1.269 . S
O18 Zn15 1.986 . S
O18 C25 1.262 . S
O19 Zn14 2.049 . S
O19 C27 1.260 . S
O20 Zn15 1.996 . S
O20 C27 1.257 . S
C21 O16 1.254 . S
C21 O17 1.269 . S
C22 O23 1.249 . S
C22 O24 1.270 . S
O23 Zn15 1.943 . S
O23 C22 1.249 . S
O24 Zn14 2.067 . S
O24 C22 1.270 . S
C25 O18 1.262 . S
C25 O26 1.232 . S
O26 C25 1.232 . S
C27 O19 1.260 . S
C27 O20 1.257 . S
Zn28 O31 2.031 . S
Zn28 O33 2.049 . S
Zn28 O38 2.067 . S
Zn29 O30 1.962 . S
Zn29 O32 1.986 . S
Zn29 O34 1.996 . S
Zn29 O37 1.943 . S
O30 Zn29 1.962 . S
O30 C35 1.254 . S
O31 Zn28 2.031 . S
O31 C35 1.269 . S
O32 Zn29 1.986 . S
O32 C39 1.262 . S
O33 Zn28 2.049 . S
O33 C41 1.260 . S
O34 Zn29 1.996 . S
O34 C41 1.257 . S
C35 O30 1.254 . S
C35 O31 1.269 . S
C36 O37 1.249 . S
C36 O38 1.270 . S
O37 Zn29 1.943 . S
O37 C36 1.249 . S
O38 Zn28 2.067 . S
O38 C36 1.270 . S
C39 O32 1.262 . S
C39 O40 1.232 . S
O40 C39 1.232 . S
C41 O33 1.260 . S
C41 O34 1.257 . S
Zn42 O45 2.031 . S
Zn42 O47 2.049 . S
Zn42 O52 2.067 . S
Zn43 O44 1.962 . S
Zn43 O46 1.986 . S
Zn43 O48 1.996 . S
Zn43 O51 1.943 . S
O44 Zn43 1.962 . S
O44 C49 1.254 . S
O45 Zn42 2.031 . S
O45 C49 1.269 . S
O46 Zn43 1.986 . S
O46 C53 1.262 . S
O47 Zn42 2.049 . S
O47 C55 1.260 . S
O48 Zn43 1.996 . S
O48 C55 1.257 . S
C49 O44 1.254 . S
C49 O45 1.269 . S
C50 O51 1.249 . S
C50 O52 1.270 . S
O51 Zn43 1.943 . S
O51 C50 1.249 . S
O52 Zn42 2.067 . S
O52 C50 1.270 . S
C53 O46 1.262 . S
C53 O54 1.232 . S
O54 C53 1.232 . S
C55 O47 1.260 . S
C55 O48 1.257 . S
Zn56 O59 2.031 . S
Zn56 O61 2.049 . S
Zn56 O66 2.067 . S
Zn57 O58 1.962 . S
Zn57 O60 1.986 . S
Zn57 O62 1.996 . S
Zn57 O65 1.943 . S
O58 Zn57 1.962 . S
O58 C63 1.254 . S
O59 Zn56 2.031 . S
O59 C63 1.269 . S
O60 Zn57 1.986 . S
O60 C67 1.262 . S
O61 Zn56 2.049 . S
O61 C69 1.260 . S
O62 Zn57 1.996 . S
O62 C69 1.257 . S
C63 O58 1.254 . S
C63 O59 1.269 . S
C64 O65 1.249 . S
C64 O66 1.270 . S
O65 Zn57 1.943 . S
O65 C64 1.249 . S
O66 Zn56 2.067 . S
O66 C64 1.270 . S
C67 O60 1.262 . S
C67 O68 1.232 . S
O68 C67 1.232 . S
C69 O61 1.260 . S
C69 O62 1.257 . S
Zn70 O73 2.031 . S
Zn70 O75 2.049 . S
Zn70 O80 2.067 . S
Zn71 O72 1.962 . S
Zn71 O74 1.986 . S
Zn71 O76 1.996 . S
Zn71 O79 1.943 . S
O72 Zn71 1.962 . S
O72 C77 1.254 . S
O73 Zn70 2.031 . S
O73 C77 1.269 . S
O74 Zn71 1.986 . S
O74 C81 1.262 . S
O75 Zn70 2.049 . S
O75 C83 1.260 . S
O76 Zn71 1.996 . S
O76 C83 1.257 . S
C77 O72 1.254 . S
C77 O73 1.269 . S
C78 O79 1.249 . S
C78 O80 1.270 . S
O79 Zn71 1.943 . S
O79 C78 1.249 . S
O80 Zn70 2.067 . S
O80 C78 1.270 . S
C81 O74 1.262 . S
C81 O82 1.232 . S
O82 C81 1.232 . S
C83 O75 1.260 . S
C83 O76 1.257 . S
Zn84 O87 2.031 . S
Zn84 O89 2.049 . S
Zn84 O94 2.067 . S
Zn85 O86 1.962 . S
Zn85 O88 1.986 . S
Zn85 O90 1.996 . S
Zn85 O93 1.943 . S
O86 Zn85 1.962 . S
O86 C91 1.254 . S
O87 Zn84 2.031 . S
O87 C91 1.269 . S
O88 Zn85 1.986 . S
O88 C95 1.262 . S
O89 Zn84 2.049 . S
O89 C97 1.260 . S
O90 Zn85 1.996 . S
O90 C97 1.257 . S
C91 O86 1.254 . S
C91 O87 1.269 . S
C92 O93 1.249 . S
C92 O94 1.270 . S
O93 Zn85 1.943 . S
O93 C92 1.249 . S
O94 Zn84 2.067 . S
O94 C92 1.270 . S
C95 O88 1.262 . S
C95 O96 1.232 . S
O96 C95 1.232 . S
C97 O89 1.260 . S
C97 O90 1.257 . S
Zn98 O101 2.031 . S
Zn98 O103 2.049 . S
Zn98 O108 2.067 . S
Zn99 O100 1.962 . S
Zn99 O102 1.986 . S
Zn99 O104 1.996 . S
Zn99 O107 1.943 . S
O100 Zn99 1.962 . S
O100 C105 1.254 . S
O101 Zn98 2.031 . S
O101 C105 1.269 . S
O102 Zn99 1.986 . S
O102 C109 1.262 . S
O103 Zn98 2.049 . S
O103 C111 1.260 . S
O104 Zn99 1.996 . S
O104 C111 1.257 . S
C105 O100 1.254 . S
C105 O101 1.269 . S
C106 O107 1.249 . S
C106 O108 1.270 . S
O107 Zn99 1.943 . S
O107 C106 1.249 . S
O108 Zn98 2.067 . S
O108 C106 1.270 . S
C109 O102 1.262 . S
C109 O110 1.232 . S
O110 C109 1.232 . S
C111 O103 1.260 . S
C111 O104 1.257 . S
Zn112 O115 2.031 . S
Zn112 O117 2.049 . S
Zn112 O122 2.067 . S
Zn113 O114 1.962 . S
Zn113 O116 1.986 . S
Zn113 O118 1.996 . S
Zn113 O121 1.943 . S
O114 Zn113 1.962 . S
O114 C119 1.254 . S
O115 Zn112 2.031 . S
O115 C119 1.269 . S
O116 Zn113 1.986 . S
O116 C123 1.262 . S
O117 Zn112 2.049 . S
O117 C125 1.260 . S
O118 Zn113 1.996 . S
O118 C125 1.257 . S
C119 O114 1.254 . S
C119 O115 1.269 . S
C120 O121 1.249 . S
C120 O122 1.270 . S
O121 Zn113 1.943 . S
O121 C120 1.249 . S
O122 Zn112 2.067 . S
O122 C120 1.270 . S
C123 O116 1.262 . S
C123 O124 1.232 . S
O124 C123 1.232 . S
C125 O117 1.260 . S
C125 O118 1.257 . S
Zn126 O129 2.031 . S
Zn126 O131 2.049 . S
Zn126 O136 2.067 . S
Zn127 O128 1.962 . S
Zn127 O130 1.986 . S
Zn127 O132 1.996 . S
Zn127 O135 1.943 . S
O128 Zn127 1.962 . S
O128 C133 1.254 . S
O129 Zn126 2.031 . S
O129 C133 1.269 . S
O130 Zn127 1.986 . S
O130 C137 1.262 . S
O131 Zn126 2.049 . S
O131 C139 1.260 . S
O132 Zn127 1.996 . S
O132 C139 1.257 . S
C133 O128 1.254 . S
C133 O129 1.269 . S
C134 O135 1.249 . S
C134 O136 1.270 . S
O135 Zn127 1.943 . S
O135 C134 1.249 . S
O136 Zn126 2.067 . S
O136 C134 1.270 . S
C137 O130 1.262 . S
C137 O138 1.232 . S
O138 C137 1.232 . S
C139 O131 1.260 . S
C139 O132 1.257 . S
Zn140 O143 2.031 . S
Zn140 O145 2.049 . S
Zn140 O150 2.067 . S
Zn141 O142 1.962 . S
Zn141 O144 1.986 . S
Zn141 O146 1.996 . S
Zn141 O149 1.943 . S
O142 Zn141 1.962 . S
O142 C147 1.254 . S
O143 Zn140 2.031 . S
O143 C147 1.269 . S
O144 Zn141 1.986 . S
O144 C151 1.262 . S
O145 Zn140 2.049 . S
O145 C153 1.260 . S
O146 Zn141 1.996 . S
O146 C153 1.257 . S
C147 O142 1.254 . S
C147 O143 1.269 . S
C148 O149 1.249 . S
C148 O150 1.270 . S
O149 Zn141 1.943 . S
O149 C148 1.249 . S
O150 Zn140 2.067 . S
O150 C148 1.270 . S
C151 O144 1.262 . S
C151 O152 1.232 . S
O152 C151 1.232 . S
C153 O145 1.260 . S
C153 O146 1.257 . S
Zn154 O157 2.031 . S
Zn154 O159 2.049 . S
Zn154 O164 2.067 . S
Zn155 O156 1.962 . S
Zn155 O158 1.986 . S
Zn155 O160 1.996 . S
Zn155 O163 1.943 . S
O156 Zn155 1.962 . S
O156 C161 1.254 . S
O157 Zn154 2.031 . S
O157 C161 1.269 . S
O158 Zn155 1.986 . S
O158 C165 1.262 . S
O159 Zn154 2.049 . S
O159 C167 1.260 . S
O160 Zn155 1.996 . S
O160 C167 1.257 . S
C161 O156 1.254 . S
C161 O157 1.269 . S
C162 O163 1.249 . S
C162 O164 1.270 . S
O163 Zn155 1.943 . S
O163 C162 1.249 . S
O164 Zn154 2.067 . S
O164 C162 1.270 . S
C165 O158 1.262 . S
C165 O166 1.232 . S
O166 C165 1.232 . S
C167 O159 1.260 . S
C167 O160 1.257 . S
Zn168 O171 2.031 . S
Zn168 O173 2.049 . S
Zn168 O178 2.067 . S
Zn169 O170 1.962 . S
Zn169 O172 1.986 . S
Zn169 O174 1.996 . S
Zn169 O177 1.943 . S
O170 Zn169 1.962 . S
O170 C175 1.254 . S
O171 Zn168 2.031 . S
O171 C175 1.269 . S
O172 Zn169 1.986 . S
O172 C179 1.262 . S
O173 Zn168 2.049 . S
O173 C181 1.260 . S
O174 Zn169 1.996 . S
O174 C181 1.257 . S
C175 O170 1.254 . S
C175 O171 1.269 . S
C176 O177 1.249 . S
C176 O178 1.270 . S
O177 Zn169 1.943 . S
O177 C176 1.249 . S
O178 Zn168 2.067 . S
O178 C176 1.270 . S
C179 O172 1.262 . S
C179 O180 1.232 . S
O180 C179 1.232 . S
C181 O173 1.260 . S
C181 O174 1.257 . S
Zn182 O185 2.031 . S
Zn182 O187 2.049 . S
Zn182 O192 2.067 . S
Zn183 O184 1.962 . S
Zn183 O186 1.986 . S
Zn183 O188 1.996 . S
Zn183 O191 1.943 . S
O184 Zn183 1.962 . S
O184 C189 1.254 . S
O185 Zn182 2.031 . S
O185 C189 1.269 . S
O186 Zn183 1.986 . S
O186 C193 1.262 . S
O187 Zn182 2.049 . S
O187 C195 1.260 . S
O188 Zn183 1.996 . S
O188 C195 1.257 . S
C189 O184 1.254 . S
C189 O185 1.269 . S
C190 O191 1.249 . S
C190 O192 1.270 . S
O191 Zn183 1.943 . S
O191 C190 1.249 . S
O192 Zn182 2.067 . S
O192 C190 1.270 . S
C193 O186 1.262 . S
C193 O194 1.232 . S
O194 C193 1.232 . S
C195 O187 1.260 . S
C195 O188 1.257 . S
Zn196 O199 2.031 . S
Zn196 O201 2.049 . S
Zn196 O206 2.067 . S
Zn197 O198 1.962 . S
Zn197 O200 1.986 . S
Zn197 O202 1.996 . S
Zn197 O205 1.943 . S
O198 Zn197 1.962 . S
O198 C203 1.254 . S
O199 Zn196 2.031 . S
O199 C203 1.269 . S
O200 Zn197 1.986 . S
O200 C207 1.262 . S
O201 Zn196 2.049 . S
O201 C209 1.260 . S
O202 Zn197 1.996 . S
O202 C209 1.257 . S
C203 O198 1.254 . S
C203 O199 1.269 . S
C204 O205 1.249 . S
C204 O206 1.270 . S
O205 Zn197 1.943 . S
O205 C204 1.249 . S
O206 Zn196 2.067 . S
O206 C204 1.270 . S
C207 O200 1.262 . S
C207 O208 1.232 . S
O208 C207 1.232 . S
C209 O201 1.260 . S
C209 O202 1.257 . S
Zn210 O213 2.031 . S
Zn210 O215 2.049 . S
Zn210 O220 2.067 . S
Zn211 O212 1.962 . S
Zn211 O214 1.986 . S
Zn211 O216 1.996 . S
Zn211 O219 1.943 . S
O212 Zn211 1.962 . S
O212 C217 1.254 . S
O213 Zn210 2.031 . S
O213 C217 1.269 . S
O214 Zn211 1.986 . S
O214 C221 1.262 . S
O215 Zn210 2.049 . S
O215 C223 1.260 . S
O216 Zn211 1.996 . S
O216 C223 1.257 . S
C217 O212 1.254 . S
C217 O213 1.269 . S
C218 O219 1.249 . S
C218 O220 1.270 . S
O219 Zn211 1.943 . S
O219 C218 1.249 . S
O220 Zn210 2.067 . S
O220 C218 1.270 . S
C221 O214 1.262 . S
C221 O222 1.232 . S
O222 C221 1.232 . S
C223 O215 1.260 . S
C223 O216 1.257 . S
Zn224 O227 2.031 . S
Zn224 O229 2.049 . S
Zn224 O234 2.067 . S
Zn225 O226 1.962 . S
Zn225 O228 1.986 . S
Zn225 O230 1.996 . S
Zn225 O233 1.943 . S
O226 Zn225 1.962 . S
O226 C231 1.254 . S
O227 Zn224 2.031 . S
O227 C231 1.269 . S
O228 Zn225 1.986 . S
O228 C235 1.262 . S
O229 Zn224 2.049 . S
O229 C237 1.260 . S
O230 Zn225 1.996 . S
O230 C237 1.257 . S
C231 O226 1.254 . S
C231 O227 1.269 . S
C232 O233 1.249 . S
C232 O234 1.270 . S
O233 Zn225 1.943 . S
O233 C232 1.249 . S
O234 Zn224 2.067 . S
O234 C232 1.270 . S
C235 O228 1.262 . S
C235 O236 1.232 . S
O236 C235 1.232 . S
C237 O229 1.260 . S
C237 O230 1.257 . S
Zn238 O241 2.031 . S
Zn238 O243 2.049 . S
Zn238 O248 2.067 . S
Zn239 O240 1.962 . S
Zn239 O242 1.986 . S
Zn239 O244 1.996 . S
Zn239 O247 1.943 . S
O240 Zn239 1.962 . S
O240 C245 1.254 . S
O241 Zn238 2.031 . S
O241 C245 1.269 . S
O242 Zn239 1.986 . S
O242 C249 1.262 . S
O243 Zn238 2.049 . S
O243 C251 1.260 . S
O244 Zn239 1.996 . S
O244 C251 1.257 . S
C245 O240 1.254 . S
C245 O241 1.269 . S
C246 O247 1.249 . S
C246 O248 1.270 . S
O247 Zn239 1.943 . S
O247 C246 1.249 . S
O248 Zn238 2.067 . S
O248 C246 1.270 . S
C249 O242 1.262 . S
C249 O250 1.232 . S
O250 C249 1.232 . S
C251 O243 1.260 . S
C251 O244 1.257 . S
Zn252 O255 2.031 . S
Zn252 O257 2.049 . S
Zn252 O262 2.067 . S
Zn253 O254 1.962 . S
Zn253 O256 1.986 . S
Zn253 O258 1.996 . S
Zn253 O261 1.943 . S
O254 Zn253 1.962 . S
O254 C259 1.254 . S
O255 Zn252 2.031 . S
O255 C259 1.269 . S
O256 Zn253 1.986 . S
O256 C263 1.262 . S
O257 Zn252 2.049 . S
O257 C265 1.260 . S
O258 Zn253 1.996 . S
O258 C265 1.257 . S
C259 O254 1.254 . S
C259 O255 1.269 . S
C260 O261 1.249 . S
C260 O262 1.270 . S
O261 Zn253 1.943 . S
O261 C260 1.249 . S
O262 Zn252 2.067 . S
O262 C260 1.270 . S
C263 O256 1.262 . S
C263 O264 1.232 . S
O264 C263 1.232 . S
C265 O257 1.260 . S
C265 O258 1.257 . S
Zn266 O269 2.031 . S
Zn266 O271 2.049 . S
Zn266 O276 2.067 . S
Zn267 O268 1.962 . S
Zn267 O270 1.986 . S
Zn267 O272 1.996 . S
Zn267 O275 1.943 . S
O268 Zn267 1.962 . S
O268 C273 1.254 . S
O269 Zn266 2.031 . S
O269 C273 1.269 . S
O270 Zn267 1.986 . S
O270 C277 1.262 . S
O271 Zn266 2.049 . S
O271 C279 1.260 . S
O272 Zn267 1.996 . S
O272 C279 1.257 . S
C273 O268 1.254 . S
C273 O269 1.269 . S
C274 O275 1.249 . S
C274 O276 1.270 . S
O275 Zn267 1.943 . S
O275 C274 1.249 . S
O276 Zn266 2.067 . S
O276 C274 1.270 . S
C277 O270 1.262 . S
C277 O278 1.232 . S
O278 C277 1.232 . S
C279 O271 1.260 . S
C279 O272 1.257 . S
Zn280 O283 2.031 . S
Zn280 O285 2.049 . S
Zn280 O290 2.067 . S
Zn281 O282 1.962 . S
Zn281 O284 1.986 . S
Zn281 O286 1.996 . S
Zn281 O289 1.943 . S
O282 Zn281 1.962 . S
O282 C287 1.254 . S
O283 Zn280 2.031 . S
O283 C287 1.269 . S
O284 Zn281 1.986 . S
O284 C291 1.262 . S
O285 Zn280 2.049 . S
O285 C293 1.260 . S
O286 Zn281 1.996 . S
O286 C293 1.257 . S
C287 O282 1.254 . S
C287 O283 1.269 . S
C288 O289 1.249 . S
C288 O290 1.270 . S
O289 Zn281 1.943 . S
O289 C288 1.249 . S
O290 Zn280 2.067 . S
O290 C288 1.270 . S
C291 O284 1.262 . S
C291 O292 1.232 . S
O292 C291 1.232 . S
C293 O285 1.260 . S
C293 O286 1.257 . S
Zn294 O297 2.031 1_554 S
Zn294 O299 2.049 . S
Zn294 O304 2.067 1_554 S
Zn295 O296 1.962 . S
Zn295 O298 1.986 . S
Zn295 O300 1.996 . S
Zn295 O303 1.943 1_554 S
O296 Zn295 1.962 . S
O296 C301 1.254 1_554 S
O297 Zn294 2.031 1_556 S
O297 C301 1.269 . S
O298 Zn295 1.986 . S
O298 C305 1.262 . S
O299 Zn294 2.049 . S
O299 C307 1.260 . S
O300 Zn295 1.996 . S
O300 C307 1.257 . S
C301 O296 1.254 1_556 S
C301 O297 1.269 . S
C302 O303 1.249 . S
C302 O304 1.270 . S
O303 Zn295 1.943 1_556 S
O303 C302 1.249 . S
O304 Zn294 2.067 1_556 S
O304 C302 1.270 . S
C305 O298 1.262 . S
C305 O306 1.232 1_554 S
O306 C305 1.232 1_556 S
C307 O299 1.260 . S
C307 O300 1.257 . S
Zn308 O311 2.031 1_554 S
Zn308 O313 2.049 . S
Zn308 O318 2.067 1_554 S
Zn309 O310 1.962 . S
Zn309 O312 1.986 . S
Zn309 O314 1.996 . S
Zn309 O317 1.943 1_554 S
O310 Zn309 1.962 . S
O310 C315 1.254 1_554 S
O311 Zn308 2.031 1_556 S
O311 C315 1.269 . S
O312 Zn309 1.986 . S
O312 C319 1.262 . S
O313 Zn308 2.049 . S
O313 C321 1.260 . S
O314 Zn309 1.996 . S
O314 C321 1.257 . S
C315 O310 1.254 1_556 S
C315 O311 1.269 . S
C316 O317 1.249 . S
C316 O318 1.270 . S
O317 Zn309 1.943 1_556 S
O317 C316 1.249 . S
O318 Zn308 2.067 1_556 S
O318 C316 1.270 . S
C319 O312 1.262 . S
C319 O320 1.232 1_554 S
O320 C319 1.232 1_556 S
C321 O313 1.260 . S
C321 O314 1.257 . S
Zn322 O325 2.031 1_554 S
Zn322 O327 2.049 . S
Zn322 O332 2.067 1_554 S
Zn323 O324 1.962 . S
Zn323 O326 1.986 . S
Zn323 O328 1.996 . S
Zn323 O331 1.943 1_554 S
O324 Zn323 1.962 . S
O324 C329 1.254 1_554 S
O325 Zn322 2.031 1_556 S
O325 C329 1.269 . S
O326 Zn323 1.986 . S
O326 C333 1.262 . S
O327 Zn322 2.049 . S
O327 C335 1.260 . S
O328 Zn323 1.996 . S
O328 C335 1.257 . S
C329 O324 1.254 1_556 S
C329 O325 1.269 . S
C330 O331 1.249 . S
C330 O332 1.270 . S
O331 Zn323 1.943 1_556 S
O331 C330 1.249 . S
O332 Zn322 2.067 1_556 S
O332 C330 1.270 . S
C333 O326 1.262 . S
C333 O334 1.232 1_554 S
O334 C333 1.232 1_556 S
C335 O327 1.260 . S
C335 O328 1.257 . S
Zn336 O339 2.031 . S
Zn336 O341 2.049 . S
Zn336 O346 2.067 . S
Zn337 O338 1.962 . S
Zn337 O340 1.986 . S
Zn337 O342 1.996 . S
Zn337 O345 1.943 . S
O338 Zn337 1.962 . S
O338 C343 1.254 . S
O339 Zn336 2.031 . S
O339 C343 1.269 . S
O340 Zn337 1.986 . S
O340 C347 1.262 . S
O341 Zn336 2.049 . S
O341 C349 1.260 . S
O342 Zn337 1.996 . S
O342 C349 1.257 . S
C343 O338 1.254 . S
C343 O339 1.269 . S
C344 O345 1.249 . S
C344 O346 1.270 . S
O345 Zn337 1.943 . S
O345 C344 1.249 . S
O346 Zn336 2.067 . S
O346 C344 1.270 . S
C347 O340 1.262 . S
C347 O348 1.232 . S
O348 C347 1.232 . S
C349 O341 1.260 . S
C349 O342 1.257 . S
Zn350 O353 2.031 . S
Zn350 O355 2.049 . S
Zn350 O360 2.067 . S
Zn351 O352 1.962 . S
Zn351 O354 1.986 . S
Zn351 O356 1.996 . S
Zn351 O359 1.943 . S
O352 Zn351 1.962 . S
O352 C357 1.254 . S
O353 Zn350 2.031 . S
O353 C357 1.269 . S
O354 Zn351 1.986 . S
O354 C361 1.262 . S
O355 Zn350 2.049 . S
O355 C363 1.260 . S
O356 Zn351 1.996 . S
O356 C363 1.257 . S
C357 O352 1.254 . S
C357 O353 1.269 . S
C358 O359 1.249 . S
C358 O360 1.270 . S
O359 Zn351 1.943 . S
O359 C358 1.249 . S
O360 Zn350 2.067 . S
O360 C358 1.270 . S
C361 O354 1.262 . S
C361 O362 1.232 . S
O362 C361 1.232 . S
C363 O355 1.260 . S
C363 O356 1.257 . S
Zn364 O367 2.031 . S
Zn364 O369 2.049 . S
Zn364 O374 2.067 . S
Zn365 O366 1.962 . S
Zn365 O368 1.986 . S
Zn365 O370 1.996 . S
Zn365 O373 1.943 . S
O366 Zn365 1.962 . S
O366 C371 1.254 . S
O367 Zn364 2.031 . S
O367 C371 1.269 . S
O368 Zn365 1.986 . S
O368 C375 1.262 . S
O369 Zn364 2.049 . S
O369 C377 1.260 . S
O370 Zn365 1.996 . S
O370 C377 1.257 . S
C371 O366 1.254 . S
C371 O367 1.269 . S
C372 O373 1.249 . S
C372 O374 1.270 . S
O373 Zn365 1.943 . S
O373 C372 1.249 . S
O374 Zn364 2.067 . S
O374 C372 1.270 . S
C375 O368 1.262 . S
C375 O376 1.232 . S
O376 C375 1.232 . S
C377 O369 1.260 . S
C377 O370 1.257 . S
Zn378 O381 2.031 1_556 S
Zn378 O383 2.049 . S
Zn378 O388 2.067 1_556 S
Zn379 O380 1.962 . S
Zn379 O382 1.986 . S
Zn379 O384 1.996 . S
Zn379 O387 1.943 1_556 S
O380 Zn379 1.962 . S
O380 C385 1.254 1_556 S
O381 Zn378 2.031 1_554 S
O381 C385 1.269 . S
O382 Zn379 1.986 . S
O382 C389 1.262 . S
O383 Zn378 2.049 . S
O383 C391 1.260 . S
O384 Zn379 1.996 . S
O384 C391 1.257 . S
C385 O380 1.254 1_554 S
C385 O381 1.269 . S
C386 O387 1.249 . S
C386 O388 1.270 . S
O387 Zn379 1.943 1_554 S
O387 C386 1.249 . S
O388 Zn378 2.067 1_554 S
O388 C386 1.270 . S
C389 O382 1.262 . S
C389 O390 1.232 1_556 S
O390 C389 1.232 1_554 S
C391 O383 1.260 . S
C391 O384 1.257 . S
Zn392 O395 2.031 1_556 S
Zn392 O397 2.049 . S
Zn392 O402 2.067 1_556 S
Zn393 O394 1.962 . S
Zn393 O396 1.986 . S
Zn393 O398 1.996 . S
Zn393 O401 1.943 1_556 S
O394 Zn393 1.962 . S
O394 C399 1.254 1_556 S
O395 Zn392 2.031 1_554 S
O395 C399 1.269 . S
O396 Zn393 1.986 . S
O396 C403 1.262 . S
O397 Zn392 2.049 . S
O397 C405 1.260 . S
O398 Zn393 1.996 . S
O398 C405 1.257 . S
C399 O394 1.254 1_554 S
C399 O395 1.269 . S
C400 O401 1.249 . S
C400 O402 1.270 . S
O401 Zn393 1.943 1_554 S
O401 C400 1.249 . S
O402 Zn392 2.067 1_554 S
O402 C400 1.270 . S
C403 O396 1.262 . S
C403 O404 1.232 1_556 S
O404 C403 1.232 1_554 S
C405 O397 1.260 . S
C405 O398 1.257 . S
Zn406 O409 2.031 1_556 S
Zn406 O411 2.049 . S
Zn406 O416 2.067 1_556 S
Zn407 O408 1.962 . S
Zn407 O410 1.986 . S
Zn407 O412 1.996 . S
Zn407 O415 1.943 1_556 S
O408 Zn407 1.962 . S
O408 C413 1.254 1_556 S
O409 Zn406 2.031 1_554 S
O409 C413 1.269 . S
O410 Zn407 1.986 . S
O410 C417 1.262 . S
O411 Zn406 2.049 . S
O411 C419 1.260 . S
O412 Zn407 1.996 . S
O412 C419 1.257 . S
C413 O408 1.254 1_554 S
C413 O409 1.269 . S
C414 O415 1.249 . S
C414 O416 1.270 . S
O415 Zn407 1.943 1_554 S
O415 C414 1.249 . S
O416 Zn406 2.067 1_554 S
O416 C414 1.270 . S
C417 O410 1.262 . S
C417 O418 1.232 1_556 S
O418 C417 1.232 1_554 S
C419 O411 1.260 . S
C419 O412 1.257 . S
Zn420 O423 2.031 . S
Zn420 O425 2.049 . S
Zn420 O430 2.067 . S
Zn421 O422 1.962 . S
Zn421 O424 1.986 . S
Zn421 O426 1.996 . S
Zn421 O429 1.943 . S
O422 Zn421 1.962 . S
O422 C427 1.254 . S
O423 Zn420 2.031 . S
O423 C427 1.269 . S
O424 Zn421 1.986 . S
O424 C431 1.262 . S
O425 Zn420 2.049 . S
O425 C433 1.260 . S
O426 Zn421 1.996 . S
O426 C433 1.257 . S
C427 O422 1.254 . S
C427 O423 1.269 . S
C428 O429 1.249 . S
C428 O430 1.270 . S
O429 Zn421 1.943 . S
O429 C428 1.249 . S
O430 Zn420 2.067 . S
O430 C428 1.270 . S
C431 O424 1.262 . S
C431 O432 1.232 . S
O432 C431 1.232 . S
C433 O425 1.260 . S
C433 O426 1.257 . S
Zn434 O437 2.031 . S
Zn434 O439 2.049 . S
Zn434 O444 2.067 . S
Zn435 O436 1.962 . S
Zn435 O438 1.986 . S
Zn435 O440 1.996 . S
Zn435 O443 1.943 . S
O436 Zn435 1.962 . S
O436 C441 1.254 . S
O437 Zn434 2.031 . S
O437 C441 1.269 . S
O438 Zn435 1.986 . S
O438 C445 1.262 . S
O439 Zn434 2.049 . S
O439 C447 1.260 . S
O440 Zn435 1.996 . S
O440 C447 1.257 . S
C441 O436 1.254 . S
C441 O437 1.269 . S
C442 O443 1.249 . S
C442 O444 1.270 . S
O443 Zn435 1.943 . S
O443 C442 1.249 . S
O444 Zn434 2.067 . S
O444 C442 1.270 . S
C445 O438 1.262 . S
C445 O446 1.232 . S
O446 C445 1.232 . S
C447 O439 1.260 . S
C447 O440 1.257 . S
Zn448 O451 2.031 . S
Zn448 O453 2.049 . S
Zn448 O458 2.067 . S
Zn449 O450 1.962 . S
Zn449 O452 1.986 . S
Zn449 O454 1.996 . S
Zn449 O457 1.943 . S
O450 Zn449 1.962 . S
O450 C455 1.254 . S
O451 Zn448 2.031 . S
O451 C455 1.269 . S
O452 Zn449 1.986 . S
O452 C459 1.262 . S
O453 Zn448 2.049 . S
O453 C461 1.260 . S
O454 Zn449 1.996 . S
O454 C461 1.257 . S
C455 O450 1.254 . S
C455 O451 1.269 . S
C456 O457 1.249 . S
C456 O458 1.270 . S
O457 Zn449 1.943 . S
O457 C456 1.249 . S
O458 Zn448 2.067 . S
O458 C456 1.270 . S
C459 O452 1.262 . S
C459 O460 1.232 . S
O460 C459 1.232 . S
C461 O453 1.260 . S
C461 O454 1.257 . S
Zn462 O465 2.031 . S
Zn462 O467 2.049 . S
Zn462 O472 2.067 . S
Zn463 O464 1.962 . S
Zn463 O466 1.986 . S
Zn463 O468 1.996 . S
Zn463 O471 1.943 . S
O464 Zn463 1.962 . S
O464 C469 1.254 . S
O465 Zn462 2.031 . S
O465 C469 1.269 . S
O466 Zn463 1.986 . S
O466 C473 1.262 . S
O467 Zn462 2.049 . S
O467 C475 1.260 . S
O468 Zn463 1.996 . S
O468 C475 1.257 . S
C469 O464 1.254 . S
C469 O465 1.269 . S
C470 O471 1.249 . S
C470 O472 1.270 . S
O471 Zn463 1.943 . S
O471 C470 1.249 . S
O472 Zn462 2.067 . S
O472 C470 1.270 . S
C473 O466 1.262 . S
C473 O474 1.232 . S
O474 C473 1.232 . S
C475 O467 1.260 . S
C475 O468 1.257 . S
Zn476 O479 2.031 . S
Zn476 O481 2.049 . S
Zn476 O486 2.067 . S
Zn477 O478 1.962 . S
Zn477 O480 1.986 . S
Zn477 O482 1.996 . S
Zn477 O485 1.943 . S
O478 Zn477 1.962 . S
O478 C483 1.254 . S
O479 Zn476 2.031 . S
O479 C483 1.269 . S
O480 Zn477 1.986 . S
O480 C487 1.262 . S
O481 Zn476 2.049 . S
O481 C489 1.260 . S
O482 Zn477 1.996 . S
O482 C489 1.257 . S
C483 O478 1.254 . S
C483 O479 1.269 . S
C484 O485 1.249 . S
C484 O486 1.270 . S
O485 Zn477 1.943 . S
O485 C484 1.249 . S
O486 Zn476 2.067 . S
O486 C484 1.270 . S
C487 O480 1.262 . S
C487 O488 1.232 . S
O488 C487 1.232 . S
C489 O481 1.260 . S
C489 O482 1.257 . S
Zn490 O493 2.031 . S
Zn490 O495 2.049 . S
Zn490 O500 2.067 . S
Zn491 O492 1.962 . S
Zn491 O494 1.986 . S
Zn491 O496 1.996 . S
Zn491 O499 1.943 . S
O492 Zn491 1.962 . S
O492 C497 1.254 . S
O493 Zn490 2.031 . S
O493 C497 1.269 . S
O494 Zn491 1.986 . S
O494 C501 1.262 . S
O495 Zn490 2.049 . S
O495 C503 1.260 . S
O496 Zn491 1.996 . S
O496 C503 1.257 . S
C497 O492 1.254 . S
C497 O493 1.269 . S
C498 O499 1.249 . S
C498 O500 1.270 . S
O499 Zn491 1.943 . S
O499 C498 1.249 . S
O500 Zn490 2.067 . S
O500 C498 1.270 . S
C501 O494 1.262 . S
C501 O502 1.232 . S
O502 C501 1.232 . S
C503 O495 1.260 . S
C503 O496 1.257 . S
H504 C512 0.950 . S
H505 C517 0.950 . S
H506 C514 0.950 . S
H507 C516 0.950 . S
H508 C518 0.950 . S
H509 C520 0.950 . S
H510 C522 0.950 . S
H511 C523 0.950 . S
C512 H504 0.950 . S
C512 C513 1.386 . S
C512 C514 1.391 . S
C513 C512 1.386 . S
C513 C517 1.393 . S
C514 H506 0.950 . S
C514 C512 1.391 . S
C514 C515 1.400 . S
C515 C514 1.400 . S
C515 C516 1.398 . S
C515 C521 1.491 . S
C516 H507 0.950 . S
C516 C515 1.398 . S
C516 C517 1.391 . S
C517 H505 0.950 . S
C517 C513 1.393 . S
C517 C516 1.391 . S
C518 H508 0.950 . S
C518 C519 1.386 . S
C518 C520 1.391 . S
C519 C518 1.386 . S
C519 C523 1.393 . S
C520 H509 0.950 . S
C520 C518 1.391 . S
C520 C521 1.400 . S
C521 C515 1.491 . S
C521 C520 1.400 . S
C521 C522 1.398 . S
C522 H510 0.950 . S
C522 C521 1.398 . S
C522 C523 1.391 . S
C523 H511 0.950 . S
C523 C519 1.393 . S
C523 C522 1.391 . S
H524 C532 0.950 . S
H525 C537 0.950 . S
H526 C534 0.950 . S
H527 C536 0.950 . S
H528 C538 0.950 . S
H529 C540 0.950 . S
H530 C542 0.950 . S
H531 C543 0.950 . S
C532 H524 0.950 . S
C532 C533 1.386 . S
C532 C534 1.391 . S
C533 C532 1.386 . S
C533 C537 1.393 . S
C534 H526 0.950 . S
C534 C532 1.391 . S
C534 C535 1.400 . S
C535 C534 1.400 . S
C535 C536 1.398 . S
C535 C541 1.491 1_545 S
C536 H527 0.950 . S
C536 C535 1.398 . S
C536 C537 1.391 . S
C537 H525 0.950 . S
C537 C533 1.393 . S
C537 C536 1.391 . S
C538 H528 0.950 . S
C538 C539 1.386 . S
C538 C540 1.391 . S
C539 C538 1.386 . S
C539 C543 1.393 . S
C540 H529 0.950 . S
C540 C538 1.391 . S
C540 C541 1.400 . S
C541 C535 1.491 1_565 S
C541 C540 1.400 . S
C541 C542 1.398 . S
C542 H530 0.950 . S
C542 C541 1.398 . S
C542 C543 1.391 . S
C543 H531 0.950 . S
C543 C539 1.393 . S
C543 C542 1.391 . S
H544 C552 0.950 . S
H545 C557 0.950 . S
H546 C554 0.950 . S
H547 C556 0.950 . S
H548 C558 0.950 . S
H549 C560 0.950 . S
H550 C562 0.950 . S
H551 C563 0.950 . S
C552 H544 0.950 . S
C552 C553 1.386 . S
C552 C554 1.391 . S
C553 C552 1.386 . S
C553 C557 1.393 . S
C554 H546 0.950 . S
C554 C552 1.391 . S
C554 C555 1.400 . S
C555 C554 1.400 . S
C555 C556 1.398 . S
C555 C561 1.491 1_655 S
C556 H547 0.950 . S
C556 C555 1.398 . S
C556 C557 1.391 . S
C557 H545 0.950 . S
C557 C553 1.393 . S
C557 C556 1.391 . S
C558 H548 0.950 . S
C558 C559 1.386 . S
C558 C560 1.391 . S
C559 C558 1.386 . S
C559 C563 1.393 . S
C560 H549 0.950 . S
C560 C558 1.391 . S
C560 C561 1.400 . S
C561 C555 1.491 1_455 S
C561 C560 1.400 . S
C561 C562 1.398 . S
C562 H550 0.950 . S
C562 C561 1.398 . S
C562 C563 1.391 . S
C563 H551 0.950 . S
C563 C559 1.393 . S
C563 C562 1.391 . S
H564 C572 0.950 . S
H565 C577 0.950 . S
H566 C574 0.950 . S
H567 C576 0.950 . S
H568 C578 0.950 . S
H569 C580 0.950 . S
H570 C582 0.950 . S
H571 C583 0.950 . S
C572 H564 0.950 . S
C572 C573 1.386 . S
C572 C574 1.391 . S
C573 C572 1.386 . S
C573 C577 1.393 . S
C574 H566 0.950 . S
C574 C572 1.391 . S
C574 C575 1.400 . S
C575 C574 1.400 . S
C575 C576 1.398 . S
C575 C581 1.491 . S
C576 H567 0.950 . S
C576 C575 1.398 . S
C576 C577 1.391 . S
C577 H565 0.950 . S
C577 C573 1.393 . S
C577 C576 1.391 . S
C578 H568 0.950 . S
C578 C579 1.386 . S
C578 C580 1.391 . S
C579 C578 1.386 . S
C579 C583 1.393 . S
C580 H569 0.950 . S
C580 C578 1.391 . S
C580 C581 1.400 . S
C581 C575 1.491 . S
C581 C580 1.400 . S
C581 C582 1.398 . S
C582 H570 0.950 . S
C582 C581 1.398 . S
C582 C583 1.391 . S
C583 H571 0.950 . S
C583 C579 1.393 . S
C583 C582 1.391 . S
H584 C592 0.950 . S
H585 C597 0.950 . S
H586 C594 0.950 . S
H587 C596 0.950 . S
H588 C598 0.950 . S
H589 C600 0.950 . S
H590 C602 0.950 . S
H591 C603 0.950 . S
C592 H584 0.950 . S
C592 C593 1.386 . S
C592 C594 1.391 . S
C593 C592 1.386 . S
C593 C597 1.393 . S
C594 H586 0.950 . S
C594 C592 1.391 . S
C594 C595 1.400 . S
C595 C594 1.400 . S
C595 C596 1.398 . S
C595 C601 1.491 1_545 S
C596 H587 0.950 . S
C596 C595 1.398 . S
C596 C597 1.391 . S
C597 H585 0.950 . S
C597 C593 1.393 . S
C597 C596 1.391 . S
C598 H588 0.950 . S
C598 C599 1.386 . S
C598 C600 1.391 . S
C599 C598 1.386 . S
C599 C603 1.393 . S
C600 H589 0.950 . S
C600 C598 1.391 . S
C600 C601 1.400 . S
C601 C595 1.491 1_565 S
C601 C600 1.400 . S
C601 C602 1.398 . S
C602 H590 0.950 . S
C602 C601 1.398 . S
C602 C603 1.391 . S
C603 H591 0.950 . S
C603 C599 1.393 . S
C603 C602 1.391 . S
H604 C612 0.950 . S
H605 C617 0.950 . S
H606 C614 0.950 . S
H607 C616 0.950 . S
H608 C618 0.950 . S
H609 C620 0.950 . S
H610 C622 0.950 . S
H611 C623 0.950 . S
C612 H604 0.950 . S
C612 C613 1.386 . S
C612 C614 1.391 . S
C613 C612 1.386 . S
C613 C617 1.393 . S
C614 H606 0.950 . S
C614 C612 1.391 . S
C614 C615 1.400 . S
C615 C614 1.400 . S
C615 C616 1.398 . S
C615 C621 1.491 1_455 S
C616 H607 0.950 . S
C616 C615 1.398 . S
C616 C617 1.391 . S
C617 H605 0.950 . S
C617 C613 1.393 . S
C617 C616 1.391 . S
C618 H608 0.950 . S
C618 C619 1.386 . S
C618 C620 1.391 . S
C619 C618 1.386 . S
C619 C623 1.393 . S
C620 H609 0.950 . S
C620 C618 1.391 . S
C620 C621 1.400 . S
C621 C615 1.491 1_655 S
C621 C620 1.400 . S
C621 C622 1.398 . S
C622 H610 0.950 . S
C622 C621 1.398 . S
C622 C623 1.391 . S
C623 H611 0.950 . S
C623 C619 1.393 . S
C623 C622 1.391 . S
H624 C632 0.950 . S
H625 C637 0.950 . S
H626 C634 0.950 . S
H627 C636 0.950 . S
H628 C638 0.950 . S
H629 C640 0.950 . S
H630 C642 0.950 . S
H631 C643 0.950 . S
C632 H624 0.950 . S
C632 C633 1.386 . S
C632 C634 1.391 . S
C633 C632 1.386 . S
C633 C637 1.393 . S
C634 H626 0.950 . S
C634 C632 1.391 . S
C634 C635 1.400 . S
C635 C634 1.400 . S
C635 C636 1.398 . S
C635 C641 1.491 . S
C636 H627 0.950 . S
C636 C635 1.398 . S
C636 C637 1.391 . S
C637 H625 0.950 . S
C637 C633 1.393 . S
C637 C636 1.391 . S
C638 H628 0.950 . S
C638 C639 1.386 . S
C638 C640 1.391 . S
C639 C638 1.386 . S
C639 C643 1.393 . S
C640 H629 0.950 . S
C640 C638 1.391 . S
C640 C641 1.400 . S
C641 C635 1.491 . S
C641 C640 1.400 . S
C641 C642 1.398 . S
C642 H630 0.950 . S
C642 C641 1.398 . S
C642 C643 1.391 . S
C643 H631 0.950 . S
C643 C639 1.393 . S
C643 C642 1.391 . S
H644 C652 0.950 . S
H645 C657 0.950 . S
H646 C654 0.950 . S
H647 C656 0.950 . S
H648 C658 0.950 . S
H649 C660 0.950 . S
H650 C662 0.950 . S
H651 C663 0.950 . S
C652 H644 0.950 . S
C652 C653 1.386 . S
C652 C654 1.391 . S
C653 C652 1.386 . S
C653 C657 1.393 . S
C654 H646 0.950 . S
C654 C652 1.391 . S
C654 C655 1.400 . S
C655 C654 1.400 . S
C655 C656 1.398 . S
C655 C661 1.491 . S
C656 H647 0.950 . S
C656 C655 1.398 . S
C656 C657 1.391 . S
C657 H645 0.950 . S
C657 C653 1.393 . S
C657 C656 1.391 . S
C658 H648 0.950 . S
C658 C659 1.386 . S
C658 C660 1.391 . S
C659 C658 1.386 . S
C659 C663 1.393 . S
C660 H649 0.950 . S
C660 C658 1.391 . S
C660 C661 1.400 . S
C661 C655 1.491 . S
C661 C660 1.400 . S
C661 C662 1.398 . S
C662 H650 0.950 . S
C662 C661 1.398 . S
C662 C663 1.391 . S
C663 H651 0.950 . S
C663 C659 1.393 . S
C663 C662 1.391 . S
H664 C672 0.950 . S
H665 C677 0.950 . S
H666 C674 0.950 . S
H667 C676 0.950 . S
H668 C678 0.950 . S
H669 C680 0.950 . S
H670 C682 0.950 . S
H671 C683 0.950 . S
C672 H664 0.950 . S
C672 C673 1.386 . S
C672 C674 1.391 . S
C673 C672 1.386 . S
C673 C677 1.393 . S
C674 H666 0.950 . S
C674 C672 1.391 . S
C674 C675 1.400 . S
C675 C674 1.400 . S
C675 C676 1.398 . S
C675 C681 1.491 . S
C676 H667 0.950 . S
C676 C675 1.398 . S
C676 C677 1.391 . S
C677 H665 0.950 . S
C677 C673 1.393 . S
C677 C676 1.391 . S
C678 H668 0.950 . S
C678 C679 1.386 . S
C678 C680 1.391 . S
C679 C678 1.386 . S
C679 C683 1.393 . S
C680 H669 0.950 . S
C680 C678 1.391 . S
C680 C681 1.400 . S
C681 C675 1.491 . S
C681 C680 1.400 . S
C681 C682 1.398 . S
C682 H670 0.950 . S
C682 C681 1.398 . S
C682 C683 1.391 . S
C683 H671 0.950 . S
C683 C679 1.393 . S
C683 C682 1.391 . S
H684 C692 0.950 . S
H685 C697 0.950 . S
H686 C694 0.950 . S
H687 C696 0.950 . S
H688 C698 0.950 1_556 S
H689 C700 0.950 1_556 S
H690 C702 0.950 . S
H691 C703 0.950 . S
C692 H684 0.950 . S
C692 C693 1.386 . S
C692 C694 1.391 . S
C693 C692 1.386 . S
C693 C697 1.393 . S
C694 H686 0.950 . S
C694 C692 1.391 . S
C694 C695 1.400 . S
C695 C694 1.400 . S
C695 C696 1.398 . S
C695 C701 1.491 . S
C696 H687 0.950 . S
C696 C695 1.398 . S
C696 C697 1.391 . S
C697 H685 0.950 . S
C697 C693 1.393 . S
C697 C696 1.391 . S
C698 H688 0.950 1_554 S
C698 C699 1.386 . S
C698 C700 1.391 . S
C699 C698 1.386 . S
C699 C703 1.393 . S
C700 H689 0.950 1_554 S
C700 C698 1.391 . S
C700 C701 1.400 . S
C701 C695 1.491 . S
C701 C700 1.400 . S
C701 C702 1.398 . S
C702 H690 0.950 . S
C702 C701 1.398 . S
C702 C703 1.391 . S
C703 H691 0.950 . S
C703 C699 1.393 . S
C703 C702 1.391 . S
H704 C712 0.950 . S
H705 C717 0.950 1_556 S
H706 C714 0.950 . S
H707 C716 0.950 1_556 S
H708 C718 0.950 . S
H709 C720 0.950 . S
H710 C722 0.950 . S
H711 C723 0.950 . S
C712 H704 0.950 . S
C712 C713 1.386 . S
C712 C714 1.391 . S
C713 C712 1.386 . S
C713 C717 1.393 . S
C714 H706 0.950 . S
C714 C712 1.391 . S
C714 C715 1.400 . S
C715 C714 1.400 . S
C715 C716 1.398 . S
C715 C721 1.491 . S
C716 H707 0.950 1_554 S
C716 C715 1.398 . S
C716 C717 1.391 . S
C717 H705 0.950 1_554 S
C717 C713 1.393 . S
C717 C716 1.391 . S
C718 H708 0.950 . S
C718 C719 1.386 . S
C718 C720 1.391 . S
C719 C718 1.386 . S
C719 C723 1.393 . S
C720 H709 0.950 . S
C720 C718 1.391 . S
C720 C721 1.400 . S
C721 C715 1.491 . S
C721 C720 1.400 . S
C721 C722 1.398 . S
C722 H710 0.950 . S
C722 C721 1.398 . S
C722 C723 1.391 . S
C723 H711 0.950 . S
C723 C719 1.393 . S
C723 C722 1.391 . S
H724 C732 0.950 . S
H725 C737 0.950 . S
H726 C734 0.950 . S
H727 C736 0.950 . S
H728 C738 0.950 1_556 S
H729 C740 0.950 . S
H730 C742 0.950 . S
H731 C743 0.950 . S
C732 H724 0.950 . S
C732 C733 1.386 . S
C732 C734 1.391 . S
C733 C732 1.386 . S
C733 C737 1.393 . S
C734 H726 0.950 . S
C734 C732 1.391 . S
C734 C735 1.400 . S
C735 C734 1.400 . S
C735 C736 1.398 . S
C735 C741 1.491 . S
C736 H727 0.950 . S
C736 C735 1.398 . S
C736 C737 1.391 . S
C737 H725 0.950 . S
C737 C733 1.393 . S
C737 C736 1.391 . S
C738 H728 0.950 1_554 S
C738 C739 1.386 . S
C738 C740 1.391 . S
C739 C738 1.386 . S
C739 C743 1.393 . S
C740 H729 0.950 . S
C740 C738 1.391 . S
C740 C741 1.400 . S
C741 C735 1.491 . S
C741 C740 1.400 . S
C741 C742 1.398 . S
C742 H730 0.950 . S
C742 C741 1.398 . S
C742 C743 1.391 . S
C743 H731 0.950 . S
C743 C739 1.393 . S
C743 C742 1.391 . S
H744 C752 0.950 . S
H745 C757 0.950 . S
H746 C754 0.950 . S
H747 C756 0.950 . S
H748 C758 0.950 . S
H749 C760 0.950 . S
H750 C762 0.950 . S
H751 C763 0.950 . S
C752 H744 0.950 . S
C752 C753 1.386 . S
C752 C754 1.391 . S
C753 C752 1.386 . S
C753 C757 1.393 . S
C754 H746 0.950 . S
C754 C752 1.391 . S
C754 C755 1.400 . S
C755 C754 1.400 . S
C755 C756 1.398 . S
C755 C761 1.491 . S
C756 H747 0.950 . S
C756 C755 1.398 . S
C756 C757 1.391 . S
C757 H745 0.950 . S
C757 C753 1.393 . S
C757 C756 1.391 . S
C758 H748 0.950 . S
C758 C759 1.386 . S
C758 C760 1.391 . S
C759 C758 1.386 . S
C759 C763 1.393 . S
C760 H749 0.950 . S
C760 C758 1.391 . S
C760 C761 1.400 . S
C761 C755 1.491 . S
C761 C760 1.400 . S
C761 C762 1.398 . S
C762 H750 0.950 . S
C762 C761 1.398 . S
C762 C763 1.391 . S
C763 H751 0.950 . S
C763 C759 1.393 . S
C763 C762 1.391 . S
H764 C772 0.950 . S
H765 C777 0.950 . S
H766 C774 0.950 . S
H767 C776 0.950 . S
H768 C778 0.950 . S
H769 C780 0.950 . S
H770 C782 0.950 1_554 S
H771 C783 0.950 1_554 S
C772 H764 0.950 . S
C772 C773 1.386 . S
C772 C774 1.391 . S
C773 C772 1.386 . S
C773 C777 1.393 . S
C774 H766 0.950 . S
C774 C772 1.391 . S
C774 C775 1.400 . S
C775 C774 1.400 . S
C775 C776 1.398 . S
C775 C781 1.491 . S
C776 H767 0.950 . S
C776 C775 1.398 . S
C776 C777 1.391 . S
C777 H765 0.950 . S
C777 C773 1.393 . S
C777 C776 1.391 . S
C778 H768 0.950 . S
C778 C779 1.386 . S
C778 C780 1.391 . S
C779 C778 1.386 . S
C779 C783 1.393 . S
C780 H769 0.950 . S
C780 C778 1.391 . S
C780 C781 1.400 . S
C781 C775 1.491 . S
C781 C780 1.400 . S
C781 C782 1.398 . S
C782 H770 0.950 1_556 S
C782 C781 1.398 . S
C782 C783 1.391 . S
C783 H771 0.950 1_556 S
C783 C779 1.393 . S
C783 C782 1.391 . S
H784 C792 0.950 . S
H785 C797 0.950 . S
H786 C794 0.950 . S
H787 C796 0.950 . S
H788 C798 0.950 . S
H789 C800 0.950 . S
H790 C802 0.950 . S
H791 C803 0.950 . S
C792 H784 0.950 . S
C792 C793 1.386 . S
C792 C794 1.391 . S
C793 C792 1.386 . S
C793 C797 1.393 . S
C794 H786 0.950 . S
C794 C792 1.391 . S
C794 C795 1.400 . S
C795 C794 1.400 . S
C795 C796 1.398 . S
C795 C801 1.491 . S
C796 H787 0.950 . S
C796 C795 1.398 . S
C796 C797 1.391 . S
C797 H785 0.950 . S
C797 C793 1.393 . S
C797 C796 1.391 . S
C798 H788 0.950 . S
C798 C799 1.386 . S
C798 C800 1.391 . S
C799 C798 1.386 . S
C799 C803 1.393 . S
C800 H789 0.950 . S
C800 C798 1.391 . S
C800 C801 1.400 . S
C801 C795 1.491 . S
C801 C800 1.400 . S
C801 C802 1.398 . S
C802 H790 0.950 . S
C802 C801 1.398 . S
C802 C803 1.391 . S
C803 H791 0.950 . S
C803 C799 1.393 . S
C803 C802 1.391 . S
H804 C812 0.950 . S
H805 C817 0.950 . S
H806 C814 0.950 . S
H807 C816 0.950 . S
H808 C818 0.950 . S
H809 C820 0.950 . S
H810 C822 0.950 . S
H811 C823 0.950 . S
C812 H804 0.950 . S
C812 C813 1.386 . S
C812 C814 1.391 . S
C813 C812 1.386 . S
C813 C817 1.393 . S
C814 H806 0.950 . S
C814 C812 1.391 . S
C814 C815 1.400 . S
C815 C814 1.400 . S
C815 C816 1.398 . S
C815 C821 1.491 . S
C816 H807 0.950 . S
C816 C815 1.398 . S
C816 C817 1.391 . S
C817 H805 0.950 . S
C817 C813 1.393 . S
C817 C816 1.391 . S
C818 H808 0.950 . S
C818 C819 1.386 . S
C818 C820 1.391 . S
C819 C818 1.386 . S
C819 C823 1.393 . S
C820 H809 0.950 . S
C820 C818 1.391 . S
C820 C821 1.400 . S
C821 C815 1.491 . S
C821 C820 1.400 . S
C821 C822 1.398 . S
C822 H810 0.950 . S
C822 C821 1.398 . S
C822 C823 1.391 . S
C823 H811 0.950 . S
C823 C819 1.393 . S
C823 C822 1.391 . S
H824 C832 0.950 . S
H825 C837 0.950 . S
H826 C834 0.950 . S
H827 C836 0.950 . S
H828 C838 0.950 . S
H829 C840 0.950 . S
H830 C842 0.950 . S
H831 C843 0.950 . S
C832 H824 0.950 . S
C832 C833 1.386 . S
C832 C834 1.391 . S
C833 C832 1.386 . S
C833 C837 1.393 . S
C834 H826 0.950 . S
C834 C832 1.391 . S
C834 C835 1.400 . S
C835 C834 1.400 . S
C835 C836 1.398 . S
C835 C841 1.491 . S
C836 H827 0.950 . S
C836 C835 1.398 . S
C836 C837 1.391 . S
C837 H825 0.950 . S
C837 C833 1.393 . S
C837 C836 1.391 . S
C838 H828 0.950 . S
C838 C839 1.386 . S
C838 C840 1.391 . S
C839 C838 1.386 . S
C839 C843 1.393 . S
C840 H829 0.950 . S
C840 C838 1.391 . S
C840 C841 1.400 . S
C841 C835 1.491 . S
C841 C840 1.400 . S
C841 C842 1.398 . S
C842 H830 0.950 . S
C842 C841 1.398 . S
C842 C843 1.391 . S
C843 H831 0.950 . S
C843 C839 1.393 . S
C843 C842 1.391 . S
H844 C852 0.950 . S
H845 C857 0.950 . S
H846 C854 0.950 . S
H847 C856 0.950 . S
H848 C858 0.950 . S
H849 C860 0.950 . S
H850 C862 0.950 . S
H851 C863 0.950 . S
C852 H844 0.950 . S
C852 C853 1.386 . S
C852 C854 1.391 . S
C853 C852 1.386 . S
C853 C857 1.393 . S
C854 H846 0.950 . S
C854 C852 1.391 . S
C854 C855 1.400 . S
C855 C854 1.400 . S
C855 C856 1.398 . S
C855 C861 1.491 . S
C856 H847 0.950 . S
C856 C855 1.398 . S
C856 C857 1.391 . S
C857 H845 0.950 . S
C857 C853 1.393 . S
C857 C856 1.391 . S
C858 H848 0.950 . S
C858 C859 1.386 . S
C858 C860 1.391 . S
C859 C858 1.386 . S
C859 C863 1.393 . S
C860 H849 0.950 . S
C860 C858 1.391 . S
C860 C861 1.400 . S
C861 C855 1.491 . S
C861 C860 1.400 . S
C861 C862 1.398 . S
C862 H850 0.950 . S
C862 C861 1.398 . S
C862 C863 1.391 . S
C863 H851 0.950 . S
C863 C859 1.393 . S
C863 C862 1.391 . S
H864 C872 0.950 . S
H865 C877 0.950 . S
H866 C874 0.950 . S
H867 C876 0.950 . S
H868 C878 0.950 . S
H869 C880 0.950 . S
H870 C882 0.950 . S
H871 C883 0.950 . S
C872 H864 0.950 . S
C872 C873 1.386 . S
C872 C874 1.391 . S
C873 C872 1.386 . S
C873 C877 1.393 . S
C874 H866 0.950 . S
C874 C872 1.391 . S
C874 C875 1.400 . S
C875 C874 1.400 . S
C875 C876 1.398 . S
C875 C881 1.491 . S
C876 H867 0.950 . S
C876 C875 1.398 . S
C876 C877 1.391 . S
C877 H865 0.950 . S
C877 C873 1.393 . S
C877 C876 1.391 . S
C878 H868 0.950 . S
C878 C879 1.386 . S
C878 C880 1.391 . S
C879 C878 1.386 . S
C879 C883 1.393 . S
C880 H869 0.950 . S
C880 C878 1.391 . S
C880 C881 1.400 1_554 S
C881 C875 1.491 . S
C881 C880 1.400 1_556 S
C881 C882 1.398 . S
C882 H870 0.950 . S
C882 C881 1.398 . S
C882 C883 1.391 1_556 S
C883 H871 0.950 . S
C883 C879 1.393 . S
C883 C882 1.391 1_554 S
H884 C892 0.950 . S
H885 C897 0.950 . S
H886 C894 0.950 . S
H887 C896 0.950 . S
H888 C898 0.950 . S
H889 C900 0.950 . S
H890 C902 0.950 . S
H891 C903 0.950 . S
C892 H884 0.950 . S
C892 C893 1.386 . S
C892 C894 1.391 1_554 S
C893 C892 1.386 . S
C893 C897 1.393 . S
C894 H886 0.950 . S
C894 C892 1.391 1_556 S
C894 C895 1.400 . S
C895 C894 1.400 . S
C895 C896 1.398 1_556 S
C895 C901 1.491 . S
C896 H887 0.950 . S
C896 C895 1.398 1_554 S
C896 C897 1.391 . S
C897 H885 0.950 . S
C897 C893 1.393 . S
C897 C896 1.391 . S
C898 H888 0.950 . S
C898 C899 1.386 . S
C898 C900 1.391 . S
C899 C898 1.386 . S
C899 C903 1.393 . S
C900 H889 0.950 . S
C900 C898 1.391 . S
C900 C901 1.400 . S
C901 C895 1.491 . S
C901 C900 1.400 . S
C901 C902 1.398 . S
C902 H890 0.950 . S
C902 C901 1.398 . S
C902 C903 1.391 . S
C903 H891 0.950 . S
C903 C899 1.393 . S
C903 C902 1.391 . S
H904 C912 0.950 . S
H905 C917 0.950 . S
H906 C914 0.953 . S
H907 C916 0.950 . S
H908 C918 0.950 . S
H909 C920 0.950 . S
H910 C922 0.950 . S
H911 C923 0.950 . S
C912 H904 0.950 . S
C912 C913 1.386 . S
C912 C914 1.383 1_554 S
C913 C912 1.386 . S
C913 C917 1.393 . S
C914 H906 0.953 . S
C914 C912 1.383 1_556 S
C914 C915 1.405 . S
C915 C914 1.405 . S
C915 C916 1.398 . S
C915 C921 1.491 . S
C916 H907 0.950 . S
C916 C915 1.398 . S
C916 C917 1.391 1_556 S
C917 H905 0.950 . S
C917 C913 1.393 . S
C917 C916 1.391 1_554 S
C918 H908 0.950 . S
C918 C919 1.386 . S
C918 C920 1.391 . S
C919 C918 1.386 . S
C919 C923 1.393 . S
C920 H909 0.950 . S
C920 C918 1.391 . S
C920 C921 1.400 . S
C921 C915 1.491 . S
C921 C920 1.400 . S
C921 C922 1.398 . S
C922 H910 0.950 . S
C922 C921 1.398 . S
C922 C923 1.391 . S
C923 H911 0.950 . S
C923 C919 1.393 . S
C923 C922 1.391 . S
H924 C932 0.950 . S
H925 C937 0.950 . S
H926 C934 0.950 . S
H927 C936 0.950 . S
H928 C938 0.950 . S
H929 C940 0.950 . S
H930 C942 0.950 . S
H931 C943 0.950 . S
C932 H924 0.950 . S
C932 C933 1.386 . S
C932 C934 1.391 . S
C933 C932 1.386 . S
C933 C937 1.393 . S
C934 H926 0.950 . S
C934 C932 1.391 . S
C934 C935 1.400 . S
C935 C934 1.400 . S
C935 C936 1.398 . S
C935 C941 1.491 . S
C936 H927 0.950 . S
C936 C935 1.398 . S
C936 C937 1.391 . S
C937 H925 0.950 . S
C937 C933 1.393 . S
C937 C936 1.391 . S
C938 H928 0.950 . S
C938 C939 1.386 . S
C938 C940 1.391 . S
C939 C938 1.386 . S
C939 C943 1.393 . S
C940 H929 0.950 . S
C940 C938 1.391 . S
C940 C941 1.400 . S
C941 C935 1.491 . S
C941 C940 1.400 . S
C941 C942 1.398 . S
C942 H930 0.950 . S
C942 C941 1.398 . S
C942 C943 1.391 . S
C943 H931 0.950 . S
C943 C939 1.393 . S
C943 C942 1.391 . S
H944 C952 0.950 . S
H945 C957 0.950 . S
H946 C954 0.950 . S
H947 C956 0.950 . S
H948 C958 0.950 . S
H949 C960 0.950 . S
H950 C962 0.950 . S
H951 C963 0.950 . S
C952 H944 0.950 . S
C952 C953 1.386 . S
C952 C954 1.391 . S
C953 C952 1.386 . S
C953 C957 1.393 . S
C954 H946 0.950 . S
C954 C952 1.391 . S
C954 C955 1.400 . S
C955 C954 1.400 . S
C955 C956 1.398 . S
C955 C961 1.491 . S
C956 H947 0.950 . S
C956 C955 1.398 . S
C956 C957 1.391 . S
C957 H945 0.950 . S
C957 C953 1.393 . S
C957 C956 1.391 . S
C958 H948 0.950 . S
C958 C959 1.386 . S
C958 C960 1.391 . S
C959 C958 1.386 . S
C959 C963 1.393 . S
C960 H949 0.950 . S
C960 C958 1.391 . S
C960 C961 1.400 . S
C961 C955 1.491 . S
C961 C960 1.400 . S
C961 C962 1.398 . S
C962 H950 0.950 . S
C962 C961 1.398 . S
C962 C963 1.391 . S
C963 H951 0.950 . S
C963 C959 1.393 . S
C963 C962 1.391 . S
H964 C972 0.950 . S
H965 C977 0.950 . S
H966 C974 0.950 . S
H967 C976 0.950 . S
H968 C978 0.950 . S
H969 C980 0.950 . S
H970 C982 0.950 . S
H971 C983 0.950 . S
C972 H964 0.950 . S
C972 C973 1.386 . S
C972 C974 1.391 . S
C973 C972 1.386 . S
C973 C977 1.393 . S
C974 H966 0.950 . S
C974 C972 1.391 . S
C974 C975 1.400 . S
C975 C974 1.400 . S
C975 C976 1.398 . S
C975 C981 1.491 . S
C976 H967 0.950 . S
C976 C975 1.398 . S
C976 C977 1.391 . S
C977 H965 0.950 . S
C977 C973 1.393 . S
C977 C976 1.391 . S
C978 H968 0.950 . S
C978 C979 1.386 . S
C978 C980 1.391 . S
C979 C978 1.386 . S
C979 C983 1.393 . S
C980 H969 0.950 . S
C980 C978 1.391 . S
C980 C981 1.400 . S
C981 C975 1.491 . S
C981 C980 1.400 . S
C981 C982 1.398 . S
C982 H970 0.950 . S
C982 C981 1.398 . S
C982 C983 1.391 . S
C983 H971 0.950 . S
C983 C979 1.393 . S
C983 C982 1.391 . S
H984 C992 0.950 . S
H985 C997 0.950 . S
H986 C994 0.950 . S
H987 C996 0.950 1_554 S
H988 C998 0.950 . S
H989 C1000 0.950 . S
H990 C1002 0.950 . S
H991 C1003 0.950 . S
C992 H984 0.950 . S
C992 C993 1.386 . S
C992 C994 1.391 1_556 S
C993 C992 1.386 . S
C993 C997 1.393 . S
C994 H986 0.950 . S
C994 C992 1.391 1_554 S
C994 C995 1.400 . S
C995 C994 1.400 . S
C995 C996 1.398 1_554 S
C995 C1001 1.491 . S
C996 H987 0.950 1_556 S
C996 C995 1.398 1_556 S
C996 C997 1.391 . S
C997 H985 0.950 . S
C997 C993 1.393 . S
C997 C996 1.391 . S
C998 H988 0.950 . S
C998 C999 1.386 . S
C998 C1000 1.391 . S
C999 C998 1.386 . S
C999 C1003 1.393 . S
C1000 H989 0.950 . S
C1000 C998 1.391 . S
C1000 C1001 1.400 . S
C1001 C995 1.491 . S
C1001 C1000 1.400 . S
C1001 C1002 1.398 . S
C1002 H990 0.950 . S
C1002 C1001 1.398 . S
C1002 C1003 1.391 . S
C1003 H991 0.950 . S
C1003 C999 1.393 . S
C1003 C1002 1.391 . S
H1004 C1012 0.950 . S
H1005 C1017 0.950 . S
H1006 C1014 0.950 . S
H1007 C1016 0.950 . S
H1008 C1018 0.950 . S
H1009 C1020 0.950 . S
H1010 C1022 0.950 . S
H1011 C1023 0.950 . S
C1012 H1004 0.950 . S
C1012 C1013 1.386 . S
C1012 C1014 1.391 1_556 S
C1013 C1012 1.386 . S
C1013 C1017 1.393 . S
C1014 H1006 0.950 . S
C1014 C1012 1.391 1_554 S
C1014 C1015 1.400 . S
C1015 C1014 1.400 . S
C1015 C1016 1.398 1_554 S
C1015 C1021 1.491 . S
C1016 H1007 0.950 . S
C1016 C1015 1.398 1_556 S
C1016 C1017 1.391 . S
C1017 H1005 0.950 . S
C1017 C1013 1.393 . S
C1017 C1016 1.391 . S
C1018 H1008 0.950 . S
C1018 C1019 1.386 . S
C1018 C1020 1.391 . S
C1019 C1018 1.386 . S
C1019 C1023 1.393 . S
C1020 H1009 0.950 . S
C1020 C1018 1.391 . S
C1020 C1021 1.400 . S
C1021 C1015 1.491 . S
C1021 C1020 1.400 . S
C1021 C1022 1.398 . S
C1022 H1010 0.950 . S
C1022 C1021 1.398 . S
C1022 C1023 1.391 . S
C1023 H1011 0.950 . S
C1023 C1019 1.393 . S
C1023 C1022 1.391 . S
H1024 C1032 0.950 . S
H1025 C1037 0.950 . S
H1026 C1034 0.950 . S
H1027 C1036 0.950 . S
H1028 C1038 0.950 . S
H1029 C1040 0.950 . S
H1030 C1042 0.950 . S
H1031 C1043 0.950 . S
C1032 H1024 0.950 . S
C1032 C1033 1.386 . S
C1032 C1034 1.391 . S
C1033 C1032 1.386 . S
C1033 C1037 1.393 . S
C1034 H1026 0.950 . S
C1034 C1032 1.391 . S
C1034 C1035 1.400 . S
C1035 C1034 1.400 . S
C1035 C1036 1.398 . S
C1035 C1041 1.491 . S
C1036 H1027 0.950 . S
C1036 C1035 1.398 . S
C1036 C1037 1.391 . S
C1037 H1025 0.950 . S
C1037 C1033 1.393 . S
C1037 C1036 1.391 . S
C1038 H1028 0.950 . S
C1038 C1039 1.386 . S
C1038 C1040 1.391 . S
C1039 C1038 1.386 . S
C1039 C1043 1.393 . S
C1040 H1029 0.950 . S
C1040 C1038 1.391 . S
C1040 C1041 1.400 1_556 S
C1041 C1035 1.491 . S
C1041 C1040 1.400 1_554 S
C1041 C1042 1.398 . S
C1042 H1030 0.950 . S
C1042 C1041 1.398 . S
C1042 C1043 1.391 1_554 S
C1043 H1031 0.950 . S
C1043 C1039 1.393 . S
C1043 C1042 1.391 1_556 S
H1044 C1052 0.950 . S
H1045 C1057 0.950 . S
H1046 C1054 0.950 . S
H1047 C1056 0.950 . S
H1048 C1058 0.950 . S
H1049 C1060 0.950 . S
H1050 C1062 0.950 . S
H1051 C1063 0.950 . S
C1052 H1044 0.950 . S
C1052 C1053 1.386 . S
C1052 C1054 1.391 . S
C1053 C1052 1.386 . S
C1053 C1057 1.393 . S
C1054 H1046 0.950 . S
C1054 C1052 1.391 . S
C1054 C1055 1.400 . S
C1055 C1054 1.400 . S
C1055 C1056 1.398 . S
C1055 C1061 1.491 . S
C1056 H1047 0.950 . S
C1056 C1055 1.398 . S
C1056 C1057 1.391 . S
C1057 H1045 0.950 . S
C1057 C1053 1.393 . S
C1057 C1056 1.391 . S
C1058 H1048 0.950 . S
C1058 C1059 1.386 . S
C1058 C1060 1.391 . S
C1059 C1058 1.386 . S
C1059 C1063 1.393 . S
C1060 H1049 0.950 . S
C1060 C1058 1.391 . S
C1060 C1061 1.400 . S
C1061 C1055 1.491 . S
C1061 C1060 1.400 . S
C1061 C1062 1.398 . S
C1062 H1050 0.950 . S
C1062 C1061 1.398 . S
C1062 C1063 1.391 . S
C1063 H1051 0.950 . S
C1063 C1059 1.393 . S
C1063 C1062 1.391 . S
H1064 C1072 0.950 . S
H1065 C1077 0.950 . S
H1066 C1074 0.950 . S
H1067 C1076 0.950 . S
H1068 C1078 0.950 . S
H1069 C1080 0.950 . S
H1070 C1082 0.950 . S
H1071 C1083 0.950 . S
C1072 H1064 0.950 . S
C1072 C1073 1.386 . S
C1072 C1074 1.391 . S
C1073 C1072 1.386 . S
C1073 C1077 1.393 . S
C1074 H1066 0.950 . S
C1074 C1072 1.391 . S
C1074 C1075 1.400 . S
C1075 C1074 1.400 . S
C1075 C1076 1.398 . S
C1075 C1081 1.491 . S
C1076 H1067 0.950 . S
C1076 C1075 1.398 . S
C1076 C1077 1.391 . S
C1077 H1065 0.950 . S
C1077 C1073 1.393 . S
C1077 C1076 1.391 . S
C1078 H1068 0.950 . S
C1078 C1079 1.386 . S
C1078 C1080 1.391 . S
C1079 C1078 1.386 . S
C1079 C1083 1.393 . S
C1080 H1069 0.950 . S
C1080 C1078 1.391 . S
C1080 C1081 1.400 . S
C1081 C1075 1.491 . S
C1081 C1080 1.400 . S
C1081 C1082 1.398 . S
C1082 H1070 0.950 . S
C1082 C1081 1.398 . S
C1082 C1083 1.391 . S
C1083 H1071 0.950 . S
C1083 C1079 1.393 . S
C1083 C1082 1.391 . S
H1084 C1092 0.950 . S
H1085 C1097 0.950 . S
H1086 C1094 0.950 . S
H1087 C1096 0.950 . S
H1088 C1098 0.950 . S
H1089 C1100 0.950 . S
H1090 C1102 0.950 . S
H1091 C1103 0.950 . S
C1092 H1084 0.950 . S
C1092 C1093 1.386 . S
C1092 C1094 1.391 . S
C1093 C1092 1.386 . S
C1093 C1097 1.393 . S
C1094 H1086 0.950 . S
C1094 C1092 1.391 . S
C1094 C1095 1.400 . S
C1095 C1094 1.400 . S
C1095 C1096 1.398 . S
C1095 C1101 1.491 . S
C1096 H1087 0.950 . S
C1096 C1095 1.398 . S
C1096 C1097 1.391 . S
C1097 H1085 0.950 . S
C1097 C1093 1.393 . S
C1097 C1096 1.391 . S
C1098 H1088 0.950 . S
C1098 C1099 1.386 . S
C1098 C1100 1.391 . S
C1099 C1098 1.386 . S
C1099 C1103 1.393 . S
C1100 H1089 0.950 . S
C1100 C1098 1.391 . S
C1100 C1101 1.400 . S
C1101 C1095 1.491 . S
C1101 C1100 1.400 . S
C1101 C1102 1.398 . S
C1102 H1090 0.950 . S
C1102 C1101 1.398 . S
C1102 C1103 1.391 . S
C1103 H1091 0.950 . S
C1103 C1099 1.393 . S
C1103 C1102 1.391 . S
H1104 C1112 0.950 . S
H1105 C1117 0.950 . S
H1106 C1114 0.950 . S
H1107 C1116 0.950 . S
H1108 C1118 0.950 . S
H1109 C1120 0.950 . S
H1110 C1122 0.950 . S
H1111 C1123 0.950 . S
C1112 H1104 0.950 . S
C1112 C1113 1.386 . S
C1112 C1114 1.391 . S
C1113 C1112 1.386 . S
C1113 C1117 1.393 . S
C1114 H1106 0.950 . S
C1114 C1112 1.391 . S
C1114 C1115 1.400 . S
C1115 C1114 1.400 . S
C1115 C1116 1.398 . S
C1115 C1121 1.491 . S
C1116 H1107 0.950 . S
C1116 C1115 1.398 . S
C1116 C1117 1.391 . S
C1117 H1105 0.950 . S
C1117 C1113 1.393 . S
C1117 C1116 1.391 . S
C1118 H1108 0.950 . S
C1118 C1119 1.386 . S
C1118 C1120 1.391 . S
C1119 C1118 1.386 . S
C1119 C1123 1.393 . S
C1120 H1109 0.950 . S
C1120 C1118 1.391 . S
C1120 C1121 1.400 . S
C1121 C1115 1.491 . S
C1121 C1120 1.400 . S
C1121 C1122 1.398 . S
C1122 H1110 0.950 . S
C1122 C1121 1.398 . S
C1122 C1123 1.391 . S
C1123 H1111 0.950 . S
C1123 C1119 1.393 . S
C1123 C1122 1.391 . S
H1124 C1132 0.950 . S
H1125 C1137 0.950 . S
H1126 C1134 0.950 . S
H1127 C1136 0.950 . S
H1128 C1138 0.950 . S
H1129 C1140 0.950 . S
H1130 C1142 0.950 . S
H1131 C1143 0.950 . S
C1132 H1124 0.950 . S
C1132 C1133 1.386 . S
C1132 C1134 1.391 . S
C1133 C1132 1.386 . S
C1133 C1137 1.393 . S
C1134 H1126 0.950 . S
C1134 C1132 1.391 . S
C1134 C1135 1.400 . S
C1135 C1134 1.400 . S
C1135 C1136 1.398 . S
C1135 C1141 1.491 . S
C1136 H1127 0.950 . S
C1136 C1135 1.398 . S
C1136 C1137 1.391 . S
C1137 H1125 0.950 . S
C1137 C1133 1.393 . S
C1137 C1136 1.391 . S
C1138 H1128 0.950 . S
C1138 C1139 1.386 . S
C1138 C1140 1.391 . S
C1139 C1138 1.386 . S
C1139 C1143 1.393 . S
C1140 H1129 0.950 . S
C1140 C1138 1.391 . S
C1140 C1141 1.400 . S
C1141 C1135 1.491 . S
C1141 C1140 1.400 . S
C1141 C1142 1.398 . S
C1142 H1130 0.950 . S
C1142 C1141 1.398 . S
C1142 C1143 1.391 . S
C1143 H1131 0.950 . S
C1143 C1139 1.393 . S
C1143 C1142 1.391 . S
H1144 C1152 0.950 . S
H1145 C1157 0.950 . S
H1146 C1154 0.950 . S
H1147 C1156 0.950 . S
H1148 C1158 0.950 . S
H1149 C1160 0.950 . S
H1150 C1162 0.950 . S
H1151 C1163 0.950 . S
C1152 H1144 0.950 . S
C1152 C1153 1.386 . S
C1152 C1154 1.391 . S
C1153 C1152 1.386 . S
C1153 C1157 1.393 . S
C1154 H1146 0.950 . S
C1154 C1152 1.391 . S
C1154 C1155 1.400 . S
C1155 C1154 1.400 . S
C1155 C1156 1.398 . S
C1155 C1161 1.491 . S
C1156 H1147 0.950 . S
C1156 C1155 1.398 . S
C1156 C1157 1.391 . S
C1157 H1145 0.950 . S
C1157 C1153 1.393 . S
C1157 C1156 1.391 . S
C1158 H1148 0.950 . S
C1158 C1159 1.386 . S
C1158 C1160 1.391 . S
C1159 C1158 1.386 . S
C1159 C1163 1.393 . S
C1160 H1149 0.950 . S
C1160 C1158 1.391 . S
C1160 C1161 1.400 . S
C1161 C1155 1.491 . S
C1161 C1160 1.400 . S
C1161 C1162 1.398 . S
C1162 H1150 0.950 . S
C1162 C1161 1.398 . S
C1162 C1163 1.391 . S
C1163 H1151 0.950 . S
C1163 C1159 1.393 . S
C1163 C1162 1.391 . S
H1164 C1172 0.950 . S
H1165 C1177 0.950 . S
H1166 C1174 0.950 . S
H1167 C1176 0.950 . S
H1168 C1178 0.950 1_554 S
H1169 C1180 0.950 . S
H1170 C1182 0.950 . S
H1171 C1183 0.950 . S
C1172 H1164 0.950 . S
C1172 C1173 1.386 . S
C1172 C1174 1.391 . S
C1173 C1172 1.386 . S
C1173 C1177 1.393 . S
C1174 H1166 0.950 . S
C1174 C1172 1.391 . S
C1174 C1175 1.400 . S
C1175 C1174 1.400 . S
C1175 C1176 1.398 . S
C1175 C1181 1.491 . S
C1176 H1167 0.950 . S
C1176 C1175 1.398 . S
C1176 C1177 1.391 . S
C1177 H1165 0.950 . S
C1177 C1173 1.393 . S
C1177 C1176 1.391 . S
C1178 H1168 0.950 1_556 S
C1178 C1179 1.386 1_556 S
C1178 C1180 1.391 . S
C1179 C1178 1.386 1_554 S
C1179 C1183 1.393 1_554 S
C1180 H1169 0.950 . S
C1180 C1178 1.391 . S
C1180 C1181 1.400 . S
C1181 C1175 1.491 . S
C1181 C1180 1.400 . S
C1181 C1182 1.398 . S
C1182 H1170 0.950 . S
C1182 C1181 1.398 . S
C1182 C1183 1.391 . S
C1183 H1171 0.950 . S
C1183 C1179 1.393 1_556 S
C1183 C1182 1.391 . S
H1184 C1192 0.950 1_554 S
H1185 C1197 0.950 . S
H1186 C1194 0.950 . S
H1187 C1196 0.950 . S
H1188 C1198 0.950 . S
H1189 C1200 0.950 . S
H1190 C1202 0.950 . S
H1191 C1203 0.950 . S
C1192 H1184 0.950 1_556 S
C1192 C1193 1.386 1_556 S
C1192 C1194 1.391 . S
C1193 C1192 1.386 1_554 S
C1193 C1197 1.393 1_554 S
C1194 H1186 0.950 . S
C1194 C1192 1.391 . S
C1194 C1195 1.400 . S
C1195 C1194 1.400 . S
C1195 C1196 1.398 . S
C1195 C1201 1.491 . S
C1196 H1187 0.950 . S
C1196 C1195 1.398 . S
C1196 C1197 1.391 . S
C1197 H1185 0.950 . S
C1197 C1193 1.393 1_556 S
C1197 C1196 1.391 . S
C1198 H1188 0.950 . S
C1198 C1199 1.386 . S
C1198 C1200 1.391 . S
C1199 C1198 1.386 . S
C1199 C1203 1.393 . S
C1200 H1189 0.950 . S
C1200 C1198 1.391 . S
C1200 C1201 1.400 . S
C1201 C1195 1.491 . S
C1201 C1200 1.400 . S
C1201 C1202 1.398 . S
C1202 H1190 0.950 . S
C1202 C1201 1.398 . S
C1202 C1203 1.391 . S
C1203 H1191 0.950 . S
C1203 C1199 1.393 . S
C1203 C1202 1.391 . S
H1204 C1212 0.950 . S
H1205 C1217 0.950 . S
H1206 C1214 0.950 . S
H1207 C1216 0.950 . S
H1208 C1218 0.950 . S
H1209 C1220 0.950 . S
H1210 C1222 0.950 . S
H1211 C1223 0.950 . S
C1212 H1204 0.950 . S
C1212 C1213 1.386 . S
C1212 C1214 1.391 . S
C1213 C1212 1.386 . S
C1213 C1217 1.393 . S
C1214 H1206 0.950 . S
C1214 C1212 1.391 . S
C1214 C1215 1.400 . S
C1215 C1214 1.400 . S
C1215 C1216 1.398 . S
C1215 C1221 1.491 . S
C1216 H1207 0.950 . S
C1216 C1215 1.398 . S
C1216 C1217 1.391 . S
C1217 H1205 0.950 . S
C1217 C1213 1.393 . S
C1217 C1216 1.391 . S
C1218 H1208 0.950 . S
C1218 C1219 1.386 1_556 S
C1218 C1220 1.391 . S
C1219 C1218 1.386 1_554 S
C1219 C1223 1.393 . S
C1220 H1209 0.950 . S
C1220 C1218 1.391 . S
C1220 C1221 1.400 . S
C1221 C1215 1.491 . S
C1221 C1220 1.400 . S
C1221 C1222 1.398 . S
C1222 H1210 0.950 . S
C1222 C1221 1.398 . S
C1222 C1223 1.391 1_556 S
C1223 H1211 0.950 . S
C1223 C1219 1.393 . S
C1223 C1222 1.391 1_554 S
H1224 C1232 0.950 . S
H1225 C1237 0.950 . S
H1226 C1234 0.950 . S
H1227 C1236 0.950 . S
H1228 C1238 0.950 . S
H1229 C1240 0.950 . S
H1230 C1242 0.950 . S
H1231 C1243 0.950 . S
C1232 H1224 0.950 . S
C1232 C1233 1.386 . S
C1232 C1234 1.391 . S
C1233 C1232 1.386 . S
C1233 C1237 1.393 . S
C1234 H1226 0.950 . S
C1234 C1232 1.391 . S
C1234 C1235 1.400 . S
C1235 C1234 1.400 . S
C1235 C1236 1.398 . S
C1235 C1241 1.491 . S
C1236 H1227 0.950 . S
C1236 C1235 1.398 . S
C1236 C1237 1.391 . S
C1237 H1225 0.950 . S
C1237 C1233 1.393 . S
C1237 C1236 1.391 . S
C1238 H1228 0.950 . S
C1238 C1239 1.386 . S
C1238 C1240 1.391 . S
C1239 C1238 1.386 . S
C1239 C1243 1.393 . S
C1240 H1229 0.950 . S
C1240 C1238 1.391 . S
C1240 C1241 1.400 . S
C1241 C1235 1.491 . S
C1241 C1240 1.400 . S
C1241 C1242 1.398 . S
C1242 H1230 0.950 . S
C1242 C1241 1.398 . S
C1242 C1243 1.391 . S
C1243 H1231 0.950 . S
C1243 C1239 1.393 . S
C1243 C1242 1.391 . S
H1244 C1252 0.950 . S
H1245 C1257 0.950 . S
H1246 C1254 0.950 . S
H1247 C1256 0.950 . S
H1248 C1258 0.950 . S
H1249 C1260 0.950 . S
H1250 C1262 0.950 . S
H1251 C1263 0.950 . S
C1252 H1244 0.950 . S
C1252 C1253 1.386 . S
C1252 C1254 1.391 . S
C1253 C1252 1.386 . S
C1253 C1257 1.393 . S
C1254 H1246 0.950 . S
C1254 C1252 1.391 . S
C1254 C1255 1.400 . S
C1255 C1254 1.400 . S
C1255 C1256 1.398 . S
C1255 C1261 1.491 . S
C1256 H1247 0.950 . S
C1256 C1255 1.398 . S
C1256 C1257 1.391 . S
C1257 H1245 0.950 . S
C1257 C1253 1.393 . S
C1257 C1256 1.391 . S
C1258 H1248 0.950 . S
C1258 C1259 1.386 . S
C1258 C1260 1.391 . S
C1259 C1258 1.386 . S
C1259 C1263 1.393 . S
C1260 H1249 0.950 . S
C1260 C1258 1.391 . S
C1260 C1261 1.400 . S
C1261 C1255 1.491 . S
C1261 C1260 1.400 . S
C1261 C1262 1.398 . S
C1262 H1250 0.950 . S
C1262 C1261 1.398 . S
C1262 C1263 1.391 . S
C1263 H1251 0.950 . S
C1263 C1259 1.393 . S
C1263 C1262 1.391 . S
H1264 C1272 0.950 . S
H1265 C1277 0.950 . S
H1266 C1274 0.950 . S
H1267 C1276 0.950 . S
H1268 C1278 0.950 . S
H1269 C1280 0.950 . S
H1270 C1282 0.950 . S
H1271 C1283 0.950 . S
C1272 H1264 0.950 . S
C1272 C1273 1.386 . S
C1272 C1274 1.391 . S
C1273 C1272 1.386 . S
C1273 C1277 1.393 . S
C1274 H1266 0.950 . S
C1274 C1272 1.391 . S
C1274 C1275 1.400 . S
C1275 C1274 1.400 . S
C1275 C1276 1.398 . S
C1275 C1281 1.491 . S
C1276 H1267 0.950 . S
C1276 C1275 1.398 . S
C1276 C1277 1.391 . S
C1277 H1265 0.950 . S
C1277 C1273 1.393 . S
C1277 C1276 1.391 . S
C1278 H1268 0.950 . S
C1278 C1279 1.386 . S
C1278 C1280 1.391 . S
C1279 C1278 1.386 . S
C1279 C1283 1.393 . S
C1280 H1269 0.950 . S
C1280 C1278 1.391 . S
C1280 C1281 1.400 . S
C1281 C1275 1.491 . S
C1281 C1280 1.400 . S
C1281 C1282 1.398 . S
C1282 H1270 0.950 . S
C1282 C1281 1.398 . S
C1282 C1283 1.391 . S
C1283 H1271 0.950 . S
C1283 C1279 1.393 . S
C1283 C1282 1.391 . S
H1284 C1292 0.950 . S
H1285 C1297 0.950 . S
H1286 C1294 0.950 . S
H1287 C1296 0.950 . S
H1288 C1298 0.950 . S
H1289 C1300 0.950 . S
H1290 C1302 0.950 . S
H1291 C1303 0.950 . S
C1292 H1284 0.950 . S
C1292 C1293 1.386 . S
C1292 C1294 1.391 . S
C1293 C1292 1.386 . S
C1293 C1297 1.393 . S
C1294 H1286 0.950 . S
C1294 C1292 1.391 . S
C1294 C1295 1.400 . S
C1295 C1294 1.400 . S
C1295 C1296 1.398 . S
C1295 C1301 1.491 . S
C1296 H1287 0.950 . S
C1296 C1295 1.398 . S
C1296 C1297 1.391 . S
C1297 H1285 0.950 . S
C1297 C1293 1.393 . S
C1297 C1296 1.391 . S
C1298 H1288 0.950 . S
C1298 C1299 1.386 . S
C1298 C1300 1.391 . S
C1299 C1298 1.386 . S
C1299 C1303 1.393 . S
C1300 H1289 0.950 . S
C1300 C1298 1.391 . S
C1300 C1301 1.400 . S
C1301 C1295 1.491 . S
C1301 C1300 1.400 . S
C1301 C1302 1.398 . S
C1302 H1290 0.950 . S
C1302 C1301 1.398 . S
C1302 C1303 1.391 . S
C1303 H1291 0.950 . S
C1303 C1299 1.393 . S
C1303 C1302 1.391 . S
H1304 C1312 0.950 . S
H1305 C1317 0.950 . S
H1306 C1314 0.950 . S
H1307 C1316 0.950 . S
H1308 C1318 0.950 . S
H1309 C1320 0.950 . S
H1310 C1322 0.950 . S
H1311 C1323 0.950 . S
C1312 H1304 0.950 . S
C1312 C1313 1.386 . S
C1312 C1314 1.391 . S
C1313 C1312 1.386 . S
C1313 C1317 1.393 . S
C1314 H1306 0.950 . S
C1314 C1312 1.391 . S
C1314 C1315 1.400 . S
C1315 C1314 1.400 . S
C1315 C1316 1.398 . S
C1315 C1321 1.491 . S
C1316 H1307 0.950 . S
C1316 C1315 1.398 . S
C1316 C1317 1.391 . S
C1317 H1305 0.950 . S
C1317 C1313 1.393 . S
C1317 C1316 1.391 . S
C1318 H1308 0.950 . S
C1318 C1319 1.386 . S
C1318 C1320 1.391 . S
C1319 C1318 1.386 . S
C1319 C1323 1.393 . S
C1320 H1309 0.950 . S
C1320 C1318 1.391 . S
C1320 C1321 1.400 . S
C1321 C1315 1.491 . S
C1321 C1320 1.400 . S
C1321 C1322 1.398 . S
C1322 H1310 0.950 . S
C1322 C1321 1.398 . S
C1322 C1323 1.391 . S
C1323 H1311 0.950 . S
C1323 C1319 1.393 . S
C1323 C1322 1.391 . S
H1324 C1332 0.950 . S
H1325 C1337 0.950 . S
H1326 C1334 0.950 . S
H1327 C1336 0.950 . S
H1328 C1338 0.950 . S
H1329 C1340 0.950 . S
H1330 C1342 0.950 . S
H1331 C1343 0.950 . S
C1332 H1324 0.950 . S
C1332 C1333 1.386 . S
C1332 C1334 1.391 . S
C1333 C1332 1.386 . S
C1333 C1337 1.393 . S
C1334 H1326 0.950 . S
C1334 C1332 1.391 . S
C1334 C1335 1.400 . S
C1335 C1334 1.400 . S
C1335 C1336 1.398 . S
C1335 C1341 1.491 . S
C1336 H1327 0.950 . S
C1336 C1335 1.398 . S
C1336 C1337 1.391 . S
C1337 H1325 0.950 . S
C1337 C1333 1.393 . S
C1337 C1336 1.391 . S
C1338 H1328 0.950 . S
C1338 C1339 1.386 . S
C1338 C1340 1.391 . S
C1339 C1338 1.386 . S
C1339 C1343 1.393 . S
C1340 H1329 0.950 . S
C1340 C1338 1.391 . S
C1340 C1341 1.400 . S
C1341 C1335 1.491 . S
C1341 C1340 1.400 . S
C1341 C1342 1.398 . S
C1342 H1330 0.950 . S
C1342 C1341 1.398 . S
C1342 C1343 1.391 . S
C1343 H1331 0.950 . S
C1343 C1339 1.393 . S
C1343 C1342 1.391 . S
H1344 C1352 0.950 . S
H1345 C1357 0.950 . S
H1346 C1354 0.950 . S
H1347 C1356 0.950 . S
H1348 C1358 0.950 . S
H1349 C1360 0.950 . S
H1350 C1362 0.950 . S
H1351 C1363 0.950 . S
C1352 H1344 0.950 . S
C1352 C1353 1.386 . S
C1352 C1354 1.391 . S
C1353 C1352 1.386 . S
C1353 C1357 1.393 . S
C1354 H1346 0.950 . S
C1354 C1352 1.391 . S
C1354 C1355 1.400 . S
C1355 C1354 1.400 . S
C1355 C1356 1.398 . S
C1355 C1361 1.491 . S
C1356 H1347 0.950 . S
C1356 C1355 1.398 . S
C1356 C1357 1.391 . S
C1357 H1345 0.950 . S
C1357 C1353 1.393 . S
C1357 C1356 1.391 . S
C1358 H1348 0.950 . S
C1358 C1359 1.386 . S
C1358 C1360 1.391 . S
C1359 C1358 1.386 . S
C1359 C1363 1.393 . S
C1360 H1349 0.950 . S
C1360 C1358 1.391 . S
C1360 C1361 1.400 . S
C1361 C1355 1.491 . S
C1361 C1360 1.400 . S
C1361 C1362 1.398 . S
C1362 H1350 0.950 . S
C1362 C1361 1.398 . S
C1362 C1363 1.391 . S
C1363 H1351 0.950 . S
C1363 C1359 1.393 . S
C1363 C1362 1.391 . S
H1364 C1372 0.950 . S
H1365 C1377 0.950 . S
H1366 C1374 0.950 . S
H1367 C1376 0.950 . S
H1368 C1378 0.950 . S
H1369 C1380 0.950 . S
H1370 C1382 0.950 . S
H1371 C1383 0.950 . S
C1372 H1364 0.950 . S
C1372 C1373 1.386 . S
C1372 C1374 1.391 . S
C1373 C1372 1.386 . S
C1373 C1377 1.393 . S
C1374 H1366 0.950 . S
C1374 C1372 1.391 . S
C1374 C1375 1.400 . S
C1375 C1374 1.400 . S
C1375 C1376 1.398 . S
C1375 C1381 1.491 . S
C1376 H1367 0.950 . S
C1376 C1375 1.398 . S
C1376 C1377 1.391 . S
C1377 H1365 0.950 . S
C1377 C1373 1.393 . S
C1377 C1376 1.391 . S
C1378 H1368 0.950 . S
C1378 C1379 1.386 . S
C1378 C1380 1.391 . S
C1379 C1378 1.386 . S
C1379 C1383 1.393 . S
C1380 H1369 0.950 . S
C1380 C1378 1.391 . S
C1380 C1381 1.400 . S
C1381 C1375 1.491 . S
C1381 C1380 1.400 . S
C1381 C1382 1.398 . S
C1382 H1370 0.950 . S
C1382 C1381 1.398 . S
C1382 C1383 1.391 . S
C1383 H1371 0.950 . S
C1383 C1379 1.393 . S
C1383 C1382 1.391 . S
H1384 C1392 0.950 . S
H1385 C1397 0.950 . S
H1386 C1394 0.950 . S
H1387 C1396 0.950 . S
H1388 C1398 0.950 . S
H1389 C1400 0.950 . S
H1390 C1402 0.950 . S
H1391 C1403 0.950 . S
C1392 H1384 0.950 . S
C1392 C1393 1.386 . S
C1392 C1394 1.391 . S
C1393 C1392 1.386 . S
C1393 C1397 1.393 . S
C1394 H1386 0.950 . S
C1394 C1392 1.391 . S
C1394 C1395 1.400 . S
C1395 C1394 1.400 . S
C1395 C1396 1.398 . S
C1395 C1401 1.491 . S
C1396 H1387 0.950 . S
C1396 C1395 1.398 . S
C1396 C1397 1.391 . S
C1397 H1385 0.950 . S
C1397 C1393 1.393 . S
C1397 C1396 1.391 . S
C1398 H1388 0.950 . S
C1398 C1399 1.386 . S
C1398 C1400 1.391 . S
C1399 C1398 1.386 . S
C1399 C1403 1.393 . S
C1400 H1389 0.950 . S
C1400 C1398 1.391 . S
C1400 C1401 1.400 . S
C1401 C1395 1.491 . S
C1401 C1400 1.400 . S
C1401 C1402 1.398 . S
C1402 H1390 0.950 . S
C1402 C1401 1.398 . S
C1402 C1403 1.391 . S
C1403 H1391 0.950 . S
C1403 C1399 1.393 . S
C1403 C1402 1.391 . S
H1404 C1412 0.950 . S
H1405 C1417 0.950 . S
H1406 C1414 0.950 . S
H1407 C1416 0.950 . S
H1408 C1418 0.950 . S
H1409 C1420 0.950 . S
H1410 C1422 0.950 . S
H1411 C1423 0.950 . S
C1412 H1404 0.950 . S
C1412 C1413 1.386 . S
C1412 C1414 1.391 . S
C1413 C1412 1.386 . S
C1413 C1417 1.393 . S
C1414 H1406 0.950 . S
C1414 C1412 1.391 . S
C1414 C1415 1.400 . S
C1415 C1414 1.400 . S
C1415 C1416 1.398 . S
C1415 C1421 1.491 . S
C1416 H1407 0.950 . S
C1416 C1415 1.398 . S
C1416 C1417 1.391 . S
C1417 H1405 0.950 . S
C1417 C1413 1.393 . S
C1417 C1416 1.391 . S
C1418 H1408 0.950 . S
C1418 C1419 1.386 . S
C1418 C1420 1.391 . S
C1419 C1418 1.386 . S
C1419 C1423 1.393 . S
C1420 H1409 0.950 . S
C1420 C1418 1.391 . S
C1420 C1421 1.400 . S
C1421 C1415 1.491 . S
C1421 C1420 1.400 . S
C1421 C1422 1.398 . S
C1422 H1410 0.950 . S
C1422 C1421 1.398 . S
C1422 C1423 1.391 . S
C1423 H1411 0.950 . S
C1423 C1419 1.393 . S
C1423 C1422 1.391 . S
H1424 C1432 0.950 . S
H1425 C1437 0.950 . S
H1426 C1434 0.950 . S
H1427 C1436 0.950 . S
H1428 C1438 0.950 . S
H1429 C1440 0.950 . S
H1430 C1442 0.950 . S
H1431 C1443 0.950 . S
C1432 H1424 0.950 . S
C1432 C1433 1.386 . S
C1432 C1434 1.391 . S
C1433 C1432 1.386 . S
C1433 C1437 1.393 . S
C1434 H1426 0.950 . S
C1434 C1432 1.391 . S
C1434 C1435 1.400 . S
C1435 C1434 1.400 . S
C1435 C1436 1.398 . S
C1435 C1441 1.491 . S
C1436 H1427 0.950 . S
C1436 C1435 1.398 . S
C1436 C1437 1.391 . S
C1437 H1425 0.950 . S
C1437 C1433 1.393 . S
C1437 C1436 1.391 . S
C1438 H1428 0.950 . S
C1438 C1439 1.386 . S
C1438 C1440 1.391 . S
C1439 C1438 1.386 . S
C1439 C1443 1.393 . S
C1440 H1429 0.950 . S
C1440 C1438 1.391 . S
C1440 C1441 1.400 . S
C1441 C1435 1.491 . S
C1441 C1440 1.400 . S
C1441 C1442 1.398 . S
C1442 H1430 0.950 . S
C1442 C1441 1.398 . S
C1442 C1443 1.391 . S
C1443 H1431 0.950 . S
C1443 C1439 1.393 . S
C1443 C1442 1.391 . S
H1444 C1452 0.950 . S
H1445 C1457 0.950 . S
H1446 C1454 0.950 . S
H1447 C1456 0.950 . S
H1448 C1458 0.950 . S
H1449 C1460 0.950 . S
H1450 C1462 0.950 . S
H1451 C1463 0.950 . S
C1452 H1444 0.950 . S
C1452 C1453 1.386 . S
C1452 C1454 1.391 . S
C1453 C1452 1.386 . S
C1453 C1457 1.393 . S
C1454 H1446 0.950 . S
C1454 C1452 1.391 . S
C1454 C1455 1.400 . S
C1455 C1454 1.400 . S
C1455 C1456 1.398 . S
C1455 C1461 1.491 . S
C1456 H1447 0.950 . S
C1456 C1455 1.398 . S
C1456 C1457 1.391 . S
C1457 H1445 0.950 . S
C1457 C1453 1.393 . S
C1457 C1456 1.391 . S
C1458 H1448 0.950 . S
C1458 C1459 1.386 . S
C1458 C1460 1.391 . S
C1459 C1458 1.386 . S
C1459 C1463 1.393 . S
C1460 H1449 0.950 . S
C1460 C1458 1.391 . S
C1460 C1461 1.400 . S
C1461 C1455 1.491 . S
C1461 C1460 1.400 . S
C1461 C1462 1.398 . S
C1462 H1450 0.950 . S
C1462 C1461 1.398 . S
C1462 C1463 1.391 . S
C1463 H1451 0.950 . S
C1463 C1459 1.393 . S
C1463 C1462 1.391 . S
H1464 C1472 0.950 . S
H1465 C1477 0.950 . S
H1466 C1474 0.950 . S
H1467 C1476 0.950 . S
H1468 C1478 0.950 . S
H1469 C1480 0.950 . S
H1470 C1482 0.950 . S
H1471 C1483 0.950 . S
C1472 H1464 0.950 . S
C1472 C1473 1.386 . S
C1472 C1474 1.391 . S
C1473 C1472 1.386 . S
C1473 C1477 1.393 . S
C1474 H1466 0.950 . S
C1474 C1472 1.391 . S
C1474 C1475 1.400 . S
C1475 C1474 1.400 . S
C1475 C1476 1.398 . S
C1475 C1481 1.491 . S
C1476 H1467 0.950 . S
C1476 C1475 1.398 . S
C1476 C1477 1.391 . S
C1477 H1465 0.950 . S
C1477 C1473 1.393 . S
C1477 C1476 1.391 . S
C1478 H1468 0.950 . S
C1478 C1479 1.386 . S
C1478 C1480 1.391 . S
C1479 C1478 1.386 . S
C1479 C1483 1.393 . S
C1480 H1469 0.950 . S
C1480 C1478 1.391 . S
C1480 C1481 1.400 . S
C1481 C1475 1.491 . S
C1481 C1480 1.400 . S
C1481 C1482 1.398 . S
C1482 H1470 0.950 . S
C1482 C1481 1.398 . S
C1482 C1483 1.391 . S
C1483 H1471 0.950 . S
C1483 C1479 1.393 . S
C1483 C1482 1.391 . S
H1484 C1492 0.950 . S
H1485 C1497 0.950 . S
H1486 C1494 0.950 . S
H1487 C1496 0.950 . S
H1488 C1498 0.950 . S
H1489 C1500 0.950 . S
H1490 C1502 0.950 . S
H1491 C1503 0.950 . S
C1492 H1484 0.950 . S
C1492 C1493 1.386 . S
C1492 C1494 1.391 . S
C1493 C1492 1.386 . S
C1493 C1497 1.393 . S
C1494 H1486 0.950 . S
C1494 C1492 1.391 . S
C1494 C1495 1.400 . S
C1495 C1494 1.400 . S
C1495 C1496 1.398 . S
C1495 C1501 1.491 . S
C1496 H1487 0.950 . S
C1496 C1495 1.398 . S
C1496 C1497 1.391 . S
C1497 H1485 0.950 . S
C1497 C1493 1.393 . S
C1497 C1496 1.391 . S
C1498 H1488 0.950 . S
C1498 C1499 1.386 . S
C1498 C1500 1.391 . S
C1499 C1498 1.386 . S
C1499 C1503 1.393 . S
C1500 H1489 0.950 . S
C1500 C1498 1.391 . S
C1500 C1501 1.400 . S
C1501 C1495 1.491 . S
C1501 C1500 1.400 . S
C1501 C1502 1.398 . S
C1502 H1490 0.950 . S
C1502 C1501 1.398 . S
C1502 C1503 1.391 . S
C1503 H1491 0.950 . S
C1503 C1499 1.393 . S
C1503 C1502 1.391 . S
H1504 C1512 0.950 . S
H1505 C1517 0.950 . S
H1506 C1514 0.950 . S
H1507 C1516 0.950 . S
H1508 C1518 0.950 . S
H1509 C1520 0.950 . S
H1510 C1522 0.950 . S
H1511 C1523 0.950 . S
C1512 H1504 0.950 . S
C1512 C1513 1.386 . S
C1512 C1514 1.391 . S
C1513 C1512 1.386 . S
C1513 C1517 1.393 . S
C1514 H1506 0.950 . S
C1514 C1512 1.391 . S
C1514 C1515 1.400 . S
C1515 C1514 1.400 . S
C1515 C1516 1.398 . S
C1515 C1521 1.491 . S
C1516 H1507 0.950 . S
C1516 C1515 1.398 . S
C1516 C1517 1.391 . S
C1517 H1505 0.950 . S
C1517 C1513 1.393 . S
C1517 C1516 1.391 . S
C1518 H1508 0.950 . S
C1518 C1519 1.386 . S
C1518 C1520 1.391 . S
C1519 C1518 1.386 . S
C1519 C1523 1.393 . S
C1520 H1509 0.950 . S
C1520 C1518 1.391 . S
C1520 C1521 1.400 . S
C1521 C1515 1.491 . S
C1521 C1520 1.400 . S
C1521 C1522 1.398 . S
C1522 H1510 0.950 . S
C1522 C1521 1.398 . S
C1522 C1523 1.391 . S
C1523 H1511 0.950 . S
C1523 C1519 1.393 . S
C1523 C1522 1.391 . S
H1524 C1532 0.950 . S
H1525 C1537 0.950 . S
H1526 C1534 0.950 . S
H1527 C1536 0.950 . S
H1528 C1538 0.950 . S
H1529 C1540 0.950 . S
H1530 C1542 0.950 . S
H1531 C1543 0.950 . S
C1532 H1524 0.950 . S
C1532 C1533 1.386 1_554 S
C1532 C1534 1.391 . S
C1533 C1532 1.386 1_556 S
C1533 C1537 1.393 . S
C1534 H1526 0.950 . S
C1534 C1532 1.391 . S
C1534 C1535 1.400 . S
C1535 C1534 1.400 . S
C1535 C1536 1.398 . S
C1535 C1541 1.491 . S
C1536 H1527 0.950 . S
C1536 C1535 1.398 . S
C1536 C1537 1.391 1_554 S
C1537 H1525 0.950 . S
C1537 C1533 1.393 . S
C1537 C1536 1.391 1_556 S
C1538 H1528 0.950 . S
C1538 C1539 1.386 . S
C1538 C1540 1.391 . S
C1539 C1538 1.386 . S
C1539 C1543 1.393 . S
C1540 H1529 0.950 . S
C1540 C1538 1.391 . S
C1540 C1541 1.400 . S
C1541 C1535 1.491 . S
C1541 C1540 1.400 . S
C1541 C1542 1.398 . S
C1542 H1530 0.950 . S
C1542 C1541 1.398 . S
C1542 C1543 1.391 . S
C1543 H1531 0.950 . S
C1543 C1539 1.393 . S
C1543 C1542 1.391 . S
H1544 C1552 0.950 . S
H1545 C1557 0.950 . S
H1546 C1554 0.950 . S
H1547 C1556 0.950 . S
H1548 C1558 0.950 . S
H1549 C1560 0.950 . S
H1550 C1562 0.950 . S
H1551 C1563 0.950 . S
C1552 H1544 0.950 . S
C1552 C1553 1.386 . S
C1552 C1554 1.391 1_556 S
C1553 C1552 1.386 . S
C1553 C1557 1.393 1_556 S
C1554 H1546 0.950 . S
C1554 C1552 1.391 1_554 S
C1554 C1555 1.400 . S
C1555 C1554 1.400 . S
C1555 C1556 1.398 . S
C1555 C1561 1.491 . S
C1556 H1547 0.950 . S
C1556 C1555 1.398 . S
C1556 C1557 1.391 . S
C1557 H1545 0.950 . S
C1557 C1553 1.393 1_554 S
C1557 C1556 1.391 . S
C1558 H1548 0.950 . S
C1558 C1559 1.386 . S
C1558 C1560 1.391 . S
C1559 C1558 1.386 . S
C1559 C1563 1.393 . S
C1560 H1549 0.950 . S
C1560 C1558 1.391 . S
C1560 C1561 1.400 . S
C1561 C1555 1.491 . S
C1561 C1560 1.400 . S
C1561 C1562 1.398 . S
C1562 H1550 0.950 . S
C1562 C1561 1.398 . S
C1562 C1563 1.391 . S
C1563 H1551 0.950 . S
C1563 C1559 1.393 . S
C1563 C1562 1.391 . S
H1564 C1572 0.950 1_556 S
H1565 C1577 0.950 . S
H1566 C1574 0.950 . S
H1567 C1576 0.950 . S
H1568 C1578 0.950 . S
H1569 C1580 0.950 . S
H1570 C1582 0.950 . S
H1571 C1583 0.950 . S
C1572 H1564 0.950 1_554 S
C1572 C1573 1.386 1_554 S
C1572 C1574 1.391 . S
C1573 C1572 1.386 1_556 S
C1573 C1577 1.393 1_556 S
C1574 H1566 0.950 . S
C1574 C1572 1.391 . S
C1574 C1575 1.400 . S
C1575 C1574 1.400 . S
C1575 C1576 1.398 . S
C1575 C1581 1.491 . S
C1576 H1567 0.950 . S
C1576 C1575 1.398 . S
C1576 C1577 1.391 . S
C1577 H1565 0.950 . S
C1577 C1573 1.393 1_554 S
C1577 C1576 1.391 . S
C1578 H1568 0.950 . S
C1578 C1579 1.386 . S
C1578 C1580 1.391 . S
C1579 C1578 1.386 . S
C1579 C1583 1.393 . S
C1580 H1569 0.950 . S
C1580 C1578 1.391 . S
C1580 C1581 1.400 . S
C1581 C1575 1.491 . S
C1581 C1580 1.400 . S
C1581 C1582 1.398 . S
C1582 H1570 0.950 . S
C1582 C1581 1.398 . S
C1582 C1583 1.391 . S
C1583 H1571 0.950 . S
C1583 C1579 1.393 . S
C1583 C1582 1.391 . S
H1584 C1592 0.950 . S
H1585 C1597 0.950 . S
H1586 C1594 0.950 1_556 S
H1587 C1596 0.950 . S
H1588 C1598 0.950 . S
H1589 C1600 0.950 . S
H1590 C1602 0.950 . S
H1591 C1603 0.950 . S
C1592 H1584 0.950 . S
C1592 C1593 1.386 1_556 S
C1592 C1594 1.391 1_556 S
C1593 C1592 1.386 1_554 S
C1593 C1597 1.393 . S
C1594 H1586 0.950 1_554 S
C1594 C1592 1.391 1_554 S
C1594 C1595 1.400 . S
C1595 C1594 1.400 . S
C1595 C1596 1.398 . S
C1595 C1601 1.491 . S
C1596 H1587 0.950 . S
C1596 C1595 1.398 . S
C1596 C1597 1.391 . S
C1597 H1585 0.950 . S
C1597 C1593 1.393 . S
C1597 C1596 1.391 . S
C1598 H1588 0.950 . S
C1598 C1599 1.386 . S
C1598 C1600 1.391 . S
C1599 C1598 1.386 . S
C1599 C1603 1.393 . S
C1600 H1589 0.950 . S
C1600 C1598 1.391 . S
C1600 C1601 1.400 . S
C1601 C1595 1.491 . S
C1601 C1600 1.400 . S
C1601 C1602 1.398 . S
C1602 H1590 0.950 . S
C1602 C1601 1.398 . S
C1602 C1603 1.391 . S
C1603 H1591 0.950 . S
C1603 C1599 1.393 . S
C1603 C1602 1.391 . S
H1604 C1612 0.950 . S
H1605 C1617 0.950 . S
H1606 C1614 0.950 . S
H1607 C1616 0.950 . S
H1608 C1618 0.950 . S
H1609 C1620 0.950 . S
H1610 C1622 0.950 . S
H1611 C1623 0.950 . S
C1612 H1604 0.950 . S
C1612 C1613 1.386 . S
C1612 C1614 1.391 . S
C1613 C1612 1.386 . S
C1613 C1617 1.393 . S
C1614 H1606 0.950 . S
C1614 C1612 1.391 . S
C1614 C1615 1.400 . S
C1615 C1614 1.400 . S
C1615 C1616 1.398 . S
C1615 C1621 1.491 . S
C1616 H1607 0.950 . S
C1616 C1615 1.398 . S
C1616 C1617 1.391 . S
C1617 H1605 0.950 . S
C1617 C1613 1.393 . S
C1617 C1616 1.391 . S
C1618 H1608 0.950 . S
C1618 C1619 1.386 . S
C1618 C1620 1.391 . S
C1619 C1618 1.386 . S
C1619 C1623 1.393 . S
C1620 H1609 0.950 . S
C1620 C1618 1.391 . S
C1620 C1621 1.400 . S
C1621 C1615 1.491 . S
C1621 C1620 1.400 . S
C1621 C1622 1.398 . S
C1622 H1610 0.950 . S
C1622 C1621 1.398 . S
C1622 C1623 1.391 . S
C1623 H1611 0.950 . S
C1623 C1619 1.393 . S
C1623 C1622 1.391 . S
H1624 C1632 0.950 1_556 S
H1625 C1637 0.950 . S
H1626 C1634 0.950 . S
H1627 C1636 0.950 . S
H1628 C1638 0.950 . S
H1629 C1640 0.950 . S
H1630 C1642 0.950 . S
H1631 C1643 0.950 . S
C1632 H1624 0.950 1_554 S
C1632 C1633 1.386 . S
C1632 C1634 1.391 . S
C1633 C1632 1.386 . S
C1633 C1637 1.393 . S
C1634 H1626 0.950 . S
C1634 C1632 1.391 . S
C1634 C1635 1.400 . S
C1635 C1634 1.400 . S
C1635 C1636 1.398 . S
C1635 C1641 1.491 . S
C1636 H1627 0.950 . S
C1636 C1635 1.398 . S
C1636 C1637 1.391 . S
C1637 H1625 0.950 . S
C1637 C1633 1.393 . S
C1637 C1636 1.391 . S
C1638 H1628 0.950 . S
C1638 C1639 1.386 . S
C1638 C1640 1.391 . S
C1639 C1638 1.386 . S
C1639 C1643 1.393 . S
C1640 H1629 0.950 . S
C1640 C1638 1.391 . S
C1640 C1641 1.400 . S
C1641 C1635 1.491 . S
C1641 C1640 1.400 . S
C1641 C1642 1.398 . S
C1642 H1630 0.950 . S
C1642 C1641 1.398 . S
C1642 C1643 1.391 . S
C1643 H1631 0.950 . S
C1643 C1639 1.393 . S
C1643 C1642 1.391 . S
H1644 C1652 0.950 . S
H1645 C1657 0.950 . S
H1646 C1654 0.950 . S
H1647 C1656 0.950 . S
H1648 C1658 0.950 . S
H1649 C1660 0.950 . S
H1650 C1662 0.950 . S
H1651 C1663 0.950 . S
C1652 H1644 0.950 . S
C1652 C1653 1.386 . S
C1652 C1654 1.391 . S
C1653 C1652 1.386 . S
C1653 C1657 1.393 . S
C1654 H1646 0.950 . S
C1654 C1652 1.391 . S
C1654 C1655 1.400 . S
C1655 C1654 1.400 . S
C1655 C1656 1.398 . S
C1655 C1661 1.491 . S
C1656 H1647 0.950 . S
C1656 C1655 1.398 . S
C1656 C1657 1.391 . S
C1657 H1645 0.950 . S
C1657 C1653 1.393 . S
C1657 C1656 1.391 . S
C1658 H1648 0.950 . S
C1658 C1659 1.386 . S
C1658 C1660 1.391 . S
C1659 C1658 1.386 . S
C1659 C1663 1.393 . S
C1660 H1649 0.950 . S
C1660 C1658 1.391 . S
C1660 C1661 1.400 . S
C1661 C1655 1.491 . S
C1661 C1660 1.400 . S
C1661 C1662 1.398 . S
C1662 H1650 0.950 . S
C1662 C1661 1.398 . S
C1662 C1663 1.391 . S
C1663 H1651 0.950 . S
C1663 C1659 1.393 . S
C1663 C1662 1.391 . S
H1664 C1672 0.950 . S
H1665 C1677 0.950 . S
H1666 C1674 0.950 . S
H1667 C1676 0.950 . S
H1668 C1678 0.950 . S
H1669 C1680 0.950 . S
H1670 C1682 0.950 . S
H1671 C1683 0.950 . S
C1672 H1664 0.950 . S
C1672 C1673 1.386 . S
C1672 C1674 1.391 . S
C1673 C1672 1.386 . S
C1673 C1677 1.393 . S
C1674 H1666 0.950 . S
C1674 C1672 1.391 . S
C1674 C1675 1.400 . S
C1675 C1674 1.400 . S
C1675 C1676 1.398 . S
C1675 C1681 1.491 . S
C1676 H1667 0.950 . S
C1676 C1675 1.398 . S
C1676 C1677 1.391 . S
C1677 H1665 0.950 . S
C1677 C1673 1.393 . S
C1677 C1676 1.391 . S
C1678 H1668 0.950 . S
C1678 C1679 1.386 . S
C1678 C1680 1.391 . S
C1679 C1678 1.386 . S
C1679 C1683 1.393 . S
C1680 H1669 0.950 . S
C1680 C1678 1.391 . S
C1680 C1681 1.400 . S
C1681 C1675 1.491 . S
C1681 C1680 1.400 . S
C1681 C1682 1.398 . S
C1682 H1670 0.950 . S
C1682 C1681 1.398 . S
C1682 C1683 1.391 . S
C1683 H1671 0.950 . S
C1683 C1679 1.393 . S
C1683 C1682 1.391 . S
H1684 C1692 0.950 . S
H1685 C1697 0.950 . S
H1686 C1694 0.950 . S
H1687 C1696 0.950 . S
H1688 C1698 0.950 . S
H1689 C1700 0.950 . S
H1690 C1702 0.950 . S
H1691 C1703 0.950 . S
C1692 H1684 0.950 . S
C1692 C1693 1.386 . S
C1692 C1694 1.391 . S
C1693 C1692 1.386 . S
C1693 C1697 1.393 . S
C1694 H1686 0.950 . S
C1694 C1692 1.391 . S
C1694 C1695 1.400 . S
C1695 C1694 1.400 . S
C1695 C1696 1.398 . S
C1695 C1701 1.491 . S
C1696 H1687 0.950 . S
C1696 C1695 1.398 . S
C1696 C1697 1.391 . S
C1697 H1685 0.950 . S
C1697 C1693 1.393 . S
C1697 C1696 1.391 . S
C1698 H1688 0.950 . S
C1698 C1699 1.386 . S
C1698 C1700 1.391 . S
C1699 C1698 1.386 . S
C1699 C1703 1.393 . S
C1700 H1689 0.950 . S
C1700 C1698 1.391 . S
C1700 C1701 1.400 . S
C1701 C1695 1.491 . S
C1701 C1700 1.400 . S
C1701 C1702 1.398 . S
C1702 H1690 0.950 . S
C1702 C1701 1.398 . S
C1702 C1703 1.391 . S
C1703 H1691 0.950 . S
C1703 C1699 1.393 . S
C1703 C1702 1.391 . S
H1704 C1712 0.950 . S
H1705 C1717 0.950 . S
H1706 C1714 0.950 . S
H1707 C1716 0.950 . S
H1708 C1718 0.950 . S
H1709 C1720 0.950 1_554 S
H1710 C1722 0.950 . S
H1711 C1723 0.950 . S
C1712 H1704 0.950 . S
C1712 C1713 1.386 . S
C1712 C1714 1.391 . S
C1713 C1712 1.386 . S
C1713 C1717 1.393 . S
C1714 H1706 0.950 . S
C1714 C1712 1.391 . S
C1714 C1715 1.400 . S
C1715 C1714 1.400 . S
C1715 C1716 1.398 . S
C1715 C1721 1.491 . S
C1716 H1707 0.950 . S
C1716 C1715 1.398 . S
C1716 C1717 1.391 . S
C1717 H1705 0.950 . S
C1717 C1713 1.393 . S
C1717 C1716 1.391 . S
C1718 H1708 0.950 . S
C1718 C1719 1.386 1_554 S
C1718 C1720 1.391 1_554 S
C1719 C1718 1.386 1_556 S
C1719 C1723 1.393 . S
C1720 H1709 0.950 1_556 S
C1720 C1718 1.391 1_556 S
C1720 C1721 1.400 . S
C1721 C1715 1.491 . S
C1721 C1720 1.400 . S
C1721 C1722 1.398 . S
C1722 H1710 0.950 . S
C1722 C1721 1.398 . S
C1722 C1723 1.391 . S
C1723 H1711 0.950 . S
C1723 C1719 1.393 . S
C1723 C1722 1.391 . S
H1724 C1732 0.950 . S
H1725 C1737 0.950 . S
H1726 C1734 0.950 . S
H1727 C1736 0.950 . S
H1728 C1738 0.950 . S
H1729 C1740 0.950 . S
H1730 C1742 0.950 . S
H1731 C1743 0.950 . S
C1732 H1724 0.950 . S
C1732 C1733 1.386 . S
C1732 C1734 1.391 . S
C1733 C1732 1.386 . S
C1733 C1737 1.393 . S
C1734 H1726 0.950 . S
C1734 C1732 1.391 . S
C1734 C1735 1.400 . S
C1735 C1734 1.400 . S
C1735 C1736 1.398 . S
C1735 C1741 1.491 . S
C1736 H1727 0.950 . S
C1736 C1735 1.398 . S
C1736 C1737 1.391 . S
C1737 H1725 0.950 . S
C1737 C1733 1.393 . S
C1737 C1736 1.391 . S
C1738 H1728 0.950 . S
C1738 C1739 1.386 . S
C1738 C1740 1.391 . S
C1739 C1738 1.386 . S
C1739 C1743 1.393 . S
C1740 H1729 0.950 . S
C1740 C1738 1.391 . S
C1740 C1741 1.400 . S
C1741 C1735 1.491 . S
C1741 C1740 1.400 . S
C1741 C1742 1.398 . S
C1742 H1730 0.950 . S
C1742 C1741 1.398 . S
C1742 C1743 1.391 . S
C1743 H1731 0.950 . S
C1743 C1739 1.393 . S
C1743 C1742 1.391 . S
H1744 C1752 0.950 . S
H1745 C1757 0.950 . S
H1746 C1754 0.950 . S
H1747 C1756 0.950 . S
H1748 C1758 0.950 . S
H1749 C1760 0.950 . S
H1750 C1762 0.950 . S
H1751 C1763 0.950 . S
C1752 H1744 0.950 . S
C1752 C1753 1.386 . S
C1752 C1754 1.391 . S
C1753 C1752 1.386 . S
C1753 C1757 1.393 . S
C1754 H1746 0.950 . S
C1754 C1752 1.391 . S
C1754 C1755 1.400 . S
C1755 C1754 1.400 . S
C1755 C1756 1.398 . S
C1755 C1761 1.491 . S
C1756 H1747 0.950 . S
C1756 C1755 1.398 . S
C1756 C1757 1.391 . S
C1757 H1745 0.950 . S
C1757 C1753 1.393 . S
C1757 C1756 1.391 . S
C1758 H1748 0.950 . S
C1758 C1759 1.386 . S
C1758 C1760 1.391 . S
C1759 C1758 1.386 . S
C1759 C1763 1.393 . S
C1760 H1749 0.950 . S
C1760 C1758 1.391 . S
C1760 C1761 1.400 . S
C1761 C1755 1.491 . S
C1761 C1760 1.400 . S
C1761 C1762 1.398 . S
C1762 H1750 0.950 . S
C1762 C1761 1.398 . S
C1762 C1763 1.391 . S
C1763 H1751 0.950 . S
C1763 C1759 1.393 . S
C1763 C1762 1.391 . S
H1764 C1772 0.950 . S
H1765 C1777 0.950 . S
H1766 C1774 0.950 . S
H1767 C1776 0.950 . S
H1768 C1778 0.950 . S
H1769 C1780 0.950 . S
H1770 C1782 0.950 . S
H1771 C1783 0.950 . S
C1772 H1764 0.950 . S
C1772 C1773 1.386 . S
C1772 C1774 1.391 . S
C1773 C1772 1.386 . S
C1773 C1777 1.393 . S
C1774 H1766 0.950 . S
C1774 C1772 1.391 . S
C1774 C1775 1.400 . S
C1775 C1774 1.400 . S
C1775 C1776 1.398 . S
C1775 C1781 1.491 . S
C1776 H1767 0.950 . S
C1776 C1775 1.398 . S
C1776 C1777 1.391 . S
C1777 H1765 0.950 . S
C1777 C1773 1.393 . S
C1777 C1776 1.391 . S
C1778 H1768 0.950 . S
C1778 C1779 1.386 . S
C1778 C1780 1.391 . S
C1779 C1778 1.386 . S
C1779 C1783 1.393 . S
C1780 H1769 0.950 . S
C1780 C1778 1.391 . S
C1780 C1781 1.400 . S
C1781 C1775 1.491 . S
C1781 C1780 1.400 . S
C1781 C1782 1.398 . S
C1782 H1770 0.950 . S
C1782 C1781 1.398 . S
C1782 C1783 1.391 . S
C1783 H1771 0.950 . S
C1783 C1779 1.393 . S
C1783 C1782 1.391 . S
H1784 C1792 0.950 . S
H1785 C1797 0.950 . S
H1786 C1794 0.950 . S
H1787 C1796 0.950 . S
H1788 C1798 0.950 . S
H1789 C1800 0.950 . S
H1790 C1802 0.950 . S
H1791 C1803 0.950 . S
C1792 H1784 0.950 . S
C1792 C1793 1.386 . S
C1792 C1794 1.391 . S
C1793 C1792 1.386 . S
C1793 C1797 1.393 . S
C1794 H1786 0.950 . S
C1794 C1792 1.391 . S
C1794 C1795 1.400 . S
C1795 C1794 1.400 . S
C1795 C1796 1.398 . S
C1795 C1801 1.491 . S
C1796 H1787 0.950 . S
C1796 C1795 1.398 . S
C1796 C1797 1.391 . S
C1797 H1785 0.950 . S
C1797 C1793 1.393 . S
C1797 C1796 1.391 . S
C1798 H1788 0.950 . S
C1798 C1799 1.386 . S
C1798 C1800 1.391 . S
C1799 C1798 1.386 . S
C1799 C1803 1.393 . S
C1800 H1789 0.950 . S
C1800 C1798 1.391 . S
C1800 C1801 1.400 . S
C1801 C1795 1.491 . S
C1801 C1800 1.400 . S
C1801 C1802 1.398 . S
C1802 H1790 0.950 . S
C1802 C1801 1.398 . S
C1802 C1803 1.391 . S
C1803 H1791 0.950 . S
C1803 C1799 1.393 . S
C1803 C1802 1.391 . S
H1804 C1812 0.950 . S
H1805 C1817 0.950 . S
H1806 C1814 0.950 . S
H1807 C1816 0.950 . S
H1808 C1818 0.950 . S
H1809 C1820 0.950 . S
H1810 C1822 0.950 . S
H1811 C1823 0.950 . S
C1812 H1804 0.950 . S
C1812 C1813 1.386 . S
C1812 C1814 1.391 . S
C1813 C1812 1.386 . S
C1813 C1817 1.393 . S
C1814 H1806 0.950 . S
C1814 C1812 1.391 . S
C1814 C1815 1.400 . S
C1815 C1814 1.400 . S
C1815 C1816 1.398 . S
C1815 C1821 1.491 . S
C1816 H1807 0.950 . S
C1816 C1815 1.398 . S
C1816 C1817 1.391 . S
C1817 H1805 0.950 . S
C1817 C1813 1.393 . S
C1817 C1816 1.391 . S
C1818 H1808 0.950 . S
C1818 C1819 1.386 . S
C1818 C1820 1.391 . S
C1819 C1818 1.386 . S
C1819 C1823 1.393 . S
C1820 H1809 0.950 . S
C1820 C1818 1.391 . S
C1820 C1821 1.400 . S
C1821 C1815 1.491 . S
C1821 C1820 1.400 . S
C1821 C1822 1.398 . S
C1822 H1810 0.950 . S
C1822 C1821 1.398 . S
C1822 C1823 1.391 . S
C1823 H1811 0.950 . S
C1823 C1819 1.393 . S
C1823 C1822 1.391 . S
H1824 C1832 0.950 . S
H1825 C1837 0.950 . S
H1826 C1834 0.950 . S
H1827 C1836 0.950 . S
H1828 C1838 0.950 . S
H1829 C1840 0.950 . S
H1830 C1842 0.950 . S
H1831 C1843 0.950 . S
C1832 H1824 0.950 . S
C1832 C1833 1.386 . S
C1832 C1834 1.391 . S
C1833 C1832 1.386 . S
C1833 C1837 1.393 . S
C1834 H1826 0.950 . S
C1834 C1832 1.391 . S
C1834 C1835 1.400 . S
C1835 C1834 1.400 . S
C1835 C1836 1.398 . S
C1835 C1841 1.491 1_455 S
C1836 H1827 0.950 . S
C1836 C1835 1.398 . S
C1836 C1837 1.391 . S
C1837 H1825 0.950 . S
C1837 C1833 1.393 . S
C1837 C1836 1.391 . S
C1838 H1828 0.950 . S
C1838 C1839 1.386 . S
C1838 C1840 1.391 . S
C1839 C1838 1.386 . S
C1839 C1843 1.393 . S
C1840 H1829 0.950 . S
C1840 C1838 1.391 . S
C1840 C1841 1.400 . S
C1841 C1835 1.491 1_655 S
C1841 C1840 1.400 . S
C1841 C1842 1.398 . S
C1842 H1830 0.950 . S
C1842 C1841 1.398 . S
C1842 C1843 1.391 . S
C1843 H1831 0.950 . S
C1843 C1839 1.393 . S
C1843 C1842 1.391 . S
H1844 C1852 0.950 . S
H1845 C1857 0.950 . S
H1846 C1854 0.950 . S
H1847 C1856 0.950 . S
H1848 C1858 0.950 . S
H1849 C1860 0.950 . S
H1850 C1862 0.950 . S
H1851 C1863 0.950 . S
C1852 H1844 0.950 . S
C1852 C1853 1.386 . S
C1852 C1854 1.391 . S
C1853 C1852 1.386 . S
C1853 C1857 1.393 . S
C1854 H1846 0.950 . S
C1854 C1852 1.391 . S
C1854 C1855 1.400 . S
C1855 C1854 1.400 . S
C1855 C1856 1.398 . S
C1855 C1861 1.491 . S
C1856 H1847 0.950 . S
C1856 C1855 1.398 . S
C1856 C1857 1.391 . S
C1857 H1845 0.950 . S
C1857 C1853 1.393 . S
C1857 C1856 1.391 . S
C1858 H1848 0.950 . S
C1858 C1859 1.386 . S
C1858 C1860 1.391 . S
C1859 C1858 1.386 . S
C1859 C1863 1.393 . S
C1860 H1849 0.950 . S
C1860 C1858 1.391 . S
C1860 C1861 1.400 . S
C1861 C1855 1.491 . S
C1861 C1860 1.400 . S
C1861 C1862 1.398 . S
C1862 H1850 0.950 . S
C1862 C1861 1.398 . S
C1862 C1863 1.391 . S
C1863 H1851 0.950 . S
C1863 C1859 1.393 . S
C1863 C1862 1.391 . S
H1864 C1872 0.950 . S
H1865 C1877 0.950 . S
H1866 C1874 0.950 . S
H1867 C1876 0.950 . S
H1868 C1878 0.950 . S
H1869 C1880 0.950 . S
H1870 C1882 0.950 . S
H1871 C1883 0.950 . S
C1872 H1864 0.950 . S
C1872 C1873 1.386 . S
C1872 C1874 1.391 . S
C1873 C1872 1.386 . S
C1873 C1877 1.393 . S
C1874 H1866 0.950 . S
C1874 C1872 1.391 . S
C1874 C1875 1.400 . S
C1875 C1874 1.400 . S
C1875 C1876 1.398 . S
C1875 C1881 1.491 1_565 S
C1876 H1867 0.950 . S
C1876 C1875 1.398 . S
C1876 C1877 1.391 . S
C1877 H1865 0.950 . S
C1877 C1873 1.393 . S
C1877 C1876 1.391 . S
C1878 H1868 0.950 . S
C1878 C1879 1.386 . S
C1878 C1880 1.391 . S
C1879 C1878 1.386 . S
C1879 C1883 1.393 . S
C1880 H1869 0.950 . S
C1880 C1878 1.391 . S
C1880 C1881 1.400 . S
C1881 C1875 1.491 1_545 S
C1881 C1880 1.400 . S
C1881 C1882 1.398 . S
C1882 H1870 0.950 . S
C1882 C1881 1.398 . S
C1882 C1883 1.391 . S
C1883 H1871 0.950 . S
C1883 C1879 1.393 . S
C1883 C1882 1.391 . S
H1884 C1892 0.950 . S
H1885 C1897 0.950 . S
H1886 C1894 0.950 . S
H1887 C1896 0.950 . S
H1888 C1898 0.950 . S
H1889 C1900 0.950 . S
H1890 C1902 0.950 . S
H1891 C1903 0.950 . S
C1892 H1884 0.950 . S
C1892 C1893 1.386 . S
C1892 C1894 1.391 . S
C1893 C1892 1.386 . S
C1893 C1897 1.393 . S
C1894 H1886 0.950 . S
C1894 C1892 1.391 . S
C1894 C1895 1.400 . S
C1895 C1894 1.400 . S
C1895 C1896 1.398 . S
C1895 C1901 1.491 1_545 S
C1896 H1887 0.950 . S
C1896 C1895 1.398 . S
C1896 C1897 1.391 . S
C1897 H1885 0.950 . S
C1897 C1893 1.393 . S
C1897 C1896 1.391 . S
C1898 H1888 0.950 . S
C1898 C1899 1.386 . S
C1898 C1900 1.391 . S
C1899 C1898 1.386 . S
C1899 C1903 1.393 . S
C1900 H1889 0.950 . S
C1900 C1898 1.391 . S
C1900 C1901 1.400 . S
C1901 C1895 1.491 1_565 S
C1901 C1900 1.400 . S
C1901 C1902 1.398 . S
C1902 H1890 0.950 . S
C1902 C1901 1.398 . S
C1902 C1903 1.391 . S
C1903 H1891 0.950 . S
C1903 C1899 1.393 . S
C1903 C1902 1.391 . S
H1904 C1912 0.950 . S
H1905 C1917 0.950 . S
H1906 C1914 0.950 . S
H1907 C1916 0.950 . S
H1908 C1918 0.950 . S
H1909 C1920 0.950 . S
H1910 C1922 0.950 . S
H1911 C1923 0.950 . S
C1912 H1904 0.950 . S
C1912 C1913 1.386 . S
C1912 C1914 1.391 . S
C1913 C1912 1.386 . S
C1913 C1917 1.393 . S
C1914 H1906 0.950 . S
C1914 C1912 1.391 . S
C1914 C1915 1.400 . S
C1915 C1914 1.400 . S
C1915 C1916 1.398 . S
C1915 C1921 1.491 1_455 S
C1916 H1907 0.950 . S
C1916 C1915 1.398 . S
C1916 C1917 1.391 . S
C1917 H1905 0.950 . S
C1917 C1913 1.393 . S
C1917 C1916 1.391 . S
C1918 H1908 0.950 . S
C1918 C1919 1.386 . S
C1918 C1920 1.391 . S
C1919 C1918 1.386 . S
C1919 C1923 1.393 . S
C1920 H1909 0.950 . S
C1920 C1918 1.391 . S
C1920 C1921 1.400 . S
C1921 C1915 1.491 1_655 S
C1921 C1920 1.400 . S
C1921 C1922 1.398 . S
C1922 H1910 0.950 . S
C1922 C1921 1.398 . S
C1922 C1923 1.391 . S
C1923 H1911 0.950 . S
C1923 C1919 1.393 . S
C1923 C1922 1.391 . S
H1924 C1932 0.950 . S
H1925 C1937 0.950 . S
H1926 C1934 0.950 . S
H1927 C1936 0.950 . S
H1928 C1938 0.950 . S
H1929 C1940 0.950 . S
H1930 C1942 0.950 . S
H1931 C1943 0.950 . S
C1932 H1924 0.950 . S
C1932 C1933 1.386 . S
C1932 C1934 1.391 . S
C1933 C1932 1.386 . S
C1933 C1937 1.393 . S
C1934 H1926 0.950 . S
C1934 C1932 1.391 . S
C1934 C1935 1.400 . S
C1935 C1934 1.400 . S
C1935 C1936 1.398 . S
C1935 C1941 1.491 . S
C1936 H1927 0.950 . S
C1936 C1935 1.398 . S
C1936 C1937 1.391 . S
C1937 H1925 0.950 . S
C1937 C1933 1.393 . S
C1937 C1936 1.391 . S
C1938 H1928 0.950 . S
C1938 C1939 1.386 . S
C1938 C1940 1.391 . S
C1939 C1938 1.386 . S
C1939 C1943 1.393 . S
C1940 H1929 0.950 . S
C1940 C1938 1.391 . S
C1940 C1941 1.400 . S
C1941 C1935 1.491 . S
C1941 C1940 1.400 . S
C1941 C1942 1.398 . S
C1942 H1930 0.950 . S
C1942 C1941 1.398 . S
C1942 C1943 1.391 . S
C1943 H1931 0.950 . S
C1943 C1939 1.393 . S
C1943 C1942 1.391 . S
C513 C53 1.237 . S
C519 C11 1.225 . S
C533 C67 1.225 . S
C539 C25 1.233 . S
C553 C81 1.228 . S
C559 C39 1.229 . S
C573 C95 1.236 . S
C579 C137 1.224 . S
C593 C109 1.229 . S
C599 C151 1.227 . S
C613 C165 1.228 . S
C619 C123 1.237 . S
C633 C179 1.224 . S
C639 C221 1.233 . S
C653 C193 1.225 . S
C659 C235 1.233 . S
C673 C207 1.233 . S
C679 C249 1.234 . S
C693 C263 1.237 . S
C699 C305 1.226 . S
C713 C319 1.225 . S
C719 C277 1.237 . S
C733 C291 1.237 . S
C739 C333 1.227 . S
C753 C347 1.231 . S
C759 C389 1.235 . S
C773 C361 1.237 . S
C779 C403 1.226 . S
C793 C417 1.232 . S
C799 C375 1.235 . S
C813 C473 1.233 . S
C819 C431 1.225 . S
C833 C487 1.232 . S
C839 C445 1.226 . S
C853 C501 1.230 . S
C859 C459 1.237 . S
C873 C167 1.195 . S
C879 C8 1.267 . S
C893 C22 1.250 . S
C899 C139 1.179 . S
C913 C36 1.237 . S
C919 C153 1.195 . S
C933 C111 1.192 . S
C939 C50 1.237 . S
C953 C64 1.263 . S
C959 C125 1.217 . S
C973 C97 1.218 . S
C979 C78 1.263 . S
C993 C92 1.258 . S
C999 C83 1.222 . S
C1013 C106 1.237 . S
C1019 C55 1.211 . S
C1033 C69 1.224 . S
C1039 C120 1.251 . S
C1053 C27 1.219 . S
C1059 C134 1.262 . S
C1073 C41 1.180 . S
C1079 C148 1.248 . S
C1093 C162 1.268 . S
C1099 C13 1.204 . S
C1113 C176 1.255 . S
C1119 C335 1.223 . S
C1133 C307 1.196 . S
C1139 C190 1.267 . S
C1153 C321 1.222 . S
C1159 C204 1.246 . S
C1173 C218 1.236 . S
C1179 C279 1.199 . S
C1193 C293 1.185 . S
C1199 C232 1.241 . S
C1213 C246 1.254 . S
C1219 C265 1.180 . S
C1233 C260 1.250 . S
C1239 C251 1.224 . S
C1253 C274 1.268 . S
C1259 C223 1.204 . S
C1273 C237 1.222 . S
C1279 C288 1.258 . S
C1293 C195 1.209 . S
C1299 C302 1.237 . S
C1313 C209 1.223 . S
C1319 C316 1.256 . S
C1333 C330 1.236 . S
C1339 C181 1.206 . S
C1353 C503 1.181 . S
C1359 C344 1.246 . S
C1373 C358 1.239 . S
C1379 C475 1.214 . S
C1393 C372 1.261 . S
C1399 C489 1.184 . S
C1413 C386 1.262 . S
C1419 C447 1.219 . S
C1433 C461 1.219 . S
C1439 C400 1.242 . S
C1453 C414 1.255 . S
C1459 C433 1.224 . S
C1473 C419 1.216 . S
C1479 C428 1.264 . S
C1493 C391 1.222 . S
C1499 C442 1.257 . S
C1513 C405 1.180 . S
C1519 C456 1.254 . S
C1533 C363 1.198 . S
C1539 C470 1.267 . S
C1553 C377 1.221 . S
C1559 C484 1.245 . S
C1573 C349 1.195 . S
C1579 C498 1.237 . S
C1593 C413 1.419 . S
C1599 C7 1.400 . S
C1613 C21 1.410 . S
C1619 C385 1.408 . S
C1633 C399 1.414 . S
C1639 C35 1.404 . S
C1653 C49 1.411 . S
C1659 C189 1.407 . S
C1673 C203 1.411 . S
C1679 C63 1.407 . S
C1693 C77 1.414 . S
C1699 C175 1.404 . S
C1713 C91 1.400 . S
C1719 C329 1.418 . S
C1733 C301 1.411 . S
C1739 C105 1.407 . S
C1753 C119 1.411 . S
C1759 C315 1.408 . S
C1773 C133 1.415 . S
C1779 C441 1.404 . S
C1793 C147 1.407 . S
C1799 C455 1.411 . S
C1813 C427 1.414 . S
C1819 C161 1.404 . S
C1833 C357 1.400 . S
C1839 C217 1.418 . S
C1853 C371 1.400 . S
C1859 C231 1.419 . S
C1873 C343 1.400 . S
C1879 C245 1.418 . S
C1893 C259 1.402 . S
C1899 C497 1.416 . S
C1913 C469 1.419 . S
C1919 C273 1.399 . S
C1933 C287 1.417 . S
C1939 C483 1.402 . S
