# Generated by pormake.
# Topology wfe, (8)-cn, num edge types: 1
# Building blocks:
#     Node 0, Type 0, BuildingBlock: TAGTUT_clean_sbu_1, # of connection points: 8
#     Node 1, Type 0, BuildingBlock: TAGTUT_clean_sbu_1, # of connection points: 8
#     Node 2, Type 0, BuildingBlock: TAGTUT_clean_sbu_1, # of connection points: 8
#     Node 3, Type 0, BuildingBlock: TAGTUT_clean_sbu_1, # of connection points: 8
#     Node 4, Type 0, BuildingBlock: TAGTUT_clean_sbu_1, # of connection points: 8
#     Node 5, Type 0, BuildingBlock: TAGTUT_clean_sbu_1, # of connection points: 8
#     Node 6, Type 0, BuildingBlock: TAGTUT_clean_sbu_1, # of connection points: 8
#     Node 7, Type 0, BuildingBlock: TAGTUT_clean_sbu_1, # of connection points: 8
#     Edge 8, Type (0, 0), BuildingBlock: EZIPEK_clean_linker_0, # of connection points: 2
#     Edge 9, Type (0, 0), BuildingBlock: EZIPEK_clean_linker_0, # of connection points: 2
#     Edge 10, Type (0, 0), BuildingBlock: EZIPEK_clean_linker_0, # of connection points: 2
#     Edge 11, Type (0, 0), BuildingBlock: EZIPEK_clean_linker_0, # of connection points: 2
#     Edge 12, Type (0, 0), BuildingBlock: EZIPEK_clean_linker_0, # of connection points: 2
#     Edge 13, Type (0, 0), BuildingBlock: EZIPEK_clean_linker_0, # of connection points: 2
#     Edge 14, Type (0, 0), BuildingBlock: EZIPEK_clean_linker_0, # of connection points: 2
#     Edge 15, Type (0, 0), BuildingBlock: EZIPEK_clean_linker_0, # of connection points: 2
#     Edge 16, Type (0, 0), BuildingBlock: EZIPEK_clean_linker_0, # of connection points: 2
#     Edge 17, Type (0, 0), BuildingBlock: EZIPEK_clean_linker_0, # of connection points: 2
#     Edge 18, Type (0, 0), BuildingBlock: EZIPEK_clean_linker_0, # of connection points: 2
#     Edge 19, Type (0, 0), BuildingBlock: EZIPEK_clean_linker_0, # of connection points: 2
#     Edge 20, Type (0, 0), BuildingBlock: EZIPEK_clean_linker_0, # of connection points: 2
#     Edge 21, Type (0, 0), BuildingBlock: EZIPEK_clean_linker_0, # of connection points: 2
#     Edge 22, Type (0, 0), BuildingBlock: EZIPEK_clean_linker_0, # of connection points: 2
#     Edge 23, Type (0, 0), BuildingBlock: EZIPEK_clean_linker_0, # of connection points: 2
#     Edge 24, Type (0, 0), BuildingBlock: EZIPEK_clean_linker_0, # of connection points: 2
#     Edge 25, Type (0, 0), BuildingBlock: EZIPEK_clean_linker_0, # of connection points: 2
#     Edge 26, Type (0, 0), BuildingBlock: EZIPEK_clean_linker_0, # of connection points: 2
#     Edge 27, Type (0, 0), BuildingBlock: EZIPEK_clean_linker_0, # of connection points: 2
#     Edge 28, Type (0, 0), BuildingBlock: EZIPEK_clean_linker_0, # of connection points: 2
#     Edge 29, Type (0, 0), BuildingBlock: EZIPEK_clean_linker_0, # of connection points: 2
#     Edge 30, Type (0, 0), BuildingBlock: EZIPEK_clean_linker_0, # of connection points: 2
#     Edge 31, Type (0, 0), BuildingBlock: EZIPEK_clean_linker_0, # of connection points: 2
#     Edge 32, Type (0, 0), BuildingBlock: EZIPEK_clean_linker_0, # of connection points: 2
#     Edge 33, Type (0, 0), BuildingBlock: EZIPEK_clean_linker_0, # of connection points: 2
#     Edge 34, Type (0, 0), BuildingBlock: EZIPEK_clean_linker_0, # of connection points: 2
#     Edge 35, Type (0, 0), BuildingBlock: EZIPEK_clean_linker_0, # of connection points: 2
#     Edge 36, Type (0, 0), BuildingBlock: EZIPEK_clean_linker_0, # of connection points: 2
#     Edge 37, Type (0, 0), BuildingBlock: EZIPEK_clean_linker_0, # of connection points: 2
#     Edge 38, Type (0, 0), BuildingBlock: EZIPEK_clean_linker_0, # of connection points: 2
#     Edge 39, Type (0, 0), BuildingBlock: EZIPEK_clean_linker_0, # of connection points: 2
# Relax obj value: 0.287
# Max RMSD: 0.308
# Mean RMSD: 0.308
data_MOF--net-wfe--node1-TAGTUT_clean_sbu_1--edge1-EZIPEK_clean_linker_0
_symmetry_space_group_name_H-M    P1
_symmetry_Int_Tables_number       1
_symmetry_cell_setting            triclinic
loop_
_symmetry_equiv_pos_as_xyz
'x, y, z'
_cell_length_a     29.089763
_cell_length_b     28.949163
_cell_length_c     18.607391
_cell_angle_alpha  89.365839
_cell_angle_beta   89.767645
_cell_angle_gamma 90.186213
loop_
_atom_site_label
_atom_site_type_symbol
_atom_site_fract_x
_atom_site_fract_y
_atom_site_fract_z
_atom_type_partial_charge
C0 C 0.53761 0.41019 0.07304 0.0
C1 C 0.44791 0.35467 0.22628 0.0
C2 C 0.62206 0.33599 0.37122 0.0
Mg3 Mg 0.50919 0.30742 0.10923 0.0
O4 O 0.55668 0.31491 0.17688 0.0
Mg5 Mg 0.56404 0.37134 0.23887 0.0
Mg6 Mg 0.57196 0.26937 0.25125 0.0
O7 O 0.58927 0.2246 0.32788 0.0
Mg8 Mg 0.65184 0.23598 0.31756 0.0
Mg9 Mg 0.58255 0.16184 0.27736 0.0
C10 C 0.55668 0.20157 0.09904 0.0
C11 C 0.48042 0.20687 0.29352 0.0
O12 O 0.55417 0.41113 0.13627 0.0
O13 O 0.5193 0.37317 0.04802 0.0
O14 O 0.48557 0.36979 0.25278 0.0
O15 O 0.44797 0.32584 0.17403 0.0
O16 O 0.53438 0.23601 0.07061 0.0
O17 O 0.56946 0.20525 0.16613 0.0
C18 C 0.65565 0.335 0.1869 0.0
O19 O 0.6439 0.29455 0.2089 0.0
O20 O 0.63917 0.36975 0.21888 0.0
O21 O 0.6 0.15013 0.40013 0.0
O22 O 0.66892 0.18115 0.38762 0.0
O23 O 0.65882 0.14449 0.25095 0.0
C24 C 0.63638 0.16787 0.42825 0.0
O25 O 0.65909 0.21315 0.20908 0.0
O26 O 0.65419 0.30634 0.36109 0.0
C27 C 0.67682 0.17383 0.20894 0.0
O28 O 0.58187 0.3295 0.34122 0.0
O29 O 0.49546 0.24788 0.27921 0.0
O30 O 0.50719 0.17222 0.29827 0.0
C31 C 0.58326 0.01609 0.58316 0.0
C32 C 0.65342 0.92734 0.71709 0.0
C33 C 0.66319 0.07395 0.91812 0.0
Mg34 Mg 0.68733 0.00359 0.60532 0.0
O35 O 0.67524 0.0439 0.68157 0.0
Mg36 Mg 0.6217 0.0385 0.74913 0.0
Mg37 Mg 0.72173 0.05587 0.75353 0.0
O38 O 0.76914 0.06747 0.82114 0.0
Mg39 Mg 0.77177 0.07992 0.91815 0.0
Mg40 Mg 0.82748 0.06395 0.76423 0.0
C41 C 0.78627 0.05757 0.59225 0.0
C42 C 0.78496 0.9614 0.76141 0.0
O43 O 0.57988 0.02484 0.64996 0.0
O44 O 0.62174 0.00991 0.55072 0.0
O45 O 0.6325 0.95833 0.7544 0.0
O46 O 0.67851 0.9379 0.66228 0.0
O47 O 0.75409 0.03479 0.56011 0.0
O48 O 0.78096 0.06517 0.66078 0.0
C49 C 0.65729 0.14151 0.71402 0.0
O50 O 0.69762 0.12888 0.73349 0.0
O51 O 0.62245 0.11487 0.72353 0.0
O52 O 0.86838 0.05697 0.8707 0.0
O53 O 0.81585 0.02369 0.93865 0.0
O54 O 0.81872 0.14046 0.78459 0.0
C55 C 0.85705 0.03689 0.92992 0.0
O56 O 0.80144 0.14756 0.90202 0.0
O57 O 0.70087 0.08106 0.95126 0.0
C58 C 0.80617 0.16462 0.83871 0.0
O59 O 0.66459 0.05667 0.85246 0.0
O60 O 0.74422 0.97842 0.76492 0.0
O61 O 0.82094 0.9868 0.75766 0.0
C62 C 0.02399 0.0864 0.08915 0.0
C63 C 0.08892 0.17486 0.2373 0.0
C64 C 0.9016 0.14392 0.3677 0.0
Mg65 Mg 0.01956 0.19187 0.10867 0.0
O66 O 0.97479 0.1714 0.17576 0.0
Mg67 Mg 0.98468 0.12173 0.25018 0.0
Mg68 Mg 0.94388 0.21285 0.23843 0.0
O69 O 0.91313 0.25634 0.30105 0.0
Mg70 Mg 0.85575 0.22943 0.29405 0.0
Mg71 Mg 0.90961 0.31487 0.23521 0.0
C72 C 0.95151 0.27903 0.07582 0.0
C73 C 0.01797 0.29476 0.27084 0.0
O74 O 0.01503 0.0832 0.15634 0.0
O75 O 0.02336 0.12557 0.05605 0.0
O76 O 0.05818 0.15129 0.27211 0.0
O77 O 0.08032 0.19426 0.17644 0.0
O78 O 0.98495 0.2535 0.05349 0.0
O79 O 0.93502 0.2704 0.13955 0.0
C80 C 0.8849 0.12214 0.18878 0.0
O81 O 0.88438 0.16607 0.1973 0.0
O82 O 0.91678 0.09735 0.2154 0.0
O83 O 0.88529 0.33686 0.34468 0.0
O84 O 0.83563 0.27831 0.37045 0.0
O85 O 0.83269 0.31094 0.20185 0.0
C86 C 0.85762 0.31483 0.38701 0.0
O87 O 0.85065 0.24168 0.18065 0.0
O88 O 0.86477 0.16273 0.34476 0.0
C89 C 0.8228 0.27364 0.17106 0.0
O90 O 0.94193 0.15881 0.34294 0.0
O91 O 0.01082 0.25118 0.26822 0.0
O92 O 0.98551 0.32386 0.26242 0.0
C93 C 0.91369 0.52017 0.58342 0.0
C94 C 0.8338 0.58816 0.7417 0.0
C95 C 0.84652 0.3992 0.87676 0.0
Mg96 Mg 0.80767 0.52339 0.61235 0.0
O97 O 0.82304 0.48148 0.68776 0.0
Mg98 Mg 0.87989 0.47969 0.74566 0.0
Mg99 Mg 0.78037 0.44837 0.74673 0.0
O100 O 0.73311 0.41944 0.81153 0.0
Mg101 Mg 0.75175 0.3596 0.82213 0.0
Mg102 Mg 0.67653 0.41626 0.74166 0.0
C103 C 0.71992 0.45355 0.58266 0.0
C104 C 0.70063 0.52559 0.77477 0.0
O105 O 0.91906 0.50868 0.64929 0.0
O106 O 0.87401 0.52659 0.55513 0.0
O107 O 0.85794 0.55586 0.77226 0.0
O108 O 0.81055 0.58169 0.68389 0.0
O109 O 0.7465 0.486 0.5576 0.0
O110 O 0.72548 0.44012 0.64888 0.0
C111 C 0.86071 0.38418 0.67199 0.0
O112 O 0.8201 0.38783 0.69751 0.0
O113 O 0.89259 0.41173 0.69068 0.0
O114 O 0.64076 0.3965 0.84602 0.0
O115 O 0.69221 0.34329 0.88402 0.0
O116 O 0.6797 0.33523 0.72253 0.0
C117 C 0.65515 0.36658 0.89198 0.0
O118 O 0.75053 0.34717 0.71246 0.0
O119 O 0.81696 0.36665 0.87297 0.0
C120 C 0.71899 0.31865 0.70974 0.0
O121 O 0.83902 0.43916 0.84251 0.0
O122 O 0.74379 0.51667 0.77945 0.0
O123 O 0.67094 0.49414 0.76118 0.0
C124 C 0.3535 0.83563 0.64164 0.0
C125 C 0.31975 0.80148 0.85965 0.0
C126 C 0.45059 0.78745 0.95163 0.0
Mg127 Mg 0.34893 0.7474 0.73665 0.0
O128 O 0.40938 0.76747 0.72891 0.0
Mg129 Mg 0.4142 0.82758 0.78739 0.0
Mg130 Mg 0.43942 0.72188 0.7916 0.0
O131 O 0.4683 0.67794 0.85618 0.0
Mg132 Mg 0.51497 0.69615 0.9196 0.0
Mg133 Mg 0.47231 0.62585 0.78586 0.0
C134 C 0.38941 0.65421 0.67036 0.0
C135 C 0.37668 0.63954 0.85831 0.0
O136 O 0.3866 0.85353 0.67819 0.0
O137 O 0.33031 0.80024 0.66242 0.0
O138 O 0.34162 0.83357 0.82848 0.0
O139 O 0.33177 0.76019 0.8478 0.0
O140 O 0.35461 0.67866 0.68892 0.0
O141 O 0.43084 0.66554 0.6939 0.0
C142 C 0.5187 0.79745 0.74514 0.0
O143 O 0.50891 0.75461 0.7544 0.0
O144 O 0.48854 0.82888 0.75197 0.0
O145 O 0.50715 0.58578 0.8757 0.0
O146 O 0.52598 0.62862 0.97057 0.0
O147 O 0.54721 0.64862 0.75757 0.0
C148 C 0.52512 0.58969 0.93789 0.0
O149 O 0.57332 0.69444 0.84606 0.0
O150 O 0.48171 0.75926 0.97562 0.0
C151 C 0.58011 0.67038 0.7893 0.0
O152 O 0.43667 0.78143 0.88597 0.0
O153 O 0.37752 0.68213 0.8365 0.0
O154 O 0.40321 0.60944 0.83085 0.0
C155 C 0.14491 0.9549 0.0913 0.0
C156 C 0.18946 0.83395 0.22556 0.0
C157 C 0.20379 0.95566 0.44246 0.0
Mg158 Mg 0.2296 0.90586 0.12812 0.0
O159 O 0.22768 0.93889 0.2128 0.0
Mg160 Mg 0.16853 0.94312 0.26672 0.0
Mg161 Mg 0.27318 0.9508 0.28457 0.0
O162 O 0.31747 0.9655 0.35796 0.0
Mg163 Mg 0.30345 0.00855 0.42948 0.0
Mg164 Mg 0.37349 0.96736 0.29487 0.0
C165 C 0.33787 0.91629 0.13016 0.0
C166 C 0.33388 0.86892 0.34483 0.0
O167 O 0.13117 0.94566 0.15565 0.0
O168 O 0.18675 0.95055 0.07264 0.0
O169 O 0.17521 0.86557 0.26707 0.0
O170 O 0.19751 0.8417 0.15929 0.0
O171 O 0.30113 0.90301 0.09924 0.0
O172 O 0.33463 0.94152 0.18974 0.0
C173 C 0.21096 0.04566 0.26392 0.0
O174 O 0.25188 0.02869 0.26543 0.0
O175 O 0.17503 0.02016 0.26492 0.0
O176 O 0.41141 0.98584 0.39632 0.0
O177 O 0.36596 1.00209 0.4911 0.0
O178 O 0.36401 0.04781 0.27881 0.0
C179 C 0.40551 0.9957 0.46236 0.0
O180 O 0.31695 0.07196 0.36748 0.0
O181 O 0.23576 0.97903 0.47394 0.0
C182 C 0.34323 0.08045 0.31306 0.0
O183 O 0.21078 0.94581 0.37477 0.0
O184 O 0.29512 0.87893 0.31589 0.0
O185 O 0.36957 0.89407 0.33385 0.0
C186 C 0.12517 0.67822 0.65415 0.0
C187 C 0.15798 0.72544 0.86705 0.0
C188 C 0.03887 0.72912 0.96038 0.0
Mg189 Mg 0.13092 0.76821 0.73763 0.0
O190 O 0.07202 0.7454 0.73081 0.0
Mg191 Mg 0.07224 0.68803 0.80143 0.0
Mg192 Mg 0.04559 0.79247 0.79362 0.0
O193 O 0.01877 0.8364 0.85694 0.0
Mg194 Mg 0.9739 0.81738 0.92572 0.0
Mg195 Mg 0.00893 0.88472 0.77969 0.0
C196 C 0.09075 0.85721 0.66231 0.0
C197 C 0.10879 0.88267 0.83641 0.0
O198 O 0.09507 0.65943 0.69597 0.0
O199 O 0.14887 0.71402 0.66916 0.0
O200 O 0.14748 0.68825 0.83653 0.0
O201 O 0.13405 0.75975 0.85158 0.0
O202 O 0.12604 0.83414 0.6818 0.0
O203 O 0.04971 0.84542 0.68825 0.0
C204 C 0.96629 0.71436 0.76612 0.0
O205 O 0.9761 0.75746 0.76748 0.0
O206 O 0.99679 0.68331 0.77476 0.0
O207 O 0.98128 0.92565 0.87321 0.0
O208 O 0.97156 0.8848 0.97468 0.0
O209 O 0.9351 0.85582 0.76162 0.0
C210 C 0.97239 0.92359 0.94051 0.0
O211 O 0.9129 0.81393 0.85838 0.0
O212 O 0.00751 0.75631 0.98496 0.0
C213 C 0.90446 0.83245 0.79679 0.0
O214 O 0.05173 0.73574 0.89427 0.0
O215 O 0.10789 0.83837 0.83013 0.0
O216 O 0.07778 0.90783 0.80844 0.0
C217 C 0.35112 0.65873 0.15065 0.0
C218 C 0.26517 0.69305 0.3319 0.0
C219 C 0.28659 0.54725 0.44727 0.0
Mg220 Mg 0.2506 0.65061 0.19377 0.0
O221 O 0.27069 0.59422 0.22454 0.0
Mg222 Mg 0.32284 0.59796 0.2961 0.0
Mg223 Mg 0.22511 0.56059 0.28245 0.0
O224 O 0.18181 0.52425 0.33667 0.0
Mg225 Mg 0.19338 0.48538 0.41743 0.0
Mg226 Mg 0.12333 0.53242 0.28236 0.0
C227 C 0.1596 0.60786 0.1395 0.0
C228 C 0.14839 0.62444 0.36207 0.0
O229 O 0.36246 0.62827 0.19788 0.0
O230 O 0.31151 0.67758 0.1514 0.0
O231 O 0.30309 0.67082 0.33372 0.0
O232 O 0.2347 0.68427 0.28578 0.0
O233 O 0.19194 0.63716 0.12992 0.0
O234 O 0.16519 0.57293 0.18641 0.0
C235 C 0.30835 0.4919 0.23865 0.0
O236 O 0.2642 0.4956 0.23632 0.0
O237 O 0.33353 0.52539 0.26059 0.0
O238 O 0.08325 0.50608 0.37955 0.0
O239 O 0.12851 0.49366 0.47554 0.0
O240 O 0.13834 0.45446 0.25743 0.0
C241 C 0.08879 0.49892 0.44683 0.0
O242 O 0.17998 0.42553 0.3509 0.0
O243 O 0.26015 0.51422 0.47081 0.0
C244 C 0.15728 0.42026 0.29207 0.0
O245 O 0.27909 0.56287 0.38262 0.0
O246 O 0.18984 0.61966 0.34046 0.0
O247 O 0.11564 0.60078 0.33584 0.0
C248 C 0.60052 0.18484 0.5524 0.0
C249 C 0.63902 0.18202 0.50558 0.0
C250 C 0.69069 0.18584 0.60753 0.0
C251 C 0.65285 0.17604 0.65425 0.0
N252 N 0.57153 0.19034 0.67212 0.0
N253 N 0.71183 0.22296 0.49612 0.0
C254 C 0.60795 0.1844 0.62723 0.0
C255 C 0.68184 0.1959 0.53469 0.0
N256 N 0.55706 0.19184 0.52822 0.0
N257 N 0.73507 0.18382 0.62999 0.0
H258 H 0.70241 0.23967 0.44861 0.0
H259 H 0.74219 0.23604 0.51763 0.0
H260 H 0.76247 0.18526 0.59387 0.0
H261 H 0.74479 0.18092 0.68329 0.0
H262 H 0.549 0.19759 0.47428 0.0
H263 H 0.549 0.19759 0.47428 0.0
H264 H 0.57508 0.19195 0.7279 0.0
H265 H 0.57508 0.19195 0.7279 0.0
C266 C 0.89223 0.09823 1.00072 0.0
C267 C 0.87932 0.05148 0.99727 0.0
C268 C 0.85717 0.05338 0.12468 0.0
C269 C 0.86429 0.10191 0.12372 0.0
N270 N 0.86949 0.17056 0.04947 0.0
N271 N 0.85944 0.98101 0.05865 0.0
C272 C 0.87587 0.12439 0.05819 0.0
C273 C 0.86553 0.02775 0.06104 0.0
N274 N 0.91925 0.11802 0.9488 0.0
N275 N 0.84251 0.0327 0.18699 0.0
H276 H 0.8674 0.9625 1.01234 0.0
H277 H 0.84813 0.96061 0.10154 0.0
H278 H 0.83362 0.0523 0.23174 0.0
H279 H 0.83792 0.99733 0.19414 0.0
H280 H 0.93164 0.15175 0.95245 0.0
H281 H 0.93388 0.09891 0.90766 0.0
H282 H 0.87509 0.1879 1.00077 0.0
H283 H 0.85099 0.18902 0.08687 0.0
C284 C 0.82512 0.35956 0.48339 0.0
C285 C 0.85696 0.32691 0.46185 0.0
C286 C 0.89331 0.32783 0.58093 0.0
C287 C 0.86379 0.36445 0.59893 0.0
N288 N 0.82036 0.42697 0.54571 0.0
N289 N 0.92565 0.28217 0.48479 0.0
C290 C 0.83419 0.38291 0.54542 0.0
C291 C 0.89237 0.31124 0.50916 0.0
N292 N 0.78948 0.374 0.44138 0.0
N293 N 0.92147 0.30901 0.63166 0.0
H294 H 0.92496 0.26811 0.43356 0.0
H295 H 0.955 0.27387 0.51401 0.0
H296 H 0.92348 0.32221 0.68338 0.0
H297 H 0.94044 0.27903 0.62374 0.0
H298 H 0.78051 0.35892 0.39269 0.0
H299 H 0.78051 0.35892 0.39269 0.0
H300 H 0.83651 0.45077 0.57782 0.0
H301 H 0.83651 0.45077 0.57782 0.0
C302 C 0.64551 0.30869 0.05912 0.0
C303 C 0.66139 0.34268 0.10755 0.0
C304 C 0.65524 0.40079 1.01114 0.0
C305 C 0.63749 0.36623 0.96548 0.0
N306 N 0.60333 0.29212 0.95074 0.0
N307 N 0.6948 0.41799 0.12256 0.0
C308 C 0.62713 0.32219 0.99247 0.0
C309 C 0.66983 0.38824 0.08151 0.0
N310 N 0.65512 0.26362 0.07179 0.0
N311 N 0.65834 0.44531 0.98648 0.0
H312 H 0.70928 0.40766 0.1714 0.0
H313 H 0.70518 0.45078 0.10568 0.0
H314 H 0.64711 0.45511 0.93546 0.0
H315 H 0.66767 0.47314 1.01823 0.0
H316 H 0.64751 0.237 0.03647 0.0
H317 H 0.67951 0.25572 0.11005 0.0
H318 H 0.59369 0.25932 0.96848 0.0
H319 H 0.59034 0.30213 0.90066 0.0
C320 C 0.30768 0.86013 0.53715 0.0
C321 C 0.35018 0.845 0.56441 0.0
C322 C 0.37687 0.82827 0.44254 0.0
C323 C 0.33401 0.84394 0.41519 0.0
N324 N 0.25276 0.85252 0.44209 0.0
N325 N 0.4205 0.80202 0.54516 0.0
C326 C 0.29739 0.85266 0.46412 0.0
C327 C 0.38334 0.82501 0.51781 0.0
N328 N 0.27725 0.88215 0.58101 0.0
N329 N 0.41214 0.81858 0.39647 0.0
H330 H 0.42815 0.80035 0.59971 0.0
H331 H 0.44228 0.78188 0.51397 0.0
H332 H 0.40783 0.81779 0.34098 0.0
H333 H 0.44597 0.8137 0.41295 0.0
H334 H 0.2469 0.89702 0.56244 0.0
H335 H 0.28491 0.88971 0.63433 0.0
H336 H 0.22525 0.85373 0.47802 0.0
H337 H 0.24294 0.84448 0.3902 0.0
C338 C 0.09703 0.90633 0.02393 0.0
C339 C 0.1132 0.95148 0.03092 0.0
C340 C 0.13377 0.95226 0.90316 0.0
C341 C 0.12734 0.90339 0.90254 0.0
N342 N 0.12231 0.83468 0.97626 0.0
N343 N 0.13721 0.0222 0.97537 0.0
C344 C 0.11444 0.88048 0.967 0.0
C345 C 0.12692 0.97648 0.96865 0.0
N346 N 0.07069 0.8864 0.07635 0.0
N347 N 0.14618 0.97469 0.84114 0.0
H348 H 0.13175 0.03905 0.02407 0.0
H349 H 0.15111 0.04274 0.93447 0.0
H350 H 0.15457 0.95655 0.79468 0.0
H351 H 0.14779 0.01045 0.83553 0.0
H352 H 0.05669 0.85347 0.07088 0.0
H353 H 0.05951 0.90485 0.12081 0.0
H354 H 0.11665 0.81762 0.02509 0.0
H355 H 0.14251 0.81711 0.93984 0.0
C356 C 0.16744 0.639 0.56109 0.0
C357 C 0.12853 0.66349 0.58083 0.0
C358 C 0.10403 0.6694 0.45508 0.0
C359 C 0.14172 0.64103 0.43637 0.0
N360 N 0.1916 0.58127 0.48352 0.0
N361 N 0.05631 0.69989 0.551 0.0
C362 C 0.1692 0.62157 0.49213 0.0
C363 C 0.09548 0.67808 0.52915 0.0
N364 N 0.20201 0.62979 0.60882 0.0
N365 N 0.07698 0.68803 0.40256 0.0
H366 H 0.0497 0.70772 0.60458 0.0
H367 H 0.02897 0.70763 0.51713 0.0
H368 H 0.08268 0.6819 0.34824 0.0
H369 H 0.05133 0.7122 0.41193 0.0
H370 H 0.23309 0.61506 0.59292 0.0
H371 H 0.2007 0.63866 0.6629 0.0
H372 H 0.20271 0.56156 0.52739 0.0
H373 H 0.19355 0.56523 0.43507 0.0
C374 C 0.35252 0.68878 0.02849 0.0
C375 C 0.37462 0.66067 0.07952 0.0
C376 C 0.39237 0.60616 0.98299 0.0
C377 C 0.36438 0.63306 0.93549 0.0
N378 N 0.30031 0.68342 0.93012 0.0
N379 N 0.43105 0.60186 0.0992 0.0
C380 C 0.33884 0.66905 0.96397 0.0
C381 C 0.39942 0.62181 0.05497 0.0
N382 N 0.34127 0.7331 0.04407 0.0
N383 N 0.40838 0.56422 0.96163 0.0
H384 H 0.43875 0.61575 0.14929 0.0
H385 H 0.45294 0.57553 0.08343 0.0
H386 H 0.39779 0.54912 0.91383 0.0
H387 H 0.42693 0.54187 0.99464 0.0
H388 H 0.32862 0.75527 1.00459 0.0
H389 H 0.34902 0.74777 0.09358 0.0
H390 H 0.27769 0.70469 0.95695 0.0
H391 H 0.2891 0.6688 0.88212 0.0
C392 C 0.54487 0.46121 0.95926 0.0
C393 C 0.5364 0.4561 0.0344 0.0
C394 C 0.54204 0.54065 0.04742 0.0
C395 C 0.5418 0.54593 0.97246 0.0
N396 N 0.56778 0.51301 0.86165 0.0
N397 N 0.5147 0.49419 0.14523 0.0
C398 C 0.55021 0.50657 0.9293 0.0
C399 C 0.53208 0.49678 0.07717 0.0
N400 N 0.5467 0.4235 0.91591 0.0
N401 N 0.55395 0.57657 0.09056 0.0
H402 H 0.49973 0.46417 0.16547 0.0
H403 H 0.50825 0.52312 0.17654 0.0
H404 H 0.56759 0.60737 0.07026 0.0
H405 H 0.55777 0.57298 0.14602 0.0
H406 H 0.54625 0.42573 0.86005 0.0
H407 H 0.54599 0.38961 0.93469 0.0
H408 H 0.57905 0.48632 0.82904 0.0
H409 H 0.57676 0.54574 0.84193 0.0
C410 C 0.51523 0.96706 0.55898 0.0
C411 C 0.53962 0.00889 0.54597 0.0
C412 C 0.47083 0.04482 0.49605 0.0
C413 C 0.44753 1.00212 0.50386 0.0
N414 N 0.44668 0.9216 0.53686 0.0
N415 N 0.54381 0.08512 0.49432 0.0
C416 C 0.46942 0.96294 0.53412 0.0
C417 C 0.5183 0.0471 0.51226 0.0
N418 N 0.53574 0.93174 0.59624 0.0
N419 N 0.4472 0.08319 0.47391 0.0
H420 H 0.57874 0.08785 0.50612 0.0
H421 H 0.53135 0.11174 0.46203 0.0
H422 H 0.41219 0.08238 0.46188 0.0
H423 H 0.46093 0.11644 0.47346 0.0
H424 H 0.51828 0.90261 0.61527 0.0
H425 H 0.57029 0.93246 0.61101 0.0
H426 H 0.46225 0.89038 0.55017 0.0
H427 H 0.41218 0.91847 0.52267 0.0
C428 C 0.01135 1.00093 0.08721 0.0
C429 C 0.02171 0.04221 0.0483 0.0
C430 C 0.98771 0.00904 0.9409 0.0
C431 C 0.97638 0.96807 0.98042 0.0
N432 N 0.96011 0.93544 0.0975 0.0
N433 N 0.03802 0.07563 0.93217 0.0
C434 C 0.98305 0.96699 0.05564 0.0
C435 C 0.01533 0.04343 0.97313 0.0
N436 N 0.03064 0.99328 0.15305 0.0
N437 N 0.96968 0.0162 0.87404 0.0
H438 H 0.06268 0.09758 0.95402 0.0
H439 H 0.03757 0.07597 0.8762 0.0
H440 H 0.94339 0.99543 0.85401 0.0
H441 H 0.97601 0.04562 0.84282 0.0
H442 H 0.02503 0.96349 0.18376 0.0
H443 H 0.05691 0.01435 0.17249 0.0
H444 H 0.96121 0.93548 0.15346 0.0
H445 H 0.9347 0.91392 0.07676 0.0
C446 C 0.96383 0.48116 0.49277 0.0
C447 C 0.95607 0.51914 0.53912 0.0
C448 C 0.03849 0.53735 0.53837 0.0
C449 C 0.04619 0.50015 0.49074 0.0
N450 N 0.0193 0.43102 0.43423 0.0
N451 N 0.98332 0.58812 0.59558 0.0
C452 C 0.00956 0.47048 0.47116 0.0
C453 C 0.99279 0.54847 0.55907 0.0
N454 N 0.9274 0.456 0.46823 0.0
N455 N 0.0749 0.56091 0.56616 0.0
H456 H 0.94988 0.59749 0.60978 0.0
H457 H 0.00749 0.61378 0.60582 0.0
H458 H 0.10887 0.55364 0.55327 0.0
H459 H 0.07188 0.5842 0.60804 0.0
H460 H 0.92986 0.42959 0.43102 0.0
H461 H 0.8935 0.46415 0.48001 0.0
H462 H 0.99544 0.4054 0.42254 0.0
H463 H 0.05282 0.42177 0.42034 0.0
C464 C 0.74807 0.19812 0.25206 0.0
C465 C 0.72638 0.17472 0.19623 0.0
C466 C 0.76468 0.22752 0.11136 0.0
C467 C 0.77569 0.25652 0.16998 0.0
N468 N 0.75691 0.27646 0.29161 0.0
N469 N 0.72158 0.16024 0.07092 0.0
C470 C 0.75981 0.24441 0.23908 0.0
C471 C 0.73857 0.18646 0.12483 0.0
N472 N 0.75189 0.17827 0.31816 0.0
N473 N 0.77954 0.23957 0.04409 0.0
H474 H 0.70335 0.12995 0.08253 0.0
H475 H 0.72467 0.16894 1.0169 0.0
H476 H 0.79692 0.27071 0.03455 0.0
H477 H 0.77561 0.21878 0.99925 0.0
H478 H 0.76778 0.19517 0.36073 0.0
H479 H 0.74207 0.1439 0.32691 0.0
H480 H 0.744 0.26839 0.34263 0.0
H481 H 0.76342 0.31135 0.28081 0.0
C482 C 0.78083 0.26162 0.71917 0.0
C483 C 0.7338 0.27184 0.73293 0.0
C484 C 0.73363 0.21214 0.8271 0.0
C485 C 0.78264 0.20814 0.81959 0.0
N486 N 0.8531 0.23759 0.7695 0.0
N487 N 0.66347 0.25254 0.79524 0.0
C488 C 0.80618 0.23632 0.76985 0.0
C489 C 0.70959 0.24617 0.78611 0.0
N490 N 0.80085 0.27487 0.65587 0.0
N491 N 0.70935 0.18114 0.86806 0.0
H492 H 0.64298 0.26796 0.75602 0.0
H493 H 0.64531 0.24129 0.84048 0.0
H494 H 0.72445 0.15517 0.89797 0.0
H495 H 0.67366 0.17876 0.8689 0.0
H496 H 0.83317 0.26326 0.64011 0.0
H497 H 0.78285 0.29225 0.61585 0.0
H498 H 0.87189 0.26065 0.73748 0.0
H499 H 0.87261 0.21866 0.80636 0.0
C500 C 0.24775 0.79389 0.80756 0.0
C501 C 0.27057 0.80815 0.8691 0.0
C502 C 0.21645 0.76257 0.94042 0.0
C503 C 0.2055 0.73811 0.87677 0.0
N504 N 0.22703 0.72198 0.75419 0.0
N505 N 0.26906 0.81753 0.9959 0.0
C506 C 0.22687 0.75069 0.81144 0.0
C507 C 0.25184 0.79664 0.93674 0.0
N508 N 0.25206 0.81786 0.74483 0.0
N509 N 0.19413 0.75186 1.00308 0.0
H510 H 0.2948 0.84265 0.99098 0.0
H511 H 0.25917 0.80883 0.048 0.0
H512 H 0.17021 0.7249 1.00605 0.0
H513 H 0.19863 0.76985 0.05067 0.0
H514 H 0.23541 0.8076 0.69798 0.0
H515 H 0.26909 0.84967 0.74337 0.0
H516 H 0.24381 0.73055 0.70612 0.0
H517 H 0.21506 0.6881 0.75897 0.0
C518 C 0.19164 0.77627 0.32405 0.0
C519 C 0.21435 0.79672 0.26371 0.0
C520 C 0.28802 0.76702 0.30948 0.0
C521 C 0.263 0.73992 0.35828 0.0
N522 N 0.20064 0.74001 0.44164 0.0
N523 N 0.28706 0.8126 0.20053 0.0
C524 C 0.2182 0.75315 0.37672 0.0
C525 C 0.26356 0.79256 0.25649 0.0
N526 N 0.14484 0.7774 0.32912 0.0
N527 N 0.33469 0.76223 0.30861 0.0
H528 H 0.27261 0.83337 0.16161 0.0
H529 H 0.32187 0.80813 0.1904 0.0
H530 H 0.35125 0.74285 0.34849 0.0
H531 H 0.35686 0.778 0.27193 0.0
H532 H 0.12657 0.76075 0.36993 0.0
H533 H 0.12419 0.79176 0.28899 0.0
H534 H 0.16872 0.75071 0.46052 0.0
H535 H 0.22033 0.72152 0.47862 0.0
C536 C 0.59165 0.119 0.08099 0.0
C537 C 0.57088 0.15926 0.05065 0.0
C538 C 0.58861 0.12383 0.93002 0.0
C539 C 0.62086 0.09275 0.96072 0.0
N540 N 0.64546 0.05512 0.06994 0.0
N541 N 0.53819 0.19003 0.9399 0.0
C542 C 0.61978 0.08876 0.03766 0.0
C543 C 0.56605 0.15875 0.97325 0.0
N544 N 0.58031 0.10663 0.14967 0.0
N545 N 0.57581 0.11681 0.86082 0.0
H546 H 0.51105 0.20628 0.96571 0.0
H547 H 0.54084 0.19811 0.88533 0.0
H548 H 0.58613 0.08719 0.83427 0.0
H549 H 0.55006 0.13519 0.83454 0.0
H550 H 0.59137 0.07633 0.1747 0.0
H551 H 0.55369 0.12303 0.17689 0.0
H552 H 0.65184 0.05401 0.12499 0.0
H553 H 0.66154 0.02914 0.04068 0.0
C554 C 0.84436 0.04821 0.48607 0.0
C555 C 0.8289 0.07479 0.54614 0.0
C556 C 0.88518 0.13585 0.50288 0.0
C557 C 0.89194 0.11365 0.43569 0.0
N558 N 0.87952 0.04558 0.36683 0.0
N559 N 0.84038 0.14536 0.6125 0.0
C560 C 0.8721 0.06878 0.42901 0.0
C561 C 0.85173 0.11864 0.55536 0.0
N562 N 0.83466 1.00204 0.48529 0.0
N563 N 0.91128 0.17399 0.51635 0.0
H564 H 0.81749 0.13486 0.65212 0.0
H565 H 0.8511 0.17939 0.61854 0.0
H566 H 0.93591 0.18589 0.47956 0.0
H567 H 0.91237 0.1906 0.56562 0.0
H568 H 0.84778 0.97949 0.4472 0.0
H569 H 0.81818 0.98519 0.528 0.0
H570 H 0.86147 0.016 0.3524 0.0
H571 H 0.90369 0.05708 0.32925 0.0
C572 C 0.88739 0.39052 1.00015 0.0
C573 C 0.8877 0.38396 0.9241 0.0
C574 C 0.92807 0.30913 0.94833 0.0
C575 C 0.93075 0.31675 0.02413 0.0
N576 N 0.92561 0.37549 0.11444 0.0
N577 N 0.92425 0.34317 0.82886 0.0
C578 C 0.91393 0.36064 0.04784 0.0
C579 C 0.9137 0.34547 0.89984 0.0
N580 N 0.86078 0.42475 0.02759 0.0
N581 N 0.9359 0.2661 0.92161 0.0
H582 H 0.91558 0.37005 0.79426 0.0
H583 H 0.94657 0.31868 0.80771 0.0
H584 H 0.94063 0.23696 0.95385 0.0
H585 H 0.93176 0.25814 0.8676 0.0
H586 H 0.85479 0.42835 0.08252 0.0
H587 H 0.84305 0.4479 0.99446 0.0
H588 H 0.91711 0.40811 0.13344 0.0
H589 H 0.94928 0.35759 0.14586 0.0
C590 C 0.68501 0.37755 0.53442 0.0
C591 C 0.68706 0.42665 0.53139 0.0
C592 C 0.63755 0.41979 0.42111 0.0
C593 C 0.63267 0.37091 0.43129 0.0
N594 N 0.63939 0.30878 0.51732 0.0
N595 N 0.6566 0.49482 0.47344 0.0
C596 C 0.65147 0.35227 0.49528 0.0
C597 C 0.66057 0.44793 0.47509 0.0
N598 N 0.71966 0.35354 0.56521 0.0
N599 N 0.62139 0.43936 0.35943 0.0
H600 H 0.67172 0.51569 0.51208 0.0
H601 H 0.63502 0.5124 0.43806 0.0
H602 H 0.60258 0.42038 0.32249 0.0
H603 H 0.62821 0.47341 0.34406 0.0
H604 H 0.72232 0.3179 0.5591 0.0
H605 H 0.74827 0.3697 0.58668 0.0
H606 H 0.65057 0.29477 0.56615 0.0
H607 H 0.6148 0.28922 0.49034 0.0
C608 C 0.41528 0.87022 0.97313 0.0
C609 C 0.42993 0.82647 1.00144 0.0
C610 C 0.40592 0.85802 0.12209 0.0
C611 C 0.38134 0.89578 0.0915 0.0
N612 N 0.36352 0.93612 0.98142 0.0
N613 N 0.43302 0.77924 0.11025 0.0
C614 C 0.38654 0.90113 1.01504 0.0
C615 C 0.42396 0.82083 0.07816 0.0
N616 N 0.43152 0.88424 0.90763 0.0
N617 N 0.4139 0.85859 0.19381 0.0
H618 H 0.44232 0.74987 0.08215 0.0
H619 H 0.4253 0.77224 0.16403 0.0
H620 H 0.40603 0.88801 0.2228 0.0
H621 H 0.43475 0.83464 0.2201 0.0
H622 H 0.42521 0.91689 0.88577 0.0
H623 H 0.45657 0.86563 0.88027 0.0
H624 H 0.36072 0.93875 0.92569 0.0
H625 H 0.34556 0.96121 1.00992 0.0
C626 C 0.11185 0.87008 0.52874 0.0
C627 C 0.10173 0.88958 0.59701 0.0
C628 C 0.14884 0.95844 0.55689 0.0
C629 C 0.16146 0.93737 0.48974 0.0
N630 N 0.13038 0.88457 0.40371 0.0
N631 N 0.09838 0.95952 0.66303 0.0
C632 C 0.13593 0.89634 0.4734 0.0
C633 C 0.11696 0.93591 0.60714 0.0
N634 N 0.09854 0.82567 0.51618 0.0
N635 N 0.16566 1.00128 0.57192 0.0
H636 H 0.07153 0.94531 0.69327 0.0
H637 H 0.10473 0.99419 0.67342 0.0
H638 H 0.18 0.02286 0.53259 0.0
H639 H 0.1647 0.01567 0.62292 0.0
H640 H 0.10895 0.80754 0.47101 0.0
H641 H 0.0787 0.8065 0.55273 0.0
H642 H 0.10944 0.85745 0.38725 0.0
H643 H 0.13855 0.908 0.36338 0.0
C644 C 0.09796 0.67002 0.12991 0.0
C645 C 0.11487 0.62687 0.1041 0.0
C646 C 0.07301 0.6461 0.989 0.0
C647 C 0.06245 0.69224 1.01128 0.0
N648 N 0.0726 0.74831 0.10547 0.0
N649 N 0.12108 0.57717 1.00245 0.0
C650 C 0.07637 0.70373 0.08291 0.0
C651 C 0.10272 0.61594 0.03177 0.0
N652 N 0.1043 0.67989 0.2006 0.0
N653 N 0.05289 0.62994 0.92821 0.0
H654 H 0.14065 0.55396 0.03279 0.0
H655 H 0.11885 0.56955 0.94798 0.0
H656 H 0.0289 0.64936 0.89955 0.0
H657 H 0.05575 0.59588 0.91137 0.0
H658 H 0.08861 0.70746 0.22637 0.0
H659 H 0.12226 0.65784 0.23462 0.0
H660 H 0.08841 0.76078 0.1515 0.0
H661 H 0.05771 0.77446 0.07523 0.0
C662 C 0.37372 0.57401 0.60773 0.0
C663 C 0.37816 0.62328 0.60448 0.0
C664 C 0.32277 0.62164 0.50276 0.0
C665 C 0.32104 0.57236 0.49956 0.0
N666 N 0.35347 0.50191 0.54698 0.0
N667 N 0.36657 0.69062 0.53044 0.0
C668 C 0.34923 0.54866 0.55159 0.0
C669 C 0.3565 0.64539 0.54508 0.0
N670 N 0.39181 0.55132 0.66548 0.0
N671 N 0.28834 0.6469 0.47327 0.0
H672 H 0.39088 0.70894 0.55994 0.0
H673 H 0.35438 0.70784 0.48481 0.0
H674 H 0.2607 0.6323 0.44657 0.0
H675 H 0.28519 0.6821 0.48275 0.0
H676 H 0.38577 0.51648 0.67662 0.0
H677 H 0.41138 0.56849 0.7038 0.0
H678 H 0.37605 0.48272 0.57858 0.0
H679 H 0.33743 0.48301 0.50673 0.0
C680 C 0.40611 0.18867 0.3567 0.0
C681 C 0.43062 0.19521 0.2917 0.0
C682 C 0.37806 0.14169 0.23103 0.0
C683 C 0.35874 0.12959 0.2988 0.0
N684 N 0.33555 0.16162 0.41275 0.0
N685 N 0.43136 0.1909 0.16303 0.0
C686 C 0.36647 0.15967 0.35759 0.0
C687 C 0.41304 0.17646 0.22715 0.0
N688 N 0.42206 0.20829 0.41811 0.0
N689 N 0.36342 0.11897 0.17141 0.0
H690 H 0.45644 0.21675 0.16023 0.0
H691 H 0.41993 0.18007 0.11308 0.0
H692 H 0.33542 0.09631 0.1735 0.0
H693 H 0.37826 0.12252 0.12071 0.0
H694 H 0.40896 0.20025 0.46896 0.0
H695 H 0.44995 0.23111 0.41776 0.0
H696 H 0.33863 0.18463 0.45512 0.0
H697 H 0.30351 0.14552 0.41028 0.0
C698 C 0.8132 0.89261 0.69728 0.0
C699 C 0.7927 0.91094 0.7599 0.0
C700 C 0.82216 0.84551 0.82906 0.0
C701 C 0.85541 0.83879 0.77445 0.0
N702 N 0.87184 0.84158 0.64834 0.0
N703 N 0.7712 0.90116 0.88416 0.0
C704 C 0.84638 0.85683 0.70495 0.0
C705 C 0.79391 0.88539 0.8251 0.0
N706 N 0.80234 0.91137 0.63197 0.0
N707 N 0.81836 0.81438 0.88422 0.0
H708 H 0.74985 0.93002 0.88186 0.0
H709 H 0.77513 0.88673 0.9353 0.0
H710 H 0.83709 0.78366 0.88443 0.0
H711 H 0.79308 0.81637 0.92389 0.0
H712 H 0.81499 0.89948 0.58323 0.0
H713 H 0.77778 0.93746 0.62713 0.0
H714 H 0.87006 0.85518 0.59646 0.0
H715 H 0.89512 0.81448 0.65473 0.0
C716 C 0.13479 0.33954 0.32967 0.0
C717 C 0.14187 0.37239 0.27344 0.0
C718 C 0.08201 0.33415 0.20399 0.0
C719 C 0.06572 0.31296 0.26866 0.0
N720 N 0.07923 0.29062 0.39176 0.0
N721 N 0.13514 0.38926 0.14784 0.0
C722 C 0.09341 0.3133 0.33089 0.0
C723 C 0.11994 0.36526 0.2069 0.0
N724 N 0.16807 0.33258 0.37998 0.0
N725 N 0.06079 0.32448 0.14063 0.0
H726 H 0.16519 0.4091 0.14949 0.0
H727 H 0.11901 0.38936 0.09808 0.0
H728 H 0.03435 0.3003 0.13795 0.0
H729 H 0.07093 0.3375 0.09074 0.0
H730 H 0.16586 0.30711 0.41985 0.0
H731 H 0.20045 0.34797 0.37516 0.0
H732 H 0.09568 0.29396 0.44107 0.0
H733 H 0.04955 0.27028 0.39343 0.0
C734 C 0.65737 0.6438 0.83338 0.0
C735 C 0.62804 0.65351 0.77423 0.0
C736 C 0.66726 0.59277 0.70688 0.0
C737 C 0.68433 0.57437 0.77274 0.0
N738 N 0.69923 0.58449 0.89878 0.0
N739 N 0.61487 0.64665 0.64792 0.0
C740 C 0.6813 0.60096 0.83591 0.0
C741 C 0.63698 0.63143 0.7082 0.0
N742 N 0.66314 0.67585 0.88575 0.0
N743 N 0.6802 0.57311 0.64364 0.0
H744 H 0.59535 0.6769 0.64817 0.0
H745 H 0.61526 0.62956 0.59903 0.0
H746 H 0.70326 0.54565 0.64194 0.0
H747 H 0.67158 0.58626 0.59324 0.0
H748 H 0.68611 0.67164 0.92811 0.0
H749 H 0.64979 0.70914 0.88075 0.0
H750 H 0.6934 0.60006 0.94819 0.0
H751 H 0.71777 0.55373 0.90178 0.0
C752 C 0.62794 0.85017 0.66919 0.0
C753 C 0.6393 0.87787 0.72925 0.0
C754 C 0.58817 0.82977 0.80407 0.0
C755 C 0.56715 0.81327 0.74052 0.0
N756 N 0.56875 0.804 0.61243 0.0
N757 N 0.6412 0.88499 0.85736 0.0
C758 C 0.58811 0.82157 0.673 0.0
C759 C 0.62342 0.86398 0.79827 0.0
N760 N 0.65555 0.85028 0.60979 0.0
N761 N 0.57315 0.81359 0.86932 0.0
H762 H 0.66905 0.90772 0.8532 0.0
H763 H 0.62882 0.8803 0.90944 0.0
H764 H 0.54759 0.78836 0.8739 0.0
H765 H 0.58779 0.82238 0.91821 0.0
H766 H 0.64993 0.82893 0.56597 0.0
H767 H 0.68764 0.86639 0.60908 0.0
H768 H 0.57921 0.81352 0.56072 0.0
H769 H 0.54064 0.78149 0.61446 0.0
C770 C 0.18126 0.11228 0.33209 0.0
C771 C 0.20253 0.09603 0.26849 0.0
C772 C 0.17141 0.16223 0.20275 0.0
C773 C 0.13823 0.16739 0.25811 0.0
N774 N 0.12324 0.1629 0.38442 0.0
N775 N 0.22485 0.10957 0.14569 0.0
C776 C 0.14785 0.1481 0.32657 0.0
C777 C 0.2009 0.12311 0.20492 0.0
N778 N 0.1914 0.09127 0.3961 0.0
N779 N 0.17447 0.1945 0.14907 0.0
H780 H 0.2475 0.08168 0.14742 0.0
H781 H 0.22099 0.12489 0.09516 0.0
H782 H 0.15536 0.22495 0.15058 0.0
H783 H 0.19956 0.19378 0.10899 0.0
H784 H 0.17723 0.10045 0.44527 0.0
H785 H 0.2163 0.06544 0.39962 0.0
H786 H 0.12619 0.14939 0.43618 0.0
H787 H 0.10015 0.19034 0.37957 0.0
C788 C 0.89117 0.69703 0.70533 0.0
C789 C 0.91786 0.69878 0.76845 0.0
C790 C 0.86495 0.64503 0.82929 0.0
C791 C 0.84415 0.63689 0.76217 0.0
N792 N 0.81761 0.67539 0.6547 0.0
N793 N 0.92099 0.68931 0.89697 0.0
C794 C 0.85042 0.66996 0.70615 0.0
C795 C 0.90119 0.67804 0.83311 0.0
N796 N 0.90604 0.71856 0.64391 0.0
N797 N 0.85123 0.61937 0.88749 0.0
H798 H 0.94679 0.7143 0.89998 0.0
H799 H 0.90981 0.67693 0.94675 0.0
H800 H 0.82298 0.59706 0.8846 0.0
H801 H 0.86734 0.61988 0.93728 0.0
H802 H 0.89019 0.71417 0.59432 0.0
H803 H 0.9357 0.73894 0.64234 0.0
H804 H 0.8195 0.70079 0.61466 0.0
H805 H 0.78591 0.6585 0.6585 0.0
C806 C 0.41404 0.43286 0.23228 0.0
C807 C 0.40644 0.38473 0.23749 0.0
C808 C 0.32338 0.40305 0.2332 0.0
C809 C 0.33476 0.44996 0.21549 0.0
N810 N 0.39277 0.49796 0.15951 0.0
N811 N 0.35048 0.32297 0.23659 0.0
C812 C 0.38082 0.45958 0.19822 0.0
C813 C 0.35984 0.36909 0.23484 0.0
N814 N 0.44807 0.45449 0.26922 0.0
N815 N 0.27926 0.39111 0.24964 0.0
H816 H 0.37632 0.29835 0.24323 0.0
H817 H 0.31756 0.30962 0.22906 0.0
H818 H 0.25217 0.41426 0.24431 0.0
H819 H 0.27009 0.35861 0.26975 0.0
H820 H 0.45115 0.49047 0.26846 0.0
H821 H 0.468 0.4378 0.30794 0.0
H822 H 0.427 0.50628 0.14918 0.0
H823 H 0.36812 0.51847 0.13392 0.0
loop_
_geom_bond_atom_site_label_1
_geom_bond_atom_site_label_2
_geom_bond_distance
_geom_bond_site_symmetry_2
_ccdc_geom_bond_type
C0 O12 1.241 . S
C0 O13 1.280 . S
C1 O14 1.277 . S
C1 O15 1.245 . S
C2 O26 1.247 . S
C2 O28 1.289 . S
Mg3 O4 1.926 . S
Mg3 O13 1.984 . S
Mg3 O15 1.988 . S
Mg3 O16 2.061 . S
O4 Mg3 1.926 . S
O4 Mg5 1.986 . S
O4 Mg6 1.917 . S
Mg5 O4 1.986 . S
Mg5 O12 2.042 . S
Mg5 O14 2.041 . S
Mg5 O20 2.038 . S
Mg5 O28 2.238 . S
Mg6 O4 1.917 . S
Mg6 O7 1.917 . S
Mg6 O17 2.106 . S
Mg6 O19 2.079 . S
Mg6 O28 2.106 . S
Mg6 O29 2.079 . S
O7 Mg6 1.917 . S
O7 Mg8 1.926 . S
O7 Mg9 1.986 . S
Mg8 O7 1.926 . S
Mg8 O22 1.984 . S
Mg8 O25 1.988 . S
Mg8 O26 2.061 . S
Mg9 O7 1.986 . S
Mg9 O17 2.238 . S
Mg9 O21 2.042 . S
Mg9 O23 2.041 . S
Mg9 O30 2.038 . S
C10 O16 1.247 . S
C10 O17 1.289 . S
C11 O29 1.245 . S
C11 O30 1.274 . S
O12 C0 1.241 . S
O12 Mg5 2.042 . S
O13 C0 1.280 . S
O13 Mg3 1.984 . S
O14 C1 1.277 . S
O14 Mg5 2.041 . S
O15 C1 1.245 . S
O15 Mg3 1.988 . S
O16 Mg3 2.061 . S
O16 C10 1.247 . S
O17 Mg6 2.106 . S
O17 Mg9 2.238 . S
O17 C10 1.289 . S
C18 O19 1.245 . S
C18 O20 1.274 . S
O19 Mg6 2.079 . S
O19 C18 1.245 . S
O20 Mg5 2.038 . S
O20 C18 1.274 . S
O21 Mg9 2.042 . S
O21 C24 1.241 . S
O22 Mg8 1.984 . S
O22 C24 1.280 . S
O23 Mg9 2.041 . S
O23 C27 1.277 . S
C24 O21 1.241 . S
C24 O22 1.280 . S
O25 Mg8 1.988 . S
O25 C27 1.245 . S
O26 C2 1.247 . S
O26 Mg8 2.061 . S
C27 O23 1.277 . S
C27 O25 1.245 . S
O28 C2 1.289 . S
O28 Mg5 2.238 . S
O28 Mg6 2.106 . S
O29 Mg6 2.079 . S
O29 C11 1.245 . S
O30 Mg9 2.038 . S
O30 C11 1.274 . S
C31 O43 1.241 1_565 S
C31 O44 1.280 . S
C32 O45 1.277 . S
C32 O46 1.245 . S
C33 O57 1.247 . S
C33 O59 1.289 . S
Mg34 O35 1.926 1_565 S
Mg34 O44 1.984 . S
Mg34 O46 1.988 . S
Mg34 O47 2.061 . S
O35 Mg34 1.926 1_545 S
O35 Mg36 1.986 . S
O35 Mg37 1.917 . S
Mg36 O35 1.986 . S
Mg36 O43 2.042 . S
Mg36 O45 2.041 1_545 S
Mg36 O51 2.038 . S
Mg36 O59 2.238 . S
Mg37 O35 1.917 . S
Mg37 O38 1.917 . S
Mg37 O48 2.106 . S
Mg37 O50 2.079 . S
Mg37 O59 2.106 . S
Mg37 O60 2.068 1_545 S
O38 Mg37 1.917 . S
O38 Mg39 1.926 . S
O38 Mg40 1.986 . S
Mg39 O38 1.926 . S
Mg39 O53 1.984 . S
Mg39 O56 1.988 . S
Mg39 O57 2.061 . S
Mg40 O38 1.986 . S
Mg40 O48 2.238 . S
Mg40 O52 2.042 . S
Mg40 O54 2.041 . S
Mg40 O61 2.038 . S
C41 O47 1.247 1_545 S
C41 O48 1.289 . S
C42 O60 1.246 . S
C42 O61 1.274 1_565 S
O43 C31 1.241 1_545 S
O43 Mg36 2.042 . S
O44 C31 1.280 . S
O44 Mg34 1.984 . S
O45 C32 1.277 . S
O45 Mg36 2.041 1_565 S
O46 C32 1.245 . S
O46 Mg34 1.988 . S
O47 Mg34 2.061 . S
O47 C41 1.247 1_565 S
O48 Mg37 2.106 . S
O48 Mg40 2.238 . S
O48 C41 1.289 . S
C49 O50 1.245 . S
C49 O51 1.274 . S
O50 Mg37 2.079 . S
O50 C49 1.245 . S
O51 Mg36 2.038 . S
O51 C49 1.274 . S
O52 Mg40 2.042 . S
O52 C55 1.241 . S
O53 Mg39 1.984 . S
O53 C55 1.280 . S
O54 Mg40 2.041 . S
O54 C58 1.277 . S
C55 O52 1.241 . S
C55 O53 1.280 . S
O56 Mg39 1.988 . S
O56 C58 1.245 . S
O57 C33 1.247 . S
O57 Mg39 2.061 . S
C58 O54 1.277 . S
C58 O56 1.245 . S
O59 C33 1.289 . S
O59 Mg36 2.238 . S
O59 Mg37 2.106 . S
O60 Mg37 2.068 1_565 S
O60 C42 1.246 . S
O61 Mg40 2.038 . S
O61 C42 1.274 1_545 S
C62 O74 1.241 1_455 S
C62 O75 1.280 . S
C63 O76 1.277 . S
C63 O77 1.245 . S
C64 O88 1.247 . S
C64 O90 1.289 . S
Mg65 O66 1.926 1_455 S
Mg65 O75 1.984 . S
Mg65 O77 1.988 . S
Mg65 O78 2.061 . S
O66 Mg65 1.926 1_655 S
O66 Mg67 1.986 . S
O66 Mg68 1.917 . S
Mg67 O66 1.986 . S
Mg67 O74 2.042 . S
Mg67 O76 2.041 1_655 S
Mg67 O82 2.038 . S
Mg67 O90 2.238 . S
Mg68 O66 1.917 . S
Mg68 O69 1.917 . S
Mg68 O79 2.106 . S
Mg68 O81 2.079 . S
Mg68 O90 2.106 . S
Mg68 O91 2.068 1_655 S
O69 Mg68 1.917 . S
O69 Mg70 1.926 . S
O69 Mg71 1.986 . S
Mg70 O69 1.926 . S
Mg70 O84 1.984 . S
Mg70 O87 1.988 . S
Mg70 O88 2.061 . S
Mg71 O69 1.986 . S
Mg71 O79 2.238 . S
Mg71 O83 2.042 . S
Mg71 O85 2.041 . S
Mg71 O92 2.038 . S
C72 O78 1.247 1_655 S
C72 O79 1.289 . S
C73 O91 1.246 . S
C73 O92 1.274 1_455 S
O74 C62 1.241 1_655 S
O74 Mg67 2.042 . S
O75 C62 1.280 . S
O75 Mg65 1.984 . S
O76 C63 1.277 . S
O76 Mg67 2.041 1_455 S
O77 C63 1.245 . S
O77 Mg65 1.988 . S
O78 Mg65 2.061 . S
O78 C72 1.247 1_455 S
O79 Mg68 2.106 . S
O79 Mg71 2.238 . S
O79 C72 1.289 . S
C80 O81 1.245 . S
C80 O82 1.274 . S
O81 Mg68 2.079 . S
O81 C80 1.245 . S
O82 Mg67 2.038 . S
O82 C80 1.274 . S
O83 Mg71 2.042 . S
O83 C86 1.241 . S
O84 Mg70 1.984 . S
O84 C86 1.280 . S
O85 Mg71 2.041 . S
O85 C89 1.277 . S
C86 O83 1.241 . S
C86 O84 1.280 . S
O87 Mg70 1.988 . S
O87 C89 1.245 . S
O88 C64 1.247 . S
O88 Mg70 2.061 . S
C89 O85 1.277 . S
C89 O87 1.245 . S
O90 C64 1.289 . S
O90 Mg67 2.238 . S
O90 Mg68 2.106 . S
O91 Mg68 2.068 1_455 S
O91 C73 1.246 . S
O92 Mg71 2.038 . S
O92 C73 1.274 1_655 S
C93 O105 1.241 . S
C93 O106 1.280 . S
C94 O107 1.277 . S
C94 O108 1.245 . S
C95 O119 1.247 . S
C95 O121 1.289 . S
Mg96 O97 1.926 . S
Mg96 O106 1.984 . S
Mg96 O108 1.988 . S
Mg96 O109 2.061 . S
O97 Mg96 1.926 . S
O97 Mg98 1.986 . S
O97 Mg99 1.917 . S
Mg98 O97 1.986 . S
Mg98 O105 2.042 . S
Mg98 O107 2.041 . S
Mg98 O113 2.038 . S
Mg98 O121 2.238 . S
Mg99 O97 1.917 . S
Mg99 O100 1.917 . S
Mg99 O110 2.106 . S
Mg99 O112 2.079 . S
Mg99 O121 2.106 . S
Mg99 O122 2.079 . S
O100 Mg99 1.917 . S
O100 Mg101 1.926 . S
O100 Mg102 1.986 . S
Mg101 O100 1.926 . S
Mg101 O115 1.984 . S
Mg101 O118 1.988 . S
Mg101 O119 2.061 . S
Mg102 O100 1.986 . S
Mg102 O110 2.238 . S
Mg102 O114 2.042 . S
Mg102 O116 2.041 . S
Mg102 O123 2.038 . S
C103 O109 1.247 . S
C103 O110 1.289 . S
C104 O122 1.245 . S
C104 O123 1.274 . S
O105 C93 1.241 . S
O105 Mg98 2.042 . S
O106 C93 1.280 . S
O106 Mg96 1.984 . S
O107 C94 1.277 . S
O107 Mg98 2.041 . S
O108 C94 1.245 . S
O108 Mg96 1.988 . S
O109 Mg96 2.061 . S
O109 C103 1.247 . S
O110 Mg99 2.106 . S
O110 Mg102 2.238 . S
O110 C103 1.289 . S
C111 O112 1.245 . S
C111 O113 1.274 . S
O112 Mg99 2.079 . S
O112 C111 1.245 . S
O113 Mg98 2.038 . S
O113 C111 1.274 . S
O114 Mg102 2.042 . S
O114 C117 1.241 . S
O115 Mg101 1.984 . S
O115 C117 1.280 . S
O116 Mg102 2.041 . S
O116 C120 1.277 . S
C117 O114 1.241 . S
C117 O115 1.280 . S
O118 Mg101 1.988 . S
O118 C120 1.245 . S
O119 C95 1.247 . S
O119 Mg101 2.061 . S
C120 O116 1.277 . S
C120 O118 1.245 . S
O121 C95 1.289 . S
O121 Mg98 2.238 . S
O121 Mg99 2.106 . S
O122 Mg99 2.079 . S
O122 C104 1.245 . S
O123 Mg102 2.038 . S
O123 C104 1.274 . S
C124 O136 1.241 . S
C124 O137 1.280 . S
C125 O138 1.277 . S
C125 O139 1.245 . S
C126 O150 1.247 . S
C126 O152 1.289 . S
Mg127 O128 1.926 . S
Mg127 O137 1.984 . S
Mg127 O139 1.988 . S
Mg127 O140 2.061 . S
O128 Mg127 1.926 . S
O128 Mg129 1.986 . S
O128 Mg130 1.917 . S
Mg129 O128 1.986 . S
Mg129 O136 2.042 . S
Mg129 O138 2.041 . S
Mg129 O144 2.038 . S
Mg129 O152 2.238 . S
Mg130 O128 1.917 . S
Mg130 O131 1.917 . S
Mg130 O141 2.106 . S
Mg130 O143 2.079 . S
Mg130 O152 2.106 . S
Mg130 O153 2.079 . S
O131 Mg130 1.917 . S
O131 Mg132 1.926 . S
O131 Mg133 1.986 . S
Mg132 O131 1.926 . S
Mg132 O146 1.984 . S
Mg132 O149 1.988 . S
Mg132 O150 2.061 . S
Mg133 O131 1.986 . S
Mg133 O141 2.238 . S
Mg133 O145 2.042 . S
Mg133 O147 2.041 . S
Mg133 O154 2.038 . S
C134 O140 1.247 . S
C134 O141 1.289 . S
C135 O153 1.245 . S
C135 O154 1.274 . S
O136 C124 1.241 . S
O136 Mg129 2.042 . S
O137 C124 1.280 . S
O137 Mg127 1.984 . S
O138 C125 1.277 . S
O138 Mg129 2.041 . S
O139 C125 1.245 . S
O139 Mg127 1.988 . S
O140 Mg127 2.061 . S
O140 C134 1.247 . S
O141 Mg130 2.106 . S
O141 Mg133 2.238 . S
O141 C134 1.289 . S
C142 O143 1.245 . S
C142 O144 1.274 . S
O143 Mg130 2.079 . S
O143 C142 1.245 . S
O144 Mg129 2.038 . S
O144 C142 1.274 . S
O145 Mg133 2.042 . S
O145 C148 1.241 . S
O146 Mg132 1.984 . S
O146 C148 1.280 . S
O147 Mg133 2.041 . S
O147 C151 1.277 . S
C148 O145 1.241 . S
C148 O146 1.280 . S
O149 Mg132 1.988 . S
O149 C151 1.245 . S
O150 C126 1.247 . S
O150 Mg132 2.061 . S
C151 O147 1.277 . S
C151 O149 1.245 . S
O152 C126 1.289 . S
O152 Mg129 2.238 . S
O152 Mg130 2.106 . S
O153 Mg130 2.079 . S
O153 C135 1.245 . S
O154 Mg133 2.038 . S
O154 C135 1.274 . S
C155 O167 1.241 . S
C155 O168 1.280 . S
C156 O169 1.277 . S
C156 O170 1.245 . S
C157 O181 1.247 1_565 S
C157 O183 1.289 . S
Mg158 O159 1.926 . S
Mg158 O168 1.984 . S
Mg158 O170 1.988 . S
Mg158 O171 2.061 . S
O159 Mg158 1.926 . S
O159 Mg160 1.986 . S
O159 Mg161 1.917 . S
Mg160 O159 1.986 . S
Mg160 O167 2.042 . S
Mg160 O169 2.041 . S
Mg160 O175 2.038 . S
Mg160 O183 2.238 . S
Mg161 O159 1.917 . S
Mg161 O162 1.917 . S
Mg161 O172 2.106 . S
Mg161 O174 2.068 1_565 S
Mg161 O183 2.106 . S
Mg161 O184 2.079 . S
O162 Mg161 1.917 . S
O162 Mg163 1.926 1_565 S
O162 Mg164 1.986 . S
Mg163 O162 1.926 1_545 S
Mg163 O177 1.984 . S
Mg163 O180 1.988 . S
Mg163 O181 2.061 . S
Mg164 O162 1.986 . S
Mg164 O172 2.238 . S
Mg164 O176 2.042 . S
Mg164 O178 2.041 1_565 S
Mg164 O185 2.038 . S
C165 O171 1.247 . S
C165 O172 1.289 . S
C166 O184 1.245 . S
C166 O185 1.274 . S
O167 C155 1.241 . S
O167 Mg160 2.042 . S
O168 C155 1.280 . S
O168 Mg158 1.984 . S
O169 C156 1.277 . S
O169 Mg160 2.041 . S
O170 C156 1.245 . S
O170 Mg158 1.988 . S
O171 Mg158 2.061 . S
O171 C165 1.247 . S
O172 Mg161 2.106 . S
O172 Mg164 2.238 . S
O172 C165 1.289 . S
C173 O174 1.246 . S
C173 O175 1.274 1_545 S
O174 Mg161 2.068 1_545 S
O174 C173 1.246 . S
O175 Mg160 2.038 . S
O175 C173 1.274 1_565 S
O176 Mg164 2.042 . S
O176 C179 1.241 1_565 S
O177 Mg163 1.984 . S
O177 C179 1.280 . S
O178 Mg164 2.041 1_545 S
O178 C182 1.277 . S
C179 O176 1.241 1_545 S
C179 O177 1.280 . S
O180 Mg163 1.988 . S
O180 C182 1.245 . S
O181 C157 1.247 1_545 S
O181 Mg163 2.061 . S
C182 O178 1.277 . S
C182 O180 1.245 . S
O183 C157 1.289 . S
O183 Mg160 2.238 . S
O183 Mg161 2.106 . S
O184 Mg161 2.079 . S
O184 C166 1.245 . S
O185 Mg164 2.038 . S
O185 C166 1.274 . S
C186 O198 1.241 . S
C186 O199 1.280 . S
C187 O200 1.277 . S
C187 O201 1.245 . S
C188 O212 1.247 1_455 S
C188 O214 1.289 . S
Mg189 O190 1.926 . S
Mg189 O199 1.984 . S
Mg189 O201 1.988 . S
Mg189 O202 2.061 . S
O190 Mg189 1.926 . S
O190 Mg191 1.986 . S
O190 Mg192 1.917 . S
Mg191 O190 1.986 . S
Mg191 O198 2.042 . S
Mg191 O200 2.041 . S
Mg191 O206 2.038 . S
Mg191 O214 2.238 . S
Mg192 O190 1.917 . S
Mg192 O193 1.917 . S
Mg192 O203 2.106 . S
Mg192 O205 2.068 1_455 S
Mg192 O214 2.106 . S
Mg192 O215 2.079 . S
O193 Mg192 1.917 . S
O193 Mg194 1.926 1_455 S
O193 Mg195 1.986 . S
Mg194 O193 1.926 1_655 S
Mg194 O208 1.984 . S
Mg194 O211 1.988 . S
Mg194 O212 2.061 . S
Mg195 O193 1.986 . S
Mg195 O203 2.238 . S
Mg195 O207 2.042 . S
Mg195 O209 2.041 1_455 S
Mg195 O216 2.038 . S
C196 O202 1.247 . S
C196 O203 1.289 . S
C197 O215 1.245 . S
C197 O216 1.274 . S
O198 C186 1.241 . S
O198 Mg191 2.042 . S
O199 C186 1.280 . S
O199 Mg189 1.984 . S
O200 C187 1.277 . S
O200 Mg191 2.041 . S
O201 C187 1.245 . S
O201 Mg189 1.988 . S
O202 Mg189 2.061 . S
O202 C196 1.247 . S
O203 Mg192 2.106 . S
O203 Mg195 2.238 . S
O203 C196 1.289 . S
C204 O205 1.246 . S
C204 O206 1.274 1_655 S
O205 Mg192 2.068 1_655 S
O205 C204 1.246 . S
O206 Mg191 2.038 . S
O206 C204 1.274 1_455 S
O207 Mg195 2.042 . S
O207 C210 1.241 1_455 S
O208 Mg194 1.984 . S
O208 C210 1.280 . S
O209 Mg195 2.041 1_655 S
O209 C213 1.277 . S
C210 O207 1.241 1_655 S
C210 O208 1.280 . S
O211 Mg194 1.988 . S
O211 C213 1.245 . S
O212 C188 1.247 1_655 S
O212 Mg194 2.061 . S
C213 O209 1.277 . S
C213 O211 1.245 . S
O214 C188 1.289 . S
O214 Mg191 2.238 . S
O214 Mg192 2.106 . S
O215 Mg192 2.079 . S
O215 C197 1.245 . S
O216 Mg195 2.038 . S
O216 C197 1.274 . S
C217 O229 1.241 . S
C217 O230 1.280 . S
C218 O231 1.277 . S
C218 O232 1.245 . S
C219 O243 1.247 . S
C219 O245 1.289 . S
Mg220 O221 1.926 . S
Mg220 O230 1.984 . S
Mg220 O232 1.988 . S
Mg220 O233 2.061 . S
O221 Mg220 1.926 . S
O221 Mg222 1.986 . S
O221 Mg223 1.917 . S
Mg222 O221 1.986 . S
Mg222 O229 2.042 . S
Mg222 O231 2.041 . S
Mg222 O237 2.038 . S
Mg222 O245 2.238 . S
Mg223 O221 1.917 . S
Mg223 O224 1.917 . S
Mg223 O234 2.106 . S
Mg223 O236 2.079 . S
Mg223 O245 2.106 . S
Mg223 O246 2.079 . S
O224 Mg223 1.917 . S
O224 Mg225 1.926 . S
O224 Mg226 1.986 . S
Mg225 O224 1.926 . S
Mg225 O239 1.984 . S
Mg225 O242 1.988 . S
Mg225 O243 2.061 . S
Mg226 O224 1.986 . S
Mg226 O234 2.238 . S
Mg226 O238 2.042 . S
Mg226 O240 2.041 . S
Mg226 O247 2.038 . S
C227 O233 1.247 . S
C227 O234 1.289 . S
C228 O246 1.245 . S
C228 O247 1.274 . S
O229 C217 1.241 . S
O229 Mg222 2.042 . S
O230 C217 1.280 . S
O230 Mg220 1.984 . S
O231 C218 1.277 . S
O231 Mg222 2.041 . S
O232 C218 1.245 . S
O232 Mg220 1.988 . S
O233 Mg220 2.061 . S
O233 C227 1.247 . S
O234 Mg223 2.106 . S
O234 Mg226 2.238 . S
O234 C227 1.289 . S
C235 O236 1.245 . S
C235 O237 1.274 . S
O236 Mg223 2.079 . S
O236 C235 1.245 . S
O237 Mg222 2.038 . S
O237 C235 1.274 . S
O238 Mg226 2.042 . S
O238 C241 1.241 . S
O239 Mg225 1.984 . S
O239 C241 1.280 . S
O240 Mg226 2.041 . S
O240 C244 1.277 . S
C241 O238 1.241 . S
C241 O239 1.280 . S
O242 Mg225 1.988 . S
O242 C244 1.245 . S
O243 C219 1.247 . S
O243 Mg225 2.061 . S
C244 O240 1.277 . S
C244 O242 1.245 . S
O245 C219 1.289 . S
O245 Mg222 2.238 . S
O245 Mg223 2.106 . S
O246 Mg223 2.079 . S
O246 C228 1.245 . S
O247 Mg226 2.038 . S
O247 C228 1.274 . S
C248 C249 1.363 . S
C248 C254 1.379 . S
C248 N256 1.356 . S
C249 C248 1.363 . S
C249 C255 1.363 . S
C250 C251 1.363 . S
C250 C255 1.379 . S
C250 N257 1.356 . S
C251 C250 1.363 . S
C251 C254 1.363 . S
N252 C254 1.356 . S
N252 H264 0.984 . S
N252 H265 0.985 . S
N253 C255 1.356 . S
N253 H258 0.984 . S
N253 H259 0.985 . S
C254 C248 1.379 . S
C254 C251 1.363 . S
C254 N252 1.356 . S
C255 C249 1.363 . S
C255 C250 1.379 . S
C255 N253 1.356 . S
N256 C248 1.356 . S
N256 H262 0.984 . S
N256 H263 0.984 . S
N257 C250 1.356 . S
N257 H260 0.984 . S
N257 H261 0.985 . S
H258 N253 0.984 . S
H259 N253 0.985 . S
H260 N257 0.984 . S
H261 N257 0.985 . S
H262 N256 0.984 . S
H263 N256 0.984 . S
H264 N252 0.984 . S
H265 N252 0.985 . S
C266 C267 1.363 . S
C266 C272 1.379 1_556 S
C266 N274 1.356 . S
C267 C266 1.363 . S
C267 C273 1.363 . S
C268 C269 1.363 . S
C268 C273 1.379 1_554 S
C268 N275 1.356 . S
C269 C268 1.363 . S
C269 C272 1.363 . S
N270 C272 1.356 . S
N270 H282 0.984 . S
N270 H283 0.985 . S
N271 C273 1.356 . S
N271 H276 0.984 . S
N271 H277 0.985 . S
C272 C266 1.379 1_554 S
C272 C269 1.363 . S
C272 N270 1.356 . S
C273 C267 1.363 . S
C273 C268 1.379 1_556 S
C273 N271 1.356 . S
N274 C266 1.356 . S
N274 H280 0.984 . S
N274 H281 0.984 . S
N275 C268 1.356 . S
N275 H278 0.984 . S
N275 H279 0.985 . S
H276 N271 0.984 . S
H277 N271 0.985 . S
H278 N275 0.984 . S
H279 N275 0.985 . S
H280 N274 0.984 . S
H281 N274 0.984 . S
H282 N270 0.984 . S
H283 N270 0.985 . S
C284 C285 1.363 . S
C284 C290 1.379 . S
C284 N292 1.356 . S
C285 C284 1.363 . S
C285 C291 1.363 . S
C286 C287 1.363 . S
C286 C291 1.379 . S
C286 N293 1.356 . S
C287 C286 1.363 . S
C287 C290 1.363 . S
N288 C290 1.356 . S
N288 H300 0.984 . S
N288 H301 0.985 . S
N289 C291 1.356 . S
N289 H294 0.984 . S
N289 H295 0.985 . S
C290 C284 1.379 . S
C290 C287 1.363 . S
C290 N288 1.356 . S
C291 C285 1.363 . S
C291 C286 1.379 . S
C291 N289 1.356 . S
N292 C284 1.356 . S
N292 H298 0.984 . S
N292 H299 0.984 . S
N293 C286 1.356 . S
N293 H296 0.984 . S
N293 H297 0.985 . S
H294 N289 0.984 . S
H295 N289 0.985 . S
H296 N293 0.984 . S
H297 N293 0.985 . S
H298 N292 0.984 . S
H299 N292 0.984 . S
H300 N288 0.984 . S
H301 N288 0.985 . S
C302 C303 1.363 . S
C302 C308 1.379 1_554 S
C302 N310 1.356 . S
C303 C302 1.363 . S
C303 C309 1.363 . S
C304 C305 1.363 . S
C304 C309 1.379 1_556 S
C304 N311 1.356 . S
C305 C304 1.363 . S
C305 C308 1.363 . S
N306 C308 1.356 . S
N306 H318 0.984 . S
N306 H319 0.985 . S
N307 C309 1.356 . S
N307 H312 0.984 . S
N307 H313 0.985 . S
C308 C302 1.379 1_556 S
C308 C305 1.363 . S
C308 N306 1.356 . S
C309 C303 1.363 . S
C309 C304 1.379 1_554 S
C309 N307 1.356 . S
N310 C302 1.356 . S
N310 H316 0.984 . S
N310 H317 0.984 . S
N311 C304 1.356 . S
N311 H314 0.984 . S
N311 H315 0.985 . S
H312 N307 0.984 . S
H313 N307 0.985 . S
H314 N311 0.984 . S
H315 N311 0.985 . S
H316 N310 0.984 . S
H317 N310 0.984 . S
H318 N306 0.984 . S
H319 N306 0.985 . S
C320 C321 1.363 . S
C320 C326 1.379 . S
C320 N328 1.356 . S
C321 C320 1.363 . S
C321 C327 1.363 . S
C322 C323 1.363 . S
C322 C327 1.379 . S
C322 N329 1.356 . S
C323 C322 1.363 . S
C323 C326 1.363 . S
N324 C326 1.356 . S
N324 H336 0.984 . S
N324 H337 0.985 . S
N325 C327 1.356 . S
N325 H330 0.984 . S
N325 H331 0.985 . S
C326 C320 1.379 . S
C326 C323 1.363 . S
C326 N324 1.356 . S
C327 C321 1.363 . S
C327 C322 1.379 . S
C327 N325 1.356 . S
N328 C320 1.356 . S
N328 H334 0.984 . S
N328 H335 0.984 . S
N329 C322 1.356 . S
N329 H332 0.984 . S
N329 H333 0.985 . S
H330 N325 0.984 . S
H331 N325 0.985 . S
H332 N329 0.984 . S
H333 N329 0.985 . S
H334 N328 0.984 . S
H335 N328 0.984 . S
H336 N324 0.984 . S
H337 N324 0.985 . S
C338 C339 1.363 . S
C338 C344 1.379 1_554 S
C338 N346 1.356 . S
C339 C338 1.363 . S
C339 C345 1.363 . S
C340 C341 1.363 . S
C340 C345 1.379 1_556 S
C340 N347 1.356 . S
C341 C340 1.363 . S
C341 C344 1.363 . S
N342 C344 1.356 . S
N342 H354 0.984 . S
N342 H355 0.985 . S
N343 C345 1.356 . S
N343 H348 0.984 . S
N343 H349 0.985 . S
C344 C338 1.379 1_556 S
C344 C341 1.363 . S
C344 N342 1.356 . S
C345 C339 1.363 . S
C345 C340 1.379 1_554 S
C345 N343 1.356 . S
N346 C338 1.356 . S
N346 H352 0.984 . S
N346 H353 0.984 . S
N347 C340 1.356 . S
N347 H350 0.984 . S
N347 H351 0.985 . S
H348 N343 0.984 . S
H349 N343 0.985 . S
H350 N347 0.984 . S
H351 N347 0.985 . S
H352 N346 0.984 . S
H353 N346 0.984 . S
H354 N342 0.984 . S
H355 N342 0.985 . S
C356 C357 1.363 . S
C356 C362 1.379 . S
C356 N364 1.356 . S
C357 C356 1.363 . S
C357 C363 1.363 . S
C358 C359 1.363 . S
C358 C363 1.379 . S
C358 N365 1.356 . S
C359 C358 1.363 . S
C359 C362 1.363 . S
N360 C362 1.356 . S
N360 H372 0.984 . S
N360 H373 0.985 . S
N361 C363 1.356 . S
N361 H366 0.984 . S
N361 H367 0.985 . S
C362 C356 1.379 . S
C362 C359 1.363 . S
C362 N360 1.356 . S
C363 C357 1.363 . S
C363 C358 1.379 . S
C363 N361 1.356 . S
N364 C356 1.356 . S
N364 H370 0.984 . S
N364 H371 0.984 . S
N365 C358 1.356 . S
N365 H368 0.984 . S
N365 H369 0.985 . S
H366 N361 0.984 . S
H367 N361 0.985 . S
H368 N365 0.984 . S
H369 N365 0.985 . S
H370 N364 0.984 . S
H371 N364 0.984 . S
H372 N360 0.984 . S
H373 N360 0.985 . S
C374 C375 1.363 . S
C374 C380 1.379 1_554 S
C374 N382 1.356 . S
C375 C374 1.363 . S
C375 C381 1.363 . S
C376 C377 1.363 . S
C376 C381 1.379 1_556 S
C376 N383 1.356 . S
C377 C376 1.363 . S
C377 C380 1.363 . S
N378 C380 1.356 . S
N378 H390 0.984 . S
N378 H391 0.985 . S
N379 C381 1.356 . S
N379 H384 0.984 . S
N379 H385 0.985 . S
C380 C374 1.379 1_556 S
C380 C377 1.363 . S
C380 N378 1.356 . S
C381 C375 1.363 . S
C381 C376 1.379 1_554 S
C381 N379 1.356 . S
N382 C374 1.356 . S
N382 H388 0.984 . S
N382 H389 0.984 . S
N383 C376 1.356 . S
N383 H386 0.984 . S
N383 H387 0.985 . S
H384 N379 0.984 . S
H385 N379 0.985 . S
H386 N383 0.984 . S
H387 N383 0.985 . S
H388 N382 0.984 . S
H389 N382 0.984 . S
H390 N378 0.984 . S
H391 N378 0.985 . S
C392 C393 1.363 . S
C392 C398 1.379 . S
C392 N400 1.356 . S
C393 C392 1.363 . S
C393 C399 1.363 1_556 S
C394 C395 1.363 . S
C394 C399 1.379 . S
C394 N401 1.356 . S
C395 C394 1.363 . S
C395 C398 1.363 1_554 S
N396 C398 1.356 . S
N396 H408 0.984 . S
N396 H409 0.985 . S
N397 C399 1.356 . S
N397 H402 0.984 . S
N397 H403 0.985 . S
C398 C392 1.379 . S
C398 C395 1.363 1_556 S
C398 N396 1.356 . S
C399 C393 1.363 1_554 S
C399 C394 1.379 . S
C399 N397 1.356 . S
N400 C392 1.356 . S
N400 H406 0.984 . S
N400 H407 0.984 . S
N401 C394 1.356 . S
N401 H404 0.984 . S
N401 H405 0.985 . S
H402 N397 0.984 . S
H403 N397 0.985 . S
H404 N401 0.984 . S
H405 N401 0.985 . S
H406 N400 0.984 . S
H407 N400 0.984 . S
H408 N396 0.984 . S
H409 N396 0.985 . S
C410 C411 1.363 . S
C410 C416 1.379 . S
C410 N418 1.356 . S
C411 C410 1.363 . S
C411 C417 1.363 1_565 S
C412 C413 1.363 . S
C412 C417 1.379 . S
C412 N419 1.356 . S
C413 C412 1.363 . S
C413 C416 1.363 1_545 S
N414 C416 1.356 . S
N414 H426 0.984 . S
N414 H427 0.985 . S
N415 C417 1.356 . S
N415 H420 0.984 . S
N415 H421 0.985 . S
C416 C410 1.379 . S
C416 C413 1.363 1_565 S
C416 N414 1.356 . S
C417 C411 1.363 1_545 S
C417 C412 1.379 . S
C417 N415 1.356 . S
N418 C410 1.356 . S
N418 H424 0.984 . S
N418 H425 0.984 . S
N419 C412 1.356 . S
N419 H422 0.984 . S
N419 H423 0.985 . S
H420 N415 0.984 . S
H421 N415 0.985 . S
H422 N419 0.984 . S
H423 N419 0.985 . S
H424 N418 0.984 . S
H425 N418 0.984 . S
H426 N414 0.984 . S
H427 N414 0.985 . S
C428 C429 1.363 1_554 S
C428 C434 1.379 1_545 S
C428 N436 1.356 . S
C429 C428 1.363 1_556 S
C429 C435 1.363 1_455 S
C430 C431 1.363 1_556 S
C430 C435 1.379 1_565 S
C430 N437 1.356 . S
C431 C430 1.363 1_554 S
C431 C434 1.363 1_655 S
N432 C434 1.356 . S
N432 H444 0.984 . S
N432 H445 0.985 . S
N433 C435 1.356 . S
N433 H438 0.984 . S
N433 H439 0.985 . S
C434 C428 1.379 1_565 S
C434 C431 1.363 1_455 S
C434 N432 1.356 . S
C435 C429 1.363 1_655 S
C435 C430 1.379 1_545 S
C435 N433 1.356 . S
N436 C428 1.356 . S
N436 H442 0.984 . S
N436 H443 0.984 . S
N437 C430 1.356 . S
N437 H440 0.984 . S
N437 H441 0.985 . S
H438 N433 0.984 . S
H439 N433 0.985 . S
H440 N437 0.984 . S
H441 N437 0.985 . S
H442 N436 0.984 . S
H443 N436 0.984 . S
H444 N432 0.984 . S
H445 N432 0.985 . S
C446 C447 1.363 . S
C446 C452 1.379 1_655 S
C446 N454 1.356 . S
C447 C446 1.363 . S
C447 C453 1.363 . S
C448 C449 1.363 . S
C448 C453 1.379 1_455 S
C448 N455 1.356 . S
C449 C448 1.363 . S
C449 C452 1.363 . S
N450 C452 1.356 . S
N450 H462 0.984 . S
N450 H463 0.985 . S
N451 C453 1.356 . S
N451 H456 0.984 . S
N451 H457 0.985 . S
C452 C446 1.379 1_455 S
C452 C449 1.363 . S
C452 N450 1.356 . S
C453 C447 1.363 . S
C453 C448 1.379 1_655 S
C453 N451 1.356 . S
N454 C446 1.356 . S
N454 H460 0.984 . S
N454 H461 0.984 . S
N455 C448 1.356 . S
N455 H458 0.984 . S
N455 H459 0.985 . S
H456 N451 0.984 . S
H457 N451 0.985 . S
H458 N455 0.984 . S
H459 N455 0.985 . S
H460 N454 0.984 . S
H461 N454 0.984 . S
H462 N450 0.984 . S
H463 N450 0.985 . S
C464 C465 1.363 . S
C464 C470 1.379 . S
C464 N472 1.356 . S
C465 C464 1.363 . S
C465 C471 1.363 . S
C466 C467 1.363 . S
C466 C471 1.379 . S
C466 N473 1.356 . S
C467 C466 1.363 . S
C467 C470 1.363 . S
N468 C470 1.356 . S
N468 H480 0.984 . S
N468 H481 0.985 . S
N469 C471 1.356 . S
N469 H474 0.984 . S
N469 H475 0.985 . S
C470 C464 1.379 . S
C470 C467 1.363 . S
C470 N468 1.356 . S
C471 C465 1.363 . S
C471 C466 1.379 . S
C471 N469 1.356 . S
N472 C464 1.356 . S
N472 H478 0.984 . S
N472 H479 0.984 . S
N473 C466 1.356 . S
N473 H476 0.984 . S
N473 H477 0.985 . S
H474 N469 0.984 . S
H475 N469 0.985 . S
H476 N473 0.984 . S
H477 N473 0.985 . S
H478 N472 0.984 . S
H479 N472 0.984 . S
H480 N468 0.984 . S
H481 N468 0.985 . S
C482 C483 1.363 . S
C482 C488 1.379 . S
C482 N490 1.356 . S
C483 C482 1.363 . S
C483 C489 1.363 . S
C484 C485 1.363 . S
C484 C489 1.379 . S
C484 N491 1.356 . S
C485 C484 1.363 . S
C485 C488 1.363 . S
N486 C488 1.356 . S
N486 H498 0.984 . S
N486 H499 0.985 . S
N487 C489 1.356 . S
N487 H492 0.984 . S
N487 H493 0.985 . S
C488 C482 1.379 . S
C488 C485 1.363 . S
C488 N486 1.356 . S
C489 C483 1.363 . S
C489 C484 1.379 . S
C489 N487 1.356 . S
N490 C482 1.356 . S
N490 H496 0.984 . S
N490 H497 0.984 . S
N491 C484 1.356 . S
N491 H494 0.984 . S
N491 H495 0.985 . S
H492 N487 0.984 . S
H493 N487 0.985 . S
H494 N491 0.984 . S
H495 N491 0.985 . S
H496 N490 0.984 . S
H497 N490 0.984 . S
H498 N486 0.984 . S
H499 N486 0.985 . S
C500 C501 1.363 . S
C500 C506 1.379 . S
C500 N508 1.356 . S
C501 C500 1.363 . S
C501 C507 1.363 . S
C502 C503 1.363 . S
C502 C507 1.379 . S
C502 N509 1.356 . S
C503 C502 1.363 . S
C503 C506 1.363 . S
N504 C506 1.356 . S
N504 H516 0.984 . S
N504 H517 0.985 . S
N505 C507 1.356 . S
N505 H510 0.984 . S
N505 H511 0.985 . S
C506 C500 1.379 . S
C506 C503 1.363 . S
C506 N504 1.356 . S
C507 C501 1.363 . S
C507 C502 1.379 . S
C507 N505 1.356 . S
N508 C500 1.356 . S
N508 H514 0.984 . S
N508 H515 0.984 . S
N509 C502 1.356 . S
N509 H512 0.984 . S
N509 H513 0.985 . S
H510 N505 0.984 . S
H511 N505 0.985 . S
H512 N509 0.984 . S
H513 N509 0.985 . S
H514 N508 0.984 . S
H515 N508 0.984 . S
H516 N504 0.984 . S
H517 N504 0.985 . S
C518 C519 1.363 . S
C518 C524 1.379 . S
C518 N526 1.356 . S
C519 C518 1.363 . S
C519 C525 1.363 . S
C520 C521 1.363 . S
C520 C525 1.379 . S
C520 N527 1.356 . S
C521 C520 1.363 . S
C521 C524 1.363 . S
N522 C524 1.356 . S
N522 H534 0.984 . S
N522 H535 0.985 . S
N523 C525 1.356 . S
N523 H528 0.984 . S
N523 H529 0.985 . S
C524 C518 1.379 . S
C524 C521 1.363 . S
C524 N522 1.356 . S
C525 C519 1.363 . S
C525 C520 1.379 . S
C525 N523 1.356 . S
N526 C518 1.356 . S
N526 H532 0.984 . S
N526 H533 0.984 . S
N527 C520 1.356 . S
N527 H530 0.984 . S
N527 H531 0.985 . S
H528 N523 0.984 . S
H529 N523 0.985 . S
H530 N527 0.984 . S
H531 N527 0.985 . S
H532 N526 0.984 . S
H533 N526 0.984 . S
H534 N522 0.984 . S
H535 N522 0.985 . S
C536 C537 1.363 . S
C536 C542 1.379 . S
C536 N544 1.356 1_556 S
C537 C536 1.363 . S
C537 C543 1.363 . S
C538 C539 1.363 . S
C538 C543 1.379 . S
C538 N545 1.356 . S
C539 C538 1.363 . S
C539 C542 1.363 . S
N540 C542 1.356 . S
N540 H552 0.984 1_556 S
N540 H553 0.985 . S
N541 C543 1.356 . S
N541 H546 0.984 . S
N541 H547 0.985 . S
C542 C536 1.379 . S
C542 C539 1.363 . S
C542 N540 1.356 . S
C543 C537 1.363 . S
C543 C538 1.379 . S
C543 N541 1.356 . S
N544 C536 1.356 1_554 S
N544 H550 0.984 . S
N544 H551 0.984 . S
N545 C538 1.356 . S
N545 H548 0.984 . S
N545 H549 0.985 . S
H546 N541 0.984 . S
H547 N541 0.985 . S
H548 N545 0.984 . S
H549 N545 0.985 . S
H550 N544 0.984 . S
H551 N544 0.984 . S
H552 N540 0.984 1_554 S
H553 N540 0.985 . S
C554 C555 1.363 . S
C554 C560 1.379 . S
C554 N562 1.356 . S
C555 C554 1.363 . S
C555 C561 1.363 . S
C556 C557 1.363 . S
C556 C561 1.379 . S
C556 N563 1.356 . S
C557 C556 1.363 . S
C557 C560 1.363 . S
N558 C560 1.356 . S
N558 H570 0.984 . S
N558 H571 0.985 . S
N559 C561 1.356 . S
N559 H564 0.984 . S
N559 H565 0.985 . S
C560 C554 1.379 . S
C560 C557 1.363 . S
C560 N558 1.356 . S
C561 C555 1.363 . S
C561 C556 1.379 . S
C561 N559 1.356 . S
N562 C554 1.356 . S
N562 H568 0.984 1_545 S
N562 H569 0.984 . S
N563 C556 1.356 . S
N563 H566 0.984 . S
N563 H567 0.985 . S
H564 N559 0.984 . S
H565 N559 0.985 . S
H566 N563 0.984 . S
H567 N563 0.985 . S
H568 N562 0.984 1_565 S
H569 N562 0.984 . S
H570 N558 0.984 . S
H571 N558 0.985 . S
C572 C573 1.363 . S
C572 C578 1.379 . S
C572 N580 1.356 . S
C573 C572 1.363 . S
C573 C579 1.363 . S
C574 C575 1.363 . S
C574 C579 1.379 . S
C574 N581 1.356 . S
C575 C574 1.363 . S
C575 C578 1.363 . S
N576 C578 1.356 1_554 S
N576 H588 0.984 . S
N576 H589 0.985 . S
N577 C579 1.356 . S
N577 H582 0.984 . S
N577 H583 0.985 . S
C578 C572 1.379 . S
C578 C575 1.363 . S
C578 N576 1.356 1_556 S
C579 C573 1.363 . S
C579 C574 1.379 . S
C579 N577 1.356 . S
N580 C572 1.356 . S
N580 H586 0.984 1_556 S
N580 H587 0.984 . S
N581 C574 1.356 . S
N581 H584 0.984 . S
N581 H585 0.985 . S
H582 N577 0.984 . S
H583 N577 0.985 . S
H584 N581 0.984 . S
H585 N581 0.985 . S
H586 N580 0.984 1_554 S
H587 N580 0.984 . S
H588 N576 0.984 . S
H589 N576 0.985 . S
C590 C591 1.363 . S
C590 C596 1.379 . S
C590 N598 1.356 . S
C591 C590 1.363 . S
C591 C597 1.363 . S
C592 C593 1.363 . S
C592 C597 1.379 . S
C592 N599 1.356 . S
C593 C592 1.363 . S
C593 C596 1.363 . S
N594 C596 1.356 . S
N594 H606 0.984 . S
N594 H607 0.985 . S
N595 C597 1.356 . S
N595 H600 0.984 . S
N595 H601 0.985 . S
C596 C590 1.379 . S
C596 C593 1.363 . S
C596 N594 1.356 . S
C597 C591 1.363 . S
C597 C592 1.379 . S
C597 N595 1.356 . S
N598 C590 1.356 . S
N598 H604 0.984 . S
N598 H605 0.984 . S
N599 C592 1.356 . S
N599 H602 0.984 . S
N599 H603 0.985 . S
H600 N595 0.984 . S
H601 N595 0.985 . S
H602 N599 0.984 . S
H603 N599 0.985 . S
H604 N598 0.984 . S
H605 N598 0.984 . S
H606 N594 0.984 . S
H607 N594 0.985 . S
C608 C609 1.363 . S
C608 C614 1.379 . S
C608 N616 1.356 1_554 S
C609 C608 1.363 . S
C609 C615 1.363 . S
C610 C611 1.363 . S
C610 C615 1.379 . S
C610 N617 1.356 . S
C611 C610 1.363 . S
C611 C614 1.363 . S
N612 C614 1.356 . S
N612 H624 0.984 . S
N612 H625 0.985 . S
N613 C615 1.356 . S
N613 H618 0.984 . S
N613 H619 0.985 . S
C614 C608 1.379 . S
C614 C611 1.363 . S
C614 N612 1.356 . S
C615 C609 1.363 . S
C615 C610 1.379 . S
C615 N613 1.356 . S
N616 C608 1.356 1_556 S
N616 H622 0.984 . S
N616 H623 0.984 . S
N617 C610 1.356 . S
N617 H620 0.984 . S
N617 H621 0.985 . S
H618 N613 0.984 . S
H619 N613 0.985 . S
H620 N617 0.984 . S
H621 N617 0.985 . S
H622 N616 0.984 . S
H623 N616 0.984 . S
H624 N612 0.984 . S
H625 N612 0.985 . S
C626 C627 1.363 . S
C626 C632 1.379 . S
C626 N634 1.356 . S
C627 C626 1.363 . S
C627 C633 1.363 . S
C628 C629 1.363 . S
C628 C633 1.379 . S
C628 N635 1.356 . S
C629 C628 1.363 . S
C629 C632 1.363 . S
N630 C632 1.356 . S
N630 H642 0.984 . S
N630 H643 0.985 . S
N631 C633 1.356 . S
N631 H636 0.984 . S
N631 H637 0.985 . S
C632 C626 1.379 . S
C632 C629 1.363 . S
C632 N630 1.356 . S
C633 C627 1.363 . S
C633 C628 1.379 . S
C633 N631 1.356 . S
N634 C626 1.356 . S
N634 H640 0.984 . S
N634 H641 0.984 . S
N635 C628 1.356 . S
N635 H638 0.987 . S
N635 H639 0.985 1_565 S
H636 N631 0.984 . S
H637 N631 0.985 . S
H638 N635 0.987 . S
H639 N635 0.985 1_545 S
H640 N634 0.984 . S
H641 N634 0.984 . S
H642 N630 0.984 . S
H643 N630 0.985 . S
C644 C645 1.363 . S
C644 C650 1.379 . S
C644 N652 1.356 . S
C645 C644 1.363 . S
C645 C651 1.363 . S
C646 C647 1.363 . S
C646 C651 1.379 . S
C646 N653 1.356 1_554 S
C647 C646 1.363 . S
C647 C650 1.363 . S
N648 C650 1.356 . S
N648 H660 0.984 . S
N648 H661 0.985 . S
N649 C651 1.356 . S
N649 H654 0.984 . S
N649 H655 0.985 1_554 S
C650 C644 1.379 . S
C650 C647 1.363 . S
C650 N648 1.356 . S
C651 C645 1.363 . S
C651 C646 1.379 . S
C651 N649 1.356 . S
N652 C644 1.356 . S
N652 H658 0.984 . S
N652 H659 0.984 . S
N653 C646 1.356 1_556 S
N653 H656 0.984 . S
N653 H657 0.985 . S
H654 N649 0.984 . S
H655 N649 0.985 1_556 S
H656 N653 0.984 . S
H657 N653 0.985 . S
H658 N652 0.984 . S
H659 N652 0.984 . S
H660 N648 0.984 . S
H661 N648 0.985 . S
C662 C663 1.363 . S
C662 C668 1.379 . S
C662 N670 1.356 . S
C663 C662 1.363 . S
C663 C669 1.363 . S
C664 C665 1.363 . S
C664 C669 1.379 . S
C664 N671 1.356 . S
C665 C664 1.363 . S
C665 C668 1.363 . S
N666 C668 1.356 . S
N666 H678 0.984 . S
N666 H679 0.985 . S
N667 C669 1.356 . S
N667 H672 0.984 . S
N667 H673 0.985 . S
C668 C662 1.379 . S
C668 C665 1.363 . S
C668 N666 1.356 . S
C669 C663 1.363 . S
C669 C664 1.379 . S
C669 N667 1.356 . S
N670 C662 1.356 . S
N670 H676 0.984 . S
N670 H677 0.984 . S
N671 C664 1.356 . S
N671 H674 0.984 . S
N671 H675 0.985 . S
H672 N667 0.984 . S
H673 N667 0.985 . S
H674 N671 0.984 . S
H675 N671 0.985 . S
H676 N670 0.984 . S
H677 N670 0.984 . S
H678 N666 0.984 . S
H679 N666 0.985 . S
C680 C681 1.363 . S
C680 C686 1.379 . S
C680 N688 1.356 . S
C681 C680 1.363 . S
C681 C687 1.363 . S
C682 C683 1.363 . S
C682 C687 1.379 . S
C682 N689 1.356 . S
C683 C682 1.363 . S
C683 C686 1.363 . S
N684 C686 1.356 . S
N684 H696 0.984 . S
N684 H697 0.985 . S
N685 C687 1.356 . S
N685 H690 0.984 . S
N685 H691 0.985 . S
C686 C680 1.379 . S
C686 C683 1.363 . S
C686 N684 1.356 . S
C687 C681 1.363 . S
C687 C682 1.379 . S
C687 N685 1.356 . S
N688 C680 1.356 . S
N688 H694 0.984 . S
N688 H695 0.984 . S
N689 C682 1.356 . S
N689 H692 0.984 . S
N689 H693 0.985 . S
H690 N685 0.984 . S
H691 N685 0.985 . S
H692 N689 0.984 . S
H693 N689 0.985 . S
H694 N688 0.984 . S
H695 N688 0.984 . S
H696 N684 0.984 . S
H697 N684 0.985 . S
C698 C699 1.363 . S
C698 C704 1.379 . S
C698 N706 1.356 . S
C699 C698 1.363 . S
C699 C705 1.363 . S
C700 C701 1.363 . S
C700 C705 1.379 . S
C700 N707 1.356 . S
C701 C700 1.363 . S
C701 C704 1.363 . S
N702 C704 1.356 . S
N702 H714 0.984 . S
N702 H715 0.985 . S
N703 C705 1.356 . S
N703 H708 0.984 1_565 S
N703 H709 0.985 1_565 S
C704 C698 1.379 . S
C704 C701 1.363 . S
C704 N702 1.356 . S
C705 C699 1.363 . S
C705 C700 1.379 . S
C705 N703 1.356 . S
N706 C698 1.356 . S
N706 H712 0.984 . S
N706 H713 0.984 . S
N707 C700 1.356 . S
N707 H710 0.984 . S
N707 H711 0.985 . S
H708 N703 0.984 1_545 S
H709 N703 0.985 1_545 S
H710 N707 0.984 . S
H711 N707 0.985 . S
H712 N706 0.984 . S
H713 N706 0.984 . S
H714 N702 0.984 . S
H715 N702 0.985 . S
C716 C717 1.363 . S
C716 C722 1.379 . S
C716 N724 1.356 . S
C717 C716 1.363 . S
C717 C723 1.363 . S
C718 C719 1.363 . S
C718 C723 1.379 . S
C718 N725 1.356 . S
C719 C718 1.363 . S
C719 C722 1.363 . S
N720 C722 1.356 . S
N720 H732 0.984 . S
N720 H733 0.985 . S
N721 C723 1.356 . S
N721 H726 0.984 . S
N721 H727 0.985 . S
C722 C716 1.379 . S
C722 C719 1.363 . S
C722 N720 1.356 . S
C723 C717 1.363 . S
C723 C718 1.379 . S
C723 N721 1.356 . S
N724 C716 1.356 . S
N724 H730 0.984 . S
N724 H731 0.984 . S
N725 C718 1.356 . S
N725 H728 0.984 1_455 S
N725 H729 0.982 1_455 S
H726 N721 0.984 . S
H727 N721 0.985 . S
H728 N725 0.984 1_655 S
H729 N725 0.982 1_655 S
H730 N724 0.984 . S
H731 N724 0.984 . S
H732 N720 0.984 . S
H733 N720 0.985 . S
C734 C735 1.363 . S
C734 C740 1.379 . S
C734 N742 1.356 . S
C735 C734 1.363 . S
C735 C741 1.363 . S
C736 C737 1.363 . S
C736 C741 1.379 . S
C736 N743 1.356 . S
C737 C736 1.363 . S
C737 C740 1.363 . S
N738 C740 1.356 . S
N738 H750 0.984 . S
N738 H751 0.985 . S
N739 C741 1.356 . S
N739 H744 0.984 . S
N739 H745 0.985 . S
C740 C734 1.379 . S
C740 C737 1.363 . S
C740 N738 1.356 . S
C741 C735 1.363 . S
C741 C736 1.379 . S
C741 N739 1.356 . S
N742 C734 1.356 . S
N742 H748 0.984 . S
N742 H749 0.984 . S
N743 C736 1.356 . S
N743 H746 0.984 . S
N743 H747 0.985 . S
H744 N739 0.984 . S
H745 N739 0.985 . S
H746 N743 0.984 . S
H747 N743 0.985 . S
H748 N742 0.984 . S
H749 N742 0.984 . S
H750 N738 0.984 . S
H751 N738 0.985 . S
C752 C753 1.363 . S
C752 C758 1.379 . S
C752 N760 1.356 . S
C753 C752 1.363 . S
C753 C759 1.363 . S
C754 C755 1.363 . S
C754 C759 1.379 . S
C754 N761 1.356 . S
C755 C754 1.363 . S
C755 C758 1.363 . S
N756 C758 1.356 . S
N756 H768 0.984 . S
N756 H769 0.985 . S
N757 C759 1.356 . S
N757 H762 0.984 . S
N757 H763 0.985 . S
C758 C752 1.379 . S
C758 C755 1.363 . S
C758 N756 1.356 . S
C759 C753 1.363 . S
C759 C754 1.379 . S
C759 N757 1.356 . S
N760 C752 1.356 . S
N760 H766 0.984 . S
N760 H767 0.984 . S
N761 C754 1.356 . S
N761 H764 0.984 . S
N761 H765 0.985 . S
H762 N757 0.984 . S
H763 N757 0.985 . S
H764 N761 0.984 . S
H765 N761 0.985 . S
H766 N760 0.984 . S
H767 N760 0.984 . S
H768 N756 0.984 . S
H769 N756 0.985 . S
C770 C771 1.363 . S
C770 C776 1.379 . S
C770 N778 1.356 . S
C771 C770 1.363 . S
C771 C777 1.363 . S
C772 C773 1.363 . S
C772 C777 1.379 . S
C772 N779 1.356 . S
C773 C772 1.363 . S
C773 C776 1.363 . S
N774 C776 1.356 . S
N774 H786 0.984 . S
N774 H787 0.985 . S
N775 C777 1.356 . S
N775 H780 0.984 . S
N775 H781 0.985 . S
C776 C770 1.379 . S
C776 C773 1.363 . S
C776 N774 1.356 . S
C777 C771 1.363 . S
C777 C772 1.379 . S
C777 N775 1.356 . S
N778 C770 1.356 . S
N778 H784 0.984 . S
N778 H785 0.983 . S
N779 C772 1.356 . S
N779 H782 0.984 . S
N779 H783 0.985 . S
H780 N775 0.984 . S
H781 N775 0.985 . S
H782 N779 0.984 . S
H783 N779 0.985 . S
H784 N778 0.984 . S
H785 N778 0.983 . S
H786 N774 0.984 . S
H787 N774 0.985 . S
C788 C789 1.363 . S
C788 C794 1.379 . S
C788 N796 1.356 . S
C789 C788 1.363 . S
C789 C795 1.363 . S
C790 C791 1.363 . S
C790 C795 1.379 . S
C790 N797 1.356 . S
C791 C790 1.363 . S
C791 C794 1.363 . S
N792 C794 1.356 . S
N792 H804 0.984 . S
N792 H805 0.985 . S
N793 C795 1.356 . S
N793 H798 0.984 1_655 S
N793 H799 0.985 . S
C794 C788 1.379 . S
C794 C791 1.363 . S
C794 N792 1.356 . S
C795 C789 1.363 . S
C795 C790 1.379 . S
C795 N793 1.356 . S
N796 C788 1.356 . S
N796 H802 0.984 . S
N796 H803 0.984 . S
N797 C790 1.356 . S
N797 H800 0.984 . S
N797 H801 0.985 . S
H798 N793 0.984 1_455 S
H799 N793 0.985 . S
H800 N797 0.984 . S
H801 N797 0.985 . S
H802 N796 0.984 . S
H803 N796 0.984 . S
H804 N792 0.984 . S
H805 N792 0.985 . S
C806 C807 1.363 . S
C806 C812 1.379 . S
C806 N814 1.356 . S
C807 C806 1.363 . S
C807 C813 1.363 . S
C808 C809 1.363 . S
C808 C813 1.379 . S
C808 N815 1.356 . S
C809 C808 1.363 . S
C809 C812 1.363 . S
N810 C812 1.356 . S
N810 H822 0.984 . S
N810 H823 0.985 . S
N811 C813 1.356 . S
N811 H816 0.984 . S
N811 H817 0.985 . S
C812 C806 1.379 . S
C812 C809 1.363 . S
C812 N810 1.356 . S
C813 C807 1.363 . S
C813 C808 1.379 . S
C813 N811 1.356 . S
N814 C806 1.356 . S
N814 H820 0.984 . S
N814 H821 0.984 . S
N815 C808 1.356 . S
N815 H818 0.984 . S
N815 H819 0.985 . S
H816 N811 0.984 . S
H817 N811 0.985 . S
H818 N815 0.984 . S
H819 N815 0.985 . S
H820 N814 0.984 . S
H821 N814 0.984 . S
H822 N810 0.984 . S
H823 N810 0.985 . S
C249 C24 1.514 . S
C251 C49 1.440 . S
C267 C55 1.514 . S
C269 C80 1.440 . S
C285 C86 1.514 . S
C287 C111 1.440 . S
C303 C18 1.440 . S
C305 C117 1.514 . S
C321 C124 1.514 . S
C323 C166 1.440 . S
C339 C155 1.514 . S
C341 C197 1.440 . S
C357 C186 1.514 . S
C359 C228 1.440 . S
C375 C217 1.514 . S
C377 C135 1.440 . S
C393 C0 1.472 1_556 S
C395 C148 1.472 1_554 S
C411 C31 1.472 . S
C413 C179 1.472 . S
C429 C62 1.472 1_556 S
C431 C210 1.472 1_554 S
C447 C93 1.472 . S
C449 C241 1.472 . S
C465 C27 0.884 . S
C467 C89 0.884 . S
C483 C120 0.884 . S
C485 C58 0.884 . S
C501 C125 0.884 . S
C503 C187 0.884 . S
C519 C156 0.884 . S
C521 C218 0.884 . S
C537 C10 2.553 1_556 S
C539 C33 2.206 . S
C555 C41 2.553 . S
C557 C64 2.206 . S
C573 C95 2.206 . S
C575 C72 2.553 1_556 S
C591 C103 2.553 . S
C593 C2 2.206 . S
C609 C126 2.553 1_554 S
C611 C165 2.206 . S
C627 C196 2.206 . S
C629 C157 2.553 . S
C645 C227 2.206 . S
C647 C188 2.553 1_554 S
C663 C134 2.206 . S
C665 C219 2.553 . S
C681 C11 1.587 . S
C683 C182 1.602 . S
C699 C42 1.587 . S
C701 C213 1.602 . S
C717 C244 1.602 . S
C719 C73 1.587 . S
C735 C151 1.602 . S
C737 C104 1.587 . S
C753 C32 1.602 . S
C755 C142 1.587 . S
C771 C173 1.587 . S
C773 C63 1.602 . S
C789 C204 1.587 . S
C791 C94 1.602 . S
C807 C1 1.602 . S
C809 C235 1.587 . S
