# Generated by pormake.
# Topology tfs, (6)-cn, num edge types: 1
# Building blocks:
#     Node 0, Type 0, BuildingBlock: CUWYAW_clean_sbu_0, # of connection points: 6
#     Node 1, Type 0, BuildingBlock: CUWYAW_clean_sbu_0, # of connection points: 6
#     Node 2, Type 0, BuildingBlock: CUWYAW_clean_sbu_0, # of connection points: 6
#     Node 3, Type 0, BuildingBlock: CUWYAW_clean_sbu_0, # of connection points: 6
#     Node 4, Type 0, BuildingBlock: CUWYAW_clean_sbu_0, # of connection points: 6
#     Node 5, Type 0, BuildingBlock: CUWYAW_clean_sbu_0, # of connection points: 6
#     Edge 6, Type (0, 0), BuildingBlock: XUDNAN_clean_linker_2, # of connection points: 2
#     Edge 7, Type (0, 0), BuildingBlock: XUDNAN_clean_linker_2, # of connection points: 2
#     Edge 8, Type (0, 0), BuildingBlock: XUDNAN_clean_linker_2, # of connection points: 2
#     Edge 9, Type (0, 0), BuildingBlock: XUDNAN_clean_linker_2, # of connection points: 2
#     Edge 10, Type (0, 0), BuildingBlock: XUDNAN_clean_linker_2, # of connection points: 2
#     Edge 11, Type (0, 0), BuildingBlock: XUDNAN_clean_linker_2, # of connection points: 2
#     Edge 12, Type (0, 0), BuildingBlock: XUDNAN_clean_linker_2, # of connection points: 2
#     Edge 13, Type (0, 0), BuildingBlock: XUDNAN_clean_linker_2, # of connection points: 2
#     Edge 14, Type (0, 0), BuildingBlock: XUDNAN_clean_linker_2, # of connection points: 2
#     Edge 15, Type (0, 0), BuildingBlock: XUDNAN_clean_linker_2, # of connection points: 2
#     Edge 16, Type (0, 0), BuildingBlock: XUDNAN_clean_linker_2, # of connection points: 2
#     Edge 17, Type (0, 0), BuildingBlock: XUDNAN_clean_linker_2, # of connection points: 2
#     Edge 18, Type (0, 0), BuildingBlock: XUDNAN_clean_linker_2, # of connection points: 2
#     Edge 19, Type (0, 0), BuildingBlock: XUDNAN_clean_linker_2, # of connection points: 2
#     Edge 20, Type (0, 0), BuildingBlock: XUDNAN_clean_linker_2, # of connection points: 2
#     Edge 21, Type (0, 0), BuildingBlock: XUDNAN_clean_linker_2, # of connection points: 2
#     Edge 22, Type (0, 0), BuildingBlock: XUDNAN_clean_linker_2, # of connection points: 2
#     Edge 23, Type (0, 0), BuildingBlock: XUDNAN_clean_linker_2, # of connection points: 2
# Relax obj value: 0.536
# Max RMSD: 0.289
# Mean RMSD: 0.289
data_MOF--net-tfs--node1-CUWYAW_clean_sbu_0--edge1-XUDNAN_clean_linker_2
_symmetry_space_group_name_H-M    P1
_symmetry_Int_Tables_number       1
_symmetry_cell_setting            triclinic
loop_
_symmetry_equiv_pos_as_xyz
'x, y, z'
_cell_length_a     55.656152
_cell_length_b     55.535772
_cell_length_c     14.513389
_cell_angle_alpha  89.963136
_cell_angle_beta   89.994604
_cell_angle_gamma 120.08276
loop_
_atom_site_label
_atom_site_type_symbol
_atom_site_fract_x
_atom_site_fract_y
_atom_site_fract_z
_atom_type_partial_charge
C0 C 0.21418 0.36136 0.90765 0.0
Eu1 Eu 0.20588 0.40174 0.95828 0.0
C2 C 0.2341 0.35197 0.92695 0.0
C3 C 0.26007 0.36999 0.96618 0.0
C4 C 0.27821 0.36029 0.98825 0.0
C5 C 0.2706 0.33234 0.97206 0.0
C6 C 0.24461 0.3145 0.93175 0.0
C7 C 0.22655 0.32426 0.90945 0.0
C8 C 0.20355 0.41424 0.13876 0.0
C9 C 0.14059 0.3812 0.96739 0.0
C10 C 0.17975 0.48284 0.05392 0.0
Eu11 Eu 0.18771 0.44343 0.99052 0.0
C12 C 0.19152 0.51329 0.04456 0.0
C13 C 0.17684 0.52344 0.99463 0.0
C14 C 0.18689 0.55201 0.98767 0.0
C15 C 0.21175 0.57123 0.0315 0.0
C16 C 0.22656 0.56105 0.08112 0.0
C17 C 0.21657 0.53241 0.08758 0.0
C18 C 0.18591 0.43017 0.81041 0.0
C19 C 0.2543 0.46466 0.9717 0.0
O20 O 0.19813 0.35947 0.97622 0.0
O21 O 0.22351 0.38466 0.86179 0.0
O22 O 0.22294 0.41016 0.10622 0.0
O23 O 0.18642 0.41048 0.07645 0.0
O24 O 0.15992 0.3786 0.92321 0.0
O25 O 0.14733 0.40374 0.01632 0.0
O26 O 0.19454 0.47396 0.097 0.0
O27 O 0.16691 0.4677 0.98188 0.0
O28 O 0.16882 0.43617 0.85067 0.0
O29 O 0.20509 0.43348 0.86529 0.0
O30 O 0.23486 0.4707 0.99399 0.0
O31 O 0.24819 0.43927 0.94873 0.0
H32 H 0.26621 0.39147 0.98047 0.0
H33 H 0.2982 0.37471 0.01795 0.0
H34 H 0.23789 0.2928 0.91949 0.0
H35 H 0.20646 0.31002 0.8798 0.0
H36 H 0.1574 0.50922 0.96114 0.0
H37 H 0.17514 0.55901 0.9475 0.0
H38 H 0.2456 0.57517 0.11676 0.0
H39 H 0.22833 0.5253 0.12718 0.0
C40 C 0.85151 0.22713 0.8995 0.0
Eu41 Eu 0.80212 0.21075 0.96721 0.0
C42 C 0.88047 0.23527 0.92097 0.0
C43 C 0.89378 0.25016 1.00115 0.0
C44 C 0.92236 0.26088 0.01308 0.0
C45 C 0.93809 0.25688 0.94507 0.0
C46 C 0.92436 0.24117 0.86641 0.0
C47 C 0.89589 0.2305 0.85464 0.0
C48 C 0.79097 0.21104 0.15011 0.0
C49 C 0.76452 0.14435 0.99185 0.0
C50 C 0.69113 0.16756 0.06667 0.0
Eu51 Eu 0.74123 0.18502 1.00494 0.0
C52 C 0.66561 0.16839 0.04724 0.0
C53 C 0.66628 0.19235 0.01293 0.0
C54 C 0.64147 0.19237 0.99705 0.0
C55 C 0.61565 0.1684 0.01471 0.0
C56 C 0.61521 0.14441 0.04799 0.0
C57 C 0.63995 0.14445 0.06414 0.0
C58 C 0.75518 0.1879 0.82143 0.0
C59 C 0.7767 0.25102 0.96784 0.0
O60 O 0.83242 0.20094 0.90724 0.0
O61 O 0.84293 0.24397 0.92629 0.0
O62 O 0.81302 0.22967 0.1083 0.0
O63 O 0.77654 0.19125 0.09542 0.0
O64 O 0.78483 0.16437 0.94342 0.0
O65 O 0.74797 0.14968 0.04157 0.0
O66 O 0.71294 0.1905 0.0949 0.0
O67 O 0.69734 0.15355 0.0086 0.0
O68 O 0.73219 0.16806 0.85511 0.0
O69 O 0.76739 0.20553 0.88302 0.0
O70 O 0.75557 0.23137 0.01461 0.0
O71 O 0.79466 0.24566 0.92666 0.0
H72 H 0.88226 0.25412 0.05326 0.0
H73 H 0.9322 0.27257 0.07497 0.0
H74 H 0.93578 0.23802 0.8119 0.0
H75 H 0.88607 0.21934 0.79184 0.0
H76 H 0.6859 0.21101 0.99875 0.0
H77 H 0.64248 0.21109 0.97054 0.0
H78 H 0.59574 0.12575 0.06356 0.0
H79 H 0.63905 0.12577 0.09071 0.0
C80 C 0.6411 0.85201 0.96922 0.0
Eu81 Eu 0.60332 0.80564 0.04471 0.0
C82 C 0.65383 0.88253 0.96939 0.0
C83 C 0.6559 0.89743 0.05003 0.0
C84 C 0.67088 0.92662 0.04964 0.0
C85 C 0.68413 0.94133 0.96874 0.0
C86 C 0.68112 0.92621 0.88764 0.0
C87 C 0.66615 0.89714 0.88809 0.0
C88 C 0.59665 0.79419 0.22802 0.0
C89 C 0.61287 0.75555 0.08078 0.0
C90 C 0.51657 0.70045 0.13937 0.0
Eu91 Eu 0.55326 0.75028 0.08306 0.0
C92 C 0.48981 0.67602 0.11425 0.0
C93 C 0.46855 0.6784 0.07064 0.0
C94 C 0.44368 0.65442 0.04592 0.0
C95 C 0.43994 0.62782 0.06359 0.0
C96 C 0.4612 0.62571 0.10843 0.0
C97 C 0.48582 0.64955 0.13347 0.0
C98 C 0.56436 0.76361 0.90014 0.0
C99 C 0.5422 0.80075 0.06496 0.0
O100 O 0.64551 0.84063 0.04131 0.0
O101 O 0.61591 0.8372 0.93635 0.0
O102 O 0.62025 0.80875 0.18649 0.0
O103 O 0.57678 0.78802 0.17238 0.0
O104 O 0.62018 0.77657 0.02367 0.0
O105 O 0.58981 0.74601 0.12908 0.0
O106 O 0.51667 0.72304 0.16534 0.0
O107 O 0.5377 0.70563 0.08698 0.0
O108 O 0.53935 0.75006 0.93305 0.0
O109 O 0.58131 0.76756 0.96317 0.0
O110 O 0.53162 0.77479 0.09246 0.0
O111 O 0.56851 0.816 0.03938 0.0
H112 H 0.64656 0.88652 0.11368 0.0
H113 H 0.67287 0.93762 0.11333 0.0
H114 H 0.69056 0.93685 0.82374 0.0
H115 H 0.66477 0.88602 0.82515 0.0
H116 H 0.47126 0.69868 0.05489 0.0
H117 H 0.4277 0.65666 0.01107 0.0
H118 H 0.45878 0.60555 0.12434 0.0
H119 H 0.50193 0.64729 0.16742 0.0
C120 C 0.7893 0.64489 0.93464 0.0
Eu121 Eu 0.79751 0.60434 0.98303 0.0
C122 C 0.76983 0.65448 0.96044 0.0
C123 C 0.76216 0.65426 0.05275 0.0
C124 C 0.74391 0.66364 0.07647 0.0
C125 C 0.73263 0.67315 1.00837 0.0
C126 C 0.74033 0.67326 0.91587 0.0
C127 C 0.75879 0.66406 0.89225 0.0
C128 C 0.79408 0.58934 0.16236 0.0
C129 C 0.86211 0.62331 0.99384 0.0
C130 C 0.82254 0.52201 0.07313 0.0
Eu131 Eu 0.81448 0.56197 0.01571 0.0
C132 C 0.81516 0.49325 0.0483 0.0
C133 C 0.83599 0.48842 0.01449 0.0
C134 C 0.82994 0.46162 0.99085 0.0
C135 C 0.80293 0.43887 1.0012 0.0
C136 C 0.78208 0.4435 0.0368 0.0
C137 C 0.78811 0.47049 0.05986 0.0
C138 C 0.81166 0.57336 0.8333 0.0
C139 C 0.7483 0.5415 0.99684 0.0
O140 O 0.80713 0.64721 0.99773 0.0
O141 O 0.77885 0.62136 0.88967 0.0
O142 O 0.77676 0.59472 0.12065 0.0
O143 O 0.81384 0.59348 0.10917 0.0
O144 O 0.84335 0.6259 0.94611 0.0
O145 O 0.85443 0.60128 0.04621 0.0
O146 O 0.80299 0.52622 0.1055 0.0
O147 O 0.83927 0.54167 0.01671 0.0
O148 O 0.82969 0.56727 0.86521 0.0
O149 O 0.79543 0.57098 0.89673 0.0
O150 O 0.76731 0.5356 0.02612 0.0
O151 O 0.75519 0.5666 0.96668 0.0
H152 H 0.77032 0.64691 0.1068 0.0
H153 H 0.73886 0.66364 0.14852 0.0
H154 H 0.73177 0.68004 0.86143 0.0
H155 H 0.76436 0.6643 0.82058 0.0
H156 H 0.85709 0.50546 1.0063 0.0
H157 H 0.84656 0.45866 0.96521 0.0
H158 H 0.76107 0.42635 0.04533 0.0
H159 H 0.77161 0.47349 0.08641 0.0
C160 C 0.15318 0.75901 0.94559 0.0
Eu161 Eu 0.20445 0.7934 0.99331 0.0
C162 C 0.12363 0.75063 0.95559 0.0
C163 C 0.10402 0.72214 0.95588 0.0
C164 C 0.07567 0.71295 0.96155 0.0
C165 C 0.0662 0.7321 0.96726 0.0
C166 C 0.08597 0.76077 0.96789 0.0
C167 C 0.11448 0.76998 0.96218 0.0
C168 C 0.2214 0.81209 0.16801 0.0
C169 C 0.2342 0.85992 0.99945 0.0
C170 C 0.31959 0.85301 0.05629 0.0
Eu171 Eu 0.26695 0.82745 0.0141 0.0
C172 C 0.3427 0.84802 0.07472 0.0
C173 C 0.34262 0.8244 0.0401 0.0
C174 C 0.36661 0.8223 0.04528 0.0
C175 C 0.39106 0.84385 0.08487 0.0
C176 C 0.39052 0.86682 0.12335 0.0
C177 C 0.36655 0.86887 0.11817 0.0
C178 C 0.24724 0.82182 0.83883 0.0
C179 C 0.23999 0.76103 1.00559 0.0
O180 O 0.16963 0.78176 0.89949 0.0
O181 O 0.16525 0.75512 0.01678 0.0
O182 O 0.19929 0.80974 0.12963 0.0
O183 O 0.2327 0.803 0.11357 0.0
O184 O 0.21422 0.8375 0.95802 0.0
O185 O 0.25402 0.85877 0.04532 0.0
O186 O 0.29993 0.845 0.11822 0.0
O187 O 0.31007 0.84815 0.97207 0.0
O188 O 0.2674 0.84491 0.87094 0.0
O189 O 0.23899 0.80322 0.89934 0.0
O190 O 0.263 0.78514 0.01665 0.0
O191 O 0.21563 0.75928 0.99252 0.0
H192 H 0.11064 0.70687 0.95034 0.0
H193 H 0.06116 0.69078 0.95909 0.0
H194 H 0.07943 0.77609 0.97307 0.0
H195 H 0.12929 0.7921 0.96236 0.0
H196 H 0.32442 0.80817 1.00569 0.0
H197 H 0.36637 0.80442 0.01446 0.0
H198 H 0.40883 0.88351 0.15575 0.0
H199 H 0.36698 0.88728 0.14507 0.0
C200 C 0.35838 0.15069 0.92683 0.0
Eu201 Eu 0.39711 0.19689 1.00083 0.0
C202 C 0.34256 0.12003 0.93412 0.0
C203 C 0.35534 0.10422 0.95219 0.0
C204 C 0.33947 0.07505 0.95463 0.0
C205 C 0.31058 0.06121 0.93888 0.0
C206 C 0.29796 0.07728 0.92218 0.0
C207 C 0.31377 0.1063 0.91974 0.0
C208 C 0.404 0.20733 0.18514 0.0
C209 C 0.38746 0.24675 0.03944 0.0
C210 C 0.48427 0.3018 0.09687 0.0
Eu211 Eu 0.44685 0.25229 0.04073 0.0
C212 C 0.51208 0.325 0.07243 0.0
C213 C 0.51848 0.33545 0.98208 0.0
C214 C 0.54384 0.35938 0.96272 0.0
C215 C 0.56338 0.37324 0.03309 0.0
C216 C 0.5574 0.36202 0.1226 0.0
C217 C 0.53193 0.33819 0.14207 0.0
C218 C 0.43596 0.23939 0.85724 0.0
C219 C 0.45872 0.20273 0.01324 0.0
O220 O 0.3536 0.16458 0.98969 0.0
O221 O 0.38451 0.16291 0.90213 0.0
O222 O 0.38047 0.19245 0.14392 0.0
O223 O 0.42378 0.21409 0.12865 0.0
O224 O 0.38088 0.22653 0.97961 0.0
O225 O 0.41023 0.25602 0.08886 0.0
O226 O 0.48266 0.2789 0.12768 0.0
O227 O 0.46378 0.29706 0.04177 0.0
O228 O 0.4609 0.25285 0.89059 0.0
O229 O 0.41889 0.23519 0.92018 0.0
O230 O 0.46866 0.22799 0.04648 0.0
O231 O 0.43255 0.18757 0.98604 0.0
H232 H 0.37754 0.11433 0.96348 0.0
H233 H 0.34993 0.06334 0.96691 0.0
H234 H 0.27576 0.06744 0.91136 0.0
H235 H 0.30348 0.1181 0.90585 0.0
H236 H 0.50363 0.32556 0.92682 0.0
H237 H 0.54802 0.3673 0.89282 0.0
H238 H 0.57192 0.37231 0.1784 0.0
H239 H 0.52741 0.33053 0.21226 0.0
H240 H 0.3476 0.24383 0.92037 0.0
H241 H 0.38929 0.2806 0.1785 0.0
H242 H 0.36312 0.30547 0.19095 0.0
H243 H 0.34834 0.30425 0.83473 0.0
H244 H 0.31468 0.28551 0.78094 0.0
H245 H 0.33538 0.26914 0.79466 0.0
H246 H 0.295 0.22821 0.88238 0.0
H247 H 0.27412 0.2444 0.86864 0.0
H248 H 0.28022 0.23532 0.98204 0.0
H249 H 0.33358 0.32737 0.17378 0.0
H250 H 0.30244 0.34488 0.12812 0.0
H251 H 0.28105 0.29535 0.87823 0.0
C252 C 0.35094 0.25683 0.98007 0.0
C253 C 0.37042 0.26021 0.04864 0.0
C254 C 0.3745 0.27772 0.12506 0.0
C255 C 0.3597 0.29191 0.13287 0.0
C256 C 0.34095 0.28846 0.06354 0.0
C257 C 0.33649 0.27136 0.98861 0.0
C258 C 0.3159 0.27217 0.92209 0.0
C259 C 0.32939 0.28344 0.82753 0.0
C260 C 0.28976 0.24331 0.91331 0.0
C261 C 0.30962 0.29247 0.97123 0.0
C262 C 0.32422 0.30151 0.05284 0.0
C263 C 0.32206 0.32049 0.10991 0.0
C264 C 0.30448 0.3305 0.08294 0.0
C265 C 0.28935 0.32165 0.99931 0.0
C266 C 0.29205 0.30233 0.94303 0.0
H267 H 0.09352 0.38206 0.02107 0.0
H268 H 0.12149 0.32847 0.90315 0.0
H269 H 0.07301 0.2901 0.8944 0.0
H270 H 0.03651 0.32878 0.15697 0.0
H271 H 0.01381 0.34251 0.13439 0.0
H272 H 0.05089 0.3655 0.13642 0.0
H273 H 0.04911 0.38274 0.97197 0.0
H274 H 0.01205 0.35993 0.96964 0.0
H275 H 0.03335 0.35776 0.88017 0.0
H276 H 0.02161 0.25775 0.89542 0.0
H277 H 0.97048 0.23442 0.89759 0.0
H278 H 0.97546 0.30934 0.00915 0.0
C279 C 0.08946 0.36218 0.99412 0.0
C280 C 0.11136 0.35827 0.96312 0.0
C281 C 0.10511 0.33203 0.92726 0.0
C282 C 0.07762 0.31003 0.92237 0.0
C283 C 0.05654 0.31457 0.9533 0.0
C284 C 0.06207 0.34001 0.988 0.0
C285 C 0.03542 0.33972 0.01239 0.0
C286 C 0.03409 0.3444 0.11622 0.0
C287 C 0.0323 0.36131 0.9551 0.0
C288 C 0.01408 0.31024 0.98498 0.0
C289 C 0.02675 0.29603 0.95203 0.0
C290 C 0.01143 0.26868 0.92096 0.0
C291 C 0.98238 0.25565 0.92202 0.0
C292 C 0.96883 0.27001 0.95311 0.0
C293 C 0.98506 0.29758 0.9862 0.0
H294 H 0.72103 0.0977 0.06836 0.0
H295 H 0.79517 0.12523 0.90213 0.0
H296 H 0.7839 0.07636 0.88504 0.0
H297 H 0.72331 0.04051 0.18564 0.0
H298 H 0.6861 0.01835 0.18321 0.0
H299 H 0.7012 0.05559 0.188 0.0
H300 H 0.67397 0.05402 0.04116 0.0
H301 H 0.65889 0.01683 0.03564 0.0
H302 H 0.67766 0.03806 0.93807 0.0
H303 H 0.76306 0.02427 0.87903 0.0
H304 H 0.73457 0.97307 0.88485 0.0
H305 H 0.67353 0.97961 0.05267 0.0
C306 C 0.73518 0.09357 0.02943 0.0
C307 C 0.75909 0.11538 0.98685 0.0
C308 C 0.7768 0.10893 0.93561 0.0
C309 C 0.77057 0.08123 0.9256 0.0
C310 C 0.74659 0.06023 0.96733 0.0
C311 C 0.72923 0.06609 0.01851 0.0
C312 C 0.70409 0.03969 0.05284 0.0
C313 C 0.70366 0.03847 0.15871 0.0
C314 C 0.67706 0.037 0.01461 0.0
C315 C 0.70977 0.01796 0.01181 0.0
C316 C 0.73447 0.03025 0.96322 0.0
C317 C 0.74373 0.01445 0.91708 0.0
C318 C 0.72727 0.98535 0.92023 0.0
C319 C 0.7017 0.97224 0.96881 0.0
C320 C 0.69308 0.98892 0.01581 0.0
H321 H 0.72804 0.71667 0.93523 0.0
H322 H 0.69147 0.65044 0.13879 0.0
H323 H 0.65872 0.66594 0.18366 0.0
H324 H 0.72181 0.76853 0.06558 0.0
H325 H 0.71275 0.78215 0.96711 0.0
H326 H 0.73422 0.76664 0.95258 0.0
H327 H 0.69964 0.73236 0.83216 0.0
H328 H 0.67816 0.74787 0.84597 0.0
H329 H 0.66354 0.71096 0.86264 0.0
H330 H 0.62942 0.68776 0.20523 0.0
H331 H 0.6042 0.71361 0.19851 0.0
H332 H 0.65854 0.76507 0.97805 0.0
C333 C 0.71306 0.70529 0.98886 0.0
C334 C 0.71261 0.68244 0.03401 0.0
C335 C 0.69273 0.66835 0.10441 0.0
C336 C 0.67389 0.67689 0.13011 0.0
C337 C 0.67501 0.6995 0.08459 0.0
C338 C 0.69395 0.71344 0.01515 0.0
C339 C 0.69019 0.73666 0.97575 0.0
C340 C 0.7163 0.76518 0.99122 0.0
C341 C 0.68242 0.73165 0.87305 0.0
C342 C 0.66608 0.73346 0.03373 0.0
C343 C 0.65779 0.71196 0.09632 0.0
C344 C 0.63573 0.70466 0.1566 0.0
C345 C 0.62154 0.71951 0.15219 0.0
C346 C 0.62936 0.7414 0.08778 0.0
C347 C 0.65213 0.74856 0.02838 0.0
H348 H 0.02532 0.68663 0.05981 0.0
H349 H 0.03796 0.75405 0.8777 0.0
H350 H 0.98725 0.73504 0.87156 0.0
H351 H 0.96623 0.63386 0.9461 0.0
H352 H 0.9489 0.61556 0.04993 0.0
H353 H 0.98622 0.63578 0.04643 0.0
H354 H 0.98611 0.66398 0.18851 0.0
H355 H 0.94875 0.64377 0.19259 0.0
H356 H 0.96593 0.68118 0.18555 0.0
H357 H 0.93479 0.70672 0.87674 0.0
H358 H 0.88506 0.67204 0.89544 0.0
H359 H 0.90683 0.62278 0.0723 0.0
C360 C 0.0175 0.69751 0.01883 0.0
C361 C 0.03577 0.72193 0.96932 0.0
C362 C 0.02453 0.7356 0.9174 0.0
C363 C 0.9957 0.72485 0.91303 0.0
C364 C 0.97832 0.70047 0.96128 0.0
C365 C 0.98882 0.68706 0.01361 0.0
C366 C 0.9657 0.66064 0.05624 0.0
C367 C 0.96684 0.63495 0.02263 0.0
C368 C 0.96669 0.66252 0.162 0.0
C369 C 0.94051 0.66097 0.01841 0.0
C370 C 0.94821 0.68419 0.96419 0.0
C371 C 0.92854 0.68858 0.91965 0.0
C372 C 0.90031 0.66871 0.9306 0.0
C373 C 0.89195 0.64467 0.98553 0.0
C374 C 0.91245 0.64098 0.03029 0.0
H375 H 0.26843 0.90728 0.09444 0.0
H376 H 0.2075 0.87589 0.87422 0.0
H377 H 0.21849 0.9241 0.83983 0.0
H378 H 0.25734 0.96451 0.16829 0.0
H379 H 0.29377 0.98719 0.19132 0.0
H380 H 0.2785 0.95009 0.20458 0.0
H381 H 0.31518 0.95097 0.09259 0.0
H382 H 0.33031 0.98793 0.07778 0.0
H383 H 0.31862 0.96534 0.9787 0.0
H384 H 0.23994 0.97651 0.82035 0.0
H385 H 0.26804 0.02781 0.82133 0.0
H386 H 0.3148 0.02421 0.05499 0.0
C387 C 0.25692 0.91036 0.04003 0.0
C388 C 0.23701 0.88774 0.98709 0.0
C389 C 0.22261 0.89283 0.91631 0.0
C390 C 0.22883 0.92017 0.89608 0.0
C391 C 0.24931 0.94207 0.94779 0.0
C392 C 0.26287 0.93735 0.01905 0.0
C393 C 0.28509 0.96436 0.06121 0.0
C394 C 0.27825 0.96667 0.16234 0.0
C395 C 0.314 0.96731 0.05196 0.0
C396 C 0.28249 0.98519 1.00112 0.0
C397 C 0.2616 0.97199 0.93656 0.0
C398 C 0.25604 0.98701 0.87152 0.0
C399 C 0.2721 0.01619 0.87285 0.0
C400 C 0.29361 0.03019 0.93859 0.0
C401 C 0.2987 0.01427 1.00346 0.0
H402 H 0.19683 0.70709 0.0157 0.0
H403 H 0.28675 0.75635 0.99997 0.0
H404 H 0.28944 0.71333 1.00398 0.0
H405 H 0.19424 0.65611 0.17389 0.0
H406 H 0.16405 0.62755 0.12139 0.0
H407 H 0.16923 0.66223 0.1153 0.0
H408 H 0.16578 0.65873 0.93724 0.0
H409 H 0.16062 0.62405 0.94276 0.0
H410 H 0.18845 0.65025 0.87408 0.0
H411 H 0.28222 0.66465 1.00832 0.0
H412 H 0.2657 0.61431 0.01579 0.0
H413 H 0.18069 0.59725 0.03552 0.0
C414 C 0.2171 0.70888 0.01264 0.0
C415 C 0.24158 0.73516 1.00716 0.0
C416 C 0.26769 0.73651 1.00423 0.0
C417 C 0.26944 0.71216 1.00633 0.0
C418 C 0.24491 0.68662 0.01193 0.0
C419 C 0.21925 0.68482 0.01541 0.0
C420 C 0.19607 0.65486 0.02307 0.0
C421 C 0.17996 0.64991 0.11382 0.0
C422 C 0.17659 0.64649 0.93928 0.0
C423 C 0.21269 0.64006 0.02291 0.0
C424 C 0.24081 0.65871 0.0162 0.0
C425 C 0.26024 0.64986 0.01412 0.0
C426 C 0.25064 0.6212 0.01904 0.0
C427 C 0.22186 0.60166 0.02639 0.0
C428 C 0.20278 0.61146 0.02856 0.0
H429 H 0.51325 0.2286 0.06456 0.0
H430 H 0.44805 0.15207 0.94354 0.0
H431 H 0.48133 0.13504 0.92749 0.0
H432 H 0.56856 0.23566 0.92129 0.0
H433 H 0.59395 0.24911 0.01245 0.0
H434 H 0.56492 0.25495 0.01481 0.0
H435 H 0.55121 0.23251 0.17702 0.0
H436 H 0.58029 0.22676 0.17548 0.0
H437 H 0.54574 0.19797 0.19457 0.0
H438 H 0.52236 0.12671 0.92509 0.0
H439 H 0.56699 0.12738 0.93893 0.0
H440 H 0.60445 0.20953 0.06207 0.0
C441 C 0.50579 0.2082 0.03475 0.0
C442 C 0.47795 0.19166 1.00532 0.0
C443 C 0.46924 0.16511 0.96674 0.0
C444 C 0.48801 0.15529 0.95719 0.0
C445 C 0.51536 0.1723 0.9865 0.0
C446 C 0.52414 0.19817 0.02469 0.0
C447 C 0.55449 0.21249 0.05128 0.0
C448 C 0.57147 0.23966 0.99667 0.0
C449 C 0.55813 0.21772 0.15578 0.0
C450 C 0.56155 0.19065 0.02216 0.0
C451 C 0.53876 0.16761 0.9849 0.0
C452 C 0.5403 0.14464 0.95426 0.0
C453 C 0.56569 0.14518 0.96272 0.0
C454 C 0.58923 0.16853 1.00149 0.0
C455 C 0.58701 0.19156 0.03088 0.0
H456 H 0.38533 0.61463 0.08373 0.0
H457 H 0.43694 0.58287 0.97708 0.0
H458 H 0.39502 0.53863 0.93696 0.0
H459 H 0.33425 0.55165 0.18611 0.0
H460 H 0.30518 0.55604 0.15712 0.0
H461 H 0.33911 0.58608 0.17235 0.0
H462 H 0.33646 0.60353 0.00911 0.0
H463 H 0.30241 0.57356 0.9938 0.0
H464 H 0.3295 0.58093 0.91142 0.0
H465 H 0.34826 0.49719 0.91618 0.0
H466 H 0.29895 0.46087 0.91304 0.0
H467 H 0.27675 0.51894 0.03159 0.0
C468 C 0.38773 0.59851 0.05049 0.0
C469 C 0.41441 0.60214 0.03384 0.0
C470 C 0.41673 0.58042 0.99147 0.0
C471 C 0.39305 0.55527 0.96795 0.0
C472 C 0.36712 0.55214 0.98683 0.0
C473 C 0.36421 0.57314 0.02666 0.0
C474 C 0.3338 0.56379 0.04254 0.0
C475 C 0.32774 0.56442 0.14566 0.0
C476 C 0.32503 0.58151 0.98581 0.0
C477 C 0.32021 0.53418 1.00657 0.0
C478 C 0.33987 0.52801 0.97444 0.0
C479 C 0.33262 0.5018 0.94043 0.0
C480 C 0.3045 0.48127 0.93918 0.0
C481 C 0.28386 0.48699 0.97181 0.0
C482 C 0.29194 0.51392 1.00553 0.0
H483 H 0.77396 0.38968 0.0981 0.0
H484 H 0.81889 0.42449 0.84307 0.0
H485 H 0.81362 0.37901 0.80261 0.0
H486 H 0.80345 0.34853 0.14927 0.0
H487 H 0.77235 0.31929 0.19481 0.0
H488 H 0.77682 0.35368 0.20027 0.0
H489 H 0.73033 0.33645 0.1137 0.0
H490 H 0.72562 0.30191 0.10845 0.0
H491 H 0.725 0.31922 1.00413 0.0
H492 H 0.80815 0.33214 0.79658 0.0
H493 H 0.80112 0.28523 0.82198 0.0
H494 H 0.75832 0.27897 0.07874 0.0
C495 C 0.78207 0.38747 0.03279 0.0
C496 C 0.79692 0.41063 0.97375 0.0
C497 C 0.8077 0.40711 0.88967 0.0
C498 C 0.80467 0.38132 0.86583 0.0
C499 C 0.7906 0.35913 0.92644 0.0
C500 C 0.77923 0.36175 1.00781 0.0
C501 C 0.76652 0.33483 0.06276 0.0
C502 C 0.78064 0.33937 0.15736 0.0
C503 C 0.73499 0.32236 0.07283 0.0
C504 C 0.77326 0.31702 1.00062 0.0
C505 C 0.78702 0.33152 0.92219 0.0
C506 C 0.79704 0.32039 0.85698 0.0
C507 C 0.79308 0.29378 0.87236 0.0
C508 C 0.77909 0.27843 0.95213 0.0
C509 C 0.76871 0.29008 0.0165 0.0
H510 H 0.39871 0.79925 0.11584 0.0
H511 H 0.44299 0.88693 0.04375 0.0
H512 H 0.48668 0.88583 0.03275 0.0
H513 H 0.45307 0.79999 0.25339 0.0
H514 H 0.44612 0.76631 0.21416 0.0
H515 H 0.41847 0.77423 0.21843 0.0
H516 H 0.40815 0.76163 0.04546 0.0
H517 H 0.43578 0.7537 0.04069 0.0
H518 H 0.43568 0.77882 0.96222 0.0
H519 H 0.52547 0.87479 0.02533 0.0
H520 H 0.55639 0.85478 0.02585 0.0
H521 H 0.48645 0.7744 0.10199 0.0
C522 C 0.41758 0.81821 0.09759 0.0
C523 C 0.41743 0.84321 0.08123 0.0
C524 C 0.44265 0.86763 0.05821 0.0
C525 C 0.46755 0.86718 0.05114 0.0
C526 C 0.46694 0.84216 0.06738 0.0
C527 C 0.44262 0.81815 0.09039 0.0
C528 C 0.44755 0.79394 0.10388 0.0
C529 C 0.44091 0.78298 0.20338 0.0
C530 C 0.4308 0.77065 0.03387 0.0
C531 C 0.47839 0.80807 0.08444 0.0
C532 C 0.48923 0.83587 0.06341 0.0
C533 C 0.51723 0.85305 0.04201 0.0
C534 C 0.53463 0.84149 0.04238 0.0
C535 C 0.52394 0.81304 0.0642 0.0
C536 C 0.4954 0.79625 0.08539 0.0
H537 H 0.72451 0.48884 0.07152 0.0
H538 H 0.70525 0.54345 0.91326 0.0
H539 H 0.65635 0.50607 0.90295 0.0
H540 H 0.679 0.42564 0.94989 0.0
H541 H 0.66878 0.40412 0.05164 0.0
H542 H 0.70245 0.43509 0.04626 0.0
H543 H 0.69175 0.45321 0.19625 0.0
H544 H 0.65807 0.42227 0.20229 0.0
H545 H 0.66092 0.45607 0.20264 0.0
H546 H 0.60976 0.46277 0.90751 0.0
H547 H 0.56786 0.4171 0.93398 0.0
H548 H 0.61679 0.39056 0.09152 0.0
C549 C 0.71003 0.49296 0.03468 0.0
C550 C 0.71879 0.51913 0.99306 0.0
C551 C 0.69909 0.52365 0.94594 0.0
C552 C 0.67125 0.5025 0.93941 0.0
C553 C 0.66334 0.47696 0.98077 0.0
C554 C 0.68206 0.47213 0.02805 0.0
C555 C 0.66797 0.44292 0.0677 0.0
C556 C 0.68029 0.42594 0.02638 0.0
C557 C 0.66979 0.44367 0.1735 0.0
C558 C 0.63841 0.43211 0.03525 0.0
C559 C 0.63628 0.45205 0.98469 0.0
C560 C 0.61116 0.44697 0.94693 0.0
C561 C 0.58751 0.4209 0.96182 0.0
C562 C 0.58905 0.40021 0.01446 0.0
C563 C 0.61493 0.40599 0.05142 0.0
H564 H 0.22467 0.42744 0.69279 0.0
H565 H 0.1448 0.42375 0.6986 0.0
H566 H 0.14196 0.41997 0.53077 0.0
H567 H 0.24987 0.468 0.4837 0.0
H568 H 0.26624 0.44955 0.43845 0.0
H569 H 0.2627 0.45163 0.56119 0.0
H570 H 0.23697 0.3979 0.5728 0.0
H571 H 0.2406 0.39567 0.45017 0.0
H572 H 0.20669 0.37748 0.50261 0.0
H573 H 0.14746 0.41885 0.36584 0.0
H574 H 0.15952 0.41638 0.20533 0.0
H575 H 0.23521 0.41873 0.2945 0.0
C576 C 0.20659 0.42566 0.65837 0.0
C577 C 0.18506 0.42617 0.70917 0.0
C578 C 0.16169 0.42369 0.66168 0.0
C579 C 0.15981 0.42152 0.566 0.0
C580 C 0.18137 0.42159 0.51774 0.0
C581 C 0.20422 0.42326 0.56142 0.0
C582 C 0.2241 0.42256 0.49051 0.0
C583 C 0.25241 0.44954 0.49368 0.0
C584 C 0.22727 0.39687 0.50489 0.0
C585 C 0.20876 0.42043 0.40105 0.0
C586 C 0.18426 0.42009 0.41953 0.0
C587 C 0.16646 0.41883 0.35017 0.0
C588 C 0.17357 0.41748 0.25895 0.0
C589 C 0.1982 0.41715 0.23706 0.0
C590 C 0.21619 0.41882 0.30921 0.0
H591 H 0.72698 0.15897 0.66187 0.0
H592 H 0.80476 0.22818 0.76007 0.0
H593 H 0.82136 0.24024 0.60123 0.0
H594 H 0.75797 0.14025 0.46951 0.0
H595 H 0.72963 0.13175 0.39147 0.0
H596 H 0.72338 0.12736 0.51387 0.0
H597 H 0.70143 0.15884 0.50785 0.0
H598 H 0.70774 0.16344 0.38557 0.0
H599 H 0.72109 0.19338 0.46009 0.0
H600 H 0.8293 0.24719 0.43616 0.0
H601 H 0.82976 0.24718 0.26754 0.0
H602 H 0.74804 0.17295 0.26473 0.0
C603 C 0.74757 0.17646 0.64952 0.0
C604 C 0.76451 0.19274 0.7238 0.0
C605 C 0.79129 0.21551 0.70482 0.0
C606 C 0.80099 0.22255 0.61455 0.0
C607 C 0.78381 0.20659 0.54298 0.0
C608 C 0.75778 0.18386 0.55857 0.0
C609 C 0.74385 0.17067 0.46711 0.0
C610 C 0.73839 0.14073 0.46009 0.0
C611 C 0.71693 0.17165 0.45444 0.0
C612 C 0.76607 0.1898 0.39858 0.0
C613 C 0.78881 0.21033 0.44492 0.0
C614 C 0.81177 0.23108 0.39887 0.0
C615 C 0.81176 0.23088 0.30268 0.0
C616 C 0.78907 0.20995 0.25241 0.0
C617 C 0.7658 0.18908 0.3012 0.0
H618 H 0.53113 0.75106 0.74247 0.0
H619 H 0.61678 0.79258 0.83604 0.0
H620 H 0.63289 0.80462 0.67655 0.0
H621 H 0.54262 0.72213 0.5344 0.0
H622 H 0.51895 0.72735 0.46387 0.0
H623 H 0.5132 0.72217 0.58628 0.0
H624 H 0.51283 0.76845 0.59927 0.0
H625 H 0.5185 0.77373 0.47684 0.0
H626 H 0.54193 0.80008 0.55595 0.0
H627 H 0.64064 0.81135 0.51143 0.0
H628 H 0.64017 0.81378 0.34336 0.0
H629 H 0.54991 0.76861 0.34477 0.0
C630 C 0.55323 0.76279 0.72899 0.0
C631 C 0.57271 0.7709 0.80219 0.0
C632 C 0.60144 0.78612 0.7817 0.0
C633 C 0.61085 0.79309 0.69105 0.0
C634 C 0.59135 0.78471 0.62064 0.0
C635 C 0.56314 0.76997 0.63767 0.0
C636 C 0.54703 0.76349 0.54722 0.0
C637 C 0.5294 0.7319 0.53207 0.0
C638 C 0.529 0.77726 0.5447 0.0
C639 C 0.57069 0.77685 0.47747 0.0
C640 C 0.59596 0.78887 0.52248 0.0
C641 C 0.62102 0.80216 0.47525 0.0
C642 C 0.62046 0.8034 0.3793 0.0
C643 C 0.59503 0.79157 0.33024 0.0
C644 C 0.56968 0.77799 0.3802 0.0
H645 H 0.84304 0.5779 0.67744 0.0
H646 H 0.7662 0.57293 0.76712 0.0
H647 H 0.75368 0.57475 0.60642 0.0
H648 H 0.85639 0.62666 0.49078 0.0
H649 H 0.87015 0.61125 0.41305 0.0
H650 H 0.87336 0.60873 0.53575 0.0
H651 H 0.84898 0.55508 0.52261 0.0
H652 H 0.84558 0.55743 0.39989 0.0
H653 H 0.81526 0.53628 0.46914 0.0
H654 H 0.74844 0.57647 0.44061 0.0
H655 H 0.75196 0.58135 0.27273 0.0
H656 H 0.83266 0.58695 0.28041 0.0
C657 C 0.8236 0.57715 0.66277 0.0
C658 C 0.80552 0.57512 0.735 0.0
C659 C 0.78038 0.57443 0.71331 0.0
C660 C 0.77299 0.57537 0.62203 0.0
C661 C 0.79102 0.5772 0.55254 0.0
C662 C 0.81591 0.57834 0.57102 0.0
C663 C 0.83158 0.58118 0.48175 0.0
C664 C 0.85953 0.60859 0.48027 0.0
C665 C 0.83558 0.55599 0.46753 0.0
C666 C 0.81152 0.58151 0.411 0.0
C667 C 0.78823 0.57893 0.45431 0.0
C668 C 0.76659 0.57862 0.40569 0.0
C669 C 0.76884 0.58142 0.31008 0.0
C670 C 0.79264 0.58472 0.26326 0.0
C671 C 0.81423 0.58447 0.31437 0.0
H672 H 0.25467 0.85134 0.29511 0.0
H673 H 0.18906 0.76558 0.26503 0.0
H674 H 0.18776 0.75928 0.43407 0.0
H675 H 0.29065 0.83988 0.48239 0.0
H676 H 0.29925 0.87179 0.54122 0.0
H677 H 0.29503 0.86958 0.41791 0.0
H678 H 0.25802 0.88466 0.43156 0.0
H679 H 0.262 0.88673 0.55501 0.0
H680 H 0.22821 0.86512 0.50472 0.0
H681 H 0.19336 0.7621 0.60415 0.0
H682 H 0.20654 0.77329 0.76732 0.0
H683 H 0.26853 0.85753 0.69059 0.0
C684 C 0.2402 0.83129 0.3247 0.0
C685 C 0.222 0.80883 0.26816 0.0
C686 C 0.20315 0.78289 0.30809 0.0
C687 C 0.20224 0.77918 0.4037 0.0
C688 C 0.22027 0.8017 0.45818 0.0
C689 C 0.23896 0.82725 0.42049 0.0
C690 C 0.25602 0.84791 0.49525 0.0
C691 C 0.28708 0.85787 0.48348 0.0
C692 C 0.25074 0.87256 0.49669 0.0
C693 C 0.24417 0.82988 0.58049 0.0
C694 C 0.22347 0.80335 0.55722 0.0
C695 C 0.20951 0.78279 0.62336 0.0
C696 C 0.21712 0.78936 0.71583 0.0
C697 C 0.23853 0.81625 0.74142 0.0
C698 C 0.25203 0.83684 0.67288 0.0
H699 H 0.46932 0.25289 0.69936 0.0
H700 H 0.38372 0.20835 0.7936 0.0
H701 H 0.36777 0.19548 0.63429 0.0
H702 H 0.4561 0.28012 0.49049 0.0
H703 H 0.48055 0.2761 0.42018 0.0
H704 H 0.48622 0.28159 0.54249 0.0
H705 H 0.48886 0.23652 0.55652 0.0
H706 H 0.48326 0.23092 0.43418 0.0
H707 H 0.46059 0.20421 0.51382 0.0
H708 H 0.36011 0.18823 0.46929 0.0
H709 H 0.3606 0.18582 0.3013 0.0
H710 H 0.45078 0.23443 0.30162 0.0
C711 C 0.44727 0.24031 0.68607 0.0
C712 C 0.42775 0.23163 0.7594 0.0
C713 C 0.39908 0.21531 0.73914 0.0
C714 C 0.38977 0.20784 0.64861 0.0
C715 C 0.4093 0.21682 0.57805 0.0
C716 C 0.43745 0.23263 0.59485 0.0
C717 C 0.45359 0.23962 0.50424 0.0
C718 C 0.4701 0.27124 0.48844 0.0
C719 C 0.47271 0.22707 0.50208 0.0
C720 C 0.43 0.22533 0.43463 0.0
C721 C 0.40475 0.21238 0.47992 0.0
C722 C 0.37973 0.19813 0.43292 0.0
C723 C 0.3803 0.19692 0.33696 0.0
C724 C 0.40571 0.20975 0.28752 0.0
C725 C 0.43103 0.22425 0.33727 0.0
loop_
_geom_bond_atom_site_label_1
_geom_bond_atom_site_label_2
_geom_bond_distance
_geom_bond_site_symmetry_2
_ccdc_geom_bond_type
C0 Eu1 2.835 1_556 S
C0 C2 1.500 . S
C0 O20 1.257 . S
C0 O21 1.260 1_556 S
Eu1 C0 2.835 1_554 S
Eu1 O20 2.473 1_554 S
Eu1 O21 2.480 . S
Eu1 O22 2.430 . S
Eu1 O23 2.670 . S
Eu1 O24 2.394 . S
Eu1 O29 2.355 1_554 S
Eu1 O31 2.374 . S
C2 C0 1.500 . S
C2 C3 1.377 1_556 S
C2 C7 1.377 . S
C3 C2 1.377 1_554 S
C3 C4 1.395 . S
C3 H32 0.931 . S
C4 C3 1.395 . S
C4 C5 1.383 1_554 S
C4 H33 0.931 . S
C5 C4 1.383 1_556 S
C5 C6 1.394 . S
C6 C5 1.394 . S
C6 C7 1.378 . S
C6 H34 0.931 . S
C7 C2 1.377 . S
C7 C6 1.378 . S
C7 H35 0.931 . S
C8 O22 1.259 . S
C8 O23 1.270 . S
C9 O24 1.251 . S
C9 O25 1.251 . S
C10 Eu11 2.835 1_554 S
C10 C12 1.500 . S
C10 O26 1.257 . S
C10 O27 1.260 1_554 S
Eu11 C10 2.835 1_556 S
Eu11 O23 2.355 1_556 S
Eu11 O25 2.374 1_556 S
Eu11 O26 2.473 1_556 S
Eu11 O27 2.480 . S
Eu11 O28 2.430 . S
Eu11 O29 2.670 . S
Eu11 O30 2.394 . S
C12 C10 1.500 . S
C12 C13 1.377 1_554 S
C12 C17 1.377 . S
C13 C12 1.377 1_556 S
C13 C14 1.395 . S
C13 H36 0.931 . S
C14 C13 1.395 . S
C14 C15 1.383 1_556 S
C14 H37 0.931 . S
C15 C14 1.383 1_554 S
C15 C16 1.394 . S
C16 C15 1.394 . S
C16 C17 1.378 . S
C16 H38 0.931 . S
C17 C12 1.377 . S
C17 C16 1.378 . S
C17 H39 0.931 . S
C18 O28 1.259 . S
C18 O29 1.270 . S
C19 O30 1.251 . S
C19 O31 1.251 1_556 S
O20 C0 1.257 . S
O20 Eu1 2.473 1_556 S
O21 C0 1.260 1_554 S
O21 Eu1 2.480 . S
O22 Eu1 2.430 . S
O22 C8 1.259 . S
O23 Eu1 2.670 . S
O23 C8 1.270 . S
O23 Eu11 2.355 1_554 S
O24 Eu1 2.394 . S
O24 C9 1.251 . S
O25 C9 1.251 . S
O25 Eu11 2.374 1_554 S
O26 C10 1.257 . S
O26 Eu11 2.473 1_554 S
O27 C10 1.260 1_556 S
O27 Eu11 2.480 . S
O28 Eu11 2.430 . S
O28 C18 1.259 . S
O29 Eu1 2.355 1_556 S
O29 Eu11 2.670 . S
O29 C18 1.270 . S
O30 Eu11 2.394 . S
O30 C19 1.251 . S
O31 Eu1 2.374 . S
O31 C19 1.251 1_554 S
H32 C3 0.931 . S
H33 C4 0.931 . S
H34 C6 0.931 . S
H35 C7 0.931 . S
H36 C13 0.931 . S
H37 C14 0.931 . S
H38 C16 0.931 . S
H39 C17 0.931 . S
C40 Eu41 2.835 1_556 S
C40 C42 1.500 . S
C40 O60 1.257 . S
C40 O61 1.260 1_556 S
Eu41 C40 2.835 1_554 S
Eu41 O60 2.473 1_554 S
Eu41 O61 2.480 . S
Eu41 O62 2.430 . S
Eu41 O63 2.670 . S
Eu41 O64 2.394 . S
Eu41 O69 2.355 1_554 S
Eu41 O71 2.374 . S
C42 C40 1.500 . S
C42 C43 1.377 1_556 S
C42 C47 1.377 . S
C43 C42 1.377 1_554 S
C43 C44 1.395 . S
C43 H72 0.931 . S
C44 C43 1.395 . S
C44 C45 1.383 1_554 S
C44 H73 0.931 . S
C45 C44 1.383 1_556 S
C45 C46 1.394 . S
C46 C45 1.394 . S
C46 C47 1.378 . S
C46 H74 0.931 . S
C47 C42 1.377 . S
C47 C46 1.378 . S
C47 H75 0.931 . S
C48 O62 1.259 . S
C48 O63 1.270 . S
C49 O64 1.251 . S
C49 O65 1.251 . S
C50 Eu51 2.835 1_554 S
C50 C52 1.500 . S
C50 O66 1.257 . S
C50 O67 1.260 1_554 S
Eu51 C50 2.835 1_556 S
Eu51 O63 2.355 1_556 S
Eu51 O65 2.374 1_556 S
Eu51 O66 2.473 1_556 S
Eu51 O67 2.480 . S
Eu51 O68 2.430 . S
Eu51 O69 2.670 . S
Eu51 O70 2.394 . S
C52 C50 1.500 . S
C52 C53 1.377 1_554 S
C52 C57 1.377 . S
C53 C52 1.377 1_556 S
C53 C54 1.395 . S
C53 H76 0.931 . S
C54 C53 1.395 . S
C54 C55 1.383 1_556 S
C54 H77 0.931 . S
C55 C54 1.383 1_554 S
C55 C56 1.394 . S
C56 C55 1.394 . S
C56 C57 1.378 . S
C56 H78 0.931 . S
C57 C52 1.377 . S
C57 C56 1.378 . S
C57 H79 0.931 . S
C58 O68 1.259 . S
C58 O69 1.270 . S
C59 O70 1.251 . S
C59 O71 1.251 1_556 S
O60 C40 1.257 . S
O60 Eu41 2.473 1_556 S
O61 C40 1.260 1_554 S
O61 Eu41 2.480 . S
O62 Eu41 2.430 . S
O62 C48 1.259 . S
O63 Eu41 2.670 . S
O63 C48 1.270 . S
O63 Eu51 2.355 1_554 S
O64 Eu41 2.394 . S
O64 C49 1.251 . S
O65 C49 1.251 . S
O65 Eu51 2.374 1_554 S
O66 C50 1.257 . S
O66 Eu51 2.473 1_554 S
O67 C50 1.260 1_556 S
O67 Eu51 2.480 . S
O68 Eu51 2.430 . S
O68 C58 1.259 . S
O69 Eu41 2.355 1_556 S
O69 Eu51 2.670 . S
O69 C58 1.270 . S
O70 Eu51 2.394 . S
O70 C59 1.251 . S
O71 Eu41 2.374 . S
O71 C59 1.251 1_554 S
H72 C43 0.931 . S
H73 C44 0.931 . S
H74 C46 0.931 . S
H75 C47 0.931 . S
H76 C53 0.931 . S
H77 C54 0.931 . S
H78 C56 0.931 . S
H79 C57 0.931 . S
C80 Eu81 2.835 1_556 S
C80 C82 1.500 . S
C80 O100 1.257 . S
C80 O101 1.260 1_556 S
Eu81 C80 2.835 1_554 S
Eu81 O100 2.473 1_554 S
Eu81 O101 2.480 . S
Eu81 O102 2.430 . S
Eu81 O103 2.670 . S
Eu81 O104 2.394 . S
Eu81 O109 2.355 1_554 S
Eu81 O111 2.374 . S
C82 C80 1.500 . S
C82 C83 1.377 1_556 S
C82 C87 1.377 . S
C83 C82 1.377 1_554 S
C83 C84 1.395 . S
C83 H112 0.931 . S
C84 C83 1.395 . S
C84 C85 1.383 1_554 S
C84 H113 0.931 . S
C85 C84 1.383 1_556 S
C85 C86 1.394 . S
C86 C85 1.394 . S
C86 C87 1.378 . S
C86 H114 0.931 . S
C87 C82 1.377 . S
C87 C86 1.378 . S
C87 H115 0.931 . S
C88 O102 1.259 . S
C88 O103 1.270 . S
C89 O104 1.251 . S
C89 O105 1.251 . S
C90 Eu91 2.835 1_554 S
C90 C92 1.500 . S
C90 O106 1.257 . S
C90 O107 1.260 1_554 S
Eu91 C90 2.835 1_556 S
Eu91 O103 2.355 1_556 S
Eu91 O105 2.374 1_556 S
Eu91 O106 2.473 1_556 S
Eu91 O107 2.480 . S
Eu91 O108 2.430 . S
Eu91 O109 2.670 . S
Eu91 O110 2.394 . S
C92 C90 1.500 . S
C92 C93 1.377 1_554 S
C92 C97 1.377 . S
C93 C92 1.377 1_556 S
C93 C94 1.395 . S
C93 H116 0.931 . S
C94 C93 1.395 . S
C94 C95 1.383 1_556 S
C94 H117 0.931 . S
C95 C94 1.383 1_554 S
C95 C96 1.394 . S
C96 C95 1.394 . S
C96 C97 1.378 . S
C96 H118 0.931 . S
C97 C92 1.377 . S
C97 C96 1.378 . S
C97 H119 0.931 . S
C98 O108 1.259 . S
C98 O109 1.270 . S
C99 O110 1.251 . S
C99 O111 1.251 1_556 S
O100 C80 1.257 . S
O100 Eu81 2.473 1_556 S
O101 C80 1.260 1_554 S
O101 Eu81 2.480 . S
O102 Eu81 2.430 . S
O102 C88 1.259 . S
O103 Eu81 2.670 . S
O103 C88 1.270 . S
O103 Eu91 2.355 1_554 S
O104 Eu81 2.394 . S
O104 C89 1.251 . S
O105 C89 1.251 . S
O105 Eu91 2.374 1_554 S
O106 C90 1.257 . S
O106 Eu91 2.473 1_554 S
O107 C90 1.260 1_556 S
O107 Eu91 2.480 . S
O108 Eu91 2.430 . S
O108 C98 1.259 . S
O109 Eu81 2.355 1_556 S
O109 Eu91 2.670 . S
O109 C98 1.270 . S
O110 Eu91 2.394 . S
O110 C99 1.251 . S
O111 Eu81 2.374 . S
O111 C99 1.251 1_554 S
H112 C83 0.931 . S
H113 C84 0.931 . S
H114 C86 0.931 . S
H115 C87 0.931 . S
H116 C93 0.931 . S
H117 C94 0.931 . S
H118 C96 0.931 . S
H119 C97 0.931 . S
C120 Eu121 2.835 1_556 S
C120 C122 1.500 . S
C120 O140 1.257 . S
C120 O141 1.260 1_556 S
Eu121 C120 2.835 1_554 S
Eu121 O140 2.473 1_554 S
Eu121 O141 2.480 . S
Eu121 O142 2.430 . S
Eu121 O143 2.670 . S
Eu121 O144 2.394 . S
Eu121 O149 2.355 1_554 S
Eu121 O151 2.374 . S
C122 C120 1.500 . S
C122 C123 1.377 1_556 S
C122 C127 1.377 . S
C123 C122 1.377 1_554 S
C123 C124 1.395 . S
C123 H152 0.931 . S
C124 C123 1.395 . S
C124 C125 1.383 1_554 S
C124 H153 0.931 . S
C125 C124 1.383 1_556 S
C125 C126 1.394 . S
C126 C125 1.394 . S
C126 C127 1.378 . S
C126 H154 0.931 . S
C127 C122 1.377 . S
C127 C126 1.378 . S
C127 H155 0.931 . S
C128 O142 1.259 . S
C128 O143 1.270 . S
C129 O144 1.251 . S
C129 O145 1.251 . S
C130 Eu131 2.835 1_554 S
C130 C132 1.500 . S
C130 O146 1.257 . S
C130 O147 1.260 1_554 S
Eu131 C130 2.835 1_556 S
Eu131 O143 2.355 1_556 S
Eu131 O145 2.374 1_556 S
Eu131 O146 2.473 1_556 S
Eu131 O147 2.480 . S
Eu131 O148 2.430 . S
Eu131 O149 2.670 . S
Eu131 O150 2.394 . S
C132 C130 1.500 . S
C132 C133 1.377 1_554 S
C132 C137 1.377 . S
C133 C132 1.377 1_556 S
C133 C134 1.395 . S
C133 H156 0.931 . S
C134 C133 1.395 . S
C134 C135 1.383 1_556 S
C134 H157 0.931 . S
C135 C134 1.383 1_554 S
C135 C136 1.394 . S
C136 C135 1.394 . S
C136 C137 1.378 . S
C136 H158 0.931 . S
C137 C132 1.377 . S
C137 C136 1.378 . S
C137 H159 0.931 . S
C138 O148 1.259 . S
C138 O149 1.270 . S
C139 O150 1.251 . S
C139 O151 1.251 1_556 S
O140 C120 1.257 . S
O140 Eu121 2.473 1_556 S
O141 C120 1.260 1_554 S
O141 Eu121 2.480 . S
O142 Eu121 2.430 . S
O142 C128 1.259 . S
O143 Eu121 2.670 . S
O143 C128 1.270 . S
O143 Eu131 2.355 1_554 S
O144 Eu121 2.394 . S
O144 C129 1.251 . S
O145 C129 1.251 . S
O145 Eu131 2.374 1_554 S
O146 C130 1.257 . S
O146 Eu131 2.473 1_554 S
O147 C130 1.260 1_556 S
O147 Eu131 2.480 . S
O148 Eu131 2.430 . S
O148 C138 1.259 . S
O149 Eu121 2.355 1_556 S
O149 Eu131 2.670 . S
O149 C138 1.270 . S
O150 Eu131 2.394 . S
O150 C139 1.251 . S
O151 Eu121 2.374 . S
O151 C139 1.251 1_554 S
H152 C123 0.931 . S
H153 C124 0.931 . S
H154 C126 0.931 . S
H155 C127 0.931 . S
H156 C133 0.931 . S
H157 C134 0.931 . S
H158 C136 0.931 . S
H159 C137 0.931 . S
C160 Eu161 2.835 1_556 S
C160 C162 1.500 . S
C160 O180 1.257 . S
C160 O181 1.260 1_556 S
Eu161 C160 2.835 1_554 S
Eu161 O180 2.473 1_554 S
Eu161 O181 2.480 . S
Eu161 O182 2.430 . S
Eu161 O183 2.670 . S
Eu161 O184 2.394 . S
Eu161 O189 2.355 1_554 S
Eu161 O191 2.374 . S
C162 C160 1.500 . S
C162 C163 1.377 1_556 S
C162 C167 1.377 . S
C163 C162 1.377 1_554 S
C163 C164 1.395 . S
C163 H192 0.931 . S
C164 C163 1.395 . S
C164 C165 1.383 1_554 S
C164 H193 0.931 . S
C165 C164 1.383 1_556 S
C165 C166 1.394 . S
C166 C165 1.394 . S
C166 C167 1.378 . S
C166 H194 0.931 . S
C167 C162 1.377 . S
C167 C166 1.378 . S
C167 H195 0.931 . S
C168 O182 1.259 . S
C168 O183 1.270 . S
C169 O184 1.251 . S
C169 O185 1.251 . S
C170 Eu171 2.835 1_554 S
C170 C172 1.500 . S
C170 O186 1.257 . S
C170 O187 1.260 1_554 S
Eu171 C170 2.835 1_556 S
Eu171 O183 2.355 1_556 S
Eu171 O185 2.374 1_556 S
Eu171 O186 2.473 1_556 S
Eu171 O187 2.480 . S
Eu171 O188 2.430 . S
Eu171 O189 2.670 . S
Eu171 O190 2.394 . S
C172 C170 1.500 . S
C172 C173 1.377 1_554 S
C172 C177 1.377 . S
C173 C172 1.377 1_556 S
C173 C174 1.395 . S
C173 H196 0.931 . S
C174 C173 1.395 . S
C174 C175 1.383 1_556 S
C174 H197 0.931 . S
C175 C174 1.383 1_554 S
C175 C176 1.394 . S
C176 C175 1.394 . S
C176 C177 1.378 . S
C176 H198 0.931 . S
C177 C172 1.377 . S
C177 C176 1.378 . S
C177 H199 0.931 . S
C178 O188 1.259 . S
C178 O189 1.270 . S
C179 O190 1.251 . S
C179 O191 1.251 1_556 S
O180 C160 1.257 . S
O180 Eu161 2.473 1_556 S
O181 C160 1.260 1_554 S
O181 Eu161 2.480 . S
O182 Eu161 2.430 . S
O182 C168 1.259 . S
O183 Eu161 2.670 . S
O183 C168 1.270 . S
O183 Eu171 2.355 1_554 S
O184 Eu161 2.394 . S
O184 C169 1.251 . S
O185 C169 1.251 . S
O185 Eu171 2.374 1_554 S
O186 C170 1.257 . S
O186 Eu171 2.473 1_554 S
O187 C170 1.260 1_556 S
O187 Eu171 2.480 . S
O188 Eu171 2.430 . S
O188 C178 1.259 . S
O189 Eu161 2.355 1_556 S
O189 Eu171 2.670 . S
O189 C178 1.270 . S
O190 Eu171 2.394 . S
O190 C179 1.251 . S
O191 Eu161 2.374 . S
O191 C179 1.251 1_554 S
H192 C163 0.931 . S
H193 C164 0.931 . S
H194 C166 0.931 . S
H195 C167 0.931 . S
H196 C173 0.931 . S
H197 C174 0.931 . S
H198 C176 0.931 . S
H199 C177 0.931 . S
C200 Eu201 2.835 1_556 S
C200 C202 1.500 . S
C200 O220 1.257 . S
C200 O221 1.260 1_556 S
Eu201 C200 2.835 1_554 S
Eu201 O220 2.473 1_554 S
Eu201 O221 2.480 . S
Eu201 O222 2.430 . S
Eu201 O223 2.670 . S
Eu201 O224 2.394 . S
Eu201 O229 2.355 1_554 S
Eu201 O231 2.374 . S
C202 C200 1.500 . S
C202 C203 1.377 1_556 S
C202 C207 1.377 . S
C203 C202 1.377 1_554 S
C203 C204 1.395 . S
C203 H232 0.931 . S
C204 C203 1.395 . S
C204 C205 1.383 1_554 S
C204 H233 0.931 . S
C205 C204 1.383 1_556 S
C205 C206 1.394 . S
C206 C205 1.394 . S
C206 C207 1.378 . S
C206 H234 0.931 . S
C207 C202 1.377 . S
C207 C206 1.378 . S
C207 H235 0.931 . S
C208 O222 1.259 . S
C208 O223 1.270 . S
C209 O224 1.251 . S
C209 O225 1.251 . S
C210 Eu211 2.835 1_554 S
C210 C212 1.500 . S
C210 O226 1.257 . S
C210 O227 1.260 1_554 S
Eu211 C210 2.835 1_556 S
Eu211 O223 2.355 1_556 S
Eu211 O225 2.374 1_556 S
Eu211 O226 2.473 1_556 S
Eu211 O227 2.480 . S
Eu211 O228 2.430 . S
Eu211 O229 2.670 . S
Eu211 O230 2.394 . S
C212 C210 1.500 . S
C212 C213 1.377 1_554 S
C212 C217 1.377 . S
C213 C212 1.377 1_556 S
C213 C214 1.395 . S
C213 H236 0.931 . S
C214 C213 1.395 . S
C214 C215 1.383 1_556 S
C214 H237 0.931 . S
C215 C214 1.383 1_554 S
C215 C216 1.394 . S
C216 C215 1.394 . S
C216 C217 1.378 . S
C216 H238 0.931 . S
C217 C212 1.377 . S
C217 C216 1.378 . S
C217 H239 0.931 . S
C218 O228 1.259 . S
C218 O229 1.270 . S
C219 O230 1.251 . S
C219 O231 1.251 1_556 S
O220 C200 1.257 . S
O220 Eu201 2.473 1_556 S
O221 C200 1.260 1_554 S
O221 Eu201 2.480 . S
O222 Eu201 2.430 . S
O222 C208 1.259 . S
O223 Eu201 2.670 . S
O223 C208 1.270 . S
O223 Eu211 2.355 1_554 S
O224 Eu201 2.394 . S
O224 C209 1.251 . S
O225 C209 1.251 . S
O225 Eu211 2.374 1_554 S
O226 C210 1.257 . S
O226 Eu211 2.473 1_554 S
O227 C210 1.260 1_556 S
O227 Eu211 2.480 . S
O228 Eu211 2.430 . S
O228 C218 1.259 . S
O229 Eu201 2.355 1_556 S
O229 Eu211 2.670 . S
O229 C218 1.270 . S
O230 Eu211 2.394 . S
O230 C219 1.251 . S
O231 Eu201 2.374 . S
O231 C219 1.251 1_554 S
H232 C203 0.931 . S
H233 C204 0.931 . S
H234 C206 0.931 . S
H235 C207 0.931 . S
H236 C213 0.931 . S
H237 C214 0.931 . S
H238 C216 0.931 . S
H239 C217 0.931 . S
H240 C252 0.930 . S
H241 C254 0.930 . S
H242 C255 0.930 . S
H243 C259 0.959 . S
H244 C259 0.959 . S
H245 C259 0.961 . S
H246 C260 0.960 . S
H247 C260 0.961 . S
H248 C260 0.959 . S
H249 C263 0.929 . S
H250 C264 0.931 . S
H251 C266 0.930 . S
C252 H240 0.930 . S
C252 C253 1.399 1_556 S
C252 C257 1.399 . S
C253 C252 1.399 1_554 S
C253 C254 1.376 . S
C254 H241 0.930 . S
C254 C253 1.376 . S
C254 C255 1.388 . S
C255 H242 0.930 . S
C255 C254 1.388 . S
C255 C256 1.390 . S
C256 C255 1.390 . S
C256 C257 1.394 1_554 S
C256 C262 1.465 . S
C257 C252 1.399 . S
C257 C256 1.394 1_556 S
C257 C258 1.516 . S
C258 C257 1.516 . S
C258 C259 1.502 . S
C258 C260 1.561 . S
C258 C261 1.526 . S
C259 H243 0.959 . S
C259 H244 0.959 . S
C259 H245 0.961 . S
C259 C258 1.502 . S
C260 H246 0.960 . S
C260 H247 0.961 . S
C260 H248 0.959 . S
C260 C258 1.561 . S
C261 C258 1.526 . S
C261 C262 1.396 1_556 S
C261 C266 1.390 . S
C262 C256 1.465 . S
C262 C261 1.396 1_554 S
C262 C263 1.399 . S
C263 H249 0.929 . S
C263 C262 1.399 . S
C263 C264 1.385 . S
C264 H250 0.931 . S
C264 C263 1.385 . S
C264 C265 1.389 1_554 S
C265 C264 1.389 1_556 S
C265 C266 1.387 . S
C266 H251 0.930 . S
C266 C261 1.390 . S
C266 C265 1.387 . S
H267 C279 0.930 . S
H268 C281 0.930 . S
H269 C282 0.930 . S
H270 C286 0.959 . S
H271 C286 0.959 . S
H272 C286 0.961 . S
H273 C287 0.960 . S
H274 C287 0.961 . S
H275 C287 0.959 . S
H276 C290 0.929 . S
H277 C291 0.931 . S
H278 C293 0.936 . S
C279 H267 0.930 . S
C279 C280 1.399 1_554 S
C279 C284 1.399 . S
C280 C279 1.399 1_556 S
C280 C281 1.376 . S
C281 H268 0.930 . S
C281 C280 1.376 . S
C281 C282 1.388 . S
C282 H269 0.930 . S
C282 C281 1.388 . S
C282 C283 1.390 . S
C283 C282 1.390 . S
C283 C284 1.394 1_556 S
C283 C289 1.465 . S
C284 C279 1.399 . S
C284 C283 1.394 1_554 S
C284 C285 1.516 . S
C285 C284 1.516 . S
C285 C286 1.502 . S
C285 C287 1.561 . S
C285 C288 1.526 . S
C286 H270 0.959 . S
C286 H271 0.959 . S
C286 H272 0.961 . S
C286 C285 1.502 . S
C287 H273 0.960 . S
C287 H274 0.961 . S
C287 H275 0.959 . S
C287 C285 1.561 . S
C288 C285 1.526 . S
C288 C289 1.396 1_554 S
C288 C293 1.380 1_455 S
C289 C283 1.465 . S
C289 C288 1.396 1_556 S
C289 C290 1.399 . S
C290 H276 0.929 . S
C290 C289 1.399 . S
C290 C291 1.385 1_455 S
C291 H277 0.931 . S
C291 C290 1.385 1_655 S
C291 C292 1.389 . S
C292 C291 1.389 . S
C292 C293 1.391 1_556 S
C293 H278 0.936 . S
C293 C288 1.380 1_655 S
C293 C292 1.391 1_554 S
H294 C306 0.930 . S
H295 C308 0.930 . S
H296 C309 0.930 . S
H297 C313 0.959 . S
H298 C313 0.959 . S
H299 C313 0.961 . S
H300 C314 0.960 . S
H301 C314 0.961 . S
H302 C314 0.959 1_556 S
H303 C317 0.929 . S
H304 C318 0.931 1_565 S
H305 C320 0.930 . S
C306 H294 0.930 . S
C306 C307 1.399 1_554 S
C306 C311 1.399 . S
C307 C306 1.399 1_556 S
C307 C308 1.376 . S
C308 H295 0.930 . S
C308 C307 1.376 . S
C308 C309 1.388 . S
C309 H296 0.930 . S
C309 C308 1.388 . S
C309 C310 1.390 . S
C310 C309 1.390 . S
C310 C311 1.394 1_556 S
C310 C316 1.465 . S
C311 C306 1.399 . S
C311 C310 1.394 1_554 S
C311 C312 1.516 . S
C312 C311 1.516 . S
C312 C313 1.502 . S
C312 C314 1.561 . S
C312 C315 1.526 . S
C313 H297 0.959 . S
C313 H298 0.959 . S
C313 H299 0.961 . S
C313 C312 1.502 . S
C314 H300 0.960 . S
C314 H301 0.961 . S
C314 H302 0.959 1_554 S
C314 C312 1.561 . S
C315 C312 1.526 . S
C315 C316 1.396 1_554 S
C315 C320 1.390 1_545 S
C316 C310 1.465 . S
C316 C315 1.396 1_556 S
C316 C317 1.399 . S
C317 H303 0.929 . S
C317 C316 1.399 . S
C317 C318 1.385 . S
C318 H304 0.931 1_545 S
C318 C317 1.385 . S
C318 C319 1.389 1_545 S
C319 C318 1.389 1_565 S
C319 C320 1.387 1_556 S
C320 H305 0.930 . S
C320 C315 1.390 1_565 S
C320 C319 1.387 1_554 S
H321 C333 0.930 . S
H322 C335 0.930 . S
H323 C336 0.930 1_554 S
H324 C340 0.959 1_554 S
H325 C340 0.959 . S
H326 C340 0.961 . S
H327 C341 0.960 . S
H328 C341 0.961 . S
H329 C341 0.959 . S
H330 C344 0.929 . S
H331 C345 0.931 . S
H332 C347 0.930 . S
C333 H321 0.930 . S
C333 C334 1.399 . S
C333 C338 1.399 . S
C334 C333 1.399 . S
C334 C335 1.376 . S
C335 H322 0.930 . S
C335 C334 1.376 . S
C335 C336 1.388 . S
C336 H323 0.930 1_556 S
C336 C335 1.388 . S
C336 C337 1.390 . S
C337 C336 1.390 . S
C337 C338 1.394 . S
C337 C343 1.465 . S
C338 C333 1.399 . S
C338 C337 1.394 . S
C338 C339 1.516 . S
C339 C338 1.516 . S
C339 C340 1.502 . S
C339 C341 1.561 . S
C339 C342 1.526 . S
C340 H324 0.959 1_556 S
C340 H325 0.959 . S
C340 H326 0.961 . S
C340 C339 1.502 . S
C341 H327 0.960 . S
C341 H328 0.961 . S
C341 H329 0.959 . S
C341 C339 1.561 . S
C342 C339 1.526 . S
C342 C343 1.396 . S
C342 C347 1.390 . S
C343 C337 1.465 . S
C343 C342 1.396 . S
C343 C344 1.399 1_556 S
C344 H330 0.929 . S
C344 C343 1.399 1_554 S
C344 C345 1.385 . S
C345 H331 0.931 . S
C345 C344 1.385 . S
C345 C346 1.392 . S
C346 C345 1.392 . S
C346 C347 1.384 1_554 S
C347 H332 0.930 . S
C347 C342 1.390 . S
C347 C346 1.384 1_556 S
H348 C360 0.930 . S
H349 C362 0.930 . S
H350 C363 0.930 . S
H351 C367 0.959 . S
H352 C367 0.959 . S
H353 C367 0.961 . S
H354 C368 0.960 . S
H355 C368 0.961 . S
H356 C368 0.959 . S
H357 C371 0.929 . S
H358 C372 0.931 . S
H359 C374 0.930 1_554 S
C360 H348 0.930 . S
C360 C361 1.399 1_655 S
C360 C365 1.399 . S
C361 C360 1.399 1_455 S
C361 C362 1.376 . S
C362 H349 0.930 . S
C362 C361 1.376 . S
C362 C363 1.388 1_455 S
C363 H350 0.930 . S
C363 C362 1.388 1_655 S
C363 C364 1.390 . S
C364 C363 1.390 . S
C364 C365 1.394 . S
C364 C370 1.465 . S
C365 C360 1.399 . S
C365 C364 1.394 . S
C365 C366 1.516 . S
C366 C365 1.516 . S
C366 C367 1.502 1_556 S
C366 C368 1.561 . S
C366 C369 1.526 . S
C367 H351 0.959 . S
C367 H352 0.959 . S
C367 H353 0.961 . S
C367 C366 1.502 1_554 S
C368 H354 0.960 . S
C368 H355 0.961 . S
C368 H356 0.959 . S
C368 C366 1.561 . S
C369 C366 1.526 . S
C369 C370 1.396 . S
C369 C374 1.390 . S
C370 C364 1.465 . S
C370 C369 1.396 . S
C370 C371 1.399 . S
C371 H357 0.929 . S
C371 C370 1.399 . S
C371 C372 1.385 . S
C372 H358 0.931 . S
C372 C371 1.385 . S
C372 C373 1.389 . S
C373 C372 1.389 . S
C373 C374 1.387 . S
C374 H359 0.930 1_556 S
C374 C369 1.390 . S
C374 C373 1.387 . S
H375 C387 0.930 . S
H376 C389 0.930 . S
H377 C390 0.930 . S
H378 C394 0.959 . S
H379 C394 0.959 . S
H380 C394 0.961 . S
H381 C395 0.960 . S
H382 C395 0.961 . S
H383 C395 0.959 . S
H384 C398 0.929 . S
H385 C399 0.931 . S
H386 C401 0.930 1_545 S
C387 H375 0.930 . S
C387 C388 1.399 1_554 S
C387 C392 1.399 . S
C388 C387 1.399 1_556 S
C388 C389 1.376 . S
C389 H376 0.930 . S
C389 C388 1.376 . S
C389 C390 1.388 . S
C390 H377 0.930 . S
C390 C389 1.388 . S
C390 C391 1.390 . S
C391 C390 1.390 . S
C391 C392 1.394 1_556 S
C391 C397 1.465 . S
C392 C387 1.399 . S
C392 C391 1.394 1_554 S
C392 C393 1.516 . S
C393 C392 1.516 . S
C393 C394 1.502 . S
C393 C395 1.561 . S
C393 C396 1.526 . S
C394 H378 0.959 . S
C394 H379 0.959 . S
C394 H380 0.961 . S
C394 C393 1.502 . S
C395 H381 0.960 . S
C395 H382 0.961 . S
C395 H383 0.959 . S
C395 C393 1.561 . S
C396 C393 1.526 . S
C396 C397 1.396 1_554 S
C396 C401 1.390 . S
C397 C391 1.465 . S
C397 C396 1.396 1_556 S
C397 C398 1.399 . S
C398 H384 0.929 . S
C398 C397 1.399 . S
C398 C399 1.385 1_565 S
C399 H385 0.931 . S
C399 C398 1.385 1_545 S
C399 C400 1.389 . S
C400 C399 1.389 . S
C400 C401 1.387 1_546 S
C401 H386 0.930 1_565 S
C401 C396 1.390 . S
C401 C400 1.387 1_564 S
H402 C414 0.930 . S
H403 C416 0.930 . S
H404 C417 0.930 . S
H405 C421 0.959 . S
H406 C421 0.959 1_556 S
H407 C421 0.961 1_556 S
H408 C422 0.960 . S
H409 C422 0.961 . S
H410 C422 0.959 . S
H411 C425 0.929 . S
H412 C426 0.931 . S
H413 C428 0.930 1_556 S
C414 H402 0.930 . S
C414 C415 1.399 1_556 S
C414 C419 1.399 . S
C415 C414 1.399 1_554 S
C415 C416 1.376 . S
C416 H403 0.930 . S
C416 C415 1.376 . S
C416 C417 1.388 . S
C417 H404 0.930 . S
C417 C416 1.388 . S
C417 C418 1.390 . S
C418 C417 1.390 . S
C418 C419 1.394 1_554 S
C418 C424 1.465 . S
C419 C414 1.399 . S
C419 C418 1.394 1_556 S
C419 C420 1.516 . S
C420 C419 1.516 . S
C420 C421 1.502 1_556 S
C420 C422 1.561 . S
C420 C423 1.526 1_556 S
C421 H405 0.959 . S
C421 H406 0.959 1_554 S
C421 H407 0.961 1_554 S
C421 C420 1.502 1_554 S
C422 H408 0.960 . S
C422 H409 0.961 . S
C422 H410 0.959 . S
C422 C420 1.561 . S
C423 C420 1.526 1_554 S
C423 C424 1.396 . S
C423 C428 1.390 . S
C424 C418 1.465 . S
C424 C423 1.396 . S
C424 C425 1.399 . S
C425 H411 0.929 . S
C425 C424 1.399 . S
C425 C426 1.385 . S
C426 H412 0.931 . S
C426 C425 1.385 . S
C426 C427 1.389 . S
C427 C426 1.389 . S
C427 C428 1.387 . S
C428 H413 0.930 1_554 S
C428 C423 1.390 . S
C428 C427 1.387 . S
H429 C441 0.930 . S
H430 C443 0.930 . S
H431 C444 0.930 . S
H432 C448 0.959 . S
H433 C448 0.959 . S
H434 C448 0.961 . S
H435 C449 0.960 . S
H436 C449 0.961 . S
H437 C449 0.959 1_554 S
H438 C452 0.929 . S
H439 C453 0.931 . S
H440 C455 0.930 . S
C441 H429 0.930 . S
C441 C442 1.399 1_556 S
C441 C446 1.399 . S
C442 C441 1.399 1_554 S
C442 C443 1.376 . S
C443 H430 0.930 . S
C443 C442 1.376 . S
C443 C444 1.388 . S
C444 H431 0.930 . S
C444 C443 1.388 . S
C444 C445 1.390 . S
C445 C444 1.390 . S
C445 C446 1.394 1_554 S
C445 C451 1.465 . S
C446 C441 1.399 . S
C446 C445 1.394 1_556 S
C446 C447 1.516 . S
C447 C446 1.516 . S
C447 C448 1.502 . S
C447 C449 1.561 . S
C447 C450 1.526 1_556 S
C448 H432 0.959 . S
C448 H433 0.959 . S
C448 H434 0.961 . S
C448 C447 1.502 . S
C449 H435 0.960 . S
C449 H436 0.961 . S
C449 H437 0.959 1_556 S
C449 C447 1.561 . S
C450 C447 1.526 1_554 S
C450 C451 1.396 . S
C450 C455 1.390 1_554 S
C451 C445 1.465 . S
C451 C450 1.396 . S
C451 C452 1.399 . S
C452 H438 0.929 . S
C452 C451 1.399 . S
C452 C453 1.385 . S
C453 H439 0.931 . S
C453 C452 1.385 . S
C453 C454 1.389 . S
C454 C453 1.389 . S
C454 C455 1.387 1_554 S
C455 H440 0.930 . S
C455 C450 1.390 1_556 S
C455 C454 1.387 1_556 S
H456 C468 0.930 . S
H457 C470 0.930 . S
H458 C471 0.930 . S
H459 C475 0.959 . S
H460 C475 0.959 . S
H461 C475 0.961 . S
H462 C476 0.960 . S
H463 C476 0.961 . S
H464 C476 0.959 . S
H465 C479 0.929 . S
H466 C480 0.931 . S
H467 C482 0.930 . S
C468 H456 0.930 . S
C468 C469 1.399 1_556 S
C468 C473 1.399 . S
C469 C468 1.399 1_554 S
C469 C470 1.376 . S
C470 H457 0.930 . S
C470 C469 1.376 . S
C470 C471 1.388 . S
C471 H458 0.930 . S
C471 C470 1.388 . S
C471 C472 1.390 . S
C472 C471 1.390 . S
C472 C473 1.394 1_554 S
C472 C478 1.465 . S
C473 C468 1.399 . S
C473 C472 1.394 1_556 S
C473 C474 1.516 . S
C474 C473 1.516 . S
C474 C475 1.502 . S
C474 C476 1.561 . S
C474 C477 1.526 . S
C475 H459 0.959 . S
C475 H460 0.959 . S
C475 H461 0.961 . S
C475 C474 1.502 . S
C476 H462 0.960 . S
C476 H463 0.961 . S
C476 H464 0.959 . S
C476 C474 1.561 . S
C477 C474 1.526 . S
C477 C478 1.396 1_556 S
C477 C482 1.390 . S
C478 C472 1.465 . S
C478 C477 1.396 1_554 S
C478 C479 1.399 . S
C479 H465 0.929 . S
C479 C478 1.399 . S
C479 C480 1.385 . S
C480 H466 0.931 . S
C480 C479 1.385 . S
C480 C481 1.389 . S
C481 C480 1.389 . S
C481 C482 1.387 1_554 S
C482 H467 0.930 . S
C482 C477 1.390 . S
C482 C481 1.387 1_556 S
H483 C495 0.930 . S
H484 C497 0.930 . S
H485 C498 0.930 . S
H486 C502 0.959 . S
H487 C502 0.959 . S
H488 C502 0.961 . S
H489 C503 0.960 . S
H490 C503 0.961 . S
H491 C503 0.959 . S
H492 C506 0.929 . S
H493 C507 0.931 . S
H494 C509 0.930 . S
C495 H483 0.930 . S
C495 C496 1.399 . S
C495 C500 1.399 . S
C496 C495 1.399 . S
C496 C497 1.376 1_554 S
C497 H484 0.930 . S
C497 C496 1.376 1_556 S
C497 C498 1.388 . S
C498 H485 0.930 . S
C498 C497 1.388 . S
C498 C499 1.390 . S
C499 C498 1.390 . S
C499 C500 1.394 1_556 S
C499 C505 1.465 . S
C500 C495 1.399 . S
C500 C499 1.394 1_554 S
C500 C501 1.516 . S
C501 C500 1.516 . S
C501 C502 1.502 . S
C501 C503 1.561 . S
C501 C504 1.526 . S
C502 H486 0.959 . S
C502 H487 0.959 . S
C502 H488 0.961 . S
C502 C501 1.502 . S
C503 H489 0.960 . S
C503 H490 0.961 . S
C503 H491 0.959 . S
C503 C501 1.561 . S
C504 C501 1.526 . S
C504 C505 1.396 1_554 S
C504 C509 1.390 . S
C505 C499 1.465 . S
C505 C504 1.396 1_556 S
C505 C506 1.399 . S
C506 H492 0.929 . S
C506 C505 1.399 . S
C506 C507 1.385 . S
C507 H493 0.931 . S
C507 C506 1.385 . S
C507 C508 1.389 . S
C508 C507 1.389 . S
C508 C509 1.387 1_556 S
C509 H494 0.930 . S
C509 C504 1.390 . S
C509 C508 1.387 1_554 S
H510 C522 0.930 . S
H511 C524 0.930 . S
H512 C525 0.930 . S
H513 C529 0.959 . S
H514 C529 0.959 . S
H515 C529 0.961 . S
H516 C530 0.960 . S
H517 C530 0.961 . S
H518 C530 0.959 . S
H519 C533 0.929 . S
H520 C534 0.931 . S
H521 C536 0.930 1_556 S
C522 H510 0.930 . S
C522 C523 1.399 . S
C522 C527 1.399 . S
C523 C522 1.399 . S
C523 C524 1.376 . S
C524 H511 0.930 . S
C524 C523 1.376 . S
C524 C525 1.388 . S
C525 H512 0.930 . S
C525 C524 1.388 . S
C525 C526 1.390 . S
C526 C525 1.390 . S
C526 C527 1.394 . S
C526 C532 1.465 . S
C527 C522 1.399 . S
C527 C526 1.394 . S
C527 C528 1.516 . S
C528 C527 1.516 . S
C528 C529 1.502 . S
C528 C530 1.561 1_554 S
C528 C531 1.526 . S
C529 H513 0.959 . S
C529 H514 0.959 . S
C529 H515 0.961 . S
C529 C528 1.502 . S
C530 H516 0.960 . S
C530 H517 0.961 . S
C530 H518 0.959 . S
C530 C528 1.561 1_556 S
C531 C528 1.526 . S
C531 C532 1.396 . S
C531 C536 1.390 . S
C532 C526 1.465 . S
C532 C531 1.396 . S
C532 C533 1.399 . S
C533 H519 0.929 . S
C533 C532 1.399 . S
C533 C534 1.385 . S
C534 H520 0.931 . S
C534 C533 1.385 . S
C534 C535 1.389 . S
C535 C534 1.389 . S
C535 C536 1.387 . S
C536 H521 0.930 1_554 S
C536 C531 1.390 . S
C536 C535 1.387 . S
H537 C549 0.930 . S
H538 C551 0.930 . S
H539 C552 0.930 . S
H540 C556 0.959 . S
H541 C556 0.959 . S
H542 C556 0.961 . S
H543 C557 0.960 . S
H544 C557 0.961 . S
H545 C557 0.959 . S
H546 C560 0.929 . S
H547 C561 0.931 . S
H548 C563 0.930 . S
C549 H537 0.930 . S
C549 C550 1.393 1_554 S
C549 C554 1.399 . S
C550 C549 1.393 1_556 S
C550 C551 1.383 . S
C551 H538 0.930 . S
C551 C550 1.383 . S
C551 C552 1.388 . S
C552 H539 0.930 . S
C552 C551 1.388 . S
C552 C553 1.390 . S
C553 C552 1.390 . S
C553 C554 1.394 1_556 S
C553 C559 1.465 1_556 S
C554 C549 1.399 . S
C554 C553 1.394 1_554 S
C554 C555 1.516 . S
C555 C554 1.516 . S
C555 C556 1.502 . S
C555 C557 1.561 . S
C555 C558 1.526 . S
C556 H540 0.959 . S
C556 H541 0.959 . S
C556 H542 0.961 . S
C556 C555 1.502 . S
C557 H543 0.960 . S
C557 H544 0.961 . S
C557 H545 0.959 . S
C557 C555 1.561 . S
C558 C555 1.526 . S
C558 C559 1.396 . S
C558 C563 1.390 . S
C559 C553 1.465 1_554 S
C559 C558 1.396 . S
C559 C560 1.399 1_554 S
C560 H546 0.929 . S
C560 C559 1.399 1_556 S
C560 C561 1.385 . S
C561 H547 0.931 . S
C561 C560 1.385 . S
C561 C562 1.389 1_556 S
C562 C561 1.389 1_554 S
C562 C563 1.387 . S
C563 H548 0.930 . S
C563 C558 1.390 . S
C563 C562 1.387 . S
H564 C576 0.930 . S
H565 C578 0.930 . S
H566 C579 0.930 . S
H567 C583 0.959 . S
H568 C583 0.959 . S
H569 C583 0.961 . S
H570 C584 0.960 . S
H571 C584 0.961 . S
H572 C584 0.959 . S
H573 C587 0.929 . S
H574 C588 0.931 . S
H575 C590 0.930 . S
C576 H564 0.930 . S
C576 C577 1.399 . S
C576 C581 1.399 . S
C577 C576 1.399 . S
C577 C578 1.376 . S
C578 H565 0.930 . S
C578 C577 1.376 . S
C578 C579 1.388 . S
C579 H566 0.930 . S
C579 C578 1.388 . S
C579 C580 1.390 . S
C580 C579 1.390 . S
C580 C581 1.394 . S
C580 C586 1.465 . S
C581 C576 1.399 . S
C581 C580 1.394 . S
C581 C582 1.516 . S
C582 C581 1.516 . S
C582 C583 1.502 . S
C582 C584 1.561 . S
C582 C585 1.526 . S
C583 H567 0.959 . S
C583 H568 0.959 . S
C583 H569 0.961 . S
C583 C582 1.502 . S
C584 H570 0.960 . S
C584 H571 0.961 . S
C584 H572 0.959 . S
C584 C582 1.561 . S
C585 C582 1.526 . S
C585 C586 1.396 . S
C585 C590 1.390 . S
C586 C580 1.465 . S
C586 C585 1.396 . S
C586 C587 1.399 . S
C587 H573 0.929 . S
C587 C586 1.399 . S
C587 C588 1.385 . S
C588 H574 0.931 . S
C588 C587 1.385 . S
C588 C589 1.389 . S
C589 C588 1.389 . S
C589 C590 1.387 . S
C590 H575 0.930 . S
C590 C585 1.390 . S
C590 C589 1.387 . S
H591 C603 0.930 . S
H592 C605 0.930 . S
H593 C606 0.930 . S
H594 C610 0.959 . S
H595 C610 0.959 . S
H596 C610 0.961 . S
H597 C611 0.960 . S
H598 C611 0.961 . S
H599 C611 0.959 . S
H600 C614 0.929 . S
H601 C615 0.931 . S
H602 C617 0.930 . S
C603 H591 0.930 . S
C603 C604 1.399 . S
C603 C608 1.399 . S
C604 C603 1.399 . S
C604 C605 1.376 . S
C605 H592 0.930 . S
C605 C604 1.376 . S
C605 C606 1.388 . S
C606 H593 0.930 . S
C606 C605 1.388 . S
C606 C607 1.390 . S
C607 C606 1.390 . S
C607 C608 1.394 . S
C607 C613 1.465 . S
C608 C603 1.399 . S
C608 C607 1.394 . S
C608 C609 1.516 . S
C609 C608 1.516 . S
C609 C610 1.502 . S
C609 C611 1.561 . S
C609 C612 1.526 . S
C610 H594 0.959 . S
C610 H595 0.959 . S
C610 H596 0.961 . S
C610 C609 1.502 . S
C611 H597 0.960 . S
C611 H598 0.961 . S
C611 H599 0.959 . S
C611 C609 1.561 . S
C612 C609 1.526 . S
C612 C613 1.396 . S
C612 C617 1.390 . S
C613 C607 1.465 . S
C613 C612 1.396 . S
C613 C614 1.399 . S
C614 H600 0.929 . S
C614 C613 1.399 . S
C614 C615 1.385 . S
C615 H601 0.931 . S
C615 C614 1.385 . S
C615 C616 1.389 . S
C616 C615 1.389 . S
C616 C617 1.387 . S
C617 H602 0.930 . S
C617 C612 1.390 . S
C617 C616 1.387 . S
H618 C630 0.930 . S
H619 C632 0.930 . S
H620 C633 0.930 . S
H621 C637 0.959 . S
H622 C637 0.959 . S
H623 C637 0.961 . S
H624 C638 0.960 . S
H625 C638 0.961 . S
H626 C638 0.959 . S
H627 C641 0.929 . S
H628 C642 0.931 . S
H629 C644 0.930 . S
C630 H618 0.930 . S
C630 C631 1.399 . S
C630 C635 1.399 . S
C631 C630 1.399 . S
C631 C632 1.376 . S
C632 H619 0.930 . S
C632 C631 1.376 . S
C632 C633 1.388 . S
C633 H620 0.930 . S
C633 C632 1.388 . S
C633 C634 1.390 . S
C634 C633 1.390 . S
C634 C635 1.394 . S
C634 C640 1.465 . S
C635 C630 1.399 . S
C635 C634 1.394 . S
C635 C636 1.516 . S
C636 C635 1.516 . S
C636 C637 1.502 . S
C636 C638 1.561 . S
C636 C639 1.526 . S
C637 H621 0.959 . S
C637 H622 0.959 . S
C637 H623 0.961 . S
C637 C636 1.502 . S
C638 H624 0.960 . S
C638 H625 0.961 . S
C638 H626 0.959 . S
C638 C636 1.561 . S
C639 C636 1.526 . S
C639 C640 1.396 . S
C639 C644 1.390 . S
C640 C634 1.465 . S
C640 C639 1.396 . S
C640 C641 1.399 . S
C641 H627 0.929 . S
C641 C640 1.399 . S
C641 C642 1.385 . S
C642 H628 0.931 . S
C642 C641 1.385 . S
C642 C643 1.389 . S
C643 C642 1.389 . S
C643 C644 1.387 . S
C644 H629 0.930 . S
C644 C639 1.390 . S
C644 C643 1.387 . S
H645 C657 0.930 . S
H646 C659 0.930 . S
H647 C660 0.930 . S
H648 C664 0.959 . S
H649 C664 0.959 . S
H650 C664 0.961 . S
H651 C665 0.960 . S
H652 C665 0.961 . S
H653 C665 0.959 . S
H654 C668 0.929 . S
H655 C669 0.931 . S
H656 C671 0.930 . S
C657 H645 0.930 . S
C657 C658 1.399 . S
C657 C662 1.399 . S
C658 C657 1.399 . S
C658 C659 1.376 . S
C659 H646 0.930 . S
C659 C658 1.376 . S
C659 C660 1.388 . S
C660 H647 0.930 . S
C660 C659 1.388 . S
C660 C661 1.390 . S
C661 C660 1.390 . S
C661 C662 1.394 . S
C661 C667 1.465 . S
C662 C657 1.399 . S
C662 C661 1.394 . S
C662 C663 1.516 . S
C663 C662 1.516 . S
C663 C664 1.502 . S
C663 C665 1.561 . S
C663 C666 1.526 . S
C664 H648 0.959 . S
C664 H649 0.959 . S
C664 H650 0.961 . S
C664 C663 1.502 . S
C665 H651 0.960 . S
C665 H652 0.961 . S
C665 H653 0.959 . S
C665 C663 1.561 . S
C666 C663 1.526 . S
C666 C667 1.396 . S
C666 C671 1.390 . S
C667 C661 1.465 . S
C667 C666 1.396 . S
C667 C668 1.399 . S
C668 H654 0.929 . S
C668 C667 1.399 . S
C668 C669 1.385 . S
C669 H655 0.931 . S
C669 C668 1.385 . S
C669 C670 1.389 . S
C670 C669 1.389 . S
C670 C671 1.387 . S
C671 H656 0.930 . S
C671 C666 1.390 . S
C671 C670 1.387 . S
H672 C684 0.930 . S
H673 C686 0.930 . S
H674 C687 0.930 . S
H675 C691 0.959 . S
H676 C691 0.959 . S
H677 C691 0.961 . S
H678 C692 0.960 . S
H679 C692 0.961 . S
H680 C692 0.959 . S
H681 C695 0.929 . S
H682 C696 0.931 . S
H683 C698 0.930 . S
C684 H672 0.930 . S
C684 C685 1.399 . S
C684 C689 1.399 . S
C685 C684 1.399 . S
C685 C686 1.376 . S
C686 H673 0.930 . S
C686 C685 1.376 . S
C686 C687 1.388 . S
C687 H674 0.930 . S
C687 C686 1.388 . S
C687 C688 1.390 . S
C688 C687 1.390 . S
C688 C689 1.394 . S
C688 C694 1.465 . S
C689 C684 1.399 . S
C689 C688 1.394 . S
C689 C690 1.516 . S
C690 C689 1.516 . S
C690 C691 1.502 . S
C690 C692 1.561 . S
C690 C693 1.526 . S
C691 H675 0.959 . S
C691 H676 0.959 . S
C691 H677 0.961 . S
C691 C690 1.502 . S
C692 H678 0.960 . S
C692 H679 0.961 . S
C692 H680 0.959 . S
C692 C690 1.561 . S
C693 C690 1.526 . S
C693 C694 1.396 . S
C693 C698 1.390 . S
C694 C688 1.465 . S
C694 C693 1.396 . S
C694 C695 1.399 . S
C695 H681 0.929 . S
C695 C694 1.399 . S
C695 C696 1.385 . S
C696 H682 0.931 . S
C696 C695 1.385 . S
C696 C697 1.389 . S
C697 C696 1.389 . S
C697 C698 1.387 . S
C698 H683 0.930 . S
C698 C693 1.390 . S
C698 C697 1.387 . S
H699 C711 0.930 . S
H700 C713 0.930 . S
H701 C714 0.930 . S
H702 C718 0.959 . S
H703 C718 0.959 . S
H704 C718 0.961 . S
H705 C719 0.960 . S
H706 C719 0.961 . S
H707 C719 0.959 . S
H708 C722 0.929 . S
H709 C723 0.931 . S
H710 C725 0.930 . S
C711 H699 0.930 . S
C711 C712 1.399 . S
C711 C716 1.399 . S
C712 C711 1.399 . S
C712 C713 1.376 . S
C713 H700 0.930 . S
C713 C712 1.376 . S
C713 C714 1.388 . S
C714 H701 0.930 . S
C714 C713 1.388 . S
C714 C715 1.390 . S
C715 C714 1.390 . S
C715 C716 1.394 . S
C715 C721 1.465 . S
C716 C711 1.399 . S
C716 C715 1.394 . S
C716 C717 1.516 . S
C717 C716 1.516 . S
C717 C718 1.502 . S
C717 C719 1.561 . S
C717 C720 1.526 . S
C718 H702 0.959 . S
C718 H703 0.959 . S
C718 H704 0.961 . S
C718 C717 1.502 . S
C719 H705 0.960 . S
C719 H706 0.961 . S
C719 H707 0.959 . S
C719 C717 1.561 . S
C720 C717 1.526 . S
C720 C721 1.396 . S
C720 C725 1.390 . S
C721 C715 1.465 . S
C721 C720 1.396 . S
C721 C722 1.399 . S
C722 H708 0.929 . S
C722 C721 1.399 . S
C722 C723 1.385 . S
C723 H709 0.931 . S
C723 C722 1.385 . S
C723 C724 1.389 . S
C724 C723 1.389 . S
C724 C725 1.387 . S
C725 H710 0.930 . S
C725 C720 1.390 . S
C725 C724 1.387 . S
C253 C209 1.882 . S
C265 C5 1.721 . S
C280 C9 1.877 1_556 S
C292 C45 1.717 . S
C307 C49 1.885 1_556 S
C319 C85 1.738 . S
C334 C125 1.653 . S
C346 C89 1.857 . S
C361 C165 1.665 . S
C373 C129 1.859 1_556 S
C388 C169 1.870 1_556 S
C400 C205 1.698 . S
C415 C179 1.903 1_554 S
C427 C15 1.900 . S
C442 C219 1.902 1_554 S
C454 C55 1.900 . S
C469 C95 1.897 . S
C481 C19 1.900 1_554 S
C496 C135 1.887 . S
C508 C59 1.894 . S
C523 C175 1.884 . S
C535 C99 1.890 1_554 S
C550 C139 1.891 . S
C562 C215 1.883 . S
C577 C18 1.471 . S
C589 C8 1.407 . S
C604 C58 1.429 . S
C616 C48 1.425 . S
C631 C98 1.471 . S
C643 C88 1.391 . S
C658 C138 1.478 . S
C670 C128 1.395 . S
C685 C168 1.388 . S
C697 C178 1.474 . S
C712 C218 1.470 . S
C724 C208 1.391 . S
