# Generated by pormake.
# Topology unl, (4)-cn, num edge types: 1
# Building blocks:
#     Node 0, Type 0, BuildingBlock: KUFVIS_clean_sbu_0, # of connection points: 4
#     Node 1, Type 0, BuildingBlock: KUFVIS_clean_sbu_0, # of connection points: 4
#     Node 2, Type 0, BuildingBlock: KUFVIS_clean_sbu_0, # of connection points: 4
#     Node 3, Type 0, BuildingBlock: KUFVIS_clean_sbu_0, # of connection points: 4
#     Node 4, Type 0, BuildingBlock: KUFVIS_clean_sbu_0, # of connection points: 4
#     Node 5, Type 0, BuildingBlock: KUFVIS_clean_sbu_0, # of connection points: 4
#     Node 6, Type 0, BuildingBlock: KUFVIS_clean_sbu_0, # of connection points: 4
#     Node 7, Type 0, BuildingBlock: KUFVIS_clean_sbu_0, # of connection points: 4
#     Node 8, Type 0, BuildingBlock: KUFVIS_clean_sbu_0, # of connection points: 4
#     Node 9, Type 0, BuildingBlock: KUFVIS_clean_sbu_0, # of connection points: 4
#     Node 10, Type 0, BuildingBlock: KUFVIS_clean_sbu_0, # of connection points: 4
#     Node 11, Type 0, BuildingBlock: KUFVIS_clean_sbu_0, # of connection points: 4
#     Node 12, Type 0, BuildingBlock: KUFVIS_clean_sbu_0, # of connection points: 4
#     Node 13, Type 0, BuildingBlock: KUFVIS_clean_sbu_0, # of connection points: 4
#     Node 14, Type 0, BuildingBlock: KUFVIS_clean_sbu_0, # of connection points: 4
#     Node 15, Type 0, BuildingBlock: KUFVIS_clean_sbu_0, # of connection points: 4
#     Node 16, Type 0, BuildingBlock: KUFVIS_clean_sbu_0, # of connection points: 4
#     Node 17, Type 0, BuildingBlock: KUFVIS_clean_sbu_0, # of connection points: 4
#     Node 18, Type 0, BuildingBlock: KUFVIS_clean_sbu_0, # of connection points: 4
#     Node 19, Type 0, BuildingBlock: KUFVIS_clean_sbu_0, # of connection points: 4
#     Node 20, Type 0, BuildingBlock: KUFVIS_clean_sbu_0, # of connection points: 4
#     Node 21, Type 0, BuildingBlock: KUFVIS_clean_sbu_0, # of connection points: 4
#     Node 22, Type 0, BuildingBlock: KUFVIS_clean_sbu_0, # of connection points: 4
#     Node 23, Type 0, BuildingBlock: KUFVIS_clean_sbu_0, # of connection points: 4
#     Node 24, Type 0, BuildingBlock: KUFVIS_clean_sbu_0, # of connection points: 4
#     Node 25, Type 0, BuildingBlock: KUFVIS_clean_sbu_0, # of connection points: 4
#     Node 26, Type 0, BuildingBlock: KUFVIS_clean_sbu_0, # of connection points: 4
#     Node 27, Type 0, BuildingBlock: KUFVIS_clean_sbu_0, # of connection points: 4
#     Node 28, Type 0, BuildingBlock: KUFVIS_clean_sbu_0, # of connection points: 4
#     Node 29, Type 0, BuildingBlock: KUFVIS_clean_sbu_0, # of connection points: 4
#     Node 30, Type 0, BuildingBlock: KUFVIS_clean_sbu_0, # of connection points: 4
#     Node 31, Type 0, BuildingBlock: KUFVIS_clean_sbu_0, # of connection points: 4
#     Node 32, Type 0, BuildingBlock: KUFVIS_clean_sbu_0, # of connection points: 4
#     Node 33, Type 0, BuildingBlock: KUFVIS_clean_sbu_0, # of connection points: 4
#     Node 34, Type 0, BuildingBlock: KUFVIS_clean_sbu_0, # of connection points: 4
#     Node 35, Type 0, BuildingBlock: KUFVIS_clean_sbu_0, # of connection points: 4
#     Edge 36, Type (0, 0), BuildingBlock: OJICUG_clean_linker_0, # of connection points: 2
#     Edge 37, Type (0, 0), BuildingBlock: OJICUG_clean_linker_0, # of connection points: 2
#     Edge 38, Type (0, 0), BuildingBlock: OJICUG_clean_linker_0, # of connection points: 2
#     Edge 39, Type (0, 0), BuildingBlock: OJICUG_clean_linker_0, # of connection points: 2
#     Edge 40, Type (0, 0), BuildingBlock: OJICUG_clean_linker_0, # of connection points: 2
#     Edge 41, Type (0, 0), BuildingBlock: OJICUG_clean_linker_0, # of connection points: 2
#     Edge 42, Type (0, 0), BuildingBlock: OJICUG_clean_linker_0, # of connection points: 2
#     Edge 43, Type (0, 0), BuildingBlock: OJICUG_clean_linker_0, # of connection points: 2
#     Edge 44, Type (0, 0), BuildingBlock: OJICUG_clean_linker_0, # of connection points: 2
#     Edge 45, Type (0, 0), BuildingBlock: OJICUG_clean_linker_0, # of connection points: 2
#     Edge 46, Type (0, 0), BuildingBlock: OJICUG_clean_linker_0, # of connection points: 2
#     Edge 47, Type (0, 0), BuildingBlock: OJICUG_clean_linker_0, # of connection points: 2
#     Edge 48, Type (0, 0), BuildingBlock: OJICUG_clean_linker_0, # of connection points: 2
#     Edge 49, Type (0, 0), BuildingBlock: OJICUG_clean_linker_0, # of connection points: 2
#     Edge 50, Type (0, 0), BuildingBlock: OJICUG_clean_linker_0, # of connection points: 2
#     Edge 51, Type (0, 0), BuildingBlock: OJICUG_clean_linker_0, # of connection points: 2
#     Edge 52, Type (0, 0), BuildingBlock: OJICUG_clean_linker_0, # of connection points: 2
#     Edge 53, Type (0, 0), BuildingBlock: OJICUG_clean_linker_0, # of connection points: 2
#     Edge 54, Type (0, 0), BuildingBlock: OJICUG_clean_linker_0, # of connection points: 2
#     Edge 55, Type (0, 0), BuildingBlock: OJICUG_clean_linker_0, # of connection points: 2
#     Edge 56, Type (0, 0), BuildingBlock: OJICUG_clean_linker_0, # of connection points: 2
#     Edge 57, Type (0, 0), BuildingBlock: OJICUG_clean_linker_0, # of connection points: 2
#     Edge 58, Type (0, 0), BuildingBlock: OJICUG_clean_linker_0, # of connection points: 2
#     Edge 59, Type (0, 0), BuildingBlock: OJICUG_clean_linker_0, # of connection points: 2
#     Edge 60, Type (0, 0), BuildingBlock: OJICUG_clean_linker_0, # of connection points: 2
#     Edge 61, Type (0, 0), BuildingBlock: OJICUG_clean_linker_0, # of connection points: 2
#     Edge 62, Type (0, 0), BuildingBlock: OJICUG_clean_linker_0, # of connection points: 2
#     Edge 63, Type (0, 0), BuildingBlock: OJICUG_clean_linker_0, # of connection points: 2
#     Edge 64, Type (0, 0), BuildingBlock: OJICUG_clean_linker_0, # of connection points: 2
#     Edge 65, Type (0, 0), BuildingBlock: OJICUG_clean_linker_0, # of connection points: 2
#     Edge 66, Type (0, 0), BuildingBlock: OJICUG_clean_linker_0, # of connection points: 2
#     Edge 67, Type (0, 0), BuildingBlock: OJICUG_clean_linker_0, # of connection points: 2
#     Edge 68, Type (0, 0), BuildingBlock: OJICUG_clean_linker_0, # of connection points: 2
#     Edge 69, Type (0, 0), BuildingBlock: OJICUG_clean_linker_0, # of connection points: 2
#     Edge 70, Type (0, 0), BuildingBlock: OJICUG_clean_linker_0, # of connection points: 2
#     Edge 71, Type (0, 0), BuildingBlock: OJICUG_clean_linker_0, # of connection points: 2
#     Edge 72, Type (0, 0), BuildingBlock: OJICUG_clean_linker_0, # of connection points: 2
#     Edge 73, Type (0, 0), BuildingBlock: OJICUG_clean_linker_0, # of connection points: 2
#     Edge 74, Type (0, 0), BuildingBlock: OJICUG_clean_linker_0, # of connection points: 2
#     Edge 75, Type (0, 0), BuildingBlock: OJICUG_clean_linker_0, # of connection points: 2
#     Edge 76, Type (0, 0), BuildingBlock: OJICUG_clean_linker_0, # of connection points: 2
#     Edge 77, Type (0, 0), BuildingBlock: OJICUG_clean_linker_0, # of connection points: 2
#     Edge 78, Type (0, 0), BuildingBlock: OJICUG_clean_linker_0, # of connection points: 2
#     Edge 79, Type (0, 0), BuildingBlock: OJICUG_clean_linker_0, # of connection points: 2
#     Edge 80, Type (0, 0), BuildingBlock: OJICUG_clean_linker_0, # of connection points: 2
#     Edge 81, Type (0, 0), BuildingBlock: OJICUG_clean_linker_0, # of connection points: 2
#     Edge 82, Type (0, 0), BuildingBlock: OJICUG_clean_linker_0, # of connection points: 2
#     Edge 83, Type (0, 0), BuildingBlock: OJICUG_clean_linker_0, # of connection points: 2
#     Edge 84, Type (0, 0), BuildingBlock: OJICUG_clean_linker_0, # of connection points: 2
#     Edge 85, Type (0, 0), BuildingBlock: OJICUG_clean_linker_0, # of connection points: 2
#     Edge 86, Type (0, 0), BuildingBlock: OJICUG_clean_linker_0, # of connection points: 2
#     Edge 87, Type (0, 0), BuildingBlock: OJICUG_clean_linker_0, # of connection points: 2
#     Edge 88, Type (0, 0), BuildingBlock: OJICUG_clean_linker_0, # of connection points: 2
#     Edge 89, Type (0, 0), BuildingBlock: OJICUG_clean_linker_0, # of connection points: 2
#     Edge 90, Type (0, 0), BuildingBlock: OJICUG_clean_linker_0, # of connection points: 2
#     Edge 91, Type (0, 0), BuildingBlock: OJICUG_clean_linker_0, # of connection points: 2
#     Edge 92, Type (0, 0), BuildingBlock: OJICUG_clean_linker_0, # of connection points: 2
#     Edge 93, Type (0, 0), BuildingBlock: OJICUG_clean_linker_0, # of connection points: 2
#     Edge 94, Type (0, 0), BuildingBlock: OJICUG_clean_linker_0, # of connection points: 2
#     Edge 95, Type (0, 0), BuildingBlock: OJICUG_clean_linker_0, # of connection points: 2
#     Edge 96, Type (0, 0), BuildingBlock: OJICUG_clean_linker_0, # of connection points: 2
#     Edge 97, Type (0, 0), BuildingBlock: OJICUG_clean_linker_0, # of connection points: 2
#     Edge 98, Type (0, 0), BuildingBlock: OJICUG_clean_linker_0, # of connection points: 2
#     Edge 99, Type (0, 0), BuildingBlock: OJICUG_clean_linker_0, # of connection points: 2
#     Edge 100, Type (0, 0), BuildingBlock: OJICUG_clean_linker_0, # of connection points: 2
#     Edge 101, Type (0, 0), BuildingBlock: OJICUG_clean_linker_0, # of connection points: 2
#     Edge 102, Type (0, 0), BuildingBlock: OJICUG_clean_linker_0, # of connection points: 2
#     Edge 103, Type (0, 0), BuildingBlock: OJICUG_clean_linker_0, # of connection points: 2
#     Edge 104, Type (0, 0), BuildingBlock: OJICUG_clean_linker_0, # of connection points: 2
#     Edge 105, Type (0, 0), BuildingBlock: OJICUG_clean_linker_0, # of connection points: 2
#     Edge 106, Type (0, 0), BuildingBlock: OJICUG_clean_linker_0, # of connection points: 2
#     Edge 107, Type (0, 0), BuildingBlock: OJICUG_clean_linker_0, # of connection points: 2
# Relax obj value: 0.072
# Max RMSD: 0.161
# Mean RMSD: 0.161
data_MOF--net-unl--node1-KUFVIS_clean_sbu_0--edge1-OJICUG_clean_linker_0
_symmetry_space_group_name_H-M    P1
_symmetry_Int_Tables_number       1
_symmetry_cell_setting            triclinic
loop_
_symmetry_equiv_pos_as_xyz
'x, y, z'
_cell_length_a     47.540428
_cell_length_b     47.484661
_cell_length_c     29.750645
_cell_angle_alpha  90.050697
_cell_angle_beta   90.210671
_cell_angle_gamma 120.00014
loop_
_atom_site_label
_atom_site_type_symbol
_atom_site_fract_x
_atom_site_fract_y
_atom_site_fract_z
_atom_type_partial_charge
Mn0 Mn 0.2263 0.15398 0.10932 0.0
Mn1 Mn 0.14579 0.10476 0.10969 0.0
C2 C 0.19518 0.16068 0.16488 0.0
C3 C 0.27739 0.16197 0.13117 0.0
C4 C 0.18062 0.15872 0.04202 0.0
O5 O 0.21852 0.11549 0.06803 0.0
O6 O 0.16619 0.08079 0.08482 0.0
C7 C 0.14318 0.05843 0.17754 0.0
N8 N 0.13309 0.07901 0.16236 0.0
C9 C 0.10208 0.07156 0.22868 0.0
C10 C 0.1124 0.05074 0.24558 0.0
C11 C 0.13296 0.04395 0.21983 0.0
C12 C 0.11377 0.08605 0.18724 0.0
H13 H 0.15972 0.05397 0.15819 0.0
C14 C 0.19329 0.08703 0.06754 0.0
O15 O 0.27425 0.17717 0.09692 0.0
O16 O 0.25099 0.14217 0.15219 0.0
N17 N 0.12323 0.12527 0.13359 0.0
C18 C 0.1194 0.14965 0.11595 0.0
C19 C 0.10078 0.16036 0.13909 0.0
C20 C 0.08608 0.14572 0.17988 0.0
C21 C 0.0897 0.12015 0.19665 0.0
C22 C 0.10826 0.11028 0.17189 0.0
H23 H 0.13039 0.16091 0.08456 0.0
O24 O 0.22445 0.18389 0.15638 0.0
O25 O 0.18568 0.13465 0.14094 0.0
O26 O 0.20863 0.17262 0.06084 0.0
O27 O 0.15711 0.13142 0.05482 0.0
C28 C 0.0757 0.10403 0.23702 0.0
C29 C 0.0818 0.07957 0.25249 0.0
H30 H 0.10574 0.04117 0.27914 0.0
H31 H 0.14133 0.02813 0.23284 0.0
H32 H 0.09792 0.17995 0.12561 0.0
H33 H 0.07223 0.1544 0.19816 0.0
H34 H 0.0604 0.11035 0.25625 0.0
H35 H 0.07101 0.06669 0.28254 0.0
Mn36 Mn 0.85852 0.07698 0.10629 0.0
Mn37 Mn 0.9116 0.05167 0.08763 0.0
C38 C 0.85669 0.03698 0.15465 0.0
C39 C 0.84819 0.11679 0.1354 0.0
C40 C 0.85162 0.03221 0.0305 0.0
O41 O 0.89249 0.1115 0.06392 0.0
O42 O 0.93082 0.09767 0.07148 0.0
C43 C 0.96811 0.0921 0.14559 0.0
N44 N 0.94513 0.06231 0.1304 0.0
C45 C 0.98018 0.04015 0.14283 0.0
C46 C 1.00424 0.0705 0.15897 0.0
C47 C 0.99793 0.09643 0.16132 0.0
C48 C 0.95026 0.03683 0.1305 0.0
H49 H 0.96389 0.11242 0.14455 0.0
C50 C 0.92179 0.11782 0.06049 0.0
O51 O 0.83188 0.09855 0.10158 0.0
O52 O 0.87011 0.11145 0.15301 0.0
N53 N 0.89801 0.00749 0.10122 0.0
C54 C 0.87174 0.97978 0.08583 0.0
C55 C 0.87271 0.95067 0.085 0.0
C56 C 0.90137 0.95087 0.09747 0.0
C57 C 0.92832 0.97993 0.11236 0.0
C58 C 0.92499 0.0075 0.11556 0.0
H59 H 0.85054 0.98008 0.07368 0.0
O60 O 0.83263 0.04237 0.15005 0.0
O61 O 0.88264 0.05639 0.13153 0.0
O62 O 0.83762 0.04291 0.05581 0.0
O63 O 0.88044 0.03821 0.0375 0.0
C64 C 0.95876 0.98306 0.12244 0.0
C65 C 0.98465 0.01307 0.13799 0.0
H66 H 0.02757 0.07403 0.1694 0.0
H67 H 0.01631 0.11996 0.17363 0.0
H68 H 0.85192 0.92846 0.07298 0.0
H69 H 0.90255 0.92872 0.09499 0.0
H70 H 0.96262 0.96267 0.1177 0.0
H71 H 0.00778 0.01504 0.1462 0.0
Mn72 Mn 0.9368 0.782 0.10134 0.0
Mn73 Mn 0.97655 0.86362 0.09424 0.0
C74 C 0.97662 0.81276 0.15601 0.0
C75 C 0.89195 0.73301 0.12401 0.0
C76 C 0.98995 0.82018 0.03406 0.0
O77 O 0.90781 0.79097 0.05828 0.0
O78 O 0.93291 0.84499 0.06747 0.0
C79 C 0.93514 0.87752 0.15218 0.0
N80 N 0.96512 0.88321 0.14057 0.0
C81 C 0.99135 0.9336 0.18081 0.0
C82 C 0.9607 0.92909 0.19184 0.0
C83 C 0.93248 0.90028 0.1789 0.0
C84 C 0.99235 0.90896 0.15666 0.0
H85 H 0.91354 0.85611 0.14028 0.0
C86 C 0.90899 0.81831 0.05362 0.0
O87 O 0.9098 0.73442 0.09029 0.0
O88 O 0.89988 0.76023 0.14435 0.0
N89 N 0.01968 0.88728 0.11825 0.0
C90 C 0.04725 0.88905 0.10179 0.0
C91 C 0.07775 0.91478 0.11498 0.0
C92 C 0.07968 0.93968 0.14256 0.0
C93 C 0.05104 0.93837 0.15707 0.0
C94 C 0.02137 0.91113 0.14501 0.0
H95 H 0.046 0.87114 0.07862 0.0
O96 O 0.96716 0.78239 0.14839 0.0
O97 O 0.96211 0.82445 0.13153 0.0
O98 O 0.97171 0.79327 0.05337 0.0
O99 O 0.99107 0.84669 0.04461 0.0
C100 C 0.05069 0.96406 0.18025 0.0
C101 C 0.02085 0.96197 0.19119 0.0
H102 H 0.95864 0.9477 0.21 0.0
H103 H 0.90866 0.89586 0.1879 0.0
H104 H 0.09971 0.91603 0.10251 0.0
H105 H 0.10322 0.96021 0.15113 0.0
H106 H 0.07319 0.98591 0.18873 0.0
H107 H 0.0209 0.98241 0.20736 0.0
Mn108 Mn 0.1529 0.22585 0.38179 0.0
Mn109 Mn 0.10013 0.14712 0.39822 0.0
C110 C 0.15511 0.18868 0.33149 0.0
C111 C 0.16262 0.2764 0.35538 0.0
C112 C 0.15992 0.18728 0.45593 0.0
O113 O 0.11887 0.22522 0.42535 0.0
O114 O 0.08045 0.17336 0.41516 0.0
C115 C 0.04371 0.13121 0.34039 0.0
N116 N 0.06685 0.12449 0.35505 0.0
C117 C 0.03199 0.06728 0.34198 0.0
C118 C 0.00783 0.07349 0.32622 0.0
C119 C 0.01396 0.1057 0.32448 0.0
C120 C 0.06189 0.09394 0.35436 0.0
H121 H 0.0477 0.15566 0.34216 0.0
C122 C 0.08949 0.20222 0.42788 0.0
O123 O 0.17919 0.27404 0.38845 0.0
O124 O 0.1409 0.24937 0.33684 0.0
N125 N 0.11408 0.11692 0.38389 0.0
C126 C 0.1403 0.11549 0.39939 0.0
C127 C 0.13948 0.08548 0.39973 0.0
C128 C 0.11094 0.05702 0.38675 0.0
C129 C 0.084 0.05908 0.37188 0.0
C130 C 0.08723 0.08996 0.36908 0.0
H131 H 0.16138 0.13696 0.41195 0.0
O132 O 0.17887 0.21827 0.33663 0.0
O133 O 0.12912 0.18147 0.35504 0.0
O134 O 0.17407 0.21209 0.43091 0.0
O135 O 0.13104 0.16458 0.44876 0.0
C136 C 0.05361 0.0317 0.36156 0.0
C137 C 0.02764 0.03575 0.34635 0.0
H138 H 0.98456 0.05366 0.31571 0.0
H139 H 0.99547 0.11079 0.31259 0.0
H140 H 0.16025 0.08409 0.4118 0.0
H141 H 0.10985 0.03371 0.38893 0.0
H142 H 0.04985 0.00745 0.36587 0.0
H143 H 1.00455 0.01453 0.33796 0.0
Mn144 Mn 0.78675 0.9329 0.37734 0.0
Mn145 Mn 0.86713 0.96364 0.376 0.0
C146 C 0.81767 0.97045 0.32172 0.0
C147 C 0.73546 0.89009 0.35583 0.0
C148 C 0.83303 0.98306 0.4445 0.0
O149 O 0.79445 0.90211 0.41827 0.0
O150 O 0.84656 0.91923 0.40067 0.0
C151 C 0.869 0.91979 0.30758 0.0
N152 N 0.87937 0.9505 0.32294 0.0
C153 C 0.90978 0.97396 0.25613 0.0
C154 C 0.89912 0.94279 0.23905 0.0
C155 C 0.87874 0.91546 0.26495 0.0
C156 C 0.89857 0.97684 0.29795 0.0
H157 H 0.85258 0.8988 0.32705 0.0
C158 C 0.81949 0.89861 0.41827 0.0
O159 O 0.73896 0.90852 0.39021 0.0
O160 O 0.76165 0.8964 0.33451 0.0
N161 N 0.88972 0.00672 0.35221 0.0
C162 C 0.89371 0.03498 0.37003 0.0
C163 C 0.91209 0.06427 0.34673 0.0
C164 C 0.92636 0.06425 0.30556 0.0
C165 C 0.9226 0.03502 0.28861 0.0
C166 C 0.90432 0.00664 0.31355 0.0
H167 H 0.88296 0.03529 0.40164 0.0
O168 O 0.78856 0.9647 0.33057 0.0
O169 O 0.82712 0.95381 0.34539 0.0
O170 O 0.80496 0.96926 0.42586 0.0
O171 O 0.85629 0.97902 0.43127 0.0
C172 C 0.93616 0.03283 0.24785 0.0
C173 C 0.92985 1.00224 0.23214 0.0
H174 H 0.90538 0.93985 0.20523 0.0
H175 H 0.8701 0.89123 0.25181 0.0
H176 H 0.91506 0.08675 0.36032 0.0
H177 H 0.93994 0.08673 0.2871 0.0
H178 H 0.95125 0.05442 0.22848 0.0
H179 H 0.94028 1.00009 0.20172 0.0
Mn180 Mn 0.07644 0.85213 0.38364 0.0
Mn181 Mn 0.03471 0.89207 0.38859 0.0
C182 C 0.03609 0.84204 0.33006 0.0
C183 C 0.1211 0.848 0.36016 0.0
C184 C 0.02154 0.8357 0.44929 0.0
O185 O 0.10527 0.89107 0.42541 0.0
O186 O 0.07714 0.91732 0.41915 0.0
C187 C 0.07741 0.94932 0.33408 0.0
N188 N 0.04739 0.92407 0.34334 0.0
C189 C 0.02131 0.94792 0.30214 0.0
C190 C 0.05191 0.97473 0.29277 0.0
C191 C 0.08016 0.9749 0.30758 0.0
C192 C 0.02036 0.9221 0.32559 0.0
H193 H 0.09891 0.95008 0.34753 0.0
C194 C 0.10206 0.91595 0.43218 0.0
O195 O 0.10395 0.83214 0.3947 0.0
O196 O 0.11277 0.86691 0.33977 0.0
N197 N 0.993 0.87167 0.36011 0.0
C198 C 0.96562 0.84352 0.37117 0.0
C199 C 0.93534 0.83765 0.35501 0.0
C200 C 0.93337 0.86162 0.32982 0.0
C201 C 0.96184 0.89077 0.31988 0.0
C202 C 0.99144 0.89422 0.33433 0.0
H203 H 0.96687 0.82597 0.39263 0.0
O204 O 0.04549 0.82107 0.33746 0.0
O205 O 0.05107 0.86866 0.35329 0.0
O206 O 0.04211 0.82895 0.43279 0.0
O207 O 0.01851 0.85959 0.4366 0.0
C208 C 0.96198 0.91733 0.29869 0.0
C209 C 0.9917 0.94617 0.29075 0.0
H210 H 0.05385 0.99531 0.2746 0.0
H211 H 0.104 0.99504 0.30027 0.0
H212 H 0.91347 0.81526 0.36344 0.0
H213 H 0.90986 0.85769 0.31908 0.0
H214 H 0.9394 0.91605 0.28903 0.0
H215 H 0.99149 0.96683 0.2758 0.0
Mn216 Mn 0.78778 0.85815 0.8783 0.0
Mn217 Mn 0.86815 0.9077 0.87768 0.0
C218 C 0.81884 0.85156 0.82277 0.0
C219 C 0.73649 0.84936 0.85676 0.0
C220 C 0.83364 0.85391 0.94551 0.0
O221 O 0.79541 0.8967 0.91939 0.0
O222 O 0.8476 0.93164 0.90212 0.0
C223 C 0.86991 0.95302 0.80895 0.0
N224 N 0.88056 0.93301 0.82463 0.0
C225 C 0.91039 0.93921 0.75749 0.0
C226 C 0.89938 0.95931 0.74004 0.0
C227 C 0.87918 0.9665 0.76597 0.0
C228 C 0.89959 0.92564 0.79963 0.0
H229 H 0.85351 0.95765 0.82837 0.0
C230 C 0.8205 0.92528 0.91951 0.0
O231 O 0.74007 0.83455 0.89116 0.0
O232 O 0.76265 0.86945 0.8355 0.0
N233 N 0.8908 0.88717 0.85416 0.0
C234 C 0.89499 0.86315 0.87231 0.0
C235 C 0.91342 0.8522 0.84923 0.0
C236 C 0.92757 0.86622 0.80791 0.0
C237 C 0.92364 0.89148 0.79062 0.0
C238 C 0.90539 0.9017 0.81544 0.0
H239 H 0.88444 0.85236 0.9041 0.0
O240 O 0.78968 0.82821 0.83144 0.0
O241 O 0.82825 0.87764 0.84657 0.0
O242 O 0.80571 0.83979 0.92657 0.0
O243 O 0.85698 0.88138 0.93289 0.0
C244 C 0.93689 0.90682 0.74956 0.0
C245 C 0.93027 0.93078 0.73347 0.0
H246 H 0.90521 0.96798 0.70593 0.0
H247 H 0.87022 0.98173 0.75256 0.0
H248 H 0.91655 0.83288 0.86313 0.0
H249 H 0.9412 0.8573 0.78962 0.0
H250 H 0.95182 0.90014 0.7301 0.0
H251 H 0.94023 0.94287 0.70268 0.0
Mn252 Mn 0.15562 0.93487 0.88127 0.0
Mn253 Mn 0.10208 0.9596 0.89945 0.0
C254 C 0.15674 0.97408 0.83176 0.0
C255 C 0.16564 0.89439 0.8538 0.0
C256 C 0.16238 0.97997 0.95624 0.0
O257 O 0.12211 0.90097 0.92477 0.0
O258 O 0.08308 0.91361 0.91535 0.0
C259 C 0.04549 0.91904 0.84173 0.0
N260 N 0.06846 0.94887 0.85681 0.0
C261 C 0.0331 0.97077 0.84505 0.0
C262 C 0.00907 0.94038 0.82896 0.0
C263 C 0.01554 0.91455 0.82639 0.0
C264 C 0.06315 0.97424 0.85705 0.0
H265 H 0.04983 0.89879 0.8426 0.0
C266 C 0.09256 0.89399 0.92725 0.0
O267 O 0.18241 0.91339 0.88676 0.0
O268 O 0.14368 0.89954 0.83588 0.0
N269 N 0.11549 1.00376 0.88597 0.0
C270 C 0.14179 0.03155 0.90107 0.0
C271 C 0.14071 0.0606 0.90196 0.0
C272 C 0.11192 0.06026 0.88981 0.0
C273 C 0.08496 0.03112 0.87516 0.0
C274 C 0.08839 1.00361 0.87191 0.0
H275 H 0.16312 0.03138 0.91288 0.0
O276 O 0.18088 0.96877 0.83614 0.0
O277 O 0.1311 0.95492 0.85559 0.0
O278 O 0.17674 0.96983 0.93063 0.0
O279 O 0.13322 0.97305 0.94971 0.0
C280 C 0.05443 0.02788 0.86527 0.0
C281 C 0.02853 0.99778 0.84999 0.0
H282 H 0.98567 0.93674 0.8187 0.0
H283 H 0.99718 0.89098 0.81414 0.0
H284 H 0.16152 0.08288 0.91375 0.0
H285 H 0.11067 0.08238 0.89231 0.0
H286 H 0.05055 0.04827 0.86986 0.0
H287 H 1.00534 0.99572 0.84193 0.0
Mn288 Mn 0.07642 0.22859 0.884 0.0
Mn289 Mn 0.03713 0.14712 0.89296 0.0
C290 C 0.03589 0.19693 0.8307 0.0
C291 C 0.1207 0.27734 0.85932 0.0
C292 C 0.02423 0.19104 0.95285 0.0
O293 O 0.10607 0.22032 0.92678 0.0
O294 O 0.08112 0.16616 0.91901 0.0
C295 C 0.07802 0.13293 0.8344 0.0
N296 N 0.04814 0.12722 0.84659 0.0
C297 C 0.02158 0.07684 0.80635 0.0
C298 C 0.05215 0.08141 0.79457 0.0
C299 C 0.08045 0.11026 0.80722 0.0
C300 C 0.02078 0.10147 0.83078 0.0
H301 H 0.09971 0.15434 0.84607 0.0
C302 C 0.10507 0.1931 0.93218 0.0
O303 O 0.10342 0.27638 0.89352 0.0
O304 O 0.11262 0.24982 0.83981 0.0
N305 N 0.99379 0.1233 0.86965 0.0
C306 C 0.96636 0.12164 0.88647 0.0
C307 C 0.93574 0.0959 0.87368 0.0
C308 C 0.93359 0.0709 0.84608 0.0
C309 C 0.9621 0.07213 0.83116 0.0
C310 C 0.99187 0.09937 0.84286 0.0
H311 H 0.9678 0.13964 0.90966 0.0
O312 O 0.04529 0.22738 0.83747 0.0
O313 O 0.05095 0.1858 0.85506 0.0
O314 O 0.04211 0.21775 0.93283 0.0
O315 O 0.0231 0.16446 0.94263 0.0
C316 C 0.96225 0.04637 0.80787 0.0
C317 C 0.99199 0.04844 0.79638 0.0
H318 H 0.05406 0.06287 0.77601 0.0
H319 H 0.1042 0.11482 0.79762 0.0
H320 H 0.91389 0.09472 0.88646 0.0
H321 H 0.90997 0.05037 0.83781 0.0
H322 H 0.93968 0.0245 0.7997 0.0
H323 H 0.9918 0.02796 0.78012 0.0
Mn324 Mn 0.85727 0.78534 0.60529 0.0
Mn325 Mn 0.91098 0.86363 0.5872 0.0
C326 C 0.85633 0.82355 0.65474 0.0
C327 C 0.84682 0.73492 0.63302 0.0
C328 C 0.8506 0.8236 0.53042 0.0
O329 O 0.89069 0.78475 0.56186 0.0
O330 O 0.92978 0.83656 0.57053 0.0
C331 C 0.96752 0.87912 0.64472 0.0
N332 N 0.94466 0.8862 0.62992 0.0
C333 C 0.97991 0.94329 0.64358 0.0
C334 C 1.00379 0.9367 0.65942 0.0
C335 C 0.99734 0.90437 0.66088 0.0
C336 C 0.94996 0.91688 0.63072 0.0
H337 H 0.96322 0.85456 0.64299 0.0
C338 C 0.92019 0.80739 0.55872 0.0
O339 O 0.8302 0.7371 0.59986 0.0
O340 O 0.86896 0.76205 0.65081 0.0
N341 N 0.89777 0.89444 0.60138 0.0
C342 C 0.8716 0.89617 0.58638 0.0
C343 C 0.87271 0.92632 0.58648 0.0
C344 C 0.90142 0.95459 0.59953 0.0
C345 C 0.92826 0.95221 0.61399 0.0
C346 C 0.92481 0.92121 0.61616 0.0
H347 H 0.85035 0.87484 0.57383 0.0
O348 O 0.83205 0.79417 0.65023 0.0
O349 O 0.88196 0.82991 0.63096 0.0
O350 O 0.83633 0.79904 0.55586 0.0
O351 O 0.87963 0.84614 0.53717 0.0
C352 C 0.95871 0.97936 0.62479 0.0
C353 C 0.98449 0.97495 0.63982 0.0
H354 H 0.02707 0.95632 0.67036 0.0
H355 H 0.01561 0.899 0.6729 0.0
H356 H 0.852 0.92796 0.57479 0.0
H357 H 0.90268 0.97799 0.59783 0.0
H358 H 0.96262 1.00371 0.62113 0.0
H359 H 0.0076 0.99598 0.64866 0.0
Mn360 Mn 0.22409 0.0777 0.60788 0.0
Mn361 Mn 0.14385 0.04715 0.61059 0.0
C362 C 0.19369 0.0403 0.66403 0.0
C363 C 0.27553 0.12063 0.62845 0.0
C364 C 0.17726 0.02747 0.54142 0.0
O365 O 0.21604 0.10836 0.56712 0.0
O366 O 0.16424 0.09158 0.58602 0.0
C367 C 0.14278 0.09099 0.67962 0.0
N368 N 0.1321 0.06028 0.66405 0.0
C369 C 0.10249 0.03682 0.73136 0.0
C370 C 0.11355 0.06798 0.74875 0.0
C371 C 0.13367 0.09532 0.72269 0.0
C372 C 0.11315 0.03393 0.68917 0.0
H373 H 0.15901 0.11198 0.66001 0.0
C374 C 0.1911 0.11205 0.5678 0.0
O375 O 0.27175 0.10205 0.59413 0.0
O376 O 0.24954 0.11437 0.65027 0.0
N377 N 0.12141 1.00403 0.63429 0.0
C378 C 0.11715 0.97577 0.61616 0.0
C379 C 0.09889 0.94645 0.63946 0.0
C380 C 0.08501 0.94647 0.68096 0.0
C381 C 0.08905 0.97572 0.69825 0.0
C382 C 0.10717 1.00412 0.67329 0.0
H383 H 0.12756 0.97543 0.58426 0.0
O384 O 0.22273 0.04608 0.65465 0.0
O385 O 0.18404 0.05688 0.64058 0.0
O386 O 0.20544 0.04113 0.55972 0.0
O387 O 0.15425 0.03182 0.55493 0.0
C388 C 0.0759 0.97792 0.73936 0.0
C389 C 0.08256 0.00855 0.75542 0.0
H390 H 0.10781 0.07087 0.78289 0.0
H391 H 0.14265 0.11955 0.73602 0.0
H392 H 0.09569 0.92395 0.62558 0.0
H393 H 0.07146 0.92396 0.69938 0.0
H394 H 0.06093 0.95632 0.75877 0.0
H395 H 0.07253 0.01075 0.78613 0.0
Mn396 Mn 0.93366 0.15698 0.60512 0.0
Mn397 Mn 0.97481 0.1165 0.59854 0.0
C398 C 0.97416 0.16659 0.65832 0.0
C399 C 0.88893 0.161 0.62918 0.0
C400 C 0.98768 0.17292 0.53811 0.0
O401 O 0.90471 0.11841 0.56278 0.0
O402 O 0.93185 0.09116 0.56938 0.0
C403 C 0.93301 0.05984 0.65439 0.0
N404 N 0.9629 0.08493 0.6442 0.0
C405 C 0.9895 0.06155 0.68523 0.0
C406 C 0.95901 0.0349 0.69559 0.0
C407 C 0.93059 0.03462 0.68134 0.0
C408 C 0.99016 0.08708 0.66136 0.0
H409 H 0.91134 0.05894 0.64136 0.0
C410 C 0.90726 0.09311 0.55627 0.0
O411 O 0.90617 0.17712 0.59483 0.0
O412 O 0.89726 0.14194 0.64915 0.0
N413 N 0.01707 0.13702 0.62548 0.0
C414 C 0.04437 0.16476 0.61292 0.0
C415 C 0.07488 0.17067 0.62807 0.0
C416 C 0.07714 0.14709 0.6538 0.0
C417 C 0.04876 0.11827 0.66515 0.0
C418 C 0.01897 0.11477 0.65155 0.0
H419 H 0.04288 0.182 0.59108 0.0
O420 O 0.96469 0.18758 0.65165 0.0
O421 O 0.9591 0.14019 0.63464 0.0
O422 O 0.96804 0.18042 0.556 0.0
O423 O 0.99013 0.14852 0.54991 0.0
C424 C 0.04887 0.092 0.68689 0.0
C425 C 0.01924 0.06337 0.696 0.0
H426 H 0.9573 0.01455 0.71412 0.0
H427 H 0.90685 0.01469 0.68942 0.0
H428 H 0.09667 0.19276 0.61846 0.0
H429 H 0.10079 0.15102 0.66378 0.0
H430 H 0.07157 0.09331 0.69598 0.0
H431 H 0.01963 0.04289 0.71124 0.0
Mn432 Mn 0.89489 0.48753 0.44379 0.0
Mn433 Mn 0.81342 0.44422 0.44233 0.0
C434 C 0.86528 0.4962 0.49932 0.0
C435 C 0.94462 0.49255 0.46517 0.0
C436 C 0.85268 0.49996 0.37892 0.0
O437 O 0.8847 0.44901 0.40111 0.0
O438 O 0.83088 0.41897 0.41287 0.0
C439 C 0.80789 0.39359 0.50458 0.0
N440 N 0.7992 0.41585 0.4924 0.0
C441 C 0.76924 0.40741 0.5601 0.0
C442 C 0.77828 0.38495 0.574 0.0
C443 C 0.79756 0.37776 0.54603 0.0
C444 C 0.78124 0.42332 0.51958 0.0
H445 H 0.8236 0.38889 0.48368 0.0
C446 C 0.85744 0.42253 0.39711 0.0
O447 O 0.94229 0.50846 0.43125 0.0
O448 O 0.91792 0.47314 0.48604 0.0
N449 N 0.793 0.46561 0.47027 0.0
C450 C 0.78992 0.491 0.45505 0.0
C451 C 0.77197 0.50164 0.48003 0.0
C452 C 0.75694 0.48572 0.52007 0.0
C453 C 0.75962 0.45902 0.53421 0.0
C454 C 0.77746 0.44927 0.50756 0.0
H455 H 0.80079 0.50291 0.42397 0.0
O456 O 0.89526 0.51798 0.4916 0.0
O457 O 0.85403 0.47023 0.47479 0.0
O458 O 0.88056 0.50951 0.39639 0.0
O459 O 0.82687 0.47422 0.39085 0.0
C460 C 0.74515 0.4415 0.57355 0.0
C461 C 0.74996 0.41562 0.58605 0.0
H462 H 0.77177 0.37447 0.60709 0.0
H463 H 0.80499 0.36068 0.55673 0.0
H464 H 0.76968 0.522 0.46841 0.0
H465 H 0.74335 0.49412 0.53958 0.0
H466 H 0.7304 0.44774 0.59424 0.0
H467 H 0.73875 0.40166 0.61525 0.0
Mn468 Mn 0.52828 0.40952 0.43781 0.0
Mn469 Mn 0.58202 0.38474 0.42281 0.0
C470 C 0.52672 0.37094 0.48885 0.0
C471 C 0.51811 0.45033 0.46347 0.0
C472 C 0.5221 0.36332 0.36483 0.0
O473 O 0.56211 0.44271 0.39378 0.0
O474 O 0.60126 0.4306 0.40598 0.0
C475 C 0.63783 0.42577 0.48161 0.0
N476 N 0.61502 0.3958 0.46666 0.0
C477 C 0.65025 0.37405 0.48061 0.0
C478 C 0.67412 0.40458 0.49649 0.0
C479 C 0.66762 0.43041 0.49798 0.0
C480 C 0.6203 0.37042 0.46768 0.0
H481 H 0.63358 0.44605 0.47962 0.0
C482 C 0.59175 0.44982 0.3923 0.0
O483 O 0.50154 0.431 0.43067 0.0
O484 O 0.54007 0.44547 0.48202 0.0
N485 N 0.56839 0.34068 0.43731 0.0
C486 C 0.54239 0.31279 0.42181 0.0
C487 C 0.54365 0.28384 0.42155 0.0
C488 C 0.57236 0.28437 0.43465 0.0
C489 C 0.59901 0.31359 0.44971 0.0
C490 C 0.59534 0.34098 0.45247 0.0
H491 H 0.52115 0.31279 0.40921 0.0
O492 O 0.50271 0.37635 0.48373 0.0
O493 O 0.55252 0.38979 0.46514 0.0
O494 O 0.50746 0.37369 0.38952 0.0
O495 O 0.55144 0.37092 0.3717 0.0
C496 C 0.6295 0.31704 0.46044 0.0
C497 C 0.65508 0.34719 0.47612 0.0
H498 H 0.69751 0.4084 0.50719 0.0
H499 H 0.68595 0.4541 0.50995 0.0
H500 H 0.52306 0.26149 0.40947 0.0
H501 H 0.57379 0.26234 0.43258 0.0
H502 H 0.63363 0.29679 0.45611 0.0
H503 H 0.67833 0.34951 0.48452 0.0
Mn504 Mn 0.60341 0.11352 0.43771 0.0
Mn505 Mn 0.63592 0.194 0.42954 0.0
C506 C 0.64293 0.14715 0.49096 0.0
C507 C 0.56105 0.06349 0.46276 0.0
C508 C 0.65085 0.15362 0.36569 0.0
O509 O 0.57171 0.11938 0.39592 0.0
O510 O 0.59036 0.17244 0.40885 0.0
C511 C 0.59708 0.2071 0.49332 0.0
N512 N 0.62656 0.21323 0.47848 0.0
C513 C 0.65397 0.2643 0.51701 0.0
C514 C 0.62376 0.25924 0.53149 0.0
C515 C 0.59533 0.22988 0.52108 0.0
C516 C 0.65428 0.23974 0.4918 0.0
H517 H 0.57513 0.18542 0.483 0.0
C518 C 0.56862 0.14466 0.39423 0.0
O519 O 0.57867 0.06539 0.42842 0.0
O520 O 0.56791 0.09065 0.4823 0.0
N521 N 0.68028 0.21899 0.44853 0.0
C522 C 0.70719 0.22048 0.43015 0.0
C523 C 0.73808 0.24669 0.44079 0.0
C524 C 0.74089 0.272 0.46835 0.0
C525 C 0.71279 0.27042 0.48579 0.0
C526 C 0.68286 0.24277 0.47614 0.0
H527 H 0.70515 0.20204 0.40729 0.0
O528 O 0.63602 0.11736 0.48403 0.0
O529 O 0.62611 0.15614 0.4666 0.0
O530 O 0.63792 0.1273 0.38805 0.0
O531 O 0.64803 0.17803 0.37628 0.0
C532 C 0.71305 0.29605 0.50997 0.0
C533 C 0.68356 0.29327 0.52451 0.0
H534 H 0.62219 0.27789 0.5502 0.0
H535 H 0.57192 0.22508 0.53267 0.0
H536 H 0.75958 0.24793 0.4265 0.0
H537 H 0.76463 0.29285 0.47502 0.0
H538 H 0.73566 0.31831 0.5165 0.0
H539 H 0.68391 0.31371 0.5411 0.0
Mn540 Mn 0.82324 0.56141 0.71715 0.0
Mn541 Mn 0.77478 0.48133 0.73513 0.0
C542 C 0.82678 0.52517 0.66646 0.0
C543 C 0.83054 0.61098 0.69047 0.0
C544 C 0.83633 0.52444 0.78848 0.0
O545 O 0.78929 0.5595 0.76175 0.0
O546 O 0.75476 0.50603 0.75765 0.0
C547 C 0.71594 0.46539 0.68259 0.0
N548 N 0.73953 0.45866 0.6947 0.0
C549 C 0.70451 0.40158 0.68129 0.0
C550 C 0.67958 0.40769 0.6689 0.0
C551 C 0.68558 0.43989 0.66849 0.0
C552 C 0.73485 0.4283 0.69196 0.0
H553 H 0.72027 0.48993 0.68463 0.0
C554 C 0.76153 0.53463 0.76848 0.0
O555 O 0.84789 0.60957 0.72316 0.0
O556 O 0.80917 0.5835 0.67253 0.0
N557 N 0.78842 0.45164 0.71644 0.0
C558 C 0.81499 0.45007 0.72995 0.0
C559 C 0.81436 0.42018 0.72829 0.0
C560 C 0.78559 0.39178 0.71589 0.0
C561 C 0.75809 0.39379 0.70387 0.0
C562 C 0.76104 0.4246 0.70285 0.0
H563 H 0.83628 0.47141 0.74231 0.0
O564 O 0.84958 0.55522 0.67133 0.0
O565 O 0.80086 0.51652 0.69097 0.0
O566 O 0.8469 0.55019 0.76548 0.0
O567 O 0.80882 0.49935 0.78164 0.0
C568 C 0.72739 0.36632 0.69529 0.0
C569 C 0.70062 0.37016 0.68374 0.0
H570 H 0.65587 0.38786 0.65971 0.0
H571 H 0.66661 0.44495 0.65893 0.0
H572 H 0.8355 0.41879 0.73851 0.0
H573 H 0.78468 0.36853 0.71666 0.0
H574 H 0.72399 0.34214 0.69842 0.0
H575 H 0.67728 0.34888 0.67671 0.0
Mn576 Mn 0.45335 0.26624 0.70962 0.0
Mn577 Mn 0.53326 0.29445 0.7104 0.0
C578 C 0.48601 0.30436 0.65546 0.0
C579 C 0.4018 0.22476 0.6867 0.0
C580 C 0.49952 0.31427 0.77884 0.0
O581 O 0.45911 0.2339 0.74992 0.0
O582 O 0.51102 0.24951 0.7334 0.0
C583 C 0.53295 0.25103 0.63983 0.0
N584 N 0.54528 0.28157 0.65698 0.0
C585 C 0.57669 0.30548 0.59105 0.0
C586 C 0.56389 0.27451 0.57201 0.0
C587 C 0.54196 0.24704 0.59657 0.0
C588 C 0.56572 0.3081 0.63318 0.0
H589 H 0.51537 0.23001 0.65826 0.0
C590 C 0.48345 0.22926 0.7501 0.0
O591 O 0.40547 0.24297 0.72141 0.0
O592 O 0.42797 0.23066 0.66563 0.0
N593 N 0.55765 0.33794 0.68833 0.0
C594 C 0.56264 0.36627 0.70719 0.0
C595 C 0.58264 0.39588 0.68539 0.0
C596 C 0.59752 0.39607 0.64467 0.0
C597 C 0.59264 0.3667 0.62661 0.0
C598 C 0.57272 0.33799 0.65006 0.0
H599 H 0.55152 0.36642 0.73854 0.0
O600 O 0.45706 0.29936 0.66358 0.0
O601 O 0.49421 0.28665 0.67894 0.0
O602 O 0.47184 0.30171 0.75924 0.0
O603 O 0.52241 0.30949 0.76604 0.0
C604 C 0.60648 0.36467 0.58602 0.0
C605 C 0.5985 0.33395 0.56866 0.0
H606 H 0.56971 0.27187 0.53776 0.0
H607 H 0.53144 0.223 0.58194 0.0
H608 H 0.58644 0.41845 0.69984 0.0
H609 H 0.6124 0.41883 0.62738 0.0
H610 H 0.62281 0.38645 0.56776 0.0
H611 H 0.60898 0.33195 0.5382 0.0
Mn612 Mn 0.74112 0.18613 0.7181 0.0
Mn613 Mn 0.70527 0.23138 0.72328 0.0
C614 C 0.70116 0.17822 0.66496 0.0
C615 C 0.78427 0.17944 0.6939 0.0
C616 C 0.69055 0.17628 0.78736 0.0
O617 O 0.77187 0.22475 0.75936 0.0
O618 O 0.74978 0.2564 0.74793 0.0
C619 C 0.74553 0.28451 0.66133 0.0
N620 N 0.71587 0.26069 0.67491 0.0
C621 C 0.68869 0.28416 0.6355 0.0
C622 C 0.71899 0.30949 0.62157 0.0
C623 C 0.74748 0.30898 0.63318 0.0
C624 C 0.68827 0.25911 0.66027 0.0
H625 H 0.76739 0.28501 0.67266 0.0
C626 C 0.77269 0.25208 0.76237 0.0
O627 O 0.7669 0.16397 0.72855 0.0
O628 O 0.77686 0.19911 0.67377 0.0
N629 N 0.66188 0.21089 0.70018 0.0
C630 C 0.63483 0.18368 0.71472 0.0
C631 C 0.604 0.17821 0.70195 0.0
C632 C 0.60134 0.20161 0.67626 0.0
C633 C 0.62959 0.22962 0.66224 0.0
C634 C 0.65954 0.23258 0.67352 0.0
H635 H 0.63677 0.16663 0.73643 0.0
O636 O 0.70885 0.15596 0.67225 0.0
O637 O 0.71765 0.20468 0.6881 0.0
O638 O 0.70649 0.16493 0.76764 0.0
O639 O 0.69133 0.20234 0.77542 0.0
C640 C 0.6294 0.25562 0.6398 0.0
C641 C 0.65901 0.2832 0.62734 0.0
H642 H 0.72052 0.32948 0.60233 0.0
H643 H 0.77102 0.32789 0.62222 0.0
H644 H 0.58235 0.15666 0.71334 0.0
H645 H 0.57755 0.19807 0.66813 0.0
H646 H 0.60669 0.25485 0.63251 0.0
H647 H 0.65864 0.30348 0.61137 0.0
Mn648 Mn 0.45144 0.18554 0.21595 0.0
Mn649 Mn 0.53273 0.22968 0.22054 0.0
C650 C 0.48266 0.17658 0.16297 0.0
C651 C 0.40165 0.17978 0.1919 0.0
C652 C 0.49247 0.17499 0.28505 0.0
O653 O 0.46015 0.22452 0.25674 0.0
O654 O 0.51396 0.25511 0.24573 0.0
C655 C 0.54586 0.28339 0.15939 0.0
N656 N 0.55129 0.25911 0.17232 0.0
C657 C 0.60216 0.28276 0.13398 0.0
C658 C 0.59761 0.30854 0.12072 0.0
C659 C 0.56872 0.30823 0.13214 0.0
C660 C 0.57724 0.25745 0.15784 0.0
H661 H 0.52462 0.28402 0.17068 0.0
C662 C 0.48701 0.25146 0.25995 0.0
O663 O 0.40364 0.16429 0.22659 0.0
O664 O 0.42863 0.19885 0.17138 0.0
N665 N 0.55506 0.20886 0.19695 0.0
C666 C 0.55471 0.18146 0.21126 0.0
C667 C 0.57995 0.17586 0.1986 0.0
C668 C 0.60614 0.19937 0.17341 0.0
C669 C 0.60613 0.22762 0.15973 0.0
C670 C 0.57919 0.23065 0.17069 0.0
H671 H 0.53565 0.16436 0.23273 0.0
O672 O 0.45263 0.15476 0.17048 0.0
O673 O 0.4932 0.20329 0.18569 0.0
O674 O 0.46489 0.16423 0.266 0.0
O675 O 0.5179 0.20055 0.27247 0.0
C676 C 0.63254 0.25379 0.1381 0.0
C677 C 0.63081 0.28168 0.12616 0.0
H678 H 0.61632 0.32873 0.10219 0.0
H679 H 0.56447 0.32756 0.12179 0.0
H680 H 0.57989 0.15414 0.20977 0.0
H681 H 0.62634 0.19575 0.16546 0.0
H682 H 0.65444 0.25295 0.13109 0.0
H683 H 0.6516 0.30209 0.1108 0.0
Mn684 Mn 0.82135 0.26614 0.21379 0.0
Mn685 Mn 0.77046 0.2954 0.21274 0.0
C686 C 0.82712 0.30386 0.15851 0.0
C687 C 0.83013 0.22352 0.19283 0.0
C688 C 0.82404 0.31505 0.28169 0.0
O689 O 0.78322 0.2347 0.25429 0.0
O690 O 0.74733 0.25063 0.23615 0.0
C691 C 0.72623 0.25192 0.14271 0.0
N692 N 0.74538 0.28252 0.15925 0.0
C693 C 0.73736 0.30641 0.09344 0.0
C694 C 0.71813 0.27536 0.07505 0.0
C695 C 0.71241 0.24788 0.09985 0.0
C696 C 0.7516 0.30903 0.13522 0.0
H697 H 0.72253 0.23086 0.16138 0.0
C698 C 0.75434 0.23028 0.25353 0.0
O699 O 0.84527 0.2422 0.22695 0.0
O700 O 0.81032 0.22985 0.17099 0.0
N701 N 0.79008 0.33879 0.19005 0.0
C702 C 0.81376 0.36707 0.20864 0.0
C703 C 0.82355 0.39664 0.18655 0.0
C704 C 0.80866 0.39687 0.14586 0.0
C705 C 0.78382 0.36756 0.12807 0.0
C706 C 0.77494 0.33887 0.15173 0.0
H707 H 0.82516 0.36722 0.24001 0.0
O708 O 0.85081 0.29847 0.16709 0.0
O709 O 0.80128 0.28673 0.18212 0.0
O710 O 0.83893 0.30215 0.26258 0.0
O711 O 0.79646 0.31047 0.26852 0.0
C712 C 0.76755 0.36557 0.0877 0.0
C713 C 0.74417 0.33491 0.07087 0.0
H714 H 0.70897 0.27262 0.04112 0.0
H715 H 0.69798 0.22376 0.08575 0.0
H716 H 0.84258 0.41918 0.20079 0.0
H717 H 0.8166 0.41961 0.12843 0.0
H718 H 0.77303 0.38736 0.06935 0.0
H719 H 0.7312 0.33298 0.04078 0.0
Mn720 Mn 0.74604 0.56038 0.21564 0.0
Mn721 Mn 0.71486 0.48048 0.23529 0.0
C722 C 0.70558 0.52336 0.16622 0.0
C723 C 0.78682 0.60978 0.18676 0.0
C724 C 0.69683 0.52403 0.28785 0.0
O725 O 0.77927 0.55929 0.25933 0.0
O726 O 0.7596 0.50559 0.25816 0.0
C727 C 0.75788 0.4646 0.18334 0.0
N728 N 0.72757 0.45771 0.19547 0.0
C729 C 0.70565 0.40073 0.1813 0.0
C730 C 0.73669 0.40699 0.16902 0.0
C731 C 0.7628 0.43921 0.16896 0.0
C732 C 0.70198 0.42734 0.19242 0.0
H733 H 0.77799 0.48917 0.18545 0.0
C734 C 0.78181 0.53435 0.2677 0.0
O735 O 0.769 0.60857 0.22038 0.0
O736 O 0.7809 0.58216 0.16958 0.0
N737 N 0.67158 0.45051 0.21645 0.0
C738 C 0.64337 0.44887 0.22941 0.0
C739 C 0.61418 0.41895 0.22736 0.0
C740 C 0.61467 0.39062 0.21501 0.0
C741 C 0.64423 0.3927 0.20347 0.0
C742 C 0.67206 0.42353 0.20301 0.0
H743 H 0.64331 0.47016 0.24169 0.0
O744 O 0.71238 0.55329 0.17096 0.0
O745 O 0.7235 0.5152 0.19041 0.0
O746 O 0.71229 0.54974 0.26495 0.0
O747 O 0.69866 0.49863 0.28103 0.0
C748 C 0.64753 0.36531 0.19457 0.0
C749 C 0.67815 0.36928 0.18317 0.0
H750 H 0.74061 0.38724 0.15958 0.0
H751 H 0.78682 0.44438 0.15938 0.0
H752 H 0.59159 0.4175 0.23717 0.0
H753 H 0.59235 0.36735 0.21536 0.0
H754 H 0.62676 0.3411 0.19718 0.0
H755 H 0.68026 0.34807 0.17577 0.0
Mn756 Mn 0.51724 0.11192 0.93608 0.0
Mn757 Mn 0.56431 0.19269 0.92975 0.0
C758 C 0.51045 0.14448 0.99008 0.0
C759 C 0.51105 0.06189 0.95922 0.0
C760 C 0.50937 0.15251 0.86484 0.0
O761 O 0.55494 0.11892 0.89439 0.0
O762 O 0.5888 0.17176 0.9092 0.0
C763 C 0.61663 0.20621 0.9936 0.0
N764 N 0.5928 0.21186 0.97907 0.0
C765 C 0.61664 0.26334 0.01653 0.0
C766 C 0.64222 0.25874 0.03066 0.0
C767 C 0.64154 0.22947 0.02058 0.0
C768 C 0.59151 0.23839 0.99202 0.0
H769 H 0.61705 0.18458 0.98345 0.0
C770 C 0.58318 0.14431 0.89389 0.0
O771 O 0.49486 0.06394 0.92537 0.0
O772 O 0.53062 0.08885 0.97982 0.0
N773 N 0.54457 0.21727 0.94867 0.0
C774 C 0.51912 0.21866 0.92987 0.0
C775 C 0.51432 0.24483 0.94016 0.0
C776 C 0.5368 0.27027 0.96766 0.0
C777 C 0.56343 0.26887 0.98537 0.0
C778 C 0.56575 0.24117 0.97623 0.0
H779 H 0.50276 0.20014 0.90701 0.0
O780 O 0.4881 0.11454 0.98265 0.0
O781 O 0.53639 0.15424 0.96596 0.0
O782 O 0.49614 0.12593 0.88669 0.0
O783 O 0.53645 0.17693 0.87601 0.0
C784 C 0.58891 0.29475 0.00915 0.0
C785 C 0.6159 0.29229 0.02358 0.0
H786 H 0.66263 0.27774 0.04877 0.0
H787 H 0.66068 0.22521 0.03172 0.0
H788 H 0.49401 0.24597 0.92561 0.0
H789 H 0.53385 0.29112 0.97397 0.0
H790 H 0.58848 0.317 0.01531 0.0
H791 H 0.63608 0.31294 0.03979 0.0
Mn792 Mn 0.88975 0.40949 0.94173 0.0
Mn793 Mn 0.81111 0.38448 0.92525 0.0
C794 C 0.85243 0.37042 0.99172 0.0
C795 C 0.94063 0.44959 0.96937 0.0
C796 C 0.84987 0.36321 0.86796 0.0
O797 O 0.88957 0.44333 0.89824 0.0
O798 O 0.83777 0.43018 0.90753 0.0
C799 C 0.79677 0.42618 0.98293 0.0
N800 N 0.7894 0.39607 0.96845 0.0
C801 C 0.73254 0.37472 0.98206 0.0
C802 C 0.7394 0.40542 -0.00259 0.0
C803 C 0.77177 0.43112 -0.00114 0.0
C804 C 0.75872 0.37081 0.96961 0.0
H805 H 0.82134 0.44632 0.98095 0.0
C806 C 0.86665 0.44983 0.89505 0.0
O807 O 0.93798 0.43081 0.93593 0.0
O808 O 0.91371 0.44479 0.9872 0.0
N809 N 0.78057 0.3406 0.94026 0.0
C810 C 0.77846 0.31256 0.92503 0.0
C811 C 0.74818 0.28373 0.92484 0.0
C812 C 0.72014 0.28453 0.93762 0.0
C813 C 0.72291 0.31391 0.95226 0.0
C814 C 0.75405 0.34118 0.95502 0.0
H815 H 0.79958 0.31238 0.9125 0.0
O816 O 0.88178 0.37569 0.98677 0.0
O817 O 0.84559 0.38956 0.96822 0.0
O818 O 0.87515 0.37425 0.89247 0.0
O819 O 0.8276 0.37 0.87497 0.0
C820 C 0.69601 0.31765 0.96248 0.0
C821 C 0.70078 0.34796 0.97767 0.0
H822 H 0.71993 0.40943 0.00772 0.0
H823 H 0.77729 0.45493 0.01044 0.0
H824 H 0.74624 0.26126 0.91299 0.0
H825 H 0.69662 0.26259 0.93557 0.0
H826 H 0.6716 0.29751 0.95809 0.0
H827 H 0.67995 0.35047 0.98578 0.0
Mn828 Mn 0.60118 0.48662 0.94162 0.0
Mn829 Mn 0.63938 0.44332 0.94082 0.0
C830 C 0.63929 0.49513 -0.00229 0.0
C831 C 0.55664 0.49162 0.96276 0.0
C832 C 0.65589 0.49929 0.87765 0.0
O833 O 0.57295 0.44818 0.89863 0.0
O834 O 0.59678 0.41815 0.91074 0.0
C835 C 0.59411 0.39256 0.00252 0.0
N836 N 0.6251 0.41483 0.9908 0.0
C837 C 0.64624 0.40676 0.05946 0.0
C838 C 0.6147 0.38428 0.07284 0.0
C839 C 0.58841 0.37689 0.04414 0.0
C840 C 0.65037 0.42246 0.01863 0.0
H841 H 0.57382 0.38775 0.9811 0.0
C842 C 0.57378 0.42172 0.89468 0.0
O843 O 0.5747 0.50765 0.92889 0.0
O844 O 0.56393 0.47205 0.98342 0.0
N845 N 0.68107 0.46464 0.96938 0.0
C846 C 0.7096 0.48996 0.95442 0.0
C847 C 0.73803 0.50075 0.98007 0.0
C848 C 0.73692 0.48509 0.02053 0.0
C849 C 0.70751 0.45842 0.03437 0.0
C850 C 0.68011 0.44844 0.007 0.0
H851 H 0.71079 0.50168 0.92305 0.0
O852 O 0.63111 0.51694 0.98977 0.0
O853 O 0.62467 0.46924 0.97298 0.0
O854 O 0.63745 0.50872 0.89478 0.0
O855 O 0.65604 0.47354 0.88957 0.0
C856 C 0.70425 0.44117 0.07414 0.0
C857 C 0.67355 0.41529 0.08625 0.0
H858 H 0.61054 0.37393 0.10605 0.0
H859 H 0.56387 0.35979 0.05445 0.0
H860 H 0.76071 0.52105 0.96866 0.0
H861 H 0.75877 0.49364 0.0406 0.0
H862 H 0.72508 0.44765 0.09546 0.0
H863 H 0.67065 0.40163 0.11587 0.0
Mn864 Mn 0.55861 0.81603 0.77505 0.0
Mn865 Mn 0.47841 0.76567 0.776 0.0
C866 C 0.52734 0.82234 0.83055 0.0
C867 C 0.61007 0.82532 0.79665 0.0
C868 C 0.51224 0.81938 0.70782 0.0
O869 O 0.55141 0.77761 0.73405 0.0
O870 O 0.49943 0.74217 0.75163 0.0
C871 C 0.47776 0.72113 0.84515 0.0
N872 N 0.46647 0.74055 0.82923 0.0
C873 C 0.43664 0.73412 0.89645 0.0
C874 C 0.44835 0.71468 0.91418 0.0
C875 C 0.46888 0.7079 0.88833 0.0
C876 C 0.44715 0.74756 0.85418 0.0
H877 H 0.49438 0.7168 0.82576 0.0
C878 C 0.52657 0.74887 0.73407 0.0
O879 O 0.60635 0.84001 0.76221 0.0
O880 O 0.58397 0.80512 0.81793 0.0
N881 N 0.45528 0.78571 0.79944 0.0
C882 C 0.45071 0.80948 0.78122 0.0
C883 C 0.43201 0.82011 0.80429 0.0
C884 C 0.41801 0.80604 0.84566 0.0
C885 C 0.42234 0.78103 0.863 0.0
C886 C 0.44085 0.77113 0.83821 0.0
H887 H 0.4612 0.82034 0.74942 0.0
O888 O 0.55638 0.84587 0.82181 0.0
O889 O 0.51818 0.79626 0.80686 0.0
O890 O 0.54022 0.83388 0.72667 0.0
O891 O 0.48916 0.79181 0.72064 0.0
C892 C 0.40922 0.76564 0.90408 0.0
C893 C 0.41635 0.74208 0.92035 0.0
H894 H 0.44281 0.70624 0.94841 0.0
H895 H 0.47834 0.69315 0.90195 0.0
H896 H 0.42858 0.83923 0.79037 0.0
H897 H 0.40421 0.81475 0.86398 0.0
H898 H 0.39401 0.77202 0.92342 0.0
H899 H 0.40646 0.72995 0.95117 0.0
Mn900 Mn 0.19039 0.74419 0.77274 0.0
Mn901 Mn 0.24277 0.71764 0.75699 0.0
C902 C 0.18789 0.70491 0.82351 0.0
C903 C 0.18126 0.78558 0.79887 0.0
C904 C 0.18297 0.69776 0.69922 0.0
O905 O 0.22452 0.77727 0.72899 0.0
O906 O 0.26256 0.76342 0.73947 0.0
C907 C 0.29942 0.75864 0.8141 0.0
N908 N 0.27614 0.72861 0.80007 0.0
C909 C 0.31159 0.70678 0.81112 0.0
C910 C 0.33591 0.73734 0.8262 0.0
C911 C 0.32957 0.76325 0.82867 0.0
C912 C 0.28128 0.70314 0.80036 0.0
H913 H 0.29521 0.77897 0.81273 0.0
C914 C 0.25381 0.7834 0.72657 0.0
O915 O 0.16448 0.76654 0.76595 0.0
O916 O 0.20278 0.78004 0.81742 0.0
N917 N 0.22881 0.67359 0.77183 0.0
C918 C 0.20264 0.64588 0.75624 0.0
C919 C 0.2037 0.61683 0.75524 0.0
C920 C 0.23248 0.61716 0.76739 0.0
C921 C 0.2594 0.64626 0.78219 0.0
C922 C 0.25587 0.67368 0.78605 0.0
H923 H 0.18141 0.64614 0.74414 0.0
O924 O 0.1643 0.71095 0.81823 0.0
O925 O 0.21389 0.72342 0.79984 0.0
O926 O 0.16899 0.70891 0.72378 0.0
O927 O 0.21177 0.7038 0.7066 0.0
C928 C 0.29014 0.64968 0.79088 0.0
C929 C 0.31621 0.67984 0.8056 0.0
H930 H 0.35949 0.74107 0.83554 0.0
H931 H 0.34822 0.787 0.83995 0.0
H932 H 0.18296 0.59462 0.74314 0.0
H933 H 0.23382 0.59511 0.76445 0.0
H934 H 0.29413 0.62945 0.78536 0.0
H935 H 0.3396 0.68204 0.81259 0.0
Mn936 Mn 0.27105 0.44809 0.76994 0.0
Mn937 Mn 0.31158 0.52966 0.76125 0.0
C938 C 0.3114 0.47914 0.8238 0.0
C939 C 0.22641 0.3995 0.79434 0.0
C940 C 0.32406 0.48522 0.7018 0.0
O941 O 0.24176 0.45689 0.72729 0.0
O942 O 0.26793 0.51111 0.73451 0.0
C943 C 0.27062 0.54464 0.81859 0.0
N944 N 0.30047 0.54996 0.80699 0.0
C945 C 0.32717 0.60083 0.84606 0.0
C946 C 0.29664 0.59669 0.85705 0.0
C947 C 0.26825 0.56786 0.84465 0.0
C948 C 0.32786 0.5758 0.82255 0.0
H949 H 0.2489 0.52314 0.80722 0.0
C950 C 0.24353 0.48443 0.72164 0.0
O951 O 0.24365 0.40038 0.76014 0.0
O952 O 0.23471 0.42703 0.814 0.0
N953 N 0.35474 0.55322 0.78512 0.0
C954 C 0.38214 0.55437 0.76917 0.0
C955 C 0.41279 0.58005 0.78198 0.0
C956 C 0.41502 0.60548 0.8087 0.0
C957 C 0.38654 0.60471 0.82279 0.0
C958 C 0.35673 0.57753 0.81114 0.0
H959 H 0.38065 0.536 0.74666 0.0
O960 O 0.30182 0.44872 0.81638 0.0
O961 O 0.29687 0.4908 0.79932 0.0
O962 O 0.30533 0.45849 0.72122 0.0
O963 O 0.32586 0.51206 0.7122 0.0
C964 C 0.38651 0.63082 0.84525 0.0
C965 C 0.35683 0.62915 0.856 0.0
H966 H 0.29481 0.61557 0.87481 0.0
H967 H 0.24453 0.5638 0.85356 0.0
H968 H 0.43462 0.58085 0.76989 0.0
H969 H 0.43867 0.62595 0.81697 0.0
H970 H 0.40913 0.65262 0.85338 0.0
H971 H 0.35714 0.64985 0.87178 0.0
Mn972 Mn 0.48632 0.88836 0.04609 0.0
Mn973 Mn 0.43342 0.80986 0.06479 0.0
C974 C 0.48817 0.85023 -0.00255 0.0
C975 C 0.49613 0.93844 0.0173 0.0
C976 C 0.49343 0.85079 0.12182 0.0
O977 O 0.45245 0.88862 0.08894 0.0
O978 O 0.41399 0.8365 0.08082 0.0
C979 C 0.37673 0.79316 0.00686 0.0
N980 N 0.3999 0.78665 0.02203 0.0
C981 C 0.36533 0.72935 0.00906 0.0
C982 C 0.34111 0.73535 0.99289 0.0
C983 C 0.34709 0.7675 0.99085 0.0
C984 C 0.39507 0.75614 0.02177 0.0
H985 H 0.38062 0.81759 0.00823 0.0
C986 C 0.42311 0.86564 0.09227 0.0
O987 O 0.51272 0.93672 0.05087 0.0
O988 O 0.47432 0.91105 -0.00025 0.0
N989 N 0.44727 0.77946 0.05134 0.0
C990 C 0.47365 0.77828 0.06673 0.0
C991 C 0.47299 0.74835 0.06739 0.0
C992 C 0.4445 0.71973 0.0547 0.0
C993 C 0.41743 0.72156 0.03979 0.0
C994 C 0.42045 0.75235 0.03685 0.0
H995 H 0.49473 0.79989 0.079 0.0
O996 O 0.51212 0.87981 0.00184 0.0
O997 O 0.46229 0.84357 0.02084 0.0
O998 O 0.50747 0.87535 0.09627 0.0
O999 O 0.46458 0.82793 0.11496 0.0
C1000 C 0.38719 0.69406 0.02922 0.0
C1001 C 0.36119 0.69791 0.01357 0.0
H1002 H 0.31788 0.71542 0.98227 0.0
H1003 H 0.32855 0.7724 0.97856 0.0
H1004 H 0.49388 0.74715 0.0794 0.0
H1005 H 0.44357 0.69651 0.05697 0.0
H1006 H 0.3836 0.66987 0.03351 0.0
H1007 H 0.33823 0.67661 0.00497 0.0
Mn1008 Mn 0.11807 0.59882 0.04627 0.0
Mn1009 Mn 0.19866 0.63065 0.04369 0.0
C1010 C 0.14831 0.6362 0.98978 0.0
C1011 C 0.06662 0.55522 0.02661 0.0
C1012 C 0.16447 0.64991 0.11226 0.0
O1013 O 0.12673 0.56878 0.08751 0.0
O1014 O 0.17882 0.58648 0.06908 0.0
C1015 C 0.20195 0.58678 0.97644 0.0
N1016 N 0.21121 0.61744 0.99096 0.0
C1017 C 0.2434 0.64103 0.92554 0.0
C1018 C 0.23403 0.6099 0.90936 0.0
C1019 C 0.21323 0.58254 0.93493 0.0
C1020 C 0.23069 0.64378 0.96616 0.0
H1021 H 0.18549 0.56577 -0.00416 0.0
C1022 C 0.15205 0.56573 0.08726 0.0
O1023 O 0.07043 0.57415 0.06047 0.0
O1024 O 0.09258 0.56163 0.00452 0.0
N1025 N 0.22065 0.67356 0.0192 0.0
C1026 C 0.22415 0.70177 0.03643 0.0
C1027 C 0.24289 0.73107 0.0133 0.0
C1028 C 0.25817 0.73115 0.97303 0.0
C1029 C 0.25482 0.70195 0.95663 0.0
C1030 C 0.23589 0.67352 0.98116 0.0
H1031 H 0.21281 0.70205 0.0675 0.0
O1032 O 0.11911 0.63004 -0.00099 0.0
O1033 O 0.15824 0.61994 0.0134 0.0
O1034 O 0.13626 0.63563 0.09409 0.0
O1035 O 0.18786 0.64621 0.09876 0.0
C1036 C 0.26964 0.69988 0.91703 0.0
C1037 C 0.26413 0.66937 0.9021 0.0
H1038 H 0.24173 0.60699 0.87652 0.0
H1039 H 0.20565 0.55835 0.92248 0.0
H1040 H 0.24552 0.75352 0.02648 0.0
H1041 H 0.27232 0.7537 0.95493 0.0
H1042 H 0.2854 0.72155 0.8982 0.0
H1043 H 0.2759 0.6674 0.87293 0.0
Mn1044 Mn 0.40954 0.517 0.0518 0.0
Mn1045 Mn 0.36894 0.558 0.05664 0.0
C1046 C 0.36921 0.50733 -0.00142 0.0
C1047 C 0.45351 0.51196 0.02774 0.0
C1048 C 0.35511 0.50171 0.11783 0.0
O1049 O 0.43902 0.55596 0.09311 0.0
O1050 O 0.41152 0.58287 0.08697 0.0
C1051 C 0.41228 0.61423 0.00098 0.0
N1052 N 0.38204 0.58968 0.01093 0.0
C1053 C 0.35678 0.61354 0.96795 0.0
C1054 C 0.38764 0.63976 0.95802 0.0
C1055 C 0.41557 0.63947 0.97329 0.0
C1056 C 0.35528 0.58795 0.99264 0.0
H1057 H 0.43356 0.61464 0.01465 0.0
C1058 C 0.43627 0.58112 0.09979 0.0
O1059 O 0.43651 0.49642 0.06257 0.0
O1060 O 0.44548 0.53114 0.00747 0.0
N1061 N 0.3272 0.53799 0.02821 0.0
C1062 C 0.29956 0.51011 0.03938 0.0
C1063 C 0.26951 0.50449 0.02262 0.0
C1064 C 0.26803 0.5284 -0.00341 0.0
C1065 C 0.29678 0.55723 0.98645 0.0
C1066 C 0.32611 0.56047 0.0017 0.0
H1067 H 0.30045 0.49261 0.06137 0.0
O1068 O 0.37808 0.48597 0.00605 0.0
O1069 O 0.38462 0.53396 0.02162 0.0
O1070 O 0.37535 0.49449 0.10134 0.0
O1071 O 0.35242 0.52577 0.10496 0.0
C1072 C 0.29746 0.5837 0.96412 0.0
C1073 C 0.32745 0.61213 0.95582 0.0
H1074 H 0.39002 0.66018 0.93896 0.0
H1075 H 0.4396 0.65896 0.96531 0.0
H1076 H 0.24743 0.48233 0.03116 0.0
H1077 H 0.24471 0.52465 0.9853 0.0
H1078 H 0.27509 0.58263 0.95381 0.0
H1079 H 0.32769 0.63278 0.94008 0.0
Mn1080 Mn 0.12136 0.52376 0.5477 0.0
Mn1081 Mn 0.20152 0.57417 0.5465 0.0
C1082 C 0.15254 0.51759 0.49195 0.0
C1083 C 0.06995 0.51441 0.52616 0.0
C1084 C 0.16781 0.52026 0.61448 0.0
O1085 O 0.12854 0.56216 0.58878 0.0
O1086 O 0.18054 0.59761 0.57129 0.0
C1087 C 0.20223 0.61914 0.47795 0.0
N1088 N 0.21338 0.59949 0.49343 0.0
C1089 C 0.24297 0.60605 0.4259 0.0
C1090 C 0.23148 0.62582 0.40869 0.0
C1091 C 0.21113 0.63263 0.4349 0.0
C1092 C 0.23254 0.59246 0.46814 0.0
H1093 H 0.18572 0.62347 0.49758 0.0
C1094 C 0.15337 0.5909 0.58881 0.0
O1095 O 0.0736 0.49967 0.56059 0.0
O1096 O 0.09607 0.5347 0.50501 0.0
N1097 N 0.22455 0.55417 0.5226 0.0
C1098 C 0.22908 0.53028 0.54047 0.0
C1099 C 0.24755 0.51956 0.51697 0.0
C1100 C 0.26132 0.53364 0.47551 0.0
C1101 C 0.25703 0.55876 0.45852 0.0
C1102 C 0.23878 0.56876 0.48374 0.0
H1103 H 0.21874 0.5194 0.57231 0.0
O1104 O 0.12356 0.49399 0.50083 0.0
O1105 O 0.16171 0.54365 0.5157 0.0
O1106 O 0.13978 0.50585 0.59584 0.0
O1107 O 0.19089 0.54785 0.60167 0.0
C1108 C 0.26993 0.57415 0.41738 0.0
C1109 C 0.26294 0.59792 0.40154 0.0
H1110 H 0.23705 0.63451 0.37457 0.0
H1111 H 0.20182 0.6476 0.42167 0.0
H1112 H 0.25095 0.50035 0.53062 0.0
H1113 H 0.27493 0.52486 0.45686 0.0
H1114 H 0.28489 0.56765 0.39769 0.0
H1115 H 0.27267 0.61004 0.37066 0.0
Mn1116 Mn 0.48942 0.59752 0.54707 0.0
Mn1117 Mn 0.43605 0.62243 0.56555 0.0
C1118 C 0.49059 0.63686 0.49772 0.0
C1119 C 0.4997 0.55724 0.51945 0.0
C1120 C 0.49632 0.64253 0.62224 0.0
O1121 O 0.45585 0.56356 0.59056 0.0
O1122 O 0.41697 0.57645 0.58149 0.0
C1123 C 0.37943 0.58194 0.50787 0.0
N1124 N 0.40243 0.61176 0.52295 0.0
C1125 C 0.36713 0.63373 0.51127 0.0
C1126 C 0.34311 0.60338 0.49509 0.0
C1127 C 0.34952 0.57751 0.49248 0.0
C1128 C 0.39717 0.63716 0.5232 0.0
H1129 H 0.38371 0.56165 0.5088 0.0
C1130 C 0.42635 0.55676 0.59334 0.0
O1131 O 0.5163 0.57617 0.55254 0.0
O1132 O 0.47762 0.56223 0.50155 0.0
N1133 N 0.44951 0.66661 0.55213 0.0
C1134 C 0.47577 0.69436 0.56744 0.0
C1135 C 0.47472 0.72341 0.56843 0.0
C1136 C 0.44597 0.72313 0.55621 0.0
C1137 C 0.41902 0.69403 0.54144 0.0
C1138 C 0.42243 0.66651 0.53808 0.0
H1139 H 0.49707 0.69414 0.5793 0.0
O1140 O 0.5147 0.63148 0.50197 0.0
O1141 O 0.46495 0.61768 0.52155 0.0
O1142 O 0.51058 0.63236 0.59652 0.0
O1143 O 0.46722 0.63581 0.61574 0.0
C1144 C 0.38851 0.69083 0.53158 0.0
C1145 C 0.36259 0.66075 0.51627 0.0
H1146 H 0.31978 0.59983 0.48478 0.0
H1147 H 0.33113 0.55396 0.48022 0.0
H1148 H 0.49551 0.74565 0.58035 0.0
H1149 H 0.44473 0.74524 0.5588 0.0
H1150 H 0.38464 0.71123 0.5362 0.0
H1151 H 0.3394 0.65872 0.50822 0.0
Mn1152 Mn 0.41031 0.89204 0.54998 0.0
Mn1153 Mn 0.36942 0.81042 0.55794 0.0
C1154 C 0.36992 0.86113 0.49626 0.0
C1155 C 0.45534 0.9406 0.52612 0.0
C1156 C 0.35677 0.85459 0.61756 0.0
O1157 O 0.43922 0.88286 0.59289 0.0
O1158 O 0.41284 0.82863 0.58548 0.0
C1159 C 0.41078 0.79594 0.50078 0.0
N1160 N 0.38086 0.79048 0.51213 0.0
C1161 C 0.35443 0.73984 0.47255 0.0
C1162 C 0.38502 0.74421 0.46141 0.0
C1163 C 0.41331 0.77304 0.4742 0.0
C1164 C 0.35358 0.76477 0.4961 0.0
H1165 H 0.43243 0.81731 0.51267 0.0
C1166 C 0.43723 0.85523 0.59867 0.0
O1167 O 0.43791 0.93968 0.56011 0.0
O1168 O 0.44696 0.91313 0.50625 0.0
N1169 N 0.3265 0.78728 0.53312 0.0
C1170 C 0.29901 0.78605 0.54884 0.0
C1171 C 0.26844 0.76038 0.53578 0.0
C1172 C 0.26635 0.73496 0.50921 0.0
C1173 C 0.29491 0.73578 0.49543 0.0
C1174 C 0.32465 0.76303 0.50712 0.0
H1175 H 0.30039 0.80437 0.5714 0.0
O1176 O 0.37976 0.89166 0.50315 0.0
O1177 O 0.38449 0.84948 0.52057 0.0
O1178 O 0.37576 0.88145 0.59854 0.0
O1179 O 0.35485 0.82774 0.60689 0.0
C1180 C 0.29509 0.70961 0.47342 0.0
C1181 C 0.32484 0.71139 0.46278 0.0
H1182 H 0.38695 0.72554 0.44321 0.0
H1183 H 0.4371 0.77741 0.46526 0.0
H1184 H 0.24654 0.75954 0.54768 0.0
H1185 H 0.24275 0.71444 0.50086 0.0
H1186 H 0.27252 0.6877 0.46546 0.0
H1187 H 0.32464 0.69069 0.44719 0.0
Mn1188 Mn 0.19072 0.4521 0.27345 0.0
Mn1189 Mn 0.24462 0.53034 0.25605 0.0
C1190 C 0.18988 0.49006 0.32347 0.0
C1191 C 0.18028 0.40142 0.3003 0.0
C1192 C 0.18428 0.49081 0.19908 0.0
O1193 O 0.2241 0.45176 0.22964 0.0
O1194 O 0.26348 0.50329 0.23962 0.0
C1195 C 0.30096 0.54581 0.31401 0.0
N1196 N 0.27814 0.55287 0.29902 0.0
C1197 C 0.31337 0.60998 0.31258 0.0
C1198 C 0.33721 0.6034 0.32869 0.0
C1199 C 0.33073 0.57107 0.33032 0.0
C1200 C 0.28345 0.58356 0.29967 0.0
H1201 H 0.29669 0.52125 0.3123 0.0
C1202 C 0.25372 0.47422 0.22715 0.0
O1203 O 0.16363 0.4039 0.26742 0.0
O1204 O 0.20243 0.4284 0.3184 0.0
N1205 N 0.23133 0.56111 0.27007 0.0
C1206 C 0.20516 0.56282 0.255 0.0
C1207 C 0.20636 0.593 0.25471 0.0
C1208 C 0.23512 0.62131 0.26747 0.0
C1209 C 0.26192 0.61892 0.28216 0.0
C1210 C 0.25838 0.5879 0.28476 0.0
H1211 H 0.18386 0.54145 0.24269 0.0
O1212 O 0.16559 0.46068 0.31886 0.0
O1213 O 0.21547 0.4965 0.29957 0.0
O1214 O 0.16979 0.46628 0.22454 0.0
O1215 O 0.21351 0.51295 0.20564 0.0
C1216 C 0.29239 0.64607 0.29282 0.0
C1217 C 0.31806 0.64165 0.30836 0.0
H1218 H 0.36049 0.62303 0.33964 0.0
H1219 H 0.34897 0.56571 0.34256 0.0
H1220 H 0.18566 0.59464 0.24291 0.0
H1221 H 0.23646 0.64474 0.26547 0.0
H1222 H 0.29641 0.67042 0.28866 0.0
H1223 H 0.3412 0.66268 0.31707 0.0
Mn1224 Mn 0.55839 0.74246 0.27543 0.0
Mn1225 Mn 0.47806 0.71146 0.27722 0.0
C1226 C 0.52781 0.70462 0.33105 0.0
C1227 C 0.60964 0.78545 0.29673 0.0
C1228 C 0.51215 0.69246 0.20828 0.0
O1229 O 0.5503 0.77313 0.23466 0.0
O1230 O 0.49837 0.75606 0.25315 0.0
C1231 C 0.47608 0.75465 0.34653 0.0
N1232 N 0.46582 0.72408 0.33071 0.0
C1233 C 0.43603 0.70004 0.39771 0.0
C1234 C 0.44668 0.73106 0.41536 0.0
C1235 C 0.46665 0.75861 0.38956 0.0
C1236 C 0.44695 0.69753 0.35553 0.0
H1237 H 0.4922 0.77581 0.32711 0.0
C1238 C 0.52526 0.77664 0.23508 0.0
O1239 O 0.60613 0.7671 0.26225 0.0
O1240 O 0.58347 0.77898 0.31825 0.0
N1241 N 0.45567 0.66816 0.30035 0.0
C1242 C 0.45154 0.64006 0.28178 0.0
C1243 C 0.43326 0.61055 0.30463 0.0
C1244 C 0.4192 0.61019 0.34614 0.0
C1245 C 0.42311 0.63928 0.36389 0.0
C1246 C 0.44124 0.66789 0.33932 0.0
H1247 H 0.46202 0.64 0.24984 0.0
O1248 O 0.55699 0.7107 0.32197 0.0
O1249 O 0.51813 0.72121 0.30767 0.0
O1250 O 0.5402 0.70611 0.22694 0.0
O1251 O 0.48899 0.69665 0.22154 0.0
C1252 C 0.40987 0.64112 0.4051 0.0
C1253 C 0.41626 0.67159 0.42149 0.0
H1254 H 0.44071 0.73368 0.44948 0.0
H1255 H 0.47529 0.78274 0.4031 0.0
H1256 H 0.43016 0.58819 0.29039 0.0
H1257 H 0.40563 0.58752 0.36419 0.0
H1258 H 0.39497 0.61938 0.42431 0.0
H1259 H 0.40612 0.67352 0.45224 0.0
Mn1260 Mn 0.26912 0.82408 0.27039 0.0
Mn1261 Mn 0.30816 0.78163 0.26339 0.0
C1262 C 0.30951 0.83274 0.32326 0.0
C1263 C 0.22535 0.82939 0.29494 0.0
C1264 C 0.32179 0.83801 0.20233 0.0
O1265 O 0.23925 0.78568 0.22839 0.0
O1266 O 0.26466 0.75678 0.23562 0.0
C1267 C 0.26628 0.72614 0.32102 0.0
N1268 N 0.29628 0.75061 0.30984 0.0
C1269 C 0.32249 0.72718 0.35168 0.0
C1270 C 0.29186 0.70103 0.36279 0.0
C1271 C 0.26361 0.70115 0.34873 0.0
C1272 C 0.32346 0.75251 0.32689 0.0
H1273 H 0.2447 0.72553 0.30823 0.0
C1274 C 0.2406 0.75965 0.22255 0.0
O1275 O 0.24255 0.84525 0.26042 0.0
O1276 O 0.23317 0.80989 0.31475 0.0
N1277 N 0.35082 0.80167 0.28911 0.0
C1278 C 0.37832 0.82873 0.27528 0.0
C1279 C 0.40876 0.83429 0.29016 0.0
C1280 C 0.41071 0.81101 0.31702 0.0
C1281 C 0.38212 0.78282 0.32959 0.0
C1282 C 0.35246 0.77966 0.31604 0.0
H1283 H 0.37704 0.84572 0.2527 0.0
O1284 O 0.30078 0.85431 0.31666 0.0
O1285 O 0.29382 0.80642 0.29957 0.0
O1286 O 0.30334 0.84671 0.22105 0.0
O1287 O 0.32329 0.81302 0.21387 0.0
C1288 C 0.38187 0.75677 0.35253 0.0
C1289 C 0.35205 0.72864 0.36255 0.0
H1290 H 0.28987 0.68072 0.38172 0.0
H1291 H 0.23979 0.68169 0.35761 0.0
H1292 H 0.43071 0.85586 0.27956 0.0
H1293 H 0.43427 0.81465 0.32687 0.0
H1294 H 0.40443 0.7578 0.36173 0.0
H1295 H 0.35216 0.70822 0.37841 0.0
C1296 C 0.17114 0.02737 0.05951 0.0
C1297 C 0.19366 0.05909 0.04536 0.0
H1298 H 0.14443 0.97684 0.04258 0.0
C1299 C 0.21227 0.06285 0.00684 0.0
H1300 H 0.15678 0.0234 0.0895 0.0
C1301 C 0.20553 0.0356 0.98022 0.0
C1302 C 0.17998 1.00447 0.99173 0.0
H1303 H 0.22986 0.08691 -0.00486 0.0
H1304 H 0.21764 0.03943 0.94816 0.0
C1305 C 0.16431 1.00047 0.03298 0.0
C1306 C 0.9427 0.16052 0.00042 0.0
C1307 C 0.94744 0.14871 0.04126 0.0
H1308 H 0.96539 0.18635 0.93989 0.0
C1309 C 0.97928 0.16156 0.05801 0.0
H1310 H 0.91846 0.15109 0.98677 0.0
C1311 C 1.00591 0.18103 0.03103 0.0
C1312 C 1.00109 0.18855 0.98731 0.0
H1313 H 0.98368 0.15345 0.08987 0.0
H1314 H 0.0299 0.18663 0.0422 0.0
C1315 C 0.96961 0.18078 0.97371 0.0
C1316 C 0.85839 0.8556 0.01908 0.0
C1317 C 0.84206 0.83749 0.9809 0.0
H1318 H 0.89169 0.8634 0.0719 0.0
C1319 C 0.84315 0.80898 0.97111 0.0
H1320 H 0.85828 0.87782 0.02713 0.0
C1321 C 0.86304 0.80074 -0.00332 0.0
C1322 C 0.88201 0.82099 0.0322 0.0
H1323 H 0.83134 0.79501 0.94114 0.0
H1324 H 0.86555 0.78021 0.98643 0.0
C1325 C 0.87795 0.84743 0.04441 0.0
C1326 C 0.04235 0.21693 0.51665 0.0
C1327 C 0.01065 0.19347 0.50339 0.0
H1328 H 0.09335 0.23838 0.50258 0.0
C1329 C 1.00544 0.18101 0.45965 0.0
H1330 H 0.04689 0.22691 0.55038 0.0
C1331 C 0.03181 0.18794 0.43221 0.0
C1332 C 0.06384 0.20698 0.44837 0.0
H1333 H 0.98131 0.16271 0.4488 0.0
H1334 H 0.02709 0.17535 0.40031 0.0
C1335 C 0.06898 0.22351 0.48935 0.0
C1336 C 0.84127 0.86089 0.42641 0.0
C1337 C 0.81898 0.87037 0.44059 0.0
H1338 H 0.86801 0.83723 0.44376 0.0
C1339 C 0.80062 0.85604 0.47947 0.0
H1340 H 0.85539 0.87089 0.39615 0.0
C1341 C 0.80748 0.83584 0.50643 0.0
C1342 C 0.83289 0.8301 0.49488 0.0
H1343 H 0.78322 0.86275 0.49116 0.0
H1344 H 0.79563 0.828 0.53872 0.0
C1345 C 0.84825 0.84115 0.45333 0.0
C1346 C 0.14882 0.94545 0.4879 0.0
C1347 C 0.12813 0.94597 0.45436 0.0
H1348 H 0.18193 0.97195 0.54204 0.0
C1349 C 0.13017 0.97593 0.4442 0.0
H1350 H 0.14793 0.92286 0.4965 0.0
C1351 C 0.14982 1.00376 0.46935 0.0
C1352 C 0.16809 1.00267 0.50563 0.0
H1353 H 0.11506 0.97763 0.4183 0.0
H1354 H 0.14864 0.0256 0.46274 0.0
C1355 C 0.16863 0.97366 0.51353 0.0
C1356 C 0.84925 0.01185 0.9536 0.0
C1357 C 0.83375 0.00787 -0.00502 0.0
H1358 H 0.85661 0.98885 0.89701 0.0
C1359 C 0.80827 0.97675 0.00666 0.0
H1360 H 0.86909 0.03547 0.94391 0.0
C1361 C 0.80149 0.94946 0.98011 0.0
C1362 C 0.81999 0.95319 0.94147 0.0
H1363 H 0.79632 0.97295 0.03883 0.0
H1364 H 0.78402 0.92542 0.99198 0.0
C1365 C 0.84236 0.98491 0.92709 0.0
C1366 C 0.00863 0.83012 0.95605 0.0
C1367 C 0.01337 0.82285 -5e-05 0.0
H1368 H 0.03094 0.85759 0.8972 0.0
C1369 C 0.04487 0.83095 0.01394 0.0
H1370 H 0.98461 0.82421 0.94458 0.0
C1371 C 0.07183 0.85139 0.98744 0.0
C1372 C 0.06711 0.86298 0.94641 0.0
H1373 H 0.04898 0.82545 0.04785 0.0
H1374 H 0.09602 0.86109 0.00138 0.0
C1375 C 0.03531 0.8497 0.92925 0.0
C1376 C 0.15077 0.21122 0.98969 0.0
C1377 C 0.13224 0.19089 0.95393 0.0
H1378 H 0.18212 0.21729 0.04585 0.0
C1379 C 0.1368 0.16471 0.94204 0.0
H1380 H 0.14783 0.23152 -0.00026 0.0
C1381 C 0.15644 0.15686 0.96785 0.0
C1382 C 0.17234 0.17503 0.00623 0.0
H1383 H 0.12338 0.14869 0.91441 0.0
H1384 H 0.15691 0.1348 0.96 0.0
C1385 C 0.17071 0.20329 0.01574 0.0
C1386 C 0.94002 0.78566 0.49721 0.0
C1387 C 0.94534 0.8018 0.53854 0.0
H1388 H 0.96199 0.78241 0.43604 0.0
C1389 C 0.97735 0.82006 0.55509 0.0
H1390 H 0.91565 0.77138 0.48374 0.0
C1391 C 1.00369 0.82681 0.52767 0.0
C1392 C 0.99838 0.81493 0.48362 0.0
H1393 H 0.98215 0.83229 0.58727 0.0
H1394 H 0.02791 0.84466 0.53884 0.0
C1395 C 0.96658 0.79204 0.46996 0.0
C1396 C 0.20314 0.17517 0.48005 0.0
C1397 C 0.1776 0.18074 0.49152 0.0
H1398 H 0.2275 0.14833 0.49517 0.0
C1399 C 0.16208 0.16939 0.53291 0.0
H1400 H 0.21514 0.18325 0.44789 0.0
C1401 C 0.16904 0.14958 0.5597 0.0
C1402 C 0.19148 0.14027 0.54554 0.0
H1403 H 0.14221 0.17317 0.54244 0.0
H1404 H 0.15483 0.13941 0.58985 0.0
C1405 C 0.20997 0.15487 0.50685 0.0
C1406 C 0.87799 0.03312 0.54402 0.0
C1407 C 0.88102 0.06347 0.53362 0.0
H1408 H 0.85922 0.9835 0.52476 0.0
C1409 C 0.8615 0.06478 0.49891 0.0
H1410 H 0.89219 0.03086 0.57081 0.0
C1411 C 0.84198 0.03694 0.47247 0.0
C1412 C 0.84167 0.00754 0.48064 0.0
H1413 H 0.86322 0.0877 0.49004 0.0
H1414 H 0.82967 0.03925 0.4432 0.0
C1415 C 0.85869 0.00566 0.51794 0.0
C1416 C 0.8678 0.36914 0.31041 0.0
C1417 C 0.83949 0.33909 0.31836 0.0
H1418 H 0.89597 0.41976 0.32909 0.0
C1419 C 0.82088 0.33586 0.3564 0.0
H1420 H 0.88216 0.37242 0.28063 0.0
C1421 C 0.82852 0.36266 0.38363 0.0
C1422 C 0.85487 0.39365 0.37339 0.0
H1423 H 0.79882 0.31311 0.36308 0.0
H1424 H 0.81237 0.35939 0.41122 0.0
C1425 C 0.87548 0.39633 0.33781 0.0
C1426 C 0.61328 0.491 0.33019 0.0
C1427 C 0.61734 0.48055 0.37256 0.0
H1428 H 0.63716 0.51588 0.26963 0.0
C1429 C 0.64881 0.4946 0.39111 0.0
H1430 H 0.58936 0.48056 0.31508 0.0
C1431 C 0.67597 0.51408 0.36499 0.0
C1432 C 0.67206 0.52054 0.32028 0.0
H1433 H 0.65265 0.48746 0.42408 0.0
H1434 H 0.69984 0.52075 0.37797 0.0
C1435 C 0.64069 0.5113 0.30428 0.0
C1436 C 0.52371 0.12434 0.33578 0.0
C1437 C 0.53951 0.1436 0.37366 0.0
H1438 H 0.49392 0.11833 0.27791 0.0
C1439 C 0.53076 0.16647 0.38801 0.0
H1440 H 0.52981 0.10649 0.32392 0.0
C1441 C 0.51031 0.17309 0.36197 0.0
C1442 C 0.49782 0.15685 0.32112 0.0
H1443 H 0.54198 0.18138 0.41747 0.0
H1444 H 0.50724 0.19347 0.37128 0.0
C1445 C 0.50286 0.1309 0.3097 0.0
C1446 C 0.71159 0.54328 0.8591 0.0
C1447 C 0.68041 0.51956 0.84434 0.0
H1448 H 0.76293 0.5671 0.84598 0.0
C1449 C 0.6762 0.50826 0.80012 0.0
H1450 H 0.7153 0.55215 0.89341 0.0
C1451 C 0.70316 0.51731 0.77293 0.0
C1452 C 0.73484 0.53712 0.78984 0.0
H1453 H 0.65245 0.48984 0.78815 0.0
H1454 H 0.69923 0.50604 0.74023 0.0
C1455 C 0.73885 0.55188 0.83203 0.0
C1456 C 0.50421 0.1907 0.75969 0.0
C1457 C 0.48156 0.2002 0.77202 0.0
H1458 H 0.52996 0.16649 0.77948 0.0
C1459 C 0.46127 0.18487 0.809 0.0
H1460 H 0.51974 0.20136 0.73076 0.0
C1461 C 0.46662 0.16381 0.83637 0.0
C1462 C 0.49254 0.1583 0.8273 0.0
H1463 H 0.44344 0.19143 0.81918 0.0
H1464 H 0.45325 0.15524 0.8675 0.0
C1465 C 0.50975 0.17017 0.78714 0.0
C1466 C 0.8383 0.30739 0.84585 0.0
C1467 C 0.84212 0.33778 0.83351 0.0
H1468 H 0.8128 0.2557 0.83308 0.0
C1469 C 0.82824 0.34004 0.79302 0.0
H1470 H 0.8482 0.30484 0.87744 0.0
C1471 C 0.80799 0.3122 0.76814 0.0
C1472 C 0.80087 0.28118 0.78302 0.0
H1473 H 0.83051 0.363 0.78283 0.0
H1474 H 0.79596 0.31487 0.73885 0.0
C1475 C 0.8177 0.27918 0.82076 0.0
C1476 C 0.47749 0.30771 0.34221 0.0
C1477 C 0.50464 0.33778 0.3304 0.0
H1478 H 0.45041 0.25607 0.32927 0.0
C1479 C 0.52113 0.33965 0.29059 0.0
H1480 H 0.4647 0.30547 0.37326 0.0
C1481 C 0.51325 0.31168 0.26597 0.0
C1482 C 0.48865 0.2809 0.28041 0.0
H1483 H 0.54221 0.36238 0.28075 0.0
H1484 H 0.52816 0.31403 0.23725 0.0
C1485 C 0.46955 0.27935 0.31736 0.0
C1486 C 0.69497 0.19205 0.26164 0.0
C1487 C 0.72694 0.20129 0.27486 0.0
H1488 H 0.64488 0.16797 0.28012 0.0
C1489 C 0.73149 0.1856 0.31189 0.0
H1490 H 0.69041 0.20295 0.23258 0.0
C1491 C 0.70482 0.16447 0.33855 0.0
C1492 C 0.67359 0.1593 0.32869 0.0
H1493 H 0.75574 0.19193 0.32267 0.0
H1494 H 0.70928 0.15565 0.36982 0.0
C1495 C 0.66865 0.17145 0.28839 0.0
C1496 C 0.84085 0.54383 0.35895 0.0
C1497 C 0.84827 0.51993 0.34498 0.0
H1498 H 0.81331 0.56758 0.34477 0.0
C1499 C 0.84084 0.50808 0.301 0.0
H1500 H 0.8462 0.5531 0.39306 0.0
C1501 C 0.82275 0.51682 0.27333 0.0
C1502 C 0.81106 0.53694 0.28944 0.0
H1503 H 0.84606 0.48949 0.28962 0.0
H1504 H 0.8152 0.50514 0.24091 0.0
C1505 C 0.82205 0.55216 0.33138 0.0
C1506 C 0.6429 0.16694 0.88909 0.0
C1507 C 0.61155 0.14378 0.87405 0.0
H1508 H 0.69345 0.19464 0.87342 0.0
C1509 C 0.60863 0.12465 0.83634 0.0
H1510 H 0.6462 0.18171 0.91854 0.0
C1511 C 0.6363 0.13167 0.81096 0.0
C1512 C 0.66694 0.15798 0.82291 0.0
H1513 H 0.58488 0.10656 0.82405 0.0
H1514 H 0.6331 0.1192 0.7792 0.0
C1515 C 0.67023 0.17406 0.8637 0.0
C1516 C 0.88645 0.49102 0.8328 0.0
C1517 C 0.8716 0.48044 0.87485 0.0
H1518 H 0.88798 0.51608 0.77198 0.0
C1519 C 0.85382 0.49429 0.89256 0.0
H1520 H 0.90018 0.48071 0.81829 0.0
C1521 C 0.84637 0.51385 0.86597 0.0
C1522 C 0.85721 0.52055 0.82156 0.0
H1523 H 0.84252 0.48704 0.92522 0.0
H1524 H 0.82901 0.52045 0.87833 0.0
C1525 C 0.8795 0.51134 0.80639 0.0
C1526 C 0.52947 0.39555 0.83507 0.0
C1527 C 0.54753 0.39286 0.87071 0.0
H1528 H 0.49874 0.37169 0.7778 0.0
C1529 C 0.54297 0.36186 0.8809 0.0
H1530 H 0.53235 0.41898 0.82639 0.0
C1531 C 0.52374 0.33507 0.85361 0.0
C1532 C 0.50821 0.33831 0.81554 0.0
H1533 H 0.55592 0.35855 0.90853 0.0
H1534 H 0.5231 0.31231 0.86031 0.0
C1535 C 0.50992 0.36838 0.8076 0.0
C1536 C 0.49853 0.66259 0.6993 0.0
C1537 C 0.51401 0.66687 0.65784 0.0
H1538 H 0.49101 0.68519 0.75625 0.0
C1539 C 0.53933 0.69812 0.64634 0.0
H1540 H 0.47884 0.63886 0.70889 0.0
C1541 C 0.54591 0.72523 0.67315 0.0
C1542 C 0.5274 0.72119 0.71188 0.0
H1543 H 0.5513 0.70213 0.61414 0.0
H1544 H 0.56322 0.74937 0.66142 0.0
C1545 C 0.50524 0.68936 0.72608 0.0
C1546 C 0.33828 0.84538 0.69574 0.0
C1547 C 0.33354 0.85243 0.65171 0.0
H1548 H 0.31595 0.81877 0.75522 0.0
C1549 C 0.30209 0.84459 0.63782 0.0
H1550 H 0.36222 0.85097 0.7071 0.0
C1551 C 0.27513 0.82493 0.66485 0.0
C1552 C 0.27975 0.81369 0.70625 0.0
H1553 H 0.29794 0.84982 0.60378 0.0
H1554 H 0.25092 0.81556 0.65117 0.0
C1555 C 0.31161 0.82648 0.72299 0.0
C1556 C 0.17724 0.47528 0.64013 0.0
C1557 C 0.17665 0.50407 0.64969 0.0
H1558 H 0.1992 0.4461 0.65543 0.0
C1559 C 0.19356 0.52245 0.68739 0.0
H1560 H 0.16496 0.46108 0.61051 0.0
C1561 C 0.21317 0.51421 0.71243 0.0
C1562 C 0.21664 0.48737 0.70049 0.0
H1563 H 0.19382 0.54488 0.69526 0.0
H1564 H 0.22737 0.53039 0.73948 0.0
C1565 C 0.19714 0.46691 0.66547 0.0
C1566 C 0.36558 0.85167 0.09636 0.0
C1567 C 0.39765 0.87083 0.11227 0.0
H1568 H 0.31515 0.82667 0.11328 0.0
C1569 C 0.40297 0.88785 0.15287 0.0
H1570 H 0.36074 0.83874 0.06474 0.0
C1571 C 0.37646 0.88162 0.18017 0.0
C1572 C 0.34473 0.85802 0.16728 0.0
H1573 H 0.42739 0.9028 0.16587 0.0
H1574 H 0.38113 0.89191 0.21372 0.0
C1575 C 0.33932 0.84507 0.12383 0.0
C1576 C 0.17501 0.52899 0.09568 0.0
C1577 C 0.15222 0.53785 0.10977 0.0
H1578 H 0.20227 0.50583 0.11281 0.0
C1579 C 0.13382 0.52309 0.14848 0.0
H1580 H 0.1892 0.53929 0.06556 0.0
C1581 C 0.14096 0.50299 0.17526 0.0
C1582 C 0.16671 0.49775 0.16372 0.0
H1583 H 0.11604 0.5293 0.16012 0.0
H1584 H 0.12894 0.49472 0.20737 0.0
C1585 C 0.18226 0.50936 0.12241 0.0
C1586 C 0.48537 0.66906 0.13581 0.0
C1587 C 0.50324 0.66775 0.17245 0.0
H1588 H 0.4506 0.64307 0.08468 0.0
C1589 C 0.50323 0.63851 0.18081 0.0
H1590 H 0.48461 0.69108 0.12886 0.0
C1591 C 0.48314 0.61028 0.15539 0.0
C1592 C 0.46275 0.61104 0.12157 0.0
H1593 H 0.5162 0.63664 0.20961 0.0
H1594 H 0.48174 0.58753 0.16442 0.0
C1595 C 0.46546 0.64121 0.11083 0.0
C1596 C 0.17444 0.65043 0.59618 0.0
C1597 C 0.15243 0.61864 0.61068 0.0
H1598 H 0.20048 0.70106 0.61268 0.0
C1599 C 0.13382 0.61473 0.64926 0.0
H1600 H 0.18876 0.65451 0.56613 0.0
C1601 C 0.14015 0.64198 0.67561 0.0
C1602 C 0.16529 0.67325 0.66381 0.0
H1603 H 0.1166 0.59063 0.66123 0.0
H1604 H 0.12812 0.6381 0.70775 0.0
C1605 C 0.18087 0.67733 0.62247 0.0
C1606 C 0.37873 0.49525 0.68165 0.0
C1607 C 0.34724 0.48722 0.6677 0.0
H1608 H 0.42986 0.52471 0.66843 0.0
C1609 C 0.34239 0.49386 0.62351 0.0
H1610 H 0.38293 0.49022 0.71577 0.0
C1611 C 0.36902 0.51274 0.59618 0.0
C1612 C 0.40088 0.52599 0.6131 0.0
H1613 H 0.31839 0.48804 0.61206 0.0
H1614 H 0.36461 0.52024 0.56383 0.0
C1615 C 0.40563 0.51499 0.65461 0.0
C1616 C 0.50295 0.86431 0.68131 0.0
C1617 C 0.50347 0.83541 0.67225 0.0
H1618 H 0.48128 0.89361 0.66512 0.0
C1619 C 0.48661 0.81687 0.63461 0.0
H1620 H 0.51518 0.87865 0.71086 0.0
C1621 C 0.46719 0.82512 0.60907 0.0
C1622 C 0.46384 0.85212 0.62048 0.0
H1623 H 0.48629 0.79436 0.6271 0.0
H1624 H 0.45309 0.80889 0.58199 0.0
C1625 C 0.48325 0.87267 0.65549 0.0
C1626 C 0.31084 0.48675 0.22351 0.0
C1627 C 0.27883 0.46857 0.20696 0.0
H1628 H 0.36141 0.51105 0.20735 0.0
C1629 C 0.27345 0.4523 0.16572 0.0
H1630 H 0.31569 0.49908 0.25563 0.0
C1631 C 0.29999 0.45846 0.13856 0.0
C1632 C 0.33182 0.48123 0.15223 0.0
H1633 H 0.24908 0.43807 0.15224 0.0
H1634 H 0.29539 0.44874 0.10469 0.0
C1635 C 0.33716 0.49327 0.19619 0.0
C1636 C 0.5439 0.81912 0.17365 0.0
C1637 C 0.52548 0.8047 0.21247 0.0
H1638 H 0.54885 0.84703 0.11425 0.0
C1639 C 0.50291 0.81391 0.2263 0.0
H1640 H 0.56152 0.81264 0.16218 0.0
C1641 C 0.49578 0.83346 0.19913 0.0
C1642 C 0.51126 0.84463 0.15766 0.0
H1643 H 0.48872 0.80386 0.2565 0.0
H1644 H 0.47582 0.83714 0.20847 0.0
C1645 C 0.5369 0.83914 0.14646 0.0
C1646 C 0.19461 0.7321 0.16546 0.0
C1647 C 0.21354 0.73028 0.20059 0.0
H1648 H 0.16273 0.70689 0.10968 0.0
C1649 C 0.20923 0.69955 0.21188 0.0
H1650 H 0.19731 0.75533 0.15593 0.0
C1651 C 0.18937 0.6721 0.18609 0.0
C1652 C 0.17304 0.67442 0.14827 0.0
H1653 H 0.22295 0.69693 0.23903 0.0
H1654 H 0.18903 0.64958 0.19345 0.0
C1655 C 0.17449 0.70427 0.13937 0.0
C1656 C 0.1629 0.14893 0.2843 0.0
C1657 C 0.15457 0.17339 0.28763 0.0
H1658 H 0.18163 0.12521 0.24215 0.0
C1659 C 0.15645 0.19102 0.24856 0.0
H1660 H 0.1632 0.13591 0.31387 0.0
C1661 C 0.16851 0.18608 0.20821 0.0
C1662 C 0.1777 0.16235 0.2052 0.0
H1663 H 0.1512 0.21073 0.25028 0.0
H1664 H 0.17164 0.20154 0.1797 0.0
C1665 C 0.17401 0.14322 0.24331 0.0
C1666 C 0.8378 0.97314 0.24302 0.0
C1667 C 0.83486 0.98912 0.2811 0.0
H1668 H 0.84787 0.97596 0.17226 0.0
C1669 C 0.8446 0.02216 0.27791 0.0
H1670 H 0.82972 0.94741 0.24441 0.0
C1671 C 0.85659 0.03882 0.23738 0.0
C1672 C 0.85768 0.02254 0.19837 0.0
H1673 H 0.84202 0.03487 0.30643 0.0
H1674 H 0.8623 0.06393 0.23548 0.0
C1675 C 0.84875 0.98961 0.20184 0.0
C1676 C 0.0227 0.85017 0.20749 0.0
C1677 C 0.99024 0.82582 0.20118 0.0
H1678 H 0.06195 0.87588 0.25423 0.0
C1679 C 0.97195 0.80902 0.23914 0.0
H1680 H 0.03833 0.86153 0.17931 0.0
C1681 C 0.98622 0.81542 0.28196 0.0
C1682 C 0.01862 0.83986 0.28801 0.0
H1683 H 0.94713 0.78936 0.23521 0.0
H1684 H 0.97236 0.80035 0.30995 0.0
C1685 C 0.03645 0.85784 0.25063 0.0
C1686 C 0.85737 0.82217 0.73754 0.0
C1687 C 0.85785 0.83923 0.69854 0.0
H1688 H 0.84368 0.81193 0.80695 0.0
C1689 C 0.84883 0.86314 0.70233 0.0
H1690 H 0.86315 0.80283 0.73542 0.0
C1691 C 0.83834 0.86884 0.74381 0.0
C1692 C 0.83594 0.85019 0.78192 0.0
H1693 H 0.8475 0.87568 0.67281 0.0
H1694 H 0.83012 0.88637 0.74542 0.0
C1695 C 0.84586 0.82704 0.77842 0.0
C1696 C 0.16724 0.98864 0.7081 0.0
C1697 C 0.17687 0.02166 0.70492 0.0
H1698 H 0.15034 0.94701 0.75071 0.0
C1699 C 0.17441 0.03769 0.74329 0.0
H1700 H 0.16947 0.97587 0.67937 0.0
C1701 C 0.16407 0.02132 0.78466 0.0
C1702 C 0.15531 0.98843 0.78811 0.0
H1703 H 0.18242 0.06341 0.74194 0.0
H1704 H 0.16528 0.03503 0.81435 0.0
C1705 C 0.15593 0.97208 0.74888 0.0
C1706 C 0.9737 0.15236 0.73858 0.0
C1707 C 0.9917 0.16843 0.70023 0.0
H1708 H 0.97276 0.15058 0.81021 0.0
C1709 C 0.02481 0.19121 0.70505 0.0
H1710 H 0.94777 0.13577 0.73592 0.0
C1711 C 0.03964 0.19775 0.74752 0.0
C1712 C 0.02132 0.18292 0.78631 0.0
H1713 H 0.03885 0.20511 0.67642 0.0
H1714 H 0.06503 0.21623 0.75046 0.0
C1715 C 0.98816 0.16029 0.78132 0.0
C1716 C 0.82986 0.52925 0.58373 0.0
C1717 C 0.82641 0.51047 0.6222 0.0
H1718 H 0.84586 0.54018 0.51527 0.0
C1719 C 0.83256 0.48457 0.61804 0.0
H1720 H 0.82609 0.54991 0.586 0.0
C1721 C 0.8431 0.4785 0.57693 0.0
C1722 C 0.84847 0.49873 0.53959 0.0
H1723 H 0.83171 0.47057 0.64695 0.0
H1724 H 0.849 0.45925 0.57509 0.0
C1725 C 0.84147 0.52396 0.54329 0.0
C1726 C 0.50583 0.30651 0.57678 0.0
C1727 C 0.50399 0.32291 0.61513 0.0
H1728 H 0.5153 0.30904 0.50588 0.0
C1729 C 0.51538 0.35634 0.61227 0.0
H1730 H 0.49649 0.28052 0.57788 0.0
C1731 C 0.52768 0.37292 0.57171 0.0
C1732 C 0.52758 0.35625 0.53244 0.0
H1733 H 0.51368 0.36942 0.64101 0.0
H1734 H 0.53451 0.39835 0.57001 0.0
C1735 C 0.51716 0.32294 0.53566 0.0
C1736 C 0.68856 0.186 0.54189 0.0
C1737 C 0.65608 0.1616 0.53574 0.0
H1738 H 0.72775 0.21183 0.58878 0.0
C1739 C 0.63732 0.14605 0.57393 0.0
H1740 H 0.70419 0.1971 0.51341 0.0
C1741 C 0.65125 0.15324 0.617 0.0
C1742 C 0.68395 0.17699 0.62292 0.0
H1743 H 0.6124 0.12659 0.57011 0.0
H1744 H 0.63699 0.13901 0.64532 0.0
C1745 C 0.70215 0.19417 0.5852 0.0
C1746 C 0.50325 0.18336 0.04021 0.0
C1747 C 0.51105 0.15871 0.03475 0.0
H1748 H 0.49017 0.20978 0.08618 0.0
C1749 C 0.51359 0.14295 0.07331 0.0
H1750 H 0.49896 0.19448 0.01147 0.0
C1751 C 0.50669 0.15037 0.11603 0.0
C1752 C 0.49831 0.17459 0.12125 0.0
H1753 H 0.51877 0.12326 0.07003 0.0
H1754 H 0.50629 0.13607 0.14462 0.0
C1755 C 0.49776 0.1918 0.08318 0.0
C1756 C 0.85417 0.3724 0.07454 0.0
C1757 C 0.83714 0.35583 0.03537 0.0
H1758 H 0.86521 0.36878 0.1437 0.0
C1759 C 0.81406 0.3226 0.03869 0.0
H1760 H 0.87293 0.39776 0.07275 0.0
C1761 C 0.80916 0.30616 0.07981 0.0
C1762 C 0.82784 0.32244 0.11801 0.0
H1763 H 0.80166 0.30875 0.009 0.0
H1764 H 0.79225 0.28023 0.08101 0.0
C1765 C 0.85012 0.35578 0.11506 0.0
C1766 C 0.69055 0.52244 0.04273 0.0
C1767 C 0.65827 0.49744 0.03848 0.0
H1768 H 0.73167 0.54799 0.08619 0.0
C1769 C 0.64304 0.47726 0.07567 0.0
H1770 H 0.70264 0.53864 0.01483 0.0
C1771 C 0.65938 0.48312 0.11714 0.0
C1772 C 0.6915 0.50875 0.12178 0.0
H1773 H 0.61784 0.4582 0.0734 0.0
H1774 H 0.646 0.46918 0.14592 0.0
C1775 C 0.70718 0.5275 0.08351 0.0
C1776 C 0.48769 0.85131 0.91462 0.0
C1777 C 0.48719 0.8345 0.9539 0.0
H1778 H 0.50177 0.86145 0.84533 0.0
C1779 C 0.49674 0.81094 0.95071 0.0
H1780 H 0.48154 0.8704 0.91627 0.0
C1781 C 0.50768 0.80532 0.90955 0.0
C1782 C 0.50999 0.82369 0.87115 0.0
H1783 H 0.4981 0.79864 0.98048 0.0
H1784 H 0.51625 0.78806 0.90841 0.0
C1785 C 0.49964 0.84653 0.87407 0.0
C1786 C 0.18093 0.65761 0.87064 0.0
C1787 C 0.1883 0.69013 0.86738 0.0
H1788 H 0.16313 0.61519 0.91261 0.0
C1789 C 0.1857 0.7055 0.90644 0.0
H1790 H 0.1812 0.64453 0.84112 0.0
C1791 C 0.17384 0.68831 0.94667 0.0
C1792 C 0.16554 0.65563 0.94956 0.0
H1793 H 0.19029 0.73025 0.9048 0.0
H1794 H 0.17018 0.70031 0.97518 0.0
C1795 C 0.17001 0.64064 0.91151 0.0
C1796 C 0.31976 0.48086 0.94981 0.0
C1797 C 0.35199 0.5055 0.95648 0.0
H1798 H 0.28125 0.45482 0.90229 0.0
C1799 C 0.36999 0.52411 0.91961 0.0
H1800 H 0.30576 0.46549 0.97749 0.0
C1801 C 0.35667 0.51673 0.87623 0.0
C1802 C 0.32447 0.49197 0.86923 0.0
H1803 H 0.39535 0.54241 0.92376 0.0
H1804 H 0.37248 0.52867 0.84842 0.0
C1805 C 0.30591 0.47468 0.90675 0.0
C1806 C 0.17971 0.4934 0.44725 0.0
C1807 C 0.16961 0.5164 0.45094 0.0
H1808 H 0.1971 0.46941 0.40401 0.0
C1809 C 0.17173 0.53499 0.41289 0.0
H1810 H 0.17772 0.47832 0.47573 0.0
C1811 C 0.18221 0.52942 0.3713 0.0
C1812 C 0.19143 0.50566 0.36734 0.0
H1813 H 0.16334 0.55238 0.41464 0.0
H1814 H 0.18071 0.54191 0.34183 0.0
C1815 C 0.19118 0.48864 0.40626 0.0
C1816 C 0.49013 0.63563 0.41477 0.0
C1817 C 0.48925 0.65156 0.45429 0.0
H1818 H 0.50387 0.64009 0.34527 0.0
C1819 C 0.49775 0.68441 0.45137 0.0
H1820 H 0.48474 0.6106 0.41617 0.0
C1821 C 0.50808 0.70114 0.41024 0.0
C1822 C 0.5108 0.68553 0.37158 0.0
H1823 H 0.4988 0.69783 0.48127 0.0
H1824 H 0.5159 0.72683 0.40932 0.0
C1825 C 0.50142 0.65254 0.37423 0.0
C1826 C 0.32146 0.82693 0.44699 0.0
C1827 C 0.3551 0.84718 0.45207 0.0
H1828 H 0.28104 0.80474 0.4013 0.0
C1829 C 0.37417 0.86013 0.41332 0.0
H1830 H 0.30581 0.81884 0.47587 0.0
C1831 C 0.3597 0.85415 0.37064 0.0
C1832 C 0.32611 0.83369 0.36569 0.0
H1833 H 0.40003 0.87692 0.41638 0.0
H1834 H 0.37454 0.86688 0.34195 0.0
C1835 C 0.30723 0.81944 0.40413 0.0
C1836 C 0.33822 0.18808 0.12356 0.0
C1837 C 0.30939 0.16682 0.14625 0.0
H1838 H 0.38996 0.2089 0.12012 0.0
C1839 C 0.3113 0.15007 0.18409 0.0
H1840 H 0.33763 0.20136 0.09434 0.0
C1841 C 0.34119 0.1544 0.19889 0.0
C1842 C 0.37003 0.17559 0.17624 0.0
H1843 H 0.28962 0.13352 0.20246 0.0
H1844 H 0.34165 0.14105 0.22811 0.0
C1845 C 0.36821 0.1924 0.13839 0.0
C1846 C 0.81636 0.17562 0.14335 0.0
C1847 C 0.83464 0.19593 0.17923 0.0
H1848 H 0.80611 0.13479 0.10172 0.0
C1849 C 0.85695 0.18949 0.20151 0.0
H1850 H 0.79887 0.17978 0.1255 0.0
C1851 C 0.86112 0.16352 0.18777 0.0
C1852 C 0.84299 0.14343 0.15157 0.0
H1853 H 0.87135 0.20462 0.22933 0.0
H1854 H 0.87872 0.15937 0.20527 0.0
C1855 C 0.82045 0.14971 0.12974 0.0
C1856 C 0.83202 0.64255 0.13279 0.0
C1857 C 0.8131 0.64131 0.1697 0.0
H1858 H 0.87164 0.67246 0.0893 0.0
C1859 C 0.81986 0.67058 0.19081 0.0
H1860 H 0.82741 0.62046 0.11576 0.0
C1861 C 0.84523 0.70038 0.17573 0.0
C1862 C 0.86436 0.7016 0.13912 0.0
H1863 H 0.80573 0.6705 0.21935 0.0
H1864 H 0.84998 0.72244 0.19301 0.0
C1865 C 0.85735 0.67237 0.11763 0.0
C1866 C 0.19432 0.36731 0.34969 0.0
C1867 C 0.17531 0.36937 0.31495 0.0
H1868 H 0.20537 0.33648 0.38949 0.0
C1869 C 0.15224 0.34057 0.29336 0.0
H1870 H 0.21238 0.38901 0.36693 0.0
C1871 C 0.1483 0.31043 0.30617 0.0
C1872 C 0.16735 0.30839 0.34088 0.0
H1873 H 0.13727 0.34129 0.26635 0.0
H1874 H 0.13026 0.28873 0.28892 0.0
C1875 C 0.19038 0.33718 0.36251 0.0
C1876 C 0.67032 0.81907 0.28861 0.0
C1877 C 0.64187 0.81232 0.31155 0.0
H1878 H 0.72207 0.84877 0.28461 0.0
C1879 C 0.64445 0.83137 0.34935 0.0
H1880 H 0.66922 0.80488 0.25944 0.0
C1881 C 0.67476 0.85655 0.36386 0.0
C1882 C 0.70322 0.86328 0.34094 0.0
H1883 H 0.62302 0.82683 0.36788 0.0
H1884 H 0.67586 0.87073 0.39304 0.0
C1885 C 0.70063 0.84424 0.30313 0.0
C1886 C 0.18097 0.81758 0.34998 0.0
C1887 C 0.1986 0.83404 0.31155 0.0
H1888 H 0.14285 0.80922 0.3956 0.0
C1889 C 0.19081 0.85548 0.28956 0.0
H1890 H 0.18644 0.80099 0.36779 0.0
C1891 C 0.16587 0.86027 0.30556 0.0
C1892 C 0.14818 0.84375 0.34392 0.0
H1893 H 0.20398 0.86861 0.25991 0.0
H1894 H 0.16037 0.87683 0.28772 0.0
C1895 C 0.15604 0.82239 0.366 0.0
C1896 C 0.67578 0.82115 0.86441 0.0
C1897 C 0.70414 0.84336 0.84169 0.0
H1898 H 0.62395 0.79801 0.86796 0.0
C1899 C 0.7013 0.85956 0.80384 0.0
H1900 H 0.67709 0.80823 0.8936 0.0
C1901 C 0.67082 0.85368 0.78904 0.0
C1902 C 0.64246 0.83145 0.81175 0.0
H1903 H 0.72267 0.8768 0.78549 0.0
H1904 H 0.6695 0.86658 0.75983 0.0
C1905 C 0.64531 0.81527 0.84961 0.0
C1906 C 0.15432 0.8194 0.79157 0.0
C1907 C 0.17706 0.81325 0.81321 0.0
H1908 H 0.13303 0.84986 0.78712 0.0
C1909 C 0.19636 0.83434 0.84781 0.0
H1910 H 0.13915 0.80374 0.76466 0.0
C1911 C 0.19294 0.86089 0.86056 0.0
C1912 C 0.17015 0.867 0.83902 0.0
H1913 H 0.21419 0.8304 0.86508 0.0
H1914 H 0.20809 0.87653 0.88752 0.0
C1915 C 0.1509 0.84595 0.80434 0.0
C1916 C 0.19104 0.33892 0.78895 0.0
C1917 C 0.1991 0.36834 0.81072 0.0
H1918 H 0.1601 0.28715 0.78724 0.0
C1919 C 0.18126 0.36754 0.84871 0.0
H1920 H 0.20435 0.33867 0.75962 0.0
C1921 C 0.15593 0.33797 0.8646 0.0
C1922 C 0.14789 0.30855 0.84285 0.0
H1923 H 0.1869 0.38974 0.86632 0.0
H1924 H 0.14263 0.33821 0.89394 0.0
C1925 C 0.16572 0.30936 0.80483 0.0
C1926 C 0.86101 0.7015 0.68334 0.0
C1927 C 0.8419 0.70305 0.64836 0.0
H1928 H 0.87251 0.67136 0.72382 0.0
C1929 C 0.8189 0.67398 0.62724 0.0
H1930 H 0.87901 0.72341 0.70025 0.0
C1931 C 0.81522 0.64405 0.64069 0.0
C1932 C 0.83448 0.64256 0.67553 0.0
H1933 H 0.80386 0.67434 0.60007 0.0
H1934 H 0.79732 0.6221 0.62375 0.0
C1935 C 0.85735 0.67162 0.69675 0.0
C1936 C 0.33616 0.15409 0.61956 0.0
C1937 C 0.30786 0.14753 0.64279 0.0
H1938 H 0.38792 0.18355 0.61518 0.0
C1939 C 0.3107 0.16676 0.68047 0.0
H1940 H 0.33486 0.13976 0.59045 0.0
C1941 C 0.34111 0.19186 0.69471 0.0
C1942 C 0.36943 0.19834 0.67161 0.0
H1943 H 0.28939 0.16238 0.69918 0.0
H1944 H 0.34241 0.20612 0.7239 0.0
C1945 C 0.36659 0.1792 0.63381 0.0
C1946 C 0.85385 0.18645 0.62343 0.0
C1947 C 0.8617 0.16508 0.64547 0.0
H1948 H 0.82344 0.20778 0.62143 0.0
C1949 C 0.84382 0.14839 0.68367 0.0
H1950 H 0.86715 0.19974 0.59395 0.0
C1951 C 0.81872 0.15306 0.69951 0.0
C1952 C 0.81098 0.17454 0.67752 0.0
H1953 H 0.8493 0.13181 0.70149 0.0
H1954 H 0.80541 0.13986 0.72904 0.0
C1955 C 0.8288 0.19112 0.63925 0.0
C1956 C 0.03523 0.52457 0.47278 0.0
C1957 C 0.03766 0.50834 0.51083 0.0
H1958 H 1.00412 0.5322 0.42847 0.0
C1959 C 0.0091 0.48633 0.53337 0.0
H1960 H 0.05672 0.54163 0.4545 0.0
C1961 C 0.97878 0.48086 0.51829 0.0
C1962 C 0.97645 0.49729 0.48036 0.0
H1963 H 0.01014 0.47339 0.56272 0.0
H1964 H 0.95722 0.46393 0.53655 0.0
C1965 C 1.00502 0.51911 0.45773 0.0
C1966 C 0.52798 0.52469 0.52573 0.0
C1967 C 0.50475 0.53024 0.50438 0.0
H1968 H 0.55027 0.49515 0.52982 0.0
C1969 C 0.48579 0.50913 0.46956 0.0
H1970 H 0.54294 0.54039 0.55277 0.0
C1971 C 0.48994 0.48306 0.45648 0.0
C1972 C 0.51313 0.47749 0.47793 0.0
H1973 H 0.46762 0.51264 0.45249 0.0
H1974 H 0.47498 0.46731 0.42948 0.0
C1975 C 0.53211 0.49865 0.51267 0.0
C1976 C 0.5162 0.03072 0.51694 0.0
C1977 C 0.53433 0.03189 0.47907 0.0
H1978 H 0.47728 1.00112 0.56149 0.0
C1979 C 0.52663 1.00263 0.45712 0.0
H1980 H 0.52152 0.05278 0.53471 0.0
C1981 C 0.50118 0.97289 0.47255 0.0
C1982 C 0.48294 0.97181 0.51027 0.0
H1983 H 0.54016 1.00268 0.42787 0.0
H1984 H 0.49569 0.9508 0.45474 0.0
C1985 C 0.49083 1.00106 0.53235 0.0
C1986 C 0.52624 0.02899 0.00934 0.0
C1987 C 0.50761 0.03033 0.97347 0.0
H1988 H 0.53742 0.9991 0.05107 0.0
C1989 C 0.48573 1.00124 0.95138 0.0
H1990 H 0.54338 0.05093 0.02703 0.0
C1991 C 0.48232 0.97147 0.96517 0.0
C1992 C 0.50076 0.97011 0.0013 0.0
H1993 H 0.47105 1.0014 0.92356 0.0
H1994 H 0.46502 0.94949 0.9477 0.0
C1995 C 0.52288 0.99925 0.02306 0.0
C1996 C 1.0014 0.48177 0.96344 0.0
C1997 C 0.97284 0.47597 0.9853 0.0
H1998 H 0.05313 0.51114 0.95924 0.0
C1999 C 0.97539 0.49615 0.02163 0.0
H2000 H 1.00038 0.46676 0.93535 0.0
C2001 C 1.00579 0.52171 0.03545 0.0
C2002 C 0.0343 0.52772 0.01316 0.0
H2003 H 0.95388 0.49237 0.03922 0.0
H2004 H 0.00691 0.53693 0.06332 0.0
C2005 C 0.03171 0.50731 0.97715 0.0
C2006 C 0.51191 0.47994 0.0168 0.0
C2007 C 0.52982 0.49643 0.97855 0.0
H2008 H 0.474 0.47208 0.06243 0.0
C2009 C 0.52255 0.51825 0.95664 0.0
H2010 H 0.51696 0.46304 0.03456 0.0
C2011 C 0.49791 0.52351 0.97273 0.0
C2012 C 0.48008 0.50708 0.01109 0.0
H2013 H 0.53599 0.5314 0.92716 0.0
H2014 H 0.49282 0.54042 0.95508 0.0
C2015 C 0.48734 0.48522 0.03289 0.0
loop_
_geom_bond_atom_site_label_1
_geom_bond_atom_site_label_2
_geom_bond_distance
_geom_bond_site_symmetry_2
_ccdc_geom_bond_type
Mn0 O5 2.095 . S
Mn0 O15 2.162 . S
Mn0 O16 2.297 . S
Mn0 O24 2.385 . S
Mn0 O25 2.209 . S
Mn0 O26 2.094 . S
Mn1 O6 2.121 . S
Mn1 N8 2.257 . S
Mn1 N17 2.282 . S
Mn1 O25 2.215 . S
Mn1 O27 2.117 . S
C2 O24 1.234 . S
C2 O25 1.283 . S
C3 O15 1.281 . S
C3 O16 1.236 . S
C4 O26 1.240 . S
C4 O27 1.264 . S
O5 Mn0 2.095 . S
O5 C14 1.250 . S
O6 Mn1 2.121 . S
O6 C14 1.258 . S
C7 N8 1.326 . S
C7 C11 1.460 . S
C7 H13 0.929 . S
N8 Mn1 2.257 . S
N8 C7 1.326 . S
N8 C12 1.362 . S
C9 C10 1.258 . S
C9 C12 1.431 . S
C9 C29 1.449 . S
C10 C9 1.258 . S
C10 C11 1.477 . S
C10 H30 0.931 . S
C11 C7 1.460 . S
C11 C10 1.477 . S
C11 H31 0.930 1_545 S
C12 N8 1.362 . S
C12 C9 1.431 . S
C12 C22 1.476 . S
H13 C7 0.929 . S
C14 O5 1.250 . S
C14 O6 1.258 . S
O15 Mn0 2.162 . S
O15 C3 1.281 . S
O16 Mn0 2.297 . S
O16 C3 1.236 . S
N17 Mn1 2.282 . S
N17 C18 1.328 . S
N17 C22 1.318 . S
C18 N17 1.328 . S
C18 C19 1.457 . S
C18 H23 0.929 . S
C19 C18 1.457 . S
C19 C20 1.291 . S
C19 H32 0.931 . S
C20 C19 1.291 . S
C20 C21 1.373 . S
C20 H33 0.929 . S
C21 C20 1.373 . S
C21 C22 1.396 . S
C21 C28 1.403 . S
C22 C12 1.476 . S
C22 N17 1.318 . S
C22 C21 1.396 . S
H23 C18 0.929 . S
O24 Mn0 2.385 . S
O24 C2 1.234 . S
O25 Mn0 2.209 . S
O25 Mn1 2.215 . S
O25 C2 1.283 . S
O26 Mn0 2.094 . S
O26 C4 1.240 . S
O27 Mn1 2.117 . S
O27 C4 1.264 . S
C28 C21 1.403 . S
C28 C29 1.399 . S
C28 H34 0.929 . S
C29 C9 1.449 . S
C29 C28 1.399 . S
C29 H35 0.930 . S
H30 C10 0.931 . S
H31 C11 0.930 1_565 S
H32 C19 0.931 . S
H33 C20 0.929 . S
H34 C28 0.929 . S
H35 C29 0.930 . S
Mn36 O41 2.095 . S
Mn36 O51 2.162 . S
Mn36 O52 2.297 . S
Mn36 O60 2.385 . S
Mn36 O61 2.209 . S
Mn36 O62 2.094 . S
Mn37 O42 2.121 . S
Mn37 N44 2.257 . S
Mn37 N53 2.282 1_545 S
Mn37 O61 2.215 . S
Mn37 O63 2.117 . S
C38 O60 1.234 . S
C38 O61 1.283 . S
C39 O51 1.281 . S
C39 O52 1.236 . S
C40 O62 1.240 . S
C40 O63 1.264 . S
O41 Mn36 2.095 . S
O41 C50 1.250 . S
O42 Mn37 2.121 . S
O42 C50 1.258 . S
C43 N44 1.326 . S
C43 C47 1.460 . S
C43 H49 0.929 . S
N44 Mn37 2.257 . S
N44 C43 1.326 . S
N44 C48 1.362 . S
C45 C46 1.258 . S
C45 C48 1.431 . S
C45 C65 1.449 1_545 S
C46 C45 1.258 . S
C46 C47 1.477 . S
C46 H66 0.931 . S
C47 C43 1.460 . S
C47 C46 1.477 . S
C47 H67 0.930 1_655 S
C48 N44 1.362 . S
C48 C45 1.431 . S
C48 C58 1.476 1_545 S
H49 C43 0.929 . S
C50 O41 1.250 . S
C50 O42 1.258 . S
O51 Mn36 2.162 . S
O51 C39 1.281 . S
O52 Mn36 2.297 . S
O52 C39 1.236 . S
N53 Mn37 2.282 1_565 S
N53 C54 1.328 . S
N53 C58 1.318 . S
C54 N53 1.328 . S
C54 C55 1.457 . S
C54 H59 0.929 . S
C55 C54 1.457 . S
C55 C56 1.291 . S
C55 H68 0.931 . S
C56 C55 1.291 . S
C56 C57 1.373 . S
C56 H69 0.929 . S
C57 C56 1.373 . S
C57 C58 1.396 . S
C57 C64 1.403 . S
C58 C48 1.476 1_565 S
C58 N53 1.318 . S
C58 C57 1.396 . S
H59 C54 0.929 . S
O60 Mn36 2.385 . S
O60 C38 1.234 . S
O61 Mn36 2.209 . S
O61 Mn37 2.215 . S
O61 C38 1.283 . S
O62 Mn36 2.094 . S
O62 C40 1.240 . S
O63 Mn37 2.117 . S
O63 C40 1.264 . S
C64 C57 1.403 . S
C64 C65 1.399 . S
C64 H70 0.929 . S
C65 C45 1.449 1_565 S
C65 C64 1.399 . S
C65 H71 0.930 . S
H66 C46 0.931 . S
H67 C47 0.930 1_455 S
H68 C55 0.931 . S
H69 C56 0.929 . S
H70 C64 0.929 . S
H71 C65 0.930 . S
Mn72 O77 2.095 . S
Mn72 O87 2.162 . S
Mn72 O88 2.297 . S
Mn72 O96 2.385 . S
Mn72 O97 2.209 . S
Mn72 O98 2.094 . S
Mn73 O78 2.121 . S
Mn73 N80 2.257 . S
Mn73 N89 2.282 1_655 S
Mn73 O97 2.215 . S
Mn73 O99 2.117 . S
C74 O96 1.234 . S
C74 O97 1.283 . S
C75 O87 1.281 . S
C75 O88 1.236 . S
C76 O98 1.240 . S
C76 O99 1.264 . S
O77 Mn72 2.095 . S
O77 C86 1.250 . S
O78 Mn73 2.121 . S
O78 C86 1.258 . S
C79 N80 1.326 . S
C79 C83 1.460 . S
C79 H85 0.929 . S
N80 Mn73 2.257 . S
N80 C79 1.326 . S
N80 C84 1.362 . S
C81 C82 1.258 . S
C81 C84 1.431 . S
C81 C101 1.449 1_655 S
C82 C81 1.258 . S
C82 C83 1.477 . S
C82 H102 0.931 . S
C83 C79 1.460 . S
C83 C82 1.477 . S
C83 H103 0.930 . S
C84 N80 1.362 . S
C84 C81 1.431 . S
C84 C94 1.476 1_655 S
H85 C79 0.929 . S
C86 O77 1.250 . S
C86 O78 1.258 . S
O87 Mn72 2.162 . S
O87 C75 1.281 . S
O88 Mn72 2.297 . S
O88 C75 1.236 . S
N89 Mn73 2.282 1_455 S
N89 C90 1.328 . S
N89 C94 1.318 . S
C90 N89 1.328 . S
C90 C91 1.457 . S
C90 H95 0.929 . S
C91 C90 1.457 . S
C91 C92 1.291 . S
C91 H104 0.931 . S
C92 C91 1.291 . S
C92 C93 1.373 . S
C92 H105 0.929 . S
C93 C92 1.373 . S
C93 C94 1.396 . S
C93 C100 1.403 . S
C94 C84 1.476 1_455 S
C94 N89 1.318 . S
C94 C93 1.396 . S
H95 C90 0.929 . S
O96 Mn72 2.385 . S
O96 C74 1.234 . S
O97 Mn72 2.209 . S
O97 Mn73 2.215 . S
O97 C74 1.283 . S
O98 Mn72 2.094 . S
O98 C76 1.240 . S
O99 Mn73 2.117 . S
O99 C76 1.264 . S
C100 C93 1.403 . S
C100 C101 1.399 . S
C100 H106 0.929 . S
C101 C81 1.449 1_455 S
C101 C100 1.399 . S
C101 H107 0.930 . S
H102 C82 0.931 . S
H103 C83 0.930 . S
H104 C91 0.931 . S
H105 C92 0.929 . S
H106 C100 0.929 . S
H107 C101 0.930 . S
Mn108 O113 2.095 . S
Mn108 O123 2.162 . S
Mn108 O124 2.297 . S
Mn108 O132 2.385 . S
Mn108 O133 2.209 . S
Mn108 O134 2.094 . S
Mn109 O114 2.121 . S
Mn109 N116 2.257 . S
Mn109 N125 2.282 . S
Mn109 O133 2.215 . S
Mn109 O135 2.117 . S
C110 O132 1.234 . S
C110 O133 1.283 . S
C111 O123 1.281 . S
C111 O124 1.236 . S
C112 O134 1.240 . S
C112 O135 1.264 . S
O113 Mn108 2.095 . S
O113 C122 1.250 . S
O114 Mn109 2.121 . S
O114 C122 1.258 . S
C115 N116 1.326 . S
C115 C119 1.460 . S
C115 H121 0.929 . S
N116 Mn109 2.257 . S
N116 C115 1.326 . S
N116 C120 1.362 . S
C117 C118 1.258 . S
C117 C120 1.431 . S
C117 C137 1.449 . S
C118 C117 1.258 . S
C118 C119 1.477 . S
C118 H138 0.931 . S
C119 C115 1.460 . S
C119 C118 1.477 . S
C119 H139 0.930 1_455 S
C120 N116 1.362 . S
C120 C117 1.431 . S
C120 C130 1.476 . S
H121 C115 0.929 . S
C122 O113 1.250 . S
C122 O114 1.258 . S
O123 Mn108 2.162 . S
O123 C111 1.281 . S
O124 Mn108 2.297 . S
O124 C111 1.236 . S
N125 Mn109 2.282 . S
N125 C126 1.328 . S
N125 C130 1.318 . S
C126 N125 1.328 . S
C126 C127 1.457 . S
C126 H131 0.929 . S
C127 C126 1.457 . S
C127 C128 1.291 . S
C127 H140 0.931 . S
C128 C127 1.291 . S
C128 C129 1.373 . S
C128 H141 0.929 . S
C129 C128 1.373 . S
C129 C130 1.396 . S
C129 C136 1.403 . S
C130 C120 1.476 . S
C130 N125 1.318 . S
C130 C129 1.396 . S
H131 C126 0.929 . S
O132 Mn108 2.385 . S
O132 C110 1.234 . S
O133 Mn108 2.209 . S
O133 Mn109 2.215 . S
O133 C110 1.283 . S
O134 Mn108 2.094 . S
O134 C112 1.240 . S
O135 Mn109 2.117 . S
O135 C112 1.264 . S
C136 C129 1.403 . S
C136 C137 1.399 . S
C136 H142 0.929 . S
C137 C117 1.449 . S
C137 C136 1.399 . S
C137 H143 0.930 . S
H138 C118 0.931 . S
H139 C119 0.930 1_655 S
H140 C127 0.931 . S
H141 C128 0.929 . S
H142 C136 0.929 . S
H143 C137 0.930 . S
Mn144 O149 2.095 . S
Mn144 O159 2.162 . S
Mn144 O160 2.297 . S
Mn144 O168 2.385 . S
Mn144 O169 2.209 . S
Mn144 O170 2.094 . S
Mn145 O150 2.121 . S
Mn145 N152 2.257 . S
Mn145 N161 2.282 1_565 S
Mn145 O169 2.215 . S
Mn145 O171 2.117 . S
C146 O168 1.234 . S
C146 O169 1.283 . S
C147 O159 1.281 . S
C147 O160 1.236 . S
C148 O170 1.240 . S
C148 O171 1.264 . S
O149 Mn144 2.095 . S
O149 C158 1.250 . S
O150 Mn145 2.121 . S
O150 C158 1.258 . S
C151 N152 1.326 . S
C151 C155 1.460 . S
C151 H157 0.929 . S
N152 Mn145 2.257 . S
N152 C151 1.326 . S
N152 C156 1.362 . S
C153 C154 1.258 . S
C153 C156 1.431 . S
C153 C173 1.449 1_565 S
C154 C153 1.258 . S
C154 C155 1.477 . S
C154 H174 0.931 . S
C155 C151 1.460 . S
C155 C154 1.477 . S
C155 H175 0.930 . S
C156 N152 1.362 . S
C156 C153 1.431 . S
C156 C166 1.476 1_565 S
H157 C151 0.929 . S
C158 O149 1.250 . S
C158 O150 1.258 . S
O159 Mn144 2.162 . S
O159 C147 1.281 . S
O160 Mn144 2.297 . S
O160 C147 1.236 . S
N161 Mn145 2.282 1_545 S
N161 C162 1.328 . S
N161 C166 1.318 . S
C162 N161 1.328 . S
C162 C163 1.457 . S
C162 H167 0.929 . S
C163 C162 1.457 . S
C163 C164 1.291 . S
C163 H176 0.931 . S
C164 C163 1.291 . S
C164 C165 1.373 . S
C164 H177 0.929 . S
C165 C164 1.373 . S
C165 C166 1.396 . S
C165 C172 1.403 . S
C166 C156 1.476 1_545 S
C166 N161 1.318 . S
C166 C165 1.396 . S
H167 C162 0.929 . S
O168 Mn144 2.385 . S
O168 C146 1.234 . S
O169 Mn144 2.209 . S
O169 Mn145 2.215 . S
O169 C146 1.283 . S
O170 Mn144 2.094 . S
O170 C148 1.240 . S
O171 Mn145 2.117 . S
O171 C148 1.264 . S
C172 C165 1.403 . S
C172 C173 1.399 . S
C172 H178 0.929 . S
C173 C153 1.449 1_545 S
C173 C172 1.399 . S
C173 H179 0.930 . S
H174 C154 0.931 . S
H175 C155 0.930 . S
H176 C163 0.931 . S
H177 C164 0.929 . S
H178 C172 0.929 . S
H179 C173 0.930 . S
Mn180 O185 2.095 . S
Mn180 O195 2.162 . S
Mn180 O196 2.297 . S
Mn180 O204 2.385 . S
Mn180 O205 2.209 . S
Mn180 O206 2.094 . S
Mn181 O186 2.121 . S
Mn181 N188 2.257 . S
Mn181 N197 2.282 1_455 S
Mn181 O205 2.215 . S
Mn181 O207 2.117 . S
C182 O204 1.234 . S
C182 O205 1.283 . S
C183 O195 1.281 . S
C183 O196 1.236 . S
C184 O206 1.240 . S
C184 O207 1.264 . S
O185 Mn180 2.095 . S
O185 C194 1.250 . S
O186 Mn181 2.121 . S
O186 C194 1.258 . S
C187 N188 1.326 . S
C187 C191 1.460 . S
C187 H193 0.929 . S
N188 Mn181 2.257 . S
N188 C187 1.326 . S
N188 C192 1.362 . S
C189 C190 1.258 . S
C189 C192 1.431 . S
C189 C209 1.449 1_455 S
C190 C189 1.258 . S
C190 C191 1.477 . S
C190 H210 0.931 . S
C191 C187 1.460 . S
C191 C190 1.477 . S
C191 H211 0.930 1_565 S
C192 N188 1.362 . S
C192 C189 1.431 . S
C192 C202 1.476 1_455 S
H193 C187 0.929 . S
C194 O185 1.250 . S
C194 O186 1.258 . S
O195 Mn180 2.162 . S
O195 C183 1.281 . S
O196 Mn180 2.297 . S
O196 C183 1.236 . S
N197 Mn181 2.282 1_655 S
N197 C198 1.328 . S
N197 C202 1.318 . S
C198 N197 1.328 . S
C198 C199 1.457 . S
C198 H203 0.929 . S
C199 C198 1.457 . S
C199 C200 1.291 . S
C199 H212 0.931 . S
C200 C199 1.291 . S
C200 C201 1.373 . S
C200 H213 0.929 . S
C201 C200 1.373 . S
C201 C202 1.396 . S
C201 C208 1.403 . S
C202 C192 1.476 1_655 S
C202 N197 1.318 . S
C202 C201 1.396 . S
H203 C198 0.929 . S
O204 Mn180 2.385 . S
O204 C182 1.234 . S
O205 Mn180 2.209 . S
O205 Mn181 2.215 . S
O205 C182 1.283 . S
O206 Mn180 2.094 . S
O206 C184 1.240 . S
O207 Mn181 2.117 . S
O207 C184 1.264 . S
C208 C201 1.403 . S
C208 C209 1.399 . S
C208 H214 0.929 . S
C209 C189 1.449 1_655 S
C209 C208 1.399 . S
C209 H215 0.930 . S
H210 C190 0.931 . S
H211 C191 0.930 1_545 S
H212 C199 0.931 . S
H213 C200 0.929 . S
H214 C208 0.929 . S
H215 C209 0.930 . S
Mn216 O221 2.095 . S
Mn216 O231 2.162 . S
Mn216 O232 2.297 . S
Mn216 O240 2.385 . S
Mn216 O241 2.209 . S
Mn216 O242 2.094 . S
Mn217 O222 2.121 . S
Mn217 N224 2.257 . S
Mn217 N233 2.282 . S
Mn217 O241 2.215 . S
Mn217 O243 2.117 . S
C218 O240 1.234 . S
C218 O241 1.283 . S
C219 O231 1.281 . S
C219 O232 1.236 . S
C220 O242 1.240 . S
C220 O243 1.264 . S
O221 Mn216 2.095 . S
O221 C230 1.250 . S
O222 Mn217 2.121 . S
O222 C230 1.258 . S
C223 N224 1.326 . S
C223 C227 1.460 . S
C223 H229 0.929 . S
N224 Mn217 2.257 . S
N224 C223 1.326 . S
N224 C228 1.362 . S
C225 C226 1.258 . S
C225 C228 1.431 . S
C225 C245 1.449 . S
C226 C225 1.258 . S
C226 C227 1.477 . S
C226 H246 0.931 . S
C227 C223 1.460 . S
C227 C226 1.477 . S
C227 H247 0.930 1_565 S
C228 N224 1.362 . S
C228 C225 1.431 . S
C228 C238 1.476 . S
H229 C223 0.929 . S
C230 O221 1.250 . S
C230 O222 1.258 . S
O231 Mn216 2.162 . S
O231 C219 1.281 . S
O232 Mn216 2.297 . S
O232 C219 1.236 . S
N233 Mn217 2.282 . S
N233 C234 1.328 . S
N233 C238 1.318 . S
C234 N233 1.328 . S
C234 C235 1.457 . S
C234 H239 0.929 . S
C235 C234 1.457 . S
C235 C236 1.291 . S
C235 H248 0.931 . S
C236 C235 1.291 . S
C236 C237 1.373 . S
C236 H249 0.929 . S
C237 C236 1.373 . S
C237 C238 1.396 . S
C237 C244 1.403 . S
C238 C228 1.476 . S
C238 N233 1.318 . S
C238 C237 1.396 . S
H239 C234 0.929 . S
O240 Mn216 2.385 . S
O240 C218 1.234 . S
O241 Mn216 2.209 . S
O241 Mn217 2.215 . S
O241 C218 1.283 . S
O242 Mn216 2.094 . S
O242 C220 1.240 . S
O243 Mn217 2.117 . S
O243 C220 1.264 . S
C244 C237 1.403 . S
C244 C245 1.399 . S
C244 H250 0.929 . S
C245 C225 1.449 . S
C245 C244 1.399 . S
C245 H251 0.930 . S
H246 C226 0.931 . S
H247 C227 0.930 1_545 S
H248 C235 0.931 . S
H249 C236 0.929 . S
H250 C244 0.929 . S
H251 C245 0.930 . S
Mn252 O257 2.095 . S
Mn252 O267 2.162 . S
Mn252 O268 2.297 . S
Mn252 O276 2.385 . S
Mn252 O277 2.209 . S
Mn252 O278 2.094 . S
Mn253 O258 2.121 . S
Mn253 N260 2.257 . S
Mn253 N269 2.282 1_565 S
Mn253 O277 2.215 . S
Mn253 O279 2.117 . S
C254 O276 1.234 . S
C254 O277 1.283 . S
C255 O267 1.281 . S
C255 O268 1.236 . S
C256 O278 1.240 . S
C256 O279 1.264 . S
O257 Mn252 2.095 . S
O257 C266 1.250 . S
O258 Mn253 2.121 . S
O258 C266 1.258 . S
C259 N260 1.326 . S
C259 C263 1.460 . S
C259 H265 0.929 . S
N260 Mn253 2.257 . S
N260 C259 1.326 . S
N260 C264 1.362 . S
C261 C262 1.258 . S
C261 C264 1.431 . S
C261 C281 1.449 1_565 S
C262 C261 1.258 . S
C262 C263 1.477 . S
C262 H282 0.931 . S
C263 C259 1.460 . S
C263 C262 1.477 . S
C263 H283 0.930 1_455 S
C264 N260 1.362 . S
C264 C261 1.431 . S
C264 C274 1.476 1_565 S
H265 C259 0.929 . S
C266 O257 1.250 . S
C266 O258 1.258 . S
O267 Mn252 2.162 . S
O267 C255 1.281 . S
O268 Mn252 2.297 . S
O268 C255 1.236 . S
N269 Mn253 2.282 1_545 S
N269 C270 1.328 . S
N269 C274 1.318 . S
C270 N269 1.328 . S
C270 C271 1.457 . S
C270 H275 0.929 . S
C271 C270 1.457 . S
C271 C272 1.291 . S
C271 H284 0.931 . S
C272 C271 1.291 . S
C272 C273 1.373 . S
C272 H285 0.929 . S
C273 C272 1.373 . S
C273 C274 1.396 . S
C273 C280 1.403 . S
C274 C264 1.476 1_545 S
C274 N269 1.318 . S
C274 C273 1.396 . S
H275 C270 0.929 . S
O276 Mn252 2.385 . S
O276 C254 1.234 . S
O277 Mn252 2.209 . S
O277 Mn253 2.215 . S
O277 C254 1.283 . S
O278 Mn252 2.094 . S
O278 C256 1.240 . S
O279 Mn253 2.117 . S
O279 C256 1.264 . S
C280 C273 1.403 . S
C280 C281 1.399 . S
C280 H286 0.929 . S
C281 C261 1.449 1_545 S
C281 C280 1.399 . S
C281 H287 0.930 . S
H282 C262 0.931 . S
H283 C263 0.930 1_655 S
H284 C271 0.931 . S
H285 C272 0.929 . S
H286 C280 0.929 . S
H287 C281 0.930 . S
Mn288 O293 2.095 . S
Mn288 O303 2.162 . S
Mn288 O304 2.297 . S
Mn288 O312 2.385 . S
Mn288 O313 2.209 . S
Mn288 O314 2.094 . S
Mn289 O294 2.121 . S
Mn289 N296 2.257 . S
Mn289 N305 2.282 1_455 S
Mn289 O313 2.215 . S
Mn289 O315 2.117 . S
C290 O312 1.234 . S
C290 O313 1.283 . S
C291 O303 1.281 . S
C291 O304 1.236 . S
C292 O314 1.240 . S
C292 O315 1.264 . S
O293 Mn288 2.095 . S
O293 C302 1.250 . S
O294 Mn289 2.121 . S
O294 C302 1.258 . S
C295 N296 1.326 . S
C295 C299 1.460 . S
C295 H301 0.929 . S
N296 Mn289 2.257 . S
N296 C295 1.326 . S
N296 C300 1.362 . S
C297 C298 1.258 . S
C297 C300 1.431 . S
C297 C317 1.449 1_455 S
C298 C297 1.258 . S
C298 C299 1.477 . S
C298 H318 0.931 . S
C299 C295 1.460 . S
C299 C298 1.477 . S
C299 H319 0.930 . S
C300 N296 1.362 . S
C300 C297 1.431 . S
C300 C310 1.476 1_455 S
H301 C295 0.929 . S
C302 O293 1.250 . S
C302 O294 1.258 . S
O303 Mn288 2.162 . S
O303 C291 1.281 . S
O304 Mn288 2.297 . S
O304 C291 1.236 . S
N305 Mn289 2.282 1_655 S
N305 C306 1.328 . S
N305 C310 1.318 . S
C306 N305 1.328 . S
C306 C307 1.457 . S
C306 H311 0.929 . S
C307 C306 1.457 . S
C307 C308 1.291 . S
C307 H320 0.931 . S
C308 C307 1.291 . S
C308 C309 1.373 . S
C308 H321 0.929 . S
C309 C308 1.373 . S
C309 C310 1.396 . S
C309 C316 1.403 . S
C310 C300 1.476 1_655 S
C310 N305 1.318 . S
C310 C309 1.396 . S
H311 C306 0.929 . S
O312 Mn288 2.385 . S
O312 C290 1.234 . S
O313 Mn288 2.209 . S
O313 Mn289 2.215 . S
O313 C290 1.283 . S
O314 Mn288 2.094 . S
O314 C292 1.240 . S
O315 Mn289 2.117 . S
O315 C292 1.264 . S
C316 C309 1.403 . S
C316 C317 1.399 . S
C316 H322 0.929 . S
C317 C297 1.449 1_655 S
C317 C316 1.399 . S
C317 H323 0.930 . S
H318 C298 0.931 . S
H319 C299 0.930 . S
H320 C307 0.931 . S
H321 C308 0.929 . S
H322 C316 0.929 . S
H323 C317 0.930 . S
Mn324 O329 2.095 . S
Mn324 O339 2.162 . S
Mn324 O340 2.297 . S
Mn324 O348 2.385 . S
Mn324 O349 2.209 . S
Mn324 O350 2.094 . S
Mn325 O330 2.121 . S
Mn325 N332 2.257 . S
Mn325 N341 2.282 . S
Mn325 O349 2.215 . S
Mn325 O351 2.117 . S
C326 O348 1.234 . S
C326 O349 1.283 . S
C327 O339 1.281 . S
C327 O340 1.236 . S
C328 O350 1.240 . S
C328 O351 1.264 . S
O329 Mn324 2.095 . S
O329 C338 1.250 . S
O330 Mn325 2.121 . S
O330 C338 1.258 . S
C331 N332 1.326 . S
C331 C335 1.460 . S
C331 H337 0.929 . S
N332 Mn325 2.257 . S
N332 C331 1.326 . S
N332 C336 1.362 . S
C333 C334 1.258 . S
C333 C336 1.431 . S
C333 C353 1.449 . S
C334 C333 1.258 . S
C334 C335 1.477 . S
C334 H354 0.931 . S
C335 C331 1.460 . S
C335 C334 1.477 . S
C335 H355 0.930 1_655 S
C336 N332 1.362 . S
C336 C333 1.431 . S
C336 C346 1.476 . S
H337 C331 0.929 . S
C338 O329 1.250 . S
C338 O330 1.258 . S
O339 Mn324 2.162 . S
O339 C327 1.281 . S
O340 Mn324 2.297 . S
O340 C327 1.236 . S
N341 Mn325 2.282 . S
N341 C342 1.328 . S
N341 C346 1.318 . S
C342 N341 1.328 . S
C342 C343 1.457 . S
C342 H347 0.929 . S
C343 C342 1.457 . S
C343 C344 1.291 . S
C343 H356 0.931 . S
C344 C343 1.291 . S
C344 C345 1.373 . S
C344 H357 0.929 . S
C345 C344 1.373 . S
C345 C346 1.396 . S
C345 C352 1.403 . S
C346 C336 1.476 . S
C346 N341 1.318 . S
C346 C345 1.396 . S
H347 C342 0.929 . S
O348 Mn324 2.385 . S
O348 C326 1.234 . S
O349 Mn324 2.209 . S
O349 Mn325 2.215 . S
O349 C326 1.283 . S
O350 Mn324 2.094 . S
O350 C328 1.240 . S
O351 Mn325 2.117 . S
O351 C328 1.264 . S
C352 C345 1.403 . S
C352 C353 1.399 . S
C352 H358 0.929 . S
C353 C333 1.449 . S
C353 C352 1.399 . S
C353 H359 0.930 . S
H354 C334 0.931 . S
H355 C335 0.930 1_455 S
H356 C343 0.931 . S
H357 C344 0.929 . S
H358 C352 0.929 . S
H359 C353 0.930 . S
Mn360 O365 2.095 . S
Mn360 O375 2.162 . S
Mn360 O376 2.297 . S
Mn360 O384 2.385 . S
Mn360 O385 2.209 . S
Mn360 O386 2.094 . S
Mn361 O366 2.121 . S
Mn361 N368 2.257 . S
Mn361 N377 2.282 1_545 S
Mn361 O385 2.215 . S
Mn361 O387 2.117 . S
C362 O384 1.234 . S
C362 O385 1.283 . S
C363 O375 1.281 . S
C363 O376 1.236 . S
C364 O386 1.240 . S
C364 O387 1.264 . S
O365 Mn360 2.095 . S
O365 C374 1.250 . S
O366 Mn361 2.121 . S
O366 C374 1.258 . S
C367 N368 1.326 . S
C367 C371 1.460 . S
C367 H373 0.929 . S
N368 Mn361 2.257 . S
N368 C367 1.326 . S
N368 C372 1.362 . S
C369 C370 1.258 . S
C369 C372 1.431 . S
C369 C389 1.449 1_545 S
C370 C369 1.258 . S
C370 C371 1.477 . S
C370 H390 0.931 . S
C371 C367 1.460 . S
C371 C370 1.477 . S
C371 H391 0.930 . S
C372 N368 1.362 . S
C372 C369 1.431 . S
C372 C382 1.476 1_545 S
H373 C367 0.929 . S
C374 O365 1.250 . S
C374 O366 1.258 . S
O375 Mn360 2.162 . S
O375 C363 1.281 . S
O376 Mn360 2.297 . S
O376 C363 1.236 . S
N377 Mn361 2.282 1_565 S
N377 C378 1.328 . S
N377 C382 1.318 . S
C378 N377 1.328 . S
C378 C379 1.457 . S
C378 H383 0.929 . S
C379 C378 1.457 . S
C379 C380 1.291 . S
C379 H392 0.931 . S
C380 C379 1.291 . S
C380 C381 1.373 . S
C380 H393 0.929 . S
C381 C380 1.373 . S
C381 C382 1.396 . S
C381 C388 1.403 . S
C382 C372 1.476 1_565 S
C382 N377 1.318 . S
C382 C381 1.396 . S
H383 C378 0.929 . S
O384 Mn360 2.385 . S
O384 C362 1.234 . S
O385 Mn360 2.209 . S
O385 Mn361 2.215 . S
O385 C362 1.283 . S
O386 Mn360 2.094 . S
O386 C364 1.240 . S
O387 Mn361 2.117 . S
O387 C364 1.264 . S
C388 C381 1.403 . S
C388 C389 1.399 . S
C388 H394 0.929 . S
C389 C369 1.449 1_565 S
C389 C388 1.399 . S
C389 H395 0.930 . S
H390 C370 0.931 . S
H391 C371 0.930 . S
H392 C379 0.931 . S
H393 C380 0.929 . S
H394 C388 0.929 . S
H395 C389 0.930 . S
Mn396 O401 2.095 . S
Mn396 O411 2.162 . S
Mn396 O412 2.297 . S
Mn396 O420 2.385 . S
Mn396 O421 2.209 . S
Mn396 O422 2.094 . S
Mn397 O402 2.121 . S
Mn397 N404 2.257 . S
Mn397 N413 2.282 1_655 S
Mn397 O421 2.215 . S
Mn397 O423 2.117 . S
C398 O420 1.234 . S
C398 O421 1.283 . S
C399 O411 1.281 . S
C399 O412 1.236 . S
C400 O422 1.240 . S
C400 O423 1.264 . S
O401 Mn396 2.095 . S
O401 C410 1.250 . S
O402 Mn397 2.121 . S
O402 C410 1.258 . S
C403 N404 1.326 . S
C403 C407 1.460 . S
C403 H409 0.929 . S
N404 Mn397 2.257 . S
N404 C403 1.326 . S
N404 C408 1.362 . S
C405 C406 1.258 . S
C405 C408 1.431 . S
C405 C425 1.449 1_655 S
C406 C405 1.258 . S
C406 C407 1.477 . S
C406 H426 0.931 . S
C407 C403 1.460 . S
C407 C406 1.477 . S
C407 H427 0.930 1_545 S
C408 N404 1.362 . S
C408 C405 1.431 . S
C408 C418 1.476 1_655 S
H409 C403 0.929 . S
C410 O401 1.250 . S
C410 O402 1.258 . S
O411 Mn396 2.162 . S
O411 C399 1.281 . S
O412 Mn396 2.297 . S
O412 C399 1.236 . S
N413 Mn397 2.282 1_455 S
N413 C414 1.328 . S
N413 C418 1.318 . S
C414 N413 1.328 . S
C414 C415 1.457 . S
C414 H419 0.929 . S
C415 C414 1.457 . S
C415 C416 1.291 . S
C415 H428 0.931 . S
C416 C415 1.291 . S
C416 C417 1.373 . S
C416 H429 0.929 . S
C417 C416 1.373 . S
C417 C418 1.396 . S
C417 C424 1.403 . S
C418 C408 1.476 1_455 S
C418 N413 1.318 . S
C418 C417 1.396 . S
H419 C414 0.929 . S
O420 Mn396 2.385 . S
O420 C398 1.234 . S
O421 Mn396 2.209 . S
O421 Mn397 2.215 . S
O421 C398 1.283 . S
O422 Mn396 2.094 . S
O422 C400 1.240 . S
O423 Mn397 2.117 . S
O423 C400 1.264 . S
C424 C417 1.403 . S
C424 C425 1.399 . S
C424 H430 0.929 . S
C425 C405 1.449 1_455 S
C425 C424 1.399 . S
C425 H431 0.930 . S
H426 C406 0.931 . S
H427 C407 0.930 1_565 S
H428 C415 0.931 . S
H429 C416 0.929 . S
H430 C424 0.929 . S
H431 C425 0.930 . S
Mn432 O437 2.095 . S
Mn432 O447 2.162 . S
Mn432 O448 2.297 . S
Mn432 O456 2.385 . S
Mn432 O457 2.209 . S
Mn432 O458 2.094 . S
Mn433 O438 2.121 . S
Mn433 N440 2.257 . S
Mn433 N449 2.282 . S
Mn433 O457 2.215 . S
Mn433 O459 2.117 . S
C434 O456 1.234 . S
C434 O457 1.283 . S
C435 O447 1.281 . S
C435 O448 1.236 . S
C436 O458 1.240 . S
C436 O459 1.264 . S
O437 Mn432 2.095 . S
O437 C446 1.250 . S
O438 Mn433 2.121 . S
O438 C446 1.258 . S
C439 N440 1.326 . S
C439 C443 1.460 . S
C439 H445 0.929 . S
N440 Mn433 2.257 . S
N440 C439 1.326 . S
N440 C444 1.362 . S
C441 C442 1.258 . S
C441 C444 1.431 . S
C441 C461 1.449 . S
C442 C441 1.258 . S
C442 C443 1.477 . S
C442 H462 0.931 . S
C443 C439 1.460 . S
C443 C442 1.477 . S
C443 H463 0.930 . S
C444 N440 1.362 . S
C444 C441 1.431 . S
C444 C454 1.476 . S
H445 C439 0.929 . S
C446 O437 1.250 . S
C446 O438 1.258 . S
O447 Mn432 2.162 . S
O447 C435 1.281 . S
O448 Mn432 2.297 . S
O448 C435 1.236 . S
N449 Mn433 2.282 . S
N449 C450 1.328 . S
N449 C454 1.318 . S
C450 N449 1.328 . S
C450 C451 1.457 . S
C450 H455 0.929 . S
C451 C450 1.457 . S
C451 C452 1.291 . S
C451 H464 0.931 . S
C452 C451 1.291 . S
C452 C453 1.373 . S
C452 H465 0.929 . S
C453 C452 1.373 . S
C453 C454 1.396 . S
C453 C460 1.403 . S
C454 C444 1.476 . S
C454 N449 1.318 . S
C454 C453 1.396 . S
H455 C450 0.929 . S
O456 Mn432 2.385 . S
O456 C434 1.234 . S
O457 Mn432 2.209 . S
O457 Mn433 2.215 . S
O457 C434 1.283 . S
O458 Mn432 2.094 . S
O458 C436 1.240 . S
O459 Mn433 2.117 . S
O459 C436 1.264 . S
C460 C453 1.403 . S
C460 C461 1.399 . S
C460 H466 0.929 . S
C461 C441 1.449 . S
C461 C460 1.399 . S
C461 H467 0.930 . S
H462 C442 0.931 . S
H463 C443 0.930 . S
H464 C451 0.931 . S
H465 C452 0.929 . S
H466 C460 0.929 . S
H467 C461 0.930 . S
Mn468 O473 2.095 . S
Mn468 O483 2.162 . S
Mn468 O484 2.297 . S
Mn468 O492 2.385 . S
Mn468 O493 2.209 . S
Mn468 O494 2.094 . S
Mn469 O474 2.121 . S
Mn469 N476 2.257 . S
Mn469 N485 2.282 . S
Mn469 O493 2.215 . S
Mn469 O495 2.117 . S
C470 O492 1.234 . S
C470 O493 1.283 . S
C471 O483 1.281 . S
C471 O484 1.236 . S
C472 O494 1.240 . S
C472 O495 1.264 . S
O473 Mn468 2.095 . S
O473 C482 1.250 . S
O474 Mn469 2.121 . S
O474 C482 1.258 . S
C475 N476 1.326 . S
C475 C479 1.460 . S
C475 H481 0.929 . S
N476 Mn469 2.257 . S
N476 C475 1.326 . S
N476 C480 1.362 . S
C477 C478 1.258 . S
C477 C480 1.431 . S
C477 C497 1.449 . S
C478 C477 1.258 . S
C478 C479 1.477 . S
C478 H498 0.931 . S
C479 C475 1.460 . S
C479 C478 1.477 . S
C479 H499 0.930 . S
C480 N476 1.362 . S
C480 C477 1.431 . S
C480 C490 1.476 . S
H481 C475 0.929 . S
C482 O473 1.250 . S
C482 O474 1.258 . S
O483 Mn468 2.162 . S
O483 C471 1.281 . S
O484 Mn468 2.297 . S
O484 C471 1.236 . S
N485 Mn469 2.282 . S
N485 C486 1.328 . S
N485 C490 1.318 . S
C486 N485 1.328 . S
C486 C487 1.457 . S
C486 H491 0.929 . S
C487 C486 1.457 . S
C487 C488 1.291 . S
C487 H500 0.931 . S
C488 C487 1.291 . S
C488 C489 1.373 . S
C488 H501 0.929 . S
C489 C488 1.373 . S
C489 C490 1.396 . S
C489 C496 1.403 . S
C490 C480 1.476 . S
C490 N485 1.318 . S
C490 C489 1.396 . S
H491 C486 0.929 . S
O492 Mn468 2.385 . S
O492 C470 1.234 . S
O493 Mn468 2.209 . S
O493 Mn469 2.215 . S
O493 C470 1.283 . S
O494 Mn468 2.094 . S
O494 C472 1.240 . S
O495 Mn469 2.117 . S
O495 C472 1.264 . S
C496 C489 1.403 . S
C496 C497 1.399 . S
C496 H502 0.929 . S
C497 C477 1.449 . S
C497 C496 1.399 . S
C497 H503 0.930 . S
H498 C478 0.931 . S
H499 C479 0.930 . S
H500 C487 0.931 . S
H501 C488 0.929 . S
H502 C496 0.929 . S
H503 C497 0.930 . S
Mn504 O509 2.095 . S
Mn504 O519 2.162 . S
Mn504 O520 2.297 . S
Mn504 O528 2.385 . S
Mn504 O529 2.209 . S
Mn504 O530 2.094 . S
Mn505 O510 2.121 . S
Mn505 N512 2.257 . S
Mn505 N521 2.282 . S
Mn505 O529 2.215 . S
Mn505 O531 2.117 . S
C506 O528 1.234 . S
C506 O529 1.283 . S
C507 O519 1.281 . S
C507 O520 1.236 . S
C508 O530 1.240 . S
C508 O531 1.264 . S
O509 Mn504 2.095 . S
O509 C518 1.250 . S
O510 Mn505 2.121 . S
O510 C518 1.258 . S
C511 N512 1.326 . S
C511 C515 1.460 . S
C511 H517 0.929 . S
N512 Mn505 2.257 . S
N512 C511 1.326 . S
N512 C516 1.362 . S
C513 C514 1.258 . S
C513 C516 1.431 . S
C513 C533 1.449 . S
C514 C513 1.258 . S
C514 C515 1.477 . S
C514 H534 0.931 . S
C515 C511 1.460 . S
C515 C514 1.477 . S
C515 H535 0.930 . S
C516 N512 1.362 . S
C516 C513 1.431 . S
C516 C526 1.476 . S
H517 C511 0.929 . S
C518 O509 1.250 . S
C518 O510 1.258 . S
O519 Mn504 2.162 . S
O519 C507 1.281 . S
O520 Mn504 2.297 . S
O520 C507 1.236 . S
N521 Mn505 2.282 . S
N521 C522 1.328 . S
N521 C526 1.318 . S
C522 N521 1.328 . S
C522 C523 1.457 . S
C522 H527 0.929 . S
C523 C522 1.457 . S
C523 C524 1.291 . S
C523 H536 0.931 . S
C524 C523 1.291 . S
C524 C525 1.373 . S
C524 H537 0.929 . S
C525 C524 1.373 . S
C525 C526 1.396 . S
C525 C532 1.403 . S
C526 C516 1.476 . S
C526 N521 1.318 . S
C526 C525 1.396 . S
H527 C522 0.929 . S
O528 Mn504 2.385 . S
O528 C506 1.234 . S
O529 Mn504 2.209 . S
O529 Mn505 2.215 . S
O529 C506 1.283 . S
O530 Mn504 2.094 . S
O530 C508 1.240 . S
O531 Mn505 2.117 . S
O531 C508 1.264 . S
C532 C525 1.403 . S
C532 C533 1.399 . S
C532 H538 0.929 . S
C533 C513 1.449 . S
C533 C532 1.399 . S
C533 H539 0.930 . S
H534 C514 0.931 . S
H535 C515 0.930 . S
H536 C523 0.931 . S
H537 C524 0.929 . S
H538 C532 0.929 . S
H539 C533 0.930 . S
Mn540 O545 2.095 . S
Mn540 O555 2.162 . S
Mn540 O556 2.297 . S
Mn540 O564 2.385 . S
Mn540 O565 2.209 . S
Mn540 O566 2.094 . S
Mn541 O546 2.121 . S
Mn541 N548 2.257 . S
Mn541 N557 2.282 . S
Mn541 O565 2.215 . S
Mn541 O567 2.117 . S
C542 O564 1.234 . S
C542 O565 1.283 . S
C543 O555 1.281 . S
C543 O556 1.236 . S
C544 O566 1.240 . S
C544 O567 1.264 . S
O545 Mn540 2.095 . S
O545 C554 1.250 . S
O546 Mn541 2.121 . S
O546 C554 1.258 . S
C547 N548 1.326 . S
C547 C551 1.460 . S
C547 H553 0.929 . S
N548 Mn541 2.257 . S
N548 C547 1.326 . S
N548 C552 1.362 . S
C549 C550 1.258 . S
C549 C552 1.431 . S
C549 C569 1.449 . S
C550 C549 1.258 . S
C550 C551 1.477 . S
C550 H570 0.931 . S
C551 C547 1.460 . S
C551 C550 1.477 . S
C551 H571 0.930 . S
C552 N548 1.362 . S
C552 C549 1.431 . S
C552 C562 1.476 . S
H553 C547 0.929 . S
C554 O545 1.250 . S
C554 O546 1.258 . S
O555 Mn540 2.162 . S
O555 C543 1.281 . S
O556 Mn540 2.297 . S
O556 C543 1.236 . S
N557 Mn541 2.282 . S
N557 C558 1.328 . S
N557 C562 1.318 . S
C558 N557 1.328 . S
C558 C559 1.457 . S
C558 H563 0.929 . S
C559 C558 1.457 . S
C559 C560 1.291 . S
C559 H572 0.931 . S
C560 C559 1.291 . S
C560 C561 1.373 . S
C560 H573 0.929 . S
C561 C560 1.373 . S
C561 C562 1.396 . S
C561 C568 1.403 . S
C562 C552 1.476 . S
C562 N557 1.318 . S
C562 C561 1.396 . S
H563 C558 0.929 . S
O564 Mn540 2.385 . S
O564 C542 1.234 . S
O565 Mn540 2.209 . S
O565 Mn541 2.215 . S
O565 C542 1.283 . S
O566 Mn540 2.094 . S
O566 C544 1.240 . S
O567 Mn541 2.117 . S
O567 C544 1.264 . S
C568 C561 1.403 . S
C568 C569 1.399 . S
C568 H574 0.929 . S
C569 C549 1.449 . S
C569 C568 1.399 . S
C569 H575 0.930 . S
H570 C550 0.931 . S
H571 C551 0.930 . S
H572 C559 0.931 . S
H573 C560 0.929 . S
H574 C568 0.929 . S
H575 C569 0.930 . S
Mn576 O581 2.095 . S
Mn576 O591 2.162 . S
Mn576 O592 2.297 . S
Mn576 O600 2.385 . S
Mn576 O601 2.209 . S
Mn576 O602 2.094 . S
Mn577 O582 2.121 . S
Mn577 N584 2.257 . S
Mn577 N593 2.282 . S
Mn577 O601 2.215 . S
Mn577 O603 2.117 . S
C578 O600 1.234 . S
C578 O601 1.283 . S
C579 O591 1.281 . S
C579 O592 1.236 . S
C580 O602 1.240 . S
C580 O603 1.264 . S
O581 Mn576 2.095 . S
O581 C590 1.250 . S
O582 Mn577 2.121 . S
O582 C590 1.258 . S
C583 N584 1.326 . S
C583 C587 1.460 . S
C583 H589 0.929 . S
N584 Mn577 2.257 . S
N584 C583 1.326 . S
N584 C588 1.362 . S
C585 C586 1.258 . S
C585 C588 1.431 . S
C585 C605 1.449 . S
C586 C585 1.258 . S
C586 C587 1.477 . S
C586 H606 0.931 . S
C587 C583 1.460 . S
C587 C586 1.477 . S
C587 H607 0.930 . S
C588 N584 1.362 . S
C588 C585 1.431 . S
C588 C598 1.476 . S
H589 C583 0.929 . S
C590 O581 1.250 . S
C590 O582 1.258 . S
O591 Mn576 2.162 . S
O591 C579 1.281 . S
O592 Mn576 2.297 . S
O592 C579 1.236 . S
N593 Mn577 2.282 . S
N593 C594 1.328 . S
N593 C598 1.318 . S
C594 N593 1.328 . S
C594 C595 1.457 . S
C594 H599 0.929 . S
C595 C594 1.457 . S
C595 C596 1.291 . S
C595 H608 0.931 . S
C596 C595 1.291 . S
C596 C597 1.373 . S
C596 H609 0.929 . S
C597 C596 1.373 . S
C597 C598 1.396 . S
C597 C604 1.403 . S
C598 C588 1.476 . S
C598 N593 1.318 . S
C598 C597 1.396 . S
H599 C594 0.929 . S
O600 Mn576 2.385 . S
O600 C578 1.234 . S
O601 Mn576 2.209 . S
O601 Mn577 2.215 . S
O601 C578 1.283 . S
O602 Mn576 2.094 . S
O602 C580 1.240 . S
O603 Mn577 2.117 . S
O603 C580 1.264 . S
C604 C597 1.403 . S
C604 C605 1.399 . S
C604 H610 0.929 . S
C605 C585 1.449 . S
C605 C604 1.399 . S
C605 H611 0.930 . S
H606 C586 0.931 . S
H607 C587 0.930 . S
H608 C595 0.931 . S
H609 C596 0.929 . S
H610 C604 0.929 . S
H611 C605 0.930 . S
Mn612 O617 2.095 . S
Mn612 O627 2.162 . S
Mn612 O628 2.297 . S
Mn612 O636 2.385 . S
Mn612 O637 2.209 . S
Mn612 O638 2.094 . S
Mn613 O618 2.121 . S
Mn613 N620 2.257 . S
Mn613 N629 2.282 . S
Mn613 O637 2.215 . S
Mn613 O639 2.117 . S
C614 O636 1.234 . S
C614 O637 1.283 . S
C615 O627 1.281 . S
C615 O628 1.236 . S
C616 O638 1.240 . S
C616 O639 1.264 . S
O617 Mn612 2.095 . S
O617 C626 1.250 . S
O618 Mn613 2.121 . S
O618 C626 1.258 . S
C619 N620 1.326 . S
C619 C623 1.460 . S
C619 H625 0.929 . S
N620 Mn613 2.257 . S
N620 C619 1.326 . S
N620 C624 1.362 . S
C621 C622 1.258 . S
C621 C624 1.431 . S
C621 C641 1.449 . S
C622 C621 1.258 . S
C622 C623 1.477 . S
C622 H642 0.931 . S
C623 C619 1.460 . S
C623 C622 1.477 . S
C623 H643 0.930 . S
C624 N620 1.362 . S
C624 C621 1.431 . S
C624 C634 1.476 . S
H625 C619 0.929 . S
C626 O617 1.250 . S
C626 O618 1.258 . S
O627 Mn612 2.162 . S
O627 C615 1.281 . S
O628 Mn612 2.297 . S
O628 C615 1.236 . S
N629 Mn613 2.282 . S
N629 C630 1.328 . S
N629 C634 1.318 . S
C630 N629 1.328 . S
C630 C631 1.457 . S
C630 H635 0.929 . S
C631 C630 1.457 . S
C631 C632 1.291 . S
C631 H644 0.931 . S
C632 C631 1.291 . S
C632 C633 1.373 . S
C632 H645 0.929 . S
C633 C632 1.373 . S
C633 C634 1.396 . S
C633 C640 1.403 . S
C634 C624 1.476 . S
C634 N629 1.318 . S
C634 C633 1.396 . S
H635 C630 0.929 . S
O636 Mn612 2.385 . S
O636 C614 1.234 . S
O637 Mn612 2.209 . S
O637 Mn613 2.215 . S
O637 C614 1.283 . S
O638 Mn612 2.094 . S
O638 C616 1.240 . S
O639 Mn613 2.117 . S
O639 C616 1.264 . S
C640 C633 1.403 . S
C640 C641 1.399 . S
C640 H646 0.929 . S
C641 C621 1.449 . S
C641 C640 1.399 . S
C641 H647 0.930 . S
H642 C622 0.931 . S
H643 C623 0.930 . S
H644 C631 0.931 . S
H645 C632 0.929 . S
H646 C640 0.929 . S
H647 C641 0.930 . S
Mn648 O653 2.095 . S
Mn648 O663 2.162 . S
Mn648 O664 2.297 . S
Mn648 O672 2.385 . S
Mn648 O673 2.209 . S
Mn648 O674 2.094 . S
Mn649 O654 2.121 . S
Mn649 N656 2.257 . S
Mn649 N665 2.282 . S
Mn649 O673 2.215 . S
Mn649 O675 2.117 . S
C650 O672 1.234 . S
C650 O673 1.283 . S
C651 O663 1.281 . S
C651 O664 1.236 . S
C652 O674 1.240 . S
C652 O675 1.264 . S
O653 Mn648 2.095 . S
O653 C662 1.250 . S
O654 Mn649 2.121 . S
O654 C662 1.258 . S
C655 N656 1.326 . S
C655 C659 1.460 . S
C655 H661 0.929 . S
N656 Mn649 2.257 . S
N656 C655 1.326 . S
N656 C660 1.362 . S
C657 C658 1.258 . S
C657 C660 1.431 . S
C657 C677 1.449 . S
C658 C657 1.258 . S
C658 C659 1.477 . S
C658 H678 0.931 . S
C659 C655 1.460 . S
C659 C658 1.477 . S
C659 H679 0.930 . S
C660 N656 1.362 . S
C660 C657 1.431 . S
C660 C670 1.476 . S
H661 C655 0.929 . S
C662 O653 1.250 . S
C662 O654 1.258 . S
O663 Mn648 2.162 . S
O663 C651 1.281 . S
O664 Mn648 2.297 . S
O664 C651 1.236 . S
N665 Mn649 2.282 . S
N665 C666 1.328 . S
N665 C670 1.318 . S
C666 N665 1.328 . S
C666 C667 1.457 . S
C666 H671 0.929 . S
C667 C666 1.457 . S
C667 C668 1.291 . S
C667 H680 0.931 . S
C668 C667 1.291 . S
C668 C669 1.373 . S
C668 H681 0.929 . S
C669 C668 1.373 . S
C669 C670 1.396 . S
C669 C676 1.403 . S
C670 C660 1.476 . S
C670 N665 1.318 . S
C670 C669 1.396 . S
H671 C666 0.929 . S
O672 Mn648 2.385 . S
O672 C650 1.234 . S
O673 Mn648 2.209 . S
O673 Mn649 2.215 . S
O673 C650 1.283 . S
O674 Mn648 2.094 . S
O674 C652 1.240 . S
O675 Mn649 2.117 . S
O675 C652 1.264 . S
C676 C669 1.403 . S
C676 C677 1.399 . S
C676 H682 0.929 . S
C677 C657 1.449 . S
C677 C676 1.399 . S
C677 H683 0.930 . S
H678 C658 0.931 . S
H679 C659 0.930 . S
H680 C667 0.931 . S
H681 C668 0.929 . S
H682 C676 0.929 . S
H683 C677 0.930 . S
Mn684 O689 2.095 . S
Mn684 O699 2.162 . S
Mn684 O700 2.297 . S
Mn684 O708 2.385 . S
Mn684 O709 2.209 . S
Mn684 O710 2.094 . S
Mn685 O690 2.121 . S
Mn685 N692 2.257 . S
Mn685 N701 2.282 . S
Mn685 O709 2.215 . S
Mn685 O711 2.117 . S
C686 O708 1.234 . S
C686 O709 1.283 . S
C687 O699 1.281 . S
C687 O700 1.236 . S
C688 O710 1.240 . S
C688 O711 1.264 . S
O689 Mn684 2.095 . S
O689 C698 1.250 . S
O690 Mn685 2.121 . S
O690 C698 1.258 . S
C691 N692 1.326 . S
C691 C695 1.460 . S
C691 H697 0.929 . S
N692 Mn685 2.257 . S
N692 C691 1.326 . S
N692 C696 1.362 . S
C693 C694 1.258 . S
C693 C696 1.431 . S
C693 C713 1.449 . S
C694 C693 1.258 . S
C694 C695 1.477 . S
C694 H714 0.931 . S
C695 C691 1.460 . S
C695 C694 1.477 . S
C695 H715 0.930 . S
C696 N692 1.362 . S
C696 C693 1.431 . S
C696 C706 1.476 . S
H697 C691 0.929 . S
C698 O689 1.250 . S
C698 O690 1.258 . S
O699 Mn684 2.162 . S
O699 C687 1.281 . S
O700 Mn684 2.297 . S
O700 C687 1.236 . S
N701 Mn685 2.282 . S
N701 C702 1.328 . S
N701 C706 1.318 . S
C702 N701 1.328 . S
C702 C703 1.457 . S
C702 H707 0.929 . S
C703 C702 1.457 . S
C703 C704 1.291 . S
C703 H716 0.931 . S
C704 C703 1.291 . S
C704 C705 1.373 . S
C704 H717 0.929 . S
C705 C704 1.373 . S
C705 C706 1.396 . S
C705 C712 1.403 . S
C706 C696 1.476 . S
C706 N701 1.318 . S
C706 C705 1.396 . S
H707 C702 0.929 . S
O708 Mn684 2.385 . S
O708 C686 1.234 . S
O709 Mn684 2.209 . S
O709 Mn685 2.215 . S
O709 C686 1.283 . S
O710 Mn684 2.094 . S
O710 C688 1.240 . S
O711 Mn685 2.117 . S
O711 C688 1.264 . S
C712 C705 1.403 . S
C712 C713 1.399 . S
C712 H718 0.929 . S
C713 C693 1.449 . S
C713 C712 1.399 . S
C713 H719 0.930 . S
H714 C694 0.931 . S
H715 C695 0.930 . S
H716 C703 0.931 . S
H717 C704 0.929 . S
H718 C712 0.929 . S
H719 C713 0.930 . S
Mn720 O725 2.095 . S
Mn720 O735 2.162 . S
Mn720 O736 2.297 . S
Mn720 O744 2.385 . S
Mn720 O745 2.209 . S
Mn720 O746 2.094 . S
Mn721 O726 2.121 . S
Mn721 N728 2.257 . S
Mn721 N737 2.282 . S
Mn721 O745 2.215 . S
Mn721 O747 2.117 . S
C722 O744 1.234 . S
C722 O745 1.283 . S
C723 O735 1.281 . S
C723 O736 1.236 . S
C724 O746 1.240 . S
C724 O747 1.264 . S
O725 Mn720 2.095 . S
O725 C734 1.250 . S
O726 Mn721 2.121 . S
O726 C734 1.258 . S
C727 N728 1.326 . S
C727 C731 1.460 . S
C727 H733 0.929 . S
N728 Mn721 2.257 . S
N728 C727 1.326 . S
N728 C732 1.362 . S
C729 C730 1.258 . S
C729 C732 1.431 . S
C729 C749 1.449 . S
C730 C729 1.258 . S
C730 C731 1.477 . S
C730 H750 0.931 . S
C731 C727 1.460 . S
C731 C730 1.477 . S
C731 H751 0.930 . S
C732 N728 1.362 . S
C732 C729 1.431 . S
C732 C742 1.476 . S
H733 C727 0.929 . S
C734 O725 1.250 . S
C734 O726 1.258 . S
O735 Mn720 2.162 . S
O735 C723 1.281 . S
O736 Mn720 2.297 . S
O736 C723 1.236 . S
N737 Mn721 2.282 . S
N737 C738 1.328 . S
N737 C742 1.318 . S
C738 N737 1.328 . S
C738 C739 1.457 . S
C738 H743 0.929 . S
C739 C738 1.457 . S
C739 C740 1.291 . S
C739 H752 0.931 . S
C740 C739 1.291 . S
C740 C741 1.373 . S
C740 H753 0.929 . S
C741 C740 1.373 . S
C741 C742 1.396 . S
C741 C748 1.403 . S
C742 C732 1.476 . S
C742 N737 1.318 . S
C742 C741 1.396 . S
H743 C738 0.929 . S
O744 Mn720 2.385 . S
O744 C722 1.234 . S
O745 Mn720 2.209 . S
O745 Mn721 2.215 . S
O745 C722 1.283 . S
O746 Mn720 2.094 . S
O746 C724 1.240 . S
O747 Mn721 2.117 . S
O747 C724 1.264 . S
C748 C741 1.403 . S
C748 C749 1.399 . S
C748 H754 0.929 . S
C749 C729 1.449 . S
C749 C748 1.399 . S
C749 H755 0.930 . S
H750 C730 0.931 . S
H751 C731 0.930 . S
H752 C739 0.931 . S
H753 C740 0.929 . S
H754 C748 0.929 . S
H755 C749 0.930 . S
Mn756 O761 2.095 . S
Mn756 O771 2.162 . S
Mn756 O772 2.297 . S
Mn756 O780 2.385 . S
Mn756 O781 2.209 . S
Mn756 O782 2.094 . S
Mn757 O762 2.121 . S
Mn757 N764 2.257 . S
Mn757 N773 2.282 . S
Mn757 O781 2.215 . S
Mn757 O783 2.117 . S
C758 O780 1.234 1_554 S
C758 O781 1.283 1_554 S
C759 O771 1.281 . S
C759 O772 1.236 . S
C760 O782 1.240 . S
C760 O783 1.264 . S
O761 Mn756 2.095 . S
O761 C770 1.250 . S
O762 Mn757 2.121 . S
O762 C770 1.258 . S
C763 N764 1.326 1_554 S
C763 C767 1.465 . S
C763 H769 0.925 1_554 S
N764 Mn757 2.257 . S
N764 C763 1.326 1_556 S
N764 C768 1.362 1_556 S
C765 C766 1.258 . S
C765 C768 1.431 . S
C765 C785 1.449 . S
C766 C765 1.258 . S
C766 C767 1.477 . S
C766 H786 0.931 . S
C767 C763 1.465 . S
C767 C766 1.477 . S
C767 H787 0.930 . S
C768 N764 1.362 1_554 S
C768 C765 1.431 . S
C768 C778 1.476 . S
H769 C763 0.925 1_556 S
C770 O761 1.250 . S
C770 O762 1.258 . S
O771 Mn756 2.162 . S
O771 C759 1.281 . S
O772 Mn756 2.297 . S
O772 C759 1.236 . S
N773 Mn757 2.282 . S
N773 C774 1.328 . S
N773 C778 1.318 1_556 S
C774 N773 1.328 . S
C774 C775 1.457 1_556 S
C774 H779 0.929 . S
C775 C774 1.457 1_554 S
C775 C776 1.291 . S
C775 H788 0.931 . S
C776 C775 1.291 . S
C776 C777 1.373 . S
C776 H789 0.929 . S
C777 C776 1.373 . S
C777 C778 1.396 . S
C777 C784 1.403 . S
C778 C768 1.476 . S
C778 N773 1.318 1_554 S
C778 C777 1.396 . S
H779 C774 0.929 . S
O780 Mn756 2.385 . S
O780 C758 1.234 1_556 S
O781 Mn756 2.209 . S
O781 Mn757 2.215 . S
O781 C758 1.283 1_556 S
O782 Mn756 2.094 . S
O782 C760 1.240 . S
O783 Mn757 2.117 . S
O783 C760 1.264 . S
C784 C777 1.403 . S
C784 C785 1.399 . S
C784 H790 0.929 . S
C785 C765 1.449 . S
C785 C784 1.399 . S
C785 H791 0.930 . S
H786 C766 0.931 . S
H787 C767 0.930 . S
H788 C775 0.931 . S
H789 C776 0.929 . S
H790 C784 0.929 . S
H791 C785 0.930 . S
Mn792 O797 2.095 . S
Mn792 O807 2.162 . S
Mn792 O808 2.297 . S
Mn792 O816 2.385 . S
Mn792 O817 2.209 . S
Mn792 O818 2.094 . S
Mn793 O798 2.121 . S
Mn793 N800 2.257 . S
Mn793 N809 2.282 . S
Mn793 O817 2.215 . S
Mn793 O819 2.117 . S
C794 O816 1.234 1_554 S
C794 O817 1.283 1_554 S
C795 O807 1.281 . S
C795 O808 1.236 . S
C796 O818 1.240 . S
C796 O819 1.264 . S
O797 Mn792 2.095 . S
O797 C806 1.250 . S
O798 Mn793 2.121 . S
O798 C806 1.258 . S
C799 N800 1.326 1_554 S
C799 C803 1.465 . S
C799 H805 0.925 1_554 S
N800 Mn793 2.257 . S
N800 C799 1.326 1_556 S
N800 C804 1.362 1_556 S
C801 C802 1.258 . S
C801 C804 1.431 . S
C801 C821 1.449 . S
C802 C801 1.258 . S
C802 C803 1.477 . S
C802 H822 0.931 . S
C803 C799 1.465 . S
C803 C802 1.477 . S
C803 H823 0.930 . S
C804 N800 1.362 1_554 S
C804 C801 1.431 . S
C804 C814 1.476 . S
H805 C799 0.925 1_556 S
C806 O797 1.250 . S
C806 O798 1.258 . S
O807 Mn792 2.162 . S
O807 C795 1.281 . S
O808 Mn792 2.297 . S
O808 C795 1.236 . S
N809 Mn793 2.282 . S
N809 C810 1.328 . S
N809 C814 1.318 1_556 S
C810 N809 1.328 . S
C810 C811 1.457 1_556 S
C810 H815 0.929 . S
C811 C810 1.457 1_554 S
C811 C812 1.291 . S
C811 H824 0.931 . S
C812 C811 1.291 . S
C812 C813 1.373 . S
C812 H825 0.929 . S
C813 C812 1.373 . S
C813 C814 1.396 . S
C813 C820 1.403 . S
C814 C804 1.476 . S
C814 N809 1.318 1_554 S
C814 C813 1.396 . S
H815 C810 0.929 . S
O816 Mn792 2.385 . S
O816 C794 1.234 1_556 S
O817 Mn792 2.209 . S
O817 Mn793 2.215 . S
O817 C794 1.283 1_556 S
O818 Mn792 2.094 . S
O818 C796 1.240 . S
O819 Mn793 2.117 . S
O819 C796 1.264 . S
C820 C813 1.403 . S
C820 C821 1.399 . S
C820 H826 0.929 . S
C821 C801 1.449 . S
C821 C820 1.399 . S
C821 H827 0.930 . S
H822 C802 0.931 . S
H823 C803 0.930 . S
H824 C811 0.931 . S
H825 C812 0.929 . S
H826 C820 0.929 . S
H827 C821 0.930 . S
Mn828 O833 2.095 . S
Mn828 O843 2.162 . S
Mn828 O844 2.297 . S
Mn828 O852 2.385 . S
Mn828 O853 2.209 . S
Mn828 O854 2.094 . S
Mn829 O834 2.121 . S
Mn829 N836 2.257 . S
Mn829 N845 2.282 . S
Mn829 O853 2.215 . S
Mn829 O855 2.117 . S
C830 O852 1.234 1_554 S
C830 O853 1.283 1_554 S
C831 O843 1.281 . S
C831 O844 1.236 . S
C832 O854 1.240 . S
C832 O855 1.264 . S
O833 Mn828 2.095 . S
O833 C842 1.250 . S
O834 Mn829 2.121 . S
O834 C842 1.258 . S
C835 N836 1.326 1_554 S
C835 C839 1.465 . S
C835 H841 0.925 1_554 S
N836 Mn829 2.257 . S
N836 C835 1.326 1_556 S
N836 C840 1.362 1_556 S
C837 C838 1.258 . S
C837 C840 1.431 . S
C837 C857 1.449 . S
C838 C837 1.258 . S
C838 C839 1.477 . S
C838 H858 0.931 . S
C839 C835 1.465 . S
C839 C838 1.477 . S
C839 H859 0.930 . S
C840 N836 1.362 1_554 S
C840 C837 1.431 . S
C840 C850 1.476 . S
H841 C835 0.925 1_556 S
C842 O833 1.250 . S
C842 O834 1.258 . S
O843 Mn828 2.162 . S
O843 C831 1.281 . S
O844 Mn828 2.297 . S
O844 C831 1.236 . S
N845 Mn829 2.282 . S
N845 C846 1.328 . S
N845 C850 1.318 1_556 S
C846 N845 1.328 . S
C846 C847 1.457 1_556 S
C846 H851 0.929 . S
C847 C846 1.457 1_554 S
C847 C848 1.291 . S
C847 H860 0.931 . S
C848 C847 1.291 . S
C848 C849 1.373 . S
C848 H861 0.929 . S
C849 C848 1.373 . S
C849 C850 1.396 . S
C849 C856 1.403 . S
C850 C840 1.476 . S
C850 N845 1.318 1_554 S
C850 C849 1.396 . S
H851 C846 0.929 . S
O852 Mn828 2.385 . S
O852 C830 1.234 1_556 S
O853 Mn828 2.209 . S
O853 Mn829 2.215 . S
O853 C830 1.283 1_556 S
O854 Mn828 2.094 . S
O854 C832 1.240 . S
O855 Mn829 2.117 . S
O855 C832 1.264 . S
C856 C849 1.403 . S
C856 C857 1.399 . S
C856 H862 0.929 . S
C857 C837 1.449 . S
C857 C856 1.399 . S
C857 H863 0.930 . S
H858 C838 0.931 . S
H859 C839 0.930 . S
H860 C847 0.931 . S
H861 C848 0.929 . S
H862 C856 0.929 . S
H863 C857 0.930 . S
Mn864 O869 2.095 . S
Mn864 O879 2.162 . S
Mn864 O880 2.297 . S
Mn864 O888 2.385 . S
Mn864 O889 2.209 . S
Mn864 O890 2.094 . S
Mn865 O870 2.121 . S
Mn865 N872 2.257 . S
Mn865 N881 2.282 . S
Mn865 O889 2.215 . S
Mn865 O891 2.117 . S
C866 O888 1.234 . S
C866 O889 1.283 . S
C867 O879 1.281 . S
C867 O880 1.236 . S
C868 O890 1.240 . S
C868 O891 1.264 . S
O869 Mn864 2.095 . S
O869 C878 1.250 . S
O870 Mn865 2.121 . S
O870 C878 1.258 . S
C871 N872 1.326 . S
C871 C875 1.460 . S
C871 H877 0.929 . S
N872 Mn865 2.257 . S
N872 C871 1.326 . S
N872 C876 1.362 . S
C873 C874 1.258 . S
C873 C876 1.431 . S
C873 C893 1.449 . S
C874 C873 1.258 . S
C874 C875 1.477 . S
C874 H894 0.931 . S
C875 C871 1.460 . S
C875 C874 1.477 . S
C875 H895 0.930 . S
C876 N872 1.362 . S
C876 C873 1.431 . S
C876 C886 1.476 . S
H877 C871 0.929 . S
C878 O869 1.250 . S
C878 O870 1.258 . S
O879 Mn864 2.162 . S
O879 C867 1.281 . S
O880 Mn864 2.297 . S
O880 C867 1.236 . S
N881 Mn865 2.282 . S
N881 C882 1.328 . S
N881 C886 1.318 . S
C882 N881 1.328 . S
C882 C883 1.457 . S
C882 H887 0.929 . S
C883 C882 1.457 . S
C883 C884 1.291 . S
C883 H896 0.931 . S
C884 C883 1.291 . S
C884 C885 1.373 . S
C884 H897 0.929 . S
C885 C884 1.373 . S
C885 C886 1.396 . S
C885 C892 1.403 . S
C886 C876 1.476 . S
C886 N881 1.318 . S
C886 C885 1.396 . S
H887 C882 0.929 . S
O888 Mn864 2.385 . S
O888 C866 1.234 . S
O889 Mn864 2.209 . S
O889 Mn865 2.215 . S
O889 C866 1.283 . S
O890 Mn864 2.094 . S
O890 C868 1.240 . S
O891 Mn865 2.117 . S
O891 C868 1.264 . S
C892 C885 1.403 . S
C892 C893 1.399 . S
C892 H898 0.929 . S
C893 C873 1.449 . S
C893 C892 1.399 . S
C893 H899 0.930 . S
H894 C874 0.931 . S
H895 C875 0.930 . S
H896 C883 0.931 . S
H897 C884 0.929 . S
H898 C892 0.929 . S
H899 C893 0.930 . S
Mn900 O905 2.095 . S
Mn900 O915 2.162 . S
Mn900 O916 2.297 . S
Mn900 O924 2.385 . S
Mn900 O925 2.209 . S
Mn900 O926 2.094 . S
Mn901 O906 2.121 . S
Mn901 N908 2.257 . S
Mn901 N917 2.282 . S
Mn901 O925 2.215 . S
Mn901 O927 2.117 . S
C902 O924 1.234 . S
C902 O925 1.283 . S
C903 O915 1.281 . S
C903 O916 1.236 . S
C904 O926 1.240 . S
C904 O927 1.264 . S
O905 Mn900 2.095 . S
O905 C914 1.250 . S
O906 Mn901 2.121 . S
O906 C914 1.258 . S
C907 N908 1.326 . S
C907 C911 1.460 . S
C907 H913 0.929 . S
N908 Mn901 2.257 . S
N908 C907 1.326 . S
N908 C912 1.362 . S
C909 C910 1.258 . S
C909 C912 1.431 . S
C909 C929 1.449 . S
C910 C909 1.258 . S
C910 C911 1.477 . S
C910 H930 0.931 . S
C911 C907 1.460 . S
C911 C910 1.477 . S
C911 H931 0.930 . S
C912 N908 1.362 . S
C912 C909 1.431 . S
C912 C922 1.476 . S
H913 C907 0.929 . S
C914 O905 1.250 . S
C914 O906 1.258 . S
O915 Mn900 2.162 . S
O915 C903 1.281 . S
O916 Mn900 2.297 . S
O916 C903 1.236 . S
N917 Mn901 2.282 . S
N917 C918 1.328 . S
N917 C922 1.318 . S
C918 N917 1.328 . S
C918 C919 1.457 . S
C918 H923 0.929 . S
C919 C918 1.457 . S
C919 C920 1.291 . S
C919 H932 0.931 . S
C920 C919 1.291 . S
C920 C921 1.373 . S
C920 H933 0.929 . S
C921 C920 1.373 . S
C921 C922 1.396 . S
C921 C928 1.403 . S
C922 C912 1.476 . S
C922 N917 1.318 . S
C922 C921 1.396 . S
H923 C918 0.929 . S
O924 Mn900 2.385 . S
O924 C902 1.234 . S
O925 Mn900 2.209 . S
O925 Mn901 2.215 . S
O925 C902 1.283 . S
O926 Mn900 2.094 . S
O926 C904 1.240 . S
O927 Mn901 2.117 . S
O927 C904 1.264 . S
C928 C921 1.403 . S
C928 C929 1.399 . S
C928 H934 0.929 . S
C929 C909 1.449 . S
C929 C928 1.399 . S
C929 H935 0.930 . S
H930 C910 0.931 . S
H931 C911 0.930 . S
H932 C919 0.931 . S
H933 C920 0.929 . S
H934 C928 0.929 . S
H935 C929 0.930 . S
Mn936 O941 2.095 . S
Mn936 O951 2.162 . S
Mn936 O952 2.297 . S
Mn936 O960 2.385 . S
Mn936 O961 2.209 . S
Mn936 O962 2.094 . S
Mn937 O942 2.121 . S
Mn937 N944 2.257 . S
Mn937 N953 2.282 . S
Mn937 O961 2.215 . S
Mn937 O963 2.117 . S
C938 O960 1.234 . S
C938 O961 1.283 . S
C939 O951 1.281 . S
C939 O952 1.236 . S
C940 O962 1.240 . S
C940 O963 1.264 . S
O941 Mn936 2.095 . S
O941 C950 1.250 . S
O942 Mn937 2.121 . S
O942 C950 1.258 . S
C943 N944 1.326 . S
C943 C947 1.460 . S
C943 H949 0.929 . S
N944 Mn937 2.257 . S
N944 C943 1.326 . S
N944 C948 1.362 . S
C945 C946 1.258 . S
C945 C948 1.431 . S
C945 C965 1.449 . S
C946 C945 1.258 . S
C946 C947 1.477 . S
C946 H966 0.931 . S
C947 C943 1.460 . S
C947 C946 1.477 . S
C947 H967 0.930 . S
C948 N944 1.362 . S
C948 C945 1.431 . S
C948 C958 1.476 . S
H949 C943 0.929 . S
C950 O941 1.250 . S
C950 O942 1.258 . S
O951 Mn936 2.162 . S
O951 C939 1.281 . S
O952 Mn936 2.297 . S
O952 C939 1.236 . S
N953 Mn937 2.282 . S
N953 C954 1.328 . S
N953 C958 1.318 . S
C954 N953 1.328 . S
C954 C955 1.457 . S
C954 H959 0.929 . S
C955 C954 1.457 . S
C955 C956 1.291 . S
C955 H968 0.931 . S
C956 C955 1.291 . S
C956 C957 1.373 . S
C956 H969 0.929 . S
C957 C956 1.373 . S
C957 C958 1.396 . S
C957 C964 1.403 . S
C958 C948 1.476 . S
C958 N953 1.318 . S
C958 C957 1.396 . S
H959 C954 0.929 . S
O960 Mn936 2.385 . S
O960 C938 1.234 . S
O961 Mn936 2.209 . S
O961 Mn937 2.215 . S
O961 C938 1.283 . S
O962 Mn936 2.094 . S
O962 C940 1.240 . S
O963 Mn937 2.117 . S
O963 C940 1.264 . S
C964 C957 1.403 . S
C964 C965 1.399 . S
C964 H970 0.929 . S
C965 C945 1.449 . S
C965 C964 1.399 . S
C965 H971 0.930 . S
H966 C946 0.931 . S
H967 C947 0.930 . S
H968 C955 0.931 . S
H969 C956 0.929 . S
H970 C964 0.929 . S
H971 C965 0.930 . S
Mn972 O977 2.095 . S
Mn972 O987 2.162 . S
Mn972 O988 2.297 . S
Mn972 O996 2.385 . S
Mn972 O997 2.209 . S
Mn972 O998 2.094 . S
Mn973 O978 2.121 . S
Mn973 N980 2.257 . S
Mn973 N989 2.282 . S
Mn973 O997 2.215 . S
Mn973 O999 2.117 . S
C974 O996 1.234 1_556 S
C974 O997 1.283 1_556 S
C975 O987 1.281 . S
C975 O988 1.236 . S
C976 O998 1.240 . S
C976 O999 1.264 . S
O977 Mn972 2.095 . S
O977 C986 1.250 . S
O978 Mn973 2.121 . S
O978 C986 1.258 . S
C979 N980 1.326 1_556 S
C979 C983 1.465 . S
C979 H985 0.925 1_556 S
N980 Mn973 2.257 . S
N980 C979 1.326 1_554 S
N980 C984 1.362 1_554 S
C981 C982 1.258 . S
C981 C984 1.431 . S
C981 C1001 1.449 . S
C982 C981 1.258 . S
C982 C983 1.477 . S
C982 H1002 0.931 . S
C983 C979 1.465 . S
C983 C982 1.477 . S
C983 H1003 0.930 . S
C984 N980 1.362 1_556 S
C984 C981 1.431 . S
C984 C994 1.476 . S
H985 C979 0.925 1_554 S
C986 O977 1.250 . S
C986 O978 1.258 . S
O987 Mn972 2.162 . S
O987 C975 1.281 . S
O988 Mn972 2.297 . S
O988 C975 1.236 . S
N989 Mn973 2.282 . S
N989 C990 1.328 . S
N989 C994 1.318 1_554 S
C990 N989 1.328 . S
C990 C991 1.457 1_554 S
C990 H995 0.929 . S
C991 C990 1.457 1_556 S
C991 C992 1.291 . S
C991 H1004 0.931 . S
C992 C991 1.291 . S
C992 C993 1.373 . S
C992 H1005 0.929 . S
C993 C992 1.373 . S
C993 C994 1.396 . S
C993 C1000 1.403 . S
C994 C984 1.476 . S
C994 N989 1.318 1_556 S
C994 C993 1.396 . S
H995 C990 0.929 . S
O996 Mn972 2.385 . S
O996 C974 1.234 1_554 S
O997 Mn972 2.209 . S
O997 Mn973 2.215 . S
O997 C974 1.283 1_554 S
O998 Mn972 2.094 . S
O998 C976 1.240 . S
O999 Mn973 2.117 . S
O999 C976 1.264 . S
C1000 C993 1.403 . S
C1000 C1001 1.399 . S
C1000 H1006 0.929 . S
C1001 C981 1.449 . S
C1001 C1000 1.399 . S
C1001 H1007 0.930 . S
H1002 C982 0.931 . S
H1003 C983 0.930 . S
H1004 C991 0.931 . S
H1005 C992 0.929 . S
H1006 C1000 0.929 . S
H1007 C1001 0.930 . S
Mn1008 O1013 2.095 . S
Mn1008 O1023 2.162 . S
Mn1008 O1024 2.297 . S
Mn1008 O1032 2.385 . S
Mn1008 O1033 2.209 . S
Mn1008 O1034 2.094 . S
Mn1009 O1014 2.121 . S
Mn1009 N1016 2.257 . S
Mn1009 N1025 2.282 . S
Mn1009 O1033 2.215 . S
Mn1009 O1035 2.117 . S
C1010 O1032 1.234 1_556 S
C1010 O1033 1.283 1_556 S
C1011 O1023 1.281 . S
C1011 O1024 1.236 . S
C1012 O1034 1.240 . S
C1012 O1035 1.264 . S
O1013 Mn1008 2.095 . S
O1013 C1022 1.250 . S
O1014 Mn1009 2.121 . S
O1014 C1022 1.258 . S
C1015 N1016 1.326 1_556 S
C1015 C1019 1.465 . S
C1015 H1021 0.925 1_556 S
N1016 Mn1009 2.257 . S
N1016 C1015 1.326 1_554 S
N1016 C1020 1.362 1_554 S
C1017 C1018 1.258 . S
C1017 C1020 1.431 . S
C1017 C1037 1.449 . S
C1018 C1017 1.258 . S
C1018 C1019 1.477 . S
C1018 H1038 0.931 . S
C1019 C1015 1.465 . S
C1019 C1018 1.477 . S
C1019 H1039 0.930 . S
C1020 N1016 1.362 1_556 S
C1020 C1017 1.431 . S
C1020 C1030 1.476 . S
H1021 C1015 0.925 1_554 S
C1022 O1013 1.250 . S
C1022 O1014 1.258 . S
O1023 Mn1008 2.162 . S
O1023 C1011 1.281 . S
O1024 Mn1008 2.297 . S
O1024 C1011 1.236 . S
N1025 Mn1009 2.282 . S
N1025 C1026 1.328 . S
N1025 C1030 1.318 1_554 S
C1026 N1025 1.328 . S
C1026 C1027 1.457 1_554 S
C1026 H1031 0.929 . S
C1027 C1026 1.457 1_556 S
C1027 C1028 1.291 . S
C1027 H1040 0.931 . S
C1028 C1027 1.291 . S
C1028 C1029 1.373 . S
C1028 H1041 0.929 . S
C1029 C1028 1.373 . S
C1029 C1030 1.396 . S
C1029 C1036 1.403 . S
C1030 C1020 1.476 . S
C1030 N1025 1.318 1_556 S
C1030 C1029 1.396 . S
H1031 C1026 0.929 . S
O1032 Mn1008 2.385 . S
O1032 C1010 1.234 1_554 S
O1033 Mn1008 2.209 . S
O1033 Mn1009 2.215 . S
O1033 C1010 1.283 1_554 S
O1034 Mn1008 2.094 . S
O1034 C1012 1.240 . S
O1035 Mn1009 2.117 . S
O1035 C1012 1.264 . S
C1036 C1029 1.403 . S
C1036 C1037 1.399 . S
C1036 H1042 0.929 . S
C1037 C1017 1.449 . S
C1037 C1036 1.399 . S
C1037 H1043 0.930 . S
H1038 C1018 0.931 . S
H1039 C1019 0.930 . S
H1040 C1027 0.931 . S
H1041 C1028 0.929 . S
H1042 C1036 0.929 . S
H1043 C1037 0.930 . S
Mn1044 O1049 2.095 . S
Mn1044 O1059 2.162 . S
Mn1044 O1060 2.297 . S
Mn1044 O1068 2.385 . S
Mn1044 O1069 2.209 . S
Mn1044 O1070 2.094 . S
Mn1045 O1050 2.121 . S
Mn1045 N1052 2.257 . S
Mn1045 N1061 2.282 . S
Mn1045 O1069 2.215 . S
Mn1045 O1071 2.117 . S
C1046 O1068 1.234 1_556 S
C1046 O1069 1.283 1_556 S
C1047 O1059 1.281 . S
C1047 O1060 1.236 . S
C1048 O1070 1.240 . S
C1048 O1071 1.264 . S
O1049 Mn1044 2.095 . S
O1049 C1058 1.250 . S
O1050 Mn1045 2.121 . S
O1050 C1058 1.258 . S
C1051 N1052 1.326 1_556 S
C1051 C1055 1.465 . S
C1051 H1057 0.925 1_556 S
N1052 Mn1045 2.257 . S
N1052 C1051 1.326 1_554 S
N1052 C1056 1.362 1_554 S
C1053 C1054 1.258 . S
C1053 C1056 1.431 . S
C1053 C1073 1.449 . S
C1054 C1053 1.258 . S
C1054 C1055 1.477 . S
C1054 H1074 0.931 . S
C1055 C1051 1.465 . S
C1055 C1054 1.477 . S
C1055 H1075 0.930 . S
C1056 N1052 1.362 1_556 S
C1056 C1053 1.431 . S
C1056 C1066 1.476 . S
H1057 C1051 0.925 1_554 S
C1058 O1049 1.250 . S
C1058 O1050 1.258 . S
O1059 Mn1044 2.162 . S
O1059 C1047 1.281 . S
O1060 Mn1044 2.297 . S
O1060 C1047 1.236 . S
N1061 Mn1045 2.282 . S
N1061 C1062 1.328 . S
N1061 C1066 1.318 1_554 S
C1062 N1061 1.328 . S
C1062 C1063 1.457 1_554 S
C1062 H1067 0.929 . S
C1063 C1062 1.457 1_556 S
C1063 C1064 1.291 . S
C1063 H1076 0.931 . S
C1064 C1063 1.291 . S
C1064 C1065 1.373 . S
C1064 H1077 0.929 . S
C1065 C1064 1.373 . S
C1065 C1066 1.396 . S
C1065 C1072 1.403 . S
C1066 C1056 1.476 . S
C1066 N1061 1.318 1_556 S
C1066 C1065 1.396 . S
H1067 C1062 0.929 . S
O1068 Mn1044 2.385 . S
O1068 C1046 1.234 1_554 S
O1069 Mn1044 2.209 . S
O1069 Mn1045 2.215 . S
O1069 C1046 1.283 1_554 S
O1070 Mn1044 2.094 . S
O1070 C1048 1.240 . S
O1071 Mn1045 2.117 . S
O1071 C1048 1.264 . S
C1072 C1065 1.403 . S
C1072 C1073 1.399 . S
C1072 H1078 0.929 . S
C1073 C1053 1.449 . S
C1073 C1072 1.399 . S
C1073 H1079 0.930 . S
H1074 C1054 0.931 . S
H1075 C1055 0.930 . S
H1076 C1063 0.931 . S
H1077 C1064 0.929 . S
H1078 C1072 0.929 . S
H1079 C1073 0.930 . S
Mn1080 O1085 2.095 . S
Mn1080 O1095 2.162 . S
Mn1080 O1096 2.297 . S
Mn1080 O1104 2.385 . S
Mn1080 O1105 2.209 . S
Mn1080 O1106 2.094 . S
Mn1081 O1086 2.121 . S
Mn1081 N1088 2.257 . S
Mn1081 N1097 2.282 . S
Mn1081 O1105 2.215 . S
Mn1081 O1107 2.117 . S
C1082 O1104 1.234 . S
C1082 O1105 1.283 . S
C1083 O1095 1.281 . S
C1083 O1096 1.236 . S
C1084 O1106 1.240 . S
C1084 O1107 1.264 . S
O1085 Mn1080 2.095 . S
O1085 C1094 1.250 . S
O1086 Mn1081 2.121 . S
O1086 C1094 1.258 . S
C1087 N1088 1.326 . S
C1087 C1091 1.460 . S
C1087 H1093 0.929 . S
N1088 Mn1081 2.257 . S
N1088 C1087 1.326 . S
N1088 C1092 1.362 . S
C1089 C1090 1.258 . S
C1089 C1092 1.431 . S
C1089 C1109 1.449 . S
C1090 C1089 1.258 . S
C1090 C1091 1.477 . S
C1090 H1110 0.931 . S
C1091 C1087 1.460 . S
C1091 C1090 1.477 . S
C1091 H1111 0.930 . S
C1092 N1088 1.362 . S
C1092 C1089 1.431 . S
C1092 C1102 1.476 . S
H1093 C1087 0.929 . S
C1094 O1085 1.250 . S
C1094 O1086 1.258 . S
O1095 Mn1080 2.162 . S
O1095 C1083 1.281 . S
O1096 Mn1080 2.297 . S
O1096 C1083 1.236 . S
N1097 Mn1081 2.282 . S
N1097 C1098 1.328 . S
N1097 C1102 1.318 . S
C1098 N1097 1.328 . S
C1098 C1099 1.457 . S
C1098 H1103 0.929 . S
C1099 C1098 1.457 . S
C1099 C1100 1.291 . S
C1099 H1112 0.931 . S
C1100 C1099 1.291 . S
C1100 C1101 1.373 . S
C1100 H1113 0.929 . S
C1101 C1100 1.373 . S
C1101 C1102 1.396 . S
C1101 C1108 1.403 . S
C1102 C1092 1.476 . S
C1102 N1097 1.318 . S
C1102 C1101 1.396 . S
H1103 C1098 0.929 . S
O1104 Mn1080 2.385 . S
O1104 C1082 1.234 . S
O1105 Mn1080 2.209 . S
O1105 Mn1081 2.215 . S
O1105 C1082 1.283 . S
O1106 Mn1080 2.094 . S
O1106 C1084 1.240 . S
O1107 Mn1081 2.117 . S
O1107 C1084 1.264 . S
C1108 C1101 1.403 . S
C1108 C1109 1.399 . S
C1108 H1114 0.929 . S
C1109 C1089 1.449 . S
C1109 C1108 1.399 . S
C1109 H1115 0.930 . S
H1110 C1090 0.931 . S
H1111 C1091 0.930 . S
H1112 C1099 0.931 . S
H1113 C1100 0.929 . S
H1114 C1108 0.929 . S
H1115 C1109 0.930 . S
Mn1116 O1121 2.095 . S
Mn1116 O1131 2.162 . S
Mn1116 O1132 2.297 . S
Mn1116 O1140 2.385 . S
Mn1116 O1141 2.209 . S
Mn1116 O1142 2.094 . S
Mn1117 O1122 2.121 . S
Mn1117 N1124 2.257 . S
Mn1117 N1133 2.282 . S
Mn1117 O1141 2.215 . S
Mn1117 O1143 2.117 . S
C1118 O1140 1.234 . S
C1118 O1141 1.283 . S
C1119 O1131 1.281 . S
C1119 O1132 1.236 . S
C1120 O1142 1.240 . S
C1120 O1143 1.264 . S
O1121 Mn1116 2.095 . S
O1121 C1130 1.250 . S
O1122 Mn1117 2.121 . S
O1122 C1130 1.258 . S
C1123 N1124 1.326 . S
C1123 C1127 1.460 . S
C1123 H1129 0.929 . S
N1124 Mn1117 2.257 . S
N1124 C1123 1.326 . S
N1124 C1128 1.362 . S
C1125 C1126 1.258 . S
C1125 C1128 1.431 . S
C1125 C1145 1.449 . S
C1126 C1125 1.258 . S
C1126 C1127 1.477 . S
C1126 H1146 0.931 . S
C1127 C1123 1.460 . S
C1127 C1126 1.477 . S
C1127 H1147 0.930 . S
C1128 N1124 1.362 . S
C1128 C1125 1.431 . S
C1128 C1138 1.476 . S
H1129 C1123 0.929 . S
C1130 O1121 1.250 . S
C1130 O1122 1.258 . S
O1131 Mn1116 2.162 . S
O1131 C1119 1.281 . S
O1132 Mn1116 2.297 . S
O1132 C1119 1.236 . S
N1133 Mn1117 2.282 . S
N1133 C1134 1.328 . S
N1133 C1138 1.318 . S
C1134 N1133 1.328 . S
C1134 C1135 1.457 . S
C1134 H1139 0.929 . S
C1135 C1134 1.457 . S
C1135 C1136 1.291 . S
C1135 H1148 0.931 . S
C1136 C1135 1.291 . S
C1136 C1137 1.373 . S
C1136 H1149 0.929 . S
C1137 C1136 1.373 . S
C1137 C1138 1.396 . S
C1137 C1144 1.403 . S
C1138 C1128 1.476 . S
C1138 N1133 1.318 . S
C1138 C1137 1.396 . S
H1139 C1134 0.929 . S
O1140 Mn1116 2.385 . S
O1140 C1118 1.234 . S
O1141 Mn1116 2.209 . S
O1141 Mn1117 2.215 . S
O1141 C1118 1.283 . S
O1142 Mn1116 2.094 . S
O1142 C1120 1.240 . S
O1143 Mn1117 2.117 . S
O1143 C1120 1.264 . S
C1144 C1137 1.403 . S
C1144 C1145 1.399 . S
C1144 H1150 0.929 . S
C1145 C1125 1.449 . S
C1145 C1144 1.399 . S
C1145 H1151 0.930 . S
H1146 C1126 0.931 . S
H1147 C1127 0.930 . S
H1148 C1135 0.931 . S
H1149 C1136 0.929 . S
H1150 C1144 0.929 . S
H1151 C1145 0.930 . S
Mn1152 O1157 2.095 . S
Mn1152 O1167 2.162 . S
Mn1152 O1168 2.297 . S
Mn1152 O1176 2.385 . S
Mn1152 O1177 2.209 . S
Mn1152 O1178 2.094 . S
Mn1153 O1158 2.121 . S
Mn1153 N1160 2.257 . S
Mn1153 N1169 2.282 . S
Mn1153 O1177 2.215 . S
Mn1153 O1179 2.117 . S
C1154 O1176 1.234 . S
C1154 O1177 1.283 . S
C1155 O1167 1.281 . S
C1155 O1168 1.236 . S
C1156 O1178 1.240 . S
C1156 O1179 1.264 . S
O1157 Mn1152 2.095 . S
O1157 C1166 1.250 . S
O1158 Mn1153 2.121 . S
O1158 C1166 1.258 . S
C1159 N1160 1.326 . S
C1159 C1163 1.460 . S
C1159 H1165 0.929 . S
N1160 Mn1153 2.257 . S
N1160 C1159 1.326 . S
N1160 C1164 1.362 . S
C1161 C1162 1.258 . S
C1161 C1164 1.431 . S
C1161 C1181 1.449 . S
C1162 C1161 1.258 . S
C1162 C1163 1.477 . S
C1162 H1182 0.931 . S
C1163 C1159 1.460 . S
C1163 C1162 1.477 . S
C1163 H1183 0.930 . S
C1164 N1160 1.362 . S
C1164 C1161 1.431 . S
C1164 C1174 1.476 . S
H1165 C1159 0.929 . S
C1166 O1157 1.250 . S
C1166 O1158 1.258 . S
O1167 Mn1152 2.162 . S
O1167 C1155 1.281 . S
O1168 Mn1152 2.297 . S
O1168 C1155 1.236 . S
N1169 Mn1153 2.282 . S
N1169 C1170 1.328 . S
N1169 C1174 1.318 . S
C1170 N1169 1.328 . S
C1170 C1171 1.457 . S
C1170 H1175 0.929 . S
C1171 C1170 1.457 . S
C1171 C1172 1.291 . S
C1171 H1184 0.931 . S
C1172 C1171 1.291 . S
C1172 C1173 1.373 . S
C1172 H1185 0.929 . S
C1173 C1172 1.373 . S
C1173 C1174 1.396 . S
C1173 C1180 1.403 . S
C1174 C1164 1.476 . S
C1174 N1169 1.318 . S
C1174 C1173 1.396 . S
H1175 C1170 0.929 . S
O1176 Mn1152 2.385 . S
O1176 C1154 1.234 . S
O1177 Mn1152 2.209 . S
O1177 Mn1153 2.215 . S
O1177 C1154 1.283 . S
O1178 Mn1152 2.094 . S
O1178 C1156 1.240 . S
O1179 Mn1153 2.117 . S
O1179 C1156 1.264 . S
C1180 C1173 1.403 . S
C1180 C1181 1.399 . S
C1180 H1186 0.929 . S
C1181 C1161 1.449 . S
C1181 C1180 1.399 . S
C1181 H1187 0.930 . S
H1182 C1162 0.931 . S
H1183 C1163 0.930 . S
H1184 C1171 0.931 . S
H1185 C1172 0.929 . S
H1186 C1180 0.929 . S
H1187 C1181 0.930 . S
Mn1188 O1193 2.095 . S
Mn1188 O1203 2.162 . S
Mn1188 O1204 2.297 . S
Mn1188 O1212 2.385 . S
Mn1188 O1213 2.209 . S
Mn1188 O1214 2.094 . S
Mn1189 O1194 2.121 . S
Mn1189 N1196 2.257 . S
Mn1189 N1205 2.282 . S
Mn1189 O1213 2.215 . S
Mn1189 O1215 2.117 . S
C1190 O1212 1.234 . S
C1190 O1213 1.283 . S
C1191 O1203 1.281 . S
C1191 O1204 1.236 . S
C1192 O1214 1.240 . S
C1192 O1215 1.264 . S
O1193 Mn1188 2.095 . S
O1193 C1202 1.250 . S
O1194 Mn1189 2.121 . S
O1194 C1202 1.258 . S
C1195 N1196 1.326 . S
C1195 C1199 1.460 . S
C1195 H1201 0.929 . S
N1196 Mn1189 2.257 . S
N1196 C1195 1.326 . S
N1196 C1200 1.362 . S
C1197 C1198 1.258 . S
C1197 C1200 1.431 . S
C1197 C1217 1.449 . S
C1198 C1197 1.258 . S
C1198 C1199 1.477 . S
C1198 H1218 0.931 . S
C1199 C1195 1.460 . S
C1199 C1198 1.477 . S
C1199 H1219 0.930 . S
C1200 N1196 1.362 . S
C1200 C1197 1.431 . S
C1200 C1210 1.476 . S
H1201 C1195 0.929 . S
C1202 O1193 1.250 . S
C1202 O1194 1.258 . S
O1203 Mn1188 2.162 . S
O1203 C1191 1.281 . S
O1204 Mn1188 2.297 . S
O1204 C1191 1.236 . S
N1205 Mn1189 2.282 . S
N1205 C1206 1.328 . S
N1205 C1210 1.318 . S
C1206 N1205 1.328 . S
C1206 C1207 1.457 . S
C1206 H1211 0.929 . S
C1207 C1206 1.457 . S
C1207 C1208 1.291 . S
C1207 H1220 0.931 . S
C1208 C1207 1.291 . S
C1208 C1209 1.373 . S
C1208 H1221 0.929 . S
C1209 C1208 1.373 . S
C1209 C1210 1.396 . S
C1209 C1216 1.403 . S
C1210 C1200 1.476 . S
C1210 N1205 1.318 . S
C1210 C1209 1.396 . S
H1211 C1206 0.929 . S
O1212 Mn1188 2.385 . S
O1212 C1190 1.234 . S
O1213 Mn1188 2.209 . S
O1213 Mn1189 2.215 . S
O1213 C1190 1.283 . S
O1214 Mn1188 2.094 . S
O1214 C1192 1.240 . S
O1215 Mn1189 2.117 . S
O1215 C1192 1.264 . S
C1216 C1209 1.403 . S
C1216 C1217 1.399 . S
C1216 H1222 0.929 . S
C1217 C1197 1.449 . S
C1217 C1216 1.399 . S
C1217 H1223 0.930 . S
H1218 C1198 0.931 . S
H1219 C1199 0.930 . S
H1220 C1207 0.931 . S
H1221 C1208 0.929 . S
H1222 C1216 0.929 . S
H1223 C1217 0.930 . S
Mn1224 O1229 2.095 . S
Mn1224 O1239 2.162 . S
Mn1224 O1240 2.297 . S
Mn1224 O1248 2.385 . S
Mn1224 O1249 2.209 . S
Mn1224 O1250 2.094 . S
Mn1225 O1230 2.121 . S
Mn1225 N1232 2.257 . S
Mn1225 N1241 2.282 . S
Mn1225 O1249 2.215 . S
Mn1225 O1251 2.117 . S
C1226 O1248 1.234 . S
C1226 O1249 1.283 . S
C1227 O1239 1.281 . S
C1227 O1240 1.236 . S
C1228 O1250 1.240 . S
C1228 O1251 1.264 . S
O1229 Mn1224 2.095 . S
O1229 C1238 1.250 . S
O1230 Mn1225 2.121 . S
O1230 C1238 1.258 . S
C1231 N1232 1.326 . S
C1231 C1235 1.460 . S
C1231 H1237 0.929 . S
N1232 Mn1225 2.257 . S
N1232 C1231 1.326 . S
N1232 C1236 1.362 . S
C1233 C1234 1.258 . S
C1233 C1236 1.431 . S
C1233 C1253 1.449 . S
C1234 C1233 1.258 . S
C1234 C1235 1.477 . S
C1234 H1254 0.931 . S
C1235 C1231 1.460 . S
C1235 C1234 1.477 . S
C1235 H1255 0.930 . S
C1236 N1232 1.362 . S
C1236 C1233 1.431 . S
C1236 C1246 1.476 . S
H1237 C1231 0.929 . S
C1238 O1229 1.250 . S
C1238 O1230 1.258 . S
O1239 Mn1224 2.162 . S
O1239 C1227 1.281 . S
O1240 Mn1224 2.297 . S
O1240 C1227 1.236 . S
N1241 Mn1225 2.282 . S
N1241 C1242 1.328 . S
N1241 C1246 1.318 . S
C1242 N1241 1.328 . S
C1242 C1243 1.457 . S
C1242 H1247 0.929 . S
C1243 C1242 1.457 . S
C1243 C1244 1.291 . S
C1243 H1256 0.931 . S
C1244 C1243 1.291 . S
C1244 C1245 1.373 . S
C1244 H1257 0.929 . S
C1245 C1244 1.373 . S
C1245 C1246 1.396 . S
C1245 C1252 1.403 . S
C1246 C1236 1.476 . S
C1246 N1241 1.318 . S
C1246 C1245 1.396 . S
H1247 C1242 0.929 . S
O1248 Mn1224 2.385 . S
O1248 C1226 1.234 . S
O1249 Mn1224 2.209 . S
O1249 Mn1225 2.215 . S
O1249 C1226 1.283 . S
O1250 Mn1224 2.094 . S
O1250 C1228 1.240 . S
O1251 Mn1225 2.117 . S
O1251 C1228 1.264 . S
C1252 C1245 1.403 . S
C1252 C1253 1.399 . S
C1252 H1258 0.929 . S
C1253 C1233 1.449 . S
C1253 C1252 1.399 . S
C1253 H1259 0.930 . S
H1254 C1234 0.931 . S
H1255 C1235 0.930 . S
H1256 C1243 0.931 . S
H1257 C1244 0.929 . S
H1258 C1252 0.929 . S
H1259 C1253 0.930 . S
Mn1260 O1265 2.095 . S
Mn1260 O1275 2.162 . S
Mn1260 O1276 2.297 . S
Mn1260 O1284 2.385 . S
Mn1260 O1285 2.209 . S
Mn1260 O1286 2.094 . S
Mn1261 O1266 2.121 . S
Mn1261 N1268 2.257 . S
Mn1261 N1277 2.282 . S
Mn1261 O1285 2.215 . S
Mn1261 O1287 2.117 . S
C1262 O1284 1.234 . S
C1262 O1285 1.283 . S
C1263 O1275 1.281 . S
C1263 O1276 1.236 . S
C1264 O1286 1.240 . S
C1264 O1287 1.264 . S
O1265 Mn1260 2.095 . S
O1265 C1274 1.250 . S
O1266 Mn1261 2.121 . S
O1266 C1274 1.258 . S
C1267 N1268 1.326 . S
C1267 C1271 1.460 . S
C1267 H1273 0.929 . S
N1268 Mn1261 2.257 . S
N1268 C1267 1.326 . S
N1268 C1272 1.362 . S
C1269 C1270 1.258 . S
C1269 C1272 1.431 . S
C1269 C1289 1.449 . S
C1270 C1269 1.258 . S
C1270 C1271 1.477 . S
C1270 H1290 0.931 . S
C1271 C1267 1.460 . S
C1271 C1270 1.477 . S
C1271 H1291 0.930 . S
C1272 N1268 1.362 . S
C1272 C1269 1.431 . S
C1272 C1282 1.476 . S
H1273 C1267 0.929 . S
C1274 O1265 1.250 . S
C1274 O1266 1.258 . S
O1275 Mn1260 2.162 . S
O1275 C1263 1.281 . S
O1276 Mn1260 2.297 . S
O1276 C1263 1.236 . S
N1277 Mn1261 2.282 . S
N1277 C1278 1.328 . S
N1277 C1282 1.318 . S
C1278 N1277 1.328 . S
C1278 C1279 1.457 . S
C1278 H1283 0.929 . S
C1279 C1278 1.457 . S
C1279 C1280 1.291 . S
C1279 H1292 0.931 . S
C1280 C1279 1.291 . S
C1280 C1281 1.373 . S
C1280 H1293 0.929 . S
C1281 C1280 1.373 . S
C1281 C1282 1.396 . S
C1281 C1288 1.403 . S
C1282 C1272 1.476 . S
C1282 N1277 1.318 . S
C1282 C1281 1.396 . S
H1283 C1278 0.929 . S
O1284 Mn1260 2.385 . S
O1284 C1262 1.234 . S
O1285 Mn1260 2.209 . S
O1285 Mn1261 2.215 . S
O1285 C1262 1.283 . S
O1286 Mn1260 2.094 . S
O1286 C1264 1.240 . S
O1287 Mn1261 2.117 . S
O1287 C1264 1.264 . S
C1288 C1281 1.403 . S
C1288 C1289 1.399 . S
C1288 H1294 0.929 . S
C1289 C1269 1.449 . S
C1289 C1288 1.399 . S
C1289 H1295 0.930 . S
H1290 C1270 0.931 . S
H1291 C1271 0.930 . S
H1292 C1279 0.931 . S
H1293 C1280 0.929 . S
H1294 C1288 0.929 . S
H1295 C1289 0.930 . S
C1296 C1297 1.387 . S
C1296 H1300 0.950 1_554 S
C1296 C1305 1.390 1_554 S
C1297 C1296 1.387 . S
C1297 C1299 1.387 . S
H1298 C1305 0.950 . S
C1299 C1297 1.387 . S
C1299 C1301 1.390 . S
C1299 H1303 0.950 . S
H1300 C1296 0.950 1_556 S
C1301 C1299 1.390 . S
C1301 C1302 1.387 1_554 S
C1301 H1304 0.948 . S
C1302 C1301 1.387 1_556 S
C1302 C1305 1.387 . S
H1303 C1299 0.950 . S
H1304 C1301 0.948 . S
C1305 C1296 1.390 1_556 S
C1305 H1298 0.950 . S
C1305 C1302 1.387 . S
C1306 C1307 1.387 1_556 S
C1306 H1310 0.950 . S
C1306 C1315 1.390 . S
C1307 C1306 1.387 1_554 S
C1307 C1309 1.387 . S
H1308 C1315 0.950 . S
C1309 C1307 1.387 . S
C1309 C1311 1.390 . S
C1309 H1313 0.950 . S
H1310 C1306 0.950 . S
C1311 C1309 1.390 . S
C1311 C1312 1.387 1_554 S
C1311 H1314 0.950 1_655 S
C1312 C1311 1.387 1_556 S
C1312 C1315 1.387 . S
H1313 C1309 0.950 . S
H1314 C1311 0.950 1_455 S
C1315 C1306 1.390 . S
C1315 H1308 0.950 . S
C1315 C1312 1.387 . S
C1316 C1317 1.387 1_554 S
C1316 H1320 0.950 . S
C1316 C1325 1.390 . S
C1317 C1316 1.387 1_556 S
C1317 C1319 1.387 . S
H1318 C1325 0.950 . S
C1319 C1317 1.387 . S
C1319 C1321 1.390 1_556 S
C1319 H1323 0.950 . S
H1320 C1316 0.950 . S
C1321 C1319 1.390 1_554 S
C1321 C1322 1.387 . S
C1321 H1324 0.950 . S
C1322 C1321 1.387 . S
C1322 C1325 1.387 . S
H1323 C1319 0.950 . S
H1324 C1321 0.950 . S
C1325 C1316 1.390 . S
C1325 H1318 0.950 . S
C1325 C1322 1.387 . S
C1326 C1327 1.387 . S
C1326 H1330 0.950 . S
C1326 C1335 1.390 . S
C1327 C1326 1.387 . S
C1327 C1329 1.387 . S
H1328 C1335 0.950 . S
C1329 C1327 1.387 . S
C1329 C1331 1.390 . S
C1329 H1333 0.950 1_455 S
H1330 C1326 0.950 . S
C1331 C1329 1.390 . S
C1331 C1332 1.387 . S
C1331 H1334 0.950 . S
C1332 C1331 1.387 . S
C1332 C1335 1.387 . S
H1333 C1329 0.950 1_655 S
H1334 C1331 0.950 . S
C1335 C1326 1.390 . S
C1335 H1328 0.950 . S
C1335 C1332 1.387 . S
C1336 C1337 1.387 . S
C1336 H1340 0.950 . S
C1336 C1345 1.390 . S
C1337 C1336 1.387 . S
C1337 C1339 1.387 . S
H1338 C1345 0.950 . S
C1339 C1337 1.387 . S
C1339 C1341 1.390 . S
C1339 H1343 0.950 . S
H1340 C1336 0.950 . S
C1341 C1339 1.390 . S
C1341 C1342 1.387 . S
C1341 H1344 0.950 . S
C1342 C1341 1.387 . S
C1342 C1345 1.387 . S
H1343 C1339 0.950 . S
H1344 C1341 0.950 . S
C1345 C1336 1.390 . S
C1345 H1338 0.950 . S
C1345 C1342 1.387 . S
C1346 C1347 1.387 . S
C1346 H1350 0.950 . S
C1346 C1355 1.390 . S
C1347 C1346 1.387 . S
C1347 C1349 1.387 . S
H1348 C1355 0.950 . S
C1349 C1347 1.387 . S
C1349 C1351 1.390 . S
C1349 H1353 0.950 . S
H1350 C1346 0.950 . S
C1351 C1349 1.390 . S
C1351 C1352 1.387 . S
C1351 H1354 0.950 1_565 S
C1352 C1351 1.387 . S
C1352 C1355 1.387 . S
H1353 C1349 0.950 . S
H1354 C1351 0.950 1_545 S
C1355 C1346 1.390 . S
C1355 H1348 0.950 . S
C1355 C1352 1.387 . S
C1356 C1357 1.388 1_556 S
C1356 H1360 0.952 1_565 S
C1356 C1365 1.388 . S
C1357 C1356 1.388 1_554 S
C1357 C1359 1.387 . S
H1358 C1365 0.950 . S
C1359 C1357 1.387 . S
C1359 C1361 1.390 1_554 S
C1359 H1363 0.950 . S
H1360 C1356 0.952 1_545 S
C1361 C1359 1.390 1_556 S
C1361 C1362 1.387 . S
C1361 H1364 0.950 . S
C1362 C1361 1.387 . S
C1362 C1365 1.387 . S
H1363 C1359 0.950 . S
H1364 C1361 0.950 . S
C1365 C1356 1.388 . S
C1365 H1358 0.950 . S
C1365 C1362 1.387 . S
C1366 C1367 1.387 . S
C1366 H1370 0.950 . S
C1366 C1375 1.390 1_554 S
C1367 C1366 1.387 . S
C1367 C1369 1.387 1_554 S
H1368 C1375 0.950 . S
C1369 C1367 1.387 1_556 S
C1369 C1371 1.390 . S
C1369 H1373 0.950 . S
H1370 C1366 0.950 . S
C1371 C1369 1.390 . S
C1371 C1372 1.387 . S
C1371 H1374 0.950 . S
C1372 C1371 1.387 . S
C1372 C1375 1.387 . S
H1373 C1369 0.950 . S
H1374 C1371 0.950 . S
C1375 C1366 1.390 1_556 S
C1375 H1368 0.950 . S
C1375 C1372 1.387 . S
C1376 C1377 1.387 . S
C1376 H1380 0.950 . S
C1376 C1385 1.390 1_556 S
C1377 C1376 1.387 . S
C1377 C1379 1.387 . S
H1378 C1385 0.950 . S
C1379 C1377 1.387 . S
C1379 C1381 1.390 . S
C1379 H1383 0.950 . S
H1380 C1376 0.950 . S
C1381 C1379 1.390 . S
C1381 C1382 1.387 1_556 S
C1381 H1384 0.950 1_556 S
C1382 C1381 1.387 1_554 S
C1382 C1385 1.387 . S
H1383 C1379 0.950 . S
H1384 C1381 0.950 1_554 S
C1385 C1376 1.390 1_554 S
C1385 H1378 0.950 . S
C1385 C1382 1.387 . S
C1386 C1387 1.387 . S
C1386 H1390 0.950 . S
C1386 C1395 1.390 . S
C1387 C1386 1.387 . S
C1387 C1389 1.387 . S
H1388 C1395 0.950 . S
C1389 C1387 1.387 . S
C1389 C1391 1.396 . S
C1389 H1393 0.950 . S
H1390 C1386 0.950 . S
C1391 C1389 1.396 . S
C1391 C1392 1.386 . S
C1391 H1394 0.945 1_655 S
C1392 C1391 1.386 . S
C1392 C1395 1.387 . S
H1393 C1389 0.950 . S
H1394 C1391 0.945 1_455 S
C1395 C1386 1.390 . S
C1395 H1388 0.950 . S
C1395 C1392 1.387 . S
C1396 C1397 1.387 . S
C1396 H1400 0.950 . S
C1396 C1405 1.390 . S
C1397 C1396 1.387 . S
C1397 C1399 1.387 . S
H1398 C1405 0.950 . S
C1399 C1397 1.387 . S
C1399 C1401 1.390 . S
C1399 H1403 0.950 . S
H1400 C1396 0.950 . S
C1401 C1399 1.390 . S
C1401 C1402 1.387 . S
C1401 H1404 0.950 . S
C1402 C1401 1.387 . S
C1402 C1405 1.387 . S
H1403 C1399 0.950 . S
H1404 C1401 0.950 . S
C1405 C1396 1.390 . S
C1405 H1398 0.950 . S
C1405 C1402 1.387 . S
C1406 C1407 1.387 . S
C1406 H1410 0.950 . S
C1406 C1415 1.390 . S
C1407 C1406 1.387 . S
C1407 C1409 1.387 . S
H1408 C1415 0.950 1_565 S
C1409 C1407 1.387 . S
C1409 C1411 1.390 . S
C1409 H1413 0.950 . S
H1410 C1406 0.950 . S
C1411 C1409 1.390 . S
C1411 C1412 1.387 . S
C1411 H1414 0.950 . S
C1412 C1411 1.387 . S
C1412 C1415 1.387 . S
H1413 C1409 0.950 . S
H1414 C1411 0.950 . S
C1415 C1406 1.390 . S
C1415 H1408 0.950 1_545 S
C1415 C1412 1.387 . S
C1416 C1417 1.387 . S
C1416 H1420 0.950 . S
C1416 C1425 1.390 . S
C1417 C1416 1.387 . S
C1417 C1419 1.387 . S
H1418 C1425 0.950 . S
C1419 C1417 1.387 . S
C1419 C1421 1.390 . S
C1419 H1423 0.950 . S
H1420 C1416 0.950 . S
C1421 C1419 1.390 . S
C1421 C1422 1.387 . S
C1421 H1424 0.950 . S
C1422 C1421 1.387 . S
C1422 C1425 1.387 . S
H1423 C1419 0.950 . S
H1424 C1421 0.950 . S
C1425 C1416 1.390 . S
C1425 H1418 0.950 . S
C1425 C1422 1.387 . S
C1426 C1427 1.387 . S
C1426 H1430 0.950 . S
C1426 C1435 1.390 . S
C1427 C1426 1.387 . S
C1427 C1429 1.387 . S
H1428 C1435 0.950 . S
C1429 C1427 1.387 . S
C1429 C1431 1.390 . S
C1429 H1433 0.950 . S
H1430 C1426 0.950 . S
C1431 C1429 1.390 . S
C1431 C1432 1.387 . S
C1431 H1434 0.950 . S
C1432 C1431 1.387 . S
C1432 C1435 1.387 . S
H1433 C1429 0.950 . S
H1434 C1431 0.950 . S
C1435 C1426 1.390 . S
C1435 H1428 0.950 . S
C1435 C1432 1.387 . S
C1436 C1437 1.387 . S
C1436 H1440 0.950 . S
C1436 C1445 1.390 . S
C1437 C1436 1.387 . S
C1437 C1439 1.387 . S
H1438 C1445 0.950 . S
C1439 C1437 1.387 . S
C1439 C1441 1.390 . S
C1439 H1443 0.950 . S
H1440 C1436 0.950 . S
C1441 C1439 1.390 . S
C1441 C1442 1.387 . S
C1441 H1444 0.950 . S
C1442 C1441 1.387 . S
C1442 C1445 1.387 . S
H1443 C1439 0.950 . S
H1444 C1441 0.950 . S
C1445 C1436 1.390 . S
C1445 H1438 0.950 . S
C1445 C1442 1.387 . S
C1446 C1447 1.387 . S
C1446 H1450 0.950 . S
C1446 C1455 1.390 . S
C1447 C1446 1.387 . S
C1447 C1449 1.387 . S
H1448 C1455 0.950 . S
C1449 C1447 1.387 . S
C1449 C1451 1.390 . S
C1449 H1453 0.950 . S
H1450 C1446 0.950 . S
C1451 C1449 1.390 . S
C1451 C1452 1.387 . S
C1451 H1454 0.950 . S
C1452 C1451 1.387 . S
C1452 C1455 1.387 . S
H1453 C1449 0.950 . S
H1454 C1451 0.950 . S
C1455 C1446 1.390 . S
C1455 H1448 0.950 . S
C1455 C1452 1.387 . S
C1456 C1457 1.387 . S
C1456 H1460 0.950 . S
C1456 C1465 1.390 . S
C1457 C1456 1.387 . S
C1457 C1459 1.387 . S
H1458 C1465 0.950 . S
C1459 C1457 1.387 . S
C1459 C1461 1.390 . S
C1459 H1463 0.950 . S
H1460 C1456 0.950 . S
C1461 C1459 1.390 . S
C1461 C1462 1.387 . S
C1461 H1464 0.950 . S
C1462 C1461 1.387 . S
C1462 C1465 1.387 . S
H1463 C1459 0.950 . S
H1464 C1461 0.950 . S
C1465 C1456 1.390 . S
C1465 H1458 0.950 . S
C1465 C1462 1.387 . S
C1466 C1467 1.387 . S
C1466 H1470 0.950 . S
C1466 C1475 1.390 . S
C1467 C1466 1.387 . S
C1467 C1469 1.387 . S
H1468 C1475 0.950 . S
C1469 C1467 1.387 . S
C1469 C1471 1.390 . S
C1469 H1473 0.950 . S
H1470 C1466 0.950 . S
C1471 C1469 1.390 . S
C1471 C1472 1.387 . S
C1471 H1474 0.950 . S
C1472 C1471 1.387 . S
C1472 C1475 1.387 . S
H1473 C1469 0.950 . S
H1474 C1471 0.950 . S
C1475 C1466 1.390 . S
C1475 H1468 0.950 . S
C1475 C1472 1.387 . S
C1476 C1477 1.387 . S
C1476 H1480 0.950 . S
C1476 C1485 1.390 . S
C1477 C1476 1.387 . S
C1477 C1479 1.387 . S
H1478 C1485 0.950 . S
C1479 C1477 1.387 . S
C1479 C1481 1.390 . S
C1479 H1483 0.950 . S
H1480 C1476 0.950 . S
C1481 C1479 1.390 . S
C1481 C1482 1.387 . S
C1481 H1484 0.950 . S
C1482 C1481 1.387 . S
C1482 C1485 1.387 . S
H1483 C1479 0.950 . S
H1484 C1481 0.950 . S
C1485 C1476 1.390 . S
C1485 H1478 0.950 . S
C1485 C1482 1.387 . S
C1486 C1487 1.387 . S
C1486 H1490 0.950 . S
C1486 C1495 1.390 . S
C1487 C1486 1.387 . S
C1487 C1489 1.387 . S
H1488 C1495 0.950 . S
C1489 C1487 1.387 . S
C1489 C1491 1.390 . S
C1489 H1493 0.950 . S
H1490 C1486 0.950 . S
C1491 C1489 1.390 . S
C1491 C1492 1.387 . S
C1491 H1494 0.950 . S
C1492 C1491 1.387 . S
C1492 C1495 1.387 . S
H1493 C1489 0.950 . S
H1494 C1491 0.950 . S
C1495 C1486 1.390 . S
C1495 H1488 0.950 . S
C1495 C1492 1.387 . S
C1496 C1497 1.387 . S
C1496 H1500 0.950 . S
C1496 C1505 1.390 . S
C1497 C1496 1.387 . S
C1497 C1499 1.387 . S
H1498 C1505 0.950 . S
C1499 C1497 1.387 . S
C1499 C1501 1.390 . S
C1499 H1503 0.950 . S
H1500 C1496 0.950 . S
C1501 C1499 1.390 . S
C1501 C1502 1.387 . S
C1501 H1504 0.950 . S
C1502 C1501 1.387 . S
C1502 C1505 1.387 . S
H1503 C1499 0.950 . S
H1504 C1501 0.950 . S
C1505 C1496 1.390 . S
C1505 H1498 0.950 . S
C1505 C1502 1.387 . S
C1506 C1507 1.387 . S
C1506 H1510 0.950 . S
C1506 C1515 1.390 . S
C1507 C1506 1.387 . S
C1507 C1509 1.387 . S
H1508 C1515 0.950 . S
C1509 C1507 1.387 . S
C1509 C1511 1.390 . S
C1509 H1513 0.950 . S
H1510 C1506 0.950 . S
C1511 C1509 1.390 . S
C1511 C1512 1.387 . S
C1511 H1514 0.950 . S
C1512 C1511 1.387 . S
C1512 C1515 1.387 . S
H1513 C1509 0.950 . S
H1514 C1511 0.950 . S
C1515 C1506 1.390 . S
C1515 H1508 0.950 . S
C1515 C1512 1.387 . S
C1516 C1517 1.387 . S
C1516 H1520 0.950 . S
C1516 C1525 1.390 . S
C1517 C1516 1.387 . S
C1517 C1519 1.387 . S
H1518 C1525 0.950 . S
C1519 C1517 1.387 . S
C1519 C1521 1.390 . S
C1519 H1523 0.950 . S
H1520 C1516 0.950 . S
C1521 C1519 1.390 . S
C1521 C1522 1.387 . S
C1521 H1524 0.950 . S
C1522 C1521 1.387 . S
C1522 C1525 1.387 . S
H1523 C1519 0.950 . S
H1524 C1521 0.950 . S
C1525 C1516 1.390 . S
C1525 H1518 0.950 . S
C1525 C1522 1.387 . S
C1526 C1527 1.387 . S
C1526 H1530 0.950 . S
C1526 C1535 1.390 . S
C1527 C1526 1.387 . S
C1527 C1529 1.387 . S
H1528 C1535 0.950 . S
C1529 C1527 1.387 . S
C1529 C1531 1.390 . S
C1529 H1533 0.950 . S
H1530 C1526 0.950 . S
C1531 C1529 1.390 . S
C1531 C1532 1.387 . S
C1531 H1534 0.950 . S
C1532 C1531 1.387 . S
C1532 C1535 1.387 . S
H1533 C1529 0.950 . S
H1534 C1531 0.950 . S
C1535 C1526 1.390 . S
C1535 H1528 0.950 . S
C1535 C1532 1.387 . S
C1536 C1537 1.387 . S
C1536 H1540 0.950 . S
C1536 C1545 1.390 . S
C1537 C1536 1.387 . S
C1537 C1539 1.387 . S
H1538 C1545 0.950 . S
C1539 C1537 1.387 . S
C1539 C1541 1.390 . S
C1539 H1543 0.950 . S
H1540 C1536 0.950 . S
C1541 C1539 1.390 . S
C1541 C1542 1.387 . S
C1541 H1544 0.950 . S
C1542 C1541 1.387 . S
C1542 C1545 1.387 . S
H1543 C1539 0.950 . S
H1544 C1541 0.950 . S
C1545 C1536 1.390 . S
C1545 H1538 0.950 . S
C1545 C1542 1.387 . S
C1546 C1547 1.387 . S
C1546 H1550 0.950 . S
C1546 C1555 1.390 . S
C1547 C1546 1.387 . S
C1547 C1549 1.387 . S
H1548 C1555 0.950 . S
C1549 C1547 1.387 . S
C1549 C1551 1.390 . S
C1549 H1553 0.950 . S
H1550 C1546 0.950 . S
C1551 C1549 1.390 . S
C1551 C1552 1.387 . S
C1551 H1554 0.950 . S
C1552 C1551 1.387 . S
C1552 C1555 1.387 . S
H1553 C1549 0.950 . S
H1554 C1551 0.950 . S
C1555 C1546 1.390 . S
C1555 H1548 0.950 . S
C1555 C1552 1.387 . S
C1556 C1557 1.387 . S
C1556 H1560 0.950 . S
C1556 C1565 1.390 . S
C1557 C1556 1.387 . S
C1557 C1559 1.387 . S
H1558 C1565 0.950 . S
C1559 C1557 1.387 . S
C1559 C1561 1.390 . S
C1559 H1563 0.950 . S
H1560 C1556 0.950 . S
C1561 C1559 1.390 . S
C1561 C1562 1.387 . S
C1561 H1564 0.950 . S
C1562 C1561 1.387 . S
C1562 C1565 1.387 . S
H1563 C1559 0.950 . S
H1564 C1561 0.950 . S
C1565 C1556 1.390 . S
C1565 H1558 0.950 . S
C1565 C1562 1.387 . S
C1566 C1567 1.387 . S
C1566 H1570 0.950 . S
C1566 C1575 1.390 . S
C1567 C1566 1.387 . S
C1567 C1569 1.387 . S
H1568 C1575 0.950 . S
C1569 C1567 1.387 . S
C1569 C1571 1.390 . S
C1569 H1573 0.950 . S
H1570 C1566 0.950 . S
C1571 C1569 1.390 . S
C1571 C1572 1.387 . S
C1571 H1574 0.950 . S
C1572 C1571 1.387 . S
C1572 C1575 1.387 . S
H1573 C1569 0.950 . S
H1574 C1571 0.950 . S
C1575 C1566 1.390 . S
C1575 H1568 0.950 . S
C1575 C1572 1.387 . S
C1576 C1577 1.387 . S
C1576 H1580 0.950 . S
C1576 C1585 1.390 . S
C1577 C1576 1.387 . S
C1577 C1579 1.387 . S
H1578 C1585 0.950 . S
C1579 C1577 1.387 . S
C1579 C1581 1.390 . S
C1579 H1583 0.950 . S
H1580 C1576 0.950 . S
C1581 C1579 1.390 . S
C1581 C1582 1.387 . S
C1581 H1584 0.950 . S
C1582 C1581 1.387 . S
C1582 C1585 1.387 . S
H1583 C1579 0.950 . S
H1584 C1581 0.950 . S
C1585 C1576 1.390 . S
C1585 H1578 0.950 . S
C1585 C1582 1.387 . S
C1586 C1587 1.387 . S
C1586 H1590 0.950 . S
C1586 C1595 1.390 . S
C1587 C1586 1.387 . S
C1587 C1589 1.387 . S
H1588 C1595 0.950 . S
C1589 C1587 1.387 . S
C1589 C1591 1.390 . S
C1589 H1593 0.950 . S
H1590 C1586 0.950 . S
C1591 C1589 1.390 . S
C1591 C1592 1.387 . S
C1591 H1594 0.950 . S
C1592 C1591 1.387 . S
C1592 C1595 1.387 . S
H1593 C1589 0.950 . S
H1594 C1591 0.950 . S
C1595 C1586 1.390 . S
C1595 H1588 0.950 . S
C1595 C1592 1.387 . S
C1596 C1597 1.387 . S
C1596 H1600 0.950 . S
C1596 C1605 1.390 . S
C1597 C1596 1.387 . S
C1597 C1599 1.387 . S
H1598 C1605 0.950 . S
C1599 C1597 1.387 . S
C1599 C1601 1.390 . S
C1599 H1603 0.950 . S
H1600 C1596 0.950 . S
C1601 C1599 1.390 . S
C1601 C1602 1.387 . S
C1601 H1604 0.950 . S
C1602 C1601 1.387 . S
C1602 C1605 1.387 . S
H1603 C1599 0.950 . S
H1604 C1601 0.950 . S
C1605 C1596 1.390 . S
C1605 H1598 0.950 . S
C1605 C1602 1.387 . S
C1606 C1607 1.387 . S
C1606 H1610 0.950 . S
C1606 C1615 1.390 . S
C1607 C1606 1.387 . S
C1607 C1609 1.387 . S
H1608 C1615 0.950 . S
C1609 C1607 1.387 . S
C1609 C1611 1.390 . S
C1609 H1613 0.950 . S
H1610 C1606 0.950 . S
C1611 C1609 1.390 . S
C1611 C1612 1.387 . S
C1611 H1614 0.950 . S
C1612 C1611 1.387 . S
C1612 C1615 1.387 . S
H1613 C1609 0.950 . S
H1614 C1611 0.950 . S
C1615 C1606 1.390 . S
C1615 H1608 0.950 . S
C1615 C1612 1.387 . S
C1616 C1617 1.387 . S
C1616 H1620 0.950 . S
C1616 C1625 1.390 . S
C1617 C1616 1.387 . S
C1617 C1619 1.387 . S
H1618 C1625 0.950 . S
C1619 C1617 1.387 . S
C1619 C1621 1.390 . S
C1619 H1623 0.950 . S
H1620 C1616 0.950 . S
C1621 C1619 1.390 . S
C1621 C1622 1.387 . S
C1621 H1624 0.950 . S
C1622 C1621 1.387 . S
C1622 C1625 1.387 . S
H1623 C1619 0.950 . S
H1624 C1621 0.950 . S
C1625 C1616 1.390 . S
C1625 H1618 0.950 . S
C1625 C1622 1.387 . S
C1626 C1627 1.387 . S
C1626 H1630 0.950 . S
C1626 C1635 1.390 . S
C1627 C1626 1.387 . S
C1627 C1629 1.387 . S
H1628 C1635 0.950 . S
C1629 C1627 1.387 . S
C1629 C1631 1.390 . S
C1629 H1633 0.950 . S
H1630 C1626 0.950 . S
C1631 C1629 1.390 . S
C1631 C1632 1.387 . S
C1631 H1634 0.950 . S
C1632 C1631 1.387 . S
C1632 C1635 1.387 . S
H1633 C1629 0.950 . S
H1634 C1631 0.950 . S
C1635 C1626 1.390 . S
C1635 H1628 0.950 . S
C1635 C1632 1.387 . S
C1636 C1637 1.387 . S
C1636 H1640 0.950 . S
C1636 C1645 1.390 . S
C1637 C1636 1.387 . S
C1637 C1639 1.387 . S
H1638 C1645 0.950 . S
C1639 C1637 1.387 . S
C1639 C1641 1.390 . S
C1639 H1643 0.950 . S
H1640 C1636 0.950 . S
C1641 C1639 1.390 . S
C1641 C1642 1.387 . S
C1641 H1644 0.950 . S
C1642 C1641 1.387 . S
C1642 C1645 1.387 . S
H1643 C1639 0.950 . S
H1644 C1641 0.950 . S
C1645 C1636 1.390 . S
C1645 H1638 0.950 . S
C1645 C1642 1.387 . S
C1646 C1647 1.387 . S
C1646 H1650 0.950 . S
C1646 C1655 1.390 . S
C1647 C1646 1.387 . S
C1647 C1649 1.387 . S
H1648 C1655 0.950 . S
C1649 C1647 1.387 . S
C1649 C1651 1.390 . S
C1649 H1653 0.950 . S
H1650 C1646 0.950 . S
C1651 C1649 1.390 . S
C1651 C1652 1.387 . S
C1651 H1654 0.950 . S
C1652 C1651 1.387 . S
C1652 C1655 1.387 . S
H1653 C1649 0.950 . S
H1654 C1651 0.950 . S
C1655 C1646 1.390 . S
C1655 H1648 0.950 . S
C1655 C1652 1.387 . S
C1656 C1657 1.387 . S
C1656 H1660 0.950 . S
C1656 C1665 1.390 . S
C1657 C1656 1.387 . S
C1657 C1659 1.387 . S
H1658 C1665 0.950 . S
C1659 C1657 1.387 . S
C1659 C1661 1.390 . S
C1659 H1663 0.950 . S
H1660 C1656 0.950 . S
C1661 C1659 1.390 . S
C1661 C1662 1.387 . S
C1661 H1664 0.950 . S
C1662 C1661 1.387 . S
C1662 C1665 1.387 . S
H1663 C1659 0.950 . S
H1664 C1661 0.950 . S
C1665 C1656 1.390 . S
C1665 H1658 0.950 . S
C1665 C1662 1.387 . S
C1666 C1667 1.387 . S
C1666 H1670 0.950 . S
C1666 C1675 1.390 1_565 S
C1667 C1666 1.387 . S
C1667 C1669 1.387 . S
H1668 C1675 0.950 . S
C1669 C1667 1.387 . S
C1669 C1671 1.390 1_565 S
C1669 H1673 0.950 . S
H1670 C1666 0.950 . S
C1671 C1669 1.390 1_545 S
C1671 C1672 1.387 . S
C1671 H1674 0.950 . S
C1672 C1671 1.387 . S
C1672 C1675 1.387 . S
H1673 C1669 0.950 . S
H1674 C1671 0.950 . S
C1675 C1666 1.390 1_545 S
C1675 H1668 0.950 . S
C1675 C1672 1.387 . S
C1676 C1677 1.387 1_455 S
C1676 H1680 0.950 . S
C1676 C1685 1.390 . S
C1677 C1676 1.387 1_655 S
C1677 C1679 1.387 . S
H1678 C1685 0.950 . S
C1679 C1677 1.387 . S
C1679 C1681 1.390 . S
C1679 H1683 0.950 . S
H1680 C1676 0.950 . S
C1681 C1679 1.390 . S
C1681 C1682 1.387 1_655 S
C1681 H1684 0.950 . S
C1682 C1681 1.387 1_455 S
C1682 C1685 1.387 . S
H1683 C1679 0.950 . S
H1684 C1681 0.950 . S
C1685 C1676 1.390 . S
C1685 H1678 0.950 . S
C1685 C1682 1.387 . S
C1686 C1687 1.387 . S
C1686 H1690 0.950 . S
C1686 C1695 1.390 . S
C1687 C1686 1.387 . S
C1687 C1689 1.387 . S
H1688 C1695 0.950 . S
C1689 C1687 1.387 . S
C1689 C1691 1.390 . S
C1689 H1693 0.950 . S
H1690 C1686 0.950 . S
C1691 C1689 1.390 . S
C1691 C1692 1.387 . S
C1691 H1694 0.950 . S
C1692 C1691 1.387 . S
C1692 C1695 1.387 . S
H1693 C1689 0.950 . S
H1694 C1691 0.950 . S
C1695 C1686 1.390 . S
C1695 H1688 0.950 . S
C1695 C1692 1.387 . S
C1696 C1697 1.387 . S
C1696 H1700 0.950 . S
C1696 C1705 1.390 1_545 S
C1697 C1696 1.387 . S
C1697 C1699 1.387 . S
H1698 C1705 0.950 . S
C1699 C1697 1.387 . S
C1699 C1701 1.390 1_545 S
C1699 H1703 0.950 . S
H1700 C1696 0.950 . S
C1701 C1699 1.390 1_565 S
C1701 C1702 1.387 . S
C1701 H1704 0.950 . S
C1702 C1701 1.387 . S
C1702 C1705 1.387 . S
H1703 C1699 0.950 . S
H1704 C1701 0.950 . S
C1705 C1696 1.390 1_565 S
C1705 H1698 0.950 . S
C1705 C1702 1.387 . S
C1706 C1707 1.387 . S
C1706 H1710 0.950 . S
C1706 C1715 1.390 . S
C1707 C1706 1.387 . S
C1707 C1709 1.387 1_655 S
H1708 C1715 0.950 . S
C1709 C1707 1.387 1_455 S
C1709 C1711 1.390 . S
C1709 H1713 0.950 . S
H1710 C1706 0.950 . S
C1711 C1709 1.390 . S
C1711 C1712 1.387 . S
C1711 H1714 0.950 . S
C1712 C1711 1.387 . S
C1712 C1715 1.387 1_455 S
H1713 C1709 0.950 . S
H1714 C1711 0.950 . S
C1715 C1706 1.390 . S
C1715 H1708 0.950 . S
C1715 C1712 1.387 1_655 S
C1716 C1717 1.387 . S
C1716 H1720 0.950 . S
C1716 C1725 1.390 . S
C1717 C1716 1.387 . S
C1717 C1719 1.387 . S
H1718 C1725 0.950 . S
C1719 C1717 1.387 . S
C1719 C1721 1.390 . S
C1719 H1723 0.950 . S
H1720 C1716 0.950 . S
C1721 C1719 1.390 . S
C1721 C1722 1.387 . S
C1721 H1724 0.950 . S
C1722 C1721 1.387 . S
C1722 C1725 1.387 . S
H1723 C1719 0.950 . S
H1724 C1721 0.950 . S
C1725 C1716 1.390 . S
C1725 H1718 0.950 . S
C1725 C1722 1.387 . S
C1726 C1727 1.387 . S
C1726 H1730 0.950 . S
C1726 C1735 1.390 . S
C1727 C1726 1.387 . S
C1727 C1729 1.387 . S
H1728 C1735 0.950 . S
C1729 C1727 1.387 . S
C1729 C1731 1.390 . S
C1729 H1733 0.950 . S
H1730 C1726 0.950 . S
C1731 C1729 1.390 . S
C1731 C1732 1.387 . S
C1731 H1734 0.950 . S
C1732 C1731 1.387 . S
C1732 C1735 1.387 . S
H1733 C1729 0.950 . S
H1734 C1731 0.950 . S
C1735 C1726 1.390 . S
C1735 H1728 0.950 . S
C1735 C1732 1.387 . S
C1736 C1737 1.387 . S
C1736 H1740 0.950 . S
C1736 C1745 1.390 . S
C1737 C1736 1.387 . S
C1737 C1739 1.387 . S
H1738 C1745 0.950 . S
C1739 C1737 1.387 . S
C1739 C1741 1.390 . S
C1739 H1743 0.950 . S
H1740 C1736 0.950 . S
C1741 C1739 1.390 . S
C1741 C1742 1.387 . S
C1741 H1744 0.950 . S
C1742 C1741 1.387 . S
C1742 C1745 1.387 . S
H1743 C1739 0.950 . S
H1744 C1741 0.950 . S
C1745 C1736 1.390 . S
C1745 H1738 0.950 . S
C1745 C1742 1.387 . S
C1746 C1747 1.387 . S
C1746 H1750 0.950 . S
C1746 C1755 1.390 . S
C1747 C1746 1.387 . S
C1747 C1749 1.387 . S
H1748 C1755 0.950 . S
C1749 C1747 1.387 . S
C1749 C1751 1.390 . S
C1749 H1753 0.950 . S
H1750 C1746 0.950 . S
C1751 C1749 1.390 . S
C1751 C1752 1.387 . S
C1751 H1754 0.950 . S
C1752 C1751 1.387 . S
C1752 C1755 1.387 . S
H1753 C1749 0.950 . S
H1754 C1751 0.950 . S
C1755 C1746 1.390 . S
C1755 H1748 0.950 . S
C1755 C1752 1.387 . S
C1756 C1757 1.387 . S
C1756 H1760 0.950 . S
C1756 C1765 1.390 . S
C1757 C1756 1.387 . S
C1757 C1759 1.387 . S
H1758 C1765 0.950 . S
C1759 C1757 1.387 . S
C1759 C1761 1.390 . S
C1759 H1763 0.950 . S
H1760 C1756 0.950 . S
C1761 C1759 1.390 . S
C1761 C1762 1.387 . S
C1761 H1764 0.950 . S
C1762 C1761 1.387 . S
C1762 C1765 1.387 . S
H1763 C1759 0.950 . S
H1764 C1761 0.950 . S
C1765 C1756 1.390 . S
C1765 H1758 0.950 . S
C1765 C1762 1.387 . S
C1766 C1767 1.387 . S
C1766 H1770 0.950 . S
C1766 C1775 1.390 . S
C1767 C1766 1.387 . S
C1767 C1769 1.387 . S
H1768 C1775 0.950 . S
C1769 C1767 1.387 . S
C1769 C1771 1.390 . S
C1769 H1773 0.950 . S
H1770 C1766 0.950 . S
C1771 C1769 1.390 . S
C1771 C1772 1.387 . S
C1771 H1774 0.950 . S
C1772 C1771 1.387 . S
C1772 C1775 1.387 . S
H1773 C1769 0.950 . S
H1774 C1771 0.950 . S
C1775 C1766 1.390 . S
C1775 H1768 0.950 . S
C1775 C1772 1.387 . S
C1776 C1777 1.387 . S
C1776 H1780 0.950 . S
C1776 C1785 1.390 . S
C1777 C1776 1.387 . S
C1777 C1779 1.387 . S
H1778 C1785 0.950 . S
C1779 C1777 1.387 . S
C1779 C1781 1.390 . S
C1779 H1783 0.950 . S
H1780 C1776 0.950 . S
C1781 C1779 1.390 . S
C1781 C1782 1.387 . S
C1781 H1784 0.950 . S
C1782 C1781 1.387 . S
C1782 C1785 1.387 . S
H1783 C1779 0.950 . S
H1784 C1781 0.950 . S
C1785 C1776 1.390 . S
C1785 H1778 0.950 . S
C1785 C1782 1.387 . S
C1786 C1787 1.387 . S
C1786 H1790 0.950 . S
C1786 C1795 1.390 . S
C1787 C1786 1.387 . S
C1787 C1789 1.387 . S
H1788 C1795 0.950 . S
C1789 C1787 1.387 . S
C1789 C1791 1.390 . S
C1789 H1793 0.950 . S
H1790 C1786 0.950 . S
C1791 C1789 1.390 . S
C1791 C1792 1.387 . S
C1791 H1794 0.950 . S
C1792 C1791 1.387 . S
C1792 C1795 1.387 . S
H1793 C1789 0.950 . S
H1794 C1791 0.950 . S
C1795 C1786 1.390 . S
C1795 H1788 0.950 . S
C1795 C1792 1.387 . S
C1796 C1797 1.387 . S
C1796 H1800 0.950 . S
C1796 C1805 1.390 . S
C1797 C1796 1.387 . S
C1797 C1799 1.387 . S
H1798 C1805 0.950 . S
C1799 C1797 1.387 . S
C1799 C1801 1.390 . S
C1799 H1803 0.950 . S
H1800 C1796 0.950 . S
C1801 C1799 1.390 . S
C1801 C1802 1.387 . S
C1801 H1804 0.950 . S
C1802 C1801 1.387 . S
C1802 C1805 1.387 . S
H1803 C1799 0.950 . S
H1804 C1801 0.950 . S
C1805 C1796 1.390 . S
C1805 H1798 0.950 . S
C1805 C1802 1.387 . S
C1806 C1807 1.387 . S
C1806 H1810 0.950 . S
C1806 C1815 1.390 . S
C1807 C1806 1.387 . S
C1807 C1809 1.387 . S
H1808 C1815 0.950 . S
C1809 C1807 1.387 . S
C1809 C1811 1.390 . S
C1809 H1813 0.950 . S
H1810 C1806 0.950 . S
C1811 C1809 1.390 . S
C1811 C1812 1.387 . S
C1811 H1814 0.950 . S
C1812 C1811 1.387 . S
C1812 C1815 1.387 . S
H1813 C1809 0.950 . S
H1814 C1811 0.950 . S
C1815 C1806 1.390 . S
C1815 H1808 0.950 . S
C1815 C1812 1.387 . S
C1816 C1817 1.387 . S
C1816 H1820 0.950 . S
C1816 C1825 1.390 . S
C1817 C1816 1.387 . S
C1817 C1819 1.387 . S
H1818 C1825 0.950 . S
C1819 C1817 1.387 . S
C1819 C1821 1.390 . S
C1819 H1823 0.950 . S
H1820 C1816 0.950 . S
C1821 C1819 1.390 . S
C1821 C1822 1.387 . S
C1821 H1824 0.950 . S
C1822 C1821 1.387 . S
C1822 C1825 1.387 . S
H1823 C1819 0.950 . S
H1824 C1821 0.950 . S
C1825 C1816 1.390 . S
C1825 H1818 0.950 . S
C1825 C1822 1.387 . S
C1826 C1827 1.387 . S
C1826 H1830 0.950 . S
C1826 C1835 1.390 . S
C1827 C1826 1.387 . S
C1827 C1829 1.387 . S
H1828 C1835 0.950 . S
C1829 C1827 1.387 . S
C1829 C1831 1.390 . S
C1829 H1833 0.950 . S
H1830 C1826 0.950 . S
C1831 C1829 1.390 . S
C1831 C1832 1.387 . S
C1831 H1834 0.950 . S
C1832 C1831 1.387 . S
C1832 C1835 1.387 . S
H1833 C1829 0.950 . S
H1834 C1831 0.950 . S
C1835 C1826 1.390 . S
C1835 H1828 0.950 . S
C1835 C1832 1.387 . S
C1836 C1837 1.387 . S
C1836 H1840 0.950 . S
C1836 C1845 1.390 . S
C1837 C1836 1.387 . S
C1837 C1839 1.387 . S
H1838 C1845 0.950 . S
C1839 C1837 1.387 . S
C1839 C1841 1.390 . S
C1839 H1843 0.950 . S
H1840 C1836 0.950 . S
C1841 C1839 1.390 . S
C1841 C1842 1.387 . S
C1841 H1844 0.950 . S
C1842 C1841 1.387 . S
C1842 C1845 1.387 . S
H1843 C1839 0.950 . S
H1844 C1841 0.950 . S
C1845 C1836 1.390 . S
C1845 H1838 0.950 . S
C1845 C1842 1.387 . S
C1846 C1847 1.387 . S
C1846 H1850 0.950 . S
C1846 C1855 1.390 . S
C1847 C1846 1.387 . S
C1847 C1849 1.387 . S
H1848 C1855 0.950 . S
C1849 C1847 1.387 . S
C1849 C1851 1.390 . S
C1849 H1853 0.950 . S
H1850 C1846 0.950 . S
C1851 C1849 1.390 . S
C1851 C1852 1.387 . S
C1851 H1854 0.950 . S
C1852 C1851 1.387 . S
C1852 C1855 1.387 . S
H1853 C1849 0.950 . S
H1854 C1851 0.950 . S
C1855 C1846 1.390 . S
C1855 H1848 0.950 . S
C1855 C1852 1.387 . S
C1856 C1857 1.387 . S
C1856 H1860 0.950 . S
C1856 C1865 1.390 . S
C1857 C1856 1.387 . S
C1857 C1859 1.387 . S
H1858 C1865 0.950 . S
C1859 C1857 1.387 . S
C1859 C1861 1.390 . S
C1859 H1863 0.950 . S
H1860 C1856 0.950 . S
C1861 C1859 1.390 . S
C1861 C1862 1.387 . S
C1861 H1864 0.950 . S
C1862 C1861 1.387 . S
C1862 C1865 1.387 . S
H1863 C1859 0.950 . S
H1864 C1861 0.950 . S
C1865 C1856 1.390 . S
C1865 H1858 0.950 . S
C1865 C1862 1.387 . S
C1866 C1867 1.387 . S
C1866 H1870 0.950 . S
C1866 C1875 1.390 . S
C1867 C1866 1.387 . S
C1867 C1869 1.387 . S
H1868 C1875 0.950 . S
C1869 C1867 1.387 . S
C1869 C1871 1.390 . S
C1869 H1873 0.950 . S
H1870 C1866 0.950 . S
C1871 C1869 1.390 . S
C1871 C1872 1.387 . S
C1871 H1874 0.950 . S
C1872 C1871 1.387 . S
C1872 C1875 1.387 . S
H1873 C1869 0.950 . S
H1874 C1871 0.950 . S
C1875 C1866 1.390 . S
C1875 H1868 0.950 . S
C1875 C1872 1.387 . S
C1876 C1877 1.387 . S
C1876 H1880 0.950 . S
C1876 C1885 1.390 . S
C1877 C1876 1.387 . S
C1877 C1879 1.387 . S
H1878 C1885 0.950 . S
C1879 C1877 1.387 . S
C1879 C1881 1.390 . S
C1879 H1883 0.950 . S
H1880 C1876 0.950 . S
C1881 C1879 1.390 . S
C1881 C1882 1.387 . S
C1881 H1884 0.950 . S
C1882 C1881 1.387 . S
C1882 C1885 1.387 . S
H1883 C1879 0.950 . S
H1884 C1881 0.950 . S
C1885 C1876 1.390 . S
C1885 H1878 0.950 . S
C1885 C1882 1.387 . S
C1886 C1887 1.387 . S
C1886 H1890 0.950 . S
C1886 C1895 1.390 . S
C1887 C1886 1.387 . S
C1887 C1889 1.387 . S
H1888 C1895 0.950 . S
C1889 C1887 1.387 . S
C1889 C1891 1.390 . S
C1889 H1893 0.950 . S
H1890 C1886 0.950 . S
C1891 C1889 1.390 . S
C1891 C1892 1.387 . S
C1891 H1894 0.950 . S
C1892 C1891 1.387 . S
C1892 C1895 1.387 . S
H1893 C1889 0.950 . S
H1894 C1891 0.950 . S
C1895 C1886 1.390 . S
C1895 H1888 0.950 . S
C1895 C1892 1.387 . S
C1896 C1897 1.387 . S
C1896 H1900 0.950 . S
C1896 C1905 1.390 . S
C1897 C1896 1.387 . S
C1897 C1899 1.387 . S
H1898 C1905 0.950 . S
C1899 C1897 1.387 . S
C1899 C1901 1.390 . S
C1899 H1903 0.950 . S
H1900 C1896 0.950 . S
C1901 C1899 1.390 . S
C1901 C1902 1.387 . S
C1901 H1904 0.950 . S
C1902 C1901 1.387 . S
C1902 C1905 1.387 . S
H1903 C1899 0.950 . S
H1904 C1901 0.950 . S
C1905 C1896 1.390 . S
C1905 H1898 0.950 . S
C1905 C1902 1.387 . S
C1906 C1907 1.387 . S
C1906 H1910 0.950 . S
C1906 C1915 1.390 . S
C1907 C1906 1.387 . S
C1907 C1909 1.387 . S
H1908 C1915 0.950 . S
C1909 C1907 1.387 . S
C1909 C1911 1.390 . S
C1909 H1913 0.950 . S
H1910 C1906 0.950 . S
C1911 C1909 1.390 . S
C1911 C1912 1.387 . S
C1911 H1914 0.950 . S
C1912 C1911 1.387 . S
C1912 C1915 1.387 . S
H1913 C1909 0.950 . S
H1914 C1911 0.950 . S
C1915 C1906 1.390 . S
C1915 H1908 0.950 . S
C1915 C1912 1.387 . S
C1916 C1917 1.387 . S
C1916 H1920 0.950 . S
C1916 C1925 1.390 . S
C1917 C1916 1.387 . S
C1917 C1919 1.387 . S
H1918 C1925 0.950 . S
C1919 C1917 1.387 . S
C1919 C1921 1.390 . S
C1919 H1923 0.950 . S
H1920 C1916 0.950 . S
C1921 C1919 1.390 . S
C1921 C1922 1.387 . S
C1921 H1924 0.950 . S
C1922 C1921 1.387 . S
C1922 C1925 1.387 . S
H1923 C1919 0.950 . S
H1924 C1921 0.950 . S
C1925 C1916 1.390 . S
C1925 H1918 0.950 . S
C1925 C1922 1.387 . S
C1926 C1927 1.387 . S
C1926 H1930 0.950 . S
C1926 C1935 1.390 . S
C1927 C1926 1.387 . S
C1927 C1929 1.387 . S
H1928 C1935 0.950 . S
C1929 C1927 1.387 . S
C1929 C1931 1.390 . S
C1929 H1933 0.950 . S
H1930 C1926 0.950 . S
C1931 C1929 1.390 . S
C1931 C1932 1.387 . S
C1931 H1934 0.950 . S
C1932 C1931 1.387 . S
C1932 C1935 1.387 . S
H1933 C1929 0.950 . S
H1934 C1931 0.950 . S
C1935 C1926 1.390 . S
C1935 H1928 0.950 . S
C1935 C1932 1.387 . S
C1936 C1937 1.387 . S
C1936 H1940 0.950 . S
C1936 C1945 1.390 . S
C1937 C1936 1.387 . S
C1937 C1939 1.387 . S
H1938 C1945 0.950 . S
C1939 C1937 1.387 . S
C1939 C1941 1.390 . S
C1939 H1943 0.950 . S
H1940 C1936 0.950 . S
C1941 C1939 1.390 . S
C1941 C1942 1.387 . S
C1941 H1944 0.950 . S
C1942 C1941 1.387 . S
C1942 C1945 1.387 . S
H1943 C1939 0.950 . S
H1944 C1941 0.950 . S
C1945 C1936 1.390 . S
C1945 H1938 0.950 . S
C1945 C1942 1.387 . S
C1946 C1947 1.387 . S
C1946 H1950 0.950 . S
C1946 C1955 1.390 . S
C1947 C1946 1.387 . S
C1947 C1949 1.387 . S
H1948 C1955 0.950 . S
C1949 C1947 1.387 . S
C1949 C1951 1.390 . S
C1949 H1953 0.950 . S
H1950 C1946 0.950 . S
C1951 C1949 1.390 . S
C1951 C1952 1.387 . S
C1951 H1954 0.950 . S
C1952 C1951 1.387 . S
C1952 C1955 1.387 . S
H1953 C1949 0.950 . S
H1954 C1951 0.950 . S
C1955 C1946 1.390 . S
C1955 H1948 0.950 . S
C1955 C1952 1.387 . S
C1956 C1957 1.387 . S
C1956 H1960 0.950 . S
C1956 C1965 1.390 . S
C1957 C1956 1.387 . S
C1957 C1959 1.387 1_455 S
H1958 C1965 0.950 . S
C1959 C1957 1.387 1_655 S
C1959 C1961 1.390 . S
C1959 H1963 0.950 . S
H1960 C1956 0.950 . S
C1961 C1959 1.390 . S
C1961 C1962 1.387 . S
C1961 H1964 0.950 . S
C1962 C1961 1.387 . S
C1962 C1965 1.387 1_655 S
H1963 C1959 0.950 . S
H1964 C1961 0.950 . S
C1965 C1956 1.390 . S
C1965 H1958 0.950 . S
C1965 C1962 1.387 1_455 S
C1966 C1967 1.387 . S
C1966 H1970 0.950 . S
C1966 C1975 1.390 . S
C1967 C1966 1.387 . S
C1967 C1969 1.387 . S
H1968 C1975 0.950 . S
C1969 C1967 1.387 . S
C1969 C1971 1.390 . S
C1969 H1973 0.950 . S
H1970 C1966 0.950 . S
C1971 C1969 1.390 . S
C1971 C1972 1.387 . S
C1971 H1974 0.950 . S
C1972 C1971 1.387 . S
C1972 C1975 1.387 . S
H1973 C1969 0.950 . S
H1974 C1971 0.950 . S
C1975 C1966 1.390 . S
C1975 H1968 0.950 . S
C1975 C1972 1.387 . S
C1976 C1977 1.387 . S
C1976 H1980 0.950 . S
C1976 C1985 1.407 . S
C1977 C1976 1.387 . S
C1977 C1979 1.367 1_545 S
H1978 C1985 0.954 . S
C1979 C1977 1.367 1_565 S
C1979 C1981 1.407 . S
C1979 H1983 0.954 . S
H1980 C1976 0.950 . S
C1981 C1979 1.407 . S
C1981 C1982 1.387 . S
C1981 H1984 0.950 . S
C1982 C1981 1.387 . S
C1982 C1985 1.367 1_565 S
H1983 C1979 0.954 . S
H1984 C1981 0.950 . S
C1985 C1976 1.407 . S
C1985 H1978 0.954 . S
C1985 C1982 1.367 1_545 S
C1986 C1987 1.387 1_554 S
C1986 H1990 0.950 . S
C1986 C1995 1.390 . S
C1987 C1986 1.387 1_556 S
C1987 C1989 1.387 1_545 S
H1988 C1995 0.950 . S
C1989 C1987 1.387 1_565 S
C1989 C1991 1.390 . S
C1989 H1993 0.950 . S
H1990 C1986 0.950 . S
C1991 C1989 1.390 . S
C1991 C1992 1.387 1_556 S
C1991 H1994 0.950 . S
C1992 C1991 1.387 1_554 S
C1992 C1995 1.387 1_565 S
H1993 C1989 0.950 . S
H1994 C1991 0.950 . S
C1995 C1986 1.390 . S
C1995 H1988 0.950 . S
C1995 C1992 1.387 1_545 S
C1996 C1997 1.387 . S
C1996 H2000 0.950 . S
C1996 C2005 1.390 1_655 S
C1997 C1996 1.387 . S
C1997 C1999 1.387 1_556 S
H1998 C2005 0.950 . S
C1999 C1997 1.387 1_554 S
C1999 C2001 1.390 1_655 S
C1999 H2003 0.950 . S
H2000 C1996 0.950 . S
C2001 C1999 1.390 1_455 S
C2001 C2002 1.387 . S
C2001 H2004 0.950 . S
C2002 C2001 1.387 . S
C2002 C2005 1.387 1_554 S
H2003 C1999 0.950 . S
H2004 C2001 0.950 . S
C2005 C1996 1.390 1_455 S
C2005 H1998 0.950 . S
C2005 C2002 1.387 1_556 S
C2006 C2007 1.398 . S
C2006 H2010 0.951 . S
C2006 C2015 1.379 1_556 S
C2007 C2006 1.398 . S
C2007 C2009 1.387 . S
H2008 C2015 0.950 . S
C2009 C2007 1.387 . S
C2009 C2011 1.379 1_556 S
C2009 H2013 0.950 . S
H2010 C2006 0.951 . S
C2011 C2009 1.379 1_554 S
C2011 C2012 1.398 . S
C2011 H2014 0.951 . S
C2012 C2011 1.398 . S
C2012 C2015 1.387 . S
H2013 C2009 0.950 . S
H2014 C2011 0.951 . S
C2015 C2006 1.379 1_554 S
C2015 H2008 0.950 . S
C2015 C2012 1.387 . S
C1297 C14 1.300 . S
C1302 C256 1.290 1_545 S
C1307 C50 1.299 . S
C1312 C292 1.290 1_655 S
C1317 C220 1.288 . S
C1322 C86 1.301 . S
C1327 C400 1.290 1_455 S
C1332 C122 1.299 . S
C1337 C158 1.300 . S
C1342 C328 1.290 . S
C1347 C194 1.299 . S
C1352 C364 1.290 1_565 S
C1357 C40 1.291 1_565 S
C1362 C230 1.299 . S
C1367 C76 1.289 1_455 S
C1372 C266 1.299 . S
C1377 C302 1.301 . S
C1382 C4 1.288 . S
C1387 C338 1.302 . S
C1392 C184 1.288 1_655 S
C1397 C112 1.287 . S
C1402 C374 1.301 . S
C1407 C410 1.299 . S
C1412 C148 1.290 1_545 S
C1417 C688 1.290 . S
C1422 C446 1.299 . S
C1427 C482 1.301 . S
C1432 C724 1.288 . S
C1437 C518 1.299 . S
C1442 C652 1.290 . S
C1447 C832 1.290 . S
C1452 C554 1.299 . S
C1457 C590 1.300 . S
C1462 C760 1.289 . S
C1467 C796 1.288 . S
C1472 C626 1.300 . S
C1477 C472 1.290 . S
C1482 C662 1.300 . S
C1487 C698 1.300 . S
C1492 C508 1.289 . S
C1497 C436 1.288 . S
C1502 C734 1.301 . S
C1507 C770 1.299 . S
C1512 C616 1.291 . S
C1517 C806 1.301 . S
C1522 C544 1.287 . S
C1527 C842 1.301 . S
C1532 C580 1.287 . S
C1537 C1120 1.287 . S
C1542 C878 1.301 . S
C1547 C1156 1.289 . S
C1552 C914 1.301 . S
C1557 C1084 1.290 . S
C1562 C950 1.299 . S
C1567 C986 1.302 . S
C1572 C1264 1.288 . S
C1577 C1022 1.301 . S
C1582 C1192 1.288 . S
C1587 C1228 1.287 . S
C1592 C1058 1.301 . S
C1597 C1094 1.299 . S
C1602 C904 1.290 . S
C1607 C940 1.287 . S
C1612 C1130 1.301 . S
C1617 C868 1.288 . S
C1622 C1166 1.301 . S
C1627 C1202 1.299 . S
C1632 C1048 1.290 . S
C1637 C1238 1.300 . S
C1642 C976 1.289 . S
C1647 C1274 1.301 . S
C1652 C1012 1.288 . S
C1657 C110 1.444 . S
C1662 C2 1.446 . S
C1667 C146 1.444 . S
C1672 C38 1.444 . S
C1677 C74 1.443 . S
C1682 C182 1.445 . S
C1687 C326 1.443 . S
C1692 C218 1.445 . S
C1697 C362 1.444 . S
C1702 C254 1.444 . S
C1707 C398 1.445 . S
C1712 C290 1.447 . S
C1717 C542 1.446 . S
C1722 C434 1.446 . S
C1727 C578 1.444 . S
C1732 C470 1.444 . S
C1737 C506 1.443 . S
C1742 C614 1.445 . S
C1747 C758 1.446 . S
C1752 C650 1.446 . S
C1757 C794 1.444 . S
C1762 C686 1.444 . S
C1767 C830 1.445 . S
C1772 C722 1.444 . S
C1777 C974 1.446 . S
C1782 C866 1.446 . S
C1787 C902 1.444 . S
C1792 C1010 1.444 . S
C1797 C1046 1.446 . S
C1802 C938 1.446 . S
C1807 C1082 1.445 . S
C1812 C1190 1.443 . S
C1817 C1118 1.444 . S
C1822 C1226 1.444 . S
C1827 C1154 1.446 . S
C1832 C1262 1.445 . S
C1837 C3 1.469 . S
C1842 C651 1.469 . S
C1847 C687 1.468 . S
C1852 C39 1.468 . S
C1857 C723 1.468 . S
C1862 C75 1.468 . S
C1867 C1191 1.468 . S
C1872 C111 1.468 . S
C1877 C1227 1.470 . S
C1882 C147 1.470 . S
C1887 C1263 1.468 . S
C1892 C183 1.468 . S
C1897 C219 1.469 . S
C1902 C867 1.469 . S
C1907 C903 1.470 . S
C1912 C255 1.470 . S
C1917 C939 1.468 . S
C1922 C291 1.468 . S
C1927 C327 1.468 . S
C1932 C543 1.468 . S
C1937 C363 1.470 . S
C1942 C579 1.470 . S
C1947 C399 1.469 . S
C1952 C615 1.469 . S
C1957 C1083 1.469 . S
C1962 C435 1.469 . S
C1967 C1119 1.470 . S
C1972 C471 1.470 . S
C1977 C507 1.470 . S
C1982 C1155 1.470 . S
C1987 C759 1.469 . S
C1992 C975 1.469 . S
C1997 C795 1.470 . S
C2002 C1011 1.470 . S
C2007 C831 1.469 . S
C2012 C1047 1.469 . S
