# Generated by pormake.
# Topology sow, (4)-cn, num edge types: 1
# Building blocks:
#     Node 0, Type 0, BuildingBlock: CEKHIL_clean_sbu_0, # of connection points: 4
#     Node 1, Type 0, BuildingBlock: CEKHIL_clean_sbu_0, # of connection points: 4
#     Node 2, Type 0, BuildingBlock: CEKHIL_clean_sbu_0, # of connection points: 4
#     Node 3, Type 0, BuildingBlock: CEKHIL_clean_sbu_0, # of connection points: 4
#     Node 4, Type 0, BuildingBlock: CEKHIL_clean_sbu_0, # of connection points: 4
#     Node 5, Type 0, BuildingBlock: CEKHIL_clean_sbu_0, # of connection points: 4
#     Node 6, Type 0, BuildingBlock: CEKHIL_clean_sbu_0, # of connection points: 4
#     Node 7, Type 0, BuildingBlock: CEKHIL_clean_sbu_0, # of connection points: 4
#     Edge 8, Type (0, 0), BuildingBlock: TEMPAE_clean_linker_10, # of connection points: 2
#     Edge 9, Type (0, 0), BuildingBlock: TEMPAE_clean_linker_10, # of connection points: 2
#     Edge 10, Type (0, 0), BuildingBlock: TEMPAE_clean_linker_10, # of connection points: 2
#     Edge 11, Type (0, 0), BuildingBlock: TEMPAE_clean_linker_10, # of connection points: 2
#     Edge 12, Type (0, 0), BuildingBlock: TEMPAE_clean_linker_10, # of connection points: 2
#     Edge 13, Type (0, 0), BuildingBlock: TEMPAE_clean_linker_10, # of connection points: 2
#     Edge 14, Type (0, 0), BuildingBlock: TEMPAE_clean_linker_10, # of connection points: 2
#     Edge 15, Type (0, 0), BuildingBlock: TEMPAE_clean_linker_10, # of connection points: 2
#     Edge 16, Type (0, 0), BuildingBlock: TEMPAE_clean_linker_10, # of connection points: 2
#     Edge 17, Type (0, 0), BuildingBlock: TEMPAE_clean_linker_10, # of connection points: 2
#     Edge 18, Type (0, 0), BuildingBlock: TEMPAE_clean_linker_10, # of connection points: 2
#     Edge 19, Type (0, 0), BuildingBlock: TEMPAE_clean_linker_10, # of connection points: 2
#     Edge 20, Type (0, 0), BuildingBlock: TEMPAE_clean_linker_10, # of connection points: 2
#     Edge 21, Type (0, 0), BuildingBlock: TEMPAE_clean_linker_10, # of connection points: 2
#     Edge 22, Type (0, 0), BuildingBlock: TEMPAE_clean_linker_10, # of connection points: 2
#     Edge 23, Type (0, 0), BuildingBlock: TEMPAE_clean_linker_10, # of connection points: 2
# Relax obj value: 0.166
# Max RMSD: 0.206
# Mean RMSD: 0.206
data_MOF--net-sow--node1-CEKHIL_clean_sbu_0--edge1-TEMPAE_clean_linker_10
_symmetry_space_group_name_H-M    P1
_symmetry_Int_Tables_number       1
_symmetry_cell_setting            triclinic
loop_
_symmetry_equiv_pos_as_xyz
'x, y, z'
_cell_length_a     39.363011
_cell_length_b     22.361224
_cell_length_c     23.663229
_cell_angle_alpha  90.03492
_cell_angle_beta   89.880438
_cell_angle_gamma 89.97518
loop_
_atom_site_label
_atom_site_type_symbol
_atom_site_fract_x
_atom_site_fract_y
_atom_site_fract_z
_atom_type_partial_charge
Co0 Co 0.135 0.19248 0.05319 0.0
O1 O 0.17525 0.17594 0.00958 0.0
O2 O 0.15321 0.26598 0.02372 0.0
C3 C 0.10193 0.12045 0.01482 0.0
O4 O 0.09342 0.2275 0.09246 0.0
Co5 Co 0.10371 0.09808 0.13471 0.0
O6 O 0.06332 0.15031 0.12685 0.0
C7 C 0.16196 0.17099 0.17258 0.0
C8 C 0.17597 0.23293 0.99893 0.0
C9 C 0.06602 0.20513 0.11301 0.0
O10 O 0.16234 0.20023 0.12551 0.0
O11 O 0.14197 0.12709 0.18244 0.0
O12 O 0.10658 0.17075 0.98853 0.0
O13 O 0.12028 0.11306 0.05941 0.0
Co14 Co 0.34695 0.34601 0.55485 0.0
O15 O 0.30848 0.36547 0.50864 0.0
O16 O 0.32621 0.27348 0.52719 0.0
C17 C 0.38352 0.41134 0.51492 0.0
O18 O 0.38629 0.30912 0.59865 0.0
Co19 Co 0.37897 0.44279 0.63334 0.0
O20 O 0.41746 0.38569 0.63206 0.0
C21 C 0.31832 0.37621 0.67172 0.0
C22 C 0.30543 0.30842 0.50004 0.0
C23 C 0.41346 0.33036 0.6211 0.0
O24 O 0.318 0.34504 0.62578 0.0
O25 O 0.33918 0.41905 0.6807 0.0
O26 O 0.37742 0.36029 0.49091 0.0
O27 O 0.36447 0.42375 0.55785 0.0
Co28 Co 0.64591 0.3447 0.95845 0.0
O29 O 0.68389 0.34963 0.00933 0.0
O30 O 0.6541 0.26754 0.99176 0.0
C31 C 0.61805 0.42649 0.99046 0.0
O32 O 0.60469 0.32214 0.9111 0.0
Co33 Co 0.6309 0.44552 0.87104 0.0
O34 O 0.58648 0.40449 0.86583 0.0
C35 C 0.68054 0.35037 0.84323 0.0
C36 C 0.67794 0.29373 0.02052 0.0
C37 C 0.58271 0.35028 0.88105 0.0
O38 O 0.67659 0.32572 0.89202 0.0
O39 O 0.66563 0.3986 0.82805 0.0
O40 O 0.61607 0.376 0.0172 0.0
O41 O 0.63973 0.42773 0.94934 0.0
Co42 Co 0.84742 0.14254 0.45007 0.0
O43 O 0.81376 0.12023 0.50549 0.0
O44 O 0.82904 0.21313 0.48523 0.0
C45 C 0.88806 0.07637 0.47613 0.0
O46 O 0.8818 0.18356 0.39888 0.0
Co47 Co 0.87132 0.05029 0.35896 0.0
O48 O 0.90516 0.11356 0.34238 0.0
C49 C 0.80659 0.11371 0.34335 0.0
C50 C 0.81107 0.17704 0.51625 0.0
C51 C 0.90362 0.16661 0.36178 0.0
O52 O 0.81217 0.14614 0.38755 0.0
O53 O 0.82533 0.0694 0.32924 0.0
O54 O 0.88378 0.12558 0.50441 0.0
O55 O 0.86528 0.06573 0.43834 0.0
Co56 Co 0.84231 0.83615 0.95733 0.0
O57 O 0.81059 0.83682 0.01909 0.0
O58 O 0.8307 0.75492 0.97785 0.0
C59 C 0.88034 0.90055 0.99356 0.0
O60 O 0.87647 0.81911 0.89465 0.0
Co61 Co 0.85376 0.95416 0.88981 0.0
O62 O 0.89369 0.90872 0.86169 0.0
C63 C 0.79456 0.87924 0.86331 0.0
C64 C 0.81242 0.77898 0.01769 0.0
C65 C 0.89648 0.85196 0.86482 0.0
O66 O 0.80455 0.83988 0.89949 0.0
O67 O 0.80899 0.93005 0.85679 0.0
O68 O 0.88004 0.84509 0.00939 0.0
O69 O 0.85461 0.9172 0.96348 0.0
Co70 Co 0.64903 0.67811 0.45461 0.0
O71 O 0.67842 0.67716 0.51909 0.0
O72 O 0.66155 0.75932 0.47474 0.0
C73 C 0.60926 0.61591 0.48909 0.0
O74 O 0.61687 0.6951 0.38897 0.0
Co75 Co 0.63852 0.55868 0.38885 0.0
O76 O 0.60164 0.60565 0.35325 0.0
C77 C 0.6993 0.63097 0.36552 0.0
C78 C 0.67786 0.73499 0.51665 0.0
C79 C 0.59866 0.66242 0.35588 0.0
O80 O 0.68868 0.67151 0.40015 0.0
O81 O 0.6844 0.58058 0.35909 0.0
O82 O 0.60954 0.6718 0.5036 0.0
O83 O 0.63562 0.59776 0.46132 0.0
Co84 Co 0.348 0.67397 0.04764 0.0
O85 O 0.31813 0.65549 0.98635 0.0
O86 O 0.32219 0.74465 0.02684 0.0
C87 C 0.39447 0.63139 0.00939 0.0
O88 O 0.37803 0.70936 0.10926 0.0
Co89 Co 0.38038 0.56756 0.11403 0.0
O90 O 0.40844 0.63296 0.14578 0.0
C91 C 0.31105 0.60724 0.14318 0.0
C92 C 0.30953 0.71137 0.98692 0.0
C93 C 0.40154 0.68849 0.1414 0.0
O94 O 0.31285 0.64984 0.10639 0.0
O95 O 0.33408 0.56728 0.14875 0.0
O96 O 0.38557 0.68498 0.99466 0.0
O97 O 0.37313 0.60315 0.04103 0.0
Co98 Co 0.14485 0.79225 0.53261 0.0
O99 O 0.18231 0.79328 0.48069 0.0
O100 O 0.15834 0.71104 0.51452 0.0
C101 C 0.11116 0.85761 0.48708 0.0
O102 O 0.10494 0.77532 0.58531 0.0
Co103 Co 0.12716 0.91034 0.59678 0.0
O104 O 0.08459 0.86547 0.61194 0.0
C105 C 0.18329 0.8352 0.63764 0.0
C106 C 0.18046 0.73541 0.48065 0.0
C107 C 0.08221 0.80869 0.60858 0.0
O108 O 0.17642 0.79538 0.59991 0.0
O109 O 0.16861 0.88623 0.64022 0.0
O110 O 0.11287 0.80231 0.47083 0.0
O111 O 0.13365 0.87339 0.52392 0.0
C112 C 0.30473 0.37551 0.77461 0.0
C113 C 0.29589 0.3588 0.71929 0.0
C114 C 0.28579 0.35613 0.82125 0.0
C115 C 0.25685 0.31998 0.8125 0.0
C116 C 0.24726 0.30386 0.75682 0.0
C117 C 0.26714 0.32296 0.71079 0.0
C118 C 0.29724 0.37328 0.87999 0.0
C119 C 0.21618 0.26608 0.74596 0.0
C120 C 0.22541 0.22288 0.93333 0.0
C121 C 0.19875 0.25756 0.95509 0.0
C122 C 0.24479 0.24296 0.88727 0.0
C123 C 0.23692 0.29858 0.8619 0.0
C124 C 0.2104 0.33423 0.8843 0.0
C125 C 0.1918 0.3135 0.93098 0.0
C126 C 0.27343 0.20435 0.86538 0.0
C127 C 0.20114 0.39362 0.85814 0.0
H128 H 0.32719 0.40244 0.78183 0.0
H129 H 0.2602 0.30985 0.66825 0.0
H130 H 0.27672 0.39787 0.90226 0.0
H131 H 0.30269 0.33241 0.90495 0.0
H132 H 0.32039 0.4017 0.87949 0.0
H133 H 0.21145 0.25935 0.70013 0.0
H134 H 0.21922 0.22168 0.76621 0.0
H135 H 0.19348 0.2875 0.76516 0.0
H136 H 0.23086 0.17961 0.95186 0.0
H137 H 0.17102 0.34026 0.94731 0.0
H138 H 0.29755 0.23001 0.86539 0.0
H139 H 0.26829 0.19104 0.82105 0.0
H140 H 0.27698 0.16323 0.89103 0.0
H141 H 0.22339 0.42404 0.85871 0.0
H142 H 0.17973 0.41581 0.8805 0.0
H143 H 0.19394 0.38703 0.81325 0.0
C144 C 0.17317 0.17877 0.2757 0.0
C145 C 0.18364 0.19078 0.22006 0.0
C146 C 0.19239 0.19751 0.3221 0.0
C147 C 0.22326 0.22821 0.31282 0.0
C148 C 0.2342 0.24028 0.25683 0.0
C149 C 0.21401 0.22198 0.21096 0.0
C150 C 0.17942 0.18497 0.38108 0.0
C151 C 0.26728 0.27225 0.24548 0.0
C152 C 0.25801 0.32382 0.43193 0.0
C153 C 0.28229 0.28565 0.45594 0.0
C154 C 0.23854 0.30563 0.38545 0.0
C155 C 0.24377 0.24809 0.36203 0.0
C156 C 0.26785 0.20896 0.38665 0.0
C157 C 0.28668 0.22807 0.43364 0.0
C158 C 0.21258 0.34817 0.36114 0.0
C159 C 0.27421 0.14737 0.36262 0.0
H160 H 0.14942 0.15552 0.28319 0.0
H161 H 0.2222 0.23131 0.1681 0.0
H162 H 0.19807 0.15732 0.40451 0.0
H163 H 0.17642 0.22755 0.40468 0.0
H164 H 0.15462 0.16127 0.38096 0.0
H165 H 0.27257 0.27697 0.19956 0.0
H166 H 0.26669 0.31744 0.2648 0.0
H167 H 0.28856 0.24744 0.2653 0.0
H168 H 0.25453 0.36841 0.44901 0.0
H169 H 0.30565 0.19862 0.45169 0.0
H170 H 0.18707 0.3271 0.36163 0.0
H171 H 0.21888 0.35821 0.31643 0.0
H172 H 0.21127 0.39099 0.3849 0.0
H173 H 0.25046 0.12073 0.36365 0.0
H174 H 0.29415 0.1227 0.38622 0.0
H175 H 0.28214 0.15102 0.31772 0.0
C176 C 0.75861 0.18075 0.31239 0.0
C177 C 0.78077 0.13295 0.30146 0.0
C178 C 0.73847 0.2051 0.26903 0.0
C179 C 0.74131 0.18203 0.2134 0.0
C180 C 0.76243 0.1322 0.20277 0.0
C181 C 0.78142 0.10778 0.24696 0.0
C182 C 0.71529 0.25705 0.2822 0.0
C183 C 0.76674 0.10694 0.14389 0.0
C184 C 0.67843 0.21664 0.09652 0.0
C185 C 0.69479 0.26366 0.06829 0.0
C186 C 0.6926 0.19117 0.14527 0.0
C187 C 0.7243 0.21216 0.16518 0.0
C188 C 0.74108 0.25925 0.13641 0.0
C189 C 0.72587 0.28499 0.08871 0.0
C190 C 0.67362 0.142 0.17557 0.0
C191 C 0.77537 0.2818 0.15545 0.0
H192 H 0.75775 0.20033 0.35429 0.0
H193 H 0.79835 0.07083 0.23765 0.0
H194 H 0.72573 0.29846 0.26311 0.0
H195 H 0.68979 0.24957 0.26358 0.0
H196 H 0.71243 0.2643 0.32842 0.0
H197 H 0.78308 0.06641 0.1432 0.0
H198 H 0.74171 0.09528 0.12557 0.0
H199 H 0.77841 0.14121 0.11605 0.0
H200 H 0.65405 0.20083 0.0814 0.0
H201 H 0.73844 0.32155 0.06706 0.0
H202 H 0.67037 0.15376 0.22083 0.0
H203 H 0.68847 0.09988 0.17384 0.0
H204 H 0.64819 0.13363 0.1569 0.0
H205 H 0.77387 0.29773 0.19977 0.0
H206 H 0.78491 0.31892 0.12859 0.0
H207 H 0.79414 0.24476 0.15425 0.0
C208 C 0.73297 0.29843 0.80807 0.0
C209 C 0.69975 0.31848 0.79916 0.0
C210 C 0.75159 0.27225 0.76362 0.0
C211 C 0.73609 0.26463 0.71 0.0
C212 C 0.70194 0.28232 0.702 0.0
C213 C 0.68438 0.30977 0.74646 0.0
C214 C 0.78815 0.25483 0.77333 0.0
C215 C 0.68416 0.27366 0.64606 0.0
C216 C 0.78971 0.26065 0.57664 0.0
C217 C 0.79081 0.19929 0.56463 0.0
C218 C 0.77252 0.28229 0.62444 0.0
C219 C 0.75591 0.24158 0.66104 0.0
C220 C 0.75677 0.17956 0.64905 0.0
C221 C 0.77425 0.15914 0.60094 0.0
C222 C 0.77205 0.3488 0.63566 0.0
C223 C 0.73907 0.13487 0.68679 0.0
H224 H 0.74472 0.30532 0.84895 0.0
H225 H 0.65842 0.32458 0.74004 0.0
H226 H 0.79229 0.20746 0.7612 0.0
H227 H 0.80493 0.28251 0.74617 0.0
H228 H 0.79593 0.26091 0.81807 0.0
H229 H 0.65676 0.28543 0.6483 0.0
H230 H 0.69636 0.30197 0.61334 0.0
H231 H 0.6865 0.22649 0.632 0.0
H232 H 0.80257 0.29192 0.54892 0.0
H233 H 0.77516 0.1116 0.59209 0.0
H234 H 0.78199 0.35818 0.67861 0.0
H235 H 0.74555 0.36562 0.63423 0.0
H236 H 0.78741 0.3742 0.60442 0.0
H237 H 0.74873 0.13877 0.73064 0.0
H238 H 0.74275 0.08806 0.67222 0.0
H239 H 0.71143 0.14455 0.68815 0.0
C240 C 0.82268 0.72662 0.10786 0.0
C241 C 0.79976 0.74423 0.06586 0.0
C242 C 0.81105 0.70443 0.15991 0.0
C243 C 0.77568 0.69887 0.16947 0.0
C244 C 0.75254 0.71404 0.12585 0.0
C245 C 0.76489 0.73766 0.07481 0.0
C246 C 0.83648 0.69012 0.20562 0.0
C247 C 0.71467 0.7074 0.13388 0.0
C248 C 0.73809 0.60294 0.28582 0.0
C249 C 0.72613 0.64657 0.32378 0.0
C250 C 0.75608 0.61897 0.23688 0.0
C251 C 0.76252 0.68005 0.22575 0.0
C252 C 0.75331 0.72377 0.26637 0.0
C253 C 0.73524 0.70652 0.31496 0.0
C254 C 0.76581 0.57088 0.19503 0.0
C255 C 0.76036 0.78933 0.25662 0.0
H256 H 0.84967 0.73332 0.10108 0.0
H257 H 0.74732 0.75232 0.04242 0.0
H258 H 0.83379 0.72283 0.24063 0.0
H259 H 0.83159 0.64512 0.22354 0.0
H260 H 0.86307 0.69179 0.18984 0.0
H261 H 0.70035 0.71679 0.09446 0.0
H262 H 0.70853 0.66137 0.14813 0.0
H263 H 0.70578 0.73864 0.16723 0.0
H264 H 0.73162 0.55636 0.29248 0.0
H265 H 0.72634 0.74064 0.34398 0.0
H266 H 0.79238 0.57692 0.18047 0.0
H267 H 0.7492 0.5742 0.15732 0.0
H268 H 0.76314 0.52531 0.21317 0.0
H269 H 0.7871 0.7961 0.24317 0.0
H270 H 0.75548 0.81663 0.29503 0.0
H271 H 0.74384 0.80609 0.22213 0.0
C272 C 0.72141 0.79758 0.56513 0.0
C273 C 0.68967 0.7697 0.56543 0.0
C274 C 0.73518 0.82076 0.61541 0.0
C275 C 0.71656 0.81585 0.66666 0.0
C276 C 0.68362 0.7906 0.6661 0.0
C277 C 0.67073 0.76725 0.61551 0.0
C278 C 0.77046 0.84711 0.61432 0.0
C279 C 0.66272 0.78528 0.71945 0.0
C280 C 0.7686 0.80227 0.80093 0.0
C281 C 0.76928 0.86154 0.82021 0.0
C282 C 0.75105 0.78675 0.75151 0.0
C283 C 0.73291 0.83127 0.72149 0.0
C284 C 0.73155 0.89036 0.74292 0.0
C285 C 0.75019 0.90501 0.79161 0.0
C286 C 0.75354 0.72337 0.72973 0.0
C287 C 0.71157 0.93861 0.71323 0.0
H288 H 0.73609 0.79858 0.52632 0.0
H289 H 0.64623 0.74503 0.61544 0.0
H290 H 0.77058 0.89164 0.63497 0.0
H291 H 0.78797 0.81788 0.63852 0.0
H292 H 0.78045 0.85192 0.57061 0.0
H293 H 0.63609 0.77181 0.71058 0.0
H294 H 0.67424 0.7513 0.74768 0.0
H295 H 0.66248 0.82837 0.74273 0.0
H296 H 0.78371 0.76865 0.82228 0.0
H297 H 0.75065 0.95091 0.80636 0.0
H298 H 0.76621 0.7232 0.68778 0.0
H299 H 0.72781 0.70418 0.72398 0.0
H300 H 0.76812 0.69384 0.75863 0.0
H301 H 0.72399 0.94966 0.67243 0.0
H302 H 0.70975 0.98015 0.73885 0.0
H303 H 0.68552 0.92267 0.7036 0.0
C304 C 0.26165 0.7677 0.94171 0.0
C305 C 0.29241 0.7368 0.93734 0.0
C306 C 0.24441 0.78645 0.89269 0.0
C307 C 0.25902 0.77546 0.83873 0.0
C308 C 0.29092 0.74664 0.83478 0.0
C309 C 0.30691 0.7268 0.88409 0.0
C310 C 0.21004 0.81575 0.89845 0.0
C311 C 0.30788 0.73559 0.77839 0.0
C312 C 0.20327 0.76127 0.70863 0.0
C313 C 0.20559 0.81866 0.68522 0.0
C314 C 0.21994 0.74712 0.75924 0.0
C315 C 0.24033 0.79088 0.78609 0.0
C316 C 0.24373 0.84831 0.76151 0.0
C317 C 0.2258 0.86187 0.71186 0.0
C318 C 0.21506 0.68578 0.7847 0.0
C319 C 0.26621 0.8954 0.78773 0.0
H320 H 0.2505 0.77498 0.98308 0.0
H321 H 0.33093 0.70318 0.88107 0.0
H322 H 0.20989 0.85953 0.87647 0.0
H323 H 0.19049 0.78735 0.87796 0.0
H324 H 0.20272 0.82284 0.94332 0.0
H325 H 0.33405 0.71767 0.78307 0.0
H326 H 0.29276 0.70308 0.75353 0.0
H327 H 0.30907 0.77768 0.75365 0.0
H328 H 0.18707 0.72819 0.68878 0.0
H329 H 0.22745 0.90638 0.69391 0.0
H330 H 0.2052 0.68998 0.82851 0.0
H331 H 0.23979 0.66214 0.78711 0.0
H332 H 0.19715 0.65784 0.75989 0.0
H333 H 0.25692 0.90658 0.83073 0.0
H334 H 0.26706 0.93708 0.76223 0.0
H335 H 0.29246 0.87793 0.79223 0.0
C336 C 0.25909 0.65392 0.18706 0.0
C337 C 0.28427 0.60953 0.18768 0.0
C338 C 0.23892 0.66495 0.23509 0.0
C339 C 0.24452 0.6316 0.28518 0.0
C340 C 0.26791 0.58365 0.28458 0.0
C341 C 0.28718 0.57277 0.23573 0.0
C342 C 0.21333 0.71518 0.23346 0.0
C343 C 0.27492 0.54721 0.33702 0.0
C344 C 0.23089 0.72199 0.41889 0.0
C345 C 0.19937 0.70094 0.43774 0.0
C346 C 0.2465 0.69767 0.3708 0.0
C347 C 0.22966 0.65235 0.33975 0.0
C348 C 0.19839 0.6292 0.35989 0.0
C349 C 0.18376 0.65341 0.40919 0.0
C350 C 0.28042 0.7223 0.35196 0.0
C351 C 0.17941 0.58158 0.32762 0.0
H352 H 0.25628 0.68214 0.15013 0.0
H353 H 0.30629 0.5379 0.2369 0.0
H354 H 0.18904 0.70098 0.25321 0.0
H355 H 0.22309 0.75377 0.25804 0.0
H356 H 0.20819 0.73037 0.18961 0.0
H357 H 0.28983 0.50621 0.32748 0.0
H358 H 0.28957 0.57478 0.36743 0.0
H359 H 0.25092 0.53397 0.35818 0.0
H360 H 0.24292 0.75883 0.44096 0.0
H361 H 0.15907 0.63781 0.42321 0.0
H362 H 0.2774 0.74633 0.31127 0.0
H363 H 0.29872 0.68529 0.34483 0.0
H364 H 0.29141 0.75373 0.38335 0.0
H365 H 0.16956 0.60092 0.28769 0.0
H366 H 0.15765 0.56343 0.35216 0.0
H367 H 0.19656 0.54417 0.316 0.0
C368 C 0.04412 0.29224 0.16692 0.0
C369 C 0.03795 0.24429 0.1302 0.0
C370 C 0.01874 0.31089 0.20491 0.0
C371 C 0.98754 0.27956 0.2062 0.0
C372 C 0.97917 0.24091 0.16082 0.0
C373 C 0.00478 0.22322 0.1234 0.0
C374 C 0.02717 0.35717 0.24896 0.0
C375 C 0.94527 0.20957 0.15782 0.0
C376 C 0.96165 0.191 0.3322 0.0
C377 C 0.928 0.20951 0.33839 0.0
C378 C 0.98332 0.2196 0.29416 0.0
C379 C 0.97069 0.26786 0.26128 0.0
C380 C 0.93833 0.29229 0.27388 0.0
C381 C 0.91703 0.26233 0.31239 0.0
C382 C 0.01811 0.19275 0.28423 0.0
C383 C 0.92469 0.34625 0.24324 0.0
H384 H 0.06967 0.30979 0.17112 0.0
H385 H -8e-05 0.18739 0.09354 0.0
H386 H 0.00389 0.37976 0.26477 0.0
H387 H 0.03993 0.33532 0.28526 0.0
H388 H 0.04487 0.3912 0.23153 0.0
H389 H 0.94089 0.18938 0.11558 0.0
H390 H 0.94439 0.17338 0.1899 0.0
H391 H 0.92428 0.24118 0.1669 0.0
H392 H 0.97011 0.15074 0.3536 0.0
H393 H 0.89101 0.27714 0.31803 0.0
H394 H 0.03789 0.22793 0.28542 0.0
H395 H 0.01901 0.17128 0.24196 0.0
H396 H 0.02464 0.15838 0.31633 0.0
H397 H 0.94497 0.37181 0.22133 0.0
H398 H 0.9115 0.37635 0.27353 0.0
H399 H 0.90557 0.33179 0.21168 0.0
C400 C 0.47342 0.30491 0.63613 0.0
C401 C 0.43927 0.29015 0.64439 0.0
C402 C 0.49779 0.2894 0.67647 0.0
C403 C 0.48728 0.25951 0.72632 0.0
C404 C 0.45418 0.23502 0.72934 0.0
C405 C 0.43024 0.25092 0.68802 0.0
C406 C 0.53331 0.31395 0.67001 0.0
C407 C 0.44263 0.19978 0.78014 0.0
C408 C 0.55855 0.26035 0.83319 0.0
C409 C 0.55397 0.31766 0.85609 0.0
C410 C 0.53494 0.23686 0.79457 0.0
C411 C 0.50643 0.27178 0.77908 0.0
C412 C 0.49981 0.32633 0.80775 0.0
C413 C 0.52382 0.34865 0.84565 0.0
C414 C 0.54241 0.17755 0.76687 0.0
C415 C 0.46924 0.36463 0.79407 0.0
H416 H 0.48032 0.33465 0.60175 0.0
H417 H 0.40376 0.23906 0.69405 0.0
H418 H 0.53593 0.35485 0.69627 0.0
H419 H 0.55241 0.28103 0.68464 0.0
H420 H 0.53902 0.32594 0.62543 0.0
H421 H 0.42123 0.16959 0.76917 0.0
H422 H 0.46376 0.17288 0.79793 0.0
H423 H 0.43368 0.23108 0.8134 0.0
H424 H 0.58189 0.23612 0.84148 0.0
H425 H 0.52018 0.3926 0.86405 0.0
H426 H 0.55991 0.18467 0.73069 0.0
H427 H 0.51903 0.15566 0.75089 0.0
H428 H 0.55525 0.14691 0.79698 0.0
H429 H 0.47181 0.38294 0.75068 0.0
H430 H 0.46635 0.40273 0.82388 0.0
H431 H 0.44567 0.33757 0.79551 0.0
C432 C 0.0204 0.80432 0.62305 0.0
C433 C 0.05255 0.78178 0.6361 0.0
C434 C 0.99302 0.79619 0.65989 0.0
C435 C -0.00154 0.76676 0.71204 0.0
C436 C 0.02988 0.73781 0.72228 0.0
C437 C 0.05674 0.74546 0.68371 0.0
C438 C 0.95974 0.82662 0.64649 0.0
C439 C 0.03654 0.70541 0.77701 0.0
C440 C 0.95442 0.85656 0.82467 0.0
C441 C 0.92447 0.82404 0.83293 0.0
C442 C 0.98 0.83542 0.78896 0.0
C443 C 0.9752 0.78081 0.75965 0.0
C444 C 0.94593 0.74579 0.7705 0.0
C445 C 0.92085 0.76774 0.80757 0.0
C446 C 0.01113 0.87383 0.77973 0.0
C447 C 0.93985 0.6875 0.74006 0.0
H448 H 0.01739 0.83282 0.58648 0.0
H449 H 0.0818 0.7284 0.69385 0.0
H450 H 0.93789 0.79899 0.6604 0.0
H451 H 0.95846 0.86998 0.66927 0.0
H452 H 0.95718 0.83569 0.60059 0.0
H453 H 0.05803 0.6735 0.77278 0.0
H454 H 0.04315 0.73851 0.81017 0.0
H455 H 0.01365 0.68079 0.79144 0.0
H456 H 0.95747 0.89969 0.84503 0.0
H457 H 0.89767 0.74249 0.81411 0.0
H458 H 0.01097 0.892 0.7361 0.0
H459 H 0.03455 0.84675 0.78462 0.0
H460 H 0.0123 0.91205 0.80968 0.0
H461 H 0.9295 0.69698 0.69742 0.0
H462 H 0.92125 0.65906 0.763 0.0
H463 H 0.96384 0.66211 0.73446 0.0
C464 C 0.42175 0.7221 0.23394 0.0
C465 C 0.42256 0.72888 0.17527 0.0
C466 C 0.45054 0.73448 0.26651 0.0
C467 C 0.48079 0.75304 0.23912 0.0
C468 C 0.47958 0.77014 0.18151 0.0
C469 C 0.45027 0.75749 0.14989 0.0
C470 C 0.45006 0.71673 0.32796 0.0
C471 C 0.51083 0.79267 0.15138 0.0
C472 C 0.56069 0.74931 0.33007 0.0
C473 C 0.5714 0.69006 0.32142 0.0
C474 C 0.53202 0.77214 0.30169 0.0
C475 C 0.51382 0.73468 0.26413 0.0
C476 C 0.52558 0.67583 0.25347 0.0
C477 C 0.55419 0.65462 0.28186 0.0
C478 C 0.52076 0.83556 0.31282 0.0
C479 C 0.50706 0.63376 0.21399 0.0
H480 H 0.40011 0.70016 0.25345 0.0
H481 H 0.45066 0.76331 0.10444 0.0
H482 H 0.4572 0.66886 0.33123 0.0
H483 H 0.46827 0.74333 0.35328 0.0
H484 H 0.42424 0.72202 0.34634 0.0
H485 H 0.5043 0.81483 0.11082 0.0
H486 H 0.52497 0.82461 0.17839 0.0
H487 H 0.52799 0.75449 0.1421 0.0
H488 H 0.574 0.7772 0.36025 0.0
H489 H 0.56244 0.60909 0.2741 0.0
H490 H 0.49366 0.83662 0.32575 0.0
H491 H 0.52298 0.86208 0.2734 0.0
H492 H 0.5362 0.8575 0.34615 0.0
H493 H 0.48104 0.62517 0.23018 0.0
H494 H 0.52022 0.59008 0.20938 0.0
H495 H 0.50461 0.65409 0.17148 0.0
C496 C 0.06058 0.04282 0.04591 0.0
C497 C 0.07153 0.08322 0.00441 0.0
C498 C 0.02879 0.0152 0.04234 0.0
C499 C 0.00852 0.02451 0.99389 0.0
C500 C 0.02056 0.06145 0.94958 0.0
C501 C 0.05163 0.09165 0.956 0.0
C502 C 0.01646 0.9777 0.09141 0.0
C503 C 0.00053 0.06937 0.89577 0.0
C504 C 0.9422 0.90402 0.97583 0.0
C505 C 0.91254 0.93366 0.99287 0.0
C506 C 0.97322 0.93428 0.97243 0.0
C507 C 0.97496 0.99467 0.98989 0.0
C508 C 0.94506 0.02472 0.00781 0.0
C509 C 0.91387 0.99413 0.00759 0.0
C510 C 0.00416 0.90143 0.95066 0.0
C511 C 0.9463 0.08815 0.02954 0.0
H512 H 0.07609 0.03468 0.08277 0.0
H513 H 0.06022 0.12213 0.92335 0.0
H514 H 0.99134 0.99419 0.10611 0.0
H515 H 0.01308 0.93062 0.0779 0.0
H516 H 0.03434 0.97856 0.12766 0.0
H517 H 0.0147 0.09565 0.86362 0.0
H518 H 0.99409 0.02505 0.87756 0.0
H519 H 0.97626 0.09261 0.90501 0.0
H520 H 0.94101 0.85725 0.96388 0.0
H521 H 0.89081 0.01671 0.02083 0.0
H522 H 0.02247 0.89427 0.98553 0.0
H523 H 0.01723 0.92848 0.91789 0.0
H524 H -0.00239 0.85717 0.93232 0.0
H525 H 0.96261 0.09008 0.06771 0.0
H526 H 0.9207 0.10554 0.04066 0.0
H527 H 0.95784 0.11811 0.99752 0.0
C528 C 0.57452 0.52477 0.50811 0.0
C529 C 0.57703 0.5832 0.48762 0.0
C530 C 0.54298 0.49531 0.5089 0.0
C531 C 0.51403 0.52431 0.48609 0.0
C532 C 0.51711 0.58217 0.46262 0.0
C533 C 0.5484 0.61153 0.46511 0.0
C534 C 0.5403 0.43457 0.53639 0.0
C535 C 0.48729 0.61355 0.4357 0.0
C536 C 0.4358 0.42977 0.45724 0.0
C537 C 0.41529 0.4444 0.50375 0.0
C538 C 0.46781 0.45647 0.45 0.0
C539 C 0.47991 0.49683 0.49143 0.0
C540 C 0.45907 0.51229 0.53796 0.0
C541 C 0.42665 0.48722 0.5426 0.0
C542 C 0.48873 0.4412 0.39844 0.0
C543 C 0.47133 0.55421 0.58372 0.0
H544 H 0.59685 0.50322 0.5255 0.0
H545 H 0.55058 0.65668 0.44882 0.0
H546 H 0.5232 0.43732 0.57367 0.0
H547 H 0.52895 0.40187 0.50669 0.0
H548 H 0.56538 0.41736 0.55045 0.0
H549 H 0.4948 0.65657 0.41585 0.0
H550 H 0.47574 0.58443 0.40297 0.0
H551 H 0.46744 0.62275 0.46786 0.0
H552 H 0.42696 0.39713 0.42674 0.0
H553 H 0.41078 0.49963 0.57809 0.0
H554 H 0.51231 0.41777 0.41131 0.0
H555 H 0.49647 0.48273 0.37622 0.0
H556 H 0.47469 0.4122 0.36835 0.0
H557 H 0.49575 0.53781 0.60126 0.0
H558 H 0.45276 0.55863 0.61889 0.0
H559 H 0.47605 0.59925 0.56577 0.0
C560 C 0.43517 0.55061 0.98557 0.0
C561 C 0.42931 0.60979 0.00171 0.0
C562 C 0.46835 0.52816 0.98209 0.0
C563 C 0.49599 0.56509 0.99803 0.0
C564 C 0.49007 0.6251 0.01434 0.0
C565 C 0.45672 0.64718 0.01465 0.0
C566 C 0.47376 0.46468 0.96223 0.0
C567 C 0.51866 0.66501 0.03387 0.0
C568 C 0.57047 0.4713 0.04545 0.0
C569 C 0.59106 0.47186 0.99708 0.0
C570 C 0.54071 0.50561 0.04808 0.0
C571 C 0.53072 0.53936 0.00033 0.0
C572 C 0.5525 0.54312 0.95283 0.0
C573 C 0.58294 0.51049 0.95246 0.0
C574 C 0.5189 0.50244 0.10056 0.0
C575 C 0.54239 0.57731 0.90048 0.0
H576 H 0.41377 0.52201 0.97549 0.0
H577 H 0.45189 0.69288 0.02757 0.0
H578 H 0.4933 0.4636 0.92842 0.0
H579 H 0.48322 0.4369 0.99768 0.0
H580 H 0.45005 0.44418 0.94575 0.0
H581 H 0.50984 0.71113 0.04336 0.0
H582 H 0.53032 0.64591 0.07252 0.0
H583 H 0.53887 0.66731 0.00126 0.0
H584 H 0.57697 0.44233 0.08054 0.0
H585 H 0.59909 0.51222 0.91547 0.0
H586 H 0.49761 0.4709 0.09328 0.0
H587 H 0.50779 0.54677 0.11067 0.0
H588 H 0.53357 0.48646 0.13767 0.0
H589 H 0.52151 0.55311 0.87886 0.0
H590 H 0.56387 0.5822 0.87029 0.0
H591 H 0.53274 0.62241 0.91152 0.0
C592 C 0.0486 0.86059 0.47631 0.0
C593 C 0.07944 0.89161 0.47985 0.0
C594 C 0.01755 0.89102 0.47744 0.0
C595 C 0.0174 0.95427 0.4794 0.0
C596 C 0.04857 0.98602 0.47991 0.0
C597 C 0.07932 0.95413 0.48177 0.0
C598 C 0.98506 0.85499 0.47711 0.0
C599 C 0.04942 0.05345 0.47732 0.0
C600 C 0.9342 0.01889 0.42856 0.0
C601 C 0.92038 0.04289 0.47823 0.0
C602 C 0.96679 0.99408 0.42772 0.0
C603 C 0.98455 0.98686 0.47908 0.0
C604 C 0.96976 0.00718 0.53033 0.0
C605 C 0.93839 0.0373 0.52892 0.0
C606 C 0.98193 0.97573 0.37157 0.0
C607 C 0.98652 0.99548 0.58659 0.0
H608 H 0.0486 0.8121 0.4755 0.0
H609 H 0.10324 0.97799 0.48423 0.0
H610 H 0.9652 0.87596 0.50392 0.0
H611 H 0.97518 0.85233 0.43337 0.0
H612 H 0.9893 0.80851 0.49212 0.0
H613 H 0.07572 0.07106 0.47358 0.0
H614 H 0.03441 0.06932 0.44057 0.0
H615 H 0.0376 0.07264 0.51583 0.0
H616 H 0.92016 0.02075 0.38961 0.0
H617 H 0.92748 0.05486 0.56763 0.0
H618 H 0.97743 0.92739 0.3645 0.0
H619 H 0.00975 0.98374 0.37037 0.0
H620 H 0.97006 0.0005 0.336 0.0
H621 H 0.99182 0.94695 0.59123 0.0
H622 H 0.9705 0.01025 0.62271 0.0
H623 H 0.01122 0.01912 0.58881 0.0
loop_
_geom_bond_atom_site_label_1
_geom_bond_atom_site_label_2
_geom_bond_distance
_geom_bond_site_symmetry_2
_ccdc_geom_bond_type
Co0 O1 2.216 . S
Co0 O2 2.091 1_554 S
Co0 O4 2.004 . S
Co0 O10 2.021 . S
Co0 O12 2.137 . S
Co0 O13 2.244 . S
O1 Co0 2.216 . S
O1 C8 1.247 1_554 S
O2 Co0 2.091 1_556 S
O2 C8 1.261 . S
C3 O12 1.247 . S
C3 O13 1.272 . S
O4 Co0 2.004 . S
O4 C9 1.259 . S
Co5 O6 2.061 . S
Co5 O11 2.052 . S
Co5 O13 2.135 . S
O6 Co5 2.061 . S
O6 C9 1.235 . S
C7 O10 1.238 . S
C7 O11 1.241 . S
C8 O1 1.247 1_556 S
C8 O2 1.261 . S
C9 O4 1.259 . S
C9 O6 1.235 . S
O10 Co0 2.021 . S
O10 C7 1.238 . S
O11 Co5 2.052 . S
O11 C7 1.241 . S
O12 Co0 2.137 . S
O12 C3 1.247 . S
O13 Co0 2.244 . S
O13 C3 1.272 . S
O13 Co5 2.135 . S
Co14 O15 2.216 . S
Co14 O16 2.091 . S
Co14 O18 2.004 . S
Co14 O24 2.021 . S
Co14 O26 2.137 . S
Co14 O27 2.244 . S
O15 Co14 2.216 . S
O15 C22 1.247 . S
O16 Co14 2.091 . S
O16 C22 1.261 . S
C17 O26 1.247 . S
C17 O27 1.272 . S
O18 Co14 2.004 . S
O18 C23 1.259 . S
Co19 O20 2.061 . S
Co19 O25 2.052 . S
Co19 O27 2.135 . S
O20 Co19 2.061 . S
O20 C23 1.235 . S
C21 O24 1.238 . S
C21 O25 1.241 . S
C22 O15 1.247 . S
C22 O16 1.261 . S
C23 O18 1.259 . S
C23 O20 1.235 . S
O24 Co14 2.021 . S
O24 C21 1.238 . S
O25 Co19 2.052 . S
O25 C21 1.241 . S
O26 Co14 2.137 . S
O26 C17 1.247 . S
O27 Co14 2.244 . S
O27 C17 1.272 . S
O27 Co19 2.135 . S
Co28 O29 2.216 . S
Co28 O30 2.091 1_556 S
Co28 O32 2.004 . S
Co28 O38 2.021 . S
Co28 O40 2.137 . S
Co28 O41 2.244 . S
O29 Co28 2.216 . S
O29 C36 1.247 1_556 S
O30 Co28 2.091 1_554 S
O30 C36 1.261 . S
C31 O40 1.247 . S
C31 O41 1.272 . S
O32 Co28 2.004 . S
O32 C37 1.259 . S
Co33 O34 2.061 . S
Co33 O39 2.052 . S
Co33 O41 2.135 . S
O34 Co33 2.061 . S
O34 C37 1.235 . S
C35 O38 1.238 . S
C35 O39 1.241 . S
C36 O29 1.247 1_554 S
C36 O30 1.261 . S
C37 O32 1.259 . S
C37 O34 1.235 . S
O38 Co28 2.021 . S
O38 C35 1.238 . S
O39 Co33 2.052 . S
O39 C35 1.241 . S
O40 Co28 2.137 . S
O40 C31 1.247 . S
O41 Co28 2.244 . S
O41 C31 1.272 . S
O41 Co33 2.135 . S
Co42 O43 2.216 . S
Co42 O44 2.091 . S
Co42 O46 2.004 . S
Co42 O52 2.021 . S
Co42 O54 2.137 . S
Co42 O55 2.244 . S
O43 Co42 2.216 . S
O43 C50 1.247 . S
O44 Co42 2.091 . S
O44 C50 1.261 . S
C45 O54 1.247 . S
C45 O55 1.272 . S
O46 Co42 2.004 . S
O46 C51 1.259 . S
Co47 O48 2.061 . S
Co47 O53 2.052 . S
Co47 O55 2.135 . S
O48 Co47 2.061 . S
O48 C51 1.235 . S
C49 O52 1.238 . S
C49 O53 1.241 . S
C50 O43 1.247 . S
C50 O44 1.261 . S
C51 O46 1.259 . S
C51 O48 1.235 . S
O52 Co42 2.021 . S
O52 C49 1.238 . S
O53 Co47 2.052 . S
O53 C49 1.241 . S
O54 Co42 2.137 . S
O54 C45 1.247 . S
O55 Co42 2.244 . S
O55 C45 1.272 . S
O55 Co47 2.135 . S
Co56 O57 2.216 . S
Co56 O58 2.091 1_556 S
Co56 O60 2.004 . S
Co56 O66 2.021 . S
Co56 O68 2.137 . S
Co56 O69 2.244 . S
O57 Co56 2.216 . S
O57 C64 1.247 1_556 S
O58 Co56 2.091 1_554 S
O58 C64 1.261 . S
C59 O68 1.247 . S
C59 O69 1.272 . S
O60 Co56 2.004 . S
O60 C65 1.259 . S
Co61 O62 2.061 . S
Co61 O67 2.052 . S
Co61 O69 2.135 . S
O62 Co61 2.061 . S
O62 C65 1.235 . S
C63 O66 1.238 . S
C63 O67 1.241 . S
C64 O57 1.247 1_554 S
C64 O58 1.261 . S
C65 O60 1.259 . S
C65 O62 1.235 . S
O66 Co56 2.021 . S
O66 C63 1.238 . S
O67 Co61 2.052 . S
O67 C63 1.241 . S
O68 Co56 2.137 . S
O68 C59 1.247 . S
O69 Co56 2.244 . S
O69 C59 1.272 . S
O69 Co61 2.135 . S
Co70 O71 2.216 . S
Co70 O72 2.091 . S
Co70 O74 2.004 . S
Co70 O80 2.021 . S
Co70 O82 2.137 . S
Co70 O83 2.244 . S
O71 Co70 2.216 . S
O71 C78 1.247 . S
O72 Co70 2.091 . S
O72 C78 1.261 . S
C73 O82 1.247 . S
C73 O83 1.272 . S
O74 Co70 2.004 . S
O74 C79 1.259 . S
Co75 O76 2.061 . S
Co75 O81 2.052 . S
Co75 O83 2.135 . S
O76 Co75 2.061 . S
O76 C79 1.235 . S
C77 O80 1.238 . S
C77 O81 1.241 . S
C78 O71 1.247 . S
C78 O72 1.261 . S
C79 O74 1.259 . S
C79 O76 1.235 . S
O80 Co70 2.021 . S
O80 C77 1.238 . S
O81 Co75 2.052 . S
O81 C77 1.241 . S
O82 Co70 2.137 . S
O82 C73 1.247 . S
O83 Co70 2.244 . S
O83 C73 1.272 . S
O83 Co75 2.135 . S
Co84 O85 2.216 . S
Co84 O86 2.091 1_554 S
Co84 O88 2.004 . S
Co84 O94 2.021 . S
Co84 O96 2.137 . S
Co84 O97 2.244 . S
O85 Co84 2.216 . S
O85 C92 1.247 1_554 S
O86 Co84 2.091 1_556 S
O86 C92 1.261 . S
C87 O96 1.247 . S
C87 O97 1.272 . S
O88 Co84 2.004 . S
O88 C93 1.259 . S
Co89 O90 2.061 . S
Co89 O95 2.052 . S
Co89 O97 2.135 . S
O90 Co89 2.061 . S
O90 C93 1.235 . S
C91 O94 1.238 . S
C91 O95 1.241 . S
C92 O85 1.247 1_556 S
C92 O86 1.261 . S
C93 O88 1.259 . S
C93 O90 1.235 . S
O94 Co84 2.021 . S
O94 C91 1.238 . S
O95 Co89 2.052 . S
O95 C91 1.241 . S
O96 Co84 2.137 . S
O96 C87 1.247 . S
O97 Co84 2.244 . S
O97 C87 1.272 . S
O97 Co89 2.135 . S
Co98 O99 2.216 . S
Co98 O100 2.091 . S
Co98 O102 2.004 . S
Co98 O108 2.021 . S
Co98 O110 2.137 . S
Co98 O111 2.244 . S
O99 Co98 2.216 . S
O99 C106 1.247 . S
O100 Co98 2.091 . S
O100 C106 1.261 . S
C101 O110 1.247 . S
C101 O111 1.272 . S
O102 Co98 2.004 . S
O102 C107 1.259 . S
Co103 O104 2.061 . S
Co103 O109 2.052 . S
Co103 O111 2.135 . S
O104 Co103 2.061 . S
O104 C107 1.235 . S
C105 O108 1.238 . S
C105 O109 1.241 . S
C106 O99 1.247 . S
C106 O100 1.261 . S
C107 O102 1.259 . S
C107 O104 1.235 . S
O108 Co98 2.021 . S
O108 C105 1.238 . S
O109 Co103 2.052 . S
O109 C105 1.241 . S
O110 Co98 2.137 . S
O110 C101 1.247 . S
O111 Co98 2.244 . S
O111 C101 1.272 . S
O111 Co103 2.135 . S
C112 C113 1.391 . S
C112 C114 1.394 . S
C112 H128 0.931 . S
C113 C112 1.391 . S
C113 C117 1.376 . S
C114 C112 1.394 . S
C114 C115 1.369 . S
C114 C118 1.531 . S
C115 C114 1.369 . S
C115 C116 1.410 . S
C115 C123 1.503 . S
C116 C115 1.410 . S
C116 C117 1.392 . S
C116 C119 1.511 . S
C117 C113 1.376 . S
C117 C116 1.392 . S
C117 H129 0.929 . S
C118 C114 1.531 . S
C118 H130 0.960 . S
C118 H131 0.962 . S
C118 H132 0.960 . S
C119 C116 1.511 . S
C119 H133 0.961 . S
C119 H134 0.961 . S
C119 H135 0.961 . S
C120 C121 1.370 . S
C120 C122 1.363 . S
C120 H136 0.931 . S
C121 C120 1.370 . S
C121 C125 1.408 . S
C122 C120 1.363 . S
C122 C123 1.370 . S
C122 C126 1.524 . S
C123 C115 1.503 . S
C123 C122 1.370 . S
C123 C124 1.403 . S
C124 C123 1.403 . S
C124 C125 1.404 . S
C124 C127 1.539 . S
C125 C121 1.408 . S
C125 C124 1.404 . S
C125 H137 0.930 . S
C126 C122 1.524 . S
C126 H138 0.956 . S
C126 H139 0.961 . S
C126 H140 0.961 . S
C127 C124 1.539 . S
C127 H141 0.958 . S
C127 H142 0.961 . S
C127 H143 0.960 . S
H128 C112 0.931 . S
H129 C117 0.929 . S
H130 C118 0.960 . S
H131 C118 0.962 . S
H132 C118 0.960 . S
H133 C119 0.961 . S
H134 C119 0.961 . S
H135 C119 0.961 . S
H136 C120 0.931 . S
H137 C125 0.930 . S
H138 C126 0.956 . S
H139 C126 0.961 . S
H140 C126 0.961 . S
H141 C127 0.958 . S
H142 C127 0.961 . S
H143 C127 0.960 . S
C144 C145 1.391 . S
C144 C146 1.394 . S
C144 H160 0.931 . S
C145 C144 1.391 . S
C145 C149 1.376 . S
C146 C144 1.394 . S
C146 C147 1.369 . S
C146 C150 1.531 . S
C147 C146 1.369 . S
C147 C148 1.410 . S
C147 C155 1.503 . S
C148 C147 1.410 . S
C148 C149 1.392 . S
C148 C151 1.511 . S
C149 C145 1.376 . S
C149 C148 1.392 . S
C149 H161 0.929 . S
C150 C146 1.531 . S
C150 H162 0.960 . S
C150 H163 0.962 . S
C150 H164 0.960 . S
C151 C148 1.511 . S
C151 H165 0.961 . S
C151 H166 0.961 . S
C151 H167 0.961 . S
C152 C153 1.370 . S
C152 C154 1.363 . S
C152 H168 0.931 . S
C153 C152 1.370 . S
C153 C157 1.408 . S
C154 C152 1.363 . S
C154 C155 1.370 . S
C154 C158 1.524 . S
C155 C147 1.503 . S
C155 C154 1.370 . S
C155 C156 1.403 . S
C156 C155 1.403 . S
C156 C157 1.404 . S
C156 C159 1.539 . S
C157 C153 1.408 . S
C157 C156 1.404 . S
C157 H169 0.930 . S
C158 C154 1.524 . S
C158 H170 0.956 . S
C158 H171 0.961 . S
C158 H172 0.961 . S
C159 C156 1.539 . S
C159 H173 0.958 . S
C159 H174 0.961 . S
C159 H175 0.960 . S
H160 C144 0.931 . S
H161 C149 0.929 . S
H162 C150 0.960 . S
H163 C150 0.962 . S
H164 C150 0.960 . S
H165 C151 0.961 . S
H166 C151 0.961 . S
H167 C151 0.961 . S
H168 C152 0.931 . S
H169 C157 0.930 . S
H170 C158 0.956 . S
H171 C158 0.961 . S
H172 C158 0.961 . S
H173 C159 0.958 . S
H174 C159 0.961 . S
H175 C159 0.960 . S
C176 C177 1.391 . S
C176 C178 1.394 . S
C176 H192 0.931 . S
C177 C176 1.391 . S
C177 C181 1.376 . S
C178 C176 1.394 . S
C178 C179 1.369 . S
C178 C182 1.531 . S
C179 C178 1.369 . S
C179 C180 1.410 . S
C179 C187 1.503 . S
C180 C179 1.410 . S
C180 C181 1.392 . S
C180 C183 1.511 . S
C181 C177 1.376 . S
C181 C180 1.392 . S
C181 H193 0.929 . S
C182 C178 1.531 . S
C182 H194 0.960 . S
C182 H195 0.962 . S
C182 H196 0.960 . S
C183 C180 1.511 . S
C183 H197 0.961 . S
C183 H198 0.961 . S
C183 H199 0.961 . S
C184 C185 1.370 . S
C184 C186 1.363 . S
C184 H200 0.931 . S
C185 C184 1.370 . S
C185 C189 1.408 . S
C186 C184 1.363 . S
C186 C187 1.370 . S
C186 C190 1.524 . S
C187 C179 1.503 . S
C187 C186 1.370 . S
C187 C188 1.403 . S
C188 C187 1.403 . S
C188 C189 1.404 . S
C188 C191 1.539 . S
C189 C185 1.408 . S
C189 C188 1.404 . S
C189 H201 0.930 . S
C190 C186 1.524 . S
C190 H202 0.956 . S
C190 H203 0.961 . S
C190 H204 0.961 . S
C191 C188 1.539 . S
C191 H205 0.958 . S
C191 H206 0.961 . S
C191 H207 0.960 . S
H192 C176 0.931 . S
H193 C181 0.929 . S
H194 C182 0.960 . S
H195 C182 0.962 . S
H196 C182 0.960 . S
H197 C183 0.961 . S
H198 C183 0.961 . S
H199 C183 0.961 . S
H200 C184 0.931 . S
H201 C189 0.930 . S
H202 C190 0.956 . S
H203 C190 0.961 . S
H204 C190 0.961 . S
H205 C191 0.958 . S
H206 C191 0.961 . S
H207 C191 0.960 . S
C208 C209 1.391 . S
C208 C210 1.394 . S
C208 H224 0.931 . S
C209 C208 1.391 . S
C209 C213 1.376 . S
C210 C208 1.394 . S
C210 C211 1.369 . S
C210 C214 1.531 . S
C211 C210 1.369 . S
C211 C212 1.410 . S
C211 C219 1.503 . S
C212 C211 1.410 . S
C212 C213 1.392 . S
C212 C215 1.511 . S
C213 C209 1.376 . S
C213 C212 1.392 . S
C213 H225 0.929 . S
C214 C210 1.531 . S
C214 H226 0.960 . S
C214 H227 0.962 . S
C214 H228 0.960 . S
C215 C212 1.511 . S
C215 H229 0.961 . S
C215 H230 0.961 . S
C215 H231 0.961 . S
C216 C217 1.370 . S
C216 C218 1.363 . S
C216 H232 0.931 . S
C217 C216 1.370 . S
C217 C221 1.408 . S
C218 C216 1.363 . S
C218 C219 1.370 . S
C218 C222 1.524 . S
C219 C211 1.503 . S
C219 C218 1.370 . S
C219 C220 1.403 . S
C220 C219 1.403 . S
C220 C221 1.404 . S
C220 C223 1.539 . S
C221 C217 1.408 . S
C221 C220 1.404 . S
C221 H233 0.930 . S
C222 C218 1.524 . S
C222 H234 0.956 . S
C222 H235 0.961 . S
C222 H236 0.961 . S
C223 C220 1.539 . S
C223 H237 0.958 . S
C223 H238 0.961 . S
C223 H239 0.960 . S
H224 C208 0.931 . S
H225 C213 0.929 . S
H226 C214 0.960 . S
H227 C214 0.962 . S
H228 C214 0.960 . S
H229 C215 0.961 . S
H230 C215 0.961 . S
H231 C215 0.961 . S
H232 C216 0.931 . S
H233 C221 0.930 . S
H234 C222 0.956 . S
H235 C222 0.961 . S
H236 C222 0.961 . S
H237 C223 0.958 . S
H238 C223 0.961 . S
H239 C223 0.960 . S
C240 C241 1.391 . S
C240 C242 1.394 . S
C240 H256 0.931 . S
C241 C240 1.391 . S
C241 C245 1.376 . S
C242 C240 1.394 . S
C242 C243 1.369 . S
C242 C246 1.531 . S
C243 C242 1.369 . S
C243 C244 1.410 . S
C243 C251 1.503 . S
C244 C243 1.410 . S
C244 C245 1.392 . S
C244 C247 1.511 . S
C245 C241 1.376 . S
C245 C244 1.392 . S
C245 H257 0.929 . S
C246 C242 1.531 . S
C246 H258 0.960 . S
C246 H259 0.962 . S
C246 H260 0.960 . S
C247 C244 1.511 . S
C247 H261 0.961 . S
C247 H262 0.961 . S
C247 H263 0.961 . S
C248 C249 1.370 . S
C248 C250 1.363 . S
C248 H264 0.931 . S
C249 C248 1.370 . S
C249 C253 1.408 . S
C250 C248 1.363 . S
C250 C251 1.370 . S
C250 C254 1.524 . S
C251 C243 1.503 . S
C251 C250 1.370 . S
C251 C252 1.403 . S
C252 C251 1.403 . S
C252 C253 1.404 . S
C252 C255 1.539 . S
C253 C249 1.408 . S
C253 C252 1.404 . S
C253 H265 0.930 . S
C254 C250 1.524 . S
C254 H266 0.956 . S
C254 H267 0.961 . S
C254 H268 0.961 . S
C255 C252 1.539 . S
C255 H269 0.958 . S
C255 H270 0.961 . S
C255 H271 0.960 . S
H256 C240 0.931 . S
H257 C245 0.929 . S
H258 C246 0.960 . S
H259 C246 0.962 . S
H260 C246 0.960 . S
H261 C247 0.961 . S
H262 C247 0.961 . S
H263 C247 0.961 . S
H264 C248 0.931 . S
H265 C253 0.930 . S
H266 C254 0.956 . S
H267 C254 0.961 . S
H268 C254 0.961 . S
H269 C255 0.958 . S
H270 C255 0.961 . S
H271 C255 0.960 . S
C272 C273 1.391 . S
C272 C274 1.394 . S
C272 H288 0.931 . S
C273 C272 1.391 . S
C273 C277 1.376 . S
C274 C272 1.394 . S
C274 C275 1.369 . S
C274 C278 1.531 . S
C275 C274 1.369 . S
C275 C276 1.410 . S
C275 C283 1.503 . S
C276 C275 1.410 . S
C276 C277 1.392 . S
C276 C279 1.511 . S
C277 C273 1.376 . S
C277 C276 1.392 . S
C277 H289 0.929 . S
C278 C274 1.531 . S
C278 H290 0.960 . S
C278 H291 0.962 . S
C278 H292 0.960 . S
C279 C276 1.511 . S
C279 H293 0.961 . S
C279 H294 0.961 . S
C279 H295 0.961 . S
C280 C281 1.370 . S
C280 C282 1.363 . S
C280 H296 0.931 . S
C281 C280 1.370 . S
C281 C285 1.408 . S
C282 C280 1.363 . S
C282 C283 1.370 . S
C282 C286 1.524 . S
C283 C275 1.503 . S
C283 C282 1.370 . S
C283 C284 1.403 . S
C284 C283 1.403 . S
C284 C285 1.404 . S
C284 C287 1.539 . S
C285 C281 1.408 . S
C285 C284 1.404 . S
C285 H297 0.930 . S
C286 C282 1.524 . S
C286 H298 0.956 . S
C286 H299 0.961 . S
C286 H300 0.961 . S
C287 C284 1.539 . S
C287 H301 0.958 . S
C287 H302 0.961 . S
C287 H303 0.960 . S
H288 C272 0.931 . S
H289 C277 0.929 . S
H290 C278 0.960 . S
H291 C278 0.962 . S
H292 C278 0.960 . S
H293 C279 0.961 . S
H294 C279 0.961 . S
H295 C279 0.961 . S
H296 C280 0.931 . S
H297 C285 0.930 . S
H298 C286 0.956 . S
H299 C286 0.961 . S
H300 C286 0.961 . S
H301 C287 0.958 . S
H302 C287 0.961 . S
H303 C287 0.960 . S
C304 C305 1.391 . S
C304 C306 1.394 . S
C304 H320 0.931 . S
C305 C304 1.391 . S
C305 C309 1.376 . S
C306 C304 1.394 . S
C306 C307 1.369 . S
C306 C310 1.531 . S
C307 C306 1.369 . S
C307 C308 1.410 . S
C307 C315 1.503 . S
C308 C307 1.410 . S
C308 C309 1.392 . S
C308 C311 1.511 . S
C309 C305 1.376 . S
C309 C308 1.392 . S
C309 H321 0.929 . S
C310 C306 1.531 . S
C310 H322 0.960 . S
C310 H323 0.962 . S
C310 H324 0.960 . S
C311 C308 1.511 . S
C311 H325 0.961 . S
C311 H326 0.961 . S
C311 H327 0.961 . S
C312 C313 1.370 . S
C312 C314 1.363 . S
C312 H328 0.931 . S
C313 C312 1.370 . S
C313 C317 1.408 . S
C314 C312 1.363 . S
C314 C315 1.370 . S
C314 C318 1.524 . S
C315 C307 1.503 . S
C315 C314 1.370 . S
C315 C316 1.403 . S
C316 C315 1.403 . S
C316 C317 1.404 . S
C316 C319 1.539 . S
C317 C313 1.408 . S
C317 C316 1.404 . S
C317 H329 0.930 . S
C318 C314 1.524 . S
C318 H330 0.956 . S
C318 H331 0.961 . S
C318 H332 0.961 . S
C319 C316 1.539 . S
C319 H333 0.958 . S
C319 H334 0.961 . S
C319 H335 0.960 . S
H320 C304 0.931 . S
H321 C309 0.929 . S
H322 C310 0.960 . S
H323 C310 0.962 . S
H324 C310 0.960 . S
H325 C311 0.961 . S
H326 C311 0.961 . S
H327 C311 0.961 . S
H328 C312 0.931 . S
H329 C317 0.930 . S
H330 C318 0.956 . S
H331 C318 0.961 . S
H332 C318 0.961 . S
H333 C319 0.958 . S
H334 C319 0.961 . S
H335 C319 0.960 . S
C336 C337 1.391 . S
C336 C338 1.394 . S
C336 H352 0.931 . S
C337 C336 1.391 . S
C337 C341 1.376 . S
C338 C336 1.394 . S
C338 C339 1.369 . S
C338 C342 1.531 . S
C339 C338 1.369 . S
C339 C340 1.410 . S
C339 C347 1.503 . S
C340 C339 1.410 . S
C340 C341 1.392 . S
C340 C343 1.511 . S
C341 C337 1.376 . S
C341 C340 1.392 . S
C341 H353 0.929 . S
C342 C338 1.531 . S
C342 H354 0.960 . S
C342 H355 0.962 . S
C342 H356 0.960 . S
C343 C340 1.511 . S
C343 H357 0.961 . S
C343 H358 0.961 . S
C343 H359 0.961 . S
C344 C345 1.370 . S
C344 C346 1.363 . S
C344 H360 0.931 . S
C345 C344 1.370 . S
C345 C349 1.408 . S
C346 C344 1.363 . S
C346 C347 1.370 . S
C346 C350 1.524 . S
C347 C339 1.503 . S
C347 C346 1.370 . S
C347 C348 1.403 . S
C348 C347 1.403 . S
C348 C349 1.404 . S
C348 C351 1.539 . S
C349 C345 1.408 . S
C349 C348 1.404 . S
C349 H361 0.930 . S
C350 C346 1.524 . S
C350 H362 0.956 . S
C350 H363 0.961 . S
C350 H364 0.961 . S
C351 C348 1.539 . S
C351 H365 0.958 . S
C351 H366 0.961 . S
C351 H367 0.960 . S
H352 C336 0.931 . S
H353 C341 0.929 . S
H354 C342 0.960 . S
H355 C342 0.962 . S
H356 C342 0.960 . S
H357 C343 0.961 . S
H358 C343 0.961 . S
H359 C343 0.961 . S
H360 C344 0.931 . S
H361 C349 0.930 . S
H362 C350 0.956 . S
H363 C350 0.961 . S
H364 C350 0.961 . S
H365 C351 0.958 . S
H366 C351 0.961 . S
H367 C351 0.960 . S
C368 C369 1.391 . S
C368 C370 1.394 . S
C368 H384 0.931 . S
C369 C368 1.391 . S
C369 C373 1.376 . S
C370 C368 1.394 . S
C370 C371 1.369 . S
C370 C374 1.531 . S
C371 C370 1.369 . S
C371 C372 1.410 . S
C371 C379 1.503 1_455 S
C372 C371 1.410 . S
C372 C373 1.392 . S
C372 C375 1.511 1_455 S
C373 C369 1.376 . S
C373 C372 1.392 . S
C373 H385 0.929 . S
C374 C370 1.531 . S
C374 H386 0.960 . S
C374 H387 0.962 . S
C374 H388 0.960 . S
C375 C372 1.511 1_655 S
C375 H389 0.961 . S
C375 H390 0.961 . S
C375 H391 0.961 . S
C376 C377 1.370 . S
C376 C378 1.363 . S
C376 H392 0.931 . S
C377 C376 1.370 . S
C377 C381 1.408 . S
C378 C376 1.363 . S
C378 C379 1.370 . S
C378 C382 1.524 . S
C379 C371 1.503 1_655 S
C379 C378 1.370 . S
C379 C380 1.403 . S
C380 C379 1.403 . S
C380 C381 1.404 . S
C380 C383 1.539 . S
C381 C377 1.408 . S
C381 C380 1.404 . S
C381 H393 0.930 . S
C382 C378 1.524 . S
C382 H394 0.956 1_655 S
C382 H395 0.961 . S
C382 H396 0.961 . S
C383 C380 1.539 . S
C383 H397 0.958 . S
C383 H398 0.961 . S
C383 H399 0.960 . S
H384 C368 0.931 . S
H385 C373 0.929 . S
H386 C374 0.960 . S
H387 C374 0.962 . S
H388 C374 0.960 . S
H389 C375 0.961 . S
H390 C375 0.961 . S
H391 C375 0.961 . S
H392 C376 0.931 . S
H393 C381 0.930 . S
H394 C382 0.956 1_455 S
H395 C382 0.961 . S
H396 C382 0.961 . S
H397 C383 0.958 . S
H398 C383 0.961 . S
H399 C383 0.960 . S
C400 C401 1.391 . S
C400 C402 1.394 . S
C400 H416 0.931 . S
C401 C400 1.391 . S
C401 C405 1.376 . S
C402 C400 1.394 . S
C402 C403 1.369 . S
C402 C406 1.531 . S
C403 C402 1.369 . S
C403 C404 1.410 . S
C403 C411 1.503 . S
C404 C403 1.410 . S
C404 C405 1.392 . S
C404 C407 1.511 . S
C405 C401 1.376 . S
C405 C404 1.392 . S
C405 H417 0.929 . S
C406 C402 1.531 . S
C406 H418 0.960 . S
C406 H419 0.962 . S
C406 H420 0.960 . S
C407 C404 1.511 . S
C407 H421 0.961 . S
C407 H422 0.961 . S
C407 H423 0.961 . S
C408 C409 1.370 . S
C408 C410 1.363 . S
C408 H424 0.931 . S
C409 C408 1.370 . S
C409 C413 1.408 . S
C410 C408 1.363 . S
C410 C411 1.370 . S
C410 C414 1.524 . S
C411 C403 1.503 . S
C411 C410 1.370 . S
C411 C412 1.403 . S
C412 C411 1.403 . S
C412 C413 1.404 . S
C412 C415 1.539 . S
C413 C409 1.408 . S
C413 C412 1.404 . S
C413 H425 0.930 . S
C414 C410 1.524 . S
C414 H426 0.956 . S
C414 H427 0.961 . S
C414 H428 0.961 . S
C415 C412 1.539 . S
C415 H429 0.958 . S
C415 H430 0.961 . S
C415 H431 0.960 . S
H416 C400 0.931 . S
H417 C405 0.929 . S
H418 C406 0.960 . S
H419 C406 0.962 . S
H420 C406 0.960 . S
H421 C407 0.961 . S
H422 C407 0.961 . S
H423 C407 0.961 . S
H424 C408 0.931 . S
H425 C413 0.930 . S
H426 C414 0.956 . S
H427 C414 0.961 . S
H428 C414 0.961 . S
H429 C415 0.958 . S
H430 C415 0.961 . S
H431 C415 0.960 . S
C432 C433 1.391 . S
C432 C434 1.394 . S
C432 H448 0.931 . S
C433 C432 1.391 . S
C433 C437 1.376 . S
C434 C432 1.394 . S
C434 C435 1.369 . S
C434 C438 1.531 1_455 S
C435 C434 1.369 . S
C435 C436 1.410 . S
C435 C443 1.503 1_455 S
C436 C435 1.410 . S
C436 C437 1.392 . S
C436 C439 1.511 . S
C437 C433 1.376 . S
C437 C436 1.392 . S
C437 H449 0.929 . S
C438 C434 1.531 1_655 S
C438 H450 0.960 . S
C438 H451 0.962 . S
C438 H452 0.960 . S
C439 C436 1.511 . S
C439 H453 0.961 . S
C439 H454 0.961 . S
C439 H455 0.961 . S
C440 C441 1.370 . S
C440 C442 1.363 . S
C440 H456 0.931 . S
C441 C440 1.370 . S
C441 C445 1.408 . S
C442 C440 1.363 . S
C442 C443 1.370 . S
C442 C446 1.524 1_655 S
C443 C435 1.503 1_655 S
C443 C442 1.370 . S
C443 C444 1.403 . S
C444 C443 1.403 . S
C444 C445 1.404 . S
C444 C447 1.539 . S
C445 C441 1.408 . S
C445 C444 1.404 . S
C445 H457 0.930 . S
C446 C442 1.524 1_455 S
C446 H458 0.956 1_455 S
C446 H459 0.961 . S
C446 H460 0.956 1_455 S
C447 C444 1.539 . S
C447 H461 0.958 . S
C447 H462 0.961 . S
C447 H463 0.960 . S
H448 C432 0.931 . S
H449 C437 0.929 . S
H450 C438 0.960 . S
H451 C438 0.962 . S
H452 C438 0.960 . S
H453 C439 0.961 . S
H454 C439 0.961 . S
H455 C439 0.961 . S
H456 C440 0.931 . S
H457 C445 0.930 . S
H458 C446 0.956 1_655 S
H459 C446 0.961 . S
H460 C446 0.956 1_655 S
H461 C447 0.958 . S
H462 C447 0.961 . S
H463 C447 0.960 . S
C464 C465 1.391 . S
C464 C466 1.394 . S
C464 H480 0.931 . S
C465 C464 1.391 . S
C465 C469 1.376 . S
C466 C464 1.394 . S
C466 C467 1.369 . S
C466 C470 1.531 . S
C467 C466 1.369 . S
C467 C468 1.410 . S
C467 C475 1.503 . S
C468 C467 1.410 . S
C468 C469 1.392 . S
C468 C471 1.511 . S
C469 C465 1.376 . S
C469 C468 1.392 . S
C469 H481 0.929 . S
C470 C466 1.531 . S
C470 H482 0.960 . S
C470 H483 0.962 . S
C470 H484 0.960 . S
C471 C468 1.511 . S
C471 H485 0.961 . S
C471 H486 0.961 . S
C471 H487 0.961 . S
C472 C473 1.370 . S
C472 C474 1.363 . S
C472 H488 0.931 . S
C473 C472 1.370 . S
C473 C477 1.408 . S
C474 C472 1.363 . S
C474 C475 1.370 . S
C474 C478 1.524 . S
C475 C467 1.503 . S
C475 C474 1.370 . S
C475 C476 1.403 . S
C476 C475 1.403 . S
C476 C477 1.404 . S
C476 C479 1.539 . S
C477 C473 1.408 . S
C477 C476 1.404 . S
C477 H489 0.930 . S
C478 C474 1.524 . S
C478 H490 0.956 . S
C478 H491 0.961 . S
C478 H492 0.961 . S
C479 C476 1.539 . S
C479 H493 0.958 . S
C479 H494 0.961 . S
C479 H495 0.960 . S
H480 C464 0.931 . S
H481 C469 0.929 . S
H482 C470 0.960 . S
H483 C470 0.962 . S
H484 C470 0.960 . S
H485 C471 0.961 . S
H486 C471 0.961 . S
H487 C471 0.961 . S
H488 C472 0.931 . S
H489 C477 0.930 . S
H490 C478 0.956 . S
H491 C478 0.961 . S
H492 C478 0.961 . S
H493 C479 0.958 . S
H494 C479 0.961 . S
H495 C479 0.960 . S
C496 C497 1.391 . S
C496 C498 1.394 . S
C496 H512 0.931 . S
C497 C496 1.391 . S
C497 C501 1.376 1_554 S
C498 C496 1.394 . S
C498 C499 1.369 . S
C498 C502 1.531 1_545 S
C499 C498 1.369 . S
C499 C500 1.410 1_554 S
C499 C507 1.503 1_445 S
C500 C499 1.410 1_556 S
C500 C501 1.392 . S
C500 C503 1.511 1_455 S
C501 C497 1.376 1_556 S
C501 C500 1.392 . S
C501 H513 0.929 . S
C502 C498 1.531 1_565 S
C502 H514 0.960 . S
C502 H515 0.962 . S
C502 H516 0.960 . S
C503 C500 1.511 1_655 S
C503 H517 0.961 . S
C503 H518 0.961 . S
C503 H519 0.961 . S
C504 C505 1.370 . S
C504 C506 1.363 . S
C504 H520 0.931 . S
C505 C504 1.370 . S
C505 C509 1.408 1_556 S
C506 C504 1.363 . S
C506 C507 1.370 1_556 S
C506 C510 1.524 1_655 S
C507 C499 1.503 1_665 S
C507 C506 1.370 1_554 S
C507 C508 1.403 . S
C508 C507 1.403 . S
C508 C509 1.404 . S
C508 C511 1.539 1_565 S
C509 C505 1.408 1_554 S
C509 C508 1.404 . S
C509 H521 0.930 . S
C510 C506 1.524 1_455 S
C510 H522 0.956 . S
C510 H523 0.961 . S
C510 H524 0.961 . S
C511 C508 1.539 1_545 S
C511 H525 0.958 . S
C511 H526 0.961 . S
C511 H527 0.960 . S
H512 C496 0.931 . S
H513 C501 0.929 . S
H514 C502 0.960 . S
H515 C502 0.962 . S
H516 C502 0.960 . S
H517 C503 0.961 . S
H518 C503 0.961 . S
H519 C503 0.961 . S
H520 C504 0.931 . S
H521 C509 0.930 . S
H522 C510 0.956 . S
H523 C510 0.961 . S
H524 C510 0.961 . S
H525 C511 0.958 . S
H526 C511 0.961 . S
H527 C511 0.960 . S
C528 C529 1.391 . S
C528 C530 1.394 . S
C528 H544 0.931 . S
C529 C528 1.391 . S
C529 C533 1.376 . S
C530 C528 1.394 . S
C530 C531 1.369 . S
C530 C534 1.531 . S
C531 C530 1.369 . S
C531 C532 1.410 . S
C531 C539 1.503 . S
C532 C531 1.410 . S
C532 C533 1.392 . S
C532 C535 1.511 . S
C533 C529 1.376 . S
C533 C532 1.392 . S
C533 H545 0.929 . S
C534 C530 1.531 . S
C534 H546 0.960 . S
C534 H547 0.962 . S
C534 H548 0.960 . S
C535 C532 1.511 . S
C535 H549 0.961 . S
C535 H550 0.961 . S
C535 H551 0.961 . S
C536 C537 1.370 . S
C536 C538 1.363 . S
C536 H552 0.931 . S
C537 C536 1.370 . S
C537 C541 1.408 . S
C538 C536 1.363 . S
C538 C539 1.370 . S
C538 C542 1.524 . S
C539 C531 1.503 . S
C539 C538 1.370 . S
C539 C540 1.403 . S
C540 C539 1.403 . S
C540 C541 1.404 . S
C540 C543 1.539 . S
C541 C537 1.408 . S
C541 C540 1.404 . S
C541 H553 0.930 . S
C542 C538 1.524 . S
C542 H554 0.956 . S
C542 H555 0.961 . S
C542 H556 0.961 . S
C543 C540 1.539 . S
C543 H557 0.958 . S
C543 H558 0.961 . S
C543 H559 0.960 . S
H544 C528 0.931 . S
H545 C533 0.929 . S
H546 C534 0.960 . S
H547 C534 0.962 . S
H548 C534 0.960 . S
H549 C535 0.961 . S
H550 C535 0.961 . S
H551 C535 0.961 . S
H552 C536 0.931 . S
H553 C541 0.930 . S
H554 C542 0.956 . S
H555 C542 0.961 . S
H556 C542 0.961 . S
H557 C543 0.958 . S
H558 C543 0.961 . S
H559 C543 0.960 . S
C560 C561 1.391 1_556 S
C560 C562 1.394 . S
C560 H576 0.931 . S
C561 C560 1.391 1_554 S
C561 C565 1.376 . S
C562 C560 1.394 . S
C562 C563 1.369 . S
C562 C566 1.531 . S
C563 C562 1.369 . S
C563 C564 1.410 1_556 S
C563 C571 1.503 . S
C564 C563 1.410 1_554 S
C564 C565 1.392 . S
C564 C567 1.511 . S
C565 C561 1.376 . S
C565 C564 1.392 . S
C565 H577 0.929 . S
C566 C562 1.531 . S
C566 H578 0.960 . S
C566 H579 0.962 . S
C566 H580 0.960 . S
C567 C564 1.511 . S
C567 H581 0.961 . S
C567 H582 0.961 . S
C567 H583 0.961 . S
C568 C569 1.370 1_554 S
C568 C570 1.363 . S
C568 H584 0.931 . S
C569 C568 1.370 1_556 S
C569 C573 1.408 . S
C570 C568 1.363 . S
C570 C571 1.370 1_554 S
C570 C574 1.524 . S
C571 C563 1.503 . S
C571 C570 1.370 1_556 S
C571 C572 1.403 . S
C572 C571 1.403 . S
C572 C573 1.404 . S
C572 C575 1.539 . S
C573 C569 1.408 . S
C573 C572 1.404 . S
C573 H585 0.930 . S
C574 C570 1.524 . S
C574 H586 0.956 . S
C574 H587 0.961 . S
C574 H588 0.961 . S
C575 C572 1.539 . S
C575 H589 0.958 . S
C575 H590 0.961 . S
C575 H591 0.960 . S
H576 C560 0.931 . S
H577 C565 0.929 . S
H578 C566 0.960 . S
H579 C566 0.962 . S
H580 C566 0.960 . S
H581 C567 0.961 . S
H582 C567 0.961 . S
H583 C567 0.961 . S
H584 C568 0.931 . S
H585 C573 0.930 . S
H586 C574 0.956 . S
H587 C574 0.961 . S
H588 C574 0.961 . S
H589 C575 0.958 . S
H590 C575 0.961 . S
H591 C575 0.960 . S
C592 C593 1.391 . S
C592 C594 1.394 . S
C592 H608 0.931 . S
C593 C592 1.391 . S
C593 C597 1.376 . S
C594 C592 1.394 . S
C594 C595 1.369 . S
C594 C598 1.531 1_455 S
C595 C594 1.369 . S
C595 C596 1.410 . S
C595 C603 1.503 1_465 S
C596 C595 1.410 . S
C596 C597 1.392 . S
C596 C599 1.511 1_565 S
C597 C593 1.376 . S
C597 C596 1.392 . S
C597 H609 0.929 . S
C598 C594 1.531 1_655 S
C598 H610 0.960 . S
C598 H611 0.962 . S
C598 H612 0.960 . S
C599 C596 1.511 1_545 S
C599 H613 0.961 . S
C599 H614 0.961 . S
C599 H615 0.961 . S
C600 C601 1.370 . S
C600 C602 1.363 . S
C600 H616 0.931 . S
C601 C600 1.370 . S
C601 C605 1.408 . S
C602 C600 1.363 . S
C602 C603 1.370 . S
C602 C606 1.524 1_545 S
C603 C595 1.503 1_645 S
C603 C602 1.370 . S
C603 C604 1.403 . S
C604 C603 1.403 . S
C604 C605 1.404 . S
C604 C607 1.539 . S
C605 C601 1.408 . S
C605 C604 1.404 . S
C605 H617 0.930 . S
C606 C602 1.524 1_565 S
C606 H618 0.956 . S
C606 H619 0.961 1_655 S
C606 H620 0.961 1_565 S
C607 C604 1.539 . S
C607 H621 0.958 . S
C607 H622 0.961 . S
C607 H623 0.960 1_655 S
H608 C592 0.931 . S
H609 C597 0.929 . S
H610 C598 0.960 . S
H611 C598 0.962 . S
H612 C598 0.960 . S
H613 C599 0.961 . S
H614 C599 0.961 . S
H615 C599 0.961 . S
H616 C600 0.931 . S
H617 C605 0.930 . S
H618 C606 0.956 . S
H619 C606 0.961 1_455 S
H620 C606 0.961 1_545 S
H621 C607 0.958 . S
H622 C607 0.961 . S
H623 C607 0.960 1_455 S
C113 C21 1.602 . S
C121 C8 1.664 . S
C145 C7 1.602 . S
C153 C22 1.664 . S
C177 C49 1.636 . S
C185 C36 1.649 . S
C209 C35 1.648 . S
C217 C50 1.650 . S
C241 C64 1.637 . S
C249 C77 1.623 . S
C273 C78 1.664 . S
C281 C63 1.631 . S
C305 C92 1.669 . S
C313 C105 1.625 . S
C337 C91 1.602 . S
C345 C106 1.664 . S
C369 C9 0.669 . S
C377 C51 0.601 . S
C401 C23 0.489 . S
C409 C37 0.516 . S
C433 C107 0.673 . S
C441 C65 0.604 . S
C465 C93 0.491 . S
C473 C79 0.517 . S
C497 C3 1.540 . S
C505 C59 1.566 . S
C529 C73 1.553 . S
C537 C17 1.562 . S
C561 C87 1.545 . S
C569 C31 1.565 . S
C593 C101 1.552 . S
C601 C45 1.560 . S
