# Generated by pormake.
# Topology wlj, (5)-cn, num edge types: 1
# Building blocks:
#     Node 0, Type 0, BuildingBlock: XOMCOT_clean_sbu_1, # of connection points: 5
#     Node 1, Type 0, BuildingBlock: XOMCOT_clean_sbu_1, # of connection points: 5
#     Node 2, Type 0, BuildingBlock: XOMCOT_clean_sbu_1, # of connection points: 5
#     Node 3, Type 0, BuildingBlock: XOMCOT_clean_sbu_1, # of connection points: 5
#     Node 4, Type 0, BuildingBlock: XOMCOT_clean_sbu_1, # of connection points: 5
#     Node 5, Type 0, BuildingBlock: XOMCOT_clean_sbu_1, # of connection points: 5
#     Edge 6, Type (0, 0), BuildingBlock: KIFKEQ_clean_linker_1, # of connection points: 2
#     Edge 7, Type (0, 0), BuildingBlock: KIFKEQ_clean_linker_1, # of connection points: 2
#     Edge 8, Type (0, 0), BuildingBlock: KIFKEQ_clean_linker_1, # of connection points: 2
#     Edge 9, Type (0, 0), BuildingBlock: KIFKEQ_clean_linker_1, # of connection points: 2
#     Edge 10, Type (0, 0), BuildingBlock: KIFKEQ_clean_linker_1, # of connection points: 2
#     Edge 11, Type (0, 0), BuildingBlock: KIFKEQ_clean_linker_1, # of connection points: 2
#     Edge 12, Type (0, 0), BuildingBlock: KIFKEQ_clean_linker_1, # of connection points: 2
#     Edge 13, Type (0, 0), BuildingBlock: KIFKEQ_clean_linker_1, # of connection points: 2
#     Edge 14, Type (0, 0), BuildingBlock: KIFKEQ_clean_linker_1, # of connection points: 2
#     Edge 15, Type (0, 0), BuildingBlock: KIFKEQ_clean_linker_1, # of connection points: 2
#     Edge 16, Type (0, 0), BuildingBlock: KIFKEQ_clean_linker_1, # of connection points: 2
#     Edge 17, Type (0, 0), BuildingBlock: KIFKEQ_clean_linker_1, # of connection points: 2
#     Edge 18, Type (0, 0), BuildingBlock: KIFKEQ_clean_linker_1, # of connection points: 2
#     Edge 19, Type (0, 0), BuildingBlock: KIFKEQ_clean_linker_1, # of connection points: 2
#     Edge 20, Type (0, 0), BuildingBlock: KIFKEQ_clean_linker_1, # of connection points: 2
# Relax obj value: 0.129
# Max RMSD: 0.180
# Mean RMSD: 0.180
data_MOF--net-wlj--node1-XOMCOT_clean_sbu_1--edge1-KIFKEQ_clean_linker_1
_symmetry_space_group_name_H-M    P1
_symmetry_Int_Tables_number       1
_symmetry_cell_setting            triclinic
loop_
_symmetry_equiv_pos_as_xyz
'x, y, z'
_cell_length_a     25.668568
_cell_length_b     25.523148
_cell_length_c     52.689548
_cell_angle_alpha  90.419307
_cell_angle_beta   89.357607
_cell_angle_gamma 119.47085
loop_
_atom_site_label
_atom_site_type_symbol
_atom_site_fract_x
_atom_site_fract_y
_atom_site_fract_z
_atom_type_partial_charge
C0 C 0.68072 0.29116 0.34361 0.0
C1 C 0.68001 0.24864 0.35985 0.0
N2 N 0.63383 0.19454 0.35352 0.0
N3 N 0.63501 0.2641 0.32717 0.0
C4 C 0.60701 0.20533 0.33387 0.0
H5 H 0.71345 0.33857 0.34335 0.0
Co6 Co 0.61765 0.30079 0.30007 0.0
C7 C 0.57332 0.18903 0.26681 0.0
O8 O 0.6241 0.21081 0.25431 0.0
N9 N 0.59808 0.33646 0.273 0.0
C10 C 0.58014 0.35768 0.23431 0.0
C11 C 0.59509 0.32201 0.24814 0.0
C12 C 0.58508 0.38196 0.27364 0.0
N13 N 0.57355 0.39536 0.25029 0.0
O14 O 0.55084 0.29607 0.31923 0.0
H15 H 0.6054 0.28942 0.24006 0.0
H16 H 0.58412 0.40491 0.29082 0.0
O17 O 0.56562 0.22003 0.28425 0.0
C18 C 0.57311 0.34074 0.33458 0.0
O19 O 0.63151 0.37575 0.33452 0.0
N20 N 0.68958 0.31458 0.28303 0.0
C21 C 0.8006 0.35055 0.26001 0.0
C22 C 0.77045 0.29533 0.27265 0.0
C23 C 0.71521 0.27854 0.28447 0.0
C24 C 0.72195 0.37084 0.27279 0.0
C25 C 0.77634 0.38884 0.26049 0.0
H26 H 0.69241 0.23577 0.29417 0.0
H27 H 0.70643 0.4031 0.2744 0.0
H28 H 0.56778 0.17073 0.32447 0.0
H29 H 0.71211 0.25663 0.3746 0.0
H30 H 0.57633 0.35713 0.21386 0.0
H31 H 0.78933 0.26564 0.27337 0.0
H32 H 0.80013 0.43317 0.25199 0.0
C33 C 0.74633 0.40726 1.01024 0.0
C34 C 0.79033 0.44873 1.02573 0.0
N35 N 0.8429 0.45306 1.01869 0.0
N36 N 0.7707 0.38492 0.99358 0.0
C37 C 0.82972 0.41379 0.9992 0.0
H38 H 0.69954 0.39493 1.01079 0.0
Co39 Co 0.72824 0.32945 0.96781 0.0
C40 C 0.8234 0.31964 0.93919 0.0
O41 O 0.79135 0.26063 0.93906 0.0
N42 N 0.68509 0.2743 0.94185 0.0
C43 C 0.65254 0.23443 0.90368 0.0
C44 C 0.69201 0.28528 0.91664 0.0
C45 C 0.64094 0.21626 0.94367 0.0
N46 N 0.62046 0.19094 0.92068 0.0
O47 O 0.73001 0.26583 0.98673 0.0
H48 H 0.72447 0.32737 0.90812 0.0
H49 H 0.62372 0.19292 0.96145 0.0
O50 O 0.8032 0.35069 0.95027 0.0
C51 C 0.68881 0.24721 1.0037 0.0
O52 O 0.65725 0.27484 1.00591 0.0
N53 N 0.72068 0.38922 0.95087 0.0
C54 C 0.68815 0.46524 0.92654 0.0
C55 C 0.74586 0.47282 0.92322 0.0
C56 C 0.7617 0.43463 0.93592 0.0
C57 C 0.6652 0.38235 0.95477 0.0
C58 C 0.64803 0.41987 0.94289 0.0
H59 H 0.80614 0.44081 0.9332 0.0
H60 H 0.63359 0.34631 0.96683 0.0
H61 H 0.86253 0.40624 0.98925 0.0
H62 H 0.7843 0.4749 1.04056 0.0
H63 H 0.64893 0.22939 0.88325 0.0
H64 H 0.77813 0.50755 0.91081 0.0
H65 H 0.60282 0.41184 0.94573 0.0
C66 C 0.64272 0.38034 0.67896 0.0
C67 C 0.59935 0.38231 0.69386 0.0
N68 N 0.5828 0.41926 0.68283 0.0
N69 N 0.65423 0.41622 0.6586 0.0
C70 C 0.61678 0.43919 0.66147 0.0
H71 H 0.6632 0.35288 0.68243 0.0
Co72 Co 0.70656 0.42377 0.63178 0.0
C73 C 0.71831 0.53048 0.60497 0.0
O74 O 0.77681 0.55704 0.60699 0.0
N75 N 0.75824 0.43017 0.60464 0.0
C76 C 0.79331 0.43372 0.56545 0.0
C77 C 0.74717 0.4315 0.57969 0.0
C78 C 0.81181 0.43175 0.60495 0.0
N79 N 0.83399 0.43397 0.58137 0.0
O80 O 0.77308 0.4888 0.64958 0.0
H81 H 0.70819 0.43141 0.57214 0.0
H82 H 0.83405 0.43031 0.62197 0.0
O83 O 0.68606 0.47815 0.61437 0.0
C84 C 0.79618 0.46445 0.66324 0.0
O85 O 0.76994 0.4054 0.66357 0.0
N86 N 0.64465 0.35649 0.61617 0.0
C87 C 0.57022 0.24576 0.59352 0.0
C88 C 0.56883 0.2976 0.58576 0.0
C89 C 0.606 0.35289 0.59772 0.0
C90 C 0.64525 0.30632 0.62423 0.0
C91 C 0.60816 0.25052 0.61335 0.0
H92 H 0.60546 0.39274 0.59134 0.0
H93 H 0.6765 0.3102 0.6387 0.0
H94 H 0.61404 0.46966 0.64811 0.0
H95 H 0.58019 0.35686 0.71107 0.0
H96 H 0.79732 0.43637 0.54496 0.0
H97 H 0.53999 0.29547 0.57048 0.0
H98 H 0.61112 0.21177 0.61967 0.0
C99 C 0.27542 0.68761 0.7738 0.0
C100 C 0.23057 0.68873 0.76008 0.0
N101 N 0.18148 0.63358 0.76093 0.0
N102 N 0.25503 0.63213 0.78344 0.0
C103 C 0.19795 0.60031 0.77531 0.0
H104 H 0.32054 0.72448 0.77603 0.0
Co105 Co 0.29832 0.60364 0.80165 0.0
C106 C 0.22039 0.54027 0.84558 0.0
O107 O 0.26877 0.56536 0.85959 0.0
N108 N 0.34116 0.57224 0.81923 0.0
C109 C 0.35857 0.49897 0.8317 0.0
C110 C 0.31708 0.51201 0.82201 0.0
C111 C 0.39828 0.59479 0.82741 0.0
N112 N 0.40965 0.55095 0.83504 0.0
O113 O 0.28147 0.54289 0.77625 0.0
H114 H 0.27223 0.47901 0.81646 0.0
H115 H 0.43218 0.64159 0.82668 0.0
O116 O 0.22496 0.55067 0.82164 0.0
C117 C 0.31978 0.56614 0.75825 0.0
O118 O 0.35249 0.62508 0.75743 0.0
N119 N 0.32166 0.66815 0.82473 0.0
C120 C 0.37137 0.774 0.85352 0.0
C121 C 0.30968 0.73304 0.85477 0.0
C122 C 0.28543 0.68059 0.83987 0.0
C123 C 0.38045 0.70997 0.82181 0.0
C124 C 0.40657 0.76221 0.83646 0.0
H125 H 0.23759 0.65101 0.84011 0.0
H126 H 0.40706 0.70341 0.80744 0.0
H127 H 0.16967 0.55314 0.77957 0.0
H128 H 0.23496 0.72702 0.74965 0.0
H129 H 0.35198 0.45454 0.83567 0.0
H130 H 0.28049 0.74157 0.86702 0.0
H131 H 0.45367 0.79414 0.8338 0.0
C132 C 0.3648 0.63528 0.42715 0.0
C133 C 0.36646 0.59285 0.4114 0.0
N134 N 0.41028 0.58245 0.4193 0.0
N135 N 0.40772 0.65228 0.44485 0.0
C136 C 0.43464 0.61914 0.43959 0.0
H137 H 0.33323 0.65166 0.42612 0.0
Co138 Co 0.41952 0.70624 0.47151 0.0
C139 C 0.52428 0.71442 0.49712 0.0
O140 O 0.55111 0.77307 0.49414 0.0
N141 N 0.43037 0.75932 0.49848 0.0
C142 C 0.43789 0.79364 0.53789 0.0
C143 C 0.42782 0.74507 0.52325 0.0
C144 C 0.44165 0.81708 0.4986 0.0
N145 N 0.44698 0.83925 0.52244 0.0
O146 O 0.48539 0.77038 0.45312 0.0
H147 H 0.41959 0.702 0.53034 0.0
H148 H 0.44686 0.84273 0.4816 0.0
O149 O 0.47143 0.6818 0.48859 0.0
C150 C 0.46314 0.79227 0.43766 0.0
O151 O 0.40459 0.76748 0.4368 0.0
N152 N 0.35127 0.64689 0.48765 0.0
C153 C 0.23916 0.57257 0.50925 0.0
C154 C 0.28693 0.56141 0.51333 0.0
C155 C 0.34301 0.59902 0.50201 0.0
C156 C 0.30537 0.65787 0.48346 0.0
C157 C 0.24916 0.62147 0.49403 0.0
H158 H 0.37955 0.5902 0.50505 0.0
H159 H 0.313 0.69604 0.47201 0.0
H160 H 0.47132 0.62161 0.45043 0.0
H161 H 0.33647 0.57009 0.39582 0.0
H162 H 0.43797 0.79488 0.55842 0.0
H163 H 0.28081 0.5239 0.52492 0.0
H164 H 0.21401 0.63238 0.49069 0.0
C165 C 0.39909 0.74264 0.08991 0.0
C166 C 0.44027 0.78705 0.07432 0.0
N167 N 0.44976 0.84064 0.08318 0.0
N168 N 0.38197 0.76773 0.10849 0.0
C169 C 0.41382 0.82765 0.1039 0.0
H170 H 0.38369 0.69502 0.08813 0.0
Co171 Co 0.3293 0.72472 0.13521 0.0
C172 C 0.32009 0.82089 0.16344 0.0
O173 O 0.26135 0.79025 0.16294 0.0
N174 N 0.27756 0.68134 0.16212 0.0
C175 C 0.24382 0.64901 0.2012 0.0
C176 C 0.2902 0.69199 0.1871 0.0
C177 C 0.22274 0.63167 0.16159 0.0
N178 N 0.20147 0.61118 0.18514 0.0
O179 O 0.26378 0.72487 0.11754 0.0
H180 H 0.33062 0.72883 0.19474 0.0
H181 H 0.19918 0.6101 0.14438 0.0
O182 O 0.3505 0.79958 0.15271 0.0
C183 C 0.24362 0.68112 0.10176 0.0
O184 O 0.27021 0.64842 0.10046 0.0
N185 N 0.39054 0.7182 0.15087 0.0
C186 C 0.46329 0.68134 0.17461 0.0
C187 C 0.46856 0.73752 0.18043 0.0
C188 C 0.43216 0.75579 0.16792 0.0
C189 C 0.38625 0.66448 0.1446 0.0
C190 C 0.42239 0.64534 0.15608 0.0
H191 H 0.43571 0.79855 0.17283 0.0
H192 H 0.35277 0.6353 0.13118 0.0
H193 H 0.41098 0.8613 0.11549 0.0
H194 H 0.46282 0.78047 0.05815 0.0
H195 H 0.24088 0.64634 0.22171 0.0
H196 H 0.49979 0.76643 0.19466 0.0
H197 H 0.41646 0.60138 0.15129 0.0
H198 H 0.58244 0.08937 0.26105 0.0
H199 H 0.45814 0.15572 0.25308 0.0
H200 H 0.51559 0.99874 0.23761 0.0
H201 H 0.391 0.06497 0.22873 0.0
H202 H 0.27197 0.86709 0.19804 0.0
H203 H 0.32626 0.95276 0.22677 0.0
H204 H 0.49337 0.98534 0.19271 0.0
H205 H 0.43979 0.90016 0.16449 0.0
C206 C 0.53992 0.0837 0.25473 0.0
C207 C 0.52529 0.12928 0.25886 0.0
C208 C 0.50193 0.03217 0.24101 0.0
C209 C 0.44869 0.02531 0.23065 0.0
C210 C 0.43176 0.06894 0.2364 0.0
C211 C 0.46988 0.12066 0.25046 0.0
C212 C 0.32029 0.89293 0.19659 0.0
C213 C 0.35155 0.87625 0.17914 0.0
C214 C 0.35134 0.94199 0.21306 0.0
C215 C 0.41424 0.97518 0.21244 0.0
C216 C 0.44505 0.95976 0.19426 0.0
C217 C 0.41422 0.91103 0.1779 0.0
H218 H 0.19647 0.53491 0.89621 0.0
H219 H 0.11002 0.46713 0.82409 0.0
H220 H 0.10036 0.481 0.9179 0.0
H221 H 1.01297 0.4121 0.84617 0.0
H222 H 0.86628 0.2726 0.90288 0.0
H223 H 0.96073 0.32481 0.87906 0.0
H224 H 1.0054 0.4889 0.91962 0.0
H225 H 0.91108 0.43725 0.94319 0.0
C226 C 0.15697 0.50824 0.88492 0.0
C227 C 0.1611 0.50542 0.85833 0.0
C228 C 0.10175 0.47758 0.89742 0.0
C229 C 0.04905 0.44251 0.88377 0.0
C230 C 0.05295 0.43862 0.8572 0.0
C231 C 0.10841 0.47025 0.84457 0.0
C232 C 0.89631 0.3198 0.90675 0.0
C233 C 0.88121 0.35064 0.92507 0.0
C234 C 0.95015 0.34976 0.89295 0.0
C235 C 0.9905 0.41093 0.89747 0.0
C236 C 0.97542 0.44165 0.91582 0.0
C237 C 0.92129 0.41203 0.92931 0.0
H238 H 0.48642 0.59455 0.50473 0.0
H239 H 0.62812 0.77253 0.524 0.0
H240 H 0.53337 0.55055 0.53058 0.0
H241 H 0.67401 0.72883 0.55035 0.0
H242 H 0.77369 0.632 0.57567 0.0
H243 H 0.72744 0.67511 0.54907 0.0
H244 H 0.55239 0.53632 0.57353 0.0
H245 H 0.59873 0.49222 0.59956 0.0
C246 C 0.52749 0.62432 0.51452 0.0
C247 C 0.55345 0.68712 0.51222 0.0
C248 C 0.55427 0.59909 0.52953 0.0
C249 C 0.6076 0.63599 0.54271 0.0
C250 C 0.63357 0.69881 0.54024 0.0
C251 C 0.607 0.72397 0.52516 0.0
C252 C 0.72533 0.61077 0.57547 0.0
C253 C 0.69004 0.55856 0.58979 0.0
C254 C 0.69869 0.63568 0.56024 0.0
C255 C 0.63597 0.60931 0.55901 0.0
C256 C 0.60073 0.55739 0.57358 0.0
C257 C 0.62738 0.5323 0.58871 0.0
H258 H 0.53098 0.63664 0.15444 0.0
H259 H 0.46795 0.66886 0.22595 0.0
H260 H 0.56341 0.57324 0.17574 0.0
H261 H 0.50023 0.60461 0.24743 0.0
H262 H 0.60657 0.50306 0.27351 0.0
H263 H 0.58977 0.58393 0.25753 0.0
H264 H 0.49109 0.47076 0.19452 0.0
H265 H 0.5066 0.3907 0.21048 0.0
C266 C 0.52554 0.63133 0.17485 0.0
C267 C 0.49648 0.65702 0.18853 0.0
C268 C 0.54377 0.59486 0.18702 0.0
C269 C 0.5331 0.58303 0.21313 0.0
C270 C 0.50889 0.61299 0.22729 0.0
C271 C 0.49064 0.64981 0.21503 0.0
C272 C 0.58063 0.4954 0.25646 0.0
C273 C 0.55897 0.44092 0.24296 0.0
C274 C 0.5713 0.54167 0.24729 0.0
C275 C 0.54055 0.53408 0.22443 0.0
C276 C 0.51657 0.47859 0.21175 0.0
C277 C 0.52548 0.43267 0.22092 0.0
H278 H 0.33159 0.85514 0.86019 0.0
H279 H 0.47492 0.82142 0.88043 0.0
H280 H 0.38478 0.9544 0.88032 0.0
H281 H 0.52833 0.92059 0.90024 0.0
H282 H 0.59584 0.09071 0.94744 0.0
H283 H 0.52755 0.98616 0.93528 0.0
H284 H 0.4777 0.04796 0.86856 0.0
H285 H 0.54504 0.15194 0.8809 0.0
C286 C 0.37388 0.86848 0.86936 0.0
C287 C 0.39929 0.8307 0.86858 0.0
C288 C 0.40458 0.92547 0.8807 0.0
C289 C 0.46099 0.94557 0.89174 0.0
C290 C 0.48482 0.90641 0.89209 0.0
C291 C 0.45446 0.84979 0.88055 0.0
C292 C 0.56945 0.08187 0.93044 0.0
C293 C 0.57619 0.12957 0.91501 0.0
C294 C 0.53069 0.02204 0.92337 0.0
C295 C 0.4973 1.00871 0.9009 0.0
C296 C 0.50228 0.05657 0.88609 0.0
C297 C 0.54138 0.11619 0.89301 0.0
H298 H 0.85608 0.38202 0.54111 0.0
H299 H 0.93993 0.49771 0.60537 0.0
H300 H 0.95348 0.40076 0.52552 0.0
H301 H 0.03819 0.51887 0.58936 0.0
H302 H 0.21063 0.53535 0.55878 0.0
H303 H 0.11099 0.48882 0.57865 0.0
H304 H 0.03345 0.48327 0.50556 0.0
H305 H 0.1317 0.52692 0.48594 0.0
C306 C 0.89556 0.41132 0.55194 0.0
C307 C 0.89064 0.43909 0.57422 0.0
C308 C 0.95145 0.42231 0.543 0.0
C309 C 1.0041 0.46235 0.55586 0.0
C310 C 0.99878 0.48747 0.579 0.0
C311 C 0.94253 0.47562 0.58816 0.0
C312 C 0.1719 0.52249 0.54697 0.0
C313 C 0.17895 0.53521 0.52085 0.0
C314 C 0.11491 0.49655 0.55837 0.0
C315 C 0.06394 0.4826 0.54381 0.0
C316 C 0.07115 0.4925 0.51745 0.0
C317 C 0.12774 0.51817 0.50616 0.0
H318 H 0.7012 0.48889 0.87568 0.0
H319 H 0.62607 0.51968 0.9441 0.0
H320 H 0.6479 0.52719 0.85036 0.0
H321 H 0.57204 0.55686 0.91889 0.0
H322 H 0.4871 0.63338 0.86813 0.0
H323 H 0.57157 0.63108 0.88861 0.0
H324 H 0.53932 0.47718 0.8427 0.0
H325 H 0.45604 0.48008 0.82244 0.0
C326 C 0.67471 0.50549 0.88534 0.0
C327 C 0.66714 0.50059 0.91182 0.0
C328 C 0.64382 0.52696 0.87085 0.0
C329 C 0.60513 0.54434 0.8826 0.0
C330 C 0.60166 0.54418 0.90924 0.0
C331 C 0.63221 0.52238 0.92368 0.0
C332 C 0.49936 0.60022 0.86209 0.0
C333 C 0.46485 0.55646 0.844 0.0
C334 C 0.54731 0.5986 0.87385 0.0
C335 C 0.562 0.55377 0.86736 0.0
C336 C 0.52975 0.51268 0.848 0.0
C337 C 0.48162 0.51388 0.83656 0.0
H338 H 0.4959 0.13743 0.6149 0.0
H339 H 0.56974 0.22179 0.54279 0.0
H340 H 0.45914 0.03854 0.59553 0.0
H341 H 0.53367 0.12234 0.52329 0.0
H342 H 0.42647 0.91991 0.49682 0.0
H343 H 0.44642 0.0193 0.51196 0.0
H344 H 0.51943 0.99294 0.58103 0.0
H345 H 0.50061 0.89545 0.56601 0.0
C346 C 0.50307 0.13462 0.59474 0.0
C347 C 0.53605 0.18711 0.58038 0.0
C348 C 0.48243 0.07809 0.58367 0.0
C349 C 0.49474 0.0727 0.55801 0.0
C350 C 0.52352 0.12505 0.5431 0.0
C351 C 0.54401 0.18192 0.55422 0.0
C352 C 0.44712 0.93564 0.51514 0.0
C353 C 0.46091 0.89905 0.53037 0.0
C354 C 0.45835 0.99242 0.52383 0.0
C355 C 0.48322 1.01336 0.54794 0.0
C356 C 0.49845 0.97741 0.56272 0.0
C357 C 0.4876 0.92128 0.55406 0.0
H358 H 0.09408 0.5795 0.16462 0.0
H359 H 0.1806 0.53092 0.2221 0.0
H360 H 0.99636 0.50501 0.18127 0.0
H361 H 0.08343 0.45406 0.23813 0.0
H362 H 0.90836 0.39761 0.28268 0.0
H363 H 1.00628 0.45221 0.26225 0.0
H364 H 0.92195 0.40562 0.18862 0.0
H365 H 0.82384 0.35378 0.20953 0.0
C366 C 0.09195 0.55153 0.1804 0.0
C367 C 0.14454 0.56123 0.19231 0.0
C368 C 0.036 0.50857 0.18995 0.0
C369 C 0.03162 0.47369 0.21135 0.0
C370 C 0.08475 0.48105 0.22212 0.0
C371 C 0.14047 0.52475 0.21288 0.0
C372 C 0.91124 0.39795 0.26214 0.0
C373 C 0.85916 0.37134 0.24759 0.0
C374 C 0.96731 0.42911 0.25033 0.0
C375 C 0.97242 0.43383 0.22365 0.0
C376 C 0.91992 0.40405 0.20915 0.0
C377 C 0.86379 0.37364 0.22104 0.0
H378 H 0.42959 0.82511 0.39511 0.0
H379 H 0.57716 0.88626 0.44704 0.0
H380 H 0.47747 0.92185 0.37426 0.0
H381 H 0.62702 0.98426 0.4254 0.0
H382 H 0.64697 0.17097 0.40247 0.0
H383 H 0.61504 0.07238 0.42136 0.0
H384 H 0.55574 0.98914 0.34781 0.0
H385 H 0.58604 0.08721 0.32931 0.0
C386 C 0.47315 0.85904 0.40175 0.0
C387 C 0.49948 0.84797 0.42278 0.0
C388 C 0.50098 0.91472 0.38961 0.0
C389 C 0.55631 0.96136 0.39805 0.0
C390 C 0.5841 0.94964 0.41853 0.0
C391 C 0.55601 0.89331 0.43074 0.0
C392 C 0.62752 0.13155 0.39037 0.0
C393 C 0.61806 0.13681 0.36448 0.0
C394 C 0.60954 0.075 0.40115 0.0
C395 C 0.58217 0.02238 0.38623 0.0
C396 C 0.57525 0.02827 0.36009 0.0
C397 C 0.59254 0.08457 0.34942 0.0
H398 H 0.94999 0.50483 0.99418 0.0
H399 H 0.86756 0.49241 0.06733 0.0
H400 H 0.04804 0.57114 1.0122 0.0
H401 H 0.9657 0.55734 0.08568 0.0
H402 H 0.14962 0.70334 0.11052 0.0
H403 H 0.05265 0.65541 0.08886 0.0
H404 H 0.11556 0.56263 1.03901 0.0
H405 H 0.21145 0.61148 0.05979 0.0
C406 C 0.95289 0.51588 1.01417 0.0
C407 C 0.90098 0.49284 1.02934 0.0
C408 C 1.00916 0.55404 1.02457 0.0
C409 C 1.01522 0.56957 1.05053 0.0
C410 C 0.96301 0.54736 0.06557 0.0
C411 C 0.90664 0.50971 0.05508 0.0
C412 C 0.1429 0.67385 0.09452 0.0
C413 C 0.18815 0.66112 0.08693 0.0
C414 C 0.08716 0.64576 0.08228 0.0
C415 C 0.07583 0.60468 0.06218 0.0
C416 C 0.12237 0.59441 0.05407 0.0
C417 C 0.17754 0.62224 0.0662 0.0
H418 H 0.37923 0.59782 0.71326 0.0
H419 H 0.30934 0.45588 0.76903 0.0
H420 H 0.4361 0.55544 0.69345 0.0
H421 H 0.36561 0.4122 0.7488 0.0
H422 H 0.5453 0.41609 0.73146 0.0
H423 H 0.47016 0.44055 0.74688 0.0
H424 H 0.44027 0.47724 0.6701 0.0
H425 H 0.51605 0.45317 0.65471 0.0
C426 C 0.37457 0.55636 0.72083 0.0
C427 C 0.33991 0.53043 0.74279 0.0
C428 C 0.40723 0.53188 0.70941 0.0
C429 C 0.40633 0.48073 0.71966 0.0
C430 C 0.3683 0.45228 0.74063 0.0
C431 C 0.33527 0.47676 0.75204 0.0
C432 C 0.52227 0.42863 0.71778 0.0
C433 C 0.53722 0.4329 0.69181 0.0
C434 C 0.47876 0.44241 0.72664 0.0
C435 C 0.44871 0.46077 0.70979 0.0
C436 C 0.46291 0.46403 0.68373 0.0
C437 C 0.50662 0.45041 0.67487 0.0
H438 H 0.14275 0.70257 0.73645 0.0
H439 H 0.0899 0.5182 0.75528 0.0
H440 H 0.05178 0.6676 0.71186 0.0
H441 H 0.99864 0.48427 0.73189 0.0
H442 H 0.87935 0.42992 0.66529 0.0
H443 H 0.97214 0.47492 0.6885 0.0
H444 H 0.94169 0.61993 0.71256 0.0
H445 H 0.8481 0.57493 0.68808 0.0
C446 C 0.11215 0.65471 0.73554 0.0
C447 C 0.12523 0.61348 0.74776 0.0
C448 C 0.05937 0.63474 0.72158 0.0
C449 C 1.01808 0.57301 0.71946 0.0
C450 C 0.02999 0.53212 0.73248 0.0
C451 C 0.08263 0.55189 0.74626 0.0
C452 C 0.89245 0.47173 0.67534 0.0
C453 C 0.85596 0.4985 0.6751 0.0
C454 C 0.94564 0.49734 0.68889 0.0
C455 C 0.96385 0.55021 0.7031 0.0
C456 C 0.92893 0.57899 0.70192 0.0
C457 C 0.87542 0.55341 0.68791 0.0
H458 H 0.45991 0.32407 0.32568 0.0
H459 H 0.60639 0.40312 0.3784 0.0
H460 H 0.4122 0.37467 0.34794 0.0
H461 H 0.56065 0.45452 0.39992 0.0
H462 H 0.45605 0.52152 0.44408 0.0
H463 H 0.48406 0.45062 0.42596 0.0
H464 H 0.42897 0.47575 0.35194 0.0
H465 H 0.39971 0.54549 0.37029 0.0
C466 C 0.48111 0.35098 0.34235 0.0
C467 C 0.53687 0.35963 0.35028 0.0
C468 C 0.45433 0.38072 0.35491 0.0
C469 C 0.4827 0.41934 0.37569 0.0
C470 C 0.53681 0.42485 0.3843 0.0
C471 C 0.56336 0.39548 0.3718 0.0
C472 C 0.45004 0.51199 0.42394 0.0
C473 C 0.42614 0.53971 0.40863 0.0
C474 C 0.46598 0.47115 0.4135 0.0
C475 C 0.45915 0.45736 0.38736 0.0
C476 C 0.43403 0.48423 0.37217 0.0
C477 C 0.41758 0.52466 0.38268 0.0
H478 H 0.70274 0.14915 0.99181 0.0
H479 H 0.6266 0.21678 1.04782 0.0
H480 H 0.65217 0.05027 1.01251 0.0
H481 H 0.57505 0.11894 0.06781 0.0
H482 H 0.5103 0.94547 0.1092 0.0
H483 H 0.57955 0.04442 0.09195 0.0
H484 H 0.552 0.96786 1.01657 0.0
H485 H 0.48401 0.86882 1.03404 0.0
C486 C 0.67635 0.14328 1.00882 0.0
C487 C 0.66865 0.19074 1.01817 0.0
C488 C 0.64664 0.08645 1.02051 0.0
C489 C 0.60893 0.07614 1.04181 0.0
C490 C 0.60407 0.12483 0.05173 0.0
C491 C 0.63349 0.18115 1.04012 0.0
C492 C 0.51895 0.94984 0.08896 0.0
C493 C 0.49119 0.89926 0.073 0.0
C494 C 0.5588 1.00663 0.07901 0.0
C495 C 0.57146 0.01457 0.05276 0.0
C496 C 0.54439 0.96363 1.03689 0.0
C497 C 0.50498 0.90675 1.0469 0.0
loop_
_geom_bond_atom_site_label_1
_geom_bond_atom_site_label_2
_geom_bond_distance
_geom_bond_site_symmetry_2
_ccdc_geom_bond_type
C0 C1 1.351 . S
C0 N3 1.368 . S
C0 H5 0.931 . S
C1 C0 1.351 . S
C1 N2 1.373 . S
C1 H29 0.930 . S
N2 C1 1.373 . S
N2 C4 1.340 . S
N3 C0 1.368 . S
N3 C4 1.321 . S
N3 Co6 2.135 . S
C4 N2 1.340 . S
C4 N3 1.321 . S
C4 H28 0.930 . S
H5 C0 0.931 . S
Co6 N3 2.135 . S
Co6 N9 2.121 . S
Co6 O14 2.055 . S
Co6 O17 2.039 . S
Co6 N20 2.140 . S
C7 O8 1.227 . S
C7 O17 1.265 . S
O8 C7 1.227 . S
N9 Co6 2.121 . S
N9 C11 1.375 . S
N9 C12 1.313 . S
C10 C11 1.338 . S
C10 N13 1.377 . S
C10 H30 0.930 . S
C11 N9 1.375 . S
C11 C10 1.338 . S
C11 H15 0.931 . S
C12 N9 1.313 . S
C12 N13 1.344 . S
C12 H16 0.930 . S
N13 C10 1.377 . S
N13 C12 1.344 . S
O14 Co6 2.055 . S
O14 C18 1.253 . S
H15 C11 0.931 . S
H16 C12 0.930 . S
O17 Co6 2.039 . S
O17 C7 1.265 . S
C18 O14 1.253 . S
C18 O19 1.227 . S
O19 C18 1.227 . S
N20 Co6 2.140 . S
N20 C23 1.346 . S
N20 C24 1.345 . S
C21 C22 1.387 . S
C21 C25 1.391 . S
C22 C21 1.387 . S
C22 C23 1.369 . S
C22 H31 0.929 . S
C23 N20 1.346 . S
C23 C22 1.369 . S
C23 H26 0.928 . S
C24 N20 1.345 . S
C24 C25 1.371 . S
C24 H27 0.931 . S
C25 C21 1.391 . S
C25 C24 1.371 . S
C25 H32 0.930 . S
H26 C23 0.928 . S
H27 C24 0.931 . S
H28 C4 0.930 . S
H29 C1 0.930 . S
H30 C10 0.930 . S
H31 C22 0.929 . S
H32 C25 0.930 . S
C33 C34 1.351 . S
C33 N36 1.368 . S
C33 H38 0.931 . S
C34 C33 1.351 . S
C34 N35 1.373 . S
C34 H62 0.930 . S
N35 C34 1.373 . S
N35 C37 1.340 . S
N36 C33 1.368 . S
N36 C37 1.321 . S
N36 Co39 2.135 . S
C37 N35 1.340 . S
C37 N36 1.321 . S
C37 H61 0.930 . S
H38 C33 0.931 . S
Co39 N36 2.135 . S
Co39 N42 2.121 . S
Co39 O47 2.055 . S
Co39 O50 2.039 . S
Co39 N53 2.140 . S
C40 O41 1.227 . S
C40 O50 1.265 . S
O41 C40 1.227 . S
N42 Co39 2.121 . S
N42 C44 1.375 . S
N42 C45 1.313 . S
C43 C44 1.338 . S
C43 N46 1.377 . S
C43 H63 0.930 . S
C44 N42 1.375 . S
C44 C43 1.338 . S
C44 H48 0.931 . S
C45 N42 1.313 . S
C45 N46 1.344 . S
C45 H49 0.930 . S
N46 C43 1.377 . S
N46 C45 1.344 . S
O47 Co39 2.055 . S
O47 C51 1.253 . S
H48 C44 0.931 . S
H49 C45 0.930 . S
O50 Co39 2.039 . S
O50 C40 1.265 . S
C51 O47 1.253 . S
C51 O52 1.227 . S
O52 C51 1.227 . S
N53 Co39 2.140 . S
N53 C56 1.346 . S
N53 C57 1.345 . S
C54 C55 1.387 . S
C54 C58 1.391 . S
C55 C54 1.387 . S
C55 C56 1.369 . S
C55 H64 0.929 . S
C56 N53 1.346 . S
C56 C55 1.369 . S
C56 H59 0.928 . S
C57 N53 1.345 . S
C57 C58 1.371 . S
C57 H60 0.931 . S
C58 C54 1.391 . S
C58 C57 1.371 . S
C58 H65 0.930 . S
H59 C56 0.928 . S
H60 C57 0.931 . S
H61 C37 0.930 . S
H62 C34 0.930 . S
H63 C43 0.930 . S
H64 C55 0.929 . S
H65 C58 0.930 . S
C66 C67 1.351 . S
C66 N69 1.368 . S
C66 H71 0.931 . S
C67 C66 1.351 . S
C67 N68 1.373 . S
C67 H95 0.930 . S
N68 C67 1.373 . S
N68 C70 1.340 . S
N69 C66 1.368 . S
N69 C70 1.321 . S
N69 Co72 2.135 . S
C70 N68 1.340 . S
C70 N69 1.321 . S
C70 H94 0.930 . S
H71 C66 0.931 . S
Co72 N69 2.135 . S
Co72 N75 2.121 . S
Co72 O80 2.055 . S
Co72 O83 2.039 . S
Co72 N86 2.140 . S
C73 O74 1.227 . S
C73 O83 1.265 . S
O74 C73 1.227 . S
N75 Co72 2.121 . S
N75 C77 1.375 . S
N75 C78 1.313 . S
C76 C77 1.338 . S
C76 N79 1.377 . S
C76 H96 0.930 . S
C77 N75 1.375 . S
C77 C76 1.338 . S
C77 H81 0.931 . S
C78 N75 1.313 . S
C78 N79 1.344 . S
C78 H82 0.930 . S
N79 C76 1.377 . S
N79 C78 1.344 . S
O80 Co72 2.055 . S
O80 C84 1.253 . S
H81 C77 0.931 . S
H82 C78 0.930 . S
O83 Co72 2.039 . S
O83 C73 1.265 . S
C84 O80 1.253 . S
C84 O85 1.227 . S
O85 C84 1.227 . S
N86 Co72 2.140 . S
N86 C89 1.346 . S
N86 C90 1.345 . S
C87 C88 1.387 . S
C87 C91 1.391 . S
C88 C87 1.387 . S
C88 C89 1.369 . S
C88 H97 0.929 . S
C89 N86 1.346 . S
C89 C88 1.369 . S
C89 H92 0.928 . S
C90 N86 1.345 . S
C90 C91 1.371 . S
C90 H93 0.931 . S
C91 C87 1.391 . S
C91 C90 1.371 . S
C91 H98 0.930 . S
H92 C89 0.928 . S
H93 C90 0.931 . S
H94 C70 0.930 . S
H95 C67 0.930 . S
H96 C76 0.930 . S
H97 C88 0.929 . S
H98 C91 0.930 . S
C99 C100 1.351 . S
C99 N102 1.368 . S
C99 H104 0.931 . S
C100 C99 1.351 . S
C100 N101 1.373 . S
C100 H128 0.930 . S
N101 C100 1.373 . S
N101 C103 1.340 . S
N102 C99 1.368 . S
N102 C103 1.321 . S
N102 Co105 2.135 . S
C103 N101 1.340 . S
C103 N102 1.321 . S
C103 H127 0.930 . S
H104 C99 0.931 . S
Co105 N102 2.135 . S
Co105 N108 2.121 . S
Co105 O113 2.055 . S
Co105 O116 2.039 . S
Co105 N119 2.140 . S
C106 O107 1.227 . S
C106 O116 1.265 . S
O107 C106 1.227 . S
N108 Co105 2.121 . S
N108 C110 1.375 . S
N108 C111 1.313 . S
C109 C110 1.338 . S
C109 N112 1.377 . S
C109 H129 0.930 . S
C110 N108 1.375 . S
C110 C109 1.338 . S
C110 H114 0.931 . S
C111 N108 1.313 . S
C111 N112 1.344 . S
C111 H115 0.930 . S
N112 C109 1.377 . S
N112 C111 1.344 . S
O113 Co105 2.055 . S
O113 C117 1.253 . S
H114 C110 0.931 . S
H115 C111 0.930 . S
O116 Co105 2.039 . S
O116 C106 1.265 . S
C117 O113 1.253 . S
C117 O118 1.227 . S
O118 C117 1.227 . S
N119 Co105 2.140 . S
N119 C122 1.346 . S
N119 C123 1.345 . S
C120 C121 1.387 . S
C120 C124 1.391 . S
C121 C120 1.387 . S
C121 C122 1.369 . S
C121 H130 0.929 . S
C122 N119 1.346 . S
C122 C121 1.369 . S
C122 H125 0.928 . S
C123 N119 1.345 . S
C123 C124 1.371 . S
C123 H126 0.931 . S
C124 C120 1.391 . S
C124 C123 1.371 . S
C124 H131 0.930 . S
H125 C122 0.928 . S
H126 C123 0.931 . S
H127 C103 0.930 . S
H128 C100 0.930 . S
H129 C109 0.930 . S
H130 C121 0.929 . S
H131 C124 0.930 . S
C132 C133 1.351 . S
C132 N135 1.368 . S
C132 H137 0.931 . S
C133 C132 1.351 . S
C133 N134 1.373 . S
C133 H161 0.930 . S
N134 C133 1.373 . S
N134 C136 1.340 . S
N135 C132 1.368 . S
N135 C136 1.321 . S
N135 Co138 2.135 . S
C136 N134 1.340 . S
C136 N135 1.321 . S
C136 H160 0.930 . S
H137 C132 0.931 . S
Co138 N135 2.135 . S
Co138 N141 2.121 . S
Co138 O146 2.055 . S
Co138 O149 2.039 . S
Co138 N152 2.140 . S
C139 O140 1.227 . S
C139 O149 1.265 . S
O140 C139 1.227 . S
N141 Co138 2.121 . S
N141 C143 1.375 . S
N141 C144 1.313 . S
C142 C143 1.338 . S
C142 N145 1.377 . S
C142 H162 0.930 . S
C143 N141 1.375 . S
C143 C142 1.338 . S
C143 H147 0.931 . S
C144 N141 1.313 . S
C144 N145 1.344 . S
C144 H148 0.930 . S
N145 C142 1.377 . S
N145 C144 1.344 . S
O146 Co138 2.055 . S
O146 C150 1.253 . S
H147 C143 0.931 . S
H148 C144 0.930 . S
O149 Co138 2.039 . S
O149 C139 1.265 . S
C150 O146 1.253 . S
C150 O151 1.227 . S
O151 C150 1.227 . S
N152 Co138 2.140 . S
N152 C155 1.346 . S
N152 C156 1.345 . S
C153 C154 1.387 . S
C153 C157 1.391 . S
C154 C153 1.387 . S
C154 C155 1.369 . S
C154 H163 0.929 . S
C155 N152 1.346 . S
C155 C154 1.369 . S
C155 H158 0.928 . S
C156 N152 1.345 . S
C156 C157 1.371 . S
C156 H159 0.931 . S
C157 C153 1.391 . S
C157 C156 1.371 . S
C157 H164 0.930 . S
H158 C155 0.928 . S
H159 C156 0.931 . S
H160 C136 0.930 . S
H161 C133 0.930 . S
H162 C142 0.930 . S
H163 C154 0.929 . S
H164 C157 0.930 . S
C165 C166 1.351 . S
C165 N168 1.368 . S
C165 H170 0.931 . S
C166 C165 1.351 . S
C166 N167 1.373 . S
C166 H194 0.930 . S
N167 C166 1.373 . S
N167 C169 1.340 . S
N168 C165 1.368 . S
N168 C169 1.321 . S
N168 Co171 2.135 . S
C169 N167 1.340 . S
C169 N168 1.321 . S
C169 H193 0.930 . S
H170 C165 0.931 . S
Co171 N168 2.135 . S
Co171 N174 2.121 . S
Co171 O179 2.055 . S
Co171 O182 2.039 . S
Co171 N185 2.140 . S
C172 O173 1.227 . S
C172 O182 1.265 . S
O173 C172 1.227 . S
N174 Co171 2.121 . S
N174 C176 1.375 . S
N174 C177 1.313 . S
C175 C176 1.338 . S
C175 N178 1.377 . S
C175 H195 0.930 . S
C176 N174 1.375 . S
C176 C175 1.338 . S
C176 H180 0.931 . S
C177 N174 1.313 . S
C177 N178 1.344 . S
C177 H181 0.930 . S
N178 C175 1.377 . S
N178 C177 1.344 . S
O179 Co171 2.055 . S
O179 C183 1.253 . S
H180 C176 0.931 . S
H181 C177 0.930 . S
O182 Co171 2.039 . S
O182 C172 1.265 . S
C183 O179 1.253 . S
C183 O184 1.227 . S
O184 C183 1.227 . S
N185 Co171 2.140 . S
N185 C188 1.346 . S
N185 C189 1.345 . S
C186 C187 1.387 . S
C186 C190 1.391 . S
C187 C186 1.387 . S
C187 C188 1.369 . S
C187 H196 0.929 . S
C188 N185 1.346 . S
C188 C187 1.369 . S
C188 H191 0.928 . S
C189 N185 1.345 . S
C189 C190 1.371 . S
C189 H192 0.931 . S
C190 C186 1.391 . S
C190 C189 1.371 . S
C190 H197 0.930 . S
H191 C188 0.928 . S
H192 C189 0.931 . S
H193 C169 0.930 . S
H194 C166 0.930 . S
H195 C175 0.930 . S
H196 C187 0.929 . S
H197 C190 0.930 . S
H198 C206 0.950 . S
H199 C211 0.950 . S
H200 C208 0.950 . S
H201 C210 0.950 . S
H202 C212 0.950 . S
H203 C214 0.950 . S
H204 C216 0.950 . S
H205 C217 0.950 . S
C206 H198 0.950 . S
C206 C207 1.386 . S
C206 C208 1.391 . S
C207 C206 1.386 . S
C207 C211 1.393 . S
C208 H200 0.950 . S
C208 C206 1.391 . S
C208 C209 1.400 . S
C209 C208 1.400 . S
C209 C210 1.398 . S
C209 C215 1.491 1_545 S
C210 H201 0.950 . S
C210 C209 1.398 . S
C210 C211 1.391 . S
C211 H199 0.950 . S
C211 C207 1.393 . S
C211 C210 1.391 . S
C212 H202 0.950 . S
C212 C213 1.386 . S
C212 C214 1.391 . S
C213 C212 1.386 . S
C213 C217 1.393 . S
C214 H203 0.950 . S
C214 C212 1.391 . S
C214 C215 1.400 . S
C215 C209 1.491 1_565 S
C215 C214 1.400 . S
C215 C216 1.398 . S
C216 H204 0.950 . S
C216 C215 1.398 . S
C216 C217 1.391 . S
C217 H205 0.950 . S
C217 C213 1.393 . S
C217 C216 1.391 . S
H218 C226 0.950 . S
H219 C231 0.950 . S
H220 C228 0.950 . S
H221 C230 0.950 1_655 S
H222 C232 0.950 . S
H223 C234 0.950 . S
H224 C236 0.950 1_455 S
H225 C237 0.950 . S
C226 H218 0.950 . S
C226 C227 1.386 . S
C226 C228 1.391 . S
C227 C226 1.386 . S
C227 C231 1.393 . S
C228 H220 0.950 . S
C228 C226 1.391 . S
C228 C229 1.400 . S
C229 C228 1.400 . S
C229 C230 1.398 . S
C229 C235 1.491 1_455 S
C230 H221 0.950 1_455 S
C230 C229 1.398 . S
C230 C231 1.391 . S
C231 H219 0.950 . S
C231 C227 1.393 . S
C231 C230 1.391 . S
C232 H222 0.950 . S
C232 C233 1.386 . S
C232 C234 1.391 . S
C233 C232 1.386 . S
C233 C237 1.393 . S
C234 H223 0.950 . S
C234 C232 1.391 . S
C234 C235 1.400 . S
C235 C229 1.491 1_655 S
C235 C234 1.400 . S
C235 C236 1.398 . S
C236 H224 0.950 1_655 S
C236 C235 1.398 . S
C236 C237 1.391 . S
C237 H225 0.950 . S
C237 C233 1.393 . S
C237 C236 1.391 . S
H238 C246 0.950 . S
H239 C251 0.950 . S
H240 C248 0.950 . S
H241 C250 0.950 . S
H242 C252 0.950 . S
H243 C254 0.950 . S
H244 C256 0.950 . S
H245 C257 0.950 . S
C246 H238 0.950 . S
C246 C247 1.386 . S
C246 C248 1.391 . S
C247 C246 1.386 . S
C247 C251 1.393 . S
C248 H240 0.950 . S
C248 C246 1.391 . S
C248 C249 1.400 . S
C249 C248 1.400 . S
C249 C250 1.398 . S
C249 C255 1.491 . S
C250 H241 0.950 . S
C250 C249 1.398 . S
C250 C251 1.391 . S
C251 H239 0.950 . S
C251 C247 1.393 . S
C251 C250 1.391 . S
C252 H242 0.950 . S
C252 C253 1.386 . S
C252 C254 1.391 . S
C253 C252 1.386 . S
C253 C257 1.393 . S
C254 H243 0.950 . S
C254 C252 1.391 . S
C254 C255 1.400 . S
C255 C249 1.491 . S
C255 C254 1.400 . S
C255 C256 1.398 . S
C256 H244 0.950 . S
C256 C255 1.398 . S
C256 C257 1.391 . S
C257 H245 0.950 . S
C257 C253 1.393 . S
C257 C256 1.391 . S
H258 C266 0.950 . S
H259 C271 0.950 . S
H260 C268 0.950 . S
H261 C270 0.950 . S
H262 C272 0.950 . S
H263 C274 0.950 . S
H264 C276 0.950 . S
H265 C277 0.950 . S
C266 H258 0.950 . S
C266 C267 1.386 . S
C266 C268 1.391 . S
C267 C266 1.386 . S
C267 C271 1.393 . S
C268 H260 0.950 . S
C268 C266 1.391 . S
C268 C269 1.400 . S
C269 C268 1.400 . S
C269 C270 1.398 . S
C269 C275 1.491 . S
C270 H261 0.950 . S
C270 C269 1.398 . S
C270 C271 1.391 . S
C271 H259 0.950 . S
C271 C267 1.393 . S
C271 C270 1.391 . S
C272 H262 0.950 . S
C272 C273 1.386 . S
C272 C274 1.391 . S
C273 C272 1.386 . S
C273 C277 1.393 . S
C274 H263 0.950 . S
C274 C272 1.391 . S
C274 C275 1.400 . S
C275 C269 1.491 . S
C275 C274 1.400 . S
C275 C276 1.398 . S
C276 H264 0.950 . S
C276 C275 1.398 . S
C276 C277 1.391 . S
C277 H265 0.950 . S
C277 C273 1.393 . S
C277 C276 1.391 . S
H278 C286 0.950 . S
H279 C291 0.950 . S
H280 C288 0.950 . S
H281 C290 0.950 . S
H282 C292 0.950 . S
H283 C294 0.950 . S
H284 C296 0.950 . S
H285 C297 0.950 1_545 S
C286 H278 0.950 . S
C286 C287 1.386 . S
C286 C288 1.391 . S
C287 C286 1.386 . S
C287 C291 1.393 . S
C288 H280 0.950 . S
C288 C286 1.391 . S
C288 C289 1.400 . S
C289 C288 1.400 . S
C289 C290 1.398 . S
C289 C295 1.491 . S
C290 H281 0.950 . S
C290 C289 1.398 . S
C290 C291 1.391 . S
C291 H279 0.950 . S
C291 C287 1.393 . S
C291 C290 1.391 . S
C292 H282 0.950 . S
C292 C293 1.386 1_565 S
C292 C294 1.391 . S
C293 C292 1.386 1_545 S
C293 C297 1.393 1_545 S
C294 H283 0.950 . S
C294 C292 1.391 . S
C294 C295 1.400 . S
C295 C289 1.491 . S
C295 C294 1.400 . S
C295 C296 1.398 . S
C296 H284 0.950 . S
C296 C295 1.398 . S
C296 C297 1.391 . S
C297 H285 0.950 1_565 S
C297 C293 1.393 1_565 S
C297 C296 1.391 . S
H298 C306 0.950 . S
H299 C311 0.950 . S
H300 C308 0.950 . S
H301 C310 0.950 . S
H302 C312 0.950 . S
H303 C314 0.950 . S
H304 C316 0.950 . S
H305 C317 0.950 . S
C306 H298 0.950 . S
C306 C307 1.386 . S
C306 C308 1.391 1_655 S
C307 C306 1.386 . S
C307 C311 1.393 1_655 S
C308 H300 0.950 . S
C308 C306 1.391 1_455 S
C308 C309 1.400 . S
C309 C308 1.400 . S
C309 C310 1.398 . S
C309 C315 1.491 . S
C310 H301 0.950 . S
C310 C309 1.398 . S
C310 C311 1.391 . S
C311 H299 0.950 . S
C311 C307 1.393 1_455 S
C311 C310 1.391 . S
C312 H302 0.950 . S
C312 C313 1.386 . S
C312 C314 1.391 . S
C313 C312 1.386 . S
C313 C317 1.393 . S
C314 H303 0.950 . S
C314 C312 1.391 . S
C314 C315 1.400 . S
C315 C309 1.491 . S
C315 C314 1.400 . S
C315 C316 1.398 . S
C316 H304 0.950 . S
C316 C315 1.398 . S
C316 C317 1.391 . S
C317 H305 0.950 . S
C317 C313 1.393 . S
C317 C316 1.391 . S
H318 C326 0.950 . S
H319 C331 0.950 . S
H320 C328 0.950 . S
H321 C330 0.950 . S
H322 C332 0.950 . S
H323 C334 0.950 . S
H324 C336 0.950 . S
H325 C337 0.950 . S
C326 H318 0.950 . S
C326 C327 1.386 . S
C326 C328 1.391 . S
C327 C326 1.386 . S
C327 C331 1.393 . S
C328 H320 0.950 . S
C328 C326 1.391 . S
C328 C329 1.400 . S
C329 C328 1.400 . S
C329 C330 1.398 . S
C329 C335 1.491 . S
C330 H321 0.950 . S
C330 C329 1.398 . S
C330 C331 1.391 . S
C331 H319 0.950 . S
C331 C327 1.393 . S
C331 C330 1.391 . S
C332 H322 0.950 . S
C332 C333 1.386 . S
C332 C334 1.391 . S
C333 C332 1.386 . S
C333 C337 1.393 . S
C334 H323 0.950 . S
C334 C332 1.391 . S
C334 C335 1.400 . S
C335 C329 1.491 . S
C335 C334 1.400 . S
C335 C336 1.398 . S
C336 H324 0.950 . S
C336 C335 1.398 . S
C336 C337 1.391 . S
C337 H325 0.950 . S
C337 C333 1.393 . S
C337 C336 1.391 . S
H338 C346 0.950 . S
H339 C351 0.950 . S
H340 C348 0.950 . S
H341 C350 0.950 . S
H342 C352 0.950 . S
H343 C354 0.950 . S
H344 C356 0.950 . S
H345 C357 0.950 1_565 S
C346 H338 0.950 . S
C346 C347 1.386 . S
C346 C348 1.391 . S
C347 C346 1.386 . S
C347 C351 1.393 . S
C348 H340 0.950 . S
C348 C346 1.391 . S
C348 C349 1.400 . S
C349 C348 1.400 . S
C349 C350 1.398 . S
C349 C355 1.491 . S
C350 H341 0.950 . S
C350 C349 1.398 . S
C350 C351 1.391 . S
C351 H339 0.950 . S
C351 C347 1.393 . S
C351 C350 1.391 . S
C352 H342 0.950 . S
C352 C353 1.386 1_545 S
C352 C354 1.391 . S
C353 C352 1.386 1_565 S
C353 C357 1.393 1_565 S
C354 H343 0.950 . S
C354 C352 1.391 . S
C354 C355 1.400 . S
C355 C349 1.491 . S
C355 C354 1.400 . S
C355 C356 1.398 . S
C356 H344 0.950 . S
C356 C355 1.398 . S
C356 C357 1.391 . S
C357 H345 0.950 1_545 S
C357 C353 1.393 1_545 S
C357 C356 1.391 . S
H358 C366 0.950 . S
H359 C371 0.950 . S
H360 C368 0.950 . S
H361 C370 0.950 . S
H362 C372 0.950 . S
H363 C374 0.950 . S
H364 C376 0.950 . S
H365 C377 0.950 . S
C366 H358 0.950 . S
C366 C367 1.386 1_655 S
C366 C368 1.391 . S
C367 C366 1.386 1_455 S
C367 C371 1.393 . S
C368 H360 0.950 . S
C368 C366 1.391 . S
C368 C369 1.400 . S
C369 C368 1.400 . S
C369 C370 1.398 . S
C369 C375 1.491 . S
C370 H361 0.950 . S
C370 C369 1.398 . S
C370 C371 1.391 1_655 S
C371 H359 0.950 . S
C371 C367 1.393 . S
C371 C370 1.391 1_455 S
C372 H362 0.950 . S
C372 C373 1.386 . S
C372 C374 1.391 . S
C373 C372 1.386 . S
C373 C377 1.393 . S
C374 H363 0.950 . S
C374 C372 1.391 . S
C374 C375 1.400 . S
C375 C369 1.491 . S
C375 C374 1.400 . S
C375 C376 1.398 . S
C376 H364 0.950 . S
C376 C375 1.398 . S
C376 C377 1.391 . S
C377 H365 0.950 . S
C377 C373 1.393 . S
C377 C376 1.391 . S
H378 C386 0.950 . S
H379 C391 0.950 . S
H380 C388 0.950 . S
H381 C390 0.950 . S
H382 C392 0.950 . S
H383 C394 0.950 . S
H384 C396 0.950 . S
H385 C397 0.950 . S
C386 H378 0.950 . S
C386 C387 1.386 . S
C386 C388 1.391 1_565 S
C387 C386 1.386 . S
C387 C391 1.393 . S
C388 H380 0.950 . S
C388 C386 1.391 1_545 S
C388 C389 1.400 . S
C389 C388 1.400 . S
C389 C390 1.398 1_545 S
C389 C395 1.491 . S
C390 H381 0.950 . S
C390 C389 1.398 1_565 S
C390 C391 1.391 . S
C391 H379 0.950 . S
C391 C387 1.393 . S
C391 C390 1.391 . S
C392 H382 0.950 . S
C392 C393 1.386 . S
C392 C394 1.391 . S
C393 C392 1.386 . S
C393 C397 1.393 . S
C394 H383 0.950 . S
C394 C392 1.391 . S
C394 C395 1.400 . S
C395 C389 1.491 . S
C395 C394 1.400 . S
C395 C396 1.398 . S
C396 H384 0.950 . S
C396 C395 1.398 . S
C396 C397 1.391 . S
C397 H385 0.950 . S
C397 C393 1.393 . S
C397 C396 1.391 . S
H398 C406 0.950 . S
H399 C411 0.950 . S
H400 C408 0.950 . S
H401 C410 0.950 . S
H402 C412 0.950 . S
H403 C414 0.950 . S
H404 C416 0.950 . S
H405 C417 0.950 . S
C406 H398 0.950 . S
C406 C407 1.386 . S
C406 C408 1.391 . S
C407 C406 1.386 . S
C407 C411 1.393 . S
C408 H400 0.950 . S
C408 C406 1.391 . S
C408 C409 1.400 . S
C409 C408 1.400 . S
C409 C410 1.398 . S
C409 C415 1.491 1_556 S
C410 H401 0.950 . S
C410 C409 1.398 . S
C410 C411 1.391 . S
C411 H399 0.950 . S
C411 C407 1.393 . S
C411 C410 1.391 . S
C412 H402 0.950 . S
C412 C413 1.386 . S
C412 C414 1.391 1_455 S
C413 C412 1.386 . S
C413 C417 1.393 . S
C414 H403 0.950 . S
C414 C412 1.391 1_655 S
C414 C415 1.400 . S
C415 C409 1.491 1_554 S
C415 C414 1.400 . S
C415 C416 1.398 1_655 S
C416 H404 0.950 . S
C416 C415 1.398 1_455 S
C416 C417 1.391 . S
C417 H405 0.950 . S
C417 C413 1.393 . S
C417 C416 1.391 . S
H418 C426 0.950 . S
H419 C431 0.950 . S
H420 C428 0.950 . S
H421 C430 0.950 . S
H422 C432 0.950 . S
H423 C434 0.950 . S
H424 C436 0.950 . S
H425 C437 0.950 . S
C426 H418 0.950 . S
C426 C427 1.386 . S
C426 C428 1.391 . S
C427 C426 1.386 . S
C427 C431 1.393 . S
C428 H420 0.950 . S
C428 C426 1.391 . S
C428 C429 1.400 . S
C429 C428 1.400 . S
C429 C430 1.398 . S
C429 C435 1.491 . S
C430 H421 0.950 . S
C430 C429 1.398 . S
C430 C431 1.391 . S
C431 H419 0.950 . S
C431 C427 1.393 . S
C431 C430 1.391 . S
C432 H422 0.950 . S
C432 C433 1.386 . S
C432 C434 1.391 . S
C433 C432 1.386 . S
C433 C437 1.393 . S
C434 H423 0.950 . S
C434 C432 1.391 . S
C434 C435 1.400 . S
C435 C429 1.491 . S
C435 C434 1.400 . S
C435 C436 1.398 . S
C436 H424 0.950 . S
C436 C435 1.398 . S
C436 C437 1.391 . S
C437 H425 0.950 . S
C437 C433 1.393 . S
C437 C436 1.391 . S
H438 C446 0.950 . S
H439 C451 0.950 . S
H440 C448 0.950 . S
H441 C450 0.950 . S
H442 C452 0.950 . S
H443 C454 0.950 1_455 S
H444 C456 0.950 1_455 S
H445 C457 0.950 . S
C446 H438 0.950 . S
C446 C447 1.386 . S
C446 C448 1.391 . S
C447 C446 1.386 . S
C447 C451 1.393 . S
C448 H440 0.950 . S
C448 C446 1.391 . S
C448 C449 1.400 . S
C449 C448 1.400 . S
C449 C450 1.398 . S
C449 C455 1.491 . S
C450 H441 0.950 . S
C450 C449 1.398 . S
C450 C451 1.391 . S
C451 H439 0.950 . S
C451 C447 1.393 . S
C451 C450 1.391 . S
C452 H442 0.950 . S
C452 C453 1.386 . S
C452 C454 1.391 . S
C453 C452 1.386 . S
C453 C457 1.393 . S
C454 H443 0.950 1_655 S
C454 C452 1.391 . S
C454 C455 1.400 1_655 S
C455 C449 1.491 . S
C455 C454 1.400 1_455 S
C455 C456 1.398 1_455 S
C456 H444 0.950 1_655 S
C456 C455 1.398 1_655 S
C456 C457 1.391 . S
C457 H445 0.950 . S
C457 C453 1.393 . S
C457 C456 1.391 . S
H458 C466 0.950 . S
H459 C471 0.950 . S
H460 C468 0.950 . S
H461 C470 0.950 . S
H462 C472 0.950 . S
H463 C474 0.950 . S
H464 C476 0.950 . S
H465 C477 0.950 . S
C466 H458 0.950 . S
C466 C467 1.386 . S
C466 C468 1.391 . S
C467 C466 1.386 . S
C467 C471 1.393 . S
C468 H460 0.950 . S
C468 C466 1.391 . S
C468 C469 1.400 . S
C469 C468 1.400 . S
C469 C470 1.398 . S
C469 C475 1.491 . S
C470 H461 0.950 . S
C470 C469 1.398 . S
C470 C471 1.391 . S
C471 H459 0.950 . S
C471 C467 1.393 . S
C471 C470 1.391 . S
C472 H462 0.950 . S
C472 C473 1.386 . S
C472 C474 1.391 . S
C473 C472 1.386 . S
C473 C477 1.393 . S
C474 H463 0.950 . S
C474 C472 1.391 . S
C474 C475 1.400 . S
C475 C469 1.491 . S
C475 C474 1.400 . S
C475 C476 1.398 . S
C476 H464 0.950 . S
C476 C475 1.398 . S
C476 C477 1.391 . S
C477 H465 0.950 . S
C477 C473 1.393 . S
C477 C476 1.391 . S
H478 C486 0.950 . S
H479 C491 0.950 . S
H480 C488 0.950 . S
H481 C490 0.950 . S
H482 C492 0.950 . S
H483 C494 0.932 1_556 S
H484 C496 0.950 . S
H485 C497 0.950 . S
C486 H478 0.950 . S
C486 C487 1.386 . S
C486 C488 1.391 1_545 S
C487 C486 1.386 . S
C487 C491 1.393 . S
C488 H480 0.950 . S
C488 C486 1.391 1_565 S
C488 C489 1.400 . S
C489 C488 1.400 . S
C489 C490 1.398 1_565 S
C489 C495 1.491 1_556 S
C490 H481 0.950 . S
C490 C489 1.398 1_545 S
C490 C491 1.391 . S
C491 H479 0.950 . S
C491 C487 1.393 . S
C491 C490 1.391 . S
C492 H482 0.950 . S
C492 C493 1.386 . S
C492 C494 1.391 . S
C493 C492 1.386 . S
C493 C497 1.393 . S
C494 H483 0.932 1_554 S
C494 C492 1.391 . S
C494 C495 1.400 . S
C495 C489 1.491 1_554 S
C495 C494 1.400 . S
C495 C496 1.398 . S
C496 H484 0.950 . S
C496 C495 1.398 . S
C496 C497 1.391 . S
C497 H485 0.950 . S
C497 C493 1.393 . S
C497 C496 1.391 . S
C207 C7 1.510 . S
C213 C172 1.508 . S
C227 C106 1.500 . S
C233 C40 1.516 . S
C247 C139 1.507 . S
C253 C73 1.510 . S
C267 C186 1.137 . S
C273 N13 1.122 . S
C287 C120 1.137 . S
C293 N46 1.123 . S
C307 N79 1.113 . S
C313 C153 1.135 . S
C327 C54 1.127 . S
C333 N112 1.129 . S
C347 C87 1.137 . S
C353 N145 1.122 . S
C367 N178 1.131 . S
C373 C21 1.128 . S
C387 C150 1.643 . S
C393 N2 1.594 . S
C407 N35 1.606 . S
C413 C183 1.635 . S
C427 C117 1.638 . S
C433 N68 1.603 . S
C447 N101 1.588 . S
C453 C84 1.641 . S
C467 C18 1.643 . S
C473 N134 1.585 . S
C487 C51 1.641 . S
C493 N167 1.587 . S
