# Generated by pormake.
# Topology swl, (7)-cn, num edge types: 1
# Building blocks:
#     Node 0, Type 0, BuildingBlock: HICVOG_clean_sbu_0, # of connection points: 7
#     Node 1, Type 0, BuildingBlock: HICVOG_clean_sbu_0, # of connection points: 7
#     Node 2, Type 0, BuildingBlock: HICVOG_clean_sbu_0, # of connection points: 7
#     Node 3, Type 0, BuildingBlock: HICVOG_clean_sbu_0, # of connection points: 7
#     Node 4, Type 0, BuildingBlock: HICVOG_clean_sbu_0, # of connection points: 7
#     Node 5, Type 0, BuildingBlock: HICVOG_clean_sbu_0, # of connection points: 7
#     Node 6, Type 0, BuildingBlock: HICVOG_clean_sbu_0, # of connection points: 7
#     Node 7, Type 0, BuildingBlock: HICVOG_clean_sbu_0, # of connection points: 7
#     Node 8, Type 0, BuildingBlock: HICVOG_clean_sbu_0, # of connection points: 7
#     Node 9, Type 0, BuildingBlock: HICVOG_clean_sbu_0, # of connection points: 7
#     Node 10, Type 0, BuildingBlock: HICVOG_clean_sbu_0, # of connection points: 7
#     Node 11, Type 0, BuildingBlock: HICVOG_clean_sbu_0, # of connection points: 7
#     Node 12, Type 0, BuildingBlock: HICVOG_clean_sbu_0, # of connection points: 7
#     Node 13, Type 0, BuildingBlock: HICVOG_clean_sbu_0, # of connection points: 7
#     Node 14, Type 0, BuildingBlock: HICVOG_clean_sbu_0, # of connection points: 7
#     Node 15, Type 0, BuildingBlock: HICVOG_clean_sbu_0, # of connection points: 7
#     Edge 16, Type (0, 0), BuildingBlock: EZIPEK_clean_linker_0, # of connection points: 2
#     Edge 17, Type (0, 0), BuildingBlock: EZIPEK_clean_linker_0, # of connection points: 2
#     Edge 18, Type (0, 0), BuildingBlock: EZIPEK_clean_linker_0, # of connection points: 2
#     Edge 19, Type (0, 0), BuildingBlock: EZIPEK_clean_linker_0, # of connection points: 2
#     Edge 20, Type (0, 0), BuildingBlock: EZIPEK_clean_linker_0, # of connection points: 2
#     Edge 21, Type (0, 0), BuildingBlock: EZIPEK_clean_linker_0, # of connection points: 2
#     Edge 22, Type (0, 0), BuildingBlock: EZIPEK_clean_linker_0, # of connection points: 2
#     Edge 23, Type (0, 0), BuildingBlock: EZIPEK_clean_linker_0, # of connection points: 2
#     Edge 24, Type (0, 0), BuildingBlock: EZIPEK_clean_linker_0, # of connection points: 2
#     Edge 25, Type (0, 0), BuildingBlock: EZIPEK_clean_linker_0, # of connection points: 2
#     Edge 26, Type (0, 0), BuildingBlock: EZIPEK_clean_linker_0, # of connection points: 2
#     Edge 27, Type (0, 0), BuildingBlock: EZIPEK_clean_linker_0, # of connection points: 2
#     Edge 28, Type (0, 0), BuildingBlock: EZIPEK_clean_linker_0, # of connection points: 2
#     Edge 29, Type (0, 0), BuildingBlock: EZIPEK_clean_linker_0, # of connection points: 2
#     Edge 30, Type (0, 0), BuildingBlock: EZIPEK_clean_linker_0, # of connection points: 2
#     Edge 31, Type (0, 0), BuildingBlock: EZIPEK_clean_linker_0, # of connection points: 2
#     Edge 32, Type (0, 0), BuildingBlock: EZIPEK_clean_linker_0, # of connection points: 2
#     Edge 33, Type (0, 0), BuildingBlock: EZIPEK_clean_linker_0, # of connection points: 2
#     Edge 34, Type (0, 0), BuildingBlock: EZIPEK_clean_linker_0, # of connection points: 2
#     Edge 35, Type (0, 0), BuildingBlock: EZIPEK_clean_linker_0, # of connection points: 2
#     Edge 36, Type (0, 0), BuildingBlock: EZIPEK_clean_linker_0, # of connection points: 2
#     Edge 37, Type (0, 0), BuildingBlock: EZIPEK_clean_linker_0, # of connection points: 2
#     Edge 38, Type (0, 0), BuildingBlock: EZIPEK_clean_linker_0, # of connection points: 2
#     Edge 39, Type (0, 0), BuildingBlock: EZIPEK_clean_linker_0, # of connection points: 2
#     Edge 40, Type (0, 0), BuildingBlock: EZIPEK_clean_linker_0, # of connection points: 2
#     Edge 41, Type (0, 0), BuildingBlock: EZIPEK_clean_linker_0, # of connection points: 2
#     Edge 42, Type (0, 0), BuildingBlock: EZIPEK_clean_linker_0, # of connection points: 2
#     Edge 43, Type (0, 0), BuildingBlock: EZIPEK_clean_linker_0, # of connection points: 2
#     Edge 44, Type (0, 0), BuildingBlock: EZIPEK_clean_linker_0, # of connection points: 2
#     Edge 45, Type (0, 0), BuildingBlock: EZIPEK_clean_linker_0, # of connection points: 2
#     Edge 46, Type (0, 0), BuildingBlock: EZIPEK_clean_linker_0, # of connection points: 2
#     Edge 47, Type (0, 0), BuildingBlock: EZIPEK_clean_linker_0, # of connection points: 2
#     Edge 48, Type (0, 0), BuildingBlock: EZIPEK_clean_linker_0, # of connection points: 2
#     Edge 49, Type (0, 0), BuildingBlock: EZIPEK_clean_linker_0, # of connection points: 2
#     Edge 50, Type (0, 0), BuildingBlock: EZIPEK_clean_linker_0, # of connection points: 2
#     Edge 51, Type (0, 0), BuildingBlock: EZIPEK_clean_linker_0, # of connection points: 2
#     Edge 52, Type (0, 0), BuildingBlock: EZIPEK_clean_linker_0, # of connection points: 2
#     Edge 53, Type (0, 0), BuildingBlock: EZIPEK_clean_linker_0, # of connection points: 2
#     Edge 54, Type (0, 0), BuildingBlock: EZIPEK_clean_linker_0, # of connection points: 2
#     Edge 55, Type (0, 0), BuildingBlock: EZIPEK_clean_linker_0, # of connection points: 2
#     Edge 56, Type (0, 0), BuildingBlock: EZIPEK_clean_linker_0, # of connection points: 2
#     Edge 57, Type (0, 0), BuildingBlock: EZIPEK_clean_linker_0, # of connection points: 2
#     Edge 58, Type (0, 0), BuildingBlock: EZIPEK_clean_linker_0, # of connection points: 2
#     Edge 59, Type (0, 0), BuildingBlock: EZIPEK_clean_linker_0, # of connection points: 2
#     Edge 60, Type (0, 0), BuildingBlock: EZIPEK_clean_linker_0, # of connection points: 2
#     Edge 61, Type (0, 0), BuildingBlock: EZIPEK_clean_linker_0, # of connection points: 2
#     Edge 62, Type (0, 0), BuildingBlock: EZIPEK_clean_linker_0, # of connection points: 2
#     Edge 63, Type (0, 0), BuildingBlock: EZIPEK_clean_linker_0, # of connection points: 2
#     Edge 64, Type (0, 0), BuildingBlock: EZIPEK_clean_linker_0, # of connection points: 2
#     Edge 65, Type (0, 0), BuildingBlock: EZIPEK_clean_linker_0, # of connection points: 2
#     Edge 66, Type (0, 0), BuildingBlock: EZIPEK_clean_linker_0, # of connection points: 2
#     Edge 67, Type (0, 0), BuildingBlock: EZIPEK_clean_linker_0, # of connection points: 2
#     Edge 68, Type (0, 0), BuildingBlock: EZIPEK_clean_linker_0, # of connection points: 2
#     Edge 69, Type (0, 0), BuildingBlock: EZIPEK_clean_linker_0, # of connection points: 2
#     Edge 70, Type (0, 0), BuildingBlock: EZIPEK_clean_linker_0, # of connection points: 2
#     Edge 71, Type (0, 0), BuildingBlock: EZIPEK_clean_linker_0, # of connection points: 2
# Relax obj value: 0.092
# Max RMSD: 0.189
# Mean RMSD: 0.189
data_MOF--net-swl--node1-HICVOG_clean_sbu_0--edge1-EZIPEK_clean_linker_0
_symmetry_space_group_name_H-M    P1
_symmetry_Int_Tables_number       1
_symmetry_cell_setting            triclinic
loop_
_symmetry_equiv_pos_as_xyz
'x, y, z'
_cell_length_a     14.167072
_cell_length_b     63.388626
_cell_length_c     37.585903
_cell_angle_alpha  89.909889
_cell_angle_beta   89.950175
_cell_angle_gamma 90.002242
loop_
_atom_site_label
_atom_site_type_symbol
_atom_site_fract_x
_atom_site_fract_y
_atom_site_fract_z
_atom_type_partial_charge
Zn0 Zn 0.02417 0.1189 0.51583 0.0
C1 C 0.19672 0.14226 0.44148 0.0
N2 N 0.12771 0.13691 0.41894 0.0
C3 C 0.05737 0.13165 0.44101 0.0
N4 N 0.08182 0.13354 0.47561 0.0
N5 N 0.16976 0.14054 0.47577 0.0
C6 C 0.4227 0.13889 0.51976 0.0
O7 O 0.3795 0.12359 0.53683 0.0
O8 O 0.87985 0.1176 0.51281 0.0
Zn9 Zn 0.23206 0.15425 0.51538 0.0
N10 N 0.08118 0.09091 0.51623 0.0
C11 C 0.2283 0.07267 0.51482 0.0
C12 C 0.17699 0.09138 0.51416 0.0
C13 C 0.03428 0.07224 0.52001 0.0
N14 N 0.18199 0.05408 0.51841 0.0
C15 C 0.08638 0.05328 0.52118 0.0
O16 O 0.2042 0.14252 0.56445 0.0
C17 C 0.13019 0.1365 0.58083 0.0
O18 O 0.05597 0.1304 0.56472 0.0
H19 H 0.21351 0.10628 0.51228 0.0
H20 H 0.95815 0.07213 0.52244 0.0
C21 C 0.22804 0.20099 0.52097 0.0
C22 C 0.1776 0.22008 0.52428 0.0
C23 C 0.03351 0.2013 0.52029 0.0
C24 C 0.08324 0.18246 0.51748 0.0
N25 N 0.17915 0.18256 0.51751 0.0
N26 N 0.08167 0.21964 0.52378 0.0
H27 H 0.30441 0.20078 0.52176 0.0
C28 C 0.8321 0.13449 0.50901 0.0
O29 O 0.87716 0.15245 0.5053 0.0
O30 O 0.37459 0.1543 0.5077 0.0
H31 H 0.04573 0.16769 0.51594 0.0
H32 H 0.30449 0.07293 0.51291 0.0
H33 H 0.95715 0.20132 0.52022 0.0
Zn34 Zn 0.02401 0.15273 0.80083 0.0
C35 C 0.19594 0.128 0.87413 0.0
N36 N 0.12624 0.13262 0.89685 0.0
C37 C 0.05629 0.13834 0.87497 0.0
N38 N 0.08142 0.13734 0.84033 0.0
N39 N 0.16958 0.13048 0.83993 0.0
C40 C 0.42198 0.13246 0.79624 0.0
O41 O 0.37849 0.14802 0.77999 0.0
O42 O 0.87937 0.15383 0.80369 0.0
Zn43 Zn 0.23153 0.11704 0.80001 0.0
N44 N 0.08024 0.18084 0.80203 0.0
C45 C 0.22552 0.19958 0.80718 0.0
C46 C 0.17551 0.1807 0.80652 0.0
C47 C 0.03297 0.19935 0.79693 0.0
N48 N 0.17877 0.21801 0.80234 0.0
C49 C 0.08388 0.21849 0.79705 0.0
O50 O 0.20359 0.1291 0.75124 0.0
C51 C 0.13048 0.1358 0.73508 0.0
O52 O 0.05701 0.14218 0.75141 0.0
H53 H 0.21281 0.16595 0.8092 0.0
H54 H 0.95752 0.1992 0.79246 0.0
C55 C 0.22597 0.07028 0.79439 0.0
C56 C 0.17484 0.05129 0.791 0.0
C57 C 0.03142 0.0704 0.79394 0.0
C58 C 0.08185 0.08913 0.79691 0.0
N59 N 0.17774 0.08882 0.79741 0.0
N60 N 0.07892 0.05194 0.79092 0.0
H61 H 0.30237 0.07032 0.79412 0.0
C62 C 0.83144 0.13694 0.80736 0.0
O63 O 0.87633 0.11896 0.81103 0.0
O64 O 0.37406 0.11683 0.8076 0.0
H65 H 0.0449 0.10399 0.79818 0.0
H66 H 0.30119 0.19958 0.81103 0.0
H67 H 0.95507 0.07054 0.79358 0.0
Zn68 Zn 0.9838 0.90414 0.55074 0.0
C69 C 0.80764 0.88269 0.62551 0.0
N70 N 0.87759 0.88823 0.64749 0.0
C71 C 0.94738 0.89299 0.62486 0.0
N72 N 0.921 0.89078 0.59063 0.0
N73 N 0.83281 0.88395 0.59088 0.0
C74 C 0.58363 0.88425 0.5576 0.0
O75 O 0.62849 0.90224 0.56107 0.0
O76 O 0.12623 0.90427 0.55853 0.0
Zn77 Zn 0.77616 0.8686 0.55128 0.0
N78 N 0.93058 0.93242 0.54776 0.0
C79 C 0.78467 0.95098 0.54386 0.0
C80 C 0.83468 0.9322 0.54716 0.0
C81 C 0.97921 0.95091 0.54455 0.0
N82 N 0.83258 0.96938 0.54062 0.0
C83 C 0.92849 0.96994 0.5408 0.0
O84 O 0.8095 0.8792 0.50183 0.0
C85 C 0.88376 0.88535 0.4857 0.0
O86 O 0.95665 0.89196 0.50206 0.0
H87 H 0.7974 0.91739 0.54861 0.0
H88 H 0.05561 0.9508 0.54438 0.0
C89 C 0.78588 0.822 0.54813 0.0
C90 C 0.83731 0.80295 0.54804 0.0
C91 C 0.97897 0.82206 0.55683 0.0
C92 C 0.92842 0.84087 0.55637 0.0
N93 N 0.83295 0.84058 0.55258 0.0
N94 N 0.93245 0.80356 0.55255 0.0
H95 H 0.71018 0.82204 0.54428 0.0
C96 C 0.17414 0.88867 0.54711 0.0
O97 O 0.1307 0.87317 0.53076 0.0
O98 O 0.6316 0.86737 0.55405 0.0
H99 H 0.96539 0.85568 0.55866 0.0
H100 H 0.70832 0.95092 0.5434 0.0
H101 H 0.05483 0.82217 0.5601 0.0
Zn102 Zn 0.77921 0.90306 0.26726 0.0
C103 C 0.95009 0.88077 0.1915 0.0
N104 N 0.88047 0.88656 0.16955 0.0
C105 C 0.81103 0.89152 0.19221 0.0
N106 N 0.83667 0.88902 0.22654 0.0
N107 N 0.9245 0.88197 0.22604 0.0
C108 C 0.17777 0.88222 0.27073 0.0
O109 O 0.13514 0.89684 0.28952 0.0
O110 O 0.6346 0.90418 0.26479 0.0
Zn111 Zn 0.98672 0.86754 0.26505 0.0
N112 N 0.83561 0.93107 0.26817 0.0
C113 C 0.98234 0.94947 0.267 0.0
C114 C 0.93144 0.93071 0.26619 0.0
C115 C 0.78825 0.94967 0.27191 0.0
N116 N 0.93558 0.96799 0.27053 0.0
C117 C 0.83991 0.96868 0.27315 0.0
O118 O 0.95967 0.87858 0.31471 0.0
C119 C 0.88639 0.88469 0.33145 0.0
O120 O 0.81232 0.89119 0.3157 0.0
H121 H 0.96829 0.91584 0.26429 0.0
H122 H 0.71208 0.94969 0.27414 0.0
C123 C 0.98068 0.82075 0.26924 0.0
C124 C 0.92934 0.80175 0.27227 0.0
C125 C 0.78613 0.82091 0.26889 0.0
C126 C 0.83674 0.83965 0.26647 0.0
N127 N 0.93265 0.83932 0.26626 0.0
N128 N 0.83344 0.80242 0.27192 0.0
H129 H 0.05705 0.82077 0.27001 0.0
C130 C 0.58683 0.8875 0.25897 0.0
O131 O 0.63191 0.86979 0.25279 0.0
O132 O 0.12909 0.86741 0.25704 0.0
H133 H 0.79988 0.85452 0.26543 0.0
H134 H 0.05855 0.9493 0.2652 0.0
H135 H 0.70977 0.82107 0.26897 0.0
Zn136 Zn 0.23273 0.65332 1.01604 0.0
C137 C 0.06223 0.63013 0.94105 0.0
N138 N 0.13245 0.63532 0.91888 0.0
C139 C 0.20172 0.64061 0.94138 0.0
N140 N 0.17553 0.63883 0.97578 0.0
N141 N 0.08747 0.63193 0.97551 0.0
C142 C 0.83458 0.63285 1.02002 0.0
O143 O 0.87748 0.64774 0.03809 0.0
O144 O 0.37735 0.65475 1.01331 0.0
Zn145 Zn 0.02529 0.61786 1.01488 0.0
N146 N 0.17496 0.68123 1.01672 0.0
C147 C 0.0276 0.69939 1.01591 0.0
C148 C 0.07917 0.68073 1.01442 0.0
C149 C 0.2216 0.69988 1.02105 0.0
N150 N 0.07362 0.71794 1.02033 0.0
C151 C 0.16922 0.71876 1.02303 0.0
O152 O 0.05311 0.62916 0.06428 0.0
C153 C 0.12691 0.6352 0.08073 0.0
O154 O 0.2009 0.64154 0.06468 0.0
H155 H 0.04281 0.66585 1.01194 0.0
H156 H 0.29771 0.7 1.02349 0.0
C157 C 0.03009 0.57109 1.01948 0.0
C158 C 0.08078 0.55201 1.02252 0.0
C159 C 0.22464 0.57093 1.01904 0.0
C160 C 0.17467 0.58976 1.01655 0.0
N161 N 0.07874 0.58958 1.01642 0.0
N162 N 0.1767 0.55253 1.02215 0.0
H163 H 0.95372 0.57124 1.02023 0.0
C164 C 0.42562 0.63809 1.00796 0.0
O165 O 0.38102 0.62025 1.00235 0.0
O166 O 0.88296 0.61777 1.00701 0.0
H167 H 0.21207 0.60456 1.01538 0.0
H168 H 0.95141 0.69911 1.01401 0.0
H169 H 0.301 0.57096 1.01907 0.0
Zn170 Zn 0.02388 0.65278 0.29974 0.0
C171 C 0.19808 0.6308 0.37423 0.0
N172 N 0.12957 0.63663 0.39669 0.0
C173 C 0.05857 0.64128 0.37458 0.0
N174 N 0.08218 0.63856 0.34008 0.0
N175 N 0.17026 0.63166 0.33996 0.0
C176 C 0.42328 0.63249 0.29594 0.0
O177 O 0.38112 0.64763 0.27813 0.0
O178 O 0.87951 0.65384 0.30298 0.0
Zn179 Zn 0.23176 0.61745 0.30063 0.0
N180 N 0.08068 0.68079 0.29859 0.0
C181 C 0.22782 0.69903 0.29965 0.0
C182 C 0.1765 0.68033 0.30063 0.0
C183 C 0.03381 0.69943 0.29443 0.0
N184 N 0.18154 0.71759 0.29577 0.0
C185 C 0.08594 0.71838 0.29296 0.0
O186 O 0.2036 0.62881 0.25127 0.0
C187 C 0.1295 0.63483 0.23496 0.0
O188 O 0.05547 0.64101 0.25112 0.0
H189 H 0.21305 0.66545 0.30271 0.0
H190 H 0.9577 0.69952 0.29201 0.0
C191 C 0.22751 0.57075 0.29531 0.0
C192 C 0.17737 0.55157 0.29296 0.0
C193 C 0.03328 0.57014 0.29927 0.0
C194 C 0.08268 0.58906 0.30115 0.0
N195 N 0.17852 0.58911 0.2995 0.0
N196 N 0.08158 0.55186 0.29506 0.0
H197 H 0.30371 0.57108 0.29325 0.0
C198 C 0.83216 0.63712 0.30904 0.0
O199 O 0.87749 0.61944 0.31532 0.0
O200 O 0.37427 0.61732 0.30838 0.0
H201 H 0.04483 0.60376 0.3033 0.0
H202 H 0.304 0.69878 0.30156 0.0
H203 H 0.95701 0.56999 0.30062 0.0
Zn204 Zn 0.77565 0.3676 0.04966 0.0
C205 C 0.95145 0.39068 0.12296 0.0
N206 N 0.88181 0.38552 0.14547 0.0
C207 C 0.81193 0.38021 0.12332 0.0
N208 N 0.83771 0.38178 0.08886 0.0
N209 N 0.92581 0.38868 0.08855 0.0
C210 C 0.17588 0.38789 0.05664 0.0
O211 O 0.13121 0.37013 0.06293 0.0
O212 O 0.63326 0.36755 0.05757 0.0
Zn213 Zn 0.98297 0.40326 0.04821 0.0
N214 N 0.82909 0.33932 0.04852 0.0
C215 C 0.97479 0.32053 0.04803 0.0
C216 C 0.92499 0.33942 0.04945 0.0
C217 C 0.78043 0.32088 0.04497 0.0
N218 N 0.92681 0.30215 0.04474 0.0
C219 C 0.83098 0.30174 0.043 0.0
O220 O 0.95027 0.39174 0.99954 0.0
C221 C 0.87678 0.38509 0.98361 0.0
O222 O 0.80359 0.37873 1.00016 0.0
H223 H 0.96257 0.35418 0.0508 0.0
H224 H 0.70418 0.32109 0.04327 0.0
C225 C 0.97294 0.44985 0.04357 0.0
C226 C 0.92128 0.46888 0.04303 0.0
C227 C 0.77943 0.44967 0.05104 0.0
C228 C 0.83027 0.4309 0.05115 0.0
N229 N 0.92591 0.43125 0.04795 0.0
N230 N 0.82592 0.4682 0.04692 0.0
H231 H 0.04886 0.44986 0.04035 0.0
C232 C 0.58491 0.38259 0.04439 0.0
O233 O 0.62787 0.39744 1.02614 0.0
O234 O 0.1277 0.40452 0.05073 0.0
H235 H 0.79346 0.41606 0.05351 0.0
H236 H 0.05111 0.32049 0.04901 0.0
H237 H 0.70342 0.44951 0.05383 0.0
Zn238 Zn 0.77299 0.40236 0.76446 0.0
C239 C 0.948 0.38053 0.6902 0.0
N240 N 0.8798 0.38638 0.66763 0.0
C241 C 0.8085 0.391 0.68965 0.0
N242 N 0.83171 0.38824 0.72418 0.0
N243 N 0.91977 0.38135 0.72443 0.0
C244 C 0.1726 0.38207 0.76861 0.0
O245 O 0.13061 0.39714 0.78658 0.0
O246 O 0.62867 0.40347 0.76111 0.0
Zn247 Zn 0.98088 0.36716 0.76389 0.0
N248 N 0.83018 0.43032 0.7658 0.0
C249 C 0.97799 0.44829 0.76699 0.0
C250 C 0.92612 0.42971 0.76485 0.0
C251 C 0.7836 0.44902 0.7695 0.0
N252 N 0.93205 0.46689 0.77078 0.0
C253 C 0.83627 0.46784 0.77219 0.0
O254 O 0.95267 0.37867 0.81311 0.0
C255 C 0.87821 0.38452 0.82938 0.0
O256 O 0.80389 0.39047 0.81315 0.0
H257 H 0.9623 0.41477 0.76293 0.0
H258 H 0.7073 0.44924 0.77097 0.0
C259 C 0.97583 0.32045 0.76982 0.0
C260 C 0.92528 0.30133 0.77238 0.0
C261 C 0.78164 0.32001 0.76565 0.0
C262 C 0.83142 0.33888 0.76356 0.0
N263 N 0.92724 0.33885 0.76532 0.0
N264 N 0.82952 0.3017 0.77016 0.0
H265 H 0.052 0.32071 0.77197 0.0
C266 C 0.58141 0.38675 0.75501 0.0
O267 O 0.62682 0.3691 0.74866 0.0
O268 O 0.12343 0.36697 0.75611 0.0
H269 H 0.79387 0.3536 0.76118 0.0
H270 H 0.05431 0.44791 0.76612 0.0
H271 H 0.70538 0.31994 0.76421 0.0
Zn272 Zn 0.72924 0.15312 1.01491 0.0
C273 C 0.55648 0.12914 0.94114 0.0
N274 N 0.62783 0.13361 0.91902 0.0
C275 C 0.69604 0.13955 0.94148 0.0
N276 N 0.66782 0.13891 0.9757 0.0
N277 N 0.57967 0.13209 0.97562 0.0
C278 C 0.32989 0.13391 1.00654 0.0
O279 O 0.3755 0.15149 0.99981 0.0
O280 O 0.87159 0.15358 1.00685 0.0
Zn281 Zn 0.52127 0.11806 1.01614 0.0
N282 N 0.67424 0.18124 1.01655 0.0
C283 C 0.52765 0.19964 1.01859 0.0
C284 C 0.57833 0.18091 1.01613 0.0
C285 C 0.72215 0.19979 1.01997 0.0
N286 N 0.57486 0.21811 1.02205 0.0
C287 C 0.67074 0.21876 1.02289 0.0
O288 O 0.55387 0.12981 0.06484 0.0
C289 C 0.62875 0.13571 0.08074 0.0
O290 O 0.70281 0.14149 0.06415 0.0
H291 H 0.54152 0.16606 1.01456 0.0
H292 H 0.7985 0.19977 1.02098 0.0
C293 C 0.52967 0.07136 1.02073 0.0
C294 C 0.58142 0.0524 1.02308 0.0
C295 C 0.72407 0.07164 1.01797 0.0
C296 C 0.67311 0.09036 1.01614 0.0
N297 N 0.57717 0.08997 1.01723 0.0
N298 N 0.67724 0.05312 1.02156 0.0
H299 H 0.45339 0.07133 1.02228 0.0
C300 C 0.92105 0.13855 1.01946 0.0
O301 O 0.87933 0.12344 0.03752 0.0
O302 O 0.3769 0.1172 1.01303 0.0
H303 H 0.71 0.10523 1.01432 0.0
H304 H 0.45129 0.19949 1.01824 0.0
H305 H 0.80039 0.07184 1.017 0.0
Zn306 Zn 0.7326 0.11759 0.3004 0.0
C307 C 0.5574 0.14004 0.37479 0.0
N308 N 0.62762 0.13481 0.3969 0.0
C309 C 0.69679 0.12947 0.37438 0.0
N310 N 0.66997 0.13116 0.34009 0.0
N311 N 0.582 0.13813 0.3402 0.0
C312 C 0.33263 0.13733 0.30681 0.0
O313 O 0.37763 0.11936 0.31049 0.0
O314 O 0.87508 0.11754 0.3081 0.0
Zn315 Zn 0.52477 0.15286 0.30001 0.0
N316 N 0.67987 0.08926 0.29823 0.0
C317 C 0.53445 0.07047 0.29516 0.0
C318 C 0.58396 0.08934 0.29794 0.0
C319 C 0.72899 0.07084 0.29522 0.0
N320 N 0.58284 0.05213 0.2921 0.0
C321 C 0.67878 0.05172 0.29199 0.0
O322 O 0.55645 0.1414 0.25111 0.0
C323 C 0.63088 0.13542 0.23498 0.0
O324 O 0.70485 0.1294 0.25134 0.0
H325 H 0.5463 0.1041 0.29922 0.0
H326 H 0.80537 0.07107 0.29478 0.0
C327 C 0.53542 0.19945 0.29514 0.0
C328 C 0.58752 0.21841 0.29408 0.0
C329 C 0.7291 0.19908 0.30174 0.0
C330 C 0.67782 0.18036 0.30228 0.0
N331 N 0.58212 0.18081 0.29959 0.0
N332 N 0.68296 0.21764 0.29757 0.0
H333 H 0.45945 0.19952 0.29214 0.0
C334 C 0.92326 0.13296 0.29608 0.0
O335 O 0.88016 0.14828 0.27905 0.0
O336 O 0.38045 0.15422 0.30304 0.0
H337 H 0.71429 0.16548 0.30454 0.0
H338 H 0.45809 0.07042 0.29495 0.0
H339 H 0.80518 0.19884 0.30418 0.0
Zn340 Zn 0.48421 0.9034 0.05001 0.0
C341 C 0.31287 0.88097 0.12565 0.0
N342 N 0.38225 0.88678 0.14766 0.0
C343 C 0.45194 0.89174 0.12507 0.0
N344 N 0.42661 0.88923 0.0907 0.0
N345 N 0.33879 0.88214 0.09114 0.0
C346 C 0.08554 0.88254 0.04614 0.0
O347 O 0.12819 0.89707 1.02708 0.0
O348 O 0.62881 0.90445 0.05246 0.0
Zn349 Zn 0.27656 0.86762 0.05221 0.0
N350 N 0.42803 0.93146 0.04908 0.0
C351 C 0.28144 0.94989 0.05076 0.0
C352 C 0.33224 0.93111 0.0514 0.0
C353 C 0.47535 0.95005 0.04495 0.0
N354 N 0.32818 0.9684 0.04692 0.0
C355 C 0.42376 0.96908 0.04383 0.0
O356 O 0.30497 0.87832 1.00244 0.0
C357 C 0.37779 0.88479 0.98577 0.0
O358 O 0.45105 0.89167 1.00158 0.0
H359 H 0.29536 0.91626 0.05348 0.0
H360 H 0.55144 0.95004 0.04232 0.0
C361 C 0.27931 0.8209 0.04756 0.0
C362 C 0.32882 0.80159 0.04622 0.0
C363 C 0.47321 0.81996 0.05314 0.0
C364 C 0.42447 0.839 0.05387 0.0
N365 N 0.32872 0.83919 0.0518 0.0
N366 N 0.42445 0.80173 0.04922 0.0
H367 H 0.20329 0.82135 0.04481 0.0
C368 C 0.67655 0.8878 0.05861 0.0
O369 O 0.63146 0.87014 0.06524 0.0
O370 O 0.13414 0.86777 0.06006 0.0
H371 H 0.46279 0.85366 0.0556 0.0
H372 H 0.20528 0.94974 0.0529 0.0
H373 H 0.54938 0.8197 0.05508 0.0
Zn374 Zn 0.27283 0.90232 0.76669 0.0
C375 C 0.44742 0.88057 0.69219 0.0
N376 N 0.37895 0.8864 0.66973 0.0
C377 C 0.3078 0.89096 0.69184 0.0
N378 N 0.33128 0.88819 0.72634 0.0
N379 N 0.41945 0.88136 0.72646 0.0
C380 C 0.67232 0.88209 0.77039 0.0
O381 O 0.63016 0.89722 0.78817 0.0
O382 O 0.12852 0.90335 0.76348 0.0
Zn383 Zn 0.48085 0.86714 0.76581 0.0
N384 N 0.32919 0.93037 0.76757 0.0
C385 C 0.476 0.94873 0.76644 0.0
C386 C 0.42505 0.92998 0.76574 0.0
C387 C 0.28189 0.94898 0.7712 0.0
N388 N 0.42931 0.96727 0.76981 0.0
C389 C 0.33363 0.96799 0.77237 0.0
O390 O 0.4529 0.87849 0.81514 0.0
C391 C 0.37874 0.88441 0.83152 0.0
O392 O 0.30459 0.89056 0.81539 0.0
H393 H 0.46189 0.91512 0.76398 0.0
H394 H 0.20572 0.94902 0.77341 0.0
C395 C 0.47635 0.82045 0.77073 0.0
C396 C 0.42613 0.8013 0.77333 0.0
C397 C 0.28195 0.81996 0.76832 0.0
C398 C 0.33145 0.83887 0.76619 0.0
N399 N 0.42735 0.83885 0.76711 0.0
N400 N 0.33026 0.80164 0.77199 0.0
H401 H 0.55264 0.82073 0.77216 0.0
C402 C 0.08123 0.88663 0.75742 0.0
O403 O 0.12659 0.86896 0.75116 0.0
O404 O 0.62329 0.86695 0.75797 0.0
H405 H 0.2937 0.8536 0.76443 0.0
H406 H 0.55223 0.94854 0.7647 0.0
H407 H 0.20562 0.81986 0.76756 0.0
Zn408 Zn 0.52627 0.61872 0.51505 0.0
C409 C 0.69779 0.64336 0.44151 0.0
N410 N 0.62803 0.63871 0.41886 0.0
C411 C 0.55808 0.63304 0.44082 0.0
N412 N 0.58325 0.63409 0.47544 0.0
N413 N 0.67143 0.64093 0.47573 0.0
C414 C 0.92425 0.63877 0.5193 0.0
O415 O 0.88076 0.62324 0.53568 0.0
O416 O 0.38174 0.61749 0.51226 0.0
Zn417 Zn 0.73392 0.65422 0.51563 0.0
N418 N 0.58304 0.59071 0.51374 0.0
C419 C 0.72896 0.57217 0.5092 0.0
C420 C 0.67852 0.59099 0.50992 0.0
C421 C 0.53587 0.57212 0.51803 0.0
N422 N 0.68232 0.55366 0.51325 0.0
C423 C 0.58716 0.55305 0.51782 0.0
O424 O 0.70648 0.642 0.56432 0.0
C425 C 0.63337 0.63542 0.58065 0.0
O426 O 0.55927 0.62928 0.56448 0.0
H427 H 0.71557 0.60581 0.50776 0.0
H428 H 0.46016 0.57216 0.52191 0.0
C429 C 0.72944 0.70093 0.5222 0.0
C430 C 0.67882 0.71996 0.52598 0.0
C431 C 0.53489 0.70112 0.52208 0.0
C432 C 0.5848 0.68233 0.5188 0.0
N433 N 0.68072 0.6825 0.51858 0.0
N434 N 0.5829 0.71947 0.52575 0.0
H435 H 0.80582 0.70077 0.52272 0.0
C436 C 0.33377 0.63437 0.50868 0.0
O437 O 0.3786 0.65237 0.50517 0.0
O438 O 0.87638 0.65437 0.50785 0.0
H439 H 0.54741 0.66755 0.51708 0.0
H440 H 0.80482 0.57228 0.50588 0.0
H441 H 0.45853 0.70109 0.52222 0.0
Zn442 Zn 0.52892 0.65277 0.79956 0.0
C443 C 0.7003 0.62977 0.87456 0.0
N444 N 0.63033 0.63507 0.89674 0.0
C445 C 0.56076 0.64023 0.87427 0.0
N446 N 0.5865 0.63826 0.83985 0.0
N447 N 0.67459 0.63135 0.84009 0.0
C448 C 0.92707 0.63191 0.79572 0.0
O449 O 0.8842 0.64682 0.77762 0.0
O450 O 0.38414 0.65382 0.80204 0.0
Zn451 Zn 0.73629 0.61697 0.80091 0.0
N452 N 0.58488 0.68086 0.7994 0.0
C453 C 0.73064 0.69957 0.80232 0.0
C454 C 0.68053 0.68069 0.80252 0.0
C455 C 0.53711 0.69937 0.79507 0.0
N456 N 0.68344 0.718 0.79819 0.0
C457 C 0.58804 0.71848 0.79441 0.0
O458 O 0.70862 0.62808 0.7514 0.0
C459 C 0.6358 0.63464 0.73489 0.0
O460 O 0.56252 0.64142 0.75085 0.0
H461 H 0.71791 0.66592 0.80485 0.0
H462 H 0.46119 0.69923 0.79191 0.0
C463 C 0.73083 0.57023 0.79584 0.0
C464 C 0.68004 0.5511 0.79411 0.0
C465 C 0.53666 0.56995 0.80031 0.0
C466 C 0.58668 0.58882 0.80147 0.0
N467 N 0.68251 0.58869 0.7999 0.0
N468 N 0.58431 0.55156 0.79657 0.0
H469 H 0.807 0.57042 0.79357 0.0
C470 C 0.33603 0.63719 0.80805 0.0
O471 O 0.38073 0.61946 0.81446 0.0
O472 O 0.87862 0.61683 0.80877 0.0
H473 H 0.5493 0.60359 0.80314 0.0
H474 H 0.80666 0.69956 0.80503 0.0
H475 H 0.4604 0.56994 0.80184 0.0
Zn476 Zn 0.48381 0.40418 0.54873 0.0
C477 C 0.30817 0.38261 0.62356 0.0
N478 N 0.37828 0.38811 0.6455 0.0
C479 C 0.44789 0.39292 0.62282 0.0
N480 N 0.42128 0.39077 0.5886 0.0
N481 N 0.3331 0.38394 0.58891 0.0
C482 C 0.08368 0.38438 0.55588 0.0
O483 O 0.12854 0.40235 0.55966 0.0
O484 O 0.62624 0.40435 0.55651 0.0
Zn485 Zn 0.27615 0.36873 0.54923 0.0
N486 N 0.43032 0.43244 0.54588 0.0
C487 C 0.28427 0.45098 0.54255 0.0
C488 C 0.3344 0.43221 0.54567 0.0
C489 C 0.47882 0.45091 0.54236 0.0
N490 N 0.33205 0.46938 0.53903 0.0
C491 C 0.42798 0.46994 0.53879 0.0
O492 O 0.3092 0.37951 0.49985 0.0
C493 C 0.38343 0.38564 0.48369 0.0
O494 O 0.45665 0.39209 0.50002 0.0
H495 H 0.29719 0.4174 0.54729 0.0
H496 H 0.5552 0.4508 0.54181 0.0
C497 C 0.28567 0.32212 0.54588 0.0
C498 C 0.33701 0.30306 0.54576 0.0
C499 C 0.47884 0.32214 0.55432 0.0
C500 C 0.42835 0.34096 0.55392 0.0
N501 N 0.33285 0.3407 0.55026 0.0
N502 N 0.43221 0.30365 0.55014 0.0
H503 H 0.20993 0.32218 0.54215 0.0
C504 C 0.67427 0.3888 0.54497 0.0
O505 O 0.63096 0.37334 0.52847 0.0
O506 O 0.1316 0.36751 0.55207 0.0
H507 H 0.4654 0.35577 0.55618 0.0
H508 H 0.20791 0.45091 0.54242 0.0
H509 H 0.55474 0.32224 0.55749 0.0
Zn510 Zn 0.27909 0.40315 0.26476 0.0
C511 C 0.44945 0.37971 0.18973 0.0
N512 N 0.37914 0.38486 0.16762 0.0
C513 C 0.30996 0.39019 0.19017 0.0
N514 N 0.3362 0.38846 0.22456 0.0
N515 N 0.42426 0.38153 0.22421 0.0
C516 C 0.67694 0.38238 0.26831 0.0
O517 O 0.63373 0.39738 0.28604 0.0
O518 O 0.13431 0.40427 0.26237 0.0
Zn519 Zn 0.48643 0.36736 0.26348 0.0
N520 N 0.33523 0.43125 0.2645 0.0
C521 C 0.48063 0.45002 0.26018 0.0
C522 C 0.43064 0.43112 0.26044 0.0
C523 C 0.28769 0.44973 0.26944 0.0
N524 N 0.43362 0.46842 0.26485 0.0
C525 C 0.33851 0.46887 0.26964 0.0
O526 O 0.459 0.37863 0.31288 0.0
C527 C 0.38615 0.38514 0.32945 0.0
O528 O 0.31268 0.39185 0.31354 0.0
H529 H 0.46799 0.41638 0.25773 0.0
H530 H 0.21202 0.44955 0.27342 0.0
C531 C 0.48099 0.3206 0.2686 0.0
C532 C 0.43001 0.30157 0.27187 0.0
C533 C 0.28645 0.32056 0.26785 0.0
C534 C 0.33671 0.33934 0.26517 0.0
N535 N 0.43263 0.3391 0.26516 0.0
N536 N 0.33409 0.30215 0.27132 0.0
H537 H 0.55735 0.32071 0.2695 0.0
C538 C 0.08614 0.38761 0.25689 0.0
O539 O 0.13083 0.3698 0.25113 0.0
O540 O 0.62875 0.36721 0.25553 0.0
H541 H 0.29953 0.35417 0.26377 0.0
H542 H 0.55644 0.45004 0.25669 0.0
H543 H 0.21009 0.32064 0.26778 0.0
C544 C 0.25396 0.27095 0.56907 0.0
C545 C 0.29153 0.28229 0.53972 0.0
C546 C 0.25731 0.25245 0.50006 0.0
C547 C 0.22497 0.24068 0.5298 0.0
N548 N 0.20347 0.23717 0.59311 0.0
N549 N 0.33908 0.28354 0.47813 0.0
C550 C 0.22629 0.24953 0.56448 0.0
C551 C 0.29614 0.27293 0.50543 0.0
N552 N 0.2437 0.28081 0.6012 0.0
N553 N 0.24786 0.2443 0.46657 0.0
H554 H 0.36357 0.299 0.4805 0.0
H555 H 0.35518 0.27675 0.45368 0.0
H556 H 0.22258 0.22911 0.46175 0.0
H557 H 0.25964 0.25291 0.44339 0.0
H558 H 0.2077 0.2743 0.62272 0.0
H559 H 0.26547 0.2963 0.60572 0.0
H560 H 0.21175 0.24185 0.61945 0.0
H561 H 0.18301 0.22142 0.59066 0.0
C562 C 1.00359 1.00253 0.56597 0.0
C563 C 0.97564 0.99063 0.53583 0.0
C564 C 0.00799 0.02092 0.49678 0.0
C565 C 0.04114 0.03241 0.52663 0.0
N566 N 0.08073 0.03389 0.58897 0.0
N567 N 0.96192 0.98699 0.47227 0.0
C568 C 0.0419 0.02312 0.56107 0.0
C569 C 0.98079 0.99943 0.50112 0.0
N570 N 0.99054 0.99439 0.59934 0.0
N571 N 1.00143 0.0307 0.4644 0.0
H572 H 0.94175 0.97121 0.47455 0.0
H573 H 0.97313 0.99164 0.44605 0.0
H574 H 0.02295 0.04624 0.46011 0.0
H575 H 0.96869 0.02406 0.44232 0.0
H576 H 0.99885 1.00306 0.62261 0.0
H577 H 0.96576 0.97912 0.60388 0.0
H578 H 0.09409 0.02718 0.61375 0.0
H579 H 0.10461 0.04941 0.58687 0.0
C580 C 0.22267 0.02128 0.75182 0.0
C581 C 0.22158 0.03056 0.78618 0.0
C582 C 0.29249 0.99859 0.81163 0.0
C583 C 0.28798 0.98882 0.77765 0.0
N584 N 0.24058 0.9896 0.71611 0.0
N585 N 0.2443 0.02769 0.84952 0.0
C586 C 0.25042 0.9998 0.74794 0.0
C587 C 0.25384 0.01915 0.81631 0.0
N588 N 0.19976 0.03328 0.72279 0.0
N589 N 0.33494 0.98827 0.83932 0.0
H590 H 0.21881 0.04291 0.85385 0.0
H591 H 0.25608 0.01937 0.87298 0.0
H592 H 0.35867 0.97272 0.83758 0.0
H593 H 0.35124 0.99536 0.8635 0.0
H594 H 0.20783 0.02828 0.69661 0.0
H595 H 0.17938 0.04906 0.72471 0.0
H596 H 0.2044 0.99582 0.69442 0.0
H597 H 0.26313 0.97413 0.71199 0.0
C598 C 0.04851 0.24873 0.75605 0.0
C599 C 0.0385 0.2392 0.79011 0.0
C600 C 0.9678 0.27172 0.81345 0.0
C601 C 0.97217 0.28075 0.77888 0.0
N602 N 0.00591 0.27746 0.7163 0.0
N603 N 0.98043 0.24033 0.85034 0.0
C604 C 0.00997 0.26917 0.7499 0.0
C605 C 0.99553 0.25033 0.81856 0.0
N606 N 0.0961 0.23829 0.72972 0.0
N607 N 0.93965 0.2839 0.84156 0.0
H608 H 1.00241 0.2249 0.85536 0.0
H609 H 0.94048 0.24665 0.87097 0.0
H610 H 0.91916 0.29963 0.83873 0.0
H611 H 0.94348 0.27912 0.86801 0.0
H612 H 0.11621 0.24524 0.70578 0.0
H613 H 0.1202 0.22283 0.73248 0.0
H614 H 0.02198 0.26899 0.6934 0.0
H615 H 0.98081 0.29261 0.71097 0.0
C616 C 0.79377 0.77322 0.50729 0.0
C617 C 0.79196 0.78218 0.54191 0.0
C618 C 0.73022 0.74904 0.56647 0.0
C619 C 0.72604 0.74057 0.53156 0.0
N620 N 0.74302 0.74492 0.46819 0.0
N621 N 0.74963 0.77998 0.60388 0.0
C622 C 0.75516 0.75273 0.50179 0.0
C623 C 0.75751 0.77046 0.57136 0.0
N624 N 0.83405 0.78418 0.47982 0.0
N625 N 0.71028 0.73634 0.59499 0.0
H626 H 0.7708 0.79549 0.60852 0.0
H627 H 0.71601 0.77315 0.62567 0.0
H628 H 0.68997 0.7206 0.5923 0.0
H629 H 0.72078 0.74075 0.62134 0.0
H630 H 0.84802 0.77769 0.45495 0.0
H631 H 0.85861 0.79962 0.48241 0.0
H632 H 0.75225 0.75381 0.44516 0.0
H633 H 0.71807 0.72972 0.46323 0.0
C634 C 0.75937 1.00075 0.2485 0.0
C635 C 0.79406 0.98949 0.2784 0.0
C636 C 0.75608 0.01942 0.31739 0.0
C637 C 0.72652 0.0311 0.28717 0.0
N638 N 0.71054 0.03445 0.22362 0.0
N639 N 0.83545 0.98835 0.3406 0.0
C640 C 0.73104 0.02217 0.25259 0.0
C641 C 0.79532 0.99892 0.31268 0.0
N642 N 0.75257 0.99084 0.21629 0.0
N643 N 0.74363 0.02767 0.35068 0.0
H644 H 0.85993 0.97287 0.33868 0.0
H645 H 0.84921 0.9952 0.36521 0.0
H646 H 0.7181 0.04289 0.35506 0.0
H647 H 0.75319 0.01913 0.37406 0.0
H648 H 0.71864 0.99728 0.19426 0.0
H649 H 0.77528 0.97539 0.21211 0.0
H650 H 0.72119 0.02972 0.19743 0.0
H651 H 0.68949 0.05017 0.22572 0.0
C652 C 0.00877 0.76945 0.24782 0.0
C653 C 0.97573 0.78101 0.27762 0.0
C654 C 1.00265 0.75039 0.3165 0.0
C655 C 0.04084 0.73923 0.28712 0.0
N656 N 0.08966 0.73835 0.22564 0.0
N657 N 0.95201 0.78403 0.34087 0.0
C658 C 0.04667 0.74885 0.25299 0.0
C659 C 0.97554 0.77187 0.31214 0.0
N660 N 1.00076 0.7779 0.21445 0.0
N661 N 0.9916 0.74034 0.34847 0.0
H662 H 0.93206 0.79982 0.3386 0.0
H663 H 0.95917 0.77914 0.36716 0.0
H664 H 0.01365 0.72486 0.35297 0.0
H665 H 0.95489 0.74669 0.36991 0.0
H666 H 0.01318 0.76949 0.19115 0.0
H667 H 0.97606 0.79316 0.20978 0.0
H668 H 0.10688 0.7453 0.20139 0.0
H669 H 0.11284 0.72277 0.22775 0.0
C670 C 0.24937 0.75127 0.99965 0.0
C671 C 0.21433 0.73957 1.02904 0.0
C672 C 0.24043 0.7699 0.06853 0.0
C673 C 0.28128 0.7811 0.03965 0.0
N674 N 0.33263 0.78234 0.97848 0.0
N675 N 0.18539 0.7363 0.09196 0.0
C676 C 0.28797 0.77173 1.0054 0.0
C677 C 0.21207 0.74853 0.06364 0.0
N678 N 0.24287 0.74304 0.96611 0.0
N679 N 0.22819 0.77979 0.10053 0.0
H680 H 0.16407 0.72063 0.08929 0.0
H681 H 0.19083 0.74101 0.11839 0.0
H682 H 0.25087 0.79517 0.10534 0.0
H683 H 0.18997 0.77343 0.12162 0.0
H684 H 0.25686 0.75157 0.94302 0.0
H685 H 0.21781 0.72787 0.96104 0.0
H686 H 0.35067 0.77554 0.95424 0.0
H687 H 0.35617 0.79787 0.98095 0.0
C688 C 0.03453 0.52206 0.06226 0.0
C689 C 0.03364 0.53135 1.02785 0.0
C690 C 0.96 0.4995 1.00326 0.0
C691 C 0.96671 0.4897 0.03721 0.0
N692 N 0.01851 0.49038 0.09825 0.0
N693 N 0.00643 0.52854 0.96478 0.0
C694 C 0.00659 0.50062 0.06649 0.0
C695 C 0.99894 0.52 0.99811 0.0
N696 N 0.05949 0.53404 0.09102 0.0
N697 N 0.91522 0.48925 0.97606 0.0
H698 H 0.03211 0.54373 0.96013 0.0
H699 H 0.99274 0.52025 0.94148 0.0
H700 H 0.89101 0.47375 0.97814 0.0
H701 H 0.89747 0.49638 0.95202 0.0
H702 H 0.05294 0.52903 0.11728 0.0
H703 H 0.07999 0.5498 0.08885 0.0
H704 H 0.05645 0.49655 0.11952 0.0
H705 H 0.99591 0.47494 0.10267 0.0
C706 C 0.26249 0.51959 0.31599 0.0
C707 C 0.22479 0.53102 0.28681 0.0
C708 C 0.24985 0.50056 0.24753 0.0
C709 C 0.29263 0.48956 0.2762 0.0
N710 N 0.34904 0.48887 0.33673 0.0
N711 N 0.19315 0.53398 0.22405 0.0
C712 C 0.30172 0.49918 0.31017 0.0
C713 C 0.22128 0.52191 0.25234 0.0
N714 N 0.25765 0.52796 0.34948 0.0
N715 N 0.23581 0.49048 0.21581 0.0
H716 H 0.17201 0.54967 0.22665 0.0
H717 H 0.19755 0.52914 0.19766 0.0
H718 H 0.25872 0.47511 0.21097 0.0
H719 H 0.19594 0.49667 0.19505 0.0
H720 H 0.27365 0.51958 0.37252 0.0
H721 H 0.23198 0.54308 0.35458 0.0
H722 H 0.3685 0.49589 0.36063 0.0
H723 H 0.37354 0.47342 0.33422 0.0
C724 C 0.78432 0.27197 1.00292 0.0
C725 C 0.78398 0.2811 0.03743 0.0
C726 C 0.72195 0.24818 0.06276 0.0
C727 C 0.71719 0.23949 1.02801 0.0
N728 N 0.73276 0.24341 0.96451 0.0
N729 N 0.74386 0.27926 0.09964 0.0
C730 C 0.7456 0.25145 0.99792 0.0
C731 C 0.75006 0.26959 0.06721 0.0
N732 N 0.82323 0.28283 0.97504 0.0
N733 N 0.70192 0.23569 0.09152 0.0
H734 H 0.76627 0.29471 0.10402 0.0
H735 H 0.71069 0.27263 0.12169 0.0
H736 H 0.68084 0.21999 0.08916 0.0
H737 H 0.71277 0.24023 0.11779 0.0
H738 H 0.83649 0.27622 0.95021 0.0
H739 H 0.84707 0.29835 0.97718 0.0
H740 H 0.74149 0.25213 0.94126 0.0
H741 H 0.70781 0.22817 0.95991 0.0
C742 C 0.76457 0.51909 0.81714 0.0
C743 C 0.72647 0.53044 0.78792 0.0
C744 C 0.75898 0.50052 0.74817 0.0
C745 C 0.79134 0.48871 0.77783 0.0
N746 N 0.81548 0.4853 0.84101 0.0
N747 N 0.67896 0.53185 0.72635 0.0
C748 C 0.79172 0.49763 0.81247 0.0
C749 C 0.7213 0.5211 0.75361 0.0
N750 N 0.77541 0.52893 0.84924 0.0
N751 N 0.76725 0.4923 0.71468 0.0
H752 H 0.65613 0.54744 0.72865 0.0
H753 H 0.66206 0.5251 0.70196 0.0
H754 H 0.7917 0.47705 0.70981 0.0
H755 H 0.75536 0.50089 0.6915 0.0
H756 H 0.81182 0.52243 0.87064 0.0
H757 H 0.7535 0.54439 0.85389 0.0
H758 H 0.80849 0.49001 0.86738 0.0
H759 H 0.83573 0.46954 0.8385 0.0
C760 C 0.50083 0.02021 0.9988 0.0
C761 C 0.53549 0.0316 1.0285 0.0
C762 C 0.50938 1.00084 0.06719 0.0
C763 C 0.46938 0.98988 0.03796 0.0
N764 N 0.41811 0.98932 0.97678 0.0
N765 N 0.56278 0.03427 0.09157 0.0
C766 C 0.4625 0.99965 1.00398 0.0
C767 C 0.53718 0.0223 0.06289 0.0
N768 N 0.50767 0.02879 0.96547 0.0
N769 N 0.5214 0.99064 0.09896 0.0
H770 H 0.58342 0.05002 0.08935 0.0
H771 H 0.55687 0.02927 0.11786 0.0
H772 H 0.49872 0.97521 0.10345 0.0
H773 H 0.55936 0.99682 0.12022 0.0
H774 H 0.49401 0.0205 0.94217 0.0
H775 H 0.53272 0.04403 0.96081 0.0
H776 H 0.40006 0.99641 0.95274 0.0
H777 H 0.39467 0.97377 0.97883 0.0
C778 C 0.54964 0.24879 0.2537 0.0
C779 C 0.54256 0.23924 0.28785 0.0
C780 C 0.47545 0.27187 0.31224 0.0
C781 C 0.47676 0.28091 0.27765 0.0
N782 N 0.50432 0.27764 0.21464 0.0
N783 N 0.49058 0.24043 0.34888 0.0
C784 C 0.51133 0.26931 0.24814 0.0
C785 C 0.50285 0.25042 0.31691 0.0
N786 N 0.59417 0.23828 0.2267 0.0
N787 N 0.45058 0.28408 0.34074 0.0
H788 H 0.5127 0.22499 0.35361 0.0
H789 H 0.45279 0.2468 0.37004 0.0
H790 H 0.43046 0.29984 0.33824 0.0
H791 H 0.45684 0.27926 0.36711 0.0
H792 H 0.61224 0.24521 0.20252 0.0
H793 H 0.61779 0.22275 0.22906 0.0
H794 H 0.51789 0.26917 0.19151 0.0
H795 H 0.47922 0.29283 0.2097 0.0
C796 C 0.50525 0.76898 0.74891 0.0
C797 C 0.47373 0.78071 0.77876 0.0
C798 C 0.50509 0.75049 0.81804 0.0
C799 C 0.54179 0.7392 0.78854 0.0
N800 N 0.58673 0.73796 0.72668 0.0
N801 N 0.45391 0.78417 0.84213 0.0
C802 C 0.54472 0.74854 0.75416 0.0
C803 C 0.47645 0.77186 0.81347 0.0
N804 N 0.49457 0.77715 0.71544 0.0
N805 N 0.49663 0.74063 0.85029 0.0
H806 H 0.43246 0.79985 0.83968 0.0
H807 H 0.46318 0.77952 0.86846 0.0
H808 H 0.51933 0.72521 0.85479 0.0
H809 H 0.46136 0.74708 0.872 0.0
H810 H 0.50566 0.76857 0.69223 0.0
H811 H 0.46903 0.79233 0.71069 0.0
H812 H 0.60165 0.74476 0.70208 0.0
H813 H 0.61161 0.72253 0.72899 0.0
C814 C 0.54887 0.52248 0.55773 0.0
C815 C 0.54171 0.53225 0.52378 0.0
C816 C 0.47369 0.49987 0.49891 0.0
C817 C 0.47497 0.4906 0.53333 0.0
N818 N 0.50252 0.49351 0.59638 0.0
N819 N 0.48877 0.53156 0.46289 0.0
C820 C 0.50989 0.50199 0.563 0.0
C821 C 0.5014 0.52132 0.4946 0.0
N822 N 0.59418 0.53272 0.5848 0.0
N823 N 0.44858 0.48786 0.47021 0.0
H824 H 0.5108 0.54704 0.45847 0.0
H825 H 0.45065 0.52535 0.44169 0.0
H826 H 0.42833 0.47209 0.47243 0.0
H827 H 0.45485 0.49286 0.44393 0.0
H828 H 0.61223 0.52559 0.60882 0.0
H829 H 0.61861 0.54819 0.58262 0.0
H830 H 0.51636 0.50186 0.61962 0.0
H831 H 0.4767 0.47836 0.60115 0.0
C832 C 0.1289 0.15573 0.63928 0.0
C833 C 0.13079 0.13636 0.62032 0.0
C834 C 0.12593 0.11668 0.67663 0.0
C835 C 0.13069 0.13601 0.6956 0.0
N836 N 0.15016 0.17379 0.69566 0.0
N837 N 0.14525 0.09846 0.62033 0.0
C838 C 0.13575 0.15552 0.6771 0.0
C839 C 0.13307 0.11683 0.63884 0.0
N840 N 0.11741 0.17428 0.62116 0.0
N841 N 0.11138 0.09822 0.69471 0.0
H842 H 0.15016 0.09793 0.59266 0.0
H843 H 0.15802 0.08393 0.63235 0.0
H844 H 0.10653 0.09746 0.72235 0.0
H845 H 0.09671 0.0839 0.68238 0.0
H846 H 0.10498 0.18871 0.63346 0.0
H847 H 0.11303 0.17506 0.5935 0.0
H848 H 0.16485 0.18824 0.68368 0.0
H849 H 0.15475 0.17427 0.72334 0.0
C850 C 0.89221 0.90425 0.38938 0.0
C851 C 0.88782 0.88475 0.37094 0.0
C852 C 0.8884 0.86556 0.42782 0.0
C853 C 0.88508 0.88511 0.44621 0.0
N854 N 0.87062 0.92301 0.445 0.0
N855 N 0.87001 0.84692 0.37184 0.0
C856 C 0.88362 0.90446 0.42712 0.0
C857 C 0.88295 0.8654 0.38995 0.0
N858 N 0.90761 0.92252 0.37085 0.0
N859 N 0.89986 0.84722 0.44653 0.0
H860 H 0.867 0.84616 0.34415 0.0
H861 H 0.85533 0.83257 0.38413 0.0
H862 H 0.90345 0.84671 0.47424 0.0
H863 H 0.91311 0.83268 0.4347 0.0
H864 H 0.9219 0.93696 0.38287 0.0
H865 H 0.91386 0.923 0.34322 0.0
H866 H 0.85833 0.93741 0.43249 0.0
H867 H 0.86452 0.92381 0.4726 0.0
C868 C 0.12456 0.65445 0.13905 0.0
C869 C 0.12667 0.63505 0.12022 0.0
C870 C 0.1246 0.61548 0.17671 0.0
C871 C 0.12949 0.63487 0.19548 0.0
N872 N 0.1475 0.67269 0.19513 0.0
N873 N 0.1416 0.59716 0.1204 0.0
C874 C 0.13301 0.65435 0.1768 0.0
C875 C 0.13002 0.61556 0.13886 0.0
N876 N 0.1113 0.67293 0.12088 0.0
N877 N 0.11174 0.59705 0.19506 0.0
H878 H 0.14481 0.59657 0.09271 0.0
H879 H 0.15519 0.58267 0.13241 0.0
H880 H 0.10862 0.59635 0.22276 0.0
H881 H 0.09704 0.58266 0.18295 0.0
H882 H 0.09876 0.68736 0.13317 0.0
H883 H 0.10526 0.67364 0.09325 0.0
H884 H 0.16112 0.68714 0.18296 0.0
H885 H 0.1534 0.67324 0.22276 0.0
C886 C 0.87186 0.40425 0.92515 0.0
C887 C 0.87637 0.3849 0.94413 0.0
C888 C 0.87555 0.36524 0.88784 0.0
C889 C 0.87814 0.38463 0.86887 0.0
N890 N 0.89217 0.42254 0.86888 0.0
N891 N 0.8954 0.3471 0.94427 0.0
C892 C 0.87981 0.40414 0.88738 0.0
C893 C 0.88156 0.3654 0.92567 0.0
N894 N 0.85688 0.42268 0.9432 0.0
N895 N 0.86425 0.34672 0.8697 0.0
H896 H 0.89921 0.34657 0.97196 0.0
H897 H 0.9103 0.33267 0.93235 0.0
H898 H 0.86058 0.34597 0.84202 0.0
H899 H 0.85126 0.33228 0.88199 0.0
H900 H 0.84256 0.43702 0.93081 0.0
H901 H 0.85124 0.42339 0.97085 0.0
H902 H 0.90452 0.43706 0.8809 0.0
H903 H 0.89761 0.42309 0.84123 0.0
C904 C 0.62823 0.15506 0.13903 0.0
C905 C 0.63003 0.13565 0.12023 0.0
C906 C 0.62685 0.1161 0.17671 0.0
C907 C 0.63134 0.13549 0.1955 0.0
N908 N 0.64989 0.17329 0.19523 0.0
N909 N 0.6449 0.09776 0.12046 0.0
C910 C 0.63568 0.15496 0.17683 0.0
C911 C 0.63303 0.11616 0.13889 0.0
N912 N 0.61627 0.17356 0.12079 0.0
N913 N 0.61356 0.09766 0.195 0.0
H914 H 0.6489 0.09718 0.09278 0.0
H915 H 0.65817 0.08326 0.1325 0.0
H916 H 0.60988 0.09697 0.22268 0.0
H917 H 0.59906 0.08328 0.18287 0.0
H918 H 0.60386 0.18802 0.133 0.0
H919 H 0.61154 0.17427 0.09313 0.0
H920 H 0.66406 0.18773 0.18313 0.0
H921 H 0.65486 0.17384 0.2229 0.0
C922 C 0.37171 0.90399 0.92736 0.0
C923 C 0.37704 0.88463 0.94629 0.0
C924 C 0.37713 0.86504 0.88992 0.0
C925 C 0.37891 0.88445 0.87102 0.0
N926 N 0.39167 0.92239 0.87116 0.0
N927 N 0.39761 0.84687 0.94633 0.0
C928 C 0.37982 0.90395 0.88959 0.0
C929 C 0.38307 0.86516 0.92777 0.0
N930 N 0.35582 0.92236 0.94545 0.0
N931 N 0.36661 0.84652 0.87173 0.0
H932 H 0.40133 0.84632 0.97403 0.0
H933 H 0.41312 0.83248 0.93437 0.0
H934 H 0.36293 0.84579 0.84405 0.0
H935 H 0.3543 0.83203 0.88397 0.0
H936 H 0.34092 0.93669 0.9331 0.0
H937 H 0.34993 0.92303 0.97309 0.0
H938 H 0.40336 0.93691 0.88326 0.0
H939 H 0.39747 0.92299 0.84352 0.0
C940 C 0.63307 0.6545 0.63916 0.0
C941 C 0.63431 0.63515 0.62015 0.0
C942 C 0.6313 0.61542 0.67646 0.0
C943 C 0.63669 0.63475 0.69541 0.0
N944 N 0.65724 0.67251 0.69537 0.0
N945 N 0.64832 0.59725 0.61998 0.0
C946 C 0.64152 0.65426 0.6769 0.0
C947 C 0.63706 0.6156 0.63861 0.0
N948 N 0.62046 0.67307 0.62121 0.0
N949 N 0.6175 0.59696 0.69464 0.0
H950 H 0.65217 0.59675 0.59227 0.0
H951 H 0.66118 0.58269 0.63188 0.0
H952 H 0.61391 0.59619 0.72232 0.0
H953 H 0.60251 0.58264 0.68237 0.0
H954 H 0.60836 0.68747 0.63367 0.0
H955 H 0.61444 0.67389 0.59361 0.0
H956 H 0.67183 0.68693 0.68329 0.0
H957 H 0.6634 0.67297 0.72301 0.0
C958 C 0.3914 0.40468 0.38742 0.0
C959 C 0.38709 0.3852 0.36893 0.0
C960 C 0.38782 0.36595 0.42574 0.0
C961 C 0.38454 0.38546 0.4442 0.0
N962 N 0.37005 0.42337 0.44314 0.0
N963 N 0.36883 0.34738 0.36976 0.0
C964 C 0.38295 0.40484 0.42517 0.0
C965 C 0.38215 0.36583 0.3879 0.0
N966 N 0.40665 0.42298 0.36893 0.0
N967 N 0.39946 0.34758 0.44438 0.0
H968 H 0.36536 0.34664 0.34208 0.0
H969 H 0.3541 0.33302 0.38204 0.0
H970 H 0.40317 0.34704 0.47209 0.0
H971 H 0.41278 0.33306 0.43248 0.0
H972 H 0.42083 0.4374 0.38098 0.0
H973 H 0.41282 0.42349 0.34128 0.0
H974 H 0.3577 0.43779 0.43069 0.0
H975 H 0.36411 0.42413 0.47075 0.0
C976 C 0.42848 0.16112 0.40262 0.0
C977 C 0.46103 0.14169 0.38855 0.0
C978 C 0.3325 0.12275 0.41778 0.0
C979 C 0.29484 0.14234 0.42909 0.0
N980 N 0.30047 0.18021 0.43135 0.0
N981 N 0.4439 0.1041 0.3806 0.0
C982 C 0.34154 0.16159 0.42162 0.0
C983 C 0.4128 0.12254 0.3955 0.0
N984 N 0.48131 0.17897 0.398 0.0
N985 N 0.29227 0.1043 0.42921 0.0
H986 H 0.50478 0.10306 0.36514 0.0
H987 H 0.40598 0.09005 0.381 0.0
H988 H 0.23259 0.1038 0.44538 0.0
H989 H 0.32207 0.08947 0.42549 0.0
H990 H 0.46707 0.19324 0.41054 0.0
H991 H 0.54244 0.17923 0.38247 0.0
H992 H 0.32538 0.19497 0.42364 0.0
H993 H 0.23785 0.18083 0.44594 0.0
C994 C 0.92851 0.11059 0.41315 0.0
C995 C 0.96106 0.13001 0.42724 0.0
C996 C 0.83243 0.14897 0.39816 0.0
C997 C 0.79485 0.12939 0.3868 0.0
N998 N 0.80055 0.09151 0.38444 0.0
N999 N 0.94409 0.16761 0.43519 0.0
C1000 C 0.84158 0.11014 0.39419 0.0
C1001 C 0.91285 0.14917 0.42033 0.0
N1002 N 0.98134 0.09275 0.41771 0.0
N1003 N 0.79203 0.16743 0.38689 0.0
H1004 H 0.00516 0.16865 0.45048 0.0
H1005 H 0.90618 0.18167 0.43487 0.0
H1006 H 0.73209 0.16795 0.37091 0.0
H1007 H 0.82178 0.18226 0.3906 0.0
H1008 H 0.96711 0.07848 0.40515 0.0
H1009 H 0.04247 0.09247 0.4332 0.0
H1010 H 0.82549 0.07675 0.39209 0.0
H1011 H 0.73791 0.09091 0.36991 0.0
C1012 C 0.33099 0.14738 0.89899 0.0
C1013 C 0.29394 0.12791 0.88668 0.0
C1014 C 0.42467 0.10864 0.91435 0.0
C1015 C 0.46022 0.12811 0.92716 0.0
N1016 N 0.45874 0.16624 0.92719 0.0
N1017 N 0.29916 0.09009 0.88299 0.0
C1018 C 0.41623 0.14753 0.9184 0.0
C1019 C 0.33978 0.10852 0.89401 0.0
N1020 N 0.28225 0.16574 0.89325 0.0
N1021 N 0.4732 0.09045 0.92139 0.0
H1022 H 0.23761 0.08978 0.86779 0.0
H1023 H 0.32387 0.07512 0.8894 0.0
H1024 H 0.53289 0.09012 0.93765 0.0
H1025 H 0.45642 0.07577 0.91088 0.0
H1026 H 0.29673 0.17988 0.90614 0.0
H1027 H 0.22358 0.16675 0.87666 0.0
H1028 H 0.43862 0.18082 0.91697 0.0
H1029 H 0.51827 0.16728 0.94335 0.0
C1030 C 0.92656 0.15913 0.90282 0.0
C1031 C 0.95993 0.13979 0.88867 0.0
C1032 C 0.83318 0.1205 0.91825 0.0
C1033 C 0.79429 0.13996 0.92942 0.0
N1034 N 0.79738 0.17787 0.93141 0.0
N1035 N 0.94418 0.10219 0.88045 0.0
C1036 C 0.83966 0.15935 0.92183 0.0
C1037 C 0.91278 0.12051 0.89566 0.0
N1038 N 0.97851 0.1771 0.89827 0.0
N1039 N 0.7948 0.10194 0.93011 0.0
H1040 H 1.00431 0.10138 0.86454 0.0
H1041 H 0.9069 0.08805 0.88101 0.0
H1042 H 0.73618 0.10133 0.94684 0.0
H1043 H 0.82556 0.08721 0.92631 0.0
H1044 H 0.96358 0.19131 0.91091 0.0
H1045 H 0.03964 0.17753 0.88276 0.0
H1046 H 0.82136 0.19268 0.92357 0.0
H1047 H 0.73462 0.17831 0.94593 0.0
C1048 C 0.58353 0.89998 0.66867 0.0
C1049 C 0.54568 0.88042 0.68004 0.0
C1050 C 0.67891 0.8616 0.65351 0.0
C1051 C 0.71129 0.88101 0.6392 0.0
N1052 N 0.69366 0.91856 0.63075 0.0
N1053 N 0.55071 0.84253 0.68221 0.0
C1054 C 0.66316 0.90016 0.64607 0.0
C1055 C 0.59205 0.86115 0.67255 0.0
N1056 N 0.54412 0.91845 0.68032 0.0
N1057 N 0.73176 0.84375 0.64907 0.0
H1058 H 0.48796 0.84192 0.69672 0.0
H1059 H 0.57542 0.82778 0.67443 0.0
H1060 H 0.79282 0.84346 0.63351 0.0
H1061 H 0.71763 0.82952 0.66184 0.0
H1062 H 0.57418 0.93325 0.67646 0.0
H1063 H 0.48519 0.91894 0.69689 0.0
H1064 H 0.65567 0.9326 0.63121 0.0
H1065 H 0.75376 0.91952 0.61484 0.0
C1066 C 0.16667 0.87292 0.66923 0.0
C1067 C 0.21152 0.89224 0.67794 0.0
C1068 C 0.09202 0.91213 0.64473 0.0
C1069 C 0.04539 0.89285 0.6374 0.0
N1070 N 0.03248 0.85502 0.64367 0.0
N1071 N 0.22648 0.92986 0.67187 0.0
C1072 C 0.08167 0.87328 0.64967 0.0
C1073 C 0.17693 0.9118 0.66503 0.0
N1074 N 0.20823 0.85412 0.67819 0.0
N1075 N 0.05211 0.93067 0.63375 0.0
H1076 H 0.28618 0.93006 0.68813 0.0
H1077 H 0.21065 0.94455 0.66109 0.0
H1078 H 0.99072 0.93114 0.61847 0.0
H1079 H 0.07719 0.94557 0.64035 0.0
H1080 H 0.18753 0.83957 0.66809 0.0
H1081 H 0.26759 0.85296 0.69443 0.0
H1082 H 0.04626 0.84079 0.65647 0.0
H1083 H 0.97421 0.85417 0.62686 0.0
C1084 C 0.59076 0.873 0.14793 0.0
C1085 C 0.54905 0.89249 0.13818 0.0
C1086 C 0.67466 0.91195 0.16845 0.0
C1087 C 0.71384 0.89243 0.17927 0.0
N1088 N 0.70703 0.85446 0.18319 0.0
N1089 N 0.54399 0.93038 0.14002 0.0
C1090 C 0.67112 0.87297 0.17009 0.0
C1091 C 0.58914 0.91199 0.14856 0.0
N1092 N 0.55382 0.85447 0.13541 0.0
N1093 N 0.7206 0.93028 0.17662 0.0
H1094 H 0.48341 0.93073 0.12425 0.0
H1095 H 0.56385 0.94514 0.14942 0.0
H1096 H 0.78111 0.93059 0.19243 0.0
H1097 H 0.70145 0.94504 0.1669 0.0
H1098 H 0.58667 0.83986 0.13777 0.0
H1099 H 0.4929 0.85372 0.12001 0.0
H1100 H 0.67358 0.83991 0.18113 0.0
H1101 H 0.76746 0.8537 0.19889 0.0
C1102 C 0.17197 0.89945 0.14763 0.0
C1103 C 0.21544 0.88002 0.13874 0.0
C1104 C 0.0877 0.86045 0.16779 0.0
C1105 C 0.04744 0.87992 0.17833 0.0
N1106 N 0.05391 0.91789 0.18222 0.0
N1107 N 0.22308 0.84217 0.14257 0.0
C1108 C 0.09054 0.8994 0.16938 0.0
C1109 C 0.17557 0.8605 0.14937 0.0
N1110 N 0.20834 0.91798 0.1348 0.0
N1111 N 0.04061 0.84207 0.17472 0.0
H1112 H 0.28566 0.8418 0.1279 0.0
H1113 H 0.20324 0.82753 0.15263 0.0
H1114 H 0.97811 0.84163 0.18943 0.0
H1115 H 0.06075 0.82744 0.16474 0.0
H1116 H 0.1746 0.9325 0.13674 0.0
H1117 H 0.26951 0.91876 0.11948 0.0
H1118 H 0.08737 0.93244 0.18022 0.0
H1119 H 0.99289 0.91859 0.19763 0.0
C1120 C 0.33867 0.66086 0.9176 0.0
C1121 C 0.299 0.64141 0.92852 0.0
C1122 C 0.42138 0.62176 0.89715 0.0
C1123 C 0.46368 0.64117 0.88734 0.0
N1124 N 0.46973 0.67905 0.8889 0.0
N1125 N 0.30554 0.60346 0.93301 0.0
C1126 C 0.42414 0.66075 0.89763 0.0
C1127 C 0.34138 0.62189 0.91952 0.0
N1128 N 0.2933 0.67926 0.9258 0.0
N1129 N 0.45728 0.60317 0.88443 0.0
H1130 H 0.2455 0.60285 0.94898 0.0
H1131 H 0.3389 0.5889 0.93104 0.0
H1132 H 0.51751 0.60236 0.86859 0.0
H1133 H 0.42389 0.58863 0.88696 0.0
H1134 H 0.31297 0.694 0.91614 0.0
H1135 H 0.23281 0.67966 0.94166 0.0
H1136 H 0.45007 0.69389 0.89808 0.0
H1137 H 0.5305 0.67928 0.8732 0.0
C1138 C 0.92467 0.60984 0.91766 0.0
C1139 C 0.96482 0.6294 0.92788 0.0
C1140 C 0.83848 0.64878 0.89788 0.0
C1141 C 0.7979 0.62924 0.88761 0.0
N1142 N 0.79418 0.59134 0.8893 0.0
N1143 N 0.96774 0.66746 0.92565 0.0
C1144 C 0.83906 0.60976 0.89777 0.0
C1145 C 0.92334 0.64886 0.91765 0.0
N1146 N 0.97044 0.59151 0.92612 0.0
N1147 N 0.7932 0.6673 0.88994 0.0
H1148 H 0.02621 0.66843 0.94237 0.0
H1149 H 0.94993 0.68199 0.91466 0.0
H1150 H 0.73455 0.66816 0.8733 0.0
H1151 H 0.81041 0.68184 0.90092 0.0
H1152 H 0.95059 0.57667 0.91709 0.0
H1153 H 0.03136 0.59123 0.9417 0.0
H1154 H 0.81476 0.57653 0.89832 0.0
H1155 H 0.73324 0.59094 0.87374 0.0
C1156 C 0.41358 0.65045 0.4202 0.0
C1157 C 0.46181 0.63131 0.42714 0.0
C1158 C 0.34282 0.61143 0.3939 0.0
C1159 C 0.29632 0.63068 0.38636 0.0
N1160 N 0.29444 0.66871 0.38595 0.0
N1161 N 0.48256 0.59407 0.41745 0.0
C1162 C 0.334 0.65026 0.39764 0.0
C1163 C 0.42961 0.6119 0.41293 0.0
N1164 N 0.44391 0.66885 0.43544 0.0
N1165 N 0.30168 0.59279 0.3843 0.0
H1166 H 0.54357 0.5938 0.433 0.0
H1167 H 0.46857 0.57983 0.40474 0.0
H1168 H 0.23901 0.59217 0.36979 0.0
H1169 H 0.32648 0.57805 0.39212 0.0
H1170 H 0.40583 0.68288 0.43494 0.0
H1171 H 0.50398 0.66982 0.45132 0.0
H1172 H 0.32442 0.68352 0.38973 0.0
H1173 H 0.23545 0.6692 0.36946 0.0
C1174 C 0.83207 0.62363 0.41676 0.0
C1175 C 0.79582 0.64321 0.42894 0.0
C1176 C 0.92752 0.66213 0.40119 0.0
C1177 C 0.96224 0.64256 0.38847 0.0
N1178 N 0.95897 0.60444 0.38856 0.0
N1179 N 0.80291 0.68101 0.4326 0.0
C1180 C 0.9173 0.62325 0.39731 0.0
C1181 C 0.8426 0.66248 0.42155 0.0
N1182 N 0.78265 0.60538 0.42273 0.0
N1183 N 0.97691 0.6802 0.39405 0.0
H1184 H 0.74149 0.68148 0.44791 0.0
H1185 H 0.82836 0.69591 0.42617 0.0
H1186 H 0.03668 0.68036 0.37779 0.0
H1187 H 0.96071 0.69494 0.40447 0.0
H1188 H 0.79648 0.59117 0.40995 0.0
H1189 H 0.72413 0.60453 0.43946 0.0
H1190 H 0.93811 0.58991 0.39877 0.0
H1191 H 0.01859 0.60326 0.37243 0.0
C1192 C 0.58716 0.39878 0.16591 0.0
C1193 C 0.54691 0.37923 0.17647 0.0
C1194 C 0.67429 0.35987 0.14674 0.0
C1195 C 0.71437 0.37943 0.1364 0.0
N1196 N 0.71706 0.4175 0.13854 0.0
N1197 N 0.54413 0.34133 0.17548 0.0
C1198 C 0.67252 0.39888 0.14641 0.0
C1199 C 0.58857 0.35976 0.16664 0.0
N1200 N 0.5412 0.41728 0.17331 0.0
N1201 N 0.72025 0.34155 0.13839 0.0
H1202 H 0.48303 0.34094 0.191 0.0
H1203 H 0.56531 0.32648 0.16691 0.0
H1204 H 0.78135 0.3413 0.12287 0.0
H1205 H 0.70032 0.32669 0.14738 0.0
H1206 H 0.55827 0.43177 0.16198 0.0
H1207 H 0.48202 0.41818 0.1897 0.0
H1208 H 0.69883 0.43201 0.14948 0.0
H1209 H 0.77619 0.4185 0.12212 0.0
C1210 C 0.0901 0.37189 0.14564 0.0
C1211 C 0.04856 0.39141 0.13598 0.0
C1212 C 0.17407 0.41077 0.16644 0.0
C1213 C 0.21276 0.39122 0.17733 0.0
N1214 N 0.20461 0.35328 0.18156 0.0
N1215 N 0.04387 0.42929 0.13789 0.0
C1216 C 0.16972 0.37181 0.16814 0.0
C1217 C 0.08873 0.41088 0.14645 0.0
N1218 N 0.05383 0.35341 0.13265 0.0
N1219 N 0.22027 0.42906 0.17464 0.0
H1220 H 0.98337 0.42968 0.12208 0.0
H1221 H 0.06386 0.44405 0.14731 0.0
H1222 H 0.28078 0.42931 0.19045 0.0
H1223 H 0.2014 0.44384 0.16491 0.0
H1224 H 0.08673 0.33882 0.13509 0.0
H1225 H 0.99391 0.35276 0.11667 0.0
H1226 H 0.17069 0.33879 0.17943 0.0
H1227 H 0.26432 0.35252 0.19766 0.0
C1228 C 0.66779 0.3729 0.66678 0.0
C1229 C 0.7123 0.39223 0.67567 0.0
C1230 C 0.59237 0.41213 0.64269 0.0
C1231 C 0.54598 0.39283 0.63526 0.0
N1232 N 0.53367 0.35497 0.64123 0.0
N1233 N 0.72618 0.4299 0.67026 0.0
C1234 C 0.58264 0.37325 0.64732 0.0
C1235 C 0.67723 0.41181 0.66303 0.0
N1236 N 0.70972 0.35411 0.67553 0.0
N1237 N 0.55235 0.43065 0.63169 0.0
H1238 H 0.78594 0.43007 0.68649 0.0
H1239 H 0.70963 0.44467 0.65997 0.0
H1240 H 0.49094 0.4311 0.61642 0.0
H1241 H 0.57758 0.44556 0.6381 0.0
H1242 H 0.68921 0.33958 0.66529 0.0
H1243 H 0.76919 0.35294 0.6917 0.0
H1244 H 0.54778 0.34071 0.65389 0.0
H1245 H 0.47525 0.35413 0.62449 0.0
C1246 C 0.09242 0.36107 0.67049 0.0
C1247 C 0.04636 0.38034 0.67818 0.0
C1248 C 0.16417 0.40013 0.64447 0.0
C1249 C 0.21189 0.38095 0.63733 0.0
N1250 N 0.2317 0.34364 0.64671 0.0
N1251 N 0.04542 0.41837 0.67896 0.0
C1252 C 0.1792 0.36151 0.6514 0.0
C1253 C 0.08456 0.39992 0.66707 0.0
N1254 N 0.05088 0.34245 0.68006 0.0
N1255 N 0.19501 0.41857 0.62939 0.0
H1256 H 0.98663 0.41883 0.6956 0.0
H1257 H 0.07563 0.43317 0.67524 0.0
H1258 H 0.2551 0.41954 0.61348 0.0
H1259 H 0.15734 0.43265 0.63005 0.0
H1260 H 0.07531 0.3277 0.67214 0.0
H1261 H 0.98832 0.34185 0.69469 0.0
H1262 H 0.21732 0.32936 0.65928 0.0
H1263 H 0.29272 0.34337 0.63112 0.0
C1264 C 0.58446 0.15237 0.53509 0.0
C1265 C 0.52712 0.13813 0.51564 0.0
C1266 C 0.66956 0.12117 0.49124 0.0
C1267 C 0.7269 0.13461 0.51246 0.0
N1268 N 0.73725 0.15897 0.5616 0.0
N1269 N 0.51338 0.10729 0.47851 0.0
C1270 C 0.68387 0.1492 0.53617 0.0
C1271 C 0.56929 0.12199 0.49476 0.0
N1272 N 0.54408 0.16883 0.55298 0.0
N1273 N 0.71051 0.1081 0.46683 0.0
H1274 H 0.43991 0.10796 0.47892 0.0
H1275 H 0.53914 0.0937 0.46641 0.0
H1276 H 0.78315 0.10643 0.46425 0.0
H1277 H 0.67301 0.09988 0.44752 0.0
H1278 H 0.58296 0.18118 0.56386 0.0
H1279 H 0.47135 0.17106 0.55482 0.0
H1280 H 0.70875 0.16809 0.58198 0.0
H1281 H 0.80912 0.15605 0.56502 0.0
C1282 C 0.56829 0.14926 0.8216 0.0
C1283 C 0.52643 0.13324 0.80039 0.0
C1284 C 0.68356 0.12239 0.77975 0.0
C1285 C 0.72624 0.13686 0.80374 0.0
N1286 N 0.70912 0.16309 0.84977 0.0
N1287 N 0.54404 0.10286 0.76234 0.0
C1288 C 0.66854 0.15014 0.82514 0.0
C1289 C 0.58411 0.11919 0.78066 0.0
N1290 N 0.51212 0.1638 0.83817 0.0
N1291 N 0.73736 0.11276 0.75425 0.0
H1292 H 0.47135 0.10066 0.76029 0.0
H1293 H 0.58307 0.09059 0.75125 0.0
H1294 H 0.80929 0.11571 0.75101 0.0
H1295 H 0.70924 0.10376 0.73368 0.0
H1296 H 0.53772 0.17739 0.8503 0.0
H1297 H 0.43864 0.16297 0.83813 0.0
H1298 H 0.67134 0.17105 0.86935 0.0
H1299 H 0.78171 0.16493 0.85222 0.0
C1300 C 0.42098 0.871 0.57569 0.0
C1301 C 0.4784 0.8843 0.55414 0.0
C1302 C 0.33601 0.90198 0.53124 0.0
C1303 C 0.27859 0.88791 0.55113 0.0
N1304 N 0.26469 0.85733 0.58903 0.0
N1305 N 0.48889 0.9084 0.5045 0.0
C1306 C 0.32069 0.87188 0.57232 0.0
C1307 C 0.43542 0.89878 0.53016 0.0
N1308 N 0.46188 0.85804 0.60029 0.0
N1309 N 0.29571 0.91832 0.51295 0.0
H1310 H 0.56076 0.90545 0.50114 0.0
H1311 H 0.46049 0.91741 0.48395 0.0
H1312 H 0.22299 0.92054 0.51104 0.0
H1313 H 0.33461 0.93059 0.50173 0.0
H1314 H 0.42435 0.85001 0.61991 0.0
H1315 H 0.5345 0.85624 0.60268 0.0
H1316 H 0.2904 0.84375 0.60121 0.0
H1317 H 0.1912 0.85815 0.58907 0.0
C1318 C 0.43955 0.87135 0.2846 0.0
C1319 C 0.48169 0.88715 0.26284 0.0
C1320 C 0.32332 0.90033 0.24732 0.0
C1321 C 0.28203 0.88318 0.26615 0.0
N1322 N 0.3006 0.85076 0.29913 0.0
N1323 N 0.46341 0.91588 0.22117 0.0
C1324 C 0.34017 0.86811 0.28341 0.0
C1325 C 0.42347 0.90151 0.24372 0.0
N1326 N 0.49377 0.86041 0.30843 0.0
N1327 N 0.26665 0.91566 0.23317 0.0
H1328 H 0.53583 0.91814 0.21915 0.0
H1329 H 0.42525 0.92475 0.20283 0.0
H1330 H 0.19323 0.91479 0.23345 0.0
H1331 H 0.29174 0.92987 0.22296 0.0
H1332 H 0.466 0.85025 0.32755 0.0
H1333 H 0.56562 0.86327 0.31203 0.0
H1334 H 0.34 0.83796 0.30817 0.0
H1335 H 0.22797 0.84835 0.30087 0.0
C1336 C 0.67196 0.61908 0.03343 0.0
C1337 C 0.73035 0.63383 1.01545 0.0
C1338 C 0.58922 0.652 0.99245 0.0
C1339 C 0.53074 0.63788 1.01205 0.0
N1340 N 0.51809 0.61182 0.0587 0.0
N1341 N 0.7465 0.66571 0.9809 0.0
C1342 C 0.57261 0.62239 0.03445 0.0
C1343 C 0.68941 0.65072 0.99592 0.0
N1344 N 0.71127 0.60197 0.04994 0.0
N1345 N 0.54944 0.66621 0.96961 0.0
H1346 H 0.81992 0.66462 0.98074 0.0
H1347 H 0.72187 0.67982 0.9702 0.0
H1348 H 0.47708 0.66862 0.96782 0.0
H1349 H 0.5876 0.67486 0.95096 0.0
H1350 H 0.67171 0.58934 0.05956 0.0
H1351 H 0.78386 0.59956 0.05181 0.0
H1352 H 0.5456 0.60193 0.07825 0.0
H1353 H 0.44625 0.61477 0.06215 0.0
C1354 C 0.56883 0.64985 0.32089 0.0
C1355 C 0.52752 0.63324 0.30082 0.0
C1356 C 0.68527 0.62143 0.28248 0.0
C1357 C 0.72715 0.63672 0.30519 0.0
N1358 N 0.70898 0.66448 0.3485 0.0
N1359 N 0.54597 0.60154 0.26603 0.0
C1360 C 0.66894 0.65075 0.32495 0.0
C1361 C 0.58569 0.61842 0.28297 0.0
N1362 N 0.51226 0.66491 0.33584 0.0
N1363 N 0.74007 0.61078 0.25849 0.0
H1364 H 0.47332 0.59938 0.26363 0.0
H1365 H 0.58507 0.58883 0.25651 0.0
H1366 H 0.81232 0.61341 0.25558 0.0
H1367 H 0.71273 0.60108 0.23869 0.0
H1368 H 0.5375 0.67877 0.34721 0.0
H1369 H 0.43882 0.66421 0.33517 0.0
H1370 H 0.67084 0.67322 0.367 0.0
H1371 H 0.78155 0.66624 0.35124 0.0
C1372 C 0.33946 0.40189 0.07169 0.0
C1373 C 0.281 0.38763 0.0525 0.0
C1374 C 0.42225 0.3687 1.03148 0.0
C1375 C 0.48064 0.38359 0.04901 0.0
N1376 N 0.4967 0.4157 0.08277 0.0
N1377 N 0.26829 0.36118 1.00663 0.0
C1378 C 0.43966 0.40061 0.06816 0.0
C1379 C 0.32286 0.37196 1.0305 0.0
N1380 N 0.29966 0.41625 0.09421 0.0
N1381 N 0.4616 0.35149 1.01535 0.0
H1382 H 0.19639 0.36407 1.00322 0.0
H1383 H 0.29573 0.35114 0.98732 0.0
H1384 H 0.53419 0.3491 1.01339 0.0
H1385 H 0.4221 0.33877 1.00611 0.0
H1386 H 0.33783 0.42505 0.1126 0.0
H1387 H 0.22728 0.41864 0.09604 0.0
H1388 H 0.47203 0.4299 0.09309 0.0
H1389 H 0.57012 0.41461 0.08297 0.0
C1390 C 0.43463 0.37094 0.78163 0.0
C1391 C 0.47641 0.38632 0.75895 0.0
C1392 C 0.31805 0.39951 0.74356 0.0
C1393 C 0.27681 0.38282 0.76358 0.0
N1394 N 0.29541 0.35097 0.79811 0.0
N1395 N 0.458 0.41418 0.71572 0.0
C1396 C 0.33505 0.36793 0.78125 0.0
C1397 C 0.41811 0.4004 0.73932 0.0
N1398 N 0.48951 0.36021 0.80552 0.0
N1399 N 0.26148 0.41467 0.72884 0.0
H1400 H 0.53056 0.41594 0.71286 0.0
H1401 H 0.41971 0.42295 0.69727 0.0
H1402 H 0.18804 0.41401 0.72969 0.0
H1403 H 0.28676 0.42856 0.71754 0.0
H1404 H 0.46222 0.35043 0.8253 0.0
H1405 H 0.56177 0.36283 0.80837 0.0
H1406 H 0.33458 0.33822 0.8075 0.0
H1407 H 0.22277 0.34879 0.80057 0.0
C1408 C 0.06679 0.12113 0.99474 0.0
C1409 C 0.02526 0.13787 1.01446 0.0
C1410 C 0.18281 0.14988 1.03254 0.0
C1411 C 0.22488 0.1344 1.01023 0.0
N1412 N 0.20709 0.10641 0.96734 0.0
N1413 N 0.04331 0.16988 0.04847 0.0
C1414 C 0.16688 0.12025 0.99069 0.0
C1415 C 0.08322 0.15287 1.03195 0.0
N1416 N 0.01046 0.10592 0.98014 0.0
N1417 N 0.23742 0.16076 0.05628 0.0
H1418 H 0.97064 0.17204 0.05079 0.0
H1419 H 0.08229 0.18268 0.0577 0.0
H1420 H 0.30968 0.15819 0.05925 0.0
H1421 H 0.20991 0.17063 0.07583 0.0
H1422 H 0.03595 0.09199 0.9691 0.0
H1423 H 0.93701 0.10658 0.98081 0.0
H1424 H 0.16903 0.0976 0.94892 0.0
H1425 H 0.27969 0.10465 0.96462 0.0
C1426 C 0.06976 0.14983 0.32112 0.0
C1427 C 0.02767 0.1337 0.3002 0.0
C1428 C 0.18449 0.12265 0.27963 0.0
C1429 C 0.22744 0.13723 0.30337 0.0
N1430 N 0.21089 0.16371 0.34903 0.0
N1431 N 0.04476 0.10303 0.2628 0.0
C1432 C 0.17002 0.15065 0.32462 0.0
C1433 C 0.08507 0.11948 0.28071 0.0
N1434 N 0.01377 0.1645 0.33743 0.0
N1435 N 0.23797 0.11289 0.25418 0.0
H1436 H 0.97203 0.1008 0.26096 0.0
H1437 H 0.08366 0.09069 0.25188 0.0
H1438 H 0.30985 0.11582 0.25076 0.0
H1439 H 0.20956 0.10378 0.2338 0.0
H1440 H 0.03947 0.17808 0.34957 0.0
H1441 H 0.9403 0.16381 0.33706 0.0
H1442 H 0.17334 0.17192 0.36837 0.0
H1443 H 0.28352 0.1654 0.35158 0.0
C1444 C 0.82354 0.87157 0.03295 0.0
C1445 C 0.78166 0.88743 0.05456 0.0
C1446 C 0.94021 0.90072 0.06951 0.0
C1447 C 0.9813 0.88354 0.05082 0.0
N1448 N 0.96244 0.851 1.01835 0.0
N1449 N 0.80041 0.91631 0.09575 0.0
C1450 C 0.92298 0.86838 0.03391 0.0
C1451 C 0.8401 0.90188 0.07333 0.0
N1452 N 0.76897 0.8605 1.00944 0.0
N1453 N 0.99701 0.9161 0.08335 0.0
H1454 H 0.728 0.91855 0.09789 0.0
H1455 H 0.83878 0.92526 0.11387 0.0
H1456 H 0.07045 0.91525 0.08292 0.0
H1457 H 0.97202 0.93033 0.09344 0.0
H1458 H 0.79649 0.85029 0.99041 0.0
H1459 H 0.69702 0.8633 1.006 0.0
H1460 H 0.92301 0.83815 1.0096 0.0
H1461 H 0.03506 0.84863 1.01643 0.0
C1462 C 0.91822 0.9003 0.74139 0.0
C1463 C 0.97621 0.88624 0.76121 0.0
C1464 C 0.83452 0.86795 0.78343 0.0
C1465 C 0.77657 0.88281 0.76553 0.0
N1466 N 0.76171 0.91452 0.73042 0.0
N1467 N 0.9887 0.86023 0.80796 0.0
C1468 C 0.8181 0.89943 0.74543 0.0
C1469 C 0.93411 0.87093 0.78393 0.0
N1470 N 0.95849 0.91404 0.71782 0.0
N1471 N 0.79458 0.85106 0.8004 0.0
H1472 H 0.06095 0.86283 0.81087 0.0
H1473 H 0.96118 0.85051 0.82777 0.0
H1474 H 0.7219 0.84893 0.80279 0.0
H1475 H 0.83354 0.83833 0.80996 0.0
H1476 H 0.92052 0.9228 0.69928 0.0
H1477 H 0.03109 0.91579 0.7151 0.0
H1478 H 0.7871 0.92838 0.71903 0.0
H1479 H 0.68825 0.91383 0.73107 0.0
C1480 C 0.07087 0.622 0.49409 0.0
C1481 C 0.02872 0.63801 0.51525 0.0
C1482 C 0.18549 0.64887 0.53613 0.0
C1483 C 0.22853 0.63442 0.51217 0.0
N1484 N 0.21213 0.60818 0.46612 0.0
N1485 N 0.04572 0.66839 0.55333 0.0
C1486 C 0.17117 0.62112 0.49069 0.0
C1487 C 0.08607 0.65207 0.53507 0.0
N1488 N 0.01492 0.60746 0.47744 0.0
N1489 N 0.23888 0.65847 0.56174 0.0
H1490 H 0.973 0.6706 0.55526 0.0
H1491 H 0.08459 0.68065 0.56449 0.0
H1492 H 0.31074 0.65552 0.5651 0.0
H1493 H 0.21043 0.66746 0.58228 0.0
H1494 H 0.04067 0.59388 0.46531 0.0
H1495 H 0.94144 0.60829 0.4774 0.0
H1496 H 0.17466 0.60016 0.44655 0.0
H1497 H 0.28476 0.60638 0.46372 0.0
C1498 C 0.08979 0.61799 0.78285 0.0
C1499 C 0.03131 0.63289 0.80037 0.0
C1500 C 0.17238 0.65117 0.82311 0.0
C1501 C 0.23093 0.63691 0.80393 0.0
N1502 N 0.24395 0.61043 0.75811 0.0
N1503 N 0.01506 0.66494 0.83429 0.0
C1504 C 0.1892 0.62124 0.78192 0.0
C1505 C 0.0722 0.64988 0.8196 0.0
N1506 N 0.0505 0.6008 0.76668 0.0
N1507 N 0.21211 0.66553 0.84561 0.0
H1508 H 0.94165 0.66384 0.8345 0.0
H1509 H 0.03962 0.67911 0.84472 0.0
H1510 H 0.28448 0.66794 0.8474 0.0
H1511 H 0.17393 0.67434 0.86401 0.0
H1512 H 0.09002 0.58807 0.75747 0.0
H1513 H 0.97792 0.59843 0.76465 0.0
H1514 H 0.21665 0.60039 0.73879 0.0
H1515 H 0.31591 0.61329 0.75475 0.0
C1516 C 0.93567 0.39904 0.52849 0.0
C1517 C 0.97848 0.38447 0.55234 0.0
C1518 C 0.82068 0.37192 0.57015 0.0
C1519 C 0.77869 0.38804 0.5491 0.0
N1520 N 0.79602 0.41863 0.51134 0.0
N1521 N 0.96166 0.35802 0.59818 0.0
C1522 C 0.83623 0.40222 0.52948 0.0
C1523 C 0.92093 0.37106 0.57365 0.0
N1524 N 0.98933 0.40879 0.50303 0.0
N1525 N 0.76463 0.35728 0.58658 0.0
H1526 H 0.03428 0.35625 0.60066 0.0
H1527 H 0.92398 0.34992 0.61767 0.0
H1528 H 0.69114 0.35807 0.58652 0.0
H1529 H 0.79035 0.34364 0.5986 0.0
H1530 H 0.96107 0.41789 0.48255 0.0
H1531 H 0.06125 0.40588 0.49972 0.0
H1532 H 0.83498 0.43096 0.50035 0.0
H1533 H 0.72332 0.42083 0.50935 0.0
C1534 C 0.93875 0.37187 0.28311 0.0
C1535 C 0.98096 0.38739 0.26082 0.0
C1536 C 0.82253 0.40022 0.24439 0.0
C1537 C 0.78127 0.38333 0.26389 0.0
N1538 N 0.79979 0.35149 0.29845 0.0
N1539 N 0.96298 0.41575 0.21842 0.0
C1540 C 0.83938 0.36858 0.28196 0.0
C1541 C 0.9228 0.40151 0.24114 0.0
N1542 N 0.99294 0.36126 0.30737 0.0
N1543 N 0.76566 0.41515 0.22916 0.0
H1544 H 0.03537 0.41817 0.21678 0.0
H1545 H 0.92519 0.42444 0.19973 0.0
H1546 H 0.69227 0.41401 0.22874 0.0
H1547 H 0.79038 0.42927 0.2185 0.0
H1548 H 0.9652 0.35135 0.32686 0.0
H1549 H 0.06478 0.36417 0.31087 0.0
H1550 H 0.83915 0.33884 0.30811 0.0
H1551 H 0.72717 0.3491 0.30031 0.0
loop_
_geom_bond_atom_site_label_1
_geom_bond_atom_site_label_2
_geom_bond_distance
_geom_bond_site_symmetry_2
_ccdc_geom_bond_type
Zn0 N4 2.020 1_655 S
Zn0 O8 2.019 . S
Zn0 N10 2.119 1_655 S
Zn0 O18 1.975 1_655 S
C1 N2 1.334 . S
C1 N5 1.336 . S
N2 C1 1.334 . S
N2 C3 1.334 . S
C3 N2 1.334 . S
C3 N4 1.336 . S
N4 Zn0 2.020 1_455 S
N4 C3 1.336 . S
N4 N5 1.354 . S
N5 C1 1.336 . S
N5 N4 1.354 . S
N5 Zn9 2.020 . S
C6 O7 1.244 . S
C6 O30 1.257 . S
O7 C6 1.244 . S
O8 Zn0 2.019 . S
O8 C28 1.257 . S
Zn9 N5 2.020 . S
Zn9 O16 1.975 . S
Zn9 N25 2.119 . S
Zn9 O30 2.019 . S
N10 Zn0 2.119 1_455 S
N10 C12 1.334 . S
N10 C13 1.328 1_455 S
C11 C12 1.391 . S
C11 N14 1.329 . S
C11 H32 0.930 . S
C12 N10 1.334 . S
C12 C11 1.391 . S
C12 H19 0.930 . S
C13 N10 1.328 1_655 S
C13 C15 1.392 . S
C13 H20 0.930 . S
N14 C11 1.329 . S
N14 C15 1.331 1_455 S
C15 C13 1.392 . S
C15 N14 1.331 1_655 S
O16 Zn9 1.975 . S
O16 C17 1.252 . S
C17 O16 1.252 . S
C17 O18 1.252 . S
O18 Zn0 1.975 1_455 S
O18 C17 1.252 . S
H19 C12 0.930 . S
H20 C13 0.930 . S
C21 C22 1.392 . S
C21 N25 1.328 . S
C21 H27 0.930 . S
C22 C21 1.392 . S
C22 N26 1.331 . S
C23 C24 1.391 . S
C23 N26 1.329 . S
C23 H33 0.930 . S
C24 C23 1.391 . S
C24 N25 1.334 . S
C24 H31 0.930 . S
N25 Zn9 2.119 . S
N25 C21 1.328 . S
N25 C24 1.334 . S
N26 C22 1.331 . S
N26 C23 1.329 . S
H27 C21 0.930 . S
C28 O8 1.257 . S
C28 O29 1.244 . S
O29 C28 1.244 . S
O30 C6 1.257 . S
O30 Zn9 2.019 . S
H31 C24 0.930 . S
H32 C11 0.930 . S
H33 C23 0.930 . S
Zn34 N38 2.020 1_655 S
Zn34 O42 2.019 . S
Zn34 N44 2.119 1_655 S
Zn34 O52 1.975 1_655 S
C35 N36 1.334 . S
C35 N39 1.336 . S
N36 C35 1.334 . S
N36 C37 1.334 . S
C37 N36 1.334 . S
C37 N38 1.336 . S
N38 Zn34 2.020 1_455 S
N38 C37 1.336 . S
N38 N39 1.354 . S
N39 C35 1.336 . S
N39 N38 1.354 . S
N39 Zn43 2.020 . S
C40 O41 1.244 . S
C40 O64 1.257 . S
O41 C40 1.244 . S
O42 Zn34 2.019 . S
O42 C62 1.257 . S
Zn43 N39 2.020 . S
Zn43 O50 1.975 . S
Zn43 N59 2.119 . S
Zn43 O64 2.019 . S
N44 Zn34 2.119 1_455 S
N44 C46 1.334 . S
N44 C47 1.328 1_455 S
C45 C46 1.391 . S
C45 N48 1.329 . S
C45 H66 0.930 . S
C46 N44 1.334 . S
C46 C45 1.391 . S
C46 H53 0.930 . S
C47 N44 1.328 1_655 S
C47 C49 1.392 . S
C47 H54 0.930 . S
N48 C45 1.329 . S
N48 C49 1.331 1_455 S
C49 C47 1.392 . S
C49 N48 1.331 1_655 S
O50 Zn43 1.975 . S
O50 C51 1.252 . S
C51 O50 1.252 . S
C51 O52 1.252 . S
O52 Zn34 1.975 1_455 S
O52 C51 1.252 . S
H53 C46 0.930 . S
H54 C47 0.930 . S
C55 C56 1.392 . S
C55 N59 1.328 . S
C55 H61 0.930 . S
C56 C55 1.392 . S
C56 N60 1.331 . S
C57 C58 1.391 . S
C57 N60 1.329 . S
C57 H67 0.930 . S
C58 C57 1.391 . S
C58 N59 1.334 . S
C58 H65 0.930 . S
N59 Zn43 2.119 . S
N59 C55 1.328 . S
N59 C58 1.334 . S
N60 C56 1.331 . S
N60 C57 1.329 . S
H61 C55 0.930 . S
C62 O42 1.257 . S
C62 O63 1.244 . S
O63 C62 1.244 . S
O64 C40 1.257 . S
O64 Zn43 2.019 . S
H65 C58 0.930 . S
H66 C45 0.930 . S
H67 C57 0.930 . S
Zn68 N72 2.020 1_455 S
Zn68 O76 2.019 . S
Zn68 N78 2.119 1_455 S
Zn68 O86 1.975 1_455 S
C69 N70 1.334 . S
C69 N73 1.336 . S
N70 C69 1.334 . S
N70 C71 1.334 . S
C71 N70 1.334 . S
C71 N72 1.336 . S
N72 Zn68 2.020 1_655 S
N72 C71 1.336 . S
N72 N73 1.354 . S
N73 C69 1.336 . S
N73 N72 1.354 . S
N73 Zn77 2.020 . S
C74 O75 1.244 . S
C74 O98 1.257 . S
O75 C74 1.244 . S
O76 Zn68 2.019 . S
O76 C96 1.257 . S
Zn77 N73 2.020 . S
Zn77 O84 1.975 . S
Zn77 N93 2.119 . S
Zn77 O98 2.019 . S
N78 Zn68 2.119 1_655 S
N78 C80 1.334 . S
N78 C81 1.328 1_655 S
C79 C80 1.391 . S
C79 N82 1.329 . S
C79 H100 0.930 . S
C80 N78 1.334 . S
C80 C79 1.391 . S
C80 H87 0.930 . S
C81 N78 1.328 1_455 S
C81 C83 1.392 . S
C81 H88 0.930 . S
N82 C79 1.329 . S
N82 C83 1.331 1_655 S
C83 C81 1.392 . S
C83 N82 1.331 1_455 S
O84 Zn77 1.975 . S
O84 C85 1.252 . S
C85 O84 1.252 . S
C85 O86 1.252 . S
O86 Zn68 1.975 1_655 S
O86 C85 1.252 . S
H87 C80 0.930 . S
H88 C81 0.930 . S
C89 C90 1.392 . S
C89 N93 1.328 . S
C89 H95 0.930 . S
C90 C89 1.392 . S
C90 N94 1.331 . S
C91 C92 1.391 . S
C91 N94 1.329 . S
C91 H101 0.930 . S
C92 C91 1.391 . S
C92 N93 1.334 . S
C92 H99 0.930 . S
N93 Zn77 2.119 . S
N93 C89 1.328 . S
N93 C92 1.334 . S
N94 C90 1.331 . S
N94 C91 1.329 . S
H95 C89 0.930 . S
C96 O76 1.257 . S
C96 O97 1.244 . S
O97 C96 1.244 . S
O98 C74 1.257 . S
O98 Zn77 2.019 . S
H99 C92 0.930 . S
H100 C79 0.930 . S
H101 C91 0.930 . S
Zn102 N106 2.020 . S
Zn102 O110 2.019 . S
Zn102 N112 2.119 . S
Zn102 O120 1.975 . S
C103 N104 1.334 . S
C103 N107 1.336 . S
N104 C103 1.334 . S
N104 C105 1.334 . S
C105 N104 1.334 . S
C105 N106 1.336 . S
N106 Zn102 2.020 . S
N106 C105 1.336 . S
N106 N107 1.354 . S
N107 C103 1.336 . S
N107 N106 1.354 . S
N107 Zn111 2.020 1_655 S
C108 O109 1.244 . S
C108 O132 1.257 . S
O109 C108 1.244 . S
O110 Zn102 2.019 . S
O110 C130 1.257 . S
Zn111 N107 2.020 1_455 S
Zn111 O118 1.975 1_455 S
Zn111 N127 2.119 1_455 S
Zn111 O132 2.019 . S
N112 Zn102 2.119 . S
N112 C114 1.334 . S
N112 C115 1.328 . S
C113 C114 1.391 . S
C113 N116 1.329 . S
C113 H134 0.930 . S
C114 N112 1.334 . S
C114 C113 1.391 . S
C114 H121 0.930 . S
C115 N112 1.328 . S
C115 C117 1.392 . S
C115 H122 0.930 . S
N116 C113 1.329 . S
N116 C117 1.331 . S
C117 C115 1.392 . S
C117 N116 1.331 . S
O118 Zn111 1.975 1_655 S
O118 C119 1.252 . S
C119 O118 1.252 . S
C119 O120 1.252 . S
O120 Zn102 1.975 . S
O120 C119 1.252 . S
H121 C114 0.930 . S
H122 C115 0.930 . S
C123 C124 1.392 . S
C123 N127 1.328 1_455 S
C123 H129 0.930 . S
C124 C123 1.392 . S
C124 N128 1.331 1_455 S
C125 C126 1.391 . S
C125 N128 1.329 . S
C125 H135 0.930 . S
C126 C125 1.391 . S
C126 N127 1.334 . S
C126 H133 0.930 . S
N127 Zn111 2.119 1_655 S
N127 C123 1.328 1_655 S
N127 C126 1.334 . S
N128 C124 1.331 1_655 S
N128 C125 1.329 . S
H129 C123 0.930 . S
C130 O110 1.257 . S
C130 O131 1.244 . S
O131 C130 1.244 . S
O132 C108 1.257 . S
O132 Zn111 2.019 . S
H133 C126 0.930 . S
H134 C113 0.930 . S
H135 C125 0.930 . S
Zn136 N140 2.020 . S
Zn136 O144 2.019 1_556 S
Zn136 N146 2.119 . S
Zn136 O154 1.975 1_556 S
C137 N138 1.334 . S
C137 N141 1.336 . S
N138 C137 1.334 . S
N138 C139 1.334 . S
C139 N138 1.334 . S
C139 N140 1.336 . S
N140 Zn136 2.020 . S
N140 C139 1.336 . S
N140 N141 1.354 . S
N141 C137 1.336 . S
N141 N140 1.354 . S
N141 Zn145 2.020 1_455 S
C142 O143 1.244 . S
C142 O166 1.257 1_556 S
O143 C142 1.244 . S
O144 Zn136 2.019 1_554 S
O144 C164 1.257 1_554 S
Zn145 N141 2.020 1_655 S
Zn145 O152 1.975 1_656 S
Zn145 N161 2.119 1_655 S
Zn145 O166 2.019 1_556 S
N146 Zn136 2.119 . S
N146 C148 1.333 . S
N146 C149 1.328 . S
C147 C148 1.391 1_554 S
C147 N150 1.329 . S
C147 H168 0.930 . S
C148 N146 1.333 . S
C148 C147 1.391 1_556 S
C148 H155 0.930 . S
C149 N146 1.328 . S
C149 C151 1.392 1_556 S
C149 H156 0.930 . S
N150 C147 1.329 . S
N150 C151 1.331 . S
C151 C149 1.392 1_554 S
C151 N150 1.331 . S
O152 Zn145 1.975 1_454 S
O152 C153 1.252 . S
C153 O152 1.252 . S
C153 O154 1.252 . S
O154 Zn136 1.975 1_554 S
O154 C153 1.252 . S
H155 C148 0.930 . S
H156 C149 0.930 . S
C157 C158 1.392 1_556 S
C157 N161 1.328 1_655 S
C157 H163 0.930 . S
C158 C157 1.392 1_554 S
C158 N162 1.331 1_655 S
C159 C160 1.391 1_554 S
C159 N162 1.329 . S
C159 H169 0.930 . S
C160 C159 1.391 1_556 S
C160 N161 1.333 . S
C160 H167 0.930 . S
N161 Zn145 2.119 1_455 S
N161 C157 1.328 1_455 S
N161 C160 1.333 . S
N162 C158 1.331 1_455 S
N162 C159 1.329 . S
H163 C157 0.930 . S
C164 O144 1.257 1_556 S
C164 O165 1.244 . S
O165 C164 1.244 . S
O166 C142 1.257 1_554 S
O166 Zn145 2.019 1_554 S
H167 C160 0.930 . S
H168 C147 0.930 . S
H169 C159 0.930 . S
Zn170 N174 2.020 1_655 S
Zn170 O178 2.019 . S
Zn170 N180 2.119 1_655 S
Zn170 O188 1.975 1_655 S
C171 N172 1.334 . S
C171 N175 1.336 . S
N172 C171 1.334 . S
N172 C173 1.334 . S
C173 N172 1.334 . S
C173 N174 1.336 . S
N174 Zn170 2.020 1_455 S
N174 C173 1.336 . S
N174 N175 1.354 . S
N175 C171 1.336 . S
N175 N174 1.354 . S
N175 Zn179 2.020 . S
C176 O177 1.244 . S
C176 O200 1.257 . S
O177 C176 1.244 . S
O178 Zn170 2.019 . S
O178 C198 1.257 . S
Zn179 N175 2.020 . S
Zn179 O186 1.975 . S
Zn179 N195 2.119 . S
Zn179 O200 2.019 . S
N180 Zn170 2.119 1_455 S
N180 C182 1.334 . S
N180 C183 1.328 1_455 S
C181 C182 1.391 . S
C181 N184 1.329 . S
C181 H202 0.930 . S
C182 N180 1.334 . S
C182 C181 1.391 . S
C182 H189 0.930 . S
C183 N180 1.328 1_655 S
C183 C185 1.392 . S
C183 H190 0.930 . S
N184 C181 1.329 . S
N184 C185 1.331 1_455 S
C185 C183 1.392 . S
C185 N184 1.331 1_655 S
O186 Zn179 1.975 . S
O186 C187 1.252 . S
C187 O186 1.252 . S
C187 O188 1.252 . S
O188 Zn170 1.975 1_455 S
O188 C187 1.252 . S
H189 C182 0.930 . S
H190 C183 0.930 . S
C191 C192 1.392 . S
C191 N195 1.328 . S
C191 H197 0.930 . S
C192 C191 1.392 . S
C192 N196 1.331 . S
C193 C194 1.391 . S
C193 N196 1.329 . S
C193 H203 0.930 . S
C194 C193 1.391 . S
C194 N195 1.334 . S
C194 H201 0.930 . S
N195 Zn179 2.119 . S
N195 C191 1.328 . S
N195 C194 1.334 . S
N196 C192 1.331 . S
N196 C193 1.329 . S
H197 C191 0.930 . S
C198 O178 1.257 . S
C198 O199 1.244 . S
O199 C198 1.244 . S
O200 C176 1.257 . S
O200 Zn179 2.019 . S
H201 C194 0.930 . S
H202 C181 0.930 . S
H203 C193 0.930 . S
Zn204 N208 2.020 . S
Zn204 O212 2.019 1_554 S
Zn204 N214 2.119 . S
Zn204 O222 1.975 1_554 S
C205 N206 1.334 . S
C205 N209 1.336 . S
N206 C205 1.334 . S
N206 C207 1.334 . S
C207 N206 1.334 . S
C207 N208 1.336 . S
N208 Zn204 2.020 . S
N208 C207 1.336 . S
N208 N209 1.354 . S
N209 C205 1.336 . S
N209 N208 1.354 . S
N209 Zn213 2.020 1_655 S
C210 O211 1.244 . S
C210 O234 1.257 1_554 S
O211 C210 1.244 . S
O212 Zn204 2.019 1_556 S
O212 C232 1.257 1_556 S
Zn213 N209 2.020 1_455 S
Zn213 O220 1.975 1_454 S
Zn213 N229 2.119 1_455 S
Zn213 O234 2.019 1_554 S
N214 Zn204 2.119 . S
N214 C216 1.333 . S
N214 C217 1.328 . S
C215 C216 1.391 1_556 S
C215 N218 1.329 . S
C215 H236 0.930 . S
C216 N214 1.333 . S
C216 C215 1.391 1_554 S
C216 H223 0.930 . S
C217 N214 1.328 . S
C217 C219 1.392 1_554 S
C217 H224 0.930 . S
N218 C215 1.329 . S
N218 C219 1.331 . S
C219 C217 1.392 1_556 S
C219 N218 1.331 . S
O220 Zn213 1.975 1_656 S
O220 C221 1.252 . S
C221 O220 1.252 . S
C221 O222 1.252 . S
O222 Zn204 1.975 1_556 S
O222 C221 1.252 . S
H223 C216 0.930 . S
H224 C217 0.930 . S
C225 C226 1.392 1_554 S
C225 N229 1.328 1_455 S
C225 H231 0.930 . S
C226 C225 1.392 1_556 S
C226 N230 1.331 1_455 S
C227 C228 1.391 1_556 S
C227 N230 1.329 . S
C227 H237 0.930 . S
C228 C227 1.391 1_554 S
C228 N229 1.333 . S
C228 H235 0.930 . S
N229 Zn213 2.119 1_655 S
N229 C225 1.328 1_655 S
N229 C228 1.333 . S
N230 C226 1.331 1_655 S
N230 C227 1.329 . S
H231 C225 0.930 . S
C232 O212 1.257 1_554 S
C232 O233 1.244 . S
O233 C232 1.244 . S
O234 C210 1.257 1_556 S
O234 Zn213 2.019 1_556 S
H235 C228 0.930 . S
H236 C215 0.930 . S
H237 C227 0.930 . S
Zn238 N242 2.020 . S
Zn238 O246 2.019 . S
Zn238 N248 2.119 . S
Zn238 O256 1.975 . S
C239 N240 1.334 . S
C239 N243 1.336 . S
N240 C239 1.334 . S
N240 C241 1.334 . S
C241 N240 1.334 . S
C241 N242 1.336 . S
N242 Zn238 2.020 . S
N242 C241 1.336 . S
N242 N243 1.354 . S
N243 C239 1.336 . S
N243 N242 1.354 . S
N243 Zn247 2.020 1_655 S
C244 O245 1.244 . S
C244 O268 1.257 . S
O245 C244 1.244 . S
O246 Zn238 2.019 . S
O246 C266 1.257 . S
Zn247 N243 2.020 1_455 S
Zn247 O254 1.975 1_455 S
Zn247 N263 2.119 1_455 S
Zn247 O268 2.019 . S
N248 Zn238 2.119 . S
N248 C250 1.334 . S
N248 C251 1.328 . S
C249 C250 1.391 . S
C249 N252 1.329 . S
C249 H270 0.930 . S
C250 N248 1.334 . S
C250 C249 1.391 . S
C250 H257 0.930 . S
C251 N248 1.328 . S
C251 C253 1.392 . S
C251 H258 0.930 . S
N252 C249 1.329 . S
N252 C253 1.331 . S
C253 C251 1.392 . S
C253 N252 1.331 . S
O254 Zn247 1.975 1_655 S
O254 C255 1.252 . S
C255 O254 1.252 . S
C255 O256 1.252 . S
O256 Zn238 1.975 . S
O256 C255 1.252 . S
H257 C250 0.930 . S
H258 C251 0.930 . S
C259 C260 1.392 . S
C259 N263 1.328 1_455 S
C259 H265 0.930 . S
C260 C259 1.392 . S
C260 N264 1.331 1_455 S
C261 C262 1.391 . S
C261 N264 1.329 . S
C261 H271 0.930 . S
C262 C261 1.391 . S
C262 N263 1.334 . S
C262 H269 0.930 . S
N263 Zn247 2.119 1_655 S
N263 C259 1.328 1_655 S
N263 C262 1.334 . S
N264 C260 1.331 1_655 S
N264 C261 1.329 . S
H265 C259 0.930 . S
C266 O246 1.257 . S
C266 O267 1.244 . S
O267 C266 1.244 . S
O268 C244 1.257 . S
O268 Zn247 2.019 . S
H269 C262 0.930 . S
H270 C249 0.930 . S
H271 C261 0.930 . S
Zn272 N276 2.020 . S
Zn272 O280 2.019 1_556 S
Zn272 N282 2.119 . S
Zn272 O290 1.975 1_556 S
C273 N274 1.334 . S
C273 N277 1.336 . S
N274 C273 1.334 . S
N274 C275 1.334 . S
C275 N274 1.334 . S
C275 N276 1.336 . S
N276 Zn272 2.020 . S
N276 C275 1.336 . S
N276 N277 1.354 . S
N277 C273 1.336 . S
N277 N276 1.354 . S
N277 Zn281 2.020 . S
C278 O279 1.244 . S
C278 O302 1.257 1_556 S
O279 C278 1.244 . S
O280 Zn272 2.019 1_554 S
O280 C300 1.257 1_554 S
Zn281 N277 2.020 . S
Zn281 O288 1.975 1_556 S
Zn281 N297 2.119 . S
Zn281 O302 2.019 1_556 S
N282 Zn272 2.119 . S
N282 C284 1.333 . S
N282 C285 1.328 . S
C283 C284 1.391 1_554 S
C283 N286 1.329 . S
C283 H304 0.930 . S
C284 N282 1.333 . S
C284 C283 1.391 1_556 S
C284 H291 0.930 . S
C285 N282 1.328 . S
C285 C287 1.392 1_556 S
C285 H292 0.930 . S
N286 C283 1.329 . S
N286 C287 1.331 . S
C287 C285 1.392 1_554 S
C287 N286 1.331 . S
O288 Zn281 1.975 1_554 S
O288 C289 1.252 . S
C289 O288 1.252 . S
C289 O290 1.252 . S
O290 Zn272 1.975 1_554 S
O290 C289 1.252 . S
H291 C284 0.930 . S
H292 C285 0.930 . S
C293 C294 1.392 1_556 S
C293 N297 1.328 . S
C293 H299 0.930 . S
C294 C293 1.392 1_554 S
C294 N298 1.331 . S
C295 C296 1.391 1_554 S
C295 N298 1.329 . S
C295 H305 0.930 . S
C296 C295 1.391 1_556 S
C296 N297 1.333 . S
C296 H303 0.930 . S
N297 Zn281 2.119 . S
N297 C293 1.328 . S
N297 C296 1.333 . S
N298 C294 1.331 . S
N298 C295 1.329 . S
H299 C293 0.930 . S
C300 O280 1.257 1_556 S
C300 O301 1.244 . S
O301 C300 1.244 . S
O302 C278 1.257 1_554 S
O302 Zn281 2.019 1_554 S
H303 C296 0.930 . S
H304 C283 0.930 . S
H305 C295 0.930 . S
Zn306 N310 2.020 . S
Zn306 O314 2.019 . S
Zn306 N316 2.119 . S
Zn306 O324 1.975 . S
C307 N308 1.334 . S
C307 N311 1.336 . S
N308 C307 1.334 . S
N308 C309 1.334 . S
C309 N308 1.334 . S
C309 N310 1.336 . S
N310 Zn306 2.020 . S
N310 C309 1.336 . S
N310 N311 1.354 . S
N311 C307 1.336 . S
N311 N310 1.354 . S
N311 Zn315 2.020 . S
C312 O313 1.244 . S
C312 O336 1.257 . S
O313 C312 1.244 . S
O314 Zn306 2.019 . S
O314 C334 1.257 . S
Zn315 N311 2.020 . S
Zn315 O322 1.975 . S
Zn315 N331 2.119 . S
Zn315 O336 2.019 . S
N316 Zn306 2.119 . S
N316 C318 1.334 . S
N316 C319 1.328 . S
C317 C318 1.391 . S
C317 N320 1.329 . S
C317 H338 0.930 . S
C318 N316 1.334 . S
C318 C317 1.391 . S
C318 H325 0.930 . S
C319 N316 1.328 . S
C319 C321 1.392 . S
C319 H326 0.930 . S
N320 C317 1.329 . S
N320 C321 1.331 . S
C321 C319 1.392 . S
C321 N320 1.331 . S
O322 Zn315 1.975 . S
O322 C323 1.252 . S
C323 O322 1.252 . S
C323 O324 1.252 . S
O324 Zn306 1.975 . S
O324 C323 1.252 . S
H325 C318 0.930 . S
H326 C319 0.930 . S
C327 C328 1.392 . S
C327 N331 1.328 . S
C327 H333 0.930 . S
C328 C327 1.392 . S
C328 N332 1.331 . S
C329 C330 1.391 . S
C329 N332 1.329 . S
C329 H339 0.930 . S
C330 C329 1.391 . S
C330 N331 1.334 . S
C330 H337 0.930 . S
N331 Zn315 2.119 . S
N331 C327 1.328 . S
N331 C330 1.334 . S
N332 C328 1.331 . S
N332 C329 1.329 . S
H333 C327 0.930 . S
C334 O314 1.257 . S
C334 O335 1.244 . S
O335 C334 1.244 . S
O336 C312 1.257 . S
O336 Zn315 2.019 . S
H337 C330 0.930 . S
H338 C317 0.930 . S
H339 C329 0.930 . S
Zn340 N344 2.020 . S
Zn340 O348 2.019 1_554 S
Zn340 N350 2.119 . S
Zn340 O358 1.975 1_554 S
C341 N342 1.334 . S
C341 N345 1.336 . S
N342 C341 1.334 . S
N342 C343 1.334 . S
C343 N342 1.334 . S
C343 N344 1.336 . S
N344 Zn340 2.020 . S
N344 C343 1.336 . S
N344 N345 1.354 . S
N345 C341 1.336 . S
N345 N344 1.354 . S
N345 Zn349 2.020 . S
C346 O347 1.244 . S
C346 O370 1.257 1_554 S
O347 C346 1.244 . S
O348 Zn340 2.019 1_556 S
O348 C368 1.257 1_556 S
Zn349 N345 2.020 . S
Zn349 O356 1.975 1_554 S
Zn349 N365 2.119 . S
Zn349 O370 2.019 1_554 S
N350 Zn340 2.119 . S
N350 C352 1.333 . S
N350 C353 1.328 . S
C351 C352 1.391 1_556 S
C351 N354 1.329 . S
C351 H372 0.930 . S
C352 N350 1.333 . S
C352 C351 1.391 1_554 S
C352 H359 0.930 . S
C353 N350 1.328 . S
C353 C355 1.392 1_554 S
C353 H360 0.930 . S
N354 C351 1.329 . S
N354 C355 1.331 . S
C355 C353 1.392 1_556 S
C355 N354 1.331 . S
O356 Zn349 1.975 1_556 S
O356 C357 1.252 . S
C357 O356 1.252 . S
C357 O358 1.252 . S
O358 Zn340 1.975 1_556 S
O358 C357 1.252 . S
H359 C352 0.930 . S
H360 C353 0.930 . S
C361 C362 1.392 1_554 S
C361 N365 1.328 . S
C361 H367 0.930 . S
C362 C361 1.392 1_556 S
C362 N366 1.331 . S
C363 C364 1.391 1_556 S
C363 N366 1.329 . S
C363 H373 0.930 . S
C364 C363 1.391 1_554 S
C364 N365 1.333 . S
C364 H371 0.930 . S
N365 Zn349 2.119 . S
N365 C361 1.328 . S
N365 C364 1.333 . S
N366 C362 1.331 . S
N366 C363 1.329 . S
H367 C361 0.930 . S
C368 O348 1.257 1_554 S
C368 O369 1.244 . S
O369 C368 1.244 . S
O370 C346 1.257 1_556 S
O370 Zn349 2.019 1_556 S
H371 C364 0.930 . S
H372 C351 0.930 . S
H373 C363 0.930 . S
Zn374 N378 2.020 . S
Zn374 O382 2.019 . S
Zn374 N384 2.119 . S
Zn374 O392 1.975 . S
C375 N376 1.334 . S
C375 N379 1.336 . S
N376 C375 1.334 . S
N376 C377 1.334 . S
C377 N376 1.334 . S
C377 N378 1.336 . S
N378 Zn374 2.020 . S
N378 C377 1.336 . S
N378 N379 1.354 . S
N379 C375 1.336 . S
N379 N378 1.354 . S
N379 Zn383 2.020 . S
C380 O381 1.244 . S
C380 O404 1.257 . S
O381 C380 1.244 . S
O382 Zn374 2.019 . S
O382 C402 1.257 . S
Zn383 N379 2.020 . S
Zn383 O390 1.975 . S
Zn383 N399 2.119 . S
Zn383 O404 2.019 . S
N384 Zn374 2.119 . S
N384 C386 1.334 . S
N384 C387 1.328 . S
C385 C386 1.391 . S
C385 N388 1.329 . S
C385 H406 0.930 . S
C386 N384 1.334 . S
C386 C385 1.391 . S
C386 H393 0.930 . S
C387 N384 1.328 . S
C387 C389 1.392 . S
C387 H394 0.930 . S
N388 C385 1.329 . S
N388 C389 1.331 . S
C389 C387 1.392 . S
C389 N388 1.331 . S
O390 Zn383 1.975 . S
O390 C391 1.252 . S
C391 O390 1.252 . S
C391 O392 1.252 . S
O392 Zn374 1.975 . S
O392 C391 1.252 . S
H393 C386 0.930 . S
H394 C387 0.930 . S
C395 C396 1.392 . S
C395 N399 1.328 . S
C395 H401 0.930 . S
C396 C395 1.392 . S
C396 N400 1.331 . S
C397 C398 1.391 . S
C397 N400 1.329 . S
C397 H407 0.930 . S
C398 C397 1.391 . S
C398 N399 1.334 . S
C398 H405 0.930 . S
N399 Zn383 2.119 . S
N399 C395 1.328 . S
N399 C398 1.334 . S
N400 C396 1.331 . S
N400 C397 1.329 . S
H401 C395 0.930 . S
C402 O382 1.257 . S
C402 O403 1.244 . S
O403 C402 1.244 . S
O404 C380 1.257 . S
O404 Zn383 2.019 . S
H405 C398 0.930 . S
H406 C385 0.930 . S
H407 C397 0.930 . S
Zn408 N412 2.020 . S
Zn408 O416 2.019 . S
Zn408 N418 2.119 . S
Zn408 O426 1.975 . S
C409 N410 1.334 . S
C409 N413 1.336 . S
N410 C409 1.334 . S
N410 C411 1.334 . S
C411 N410 1.334 . S
C411 N412 1.336 . S
N412 Zn408 2.020 . S
N412 C411 1.336 . S
N412 N413 1.354 . S
N413 C409 1.336 . S
N413 N412 1.354 . S
N413 Zn417 2.020 . S
C414 O415 1.244 . S
C414 O438 1.257 . S
O415 C414 1.244 . S
O416 Zn408 2.019 . S
O416 C436 1.257 . S
Zn417 N413 2.020 . S
Zn417 O424 1.975 . S
Zn417 N433 2.119 . S
Zn417 O438 2.019 . S
N418 Zn408 2.119 . S
N418 C420 1.334 . S
N418 C421 1.328 . S
C419 C420 1.391 . S
C419 N422 1.329 . S
C419 H440 0.930 . S
C420 N418 1.334 . S
C420 C419 1.391 . S
C420 H427 0.930 . S
C421 N418 1.328 . S
C421 C423 1.392 . S
C421 H428 0.930 . S
N422 C419 1.329 . S
N422 C423 1.331 . S
C423 C421 1.392 . S
C423 N422 1.331 . S
O424 Zn417 1.975 . S
O424 C425 1.252 . S
C425 O424 1.252 . S
C425 O426 1.252 . S
O426 Zn408 1.975 . S
O426 C425 1.252 . S
H427 C420 0.930 . S
H428 C421 0.930 . S
C429 C430 1.392 . S
C429 N433 1.328 . S
C429 H435 0.930 . S
C430 C429 1.392 . S
C430 N434 1.331 . S
C431 C432 1.391 . S
C431 N434 1.329 . S
C431 H441 0.930 . S
C432 C431 1.391 . S
C432 N433 1.334 . S
C432 H439 0.930 . S
N433 Zn417 2.119 . S
N433 C429 1.328 . S
N433 C432 1.334 . S
N434 C430 1.331 . S
N434 C431 1.329 . S
H435 C429 0.930 . S
C436 O416 1.257 . S
C436 O437 1.244 . S
O437 C436 1.244 . S
O438 C414 1.257 . S
O438 Zn417 2.019 . S
H439 C432 0.930 . S
H440 C419 0.930 . S
H441 C431 0.930 . S
Zn442 N446 2.020 . S
Zn442 O450 2.019 . S
Zn442 N452 2.119 . S
Zn442 O460 1.975 . S
C443 N444 1.334 . S
C443 N447 1.336 . S
N444 C443 1.334 . S
N444 C445 1.334 . S
C445 N444 1.334 . S
C445 N446 1.336 . S
N446 Zn442 2.020 . S
N446 C445 1.336 . S
N446 N447 1.354 . S
N447 C443 1.336 . S
N447 N446 1.354 . S
N447 Zn451 2.020 . S
C448 O449 1.244 . S
C448 O472 1.257 . S
O449 C448 1.244 . S
O450 Zn442 2.019 . S
O450 C470 1.257 . S
Zn451 N447 2.020 . S
Zn451 O458 1.975 . S
Zn451 N467 2.119 . S
Zn451 O472 2.019 . S
N452 Zn442 2.119 . S
N452 C454 1.334 . S
N452 C455 1.328 . S
C453 C454 1.391 . S
C453 N456 1.329 . S
C453 H474 0.930 . S
C454 N452 1.334 . S
C454 C453 1.391 . S
C454 H461 0.930 . S
C455 N452 1.328 . S
C455 C457 1.392 . S
C455 H462 0.930 . S
N456 C453 1.329 . S
N456 C457 1.331 . S
C457 C455 1.392 . S
C457 N456 1.331 . S
O458 Zn451 1.975 . S
O458 C459 1.252 . S
C459 O458 1.252 . S
C459 O460 1.252 . S
O460 Zn442 1.975 . S
O460 C459 1.252 . S
H461 C454 0.930 . S
H462 C455 0.930 . S
C463 C464 1.392 . S
C463 N467 1.328 . S
C463 H469 0.930 . S
C464 C463 1.392 . S
C464 N468 1.331 . S
C465 C466 1.391 . S
C465 N468 1.329 . S
C465 H475 0.930 . S
C466 C465 1.391 . S
C466 N467 1.334 . S
C466 H473 0.930 . S
N467 Zn451 2.119 . S
N467 C463 1.328 . S
N467 C466 1.334 . S
N468 C464 1.331 . S
N468 C465 1.329 . S
H469 C463 0.930 . S
C470 O450 1.257 . S
C470 O471 1.244 . S
O471 C470 1.244 . S
O472 C448 1.257 . S
O472 Zn451 2.019 . S
H473 C466 0.930 . S
H474 C453 0.930 . S
H475 C465 0.930 . S
Zn476 N480 2.020 . S
Zn476 O484 2.019 . S
Zn476 N486 2.119 . S
Zn476 O494 1.975 . S
C477 N478 1.334 . S
C477 N481 1.336 . S
N478 C477 1.334 . S
N478 C479 1.334 . S
C479 N478 1.334 . S
C479 N480 1.336 . S
N480 Zn476 2.020 . S
N480 C479 1.336 . S
N480 N481 1.354 . S
N481 C477 1.336 . S
N481 N480 1.354 . S
N481 Zn485 2.020 . S
C482 O483 1.244 . S
C482 O506 1.257 . S
O483 C482 1.244 . S
O484 Zn476 2.019 . S
O484 C504 1.257 . S
Zn485 N481 2.020 . S
Zn485 O492 1.975 . S
Zn485 N501 2.119 . S
Zn485 O506 2.019 . S
N486 Zn476 2.119 . S
N486 C488 1.334 . S
N486 C489 1.328 . S
C487 C488 1.391 . S
C487 N490 1.329 . S
C487 H508 0.930 . S
C488 N486 1.334 . S
C488 C487 1.391 . S
C488 H495 0.930 . S
C489 N486 1.328 . S
C489 C491 1.392 . S
C489 H496 0.930 . S
N490 C487 1.329 . S
N490 C491 1.331 . S
C491 C489 1.392 . S
C491 N490 1.331 . S
O492 Zn485 1.975 . S
O492 C493 1.252 . S
C493 O492 1.252 . S
C493 O494 1.252 . S
O494 Zn476 1.975 . S
O494 C493 1.252 . S
H495 C488 0.930 . S
H496 C489 0.930 . S
C497 C498 1.392 . S
C497 N501 1.328 . S
C497 H503 0.930 . S
C498 C497 1.392 . S
C498 N502 1.331 . S
C499 C500 1.391 . S
C499 N502 1.329 . S
C499 H509 0.930 . S
C500 C499 1.391 . S
C500 N501 1.334 . S
C500 H507 0.930 . S
N501 Zn485 2.119 . S
N501 C497 1.328 . S
N501 C500 1.334 . S
N502 C498 1.331 . S
N502 C499 1.329 . S
H503 C497 0.930 . S
C504 O484 1.257 . S
C504 O505 1.244 . S
O505 C504 1.244 . S
O506 C482 1.257 . S
O506 Zn485 2.019 . S
H507 C500 0.930 . S
H508 C487 0.930 . S
H509 C499 0.930 . S
Zn510 N514 2.020 . S
Zn510 O518 2.019 . S
Zn510 N520 2.119 . S
Zn510 O528 1.975 . S
C511 N512 1.334 . S
C511 N515 1.336 . S
N512 C511 1.334 . S
N512 C513 1.334 . S
C513 N512 1.334 . S
C513 N514 1.336 . S
N514 Zn510 2.020 . S
N514 C513 1.336 . S
N514 N515 1.354 . S
N515 C511 1.336 . S
N515 N514 1.354 . S
N515 Zn519 2.020 . S
C516 O517 1.244 . S
C516 O540 1.257 . S
O517 C516 1.244 . S
O518 Zn510 2.019 . S
O518 C538 1.257 . S
Zn519 N515 2.020 . S
Zn519 O526 1.975 . S
Zn519 N535 2.119 . S
Zn519 O540 2.019 . S
N520 Zn510 2.119 . S
N520 C522 1.334 . S
N520 C523 1.328 . S
C521 C522 1.391 . S
C521 N524 1.329 . S
C521 H542 0.930 . S
C522 N520 1.334 . S
C522 C521 1.391 . S
C522 H529 0.930 . S
C523 N520 1.328 . S
C523 C525 1.392 . S
C523 H530 0.930 . S
N524 C521 1.329 . S
N524 C525 1.331 . S
C525 C523 1.392 . S
C525 N524 1.331 . S
O526 Zn519 1.975 . S
O526 C527 1.252 . S
C527 O526 1.252 . S
C527 O528 1.252 . S
O528 Zn510 1.975 . S
O528 C527 1.252 . S
H529 C522 0.930 . S
H530 C523 0.930 . S
C531 C532 1.392 . S
C531 N535 1.328 . S
C531 H537 0.930 . S
C532 C531 1.392 . S
C532 N536 1.331 . S
C533 C534 1.391 . S
C533 N536 1.329 . S
C533 H543 0.930 . S
C534 C533 1.391 . S
C534 N535 1.334 . S
C534 H541 0.930 . S
N535 Zn519 2.119 . S
N535 C531 1.328 . S
N535 C534 1.334 . S
N536 C532 1.331 . S
N536 C533 1.329 . S
H537 C531 0.930 . S
C538 O518 1.257 . S
C538 O539 1.244 . S
O539 C538 1.244 . S
O540 C516 1.257 . S
O540 Zn519 2.019 . S
H541 C534 0.930 . S
H542 C521 0.930 . S
H543 C533 0.930 . S
C544 C545 1.363 . S
C544 C550 1.379 . S
C544 N552 1.356 . S
C545 C544 1.363 . S
C545 C551 1.363 . S
C546 C547 1.363 . S
C546 C551 1.379 . S
C546 N553 1.356 . S
C547 C546 1.363 . S
C547 C550 1.363 . S
N548 C550 1.356 . S
N548 H560 0.984 . S
N548 H561 0.985 . S
N549 C551 1.356 . S
N549 H554 0.984 . S
N549 H555 0.985 . S
C550 C544 1.379 . S
C550 C547 1.363 . S
C550 N548 1.356 . S
C551 C545 1.363 . S
C551 C546 1.379 . S
C551 N549 1.356 . S
N552 C544 1.356 . S
N552 H558 0.984 . S
N552 H559 0.984 . S
N553 C546 1.356 . S
N553 H556 0.984 . S
N553 H557 0.985 . S
H554 N549 0.984 . S
H555 N549 0.985 . S
H556 N553 0.984 . S
H557 N553 0.985 . S
H558 N552 0.984 . S
H559 N552 0.984 . S
H560 N548 0.984 . S
H561 N548 0.985 . S
C562 C563 1.363 1_655 S
C562 C568 1.379 1_565 S
C562 N570 1.356 . S
C563 C562 1.363 1_455 S
C563 C569 1.363 . S
C564 C565 1.363 1_455 S
C564 C569 1.379 1_545 S
C564 N571 1.356 . S
C565 C564 1.363 1_655 S
C565 C568 1.363 . S
N566 C568 1.356 . S
N566 H578 0.984 . S
N566 H579 0.985 . S
N567 C569 1.356 . S
N567 H572 0.984 . S
N567 H573 0.985 . S
C568 C562 1.379 1_545 S
C568 C565 1.363 . S
C568 N566 1.356 . S
C569 C563 1.363 . S
C569 C564 1.379 1_565 S
C569 N567 1.356 . S
N570 C562 1.356 . S
N570 H576 0.984 . S
N570 H577 0.984 . S
N571 C564 1.356 . S
N571 H574 0.984 . S
N571 H575 0.985 . S
H572 N567 0.984 . S
H573 N567 0.985 . S
H574 N571 0.984 . S
H575 N571 0.985 . S
H576 N570 0.984 . S
H577 N570 0.984 . S
H578 N566 0.984 . S
H579 N566 0.985 . S
C580 C581 1.363 . S
C580 C586 1.379 1_545 S
C580 N588 1.356 . S
C581 C580 1.363 . S
C581 C587 1.363 . S
C582 C583 1.363 . S
C582 C587 1.379 1_565 S
C582 N589 1.356 . S
C583 C582 1.363 . S
C583 C586 1.363 . S
N584 C586 1.356 . S
N584 H596 0.984 . S
N584 H597 0.985 . S
N585 C587 1.356 . S
N585 H590 0.984 . S
N585 H591 0.985 . S
C586 C580 1.379 1_565 S
C586 C583 1.363 . S
C586 N584 1.356 . S
C587 C581 1.363 . S
C587 C582 1.379 1_545 S
C587 N585 1.356 . S
N588 C580 1.356 . S
N588 H594 0.984 . S
N588 H595 0.984 . S
N589 C582 1.356 . S
N589 H592 0.984 . S
N589 H593 0.985 . S
H590 N585 0.984 . S
H591 N585 0.985 . S
H592 N589 0.984 . S
H593 N589 0.985 . S
H594 N588 0.984 . S
H595 N588 0.984 . S
H596 N584 0.984 . S
H597 N584 0.985 . S
C598 C599 1.363 1_455 S
C598 C604 1.379 . S
C598 N606 1.356 . S
C599 C598 1.363 1_655 S
C599 C605 1.363 . S
C600 C601 1.363 1_655 S
C600 C605 1.379 . S
C600 N607 1.356 . S
C601 C600 1.363 1_455 S
C601 C604 1.363 . S
N602 C604 1.356 . S
N602 H614 0.984 . S
N602 H615 0.985 . S
N603 C605 1.356 . S
N603 H608 0.984 . S
N603 H609 0.985 . S
C604 C598 1.379 . S
C604 C601 1.363 . S
C604 N602 1.356 . S
C605 C599 1.363 . S
C605 C600 1.379 . S
C605 N603 1.356 . S
N606 C598 1.356 . S
N606 H612 0.984 . S
N606 H613 0.984 . S
N607 C600 1.356 . S
N607 H610 0.984 . S
N607 H611 0.985 . S
H608 N603 0.984 . S
H609 N603 0.985 . S
H610 N607 0.984 . S
H611 N607 0.985 . S
H612 N606 0.984 . S
H613 N606 0.984 . S
H614 N602 0.984 . S
H615 N602 0.985 . S
C616 C617 1.363 . S
C616 C622 1.379 . S
C616 N624 1.356 . S
C617 C616 1.363 . S
C617 C623 1.363 . S
C618 C619 1.363 . S
C618 C623 1.379 . S
C618 N625 1.356 . S
C619 C618 1.363 . S
C619 C622 1.363 . S
N620 C622 1.356 . S
N620 H632 0.984 . S
N620 H633 0.985 . S
N621 C623 1.356 . S
N621 H626 0.984 . S
N621 H627 0.985 . S
C622 C616 1.379 . S
C622 C619 1.363 . S
C622 N620 1.356 . S
C623 C617 1.363 . S
C623 C618 1.379 . S
C623 N621 1.356 . S
N624 C616 1.356 . S
N624 H630 0.984 . S
N624 H631 0.984 . S
N625 C618 1.356 . S
N625 H628 0.984 . S
N625 H629 0.985 . S
H626 N621 0.984 . S
H627 N621 0.985 . S
H628 N625 0.984 . S
H629 N625 0.985 . S
H630 N624 0.984 . S
H631 N624 0.984 . S
H632 N620 0.984 . S
H633 N620 0.985 . S
C634 C635 1.363 . S
C634 C640 1.379 1_565 S
C634 N642 1.356 . S
C635 C634 1.363 . S
C635 C641 1.363 . S
C636 C637 1.363 . S
C636 C641 1.379 1_545 S
C636 N643 1.356 . S
C637 C636 1.363 . S
C637 C640 1.363 . S
N638 C640 1.356 . S
N638 H650 0.984 . S
N638 H651 0.985 . S
N639 C641 1.356 . S
N639 H644 0.984 . S
N639 H645 0.985 . S
C640 C634 1.379 1_545 S
C640 C637 1.363 . S
C640 N638 1.356 . S
C641 C635 1.363 . S
C641 C636 1.379 1_565 S
C641 N639 1.356 . S
N642 C634 1.356 . S
N642 H648 0.984 . S
N642 H649 0.984 . S
N643 C636 1.356 . S
N643 H646 0.984 . S
N643 H647 0.985 . S
H644 N639 0.984 . S
H645 N639 0.985 . S
H646 N643 0.984 . S
H647 N643 0.985 . S
H648 N642 0.984 . S
H649 N642 0.984 . S
H650 N638 0.984 . S
H651 N638 0.985 . S
C652 C653 1.363 . S
C652 C658 1.379 . S
C652 N660 1.356 . S
C653 C652 1.363 . S
C653 C659 1.363 1_455 S
C654 C655 1.363 . S
C654 C659 1.379 . S
C654 N661 1.356 . S
C655 C654 1.363 . S
C655 C658 1.363 1_655 S
N656 C658 1.356 . S
N656 H668 0.984 . S
N656 H669 0.985 . S
N657 C659 1.356 . S
N657 H662 0.984 . S
N657 H663 0.985 . S
C658 C652 1.379 . S
C658 C655 1.363 1_455 S
C658 N656 1.356 . S
C659 C653 1.363 1_655 S
C659 C654 1.379 . S
C659 N657 1.356 . S
N660 C652 1.356 . S
N660 H666 0.984 . S
N660 H667 0.984 . S
N661 C654 1.356 . S
N661 H664 0.984 . S
N661 H665 0.985 . S
H662 N657 0.984 . S
H663 N657 0.985 . S
H664 N661 0.984 . S
H665 N661 0.985 . S
H666 N660 0.984 . S
H667 N660 0.984 . S
H668 N656 0.984 . S
H669 N656 0.985 . S
C670 C671 1.363 1_556 S
C670 C676 1.379 . S
C670 N678 1.356 . S
C671 C670 1.363 1_554 S
C671 C677 1.363 . S
C672 C673 1.363 1_554 S
C672 C677 1.379 . S
C672 N679 1.356 . S
C673 C672 1.363 1_556 S
C673 C676 1.363 . S
N674 C676 1.356 . S
N674 H686 0.984 . S
N674 H687 0.985 . S
N675 C677 1.356 . S
N675 H680 0.984 . S
N675 H681 0.985 . S
C676 C670 1.379 . S
C676 C673 1.363 . S
C676 N674 1.356 . S
C677 C671 1.363 . S
C677 C672 1.379 . S
C677 N675 1.356 . S
N678 C670 1.356 . S
N678 H684 0.984 . S
N678 H685 0.984 . S
N679 C672 1.356 . S
N679 H682 0.984 . S
N679 H683 0.985 . S
H680 N675 0.984 . S
H681 N675 0.985 . S
H682 N679 0.984 . S
H683 N679 0.985 . S
H684 N678 0.984 . S
H685 N678 0.984 . S
H686 N674 0.984 . S
H687 N674 0.985 . S
C688 C689 1.363 1_455 S
C688 C694 1.379 . S
C688 N696 1.356 . S
C689 C688 1.363 1_655 S
C689 C695 1.363 1_554 S
C690 C691 1.363 1_655 S
C690 C695 1.379 . S
C690 N697 1.356 . S
C691 C690 1.363 1_455 S
C691 C694 1.363 1_556 S
N692 C694 1.356 . S
N692 H704 0.984 . S
N692 H705 0.985 . S
N693 C695 1.356 . S
N693 H698 0.984 . S
N693 H699 0.985 . S
C694 C688 1.379 . S
C694 C691 1.363 1_554 S
C694 N692 1.356 . S
C695 C689 1.363 1_556 S
C695 C690 1.379 . S
C695 N693 1.356 . S
N696 C688 1.356 . S
N696 H702 0.984 . S
N696 H703 0.984 . S
N697 C690 1.356 . S
N697 H700 0.984 . S
N697 H701 0.985 . S
H698 N693 0.984 . S
H699 N693 0.985 . S
H700 N697 0.984 . S
H701 N697 0.985 . S
H702 N696 0.984 . S
H703 N696 0.984 . S
H704 N692 0.984 . S
H705 N692 0.985 . S
C706 C707 1.363 . S
C706 C712 1.379 . S
C706 N714 1.356 . S
C707 C706 1.363 . S
C707 C713 1.363 . S
C708 C709 1.363 . S
C708 C713 1.379 . S
C708 N715 1.356 . S
C709 C708 1.363 . S
C709 C712 1.363 . S
N710 C712 1.356 . S
N710 H722 0.984 . S
N710 H723 0.985 . S
N711 C713 1.356 . S
N711 H716 0.984 . S
N711 H717 0.985 . S
C712 C706 1.379 . S
C712 C709 1.363 . S
C712 N710 1.356 . S
C713 C707 1.363 . S
C713 C708 1.379 . S
C713 N711 1.356 . S
N714 C706 1.356 . S
N714 H720 0.984 . S
N714 H721 0.984 . S
N715 C708 1.356 . S
N715 H718 0.984 . S
N715 H719 0.985 . S
H716 N711 0.984 . S
H717 N711 0.985 . S
H718 N715 0.984 . S
H719 N715 0.985 . S
H720 N714 0.984 . S
H721 N714 0.984 . S
H722 N710 0.984 . S
H723 N710 0.985 . S
C724 C725 1.363 . S
C724 C730 1.379 . S
C724 N732 1.356 . S
C725 C724 1.363 . S
C725 C731 1.363 1_556 S
C726 C727 1.363 . S
C726 C731 1.379 . S
C726 N733 1.356 . S
C727 C726 1.363 . S
C727 C730 1.363 1_554 S
N728 C730 1.356 . S
N728 H740 0.984 . S
N728 H741 0.985 . S
N729 C731 1.356 . S
N729 H734 0.984 . S
N729 H735 0.985 . S
C730 C724 1.379 . S
C730 C727 1.363 1_556 S
C730 N728 1.356 . S
C731 C725 1.363 1_554 S
C731 C726 1.379 . S
C731 N729 1.356 . S
N732 C724 1.356 . S
N732 H738 0.984 . S
N732 H739 0.984 . S
N733 C726 1.356 . S
N733 H736 0.984 . S
N733 H737 0.985 . S
H734 N729 0.984 . S
H735 N729 0.985 . S
H736 N733 0.984 . S
H737 N733 0.985 . S
H738 N732 0.984 . S
H739 N732 0.984 . S
H740 N728 0.984 . S
H741 N728 0.985 . S
C742 C743 1.363 . S
C742 C748 1.379 . S
C742 N750 1.356 . S
C743 C742 1.363 . S
C743 C749 1.363 . S
C744 C745 1.363 . S
C744 C749 1.379 . S
C744 N751 1.356 . S
C745 C744 1.363 . S
C745 C748 1.363 . S
N746 C748 1.356 . S
N746 H758 0.984 . S
N746 H759 0.985 . S
N747 C749 1.356 . S
N747 H752 0.984 . S
N747 H753 0.985 . S
C748 C742 1.379 . S
C748 C745 1.363 . S
C748 N746 1.356 . S
C749 C743 1.363 . S
C749 C744 1.379 . S
C749 N747 1.356 . S
N750 C742 1.356 . S
N750 H756 0.984 . S
N750 H757 0.984 . S
N751 C744 1.356 . S
N751 H754 0.984 . S
N751 H755 0.985 . S
H752 N747 0.984 . S
H753 N747 0.985 . S
H754 N751 0.984 . S
H755 N751 0.985 . S
H756 N750 0.984 . S
H757 N750 0.984 . S
H758 N746 0.984 . S
H759 N746 0.985 . S
C760 C761 1.363 1_556 S
C760 C766 1.379 1_545 S
C760 N768 1.356 . S
C761 C760 1.363 1_554 S
C761 C767 1.363 . S
C762 C763 1.363 1_554 S
C762 C767 1.379 1_565 S
C762 N769 1.356 . S
C763 C762 1.363 1_556 S
C763 C766 1.363 . S
N764 C766 1.356 . S
N764 H776 0.984 . S
N764 H777 0.985 . S
N765 C767 1.356 . S
N765 H770 0.984 . S
N765 H771 0.985 . S
C766 C760 1.379 1_565 S
C766 C763 1.363 . S
C766 N764 1.356 . S
C767 C761 1.363 . S
C767 C762 1.379 1_545 S
C767 N765 1.356 . S
N768 C760 1.356 . S
N768 H774 0.984 . S
N768 H775 0.984 . S
N769 C762 1.356 . S
N769 H772 0.984 . S
N769 H773 0.985 . S
H770 N765 0.984 . S
H771 N765 0.985 . S
H772 N769 0.984 . S
H773 N769 0.985 . S
H774 N768 0.984 . S
H775 N768 0.984 . S
H776 N764 0.984 . S
H777 N764 0.985 . S
C778 C779 1.363 . S
C778 C784 1.379 . S
C778 N786 1.356 . S
C779 C778 1.363 . S
C779 C785 1.363 . S
C780 C781 1.363 . S
C780 C785 1.379 . S
C780 N787 1.356 . S
C781 C780 1.363 . S
C781 C784 1.363 . S
N782 C784 1.356 . S
N782 H794 0.984 . S
N782 H795 0.985 . S
N783 C785 1.356 . S
N783 H788 0.984 . S
N783 H789 0.985 . S
C784 C778 1.379 . S
C784 C781 1.363 . S
C784 N782 1.356 . S
C785 C779 1.363 . S
C785 C780 1.379 . S
C785 N783 1.356 . S
N786 C778 1.356 . S
N786 H792 0.984 . S
N786 H793 0.984 . S
N787 C780 1.356 . S
N787 H790 0.984 . S
N787 H791 0.985 . S
H788 N783 0.984 . S
H789 N783 0.985 . S
H790 N787 0.984 . S
H791 N787 0.985 . S
H792 N786 0.984 . S
H793 N786 0.984 . S
H794 N782 0.984 . S
H795 N782 0.985 . S
C796 C797 1.363 . S
C796 C802 1.379 . S
C796 N804 1.356 . S
C797 C796 1.363 . S
C797 C803 1.363 . S
C798 C799 1.363 . S
C798 C803 1.379 . S
C798 N805 1.356 . S
C799 C798 1.363 . S
C799 C802 1.363 . S
N800 C802 1.356 . S
N800 H812 0.984 . S
N800 H813 0.985 . S
N801 C803 1.356 . S
N801 H806 0.984 . S
N801 H807 0.985 . S
C802 C796 1.379 . S
C802 C799 1.363 . S
C802 N800 1.356 . S
C803 C797 1.363 . S
C803 C798 1.379 . S
C803 N801 1.356 . S
N804 C796 1.356 . S
N804 H810 0.984 . S
N804 H811 0.984 . S
N805 C798 1.356 . S
N805 H808 0.984 . S
N805 H809 0.985 . S
H806 N801 0.984 . S
H807 N801 0.985 . S
H808 N805 0.984 . S
H809 N805 0.985 . S
H810 N804 0.984 . S
H811 N804 0.984 . S
H812 N800 0.984 . S
H813 N800 0.985 . S
C814 C815 1.363 . S
C814 C820 1.379 . S
C814 N822 1.356 . S
C815 C814 1.363 . S
C815 C821 1.363 . S
C816 C817 1.363 . S
C816 C821 1.379 . S
C816 N823 1.356 . S
C817 C816 1.363 . S
C817 C820 1.363 . S
N818 C820 1.356 . S
N818 H830 0.984 . S
N818 H831 0.985 . S
N819 C821 1.356 . S
N819 H824 0.984 . S
N819 H825 0.985 . S
C820 C814 1.379 . S
C820 C817 1.363 . S
C820 N818 1.356 . S
C821 C815 1.363 . S
C821 C816 1.379 . S
C821 N819 1.356 . S
N822 C814 1.356 . S
N822 H828 0.984 . S
N822 H829 0.984 . S
N823 C816 1.356 . S
N823 H826 0.984 . S
N823 H827 0.985 . S
H824 N819 0.984 . S
H825 N819 0.985 . S
H826 N823 0.984 . S
H827 N823 0.985 . S
H828 N822 0.984 . S
H829 N822 0.984 . S
H830 N818 0.984 . S
H831 N818 0.985 . S
C832 C833 1.363 . S
C832 C838 1.379 . S
C832 N840 1.356 . S
C833 C832 1.363 . S
C833 C839 1.363 . S
C834 C835 1.363 . S
C834 C839 1.379 . S
C834 N841 1.356 . S
C835 C834 1.363 . S
C835 C838 1.363 . S
N836 C838 1.356 . S
N836 H848 0.984 . S
N836 H849 0.985 . S
N837 C839 1.356 . S
N837 H842 0.984 . S
N837 H843 0.985 . S
C838 C832 1.379 . S
C838 C835 1.363 . S
C838 N836 1.356 . S
C839 C833 1.363 . S
C839 C834 1.379 . S
C839 N837 1.356 . S
N840 C832 1.356 . S
N840 H846 0.984 . S
N840 H847 0.984 . S
N841 C834 1.356 . S
N841 H844 0.984 . S
N841 H845 0.985 . S
H842 N837 0.984 . S
H843 N837 0.985 . S
H844 N841 0.984 . S
H845 N841 0.985 . S
H846 N840 0.984 . S
H847 N840 0.984 . S
H848 N836 0.984 . S
H849 N836 0.985 . S
C850 C851 1.363 . S
C850 C856 1.379 . S
C850 N858 1.356 . S
C851 C850 1.363 . S
C851 C857 1.363 . S
C852 C853 1.363 . S
C852 C857 1.379 . S
C852 N859 1.356 . S
C853 C852 1.363 . S
C853 C856 1.363 . S
N854 C856 1.356 . S
N854 H866 0.984 . S
N854 H867 0.985 . S
N855 C857 1.356 . S
N855 H860 0.984 . S
N855 H861 0.985 . S
C856 C850 1.379 . S
C856 C853 1.363 . S
C856 N854 1.356 . S
C857 C851 1.363 . S
C857 C852 1.379 . S
C857 N855 1.356 . S
N858 C850 1.356 . S
N858 H864 0.984 . S
N858 H865 0.984 . S
N859 C852 1.356 . S
N859 H862 0.984 . S
N859 H863 0.985 . S
H860 N855 0.984 . S
H861 N855 0.985 . S
H862 N859 0.984 . S
H863 N859 0.985 . S
H864 N858 0.984 . S
H865 N858 0.984 . S
H866 N854 0.984 . S
H867 N854 0.985 . S
C868 C869 1.363 . S
C868 C874 1.379 . S
C868 N876 1.356 . S
C869 C868 1.363 . S
C869 C875 1.363 . S
C870 C871 1.363 . S
C870 C875 1.379 . S
C870 N877 1.356 . S
C871 C870 1.363 . S
C871 C874 1.363 . S
N872 C874 1.356 . S
N872 H884 0.984 . S
N872 H885 0.985 . S
N873 C875 1.356 . S
N873 H878 0.984 . S
N873 H879 0.985 . S
C874 C868 1.379 . S
C874 C871 1.363 . S
C874 N872 1.356 . S
C875 C869 1.363 . S
C875 C870 1.379 . S
C875 N873 1.356 . S
N876 C868 1.356 . S
N876 H882 0.984 . S
N876 H883 0.984 . S
N877 C870 1.356 . S
N877 H880 0.984 . S
N877 H881 0.985 . S
H878 N873 0.984 . S
H879 N873 0.985 . S
H880 N877 0.984 . S
H881 N877 0.985 . S
H882 N876 0.984 . S
H883 N876 0.984 . S
H884 N872 0.984 . S
H885 N872 0.985 . S
C886 C887 1.363 . S
C886 C892 1.379 . S
C886 N894 1.356 . S
C887 C886 1.363 . S
C887 C893 1.363 . S
C888 C889 1.363 . S
C888 C893 1.379 . S
C888 N895 1.356 . S
C889 C888 1.363 . S
C889 C892 1.363 . S
N890 C892 1.356 . S
N890 H902 0.984 . S
N890 H903 0.985 . S
N891 C893 1.356 . S
N891 H896 0.984 . S
N891 H897 0.985 . S
C892 C886 1.379 . S
C892 C889 1.363 . S
C892 N890 1.356 . S
C893 C887 1.363 . S
C893 C888 1.379 . S
C893 N891 1.356 . S
N894 C886 1.356 . S
N894 H900 0.984 . S
N894 H901 0.984 . S
N895 C888 1.356 . S
N895 H898 0.984 . S
N895 H899 0.985 . S
H896 N891 0.984 . S
H897 N891 0.985 . S
H898 N895 0.984 . S
H899 N895 0.985 . S
H900 N894 0.984 . S
H901 N894 0.984 . S
H902 N890 0.984 . S
H903 N890 0.985 . S
C904 C905 1.363 . S
C904 C910 1.379 . S
C904 N912 1.356 . S
C905 C904 1.363 . S
C905 C911 1.363 . S
C906 C907 1.363 . S
C906 C911 1.379 . S
C906 N913 1.356 . S
C907 C906 1.363 . S
C907 C910 1.363 . S
N908 C910 1.356 . S
N908 H920 0.984 . S
N908 H921 0.985 . S
N909 C911 1.356 . S
N909 H914 0.984 . S
N909 H915 0.985 . S
C910 C904 1.379 . S
C910 C907 1.363 . S
C910 N908 1.356 . S
C911 C905 1.363 . S
C911 C906 1.379 . S
C911 N909 1.356 . S
N912 C904 1.356 . S
N912 H918 0.984 . S
N912 H919 0.984 . S
N913 C906 1.356 . S
N913 H916 0.984 . S
N913 H917 0.985 . S
H914 N909 0.984 . S
H915 N909 0.985 . S
H916 N913 0.984 . S
H917 N913 0.985 . S
H918 N912 0.984 . S
H919 N912 0.984 . S
H920 N908 0.984 . S
H921 N908 0.985 . S
C922 C923 1.363 . S
C922 C928 1.379 . S
C922 N930 1.356 . S
C923 C922 1.363 . S
C923 C929 1.363 . S
C924 C925 1.363 . S
C924 C929 1.379 . S
C924 N931 1.356 . S
C925 C924 1.363 . S
C925 C928 1.363 . S
N926 C928 1.356 . S
N926 H938 0.984 . S
N926 H939 0.985 . S
N927 C929 1.356 . S
N927 H932 0.984 . S
N927 H933 0.985 . S
C928 C922 1.379 . S
C928 C925 1.363 . S
C928 N926 1.356 . S
C929 C923 1.363 . S
C929 C924 1.379 . S
C929 N927 1.356 . S
N930 C922 1.356 . S
N930 H936 0.984 . S
N930 H937 0.984 . S
N931 C924 1.356 . S
N931 H934 0.984 . S
N931 H935 0.985 . S
H932 N927 0.984 . S
H933 N927 0.985 . S
H934 N931 0.984 . S
H935 N931 0.985 . S
H936 N930 0.984 . S
H937 N930 0.984 . S
H938 N926 0.984 . S
H939 N926 0.985 . S
C940 C941 1.363 . S
C940 C946 1.379 . S
C940 N948 1.356 . S
C941 C940 1.363 . S
C941 C947 1.363 . S
C942 C943 1.363 . S
C942 C947 1.379 . S
C942 N949 1.356 . S
C943 C942 1.363 . S
C943 C946 1.363 . S
N944 C946 1.356 . S
N944 H956 0.984 . S
N944 H957 0.985 . S
N945 C947 1.356 . S
N945 H950 0.984 . S
N945 H951 0.985 . S
C946 C940 1.379 . S
C946 C943 1.363 . S
C946 N944 1.356 . S
C947 C941 1.363 . S
C947 C942 1.379 . S
C947 N945 1.356 . S
N948 C940 1.356 . S
N948 H954 0.984 . S
N948 H955 0.984 . S
N949 C942 1.356 . S
N949 H952 0.984 . S
N949 H953 0.985 . S
H950 N945 0.984 . S
H951 N945 0.985 . S
H952 N949 0.984 . S
H953 N949 0.985 . S
H954 N948 0.984 . S
H955 N948 0.984 . S
H956 N944 0.984 . S
H957 N944 0.985 . S
C958 C959 1.363 . S
C958 C964 1.379 . S
C958 N966 1.356 . S
C959 C958 1.363 . S
C959 C965 1.363 . S
C960 C961 1.363 . S
C960 C965 1.379 . S
C960 N967 1.356 . S
C961 C960 1.363 . S
C961 C964 1.363 . S
N962 C964 1.356 . S
N962 H974 0.984 . S
N962 H975 0.985 . S
N963 C965 1.356 . S
N963 H968 0.984 . S
N963 H969 0.985 . S
C964 C958 1.379 . S
C964 C961 1.363 . S
C964 N962 1.356 . S
C965 C959 1.363 . S
C965 C960 1.379 . S
C965 N963 1.356 . S
N966 C958 1.356 . S
N966 H972 0.984 . S
N966 H973 0.984 . S
N967 C960 1.356 . S
N967 H970 0.984 . S
N967 H971 0.985 . S
H968 N963 0.984 . S
H969 N963 0.985 . S
H970 N967 0.984 . S
H971 N967 0.985 . S
H972 N966 0.984 . S
H973 N966 0.984 . S
H974 N962 0.984 . S
H975 N962 0.985 . S
C976 C977 1.363 . S
C976 C982 1.379 . S
C976 N984 1.356 . S
C977 C976 1.363 . S
C977 C983 1.363 . S
C978 C979 1.363 . S
C978 C983 1.379 . S
C978 N985 1.356 . S
C979 C978 1.363 . S
C979 C982 1.363 . S
N980 C982 1.356 . S
N980 H992 0.984 . S
N980 H993 0.985 . S
N981 C983 1.356 . S
N981 H986 0.984 . S
N981 H987 0.985 . S
C982 C976 1.379 . S
C982 C979 1.363 . S
C982 N980 1.356 . S
C983 C977 1.363 . S
C983 C978 1.379 . S
C983 N981 1.356 . S
N984 C976 1.356 . S
N984 H990 0.984 . S
N984 H991 0.984 . S
N985 C978 1.356 . S
N985 H988 0.984 . S
N985 H989 0.985 . S
H986 N981 0.984 . S
H987 N981 0.985 . S
H988 N985 0.984 . S
H989 N985 0.985 . S
H990 N984 0.984 . S
H991 N984 0.984 . S
H992 N980 0.984 . S
H993 N980 0.985 . S
C994 C995 1.363 . S
C994 C1000 1.379 . S
C994 N1002 1.356 1_655 S
C995 C994 1.363 . S
C995 C1001 1.363 . S
C996 C997 1.363 . S
C996 C1001 1.379 . S
C996 N1003 1.356 . S
C997 C996 1.363 . S
C997 C1000 1.363 . S
N998 C1000 1.356 . S
N998 H1010 0.984 . S
N998 H1011 0.985 . S
N999 C1001 1.356 . S
N999 H1004 0.984 . S
N999 H1005 0.985 . S
C1000 C994 1.379 . S
C1000 C997 1.363 . S
C1000 N998 1.356 . S
C1001 C995 1.363 . S
C1001 C996 1.379 . S
C1001 N999 1.356 . S
N1002 C994 1.356 1_455 S
N1002 H1008 0.984 . S
N1002 H1009 0.984 . S
N1003 C996 1.356 . S
N1003 H1006 0.984 . S
N1003 H1007 0.985 . S
H1004 N999 0.984 . S
H1005 N999 0.985 . S
H1006 N1003 0.984 . S
H1007 N1003 0.985 . S
H1008 N1002 0.984 . S
H1009 N1002 0.984 . S
H1010 N998 0.984 . S
H1011 N998 0.985 . S
C1012 C1013 1.363 . S
C1012 C1018 1.379 . S
C1012 N1020 1.356 . S
C1013 C1012 1.363 . S
C1013 C1019 1.363 . S
C1014 C1015 1.363 . S
C1014 C1019 1.379 . S
C1014 N1021 1.356 . S
C1015 C1014 1.363 . S
C1015 C1018 1.363 . S
N1016 C1018 1.356 . S
N1016 H1028 0.984 . S
N1016 H1029 0.985 . S
N1017 C1019 1.356 . S
N1017 H1022 0.984 . S
N1017 H1023 0.985 . S
C1018 C1012 1.379 . S
C1018 C1015 1.363 . S
C1018 N1016 1.356 . S
C1019 C1013 1.363 . S
C1019 C1014 1.379 . S
C1019 N1017 1.356 . S
N1020 C1012 1.356 . S
N1020 H1026 0.984 . S
N1020 H1027 0.984 . S
N1021 C1014 1.356 . S
N1021 H1024 0.984 . S
N1021 H1025 0.985 . S
H1022 N1017 0.984 . S
H1023 N1017 0.985 . S
H1024 N1021 0.984 . S
H1025 N1021 0.985 . S
H1026 N1020 0.984 . S
H1027 N1020 0.984 . S
H1028 N1016 0.984 . S
H1029 N1016 0.985 . S
C1030 C1031 1.363 . S
C1030 C1036 1.379 . S
C1030 N1038 1.356 1_655 S
C1031 C1030 1.363 . S
C1031 C1037 1.363 . S
C1032 C1033 1.363 . S
C1032 C1037 1.379 . S
C1032 N1039 1.356 . S
C1033 C1032 1.363 . S
C1033 C1036 1.363 . S
N1034 C1036 1.356 . S
N1034 H1046 0.984 . S
N1034 H1047 0.985 . S
N1035 C1037 1.356 . S
N1035 H1040 0.984 . S
N1035 H1041 0.985 . S
C1036 C1030 1.379 . S
C1036 C1033 1.363 . S
C1036 N1034 1.356 . S
C1037 C1031 1.363 . S
C1037 C1032 1.379 . S
C1037 N1035 1.356 . S
N1038 C1030 1.356 1_455 S
N1038 H1044 0.984 . S
N1038 H1045 0.984 . S
N1039 C1032 1.356 . S
N1039 H1042 0.984 . S
N1039 H1043 0.985 . S
H1040 N1035 0.984 . S
H1041 N1035 0.985 . S
H1042 N1039 0.984 . S
H1043 N1039 0.985 . S
H1044 N1038 0.984 . S
H1045 N1038 0.984 . S
H1046 N1034 0.984 . S
H1047 N1034 0.985 . S
C1048 C1049 1.363 . S
C1048 C1054 1.379 . S
C1048 N1056 1.356 . S
C1049 C1048 1.363 . S
C1049 C1055 1.363 . S
C1050 C1051 1.363 . S
C1050 C1055 1.379 . S
C1050 N1057 1.356 . S
C1051 C1050 1.363 . S
C1051 C1054 1.363 . S
N1052 C1054 1.356 . S
N1052 H1064 0.984 . S
N1052 H1065 0.985 . S
N1053 C1055 1.356 . S
N1053 H1058 0.984 . S
N1053 H1059 0.985 . S
C1054 C1048 1.379 . S
C1054 C1051 1.363 . S
C1054 N1052 1.356 . S
C1055 C1049 1.363 . S
C1055 C1050 1.379 . S
C1055 N1053 1.356 . S
N1056 C1048 1.356 . S
N1056 H1062 0.984 . S
N1056 H1063 0.984 . S
N1057 C1050 1.356 . S
N1057 H1060 0.984 . S
N1057 H1061 0.985 . S
H1058 N1053 0.984 . S
H1059 N1053 0.985 . S
H1060 N1057 0.984 . S
H1061 N1057 0.985 . S
H1062 N1056 0.984 . S
H1063 N1056 0.984 . S
H1064 N1052 0.984 . S
H1065 N1052 0.985 . S
C1066 C1067 1.363 . S
C1066 C1072 1.379 . S
C1066 N1074 1.356 . S
C1067 C1066 1.363 . S
C1067 C1073 1.363 . S
C1068 C1069 1.363 . S
C1068 C1073 1.379 . S
C1068 N1075 1.356 1_455 S
C1069 C1068 1.363 . S
C1069 C1072 1.363 . S
N1070 C1072 1.356 . S
N1070 H1082 0.984 . S
N1070 H1083 0.985 . S
N1071 C1073 1.356 . S
N1071 H1076 0.984 . S
N1071 H1077 0.985 . S
C1072 C1066 1.379 . S
C1072 C1069 1.363 . S
C1072 N1070 1.356 . S
C1073 C1067 1.363 . S
C1073 C1068 1.379 . S
C1073 N1071 1.356 . S
N1074 C1066 1.356 . S
N1074 H1080 0.984 . S
N1074 H1081 0.984 . S
N1075 C1068 1.356 1_655 S
N1075 H1078 0.984 . S
N1075 H1079 0.985 . S
H1076 N1071 0.984 . S
H1077 N1071 0.985 . S
H1078 N1075 0.984 . S
H1079 N1075 0.985 . S
H1080 N1074 0.984 . S
H1081 N1074 0.984 . S
H1082 N1070 0.984 . S
H1083 N1070 0.985 . S
C1084 C1085 1.363 . S
C1084 C1090 1.379 . S
C1084 N1092 1.356 . S
C1085 C1084 1.363 . S
C1085 C1091 1.363 . S
C1086 C1087 1.363 . S
C1086 C1091 1.379 . S
C1086 N1093 1.356 . S
C1087 C1086 1.363 . S
C1087 C1090 1.363 . S
N1088 C1090 1.356 . S
N1088 H1100 0.984 . S
N1088 H1101 0.985 . S
N1089 C1091 1.356 . S
N1089 H1094 0.984 . S
N1089 H1095 0.985 . S
C1090 C1084 1.379 . S
C1090 C1087 1.363 . S
C1090 N1088 1.356 . S
C1091 C1085 1.363 . S
C1091 C1086 1.379 . S
C1091 N1089 1.356 . S
N1092 C1084 1.356 . S
N1092 H1098 0.984 . S
N1092 H1099 0.984 . S
N1093 C1086 1.356 . S
N1093 H1096 0.984 . S
N1093 H1097 0.985 . S
H1094 N1089 0.984 . S
H1095 N1089 0.985 . S
H1096 N1093 0.984 . S
H1097 N1093 0.985 . S
H1098 N1092 0.984 . S
H1099 N1092 0.984 . S
H1100 N1088 0.984 . S
H1101 N1088 0.985 . S
C1102 C1103 1.363 . S
C1102 C1108 1.379 . S
C1102 N1110 1.356 . S
C1103 C1102 1.363 . S
C1103 C1109 1.363 . S
C1104 C1105 1.363 . S
C1104 C1109 1.379 . S
C1104 N1111 1.356 1_455 S
C1105 C1104 1.363 . S
C1105 C1108 1.363 . S
N1106 C1108 1.356 . S
N1106 H1118 0.984 . S
N1106 H1119 0.985 . S
N1107 C1109 1.356 . S
N1107 H1112 0.984 . S
N1107 H1113 0.985 . S
C1108 C1102 1.379 . S
C1108 C1105 1.363 . S
C1108 N1106 1.356 . S
C1109 C1103 1.363 . S
C1109 C1104 1.379 . S
C1109 N1107 1.356 . S
N1110 C1102 1.356 . S
N1110 H1116 0.984 . S
N1110 H1117 0.984 . S
N1111 C1104 1.356 1_655 S
N1111 H1114 0.984 . S
N1111 H1115 0.985 . S
H1112 N1107 0.984 . S
H1113 N1107 0.985 . S
H1114 N1111 0.984 . S
H1115 N1111 0.985 . S
H1116 N1110 0.984 . S
H1117 N1110 0.984 . S
H1118 N1106 0.984 . S
H1119 N1106 0.985 . S
C1120 C1121 1.363 . S
C1120 C1126 1.379 . S
C1120 N1128 1.356 . S
C1121 C1120 1.363 . S
C1121 C1127 1.363 . S
C1122 C1123 1.363 . S
C1122 C1127 1.379 . S
C1122 N1129 1.356 . S
C1123 C1122 1.363 . S
C1123 C1126 1.363 . S
N1124 C1126 1.356 . S
N1124 H1136 0.984 . S
N1124 H1137 0.985 . S
N1125 C1127 1.356 . S
N1125 H1130 0.984 . S
N1125 H1131 0.985 . S
C1126 C1120 1.379 . S
C1126 C1123 1.363 . S
C1126 N1124 1.356 . S
C1127 C1121 1.363 . S
C1127 C1122 1.379 . S
C1127 N1125 1.356 . S
N1128 C1120 1.356 . S
N1128 H1134 0.984 . S
N1128 H1135 0.984 . S
N1129 C1122 1.356 . S
N1129 H1132 0.984 . S
N1129 H1133 0.985 . S
H1130 N1125 0.984 . S
H1131 N1125 0.985 . S
H1132 N1129 0.984 . S
H1133 N1129 0.985 . S
H1134 N1128 0.984 . S
H1135 N1128 0.984 . S
H1136 N1124 0.984 . S
H1137 N1124 0.985 . S
C1138 C1139 1.363 . S
C1138 C1144 1.379 . S
C1138 N1146 1.356 1_655 S
C1139 C1138 1.363 . S
C1139 C1145 1.363 . S
C1140 C1141 1.363 . S
C1140 C1145 1.379 . S
C1140 N1147 1.356 . S
C1141 C1140 1.363 . S
C1141 C1144 1.363 . S
N1142 C1144 1.356 . S
N1142 H1154 0.984 . S
N1142 H1155 0.985 . S
N1143 C1145 1.356 . S
N1143 H1148 0.984 . S
N1143 H1149 0.985 . S
C1144 C1138 1.379 . S
C1144 C1141 1.363 . S
C1144 N1142 1.356 . S
C1145 C1139 1.363 . S
C1145 C1140 1.379 . S
C1145 N1143 1.356 . S
N1146 C1138 1.356 1_455 S
N1146 H1152 0.984 . S
N1146 H1153 0.984 . S
N1147 C1140 1.356 . S
N1147 H1150 0.984 . S
N1147 H1151 0.985 . S
H1148 N1143 0.984 . S
H1149 N1143 0.985 . S
H1150 N1147 0.984 . S
H1151 N1147 0.985 . S
H1152 N1146 0.984 . S
H1153 N1146 0.984 . S
H1154 N1142 0.984 . S
H1155 N1142 0.985 . S
C1156 C1157 1.363 . S
C1156 C1162 1.379 . S
C1156 N1164 1.356 . S
C1157 C1156 1.363 . S
C1157 C1163 1.363 . S
C1158 C1159 1.363 . S
C1158 C1163 1.379 . S
C1158 N1165 1.356 . S
C1159 C1158 1.363 . S
C1159 C1162 1.363 . S
N1160 C1162 1.356 . S
N1160 H1172 0.984 . S
N1160 H1173 0.985 . S
N1161 C1163 1.356 . S
N1161 H1166 0.984 . S
N1161 H1167 0.985 . S
C1162 C1156 1.379 . S
C1162 C1159 1.363 . S
C1162 N1160 1.356 . S
C1163 C1157 1.363 . S
C1163 C1158 1.379 . S
C1163 N1161 1.356 . S
N1164 C1156 1.356 . S
N1164 H1170 0.984 . S
N1164 H1171 0.984 . S
N1165 C1158 1.356 . S
N1165 H1168 0.984 . S
N1165 H1169 0.985 . S
H1166 N1161 0.984 . S
H1167 N1161 0.985 . S
H1168 N1165 0.984 . S
H1169 N1165 0.985 . S
H1170 N1164 0.984 . S
H1171 N1164 0.984 . S
H1172 N1160 0.984 . S
H1173 N1160 0.985 . S
C1174 C1175 1.363 . S
C1174 C1180 1.379 . S
C1174 N1182 1.356 . S
C1175 C1174 1.363 . S
C1175 C1181 1.363 . S
C1176 C1177 1.363 . S
C1176 C1181 1.379 . S
C1176 N1183 1.356 . S
C1177 C1176 1.363 . S
C1177 C1180 1.363 . S
N1178 C1180 1.356 1_455 S
N1178 H1190 0.984 . S
N1178 H1191 0.985 . S
N1179 C1181 1.356 . S
N1179 H1184 0.984 . S
N1179 H1185 0.985 . S
C1180 C1174 1.379 . S
C1180 C1177 1.363 . S
C1180 N1178 1.356 1_655 S
C1181 C1175 1.363 . S
C1181 C1176 1.379 . S
C1181 N1179 1.356 . S
N1182 C1174 1.356 . S
N1182 H1188 0.984 . S
N1182 H1189 0.984 . S
N1183 C1176 1.356 . S
N1183 H1186 0.984 . S
N1183 H1187 0.985 . S
H1184 N1179 0.984 . S
H1185 N1179 0.985 . S
H1186 N1183 0.984 . S
H1187 N1183 0.985 . S
H1188 N1182 0.984 . S
H1189 N1182 0.984 . S
H1190 N1178 0.984 . S
H1191 N1178 0.985 . S
C1192 C1193 1.363 . S
C1192 C1198 1.379 . S
C1192 N1200 1.356 . S
C1193 C1192 1.363 . S
C1193 C1199 1.363 . S
C1194 C1195 1.363 . S
C1194 C1199 1.379 . S
C1194 N1201 1.356 . S
C1195 C1194 1.363 . S
C1195 C1198 1.363 . S
N1196 C1198 1.356 . S
N1196 H1208 0.984 . S
N1196 H1209 0.985 . S
N1197 C1199 1.356 . S
N1197 H1202 0.984 . S
N1197 H1203 0.985 . S
C1198 C1192 1.379 . S
C1198 C1195 1.363 . S
C1198 N1196 1.356 . S
C1199 C1193 1.363 . S
C1199 C1194 1.379 . S
C1199 N1197 1.356 . S
N1200 C1192 1.356 . S
N1200 H1206 0.984 . S
N1200 H1207 0.984 . S
N1201 C1194 1.356 . S
N1201 H1204 0.984 . S
N1201 H1205 0.985 . S
H1202 N1197 0.984 . S
H1203 N1197 0.985 . S
H1204 N1201 0.984 . S
H1205 N1201 0.985 . S
H1206 N1200 0.984 . S
H1207 N1200 0.984 . S
H1208 N1196 0.984 . S
H1209 N1196 0.985 . S
C1210 C1211 1.363 . S
C1210 C1216 1.379 . S
C1210 N1218 1.356 1_455 S
C1211 C1210 1.363 . S
C1211 C1217 1.363 . S
C1212 C1213 1.363 . S
C1212 C1217 1.379 . S
C1212 N1219 1.356 . S
C1213 C1212 1.363 . S
C1213 C1216 1.363 . S
N1214 C1216 1.356 . S
N1214 H1226 0.984 . S
N1214 H1227 0.985 . S
N1215 C1217 1.356 . S
N1215 H1220 0.984 . S
N1215 H1221 0.985 . S
C1216 C1210 1.379 . S
C1216 C1213 1.363 . S
C1216 N1214 1.356 . S
C1217 C1211 1.363 . S
C1217 C1212 1.379 . S
C1217 N1215 1.356 . S
N1218 C1210 1.356 1_655 S
N1218 H1224 0.984 . S
N1218 H1225 0.984 . S
N1219 C1212 1.356 . S
N1219 H1222 0.984 . S
N1219 H1223 0.985 . S
H1220 N1215 0.984 . S
H1221 N1215 0.985 . S
H1222 N1219 0.984 . S
H1223 N1219 0.985 . S
H1224 N1218 0.984 . S
H1225 N1218 0.984 . S
H1226 N1214 0.984 . S
H1227 N1214 0.985 . S
C1228 C1229 1.363 . S
C1228 C1234 1.379 . S
C1228 N1236 1.356 . S
C1229 C1228 1.363 . S
C1229 C1235 1.363 . S
C1230 C1231 1.363 . S
C1230 C1235 1.379 . S
C1230 N1237 1.356 . S
C1231 C1230 1.363 . S
C1231 C1234 1.363 . S
N1232 C1234 1.356 . S
N1232 H1244 0.984 . S
N1232 H1245 0.985 . S
N1233 C1235 1.356 . S
N1233 H1238 0.984 . S
N1233 H1239 0.985 . S
C1234 C1228 1.379 . S
C1234 C1231 1.363 . S
C1234 N1232 1.356 . S
C1235 C1229 1.363 . S
C1235 C1230 1.379 . S
C1235 N1233 1.356 . S
N1236 C1228 1.356 . S
N1236 H1242 0.984 . S
N1236 H1243 0.984 . S
N1237 C1230 1.356 . S
N1237 H1240 0.984 . S
N1237 H1241 0.985 . S
H1238 N1233 0.984 . S
H1239 N1233 0.985 . S
H1240 N1237 0.984 . S
H1241 N1237 0.985 . S
H1242 N1236 0.984 . S
H1243 N1236 0.984 . S
H1244 N1232 0.984 . S
H1245 N1232 0.985 . S
C1246 C1247 1.363 . S
C1246 C1252 1.379 . S
C1246 N1254 1.356 . S
C1247 C1246 1.363 . S
C1247 C1253 1.363 . S
C1248 C1249 1.363 . S
C1248 C1253 1.379 . S
C1248 N1255 1.356 . S
C1249 C1248 1.363 . S
C1249 C1252 1.363 . S
N1250 C1252 1.356 . S
N1250 H1262 0.984 . S
N1250 H1263 0.985 . S
N1251 C1253 1.356 1_655 S
N1251 H1256 0.984 . S
N1251 H1257 0.985 . S
C1252 C1246 1.379 . S
C1252 C1249 1.363 . S
C1252 N1250 1.356 . S
C1253 C1247 1.363 . S
C1253 C1248 1.379 . S
C1253 N1251 1.356 1_455 S
N1254 C1246 1.356 . S
N1254 H1260 0.984 . S
N1254 H1261 0.984 . S
N1255 C1248 1.356 . S
N1255 H1258 0.984 . S
N1255 H1259 0.985 . S
H1256 N1251 0.984 . S
H1257 N1251 0.985 . S
H1258 N1255 0.984 . S
H1259 N1255 0.985 . S
H1260 N1254 0.984 . S
H1261 N1254 0.984 . S
H1262 N1250 0.984 . S
H1263 N1250 0.985 . S
C1264 C1265 1.363 . S
C1264 C1270 1.379 . S
C1264 N1272 1.356 . S
C1265 C1264 1.363 . S
C1265 C1271 1.363 . S
C1266 C1267 1.363 . S
C1266 C1271 1.379 . S
C1266 N1273 1.356 . S
C1267 C1266 1.363 . S
C1267 C1270 1.363 . S
N1268 C1270 1.356 . S
N1268 H1280 0.984 . S
N1268 H1281 0.985 . S
N1269 C1271 1.356 . S
N1269 H1274 0.984 . S
N1269 H1275 0.985 . S
C1270 C1264 1.379 . S
C1270 C1267 1.363 . S
C1270 N1268 1.356 . S
C1271 C1265 1.363 . S
C1271 C1266 1.379 . S
C1271 N1269 1.356 . S
N1272 C1264 1.356 . S
N1272 H1278 0.984 . S
N1272 H1279 0.984 . S
N1273 C1266 1.356 . S
N1273 H1276 0.984 . S
N1273 H1277 0.985 . S
H1274 N1269 0.984 . S
H1275 N1269 0.985 . S
H1276 N1273 0.984 . S
H1277 N1273 0.985 . S
H1278 N1272 0.984 . S
H1279 N1272 0.984 . S
H1280 N1268 0.984 . S
H1281 N1268 0.985 . S
C1282 C1283 1.363 . S
C1282 C1288 1.379 . S
C1282 N1290 1.356 . S
C1283 C1282 1.363 . S
C1283 C1289 1.363 . S
C1284 C1285 1.363 . S
C1284 C1289 1.379 . S
C1284 N1291 1.356 . S
C1285 C1284 1.363 . S
C1285 C1288 1.363 . S
N1286 C1288 1.356 . S
N1286 H1298 0.984 . S
N1286 H1299 0.985 . S
N1287 C1289 1.356 . S
N1287 H1292 0.984 . S
N1287 H1293 0.985 . S
C1288 C1282 1.379 . S
C1288 C1285 1.363 . S
C1288 N1286 1.356 . S
C1289 C1283 1.363 . S
C1289 C1284 1.379 . S
C1289 N1287 1.356 . S
N1290 C1282 1.356 . S
N1290 H1296 0.984 . S
N1290 H1297 0.984 . S
N1291 C1284 1.356 . S
N1291 H1294 0.984 . S
N1291 H1295 0.985 . S
H1292 N1287 0.984 . S
H1293 N1287 0.985 . S
H1294 N1291 0.984 . S
H1295 N1291 0.985 . S
H1296 N1290 0.984 . S
H1297 N1290 0.984 . S
H1298 N1286 0.984 . S
H1299 N1286 0.985 . S
C1300 C1301 1.363 . S
C1300 C1306 1.379 . S
C1300 N1308 1.356 . S
C1301 C1300 1.363 . S
C1301 C1307 1.363 . S
C1302 C1303 1.363 . S
C1302 C1307 1.379 . S
C1302 N1309 1.356 . S
C1303 C1302 1.363 . S
C1303 C1306 1.363 . S
N1304 C1306 1.356 . S
N1304 H1316 0.984 . S
N1304 H1317 0.985 . S
N1305 C1307 1.356 . S
N1305 H1310 0.984 . S
N1305 H1311 0.985 . S
C1306 C1300 1.379 . S
C1306 C1303 1.363 . S
C1306 N1304 1.356 . S
C1307 C1301 1.363 . S
C1307 C1302 1.379 . S
C1307 N1305 1.356 . S
N1308 C1300 1.356 . S
N1308 H1314 0.984 . S
N1308 H1315 0.984 . S
N1309 C1302 1.356 . S
N1309 H1312 0.984 . S
N1309 H1313 0.985 . S
H1310 N1305 0.984 . S
H1311 N1305 0.985 . S
H1312 N1309 0.984 . S
H1313 N1309 0.985 . S
H1314 N1308 0.984 . S
H1315 N1308 0.984 . S
H1316 N1304 0.984 . S
H1317 N1304 0.985 . S
C1318 C1319 1.363 . S
C1318 C1324 1.379 . S
C1318 N1326 1.356 . S
C1319 C1318 1.363 . S
C1319 C1325 1.363 . S
C1320 C1321 1.363 . S
C1320 C1325 1.379 . S
C1320 N1327 1.356 . S
C1321 C1320 1.363 . S
C1321 C1324 1.363 . S
N1322 C1324 1.356 . S
N1322 H1334 0.984 . S
N1322 H1335 0.985 . S
N1323 C1325 1.356 . S
N1323 H1328 0.984 . S
N1323 H1329 0.985 . S
C1324 C1318 1.379 . S
C1324 C1321 1.363 . S
C1324 N1322 1.356 . S
C1325 C1319 1.363 . S
C1325 C1320 1.379 . S
C1325 N1323 1.356 . S
N1326 C1318 1.356 . S
N1326 H1332 0.984 . S
N1326 H1333 0.984 . S
N1327 C1320 1.356 . S
N1327 H1330 0.984 . S
N1327 H1331 0.985 . S
H1328 N1323 0.984 . S
H1329 N1323 0.985 . S
H1330 N1327 0.984 . S
H1331 N1327 0.985 . S
H1332 N1326 0.984 . S
H1333 N1326 0.984 . S
H1334 N1322 0.984 . S
H1335 N1322 0.985 . S
C1336 C1337 1.359 1_554 S
C1336 C1342 1.379 . S
C1336 N1344 1.356 . S
C1337 C1336 1.359 1_556 S
C1337 C1343 1.368 . S
C1338 C1339 1.368 . S
C1338 C1343 1.379 . S
C1338 N1345 1.356 . S
C1339 C1338 1.368 . S
C1339 C1342 1.358 1_556 S
N1340 C1342 1.356 . S
N1340 H1352 0.984 . S
N1340 H1353 0.985 . S
N1341 C1343 1.356 . S
N1341 H1346 0.984 . S
N1341 H1347 0.985 . S
C1342 C1336 1.379 . S
C1342 C1339 1.358 1_554 S
C1342 N1340 1.356 . S
C1343 C1337 1.368 . S
C1343 C1338 1.379 . S
C1343 N1341 1.356 . S
N1344 C1336 1.356 . S
N1344 H1350 0.984 . S
N1344 H1351 0.984 . S
N1345 C1338 1.356 . S
N1345 H1348 0.984 . S
N1345 H1349 0.985 . S
H1346 N1341 0.984 . S
H1347 N1341 0.985 . S
H1348 N1345 0.984 . S
H1349 N1345 0.985 . S
H1350 N1344 0.984 . S
H1351 N1344 0.984 . S
H1352 N1340 0.984 . S
H1353 N1340 0.985 . S
C1354 C1355 1.363 . S
C1354 C1360 1.379 . S
C1354 N1362 1.356 . S
C1355 C1354 1.363 . S
C1355 C1361 1.363 . S
C1356 C1357 1.363 . S
C1356 C1361 1.379 . S
C1356 N1363 1.356 . S
C1357 C1356 1.363 . S
C1357 C1360 1.363 . S
N1358 C1360 1.356 . S
N1358 H1370 0.984 . S
N1358 H1371 0.985 . S
N1359 C1361 1.356 . S
N1359 H1364 0.984 . S
N1359 H1365 0.985 . S
C1360 C1354 1.379 . S
C1360 C1357 1.363 . S
C1360 N1358 1.356 . S
C1361 C1355 1.363 . S
C1361 C1356 1.379 . S
C1361 N1359 1.356 . S
N1362 C1354 1.356 . S
N1362 H1368 0.984 . S
N1362 H1369 0.984 . S
N1363 C1356 1.356 . S
N1363 H1366 0.984 . S
N1363 H1367 0.985 . S
H1364 N1359 0.984 . S
H1365 N1359 0.985 . S
H1366 N1363 0.984 . S
H1367 N1363 0.985 . S
H1368 N1362 0.984 . S
H1369 N1362 0.984 . S
H1370 N1358 0.984 . S
H1371 N1358 0.985 . S
C1372 C1373 1.368 . S
C1372 C1378 1.379 . S
C1372 N1380 1.356 . S
C1373 C1372 1.368 . S
C1373 C1379 1.358 1_554 S
C1374 C1375 1.359 1_556 S
C1374 C1379 1.379 . S
C1374 N1381 1.356 . S
C1375 C1374 1.359 1_554 S
C1375 C1378 1.368 . S
N1376 C1378 1.356 . S
N1376 H1388 0.984 . S
N1376 H1389 0.985 . S
N1377 C1379 1.356 . S
N1377 H1382 0.984 . S
N1377 H1383 0.985 . S
C1378 C1372 1.379 . S
C1378 C1375 1.368 . S
C1378 N1376 1.356 . S
C1379 C1373 1.358 1_556 S
C1379 C1374 1.379 . S
C1379 N1377 1.356 . S
N1380 C1372 1.356 . S
N1380 H1386 0.984 . S
N1380 H1387 0.984 . S
N1381 C1374 1.356 . S
N1381 H1384 0.984 . S
N1381 H1385 0.985 . S
H1382 N1377 0.984 . S
H1383 N1377 0.985 . S
H1384 N1381 0.984 . S
H1385 N1381 0.985 . S
H1386 N1380 0.984 . S
H1387 N1380 0.984 . S
H1388 N1376 0.984 . S
H1389 N1376 0.985 . S
C1390 C1391 1.363 . S
C1390 C1396 1.379 . S
C1390 N1398 1.356 . S
C1391 C1390 1.363 . S
C1391 C1397 1.363 . S
C1392 C1393 1.363 . S
C1392 C1397 1.379 . S
C1392 N1399 1.356 . S
C1393 C1392 1.363 . S
C1393 C1396 1.363 . S
N1394 C1396 1.356 . S
N1394 H1406 0.984 . S
N1394 H1407 0.985 . S
N1395 C1397 1.356 . S
N1395 H1400 0.984 . S
N1395 H1401 0.985 . S
C1396 C1390 1.379 . S
C1396 C1393 1.363 . S
C1396 N1394 1.356 . S
C1397 C1391 1.363 . S
C1397 C1392 1.379 . S
C1397 N1395 1.356 . S
N1398 C1390 1.356 . S
N1398 H1404 0.984 . S
N1398 H1405 0.984 . S
N1399 C1392 1.356 . S
N1399 H1402 0.984 . S
N1399 H1403 0.985 . S
H1400 N1395 0.984 . S
H1401 N1395 0.985 . S
H1402 N1399 0.984 . S
H1403 N1399 0.985 . S
H1404 N1398 0.984 . S
H1405 N1398 0.984 . S
H1406 N1394 0.984 . S
H1407 N1394 0.985 . S
C1408 C1409 1.368 . S
C1408 C1414 1.379 . S
C1408 N1416 1.356 . S
C1409 C1408 1.368 . S
C1409 C1415 1.358 1_556 S
C1410 C1411 1.359 1_554 S
C1410 C1415 1.379 . S
C1410 N1417 1.356 . S
C1411 C1410 1.359 1_556 S
C1411 C1414 1.368 . S
N1412 C1414 1.356 . S
N1412 H1424 0.984 . S
N1412 H1425 0.985 . S
N1413 C1415 1.356 . S
N1413 H1418 0.984 1_455 S
N1413 H1419 0.985 . S
C1414 C1408 1.379 . S
C1414 C1411 1.368 . S
C1414 N1412 1.356 . S
C1415 C1409 1.358 1_554 S
C1415 C1410 1.379 . S
C1415 N1413 1.356 . S
N1416 C1408 1.356 . S
N1416 H1422 0.984 . S
N1416 H1423 0.984 1_455 S
N1417 C1410 1.356 . S
N1417 H1420 0.984 . S
N1417 H1421 0.985 . S
H1418 N1413 0.984 1_655 S
H1419 N1413 0.985 . S
H1420 N1417 0.984 . S
H1421 N1417 0.985 . S
H1422 N1416 0.984 . S
H1423 N1416 0.984 1_655 S
H1424 N1412 0.984 . S
H1425 N1412 0.985 . S
C1426 C1427 1.363 . S
C1426 C1432 1.379 . S
C1426 N1434 1.356 . S
C1427 C1426 1.363 . S
C1427 C1433 1.363 . S
C1428 C1429 1.363 . S
C1428 C1433 1.379 . S
C1428 N1435 1.356 . S
C1429 C1428 1.363 . S
C1429 C1432 1.363 . S
N1430 C1432 1.356 . S
N1430 H1442 0.984 . S
N1430 H1443 0.985 . S
N1431 C1433 1.356 . S
N1431 H1436 0.984 1_455 S
N1431 H1437 0.985 . S
C1432 C1426 1.379 . S
C1432 C1429 1.363 . S
C1432 N1430 1.356 . S
C1433 C1427 1.363 . S
C1433 C1428 1.379 . S
C1433 N1431 1.356 . S
N1434 C1426 1.356 . S
N1434 H1440 0.984 . S
N1434 H1441 0.984 1_455 S
N1435 C1428 1.356 . S
N1435 H1438 0.984 . S
N1435 H1439 0.985 . S
H1436 N1431 0.984 1_655 S
H1437 N1431 0.985 . S
H1438 N1435 0.984 . S
H1439 N1435 0.985 . S
H1440 N1434 0.984 . S
H1441 N1434 0.984 1_655 S
H1442 N1430 0.984 . S
H1443 N1430 0.985 . S
C1444 C1445 1.359 1_556 S
C1444 C1450 1.379 . S
C1444 N1452 1.356 . S
C1445 C1444 1.359 1_554 S
C1445 C1451 1.368 . S
C1446 C1447 1.368 . S
C1446 C1451 1.379 . S
C1446 N1453 1.356 . S
C1447 C1446 1.368 . S
C1447 C1450 1.358 1_554 S
N1448 C1450 1.356 . S
N1448 H1460 0.984 . S
N1448 H1461 0.985 1_655 S
N1449 C1451 1.356 . S
N1449 H1454 0.984 . S
N1449 H1455 0.985 . S
C1450 C1444 1.379 . S
C1450 C1447 1.358 1_556 S
C1450 N1448 1.356 . S
C1451 C1445 1.368 . S
C1451 C1446 1.379 . S
C1451 N1449 1.356 . S
N1452 C1444 1.356 . S
N1452 H1458 0.984 . S
N1452 H1459 0.984 . S
N1453 C1446 1.356 . S
N1453 H1456 0.984 1_655 S
N1453 H1457 0.985 . S
H1454 N1449 0.984 . S
H1455 N1449 0.985 . S
H1456 N1453 0.984 1_455 S
H1457 N1453 0.985 . S
H1458 N1452 0.984 . S
H1459 N1452 0.984 . S
H1460 N1448 0.984 . S
H1461 N1448 0.985 1_455 S
C1462 C1463 1.363 . S
C1462 C1468 1.379 . S
C1462 N1470 1.356 . S
C1463 C1462 1.363 . S
C1463 C1469 1.363 . S
C1464 C1465 1.363 . S
C1464 C1469 1.379 . S
C1464 N1471 1.356 . S
C1465 C1464 1.363 . S
C1465 C1468 1.363 . S
N1466 C1468 1.356 . S
N1466 H1478 0.984 . S
N1466 H1479 0.985 . S
N1467 C1469 1.356 . S
N1467 H1472 0.984 1_655 S
N1467 H1473 0.985 . S
C1468 C1462 1.379 . S
C1468 C1465 1.363 . S
C1468 N1466 1.356 . S
C1469 C1463 1.363 . S
C1469 C1464 1.379 . S
C1469 N1467 1.356 . S
N1470 C1462 1.356 . S
N1470 H1476 0.984 . S
N1470 H1477 0.984 1_655 S
N1471 C1464 1.356 . S
N1471 H1474 0.984 . S
N1471 H1475 0.985 . S
H1472 N1467 0.984 1_455 S
H1473 N1467 0.985 . S
H1474 N1471 0.984 . S
H1475 N1471 0.985 . S
H1476 N1470 0.984 . S
H1477 N1470 0.984 1_455 S
H1478 N1466 0.984 . S
H1479 N1466 0.985 . S
C1480 C1481 1.363 . S
C1480 C1486 1.379 . S
C1480 N1488 1.356 . S
C1481 C1480 1.363 . S
C1481 C1487 1.363 . S
C1482 C1483 1.363 . S
C1482 C1487 1.379 . S
C1482 N1489 1.356 . S
C1483 C1482 1.363 . S
C1483 C1486 1.363 . S
N1484 C1486 1.356 . S
N1484 H1496 0.984 . S
N1484 H1497 0.985 . S
N1485 C1487 1.356 . S
N1485 H1490 0.984 1_455 S
N1485 H1491 0.985 . S
C1486 C1480 1.379 . S
C1486 C1483 1.363 . S
C1486 N1484 1.356 . S
C1487 C1481 1.363 . S
C1487 C1482 1.379 . S
C1487 N1485 1.356 . S
N1488 C1480 1.356 . S
N1488 H1494 0.984 . S
N1488 H1495 0.984 1_455 S
N1489 C1482 1.356 . S
N1489 H1492 0.984 . S
N1489 H1493 0.985 . S
H1490 N1485 0.984 1_655 S
H1491 N1485 0.985 . S
H1492 N1489 0.984 . S
H1493 N1489 0.985 . S
H1494 N1488 0.984 . S
H1495 N1488 0.984 1_655 S
H1496 N1484 0.984 . S
H1497 N1484 0.985 . S
C1498 C1499 1.363 . S
C1498 C1504 1.379 . S
C1498 N1506 1.356 . S
C1499 C1498 1.363 . S
C1499 C1505 1.363 . S
C1500 C1501 1.363 . S
C1500 C1505 1.379 . S
C1500 N1507 1.356 . S
C1501 C1500 1.363 . S
C1501 C1504 1.363 . S
N1502 C1504 1.356 . S
N1502 H1514 0.984 . S
N1502 H1515 0.985 . S
N1503 C1505 1.356 . S
N1503 H1508 0.984 1_455 S
N1503 H1509 0.985 . S
C1504 C1498 1.379 . S
C1504 C1501 1.363 . S
C1504 N1502 1.356 . S
C1505 C1499 1.363 . S
C1505 C1500 1.379 . S
C1505 N1503 1.356 . S
N1506 C1498 1.356 . S
N1506 H1512 0.984 . S
N1506 H1513 0.984 1_455 S
N1507 C1500 1.356 . S
N1507 H1510 0.984 . S
N1507 H1511 0.985 . S
H1508 N1503 0.984 1_655 S
H1509 N1503 0.985 . S
H1510 N1507 0.984 . S
H1511 N1507 0.985 . S
H1512 N1506 0.984 . S
H1513 N1506 0.984 1_655 S
H1514 N1502 0.984 . S
H1515 N1502 0.985 . S
C1516 C1517 1.363 . S
C1516 C1522 1.379 . S
C1516 N1524 1.356 . S
C1517 C1516 1.363 . S
C1517 C1523 1.363 . S
C1518 C1519 1.363 . S
C1518 C1523 1.379 . S
C1518 N1525 1.356 . S
C1519 C1518 1.363 . S
C1519 C1522 1.363 . S
N1520 C1522 1.356 . S
N1520 H1532 0.984 . S
N1520 H1533 0.985 . S
N1521 C1523 1.356 . S
N1521 H1526 0.984 1_655 S
N1521 H1527 0.985 . S
C1522 C1516 1.379 . S
C1522 C1519 1.363 . S
C1522 N1520 1.356 . S
C1523 C1517 1.363 . S
C1523 C1518 1.379 . S
C1523 N1521 1.356 . S
N1524 C1516 1.356 . S
N1524 H1530 0.984 . S
N1524 H1531 0.984 1_655 S
N1525 C1518 1.356 . S
N1525 H1528 0.984 . S
N1525 H1529 0.985 . S
H1526 N1521 0.984 1_455 S
H1527 N1521 0.985 . S
H1528 N1525 0.984 . S
H1529 N1525 0.985 . S
H1530 N1524 0.984 . S
H1531 N1524 0.984 1_455 S
H1532 N1520 0.984 . S
H1533 N1520 0.985 . S
C1534 C1535 1.363 . S
C1534 C1540 1.379 . S
C1534 N1542 1.356 . S
C1535 C1534 1.363 . S
C1535 C1541 1.363 . S
C1536 C1537 1.363 . S
C1536 C1541 1.379 . S
C1536 N1543 1.356 . S
C1537 C1536 1.363 . S
C1537 C1540 1.363 . S
N1538 C1540 1.356 . S
N1538 H1550 0.984 . S
N1538 H1551 0.985 . S
N1539 C1541 1.356 . S
N1539 H1544 0.984 1_655 S
N1539 H1545 0.985 . S
C1540 C1534 1.379 . S
C1540 C1537 1.363 . S
C1540 N1538 1.356 . S
C1541 C1535 1.363 . S
C1541 C1536 1.379 . S
C1541 N1539 1.356 . S
N1542 C1534 1.356 . S
N1542 H1548 0.984 . S
N1542 H1549 0.984 1_655 S
N1543 C1536 1.356 . S
N1543 H1546 0.984 . S
N1543 H1547 0.985 . S
H1544 N1539 0.984 1_455 S
H1545 N1539 0.985 . S
H1546 N1543 0.984 . S
H1547 N1543 0.985 . S
H1548 N1542 0.984 . S
H1549 N1542 0.984 1_455 S
H1550 N1538 0.984 . S
H1551 N1538 0.985 . S
C545 C498 1.603 . S
C547 C22 1.603 . S
C563 C83 1.603 . S
C565 C15 1.603 . S
C581 C56 1.603 . S
C583 C389 1.603 . S
C599 C49 1.603 . S
C601 C260 1.603 . S
C617 C90 1.603 . S
C619 C430 1.603 . S
C635 C117 1.603 . S
C637 C321 1.603 . S
C653 C124 1.603 . S
C655 C185 1.603 . S
C671 C151 1.603 . S
C673 C362 1.603 . S
C689 C158 1.603 . S
C691 C226 1.603 . S
C707 C192 1.603 . S
C709 C525 1.603 . S
C725 C219 1.603 . S
C727 C287 1.603 . S
C743 C464 1.603 . S
C745 C253 1.603 . S
C761 C294 1.603 . S
C763 C355 1.603 . S
C779 C328 1.603 . S
C781 C532 1.603 . S
C797 C396 1.603 . S
C799 C457 1.603 . S
C815 C423 1.603 . S
C817 C491 1.603 . S
C833 C17 1.786 . S
C835 C51 1.786 . S
C851 C119 1.786 . S
C853 C85 1.786 . S
C869 C153 1.786 . S
C871 C187 1.786 . S
C887 C221 1.786 . S
C889 C255 1.786 . S
C905 C289 1.786 . S
C907 C323 1.786 . S
C923 C357 1.786 . S
C925 C391 1.786 . S
C941 C425 1.786 . S
C943 C459 1.786 . S
C959 C527 1.786 . S
C961 C493 1.786 . S
C977 C307 1.811 . S
C979 C1 1.811 . S
C995 C3 1.811 1_655 S
C997 C309 1.811 . S
C1013 C35 1.811 . S
C1015 C273 1.811 . S
C1031 C37 1.811 1_655 S
C1033 C275 1.811 . S
C1049 C375 1.811 . S
C1051 C69 1.811 . S
C1067 C377 1.811 . S
C1069 C71 1.811 1_455 S
C1085 C343 1.811 . S
C1087 C105 1.811 . S
C1103 C341 1.811 . S
C1105 C103 1.811 1_455 S
C1121 C139 1.811 . S
C1123 C445 1.811 . S
C1139 C137 1.811 1_655 S
C1141 C443 1.811 . S
C1157 C411 1.811 . S
C1159 C171 1.811 . S
C1175 C409 1.811 . S
C1177 C173 1.811 1_655 S
C1193 C511 1.811 . S
C1195 C207 1.811 . S
C1211 C205 1.811 1_455 S
C1213 C513 1.811 . S
C1229 C241 1.811 . S
C1231 C479 1.811 . S
C1247 C239 1.811 1_455 S
C1249 C477 1.811 . S
C1265 C6 1.525 . S
C1267 C28 1.525 . S
C1283 C40 1.525 . S
C1285 C62 1.525 . S
C1301 C74 1.525 . S
C1303 C96 1.525 . S
C1319 C130 1.525 . S
C1321 C108 1.525 . S
C1337 C142 1.526 . S
C1339 C164 1.526 . S
C1355 C176 1.525 . S
C1357 C198 1.525 . S
C1373 C210 1.526 . S
C1375 C232 1.526 . S
C1391 C266 1.525 . S
C1393 C244 1.525 . S
C1409 C300 1.526 1_455 S
C1411 C278 1.526 . S
C1427 C334 1.525 1_455 S
C1429 C312 1.525 . S
C1445 C368 1.526 . S
C1447 C346 1.526 1_655 S
C1463 C402 1.525 1_655 S
C1465 C380 1.525 . S
C1481 C414 1.525 1_455 S
C1483 C436 1.525 . S
C1499 C448 1.525 1_455 S
C1501 C470 1.525 . S
C1517 C482 1.525 1_655 S
C1519 C504 1.525 . S
C1535 C538 1.525 1_655 S
C1537 C516 1.525 . S
