# Generated by pormake.
# Topology ukg, (4)-cn, num edge types: 1
# Building blocks:
#     Node 0, Type 0, BuildingBlock: QUQFOY_clean_sbu_1, # of connection points: 4
#     Node 1, Type 0, BuildingBlock: QUQFOY_clean_sbu_1, # of connection points: 4
#     Node 2, Type 0, BuildingBlock: QUQFOY_clean_sbu_1, # of connection points: 4
#     Node 3, Type 0, BuildingBlock: QUQFOY_clean_sbu_1, # of connection points: 4
#     Node 4, Type 0, BuildingBlock: QUQFOY_clean_sbu_1, # of connection points: 4
#     Node 5, Type 0, BuildingBlock: QUQFOY_clean_sbu_1, # of connection points: 4
#     Node 6, Type 0, BuildingBlock: QUQFOY_clean_sbu_1, # of connection points: 4
#     Node 7, Type 0, BuildingBlock: QUQFOY_clean_sbu_1, # of connection points: 4
#     Edge 8, Type (0, 0), BuildingBlock: AJUNOK_clean_linker_0, # of connection points: 2
#     Edge 9, Type (0, 0), BuildingBlock: AJUNOK_clean_linker_0, # of connection points: 2
#     Edge 10, Type (0, 0), BuildingBlock: AJUNOK_clean_linker_0, # of connection points: 2
#     Edge 11, Type (0, 0), BuildingBlock: AJUNOK_clean_linker_0, # of connection points: 2
#     Edge 12, Type (0, 0), BuildingBlock: AJUNOK_clean_linker_0, # of connection points: 2
#     Edge 13, Type (0, 0), BuildingBlock: AJUNOK_clean_linker_0, # of connection points: 2
#     Edge 14, Type (0, 0), BuildingBlock: AJUNOK_clean_linker_0, # of connection points: 2
#     Edge 15, Type (0, 0), BuildingBlock: AJUNOK_clean_linker_0, # of connection points: 2
#     Edge 16, Type (0, 0), BuildingBlock: AJUNOK_clean_linker_0, # of connection points: 2
#     Edge 17, Type (0, 0), BuildingBlock: AJUNOK_clean_linker_0, # of connection points: 2
#     Edge 18, Type (0, 0), BuildingBlock: AJUNOK_clean_linker_0, # of connection points: 2
#     Edge 19, Type (0, 0), BuildingBlock: AJUNOK_clean_linker_0, # of connection points: 2
#     Edge 20, Type (0, 0), BuildingBlock: AJUNOK_clean_linker_0, # of connection points: 2
#     Edge 21, Type (0, 0), BuildingBlock: AJUNOK_clean_linker_0, # of connection points: 2
#     Edge 22, Type (0, 0), BuildingBlock: AJUNOK_clean_linker_0, # of connection points: 2
#     Edge 23, Type (0, 0), BuildingBlock: AJUNOK_clean_linker_0, # of connection points: 2
# Relax obj value: 0.026
# Max RMSD: 0.115
# Mean RMSD: 0.115
data_MOF--net-ukg--node1-QUQFOY_clean_sbu_1--edge1-AJUNOK_clean_linker_0
_symmetry_space_group_name_H-M    P1
_symmetry_Int_Tables_number       1
_symmetry_cell_setting            triclinic
loop_
_symmetry_equiv_pos_as_xyz
'x, y, z'
_cell_length_a     24.269206
_cell_length_b     24.36419
_cell_length_c     26.354871
_cell_angle_alpha  89.991188
_cell_angle_beta   90.041691
_cell_angle_gamma 89.830218
loop_
_atom_site_label
_atom_site_type_symbol
_atom_site_fract_x
_atom_site_fract_y
_atom_site_fract_z
_atom_type_partial_charge
O0 O 0.94279 0.62618 0.24967 0.0
Cd1 Cd 0.97864 0.65665 0.18459 0.0
Cd2 Cd 0.05428 0.68683 0.25774 0.0
O3 O 0.01106 0.63491 0.30486 0.0
O4 O 0.94715 0.61307 0.12678 0.0
O5 O 0.0349 0.60952 0.14869 0.0
C6 C 0.99537 0.59167 0.12024 0.0
C7 C 0.14811 0.70394 0.26593 0.0
C8 C 0.96281 0.61885 0.29376 0.0
C9 C 0.9849 0.77482 0.20571 0.0
O10 O 0.01603 0.75904 0.2415 0.0
O11 O 0.96665 0.74053 0.17339 0.0
O12 O 0.11412 0.71518 0.30188 0.0
O13 O 0.12957 0.67801 0.22676 0.0
O14 O 0.39382 0.44588 0.76028 0.0
Cd15 Cd 0.35894 0.47315 0.69354 0.0
Cd16 Cd 0.31515 0.54811 0.7646 0.0
O17 O 0.36513 0.50781 0.81589 0.0
O18 O 0.40358 0.43619 0.63918 0.0
O19 O 0.40157 0.52596 0.64923 0.0
C20 C 0.42133 0.48378 0.62559 0.0
C21 C 0.29461 0.6411 0.772 0.0
C22 C 0.39224 0.4647 0.80525 0.0
C23 C 0.23772 0.46943 0.71097 0.0
O24 O 0.24658 0.50621 0.74389 0.0
O25 O 0.27683 0.45053 0.68386 0.0
O26 O 0.28075 0.60652 0.80653 0.0
O27 O 0.32393 0.62351 0.73447 0.0
O28 O 0.57249 0.87389 0.2519 0.0
Cd29 Cd 0.53525 0.84594 0.18652 0.0
Cd30 Cd 0.45792 0.82192 0.25855 0.0
O31 O 0.50097 0.87593 0.30389 0.0
O32 O 0.56998 0.88769 0.1293 0.0
O33 O 0.4823 0.89646 0.15006 0.0
C34 C 0.52327 0.91198 0.12219 0.0
C35 C 0.36391 0.80582 0.26602 0.0
C36 C 0.55121 0.88615 0.29448 0.0
C37 C 0.52368 0.72953 0.20944 0.0
O38 O 0.49504 0.74819 0.24577 0.0
O39 O 0.54216 0.76168 0.17544 0.0
O40 O 0.39719 0.79629 0.30299 0.0
O41 O 0.38324 0.82984 0.22616 0.0
O42 O 0.11239 0.05891 0.75697 0.0
Cd43 Cd 0.15147 0.02896 0.69319 0.0
Cd44 Cd 0.18384 0.95354 0.76715 0.0
O45 O 0.12937 0.99413 0.81381 0.0
O46 O 0.11213 0.0655 0.6353 0.0
O47 O 0.10931 0.97619 0.64862 0.0
C48 C 0.09273 0.0182 0.62272 0.0
C49 C 0.19986 0.85973 0.77261 0.0
C50 C 0.10676 0.03916 0.80132 0.0
C51 C 0.27051 0.02711 0.71969 0.0
O52 O 0.25582 0.99313 0.75343 0.0
O53 O 0.23563 0.04593 0.68795 0.0
O54 O 0.21095 0.89208 0.80978 0.0
O55 O 0.17547 0.88012 0.73328 0.0
O56 O 0.07247 0.36546 0.84822 0.0
Cd57 Cd 0.03155 0.34187 0.91323 0.0
Cd58 Cd 0.9555 0.32241 0.84054 0.0
O59 O 1.00188 0.37422 0.79575 0.0
O60 O 0.06638 0.38269 0.97103 0.0
O61 O 0.97995 0.39541 0.94754 0.0
C62 C 0.0206 0.4091 0.97666 0.0
C63 C 0.86091 0.30992 0.83225 0.0
C64 C 0.05292 0.37929 0.8053 0.0
C65 C 0.01656 0.22687 0.88977 0.0
O66 O 0.98984 0.24716 0.85288 0.0
O67 O 0.03403 0.25773 0.92521 0.0
O68 O 0.89405 0.29971 0.79537 0.0
O69 O 0.88088 0.33276 0.87246 0.0
O70 O 0.61878 0.56086 0.34109 0.0
Cd71 Cd 0.65554 0.52896 0.40527 0.0
Cd72 Cd 0.6892 0.45515 0.33221 0.0
O73 O 0.63535 0.49566 0.28457 0.0
O74 O 0.61298 0.5606 0.46367 0.0
O75 O 0.61369 0.4722 0.44537 0.0
C76 C 0.59486 0.51188 0.47302 0.0
C77 C 0.70699 0.36162 0.32924 0.0
C78 C 0.61358 0.54125 0.29665 0.0
C79 C 0.7747 0.52823 0.38173 0.0
O80 O 0.76066 0.49511 0.34704 0.0
O81 O 0.73927 0.54621 0.4133 0.0
O82 O 0.71784 0.39304 0.29129 0.0
O83 O 0.68081 0.38251 0.36732 0.0
O84 O 0.44165 0.12618 0.84979 0.0
Cd85 Cd 0.47727 0.15866 0.91416 0.0
Cd86 Cd 0.55065 0.19148 0.83899 0.0
O87 O 0.50687 0.13937 0.79232 0.0
O88 O 0.4466 0.11493 0.9722 0.0
O89 O 0.53442 0.11295 0.95058 0.0
C90 C 0.49518 0.09447 0.97897 0.0
C91 C 0.64425 0.2097 0.83071 0.0
C92 C 0.46013 0.12047 0.80496 0.0
C93 C 0.48076 0.2774 0.89319 0.0
O94 O 0.51181 0.26272 0.857 0.0
O95 O 0.46323 0.24235 0.92515 0.0
O96 O 0.60997 0.22117 0.79496 0.0
O97 O 0.62615 0.18281 0.86951 0.0
O98 O 0.89175 0.94416 0.33705 0.0
Cd99 Cd 0.8576 0.97671 0.4021 0.0
Cd100 Cd 0.82244 0.0509 0.32995 0.0
O101 O 0.87403 0.00948 0.2809 0.0
O102 O 0.90101 0.94419 0.45961 0.0
O103 O 0.90141 0.03262 0.44147 0.0
C104 C 0.92008 0.99257 0.46879 0.0
C105 C 0.80572 0.14455 0.32765 0.0
C106 C 0.89554 0.96358 0.29241 0.0
C107 C 0.73769 0.97931 0.38188 0.0
O108 O 0.75087 0.01207 0.34665 0.0
O109 O 0.77404 0.96056 0.41219 0.0
O110 O 0.79352 0.11349 0.28981 0.0
O111 O 0.83276 0.12324 0.36507 0.0
C112 C 0.96512 0.48349 1.01917 0.0
C113 C 0.01545 0.45512 1.01396 0.0
C114 C 0.95943 0.52786 0.0529 0.0
C115 C 1.00382 0.54614 0.08296 0.0
H116 H 0.92958 0.47143 0.99698 0.0
H117 H 0.91958 0.54779 0.05551 0.0
S118 S 0.14487 0.48643 0.08368 0.0
N119 N 0.11093 0.44904 1.0419 0.0
N120 N 0.1002 0.53213 0.10496 0.0
C121 C 0.05453 0.51834 0.078 0.0
C122 C 0.06032 0.473 1.04371 0.0
C123 C 0.48704 0.54157 0.57485 0.0
C124 C 0.46483 0.48959 0.58585 0.0
C125 C 0.52944 0.54806 0.53907 0.0
C126 C 0.55165 0.50289 0.51251 0.0
H127 H 0.4718 0.57776 0.59421 0.0
H128 H 0.54466 0.58911 0.53205 0.0
S129 S 0.5082 0.35767 0.52698 0.0
N130 N 0.46857 0.39181 0.56696 0.0
N131 N 0.5479 0.40409 0.4999 0.0
C132 C 0.52988 0.4506 0.5231 0.0
C133 C 0.48665 0.44396 0.55961 0.0
C134 C 0.46605 0.98393 0.07805 0.0
C135 C 0.51742 0.95792 0.0849 0.0
C136 C 0.45965 0.02837 1.04451 0.0
C137 C 0.50433 0.04907 1.01625 0.0
H138 H 0.43024 0.96994 0.09881 0.0
H139 H 0.41902 0.04638 1.04056 0.0
S140 S 0.64807 0.9964 1.02059 0.0
N141 N 0.61422 0.95686 0.06067 0.0
N142 N 0.60214 0.04008 0.99791 0.0
C143 C 0.55607 0.02369 1.0229 0.0
C144 C 0.5626 0.97829 0.05704 0.0
C145 C 0.98353 0.95568 0.53619 0.0
C146 C 0.96375 1.00084 0.50802 0.0
C147 C 0.02575 0.9615 0.57229 0.0
C148 C 0.05026 0.01277 0.58195 0.0
H149 H 0.96632 0.9152 0.5304 0.0
H150 H 0.03888 0.92542 0.5931 0.0
S151 S 0.01439 0.14417 0.51799 0.0
N152 N 0.97269 0.09873 0.49203 0.0
N153 N 0.05177 0.10974 0.55962 0.0
C154 C 0.03115 0.05831 0.55383 0.0
C155 C 0.98805 0.05235 0.51705 0.0
C156 C 0.23114 0.74014 0.22139 0.0
C157 C 0.20447 0.72675 0.2671 0.0
C158 C 0.28156 0.76812 0.22137 0.0
C159 C 0.30755 0.78297 0.26706 0.0
H160 H 0.21235 0.73012 0.18528 0.0
H161 H 0.30087 0.77702 0.18526 0.0
S162 S 0.25513 0.75668 0.39705 0.0
N163 N 0.20779 0.73037 0.35927 0.0
N164 N 0.30297 0.78195 0.35925 0.0
C165 C 0.2815 0.76945 0.31303 0.0
C166 C 0.22989 0.74158 0.31304 0.0
C167 C 0.26246 0.72585 0.72764 0.0
C168 C 0.27254 0.69761 0.77327 0.0
C169 C 0.23643 0.77731 0.72758 0.0
C170 C 0.2205 0.8027 0.77321 0.0
H171 H 0.27376 0.70764 0.69161 0.0
H172 H 0.23008 0.79792 0.69161 0.0
S173 S 0.23776 0.74596 0.90291 0.0
N174 N 0.26417 0.69858 0.86524 0.0
N175 N 0.2164 0.79576 0.86516 0.0
C176 C 0.23049 0.77497 0.81908 0.0
C177 C 0.25623 0.7223 0.8191 0.0
C178 C 0.72759 0.24474 0.87572 0.0
C179 C 0.70046 0.233 0.82981 0.0
C180 C 0.77821 0.27236 0.87627 0.0
C181 C 0.804 0.28847 0.83088 0.0
H182 H 0.70911 0.2335 0.91165 0.0
H183 H 0.79795 0.27975 0.9125 0.0
S184 S 0.75011 0.26747 0.70053 0.0
N185 N 0.7029 0.24013 0.73778 0.0
N186 N 0.79852 0.29094 0.73878 0.0
C187 C 0.77735 0.27694 0.78471 0.0
C188 C 0.7255 0.24947 0.78418 0.0
C189 C 0.74399 0.27939 0.28451 0.0
C190 C 0.72936 0.30515 0.33034 0.0
C191 C 0.7701 0.22812 0.28414 0.0
C192 C 0.78369 0.20108 0.32961 0.0
H193 H 0.73518 0.29898 0.24848 0.0
H194 H 0.77969 0.2095 0.24786 0.0
S195 S 0.75481 0.25105 0.45994 0.0
N196 N 0.73041 0.29977 0.42252 0.0
N197 N 0.78026 0.20355 0.42182 0.0
C198 C 0.76974 0.22647 0.37579 0.0
C199 C 0.74222 0.27837 0.37616 0.0
C200 C 0.87281 0.51656 0.3584 0.0
C201 C 0.83109 0.55051 0.37863 0.0
C202 C 0.91965 0.53895 0.33546 0.0
C203 C 0.92654 0.5959 0.33276 0.0
H204 H 0.86667 0.47259 0.35587 0.0
H205 H 0.94804 0.51184 0.31591 0.0
S206 S 0.83449 0.70222 0.38695 0.0
N207 N 0.80351 0.64361 0.40011 0.0
N208 N 0.89211 0.68566 0.35723 0.0
C209 C 0.88844 0.63002 0.35762 0.0
C210 C 0.84059 0.60726 0.38092 0.0
C211 C 0.47272 0.42137 0.8464 0.0
C212 C 0.41573 0.43042 0.84563 0.0
C213 C 0.49472 0.37452 0.86959 0.0
C214 C 0.46024 0.33449 0.89147 0.0
H215 H 0.49992 0.44794 0.82504 0.0
H216 H 0.53847 0.36666 0.86544 0.0
S217 S 0.30864 0.34381 0.90528 0.0
N218 N 0.32577 0.40018 0.87426 0.0
N219 N 0.36701 0.31097 0.9168 0.0
C220 C 0.40379 0.3463 0.89592 0.0
C221 C 0.38147 0.39455 0.87284 0.0
C222 C 0.62859 0.87624 0.35482 0.0
C223 C 0.58733 0.90963 0.33337 0.0
C224 C 0.67487 0.89942 0.37833 0.0
C225 C 0.68154 0.95664 0.37984 0.0
H226 H 0.62735 0.83215 0.34954 0.0
H227 H 0.70825 0.87253 0.38987 0.0
S228 S 0.58058 0.06117 0.33642 0.0
N229 N 0.55212 1.00187 0.32124 0.0
N230 N 0.63941 0.04586 0.36475 0.0
C231 C 0.63763 0.99012 0.3634 0.0
C232 C 0.5904 0.96646 0.34 0.0
C233 C 1.00101 0.13429 0.85412 0.0
C234 C 0.0334 0.16874 0.88502 0.0
C235 C 0.02357 0.08774 0.83102 0.0
C236 C 0.0787 0.07321 0.83926 0.0
H237 H 0.95955 0.14639 0.84354 0.0
H238 H 0.99915 0.06572 0.80328 0.0
S239 S 0.17788 0.14307 0.92413 0.0
N240 N 0.12117 0.18053 0.92814 0.0
N241 N 0.16309 0.09167 0.88561 0.0
C242 C 0.10948 0.10306 0.87493 0.0
C243 C 0.08677 0.15114 0.89796 0.0
C244 C 0.09087 0.45188 0.74885 0.0
C245 C 0.09166 0.39742 0.76596 0.0
C246 C 0.13667 0.47385 0.72358 0.0
C247 C 0.18401 0.44171 0.71418 0.0
H248 H 0.05716 0.47889 0.75919 0.0
H249 H 0.13719 0.51751 0.71575 0.0
S250 S 0.2014 0.29409 0.74395 0.0
N251 N 0.13977 0.30991 0.76624 0.0
N252 N 0.22534 0.35087 0.71786 0.0
C253 C 0.18225 0.38557 0.72585 0.0
C254 C 0.13617 0.36353 0.75233 0.0
C255 C 0.61932 0.61022 0.2279 0.0
C256 C 0.58668 0.57578 0.25833 0.0
C257 C 0.59685 0.65757 0.20541 0.0
C258 C 0.54126 0.6716 0.2132 0.0
H259 H 0.66342 0.60358 0.2257 0.0
H260 H 0.62437 0.68612 0.18679 0.0
S261 S 0.43685 0.58823 0.28091 0.0
N262 N 0.49514 0.55406 0.28868 0.0
N263 N 0.4523 0.6421 0.24568 0.0
C264 C 0.50712 0.63364 0.23828 0.0
C265 C 0.53008 0.58598 0.26136 0.0
C266 C 0.41473 0.0387 0.76905 0.0
C267 C 0.42362 0.09541 0.7672 0.0
C268 C 0.36759 0.01571 0.74719 0.0
C269 C 0.32719 0.04887 0.72372 0.0
H270 H 0.44197 0.01261 0.79106 0.0
H271 H 0.36031 0.97226 0.75281 0.0
S272 S 0.33572 0.19914 0.70353 0.0
N273 N 0.39243 0.18359 0.73523 0.0
N274 N 0.30296 0.14055 0.69466 0.0
C275 C 0.33853 0.10495 0.71722 0.0
C276 C 0.38693 0.12828 0.73922 0.0
C277 C 0.99906 0.87118 0.23216 0.0
C278 C 0.96493 0.8321 0.20838 0.0
C279 C 0.97689 0.91822 0.25484 0.0
C280 C 0.92011 0.92838 0.25332 0.0
H281 H 0.04248 0.86258 0.23785 0.0
H282 H 1.00359 0.94416 0.2774 0.0
S283 S 0.81432 0.84464 0.18834 0.0
N284 N 0.87251 0.81075 0.17895 0.0
N285 N 0.83101 0.9002 0.22078 0.0
C286 C 0.88645 0.89336 0.22457 0.0
C287 C 0.90893 0.84499 0.20187 0.0
loop_
_geom_bond_atom_site_label_1
_geom_bond_atom_site_label_2
_geom_bond_distance
_geom_bond_site_symmetry_2
_ccdc_geom_bond_type
O0 Cd1 2.223 . S
O0 C8 1.315 . S
Cd1 O0 2.223 . S
Cd1 O4 2.297 . S
Cd1 O5 2.439 1_655 S
Cd1 O11 2.240 . S
Cd2 O3 2.240 1_455 S
Cd2 O10 2.217 1_455 S
Cd2 O12 2.297 . S
Cd2 O13 2.439 . S
O3 Cd2 2.240 1_655 S
O3 C8 1.279 . S
O4 Cd1 2.297 . S
O4 C6 1.247 . S
O5 Cd1 2.439 1_455 S
O5 C6 1.208 1_455 S
C6 O4 1.247 . S
C6 O5 1.208 1_655 S
C7 O12 1.247 . S
C7 O13 1.208 . S
C8 O0 1.315 . S
C8 O3 1.279 . S
C9 O10 1.318 . S
C9 O11 1.279 . S
O10 Cd2 2.217 1_655 S
O10 C9 1.318 . S
O11 Cd1 2.240 . S
O11 C9 1.279 . S
O12 Cd2 2.297 . S
O12 C7 1.247 . S
O13 Cd2 2.439 . S
O13 C7 1.208 . S
O14 Cd15 2.223 . S
O14 C22 1.315 . S
Cd15 O14 2.223 . S
Cd15 O18 2.297 . S
Cd15 O19 2.439 . S
Cd15 O25 2.240 . S
Cd16 O17 2.240 . S
Cd16 O24 2.223 . S
Cd16 O26 2.297 . S
Cd16 O27 2.439 . S
O17 Cd16 2.240 . S
O17 C22 1.279 . S
O18 Cd15 2.297 . S
O18 C20 1.247 . S
O19 Cd15 2.439 . S
O19 C20 1.208 . S
C20 O18 1.247 . S
C20 O19 1.208 . S
C21 O26 1.247 . S
C21 O27 1.208 . S
C22 O14 1.315 . S
C22 O17 1.279 . S
C23 O24 1.315 . S
C23 O25 1.279 . S
O24 Cd16 2.223 . S
O24 C23 1.315 . S
O25 Cd15 2.240 . S
O25 C23 1.279 . S
O26 Cd16 2.297 . S
O26 C21 1.247 . S
O27 Cd16 2.439 . S
O27 C21 1.208 . S
O28 Cd29 2.223 . S
O28 C36 1.315 . S
Cd29 O28 2.223 . S
Cd29 O32 2.297 . S
Cd29 O33 2.439 . S
Cd29 O39 2.240 . S
Cd30 O31 2.240 . S
Cd30 O38 2.223 . S
Cd30 O40 2.297 . S
Cd30 O41 2.439 . S
O31 Cd30 2.240 . S
O31 C36 1.279 . S
O32 Cd29 2.297 . S
O32 C34 1.247 . S
O33 Cd29 2.439 . S
O33 C34 1.208 . S
C34 O32 1.247 . S
C34 O33 1.208 . S
C35 O40 1.247 . S
C35 O41 1.208 . S
C36 O28 1.315 . S
C36 O31 1.279 . S
C37 O38 1.315 . S
C37 O39 1.279 . S
O38 Cd30 2.223 . S
O38 C37 1.315 . S
O39 Cd29 2.240 . S
O39 C37 1.279 . S
O40 Cd30 2.297 . S
O40 C35 1.247 . S
O41 Cd30 2.439 . S
O41 C35 1.208 . S
O42 Cd43 2.223 . S
O42 C50 1.315 . S
Cd43 O42 2.223 . S
Cd43 O46 2.297 . S
Cd43 O47 2.439 1_545 S
Cd43 O53 2.240 . S
Cd44 O45 2.240 1_565 S
Cd44 O52 2.217 1_565 S
Cd44 O54 2.297 . S
Cd44 O55 2.439 . S
O45 Cd44 2.240 1_545 S
O45 C50 1.279 . S
O46 Cd43 2.297 . S
O46 C48 1.247 . S
O47 Cd43 2.439 1_565 S
O47 C48 1.208 1_565 S
C48 O46 1.247 . S
C48 O47 1.208 1_545 S
C49 O54 1.247 . S
C49 O55 1.208 . S
C50 O42 1.315 . S
C50 O45 1.279 . S
C51 O52 1.318 . S
C51 O53 1.279 . S
O52 Cd44 2.217 1_545 S
O52 C51 1.318 . S
O53 Cd43 2.240 . S
O53 C51 1.279 . S
O54 Cd44 2.297 . S
O54 C49 1.247 . S
O55 Cd44 2.439 . S
O55 C49 1.208 . S
O56 Cd57 2.223 . S
O56 C64 1.315 . S
Cd57 O56 2.223 . S
Cd57 O60 2.297 . S
Cd57 O61 2.439 1_455 S
Cd57 O67 2.240 . S
Cd58 O59 2.240 1_655 S
Cd58 O66 2.217 1_655 S
Cd58 O68 2.297 . S
Cd58 O69 2.439 . S
O59 Cd58 2.240 1_455 S
O59 C64 1.279 . S
O60 Cd57 2.297 . S
O60 C62 1.247 . S
O61 Cd57 2.439 1_655 S
O61 C62 1.208 1_655 S
C62 O60 1.247 . S
C62 O61 1.208 1_455 S
C63 O68 1.247 . S
C63 O69 1.208 . S
C64 O56 1.315 . S
C64 O59 1.279 . S
C65 O66 1.318 . S
C65 O67 1.279 . S
O66 Cd58 2.217 1_455 S
O66 C65 1.318 . S
O67 Cd57 2.240 . S
O67 C65 1.279 . S
O68 Cd58 2.297 . S
O68 C63 1.247 . S
O69 Cd58 2.439 . S
O69 C63 1.208 . S
O70 Cd71 2.223 . S
O70 C78 1.315 . S
Cd71 O70 2.223 . S
Cd71 O74 2.297 . S
Cd71 O75 2.439 . S
Cd71 O81 2.240 . S
Cd72 O73 2.240 . S
Cd72 O80 2.223 . S
Cd72 O82 2.297 . S
Cd72 O83 2.439 . S
O73 Cd72 2.240 . S
O73 C78 1.279 . S
O74 Cd71 2.297 . S
O74 C76 1.247 . S
O75 Cd71 2.439 . S
O75 C76 1.208 . S
C76 O74 1.247 . S
C76 O75 1.208 . S
C77 O82 1.247 . S
C77 O83 1.208 . S
C78 O70 1.315 . S
C78 O73 1.279 . S
C79 O80 1.315 . S
C79 O81 1.279 . S
O80 Cd72 2.223 . S
O80 C79 1.315 . S
O81 Cd71 2.240 . S
O81 C79 1.279 . S
O82 Cd72 2.297 . S
O82 C77 1.247 . S
O83 Cd72 2.439 . S
O83 C77 1.208 . S
O84 Cd85 2.223 . S
O84 C92 1.315 . S
Cd85 O84 2.223 . S
Cd85 O88 2.297 . S
Cd85 O89 2.439 . S
Cd85 O95 2.240 . S
Cd86 O87 2.240 . S
Cd86 O94 2.223 . S
Cd86 O96 2.297 . S
Cd86 O97 2.439 . S
O87 Cd86 2.240 . S
O87 C92 1.279 . S
O88 Cd85 2.297 . S
O88 C90 1.247 . S
O89 Cd85 2.439 . S
O89 C90 1.208 . S
C90 O88 1.247 . S
C90 O89 1.208 . S
C91 O96 1.247 . S
C91 O97 1.208 . S
C92 O84 1.315 . S
C92 O87 1.279 . S
C93 O94 1.315 . S
C93 O95 1.279 . S
O94 Cd86 2.223 . S
O94 C93 1.315 . S
O95 Cd85 2.240 . S
O95 C93 1.279 . S
O96 Cd86 2.297 . S
O96 C91 1.247 . S
O97 Cd86 2.439 . S
O97 C91 1.208 . S
O98 Cd99 2.223 . S
O98 C106 1.315 . S
Cd99 O98 2.223 . S
Cd99 O102 2.297 . S
Cd99 O103 2.439 1_565 S
Cd99 O109 2.240 . S
Cd100 O101 2.240 1_545 S
Cd100 O108 2.217 1_545 S
Cd100 O110 2.297 . S
Cd100 O111 2.439 . S
O101 Cd100 2.240 1_565 S
O101 C106 1.279 . S
O102 Cd99 2.297 . S
O102 C104 1.247 . S
O103 Cd99 2.439 1_545 S
O103 C104 1.208 1_545 S
C104 O102 1.247 . S
C104 O103 1.208 1_565 S
C105 O110 1.247 . S
C105 O111 1.208 . S
C106 O98 1.315 . S
C106 O101 1.279 . S
C107 O108 1.318 . S
C107 O109 1.279 . S
O108 Cd100 2.217 1_565 S
O108 C107 1.318 . S
O109 Cd99 2.240 . S
O109 C107 1.279 . S
O110 Cd100 2.297 . S
O110 C105 1.247 . S
O111 Cd100 2.439 . S
O111 C105 1.208 . S
C112 C113 1.360 1_655 S
C112 C114 1.417 . S
C112 H116 0.930 . S
C113 C112 1.360 1_455 S
C113 C122 1.438 1_556 S
C114 C112 1.417 . S
C114 C115 1.370 1_556 S
C114 H117 0.929 . S
C115 C114 1.370 1_554 S
C115 C121 1.423 1_655 S
H116 C112 0.930 . S
H117 C114 0.929 . S
S118 N119 1.613 . S
S118 N120 1.610 . S
N119 S118 1.613 . S
N119 C122 1.350 . S
N120 S118 1.610 . S
N120 C121 1.351 . S
C121 C115 1.423 1_455 S
C121 N120 1.351 . S
C121 C122 1.434 . S
C122 C113 1.438 1_554 S
C122 N119 1.350 . S
C122 C121 1.434 . S
C123 C124 1.369 . S
C123 C125 1.419 . S
C123 H127 0.930 . S
C124 C123 1.369 . S
C124 C133 1.429 . S
C125 C123 1.419 . S
C125 C126 1.363 . S
C125 H128 0.929 . S
C126 C125 1.363 . S
C126 C132 1.428 . S
H127 C123 0.930 . S
H128 C125 0.929 . S
S129 N130 1.613 . S
S129 N131 1.610 . S
N130 S129 1.613 . S
N130 C133 1.350 . S
N131 S129 1.610 . S
N131 C132 1.351 . S
C132 C126 1.428 . S
C132 N131 1.351 . S
C132 C133 1.434 . S
C133 C124 1.429 . S
C133 N130 1.350 . S
C133 C132 1.434 . S
C134 C135 1.348 1_556 S
C134 C136 1.438 . S
C134 H138 0.932 . S
C135 C134 1.348 1_554 S
C135 C144 1.429 1_565 S
C136 C134 1.438 . S
C136 C137 1.363 1_565 S
C136 H139 0.929 . S
C137 C136 1.363 1_545 S
C137 C143 1.428 1_556 S
H138 C134 0.932 . S
H139 C136 0.929 . S
S140 N141 1.613 . S
S140 N142 1.610 . S
N141 S140 1.613 . S
N141 C144 1.350 . S
N142 S140 1.610 . S
N142 C143 1.351 . S
C143 C137 1.428 1_554 S
C143 N142 1.351 . S
C143 C144 1.434 . S
C144 C135 1.429 1_545 S
C144 N141 1.350 . S
C144 C143 1.434 . S
C145 C146 1.374 . S
C145 C147 1.419 . S
C145 H149 0.930 . S
C146 C145 1.374 . S
C146 C155 1.423 1_665 S
C147 C145 1.419 . S
C147 C148 1.350 1_665 S
C147 H150 0.929 . S
C148 C147 1.350 1_445 S
C148 C154 1.441 . S
H149 C145 0.930 . S
H150 C147 0.929 . S
S151 N152 1.613 . S
S151 N153 1.610 . S
N152 S151 1.613 . S
N152 C155 1.350 . S
N153 S151 1.610 . S
N153 C154 1.351 . S
C154 C148 1.441 . S
C154 N153 1.351 . S
C154 C155 1.434 . S
C155 C146 1.423 1_445 S
C155 N152 1.350 . S
C155 C154 1.434 . S
C156 C157 1.369 . S
C156 C158 1.419 . S
C156 H160 0.930 . S
C157 C156 1.369 . S
C157 C166 1.429 . S
C158 C156 1.419 . S
C158 C159 1.363 . S
C158 H161 0.929 . S
C159 C158 1.363 . S
C159 C165 1.428 . S
H160 C156 0.930 . S
H161 C158 0.929 . S
S162 N163 1.613 . S
S162 N164 1.610 . S
N163 S162 1.613 . S
N163 C166 1.350 . S
N164 S162 1.610 . S
N164 C165 1.351 . S
C165 C159 1.428 . S
C165 N164 1.351 . S
C165 C166 1.434 . S
C166 C157 1.429 . S
C166 N163 1.350 . S
C166 C165 1.434 . S
C167 C168 1.369 . S
C167 C169 1.419 . S
C167 H171 0.930 . S
C168 C167 1.369 . S
C168 C177 1.429 . S
C169 C167 1.419 . S
C169 C170 1.363 . S
C169 H172 0.929 . S
C170 C169 1.363 . S
C170 C176 1.428 . S
H171 C167 0.930 . S
H172 C169 0.929 . S
S173 N174 1.613 . S
S173 N175 1.610 . S
N174 S173 1.613 . S
N174 C177 1.350 . S
N175 S173 1.610 . S
N175 C176 1.351 . S
C176 C170 1.428 . S
C176 N175 1.351 . S
C176 C177 1.434 . S
C177 C168 1.429 . S
C177 N174 1.350 . S
C177 C176 1.434 . S
C178 C179 1.369 . S
C178 C180 1.419 . S
C178 H182 0.930 . S
C179 C178 1.369 . S
C179 C188 1.429 . S
C180 C178 1.419 . S
C180 C181 1.363 . S
C180 H183 0.929 . S
C181 C180 1.363 . S
C181 C187 1.428 . S
H182 C178 0.930 . S
H183 C180 0.929 . S
S184 N185 1.613 . S
S184 N186 1.610 . S
N185 S184 1.613 . S
N185 C188 1.350 . S
N186 S184 1.610 . S
N186 C187 1.351 . S
C187 C181 1.428 . S
C187 N186 1.351 . S
C187 C188 1.434 . S
C188 C179 1.429 . S
C188 N185 1.350 . S
C188 C187 1.434 . S
C189 C190 1.369 . S
C189 C191 1.419 . S
C189 H193 0.930 . S
C190 C189 1.369 . S
C190 C199 1.429 . S
C191 C189 1.419 . S
C191 C192 1.363 . S
C191 H194 0.929 . S
C192 C191 1.363 . S
C192 C198 1.428 . S
H193 C189 0.930 . S
H194 C191 0.929 . S
S195 N196 1.613 . S
S195 N197 1.610 . S
N196 S195 1.613 . S
N196 C199 1.350 . S
N197 S195 1.610 . S
N197 C198 1.351 . S
C198 C192 1.428 . S
C198 N197 1.351 . S
C198 C199 1.434 . S
C199 C190 1.429 . S
C199 N196 1.350 . S
C199 C198 1.434 . S
C200 C201 1.369 . S
C200 C202 1.419 . S
C200 H204 0.930 . S
C201 C200 1.369 . S
C201 C210 1.429 . S
C202 C200 1.419 . S
C202 C203 1.363 . S
C202 H205 0.929 . S
C203 C202 1.363 . S
C203 C209 1.428 . S
H204 C200 0.930 . S
H205 C202 0.929 . S
S206 N207 1.613 . S
S206 N208 1.610 . S
N207 S206 1.613 . S
N207 C210 1.350 . S
N208 S206 1.610 . S
N208 C209 1.351 . S
C209 C203 1.428 . S
C209 N208 1.351 . S
C209 C210 1.434 . S
C210 C201 1.429 . S
C210 N207 1.350 . S
C210 C209 1.434 . S
C211 C212 1.369 . S
C211 C213 1.419 . S
C211 H215 0.930 . S
C212 C211 1.369 . S
C212 C221 1.429 . S
C213 C211 1.419 . S
C213 C214 1.363 . S
C213 H216 0.929 . S
C214 C213 1.363 . S
C214 C220 1.428 . S
H215 C211 0.930 . S
H216 C213 0.929 . S
S217 N218 1.613 . S
S217 N219 1.610 . S
N218 S217 1.613 . S
N218 C221 1.350 . S
N219 S217 1.610 . S
N219 C220 1.351 . S
C220 C214 1.428 . S
C220 N219 1.351 . S
C220 C221 1.434 . S
C221 C212 1.429 . S
C221 N218 1.350 . S
C221 C220 1.434 . S
C222 C223 1.369 . S
C222 C224 1.419 . S
C222 H226 0.930 . S
C223 C222 1.369 . S
C223 C232 1.429 . S
C224 C222 1.419 . S
C224 C225 1.363 . S
C224 H227 0.929 . S
C225 C224 1.363 . S
C225 C231 1.428 . S
H226 C222 0.930 . S
H227 C224 0.929 . S
S228 N229 1.613 . S
S228 N230 1.610 . S
N229 S228 1.613 . S
N229 C232 1.350 1_545 S
N230 S228 1.610 . S
N230 C231 1.351 1_545 S
C231 C225 1.428 . S
C231 N230 1.351 1_565 S
C231 C232 1.434 . S
C232 C223 1.429 . S
C232 N229 1.350 1_565 S
C232 C231 1.434 . S
C233 C234 1.369 . S
C233 C235 1.419 . S
C233 H237 0.930 . S
C234 C233 1.369 . S
C234 C243 1.429 . S
C235 C233 1.419 . S
C235 C236 1.363 . S
C235 H238 0.929 . S
C236 C235 1.363 . S
C236 C242 1.428 . S
H237 C233 0.930 . S
H238 C235 0.929 . S
S239 N240 1.613 . S
S239 N241 1.610 . S
N240 S239 1.613 . S
N240 C243 1.350 . S
N241 S239 1.610 . S
N241 C242 1.351 . S
C242 C236 1.428 . S
C242 N241 1.351 . S
C242 C243 1.434 . S
C243 C234 1.429 . S
C243 N240 1.350 . S
C243 C242 1.434 . S
C244 C245 1.369 . S
C244 C246 1.419 . S
C244 H248 0.930 . S
C245 C244 1.369 . S
C245 C254 1.429 . S
C246 C244 1.419 . S
C246 C247 1.363 . S
C246 H249 0.929 . S
C247 C246 1.363 . S
C247 C253 1.428 . S
H248 C244 0.930 . S
H249 C246 0.929 . S
S250 N251 1.613 . S
S250 N252 1.610 . S
N251 S250 1.613 . S
N251 C254 1.350 . S
N252 S250 1.610 . S
N252 C253 1.351 . S
C253 C247 1.428 . S
C253 N252 1.351 . S
C253 C254 1.434 . S
C254 C245 1.429 . S
C254 N251 1.350 . S
C254 C253 1.434 . S
C255 C256 1.369 . S
C255 C257 1.419 . S
C255 H259 0.930 . S
C256 C255 1.369 . S
C256 C265 1.429 . S
C257 C255 1.419 . S
C257 C258 1.363 . S
C257 H260 0.929 . S
C258 C257 1.363 . S
C258 C264 1.428 . S
H259 C255 0.930 . S
H260 C257 0.929 . S
S261 N262 1.613 . S
S261 N263 1.610 . S
N262 S261 1.613 . S
N262 C265 1.350 . S
N263 S261 1.610 . S
N263 C264 1.351 . S
C264 C258 1.428 . S
C264 N263 1.351 . S
C264 C265 1.434 . S
C265 C256 1.429 . S
C265 N262 1.350 . S
C265 C264 1.434 . S
C266 C267 1.369 . S
C266 C268 1.419 . S
C266 H270 0.930 . S
C267 C266 1.369 . S
C267 C276 1.429 . S
C268 C266 1.419 . S
C268 C269 1.363 . S
C268 H271 0.929 . S
C269 C268 1.363 . S
C269 C275 1.428 . S
H270 C266 0.930 . S
H271 C268 0.929 . S
S272 N273 1.613 . S
S272 N274 1.610 . S
N273 S272 1.613 . S
N273 C276 1.350 . S
N274 S272 1.610 . S
N274 C275 1.351 . S
C275 C269 1.428 . S
C275 N274 1.351 . S
C275 C276 1.434 . S
C276 C267 1.429 . S
C276 N273 1.350 . S
C276 C275 1.434 . S
C277 C278 1.369 . S
C277 C279 1.419 . S
C277 H281 0.930 1_655 S
C278 C277 1.369 . S
C278 C287 1.429 . S
C279 C277 1.419 . S
C279 C280 1.363 . S
C279 H282 0.929 . S
C280 C279 1.363 . S
C280 C286 1.428 . S
H281 C277 0.930 1_455 S
H282 C279 0.929 . S
S283 N284 1.613 . S
S283 N285 1.610 . S
N284 S283 1.613 . S
N284 C287 1.350 . S
N285 S283 1.610 . S
N285 C286 1.351 . S
C286 C280 1.428 . S
C286 N285 1.351 . S
C286 C287 1.434 . S
C287 C278 1.429 . S
C287 N284 1.350 . S
C287 C286 1.434 . S
C113 C62 1.505 . S
C115 C6 1.507 . S
C124 C20 1.503 . S
C126 C76 1.505 . S
C135 C34 1.505 . S
C137 C90 1.503 . S
C146 C104 1.507 . S
C148 C48 1.505 . S
C157 C7 1.389 . S
C159 C35 1.393 . S
C168 C21 1.391 . S
C170 C49 1.390 . S
C179 C91 1.394 . S
C181 C63 1.390 . S
C190 C77 1.395 . S
C192 C105 1.391 . S
C201 C79 1.437 . S
C203 C8 1.377 . S
C212 C22 1.385 . S
C214 C93 1.437 . S
C223 C36 1.378 . S
C225 C107 1.432 . S
C234 C65 1.438 . S
C236 C50 1.384 . S
C245 C64 1.374 . S
C247 C23 1.434 . S
C256 C78 1.378 . S
C258 C37 1.432 . S
C267 C92 1.384 . S
C269 C51 1.437 . S
C278 C9 1.438 . S
C280 C106 1.382 . S
