# Generated by pormake.
# Topology ume, (4)-cn, num edge types: 1
# Building blocks:
#     Node 0, Type 0, BuildingBlock: QUQFOY_clean_sbu_3, # of connection points: 4
#     Node 1, Type 0, BuildingBlock: QUQFOY_clean_sbu_3, # of connection points: 4
#     Node 2, Type 0, BuildingBlock: QUQFOY_clean_sbu_3, # of connection points: 4
#     Node 3, Type 0, BuildingBlock: QUQFOY_clean_sbu_3, # of connection points: 4
#     Node 4, Type 0, BuildingBlock: QUQFOY_clean_sbu_3, # of connection points: 4
#     Node 5, Type 0, BuildingBlock: QUQFOY_clean_sbu_3, # of connection points: 4
#     Node 6, Type 0, BuildingBlock: QUQFOY_clean_sbu_3, # of connection points: 4
#     Node 7, Type 0, BuildingBlock: QUQFOY_clean_sbu_3, # of connection points: 4
#     Node 8, Type 0, BuildingBlock: QUQFOY_clean_sbu_3, # of connection points: 4
#     Node 9, Type 0, BuildingBlock: QUQFOY_clean_sbu_3, # of connection points: 4
#     Node 10, Type 0, BuildingBlock: QUQFOY_clean_sbu_3, # of connection points: 4
#     Node 11, Type 0, BuildingBlock: QUQFOY_clean_sbu_3, # of connection points: 4
#     Node 12, Type 0, BuildingBlock: QUQFOY_clean_sbu_3, # of connection points: 4
#     Node 13, Type 0, BuildingBlock: QUQFOY_clean_sbu_3, # of connection points: 4
#     Node 14, Type 0, BuildingBlock: QUQFOY_clean_sbu_3, # of connection points: 4
#     Node 15, Type 0, BuildingBlock: QUQFOY_clean_sbu_3, # of connection points: 4
#     Edge 16, Type (0, 0), BuildingBlock: EZIPEK_clean_linker_0, # of connection points: 2
#     Edge 17, Type (0, 0), BuildingBlock: EZIPEK_clean_linker_0, # of connection points: 2
#     Edge 18, Type (0, 0), BuildingBlock: EZIPEK_clean_linker_0, # of connection points: 2
#     Edge 19, Type (0, 0), BuildingBlock: EZIPEK_clean_linker_0, # of connection points: 2
#     Edge 20, Type (0, 0), BuildingBlock: EZIPEK_clean_linker_0, # of connection points: 2
#     Edge 21, Type (0, 0), BuildingBlock: EZIPEK_clean_linker_0, # of connection points: 2
#     Edge 22, Type (0, 0), BuildingBlock: EZIPEK_clean_linker_0, # of connection points: 2
#     Edge 23, Type (0, 0), BuildingBlock: EZIPEK_clean_linker_0, # of connection points: 2
#     Edge 24, Type (0, 0), BuildingBlock: EZIPEK_clean_linker_0, # of connection points: 2
#     Edge 25, Type (0, 0), BuildingBlock: EZIPEK_clean_linker_0, # of connection points: 2
#     Edge 26, Type (0, 0), BuildingBlock: EZIPEK_clean_linker_0, # of connection points: 2
#     Edge 27, Type (0, 0), BuildingBlock: EZIPEK_clean_linker_0, # of connection points: 2
#     Edge 28, Type (0, 0), BuildingBlock: EZIPEK_clean_linker_0, # of connection points: 2
#     Edge 29, Type (0, 0), BuildingBlock: EZIPEK_clean_linker_0, # of connection points: 2
#     Edge 30, Type (0, 0), BuildingBlock: EZIPEK_clean_linker_0, # of connection points: 2
#     Edge 31, Type (0, 0), BuildingBlock: EZIPEK_clean_linker_0, # of connection points: 2
#     Edge 32, Type (0, 0), BuildingBlock: EZIPEK_clean_linker_0, # of connection points: 2
#     Edge 33, Type (0, 0), BuildingBlock: EZIPEK_clean_linker_0, # of connection points: 2
#     Edge 34, Type (0, 0), BuildingBlock: EZIPEK_clean_linker_0, # of connection points: 2
#     Edge 35, Type (0, 0), BuildingBlock: EZIPEK_clean_linker_0, # of connection points: 2
#     Edge 36, Type (0, 0), BuildingBlock: EZIPEK_clean_linker_0, # of connection points: 2
#     Edge 37, Type (0, 0), BuildingBlock: EZIPEK_clean_linker_0, # of connection points: 2
#     Edge 38, Type (0, 0), BuildingBlock: EZIPEK_clean_linker_0, # of connection points: 2
#     Edge 39, Type (0, 0), BuildingBlock: EZIPEK_clean_linker_0, # of connection points: 2
#     Edge 40, Type (0, 0), BuildingBlock: EZIPEK_clean_linker_0, # of connection points: 2
#     Edge 41, Type (0, 0), BuildingBlock: EZIPEK_clean_linker_0, # of connection points: 2
#     Edge 42, Type (0, 0), BuildingBlock: EZIPEK_clean_linker_0, # of connection points: 2
#     Edge 43, Type (0, 0), BuildingBlock: EZIPEK_clean_linker_0, # of connection points: 2
#     Edge 44, Type (0, 0), BuildingBlock: EZIPEK_clean_linker_0, # of connection points: 2
#     Edge 45, Type (0, 0), BuildingBlock: EZIPEK_clean_linker_0, # of connection points: 2
#     Edge 46, Type (0, 0), BuildingBlock: EZIPEK_clean_linker_0, # of connection points: 2
#     Edge 47, Type (0, 0), BuildingBlock: EZIPEK_clean_linker_0, # of connection points: 2
# Relax obj value: 0.094
# Max RMSD: 0.141
# Mean RMSD: 0.141
data_MOF--net-ume--node1-QUQFOY_clean_sbu_3--edge1-EZIPEK_clean_linker_0
_symmetry_space_group_name_H-M    P1
_symmetry_Int_Tables_number       1
_symmetry_cell_setting            triclinic
loop_
_symmetry_equiv_pos_as_xyz
'x, y, z'
_cell_length_a     20.629798
_cell_length_b     20.606587
_cell_length_c     83.828092
_cell_angle_alpha  90.081031
_cell_angle_beta   89.736473
_cell_angle_gamma 89.861087
loop_
_atom_site_label
_atom_site_type_symbol
_atom_site_fract_x
_atom_site_fract_y
_atom_site_fract_z
_atom_type_partial_charge
C0 C 0.24277 0.19198 0.27092 0.0
O1 O 0.28459 0.23148 0.27624 0.0
Cd2 Cd 0.30954 0.24309 0.30394 0.0
O3 O 0.20804 0.15793 0.28024 0.0
Cd4 Cd 0.19201 0.13788 0.30866 0.0
C5 C 0.34967 0.08397 0.30916 0.0
O6 O 0.20799 0.24961 0.31781 0.0
O7 O 0.19614 0.17653 0.33597 0.0
O8 O 0.07757 0.12936 0.30204 0.0
C9 C 0.20487 0.23577 0.33252 0.0
O10 O 0.36806 0.14286 0.30894 0.0
C11 C 0.06978 0.07423 0.30853 0.0
O12 O 0.28982 0.06888 0.30854 0.0
O13 O 0.11846 0.04901 0.31543 0.0
C14 C 0.80109 0.79312 0.51454 0.0
O15 O 0.76174 0.82443 0.52334 0.0
Cd16 Cd 0.78121 0.83645 0.55136 0.0
O17 O 0.8481 0.76141 0.52041 0.0
Cd18 Cd 0.89522 0.73277 0.54594 0.0
C19 C 0.93901 0.88942 0.54848 0.0
O20 O 0.79864 0.73151 0.56288 0.0
O21 O 0.89212 0.73882 0.57447 0.0
O22 O 0.90362 0.61846 0.53858 0.0
C23 C 0.83135 0.7316 0.57566 0.0
O24 O 0.88032 0.90208 0.55213 0.0
C25 C 0.96388 0.61471 0.54148 0.0
O26 O 0.95731 0.83229 0.54482 0.0
O27 O 0.99235 0.66606 0.54601 0.0
C28 C 0.23106 0.23697 0.76944 0.0
O29 O 0.1881 0.21492 0.77879 0.0
Cd30 Cd 0.15618 0.27267 0.80246 0.0
O31 O 0.25769 0.29107 0.77254 0.0
Cd32 Cd 0.25931 0.37366 0.79333 0.0
C33 C 0.10577 0.42047 0.78834 0.0
O34 O 0.25146 0.30363 0.81685 0.0
O35 O 0.23402 0.40665 0.8202 0.0
O36 O 0.37699 0.37371 0.79195 0.0
C37 C 0.24368 0.35127 0.82626 0.0
O38 O 0.09163 0.36823 0.79564 0.0
C39 C 0.38189 0.43425 0.78962 0.0
O40 O 0.16397 0.43349 0.78446 0.0
O41 O 0.32982 0.46683 0.7885 0.0
C42 C 0.68284 0.77827 0.0137 0.0
O43 O 0.71803 0.73158 0.01842 0.0
Cd44 Cd 0.70817 0.68435 0.0444 0.0
O45 O 0.64214 0.80545 0.02296 0.0
Cd46 Cd 0.60324 0.7993 0.05042 0.0
C47 C 0.54513 0.64797 0.0437 0.0
O48 O 0.70476 0.7701 0.06369 0.0
O49 O 0.61598 0.76324 0.07748 0.0
O50 O 0.60691 0.91724 0.05081 0.0
C51 C 0.67715 0.75816 0.07692 0.0
O52 O 0.60366 0.62834 0.04411 0.0
C53 C 0.54726 0.9245 0.05416 0.0
O54 O 0.53078 0.708 0.04477 0.0
O55 O 0.51375 0.87356 0.05629 0.0
C56 C 0.26986 0.27611 0.95261 0.0
O57 O 0.29791 0.23939 0.94257 0.0
Cd58 Cd 0.33443 0.28213 0.91751 0.0
O59 O 0.25508 0.33413 0.94901 0.0
Cd60 Cd 0.25652 0.40739 0.92626 0.0
C61 C 0.41752 0.42202 0.92687 0.0
O62 O 0.24168 0.32868 0.90473 0.0
O63 O 0.2731 0.42547 0.89814 0.0
O64 O 0.14303 0.42948 0.93144 0.0
C65 C 0.25355 0.36991 0.89391 0.0
O66 O 0.41912 0.36443 0.92131 0.0
C67 C 0.14915 0.49063 0.93196 0.0
O68 O 0.36436 0.44862 0.93101 0.0
O69 O 0.20585 0.5137 0.93036 0.0
C70 C 0.71976 0.75279 0.19803 0.0
O71 O 0.75658 0.78528 0.18889 0.0
Cd72 Cd 0.73811 0.79046 0.16067 0.0
O73 O 0.67666 0.71511 0.1925 0.0
Cd74 Cd 0.6351 0.6758 0.16709 0.0
C75 C 0.57586 0.8281 0.16333 0.0
O76 O 0.73232 0.68266 0.15014 0.0
O77 O 0.63916 0.67452 0.13863 0.0
O78 O 0.63659 0.56301 0.17626 0.0
C79 C 0.70031 0.67668 0.13734 0.0
O80 O 0.63304 0.84568 0.15954 0.0
C81 C 0.57788 0.55265 0.17254 0.0
O82 O 0.56321 0.76985 0.16731 0.0
O83 O 0.54582 0.59959 0.16673 0.0
C84 C 0.29622 0.21118 0.45047 0.0
O85 O 0.25064 0.24782 0.44576 0.0
Cd86 Cd 0.21523 0.25634 0.41869 0.0
O87 O 0.32919 0.17714 0.4407 0.0
Cd88 Cd 0.33443 0.15557 0.41189 0.0
C89 C 0.1788 0.09719 0.41222 0.0
O90 O 0.30988 0.26591 0.40228 0.0
O91 O 0.32109 0.19006 0.38467 0.0
O92 O 0.45174 0.15034 0.41503 0.0
C93 C 0.3094 0.24918 0.38771 0.0
O94 O 0.1586 0.15532 0.41354 0.0
C95 C 0.45742 0.09371 0.40916 0.0
O96 O 0.23911 0.08354 0.41222 0.0
O97 O 0.40618 0.06618 0.40426 0.0
C98 C 0.72401 0.7567 0.70137 0.0
O99 O 0.69724 0.70699 0.69542 0.0
Cd100 Cd 0.74 0.65814 0.67142 0.0
O101 O 0.7762 0.77758 0.69522 0.0
Cd102 Cd 0.84692 0.75884 0.67254 0.0
C103 C 0.89177 0.60551 0.68075 0.0
O104 O 0.76143 0.74344 0.65245 0.0
O105 O 0.86135 0.7263 0.64533 0.0
O106 O 0.85301 0.8766 0.67168 0.0
C107 C 0.80246 0.73249 0.64146 0.0
O108 O 0.83515 0.5898 0.67624 0.0
C109 C 0.91433 0.87909 0.67207 0.0
O110 O 0.90799 0.66479 0.68206 0.0
O111 O 0.94498 0.82565 0.67264 0.0
C112 C 0.7417 0.77152 0.76468 0.0
O113 O 0.78768 0.80094 0.77155 0.0
Cd114 Cd 0.83607 0.75803 0.79545 0.0
O115 O 0.72394 0.71646 0.76983 0.0
Cd116 Cd 0.74242 0.64118 0.7915 0.0
C117 C 0.9003 0.61035 0.7852 0.0
O118 O 0.74981 0.72279 0.8127 0.0
O119 O 0.77047 0.62252 0.81888 0.0
O120 O 0.62589 0.62749 0.79188 0.0
C121 C 0.76245 0.68077 0.82328 0.0
O122 O 0.9101 0.66765 0.79033 0.0
C123 C 0.62721 0.56661 0.78982 0.0
O124 O 0.84317 0.58938 0.78289 0.0
O125 O 0.68229 0.53945 0.78851 0.0
C126 C 0.23203 0.27155 0.01773 0.0
O127 O 0.19352 0.31472 0.02298 0.0
Cd128 Cd 0.21478 0.3638 0.04859 0.0
O129 O 0.28217 0.25786 0.02574 0.0
Cd130 Cd 0.33221 0.28134 0.0511 0.0
C131 C 0.35985 0.43927 0.04446 0.0
O132 O 0.23446 0.27911 0.06801 0.0
O133 O 0.32445 0.31279 0.07846 0.0
O134 O 0.35257 0.16548 0.05172 0.0
C135 C 0.26722 0.29209 0.08038 0.0
O136 O 0.29945 0.447 0.04692 0.0
C137 C 0.4132 0.16988 0.05369 0.0
O138 O 0.3849 0.3829 0.04407 0.0
O139 O 0.43727 0.22643 0.05455 0.0
C140 C 0.68442 0.77953 0.26553 0.0
O141 O 0.64565 0.73942 0.2719 0.0
Cd142 Cd 0.62011 0.74317 0.29979 0.0
O143 O 0.71161 0.82355 0.27372 0.0
Cd144 Cd 0.71371 0.85684 0.30172 0.0
C145 C 0.55495 0.89388 0.30399 0.0
O146 O 0.72248 0.74756 0.31334 0.0
O147 O 0.70124 0.82751 0.32929 0.0
O148 O 0.82843 0.87867 0.29707 0.0
C149 C 0.71909 0.76914 0.32745 0.0
O150 O 0.54497 0.83316 0.30511 0.0
C151 C 0.8283 0.9339 0.30374 0.0
O152 O 0.61143 0.91602 0.3013 0.0
O153 O 0.77463 0.95452 0.30924 0.0
C154 C 0.28563 0.20003 0.51817 0.0
O155 O 0.3182 0.16941 0.52853 0.0
Cd156 Cd 0.27831 0.15626 0.55534 0.0
O157 O 0.23381 0.22985 0.52193 0.0
Cd158 Cd 0.16862 0.25277 0.54564 0.0
C159 C 0.12625 0.09654 0.54801 0.0
O160 O 0.24996 0.25902 0.56692 0.0
O161 O 0.14963 0.24258 0.57365 0.0
O162 O 0.16217 0.36828 0.53993 0.0
C163 C 0.20704 0.25568 0.57779 0.0
O164 O 0.18226 0.08681 0.55388 0.0
C165 C 0.10068 0.37031 0.54008 0.0
O166 O 0.10938 0.15193 0.54276 0.0
O167 O 0.07056 0.31729 0.54209 0.0
C168 C 0.83868 0.79952 0.44707 0.0
O169 O 0.8774 0.75716 0.4415 0.0
Cd170 Cd 0.90783 0.75689 0.41394 0.0
O171 O 0.81379 0.84267 0.43819 0.0
Cd172 Cd 0.81368 0.87405 0.41019 0.0
C173 C 0.97363 0.90809 0.41056 0.0
O174 O 0.8068 0.763 0.3998 0.0
O175 O 0.82463 0.84001 0.38283 0.0
O176 O 0.70018 0.89748 0.41576 0.0
C177 C 0.80971 0.78135 0.38543 0.0
O178 O 0.9836 0.84716 0.41024 0.0
C179 C 0.69924 0.95182 0.40869 0.0
O180 O 0.9166 0.93131 0.41153 0.0
O181 O 0.75167 0.97093 0.40227 0.0
C182 C 0.23235 0.23782 0.70528 0.0
O183 O 0.26408 0.28566 0.69984 0.0
Cd184 Cd 0.23336 0.33743 0.67532 0.0
O185 O 0.18093 0.22027 0.69826 0.0
Cd186 Cd 0.11965 0.24213 0.67405 0.0
C187 C 0.08093 0.39798 0.68161 0.0
O188 O 0.21463 0.25169 0.65637 0.0
O189 O 0.12014 0.27182 0.64626 0.0
O190 O 0.10819 0.12504 0.67471 0.0
C191 C 0.18034 0.26308 0.64419 0.0
O192 O 0.14029 0.41003 0.6787 0.0
C193 C 0.04741 0.12486 0.67265 0.0
O194 O 0.06032 0.33988 0.68211 0.0
O195 O 0.0193 0.17937 0.67115 0.0
C196 C 0.70377 0.78799 0.94705 0.0
O197 O 0.67421 0.81422 0.9355 0.0
Cd198 Cd 0.66672 0.75842 0.91053 0.0
O199 O 0.73835 0.73748 0.94495 0.0
Cd200 Cd 0.77761 0.66532 0.92383 0.0
C201 C 0.62851 0.60339 0.92392 0.0
O202 O 0.77337 0.73731 0.90078 0.0
O203 O 0.77407 0.63383 0.89621 0.0
O204 O 0.89031 0.68106 0.93157 0.0
C205 C 0.77669 0.6911 0.8908 0.0
O206 O 0.61237 0.65527 0.91667 0.0
C207 C 0.90341 0.62082 0.93174 0.0
O208 O 0.686 0.59428 0.92889 0.0
O209 O 0.85719 0.58153 0.9293 0.0
C210 C 0.25917 0.15613 0.20328 0.0
O211 O 0.22094 0.12424 0.19444 0.0
Cd212 Cd 0.24196 0.10962 0.16657 0.0
O213 O 0.30957 0.1832 0.19764 0.0
Cd214 Cd 0.36256 0.19737 0.17179 0.0
C215 C 0.39133 0.03777 0.16735 0.0
O216 O 0.26403 0.21602 0.1563 0.0
O217 O 0.35253 0.19626 0.14315 0.0
O218 O 0.38582 0.30895 0.17966 0.0
C219 C 0.29426 0.21563 0.14314 0.0
O220 O 0.33187 0.0323 0.16362 0.0
C221 C 0.44453 0.30755 0.17513 0.0
O222 O 0.41461 0.09153 0.17205 0.0
O223 O 0.46623 0.25427 0.16965 0.0
C224 C 0.91602 0.98396 0.32033 0.0
C225 C 0.88858 0.97219 0.3051 0.0
C226 C 0.98245 0.02274 0.29218 0.0
C227 C 0.00722 0.03949 0.30742 0.0
N228 N 0.99282 0.04594 0.33596 0.0
N229 N 0.88914 0.99015 0.27668 0.0
C230 C 0.97271 0.02281 0.32151 0.0
C231 C 0.91994 0.9944 0.29106 0.0
N232 N 0.88952 0.95582 0.3336 0.0
N233 N 0.01986 0.03105 0.27883 0.0
H234 H 0.84315 0.96994 0.27539 0.0
H235 H 0.90647 0.01192 0.2663 0.0
H236 H 0.06645 0.05051 0.27912 0.0
H237 H 0.00726 0.01314 0.26764 0.0
H238 H 0.91158 0.95649 0.34475 0.0
H239 H 0.84807 0.92698 0.33325 0.0
H240 H 0.96586 0.04128 0.34642 0.0
H241 H 0.03389 0.07487 0.33729 0.0
C242 C 0.00432 0.51739 0.52631 0.0
C243 C 0.99854 0.55193 0.54092 0.0
C244 C 0.06386 0.4696 0.55449 0.0
C245 C 0.06588 0.43287 0.54017 0.0
N246 N 0.03194 0.41612 0.51302 0.0
N247 N 0.01099 0.55515 0.56953 0.0
C248 C 0.03408 0.455 0.52624 0.0
C249 C 0.02534 0.52665 0.55518 0.0
N250 N 0.98382 0.54543 0.51244 0.0
N251 N 0.09891 0.45003 0.56746 0.0
H252 H 0.98158 0.59617 0.57065 0.0
H253 H 0.02301 0.53486 0.5805 0.0
H254 H 0.12487 0.40658 0.56783 0.0
H255 H 0.10593 0.4789 0.57751 0.0
H256 H 0.99271 0.52586 0.50118 0.0
H257 H 0.9622 0.59121 0.51204 0.0
H258 H 0.00356 0.42615 0.50309 0.0
H259 H 0.05539 0.37127 0.5124 0.0
C260 C 0.53691 0.51405 0.77488 0.0
C261 C 0.56664 0.52896 0.78965 0.0
C262 C 0.47787 0.4768 0.80424 0.0
C263 C 0.44576 0.46616 0.78952 0.0
N264 N 0.44037 0.47785 0.76097 0.0
N265 N 0.56481 0.53081 0.81841 0.0
C266 C 0.47411 0.48564 0.77485 0.0
C267 C 0.53707 0.51185 0.80435 0.0
N268 N 0.56924 0.52644 0.76093 0.0
N269 N 0.45188 0.45291 0.81808 0.0
H270 H 0.6096 0.5541 0.81899 0.0
H271 H 0.54213 0.52703 0.82947 0.0
H272 H 0.40682 0.4302 0.81865 0.0
H273 H 0.47632 0.45202 0.82891 0.0
H274 H 0.55352 0.51115 0.74977 0.0
H275 H 0.61459 0.54871 0.76055 0.0
H276 H 0.45481 0.4971 0.75005 0.0
H277 H 0.3954 0.4549 0.76047 0.0
C278 C 0.45299 0.07241 0.06851 0.0
C279 C 0.45369 0.11089 0.05449 0.0
C280 C 0.51524 0.027 0.04026 0.0
C281 C 0.51707 0.98962 0.05448 0.0
N282 N 0.49834 0.9806 0.08279 0.0
N283 N 0.49375 0.13114 0.0279 0.0
C284 C 0.48887 0.01338 0.06882 0.0
C285 C 0.48785 0.0903 0.04067 0.0
N286 N 0.41721 0.09195 0.08144 0.0
N287 N 0.53606 1.00051 0.02616 0.0
H288 H 0.47218 0.17693 0.02751 0.0
H289 H 0.5241 0.12193 0.0182 0.0
H290 H 0.55549 0.9539 0.02523 0.0
H291 H 0.52909 0.02232 0.0151 0.0
H292 H 0.40808 0.06266 0.0913 0.0
H293 H 0.39354 0.13672 0.08197 0.0
H294 H 0.48471 0.99852 0.09393 0.0
H295 H 0.52477 0.93746 0.08344 0.0
C296 C 0.05146 0.52995 0.94684 0.0
C297 C 0.09139 0.5328 0.93305 0.0
C298 C 0.01436 0.60655 0.92022 0.0
C299 C 0.97067 0.59687 0.93314 0.0
N300 N 0.94543 0.54927 0.95865 0.0
N301 N 0.10891 0.56755 0.90588 0.0
C302 C 0.98875 0.55874 0.94648 0.0
C303 C 0.07296 0.57033 0.91963 0.0
N304 N 0.07434 0.50085 0.96036 0.0
N305 N 0.99938 0.64931 0.90831 0.0
H306 H 0.15207 0.54146 0.90482 0.0
H307 H 0.09365 0.58683 0.89505 0.0
H308 H 0.95517 0.6736 0.90756 0.0
H309 H 0.03259 0.66444 0.8997 0.0
H310 H 0.05038 0.50202 0.9713 0.0
H311 H 0.12035 0.47985 0.96097 0.0
H312 H 0.95225 0.51588 0.9678 0.0
H313 H 0.90076 0.57303 0.95924 0.0
C314 C 0.50318 0.39762 0.18906 0.0
C315 C 0.48364 0.36748 0.17464 0.0
C316 C 0.53628 0.45329 0.15914 0.0
C317 C 0.54924 0.48716 0.1735 0.0
N318 N 0.54156 0.49548 0.20212 0.0
N319 N 0.47322 0.37029 0.14596 0.0
C320 C 0.53221 0.46021 0.1885 0.0
C321 C 0.49831 0.39602 0.15966 0.0
N322 N 0.49524 0.36565 0.20321 0.0
N323 N 0.5617 0.47508 0.14503 0.0
H324 H 0.44497 0.32841 0.14575 0.0
H325 H 0.47578 0.39335 0.13493 0.0
H326 H 0.58994 0.5169 0.14418 0.0
H327 H 0.55992 0.44874 0.13443 0.0
H328 H 0.51421 0.38186 0.21399 0.0
H329 H 0.47393 0.31989 0.20399 0.0
H330 H 0.52368 0.48189 0.21325 0.0
H331 H 0.56374 0.54093 0.20214 0.0
C332 C 0.55283 0.04628 0.42341 0.0
C333 C 0.52073 0.05977 0.40884 0.0
C334 C 0.60535 1.00101 0.39402 0.0
C335 C 0.63961 0.99174 0.40849 0.0
N336 N 0.65295 0.01577 0.43644 0.0
N337 N 0.52099 0.05998 0.38006 0.0
C338 C 0.61538 0.01743 0.42304 0.0
C339 C 0.54826 0.03992 0.39406 0.0
N340 N 0.52224 0.05799 0.43765 0.0
N341 N 0.62593 0.97058 0.3804 0.0
H342 H 0.47945 0.08889 0.37963 0.0
H343 H 0.54243 0.05277 0.36893 0.0
H344 H 0.66783 0.94221 0.37988 0.0
H345 H 0.599 0.96927 0.36993 0.0
H346 H 0.54019 0.04239 0.44858 0.0
H347 H 0.4759 0.07807 0.43851 0.0
H348 H 0.6409 0.03999 0.44696 0.0
H349 H 0.69918 0.99516 0.43662 0.0
C350 C 0.98412 0.04002 0.65809 0.0
C351 C 0.01105 0.06329 0.67254 0.0
C352 C 0.97849 0.96375 0.68637 0.0
C353 C 0.94835 0.94203 0.67215 0.0
N354 N 0.91546 0.96102 0.64496 0.0
N355 N 0.02572 0.05369 0.70095 0.0
C356 C 0.94882 0.98082 0.65816 0.0
C357 C 0.00622 0.02678 0.68683 0.0
N358 N 0.99494 0.07304 0.64419 0.0
N359 N 0.98063 0.92405 0.69943 0.0
H360 H 0.04564 0.10005 0.70176 0.0
H361 H 0.01748 0.03271 0.71206 0.0
H362 H 0.95745 0.87919 0.69993 0.0
H363 H 0.00853 0.93357 0.70948 0.0
H364 H 0.98314 0.05511 0.63296 0.0
H365 H 0.02018 0.1168 0.6437 0.0
H366 H 0.90726 0.9904 0.63508 0.0
H367 H 0.89252 0.91608 0.64418 0.0
C368 C 0.48015 0.97442 0.29154 0.0
C369 C 0.49977 0.93958 0.30526 0.0
C370 C 0.41472 0.99316 0.32114 0.0
C371 C 0.39962 0.03259 0.3078 0.0
N372 N 0.42186 0.06628 0.28071 0.0
N373 N 0.49185 0.91995 0.33355 0.0
C374 C 0.4335 0.02481 0.29311 0.0
C375 C 0.46839 0.94965 0.32018 0.0
N376 N 0.50444 0.95759 0.27688 0.0
N377 N 0.37784 0.99745 0.33469 0.0
H378 H 0.53085 0.88762 0.33329 0.0
H379 H 0.47606 0.93075 0.34506 0.0
H380 H 0.33991 0.03063 0.336 0.0
H381 H 0.38181 0.96539 0.34423 0.0
H382 H 0.48687 0.97605 0.26618 0.0
H383 H 0.53845 0.9206 0.27525 0.0
H384 H 0.45044 0.06822 0.27045 0.0
H385 H 0.38613 0.1021 0.28101 0.0
C386 C 0.00753 0.96982 0.56298 0.0
C387 C 0.98693 0.9424 0.54834 0.0
C388 C 0.06161 0.01266 0.53355 0.0
C389 C 0.07864 0.0433 0.54808 0.0
N390 N 0.06184 0.05871 0.57634 0.0
N391 N 0.9863 0.94278 0.51957 0.0
C392 C 0.05003 0.02395 0.56275 0.0
C393 C 0.01183 0.96512 0.53356 0.0
N394 N 0.98812 0.94272 0.57711 0.0
N395 N 0.09451 0.02762 0.51984 0.0
H396 H 0.95023 0.90743 0.51911 0.0
H397 H 0.99709 0.96259 0.50845 0.0
H398 H 0.13094 0.06261 0.51937 0.0
H399 H 0.0894 0.00206 0.5092 0.0
H400 H 0.00705 0.95579 0.58814 0.0
H401 H 0.95655 0.9033 0.57775 0.0
H402 H 0.03693 0.05162 0.58703 0.0
H403 H 0.09313 0.09837 0.57669 0.0
C404 C 0.03447 0.50304 0.80112 0.0
C405 C 0.05563 0.47141 0.78699 0.0
C406 C 0.9796 0.53641 0.77117 0.0
C407 C 0.95447 0.56334 0.78551 0.0
N408 N 0.94948 0.56376 0.81435 0.0
N409 N 0.04648 0.45291 0.75874 0.0
C410 C 0.97971 0.54449 0.80055 0.0
C411 C 0.0279 0.48689 0.77201 0.0
N412 N 0.06798 0.49492 0.81503 0.0
N413 N 0.95818 0.55924 0.75682 0.0
H414 H 0.08248 0.41727 0.75896 0.0
H415 H 0.02377 0.45701 0.74774 0.0
H416 H 0.9224 0.59491 0.75591 0.0
H417 H 0.97856 0.54632 0.74589 0.0
H418 H 0.05935 0.52244 0.82526 0.0
H419 H 0.10858 0.46494 0.816 0.0
H420 H 0.96107 0.54526 0.82553 0.0
H421 H 0.90874 0.59378 0.81459 0.0
C422 C 0.46346 0.57917 0.02942 0.0
C423 C 0.49294 0.59906 0.04388 0.0
C424 C 0.43388 0.51526 0.05866 0.0
C425 C 0.40306 0.49634 0.04428 0.0
N426 N 0.37989 0.51492 0.01653 0.0
N427 N 0.49906 0.59504 0.07257 0.0
C428 C 0.4151 0.52992 0.02981 0.0
C429 C 0.47592 0.56976 0.0586 0.0
N430 N 0.4834 0.60589 0.01531 0.0
N431 N 0.42412 0.48001 0.07228 0.0
H432 H 0.53061 0.63451 0.07298 0.0
H433 H 0.48334 0.58054 0.08382 0.0
H434 H 0.39134 0.44164 0.07303 0.0
H435 H 0.45109 0.486 0.08264 0.0
H436 H 0.46929 0.58896 0.00416 0.0
H437 H 0.51746 0.64315 0.01471 0.0
H438 H 0.38155 0.54148 0.00599 0.0
H439 H 0.34528 0.47808 0.01639 0.0
C440 C 0.50116 0.48895 0.9409 0.0
C441 C 0.47685 0.46208 0.92653 0.0
C442 C 0.56187 0.51727 0.91128 0.0
C443 C 0.5804 0.55082 0.92529 0.0
N444 N 0.56603 0.5731 0.95331 0.0
N445 N 0.47761 0.45804 0.89767 0.0
C446 C 0.55001 0.53754 0.94013 0.0
C447 C 0.50583 0.47762 0.91161 0.0
N448 N 0.47838 0.46699 0.95525 0.0
N449 N 0.59849 0.52267 0.89771 0.0
H450 H 0.43563 0.43007 0.89721 0.0
H451 H 0.49239 0.4744 0.88649 0.0
H452 H 0.6401 0.55126 0.89705 0.0
H453 H 0.59133 0.49413 0.88761 0.0
H454 H 0.49828 0.48004 0.96618 0.0
H455 H 0.44292 0.43113 0.95616 0.0
H456 H 0.5406 0.57099 0.96406 0.0
H457 H 0.60244 0.60815 0.95321 0.0
C458 C 0.5009 0.90654 0.15001 0.0
C459 C 0.52434 0.87786 0.16424 0.0
C460 C 0.45287 0.9477 0.18024 0.0
C461 C 0.4345 0.98076 0.16615 0.0
N462 N 0.44426 0.99689 0.13776 0.0
N463 N 0.52915 0.87499 0.193 0.0
C464 C 0.45909 0.9614 0.15103 0.0
C465 C 0.50176 0.89912 0.1794 0.0
N466 N 0.51748 0.88024 0.13557 0.0
N467 N 0.42251 0.96192 0.19437 0.0
H468 H 0.5644 0.83862 0.19294 0.0
H469 H 0.52057 0.89411 0.20432 0.0
H470 H 0.3869 0.99774 0.19544 0.0
H471 H 0.42858 0.93488 0.20474 0.0
H472 H 0.49704 0.89458 0.1248 0.0
H473 H 0.54813 0.8401 0.13444 0.0
H474 H 0.46633 0.98996 0.12669 0.0
H475 H 0.41274 0.03654 0.138 0.0
C476 C 0.05338 0.97925 0.39631 0.0
C477 C 0.02946 0.95278 0.41079 0.0
C478 C 0.10462 0.01993 0.42616 0.0
C479 C 0.13043 0.04451 0.41167 0.0
N480 N 0.13698 0.04239 0.38298 0.0
N481 N 0.03807 0.93878 0.43925 0.0
C482 C 0.10716 0.02242 0.39672 0.0
C483 C 0.05698 0.9703 0.42566 0.0
N484 N 0.02347 0.96437 0.38224 0.0
N485 N 0.12418 0.04568 0.4404 0.0
H486 H 0.00229 0.90309 0.43938 0.0
H487 H 0.06098 0.9442 0.45021 0.0
H488 H 0.16011 0.08098 0.44126 0.0
H489 H 0.10203 0.03548 0.45129 0.0
H490 H 0.03363 0.98721 0.37146 0.0
H491 H 0.9853 0.93138 0.38149 0.0
H492 H 0.12675 0.02354 0.37175 0.0
H493 H 0.17561 0.07498 0.3829 0.0
C494 C 0.02561 0.49024 0.66793 0.0
C495 C 0.03366 0.45227 0.68191 0.0
C496 C 0.94659 0.5137 0.69523 0.0
C497 C 0.94233 0.55461 0.68167 0.0
N498 N 0.98369 0.5885 0.656 0.0
N499 N 0.00807 0.43147 0.70949 0.0
C500 C 0.98396 0.5451 0.66834 0.0
C501 C 0.99571 0.46487 0.69575 0.0
N502 N 0.0546 0.47151 0.65393 0.0
N503 N 0.90329 0.52129 0.70749 0.0
H504 H 0.04391 0.39583 0.71025 0.0
H505 H 0.9862 0.44192 0.7204 0.0
H506 H 0.86869 0.55831 0.70772 0.0
H507 H 0.89902 0.48909 0.71699 0.0
H508 H 0.04454 0.49274 0.64295 0.0
H509 H 0.08409 0.43055 0.65287 0.0
H510 H 0.01855 0.58875 0.64697 0.0
H511 H 0.95157 0.62752 0.65531 0.0
C512 C 0.2893 0.30123 0.34602 0.0
C513 C 0.22387 0.28143 0.34526 0.0
C514 C 0.21509 0.29657 0.37398 0.0
C515 C 0.2831 0.29047 0.3749 0.0
N516 N 0.38684 0.30011 0.3621 0.0
N517 N 0.11993 0.27317 0.35809 0.0
C518 C 0.32096 0.29872 0.36098 0.0
C519 C 0.18483 0.28474 0.35913 0.0
N520 N 0.3204 0.32162 0.33259 0.0
N521 N 0.18042 0.31268 0.38725 0.0
H522 H 0.09717 0.26698 0.34709 0.0
H523 H 0.08985 0.26797 0.36802 0.0
H524 H 0.2039 0.32738 0.39762 0.0
H525 H 0.13044 0.31997 0.38725 0.0
H526 H 0.36784 0.33884 0.33255 0.0
H527 H 0.29507 0.3295 0.32204 0.0
H528 H 0.41763 0.29891 0.35222 0.0
H529 H 0.40998 0.30043 0.37317 0.0
C530 C 0.78316 0.67613 0.59914 0.0
C531 C 0.80042 0.73473 0.59145 0.0
C532 C 0.78879 0.79443 0.6165 0.0
C533 C 0.785 0.7343 0.62454 0.0
N534 N 0.77222 0.61841 0.62428 0.0
N535 N 0.81503 0.85064 0.59191 0.0
C536 C 0.77881 0.67524 0.61605 0.0
C537 C 0.80042 0.79454 0.59982 0.0
N538 N 0.77271 0.62156 0.59024 0.0
N539 N 0.78269 0.85096 0.62494 0.0
H540 H 0.82077 0.85239 0.57956 0.0
H541 H 0.82376 0.89483 0.59751 0.0
H542 H 0.7746 0.8517 0.63723 0.0
H543 H 0.78035 0.8967 0.61973 0.0
H544 H 0.75584 0.578 0.59492 0.0
H545 H 0.77624 0.62147 0.57782 0.0
H546 H 0.77456 0.57264 0.61906 0.0
H547 H 0.76606 0.61726 0.63665 0.0
C548 C 0.30367 0.33272 0.85159 0.0
C549 C 0.24405 0.34324 0.84365 0.0
C550 C 0.18869 0.36346 0.86901 0.0
C551 C 0.24836 0.35342 0.87694 0.0
N552 N 0.35921 0.31636 0.87673 0.0
N553 N 0.12784 0.35415 0.84441 0.0
C554 C 0.30477 0.33382 0.86851 0.0
C555 C 0.18579 0.35398 0.85227 0.0
N556 N 0.35966 0.32542 0.84295 0.0
N557 N 0.13568 0.38459 0.87742 0.0
H558 H 0.1244 0.34679 0.83212 0.0
H559 H 0.08297 0.35596 0.85011 0.0
H560 H 0.13556 0.38987 0.8898 0.0
H561 H 0.09292 0.40032 0.87212 0.0
H562 H 0.40572 0.32581 0.84796 0.0
H563 H 0.36057 0.32272 0.83053 0.0
H564 H 0.39992 0.29545 0.87142 0.0
H565 H 0.36191 0.31816 0.88914 0.0
C566 C 0.69883 0.66137 0.09364 0.0
C567 C 0.71162 0.72748 0.09028 0.0
C568 C 0.75878 0.74119 0.11672 0.0
C569 C 0.72923 0.68213 0.12125 0.0
N570 N 0.68719 0.57803 0.114 0.0
N571 N 0.7617 0.82876 0.09735 0.0
C572 C 0.70597 0.6389 0.10951 0.0
C573 C 0.74576 0.76652 0.10131 0.0
N574 N 0.67804 0.62145 0.08171 0.0
N575 N 0.79816 0.77276 0.12718 0.0
H576 H 0.7545 0.84735 0.08592 0.0
H577 H 0.77984 0.86241 0.10544 0.0
H578 H 0.81104 0.75241 0.13808 0.0
H579 H 0.82384 0.81466 0.12436 0.0
H580 H 0.66973 0.572 0.08302 0.0
H581 H 0.67321 0.63771 0.07002 0.0
H582 H 0.66387 0.54508 0.10659 0.0
H583 H 0.69521 0.5608 0.12554 0.0
C584 C 0.70593 0.69 0.8493 0.0
C585 C 0.76353 0.69739 0.84027 0.0
C586 C 0.82542 0.71924 0.8645 0.0
C587 C 0.76996 0.7024 0.87359 0.0
N588 N 0.6572 0.67233 0.87527 0.0
N589 N 0.87806 0.71874 0.83851 0.0
C590 C 0.70984 0.6887 0.86616 0.0
C591 C 0.82323 0.71291 0.84763 0.0
N592 N 0.6477 0.68433 0.84167 0.0
N593 N 0.88003 0.7406 0.87203 0.0
H594 H 0.8774 0.71685 0.82607 0.0
H595 H 0.92455 0.72247 0.84318 0.0
H596 H 0.88323 0.74449 0.88442 0.0
H597 H 0.92039 0.75898 0.8661 0.0
H598 H 0.60304 0.68464 0.84748 0.0
H599 H 0.64355 0.68437 0.82926 0.0
H600 H 0.61437 0.65363 0.87067 0.0
H601 H 0.6573 0.67482 0.88768 0.0
C602 C 0.25292 0.18577 0.11653 0.0
C603 C 0.26308 0.2343 0.12815 0.0
C604 C 0.24242 0.31878 0.10845 0.0
C605 C 0.24704 0.27103 0.09638 0.0
N606 N 0.25368 0.15829 0.08847 0.0
N607 N 0.26382 0.34684 0.13603 0.0
C608 C 0.24944 0.20401 0.10027 0.0
C609 C 0.255 0.30088 0.12447 0.0
N610 N 0.24762 0.12239 0.12113 0.0
N611 N 0.2273 0.38117 0.10439 0.0
H612 H 0.2715 0.33508 0.14797 0.0
H613 H 0.26631 0.39639 0.13374 0.0
H614 H 0.21783 0.39455 0.09261 0.0
H615 H 0.21845 0.41786 0.11267 0.0
H616 H 0.23477 0.08492 0.11343 0.0
H617 H 0.25019 0.10833 0.13307 0.0
H618 H 0.26448 0.10967 0.09056 0.0
H619 H 0.24939 0.16922 0.0764 0.0
C620 C 0.69836 0.72558 0.35433 0.0
C621 C 0.7416 0.73215 0.34133 0.0
C622 C 0.83422 0.73274 0.35916 0.0
C623 C 0.79033 0.73964 0.37204 0.0
N624 N 0.68488 0.71667 0.38306 0.0
N625 N 0.84874 0.71556 0.33066 0.0
C626 C 0.72366 0.72602 0.37003 0.0
C627 C 0.80918 0.72549 0.34353 0.0
N628 N 0.63325 0.72376 0.35149 0.0
N629 N 0.89921 0.73762 0.36194 0.0
H630 H 0.83049 0.70932 0.31919 0.0
H631 H 0.89848 0.70788 0.33144 0.0
H632 H 0.91761 0.74031 0.37351 0.0
H633 H 0.93437 0.73986 0.35303 0.0
H634 H 0.59781 0.72595 0.36034 0.0
H635 H 0.61499 0.72102 0.3399 0.0
H636 H 0.63618 0.70397 0.38242 0.0
H637 H 0.70314 0.71592 0.39462 0.0
C638 C 0.2201 0.20192 0.62049 0.0
C639 C 0.20776 0.2624 0.62798 0.0
C640 C 0.22287 0.31906 0.60262 0.0
C641 C 0.2231 0.25813 0.59483 0.0
N642 N 0.22578 0.14144 0.59565 0.0
N643 N 0.20201 0.37902 0.6271 0.0
C644 C 0.2243 0.19943 0.6036 0.0
C645 C 0.21165 0.32136 0.61934 0.0
N646 N 0.22629 0.14701 0.6295 0.0
N647 N 0.23218 0.37429 0.59389 0.0
H648 H 0.1972 0.38207 0.63949 0.0
H649 H 0.1969 0.4235 0.62139 0.0
H650 H 0.24036 0.37324 0.5816 0.0
H651 H 0.23677 0.42037 0.59883 0.0
H652 H 0.24084 0.10229 0.62494 0.0
H653 H 0.22161 0.14699 0.64189 0.0
H654 H 0.21834 0.09663 0.60105 0.0
H655 H 0.2322 0.13836 0.58333 0.0
C656 C 0.25759 0.11908 0.24734 0.0
C657 C 0.23895 0.18052 0.25362 0.0
C658 C 0.22795 0.22439 0.22668 0.0
C659 C 0.24556 0.16274 0.22043 0.0
N660 N 0.26587 0.04848 0.22427 0.0
N661 N 0.19369 0.28714 0.24976 0.0
C662 C 0.25624 0.10899 0.23061 0.0
C663 C 0.22038 0.23196 0.24342 0.0
N664 N 0.28054 0.07169 0.25727 0.0
N665 N 0.21952 0.27583 0.2166 0.0
H666 H 0.18692 0.29376 0.26199 0.0
H667 H 0.17322 0.32401 0.24295 0.0
H668 H 0.22031 0.27118 0.2042 0.0
H669 H 0.21478 0.32365 0.22045 0.0
H670 H 0.30286 0.02931 0.25325 0.0
H671 H 0.28198 0.0763 0.26963 0.0
H672 H 0.26622 0.00621 0.23105 0.0
H673 H 0.2688 0.03956 0.21205 0.0
C674 C 0.78907 0.74707 0.47101 0.0
C675 C 0.82303 0.80006 0.46419 0.0
C676 C 0.82412 0.85576 0.48995 0.0
C677 C 0.79825 0.79912 0.49712 0.0
N678 N 0.75838 0.68967 0.49511 0.0
N679 N 0.87976 0.90172 0.46715 0.0
C680 C 0.78102 0.74446 0.48781 0.0
C681 C 0.84172 0.85405 0.4736 0.0
N682 N 0.76293 0.70046 0.46137 0.0
N683 N 0.83277 0.91082 0.49882 0.0
H684 H 0.89459 0.90198 0.45525 0.0
H685 H 0.90142 0.93822 0.47385 0.0
H686 H 0.82281 0.91343 0.511 0.0
H687 H 0.84484 0.95556 0.49389 0.0
H688 H 0.73215 0.66411 0.46549 0.0
H689 H 0.76754 0.70116 0.44898 0.0
H690 H 0.75261 0.64545 0.48927 0.0
H691 H 0.74824 0.68764 0.50731 0.0
C692 C 0.20607 0.16501 0.72858 0.0
C693 C 0.2502 0.20734 0.72084 0.0
C694 C 0.30553 0.22329 0.74616 0.0
C695 C 0.24736 0.2047 0.75398 0.0
N696 N 0.1535 0.13433 0.75329 0.0
N697 N 0.35918 0.24897 0.72108 0.0
C698 C 0.20136 0.16713 0.74547 0.0
C699 C 0.30617 0.22726 0.72925 0.0
N700 N 0.17245 0.1204 0.71987 0.0
N701 N 0.35939 0.23593 0.75504 0.0
H702 H 0.36403 0.2423 0.70879 0.0
H703 H 0.39882 0.27122 0.72639 0.0
H704 H 0.35973 0.22869 0.76738 0.0
H705 H 0.40443 0.24789 0.75028 0.0
H706 H 0.14232 0.08545 0.72491 0.0
H707 H 0.18184 0.11281 0.70777 0.0
H708 H 0.11285 0.11561 0.74759 0.0
H709 H 0.15573 0.12374 0.76541 0.0
C710 C 0.63235 0.80306 0.97073 0.0
C711 C 0.69415 0.81097 0.96357 0.0
C712 C 0.74355 0.81968 -0.01002 0.0
C713 C 0.68476 0.7972 -0.00322 0.0
N714 N 0.57361 0.76221 -0.00646 0.0
N715 N 0.80803 0.83336 0.96592 0.0
C716 C 0.62874 0.7888 -0.01278 0.0
C717 C 0.74952 0.8223 0.97311 0.0
N718 N 0.57727 0.80765 0.96181 0.0
N719 N 0.79305 0.83886 -0.00032 0.0
H720 H 0.81246 0.84004 0.95362 0.0
H721 H 0.85195 0.83402 0.97198 0.0
H722 H 0.78941 0.83795 0.0121 0.0
H723 H 0.83531 0.8607 -0.00447 0.0
H724 H 0.53093 0.80816 0.96679 0.0
H725 H 0.57747 0.81861 0.9497 0.0
H726 H 0.53448 0.74734 -0.01336 0.0
H727 H 0.56866 0.74928 0.00549 0.0
C728 C 0.27849 0.20952 -0.0053 0.0
C729 C 0.22562 0.2445 0.00126 0.0
C730 C 0.18725 0.26583 0.97426 0.0
C731 C 0.2509 0.25207 0.96855 0.0
N732 N 0.35824 0.20827 0.97369 0.0
N733 N 0.11662 0.28265 -0.00278 0.0
C734 C 0.29651 0.22146 0.97871 0.0
C735 C 0.17527 0.26496 -0.00902 0.0
N736 N 0.31049 0.16456 0.00365 0.0
N737 N 0.13881 0.27846 0.96362 0.0
H738 H 0.10384 0.272 0.00899 0.0
H739 H 0.08041 0.30597 -0.00921 0.0
H740 H 0.14617 0.27604 0.9513 0.0
H741 H 0.09056 0.28587 0.9668 0.0
H742 H 0.34706 0.13492 -0.00097 0.0
H743 H 0.29399 0.1511 0.01497 0.0
H744 H 0.39435 0.19242 0.98144 0.0
H745 H 0.37524 0.21793 0.96224 0.0
C746 C 0.73376 0.72093 0.24237 0.0
C747 C 0.69866 0.77508 0.24835 0.0
C748 C 0.69274 0.82164 0.22157 0.0
C749 C 0.72083 0.76383 0.21537 0.0
N750 N 0.76541 0.65689 0.21931 0.0
N751 N 0.63865 0.87395 0.24387 0.0
C752 C 0.74082 0.71305 0.22563 0.0
C753 C 0.67716 0.82511 0.23805 0.0
N754 N 0.762 0.67829 0.25274 0.0
N755 N 0.68019 0.87289 0.21168 0.0
H756 H 0.62602 0.87816 0.25589 0.0
H757 H 0.61481 0.9075 0.2367 0.0
H758 H 0.6876 0.87143 0.19938 0.0
H759 H 0.6667 0.91873 0.21575 0.0
H760 H 0.79374 0.64159 0.24921 0.0
H761 H 0.75797 0.68275 0.2651 0.0
H762 H 0.77328 0.61494 0.22593 0.0
H763 H 0.77508 0.65115 0.20715 0.0
C764 C 0.32815 0.25848 0.47667 0.0
C765 C 0.30722 0.20409 0.46774 0.0
C766 C 0.2939 0.14103 0.49228 0.0
C767 C 0.30471 0.19846 0.50121 0.0
N768 N 0.33353 0.31153 0.5025 0.0
N769 N 0.26735 0.09401 0.46666 0.0
C770 C 0.32296 0.25702 0.49357 0.0
C771 C 0.29065 0.14494 0.4754 0.0
N772 N 0.3539 0.31087 0.46893 0.0
N773 N 0.28531 0.08307 0.49993 0.0
H774 H 0.26507 0.0941 0.45425 0.0
H775 H 0.2461 0.05301 0.47166 0.0
H776 H 0.28411 0.07852 0.51231 0.0
H777 H 0.28449 0.03849 0.49409 0.0
H778 H 0.37539 0.34993 0.47472 0.0
H779 H 0.35875 0.31274 0.45654 0.0
H780 H 0.33907 0.3577 0.49768 0.0
H781 H 0.33428 0.31088 0.51495 0.0
C782 C 0.65404 0.7548 0.72639 0.0
C783 C 0.70098 0.78599 0.71671 0.0
C784 C 0.74407 0.84275 0.73991 0.0
C785 C 0.71251 0.79587 0.74955 0.0
N786 N 0.61122 0.74024 0.75325 0.0
N787 N 0.75648 0.88755 0.71323 0.0
C788 C 0.65839 0.76244 0.74318 0.0
C789 C 0.73524 0.8395 0.72314 0.0
N790 N 0.60612 0.71881 0.71958 0.0
N791 N 0.78173 0.88952 0.74667 0.0
H792 H 0.74446 0.88806 0.70115 0.0
H793 H 0.77936 0.92961 0.71712 0.0
H794 H 0.77917 0.90042 0.75881 0.0
H795 H 0.81324 0.91901 0.74023 0.0
H796 H 0.57552 0.68809 0.72594 0.0
H797 H 0.59561 0.72201 0.70745 0.0
H798 H 0.56905 0.71733 0.74952 0.0
H799 H 0.61196 0.75084 0.76544 0.0
loop_
_geom_bond_atom_site_label_1
_geom_bond_atom_site_label_2
_geom_bond_distance
_geom_bond_site_symmetry_2
_ccdc_geom_bond_type
C0 O1 1.306 . S
C0 O3 1.160 . S
O1 C0 1.306 . S
O1 Cd2 2.228 . S
Cd2 O1 2.228 . S
Cd2 O6 2.273 . S
Cd2 O10 2.277 . S
O3 C0 1.160 . S
O3 Cd4 2.203 . S
Cd4 O3 2.203 . S
Cd4 O6 2.411 . S
Cd4 O7 2.333 . S
Cd4 O8 2.352 . S
Cd4 O12 2.277 . S
Cd4 O13 2.356 . S
C5 O10 1.209 . S
C5 O12 1.226 . S
O6 Cd2 2.273 . S
O6 Cd4 2.411 . S
O6 C9 1.320 . S
O7 Cd4 2.333 . S
O7 C9 1.214 . S
O8 Cd4 2.352 . S
O8 C11 1.258 . S
C9 O6 1.320 . S
C9 O7 1.214 . S
O10 Cd2 2.277 . S
O10 C5 1.209 . S
C11 O8 1.258 . S
C11 O13 1.282 . S
O12 Cd4 2.277 . S
O12 C5 1.226 . S
O13 Cd4 2.356 . S
O13 C11 1.282 . S
C14 O15 1.306 . S
C14 O17 1.160 . S
O15 C14 1.306 . S
O15 Cd16 2.228 . S
Cd16 O15 2.228 . S
Cd16 O20 2.273 . S
Cd16 O24 2.277 . S
O17 C14 1.160 . S
O17 Cd18 2.203 . S
Cd18 O17 2.203 . S
Cd18 O20 2.411 . S
Cd18 O21 2.333 . S
Cd18 O22 2.352 . S
Cd18 O26 2.277 . S
Cd18 O27 2.356 . S
C19 O24 1.209 . S
C19 O26 1.226 . S
O20 Cd16 2.273 . S
O20 Cd18 2.411 . S
O20 C23 1.320 . S
O21 Cd18 2.333 . S
O21 C23 1.214 . S
O22 Cd18 2.352 . S
O22 C25 1.258 . S
C23 O20 1.320 . S
C23 O21 1.214 . S
O24 Cd16 2.277 . S
O24 C19 1.209 . S
C25 O22 1.258 . S
C25 O27 1.282 . S
O26 Cd18 2.277 . S
O26 C19 1.226 . S
O27 Cd18 2.356 . S
O27 C25 1.282 . S
C28 O29 1.306 . S
C28 O31 1.160 . S
O29 C28 1.306 . S
O29 Cd30 2.228 . S
Cd30 O29 2.228 . S
Cd30 O34 2.273 . S
Cd30 O38 2.277 . S
O31 C28 1.160 . S
O31 Cd32 2.203 . S
Cd32 O31 2.203 . S
Cd32 O34 2.411 . S
Cd32 O35 2.333 . S
Cd32 O36 2.352 . S
Cd32 O40 2.277 . S
Cd32 O41 2.356 . S
C33 O38 1.209 . S
C33 O40 1.226 . S
O34 Cd30 2.273 . S
O34 Cd32 2.411 . S
O34 C37 1.320 . S
O35 Cd32 2.333 . S
O35 C37 1.214 . S
O36 Cd32 2.352 . S
O36 C39 1.258 . S
C37 O34 1.320 . S
C37 O35 1.214 . S
O38 Cd30 2.277 . S
O38 C33 1.209 . S
C39 O36 1.258 . S
C39 O41 1.282 . S
O40 Cd32 2.277 . S
O40 C33 1.226 . S
O41 Cd32 2.356 . S
O41 C39 1.282 . S
C42 O43 1.306 . S
C42 O45 1.160 . S
O43 C42 1.306 . S
O43 Cd44 2.228 . S
Cd44 O43 2.228 . S
Cd44 O48 2.273 . S
Cd44 O52 2.277 . S
O45 C42 1.160 . S
O45 Cd46 2.203 . S
Cd46 O45 2.203 . S
Cd46 O48 2.411 . S
Cd46 O49 2.333 . S
Cd46 O50 2.352 . S
Cd46 O54 2.277 . S
Cd46 O55 2.356 . S
C47 O52 1.209 . S
C47 O54 1.226 . S
O48 Cd44 2.273 . S
O48 Cd46 2.411 . S
O48 C51 1.320 . S
O49 Cd46 2.333 . S
O49 C51 1.214 . S
O50 Cd46 2.352 . S
O50 C53 1.258 . S
C51 O48 1.320 . S
C51 O49 1.214 . S
O52 Cd44 2.277 . S
O52 C47 1.209 . S
C53 O50 1.258 . S
C53 O55 1.282 . S
O54 Cd46 2.277 . S
O54 C47 1.226 . S
O55 Cd46 2.356 . S
O55 C53 1.282 . S
C56 O57 1.306 . S
C56 O59 1.160 . S
O57 C56 1.306 . S
O57 Cd58 2.228 . S
Cd58 O57 2.228 . S
Cd58 O62 2.273 . S
Cd58 O66 2.277 . S
O59 C56 1.160 . S
O59 Cd60 2.203 . S
Cd60 O59 2.203 . S
Cd60 O62 2.411 . S
Cd60 O63 2.333 . S
Cd60 O64 2.352 . S
Cd60 O68 2.277 . S
Cd60 O69 2.356 . S
C61 O66 1.209 . S
C61 O68 1.226 . S
O62 Cd58 2.273 . S
O62 Cd60 2.411 . S
O62 C65 1.320 . S
O63 Cd60 2.333 . S
O63 C65 1.214 . S
O64 Cd60 2.352 . S
O64 C67 1.258 . S
C65 O62 1.320 . S
C65 O63 1.214 . S
O66 Cd58 2.277 . S
O66 C61 1.209 . S
C67 O64 1.258 . S
C67 O69 1.282 . S
O68 Cd60 2.277 . S
O68 C61 1.226 . S
O69 Cd60 2.356 . S
O69 C67 1.282 . S
C70 O71 1.306 . S
C70 O73 1.160 . S
O71 C70 1.306 . S
O71 Cd72 2.228 . S
Cd72 O71 2.228 . S
Cd72 O76 2.273 . S
Cd72 O80 2.277 . S
O73 C70 1.160 . S
O73 Cd74 2.203 . S
Cd74 O73 2.203 . S
Cd74 O76 2.411 . S
Cd74 O77 2.333 . S
Cd74 O78 2.352 . S
Cd74 O82 2.277 . S
Cd74 O83 2.356 . S
C75 O80 1.209 . S
C75 O82 1.226 . S
O76 Cd72 2.273 . S
O76 Cd74 2.411 . S
O76 C79 1.320 . S
O77 Cd74 2.333 . S
O77 C79 1.214 . S
O78 Cd74 2.352 . S
O78 C81 1.258 . S
C79 O76 1.320 . S
C79 O77 1.214 . S
O80 Cd72 2.277 . S
O80 C75 1.209 . S
C81 O78 1.258 . S
C81 O83 1.282 . S
O82 Cd74 2.277 . S
O82 C75 1.226 . S
O83 Cd74 2.356 . S
O83 C81 1.282 . S
C84 O85 1.306 . S
C84 O87 1.160 . S
O85 C84 1.306 . S
O85 Cd86 2.228 . S
Cd86 O85 2.228 . S
Cd86 O90 2.273 . S
Cd86 O94 2.277 . S
O87 C84 1.160 . S
O87 Cd88 2.203 . S
Cd88 O87 2.203 . S
Cd88 O90 2.411 . S
Cd88 O91 2.333 . S
Cd88 O92 2.352 . S
Cd88 O96 2.277 . S
Cd88 O97 2.356 . S
C89 O94 1.209 . S
C89 O96 1.226 . S
O90 Cd86 2.273 . S
O90 Cd88 2.411 . S
O90 C93 1.320 . S
O91 Cd88 2.333 . S
O91 C93 1.214 . S
O92 Cd88 2.352 . S
O92 C95 1.258 . S
C93 O90 1.320 . S
C93 O91 1.214 . S
O94 Cd86 2.277 . S
O94 C89 1.209 . S
C95 O92 1.258 . S
C95 O97 1.282 . S
O96 Cd88 2.277 . S
O96 C89 1.226 . S
O97 Cd88 2.356 . S
O97 C95 1.282 . S
C98 O99 1.306 . S
C98 O101 1.160 . S
O99 C98 1.306 . S
O99 Cd100 2.228 . S
Cd100 O99 2.228 . S
Cd100 O104 2.273 . S
Cd100 O108 2.277 . S
O101 C98 1.160 . S
O101 Cd102 2.203 . S
Cd102 O101 2.203 . S
Cd102 O104 2.411 . S
Cd102 O105 2.333 . S
Cd102 O106 2.352 . S
Cd102 O110 2.277 . S
Cd102 O111 2.356 . S
C103 O108 1.209 . S
C103 O110 1.226 . S
O104 Cd100 2.273 . S
O104 Cd102 2.411 . S
O104 C107 1.320 . S
O105 Cd102 2.333 . S
O105 C107 1.214 . S
O106 Cd102 2.352 . S
O106 C109 1.258 . S
C107 O104 1.320 . S
C107 O105 1.214 . S
O108 Cd100 2.277 . S
O108 C103 1.209 . S
C109 O106 1.258 . S
C109 O111 1.282 . S
O110 Cd102 2.277 . S
O110 C103 1.226 . S
O111 Cd102 2.356 . S
O111 C109 1.282 . S
C112 O113 1.306 . S
C112 O115 1.160 . S
O113 C112 1.306 . S
O113 Cd114 2.228 . S
Cd114 O113 2.228 . S
Cd114 O118 2.273 . S
Cd114 O122 2.277 . S
O115 C112 1.160 . S
O115 Cd116 2.203 . S
Cd116 O115 2.203 . S
Cd116 O118 2.411 . S
Cd116 O119 2.333 . S
Cd116 O120 2.352 . S
Cd116 O124 2.277 . S
Cd116 O125 2.356 . S
C117 O122 1.209 . S
C117 O124 1.226 . S
O118 Cd114 2.273 . S
O118 Cd116 2.411 . S
O118 C121 1.320 . S
O119 Cd116 2.333 . S
O119 C121 1.214 . S
O120 Cd116 2.352 . S
O120 C123 1.258 . S
C121 O118 1.320 . S
C121 O119 1.214 . S
O122 Cd114 2.277 . S
O122 C117 1.209 . S
C123 O120 1.258 . S
C123 O125 1.282 . S
O124 Cd116 2.277 . S
O124 C117 1.226 . S
O125 Cd116 2.356 . S
O125 C123 1.282 . S
C126 O127 1.306 . S
C126 O129 1.160 . S
O127 C126 1.306 . S
O127 Cd128 2.228 . S
Cd128 O127 2.228 . S
Cd128 O132 2.273 . S
Cd128 O136 2.277 . S
O129 C126 1.160 . S
O129 Cd130 2.203 . S
Cd130 O129 2.203 . S
Cd130 O132 2.411 . S
Cd130 O133 2.333 . S
Cd130 O134 2.352 . S
Cd130 O138 2.277 . S
Cd130 O139 2.356 . S
C131 O136 1.209 . S
C131 O138 1.226 . S
O132 Cd128 2.273 . S
O132 Cd130 2.411 . S
O132 C135 1.320 . S
O133 Cd130 2.333 . S
O133 C135 1.214 . S
O134 Cd130 2.352 . S
O134 C137 1.258 . S
C135 O132 1.320 . S
C135 O133 1.214 . S
O136 Cd128 2.277 . S
O136 C131 1.209 . S
C137 O134 1.258 . S
C137 O139 1.282 . S
O138 Cd130 2.277 . S
O138 C131 1.226 . S
O139 Cd130 2.356 . S
O139 C137 1.282 . S
C140 O141 1.306 . S
C140 O143 1.160 . S
O141 C140 1.306 . S
O141 Cd142 2.228 . S
Cd142 O141 2.228 . S
Cd142 O146 2.273 . S
Cd142 O150 2.277 . S
O143 C140 1.160 . S
O143 Cd144 2.203 . S
Cd144 O143 2.203 . S
Cd144 O146 2.411 . S
Cd144 O147 2.333 . S
Cd144 O148 2.352 . S
Cd144 O152 2.277 . S
Cd144 O153 2.356 . S
C145 O150 1.209 . S
C145 O152 1.226 . S
O146 Cd142 2.273 . S
O146 Cd144 2.411 . S
O146 C149 1.320 . S
O147 Cd144 2.333 . S
O147 C149 1.214 . S
O148 Cd144 2.352 . S
O148 C151 1.258 . S
C149 O146 1.320 . S
C149 O147 1.214 . S
O150 Cd142 2.277 . S
O150 C145 1.209 . S
C151 O148 1.258 . S
C151 O153 1.282 . S
O152 Cd144 2.277 . S
O152 C145 1.226 . S
O153 Cd144 2.356 . S
O153 C151 1.282 . S
C154 O155 1.306 . S
C154 O157 1.160 . S
O155 C154 1.306 . S
O155 Cd156 2.228 . S
Cd156 O155 2.228 . S
Cd156 O160 2.273 . S
Cd156 O164 2.277 . S
O157 C154 1.160 . S
O157 Cd158 2.203 . S
Cd158 O157 2.203 . S
Cd158 O160 2.411 . S
Cd158 O161 2.333 . S
Cd158 O162 2.352 . S
Cd158 O166 2.277 . S
Cd158 O167 2.356 . S
C159 O164 1.209 . S
C159 O166 1.226 . S
O160 Cd156 2.273 . S
O160 Cd158 2.411 . S
O160 C163 1.320 . S
O161 Cd158 2.333 . S
O161 C163 1.214 . S
O162 Cd158 2.352 . S
O162 C165 1.258 . S
C163 O160 1.320 . S
C163 O161 1.214 . S
O164 Cd156 2.277 . S
O164 C159 1.209 . S
C165 O162 1.258 . S
C165 O167 1.282 . S
O166 Cd158 2.277 . S
O166 C159 1.226 . S
O167 Cd158 2.356 . S
O167 C165 1.282 . S
C168 O169 1.306 . S
C168 O171 1.160 . S
O169 C168 1.306 . S
O169 Cd170 2.228 . S
Cd170 O169 2.228 . S
Cd170 O174 2.273 . S
Cd170 O178 2.277 . S
O171 C168 1.160 . S
O171 Cd172 2.203 . S
Cd172 O171 2.203 . S
Cd172 O174 2.411 . S
Cd172 O175 2.333 . S
Cd172 O176 2.352 . S
Cd172 O180 2.277 . S
Cd172 O181 2.356 . S
C173 O178 1.209 . S
C173 O180 1.226 . S
O174 Cd170 2.273 . S
O174 Cd172 2.411 . S
O174 C177 1.320 . S
O175 Cd172 2.333 . S
O175 C177 1.214 . S
O176 Cd172 2.352 . S
O176 C179 1.258 . S
C177 O174 1.320 . S
C177 O175 1.214 . S
O178 Cd170 2.277 . S
O178 C173 1.209 . S
C179 O176 1.258 . S
C179 O181 1.282 . S
O180 Cd172 2.277 . S
O180 C173 1.226 . S
O181 Cd172 2.356 . S
O181 C179 1.282 . S
C182 O183 1.306 . S
C182 O185 1.160 . S
O183 C182 1.306 . S
O183 Cd184 2.228 . S
Cd184 O183 2.228 . S
Cd184 O188 2.273 . S
Cd184 O192 2.277 . S
O185 C182 1.160 . S
O185 Cd186 2.203 . S
Cd186 O185 2.203 . S
Cd186 O188 2.411 . S
Cd186 O189 2.333 . S
Cd186 O190 2.352 . S
Cd186 O194 2.277 . S
Cd186 O195 2.356 . S
C187 O192 1.209 . S
C187 O194 1.226 . S
O188 Cd184 2.273 . S
O188 Cd186 2.411 . S
O188 C191 1.320 . S
O189 Cd186 2.333 . S
O189 C191 1.214 . S
O190 Cd186 2.352 . S
O190 C193 1.258 . S
C191 O188 1.320 . S
C191 O189 1.214 . S
O192 Cd184 2.277 . S
O192 C187 1.209 . S
C193 O190 1.258 . S
C193 O195 1.282 . S
O194 Cd186 2.277 . S
O194 C187 1.226 . S
O195 Cd186 2.356 . S
O195 C193 1.282 . S
C196 O197 1.306 . S
C196 O199 1.160 . S
O197 C196 1.306 . S
O197 Cd198 2.228 . S
Cd198 O197 2.228 . S
Cd198 O202 2.273 . S
Cd198 O206 2.277 . S
O199 C196 1.160 . S
O199 Cd200 2.203 . S
Cd200 O199 2.203 . S
Cd200 O202 2.411 . S
Cd200 O203 2.333 . S
Cd200 O204 2.352 . S
Cd200 O208 2.277 . S
Cd200 O209 2.356 . S
C201 O206 1.209 . S
C201 O208 1.226 . S
O202 Cd198 2.273 . S
O202 Cd200 2.411 . S
O202 C205 1.320 . S
O203 Cd200 2.333 . S
O203 C205 1.214 . S
O204 Cd200 2.352 . S
O204 C207 1.258 . S
C205 O202 1.320 . S
C205 O203 1.214 . S
O206 Cd198 2.277 . S
O206 C201 1.209 . S
C207 O204 1.258 . S
C207 O209 1.282 . S
O208 Cd200 2.277 . S
O208 C201 1.226 . S
O209 Cd200 2.356 . S
O209 C207 1.282 . S
C210 O211 1.306 . S
C210 O213 1.160 . S
O211 C210 1.306 . S
O211 Cd212 2.228 . S
Cd212 O211 2.228 . S
Cd212 O216 2.273 . S
Cd212 O220 2.277 . S
O213 C210 1.160 . S
O213 Cd214 2.203 . S
Cd214 O213 2.203 . S
Cd214 O216 2.411 . S
Cd214 O217 2.333 . S
Cd214 O218 2.352 . S
Cd214 O222 2.277 . S
Cd214 O223 2.356 . S
C215 O220 1.209 . S
C215 O222 1.226 . S
O216 Cd212 2.273 . S
O216 Cd214 2.411 . S
O216 C219 1.320 . S
O217 Cd214 2.333 . S
O217 C219 1.214 . S
O218 Cd214 2.352 . S
O218 C221 1.258 . S
C219 O216 1.320 . S
C219 O217 1.214 . S
O220 Cd212 2.277 . S
O220 C215 1.209 . S
C221 O218 1.258 . S
C221 O223 1.282 . S
O222 Cd214 2.277 . S
O222 C215 1.226 . S
O223 Cd214 2.356 . S
O223 C221 1.282 . S
C224 C225 1.363 1_545 S
C224 C230 1.379 1_655 S
C224 N232 1.356 . S
C225 C224 1.363 1_565 S
C225 C231 1.363 . S
C226 C227 1.363 1_565 S
C226 C231 1.379 1_455 S
C226 N233 1.356 . S
C227 C226 1.363 1_545 S
C227 C230 1.363 . S
N228 C230 1.356 . S
N228 H240 0.984 . S
N228 H241 0.985 . S
N229 C231 1.356 . S
N229 H234 0.984 . S
N229 H235 0.985 . S
C230 C224 1.379 1_455 S
C230 C227 1.363 . S
C230 N228 1.356 . S
C231 C225 1.363 . S
C231 C226 1.379 1_655 S
C231 N229 1.356 . S
N232 C224 1.356 . S
N232 H238 0.984 . S
N232 H239 0.984 1_545 S
N233 C226 1.356 . S
N233 H236 0.984 1_565 S
N233 H237 0.985 . S
H234 N229 0.984 . S
H235 N229 0.985 . S
H236 N233 0.984 1_545 S
H237 N233 0.985 . S
H238 N232 0.984 . S
H239 N232 0.984 1_565 S
H240 N228 0.984 . S
H241 N228 0.985 . S
C242 C243 1.363 . S
C242 C248 1.379 . S
C242 N250 1.356 . S
C243 C242 1.363 . S
C243 C249 1.363 1_655 S
C244 C245 1.363 . S
C244 C249 1.379 . S
C244 N251 1.356 . S
C245 C244 1.363 . S
C245 C248 1.363 1_455 S
N246 C248 1.356 . S
N246 H258 0.984 . S
N246 H259 0.985 1_655 S
N247 C249 1.356 . S
N247 H252 0.984 1_455 S
N247 H253 0.985 . S
C248 C242 1.379 . S
C248 C245 1.363 1_655 S
C248 N246 1.356 . S
C249 C243 1.363 1_455 S
C249 C244 1.379 . S
C249 N247 1.356 . S
N250 C242 1.356 . S
N250 H256 0.984 . S
N250 H257 0.984 . S
N251 C244 1.356 . S
N251 H254 0.984 . S
N251 H255 0.985 . S
H252 N247 0.984 1_655 S
H253 N247 0.985 . S
H254 N251 0.984 . S
H255 N251 0.985 . S
H256 N250 0.984 . S
H257 N250 0.984 . S
H258 N246 0.984 . S
H259 N246 0.985 1_455 S
C260 C261 1.363 . S
C260 C266 1.379 . S
C260 N268 1.356 . S
C261 C260 1.363 . S
C261 C267 1.363 . S
C262 C263 1.363 . S
C262 C267 1.379 . S
C262 N269 1.356 . S
C263 C262 1.363 . S
C263 C266 1.363 . S
N264 C266 1.356 . S
N264 H276 0.984 . S
N264 H277 0.985 . S
N265 C267 1.356 . S
N265 H270 0.984 . S
N265 H271 0.985 . S
C266 C260 1.379 . S
C266 C263 1.363 . S
C266 N264 1.356 . S
C267 C261 1.363 . S
C267 C262 1.379 . S
C267 N265 1.356 . S
N268 C260 1.356 . S
N268 H274 0.984 . S
N268 H275 0.984 . S
N269 C262 1.356 . S
N269 H272 0.984 . S
N269 H273 0.985 . S
H270 N265 0.984 . S
H271 N265 0.985 . S
H272 N269 0.984 . S
H273 N269 0.985 . S
H274 N268 0.984 . S
H275 N268 0.984 . S
H276 N264 0.984 . S
H277 N264 0.985 . S
C278 C279 1.363 . S
C278 C284 1.379 1_545 S
C278 N286 1.356 . S
C279 C278 1.363 . S
C279 C285 1.363 . S
C280 C281 1.363 . S
C280 C285 1.379 1_565 S
C280 N287 1.356 . S
C281 C280 1.363 . S
C281 C284 1.363 . S
N282 C284 1.356 . S
N282 H294 0.984 . S
N282 H295 0.985 . S
N283 C285 1.356 . S
N283 H288 0.984 . S
N283 H289 0.985 . S
C284 C278 1.379 1_565 S
C284 C281 1.363 . S
C284 N282 1.356 . S
C285 C279 1.363 . S
C285 C280 1.379 1_545 S
C285 N283 1.356 . S
N286 C278 1.356 . S
N286 H292 0.984 . S
N286 H293 0.984 . S
N287 C280 1.356 . S
N287 H290 0.984 . S
N287 H291 0.985 . S
H288 N283 0.984 . S
H289 N283 0.985 . S
H290 N287 0.984 . S
H291 N287 0.985 . S
H292 N286 0.984 . S
H293 N286 0.984 . S
H294 N282 0.984 . S
H295 N282 0.985 . S
C296 C297 1.363 . S
C296 C302 1.379 1_455 S
C296 N304 1.356 . S
C297 C296 1.363 . S
C297 C303 1.363 . S
C298 C299 1.363 . S
C298 C303 1.379 1_655 S
C298 N305 1.356 . S
C299 C298 1.363 . S
C299 C302 1.363 . S
N300 C302 1.356 . S
N300 H312 0.984 . S
N300 H313 0.985 . S
N301 C303 1.356 . S
N301 H306 0.984 . S
N301 H307 0.985 . S
C302 C296 1.379 1_655 S
C302 C299 1.363 . S
C302 N300 1.356 . S
C303 C297 1.363 . S
C303 C298 1.379 1_455 S
C303 N301 1.356 . S
N304 C296 1.356 . S
N304 H310 0.984 . S
N304 H311 0.984 . S
N305 C298 1.356 . S
N305 H308 0.984 . S
N305 H309 0.985 . S
H306 N301 0.984 . S
H307 N301 0.985 . S
H308 N305 0.984 . S
H309 N305 0.985 . S
H310 N304 0.984 . S
H311 N304 0.984 . S
H312 N300 0.984 . S
H313 N300 0.985 . S
C314 C315 1.363 . S
C314 C320 1.379 . S
C314 N322 1.356 . S
C315 C314 1.363 . S
C315 C321 1.363 . S
C316 C317 1.363 . S
C316 C321 1.379 . S
C316 N323 1.356 . S
C317 C316 1.363 . S
C317 C320 1.363 . S
N318 C320 1.356 . S
N318 H330 0.984 . S
N318 H331 0.985 . S
N319 C321 1.356 . S
N319 H324 0.984 . S
N319 H325 0.985 . S
C320 C314 1.379 . S
C320 C317 1.363 . S
C320 N318 1.356 . S
C321 C315 1.363 . S
C321 C316 1.379 . S
C321 N319 1.356 . S
N322 C314 1.356 . S
N322 H328 0.984 . S
N322 H329 0.984 . S
N323 C316 1.356 . S
N323 H326 0.984 . S
N323 H327 0.985 . S
H324 N319 0.984 . S
H325 N319 0.985 . S
H326 N323 0.984 . S
H327 N323 0.985 . S
H328 N322 0.984 . S
H329 N322 0.984 . S
H330 N318 0.984 . S
H331 N318 0.985 . S
C332 C333 1.363 . S
C332 C338 1.379 . S
C332 N340 1.356 . S
C333 C332 1.363 . S
C333 C339 1.363 1_545 S
C334 C335 1.363 . S
C334 C339 1.379 . S
C334 N341 1.356 . S
C335 C334 1.363 . S
C335 C338 1.363 1_565 S
N336 C338 1.356 . S
N336 H348 0.984 . S
N336 H349 0.985 1_545 S
N337 C339 1.356 . S
N337 H342 0.984 1_565 S
N337 H343 0.985 . S
C338 C332 1.379 . S
C338 C335 1.363 1_545 S
C338 N336 1.356 . S
C339 C333 1.363 1_565 S
C339 C334 1.379 . S
C339 N337 1.356 . S
N340 C332 1.356 . S
N340 H346 0.984 . S
N340 H347 0.984 . S
N341 C334 1.356 . S
N341 H344 0.984 . S
N341 H345 0.985 . S
H342 N337 0.984 1_545 S
H343 N337 0.985 . S
H344 N341 0.984 . S
H345 N341 0.985 . S
H346 N340 0.984 . S
H347 N340 0.984 . S
H348 N336 0.984 . S
H349 N336 0.985 1_565 S
C350 C351 1.363 1_655 S
C350 C356 1.379 1_545 S
C350 N358 1.356 . S
C351 C350 1.363 1_455 S
C351 C357 1.363 . S
C352 C353 1.363 1_455 S
C352 C357 1.379 1_565 S
C352 N359 1.356 . S
C353 C352 1.363 1_655 S
C353 C356 1.363 . S
N354 C356 1.356 . S
N354 H366 0.984 . S
N354 H367 0.985 . S
N355 C357 1.356 . S
N355 H360 0.984 . S
N355 H361 0.985 . S
C356 C350 1.379 1_565 S
C356 C353 1.363 . S
C356 N354 1.356 . S
C357 C351 1.363 . S
C357 C352 1.379 1_545 S
C357 N355 1.356 . S
N358 C350 1.356 . S
N358 H364 0.984 . S
N358 H365 0.984 1_655 S
N359 C352 1.356 . S
N359 H362 0.984 1_455 S
N359 H363 0.985 . S
H360 N355 0.984 . S
H361 N355 0.985 . S
H362 N359 0.984 1_655 S
H363 N359 0.985 . S
H364 N358 0.984 . S
H365 N358 0.984 1_455 S
H366 N354 0.984 . S
H367 N354 0.985 . S
C368 C369 1.363 1_545 S
C368 C374 1.379 . S
C368 N376 1.356 . S
C369 C368 1.363 1_565 S
C369 C375 1.363 . S
C370 C371 1.363 1_565 S
C370 C375 1.379 . S
C370 N377 1.356 . S
C371 C370 1.363 1_545 S
C371 C374 1.363 . S
N372 C374 1.356 . S
N372 H384 0.984 . S
N372 H385 0.985 . S
N373 C375 1.356 . S
N373 H378 0.984 . S
N373 H379 0.985 . S
C374 C368 1.379 . S
C374 C371 1.363 . S
C374 N372 1.356 . S
C375 C369 1.363 . S
C375 C370 1.379 . S
C375 N373 1.356 . S
N376 C368 1.356 . S
N376 H382 0.984 . S
N376 H383 0.984 1_545 S
N377 C370 1.356 . S
N377 H380 0.984 1_565 S
N377 H381 0.985 . S
H378 N373 0.984 . S
H379 N373 0.985 . S
H380 N377 0.984 1_545 S
H381 N377 0.985 . S
H382 N376 0.984 . S
H383 N376 0.984 1_565 S
H384 N372 0.984 . S
H385 N372 0.985 . S
C386 C387 1.363 . S
C386 C392 1.379 1_565 S
C386 N394 1.356 . S
C387 C386 1.363 . S
C387 C393 1.363 1_655 S
C388 C389 1.363 . S
C388 C393 1.379 1_545 S
C388 N395 1.356 . S
C389 C388 1.363 . S
C389 C392 1.363 1_455 S
N390 C392 1.356 . S
N390 H402 0.984 . S
N390 H403 0.985 1_655 S
N391 C393 1.356 . S
N391 H396 0.984 1_455 S
N391 H397 0.985 . S
C392 C386 1.379 1_545 S
C392 C389 1.363 1_655 S
C392 N390 1.356 . S
C393 C387 1.363 1_455 S
C393 C388 1.379 1_565 S
C393 N391 1.356 . S
N394 C386 1.356 . S
N394 H400 0.984 . S
N394 H401 0.984 . S
N395 C388 1.356 . S
N395 H398 0.984 . S
N395 H399 0.985 . S
H396 N391 0.984 1_655 S
H397 N391 0.985 . S
H398 N395 0.984 . S
H399 N395 0.985 . S
H400 N394 0.984 . S
H401 N394 0.984 . S
H402 N390 0.984 . S
H403 N390 0.985 1_455 S
C404 C405 1.363 . S
C404 C410 1.379 1_455 S
C404 N412 1.356 . S
C405 C404 1.363 . S
C405 C411 1.363 . S
C406 C407 1.363 . S
C406 C411 1.379 1_655 S
C406 N413 1.356 . S
C407 C406 1.363 . S
C407 C410 1.363 . S
N408 C410 1.356 . S
N408 H420 0.984 . S
N408 H421 0.985 . S
N409 C411 1.356 . S
N409 H414 0.984 . S
N409 H415 0.985 . S
C410 C404 1.379 1_655 S
C410 C407 1.363 . S
C410 N408 1.356 . S
C411 C405 1.363 . S
C411 C406 1.379 1_455 S
C411 N409 1.356 . S
N412 C404 1.356 . S
N412 H418 0.984 . S
N412 H419 0.984 . S
N413 C406 1.356 . S
N413 H416 0.984 . S
N413 H417 0.985 . S
H414 N409 0.984 . S
H415 N409 0.985 . S
H416 N413 0.984 . S
H417 N413 0.985 . S
H418 N412 0.984 . S
H419 N412 0.984 . S
H420 N408 0.984 . S
H421 N408 0.985 . S
C422 C423 1.363 . S
C422 C428 1.379 . S
C422 N430 1.356 . S
C423 C422 1.363 . S
C423 C429 1.363 . S
C424 C425 1.363 . S
C424 C429 1.379 . S
C424 N431 1.356 . S
C425 C424 1.363 . S
C425 C428 1.363 . S
N426 C428 1.356 . S
N426 H438 0.984 . S
N426 H439 0.985 . S
N427 C429 1.356 . S
N427 H432 0.984 . S
N427 H433 0.985 . S
C428 C422 1.379 . S
C428 C425 1.363 . S
C428 N426 1.356 . S
C429 C423 1.363 . S
C429 C424 1.379 . S
C429 N427 1.356 . S
N430 C422 1.356 . S
N430 H436 0.984 . S
N430 H437 0.984 . S
N431 C424 1.356 . S
N431 H434 0.984 . S
N431 H435 0.985 . S
H432 N427 0.984 . S
H433 N427 0.985 . S
H434 N431 0.984 . S
H435 N431 0.985 . S
H436 N430 0.984 . S
H437 N430 0.984 . S
H438 N426 0.984 . S
H439 N426 0.985 . S
C440 C441 1.363 . S
C440 C446 1.379 . S
C440 N448 1.356 . S
C441 C440 1.363 . S
C441 C447 1.363 . S
C442 C443 1.363 . S
C442 C447 1.379 . S
C442 N449 1.356 . S
C443 C442 1.363 . S
C443 C446 1.363 . S
N444 C446 1.356 . S
N444 H456 0.984 . S
N444 H457 0.985 . S
N445 C447 1.356 . S
N445 H450 0.984 . S
N445 H451 0.985 . S
C446 C440 1.379 . S
C446 C443 1.363 . S
C446 N444 1.356 . S
C447 C441 1.363 . S
C447 C442 1.379 . S
C447 N445 1.356 . S
N448 C440 1.356 . S
N448 H454 0.984 . S
N448 H455 0.984 . S
N449 C442 1.356 . S
N449 H452 0.984 . S
N449 H453 0.985 . S
H450 N445 0.984 . S
H451 N445 0.985 . S
H452 N449 0.984 . S
H453 N449 0.985 . S
H454 N448 0.984 . S
H455 N448 0.984 . S
H456 N444 0.984 . S
H457 N444 0.985 . S
C458 C459 1.363 . S
C458 C464 1.379 1_565 S
C458 N466 1.356 . S
C459 C458 1.363 . S
C459 C465 1.363 . S
C460 C461 1.363 . S
C460 C465 1.379 1_545 S
C460 N467 1.356 . S
C461 C460 1.363 . S
C461 C464 1.363 . S
N462 C464 1.356 . S
N462 H474 0.984 . S
N462 H475 0.985 . S
N463 C465 1.356 . S
N463 H468 0.984 . S
N463 H469 0.985 . S
C464 C458 1.379 1_545 S
C464 C461 1.363 . S
C464 N462 1.356 . S
C465 C459 1.363 . S
C465 C460 1.379 1_565 S
C465 N463 1.356 . S
N466 C458 1.356 . S
N466 H472 0.984 . S
N466 H473 0.984 . S
N467 C460 1.356 . S
N467 H470 0.984 . S
N467 H471 0.985 . S
H468 N463 0.984 . S
H469 N463 0.985 . S
H470 N467 0.984 . S
H471 N467 0.985 . S
H472 N466 0.984 . S
H473 N466 0.984 . S
H474 N462 0.984 . S
H475 N462 0.985 . S
C476 C477 1.363 . S
C476 C482 1.379 1_655 S
C476 N484 1.356 . S
C477 C476 1.363 . S
C477 C483 1.363 1_565 S
C478 C479 1.363 . S
C478 C483 1.379 1_455 S
C478 N485 1.356 . S
C479 C478 1.363 . S
C479 C482 1.363 1_545 S
N480 C482 1.356 . S
N480 H492 0.984 . S
N480 H493 0.985 1_565 S
N481 C483 1.356 . S
N481 H486 0.984 1_545 S
N481 H487 0.985 . S
C482 C476 1.379 1_455 S
C482 C479 1.363 1_565 S
C482 N480 1.356 . S
C483 C477 1.363 1_545 S
C483 C478 1.379 1_655 S
C483 N481 1.356 . S
N484 C476 1.356 . S
N484 H490 0.984 . S
N484 H491 0.984 . S
N485 C478 1.356 . S
N485 H488 0.984 . S
N485 H489 0.985 . S
H486 N481 0.984 1_565 S
H487 N481 0.985 . S
H488 N485 0.984 . S
H489 N485 0.985 . S
H490 N484 0.984 . S
H491 N484 0.984 . S
H492 N480 0.984 . S
H493 N480 0.985 1_545 S
C494 C495 1.363 . S
C494 C500 1.379 . S
C494 N502 1.356 . S
C495 C494 1.363 . S
C495 C501 1.363 1_455 S
C496 C497 1.363 . S
C496 C501 1.379 . S
C496 N503 1.356 . S
C497 C496 1.363 . S
C497 C500 1.363 1_655 S
N498 C500 1.356 . S
N498 H510 0.984 . S
N498 H511 0.985 1_455 S
N499 C501 1.356 . S
N499 H504 0.984 1_655 S
N499 H505 0.985 . S
C500 C494 1.379 . S
C500 C497 1.363 1_455 S
C500 N498 1.356 . S
C501 C495 1.363 1_655 S
C501 C496 1.379 . S
C501 N499 1.356 . S
N502 C494 1.356 . S
N502 H508 0.984 . S
N502 H509 0.984 . S
N503 C496 1.356 . S
N503 H506 0.984 . S
N503 H507 0.985 . S
H504 N499 0.984 1_455 S
H505 N499 0.985 . S
H506 N503 0.984 . S
H507 N503 0.985 . S
H508 N502 0.984 . S
H509 N502 0.984 . S
H510 N498 0.984 . S
H511 N498 0.985 1_655 S
C512 C513 1.363 . S
C512 C518 1.379 . S
C512 N520 1.356 . S
C513 C512 1.363 . S
C513 C519 1.363 . S
C514 C515 1.363 . S
C514 C519 1.379 . S
C514 N521 1.356 . S
C515 C514 1.363 . S
C515 C518 1.363 . S
N516 C518 1.356 . S
N516 H528 0.984 . S
N516 H529 0.985 . S
N517 C519 1.356 . S
N517 H522 0.984 . S
N517 H523 0.985 . S
C518 C512 1.379 . S
C518 C515 1.363 . S
C518 N516 1.356 . S
C519 C513 1.363 . S
C519 C514 1.379 . S
C519 N517 1.356 . S
N520 C512 1.356 . S
N520 H526 0.984 . S
N520 H527 0.984 . S
N521 C514 1.356 . S
N521 H524 0.984 . S
N521 H525 0.985 . S
H522 N517 0.984 . S
H523 N517 0.985 . S
H524 N521 0.984 . S
H525 N521 0.985 . S
H526 N520 0.984 . S
H527 N520 0.984 . S
H528 N516 0.984 . S
H529 N516 0.985 . S
C530 C531 1.363 . S
C530 C536 1.379 . S
C530 N538 1.356 . S
C531 C530 1.363 . S
C531 C537 1.363 . S
C532 C533 1.363 . S
C532 C537 1.379 . S
C532 N539 1.356 . S
C533 C532 1.363 . S
C533 C536 1.363 . S
N534 C536 1.356 . S
N534 H546 0.984 . S
N534 H547 0.985 . S
N535 C537 1.356 . S
N535 H540 0.984 . S
N535 H541 0.985 . S
C536 C530 1.379 . S
C536 C533 1.363 . S
C536 N534 1.356 . S
C537 C531 1.363 . S
C537 C532 1.379 . S
C537 N535 1.356 . S
N538 C530 1.356 . S
N538 H544 0.984 . S
N538 H545 0.984 . S
N539 C532 1.356 . S
N539 H542 0.984 . S
N539 H543 0.985 . S
H540 N535 0.984 . S
H541 N535 0.985 . S
H542 N539 0.984 . S
H543 N539 0.985 . S
H544 N538 0.984 . S
H545 N538 0.984 . S
H546 N534 0.984 . S
H547 N534 0.985 . S
C548 C549 1.363 . S
C548 C554 1.379 . S
C548 N556 1.356 . S
C549 C548 1.363 . S
C549 C555 1.363 . S
C550 C551 1.363 . S
C550 C555 1.379 . S
C550 N557 1.356 . S
C551 C550 1.363 . S
C551 C554 1.363 . S
N552 C554 1.356 . S
N552 H564 0.984 . S
N552 H565 0.985 . S
N553 C555 1.356 . S
N553 H558 0.984 . S
N553 H559 0.985 . S
C554 C548 1.379 . S
C554 C551 1.363 . S
C554 N552 1.356 . S
C555 C549 1.363 . S
C555 C550 1.379 . S
C555 N553 1.356 . S
N556 C548 1.356 . S
N556 H562 0.984 . S
N556 H563 0.984 . S
N557 C550 1.356 . S
N557 H560 0.984 . S
N557 H561 0.985 . S
H558 N553 0.984 . S
H559 N553 0.985 . S
H560 N557 0.984 . S
H561 N557 0.985 . S
H562 N556 0.984 . S
H563 N556 0.984 . S
H564 N552 0.984 . S
H565 N552 0.985 . S
C566 C567 1.363 . S
C566 C572 1.379 . S
C566 N574 1.356 . S
C567 C566 1.363 . S
C567 C573 1.363 . S
C568 C569 1.363 . S
C568 C573 1.379 . S
C568 N575 1.356 . S
C569 C568 1.363 . S
C569 C572 1.363 . S
N570 C572 1.356 . S
N570 H582 0.984 . S
N570 H583 0.985 . S
N571 C573 1.356 . S
N571 H576 0.984 . S
N571 H577 0.985 . S
C572 C566 1.379 . S
C572 C569 1.363 . S
C572 N570 1.356 . S
C573 C567 1.363 . S
C573 C568 1.379 . S
C573 N571 1.356 . S
N574 C566 1.356 . S
N574 H580 0.984 . S
N574 H581 0.984 . S
N575 C568 1.356 . S
N575 H578 0.984 . S
N575 H579 0.985 . S
H576 N571 0.984 . S
H577 N571 0.985 . S
H578 N575 0.984 . S
H579 N575 0.985 . S
H580 N574 0.984 . S
H581 N574 0.984 . S
H582 N570 0.984 . S
H583 N570 0.985 . S
C584 C585 1.363 . S
C584 C590 1.379 . S
C584 N592 1.356 . S
C585 C584 1.363 . S
C585 C591 1.363 . S
C586 C587 1.363 . S
C586 C591 1.379 . S
C586 N593 1.356 . S
C587 C586 1.363 . S
C587 C590 1.363 . S
N588 C590 1.356 . S
N588 H600 0.984 . S
N588 H601 0.985 . S
N589 C591 1.356 . S
N589 H594 0.984 . S
N589 H595 0.985 . S
C590 C584 1.379 . S
C590 C587 1.363 . S
C590 N588 1.356 . S
C591 C585 1.363 . S
C591 C586 1.379 . S
C591 N589 1.356 . S
N592 C584 1.356 . S
N592 H598 0.984 . S
N592 H599 0.984 . S
N593 C586 1.356 . S
N593 H596 0.984 . S
N593 H597 0.985 . S
H594 N589 0.984 . S
H595 N589 0.985 . S
H596 N593 0.984 . S
H597 N593 0.985 . S
H598 N592 0.984 . S
H599 N592 0.984 . S
H600 N588 0.984 . S
H601 N588 0.985 . S
C602 C603 1.363 . S
C602 C608 1.379 . S
C602 N610 1.356 . S
C603 C602 1.363 . S
C603 C609 1.363 . S
C604 C605 1.363 . S
C604 C609 1.379 . S
C604 N611 1.356 . S
C605 C604 1.363 . S
C605 C608 1.363 . S
N606 C608 1.356 . S
N606 H618 0.984 . S
N606 H619 0.985 . S
N607 C609 1.356 . S
N607 H612 0.984 . S
N607 H613 0.985 . S
C608 C602 1.379 . S
C608 C605 1.363 . S
C608 N606 1.356 . S
C609 C603 1.363 . S
C609 C604 1.379 . S
C609 N607 1.356 . S
N610 C602 1.356 . S
N610 H616 0.984 . S
N610 H617 0.984 . S
N611 C604 1.356 . S
N611 H614 0.984 . S
N611 H615 0.985 . S
H612 N607 0.984 . S
H613 N607 0.985 . S
H614 N611 0.984 . S
H615 N611 0.985 . S
H616 N610 0.984 . S
H617 N610 0.984 . S
H618 N606 0.984 . S
H619 N606 0.985 . S
C620 C621 1.363 . S
C620 C626 1.379 . S
C620 N628 1.356 . S
C621 C620 1.363 . S
C621 C627 1.363 . S
C622 C623 1.363 . S
C622 C627 1.379 . S
C622 N629 1.356 . S
C623 C622 1.363 . S
C623 C626 1.363 . S
N624 C626 1.356 . S
N624 H636 0.984 . S
N624 H637 0.985 . S
N625 C627 1.356 . S
N625 H630 0.984 . S
N625 H631 0.985 . S
C626 C620 1.379 . S
C626 C623 1.363 . S
C626 N624 1.356 . S
C627 C621 1.363 . S
C627 C622 1.379 . S
C627 N625 1.356 . S
N628 C620 1.356 . S
N628 H634 0.984 . S
N628 H635 0.984 . S
N629 C622 1.356 . S
N629 H632 0.984 . S
N629 H633 0.985 . S
H630 N625 0.984 . S
H631 N625 0.985 . S
H632 N629 0.984 . S
H633 N629 0.985 . S
H634 N628 0.984 . S
H635 N628 0.984 . S
H636 N624 0.984 . S
H637 N624 0.985 . S
C638 C639 1.363 . S
C638 C644 1.379 . S
C638 N646 1.356 . S
C639 C638 1.363 . S
C639 C645 1.363 . S
C640 C641 1.363 . S
C640 C645 1.379 . S
C640 N647 1.356 . S
C641 C640 1.363 . S
C641 C644 1.363 . S
N642 C644 1.356 . S
N642 H654 0.984 . S
N642 H655 0.985 . S
N643 C645 1.356 . S
N643 H648 0.984 . S
N643 H649 0.985 . S
C644 C638 1.379 . S
C644 C641 1.363 . S
C644 N642 1.356 . S
C645 C639 1.363 . S
C645 C640 1.379 . S
C645 N643 1.356 . S
N646 C638 1.356 . S
N646 H652 0.984 . S
N646 H653 0.984 . S
N647 C640 1.356 . S
N647 H650 0.984 . S
N647 H651 0.985 . S
H648 N643 0.984 . S
H649 N643 0.985 . S
H650 N647 0.984 . S
H651 N647 0.985 . S
H652 N646 0.984 . S
H653 N646 0.984 . S
H654 N642 0.984 . S
H655 N642 0.985 . S
C656 C657 1.363 . S
C656 C662 1.379 . S
C656 N664 1.356 . S
C657 C656 1.363 . S
C657 C663 1.363 . S
C658 C659 1.363 . S
C658 C663 1.379 . S
C658 N665 1.356 . S
C659 C658 1.363 . S
C659 C662 1.363 . S
N660 C662 1.356 . S
N660 H672 0.984 . S
N660 H673 0.985 . S
N661 C663 1.356 . S
N661 H666 0.984 . S
N661 H667 0.985 . S
C662 C656 1.379 . S
C662 C659 1.363 . S
C662 N660 1.356 . S
C663 C657 1.363 . S
C663 C658 1.379 . S
C663 N661 1.356 . S
N664 C656 1.356 . S
N664 H670 0.984 . S
N664 H671 0.984 . S
N665 C658 1.356 . S
N665 H668 0.984 . S
N665 H669 0.985 . S
H666 N661 0.984 . S
H667 N661 0.985 . S
H668 N665 0.984 . S
H669 N665 0.985 . S
H670 N664 0.984 . S
H671 N664 0.984 . S
H672 N660 0.984 . S
H673 N660 0.985 . S
C674 C675 1.363 . S
C674 C680 1.379 . S
C674 N682 1.356 . S
C675 C674 1.363 . S
C675 C681 1.363 . S
C676 C677 1.363 . S
C676 C681 1.379 . S
C676 N683 1.356 . S
C677 C676 1.363 . S
C677 C680 1.363 . S
N678 C680 1.356 . S
N678 H690 0.984 . S
N678 H691 0.985 . S
N679 C681 1.356 . S
N679 H684 0.984 . S
N679 H685 0.985 . S
C680 C674 1.379 . S
C680 C677 1.363 . S
C680 N678 1.356 . S
C681 C675 1.363 . S
C681 C676 1.379 . S
C681 N679 1.356 . S
N682 C674 1.356 . S
N682 H688 0.984 . S
N682 H689 0.984 . S
N683 C676 1.356 . S
N683 H686 0.984 . S
N683 H687 0.985 . S
H684 N679 0.984 . S
H685 N679 0.985 . S
H686 N683 0.984 . S
H687 N683 0.985 . S
H688 N682 0.984 . S
H689 N682 0.984 . S
H690 N678 0.984 . S
H691 N678 0.985 . S
C692 C693 1.363 . S
C692 C698 1.379 . S
C692 N700 1.356 . S
C693 C692 1.363 . S
C693 C699 1.363 . S
C694 C695 1.363 . S
C694 C699 1.379 . S
C694 N701 1.356 . S
C695 C694 1.363 . S
C695 C698 1.363 . S
N696 C698 1.356 . S
N696 H708 0.984 . S
N696 H709 0.985 . S
N697 C699 1.356 . S
N697 H702 0.984 . S
N697 H703 0.985 . S
C698 C692 1.379 . S
C698 C695 1.363 . S
C698 N696 1.356 . S
C699 C693 1.363 . S
C699 C694 1.379 . S
C699 N697 1.356 . S
N700 C692 1.356 . S
N700 H706 0.984 . S
N700 H707 0.984 . S
N701 C694 1.356 . S
N701 H704 0.984 . S
N701 H705 0.985 . S
H702 N697 0.984 . S
H703 N697 0.985 . S
H704 N701 0.984 . S
H705 N701 0.985 . S
H706 N700 0.984 . S
H707 N700 0.984 . S
H708 N696 0.984 . S
H709 N696 0.985 . S
C710 C711 1.363 . S
C710 C716 1.379 1_556 S
C710 N718 1.356 . S
C711 C710 1.363 . S
C711 C717 1.363 . S
C712 C713 1.363 . S
C712 C717 1.379 1_554 S
C712 N719 1.356 . S
C713 C712 1.363 . S
C713 C716 1.363 . S
N714 C716 1.356 . S
N714 H726 0.984 . S
N714 H727 0.985 . S
N715 C717 1.356 . S
N715 H720 0.984 . S
N715 H721 0.985 . S
C716 C710 1.379 1_554 S
C716 C713 1.363 . S
C716 N714 1.356 . S
C717 C711 1.363 . S
C717 C712 1.379 1_556 S
C717 N715 1.356 . S
N718 C710 1.356 . S
N718 H724 0.984 . S
N718 H725 0.984 . S
N719 C712 1.356 . S
N719 H722 0.984 . S
N719 H723 0.985 . S
H720 N715 0.984 . S
H721 N715 0.985 . S
H722 N719 0.984 . S
H723 N719 0.985 . S
H724 N718 0.984 . S
H725 N718 0.984 . S
H726 N714 0.984 . S
H727 N714 0.985 . S
C728 C729 1.363 . S
C728 C734 1.379 1_554 S
C728 N736 1.356 . S
C729 C728 1.363 . S
C729 C735 1.363 . S
C730 C731 1.363 . S
C730 C735 1.379 1_556 S
C730 N737 1.356 . S
C731 C730 1.363 . S
C731 C734 1.363 . S
N732 C734 1.356 . S
N732 H744 0.984 . S
N732 H745 0.985 . S
N733 C735 1.356 . S
N733 H738 0.984 . S
N733 H739 0.985 . S
C734 C728 1.379 1_556 S
C734 C731 1.363 . S
C734 N732 1.356 . S
C735 C729 1.363 . S
C735 C730 1.379 1_554 S
C735 N733 1.356 . S
N736 C728 1.356 . S
N736 H742 0.984 . S
N736 H743 0.984 . S
N737 C730 1.356 . S
N737 H740 0.984 . S
N737 H741 0.985 . S
H738 N733 0.984 . S
H739 N733 0.985 . S
H740 N737 0.984 . S
H741 N737 0.985 . S
H742 N736 0.984 . S
H743 N736 0.984 . S
H744 N732 0.984 . S
H745 N732 0.985 . S
C746 C747 1.363 . S
C746 C752 1.379 . S
C746 N754 1.356 . S
C747 C746 1.363 . S
C747 C753 1.363 . S
C748 C749 1.363 . S
C748 C753 1.379 . S
C748 N755 1.356 . S
C749 C748 1.363 . S
C749 C752 1.363 . S
N750 C752 1.356 . S
N750 H762 0.984 . S
N750 H763 0.985 . S
N751 C753 1.356 . S
N751 H756 0.984 . S
N751 H757 0.985 . S
C752 C746 1.379 . S
C752 C749 1.363 . S
C752 N750 1.356 . S
C753 C747 1.363 . S
C753 C748 1.379 . S
C753 N751 1.356 . S
N754 C746 1.356 . S
N754 H760 0.984 . S
N754 H761 0.984 . S
N755 C748 1.356 . S
N755 H758 0.984 . S
N755 H759 0.985 . S
H756 N751 0.984 . S
H757 N751 0.985 . S
H758 N755 0.984 . S
H759 N755 0.985 . S
H760 N754 0.984 . S
H761 N754 0.984 . S
H762 N750 0.984 . S
H763 N750 0.985 . S
C764 C765 1.363 . S
C764 C770 1.379 . S
C764 N772 1.356 . S
C765 C764 1.363 . S
C765 C771 1.363 . S
C766 C767 1.363 . S
C766 C771 1.379 . S
C766 N773 1.356 . S
C767 C766 1.363 . S
C767 C770 1.363 . S
N768 C770 1.356 . S
N768 H780 0.984 . S
N768 H781 0.985 . S
N769 C771 1.356 . S
N769 H774 0.984 . S
N769 H775 0.985 . S
C770 C764 1.379 . S
C770 C767 1.363 . S
C770 N768 1.356 . S
C771 C765 1.363 . S
C771 C766 1.379 . S
C771 N769 1.356 . S
N772 C764 1.356 . S
N772 H778 0.984 . S
N772 H779 0.984 . S
N773 C766 1.356 . S
N773 H776 0.984 . S
N773 H777 0.985 . S
H774 N769 0.984 . S
H775 N769 0.985 . S
H776 N773 0.984 . S
H777 N773 0.985 . S
H778 N772 0.984 . S
H779 N772 0.984 . S
H780 N768 0.984 . S
H781 N768 0.985 . S
C782 C783 1.363 . S
C782 C788 1.379 . S
C782 N790 1.356 . S
C783 C782 1.363 . S
C783 C789 1.363 . S
C784 C785 1.363 . S
C784 C789 1.379 . S
C784 N791 1.356 . S
C785 C784 1.363 . S
C785 C788 1.363 . S
N786 C788 1.356 . S
N786 H798 0.984 . S
N786 H799 0.985 . S
N787 C789 1.356 . S
N787 H792 0.984 . S
N787 H793 0.985 . S
C788 C782 1.379 . S
C788 C785 1.363 . S
C788 N786 1.356 . S
C789 C783 1.363 . S
C789 C784 1.379 . S
C789 N787 1.356 . S
N790 C782 1.356 . S
N790 H796 0.984 . S
N790 H797 0.984 . S
N791 C784 1.356 . S
N791 H794 0.984 . S
N791 H795 0.985 . S
H792 N787 0.984 . S
H793 N787 0.985 . S
H794 N791 0.984 . S
H795 N791 0.985 . S
H796 N790 0.984 . S
H797 N790 0.984 . S
H798 N786 0.984 . S
H799 N786 0.985 . S
C225 C151 1.511 . S
C227 C11 1.511 . S
C243 C25 1.511 . S
C245 C165 1.511 . S
C261 C123 1.511 . S
C263 C39 1.511 . S
C279 C137 1.511 . S
C281 C53 1.511 . S
C297 C67 1.511 . S
C299 C207 1.511 . S
C315 C221 1.511 . S
C317 C81 1.511 . S
C333 C95 1.511 . S
C335 C179 1.511 . S
C351 C193 1.511 . S
C353 C109 1.511 . S
C369 C145 1.554 . S
C371 C5 1.554 . S
C387 C19 1.554 . S
C389 C159 1.554 . S
C405 C33 1.554 . S
C407 C117 1.554 . S
C423 C47 1.554 . S
C425 C131 1.554 . S
C441 C61 1.554 . S
C443 C201 1.554 . S
C459 C75 1.554 . S
C461 C215 1.554 . S
C477 C173 1.554 . S
C479 C89 1.554 . S
C495 C187 1.554 . S
C497 C103 1.554 . S
C513 C9 1.349 . S
C515 C93 1.349 . S
C531 C23 1.350 . S
C533 C107 1.349 . S
C549 C37 1.349 . S
C551 C65 1.349 . S
C567 C51 1.349 . S
C569 C79 1.349 . S
C585 C121 1.349 . S
C587 C205 1.350 . S
C603 C219 1.349 . S
C605 C135 1.350 . S
C621 C149 1.350 . S
C623 C177 1.349 . S
C639 C191 1.349 . S
C641 C163 1.349 . S
C657 C0 1.391 . S
C659 C210 1.391 . S
C675 C168 1.391 . S
C677 C14 1.391 . S
C693 C182 1.390 . S
C695 C28 1.390 . S
C711 C196 1.391 . S
C713 C42 1.391 . S
C729 C126 1.391 . S
C731 C56 1.391 . S
C747 C140 1.390 . S
C749 C70 1.390 . S
C765 C84 1.391 . S
C767 C154 1.391 . S
C783 C98 1.391 . S
C785 C112 1.391 . S
