# Generated by pormake.
# Topology fee, (5)-cn, num edge types: 1
# Building blocks:
#     Node 0, Type 0, BuildingBlock: XOMCOT_clean_sbu_1, # of connection points: 5
#     Node 1, Type 0, BuildingBlock: XOMCOT_clean_sbu_1, # of connection points: 5
#     Node 2, Type 0, BuildingBlock: XOMCOT_clean_sbu_1, # of connection points: 5
#     Node 3, Type 0, BuildingBlock: XOMCOT_clean_sbu_1, # of connection points: 5
#     Edge 4, Type (0, 0), BuildingBlock: TEMPAE_clean_linker_10, # of connection points: 2
#     Edge 5, Type (0, 0), BuildingBlock: TEMPAE_clean_linker_10, # of connection points: 2
#     Edge 6, Type (0, 0), BuildingBlock: TEMPAE_clean_linker_10, # of connection points: 2
#     Edge 7, Type (0, 0), BuildingBlock: TEMPAE_clean_linker_10, # of connection points: 2
#     Edge 8, Type (0, 0), BuildingBlock: TEMPAE_clean_linker_10, # of connection points: 2
#     Edge 9, Type (0, 0), BuildingBlock: TEMPAE_clean_linker_10, # of connection points: 2
#     Edge 10, Type (0, 0), BuildingBlock: TEMPAE_clean_linker_10, # of connection points: 2
#     Edge 11, Type (0, 0), BuildingBlock: TEMPAE_clean_linker_10, # of connection points: 2
#     Edge 12, Type (0, 0), BuildingBlock: TEMPAE_clean_linker_10, # of connection points: 2
#     Edge 13, Type (0, 0), BuildingBlock: TEMPAE_clean_linker_10, # of connection points: 2
# Relax obj value: 0.109
# Max RMSD: 0.128
# Mean RMSD: 0.117
data_MOF--net-fee--node1-XOMCOT_clean_sbu_1--edge1-TEMPAE_clean_linker_10
_symmetry_space_group_name_H-M    P1
_symmetry_Int_Tables_number       1
_symmetry_cell_setting            triclinic
loop_
_symmetry_equiv_pos_as_xyz
'x, y, z'
_cell_length_a     38.946667
_cell_length_b     38.88299
_cell_length_c     17.794325
_cell_angle_alpha  96.087792
_cell_angle_beta   95.854242
_cell_angle_gamma 89.971211
loop_
_atom_site_label
_atom_site_type_symbol
_atom_site_fract_x
_atom_site_fract_y
_atom_site_fract_z
_atom_type_partial_charge
C0 C 0.14225 0.54007 0.96779 0.0
C1 C 0.13997 0.54556 0.89261 0.0
N2 N 0.17204 0.55055 0.87327 0.0
N3 N 0.17559 0.54177 0.99694 0.0
C4 C 0.19324 0.54813 0.93792 0.0
H5 H 0.12092 0.53356 0.99815 0.0
Co6 Co 0.19049 0.53125 0.09539 0.0
C7 C 0.2483 0.58254 0.15432 0.0
O8 O 0.25677 0.56689 0.21524 0.0
N9 N 0.20397 0.51931 0.19532 0.0
C10 C 0.21565 0.48595 0.28898 0.0
C11 C 0.21343 0.48729 0.2119 0.0
C12 C 0.19988 0.53676 0.26417 0.0
N13 N 0.20707 0.51705 0.32198 0.0
O14 O 0.15506 0.56104 0.13391 0.0
H15 H 0.21681 0.46544 0.17059 0.0
H16 H 0.19039 0.56295 0.27152 0.0
O17 O 0.22354 0.57054 0.10562 0.0
C18 C 0.13017 0.54412 0.15444 0.0
O19 O 0.13267 0.51032 0.15241 0.0
N20 N 0.22256 0.49973 0.05503 0.0
C21 C 0.26116 0.44147 1.01157 0.0
C22 C 0.27718 0.47119 0.0524 0.0
C23 C 0.25749 0.50013 0.07314 0.0
C24 C 0.20686 0.47198 1.01176 0.0
C25 C 0.22566 0.44286 0.98859 0.0
H26 H 0.2702 0.52151 0.10818 0.0
H27 H 0.17913 0.4717 0.99833 0.0
H28 H 0.22111 0.54973 0.94185 0.0
H29 H 0.1165 0.54388 0.85417 0.0
H30 H 0.22209 0.46345 0.31837 0.0
H31 H 0.30435 0.47146 0.07267 0.0
H32 H 0.21209 0.4211 0.95562 0.0
C33 C 0.5119 0.17716 1.01587 0.0
C34 C 0.51622 0.1765 0.94012 0.0
N35 N 0.48602 0.1849 0.90287 0.0
N36 N 0.4792 0.18607 0.02647 0.0
C37 C 0.46392 0.19057 0.95667 0.0
H38 H 0.53128 0.17139 0.06064 0.0
Co39 Co 0.46252 0.18855 0.12031 0.0
C40 C 0.4105 0.2427 0.12524 0.0
O41 O 0.42548 0.25191 0.19402 0.0
N42 N 0.44553 0.18903 0.21658 0.0
C43 C 0.40766 0.18005 0.29849 0.0
C44 C 0.4124 0.18048 0.22337 0.0
C45 C 0.46054 0.1931 0.28916 0.0
N46 N 0.43798 0.18792 0.33994 0.0
O47 O 0.43793 0.14564 0.08882 0.0
H48 H 0.3928 0.17455 0.17616 0.0
H49 H 0.4876 0.19832 0.30511 0.0
O50 O 0.42218 0.21662 0.08521 0.0
C51 C 0.45564 0.12098 0.11416 0.0
O52 O 0.48505 0.12881 0.15563 0.0
N53 N 0.49006 0.22898 0.14929 0.0
C54 C 0.54105 0.28081 0.16858 0.0
C55 C 0.51104 0.28356 0.11928 0.0
C56 C 0.48642 0.25709 0.10894 0.0
C57 C 0.5195 0.22557 0.1964 0.0
C58 C 0.54497 0.25155 0.20835 0.0
H59 H 0.46573 0.25839 0.06423 0.0
H60 H 0.52462 0.20147 0.22031 0.0
H61 H 0.43701 0.19707 0.94528 0.0
H62 H 0.53986 0.17048 0.91457 0.0
H63 H 0.38374 0.17423 0.32077 0.0
H64 H 0.50727 0.30534 0.08617 0.0
H65 H 0.56847 0.24773 0.24449 0.0
C66 C 0.85235 0.5065 0.26998 0.0
C67 C 0.85671 0.5044 0.34696 0.0
N68 N 0.83765 0.52917 0.38121 0.0
N69 N 0.83082 0.5326 0.25517 0.0
C70 C 0.8224 0.5461 0.32417 0.0
H71 H 0.86327 0.48923 0.22724 0.0
Co72 Co 0.81462 0.54161 0.15674 0.0
C73 C 0.78946 0.61287 0.1779 0.0
O74 O 0.8112 0.62205 0.13164 0.0
N75 N 0.79799 0.55002 0.05663 0.0
C76 C 0.76171 0.56133 0.95745 0.0
C77 C 0.76532 0.55906 0.03436 0.0
C78 C 0.81363 0.54671 0.99163 0.0
N79 N 0.79212 0.55348 0.93038 0.0
O80 O 0.85583 0.56852 0.15278 0.0
H81 H 0.74513 0.56335 0.07168 0.0
H82 H 0.83995 0.53846 0.98837 0.0
O83 O 0.78978 0.58193 0.19566 0.0
C84 C 0.87973 0.54982 0.12679 0.0
O85 O 0.87278 0.51708 0.10382 0.0
N86 N 0.77641 0.51296 0.16055 0.0
C87 C 0.72559 0.46309 0.16699 0.0
C88 C 0.72586 0.49479 0.21284 0.0
C89 C 0.7516 0.51935 0.20906 0.0
C90 C 0.77653 0.48245 0.1153 0.0
C91 C 0.75124 0.45721 0.11724 0.0
H92 H 0.75206 0.54291 0.24696 0.0
H93 H 0.79674 0.47754 0.07822 0.0
H94 H 0.80409 0.56675 0.33221 0.0
H95 H 0.87229 0.4856 0.37523 0.0
H96 H 0.7384 0.56825 0.92415 0.0
H97 H 0.70697 0.50019 0.25306 0.0
H98 H 0.75187 0.43328 0.08025 0.0
C99 C 0.46459 0.86043 0.20376 0.0
C100 C 0.46006 0.86385 0.27959 0.0
N101 N 0.45954 0.83211 0.30355 0.0
N102 N 0.46639 0.82663 0.17839 0.0
C103 C 0.46312 0.80996 0.24057 0.0
H104 H 0.46752 0.8816 0.17025 0.0
Co105 Co 0.47588 0.80948 0.07968 0.0
C106 C 0.42564 0.75072 0.02834 0.0
O107 O 0.44343 0.73958 0.972 0.0
N108 N 0.48658 0.79304 0.97901 0.0
C109 C 0.51509 0.7702 0.88348 0.0
C110 C 0.51469 0.77479 0.96075 0.0
C111 C 0.47048 0.79937 0.91033 0.0
N112 N 0.48749 0.786 0.85119 0.0
O113 O 0.44627 0.84455 0.03942 0.0
H114 H 0.5346 0.76574 1.00033 0.0
H115 H 0.44719 0.81436 0.90387 0.0
O116 O 0.43625 0.77725 0.0737 0.0
C117 C 0.46311 0.86918 0.01752 0.0
O118 O 0.4967 0.86606 0.01697 0.0
N119 N 0.5073 0.77829 0.12203 0.0
C120 C 0.56498 0.74055 0.17034 0.0
C121 C 0.53279 0.72409 0.14871 0.0
C122 C 0.50409 0.74349 0.1251 0.0
C123 C 0.53774 0.79492 0.14729 0.0
C124 C 0.56688 0.77661 0.17148 0.0
H125 H 0.47998 0.73016 0.10722 0.0
H126 H 0.53979 0.82252 0.14477 0.0
H127 H 0.46493 0.78219 0.2402 0.0
H128 H 0.45799 0.88817 0.31433 0.0
H129 H 0.53473 0.7565 0.85382 0.0
H130 H 0.53001 0.69637 0.14835 0.0
H131 H 0.5911 0.79048 0.187 0.0
C132 C 0.15633 0.5645 0.74179 0.0
C133 C 0.18092 0.55306 0.79688 0.0
C134 C 0.16213 0.56223 0.66483 0.0
C135 C 0.19367 0.54881 0.64196 0.0
C136 C 0.21962 0.53951 0.69782 0.0
C137 C 0.21289 0.54155 0.7745 0.0
C138 C 0.13362 0.57229 0.60746 0.0
C139 C 0.25385 0.52567 0.67609 0.0
C140 C 0.1907 0.5008 0.44374 0.0
C141 C 0.20328 0.52568 0.40164 0.0
C142 C 0.18759 0.50806 0.52167 0.0
C143 C 0.19777 0.54097 0.55924 0.0
C144 C 0.21062 0.56627 0.51714 0.0
C145 C 0.21289 0.55843 0.43858 0.0
C146 C 0.17304 0.48052 0.56366 0.0
C147 C 0.22222 0.60145 0.55523 0.0
H148 H 0.13192 0.57435 0.75847 0.0
H149 H 0.23213 0.53263 0.81613 0.0
H150 H 0.14363 0.59009 0.56991 0.0
H151 H 0.12355 0.54885 0.57083 0.0
H152 H 0.11183 0.58497 0.6349 0.0
H153 H 0.27289 0.52413 0.72652 0.0
H154 H 0.25005 0.49936 0.64545 0.0
H155 H 0.26475 0.54223 0.63712 0.0
H156 H 0.18277 0.47563 0.41521 0.0
H157 H 0.2229 0.57759 0.40629 0.0
H158 H 0.14955 0.49023 0.58908 0.0
H159 H 0.19208 0.4743 0.61089 0.0
H160 H 0.16621 0.45632 0.52608 0.0
H161 H 0.2004 0.61488 0.5808 0.0
H162 H 0.23227 0.61798 0.51499 0.0
H163 H 0.24274 0.59858 0.60213 0.0
C164 C 0.45429 0.20932 0.79366 0.0
C165 C 0.47895 0.18646 0.82222 0.0
C166 C 0.44754 0.2112 0.71512 0.0
C167 C 0.46575 0.18953 0.66407 0.0
C168 C 0.49066 0.16642 0.69262 0.0
C169 C 0.49696 0.16521 0.77126 0.0
C170 C 0.42089 0.23627 0.68675 0.0
C171 C 0.51034 0.1426 0.64003 0.0
C172 C 0.42602 0.1673 0.4611 0.0
C173 C 0.44494 0.18867 0.42124 0.0
C174 C 0.43225 0.16767 0.54017 0.0
C175 C 0.45802 0.19003 0.58059 0.0
C176 C 0.47713 0.21184 0.54089 0.0
C177 C 0.47042 0.21081 0.46157 0.0
C178 C 0.41157 0.14376 0.5803 0.0
C179 C 0.50473 0.23611 0.58217 0.0
H180 H 0.4406 0.22608 0.83282 0.0
H181 H 0.51564 0.14711 0.79285 0.0
H182 H 0.43273 0.25413 0.65185 0.0
H183 H 0.39981 0.22197 0.64969 0.0
H184 H 0.4095 0.25182 0.73392 0.0
H185 H 0.52936 0.12666 0.67145 0.0
H186 H 0.49209 0.12504 0.60217 0.0
H187 H 0.52424 0.15789 0.60323 0.0
H188 H 0.40669 0.14973 0.43023 0.0
H189 H 0.48481 0.22765 0.43116 0.0
H190 H 0.39833 0.15887 0.62509 0.0
H191 H 0.42908 0.12549 0.60875 0.0
H192 H 0.39188 0.12857 0.54076 0.0
H193 H 0.49364 0.25359 0.62667 0.0
H194 H 0.51659 0.25207 0.54328 0.0
H195 H 0.52534 0.22109 0.61118 0.0
C196 C 0.83292 0.55735 0.83327 0.0
C197 C 0.79942 0.55143 0.85191 0.0
C198 C 0.84019 0.55536 0.75703 0.0
C199 C 0.81336 0.54706 0.69784 0.0
C200 C 0.77948 0.54122 0.7163 0.0
C201 C 0.77295 0.5435 0.79286 0.0
C202 C 0.87662 0.5619 0.73979 0.0
C203 C 0.75017 0.53198 0.65511 0.0
C204 C 0.82322 0.56656 0.49529 0.0
C205 C 0.83229 0.53411 0.46094 0.0
C206 C 0.81754 0.57135 0.57259 0.0
C207 C 0.82083 0.543 0.61666 0.0
C208 C 0.83014 0.51026 0.5824 0.0
C209 C 0.83573 0.50624 0.50525 0.0
C210 C 0.80776 0.6067 0.60701 0.0
C211 C 0.83363 0.47925 0.62695 0.0
H212 H 0.85344 0.56392 0.87834 0.0
H213 H 0.74711 0.53836 0.80646 0.0
H214 H 0.88665 0.53837 0.70871 0.0
H215 H 0.87695 0.58295 0.70236 0.0
H216 H 0.89435 0.56912 0.79206 0.0
H217 H 0.72511 0.52925 0.67878 0.0
H218 H 0.74758 0.55212 0.61522 0.0
H219 H 0.75574 0.50725 0.62165 0.0
H220 H 0.82083 0.5883 0.46186 0.0
H221 H 0.84208 0.48092 0.47924 0.0
H222 H 0.82632 0.61542 0.65689 0.0
H223 H 0.78188 0.60546 0.62758 0.0
H224 H 0.80724 0.62631 0.56582 0.0
H225 H 0.85263 0.48488 0.67762 0.0
H226 H 0.842 0.4558 0.59256 0.0
H227 H 0.80854 0.47352 0.64764 0.0
C228 C 0.50638 0.78605 0.72228 0.0
C229 C 0.48007 0.79014 0.77103 0.0
C230 C 0.50024 0.79075 0.64498 0.0
C231 C 0.467 0.80028 0.61487 0.0
C232 C 0.4401 0.80404 0.66303 0.0
C233 C 0.44691 0.79886 0.74039 0.0
C234 C 0.52977 0.78651 0.59598 0.0
C235 C 0.40433 0.81435 0.63322 0.0
C236 C 0.46764 0.84997 0.44234 0.0
C237 C 0.45902 0.82428 0.38146 0.0
C238 C 0.46877 0.84278 0.5182 0.0
C239 C 0.46154 0.80888 0.53456 0.0
C240 C 0.45208 0.7829 0.47388 0.0
C241 C 0.45085 0.7909 0.39818 0.0
C242 C 0.47899 0.87134 0.58092 0.0
C243 C 0.44428 0.74638 0.48888 0.0
H244 H 0.53228 0.78002 0.74462 0.0
H245 H 0.42623 0.80173 0.77677 0.0
H246 H 0.52228 0.76842 0.54441 0.0
H247 H 0.53608 0.81179 0.57681 0.0
H248 H 0.55341 0.77661 0.62658 0.0
H249 H 0.38568 0.81402 0.67642 0.0
H250 H 0.40518 0.8408 0.61534 0.0
H251 H 0.39471 0.79668 0.58237 0.0
H252 H 0.47459 0.87572 0.43126 0.0
H253 H 0.44369 0.77089 0.35222 0.0
H254 H 0.50434 0.86541 0.61095 0.0
H255 H 0.45992 0.87316 0.62337 0.0
H256 H 0.48101 0.89692 0.55914 0.0
H257 H 0.468 0.73465 0.51476 0.0
H258 H 0.43467 0.72985 0.43616 0.0
H259 H 0.42471 0.74641 0.53003 0.0
C260 C 0.92967 0.58916 0.1807 0.0
C261 C 0.91555 0.56263 0.12685 0.0
C262 C 0.96552 0.596 0.18991 0.0
C263 C 0.98747 0.57581 0.14425 0.0
C264 C 0.97273 0.55111 0.08561 0.0
C265 C 0.93708 0.54486 0.07779 0.0
C266 C 0.98003 0.62308 0.25195 0.0
C267 C 0.99489 0.52916 0.03481 0.0
C268 C 0.08318 0.58667 0.12719 0.0
C269 C 0.09658 0.56002 0.1684 0.0
C270 C 0.04783 0.59487 0.12455 0.0
C271 C 0.02568 0.57592 0.16398 0.0
C272 C 0.04006 0.55166 0.21201 0.0
C273 C 0.07525 0.54398 0.21339 0.0
C274 C 0.03377 0.6215 0.07414 0.0
C275 C 0.0177 0.53111 0.25599 0.0
H276 H 0.91312 0.60307 0.21865 0.0
H277 H 0.92621 0.52473 0.03515 0.0
H278 H 0.99007 0.6103 0.30247 0.0
H279 H 1.00179 0.63742 0.23361 0.0
H280 H 0.95999 0.64181 0.26922 0.0
H281 H 0.97925 0.51356 0.98753 0.0
H282 H 0.01313 0.54563 1.01026 0.0
H283 H 0.01042 0.51123 0.0688 0.0
H284 H 0.09958 0.59916 0.09225 0.0
H285 H 0.08567 0.52367 0.24612 0.0
H286 H 0.01309 0.63678 0.10005 0.0
H287 H 0.02238 0.60823 0.01896 0.0
H288 H 0.05438 0.63942 0.06276 0.0
H289 H 0.99979 0.54834 0.28647 0.0
H290 H 0.03327 0.51672 0.29796 0.0
H291 H 1.00182 0.51217 0.21592 0.0
C292 C 0.42029 0.91555 0.04882 0.0
C293 C 0.44772 0.90353 1.00819 0.0
C294 C 0.41256 0.95108 0.05782 0.0
C295 C 0.43276 0.97487 0.02545 0.0
C296 C 0.45772 0.96217 0.97721 0.0
C297 C 0.46489 0.9267 0.9693 0.0
C298 C 0.38513 0.96338 0.10805 0.0
C299 C 0.47963 0.98635 0.94062 0.0
C300 C 0.42043 0.07272 0.036 0.0
C301 C 0.44522 0.08405 0.09643 0.0
C302 C 0.4143 0.03707 1.01448 0.0
C303 C 0.43352 0.01242 0.05417 0.0
C304 C 0.45701 0.02393 0.11791 0.0
C305 C 0.46247 0.05943 0.13814 0.0
C306 C 0.38859 0.02593 0.94709 0.0
C307 C 0.478 0.99876 0.16248 0.0
H308 H 0.4068 0.89776 0.07882 0.0
H309 H 0.48575 0.91745 0.93676 0.0
H310 H 0.39753 0.97279 0.16546 0.0
H311 H 0.37055 0.9852 0.08532 0.0
H312 H 0.36674 0.94224 0.11397 0.0
H313 H 0.4941 0.97235 0.89634 0.0
H314 H 0.46346 0.00626 0.91444 0.0
H315 H 0.49853 0.99996 0.98473 0.0
H316 H 0.40686 0.09159 1.0037 0.0
H317 H 0.48125 0.06789 0.18573 0.0
H318 H 0.37341 0.00306 0.95745 0.0
H319 H 0.40257 0.01846 0.89667 0.0
H320 H 0.37055 0.04708 0.93355 0.0
H321 H 0.46083 0.97933 0.18132 0.0
H322 H 0.49351 0.01185 0.21335 0.0
H323 H 0.49586 0.9846 0.12568 0.0
C324 C 0.37088 0.29218 0.1431 0.0
C325 C 0.38411 0.2662 0.09341 0.0
C326 C 0.34963 0.31811 0.11612 0.0
C327 C 0.34056 0.31795 0.03706 0.0
C328 C 0.3524 0.29093 0.98634 0.0
C329 C 0.3743 0.26537 1.01513 0.0
C330 C 0.33777 0.34635 0.17258 0.0
C331 C 0.34268 0.28951 0.90183 0.0
C332 C 0.26415 0.37656 1.0072 0.0
C333 C 0.28047 0.40828 1.00105 0.0
C334 C 0.28303 0.34588 1.01047 0.0
C335 C 0.31928 0.34689 1.00948 0.0
C336 C 0.33556 0.37811 0.99726 0.0
C337 C 0.31593 0.40831 0.99253 0.0
C338 C 0.26448 0.31305 0.02191 0.0
C339 C 0.37418 0.38043 0.99605 0.0
H340 H 0.37793 0.29291 0.20378 0.0
H341 H 0.38446 0.24545 0.97635 0.0
H342 H 0.34701 0.3719 0.15993 0.0
H343 H 0.30917 0.34704 0.16792 0.0
H344 H 0.34735 0.34276 0.23218 0.0
H345 H 0.3509 0.26504 0.87095 0.0
H346 H 0.31435 0.29212 0.88945 0.0
H347 H 0.355 0.31148 0.87946 0.0
H348 H 0.2369 0.37586 1.01443 0.0
H349 H 0.32876 0.43231 0.98549 0.0
H350 H 0.26862 0.30851 0.08268 0.0
H351 H 0.27477 0.29042 0.98822 0.0
H352 H 0.23625 0.31457 1.00571 0.0
H353 H 0.38691 0.37973 0.05459 0.0
H354 H 0.38219 0.40468 0.97454 0.0
H355 H 0.38367 0.35807 0.96023 0.0
C356 C 0.7084 0.40114 0.17073 0.0
C357 C 0.69914 0.43607 0.17211 0.0
C358 C 0.68364 0.37529 0.17421 0.0
C359 C 0.64875 0.38459 0.1794 0.0
C360 C 0.63931 0.41984 0.18221 0.0
C361 C 0.6646 0.44514 0.17842 0.0
C362 C 0.69471 0.33798 0.17102 0.0
C363 C 0.60235 0.43076 0.18749 0.0
C364 C 0.57885 0.31816 0.10508 0.0
C365 C 0.56928 0.30679 0.17232 0.0
C366 C 0.60484 0.3432 0.10672 0.0
C367 C 0.62177 0.35731 0.17738 0.0
C368 C 0.61263 0.34562 0.24552 0.0
C369 C 0.58654 0.32034 0.24216 0.0
C370 C 0.61405 0.35469 0.03273 0.0
C371 C 0.6301 0.36015 0.3219 0.0
H372 H 0.73514 0.39397 0.16727 0.0
H373 H 0.65715 0.47201 0.17877 0.0
H374 H 0.68682 0.32617 0.22075 0.0
H375 H 0.68167 0.32309 0.11935 0.0
H376 H 0.72306 0.3352 0.17011 0.0
H377 H 0.59957 0.45933 0.19336 0.0
H378 H 0.58601 0.41978 0.13579 0.0
H379 H 0.59224 0.42048 0.23684 0.0
H380 H 0.56611 0.30722 0.05081 0.0
H381 H 0.57916 0.31166 0.29421 0.0
H382 H 0.64185 0.35022 0.02707 0.0
H383 H 0.60959 0.38285 0.03216 0.0
H384 H 0.59872 0.3408 0.98256 0.0
H385 H 0.6584 0.35644 0.3236 0.0
H386 H 0.62054 0.34781 0.36942 0.0
H387 H 0.62561 0.38839 0.33098 0.0
C388 C 0.62286 0.73252 0.24301 0.0
C389 C 0.59704 0.72033 0.1854 0.0
C390 C 0.65492 0.71596 0.25154 0.0
C391 C 0.6614 0.68652 0.2012 0.0
C392 C 0.63497 0.6733 0.14492 0.0
C393 C 0.60317 0.69033 0.13773 0.0
C394 C 0.68227 0.73068 0.3127 0.0
C395 C 0.64077 0.64193 0.09013 0.0
C396 C 0.75241 0.66415 0.1546 0.0
C397 C 0.75946 0.63512 0.194 0.0
C398 C 0.72116 0.68196 0.15896 0.0
C399 C 0.69633 0.6706 0.20404 0.0
C400 C 0.70412 0.64259 0.24741 0.0
C401 C 0.7356 0.62524 0.24199 0.0
C402 C 0.71399 0.71185 0.11214 0.0
C403 C 0.67854 0.62985 0.2967 0.0
H404 H 0.6182 0.75542 0.28074 0.0
H405 H 0.58362 0.68096 0.09244 0.0
H406 H 0.69258 0.71013 0.3472 0.0
H407 H 0.70417 0.7409 0.28615 0.0
H408 H 0.67228 0.75192 0.35108 0.0
H409 H 0.617 0.63369 0.05262 0.0
H410 H 0.66117 0.64776 0.054 0.0
H411 H 0.64989 0.61999 0.12171 0.0
H412 H 0.77063 0.67209 0.11747 0.0
H413 H 0.74097 0.6032 0.27358 0.0
H414 H 0.70577 0.73479 0.14822 0.0
H415 H 0.69251 0.70481 0.06722 0.0
H416 H 0.73689 0.71913 0.08459 0.0
H417 H 0.66909 0.65171 0.3341 0.0
H418 H 0.68981 0.61014 0.33261 0.0
H419 H 0.65581 0.61818 0.26023 0.0
C420 C 0.37364 0.7418 0.09799 0.0
C421 C 0.39601 0.72949 0.0444 0.0
C422 C 0.34657 0.72086 0.11519 0.0
C423 C 0.34223 0.68661 0.07912 0.0
C424 C 0.36441 0.67433 0.02416 0.0
C425 C 0.39072 0.69596 1.00706 0.0
C426 C 0.32308 0.73513 0.17309 0.0
C427 C 0.36124 0.63781 0.98537 0.0
C428 C 0.30313 0.61712 0.18 0.0
C429 C 0.2708 0.61113 0.13786 0.0
C430 C 0.32612 0.64222 0.16272 0.0
C431 C 0.31644 0.66247 0.10258 0.0
C432 C 0.28331 0.65754 0.0616 0.0
C433 C 0.26101 0.63166 0.07916 0.0
C434 C 0.36139 0.64603 0.20695 0.0
C435 C 0.27174 0.67906 0.99809 0.0
H436 H 0.37738 0.76771 0.12682 0.0
H437 H 0.40785 0.68607 0.9657 0.0
H438 H 0.29567 0.73096 0.14997 0.0
H439 H 0.32732 0.72121 0.22448 0.0
H440 H 0.3276 0.7632 0.19032 0.0
H441 H 0.37976 0.6326 0.9421 0.0
H442 H 0.36603 0.61916 0.02828 0.0
H443 H 0.33471 0.63282 0.95728 0.0
H444 H 0.31109 0.6014 0.22535 0.0
H445 H 0.23603 0.62738 0.0466 0.0
H446 H 0.36612 0.67326 0.23131 0.0
H447 H 0.38155 0.63922 0.16828 0.0
H448 H 0.36446 0.62924 0.25391 0.0
H449 H 0.27584 0.70696 0.01754 0.0
H450 H 0.2441 0.67456 0.97704 0.0
H451 H 0.28745 0.67272 0.94996 0.0
loop_
_geom_bond_atom_site_label_1
_geom_bond_atom_site_label_2
_geom_bond_distance
_geom_bond_site_symmetry_2
_ccdc_geom_bond_type
C0 C1 1.351 . S
C0 N3 1.368 . S
C0 H5 0.931 . S
C1 C0 1.351 . S
C1 N2 1.373 . S
C1 H29 0.930 . S
N2 C1 1.373 . S
N2 C4 1.340 . S
N3 C0 1.368 . S
N3 C4 1.321 . S
N3 Co6 2.135 1_556 S
C4 N2 1.340 . S
C4 N3 1.321 . S
C4 H28 0.930 . S
H5 C0 0.931 . S
Co6 N3 2.135 1_554 S
Co6 N9 2.121 . S
Co6 O14 2.055 . S
Co6 O17 2.039 . S
Co6 N20 2.140 . S
C7 O8 1.227 . S
C7 O17 1.265 . S
O8 C7 1.227 . S
N9 Co6 2.121 . S
N9 C11 1.375 . S
N9 C12 1.313 . S
C10 C11 1.338 . S
C10 N13 1.377 . S
C10 H30 0.930 . S
C11 N9 1.375 . S
C11 C10 1.338 . S
C11 H15 0.931 . S
C12 N9 1.313 . S
C12 N13 1.344 . S
C12 H16 0.930 . S
N13 C10 1.377 . S
N13 C12 1.344 . S
O14 Co6 2.055 . S
O14 C18 1.253 . S
H15 C11 0.931 . S
H16 C12 0.930 . S
O17 Co6 2.039 . S
O17 C7 1.265 . S
C18 O14 1.253 . S
C18 O19 1.227 . S
O19 C18 1.227 . S
N20 Co6 2.140 . S
N20 C23 1.346 . S
N20 C24 1.345 . S
C21 C22 1.387 . S
C21 C25 1.391 . S
C22 C21 1.387 . S
C22 C23 1.369 . S
C22 H31 0.929 1_554 S
C23 N20 1.346 . S
C23 C22 1.369 . S
C23 H26 0.928 1_554 S
C24 N20 1.345 . S
C24 C25 1.371 . S
C24 H27 0.931 . S
C25 C21 1.391 . S
C25 C24 1.371 . S
C25 H32 0.930 . S
H26 C23 0.928 1_556 S
H27 C24 0.931 . S
H28 C4 0.930 . S
H29 C1 0.930 . S
H30 C10 0.930 . S
H31 C22 0.929 1_556 S
H32 C25 0.930 . S
C33 C34 1.351 . S
C33 N36 1.368 . S
C33 H38 0.931 . S
C34 C33 1.351 . S
C34 N35 1.373 . S
C34 H62 0.930 . S
N35 C34 1.373 . S
N35 C37 1.340 . S
N36 C33 1.368 . S
N36 C37 1.321 . S
N36 Co39 2.135 1_556 S
C37 N35 1.340 . S
C37 N36 1.321 . S
C37 H61 0.930 . S
H38 C33 0.931 . S
Co39 N36 2.135 1_554 S
Co39 N42 2.121 . S
Co39 O47 2.055 . S
Co39 O50 2.039 . S
Co39 N53 2.140 . S
C40 O41 1.227 . S
C40 O50 1.265 . S
O41 C40 1.227 . S
N42 Co39 2.121 . S
N42 C44 1.375 . S
N42 C45 1.313 . S
C43 C44 1.338 . S
C43 N46 1.377 . S
C43 H63 0.930 . S
C44 N42 1.375 . S
C44 C43 1.338 . S
C44 H48 0.931 . S
C45 N42 1.313 . S
C45 N46 1.344 . S
C45 H49 0.930 . S
N46 C43 1.377 . S
N46 C45 1.344 . S
O47 Co39 2.055 . S
O47 C51 1.253 . S
H48 C44 0.931 . S
H49 C45 0.930 . S
O50 Co39 2.039 . S
O50 C40 1.265 . S
C51 O47 1.253 . S
C51 O52 1.227 . S
O52 C51 1.227 . S
N53 Co39 2.140 . S
N53 C56 1.346 . S
N53 C57 1.345 . S
C54 C55 1.387 . S
C54 C58 1.391 . S
C55 C54 1.387 . S
C55 C56 1.369 . S
C55 H64 0.929 1_554 S
C56 N53 1.346 . S
C56 C55 1.369 . S
C56 H59 0.928 1_554 S
C57 N53 1.345 . S
C57 C58 1.371 . S
C57 H60 0.931 . S
C58 C54 1.391 . S
C58 C57 1.371 . S
C58 H65 0.930 . S
H59 C56 0.928 1_556 S
H60 C57 0.931 . S
H61 C37 0.930 . S
H62 C34 0.930 . S
H63 C43 0.930 . S
H64 C55 0.929 1_556 S
H65 C58 0.930 . S
C66 C67 1.351 . S
C66 N69 1.368 . S
C66 H71 0.931 . S
C67 C66 1.351 . S
C67 N68 1.373 . S
C67 H95 0.930 . S
N68 C67 1.373 . S
N68 C70 1.340 . S
N69 C66 1.368 . S
N69 C70 1.321 . S
N69 Co72 2.135 . S
C70 N68 1.340 . S
C70 N69 1.321 . S
C70 H94 0.930 . S
H71 C66 0.931 . S
Co72 N69 2.135 . S
Co72 N75 2.121 . S
Co72 O80 2.055 . S
Co72 O83 2.039 . S
Co72 N86 2.140 . S
C73 O74 1.227 . S
C73 O83 1.265 . S
O74 C73 1.227 . S
N75 Co72 2.121 . S
N75 C77 1.375 1_554 S
N75 C78 1.313 1_554 S
C76 C77 1.338 . S
C76 N79 1.377 . S
C76 H96 0.930 . S
C77 N75 1.375 1_556 S
C77 C76 1.338 . S
C77 H81 0.931 1_556 S
C78 N75 1.313 1_556 S
C78 N79 1.344 . S
C78 H82 0.930 . S
N79 C76 1.377 . S
N79 C78 1.344 . S
O80 Co72 2.055 . S
O80 C84 1.253 . S
H81 C77 0.931 1_554 S
H82 C78 0.930 . S
O83 Co72 2.039 . S
O83 C73 1.265 . S
C84 O80 1.253 . S
C84 O85 1.227 . S
O85 C84 1.227 . S
N86 Co72 2.140 . S
N86 C89 1.346 . S
N86 C90 1.345 . S
C87 C88 1.387 . S
C87 C91 1.391 . S
C88 C87 1.387 . S
C88 C89 1.369 . S
C88 H97 0.929 . S
C89 N86 1.346 . S
C89 C88 1.369 . S
C89 H92 0.928 . S
C90 N86 1.345 . S
C90 C91 1.371 . S
C90 H93 0.931 . S
C91 C87 1.391 . S
C91 C90 1.371 . S
C91 H98 0.930 . S
H92 C89 0.928 . S
H93 C90 0.931 . S
H94 C70 0.930 . S
H95 C67 0.930 . S
H96 C76 0.930 . S
H97 C88 0.929 . S
H98 C91 0.930 . S
C99 C100 1.351 . S
C99 N102 1.368 . S
C99 H104 0.931 . S
C100 C99 1.351 . S
C100 N101 1.373 . S
C100 H128 0.930 . S
N101 C100 1.373 . S
N101 C103 1.340 . S
N102 C99 1.368 . S
N102 C103 1.321 . S
N102 Co105 2.135 . S
C103 N101 1.340 . S
C103 N102 1.321 . S
C103 H127 0.930 . S
H104 C99 0.931 . S
Co105 N102 2.135 . S
Co105 N108 2.121 . S
Co105 O113 2.055 . S
Co105 O116 2.039 . S
Co105 N119 2.140 . S
C106 O107 1.227 . S
C106 O116 1.265 . S
O107 C106 1.227 . S
N108 Co105 2.121 . S
N108 C110 1.375 1_554 S
N108 C111 1.313 1_554 S
C109 C110 1.338 . S
C109 N112 1.377 . S
C109 H129 0.930 . S
C110 N108 1.375 1_556 S
C110 C109 1.338 . S
C110 H114 0.931 . S
C111 N108 1.313 1_556 S
C111 N112 1.344 . S
C111 H115 0.930 . S
N112 C109 1.377 . S
N112 C111 1.344 . S
O113 Co105 2.055 . S
O113 C117 1.253 . S
H114 C110 0.931 . S
H115 C111 0.930 . S
O116 Co105 2.039 . S
O116 C106 1.265 . S
C117 O113 1.253 . S
C117 O118 1.227 . S
O118 C117 1.227 . S
N119 Co105 2.140 . S
N119 C122 1.346 . S
N119 C123 1.345 . S
C120 C121 1.387 . S
C120 C124 1.391 . S
C121 C120 1.387 . S
C121 C122 1.369 . S
C121 H130 0.929 . S
C122 N119 1.346 . S
C122 C121 1.369 . S
C122 H125 0.928 . S
C123 N119 1.345 . S
C123 C124 1.371 . S
C123 H126 0.931 . S
C124 C120 1.391 . S
C124 C123 1.371 . S
C124 H131 0.930 . S
H125 C122 0.928 . S
H126 C123 0.931 . S
H127 C103 0.930 . S
H128 C100 0.930 . S
H129 C109 0.930 . S
H130 C121 0.929 . S
H131 C124 0.930 . S
C132 C133 1.391 . S
C132 C134 1.394 . S
C132 H148 0.931 . S
C133 C132 1.391 . S
C133 C137 1.376 . S
C134 C132 1.394 . S
C134 C135 1.369 . S
C134 C138 1.531 . S
C135 C134 1.369 . S
C135 C136 1.410 . S
C135 C143 1.503 . S
C136 C135 1.410 . S
C136 C137 1.392 . S
C136 C139 1.511 . S
C137 C133 1.376 . S
C137 C136 1.392 . S
C137 H149 0.929 . S
C138 C134 1.531 . S
C138 H150 0.960 . S
C138 H151 0.962 . S
C138 H152 0.960 . S
C139 C136 1.511 . S
C139 H153 0.961 . S
C139 H154 0.961 . S
C139 H155 0.961 . S
C140 C141 1.370 . S
C140 C142 1.363 . S
C140 H156 0.931 . S
C141 C140 1.370 . S
C141 C145 1.408 . S
C142 C140 1.363 . S
C142 C143 1.370 . S
C142 C146 1.524 . S
C143 C135 1.503 . S
C143 C142 1.370 . S
C143 C144 1.403 . S
C144 C143 1.403 . S
C144 C145 1.404 . S
C144 C147 1.539 . S
C145 C141 1.408 . S
C145 C144 1.404 . S
C145 H157 0.930 . S
C146 C142 1.524 . S
C146 H158 0.956 . S
C146 H159 0.961 . S
C146 H160 0.961 . S
C147 C144 1.539 . S
C147 H161 0.958 . S
C147 H162 0.961 . S
C147 H163 0.960 . S
H148 C132 0.931 . S
H149 C137 0.929 . S
H150 C138 0.960 . S
H151 C138 0.962 . S
H152 C138 0.960 . S
H153 C139 0.961 . S
H154 C139 0.961 . S
H155 C139 0.961 . S
H156 C140 0.931 . S
H157 C145 0.930 . S
H158 C146 0.956 . S
H159 C146 0.961 . S
H160 C146 0.961 . S
H161 C147 0.958 . S
H162 C147 0.961 . S
H163 C147 0.960 . S
C164 C165 1.391 . S
C164 C166 1.394 . S
C164 H180 0.931 . S
C165 C164 1.391 . S
C165 C169 1.376 . S
C166 C164 1.394 . S
C166 C167 1.369 . S
C166 C170 1.531 . S
C167 C166 1.369 . S
C167 C168 1.410 . S
C167 C175 1.503 . S
C168 C167 1.410 . S
C168 C169 1.392 . S
C168 C171 1.511 . S
C169 C165 1.376 . S
C169 C168 1.392 . S
C169 H181 0.929 . S
C170 C166 1.531 . S
C170 H182 0.960 . S
C170 H183 0.962 . S
C170 H184 0.960 . S
C171 C168 1.511 . S
C171 H185 0.961 . S
C171 H186 0.961 . S
C171 H187 0.961 . S
C172 C173 1.370 . S
C172 C174 1.363 . S
C172 H188 0.931 . S
C173 C172 1.370 . S
C173 C177 1.408 . S
C174 C172 1.363 . S
C174 C175 1.370 . S
C174 C178 1.524 . S
C175 C167 1.503 . S
C175 C174 1.370 . S
C175 C176 1.403 . S
C176 C175 1.403 . S
C176 C177 1.404 . S
C176 C179 1.539 . S
C177 C173 1.408 . S
C177 C176 1.404 . S
C177 H189 0.930 . S
C178 C174 1.524 . S
C178 H190 0.956 . S
C178 H191 0.961 . S
C178 H192 0.961 . S
C179 C176 1.539 . S
C179 H193 0.958 . S
C179 H194 0.961 . S
C179 H195 0.960 . S
H180 C164 0.931 . S
H181 C169 0.929 . S
H182 C170 0.960 . S
H183 C170 0.962 . S
H184 C170 0.960 . S
H185 C171 0.961 . S
H186 C171 0.961 . S
H187 C171 0.961 . S
H188 C172 0.931 . S
H189 C177 0.930 . S
H190 C178 0.956 . S
H191 C178 0.961 . S
H192 C178 0.961 . S
H193 C179 0.958 . S
H194 C179 0.961 . S
H195 C179 0.960 . S
C196 C197 1.391 . S
C196 C198 1.394 . S
C196 H212 0.931 . S
C197 C196 1.391 . S
C197 C201 1.376 . S
C198 C196 1.394 . S
C198 C199 1.369 . S
C198 C202 1.531 . S
C199 C198 1.369 . S
C199 C200 1.410 . S
C199 C207 1.503 . S
C200 C199 1.410 . S
C200 C201 1.392 . S
C200 C203 1.511 . S
C201 C197 1.376 . S
C201 C200 1.392 . S
C201 H213 0.929 . S
C202 C198 1.531 . S
C202 H214 0.960 . S
C202 H215 0.962 . S
C202 H216 0.960 . S
C203 C200 1.511 . S
C203 H217 0.961 . S
C203 H218 0.961 . S
C203 H219 0.961 . S
C204 C205 1.370 . S
C204 C206 1.363 . S
C204 H220 0.931 . S
C205 C204 1.370 . S
C205 C209 1.408 . S
C206 C204 1.363 . S
C206 C207 1.370 . S
C206 C210 1.524 . S
C207 C199 1.503 . S
C207 C206 1.370 . S
C207 C208 1.403 . S
C208 C207 1.403 . S
C208 C209 1.404 . S
C208 C211 1.539 . S
C209 C205 1.408 . S
C209 C208 1.404 . S
C209 H221 0.930 . S
C210 C206 1.524 . S
C210 H222 0.956 . S
C210 H223 0.961 . S
C210 H224 0.961 . S
C211 C208 1.539 . S
C211 H225 0.958 . S
C211 H226 0.961 . S
C211 H227 0.960 . S
H212 C196 0.931 . S
H213 C201 0.929 . S
H214 C202 0.960 . S
H215 C202 0.962 . S
H216 C202 0.960 . S
H217 C203 0.961 . S
H218 C203 0.961 . S
H219 C203 0.961 . S
H220 C204 0.931 . S
H221 C209 0.930 . S
H222 C210 0.956 . S
H223 C210 0.961 . S
H224 C210 0.961 . S
H225 C211 0.958 . S
H226 C211 0.961 . S
H227 C211 0.960 . S
C228 C229 1.391 . S
C228 C230 1.394 . S
C228 H244 0.931 . S
C229 C228 1.391 . S
C229 C233 1.376 . S
C230 C228 1.394 . S
C230 C231 1.369 . S
C230 C234 1.531 . S
C231 C230 1.369 . S
C231 C232 1.410 . S
C231 C239 1.503 . S
C232 C231 1.410 . S
C232 C233 1.392 . S
C232 C235 1.511 . S
C233 C229 1.376 . S
C233 C232 1.392 . S
C233 H245 0.929 . S
C234 C230 1.531 . S
C234 H246 0.960 . S
C234 H247 0.962 . S
C234 H248 0.960 . S
C235 C232 1.511 . S
C235 H249 0.961 . S
C235 H250 0.961 . S
C235 H251 0.961 . S
C236 C237 1.370 . S
C236 C238 1.363 . S
C236 H252 0.931 . S
C237 C236 1.370 . S
C237 C241 1.408 . S
C238 C236 1.363 . S
C238 C239 1.370 . S
C238 C242 1.524 . S
C239 C231 1.503 . S
C239 C238 1.370 . S
C239 C240 1.403 . S
C240 C239 1.403 . S
C240 C241 1.404 . S
C240 C243 1.539 . S
C241 C237 1.408 . S
C241 C240 1.404 . S
C241 H253 0.930 . S
C242 C238 1.524 . S
C242 H254 0.956 . S
C242 H255 0.961 . S
C242 H256 0.961 . S
C243 C240 1.539 . S
C243 H257 0.958 . S
C243 H258 0.961 . S
C243 H259 0.960 . S
H244 C228 0.931 . S
H245 C233 0.929 . S
H246 C234 0.960 . S
H247 C234 0.962 . S
H248 C234 0.960 . S
H249 C235 0.961 . S
H250 C235 0.961 . S
H251 C235 0.961 . S
H252 C236 0.931 . S
H253 C241 0.930 . S
H254 C242 0.956 . S
H255 C242 0.961 . S
H256 C242 0.961 . S
H257 C243 0.958 . S
H258 C243 0.961 . S
H259 C243 0.960 . S
C260 C261 1.391 . S
C260 C262 1.394 . S
C260 H276 0.931 . S
C261 C260 1.391 . S
C261 C265 1.376 . S
C262 C260 1.394 . S
C262 C263 1.369 . S
C262 C266 1.531 . S
C263 C262 1.369 . S
C263 C264 1.410 . S
C263 C271 1.503 1_655 S
C264 C263 1.410 . S
C264 C265 1.392 . S
C264 C267 1.511 . S
C265 C261 1.376 . S
C265 C264 1.392 . S
C265 H277 0.929 . S
C266 C262 1.531 . S
C266 H278 0.960 1_655 S
C266 H279 0.962 . S
C266 H280 0.960 . S
C267 C264 1.511 . S
C267 H281 0.961 . S
C267 H282 0.961 . S
C267 H283 0.961 . S
C268 C269 1.370 . S
C268 C270 1.363 . S
C268 H284 0.931 1_554 S
C269 C268 1.370 . S
C269 C273 1.408 . S
C270 C268 1.363 . S
C270 C271 1.370 . S
C270 C274 1.524 1_454 S
C271 C263 1.503 1_455 S
C271 C270 1.370 . S
C271 C272 1.403 . S
C272 C271 1.403 . S
C272 C273 1.404 . S
C272 C275 1.539 . S
C273 C269 1.408 . S
C273 C272 1.404 . S
C273 H285 0.930 . S
C274 C270 1.524 1_656 S
C274 H286 0.956 . S
C274 H287 0.961 . S
C274 H288 0.961 1_655 S
C275 C272 1.539 . S
C275 H289 0.958 . S
C275 H290 0.961 . S
C275 H291 0.960 . S
H276 C260 0.931 . S
H277 C265 0.929 . S
H278 C266 0.960 1_455 S
H279 C266 0.962 . S
H280 C266 0.960 . S
H281 C267 0.961 . S
H282 C267 0.961 . S
H283 C267 0.961 . S
H284 C268 0.931 1_556 S
H285 C273 0.930 . S
H286 C274 0.956 . S
H287 C274 0.961 . S
H288 C274 0.961 1_455 S
H289 C275 0.958 . S
H290 C275 0.961 . S
H291 C275 0.960 . S
C292 C293 1.391 . S
C292 C294 1.394 . S
C292 H308 0.931 . S
C293 C292 1.391 . S
C293 C297 1.376 . S
C294 C292 1.394 . S
C294 C295 1.369 . S
C294 C298 1.531 1_565 S
C295 C294 1.369 . S
C295 C296 1.410 . S
C295 C303 1.503 1_565 S
C296 C295 1.410 . S
C296 C297 1.392 . S
C296 C299 1.511 . S
C297 C293 1.376 . S
C297 C296 1.392 . S
C297 H309 0.929 . S
C298 C294 1.531 1_545 S
C298 H310 0.960 . S
C298 H311 0.962 . S
C298 H312 0.960 1_545 S
C299 C296 1.511 . S
C299 H313 0.961 1_554 S
C299 H314 0.959 1_564 S
C299 H315 0.961 . S
C300 C301 1.370 . S
C300 C302 1.363 . S
C300 H316 0.931 1_554 S
C301 C300 1.370 . S
C301 C305 1.408 . S
C302 C300 1.363 . S
C302 C303 1.370 . S
C302 C306 1.520 1_554 S
C303 C295 1.503 1_545 S
C303 C302 1.370 . S
C303 C304 1.403 . S
C304 C303 1.403 . S
C304 C305 1.404 . S
C304 C307 1.539 . S
C305 C301 1.408 . S
C305 C304 1.404 . S
C305 H317 0.930 . S
C306 C302 1.520 1_556 S
C306 H318 0.950 1_556 S
C306 H319 0.964 1_545 S
C306 H320 0.967 . S
C307 C304 1.539 . S
C307 H321 0.958 . S
C307 H322 0.961 . S
C307 H323 0.960 . S
H308 C292 0.931 . S
H309 C297 0.929 . S
H310 C298 0.960 . S
H311 C298 0.962 . S
H312 C298 0.960 1_565 S
H313 C299 0.961 1_556 S
H314 C299 0.959 1_546 S
H315 C299 0.961 . S
H316 C300 0.931 1_556 S
H317 C305 0.930 . S
H318 C306 0.950 1_554 S
H319 C306 0.964 1_565 S
H320 C306 0.967 . S
H321 C307 0.958 . S
H322 C307 0.961 . S
H323 C307 0.960 . S
C324 C325 1.391 . S
C324 C326 1.394 . S
C324 H340 0.931 . S
C325 C324 1.391 . S
C325 C329 1.376 . S
C326 C324 1.394 . S
C326 C327 1.369 . S
C326 C330 1.531 . S
C327 C326 1.369 . S
C327 C328 1.410 . S
C327 C335 1.503 . S
C328 C327 1.410 . S
C328 C329 1.392 . S
C328 C331 1.511 . S
C329 C325 1.376 . S
C329 C328 1.392 . S
C329 H341 0.929 . S
C330 C326 1.531 . S
C330 H342 0.960 1_554 S
C330 H343 0.962 . S
C330 H344 0.960 1_554 S
C331 C328 1.511 . S
C331 H345 0.961 . S
C331 H346 0.961 . S
C331 H347 0.961 1_554 S
C332 C333 1.370 . S
C332 C334 1.363 . S
C332 H348 0.931 . S
C333 C332 1.370 . S
C333 C337 1.408 1_554 S
C334 C332 1.363 . S
C334 C335 1.370 . S
C334 C338 1.524 . S
C335 C327 1.503 . S
C335 C334 1.370 . S
C335 C336 1.403 1_554 S
C336 C335 1.403 1_556 S
C336 C337 1.404 . S
C336 C339 1.539 . S
C337 C333 1.408 1_556 S
C337 C336 1.404 . S
C337 H349 0.930 . S
C338 C334 1.524 . S
C338 H350 0.956 . S
C338 H351 0.961 . S
C338 H352 0.961 . S
C339 C336 1.539 . S
C339 H353 0.958 . S
C339 H354 0.961 . S
C339 H355 0.960 . S
H340 C324 0.931 . S
H341 C329 0.929 . S
H342 C330 0.960 1_556 S
H343 C330 0.962 . S
H344 C330 0.960 1_556 S
H345 C331 0.961 . S
H346 C331 0.961 . S
H347 C331 0.961 1_556 S
H348 C332 0.931 . S
H349 C337 0.930 . S
H350 C338 0.956 . S
H351 C338 0.961 . S
H352 C338 0.961 . S
H353 C339 0.958 . S
H354 C339 0.961 . S
H355 C339 0.960 . S
C356 C357 1.391 . S
C356 C358 1.394 . S
C356 H372 0.931 . S
C357 C356 1.391 . S
C357 C361 1.376 . S
C358 C356 1.394 . S
C358 C359 1.369 . S
C358 C362 1.531 . S
C359 C358 1.369 . S
C359 C360 1.410 . S
C359 C367 1.503 . S
C360 C359 1.410 . S
C360 C361 1.392 . S
C360 C363 1.511 . S
C361 C357 1.376 . S
C361 C360 1.392 . S
C361 H373 0.929 . S
C362 C358 1.531 . S
C362 H374 0.960 . S
C362 H375 0.962 . S
C362 H376 0.960 . S
C363 C360 1.511 . S
C363 H377 0.961 . S
C363 H378 0.961 . S
C363 H379 0.961 . S
C364 C365 1.370 . S
C364 C366 1.363 . S
C364 H380 0.931 1_554 S
C365 C364 1.370 . S
C365 C369 1.408 . S
C366 C364 1.363 . S
C366 C367 1.370 . S
C366 C370 1.524 1_554 S
C367 C359 1.503 . S
C367 C366 1.370 . S
C367 C368 1.403 . S
C368 C367 1.403 . S
C368 C369 1.404 . S
C368 C371 1.539 . S
C369 C365 1.408 . S
C369 C368 1.404 . S
C369 H381 0.930 . S
C370 C366 1.524 1_556 S
C370 H382 0.956 . S
C370 H383 0.961 . S
C370 H384 0.961 . S
C371 C368 1.539 . S
C371 H385 0.958 . S
C371 H386 0.961 . S
C371 H387 0.960 . S
H372 C356 0.931 . S
H373 C361 0.929 . S
H374 C362 0.960 . S
H375 C362 0.962 . S
H376 C362 0.960 . S
H377 C363 0.961 . S
H378 C363 0.961 . S
H379 C363 0.961 . S
H380 C364 0.931 1_556 S
H381 C369 0.930 . S
H382 C370 0.956 . S
H383 C370 0.961 . S
H384 C370 0.961 . S
H385 C371 0.958 . S
H386 C371 0.961 . S
H387 C371 0.960 . S
C388 C389 1.391 . S
C388 C390 1.394 . S
C388 H404 0.931 . S
C389 C388 1.391 . S
C389 C393 1.376 . S
C390 C388 1.394 . S
C390 C391 1.369 . S
C390 C394 1.531 . S
C391 C390 1.369 . S
C391 C392 1.410 . S
C391 C399 1.503 . S
C392 C391 1.410 . S
C392 C393 1.392 . S
C392 C395 1.511 . S
C393 C389 1.376 . S
C393 C392 1.392 . S
C393 H405 0.929 . S
C394 C390 1.531 . S
C394 H406 0.960 . S
C394 H407 0.962 . S
C394 H408 0.960 . S
C395 C392 1.511 . S
C395 H409 0.961 . S
C395 H410 0.961 . S
C395 H411 0.961 . S
C396 C397 1.370 . S
C396 C398 1.363 . S
C396 H412 0.931 . S
C397 C396 1.370 . S
C397 C401 1.408 . S
C398 C396 1.363 . S
C398 C399 1.370 . S
C398 C402 1.524 . S
C399 C391 1.503 . S
C399 C398 1.370 . S
C399 C400 1.403 . S
C400 C399 1.403 . S
C400 C401 1.404 . S
C400 C403 1.539 . S
C401 C397 1.408 . S
C401 C400 1.404 . S
C401 H413 0.930 . S
C402 C398 1.524 . S
C402 H414 0.956 . S
C402 H415 0.961 . S
C402 H416 0.961 1_554 S
C403 C400 1.539 . S
C403 H417 0.958 . S
C403 H418 0.961 . S
C403 H419 0.960 . S
H404 C388 0.931 . S
H405 C393 0.929 . S
H406 C394 0.960 . S
H407 C394 0.962 . S
H408 C394 0.960 . S
H409 C395 0.961 . S
H410 C395 0.961 . S
H411 C395 0.961 . S
H412 C396 0.931 . S
H413 C401 0.930 . S
H414 C402 0.956 . S
H415 C402 0.961 . S
H416 C402 0.961 1_556 S
H417 C403 0.958 . S
H418 C403 0.961 . S
H419 C403 0.960 . S
C420 C421 1.391 . S
C420 C422 1.394 . S
C420 H436 0.931 . S
C421 C420 1.391 . S
C421 C425 1.376 . S
C422 C420 1.394 . S
C422 C423 1.369 . S
C422 C426 1.531 . S
C423 C422 1.369 . S
C423 C424 1.410 . S
C423 C431 1.503 . S
C424 C423 1.410 . S
C424 C425 1.392 . S
C424 C427 1.511 1_554 S
C425 C421 1.376 . S
C425 C424 1.392 . S
C425 H437 0.929 . S
C426 C422 1.531 . S
C426 H438 0.960 . S
C426 H439 0.962 . S
C426 H440 0.960 . S
C427 C424 1.511 1_556 S
C427 H441 0.961 . S
C427 H442 0.961 1_556 S
C427 H443 0.961 . S
C428 C429 1.370 . S
C428 C430 1.363 . S
C428 H444 0.931 . S
C429 C428 1.370 . S
C429 C433 1.408 . S
C430 C428 1.363 . S
C430 C431 1.370 . S
C430 C434 1.524 . S
C431 C423 1.503 . S
C431 C430 1.370 . S
C431 C432 1.403 . S
C432 C431 1.403 . S
C432 C433 1.404 . S
C432 C435 1.539 1_554 S
C433 C429 1.408 . S
C433 C432 1.404 . S
C433 H445 0.930 1_554 S
C434 C430 1.524 . S
C434 H446 0.956 . S
C434 H447 0.961 . S
C434 H448 0.961 . S
C435 C432 1.539 1_556 S
C435 H449 0.958 . S
C435 H450 0.961 . S
C435 H451 0.960 . S
H436 C420 0.931 . S
H437 C425 0.929 . S
H438 C426 0.960 . S
H439 C426 0.962 . S
H440 C426 0.960 . S
H441 C427 0.961 . S
H442 C427 0.961 1_554 S
H443 C427 0.961 . S
H444 C428 0.931 . S
H445 C433 0.930 1_556 S
H446 C434 0.956 . S
H447 C434 0.961 . S
H448 C434 0.961 . S
H449 C435 0.958 . S
H450 C435 0.961 . S
H451 C435 0.960 . S
C133 N2 1.452 . S
C141 N13 1.446 . S
C165 N35 1.468 . S
C173 N46 1.447 . S
C197 N79 1.448 . S
C205 N68 1.454 . S
C229 N112 1.420 . S
C237 N101 1.459 . S
C261 C84 1.089 . S
C269 C18 1.079 . S
C293 C117 1.087 . S
C301 C51 1.079 . S
C325 C40 1.437 . S
C333 C21 1.457 . S
C357 C87 1.243 . S
C365 C54 1.248 . S
C389 C120 1.457 . S
C397 C73 1.442 . S
C421 C106 1.696 . S
C429 C7 1.690 . S
