# Generated by pormake.
# Topology ecn, (8)-cn, num edge types: 1
# Building blocks:
#     Node 0, Type 0, BuildingBlock: TAGTUT_clean_sbu_3, # of connection points: 8
#     Node 1, Type 0, BuildingBlock: TAGTUT_clean_sbu_3, # of connection points: 8
#     Node 2, Type 0, BuildingBlock: TAGTUT_clean_sbu_3, # of connection points: 8
#     Node 3, Type 0, BuildingBlock: TAGTUT_clean_sbu_3, # of connection points: 8
#     Node 4, Type 0, BuildingBlock: TAGTUT_clean_sbu_3, # of connection points: 8
#     Node 5, Type 0, BuildingBlock: TAGTUT_clean_sbu_3, # of connection points: 8
#     Node 6, Type 0, BuildingBlock: TAGTUT_clean_sbu_3, # of connection points: 8
#     Node 7, Type 0, BuildingBlock: TAGTUT_clean_sbu_3, # of connection points: 8
#     Node 8, Type 0, BuildingBlock: TAGTUT_clean_sbu_3, # of connection points: 8
#     Edge 9, Type (0, 0), BuildingBlock: XIVTED_clean_linker_0, # of connection points: 2
#     Edge 10, Type (0, 0), BuildingBlock: XIVTED_clean_linker_0, # of connection points: 2
#     Edge 11, Type (0, 0), BuildingBlock: XIVTED_clean_linker_0, # of connection points: 2
#     Edge 12, Type (0, 0), BuildingBlock: XIVTED_clean_linker_0, # of connection points: 2
#     Edge 13, Type (0, 0), BuildingBlock: XIVTED_clean_linker_0, # of connection points: 2
#     Edge 14, Type (0, 0), BuildingBlock: XIVTED_clean_linker_0, # of connection points: 2
#     Edge 15, Type (0, 0), BuildingBlock: XIVTED_clean_linker_0, # of connection points: 2
#     Edge 16, Type (0, 0), BuildingBlock: XIVTED_clean_linker_0, # of connection points: 2
#     Edge 17, Type (0, 0), BuildingBlock: XIVTED_clean_linker_0, # of connection points: 2
#     Edge 18, Type (0, 0), BuildingBlock: XIVTED_clean_linker_0, # of connection points: 2
#     Edge 19, Type (0, 0), BuildingBlock: XIVTED_clean_linker_0, # of connection points: 2
#     Edge 20, Type (0, 0), BuildingBlock: XIVTED_clean_linker_0, # of connection points: 2
#     Edge 21, Type (0, 0), BuildingBlock: XIVTED_clean_linker_0, # of connection points: 2
#     Edge 22, Type (0, 0), BuildingBlock: XIVTED_clean_linker_0, # of connection points: 2
#     Edge 23, Type (0, 0), BuildingBlock: XIVTED_clean_linker_0, # of connection points: 2
#     Edge 24, Type (0, 0), BuildingBlock: XIVTED_clean_linker_0, # of connection points: 2
#     Edge 25, Type (0, 0), BuildingBlock: XIVTED_clean_linker_0, # of connection points: 2
#     Edge 26, Type (0, 0), BuildingBlock: XIVTED_clean_linker_0, # of connection points: 2
#     Edge 27, Type (0, 0), BuildingBlock: XIVTED_clean_linker_0, # of connection points: 2
#     Edge 28, Type (0, 0), BuildingBlock: XIVTED_clean_linker_0, # of connection points: 2
#     Edge 29, Type (0, 0), BuildingBlock: XIVTED_clean_linker_0, # of connection points: 2
#     Edge 30, Type (0, 0), BuildingBlock: XIVTED_clean_linker_0, # of connection points: 2
#     Edge 31, Type (0, 0), BuildingBlock: XIVTED_clean_linker_0, # of connection points: 2
#     Edge 32, Type (0, 0), BuildingBlock: XIVTED_clean_linker_0, # of connection points: 2
#     Edge 33, Type (0, 0), BuildingBlock: XIVTED_clean_linker_0, # of connection points: 2
#     Edge 34, Type (0, 0), BuildingBlock: XIVTED_clean_linker_0, # of connection points: 2
#     Edge 35, Type (0, 0), BuildingBlock: XIVTED_clean_linker_0, # of connection points: 2
#     Edge 36, Type (0, 0), BuildingBlock: XIVTED_clean_linker_0, # of connection points: 2
#     Edge 37, Type (0, 0), BuildingBlock: XIVTED_clean_linker_0, # of connection points: 2
#     Edge 38, Type (0, 0), BuildingBlock: XIVTED_clean_linker_0, # of connection points: 2
#     Edge 39, Type (0, 0), BuildingBlock: XIVTED_clean_linker_0, # of connection points: 2
#     Edge 40, Type (0, 0), BuildingBlock: XIVTED_clean_linker_0, # of connection points: 2
#     Edge 41, Type (0, 0), BuildingBlock: XIVTED_clean_linker_0, # of connection points: 2
#     Edge 42, Type (0, 0), BuildingBlock: XIVTED_clean_linker_0, # of connection points: 2
#     Edge 43, Type (0, 0), BuildingBlock: XIVTED_clean_linker_0, # of connection points: 2
#     Edge 44, Type (0, 0), BuildingBlock: XIVTED_clean_linker_0, # of connection points: 2
# Relax obj value: 0.156
# Max RMSD: 0.272
# Mean RMSD: 0.272
data_MOF--net-ecn--node1-TAGTUT_clean_sbu_3--edge1-XIVTED_clean_linker_0
_symmetry_space_group_name_H-M    P1
_symmetry_Int_Tables_number       1
_symmetry_cell_setting            triclinic
loop_
_symmetry_equiv_pos_as_xyz
'x, y, z'
_cell_length_a     50.890726
_cell_length_b     50.850452
_cell_length_c     15.118391
_cell_angle_alpha  89.99749
_cell_angle_beta   89.934265
_cell_angle_gamma 120.16518
loop_
_atom_site_label
_atom_site_type_symbol
_atom_site_fract_x
_atom_site_fract_y
_atom_site_fract_z
_atom_type_partial_charge
C0 C 0.12043 0.27928 0.07125 0.0
C1 C 1.00169 0.21132 0.11116 0.0
C2 C 0.02203 0.13996 0.04692 0.0
Mg3 Mg 0.17153 0.26212 0.00028 0.0
Mg4 Mg 0.15399 0.20927 0.84491 0.0
O5 O 0.14451 0.22028 0.95354 0.0
Mg6 Mg 0.10448 0.21732 0.97567 0.0
O7 O 0.06587 0.21721 0.00764 0.0
Mg8 Mg 0.06739 0.21005 0.13639 0.0
Mg9 Mg 0.02874 0.19624 0.94929 0.0
C10 C 0.09165 0.15106 0.89652 0.0
O11 O 0.09572 0.22579 0.8343 0.0
O12 O 0.21171 0.25243 -0.01663 0.0
O13 O 0.04588 0.21039 0.81569 0.0
O14 O 0.18112 0.28163 0.86007 0.0
O15 O 0.19654 0.21404 0.88548 0.0
O16 O 0.16547 0.2463 0.75385 0.0
O17 O 0.11078 0.20892 0.11438 0.0
O18 O 0.15985 0.24136 0.13905 0.0
C19 C 0.13338 0.22161 0.16683 0.0
C20 C 0.21618 0.23335 0.93924 0.0
O21 O 0.08399 0.16677 0.9454 0.0
O22 O 0.02371 0.21266 0.1558 0.0
O23 O 0.1148 0.16316 0.84441 0.0
O24 O 0.03744 0.15598 0.11406 0.0
O25 O 0.99937 0.20673 0.02741 0.0
O26 O 0.01735 0.15175 -0.02113 0.0
O27 O 0.12786 0.26629 0.01136 0.0
O28 O 0.09877 0.26353 0.12716 0.0
C29 C 0.17772 0.27405 0.77853 0.0
C30 C 0.07321 0.22185 0.7865 0.0
C31 C 0.73403 0.84552 0.08925 0.0
C32 C 0.80138 0.79419 0.12606 0.0
C33 C 0.873 0.88588 0.05912 0.0
Mg34 Mg 0.75189 0.91423 0.01651 0.0
Mg35 Mg 0.80248 0.9467 0.85383 0.0
O36 O 0.79308 0.92823 0.96611 0.0
Mg37 Mg 0.79559 0.89097 -0.01038 0.0
O38 O 0.79548 0.85242 0.02251 0.0
Mg39 Mg 0.80336 0.86158 0.151 0.0
Mg40 Mg 0.81619 0.83609 0.96383 0.0
C41 C 0.86105 0.94317 0.90313 0.0
O42 O 0.78643 0.87309 0.84822 0.0
O43 O 0.76237 0.9644 -0.00381 0.0
O44 O 0.80218 0.83894 0.8303 0.0
O45 O 0.73109 0.90295 0.87935 0.0
O46 O 0.79899 0.98547 0.89192 0.0
O47 O 0.76406 0.91983 0.7671 0.0
O48 O 0.80488 0.90631 0.12845 0.0
O49 O 0.77367 0.92426 0.15349 0.0
C50 C 0.79282 0.91684 0.18114 0.0
C51 C 0.78103 0.98714 0.94811 0.0
O52 O 0.84583 0.92061 0.9555 0.0
O53 O 0.80041 0.81508 0.17085 0.0
O54 O 0.84844 0.95332 0.84994 0.0
O55 O 0.85731 0.88558 0.12672 0.0
O56 O 0.80565 0.79628 0.04217 0.0
O57 O 0.86084 0.86913 -0.00826 0.0
O58 O 0.74686 0.86587 0.02887 0.0
O59 O 0.74991 0.8396 0.14425 0.0
C60 C 0.73682 0.90521 0.79664 0.0
C61 C 0.79064 0.85461 0.80061 0.0
C62 C 0.16881 0.89412 0.07124 0.0
C63 C 0.21983 0.01282 0.11118 0.0
C64 C 0.12787 0.99217 0.04837 0.0
Mg65 Mg 0.09984 0.84254 0.00243 0.0
Mg66 Mg 0.06462 0.86004 0.8472 0.0
O67 O 0.08523 0.86959 0.95556 0.0
Mg68 Mg 0.12235 0.90969 -0.02279 0.0
O69 O 0.16099 0.94847 0.00862 0.0
Mg70 Mg 0.15259 0.94693 0.13747 0.0
Mg71 Mg 0.17738 0.98564 0.95015 0.0
C72 C 0.06858 0.92206 0.89849 0.0
O73 O 0.13947 0.91857 0.83574 0.0
O74 O 0.04953 0.80241 -0.0129 0.0
O75 O 0.17423 0.96844 0.81674 0.0
O76 O 0.10938 0.83268 0.86219 0.0
O77 O 0.02658 0.8178 0.88927 0.0
O78 O 0.08971 0.84819 0.75589 0.0
O79 O 0.1079 0.90341 0.11612 0.0
O80 O 0.09107 0.85434 0.14118 0.0
C81 C 0.09791 0.88082 0.16874 0.0
C82 C 0.02596 0.79817 0.9435 0.0
O83 O 0.09191 0.92981 0.94769 0.0
O84 O 0.1991 0.99081 0.15627 0.0
O85 O 0.05779 0.89911 0.84579 0.0
O86 O 0.12837 0.97666 0.11538 0.0
O87 O 0.21747 0.01502 0.02744 0.0
O88 O 0.14443 0.99703 -0.01969 0.0
O89 O 0.1481 0.8864 0.0121 0.0
O90 O 0.17472 0.91571 0.12726 0.0
C91 C 0.1051 0.83592 0.78063 0.0
C92 C 0.15818 0.94109 0.78778 0.0
C93 C 0.78655 0.6133 0.42211 0.0
C94 C 0.66831 0.54564 0.45798 0.0
C95 C 0.68799 0.474 0.39719 0.0
Mg96 Mg 0.83875 0.59743 0.35299 0.0
Mg97 Mg 0.82272 0.54554 0.19703 0.0
O98 O 0.81241 0.55557 0.30568 0.0
Mg99 Mg 0.77177 0.55132 0.32745 0.0
O100 O 0.73259 0.5505 0.35706 0.0
Mg101 Mg 0.73384 0.54401 0.48574 0.0
Mg102 Mg 0.69553 0.53032 0.29751 0.0
C103 C 0.76134 0.48613 0.24676 0.0
O104 O 0.7625 0.55773 0.18848 0.0
O105 O 0.87968 0.58864 0.33699 0.0
O106 O 0.71301 0.54226 0.16302 0.0
O107 O 0.84899 0.61808 0.21385 0.0
O108 O 0.865 0.55041 0.23884 0.0
O109 O 0.83506 0.58311 0.10743 0.0
O110 O 0.77771 0.54335 0.46437 0.0
O111 O 0.82671 0.57565 0.49014 0.0
C112 C 0.80021 0.55561 0.5169 0.0
C113 C 0.88443 0.56971 0.29295 0.0
O114 O 0.75297 0.50088 0.29747 0.0
O115 O 0.68995 0.54642 0.50328 0.0
O116 O 0.7842 0.49917 0.19383 0.0
O117 O 0.70416 0.49006 0.46321 0.0
O118 O 0.66642 0.5416 0.37398 0.0
O119 O 0.68294 0.48569 0.32958 0.0
O120 O 0.7943 0.60049 0.36248 0.0
O121 O 0.7648 0.59739 0.47747 0.0
C122 C 0.84645 0.61072 0.13222 0.0
C123 C 0.7405 0.55244 0.13684 0.0
C124 C 0.40183 0.17922 0.40466 0.0
C125 C 0.46885 0.12805 0.43877 0.0
C126 C 0.54125 0.21953 0.37808 0.0
Mg127 Mg 0.41858 0.24786 0.33637 0.0
Mg128 Mg 0.47006 0.2833 0.17868 0.0
O129 O 0.45999 0.26266 0.28693 0.0
Mg130 Mg 0.4637 0.22591 0.30851 0.0
O131 O 0.46425 0.18738 0.33797 0.0
Mg132 Mg 0.4711 0.19544 0.46659 0.0
Mg133 Mg 0.48481 0.17092 0.27829 0.0
C134 C 0.52884 0.28012 0.22664 0.0
O135 O 0.45671 0.20996 0.16982 0.0
O136 O 0.42831 0.29804 0.32118 0.0
O137 O 0.47302 0.17665 0.1439 0.0
O138 O 0.39738 0.23739 0.19827 0.0
O139 O 0.46651 0.32133 0.2226 0.0
O140 O 0.4319 0.25844 0.09047 0.0
O141 O 0.47241 0.24023 0.44512 0.0
O142 O 0.44094 0.25769 0.47235 0.0
C143 C 0.46083 0.25102 0.49815 0.0
C144 C 0.4476 0.32176 0.27753 0.0
O145 O 0.5139 0.25688 0.277 0.0
O146 O 0.46804 0.14895 0.48383 0.0
O147 O 0.51603 0.29028 0.17434 0.0
O148 O 0.5251 0.21936 0.44426 0.0
O149 O 0.47335 0.13032 0.35489 0.0
O150 O 0.52958 0.20315 0.30976 0.0
O151 O 0.41466 0.19984 0.34507 0.0
O152 O 0.41773 0.17326 0.4594 0.0
C153 C 0.4044 0.24217 0.1164 0.0
C154 C 0.46244 0.19359 0.11796 0.0
C155 C 0.83607 0.22562 0.41205 0.0
C156 C 0.88706 0.34475 0.45002 0.0
C157 C 0.7951 0.32364 0.3876 0.0
Mg158 Mg 0.76756 0.1742 0.34089 0.0
Mg159 Mg 0.73371 0.19202 0.1829 0.0
O160 O 0.75306 0.20127 0.29319 0.0
Mg161 Mg 0.79009 0.2414 0.31553 0.0
O162 O 0.82865 0.28016 0.34745 0.0
Mg163 Mg 0.82005 0.27865 0.47639 0.0
Mg164 Mg 0.84457 0.31723 0.28875 0.0
C165 C 0.73724 0.25403 0.23141 0.0
O166 O 0.80751 0.25014 0.17417 0.0
O167 O 0.71735 0.13405 0.32291 0.0
O168 O 0.84162 0.30017 0.15514 0.0
O169 O 0.77803 0.16436 0.2014 0.0
O170 O 0.69536 0.14967 0.22236 0.0
O171 O 0.75949 0.18049 0.09367 0.0
O172 O 0.77529 0.23515 0.45433 0.0
O173 O 0.75819 0.186 0.47923 0.0
C174 C 0.76512 0.21251 0.50687 0.0
C175 C 0.69421 0.12991 0.27712 0.0
O176 O 0.75987 0.26163 0.28352 0.0
O177 O 0.86653 0.32262 0.49526 0.0
O178 O 0.72714 0.23117 0.17855 0.0
O179 O 0.79601 0.30845 0.4548 0.0
O180 O 0.88454 0.34693 0.36632 0.0
O181 O 0.81131 0.32823 0.31886 0.0
O182 O 0.81561 0.21807 0.35224 0.0
O183 O 0.84208 0.24737 0.46752 0.0
C184 C 0.77445 0.1679 0.11951 0.0
C185 C 0.82596 0.27278 0.12615 0.0
C186 C 0.45567 0.94811 0.73879 0.0
C187 C 0.33679 0.88044 0.77854 0.0
C188 C 0.3575 0.80873 0.72626 0.0
Mg189 Mg 0.50703 0.93037 0.67417 0.0
Mg190 Mg 0.49008 0.87773 0.51933 0.0
O191 O 0.48031 0.88831 0.62857 0.0
Mg192 Mg 0.43997 0.88507 0.64975 0.0
O193 O 0.40113 0.88513 0.67871 0.0
Mg194 Mg 0.40272 0.87971 0.80823 0.0
Mg195 Mg 0.36399 0.86352 0.62062 0.0
C196 C 0.42827 0.81885 0.575 0.0
O197 O 0.43059 0.8904 0.51016 0.0
O198 O 0.54692 0.92022 0.6611 0.0
O199 O 0.38092 0.87444 0.48566 0.0
O200 O 0.51719 0.94993 0.53386 0.0
O201 O 0.53355 0.88401 0.55673 0.0
O202 O 0.50109 0.91455 0.42803 0.0
O203 O 0.44607 0.8782 0.78714 0.0
O204 O 0.49517 0.90977 0.81259 0.0
C205 C 0.46859 0.8901 0.8395 0.0
C206 C 0.55233 0.90236 0.61396 0.0
O207 O 0.42022 0.83437 0.62344 0.0
O208 O 0.35883 0.88239 0.82465 0.0
O209 O 0.45128 0.83115 0.52219 0.0
O210 O 0.37292 0.82565 0.79187 0.0
O211 O 0.3346 0.87494 0.69524 0.0
O212 O 0.35262 0.81948 0.65625 0.0
O213 O 0.46319 0.93451 0.68118 0.0
O214 O 0.43396 0.93294 0.79499 0.0
C215 C 0.51356 0.94231 0.45236 0.0
C216 C 0.40834 0.88457 0.45895 0.0
C217 C 0.06766 0.51271 0.74623 0.0
C218 C 0.13354 0.4604 0.78078 0.0
C219 C 0.20655 0.55159 0.7218 0.0
Mg220 Mg 0.0855 0.58196 0.67952 0.0
Mg221 Mg 0.13797 0.61753 0.5239 0.0
O222 O 0.12706 0.59657 0.63164 0.0
Mg223 Mg 0.13 0.55935 0.65234 0.0
O224 O 0.1298 0.52038 0.681 0.0
Mg225 Mg 0.13653 0.52816 0.80975 0.0
Mg226 Mg 0.15 0.50361 0.62103 0.0
C227 C 0.19611 0.6137 0.57538 0.0
O228 O 0.12333 0.54399 0.51361 0.0
O229 O 0.09561 0.63232 0.66433 0.0
O230 O 0.13877 0.51007 0.48667 0.0
O231 O 0.06522 0.57218 0.54056 0.0
O232 O 0.13408 0.65547 0.56656 0.0
O233 O 0.10029 0.59291 0.43397 0.0
O234 O 0.13834 0.57319 0.78861 0.0
O235 O 0.10733 0.59116 0.81647 0.0
C236 C 0.12704 0.58417 0.84182 0.0
C237 C 0.11499 0.65597 0.62061 0.0
O238 O 0.18045 0.58992 0.62318 0.0
O239 O 0.13297 0.48135 0.82637 0.0
O240 O 0.18401 0.62459 0.523 0.0
O241 O 0.19047 0.55162 0.78789 0.0
O242 O 0.138 0.46279 0.6969 0.0
O243 O 0.1948 0.53529 0.65341 0.0
O244 O 0.08082 0.53357 0.68739 0.0
O245 O 0.08327 0.50651 0.80138 0.0
C246 C 0.07265 0.57693 0.45896 0.0
C247 C 0.12876 0.52755 0.46131 0.0
C248 C 0.50162 0.55879 0.75641 0.0
C249 C 0.55301 0.67745 0.79704 0.0
C250 C 0.46153 0.65751 0.7308 0.0
Mg251 Mg 0.43331 0.50737 0.68435 0.0
Mg252 Mg 0.3992 0.52501 0.52702 0.0
O253 O 0.41871 0.53439 0.63702 0.0
Mg254 Mg 0.45571 0.5746 0.65974 0.0
O255 O 0.49423 0.61337 0.69228 0.0
Mg256 Mg 0.48544 0.6117 0.82099 0.0
Mg257 Mg 0.51118 0.65071 0.63431 0.0
C258 C 0.4027 0.58698 0.57585 0.0
O259 O 0.4733 0.58375 0.51817 0.0
O260 O 0.38322 0.46699 0.66588 0.0
O261 O 0.508 0.63371 0.50039 0.0
O262 O 0.44384 0.49772 0.5447 0.0
O263 O 0.36096 0.48241 0.56577 0.0
O264 O 0.42506 0.51378 0.43745 0.0
O265 O 0.44075 0.56815 0.79877 0.0
O266 O 0.42383 0.51897 0.82277 0.0
C267 C 0.43076 0.54542 0.85103 0.0
C268 C 0.36001 0.46263 0.62006 0.0
O269 O 0.42538 0.59469 0.62785 0.0
O270 O 0.53196 0.65539 0.84114 0.0
O271 O 0.39259 0.5641 0.52308 0.0
O272 O 0.46156 0.64174 0.79778 0.0
O273 O 0.5511 0.67992 0.7132 0.0
O274 O 0.47838 0.66241 0.66341 0.0
O275 O 0.48129 0.55133 0.69624 0.0
O276 O 0.50743 0.58038 0.81231 0.0
C277 C 0.44013 0.50127 0.46291 0.0
C278 C 0.49197 0.60646 0.4706 0.0
H279 H 0.27251 0.28181 0.97466 0.0
H280 H 0.34913 0.19031 0.11135 0.0
H281 H 0.22537 0.1851 0.92635 0.0
H282 H 0.40206 0.27819 -0.01195 0.0
H283 H 0.30294 0.18641 0.04832 0.0
H284 H 0.32015 0.28109 -0.00964 0.0
C285 C 0.27222 0.26046 0.96758 0.0
C286 C 0.24504 0.23346 0.94981 0.0
C287 C 0.32478 0.20611 0.03289 0.0
C288 C 0.29911 0.23246 0.96776 0.0
C289 C 0.35109 0.20822 0.06813 0.0
C290 C 0.37933 0.23458 0.05458 0.0
C291 C 0.32678 0.23098 -0.01334 0.0
C292 C 0.3807 0.2574 -0.00065 0.0
C293 C 0.29937 0.26012 0.97541 0.0
C294 C 0.2459 0.20642 0.94014 0.0
N295 N 0.35463 0.25551 0.96947 0.0
N296 N 0.27245 0.20649 0.9507 0.0
H297 H 0.73864 0.13101 -0.01168 0.0
H298 H 0.83085 0.04368 0.93427 0.0
H299 H 0.82537 0.16301 0.11484 0.0
H300 H 0.73413 0.99757 -0.0191 0.0
H301 H 0.83285 0.09273 0.9499 0.0
H302 H 0.74169 0.08781 0.92822 0.0
C303 C 0.75898 0.12974 -0.00013 0.0
C304 C 0.78175 0.15042 0.05677 0.0
C305 C 0.81122 0.07182 0.95572 0.0
C306 C 0.78516 0.10125 -0.01063 0.0
C307 C 0.81002 0.04392 0.94714 0.0
C308 C 0.7823 0.01662 0.95735 0.0
C309 C 0.78439 0.07235 0.97195 0.0
C310 C 0.75598 0.01813 0.97384 0.0
C311 C 0.76044 0.10488 0.96682 0.0
C312 C 0.80736 0.14744 0.07123 0.0
N313 N 0.75764 0.0456 -0.01971 0.0
N314 N 0.80827 0.12303 0.03846 0.0
H315 H 0.96937 0.79119 0.93835 0.0
H316 H 0.88261 0.61142 -0.00099 0.0
H317 H 0.01602 0.74085 0.97536 0.0
H318 H 0.85211 0.66696 0.12822 0.0
H319 H 0.92534 0.65749 0.93551 0.0
H320 H 0.92065 0.74405 0.95948 0.0
C321 C 0.96931 0.77015 0.95029 0.0
C322 C 0.99669 0.76985 0.95611 0.0
C323 C 0.90871 0.65938 0.97565 0.0
C324 C 0.94126 0.71606 -0.0228 0.0
C325 C 0.88411 0.63315 0.01071 0.0
C326 C 0.86398 0.63553 0.06918 0.0
C327 C 0.91263 0.68791 -0.00221 0.0
C328 C 0.86726 0.66428 0.08353 0.0
C329 C 0.94159 0.74339 0.96204 0.0
C330 C 0.99541 0.74205 0.97161 0.0
N331 N 0.89139 0.6895 0.04872 0.0
N332 N 0.96807 0.71615 -0.01869 0.0
H333 H 0.82163 0.75601 0.07227 0.0
H334 H 0.76007 0.64548 0.48484 0.0
H335 H 0.77861 0.77379 0.2922 0.0
H336 H 0.83297 0.65427 0.31786 0.0
H337 H 0.76553 0.69194 0.41851 0.0
H338 H 0.82285 0.71607 0.15906 0.0
C339 C 0.81217 0.75133 0.13846 0.0
C340 C 0.7999 0.76821 0.17483 0.0
C341 C 0.78068 0.68394 0.39776 0.0
C342 C 0.80147 0.72268 0.27492 0.0
C343 C 0.77781 0.65758 0.43628 0.0
C344 C 0.79571 0.64555 0.4058 0.0
C345 C 0.80132 0.69805 0.32784 0.0
C346 C 0.81826 0.66231 0.34238 0.0
C347 C 0.81321 0.72878 0.18839 0.0
C348 C 0.78829 0.76134 0.26151 0.0
N349 N 0.81998 0.68728 0.30421 0.0
N350 N 0.78917 0.73896 0.30843 0.0
H351 H 0.25795 0.07149 0.05726 0.0
H352 H 0.36942 0.12033 0.46718 0.0
H353 H 0.2407 0.01042 0.27634 0.0
H354 H 0.36098 0.18477 0.301 0.0
H355 H 0.32278 0.07931 0.40138 0.0
H356 H 0.29825 0.11274 0.14327 0.0
C357 C 0.26282 0.06667 0.12309 0.0
C358 C 0.24598 0.03741 0.15944 0.0
C359 C 0.3309 0.10254 0.38066 0.0
C360 C 0.29194 0.08461 0.25865 0.0
C361 C 0.35737 0.12604 0.4189 0.0
C362 C 0.36953 0.15607 0.38856 0.0
C363 C 0.31681 0.10914 0.31114 0.0
C364 C 0.35283 0.16195 0.32545 0.0
C365 C 0.28559 0.09031 0.17259 0.0
C366 C 0.25311 0.03263 0.24567 0.0
N367 N 0.32775 0.13867 0.28757 0.0
N368 N 0.27568 0.05593 0.29214 0.0
H369 H 0.94291 0.19048 0.05888 0.0
H370 H 0.89501 0.25227 0.4732 0.0
H371 H 1.0045 0.23469 0.27641 0.0
H372 H 0.83026 0.17923 0.30748 0.0
H373 H 0.93587 0.24704 0.40521 0.0
H374 H 0.90186 0.18918 0.14663 0.0
C375 C 0.94788 0.20019 0.12471 0.0
C376 C 0.97722 0.2128 0.16015 0.0
C377 C 0.91262 0.23181 0.38507 0.0
C378 C 0.93027 0.21114 0.26136 0.0
C379 C 0.88921 0.23454 0.42459 0.0
C380 C 0.85913 0.21653 0.39503 0.0
C381 C 0.90588 0.2112 0.31505 0.0
C382 C 0.85313 0.19401 0.3314 0.0
C383 C 0.92437 0.19911 0.17521 0.0
C384 C 0.98222 0.22473 0.24642 0.0
N385 N 0.87632 0.19244 0.29227 0.0
N386 N 0.95903 0.22378 0.29389 0.0
H387 H 0.94068 0.61802 0.33161 0.0
H388 H 0.01788 0.5248 0.44775 0.0
H389 H 0.89378 0.52174 0.27646 0.0
H390 H 0.0705 0.61474 0.33681 0.0
H391 H 0.97162 0.52172 0.38854 0.0
H392 H 0.98846 0.61735 0.34417 0.0
C393 C 0.94045 0.59678 0.32251 0.0
C394 C 0.91332 0.56988 0.30354 0.0
C395 C 0.9934 0.54173 0.3748 0.0
C396 C 0.96752 0.56895 0.31759 0.0
C397 C 0.01976 0.54335 0.40769 0.0
C398 C 0.04792 0.57 0.39663 0.0
C399 C 0.99528 0.56735 0.33355 0.0
C400 C 0.0492 0.59369 0.34585 0.0
C401 C 0.96768 0.59647 0.32848 0.0
C402 C 0.91426 0.54298 0.29122 0.0
N403 N 0.02308 0.59221 0.31834 0.0
N404 N 0.94087 0.54309 0.29974 0.0
H405 H 0.40447 0.4649 0.33059 0.0
H406 H 0.49735 0.37845 0.27201 0.0
H407 H 0.49088 0.49611 0.45836 0.0
H408 H 0.40019 0.33149 0.31045 0.0
H409 H 0.49902 0.42714 0.29215 0.0
H410 H 0.40761 0.422 0.2684 0.0
C411 C 0.42475 0.46352 0.34209 0.0
C412 C 0.44743 0.48389 0.39978 0.0
C413 C 0.47737 0.40614 0.29531 0.0
C414 C 0.45091 0.43505 0.3301 0.0
C415 C 0.47635 0.37843 0.28416 0.0
C416 C 0.44859 0.35098 0.29057 0.0
C417 C 0.45035 0.40638 0.31049 0.0
C418 C 0.42207 0.35217 0.30628 0.0
C419 C 0.42626 0.43882 0.30787 0.0
C420 C 0.47295 0.48078 0.41414 0.0
N421 N 0.42356 0.3795 0.31537 0.0
N422 N 0.47391 0.45654 0.38018 0.0
H423 H 0.55076 0.94286 0.32299 0.0
H424 H 0.63767 0.12279 0.26497 0.0
H425 H 0.5183 0.99802 0.44392 0.0
H426 H 0.68401 0.07253 0.31 0.0
H427 H 0.58879 0.0755 0.28096 0.0
H428 H 0.59406 0.98906 0.26196 0.0
C429 C 0.55195 0.96453 0.33304 0.0
C430 C 0.53109 0.96679 0.38861 0.0
C431 C 0.6097 0.07489 0.28641 0.0
C432 C 0.5804 0.0193 0.32034 0.0
C433 C 0.63752 0.10175 0.27764 0.0
C434 C 0.66485 0.10151 0.28723 0.0
C435 C 0.60925 0.04755 0.30243 0.0
C436 C 0.66343 0.07369 0.30346 0.0
C437 C 0.57688 0.99084 0.29953 0.0
C438 C 0.53399 0.99546 0.40128 0.0
N439 N 0.63601 0.0477 0.31027 0.0
N440 N 0.55846 0.02074 0.36813 0.0
H441 H 0.44396 0.10708 0.60206 0.0
H442 H 0.50183 0.98767 0.63101 0.0
H443 H 0.49002 0.0901 0.38901 0.0
H444 H 0.42953 0.98121 0.7962 0.0
H445 H 0.50627 0.03299 0.56158 0.0
H446 H 0.44511 0.06705 0.68882 0.0
C447 C 0.45417 0.09481 0.57326 0.0
C448 C 0.46678 0.10185 0.4878 0.0
C449 C 0.48972 0.02189 0.61386 0.0
C450 C 0.46877 0.05653 0.58783 0.0
C451 C 0.48735 0.99616 0.65434 0.0
C452 C 0.46485 0.98016 0.7186 0.0
C453 C 0.46971 0.03201 0.63833 0.0
C454 C 0.44706 0.9926 0.74667 0.0
C455 C 0.45489 0.07206 0.62304 0.0
C456 C 0.47975 0.08524 0.45411 0.0
N457 N 0.44961 0.0176 0.7055 0.0
N458 N 0.48058 0.06348 0.50444 0.0
H459 H 0.03473 0.45405 0.81033 0.0
H460 H 0.92508 0.40334 0.39489 0.0
H461 H 0.02765 0.51769 0.63685 0.0
H462 H 0.90778 0.34305 0.61609 0.0
H463 H 0.96503 0.445 0.48059 0.0
H464 H 0.98859 0.41274 0.74337 0.0
C465 C 0.02309 0.45954 0.76007 0.0
C466 C 0.03551 0.48943 0.72826 0.0
C467 C 0.95245 0.42265 0.51044 0.0
C468 C 0.98331 0.44211 0.64956 0.0
C469 C 0.92987 0.39877 0.46112 0.0
C470 C 0.9131 0.3696 0.49813 0.0
C471 C 0.95868 0.41731 0.59705 0.0
C472 C 0.92013 0.36517 0.58485 0.0
C473 C 0.9969 0.43585 0.7212 0.0
C474 C 0.01931 0.49499 0.66265 0.0
N475 N 0.9425 0.38871 0.63117 0.0
N476 N 0.99447 0.47153 0.62432 0.0
H477 H 0.56039 0.58534 0.81899 0.0
H478 H 0.60979 0.52529 0.40389 0.0
H479 H 0.49624 0.5128 0.65078 0.0
H480 H 0.67055 0.56834 0.62386 0.0
H481 H 0.56845 0.5237 0.49088 0.0
H482 H 0.60152 0.58045 0.75146 0.0
C483 C 0.55477 0.56779 0.76991 0.0
C484 C 0.52478 0.54982 0.73954 0.0
C485 C 0.59084 0.53345 0.52014 0.0
C486 C 0.57184 0.54489 0.6601 0.0
C487 C 0.61453 0.5347 0.47008 0.0
C488 C 0.64371 0.54706 0.50645 0.0
C489 C 0.59643 0.54506 0.60678 0.0
C490 C 0.64839 0.55859 0.59317 0.0
C491 C 0.57834 0.56525 0.73066 0.0
C492 C 0.51903 0.52753 0.67535 0.0
N493 N 0.62506 0.55749 0.64019 0.0
N494 N 0.54236 0.52616 0.6365 0.0
H495 H 0.58076 0.90742 0.77041 0.0
H496 H 0.73399 0.92915 0.63583 0.0
H497 H 0.58757 0.89515 0.49062 0.0
H498 H 0.67924 0.85964 0.82614 0.0
H499 H 0.68732 0.92558 0.57571 0.0
H500 H 0.62532 0.9018 0.79508 0.0
C501 C 0.59189 0.90394 0.71421 0.0
C502 C 0.58059 0.90168 0.62854 0.0
C503 C 0.68568 0.91052 0.62882 0.0
C504 C 0.63135 0.89554 0.65609 0.0
C505 C 0.71217 0.91229 0.66251 0.0
C506 C 0.71046 0.89516 0.73742 0.0
C507 C 0.65786 0.89191 0.67161 0.0
C508 C 0.68159 0.87376 0.76967 0.0
C509 C 0.61701 0.90046 0.72832 0.0
C510 C 0.59565 0.89686 0.55776 0.0
N511 N 0.65649 0.87346 0.73859 0.0
N512 N 0.62062 0.89424 0.57289 0.0
H513 H 0.16402 0.71304 0.60903 0.0
H514 H 0.06763 0.79644 0.65677 0.0
H515 H 0.06707 0.66504 0.65233 0.0
H516 H 0.15713 0.83334 0.76915 0.0
H517 H 0.0711 0.75299 0.60092 0.0
H518 H 0.16463 0.76142 0.62089 0.0
C519 C 0.14284 0.71271 0.62077 0.0
C520 C 0.11546 0.68506 0.63079 0.0
C521 C 0.09031 0.77112 0.63542 0.0
C522 C 0.11598 0.74012 0.64129 0.0
C523 C 0.0886 0.79615 0.66581 0.0
C524 C 0.11213 0.81834 0.71765 0.0
C525 C 0.11597 0.76881 0.65565 0.0
C526 C 0.13855 0.8166 0.7293 0.0
C527 C 0.14325 0.74026 0.62711 0.0
C528 C 0.08869 0.68588 0.64559 0.0
N529 N 0.13966 0.792 0.69937 0.0
N530 N 0.08958 0.71304 0.65006 0.0
H531 H 0.18007 0.32857 0.76641 0.0
H532 H 0.35117 0.40605 0.65759 0.0
H533 H 0.21753 0.27635 0.65562 0.0
H534 H 0.30284 0.45353 0.59977 0.0
H535 H 0.30233 0.35827 0.66694 0.0
H536 H 0.22359 0.37508 0.70806 0.0
C537 C 0.19683 0.32683 0.72642 0.0
C538 C 0.19529 0.29872 0.71538 0.0
C539 C 0.30253 0.37917 0.65137 0.0
C540 C 0.24567 0.35163 0.65334 0.0
C541 C 0.33029 0.4064 0.64722 0.0
C542 C 0.33096 0.43372 0.6285 0.0
C543 C 0.27532 0.37947 0.63895 0.0
C544 C 0.30327 0.43291 0.61446 0.0
C545 C 0.22177 0.35334 0.69405 0.0
C546 C 0.21781 0.29761 0.66469 0.0
N547 N 0.27651 0.40628 0.62131 0.0
N548 N 0.24265 0.32386 0.63781 0.0
H549 H 0.16714 0.32 0.96736 0.0
H550 H 0.10866 0.43899 0.94399 0.0
H551 H 0.09371 0.31158 0.13116 0.0
H552 H 0.1546 0.42256 0.72943 0.0
H553 H 0.10978 0.39863 0.02933 0.0
H554 H 0.17152 0.36567 0.90074 0.0
C555 C 0.15242 0.32816 -0.00888 0.0
C556 C 0.12962 0.31149 0.05401 0.0
C557 C 0.11953 0.40385 0.96353 0.0
C558 C 0.13442 0.36377 -0.02306 0.0
C559 C 0.11883 0.42678 0.91458 0.0
C560 C 0.13141 0.43405 0.8291 0.0
C561 C 0.13341 0.38843 0.92748 0.0
C562 C 0.14434 0.41752 0.79456 0.0
C563 C 0.15476 0.35408 0.9522 0.0
C564 C 0.1115 0.3235 0.08266 0.0
N565 N 0.14519 0.39563 0.84411 0.0
N566 N 0.11402 0.34872 0.04301 0.0
H567 H 0.69266 0.85165 -0.01003 0.0
H568 H 0.5738 0.67355 0.96078 0.0
H569 H 0.70217 0.78601 0.14699 0.0
H570 H 0.59072 0.73688 0.74841 0.0
H571 H 0.61404 0.71492 0.04735 0.0
H572 H 0.64673 0.8103 0.92384 0.0
C573 C 0.6847 0.82861 0.01231 0.0
C574 C 0.70173 0.82233 0.07307 0.0
C575 C 0.60892 0.71969 -0.01821 0.0
C576 C 0.6492 0.77481 -0.00345 0.0
C577 C 0.58606 0.69612 0.93215 0.0
C578 C 0.579 0.70171 0.84681 0.0
C579 C 0.62446 0.74921 0.94665 0.0
C580 C 0.59559 0.73143 0.81335 0.0
C581 C 0.65863 0.805 0.9737 0.0
C582 C 0.68996 0.79199 0.10014 0.0
N583 N 0.61739 0.75408 0.86355 0.0
N584 N 0.66461 0.76928 0.06077 0.0
H585 H 0.27846 0.85999 0.72216 0.0
H586 H 0.22748 0.92032 0.13493 0.0
H587 H 0.33843 0.90391 0.94313 0.0
H588 H 0.16409 0.8493 0.96129 0.0
H589 H 0.26884 0.91561 0.06822 0.0
H590 H 0.23688 0.85895 0.8063 0.0
C591 C 0.28298 0.86969 0.78798 0.0
C592 C 0.31204 0.88213 0.82541 0.0
C593 C 0.24577 0.90072 0.04594 0.0
C594 C 0.2644 0.88077 0.92259 0.0
C595 C 0.22206 0.90316 0.08468 0.0
C596 C 0.1922 0.88551 0.05292 0.0
C597 C 0.23958 0.88077 0.97446 0.0
C598 C 0.18674 0.86375 -0.01281 0.0
C599 C 0.25914 0.86878 0.83642 0.0
C600 C 0.3164 0.89408 0.91158 0.0
N601 N 0.21022 0.86243 0.94906 0.0
N602 N 0.2929 0.89325 0.95706 0.0
H603 H 0.09737 0.99085 0.90317 0.0
H604 H 0.07769 0.1273 0.06212 0.0
H605 H 0.11204 0.0221 0.17337 0.0
H606 H 0.0815 0.10298 0.79103 0.0
H607 H 0.07272 0.07918 0.11059 0.0
H608 H 0.07268 0.0198 0.87292 0.0
C609 C 0.0945 1.00314 0.95731 0.0
C610 C 0.10659 1.00381 0.04129 0.0
C611 C 0.07376 0.08397 0.04047 0.0
C612 C 0.08035 0.03938 0.00452 0.0
C613 C 0.07634 0.11131 0.01244 0.0
C614 C 0.07997 0.1191 0.92208 0.0
C615 C 0.07507 0.06441 -0.02225 0.0
C616 C 0.07875 0.09787 0.86109 0.0
C617 C 0.08066 0.02002 0.93948 0.0
C618 C 0.10283 0.02078 0.10796 0.0
N619 N 0.07674 0.07165 0.89015 0.0
N620 N 0.09072 0.03868 0.08747 0.0
H621 H 0.9941 0.09513 0.17586 0.0
H622 H 0.90826 0.97879 0.79139 0.0
H623 H 0.02042 0.10935 0.90097 0.0
H624 H 0.88623 0.95607 0.06668 0.0
H625 H 0.95703 0.02214 0.83549 0.0
H626 H 0.96199 0.04026 0.14505 0.0
C627 C 0.99402 0.08662 0.11014 0.0
C628 C 0.00962 0.10678 0.04075 0.0
C629 C 0.94187 0.0073 0.88648 0.0
C630 C 0.97308 0.04471 0.00469 0.0
C631 C 0.91409 0.9825 0.86093 0.0
C632 C 0.89324 0.96394 0.92524 0.0
C633 C 0.94829 0.01423 -0.02297 0.0
C634 C 0.90178 0.96983 0.01481 0.0
C635 C 0.97563 0.05539 0.09227 0.0
C636 C 0.00852 0.09464 0.95641 0.0
N637 N 0.92835 0.99486 0.0382 0.0
N638 N 0.99037 0.06462 0.94067 0.0
H639 H 0.91859 0.90281 0.18533 0.0
H640 H 0.0325 0.93425 0.79179 0.0
H641 H 0.90277 0.9146 0.91182 0.0
H642 H 0.05656 0.93323 0.06464 0.0
H643 H 0.98963 0.93955 0.8407 0.0
H644 H 0.9732 0.92544 0.15102 0.0
C645 C 0.92671 0.91121 0.11925 0.0
C646 C 0.90615 0.90667 0.05129 0.0
C647 C 1.00462 0.93884 0.89019 0.0
C648 C 0.96792 0.93206 0.01129 0.0
C649 C 0.02914 0.93593 0.86188 0.0
C650 C 0.04794 0.93322 0.92406 0.0
C651 C 0.99816 0.93778 -0.01868 0.0
C652 C 0.04255 0.93532 0.01444 0.0
C653 C 0.95778 0.92396 0.09939 0.0
C654 C 0.91779 0.91757 0.96635 0.0
N655 N 0.01775 0.93678 0.04049 0.0
N656 N 0.94765 0.92939 0.94874 0.0
H657 H 0.77978 0.3523 0.5176 0.0
H658 H 0.75032 0.43922 0.1354 0.0
H659 H 0.76541 0.32522 0.2435 0.0
H660 H 0.74972 0.46109 0.41071 0.0
H661 H 0.74446 0.39032 0.17923 0.0
H662 H 0.75805 0.38523 0.48812 0.0
C663 C 0.77098 0.35234 0.45244 0.0
C664 C 0.77459 0.33624 0.38281 0.0
C665 C 0.74497 0.40549 0.23034 0.0
C666 C 0.75028 0.37375 0.34823 0.0
C667 C 0.74826 0.43336 0.20494 0.0
C668 C 0.75065 0.45414 0.26936 0.0
C669 C 0.74529 0.39892 0.32085 0.0
C670 C 0.74797 0.44558 0.35891 0.0
C671 C 0.75875 0.37121 0.43532 0.0
C672 C 0.76318 0.33736 0.29916 0.0
N673 N 0.74611 0.41889 0.38217 0.0
N674 N 0.75193 0.35599 0.28409 0.0
H675 H 0.69548 0.44674 0.25757 0.0
H676 H 0.57504 0.31939 0.11834 0.0
H677 H 0.6515 0.4269 0.51186 0.0
H678 H 0.55414 0.29045 0.39013 0.0
H679 H 0.62273 0.36257 0.16572 0.0
H680 H 0.66784 0.39354 0.22024 0.0
C681 C 0.68079 0.43082 0.30727 0.0
C682 C 0.67668 0.44118 0.38919 0.0
C683 C 0.60859 0.34627 0.21537 0.0
C684 C 0.64046 0.38036 0.34022 0.0
C685 C 0.58112 0.32161 0.18771 0.0
C686 C 0.56078 0.30129 0.25001 0.0
C687 C 0.61557 0.35094 0.30646 0.0
C688 C 0.56941 0.30549 0.33965 0.0
C689 C 0.66395 0.40042 0.28432 0.0
C690 C 0.65574 0.41976 0.44858 0.0
N691 N 0.5959 0.33016 0.36537 0.0
N692 N 0.63769 0.39034 0.42184 0.0
H693 H 0.57074 0.25439 0.23947 0.0
H694 H 0.70097 0.26317 0.11765 0.0
H695 H 0.58682 0.22933 0.49722 0.0
H696 H 0.72456 0.26816 0.39331 0.0
H697 H 0.65714 0.26725 0.15846 0.0
H698 H 0.62435 0.27949 0.2076 0.0
C699 C 0.58588 0.25507 0.29076 0.0
C700 C 0.57434 0.24047 0.37207 0.0
C701 C 0.67237 0.26885 0.21059 0.0
C702 C 0.63578 0.26503 0.33012 0.0
C703 C 0.6975 0.26638 0.18664 0.0
C704 C 0.7165 0.26556 0.25182 0.0
C705 C 0.66586 0.27003 0.30086 0.0
C706 C 0.71063 0.26909 0.34071 0.0
C707 C 0.61656 0.26851 0.27115 0.0
C708 C 0.59485 0.24073 0.43421 0.0
N709 N 0.6855 0.27057 0.36275 0.0
N710 N 0.62459 0.2521 0.41095 0.0
H711 H 0.41358 0.79484 0.74036 0.0
H712 H 0.43127 0.65642 0.58533 0.0
H713 H 0.41946 0.77109 0.47008 0.0
H714 H 0.44672 0.68857 0.8546 0.0
H715 H 0.4081 0.68672 0.55341 0.0
H716 H 0.40839 0.74665 0.7894 0.0
C717 C 0.4127 0.77899 0.69093 0.0
C718 C 0.41691 0.78693 0.60068 0.0
C719 C 0.41588 0.68682 0.62013 0.0
C720 C 0.41165 0.73213 0.65701 0.0
C721 C 0.4288 0.66915 0.63895 0.0
C722 C 0.44069 0.66967 0.72316 0.0
C723 C 0.41619 0.70669 0.68452 0.0
C724 C 0.43759 0.68729 0.7891 0.0
C725 C 0.40998 0.75161 0.71929 0.0
C726 C 0.41624 0.76586 0.54004 0.0
N727 N 0.42631 0.70584 0.76772 0.0
N728 N 0.414 0.73956 0.56944 0.0
H729 H 0.21964 0.62042 0.74066 0.0
H730 H 0.32761 0.76613 0.85843 0.0
H731 H 0.24391 0.65539 0.47487 0.0
H732 H 0.3574 0.77614 0.58723 0.0
H733 H 0.29425 0.71151 0.8326 0.0
H734 H 0.26746 0.66235 0.79417 0.0
C735 C 0.23542 0.63659 0.69307 0.0
C736 C 0.22777 0.63445 0.60284 0.0
C737 C 0.30906 0.72532 0.77969 0.0
C738 C 0.28193 0.6836 0.66482 0.0
C739 C 0.32817 0.75658 0.79489 0.0
C740 C 0.3451 0.77558 0.72485 0.0
C741 C 0.30723 0.71344 0.69393 0.0
C742 C 0.34466 0.76225 0.64312 0.0
C743 C 0.2626 0.66087 0.72416 0.0
C744 C 0.24887 0.65621 0.54476 0.0
N745 N 0.32578 0.73222 0.62968 0.0
N746 N 0.27483 0.68005 0.57697 0.0
H747 H 0.36666 0.59634 0.46191 0.0
H748 H 0.23586 0.58613 0.58255 0.0
H749 H 0.38986 0.60088 0.73779 0.0
H750 H 0.25226 0.56193 0.84123 0.0
H751 H 0.28948 0.61171 0.55099 0.0
H752 H 0.32284 0.60042 0.50236 0.0
C753 C 0.36307 0.59941 0.53091 0.0
C754 C 0.38192 0.59842 0.59626 0.0
C755 C 0.28176 0.60075 0.61459 0.0
C756 C 0.33129 0.60289 0.64493 0.0
C757 C 0.25106 0.58696 0.63393 0.0
C758 C 0.23961 0.57249 0.71546 0.0
C759 C 0.30113 0.59767 0.67394 0.0
C760 C 0.26022 0.57318 0.77799 0.0
C761 C 0.33795 0.6019 0.55468 0.0
C762 C 0.37597 0.60186 0.68513 0.0
N763 N 0.29001 0.58484 0.75492 0.0
N764 N 0.35084 0.60334 0.707 0.0
H765 H 0.12297 0.26761 0.7074 0.0
H766 H 0.08375 0.1772 0.25141 0.0
H767 H 0.03713 0.18709 0.65212 0.0
H768 H 0.16701 0.26196 0.29683 0.0
H769 H 0.06695 0.17996 0.4001 0.0
H770 H 0.13905 0.26738 0.55526 0.0
C771 C 0.10737 0.25024 0.66231 0.0
C772 C 0.07902 0.22706 0.69181 0.0
C773 C 0.08897 0.19788 0.3778 0.0
C774 C 0.09712 0.22628 0.51927 0.0
C775 C 0.0987 0.19616 0.29333 0.0
C776 C 0.12666 0.21954 0.26169 0.0
C777 C 0.10741 0.22311 0.43102 0.0
C778 C 0.14529 0.24344 0.31875 0.0
C779 C 0.11653 0.24999 0.57589 0.0
C780 C 0.0592 0.20534 0.63138 0.0
N781 N 0.13518 0.24475 0.40072 0.0
N782 N 0.06884 0.20519 0.54788 0.0
H783 H 0.75381 0.91345 0.31126 0.0
H784 H 0.82567 0.8522 0.66871 0.0
H785 H 0.83471 0.90783 0.26657 0.0
H786 H 0.74645 0.86012 0.71743 0.0
H787 H 0.82663 0.86836 0.51602 0.0
H788 H 0.75045 0.89376 0.46043 0.0
C789 C 0.77121 0.90864 0.33337 0.0
C790 C 0.7944 0.91192 0.27623 0.0
C791 C 0.80884 0.8663 0.55983 0.0
C792 C 0.79019 0.88864 0.44545 0.0
C793 C 0.80802 0.85661 0.6464 0.0
C794 C 0.78628 0.85551 0.7054 0.0
C795 C 0.78776 0.87485 0.53288 0.0
C796 C 0.76402 0.86159 0.67391 0.0
C797 C 0.76902 0.89699 0.41808 0.0
C798 C 0.81623 0.90522 0.30821 0.0
N799 N 0.76553 0.87142 0.58981 0.0
N800 N 0.81343 0.89361 0.39054 0.0
H801 H 0.15366 0.89113 0.70949 0.0
H802 H 0.10336 0.93049 0.25285 0.0
H803 H 0.1601 0.97727 0.65293 0.0
H804 H 0.10433 0.84715 0.29898 0.0
H805 H 0.12293 0.94732 0.40143 0.0
H806 H 0.13742 0.87504 0.55744 0.0
C807 C 0.15215 0.9068 0.66412 0.0
C808 C 0.15761 0.93524 0.69322 0.0
C809 C 0.11872 0.92528 0.3793 0.0
C810 C 0.13881 0.91712 0.52082 0.0
C811 C 0.10726 0.91554 0.2949 0.0
C812 C 0.10255 0.88755 0.2635 0.0
C813 C 0.12536 0.90683 0.43266 0.0
C814 C 0.10765 0.8689 0.32072 0.0
C815 C 0.14279 0.89763 0.57776 0.0
C816 C 0.15605 0.95513 0.63249 0.0
N817 N 0.11908 0.87903 0.40261 0.0
N818 N 0.14629 0.94548 0.54903 0.0
H819 H 0.83712 0.58984 0.65252 0.0
H820 H 0.7123 0.56152 -0.0068 0.0
H821 H 0.74714 0.51475 0.59539 0.0
H822 H 0.78246 0.54167 0.06787 0.0
H823 H 0.72709 0.56233 0.83649 0.0
H824 H 0.82039 0.59078 0.80404 0.0
C825 C 0.81404 0.57351 0.67176 0.0
C826 C 0.79326 0.5526 0.61117 0.0
C827 C 0.73932 0.55841 0.8886 0.0
C828 C 0.77407 0.55488 0.77993 0.0
C829 C 0.73096 0.55789 -0.02316 0.0
C830 C 0.74725 0.55304 0.04307 0.0
C831 C 0.76409 0.55449 0.86916 0.0
C832 C 0.77072 0.54755 0.01921 0.0
C833 C 0.80448 0.57447 0.75702 0.0
C834 C 0.7636 0.5318 0.63954 0.0
N835 N 0.77879 0.54886 0.93406 0.0
N836 N 0.75464 0.53372 0.72216 0.0
H837 H 0.45561 0.15751 0.97273 0.0
H838 H 0.42852 0.25589 0.63545 0.0
H839 H 0.47232 0.24635 0.05096 0.0
H840 H 0.50115 0.2379 0.57488 0.0
H841 H 0.42788 0.23867 0.78717 0.0
H842 H 0.45617 0.17247 0.81639 0.0
C843 C 0.4588 0.17973 0.95721 0.0
C844 C 0.46231 0.20019 0.02431 0.0
C845 C 0.44365 0.23837 0.73949 0.0
C846 C 0.46257 0.21676 0.85066 0.0
C847 C 0.44441 0.24858 0.65401 0.0
C848 C 0.46442 0.24758 0.59233 0.0
C849 C 0.46254 0.22674 0.76165 0.0
C850 C 0.48472 0.2381 0.61989 0.0
C851 C 0.45913 0.18815 0.86914 0.0
C852 C 0.46735 0.22913 0.00154 0.0
N853 N 0.48295 0.22747 0.70279 0.0
N854 N 0.46688 0.23644 0.9165 0.0
H855 H 0.77052 0.26215 0.59124 0.0
H856 H 0.82211 0.22322 0.04674 0.0
H857 H 0.77162 0.17886 0.63709 0.0
H858 H 0.82698 0.30875 -0.00809 0.0
H859 H 0.8056 0.20709 0.89481 0.0
H860 H 0.79017 0.27899 0.73979 0.0
C861 C 0.77445 0.2472 0.63323 0.0
C862 C 0.76974 0.21922 0.60174 0.0
C863 C 0.81068 0.22955 0.91549 0.0
C864 C 0.79266 0.23852 0.77092 0.0
C865 C 0.8202 0.23875 0.00179 0.0
C866 C 0.8253 0.26702 0.0314 0.0
C867 C 0.80621 0.24886 0.85906 0.0
C868 C 0.82323 0.28675 0.97112 0.0
C869 C 0.78595 0.25695 0.71764 0.0
C870 C 0.77491 0.2006 0.6589 0.0
N871 N 0.81335 0.27708 0.88773 0.0
N872 N 0.78639 0.21073 0.74078 0.0
H873 H 0.38159 0.89573 0.31597 0.0
H874 H 0.50535 0.92397 0.97596 0.0
H875 H 0.44823 0.87087 0.39017 0.0
H876 H 0.41584 0.84845 0.91679 0.0
H877 H 0.48844 0.92368 0.12829 0.0
H878 H 0.39676 0.89698 0.1595 0.0
C879 C 0.39948 0.89094 0.29945 0.0
C880 C 0.41474 0.88458 0.36536 0.0
C881 C 0.4727 0.90754 0.08063 0.0
C882 C 0.43208 0.88659 0.19203 0.0
C883 C 0.48235 0.9073 -0.00505 0.0
C884 C 0.4617 0.88663 0.93368 0.0
C885 C 0.44234 0.8875 0.10305 0.0
C886 C 0.43215 0.86533 0.96156 0.0
C887 C 0.4081 0.89177 0.21143 0.0
C888 C 0.43728 0.87772 0.34151 0.0
N889 N 0.42309 0.86658 0.04452 0.0
N890 N 0.44566 0.87936 0.25653 0.0
H891 H 0.14218 0.58176 0.39702 0.0
H892 H 0.16922 0.57344 0.91624 0.0
H893 H 0.11952 0.49142 0.31436 0.0
H894 H 0.09367 0.58651 -0.01972 0.0
H895 H 0.16744 0.55479 0.06608 0.0
H896 H 0.14021 0.59527 0.24497 0.0
C897 C 0.13596 0.56445 0.34688 0.0
C898 C 0.12918 0.53483 0.3682 0.0
C899 C 0.15127 0.56162 0.04627 0.0
C900 C 0.1293 0.5511 0.19487 0.0
C901 C 0.1524 0.57257 0.96188 0.0
C902 C 0.13097 0.58073 0.93559 0.0
C903 C 0.1294 0.56006 0.10472 0.0
C904 C 0.11038 0.58021 -0.00212 0.0
C905 C 0.13533 0.57243 0.26056 0.0
C906 C 0.12403 0.51419 0.30011 0.0
N907 N 0.11018 0.57004 0.08066 0.0
N908 N 0.12429 0.52282 0.21491 0.0
H909 H 0.49463 0.64376 0.3378 0.0
H910 H 0.43535 0.51029 -0.01955 0.0
H911 H 0.48639 0.5565 0.38862 0.0
H912 H 0.43857 0.59583 0.93715 0.0
H913 H 0.45484 0.52688 0.12969 0.0
H914 H 0.47885 0.62826 0.18498 0.0
C915 C 0.49023 0.62162 0.31593 0.0
C916 C 0.49117 0.60105 0.37548 0.0
C917 C 0.45111 0.54194 0.08762 0.0
C918 C 0.47227 0.58285 0.20289 0.0
C919 C 0.43959 0.53231 0.00289 0.0
C920 C 0.43566 0.55187 0.94614 0.0
C921 C 0.45871 0.57128 0.11536 0.0
C922 C 0.44166 0.58021 -0.02151 0.0
C923 C 0.48076 0.61258 0.22931 0.0
C924 C 0.4851 0.57258 0.3446 0.0
N925 N 0.45316 0.5892 0.06079 0.0
N926 N 0.47549 0.5641 0.26044 0.0
loop_
_geom_bond_atom_site_label_1
_geom_bond_atom_site_label_2
_geom_bond_distance
_geom_bond_site_symmetry_2
_ccdc_geom_bond_type
C0 O27 1.312 . S
C0 O28 1.208 . S
C1 O22 1.331 1_556 S
C1 O25 1.244 . S
C2 O24 1.264 . S
C2 O26 1.273 . S
Mg3 O5 1.936 . S
Mg3 O12 2.081 . S
Mg3 O14 2.023 1_554 S
Mg3 O18 2.031 . S
Mg3 O27 2.291 . S
Mg4 O5 1.963 1_556 S
Mg4 O15 1.942 1_556 S
Mg4 O16 1.955 . S
Mg4 O23 1.986 . S
O5 Mg3 1.936 . S
O5 Mg4 1.963 1_554 S
O5 Mg6 1.913 1_554 S
Mg6 O5 1.913 1_556 S
Mg6 O7 1.916 . S
Mg6 O11 2.023 . S
Mg6 O17 2.104 1_556 S
Mg6 O21 2.013 . S
Mg6 O27 2.112 1_556 S
O7 Mg6 1.916 . S
O7 Mg8 1.936 1_556 S
O7 Mg9 1.963 . S
Mg8 O7 1.936 1_554 S
Mg8 O17 2.291 . S
Mg8 O22 2.081 . S
Mg8 O24 2.023 . S
Mg8 O28 2.031 . S
Mg9 O7 1.963 . S
Mg9 O13 1.986 . S
Mg9 O25 1.942 . S
Mg9 O26 1.955 1_556 S
C10 O21 1.191 . S
C10 O23 1.307 . S
O11 Mg6 2.023 . S
O11 C30 1.191 . S
O12 Mg3 2.081 . S
O12 C20 1.331 . S
O13 Mg9 1.986 . S
O13 C30 1.307 . S
O14 Mg3 2.023 1_556 S
O14 C29 1.264 . S
O15 Mg4 1.942 1_554 S
O15 C20 1.244 . S
O16 Mg4 1.955 . S
O16 C29 1.273 . S
O17 Mg6 2.104 1_554 S
O17 Mg8 2.291 . S
O17 C19 1.312 . S
O18 Mg3 2.031 . S
O18 C19 1.208 . S
C19 O17 1.312 . S
C19 O18 1.208 . S
C20 O12 1.331 . S
C20 O15 1.244 . S
O21 Mg6 2.013 . S
O21 C10 1.191 . S
O22 C1 1.331 1_554 S
O22 Mg8 2.081 . S
O23 Mg4 1.986 . S
O23 C10 1.307 . S
O24 C2 1.264 . S
O24 Mg8 2.023 . S
O25 C1 1.244 . S
O25 Mg9 1.942 . S
O26 C2 1.273 . S
O26 Mg9 1.955 1_554 S
O27 C0 1.312 . S
O27 Mg3 2.291 . S
O27 Mg6 2.112 1_554 S
O28 C0 1.208 . S
O28 Mg8 2.031 . S
C29 O14 1.264 . S
C29 O16 1.273 . S
C30 O11 1.191 . S
C30 O13 1.307 . S
C31 O58 1.312 . S
C31 O59 1.208 . S
C32 O53 1.331 1_556 S
C32 O56 1.244 . S
C33 O55 1.264 . S
C33 O57 1.273 . S
Mg34 O36 1.936 . S
Mg34 O43 2.081 . S
Mg34 O45 2.023 1_554 S
Mg34 O49 2.031 . S
Mg34 O58 2.291 . S
Mg35 O36 1.963 1_556 S
Mg35 O46 1.942 1_556 S
Mg35 O47 1.955 . S
Mg35 O54 1.986 . S
O36 Mg34 1.936 . S
O36 Mg35 1.963 1_554 S
O36 Mg37 1.913 1_554 S
Mg37 O36 1.913 1_556 S
Mg37 O38 1.916 . S
Mg37 O42 2.023 . S
Mg37 O48 2.104 1_556 S
Mg37 O52 2.013 . S
Mg37 O58 2.112 1_556 S
O38 Mg37 1.916 . S
O38 Mg39 1.936 1_556 S
O38 Mg40 1.963 . S
Mg39 O38 1.936 1_554 S
Mg39 O48 2.291 . S
Mg39 O53 2.081 . S
Mg39 O55 2.023 . S
Mg39 O59 2.031 . S
Mg40 O38 1.963 . S
Mg40 O44 1.986 . S
Mg40 O56 1.942 . S
Mg40 O57 1.955 1_556 S
C41 O52 1.191 . S
C41 O54 1.307 . S
O42 Mg37 2.023 . S
O42 C61 1.191 . S
O43 Mg34 2.081 . S
O43 C51 1.331 . S
O44 Mg40 1.986 . S
O44 C61 1.307 . S
O45 Mg34 2.023 1_556 S
O45 C60 1.264 . S
O46 Mg35 1.942 1_554 S
O46 C51 1.244 . S
O47 Mg35 1.955 . S
O47 C60 1.273 . S
O48 Mg37 2.104 1_554 S
O48 Mg39 2.291 . S
O48 C50 1.312 . S
O49 Mg34 2.031 . S
O49 C50 1.208 . S
C50 O48 1.312 . S
C50 O49 1.208 . S
C51 O43 1.331 . S
C51 O46 1.244 . S
O52 Mg37 2.013 . S
O52 C41 1.191 . S
O53 C32 1.331 1_554 S
O53 Mg39 2.081 . S
O54 Mg35 1.986 . S
O54 C41 1.307 . S
O55 C33 1.264 . S
O55 Mg39 2.023 . S
O56 C32 1.244 . S
O56 Mg40 1.942 . S
O57 C33 1.273 . S
O57 Mg40 1.955 1_554 S
O58 C31 1.312 . S
O58 Mg34 2.291 . S
O58 Mg37 2.112 1_554 S
O59 C31 1.208 . S
O59 Mg39 2.031 . S
C60 O45 1.264 . S
C60 O47 1.273 . S
C61 O42 1.191 . S
C61 O44 1.307 . S
C62 O89 1.312 . S
C62 O90 1.208 . S
C63 O84 1.331 1_556 S
C63 O87 1.244 . S
C64 O86 1.264 . S
C64 O88 1.273 . S
Mg65 O67 1.936 . S
Mg65 O74 2.081 . S
Mg65 O76 2.023 1_554 S
Mg65 O80 2.031 . S
Mg65 O89 2.291 . S
Mg66 O67 1.963 1_556 S
Mg66 O77 1.942 1_556 S
Mg66 O78 1.955 . S
Mg66 O85 1.986 . S
O67 Mg65 1.936 . S
O67 Mg66 1.963 1_554 S
O67 Mg68 1.913 1_554 S
Mg68 O67 1.913 1_556 S
Mg68 O69 1.916 . S
Mg68 O73 2.023 . S
Mg68 O79 2.103 1_556 S
Mg68 O83 2.013 . S
Mg68 O89 2.112 1_556 S
O69 Mg68 1.916 . S
O69 Mg70 1.936 1_556 S
O69 Mg71 1.963 . S
Mg70 O69 1.936 1_554 S
Mg70 O79 2.291 . S
Mg70 O84 2.081 . S
Mg70 O86 2.023 . S
Mg70 O90 2.031 . S
Mg71 O69 1.963 . S
Mg71 O75 1.986 . S
Mg71 O87 1.942 . S
Mg71 O88 1.955 1_556 S
C72 O83 1.191 . S
C72 O85 1.307 . S
O73 Mg68 2.023 . S
O73 C92 1.191 . S
O74 Mg65 2.081 . S
O74 C82 1.331 . S
O75 Mg71 1.986 . S
O75 C92 1.307 . S
O76 Mg65 2.023 1_556 S
O76 C91 1.264 . S
O77 Mg66 1.942 1_554 S
O77 C82 1.244 . S
O78 Mg66 1.955 . S
O78 C91 1.273 . S
O79 Mg68 2.103 1_554 S
O79 Mg70 2.291 . S
O79 C81 1.312 . S
O80 Mg65 2.031 . S
O80 C81 1.208 . S
C81 O79 1.312 . S
C81 O80 1.208 . S
C82 O74 1.331 . S
C82 O77 1.244 . S
O83 Mg68 2.013 . S
O83 C72 1.191 . S
O84 C63 1.331 1_554 S
O84 Mg70 2.081 . S
O85 Mg66 1.986 . S
O85 C72 1.307 . S
O86 C64 1.264 . S
O86 Mg70 2.023 . S
O87 C63 1.244 . S
O87 Mg71 1.942 . S
O88 C64 1.273 . S
O88 Mg71 1.955 1_554 S
O89 C62 1.312 . S
O89 Mg65 2.291 . S
O89 Mg68 2.112 1_554 S
O90 C62 1.208 . S
O90 Mg70 2.031 . S
C91 O76 1.264 . S
C91 O78 1.273 . S
C92 O73 1.191 . S
C92 O75 1.307 . S
C93 O120 1.312 . S
C93 O121 1.208 . S
C94 O115 1.331 . S
C94 O118 1.244 . S
C95 O117 1.264 . S
C95 O119 1.273 . S
Mg96 O98 1.936 . S
Mg96 O105 2.081 . S
Mg96 O107 2.023 . S
Mg96 O111 2.031 . S
Mg96 O120 2.291 . S
Mg97 O98 1.963 . S
Mg97 O108 1.942 . S
Mg97 O109 1.955 . S
Mg97 O116 1.986 . S
O98 Mg96 1.936 . S
O98 Mg97 1.963 . S
O98 Mg99 1.915 . S
Mg99 O98 1.915 . S
Mg99 O100 1.915 . S
Mg99 O104 2.013 . S
Mg99 O110 2.114 . S
Mg99 O114 2.013 . S
Mg99 O120 2.114 . S
O100 Mg99 1.915 . S
O100 Mg101 1.936 . S
O100 Mg102 1.963 . S
Mg101 O100 1.936 . S
Mg101 O110 2.291 . S
Mg101 O115 2.081 . S
Mg101 O117 2.023 . S
Mg101 O121 2.031 . S
Mg102 O100 1.963 . S
Mg102 O106 1.986 . S
Mg102 O118 1.942 . S
Mg102 O119 1.955 . S
C103 O114 1.191 . S
C103 O116 1.307 . S
O104 Mg99 2.013 . S
O104 C123 1.191 . S
O105 Mg96 2.081 . S
O105 C113 1.331 . S
O106 Mg102 1.986 . S
O106 C123 1.307 . S
O107 Mg96 2.023 . S
O107 C122 1.264 . S
O108 Mg97 1.942 . S
O108 C113 1.244 . S
O109 Mg97 1.955 . S
O109 C122 1.273 . S
O110 Mg99 2.114 . S
O110 Mg101 2.291 . S
O110 C112 1.312 . S
O111 Mg96 2.031 . S
O111 C112 1.208 . S
C112 O110 1.312 . S
C112 O111 1.208 . S
C113 O105 1.331 . S
C113 O108 1.244 . S
O114 Mg99 2.013 . S
O114 C103 1.191 . S
O115 C94 1.331 . S
O115 Mg101 2.081 . S
O116 Mg97 1.986 . S
O116 C103 1.307 . S
O117 C95 1.264 . S
O117 Mg101 2.023 . S
O118 C94 1.244 . S
O118 Mg102 1.942 . S
O119 C95 1.273 . S
O119 Mg102 1.955 . S
O120 C93 1.312 . S
O120 Mg96 2.291 . S
O120 Mg99 2.114 . S
O121 C93 1.208 . S
O121 Mg101 2.031 . S
C122 O107 1.264 . S
C122 O109 1.273 . S
C123 O104 1.191 . S
C123 O106 1.307 . S
C124 O151 1.312 . S
C124 O152 1.208 . S
C125 O146 1.331 . S
C125 O149 1.244 . S
C126 O148 1.264 . S
C126 O150 1.273 . S
Mg127 O129 1.936 . S
Mg127 O136 2.081 . S
Mg127 O138 2.023 . S
Mg127 O142 2.031 . S
Mg127 O151 2.291 . S
Mg128 O129 1.963 . S
Mg128 O139 1.942 . S
Mg128 O140 1.955 . S
Mg128 O147 1.986 . S
O129 Mg127 1.936 . S
O129 Mg128 1.963 . S
O129 Mg130 1.915 . S
Mg130 O129 1.915 . S
Mg130 O131 1.915 . S
Mg130 O135 2.013 . S
Mg130 O141 2.114 . S
Mg130 O145 2.013 . S
Mg130 O151 2.114 . S
O131 Mg130 1.915 . S
O131 Mg132 1.936 . S
O131 Mg133 1.963 . S
Mg132 O131 1.936 . S
Mg132 O141 2.291 . S
Mg132 O146 2.081 . S
Mg132 O148 2.023 . S
Mg132 O152 2.031 . S
Mg133 O131 1.963 . S
Mg133 O137 1.986 . S
Mg133 O149 1.942 . S
Mg133 O150 1.955 . S
C134 O145 1.191 . S
C134 O147 1.307 . S
O135 Mg130 2.013 . S
O135 C154 1.191 . S
O136 Mg127 2.081 . S
O136 C144 1.331 . S
O137 Mg133 1.986 . S
O137 C154 1.307 . S
O138 Mg127 2.023 . S
O138 C153 1.264 . S
O139 Mg128 1.942 . S
O139 C144 1.244 . S
O140 Mg128 1.955 . S
O140 C153 1.273 . S
O141 Mg130 2.114 . S
O141 Mg132 2.291 . S
O141 C143 1.312 . S
O142 Mg127 2.031 . S
O142 C143 1.208 . S
C143 O141 1.312 . S
C143 O142 1.208 . S
C144 O136 1.331 . S
C144 O139 1.244 . S
O145 Mg130 2.013 . S
O145 C134 1.191 . S
O146 C125 1.331 . S
O146 Mg132 2.081 . S
O147 Mg128 1.986 . S
O147 C134 1.307 . S
O148 C126 1.264 . S
O148 Mg132 2.023 . S
O149 C125 1.244 . S
O149 Mg133 1.942 . S
O150 C126 1.273 . S
O150 Mg133 1.955 . S
O151 C124 1.312 . S
O151 Mg127 2.291 . S
O151 Mg130 2.114 . S
O152 C124 1.208 . S
O152 Mg132 2.031 . S
C153 O138 1.264 . S
C153 O140 1.273 . S
C154 O135 1.191 . S
C154 O137 1.307 . S
C155 O182 1.312 . S
C155 O183 1.208 . S
C156 O177 1.331 . S
C156 O180 1.244 . S
C157 O179 1.264 . S
C157 O181 1.273 . S
Mg158 O160 1.936 . S
Mg158 O167 2.081 . S
Mg158 O169 2.023 . S
Mg158 O173 2.031 . S
Mg158 O182 2.291 . S
Mg159 O160 1.963 . S
Mg159 O170 1.942 . S
Mg159 O171 1.955 . S
Mg159 O178 1.986 . S
O160 Mg158 1.936 . S
O160 Mg159 1.963 . S
O160 Mg161 1.915 . S
Mg161 O160 1.915 . S
Mg161 O162 1.915 . S
Mg161 O166 2.013 . S
Mg161 O172 2.114 . S
Mg161 O176 2.013 . S
Mg161 O182 2.114 . S
O162 Mg161 1.915 . S
O162 Mg163 1.936 . S
O162 Mg164 1.963 . S
Mg163 O162 1.936 . S
Mg163 O172 2.291 . S
Mg163 O177 2.081 . S
Mg163 O179 2.023 . S
Mg163 O183 2.031 . S
Mg164 O162 1.963 . S
Mg164 O168 1.986 . S
Mg164 O180 1.942 . S
Mg164 O181 1.955 . S
C165 O176 1.191 . S
C165 O178 1.307 . S
O166 Mg161 2.013 . S
O166 C185 1.191 . S
O167 Mg158 2.081 . S
O167 C175 1.331 . S
O168 Mg164 1.986 . S
O168 C185 1.307 . S
O169 Mg158 2.023 . S
O169 C184 1.264 . S
O170 Mg159 1.942 . S
O170 C175 1.244 . S
O171 Mg159 1.955 . S
O171 C184 1.273 . S
O172 Mg161 2.114 . S
O172 Mg163 2.291 . S
O172 C174 1.312 . S
O173 Mg158 2.031 . S
O173 C174 1.208 . S
C174 O172 1.312 . S
C174 O173 1.208 . S
C175 O167 1.331 . S
C175 O170 1.244 . S
O176 Mg161 2.013 . S
O176 C165 1.191 . S
O177 C156 1.331 . S
O177 Mg163 2.081 . S
O178 Mg159 1.986 . S
O178 C165 1.307 . S
O179 C157 1.264 . S
O179 Mg163 2.023 . S
O180 C156 1.244 . S
O180 Mg164 1.942 . S
O181 C157 1.273 . S
O181 Mg164 1.955 . S
O182 C155 1.312 . S
O182 Mg158 2.291 . S
O182 Mg161 2.114 . S
O183 C155 1.208 . S
O183 Mg163 2.031 . S
C184 O169 1.264 . S
C184 O171 1.273 . S
C185 O166 1.191 . S
C185 O168 1.307 . S
C186 O213 1.312 . S
C186 O214 1.208 . S
C187 O208 1.331 . S
C187 O211 1.244 . S
C188 O210 1.264 . S
C188 O212 1.273 . S
Mg189 O191 1.936 . S
Mg189 O198 2.081 . S
Mg189 O200 2.023 . S
Mg189 O204 2.031 . S
Mg189 O213 2.291 . S
Mg190 O191 1.963 . S
Mg190 O201 1.942 . S
Mg190 O202 1.955 . S
Mg190 O209 1.986 . S
O191 Mg189 1.936 . S
O191 Mg190 1.963 . S
O191 Mg192 1.915 . S
Mg192 O191 1.915 . S
Mg192 O193 1.915 . S
Mg192 O197 2.013 . S
Mg192 O203 2.114 . S
Mg192 O207 2.013 . S
Mg192 O213 2.114 . S
O193 Mg192 1.915 . S
O193 Mg194 1.936 . S
O193 Mg195 1.963 . S
Mg194 O193 1.936 . S
Mg194 O203 2.291 . S
Mg194 O208 2.081 . S
Mg194 O210 2.023 . S
Mg194 O214 2.031 . S
Mg195 O193 1.963 . S
Mg195 O199 1.986 . S
Mg195 O211 1.942 . S
Mg195 O212 1.955 . S
C196 O207 1.191 . S
C196 O209 1.307 . S
O197 Mg192 2.013 . S
O197 C216 1.191 . S
O198 Mg189 2.081 . S
O198 C206 1.331 . S
O199 Mg195 1.986 . S
O199 C216 1.307 . S
O200 Mg189 2.023 . S
O200 C215 1.264 . S
O201 Mg190 1.942 . S
O201 C206 1.244 . S
O202 Mg190 1.955 . S
O202 C215 1.273 . S
O203 Mg192 2.114 . S
O203 Mg194 2.291 . S
O203 C205 1.312 . S
O204 Mg189 2.031 . S
O204 C205 1.208 . S
C205 O203 1.312 . S
C205 O204 1.208 . S
C206 O198 1.331 . S
C206 O201 1.244 . S
O207 Mg192 2.013 . S
O207 C196 1.191 . S
O208 C187 1.331 . S
O208 Mg194 2.081 . S
O209 Mg190 1.986 . S
O209 C196 1.307 . S
O210 C188 1.264 . S
O210 Mg194 2.023 . S
O211 C187 1.244 . S
O211 Mg195 1.942 . S
O212 C188 1.273 . S
O212 Mg195 1.955 . S
O213 C186 1.312 . S
O213 Mg189 2.291 . S
O213 Mg192 2.114 . S
O214 C186 1.208 . S
O214 Mg194 2.031 . S
C215 O200 1.264 . S
C215 O202 1.273 . S
C216 O197 1.191 . S
C216 O199 1.307 . S
C217 O244 1.312 . S
C217 O245 1.208 . S
C218 O239 1.331 . S
C218 O242 1.244 . S
C219 O241 1.264 . S
C219 O243 1.273 . S
Mg220 O222 1.936 . S
Mg220 O229 2.081 . S
Mg220 O231 2.023 . S
Mg220 O235 2.031 . S
Mg220 O244 2.291 . S
Mg221 O222 1.963 . S
Mg221 O232 1.942 . S
Mg221 O233 1.955 . S
Mg221 O240 1.986 . S
O222 Mg220 1.936 . S
O222 Mg221 1.963 . S
O222 Mg223 1.915 . S
Mg223 O222 1.915 . S
Mg223 O224 1.915 . S
Mg223 O228 2.013 . S
Mg223 O234 2.114 . S
Mg223 O238 2.013 . S
Mg223 O244 2.114 . S
O224 Mg223 1.915 . S
O224 Mg225 1.936 . S
O224 Mg226 1.963 . S
Mg225 O224 1.936 . S
Mg225 O234 2.291 . S
Mg225 O239 2.081 . S
Mg225 O241 2.023 . S
Mg225 O245 2.031 . S
Mg226 O224 1.963 . S
Mg226 O230 1.986 . S
Mg226 O242 1.942 . S
Mg226 O243 1.955 . S
C227 O238 1.191 . S
C227 O240 1.307 . S
O228 Mg223 2.013 . S
O228 C247 1.191 . S
O229 Mg220 2.081 . S
O229 C237 1.331 . S
O230 Mg226 1.986 . S
O230 C247 1.307 . S
O231 Mg220 2.023 . S
O231 C246 1.264 . S
O232 Mg221 1.942 . S
O232 C237 1.244 . S
O233 Mg221 1.955 . S
O233 C246 1.273 . S
O234 Mg223 2.114 . S
O234 Mg225 2.291 . S
O234 C236 1.312 . S
O235 Mg220 2.031 . S
O235 C236 1.208 . S
C236 O234 1.312 . S
C236 O235 1.208 . S
C237 O229 1.331 . S
C237 O232 1.244 . S
O238 Mg223 2.013 . S
O238 C227 1.191 . S
O239 C218 1.331 . S
O239 Mg225 2.081 . S
O240 Mg221 1.986 . S
O240 C227 1.307 . S
O241 C219 1.264 . S
O241 Mg225 2.023 . S
O242 C218 1.244 . S
O242 Mg226 1.942 . S
O243 C219 1.273 . S
O243 Mg226 1.955 . S
O244 C217 1.312 . S
O244 Mg220 2.291 . S
O244 Mg223 2.114 . S
O245 C217 1.208 . S
O245 Mg225 2.031 . S
C246 O231 1.264 . S
C246 O233 1.273 . S
C247 O228 1.191 . S
C247 O230 1.307 . S
C248 O275 1.312 . S
C248 O276 1.208 . S
C249 O270 1.331 . S
C249 O273 1.244 . S
C250 O272 1.264 . S
C250 O274 1.273 . S
Mg251 O253 1.936 . S
Mg251 O260 2.081 . S
Mg251 O262 2.023 . S
Mg251 O266 2.031 . S
Mg251 O275 2.291 . S
Mg252 O253 1.963 . S
Mg252 O263 1.942 . S
Mg252 O264 1.955 . S
Mg252 O271 1.986 . S
O253 Mg251 1.936 . S
O253 Mg252 1.963 . S
O253 Mg254 1.915 . S
Mg254 O253 1.915 . S
Mg254 O255 1.915 . S
Mg254 O259 2.013 . S
Mg254 O265 2.114 . S
Mg254 O269 2.013 . S
Mg254 O275 2.114 . S
O255 Mg254 1.915 . S
O255 Mg256 1.936 . S
O255 Mg257 1.963 . S
Mg256 O255 1.936 . S
Mg256 O265 2.291 . S
Mg256 O270 2.081 . S
Mg256 O272 2.023 . S
Mg256 O276 2.031 . S
Mg257 O255 1.963 . S
Mg257 O261 1.986 . S
Mg257 O273 1.942 . S
Mg257 O274 1.955 . S
C258 O269 1.191 . S
C258 O271 1.307 . S
O259 Mg254 2.013 . S
O259 C278 1.191 . S
O260 Mg251 2.081 . S
O260 C268 1.331 . S
O261 Mg257 1.986 . S
O261 C278 1.307 . S
O262 Mg251 2.023 . S
O262 C277 1.264 . S
O263 Mg252 1.942 . S
O263 C268 1.244 . S
O264 Mg252 1.955 . S
O264 C277 1.273 . S
O265 Mg254 2.114 . S
O265 Mg256 2.291 . S
O265 C267 1.312 . S
O266 Mg251 2.031 . S
O266 C267 1.208 . S
C267 O265 1.312 . S
C267 O266 1.208 . S
C268 O260 1.331 . S
C268 O263 1.244 . S
O269 Mg254 2.013 . S
O269 C258 1.191 . S
O270 C249 1.331 . S
O270 Mg256 2.081 . S
O271 Mg252 1.986 . S
O271 C258 1.307 . S
O272 C250 1.264 . S
O272 Mg256 2.023 . S
O273 C249 1.244 . S
O273 Mg257 1.942 . S
O274 C250 1.273 . S
O274 Mg257 1.955 . S
O275 C248 1.312 . S
O275 Mg251 2.291 . S
O275 Mg254 2.114 . S
O276 C248 1.208 . S
O276 Mg256 2.031 . S
C277 O262 1.264 . S
C277 O264 1.273 . S
C278 O259 1.191 . S
C278 O261 1.307 . S
H279 C285 0.930 . S
H280 C289 0.930 . S
H281 C294 0.929 . S
H282 C292 0.929 . S
H283 C287 0.929 . S
H284 C293 0.929 . S
C285 H279 0.930 . S
C285 C286 1.367 . S
C285 C293 1.378 . S
C286 C285 1.367 . S
C286 C294 1.433 . S
C287 H283 0.929 . S
C287 C289 1.378 . S
C287 C291 1.350 . S
C288 C291 1.463 . S
C288 C293 1.350 . S
C288 N296 1.427 . S
C289 H280 0.930 . S
C289 C287 1.378 . S
C289 C290 1.367 . S
C290 C289 1.367 . S
C290 C292 1.433 . S
C291 C287 1.350 . S
C291 C288 1.463 . S
C291 N295 1.427 . S
C292 H282 0.929 . S
C292 C290 1.433 . S
C292 N295 1.384 . S
C293 H284 0.929 . S
C293 C285 1.378 . S
C293 C288 1.350 . S
C294 H281 0.929 . S
C294 C286 1.433 . S
C294 N296 1.384 . S
N295 C291 1.427 . S
N295 C292 1.384 . S
N296 C288 1.427 . S
N296 C294 1.384 . S
H297 C303 0.930 . S
H298 C307 0.930 . S
H299 C312 0.929 . S
H300 C310 0.929 . S
H301 C305 0.929 . S
H302 C311 0.929 . S
C303 H297 0.930 . S
C303 C304 1.367 . S
C303 C311 1.378 . S
C304 C303 1.367 . S
C304 C312 1.433 . S
C305 H301 0.929 . S
C305 C307 1.378 . S
C305 C309 1.350 . S
C306 C309 1.463 . S
C306 C311 1.350 . S
C306 N314 1.427 . S
C307 H298 0.930 . S
C307 C305 1.378 . S
C307 C308 1.367 1_545 S
C308 C307 1.367 1_565 S
C308 C310 1.433 . S
C309 C305 1.350 . S
C309 C306 1.463 . S
C309 N313 1.427 . S
C310 H300 0.929 . S
C310 C308 1.433 . S
C310 N313 1.384 1_565 S
C311 H302 0.929 . S
C311 C303 1.378 . S
C311 C306 1.350 . S
C312 H299 0.929 . S
C312 C304 1.433 . S
C312 N314 1.384 . S
N313 C309 1.427 . S
N313 C310 1.384 1_545 S
N314 C306 1.427 . S
N314 C312 1.384 . S
H315 C321 0.930 1_455 S
H316 C325 0.930 . S
H317 C330 0.929 . S
H318 C328 0.929 . S
H319 C323 0.929 . S
H320 C329 0.929 . S
C321 H315 0.930 1_655 S
C321 C322 1.367 1_655 S
C321 C329 1.378 . S
C322 C321 1.367 1_455 S
C322 C330 1.433 . S
C323 H319 0.929 . S
C323 C325 1.378 . S
C323 C327 1.350 . S
C324 C327 1.463 . S
C324 C329 1.350 . S
C324 N332 1.427 . S
C325 H316 0.930 . S
C325 C323 1.378 . S
C325 C326 1.367 . S
C326 C325 1.367 . S
C326 C328 1.433 . S
C327 C323 1.350 . S
C327 C324 1.463 . S
C327 N331 1.427 . S
C328 H318 0.929 . S
C328 C326 1.433 . S
C328 N331 1.384 . S
C329 H320 0.929 . S
C329 C321 1.378 . S
C329 C324 1.350 . S
C330 H317 0.929 . S
C330 C322 1.433 . S
C330 N332 1.384 1_455 S
N331 C327 1.427 . S
N331 C328 1.384 . S
N332 C324 1.427 . S
N332 C330 1.384 1_655 S
H333 C339 0.930 . S
H334 C343 0.930 . S
H335 C348 0.929 . S
H336 C346 0.929 . S
H337 C341 0.929 . S
H338 C347 0.929 . S
C339 H333 0.930 . S
C339 C340 1.367 1_554 S
C339 C347 1.378 . S
C340 C339 1.367 1_556 S
C340 C348 1.433 . S
C341 H337 0.929 . S
C341 C343 1.378 . S
C341 C345 1.350 . S
C342 C345 1.463 . S
C342 C347 1.350 . S
C342 N350 1.427 . S
C343 H334 0.930 . S
C343 C341 1.378 . S
C343 C344 1.367 . S
C344 C343 1.367 . S
C344 C346 1.433 . S
C345 C341 1.350 . S
C345 C342 1.463 . S
C345 N349 1.427 . S
C346 H336 0.929 . S
C346 C344 1.433 . S
C346 N349 1.384 . S
C347 H338 0.929 . S
C347 C339 1.378 . S
C347 C342 1.350 . S
C348 H335 0.929 . S
C348 C340 1.433 . S
C348 N350 1.384 1_556 S
N349 C345 1.427 . S
N349 C346 1.384 . S
N350 C342 1.427 . S
N350 C348 1.384 1_554 S
H351 C357 0.930 . S
H352 C361 0.930 . S
H353 C366 0.895 1_565 S
H354 C364 0.929 . S
H355 C359 0.929 . S
H356 C365 0.929 . S
C357 H351 0.930 . S
C357 C358 1.367 . S
C357 C365 1.378 1_556 S
C358 C357 1.367 . S
C358 C366 1.433 1_556 S
C359 H355 0.929 . S
C359 C361 1.378 . S
C359 C363 1.350 . S
C360 C363 1.463 . S
C360 C365 1.350 . S
C360 N368 1.427 . S
C361 H352 0.930 . S
C361 C359 1.378 . S
C361 C362 1.367 . S
C362 C361 1.367 . S
C362 C364 1.433 . S
C363 C359 1.350 . S
C363 C360 1.463 . S
C363 N367 1.427 . S
C364 H354 0.929 . S
C364 C362 1.433 . S
C364 N367 1.384 . S
C365 H356 0.929 . S
C365 C357 1.378 1_554 S
C365 C360 1.350 . S
C366 H353 0.895 1_545 S
C366 C358 1.433 1_554 S
C366 N368 1.384 . S
N367 C363 1.427 . S
N367 C364 1.384 . S
N368 C360 1.427 . S
N368 C366 1.384 . S
H369 C375 0.930 . S
H370 C379 0.930 . S
H371 C384 0.929 . S
H372 C382 0.929 . S
H373 C377 0.929 . S
H374 C383 0.929 . S
C375 H369 0.930 . S
C375 C376 1.367 1_554 S
C375 C383 1.378 . S
C376 C375 1.367 1_556 S
C376 C384 1.433 . S
C377 H373 0.929 . S
C377 C379 1.378 . S
C377 C381 1.350 . S
C378 C381 1.463 . S
C378 C383 1.350 . S
C378 N386 1.427 . S
C379 H370 0.930 . S
C379 C377 1.378 . S
C379 C380 1.367 . S
C380 C379 1.367 . S
C380 C382 1.433 . S
C381 C377 1.350 . S
C381 C378 1.463 . S
C381 N385 1.427 . S
C382 H372 0.929 . S
C382 C380 1.433 . S
C382 N385 1.384 . S
C383 H374 0.929 . S
C383 C375 1.378 . S
C383 C378 1.350 . S
C384 H371 0.929 . S
C384 C376 1.433 . S
C384 N386 1.384 1_556 S
N385 C381 1.427 . S
N385 C382 1.384 . S
N386 C378 1.427 . S
N386 C384 1.384 1_554 S
H387 C393 0.930 . S
H388 C397 0.930 . S
H389 C402 0.929 . S
H390 C400 0.929 . S
H391 C395 0.929 . S
H392 C401 0.929 . S
C393 H387 0.930 . S
C393 C394 1.367 . S
C393 C401 1.378 . S
C394 C393 1.367 . S
C394 C402 1.433 . S
C395 H391 0.929 . S
C395 C397 1.378 1_655 S
C395 C399 1.350 . S
C396 C399 1.463 . S
C396 C401 1.350 . S
C396 N404 1.427 . S
C397 H388 0.930 . S
C397 C395 1.378 1_455 S
C397 C398 1.367 . S
C398 C397 1.367 . S
C398 C400 1.433 . S
C399 C395 1.350 . S
C399 C396 1.463 . S
C399 N403 1.427 . S
C400 H390 0.929 . S
C400 C398 1.433 . S
C400 N403 1.384 1_455 S
C401 H392 0.929 . S
C401 C393 1.378 . S
C401 C396 1.350 . S
C402 H389 0.929 . S
C402 C394 1.433 . S
C402 N404 1.384 . S
N403 C399 1.427 . S
N403 C400 1.384 1_655 S
N404 C396 1.427 . S
N404 C402 1.384 . S
H405 C411 0.930 . S
H406 C415 0.930 . S
H407 C420 0.929 . S
H408 C418 0.929 . S
H409 C413 0.929 . S
H410 C419 0.929 . S
C411 H405 0.930 . S
C411 C412 1.367 . S
C411 C419 1.378 . S
C412 C411 1.367 . S
C412 C420 1.433 . S
C413 H409 0.929 . S
C413 C415 1.378 . S
C413 C417 1.350 . S
C414 C417 1.463 . S
C414 C419 1.350 . S
C414 N422 1.427 . S
C415 H406 0.930 . S
C415 C413 1.378 . S
C415 C416 1.367 . S
C416 C415 1.367 . S
C416 C418 1.433 . S
C417 C413 1.350 . S
C417 C414 1.463 . S
C417 N421 1.427 . S
C418 H408 0.929 . S
C418 C416 1.433 . S
C418 N421 1.384 . S
C419 H410 0.929 . S
C419 C411 1.378 . S
C419 C414 1.350 . S
C420 H407 0.929 . S
C420 C412 1.433 . S
C420 N422 1.384 . S
N421 C417 1.427 . S
N421 C418 1.384 . S
N422 C414 1.427 . S
N422 C420 1.384 . S
H423 C429 0.930 . S
H424 C433 0.930 . S
H425 C438 0.929 . S
H426 C436 0.929 . S
H427 C431 0.929 . S
H428 C437 0.929 . S
C429 H423 0.930 . S
C429 C430 1.367 . S
C429 C437 1.378 1_565 S
C430 C429 1.367 . S
C430 C438 1.433 . S
C431 H427 0.929 . S
C431 C433 1.378 . S
C431 C435 1.350 . S
C432 C435 1.463 . S
C432 C437 1.350 . S
C432 N440 1.427 . S
C433 H424 0.930 . S
C433 C431 1.378 . S
C433 C434 1.367 . S
C434 C433 1.367 . S
C434 C436 1.433 . S
C435 C431 1.350 . S
C435 C432 1.463 . S
C435 N439 1.427 . S
C436 H426 0.929 . S
C436 C434 1.433 . S
C436 N439 1.384 . S
C437 H428 0.929 . S
C437 C429 1.378 1_545 S
C437 C432 1.350 . S
C438 H425 0.929 . S
C438 C430 1.433 . S
C438 N440 1.384 1_565 S
N439 C435 1.427 . S
N439 C436 1.384 . S
N440 C432 1.427 . S
N440 C438 1.384 1_545 S
H441 C447 0.930 . S
H442 C451 0.930 . S
H443 C456 0.929 . S
H444 C454 0.929 . S
H445 C449 0.935 . S
H446 C455 0.929 . S
C447 H441 0.930 . S
C447 C448 1.367 . S
C447 C455 1.378 . S
C448 C447 1.367 . S
C448 C456 1.433 . S
C449 H445 0.935 . S
C449 C451 1.378 1_545 S
C449 C453 1.350 . S
C450 C453 1.463 . S
C450 C455 1.350 . S
C450 N458 1.427 . S
C451 H442 0.930 . S
C451 C449 1.378 1_565 S
C451 C452 1.367 . S
C452 C451 1.367 . S
C452 C454 1.433 1_565 S
C453 C449 1.350 . S
C453 C450 1.463 . S
C453 N457 1.427 . S
C454 H444 0.929 . S
C454 C452 1.433 1_545 S
C454 N457 1.384 . S
C455 H446 0.929 . S
C455 C447 1.378 . S
C455 C450 1.350 . S
C456 H443 0.929 . S
C456 C448 1.433 . S
C456 N458 1.384 . S
N457 C453 1.427 . S
N457 C454 1.384 . S
N458 C450 1.427 . S
N458 C456 1.384 . S
H459 C465 0.930 . S
H460 C469 0.930 . S
H461 C474 0.929 . S
H462 C472 0.929 . S
H463 C467 0.929 . S
H464 C473 0.929 . S
C465 H459 0.930 . S
C465 C466 1.367 . S
C465 C473 1.378 1_455 S
C466 C465 1.367 . S
C466 C474 1.433 . S
C467 H463 0.929 . S
C467 C469 1.378 . S
C467 C471 1.350 . S
C468 C471 1.463 . S
C468 C473 1.350 . S
C468 N476 1.427 . S
C469 H460 0.930 . S
C469 C467 1.378 . S
C469 C470 1.367 . S
C470 C469 1.367 . S
C470 C472 1.433 . S
C471 C467 1.350 . S
C471 C468 1.463 . S
C471 N475 1.427 . S
C472 H462 0.929 . S
C472 C470 1.433 . S
C472 N475 1.384 . S
C473 H464 0.929 . S
C473 C465 1.378 1_655 S
C473 C468 1.350 . S
C474 H461 0.929 . S
C474 C466 1.433 . S
C474 N476 1.384 1_455 S
N475 C471 1.427 . S
N475 C472 1.384 . S
N476 C468 1.427 . S
N476 C474 1.384 1_655 S
H477 C483 0.930 . S
H478 C487 0.930 . S
H479 C492 0.929 . S
H480 C490 0.929 . S
H481 C485 0.929 . S
H482 C491 0.929 . S
C483 H477 0.930 . S
C483 C484 1.367 . S
C483 C491 1.378 . S
C484 C483 1.367 . S
C484 C492 1.433 . S
C485 H481 0.929 . S
C485 C487 1.378 . S
C485 C489 1.350 . S
C486 C489 1.463 . S
C486 C491 1.350 . S
C486 N494 1.427 . S
C487 H478 0.930 . S
C487 C485 1.378 . S
C487 C488 1.367 . S
C488 C487 1.367 . S
C488 C490 1.433 . S
C489 C485 1.350 . S
C489 C486 1.463 . S
C489 N493 1.427 . S
C490 H480 0.929 . S
C490 C488 1.433 . S
C490 N493 1.384 . S
C491 H482 0.929 . S
C491 C483 1.378 . S
C491 C486 1.350 . S
C492 H479 0.929 . S
C492 C484 1.433 . S
C492 N494 1.384 . S
N493 C489 1.427 . S
N493 C490 1.384 . S
N494 C486 1.427 . S
N494 C492 1.384 . S
H495 C501 0.930 . S
H496 C505 0.930 . S
H497 C510 0.929 . S
H498 C508 0.929 . S
H499 C503 0.929 . S
H500 C509 0.929 . S
C501 H495 0.930 . S
C501 C502 1.367 . S
C501 C509 1.378 . S
C502 C501 1.367 . S
C502 C510 1.433 . S
C503 H499 0.929 . S
C503 C505 1.378 . S
C503 C507 1.350 . S
C504 C507 1.463 . S
C504 C509 1.350 . S
C504 N512 1.427 . S
C505 H496 0.930 . S
C505 C503 1.378 . S
C505 C506 1.367 . S
C506 C505 1.367 . S
C506 C508 1.433 . S
C507 C503 1.350 . S
C507 C504 1.463 . S
C507 N511 1.427 . S
C508 H498 0.929 . S
C508 C506 1.433 . S
C508 N511 1.384 . S
C509 H500 0.929 . S
C509 C501 1.378 . S
C509 C504 1.350 . S
C510 H497 0.929 . S
C510 C502 1.433 . S
C510 N512 1.384 . S
N511 C507 1.427 . S
N511 C508 1.384 . S
N512 C504 1.427 . S
N512 C510 1.384 . S
H513 C519 0.930 . S
H514 C523 0.930 . S
H515 C528 0.929 . S
H516 C526 0.929 . S
H517 C521 0.929 . S
H518 C527 0.929 . S
C519 H513 0.930 . S
C519 C520 1.367 . S
C519 C527 1.378 . S
C520 C519 1.367 . S
C520 C528 1.433 . S
C521 H517 0.929 . S
C521 C523 1.378 . S
C521 C525 1.350 . S
C522 C525 1.463 . S
C522 C527 1.350 . S
C522 N530 1.427 . S
C523 H514 0.930 . S
C523 C521 1.378 . S
C523 C524 1.367 . S
C524 C523 1.367 . S
C524 C526 1.433 . S
C525 C521 1.350 . S
C525 C522 1.463 . S
C525 N529 1.427 . S
C526 H516 0.929 . S
C526 C524 1.433 . S
C526 N529 1.384 . S
C527 H518 0.929 . S
C527 C519 1.378 . S
C527 C522 1.350 . S
C528 H515 0.929 . S
C528 C520 1.433 . S
C528 N530 1.384 . S
N529 C525 1.427 . S
N529 C526 1.384 . S
N530 C522 1.427 . S
N530 C528 1.384 . S
H531 C537 0.930 . S
H532 C541 0.930 . S
H533 C546 0.929 . S
H534 C544 0.929 . S
H535 C539 0.929 . S
H536 C545 0.929 . S
C537 H531 0.930 . S
C537 C538 1.367 . S
C537 C545 1.378 . S
C538 C537 1.367 . S
C538 C546 1.433 . S
C539 H535 0.929 . S
C539 C541 1.378 . S
C539 C543 1.350 . S
C540 C543 1.463 . S
C540 C545 1.350 . S
C540 N548 1.427 . S
C541 H532 0.930 . S
C541 C539 1.378 . S
C541 C542 1.367 . S
C542 C541 1.367 . S
C542 C544 1.433 . S
C543 C539 1.350 . S
C543 C540 1.463 . S
C543 N547 1.427 . S
C544 H534 0.929 . S
C544 C542 1.433 . S
C544 N547 1.384 . S
C545 H536 0.929 . S
C545 C537 1.378 . S
C545 C540 1.350 . S
C546 H533 0.929 . S
C546 C538 1.433 . S
C546 N548 1.384 . S
N547 C543 1.427 . S
N547 C544 1.384 . S
N548 C540 1.427 . S
N548 C546 1.384 . S
H549 C555 0.930 . S
H550 C559 0.930 . S
H551 C564 0.929 . S
H552 C562 0.929 . S
H553 C557 0.929 . S
H554 C563 0.929 . S
C555 H549 0.930 . S
C555 C556 1.367 . S
C555 C563 1.378 . S
C556 C555 1.367 . S
C556 C564 1.433 . S
C557 H553 0.929 . S
C557 C559 1.378 . S
C557 C561 1.350 . S
C558 C561 1.463 . S
C558 C563 1.350 . S
C558 N566 1.427 . S
C559 H550 0.930 . S
C559 C557 1.378 . S
C559 C560 1.367 . S
C560 C559 1.367 . S
C560 C562 1.433 . S
C561 C557 1.350 . S
C561 C558 1.463 . S
C561 N565 1.427 . S
C562 H552 0.929 . S
C562 C560 1.433 . S
C562 N565 1.384 . S
C563 H554 0.929 . S
C563 C555 1.378 . S
C563 C558 1.350 . S
C564 H551 0.929 . S
C564 C556 1.433 . S
C564 N566 1.384 . S
N565 C561 1.427 . S
N565 C562 1.384 . S
N566 C558 1.427 . S
N566 C564 1.384 . S
H567 C573 0.930 . S
H568 C577 0.930 . S
H569 C582 0.929 1_554 S
H570 C580 0.929 . S
H571 C575 0.929 . S
H572 C581 0.929 . S
C573 H567 0.930 . S
C573 C574 1.367 . S
C573 C581 1.378 . S
C574 C573 1.367 . S
C574 C582 1.433 . S
C575 H571 0.929 . S
C575 C577 1.378 . S
C575 C579 1.350 . S
C576 C579 1.463 . S
C576 C581 1.350 . S
C576 N584 1.427 . S
C577 H568 0.930 . S
C577 C575 1.378 . S
C577 C578 1.367 . S
C578 C577 1.367 . S
C578 C580 1.433 . S
C579 C575 1.350 . S
C579 C576 1.463 . S
C579 N583 1.427 . S
C580 H570 0.929 . S
C580 C578 1.433 . S
C580 N583 1.384 . S
C581 H572 0.929 . S
C581 C573 1.378 . S
C581 C576 1.350 . S
C582 H569 0.929 1_556 S
C582 C574 1.433 . S
C582 N584 1.384 . S
N583 C579 1.427 . S
N583 C580 1.384 . S
N584 C576 1.427 . S
N584 C582 1.384 . S
H585 C591 0.930 . S
H586 C595 0.930 . S
H587 C600 0.929 . S
H588 C598 0.929 . S
H589 C593 0.929 . S
H590 C599 0.929 . S
C591 H585 0.930 . S
C591 C592 1.367 . S
C591 C599 1.378 . S
C592 C591 1.367 . S
C592 C600 1.433 . S
C593 H589 0.929 . S
C593 C595 1.378 . S
C593 C597 1.350 . S
C594 C597 1.463 . S
C594 C599 1.350 . S
C594 N602 1.427 . S
C595 H586 0.930 . S
C595 C593 1.378 . S
C595 C596 1.367 . S
C596 C595 1.367 . S
C596 C598 1.433 . S
C597 C593 1.350 . S
C597 C594 1.463 . S
C597 N601 1.427 . S
C598 H588 0.929 . S
C598 C596 1.433 . S
C598 N601 1.384 . S
C599 H590 0.929 . S
C599 C591 1.378 . S
C599 C594 1.350 . S
C600 H587 0.929 . S
C600 C592 1.433 . S
C600 N602 1.384 . S
N601 C597 1.427 . S
N601 C598 1.384 . S
N602 C594 1.427 . S
N602 C600 1.384 . S
H603 C609 0.930 1_565 S
H604 C613 0.930 . S
H605 C618 0.929 . S
H606 C616 0.929 . S
H607 C611 0.929 . S
H608 C617 0.929 . S
C609 H603 0.930 1_545 S
C609 C610 1.367 . S
C609 C617 1.378 . S
C610 C609 1.367 . S
C610 C618 1.433 . S
C611 H607 0.929 . S
C611 C613 1.378 . S
C611 C615 1.350 . S
C612 C615 1.463 . S
C612 C617 1.350 . S
C612 N620 1.427 . S
C613 H604 0.930 . S
C613 C611 1.378 . S
C613 C614 1.364 1_554 S
C614 C613 1.364 1_556 S
C614 C616 1.435 . S
C615 C611 1.350 . S
C615 C612 1.463 . S
C615 N619 1.427 1_554 S
C616 H606 0.929 . S
C616 C614 1.435 . S
C616 N619 1.384 . S
C617 H608 0.929 . S
C617 C609 1.378 . S
C617 C612 1.350 . S
C618 H605 0.929 . S
C618 C610 1.433 . S
C618 N620 1.384 . S
N619 C615 1.427 1_556 S
N619 C616 1.384 . S
N620 C612 1.427 . S
N620 C618 1.384 . S
H621 C627 0.930 . S
H622 C631 0.930 . S
H623 C636 0.929 1_455 S
H624 C634 0.932 1_566 S
H625 C629 0.929 . S
H626 C635 0.929 . S
C627 H621 0.930 . S
C627 C628 1.367 . S
C627 C635 1.378 . S
C628 C627 1.367 . S
C628 C636 1.433 . S
C629 H625 0.929 . S
C629 C631 1.378 1_545 S
C629 C633 1.350 . S
C630 C633 1.463 . S
C630 C635 1.350 . S
C630 N638 1.427 . S
C631 H622 0.930 . S
C631 C629 1.378 1_565 S
C631 C632 1.367 1_554 S
C632 C631 1.367 1_556 S
C632 C634 1.433 1_566 S
C633 C629 1.350 . S
C633 C630 1.463 . S
C633 N637 1.427 . S
C634 H624 0.932 1_544 S
C634 C632 1.433 1_544 S
C634 N637 1.384 . S
C635 H626 0.929 . S
C635 C627 1.378 . S
C635 C630 1.350 . S
C636 H623 0.929 1_655 S
C636 C628 1.433 . S
C636 N638 1.384 . S
N637 C633 1.427 . S
N637 C634 1.384 . S
N638 C630 1.427 . S
N638 C636 1.384 . S
H639 C645 0.930 . S
H640 C649 0.930 . S
H641 C654 0.929 . S
H642 C652 0.930 . S
H643 C647 0.929 . S
H644 C653 0.929 . S
C645 H639 0.930 . S
C645 C646 1.367 . S
C645 C653 1.378 . S
C646 C645 1.367 . S
C646 C654 1.433 . S
C647 H643 0.929 . S
C647 C649 1.378 1_654 S
C647 C651 1.350 . S
C648 C651 1.463 . S
C648 C653 1.350 . S
C648 N656 1.427 . S
C649 H640 0.930 . S
C649 C647 1.378 1_456 S
C649 C650 1.367 . S
C650 C649 1.367 . S
C650 C652 1.434 1_556 S
C651 C647 1.350 . S
C651 C648 1.463 . S
C651 N655 1.427 . S
C652 H642 0.930 . S
C652 C650 1.434 1_554 S
C652 N655 1.382 1_455 S
C653 H644 0.929 . S
C653 C645 1.378 . S
C653 C648 1.350 . S
C654 H641 0.929 . S
C654 C646 1.433 . S
C654 N656 1.384 . S
N655 C651 1.427 . S
N655 C652 1.382 1_655 S
N656 C648 1.427 . S
N656 C654 1.384 . S
H657 C663 0.930 . S
H658 C667 0.930 . S
H659 C672 0.929 . S
H660 C670 0.929 . S
H661 C665 0.929 . S
H662 C671 0.929 . S
C663 H657 0.930 . S
C663 C664 1.367 . S
C663 C671 1.378 . S
C664 C663 1.367 . S
C664 C672 1.433 . S
C665 H661 0.929 . S
C665 C667 1.378 . S
C665 C669 1.350 . S
C666 C669 1.463 . S
C666 C671 1.350 . S
C666 N674 1.427 . S
C667 H658 0.930 . S
C667 C665 1.378 . S
C667 C668 1.367 . S
C668 C667 1.367 . S
C668 C670 1.433 . S
C669 C665 1.350 . S
C669 C666 1.463 . S
C669 N673 1.427 . S
C670 H660 0.929 . S
C670 C668 1.433 . S
C670 N673 1.384 . S
C671 H662 0.929 . S
C671 C663 1.378 . S
C671 C666 1.350 . S
C672 H659 0.929 . S
C672 C664 1.433 . S
C672 N674 1.384 . S
N673 C669 1.427 . S
N673 C670 1.384 . S
N674 C666 1.427 . S
N674 C672 1.384 . S
H675 C681 0.930 . S
H676 C685 0.930 . S
H677 C690 0.929 . S
H678 C688 0.929 . S
H679 C683 0.929 . S
H680 C689 0.929 . S
C681 H675 0.930 . S
C681 C682 1.367 . S
C681 C689 1.378 . S
C682 C681 1.367 . S
C682 C690 1.433 . S
C683 H679 0.929 . S
C683 C685 1.378 . S
C683 C687 1.350 . S
C684 C687 1.463 . S
C684 C689 1.350 . S
C684 N692 1.427 . S
C685 H676 0.930 . S
C685 C683 1.378 . S
C685 C686 1.367 . S
C686 C685 1.367 . S
C686 C688 1.433 . S
C687 C683 1.350 . S
C687 C684 1.463 . S
C687 N691 1.427 . S
C688 H678 0.929 . S
C688 C686 1.433 . S
C688 N691 1.384 . S
C689 H680 0.929 . S
C689 C681 1.378 . S
C689 C684 1.350 . S
C690 H677 0.929 . S
C690 C682 1.433 . S
C690 N692 1.384 . S
N691 C687 1.427 . S
N691 C688 1.384 . S
N692 C684 1.427 . S
N692 C690 1.384 . S
H693 C699 0.930 . S
H694 C703 0.930 . S
H695 C708 0.929 . S
H696 C706 0.929 . S
H697 C701 0.929 . S
H698 C707 0.929 . S
C699 H693 0.930 . S
C699 C700 1.367 . S
C699 C707 1.378 . S
C700 C699 1.367 . S
C700 C708 1.433 . S
C701 H697 0.929 . S
C701 C703 1.378 . S
C701 C705 1.350 . S
C702 C705 1.463 . S
C702 C707 1.350 . S
C702 N710 1.427 . S
C703 H694 0.930 . S
C703 C701 1.378 . S
C703 C704 1.367 . S
C704 C703 1.367 . S
C704 C706 1.433 . S
C705 C701 1.350 . S
C705 C702 1.463 . S
C705 N709 1.427 . S
C706 H696 0.929 . S
C706 C704 1.433 . S
C706 N709 1.384 . S
C707 H698 0.929 . S
C707 C699 1.378 . S
C707 C702 1.350 . S
C708 H695 0.929 . S
C708 C700 1.433 . S
C708 N710 1.384 . S
N709 C705 1.427 . S
N709 C706 1.384 . S
N710 C702 1.427 . S
N710 C708 1.384 . S
H711 C717 0.930 . S
H712 C721 0.930 . S
H713 C726 0.929 . S
H714 C724 0.929 . S
H715 C719 0.929 . S
H716 C725 0.929 . S
C717 H711 0.930 . S
C717 C718 1.367 . S
C717 C725 1.378 . S
C718 C717 1.367 . S
C718 C726 1.433 . S
C719 H715 0.929 . S
C719 C721 1.378 . S
C719 C723 1.350 . S
C720 C723 1.463 . S
C720 C725 1.350 . S
C720 N728 1.427 . S
C721 H712 0.930 . S
C721 C719 1.378 . S
C721 C722 1.367 . S
C722 C721 1.367 . S
C722 C724 1.433 . S
C723 C719 1.350 . S
C723 C720 1.463 . S
C723 N727 1.427 . S
C724 H714 0.929 . S
C724 C722 1.433 . S
C724 N727 1.384 . S
C725 H716 0.929 . S
C725 C717 1.378 . S
C725 C720 1.350 . S
C726 H713 0.929 . S
C726 C718 1.433 . S
C726 N728 1.384 . S
N727 C723 1.427 . S
N727 C724 1.384 . S
N728 C720 1.427 . S
N728 C726 1.384 . S
H729 C735 0.930 . S
H730 C739 0.930 . S
H731 C744 0.929 . S
H732 C742 0.929 . S
H733 C737 0.929 . S
H734 C743 0.929 . S
C735 H729 0.930 . S
C735 C736 1.367 . S
C735 C743 1.378 . S
C736 C735 1.367 . S
C736 C744 1.433 . S
C737 H733 0.929 . S
C737 C739 1.378 . S
C737 C741 1.350 . S
C738 C741 1.463 . S
C738 C743 1.350 . S
C738 N746 1.427 . S
C739 H730 0.930 . S
C739 C737 1.378 . S
C739 C740 1.367 . S
C740 C739 1.367 . S
C740 C742 1.433 . S
C741 C737 1.350 . S
C741 C738 1.463 . S
C741 N745 1.427 . S
C742 H732 0.929 . S
C742 C740 1.433 . S
C742 N745 1.384 . S
C743 H734 0.929 . S
C743 C735 1.378 . S
C743 C738 1.350 . S
C744 H731 0.929 . S
C744 C736 1.433 . S
C744 N746 1.384 . S
N745 C741 1.427 . S
N745 C742 1.384 . S
N746 C738 1.427 . S
N746 C744 1.384 . S
H747 C753 0.930 . S
H748 C757 0.930 . S
H749 C762 0.929 . S
H750 C760 0.929 . S
H751 C755 0.929 . S
H752 C761 0.929 . S
C753 H747 0.930 . S
C753 C754 1.367 . S
C753 C761 1.378 . S
C754 C753 1.367 . S
C754 C762 1.433 . S
C755 H751 0.929 . S
C755 C757 1.378 . S
C755 C759 1.350 . S
C756 C759 1.463 . S
C756 C761 1.350 . S
C756 N764 1.427 . S
C757 H748 0.930 . S
C757 C755 1.378 . S
C757 C758 1.367 . S
C758 C757 1.367 . S
C758 C760 1.433 . S
C759 C755 1.350 . S
C759 C756 1.463 . S
C759 N763 1.427 . S
C760 H750 0.929 . S
C760 C758 1.433 . S
C760 N763 1.384 . S
C761 H752 0.929 . S
C761 C753 1.378 . S
C761 C756 1.350 . S
C762 H749 0.929 . S
C762 C754 1.433 . S
C762 N764 1.384 . S
N763 C759 1.427 . S
N763 C760 1.384 . S
N764 C756 1.427 . S
N764 C762 1.384 . S
H765 C771 0.930 . S
H766 C775 0.930 . S
H767 C780 0.929 . S
H768 C778 0.929 . S
H769 C773 0.929 . S
H770 C779 0.929 . S
C771 H765 0.930 . S
C771 C772 1.367 . S
C771 C779 1.378 . S
C772 C771 1.367 . S
C772 C780 1.433 . S
C773 H769 0.929 . S
C773 C775 1.378 . S
C773 C777 1.350 . S
C774 C777 1.463 . S
C774 C779 1.350 . S
C774 N782 1.427 . S
C775 H766 0.930 . S
C775 C773 1.378 . S
C775 C776 1.367 . S
C776 C775 1.367 . S
C776 C778 1.433 . S
C777 C773 1.350 . S
C777 C774 1.463 . S
C777 N781 1.427 . S
C778 H768 0.929 . S
C778 C776 1.433 . S
C778 N781 1.384 . S
C779 H770 0.929 . S
C779 C771 1.378 . S
C779 C774 1.350 . S
C780 H767 0.929 . S
C780 C772 1.433 . S
C780 N782 1.384 . S
N781 C777 1.427 . S
N781 C778 1.384 . S
N782 C774 1.427 . S
N782 C780 1.384 . S
H783 C789 0.930 . S
H784 C793 0.930 . S
H785 C798 0.929 . S
H786 C796 0.929 . S
H787 C791 0.929 . S
H788 C797 0.929 . S
C789 H783 0.930 . S
C789 C790 1.367 . S
C789 C797 1.378 . S
C790 C789 1.367 . S
C790 C798 1.433 . S
C791 H787 0.929 . S
C791 C793 1.378 . S
C791 C795 1.350 . S
C792 C795 1.463 . S
C792 C797 1.350 . S
C792 N800 1.427 . S
C793 H784 0.930 . S
C793 C791 1.378 . S
C793 C794 1.367 . S
C794 C793 1.367 . S
C794 C796 1.433 . S
C795 C791 1.350 . S
C795 C792 1.463 . S
C795 N799 1.427 . S
C796 H786 0.929 . S
C796 C794 1.433 . S
C796 N799 1.384 . S
C797 H788 0.929 . S
C797 C789 1.378 . S
C797 C792 1.350 . S
C798 H785 0.929 . S
C798 C790 1.433 . S
C798 N800 1.384 . S
N799 C795 1.427 . S
N799 C796 1.384 . S
N800 C792 1.427 . S
N800 C798 1.384 . S
H801 C807 0.930 . S
H802 C811 0.930 . S
H803 C816 0.929 . S
H804 C814 0.929 . S
H805 C809 0.929 . S
H806 C815 0.929 . S
C807 H801 0.930 . S
C807 C808 1.367 . S
C807 C815 1.378 . S
C808 C807 1.367 . S
C808 C816 1.433 . S
C809 H805 0.929 . S
C809 C811 1.378 . S
C809 C813 1.350 . S
C810 C813 1.463 . S
C810 C815 1.350 . S
C810 N818 1.427 . S
C811 H802 0.930 . S
C811 C809 1.378 . S
C811 C812 1.367 . S
C812 C811 1.367 . S
C812 C814 1.433 . S
C813 C809 1.350 . S
C813 C810 1.463 . S
C813 N817 1.427 . S
C814 H804 0.929 . S
C814 C812 1.433 . S
C814 N817 1.384 . S
C815 H806 0.929 . S
C815 C807 1.378 . S
C815 C810 1.350 . S
C816 H803 0.929 . S
C816 C808 1.433 . S
C816 N818 1.384 . S
N817 C813 1.427 . S
N817 C814 1.384 . S
N818 C810 1.427 . S
N818 C816 1.384 . S
H819 C825 0.930 . S
H820 C829 0.930 . S
H821 C834 0.929 . S
H822 C832 0.929 . S
H823 C827 0.929 . S
H824 C833 0.929 . S
C825 H819 0.930 . S
C825 C826 1.367 . S
C825 C833 1.378 . S
C826 C825 1.367 . S
C826 C834 1.433 . S
C827 H823 0.929 . S
C827 C829 1.378 1_556 S
C827 C831 1.350 . S
C828 C831 1.463 . S
C828 C833 1.350 . S
C828 N836 1.427 . S
C829 H820 0.930 . S
C829 C827 1.378 1_554 S
C829 C830 1.367 . S
C830 C829 1.367 . S
C830 C832 1.433 . S
C831 C827 1.350 . S
C831 C828 1.463 . S
C831 N835 1.427 . S
C832 H822 0.929 . S
C832 C830 1.433 . S
C832 N835 1.384 1_554 S
C833 H824 0.929 . S
C833 C825 1.378 . S
C833 C828 1.350 . S
C834 H821 0.929 . S
C834 C826 1.433 . S
C834 N836 1.384 . S
N835 C831 1.427 . S
N835 C832 1.384 1_556 S
N836 C828 1.427 . S
N836 C834 1.384 . S
H837 C843 0.930 . S
H838 C847 0.930 . S
H839 C852 0.929 . S
H840 C850 0.929 . S
H841 C845 0.929 . S
H842 C851 0.929 . S
C843 H837 0.930 . S
C843 C844 1.367 . S
C843 C851 1.378 1_554 S
C844 C843 1.367 . S
C844 C852 1.433 . S
C845 H841 0.929 . S
C845 C847 1.378 . S
C845 C849 1.350 . S
C846 C849 1.463 . S
C846 C851 1.350 . S
C846 N854 1.427 . S
C847 H838 0.930 . S
C847 C845 1.378 . S
C847 C848 1.367 . S
C848 C847 1.367 . S
C848 C850 1.433 . S
C849 C845 1.350 . S
C849 C846 1.463 . S
C849 N853 1.427 . S
C850 H840 0.929 . S
C850 C848 1.433 . S
C850 N853 1.384 . S
C851 H842 0.929 . S
C851 C843 1.378 1_556 S
C851 C846 1.350 . S
C852 H839 0.929 . S
C852 C844 1.433 . S
C852 N854 1.384 1_554 S
N853 C849 1.427 . S
N853 C850 1.384 . S
N854 C846 1.427 . S
N854 C852 1.384 1_556 S
H855 C861 0.930 . S
H856 C865 0.930 . S
H857 C870 0.929 . S
H858 C868 0.929 . S
H859 C863 0.929 . S
H860 C869 0.929 . S
C861 H855 0.930 . S
C861 C862 1.367 . S
C861 C869 1.378 . S
C862 C861 1.367 . S
C862 C870 1.433 . S
C863 H859 0.929 . S
C863 C865 1.378 1_556 S
C863 C867 1.350 . S
C864 C867 1.463 . S
C864 C869 1.350 . S
C864 N872 1.427 . S
C865 H856 0.930 . S
C865 C863 1.378 1_554 S
C865 C866 1.367 . S
C866 C865 1.367 . S
C866 C868 1.433 . S
C867 C863 1.350 . S
C867 C864 1.463 . S
C867 N871 1.427 . S
C868 H858 0.929 . S
C868 C866 1.433 . S
C868 N871 1.384 1_554 S
C869 H860 0.929 . S
C869 C861 1.378 . S
C869 C864 1.350 . S
C870 H857 0.929 . S
C870 C862 1.433 . S
C870 N872 1.384 . S
N871 C867 1.427 . S
N871 C868 1.384 1_556 S
N872 C864 1.427 . S
N872 C870 1.384 . S
H873 C879 0.930 . S
H874 C883 0.930 . S
H875 C888 0.929 . S
H876 C886 0.929 . S
H877 C881 0.929 . S
H878 C887 0.929 . S
C879 H873 0.930 . S
C879 C880 1.367 . S
C879 C887 1.378 . S
C880 C879 1.367 . S
C880 C888 1.433 . S
C881 H877 0.929 . S
C881 C883 1.378 1_554 S
C881 C885 1.350 . S
C882 C885 1.463 . S
C882 C887 1.350 . S
C882 N890 1.427 . S
C883 H874 0.930 . S
C883 C881 1.378 1_556 S
C883 C884 1.367 . S
C884 C883 1.367 . S
C884 C886 1.433 . S
C885 C881 1.350 . S
C885 C882 1.463 . S
C885 N889 1.427 . S
C886 H876 0.929 . S
C886 C884 1.433 . S
C886 N889 1.384 1_556 S
C887 H878 0.929 . S
C887 C879 1.378 . S
C887 C882 1.350 . S
C888 H875 0.929 . S
C888 C880 1.433 . S
C888 N890 1.384 . S
N889 C885 1.427 . S
N889 C886 1.384 1_554 S
N890 C882 1.427 . S
N890 C888 1.384 . S
H891 C897 0.930 . S
H892 C901 0.930 . S
H893 C906 0.929 . S
H894 C904 0.929 . S
H895 C899 0.929 . S
H896 C905 0.929 . S
C897 H891 0.930 . S
C897 C898 1.367 . S
C897 C905 1.378 . S
C898 C897 1.367 . S
C898 C906 1.433 . S
C899 H895 0.929 . S
C899 C901 1.378 1_554 S
C899 C903 1.350 . S
C900 C903 1.463 . S
C900 C905 1.350 . S
C900 N908 1.427 . S
C901 H892 0.930 . S
C901 C899 1.378 1_556 S
C901 C902 1.367 . S
C902 C901 1.367 . S
C902 C904 1.433 . S
C903 C899 1.350 . S
C903 C900 1.463 . S
C903 N907 1.427 . S
C904 H894 0.929 . S
C904 C902 1.433 . S
C904 N907 1.384 1_556 S
C905 H896 0.929 . S
C905 C897 1.378 . S
C905 C900 1.350 . S
C906 H893 0.929 . S
C906 C898 1.433 . S
C906 N908 1.384 . S
N907 C903 1.427 . S
N907 C904 1.384 1_554 S
N908 C900 1.427 . S
N908 C906 1.384 . S
H909 C915 0.930 . S
H910 C919 0.930 . S
H911 C924 0.929 . S
H912 C922 0.929 . S
H913 C917 0.929 . S
H914 C923 0.929 . S
C915 H909 0.930 . S
C915 C916 1.367 . S
C915 C923 1.378 . S
C916 C915 1.367 . S
C916 C924 1.433 . S
C917 H913 0.929 . S
C917 C919 1.378 1_554 S
C917 C921 1.350 . S
C918 C921 1.463 . S
C918 C923 1.350 . S
C918 N926 1.427 . S
C919 H910 0.930 . S
C919 C917 1.378 1_556 S
C919 C920 1.367 . S
C920 C919 1.367 . S
C920 C922 1.433 . S
C921 C917 1.350 . S
C921 C918 1.463 . S
C921 N925 1.427 . S
C922 H912 0.929 . S
C922 C920 1.433 . S
C922 N925 1.384 1_556 S
C923 H914 0.929 . S
C923 C915 1.378 . S
C923 C918 1.350 . S
C924 H911 0.929 . S
C924 C916 1.433 . S
C924 N926 1.384 . S
N925 C921 1.427 . S
N925 C922 1.384 1_554 S
N926 C918 1.427 . S
N926 C924 1.384 . S
C286 C20 1.288 . S
C290 C153 1.280 . S
C304 C184 1.260 . S
C308 C51 1.275 . S
C322 C82 1.290 . S
C326 C122 1.276 . S
C340 C32 2.124 . S
C344 C93 2.408 . S
C358 C63 2.132 1_545 S
C362 C124 2.410 . S
C376 C1 2.125 1_655 S
C380 C155 2.408 . S
C394 C113 1.284 . S
C398 C246 1.280 . S
C412 C277 1.276 . S
C416 C144 1.290 . S
C430 C215 1.260 . S
C434 C175 1.273 . S
C448 C125 2.125 . S
C452 C186 2.409 . S
C466 C217 2.411 . S
C470 C156 2.134 . S
C484 C248 2.410 . S
C488 C94 2.130 . S
C502 C206 1.289 . S
C506 C60 1.280 . S
C520 C237 1.289 . S
C524 C91 1.271 . S
C538 C29 1.280 . S
C542 C268 1.288 . S
C556 C0 2.413 1_556 S
C560 C218 2.136 . S
C574 C31 2.409 1_556 S
C578 C249 2.125 . S
C592 C187 2.130 . S
C596 C62 2.409 1_556 S
C610 C64 1.515 1_545 S
C614 C10 1.624 . S
C628 C2 1.511 1_655 S
C632 C41 1.633 . S
C646 C33 1.513 . S
C650 C72 1.633 . S
C664 C157 1.523 . S
C668 C103 1.630 . S
C682 C95 1.521 . S
C686 C134 1.622 . S
C700 C126 1.525 . S
C704 C165 1.628 . S
C718 C196 1.628 . S
C722 C250 1.505 . S
C736 C227 1.631 . S
C740 C188 1.506 . S
C754 C258 1.624 . S
C758 C219 1.525 . S
C772 C30 0.929 . S
C776 C19 0.920 . S
C790 C50 0.912 . S
C794 C61 0.920 . S
C808 C92 0.918 . S
C812 C81 0.906 . S
C826 C112 0.898 . S
C830 C123 0.910 . S
C844 C154 0.910 . S
C848 C143 0.897 . S
C862 C174 0.918 . S
C866 C185 0.927 . S
C880 C216 0.912 . S
C884 C205 0.901 . S
C898 C247 0.929 . S
C902 C236 0.922 . S
C916 C278 0.920 . S
C920 C267 0.912 . S
