# Generated by pormake.
# Topology vbm, (6)-cn, num edge types: 1
# Building blocks:
#     Node 0, Type 0, BuildingBlock: FUNLAD_clean_sbu_0, # of connection points: 6
#     Node 1, Type 0, BuildingBlock: FUNLAD_clean_sbu_0, # of connection points: 6
#     Node 2, Type 0, BuildingBlock: FUNLAD_clean_sbu_0, # of connection points: 6
#     Node 3, Type 0, BuildingBlock: FUNLAD_clean_sbu_0, # of connection points: 6
#     Node 4, Type 0, BuildingBlock: FUNLAD_clean_sbu_0, # of connection points: 6
#     Node 5, Type 0, BuildingBlock: FUNLAD_clean_sbu_0, # of connection points: 6
#     Node 6, Type 0, BuildingBlock: FUNLAD_clean_sbu_0, # of connection points: 6
#     Node 7, Type 0, BuildingBlock: FUNLAD_clean_sbu_0, # of connection points: 6
#     Node 8, Type 0, BuildingBlock: FUNLAD_clean_sbu_0, # of connection points: 6
#     Node 9, Type 0, BuildingBlock: FUNLAD_clean_sbu_0, # of connection points: 6
#     Node 10, Type 0, BuildingBlock: FUNLAD_clean_sbu_0, # of connection points: 6
#     Node 11, Type 0, BuildingBlock: FUNLAD_clean_sbu_0, # of connection points: 6
#     Node 12, Type 0, BuildingBlock: FUNLAD_clean_sbu_0, # of connection points: 6
#     Node 13, Type 0, BuildingBlock: FUNLAD_clean_sbu_0, # of connection points: 6
#     Node 14, Type 0, BuildingBlock: FUNLAD_clean_sbu_0, # of connection points: 6
#     Node 15, Type 0, BuildingBlock: FUNLAD_clean_sbu_0, # of connection points: 6
#     Edge 16, Type (0, 0), BuildingBlock: UVAHIK_clean_linker_0, # of connection points: 2
#     Edge 17, Type (0, 0), BuildingBlock: UVAHIK_clean_linker_0, # of connection points: 2
#     Edge 18, Type (0, 0), BuildingBlock: UVAHIK_clean_linker_0, # of connection points: 2
#     Edge 19, Type (0, 0), BuildingBlock: UVAHIK_clean_linker_0, # of connection points: 2
#     Edge 20, Type (0, 0), BuildingBlock: UVAHIK_clean_linker_0, # of connection points: 2
#     Edge 21, Type (0, 0), BuildingBlock: UVAHIK_clean_linker_0, # of connection points: 2
#     Edge 22, Type (0, 0), BuildingBlock: UVAHIK_clean_linker_0, # of connection points: 2
#     Edge 23, Type (0, 0), BuildingBlock: UVAHIK_clean_linker_0, # of connection points: 2
#     Edge 24, Type (0, 0), BuildingBlock: UVAHIK_clean_linker_0, # of connection points: 2
#     Edge 25, Type (0, 0), BuildingBlock: UVAHIK_clean_linker_0, # of connection points: 2
#     Edge 26, Type (0, 0), BuildingBlock: UVAHIK_clean_linker_0, # of connection points: 2
#     Edge 27, Type (0, 0), BuildingBlock: UVAHIK_clean_linker_0, # of connection points: 2
#     Edge 28, Type (0, 0), BuildingBlock: UVAHIK_clean_linker_0, # of connection points: 2
#     Edge 29, Type (0, 0), BuildingBlock: UVAHIK_clean_linker_0, # of connection points: 2
#     Edge 30, Type (0, 0), BuildingBlock: UVAHIK_clean_linker_0, # of connection points: 2
#     Edge 31, Type (0, 0), BuildingBlock: UVAHIK_clean_linker_0, # of connection points: 2
#     Edge 32, Type (0, 0), BuildingBlock: UVAHIK_clean_linker_0, # of connection points: 2
#     Edge 33, Type (0, 0), BuildingBlock: UVAHIK_clean_linker_0, # of connection points: 2
#     Edge 34, Type (0, 0), BuildingBlock: UVAHIK_clean_linker_0, # of connection points: 2
#     Edge 35, Type (0, 0), BuildingBlock: UVAHIK_clean_linker_0, # of connection points: 2
#     Edge 36, Type (0, 0), BuildingBlock: UVAHIK_clean_linker_0, # of connection points: 2
#     Edge 37, Type (0, 0), BuildingBlock: UVAHIK_clean_linker_0, # of connection points: 2
#     Edge 38, Type (0, 0), BuildingBlock: UVAHIK_clean_linker_0, # of connection points: 2
#     Edge 39, Type (0, 0), BuildingBlock: UVAHIK_clean_linker_0, # of connection points: 2
#     Edge 40, Type (0, 0), BuildingBlock: UVAHIK_clean_linker_0, # of connection points: 2
#     Edge 41, Type (0, 0), BuildingBlock: UVAHIK_clean_linker_0, # of connection points: 2
#     Edge 42, Type (0, 0), BuildingBlock: UVAHIK_clean_linker_0, # of connection points: 2
#     Edge 43, Type (0, 0), BuildingBlock: UVAHIK_clean_linker_0, # of connection points: 2
#     Edge 44, Type (0, 0), BuildingBlock: UVAHIK_clean_linker_0, # of connection points: 2
#     Edge 45, Type (0, 0), BuildingBlock: UVAHIK_clean_linker_0, # of connection points: 2
#     Edge 46, Type (0, 0), BuildingBlock: UVAHIK_clean_linker_0, # of connection points: 2
#     Edge 47, Type (0, 0), BuildingBlock: UVAHIK_clean_linker_0, # of connection points: 2
#     Edge 48, Type (0, 0), BuildingBlock: UVAHIK_clean_linker_0, # of connection points: 2
#     Edge 49, Type (0, 0), BuildingBlock: UVAHIK_clean_linker_0, # of connection points: 2
#     Edge 50, Type (0, 0), BuildingBlock: UVAHIK_clean_linker_0, # of connection points: 2
#     Edge 51, Type (0, 0), BuildingBlock: UVAHIK_clean_linker_0, # of connection points: 2
#     Edge 52, Type (0, 0), BuildingBlock: UVAHIK_clean_linker_0, # of connection points: 2
#     Edge 53, Type (0, 0), BuildingBlock: UVAHIK_clean_linker_0, # of connection points: 2
#     Edge 54, Type (0, 0), BuildingBlock: UVAHIK_clean_linker_0, # of connection points: 2
#     Edge 55, Type (0, 0), BuildingBlock: UVAHIK_clean_linker_0, # of connection points: 2
#     Edge 56, Type (0, 0), BuildingBlock: UVAHIK_clean_linker_0, # of connection points: 2
#     Edge 57, Type (0, 0), BuildingBlock: UVAHIK_clean_linker_0, # of connection points: 2
#     Edge 58, Type (0, 0), BuildingBlock: UVAHIK_clean_linker_0, # of connection points: 2
#     Edge 59, Type (0, 0), BuildingBlock: UVAHIK_clean_linker_0, # of connection points: 2
#     Edge 60, Type (0, 0), BuildingBlock: UVAHIK_clean_linker_0, # of connection points: 2
#     Edge 61, Type (0, 0), BuildingBlock: UVAHIK_clean_linker_0, # of connection points: 2
#     Edge 62, Type (0, 0), BuildingBlock: UVAHIK_clean_linker_0, # of connection points: 2
#     Edge 63, Type (0, 0), BuildingBlock: UVAHIK_clean_linker_0, # of connection points: 2
# Relax obj value: 0.036
# Max RMSD: 0.082
# Mean RMSD: 0.082
data_MOF--net-vbm--node1-FUNLAD_clean_sbu_0--edge1-UVAHIK_clean_linker_0
_symmetry_space_group_name_H-M    P1
_symmetry_Int_Tables_number       1
_symmetry_cell_setting            triclinic
loop_
_symmetry_equiv_pos_as_xyz
'x, y, z'
_cell_length_a     75.361748
_cell_length_b     19.287296
_cell_length_c     105.2029
_cell_angle_alpha  89.977403
_cell_angle_beta   90.018171
_cell_angle_gamma 90.072046
loop_
_atom_site_label
_atom_site_type_symbol
_atom_site_fract_x
_atom_site_fract_y
_atom_site_fract_z
_atom_type_partial_charge
C0 C 0.11919 0.15751 0.13219 0.0
N1 N 0.12812 0.02414 0.10163 0.0
C2 C 0.11443 0.05499 0.09538 0.0
C3 C 0.11409 0.05654 0.08211 0.0
C4 C 0.12796 0.02602 0.07517 0.0
C5 C 0.14195 -0.00525 0.08189 0.0
C6 C 0.14177 -0.0056 0.09516 0.0
Zn7 Zn 0.12817 0.0218 0.12109 0.0
C8 C 0.16338 0.05908 0.13183 0.0
N9 N 0.12825 0.01744 0.16179 0.0
C10 C 0.11535 0.05124 0.16838 0.0
C11 C 0.14104 0.98049 0.16791 0.0
C12 C 0.14103 0.97563 0.18115 0.0
C13 C 0.12787 0.00992 0.18818 0.0
C14 C 0.11499 0.04855 0.18166 0.0
Zn15 Zn 0.12823 0.02038 0.14231 0.0
O16 O 0.12115 0.12618 0.12168 0.0
C17 C 0.09278 -0.01321 0.13161 0.0
O18 O 0.12147 0.12506 0.14256 0.0
H19 H 0.15125 0.95439 0.16251 0.0
H20 H 0.1037 0.07821 0.1007 0.0
H21 H 0.10523 0.07994 0.16335 0.0
O22 O 0.1011 -0.00577 0.1212 0.0
O23 O 0.10105 -0.00614 0.14206 0.0
H24 H 0.15255 0.97031 0.10031 0.0
O25 O 0.13497 0.9157 0.14166 0.0
O26 O 0.13517 0.91735 0.1208 0.0
O27 O 0.1553 0.0484 0.14225 0.0
O28 O 0.15517 0.05072 0.12138 0.0
C29 C 0.13717 0.88461 0.13116 0.0
H30 H 0.10293 0.08046 0.07734 0.0
H31 H 0.15304 0.97143 0.07695 0.0
H32 H 0.1513 0.9459 0.18586 0.0
H33 H 0.10455 0.07526 0.18675 0.0
C34 C 0.87625 0.80834 0.13188 0.0
N35 N 0.86739 0.94202 0.10132 0.0
C36 C 0.8811 0.91126 0.09509 0.0
C37 C 0.8815 0.91007 0.08181 0.0
C38 C 0.86766 0.94086 0.07486 0.0
C39 C 0.85365 0.97199 0.08156 0.0
C40 C 0.85378 0.97198 0.09484 0.0
Zn41 Zn 0.86726 0.94405 0.12078 0.0
C42 C 0.83201 0.90659 0.13141 0.0
N43 N 0.867 0.94807 0.16145 0.0
C44 C 0.88018 0.91617 0.16807 0.0
C45 C 0.85382 0.98293 0.16754 0.0
C46 C 0.85366 -0.01269 0.18078 0.0
C47 C 0.86712 0.95507 0.1879 0.0
C48 C 0.88046 0.91881 0.18134 0.0
Zn49 Zn 0.86712 0.9454 0.14199 0.0
O50 O 0.87427 0.83965 0.12136 0.0
C51 C 0.9026 0.97922 0.1314 0.0
O52 O 0.87397 0.8408 0.14224 0.0
H53 H 0.84347 0.008 0.1621 0.0
H54 H 0.89181 0.88786 0.10042 0.0
H55 H 0.89053 0.88872 0.16305 0.0
O56 O 0.89436 0.97156 0.12096 0.0
O57 O 0.89426 0.97229 0.14182 0.0
H58 H 0.84299 -0.004 0.09997 0.0
O59 O 0.86029 0.05 0.14137 0.0
O60 O 0.86028 0.04855 0.1205 0.0
O61 O 0.84008 0.91708 0.14184 0.0
O62 O 0.84024 0.91516 0.12098 0.0
C63 C 0.85818 0.08119 0.13086 0.0
H64 H 0.89267 0.88623 0.07705 0.0
H65 H 0.84259 -0.00449 0.07661 0.0
H66 H 0.84325 0.01674 0.18537 0.0
H67 H 0.89097 0.89225 0.1864 0.0
C68 C 0.11919 0.80942 0.38092 0.0
N69 N 0.12814 0.94301 0.41147 0.0
C70 C 0.11445 0.91219 0.41775 0.0
C71 C 0.1141 0.91104 0.43102 0.0
C72 C 0.12797 0.94193 0.43794 0.0
C73 C 0.14197 0.97308 0.4312 0.0
C74 C 0.14178 0.97303 0.41792 0.0
Zn75 Zn 0.12817 0.94519 0.39201 0.0
C76 C 0.1634 0.9083 0.38129 0.0
N77 N 0.12827 0.9496 0.35132 0.0
C78 C 0.11538 0.91575 0.34469 0.0
C79 C 0.14107 -0.01324 0.34523 0.0
C80 C 0.14106 -0.00815 0.33199 0.0
C81 C 0.12791 0.95759 0.32493 0.0
C82 C 0.11503 0.91866 0.33142 0.0
Zn83 Zn 0.12823 0.94665 0.37079 0.0
O84 O 0.12116 0.84075 0.39143 0.0
C85 C 0.09277 0.97989 0.38146 0.0
O86 O 0.12147 0.8419 0.37055 0.0
H87 H 0.15127 0.01289 0.35064 0.0
H88 H 0.10371 0.88875 0.41245 0.0
H89 H 0.10526 0.88687 0.3497 0.0
O90 O 0.10108 0.97249 0.39189 0.0
O91 O 0.10106 0.97291 0.37102 0.0
H92 H 0.15256 -0.00291 0.41276 0.0
O93 O 0.13497 0.0514 0.37144 0.0
O94 O 0.13516 0.04973 0.3923 0.0
O95 O 0.1553 0.91893 0.37087 0.0
O96 O 0.1552 0.91653 0.39173 0.0
C97 C 0.13717 0.0825 0.38194 0.0
H98 H 0.10293 0.88718 0.43581 0.0
H99 H 0.15306 -0.00334 0.43612 0.0
H100 H 0.15133 0.0218 0.32731 0.0
H101 H 0.10459 0.89195 0.3263 0.0
C102 C 0.87627 0.16273 0.3809 0.0
N103 N 0.86736 0.0282 0.41131 0.0
C104 C 0.88108 0.05893 0.41756 0.0
C105 C 0.88147 0.06012 0.43083 0.0
C106 C 0.86761 0.02936 0.43777 0.0
C107 C 0.85359 -0.00182 0.43106 0.0
C108 C 0.85373 -0.00181 0.41778 0.0
Zn109 Zn 0.86722 0.02658 0.39186 0.0
C110 C 0.83198 0.06438 0.38126 0.0
N111 N 0.86692 0.02372 0.35118 0.0
C112 C 0.88011 0.05562 0.34456 0.0
C113 C 0.85372 -0.01116 0.3451 0.0
C114 C 0.85355 0.98433 0.33186 0.0
C115 C 0.86704 0.01648 0.32474 0.0
C116 C 0.88039 0.05285 0.33129 0.0
Zn117 Zn 0.86708 0.02603 0.37065 0.0
O118 O 0.87429 0.13096 0.39137 0.0
C119 C 0.90255 -0.00814 0.38122 0.0
O120 O 0.87396 0.13072 0.37049 0.0
H121 H 0.84336 0.96377 0.35054 0.0
H122 H 0.89181 0.08238 0.41224 0.0
H123 H 0.89049 0.08309 0.34957 0.0
O124 O 0.89429 -0.00093 0.39166 0.0
O125 O 0.89422 -0.00076 0.3708 0.0
H126 H 0.84292 0.97419 0.41264 0.0
O127 O 0.86021 0.92134 0.37118 0.0
O128 O 0.86018 0.92208 0.39204 0.0
O129 O 0.84004 0.05424 0.37082 0.0
O130 O 0.8402 0.05548 0.39168 0.0
C131 C 0.85808 0.88977 0.38165 0.0
H132 H 0.89265 0.08399 0.4356 0.0
H133 H 0.84251 0.97467 0.436 0.0
H134 H 0.84313 0.95481 0.32728 0.0
H135 H 0.89091 0.07935 0.32622 0.0
C136 C 0.85829 0.08284 0.88151 0.0
N137 N 0.86698 0.94897 0.85102 0.0
C138 C 0.8541 0.98553 0.84493 0.0
C139 C 0.854 -0.00981 0.83169 0.0
C140 C 0.86716 0.95617 0.82456 0.0
C141 C 0.88014 0.91792 0.83112 0.0
C142 C 0.87986 0.91535 0.8444 0.0
Zn143 Zn 0.86715 0.94663 0.8705 0.0
C144 C 0.90267 0.98058 0.88103 0.0
N145 N 0.86751 0.94435 0.91117 0.0
C146 C 0.85391 0.97425 0.91766 0.0
C147 C 0.88123 0.91361 0.9174 0.0
C148 C 0.88164 0.91229 0.93068 0.0
C149 C 0.86779 0.94291 0.93763 0.0
C150 C 0.85378 0.97412 0.93093 0.0
Zn151 Zn 0.86733 0.94605 0.89171 0.0
O152 O 0.86043 0.05136 0.87104 0.0
C153 C 0.83204 0.90849 0.88114 0.0
O154 O 0.86035 0.05048 0.89191 0.0
H155 H 0.89194 0.89026 0.91207 0.0
H156 H 0.84396 0.01186 0.85036 0.0
H157 H 0.8431 -0.00176 0.91252 0.0
O158 O 0.84007 0.91875 0.87069 0.0
O159 O 0.84031 0.91714 0.89155 0.0
H160 H 0.88999 0.88661 0.84941 0.0
O161 O 0.87436 0.84173 0.89123 0.0
O162 O 0.87389 0.8419 0.87035 0.0
O163 O 0.89441 0.97358 0.89148 0.0
O164 O 0.89433 0.97308 0.87062 0.0
C165 C 0.87626 0.80994 0.88076 0.0
H166 H 0.84388 0.02125 0.82713 0.0
H167 H 0.89038 0.88983 0.82608 0.0
H168 H 0.89282 0.8884 0.93543 0.0
H169 H 0.84272 -0.00247 0.93589 0.0
C170 C 0.13727 0.88778 0.88193 0.0
N171 N 0.12838 0.02077 0.85131 0.0
C172 C 0.14119 0.98387 0.8452 0.0
C173 C 0.14118 0.97897 0.83196 0.0
C174 C 0.12801 0.01316 0.82492 0.0
C175 C 0.11512 0.05179 0.83143 0.0
C176 C 0.11548 0.05452 0.8447 0.0
Zn177 Zn 0.12833 0.02359 0.87078 0.0
C178 C 0.09286 -0.01013 0.88142 0.0
N179 N 0.12816 0.02705 0.91146 0.0
C180 C 0.14181 -0.0028 0.91792 0.0
C181 C 0.11446 0.05773 0.91772 0.0
C182 C 0.11411 0.05895 0.93099 0.0
C183 C 0.12798 0.02826 0.93792 0.0
C184 C 0.14198 -0.00278 0.9312 0.0
Zn185 Zn 0.12823 0.02493 0.892 0.0
O186 O 0.13509 0.91891 0.87142 0.0
C187 C 0.16346 0.06233 0.88131 0.0
O188 O 0.13523 0.92047 0.89228 0.0
H189 H 0.10373 0.08104 0.91241 0.0
H190 H 0.1514 0.95781 0.85061 0.0
H191 H 0.15259 0.97323 0.91277 0.0
O192 O 0.15539 0.05166 0.87088 0.0
O193 O 0.15524 0.05391 0.89174 0.0
H194 H 0.10535 0.08319 0.84972 0.0
O195 O 0.1212 0.1293 0.89142 0.0
O196 O 0.12155 0.12826 0.87054 0.0
O197 O 0.10114 -0.00266 0.89186 0.0
O198 O 0.10117 -0.00302 0.87099 0.0
C199 C 0.11925 0.16067 0.8809 0.0
H200 H 0.15145 0.94925 0.82727 0.0
H201 H 0.10467 0.07842 0.82632 0.0
H202 H 0.10294 0.08272 0.93577 0.0
H203 H 0.15307 0.97378 0.93613 0.0
C204 C 0.85826 0.88986 0.63111 0.0
N205 N 0.86707 0.02366 0.6616 0.0
C206 C 0.85421 -0.01322 0.66768 0.0
C207 C 0.8542 0.98168 0.68092 0.0
C208 C 0.8674 0.01563 0.68799 0.0
C209 C 0.88033 0.05437 0.6815 0.0
C210 C 0.87999 0.05732 0.66823 0.0
Zn211 Zn 0.86718 0.02614 0.64213 0.0
C212 C 0.90266 -0.00766 0.63155 0.0
N213 N 0.86742 0.02847 0.60146 0.0
C214 C 0.85379 -0.00153 0.59499 0.0
C215 C 0.88114 0.05921 0.5952 0.0
C216 C 0.88152 0.0604 0.58193 0.0
C217 C 0.86765 0.02964 0.575 0.0
C218 C 0.85363 -0.00154 0.58172 0.0
Zn219 Zn 0.86731 0.02674 0.62091 0.0
O220 O 0.86043 0.92135 0.64157 0.0
C221 C 0.83206 0.06415 0.63152 0.0
O222 O 0.8603 0.92226 0.62071 0.0
H223 H 0.89187 0.08264 0.60052 0.0
H224 H 0.84399 0.9608 0.66226 0.0
H225 H 0.84299 0.97447 0.60014 0.0
O226 O 0.84011 0.05391 0.64197 0.0
O227 O 0.8403 0.05552 0.62111 0.0
H228 H 0.89015 0.08599 0.66322 0.0
O229 O 0.87437 0.13111 0.6214 0.0
O230 O 0.87396 0.13092 0.64228 0.0
O231 O 0.89438 -0.00068 0.6211 0.0
O232 O 0.89436 -0.00018 0.64197 0.0
C233 C 0.8763 0.1629 0.63187 0.0
H234 H 0.8439 0.95191 0.68559 0.0
H235 H 0.8908 0.08084 0.68662 0.0
H236 H 0.89269 0.08427 0.57716 0.0
H237 H 0.84255 0.97496 0.57678 0.0
C238 C 0.13727 0.08525 0.63129 0.0
N239 N 0.12845 0.95152 0.66182 0.0
C240 C 0.14126 -0.01138 0.66791 0.0
C241 C 0.14126 -0.00632 0.68115 0.0
C242 C 0.1281 0.95943 0.68821 0.0
C243 C 0.11522 0.92049 0.68172 0.0
C244 C 0.11557 0.91761 0.66844 0.0
Zn245 Zn 0.12836 0.94898 0.64234 0.0
C246 C 0.09288 0.98261 0.63173 0.0
N247 N 0.12816 0.94649 0.60166 0.0
C248 C 0.14179 0.97644 0.59519 0.0
C249 C 0.11445 0.91563 0.59541 0.0
C250 C 0.11409 0.91422 0.58214 0.0
C251 C 0.12796 0.9449 0.5752 0.0
C252 C 0.14196 0.97624 0.58191 0.0
Zn253 Zn 0.12826 0.94833 0.62112 0.0
O254 O 0.13509 0.05377 0.64177 0.0
C255 C 0.1635 0.91106 0.6318 0.0
O256 O 0.13525 0.05284 0.6209 0.0
H257 H 0.10372 0.89224 0.60073 0.0
H258 H 0.15145 0.01479 0.66249 0.0
H259 H 0.15259 0.00054 0.60033 0.0
O260 O 0.15542 0.92134 0.64223 0.0
O261 O 0.15529 0.91961 0.62136 0.0
H262 H 0.10544 0.88877 0.66343 0.0
O263 O 0.12122 0.84397 0.62163 0.0
O264 O 0.1216 0.84418 0.64251 0.0
O265 O 0.10116 0.97565 0.62129 0.0
O266 O 0.10119 0.97521 0.64216 0.0
C267 C 0.11928 0.81219 0.63211 0.0
H268 H 0.15152 0.02363 0.68583 0.0
H269 H 0.10478 0.89379 0.68683 0.0
H270 H 0.10292 0.89025 0.57737 0.0
H271 H 0.15305 -0.00031 0.57696 0.0
C272 C 0.61886 0.66165 0.13195 0.0
N273 N 0.6278 0.52752 0.10153 0.0
C274 C 0.6141 0.55827 0.09527 0.0
C275 C 0.61375 0.55964 0.082 0.0
C276 C 0.62763 0.52905 0.07507 0.0
C277 C 0.64162 0.49786 0.0818 0.0
C278 C 0.64144 0.49769 0.09507 0.0
Zn279 Zn 0.62786 0.5256 0.12099 0.0
C280 C 0.66308 0.56311 0.13169 0.0
N281 N 0.62795 0.52231 0.16168 0.0
C282 C 0.61505 0.55604 0.16828 0.0
C283 C 0.64076 0.48536 0.16779 0.0
C284 C 0.64073 0.48028 0.18103 0.0
C285 C 0.62755 0.51435 0.18806 0.0
C286 C 0.61468 0.55313 0.18155 0.0
Zn287 Zn 0.62791 0.52492 0.1422 0.0
O288 O 0.62082 0.62991 0.12149 0.0
C289 C 0.59246 0.49095 0.13154 0.0
O290 O 0.62117 0.62965 0.14237 0.0
H291 H 0.65097 0.45932 0.16238 0.0
H292 H 0.60337 0.58157 0.10058 0.0
H293 H 0.60493 0.58476 0.16325 0.0
O294 O 0.60078 0.49799 0.12112 0.0
O295 O 0.60073 0.49846 0.14198 0.0
H296 H 0.65223 0.47368 0.10023 0.0
O297 O 0.63463 0.42019 0.14164 0.0
O298 O 0.63485 0.42118 0.12078 0.0
O299 O 0.65498 0.55277 0.14212 0.0
O300 O 0.65488 0.55455 0.12125 0.0
C301 C 0.63684 0.38876 0.13117 0.0
H302 H 0.60259 0.58351 0.07722 0.0
H303 H 0.65271 0.47448 0.07686 0.0
H304 H 0.65099 0.45047 0.18572 0.0
H305 H 0.60422 0.5797 0.18665 0.0
C306 C 0.37583 0.30876 0.13212 0.0
N307 N 0.36687 0.44222 0.10154 0.0
C308 C 0.38055 0.41149 0.09526 0.0
C309 C 0.38089 0.4103 0.08199 0.0
C310 C 0.36701 0.44106 0.07507 0.0
C311 C 0.35303 0.47211 0.08181 0.0
C312 C 0.35322 0.47211 0.09509 0.0
Zn313 Zn 0.36685 0.44444 0.121 0.0
C314 C 0.33164 0.40733 0.13176 0.0
N315 N 0.3668 0.44888 0.1617 0.0
C316 C 0.37969 0.41512 0.16832 0.0
C317 C 0.35401 0.48589 0.1678 0.0
C318 C 0.35402 0.49091 0.18103 0.0
C319 C 0.36718 0.45672 0.18809 0.0
C320 C 0.38005 0.41797 0.18159 0.0
Zn321 Zn 0.36682 0.44592 0.14222 0.0
O322 O 0.37385 0.34007 0.1216 0.0
C323 C 0.40226 0.4794 0.13153 0.0
O324 O 0.37356 0.34122 0.14248 0.0
H325 H 0.3438 0.51195 0.16238 0.0
H326 H 0.39129 0.38814 0.10057 0.0
H327 H 0.38981 0.38635 0.1633 0.0
O328 O 0.39396 0.47191 0.12111 0.0
O329 O 0.39397 0.4724 0.14197 0.0
H330 H 0.34245 0.4961 0.10025 0.0
O331 O 0.36008 0.55059 0.14156 0.0
O332 O 0.35988 0.54893 0.1207 0.0
O333 O 0.33976 0.41801 0.14217 0.0
O334 O 0.33982 0.41559 0.1213 0.0
C335 C 0.35788 0.58168 0.13106 0.0
H336 H 0.39204 0.38651 0.0772 0.0
H337 H 0.34193 0.4956 0.07689 0.0
H338 H 0.34376 0.52072 0.18572 0.0
H339 H 0.3905 0.39132 0.1867 0.0
C340 C 0.61888 0.30803 0.3808 0.0
N341 N 0.62779 0.44223 0.41124 0.0
C342 C 0.61409 0.41141 0.4175 0.0
C343 C 0.61373 0.41015 0.43077 0.0
C344 C 0.6276 0.44094 0.4377 0.0
C345 C 0.6416 0.47218 0.43098 0.0
C346 C 0.64143 0.47222 0.4177 0.0
Zn347 Zn 0.62787 0.44414 0.39178 0.0
C348 C 0.66311 0.40696 0.38112 0.0
N349 N 0.62803 0.44758 0.35109 0.0
C350 C 0.61514 0.41386 0.34445 0.0
C351 C 0.64084 0.48476 0.34502 0.0
C352 C 0.64083 0.49014 0.33179 0.0
C353 C 0.62765 0.45615 0.32471 0.0
C354 C 0.61478 0.41706 0.33118 0.0
Zn355 Zn 0.62795 0.44486 0.37057 0.0
O356 O 0.62083 0.33977 0.39127 0.0
C357 C 0.59248 0.47844 0.38119 0.0
O358 O 0.6212 0.34006 0.37039 0.0
H359 H 0.65105 0.51078 0.35046 0.0
H360 H 0.60336 0.38798 0.41219 0.0
H361 H 0.60501 0.38495 0.34945 0.0
O362 O 0.60079 0.47147 0.39162 0.0
O363 O 0.60077 0.47104 0.37076 0.0
H364 H 0.65222 0.49629 0.41255 0.0
O365 O 0.63467 0.54966 0.37115 0.0
O366 O 0.63486 0.54864 0.39201 0.0
O367 O 0.65502 0.41726 0.37068 0.0
O368 O 0.6549 0.41544 0.39155 0.0
C369 C 0.63686 0.58109 0.38162 0.0
H370 H 0.60256 0.38624 0.43555 0.0
H371 H 0.65268 0.4957 0.43592 0.0
H372 H 0.65109 0.52018 0.32713 0.0
H373 H 0.60432 0.39054 0.32605 0.0
C374 C 0.3759 0.66004 0.38086 0.0
N375 N 0.36709 0.52575 0.41132 0.0
C376 C 0.38082 0.55654 0.41756 0.0
C377 C 0.38121 0.55795 0.43083 0.0
C378 C 0.36734 0.52736 0.43778 0.0
C379 C 0.35332 0.49609 0.43109 0.0
C380 C 0.35346 0.49588 0.41781 0.0
Zn381 Zn 0.36693 0.5239 0.39186 0.0
C382 C 0.33165 0.56142 0.38125 0.0
N383 N 0.36659 0.52068 0.35116 0.0
C384 C 0.37947 0.55445 0.34452 0.0
C385 C 0.35375 0.4836 0.34509 0.0
C386 C 0.35374 0.47839 0.33186 0.0
C387 C 0.3669 0.51246 0.32478 0.0
C388 C 0.3798 0.55142 0.33125 0.0
Zn389 Zn 0.36674 0.52327 0.37064 0.0
O390 O 0.374 0.62825 0.39133 0.0
C391 C 0.40225 0.48942 0.38119 0.0
O392 O 0.37353 0.62804 0.37046 0.0
H393 H 0.34356 0.45754 0.35053 0.0
H394 H 0.39154 0.57987 0.41222 0.0
H395 H 0.38962 0.58327 0.34952 0.0
O396 O 0.39401 0.49644 0.39165 0.0
O397 O 0.39391 0.49687 0.37078 0.0
H398 H 0.34264 0.47184 0.41268 0.0
O399 O 0.35997 0.4185 0.37123 0.0
O400 O 0.35991 0.41941 0.3921 0.0
O401 O 0.33969 0.5511 0.3708 0.0
O402 O 0.33991 0.55277 0.39167 0.0
C403 C 0.35783 0.38702 0.38171 0.0
H404 H 0.39239 0.58188 0.43558 0.0
H405 H 0.34223 0.47271 0.43604 0.0
H406 H 0.34345 0.44844 0.3272 0.0
H407 H 0.39024 0.57799 0.32611 0.0
C408 C 0.35792 0.58523 0.88168 0.0
N409 N 0.36685 0.45166 0.85117 0.0
C410 C 0.35407 0.48862 0.84504 0.0
C411 C 0.3541 0.49353 0.8318 0.0
C412 C 0.36726 0.45928 0.82477 0.0
C413 C 0.38013 0.42055 0.8313 0.0
C414 C 0.37975 0.41782 0.84458 0.0
Zn415 Zn 0.36687 0.44909 0.87065 0.0
C416 C 0.40231 0.48306 0.88133 0.0
N417 N 0.36695 0.44642 0.91134 0.0
C418 C 0.3533 0.47617 0.9178 0.0
C419 C 0.38064 0.41564 0.9176 0.0
C420 C 0.38097 0.41411 0.93087 0.0
C421 C 0.36708 0.44457 0.9378 0.0
C422 C 0.3531 0.47584 0.93108 0.0
Zn423 Zn 0.36691 0.44838 0.89187 0.0
O424 O 0.36014 0.55381 0.87121 0.0
C425 C 0.3317 0.41078 0.88114 0.0
O426 O 0.35991 0.5528 0.89208 0.0
H427 H 0.39138 0.3924 0.91229 0.0
H428 H 0.34386 0.51476 0.85043 0.0
H429 H 0.34252 0.50021 0.91265 0.0
O430 O 0.33981 0.42119 0.87072 0.0
O431 O 0.33988 0.41937 0.89159 0.0
H432 H 0.38986 0.38911 0.84962 0.0
O433 O 0.37395 0.34408 0.89137 0.0
O434 O 0.37362 0.34435 0.87049 0.0
O435 O 0.39399 0.476 0.89175 0.0
O436 O 0.39404 0.47557 0.87089 0.0
C437 C 0.37592 0.31235 0.88091 0.0
H438 H 0.34384 0.52332 0.82709 0.0
H439 H 0.39058 0.39386 0.82621 0.0
H440 H 0.39213 0.3902 0.93565 0.0
H441 H 0.342 0.49913 0.93601 0.0
C442 C 0.63694 0.3905 0.8817 0.0
N443 N 0.62805 0.52443 0.85124 0.0
C444 C 0.64123 0.48967 0.84514 0.0
C445 C 0.64138 0.48537 0.83189 0.0
C446 C 0.6279 0.51761 0.82479 0.0
C447 C 0.61456 0.55379 0.83136 0.0
C448 C 0.61486 0.55636 0.84463 0.0
Zn449 Zn 0.62795 0.52666 0.87071 0.0
C450 C 0.5925 0.49238 0.8813 0.0
N451 N 0.62777 0.52885 0.91138 0.0
C452 C 0.6414 0.49889 0.91784 0.0
C453 C 0.61407 0.55951 0.91764 0.0
C454 C 0.61371 0.56067 0.93091 0.0
C455 C 0.62758 0.52996 0.93783 0.0
C456 C 0.64157 0.49885 0.93111 0.0
Zn457 Zn 0.62787 0.52726 0.89192 0.0
O458 O 0.63479 0.42203 0.87123 0.0
C459 C 0.66309 0.56515 0.88128 0.0
O460 O 0.63487 0.4228 0.89209 0.0
H461 H 0.60335 0.58292 0.91233 0.0
H462 H 0.65159 0.46458 0.85056 0.0
H463 H 0.65219 0.47496 0.91268 0.0
O464 O 0.65498 0.55496 0.87085 0.0
O465 O 0.6549 0.55628 0.89172 0.0
H466 H 0.6045 0.58372 0.84966 0.0
O467 O 0.62083 0.63158 0.89144 0.0
O468 O 0.6211 0.63131 0.87056 0.0
O469 O 0.60078 0.49964 0.89174 0.0
O470 O 0.60081 0.49976 0.87088 0.0
C471 C 0.61882 0.66331 0.88097 0.0
H472 H 0.65179 0.45599 0.8273 0.0
H473 H 0.60405 0.58034 0.82632 0.0
H474 H 0.60255 0.58448 0.93569 0.0
H475 H 0.65266 0.47538 0.93604 0.0
C476 C 0.35793 0.38987 0.63102 0.0
N477 N 0.36685 0.52267 0.66167 0.0
C478 C 0.35403 0.48551 0.66774 0.0
C479 C 0.35404 0.48023 0.68098 0.0
C480 C 0.36721 0.5143 0.68805 0.0
C481 C 0.3801 0.55327 0.68158 0.0
C482 C 0.37975 0.55637 0.66831 0.0
Zn483 Zn 0.36691 0.52572 0.64219 0.0
C484 C 0.40236 0.49225 0.63152 0.0
N485 N 0.36704 0.52939 0.6015 0.0
C486 C 0.35339 0.49947 0.59505 0.0
C487 C 0.38075 0.56015 0.59524 0.0
C488 C 0.38111 0.56132 0.58197 0.0
C489 C 0.36724 0.53052 0.57504 0.0
C490 C 0.35322 0.49944 0.58177 0.0
Zn491 Zn 0.36698 0.52715 0.62097 0.0
O492 O 0.36014 0.42098 0.64153 0.0
C493 C 0.33177 0.56428 0.63167 0.0
O494 O 0.35995 0.42264 0.62067 0.0
H495 H 0.39149 0.58352 0.60055 0.0
H496 H 0.34382 0.4595 0.66231 0.0
H497 H 0.34259 0.47545 0.6002 0.0
O498 O 0.33984 0.55361 0.6421 0.0
O499 O 0.33998 0.55596 0.62123 0.0
H500 H 0.38988 0.58526 0.66331 0.0
O501 O 0.37403 0.63157 0.62156 0.0
O502 O 0.3737 0.63044 0.64244 0.0
O503 O 0.39405 0.4997 0.6211 0.0
O504 O 0.39408 0.49931 0.64196 0.0
C505 C 0.37599 0.66291 0.63208 0.0
H506 H 0.34376 0.45026 0.68564 0.0
H507 H 0.39055 0.57984 0.68671 0.0
H508 H 0.39229 0.58513 0.57719 0.0
H509 H 0.34213 0.47592 0.57684 0.0
C510 C 0.63702 0.58091 0.63107 0.0
N511 N 0.62818 0.44701 0.66153 0.0
C512 C 0.64137 0.48195 0.66762 0.0
C513 C 0.64152 0.4865 0.68086 0.0
C514 C 0.62804 0.45434 0.68798 0.0
C515 C 0.61469 0.41791 0.68143 0.0
C516 C 0.61499 0.41509 0.66816 0.0
Zn517 Zn 0.62804 0.44467 0.64207 0.0
C518 C 0.59258 0.47872 0.63149 0.0
N519 N 0.6278 0.44243 0.6014 0.0
C520 C 0.64142 0.47248 0.59494 0.0
C521 C 0.61409 0.41165 0.59515 0.0
C522 C 0.61371 0.41045 0.58187 0.0
C523 C 0.62757 0.44125 0.57494 0.0
C524 C 0.64158 0.47248 0.58166 0.0
Zn525 Zn 0.62792 0.44407 0.62086 0.0
O526 O 0.63489 0.54936 0.64154 0.0
C527 C 0.66316 0.40644 0.63149 0.0
O528 O 0.63494 0.54859 0.62067 0.0
H529 H 0.60336 0.38818 0.60046 0.0
H530 H 0.65173 0.50703 0.66219 0.0
H531 H 0.65222 0.49651 0.60009 0.0
O532 O 0.65507 0.41657 0.64192 0.0
O533 O 0.65495 0.41525 0.62106 0.0
H534 H 0.60462 0.38758 0.66314 0.0
O535 O 0.62087 0.33969 0.62135 0.0
O536 O 0.62117 0.33996 0.64223 0.0
O537 O 0.60083 0.4715 0.62105 0.0
O538 O 0.6009 0.47138 0.64191 0.0
C539 C 0.61888 0.30794 0.63182 0.0
H540 H 0.65194 0.51607 0.68544 0.0
H541 H 0.60417 0.39141 0.68649 0.0
H542 H 0.60254 0.38654 0.5771 0.0
H543 H 0.65266 0.49602 0.57672 0.0
C544 C 0.19021 0.10268 0.12035 0.0
C545 C 0.18165 0.08689 0.13185 0.0
C546 C 0.20663 0.13619 0.12036 0.0
C547 C 0.24523 0.1789 0.14052 0.0
H548 H 0.25097 0.33184 0.1169 0.0
C549 C 0.30482 0.36473 0.14339 0.0
C550 C 0.31335 0.37975 0.13184 0.0
C551 C 0.28836 0.33152 0.14347 0.0
C552 C 0.24962 0.28893 0.12347 0.0
H553 H 0.1839 0.0915 0.15241 0.0
H554 H 0.21252 0.15032 0.15241 0.0
H555 H 0.22356 0.26453 0.11676 0.0
H556 H 0.311 0.37411 0.1113 0.0
H557 H 0.28231 0.31593 0.11146 0.0
H558 H 0.27129 0.20333 0.14723 0.0
C559 C 0.20659 0.13642 0.14338 0.0
C560 C 0.23395 0.25025 0.12337 0.0
C561 C 0.19016 0.1029 0.14338 0.0
C562 C 0.30477 0.36328 0.12036 0.0
C563 C 0.2883 0.33015 0.12045 0.0
C564 C 0.26089 0.21761 0.14062 0.0
C565 C 0.21483 0.15456 0.13187 0.0
C566 C 0.23161 0.19475 0.13188 0.0
C567 C 0.28007 0.3128 0.13201 0.0
C568 C 0.26325 0.27299 0.1321 0.0
H569 H 0.18405 0.09072 0.1113 0.0
H570 H 0.21283 0.1484 0.11134 0.0
H571 H 0.24388 0.13595 0.14708 0.0
H572 H 0.31105 0.37701 0.1524 0.0
H573 H 0.28218 0.31985 0.15252 0.0
C574 C 0.80518 0.86305 0.11991 0.0
C575 C 0.81373 0.87901 0.13142 0.0
C576 C 0.78869 0.83004 0.11993 0.0
C577 C 0.74993 0.78961 0.14008 0.0
H578 H 0.74382 0.63599 0.11668 0.0
C579 C 0.68997 0.60577 0.14325 0.0
C580 C 0.68139 0.59046 0.13172 0.0
C581 C 0.70649 0.63857 0.14327 0.0
C582 C 0.74528 0.67911 0.12319 0.0
H583 H 0.81139 0.87516 0.15197 0.0
H584 H 0.78266 0.81722 0.15198 0.0
H585 H 0.77139 0.70227 0.11646 0.0
H586 H 0.68371 0.59522 0.11117 0.0
H587 H 0.7125 0.65269 0.11123 0.0
H588 H 0.72382 0.76641 0.14681 0.0
C589 C 0.78866 0.8306 0.14295 0.0
C590 C 0.76103 0.7172 0.12304 0.0
C591 C 0.80515 0.8636 0.14294 0.0
C592 C 0.68997 0.60629 0.12021 0.0
C593 C 0.7065 0.63901 0.12024 0.0
C594 C 0.73418 0.7515 0.14023 0.0
C595 C 0.7804 0.81238 0.13145 0.0
C596 C 0.76352 0.7729 0.13147 0.0
C597 C 0.71478 0.65659 0.13177 0.0
C598 C 0.73169 0.69586 0.13179 0.0
H599 H 0.8114 0.87453 0.11087 0.0
H600 H 0.7825 0.81773 0.11091 0.0
H601 H 0.75138 0.83276 0.14658 0.0
H602 H 0.68374 0.594 0.15227 0.0
H603 H 0.7127 0.65045 0.1523 0.0
C604 C 0.30481 0.60483 0.36977 0.0
C605 C 0.31339 0.5891 0.38128 0.0
C606 C 0.28837 0.63814 0.36979 0.0
C607 C 0.26106 0.75188 0.3898 0.0
H608 H 0.22368 0.7042 0.36601 0.0
C609 C 0.19025 0.8646 0.39272 0.0
C610 C 0.18167 0.8808 0.38124 0.0
C611 C 0.20671 0.83153 0.39267 0.0
C612 C 0.23409 0.71869 0.3726 0.0
H613 H 0.31113 0.5933 0.40183 0.0
H614 H 0.28233 0.65062 0.40185 0.0
H615 H 0.25108 0.63707 0.36618 0.0
H616 H 0.18399 0.87761 0.36068 0.0
H617 H 0.21283 0.82056 0.36061 0.0
H618 H 0.24405 0.83343 0.39622 0.0
C619 C 0.28847 0.63833 0.39282 0.0
C620 C 0.24975 0.68013 0.37272 0.0
C621 C 0.3049 0.60502 0.3928 0.0
C622 C 0.19021 0.86556 0.36969 0.0
C623 C 0.20666 0.83241 0.36964 0.0
C624 C 0.24539 0.79041 0.38968 0.0
C625 C 0.28019 0.65636 0.38132 0.0
C626 C 0.26339 0.69628 0.38133 0.0
C627 C 0.21493 0.81396 0.38113 0.0
C628 C 0.23175 0.77423 0.38108 0.0
H629 H 0.31101 0.59333 0.36073 0.0
H630 H 0.28238 0.65179 0.36078 0.0
H631 H 0.27146 0.76639 0.39639 0.0
H632 H 0.18402 0.87561 0.40178 0.0
H633 H 0.2127 0.81755 0.40167 0.0
C634 C 0.80512 0.10754 0.36976 0.0
C635 C 0.8137 0.09191 0.38127 0.0
C636 C 0.78863 0.14045 0.36977 0.0
C637 C 0.76102 0.25318 0.38977 0.0
H638 H 0.72381 0.20427 0.36593 0.0
C639 C 0.68998 0.36373 0.3926 0.0
C640 C 0.68142 0.37971 0.3811 0.0
C641 C 0.7065 0.33108 0.39257 0.0
C642 C 0.73417 0.2191 0.37253 0.0
H643 H 0.8114 0.09595 0.40182 0.0
H644 H 0.78251 0.15259 0.40182 0.0
H645 H 0.75136 0.13812 0.36612 0.0
H646 H 0.6838 0.37655 0.36054 0.0
H647 H 0.71273 0.32023 0.36052 0.0
H648 H 0.74382 0.33411 0.39618 0.0
C649 C 0.78869 0.14052 0.39279 0.0
C650 C 0.74992 0.1811 0.37266 0.0
C651 C 0.80517 0.1076 0.39279 0.0
C652 C 0.69 0.36464 0.36957 0.0
C653 C 0.70651 0.33192 0.36955 0.0
C654 C 0.74527 0.29115 0.38964 0.0
C655 C 0.78039 0.15837 0.38129 0.0
C656 C 0.76351 0.19771 0.38129 0.0
C657 C 0.71479 0.31372 0.38104 0.0
C658 C 0.73168 0.27453 0.38102 0.0
H659 H 0.81135 0.09621 0.36072 0.0
H660 H 0.78264 0.15399 0.36075 0.0
H661 H 0.77138 0.26803 0.39637 0.0
H662 H 0.68371 0.37461 0.40164 0.0
H663 H 0.71248 0.31727 0.40158 0.0
C664 C 0.68994 0.6088 0.89275 0.0
C665 C 0.68138 0.59266 0.88126 0.0
C666 C 0.70645 0.64166 0.89271 0.0
C667 C 0.7341 0.75385 0.87263 0.0
H668 H 0.77137 0.70516 0.89642 0.0
C669 C 0.80511 0.8654 0.8697 0.0
C670 C 0.81374 0.88107 0.88119 0.0
C671 C 0.78859 0.83254 0.86975 0.0
C672 C 0.76099 0.71994 0.88983 0.0
H673 H 0.68375 0.59578 0.8607 0.0
H674 H 0.71267 0.65245 0.86065 0.0
H675 H 0.74378 0.63895 0.8963 0.0
H676 H 0.81149 0.87722 0.90175 0.0
H677 H 0.78256 0.82068 0.90181 0.0
H678 H 0.75131 0.83487 0.86617 0.0
C679 C 0.70646 0.64074 0.86969 0.0
C680 C 0.74523 0.6819 0.88974 0.0
C681 C 0.68996 0.60781 0.86972 0.0
C682 C 0.80523 0.86553 0.89273 0.0
C683 C 0.78872 0.83267 0.89277 0.0
C684 C 0.74987 0.79191 0.87273 0.0
C685 C 0.71473 0.65907 0.88118 0.0
C686 C 0.73163 0.69843 0.88113 0.0
C687 C 0.78038 0.81474 0.88129 0.0
C688 C 0.76347 0.77538 0.88133 0.0
H689 H 0.68367 0.59786 0.9018 0.0
H690 H 0.71244 0.65557 0.90172 0.0
H691 H 0.72373 0.76859 0.86604 0.0
H692 H 0.81132 0.87663 0.86064 0.0
H693 H 0.78256 0.81894 0.86074 0.0
C694 C 0.30485 0.36699 0.89259 0.0
C695 C 0.31342 0.38316 0.8811 0.0
C696 C 0.28838 0.33381 0.89253 0.0
C697 C 0.26097 0.22067 0.87248 0.0
H698 H 0.22364 0.26814 0.89628 0.0
C699 C 0.19025 0.10594 0.86976 0.0
C700 C 0.18172 0.09018 0.88129 0.0
C701 C 0.20668 0.13946 0.86975 0.0
C702 C 0.23403 0.2537 0.88969 0.0
H703 H 0.31109 0.37986 0.86054 0.0
H704 H 0.28223 0.32264 0.86047 0.0
H705 H 0.25105 0.33547 0.89609 0.0
H706 H 0.18408 0.09449 0.90184 0.0
H707 H 0.21286 0.15217 0.90179 0.0
H708 H 0.24397 0.13884 0.86609 0.0
C709 C 0.28841 0.33457 0.86951 0.0
C710 C 0.2497 0.29239 0.88955 0.0
C711 C 0.30487 0.36781 0.86956 0.0
C712 C 0.19026 0.10624 0.89279 0.0
C713 C 0.20668 0.13976 0.89277 0.0
C714 C 0.24531 0.18195 0.87262 0.0
C715 C 0.28015 0.31613 0.88099 0.0
C716 C 0.26333 0.27628 0.88095 0.0
C717 C 0.21491 0.15785 0.88125 0.0
C718 C 0.23169 0.19801 0.88123 0.0
H719 H 0.31109 0.37808 0.90164 0.0
H720 H 0.2824 0.31983 0.90154 0.0
H721 H 0.27137 0.20624 0.86589 0.0
H722 H 0.18401 0.09433 0.86073 0.0
H723 H 0.21263 0.15315 0.86072 0.0
C724 C 0.69005 0.36402 0.64304 0.0
C725 C 0.68145 0.37908 0.63151 0.0
C726 C 0.70655 0.33125 0.64307 0.0
C727 C 0.74528 0.29038 0.623 0.0
H728 H 0.7514 0.13753 0.64658 0.0
C729 C 0.80523 0.10707 0.61996 0.0
C730 C 0.81377 0.09153 0.6315 0.0
C731 C 0.78874 0.13989 0.61994 0.0
C732 C 0.74995 0.18046 0.64002 0.0
H733 H 0.68371 0.37387 0.61096 0.0
H734 H 0.71248 0.31642 0.61104 0.0
H735 H 0.72383 0.2036 0.64673 0.0
H736 H 0.81141 0.09598 0.65204 0.0
H737 H 0.78267 0.15359 0.65197 0.0
H738 H 0.77141 0.2673 0.6163 0.0
C739 C 0.7065 0.33029 0.62005 0.0
C740 C 0.73419 0.21841 0.64012 0.0
C741 C 0.68999 0.363 0.62001 0.0
C742 C 0.80517 0.10719 0.64299 0.0
C743 C 0.78868 0.14001 0.64296 0.0
C744 C 0.76105 0.25246 0.6229 0.0
C745 C 0.7148 0.31298 0.63158 0.0
C746 C 0.7317 0.27377 0.63162 0.0
C747 C 0.78043 0.15779 0.63143 0.0
C748 C 0.76354 0.19706 0.6314 0.0
H749 H 0.68385 0.37601 0.65206 0.0
H750 H 0.71277 0.3196 0.6521 0.0
H751 H 0.74383 0.33329 0.61644 0.0
H752 H 0.81146 0.0954 0.61094 0.0
H753 H 0.78255 0.15186 0.6109 0.0
C754 C 0.19036 0.86851 0.64337 0.0
C755 C 0.18179 0.88362 0.63183 0.0
C756 C 0.20683 0.83544 0.64341 0.0
C757 C 0.2455 0.79339 0.62335 0.0
H758 H 0.25129 0.64028 0.64691 0.0
C759 C 0.30496 0.60787 0.62018 0.0
C760 C 0.31351 0.59201 0.63169 0.0
C761 C 0.28854 0.64125 0.6202 0.0
C762 C 0.24993 0.68327 0.64036 0.0
H763 H 0.18406 0.87829 0.61129 0.0
H764 H 0.21276 0.82034 0.61139 0.0
H765 H 0.22389 0.70735 0.64709 0.0
H766 H 0.31125 0.59638 0.65224 0.0
H767 H 0.28264 0.65495 0.65225 0.0
H768 H 0.27155 0.76935 0.61662 0.0
C769 C 0.2068 0.83438 0.62039 0.0
C770 C 0.23427 0.7218 0.64048 0.0
C771 C 0.19033 0.86738 0.62034 0.0
C772 C 0.305 0.60783 0.64321 0.0
C773 C 0.28857 0.64121 0.64322 0.0
C774 C 0.26117 0.75489 0.62323 0.0
C775 C 0.21506 0.81693 0.63193 0.0
C776 C 0.23189 0.77725 0.63198 0.0
C777 C 0.28032 0.6594 0.63171 0.0
C778 C 0.26354 0.69936 0.63172 0.0
H779 H 0.18417 0.88061 0.65239 0.0
H780 H 0.21303 0.82369 0.65245 0.0
H781 H 0.24413 0.83635 0.61679 0.0
H782 H 0.31112 0.59607 0.61114 0.0
H783 H 0.28234 0.65349 0.61118 0.0
C784 C 0.12931 0.02789 0.30493 0.0
C785 C 0.12755 0.96306 0.31087 0.0
C786 C 0.12896 0.03326 0.29168 0.0
C787 C 0.1162 0.93561 0.26248 0.0
H788 H 0.14611 0.07216 0.24591 0.0
C789 C 0.12929 0.9402 0.20826 0.0
C790 C 0.12753 0.00488 0.20224 0.0
C791 C 0.12891 0.93529 0.22152 0.0
C792 C 0.1376 0.03415 0.25043 0.0
H793 H 0.12428 0.8529 0.30766 0.0
H794 H 0.12423 0.86168 0.28453 0.0
H795 H 0.14647 0.06239 0.26901 0.0
H796 H 0.12417 0.11515 0.20533 0.0
H797 H 0.12378 0.10667 0.22856 0.0
H798 H 0.10776 0.9063 0.24378 0.0
C799 C 0.12537 0.90882 0.29005 0.0
C800 C 0.13772 0.02866 0.26368 0.0
C801 C 0.12548 0.90363 0.30331 0.0
C802 C 0.12546 0.06461 0.20973 0.0
C803 C 0.12535 0.05982 0.223 0.0
C804 C 0.11627 0.94051 0.24922 0.0
C805 C 0.12708 0.97376 0.28405 0.0
C806 C 0.12698 0.97943 0.2699 0.0
C807 C 0.12703 -0.00491 0.22901 0.0
C808 C 0.12693 -0.01006 0.24307 0.0
H809 H 0.13069 0.07467 0.31054 0.0
H810 H 0.12994 0.0843 0.28745 0.0
H811 H 0.10749 0.89798 0.26691 0.0
H812 H 0.13077 0.89328 0.20271 0.0
H813 H 0.13034 0.88481 0.22591 0.0
C814 C 0.88335 0.00422 0.30397 0.0
C815 C 0.86724 0.01136 0.31061 0.0
C816 C 0.88351 -0.00168 0.29073 0.0
C817 C 0.85566 0.94654 0.26371 0.0
H818 H 0.88899 0.05371 0.24363 0.0
C819 C 0.85138 0.95804 0.20899 0.0
C820 C 0.86731 0.95982 0.20203 0.0
C821 C 0.85153 0.96385 0.22223 0.0
C822 C 0.87976 0.0226 0.24909 0.0
H823 H 0.83867 0.01938 0.30838 0.0
H824 H 0.83898 0.00772 0.28531 0.0
H825 H 0.88907 0.06471 0.26672 0.0
H826 H 0.89593 0.96936 0.20366 0.0
H827 H 0.89622 0.97682 0.22674 0.0
H828 H 0.8465 0.9035 0.24617 0.0
C829 C 0.85146 0.00614 0.29041 0.0
C830 C 0.87978 0.02913 0.26233 0.0
C831 C 0.85131 0.01264 0.30363 0.0
C832 C 0.88341 0.96692 0.20869 0.0
C833 C 0.88356 0.97225 0.22194 0.0
C834 C 0.85573 0.93954 0.25049 0.0
C835 C 0.86756 -0.00117 0.28381 0.0
C836 C 0.86768 -0.0086 0.26977 0.0
C837 C 0.86761 0.97106 0.22888 0.0
C838 C 0.86773 0.9777 0.24299 0.0
H839 H 0.89586 0.00181 0.30902 0.0
H840 H 0.8961 -0.00806 0.28591 0.0
H841 H 0.84634 0.91604 0.26922 0.0
H842 H 0.83875 0.95172 0.20422 0.0
H843 H 0.83897 0.96357 0.22722 0.0
C844 C 0.86591 0.94495 0.70794 0.0
C845 C 0.86778 0.00991 0.70204 0.0
C846 C 0.86629 0.93934 0.72119 0.0
C847 C 0.85776 0.03674 0.75028 0.0
H848 H 0.88712 0.89751 0.76658 0.0
C849 C 0.85148 0.96415 0.80344 0.0
C850 C 0.86742 0.96124 0.81041 0.0
C851 C 0.85173 0.97058 0.79021 0.0
C852 C 0.87891 0.93673 0.76214 0.0
H853 H 0.87135 0.11995 0.70532 0.0
H854 H 0.87176 0.11024 0.72854 0.0
H855 H 0.8873 0.90833 0.74339 0.0
H856 H 0.89615 0.96329 0.80876 0.0
H857 H 0.8965 0.97225 0.78564 0.0
H858 H 0.84922 0.06466 0.76902 0.0
C859 C 0.87009 0.06372 0.72289 0.0
C860 C 0.87892 0.94261 0.7489 0.0
C861 C 0.86997 0.06921 0.70963 0.0
C862 C 0.88361 0.96405 0.80374 0.0
C863 C 0.88384 0.96954 0.79049 0.0
C864 C 0.85755 0.03018 0.76351 0.0
C865 C 0.86829 -0.0013 0.72879 0.0
C866 C 0.86837 -0.00725 0.74284 0.0
C867 C 0.8679 0.97329 0.78361 0.0
C868 C 0.86814 0.98019 0.76957 0.0
H869 H 0.86434 0.89835 0.70231 0.0
H870 H 0.86476 0.88866 0.72549 0.0
H871 H 0.84942 0.07553 0.74584 0.0
H872 H 0.83876 0.96074 0.80817 0.0
H873 H 0.83925 0.97246 0.78511 0.0
C874 C 0.12558 0.06764 0.80334 0.0
C875 C 0.12766 0.00799 0.81086 0.0
C876 C 0.12547 0.06272 0.79008 0.0
C877 C 0.1164 0.94312 0.76391 0.0
H878 H 0.14661 0.06482 0.74408 0.0
C879 C 0.12566 0.90566 0.70984 0.0
C880 C 0.12773 0.96502 0.70226 0.0
C881 C 0.12554 0.91099 0.7231 0.0
C882 C 0.13786 0.03113 0.74942 0.0
H883 H 0.13092 0.8964 0.81045 0.0
H884 H 0.13049 0.88769 0.78725 0.0
H885 H 0.14624 0.07485 0.76717 0.0
H886 H 0.13085 0.07665 0.70254 0.0
H887 H 0.13007 0.08651 0.72562 0.0
H888 H 0.10764 0.90037 0.74624 0.0
C889 C 0.12905 0.93821 0.79162 0.0
C890 C 0.13773 0.03678 0.76267 0.0
C891 C 0.12943 0.94325 0.80487 0.0
C892 C 0.12947 0.02992 0.70817 0.0
C893 C 0.12911 0.03543 0.72141 0.0
C894 C 0.11634 0.93806 0.75065 0.0
C895 C 0.12715 -0.00207 0.7841 0.0
C896 C 0.12706 -0.00736 0.77004 0.0
C897 C 0.12723 0.976 0.72908 0.0
C898 C 0.12713 0.98181 0.74322 0.0
H899 H 0.12428 0.11822 0.80771 0.0
H900 H 0.12388 0.10951 0.78449 0.0
H901 H 0.1079 0.90895 0.76937 0.0
H902 H 0.12447 0.85489 0.70552 0.0
H903 H 0.1244 0.86391 0.72864 0.0
C904 C 0.62514 0.40314 0.30302 0.0
C905 C 0.62724 0.46223 0.31067 0.0
C906 C 0.62499 0.40895 0.28977 0.0
C907 C 0.63732 0.52997 0.26358 0.0
H908 H 0.60731 0.40861 0.24351 0.0
C909 C 0.62506 0.56824 0.20968 0.0
C910 C 0.62715 0.5088 0.20212 0.0
C911 C 0.62493 0.56293 0.22294 0.0
C912 C 0.61582 0.44256 0.249 0.0
H913 H 0.63037 0.57385 0.3105 0.0
H914 H 0.62956 0.58454 0.28743 0.0
H915 H 0.60707 0.39923 0.26662 0.0
H916 H 0.63037 0.39718 0.20244 0.0
H917 H 0.6299 0.3878 0.22563 0.0
H918 H 0.64569 0.57426 0.24587 0.0
C919 C 0.62859 0.53331 0.29159 0.0
C920 C 0.61577 0.43704 0.26225 0.0
C921 C 0.62898 0.52733 0.30482 0.0
C922 C 0.62888 0.44388 0.20805 0.0
C923 C 0.62848 0.43845 0.2213 0.0
C924 C 0.63717 0.53608 0.25034 0.0
C925 C 0.6267 0.47416 0.28386 0.0
C926 C 0.62658 0.48048 0.26973 0.0
C927 C 0.62659 0.49796 0.22887 0.0
C928 C 0.62649 0.49224 0.24292 0.0
H929 H 0.62395 0.35222 0.30729 0.0
H930 H 0.62384 0.36206 0.28418 0.0
H931 H 0.64608 0.56343 0.26895 0.0
H932 H 0.62379 0.61895 0.20535 0.0
H933 H 0.62335 0.60956 0.22856 0.0
C934 C 0.36938 0.56585 0.30311 0.0
C935 C 0.36727 0.50664 0.31073 0.0
C936 C 0.36952 0.56028 0.28986 0.0
C937 C 0.35722 0.43975 0.26359 0.0
H938 H 0.38727 0.56146 0.24362 0.0
C939 C 0.36959 0.40246 0.20969 0.0
C940 C 0.36753 0.46204 0.20214 0.0
C941 C 0.36968 0.40753 0.22295 0.0
C942 C 0.37874 0.52742 0.24908 0.0
H943 H 0.3641 0.39503 0.31051 0.0
H944 H 0.36491 0.38475 0.28744 0.0
H945 H 0.38747 0.5704 0.26674 0.0
H946 H 0.36431 0.57366 0.20251 0.0
H947 H 0.36472 0.58262 0.22571 0.0
H948 H 0.34887 0.3958 0.24585 0.0
C949 C 0.36589 0.43591 0.29161 0.0
C950 C 0.37877 0.53269 0.26234 0.0
C951 C 0.3655 0.44165 0.30485 0.0
C952 C 0.36578 0.52686 0.20811 0.0
C953 C 0.36615 0.53205 0.22136 0.0
C954 C 0.35738 0.43389 0.25034 0.0
C955 C 0.36781 0.49519 0.28392 0.0
C956 C 0.36795 0.48912 0.26978 0.0
C957 C 0.36801 0.4724 0.22891 0.0
C958 C 0.36808 0.47787 0.24296 0.0
H959 H 0.37059 0.61668 0.3074 0.0
H960 H 0.37069 0.60726 0.28429 0.0
H961 H 0.34844 0.40619 0.26894 0.0
H962 H 0.37087 0.35183 0.20533 0.0
H963 H 0.37124 0.3608 0.22855 0.0
C964 C 0.36972 0.40492 0.80319 0.0
C965 C 0.36765 0.46454 0.81071 0.0
C966 C 0.36984 0.40994 0.78993 0.0
C967 C 0.37895 0.5297 0.76377 0.0
H968 H 0.34869 0.40835 0.74391 0.0
C969 C 0.36969 0.56779 0.70971 0.0
C970 C 0.36758 0.50854 0.70211 0.0
C971 C 0.36981 0.5623 0.72296 0.0
C972 C 0.35745 0.44194 0.74926 0.0
H973 H 0.36444 0.57616 0.81031 0.0
H974 H 0.36489 0.58502 0.78711 0.0
H975 H 0.34907 0.39809 0.767 0.0
H976 H 0.3644 0.39694 0.70236 0.0
H977 H 0.36518 0.3868 0.72544 0.0
H978 H 0.38771 0.57258 0.74611 0.0
C979 C 0.36631 0.53446 0.79148 0.0
C980 C 0.3576 0.43616 0.76251 0.0
C981 C 0.36592 0.52933 0.80473 0.0
C982 C 0.3658 0.44359 0.70801 0.0
C983 C 0.36617 0.43793 0.72125 0.0
C984 C 0.37901 0.53489 0.75051 0.0
C985 C 0.36818 0.47478 0.78395 0.0
C986 C 0.36828 0.48018 0.76989 0.0
C987 C 0.36808 0.49725 0.72892 0.0
C988 C 0.3682 0.49127 0.74307 0.0
H989 H 0.37098 0.35431 0.80756 0.0
H990 H 0.37141 0.36318 0.78434 0.0
H991 H 0.38746 0.56377 0.76923 0.0
H992 H 0.37091 0.6186 0.7054 0.0
H993 H 0.37098 0.60932 0.72852 0.0
C994 C 0.64362 0.51461 0.80369 0.0
C995 C 0.6277 0.51284 0.81066 0.0
C996 C 0.64347 0.50864 0.79046 0.0
C997 C 0.61524 0.44935 0.76363 0.0
H998 H 0.64865 0.55559 0.74344 0.0
C999 C 0.61169 0.46672 0.70873 0.0
C1000 C 0.62781 0.45955 0.70211 0.0
C1001 C 0.61152 0.4728 0.72198 0.0
C1002 C 0.63934 0.52517 0.74897 0.0
H1003 H 0.59909 0.50321 0.80905 0.0
H1004 H 0.59878 0.49546 0.78597 0.0
H1005 H 0.64848 0.56859 0.76648 0.0
H1006 H 0.65638 0.45163 0.70436 0.0
H1007 H 0.65605 0.46359 0.72742 0.0
H1008 H 0.60595 0.40685 0.74603 0.0
C1009 C 0.61144 0.50015 0.79076 0.0
C1010 C 0.63926 0.53245 0.76218 0.0
C1011 C 0.6116 0.50563 0.80401 0.0
C1012 C 0.64374 0.45839 0.70909 0.0
C1013 C 0.64357 0.46506 0.72232 0.0
C1014 C 0.61523 0.44255 0.7504 0.0
C1015 C 0.62738 0.50128 0.78381 0.0
C1016 C 0.62726 0.4944 0.7697 0.0
C1017 C 0.62747 0.47244 0.7289 0.0
C1018 C 0.62733 0.48016 0.74294 0.0
H1019 H 0.65626 0.52102 0.80845 0.0
H1020 H 0.65603 0.50889 0.78546 0.0
H1021 H 0.60602 0.41832 0.76911 0.0
H1022 H 0.59919 0.46904 0.70368 0.0
H1023 H 0.59892 0.47921 0.72678 0.0
C1024 C 0.13324 0.96942 0.9589 0.0
C1025 C 0.12782 0.02834 0.95206 0.0
C1026 C 0.13309 0.96941 0.97219 0.0
C1027 C 0.13315 0.08685 0.99993 0.0
H1028 H 0.11688 0.92371 0.01808 0.0
C1029 C 0.12225 0.08571 0.05432 0.0
C1030 C 0.12782 0.02656 0.06103 0.0
C1031 C 0.12212 0.08616 0.04103 0.0
C1032 C 0.12165 0.96942 0.01316 0.0
H1033 H 0.11814 0.13375 0.95386 0.0
H1034 H 0.11758 0.13329 0.97703 0.0
H1035 H 0.11687 0.9241 0.99491 0.0
H1036 H 0.13744 0.92118 0.05901 0.0
H1037 H 0.13754 0.92243 0.03584 0.0
H1038 H 0.13794 0.13214 0.01819 0.0
C1039 C 0.12211 0.08728 0.97212 0.0
C1040 C 0.12164 0.96964 0.99988 0.0
C1041 C 0.12223 0.08726 0.95883 0.0
C1042 C 0.13325 0.96786 0.05414 0.0
C1043 C 0.1331 0.96828 0.04085 0.0
C1044 C 0.13316 0.08663 0.01322 0.0
C1045 C 0.12753 0.02834 0.97896 0.0
C1046 C 0.12742 0.02832 0.9931 0.0
C1047 C 0.12755 0.02744 0.03414 0.0
C1048 C 0.12743 0.02787 0.02 0.0
H1049 H 0.13744 0.9229 0.95399 0.0
H1050 H 0.13753 0.9234 0.97716 0.0
H1051 H 0.13793 0.13252 0.99501 0.0
H1052 H 0.11815 0.13204 0.05933 0.0
H1053 H 0.1176 0.13233 0.03615 0.0
C1054 C 0.86259 0.00121 0.95866 0.0
C1055 C 0.86798 0.94245 0.95176 0.0
C1056 C 0.86275 0.00082 0.97194 0.0
C1057 C 0.86263 0.8825 0.99957 0.0
H1058 H 0.87899 0.0449 0.01789 0.0
C1059 C 0.87345 0.88182 0.05397 0.0
C1060 C 0.86787 0.94079 0.06073 0.0
C1061 C 0.87361 0.8818 0.04068 0.0
C1062 C 0.8742 -0.0006 0.01292 0.0
H1063 H 0.87761 0.83692 0.95347 0.0
H1064 H 0.87819 0.83668 0.97665 0.0
H1065 H 0.87901 0.04526 0.99471 0.0
H1066 H 0.85832 0.04631 0.05878 0.0
H1067 H 0.85829 0.04581 0.03561 0.0
H1068 H 0.8578 0.83668 0.01778 0.0
C1069 C 0.87368 0.88288 0.97177 0.0
C1070 C 0.87421 -0.00039 0.99963 0.0
C1071 C 0.87354 0.8833 0.95848 0.0
C1072 C 0.8625 -0.00024 0.05387 0.0
C1073 C 0.86269 -0.00024 0.04059 0.0
C1074 C 0.86262 0.88229 0.01286 0.0
C1075 C 0.86829 0.94164 0.97866 0.0
C1076 C 0.8684 0.94121 0.9928 0.0
C1077 C 0.86824 0.94078 0.03383 0.0
C1078 C 0.86838 0.94078 0.01969 0.0
H1079 H 0.85841 0.0479 0.95379 0.0
H1080 H 0.85834 0.04671 0.97695 0.0
H1081 H 0.85782 0.83704 0.9946 0.0
H1082 H 0.8775 0.8353 0.05894 0.0
H1083 H 0.87813 0.83574 0.03577 0.0
C1084 C 0.13324 0.001 0.4589 0.0
C1085 C 0.12781 0.94197 0.45208 0.0
C1086 C 0.1331 0.00112 0.47218 0.0
C1087 C 0.13316 0.88388 0.49997 0.0
H1088 H 0.11692 0.04701 0.51807 0.0
C1089 C 0.12224 0.88516 0.55435 0.0
C1090 C 0.12782 0.94436 0.56106 0.0
C1091 C 0.12212 0.88468 0.54106 0.0
C1092 C 0.12168 0.00131 0.51316 0.0
H1093 H 0.11813 0.83649 0.45392 0.0
H1094 H 0.11758 0.83714 0.4771 0.0
H1095 H 0.11691 0.04649 0.4949 0.0
H1096 H 0.13745 0.04981 0.55901 0.0
H1097 H 0.13756 0.04852 0.53585 0.0
H1098 H 0.13795 0.83874 0.51824 0.0
C1099 C 0.12211 0.88315 0.47216 0.0
C1100 C 0.12167 0.00101 0.49988 0.0
C1101 C 0.12223 0.88306 0.45887 0.0
C1102 C 0.13325 0.00309 0.55415 0.0
C1103 C 0.13311 0.00264 0.54087 0.0
C1104 C 0.13317 0.88418 0.51326 0.0
C1105 C 0.12753 0.94219 0.47898 0.0
C1106 C 0.12743 0.94233 0.49312 0.0
C1107 C 0.12755 0.94343 0.53416 0.0
C1108 C 0.12745 0.94294 0.52002 0.0
H1109 H 0.13744 0.04752 0.45397 0.0
H1110 H 0.13754 0.04721 0.47713 0.0
H1111 H 0.13794 0.83821 0.49507 0.0
H1112 H 0.11814 0.8388 0.55937 0.0
H1113 H 0.11759 0.83846 0.5362 0.0
C1114 C 0.87339 0.0889 0.55411 0.0
C1115 C 0.86781 0.02985 0.56086 0.0
C1116 C 0.87352 0.08907 0.54082 0.0
C1117 C 0.874 0.97181 0.51304 0.0
H1118 H 0.85765 0.13435 0.49478 0.0
C1119 C 0.86236 0.97074 0.45878 0.0
C1120 C 0.86778 0.02962 0.4519 0.0
C1121 C 0.86252 0.97094 0.47206 0.0
C1122 C 0.86245 0.08884 0.49973 0.0
H1123 H 0.8582 0.92433 0.55891 0.0
H1124 H 0.85811 0.92509 0.53574 0.0
H1125 H 0.85766 0.1344 0.51796 0.0
H1126 H 0.87745 0.13517 0.45365 0.0
H1127 H 0.87803 0.13507 0.47683 0.0
H1128 H 0.87877 0.92621 0.49481 0.0
C1129 C 0.86254 0.97109 0.54072 0.0
C1130 C 0.86246 0.08887 0.51302 0.0
C1131 C 0.86239 0.97094 0.55401 0.0
C1132 C 0.87336 0.08871 0.45864 0.0
C1133 C 0.8735 0.08893 0.47193 0.0
C1134 C 0.87399 0.97178 0.49975 0.0
C1135 C 0.8681 0.03016 0.53397 0.0
C1136 C 0.8682 0.03032 0.51983 0.0
C1137 C 0.86808 0.03004 0.4788 0.0
C1138 C 0.8682 0.03026 0.49294 0.0
H1139 H 0.87749 0.13538 0.55909 0.0
H1140 H 0.87805 0.13519 0.53591 0.0
H1141 H 0.87878 0.92627 0.51799 0.0
H1142 H 0.85817 0.92411 0.45389 0.0
H1143 H 0.85809 0.92496 0.47705 0.0
C1144 C 0.62193 0.58855 0.0542 0.0
C1145 C 0.62749 0.52945 0.06094 0.0
C1146 C 0.6218 0.58887 0.04091 0.0
C1147 C 0.62127 0.47186 0.01309 0.0
H1148 H 0.63763 0.63467 0.99488 0.0
C1149 C 0.63284 0.47126 0.95883 0.0
C1150 C 0.62743 0.53015 0.95197 0.0
C1151 C 0.6327 0.47138 0.97211 0.0
C1152 C 0.63283 0.58908 0.99982 0.0
H1153 H 0.63708 0.42402 0.05894 0.0
H1154 H 0.63717 0.42503 0.03578 0.0
H1155 H 0.63765 0.63452 0.01806 0.0
H1156 H 0.61779 0.63563 0.95374 0.0
H1157 H 0.61725 0.63539 0.97692 0.0
H1158 H 0.61647 0.42639 0.99485 0.0
C1159 C 0.63275 0.47095 0.04077 0.0
C1160 C 0.63284 0.589 0.0131 0.0
C1161 C 0.6329 0.47066 0.05406 0.0
C1162 C 0.62188 0.58916 0.95872 0.0
C1163 C 0.62176 0.5893 0.97201 0.0
C1164 C 0.62126 0.47194 0.9998 0.0
C1165 C 0.62721 0.53006 0.03404 0.0
C1166 C 0.62708 0.53034 0.0199 0.0
C1167 C 0.62716 0.5304 0.97887 0.0
C1168 C 0.62706 0.53052 0.99301 0.0
H1169 H 0.61784 0.63495 0.05919 0.0
H1170 H 0.61728 0.63501 0.03602 0.0
H1171 H 0.61649 0.42624 0.01803 0.0
H1172 H 0.63702 0.42468 0.95393 0.0
H1173 H 0.63713 0.42539 0.9771 0.0
C1174 C 0.36174 0.50252 0.95885 0.0
C1175 C 0.36719 0.44391 0.95194 0.0
C1176 C 0.36187 0.50198 0.97214 0.0
C1177 C 0.36183 0.38337 0.99974 0.0
H1178 H 0.37806 0.5458 0.01811 0.0
C1179 C 0.37274 0.38224 0.05414 0.0
C1180 C 0.36716 0.44109 0.06093 0.0
C1181 C 0.37287 0.38235 0.04085 0.0
C1182 C 0.3733 0.50028 0.01313 0.0
H1183 H 0.37688 0.33844 0.95363 0.0
H1184 H 0.3774 0.33794 0.9768 0.0
H1185 H 0.37805 0.54641 0.99494 0.0
H1186 H 0.35754 0.54654 0.05903 0.0
H1187 H 0.35743 0.54625 0.03587 0.0
H1188 H 0.35706 0.33727 0.01794 0.0
C1189 C 0.37287 0.38415 0.97194 0.0
C1190 C 0.3733 0.50064 0.99984 0.0
C1191 C 0.37277 0.38472 0.95865 0.0
C1192 C 0.36173 0.50007 0.05411 0.0
C1193 C 0.36187 0.5002 0.04082 0.0
C1194 C 0.36183 0.38301 0.01303 0.0
C1195 C 0.36743 0.44278 0.97884 0.0
C1196 C 0.36753 0.44222 0.99299 0.0
C1197 C 0.36744 0.44134 0.03403 0.0
C1198 C 0.36755 0.44151 0.01989 0.0
H1199 H 0.35755 0.54923 0.954 0.0
H1200 H 0.35741 0.54777 0.97716 0.0
H1201 H 0.35705 0.33789 0.99476 0.0
H1202 H 0.37685 0.33571 0.0591 0.0
H1203 H 0.3774 0.33638 0.03592 0.0
C1204 C 0.63285 0.49963 0.4587 0.0
C1205 C 0.62744 0.44072 0.45184 0.0
C1206 C 0.6327 0.49949 0.47198 0.0
C1207 C 0.63278 0.38171 0.49969 0.0
H1208 H 0.61646 0.54436 0.51789 0.0
C1209 C 0.62184 0.38188 0.55406 0.0
C1210 C 0.62741 0.44098 0.56081 0.0
C1211 C 0.62172 0.38165 0.54078 0.0
C1212 C 0.62124 0.4988 0.51295 0.0
H1213 H 0.61778 0.33517 0.45361 0.0
H1214 H 0.61721 0.33535 0.47679 0.0
H1215 H 0.61646 0.5443 0.49471 0.0
H1216 H 0.63701 0.5465 0.55882 0.0
H1217 H 0.63711 0.54565 0.53566 0.0
H1218 H 0.63758 0.33623 0.51793 0.0
C1219 C 0.62173 0.38148 0.47188 0.0
C1220 C 0.62124 0.49876 0.49967 0.0
C1221 C 0.62186 0.38165 0.45859 0.0
C1222 C 0.63283 0.49986 0.55393 0.0
C1223 C 0.63268 0.49966 0.54065 0.0
C1224 C 0.63278 0.38174 0.51298 0.0
C1225 C 0.62715 0.44041 0.47874 0.0
C1226 C 0.62704 0.44025 0.49287 0.0
C1227 C 0.62713 0.44055 0.53391 0.0
C1228 C 0.62703 0.44032 0.51977 0.0
H1229 H 0.63704 0.54625 0.4538 0.0
H1230 H 0.63713 0.5455 0.47696 0.0
H1231 H 0.63758 0.33617 0.49475 0.0
H1232 H 0.61775 0.33541 0.55905 0.0
H1233 H 0.6172 0.3355 0.53588 0.0
C1234 C 0.37304 0.58936 0.55411 0.0
C1235 C 0.36742 0.53048 0.5609 0.0
C1236 C 0.37318 0.58926 0.54082 0.0
C1237 C 0.37362 0.47138 0.51311 0.0
H1238 H 0.35742 0.63371 0.49473 0.0
C1239 C 0.36205 0.46923 0.45884 0.0
C1240 C 0.36751 0.52792 0.45192 0.0
C1241 C 0.3622 0.46971 0.47212 0.0
C1242 C 0.36218 0.58825 0.49971 0.0
H1243 H 0.35776 0.42499 0.55901 0.0
H1244 H 0.3577 0.42529 0.53584 0.0
H1245 H 0.35741 0.63428 0.5179 0.0
H1246 H 0.37723 0.63342 0.4536 0.0
H1247 H 0.37779 0.63382 0.47677 0.0
H1248 H 0.37837 0.42532 0.49492 0.0
C1249 C 0.36215 0.47136 0.5408 0.0
C1250 C 0.36218 0.58858 0.513 0.0
C1251 C 0.36198 0.47148 0.55408 0.0
C1252 C 0.37311 0.5871 0.45862 0.0
C1253 C 0.37324 0.58761 0.47191 0.0
C1254 C 0.37363 0.47105 0.49982 0.0
C1255 C 0.36774 0.53025 0.534 0.0
C1256 C 0.36787 0.5301 0.51986 0.0
C1257 C 0.36778 0.52892 0.47882 0.0
C1258 C 0.36789 0.52945 0.49296 0.0
H1259 H 0.37715 0.6359 0.55906 0.0
H1260 H 0.37774 0.63524 0.53589 0.0
H1261 H 0.37836 0.42588 0.5181 0.0
H1262 H 0.35784 0.42252 0.45398 0.0
H1263 H 0.35774 0.42388 0.47715 0.0
C1264 C 0.93138 -0.00762 0.14298 0.0
C1265 C 0.92201 -0.0104 0.13144 0.0
C1266 C 0.94989 -0.00621 0.14303 0.0
C1267 C 0.98913 0.02741 0.12297 0.0
H1268 H 0.0126 0.90328 0.14662 0.0
C1269 C 0.064 0.97385 0.12003 0.0
C1270 C 0.07337 0.97644 0.13157 0.0
C1271 C 0.04549 0.97241 0.11998 0.0
C1272 C 0.00624 0.9386 0.14004 0.0
H1273 H 0.92468 -0.01111 0.1109 0.0
H1274 H 0.95699 -0.00891 0.11101 0.0
H1275 H 0.98032 0.91216 0.14676 0.0
H1276 H 0.0707 0.97681 0.15212 0.0
H1277 H 0.03839 0.97463 0.152 0.0
H1278 H 0.01505 0.05387 0.11625 0.0
C1279 C 0.95003 -0.00744 0.12001 0.0
C1280 C 0.98778 0.94387 0.14014 0.0
C1281 C 0.93151 -0.0089 0.11995 0.0
C1282 C 0.06387 0.97474 0.14306 0.0
C1283 C 0.04535 0.97329 0.143 0.0
C1284 C 0.0076 0.02215 0.12287 0.0
C1285 C 0.95941 -0.00746 0.13155 0.0
C1286 C 0.97903 -0.01164 0.13161 0.0
C1287 C 0.03597 0.97348 0.13146 0.0
C1288 C 0.01635 0.97766 0.1314 0.0
H1289 H 0.92445 -0.00845 0.152 0.0
H1290 H 0.95678 -0.00501 0.15207 0.0
H1291 H 0.98278 0.06272 0.11638 0.0
H1292 H 0.07093 0.97481 0.11101 0.0
H1293 H 0.03861 0.97133 0.11094 0.0
C1294 C 0.9314 0.97894 0.3927 0.0
C1295 C 0.92194 0.98128 0.38119 0.0
C1296 C 0.94992 0.97702 0.39268 0.0
C1297 C 0.98789 0.02549 0.37272 0.0
H1298 H 0.01475 0.91347 0.39651 0.0
C1299 C 0.06392 -0.0074 0.36996 0.0
C1300 C 0.07337 -0.00974 0.38147 0.0
C1301 C 0.0454 -0.0056 0.36997 0.0
C1302 C 0.00742 0.94574 0.38992 0.0
H1303 H 0.92445 0.98044 0.36064 0.0
H1304 H 0.95677 0.97619 0.36063 0.0
H1305 H 0.98245 0.90572 0.39628 0.0
H1306 H 0.07084 -0.00906 0.40203 0.0
H1307 H 0.03852 -0.00501 0.40202 0.0
H1308 H 0.01286 0.06553 0.36637 0.0
C1309 C 0.94986 0.97708 0.36966 0.0
C1310 C 0.98894 0.94111 0.38976 0.0
C1311 C 0.93135 0.97896 0.36967 0.0
C1312 C 0.06395 -0.00757 0.39299 0.0
C1313 C 0.04543 -0.00581 0.393 0.0
C1314 C 0.00637 0.03012 0.37288 0.0
C1315 C 0.95934 0.9774 0.38116 0.0
C1316 C 0.97898 0.98091 0.38116 0.0
C1317 C 0.03597 -0.00611 0.38149 0.0
C1318 C 0.01633 -0.00968 0.38149 0.0
H1319 H 0.92455 0.98078 0.40174 0.0
H1320 H 0.95685 0.9778 0.4017 0.0
H1321 H 0.98056 0.05776 0.36613 0.0
H1322 H 0.07078 -0.00912 0.36092 0.0
H1323 H 0.03848 -0.00636 0.36095 0.0
C1324 C 0.06403 0.97701 0.86989 0.0
C1325 C 0.07345 0.97942 0.88141 0.0
C1326 C 0.04552 0.97537 0.86988 0.0
C1327 C 0.00759 0.02504 0.88974 0.0
H1328 H 0.98055 0.91312 0.86602 0.0
C1329 C 0.93153 -0.00662 0.89251 0.0
C1330 C 0.92208 -0.00906 0.881 0.0
C1331 C 0.95005 -0.00501 0.89249 0.0
C1332 C 0.98794 0.94536 0.87258 0.0
H1333 H 0.07088 0.97892 0.90196 0.0
H1334 H 0.03855 0.97516 0.90192 0.0
H1335 H 0.01283 0.90466 0.86629 0.0
H1336 H 0.92459 -0.00871 0.86045 0.0
H1337 H 0.95692 -0.005 0.86044 0.0
H1338 H 0.9827 0.06574 0.89604 0.0
C1339 C 0.04549 0.97579 0.8929 0.0
C1340 C 0.00641 0.94034 0.87277 0.0
C1341 C 0.06401 0.97738 0.89292 0.0
C1342 C 0.93149 -0.00714 0.86948 0.0
C1343 C 0.95 -0.00557 0.86946 0.0
C1344 C 0.98913 0.03007 0.88956 0.0
C1345 C 0.03606 0.97611 0.88138 0.0
C1346 C 0.01643 0.98008 0.88135 0.0
C1347 C 0.95948 -0.00581 0.88097 0.0
C1348 C 0.97911 -0.0097 0.88098 0.0
H1349 H 0.07092 0.97862 0.86086 0.0
H1350 H 0.03861 0.97612 0.86085 0.0
H1351 H 0.01498 0.05728 0.89631 0.0
H1352 H 0.92468 -0.00816 0.90155 0.0
H1353 H 0.95698 -0.00572 0.90151 0.0
C1354 C 0.93148 0.97922 0.62004 0.0
C1355 C 0.92207 0.98197 0.63156 0.0
C1356 C 0.95 0.97758 0.62004 0.0
C1357 C 0.9891 0.9431 0.64019 0.0
H1358 H 0.01288 0.06685 0.6166 0.0
C1359 C 0.06408 -0.00458 0.64327 0.0
C1360 C 0.07347 -0.00712 0.63175 0.0
C1361 C 0.04556 -0.00301 0.64329 0.0
C1362 C 0.00643 0.03163 0.62316 0.0
H1363 H 0.92466 0.98244 0.65211 0.0
H1364 H 0.95697 0.97986 0.65208 0.0
H1365 H 0.98059 0.05864 0.6164 0.0
H1366 H 0.07085 -0.00737 0.6112 0.0
H1367 H 0.03854 -0.00493 0.61125 0.0
H1368 H 0.01495 0.91608 0.64695 0.0
C1369 C 0.95004 0.97858 0.64306 0.0
C1370 C 0.98796 0.02675 0.62303 0.0
C1371 C 0.93152 0.98026 0.64307 0.0
C1372 C 0.064 -0.00533 0.62024 0.0
C1373 C 0.04549 -0.00372 0.62027 0.0
C1374 C 0.00758 0.94798 0.64032 0.0
C1375 C 0.95947 0.97857 0.63154 0.0
C1376 C 0.9791 0.9824 0.63153 0.0
C1377 C 0.03607 -0.00388 0.63179 0.0
C1378 C 0.01644 -0.00768 0.63182 0.0
H1379 H 0.92459 0.9802 0.61101 0.0
H1380 H 0.95691 0.97637 0.61102 0.0
H1381 H 0.98266 0.90789 0.64675 0.0
H1382 H 0.07099 -0.00563 0.6523 0.0
H1383 H 0.03866 -0.00191 0.65232 0.0
C1384 C 0.43112 0.49129 0.12002 0.0
C1385 C 0.42167 0.48984 0.13153 0.0
C1386 C 0.44964 0.49304 0.12004 0.0
C1387 C 0.48754 0.4456 0.14014 0.0
H1388 H 0.51456 0.556 0.11616 0.0
C1389 C 0.56357 0.47876 0.143 0.0
C1390 C 0.57306 0.4804 0.13151 0.0
C1391 C 0.54506 0.47687 0.14295 0.0
C1392 C 0.50718 0.52418 0.1228 0.0
H1393 H 0.42418 0.49212 0.15208 0.0
H1394 H 0.4565 0.49607 0.15209 0.0
H1395 H 0.48227 0.56387 0.11632 0.0
H1396 H 0.57061 0.47832 0.11095 0.0
H1397 H 0.53829 0.4741 0.11089 0.0
H1398 H 0.51245 0.40591 0.14663 0.0
C1399 C 0.44959 0.4946 0.14306 0.0
C1400 C 0.48871 0.52887 0.12292 0.0
C1401 C 0.43108 0.49289 0.14305 0.0
C1402 C 0.56369 0.4774 0.11997 0.0
C1403 C 0.54517 0.47554 0.11993 0.0
C1404 C 0.50602 0.4409 0.14003 0.0
C1405 C 0.45906 0.49337 0.13157 0.0
C1406 C 0.4787 0.48968 0.13159 0.0
C1407 C 0.53567 0.47657 0.13141 0.0
C1408 C 0.51603 0.48013 0.13136 0.0
H1409 H 0.42426 0.48886 0.11098 0.0
H1410 H 0.45657 0.49156 0.11103 0.0
H1411 H 0.48016 0.41379 0.14679 0.0
H1412 H 0.5704 0.48114 0.15206 0.0
H1413 H 0.53809 0.47822 0.15195 0.0
C1414 C 0.43102 0.47645 0.36961 0.0
C1415 C 0.42165 0.47897 0.38115 0.0
C1416 C 0.44953 0.47466 0.36956 0.0
C1417 C 0.48869 0.43936 0.38963 0.0
H1418 H 0.5125 0.56314 0.36606 0.0
C1419 C 0.56367 0.49133 0.39272 0.0
C1420 C 0.57307 0.48875 0.38119 0.0
C1421 C 0.54516 0.49297 0.39273 0.0
C1422 C 0.50604 0.52791 0.37262 0.0
H1423 H 0.42433 0.47896 0.40169 0.0
H1424 H 0.45664 0.47614 0.40159 0.0
H1425 H 0.4802 0.55524 0.36589 0.0
H1426 H 0.57046 0.48853 0.36064 0.0
H1427 H 0.53815 0.49112 0.36069 0.0
H1428 H 0.51453 0.41205 0.39636 0.0
C1429 C 0.44967 0.47512 0.39258 0.0
C1430 C 0.48756 0.5232 0.3725 0.0
C1431 C 0.43116 0.47694 0.39264 0.0
C1432 C 0.56361 0.49058 0.36969 0.0
C1433 C 0.54509 0.49227 0.36971 0.0
C1434 C 0.50717 0.44407 0.38975 0.0
C1435 C 0.45905 0.47528 0.38104 0.0
C1436 C 0.47869 0.47886 0.381 0.0
C1437 C 0.53567 0.49216 0.38123 0.0
C1438 C 0.51604 0.48844 0.38125 0.0
H1439 H 0.42408 0.47768 0.36059 0.0
H1440 H 0.4564 0.47359 0.36052 0.0
H1441 H 0.48223 0.40413 0.39619 0.0
H1442 H 0.57057 0.49023 0.40175 0.0
H1443 H 0.53825 0.49408 0.40176 0.0
C1444 C 0.4312 0.49531 0.86986 0.0
C1445 C 0.42172 0.49347 0.88136 0.0
C1446 C 0.44971 0.49694 0.8699 0.0
C1447 C 0.48755 0.44835 0.88997 0.0
H1448 H 0.51467 0.55902 0.86609 0.0
C1449 C 0.56363 0.48007 0.89278 0.0
C1450 C 0.5731 0.48191 0.88128 0.0
C1451 C 0.54511 0.47845 0.89275 0.0
C1452 C 0.50727 0.52713 0.8727 0.0
H1453 H 0.4242 0.49497 0.90191 0.0
H1454 H 0.45652 0.49872 0.90196 0.0
H1455 H 0.48239 0.56749 0.86627 0.0
H1456 H 0.5706 0.48042 0.86072 0.0
H1457 H 0.53827 0.4767 0.8607 0.0
H1458 H 0.51242 0.40799 0.89639 0.0
C1459 C 0.44962 0.49765 0.89292 0.0
C1460 C 0.48879 0.53216 0.87283 0.0
C1461 C 0.43111 0.49606 0.89289 0.0
C1462 C 0.56369 0.47933 0.86975 0.0
C1463 C 0.54518 0.47776 0.86973 0.0
C1464 C 0.50602 0.44332 0.88984 0.0
C1465 C 0.45912 0.49677 0.88143 0.0
C1466 C 0.47875 0.49285 0.88147 0.0
C1467 C 0.5357 0.47865 0.88122 0.0
C1468 C 0.51607 0.48262 0.8812 0.0
H1469 H 0.42435 0.49326 0.86081 0.0
H1470 H 0.45666 0.49575 0.86089 0.0
H1471 H 0.48014 0.41645 0.89658 0.0
H1472 H 0.57048 0.48212 0.90183 0.0
H1473 H 0.53818 0.47966 0.90176 0.0
C1474 C 0.43124 0.47957 0.64299 0.0
C1475 C 0.42176 0.48168 0.6315 0.0
C1476 C 0.44975 0.47756 0.64296 0.0
C1477 C 0.4877 0.52519 0.62289 0.0
H1478 H 0.51457 0.41355 0.64674 0.0
C1479 C 0.56369 0.49133 0.62002 0.0
C1480 C 0.57318 0.4893 0.63152 0.0
C1481 C 0.54518 0.49331 0.62006 0.0
C1482 C 0.50723 0.44571 0.64013 0.0
H1483 H 0.42422 0.48034 0.61094 0.0
H1484 H 0.45653 0.47591 0.6109 0.0
H1485 H 0.48226 0.40615 0.64657 0.0
H1486 H 0.57072 0.49073 0.65208 0.0
H1487 H 0.5384 0.49509 0.65212 0.0
H1488 H 0.51267 0.56475 0.61645 0.0
C1489 C 0.44965 0.47707 0.61993 0.0
C1490 C 0.48875 0.44129 0.64001 0.0
C1491 C 0.43114 0.47906 0.61996 0.0
C1492 C 0.5638 0.49196 0.64305 0.0
C1493 C 0.54529 0.4939 0.64309 0.0
C1494 C 0.50619 0.52961 0.62301 0.0
C1495 C 0.45915 0.47761 0.63142 0.0
C1496 C 0.47879 0.48096 0.63139 0.0
C1497 C 0.53578 0.4933 0.6316 0.0
C1498 C 0.51614 0.48994 0.63163 0.0
H1499 H 0.4244 0.48165 0.65204 0.0
H1500 H 0.45671 0.47851 0.65197 0.0
H1501 H 0.48037 0.55735 0.61628 0.0
H1502 H 0.57053 0.4892 0.61097 0.0
H1503 H 0.53822 0.49231 0.61105 0.0
C1504 C 0.14062 0.77253 0.14251 0.0
C1505 C 0.13989 0.80943 0.13101 0.0
C1506 C 0.13953 0.70059 0.14247 0.0
C1507 C 0.11917 0.56632 0.12349 0.0
H1508 H 0.14426 0.44101 0.146 0.0
C1509 C 0.11564 0.26949 0.12082 0.0
C1510 C 0.1164 0.23264 0.13232 0.0
C1511 C 0.11666 0.34145 0.12085 0.0
C1512 C 0.13698 0.47577 0.13982 0.0
H1513 H 0.13928 0.80035 0.11044 0.0
H1514 H 0.13752 0.67422 0.11042 0.0
H1515 H 0.15302 0.56268 0.14508 0.0
H1516 H 0.11697 0.24181 0.1529 0.0
H1517 H 0.11862 0.36794 0.1529 0.0
H1518 H 0.10313 0.47939 0.11824 0.0
C1519 C 0.13853 0.70118 0.11942 0.0
C1520 C 0.14209 0.54498 0.13922 0.0
C1521 C 0.13963 0.77316 0.11945 0.0
C1522 C 0.11661 0.26895 0.14388 0.0
C1523 C 0.11764 0.34094 0.1439 0.0
C1524 C 0.11406 0.49711 0.1241 0.0
C1525 C 0.13775 0.66472 0.13095 0.0
C1526 C 0.13323 0.59068 0.13104 0.0
C1527 C 0.11841 0.37737 0.13237 0.0
C1528 C 0.12291 0.45141 0.13228 0.0
H1529 H 0.141 0.79923 0.15156 0.0
H1530 H 0.13894 0.6735 0.15149 0.0
H1531 H 0.11188 0.60109 0.11732 0.0
H1532 H 0.11529 0.24276 0.11177 0.0
H1533 H 0.11724 0.36852 0.11184 0.0
C1534 C 0.85579 0.19271 0.11914 0.0
C1535 C 0.85547 0.15638 0.13071 0.0
C1536 C 0.85692 0.26469 0.11912 0.0
C1537 C 0.85333 0.42083 0.13891 0.0
H1538 H 0.89233 0.48643 0.11798 0.0
C1539 C 0.8788 0.69687 0.14358 0.0
C1540 C 0.87904 0.7332 0.13202 0.0
C1541 C 0.87776 0.62489 0.14361 0.0
C1542 C 0.88139 0.46872 0.12383 0.0
H1543 H 0.85429 0.16651 0.15125 0.0
H1544 H 0.85639 0.29223 0.15118 0.0
H1545 H 0.88358 0.36475 0.11706 0.0
H1546 H 0.88019 0.7231 0.11147 0.0
H1547 H 0.87824 0.59733 0.11155 0.0
H1548 H 0.85114 0.52479 0.14568 0.0
C1549 C 0.85582 0.26518 0.14217 0.0
C1550 C 0.87628 0.3995 0.12322 0.0
C1551 C 0.85471 0.19324 0.1422 0.0
C1552 C 0.87983 0.69636 0.12053 0.0
C1553 C 0.8788 0.6244 0.12056 0.0
C1554 C 0.85844 0.49004 0.13952 0.0
C1555 C 0.85767 0.3011 0.13065 0.0
C1556 C 0.8622 0.37513 0.13075 0.0
C1557 C 0.87702 0.58846 0.13208 0.0
C1558 C 0.87252 0.51441 0.13199 0.0
H1559 H 0.85616 0.16557 0.11013 0.0
H1560 H 0.85797 0.29168 0.11012 0.0
H1561 H 0.84238 0.40313 0.14475 0.0
H1562 H 0.87842 0.72401 0.15259 0.0
H1563 H 0.87677 0.59787 0.15261 0.0
C1564 C 0.13962 0.19397 0.39366 0.0
C1565 C 0.13989 0.1577 0.38209 0.0
C1566 C 0.13852 0.26593 0.39368 0.0
C1567 C 0.14208 0.42218 0.37389 0.0
H1568 H 0.10312 0.48737 0.39485 0.0
C1569 C 0.11661 0.69796 0.36922 0.0
C1570 C 0.1164 0.73427 0.38078 0.0
C1571 C 0.11764 0.62599 0.3692 0.0
C1572 C 0.11405 0.46977 0.389 0.0
H1573 H 0.141 0.16793 0.36154 0.0
H1574 H 0.13893 0.29364 0.36162 0.0
H1575 H 0.11187 0.36576 0.39578 0.0
H1576 H 0.11529 0.72412 0.40133 0.0
H1577 H 0.11723 0.59837 0.40127 0.0
H1578 H 0.14426 0.52617 0.36711 0.0
C1579 C 0.13952 0.26655 0.37063 0.0
C1580 C 0.11915 0.4006 0.3896 0.0
C1581 C 0.14062 0.19462 0.3706 0.0
C1582 C 0.11563 0.6974 0.39228 0.0
C1583 C 0.11665 0.62545 0.39225 0.0
C1584 C 0.13697 0.49134 0.37329 0.0
C1585 C 0.13774 0.30239 0.38216 0.0
C1586 C 0.13322 0.37638 0.38206 0.0
C1587 C 0.1184 0.58956 0.38073 0.0
C1588 C 0.12291 0.51556 0.38083 0.0
H1589 H 0.13927 0.16677 0.40266 0.0
H1590 H 0.1375 0.29288 0.40269 0.0
H1591 H 0.15301 0.40459 0.36804 0.0
H1592 H 0.11697 0.72512 0.36021 0.0
H1593 H 0.11861 0.599 0.3602 0.0
C1594 C 0.87835 0.27507 0.36942 0.0
C1595 C 0.87911 0.23787 0.38088 0.0
C1596 C 0.87736 0.34705 0.3696 0.0
C1597 C 0.85976 0.48065 0.39007 0.0
H1598 H 0.88175 0.60698 0.3661 0.0
C1599 C 0.85617 0.7776 0.39319 0.0
C1600 C 0.85541 0.81453 0.3817 0.0
C1601 C 0.85737 0.70566 0.39307 0.0
C1602 C 0.87532 0.57195 0.37272 0.0
H1603 H 0.88131 0.24643 0.40141 0.0
H1604 H 0.87972 0.3725 0.40167 0.0
H1605 H 0.89052 0.48529 0.36625 0.0
H1606 H 0.85342 0.80546 0.36117 0.0
H1607 H 0.85535 0.67946 0.36101 0.0
H1608 H 0.84454 0.56725 0.39652 0.0
C1609 C 0.87947 0.34581 0.39261 0.0
C1610 C 0.88045 0.50272 0.37286 0.0
C1611 C 0.88045 0.27385 0.39244 0.0
C1612 C 0.85428 0.77826 0.37016 0.0
C1613 C 0.85546 0.70635 0.37005 0.0
C1614 C 0.85463 0.54987 0.38992 0.0
C1615 C 0.87717 0.3826 0.38123 0.0
C1616 C 0.8727 0.45664 0.38154 0.0
C1617 C 0.85776 0.66988 0.38147 0.0
C1618 C 0.86235 0.59594 0.38123 0.0
H1619 H 0.87745 0.2486 0.36036 0.0
H1620 H 0.87558 0.37442 0.3607 0.0
H1621 H 0.85332 0.44561 0.39667 0.0
H1622 H 0.85692 0.80429 0.40224 0.0
H1623 H 0.85914 0.67856 0.402 0.0
C1624 C 0.85451 0.19437 0.87003 0.0
C1625 C 0.85563 0.15804 0.88157 0.0
C1626 C 0.85569 0.26629 0.86993 0.0
C1627 C 0.8548 0.42258 0.8898 0.0
H1628 H 0.89074 0.48768 0.86618 0.0
C1629 C 0.88051 0.69892 0.89232 0.0
C1630 C 0.87912 0.73486 0.88075 0.0
C1631 C 0.87958 0.62695 0.8925 0.0
C1632 C 0.88066 0.47009 0.87278 0.0
H1633 H 0.85711 0.16814 0.90211 0.0
H1634 H 0.85932 0.2939 0.90189 0.0
H1635 H 0.882 0.36588 0.86603 0.0
H1636 H 0.87746 0.72413 0.86024 0.0
H1637 H 0.87569 0.59826 0.86059 0.0
H1638 H 0.85346 0.52681 0.89655 0.0
C1639 C 0.85757 0.26683 0.89295 0.0
C1640 C 0.87555 0.40081 0.87263 0.0
C1641 C 0.85637 0.19489 0.89307 0.0
C1642 C 0.87838 0.69767 0.8693 0.0
C1643 C 0.87745 0.62568 0.86949 0.0
C1644 C 0.85992 0.49185 0.88996 0.0
C1645 C 0.85797 0.30269 0.88135 0.0
C1646 C 0.86255 0.37665 0.88112 0.0
C1647 C 0.87731 0.59013 0.88112 0.0
C1648 C 0.87288 0.51604 0.88144 0.0
H1649 H 0.85367 0.16722 0.86104 0.0
H1650 H 0.85558 0.29324 0.86089 0.0
H1651 H 0.8447 0.40505 0.89639 0.0
H1652 H 0.88135 0.72635 0.90128 0.0
H1653 H 0.87987 0.60025 0.90156 0.0
C1654 C 0.11669 0.27216 0.86921 0.0
C1655 C 0.11647 0.2358 0.88077 0.0
C1656 C 0.11773 0.34415 0.86919 0.0
C1657 C 0.11413 0.50025 0.88899 0.0
H1658 H 0.15311 0.56588 0.86804 0.0
C1659 C 0.13971 0.77629 0.89365 0.0
C1660 C 0.13998 0.8126 0.88208 0.0
C1661 C 0.1386 0.70431 0.89367 0.0
C1662 C 0.14217 0.54816 0.87389 0.0
H1663 H 0.11534 0.24584 0.90132 0.0
H1664 H 0.11729 0.37161 0.90126 0.0
H1665 H 0.14436 0.44422 0.86711 0.0
H1666 H 0.14111 0.80245 0.86153 0.0
H1667 H 0.13905 0.67672 0.86161 0.0
H1668 H 0.11196 0.60421 0.89577 0.0
C1669 C 0.11672 0.34457 0.89224 0.0
C1670 C 0.13706 0.47896 0.87328 0.0
C1671 C 0.11569 0.27261 0.89227 0.0
C1672 C 0.14072 0.77573 0.87059 0.0
C1673 C 0.13963 0.70379 0.87063 0.0
C1674 C 0.11924 0.56946 0.88959 0.0
C1675 C 0.11849 0.38053 0.88072 0.0
C1676 C 0.123 0.45458 0.88082 0.0
C1677 C 0.13783 0.66789 0.88215 0.0
C1678 C 0.13331 0.59385 0.88206 0.0
H1679 H 0.11706 0.24505 0.8602 0.0
H1680 H 0.11872 0.37118 0.86019 0.0
H1681 H 0.1032 0.48252 0.89484 0.0
H1682 H 0.13935 0.80345 0.90266 0.0
H1683 H 0.13758 0.67732 0.90268 0.0
C1684 C 0.8545 0.7783 0.64259 0.0
C1685 C 0.8556 0.81463 0.63105 0.0
C1686 C 0.85569 0.70639 0.64269 0.0
C1687 C 0.85479 0.55006 0.62282 0.0
H1688 H 0.89075 0.48535 0.64645 0.0
C1689 C 0.88052 0.27398 0.62031 0.0
C1690 C 0.87916 0.23802 0.63187 0.0
C1691 C 0.87959 0.34594 0.62013 0.0
C1692 C 0.88066 0.50283 0.63985 0.0
H1693 H 0.85705 0.80453 0.61051 0.0
H1694 H 0.85928 0.6788 0.61074 0.0
H1695 H 0.882 0.60706 0.6466 0.0
H1696 H 0.87752 0.24874 0.65239 0.0
H1697 H 0.87574 0.37459 0.65204 0.0
H1698 H 0.85345 0.44581 0.61608 0.0
C1699 C 0.85753 0.70585 0.61967 0.0
C1700 C 0.87555 0.57205 0.64 0.0
C1701 C 0.85633 0.77778 0.61956 0.0
C1702 C 0.87843 0.27521 0.64333 0.0
C1703 C 0.87749 0.3472 0.64314 0.0
C1704 C 0.85991 0.48084 0.62267 0.0
C1705 C 0.85796 0.67 0.63127 0.0
C1706 C 0.86255 0.59608 0.6315 0.0
C1707 C 0.87732 0.38274 0.63151 0.0
C1708 C 0.87288 0.45678 0.63118 0.0
H1709 H 0.85367 0.80544 0.65158 0.0
H1710 H 0.8556 0.67944 0.65173 0.0
H1711 H 0.84468 0.56748 0.61623 0.0
H1712 H 0.88136 0.24656 0.61134 0.0
H1713 H 0.87985 0.37264 0.61107 0.0
C1714 C 0.13915 0.19737 0.61974 0.0
C1715 C 0.13993 0.16048 0.63123 0.0
C1716 C 0.13794 0.26931 0.61986 0.0
C1717 C 0.12002 0.403 0.64022 0.0
H1718 H 0.14203 0.52937 0.61627 0.0
C1719 C 0.11719 0.69984 0.64357 0.0
C1720 C 0.11641 0.73708 0.63212 0.0
C1721 C 0.11812 0.62785 0.64338 0.0
C1722 C 0.13559 0.49431 0.62287 0.0
H1723 H 0.14195 0.16957 0.65176 0.0
H1724 H 0.14002 0.29557 0.65192 0.0
H1725 H 0.15079 0.40769 0.6164 0.0
H1726 H 0.11411 0.72864 0.61159 0.0
H1727 H 0.1156 0.60256 0.61131 0.0
H1728 H 0.10485 0.48968 0.64671 0.0
C1729 C 0.13989 0.26866 0.64288 0.0
C1730 C 0.14071 0.42508 0.62301 0.0
C1731 C 0.14107 0.19676 0.64277 0.0
C1732 C 0.11499 0.70117 0.62055 0.0
C1733 C 0.11592 0.62922 0.62037 0.0
C1734 C 0.11491 0.47224 0.64009 0.0
C1735 C 0.13757 0.3051 0.63146 0.0
C1736 C 0.13298 0.37902 0.6317 0.0
C1737 C 0.11823 0.59236 0.63174 0.0
C1738 C 0.12266 0.51832 0.63141 0.0
H1739 H 0.13839 0.17066 0.6107 0.0
H1740 H 0.13616 0.2964 0.61093 0.0
H1741 H 0.11359 0.36796 0.64683 0.0
H1742 H 0.11814 0.72626 0.65263 0.0
H1743 H 0.11991 0.60041 0.65227 0.0
C1744 C 0.61462 0.77268 0.1204 0.0
C1745 C 0.616 0.73674 0.13196 0.0
C1746 C 0.61555 0.84465 0.12022 0.0
C1747 C 0.61449 0.00152 0.13993 0.0
H1748 H 0.65044 0.06653 0.11631 0.0
C1749 C 0.64063 0.27726 0.14265 0.0
C1750 C 0.63951 0.31357 0.13111 0.0
C1751 C 0.63945 0.20534 0.14276 0.0
C1752 C 0.64034 0.049 0.1229 0.0
H1753 H 0.61767 0.74748 0.15248 0.0
H1754 H 0.61944 0.87335 0.15212 0.0
H1755 H 0.64168 0.94477 0.11616 0.0
H1756 H 0.63803 0.30344 0.11058 0.0
H1757 H 0.63582 0.17768 0.11081 0.0
H1758 H 0.61315 0.10575 0.14667 0.0
C1759 C 0.61768 0.84593 0.14323 0.0
C1760 C 0.63522 0.97973 0.12275 0.0
C1761 C 0.61674 0.77393 0.14342 0.0
C1762 C 0.63877 0.27671 0.11962 0.0
C1763 C 0.63757 0.20476 0.11974 0.0
C1764 C 0.61959 0.0708 0.14007 0.0
C1765 C 0.61783 0.88147 0.13159 0.0
C1766 C 0.62226 0.95556 0.13127 0.0
C1767 C 0.63717 0.16892 0.13134 0.0
C1768 C 0.63259 0.09495 0.13158 0.0
H1769 H 0.61377 0.74525 0.11143 0.0
H1770 H 0.61527 0.87134 0.11116 0.0
H1771 H 0.60441 0.98395 0.14653 0.0
H1772 H 0.64147 0.30442 0.15165 0.0
H1773 H 0.63956 0.1784 0.1518 0.0
C1774 C 0.35547 0.69316 0.11933 0.0
C1775 C 0.35516 0.65685 0.1309 0.0
C1776 C 0.35657 0.76514 0.11931 0.0
C1777 C 0.35292 0.92126 0.13909 0.0
H1778 H 0.39197 -0.01306 0.11822 0.0
C1779 C 0.37836 0.19728 0.14382 0.0
C1780 C 0.37862 0.23363 0.13226 0.0
C1781 C 0.37734 0.12529 0.14384 0.0
C1782 C 0.38102 0.9692 0.12405 0.0
H1783 H 0.35397 0.66698 0.15145 0.0
H1784 H 0.35602 0.79271 0.15137 0.0
H1785 H 0.38322 0.86525 0.11727 0.0
H1786 H 0.37981 0.22358 0.11171 0.0
H1787 H 0.37787 0.09781 0.11177 0.0
H1788 H 0.35071 0.0252 0.14587 0.0
C1789 C 0.35547 0.76565 0.14236 0.0
C1790 C 0.37591 0.89998 0.12343 0.0
C1791 C 0.35439 0.69371 0.14239 0.0
C1792 C 0.37943 0.19682 0.12076 0.0
C1793 C 0.37841 0.12486 0.12079 0.0
C1794 C 0.35803 -0.00954 0.13971 0.0
C1795 C 0.3573 0.80155 0.13083 0.0
C1796 C 0.36182 0.87559 0.13094 0.0
C1797 C 0.37662 0.0889 0.13231 0.0
C1798 C 0.37212 0.01485 0.1322 0.0
H1799 H 0.35586 0.666 0.11033 0.0
H1800 H 0.35761 0.79214 0.11031 0.0
H1801 H 0.34196 0.90353 0.14492 0.0
H1802 H 0.37797 0.22439 0.15283 0.0
H1803 H 0.37633 0.09825 0.15284 0.0
C1804 C 0.61461 0.19698 0.39235 0.0
C1805 C 0.61602 0.23292 0.38078 0.0
C1806 C 0.61553 0.12502 0.39253 0.0
C1807 C 0.6145 0.96811 0.37282 0.0
H1808 H 0.6504 0.90347 0.39651 0.0
C1809 C 0.64066 0.69265 0.37015 0.0
C1810 C 0.63952 0.65632 0.38169 0.0
C1811 C 0.63948 0.76455 0.37004 0.0
C1812 C 0.64031 0.92089 0.3899 0.0
H1813 H 0.61774 0.22218 0.36027 0.0
H1814 H 0.6195 0.09632 0.36063 0.0
H1815 H 0.64164 0.02515 0.39664 0.0
H1816 H 0.638 0.66642 0.40222 0.0
H1817 H 0.63577 0.79216 0.40199 0.0
H1818 H 0.61318 0.86386 0.36608 0.0
C1819 C 0.61772 0.12373 0.36953 0.0
C1820 C 0.6352 -0.00988 0.39004 0.0
C1821 C 0.61678 0.19572 0.36933 0.0
C1822 C 0.63875 0.69317 0.39318 0.0
C1823 C 0.63755 0.7651 0.39306 0.0
C1824 C 0.61961 0.89888 0.37269 0.0
C1825 C 0.61783 0.08821 0.38116 0.0
C1826 C 0.62226 0.01416 0.3815 0.0
C1827 C 0.63717 0.80094 0.38145 0.0
C1828 C 0.63258 0.87486 0.38121 0.0
H1829 H 0.61373 0.22441 0.40131 0.0
H1830 H 0.61522 0.09833 0.40159 0.0
H1831 H 0.60444 -0.01442 0.3662 0.0
H1832 H 0.64153 0.6655 0.36115 0.0
H1833 H 0.6396 0.79149 0.361 0.0
C1834 C 0.38019 0.77108 0.3924 0.0
C1835 C 0.37875 0.73516 0.38084 0.0
C1836 C 0.37924 0.84304 0.39258 0.0
C1837 C 0.38014 1e-05 0.37286 0.0
H1838 H 0.34436 0.06453 0.39662 0.0
C1839 C 0.35397 0.27551 0.37024 0.0
C1840 C 0.35517 0.31178 0.38178 0.0
C1841 C 0.35515 0.2036 0.37013 0.0
C1842 C 0.35442 0.04714 0.38999 0.0
H1843 H 0.37695 0.74596 0.36033 0.0
H1844 H 0.37514 0.8718 0.36069 0.0
H1845 H 0.35313 0.94286 0.39673 0.0
H1846 H 0.35679 0.30157 0.4023 0.0
H1847 H 0.35901 0.17583 0.40207 0.0
H1848 H 0.38143 0.10429 0.36611 0.0
C1849 C 0.37697 0.84438 0.36958 0.0
C1850 C 0.35954 0.97792 0.39012 0.0
C1851 C 0.37793 0.77239 0.36939 0.0
C1852 C 0.35599 0.27487 0.39326 0.0
C1853 C 0.35719 0.20293 0.39314 0.0
C1854 C 0.37503 0.06924 0.37274 0.0
C1855 C 0.37688 0.87988 0.38121 0.0
C1856 C 0.37244 0.95392 0.38155 0.0
C1857 C 0.35751 0.16715 0.38154 0.0
C1858 C 0.3621 0.09322 0.38128 0.0
H1859 H 0.3811 0.74363 0.40136 0.0
H1860 H 0.37957 0.8697 0.40164 0.0
H1861 H 0.39018 0.98258 0.36622 0.0
H1862 H 0.35306 0.3027 0.36125 0.0
H1863 H 0.35498 0.17671 0.36109 0.0
C1864 C 0.356 0.69728 0.89323 0.0
C1865 C 0.35526 0.66043 0.88174 0.0
C1866 C 0.35721 0.76923 0.89312 0.0
C1867 C 0.37519 0.90319 0.87278 0.0
H1868 H 0.35311 0.02923 0.8967 0.0
C1869 C 0.37805 0.20007 0.86944 0.0
C1870 C 0.37878 0.23726 0.8809 0.0
C1871 C 0.37711 0.12807 0.86963 0.0
C1872 C 0.35957 -0.00574 0.89011 0.0
H1873 H 0.35331 0.66959 0.86121 0.0
H1874 H 0.35523 0.79561 0.86105 0.0
H1875 H 0.34435 0.90747 0.89655 0.0
H1876 H 0.38102 0.22876 0.90143 0.0
H1877 H 0.37952 0.10266 0.9017 0.0
H1878 H 0.39038 -0.00995 0.86633 0.0
C1879 C 0.35533 0.76866 0.87009 0.0
C1880 C 0.35445 0.92499 0.88996 0.0
C1881 C 0.35415 0.69675 0.8702 0.0
C1882 C 0.38016 0.20132 0.89246 0.0
C1883 C 0.37924 0.12936 0.89264 0.0
C1884 C 0.3803 0.97248 0.87293 0.0
C1885 C 0.35761 0.80507 0.88151 0.0
C1886 C 0.3622 0.87904 0.88128 0.0
C1887 C 0.37696 0.09253 0.88127 0.0
C1888 C 0.37253 0.01844 0.88159 0.0
H1889 H 0.35673 0.67054 0.90228 0.0
H1890 H 0.35896 0.7963 0.90205 0.0
H1891 H 0.38164 0.86825 0.86618 0.0
H1892 H 0.37712 0.22653 0.86038 0.0
H1893 H 0.37535 0.10065 0.86073 0.0
C1894 C 0.64072 0.27902 0.87021 0.0
C1895 C 0.63961 0.31529 0.88175 0.0
C1896 C 0.63954 0.2071 0.87011 0.0
C1897 C 0.64042 0.05066 0.88998 0.0
H1898 H 0.60448 -0.0143 0.86634 0.0
C1899 C 0.61465 0.77438 0.89252 0.0
C1900 C 0.61598 0.73842 0.88096 0.0
C1901 C 0.61561 0.84635 0.89268 0.0
C1902 C 0.61457 0.00324 0.87294 0.0
H1903 H 0.63814 0.30507 0.90229 0.0
H1904 H 0.63592 0.17931 0.90206 0.0
H1905 H 0.61324 0.10748 0.86618 0.0
H1906 H 0.6176 0.74916 0.86044 0.0
H1907 H 0.61944 0.87501 0.86077 0.0
H1908 H 0.64176 0.94642 0.89673 0.0
C1909 C 0.63767 0.20642 0.89313 0.0
C1910 C 0.61968 0.07251 0.87279 0.0
C1911 C 0.63888 0.27837 0.89324 0.0
C1912 C 0.6167 0.77562 0.8695 0.0
C1913 C 0.61768 0.84761 0.86967 0.0
C1914 C 0.6353 0.9814 0.89013 0.0
C1915 C 0.63726 0.17063 0.88152 0.0
C1916 C 0.63268 0.09664 0.88129 0.0
C1917 C 0.61788 0.88316 0.8813 0.0
C1918 C 0.62234 0.95724 0.88161 0.0
H1919 H 0.64155 0.30622 0.86122 0.0
H1920 H 0.63964 0.1802 0.86107 0.0
H1921 H 0.65053 0.06816 0.89657 0.0
H1922 H 0.61381 0.74695 0.90149 0.0
H1923 H 0.61536 0.87304 0.90174 0.0
C1924 C 0.37853 0.77441 0.64377 0.0
C1925 C 0.37877 0.73808 0.63221 0.0
C1926 C 0.37749 0.84639 0.64378 0.0
C1927 C 0.38107 0.00259 0.62397 0.0
H1928 H 0.3421 0.06776 0.64493 0.0
C1929 C 0.35549 0.2784 0.61931 0.0
C1930 C 0.35521 0.31467 0.63087 0.0
C1931 C 0.3566 0.20643 0.61928 0.0
C1932 C 0.35303 0.05017 0.63908 0.0
H1933 H 0.3799 0.74819 0.61166 0.0
H1934 H 0.37793 0.87393 0.61172 0.0
H1935 H 0.35086 0.94618 0.64586 0.0
H1936 H 0.35409 0.30444 0.65142 0.0
H1937 H 0.35616 0.17873 0.65134 0.0
H1938 H 0.38324 0.10659 0.61719 0.0
C1939 C 0.3785 0.84688 0.62073 0.0
C1940 C 0.35815 0.98102 0.63968 0.0
C1941 C 0.37954 0.77493 0.62071 0.0
C1942 C 0.35448 0.27775 0.64237 0.0
C1943 C 0.35557 0.20581 0.64233 0.0
C1944 C 0.37596 0.07175 0.62336 0.0
C1945 C 0.37673 0.88279 0.63225 0.0
C1946 C 0.37221 0.9568 0.63215 0.0
C1947 C 0.35737 0.16997 0.63081 0.0
C1948 C 0.36189 0.09597 0.6309 0.0
H1949 H 0.37817 0.74727 0.65278 0.0
H1950 H 0.37649 0.87339 0.65278 0.0
H1951 H 0.392 0.98499 0.61812 0.0
H1952 H 0.35584 0.3056 0.6103 0.0
H1953 H 0.35762 0.17948 0.61028 0.0
C1954 C 0.63893 0.69307 0.61952 0.0
C1955 C 0.63969 0.65615 0.63101 0.0
C1956 C 0.63772 0.76501 0.61964 0.0
C1957 C 0.61977 0.89873 0.63999 0.0
H1958 H 0.64179 0.02507 0.61604 0.0
C1959 C 0.61679 0.1956 0.6433 0.0
C1960 C 0.61603 0.2328 0.63184 0.0
C1961 C 0.61777 0.12362 0.64312 0.0
C1962 C 0.63535 -0.00998 0.62264 0.0
H1963 H 0.64168 0.66524 0.65154 0.0
H1964 H 0.63975 0.79123 0.6517 0.0
H1965 H 0.65056 0.90342 0.61619 0.0
H1966 H 0.61382 0.22426 0.61131 0.0
H1967 H 0.61538 0.09819 0.61105 0.0
H1968 H 0.60458 0.98539 0.64646 0.0
C1969 C 0.63963 0.76434 0.64266 0.0
C1970 C 0.64047 0.9208 0.62279 0.0
C1971 C 0.64082 0.69243 0.64255 0.0
C1972 C 0.61468 0.19684 0.62028 0.0
C1973 C 0.61565 0.12488 0.62011 0.0
C1974 C 0.61465 0.96796 0.63985 0.0
C1975 C 0.63733 0.8008 0.63124 0.0
C1976 C 0.63274 0.87474 0.63148 0.0
C1977 C 0.61794 0.08808 0.63149 0.0
C1978 C 0.6224 0.01404 0.63117 0.0
H1979 H 0.63818 0.66638 0.61048 0.0
H1980 H 0.63595 0.79211 0.61071 0.0
H1981 H 0.61334 0.8637 0.6466 0.0
H1982 H 0.6177 0.22207 0.65235 0.0
H1983 H 0.61954 0.09623 0.65202 0.0
loop_
_geom_bond_atom_site_label_1
_geom_bond_atom_site_label_2
_geom_bond_distance
_geom_bond_site_symmetry_2
_ccdc_geom_bond_type
C0 O16 1.251 . S
C0 O18 1.254 . S
N1 C2 1.333 . S
N1 C6 1.307 . S
N1 Zn7 2.020 . S
C2 N1 1.333 . S
C2 C3 1.379 . S
C2 H20 0.952 . S
C3 C2 1.379 . S
C3 C4 1.390 . S
C3 H30 0.949 . S
C4 C3 1.390 . S
C4 C5 1.357 . S
C5 C4 1.357 . S
C5 C6 1.370 . S
C5 H31 0.950 . S
C6 N1 1.307 . S
C6 C5 1.370 . S
C6 H24 0.948 . S
Zn7 N1 2.020 . S
Zn7 O16 2.039 . S
Zn7 O22 2.034 . S
Zn7 O26 2.025 1_545 S
Zn7 O28 2.024 . S
C8 O27 1.246 . S
C8 O28 1.249 . S
N9 C10 1.307 . S
N9 C11 1.333 . S
N9 Zn15 2.020 . S
C10 N9 1.307 . S
C10 C14 1.370 . S
C10 H21 0.948 . S
C11 N9 1.333 . S
C11 C12 1.379 . S
C11 H19 0.952 . S
C12 C11 1.379 . S
C12 C13 1.390 . S
C12 H32 0.949 1_545 S
C13 C12 1.390 . S
C13 C14 1.357 . S
C14 C10 1.370 . S
C14 C13 1.357 . S
C14 H33 0.950 . S
Zn15 N9 2.020 . S
Zn15 O18 2.025 . S
Zn15 O23 2.024 . S
Zn15 O25 2.039 1_545 S
Zn15 O27 2.034 . S
O16 C0 1.251 . S
O16 Zn7 2.039 . S
C17 O22 1.246 . S
C17 O23 1.249 . S
O18 C0 1.254 . S
O18 Zn15 2.025 . S
H19 C11 0.952 . S
H20 C2 0.952 . S
H21 C10 0.948 . S
O22 Zn7 2.034 . S
O22 C17 1.246 . S
O23 Zn15 2.024 . S
O23 C17 1.249 . S
H24 C6 0.948 . S
O25 Zn15 2.039 1_565 S
O25 C29 1.251 . S
O26 Zn7 2.025 1_565 S
O26 C29 1.254 . S
O27 C8 1.246 . S
O27 Zn15 2.034 . S
O28 Zn7 2.024 . S
O28 C8 1.249 . S
C29 O25 1.251 . S
C29 O26 1.254 . S
H30 C3 0.949 . S
H31 C5 0.950 . S
H32 C12 0.949 1_565 S
H33 C14 0.950 . S
C34 O50 1.251 . S
C34 O52 1.254 . S
N35 C36 1.333 . S
N35 C40 1.307 . S
N35 Zn41 2.020 . S
C36 N35 1.333 . S
C36 C37 1.379 . S
C36 H54 0.952 . S
C37 C36 1.379 . S
C37 C38 1.390 . S
C37 H64 0.949 . S
C38 C37 1.390 . S
C38 C39 1.357 . S
C39 C38 1.357 . S
C39 C40 1.370 . S
C39 H65 0.950 . S
C40 N35 1.307 . S
C40 C39 1.370 . S
C40 H58 0.948 . S
Zn41 N35 2.020 . S
Zn41 O50 2.039 . S
Zn41 O56 2.034 . S
Zn41 O60 2.025 1_565 S
Zn41 O62 2.024 . S
C42 O61 1.246 . S
C42 O62 1.249 . S
N43 C44 1.307 . S
N43 C45 1.333 . S
N43 Zn49 2.020 . S
C44 N43 1.307 . S
C44 C48 1.370 . S
C44 H55 0.948 . S
C45 N43 1.333 . S
C45 C46 1.379 . S
C45 H53 0.952 . S
C46 C45 1.379 . S
C46 C47 1.390 . S
C46 H66 0.949 1_565 S
C47 C46 1.390 . S
C47 C48 1.357 . S
C48 C44 1.370 . S
C48 C47 1.357 . S
C48 H67 0.950 . S
Zn49 N43 2.020 . S
Zn49 O52 2.025 . S
Zn49 O57 2.024 . S
Zn49 O59 2.039 1_565 S
Zn49 O61 2.034 . S
O50 C34 1.251 . S
O50 Zn41 2.039 . S
C51 O56 1.246 . S
C51 O57 1.249 . S
O52 C34 1.254 . S
O52 Zn49 2.025 . S
H53 C45 0.952 . S
H54 C36 0.952 . S
H55 C44 0.948 . S
O56 Zn41 2.034 . S
O56 C51 1.246 . S
O57 Zn49 2.024 . S
O57 C51 1.249 . S
H58 C40 0.948 . S
O59 Zn49 2.039 1_545 S
O59 C63 1.251 . S
O60 Zn41 2.025 1_545 S
O60 C63 1.254 . S
O61 C42 1.246 . S
O61 Zn49 2.034 . S
O62 Zn41 2.024 . S
O62 C42 1.249 . S
C63 O59 1.251 . S
C63 O60 1.254 . S
H64 C37 0.949 . S
H65 C39 0.950 . S
H66 C46 0.949 1_545 S
H67 C48 0.950 . S
C68 O84 1.251 . S
C68 O86 1.254 . S
N69 C70 1.333 . S
N69 C74 1.307 . S
N69 Zn75 2.020 . S
C70 N69 1.333 . S
C70 C71 1.379 . S
C70 H88 0.952 . S
C71 C70 1.379 . S
C71 C72 1.390 . S
C71 H98 0.949 . S
C72 C71 1.390 . S
C72 C73 1.357 . S
C73 C72 1.357 . S
C73 C74 1.370 . S
C73 H99 0.950 . S
C74 N69 1.307 . S
C74 C73 1.370 . S
C74 H92 0.948 . S
Zn75 N69 2.020 . S
Zn75 O84 2.039 . S
Zn75 O90 2.034 . S
Zn75 O94 2.025 1_565 S
Zn75 O96 2.024 . S
C76 O95 1.246 . S
C76 O96 1.249 . S
N77 C78 1.307 . S
N77 C79 1.333 . S
N77 Zn83 2.020 . S
C78 N77 1.307 . S
C78 C82 1.370 . S
C78 H89 0.948 . S
C79 N77 1.333 . S
C79 C80 1.379 . S
C79 H87 0.952 . S
C80 C79 1.379 . S
C80 C81 1.390 . S
C80 H100 0.949 1_565 S
C81 C80 1.390 . S
C81 C82 1.357 . S
C82 C78 1.370 . S
C82 C81 1.357 . S
C82 H101 0.950 . S
Zn83 N77 2.020 . S
Zn83 O86 2.025 . S
Zn83 O91 2.024 . S
Zn83 O93 2.039 1_565 S
Zn83 O95 2.034 . S
O84 C68 1.251 . S
O84 Zn75 2.039 . S
C85 O90 1.246 . S
C85 O91 1.249 . S
O86 C68 1.254 . S
O86 Zn83 2.025 . S
H87 C79 0.952 . S
H88 C70 0.952 . S
H89 C78 0.948 . S
O90 Zn75 2.034 . S
O90 C85 1.246 . S
O91 Zn83 2.024 . S
O91 C85 1.249 . S
H92 C74 0.948 . S
O93 Zn83 2.039 1_545 S
O93 C97 1.251 . S
O94 Zn75 2.025 1_545 S
O94 C97 1.254 . S
O95 C76 1.246 . S
O95 Zn83 2.034 . S
O96 Zn75 2.024 . S
O96 C76 1.249 . S
C97 O93 1.251 . S
C97 O94 1.254 . S
H98 C71 0.949 . S
H99 C73 0.950 . S
H100 C80 0.949 1_545 S
H101 C82 0.950 . S
C102 O118 1.251 . S
C102 O120 1.254 . S
N103 C104 1.333 . S
N103 C108 1.307 . S
N103 Zn109 2.020 . S
C104 N103 1.333 . S
C104 C105 1.379 . S
C104 H122 0.952 . S
C105 C104 1.379 . S
C105 C106 1.390 . S
C105 H132 0.949 . S
C106 C105 1.390 . S
C106 C107 1.357 . S
C107 C106 1.357 . S
C107 C108 1.370 . S
C107 H133 0.950 . S
C108 N103 1.307 . S
C108 C107 1.370 . S
C108 H126 0.948 . S
Zn109 N103 2.020 . S
Zn109 O118 2.039 . S
Zn109 O124 2.034 . S
Zn109 O128 2.025 1_545 S
Zn109 O130 2.024 . S
C110 O129 1.246 . S
C110 O130 1.249 . S
N111 C112 1.307 . S
N111 C113 1.333 . S
N111 Zn117 2.020 . S
C112 N111 1.307 . S
C112 C116 1.370 . S
C112 H123 0.948 . S
C113 N111 1.333 . S
C113 C114 1.379 . S
C113 H121 0.952 . S
C114 C113 1.379 . S
C114 C115 1.390 . S
C114 H134 0.949 1_545 S
C115 C114 1.390 . S
C115 C116 1.357 . S
C116 C112 1.370 . S
C116 C115 1.357 . S
C116 H135 0.950 . S
Zn117 N111 2.020 . S
Zn117 O120 2.025 . S
Zn117 O125 2.024 . S
Zn117 O127 2.039 1_545 S
Zn117 O129 2.034 . S
O118 C102 1.251 . S
O118 Zn109 2.039 . S
C119 O124 1.246 . S
C119 O125 1.249 . S
O120 C102 1.254 . S
O120 Zn117 2.025 . S
H121 C113 0.952 . S
H122 C104 0.952 . S
H123 C112 0.948 . S
O124 Zn109 2.034 . S
O124 C119 1.246 . S
O125 Zn117 2.024 . S
O125 C119 1.249 . S
H126 C108 0.948 . S
O127 Zn117 2.039 1_565 S
O127 C131 1.251 . S
O128 Zn109 2.025 1_565 S
O128 C131 1.254 . S
O129 C110 1.246 . S
O129 Zn117 2.034 . S
O130 Zn109 2.024 . S
O130 C110 1.249 . S
C131 O127 1.251 . S
C131 O128 1.254 . S
H132 C105 0.949 . S
H133 C107 0.950 . S
H134 C114 0.949 1_565 S
H135 C116 0.950 . S
C136 O152 1.251 . S
C136 O154 1.254 . S
N137 C138 1.333 . S
N137 C142 1.307 . S
N137 Zn143 2.020 . S
C138 N137 1.333 . S
C138 C139 1.379 . S
C138 H156 0.952 . S
C139 C138 1.379 . S
C139 C140 1.390 . S
C139 H166 0.949 1_565 S
C140 C139 1.390 . S
C140 C141 1.357 . S
C141 C140 1.357 . S
C141 C142 1.370 . S
C141 H167 0.950 . S
C142 N137 1.307 . S
C142 C141 1.370 . S
C142 H160 0.948 . S
Zn143 N137 2.020 . S
Zn143 O152 2.039 1_565 S
Zn143 O158 2.034 . S
Zn143 O162 2.025 . S
Zn143 O164 2.024 . S
C144 O163 1.246 . S
C144 O164 1.249 . S
N145 C146 1.307 . S
N145 C147 1.333 . S
N145 Zn151 2.020 . S
C146 N145 1.307 . S
C146 C150 1.370 . S
C146 H157 0.948 . S
C147 N145 1.333 . S
C147 C148 1.379 . S
C147 H155 0.952 . S
C148 C147 1.379 . S
C148 C149 1.390 . S
C148 H168 0.949 . S
C149 C148 1.390 . S
C149 C150 1.357 . S
C150 C146 1.370 . S
C150 C149 1.357 . S
C150 H169 0.950 . S
Zn151 N145 2.020 . S
Zn151 O154 2.025 1_565 S
Zn151 O159 2.024 . S
Zn151 O161 2.039 . S
Zn151 O163 2.034 . S
O152 C136 1.251 . S
O152 Zn143 2.039 1_545 S
C153 O158 1.246 . S
C153 O159 1.249 . S
O154 C136 1.254 . S
O154 Zn151 2.025 1_545 S
H155 C147 0.952 . S
H156 C138 0.952 . S
H157 C146 0.948 . S
O158 Zn143 2.034 . S
O158 C153 1.246 . S
O159 Zn151 2.024 . S
O159 C153 1.249 . S
H160 C142 0.948 . S
O161 Zn151 2.039 . S
O161 C165 1.251 . S
O162 Zn143 2.025 . S
O162 C165 1.254 . S
O163 C144 1.246 . S
O163 Zn151 2.034 . S
O164 Zn143 2.024 . S
O164 C144 1.249 . S
C165 O161 1.251 . S
C165 O162 1.254 . S
H166 C139 0.949 1_545 S
H167 C141 0.950 . S
H168 C148 0.949 . S
H169 C150 0.950 . S
C170 O186 1.251 . S
C170 O188 1.254 . S
N171 C172 1.333 . S
N171 C176 1.307 . S
N171 Zn177 2.020 . S
C172 N171 1.333 . S
C172 C173 1.379 . S
C172 H190 0.952 . S
C173 C172 1.379 . S
C173 C174 1.390 . S
C173 H200 0.949 1_545 S
C174 C173 1.390 . S
C174 C175 1.357 . S
C175 C174 1.357 . S
C175 C176 1.370 . S
C175 H201 0.950 . S
C176 N171 1.307 . S
C176 C175 1.370 . S
C176 H194 0.948 . S
Zn177 N171 2.020 . S
Zn177 O186 2.039 1_545 S
Zn177 O192 2.034 . S
Zn177 O196 2.025 . S
Zn177 O198 2.024 . S
C178 O197 1.246 . S
C178 O198 1.249 . S
N179 C180 1.307 . S
N179 C181 1.333 . S
N179 Zn185 2.020 . S
C180 N179 1.307 . S
C180 C184 1.370 . S
C180 H191 0.948 . S
C181 N179 1.333 . S
C181 C182 1.379 . S
C181 H189 0.952 . S
C182 C181 1.379 . S
C182 C183 1.390 . S
C182 H202 0.949 . S
C183 C182 1.390 . S
C183 C184 1.357 . S
C184 C180 1.370 . S
C184 C183 1.357 . S
C184 H203 0.950 . S
Zn185 N179 2.020 . S
Zn185 O188 2.025 1_545 S
Zn185 O193 2.024 . S
Zn185 O195 2.039 . S
Zn185 O197 2.034 . S
O186 C170 1.251 . S
O186 Zn177 2.039 1_565 S
C187 O192 1.246 . S
C187 O193 1.249 . S
O188 C170 1.254 . S
O188 Zn185 2.025 1_565 S
H189 C181 0.952 . S
H190 C172 0.952 . S
H191 C180 0.948 . S
O192 Zn177 2.034 . S
O192 C187 1.246 . S
O193 Zn185 2.024 . S
O193 C187 1.249 . S
H194 C176 0.948 . S
O195 Zn185 2.039 . S
O195 C199 1.251 . S
O196 Zn177 2.025 . S
O196 C199 1.254 . S
O197 C178 1.246 . S
O197 Zn185 2.034 . S
O198 Zn177 2.024 . S
O198 C178 1.249 . S
C199 O195 1.251 . S
C199 O196 1.254 . S
H200 C173 0.949 1_565 S
H201 C175 0.950 . S
H202 C182 0.949 . S
H203 C184 0.950 . S
C204 O220 1.251 . S
C204 O222 1.254 . S
N205 C206 1.333 . S
N205 C210 1.307 . S
N205 Zn211 2.020 . S
C206 N205 1.333 . S
C206 C207 1.379 . S
C206 H224 0.952 . S
C207 C206 1.379 . S
C207 C208 1.390 . S
C207 H234 0.949 1_545 S
C208 C207 1.390 . S
C208 C209 1.357 . S
C209 C208 1.357 . S
C209 C210 1.370 . S
C209 H235 0.950 . S
C210 N205 1.307 . S
C210 C209 1.370 . S
C210 H228 0.948 . S
Zn211 N205 2.020 . S
Zn211 O220 2.039 1_545 S
Zn211 O226 2.034 . S
Zn211 O230 2.025 . S
Zn211 O232 2.024 . S
C212 O231 1.246 . S
C212 O232 1.249 . S
N213 C214 1.307 . S
N213 C215 1.333 . S
N213 Zn219 2.020 . S
C214 N213 1.307 . S
C214 C218 1.370 . S
C214 H225 0.948 . S
C215 N213 1.333 . S
C215 C216 1.379 . S
C215 H223 0.952 . S
C216 C215 1.379 . S
C216 C217 1.390 . S
C216 H236 0.949 . S
C217 C216 1.390 . S
C217 C218 1.357 . S
C218 C214 1.370 . S
C218 C217 1.357 . S
C218 H237 0.950 . S
Zn219 N213 2.020 . S
Zn219 O222 2.025 1_545 S
Zn219 O227 2.024 . S
Zn219 O229 2.039 . S
Zn219 O231 2.034 . S
O220 C204 1.251 . S
O220 Zn211 2.039 1_565 S
C221 O226 1.246 . S
C221 O227 1.249 . S
O222 C204 1.254 . S
O222 Zn219 2.025 1_565 S
H223 C215 0.952 . S
H224 C206 0.952 . S
H225 C214 0.948 . S
O226 Zn211 2.034 . S
O226 C221 1.246 . S
O227 Zn219 2.024 . S
O227 C221 1.249 . S
H228 C210 0.948 . S
O229 Zn219 2.039 . S
O229 C233 1.251 . S
O230 Zn211 2.025 . S
O230 C233 1.254 . S
O231 C212 1.246 . S
O231 Zn219 2.034 . S
O232 Zn211 2.024 . S
O232 C212 1.249 . S
C233 O229 1.251 . S
C233 O230 1.254 . S
H234 C207 0.949 1_565 S
H235 C209 0.950 . S
H236 C216 0.949 . S
H237 C218 0.950 . S
C238 O254 1.251 . S
C238 O256 1.254 . S
N239 C240 1.333 . S
N239 C244 1.307 . S
N239 Zn245 2.020 . S
C240 N239 1.333 . S
C240 C241 1.379 . S
C240 H258 0.952 . S
C241 C240 1.379 . S
C241 C242 1.390 . S
C241 H268 0.949 1_565 S
C242 C241 1.390 . S
C242 C243 1.357 . S
C243 C242 1.357 . S
C243 C244 1.370 . S
C243 H269 0.950 . S
C244 N239 1.307 . S
C244 C243 1.370 . S
C244 H262 0.948 . S
Zn245 N239 2.020 . S
Zn245 O254 2.039 1_565 S
Zn245 O260 2.034 . S
Zn245 O264 2.025 . S
Zn245 O266 2.024 . S
C246 O265 1.246 . S
C246 O266 1.249 . S
N247 C248 1.307 . S
N247 C249 1.333 . S
N247 Zn253 2.020 . S
C248 N247 1.307 . S
C248 C252 1.370 . S
C248 H259 0.948 . S
C249 N247 1.333 . S
C249 C250 1.379 . S
C249 H257 0.952 . S
C250 C249 1.379 . S
C250 C251 1.390 . S
C250 H270 0.949 . S
C251 C250 1.390 . S
C251 C252 1.357 . S
C252 C248 1.370 . S
C252 C251 1.357 . S
C252 H271 0.950 . S
Zn253 N247 2.020 . S
Zn253 O256 2.025 1_565 S
Zn253 O261 2.024 . S
Zn253 O263 2.039 . S
Zn253 O265 2.034 . S
O254 C238 1.251 . S
O254 Zn245 2.039 1_545 S
C255 O260 1.246 . S
C255 O261 1.249 . S
O256 C238 1.254 . S
O256 Zn253 2.025 1_545 S
H257 C249 0.952 . S
H258 C240 0.952 . S
H259 C248 0.948 . S
O260 Zn245 2.034 . S
O260 C255 1.246 . S
O261 Zn253 2.024 . S
O261 C255 1.249 . S
H262 C244 0.948 . S
O263 Zn253 2.039 . S
O263 C267 1.251 . S
O264 Zn245 2.025 . S
O264 C267 1.254 . S
O265 C246 1.246 . S
O265 Zn253 2.034 . S
O266 Zn245 2.024 . S
O266 C246 1.249 . S
C267 O263 1.251 . S
C267 O264 1.254 . S
H268 C241 0.949 1_545 S
H269 C243 0.950 . S
H270 C250 0.949 . S
H271 C252 0.950 . S
C272 O288 1.251 . S
C272 O290 1.254 . S
N273 C274 1.333 . S
N273 C278 1.307 . S
N273 Zn279 2.020 . S
C274 N273 1.333 . S
C274 C275 1.379 . S
C274 H292 0.952 . S
C275 C274 1.379 . S
C275 C276 1.390 . S
C275 H302 0.949 . S
C276 C275 1.390 . S
C276 C277 1.357 . S
C277 C276 1.357 . S
C277 C278 1.370 . S
C277 H303 0.950 . S
C278 N273 1.307 . S
C278 C277 1.370 . S
C278 H296 0.948 . S
Zn279 N273 2.020 . S
Zn279 O288 2.039 . S
Zn279 O294 2.034 . S
Zn279 O298 2.025 . S
Zn279 O300 2.024 . S
C280 O299 1.246 . S
C280 O300 1.249 . S
N281 C282 1.307 . S
N281 C283 1.333 . S
N281 Zn287 2.020 . S
C282 N281 1.307 . S
C282 C286 1.370 . S
C282 H293 0.948 . S
C283 N281 1.333 . S
C283 C284 1.379 . S
C283 H291 0.952 . S
C284 C283 1.379 . S
C284 C285 1.390 . S
C284 H304 0.949 . S
C285 C284 1.390 . S
C285 C286 1.357 . S
C286 C282 1.370 . S
C286 C285 1.357 . S
C286 H305 0.950 . S
Zn287 N281 2.020 . S
Zn287 O290 2.025 . S
Zn287 O295 2.024 . S
Zn287 O297 2.039 . S
Zn287 O299 2.034 . S
O288 C272 1.251 . S
O288 Zn279 2.039 . S
C289 O294 1.246 . S
C289 O295 1.249 . S
O290 C272 1.254 . S
O290 Zn287 2.025 . S
H291 C283 0.952 . S
H292 C274 0.952 . S
H293 C282 0.948 . S
O294 Zn279 2.034 . S
O294 C289 1.246 . S
O295 Zn287 2.024 . S
O295 C289 1.249 . S
H296 C278 0.948 . S
O297 Zn287 2.039 . S
O297 C301 1.251 . S
O298 Zn279 2.025 . S
O298 C301 1.254 . S
O299 C280 1.246 . S
O299 Zn287 2.034 . S
O300 Zn279 2.024 . S
O300 C280 1.249 . S
C301 O297 1.251 . S
C301 O298 1.254 . S
H302 C275 0.949 . S
H303 C277 0.950 . S
H304 C284 0.949 . S
H305 C286 0.950 . S
C306 O322 1.251 . S
C306 O324 1.254 . S
N307 C308 1.333 . S
N307 C312 1.307 . S
N307 Zn313 2.020 . S
C308 N307 1.333 . S
C308 C309 1.379 . S
C308 H326 0.952 . S
C309 C308 1.379 . S
C309 C310 1.390 . S
C309 H336 0.949 . S
C310 C309 1.390 . S
C310 C311 1.357 . S
C311 C310 1.357 . S
C311 C312 1.370 . S
C311 H337 0.950 . S
C312 N307 1.307 . S
C312 C311 1.370 . S
C312 H330 0.948 . S
Zn313 N307 2.020 . S
Zn313 O322 2.039 . S
Zn313 O328 2.034 . S
Zn313 O332 2.025 . S
Zn313 O334 2.024 . S
C314 O333 1.246 . S
C314 O334 1.249 . S
N315 C316 1.307 . S
N315 C317 1.333 . S
N315 Zn321 2.020 . S
C316 N315 1.307 . S
C316 C320 1.370 . S
C316 H327 0.948 . S
C317 N315 1.333 . S
C317 C318 1.379 . S
C317 H325 0.952 . S
C318 C317 1.379 . S
C318 C319 1.390 . S
C318 H338 0.949 . S
C319 C318 1.390 . S
C319 C320 1.357 . S
C320 C316 1.370 . S
C320 C319 1.357 . S
C320 H339 0.950 . S
Zn321 N315 2.020 . S
Zn321 O324 2.025 . S
Zn321 O329 2.024 . S
Zn321 O331 2.039 . S
Zn321 O333 2.034 . S
O322 C306 1.251 . S
O322 Zn313 2.039 . S
C323 O328 1.246 . S
C323 O329 1.249 . S
O324 C306 1.254 . S
O324 Zn321 2.025 . S
H325 C317 0.952 . S
H326 C308 0.952 . S
H327 C316 0.948 . S
O328 Zn313 2.034 . S
O328 C323 1.246 . S
O329 Zn321 2.024 . S
O329 C323 1.249 . S
H330 C312 0.948 . S
O331 Zn321 2.039 . S
O331 C335 1.251 . S
O332 Zn313 2.025 . S
O332 C335 1.254 . S
O333 C314 1.246 . S
O333 Zn321 2.034 . S
O334 Zn313 2.024 . S
O334 C314 1.249 . S
C335 O331 1.251 . S
C335 O332 1.254 . S
H336 C309 0.949 . S
H337 C311 0.950 . S
H338 C318 0.949 . S
H339 C320 0.950 . S
C340 O356 1.251 . S
C340 O358 1.254 . S
N341 C342 1.333 . S
N341 C346 1.307 . S
N341 Zn347 2.020 . S
C342 N341 1.333 . S
C342 C343 1.379 . S
C342 H360 0.952 . S
C343 C342 1.379 . S
C343 C344 1.390 . S
C343 H370 0.949 . S
C344 C343 1.390 . S
C344 C345 1.357 . S
C345 C344 1.357 . S
C345 C346 1.370 . S
C345 H371 0.950 . S
C346 N341 1.307 . S
C346 C345 1.370 . S
C346 H364 0.948 . S
Zn347 N341 2.020 . S
Zn347 O356 2.039 . S
Zn347 O362 2.034 . S
Zn347 O366 2.025 . S
Zn347 O368 2.024 . S
C348 O367 1.246 . S
C348 O368 1.249 . S
N349 C350 1.307 . S
N349 C351 1.333 . S
N349 Zn355 2.020 . S
C350 N349 1.307 . S
C350 C354 1.370 . S
C350 H361 0.948 . S
C351 N349 1.333 . S
C351 C352 1.379 . S
C351 H359 0.952 . S
C352 C351 1.379 . S
C352 C353 1.390 . S
C352 H372 0.949 . S
C353 C352 1.390 . S
C353 C354 1.357 . S
C354 C350 1.370 . S
C354 C353 1.357 . S
C354 H373 0.950 . S
Zn355 N349 2.020 . S
Zn355 O358 2.025 . S
Zn355 O363 2.024 . S
Zn355 O365 2.039 . S
Zn355 O367 2.034 . S
O356 C340 1.251 . S
O356 Zn347 2.039 . S
C357 O362 1.246 . S
C357 O363 1.249 . S
O358 C340 1.254 . S
O358 Zn355 2.025 . S
H359 C351 0.952 . S
H360 C342 0.952 . S
H361 C350 0.948 . S
O362 Zn347 2.034 . S
O362 C357 1.246 . S
O363 Zn355 2.024 . S
O363 C357 1.249 . S
H364 C346 0.948 . S
O365 Zn355 2.039 . S
O365 C369 1.251 . S
O366 Zn347 2.025 . S
O366 C369 1.254 . S
O367 C348 1.246 . S
O367 Zn355 2.034 . S
O368 Zn347 2.024 . S
O368 C348 1.249 . S
C369 O365 1.251 . S
C369 O366 1.254 . S
H370 C343 0.949 . S
H371 C345 0.950 . S
H372 C352 0.949 . S
H373 C354 0.950 . S
C374 O390 1.251 . S
C374 O392 1.254 . S
N375 C376 1.333 . S
N375 C380 1.307 . S
N375 Zn381 2.020 . S
C376 N375 1.333 . S
C376 C377 1.379 . S
C376 H394 0.952 . S
C377 C376 1.379 . S
C377 C378 1.390 . S
C377 H404 0.949 . S
C378 C377 1.390 . S
C378 C379 1.357 . S
C379 C378 1.357 . S
C379 C380 1.370 . S
C379 H405 0.950 . S
C380 N375 1.307 . S
C380 C379 1.370 . S
C380 H398 0.948 . S
Zn381 N375 2.020 . S
Zn381 O390 2.039 . S
Zn381 O396 2.034 . S
Zn381 O400 2.025 . S
Zn381 O402 2.024 . S
C382 O401 1.246 . S
C382 O402 1.249 . S
N383 C384 1.307 . S
N383 C385 1.333 . S
N383 Zn389 2.020 . S
C384 N383 1.307 . S
C384 C388 1.370 . S
C384 H395 0.948 . S
C385 N383 1.333 . S
C385 C386 1.379 . S
C385 H393 0.952 . S
C386 C385 1.379 . S
C386 C387 1.390 . S
C386 H406 0.949 . S
C387 C386 1.390 . S
C387 C388 1.357 . S
C388 C384 1.370 . S
C388 C387 1.357 . S
C388 H407 0.950 . S
Zn389 N383 2.020 . S
Zn389 O392 2.025 . S
Zn389 O397 2.024 . S
Zn389 O399 2.039 . S
Zn389 O401 2.034 . S
O390 C374 1.251 . S
O390 Zn381 2.039 . S
C391 O396 1.246 . S
C391 O397 1.249 . S
O392 C374 1.254 . S
O392 Zn389 2.025 . S
H393 C385 0.952 . S
H394 C376 0.952 . S
H395 C384 0.948 . S
O396 Zn381 2.034 . S
O396 C391 1.246 . S
O397 Zn389 2.024 . S
O397 C391 1.249 . S
H398 C380 0.948 . S
O399 Zn389 2.039 . S
O399 C403 1.251 . S
O400 Zn381 2.025 . S
O400 C403 1.254 . S
O401 C382 1.246 . S
O401 Zn389 2.034 . S
O402 Zn381 2.024 . S
O402 C382 1.249 . S
C403 O399 1.251 . S
C403 O400 1.254 . S
H404 C377 0.949 . S
H405 C379 0.950 . S
H406 C386 0.949 . S
H407 C388 0.950 . S
C408 O424 1.251 . S
C408 O426 1.254 . S
N409 C410 1.333 . S
N409 C414 1.307 . S
N409 Zn415 2.020 . S
C410 N409 1.333 . S
C410 C411 1.379 . S
C410 H428 0.952 . S
C411 C410 1.379 . S
C411 C412 1.390 . S
C411 H438 0.949 . S
C412 C411 1.390 . S
C412 C413 1.357 . S
C413 C412 1.357 . S
C413 C414 1.370 . S
C413 H439 0.950 . S
C414 N409 1.307 . S
C414 C413 1.370 . S
C414 H432 0.948 . S
Zn415 N409 2.020 . S
Zn415 O424 2.039 . S
Zn415 O430 2.034 . S
Zn415 O434 2.025 . S
Zn415 O436 2.024 . S
C416 O435 1.246 . S
C416 O436 1.249 . S
N417 C418 1.307 . S
N417 C419 1.333 . S
N417 Zn423 2.020 . S
C418 N417 1.307 . S
C418 C422 1.370 . S
C418 H429 0.948 . S
C419 N417 1.333 . S
C419 C420 1.379 . S
C419 H427 0.952 . S
C420 C419 1.379 . S
C420 C421 1.390 . S
C420 H440 0.949 . S
C421 C420 1.390 . S
C421 C422 1.357 . S
C422 C418 1.370 . S
C422 C421 1.357 . S
C422 H441 0.950 . S
Zn423 N417 2.020 . S
Zn423 O426 2.025 . S
Zn423 O431 2.024 . S
Zn423 O433 2.039 . S
Zn423 O435 2.034 . S
O424 C408 1.251 . S
O424 Zn415 2.039 . S
C425 O430 1.246 . S
C425 O431 1.249 . S
O426 C408 1.254 . S
O426 Zn423 2.025 . S
H427 C419 0.952 . S
H428 C410 0.952 . S
H429 C418 0.948 . S
O430 Zn415 2.034 . S
O430 C425 1.246 . S
O431 Zn423 2.024 . S
O431 C425 1.249 . S
H432 C414 0.948 . S
O433 Zn423 2.039 . S
O433 C437 1.251 . S
O434 Zn415 2.025 . S
O434 C437 1.254 . S
O435 C416 1.246 . S
O435 Zn423 2.034 . S
O436 Zn415 2.024 . S
O436 C416 1.249 . S
C437 O433 1.251 . S
C437 O434 1.254 . S
H438 C411 0.949 . S
H439 C413 0.950 . S
H440 C420 0.949 . S
H441 C422 0.950 . S
C442 O458 1.251 . S
C442 O460 1.254 . S
N443 C444 1.333 . S
N443 C448 1.307 . S
N443 Zn449 2.020 . S
C444 N443 1.333 . S
C444 C445 1.379 . S
C444 H462 0.952 . S
C445 C444 1.379 . S
C445 C446 1.390 . S
C445 H472 0.949 . S
C446 C445 1.390 . S
C446 C447 1.357 . S
C447 C446 1.357 . S
C447 C448 1.370 . S
C447 H473 0.950 . S
C448 N443 1.307 . S
C448 C447 1.370 . S
C448 H466 0.948 . S
Zn449 N443 2.020 . S
Zn449 O458 2.039 . S
Zn449 O464 2.034 . S
Zn449 O468 2.025 . S
Zn449 O470 2.024 . S
C450 O469 1.246 . S
C450 O470 1.249 . S
N451 C452 1.307 . S
N451 C453 1.333 . S
N451 Zn457 2.020 . S
C452 N451 1.307 . S
C452 C456 1.370 . S
C452 H463 0.948 . S
C453 N451 1.333 . S
C453 C454 1.379 . S
C453 H461 0.952 . S
C454 C453 1.379 . S
C454 C455 1.390 . S
C454 H474 0.949 . S
C455 C454 1.390 . S
C455 C456 1.357 . S
C456 C452 1.370 . S
C456 C455 1.357 . S
C456 H475 0.950 . S
Zn457 N451 2.020 . S
Zn457 O460 2.025 . S
Zn457 O465 2.024 . S
Zn457 O467 2.039 . S
Zn457 O469 2.034 . S
O458 C442 1.251 . S
O458 Zn449 2.039 . S
C459 O464 1.246 . S
C459 O465 1.249 . S
O460 C442 1.254 . S
O460 Zn457 2.025 . S
H461 C453 0.952 . S
H462 C444 0.952 . S
H463 C452 0.948 . S
O464 Zn449 2.034 . S
O464 C459 1.246 . S
O465 Zn457 2.024 . S
O465 C459 1.249 . S
H466 C448 0.948 . S
O467 Zn457 2.039 . S
O467 C471 1.251 . S
O468 Zn449 2.025 . S
O468 C471 1.254 . S
O469 C450 1.246 . S
O469 Zn457 2.034 . S
O470 Zn449 2.024 . S
O470 C450 1.249 . S
C471 O467 1.251 . S
C471 O468 1.254 . S
H472 C445 0.949 . S
H473 C447 0.950 . S
H474 C454 0.949 . S
H475 C456 0.950 . S
C476 O492 1.251 . S
C476 O494 1.254 . S
N477 C478 1.333 . S
N477 C482 1.307 . S
N477 Zn483 2.020 . S
C478 N477 1.333 . S
C478 C479 1.379 . S
C478 H496 0.952 . S
C479 C478 1.379 . S
C479 C480 1.390 . S
C479 H506 0.949 . S
C480 C479 1.390 . S
C480 C481 1.357 . S
C481 C480 1.357 . S
C481 C482 1.370 . S
C481 H507 0.950 . S
C482 N477 1.307 . S
C482 C481 1.370 . S
C482 H500 0.948 . S
Zn483 N477 2.020 . S
Zn483 O492 2.039 . S
Zn483 O498 2.034 . S
Zn483 O502 2.025 . S
Zn483 O504 2.024 . S
C484 O503 1.246 . S
C484 O504 1.249 . S
N485 C486 1.307 . S
N485 C487 1.333 . S
N485 Zn491 2.020 . S
C486 N485 1.307 . S
C486 C490 1.370 . S
C486 H497 0.948 . S
C487 N485 1.333 . S
C487 C488 1.379 . S
C487 H495 0.952 . S
C488 C487 1.379 . S
C488 C489 1.390 . S
C488 H508 0.949 . S
C489 C488 1.390 . S
C489 C490 1.357 . S
C490 C486 1.370 . S
C490 C489 1.357 . S
C490 H509 0.950 . S
Zn491 N485 2.020 . S
Zn491 O494 2.025 . S
Zn491 O499 2.024 . S
Zn491 O501 2.039 . S
Zn491 O503 2.034 . S
O492 C476 1.251 . S
O492 Zn483 2.039 . S
C493 O498 1.246 . S
C493 O499 1.249 . S
O494 C476 1.254 . S
O494 Zn491 2.025 . S
H495 C487 0.952 . S
H496 C478 0.952 . S
H497 C486 0.948 . S
O498 Zn483 2.034 . S
O498 C493 1.246 . S
O499 Zn491 2.024 . S
O499 C493 1.249 . S
H500 C482 0.948 . S
O501 Zn491 2.039 . S
O501 C505 1.251 . S
O502 Zn483 2.025 . S
O502 C505 1.254 . S
O503 C484 1.246 . S
O503 Zn491 2.034 . S
O504 Zn483 2.024 . S
O504 C484 1.249 . S
C505 O501 1.251 . S
C505 O502 1.254 . S
H506 C479 0.949 . S
H507 C481 0.950 . S
H508 C488 0.949 . S
H509 C490 0.950 . S
C510 O526 1.251 . S
C510 O528 1.254 . S
N511 C512 1.333 . S
N511 C516 1.307 . S
N511 Zn517 2.020 . S
C512 N511 1.333 . S
C512 C513 1.379 . S
C512 H530 0.952 . S
C513 C512 1.379 . S
C513 C514 1.390 . S
C513 H540 0.949 . S
C514 C513 1.390 . S
C514 C515 1.357 . S
C515 C514 1.357 . S
C515 C516 1.370 . S
C515 H541 0.950 . S
C516 N511 1.307 . S
C516 C515 1.370 . S
C516 H534 0.948 . S
Zn517 N511 2.020 . S
Zn517 O526 2.039 . S
Zn517 O532 2.034 . S
Zn517 O536 2.025 . S
Zn517 O538 2.024 . S
C518 O537 1.246 . S
C518 O538 1.249 . S
N519 C520 1.307 . S
N519 C521 1.333 . S
N519 Zn525 2.020 . S
C520 N519 1.307 . S
C520 C524 1.370 . S
C520 H531 0.948 . S
C521 N519 1.333 . S
C521 C522 1.379 . S
C521 H529 0.952 . S
C522 C521 1.379 . S
C522 C523 1.390 . S
C522 H542 0.949 . S
C523 C522 1.390 . S
C523 C524 1.357 . S
C524 C520 1.370 . S
C524 C523 1.357 . S
C524 H543 0.950 . S
Zn525 N519 2.020 . S
Zn525 O528 2.025 . S
Zn525 O533 2.024 . S
Zn525 O535 2.039 . S
Zn525 O537 2.034 . S
O526 C510 1.251 . S
O526 Zn517 2.039 . S
C527 O532 1.246 . S
C527 O533 1.249 . S
O528 C510 1.254 . S
O528 Zn525 2.025 . S
H529 C521 0.952 . S
H530 C512 0.952 . S
H531 C520 0.948 . S
O532 Zn517 2.034 . S
O532 C527 1.246 . S
O533 Zn525 2.024 . S
O533 C527 1.249 . S
H534 C516 0.948 . S
O535 Zn525 2.039 . S
O535 C539 1.251 . S
O536 Zn517 2.025 . S
O536 C539 1.254 . S
O537 C518 1.246 . S
O537 Zn525 2.034 . S
O538 Zn517 2.024 . S
O538 C518 1.249 . S
C539 O535 1.251 . S
C539 O536 1.254 . S
H540 C513 0.949 . S
H541 C515 0.950 . S
H542 C522 0.949 . S
H543 C524 0.950 . S
C544 C545 1.349 . S
C544 C546 1.327 . S
C544 H569 0.950 . S
C545 C544 1.349 . S
C545 C561 1.349 . S
C546 C544 1.327 . S
C546 C565 1.429 . S
C546 H570 0.950 . S
C547 C564 1.574 . S
C547 C566 1.368 . S
C547 H571 0.949 . S
H548 C552 0.949 . S
C549 C550 1.349 . S
C549 C551 1.327 . S
C549 H572 0.950 . S
C550 C549 1.349 . S
C550 C562 1.349 . S
C551 C549 1.327 . S
C551 C567 1.429 . S
C551 H573 0.950 . S
C552 H548 0.949 . S
C552 C560 1.574 . S
C552 C568 1.368 . S
H553 C561 0.950 . S
H554 C559 0.950 . S
H555 C560 0.949 . S
H556 C562 0.950 . S
H557 C563 0.950 . S
H558 C564 0.949 . S
C559 H554 0.950 . S
C559 C561 1.327 . S
C559 C565 1.429 . S
C560 C552 1.574 . S
C560 H555 0.949 . S
C560 C566 1.368 . S
C561 C545 1.349 . S
C561 H553 0.950 . S
C561 C559 1.327 . S
C562 C550 1.349 . S
C562 H556 0.950 . S
C562 C563 1.327 . S
C563 H557 0.950 . S
C563 C562 1.327 . S
C563 C567 1.429 . S
C564 C547 1.574 . S
C564 H558 0.949 . S
C564 C568 1.368 . S
C565 C546 1.429 . S
C565 C559 1.429 . S
C565 C566 1.523 . S
C566 C547 1.368 . S
C566 C560 1.368 . S
C566 C565 1.523 . S
C567 C551 1.429 . S
C567 C563 1.429 . S
C567 C568 1.523 . S
C568 C552 1.368 . S
C568 C564 1.368 . S
C568 C567 1.523 . S
H569 C544 0.950 . S
H570 C546 0.950 . S
H571 C547 0.949 . S
H572 C549 0.950 . S
H573 C551 0.950 . S
C574 C575 1.349 . S
C574 C576 1.327 . S
C574 H599 0.950 . S
C575 C574 1.349 . S
C575 C591 1.349 . S
C576 C574 1.327 . S
C576 C595 1.429 . S
C576 H600 0.950 . S
C577 C594 1.574 . S
C577 C596 1.368 . S
C577 H601 0.949 . S
H578 C582 0.949 . S
C579 C580 1.349 . S
C579 C581 1.327 . S
C579 H602 0.950 . S
C580 C579 1.349 . S
C580 C592 1.349 . S
C581 C579 1.327 . S
C581 C597 1.429 . S
C581 H603 0.950 . S
C582 H578 0.949 . S
C582 C590 1.574 . S
C582 C598 1.368 . S
H583 C591 0.950 . S
H584 C589 0.950 . S
H585 C590 0.949 . S
H586 C592 0.950 . S
H587 C593 0.950 . S
H588 C594 0.949 . S
C589 H584 0.950 . S
C589 C591 1.327 . S
C589 C595 1.429 . S
C590 C582 1.574 . S
C590 H585 0.949 . S
C590 C596 1.368 . S
C591 C575 1.349 . S
C591 H583 0.950 . S
C591 C589 1.327 . S
C592 C580 1.349 . S
C592 H586 0.950 . S
C592 C593 1.327 . S
C593 H587 0.950 . S
C593 C592 1.327 . S
C593 C597 1.429 . S
C594 C577 1.574 . S
C594 H588 0.949 . S
C594 C598 1.368 . S
C595 C576 1.429 . S
C595 C589 1.429 . S
C595 C596 1.523 . S
C596 C577 1.368 . S
C596 C590 1.368 . S
C596 C595 1.523 . S
C597 C581 1.429 . S
C597 C593 1.429 . S
C597 C598 1.523 . S
C598 C582 1.368 . S
C598 C594 1.368 . S
C598 C597 1.523 . S
H599 C574 0.950 . S
H600 C576 0.950 . S
H601 C577 0.949 . S
H602 C579 0.950 . S
H603 C581 0.950 . S
C604 C605 1.349 . S
C604 C606 1.327 . S
C604 H629 0.950 . S
C605 C604 1.349 . S
C605 C621 1.349 . S
C606 C604 1.327 . S
C606 C625 1.429 . S
C606 H630 0.950 . S
C607 C624 1.574 . S
C607 C626 1.368 . S
C607 H631 0.949 . S
H608 C612 0.949 . S
C609 C610 1.349 . S
C609 C611 1.327 . S
C609 H632 0.950 . S
C610 C609 1.349 . S
C610 C622 1.349 . S
C611 C609 1.327 . S
C611 C627 1.429 . S
C611 H633 0.950 . S
C612 H608 0.949 . S
C612 C620 1.574 . S
C612 C628 1.368 . S
H613 C621 0.950 . S
H614 C619 0.950 . S
H615 C620 0.949 . S
H616 C622 0.950 . S
H617 C623 0.950 . S
H618 C624 0.949 . S
C619 H614 0.950 . S
C619 C621 1.327 . S
C619 C625 1.429 . S
C620 C612 1.574 . S
C620 H615 0.949 . S
C620 C626 1.368 . S
C621 C605 1.349 . S
C621 H613 0.950 . S
C621 C619 1.327 . S
C622 C610 1.349 . S
C622 H616 0.950 . S
C622 C623 1.327 . S
C623 H617 0.950 . S
C623 C622 1.327 . S
C623 C627 1.429 . S
C624 C607 1.574 . S
C624 H618 0.949 . S
C624 C628 1.368 . S
C625 C606 1.429 . S
C625 C619 1.429 . S
C625 C626 1.523 . S
C626 C607 1.368 . S
C626 C620 1.368 . S
C626 C625 1.523 . S
C627 C611 1.429 . S
C627 C623 1.429 . S
C627 C628 1.523 . S
C628 C612 1.368 . S
C628 C624 1.368 . S
C628 C627 1.523 . S
H629 C604 0.950 . S
H630 C606 0.950 . S
H631 C607 0.949 . S
H632 C609 0.950 . S
H633 C611 0.950 . S
C634 C635 1.349 . S
C634 C636 1.327 . S
C634 H659 0.950 . S
C635 C634 1.349 . S
C635 C651 1.349 . S
C636 C634 1.327 . S
C636 C655 1.429 . S
C636 H660 0.950 . S
C637 C654 1.574 . S
C637 C656 1.368 . S
C637 H661 0.949 . S
H638 C642 0.949 . S
C639 C640 1.349 . S
C639 C641 1.327 . S
C639 H662 0.950 . S
C640 C639 1.349 . S
C640 C652 1.349 . S
C641 C639 1.327 . S
C641 C657 1.429 . S
C641 H663 0.950 . S
C642 H638 0.949 . S
C642 C650 1.574 . S
C642 C658 1.368 . S
H643 C651 0.950 . S
H644 C649 0.950 . S
H645 C650 0.949 . S
H646 C652 0.950 . S
H647 C653 0.950 . S
H648 C654 0.949 . S
C649 H644 0.950 . S
C649 C651 1.327 . S
C649 C655 1.429 . S
C650 C642 1.574 . S
C650 H645 0.949 . S
C650 C656 1.368 . S
C651 C635 1.349 . S
C651 H643 0.950 . S
C651 C649 1.327 . S
C652 C640 1.349 . S
C652 H646 0.950 . S
C652 C653 1.327 . S
C653 H647 0.950 . S
C653 C652 1.327 . S
C653 C657 1.429 . S
C654 C637 1.574 . S
C654 H648 0.949 . S
C654 C658 1.368 . S
C655 C636 1.429 . S
C655 C649 1.429 . S
C655 C656 1.523 . S
C656 C637 1.368 . S
C656 C650 1.368 . S
C656 C655 1.523 . S
C657 C641 1.429 . S
C657 C653 1.429 . S
C657 C658 1.523 . S
C658 C642 1.368 . S
C658 C654 1.368 . S
C658 C657 1.523 . S
H659 C634 0.950 . S
H660 C636 0.950 . S
H661 C637 0.949 . S
H662 C639 0.950 . S
H663 C641 0.950 . S
C664 C665 1.349 . S
C664 C666 1.327 . S
C664 H689 0.950 . S
C665 C664 1.349 . S
C665 C681 1.349 . S
C666 C664 1.327 . S
C666 C685 1.429 . S
C666 H690 0.950 . S
C667 C684 1.574 . S
C667 C686 1.368 . S
C667 H691 0.949 . S
H668 C672 0.949 . S
C669 C670 1.349 . S
C669 C671 1.327 . S
C669 H692 0.950 . S
C670 C669 1.349 . S
C670 C682 1.349 . S
C671 C669 1.327 . S
C671 C687 1.429 . S
C671 H693 0.950 . S
C672 H668 0.949 . S
C672 C680 1.574 . S
C672 C688 1.368 . S
H673 C681 0.950 . S
H674 C679 0.950 . S
H675 C680 0.949 . S
H676 C682 0.950 . S
H677 C683 0.950 . S
H678 C684 0.949 . S
C679 H674 0.950 . S
C679 C681 1.327 . S
C679 C685 1.429 . S
C680 C672 1.574 . S
C680 H675 0.949 . S
C680 C686 1.368 . S
C681 C665 1.349 . S
C681 H673 0.950 . S
C681 C679 1.327 . S
C682 C670 1.349 . S
C682 H676 0.950 . S
C682 C683 1.327 . S
C683 H677 0.950 . S
C683 C682 1.327 . S
C683 C687 1.429 . S
C684 C667 1.574 . S
C684 H678 0.949 . S
C684 C688 1.368 . S
C685 C666 1.429 . S
C685 C679 1.429 . S
C685 C686 1.523 . S
C686 C667 1.368 . S
C686 C680 1.368 . S
C686 C685 1.523 . S
C687 C671 1.429 . S
C687 C683 1.429 . S
C687 C688 1.523 . S
C688 C672 1.368 . S
C688 C684 1.368 . S
C688 C687 1.523 . S
H689 C664 0.950 . S
H690 C666 0.950 . S
H691 C667 0.949 . S
H692 C669 0.950 . S
H693 C671 0.950 . S
C694 C695 1.349 . S
C694 C696 1.327 . S
C694 H719 0.950 . S
C695 C694 1.349 . S
C695 C711 1.349 . S
C696 C694 1.327 . S
C696 C715 1.429 . S
C696 H720 0.950 . S
C697 C714 1.574 . S
C697 C716 1.368 . S
C697 H721 0.949 . S
H698 C702 0.949 . S
C699 C700 1.349 . S
C699 C701 1.327 . S
C699 H722 0.950 . S
C700 C699 1.349 . S
C700 C712 1.349 . S
C701 C699 1.327 . S
C701 C717 1.429 . S
C701 H723 0.950 . S
C702 H698 0.949 . S
C702 C710 1.574 . S
C702 C718 1.368 . S
H703 C711 0.950 . S
H704 C709 0.950 . S
H705 C710 0.949 . S
H706 C712 0.950 . S
H707 C713 0.950 . S
H708 C714 0.949 . S
C709 H704 0.950 . S
C709 C711 1.327 . S
C709 C715 1.429 . S
C710 C702 1.574 . S
C710 H705 0.949 . S
C710 C716 1.368 . S
C711 C695 1.349 . S
C711 H703 0.950 . S
C711 C709 1.327 . S
C712 C700 1.349 . S
C712 H706 0.950 . S
C712 C713 1.327 . S
C713 H707 0.950 . S
C713 C712 1.327 . S
C713 C717 1.429 . S
C714 C697 1.574 . S
C714 H708 0.949 . S
C714 C718 1.368 . S
C715 C696 1.429 . S
C715 C709 1.429 . S
C715 C716 1.523 . S
C716 C697 1.368 . S
C716 C710 1.368 . S
C716 C715 1.523 . S
C717 C701 1.429 . S
C717 C713 1.429 . S
C717 C718 1.523 . S
C718 C702 1.368 . S
C718 C714 1.368 . S
C718 C717 1.523 . S
H719 C694 0.950 . S
H720 C696 0.950 . S
H721 C697 0.949 . S
H722 C699 0.950 . S
H723 C701 0.950 . S
C724 C725 1.349 . S
C724 C726 1.327 . S
C724 H749 0.950 . S
C725 C724 1.349 . S
C725 C741 1.349 . S
C726 C724 1.327 . S
C726 C745 1.429 . S
C726 H750 0.950 . S
C727 C744 1.574 . S
C727 C746 1.368 . S
C727 H751 0.949 . S
H728 C732 0.949 . S
C729 C730 1.349 . S
C729 C731 1.327 . S
C729 H752 0.950 . S
C730 C729 1.349 . S
C730 C742 1.349 . S
C731 C729 1.327 . S
C731 C747 1.429 . S
C731 H753 0.950 . S
C732 H728 0.949 . S
C732 C740 1.574 . S
C732 C748 1.368 . S
H733 C741 0.950 . S
H734 C739 0.950 . S
H735 C740 0.949 . S
H736 C742 0.950 . S
H737 C743 0.950 . S
H738 C744 0.949 . S
C739 H734 0.950 . S
C739 C741 1.327 . S
C739 C745 1.429 . S
C740 C732 1.574 . S
C740 H735 0.949 . S
C740 C746 1.368 . S
C741 C725 1.349 . S
C741 H733 0.950 . S
C741 C739 1.327 . S
C742 C730 1.349 . S
C742 H736 0.950 . S
C742 C743 1.327 . S
C743 H737 0.950 . S
C743 C742 1.327 . S
C743 C747 1.429 . S
C744 C727 1.574 . S
C744 H738 0.949 . S
C744 C748 1.368 . S
C745 C726 1.429 . S
C745 C739 1.429 . S
C745 C746 1.523 . S
C746 C727 1.368 . S
C746 C740 1.368 . S
C746 C745 1.523 . S
C747 C731 1.429 . S
C747 C743 1.429 . S
C747 C748 1.523 . S
C748 C732 1.368 . S
C748 C744 1.368 . S
C748 C747 1.523 . S
H749 C724 0.950 . S
H750 C726 0.950 . S
H751 C727 0.949 . S
H752 C729 0.950 . S
H753 C731 0.950 . S
C754 C755 1.349 . S
C754 C756 1.327 . S
C754 H779 0.950 . S
C755 C754 1.349 . S
C755 C771 1.349 . S
C756 C754 1.327 . S
C756 C775 1.429 . S
C756 H780 0.950 . S
C757 C774 1.574 . S
C757 C776 1.368 . S
C757 H781 0.949 . S
H758 C762 0.949 . S
C759 C760 1.349 . S
C759 C761 1.327 . S
C759 H782 0.950 . S
C760 C759 1.349 . S
C760 C772 1.349 . S
C761 C759 1.327 . S
C761 C777 1.429 . S
C761 H783 0.950 . S
C762 H758 0.949 . S
C762 C770 1.574 . S
C762 C778 1.368 . S
H763 C771 0.950 . S
H764 C769 0.950 . S
H765 C770 0.949 . S
H766 C772 0.950 . S
H767 C773 0.950 . S
H768 C774 0.949 . S
C769 H764 0.950 . S
C769 C771 1.327 . S
C769 C775 1.429 . S
C770 C762 1.574 . S
C770 H765 0.949 . S
C770 C776 1.368 . S
C771 C755 1.349 . S
C771 H763 0.950 . S
C771 C769 1.327 . S
C772 C760 1.349 . S
C772 H766 0.950 . S
C772 C773 1.327 . S
C773 H767 0.950 . S
C773 C772 1.327 . S
C773 C777 1.429 . S
C774 C757 1.574 . S
C774 H768 0.949 . S
C774 C778 1.368 . S
C775 C756 1.429 . S
C775 C769 1.429 . S
C775 C776 1.523 . S
C776 C757 1.368 . S
C776 C770 1.368 . S
C776 C775 1.523 . S
C777 C761 1.429 . S
C777 C773 1.429 . S
C777 C778 1.523 . S
C778 C762 1.368 . S
C778 C774 1.368 . S
C778 C777 1.523 . S
H779 C754 0.950 . S
H780 C756 0.950 . S
H781 C757 0.949 . S
H782 C759 0.950 . S
H783 C761 0.950 . S
C784 C785 1.349 . S
C784 C786 1.327 1_565 S
C784 H809 0.950 1_565 S
C785 C784 1.349 . S
C785 C801 1.349 . S
C786 C784 1.327 1_545 S
C786 C805 1.429 1_545 S
C786 H810 0.950 . S
C787 C804 1.574 . S
C787 C806 1.368 . S
C787 H811 0.949 . S
H788 C792 0.949 . S
C789 C790 1.349 . S
C789 C791 1.327 1_545 S
C789 H812 0.950 1_545 S
C790 C789 1.349 . S
C790 C802 1.349 . S
C791 C789 1.327 1_565 S
C791 C807 1.429 1_565 S
C791 H813 0.950 . S
C792 H788 0.949 . S
C792 C800 1.574 . S
C792 C808 1.368 . S
H793 C801 0.950 . S
H794 C799 0.950 . S
H795 C800 0.949 . S
H796 C802 0.950 . S
H797 C803 0.950 . S
H798 C804 0.949 . S
C799 H794 0.950 . S
C799 C801 1.327 . S
C799 C805 1.429 . S
C800 C792 1.574 . S
C800 H795 0.949 . S
C800 C806 1.368 1_545 S
C801 C785 1.349 . S
C801 H793 0.950 . S
C801 C799 1.327 . S
C802 C790 1.349 . S
C802 H796 0.950 . S
C802 C803 1.327 . S
C803 H797 0.950 . S
C803 C802 1.327 . S
C803 C807 1.429 . S
C804 C787 1.574 . S
C804 H798 0.949 . S
C804 C808 1.368 1_565 S
C805 C786 1.429 1_565 S
C805 C799 1.429 . S
C805 C806 1.523 . S
C806 C787 1.368 . S
C806 C800 1.368 1_565 S
C806 C805 1.523 . S
C807 C791 1.429 1_545 S
C807 C803 1.429 . S
C807 C808 1.523 . S
C808 C792 1.368 . S
C808 C804 1.368 1_545 S
C808 C807 1.523 . S
H809 C784 0.950 1_545 S
H810 C786 0.950 . S
H811 C787 0.949 . S
H812 C789 0.950 1_565 S
H813 C791 0.950 . S
C814 C815 1.349 . S
C814 C816 1.327 . S
C814 H839 0.950 . S
C815 C814 1.349 . S
C815 C831 1.349 . S
C816 C814 1.327 . S
C816 C835 1.429 . S
C816 H840 0.950 . S
C817 C834 1.574 . S
C817 C836 1.368 1_565 S
C817 H841 0.949 . S
H818 C822 0.949 . S
C819 C820 1.349 . S
C819 C821 1.327 . S
C819 H842 0.950 . S
C820 C819 1.349 . S
C820 C832 1.349 . S
C821 C819 1.327 . S
C821 C837 1.429 . S
C821 H843 0.950 . S
C822 H818 0.949 . S
C822 C830 1.574 . S
C822 C838 1.368 1_545 S
H823 C831 0.950 1_565 S
H824 C829 0.950 . S
H825 C830 0.949 . S
H826 C832 0.950 1_545 S
H827 C833 0.950 . S
H828 C834 0.949 . S
C829 H824 0.950 . S
C829 C831 1.327 1_565 S
C829 C835 1.429 1_565 S
C830 C822 1.574 . S
C830 H825 0.949 . S
C830 C836 1.368 . S
C831 C815 1.349 . S
C831 H823 0.950 1_545 S
C831 C829 1.327 1_545 S
C832 C820 1.349 . S
C832 H826 0.950 1_565 S
C832 C833 1.327 1_565 S
C833 H827 0.950 . S
C833 C832 1.327 1_545 S
C833 C837 1.429 1_545 S
C834 C817 1.574 . S
C834 H828 0.949 . S
C834 C838 1.368 . S
C835 C816 1.429 . S
C835 C829 1.429 1_545 S
C835 C836 1.523 . S
C836 C817 1.368 1_545 S
C836 C830 1.368 . S
C836 C835 1.523 . S
C837 C821 1.429 . S
C837 C833 1.429 1_565 S
C837 C838 1.523 . S
C838 C822 1.368 1_565 S
C838 C834 1.368 . S
C838 C837 1.523 . S
H839 C814 0.950 . S
H840 C816 0.950 . S
H841 C817 0.949 . S
H842 C819 0.950 . S
H843 C821 0.950 . S
C844 C845 1.349 . S
C844 C846 1.327 1_545 S
C844 H869 0.950 1_545 S
C845 C844 1.349 . S
C845 C861 1.349 . S
C846 C844 1.327 1_565 S
C846 C865 1.429 1_565 S
C846 H870 0.950 . S
C847 C864 1.574 . S
C847 C866 1.368 . S
C847 H871 0.949 . S
H848 C852 0.949 . S
C849 C850 1.349 . S
C849 C851 1.327 1_565 S
C849 H872 0.950 1_565 S
C850 C849 1.349 . S
C850 C862 1.349 . S
C851 C849 1.327 1_545 S
C851 C867 1.429 1_545 S
C851 H873 0.950 . S
C852 H848 0.949 . S
C852 C860 1.574 . S
C852 C868 1.368 . S
H853 C861 0.950 . S
H854 C859 0.950 . S
H855 C860 0.949 . S
H856 C862 0.950 . S
H857 C863 0.950 . S
H858 C864 0.949 . S
C859 H854 0.950 . S
C859 C861 1.327 . S
C859 C865 1.429 . S
C860 C852 1.574 . S
C860 H855 0.949 . S
C860 C866 1.368 1_565 S
C861 C845 1.349 . S
C861 H853 0.950 . S
C861 C859 1.327 . S
C862 C850 1.349 . S
C862 H856 0.950 . S
C862 C863 1.327 . S
C863 H857 0.950 . S
C863 C862 1.327 . S
C863 C867 1.429 . S
C864 C847 1.574 . S
C864 H858 0.949 . S
C864 C868 1.368 1_545 S
C865 C846 1.429 1_545 S
C865 C859 1.429 . S
C865 C866 1.523 . S
C866 C847 1.368 . S
C866 C860 1.368 1_545 S
C866 C865 1.523 . S
C867 C851 1.429 1_565 S
C867 C863 1.429 . S
C867 C868 1.523 . S
C868 C852 1.368 . S
C868 C864 1.368 1_565 S
C868 C867 1.523 . S
H869 C844 0.950 1_565 S
H870 C846 0.950 . S
H871 C847 0.949 . S
H872 C849 0.950 1_545 S
H873 C851 0.950 . S
C874 C875 1.349 . S
C874 C876 1.327 . S
C874 H899 0.950 . S
C875 C874 1.349 . S
C875 C891 1.349 . S
C876 C874 1.327 . S
C876 C895 1.429 . S
C876 H900 0.950 . S
C877 C894 1.574 . S
C877 C896 1.368 1_565 S
C877 H901 0.949 . S
H878 C882 0.949 . S
C879 C880 1.349 . S
C879 C881 1.327 . S
C879 H902 0.950 . S
C880 C879 1.349 . S
C880 C892 1.349 . S
C881 C879 1.327 . S
C881 C897 1.429 . S
C881 H903 0.950 . S
C882 H878 0.949 . S
C882 C890 1.574 . S
C882 C898 1.368 1_545 S
H883 C891 0.950 1_565 S
H884 C889 0.950 . S
H885 C890 0.949 . S
H886 C892 0.950 1_545 S
H887 C893 0.950 . S
H888 C894 0.949 . S
C889 H884 0.950 . S
C889 C891 1.327 1_565 S
C889 C895 1.429 1_565 S
C890 C882 1.574 . S
C890 H885 0.949 . S
C890 C896 1.368 . S
C891 C875 1.349 . S
C891 H883 0.950 1_545 S
C891 C889 1.327 1_545 S
C892 C880 1.349 . S
C892 H886 0.950 1_565 S
C892 C893 1.327 1_565 S
C893 H887 0.950 . S
C893 C892 1.327 1_545 S
C893 C897 1.429 1_545 S
C894 C877 1.574 . S
C894 H888 0.949 . S
C894 C898 1.368 . S
C895 C876 1.429 . S
C895 C889 1.429 1_545 S
C895 C896 1.523 . S
C896 C877 1.368 1_545 S
C896 C890 1.368 . S
C896 C895 1.523 . S
C897 C881 1.429 . S
C897 C893 1.429 1_565 S
C897 C898 1.523 . S
C898 C882 1.368 1_565 S
C898 C894 1.368 . S
C898 C897 1.523 . S
H899 C874 0.950 . S
H900 C876 0.950 . S
H901 C877 0.949 . S
H902 C879 0.950 . S
H903 C881 0.950 . S
C904 C905 1.349 . S
C904 C906 1.327 . S
C904 H929 0.950 . S
C905 C904 1.349 . S
C905 C921 1.349 . S
C906 C904 1.327 . S
C906 C925 1.429 . S
C906 H930 0.950 . S
C907 C924 1.574 . S
C907 C926 1.368 . S
C907 H931 0.949 . S
H908 C912 0.949 . S
C909 C910 1.349 . S
C909 C911 1.327 . S
C909 H932 0.950 . S
C910 C909 1.349 . S
C910 C922 1.349 . S
C911 C909 1.327 . S
C911 C927 1.429 . S
C911 H933 0.950 . S
C912 H908 0.949 . S
C912 C920 1.574 . S
C912 C928 1.368 . S
H913 C921 0.950 . S
H914 C919 0.950 . S
H915 C920 0.949 . S
H916 C922 0.950 . S
H917 C923 0.950 . S
H918 C924 0.949 . S
C919 H914 0.950 . S
C919 C921 1.327 . S
C919 C925 1.429 . S
C920 C912 1.574 . S
C920 H915 0.949 . S
C920 C926 1.368 . S
C921 C905 1.349 . S
C921 H913 0.950 . S
C921 C919 1.327 . S
C922 C910 1.349 . S
C922 H916 0.950 . S
C922 C923 1.327 . S
C923 H917 0.950 . S
C923 C922 1.327 . S
C923 C927 1.429 . S
C924 C907 1.574 . S
C924 H918 0.949 . S
C924 C928 1.368 . S
C925 C906 1.429 . S
C925 C919 1.429 . S
C925 C926 1.523 . S
C926 C907 1.368 . S
C926 C920 1.368 . S
C926 C925 1.523 . S
C927 C911 1.429 . S
C927 C923 1.429 . S
C927 C928 1.523 . S
C928 C912 1.368 . S
C928 C924 1.368 . S
C928 C927 1.523 . S
H929 C904 0.950 . S
H930 C906 0.950 . S
H931 C907 0.949 . S
H932 C909 0.950 . S
H933 C911 0.950 . S
C934 C935 1.349 . S
C934 C936 1.327 . S
C934 H959 0.950 . S
C935 C934 1.349 . S
C935 C951 1.349 . S
C936 C934 1.327 . S
C936 C955 1.429 . S
C936 H960 0.950 . S
C937 C954 1.574 . S
C937 C956 1.368 . S
C937 H961 0.949 . S
H938 C942 0.949 . S
C939 C940 1.349 . S
C939 C941 1.327 . S
C939 H962 0.950 . S
C940 C939 1.349 . S
C940 C952 1.349 . S
C941 C939 1.327 . S
C941 C957 1.429 . S
C941 H963 0.950 . S
C942 H938 0.949 . S
C942 C950 1.574 . S
C942 C958 1.368 . S
H943 C951 0.950 . S
H944 C949 0.950 . S
H945 C950 0.949 . S
H946 C952 0.950 . S
H947 C953 0.950 . S
H948 C954 0.949 . S
C949 H944 0.950 . S
C949 C951 1.327 . S
C949 C955 1.429 . S
C950 C942 1.574 . S
C950 H945 0.949 . S
C950 C956 1.368 . S
C951 C935 1.349 . S
C951 H943 0.950 . S
C951 C949 1.327 . S
C952 C940 1.349 . S
C952 H946 0.950 . S
C952 C953 1.327 . S
C953 H947 0.950 . S
C953 C952 1.327 . S
C953 C957 1.429 . S
C954 C937 1.574 . S
C954 H948 0.949 . S
C954 C958 1.368 . S
C955 C936 1.429 . S
C955 C949 1.429 . S
C955 C956 1.523 . S
C956 C937 1.368 . S
C956 C950 1.368 . S
C956 C955 1.523 . S
C957 C941 1.429 . S
C957 C953 1.429 . S
C957 C958 1.523 . S
C958 C942 1.368 . S
C958 C954 1.368 . S
C958 C957 1.523 . S
H959 C934 0.950 . S
H960 C936 0.950 . S
H961 C937 0.949 . S
H962 C939 0.950 . S
H963 C941 0.950 . S
C964 C965 1.349 . S
C964 C966 1.327 . S
C964 H989 0.950 . S
C965 C964 1.349 . S
C965 C981 1.349 . S
C966 C964 1.327 . S
C966 C985 1.429 . S
C966 H990 0.950 . S
C967 C984 1.574 . S
C967 C986 1.368 . S
C967 H991 0.949 . S
H968 C972 0.949 . S
C969 C970 1.349 . S
C969 C971 1.327 . S
C969 H992 0.950 . S
C970 C969 1.349 . S
C970 C982 1.349 . S
C971 C969 1.327 . S
C971 C987 1.429 . S
C971 H993 0.950 . S
C972 H968 0.949 . S
C972 C980 1.574 . S
C972 C988 1.368 . S
H973 C981 0.950 . S
H974 C979 0.950 . S
H975 C980 0.949 . S
H976 C982 0.950 . S
H977 C983 0.950 . S
H978 C984 0.949 . S
C979 H974 0.950 . S
C979 C981 1.327 . S
C979 C985 1.429 . S
C980 C972 1.574 . S
C980 H975 0.949 . S
C980 C986 1.368 . S
C981 C965 1.349 . S
C981 H973 0.950 . S
C981 C979 1.327 . S
C982 C970 1.349 . S
C982 H976 0.950 . S
C982 C983 1.327 . S
C983 H977 0.950 . S
C983 C982 1.327 . S
C983 C987 1.429 . S
C984 C967 1.574 . S
C984 H978 0.949 . S
C984 C988 1.368 . S
C985 C966 1.429 . S
C985 C979 1.429 . S
C985 C986 1.523 . S
C986 C967 1.368 . S
C986 C980 1.368 . S
C986 C985 1.523 . S
C987 C971 1.429 . S
C987 C983 1.429 . S
C987 C988 1.523 . S
C988 C972 1.368 . S
C988 C984 1.368 . S
C988 C987 1.523 . S
H989 C964 0.950 . S
H990 C966 0.950 . S
H991 C967 0.949 . S
H992 C969 0.950 . S
H993 C971 0.950 . S
C994 C995 1.349 . S
C994 C996 1.327 . S
C994 H1019 0.950 . S
C995 C994 1.349 . S
C995 C1011 1.349 . S
C996 C994 1.327 . S
C996 C1015 1.429 . S
C996 H1020 0.950 . S
C997 C1014 1.574 . S
C997 C1016 1.368 . S
C997 H1021 0.949 . S
H998 C1002 0.949 . S
C999 C1000 1.349 . S
C999 C1001 1.327 . S
C999 H1022 0.950 . S
C1000 C999 1.349 . S
C1000 C1012 1.349 . S
C1001 C999 1.327 . S
C1001 C1017 1.429 . S
C1001 H1023 0.950 . S
C1002 H998 0.949 . S
C1002 C1010 1.574 . S
C1002 C1018 1.368 . S
H1003 C1011 0.950 . S
H1004 C1009 0.950 . S
H1005 C1010 0.949 . S
H1006 C1012 0.950 . S
H1007 C1013 0.950 . S
H1008 C1014 0.949 . S
C1009 H1004 0.950 . S
C1009 C1011 1.327 . S
C1009 C1015 1.429 . S
C1010 C1002 1.574 . S
C1010 H1005 0.949 . S
C1010 C1016 1.368 . S
C1011 C995 1.349 . S
C1011 H1003 0.950 . S
C1011 C1009 1.327 . S
C1012 C1000 1.349 . S
C1012 H1006 0.950 . S
C1012 C1013 1.327 . S
C1013 H1007 0.950 . S
C1013 C1012 1.327 . S
C1013 C1017 1.429 . S
C1014 C997 1.574 . S
C1014 H1008 0.949 . S
C1014 C1018 1.368 . S
C1015 C996 1.429 . S
C1015 C1009 1.429 . S
C1015 C1016 1.523 . S
C1016 C997 1.368 . S
C1016 C1010 1.368 . S
C1016 C1015 1.523 . S
C1017 C1001 1.429 . S
C1017 C1013 1.429 . S
C1017 C1018 1.523 . S
C1018 C1002 1.368 . S
C1018 C1014 1.368 . S
C1018 C1017 1.523 . S
H1019 C994 0.950 . S
H1020 C996 0.950 . S
H1021 C997 0.949 . S
H1022 C999 0.950 . S
H1023 C1001 0.950 . S
C1024 C1025 1.349 . S
C1024 C1026 1.327 . S
C1024 H1049 0.950 . S
C1025 C1024 1.349 . S
C1025 C1041 1.349 . S
C1026 C1024 1.327 . S
C1026 C1045 1.429 . S
C1026 H1050 0.950 . S
C1027 C1044 1.574 1_556 S
C1027 C1046 1.368 . S
C1027 H1051 0.949 . S
H1028 C1032 0.949 . S
C1029 C1030 1.349 . S
C1029 C1031 1.327 . S
C1029 H1052 0.950 . S
C1030 C1029 1.349 . S
C1030 C1042 1.349 . S
C1031 C1029 1.327 . S
C1031 C1047 1.429 . S
C1031 H1053 0.950 . S
C1032 H1028 0.949 . S
C1032 C1040 1.574 1_554 S
C1032 C1048 1.368 . S
H1033 C1041 0.950 . S
H1034 C1039 0.950 . S
H1035 C1040 0.949 . S
H1036 C1042 0.950 . S
H1037 C1043 0.950 . S
H1038 C1044 0.949 . S
C1039 H1034 0.950 . S
C1039 C1041 1.327 . S
C1039 C1045 1.429 . S
C1040 C1032 1.574 1_556 S
C1040 H1035 0.949 . S
C1040 C1046 1.368 . S
C1041 C1025 1.349 . S
C1041 H1033 0.950 . S
C1041 C1039 1.327 . S
C1042 C1030 1.349 . S
C1042 H1036 0.950 . S
C1042 C1043 1.327 . S
C1043 H1037 0.950 . S
C1043 C1042 1.327 . S
C1043 C1047 1.429 . S
C1044 C1027 1.574 1_554 S
C1044 H1038 0.949 . S
C1044 C1048 1.368 . S
C1045 C1026 1.429 . S
C1045 C1039 1.429 . S
C1045 C1046 1.523 . S
C1046 C1027 1.368 . S
C1046 C1040 1.368 . S
C1046 C1045 1.523 . S
C1047 C1031 1.429 . S
C1047 C1043 1.429 . S
C1047 C1048 1.523 . S
C1048 C1032 1.368 . S
C1048 C1044 1.368 . S
C1048 C1047 1.523 . S
H1049 C1024 0.950 . S
H1050 C1026 0.950 . S
H1051 C1027 0.949 . S
H1052 C1029 0.950 . S
H1053 C1031 0.950 . S
C1054 C1055 1.349 . S
C1054 C1056 1.327 . S
C1054 H1079 0.950 . S
C1055 C1054 1.349 . S
C1055 C1071 1.349 . S
C1056 C1054 1.327 . S
C1056 C1075 1.429 . S
C1056 H1080 0.950 . S
C1057 C1074 1.574 1_556 S
C1057 C1076 1.368 . S
C1057 H1081 0.949 . S
H1058 C1062 0.949 . S
C1059 C1060 1.349 . S
C1059 C1061 1.327 . S
C1059 H1082 0.950 . S
C1060 C1059 1.349 . S
C1060 C1072 1.349 . S
C1061 C1059 1.327 . S
C1061 C1077 1.429 . S
C1061 H1083 0.950 . S
C1062 H1058 0.949 . S
C1062 C1070 1.574 1_554 S
C1062 C1078 1.368 . S
H1063 C1071 0.950 . S
H1064 C1069 0.950 . S
H1065 C1070 0.949 . S
H1066 C1072 0.950 . S
H1067 C1073 0.950 . S
H1068 C1074 0.949 . S
C1069 H1064 0.950 . S
C1069 C1071 1.327 . S
C1069 C1075 1.429 . S
C1070 C1062 1.574 1_556 S
C1070 H1065 0.949 . S
C1070 C1076 1.368 . S
C1071 C1055 1.349 . S
C1071 H1063 0.950 . S
C1071 C1069 1.327 . S
C1072 C1060 1.349 . S
C1072 H1066 0.950 . S
C1072 C1073 1.327 . S
C1073 H1067 0.950 . S
C1073 C1072 1.327 . S
C1073 C1077 1.429 . S
C1074 C1057 1.574 1_554 S
C1074 H1068 0.949 . S
C1074 C1078 1.368 . S
C1075 C1056 1.429 . S
C1075 C1069 1.429 . S
C1075 C1076 1.523 . S
C1076 C1057 1.368 . S
C1076 C1070 1.368 . S
C1076 C1075 1.523 . S
C1077 C1061 1.429 . S
C1077 C1073 1.429 . S
C1077 C1078 1.523 . S
C1078 C1062 1.368 . S
C1078 C1074 1.368 . S
C1078 C1077 1.523 . S
H1079 C1054 0.950 . S
H1080 C1056 0.950 . S
H1081 C1057 0.949 . S
H1082 C1059 0.950 . S
H1083 C1061 0.950 . S
C1084 C1085 1.349 . S
C1084 C1086 1.327 . S
C1084 H1109 0.950 . S
C1085 C1084 1.349 . S
C1085 C1101 1.349 . S
C1086 C1084 1.327 . S
C1086 C1105 1.429 . S
C1086 H1110 0.950 . S
C1087 C1104 1.574 . S
C1087 C1106 1.368 . S
C1087 H1111 0.949 . S
H1088 C1092 0.949 . S
C1089 C1090 1.349 . S
C1089 C1091 1.327 . S
C1089 H1112 0.950 . S
C1090 C1089 1.349 . S
C1090 C1102 1.349 . S
C1091 C1089 1.327 . S
C1091 C1107 1.429 . S
C1091 H1113 0.950 . S
C1092 H1088 0.949 . S
C1092 C1100 1.574 . S
C1092 C1108 1.368 . S
H1093 C1101 0.950 . S
H1094 C1099 0.950 . S
H1095 C1100 0.949 . S
H1096 C1102 0.950 . S
H1097 C1103 0.950 . S
H1098 C1104 0.949 . S
C1099 H1094 0.950 . S
C1099 C1101 1.327 . S
C1099 C1105 1.429 . S
C1100 C1092 1.574 . S
C1100 H1095 0.949 . S
C1100 C1106 1.368 . S
C1101 C1085 1.349 . S
C1101 H1093 0.950 . S
C1101 C1099 1.327 . S
C1102 C1090 1.349 . S
C1102 H1096 0.950 . S
C1102 C1103 1.327 . S
C1103 H1097 0.950 . S
C1103 C1102 1.327 . S
C1103 C1107 1.429 . S
C1104 C1087 1.574 . S
C1104 H1098 0.949 . S
C1104 C1108 1.368 . S
C1105 C1086 1.429 . S
C1105 C1099 1.429 . S
C1105 C1106 1.523 . S
C1106 C1087 1.368 . S
C1106 C1100 1.368 . S
C1106 C1105 1.523 . S
C1107 C1091 1.429 . S
C1107 C1103 1.429 . S
C1107 C1108 1.523 . S
C1108 C1092 1.368 . S
C1108 C1104 1.368 . S
C1108 C1107 1.523 . S
H1109 C1084 0.950 . S
H1110 C1086 0.950 . S
H1111 C1087 0.949 . S
H1112 C1089 0.950 . S
H1113 C1091 0.950 . S
C1114 C1115 1.349 . S
C1114 C1116 1.327 . S
C1114 H1139 0.950 . S
C1115 C1114 1.349 . S
C1115 C1131 1.349 . S
C1116 C1114 1.327 . S
C1116 C1135 1.429 . S
C1116 H1140 0.950 . S
C1117 C1134 1.574 . S
C1117 C1136 1.368 . S
C1117 H1141 0.949 . S
H1118 C1122 0.949 . S
C1119 C1120 1.349 . S
C1119 C1121 1.327 . S
C1119 H1142 0.950 . S
C1120 C1119 1.349 . S
C1120 C1132 1.349 . S
C1121 C1119 1.327 . S
C1121 C1137 1.429 . S
C1121 H1143 0.950 . S
C1122 H1118 0.949 . S
C1122 C1130 1.574 . S
C1122 C1138 1.368 . S
H1123 C1131 0.950 . S
H1124 C1129 0.950 . S
H1125 C1130 0.949 . S
H1126 C1132 0.950 . S
H1127 C1133 0.950 . S
H1128 C1134 0.949 . S
C1129 H1124 0.950 . S
C1129 C1131 1.327 . S
C1129 C1135 1.429 . S
C1130 C1122 1.574 . S
C1130 H1125 0.949 . S
C1130 C1136 1.368 . S
C1131 C1115 1.349 . S
C1131 H1123 0.950 . S
C1131 C1129 1.327 . S
C1132 C1120 1.349 . S
C1132 H1126 0.950 . S
C1132 C1133 1.327 . S
C1133 H1127 0.950 . S
C1133 C1132 1.327 . S
C1133 C1137 1.429 . S
C1134 C1117 1.574 . S
C1134 H1128 0.949 . S
C1134 C1138 1.368 . S
C1135 C1116 1.429 . S
C1135 C1129 1.429 . S
C1135 C1136 1.523 . S
C1136 C1117 1.368 . S
C1136 C1130 1.368 . S
C1136 C1135 1.523 . S
C1137 C1121 1.429 . S
C1137 C1133 1.429 . S
C1137 C1138 1.523 . S
C1138 C1122 1.368 . S
C1138 C1134 1.368 . S
C1138 C1137 1.523 . S
H1139 C1114 0.950 . S
H1140 C1116 0.950 . S
H1141 C1117 0.949 . S
H1142 C1119 0.950 . S
H1143 C1121 0.950 . S
C1144 C1145 1.349 . S
C1144 C1146 1.327 . S
C1144 H1169 0.950 . S
C1145 C1144 1.349 . S
C1145 C1161 1.349 . S
C1146 C1144 1.327 . S
C1146 C1165 1.429 . S
C1146 H1170 0.950 . S
C1147 C1164 1.574 1_554 S
C1147 C1166 1.368 . S
C1147 H1171 0.949 . S
H1148 C1152 0.949 . S
C1149 C1150 1.349 . S
C1149 C1151 1.327 . S
C1149 H1172 0.950 . S
C1150 C1149 1.349 . S
C1150 C1162 1.349 . S
C1151 C1149 1.327 . S
C1151 C1167 1.429 . S
C1151 H1173 0.950 . S
C1152 H1148 0.949 . S
C1152 C1160 1.574 1_556 S
C1152 C1168 1.368 . S
H1153 C1161 0.950 . S
H1154 C1159 0.950 . S
H1155 C1160 0.949 . S
H1156 C1162 0.950 . S
H1157 C1163 0.950 . S
H1158 C1164 0.949 . S
C1159 H1154 0.950 . S
C1159 C1161 1.327 . S
C1159 C1165 1.429 . S
C1160 C1152 1.574 1_554 S
C1160 H1155 0.949 . S
C1160 C1166 1.368 . S
C1161 C1145 1.349 . S
C1161 H1153 0.950 . S
C1161 C1159 1.327 . S
C1162 C1150 1.349 . S
C1162 H1156 0.950 . S
C1162 C1163 1.327 . S
C1163 H1157 0.950 . S
C1163 C1162 1.327 . S
C1163 C1167 1.429 . S
C1164 C1147 1.574 1_556 S
C1164 H1158 0.949 . S
C1164 C1168 1.368 . S
C1165 C1146 1.429 . S
C1165 C1159 1.429 . S
C1165 C1166 1.523 . S
C1166 C1147 1.368 . S
C1166 C1160 1.368 . S
C1166 C1165 1.523 . S
C1167 C1151 1.429 . S
C1167 C1163 1.429 . S
C1167 C1168 1.523 . S
C1168 C1152 1.368 . S
C1168 C1164 1.368 . S
C1168 C1167 1.523 . S
H1169 C1144 0.950 . S
H1170 C1146 0.950 . S
H1171 C1147 0.949 . S
H1172 C1149 0.950 . S
H1173 C1151 0.950 . S
C1174 C1175 1.349 . S
C1174 C1176 1.327 . S
C1174 H1199 0.950 . S
C1175 C1174 1.349 . S
C1175 C1191 1.349 . S
C1176 C1174 1.327 . S
C1176 C1195 1.429 . S
C1176 H1200 0.950 . S
C1177 C1194 1.574 1_556 S
C1177 C1196 1.368 . S
C1177 H1201 0.949 . S
H1178 C1182 0.949 . S
C1179 C1180 1.349 . S
C1179 C1181 1.327 . S
C1179 H1202 0.950 . S
C1180 C1179 1.349 . S
C1180 C1192 1.349 . S
C1181 C1179 1.327 . S
C1181 C1197 1.429 . S
C1181 H1203 0.950 . S
C1182 H1178 0.949 . S
C1182 C1190 1.574 1_554 S
C1182 C1198 1.368 . S
H1183 C1191 0.950 . S
H1184 C1189 0.950 . S
H1185 C1190 0.949 . S
H1186 C1192 0.950 . S
H1187 C1193 0.950 . S
H1188 C1194 0.949 . S
C1189 H1184 0.950 . S
C1189 C1191 1.327 . S
C1189 C1195 1.429 . S
C1190 C1182 1.574 1_556 S
C1190 H1185 0.949 . S
C1190 C1196 1.368 . S
C1191 C1175 1.349 . S
C1191 H1183 0.950 . S
C1191 C1189 1.327 . S
C1192 C1180 1.349 . S
C1192 H1186 0.950 . S
C1192 C1193 1.327 . S
C1193 H1187 0.950 . S
C1193 C1192 1.327 . S
C1193 C1197 1.429 . S
C1194 C1177 1.574 1_554 S
C1194 H1188 0.949 . S
C1194 C1198 1.368 . S
C1195 C1176 1.429 . S
C1195 C1189 1.429 . S
C1195 C1196 1.523 . S
C1196 C1177 1.368 . S
C1196 C1190 1.368 . S
C1196 C1195 1.523 . S
C1197 C1181 1.429 . S
C1197 C1193 1.429 . S
C1197 C1198 1.523 . S
C1198 C1182 1.368 . S
C1198 C1194 1.368 . S
C1198 C1197 1.523 . S
H1199 C1174 0.950 . S
H1200 C1176 0.950 . S
H1201 C1177 0.949 . S
H1202 C1179 0.950 . S
H1203 C1181 0.950 . S
C1204 C1205 1.349 . S
C1204 C1206 1.327 . S
C1204 H1229 0.950 . S
C1205 C1204 1.349 . S
C1205 C1221 1.349 . S
C1206 C1204 1.327 . S
C1206 C1225 1.429 . S
C1206 H1230 0.950 . S
C1207 C1224 1.574 . S
C1207 C1226 1.368 . S
C1207 H1231 0.949 . S
H1208 C1212 0.949 . S
C1209 C1210 1.349 . S
C1209 C1211 1.327 . S
C1209 H1232 0.950 . S
C1210 C1209 1.349 . S
C1210 C1222 1.349 . S
C1211 C1209 1.327 . S
C1211 C1227 1.429 . S
C1211 H1233 0.950 . S
C1212 H1208 0.949 . S
C1212 C1220 1.574 . S
C1212 C1228 1.368 . S
H1213 C1221 0.950 . S
H1214 C1219 0.950 . S
H1215 C1220 0.949 . S
H1216 C1222 0.950 . S
H1217 C1223 0.950 . S
H1218 C1224 0.949 . S
C1219 H1214 0.950 . S
C1219 C1221 1.327 . S
C1219 C1225 1.429 . S
C1220 C1212 1.574 . S
C1220 H1215 0.949 . S
C1220 C1226 1.368 . S
C1221 C1205 1.349 . S
C1221 H1213 0.950 . S
C1221 C1219 1.327 . S
C1222 C1210 1.349 . S
C1222 H1216 0.950 . S
C1222 C1223 1.327 . S
C1223 H1217 0.950 . S
C1223 C1222 1.327 . S
C1223 C1227 1.429 . S
C1224 C1207 1.574 . S
C1224 H1218 0.949 . S
C1224 C1228 1.368 . S
C1225 C1206 1.429 . S
C1225 C1219 1.429 . S
C1225 C1226 1.523 . S
C1226 C1207 1.368 . S
C1226 C1220 1.368 . S
C1226 C1225 1.523 . S
C1227 C1211 1.429 . S
C1227 C1223 1.429 . S
C1227 C1228 1.523 . S
C1228 C1212 1.368 . S
C1228 C1224 1.368 . S
C1228 C1227 1.523 . S
H1229 C1204 0.950 . S
H1230 C1206 0.950 . S
H1231 C1207 0.949 . S
H1232 C1209 0.950 . S
H1233 C1211 0.950 . S
C1234 C1235 1.349 . S
C1234 C1236 1.327 . S
C1234 H1259 0.950 . S
C1235 C1234 1.349 . S
C1235 C1251 1.349 . S
C1236 C1234 1.327 . S
C1236 C1255 1.429 . S
C1236 H1260 0.950 . S
C1237 C1254 1.574 . S
C1237 C1256 1.368 . S
C1237 H1261 0.949 . S
H1238 C1242 0.949 . S
C1239 C1240 1.349 . S
C1239 C1241 1.327 . S
C1239 H1262 0.950 . S
C1240 C1239 1.349 . S
C1240 C1252 1.349 . S
C1241 C1239 1.327 . S
C1241 C1257 1.429 . S
C1241 H1263 0.950 . S
C1242 H1238 0.949 . S
C1242 C1250 1.574 . S
C1242 C1258 1.368 . S
H1243 C1251 0.950 . S
H1244 C1249 0.950 . S
H1245 C1250 0.949 . S
H1246 C1252 0.950 . S
H1247 C1253 0.950 . S
H1248 C1254 0.949 . S
C1249 H1244 0.950 . S
C1249 C1251 1.327 . S
C1249 C1255 1.429 . S
C1250 C1242 1.574 . S
C1250 H1245 0.949 . S
C1250 C1256 1.368 . S
C1251 C1235 1.349 . S
C1251 H1243 0.950 . S
C1251 C1249 1.327 . S
C1252 C1240 1.349 . S
C1252 H1246 0.950 . S
C1252 C1253 1.327 . S
C1253 H1247 0.950 . S
C1253 C1252 1.327 . S
C1253 C1257 1.429 . S
C1254 C1237 1.574 . S
C1254 H1248 0.949 . S
C1254 C1258 1.368 . S
C1255 C1236 1.429 . S
C1255 C1249 1.429 . S
C1255 C1256 1.523 . S
C1256 C1237 1.368 . S
C1256 C1250 1.368 . S
C1256 C1255 1.523 . S
C1257 C1241 1.429 . S
C1257 C1253 1.429 . S
C1257 C1258 1.523 . S
C1258 C1242 1.368 . S
C1258 C1254 1.368 . S
C1258 C1257 1.523 . S
H1259 C1234 0.950 . S
H1260 C1236 0.950 . S
H1261 C1237 0.949 . S
H1262 C1239 0.950 . S
H1263 C1241 0.950 . S
C1264 C1265 1.349 . S
C1264 C1266 1.327 . S
C1264 H1289 0.950 . S
C1265 C1264 1.349 . S
C1265 C1281 1.349 . S
C1266 C1264 1.327 . S
C1266 C1285 1.429 . S
C1266 H1290 0.950 . S
C1267 C1284 1.574 1_655 S
C1267 C1286 1.368 1_545 S
C1267 H1291 0.949 . S
H1268 C1272 0.949 . S
C1269 C1270 1.349 . S
C1269 C1271 1.327 . S
C1269 H1292 0.950 . S
C1270 C1269 1.349 . S
C1270 C1282 1.349 . S
C1271 C1269 1.327 . S
C1271 C1287 1.429 . S
C1271 H1293 0.950 . S
C1272 H1268 0.949 . S
C1272 C1280 1.574 1_455 S
C1272 C1288 1.368 1_565 S
H1273 C1281 0.950 1_545 S
H1274 C1279 0.950 1_545 S
H1275 C1280 0.949 . S
H1276 C1282 0.950 1_565 S
H1277 C1283 0.950 1_565 S
H1278 C1284 0.949 . S
C1279 H1274 0.950 1_565 S
C1279 C1281 1.327 . S
C1279 C1285 1.429 . S
C1280 C1272 1.574 1_655 S
C1280 H1275 0.949 . S
C1280 C1286 1.368 . S
C1281 C1265 1.349 . S
C1281 H1273 0.950 1_565 S
C1281 C1279 1.327 . S
C1282 C1270 1.349 . S
C1282 H1276 0.950 1_545 S
C1282 C1283 1.327 . S
C1283 H1277 0.950 1_545 S
C1283 C1282 1.327 . S
C1283 C1287 1.429 . S
C1284 C1267 1.574 1_455 S
C1284 H1278 0.949 . S
C1284 C1288 1.368 . S
C1285 C1266 1.429 . S
C1285 C1279 1.429 . S
C1285 C1286 1.523 . S
C1286 C1267 1.368 1_565 S
C1286 C1280 1.368 . S
C1286 C1285 1.523 . S
C1287 C1271 1.429 . S
C1287 C1283 1.429 . S
C1287 C1288 1.523 . S
C1288 C1272 1.368 1_545 S
C1288 C1284 1.368 . S
C1288 C1287 1.523 . S
H1289 C1264 0.950 . S
H1290 C1266 0.950 . S
H1291 C1267 0.949 . S
H1292 C1269 0.950 . S
H1293 C1271 0.950 . S
C1294 C1295 1.349 . S
C1294 C1296 1.327 . S
C1294 H1319 0.950 1_545 S
C1295 C1294 1.349 . S
C1295 C1311 1.349 . S
C1296 C1294 1.327 . S
C1296 C1315 1.429 . S
C1296 H1320 0.950 1_545 S
C1297 C1314 1.574 1_655 S
C1297 C1316 1.368 . S
C1297 H1321 0.949 . S
H1298 C1302 0.949 . S
C1299 C1300 1.349 . S
C1299 C1301 1.327 . S
C1299 H1322 0.950 1_565 S
C1300 C1299 1.349 . S
C1300 C1312 1.349 . S
C1301 C1299 1.327 . S
C1301 C1317 1.429 . S
C1301 H1323 0.950 1_565 S
C1302 H1298 0.949 . S
C1302 C1310 1.574 1_455 S
C1302 C1318 1.368 . S
H1303 C1311 0.950 . S
H1304 C1309 0.950 . S
H1305 C1310 0.949 . S
H1306 C1312 0.950 . S
H1307 C1313 0.950 . S
H1308 C1314 0.949 . S
C1309 H1304 0.950 . S
C1309 C1311 1.327 . S
C1309 C1315 1.429 . S
C1310 C1302 1.574 1_655 S
C1310 H1305 0.949 . S
C1310 C1316 1.368 1_565 S
C1311 C1295 1.349 . S
C1311 H1303 0.950 . S
C1311 C1309 1.327 . S
C1312 C1300 1.349 . S
C1312 H1306 0.950 . S
C1312 C1313 1.327 . S
C1313 H1307 0.950 . S
C1313 C1312 1.327 . S
C1313 C1317 1.429 . S
C1314 C1297 1.574 1_455 S
C1314 H1308 0.949 . S
C1314 C1318 1.368 1_545 S
C1315 C1296 1.429 . S
C1315 C1309 1.429 . S
C1315 C1316 1.523 . S
C1316 C1297 1.368 . S
C1316 C1310 1.368 1_545 S
C1316 C1315 1.523 . S
C1317 C1301 1.429 . S
C1317 C1313 1.429 . S
C1317 C1318 1.523 . S
C1318 C1302 1.368 . S
C1318 C1314 1.368 1_565 S
C1318 C1317 1.523 . S
H1319 C1294 0.950 1_565 S
H1320 C1296 0.950 1_565 S
H1321 C1297 0.949 . S
H1322 C1299 0.950 1_545 S
H1323 C1301 0.950 1_545 S
C1324 C1325 1.349 . S
C1324 C1326 1.327 . S
C1324 H1349 0.950 1_545 S
C1325 C1324 1.349 . S
C1325 C1341 1.349 . S
C1326 C1324 1.327 . S
C1326 C1345 1.429 . S
C1326 H1350 0.950 1_545 S
C1327 C1344 1.574 1_455 S
C1327 C1346 1.368 . S
C1327 H1351 0.949 . S
H1328 C1332 0.949 . S
C1329 C1330 1.349 . S
C1329 C1331 1.327 . S
C1329 H1352 0.950 1_565 S
C1330 C1329 1.349 . S
C1330 C1342 1.349 . S
C1331 C1329 1.327 . S
C1331 C1347 1.429 . S
C1331 H1353 0.950 1_565 S
C1332 H1328 0.949 . S
C1332 C1340 1.574 1_655 S
C1332 C1348 1.368 . S
H1333 C1341 0.950 . S
H1334 C1339 0.950 . S
H1335 C1340 0.949 . S
H1336 C1342 0.950 . S
H1337 C1343 0.950 . S
H1338 C1344 0.949 . S
C1339 H1334 0.950 . S
C1339 C1341 1.327 . S
C1339 C1345 1.429 . S
C1340 C1332 1.574 1_455 S
C1340 H1335 0.949 . S
C1340 C1346 1.368 1_565 S
C1341 C1325 1.349 . S
C1341 H1333 0.950 . S
C1341 C1339 1.327 . S
C1342 C1330 1.349 . S
C1342 H1336 0.950 . S
C1342 C1343 1.327 . S
C1343 H1337 0.950 . S
C1343 C1342 1.327 . S
C1343 C1347 1.429 . S
C1344 C1327 1.574 1_655 S
C1344 H1338 0.949 . S
C1344 C1348 1.368 1_545 S
C1345 C1326 1.429 . S
C1345 C1339 1.429 . S
C1345 C1346 1.523 . S
C1346 C1327 1.368 . S
C1346 C1340 1.368 1_545 S
C1346 C1345 1.523 . S
C1347 C1331 1.429 . S
C1347 C1343 1.429 . S
C1347 C1348 1.523 . S
C1348 C1332 1.368 . S
C1348 C1344 1.368 1_565 S
C1348 C1347 1.523 . S
H1349 C1324 0.950 1_565 S
H1350 C1326 0.950 1_565 S
H1351 C1327 0.949 . S
H1352 C1329 0.950 1_545 S
H1353 C1331 0.950 1_545 S
C1354 C1355 1.349 . S
C1354 C1356 1.327 . S
C1354 H1379 0.950 . S
C1355 C1354 1.349 . S
C1355 C1371 1.349 . S
C1356 C1354 1.327 . S
C1356 C1375 1.429 . S
C1356 H1380 0.950 . S
C1357 C1374 1.574 1_655 S
C1357 C1376 1.368 1_565 S
C1357 H1381 0.949 . S
H1358 C1362 0.949 . S
C1359 C1360 1.349 . S
C1359 C1361 1.327 . S
C1359 H1382 0.950 . S
C1360 C1359 1.349 . S
C1360 C1372 1.349 . S
C1361 C1359 1.327 . S
C1361 C1377 1.429 . S
C1361 H1383 0.950 . S
C1362 H1358 0.949 . S
C1362 C1370 1.574 1_455 S
C1362 C1378 1.368 1_545 S
H1363 C1371 0.950 1_565 S
H1364 C1369 0.950 1_565 S
H1365 C1370 0.949 . S
H1366 C1372 0.950 1_545 S
H1367 C1373 0.950 1_545 S
H1368 C1374 0.949 . S
C1369 H1364 0.950 1_545 S
C1369 C1371 1.327 . S
C1369 C1375 1.429 . S
C1370 C1362 1.574 1_655 S
C1370 H1365 0.949 . S
C1370 C1376 1.368 . S
C1371 C1355 1.349 . S
C1371 H1363 0.950 1_545 S
C1371 C1369 1.327 . S
C1372 C1360 1.349 . S
C1372 H1366 0.950 1_565 S
C1372 C1373 1.327 . S
C1373 H1367 0.950 1_565 S
C1373 C1372 1.327 . S
C1373 C1377 1.429 . S
C1374 C1357 1.574 1_455 S
C1374 H1368 0.949 . S
C1374 C1378 1.368 . S
C1375 C1356 1.429 . S
C1375 C1369 1.429 . S
C1375 C1376 1.523 . S
C1376 C1357 1.368 1_545 S
C1376 C1370 1.368 . S
C1376 C1375 1.523 . S
C1377 C1361 1.429 . S
C1377 C1373 1.429 . S
C1377 C1378 1.523 . S
C1378 C1362 1.368 1_565 S
C1378 C1374 1.368 . S
C1378 C1377 1.523 . S
H1379 C1354 0.950 . S
H1380 C1356 0.950 . S
H1381 C1357 0.949 . S
H1382 C1359 0.950 . S
H1383 C1361 0.950 . S
C1384 C1385 1.349 . S
C1384 C1386 1.327 . S
C1384 H1409 0.950 . S
C1385 C1384 1.349 . S
C1385 C1401 1.349 . S
C1386 C1384 1.327 . S
C1386 C1405 1.429 . S
C1386 H1410 0.950 . S
C1387 C1404 1.574 . S
C1387 C1406 1.368 . S
C1387 H1411 0.949 . S
H1388 C1392 0.949 . S
C1389 C1390 1.349 . S
C1389 C1391 1.327 . S
C1389 H1412 0.950 . S
C1390 C1389 1.349 . S
C1390 C1402 1.349 . S
C1391 C1389 1.327 . S
C1391 C1407 1.429 . S
C1391 H1413 0.950 . S
C1392 H1388 0.949 . S
C1392 C1400 1.574 . S
C1392 C1408 1.368 . S
H1393 C1401 0.950 . S
H1394 C1399 0.950 . S
H1395 C1400 0.949 . S
H1396 C1402 0.950 . S
H1397 C1403 0.950 . S
H1398 C1404 0.949 . S
C1399 H1394 0.950 . S
C1399 C1401 1.327 . S
C1399 C1405 1.429 . S
C1400 C1392 1.574 . S
C1400 H1395 0.949 . S
C1400 C1406 1.368 . S
C1401 C1385 1.349 . S
C1401 H1393 0.950 . S
C1401 C1399 1.327 . S
C1402 C1390 1.349 . S
C1402 H1396 0.950 . S
C1402 C1403 1.327 . S
C1403 H1397 0.950 . S
C1403 C1402 1.327 . S
C1403 C1407 1.429 . S
C1404 C1387 1.574 . S
C1404 H1398 0.949 . S
C1404 C1408 1.368 . S
C1405 C1386 1.429 . S
C1405 C1399 1.429 . S
C1405 C1406 1.523 . S
C1406 C1387 1.368 . S
C1406 C1400 1.368 . S
C1406 C1405 1.523 . S
C1407 C1391 1.429 . S
C1407 C1403 1.429 . S
C1407 C1408 1.523 . S
C1408 C1392 1.368 . S
C1408 C1404 1.368 . S
C1408 C1407 1.523 . S
H1409 C1384 0.950 . S
H1410 C1386 0.950 . S
H1411 C1387 0.949 . S
H1412 C1389 0.950 . S
H1413 C1391 0.950 . S
C1414 C1415 1.349 . S
C1414 C1416 1.327 . S
C1414 H1439 0.950 . S
C1415 C1414 1.349 . S
C1415 C1431 1.349 . S
C1416 C1414 1.327 . S
C1416 C1435 1.429 . S
C1416 H1440 0.950 . S
C1417 C1434 1.574 . S
C1417 C1436 1.368 . S
C1417 H1441 0.949 . S
H1418 C1422 0.949 . S
C1419 C1420 1.349 . S
C1419 C1421 1.327 . S
C1419 H1442 0.950 . S
C1420 C1419 1.349 . S
C1420 C1432 1.349 . S
C1421 C1419 1.327 . S
C1421 C1437 1.429 . S
C1421 H1443 0.950 . S
C1422 H1418 0.949 . S
C1422 C1430 1.574 . S
C1422 C1438 1.368 . S
H1423 C1431 0.950 . S
H1424 C1429 0.950 . S
H1425 C1430 0.949 . S
H1426 C1432 0.950 . S
H1427 C1433 0.950 . S
H1428 C1434 0.949 . S
C1429 H1424 0.950 . S
C1429 C1431 1.327 . S
C1429 C1435 1.429 . S
C1430 C1422 1.574 . S
C1430 H1425 0.949 . S
C1430 C1436 1.368 . S
C1431 C1415 1.349 . S
C1431 H1423 0.950 . S
C1431 C1429 1.327 . S
C1432 C1420 1.349 . S
C1432 H1426 0.950 . S
C1432 C1433 1.327 . S
C1433 H1427 0.950 . S
C1433 C1432 1.327 . S
C1433 C1437 1.429 . S
C1434 C1417 1.574 . S
C1434 H1428 0.949 . S
C1434 C1438 1.368 . S
C1435 C1416 1.429 . S
C1435 C1429 1.429 . S
C1435 C1436 1.523 . S
C1436 C1417 1.368 . S
C1436 C1430 1.368 . S
C1436 C1435 1.523 . S
C1437 C1421 1.429 . S
C1437 C1433 1.429 . S
C1437 C1438 1.523 . S
C1438 C1422 1.368 . S
C1438 C1434 1.368 . S
C1438 C1437 1.523 . S
H1439 C1414 0.950 . S
H1440 C1416 0.950 . S
H1441 C1417 0.949 . S
H1442 C1419 0.950 . S
H1443 C1421 0.950 . S
C1444 C1445 1.349 . S
C1444 C1446 1.327 . S
C1444 H1469 0.950 . S
C1445 C1444 1.349 . S
C1445 C1461 1.349 . S
C1446 C1444 1.327 . S
C1446 C1465 1.429 . S
C1446 H1470 0.950 . S
C1447 C1464 1.574 . S
C1447 C1466 1.368 . S
C1447 H1471 0.949 . S
H1448 C1452 0.949 . S
C1449 C1450 1.349 . S
C1449 C1451 1.327 . S
C1449 H1472 0.950 . S
C1450 C1449 1.349 . S
C1450 C1462 1.349 . S
C1451 C1449 1.327 . S
C1451 C1467 1.429 . S
C1451 H1473 0.950 . S
C1452 H1448 0.949 . S
C1452 C1460 1.574 . S
C1452 C1468 1.368 . S
H1453 C1461 0.950 . S
H1454 C1459 0.950 . S
H1455 C1460 0.949 . S
H1456 C1462 0.950 . S
H1457 C1463 0.950 . S
H1458 C1464 0.949 . S
C1459 H1454 0.950 . S
C1459 C1461 1.327 . S
C1459 C1465 1.429 . S
C1460 C1452 1.574 . S
C1460 H1455 0.949 . S
C1460 C1466 1.368 . S
C1461 C1445 1.349 . S
C1461 H1453 0.950 . S
C1461 C1459 1.327 . S
C1462 C1450 1.349 . S
C1462 H1456 0.950 . S
C1462 C1463 1.327 . S
C1463 H1457 0.950 . S
C1463 C1462 1.327 . S
C1463 C1467 1.429 . S
C1464 C1447 1.574 . S
C1464 H1458 0.949 . S
C1464 C1468 1.368 . S
C1465 C1446 1.429 . S
C1465 C1459 1.429 . S
C1465 C1466 1.523 . S
C1466 C1447 1.368 . S
C1466 C1460 1.368 . S
C1466 C1465 1.523 . S
C1467 C1451 1.429 . S
C1467 C1463 1.429 . S
C1467 C1468 1.523 . S
C1468 C1452 1.368 . S
C1468 C1464 1.368 . S
C1468 C1467 1.523 . S
H1469 C1444 0.950 . S
H1470 C1446 0.950 . S
H1471 C1447 0.949 . S
H1472 C1449 0.950 . S
H1473 C1451 0.950 . S
C1474 C1475 1.349 . S
C1474 C1476 1.327 . S
C1474 H1499 0.950 . S
C1475 C1474 1.349 . S
C1475 C1491 1.349 . S
C1476 C1474 1.327 . S
C1476 C1495 1.429 . S
C1476 H1500 0.950 . S
C1477 C1494 1.574 . S
C1477 C1496 1.368 . S
C1477 H1501 0.949 . S
H1478 C1482 0.949 . S
C1479 C1480 1.349 . S
C1479 C1481 1.327 . S
C1479 H1502 0.950 . S
C1480 C1479 1.349 . S
C1480 C1492 1.349 . S
C1481 C1479 1.327 . S
C1481 C1497 1.429 . S
C1481 H1503 0.950 . S
C1482 H1478 0.949 . S
C1482 C1490 1.574 . S
C1482 C1498 1.368 . S
H1483 C1491 0.950 . S
H1484 C1489 0.950 . S
H1485 C1490 0.949 . S
H1486 C1492 0.950 . S
H1487 C1493 0.950 . S
H1488 C1494 0.949 . S
C1489 H1484 0.950 . S
C1489 C1491 1.327 . S
C1489 C1495 1.429 . S
C1490 C1482 1.574 . S
C1490 H1485 0.949 . S
C1490 C1496 1.368 . S
C1491 C1475 1.349 . S
C1491 H1483 0.950 . S
C1491 C1489 1.327 . S
C1492 C1480 1.349 . S
C1492 H1486 0.950 . S
C1492 C1493 1.327 . S
C1493 H1487 0.950 . S
C1493 C1492 1.327 . S
C1493 C1497 1.429 . S
C1494 C1477 1.574 . S
C1494 H1488 0.949 . S
C1494 C1498 1.368 . S
C1495 C1476 1.429 . S
C1495 C1489 1.429 . S
C1495 C1496 1.523 . S
C1496 C1477 1.368 . S
C1496 C1490 1.368 . S
C1496 C1495 1.523 . S
C1497 C1481 1.429 . S
C1497 C1493 1.429 . S
C1497 C1498 1.523 . S
C1498 C1482 1.368 . S
C1498 C1494 1.368 . S
C1498 C1497 1.523 . S
H1499 C1474 0.950 . S
H1500 C1476 0.950 . S
H1501 C1477 0.949 . S
H1502 C1479 0.950 . S
H1503 C1481 0.950 . S
C1504 C1505 1.349 . S
C1504 C1506 1.327 . S
C1504 H1529 0.950 . S
C1505 C1504 1.349 . S
C1505 C1521 1.349 . S
C1506 C1504 1.327 . S
C1506 C1525 1.429 . S
C1506 H1530 0.950 . S
C1507 C1524 1.574 . S
C1507 C1526 1.368 . S
C1507 H1531 0.949 . S
H1508 C1512 0.949 . S
C1509 C1510 1.349 . S
C1509 C1511 1.327 . S
C1509 H1532 0.950 . S
C1510 C1509 1.349 . S
C1510 C1522 1.349 . S
C1511 C1509 1.327 . S
C1511 C1527 1.429 . S
C1511 H1533 0.950 . S
C1512 H1508 0.949 . S
C1512 C1520 1.574 . S
C1512 C1528 1.368 . S
H1513 C1521 0.950 . S
H1514 C1519 0.950 . S
H1515 C1520 0.949 . S
H1516 C1522 0.950 . S
H1517 C1523 0.950 . S
H1518 C1524 0.949 . S
C1519 H1514 0.950 . S
C1519 C1521 1.327 . S
C1519 C1525 1.429 . S
C1520 C1512 1.574 . S
C1520 H1515 0.949 . S
C1520 C1526 1.368 . S
C1521 C1505 1.349 . S
C1521 H1513 0.950 . S
C1521 C1519 1.327 . S
C1522 C1510 1.349 . S
C1522 H1516 0.950 . S
C1522 C1523 1.327 . S
C1523 H1517 0.950 . S
C1523 C1522 1.327 . S
C1523 C1527 1.429 . S
C1524 C1507 1.574 . S
C1524 H1518 0.949 . S
C1524 C1528 1.368 . S
C1525 C1506 1.429 . S
C1525 C1519 1.429 . S
C1525 C1526 1.523 . S
C1526 C1507 1.368 . S
C1526 C1520 1.368 . S
C1526 C1525 1.523 . S
C1527 C1511 1.429 . S
C1527 C1523 1.429 . S
C1527 C1528 1.523 . S
C1528 C1512 1.368 . S
C1528 C1524 1.368 . S
C1528 C1527 1.523 . S
H1529 C1504 0.950 . S
H1530 C1506 0.950 . S
H1531 C1507 0.949 . S
H1532 C1509 0.950 . S
H1533 C1511 0.950 . S
C1534 C1535 1.349 . S
C1534 C1536 1.327 . S
C1534 H1559 0.950 . S
C1535 C1534 1.349 . S
C1535 C1551 1.349 . S
C1536 C1534 1.327 . S
C1536 C1555 1.429 . S
C1536 H1560 0.950 . S
C1537 C1554 1.574 . S
C1537 C1556 1.368 . S
C1537 H1561 0.949 . S
H1538 C1542 0.949 . S
C1539 C1540 1.349 . S
C1539 C1541 1.327 . S
C1539 H1562 0.950 . S
C1540 C1539 1.349 . S
C1540 C1552 1.349 . S
C1541 C1539 1.327 . S
C1541 C1557 1.429 . S
C1541 H1563 0.950 . S
C1542 H1538 0.949 . S
C1542 C1550 1.574 . S
C1542 C1558 1.368 . S
H1543 C1551 0.950 . S
H1544 C1549 0.950 . S
H1545 C1550 0.949 . S
H1546 C1552 0.950 . S
H1547 C1553 0.950 . S
H1548 C1554 0.949 . S
C1549 H1544 0.950 . S
C1549 C1551 1.327 . S
C1549 C1555 1.429 . S
C1550 C1542 1.574 . S
C1550 H1545 0.949 . S
C1550 C1556 1.368 . S
C1551 C1535 1.349 . S
C1551 H1543 0.950 . S
C1551 C1549 1.327 . S
C1552 C1540 1.349 . S
C1552 H1546 0.950 . S
C1552 C1553 1.327 . S
C1553 H1547 0.950 . S
C1553 C1552 1.327 . S
C1553 C1557 1.429 . S
C1554 C1537 1.574 . S
C1554 H1548 0.949 . S
C1554 C1558 1.368 . S
C1555 C1536 1.429 . S
C1555 C1549 1.429 . S
C1555 C1556 1.523 . S
C1556 C1537 1.368 . S
C1556 C1550 1.368 . S
C1556 C1555 1.523 . S
C1557 C1541 1.429 . S
C1557 C1553 1.429 . S
C1557 C1558 1.523 . S
C1558 C1542 1.368 . S
C1558 C1554 1.368 . S
C1558 C1557 1.523 . S
H1559 C1534 0.950 . S
H1560 C1536 0.950 . S
H1561 C1537 0.949 . S
H1562 C1539 0.950 . S
H1563 C1541 0.950 . S
C1564 C1565 1.349 . S
C1564 C1566 1.327 . S
C1564 H1589 0.950 . S
C1565 C1564 1.349 . S
C1565 C1581 1.349 . S
C1566 C1564 1.327 . S
C1566 C1585 1.429 . S
C1566 H1590 0.950 . S
C1567 C1584 1.574 . S
C1567 C1586 1.368 . S
C1567 H1591 0.949 . S
H1568 C1572 0.949 . S
C1569 C1570 1.349 . S
C1569 C1571 1.327 . S
C1569 H1592 0.950 . S
C1570 C1569 1.349 . S
C1570 C1582 1.349 . S
C1571 C1569 1.327 . S
C1571 C1587 1.429 . S
C1571 H1593 0.950 . S
C1572 H1568 0.949 . S
C1572 C1580 1.574 . S
C1572 C1588 1.368 . S
H1573 C1581 0.950 . S
H1574 C1579 0.950 . S
H1575 C1580 0.949 . S
H1576 C1582 0.950 . S
H1577 C1583 0.950 . S
H1578 C1584 0.949 . S
C1579 H1574 0.950 . S
C1579 C1581 1.327 . S
C1579 C1585 1.429 . S
C1580 C1572 1.574 . S
C1580 H1575 0.949 . S
C1580 C1586 1.368 . S
C1581 C1565 1.349 . S
C1581 H1573 0.950 . S
C1581 C1579 1.327 . S
C1582 C1570 1.349 . S
C1582 H1576 0.950 . S
C1582 C1583 1.327 . S
C1583 H1577 0.950 . S
C1583 C1582 1.327 . S
C1583 C1587 1.429 . S
C1584 C1567 1.574 . S
C1584 H1578 0.949 . S
C1584 C1588 1.368 . S
C1585 C1566 1.429 . S
C1585 C1579 1.429 . S
C1585 C1586 1.523 . S
C1586 C1567 1.368 . S
C1586 C1580 1.368 . S
C1586 C1585 1.523 . S
C1587 C1571 1.429 . S
C1587 C1583 1.429 . S
C1587 C1588 1.523 . S
C1588 C1572 1.368 . S
C1588 C1584 1.368 . S
C1588 C1587 1.523 . S
H1589 C1564 0.950 . S
H1590 C1566 0.950 . S
H1591 C1567 0.949 . S
H1592 C1569 0.950 . S
H1593 C1571 0.950 . S
C1594 C1595 1.349 . S
C1594 C1596 1.327 . S
C1594 H1619 0.950 . S
C1595 C1594 1.349 . S
C1595 C1611 1.349 . S
C1596 C1594 1.327 . S
C1596 C1615 1.429 . S
C1596 H1620 0.950 . S
C1597 C1614 1.574 . S
C1597 C1616 1.368 . S
C1597 H1621 0.949 . S
H1598 C1602 0.949 . S
C1599 C1600 1.349 . S
C1599 C1601 1.327 . S
C1599 H1622 0.950 . S
C1600 C1599 1.349 . S
C1600 C1612 1.349 . S
C1601 C1599 1.327 . S
C1601 C1617 1.429 . S
C1601 H1623 0.950 . S
C1602 H1598 0.949 . S
C1602 C1610 1.574 . S
C1602 C1618 1.368 . S
H1603 C1611 0.950 . S
H1604 C1609 0.950 . S
H1605 C1610 0.949 . S
H1606 C1612 0.950 . S
H1607 C1613 0.950 . S
H1608 C1614 0.949 . S
C1609 H1604 0.950 . S
C1609 C1611 1.327 . S
C1609 C1615 1.429 . S
C1610 C1602 1.574 . S
C1610 H1605 0.949 . S
C1610 C1616 1.368 . S
C1611 C1595 1.349 . S
C1611 H1603 0.950 . S
C1611 C1609 1.327 . S
C1612 C1600 1.349 . S
C1612 H1606 0.950 . S
C1612 C1613 1.327 . S
C1613 H1607 0.950 . S
C1613 C1612 1.327 . S
C1613 C1617 1.429 . S
C1614 C1597 1.574 . S
C1614 H1608 0.949 . S
C1614 C1618 1.368 . S
C1615 C1596 1.429 . S
C1615 C1609 1.429 . S
C1615 C1616 1.523 . S
C1616 C1597 1.368 . S
C1616 C1610 1.368 . S
C1616 C1615 1.523 . S
C1617 C1601 1.429 . S
C1617 C1613 1.429 . S
C1617 C1618 1.523 . S
C1618 C1602 1.368 . S
C1618 C1614 1.368 . S
C1618 C1617 1.523 . S
H1619 C1594 0.950 . S
H1620 C1596 0.950 . S
H1621 C1597 0.949 . S
H1622 C1599 0.950 . S
H1623 C1601 0.950 . S
C1624 C1625 1.349 . S
C1624 C1626 1.327 . S
C1624 H1649 0.950 . S
C1625 C1624 1.349 . S
C1625 C1641 1.349 . S
C1626 C1624 1.327 . S
C1626 C1645 1.429 . S
C1626 H1650 0.950 . S
C1627 C1644 1.574 . S
C1627 C1646 1.368 . S
C1627 H1651 0.949 . S
H1628 C1632 0.949 . S
C1629 C1630 1.349 . S
C1629 C1631 1.327 . S
C1629 H1652 0.950 . S
C1630 C1629 1.349 . S
C1630 C1642 1.349 . S
C1631 C1629 1.327 . S
C1631 C1647 1.429 . S
C1631 H1653 0.950 . S
C1632 H1628 0.949 . S
C1632 C1640 1.574 . S
C1632 C1648 1.368 . S
H1633 C1641 0.950 . S
H1634 C1639 0.950 . S
H1635 C1640 0.949 . S
H1636 C1642 0.950 . S
H1637 C1643 0.950 . S
H1638 C1644 0.949 . S
C1639 H1634 0.950 . S
C1639 C1641 1.327 . S
C1639 C1645 1.429 . S
C1640 C1632 1.574 . S
C1640 H1635 0.949 . S
C1640 C1646 1.368 . S
C1641 C1625 1.349 . S
C1641 H1633 0.950 . S
C1641 C1639 1.327 . S
C1642 C1630 1.349 . S
C1642 H1636 0.950 . S
C1642 C1643 1.327 . S
C1643 H1637 0.950 . S
C1643 C1642 1.327 . S
C1643 C1647 1.429 . S
C1644 C1627 1.574 . S
C1644 H1638 0.949 . S
C1644 C1648 1.368 . S
C1645 C1626 1.429 . S
C1645 C1639 1.429 . S
C1645 C1646 1.523 . S
C1646 C1627 1.368 . S
C1646 C1640 1.368 . S
C1646 C1645 1.523 . S
C1647 C1631 1.429 . S
C1647 C1643 1.429 . S
C1647 C1648 1.523 . S
C1648 C1632 1.368 . S
C1648 C1644 1.368 . S
C1648 C1647 1.523 . S
H1649 C1624 0.950 . S
H1650 C1626 0.950 . S
H1651 C1627 0.949 . S
H1652 C1629 0.950 . S
H1653 C1631 0.950 . S
C1654 C1655 1.349 . S
C1654 C1656 1.327 . S
C1654 H1679 0.950 . S
C1655 C1654 1.349 . S
C1655 C1671 1.349 . S
C1656 C1654 1.327 . S
C1656 C1675 1.429 . S
C1656 H1680 0.950 . S
C1657 C1674 1.574 . S
C1657 C1676 1.368 . S
C1657 H1681 0.949 . S
H1658 C1662 0.949 . S
C1659 C1660 1.349 . S
C1659 C1661 1.327 . S
C1659 H1682 0.950 . S
C1660 C1659 1.349 . S
C1660 C1672 1.349 . S
C1661 C1659 1.327 . S
C1661 C1677 1.429 . S
C1661 H1683 0.950 . S
C1662 H1658 0.949 . S
C1662 C1670 1.574 . S
C1662 C1678 1.368 . S
H1663 C1671 0.950 . S
H1664 C1669 0.950 . S
H1665 C1670 0.949 . S
H1666 C1672 0.950 . S
H1667 C1673 0.950 . S
H1668 C1674 0.949 . S
C1669 H1664 0.950 . S
C1669 C1671 1.327 . S
C1669 C1675 1.429 . S
C1670 C1662 1.574 . S
C1670 H1665 0.949 . S
C1670 C1676 1.368 . S
C1671 C1655 1.349 . S
C1671 H1663 0.950 . S
C1671 C1669 1.327 . S
C1672 C1660 1.349 . S
C1672 H1666 0.950 . S
C1672 C1673 1.327 . S
C1673 H1667 0.950 . S
C1673 C1672 1.327 . S
C1673 C1677 1.429 . S
C1674 C1657 1.574 . S
C1674 H1668 0.949 . S
C1674 C1678 1.368 . S
C1675 C1656 1.429 . S
C1675 C1669 1.429 . S
C1675 C1676 1.523 . S
C1676 C1657 1.368 . S
C1676 C1670 1.368 . S
C1676 C1675 1.523 . S
C1677 C1661 1.429 . S
C1677 C1673 1.429 . S
C1677 C1678 1.523 . S
C1678 C1662 1.368 . S
C1678 C1674 1.368 . S
C1678 C1677 1.523 . S
H1679 C1654 0.950 . S
H1680 C1656 0.950 . S
H1681 C1657 0.949 . S
H1682 C1659 0.950 . S
H1683 C1661 0.950 . S
C1684 C1685 1.349 . S
C1684 C1686 1.327 . S
C1684 H1709 0.950 . S
C1685 C1684 1.349 . S
C1685 C1701 1.349 . S
C1686 C1684 1.327 . S
C1686 C1705 1.429 . S
C1686 H1710 0.950 . S
C1687 C1704 1.574 . S
C1687 C1706 1.368 . S
C1687 H1711 0.949 . S
H1688 C1692 0.949 . S
C1689 C1690 1.349 . S
C1689 C1691 1.327 . S
C1689 H1712 0.950 . S
C1690 C1689 1.349 . S
C1690 C1702 1.349 . S
C1691 C1689 1.327 . S
C1691 C1707 1.429 . S
C1691 H1713 0.950 . S
C1692 H1688 0.949 . S
C1692 C1700 1.574 . S
C1692 C1708 1.368 . S
H1693 C1701 0.950 . S
H1694 C1699 0.950 . S
H1695 C1700 0.949 . S
H1696 C1702 0.950 . S
H1697 C1703 0.950 . S
H1698 C1704 0.949 . S
C1699 H1694 0.950 . S
C1699 C1701 1.327 . S
C1699 C1705 1.429 . S
C1700 C1692 1.574 . S
C1700 H1695 0.949 . S
C1700 C1706 1.368 . S
C1701 C1685 1.349 . S
C1701 H1693 0.950 . S
C1701 C1699 1.327 . S
C1702 C1690 1.349 . S
C1702 H1696 0.950 . S
C1702 C1703 1.327 . S
C1703 H1697 0.950 . S
C1703 C1702 1.327 . S
C1703 C1707 1.429 . S
C1704 C1687 1.574 . S
C1704 H1698 0.949 . S
C1704 C1708 1.368 . S
C1705 C1686 1.429 . S
C1705 C1699 1.429 . S
C1705 C1706 1.523 . S
C1706 C1687 1.368 . S
C1706 C1700 1.368 . S
C1706 C1705 1.523 . S
C1707 C1691 1.429 . S
C1707 C1703 1.429 . S
C1707 C1708 1.523 . S
C1708 C1692 1.368 . S
C1708 C1704 1.368 . S
C1708 C1707 1.523 . S
H1709 C1684 0.950 . S
H1710 C1686 0.950 . S
H1711 C1687 0.949 . S
H1712 C1689 0.950 . S
H1713 C1691 0.950 . S
C1714 C1715 1.349 . S
C1714 C1716 1.327 . S
C1714 H1739 0.950 . S
C1715 C1714 1.349 . S
C1715 C1731 1.349 . S
C1716 C1714 1.327 . S
C1716 C1735 1.429 . S
C1716 H1740 0.950 . S
C1717 C1734 1.574 . S
C1717 C1736 1.368 . S
C1717 H1741 0.949 . S
H1718 C1722 0.949 . S
C1719 C1720 1.349 . S
C1719 C1721 1.327 . S
C1719 H1742 0.950 . S
C1720 C1719 1.349 . S
C1720 C1732 1.349 . S
C1721 C1719 1.327 . S
C1721 C1737 1.429 . S
C1721 H1743 0.950 . S
C1722 H1718 0.949 . S
C1722 C1730 1.574 . S
C1722 C1738 1.368 . S
H1723 C1731 0.950 . S
H1724 C1729 0.950 . S
H1725 C1730 0.949 . S
H1726 C1732 0.950 . S
H1727 C1733 0.950 . S
H1728 C1734 0.949 . S
C1729 H1724 0.950 . S
C1729 C1731 1.327 . S
C1729 C1735 1.429 . S
C1730 C1722 1.574 . S
C1730 H1725 0.949 . S
C1730 C1736 1.368 . S
C1731 C1715 1.349 . S
C1731 H1723 0.950 . S
C1731 C1729 1.327 . S
C1732 C1720 1.349 . S
C1732 H1726 0.950 . S
C1732 C1733 1.327 . S
C1733 H1727 0.950 . S
C1733 C1732 1.327 . S
C1733 C1737 1.429 . S
C1734 C1717 1.574 . S
C1734 H1728 0.949 . S
C1734 C1738 1.368 . S
C1735 C1716 1.429 . S
C1735 C1729 1.429 . S
C1735 C1736 1.523 . S
C1736 C1717 1.368 . S
C1736 C1730 1.368 . S
C1736 C1735 1.523 . S
C1737 C1721 1.429 . S
C1737 C1733 1.429 . S
C1737 C1738 1.523 . S
C1738 C1722 1.368 . S
C1738 C1734 1.368 . S
C1738 C1737 1.523 . S
H1739 C1714 0.950 . S
H1740 C1716 0.950 . S
H1741 C1717 0.949 . S
H1742 C1719 0.950 . S
H1743 C1721 0.950 . S
C1744 C1745 1.349 . S
C1744 C1746 1.327 . S
C1744 H1769 0.950 . S
C1745 C1744 1.349 . S
C1745 C1761 1.349 . S
C1746 C1744 1.327 . S
C1746 C1765 1.429 . S
C1746 H1770 0.950 . S
C1747 C1764 1.574 . S
C1747 C1766 1.368 . S
C1747 H1771 0.949 . S
H1748 C1752 0.949 . S
C1749 C1750 1.349 . S
C1749 C1751 1.327 . S
C1749 H1772 0.950 . S
C1750 C1749 1.349 . S
C1750 C1762 1.349 . S
C1751 C1749 1.327 . S
C1751 C1767 1.429 . S
C1751 H1773 0.950 . S
C1752 H1748 0.949 . S
C1752 C1760 1.574 . S
C1752 C1768 1.368 . S
H1753 C1761 0.950 . S
H1754 C1759 0.950 . S
H1755 C1760 0.949 . S
H1756 C1762 0.950 . S
H1757 C1763 0.950 . S
H1758 C1764 0.949 . S
C1759 H1754 0.950 . S
C1759 C1761 1.327 . S
C1759 C1765 1.429 . S
C1760 C1752 1.574 . S
C1760 H1755 0.949 . S
C1760 C1766 1.368 . S
C1761 C1745 1.349 . S
C1761 H1753 0.950 . S
C1761 C1759 1.327 . S
C1762 C1750 1.349 . S
C1762 H1756 0.950 . S
C1762 C1763 1.327 . S
C1763 H1757 0.950 . S
C1763 C1762 1.327 . S
C1763 C1767 1.429 . S
C1764 C1747 1.574 . S
C1764 H1758 0.949 . S
C1764 C1768 1.368 . S
C1765 C1746 1.429 . S
C1765 C1759 1.429 . S
C1765 C1766 1.523 1_565 S
C1766 C1747 1.368 . S
C1766 C1760 1.368 . S
C1766 C1765 1.523 1_545 S
C1767 C1751 1.429 . S
C1767 C1763 1.429 . S
C1767 C1768 1.523 . S
C1768 C1752 1.368 . S
C1768 C1764 1.368 . S
C1768 C1767 1.523 . S
H1769 C1744 0.950 . S
H1770 C1746 0.950 . S
H1771 C1747 0.949 . S
H1772 C1749 0.950 . S
H1773 C1751 0.950 . S
C1774 C1775 1.349 . S
C1774 C1776 1.327 . S
C1774 H1799 0.950 . S
C1775 C1774 1.349 . S
C1775 C1791 1.349 . S
C1776 C1774 1.327 . S
C1776 C1795 1.429 . S
C1776 H1800 0.950 . S
C1777 C1794 1.574 . S
C1777 C1796 1.368 . S
C1777 H1801 0.949 . S
H1778 C1782 0.949 . S
C1779 C1780 1.349 . S
C1779 C1781 1.327 . S
C1779 H1802 0.950 . S
C1780 C1779 1.349 . S
C1780 C1792 1.349 . S
C1781 C1779 1.327 . S
C1781 C1797 1.429 . S
C1781 H1803 0.950 . S
C1782 H1778 0.949 . S
C1782 C1790 1.574 . S
C1782 C1798 1.368 . S
H1783 C1791 0.950 . S
H1784 C1789 0.950 . S
H1785 C1790 0.949 . S
H1786 C1792 0.950 . S
H1787 C1793 0.950 . S
H1788 C1794 0.949 . S
C1789 H1784 0.950 . S
C1789 C1791 1.327 . S
C1789 C1795 1.429 . S
C1790 C1782 1.574 . S
C1790 H1785 0.949 . S
C1790 C1796 1.368 . S
C1791 C1775 1.349 . S
C1791 H1783 0.950 . S
C1791 C1789 1.327 . S
C1792 C1780 1.349 . S
C1792 H1786 0.950 . S
C1792 C1793 1.327 . S
C1793 H1787 0.950 . S
C1793 C1792 1.327 . S
C1793 C1797 1.429 . S
C1794 C1777 1.574 . S
C1794 H1788 0.949 . S
C1794 C1798 1.368 . S
C1795 C1776 1.429 . S
C1795 C1789 1.429 . S
C1795 C1796 1.523 . S
C1796 C1777 1.368 . S
C1796 C1790 1.368 . S
C1796 C1795 1.523 . S
C1797 C1781 1.429 . S
C1797 C1793 1.429 . S
C1797 C1798 1.523 1_545 S
C1798 C1782 1.368 . S
C1798 C1794 1.368 . S
C1798 C1797 1.523 1_565 S
H1799 C1774 0.950 . S
H1800 C1776 0.950 . S
H1801 C1777 0.949 . S
H1802 C1779 0.950 . S
H1803 C1781 0.950 . S
C1804 C1805 1.349 . S
C1804 C1806 1.327 . S
C1804 H1829 0.950 . S
C1805 C1804 1.349 . S
C1805 C1821 1.349 . S
C1806 C1804 1.327 . S
C1806 C1825 1.429 . S
C1806 H1830 0.950 . S
C1807 C1824 1.574 . S
C1807 C1826 1.368 . S
C1807 H1831 0.949 . S
H1808 C1812 0.949 . S
C1809 C1810 1.349 . S
C1809 C1811 1.327 . S
C1809 H1832 0.950 . S
C1810 C1809 1.349 . S
C1810 C1822 1.349 . S
C1811 C1809 1.327 . S
C1811 C1827 1.429 . S
C1811 H1833 0.950 . S
C1812 H1808 0.949 . S
C1812 C1820 1.574 . S
C1812 C1828 1.368 . S
H1813 C1821 0.950 . S
H1814 C1819 0.950 . S
H1815 C1820 0.949 . S
H1816 C1822 0.950 . S
H1817 C1823 0.950 . S
H1818 C1824 0.949 . S
C1819 H1814 0.950 . S
C1819 C1821 1.327 . S
C1819 C1825 1.429 . S
C1820 C1812 1.574 . S
C1820 H1815 0.949 . S
C1820 C1826 1.368 . S
C1821 C1805 1.349 . S
C1821 H1813 0.950 . S
C1821 C1819 1.327 . S
C1822 C1810 1.349 . S
C1822 H1816 0.950 . S
C1822 C1823 1.327 . S
C1823 H1817 0.950 . S
C1823 C1822 1.327 . S
C1823 C1827 1.429 . S
C1824 C1807 1.574 . S
C1824 H1818 0.949 . S
C1824 C1828 1.368 . S
C1825 C1806 1.429 . S
C1825 C1819 1.429 . S
C1825 C1826 1.523 1_545 S
C1826 C1807 1.368 . S
C1826 C1820 1.368 . S
C1826 C1825 1.523 1_565 S
C1827 C1811 1.429 . S
C1827 C1823 1.429 . S
C1827 C1828 1.523 . S
C1828 C1812 1.368 . S
C1828 C1824 1.368 . S
C1828 C1827 1.523 . S
H1829 C1804 0.950 . S
H1830 C1806 0.950 . S
H1831 C1807 0.949 . S
H1832 C1809 0.950 . S
H1833 C1811 0.950 . S
C1834 C1835 1.349 . S
C1834 C1836 1.327 . S
C1834 H1859 0.950 . S
C1835 C1834 1.349 . S
C1835 C1851 1.349 . S
C1836 C1834 1.327 . S
C1836 C1855 1.429 . S
C1836 H1860 0.950 . S
C1837 C1854 1.574 . S
C1837 C1856 1.368 . S
C1837 H1861 0.949 . S
H1838 C1842 0.949 . S
C1839 C1840 1.349 . S
C1839 C1841 1.327 . S
C1839 H1862 0.950 . S
C1840 C1839 1.349 . S
C1840 C1852 1.349 . S
C1841 C1839 1.327 . S
C1841 C1857 1.429 . S
C1841 H1863 0.950 . S
C1842 H1838 0.949 . S
C1842 C1850 1.574 . S
C1842 C1858 1.368 . S
H1843 C1851 0.950 . S
H1844 C1849 0.950 . S
H1845 C1850 0.949 . S
H1846 C1852 0.950 . S
H1847 C1853 0.950 . S
H1848 C1854 0.949 . S
C1849 H1844 0.950 . S
C1849 C1851 1.327 . S
C1849 C1855 1.429 . S
C1850 C1842 1.574 . S
C1850 H1845 0.949 . S
C1850 C1856 1.368 . S
C1851 C1835 1.349 . S
C1851 H1843 0.950 . S
C1851 C1849 1.327 . S
C1852 C1840 1.349 . S
C1852 H1846 0.950 . S
C1852 C1853 1.327 . S
C1853 H1847 0.950 . S
C1853 C1852 1.327 . S
C1853 C1857 1.429 . S
C1854 C1837 1.574 . S
C1854 H1848 0.949 . S
C1854 C1858 1.368 . S
C1855 C1836 1.429 . S
C1855 C1849 1.429 . S
C1855 C1856 1.523 1_565 S
C1856 C1837 1.368 . S
C1856 C1850 1.368 . S
C1856 C1855 1.523 1_545 S
C1857 C1841 1.429 . S
C1857 C1853 1.429 . S
C1857 C1858 1.523 . S
C1858 C1842 1.368 . S
C1858 C1854 1.368 . S
C1858 C1857 1.523 . S
H1859 C1834 0.950 . S
H1860 C1836 0.950 . S
H1861 C1837 0.949 . S
H1862 C1839 0.950 . S
H1863 C1841 0.950 . S
C1864 C1865 1.349 . S
C1864 C1866 1.327 . S
C1864 H1889 0.950 . S
C1865 C1864 1.349 . S
C1865 C1881 1.349 . S
C1866 C1864 1.327 . S
C1866 C1885 1.429 . S
C1866 H1890 0.950 . S
C1867 C1884 1.574 . S
C1867 C1886 1.368 . S
C1867 H1891 0.949 . S
H1868 C1872 0.949 . S
C1869 C1870 1.349 . S
C1869 C1871 1.327 . S
C1869 H1892 0.950 . S
C1870 C1869 1.349 . S
C1870 C1882 1.349 . S
C1871 C1869 1.327 . S
C1871 C1887 1.429 . S
C1871 H1893 0.950 . S
C1872 H1868 0.949 . S
C1872 C1880 1.574 . S
C1872 C1888 1.368 . S
H1873 C1881 0.950 . S
H1874 C1879 0.950 . S
H1875 C1880 0.949 . S
H1876 C1882 0.950 . S
H1877 C1883 0.950 . S
H1878 C1884 0.949 . S
C1879 H1874 0.950 . S
C1879 C1881 1.327 . S
C1879 C1885 1.429 . S
C1880 C1872 1.574 . S
C1880 H1875 0.949 . S
C1880 C1886 1.368 . S
C1881 C1865 1.349 . S
C1881 H1873 0.950 . S
C1881 C1879 1.327 . S
C1882 C1870 1.349 . S
C1882 H1876 0.950 . S
C1882 C1883 1.327 . S
C1883 H1877 0.950 . S
C1883 C1882 1.327 . S
C1883 C1887 1.429 . S
C1884 C1867 1.574 . S
C1884 H1878 0.949 . S
C1884 C1888 1.368 . S
C1885 C1866 1.429 . S
C1885 C1879 1.429 . S
C1885 C1886 1.523 . S
C1886 C1867 1.368 . S
C1886 C1880 1.368 . S
C1886 C1885 1.523 . S
C1887 C1871 1.429 . S
C1887 C1883 1.429 . S
C1887 C1888 1.523 1_545 S
C1888 C1872 1.368 . S
C1888 C1884 1.368 . S
C1888 C1887 1.523 1_565 S
H1889 C1864 0.950 . S
H1890 C1866 0.950 . S
H1891 C1867 0.949 . S
H1892 C1869 0.950 . S
H1893 C1871 0.950 . S
C1894 C1895 1.349 . S
C1894 C1896 1.327 . S
C1894 H1919 0.950 . S
C1895 C1894 1.349 . S
C1895 C1911 1.349 . S
C1896 C1894 1.327 . S
C1896 C1915 1.429 . S
C1896 H1920 0.950 . S
C1897 C1914 1.574 . S
C1897 C1916 1.368 . S
C1897 H1921 0.949 . S
H1898 C1902 0.949 . S
C1899 C1900 1.349 . S
C1899 C1901 1.327 . S
C1899 H1922 0.950 . S
C1900 C1899 1.349 . S
C1900 C1912 1.349 . S
C1901 C1899 1.327 . S
C1901 C1917 1.429 . S
C1901 H1923 0.950 . S
C1902 H1898 0.949 . S
C1902 C1910 1.574 . S
C1902 C1918 1.368 . S
H1903 C1911 0.950 . S
H1904 C1909 0.950 . S
H1905 C1910 0.949 . S
H1906 C1912 0.950 . S
H1907 C1913 0.950 . S
H1908 C1914 0.949 . S
C1909 H1904 0.950 . S
C1909 C1911 1.327 . S
C1909 C1915 1.429 . S
C1910 C1902 1.574 . S
C1910 H1905 0.949 . S
C1910 C1916 1.368 . S
C1911 C1895 1.349 . S
C1911 H1903 0.950 . S
C1911 C1909 1.327 . S
C1912 C1900 1.349 . S
C1912 H1906 0.950 . S
C1912 C1913 1.327 . S
C1913 H1907 0.950 . S
C1913 C1912 1.327 . S
C1913 C1917 1.429 . S
C1914 C1897 1.574 . S
C1914 H1908 0.949 . S
C1914 C1918 1.368 . S
C1915 C1896 1.429 . S
C1915 C1909 1.429 . S
C1915 C1916 1.523 . S
C1916 C1897 1.368 . S
C1916 C1910 1.368 . S
C1916 C1915 1.523 . S
C1917 C1901 1.429 . S
C1917 C1913 1.429 . S
C1917 C1918 1.523 1_565 S
C1918 C1902 1.368 . S
C1918 C1914 1.368 . S
C1918 C1917 1.523 1_545 S
H1919 C1894 0.950 . S
H1920 C1896 0.950 . S
H1921 C1897 0.949 . S
H1922 C1899 0.950 . S
H1923 C1901 0.950 . S
C1924 C1925 1.349 . S
C1924 C1926 1.327 . S
C1924 H1949 0.950 . S
C1925 C1924 1.349 . S
C1925 C1941 1.349 . S
C1926 C1924 1.327 . S
C1926 C1945 1.429 . S
C1926 H1950 0.950 . S
C1927 C1944 1.574 . S
C1927 C1946 1.368 . S
C1927 H1951 0.949 . S
H1928 C1932 0.949 . S
C1929 C1930 1.349 . S
C1929 C1931 1.327 . S
C1929 H1952 0.950 . S
C1930 C1929 1.349 . S
C1930 C1942 1.349 . S
C1931 C1929 1.327 . S
C1931 C1947 1.429 . S
C1931 H1953 0.950 . S
C1932 H1928 0.949 . S
C1932 C1940 1.574 . S
C1932 C1948 1.368 . S
H1933 C1941 0.950 . S
H1934 C1939 0.950 . S
H1935 C1940 0.949 . S
H1936 C1942 0.950 . S
H1937 C1943 0.950 . S
H1938 C1944 0.949 . S
C1939 H1934 0.950 . S
C1939 C1941 1.327 . S
C1939 C1945 1.429 . S
C1940 C1932 1.574 . S
C1940 H1935 0.949 . S
C1940 C1946 1.368 . S
C1941 C1925 1.349 . S
C1941 H1933 0.950 . S
C1941 C1939 1.327 . S
C1942 C1930 1.349 . S
C1942 H1936 0.950 . S
C1942 C1943 1.327 . S
C1943 H1937 0.950 . S
C1943 C1942 1.327 . S
C1943 C1947 1.429 . S
C1944 C1927 1.574 . S
C1944 H1938 0.949 . S
C1944 C1948 1.368 . S
C1945 C1926 1.429 . S
C1945 C1939 1.429 . S
C1945 C1946 1.523 1_565 S
C1946 C1927 1.368 . S
C1946 C1940 1.368 . S
C1946 C1945 1.523 1_545 S
C1947 C1931 1.429 . S
C1947 C1943 1.429 . S
C1947 C1948 1.523 . S
C1948 C1932 1.368 . S
C1948 C1944 1.368 . S
C1948 C1947 1.523 . S
H1949 C1924 0.950 . S
H1950 C1926 0.950 . S
H1951 C1927 0.949 . S
H1952 C1929 0.950 . S
H1953 C1931 0.950 . S
C1954 C1955 1.349 . S
C1954 C1956 1.327 . S
C1954 H1979 0.950 . S
C1955 C1954 1.349 . S
C1955 C1971 1.349 . S
C1956 C1954 1.327 . S
C1956 C1975 1.429 . S
C1956 H1980 0.950 . S
C1957 C1974 1.574 . S
C1957 C1976 1.368 . S
C1957 H1981 0.949 . S
H1958 C1962 0.949 . S
C1959 C1960 1.349 . S
C1959 C1961 1.327 . S
C1959 H1982 0.950 . S
C1960 C1959 1.349 . S
C1960 C1972 1.349 . S
C1961 C1959 1.327 . S
C1961 C1977 1.429 . S
C1961 H1983 0.950 . S
C1962 H1958 0.949 . S
C1962 C1970 1.574 . S
C1962 C1978 1.368 . S
H1963 C1971 0.950 . S
H1964 C1969 0.950 . S
H1965 C1970 0.949 . S
H1966 C1972 0.950 . S
H1967 C1973 0.950 . S
H1968 C1974 0.949 . S
C1969 H1964 0.950 . S
C1969 C1971 1.327 . S
C1969 C1975 1.429 . S
C1970 C1962 1.574 . S
C1970 H1965 0.949 . S
C1970 C1976 1.368 . S
C1971 C1955 1.349 . S
C1971 H1963 0.950 . S
C1971 C1969 1.327 . S
C1972 C1960 1.349 . S
C1972 H1966 0.950 . S
C1972 C1973 1.327 . S
C1973 H1967 0.950 . S
C1973 C1972 1.327 . S
C1973 C1977 1.429 . S
C1974 C1957 1.574 . S
C1974 H1968 0.949 . S
C1974 C1978 1.368 . S
C1975 C1956 1.429 . S
C1975 C1969 1.429 . S
C1975 C1976 1.523 . S
C1976 C1957 1.368 . S
C1976 C1970 1.368 . S
C1976 C1975 1.523 . S
C1977 C1961 1.429 . S
C1977 C1973 1.429 . S
C1977 C1978 1.523 1_545 S
C1978 C1962 1.368 . S
C1978 C1974 1.368 . S
C1978 C1977 1.523 1_565 S
H1979 C1954 0.950 . S
H1980 C1956 0.950 . S
H1981 C1957 0.949 . S
H1982 C1959 0.950 . S
H1983 C1961 0.950 . S
C545 C8 1.554 . S
C550 C314 1.554 . S
C575 C42 1.554 . S
C580 C280 1.554 . S
C605 C382 1.554 . S
C610 C76 1.554 . S
C635 C110 1.554 . S
C640 C348 1.554 . S
C665 C459 1.554 . S
C670 C153 1.554 . S
C695 C425 1.554 . S
C700 C187 1.554 . S
C725 C527 1.554 . S
C730 C221 1.554 . S
C755 C255 1.554 . S
C760 C493 1.554 . S
C785 C81 1.558 . S
C790 C13 1.558 . S
C815 C115 1.558 . S
C820 C47 1.558 . S
C845 C208 1.558 . S
C850 C140 1.558 . S
C875 C174 1.558 . S
C880 C242 1.558 . S
C905 C353 1.558 . S
C910 C285 1.558 . S
C935 C387 1.558 . S
C940 C319 1.558 . S
C965 C412 1.558 . S
C970 C480 1.558 . S
C995 C446 1.558 . S
C1000 C514 1.558 . S
C1025 C183 1.530 . S
C1030 C4 1.530 . S
C1055 C149 1.530 . S
C1060 C38 1.530 . S
C1085 C72 1.530 . S
C1090 C251 1.530 . S
C1115 C217 1.530 . S
C1120 C106 1.530 . S
C1145 C276 1.530 . S
C1150 C455 1.530 . S
C1175 C421 1.530 . S
C1180 C310 1.530 . S
C1205 C344 1.530 . S
C1210 C523 1.530 . S
C1235 C489 1.530 . S
C1240 C378 1.530 . S
C1265 C51 1.510 . S
C1270 C17 1.510 . S
C1295 C119 1.510 . S
C1300 C85 1.510 . S
C1325 C178 1.510 . S
C1330 C144 1.510 . S
C1355 C212 1.510 . S
C1360 C246 1.510 . S
C1385 C323 1.510 . S
C1390 C289 1.510 . S
C1415 C391 1.510 . S
C1420 C357 1.510 . S
C1445 C416 1.510 . S
C1450 C450 1.510 . S
C1475 C484 1.510 . S
C1480 C518 1.510 . S
C1505 C29 1.192 . S
C1510 C0 1.192 . S
C1535 C63 1.192 . S
C1540 C34 1.192 . S
C1565 C97 1.192 . S
C1570 C68 1.192 . S
C1595 C102 1.192 . S
C1600 C131 1.192 . S
C1625 C136 1.192 . S
C1630 C165 1.192 . S
C1655 C199 1.192 . S
C1660 C170 1.192 . S
C1685 C204 1.192 . S
C1690 C233 1.192 . S
C1715 C238 1.192 . S
C1720 C267 1.192 . S
C1745 C272 1.192 . S
C1750 C301 1.192 . S
C1775 C335 1.192 . S
C1780 C306 1.192 . S
C1805 C340 1.192 . S
C1810 C369 1.192 . S
C1835 C374 1.192 . S
C1840 C403 1.192 . S
C1865 C408 1.192 . S
C1870 C437 1.192 . S
C1895 C442 1.192 . S
C1900 C471 1.192 . S
C1925 C505 1.192 . S
C1930 C476 1.192 . S
C1955 C510 1.192 . S
C1960 C539 1.192 . S
