# Generated by pormake.
# Topology thp-x, (12)-cn, num edge types: 1
# Building blocks:
#     Node 0, Type 0, BuildingBlock: EZIPEK_clean_sbu_0, # of connection points: 12
#     Node 1, Type 0, BuildingBlock: EZIPEK_clean_sbu_0, # of connection points: 12
#     Node 2, Type 0, BuildingBlock: EZIPEK_clean_sbu_0, # of connection points: 12
#     Node 3, Type 0, BuildingBlock: EZIPEK_clean_sbu_0, # of connection points: 12
#     Node 4, Type 0, BuildingBlock: EZIPEK_clean_sbu_0, # of connection points: 12
#     Node 5, Type 0, BuildingBlock: EZIPEK_clean_sbu_0, # of connection points: 12
#     Node 6, Type 0, BuildingBlock: EZIPEK_clean_sbu_0, # of connection points: 12
#     Node 7, Type 0, BuildingBlock: EZIPEK_clean_sbu_0, # of connection points: 12
#     Node 8, Type 0, BuildingBlock: EZIPEK_clean_sbu_0, # of connection points: 12
#     Node 9, Type 0, BuildingBlock: EZIPEK_clean_sbu_0, # of connection points: 12
#     Node 10, Type 0, BuildingBlock: EZIPEK_clean_sbu_0, # of connection points: 12
#     Node 11, Type 0, BuildingBlock: EZIPEK_clean_sbu_0, # of connection points: 12
#     Edge 12, Type (0, 0), None
#     Edge 13, Type (0, 0), None
#     Edge 14, Type (0, 0), None
#     Edge 15, Type (0, 0), None
#     Edge 16, Type (0, 0), None
#     Edge 17, Type (0, 0), None
#     Edge 18, Type (0, 0), None
#     Edge 19, Type (0, 0), None
#     Edge 20, Type (0, 0), None
#     Edge 21, Type (0, 0), None
#     Edge 22, Type (0, 0), None
#     Edge 23, Type (0, 0), None
#     Edge 24, Type (0, 0), None
#     Edge 25, Type (0, 0), None
#     Edge 26, Type (0, 0), None
#     Edge 27, Type (0, 0), None
#     Edge 28, Type (0, 0), None
#     Edge 29, Type (0, 0), None
#     Edge 30, Type (0, 0), None
#     Edge 31, Type (0, 0), None
#     Edge 32, Type (0, 0), None
#     Edge 33, Type (0, 0), None
#     Edge 34, Type (0, 0), None
#     Edge 35, Type (0, 0), None
#     Edge 36, Type (0, 0), None
#     Edge 37, Type (0, 0), None
#     Edge 38, Type (0, 0), None
#     Edge 39, Type (0, 0), None
#     Edge 40, Type (0, 0), None
#     Edge 41, Type (0, 0), None
#     Edge 42, Type (0, 0), None
#     Edge 43, Type (0, 0), None
#     Edge 44, Type (0, 0), None
#     Edge 45, Type (0, 0), None
#     Edge 46, Type (0, 0), None
#     Edge 47, Type (0, 0), None
#     Edge 48, Type (0, 0), None
#     Edge 49, Type (0, 0), None
#     Edge 50, Type (0, 0), None
#     Edge 51, Type (0, 0), None
#     Edge 52, Type (0, 0), None
#     Edge 53, Type (0, 0), None
#     Edge 54, Type (0, 0), None
#     Edge 55, Type (0, 0), None
#     Edge 56, Type (0, 0), None
#     Edge 57, Type (0, 0), None
#     Edge 58, Type (0, 0), None
#     Edge 59, Type (0, 0), None
#     Edge 60, Type (0, 0), None
#     Edge 61, Type (0, 0), None
#     Edge 62, Type (0, 0), None
#     Edge 63, Type (0, 0), None
#     Edge 64, Type (0, 0), None
#     Edge 65, Type (0, 0), None
#     Edge 66, Type (0, 0), None
#     Edge 67, Type (0, 0), None
#     Edge 68, Type (0, 0), None
#     Edge 69, Type (0, 0), None
#     Edge 70, Type (0, 0), None
#     Edge 71, Type (0, 0), None
#     Edge 72, Type (0, 0), None
#     Edge 73, Type (0, 0), None
#     Edge 74, Type (0, 0), None
#     Edge 75, Type (0, 0), None
#     Edge 76, Type (0, 0), None
#     Edge 77, Type (0, 0), None
#     Edge 78, Type (0, 0), None
#     Edge 79, Type (0, 0), None
#     Edge 80, Type (0, 0), None
#     Edge 81, Type (0, 0), None
#     Edge 82, Type (0, 0), None
#     Edge 83, Type (0, 0), None
# Relax obj value: 0.246
# Max RMSD: 0.289
# Mean RMSD: 0.289
data_MOF--net-thp-x--node1-EZIPEK_clean_sbu_0--edge1-none
_symmetry_space_group_name_H-M    P1
_symmetry_Int_Tables_number       1
_symmetry_cell_setting            triclinic
loop_
_symmetry_equiv_pos_as_xyz
'x, y, z'
_cell_length_a     19.307513
_cell_length_b     19.30752
_cell_length_c     19.307165
_cell_angle_alpha  90.011861
_cell_angle_beta   89.991902
_cell_angle_gamma 89.991382
loop_
_atom_site_label
_atom_site_type_symbol
_atom_site_fract_x
_atom_site_fract_y
_atom_site_fract_z
_atom_type_partial_charge
C0 C 0.9073 0.25974 0.24663 0.0
C1 C 0.8348 0.28426 0.53077 0.0
C2 C 0.1868 0.33441 0.24653 0.0
C3 C 0.25937 0.30992 0.53083 0.0
C4 C 0.22159 0.16669 0.40164 0.0
C5 C 0.91671 0.12265 0.44244 0.0
C6 C 0.17746 0.47156 0.44249 0.0
C7 C 0.87258 0.42743 0.40172 0.0
C8 C 1.00971 0.43689 0.59764 0.0
C9 C 0.08438 0.15736 0.59767 0.0
C10 C 1.03427 0.50931 0.31344 0.0
C11 C 0.05993 0.08476 0.31342 0.0
Eu12 Eu 0.91964 0.2757 0.41252 0.0
O13 O 0.99406 0.22881 0.48482 0.0
O14 O 0.9788 0.35018 0.35941 0.0
Eu15 Eu 0.06848 0.1696 0.43175 0.0
Eu16 Eu 1.02566 0.42457 0.43175 0.0
O17 O 1.00039 0.22387 0.36001 0.0
O18 O 0.97397 0.34383 0.48422 0.0
Eu19 Eu 0.04705 0.29703 0.29144 0.0
Eu20 Eu 0.04708 0.29711 0.55281 0.0
O21 O 0.1154 0.24413 0.35956 0.0
O22 O 0.12033 0.25043 0.48415 0.0
O23 O 0.10024 0.36534 0.48474 0.0
O24 O 0.09386 0.37009 0.36016 0.0
Eu25 Eu 0.17477 0.3185 0.41246 0.0
O26 O 0.8727 0.25999 0.30585 0.0
O27 O 0.82664 0.27618 0.46514 0.0
O28 O 0.22151 0.33413 0.30568 0.0
O29 O 0.26763 0.31807 0.46523 0.0
O30 O 0.17008 0.12304 0.40165 0.0
O31 O 0.96618 0.12752 0.39812 0.0
O32 O 0.12798 0.46669 0.39818 0.0
O33 O 0.92408 0.47107 0.40156 0.0
O34 O 0.05792 0.39222 0.61205 0.0
O35 O 1.0362 0.20207 0.6121 0.0
O36 O 1.04076 0.43967 0.2819 0.0
O37 O 0.05336 0.15438 0.28189 0.0
O38 O 0.2212 0.42012 0.44254 0.0
O39 O 0.2169 0.21617 0.44598 0.0
O40 O 0.87743 0.378 0.44607 0.0
O41 O 0.87305 0.17415 0.44258 0.0
O42 O 0.90443 0.29073 0.56231 0.0
O43 O 0.18972 0.30341 0.56233 0.0
O44 O 0.95193 0.30799 0.23228 0.0
O45 O 0.14215 0.28616 0.23219 0.0
O46 O 0.06817 0.07662 0.37904 0.0
O47 O 0.08396 0.1227 0.53848 0.0
O48 O 1.02614 0.51751 0.37906 0.0
O49 O 1.01011 0.47153 0.53846 0.0
C50 C 0.40732 0.75972 0.7466 0.0
C51 C 0.33479 0.78423 1.03076 0.0
C52 C 0.68678 0.83451 0.74653 0.0
C53 C 0.75935 0.80988 1.03088 0.0
C54 C 0.72161 0.66669 0.90161 0.0
C55 C 0.41671 0.6226 0.94247 0.0
C56 C 0.67746 0.97151 0.94248 0.0
C57 C 0.37258 0.92737 0.90171 0.0
C58 C 0.50971 0.93684 0.09763 0.0
C59 C 0.58438 0.65726 0.09762 0.0
C60 C 0.53427 1.0093 0.81348 0.0
C61 C 0.55995 0.58475 0.81342 0.0
Eu62 Eu 0.41963 0.77565 0.9125 0.0
O63 O 0.49406 0.72876 0.98479 0.0
O64 O 0.47879 0.85015 0.8594 0.0
Eu65 Eu 0.56849 0.66957 0.93172 0.0
Eu66 Eu 0.52565 0.92452 0.93175 0.0
O67 O 0.5004 0.72383 0.85999 0.0
O68 O 0.47396 0.84377 0.9842 0.0
Eu69 Eu 0.54706 0.79702 0.79143 0.0
Eu70 Eu 0.54706 0.79705 0.05281 0.0
O71 O 0.6154 0.74411 0.85954 0.0
O72 O 0.62032 0.7504 0.98414 0.0
O73 O 0.60023 0.8653 0.98475 0.0
O74 O 0.59386 0.87007 0.86016 0.0
Eu75 Eu 0.67477 0.81847 0.91248 0.0
O76 O 0.3727 0.76 0.80581 0.0
O77 O 0.32663 0.7761 0.96513 0.0
O78 O 0.72148 0.83423 0.80569 0.0
O79 O 0.76762 0.81803 0.96527 0.0
O80 O 0.6701 0.62305 0.90161 0.0
O81 O 0.46619 0.62742 0.89815 0.0
O82 O 0.62799 0.96659 0.89817 0.0
O83 O 0.42408 0.97101 0.90151 0.0
O84 O 0.55792 0.89217 0.11204 0.0
O85 O 0.53615 0.70194 0.11199 0.0
O86 O 0.54073 0.93967 0.78194 0.0
O87 O 0.55338 0.65436 0.78189 0.0
O88 O 0.7212 0.92008 0.94259 0.0
O89 O 0.71691 0.71615 0.94597 0.0
O90 O 0.37745 0.87795 0.94606 0.0
O91 O 0.37305 0.67409 0.94256 0.0
O92 O 0.40441 0.79072 0.0623 0.0
O93 O 0.6897 0.80336 0.06237 0.0
O94 O 0.45196 0.80796 0.73224 0.0
O95 O 0.64215 0.78625 0.73217 0.0
O96 O 0.56817 0.57659 0.87904 0.0
O97 O 0.58409 0.62264 1.03841 0.0
O98 O 0.52618 1.0175 0.87911 0.0
O99 O 0.51012 0.97148 1.03845 0.0
C100 C 0.22154 0.92739 0.19257 0.0
C101 C 0.91667 0.97161 0.15172 0.0
C102 C 0.17744 0.6225 0.15164 0.0
C103 C 0.87252 0.66671 0.19253 0.0
C104 C 1.00964 0.65735 0.99655 0.0
C105 C 0.08439 0.93678 0.99662 0.0
C106 C 1.03423 0.58473 0.28081 0.0
C107 C 0.05991 1.0093 0.28081 0.0
C108 C 0.90733 0.83423 0.34773 0.0
C109 C 0.83475 0.80992 0.06353 0.0
C110 C 0.18678 0.75976 0.34766 0.0
C111 C 0.25934 0.78417 0.06339 0.0
Eu112 Eu 0.06845 0.92448 0.16252 0.0
O113 O 0.99383 0.86536 0.10954 0.0
O114 O 0.1154 0.84999 0.23469 0.0
Eu115 Eu 0.04705 0.79708 1.04162 0.0
Eu116 Eu 0.04706 0.79703 0.30267 0.0
O117 O 0.12036 0.84371 0.11011 0.0
O118 O 1.00023 0.87017 0.23414 0.0
Eu119 Eu 0.1747 0.7756 0.18176 0.0
Eu120 Eu 0.9194 0.81852 0.18183 0.0
O121 O 0.10007 0.7287 0.10965 0.0
O122 O 0.97389 0.75028 0.11028 0.0
O123 O 0.97872 0.74394 0.23463 0.0
O124 O 0.09381 0.72377 0.23403 0.0
Eu125 Eu 1.02561 0.66935 0.16246 0.0
O126 O 0.17001 0.97102 0.19267 0.0
O127 O 0.96616 0.96681 0.19602 0.0
O128 O 0.12796 0.62725 0.19597 0.0
O129 O 0.92398 0.62299 0.19266 0.0
O130 O 0.05786 0.70204 0.98225 0.0
O131 O 1.03614 0.89212 0.98236 0.0
O132 O 1.0408 0.65439 0.31229 0.0
O133 O 0.05336 0.93967 0.31232 0.0
O134 O 0.87259 0.83388 0.28861 0.0
O135 O 0.82649 0.81811 0.12914 0.0
O136 O 0.22148 0.76001 0.28851 0.0
O137 O 0.26758 0.77586 0.12898 0.0
O138 O 1.02597 0.57648 0.21521 0.0
O139 O 1.00997 0.62262 0.05568 0.0
O140 O 0.06811 1.01746 0.2152 0.0
O141 O 0.08425 0.97136 0.05584 0.0
O142 O 0.87296 0.92015 0.15171 0.0
O143 O 0.87741 0.71616 0.14819 0.0
O144 O 0.21679 0.87793 0.14822 0.0
O145 O 0.22115 0.67396 0.15166 0.0
O146 O 0.18969 0.79079 1.03193 0.0
O147 O 0.9044 0.80339 1.03205 0.0
O148 O 0.14209 0.80799 0.36195 0.0
O149 O 0.95204 0.78602 0.36201 0.0
C150 C 0.40159 0.87253 0.42737 0.0
C151 C 0.44248 0.17742 0.47156 0.0
C152 C 0.4424 0.91665 0.12238 0.0
C153 C 0.40156 0.2216 0.16672 0.0
C154 C 0.59755 0.08447 0.15726 0.0
C155 C 0.5976 1.0096 0.43667 0.0
C156 C 0.31325 0.05995 0.08472 0.0
C157 C 0.31347 1.03416 0.50928 0.0
C158 C 0.24638 0.1868 0.33431 0.0
C159 C 0.53061 0.25933 0.30985 0.0
C160 C 0.24642 0.90726 0.25985 0.0
C161 C 0.53069 0.83473 0.28406 0.0
Eu162 Eu 0.43171 1.02563 0.42443 0.0
O163 O 0.48467 0.10025 0.36532 0.0
O164 O 0.35948 0.97868 0.34997 0.0
Eu165 Eu 0.55253 1.04702 0.29699 0.0
Eu166 Eu 0.2915 1.04704 0.29702 0.0
O167 O 0.48406 0.97371 0.34364 0.0
O168 O 0.36006 0.09384 0.37015 0.0
Eu169 Eu 0.41235 0.9194 0.27554 0.0
Eu170 Eu 0.41235 0.17467 0.3185 0.0
O171 O 0.48446 0.99401 0.22863 0.0
O172 O 0.48386 0.12018 0.25023 0.0
O173 O 0.3595 0.11538 0.24391 0.0
O174 O 0.36009 1.00028 0.22373 0.0
Eu175 Eu 0.43165 0.0685 0.1693 0.0
O176 O 0.40162 0.92407 0.47101 0.0
O177 O 0.39818 0.12792 0.46673 0.0
O178 O 0.39814 0.96621 0.12698 0.0
O179 O 0.40143 0.17015 0.12299 0.0
O180 O 0.61185 1.03622 0.20192 0.0
O181 O 0.61193 0.05781 0.39198 0.0
O182 O 0.2818 0.05334 0.15438 0.0
O183 O 0.28195 1.04072 0.43966 0.0
O184 O 0.30558 0.22142 0.33415 0.0
O185 O 0.46501 0.26759 0.31805 0.0
O186 O 0.30562 0.87264 0.25991 0.0
O187 O 0.4651 0.8265 0.27574 0.0
O188 O 0.37884 0.06822 0.07645 0.0
O189 O 0.53841 0.08418 0.12254 0.0
O190 O 0.37908 1.02595 0.51743 0.0
O191 O 0.5384 1.00988 0.47129 0.0
O192 O 0.44252 0.22112 0.42011 0.0
O193 O 0.44591 0.21671 0.21615 0.0
O194 O 0.44588 0.87721 0.37785 0.0
O195 O 0.44243 0.87299 0.17388 0.0
O196 O 0.56215 0.90437 0.29069 0.0
O197 O 0.56209 0.18967 0.30332 0.0
O198 O 0.23216 0.95205 0.308 0.0
O199 O 0.23207 0.14201 0.28619 0.0
C200 C 0.33431 0.24655 0.18691 0.0
C201 C 0.30997 0.53081 0.2593 0.0
C202 C 0.25955 0.24647 0.90737 0.0
C203 C 0.28425 0.53076 0.83474 0.0
C204 C 0.4274 0.40147 0.87253 0.0
C205 C 0.47153 0.44254 0.17737 0.0
C206 C 0.12256 0.44255 0.91669 0.0
C207 C 0.16672 0.4017 0.22163 0.0
C208 C 0.15723 0.59767 0.08435 0.0
C209 C 0.4369 0.59761 1.00969 0.0
C210 C 0.08481 0.31346 0.05989 0.0
C211 C 0.50936 0.31339 1.03422 0.0
Eu212 Eu 0.31846 0.4125 0.1745 0.0
O213 O 0.36534 0.48477 0.10005 0.0
O214 O 0.24395 0.3594 0.11536 0.0
Eu215 Eu 0.42453 0.43167 1.02562 0.0
Eu216 Eu 0.16959 0.43174 0.06849 0.0
O217 O 0.37027 0.35996 0.09375 0.0
O218 O 0.25035 0.4842 0.12016 0.0
Eu219 Eu 0.29707 0.29141 0.0471 0.0
Eu220 Eu 0.29707 0.55277 1.04703 0.0
O221 O 0.34998 0.35948 0.97872 0.0
O222 O 0.3437 0.48409 0.97378 0.0
O223 O 0.2288 0.48471 0.99388 0.0
O224 O 0.22404 0.36013 1.0003 0.0
Eu225 Eu 0.27561 0.41241 0.91936 0.0
O226 O 0.33432 0.30584 0.2214 0.0
O227 O 0.31811 0.46519 0.26747 0.0
O228 O 0.2598 0.30563 0.87267 0.0
O229 O 0.27612 0.46515 0.82648 0.0
O230 O 0.47104 0.40144 0.92404 0.0
O231 O 0.46675 0.3982 0.12791 0.0
O232 O 0.12739 0.39825 0.96617 0.0
O233 O 0.12313 0.40152 0.17007 0.0
O234 O 0.20199 0.61205 1.03621 0.0
O235 O 0.39216 0.61197 0.05787 0.0
O236 O 0.15444 0.28191 0.05342 0.0
O237 O 0.43974 0.28186 1.04078 0.0
O238 O 0.174 0.44257 0.87296 0.0
O239 O 0.37796 0.44585 0.87722 0.0
O240 O 0.21625 0.44597 0.217 0.0
O241 O 0.42003 0.44262 0.22103 0.0
O242 O 0.30344 0.56233 0.18967 0.0
O243 O 0.29075 0.56227 0.90439 0.0
O244 O 0.28612 0.23224 0.1422 0.0
O245 O 0.30783 0.23214 0.952 0.0
O246 O 0.51751 0.37901 1.02599 0.0
O247 O 0.4714 0.53833 1.00973 0.0
O248 O 0.07662 0.37909 0.06798 0.0
O249 O 0.12268 0.53843 0.08419 0.0
C250 C 0.84753 0.68685 0.25978 0.0
C251 C 0.56332 0.75929 0.28417 0.0
C252 C 0.84758 0.40727 0.33448 0.0
C253 C 0.56325 0.33474 0.30981 0.0
C254 C 0.69261 0.37249 0.16673 0.0
C255 C 0.65163 0.6774 0.12254 0.0
C256 C 0.65154 0.41668 0.47151 0.0
C257 C 0.69241 0.72157 0.42741 0.0
C258 C 0.4964 0.58443 0.43678 0.0
C259 C 0.49646 0.50977 0.15714 0.0
C260 C 0.78056 0.55986 0.50935 0.0
C261 C 0.78075 0.53413 0.0848 0.0
Eu262 Eu 0.68158 0.67446 0.27566 0.0
O263 O 0.6093 0.60005 0.22874 0.0
O264 O 0.73465 0.61533 0.35018 0.0
Eu265 Eu 0.66239 0.52561 0.16956 0.0
Eu266 Eu 0.66229 0.56847 0.42453 0.0
O267 O 0.7341 0.59371 0.22386 0.0
O268 O 0.60986 0.62014 0.34375 0.0
Eu269 Eu 0.80263 0.54706 0.29707 0.0
Eu270 Eu 0.54128 0.54703 0.297 0.0
O271 O 0.73455 0.47872 0.24414 0.0
O272 O 0.60995 0.47378 0.25037 0.0
O273 O 0.60929 0.49388 0.3653 0.0
O274 O 0.73389 0.50027 0.3701 0.0
Eu275 Eu 0.68159 0.41936 0.31849 0.0
O276 O 0.78824 0.72134 0.25977 0.0
O277 O 0.62895 0.76746 0.27609 0.0
O278 O 0.78835 0.37269 0.33449 0.0
O279 O 0.62886 0.32648 0.31798 0.0
O280 O 0.69262 0.424 0.12309 0.0
O281 O 0.69588 0.62784 0.12716 0.0
O282 O 0.69587 0.46613 0.46659 0.0
O283 O 0.69243 0.67006 0.47105 0.0
O284 O 0.48195 0.53626 0.39207 0.0
O285 O 0.48211 0.55795 0.20188 0.0
O286 O 0.81212 0.55338 0.43972 0.0
O287 O 0.81225 0.54074 0.15443 0.0
O288 O 0.65141 0.37294 0.42007 0.0
O289 O 0.64821 0.37715 0.21615 0.0
O290 O 0.64809 0.71682 0.37793 0.0
O291 O 0.65149 0.721 0.1741 0.0
O292 O 0.53178 0.68967 0.29064 0.0
O293 O 0.53175 0.40439 0.3033 0.0
O294 O 0.86184 0.64214 0.30797 0.0
O295 O 0.86188 0.45197 0.28626 0.0
O296 O 0.71514 0.52584 0.07663 0.0
O297 O 0.55573 0.50983 0.12263 0.0
O298 O 0.71492 0.56796 0.51752 0.0
O299 O 0.55556 0.58395 0.47145 0.0
C300 C 0.66676 0.19258 0.87259 0.0
C301 C 0.62245 0.15173 0.17744 0.0
C302 C 0.97169 0.15161 0.91673 0.0
C303 C 0.9274 0.19246 0.2217 0.0
C304 C 0.93683 0.99651 0.08445 0.0
C305 C 0.65728 0.99659 1.0097 0.0
C306 C 1.00938 0.28083 0.05998 0.0
C307 C 0.58483 0.2808 1.0342 0.0
C308 C 0.75992 0.34775 0.18694 0.0
C309 C 0.78414 0.06347 0.25934 0.0
C310 C 0.83442 0.34771 0.90743 0.0
C311 C 0.81 0.0635 0.83474 0.0
Eu312 Eu 0.66965 0.16252 1.02567 0.0
O313 O 0.72874 0.10952 0.10029 0.0
O314 O 0.74414 0.23472 0.97874 0.0
Eu315 Eu 0.79704 1.04164 1.04704 0.0
Eu316 Eu 0.7971 0.30267 0.04713 0.0
O317 O 0.75043 0.11014 0.97375 0.0
O318 O 0.72395 0.23413 0.09393 0.0
Eu319 Eu 0.81856 0.18182 0.91945 0.0
Eu320 Eu 0.77558 0.1818 0.17474 0.0
O321 O 0.86544 0.10968 0.99406 0.0
O322 O 0.84383 0.11027 0.12023 0.0
O323 O 0.85018 0.23463 0.11546 0.0
O324 O 0.87036 0.23405 1.00037 0.0
Eu325 Eu 0.92476 0.16246 0.06856 0.0
O326 O 0.62311 0.19268 0.92411 0.0
O327 O 0.62713 0.19598 0.1279 0.0
O328 O 0.96703 0.19592 0.96625 0.0
O329 O 0.97108 0.19265 0.17021 0.0
O330 O 0.89205 0.9822 1.0363 0.0
O331 O 0.70202 0.98232 0.05787 0.0
O332 O 0.93973 0.31231 0.05339 0.0
O333 O 0.65445 0.31231 1.0408 0.0
O334 O 0.76006 0.28856 0.22156 0.0
O335 O 0.7759 0.12906 0.26762 0.0
O336 O 0.83412 0.28857 0.8727 0.0
O337 O 0.81831 0.12909 0.82653 0.0
O338 O 1.01763 0.21524 0.06827 0.0
O339 O 0.97147 0.0557 0.08433 0.0
O340 O 0.57668 0.21519 1.02595 0.0
O341 O 0.6228 0.05587 1.00967 0.0
O342 O 0.67394 0.1516 0.2211 0.0
O343 O 0.87787 0.1482 0.21697 0.0
O344 O 0.71623 0.14825 0.87737 0.0
O345 O 0.92022 0.15174 0.87302 0.0
O346 O 0.80337 1.03203 0.90438 0.0
O347 O 0.79071 1.03201 0.18968 0.0
O348 O 0.7862 0.36202 0.95213 0.0
O349 O 0.80806 0.36203 0.14215 0.0
C350 C 0.16671 0.69248 0.37256 0.0
C351 C 0.12252 0.65167 0.67744 0.0
C352 C 0.47168 0.65178 0.41666 0.0
C353 C 0.42741 0.69243 0.7217 0.0
C354 C 0.4368 0.49653 0.58447 0.0
C355 C 0.15729 0.49656 0.50973 0.0
C356 C 0.50937 0.78085 0.56005 0.0
C357 C 0.0848 0.78073 0.53428 0.0
C358 C 0.25976 0.84764 0.68689 0.0
C359 C 0.28417 0.56341 0.75934 0.0
C360 C 0.33425 0.84775 0.40734 0.0
C361 C 0.31005 0.56344 0.33475 0.0
Eu362 Eu 0.16966 0.66249 0.52568 0.0
O363 O 0.22877 0.60948 0.60029 0.0
O364 O 0.24411 0.73471 0.47873 0.0
Eu365 Eu 0.29707 0.5416 0.54703 0.0
Eu366 Eu 0.29709 0.80264 0.54714 0.0
O367 O 0.25042 0.6101 0.47375 0.0
O368 O 0.22397 0.73408 0.59393 0.0
Eu369 Eu 0.31851 0.6818 0.41944 0.0
Eu370 Eu 0.2756 0.68175 0.67476 0.0
O371 O 0.36543 0.60966 0.49403 0.0
O372 O 0.34385 0.61024 0.62022 0.0
O373 O 0.35019 0.73459 0.61545 0.0
O374 O 0.37034 0.73403 0.50035 0.0
Eu375 Eu 0.42478 0.66244 0.56853 0.0
O376 O 0.12313 0.69269 0.42414 0.0
O377 O 0.12738 0.69599 0.62798 0.0
O378 O 0.46712 0.69599 0.46627 0.0
O379 O 0.47109 0.69259 0.6702 0.0
O380 O 0.39211 0.48223 0.53624 0.0
O381 O 0.20206 0.48226 0.55787 0.0
O382 O 0.43972 0.81231 0.55343 0.0
O383 O 0.15443 0.81224 0.54081 0.0
O384 O 0.26004 0.78851 0.7216 0.0
O385 O 0.27593 0.629 0.76762 0.0
O386 O 0.33405 0.78856 0.37269 0.0
O387 O 0.31836 0.62903 0.32654 0.0
O388 O 0.51762 0.71526 0.56833 0.0
O389 O 0.47152 0.55566 0.58415 0.0
O390 O 0.07665 0.71511 0.52609 0.0
O391 O 0.12278 0.55583 0.50978 0.0
O392 O 0.17397 0.65159 0.72116 0.0
O393 O 0.37788 0.64817 0.717 0.0
O394 O 0.21625 0.64821 0.37718 0.0
O395 O 0.42018 0.65181 0.37299 0.0
O396 O 0.3034 0.53197 0.40438 0.0
O397 O 0.29074 0.53196 0.68967 0.0
O398 O 0.28617 0.86208 0.4522 0.0
O399 O 0.30803 0.8619 0.64224 0.0
C400 C 0.90172 0.37259 0.92746 0.0
C401 C 0.94236 0.6775 0.97167 0.0
C402 C 0.9424 0.41672 0.62242 0.0
C403 C 0.9015 0.72164 0.66678 0.0
C404 C 0.09754 0.58444 0.65723 0.0
C405 C 0.09758 0.50981 0.93684 0.0
C406 C 0.81318 0.55996 0.58479 0.0
C407 C 0.81335 0.53418 1.00934 0.0
C408 C 0.74635 0.68686 0.83429 0.0
C409 C 1.03059 0.75942 0.80989 0.0
C410 C 0.74645 0.40733 0.75985 0.0
C411 C 1.0307 0.3348 0.78407 0.0
Eu412 Eu 0.93164 0.52572 0.92451 0.0
O413 O 0.98462 0.60033 0.86539 0.0
O414 O 0.85944 0.47874 0.85005 0.0
Eu415 Eu 0.05248 0.5471 0.79705 0.0
Eu416 Eu 0.79144 0.54707 0.79709 0.0
O417 O 0.98401 0.4738 0.84372 0.0
O418 O 0.86 0.59391 0.8702 0.0
Eu419 Eu 0.91233 0.41945 0.77562 0.0
Eu420 Eu 0.9123 0.67473 0.81855 0.0
O421 O 0.98442 0.49407 0.72869 0.0
O422 O 0.98381 0.62025 0.75028 0.0
O423 O 0.85945 0.61541 0.74399 0.0
O424 O 0.86004 0.50032 0.7238 0.0
Eu425 Eu 0.93159 0.56854 0.66937 0.0
O426 O 0.90156 0.42416 0.97106 0.0
O427 O 0.89813 0.62794 0.967 0.0
O428 O 0.89814 0.46628 0.62698 0.0
O429 O 0.90133 0.67018 0.62306 0.0
O430 O 0.11181 0.53627 0.70199 0.0
O431 O 0.11188 0.55793 0.89204 0.0
O432 O 0.78173 0.55335 0.65445 0.0
O433 O 0.78182 0.54073 0.93972 0.0
O434 O 0.80553 0.72151 0.83412 0.0
O435 O 0.96498 0.76766 0.81812 0.0
O436 O 0.8056 0.37262 0.76013 0.0
O437 O 0.96511 0.32657 0.77579 0.0
O438 O 0.87876 0.56827 0.57653 0.0
O439 O 1.03833 0.5844 0.62263 0.0
O440 O 0.87897 0.52601 1.01749 0.0
O441 O 1.03832 0.50987 0.97136 0.0
O442 O 0.94248 0.72116 0.92017 0.0
O443 O 0.94587 0.71675 0.71619 0.0
O444 O 0.94596 0.37722 0.87789 0.0
O445 O 0.94244 0.37307 0.67394 0.0
O446 O 0.06216 0.40445 0.79071 0.0
O447 O 0.06207 0.68976 0.80334 0.0
O448 O 0.73216 0.45203 0.80807 0.0
O449 O 0.73205 0.64207 0.78616 0.0
C450 C 0.83427 0.74663 0.68697 0.0
C451 C 0.80996 1.03087 0.75929 0.0
C452 C 0.75972 0.74642 0.40732 0.0
C453 C 0.78421 1.03082 0.33475 0.0
C454 C 0.92746 0.90155 0.37249 0.0
C455 C 0.97156 0.94265 0.67736 0.0
C456 C 0.62259 0.94233 0.4166 0.0
C457 C 0.66671 0.9018 0.72161 0.0
C458 C 0.65729 0.09768 0.58432 0.0
C459 C 0.9369 0.09761 0.50964 0.0
C460 C 0.5848 0.81346 0.55997 0.0
C461 C 1.00934 0.81335 0.53427 0.0
Eu462 Eu 0.81846 0.91257 0.67449 0.0
O463 O 0.86534 0.9848 0.60003 0.0
O464 O 0.74394 0.85947 0.61535 0.0
Eu465 Eu 0.92454 0.93167 0.52563 0.0
Eu466 Eu 0.66958 0.93178 0.56845 0.0
O467 O 0.87026 0.85999 0.59377 0.0
O468 O 0.75033 0.98424 0.62014 0.0
Eu469 Eu 0.79706 0.79144 0.54713 0.0
Eu470 Eu 0.79707 0.0528 0.54701 0.0
O471 O 0.85001 0.85946 0.47873 0.0
O472 O 0.84372 0.98409 0.4738 0.0
O473 O 0.72883 0.98472 0.49384 0.0
O474 O 0.72405 0.86015 0.50028 0.0
Eu475 Eu 0.77567 0.9124 0.41935 0.0
O476 O 0.83432 0.80593 0.72144 0.0
O477 O 0.8181 0.96525 0.76747 0.0
O478 O 0.75987 0.80561 0.37268 0.0
O479 O 0.77608 0.96521 0.32649 0.0
O480 O 0.97103 0.90143 0.42406 0.0
O481 O 0.96683 0.89828 0.62792 0.0
O482 O 0.62732 0.89814 0.46619 0.0
O483 O 0.62312 0.90163 0.67006 0.0
O484 O 0.70199 0.11208 0.53613 0.0
O485 O 0.8922 0.11195 0.55784 0.0
O486 O 0.65443 0.78191 0.55346 0.0
O487 O 0.93971 0.78184 0.54084 0.0
O488 O 0.67405 0.94243 0.3729 0.0
O489 O 0.87794 0.94586 0.37702 0.0
O490 O 0.71624 0.94606 0.71697 0.0
O491 O 0.92004 0.94273 0.721 0.0
O492 O 0.80343 0.06238 0.68966 0.0
O493 O 0.79074 0.06233 0.40439 0.0
O494 O 0.78606 0.73234 0.64227 0.0
O495 O 0.80786 0.73207 0.45209 0.0
O496 O 1.0175 0.87896 0.52601 0.0
O497 O 0.97139 1.03832 0.50961 0.0
O498 O 0.57662 0.8791 0.56807 0.0
O499 O 0.62263 1.03851 0.58388 0.0
C500 C 0.99639 0.08427 0.93689 0.0
C501 C 0.28062 0.05989 1.00928 0.0
C502 C 0.99644 1.00989 0.65713 0.0
C503 C 0.28084 1.03413 0.58472 0.0
C504 C 0.19248 0.87245 0.66666 0.0
C505 C 0.1516 0.91669 0.9715 0.0
C506 C 0.1517 0.17742 0.62248 0.0
C507 C 0.19228 0.22154 0.92747 0.0
C508 C 0.34755 0.18676 0.75974 0.0
C509 C 0.34752 0.90721 0.83449 0.0
C510 C 0.06332 0.25936 0.78412 0.0
C511 C 0.06322 0.83485 0.80982 0.0
Eu512 Eu 0.16233 0.06843 0.92447 0.0
O513 O 0.23402 1.00032 0.8701 0.0
O514 O 0.10986 0.12027 0.84374 0.0
Eu515 Eu 0.18156 0.91958 0.81841 0.0
Eu516 Eu 0.18164 0.17453 0.77567 0.0
O517 O 0.10921 0.99395 0.86529 0.0
O518 O 0.23466 0.11531 0.85008 0.0
Eu519 Eu 1.0413 0.04712 0.79702 0.0
Eu520 Eu 0.30266 1.04701 0.79703 0.0
O521 O 0.11002 0.97404 0.75019 0.0
O522 O 0.23462 0.97877 0.74384 0.0
O523 O 0.23405 0.09369 0.72379 0.0
O524 O 0.10948 0.1 0.7287 0.0
Eu525 Eu 0.16241 1.02561 0.66931 0.0
O526 O 0.05563 0.08403 0.97143 0.0
O527 O 0.215 0.06805 1.01745 0.0
O528 O 0.05567 1.00992 0.62252 0.0
O529 O 0.21524 1.02594 0.57646 0.0
O530 O 0.14818 0.87708 0.71617 0.0
O531 O 0.15128 0.87309 0.91994 0.0
O532 O 0.1516 0.22102 0.67405 0.0
O533 O 0.14806 0.21691 0.8779 0.0
O534 O 0.3619 0.14208 0.80795 0.0
O535 O 0.36187 0.95189 0.78628 0.0
O536 O 1.03178 0.18975 0.79068 0.0
O537 O 1.0317 0.90448 0.80332 0.0
O538 O 0.19595 0.12786 0.62703 0.0
O539 O 0.19259 0.92394 0.62299 0.0
O540 O 0.1924 0.17 0.97106 0.0
O541 O 0.19589 0.96618 0.96675 0.0
O542 O 0.31217 0.05335 0.93966 0.0
O543 O 0.31231 1.04069 0.65437 0.0
O544 O 0.982 1.03617 0.89208 0.0
O545 O 0.98216 0.05809 0.70187 0.0
O546 O 0.12884 0.82664 0.81793 0.0
O547 O 0.28823 0.87274 0.83451 0.0
O548 O 0.12895 0.2675 0.77593 0.0
O549 O 0.28836 0.2214 0.76006 0.0
C550 C 0.72158 0.4274 0.69255 0.0
C551 C 0.41666 0.47163 0.65174 0.0
C552 C 0.67746 0.12241 0.65165 0.0
C553 C 0.37248 0.16666 0.69246 0.0
C554 C 0.50973 0.15726 0.4965 0.0
C555 C 0.58435 0.43686 0.4966 0.0
C556 C 0.53418 0.08474 0.78086 0.0
C557 C 0.55994 0.50928 0.78082 0.0
C558 C 0.40723 0.33416 0.84775 0.0
C559 C 0.33478 0.30995 0.56348 0.0
C560 C 0.68687 0.25986 0.84771 0.0
C561 C 0.75936 0.28413 0.5634 0.0
Eu562 Eu 0.56844 0.42446 0.66253 0.0
O563 O 0.49383 0.36535 0.60953 0.0
O564 O 0.61541 0.34999 0.7347 0.0
Eu565 Eu 0.54707 0.29707 0.54162 0.0
Eu566 Eu 0.54705 0.29701 0.80266 0.0
O567 O 0.62037 0.34371 0.61011 0.0
O568 O 0.50021 0.37014 0.73413 0.0
Eu569 Eu 0.6747 0.27559 0.68177 0.0
Eu570 Eu 0.41941 0.31848 0.6818 0.0
O571 O 0.6001 0.22869 0.60965 0.0
O572 O 0.47392 0.25025 0.61027 0.0
O573 O 0.47872 0.2439 0.73463 0.0
O574 O 0.59383 0.22376 0.73404 0.0
Eu575 Eu 0.52563 0.16933 0.66246 0.0
O576 O 0.67 0.47097 0.69273 0.0
O577 O 0.46622 0.46699 0.69599 0.0
O578 O 0.62789 0.12694 0.69591 0.0
O579 O 0.42399 0.123 0.69263 0.0
O580 O 0.55788 0.20205 0.48223 0.0
O581 O 0.53617 0.39211 0.48235 0.0
O582 O 0.54079 0.15438 0.81233 0.0
O583 O 0.55336 0.43965 0.81233 0.0
O584 O 0.37261 0.33403 0.78856 0.0
O585 O 0.32652 0.31815 0.62908 0.0
O586 O 0.72148 0.25991 0.7885 0.0
O587 O 0.76759 0.27577 0.62899 0.0
O588 O 0.52589 0.07649 0.71527 0.0
O589 O 0.50982 0.12263 0.5557 0.0
O590 O 0.56816 0.51743 0.71521 0.0
O591 O 0.5844 0.47134 0.55589 0.0
O592 O 0.37302 0.42012 0.65163 0.0
O593 O 0.37718 0.21619 0.6482 0.0
O594 O 0.71701 0.37786 0.64827 0.0
O595 O 0.7211 0.17394 0.65164 0.0
O596 O 0.68971 0.29078 0.53195 0.0
O597 O 0.40443 0.30339 0.532 0.0
O598 O 0.64207 0.308 0.86197 0.0
O599 O 0.45204 0.28603 0.86202 0.0
loop_
_geom_bond_atom_site_label_1
_geom_bond_atom_site_label_2
_geom_bond_distance
_geom_bond_site_symmetry_2
_ccdc_geom_bond_type
C0 O26 1.283 . S
C0 O44 1.283 . S
C1 O27 1.283 . S
C1 O42 1.283 . S
C2 O28 1.283 . S
C2 O45 1.283 . S
C3 O29 1.283 . S
C3 O43 1.283 . S
C4 O30 1.283 . S
C4 O39 1.283 . S
C5 O31 1.283 . S
C5 O41 1.283 . S
C6 O32 1.283 . S
C6 O38 1.283 . S
C7 O33 1.283 . S
C7 O40 1.283 . S
C8 O34 1.283 . S
C8 O49 1.283 . S
C9 O35 1.283 . S
C9 O47 1.283 . S
C10 O36 1.283 . S
C10 O48 1.283 . S
C11 O37 1.283 . S
C11 O46 1.283 . S
Eu12 O13 2.370 . S
Eu12 O14 2.370 . S
Eu12 O17 2.370 . S
Eu12 O18 2.370 . S
Eu12 O26 2.363 . S
Eu12 O27 2.363 . S
Eu12 O40 2.363 . S
Eu12 O41 2.363 . S
O13 Eu12 2.370 . S
O13 Eu15 2.370 1_655 S
O13 Eu20 2.370 1_655 S
O14 Eu12 2.370 . S
O14 Eu16 2.370 . S
O14 Eu19 2.370 1_655 S
Eu15 O13 2.370 1_455 S
Eu15 O17 2.370 1_455 S
Eu15 O21 2.370 . S
Eu15 O22 2.370 . S
Eu15 O30 2.363 . S
Eu15 O31 2.363 1_455 S
Eu15 O46 2.363 . S
Eu15 O47 2.363 . S
Eu16 O14 2.370 . S
Eu16 O18 2.370 . S
Eu16 O23 2.370 1_655 S
Eu16 O24 2.370 1_655 S
Eu16 O32 2.363 1_655 S
Eu16 O33 2.363 . S
Eu16 O48 2.363 . S
Eu16 O49 2.363 . S
O17 Eu12 2.370 . S
O17 Eu15 2.370 1_655 S
O17 Eu19 2.370 1_655 S
O18 Eu12 2.370 . S
O18 Eu16 2.370 . S
O18 Eu20 2.370 1_655 S
Eu19 O14 2.370 1_455 S
Eu19 O17 2.370 1_455 S
Eu19 O21 2.370 . S
Eu19 O24 2.370 . S
Eu19 O36 2.363 1_455 S
Eu19 O37 2.363 . S
Eu19 O44 2.363 1_455 S
Eu19 O45 2.363 . S
Eu20 O13 2.370 1_455 S
Eu20 O18 2.370 1_455 S
Eu20 O22 2.370 . S
Eu20 O23 2.370 . S
Eu20 O34 2.363 1_455 S
Eu20 O35 2.363 . S
Eu20 O42 2.363 1_455 S
Eu20 O43 2.363 . S
O21 Eu15 2.370 . S
O21 Eu19 2.370 . S
O21 Eu25 2.370 . S
O22 Eu15 2.370 . S
O22 Eu20 2.370 . S
O22 Eu25 2.370 . S
O23 Eu16 2.370 1_455 S
O23 Eu20 2.370 . S
O23 Eu25 2.370 . S
O24 Eu16 2.370 1_455 S
O24 Eu19 2.370 . S
O24 Eu25 2.370 . S
Eu25 O21 2.370 . S
Eu25 O22 2.370 . S
Eu25 O23 2.370 . S
Eu25 O24 2.370 . S
Eu25 O28 2.363 . S
Eu25 O29 2.363 . S
Eu25 O38 2.363 . S
Eu25 O39 2.363 . S
O26 C0 1.283 . S
O26 Eu12 2.363 . S
O27 C1 1.283 . S
O27 Eu12 2.363 . S
O28 C2 1.283 . S
O28 Eu25 2.363 . S
O29 C3 1.283 . S
O29 Eu25 2.363 . S
O30 C4 1.283 . S
O30 Eu15 2.363 . S
O31 C5 1.283 . S
O31 Eu15 2.363 1_655 S
O32 C6 1.283 . S
O32 Eu16 2.363 1_455 S
O33 C7 1.283 . S
O33 Eu16 2.363 . S
O34 C8 1.283 . S
O34 Eu20 2.363 1_655 S
O35 C9 1.283 . S
O35 Eu20 2.363 . S
O36 C10 1.283 . S
O36 Eu19 2.363 1_655 S
O37 C11 1.283 . S
O37 Eu19 2.363 . S
O38 C6 1.283 . S
O38 Eu25 2.363 . S
O39 C4 1.283 . S
O39 Eu25 2.363 . S
O40 C7 1.283 . S
O40 Eu12 2.363 . S
O41 C5 1.283 . S
O41 Eu12 2.363 . S
O42 C1 1.283 . S
O42 Eu20 2.363 1_655 S
O43 C3 1.283 . S
O43 Eu20 2.363 . S
O44 C0 1.283 . S
O44 Eu19 2.363 1_655 S
O45 C2 1.283 . S
O45 Eu19 2.363 . S
O46 C11 1.283 . S
O46 Eu15 2.363 . S
O47 C9 1.283 . S
O47 Eu15 2.363 . S
O48 C10 1.283 . S
O48 Eu16 2.363 . S
O49 C8 1.283 . S
O49 Eu16 2.363 . S
C50 O76 1.283 . S
C50 O94 1.283 . S
C51 O77 1.283 1_554 S
C51 O92 1.283 . S
C52 O78 1.283 . S
C52 O95 1.283 . S
C53 O79 1.283 1_554 S
C53 O93 1.283 . S
C54 O80 1.283 . S
C54 O89 1.283 . S
C55 O81 1.283 . S
C55 O91 1.283 . S
C56 O82 1.283 . S
C56 O88 1.283 . S
C57 O83 1.283 . S
C57 O90 1.283 . S
C58 O84 1.283 . S
C58 O99 1.283 1_554 S
C59 O85 1.283 . S
C59 O97 1.283 1_554 S
C60 O86 1.283 . S
C60 O98 1.283 . S
C61 O87 1.283 . S
C61 O96 1.283 . S
Eu62 O63 2.370 . S
Eu62 O64 2.370 . S
Eu62 O67 2.370 . S
Eu62 O68 2.370 . S
Eu62 O76 2.363 . S
Eu62 O77 2.363 . S
Eu62 O90 2.363 . S
Eu62 O91 2.363 . S
O63 Eu62 2.370 . S
O63 Eu65 2.370 . S
O63 Eu70 2.370 1_556 S
O64 Eu62 2.370 . S
O64 Eu66 2.370 . S
O64 Eu69 2.370 . S
Eu65 O63 2.370 . S
Eu65 O67 2.370 . S
Eu65 O71 2.370 . S
Eu65 O72 2.370 . S
Eu65 O80 2.363 . S
Eu65 O81 2.363 . S
Eu65 O96 2.363 . S
Eu65 O97 2.363 . S
Eu66 O64 2.370 . S
Eu66 O68 2.370 . S
Eu66 O73 2.370 . S
Eu66 O74 2.370 . S
Eu66 O82 2.363 . S
Eu66 O83 2.363 . S
Eu66 O98 2.363 . S
Eu66 O99 2.363 . S
O67 Eu62 2.370 . S
O67 Eu65 2.370 . S
O67 Eu69 2.370 . S
O68 Eu62 2.370 . S
O68 Eu66 2.370 . S
O68 Eu70 2.370 1_556 S
Eu69 O64 2.370 . S
Eu69 O67 2.370 . S
Eu69 O71 2.370 . S
Eu69 O74 2.370 . S
Eu69 O86 2.363 . S
Eu69 O87 2.363 . S
Eu69 O94 2.363 . S
Eu69 O95 2.363 . S
Eu70 O63 2.370 1_554 S
Eu70 O68 2.370 1_554 S
Eu70 O72 2.370 1_554 S
Eu70 O73 2.370 1_554 S
Eu70 O84 2.363 . S
Eu70 O85 2.363 . S
Eu70 O92 2.363 . S
Eu70 O93 2.363 . S
O71 Eu65 2.370 . S
O71 Eu69 2.370 . S
O71 Eu75 2.370 . S
O72 Eu65 2.370 . S
O72 Eu70 2.370 1_556 S
O72 Eu75 2.370 . S
O73 Eu66 2.370 . S
O73 Eu70 2.370 1_556 S
O73 Eu75 2.370 . S
O74 Eu66 2.370 . S
O74 Eu69 2.370 . S
O74 Eu75 2.370 . S
Eu75 O71 2.370 . S
Eu75 O72 2.370 . S
Eu75 O73 2.370 . S
Eu75 O74 2.370 . S
Eu75 O78 2.363 . S
Eu75 O79 2.363 . S
Eu75 O88 2.363 . S
Eu75 O89 2.363 . S
O76 C50 1.283 . S
O76 Eu62 2.363 . S
O77 C51 1.283 1_556 S
O77 Eu62 2.363 . S
O78 C52 1.283 . S
O78 Eu75 2.363 . S
O79 C53 1.283 1_556 S
O79 Eu75 2.363 . S
O80 C54 1.283 . S
O80 Eu65 2.363 . S
O81 C55 1.283 . S
O81 Eu65 2.363 . S
O82 C56 1.283 . S
O82 Eu66 2.363 . S
O83 C57 1.283 . S
O83 Eu66 2.363 . S
O84 C58 1.283 . S
O84 Eu70 2.363 . S
O85 C59 1.283 . S
O85 Eu70 2.363 . S
O86 C60 1.283 . S
O86 Eu69 2.363 . S
O87 C61 1.283 . S
O87 Eu69 2.363 . S
O88 C56 1.283 . S
O88 Eu75 2.363 . S
O89 C54 1.283 . S
O89 Eu75 2.363 . S
O90 C57 1.283 . S
O90 Eu62 2.363 . S
O91 C55 1.283 . S
O91 Eu62 2.363 . S
O92 C51 1.283 . S
O92 Eu70 2.363 . S
O93 C53 1.283 . S
O93 Eu70 2.363 . S
O94 C50 1.283 . S
O94 Eu69 2.363 . S
O95 C52 1.283 . S
O95 Eu69 2.363 . S
O96 C61 1.283 . S
O96 Eu65 2.363 . S
O97 C59 1.283 1_556 S
O97 Eu65 2.363 . S
O98 C60 1.283 . S
O98 Eu66 2.363 . S
O99 C58 1.283 1_556 S
O99 Eu66 2.363 . S
C100 O126 1.283 . S
C100 O144 1.283 . S
C101 O127 1.283 . S
C101 O142 1.283 . S
C102 O128 1.283 . S
C102 O145 1.283 . S
C103 O129 1.283 . S
C103 O143 1.283 . S
C104 O130 1.283 . S
C104 O139 1.283 1_556 S
C105 O131 1.283 . S
C105 O141 1.283 1_556 S
C106 O132 1.283 . S
C106 O138 1.283 . S
C107 O133 1.283 . S
C107 O140 1.283 . S
C108 O134 1.283 . S
C108 O149 1.283 . S
C109 O135 1.283 1_556 S
C109 O147 1.283 . S
C110 O136 1.283 . S
C110 O148 1.283 . S
C111 O137 1.283 1_556 S
C111 O146 1.283 . S
Eu112 O113 2.370 1_455 S
Eu112 O114 2.370 . S
Eu112 O117 2.370 . S
Eu112 O118 2.370 1_455 S
Eu112 O126 2.363 . S
Eu112 O127 2.363 1_455 S
Eu112 O140 2.363 . S
Eu112 O141 2.363 . S
O113 Eu112 2.370 1_655 S
O113 Eu115 2.370 1_654 S
O113 Eu120 2.370 . S
O114 Eu112 2.370 . S
O114 Eu116 2.370 . S
O114 Eu119 2.370 . S
Eu115 O113 2.370 1_456 S
Eu115 O117 2.370 1_556 S
Eu115 O121 2.370 1_556 S
Eu115 O122 2.370 1_456 S
Eu115 O130 2.363 1_455 S
Eu115 O131 2.363 . S
Eu115 O146 2.363 . S
Eu115 O147 2.363 1_455 S
Eu116 O114 2.370 . S
Eu116 O118 2.370 1_455 S
Eu116 O123 2.370 1_455 S
Eu116 O124 2.370 . S
Eu116 O132 2.363 1_455 S
Eu116 O133 2.363 . S
Eu116 O148 2.363 . S
Eu116 O149 2.363 1_455 S
O117 Eu112 2.370 . S
O117 Eu115 2.370 1_554 S
O117 Eu119 2.370 . S
O118 Eu112 2.370 1_655 S
O118 Eu116 2.370 1_655 S
O118 Eu120 2.370 . S
Eu119 O114 2.370 . S
Eu119 O117 2.370 . S
Eu119 O121 2.370 . S
Eu119 O124 2.370 . S
Eu119 O136 2.363 . S
Eu119 O137 2.363 . S
Eu119 O144 2.363 . S
Eu119 O145 2.363 . S
Eu120 O113 2.370 . S
Eu120 O118 2.370 . S
Eu120 O122 2.370 . S
Eu120 O123 2.370 . S
Eu120 O134 2.363 . S
Eu120 O135 2.363 . S
Eu120 O142 2.363 . S
Eu120 O143 2.363 . S
O121 Eu115 2.370 1_554 S
O121 Eu119 2.370 . S
O121 Eu125 2.370 1_455 S
O122 Eu115 2.370 1_654 S
O122 Eu120 2.370 . S
O122 Eu125 2.370 . S
O123 Eu116 2.370 1_655 S
O123 Eu120 2.370 . S
O123 Eu125 2.370 . S
O124 Eu116 2.370 . S
O124 Eu119 2.370 . S
O124 Eu125 2.370 1_455 S
Eu125 O121 2.370 1_655 S
Eu125 O122 2.370 . S
Eu125 O123 2.370 . S
Eu125 O124 2.370 1_655 S
Eu125 O128 2.363 1_655 S
Eu125 O129 2.363 . S
Eu125 O138 2.363 . S
Eu125 O139 2.363 . S
O126 C100 1.283 . S
O126 Eu112 2.363 . S
O127 C101 1.283 . S
O127 Eu112 2.363 1_655 S
O128 C102 1.283 . S
O128 Eu125 2.363 1_455 S
O129 C103 1.283 . S
O129 Eu125 2.363 . S
O130 C104 1.283 . S
O130 Eu115 2.363 1_655 S
O131 C105 1.283 . S
O131 Eu115 2.363 . S
O132 C106 1.283 . S
O132 Eu116 2.363 1_655 S
O133 C107 1.283 . S
O133 Eu116 2.363 . S
O134 C108 1.283 . S
O134 Eu120 2.363 . S
O135 C109 1.283 1_554 S
O135 Eu120 2.363 . S
O136 C110 1.283 . S
O136 Eu119 2.363 . S
O137 C111 1.283 1_554 S
O137 Eu119 2.363 . S
O138 C106 1.283 . S
O138 Eu125 2.363 . S
O139 C104 1.283 1_554 S
O139 Eu125 2.363 . S
O140 C107 1.283 . S
O140 Eu112 2.363 . S
O141 C105 1.283 1_554 S
O141 Eu112 2.363 . S
O142 C101 1.283 . S
O142 Eu120 2.363 . S
O143 C103 1.283 . S
O143 Eu120 2.363 . S
O144 C100 1.283 . S
O144 Eu119 2.363 . S
O145 C102 1.283 . S
O145 Eu119 2.363 . S
O146 C111 1.283 . S
O146 Eu115 2.363 . S
O147 C109 1.283 . S
O147 Eu115 2.363 1_655 S
O148 C110 1.283 . S
O148 Eu116 2.363 . S
O149 C108 1.283 . S
O149 Eu116 2.363 1_655 S
C150 O176 1.283 . S
C150 O194 1.283 . S
C151 O177 1.283 . S
C151 O192 1.283 . S
C152 O178 1.283 . S
C152 O195 1.283 . S
C153 O179 1.283 . S
C153 O193 1.283 . S
C154 O180 1.283 . S
C154 O189 1.283 . S
C155 O181 1.283 . S
C155 O191 1.283 . S
C156 O182 1.283 . S
C156 O188 1.283 . S
C157 O183 1.283 . S
C157 O190 1.283 . S
C158 O184 1.283 . S
C158 O199 1.283 . S
C159 O185 1.283 . S
C159 O197 1.283 . S
C160 O186 1.283 . S
C160 O198 1.283 . S
C161 O187 1.283 . S
C161 O196 1.283 . S
Eu162 O163 2.370 1_565 S
Eu162 O164 2.370 . S
Eu162 O167 2.370 . S
Eu162 O168 2.370 1_565 S
Eu162 O176 2.363 . S
Eu162 O177 2.363 1_565 S
Eu162 O190 2.363 . S
Eu162 O191 2.363 . S
O163 Eu162 2.370 1_545 S
O163 Eu165 2.370 . S
O163 Eu170 2.370 . S
O164 Eu162 2.370 . S
O164 Eu166 2.370 1_565 S
O164 Eu169 2.370 . S
Eu165 O163 2.370 . S
Eu165 O167 2.370 1_545 S
Eu165 O171 2.370 1_545 S
Eu165 O172 2.370 . S
Eu165 O180 2.363 . S
Eu165 O181 2.363 1_545 S
Eu165 O196 2.363 1_545 S
Eu165 O197 2.363 . S
Eu166 O164 2.370 1_545 S
Eu166 O168 2.370 . S
Eu166 O173 2.370 . S
Eu166 O174 2.370 1_545 S
Eu166 O182 2.363 . S
Eu166 O183 2.363 1_545 S
Eu166 O198 2.363 1_545 S
Eu166 O199 2.363 . S
O167 Eu162 2.370 . S
O167 Eu165 2.370 1_565 S
O167 Eu169 2.370 . S
O168 Eu162 2.370 1_545 S
O168 Eu166 2.370 . S
O168 Eu170 2.370 . S
Eu169 O164 2.370 . S
Eu169 O167 2.370 . S
Eu169 O171 2.370 . S
Eu169 O174 2.370 . S
Eu169 O186 2.363 . S
Eu169 O187 2.363 . S
Eu169 O194 2.363 . S
Eu169 O195 2.363 . S
Eu170 O163 2.370 . S
Eu170 O168 2.370 . S
Eu170 O172 2.370 . S
Eu170 O173 2.370 . S
Eu170 O184 2.363 . S
Eu170 O185 2.363 . S
Eu170 O192 2.363 . S
Eu170 O193 2.363 . S
O171 Eu165 2.370 1_565 S
O171 Eu169 2.370 . S
O171 Eu175 2.370 1_565 S
O172 Eu165 2.370 . S
O172 Eu170 2.370 . S
O172 Eu175 2.370 . S
O173 Eu166 2.370 . S
O173 Eu170 2.370 . S
O173 Eu175 2.370 . S
O174 Eu166 2.370 1_565 S
O174 Eu169 2.370 . S
O174 Eu175 2.370 1_565 S
Eu175 O171 2.370 1_545 S
Eu175 O172 2.370 . S
Eu175 O173 2.370 . S
Eu175 O174 2.370 1_545 S
Eu175 O178 2.363 1_545 S
Eu175 O179 2.363 . S
Eu175 O188 2.363 . S
Eu175 O189 2.363 . S
O176 C150 1.283 . S
O176 Eu162 2.363 . S
O177 C151 1.283 . S
O177 Eu162 2.363 1_545 S
O178 C152 1.283 . S
O178 Eu175 2.363 1_565 S
O179 C153 1.283 . S
O179 Eu175 2.363 . S
O180 C154 1.283 . S
O180 Eu165 2.363 . S
O181 C155 1.283 . S
O181 Eu165 2.363 1_565 S
O182 C156 1.283 . S
O182 Eu166 2.363 . S
O183 C157 1.283 . S
O183 Eu166 2.363 1_565 S
O184 C158 1.283 . S
O184 Eu170 2.363 . S
O185 C159 1.283 . S
O185 Eu170 2.363 . S
O186 C160 1.283 . S
O186 Eu169 2.363 . S
O187 C161 1.283 . S
O187 Eu169 2.363 . S
O188 C156 1.283 . S
O188 Eu175 2.363 . S
O189 C154 1.283 . S
O189 Eu175 2.363 . S
O190 C157 1.283 . S
O190 Eu162 2.363 . S
O191 C155 1.283 . S
O191 Eu162 2.363 . S
O192 C151 1.283 . S
O192 Eu170 2.363 . S
O193 C153 1.283 . S
O193 Eu170 2.363 . S
O194 C150 1.283 . S
O194 Eu169 2.363 . S
O195 C152 1.283 . S
O195 Eu169 2.363 . S
O196 C161 1.283 . S
O196 Eu165 2.363 1_565 S
O197 C159 1.283 . S
O197 Eu165 2.363 . S
O198 C160 1.283 . S
O198 Eu166 2.363 1_565 S
O199 C158 1.283 . S
O199 Eu166 2.363 . S
C200 O226 1.283 . S
C200 O244 1.283 . S
C201 O227 1.283 . S
C201 O242 1.283 . S
C202 O228 1.283 . S
C202 O245 1.283 . S
C203 O229 1.283 . S
C203 O243 1.283 . S
C204 O230 1.283 . S
C204 O239 1.283 . S
C205 O231 1.283 . S
C205 O241 1.283 . S
C206 O232 1.283 . S
C206 O238 1.283 . S
C207 O233 1.283 . S
C207 O240 1.283 . S
C208 O234 1.283 . S
C208 O249 1.283 . S
C209 O235 1.283 . S
C209 O247 1.283 . S
C210 O236 1.283 . S
C210 O248 1.283 . S
C211 O237 1.283 . S
C211 O246 1.283 . S
Eu212 O213 2.370 . S
Eu212 O214 2.370 . S
Eu212 O217 2.370 . S
Eu212 O218 2.370 . S
Eu212 O226 2.363 . S
Eu212 O227 2.363 . S
Eu212 O240 2.363 . S
Eu212 O241 2.363 . S
O213 Eu212 2.370 . S
O213 Eu215 2.370 1_554 S
O213 Eu220 2.370 . S
O214 Eu212 2.370 . S
O214 Eu216 2.370 . S
O214 Eu219 2.370 . S
Eu215 O213 2.370 1_556 S
Eu215 O217 2.370 1_556 S
Eu215 O221 2.370 . S
Eu215 O222 2.370 . S
Eu215 O230 2.363 . S
Eu215 O231 2.363 1_556 S
Eu215 O246 2.363 . S
Eu215 O247 2.363 . S
Eu216 O214 2.370 . S
Eu216 O218 2.370 . S
Eu216 O223 2.370 1_554 S
Eu216 O224 2.370 1_554 S
Eu216 O232 2.363 1_554 S
Eu216 O233 2.363 . S
Eu216 O248 2.363 . S
Eu216 O249 2.363 . S
O217 Eu212 2.370 . S
O217 Eu215 2.370 1_554 S
O217 Eu219 2.370 . S
O218 Eu212 2.370 . S
O218 Eu216 2.370 . S
O218 Eu220 2.370 . S
Eu219 O214 2.370 . S
Eu219 O217 2.370 . S
Eu219 O221 2.370 1_554 S
Eu219 O224 2.370 1_554 S
Eu219 O236 2.363 . S
Eu219 O237 2.363 1_554 S
Eu219 O244 2.363 . S
Eu219 O245 2.363 1_554 S
Eu220 O213 2.370 . S
Eu220 O218 2.370 . S
Eu220 O222 2.370 1_554 S
Eu220 O223 2.370 1_554 S
Eu220 O234 2.363 . S
Eu220 O235 2.363 1_554 S
Eu220 O242 2.363 . S
Eu220 O243 2.363 1_554 S
O221 Eu215 2.370 . S
O221 Eu219 2.370 1_556 S
O221 Eu225 2.370 . S
O222 Eu215 2.370 . S
O222 Eu220 2.370 1_556 S
O222 Eu225 2.370 . S
O223 Eu216 2.370 1_556 S
O223 Eu220 2.370 1_556 S
O223 Eu225 2.370 . S
O224 Eu216 2.370 1_556 S
O224 Eu219 2.370 1_556 S
O224 Eu225 2.370 . S
Eu225 O221 2.370 . S
Eu225 O222 2.370 . S
Eu225 O223 2.370 . S
Eu225 O224 2.370 . S
Eu225 O228 2.363 . S
Eu225 O229 2.363 . S
Eu225 O238 2.363 . S
Eu225 O239 2.363 . S
O226 C200 1.283 . S
O226 Eu212 2.363 . S
O227 C201 1.283 . S
O227 Eu212 2.363 . S
O228 C202 1.283 . S
O228 Eu225 2.363 . S
O229 C203 1.283 . S
O229 Eu225 2.363 . S
O230 C204 1.283 . S
O230 Eu215 2.363 . S
O231 C205 1.283 . S
O231 Eu215 2.363 1_554 S
O232 C206 1.283 . S
O232 Eu216 2.363 1_556 S
O233 C207 1.283 . S
O233 Eu216 2.363 . S
O234 C208 1.283 . S
O234 Eu220 2.363 . S
O235 C209 1.283 . S
O235 Eu220 2.363 1_556 S
O236 C210 1.283 . S
O236 Eu219 2.363 . S
O237 C211 1.283 . S
O237 Eu219 2.363 1_556 S
O238 C206 1.283 . S
O238 Eu225 2.363 . S
O239 C204 1.283 . S
O239 Eu225 2.363 . S
O240 C207 1.283 . S
O240 Eu212 2.363 . S
O241 C205 1.283 . S
O241 Eu212 2.363 . S
O242 C201 1.283 . S
O242 Eu220 2.363 . S
O243 C203 1.283 . S
O243 Eu220 2.363 1_556 S
O244 C200 1.283 . S
O244 Eu219 2.363 . S
O245 C202 1.283 . S
O245 Eu219 2.363 1_556 S
O246 C211 1.283 . S
O246 Eu215 2.363 . S
O247 C209 1.283 . S
O247 Eu215 2.363 . S
O248 C210 1.283 . S
O248 Eu216 2.363 . S
O249 C208 1.283 . S
O249 Eu216 2.363 . S
C250 O276 1.283 . S
C250 O294 1.283 . S
C251 O277 1.283 . S
C251 O292 1.283 . S
C252 O278 1.283 . S
C252 O295 1.283 . S
C253 O279 1.283 . S
C253 O293 1.283 . S
C254 O280 1.283 . S
C254 O289 1.283 . S
C255 O281 1.283 . S
C255 O291 1.283 . S
C256 O282 1.283 . S
C256 O288 1.283 . S
C257 O283 1.283 . S
C257 O290 1.283 . S
C258 O284 1.283 . S
C258 O299 1.283 . S
C259 O285 1.283 . S
C259 O297 1.283 . S
C260 O286 1.283 . S
C260 O298 1.283 . S
C261 O287 1.283 . S
C261 O296 1.283 . S
Eu262 O263 2.370 . S
Eu262 O264 2.370 . S
Eu262 O267 2.370 . S
Eu262 O268 2.370 . S
Eu262 O276 2.363 . S
Eu262 O277 2.363 . S
Eu262 O290 2.363 . S
Eu262 O291 2.363 . S
O263 Eu262 2.370 . S
O263 Eu265 2.370 . S
O263 Eu270 2.370 . S
O264 Eu262 2.370 . S
O264 Eu266 2.370 . S
O264 Eu269 2.370 . S
Eu265 O263 2.370 . S
Eu265 O267 2.370 . S
Eu265 O271 2.370 . S
Eu265 O272 2.370 . S
Eu265 O280 2.363 . S
Eu265 O281 2.363 . S
Eu265 O296 2.363 . S
Eu265 O297 2.363 . S
Eu266 O264 2.370 . S
Eu266 O268 2.370 . S
Eu266 O273 2.370 . S
Eu266 O274 2.370 . S
Eu266 O282 2.363 . S
Eu266 O283 2.363 . S
Eu266 O298 2.363 . S
Eu266 O299 2.363 . S
O267 Eu262 2.370 . S
O267 Eu265 2.370 . S
O267 Eu269 2.370 . S
O268 Eu262 2.370 . S
O268 Eu266 2.370 . S
O268 Eu270 2.370 . S
Eu269 O264 2.370 . S
Eu269 O267 2.370 . S
Eu269 O271 2.370 . S
Eu269 O274 2.370 . S
Eu269 O286 2.363 . S
Eu269 O287 2.363 . S
Eu269 O294 2.363 . S
Eu269 O295 2.363 . S
Eu270 O263 2.370 . S
Eu270 O268 2.370 . S
Eu270 O272 2.370 . S
Eu270 O273 2.370 . S
Eu270 O284 2.363 . S
Eu270 O285 2.363 . S
Eu270 O292 2.363 . S
Eu270 O293 2.363 . S
O271 Eu265 2.370 . S
O271 Eu269 2.370 . S
O271 Eu275 2.370 . S
O272 Eu265 2.370 . S
O272 Eu270 2.370 . S
O272 Eu275 2.370 . S
O273 Eu266 2.370 . S
O273 Eu270 2.370 . S
O273 Eu275 2.370 . S
O274 Eu266 2.370 . S
O274 Eu269 2.370 . S
O274 Eu275 2.370 . S
Eu275 O271 2.370 . S
Eu275 O272 2.370 . S
Eu275 O273 2.370 . S
Eu275 O274 2.370 . S
Eu275 O278 2.363 . S
Eu275 O279 2.363 . S
Eu275 O288 2.363 . S
Eu275 O289 2.363 . S
O276 C250 1.283 . S
O276 Eu262 2.363 . S
O277 C251 1.283 . S
O277 Eu262 2.363 . S
O278 C252 1.283 . S
O278 Eu275 2.363 . S
O279 C253 1.283 . S
O279 Eu275 2.363 . S
O280 C254 1.283 . S
O280 Eu265 2.363 . S
O281 C255 1.283 . S
O281 Eu265 2.363 . S
O282 C256 1.283 . S
O282 Eu266 2.363 . S
O283 C257 1.283 . S
O283 Eu266 2.363 . S
O284 C258 1.283 . S
O284 Eu270 2.363 . S
O285 C259 1.283 . S
O285 Eu270 2.363 . S
O286 C260 1.283 . S
O286 Eu269 2.363 . S
O287 C261 1.283 . S
O287 Eu269 2.363 . S
O288 C256 1.283 . S
O288 Eu275 2.363 . S
O289 C254 1.283 . S
O289 Eu275 2.363 . S
O290 C257 1.283 . S
O290 Eu262 2.363 . S
O291 C255 1.283 . S
O291 Eu262 2.363 . S
O292 C251 1.283 . S
O292 Eu270 2.363 . S
O293 C253 1.283 . S
O293 Eu270 2.363 . S
O294 C250 1.283 . S
O294 Eu269 2.363 . S
O295 C252 1.283 . S
O295 Eu269 2.363 . S
O296 C261 1.283 . S
O296 Eu265 2.363 . S
O297 C259 1.283 . S
O297 Eu265 2.363 . S
O298 C260 1.283 . S
O298 Eu266 2.363 . S
O299 C258 1.283 . S
O299 Eu266 2.363 . S
C300 O326 1.283 . S
C300 O344 1.283 . S
C301 O327 1.283 . S
C301 O342 1.283 . S
C302 O328 1.283 . S
C302 O345 1.283 . S
C303 O329 1.283 . S
C303 O343 1.283 . S
C304 O330 1.283 . S
C304 O339 1.283 1_565 S
C305 O331 1.283 . S
C305 O341 1.283 1_565 S
C306 O332 1.283 . S
C306 O338 1.283 . S
C307 O333 1.283 . S
C307 O340 1.283 . S
C308 O334 1.283 . S
C308 O349 1.283 . S
C309 O335 1.283 1_565 S
C309 O347 1.283 . S
C310 O336 1.283 . S
C310 O348 1.283 . S
C311 O337 1.283 1_565 S
C311 O346 1.283 . S
Eu312 O313 2.370 1_556 S
Eu312 O314 2.370 . S
Eu312 O317 2.370 . S
Eu312 O318 2.370 1_556 S
Eu312 O326 2.363 . S
Eu312 O327 2.363 1_556 S
Eu312 O340 2.363 . S
Eu312 O341 2.363 . S
O313 Eu312 2.370 1_554 S
O313 Eu315 2.370 1_545 S
O313 Eu320 2.370 . S
O314 Eu312 2.370 . S
O314 Eu316 2.370 1_556 S
O314 Eu319 2.370 . S
Eu315 O313 2.370 1_565 S
Eu315 O317 2.370 1_564 S
Eu315 O321 2.370 1_564 S
Eu315 O322 2.370 1_565 S
Eu315 O330 2.363 . S
Eu315 O331 2.363 1_554 S
Eu315 O346 2.363 1_554 S
Eu315 O347 2.363 . S
Eu316 O314 2.370 1_554 S
Eu316 O318 2.370 . S
Eu316 O323 2.370 . S
Eu316 O324 2.370 1_554 S
Eu316 O332 2.363 . S
Eu316 O333 2.363 1_554 S
Eu316 O348 2.363 1_554 S
Eu316 O349 2.363 . S
O317 Eu312 2.370 . S
O317 Eu315 2.370 1_546 S
O317 Eu319 2.370 . S
O318 Eu312 2.370 1_554 S
O318 Eu316 2.370 . S
O318 Eu320 2.370 . S
Eu319 O314 2.370 . S
Eu319 O317 2.370 . S
Eu319 O321 2.370 . S
Eu319 O324 2.370 . S
Eu319 O336 2.363 . S
Eu319 O337 2.363 . S
Eu319 O344 2.363 . S
Eu319 O345 2.363 . S
Eu320 O313 2.370 . S
Eu320 O318 2.370 . S
Eu320 O322 2.370 . S
Eu320 O323 2.370 . S
Eu320 O334 2.363 . S
Eu320 O335 2.363 . S
Eu320 O342 2.363 . S
Eu320 O343 2.363 . S
O321 Eu315 2.370 1_546 S
O321 Eu319 2.370 . S
O321 Eu325 2.370 1_556 S
O322 Eu315 2.370 1_545 S
O322 Eu320 2.370 . S
O322 Eu325 2.370 . S
O323 Eu316 2.370 . S
O323 Eu320 2.370 . S
O323 Eu325 2.370 . S
O324 Eu316 2.370 1_556 S
O324 Eu319 2.370 . S
O324 Eu325 2.370 1_556 S
Eu325 O321 2.370 1_554 S
Eu325 O322 2.370 . S
Eu325 O323 2.370 . S
Eu325 O324 2.370 1_554 S
Eu325 O328 2.363 1_554 S
Eu325 O329 2.363 . S
Eu325 O338 2.363 . S
Eu325 O339 2.363 . S
O326 C300 1.283 . S
O326 Eu312 2.363 . S
O327 C301 1.283 . S
O327 Eu312 2.363 1_554 S
O328 C302 1.283 . S
O328 Eu325 2.363 1_556 S
O329 C303 1.283 . S
O329 Eu325 2.363 . S
O330 C304 1.283 . S
O330 Eu315 2.363 . S
O331 C305 1.283 . S
O331 Eu315 2.363 1_556 S
O332 C306 1.283 . S
O332 Eu316 2.363 . S
O333 C307 1.283 . S
O333 Eu316 2.363 1_556 S
O334 C308 1.283 . S
O334 Eu320 2.363 . S
O335 C309 1.283 1_545 S
O335 Eu320 2.363 . S
O336 C310 1.283 . S
O336 Eu319 2.363 . S
O337 C311 1.283 1_545 S
O337 Eu319 2.363 . S
O338 C306 1.283 . S
O338 Eu325 2.363 . S
O339 C304 1.283 1_545 S
O339 Eu325 2.363 . S
O340 C307 1.283 . S
O340 Eu312 2.363 . S
O341 C305 1.283 1_545 S
O341 Eu312 2.363 . S
O342 C301 1.283 . S
O342 Eu320 2.363 . S
O343 C303 1.283 . S
O343 Eu320 2.363 . S
O344 C300 1.283 . S
O344 Eu319 2.363 . S
O345 C302 1.283 . S
O345 Eu319 2.363 . S
O346 C311 1.283 . S
O346 Eu315 2.363 1_556 S
O347 C309 1.283 . S
O347 Eu315 2.363 . S
O348 C310 1.283 . S
O348 Eu316 2.363 1_556 S
O349 C308 1.283 . S
O349 Eu316 2.363 . S
C350 O376 1.283 . S
C350 O394 1.283 . S
C351 O377 1.283 . S
C351 O392 1.283 . S
C352 O378 1.283 . S
C352 O395 1.283 . S
C353 O379 1.283 . S
C353 O393 1.283 . S
C354 O380 1.283 . S
C354 O389 1.283 . S
C355 O381 1.283 . S
C355 O391 1.283 . S
C356 O382 1.283 . S
C356 O388 1.283 . S
C357 O383 1.283 . S
C357 O390 1.283 . S
C358 O384 1.283 . S
C358 O399 1.283 . S
C359 O385 1.283 . S
C359 O397 1.283 . S
C360 O386 1.283 . S
C360 O398 1.283 . S
C361 O387 1.283 . S
C361 O396 1.283 . S
Eu362 O363 2.370 . S
Eu362 O364 2.370 . S
Eu362 O367 2.370 . S
Eu362 O368 2.370 . S
Eu362 O376 2.363 . S
Eu362 O377 2.363 . S
Eu362 O390 2.363 . S
Eu362 O391 2.363 . S
O363 Eu362 2.370 . S
O363 Eu365 2.370 . S
O363 Eu370 2.370 . S
O364 Eu362 2.370 . S
O364 Eu366 2.370 . S
O364 Eu369 2.370 . S
Eu365 O363 2.370 . S
Eu365 O367 2.370 . S
Eu365 O371 2.370 . S
Eu365 O372 2.370 . S
Eu365 O380 2.363 . S
Eu365 O381 2.363 . S
Eu365 O396 2.363 . S
Eu365 O397 2.363 . S
Eu366 O364 2.370 . S
Eu366 O368 2.370 . S
Eu366 O373 2.370 . S
Eu366 O374 2.370 . S
Eu366 O382 2.363 . S
Eu366 O383 2.363 . S
Eu366 O398 2.363 . S
Eu366 O399 2.363 . S
O367 Eu362 2.370 . S
O367 Eu365 2.370 . S
O367 Eu369 2.370 . S
O368 Eu362 2.370 . S
O368 Eu366 2.370 . S
O368 Eu370 2.370 . S
Eu369 O364 2.370 . S
Eu369 O367 2.370 . S
Eu369 O371 2.370 . S
Eu369 O374 2.370 . S
Eu369 O386 2.363 . S
Eu369 O387 2.363 . S
Eu369 O394 2.363 . S
Eu369 O395 2.363 . S
Eu370 O363 2.370 . S
Eu370 O368 2.370 . S
Eu370 O372 2.370 . S
Eu370 O373 2.370 . S
Eu370 O384 2.363 . S
Eu370 O385 2.363 . S
Eu370 O392 2.363 . S
Eu370 O393 2.363 . S
O371 Eu365 2.370 . S
O371 Eu369 2.370 . S
O371 Eu375 2.370 . S
O372 Eu365 2.370 . S
O372 Eu370 2.370 . S
O372 Eu375 2.370 . S
O373 Eu366 2.370 . S
O373 Eu370 2.370 . S
O373 Eu375 2.370 . S
O374 Eu366 2.370 . S
O374 Eu369 2.370 . S
O374 Eu375 2.370 . S
Eu375 O371 2.370 . S
Eu375 O372 2.370 . S
Eu375 O373 2.370 . S
Eu375 O374 2.370 . S
Eu375 O378 2.363 . S
Eu375 O379 2.363 . S
Eu375 O388 2.363 . S
Eu375 O389 2.363 . S
O376 C350 1.283 . S
O376 Eu362 2.363 . S
O377 C351 1.283 . S
O377 Eu362 2.363 . S
O378 C352 1.283 . S
O378 Eu375 2.363 . S
O379 C353 1.283 . S
O379 Eu375 2.363 . S
O380 C354 1.283 . S
O380 Eu365 2.363 . S
O381 C355 1.283 . S
O381 Eu365 2.363 . S
O382 C356 1.283 . S
O382 Eu366 2.363 . S
O383 C357 1.283 . S
O383 Eu366 2.363 . S
O384 C358 1.283 . S
O384 Eu370 2.363 . S
O385 C359 1.283 . S
O385 Eu370 2.363 . S
O386 C360 1.283 . S
O386 Eu369 2.363 . S
O387 C361 1.283 . S
O387 Eu369 2.363 . S
O388 C356 1.283 . S
O388 Eu375 2.363 . S
O389 C354 1.283 . S
O389 Eu375 2.363 . S
O390 C357 1.283 . S
O390 Eu362 2.363 . S
O391 C355 1.283 . S
O391 Eu362 2.363 . S
O392 C351 1.283 . S
O392 Eu370 2.363 . S
O393 C353 1.283 . S
O393 Eu370 2.363 . S
O394 C350 1.283 . S
O394 Eu369 2.363 . S
O395 C352 1.283 . S
O395 Eu369 2.363 . S
O396 C361 1.283 . S
O396 Eu365 2.363 . S
O397 C359 1.283 . S
O397 Eu365 2.363 . S
O398 C360 1.283 . S
O398 Eu366 2.363 . S
O399 C358 1.283 . S
O399 Eu366 2.363 . S
C400 O426 1.283 . S
C400 O444 1.283 . S
C401 O427 1.283 . S
C401 O442 1.283 . S
C402 O428 1.283 . S
C402 O445 1.283 . S
C403 O429 1.283 . S
C403 O443 1.283 . S
C404 O430 1.283 . S
C404 O439 1.283 1_455 S
C405 O431 1.283 . S
C405 O441 1.283 1_455 S
C406 O432 1.283 . S
C406 O438 1.283 . S
C407 O433 1.283 . S
C407 O440 1.283 . S
C408 O434 1.283 . S
C408 O449 1.283 . S
C409 O435 1.283 1_455 S
C409 O447 1.283 . S
C410 O436 1.283 . S
C410 O448 1.283 . S
C411 O437 1.283 1_455 S
C411 O446 1.283 . S
Eu412 O413 2.370 . S
Eu412 O414 2.370 . S
Eu412 O417 2.370 . S
Eu412 O418 2.370 . S
Eu412 O426 2.363 . S
Eu412 O427 2.363 . S
Eu412 O440 2.363 . S
Eu412 O441 2.363 . S
O413 Eu412 2.370 . S
O413 Eu415 2.370 1_655 S
O413 Eu420 2.370 . S
O414 Eu412 2.370 . S
O414 Eu416 2.370 . S
O414 Eu419 2.370 . S
Eu415 O413 2.370 1_455 S
Eu415 O417 2.370 1_455 S
Eu415 O421 2.370 1_455 S
Eu415 O422 2.370 1_455 S
Eu415 O430 2.363 . S
Eu415 O431 2.363 . S
Eu415 O446 2.363 . S
Eu415 O447 2.363 . S
Eu416 O414 2.370 . S
Eu416 O418 2.370 . S
Eu416 O423 2.370 . S
Eu416 O424 2.370 . S
Eu416 O432 2.363 . S
Eu416 O433 2.363 . S
Eu416 O448 2.363 . S
Eu416 O449 2.363 . S
O417 Eu412 2.370 . S
O417 Eu415 2.370 1_655 S
O417 Eu419 2.370 . S
O418 Eu412 2.370 . S
O418 Eu416 2.370 . S
O418 Eu420 2.370 . S
Eu419 O414 2.370 . S
Eu419 O417 2.370 . S
Eu419 O421 2.370 . S
Eu419 O424 2.370 . S
Eu419 O436 2.363 . S
Eu419 O437 2.363 . S
Eu419 O444 2.363 . S
Eu419 O445 2.363 . S
Eu420 O413 2.370 . S
Eu420 O418 2.370 . S
Eu420 O422 2.370 . S
Eu420 O423 2.370 . S
Eu420 O434 2.363 . S
Eu420 O435 2.363 . S
Eu420 O442 2.363 . S
Eu420 O443 2.363 . S
O421 Eu415 2.370 1_655 S
O421 Eu419 2.370 . S
O421 Eu425 2.370 . S
O422 Eu415 2.370 1_655 S
O422 Eu420 2.370 . S
O422 Eu425 2.370 . S
O423 Eu416 2.370 . S
O423 Eu420 2.370 . S
O423 Eu425 2.370 . S
O424 Eu416 2.370 . S
O424 Eu419 2.370 . S
O424 Eu425 2.370 . S
Eu425 O421 2.370 . S
Eu425 O422 2.370 . S
Eu425 O423 2.370 . S
Eu425 O424 2.370 . S
Eu425 O428 2.363 . S
Eu425 O429 2.363 . S
Eu425 O438 2.363 . S
Eu425 O439 2.363 . S
O426 C400 1.283 . S
O426 Eu412 2.363 . S
O427 C401 1.283 . S
O427 Eu412 2.363 . S
O428 C402 1.283 . S
O428 Eu425 2.363 . S
O429 C403 1.283 . S
O429 Eu425 2.363 . S
O430 C404 1.283 . S
O430 Eu415 2.363 . S
O431 C405 1.283 . S
O431 Eu415 2.363 . S
O432 C406 1.283 . S
O432 Eu416 2.363 . S
O433 C407 1.283 . S
O433 Eu416 2.363 . S
O434 C408 1.283 . S
O434 Eu420 2.363 . S
O435 C409 1.283 1_655 S
O435 Eu420 2.363 . S
O436 C410 1.283 . S
O436 Eu419 2.363 . S
O437 C411 1.283 1_655 S
O437 Eu419 2.363 . S
O438 C406 1.283 . S
O438 Eu425 2.363 . S
O439 C404 1.283 1_655 S
O439 Eu425 2.363 . S
O440 C407 1.283 . S
O440 Eu412 2.363 . S
O441 C405 1.283 1_655 S
O441 Eu412 2.363 . S
O442 C401 1.283 . S
O442 Eu420 2.363 . S
O443 C403 1.283 . S
O443 Eu420 2.363 . S
O444 C400 1.283 . S
O444 Eu419 2.363 . S
O445 C402 1.283 . S
O445 Eu419 2.363 . S
O446 C411 1.283 . S
O446 Eu415 2.363 . S
O447 C409 1.283 . S
O447 Eu415 2.363 . S
O448 C410 1.283 . S
O448 Eu416 2.363 . S
O449 C408 1.283 . S
O449 Eu416 2.363 . S
C450 O476 1.283 . S
C450 O494 1.283 . S
C451 O477 1.283 1_545 S
C451 O492 1.283 . S
C452 O478 1.283 . S
C452 O495 1.283 . S
C453 O479 1.283 1_545 S
C453 O493 1.283 . S
C454 O480 1.283 . S
C454 O489 1.283 . S
C455 O481 1.283 . S
C455 O491 1.283 . S
C456 O482 1.283 . S
C456 O488 1.283 . S
C457 O483 1.283 . S
C457 O490 1.283 . S
C458 O484 1.283 . S
C458 O499 1.283 1_545 S
C459 O485 1.283 . S
C459 O497 1.283 1_545 S
C460 O486 1.283 . S
C460 O498 1.283 . S
C461 O487 1.283 . S
C461 O496 1.283 . S
Eu462 O463 2.370 . S
Eu462 O464 2.370 . S
Eu462 O467 2.370 . S
Eu462 O468 2.370 . S
Eu462 O476 2.363 . S
Eu462 O477 2.363 . S
Eu462 O490 2.363 . S
Eu462 O491 2.363 . S
O463 Eu462 2.370 . S
O463 Eu465 2.370 . S
O463 Eu470 2.370 1_565 S
O464 Eu462 2.370 . S
O464 Eu466 2.370 . S
O464 Eu469 2.370 . S
Eu465 O463 2.370 . S
Eu465 O467 2.370 . S
Eu465 O471 2.370 . S
Eu465 O472 2.370 . S
Eu465 O480 2.363 . S
Eu465 O481 2.363 . S
Eu465 O496 2.363 . S
Eu465 O497 2.363 . S
Eu466 O464 2.370 . S
Eu466 O468 2.370 . S
Eu466 O473 2.370 . S
Eu466 O474 2.370 . S
Eu466 O482 2.363 . S
Eu466 O483 2.363 . S
Eu466 O498 2.363 . S
Eu466 O499 2.363 . S
O467 Eu462 2.370 . S
O467 Eu465 2.370 . S
O467 Eu469 2.370 . S
O468 Eu462 2.370 . S
O468 Eu466 2.370 . S
O468 Eu470 2.370 1_565 S
Eu469 O464 2.370 . S
Eu469 O467 2.370 . S
Eu469 O471 2.370 . S
Eu469 O474 2.370 . S
Eu469 O486 2.363 . S
Eu469 O487 2.363 . S
Eu469 O494 2.363 . S
Eu469 O495 2.363 . S
Eu470 O463 2.370 1_545 S
Eu470 O468 2.370 1_545 S
Eu470 O472 2.370 1_545 S
Eu470 O473 2.370 1_545 S
Eu470 O484 2.363 . S
Eu470 O485 2.363 . S
Eu470 O492 2.363 . S
Eu470 O493 2.363 . S
O471 Eu465 2.370 . S
O471 Eu469 2.370 . S
O471 Eu475 2.370 . S
O472 Eu465 2.370 . S
O472 Eu470 2.370 1_565 S
O472 Eu475 2.370 . S
O473 Eu466 2.370 . S
O473 Eu470 2.370 1_565 S
O473 Eu475 2.370 . S
O474 Eu466 2.370 . S
O474 Eu469 2.370 . S
O474 Eu475 2.370 . S
Eu475 O471 2.370 . S
Eu475 O472 2.370 . S
Eu475 O473 2.370 . S
Eu475 O474 2.370 . S
Eu475 O478 2.363 . S
Eu475 O479 2.363 . S
Eu475 O488 2.363 . S
Eu475 O489 2.363 . S
O476 C450 1.283 . S
O476 Eu462 2.363 . S
O477 C451 1.283 1_565 S
O477 Eu462 2.363 . S
O478 C452 1.283 . S
O478 Eu475 2.363 . S
O479 C453 1.283 1_565 S
O479 Eu475 2.363 . S
O480 C454 1.283 . S
O480 Eu465 2.363 . S
O481 C455 1.283 . S
O481 Eu465 2.363 . S
O482 C456 1.283 . S
O482 Eu466 2.363 . S
O483 C457 1.283 . S
O483 Eu466 2.363 . S
O484 C458 1.283 . S
O484 Eu470 2.363 . S
O485 C459 1.283 . S
O485 Eu470 2.363 . S
O486 C460 1.283 . S
O486 Eu469 2.363 . S
O487 C461 1.283 . S
O487 Eu469 2.363 . S
O488 C456 1.283 . S
O488 Eu475 2.363 . S
O489 C454 1.283 . S
O489 Eu475 2.363 . S
O490 C457 1.283 . S
O490 Eu462 2.363 . S
O491 C455 1.283 . S
O491 Eu462 2.363 . S
O492 C451 1.283 . S
O492 Eu470 2.363 . S
O493 C453 1.283 . S
O493 Eu470 2.363 . S
O494 C450 1.283 . S
O494 Eu469 2.363 . S
O495 C452 1.283 . S
O495 Eu469 2.363 . S
O496 C461 1.283 . S
O496 Eu465 2.363 . S
O497 C459 1.283 1_565 S
O497 Eu465 2.363 . S
O498 C460 1.283 . S
O498 Eu466 2.363 . S
O499 C458 1.283 1_565 S
O499 Eu466 2.363 . S
C500 O526 1.283 1_655 S
C500 O544 1.283 . S
C501 O527 1.283 . S
C501 O542 1.283 . S
C502 O528 1.283 1_655 S
C502 O545 1.283 . S
C503 O529 1.283 . S
C503 O543 1.283 . S
C504 O530 1.283 . S
C504 O539 1.283 . S
C505 O531 1.283 . S
C505 O541 1.283 . S
C506 O532 1.283 . S
C506 O538 1.283 . S
C507 O533 1.283 . S
C507 O540 1.283 . S
C508 O534 1.283 . S
C508 O549 1.283 . S
C509 O535 1.283 . S
C509 O547 1.283 . S
C510 O536 1.283 . S
C510 O548 1.283 1_655 S
C511 O537 1.283 . S
C511 O546 1.283 1_655 S
Eu512 O513 2.370 1_545 S
Eu512 O514 2.370 . S
Eu512 O517 2.370 1_545 S
Eu512 O518 2.370 . S
Eu512 O526 2.363 . S
Eu512 O527 2.363 . S
Eu512 O540 2.363 . S
Eu512 O541 2.363 1_545 S
O513 Eu512 2.370 1_565 S
O513 Eu515 2.370 . S
O513 Eu520 2.370 1_565 S
O514 Eu512 2.370 . S
O514 Eu516 2.370 . S
O514 Eu519 2.370 1_455 S
Eu515 O513 2.370 . S
Eu515 O517 2.370 . S
Eu515 O521 2.370 . S
Eu515 O522 2.370 . S
Eu515 O530 2.363 . S
Eu515 O531 2.363 . S
Eu515 O546 2.363 . S
Eu515 O547 2.363 . S
Eu516 O514 2.370 . S
Eu516 O518 2.370 . S
Eu516 O523 2.370 . S
Eu516 O524 2.370 . S
Eu516 O532 2.363 . S
Eu516 O533 2.363 . S
Eu516 O548 2.363 . S
Eu516 O549 2.363 . S
O517 Eu512 2.370 1_565 S
O517 Eu515 2.370 . S
O517 Eu519 2.370 1_465 S
O518 Eu512 2.370 . S
O518 Eu516 2.370 . S
O518 Eu520 2.370 . S
Eu519 O514 2.370 1_655 S
Eu519 O517 2.370 1_645 S
Eu519 O521 2.370 1_645 S
Eu519 O524 2.370 1_655 S
Eu519 O536 2.363 . S
Eu519 O537 2.363 1_545 S
Eu519 O544 2.363 . S
Eu519 O545 2.363 1_545 S
Eu520 O513 2.370 1_545 S
Eu520 O518 2.370 . S
Eu520 O522 2.370 1_545 S
Eu520 O523 2.370 . S
Eu520 O534 2.363 . S
Eu520 O535 2.363 1_545 S
Eu520 O542 2.363 . S
Eu520 O543 2.363 1_545 S
O521 Eu515 2.370 . S
O521 Eu519 2.370 1_465 S
O521 Eu525 2.370 . S
O522 Eu515 2.370 . S
O522 Eu520 2.370 1_565 S
O522 Eu525 2.370 . S
O523 Eu516 2.370 . S
O523 Eu520 2.370 . S
O523 Eu525 2.370 1_545 S
O524 Eu516 2.370 . S
O524 Eu519 2.370 1_455 S
O524 Eu525 2.370 1_545 S
Eu525 O521 2.370 . S
Eu525 O522 2.370 . S
Eu525 O523 2.370 1_565 S
Eu525 O524 2.370 1_565 S
Eu525 O528 2.363 . S
Eu525 O529 2.363 . S
Eu525 O538 2.363 1_565 S
Eu525 O539 2.363 . S
O526 C500 1.283 1_455 S
O526 Eu512 2.363 . S
O527 C501 1.283 . S
O527 Eu512 2.363 . S
O528 C502 1.283 1_455 S
O528 Eu525 2.363 . S
O529 C503 1.283 . S
O529 Eu525 2.363 . S
O530 C504 1.283 . S
O530 Eu515 2.363 . S
O531 C505 1.283 . S
O531 Eu515 2.363 . S
O532 C506 1.283 . S
O532 Eu516 2.363 . S
O533 C507 1.283 . S
O533 Eu516 2.363 . S
O534 C508 1.283 . S
O534 Eu520 2.363 . S
O535 C509 1.283 . S
O535 Eu520 2.363 1_565 S
O536 C510 1.283 . S
O536 Eu519 2.363 . S
O537 C511 1.283 . S
O537 Eu519 2.363 1_565 S
O538 C506 1.283 . S
O538 Eu525 2.363 1_545 S
O539 C504 1.283 . S
O539 Eu525 2.363 . S
O540 C507 1.283 . S
O540 Eu512 2.363 . S
O541 C505 1.283 . S
O541 Eu512 2.363 1_565 S
O542 C501 1.283 . S
O542 Eu520 2.363 . S
O543 C503 1.283 . S
O543 Eu520 2.363 1_565 S
O544 C500 1.283 . S
O544 Eu519 2.363 . S
O545 C502 1.283 . S
O545 Eu519 2.363 1_565 S
O546 C511 1.283 1_455 S
O546 Eu515 2.363 . S
O547 C509 1.283 . S
O547 Eu515 2.363 . S
O548 C510 1.283 1_455 S
O548 Eu516 2.363 . S
O549 C508 1.283 . S
O549 Eu516 2.363 . S
C550 O576 1.283 . S
C550 O594 1.283 . S
C551 O577 1.283 . S
C551 O592 1.283 . S
C552 O578 1.283 . S
C552 O595 1.283 . S
C553 O579 1.283 . S
C553 O593 1.283 . S
C554 O580 1.283 . S
C554 O589 1.283 . S
C555 O581 1.283 . S
C555 O591 1.283 . S
C556 O582 1.283 . S
C556 O588 1.283 . S
C557 O583 1.283 . S
C557 O590 1.283 . S
C558 O584 1.283 . S
C558 O599 1.283 . S
C559 O585 1.283 . S
C559 O597 1.283 . S
C560 O586 1.283 . S
C560 O598 1.283 . S
C561 O587 1.283 . S
C561 O596 1.283 . S
Eu562 O563 2.370 . S
Eu562 O564 2.370 . S
Eu562 O567 2.370 . S
Eu562 O568 2.370 . S
Eu562 O576 2.363 . S
Eu562 O577 2.363 . S
Eu562 O590 2.363 . S
Eu562 O591 2.363 . S
O563 Eu562 2.370 . S
O563 Eu565 2.370 . S
O563 Eu570 2.370 . S
O564 Eu562 2.370 . S
O564 Eu566 2.370 . S
O564 Eu569 2.370 . S
Eu565 O563 2.370 . S
Eu565 O567 2.370 . S
Eu565 O571 2.370 . S
Eu565 O572 2.370 . S
Eu565 O580 2.363 . S
Eu565 O581 2.363 . S
Eu565 O596 2.363 . S
Eu565 O597 2.363 . S
Eu566 O564 2.370 . S
Eu566 O568 2.370 . S
Eu566 O573 2.370 . S
Eu566 O574 2.370 . S
Eu566 O582 2.363 . S
Eu566 O583 2.363 . S
Eu566 O598 2.363 . S
Eu566 O599 2.363 . S
O567 Eu562 2.370 . S
O567 Eu565 2.370 . S
O567 Eu569 2.370 . S
O568 Eu562 2.370 . S
O568 Eu566 2.370 . S
O568 Eu570 2.370 . S
Eu569 O564 2.370 . S
Eu569 O567 2.370 . S
Eu569 O571 2.370 . S
Eu569 O574 2.370 . S
Eu569 O586 2.363 . S
Eu569 O587 2.363 . S
Eu569 O594 2.363 . S
Eu569 O595 2.363 . S
Eu570 O563 2.370 . S
Eu570 O568 2.370 . S
Eu570 O572 2.370 . S
Eu570 O573 2.370 . S
Eu570 O584 2.363 . S
Eu570 O585 2.363 . S
Eu570 O592 2.363 . S
Eu570 O593 2.363 . S
O571 Eu565 2.370 . S
O571 Eu569 2.370 . S
O571 Eu575 2.370 . S
O572 Eu565 2.370 . S
O572 Eu570 2.370 . S
O572 Eu575 2.370 . S
O573 Eu566 2.370 . S
O573 Eu570 2.370 . S
O573 Eu575 2.370 . S
O574 Eu566 2.370 . S
O574 Eu569 2.370 . S
O574 Eu575 2.370 . S
Eu575 O571 2.370 . S
Eu575 O572 2.370 . S
Eu575 O573 2.370 . S
Eu575 O574 2.370 . S
Eu575 O578 2.363 . S
Eu575 O579 2.363 . S
Eu575 O588 2.363 . S
Eu575 O589 2.363 . S
O576 C550 1.283 . S
O576 Eu562 2.363 . S
O577 C551 1.283 . S
O577 Eu562 2.363 . S
O578 C552 1.283 . S
O578 Eu575 2.363 . S
O579 C553 1.283 . S
O579 Eu575 2.363 . S
O580 C554 1.283 . S
O580 Eu565 2.363 . S
O581 C555 1.283 . S
O581 Eu565 2.363 . S
O582 C556 1.283 . S
O582 Eu566 2.363 . S
O583 C557 1.283 . S
O583 Eu566 2.363 . S
O584 C558 1.283 . S
O584 Eu570 2.363 . S
O585 C559 1.283 . S
O585 Eu570 2.363 . S
O586 C560 1.283 . S
O586 Eu569 2.363 . S
O587 C561 1.283 . S
O587 Eu569 2.363 . S
O588 C556 1.283 . S
O588 Eu575 2.363 . S
O589 C554 1.283 . S
O589 Eu575 2.363 . S
O590 C557 1.283 . S
O590 Eu562 2.363 . S
O591 C555 1.283 . S
O591 Eu562 2.363 . S
O592 C551 1.283 . S
O592 Eu570 2.363 . S
O593 C553 1.283 . S
O593 Eu570 2.363 . S
O594 C550 1.283 . S
O594 Eu569 2.363 . S
O595 C552 1.283 . S
O595 Eu569 2.363 . S
O596 C561 1.283 . S
O596 Eu565 2.363 . S
O597 C559 1.283 . S
O597 Eu565 2.363 . S
O598 C560 1.283 . S
O598 Eu566 2.363 . S
O599 C558 1.283 . S
O599 Eu566 2.363 . S
C207 C2 2.204 . S
C255 C59 2.203 . S
C0 C303 2.202 . S
C152 C58 2.203 . S
C350 C110 2.204 . S
C104 C401 2.205 . S
C108 C454 2.203 . S
C505 C105 2.201 . S
C4 C158 2.204 . S
C55 C209 2.205 . S
C252 C7 2.204 . S
C56 C305 2.205 . S
C100 C160 2.202 . S
C208 C102 2.202 . S
C250 C103 2.204 . S
C304 C101 2.201 . S
C200 C153 2.204 . S
C360 C150 2.204 . S
C405 C206 2.203 . S
C257 C452 2.203 . S
C352 C258 2.203 . S
C504 C358 2.204 . S
C404 C351 2.203 . S
C502 C455 2.205 . S
C457 C52 2.203 . S
C9 C506 2.202 . S
C50 C353 2.203 . S
C8 C402 2.205 . S
C300 C560 2.204 . S
C554 C151 2.204 . S
C204 C558 2.204 . S
C256 C555 2.203 . S
C408 C54 2.203 . S
C5 C459 2.203 . S
C509 C57 2.203 . S
C355 C6 2.204 . S
C550 C410 2.203 . S
C552 C458 2.203 . S
C508 C553 2.204 . S
C354 C551 2.203 . S
C450 C403 2.203 . S
C310 C400 2.203 . S
C155 C456 2.205 . S
C507 C202 2.202 . S
C302 C500 2.201 . S
C254 C308 2.204 . S
C301 C154 2.202 . S
C259 C205 2.204 . S
C106 C10 4.208 . S
C53 C109 4.210 1_554 S
C11 C107 4.208 1_545 S
C51 C111 4.206 1_554 S
C157 C503 4.208 . S
C203 C359 4.210 . S
C406 C260 4.208 . S
C311 C451 4.210 1_565 S
C156 C501 4.208 1_554 S
C361 C201 4.206 . S
C261 C407 4.208 1_554 S
C309 C453 4.206 1_565 S
C307 C211 4.208 . S
C460 C356 4.208 . S
C411 C510 4.206 1_455 S
C251 C161 4.210 . S
C461 C357 4.208 1_655 S
C511 C409 4.210 1_655 S
C556 C60 4.208 1_545 S
C3 C559 4.206 . S
C61 C557 4.208 . S
C561 C1 4.210 . S
C210 C306 4.208 1_455 S
C159 C253 4.206 . S
