# Generated by pormake.
# Topology zfu, (5)-cn, num edge types: 1
# Building blocks:
#     Node 0, Type 0, BuildingBlock: XOMCOT_clean_sbu_0, # of connection points: 5
#     Node 1, Type 0, BuildingBlock: XOMCOT_clean_sbu_0, # of connection points: 5
#     Node 2, Type 0, BuildingBlock: XOMCOT_clean_sbu_0, # of connection points: 5
#     Node 3, Type 0, BuildingBlock: XOMCOT_clean_sbu_0, # of connection points: 5
#     Node 4, Type 0, BuildingBlock: XOMCOT_clean_sbu_0, # of connection points: 5
#     Node 5, Type 0, BuildingBlock: XOMCOT_clean_sbu_0, # of connection points: 5
#     Node 6, Type 0, BuildingBlock: XOMCOT_clean_sbu_0, # of connection points: 5
#     Node 7, Type 0, BuildingBlock: XOMCOT_clean_sbu_0, # of connection points: 5
#     Edge 8, Type (0, 0), BuildingBlock: XUDNAN_clean_linker_2, # of connection points: 2
#     Edge 9, Type (0, 0), BuildingBlock: XUDNAN_clean_linker_2, # of connection points: 2
#     Edge 10, Type (0, 0), BuildingBlock: XUDNAN_clean_linker_2, # of connection points: 2
#     Edge 11, Type (0, 0), BuildingBlock: XUDNAN_clean_linker_2, # of connection points: 2
#     Edge 12, Type (0, 0), BuildingBlock: XUDNAN_clean_linker_2, # of connection points: 2
#     Edge 13, Type (0, 0), BuildingBlock: XUDNAN_clean_linker_2, # of connection points: 2
#     Edge 14, Type (0, 0), BuildingBlock: XUDNAN_clean_linker_2, # of connection points: 2
#     Edge 15, Type (0, 0), BuildingBlock: XUDNAN_clean_linker_2, # of connection points: 2
#     Edge 16, Type (0, 0), BuildingBlock: XUDNAN_clean_linker_2, # of connection points: 2
#     Edge 17, Type (0, 0), BuildingBlock: XUDNAN_clean_linker_2, # of connection points: 2
#     Edge 18, Type (0, 0), BuildingBlock: XUDNAN_clean_linker_2, # of connection points: 2
#     Edge 19, Type (0, 0), BuildingBlock: XUDNAN_clean_linker_2, # of connection points: 2
#     Edge 20, Type (0, 0), BuildingBlock: XUDNAN_clean_linker_2, # of connection points: 2
#     Edge 21, Type (0, 0), BuildingBlock: XUDNAN_clean_linker_2, # of connection points: 2
#     Edge 22, Type (0, 0), BuildingBlock: XUDNAN_clean_linker_2, # of connection points: 2
#     Edge 23, Type (0, 0), BuildingBlock: XUDNAN_clean_linker_2, # of connection points: 2
#     Edge 24, Type (0, 0), BuildingBlock: XUDNAN_clean_linker_2, # of connection points: 2
#     Edge 25, Type (0, 0), BuildingBlock: XUDNAN_clean_linker_2, # of connection points: 2
#     Edge 26, Type (0, 0), BuildingBlock: XUDNAN_clean_linker_2, # of connection points: 2
#     Edge 27, Type (0, 0), BuildingBlock: XUDNAN_clean_linker_2, # of connection points: 2
# Relax obj value: 0.175
# Max RMSD: 0.196
# Mean RMSD: 0.196
data_MOF--net-zfu--node1-XOMCOT_clean_sbu_0--edge1-XUDNAN_clean_linker_2
_symmetry_space_group_name_H-M    P1
_symmetry_Int_Tables_number       1
_symmetry_cell_setting            triclinic
loop_
_symmetry_equiv_pos_as_xyz
'x, y, z'
_cell_length_a     40.632623
_cell_length_b     40.735868
_cell_length_c     25.133826
_cell_angle_alpha  89.86516
_cell_angle_beta   89.870497
_cell_angle_gamma 90.5201
loop_
_atom_site_label
_atom_site_type_symbol
_atom_site_fract_x
_atom_site_fract_y
_atom_site_fract_z
_atom_type_partial_charge
Co0 Co 0.46403 0.75962 0.97955 0.0
C1 C 0.51466 0.70805 1.00809 0.0
C2 C 0.5084 0.71656 0.92456 0.0
C3 C 0.5341 0.69546 0.93101 0.0
N4 N 0.49557 0.72418 0.97258 0.0
N5 N 0.53786 0.69009 0.9833 0.0
H6 H 0.51371 0.71095 0.05064 0.0
H7 H 0.50074 0.72718 0.88718 0.0
C8 C 0.43188 0.71414 0.90249 0.0
O9 O 0.43959 0.69017 0.93513 0.0
N10 N 0.43369 0.79568 0.98118 0.0
C11 C 0.41883 0.8104 0.02254 0.0
C12 C 0.39896 0.83499 1.00275 0.0
C13 C 0.42301 0.81138 0.93736 0.0
N14 N 0.40156 0.83535 0.94909 0.0
C15 C 0.44601 0.72545 0.07438 0.0
C16 C 0.38031 0.71545 0.05129 0.0
C17 C 0.39224 0.70598 0.10136 0.0
C18 C 0.4256 0.71098 0.11236 0.0
C19 C 0.40176 0.73007 1.01418 0.0
N20 N 0.43451 0.73409 0.02539 0.0
H21 H 0.47075 0.73135 0.08603 0.0
H22 H 0.3917 0.73932 0.9774 0.0
H23 H 0.42203 0.80362 0.06383 0.0
H24 H 0.43131 0.80564 0.89755 0.0
O25 O 0.4893 0.77913 0.03545 0.0
O26 O 0.49789 0.78913 0.95003 0.0
O27 O 0.44094 0.74359 0.91301 0.0
C28 C 0.50639 0.79433 0.99949 0.0
H29 H 0.54971 0.68574 0.89993 0.0
H30 H 0.3835 0.85103 0.02603 0.0
H31 H 0.35446 0.71278 0.04168 0.0
H32 H 0.43588 0.70431 0.15058 0.0
Co33 Co 0.75721 0.96602 0.23007 0.0
C34 C 0.8063 0.02099 0.25422 0.0
C35 C 0.79731 0.01205 0.17147 0.0
C36 C 0.81729 0.03916 0.17552 0.0
N37 N 0.79044 1.00025 0.22053 0.0
N38 N 0.82294 0.04468 0.22737 0.0
H39 H 0.80454 0.02044 0.29696 0.0
H40 H 0.78717 1.00231 0.13496 0.0
C41 C 0.80718 0.93373 0.15937 0.0
O42 O 0.83084 0.94595 0.18909 0.0
N43 N 0.72343 0.9326 0.23353 0.0
C44 C 0.70785 0.91822 0.27487 0.0
C45 C 0.68325 0.89792 0.2548 0.0
C46 C 0.70828 0.92125 0.18964 0.0
N47 N 0.68374 0.8999 0.20103 0.0
C48 C 0.78785 0.9586 0.33057 0.0
C49 C 0.81071 0.8954 0.31949 0.0
C50 C 0.81762 0.91272 0.36652 0.0
C51 C 0.80526 0.9444 0.37188 0.0
C52 C 0.79313 0.91089 0.27832 0.0
N53 N 0.78329 0.94282 0.28331 0.0
H54 H 0.77729 0.98228 0.33771 0.0
H55 H 0.78703 0.897 0.24309 0.0
H56 H 0.71343 0.92267 0.31631 0.0
H57 H 0.71431 0.9298 0.15 0.0
O58 O 0.73316 0.9926 0.27898 0.0
O59 O 0.72621 0.99435 0.19183 0.0
O60 O 0.77714 0.9405 0.16942 0.0
C61 C 0.71782 1.00501 0.23889 0.0
H62 H 0.82641 0.0542 0.143 0.0
H63 H 0.66623 0.88314 0.27803 0.0
H64 H 0.81894 0.87038 0.31449 0.0
H65 H 0.80845 0.95808 0.40847 0.0
Co66 Co 0.55899 0.25664 0.48288 0.0
C67 C 0.51058 0.31049 0.50253 0.0
C68 C 0.55511 0.3282 0.46628 0.0
C69 C 0.5339 0.35402 0.47138 0.0
N70 N 0.54073 0.30074 0.48602 0.0
N71 N 0.50584 0.3429 0.49392 0.0
H72 H 0.49224 0.29436 0.5199 0.0
H73 H 0.57904 0.32963 0.44771 0.0
C74 C 0.62241 0.26453 0.4244 0.0
O75 O 0.63458 0.2445 0.46023 0.0
N76 N 0.57674 0.21252 0.47621 0.0
C77 C 0.58606 0.19024 0.51289 0.0
C78 C 0.59806 0.16303 0.48702 0.0
C79 C 0.58235 0.19796 0.42879 0.0
N80 N 0.59597 0.168 0.43402 0.0
C81 C 0.58146 0.25347 0.59012 0.0
C82 C 0.6304 0.30071 0.58544 0.0
C83 C 0.62424 0.28466 0.63401 0.0
C84 C 0.59912 0.26106 0.63577 0.0
C85 C 0.61196 0.29226 0.54015 0.0
N86 N 0.58844 0.26794 0.54223 0.0
H87 H 0.56168 0.23591 0.59425 0.0
H88 H 0.6166 0.30575 0.504 0.0
H89 H 0.58488 0.19302 0.55539 0.0
H90 H 0.57708 0.2096 0.39107 0.0
O91 O 0.52366 0.23998 0.52579 0.0
O92 O 0.5219 0.24167 0.43809 0.0
O93 O 0.59196 0.27239 0.42677 0.0
C94 C 0.50764 0.23335 0.48289 0.0
H95 H 0.53834 0.37883 0.45744 0.0
H96 H 0.60852 0.14171 0.5061 0.0
H97 H 0.64919 0.31964 0.58241 0.0
H98 H 0.59233 0.249 0.6727 0.0
Co99 Co 0.26682 0.06234 0.74325 0.0
C100 C 0.21593 1.00923 0.76474 0.0
C101 C 0.19487 0.05579 0.74623 0.0
C102 C 0.16994 0.03333 0.75168 0.0
N103 N 0.22397 0.04116 0.75495 0.0
N104 N 0.18289 1.00372 0.76281 0.0
H105 H 0.23379 0.99018 0.771 0.0
H106 H 0.19151 0.08071 0.73335 0.0
C107 C 0.25239 0.11369 0.66014 0.0
O108 O 0.27334 0.13356 0.68388 0.0
N109 N 0.30943 0.08315 0.72921 0.0
C110 C 0.32946 0.09883 0.76371 0.0
C111 C 0.35468 0.11366 0.73574 0.0
C112 C 0.32385 0.08738 0.68092 0.0
N113 N 0.35089 0.1069 0.6836 0.0
C114 C 0.26591 0.09507 0.84387 0.0
C115 C 0.22237 0.14457 0.82123 0.0
C116 C 0.23398 0.14122 0.87333 0.0
C117 C 0.25644 0.11641 0.88402 0.0
C118 C 0.23252 0.12252 0.78182 0.0
N119 N 0.2542 0.09779 0.79296 0.0
H120 H 0.28295 0.07626 0.85498 0.0
H121 H 0.22141 0.12517 0.74348 0.0
H122 H 0.32587 0.10046 0.80608 0.0
H123 H 0.31318 0.07867 0.64408 0.0
O124 O 0.2868 0.03474 0.79516 0.0
O125 O 0.28366 0.02179 0.71035 0.0
O126 O 0.24726 0.08479 0.67868 0.0
C127 C 0.29381 0.01416 0.7581 0.0
H128 H 0.14423 0.03877 0.74597 0.0
H129 H 0.37381 0.12916 0.7524 0.0
H130 H 0.20454 0.16323 0.8114 0.0
H131 H 0.26652 0.1132 0.92354 0.0
Co132 Co 0.95111 0.75652 0.83582 0.0
C133 C 1.00589 0.80379 0.80741 0.0
C134 C 0.9704 0.82487 0.86027 0.0
C135 C 0.9943 0.84797 0.85002 0.0
N136 N 0.97713 0.79713 0.83307 0.0
N137 N 0.01662 0.83474 0.81711 0.0
H138 H 0.01881 0.78663 0.78229 0.0
H139 H 0.94976 0.82846 0.88659 0.0
C140 C 0.89383 0.77277 0.90365 0.0
O141 O 0.87642 0.75677 0.86794 0.0
N142 N 0.92589 0.71551 0.84221 0.0
C143 C 0.91283 0.69554 0.80488 0.0
C144 C 0.89732 0.66946 0.82974 0.0
C145 C 0.91903 0.70038 0.88912 0.0
N146 N 0.90097 0.67261 0.88283 0.0
C147 C 0.92104 0.76271 0.7332 0.0
C148 C 0.89153 0.82252 0.74949 0.0
C149 C 0.89238 0.80956 0.69793 0.0
C150 C 0.90638 0.77878 0.69044 0.0
C151 C 0.90577 0.80519 0.79165 0.0
N152 N 0.92076 0.7756 0.78347 0.0
H153 H 0.93499 0.74114 0.72416 0.0
H154 H 0.90636 0.8169 0.82995 0.0
H155 H 0.91442 0.69875 0.76252 0.0
H156 H 0.92637 0.71018 0.92731 0.0
O157 O 0.97942 0.73661 0.78513 0.0
O158 O 0.98793 0.73426 0.87168 0.0
O159 O 0.92519 0.77466 0.89842 0.0
C160 C 0.9973 0.72598 0.82373 0.0
H161 H 0.99572 0.87245 0.86665 0.0
H162 H 0.88464 0.64948 0.80993 0.0
H163 H 0.88131 0.84657 0.75673 0.0
H164 H 0.90854 0.76842 0.65092 0.0
Co165 Co 0.761 0.45062 0.09368 0.0
C166 C 0.71007 0.50036 0.06867 0.0
C167 C 0.69321 0.46613 0.12771 0.0
C168 C 0.6697 0.48987 0.12147 0.0
N169 N 0.71872 0.47271 0.09479 0.0
N170 N 0.68045 0.51158 0.08468 0.0
H171 H 0.72538 0.51256 0.0394 0.0
H172 H 0.69192 0.44622 0.15602 0.0
C173 C 0.75204 0.39123 0.16153 0.0
O174 O 0.76852 0.37573 0.12437 0.0
N175 N 0.80372 0.42938 0.09561 0.0
C176 C 0.82263 0.41677 0.05661 0.0
C177 C 0.85025 0.40322 0.07922 0.0
C178 C 0.82084 0.42433 0.14094 0.0
N179 N 0.84894 0.40774 0.13236 0.0
C180 C 0.75412 0.42206 0.99051 0.0
C181 C 0.70263 0.37958 1.01292 0.0
C182 C 0.71498 0.38125 0.96086 0.0
C183 C 0.74081 0.40302 0.94988 0.0
C184 C 0.71635 0.39967 0.05248 0.0
N185 N 0.74293 0.41954 0.04173 0.0
H186 H 0.77316 0.43941 0.97985 0.0
H187 H 0.70493 0.39961 0.09124 0.0
H188 H 0.81728 0.41692 1.01473 0.0
H189 H 0.81192 0.43134 0.17986 0.0
O190 O 0.77774 0.48179 0.04314 0.0
O191 O 0.78159 0.48852 0.12995 0.0
O192 O 0.74641 0.42203 0.15652 0.0
C193 C 0.78772 0.49981 0.08215 0.0
H194 H 0.64721 0.49182 0.14434 0.0
H195 H 0.86973 0.39087 0.058 0.0
H196 H 0.68192 0.3637 0.02253 0.0
H197 H 0.75074 0.4054 0.90998 0.0
Co198 Co 0.06914 0.26703 0.33566 0.0
C199 C 0.01151 0.22131 0.32075 0.0
C200 C 0.05711 0.19599 0.33055 0.0
C201 C 0.03234 0.17307 0.32453 0.0
N202 N 0.04414 0.22631 0.32804 0.0
N203 N 1.00364 0.18901 0.31838 0.0
H204 H 0.99366 0.24065 0.31783 0.0
H205 H 0.08296 0.19088 0.33594 0.0
C206 C 0.11957 0.25062 0.42255 0.0
O207 O 0.1368 0.27743 0.41355 0.0
N208 N 0.09364 0.3077 0.34454 0.0
C209 C 0.11247 0.32364 0.30847 0.0
C210 C 0.12695 0.35036 0.33281 0.0
C211 C 0.09521 0.3261 0.38916 0.0
N212 N 0.11646 0.35158 0.3838 0.0
C213 C 0.08674 0.24297 0.23475 0.0
C214 C 0.1543 0.2419 0.24631 0.0
C215 C 0.14038 0.23479 0.19676 0.0
C216 C 0.10627 0.23483 0.19138 0.0
C217 C 0.13372 0.24996 0.28911 0.0
N218 N 0.10031 0.251 0.28274 0.0
H219 H 0.06038 0.24349 0.22937 0.0
H220 H 0.145 0.25675 0.32596 0.0
H221 H 0.11615 0.31598 0.26775 0.0
H222 H 0.0833 0.31919 0.42615 0.0
O223 O 0.04144 0.28909 0.28622 0.0
O224 O 0.03191 0.28723 0.37296 0.0
O225 O 0.09311 0.24455 0.39656 0.0
C226 C 0.02289 0.29732 0.32576 0.0
H227 H 0.03542 0.14672 0.32364 0.0
H228 H 0.14451 0.36712 0.31466 0.0
H229 H 0.18076 0.2421 0.25146 0.0
H230 H 0.09481 0.22926 0.15352 0.0
Co231 Co 0.2568 0.56466 0.58532 0.0
C232 C 0.30999 0.51895 0.54965 0.0
C233 C 0.32593 0.55079 0.6125 0.0
C234 C 0.35098 0.5297 0.60086 0.0
N235 N 0.30012 0.54444 0.58022 0.0
N236 N 0.34096 0.50954 0.56166 0.0
H237 H 0.29478 0.50707 0.52004 0.0
H238 H 0.32668 0.56882 0.64381 0.0
C239 C 0.27539 0.62755 0.63821 0.0
O240 O 0.25882 0.64279 0.60087 0.0
N241 N 0.21297 0.58382 0.59443 0.0
C242 C 0.18534 0.57637 0.56691 0.0
C243 C 0.1586 0.58985 0.59188 0.0
C244 C 0.20181 0.60016 0.63783 0.0
N245 N 0.16893 0.6049 0.63655 0.0
C246 C 0.24689 0.59603 0.4849 0.0
C247 C 0.30966 0.62136 0.47249 0.0
C248 C 0.28808 0.6218 0.42887 0.0
C249 C 0.2559 0.61027 0.43667 0.0
C250 C 0.29929 0.60746 0.52099 0.0
N251 N 0.26837 0.59419 0.52643 0.0
H252 H 0.22323 0.58441 0.48683 0.0
H253 H 0.31674 0.606 0.5532 0.0
H254 H 0.18394 0.56026 0.53289 0.0
H255 H 0.21703 0.6072 0.6711 0.0
O256 O 0.23876 0.53075 0.54187 0.0
O257 O 0.24167 0.52792 0.62992 0.0
O258 O 0.27521 0.59616 0.64011 0.0
C259 C 0.23308 0.51421 0.58494 0.0
H260 H 0.37424 0.52822 0.62162 0.0
H261 H 0.13322 0.58711 0.57954 0.0
H262 H 0.33484 0.62994 0.46848 0.0
H263 H 0.23803 0.61066 0.40478 0.0
H264 H 0.61531 0.52633 0.09108 0.0
H265 H 0.71068 0.56663 0.04572 0.0
H266 H 0.68453 0.619 0.0225 0.0
H267 H 0.56935 0.5639 0.98899 0.0
H268 H 0.5338 0.5715 0.03004 0.0
H269 H 0.56035 0.53762 0.04509 0.0
H270 H 0.56839 0.56006 0.14064 0.0
H271 H 0.54208 0.59423 0.12567 0.0
H272 H 0.58322 0.6015 0.14988 0.0
H273 H 0.64784 0.66583 0.99937 0.0
H274 H 0.60241 0.70306 0.97477 0.0
H275 H 0.53141 0.63389 0.03914 0.0
C276 C 0.63082 0.54625 0.07695 0.0
C277 C 0.66512 0.54215 0.07022 0.0
C278 C 0.68433 0.56879 0.05055 0.0
C279 C 0.66975 0.59884 0.03781 0.0
C280 C 0.63595 0.60203 0.04529 0.0
C281 C 0.6167 0.57646 0.06432 0.0
C282 C 0.58071 0.58583 0.06655 0.0
C283 C 0.55984 0.56339 0.03051 0.0
C284 C 0.56786 0.58538 0.12412 0.0
C285 C 0.58265 0.62051 0.04487 0.0
C286 C 0.61481 0.62943 0.03319 0.0
C287 C 0.62266 0.65936 1.00919 0.0
C288 C 0.59688 0.68035 0.99556 0.0
C289 C 0.56385 0.67141 1.00638 0.0
C290 C 0.55667 0.64149 0.03225 0.0
H291 H 0.98289 0.12729 0.34541 0.0
H292 H 0.95158 0.21744 0.26894 0.0
H293 H 0.89814 0.19166 0.24822 0.0
H294 H 0.9494 0.07399 0.25127 0.0
H295 H 0.93705 0.04266 0.29819 0.0
H296 H 0.97114 0.06949 0.31328 0.0
H297 H 0.94264 0.08647 0.40122 0.0
H298 H 0.90831 0.05973 0.38622 0.0
H299 H 0.90149 0.10262 0.3994 0.0
H300 H 0.85119 0.15451 0.2259 0.0
H301 H 0.81403 0.10817 0.20335 0.0
H302 H 0.87466 0.04206 0.29471 0.0
C303 C 0.96475 0.14176 0.32472 0.0
C304 C 0.97158 0.17454 0.30909 0.0
C305 C 0.94693 0.19255 0.28224 0.0
C306 C 0.91644 0.17806 0.27015 0.0
C307 C 0.91076 0.14561 0.28549 0.0
C308 C 0.93415 0.12768 0.3124 0.0
C309 C 0.92276 0.09249 0.32092 0.0
C310 C 0.94649 0.06824 0.29431 0.0
C311 C 0.91855 0.08489 0.38049 0.0
C312 C 0.88979 0.0931 0.29288 0.0
C313 C 0.88322 0.12414 0.27328 0.0
C314 C 0.85572 0.1303 0.24196 0.0
C315 C 0.8348 0.10396 0.22934 0.0
C316 C 0.84137 0.07195 0.24817 0.0
C317 C 0.86875 0.06659 0.28134 0.0
H318 H 0.50302 0.40774 0.51633 0.0
H319 H 0.44215 0.32118 0.49172 0.0
H320 H 0.39213 0.35509 0.50146 0.0
H321 H 0.45222 0.44496 0.61498 0.0
H322 H 0.46028 0.48608 0.59143 0.0
H323 H 0.49059 0.45466 0.58212 0.0
H324 H 0.49087 0.46646 0.48068 0.0
H325 H 0.46028 0.49769 0.48963 0.0
H326 H 0.4528 0.46434 0.44411 0.0
H327 H 0.34846 0.39998 0.5125 0.0
H328 H 0.31614 0.44986 0.53275 0.0
H329 H 0.40673 0.50581 0.54895 0.0
C330 C 0.4792 0.39588 0.51266 0.0
C331 C 0.47652 0.36185 0.50292 0.0
C332 C 0.44481 0.34718 0.49955 0.0
C333 C 0.41629 0.36631 0.50454 0.0
C334 C 0.41992 0.4 0.51312 0.0
C335 C 0.45068 0.41449 0.51768 0.0
C336 C 0.44828 0.45088 0.52841 0.0
C337 C 0.46375 0.45964 0.58244 0.0
C338 C 0.46398 0.47102 0.48299 0.0
C339 C 0.41134 0.45475 0.52944 0.0
C340 C 0.39524 0.4253 0.52006 0.0
C341 C 0.3609 0.42312 0.51983 0.0
C342 C 0.34272 0.45159 0.5309 0.0
C343 C 0.35898 0.48164 0.5425 0.0
C344 C 0.39367 0.48314 0.54058 0.0
H345 H 0.02065 0.89478 0.77388 0.0
H346 H 0.07913 0.81216 0.82368 0.0
H347 H 0.13022 0.84534 0.80988 0.0
H348 H 0.07952 0.92654 0.67149 0.0
H349 H 0.06933 0.96847 0.68665 0.0
H350 H 0.03875 0.93649 0.69442 0.0
H351 H 0.03004 0.95409 0.79249 0.0
H352 H 0.06091 0.98569 0.78535 0.0
H353 H 0.06477 0.95522 0.83702 0.0
H354 H 0.17429 0.89157 0.8016 0.0
H355 H 0.20635 0.94311 0.79241 0.0
H356 H 0.11711 0.99324 0.7445 0.0
C357 C 0.04433 0.88348 0.78034 0.0
C358 C 0.04621 0.85102 0.79938 0.0
C359 C 0.07743 0.83691 0.8082 0.0
C360 C 0.10643 0.85566 0.8008 0.0
C361 C 0.10364 0.8882 0.78366 0.0
C362 C 0.07326 0.90163 0.77246 0.0
C363 C 0.07629 0.93734 0.75683 0.0
C364 C 0.06533 0.9425 0.6989 0.0
C365 C 0.05686 0.95936 0.79522 0.0
C366 C 0.11297 0.94246 0.76279 0.0
C367 C 0.12856 0.914 0.77804 0.0
C368 C 0.16228 0.91381 0.78871 0.0
C369 C 0.18036 0.94339 0.78341 0.0
C370 C 0.16473 0.97291 0.76758 0.0
C371 C 0.13051 0.97181 0.75686 0.0
H372 H 0.33132 0.67166 0.39913 0.0
H373 H 0.27099 0.59268 0.33474 0.0
H374 H 0.28789 0.60819 0.2442 0.0
H375 H 0.31809 0.73031 0.29271 0.0
H376 H 0.35995 0.74536 0.29305 0.0
H377 H 0.34172 0.72942 0.35332 0.0
H378 H 0.38941 0.688 0.36273 0.0
H379 H 0.40785 0.70393 0.30268 0.0
H380 H 0.39851 0.66072 0.30837 0.0
H381 H 0.31192 0.63129 0.16017 0.0
H382 H 0.34477 0.65835 0.08929 0.0
H383 H 0.39061 0.72119 0.2076 0.0
C384 C 0.32167 0.65762 0.36605 0.0
C385 C 0.2992 0.63137 0.37437 0.0
C386 C 0.28736 0.61357 0.32968 0.0
C387 C 0.29698 0.62203 0.2779 0.0
C388 C 0.31876 0.6482 0.27109 0.0
C389 C 0.33121 0.6656 0.31386 0.0
C390 C 0.35541 0.69178 0.29545 0.0
C391 C 0.34304 0.72626 0.30947 0.0
C392 C 0.38983 0.68573 0.31869 0.0
C393 C 0.35481 0.68606 0.23586 0.0
C394 C 0.33326 0.66104 0.22258 0.0
C395 C 0.32884 0.65101 0.17001 0.0
C396 C 0.34743 0.66661 0.13 0.0
C397 C 0.37032 0.69172 0.14291 0.0
C398 C 0.37356 0.7018 0.19653 0.0
H399 H 0.81009 0.85227 0.41607 0.0
H400 H 0.86779 0.9424 0.41926 0.0
H401 H 0.89272 0.92554 0.50409 0.0
H402 H 0.7924 0.84823 0.5521 0.0
H403 H 0.79673 0.80444 0.55926 0.0
H404 H 0.78511 0.82163 0.49603 0.0
H405 H 0.83443 0.79332 0.45031 0.0
H406 H 0.84584 0.77546 0.51323 0.0
H407 H 0.87535 0.79968 0.47614 0.0
H408 H 0.90627 0.90287 0.59281 0.0
H409 H 0.9149 0.87086 0.67505 0.0
H410 H 0.85146 0.79343 0.61429 0.0
C411 C 0.8287 0.8679 0.43391 0.0
C412 C 0.83686 0.89877 0.41128 0.0
C413 C 0.86097 0.91882 0.4362 0.0
C414 C 0.87525 0.90948 0.48442 0.0
C415 C 0.86559 0.87973 0.50702 0.0
C416 C 0.84354 0.85878 0.48218 0.0
C417 C 0.83721 0.82841 0.51605 0.0
C418 C 0.80069 0.82553 0.53178 0.0
C419 C 0.84892 0.79738 0.48721 0.0
C420 C 0.85859 0.83605 0.56404 0.0
C421 C 0.87448 0.86594 0.55801 0.0
C422 C 0.89433 0.8792 0.59779 0.0
C423 C 0.89879 0.86105 0.64457 0.0
C424 C 0.88374 0.82984 0.65103 0.0
C425 C 0.86327 0.81725 0.61024 0.0
H426 H 0.69384 0.40199 0.86327 0.0
H427 H 0.70516 0.31484 0.96065 0.0
H428 H 0.68626 0.28037 0.88536 0.0
H429 H 0.61954 0.37484 0.79713 0.0
H430 H 0.63055 0.39369 0.73454 0.0
H431 H 0.64538 0.41105 0.79588 0.0
H432 H 0.70526 0.40683 0.76102 0.0
H433 H 0.69063 0.38901 0.69984 0.0
H434 H 0.72057 0.36764 0.73945 0.0
H435 H 0.6684 0.25559 0.79868 0.0
H436 H 0.64583 0.24211 0.71044 0.0
H437 H 0.64325 0.34584 0.67062 0.0
C438 C 0.69227 0.37563 0.86864 0.0
C439 C 0.70105 0.36091 0.91752 0.0
C440 C 0.69834 0.32647 0.92353 0.0
C441 C 0.68792 0.30677 0.88092 0.0
C442 C 0.68 0.32201 0.83291 0.0
C443 C 0.68151 0.35569 0.8268 0.0
C444 C 0.67038 0.366 0.77175 0.0
C445 C 0.63963 0.38767 0.77504 0.0
C446 C 0.69839 0.3834 0.74123 0.0
C447 C 0.66243 0.33282 0.74769 0.0
C448 C 0.66855 0.30779 0.78349 0.0
C449 C 0.66319 0.275 0.77054 0.0
C450 C 0.65027 0.26762 0.72032 0.0
C451 C 0.64235 0.29292 0.68371 0.0
C452 C 0.64925 0.32591 0.69738 0.0
H453 H 0.21515 0.12134 0.97265 0.0
H454 H 0.22512 0.2081 0.8733 0.0
H455 H 0.20629 0.24252 0.94848 0.0
H456 H 0.14222 0.14532 0.03913 0.0
H457 H 0.15389 0.12754 0.10197 0.0
H458 H 0.16925 0.11048 0.0409 0.0
H459 H 0.22903 0.11811 0.07487 0.0
H460 H 0.21383 0.13552 0.13592 0.0
H461 H 0.24298 0.1582 0.09568 0.0
H462 H 0.18502 0.26696 0.03434 0.0
H463 H 0.1594 0.27895 0.12177 0.0
H464 H 0.16425 0.17606 0.16418 0.0
C465 C 0.21379 0.14765 0.96683 0.0
C466 C 0.2219 0.16215 0.91733 0.0
C467 C 0.21893 0.19653 0.91088 0.0
C468 C 0.20853 0.21624 0.95344 0.0
C469 C 0.20117 0.20111 1.00196 0.0
C470 C 0.20346 0.16754 1.00865 0.0
C471 C 0.19275 0.15699 0.06385 0.0
C472 C 0.16275 0.13372 0.06128 0.0
C473 C 0.22136 0.14128 0.09437 0.0
C474 C 0.18376 0.18986 0.08728 0.0
C475 C 0.18904 0.21507 0.05116 0.0
C476 C 0.18116 0.24748 0.06309 0.0
C477 C 0.16685 0.2541 0.11273 0.0
C478 C 0.16072 0.22846 0.14953 0.0
C479 C 0.16961 0.19608 0.13697 0.0
H480 H 0.31328 0.60454 0.72082 0.0
H481 H 0.28472 0.69421 0.64009 0.0
H482 H 0.32222 0.72604 0.69774 0.0
H483 H 0.3206 0.63951 0.85261 0.0
H484 H 0.35577 0.61506 0.86984 0.0
H485 H 0.3259 0.59959 0.82314 0.0
H486 H 0.37222 0.59108 0.75356 0.0
H487 H 0.40219 0.60675 0.79993 0.0
H488 H 0.39833 0.62527 0.73506 0.0
H489 H 0.36417 0.74806 0.76277 0.0
H490 H 0.40518 0.75874 0.83317 0.0
H491 H 0.40662 0.65464 0.87068 0.0
C492 C 0.31474 0.63088 0.71534 0.0
C493 C 0.29603 0.64681 0.67572 0.0
C494 C 0.2987 0.68138 0.67016 0.0
C495 C 0.32004 0.69971 0.70263 0.0
C496 C 0.33857 0.68316 0.74058 0.0
C497 C 0.33597 0.64955 0.74733 0.0
C498 C 0.35875 0.63769 0.79081 0.0
C499 C 0.33908 0.62205 0.83682 0.0
C500 C 0.38439 0.61379 0.76849 0.0
C501 C 0.37461 0.66987 0.80741 0.0
C502 C 0.3627 0.69581 0.77789 0.0
C503 C 0.37365 0.72793 0.78616 0.0
C504 C 0.39706 0.73374 0.82615 0.0
C505 C 0.40924 0.70756 0.85747 0.0
C506 C 0.39794 0.67522 0.84742 0.0
H507 H 0.868 0.91459 0.12117 0.0
H508 H 0.76311 0.89519 0.10581 0.0
H509 H 0.77464 0.85071 0.04273 0.0
H510 H 0.88798 0.90004 0.98247 0.0
H511 H 0.92682 0.88093 0.99674 0.0
H512 H 0.91059 0.91131 0.0414 0.0
H513 H 0.91454 0.86992 0.11946 0.0
H514 H 0.93053 0.8393 0.07494 0.0
H515 H 0.89432 0.83049 0.11419 0.0
H516 H 0.79678 0.80778 0.98332 0.0
H517 H 0.82807 0.77168 0.92411 0.0
H518 H 0.9192 0.81862 0.97461 0.0
C519 C 0.84747 0.90107 0.10434 0.0
C520 C 0.81461 0.90849 0.11863 0.0
C521 C 0.78847 0.8902 0.09553 0.0
C522 C 0.79476 0.8647 0.05978 0.0
C523 C 0.82732 0.85778 0.0471 0.0
C524 C 0.85329 0.87558 0.06806 0.0
C525 C 0.88592 0.86335 0.04643 0.0
C526 C 0.90388 0.89053 1.01488 0.0
C527 C 0.9076 0.84997 0.09145 0.0
C528 C 0.87413 0.83595 1.01009 0.0
C529 C 0.84023 0.8331 1.01161 0.0
C530 C 0.82334 0.80983 0.98159 0.0
C531 C 0.84144 0.78936 0.94807 0.0
C532 C 0.87617 0.7923 0.94435 0.0
C533 C 0.89273 0.81565 0.97656 0.0
H534 H 0.69259 0.39825 0.21486 0.0
H535 H 0.7806 0.33889 0.20766 0.0
H536 H 0.75677 0.30082 0.27389 0.0
H537 H 0.6756 0.38604 0.35815 0.0
H538 H 0.63167 0.38359 0.34898 0.0
H539 H 0.65655 0.40794 0.30412 0.0
H540 H 0.63278 0.37546 0.22436 0.0
H541 H 0.60812 0.35075 0.26898 0.0
H542 H 0.63611 0.33136 0.22331 0.0
H543 H 0.72334 0.26777 0.33656 0.0
H544 H 0.68259 0.24211 0.39629 0.0
H545 H 0.61433 0.32101 0.36332 0.0
C546 C 0.70707 0.37768 0.22828 0.0
C547 C 0.73862 0.37166 0.20648 0.0
C548 C 0.75647 0.34399 0.22394 0.0
C549 C 0.74313 0.3222 0.26151 0.0
C550 C 0.71171 0.32821 0.28116 0.0
C551 C 0.69386 0.35529 0.26558 0.0
C552 C 0.66 0.35489 0.29164 0.0
C553 C 0.65571 0.3849 0.32788 0.0
C554 C 0.63264 0.353 0.24955 0.0
C555 C 0.66169 0.32331 0.32391 0.0
C556 C 0.69188 0.30851 0.31718 0.0
C557 C 0.69966 0.27918 0.34243 0.0
C558 C 0.67626 0.26477 0.3763 0.0
C559 C 0.64522 0.2795 0.38473 0.0
C560 C 0.63774 0.30904 0.35755 0.0
H561 H 0.17557 0.25531 0.48236 0.0
H562 H 0.09561 0.18832 0.44272 0.0
H563 H 0.12182 0.14502 0.49673 0.0
H564 H 0.24008 0.19681 0.47659 0.0
H565 H 0.26247 0.21415 0.53177 0.0
H566 H 0.23703 0.24 0.49107 0.0
H567 H 0.20474 0.25872 0.57457 0.0
H568 H 0.23034 0.23325 0.6156 0.0
H569 H 0.18623 0.22828 0.61769 0.0
H570 H 0.15785 0.10865 0.55428 0.0
H571 H 0.19856 0.08359 0.61462 0.0
H572 H 0.25462 0.17485 0.61489 0.0
C573 C 0.16335 0.23163 0.48517 0.0
C574 C 0.13349 0.22526 0.45818 0.0
C575 C 0.11844 0.19386 0.46309 0.0
C576 C 0.13322 0.16906 0.49351 0.0
C577 C 0.16298 0.17606 0.51878 0.0
C578 C 0.17771 0.20669 0.5152 0.0
C579 C 0.20957 0.20815 0.54618 0.0
C580 C 0.23902 0.21519 0.50918 0.0
C581 C 0.20758 0.2336 0.59118 0.0
C582 C 0.21054 0.17353 0.56792 0.0
C583 C 0.18356 0.1553 0.55158 0.0
C584 C 0.17907 0.12271 0.56727 0.0
C585 C 0.20242 0.10865 0.60136 0.0
C586 C 0.22986 0.12721 0.61948 0.0
C587 C 0.23403 0.15992 0.60173 0.0
H588 H 0.38087 0.89758 0.96685 0.0
H589 H 0.38576 0.82199 0.84601 0.0
H590 H 0.35992 0.85949 0.78121 0.0
H591 H 0.30214 0.9295 0.92894 0.0
H592 H 0.31369 0.97137 0.94333 0.0
H593 H 0.33251 0.93823 0.97928 0.0
H594 H 0.39023 0.95981 0.95097 0.0
H595 H 0.37153 0.99287 0.91464 0.0
H596 H 0.39937 0.96549 0.88131 0.0
H597 H 0.33237 0.90683 0.72904 0.0
H598 H 0.30584 0.95824 0.69743 0.0
H599 H 0.32067 1.00089 0.85369 0.0
C600 C 0.37625 0.88875 0.92697 0.0
C601 C 0.38547 0.85685 0.91166 0.0
C602 C 0.37935 0.84649 0.85863 0.0
C603 C 0.36453 0.86759 0.82152 0.0
C604 C 0.356 0.89906 0.83787 0.0
C605 C 0.36168 0.90948 0.88948 0.0
C606 C 0.35049 0.94434 0.8975 0.0
C607 C 0.32308 0.94594 0.93975 0.0
C608 C 0.37965 0.96695 0.91194 0.0
C609 C 0.33749 0.95193 0.84258 0.0
C610 C 0.34074 0.92573 0.80837 0.0
C611 C 0.3298 0.92752 0.75561 0.0
C612 C 0.31488 0.95677 0.73785 0.0
C613 C 0.31114 0.9836 0.77292 0.0
C614 C 0.32299 0.98091 0.82561 0.0
H615 H 0.51705 0.81931 0.09776 0.0
H616 H 0.56062 0.81398 0.94036 0.0
H617 H 0.61125 0.84112 0.97496 0.0
H618 H 0.5523 0.89877 0.1351 0.0
H619 H 0.55771 0.88646 0.20343 0.0
H620 H 0.52471 0.86898 0.16469 0.0
H621 H 0.54597 0.81068 0.18631 0.0
H622 H 0.57934 0.82794 0.22438 0.0
H623 H 0.58787 0.80034 0.17023 0.0
H624 H 0.6586 0.86488 0.02982 0.0
H625 H 0.6968 0.8872 0.09683 0.0
H626 H 0.62095 0.87751 0.21786 0.0
C627 C 0.53703 0.82425 0.07019 0.0
C628 C 0.53494 0.8146 0.01625 0.0
C629 C 0.56162 0.82148 0.98164 0.0
C630 C 0.59048 0.83667 1.0011 0.0
C631 C 0.59199 0.84498 0.05504 0.0
C632 C 0.56572 0.83937 0.08883 0.0
C633 C 0.57349 0.84982 0.14529 0.0
C634 C 0.5507 0.87767 0.16316 0.0
C635 C 0.57155 0.82044 0.1838 0.0
C636 C 0.60856 0.86187 0.13848 0.0
C637 C 0.61882 0.85887 0.08619 0.0
C638 C 0.65057 0.86775 0.07062 0.0
C639 C 0.67209 0.88055 0.10912 0.0
C640 C 0.66188 0.88461 0.16281 0.0
C641 C 0.62969 0.8747 0.17746 0.0
H642 H 0.67748 1.00698 0.32357 0.0
H643 H 0.70278 0.06008 0.1795 0.0
H644 H 0.66872 0.10692 0.21 0.0
H645 H 0.59203 0.03896 0.33888 0.0
H646 H 0.59603 0.04003 0.41027 0.0
H647 H 0.61761 1.00948 0.37231 0.0
H648 H 0.67253 0.02859 0.41489 0.0
H649 H 0.65135 0.0595 0.45222 0.0
H650 H 0.68504 0.07103 0.4091 0.0
H651 H 0.63874 0.15086 0.26434 0.0
H652 H 0.61377 0.18598 0.33299 0.0
H653 H 0.60761 0.10238 0.44 0.0
C654 C 0.67503 0.02808 0.29761 0.0
C655 C 0.69247 0.02997 0.24905 0.0
C656 C 0.68909 0.05803 0.21639 0.0
C657 C 0.66997 0.08474 0.23364 0.0
C658 C 0.65413 0.08256 0.28308 0.0
C659 C 0.65606 0.05457 0.31403 0.0
C660 C 0.63917 0.05885 0.36724 0.0
C661 C 0.60944 0.03544 0.37246 0.0
C662 C 0.66348 0.05423 0.41355 0.0
C663 C 0.62838 0.09412 0.36262 0.0
C664 C 0.63688 0.10741 0.31373 0.0
C665 C 0.63136 0.1404 0.3022 0.0
C666 C 0.61701 0.16019 0.34159 0.0
C667 C 0.60838 0.14705 0.3922 0.0
C668 C 0.61386 0.11339 0.40208 0.0
H669 H 0.46165 0.24568 0.55638 0.0
H670 H 0.48402 0.17994 0.4266 0.0
H671 H 0.44026 0.14154 0.45855 0.0
H672 H 0.4564 0.18808 0.65059 0.0
H673 H 0.42376 0.20623 0.68891 0.0
H674 H 0.45008 0.23183 0.64868 0.0
H675 H 0.39977 0.25488 0.59824 0.0
H676 H 0.37299 0.23004 0.63944 0.0
H677 H 0.3707 0.22695 0.56802 0.0
H678 H 0.39971 0.10633 0.51555 0.0
H679 H 0.36684 0.07995 0.58782 0.0
H680 H 0.37469 0.16904 0.68068 0.0
C681 C 0.45623 0.22397 0.53306 0.0
C682 C 0.47564 0.21609 0.48833 0.0
C683 C 0.46869 0.18691 0.45993 0.0
C684 C 0.44411 0.16484 0.47828 0.0
C685 C 0.42669 0.17255 0.52472 0.0
C686 C 0.43222 0.20186 0.55105 0.0
C687 C 0.41373 0.20318 0.60329 0.0
C688 C 0.43741 0.20757 0.6506 0.0
C689 C 0.38775 0.23037 0.60215 0.0
C690 C 0.39781 0.16954 0.60371 0.0
C691 C 0.4049 0.15227 0.55784 0.0
C692 C 0.39378 0.11994 0.55117 0.0
C693 C 0.3752 0.10509 0.59238 0.0
C694 C 0.36855 0.12231 0.64008 0.0
C695 C 0.37975 0.15505 0.64508 0.0
H696 H 0.84657 0.63365 0.87477 0.0
H697 H 0.92347 0.66346 0.98428 0.0
H698 H 0.89988 0.62626 0.05288 0.0
H699 H 0.78082 0.62519 0.97226 0.0
H700 H 0.76319 0.58984 0.93965 0.0
H701 H 0.78492 0.62055 0.90124 0.0
H702 H 0.82372 0.57599 0.86355 0.0
H703 H 0.80188 0.54518 0.90129 0.0
H704 H 0.84577 0.5499 0.90895 0.0
H705 H 0.86852 0.58161 0.10828 0.0
H706 H 0.83475 0.5342 0.14071 0.0
H707 H 0.7797 0.53576 0.99329 0.0
C708 C 0.85862 0.63244 0.91304 0.0
C709 C 0.88705 0.65152 0.92377 0.0
C710 C 0.90153 0.64937 0.975 0.0
C711 C 0.8883 0.62823 1.01429 0.0
C712 C 0.86034 0.60956 1.00204 0.0
C713 C 0.84573 0.61168 0.95249 0.0
C714 C 0.81681 0.58831 0.94776 0.0
C715 C 0.78453 0.60711 0.93976 0.0
C716 C 0.8224 0.56337 0.90275 0.0
C717 C 0.81776 0.57204 1.00183 0.0
C718 C 0.84269 0.58463 0.03319 0.0
C719 C 0.84874 0.57188 0.08406 0.0
C720 C 0.82937 0.54511 0.10242 0.0
C721 C 0.80459 0.53136 0.06964 0.0
C722 C 0.79842 0.54572 0.01945 0.0
H723 H 0.98592 0.28848 0.23885 0.0
H724 H 0.99046 0.34481 0.38466 0.0
H725 H 0.9432 0.37831 0.35335 0.0
H726 H 0.97207 0.3527 0.15337 0.0
H727 H 0.94464 0.33046 0.1099 0.0
H728 H 0.97533 0.30877 0.14711 0.0
H729 H 0.93035 0.27127 0.18919 0.0
H730 H 0.89948 0.29242 0.15125 0.0
H731 H 0.89579 0.28955 0.22259 0.0
H732 H 0.89877 0.40914 0.29918 0.0
H733 H 0.86084 0.43191 0.23178 0.0
H734 H 0.88725 0.35383 0.12323 0.0
C735 C 0.97662 0.30749 0.26479 0.0
C736 C 0.99172 0.3142 0.31411 0.0
C737 C 0.97889 0.33914 0.34697 0.0
C738 C 0.95224 0.35831 0.32929 0.0
C739 C 0.93868 0.35171 0.27919 0.0
C740 C 0.95028 0.32645 0.24797 0.0
C741 C 0.93315 0.3249 0.19475 0.0
C742 C 0.95777 0.32949 0.1486 0.0
C743 C 0.91352 0.29263 0.18914 0.0
C744 C 0.91061 0.35396 0.19969 0.0
C745 C 0.91376 0.36906 0.2487 0.0
C746 C 0.89594 0.39717 0.26105 0.0
C747 C 0.87442 0.40993 0.22248 0.0
C748 C 0.87109 0.39479 0.17195 0.0
C749 C 0.88944 0.36634 0.16098 0.0
H750 H 0.24923 0.4672 0.51592 0.0
H751 H 0.17779 0.49146 0.63709 0.0
H752 H 0.1409 0.44711 0.6037 0.0
H753 H 0.19583 0.45982 0.41624 0.0
H754 H 0.21552 0.42653 0.38184 0.0
H755 H 0.23951 0.45359 0.423 0.0
H756 H 0.26041 0.40456 0.47887 0.0
H757 H 0.23739 0.377 0.4367 0.0
H758 H 0.23119 0.37606 0.50772 0.0
H759 H 0.10822 0.40645 0.54556 0.0
H760 H 0.08494 0.37184 0.47354 0.0
H761 H 0.17823 0.37697 0.38989 0.0
C762 C 0.22656 0.46202 0.53718 0.0
C763 C 0.21659 0.48206 0.5798 0.0
C764 C 0.18626 0.47555 0.60552 0.0
C765 C 0.16506 0.45067 0.58631 0.0
C766 C 0.17486 0.43259 0.5418 0.0
C767 C 0.20531 0.43765 0.51833 0.0
C768 C 0.2089 0.41821 0.46749 0.0
C769 C 0.2153 0.4409 0.41935 0.0
C770 C 0.23608 0.39242 0.47305 0.0
C771 C 0.17526 0.40229 0.46453 0.0
C772 C 0.15601 0.41035 0.50795 0.0
C773 C 0.12336 0.39963 0.51194 0.0
C774 C 0.11029 0.38008 0.4708 0.0
C775 C 0.12966 0.37189 0.42583 0.0
C776 C 0.16259 0.38311 0.42323 0.0
H777 H 0.11081 0.63438 0.61756 0.0
H778 H 0.1806 0.61358 0.74313 0.0
H779 H 0.14446 0.64173 0.80791 0.0
H780 H 0.08836 0.71395 0.66183 0.0
H781 H 0.04597 0.70898 0.64219 0.0
H782 H 0.07773 0.6873 0.60721 0.0
H783 H 0.04759 0.63208 0.62643 0.0
H784 H 0.01578 0.65361 0.66155 0.0
H785 H 0.03772 0.62102 0.69415 0.0
H786 H 0.098 0.67319 0.85956 0.0
H787 H 0.04878 0.7047 0.88888 0.0
H788 H 0.01191 0.70189 0.72708 0.0
C789 C 0.11848 0.63532 0.65872 0.0
C790 C 0.1485 0.6215 0.67507 0.0
C791 C 0.15782 0.62414 0.72934 0.0
C792 C 0.13732 0.63995 0.76655 0.0
C793 C 0.10763 0.65307 0.74888 0.0
C794 C 0.09849 0.65087 0.69599 0.0
C795 C 0.06587 0.667 0.68593 0.0
C796 C 0.06973 0.69603 0.64701 0.0
C797 C 0.04023 0.64193 0.66585 0.0
C798 C 0.05778 0.67861 0.74134 0.0
C799 C 0.08187 0.67058 0.7776 0.0
C800 C 0.07905 0.67951 0.83126 0.0
C801 C 0.05103 0.6973 0.8477 0.0
C802 C 0.02648 0.70588 0.81042 0.0
C803 C 0.03014 0.69598 0.7569 0.0
loop_
_geom_bond_atom_site_label_1
_geom_bond_atom_site_label_2
_geom_bond_distance
_geom_bond_site_symmetry_2
_ccdc_geom_bond_type
Co0 N4 2.148 . S
Co0 N10 2.128 . S
Co0 N20 2.194 1_556 S
Co0 O25 2.351 1_556 S
Co0 O26 2.155 . S
Co0 O27 2.096 . S
C1 N4 1.301 1_554 S
C1 N5 1.328 . S
C1 H6 0.930 . S
C2 C3 1.333 . S
C2 N4 1.317 . S
C2 H7 0.930 . S
C3 C2 1.333 . S
C3 N5 1.350 1_556 S
C3 H29 0.931 . S
N4 Co0 2.148 . S
N4 C1 1.301 1_556 S
N4 C2 1.317 . S
N5 C1 1.328 . S
N5 C3 1.350 1_554 S
H6 C1 0.930 . S
H7 C2 0.930 . S
C8 O9 1.224 . S
C8 O27 1.247 . S
O9 C8 1.224 . S
N10 Co0 2.128 . S
N10 C11 1.355 1_556 S
N10 C13 1.311 . S
C11 N10 1.355 1_554 S
C11 C12 1.363 . S
C11 H23 0.929 . S
C12 C11 1.363 . S
C12 N14 1.375 1_554 S
C12 H30 0.931 . S
C13 N10 1.311 . S
C13 N14 1.347 . S
C13 H24 0.929 . S
N14 C12 1.375 1_556 S
N14 C13 1.347 . S
C15 C18 1.365 . S
C15 N20 1.328 . S
C15 H21 0.929 . S
C16 C17 1.362 . S
C16 C19 1.378 . S
C16 H31 0.929 . S
C17 C16 1.362 . S
C17 C18 1.366 . S
C18 C15 1.365 . S
C18 C17 1.366 . S
C18 H32 0.930 . S
C19 C16 1.378 . S
C19 N20 1.315 . S
C19 H22 0.930 . S
N20 Co0 2.194 1_554 S
N20 C15 1.328 . S
N20 C19 1.315 . S
H21 C15 0.929 . S
H22 C19 0.930 . S
H23 C11 0.929 . S
H24 C13 0.929 . S
O25 Co0 2.351 1_554 S
O25 C28 1.244 . S
O26 Co0 2.155 . S
O26 C28 1.240 1_556 S
O27 Co0 2.096 . S
O27 C8 1.247 . S
C28 O25 1.244 . S
C28 O26 1.240 1_554 S
H29 C3 0.931 . S
H30 C12 0.931 . S
H31 C16 0.929 . S
H32 C18 0.930 . S
Co33 N37 2.148 . S
Co33 N43 2.128 . S
Co33 N53 2.194 . S
Co33 O58 2.351 . S
Co33 O59 2.155 . S
Co33 O60 2.096 . S
C34 N37 1.301 . S
C34 N38 1.328 1_565 S
C34 H39 0.930 . S
C35 C36 1.333 . S
C35 N37 1.317 . S
C35 H40 0.930 . S
C36 C35 1.333 . S
C36 N38 1.350 1_565 S
C36 H62 0.931 . S
N37 Co33 2.148 . S
N37 C34 1.301 . S
N37 C35 1.317 . S
N38 C34 1.328 1_545 S
N38 C36 1.350 1_545 S
H39 C34 0.930 . S
H40 C35 0.930 . S
C41 O42 1.224 . S
C41 O60 1.247 . S
O42 C41 1.224 . S
N43 Co33 2.128 . S
N43 C44 1.355 . S
N43 C46 1.311 . S
C44 N43 1.355 . S
C44 C45 1.363 . S
C44 H56 0.929 . S
C45 C44 1.363 . S
C45 N47 1.375 . S
C45 H63 0.931 . S
C46 N43 1.311 . S
C46 N47 1.347 . S
C46 H57 0.929 . S
N47 C45 1.375 . S
N47 C46 1.347 . S
C48 C51 1.365 . S
C48 N53 1.328 . S
C48 H54 0.929 . S
C49 C50 1.362 . S
C49 C52 1.378 . S
C49 H64 0.929 . S
C50 C49 1.362 . S
C50 C51 1.366 . S
C51 C48 1.365 . S
C51 C50 1.366 . S
C51 H65 0.930 . S
C52 C49 1.378 . S
C52 N53 1.315 . S
C52 H55 0.930 . S
N53 Co33 2.194 . S
N53 C48 1.328 . S
N53 C52 1.315 . S
H54 C48 0.929 . S
H55 C52 0.930 . S
H56 C44 0.929 . S
H57 C46 0.929 . S
O58 Co33 2.351 . S
O58 C61 1.244 . S
O59 Co33 2.155 . S
O59 C61 1.240 . S
O60 Co33 2.096 . S
O60 C41 1.247 . S
C61 O58 1.244 . S
C61 O59 1.240 . S
H62 C36 0.931 . S
H63 C45 0.931 . S
H64 C49 0.929 . S
H65 C51 0.930 . S
Co66 N70 2.148 . S
Co66 N76 2.128 . S
Co66 N86 2.194 . S
Co66 O91 2.351 . S
Co66 O92 2.155 . S
Co66 O93 2.096 . S
C67 N70 1.301 . S
C67 N71 1.328 . S
C67 H72 0.930 . S
C68 C69 1.333 . S
C68 N70 1.317 . S
C68 H73 0.930 . S
C69 C68 1.333 . S
C69 N71 1.350 . S
C69 H95 0.931 . S
N70 Co66 2.148 . S
N70 C67 1.301 . S
N70 C68 1.317 . S
N71 C67 1.328 . S
N71 C69 1.350 . S
H72 C67 0.930 . S
H73 C68 0.930 . S
C74 O75 1.224 . S
C74 O93 1.247 . S
O75 C74 1.224 . S
N76 Co66 2.128 . S
N76 C77 1.355 . S
N76 C79 1.311 . S
C77 N76 1.355 . S
C77 C78 1.363 . S
C77 H89 0.929 . S
C78 C77 1.363 . S
C78 N80 1.375 . S
C78 H96 0.931 . S
C79 N76 1.311 . S
C79 N80 1.347 . S
C79 H90 0.929 . S
N80 C78 1.375 . S
N80 C79 1.347 . S
C81 C84 1.365 . S
C81 N86 1.328 . S
C81 H87 0.929 . S
C82 C83 1.362 . S
C82 C85 1.378 . S
C82 H97 0.929 . S
C83 C82 1.362 . S
C83 C84 1.366 . S
C84 C81 1.365 . S
C84 C83 1.366 . S
C84 H98 0.930 . S
C85 C82 1.378 . S
C85 N86 1.315 . S
C85 H88 0.930 . S
N86 Co66 2.194 . S
N86 C81 1.328 . S
N86 C85 1.315 . S
H87 C81 0.929 . S
H88 C85 0.930 . S
H89 C77 0.929 . S
H90 C79 0.929 . S
O91 Co66 2.351 . S
O91 C94 1.244 . S
O92 Co66 2.155 . S
O92 C94 1.240 . S
O93 Co66 2.096 . S
O93 C74 1.247 . S
C94 O91 1.244 . S
C94 O92 1.240 . S
H95 C69 0.931 . S
H96 C78 0.931 . S
H97 C82 0.929 . S
H98 C84 0.930 . S
Co99 N103 2.148 . S
Co99 N109 2.128 . S
Co99 N119 2.194 . S
Co99 O124 2.351 . S
Co99 O125 2.155 . S
Co99 O126 2.096 . S
C100 N103 1.301 . S
C100 N104 1.328 1_545 S
C100 H105 0.930 . S
C101 C102 1.333 . S
C101 N103 1.317 . S
C101 H106 0.930 . S
C102 C101 1.333 . S
C102 N104 1.350 1_545 S
C102 H128 0.931 . S
N103 Co99 2.148 . S
N103 C100 1.301 . S
N103 C101 1.317 . S
N104 C100 1.328 1_565 S
N104 C102 1.350 1_565 S
H105 C100 0.930 . S
H106 C101 0.930 . S
C107 O108 1.224 . S
C107 O126 1.247 . S
O108 C107 1.224 . S
N109 Co99 2.128 . S
N109 C110 1.355 . S
N109 C112 1.311 . S
C110 N109 1.355 . S
C110 C111 1.363 . S
C110 H122 0.929 . S
C111 C110 1.363 . S
C111 N113 1.375 . S
C111 H129 0.931 . S
C112 N109 1.311 . S
C112 N113 1.347 . S
C112 H123 0.929 . S
N113 C111 1.375 . S
N113 C112 1.347 . S
C114 C117 1.365 . S
C114 N119 1.328 . S
C114 H120 0.929 . S
C115 C116 1.362 . S
C115 C118 1.378 . S
C115 H130 0.929 . S
C116 C115 1.362 . S
C116 C117 1.366 . S
C117 C114 1.365 . S
C117 C116 1.366 . S
C117 H131 0.930 . S
C118 C115 1.378 . S
C118 N119 1.315 . S
C118 H121 0.930 . S
N119 Co99 2.194 . S
N119 C114 1.328 . S
N119 C118 1.315 . S
H120 C114 0.929 . S
H121 C118 0.930 . S
H122 C110 0.929 . S
H123 C112 0.929 . S
O124 Co99 2.351 . S
O124 C127 1.244 . S
O125 Co99 2.155 . S
O125 C127 1.240 . S
O126 Co99 2.096 . S
O126 C107 1.247 . S
C127 O124 1.244 . S
C127 O125 1.240 . S
H128 C102 0.931 . S
H129 C111 0.931 . S
H130 C115 0.929 . S
H131 C117 0.930 . S
Co132 N136 2.148 . S
Co132 N142 2.128 . S
Co132 N152 2.194 . S
Co132 O157 2.351 . S
Co132 O158 2.155 . S
Co132 O159 2.096 . S
C133 N136 1.301 . S
C133 N137 1.328 1_655 S
C133 H138 0.930 . S
C134 C135 1.333 . S
C134 N136 1.317 . S
C134 H139 0.930 . S
C135 C134 1.333 . S
C135 N137 1.350 1_655 S
C135 H161 0.931 . S
N136 Co132 2.148 . S
N136 C133 1.301 . S
N136 C134 1.317 . S
N137 C133 1.328 1_455 S
N137 C135 1.350 1_455 S
H138 C133 0.930 . S
H139 C134 0.930 . S
C140 O141 1.224 . S
C140 O159 1.247 . S
O141 C140 1.224 . S
N142 Co132 2.128 . S
N142 C143 1.355 . S
N142 C145 1.311 . S
C143 N142 1.355 . S
C143 C144 1.363 . S
C143 H155 0.929 . S
C144 C143 1.363 . S
C144 N146 1.375 . S
C144 H162 0.931 . S
C145 N142 1.311 . S
C145 N146 1.347 . S
C145 H156 0.929 . S
N146 C144 1.375 . S
N146 C145 1.347 . S
C147 C150 1.365 . S
C147 N152 1.328 . S
C147 H153 0.929 . S
C148 C149 1.362 . S
C148 C151 1.378 . S
C148 H163 0.929 . S
C149 C148 1.362 . S
C149 C150 1.366 . S
C150 C147 1.365 . S
C150 C149 1.366 . S
C150 H164 0.930 . S
C151 C148 1.378 . S
C151 N152 1.315 . S
C151 H154 0.930 . S
N152 Co132 2.194 . S
N152 C147 1.328 . S
N152 C151 1.315 . S
H153 C147 0.929 . S
H154 C151 0.930 . S
H155 C143 0.929 . S
H156 C145 0.929 . S
O157 Co132 2.351 . S
O157 C160 1.244 . S
O158 Co132 2.155 . S
O158 C160 1.240 . S
O159 Co132 2.096 . S
O159 C140 1.247 . S
C160 O157 1.244 . S
C160 O158 1.240 . S
H161 C135 0.931 . S
H162 C144 0.931 . S
H163 C148 0.929 . S
H164 C150 0.930 . S
Co165 N169 2.148 . S
Co165 N175 2.128 . S
Co165 N185 2.194 1_554 S
Co165 O190 2.351 1_554 S
Co165 O191 2.155 . S
Co165 O192 2.096 . S
C166 N169 1.301 . S
C166 N170 1.328 . S
C166 H171 0.930 1_554 S
C167 C168 1.333 . S
C167 N169 1.317 . S
C167 H172 0.930 . S
C168 C167 1.333 . S
C168 N170 1.350 . S
C168 H194 0.931 . S
N169 Co165 2.148 . S
N169 C166 1.301 . S
N169 C167 1.317 . S
N170 C166 1.328 . S
N170 C168 1.350 . S
H171 C166 0.930 1_556 S
H172 C167 0.930 . S
C173 O174 1.224 . S
C173 O192 1.247 . S
O174 C173 1.224 . S
N175 Co165 2.128 . S
N175 C176 1.355 . S
N175 C178 1.311 . S
C176 N175 1.355 . S
C176 C177 1.363 . S
C176 H188 0.929 1_554 S
C177 C176 1.363 . S
C177 N179 1.375 . S
C177 H195 0.931 . S
C178 N175 1.311 . S
C178 N179 1.347 . S
C178 H189 0.929 . S
N179 C177 1.375 . S
N179 C178 1.347 . S
C180 C183 1.365 . S
C180 N185 1.328 . S
C180 H186 0.929 . S
C181 C182 1.362 . S
C181 C184 1.378 . S
C181 H196 0.929 . S
C182 C181 1.362 . S
C182 C183 1.366 . S
C183 C180 1.365 . S
C183 C182 1.366 . S
C183 H197 0.930 . S
C184 C181 1.378 . S
C184 N185 1.315 . S
C184 H187 0.930 1_556 S
N185 Co165 2.194 1_556 S
N185 C180 1.328 . S
N185 C184 1.315 . S
H186 C180 0.929 . S
H187 C184 0.930 1_554 S
H188 C176 0.929 1_556 S
H189 C178 0.929 . S
O190 Co165 2.351 1_556 S
O190 C193 1.244 1_556 S
O191 Co165 2.155 . S
O191 C193 1.240 . S
O192 Co165 2.096 . S
O192 C173 1.247 . S
C193 O190 1.244 1_554 S
C193 O191 1.240 . S
H194 C168 0.931 . S
H195 C177 0.931 . S
H196 C181 0.929 . S
H197 C183 0.930 . S
Co198 N202 2.148 . S
Co198 N208 2.128 . S
Co198 N218 2.194 . S
Co198 O223 2.351 . S
Co198 O224 2.155 . S
Co198 O225 2.096 . S
C199 N202 1.301 . S
C199 N203 1.328 1_455 S
C199 H204 0.930 . S
C200 C201 1.333 . S
C200 N202 1.317 . S
C200 H205 0.930 . S
C201 C200 1.333 . S
C201 N203 1.350 1_455 S
C201 H227 0.931 . S
N202 Co198 2.148 . S
N202 C199 1.301 . S
N202 C200 1.317 . S
N203 C199 1.328 1_655 S
N203 C201 1.350 1_655 S
H204 C199 0.930 . S
H205 C200 0.930 . S
C206 O207 1.224 . S
C206 O225 1.247 . S
O207 C206 1.224 . S
N208 Co198 2.128 . S
N208 C209 1.355 . S
N208 C211 1.311 . S
C209 N208 1.355 . S
C209 C210 1.363 . S
C209 H221 0.929 . S
C210 C209 1.363 . S
C210 N212 1.375 . S
C210 H228 0.931 . S
C211 N208 1.311 . S
C211 N212 1.347 . S
C211 H222 0.929 . S
N212 C210 1.375 . S
N212 C211 1.347 . S
C213 C216 1.365 . S
C213 N218 1.328 . S
C213 H219 0.929 . S
C214 C215 1.362 . S
C214 C217 1.378 . S
C214 H229 0.929 . S
C215 C214 1.362 . S
C215 C216 1.366 . S
C216 C213 1.365 . S
C216 C215 1.366 . S
C216 H230 0.930 . S
C217 C214 1.378 . S
C217 N218 1.315 . S
C217 H220 0.930 . S
N218 Co198 2.194 . S
N218 C213 1.328 . S
N218 C217 1.315 . S
H219 C213 0.929 . S
H220 C217 0.930 . S
H221 C209 0.929 . S
H222 C211 0.929 . S
O223 Co198 2.351 . S
O223 C226 1.244 . S
O224 Co198 2.155 . S
O224 C226 1.240 . S
O225 Co198 2.096 . S
O225 C206 1.247 . S
C226 O223 1.244 . S
C226 O224 1.240 . S
H227 C201 0.931 . S
H228 C210 0.931 . S
H229 C214 0.929 . S
H230 C216 0.930 . S
Co231 N235 2.148 . S
Co231 N241 2.128 . S
Co231 N251 2.194 . S
Co231 O256 2.351 . S
Co231 O257 2.155 . S
Co231 O258 2.096 . S
C232 N235 1.301 . S
C232 N236 1.328 . S
C232 H237 0.930 . S
C233 C234 1.333 . S
C233 N235 1.317 . S
C233 H238 0.930 . S
C234 C233 1.333 . S
C234 N236 1.350 . S
C234 H260 0.931 . S
N235 Co231 2.148 . S
N235 C232 1.301 . S
N235 C233 1.317 . S
N236 C232 1.328 . S
N236 C234 1.350 . S
H237 C232 0.930 . S
H238 C233 0.930 . S
C239 O240 1.224 . S
C239 O258 1.247 . S
O240 C239 1.224 . S
N241 Co231 2.128 . S
N241 C242 1.355 . S
N241 C244 1.311 . S
C242 N241 1.355 . S
C242 C243 1.363 . S
C242 H254 0.929 . S
C243 C242 1.363 . S
C243 N245 1.375 . S
C243 H261 0.931 . S
C244 N241 1.311 . S
C244 N245 1.347 . S
C244 H255 0.929 . S
N245 C243 1.375 . S
N245 C244 1.347 . S
C246 C249 1.365 . S
C246 N251 1.328 . S
C246 H252 0.929 . S
C247 C248 1.362 . S
C247 C250 1.378 . S
C247 H262 0.929 . S
C248 C247 1.362 . S
C248 C249 1.366 . S
C249 C246 1.365 . S
C249 C248 1.366 . S
C249 H263 0.930 . S
C250 C247 1.378 . S
C250 N251 1.315 . S
C250 H253 0.930 . S
N251 Co231 2.194 . S
N251 C246 1.328 . S
N251 C250 1.315 . S
H252 C246 0.929 . S
H253 C250 0.930 . S
H254 C242 0.929 . S
H255 C244 0.929 . S
O256 Co231 2.351 . S
O256 C259 1.244 . S
O257 Co231 2.155 . S
O257 C259 1.240 . S
O258 Co231 2.096 . S
O258 C239 1.247 . S
C259 O256 1.244 . S
C259 O257 1.240 . S
H260 C234 0.931 . S
H261 C243 0.931 . S
H262 C247 0.929 . S
H263 C249 0.930 . S
H264 C276 0.930 . S
H265 C278 0.930 . S
H266 C279 0.930 . S
H267 C283 0.959 . S
H268 C283 0.959 . S
H269 C283 0.961 . S
H270 C284 0.960 . S
H271 C284 0.961 . S
H272 C284 0.959 . S
H273 C287 0.929 . S
H274 C288 0.931 . S
H275 C290 0.930 . S
C276 H264 0.930 . S
C276 C277 1.399 . S
C276 C281 1.399 . S
C277 C276 1.399 . S
C277 C278 1.376 1_554 S
C278 H265 0.930 . S
C278 C277 1.376 1_556 S
C278 C279 1.388 . S
C279 H266 0.930 . S
C279 C278 1.388 . S
C279 C280 1.390 . S
C280 C279 1.390 . S
C280 C281 1.394 1_556 S
C280 C286 1.465 . S
C281 C276 1.399 . S
C281 C280 1.394 1_554 S
C281 C282 1.516 . S
C282 C281 1.516 . S
C282 C283 1.502 . S
C282 C284 1.561 . S
C282 C285 1.526 . S
C283 H267 0.959 . S
C283 H268 0.959 . S
C283 H269 0.961 . S
C283 C282 1.502 . S
C284 H270 0.960 . S
C284 H271 0.961 . S
C284 H272 0.959 . S
C284 C282 1.561 . S
C285 C282 1.526 . S
C285 C286 1.396 1_554 S
C285 C290 1.390 . S
C286 C280 1.465 . S
C286 C285 1.396 1_556 S
C286 C287 1.399 . S
C287 H273 0.929 . S
C287 C286 1.399 . S
C287 C288 1.385 . S
C288 H274 0.931 . S
C288 C287 1.385 . S
C288 C289 1.389 1_556 S
C289 C288 1.389 1_554 S
C289 C290 1.387 . S
C290 H275 0.930 . S
C290 C285 1.390 . S
C290 C289 1.387 . S
H291 C303 0.930 . S
H292 C305 0.930 . S
H293 C306 0.930 . S
H294 C310 0.959 . S
H295 C310 0.959 . S
H296 C310 0.961 . S
H297 C311 0.960 . S
H298 C311 0.961 . S
H299 C311 0.959 . S
H300 C314 0.929 . S
H301 C315 0.931 . S
H302 C317 0.930 . S
C303 H291 0.930 . S
C303 C304 1.399 . S
C303 C308 1.399 . S
C304 C303 1.399 . S
C304 C305 1.376 . S
C305 H292 0.930 . S
C305 C304 1.376 . S
C305 C306 1.388 . S
C306 H293 0.930 . S
C306 C305 1.388 . S
C306 C307 1.390 . S
C307 C306 1.390 . S
C307 C308 1.394 . S
C307 C313 1.465 . S
C308 C303 1.399 . S
C308 C307 1.394 . S
C308 C309 1.516 . S
C309 C308 1.516 . S
C309 C310 1.502 . S
C309 C311 1.561 . S
C309 C312 1.526 . S
C310 H294 0.959 . S
C310 H295 0.959 . S
C310 H296 0.961 . S
C310 C309 1.502 . S
C311 H297 0.960 . S
C311 H298 0.961 . S
C311 H299 0.959 . S
C311 C309 1.561 . S
C312 C309 1.526 . S
C312 C313 1.396 . S
C312 C317 1.390 . S
C313 C307 1.465 . S
C313 C312 1.396 . S
C313 C314 1.399 . S
C314 H300 0.929 . S
C314 C313 1.399 . S
C314 C315 1.385 . S
C315 H301 0.931 . S
C315 C314 1.385 . S
C315 C316 1.389 . S
C316 C315 1.389 . S
C316 C317 1.387 . S
C317 H302 0.930 . S
C317 C312 1.390 . S
C317 C316 1.387 . S
H318 C330 0.930 . S
H319 C332 0.930 . S
H320 C333 0.930 . S
H321 C337 0.959 . S
H322 C337 0.959 . S
H323 C337 0.961 . S
H324 C338 0.960 . S
H325 C338 0.961 . S
H326 C338 0.959 . S
H327 C341 0.929 . S
H328 C342 0.931 . S
H329 C344 0.930 . S
C330 H318 0.930 . S
C330 C331 1.399 . S
C330 C335 1.399 . S
C331 C330 1.399 . S
C331 C332 1.376 . S
C332 H319 0.930 . S
C332 C331 1.376 . S
C332 C333 1.388 . S
C333 H320 0.930 . S
C333 C332 1.388 . S
C333 C334 1.390 . S
C334 C333 1.390 . S
C334 C335 1.394 . S
C334 C340 1.465 . S
C335 C330 1.399 . S
C335 C334 1.394 . S
C335 C336 1.516 . S
C336 C335 1.516 . S
C336 C337 1.502 . S
C336 C338 1.561 . S
C336 C339 1.526 . S
C337 H321 0.959 . S
C337 H322 0.959 . S
C337 H323 0.961 . S
C337 C336 1.502 . S
C338 H324 0.960 . S
C338 H325 0.961 . S
C338 H326 0.959 . S
C338 C336 1.561 . S
C339 C336 1.526 . S
C339 C340 1.396 . S
C339 C344 1.390 . S
C340 C334 1.465 . S
C340 C339 1.396 . S
C340 C341 1.399 . S
C341 H327 0.929 . S
C341 C340 1.399 . S
C341 C342 1.385 . S
C342 H328 0.931 . S
C342 C341 1.385 . S
C342 C343 1.389 . S
C343 C342 1.389 . S
C343 C344 1.387 . S
C344 H329 0.930 . S
C344 C339 1.390 . S
C344 C343 1.387 . S
H345 C357 0.930 . S
H346 C359 0.930 . S
H347 C360 0.930 . S
H348 C364 0.959 . S
H349 C364 0.959 . S
H350 C364 0.961 . S
H351 C365 0.960 . S
H352 C365 0.961 . S
H353 C365 0.959 . S
H354 C368 0.929 . S
H355 C369 0.931 . S
H356 C371 0.930 . S
C357 H345 0.930 . S
C357 C358 1.399 . S
C357 C362 1.399 . S
C358 C357 1.399 . S
C358 C359 1.376 . S
C359 H346 0.930 . S
C359 C358 1.376 . S
C359 C360 1.388 . S
C360 H347 0.930 . S
C360 C359 1.388 . S
C360 C361 1.390 . S
C361 C360 1.390 . S
C361 C362 1.394 . S
C361 C367 1.465 . S
C362 C357 1.399 . S
C362 C361 1.394 . S
C362 C363 1.516 . S
C363 C362 1.516 . S
C363 C364 1.502 . S
C363 C365 1.561 . S
C363 C366 1.526 . S
C364 H348 0.959 . S
C364 H349 0.959 . S
C364 H350 0.961 . S
C364 C363 1.502 . S
C365 H351 0.960 . S
C365 H352 0.961 . S
C365 H353 0.959 . S
C365 C363 1.561 . S
C366 C363 1.526 . S
C366 C367 1.396 . S
C366 C371 1.390 . S
C367 C361 1.465 . S
C367 C366 1.396 . S
C367 C368 1.399 . S
C368 H354 0.929 . S
C368 C367 1.399 . S
C368 C369 1.385 . S
C369 H355 0.931 . S
C369 C368 1.385 . S
C369 C370 1.389 . S
C370 C369 1.389 . S
C370 C371 1.387 . S
C371 H356 0.930 . S
C371 C366 1.390 . S
C371 C370 1.387 . S
H372 C384 0.930 . S
H373 C386 0.930 . S
H374 C387 0.930 . S
H375 C391 0.959 . S
H376 C391 0.959 . S
H377 C391 0.961 . S
H378 C392 0.960 . S
H379 C392 0.961 . S
H380 C392 0.959 . S
H381 C395 0.929 . S
H382 C396 0.931 . S
H383 C398 0.930 . S
C384 H372 0.930 . S
C384 C385 1.399 . S
C384 C389 1.399 . S
C385 C384 1.399 . S
C385 C386 1.376 . S
C386 H373 0.930 . S
C386 C385 1.376 . S
C386 C387 1.388 . S
C387 H374 0.930 . S
C387 C386 1.388 . S
C387 C388 1.390 . S
C388 C387 1.390 . S
C388 C389 1.394 . S
C388 C394 1.465 . S
C389 C384 1.399 . S
C389 C388 1.394 . S
C389 C390 1.516 . S
C390 C389 1.516 . S
C390 C391 1.502 . S
C390 C392 1.561 . S
C390 C393 1.526 . S
C391 H375 0.959 . S
C391 H376 0.959 . S
C391 H377 0.961 . S
C391 C390 1.502 . S
C392 H378 0.960 . S
C392 H379 0.961 . S
C392 H380 0.959 . S
C392 C390 1.561 . S
C393 C390 1.526 . S
C393 C394 1.396 . S
C393 C398 1.390 . S
C394 C388 1.465 . S
C394 C393 1.396 . S
C394 C395 1.399 . S
C395 H381 0.929 . S
C395 C394 1.399 . S
C395 C396 1.385 . S
C396 H382 0.931 . S
C396 C395 1.385 . S
C396 C397 1.389 . S
C397 C396 1.389 . S
C397 C398 1.387 . S
C398 H383 0.930 . S
C398 C393 1.390 . S
C398 C397 1.387 . S
H399 C411 0.930 . S
H400 C413 0.930 . S
H401 C414 0.930 . S
H402 C418 0.959 . S
H403 C418 0.959 . S
H404 C418 0.961 . S
H405 C419 0.960 . S
H406 C419 0.961 . S
H407 C419 0.959 . S
H408 C422 0.929 . S
H409 C423 0.931 . S
H410 C425 0.930 . S
C411 H399 0.930 . S
C411 C412 1.399 . S
C411 C416 1.399 . S
C412 C411 1.399 . S
C412 C413 1.376 . S
C413 H400 0.930 . S
C413 C412 1.376 . S
C413 C414 1.388 . S
C414 H401 0.930 . S
C414 C413 1.388 . S
C414 C415 1.390 . S
C415 C414 1.390 . S
C415 C416 1.394 . S
C415 C421 1.465 . S
C416 C411 1.399 . S
C416 C415 1.394 . S
C416 C417 1.516 . S
C417 C416 1.516 . S
C417 C418 1.502 . S
C417 C419 1.561 . S
C417 C420 1.526 . S
C418 H402 0.959 . S
C418 H403 0.959 . S
C418 H404 0.961 . S
C418 C417 1.502 . S
C419 H405 0.960 . S
C419 H406 0.961 . S
C419 H407 0.959 . S
C419 C417 1.561 . S
C420 C417 1.526 . S
C420 C421 1.396 . S
C420 C425 1.390 . S
C421 C415 1.465 . S
C421 C420 1.396 . S
C421 C422 1.399 . S
C422 H408 0.929 . S
C422 C421 1.399 . S
C422 C423 1.385 . S
C423 H409 0.931 . S
C423 C422 1.385 . S
C423 C424 1.389 . S
C424 C423 1.389 . S
C424 C425 1.387 . S
C425 H410 0.930 . S
C425 C420 1.390 . S
C425 C424 1.387 . S
H426 C438 0.930 . S
H427 C440 0.930 . S
H428 C441 0.930 . S
H429 C445 0.959 . S
H430 C445 0.959 . S
H431 C445 0.961 . S
H432 C446 0.960 . S
H433 C446 0.961 . S
H434 C446 0.959 . S
H435 C449 0.929 . S
H436 C450 0.931 . S
H437 C452 0.930 . S
C438 H426 0.930 . S
C438 C439 1.399 . S
C438 C443 1.399 . S
C439 C438 1.399 . S
C439 C440 1.376 . S
C440 H427 0.930 . S
C440 C439 1.376 . S
C440 C441 1.388 . S
C441 H428 0.930 . S
C441 C440 1.388 . S
C441 C442 1.390 . S
C442 C441 1.390 . S
C442 C443 1.394 . S
C442 C448 1.465 . S
C443 C438 1.399 . S
C443 C442 1.394 . S
C443 C444 1.516 . S
C444 C443 1.516 . S
C444 C445 1.502 . S
C444 C446 1.561 . S
C444 C447 1.526 . S
C445 H429 0.959 . S
C445 H430 0.959 . S
C445 H431 0.961 . S
C445 C444 1.502 . S
C446 H432 0.960 . S
C446 H433 0.961 . S
C446 H434 0.959 . S
C446 C444 1.561 . S
C447 C444 1.526 . S
C447 C448 1.396 . S
C447 C452 1.390 . S
C448 C442 1.465 . S
C448 C447 1.396 . S
C448 C449 1.399 . S
C449 H435 0.929 . S
C449 C448 1.399 . S
C449 C450 1.385 . S
C450 H436 0.931 . S
C450 C449 1.385 . S
C450 C451 1.389 . S
C451 C450 1.389 . S
C451 C452 1.387 . S
C452 H437 0.930 . S
C452 C447 1.390 . S
C452 C451 1.387 . S
H453 C465 0.930 . S
H454 C467 0.930 . S
H455 C468 0.930 . S
H456 C472 0.959 . S
H457 C472 0.959 . S
H458 C472 0.961 . S
H459 C473 0.960 . S
H460 C473 0.961 . S
H461 C473 0.959 . S
H462 C476 0.929 . S
H463 C477 0.931 . S
H464 C479 0.930 . S
C465 H453 0.930 . S
C465 C466 1.399 . S
C465 C470 1.399 . S
C466 C465 1.399 . S
C466 C467 1.376 . S
C467 H454 0.930 . S
C467 C466 1.376 . S
C467 C468 1.388 . S
C468 H455 0.930 . S
C468 C467 1.388 . S
C468 C469 1.390 . S
C469 C468 1.390 . S
C469 C470 1.394 . S
C469 C475 1.465 1_556 S
C470 C465 1.399 . S
C470 C469 1.394 . S
C470 C471 1.516 1_556 S
C471 C470 1.516 1_554 S
C471 C472 1.502 . S
C471 C473 1.561 . S
C471 C474 1.526 . S
C472 H456 0.959 . S
C472 H457 0.959 . S
C472 H458 0.961 . S
C472 C471 1.502 . S
C473 H459 0.960 . S
C473 H460 0.961 . S
C473 H461 0.959 . S
C473 C471 1.561 . S
C474 C471 1.526 . S
C474 C475 1.396 . S
C474 C479 1.390 . S
C475 C469 1.465 1_554 S
C475 C474 1.396 . S
C475 C476 1.399 . S
C476 H462 0.929 . S
C476 C475 1.399 . S
C476 C477 1.385 . S
C477 H463 0.931 . S
C477 C476 1.385 . S
C477 C478 1.389 . S
C478 C477 1.389 . S
C478 C479 1.387 . S
C479 H464 0.930 . S
C479 C474 1.390 . S
C479 C478 1.387 . S
H480 C492 0.930 . S
H481 C494 0.930 . S
H482 C495 0.930 . S
H483 C499 0.959 . S
H484 C499 0.959 . S
H485 C499 0.961 . S
H486 C500 0.960 . S
H487 C500 0.961 . S
H488 C500 0.959 . S
H489 C503 0.929 . S
H490 C504 0.931 . S
H491 C506 0.930 . S
C492 H480 0.930 . S
C492 C493 1.399 . S
C492 C497 1.399 . S
C493 C492 1.399 . S
C493 C494 1.376 . S
C494 H481 0.930 . S
C494 C493 1.376 . S
C494 C495 1.388 . S
C495 H482 0.930 . S
C495 C494 1.388 . S
C495 C496 1.390 . S
C496 C495 1.390 . S
C496 C497 1.394 . S
C496 C502 1.465 . S
C497 C492 1.399 . S
C497 C496 1.394 . S
C497 C498 1.516 . S
C498 C497 1.516 . S
C498 C499 1.502 . S
C498 C500 1.561 . S
C498 C501 1.526 . S
C499 H483 0.959 . S
C499 H484 0.959 . S
C499 H485 0.961 . S
C499 C498 1.502 . S
C500 H486 0.960 . S
C500 H487 0.961 . S
C500 H488 0.959 . S
C500 C498 1.561 . S
C501 C498 1.526 . S
C501 C502 1.396 . S
C501 C506 1.390 . S
C502 C496 1.465 . S
C502 C501 1.396 . S
C502 C503 1.399 . S
C503 H489 0.929 . S
C503 C502 1.399 . S
C503 C504 1.385 . S
C504 H490 0.931 . S
C504 C503 1.385 . S
C504 C505 1.389 . S
C505 C504 1.389 . S
C505 C506 1.387 . S
C506 H491 0.930 . S
C506 C501 1.390 . S
C506 C505 1.387 . S
H507 C519 0.930 . S
H508 C521 0.930 . S
H509 C522 0.930 . S
H510 C526 0.959 . S
H511 C526 0.959 . S
H512 C526 0.961 . S
H513 C527 0.960 . S
H514 C527 0.961 . S
H515 C527 0.959 1_554 S
H516 C530 0.929 . S
H517 C531 0.931 . S
H518 C533 0.930 . S
C519 H507 0.930 . S
C519 C520 1.399 . S
C519 C524 1.399 . S
C520 C519 1.399 . S
C520 C521 1.376 . S
C521 H508 0.930 . S
C521 C520 1.376 . S
C521 C522 1.388 . S
C522 H509 0.930 . S
C522 C521 1.388 . S
C522 C523 1.390 . S
C523 C522 1.390 . S
C523 C524 1.394 . S
C523 C529 1.465 . S
C524 C519 1.399 . S
C524 C523 1.394 . S
C524 C525 1.516 1_554 S
C525 C524 1.516 1_556 S
C525 C526 1.502 . S
C525 C527 1.561 . S
C525 C528 1.526 . S
C526 H510 0.959 . S
C526 H511 0.959 . S
C526 H512 0.961 . S
C526 C525 1.502 . S
C527 H513 0.960 . S
C527 H514 0.961 . S
C527 H515 0.959 1_556 S
C527 C525 1.561 . S
C528 C525 1.526 . S
C528 C529 1.396 1_556 S
C528 C533 1.390 . S
C529 C523 1.465 . S
C529 C528 1.396 1_554 S
C529 C530 1.399 . S
C530 H516 0.929 . S
C530 C529 1.399 . S
C530 C531 1.385 1_554 S
C531 H517 0.931 . S
C531 C530 1.385 1_556 S
C531 C532 1.389 . S
C532 C531 1.389 . S
C532 C533 1.387 . S
C533 H518 0.930 . S
C533 C528 1.390 . S
C533 C532 1.387 . S
H534 C546 0.930 . S
H535 C548 0.930 . S
H536 C549 0.930 . S
H537 C553 0.959 . S
H538 C553 0.959 . S
H539 C553 0.961 . S
H540 C554 0.960 . S
H541 C554 0.961 . S
H542 C554 0.959 . S
H543 C557 0.929 . S
H544 C558 0.931 . S
H545 C560 0.930 . S
C546 H534 0.930 . S
C546 C547 1.399 . S
C546 C551 1.399 . S
C547 C546 1.399 . S
C547 C548 1.376 . S
C548 H535 0.930 . S
C548 C547 1.376 . S
C548 C549 1.388 . S
C549 H536 0.930 . S
C549 C548 1.388 . S
C549 C550 1.390 . S
C550 C549 1.390 . S
C550 C551 1.394 . S
C550 C556 1.465 . S
C551 C546 1.399 . S
C551 C550 1.394 . S
C551 C552 1.516 . S
C552 C551 1.516 . S
C552 C553 1.502 . S
C552 C554 1.561 . S
C552 C555 1.526 . S
C553 H537 0.959 . S
C553 H538 0.959 . S
C553 H539 0.961 . S
C553 C552 1.502 . S
C554 H540 0.960 . S
C554 H541 0.961 . S
C554 H542 0.959 . S
C554 C552 1.561 . S
C555 C552 1.526 . S
C555 C556 1.396 . S
C555 C560 1.390 . S
C556 C550 1.465 . S
C556 C555 1.396 . S
C556 C557 1.399 . S
C557 H543 0.929 . S
C557 C556 1.399 . S
C557 C558 1.385 . S
C558 H544 0.931 . S
C558 C557 1.385 . S
C558 C559 1.389 . S
C559 C558 1.389 . S
C559 C560 1.387 . S
C560 H545 0.930 . S
C560 C555 1.390 . S
C560 C559 1.387 . S
H561 C573 0.930 . S
H562 C575 0.930 . S
H563 C576 0.930 . S
H564 C580 0.959 . S
H565 C580 0.959 . S
H566 C580 0.961 . S
H567 C581 0.960 . S
H568 C581 0.961 . S
H569 C581 0.959 . S
H570 C584 0.929 . S
H571 C585 0.931 . S
H572 C587 0.930 . S
C573 H561 0.930 . S
C573 C574 1.399 . S
C573 C578 1.399 . S
C574 C573 1.399 . S
C574 C575 1.376 . S
C575 H562 0.930 . S
C575 C574 1.376 . S
C575 C576 1.388 . S
C576 H563 0.930 . S
C576 C575 1.388 . S
C576 C577 1.390 . S
C577 C576 1.390 . S
C577 C578 1.394 . S
C577 C583 1.465 . S
C578 C573 1.399 . S
C578 C577 1.394 . S
C578 C579 1.516 . S
C579 C578 1.516 . S
C579 C580 1.502 . S
C579 C581 1.561 . S
C579 C582 1.526 . S
C580 H564 0.959 . S
C580 H565 0.959 . S
C580 H566 0.961 . S
C580 C579 1.502 . S
C581 H567 0.960 . S
C581 H568 0.961 . S
C581 H569 0.959 . S
C581 C579 1.561 . S
C582 C579 1.526 . S
C582 C583 1.396 . S
C582 C587 1.390 . S
C583 C577 1.465 . S
C583 C582 1.396 . S
C583 C584 1.399 . S
C584 H570 0.929 . S
C584 C583 1.399 . S
C584 C585 1.385 . S
C585 H571 0.931 . S
C585 C584 1.385 . S
C585 C586 1.389 . S
C586 C585 1.389 . S
C586 C587 1.387 . S
C587 H572 0.930 . S
C587 C582 1.390 . S
C587 C586 1.387 . S
H588 C600 0.930 . S
H589 C602 0.930 . S
H590 C603 0.930 . S
H591 C607 0.959 . S
H592 C607 0.959 . S
H593 C607 0.961 . S
H594 C608 0.960 . S
H595 C608 0.961 . S
H596 C608 0.959 . S
H597 C611 0.929 . S
H598 C612 0.931 . S
H599 C614 0.930 . S
C600 H588 0.930 . S
C600 C601 1.399 . S
C600 C605 1.399 . S
C601 C600 1.399 . S
C601 C602 1.376 . S
C602 H589 0.930 . S
C602 C601 1.376 . S
C602 C603 1.388 . S
C603 H590 0.930 . S
C603 C602 1.388 . S
C603 C604 1.390 . S
C604 C603 1.390 . S
C604 C605 1.394 . S
C604 C610 1.465 . S
C605 C600 1.399 . S
C605 C604 1.394 . S
C605 C606 1.516 . S
C606 C605 1.516 . S
C606 C607 1.502 . S
C606 C608 1.561 . S
C606 C609 1.526 . S
C607 H591 0.959 . S
C607 H592 0.959 . S
C607 H593 0.961 . S
C607 C606 1.502 . S
C608 H594 0.960 . S
C608 H595 0.961 . S
C608 H596 0.959 . S
C608 C606 1.561 . S
C609 C606 1.526 . S
C609 C610 1.396 . S
C609 C614 1.390 . S
C610 C604 1.465 . S
C610 C609 1.396 . S
C610 C611 1.399 . S
C611 H597 0.929 . S
C611 C610 1.399 . S
C611 C612 1.385 . S
C612 H598 0.931 . S
C612 C611 1.385 . S
C612 C613 1.389 . S
C613 C612 1.389 . S
C613 C614 1.387 . S
C614 H599 0.930 . S
C614 C609 1.390 . S
C614 C613 1.387 . S
H615 C627 0.930 1_556 S
H616 C629 0.930 . S
H617 C630 0.930 . S
H618 C634 0.959 . S
H619 C634 0.959 . S
H620 C634 0.961 1_556 S
H621 C635 0.960 . S
H622 C635 0.961 . S
H623 C635 0.959 . S
H624 C638 0.929 . S
H625 C639 0.931 . S
H626 C641 0.930 . S
C627 H615 0.930 1_554 S
C627 C628 1.399 . S
C627 C632 1.399 . S
C628 C627 1.399 . S
C628 C629 1.376 . S
C629 H616 0.930 . S
C629 C628 1.376 . S
C629 C630 1.388 . S
C630 H617 0.930 . S
C630 C629 1.388 . S
C630 C631 1.390 . S
C631 C630 1.390 . S
C631 C632 1.394 . S
C631 C637 1.465 . S
C632 C627 1.399 . S
C632 C631 1.394 . S
C632 C633 1.516 . S
C633 C632 1.516 . S
C633 C634 1.502 . S
C633 C635 1.561 . S
C633 C636 1.526 . S
C634 H618 0.959 . S
C634 H619 0.959 . S
C634 H620 0.961 1_554 S
C634 C633 1.502 . S
C635 H621 0.960 . S
C635 H622 0.961 . S
C635 H623 0.959 . S
C635 C633 1.561 . S
C636 C633 1.526 . S
C636 C637 1.396 . S
C636 C641 1.390 . S
C637 C631 1.465 . S
C637 C636 1.396 . S
C637 C638 1.399 . S
C638 H624 0.929 . S
C638 C637 1.399 . S
C638 C639 1.385 . S
C639 H625 0.931 . S
C639 C638 1.385 . S
C639 C640 1.389 . S
C640 C639 1.389 . S
C640 C641 1.387 . S
C641 H626 0.930 . S
C641 C636 1.390 . S
C641 C640 1.387 . S
H642 C654 0.930 . S
H643 C656 0.930 . S
H644 C657 0.930 . S
H645 C661 0.959 . S
H646 C661 0.959 . S
H647 C661 0.961 . S
H648 C662 0.960 . S
H649 C662 0.961 . S
H650 C662 0.959 . S
H651 C665 0.929 . S
H652 C666 0.931 . S
H653 C668 0.930 . S
C654 H642 0.930 . S
C654 C655 1.399 . S
C654 C659 1.399 . S
C655 C654 1.399 . S
C655 C656 1.376 . S
C656 H643 0.930 . S
C656 C655 1.376 . S
C656 C657 1.388 . S
C657 H644 0.930 . S
C657 C656 1.388 . S
C657 C658 1.390 . S
C658 C657 1.390 . S
C658 C659 1.394 . S
C658 C664 1.465 . S
C659 C654 1.399 . S
C659 C658 1.394 . S
C659 C660 1.516 . S
C660 C659 1.516 . S
C660 C661 1.502 . S
C660 C662 1.561 . S
C660 C663 1.526 . S
C661 H645 0.959 . S
C661 H646 0.959 . S
C661 H647 0.961 . S
C661 C660 1.502 . S
C662 H648 0.960 . S
C662 H649 0.961 . S
C662 H650 0.959 . S
C662 C660 1.561 . S
C663 C660 1.526 . S
C663 C664 1.396 . S
C663 C668 1.390 . S
C664 C658 1.465 . S
C664 C663 1.396 . S
C664 C665 1.399 . S
C665 H651 0.929 . S
C665 C664 1.399 . S
C665 C666 1.385 . S
C666 H652 0.931 . S
C666 C665 1.385 . S
C666 C667 1.389 . S
C667 C666 1.389 . S
C667 C668 1.387 . S
C668 H653 0.930 . S
C668 C663 1.390 . S
C668 C667 1.387 . S
H669 C681 0.930 . S
H670 C683 0.930 . S
H671 C684 0.930 . S
H672 C688 0.959 . S
H673 C688 0.959 . S
H674 C688 0.961 . S
H675 C689 0.960 . S
H676 C689 0.961 . S
H677 C689 0.959 . S
H678 C692 0.929 . S
H679 C693 0.931 . S
H680 C695 0.930 . S
C681 H669 0.930 . S
C681 C682 1.399 . S
C681 C686 1.399 . S
C682 C681 1.399 . S
C682 C683 1.376 . S
C683 H670 0.930 . S
C683 C682 1.376 . S
C683 C684 1.388 . S
C684 H671 0.930 . S
C684 C683 1.388 . S
C684 C685 1.390 . S
C685 C684 1.390 . S
C685 C686 1.394 . S
C685 C691 1.465 . S
C686 C681 1.399 . S
C686 C685 1.394 . S
C686 C687 1.516 . S
C687 C686 1.516 . S
C687 C688 1.502 . S
C687 C689 1.561 . S
C687 C690 1.526 . S
C688 H672 0.959 . S
C688 H673 0.959 . S
C688 H674 0.961 . S
C688 C687 1.502 . S
C689 H675 0.960 . S
C689 H676 0.961 . S
C689 H677 0.959 . S
C689 C687 1.561 . S
C690 C687 1.526 . S
C690 C691 1.396 . S
C690 C695 1.390 . S
C691 C685 1.465 . S
C691 C690 1.396 . S
C691 C692 1.399 . S
C692 H678 0.929 . S
C692 C691 1.399 . S
C692 C693 1.385 . S
C693 H679 0.931 . S
C693 C692 1.385 . S
C693 C694 1.389 . S
C694 C693 1.389 . S
C694 C695 1.387 . S
C695 H680 0.930 . S
C695 C690 1.390 . S
C695 C694 1.387 . S
H696 C708 0.930 . S
H697 C710 0.930 . S
H698 C711 0.930 . S
H699 C715 0.959 . S
H700 C715 0.959 . S
H701 C715 0.961 . S
H702 C716 0.960 . S
H703 C716 0.961 . S
H704 C716 0.959 . S
H705 C719 0.929 . S
H706 C720 0.931 . S
H707 C722 0.930 . S
C708 H696 0.930 . S
C708 C709 1.399 . S
C708 C713 1.399 . S
C709 C708 1.399 . S
C709 C710 1.376 . S
C710 H697 0.930 . S
C710 C709 1.376 . S
C710 C711 1.388 . S
C711 H698 0.930 . S
C711 C710 1.388 . S
C711 C712 1.390 . S
C712 C711 1.390 . S
C712 C713 1.394 . S
C712 C718 1.465 . S
C713 C708 1.399 . S
C713 C712 1.394 . S
C713 C714 1.516 . S
C714 C713 1.516 . S
C714 C715 1.502 . S
C714 C716 1.561 . S
C714 C717 1.526 . S
C715 H699 0.959 . S
C715 H700 0.959 . S
C715 H701 0.961 . S
C715 C714 1.502 . S
C716 H702 0.960 . S
C716 H703 0.961 . S
C716 H704 0.959 . S
C716 C714 1.561 . S
C717 C714 1.526 . S
C717 C718 1.396 . S
C717 C722 1.390 . S
C718 C712 1.465 . S
C718 C717 1.396 . S
C718 C719 1.399 1_556 S
C719 H705 0.929 . S
C719 C718 1.399 1_554 S
C719 C720 1.385 . S
C720 H706 0.931 . S
C720 C719 1.385 . S
C720 C721 1.389 . S
C721 C720 1.389 . S
C721 C722 1.387 1_554 S
C722 H707 0.930 . S
C722 C717 1.390 . S
C722 C721 1.387 1_556 S
H723 C735 0.930 . S
H724 C737 0.930 . S
H725 C738 0.930 . S
H726 C742 0.959 . S
H727 C742 0.959 . S
H728 C742 0.961 . S
H729 C743 0.960 . S
H730 C743 0.961 . S
H731 C743 0.959 . S
H732 C746 0.929 . S
H733 C747 0.931 . S
H734 C749 0.930 . S
C735 H723 0.930 . S
C735 C736 1.399 . S
C735 C740 1.399 . S
C736 C735 1.399 . S
C736 C737 1.376 . S
C737 H724 0.930 . S
C737 C736 1.376 . S
C737 C738 1.388 . S
C738 H725 0.930 . S
C738 C737 1.388 . S
C738 C739 1.390 . S
C739 C738 1.390 . S
C739 C740 1.394 . S
C739 C745 1.465 . S
C740 C735 1.399 . S
C740 C739 1.394 . S
C740 C741 1.516 . S
C741 C740 1.516 . S
C741 C742 1.502 . S
C741 C743 1.561 . S
C741 C744 1.526 . S
C742 H726 0.959 . S
C742 H727 0.959 . S
C742 H728 0.961 . S
C742 C741 1.502 . S
C743 H729 0.960 . S
C743 H730 0.961 . S
C743 H731 0.959 . S
C743 C741 1.561 . S
C744 C741 1.526 . S
C744 C745 1.396 . S
C744 C749 1.390 . S
C745 C739 1.465 . S
C745 C744 1.396 . S
C745 C746 1.399 . S
C746 H732 0.929 . S
C746 C745 1.399 . S
C746 C747 1.385 . S
C747 H733 0.931 . S
C747 C746 1.385 . S
C747 C748 1.389 . S
C748 C747 1.389 . S
C748 C749 1.387 . S
C749 H734 0.930 . S
C749 C744 1.390 . S
C749 C748 1.387 . S
H750 C762 0.930 . S
H751 C764 0.930 . S
H752 C765 0.930 . S
H753 C769 0.959 . S
H754 C769 0.959 . S
H755 C769 0.961 . S
H756 C770 0.960 . S
H757 C770 0.961 . S
H758 C770 0.959 . S
H759 C773 0.929 . S
H760 C774 0.931 . S
H761 C776 0.930 . S
C762 H750 0.930 . S
C762 C763 1.399 . S
C762 C767 1.399 . S
C763 C762 1.399 . S
C763 C764 1.376 . S
C764 H751 0.930 . S
C764 C763 1.376 . S
C764 C765 1.388 . S
C765 H752 0.930 . S
C765 C764 1.388 . S
C765 C766 1.390 . S
C766 C765 1.390 . S
C766 C767 1.394 . S
C766 C772 1.465 . S
C767 C762 1.399 . S
C767 C766 1.394 . S
C767 C768 1.516 . S
C768 C767 1.516 . S
C768 C769 1.502 . S
C768 C770 1.561 . S
C768 C771 1.526 . S
C769 H753 0.959 . S
C769 H754 0.959 . S
C769 H755 0.961 . S
C769 C768 1.502 . S
C770 H756 0.960 . S
C770 H757 0.961 . S
C770 H758 0.959 . S
C770 C768 1.561 . S
C771 C768 1.526 . S
C771 C772 1.396 . S
C771 C776 1.390 . S
C772 C766 1.465 . S
C772 C771 1.396 . S
C772 C773 1.399 . S
C773 H759 0.929 . S
C773 C772 1.399 . S
C773 C774 1.385 . S
C774 H760 0.931 . S
C774 C773 1.385 . S
C774 C775 1.389 . S
C775 C774 1.389 . S
C775 C776 1.387 . S
C776 H761 0.930 . S
C776 C771 1.390 . S
C776 C775 1.387 . S
H777 C789 0.930 . S
H778 C791 0.930 . S
H779 C792 0.930 . S
H780 C796 0.959 . S
H781 C796 0.959 . S
H782 C796 0.961 . S
H783 C797 0.960 . S
H784 C797 0.961 . S
H785 C797 0.959 . S
H786 C800 0.929 . S
H787 C801 0.931 . S
H788 C803 0.930 . S
C789 H777 0.930 . S
C789 C790 1.399 . S
C789 C794 1.399 . S
C790 C789 1.399 . S
C790 C791 1.376 . S
C791 H778 0.930 . S
C791 C790 1.376 . S
C791 C792 1.388 . S
C792 H779 0.930 . S
C792 C791 1.388 . S
C792 C793 1.390 . S
C793 C792 1.390 . S
C793 C794 1.394 . S
C793 C799 1.465 . S
C794 C789 1.399 . S
C794 C793 1.394 . S
C794 C795 1.516 . S
C795 C794 1.516 . S
C795 C796 1.502 . S
C795 C797 1.561 . S
C795 C798 1.526 . S
C796 H780 0.959 . S
C796 H781 0.959 . S
C796 H782 0.961 . S
C796 C795 1.502 . S
C797 H783 0.960 . S
C797 H784 0.961 . S
C797 H785 0.959 . S
C797 C795 1.561 . S
C798 C795 1.526 . S
C798 C799 1.396 . S
C798 C803 1.390 . S
C799 C793 1.465 . S
C799 C798 1.396 . S
C799 C800 1.399 . S
C800 H786 0.929 . S
C800 C799 1.399 . S
C800 C801 1.385 . S
C801 H787 0.931 . S
C801 C800 1.385 . S
C801 C802 1.389 . S
C802 C801 1.389 . S
C802 C803 1.387 . S
C803 H788 0.930 . S
C803 C798 1.390 . S
C803 C802 1.387 . S
C277 N170 1.318 . S
C289 N5 1.244 . S
C304 N203 1.316 . S
C316 N38 1.247 . S
C331 N71 1.319 . S
C343 N236 1.243 . S
C358 N137 1.239 . S
C370 N104 1.314 . S
C385 C248 0.811 . S
C397 C17 0.813 . S
C412 C50 0.829 . S
C424 C149 0.811 . S
C439 C182 0.878 . S
C451 C83 0.855 . S
C466 C116 0.876 . S
C478 C215 0.852 . S
C493 C239 1.579 . S
C505 C8 1.553 . S
C520 C41 1.530 . S
C532 C140 1.603 . S
C547 C173 1.554 . S
C559 C74 1.575 . S
C574 C206 1.545 . S
C586 C107 1.597 . S
C601 N14 1.753 . S
C613 C127 1.787 1_565 S
C628 C28 1.739 . S
C640 N47 1.764 . S
C655 C61 1.769 1_545 S
C667 N80 1.779 . S
C682 C94 1.786 . S
C694 N113 1.753 . S
C709 N146 1.740 . S
C721 C193 1.783 . S
C736 C226 1.784 1_655 S
C748 N179 1.762 . S
C763 C259 1.768 . S
C775 N212 1.736 . S
C790 N245 1.735 . S
C802 C160 1.768 1_455 S
