# Generated by pormake.
# Topology una, (4)-cn, num edge types: 1
# Building blocks:
#     Node 0, Type 0, BuildingBlock: ICAMEG_clean_sbu_1, # of connection points: 4
#     Node 1, Type 0, BuildingBlock: ICAMEG_clean_sbu_1, # of connection points: 4
#     Node 2, Type 0, BuildingBlock: ICAMEG_clean_sbu_1, # of connection points: 4
#     Node 3, Type 0, BuildingBlock: ICAMEG_clean_sbu_1, # of connection points: 4
#     Node 4, Type 0, BuildingBlock: ICAMEG_clean_sbu_1, # of connection points: 4
#     Node 5, Type 0, BuildingBlock: ICAMEG_clean_sbu_1, # of connection points: 4
#     Node 6, Type 0, BuildingBlock: ICAMEG_clean_sbu_1, # of connection points: 4
#     Node 7, Type 0, BuildingBlock: ICAMEG_clean_sbu_1, # of connection points: 4
#     Node 8, Type 0, BuildingBlock: ICAMEG_clean_sbu_1, # of connection points: 4
#     Node 9, Type 0, BuildingBlock: ICAMEG_clean_sbu_1, # of connection points: 4
#     Node 10, Type 0, BuildingBlock: ICAMEG_clean_sbu_1, # of connection points: 4
#     Node 11, Type 0, BuildingBlock: ICAMEG_clean_sbu_1, # of connection points: 4
#     Edge 12, Type (0, 0), BuildingBlock: OJICUG_clean_linker_0, # of connection points: 2
#     Edge 13, Type (0, 0), BuildingBlock: OJICUG_clean_linker_0, # of connection points: 2
#     Edge 14, Type (0, 0), BuildingBlock: OJICUG_clean_linker_0, # of connection points: 2
#     Edge 15, Type (0, 0), BuildingBlock: OJICUG_clean_linker_0, # of connection points: 2
#     Edge 16, Type (0, 0), BuildingBlock: OJICUG_clean_linker_0, # of connection points: 2
#     Edge 17, Type (0, 0), BuildingBlock: OJICUG_clean_linker_0, # of connection points: 2
#     Edge 18, Type (0, 0), BuildingBlock: OJICUG_clean_linker_0, # of connection points: 2
#     Edge 19, Type (0, 0), BuildingBlock: OJICUG_clean_linker_0, # of connection points: 2
#     Edge 20, Type (0, 0), BuildingBlock: OJICUG_clean_linker_0, # of connection points: 2
#     Edge 21, Type (0, 0), BuildingBlock: OJICUG_clean_linker_0, # of connection points: 2
#     Edge 22, Type (0, 0), BuildingBlock: OJICUG_clean_linker_0, # of connection points: 2
#     Edge 23, Type (0, 0), BuildingBlock: OJICUG_clean_linker_0, # of connection points: 2
#     Edge 24, Type (0, 0), BuildingBlock: OJICUG_clean_linker_0, # of connection points: 2
#     Edge 25, Type (0, 0), BuildingBlock: OJICUG_clean_linker_0, # of connection points: 2
#     Edge 26, Type (0, 0), BuildingBlock: OJICUG_clean_linker_0, # of connection points: 2
#     Edge 27, Type (0, 0), BuildingBlock: OJICUG_clean_linker_0, # of connection points: 2
#     Edge 28, Type (0, 0), BuildingBlock: OJICUG_clean_linker_0, # of connection points: 2
#     Edge 29, Type (0, 0), BuildingBlock: OJICUG_clean_linker_0, # of connection points: 2
#     Edge 30, Type (0, 0), BuildingBlock: OJICUG_clean_linker_0, # of connection points: 2
#     Edge 31, Type (0, 0), BuildingBlock: OJICUG_clean_linker_0, # of connection points: 2
#     Edge 32, Type (0, 0), BuildingBlock: OJICUG_clean_linker_0, # of connection points: 2
#     Edge 33, Type (0, 0), BuildingBlock: OJICUG_clean_linker_0, # of connection points: 2
#     Edge 34, Type (0, 0), BuildingBlock: OJICUG_clean_linker_0, # of connection points: 2
#     Edge 35, Type (0, 0), BuildingBlock: OJICUG_clean_linker_0, # of connection points: 2
# Relax obj value: 0.056
# Max RMSD: 0.083
# Mean RMSD: 0.083
data_MOF--net-una--node1-ICAMEG_clean_sbu_1--edge1-OJICUG_clean_linker_0
_symmetry_space_group_name_H-M    P1
_symmetry_Int_Tables_number       1
_symmetry_cell_setting            triclinic
loop_
_symmetry_equiv_pos_as_xyz
'x, y, z'
_cell_length_a     47.02137
_cell_length_b     47.034459
_cell_length_c     16.116954
_cell_angle_alpha  89.98035
_cell_angle_beta   90.014078
_cell_angle_gamma 120.0017
loop_
_atom_site_label
_atom_site_type_symbol
_atom_site_fract_x
_atom_site_fract_y
_atom_site_fract_z
_atom_type_partial_charge
Co0 Co 0.18878 0.48801 0.01621 0.0
Co1 Co 0.13205 0.4076 0.0602 0.0
O2 O 0.14308 0.453 0.03488 0.0
C3 C 0.15575 0.52028 0.1069 0.0
O4 O 0.12933 0.49179 0.11993 0.0
C5 C 0.08304 0.40086 0.93233 0.0
O6 O 0.10641 0.42685 0.89503 0.0
O7 O 0.15417 0.40639 0.95617 0.0
O8 O 0.19948 0.45624 0.96039 0.0
H9 H 0.15679 0.31579 0.08815 0.0
H10 H 0.13361 0.49638 0.95351 0.0
O11 O 0.18051 0.52203 0.06972 0.0
H12 H 0.20233 0.51043 0.70896 0.0
H13 H 0.27905 0.60199 0.94232 0.0
H14 H 0.25328 0.49186 0.03649 0.0
H15 H 0.21733 0.49891 0.84616 0.0
H16 H 0.22158 0.55822 0.96208 0.0
O17 O 0.08929 0.3898 0.99783 0.0
H18 H 0.16965 0.3725 0.05919 0.0
H19 H 0.07085 0.34634 0.10962 0.0
H20 H 0.31111 0.53497 0.01762 0.0
H21 H 0.11801 0.50838 0.81781 0.0
H22 H 0.32429 0.59043 0.96972 0.0
H23 H 0.15241 0.5154 0.69407 0.0
O24 O 0.20129 0.47849 0.1261 0.0
H25 H 0.05424 0.42893 0.22658 0.0
H26 H 0.13446 0.39062 0.23793 0.0
H27 H 0.10726 0.39276 0.36651 0.0
H28 H 0.06672 0.41191 0.36136 0.0
H29 H 0.08241 0.42686 0.09962 0.0
H30 H 0.05686 0.28928 0.13839 0.0
H31 H 0.10003 0.27373 0.1281 0.0
O32 O 0.17408 0.42348 0.12541 0.0
C33 C 0.18289 0.4272 0.9313 0.0
C34 C 0.13779 0.32228 0.09309 0.0
C35 C 0.08169 0.3074 0.12119 0.0
N36 N 0.12111 0.36278 0.08334 0.0
C37 C 0.14494 0.35437 0.07697 0.0
C38 C 0.08975 0.33973 0.10463 0.0
C39 C 0.10593 0.29869 0.11543 0.0
C40 C 0.14907 0.49995 0.90061 0.0
N41 N 0.17659 0.49731 0.90845 0.0
C42 C 0.13995 0.5065 0.82358 0.0
C43 C 0.15921 0.51035 0.75414 0.0
C44 C 0.1872 0.50756 0.76244 0.0
C45 C 0.19552 0.50095 0.84041 0.0
C46 C 0.27362 0.57788 0.96294 0.0
C47 C 0.2588 0.51592 0.01549 0.0
C48 C 0.24111 0.553 0.97445 0.0
N49 N 0.23404 0.5224 0.99983 0.0
C50 C 0.2916 0.54024 1.00502 0.0
C51 C 0.29898 0.57138 0.97829 0.0
C52 C 0.19604 0.45105 0.15506 0.0
C53 C 0.07189 0.42057 0.22967 0.0
C54 C 0.1172 0.39941 0.23522 0.0
C55 C 0.1017 0.40036 0.30823 0.0
C56 C 0.07892 0.41105 0.30527 0.0
N57 N 0.11027 0.4089 0.16131 0.0
C58 C 0.08786 0.41927 0.15792 0.0
Co59 Co 0.71286 0.18707 0.18862 0.0
Co60 Co 0.73087 0.12677 0.23163 0.0
O61 O 0.69863 0.14027 0.20403 0.0
C62 C 0.64948 0.15894 0.28194 0.0
O63 O 0.65712 0.13925 0.3212 0.0
C64 C 0.67935 0.07254 0.12299 0.0
O65 O 0.66325 0.08847 0.11509 0.0
O66 O 0.75553 0.14907 0.12905 0.0
O67 O 0.7572 0.19703 0.14636 0.0
H68 H 0.84565 0.14703 0.26747 0.0
H69 H 0.6501 0.13793 0.11059 0.0
O70 O 0.66912 0.17941 0.22893 0.0
H71 H 0.72015 0.2053 0.87969 0.0
H72 H 0.69867 0.28269 0.10729 0.0
H73 H 0.77392 0.2493 0.22788 0.0
H74 H 0.73998 0.21767 0.02365 0.0
H75 H 0.68129 0.22408 0.12332 0.0
O76 O 0.7059 0.08464 0.16517 0.0
H77 H 0.80353 0.16221 0.23698 0.0
H78 H 0.72793 0.0638 0.27797 0.0
H79 H 0.79222 0.30817 0.21328 0.0
H80 H 0.62888 0.12525 0.96734 0.0
H81 H 0.75455 0.3252 0.15214 0.0
H82 H 0.66408 0.15899 0.85054 0.0
O83 O 0.72993 0.19567 0.30357 0.0
H84 H 0.62896 0.05338 0.39726 0.0
H85 H 0.74909 0.12553 0.4081 0.0
H86 H 0.71898 0.09839 0.53572 0.0
H87 H 0.65846 0.06178 0.53084 0.0
H88 H 0.65987 0.08147 0.27175 0.0
H89 H 0.76923 0.04749 0.30806 0.0
H90 H 0.82857 0.0893 0.30331 0.0
O91 O 0.75734 0.16805 0.30055 0.0
C92 C 0.76692 0.17917 0.11098 0.0
C93 C 0.81987 0.12861 0.26997 0.0
C94 C 0.77698 0.07273 0.29263 0.0
N95 N 0.76333 0.11398 0.25625 0.0
C96 C 0.79591 0.13708 0.25297 0.0
C97 C 0.75371 0.0821 0.27527 0.0
C98 C 0.81027 0.09621 0.28999 0.0
C99 C 0.66546 0.15283 0.06018 0.0
N100 N 0.69635 0.17826 0.07557 0.0
C101 C 0.65334 0.14552 0.97916 0.0
C102 C 0.6731 0.16445 0.91366 0.0
C103 C 0.70452 0.19047 0.9299 0.0
C104 C 0.71572 0.19718 0.01167 0.0
C105 C 0.71534 0.27558 0.13383 0.0
C106 C 0.75736 0.25649 0.20126 0.0
C107 C 0.70563 0.24242 0.14319 0.0
N108 N 0.72665 0.23324 0.17599 0.0
C109 C 0.76785 0.28987 0.19327 0.0
C110 C 0.7467 0.29942 0.159 0.0
C111 C 0.75141 0.18945 0.33304 0.0
C112 C 0.65536 0.06906 0.40009 0.0
C113 C 0.72275 0.10979 0.40522 0.0
C114 C 0.70583 0.0944 0.47783 0.0
C115 C 0.6719 0.07385 0.47505 0.0
N116 N 0.70642 0.1048 0.33157 0.0
C117 C 0.67311 0.08486 0.32871 0.0
Co118 Co 0.61689 0.73117 0.39244 0.0
Co119 Co 0.53673 0.70804 0.34897 0.0
O120 O 0.57151 0.69701 0.3667 0.0
C121 C 0.62342 0.68944 0.26326 0.0
O122 O 0.59787 0.68774 0.22565 0.0
C123 C 0.50413 0.6421 0.43668 0.0
O124 O 0.53259 0.64415 0.4501 0.0
O125 O 0.54606 0.72904 0.45996 0.0
O126 O 0.60108 0.75728 0.45816 0.0
H127 H 0.48989 0.78345 0.35682 0.0
H128 H 0.59742 0.66216 0.43104 0.0
O129 O 0.63446 0.70617 0.32958 0.0
H130 H 0.63167 0.7206 0.6985 0.0
H131 H 0.73518 0.77375 0.47015 0.0
H132 H 0.65221 0.80387 0.3924 0.0
H133 H 0.63388 0.7502 0.57032 0.0
H134 H 0.67804 0.7309 0.44123 0.0
O135 O 0.50248 0.66531 0.4002 0.0
H136 H 0.53292 0.76851 0.37372 0.0
H137 H 0.46676 0.67134 0.2928 0.0
H138 H 0.70902 0.84752 0.42153 0.0
H139 H 0.59527 0.63166 0.5576 0.0
H140 H 0.75095 0.83255 0.46074 0.0
H141 H 0.61236 0.66089 0.69266 0.0
O142 O 0.61815 0.75465 0.2887 0.0
H143 H 0.51658 0.61867 0.14506 0.0
H144 H 0.52687 0.72753 0.18005 0.0
H145 H 0.51607 0.70247 0.04119 0.0
H146 H 0.51067 0.64754 0.02293 0.0
H147 H 0.52797 0.64487 0.2825 0.0
H148 H 0.4231 0.6853 0.27472 0.0
H149 H 0.43459 0.74176 0.30647 0.0
O150 O 0.56878 0.75105 0.29567 0.0
C151 C 0.5735 0.75134 0.48865 0.0
C152 C 0.48464 0.75882 0.34237 0.0
C153 C 0.44714 0.70372 0.29644 0.0
N154 N 0.50247 0.71916 0.33372 0.0
C155 C 0.50892 0.75022 0.3517 0.0
C156 C 0.47196 0.69595 0.30695 0.0
C157 C 0.4536 0.7354 0.31424 0.0
C158 C 0.60503 0.67508 0.48948 0.0
N159 N 0.61549 0.70787 0.49324 0.0
C160 C 0.60369 0.65767 0.56099 0.0
C161 C 0.61325 0.67407 0.63675 0.0
C162 C 0.62404 0.70756 0.64009 0.0
C163 C 0.62503 0.72416 0.56731 0.0
C164 C 0.71712 0.78059 0.45328 0.0
C165 C 0.67028 0.79717 0.40987 0.0
C166 C 0.68474 0.75643 0.43664 0.0
N167 N 0.66176 0.76489 0.41576 0.0
C168 C 0.70242 0.82199 0.42609 0.0
C169 C 0.72595 0.81357 0.44801 0.0
C170 C 0.59758 0.76308 0.26527 0.0
C171 C 0.51865 0.64251 0.15228 0.0
C172 C 0.52467 0.70367 0.17284 0.0
C173 C 0.51845 0.68956 0.09393 0.0
C174 C 0.51542 0.65875 0.08375 0.0
N175 N 0.52773 0.68757 0.23995 0.0
C176 C 0.52484 0.65738 0.23029 0.0
Co177 Co 0.83509 0.52963 0.52275 0.0
Co178 Co 0.89406 0.60891 0.5622 0.0
O179 O 0.8816 0.56326 0.53652 0.0
C180 C 0.86899 0.49448 0.59423 0.0
O181 O 0.89715 0.52198 0.59878 0.0
C182 C 0.94893 0.61238 0.45485 0.0
O183 O 0.93347 0.58033 0.44775 0.0
O184 O 0.87136 0.60997 0.45899 0.0
O185 O 0.82415 0.563 0.47807 0.0
H186 H 0.87106 0.7018 0.59242 0.0
H187 H 0.88598 0.51848 0.44078 0.0
O188 O 0.84333 0.49418 0.56709 0.0
H189 H 0.81305 0.51415 0.21579 0.0
H190 H 0.74044 0.41806 0.44916 0.0
H191 H 0.77234 0.5277 0.56017 0.0
H192 H 0.8023 0.5229 0.36002 0.0
H193 H 0.79888 0.46018 0.46329 0.0
O194 O 0.93635 0.62657 0.49611 0.0
H195 H 0.8572 0.64473 0.56438 0.0
H196 H 0.95623 0.67001 0.60742 0.0
H197 H 0.71365 0.48636 0.54671 0.0
H198 H 0.89716 0.50891 0.29767 0.0
H199 H 0.69737 0.43112 0.49057 0.0
H200 H 0.86063 0.50679 0.18356 0.0
O201 O 0.82661 0.53874 0.6371 0.0
H202 H 0.96893 0.58357 0.73168 0.0
H203 H 0.89462 0.62907 0.7377 0.0
H204 H 0.92175 0.62719 0.86651 0.0
H205 H 0.95939 0.60447 0.86411 0.0
H206 H 0.94102 0.5855 0.60484 0.0
H207 H 0.97123 0.72742 0.63508 0.0
H208 H 0.92844 0.7436 0.62806 0.0
O209 O 0.85261 0.59365 0.63072 0.0
C210 C 0.84135 0.59044 0.44146 0.0
C211 C 0.8899 0.69504 0.59589 0.0
C212 C 0.94613 0.70943 0.61971 0.0
N213 N 0.90581 0.654 0.58481 0.0
C214 C 0.88218 0.66275 0.58028 0.0
C215 C 0.93751 0.6769 0.60373 0.0
C216 C 0.92211 0.71848 0.61581 0.0
C217 C 0.86971 0.51724 0.3922 0.0
N218 N 0.84347 0.5212 0.40957 0.0
C219 C 0.87626 0.51194 0.31088 0.0
C220 C 0.85579 0.51079 0.24688 0.0
C221 C 0.82909 0.51487 0.26487 0.0
C222 C 0.82324 0.51999 0.34689 0.0
C223 C 0.74723 0.44207 0.47357 0.0
C224 C 0.76548 0.50375 0.53557 0.0
C225 C 0.78028 0.466 0.48195 0.0
N226 N 0.78905 0.49647 0.51204 0.0
C227 C 0.7322 0.48041 0.52824 0.0
C228 C 0.72307 0.44941 0.49679 0.0
C229 C 0.83198 0.56637 0.66481 0.0
C230 C 0.95269 0.59365 0.73351 0.0
C231 C 0.91078 0.61895 0.7359 0.0
C232 C 0.92617 0.61805 0.80918 0.0
C233 C 0.94729 0.60533 0.8078 0.0
N234 N 0.91629 0.60759 0.66296 0.0
C235 C 0.93686 0.59495 0.66144 0.0
Co236 Co 0.31246 0.8304 0.68838 0.0
Co237 Co 0.29445 0.89073 0.73041 0.0
O238 O 0.32668 0.87722 0.70301 0.0
C239 C 0.37564 0.85856 0.78208 0.0
O240 O 0.36757 0.87777 0.8221 0.0
C241 C 0.34574 0.94476 0.62079 0.0
O242 O 0.3619 0.92887 0.61316 0.0
O243 O 0.26958 0.8681 0.62825 0.0
O244 O 0.26804 0.82028 0.64672 0.0
H245 H 0.17968 0.87034 0.76733 0.0
H246 H 0.37506 0.87936 0.60938 0.0
O247 O 0.35629 0.83828 0.72833 0.0
H248 H 0.30456 0.81153 0.37964 0.0
H249 H 0.3266 0.73472 0.6076 0.0
H250 H 0.25143 0.76819 0.7281 0.0
H251 H 0.28498 0.79949 0.52387 0.0
H252 H 0.34406 0.79334 0.62376 0.0
O253 O 0.31924 0.93269 0.66314 0.0
H254 H 0.22181 0.85519 0.73678 0.0
H255 H 0.29737 0.95378 0.77561 0.0
H256 H 0.23299 0.70932 0.71296 0.0
H257 H 0.39601 0.89174 0.46587 0.0
H258 H 0.27063 0.69224 0.65194 0.0
H259 H 0.36058 0.85777 0.34967 0.0
O260 O 0.2956 0.822 0.80357 0.0
H261 H 0.39672 0.96446 0.89446 0.0
H262 H 0.27658 0.89254 0.90688 0.0
H263 H 0.30696 0.92 0.03394 0.0
H264 H 0.36748 0.95649 0.02826 0.0
H265 H 0.36555 0.93606 0.76953 0.0
H266 H 0.25606 0.97006 0.80573 0.0
H267 H 0.19674 0.92815 0.8021 0.0
O268 O 0.26822 0.84963 0.8002 0.0
C269 C 0.2582 0.83794 0.61087 0.0
C270 C 0.20546 0.88881 0.76933 0.0
C271 C 0.24832 0.94479 0.79076 0.0
N272 N 0.26199 0.90351 0.75495 0.0
C273 C 0.22942 0.88036 0.75229 0.0
C274 C 0.27159 0.93544 0.77338 0.0
C275 C 0.21504 0.92125 0.78875 0.0
C276 C 0.3596 0.86436 0.55923 0.0
N277 N 0.32873 0.83898 0.57509 0.0
C278 C 0.37156 0.87151 0.47806 0.0
C279 C 0.35168 0.85245 0.41289 0.0
C280 C 0.32028 0.82648 0.4296 0.0
C281 C 0.30922 0.81996 0.51152 0.0
C282 C 0.30994 0.74185 0.6341 0.0
C283 C 0.26797 0.76099 0.70145 0.0
C284 C 0.31971 0.77502 0.64359 0.0
N285 N 0.29871 0.78422 0.67633 0.0
C286 C 0.2574 0.7276 0.69316 0.0
C287 C 0.27854 0.71803 0.65898 0.0
C288 C 0.27421 0.82833 0.83306 0.0
C289 C 0.37032 0.94884 0.89763 0.0
C290 C 0.30292 0.90824 0.90364 0.0
C291 C 0.31999 0.92381 0.97594 0.0
C292 C 0.35392 0.94429 0.97271 0.0
N293 N 0.3191 0.913 0.82987 0.0
C294 C 0.35242 0.93287 0.82658 0.0
Co295 Co 0.41201 0.28949 0.89164 0.0
Co296 Co 0.49048 0.30775 0.84986 0.0
O297 O 0.4578 0.32187 0.86488 0.0
C298 C 0.40937 0.34127 0.78376 0.0
O299 O 0.44141 0.35727 0.77584 0.0
C300 C 0.52545 0.37076 0.94443 0.0
O301 O 0.49804 0.36291 0.98353 0.0
O302 O 0.48184 0.29055 0.96468 0.0
O303 O 0.42681 0.26299 0.96064 0.0
H304 H 0.53233 0.22848 0.87438 0.0
H305 H 0.43762 0.36038 0.93275 0.0
O306 O 0.39488 0.31458 0.82534 0.0
H307 H 0.39464 0.30061 0.19556 0.0
H308 H 0.29408 0.2506 0.96628 0.0
H309 H 0.37499 0.21685 0.89606 0.0
H310 H 0.39203 0.27083 0.06766 0.0
H311 H 0.35172 0.2921 0.93725 0.0
O312 O 0.52641 0.35141 0.89074 0.0
H313 H 0.4917 0.2467 0.88886 0.0
H314 H 0.5592 0.33952 0.78551 0.0
H315 H 0.31768 0.17453 0.9255 0.0
H316 H 0.44006 0.39096 0.05854 0.0
H317 H 0.27678 0.19134 0.9609 0.0
H318 H 0.41856 0.36112 0.19155 0.0
O319 O 0.40997 0.26505 0.78879 0.0
H320 H 0.513 0.39202 0.62912 0.0
H321 H 0.49425 0.28086 0.68479 0.0
H322 H 0.50214 0.30098 0.54098 0.0
H323 H 0.51188 0.35705 0.5122 0.0
H324 H 0.50415 0.37056 0.77218 0.0
H325 H 0.60053 0.32224 0.76972 0.0
H326 H 0.58714 0.2663 0.81398 0.0
O327 O 0.45626 0.26348 0.80725 0.0
C328 C 0.45409 0.26901 0.99372 0.0
C329 C 0.53842 0.25288 0.85461 0.0
C330 C 0.5767 0.30551 0.79593 0.0
N331 N 0.52295 0.29406 0.83756 0.0
C332 C 0.51548 0.26332 0.86254 0.0
C333 C 0.5532 0.31517 0.80516 0.0
C334 C 0.56917 0.27412 0.82077 0.0
C335 C 0.42758 0.34699 0.98944 0.0
N336 N 0.41419 0.31368 0.99181 0.0
C337 C 0.42932 0.36455 0.06099 0.0
C338 C 0.41735 0.34783 0.13563 0.0
C339 C 0.40396 0.3139 0.13792 0.0
C340 C 0.40264 0.29717 0.06515 0.0
C341 C 0.31168 0.24297 0.95102 0.0
C342 C 0.35737 0.22435 0.91185 0.0
C343 C 0.34433 0.26635 0.93425 0.0
N344 N 0.36674 0.25689 0.91546 0.0
C345 C 0.32494 0.20028 0.92826 0.0
C346 C 0.30199 0.20973 0.94804 0.0
C347 C 0.42879 0.25373 0.77123 0.0
C348 C 0.5088 0.36755 0.6408 0.0
C349 C 0.49803 0.30513 0.67294 0.0
C350 C 0.50274 0.31649 0.59127 0.0
C351 C 0.50816 0.34792 0.57522 0.0
N352 N 0.49835 0.3244 0.73692 0.0
C353 C 0.50382 0.3553 0.7217 0.0
Co354 Co 0.53597 0.83275 0.9106 0.0
Co355 Co 0.61529 0.89152 0.87042 0.0
O356 O 0.56972 0.87921 0.89734 0.0
C357 C 0.501 0.86664 0.83802 0.0
O358 O 0.52855 0.89473 0.83291 0.0
C359 C 0.621 0.9391 1.00144 0.0
O360 O 0.59495 0.91531 0.0375 0.0
O361 O 0.6169 0.86861 0.97275 0.0
O362 O 0.56921 0.82181 0.95601 0.0
H363 H 0.70866 0.86947 0.83567 0.0
H364 H 0.52515 0.88402 0.9913 0.0
O365 O 0.50065 0.84103 0.86565 0.0
H366 H 0.51974 0.81111 0.2176 0.0
H367 H 0.42424 0.73825 0.98391 0.0
H368 H 0.53409 0.76996 0.87445 0.0
H369 H 0.52909 0.80029 0.07392 0.0
H370 H 0.46635 0.79665 0.96911 0.0
O371 O 0.63241 0.93356 0.9356 0.0
H372 H 0.65161 0.85517 0.86609 0.0
H373 H 0.67585 0.95392 0.82374 0.0
H374 H 0.4928 0.71131 0.88892 0.0
H375 H 0.51457 0.89501 0.13367 0.0
H376 H 0.43744 0.69512 0.94422 0.0
H377 H 0.51199 0.85854 0.24846 0.0
O378 O 0.54514 0.82405 0.79631 0.0
H379 H 0.59061 0.96869 0.71196 0.0
H380 H 0.63293 0.89188 0.69193 0.0
H381 H 0.62983 0.91993 0.56598 0.0
H382 H 0.60864 0.95876 0.57552 0.0
H383 H 0.59382 0.93982 0.83626 0.0
H384 H 0.73322 0.96935 0.79363 0.0
H385 H 0.74991 0.92693 0.79913 0.0
O386 O 0.60006 0.85026 0.80165 0.0
C387 C 0.59707 0.83873 0.99103 0.0
C388 C 0.70167 0.88815 0.83285 0.0
C389 C 0.71546 0.94422 0.80936 0.0
N390 N 0.66035 0.90361 0.84611 0.0
C391 C 0.66938 0.88018 0.84981 0.0
C392 C 0.68295 0.93535 0.82668 0.0
C393 C 0.72481 0.92041 0.81242 0.0
C394 C 0.52326 0.86751 0.04002 0.0
N395 N 0.52733 0.84128 0.02339 0.0
C396 C 0.51759 0.87407 0.12098 0.0
C397 C 0.51624 0.85367 0.18539 0.0
C398 C 0.52055 0.82705 0.16817 0.0
C399 C 0.52602 0.82117 0.08648 0.0
C400 C 0.4483 0.745 0.95986 0.0
C401 C 0.51009 0.76315 0.89874 0.0
C402 C 0.47221 0.77803 0.95106 0.0
N403 N 0.50275 0.78674 0.92141 0.0
C404 C 0.48679 0.72988 0.90665 0.0
C405 C 0.45572 0.72081 0.93761 0.0
C406 C 0.57274 0.8295 0.7681 0.0
C407 C 0.59986 0.95181 0.70697 0.0
C408 C 0.62334 0.90844 0.69654 0.0
C409 C 0.62181 0.9244 0.62502 0.0
C410 C 0.60995 0.9462 0.63043 0.0
N411 N 0.61332 0.91401 0.7714 0.0
C412 C 0.60176 0.93541 0.77717 0.0
Co413 Co 0.71127 0.5294 0.08324 0.0
Co414 Co 0.73261 0.60904 0.04218 0.0
O415 O 0.69903 0.56341 0.06714 0.0
C416 C 0.64332 0.49506 1.00527 0.0
O417 O 0.64319 0.52278 0.99903 0.0
C418 C 0.68066 0.61274 0.14655 0.0
O419 O 0.66385 0.5807 0.15345 0.0
O420 O 0.75556 0.60999 0.14661 0.0
O421 O 0.75496 0.56234 0.13215 0.0
H422 H 0.84891 0.70165 0.01671 0.0
H423 H 0.6483 0.51863 0.15846 0.0
O424 O 0.6681 0.49438 0.03526 0.0
H425 H 0.71239 0.51135 0.39084 0.0
H426 H 0.69207 0.41701 0.15709 0.0
H427 H 0.77221 0.52696 0.05206 0.0
H428 H 0.73446 0.52135 0.24887 0.0
H429 H 0.67662 0.45969 0.14108 0.0
O430 O 0.70768 0.62684 0.10628 0.0
H431 H 0.80531 0.64463 0.04373 0.0
H432 H 0.73219 0.67027 0.99484 0.0
H433 H 0.78865 0.48499 0.06713 0.0
H434 H 0.62511 0.50809 0.29916 0.0
H435 H 0.7485 0.42961 0.12037 0.0
H436 H 0.65722 0.50445 0.41693 0.0
O437 O 0.73054 0.53877 0.97053 0.0
H438 H 0.63386 0.58452 0.86738 0.0
H439 H 0.75355 0.62901 0.86725 0.0
H440 H 0.72559 0.62729 0.73669 0.0
H441 H 0.66529 0.60507 0.73611 0.0
H442 H 0.66267 0.58626 0.99602 0.0
H443 H 0.77499 0.72763 0.96809 0.0
H444 H 0.83384 0.7436 0.97858 0.0
O445 O 0.75919 0.59369 0.97601 0.0
C446 C 0.76545 0.59022 0.16669 0.0
C447 C 0.82336 0.69497 0.01171 0.0
C448 C 0.78187 0.70957 0.98454 0.0
N449 N 0.76627 0.65408 0.02029 0.0
C450 C 0.79857 0.66271 0.02673 0.0
C451 C 0.75775 0.67707 1.0 0.0
C452 C 0.81488 0.7185 0.9904 0.0
C453 C 0.66238 0.51683 0.20868 0.0
N454 N 0.69271 0.52058 0.19466 0.0
C455 C 0.64913 0.51095 0.28861 0.0
C456 C 0.66716 0.50894 0.35467 0.0
C457 C 0.69809 0.51279 0.3401 0.0
C458 C 0.71051 0.51859 0.25937 0.0
C459 C 0.70981 0.44108 0.13401 0.0
C460 C 0.75459 0.50294 0.07536 0.0
C461 C 0.70119 0.46534 0.12462 0.0
N462 N 0.72356 0.4959 0.09619 0.0
C463 C 0.76403 0.47925 0.0836 0.0
C464 C 0.74148 0.44817 0.11341 0.0
C465 C 0.75296 0.56638 0.94308 0.0
C466 C 0.66016 0.59437 0.86684 0.0
C467 C 0.72728 0.61907 0.86775 0.0
C468 C 0.7116 0.61828 0.79348 0.0
C469 C 0.67779 0.60585 0.7932 0.0
N470 N 0.70988 0.60788 0.94002 0.0
C471 C 0.6767 0.59555 0.93993 0.0
Co472 Co 0.13152 0.73045 0.20913 0.0
Co473 Co 0.18898 0.70822 0.25377 0.0
O474 O 0.14298 0.69658 0.23618 0.0
C475 C 0.08295 0.68865 0.33793 0.0
O476 O 0.1067 0.68693 0.37601 0.0
C477 C 0.15587 0.64164 0.16957 0.0
O478 O 0.12961 0.64376 0.15432 0.0
O479 O 0.20002 0.72807 0.14143 0.0
O480 O 0.1736 0.75663 0.14363 0.0
H481 H 0.31109 0.78437 0.24216 0.0
H482 H 0.08237 0.66127 0.17101 0.0
O483 O 0.0888 0.70538 0.27154 0.0
H484 H 0.10676 0.71922 0.90273 0.0
H485 H 0.05552 0.77232 0.12843 0.0
H486 H 0.1686 0.80313 0.20829 0.0
H487 H 0.13378 0.74914 0.03084 0.0
H488 H 0.07002 0.72972 0.15879 0.0
O489 O 0.18065 0.66504 0.20578 0.0
H490 H 0.25294 0.76873 0.22509 0.0
H491 H 0.22295 0.67271 0.31364 0.0
H492 H 0.15525 0.84654 0.17773 0.0
H493 H 0.05441 0.63045 0.04451 0.0
H494 H 0.09834 0.83122 0.13746 0.0
H495 H 0.06664 0.65943 0.90904 0.0
O496 O 0.15345 0.75407 0.31294 0.0
H497 H 0.12124 0.62075 0.46347 0.0
H498 H 0.21865 0.73 0.42172 0.0
H499 H 0.2048 0.70664 0.56238 0.0
H500 H 0.15591 0.65151 0.58409 0.0
H501 H 0.13551 0.64536 0.3241 0.0
H502 H 0.28078 0.68739 0.33199 0.0
H503 H 0.32532 0.74363 0.29647 0.0
O504 O 0.19984 0.75177 0.30365 0.0
C505 C 0.19499 0.75043 0.11264 0.0
C506 C 0.2919 0.75983 0.25819 0.0
C507 C 0.27489 0.7054 0.3085 0.0
N508 N 0.23454 0.71991 0.26884 0.0
C509 C 0.25892 0.75084 0.24876 0.0
C510 C 0.24218 0.69721 0.29782 0.0
C511 C 0.29987 0.73695 0.28857 0.0
C512 C 0.08773 0.67408 0.11239 0.0
N513 N 0.1099 0.70691 0.10837 0.0
C514 C 0.07187 0.65649 0.04091 0.0
C515 C 0.07877 0.67275 0.96492 0.0
C516 C 0.10131 0.70628 0.96132 0.0
C517 C 0.1167 0.72306 0.03407 0.0
C518 C 0.08042 0.77931 0.14577 0.0
C519 C 0.14383 0.79629 0.19036 0.0
C520 C 0.08876 0.7553 0.16322 0.0
N521 N 0.1202 0.76395 0.18469 0.0
C522 C 0.1364 0.82097 0.17334 0.0
C523 C 0.10446 0.81235 0.15082 0.0
C524 C 0.18273 0.76319 0.33527 0.0
C525 C 0.14275 0.6447 0.45477 0.0
C526 C 0.19721 0.70606 0.43041 0.0
C527 C 0.18958 0.6929 0.51035 0.0
C528 C 0.16215 0.66199 0.52245 0.0
N529 N 0.17807 0.68897 0.36418 0.0
C530 C 0.15112 0.65866 0.37569 0.0
Co531 Co 0.48963 0.18489 0.41477 0.0
Co532 Co 0.41021 0.12668 0.371 0.0
O533 O 0.45567 0.13869 0.39832 0.0
C534 C 0.52436 0.15153 0.3375 0.0
O535 O 0.49672 0.12358 0.3311 0.0
C536 C 0.40394 0.07836 0.50025 0.0
O537 O 0.42946 0.10215 0.53797 0.0
O538 O 0.40825 0.14866 0.47448 0.0
O539 O 0.45654 0.19542 0.46371 0.0
H540 H 0.31688 0.14896 0.33865 0.0
H541 H 0.49931 0.13192 0.48956 0.0
O542 O 0.5248 0.17693 0.36703 0.0
H543 H 0.50719 0.2032 0.72257 0.0
H544 H 0.60188 0.27799 0.49025 0.0
H545 H 0.4921 0.24828 0.38403 0.0
H546 H 0.49752 0.21573 0.58078 0.0
H547 H 0.55923 0.21988 0.47365 0.0
O548 O 0.39293 0.0841 0.43393 0.0
H549 H 0.37385 0.16303 0.36939 0.0
H550 H 0.34985 0.06473 0.32103 0.0
H551 H 0.53407 0.30668 0.39944 0.0
H552 H 0.50999 0.11911 0.62995 0.0
H553 H 0.58936 0.32185 0.45337 0.0
H554 H 0.51385 0.15477 0.74809 0.0
O555 O 0.48057 0.19516 0.30192 0.0
H556 H 0.43512 0.05074 0.20774 0.0
H557 H 0.39337 0.12813 0.19263 0.0
H558 H 0.39689 0.10123 0.06496 0.0
H559 H 0.41779 0.06212 0.07201 0.0
H560 H 0.43153 0.07849 0.33382 0.0
H561 H 0.29256 0.04953 0.29051 0.0
H562 H 0.27579 0.09185 0.29887 0.0
O563 O 0.42561 0.16855 0.30482 0.0
C564 C 0.42817 0.17812 0.49602 0.0
C565 C 0.32391 0.13033 0.33455 0.0
C566 C 0.31025 0.07451 0.30763 0.0
N567 N 0.36522 0.11481 0.34637 0.0
C568 C 0.35615 0.13817 0.35168 0.0
C569 C 0.34271 0.08325 0.32518 0.0
C570 C 0.30086 0.09827 0.3123 0.0
C571 C 0.50171 0.14807 0.53974 0.0
N572 N 0.49825 0.17484 0.52604 0.0
C573 C 0.50745 0.14047 0.61958 0.0
C574 C 0.50952 0.16042 0.68587 0.0
C575 C 0.50583 0.1876 0.67164 0.0
C576 C 0.50021 0.19448 0.591 0.0
C577 C 0.57785 0.27168 0.4669 0.0
C578 C 0.51609 0.25466 0.40757 0.0
C579 C 0.55361 0.23882 0.4572 0.0
N580 N 0.52309 0.23066 0.42843 0.0
C581 C 0.53978 0.28778 0.41604 0.0
C582 C 0.57081 0.29628 0.44621 0.0
C583 C 0.45309 0.18991 0.27325 0.0
C584 C 0.42601 0.06776 0.20383 0.0
C585 C 0.40285 0.11145 0.19618 0.0
C586 C 0.40461 0.09614 0.12368 0.0
C587 C 0.41631 0.07418 0.12769 0.0
N588 N 0.4125 0.1051 0.27063 0.0
C589 C 0.42389 0.08352 0.27504 0.0
Co590 Co 0.31521 0.4876 0.57741 0.0
Co591 Co 0.29306 0.40779 0.53757 0.0
O592 O 0.32703 0.45317 0.56382 0.0
C593 C 0.38251 0.52087 0.49712 0.0
O594 O 0.38015 0.49244 0.48125 0.0
C595 C 0.33502 0.40135 0.66753 0.0
O596 O 0.33844 0.42797 0.70296 0.0
O597 O 0.26888 0.40684 0.64008 0.0
O598 O 0.27089 0.45504 0.62324 0.0
H599 H 0.17672 0.31616 0.50374 0.0
H600 H 0.37744 0.49809 0.6543 0.0
O601 O 0.35905 0.52236 0.53265 0.0
H602 H 0.31184 0.5038 0.88529 0.0
H603 H 0.33477 0.59999 0.65264 0.0
H604 H 0.25499 0.49092 0.5422 0.0
H605 H 0.2906 0.49456 0.74247 0.0
H606 H 0.34997 0.55714 0.63663 0.0
O607 O 0.31736 0.38991 0.60272 0.0
H608 H 0.2204 0.37286 0.53366 0.0
H609 H 0.29331 0.34639 0.4914 0.0
H610 H 0.23869 0.53296 0.55803 0.0
H611 H 0.40004 0.50841 0.79596 0.0
H612 H 0.2787 0.58794 0.61377 0.0
H613 H 0.36709 0.51113 0.91293 0.0
O614 O 0.29701 0.47869 0.46332 0.0
H615 H 0.39389 0.42943 0.37862 0.0
H616 H 0.27532 0.39025 0.35925 0.0
H617 H 0.3059 0.39222 0.23321 0.0
H618 H 0.36563 0.41181 0.24241 0.0
H619 H 0.36242 0.42749 0.50297 0.0
H620 H 0.25043 0.28934 0.46179 0.0
H621 H 0.19165 0.27395 0.46749 0.0
O622 O 0.26764 0.42378 0.46875 0.0
C623 C 0.25935 0.4271 0.65819 0.0
C624 C 0.20225 0.32258 0.50084 0.0
C625 C 0.24362 0.30752 0.4774 0.0
N626 N 0.25935 0.36298 0.51374 0.0
C627 C 0.22708 0.35466 0.51754 0.0
C628 C 0.26779 0.33985 0.49445 0.0
C629 C 0.21064 0.29891 0.48057 0.0
C630 C 0.36319 0.4999 0.70433 0.0
N631 N 0.33281 0.49594 0.68959 0.0
C632 C 0.37603 0.50548 0.78469 0.0
C633 C 0.3575 0.50693 0.85031 0.0
C634 C 0.32652 0.50282 0.8349 0.0
C635 C 0.31454 0.4974 0.75376 0.0
C636 C 0.31711 0.57611 0.62839 0.0
C637 C 0.27253 0.51475 0.5667 0.0
C638 C 0.3256 0.55177 0.61889 0.0
N639 N 0.30333 0.52145 0.58895 0.0
C640 C 0.26317 0.53848 0.57538 0.0
C641 C 0.28564 0.56933 0.6066 0.0
C642 C 0.27458 0.45121 0.43515 0.0
C643 C 0.36788 0.42087 0.37377 0.0
C644 C 0.30136 0.3992 0.36371 0.0
C645 C 0.31852 0.40007 0.29214 0.0
C646 C 0.35202 0.41102 0.29736 0.0
N647 N 0.31711 0.409 0.43843 0.0
C648 C 0.34991 0.41965 0.44403 0.0
Co649 Co 0.8935 0.28891 0.71163 0.0
Co650 Co 0.83373 0.3077 0.75529 0.0
O651 O 0.88035 0.32147 0.73837 0.0
C652 C 0.94851 0.34109 0.81731 0.0
O653 O 0.93261 0.35722 0.82515 0.0
C654 C 0.86112 0.36964 0.65656 0.0
O655 O 0.87985 0.36098 0.61639 0.0
O656 O 0.82421 0.28956 0.64147 0.0
O657 O 0.85178 0.26211 0.64437 0.0
H658 H 0.71229 0.2291 0.73514 0.0
H659 H 0.93867 0.35959 0.66816 0.0
O660 O 0.93608 0.31423 0.77639 0.0
H661 H 0.9201 0.29865 0.40665 0.0
H662 H 0.97199 0.24958 0.63511 0.0
H663 H 0.85777 0.21624 0.7095 0.0
H664 H 0.89369 0.26946 0.53584 0.0
H665 H 0.95608 0.29124 0.664 0.0
O666 O 0.84143 0.35107 0.71236 0.0
H667 H 0.77097 0.24663 0.71991 0.0
H668 H 0.79758 0.34032 0.81944 0.0
H669 H 0.87255 0.17376 0.68027 0.0
H670 H 0.96606 0.38959 0.54103 0.0
H671 H 0.93003 0.19036 0.64277 0.0
H672 H 0.95681 0.35917 0.40868 0.0
O673 O 0.87169 0.26496 0.81538 0.0
H674 H 0.89729 0.39382 0.97059 0.0
H675 H 0.80411 0.28242 0.92218 0.0
H676 H 0.81727 0.30389 0.06469 0.0
H677 H 0.86402 0.36008 0.08981 0.0
H678 H 0.88368 0.37105 0.8289 0.0
H679 H 0.73917 0.32368 0.83637 0.0
H680 H 0.69605 0.26766 0.79429 0.0
O681 O 0.82379 0.26373 0.80026 0.0
C682 C 0.83021 0.26791 0.61236 0.0
C683 C 0.73085 0.25353 0.75398 0.0
C684 C 0.74593 0.30661 0.81075 0.0
N685 N 0.78771 0.29438 0.76929 0.0
C686 C 0.76413 0.26358 0.74563 0.0
C687 C 0.77898 0.3159 0.80095 0.0
C688 C 0.72176 0.27519 0.78712 0.0
C689 C 0.93494 0.34595 0.61175 0.0
N690 N 0.91494 0.31264 0.61045 0.0
C691 C 0.95033 0.36318 0.53945 0.0
C692 C 0.94506 0.34612 0.46517 0.0
C693 C 0.92446 0.3122 0.46399 0.0
C694 C 0.90949 0.2958 0.53749 0.0
C695 C 0.94685 0.24204 0.65127 0.0
C696 C 0.88279 0.22364 0.69277 0.0
C697 C 0.93772 0.26552 0.66796 0.0
N698 N 0.90596 0.25616 0.6879 0.0
C699 C 0.89103 0.19949 0.67649 0.0
C700 C 0.92329 0.20882 0.65554 0.0
C701 C 0.84175 0.25393 0.83481 0.0
C702 C 0.87686 0.3693 0.96052 0.0
C703 C 0.82477 0.30674 0.93246 0.0
C704 C 0.83195 0.31886 0.01339 0.0
C705 C 0.8582 0.35036 0.02738 0.0
N706 N 0.8434 0.32533 0.86722 0.0
C707 C 0.86904 0.3563 0.88041 0.0
C708 C 0.24144 0.48076 0.25956 0.0
C709 C 0.2165 0.45107 0.22588 0.0
H710 H 0.27914 0.50418 0.35121 0.0
C711 C 0.21113 0.4214 0.26131 0.0
H712 H 0.24642 0.50411 0.23403 0.0
C713 C 0.2299 0.42144 0.32891 0.0
C714 C 0.25475 0.45113 0.36278 0.0
H715 H 0.19227 0.39802 0.23714 0.0
H716 H 0.22482 0.39809 0.35466 0.0
C717 C 0.26029 0.48079 0.32696 0.0
C718 C 0.81517 0.22297 0.50648 0.0
C719 C 0.81016 0.24763 0.54094 0.0
H720 H 0.80079 0.18536 0.41431 0.0
C721 C 0.78553 0.25271 0.50658 0.0
H722 H 0.83383 0.21826 0.53127 0.0
C723 C 0.76652 0.23379 0.4397 0.0
C724 C 0.77153 0.20918 0.405 0.0
H725 H 0.78081 0.27136 0.53132 0.0
H726 H 0.7479 0.23861 0.41509 0.0
C727 C 0.79613 0.20402 0.43934 0.0
C728 C 0.60302 0.79623 0.59457 0.0
C729 C 0.57341 0.77168 0.55952 0.0
H730 H 0.62614 0.83348 0.68744 0.0
C731 C 0.54363 0.76663 0.59336 0.0
H732 H 0.62646 0.80096 0.57023 0.0
C733 C 0.54346 0.78543 0.66052 0.0
C734 C 0.57305 0.80983 0.69593 0.0
H735 H 0.52031 0.74806 0.5681 0.0
H736 H 0.52 0.78065 0.68487 0.0
C737 C 0.60284 0.81498 0.66195 0.0
C738 C 0.78755 0.53698 0.77126 0.0
C739 C 0.8121 0.56664 0.73654 0.0
H740 H 0.74986 0.51358 0.86267 0.0
C741 C 0.81711 0.59635 0.77074 0.0
H742 H 0.78284 0.51358 0.74673 0.0
C743 C 0.79811 0.59635 0.83783 0.0
C744 C 0.77345 0.56664 0.87217 0.0
H745 H 0.83571 0.61969 0.74571 0.0
H746 H 0.80276 0.61969 0.86256 0.0
C747 C 0.7685 0.53697 0.83795 0.0
C748 C 0.25894 0.78403 0.94028 0.0
C749 C 0.2542 0.80881 0.90542 0.0
H750 H 0.24427 0.74641 0.03217 0.0
C751 C 0.2299 0.81437 0.93994 0.0
H752 H 0.27734 0.77894 0.91555 0.0
C753 C 0.21084 0.79561 1.00721 0.0
C754 C 0.21546 0.77069 0.04169 0.0
H755 H 0.22546 0.83317 0.91488 0.0
H756 H 0.19239 0.80064 0.03196 0.0
C757 C 0.23986 0.76526 1.00737 0.0
C758 C 0.42354 0.20536 0.16735 0.0
C759 C 0.45313 0.21021 0.20208 0.0
H760 H 0.4005 0.21982 0.07483 0.0
C761 C 0.48292 0.23476 0.16794 0.0
H762 H 0.40009 0.18677 0.19195 0.0
C763 C 0.48316 0.25381 0.10091 0.0
C764 C 0.4536 0.24889 0.06586 0.0
H765 H 0.50624 0.23936 0.19292 0.0
H766 H 0.50664 0.27236 0.07641 0.0
C767 C 0.42377 0.2244 0.10007 0.0
C768 C 0.12597 0.55128 0.13273 0.0
C769 C 0.15568 0.55108 0.12592 0.0
H770 H 0.10272 0.58013 0.14988 0.0
C771 C 0.18542 0.58095 0.13289 0.0
H772 H 0.10265 0.52872 0.12686 0.0
C773 C 0.18545 0.61032 0.14702 0.0
C774 C 0.15576 0.61061 0.15258 0.0
H775 H 0.20872 0.58163 0.1277 0.0
H776 H 0.20878 0.63288 0.1528 0.0
C777 C 0.12601 0.58078 0.14508 0.0
C778 C 0.61395 0.18458 0.28412 0.0
C779 C 0.6174 0.15686 0.29638 0.0
H780 H 0.5819 0.20469 0.28865 0.0
C781 C 0.58979 0.12711 0.32019 0.0
H782 H 0.63482 0.20784 0.26571 0.0
C783 C 0.55924 0.12507 0.3309 0.0
C784 C 0.55597 0.15297 0.32016 0.0
H785 H 0.59169 0.1053 0.3294 0.0
H786 H 0.53838 0.10185 0.34952 0.0
C787 C 0.58367 0.18277 0.29708 0.0
C788 C 0.44347 0.55179 0.47355 0.0
C789 C 0.41365 0.55175 0.48076 0.0
H790 H 0.49559 0.58049 0.45601 0.0
C791 C 0.414 0.58176 0.47529 0.0
H792 H 0.44405 0.52911 0.47825 0.0
C793 C 0.44341 0.61108 0.46162 0.0
C794 C 0.47328 0.61119 0.45496 0.0
H795 H 0.39144 0.58256 0.48077 0.0
H796 H 0.44278 0.63373 0.45656 0.0
C797 C 0.47303 0.58125 0.46162 0.0
C798 C 0.89499 0.45917 0.60004 0.0
C799 C 0.8674 0.46287 0.6122 0.0
H800 H 0.91439 0.42641 0.60241 0.0
C801 C 0.83777 0.43564 0.63825 0.0
H802 H 0.91806 0.47967 0.5792 0.0
C803 C 0.83587 0.40544 0.653 0.0
C804 C 0.86328 0.40157 0.63964 0.0
H805 H 0.8161 0.43776 0.64788 0.0
H806 H 0.81277 0.38496 0.67386 0.0
C807 C 0.89282 0.42866 0.61257 0.0
C808 C 0.41156 0.83341 0.78308 0.0
C809 C 0.40778 0.86085 0.79678 0.0
H810 H 0.44393 0.81367 0.78648 0.0
C811 C 0.43512 0.89051 0.82227 0.0
H812 H 0.39091 0.81022 0.76339 0.0
C813 C 0.46574 0.89273 0.83315 0.0
C814 C 0.46934 0.86509 0.82087 0.0
H815 H 0.43295 0.9121 0.83264 0.0
H816 H 0.4864 0.91586 0.85304 0.0
C817 C 0.4419 0.83538 0.79616 0.0
C818 C 0.55341 0.43023 0.98444 0.0
C819 C 0.55547 0.40262 0.96028 0.0
H820 H 0.57971 0.48146 0.01532 0.0
C821 C 0.58661 0.40586 0.94913 0.0
H822 H 0.52973 0.42847 0.99283 0.0
C823 C 0.61513 0.43593 0.9635 0.0
C824 C 0.61312 0.46364 0.98687 0.0
H825 H 0.58892 0.38497 0.93051 0.0
H826 H 0.63879 0.43755 0.95585 0.0
C827 C 0.58199 0.46058 0.99654 0.0
C828 C 0.2102 0.42764 0.71291 0.0
C829 C 0.23478 0.41933 0.7241 0.0
H830 H 0.17335 0.43509 0.77048 0.0
C831 C 0.23897 0.40906 0.8028 0.0
H832 H 0.20674 0.43593 0.65298 0.0
C833 C 0.22045 0.4095 0.87056 0.0
C834 C 0.19697 0.41929 0.85963 0.0
H835 H 0.25821 0.40318 0.81317 0.0
H836 H 0.2256 0.40384 0.93199 0.0
C837 C 0.19118 0.42722 0.77994 0.0
C838 C 0.81965 0.22383 0.05379 0.0
C839 C 0.79031 0.19402 0.04202 0.0
H840 H 0.86 0.26562 0.99578 0.0
C841 C 0.78054 0.18189 0.96123 0.0
H842 H 0.82723 0.2339 0.11557 0.0
C843 C 0.79859 0.20055 0.89285 0.0
C844 C 0.82728 0.23093 0.90459 0.0
H845 H 0.75756 0.15935 0.9508 0.0
H846 H 0.78932 0.19205 0.83085 0.0
C847 C 0.83836 0.24187 0.9855 0.0
C848 C 0.61291 0.81784 0.20539 0.0
C849 C 0.60544 0.78524 0.19402 0.0
H850 H 0.61736 0.86113 0.14786 0.0
C851 C 0.59964 0.77204 0.11375 0.0
H852 H 0.61683 0.82818 0.26722 0.0
C853 C 0.59904 0.79039 0.0463 0.0
C854 C 0.60517 0.82257 0.0578 0.0
H855 H 0.59336 0.74676 0.10402 0.0
H856 H 0.59228 0.77894 0.98569 0.0
C857 C 0.61328 0.83661 0.13735 0.0
C858 C 0.79468 0.5954 0.38563 0.0
C859 C 0.82556 0.59826 0.37331 0.0
H860 H 0.7519 0.59211 0.3285 0.0
C861 C 0.83832 0.60271 0.29258 0.0
H862 H 0.78416 0.59133 0.44729 0.0
C863 C 0.81943 0.60204 0.22459 0.0
C864 C 0.78811 0.59811 0.2369 0.0
H865 H 0.86173 0.60414 0.28163 0.0
H866 H 0.82861 0.60313 0.16234 0.0
C867 C 0.77632 0.59589 0.31794 0.0
C868 C 0.22417 0.81725 0.39427 0.0
C869 C 0.19714 0.78567 0.40589 0.0
H870 H 0.26417 0.85946 0.45211 0.0
C871 C 0.18776 0.77338 0.48662 0.0
H872 H 0.23214 0.8268 0.33222 0.0
C873 C 0.20655 0.7915 0.5546 0.0
C874 C 0.23435 0.8226 0.54296 0.0
H875 H 0.16737 0.74878 0.49659 0.0
H876 H 0.20031 0.78058 0.61588 0.0
C877 C 0.24235 0.83587 0.46263 0.0
C878 C 0.41553 0.23818 0.62269 0.0
C879 C 0.4203 0.22992 0.70322 0.0
H880 H 0.41479 0.22809 0.49233 0.0
C881 C 0.42312 0.20186 0.71512 0.0
H882 H 0.41415 0.2602 0.61199 0.0
C883 C 0.42244 0.18302 0.64723 0.0
C884 C 0.42001 0.19261 0.56635 0.0
H885 H 0.42744 0.19544 0.77657 0.0
H886 H 0.42631 0.16243 0.65746 0.0
C887 C 0.41598 0.21995 0.55446 0.0
C888 C 0.03672 0.40468 0.86707 0.0
C889 C 0.0488 0.38536 0.90153 0.0
H890 H 0.9952 0.40583 0.81574 0.0
C891 C 0.02759 0.35127 0.9085 0.0
H892 H 0.05246 0.43102 0.86147 0.0
C893 C 0.99507 0.33673 0.88018 0.0
C894 C 0.98282 0.35618 0.84739 0.0
H895 H 0.03629 0.33581 0.93488 0.0
H896 H 0.97935 0.31037 0.88518 0.0
C897 C 1.00391 0.3903 0.84153 0.0
C898 C 0.61641 0.9847 0.06824 0.0
C899 C 0.63611 0.97304 0.03395 0.0
H900 H 0.61465 0.02568 0.12095 0.0
C901 C 0.67022 0.99442 0.02866 0.0
H902 H 0.59004 0.96882 0.07251 0.0
C903 C 0.6844 0.02668 0.05852 0.0
C904 C 0.6646 0.03853 0.09118 0.0
H905 H 0.68596 0.98604 1.00242 0.0
H906 H 0.71079 0.04254 0.05484 0.0
C907 C 0.63045 0.01728 0.09531 0.0
C908 C 0.63222 0.62022 0.17044 0.0
C909 C 0.66621 0.63246 0.17695 0.0
H910 H 0.59222 0.62915 0.19033 0.0
C911 C 0.68615 0.66386 0.21081 0.0
H912 H 0.61633 0.59621 0.14384 0.0
C913 C 0.67223 0.68232 0.23954 0.0
C914 C 0.63829 0.67024 0.23193 0.0
H915 H 0.71243 0.67388 0.21632 0.0
H916 H 0.68804 0.70623 0.26676 0.0
C917 C 0.61847 0.63914 0.1964 0.0
C918 C 0.02706 0.68171 0.36132 0.0
C919 C 0.04881 0.66951 0.36896 0.0
H920 H 0.97849 0.67348 0.38469 0.0
C921 C 0.03738 0.63838 0.40446 0.0
H922 H 0.03526 0.70565 0.33414 0.0
C923 C 1.00469 0.61955 0.43044 0.0
C924 C 0.98306 0.63193 0.42401 0.0
H925 H 0.05356 0.62829 0.41057 0.0
H926 H 0.99648 0.59553 0.4571 0.0
C927 C 0.99464 0.66335 0.39011 0.0
C928 C 0.40854 0.03277 0.5672 0.0
C929 C 0.38887 0.04429 0.53194 0.0
H930 H 0.41033 0.99189 0.62058 0.0
C931 C 0.35483 0.02273 0.52539 0.0
H932 H 0.43486 0.04881 0.5725 0.0
C933 C 0.34067 0.99044 0.5551 0.0
C934 C 0.36046 0.97875 0.58883 0.0
H935 H 0.33911 0.03101 0.49843 0.0
H936 H 0.31433 0.97444 0.55056 0.0
C937 C 0.39455 1.00017 0.59409 0.0
C938 C 0.38524 0.40507 0.73208 0.0
C939 C 0.3536 0.38575 0.6989 0.0
H940 H 0.428 0.40616 0.78256 0.0
C941 C 0.34041 0.35158 0.69337 0.0
H942 H 0.39611 0.43148 0.73651 0.0
C943 C 0.35832 0.33698 0.72182 0.0
C944 C 0.39025 0.35642 0.75332 0.0
H945 H 0.31607 0.33611 0.66795 0.0
H946 H 0.34743 0.31057 0.71796 0.0
C947 C 0.40357 0.39062 0.75776 0.0
loop_
_geom_bond_atom_site_label_1
_geom_bond_atom_site_label_2
_geom_bond_distance
_geom_bond_site_symmetry_2
_ccdc_geom_bond_type
Co0 O2 2.143 . S
Co0 O8 2.074 1_554 S
Co0 O11 2.093 . S
Co0 O24 2.097 . S
Co0 N41 2.151 1_554 S
Co0 N49 2.214 . S
Co1 O2 2.160 . S
Co1 O7 2.058 1_554 S
Co1 O17 2.057 1_554 S
Co1 O32 2.037 . S
Co1 N36 2.145 . S
Co1 N57 2.257 . S
O2 Co0 2.143 . S
O2 Co1 2.160 . S
C3 O4 1.278 . S
C3 O11 1.224 . S
O4 C3 1.278 . S
C5 O6 1.245 . S
C5 O17 1.232 . S
O6 C5 1.245 . S
O7 Co1 2.058 1_556 S
O7 C33 1.269 . S
O8 Co0 2.074 1_556 S
O8 C33 1.257 . S
H9 C34 0.930 . S
H10 C40 0.930 . S
O11 Co0 2.093 . S
O11 C3 1.224 . S
H12 C44 0.929 . S
H13 C46 0.930 . S
H14 C47 0.930 . S
H15 C45 0.929 . S
H16 C48 0.928 . S
O17 Co1 2.057 1_556 S
O17 C5 1.232 . S
H18 C37 0.929 . S
H19 C38 0.929 . S
H20 C50 0.931 . S
H21 C42 0.929 . S
H22 C51 0.930 . S
H23 C43 0.931 . S
O24 Co0 2.097 . S
O24 C52 1.214 . S
H25 C53 0.929 . S
H26 C54 0.929 . S
H27 C55 0.930 . S
H28 C56 0.929 . S
H29 C58 0.930 . S
H30 C35 0.930 . S
H31 C39 0.930 . S
O32 Co1 2.037 . S
O32 C52 1.234 . S
C33 O7 1.269 . S
C33 O8 1.257 . S
C34 H9 0.930 . S
C34 C37 1.388 . S
C34 C39 1.418 . S
C35 H30 0.930 . S
C35 C38 1.404 . S
C35 C39 1.353 . S
N36 Co1 2.145 . S
N36 C37 1.397 . S
N36 C38 1.334 . S
C37 H18 0.929 . S
C37 C34 1.388 . S
C37 N36 1.397 . S
C38 H19 0.929 . S
C38 C35 1.404 . S
C38 N36 1.334 . S
C39 H31 0.930 . S
C39 C34 1.418 . S
C39 C35 1.353 . S
C40 H10 0.930 . S
C40 N41 1.330 . S
C40 C42 1.446 . S
N41 Co0 2.151 1_556 S
N41 C40 1.330 . S
N41 C45 1.418 . S
C42 H21 0.929 . S
C42 C40 1.446 . S
C42 C43 1.332 . S
C43 H23 0.931 . S
C43 C42 1.332 . S
C43 C44 1.267 . S
C44 H12 0.929 . S
C44 C43 1.267 . S
C44 C45 1.251 . S
C45 H15 0.929 . S
C45 N41 1.418 . S
C45 C44 1.251 . S
C46 H13 0.930 . S
C46 C48 1.406 . S
C46 C51 1.261 . S
C47 H14 0.930 . S
C47 N49 1.325 . S
C47 C50 1.357 . S
C48 H16 0.928 . S
C48 C46 1.406 . S
C48 N49 1.261 . S
N49 Co0 2.214 . S
N49 C47 1.325 . S
N49 C48 1.261 . S
C50 H20 0.931 . S
C50 C47 1.357 . S
C50 C51 1.312 . S
C51 H22 0.930 . S
C51 C46 1.261 . S
C51 C50 1.312 . S
C52 O24 1.214 . S
C52 O32 1.234 . S
C53 H25 0.929 . S
C53 C56 1.391 . S
C53 C58 1.391 . S
C54 H26 0.929 . S
C54 C55 1.390 . S
C54 N57 1.391 . S
C55 H27 0.930 . S
C55 C54 1.390 . S
C55 C56 1.392 . S
C56 H28 0.929 . S
C56 C53 1.391 . S
C56 C55 1.392 . S
N57 Co1 2.257 . S
N57 C54 1.391 . S
N57 C58 1.388 . S
C58 H29 0.930 . S
C58 C53 1.391 . S
C58 N57 1.388 . S
Co59 O61 2.143 . S
Co59 O67 2.074 . S
Co59 O70 2.093 . S
Co59 O83 2.097 . S
Co59 N100 2.151 . S
Co59 N108 2.214 . S
Co60 O61 2.160 . S
Co60 O66 2.058 . S
Co60 O76 2.057 . S
Co60 O91 2.037 . S
Co60 N95 2.145 . S
Co60 N116 2.257 . S
O61 Co59 2.143 . S
O61 Co60 2.160 . S
C62 O63 1.278 . S
C62 O70 1.224 . S
O63 C62 1.278 . S
C64 O65 1.245 . S
C64 O76 1.232 . S
O65 C64 1.245 . S
O66 Co60 2.058 . S
O66 C92 1.269 . S
O67 Co59 2.074 . S
O67 C92 1.257 . S
H68 C93 0.930 . S
H69 C99 0.930 . S
O70 Co59 2.093 . S
O70 C62 1.224 . S
H71 C103 0.929 . S
H72 C105 0.930 . S
H73 C106 0.930 . S
H74 C104 0.929 . S
H75 C107 0.928 . S
O76 Co60 2.057 . S
O76 C64 1.232 . S
H77 C96 0.929 . S
H78 C97 0.929 . S
H79 C109 0.931 . S
H80 C101 0.930 . S
H81 C110 0.930 . S
H82 C102 0.931 . S
O83 Co59 2.097 . S
O83 C111 1.214 . S
H84 C112 0.929 . S
H85 C113 0.929 . S
H86 C114 0.930 . S
H87 C115 0.929 . S
H88 C117 0.930 . S
H89 C94 0.930 . S
H90 C98 0.930 . S
O91 Co60 2.037 . S
O91 C111 1.234 . S
C92 O66 1.269 . S
C92 O67 1.257 . S
C93 H68 0.930 . S
C93 C96 1.388 . S
C93 C98 1.418 . S
C94 H89 0.930 . S
C94 C97 1.404 . S
C94 C98 1.353 . S
N95 Co60 2.145 . S
N95 C96 1.397 . S
N95 C97 1.334 . S
C96 H77 0.929 . S
C96 C93 1.388 . S
C96 N95 1.397 . S
C97 H78 0.929 . S
C97 C94 1.404 . S
C97 N95 1.334 . S
C98 H90 0.930 . S
C98 C93 1.418 . S
C98 C94 1.353 . S
C99 H69 0.930 . S
C99 N100 1.330 . S
C99 C101 1.446 . S
N100 Co59 2.151 . S
N100 C99 1.330 . S
N100 C104 1.418 . S
C101 H80 0.930 . S
C101 C99 1.446 . S
C101 C102 1.332 1_554 S
C102 H82 0.931 . S
C102 C101 1.332 1_556 S
C102 C103 1.267 . S
C103 H71 0.929 . S
C103 C102 1.267 . S
C103 C104 1.251 1_556 S
C104 H74 0.929 . S
C104 N100 1.418 . S
C104 C103 1.251 1_554 S
C105 H72 0.930 . S
C105 C107 1.406 . S
C105 C110 1.261 . S
C106 H73 0.930 . S
C106 N108 1.325 . S
C106 C109 1.357 . S
C107 H75 0.928 . S
C107 C105 1.406 . S
C107 N108 1.261 . S
N108 Co59 2.214 . S
N108 C106 1.325 . S
N108 C107 1.261 . S
C109 H79 0.931 . S
C109 C106 1.357 . S
C109 C110 1.312 . S
C110 H81 0.930 . S
C110 C105 1.261 . S
C110 C109 1.312 . S
C111 O83 1.214 . S
C111 O91 1.234 . S
C112 H84 0.929 . S
C112 C115 1.391 . S
C112 C117 1.391 . S
C113 H85 0.929 . S
C113 C114 1.390 . S
C113 N116 1.391 . S
C114 H86 0.930 . S
C114 C113 1.390 . S
C114 C115 1.392 . S
C115 H87 0.929 . S
C115 C112 1.391 . S
C115 C114 1.392 . S
N116 Co60 2.257 . S
N116 C113 1.391 . S
N116 C117 1.388 . S
C117 H88 0.930 . S
C117 C112 1.391 . S
C117 N116 1.388 . S
Co118 O120 2.143 . S
Co118 O126 2.074 . S
Co118 O129 2.093 . S
Co118 O142 2.097 . S
Co118 N159 2.151 . S
Co118 N167 2.214 . S
Co119 O120 2.160 . S
Co119 O125 2.058 . S
Co119 O135 2.057 . S
Co119 O150 2.037 . S
Co119 N154 2.145 . S
Co119 N175 2.257 . S
O120 Co118 2.143 . S
O120 Co119 2.160 . S
C121 O122 1.278 . S
C121 O129 1.224 . S
O122 C121 1.278 . S
C123 O124 1.245 . S
C123 O135 1.232 . S
O124 C123 1.245 . S
O125 Co119 2.058 . S
O125 C151 1.269 . S
O126 Co118 2.074 . S
O126 C151 1.257 . S
H127 C152 0.930 . S
H128 C158 0.930 . S
O129 Co118 2.093 . S
O129 C121 1.224 . S
H130 C162 0.929 . S
H131 C164 0.930 . S
H132 C165 0.930 . S
H133 C163 0.929 . S
H134 C166 0.928 . S
O135 Co119 2.057 . S
O135 C123 1.232 . S
H136 C155 0.929 . S
H137 C156 0.929 . S
H138 C168 0.931 . S
H139 C160 0.929 . S
H140 C169 0.930 . S
H141 C161 0.931 . S
O142 Co118 2.097 . S
O142 C170 1.214 . S
H143 C171 0.929 . S
H144 C172 0.929 . S
H145 C173 0.930 . S
H146 C174 0.929 . S
H147 C176 0.930 . S
H148 C153 0.930 . S
H149 C157 0.930 . S
O150 Co119 2.037 . S
O150 C170 1.234 . S
C151 O125 1.269 . S
C151 O126 1.257 . S
C152 H127 0.930 . S
C152 C155 1.388 . S
C152 C157 1.418 . S
C153 H148 0.930 . S
C153 C156 1.404 . S
C153 C157 1.353 . S
N154 Co119 2.145 . S
N154 C155 1.397 . S
N154 C156 1.334 . S
C155 H136 0.929 . S
C155 C152 1.388 . S
C155 N154 1.397 . S
C156 H137 0.929 . S
C156 C153 1.404 . S
C156 N154 1.334 . S
C157 H149 0.930 . S
C157 C152 1.418 . S
C157 C153 1.353 . S
C158 H128 0.930 . S
C158 N159 1.330 . S
C158 C160 1.446 . S
N159 Co118 2.151 . S
N159 C158 1.330 . S
N159 C163 1.418 . S
C160 H139 0.929 . S
C160 C158 1.446 . S
C160 C161 1.332 . S
C161 H141 0.931 . S
C161 C160 1.332 . S
C161 C162 1.267 . S
C162 H130 0.929 . S
C162 C161 1.267 . S
C162 C163 1.251 . S
C163 H133 0.929 . S
C163 N159 1.418 . S
C163 C162 1.251 . S
C164 H131 0.930 . S
C164 C166 1.406 . S
C164 C169 1.261 . S
C165 H132 0.930 . S
C165 N167 1.325 . S
C165 C168 1.357 . S
C166 H134 0.928 . S
C166 C164 1.406 . S
C166 N167 1.261 . S
N167 Co118 2.214 . S
N167 C165 1.325 . S
N167 C166 1.261 . S
C168 H138 0.931 . S
C168 C165 1.357 . S
C168 C169 1.312 . S
C169 H140 0.930 . S
C169 C164 1.261 . S
C169 C168 1.312 . S
C170 O142 1.214 . S
C170 O150 1.234 . S
C171 H143 0.929 . S
C171 C174 1.391 . S
C171 C176 1.391 . S
C172 H144 0.929 . S
C172 C173 1.390 . S
C172 N175 1.391 . S
C173 H145 0.930 . S
C173 C172 1.390 . S
C173 C174 1.392 . S
C174 H146 0.929 . S
C174 C171 1.391 . S
C174 C173 1.392 . S
N175 Co119 2.257 . S
N175 C172 1.391 . S
N175 C176 1.388 . S
C176 H147 0.930 . S
C176 C171 1.391 . S
C176 N175 1.388 . S
Co177 O179 2.143 . S
Co177 O185 2.074 . S
Co177 O188 2.093 . S
Co177 O201 2.097 . S
Co177 N218 2.151 . S
Co177 N226 2.214 . S
Co178 O179 2.160 . S
Co178 O184 2.058 . S
Co178 O194 2.057 . S
Co178 O209 2.037 . S
Co178 N213 2.145 . S
Co178 N234 2.257 . S
O179 Co177 2.143 . S
O179 Co178 2.160 . S
C180 O181 1.278 . S
C180 O188 1.224 . S
O181 C180 1.278 . S
C182 O183 1.245 . S
C182 O194 1.232 . S
O183 C182 1.245 . S
O184 Co178 2.058 . S
O184 C210 1.269 . S
O185 Co177 2.074 . S
O185 C210 1.257 . S
H186 C211 0.930 . S
H187 C217 0.930 . S
O188 Co177 2.093 . S
O188 C180 1.224 . S
H189 C221 0.929 . S
H190 C223 0.930 . S
H191 C224 0.930 . S
H192 C222 0.929 . S
H193 C225 0.928 . S
O194 Co178 2.057 . S
O194 C182 1.232 . S
H195 C214 0.929 . S
H196 C215 0.929 . S
H197 C227 0.931 . S
H198 C219 0.929 . S
H199 C228 0.930 . S
H200 C220 0.931 . S
O201 Co177 2.097 . S
O201 C229 1.214 . S
H202 C230 0.929 . S
H203 C231 0.929 . S
H204 C232 0.930 . S
H205 C233 0.929 . S
H206 C235 0.930 . S
H207 C212 0.930 . S
H208 C216 0.930 . S
O209 Co178 2.037 . S
O209 C229 1.234 . S
C210 O184 1.269 . S
C210 O185 1.257 . S
C211 H186 0.930 . S
C211 C214 1.388 . S
C211 C216 1.418 . S
C212 H207 0.930 . S
C212 C215 1.404 . S
C212 C216 1.353 . S
N213 Co178 2.145 . S
N213 C214 1.397 . S
N213 C215 1.334 . S
C214 H195 0.929 . S
C214 C211 1.388 . S
C214 N213 1.397 . S
C215 H196 0.929 . S
C215 C212 1.404 . S
C215 N213 1.334 . S
C216 H208 0.930 . S
C216 C211 1.418 . S
C216 C212 1.353 . S
C217 H187 0.930 . S
C217 N218 1.330 . S
C217 C219 1.446 . S
N218 Co177 2.151 . S
N218 C217 1.330 . S
N218 C222 1.418 . S
C219 H198 0.929 . S
C219 C217 1.446 . S
C219 C220 1.332 . S
C220 H200 0.931 . S
C220 C219 1.332 . S
C220 C221 1.267 . S
C221 H189 0.929 . S
C221 C220 1.267 . S
C221 C222 1.251 . S
C222 H192 0.929 . S
C222 N218 1.418 . S
C222 C221 1.251 . S
C223 H190 0.930 . S
C223 C225 1.406 . S
C223 C228 1.261 . S
C224 H191 0.930 . S
C224 N226 1.325 . S
C224 C227 1.357 . S
C225 H193 0.928 . S
C225 C223 1.406 . S
C225 N226 1.261 . S
N226 Co177 2.214 . S
N226 C224 1.325 . S
N226 C225 1.261 . S
C227 H197 0.931 . S
C227 C224 1.357 . S
C227 C228 1.312 . S
C228 H199 0.930 . S
C228 C223 1.261 . S
C228 C227 1.312 . S
C229 O201 1.214 . S
C229 O209 1.234 . S
C230 H202 0.929 . S
C230 C233 1.391 . S
C230 C235 1.391 . S
C231 H203 0.929 . S
C231 C232 1.390 . S
C231 N234 1.391 . S
C232 H204 0.930 . S
C232 C231 1.390 . S
C232 C233 1.392 . S
C233 H205 0.929 . S
C233 C230 1.391 . S
C233 C232 1.392 . S
N234 Co178 2.257 . S
N234 C231 1.391 . S
N234 C235 1.388 . S
C235 H206 0.930 . S
C235 C230 1.391 . S
C235 N234 1.388 . S
Co236 O238 2.143 . S
Co236 O244 2.074 . S
Co236 O247 2.093 . S
Co236 O260 2.097 . S
Co236 N277 2.151 . S
Co236 N285 2.214 . S
Co237 O238 2.160 . S
Co237 O243 2.058 . S
Co237 O253 2.057 . S
Co237 O268 2.037 . S
Co237 N272 2.145 . S
Co237 N293 2.257 . S
O238 Co236 2.143 . S
O238 Co237 2.160 . S
C239 O240 1.278 . S
C239 O247 1.224 . S
O240 C239 1.278 . S
C241 O242 1.245 . S
C241 O253 1.232 . S
O242 C241 1.245 . S
O243 Co237 2.058 . S
O243 C269 1.269 . S
O244 Co236 2.074 . S
O244 C269 1.257 . S
H245 C270 0.930 . S
H246 C276 0.930 . S
O247 Co236 2.093 . S
O247 C239 1.224 . S
H248 C280 0.929 . S
H249 C282 0.930 . S
H250 C283 0.930 . S
H251 C281 0.929 . S
H252 C284 0.928 . S
O253 Co237 2.057 . S
O253 C241 1.232 . S
H254 C273 0.929 . S
H255 C274 0.929 . S
H256 C286 0.931 . S
H257 C278 0.929 . S
H258 C287 0.930 . S
H259 C279 0.931 . S
O260 Co236 2.097 . S
O260 C288 1.214 . S
H261 C289 0.929 . S
H262 C290 0.929 . S
H263 C291 0.930 1_554 S
H264 C292 0.929 1_554 S
H265 C294 0.930 . S
H266 C271 0.930 . S
H267 C275 0.930 . S
O268 Co237 2.037 . S
O268 C288 1.234 . S
C269 O243 1.269 . S
C269 O244 1.257 . S
C270 H245 0.930 . S
C270 C273 1.388 . S
C270 C275 1.418 . S
C271 H266 0.930 . S
C271 C274 1.404 . S
C271 C275 1.353 . S
N272 Co237 2.145 . S
N272 C273 1.397 . S
N272 C274 1.334 . S
C273 H254 0.929 . S
C273 C270 1.388 . S
C273 N272 1.397 . S
C274 H255 0.929 . S
C274 C271 1.404 . S
C274 N272 1.334 . S
C275 H267 0.930 . S
C275 C270 1.418 . S
C275 C271 1.353 . S
C276 H246 0.930 . S
C276 N277 1.330 . S
C276 C278 1.446 . S
N277 Co236 2.151 . S
N277 C276 1.330 . S
N277 C281 1.418 . S
C278 H257 0.929 . S
C278 C276 1.446 . S
C278 C279 1.332 . S
C279 H259 0.931 . S
C279 C278 1.332 . S
C279 C280 1.267 . S
C280 H248 0.929 . S
C280 C279 1.267 . S
C280 C281 1.251 . S
C281 H251 0.929 . S
C281 N277 1.418 . S
C281 C280 1.251 . S
C282 H249 0.930 . S
C282 C284 1.406 . S
C282 C287 1.261 . S
C283 H250 0.930 . S
C283 N285 1.325 . S
C283 C286 1.357 . S
C284 H252 0.928 . S
C284 C282 1.406 . S
C284 N285 1.261 . S
N285 Co236 2.214 . S
N285 C283 1.325 . S
N285 C284 1.261 . S
C286 H256 0.931 . S
C286 C283 1.357 . S
C286 C287 1.312 . S
C287 H258 0.930 . S
C287 C282 1.261 . S
C287 C286 1.312 . S
C288 O260 1.214 . S
C288 O268 1.234 . S
C289 H261 0.929 . S
C289 C292 1.391 . S
C289 C294 1.391 . S
C290 H262 0.929 . S
C290 C291 1.390 . S
C290 N293 1.391 . S
C291 H263 0.930 1_556 S
C291 C290 1.390 . S
C291 C292 1.392 . S
C292 H264 0.929 1_556 S
C292 C289 1.391 . S
C292 C291 1.392 . S
N293 Co237 2.257 . S
N293 C290 1.391 . S
N293 C294 1.388 . S
C294 H265 0.930 . S
C294 C289 1.391 . S
C294 N293 1.388 . S
Co295 O297 2.143 . S
Co295 O303 2.074 . S
Co295 O306 2.093 . S
Co295 O319 2.097 . S
Co295 N336 2.151 . S
Co295 N344 2.214 . S
Co296 O297 2.160 . S
Co296 O302 2.058 . S
Co296 O312 2.057 . S
Co296 O327 2.037 . S
Co296 N331 2.145 . S
Co296 N352 2.257 . S
O297 Co295 2.143 . S
O297 Co296 2.160 . S
C298 O299 1.278 . S
C298 O306 1.224 . S
O299 C298 1.278 . S
C300 O301 1.245 . S
C300 O312 1.232 . S
O301 C300 1.245 . S
O302 Co296 2.058 . S
O302 C328 1.269 . S
O303 Co295 2.074 . S
O303 C328 1.257 . S
H304 C329 0.930 . S
H305 C335 0.930 . S
O306 Co295 2.093 . S
O306 C298 1.224 . S
H307 C339 0.929 . S
H308 C341 0.930 . S
H309 C342 0.930 . S
H310 C340 0.929 . S
H311 C343 0.928 . S
O312 Co296 2.057 . S
O312 C300 1.232 . S
H313 C332 0.929 . S
H314 C333 0.929 . S
H315 C345 0.931 . S
H316 C337 0.929 . S
H317 C346 0.930 . S
H318 C338 0.931 . S
O319 Co295 2.097 . S
O319 C347 1.214 . S
H320 C348 0.929 . S
H321 C349 0.929 . S
H322 C350 0.930 . S
H323 C351 0.929 . S
H324 C353 0.930 . S
H325 C330 0.930 . S
H326 C334 0.930 . S
O327 Co296 2.037 . S
O327 C347 1.234 . S
C328 O302 1.269 . S
C328 O303 1.257 . S
C329 H304 0.930 . S
C329 C332 1.388 . S
C329 C334 1.418 . S
C330 H325 0.930 . S
C330 C333 1.404 . S
C330 C334 1.353 . S
N331 Co296 2.145 . S
N331 C332 1.397 . S
N331 C333 1.334 . S
C332 H313 0.929 . S
C332 C329 1.388 . S
C332 N331 1.397 . S
C333 H314 0.929 . S
C333 C330 1.404 . S
C333 N331 1.334 . S
C334 H326 0.930 . S
C334 C329 1.418 . S
C334 C330 1.353 . S
C335 H305 0.930 . S
C335 N336 1.330 . S
C335 C337 1.446 1_556 S
N336 Co295 2.151 . S
N336 C335 1.330 . S
N336 C340 1.418 1_556 S
C337 H316 0.929 . S
C337 C335 1.446 1_554 S
C337 C338 1.332 . S
C338 H318 0.931 . S
C338 C337 1.332 . S
C338 C339 1.267 . S
C339 H307 0.929 . S
C339 C338 1.267 . S
C339 C340 1.251 . S
C340 H310 0.929 . S
C340 N336 1.418 1_554 S
C340 C339 1.251 . S
C341 H308 0.930 . S
C341 C343 1.406 . S
C341 C346 1.261 . S
C342 H309 0.930 . S
C342 N344 1.325 . S
C342 C345 1.357 . S
C343 H311 0.928 . S
C343 C341 1.406 . S
C343 N344 1.261 . S
N344 Co295 2.214 . S
N344 C342 1.325 . S
N344 C343 1.261 . S
C345 H315 0.931 . S
C345 C342 1.357 . S
C345 C346 1.312 . S
C346 H317 0.930 . S
C346 C341 1.261 . S
C346 C345 1.312 . S
C347 O319 1.214 . S
C347 O327 1.234 . S
C348 H320 0.929 . S
C348 C351 1.391 . S
C348 C353 1.391 . S
C349 H321 0.929 . S
C349 C350 1.390 . S
C349 N352 1.391 . S
C350 H322 0.930 . S
C350 C349 1.390 . S
C350 C351 1.392 . S
C351 H323 0.929 . S
C351 C348 1.391 . S
C351 C350 1.392 . S
N352 Co296 2.257 . S
N352 C349 1.391 . S
N352 C353 1.388 . S
C353 H324 0.930 . S
C353 C348 1.391 . S
C353 N352 1.388 . S
Co354 O356 2.143 . S
Co354 O362 2.074 . S
Co354 O365 2.093 . S
Co354 O378 2.097 . S
Co354 N395 2.151 . S
Co354 N403 2.214 . S
Co355 O356 2.160 . S
Co355 O361 2.058 . S
Co355 O371 2.057 . S
Co355 O386 2.037 . S
Co355 N390 2.145 . S
Co355 N411 2.257 . S
O356 Co354 2.143 . S
O356 Co355 2.160 . S
C357 O358 1.278 . S
C357 O365 1.224 . S
O358 C357 1.278 . S
C359 O360 1.245 . S
C359 O371 1.232 . S
O360 C359 1.245 . S
O361 Co355 2.058 . S
O361 C387 1.269 . S
O362 Co354 2.074 . S
O362 C387 1.257 . S
H363 C388 0.930 . S
H364 C394 0.930 1_556 S
O365 Co354 2.093 . S
O365 C357 1.224 . S
H366 C398 0.929 . S
H367 C400 0.930 . S
H368 C401 0.930 . S
H369 C399 0.929 . S
H370 C402 0.928 . S
O371 Co355 2.057 . S
O371 C359 1.232 . S
H372 C391 0.929 . S
H373 C392 0.929 . S
H374 C404 0.931 . S
H375 C396 0.929 . S
H376 C405 0.930 . S
H377 C397 0.931 . S
O378 Co354 2.097 . S
O378 C406 1.214 . S
H379 C407 0.929 . S
H380 C408 0.929 . S
H381 C409 0.930 . S
H382 C410 0.929 . S
H383 C412 0.930 . S
H384 C389 0.930 . S
H385 C393 0.930 . S
O386 Co355 2.037 . S
O386 C406 1.234 . S
C387 O361 1.269 . S
C387 O362 1.257 . S
C388 H363 0.930 . S
C388 C391 1.388 . S
C388 C393 1.418 . S
C389 H384 0.930 . S
C389 C392 1.404 . S
C389 C393 1.353 . S
N390 Co355 2.145 . S
N390 C391 1.397 . S
N390 C392 1.334 . S
C391 H372 0.929 . S
C391 C388 1.388 . S
C391 N390 1.397 . S
C392 H373 0.929 . S
C392 C389 1.404 . S
C392 N390 1.334 . S
C393 H385 0.930 . S
C393 C388 1.418 . S
C393 C389 1.353 . S
C394 H364 0.930 1_554 S
C394 N395 1.330 1_554 S
C394 C396 1.446 . S
N395 Co354 2.151 . S
N395 C394 1.330 1_556 S
N395 C399 1.418 1_556 S
C396 H375 0.929 . S
C396 C394 1.446 . S
C396 C397 1.332 . S
C397 H377 0.931 . S
C397 C396 1.332 . S
C397 C398 1.267 . S
C398 H366 0.929 . S
C398 C397 1.267 . S
C398 C399 1.251 . S
C399 H369 0.929 . S
C399 N395 1.418 1_554 S
C399 C398 1.251 . S
C400 H367 0.930 . S
C400 C402 1.406 . S
C400 C405 1.261 . S
C401 H368 0.930 . S
C401 N403 1.325 . S
C401 C404 1.357 . S
C402 H370 0.928 . S
C402 C400 1.406 . S
C402 N403 1.261 . S
N403 Co354 2.214 . S
N403 C401 1.325 . S
N403 C402 1.261 . S
C404 H374 0.931 . S
C404 C401 1.357 . S
C404 C405 1.312 . S
C405 H376 0.930 . S
C405 C400 1.261 . S
C405 C404 1.312 . S
C406 O378 1.214 . S
C406 O386 1.234 . S
C407 H379 0.929 . S
C407 C410 1.391 . S
C407 C412 1.391 . S
C408 H380 0.929 . S
C408 C409 1.390 . S
C408 N411 1.391 . S
C409 H381 0.930 . S
C409 C408 1.390 . S
C409 C410 1.392 . S
C410 H382 0.929 . S
C410 C407 1.391 . S
C410 C409 1.392 . S
N411 Co355 2.257 . S
N411 C408 1.391 . S
N411 C412 1.388 . S
C412 H383 0.930 . S
C412 C407 1.391 . S
C412 N411 1.388 . S
Co413 O415 2.143 . S
Co413 O421 2.074 . S
Co413 O424 2.093 1_554 S
Co413 O437 2.097 1_554 S
Co413 N454 2.151 . S
Co413 N462 2.214 . S
Co414 O415 2.160 . S
Co414 O420 2.058 . S
Co414 O430 2.057 . S
Co414 O445 2.037 1_554 S
Co414 N449 2.145 . S
Co414 N470 2.257 1_554 S
O415 Co413 2.143 . S
O415 Co414 2.160 . S
C416 O417 1.278 . S
C416 O424 1.224 . S
O417 C416 1.278 . S
C418 O419 1.245 . S
C418 O430 1.232 . S
O419 C418 1.245 . S
O420 Co414 2.058 . S
O420 C446 1.269 . S
O421 Co413 2.074 . S
O421 C446 1.257 . S
H422 C447 0.930 . S
H423 C453 0.930 . S
O424 Co413 2.093 1_556 S
O424 C416 1.224 . S
H425 C457 0.929 . S
H426 C459 0.930 . S
H427 C460 0.930 . S
H428 C458 0.929 . S
H429 C461 0.928 . S
O430 Co414 2.057 . S
O430 C418 1.232 . S
H431 C450 0.929 . S
H432 C451 0.929 . S
H433 C463 0.931 . S
H434 C455 0.929 . S
H435 C464 0.930 . S
H436 C456 0.931 . S
O437 Co413 2.097 1_556 S
O437 C465 1.214 . S
H438 C466 0.929 . S
H439 C467 0.929 . S
H440 C468 0.930 . S
H441 C469 0.929 . S
H442 C471 0.930 . S
H443 C448 0.930 . S
H444 C452 0.930 . S
O445 Co414 2.037 1_556 S
O445 C465 1.234 . S
C446 O420 1.269 . S
C446 O421 1.257 . S
C447 H422 0.930 . S
C447 C450 1.388 . S
C447 C452 1.418 . S
C448 H443 0.930 . S
C448 C451 1.404 . S
C448 C452 1.353 1_554 S
N449 Co414 2.145 . S
N449 C450 1.397 1_554 S
N449 C451 1.334 . S
C450 H431 0.929 . S
C450 C447 1.388 . S
C450 N449 1.397 1_556 S
C451 H432 0.929 . S
C451 C448 1.404 . S
C451 N449 1.334 . S
C452 H444 0.930 . S
C452 C447 1.418 . S
C452 C448 1.353 1_556 S
C453 H423 0.930 . S
C453 N454 1.330 . S
C453 C455 1.446 . S
N454 Co413 2.151 . S
N454 C453 1.330 . S
N454 C458 1.418 . S
C455 H434 0.929 . S
C455 C453 1.446 . S
C455 C456 1.332 . S
C456 H436 0.931 . S
C456 C455 1.332 . S
C456 C457 1.267 . S
C457 H425 0.929 . S
C457 C456 1.267 . S
C457 C458 1.251 . S
C458 H428 0.929 . S
C458 N454 1.418 . S
C458 C457 1.251 . S
C459 H426 0.930 . S
C459 C461 1.406 . S
C459 C464 1.261 . S
C460 H427 0.930 . S
C460 N462 1.325 . S
C460 C463 1.357 . S
C461 H429 0.928 . S
C461 C459 1.406 . S
C461 N462 1.261 . S
N462 Co413 2.214 . S
N462 C460 1.325 . S
N462 C461 1.261 . S
C463 H433 0.931 . S
C463 C460 1.357 . S
C463 C464 1.312 . S
C464 H435 0.930 . S
C464 C459 1.261 . S
C464 C463 1.312 . S
C465 O437 1.214 . S
C465 O445 1.234 . S
C466 H438 0.929 . S
C466 C469 1.391 . S
C466 C471 1.391 . S
C467 H439 0.929 . S
C467 C468 1.390 . S
C467 N470 1.391 . S
C468 H440 0.930 . S
C468 C467 1.390 . S
C468 C469 1.392 . S
C469 H441 0.929 . S
C469 C466 1.391 . S
C469 C468 1.392 . S
N470 Co414 2.257 1_556 S
N470 C467 1.391 . S
N470 C471 1.388 . S
C471 H442 0.930 . S
C471 C466 1.391 . S
C471 N470 1.388 . S
Co472 O474 2.143 . S
Co472 O480 2.074 . S
Co472 O483 2.093 . S
Co472 O496 2.097 . S
Co472 N513 2.151 . S
Co472 N521 2.214 . S
Co473 O474 2.160 . S
Co473 O479 2.058 . S
Co473 O489 2.057 . S
Co473 O504 2.037 . S
Co473 N508 2.145 . S
Co473 N529 2.257 . S
O474 Co472 2.143 . S
O474 Co473 2.160 . S
C475 O476 1.278 . S
C475 O483 1.224 . S
O476 C475 1.278 . S
C477 O478 1.245 . S
C477 O489 1.232 . S
O478 C477 1.245 . S
O479 Co473 2.058 . S
O479 C505 1.269 . S
O480 Co472 2.074 . S
O480 C505 1.257 . S
H481 C506 0.930 . S
H482 C512 0.930 . S
O483 Co472 2.093 . S
O483 C475 1.224 . S
H484 C516 0.929 . S
H485 C518 0.930 . S
H486 C519 0.930 . S
H487 C517 0.929 . S
H488 C520 0.928 . S
O489 Co473 2.057 . S
O489 C477 1.232 . S
H490 C509 0.929 . S
H491 C510 0.929 . S
H492 C522 0.931 . S
H493 C514 0.929 . S
H494 C523 0.930 . S
H495 C515 0.931 . S
O496 Co472 2.097 . S
O496 C524 1.214 . S
H497 C525 0.929 . S
H498 C526 0.929 . S
H499 C527 0.930 . S
H500 C528 0.929 . S
H501 C530 0.930 . S
H502 C507 0.930 . S
H503 C511 0.930 . S
O504 Co473 2.037 . S
O504 C524 1.234 . S
C505 O479 1.269 . S
C505 O480 1.257 . S
C506 H481 0.930 . S
C506 C509 1.388 . S
C506 C511 1.418 . S
C507 H502 0.930 . S
C507 C510 1.404 . S
C507 C511 1.353 . S
N508 Co473 2.145 . S
N508 C509 1.397 . S
N508 C510 1.334 . S
C509 H490 0.929 . S
C509 C506 1.388 . S
C509 N508 1.397 . S
C510 H491 0.929 . S
C510 C507 1.404 . S
C510 N508 1.334 . S
C511 H503 0.930 . S
C511 C506 1.418 . S
C511 C507 1.353 . S
C512 H482 0.930 . S
C512 N513 1.330 . S
C512 C514 1.446 . S
N513 Co472 2.151 . S
N513 C512 1.330 . S
N513 C517 1.418 . S
C514 H493 0.929 . S
C514 C512 1.446 . S
C514 C515 1.332 1_554 S
C515 H495 0.931 . S
C515 C514 1.332 1_556 S
C515 C516 1.267 . S
C516 H484 0.929 . S
C516 C515 1.267 . S
C516 C517 1.251 1_556 S
C517 H487 0.929 . S
C517 N513 1.418 . S
C517 C516 1.251 1_554 S
C518 H485 0.930 . S
C518 C520 1.406 . S
C518 C523 1.261 . S
C519 H486 0.930 . S
C519 N521 1.325 . S
C519 C522 1.357 . S
C520 H488 0.928 . S
C520 C518 1.406 . S
C520 N521 1.261 . S
N521 Co472 2.214 . S
N521 C519 1.325 . S
N521 C520 1.261 . S
C522 H492 0.931 . S
C522 C519 1.357 . S
C522 C523 1.312 . S
C523 H494 0.930 . S
C523 C518 1.261 . S
C523 C522 1.312 . S
C524 O496 1.214 . S
C524 O504 1.234 . S
C525 H497 0.929 . S
C525 C528 1.391 . S
C525 C530 1.391 . S
C526 H498 0.929 . S
C526 C527 1.390 . S
C526 N529 1.391 . S
C527 H499 0.930 . S
C527 C526 1.390 . S
C527 C528 1.392 . S
C528 H500 0.929 . S
C528 C525 1.391 . S
C528 C527 1.392 . S
N529 Co473 2.257 . S
N529 C526 1.391 . S
N529 C530 1.388 . S
C530 H501 0.930 . S
C530 C525 1.391 . S
C530 N529 1.388 . S
Co531 O533 2.143 . S
Co531 O539 2.074 . S
Co531 O542 2.093 . S
Co531 O555 2.097 . S
Co531 N572 2.151 . S
Co531 N580 2.214 . S
Co532 O533 2.160 . S
Co532 O538 2.058 . S
Co532 O548 2.057 . S
Co532 O563 2.037 . S
Co532 N567 2.145 . S
Co532 N588 2.257 . S
O533 Co531 2.143 . S
O533 Co532 2.160 . S
C534 O535 1.278 . S
C534 O542 1.224 . S
O535 C534 1.278 . S
C536 O537 1.245 . S
C536 O548 1.232 . S
O537 C536 1.245 . S
O538 Co532 2.058 . S
O538 C564 1.269 . S
O539 Co531 2.074 . S
O539 C564 1.257 . S
H540 C565 0.930 . S
H541 C571 0.930 . S
O542 Co531 2.093 . S
O542 C534 1.224 . S
H543 C575 0.929 . S
H544 C577 0.930 . S
H545 C578 0.930 . S
H546 C576 0.929 . S
H547 C579 0.928 . S
O548 Co532 2.057 . S
O548 C536 1.232 . S
H549 C568 0.929 . S
H550 C569 0.929 . S
H551 C581 0.931 . S
H552 C573 0.929 . S
H553 C582 0.930 . S
H554 C574 0.931 . S
O555 Co531 2.097 . S
O555 C583 1.214 . S
H556 C584 0.929 . S
H557 C585 0.929 . S
H558 C586 0.930 . S
H559 C587 0.929 . S
H560 C589 0.930 . S
H561 C566 0.930 . S
H562 C570 0.930 . S
O563 Co532 2.037 . S
O563 C583 1.234 . S
C564 O538 1.269 . S
C564 O539 1.257 . S
C565 H540 0.930 . S
C565 C568 1.388 . S
C565 C570 1.418 . S
C566 H561 0.930 . S
C566 C569 1.404 . S
C566 C570 1.353 . S
N567 Co532 2.145 . S
N567 C568 1.397 . S
N567 C569 1.334 . S
C568 H549 0.929 . S
C568 C565 1.388 . S
C568 N567 1.397 . S
C569 H550 0.929 . S
C569 C566 1.404 . S
C569 N567 1.334 . S
C570 H562 0.930 . S
C570 C565 1.418 . S
C570 C566 1.353 . S
C571 H541 0.930 . S
C571 N572 1.330 . S
C571 C573 1.446 . S
N572 Co531 2.151 . S
N572 C571 1.330 . S
N572 C576 1.418 . S
C573 H552 0.929 . S
C573 C571 1.446 . S
C573 C574 1.332 . S
C574 H554 0.931 . S
C574 C573 1.332 . S
C574 C575 1.267 . S
C575 H543 0.929 . S
C575 C574 1.267 . S
C575 C576 1.251 . S
C576 H546 0.929 . S
C576 N572 1.418 . S
C576 C575 1.251 . S
C577 H544 0.930 . S
C577 C579 1.406 . S
C577 C582 1.261 . S
C578 H545 0.930 . S
C578 N580 1.325 . S
C578 C581 1.357 . S
C579 H547 0.928 . S
C579 C577 1.406 . S
C579 N580 1.261 . S
N580 Co531 2.214 . S
N580 C578 1.325 . S
N580 C579 1.261 . S
C581 H551 0.931 . S
C581 C578 1.357 . S
C581 C582 1.312 . S
C582 H553 0.930 . S
C582 C577 1.261 . S
C582 C581 1.312 . S
C583 O555 1.214 . S
C583 O563 1.234 . S
C584 H556 0.929 . S
C584 C587 1.391 . S
C584 C589 1.391 . S
C585 H557 0.929 . S
C585 C586 1.390 . S
C585 N588 1.391 . S
C586 H558 0.930 . S
C586 C585 1.390 . S
C586 C587 1.392 . S
C587 H559 0.929 . S
C587 C584 1.391 . S
C587 C586 1.392 . S
N588 Co532 2.257 . S
N588 C585 1.391 . S
N588 C589 1.388 . S
C589 H560 0.930 . S
C589 C584 1.391 . S
C589 N588 1.388 . S
Co590 O592 2.143 . S
Co590 O598 2.074 . S
Co590 O601 2.093 . S
Co590 O614 2.097 . S
Co590 N631 2.151 . S
Co590 N639 2.214 . S
Co591 O592 2.160 . S
Co591 O597 2.058 . S
Co591 O607 2.057 . S
Co591 O622 2.037 . S
Co591 N626 2.145 . S
Co591 N647 2.257 . S
O592 Co590 2.143 . S
O592 Co591 2.160 . S
C593 O594 1.278 . S
C593 O601 1.224 . S
O594 C593 1.278 . S
C595 O596 1.245 . S
C595 O607 1.232 . S
O596 C595 1.245 . S
O597 Co591 2.058 . S
O597 C623 1.269 . S
O598 Co590 2.074 . S
O598 C623 1.257 . S
H599 C624 0.930 . S
H600 C630 0.930 . S
O601 Co590 2.093 . S
O601 C593 1.224 . S
H602 C634 0.929 . S
H603 C636 0.930 . S
H604 C637 0.930 . S
H605 C635 0.929 . S
H606 C638 0.928 . S
O607 Co591 2.057 . S
O607 C595 1.232 . S
H608 C627 0.929 . S
H609 C628 0.929 . S
H610 C640 0.931 . S
H611 C632 0.929 . S
H612 C641 0.930 . S
H613 C633 0.931 . S
O614 Co590 2.097 . S
O614 C642 1.214 . S
H615 C643 0.929 . S
H616 C644 0.929 . S
H617 C645 0.930 . S
H618 C646 0.929 . S
H619 C648 0.930 . S
H620 C625 0.930 . S
H621 C629 0.930 . S
O622 Co591 2.037 . S
O622 C642 1.234 . S
C623 O597 1.269 . S
C623 O598 1.257 . S
C624 H599 0.930 . S
C624 C627 1.388 . S
C624 C629 1.418 . S
C625 H620 0.930 . S
C625 C628 1.404 . S
C625 C629 1.353 . S
N626 Co591 2.145 . S
N626 C627 1.397 . S
N626 C628 1.334 . S
C627 H608 0.929 . S
C627 C624 1.388 . S
C627 N626 1.397 . S
C628 H609 0.929 . S
C628 C625 1.404 . S
C628 N626 1.334 . S
C629 H621 0.930 . S
C629 C624 1.418 . S
C629 C625 1.353 . S
C630 H600 0.930 . S
C630 N631 1.330 . S
C630 C632 1.446 . S
N631 Co590 2.151 . S
N631 C630 1.330 . S
N631 C635 1.418 . S
C632 H611 0.929 . S
C632 C630 1.446 . S
C632 C633 1.332 . S
C633 H613 0.931 . S
C633 C632 1.332 . S
C633 C634 1.267 . S
C634 H602 0.929 . S
C634 C633 1.267 . S
C634 C635 1.251 . S
C635 H605 0.929 . S
C635 N631 1.418 . S
C635 C634 1.251 . S
C636 H603 0.930 . S
C636 C638 1.406 . S
C636 C641 1.261 . S
C637 H604 0.930 . S
C637 N639 1.325 . S
C637 C640 1.357 . S
C638 H606 0.928 . S
C638 C636 1.406 . S
C638 N639 1.261 . S
N639 Co590 2.214 . S
N639 C637 1.325 . S
N639 C638 1.261 . S
C640 H610 0.931 . S
C640 C637 1.357 . S
C640 C641 1.312 . S
C641 H612 0.930 . S
C641 C636 1.261 . S
C641 C640 1.312 . S
C642 O614 1.214 . S
C642 O622 1.234 . S
C643 H615 0.929 . S
C643 C646 1.391 . S
C643 C648 1.391 . S
C644 H616 0.929 . S
C644 C645 1.390 . S
C644 N647 1.391 . S
C645 H617 0.930 . S
C645 C644 1.390 . S
C645 C646 1.392 . S
C646 H618 0.929 . S
C646 C643 1.391 . S
C646 C645 1.392 . S
N647 Co591 2.257 . S
N647 C644 1.391 . S
N647 C648 1.388 . S
C648 H619 0.930 . S
C648 C643 1.391 . S
C648 N647 1.388 . S
Co649 O651 2.143 . S
Co649 O657 2.074 . S
Co649 O660 2.093 . S
Co649 O673 2.097 . S
Co649 N690 2.151 . S
Co649 N698 2.214 . S
Co650 O651 2.160 . S
Co650 O656 2.058 . S
Co650 O666 2.057 . S
Co650 O681 2.037 . S
Co650 N685 2.145 . S
Co650 N706 2.257 . S
O651 Co649 2.143 . S
O651 Co650 2.160 . S
C652 O653 1.278 . S
C652 O660 1.224 . S
O653 C652 1.278 . S
C654 O655 1.245 . S
C654 O666 1.232 . S
O655 C654 1.245 . S
O656 Co650 2.058 . S
O656 C682 1.269 . S
O657 Co649 2.074 . S
O657 C682 1.257 . S
H658 C683 0.930 . S
H659 C689 0.930 . S
O660 Co649 2.093 . S
O660 C652 1.224 . S
H661 C693 0.929 . S
H662 C695 0.930 . S
H663 C696 0.930 . S
H664 C694 0.929 . S
H665 C697 0.928 . S
O666 Co650 2.057 . S
O666 C654 1.232 . S
H667 C686 0.929 . S
H668 C687 0.929 . S
H669 C699 0.931 . S
H670 C691 0.929 . S
H671 C700 0.930 . S
H672 C692 0.931 . S
O673 Co649 2.097 . S
O673 C701 1.214 . S
H674 C702 0.929 . S
H675 C703 0.929 . S
H676 C704 0.930 1_554 S
H677 C705 0.929 1_554 S
H678 C707 0.930 . S
H679 C684 0.930 . S
H680 C688 0.930 . S
O681 Co650 2.037 . S
O681 C701 1.234 . S
C682 O656 1.269 . S
C682 O657 1.257 . S
C683 H658 0.930 . S
C683 C686 1.388 . S
C683 C688 1.418 . S
C684 H679 0.930 . S
C684 C687 1.404 . S
C684 C688 1.353 . S
N685 Co650 2.145 . S
N685 C686 1.397 . S
N685 C687 1.334 . S
C686 H667 0.929 . S
C686 C683 1.388 . S
C686 N685 1.397 . S
C687 H668 0.929 . S
C687 C684 1.404 . S
C687 N685 1.334 . S
C688 H680 0.930 . S
C688 C683 1.418 . S
C688 C684 1.353 . S
C689 H659 0.930 . S
C689 N690 1.330 . S
C689 C691 1.446 . S
N690 Co649 2.151 . S
N690 C689 1.330 . S
N690 C694 1.418 . S
C691 H670 0.929 . S
C691 C689 1.446 . S
C691 C692 1.332 . S
C692 H672 0.931 . S
C692 C691 1.332 . S
C692 C693 1.267 . S
C693 H661 0.929 . S
C693 C692 1.267 . S
C693 C694 1.251 . S
C694 H664 0.929 . S
C694 N690 1.418 . S
C694 C693 1.251 . S
C695 H662 0.930 . S
C695 C697 1.406 . S
C695 C700 1.261 . S
C696 H663 0.930 . S
C696 N698 1.325 . S
C696 C699 1.357 . S
C697 H665 0.928 . S
C697 C695 1.406 . S
C697 N698 1.261 . S
N698 Co649 2.214 . S
N698 C696 1.325 . S
N698 C697 1.261 . S
C699 H669 0.931 . S
C699 C696 1.357 . S
C699 C700 1.312 . S
C700 H671 0.930 . S
C700 C695 1.261 . S
C700 C699 1.312 . S
C701 O673 1.214 . S
C701 O681 1.234 . S
C702 H674 0.929 . S
C702 C705 1.391 . S
C702 C707 1.391 . S
C703 H675 0.929 . S
C703 C704 1.390 . S
C703 N706 1.391 . S
C704 H676 0.930 1_556 S
C704 C703 1.390 . S
C704 C705 1.392 . S
C705 H677 0.929 1_556 S
C705 C702 1.391 . S
C705 C704 1.392 . S
N706 Co650 2.257 . S
N706 C703 1.391 . S
N706 C707 1.388 . S
C707 H678 0.930 . S
C707 C702 1.391 . S
C707 N706 1.388 . S
C708 C709 1.387 . S
C708 H712 0.950 . S
C708 C717 1.390 . S
C709 C708 1.387 . S
C709 C711 1.387 . S
H710 C717 0.950 . S
C711 C709 1.387 . S
C711 C713 1.390 . S
C711 H715 0.950 . S
H712 C708 0.950 . S
C713 C711 1.390 . S
C713 C714 1.387 . S
C713 H716 0.950 . S
C714 C713 1.387 . S
C714 C717 1.387 . S
H715 C711 0.950 . S
H716 C713 0.950 . S
C717 C708 1.390 . S
C717 H710 0.950 . S
C717 C714 1.387 . S
C718 C719 1.387 . S
C718 H722 0.950 . S
C718 C727 1.390 . S
C719 C718 1.387 . S
C719 C721 1.387 . S
H720 C727 0.950 . S
C721 C719 1.387 . S
C721 C723 1.390 . S
C721 H725 0.950 . S
H722 C718 0.950 . S
C723 C721 1.390 . S
C723 C724 1.387 . S
C723 H726 0.950 . S
C724 C723 1.387 . S
C724 C727 1.387 . S
H725 C721 0.950 . S
H726 C723 0.950 . S
C727 C718 1.390 . S
C727 H720 0.950 . S
C727 C724 1.387 . S
C728 C729 1.387 . S
C728 H732 0.950 . S
C728 C737 1.390 . S
C729 C728 1.387 . S
C729 C731 1.387 . S
H730 C737 0.950 . S
C731 C729 1.387 . S
C731 C733 1.390 . S
C731 H735 0.950 . S
H732 C728 0.950 . S
C733 C731 1.390 . S
C733 C734 1.387 . S
C733 H736 0.950 . S
C734 C733 1.387 . S
C734 C737 1.387 . S
H735 C731 0.950 . S
H736 C733 0.950 . S
C737 C728 1.390 . S
C737 H730 0.950 . S
C737 C734 1.387 . S
C738 C739 1.387 . S
C738 H742 0.950 . S
C738 C747 1.390 . S
C739 C738 1.387 . S
C739 C741 1.387 . S
H740 C747 0.950 . S
C741 C739 1.387 . S
C741 C743 1.390 . S
C741 H745 0.950 . S
H742 C738 0.950 . S
C743 C741 1.390 . S
C743 C744 1.387 . S
C743 H746 0.950 . S
C744 C743 1.387 . S
C744 C747 1.387 . S
H745 C741 0.950 . S
H746 C743 0.950 . S
C747 C738 1.390 . S
C747 H740 0.950 . S
C747 C744 1.387 . S
C748 C749 1.387 . S
C748 H752 0.950 . S
C748 C757 1.390 . S
C749 C748 1.387 . S
C749 C751 1.387 . S
H750 C757 0.950 . S
C751 C749 1.387 . S
C751 C753 1.390 1_556 S
C751 H755 0.950 . S
H752 C748 0.950 . S
C753 C751 1.390 1_554 S
C753 C754 1.387 . S
C753 H756 0.950 . S
C754 C753 1.387 . S
C754 C757 1.387 1_554 S
H755 C751 0.950 . S
H756 C753 0.950 . S
C757 C748 1.390 . S
C757 H750 0.950 . S
C757 C754 1.387 1_556 S
C758 C759 1.387 . S
C758 H762 0.950 . S
C758 C767 1.390 . S
C759 C758 1.387 . S
C759 C761 1.387 . S
H760 C767 0.950 1_556 S
C761 C759 1.387 . S
C761 C763 1.390 . S
C761 H765 0.950 . S
H762 C758 0.950 . S
C763 C761 1.390 . S
C763 C764 1.387 . S
C763 H766 0.950 . S
C764 C763 1.387 . S
C764 C767 1.387 . S
H765 C761 0.950 . S
H766 C763 0.950 . S
C767 C758 1.390 . S
C767 H760 0.950 1_554 S
C767 C764 1.387 . S
C768 C769 1.387 . S
C768 H772 0.950 . S
C768 C777 1.390 . S
C769 C768 1.387 . S
C769 C771 1.387 . S
H770 C777 0.950 1_556 S
C771 C769 1.387 . S
C771 C773 1.390 . S
C771 H775 0.950 . S
H772 C768 0.950 . S
C773 C771 1.390 . S
C773 C774 1.387 . S
C773 H776 0.950 . S
C774 C773 1.387 . S
C774 C777 1.387 . S
H775 C771 0.950 . S
H776 C773 0.950 . S
C777 C768 1.390 . S
C777 H770 0.950 1_554 S
C777 C774 1.387 . S
C778 C779 1.387 . S
C778 H782 0.950 . S
C778 C787 1.390 . S
C779 C778 1.387 . S
C779 C781 1.387 . S
H780 C787 0.950 . S
C781 C779 1.387 . S
C781 C783 1.390 . S
C781 H785 0.950 . S
H782 C778 0.950 . S
C783 C781 1.390 . S
C783 C784 1.387 . S
C783 H786 0.950 . S
C784 C783 1.387 . S
C784 C787 1.387 . S
H785 C781 0.950 . S
H786 C783 0.950 . S
C787 C778 1.390 . S
C787 H780 0.950 . S
C787 C784 1.387 . S
C788 C789 1.387 . S
C788 H792 0.950 . S
C788 C797 1.390 . S
C789 C788 1.387 . S
C789 C791 1.387 . S
H790 C797 0.950 . S
C791 C789 1.387 . S
C791 C793 1.390 . S
C791 H795 0.950 . S
H792 C788 0.950 . S
C793 C791 1.390 . S
C793 C794 1.387 . S
C793 H796 0.950 . S
C794 C793 1.387 . S
C794 C797 1.387 . S
H795 C791 0.950 . S
H796 C793 0.950 . S
C797 C788 1.390 . S
C797 H790 0.950 . S
C797 C794 1.387 . S
C798 C799 1.387 . S
C798 H802 0.950 . S
C798 C807 1.390 . S
C799 C798 1.387 . S
C799 C801 1.387 . S
H800 C807 0.950 . S
C801 C799 1.387 . S
C801 C803 1.390 . S
C801 H805 0.950 . S
H802 C798 0.950 . S
C803 C801 1.390 . S
C803 C804 1.387 . S
C803 H806 0.950 . S
C804 C803 1.387 . S
C804 C807 1.387 . S
H805 C801 0.950 . S
H806 C803 0.950 . S
C807 C798 1.390 . S
C807 H800 0.950 . S
C807 C804 1.387 . S
C808 C809 1.387 . S
C808 H812 0.950 . S
C808 C817 1.390 . S
C809 C808 1.387 . S
C809 C811 1.387 . S
H810 C817 0.950 . S
C811 C809 1.387 . S
C811 C813 1.390 . S
C811 H815 0.950 . S
H812 C808 0.950 . S
C813 C811 1.390 . S
C813 C814 1.387 . S
C813 H816 0.950 . S
C814 C813 1.387 . S
C814 C817 1.387 . S
H815 C811 0.950 . S
H816 C813 0.950 . S
C817 C808 1.390 . S
C817 H810 0.950 . S
C817 C814 1.387 . S
C818 C819 1.387 1_554 S
C818 H822 0.950 . S
C818 C827 1.390 . S
C819 C818 1.387 1_556 S
C819 C821 1.387 . S
H820 C827 0.950 . S
C821 C819 1.387 . S
C821 C823 1.390 . S
C821 H825 0.950 . S
H822 C818 0.950 . S
C823 C821 1.390 . S
C823 C824 1.387 . S
C823 H826 0.950 . S
C824 C823 1.387 . S
C824 C827 1.387 1_556 S
H825 C821 0.950 . S
H826 C823 0.950 . S
C827 C818 1.390 . S
C827 H820 0.950 . S
C827 C824 1.387 1_554 S
C828 C829 1.387 . S
C828 H832 0.950 . S
C828 C837 1.390 . S
C829 C828 1.387 . S
C829 C831 1.387 . S
H830 C837 0.950 . S
C831 C829 1.387 . S
C831 C833 1.390 . S
C831 H835 0.950 . S
H832 C828 0.950 . S
C833 C831 1.390 . S
C833 C834 1.387 . S
C833 H836 0.950 . S
C834 C833 1.387 . S
C834 C837 1.387 . S
H835 C831 0.950 . S
H836 C833 0.950 . S
C837 C828 1.390 . S
C837 H830 0.950 . S
C837 C834 1.387 . S
C838 C839 1.387 . S
C838 H842 0.950 . S
C838 C847 1.390 1_554 S
C839 C838 1.387 . S
C839 C841 1.387 1_554 S
H840 C847 0.950 . S
C841 C839 1.387 1_556 S
C841 C843 1.390 . S
C841 H845 0.950 . S
H842 C838 0.950 . S
C843 C841 1.390 . S
C843 C844 1.387 . S
C843 H846 0.950 . S
C844 C843 1.387 . S
C844 C847 1.387 . S
H845 C841 0.950 . S
H846 C843 0.950 . S
C847 C838 1.390 1_556 S
C847 H840 0.950 . S
C847 C844 1.387 . S
C848 C849 1.387 . S
C848 H852 0.950 . S
C848 C857 1.390 . S
C849 C848 1.387 . S
C849 C851 1.387 . S
H850 C857 0.950 . S
C851 C849 1.387 . S
C851 C853 1.390 . S
C851 H855 0.950 . S
H852 C848 0.950 . S
C853 C851 1.390 . S
C853 C854 1.387 . S
C853 H856 0.949 . S
C854 C853 1.387 . S
C854 C857 1.387 . S
H855 C851 0.950 . S
H856 C853 0.949 . S
C857 C848 1.390 . S
C857 H850 0.950 . S
C857 C854 1.387 . S
C858 C859 1.387 . S
C858 H862 0.950 . S
C858 C867 1.390 . S
C859 C858 1.387 . S
C859 C861 1.387 . S
H860 C867 0.950 . S
C861 C859 1.387 . S
C861 C863 1.390 . S
C861 H865 0.950 . S
H862 C858 0.950 . S
C863 C861 1.390 . S
C863 C864 1.387 . S
C863 H866 0.950 . S
C864 C863 1.387 . S
C864 C867 1.387 . S
H865 C861 0.950 . S
H866 C863 0.950 . S
C867 C858 1.390 . S
C867 H860 0.950 . S
C867 C864 1.387 . S
C868 C869 1.387 . S
C868 H872 0.950 . S
C868 C877 1.390 . S
C869 C868 1.387 . S
C869 C871 1.387 . S
H870 C877 0.950 . S
C871 C869 1.387 . S
C871 C873 1.390 . S
C871 H875 0.950 . S
H872 C868 0.950 . S
C873 C871 1.390 . S
C873 C874 1.387 . S
C873 H876 0.950 . S
C874 C873 1.387 . S
C874 C877 1.387 . S
H875 C871 0.950 . S
H876 C873 0.950 . S
C877 C868 1.390 . S
C877 H870 0.950 . S
C877 C874 1.387 . S
C878 C879 1.387 . S
C878 H882 0.950 . S
C878 C887 1.390 . S
C879 C878 1.387 . S
C879 C881 1.387 . S
H880 C887 0.950 . S
C881 C879 1.387 . S
C881 C883 1.390 . S
C881 H885 0.950 . S
H882 C878 0.950 . S
C883 C881 1.390 . S
C883 C884 1.387 . S
C883 H886 0.950 . S
C884 C883 1.387 . S
C884 C887 1.387 . S
H885 C881 0.950 . S
H886 C883 0.950 . S
C887 C878 1.390 . S
C887 H880 0.950 . S
C887 C884 1.387 . S
C888 C889 1.387 . S
C888 H892 0.950 . S
C888 C897 1.390 1_455 S
C889 C888 1.387 . S
C889 C891 1.387 . S
H890 C897 0.950 . S
C891 C889 1.387 . S
C891 C893 1.390 1_455 S
C891 H895 0.950 . S
H892 C888 0.950 . S
C893 C891 1.390 1_655 S
C893 C894 1.387 . S
C893 H896 0.950 . S
C894 C893 1.387 . S
C894 C897 1.387 . S
H895 C891 0.950 . S
H896 C893 0.950 . S
C897 C888 1.390 1_655 S
C897 H890 0.950 . S
C897 C894 1.387 . S
C898 C899 1.387 . S
C898 H902 0.950 . S
C898 C907 1.390 1_565 S
C899 C898 1.387 . S
C899 C901 1.387 . S
H900 C907 0.950 . S
C901 C899 1.387 . S
C901 C903 1.390 1_565 S
C901 H905 0.950 . S
H902 C898 0.950 . S
C903 C901 1.390 1_545 S
C903 C904 1.387 . S
C903 H906 0.950 . S
C904 C903 1.387 . S
C904 C907 1.387 . S
H905 C901 0.950 . S
H906 C903 0.950 . S
C907 C898 1.390 1_545 S
C907 H900 0.950 . S
C907 C904 1.387 . S
C908 C909 1.387 . S
C908 H912 0.950 . S
C908 C917 1.390 . S
C909 C908 1.387 . S
C909 C911 1.387 . S
H910 C917 0.950 . S
C911 C909 1.387 . S
C911 C913 1.390 . S
C911 H915 0.950 . S
H912 C908 0.950 . S
C913 C911 1.390 . S
C913 C914 1.387 . S
C913 H916 0.950 . S
C914 C913 1.387 . S
C914 C917 1.387 . S
H915 C911 0.950 . S
H916 C913 0.950 . S
C917 C908 1.390 . S
C917 H910 0.950 . S
C917 C914 1.387 . S
C918 C919 1.387 . S
C918 H922 0.950 . S
C918 C927 1.390 1_455 S
C919 C918 1.387 . S
C919 C921 1.387 . S
H920 C927 0.950 . S
C921 C919 1.387 . S
C921 C923 1.390 1_455 S
C921 H925 0.950 . S
H922 C918 0.950 . S
C923 C921 1.390 1_655 S
C923 C924 1.387 . S
C923 H926 0.950 . S
C924 C923 1.387 . S
C924 C927 1.387 . S
H925 C921 0.950 . S
H926 C923 0.950 . S
C927 C918 1.390 1_655 S
C927 H920 0.950 . S
C927 C924 1.387 . S
C928 C929 1.387 . S
C928 H932 0.950 . S
C928 C937 1.390 1_545 S
C929 C928 1.387 . S
C929 C931 1.387 . S
H930 C937 0.950 . S
C931 C929 1.387 . S
C931 C933 1.390 1_545 S
C931 H935 0.950 . S
H932 C928 0.950 . S
C933 C931 1.390 1_565 S
C933 C934 1.387 . S
C933 H936 0.950 . S
C934 C933 1.387 . S
C934 C937 1.387 . S
H935 C931 0.950 . S
H936 C933 0.950 . S
C937 C928 1.390 1_565 S
C937 H930 0.950 . S
C937 C934 1.387 . S
C938 C939 1.387 . S
C938 H942 0.950 . S
C938 C947 1.390 . S
C939 C938 1.387 . S
C939 C941 1.387 . S
H940 C947 0.950 . S
C941 C939 1.387 . S
C941 C943 1.390 . S
C941 H945 0.950 . S
H942 C938 0.950 . S
C943 C941 1.390 . S
C943 C944 1.387 . S
C943 H946 0.950 . S
C944 C943 1.387 . S
C944 C947 1.387 . S
H945 C941 0.950 . S
H946 C943 0.950 . S
C947 C938 1.390 . S
C947 H940 0.950 . S
C947 C944 1.387 . S
C709 C52 1.649 . S
C714 C642 1.649 . S
C719 C682 1.651 . S
C724 C111 1.649 . S
C729 C151 1.650 . S
C734 C406 1.649 . S
C739 C229 1.650 . S
C744 C465 1.650 . S
C749 C288 1.650 . S
C754 C505 1.650 . S
C759 C583 1.649 . S
C764 C328 1.650 1_554 S
C769 C3 1.714 . S
C774 C477 1.711 . S
C779 C62 1.716 . S
C784 C534 1.715 . S
C789 C593 1.715 . S
C794 C123 1.711 . S
C799 C180 1.714 . S
C804 C654 1.711 . S
C809 C239 1.716 . S
C814 C357 1.716 . S
C819 C300 1.711 . S
C824 C416 1.714 . S
C829 C623 1.659 . S
C834 C33 1.659 . S
C839 C92 1.658 . S
C844 C701 1.649 . S
C849 C170 1.649 . S
C854 C387 1.660 1_554 S
C859 C210 1.659 . S
C864 C446 1.659 . S
C869 C524 1.649 . S
C874 C269 1.660 . S
C879 C347 1.650 . S
C884 C564 1.659 . S
C889 C5 1.367 . S
C894 C652 1.365 . S
C899 C359 1.369 1_554 S
C904 C64 1.369 . S
C909 C418 1.368 . S
C914 C121 1.365 . S
C919 C475 1.364 . S
C924 C182 1.367 . S
C929 C536 1.369 . S
C934 C241 1.369 . S
C939 C595 1.367 . S
C944 C298 1.365 . S
