# Generated by pormake.
# Topology mon, (4)-cn, num edge types: 1
# Building blocks:
#     Node 0, Type 0, BuildingBlock: TATPOV_clean_sbu_0, # of connection points: 4
#     Node 1, Type 0, BuildingBlock: TATPOV_clean_sbu_0, # of connection points: 4
#     Node 2, Type 0, BuildingBlock: TATPOV_clean_sbu_0, # of connection points: 4
#     Node 3, Type 0, BuildingBlock: TATPOV_clean_sbu_0, # of connection points: 4
#     Node 4, Type 0, BuildingBlock: TATPOV_clean_sbu_0, # of connection points: 4
#     Node 5, Type 0, BuildingBlock: TATPOV_clean_sbu_0, # of connection points: 4
#     Node 6, Type 0, BuildingBlock: TATPOV_clean_sbu_0, # of connection points: 4
#     Node 7, Type 0, BuildingBlock: TATPOV_clean_sbu_0, # of connection points: 4
#     Node 8, Type 0, BuildingBlock: TATPOV_clean_sbu_0, # of connection points: 4
#     Node 9, Type 0, BuildingBlock: TATPOV_clean_sbu_0, # of connection points: 4
#     Node 10, Type 0, BuildingBlock: TATPOV_clean_sbu_0, # of connection points: 4
#     Node 11, Type 0, BuildingBlock: TATPOV_clean_sbu_0, # of connection points: 4
#     Node 12, Type 0, BuildingBlock: TATPOV_clean_sbu_0, # of connection points: 4
#     Node 13, Type 0, BuildingBlock: TATPOV_clean_sbu_0, # of connection points: 4
#     Node 14, Type 0, BuildingBlock: TATPOV_clean_sbu_0, # of connection points: 4
#     Node 15, Type 0, BuildingBlock: TATPOV_clean_sbu_0, # of connection points: 4
#     Edge 16, Type (0, 0), BuildingBlock: XIVTED_clean_linker_0, # of connection points: 2
#     Edge 17, Type (0, 0), BuildingBlock: XIVTED_clean_linker_0, # of connection points: 2
#     Edge 18, Type (0, 0), BuildingBlock: XIVTED_clean_linker_0, # of connection points: 2
#     Edge 19, Type (0, 0), BuildingBlock: XIVTED_clean_linker_0, # of connection points: 2
#     Edge 20, Type (0, 0), BuildingBlock: XIVTED_clean_linker_0, # of connection points: 2
#     Edge 21, Type (0, 0), BuildingBlock: XIVTED_clean_linker_0, # of connection points: 2
#     Edge 22, Type (0, 0), BuildingBlock: XIVTED_clean_linker_0, # of connection points: 2
#     Edge 23, Type (0, 0), BuildingBlock: XIVTED_clean_linker_0, # of connection points: 2
#     Edge 24, Type (0, 0), BuildingBlock: XIVTED_clean_linker_0, # of connection points: 2
#     Edge 25, Type (0, 0), BuildingBlock: XIVTED_clean_linker_0, # of connection points: 2
#     Edge 26, Type (0, 0), BuildingBlock: XIVTED_clean_linker_0, # of connection points: 2
#     Edge 27, Type (0, 0), BuildingBlock: XIVTED_clean_linker_0, # of connection points: 2
#     Edge 28, Type (0, 0), BuildingBlock: XIVTED_clean_linker_0, # of connection points: 2
#     Edge 29, Type (0, 0), BuildingBlock: XIVTED_clean_linker_0, # of connection points: 2
#     Edge 30, Type (0, 0), BuildingBlock: XIVTED_clean_linker_0, # of connection points: 2
#     Edge 31, Type (0, 0), BuildingBlock: XIVTED_clean_linker_0, # of connection points: 2
#     Edge 32, Type (0, 0), BuildingBlock: XIVTED_clean_linker_0, # of connection points: 2
#     Edge 33, Type (0, 0), BuildingBlock: XIVTED_clean_linker_0, # of connection points: 2
#     Edge 34, Type (0, 0), BuildingBlock: XIVTED_clean_linker_0, # of connection points: 2
#     Edge 35, Type (0, 0), BuildingBlock: XIVTED_clean_linker_0, # of connection points: 2
#     Edge 36, Type (0, 0), BuildingBlock: XIVTED_clean_linker_0, # of connection points: 2
#     Edge 37, Type (0, 0), BuildingBlock: XIVTED_clean_linker_0, # of connection points: 2
#     Edge 38, Type (0, 0), BuildingBlock: XIVTED_clean_linker_0, # of connection points: 2
#     Edge 39, Type (0, 0), BuildingBlock: XIVTED_clean_linker_0, # of connection points: 2
#     Edge 40, Type (0, 0), BuildingBlock: XIVTED_clean_linker_0, # of connection points: 2
#     Edge 41, Type (0, 0), BuildingBlock: XIVTED_clean_linker_0, # of connection points: 2
#     Edge 42, Type (0, 0), BuildingBlock: XIVTED_clean_linker_0, # of connection points: 2
#     Edge 43, Type (0, 0), BuildingBlock: XIVTED_clean_linker_0, # of connection points: 2
#     Edge 44, Type (0, 0), BuildingBlock: XIVTED_clean_linker_0, # of connection points: 2
#     Edge 45, Type (0, 0), BuildingBlock: XIVTED_clean_linker_0, # of connection points: 2
#     Edge 46, Type (0, 0), BuildingBlock: XIVTED_clean_linker_0, # of connection points: 2
#     Edge 47, Type (0, 0), BuildingBlock: XIVTED_clean_linker_0, # of connection points: 2
# Relax obj value: 0.114
# Max RMSD: 0.120
# Mean RMSD: 0.120
data_MOF--net-mon--node1-TATPOV_clean_sbu_0--edge1-XIVTED_clean_linker_0
_symmetry_space_group_name_H-M    P1
_symmetry_Int_Tables_number       1
_symmetry_cell_setting            triclinic
loop_
_symmetry_equiv_pos_as_xyz
'x, y, z'
_cell_length_a     33.027778
_cell_length_b     33.192344
_cell_length_c     88.895113
_cell_angle_alpha  90.206047
_cell_angle_beta   90.05205
_cell_angle_gamma 89.773795
loop_
_atom_site_label
_atom_site_type_symbol
_atom_site_fract_x
_atom_site_fract_y
_atom_site_fract_z
_atom_type_partial_charge
Zn0 Zn 0.97821 0.97851 0.55502 0.0
Zn1 Zn 1.00555 0.04826 0.56015 0.0
O2 O 0.04382 0.01451 0.57367 0.0
O3 O 0.00932 0.95796 0.5728 0.0
O4 O 0.02072 0.10658 0.56286 0.0
O5 O 1.00351 0.97415 0.53485 0.0
O6 O 0.01744 0.03847 0.53759 0.0
C7 C 0.03852 0.97832 0.57801 0.0
C8 C 0.91477 0.02732 0.5637 0.0
O9 O 0.94515 0.04944 0.56682 0.0
O10 O 0.92013 0.99443 0.55678 0.0
C11 C 0.0215 0.12468 0.57549 0.0
O12 O 0.01513 0.10411 0.58786 0.0
C13 C 0.01727 0.00656 0.52954 0.0
Zn14 Zn 0.3364 0.66465 0.79715 0.0
Zn15 Zn 0.26685 0.69667 0.80401 0.0
O16 O 0.30489 0.73855 0.81384 0.0
O17 O 0.3629 0.70767 0.80958 0.0
O18 O 0.20968 0.71631 0.80759 0.0
O19 O 0.33108 0.67435 0.77539 0.0
O20 O 0.2704 0.69793 0.78072 0.0
C21 C 0.34338 0.73723 0.81502 0.0
C22 C 0.28988 0.60988 0.81348 0.0
O23 O 0.2672 0.64093 0.81459 0.0
O24 O 0.32162 0.61118 0.80558 0.0
C25 C 0.19169 0.71358 0.82019 0.0
O26 O 0.2116 0.69947 0.83185 0.0
C27 C 0.29788 0.68944 0.77113 0.0
Zn28 Zn 0.55856 0.06673 0.05086 0.0
Zn29 Zn 0.5357 0.996 0.05972 0.0
O30 O 0.50024 0.03162 0.07358 0.0
O31 O 0.52857 0.09002 0.06852 0.0
O32 O 0.52244 0.93814 0.06426 0.0
O33 O 0.53006 0.06251 0.03118 0.0
O34 O 0.51835 0.99968 0.03753 0.0
C35 C 0.50344 0.06939 0.07596 0.0
C36 C 0.62573 0.02119 0.05982 0.0
O37 O 0.59727 0.9982 0.06421 0.0
O38 O 0.6174 0.05256 0.05239 0.0
C39 C 0.53277 0.91944 0.07613 0.0
O40 O 0.55099 0.93913 0.08703 0.0
C41 C 0.51611 0.02814 0.02798 0.0
Zn42 Zn 0.2389 0.31791 0.31285 0.0
Zn43 Zn 0.30861 0.28551 0.31683 0.0
O44 O 0.27201 0.2409 0.32574 0.0
O45 O 0.21397 0.27359 0.32483 0.0
O46 O 0.36616 0.2651 0.31822 0.0
O47 O 0.23863 0.31207 0.29082 0.0
O48 O 0.30124 0.29059 0.29369 0.0
C49 C 0.23399 0.24231 0.32825 0.0
C50 C 0.28837 0.37002 0.32927 0.0
O51 O 0.31072 0.33861 0.32937 0.0
O52 O 0.25564 0.37012 0.32191 0.0
C53 C 0.38709 0.26571 0.33023 0.0
O54 O 0.37015 0.27784 0.34283 0.0
C55 C 0.27152 0.29986 0.28517 0.0
Zn56 Zn 0.99581 0.04002 0.39344 0.0
Zn57 Zn 0.02018 0.96811 0.38916 0.0
O58 O 0.05931 0.99905 0.37516 0.0
O59 O 0.02721 0.05734 0.37533 0.0
O60 O 0.03394 0.90915 0.38703 0.0
O61 O 0.02109 0.04447 0.41367 0.0
O62 O 0.03134 0.97919 0.41167 0.0
C63 C 0.05516 0.0349 0.37028 0.0
C64 C 0.93046 0.99258 0.38533 0.0
O65 O 0.95983 0.96865 0.38251 0.0
O66 O 0.93729 0.0259 0.39174 0.0
C67 C 0.03159 0.89026 0.37459 0.0
O68 O 0.02256 0.91024 0.36229 0.0
C69 C 0.03247 0.01157 0.41942 0.0
Zn70 Zn 0.23477 0.69706 0.63327 0.0
Zn71 Zn 0.30283 0.72944 0.62833 0.0
O72 O 0.26466 0.77281 0.61912 0.0
O73 O 0.20828 0.73785 0.62002 0.0
O74 O 0.36002 0.75049 0.62664 0.0
O75 O 0.23392 0.70651 0.65517 0.0
O76 O 0.29687 0.72534 0.65151 0.0
C77 C 0.22694 0.76947 0.61624 0.0
C78 C 0.28395 0.64345 0.61744 0.0
O79 O 0.30507 0.67539 0.61632 0.0
O80 O 0.25249 0.64356 0.62551 0.0
C81 C 0.38242 0.74646 0.61509 0.0
O82 O 0.36735 0.73007 0.60285 0.0
C83 C 0.26754 0.71784 0.6604 0.0
Zn84 Zn 0.55742 0.93286 0.89903 0.0
Zn85 Zn 0.53848 0.00549 0.89024 0.0
O86 O 0.50504 0.97193 0.87505 0.0
O87 O 0.53009 0.912 0.88046 0.0
O88 O 0.52785 0.06405 0.88568 0.0
O89 O 0.52609 0.9378 0.91811 0.0
O90 O 0.51754 1.00136 0.91195 0.0
C91 C 0.50761 0.9342 0.87243 0.0
C92 C 0.62749 0.97642 0.89207 0.0
O93 O 0.60062 1.0012 0.88748 0.0
O94 O 0.61683 0.94463 0.89876 0.0
C95 C 0.54111 0.08211 0.87411 0.0
O96 O 0.56063 0.06143 0.86376 0.0
C97 C 0.51302 0.97264 0.92126 0.0
Zn98 Zn 0.32595 0.33956 0.14675 0.0
Zn99 Zn 0.25457 0.31076 0.14191 0.0
O100 O 0.28979 0.26874 0.13061 0.0
O101 O 0.34857 0.29958 0.13202 0.0
O102 O 0.19663 0.29299 0.13919 0.0
O103 O 0.32602 0.32526 0.16833 0.0
O104 O 0.2624 0.30787 0.16499 0.0
C105 C 0.32737 0.27036 0.12737 0.0
C106 C 0.27668 0.39817 0.13352 0.0
O107 O 0.25357 0.36766 0.13227 0.0
O108 O 0.30986 0.39502 0.14052 0.0
C109 C 0.17973 0.29171 0.12634 0.0
O110 O 0.20117 0.30013 0.11432 0.0
C111 C 0.29288 0.31286 0.17362 0.0
Zn112 Zn 0.73022 0.19985 0.13883 0.0
Zn113 Zn 0.80012 0.2302 0.13389 0.0
O114 O 0.76363 0.27334 0.12379 0.0
O115 O 0.70592 0.24058 0.12492 0.0
O116 O 0.85776 0.24974 0.13214 0.0
O117 O 0.72973 0.21127 0.16065 0.0
O118 O 0.79321 0.2284 0.15703 0.0
C119 C 0.72595 0.27098 0.12073 0.0
C120 C 0.77956 0.14385 0.12396 0.0
O121 O 0.80164 0.17508 0.1227 0.0
O122 O 0.74745 0.14544 0.13166 0.0
C123 C 0.87961 0.24534 0.12047 0.0
O124 O 0.86366 0.22949 0.10828 0.0
C125 C 0.76348 0.22228 0.16588 0.0
Zn126 Zn 0.82352 0.85249 0.64461 0.0
Zn127 Zn 0.75477 0.82022 0.63887 0.0
O128 O 0.79281 0.78015 0.62782 0.0
O129 O 0.84949 0.81434 0.62998 0.0
O130 O 0.69773 0.80019 0.63558 0.0
O131 O 0.82348 0.8375 0.66606 0.0
O132 O 0.76121 0.81672 0.66205 0.0
C133 C 0.83049 0.784 0.62502 0.0
C134 C 0.77326 0.909 0.63104 0.0
O135 O 0.7521 0.87727 0.62929 0.0
O136 O 0.80561 0.90751 0.63862 0.0
C137 C 0.68126 0.7992 0.62264 0.0
O138 O 0.70272 0.80927 0.61081 0.0
C139 C 0.79083 0.82297 0.67098 0.0
Zn140 Zn 0.831 0.16575 0.30235 0.0
Zn141 Zn 0.76165 0.19764 0.30924 0.0
O142 O 0.79998 0.23888 0.31932 0.0
O143 O 0.85772 0.20716 0.31544 0.0
O144 O 0.70461 0.21727 0.31296 0.0
O145 O 0.82623 0.17761 0.28068 0.0
O146 O 0.76521 0.20028 0.28601 0.0
C147 C 0.83836 0.23689 0.32084 0.0
C148 C 0.78375 0.10999 0.31786 0.0
O149 O 0.76138 0.14118 0.31928 0.0
O150 O 0.81559 0.11164 0.31002 0.0
C151 C 0.68701 0.21517 0.32565 0.0
O152 O 0.70734 0.20188 0.33735 0.0
C153 C 0.79301 0.19272 0.27644 0.0
Zn154 Zn 0.74021 0.80937 0.81016 0.0
Zn155 Zn 0.81259 0.7807 0.81386 0.0
O156 O 0.77856 0.73341 0.82228 0.0
O157 O 0.71803 0.76119 0.82066 0.0
O158 O 0.87107 0.76292 0.81494 0.0
O159 O 0.74159 0.80763 0.78806 0.0
O160 O 0.80476 0.78767 0.7908 0.0
C161 C 0.74029 0.73147 0.82411 0.0
C162 C 0.78737 0.86228 0.82759 0.0
O163 O 0.81224 0.83286 0.82695 0.0
O164 O 0.75402 0.86049 0.82065 0.0
C165 C 0.89165 0.76199 0.82703 0.0
O166 O 0.87389 0.7709 0.83985 0.0
C167 C 0.77498 0.79719 0.78234 0.0
Zn168 Zn 0.47349 0.47016 0.05419 0.0
Zn169 Zn 0.50112 0.54097 0.05953 0.0
O170 O 0.53992 0.50721 0.07275 0.0
O171 O 0.5079 0.44929 0.07111 0.0
O172 O 0.51696 0.59903 0.06231 0.0
O173 O 0.49566 0.46818 0.03346 0.0
O174 O 0.5119 0.53174 0.03688 0.0
C175 C 0.53628 0.47039 0.07655 0.0
C176 C 0.41088 0.5192 0.06427 0.0
O177 O 0.44123 0.54196 0.06669 0.0
O178 O 0.41587 0.486 0.05751 0.0
C179 C 0.5139 0.61775 0.07476 0.0
O180 O 0.50247 0.59803 0.08681 0.0
C181 C 0.51001 0.50067 0.02843 0.0
Zn182 Zn 0.0541 0.57201 0.54783 0.0
Zn183 Zn 0.03152 0.50291 0.55796 0.0
O184 O 0.99899 0.54079 0.57211 0.0
O185 O 0.02825 0.59783 0.5658 0.0
O186 O 0.01799 0.44571 0.56357 0.0
O187 O 0.02195 0.56707 0.52897 0.0
O188 O 0.01087 0.50475 0.53612 0.0
C189 C 1.00371 0.57861 0.57399 0.0
C190 C 0.12196 0.52634 0.5556 0.0
O191 O 0.09387 0.50426 0.56088 0.0
O192 O 0.11289 0.55727 0.54803 0.0
C193 C 0.03364 0.42667 0.57453 0.0
O194 O 0.05785 0.44575 0.58386 0.0
C195 C 1.00729 0.53264 0.52639 0.0
Zn196 Zn 0.50627 0.53834 0.89152 0.0
Zn197 Zn 0.52603 0.46353 0.88766 0.0
O198 O 0.56797 0.49115 0.87388 0.0
O199 O 0.5418 0.55239 0.87403 0.0
O200 O 0.53664 0.40383 0.88603 0.0
O201 O 0.52848 0.54042 0.91232 0.0
O202 O 0.53548 0.47472 0.91023 0.0
C203 C 0.56759 0.52731 0.86912 0.0
C204 C 0.43876 0.49368 0.8825 0.0
O205 O 0.4665 0.46747 0.88035 0.0
O206 O 0.44735 0.52707 0.88856 0.0
C207 C 0.53592 0.38462 0.87363 0.0
O208 O 0.53033 0.40452 0.86104 0.0
C209 C 0.53719 0.5068 0.91814 0.0
Zn210 Zn 0.06072 0.43993 0.39884 0.0
Zn211 Zn 0.03918 0.51117 0.38988 0.0
O212 O 1.00683 0.4763 0.37482 0.0
O213 O 0.0354 0.41781 0.38001 0.0
O214 O 0.02718 0.56943 0.38525 0.0
O215 O 0.02764 0.44314 0.41755 0.0
O216 O 0.01732 0.50648 0.41144 0.0
C217 C 0.01142 0.43881 0.37212 0.0
C218 C 0.12921 0.48553 0.39233 0.0
O219 O 0.10151 0.50866 0.38724 0.0
O220 O 0.11963 0.45392 0.39935 0.0
C221 C 0.04018 0.58789 0.37373 0.0
O222 O 0.06015 0.56771 0.36336 0.0
C223 C 0.01304 0.47743 0.42063 0.0
H224 H 0.03372 0.17346 0.60014 0.0
H225 H 0.99864 0.37636 0.55394 0.0
H226 H 0.01672 0.17731 0.55201 0.0
H227 H 0.05791 0.37592 0.59725 0.0
H228 H 0.99602 0.303 0.55458 0.0
H229 H 0.03532 0.24741 0.60061 0.0
C230 C 0.03051 0.18979 0.58968 0.0
C231 C 0.02513 0.16913 0.57601 0.0
C232 C 0.00952 0.31894 0.56396 0.0
C233 C 0.02626 0.25348 0.57653 0.0
C234 C 0.0108 0.36089 0.56366 0.0
C235 C 0.0287 0.38241 0.57554 0.0
C236 C 0.02586 0.29815 0.57629 0.0
C237 C 0.04398 0.36056 0.58782 0.0
C238 C 0.03142 0.23194 0.58997 0.0
C239 C 0.02109 0.19186 0.5628 0.0
N240 N 0.04221 0.31958 0.58789 0.0
N241 N 0.02145 0.23273 0.56341 0.0
H242 H 0.94471 0.75362 0.85064 0.0
H243 H 0.13965 0.73474 0.79753 0.0
H244 H 0.93938 0.75224 0.80211 0.0
H245 H 0.14368 0.71355 0.8454 0.0
H246 H 0.06683 0.74637 0.79935 0.0
H247 H 0.01804 0.74304 0.84925 0.0
C248 C 0.95889 0.75096 0.8397 0.0
C249 C 0.93578 0.7538 0.82647 0.0
C250 C 0.08361 0.73923 0.80947 0.0
C251 C 0.01975 0.74206 0.82482 0.0
C252 C 0.12529 0.73275 0.80846 0.0
C253 C 0.14789 0.72304 0.82134 0.0
C254 C 0.06423 0.73622 0.82347 0.0
C255 C 0.12749 0.72085 0.83517 0.0
C256 C 1.00077 0.74494 0.83892 0.0
C257 C 0.95587 0.75016 0.81261 0.0
N258 N 0.08683 0.72737 0.83588 0.0
N259 N 0.99664 0.74465 0.81215 0.0
H260 H 0.52327 0.669 0.05105 0.0
H261 H 0.54461 0.86932 0.10033 0.0
H262 H 0.51606 0.66753 0.09954 0.0
H263 H 0.51129 0.86838 0.05335 0.0
H264 H 0.54109 0.79545 0.10043 0.0
H265 H 0.52729 0.74229 0.05181 0.0
C266 C 0.52281 0.68404 0.06188 0.0
C267 C 0.51919 0.66203 0.07525 0.0
C268 C 0.53438 0.81155 0.09015 0.0
C269 C 0.5237 0.74619 0.07618 0.0
C270 C 0.53636 0.85365 0.09007 0.0
C271 C 0.52823 0.87511 0.07681 0.0
C272 C 0.52479 0.79082 0.07682 0.0
C273 C 0.51771 0.85321 0.06385 0.0
C274 C 0.52487 0.72596 0.06229 0.0
C275 C 0.51869 0.68331 0.08895 0.0
N276 N 0.51659 0.81235 0.06416 0.0
N277 N 0.52096 0.72426 0.08907 0.0
H278 H 0.63998 0.21803 0.35111 0.0
H279 H 0.43345 0.24951 0.30542 0.0
H280 H 0.63388 0.23252 0.30291 0.0
H281 H 0.44094 0.26081 0.35374 0.0
H282 H 0.50636 0.23789 0.30451 0.0
H283 H 0.56675 0.22947 0.35251 0.0
C284 C 0.62333 0.22378 0.34083 0.0
C285 C 0.64317 0.22429 0.32687 0.0
C286 C 0.49209 0.24287 0.31532 0.0
C287 C 0.55933 0.23698 0.32839 0.0
C288 C 0.45036 0.24932 0.31586 0.0
C289 C 0.43096 0.25623 0.32968 0.0
C290 C 0.51476 0.24305 0.32869 0.0
C291 C 0.4546 0.2557 0.34283 0.0
C292 C 0.58152 0.23028 0.34165 0.0
C293 C 0.61997 0.2319 0.31393 0.0
N294 N 0.49526 0.24921 0.34202 0.0
N295 N 0.57934 0.23773 0.31501 0.0
H296 H 0.03444 0.83889 0.39854 0.0
H297 H 0.05758 0.63749 0.34991 0.0
H298 H 0.03599 0.84009 0.34998 0.0
H299 H 0.01597 0.63978 0.39594 0.0
H300 H 0.05632 0.71141 0.34975 0.0
H301 H 0.03564 0.76542 0.39792 0.0
C302 C 0.03532 0.82374 0.38773 0.0
C303 C 0.03503 0.84575 0.37428 0.0
C304 C 0.04728 0.69562 0.35984 0.0
C305 C 0.03631 0.76142 0.37352 0.0
C306 C 0.04797 0.65347 0.35994 0.0
C307 C 0.03687 0.63236 0.37296 0.0
C308 C 0.03599 0.71675 0.3729 0.0
C309 C 0.02469 0.65468 0.38563 0.0
C310 C 0.03575 0.78174 0.38739 0.0
C311 C 0.03607 0.82434 0.36062 0.0
N312 N 0.02488 0.69558 0.38532 0.0
N313 N 0.03675 0.78333 0.36058 0.0
H314 H 0.42546 0.7706 0.63985 0.0
H315 H 0.63715 0.78911 0.59672 0.0
H316 H 0.43908 0.74488 0.59248 0.0
H317 H 0.62555 0.78881 0.64509 0.0
H318 H 0.56422 0.77733 0.59457 0.0
H319 H 0.49809 0.78294 0.64155 0.0
C320 C 0.44365 0.76779 0.62977 0.0
C321 C 0.42605 0.75659 0.616 0.0
C322 C 0.5777 0.77971 0.60565 0.0
C323 C 0.50953 0.77059 0.6179 0.0
C324 C 0.61934 0.78642 0.60689 0.0
C325 C 0.63757 0.78996 0.62111 0.0
C326 C 0.55401 0.77689 0.61872 0.0
C327 C 0.61291 0.78621 0.63389 0.0
C328 C 0.48522 0.77465 0.63077 0.0
C329 C 0.4513 0.75336 0.60333 0.0
N330 N 0.57244 0.78009 0.63238 0.0
N331 N 0.49176 0.76033 0.60459 0.0
H332 H 0.5335 0.33399 0.8978 0.0
H333 H 0.56033 0.13098 0.85028 0.0
H334 H 0.54282 0.33355 0.84936 0.0
H335 H 0.51593 0.13475 0.89593 0.0
H336 H 0.55947 0.20485 0.84982 0.0
H337 H 0.53364 0.26052 0.89753 0.0
C338 C 0.53581 0.31847 0.8871 0.0
C339 C 0.53809 0.34003 0.87357 0.0
C340 C 0.54973 0.18942 0.85989 0.0
C341 C 0.5382 0.25567 0.8732 0.0
C342 C 0.5502 0.14728 0.86017 0.0
C343 C 0.53821 0.12659 0.87317 0.0
C344 C 0.53769 0.21098 0.87277 0.0
C345 C 0.52537 0.14933 0.88565 0.0
C346 C 0.53565 0.27646 0.88695 0.0
C347 C 0.5409 0.31816 0.86005 0.0
N348 N 0.52573 0.19021 0.88516 0.0
N349 N 0.54097 0.27715 0.8602 0.0
H350 H 0.13449 0.28164 0.1007 0.0
H351 H 0.92399 0.26902 0.14496 0.0
H352 H 0.12451 0.28406 0.14911 0.0
H353 H 0.93538 0.24223 0.09758 0.0
H354 H 0.9969 0.28003 0.14625 0.0
H355 H 0.06125 0.27151 0.09896 0.0
C356 C 0.11696 0.27991 0.11096 0.0
C357 C 0.13574 0.2837 0.12508 0.0
C358 C 0.98348 0.2718 0.13556 0.0
C359 C 0.05184 0.27249 0.12315 0.0
C360 C 0.94176 0.26568 0.13479 0.0
C361 C 0.92346 0.25458 0.12113 0.0
C362 C 1.00723 0.26705 0.12258 0.0
C363 C 0.94817 0.25066 0.10835 0.0
C364 C 0.07514 0.27414 0.10996 0.0
C365 C 0.11143 0.28122 0.13799 0.0
N366 N 0.98878 0.25688 0.10938 0.0
N367 N 0.07078 0.27595 0.13671 0.0
H368 H 0.04663 0.07585 0.43787 0.0
H369 H 0.03262 0.94197 0.51143 0.0
H370 H 0.04381 0.94578 0.43752 0.0
H371 H 0.03463 0.07205 0.51195 0.0
H372 H 0.04858 0.94272 0.48472 0.0
H373 H 0.05451 0.07479 0.4651 0.0
C374 C 0.04815 0.047 0.44351 0.0
C375 C 0.04371 0.01082 0.43546 0.0
C376 C 0.04597 0.97112 0.49068 0.0
C377 C 0.05247 0.00948 0.46665 0.0
C378 C 0.03671 0.97075 0.50594 0.0
C379 C 0.03149 0.00707 0.51385 0.0
C380 C 0.04966 0.00808 0.48323 0.0
C381 C 0.03792 0.04338 0.50623 0.0
C382 C 0.0527 0.04645 0.45907 0.0
C383 C 0.04661 0.97438 0.44331 0.0
N384 N 0.04611 0.04298 0.49126 0.0
N385 N 0.05019 0.97466 0.45852 0.0
H386 H 0.22785 0.71063 0.75637 0.0
H387 H 0.33799 0.72578 0.67643 0.0
H388 H 0.35558 0.6893 0.74934 0.0
H389 H 0.20834 0.7168 0.68171 0.0
H390 H 0.34524 0.7245 0.70381 0.0
H391 H 0.22042 0.72419 0.72941 0.0
C392 C 0.25427 0.7089 0.74918 0.0
C393 C 0.29225 0.69837 0.75505 0.0
C394 C 0.31521 0.72304 0.69894 0.0
C395 C 0.28412 0.71417 0.72442 0.0
C396 C 0.31108 0.72391 0.68334 0.0
C397 C 0.27259 0.72083 0.67681 0.0
C398 C 0.28059 0.71932 0.70801 0.0
C399 C 0.23866 0.71866 0.68628 0.0
C400 C 0.25004 0.71664 0.73384 0.0
C401 C 0.32559 0.69679 0.74527 0.0
N402 N 0.24347 0.71773 0.70142 0.0
N403 N 0.32072 0.70454 0.73044 0.0
H404 H 0.49786 0.0838 0.00648 0.0
H405 H 0.4926 0.91754 0.94267 0.0
H406 H 0.49683 0.95578 0.01496 0.0
H407 H 0.49542 0.04555 0.93425 0.0
H408 H 0.4778 0.93127 0.96903 0.0
H409 H 0.481 0.07065 -0.01975 0.0
C410 C 0.49364 0.0529 0.00286 0.0
C411 C 0.49978 0.02074 0.01281 0.0
C412 C 0.481 0.95638 0.96138 0.0
C413 C 0.48071 0.00551 -0.01721 0.0
C414 C 0.48951 0.94857 0.94632 0.0
C415 C 0.49634 0.9805 0.93635 0.0
C416 C 0.47977 0.99638 0.96652 0.0
C417 C 0.4911 0.02004 0.94162 0.0
C418 C 0.48388 0.04543 -0.01212 0.0
C419 C 0.49305 0.98143 0.0076 0.0
N420 N 0.48388 0.02689 0.95643 0.0
N421 N 0.48457 0.97486 -0.00715 0.0
H422 H 0.35493 0.3075 0.19373 0.0
H423 H 0.20993 0.30253 0.26486 0.0
H424 H 0.2247 0.29974 0.19048 0.0
H425 H 0.33975 0.28862 0.26798 0.0
H426 H 0.21486 0.29979 0.2376 0.0
H427 H 0.35012 0.29866 0.22084 0.0
C428 C 0.32527 0.30379 0.19872 0.0
C429 C 0.29006 0.30483 0.18987 0.0
C430 C 0.24227 0.29707 0.24422 0.0
C431 C 0.28444 0.29477 0.22091 0.0
C432 C 0.23955 0.29883 0.25981 0.0
C433 C 0.2746 0.29626 0.2687 0.0
C434 C 0.28036 0.2931 0.23743 0.0
C435 C 0.31203 0.29095 0.26153 0.0
C436 C 0.32261 0.29858 0.2142 0.0
C437 C 0.25256 0.29936 0.19691 0.0
N438 N 0.31397 0.28992 0.24627 0.0
N439 N 0.2507 0.29495 0.21207 0.0
H440 H 0.8338 0.23063 0.18194 0.0
H441 H 0.72311 0.21441 0.26173 0.0
H442 H 0.70406 0.22259 0.18714 0.0
H443 H 0.85105 0.19425 0.25479 0.0
H444 H 0.71587 0.22907 0.23485 0.0
H445 H 0.84091 0.22982 0.20932 0.0
C446 C 0.80683 0.2291 0.18883 0.0
C447 C 0.76836 0.22606 0.18228 0.0
C448 C 0.74551 0.22157 0.23928 0.0
C449 C 0.77622 0.22503 0.21348 0.0
C450 C 0.74962 0.21318 0.25457 0.0
C451 C 0.7876 0.2026 0.26044 0.0
C452 C 0.77969 0.21964 0.22989 0.0
C453 C 0.82106 0.20173 0.25071 0.0
C454 C 0.81089 0.22851 0.20444 0.0
C455 C 0.73437 0.22438 0.19173 0.0
N456 N 0.81629 0.21004 0.23591 0.0
N457 N 0.73911 0.22362 0.20688 0.0
H458 H 0.72287 0.80451 0.68729 0.0
H459 H 0.84376 0.78895 0.76522 0.0
H460 H 0.8523 0.81943 0.69134 0.0
H461 H 0.71382 0.80159 0.7619 0.0
H462 H 0.84775 0.7895 0.73769 0.0
H463 H 0.71932 0.79256 0.71442 0.0
C464 C 0.7505 0.80505 0.69386 0.0
C465 C 0.78782 0.81348 0.68711 0.0
C466 C 0.8184 0.792 0.74304 0.0
C467 C 0.78407 0.79975 0.71799 0.0
C468 C 0.81613 0.79166 0.75871 0.0
C469 C 0.7785 0.79573 0.76584 0.0
C470 C 0.78275 0.79613 0.73451 0.0
C471 C 0.74357 0.79891 0.75689 0.0
C472 C 0.74848 0.7983 0.70932 0.0
C473 C 0.82278 0.8136 0.69612 0.0
N474 N 0.74656 0.79916 0.7417 0.0
N475 N 0.82002 0.80699 0.71111 0.0
H476 H 0.54636 0.43966 0.9357 0.0
H477 H 0.53267 0.56672 0.01198 0.0
H478 H 0.54714 0.56971 0.93765 0.0
H479 H 0.51946 0.4375 0.0091 0.0
H480 H 0.55042 0.56787 -0.01474 0.0
H481 H 0.5498 0.43786 0.96313 0.0
C482 C 0.54783 0.46781 0.94188 0.0
C483 C 0.54565 0.50488 0.93441 0.0
C484 C 0.54397 0.53925 -0.00946 0.0
C485 C 0.54923 0.50307 0.96574 0.0
C486 C 0.53381 0.53861 0.00577 0.0
C487 C 0.52389 0.50207 0.01269 0.0
C488 C 0.54423 0.50311 -0.01776 0.0
C489 C 0.52621 0.46647 0.00416 0.0
C490 C 0.54968 0.46679 0.95754 0.0
C491 C 0.54804 0.54043 0.94297 0.0
N492 N 0.53582 0.46793 -0.01064 0.0
N493 N 0.54919 0.53865 0.9582 0.0
H494 H 0.9836 0.5871 0.50521 0.0
H495 H 0.99311 0.42108 0.44165 0.0
H496 H 0.99041 0.45926 0.51371 0.0
H497 H 0.98984 0.54916 0.43333 0.0
H498 H 0.97393 0.43372 0.4677 0.0
H499 H 0.96738 0.57295 0.479 0.0
C500 C 0.98109 0.556 0.5016 0.0
C501 C 0.98953 0.52427 0.51152 0.0
C502 C 0.97673 0.45904 0.46013 0.0
C503 C 0.97141 0.50791 0.48152 0.0
C504 C 0.9878 0.45187 0.44525 0.0
C505 C 0.99424 0.48424 0.43544 0.0
C506 C 0.97255 0.49887 0.46525 0.0
C507 C 0.98601 0.52337 0.44061 0.0
C508 C 0.97173 0.54794 0.48664 0.0
C509 C 0.98487 0.48462 0.50635 0.0
N510 N 0.97634 0.52966 0.45526 0.0
N511 N 0.97695 0.47753 0.4916 0.0
H512 H 0.14936 0.76643 0.60644 0.0
H513 H 0.12086 0.99104 0.57995 0.0
H514 H 0.24903 0.84919 0.61174 0.0
H515 H 0.02484 0.91571 0.59664 0.0
H516 H 0.17073 0.94239 0.58988 0.0
H517 H 0.1059 0.82199 0.59941 0.0
C518 C 0.1623 0.79635 0.60605 0.0
C519 C 0.20292 0.80312 0.60988 0.0
C520 C 0.13874 0.93717 0.59162 0.0
C521 C 0.15263 0.86749 0.60187 0.0
C522 C 0.11033 0.965 0.5861 0.0
C523 C 0.06871 0.957 0.58732 0.0
C524 C 0.12504 0.90133 0.59822 0.0
C525 C 0.05662 0.92272 0.59525 0.0
C526 C 0.13724 0.82822 0.60214 0.0
C527 C 0.21785 0.84267 0.60891 0.0
N528 N 0.08458 0.89593 0.60017 0.0
N529 N 0.1926 0.8736 0.60501 0.0
H530 H 0.425 0.74586 0.81554 0.0
H531 H 0.42805 0.94798 0.8647 0.0
H532 H 0.31494 0.80522 0.8299 0.0
H533 H 0.53208 0.87456 0.85393 0.0
H534 H 0.38594 0.90365 0.84883 0.0
H535 H 0.4641 0.79968 0.8266 0.0
C536 C 0.40891 0.77021 0.82109 0.0
C537 C 0.36649 0.77063 0.82195 0.0
C538 C 0.41811 0.89777 0.84977 0.0
C539 C 0.41167 0.83306 0.83478 0.0
C540 C 0.44213 0.92322 0.85866 0.0
C541 C 0.48342 0.9146 0.86062 0.0
C542 C 0.43589 0.86399 0.84278 0.0
C543 C 0.50027 0.882 0.85278 0.0
C544 C 0.43141 0.80118 0.82739 0.0
C545 C 0.3476 0.8035 0.82911 0.0
N546 N 0.47644 0.85782 0.8443 0.0
N547 N 0.37038 0.83338 0.83538 0.0
H548 H 0.42512 0.05037 0.08384 0.0
H549 H 0.30049 0.19291 0.12179 0.0
H550 H 0.51872 0.1387 0.09091 0.0
H551 H 0.40204 0.27214 0.11479 0.0
H552 H 0.34016 0.1373 0.11098 0.0
H553 H 0.37678 0.09517 0.09657 0.0
C554 C 0.43567 0.07871 0.08844 0.0
C555 C 0.47584 0.09104 0.08624 0.0
C556 C 0.3536 0.1669 0.11162 0.0
C557 C 0.42099 0.14255 0.1007 0.0
C558 C 0.33084 0.19872 0.11776 0.0
C559 C 0.34799 0.23722 0.11923 0.0
C560 C 0.39365 0.17395 0.10692 0.0
C561 C 0.38755 0.24301 0.11399 0.0
C562 C 0.408 0.10446 0.09565 0.0
C563 C 0.48793 0.12818 0.09222 0.0
N564 N 0.40891 0.21179 0.10818 0.0
N565 N 0.4606 0.15262 0.09902 0.0
H566 H 0.03861 0.08339 0.34682 0.0
H567 H 0.2635 0.16947 0.33909 0.0
H568 H 0.13815 0.02967 0.371 0.0
H569 H 0.15253 0.23364 0.32933 0.0
H570 H 0.22279 0.1106 0.3466 0.0
H571 H 0.0857 0.12888 0.33455 0.0
C572 C 0.07067 0.08058 0.34923 0.0
C573 C 0.0846 0.0531 0.35997 0.0
C574 C 0.20769 0.13769 0.34276 0.0
C575 C 0.1386 0.10616 0.34647 0.0
C576 C 0.23078 0.17126 0.33856 0.0
C577 C 0.21145 0.2067 0.33367 0.0
C578 C 0.16524 0.13963 0.34176 0.0
C579 C 0.16898 0.20728 0.33311 0.0
C580 C 0.09753 0.1068 0.34236 0.0
C581 C 0.12641 0.05052 0.36272 0.0
N582 N 0.14752 0.17436 0.33703 0.0
N583 N 0.15207 0.07742 0.35621 0.0
H584 H 0.9096 0.94357 0.36167 0.0
H585 H 0.74667 0.10574 0.34537 0.0
H586 H 0.85889 0.02665 0.39403 0.0
H587 H 0.80829 0.03299 0.3122 0.0
H588 H 0.76244 0.05504 0.36438 0.0
H589 H 0.84971 0.95291 0.34589 0.0
C590 C 0.88523 0.96265 0.36572 0.0
C591 C 0.88991 0.9858 0.37882 0.0
C592 C 0.7713 0.04943 0.35283 0.0
C593 C 0.82193 0.99723 0.36075 0.0
C594 C 0.76207 0.07833 0.34195 0.0
C595 C 0.77779 0.07423 0.32738 0.0
C596 C 0.79672 0.0168 0.34904 0.0
C597 C 0.79699 0.0379 0.32349 0.0
C598 C 0.85104 0.96811 0.35668 0.0
C599 C 0.8571 0.00945 0.38368 0.0
N600 N 0.80698 0.01107 0.33436 0.0
N601 N 0.82496 0.01548 0.37444 0.0
H602 H 0.69534 0.05333 0.04853 0.0
H603 H 0.76328 0.06581 0.13081 0.0
H604 H 0.65116 0.97795 0.08431 0.0
H605 H 0.80846 0.14092 0.09519 0.0
H606 H 0.74594 0.0143 0.11233 0.0
H607 H 0.75728 0.06476 0.0628 0.0
C608 C 0.69919 0.03822 0.05922 0.0
C609 C 0.66739 0.01609 0.06556 0.0
C610 C 0.76087 0.04141 0.10853 0.0
C611 C 0.73771 0.02988 0.08211 0.0
C612 C 0.77095 0.07077 0.11911 0.0
C613 C 0.78592 0.10812 0.1144 0.0
C614 C 0.76457 0.05022 0.09315 0.0
C615 C 0.79607 0.1128 0.09922 0.0
C616 C 0.73463 0.04474 0.06738 0.0
C617 C 0.67446 0.99622 0.07921 0.0
N618 N 0.78385 0.08474 0.08902 0.0
N619 N 0.70837 1.00464 0.08727 0.0
H620 H 0.77213 0.94109 0.82217 0.0
H621 H 0.66075 0.03182 0.87275 0.0
H622 H 0.8139 0.86034 0.85669 0.0
H623 H 0.69228 0.93057 0.90077 0.0
H624 H 0.7244 0.02343 0.85933 0.0
H625 H 0.75314 0.98972 0.8412 0.0
C626 C 0.77878 0.93441 0.83384 0.0
C627 C 0.79333 0.89632 0.83795 0.0
C628 C 0.71771 1.00297 0.86841 0.0
C629 C 0.77 0.95119 0.8601 0.0
C630 C 0.6814 0.00819 0.87625 0.0
C631 C 0.6702 0.98046 0.88734 0.0
C632 C 0.74217 0.96906 0.87146 0.0
C633 C 0.69883 0.95152 0.8918 0.0
C634 C 0.76769 0.96226 0.84485 0.0
C635 C 0.80201 0.88922 0.85312 0.0
N636 N 0.73292 0.94583 0.88356 0.0
N637 N 0.78889 0.91586 0.86371 0.0
H638 H 0.79281 0.98652 0.63799 0.0
H639 H 0.84131 1.00005 0.55408 0.0
H640 H 0.7378 0.91405 0.60329 0.0
H641 H 0.89701 0.07162 0.58892 0.0
H642 H 0.78216 0.99113 0.57006 0.0
H643 H 0.80683 0.03855 0.61947 0.0
C644 C 0.78236 0.98223 0.62654 0.0
C645 C 0.76566 0.94535 0.62199 0.0
C646 C 0.80671 0.00985 0.57408 0.0
C647 C 0.78297 1.00393 0.60066 0.0
C648 C 0.84053 0.01498 0.56493 0.0
C649 C 0.87473 0.03514 0.57047 0.0
C650 C 0.80775 0.02402 0.58898 0.0
C651 C 0.8717 0.05485 0.58439 0.0
C652 C 0.79048 0.01191 0.61593 0.0
C653 C 0.75175 0.94167 0.60716 0.0
N654 N 0.83933 0.04766 0.59341 0.0
N655 N 0.76203 0.97002 0.59687 0.0
H656 H 0.75044 0.34967 0.11597 0.0
H657 H 0.61701 0.48905 0.08024 0.0
H658 H 0.65001 0.26864 0.10926 0.0
H659 H 0.52554 0.40391 0.09354 0.0
H660 H 0.66901 0.44477 0.09115 0.0
H661 H 0.70783 0.40544 0.10686 0.0
C662 C 0.71976 0.3435 0.11235 0.0
C663 C 0.70374 0.30444 0.11344 0.0
C664 C 0.63751 0.4363 0.09203 0.0
C665 C 0.65495 0.36775 0.10313 0.0
C666 C 0.60781 0.46166 0.08585 0.0
C667 C 0.56699 0.44989 0.08588 0.0
C668 C 0.62593 0.39918 0.09825 0.0
C669 C 0.55667 0.41394 0.0931 0.0
C670 C 0.69542 0.37535 0.10717 0.0
C671 C 0.6637 0.29819 0.10875 0.0
N672 N 0.58593 0.38975 0.0988 0.0
N673 N 0.64078 0.32945 0.10395 0.0
H674 H 0.81077 0.30997 0.33209 0.0
H675 H 0.03553 0.37841 0.35381 0.0
H676 H 0.91967 0.23984 0.32515 0.0
H677 H 0.93084 0.44981 0.36553 0.0
H678 H 0.9923 0.33259 0.3398 0.0
H679 H 0.8526 0.36519 0.34212 0.0
C680 C 0.8433 0.30608 0.33273 0.0
C681 C 0.86166 0.27009 0.32782 0.0
C682 C 0.97857 0.35846 0.34526 0.0
C683 C 0.90944 0.33307 0.33896 0.0
C684 C 1.00337 0.3848 0.35315 0.0
C685 C 0.98662 0.41768 0.36086 0.0
C686 C 0.93644 0.3645 0.34528 0.0
C687 C 0.94481 0.42476 0.35965 0.0
C688 C 0.86712 0.33765 0.33835 0.0
C689 C 0.90396 0.26683 0.3288 0.0
N690 N 0.92088 0.39788 0.3522 0.0
N691 N 0.92622 0.29779 0.33422 0.0
H692 H 0.92525 0.56434 0.58312 0.0
H693 H 0.90744 0.78915 0.61465 0.0
H694 H 0.02453 0.64727 0.58834 0.0
H695 H 0.80734 0.70625 0.61763 0.0
H696 H 0.94913 0.736 0.60426 0.0
H697 H 0.88069 0.613 0.59612 0.0
C698 C 0.93784 0.59227 0.58733 0.0
C699 C 0.97848 0.60207 0.58456 0.0
C700 C 0.91809 0.72913 0.60716 0.0
C701 C 0.92796 0.65773 0.59902 0.0
C702 C 0.89406 0.75969 0.61305 0.0
C703 C 0.85378 0.75219 0.61711 0.0
C704 C 0.902 0.69039 0.6052 0.0
C705 C 0.83824 0.71335 0.61462 0.0
C706 C 0.91238 0.62013 0.59459 0.0
C707 C 0.99328 0.63873 0.59008 0.0
N708 N 0.86246 0.68373 0.60883 0.0
N709 N 0.96801 0.66525 0.5969 0.0
H710 H 0.77159 0.66724 0.84038 0.0
H711 H 0.55384 0.563 0.84247 0.0
H712 H 0.66326 0.70972 0.81822 0.0
H713 H 0.64987 0.5279 0.87256 0.0
H714 H 0.6012 0.60528 0.82878 0.0
H715 H 0.7341 0.60687 0.84852 0.0
C716 C 0.74015 0.66376 0.83717 0.0
C717 C 0.72028 0.69387 0.82887 0.0
C718 C 0.61235 0.58784 0.8382 0.0
C719 C 0.67788 0.62509 0.83775 0.0
C720 C 0.58535 0.5634 0.84589 0.0
C721 C 0.59817 0.54213 0.85858 0.0
C722 C 0.65222 0.59201 0.84351 0.0
C723 C 0.63914 0.54379 0.86271 0.0
C724 C 0.71888 0.62939 0.84176 0.0
C725 C 0.67966 0.68778 0.82487 0.0
N726 N 0.66472 0.56914 0.85537 0.0
N727 N 0.65995 0.65431 0.82936 0.0
H728 H 0.36828 0.52911 0.89156 0.0
H729 H 0.31142 0.53194 0.80803 0.0
H730 H 0.41688 0.4478 0.85817 0.0
H731 H 0.25772 0.60873 0.8418 0.0
H732 H 0.32831 0.48301 0.82744 0.0
H733 H 0.30864 0.53934 0.87587 0.0
C734 C 0.36581 0.5125 0.88109 0.0
C735 C 0.39814 0.48878 0.87586 0.0
C736 C 0.31169 0.50991 0.83061 0.0
C737 C 0.33061 0.50127 0.85763 0.0
C738 C 0.30191 0.53781 0.8195 0.0
C739 C 0.28454 0.57498 0.82346 0.0
C740 C 0.30515 0.51999 0.84578 0.0
C741 C 0.27201 0.58077 0.83836 0.0
C742 C 0.3317 0.51833 0.87211 0.0
C743 C 0.39301 0.46713 0.86244 0.0
N744 N 0.28383 0.55417 0.8491 0.0
N745 N 0.36044 0.4749 0.85353 0.0
H746 H 0.15158 0.47793 0.5781 0.0
H747 H 0.31217 0.64349 0.58851 0.0
H748 H 0.18955 0.56212 0.54409 0.0
H749 H 0.26825 0.56468 0.62323 0.0
H750 H 0.29239 0.59363 0.56962 0.0
H751 H 0.21598 0.48781 0.59106 0.0
C752 C 0.17394 0.49754 0.57309 0.0
C753 C 0.16447 0.52074 0.5604 0.0
C754 C 0.28842 0.5865 0.5814 0.0
C755 C 0.23775 0.53281 0.57531 0.0
C756 C 0.30007 0.6149 0.5922 0.0
C757 C 0.29021 0.60873 0.60734 0.0
C758 C 0.26641 0.55233 0.58589 0.0
C759 C 0.27499 0.57105 0.61156 0.0
C760 C 0.21077 0.50325 0.58052 0.0
C761 C 0.19499 0.5449 0.55422 0.0
N762 N 0.26237 0.54472 0.60085 0.0
N763 N 0.2298 0.55124 0.56197 0.0
H764 H 0.19661 0.4504 0.40454 0.0
H765 H 0.27657 0.44964 0.32383 0.0
H766 H 0.15917 0.53223 0.36955 0.0
H767 H 0.31408 0.36697 0.35843 0.0
H768 H 0.25839 0.49882 0.34311 0.0
H769 H 0.2607 0.44002 0.39151 0.0
C770 C 0.20235 0.46712 0.39432 0.0
C771 C 0.17183 0.49077 0.38774 0.0
C772 C 0.2719 0.47053 0.34656 0.0
C773 C 0.2447 0.47828 0.3726 0.0
C774 C 0.28251 0.44253 0.33552 0.0
C775 C 0.29548 0.40386 0.33964 0.0
C776 C 0.27292 0.45899 0.36174 0.0
C777 C 0.30332 0.39626 0.35485 0.0
C778 C 0.23905 0.46119 0.38688 0.0
C779 C 0.18138 0.51269 0.37477 0.0
N780 N 0.2905 0.42308 0.36543 0.0
N781 N 0.21652 0.50491 0.36736 0.0
H782 H 0.39516 0.56698 0.08883 0.0
H783 H 0.23411 0.40615 0.10722 0.0
H784 H 0.33714 0.48813 0.05681 0.0
H785 H 0.30378 0.47394 0.13953 0.0
H786 H 0.24635 0.4587 0.0886 0.0
H787 H 0.33833 0.55739 0.10599 0.0
C788 C 0.36977 0.54886 0.08516 0.0
C789 C 0.37162 0.5268 0.0717 0.0
C790 C 0.25779 0.46282 0.09992 0.0
C791 C 0.30715 0.51502 0.09134 0.0
C792 C 0.25061 0.43286 0.11059 0.0
C793 C 0.2695 0.43502 0.12469 0.0
C794 C 0.28434 0.49457 0.10345 0.0
C795 C 0.28999 0.47051 0.12855 0.0
C796 C 0.33733 0.54323 0.095 0.0
C797 C 0.33756 0.5044 0.06739 0.0
N798 N 0.29788 0.49841 0.11785 0.0
N799 N 0.30723 0.4981 0.07737 0.0
loop_
_geom_bond_atom_site_label_1
_geom_bond_atom_site_label_2
_geom_bond_distance
_geom_bond_site_symmetry_2
_ccdc_geom_bond_type
Zn0 O3 2.031 . S
Zn0 O5 2.049 . S
Zn0 O10 2.067 1_455 S
Zn1 O2 1.962 . S
Zn1 O4 1.986 . S
Zn1 O6 1.996 . S
Zn1 O9 1.943 1_455 S
O2 Zn1 1.962 . S
O2 C7 1.254 1_545 S
O3 Zn0 2.031 . S
O3 C7 1.269 . S
O4 Zn1 1.986 . S
O4 C11 1.262 . S
O5 Zn0 2.049 . S
O5 C13 1.260 1_565 S
O6 Zn1 1.996 . S
O6 C13 1.257 . S
C7 O2 1.254 1_565 S
C7 O3 1.269 . S
C8 O9 1.249 1_565 S
C8 O10 1.270 . S
O9 Zn1 1.943 1_655 S
O9 C8 1.249 1_545 S
O10 Zn0 2.067 1_655 S
O10 C8 1.270 . S
C11 O4 1.262 . S
C11 O12 1.232 . S
O12 C11 1.232 . S
C13 O5 1.260 1_545 S
C13 O6 1.257 . S
Zn14 O17 2.031 . S
Zn14 O19 2.049 . S
Zn14 O24 2.067 . S
Zn15 O16 1.962 . S
Zn15 O18 1.986 . S
Zn15 O20 1.996 . S
Zn15 O23 1.943 . S
O16 Zn15 1.962 . S
O16 C21 1.254 . S
O17 Zn14 2.031 . S
O17 C21 1.269 . S
O18 Zn15 1.986 . S
O18 C25 1.262 . S
O19 Zn14 2.049 . S
O19 C27 1.260 . S
O20 Zn15 1.996 . S
O20 C27 1.257 . S
C21 O16 1.254 . S
C21 O17 1.269 . S
C22 O23 1.249 . S
C22 O24 1.270 . S
O23 Zn15 1.943 . S
O23 C22 1.249 . S
O24 Zn14 2.067 . S
O24 C22 1.270 . S
C25 O18 1.262 . S
C25 O26 1.232 . S
O26 C25 1.232 . S
C27 O19 1.260 . S
C27 O20 1.257 . S
Zn28 O31 2.031 . S
Zn28 O33 2.049 . S
Zn28 O38 2.067 . S
Zn29 O30 1.962 . S
Zn29 O32 1.986 . S
Zn29 O34 1.996 . S
Zn29 O37 1.943 . S
O30 Zn29 1.962 . S
O30 C35 1.254 1_565 S
O31 Zn28 2.031 . S
O31 C35 1.269 . S
O32 Zn29 1.986 . S
O32 C39 1.262 . S
O33 Zn28 2.049 . S
O33 C41 1.260 1_545 S
O34 Zn29 1.996 . S
O34 C41 1.257 . S
C35 O30 1.254 1_545 S
C35 O31 1.269 . S
C36 O37 1.249 1_545 S
C36 O38 1.270 . S
O37 Zn29 1.943 . S
O37 C36 1.249 1_565 S
O38 Zn28 2.067 . S
O38 C36 1.270 . S
C39 O32 1.262 . S
C39 O40 1.232 . S
O40 C39 1.232 . S
C41 O33 1.260 1_565 S
C41 O34 1.257 . S
Zn42 O45 2.031 . S
Zn42 O47 2.049 . S
Zn42 O52 2.067 . S
Zn43 O44 1.962 . S
Zn43 O46 1.986 . S
Zn43 O48 1.996 . S
Zn43 O51 1.943 . S
O44 Zn43 1.962 . S
O44 C49 1.254 . S
O45 Zn42 2.031 . S
O45 C49 1.269 . S
O46 Zn43 1.986 . S
O46 C53 1.262 . S
O47 Zn42 2.049 . S
O47 C55 1.260 . S
O48 Zn43 1.996 . S
O48 C55 1.257 . S
C49 O44 1.254 . S
C49 O45 1.269 . S
C50 O51 1.249 . S
C50 O52 1.270 . S
O51 Zn43 1.943 . S
O51 C50 1.249 . S
O52 Zn42 2.067 . S
O52 C50 1.270 . S
C53 O46 1.262 . S
C53 O54 1.232 . S
O54 C53 1.232 . S
C55 O47 1.260 . S
C55 O48 1.257 . S
Zn56 O59 2.031 . S
Zn56 O61 2.049 . S
Zn56 O66 2.067 1_455 S
Zn57 O58 1.962 . S
Zn57 O60 1.986 . S
Zn57 O62 1.996 . S
Zn57 O65 1.943 1_455 S
O58 Zn57 1.962 . S
O58 C63 1.254 1_565 S
O59 Zn56 2.031 . S
O59 C63 1.269 . S
O60 Zn57 1.986 . S
O60 C67 1.262 . S
O61 Zn56 2.049 . S
O61 C69 1.260 1_545 S
O62 Zn57 1.996 . S
O62 C69 1.257 . S
C63 O58 1.254 1_545 S
C63 O59 1.269 . S
C64 O65 1.249 1_545 S
C64 O66 1.270 . S
O65 Zn57 1.943 1_655 S
O65 C64 1.249 1_565 S
O66 Zn56 2.067 1_655 S
O66 C64 1.270 . S
C67 O60 1.262 . S
C67 O68 1.232 . S
O68 C67 1.232 . S
C69 O61 1.260 1_565 S
C69 O62 1.257 . S
Zn70 O73 2.031 . S
Zn70 O75 2.049 . S
Zn70 O80 2.067 . S
Zn71 O72 1.962 . S
Zn71 O74 1.986 . S
Zn71 O76 1.996 . S
Zn71 O79 1.943 . S
O72 Zn71 1.962 . S
O72 C77 1.254 . S
O73 Zn70 2.031 . S
O73 C77 1.269 . S
O74 Zn71 1.986 . S
O74 C81 1.262 . S
O75 Zn70 2.049 . S
O75 C83 1.260 . S
O76 Zn71 1.996 . S
O76 C83 1.257 . S
C77 O72 1.254 . S
C77 O73 1.269 . S
C78 O79 1.249 . S
C78 O80 1.270 . S
O79 Zn71 1.943 . S
O79 C78 1.249 . S
O80 Zn70 2.067 . S
O80 C78 1.270 . S
C81 O74 1.262 . S
C81 O82 1.232 . S
O82 C81 1.232 . S
C83 O75 1.260 . S
C83 O76 1.257 . S
Zn84 O87 2.031 . S
Zn84 O89 2.049 . S
Zn84 O94 2.067 . S
Zn85 O86 1.962 . S
Zn85 O88 1.986 . S
Zn85 O90 1.996 . S
Zn85 O93 1.943 . S
O86 Zn85 1.962 . S
O86 C91 1.254 1_545 S
O87 Zn84 2.031 . S
O87 C91 1.269 . S
O88 Zn85 1.986 . S
O88 C95 1.262 . S
O89 Zn84 2.049 . S
O89 C97 1.260 1_565 S
O90 Zn85 1.996 . S
O90 C97 1.257 . S
C91 O86 1.254 1_565 S
C91 O87 1.269 . S
C92 O93 1.249 1_565 S
C92 O94 1.270 . S
O93 Zn85 1.943 . S
O93 C92 1.249 1_545 S
O94 Zn84 2.067 . S
O94 C92 1.270 . S
C95 O88 1.262 . S
C95 O96 1.232 . S
O96 C95 1.232 . S
C97 O89 1.260 1_545 S
C97 O90 1.257 . S
Zn98 O101 2.031 . S
Zn98 O103 2.049 . S
Zn98 O108 2.067 . S
Zn99 O100 1.962 . S
Zn99 O102 1.986 . S
Zn99 O104 1.996 . S
Zn99 O107 1.943 . S
O100 Zn99 1.962 . S
O100 C105 1.254 . S
O101 Zn98 2.031 . S
O101 C105 1.269 . S
O102 Zn99 1.986 . S
O102 C109 1.262 . S
O103 Zn98 2.049 . S
O103 C111 1.260 . S
O104 Zn99 1.996 . S
O104 C111 1.257 . S
C105 O100 1.254 . S
C105 O101 1.269 . S
C106 O107 1.249 . S
C106 O108 1.270 . S
O107 Zn99 1.943 . S
O107 C106 1.249 . S
O108 Zn98 2.067 . S
O108 C106 1.270 . S
C109 O102 1.262 . S
C109 O110 1.232 . S
O110 C109 1.232 . S
C111 O103 1.260 . S
C111 O104 1.257 . S
Zn112 O115 2.031 . S
Zn112 O117 2.049 . S
Zn112 O122 2.067 . S
Zn113 O114 1.962 . S
Zn113 O116 1.986 . S
Zn113 O118 1.996 . S
Zn113 O121 1.943 . S
O114 Zn113 1.962 . S
O114 C119 1.254 . S
O115 Zn112 2.031 . S
O115 C119 1.269 . S
O116 Zn113 1.986 . S
O116 C123 1.262 . S
O117 Zn112 2.049 . S
O117 C125 1.260 . S
O118 Zn113 1.996 . S
O118 C125 1.257 . S
C119 O114 1.254 . S
C119 O115 1.269 . S
C120 O121 1.249 . S
C120 O122 1.270 . S
O121 Zn113 1.943 . S
O121 C120 1.249 . S
O122 Zn112 2.067 . S
O122 C120 1.270 . S
C123 O116 1.262 . S
C123 O124 1.232 . S
O124 C123 1.232 . S
C125 O117 1.260 . S
C125 O118 1.257 . S
Zn126 O129 2.031 . S
Zn126 O131 2.049 . S
Zn126 O136 2.067 . S
Zn127 O128 1.962 . S
Zn127 O130 1.986 . S
Zn127 O132 1.996 . S
Zn127 O135 1.943 . S
O128 Zn127 1.962 . S
O128 C133 1.254 . S
O129 Zn126 2.031 . S
O129 C133 1.269 . S
O130 Zn127 1.986 . S
O130 C137 1.262 . S
O131 Zn126 2.049 . S
O131 C139 1.260 . S
O132 Zn127 1.996 . S
O132 C139 1.257 . S
C133 O128 1.254 . S
C133 O129 1.269 . S
C134 O135 1.249 . S
C134 O136 1.270 . S
O135 Zn127 1.943 . S
O135 C134 1.249 . S
O136 Zn126 2.067 . S
O136 C134 1.270 . S
C137 O130 1.262 . S
C137 O138 1.232 . S
O138 C137 1.232 . S
C139 O131 1.260 . S
C139 O132 1.257 . S
Zn140 O143 2.031 . S
Zn140 O145 2.049 . S
Zn140 O150 2.067 . S
Zn141 O142 1.962 . S
Zn141 O144 1.986 . S
Zn141 O146 1.996 . S
Zn141 O149 1.943 . S
O142 Zn141 1.962 . S
O142 C147 1.254 . S
O143 Zn140 2.031 . S
O143 C147 1.269 . S
O144 Zn141 1.986 . S
O144 C151 1.262 . S
O145 Zn140 2.049 . S
O145 C153 1.260 . S
O146 Zn141 1.996 . S
O146 C153 1.257 . S
C147 O142 1.254 . S
C147 O143 1.269 . S
C148 O149 1.249 . S
C148 O150 1.270 . S
O149 Zn141 1.943 . S
O149 C148 1.249 . S
O150 Zn140 2.067 . S
O150 C148 1.270 . S
C151 O144 1.262 . S
C151 O152 1.232 . S
O152 C151 1.232 . S
C153 O145 1.260 . S
C153 O146 1.257 . S
Zn154 O157 2.031 . S
Zn154 O159 2.049 . S
Zn154 O164 2.067 . S
Zn155 O156 1.962 . S
Zn155 O158 1.986 . S
Zn155 O160 1.996 . S
Zn155 O163 1.943 . S
O156 Zn155 1.962 . S
O156 C161 1.254 . S
O157 Zn154 2.031 . S
O157 C161 1.269 . S
O158 Zn155 1.986 . S
O158 C165 1.262 . S
O159 Zn154 2.049 . S
O159 C167 1.260 . S
O160 Zn155 1.996 . S
O160 C167 1.257 . S
C161 O156 1.254 . S
C161 O157 1.269 . S
C162 O163 1.249 . S
C162 O164 1.270 . S
O163 Zn155 1.943 . S
O163 C162 1.249 . S
O164 Zn154 2.067 . S
O164 C162 1.270 . S
C165 O158 1.262 . S
C165 O166 1.232 . S
O166 C165 1.232 . S
C167 O159 1.260 . S
C167 O160 1.257 . S
Zn168 O171 2.031 . S
Zn168 O173 2.049 . S
Zn168 O178 2.067 . S
Zn169 O170 1.962 . S
Zn169 O172 1.986 . S
Zn169 O174 1.996 . S
Zn169 O177 1.943 . S
O170 Zn169 1.962 . S
O170 C175 1.254 . S
O171 Zn168 2.031 . S
O171 C175 1.269 . S
O172 Zn169 1.986 . S
O172 C179 1.262 . S
O173 Zn168 2.049 . S
O173 C181 1.260 . S
O174 Zn169 1.996 . S
O174 C181 1.257 . S
C175 O170 1.254 . S
C175 O171 1.269 . S
C176 O177 1.249 . S
C176 O178 1.270 . S
O177 Zn169 1.943 . S
O177 C176 1.249 . S
O178 Zn168 2.067 . S
O178 C176 1.270 . S
C179 O172 1.262 . S
C179 O180 1.232 . S
O180 C179 1.232 . S
C181 O173 1.260 . S
C181 O174 1.257 . S
Zn182 O185 2.035 . S
Zn182 O187 2.049 . S
Zn182 O192 2.067 . S
Zn183 O184 1.962 1_455 S
Zn183 O186 1.986 . S
Zn183 O188 1.996 . S
Zn183 O191 1.943 . S
O184 Zn183 1.962 1_655 S
O184 C189 1.254 . S
O185 Zn182 2.035 . S
O185 C189 1.263 1_455 S
O186 Zn183 1.986 . S
O186 C193 1.262 . S
O187 Zn182 2.049 . S
O187 C195 1.260 . S
O188 Zn183 1.996 . S
O188 C195 1.257 . S
C189 O184 1.254 . S
C189 O185 1.263 1_655 S
C190 O191 1.249 . S
C190 O192 1.270 . S
O191 Zn183 1.943 . S
O191 C190 1.249 . S
O192 Zn182 2.067 . S
O192 C190 1.270 . S
C193 O186 1.262 . S
C193 O194 1.232 . S
O194 C193 1.232 . S
C195 O187 1.260 . S
C195 O188 1.257 . S
Zn196 O199 2.031 . S
Zn196 O201 2.049 . S
Zn196 O206 2.067 . S
Zn197 O198 1.962 . S
Zn197 O200 1.986 . S
Zn197 O202 1.996 . S
Zn197 O205 1.943 . S
O198 Zn197 1.962 . S
O198 C203 1.254 . S
O199 Zn196 2.031 . S
O199 C203 1.269 . S
O200 Zn197 1.986 . S
O200 C207 1.262 . S
O201 Zn196 2.049 . S
O201 C209 1.260 . S
O202 Zn197 1.996 . S
O202 C209 1.257 . S
C203 O198 1.254 . S
C203 O199 1.269 . S
C204 O205 1.249 . S
C204 O206 1.270 . S
O205 Zn197 1.943 . S
O205 C204 1.249 . S
O206 Zn196 2.067 . S
O206 C204 1.270 . S
C207 O200 1.262 . S
C207 O208 1.232 . S
O208 C207 1.232 . S
C209 O201 1.260 . S
C209 O202 1.257 . S
Zn210 O213 2.035 . S
Zn210 O215 2.049 . S
Zn210 O220 2.067 . S
Zn211 O212 1.962 1_455 S
Zn211 O214 1.986 . S
Zn211 O216 1.996 . S
Zn211 O219 1.943 . S
O212 Zn211 1.962 1_655 S
O212 C217 1.254 . S
O213 Zn210 2.035 . S
O213 C217 1.263 1_455 S
O214 Zn211 1.986 . S
O214 C221 1.262 . S
O215 Zn210 2.049 . S
O215 C223 1.260 . S
O216 Zn211 1.996 . S
O216 C223 1.257 . S
C217 O212 1.254 . S
C217 O213 1.263 1_655 S
C218 O219 1.249 . S
C218 O220 1.270 . S
O219 Zn211 1.943 . S
O219 C218 1.249 . S
O220 Zn210 2.067 . S
O220 C218 1.270 . S
C221 O214 1.262 . S
C221 O222 1.232 . S
O222 C221 1.232 . S
C223 O215 1.260 . S
C223 O216 1.257 . S
H224 C230 0.930 . S
H225 C234 0.930 . S
H226 C239 0.929 . S
H227 C237 0.929 . S
H228 C232 0.929 . S
H229 C238 0.929 . S
C230 H224 0.930 . S
C230 C231 1.367 . S
C230 C238 1.378 . S
C231 C230 1.367 . S
C231 C239 1.433 1_455 S
C232 H228 0.929 . S
C232 C234 1.378 . S
C232 C236 1.350 1_655 S
C233 C236 1.463 . S
C233 C238 1.350 . S
C233 N241 1.427 1_455 S
C234 H225 0.930 . S
C234 C232 1.378 . S
C234 C235 1.367 1_655 S
C235 C234 1.367 1_455 S
C235 C237 1.433 . S
C236 C232 1.350 1_455 S
C236 C233 1.463 . S
C236 N240 1.427 . S
C237 H227 0.929 . S
C237 C235 1.433 . S
C237 N240 1.384 . S
C238 H229 0.929 . S
C238 C230 1.378 . S
C238 C233 1.350 . S
C239 H226 0.929 . S
C239 C231 1.433 1_655 S
C239 N241 1.384 . S
N240 C236 1.427 . S
N240 C237 1.384 . S
N241 C233 1.427 1_655 S
N241 C239 1.384 . S
H242 C248 0.930 . S
H243 C252 0.930 . S
H244 C257 0.929 . S
H245 C255 0.929 . S
H246 C250 0.929 . S
H247 C256 0.929 . S
C248 H242 0.930 . S
C248 C249 1.367 . S
C248 C256 1.378 . S
C249 C248 1.367 . S
C249 C257 1.433 . S
C250 H246 0.929 . S
C250 C252 1.378 . S
C250 C254 1.350 . S
C251 C254 1.456 1_655 S
C251 C256 1.353 . S
C251 N259 1.430 . S
C252 H243 0.930 . S
C252 C250 1.378 . S
C252 C253 1.367 . S
C253 C252 1.367 . S
C253 C255 1.433 . S
C254 C250 1.350 . S
C254 C251 1.456 1_455 S
C254 N258 1.427 . S
C255 H245 0.929 . S
C255 C253 1.433 . S
C255 N258 1.384 . S
C256 H247 0.929 . S
C256 C248 1.378 . S
C256 C251 1.353 . S
C257 H244 0.929 . S
C257 C249 1.433 . S
C257 N259 1.384 . S
N258 C254 1.427 . S
N258 C255 1.384 . S
N259 C251 1.430 . S
N259 C257 1.384 . S
H260 C266 0.930 . S
H261 C270 0.930 . S
H262 C275 0.929 . S
H263 C273 0.929 . S
H264 C268 0.929 . S
H265 C274 0.929 . S
C266 H260 0.930 . S
C266 C267 1.367 . S
C266 C274 1.378 . S
C267 C266 1.367 . S
C267 C275 1.433 . S
C268 H264 0.929 . S
C268 C270 1.378 . S
C268 C272 1.350 . S
C269 C272 1.463 . S
C269 C274 1.350 . S
C269 N277 1.427 . S
C270 H261 0.930 . S
C270 C268 1.378 . S
C270 C271 1.367 . S
C271 C270 1.367 . S
C271 C273 1.433 . S
C272 C268 1.350 . S
C272 C269 1.463 . S
C272 N276 1.427 . S
C273 H263 0.929 . S
C273 C271 1.433 . S
C273 N276 1.384 . S
C274 H265 0.929 . S
C274 C266 1.378 . S
C274 C269 1.350 . S
C275 H262 0.929 . S
C275 C267 1.433 . S
C275 N277 1.384 . S
N276 C272 1.427 . S
N276 C273 1.384 . S
N277 C269 1.427 . S
N277 C275 1.384 . S
H278 C284 0.930 . S
H279 C288 0.930 . S
H280 C293 0.929 . S
H281 C291 0.929 . S
H282 C286 0.929 . S
H283 C292 0.929 . S
C284 H278 0.930 . S
C284 C285 1.367 . S
C284 C292 1.378 . S
C285 C284 1.367 . S
C285 C293 1.433 . S
C286 H282 0.929 . S
C286 C288 1.378 . S
C286 C290 1.350 . S
C287 C290 1.463 . S
C287 C292 1.350 . S
C287 N295 1.427 . S
C288 H279 0.930 . S
C288 C286 1.378 . S
C288 C289 1.367 . S
C289 C288 1.367 . S
C289 C291 1.433 . S
C290 C286 1.350 . S
C290 C287 1.463 . S
C290 N294 1.427 . S
C291 H281 0.929 . S
C291 C289 1.433 . S
C291 N294 1.384 . S
C292 H283 0.929 . S
C292 C284 1.378 . S
C292 C287 1.350 . S
C293 H280 0.929 . S
C293 C285 1.433 . S
C293 N295 1.384 . S
N294 C290 1.427 . S
N294 C291 1.384 . S
N295 C287 1.427 . S
N295 C293 1.384 . S
H296 C302 0.924 1_655 S
H297 C306 0.930 . S
H298 C311 0.929 . S
H299 C309 0.929 . S
H300 C304 0.929 . S
H301 C310 0.929 . S
C302 H296 0.924 1_455 S
C302 C303 1.367 . S
C302 C310 1.378 . S
C303 C302 1.367 . S
C303 C311 1.433 . S
C304 H300 0.929 . S
C304 C306 1.378 . S
C304 C308 1.350 . S
C305 C308 1.463 . S
C305 C310 1.350 . S
C305 N313 1.427 . S
C306 H297 0.930 . S
C306 C304 1.378 . S
C306 C307 1.367 . S
C307 C306 1.367 . S
C307 C309 1.433 . S
C308 C304 1.350 . S
C308 C305 1.463 . S
C308 N312 1.427 . S
C309 H299 0.929 . S
C309 C307 1.433 . S
C309 N312 1.384 . S
C310 H301 0.929 . S
C310 C302 1.378 . S
C310 C305 1.350 . S
C311 H298 0.929 . S
C311 C303 1.433 . S
C311 N313 1.384 . S
N312 C308 1.427 . S
N312 C309 1.384 . S
N313 C305 1.427 . S
N313 C311 1.384 . S
H314 C320 0.930 . S
H315 C324 0.930 . S
H316 C329 0.929 . S
H317 C327 0.929 . S
H318 C322 0.929 . S
H319 C328 0.929 . S
C320 H314 0.930 . S
C320 C321 1.367 . S
C320 C328 1.378 . S
C321 C320 1.367 . S
C321 C329 1.433 . S
C322 H318 0.929 . S
C322 C324 1.378 . S
C322 C326 1.350 . S
C323 C326 1.463 . S
C323 C328 1.350 . S
C323 N331 1.427 . S
C324 H315 0.930 . S
C324 C322 1.378 . S
C324 C325 1.367 . S
C325 C324 1.367 . S
C325 C327 1.433 . S
C326 C322 1.350 . S
C326 C323 1.463 . S
C326 N330 1.427 . S
C327 H317 0.929 . S
C327 C325 1.433 . S
C327 N330 1.384 . S
C328 H319 0.929 . S
C328 C320 1.378 . S
C328 C323 1.350 . S
C329 H316 0.929 . S
C329 C321 1.433 . S
C329 N331 1.384 . S
N330 C326 1.427 . S
N330 C327 1.384 . S
N331 C323 1.427 . S
N331 C329 1.384 . S
H332 C338 0.930 . S
H333 C342 0.930 . S
H334 C347 0.929 . S
H335 C345 0.929 . S
H336 C340 0.929 . S
H337 C346 0.929 . S
C338 H332 0.930 . S
C338 C339 1.367 . S
C338 C346 1.378 . S
C339 C338 1.367 . S
C339 C347 1.433 . S
C340 H336 0.929 . S
C340 C342 1.378 . S
C340 C344 1.350 . S
C341 C344 1.463 . S
C341 C346 1.350 . S
C341 N349 1.427 . S
C342 H333 0.930 . S
C342 C340 1.378 . S
C342 C343 1.367 . S
C343 C342 1.367 . S
C343 C345 1.433 . S
C344 C340 1.350 . S
C344 C341 1.463 . S
C344 N348 1.427 . S
C345 H335 0.929 . S
C345 C343 1.433 . S
C345 N348 1.384 . S
C346 H337 0.929 . S
C346 C338 1.378 . S
C346 C341 1.350 . S
C347 H334 0.929 . S
C347 C339 1.433 . S
C347 N349 1.384 . S
N348 C344 1.427 . S
N348 C345 1.384 . S
N349 C341 1.427 . S
N349 C347 1.384 . S
H350 C356 0.930 . S
H351 C360 0.930 . S
H352 C365 0.929 . S
H353 C363 0.929 . S
H354 C358 0.929 . S
H355 C364 0.929 . S
C356 H350 0.930 . S
C356 C357 1.367 . S
C356 C364 1.378 . S
C357 C356 1.367 . S
C357 C365 1.433 . S
C358 H354 0.929 . S
C358 C360 1.378 . S
C358 C362 1.353 . S
C359 C362 1.456 1_455 S
C359 C364 1.350 . S
C359 N367 1.427 . S
C360 H351 0.930 . S
C360 C358 1.378 . S
C360 C361 1.367 . S
C361 C360 1.367 . S
C361 C363 1.433 . S
C362 C358 1.353 . S
C362 C359 1.456 1_655 S
C362 N366 1.430 . S
C363 H353 0.929 . S
C363 C361 1.433 . S
C363 N366 1.384 . S
C364 H355 0.929 . S
C364 C356 1.378 . S
C364 C359 1.350 . S
C365 H352 0.929 . S
C365 C357 1.433 . S
C365 N367 1.384 . S
N366 C362 1.430 . S
N366 C363 1.384 . S
N367 C359 1.427 . S
N367 C365 1.384 . S
H368 C374 0.930 . S
H369 C378 0.930 . S
H370 C383 0.929 . S
H371 C381 0.929 . S
H372 C376 0.929 . S
H373 C382 0.929 . S
C374 H368 0.930 . S
C374 C375 1.367 1_645 S
C374 C382 1.378 . S
C375 C374 1.367 1_465 S
C375 C383 1.433 . S
C376 H372 0.929 . S
C376 C378 1.378 . S
C376 C380 1.350 1_565 S
C377 C380 1.463 1_565 S
C377 C382 1.350 1_465 S
C377 N385 1.427 . S
C378 H369 0.930 . S
C378 C376 1.378 . S
C378 C379 1.367 1_565 S
C379 C378 1.367 1_545 S
C379 C381 1.433 1_455 S
C380 C376 1.350 1_545 S
C380 C377 1.463 1_545 S
C380 N384 1.427 1_455 S
C381 H371 0.929 . S
C381 C379 1.433 1_655 S
C381 N384 1.384 . S
C382 H373 0.929 . S
C382 C374 1.378 . S
C382 C377 1.350 1_645 S
C383 H370 0.929 . S
C383 C375 1.433 . S
C383 N385 1.384 . S
N384 C380 1.427 1_655 S
N384 C381 1.384 . S
N385 C377 1.427 . S
N385 C383 1.384 . S
H386 C392 0.930 . S
H387 C396 0.930 . S
H388 C401 0.929 . S
H389 C399 0.929 . S
H390 C394 0.929 . S
H391 C400 0.929 . S
C392 H386 0.930 . S
C392 C393 1.367 . S
C392 C400 1.378 . S
C393 C392 1.367 . S
C393 C401 1.433 . S
C394 H390 0.929 . S
C394 C396 1.378 . S
C394 C398 1.350 . S
C395 C398 1.463 . S
C395 C400 1.350 . S
C395 N403 1.427 . S
C396 H387 0.930 . S
C396 C394 1.378 . S
C396 C397 1.367 . S
C397 C396 1.367 . S
C397 C399 1.433 . S
C398 C394 1.350 . S
C398 C395 1.463 . S
C398 N402 1.427 . S
C399 H389 0.929 . S
C399 C397 1.433 . S
C399 N402 1.384 . S
C400 H391 0.929 . S
C400 C392 1.378 . S
C400 C395 1.350 . S
C401 H388 0.929 . S
C401 C393 1.433 . S
C401 N403 1.384 . S
N402 C398 1.427 . S
N402 C399 1.384 . S
N403 C395 1.427 . S
N403 C401 1.384 . S
H404 C410 0.933 . S
H405 C414 0.933 . S
H406 C419 0.929 . S
H407 C417 0.929 . S
H408 C412 0.929 . S
H409 C418 0.929 . S
C410 H404 0.933 . S
C410 C411 1.367 . S
C410 C418 1.378 1_565 S
C411 C410 1.367 . S
C411 C419 1.433 . S
C412 H408 0.929 . S
C412 C414 1.378 1_565 S
C412 C416 1.350 1_565 S
C413 C416 1.463 1_564 S
C413 C418 1.350 1_565 S
C413 N421 1.427 . S
C414 H405 0.933 . S
C414 C412 1.378 1_545 S
C414 C415 1.367 . S
C415 C414 1.367 . S
C415 C417 1.433 . S
C416 C412 1.350 1_545 S
C416 C413 1.463 1_546 S
C416 N420 1.427 . S
C417 H407 0.929 . S
C417 C415 1.433 . S
C417 N420 1.384 . S
C418 H409 0.929 . S
C418 C410 1.378 1_545 S
C418 C413 1.350 1_545 S
C419 H406 0.929 . S
C419 C411 1.433 . S
C419 N421 1.384 . S
N420 C416 1.427 . S
N420 C417 1.384 . S
N421 C413 1.427 . S
N421 C419 1.384 . S
H422 C428 0.930 . S
H423 C432 0.930 . S
H424 C437 0.929 . S
H425 C435 0.929 . S
H426 C430 0.929 . S
H427 C436 0.929 . S
C428 H422 0.930 . S
C428 C429 1.367 . S
C428 C436 1.378 . S
C429 C428 1.367 . S
C429 C437 1.433 . S
C430 H426 0.929 . S
C430 C432 1.378 . S
C430 C434 1.350 . S
C431 C434 1.463 . S
C431 C436 1.350 . S
C431 N439 1.427 . S
C432 H423 0.930 . S
C432 C430 1.378 . S
C432 C433 1.367 . S
C433 C432 1.367 . S
C433 C435 1.433 . S
C434 C430 1.350 . S
C434 C431 1.463 . S
C434 N438 1.427 . S
C435 H425 0.929 . S
C435 C433 1.433 . S
C435 N438 1.384 . S
C436 H427 0.929 . S
C436 C428 1.378 . S
C436 C431 1.350 . S
C437 H424 0.929 . S
C437 C429 1.433 . S
C437 N439 1.384 . S
N438 C434 1.427 . S
N438 C435 1.384 . S
N439 C431 1.427 . S
N439 C437 1.384 . S
H440 C446 0.930 . S
H441 C450 0.930 . S
H442 C455 0.929 . S
H443 C453 0.929 . S
H444 C448 0.929 . S
H445 C454 0.929 . S
C446 H440 0.930 . S
C446 C447 1.367 . S
C446 C454 1.378 . S
C447 C446 1.367 . S
C447 C455 1.433 . S
C448 H444 0.929 . S
C448 C450 1.378 . S
C448 C452 1.350 . S
C449 C452 1.463 . S
C449 C454 1.350 . S
C449 N457 1.427 . S
C450 H441 0.930 . S
C450 C448 1.378 . S
C450 C451 1.367 . S
C451 C450 1.367 . S
C451 C453 1.433 . S
C452 C448 1.350 . S
C452 C449 1.463 . S
C452 N456 1.427 . S
C453 H443 0.929 . S
C453 C451 1.433 . S
C453 N456 1.384 . S
C454 H445 0.929 . S
C454 C446 1.378 . S
C454 C449 1.350 . S
C455 H442 0.929 . S
C455 C447 1.433 . S
C455 N457 1.384 . S
N456 C452 1.427 . S
N456 C453 1.384 . S
N457 C449 1.427 . S
N457 C455 1.384 . S
H458 C464 0.930 . S
H459 C468 0.930 . S
H460 C473 0.929 . S
H461 C471 0.929 . S
H462 C466 0.929 . S
H463 C472 0.929 . S
C464 H458 0.930 . S
C464 C465 1.367 . S
C464 C472 1.378 . S
C465 C464 1.367 . S
C465 C473 1.433 . S
C466 H462 0.929 . S
C466 C468 1.378 . S
C466 C470 1.350 . S
C467 C470 1.463 . S
C467 C472 1.350 . S
C467 N475 1.427 . S
C468 H459 0.930 . S
C468 C466 1.378 . S
C468 C469 1.367 . S
C469 C468 1.367 . S
C469 C471 1.433 . S
C470 C466 1.350 . S
C470 C467 1.463 . S
C470 N474 1.427 . S
C471 H461 0.929 . S
C471 C469 1.433 . S
C471 N474 1.384 . S
C472 H463 0.929 . S
C472 C464 1.378 . S
C472 C467 1.350 . S
C473 H460 0.929 . S
C473 C465 1.433 . S
C473 N475 1.384 . S
N474 C470 1.427 . S
N474 C471 1.384 . S
N475 C467 1.427 . S
N475 C473 1.384 . S
H476 C482 0.930 . S
H477 C486 0.930 . S
H478 C491 0.929 . S
H479 C489 0.929 . S
H480 C484 0.929 . S
H481 C490 0.929 . S
C482 H476 0.930 . S
C482 C483 1.367 . S
C482 C490 1.378 . S
C483 C482 1.367 . S
C483 C491 1.433 . S
C484 H480 0.929 . S
C484 C486 1.378 . S
C484 C488 1.350 . S
C485 C488 1.463 1_556 S
C485 C490 1.350 . S
C485 N493 1.427 . S
C486 H477 0.930 . S
C486 C484 1.378 . S
C486 C487 1.367 . S
C487 C486 1.367 . S
C487 C489 1.433 . S
C488 C484 1.350 . S
C488 C485 1.463 1_554 S
C488 N492 1.427 . S
C489 H479 0.929 . S
C489 C487 1.433 . S
C489 N492 1.384 . S
C490 H481 0.929 . S
C490 C482 1.378 . S
C490 C485 1.350 . S
C491 H478 0.929 . S
C491 C483 1.433 . S
C491 N493 1.384 . S
N492 C488 1.427 . S
N492 C489 1.384 . S
N493 C485 1.427 . S
N493 C491 1.384 . S
H494 C500 0.930 . S
H495 C504 0.930 1_655 S
H496 C509 0.929 1_655 S
H497 C507 0.929 . S
H498 C502 0.929 1_655 S
H499 C508 0.929 . S
C500 H494 0.930 . S
C500 C501 1.367 . S
C500 C508 1.378 . S
C501 C500 1.367 . S
C501 C509 1.433 . S
C502 H498 0.929 1_455 S
C502 C504 1.378 . S
C502 C506 1.350 . S
C503 C506 1.463 . S
C503 C508 1.350 . S
C503 N511 1.427 . S
C504 H495 0.930 1_455 S
C504 C502 1.378 . S
C504 C505 1.367 . S
C505 C504 1.367 . S
C505 C507 1.433 . S
C506 C502 1.350 . S
C506 C503 1.463 . S
C506 N510 1.427 . S
C507 H497 0.929 . S
C507 C505 1.433 . S
C507 N510 1.384 . S
C508 H499 0.929 . S
C508 C500 1.378 . S
C508 C503 1.350 . S
C509 H496 0.929 1_455 S
C509 C501 1.433 . S
C509 N511 1.384 . S
N510 C506 1.427 . S
N510 C507 1.384 . S
N511 C503 1.427 . S
N511 C509 1.384 . S
H512 C518 0.930 . S
H513 C522 0.930 1_545 S
H514 C527 0.929 . S
H515 C525 0.929 . S
H516 C520 0.929 . S
H517 C526 0.929 . S
C518 H512 0.930 . S
C518 C519 1.367 . S
C518 C526 1.378 . S
C519 C518 1.367 . S
C519 C527 1.433 . S
C520 H516 0.929 . S
C520 C522 1.378 . S
C520 C524 1.350 . S
C521 C524 1.463 . S
C521 C526 1.350 . S
C521 N529 1.427 . S
C522 H513 0.930 1_565 S
C522 C520 1.378 . S
C522 C523 1.367 . S
C523 C522 1.367 . S
C523 C525 1.433 . S
C524 C520 1.350 . S
C524 C521 1.463 . S
C524 N528 1.427 . S
C525 H515 0.929 . S
C525 C523 1.433 . S
C525 N528 1.384 . S
C526 H517 0.929 . S
C526 C518 1.378 . S
C526 C521 1.350 . S
C527 H514 0.929 . S
C527 C519 1.433 . S
C527 N529 1.384 . S
N528 C524 1.427 . S
N528 C525 1.384 . S
N529 C521 1.427 . S
N529 C527 1.384 . S
H530 C536 0.930 . S
H531 C540 0.930 . S
H532 C545 0.929 . S
H533 C543 0.929 . S
H534 C538 0.929 . S
H535 C544 0.929 . S
C536 H530 0.930 . S
C536 C537 1.367 . S
C536 C544 1.378 . S
C537 C536 1.367 . S
C537 C545 1.433 . S
C538 H534 0.929 . S
C538 C540 1.378 . S
C538 C542 1.350 . S
C539 C542 1.463 . S
C539 C544 1.350 . S
C539 N547 1.427 . S
C540 H531 0.930 . S
C540 C538 1.378 . S
C540 C541 1.367 . S
C541 C540 1.367 . S
C541 C543 1.433 . S
C542 C538 1.350 . S
C542 C539 1.463 . S
C542 N546 1.427 . S
C543 H533 0.929 . S
C543 C541 1.433 . S
C543 N546 1.384 . S
C544 H535 0.929 . S
C544 C536 1.378 . S
C544 C539 1.350 . S
C545 H532 0.929 . S
C545 C537 1.433 . S
C545 N547 1.384 . S
N546 C542 1.427 . S
N546 C543 1.384 . S
N547 C539 1.427 . S
N547 C545 1.384 . S
H548 C554 0.930 . S
H549 C558 0.930 . S
H550 C563 0.929 . S
H551 C561 0.929 . S
H552 C556 0.929 . S
H553 C562 0.929 . S
C554 H548 0.930 . S
C554 C555 1.367 . S
C554 C562 1.378 . S
C555 C554 1.367 . S
C555 C563 1.433 . S
C556 H552 0.929 . S
C556 C558 1.378 . S
C556 C560 1.350 . S
C557 C560 1.463 . S
C557 C562 1.350 . S
C557 N565 1.427 . S
C558 H549 0.930 . S
C558 C556 1.378 . S
C558 C559 1.367 . S
C559 C558 1.367 . S
C559 C561 1.433 . S
C560 C556 1.350 . S
C560 C557 1.463 . S
C560 N564 1.427 . S
C561 H551 0.929 . S
C561 C559 1.433 . S
C561 N564 1.384 . S
C562 H553 0.929 . S
C562 C554 1.378 . S
C562 C557 1.350 . S
C563 H550 0.929 . S
C563 C555 1.433 . S
C563 N565 1.384 . S
N564 C560 1.427 . S
N564 C561 1.384 . S
N565 C557 1.427 . S
N565 C563 1.384 . S
H566 C572 0.942 . S
H567 C576 0.930 . S
H568 C581 0.929 . S
H569 C579 0.929 . S
H570 C574 0.929 . S
H571 C580 0.929 . S
C572 H566 0.942 . S
C572 C573 1.367 . S
C572 C580 1.378 . S
C573 C572 1.367 . S
C573 C581 1.433 . S
C574 H570 0.929 . S
C574 C576 1.378 . S
C574 C578 1.350 . S
C575 C578 1.463 . S
C575 C580 1.350 . S
C575 N583 1.427 . S
C576 H567 0.930 . S
C576 C574 1.378 . S
C576 C577 1.367 . S
C577 C576 1.367 . S
C577 C579 1.433 . S
C578 C574 1.350 . S
C578 C575 1.463 . S
C578 N582 1.427 . S
C579 H569 0.929 . S
C579 C577 1.433 . S
C579 N582 1.384 . S
C580 H571 0.929 . S
C580 C572 1.378 . S
C580 C575 1.350 . S
C581 H568 0.929 . S
C581 C573 1.433 . S
C581 N583 1.384 . S
N582 C578 1.427 . S
N582 C579 1.384 . S
N583 C575 1.427 . S
N583 C581 1.384 . S
H584 C590 0.930 1_565 S
H585 C594 0.930 . S
H586 C599 0.929 . S
H587 C597 0.929 . S
H588 C592 0.929 . S
H589 C598 0.929 . S
C590 H584 0.930 1_545 S
C590 C591 1.367 . S
C590 C598 1.378 . S
C591 C590 1.367 . S
C591 C599 1.433 . S
C592 H588 0.929 . S
C592 C594 1.378 . S
C592 C596 1.350 . S
C593 C596 1.463 . S
C593 C598 1.350 . S
C593 N601 1.427 . S
C594 H585 0.930 . S
C594 C592 1.378 . S
C594 C595 1.367 . S
C595 C594 1.367 . S
C595 C597 1.433 . S
C596 C592 1.350 . S
C596 C593 1.463 . S
C596 N600 1.427 . S
C597 H587 0.929 . S
C597 C595 1.433 . S
C597 N600 1.384 . S
C598 H589 0.929 . S
C598 C590 1.378 . S
C598 C593 1.350 . S
C599 H586 0.929 . S
C599 C591 1.433 . S
C599 N601 1.384 . S
N600 C596 1.427 . S
N600 C597 1.384 . S
N601 C593 1.427 . S
N601 C599 1.384 . S
H602 C608 0.930 . S
H603 C612 0.930 . S
H604 C617 0.929 . S
H605 C615 0.929 . S
H606 C610 0.929 . S
H607 C616 0.929 . S
C608 H602 0.930 . S
C608 C609 1.367 . S
C608 C616 1.378 . S
C609 C608 1.367 . S
C609 C617 1.433 . S
C610 H606 0.929 . S
C610 C612 1.378 . S
C610 C614 1.350 . S
C611 C614 1.463 . S
C611 C616 1.350 . S
C611 N619 1.427 . S
C612 H603 0.930 . S
C612 C610 1.378 . S
C612 C613 1.367 . S
C613 C612 1.367 . S
C613 C615 1.433 . S
C614 C610 1.350 . S
C614 C611 1.463 . S
C614 N618 1.427 . S
C615 H605 0.929 . S
C615 C613 1.433 . S
C615 N618 1.384 . S
C616 H607 0.929 . S
C616 C608 1.378 . S
C616 C611 1.350 . S
C617 H604 0.929 . S
C617 C609 1.433 . S
C617 N619 1.384 . S
N618 C614 1.427 . S
N618 C615 1.384 . S
N619 C611 1.427 . S
N619 C617 1.384 . S
H620 C626 0.930 . S
H621 C630 0.930 . S
H622 C635 0.929 . S
H623 C633 0.929 1_545 S
H624 C628 0.929 . S
H625 C634 0.929 . S
C626 H620 0.930 . S
C626 C627 1.367 . S
C626 C634 1.378 . S
C627 C626 1.367 . S
C627 C635 1.433 . S
C628 H624 0.929 . S
C628 C630 1.378 . S
C628 C632 1.350 . S
C629 C632 1.463 . S
C629 C634 1.350 . S
C629 N637 1.427 . S
C630 H621 0.930 . S
C630 C628 1.378 . S
C630 C631 1.367 . S
C631 C630 1.367 . S
C631 C633 1.433 . S
C632 C628 1.350 . S
C632 C629 1.463 . S
C632 N636 1.427 . S
C633 H623 0.929 1_565 S
C633 C631 1.433 . S
C633 N636 1.384 . S
C634 H625 0.929 . S
C634 C626 1.378 . S
C634 C629 1.350 . S
C635 H622 0.929 . S
C635 C627 1.433 . S
C635 N637 1.384 . S
N636 C632 1.427 . S
N636 C633 1.384 . S
N637 C629 1.427 . S
N637 C635 1.384 . S
H638 C644 0.930 . S
H639 C648 0.930 . S
H640 C653 0.929 . S
H641 C651 0.929 . S
H642 C646 0.929 . S
H643 C652 0.929 . S
C644 H638 0.930 . S
C644 C645 1.367 . S
C644 C652 1.378 . S
C645 C644 1.367 . S
C645 C653 1.433 . S
C646 H642 0.929 . S
C646 C648 1.378 . S
C646 C650 1.350 . S
C647 C650 1.463 . S
C647 C652 1.350 . S
C647 N655 1.427 . S
C648 H639 0.930 . S
C648 C646 1.378 . S
C648 C649 1.367 . S
C649 C648 1.367 . S
C649 C651 1.433 . S
C650 C646 1.350 . S
C650 C647 1.463 . S
C650 N654 1.427 . S
C651 H641 0.929 . S
C651 C649 1.433 . S
C651 N654 1.384 . S
C652 H643 0.929 . S
C652 C644 1.378 . S
C652 C647 1.350 . S
C653 H640 0.929 . S
C653 C645 1.433 . S
C653 N655 1.384 . S
N654 C650 1.427 . S
N654 C651 1.384 . S
N655 C647 1.427 . S
N655 C653 1.384 . S
H656 C662 0.930 . S
H657 C666 0.930 . S
H658 C671 0.929 . S
H659 C669 0.929 . S
H660 C664 0.929 . S
H661 C670 0.929 . S
C662 H656 0.930 . S
C662 C663 1.367 . S
C662 C670 1.378 . S
C663 C662 1.367 . S
C663 C671 1.433 . S
C664 H660 0.929 . S
C664 C666 1.378 . S
C664 C668 1.350 . S
C665 C668 1.463 . S
C665 C670 1.350 . S
C665 N673 1.427 . S
C666 H657 0.930 . S
C666 C664 1.378 . S
C666 C667 1.367 . S
C667 C666 1.367 . S
C667 C669 1.433 . S
C668 C664 1.350 . S
C668 C665 1.463 . S
C668 N672 1.427 . S
C669 H659 0.929 . S
C669 C667 1.433 . S
C669 N672 1.384 . S
C670 H661 0.929 . S
C670 C662 1.378 . S
C670 C665 1.350 . S
C671 H658 0.929 . S
C671 C663 1.433 . S
C671 N673 1.384 . S
N672 C668 1.427 . S
N672 C669 1.384 . S
N673 C665 1.427 . S
N673 C671 1.384 . S
H674 C680 0.930 . S
H675 C684 0.930 . S
H676 C689 0.929 . S
H677 C687 0.929 . S
H678 C682 0.929 . S
H679 C688 0.929 . S
C680 H674 0.930 . S
C680 C681 1.367 . S
C680 C688 1.378 . S
C681 C680 1.367 . S
C681 C689 1.433 . S
C682 H678 0.929 . S
C682 C684 1.378 . S
C682 C686 1.350 . S
C683 C686 1.463 . S
C683 C688 1.350 . S
C683 N691 1.427 . S
C684 H675 0.930 . S
C684 C682 1.378 . S
C684 C685 1.367 . S
C685 C684 1.367 . S
C685 C687 1.433 . S
C686 C682 1.350 . S
C686 C683 1.463 . S
C686 N690 1.427 . S
C687 H677 0.929 . S
C687 C685 1.433 . S
C687 N690 1.384 . S
C688 H679 0.929 . S
C688 C680 1.378 . S
C688 C683 1.350 . S
C689 H676 0.929 . S
C689 C681 1.433 . S
C689 N691 1.384 . S
N690 C686 1.427 . S
N690 C687 1.384 . S
N691 C683 1.427 . S
N691 C689 1.384 . S
H692 C698 0.930 . S
H693 C702 0.930 . S
H694 C707 0.929 . S
H695 C705 0.929 . S
H696 C700 0.929 . S
H697 C706 0.929 . S
C698 H692 0.930 . S
C698 C699 1.367 . S
C698 C706 1.378 . S
C699 C698 1.367 . S
C699 C707 1.433 . S
C700 H696 0.929 . S
C700 C702 1.378 . S
C700 C704 1.350 . S
C701 C704 1.463 . S
C701 C706 1.350 . S
C701 N709 1.427 . S
C702 H693 0.930 . S
C702 C700 1.378 . S
C702 C703 1.367 . S
C703 C702 1.367 . S
C703 C705 1.433 . S
C704 C700 1.350 . S
C704 C701 1.463 . S
C704 N708 1.427 . S
C705 H695 0.929 . S
C705 C703 1.433 . S
C705 N708 1.384 . S
C706 H697 0.929 . S
C706 C698 1.378 . S
C706 C701 1.350 . S
C707 H694 0.929 . S
C707 C699 1.433 . S
C707 N709 1.384 . S
N708 C704 1.427 . S
N708 C705 1.384 . S
N709 C701 1.427 . S
N709 C707 1.384 . S
H710 C716 0.930 . S
H711 C720 0.930 . S
H712 C725 0.929 . S
H713 C723 0.929 . S
H714 C718 0.929 . S
H715 C724 0.929 . S
C716 H710 0.930 . S
C716 C717 1.367 . S
C716 C724 1.378 . S
C717 C716 1.367 . S
C717 C725 1.433 . S
C718 H714 0.929 . S
C718 C720 1.378 . S
C718 C722 1.350 . S
C719 C722 1.463 . S
C719 C724 1.350 . S
C719 N727 1.427 . S
C720 H711 0.930 . S
C720 C718 1.378 . S
C720 C721 1.367 . S
C721 C720 1.367 . S
C721 C723 1.433 . S
C722 C718 1.350 . S
C722 C719 1.463 . S
C722 N726 1.427 . S
C723 H713 0.929 . S
C723 C721 1.433 . S
C723 N726 1.384 . S
C724 H715 0.929 . S
C724 C716 1.378 . S
C724 C719 1.350 . S
C725 H712 0.929 . S
C725 C717 1.433 . S
C725 N727 1.384 . S
N726 C722 1.427 . S
N726 C723 1.384 . S
N727 C719 1.427 . S
N727 C725 1.384 . S
H728 C734 0.930 . S
H729 C738 0.930 . S
H730 C743 0.929 . S
H731 C741 0.929 . S
H732 C736 0.929 . S
H733 C742 0.929 . S
C734 H728 0.930 . S
C734 C735 1.367 . S
C734 C742 1.378 . S
C735 C734 1.367 . S
C735 C743 1.433 . S
C736 H732 0.929 . S
C736 C738 1.378 . S
C736 C740 1.350 . S
C737 C740 1.463 . S
C737 C742 1.350 . S
C737 N745 1.427 . S
C738 H729 0.930 . S
C738 C736 1.378 . S
C738 C739 1.367 . S
C739 C738 1.367 . S
C739 C741 1.433 . S
C740 C736 1.350 . S
C740 C737 1.463 . S
C740 N744 1.427 . S
C741 H731 0.929 . S
C741 C739 1.433 . S
C741 N744 1.384 . S
C742 H733 0.929 . S
C742 C734 1.378 . S
C742 C737 1.350 . S
C743 H730 0.929 . S
C743 C735 1.433 . S
C743 N745 1.384 . S
N744 C740 1.427 . S
N744 C741 1.384 . S
N745 C737 1.427 . S
N745 C743 1.384 . S
H746 C752 0.930 . S
H747 C756 0.930 . S
H748 C761 0.929 . S
H749 C759 0.929 . S
H750 C754 0.929 . S
H751 C760 0.929 . S
C752 H746 0.930 . S
C752 C753 1.367 . S
C752 C760 1.378 . S
C753 C752 1.367 . S
C753 C761 1.433 . S
C754 H750 0.929 . S
C754 C756 1.378 . S
C754 C758 1.350 . S
C755 C758 1.463 . S
C755 C760 1.350 . S
C755 N763 1.427 . S
C756 H747 0.930 . S
C756 C754 1.378 . S
C756 C757 1.367 . S
C757 C756 1.367 . S
C757 C759 1.433 . S
C758 C754 1.350 . S
C758 C755 1.463 . S
C758 N762 1.427 . S
C759 H749 0.929 . S
C759 C757 1.433 . S
C759 N762 1.384 . S
C760 H751 0.929 . S
C760 C752 1.378 . S
C760 C755 1.350 . S
C761 H748 0.929 . S
C761 C753 1.433 . S
C761 N763 1.384 . S
N762 C758 1.427 . S
N762 C759 1.384 . S
N763 C755 1.427 . S
N763 C761 1.384 . S
H764 C770 0.930 . S
H765 C774 0.930 . S
H766 C779 0.929 . S
H767 C777 0.929 . S
H768 C772 0.929 . S
H769 C778 0.929 . S
C770 H764 0.930 . S
C770 C771 1.367 . S
C770 C778 1.378 . S
C771 C770 1.367 . S
C771 C779 1.433 . S
C772 H768 0.929 . S
C772 C774 1.378 . S
C772 C776 1.350 . S
C773 C776 1.463 . S
C773 C778 1.350 . S
C773 N781 1.427 . S
C774 H765 0.930 . S
C774 C772 1.378 . S
C774 C775 1.367 . S
C775 C774 1.367 . S
C775 C777 1.433 . S
C776 C772 1.350 . S
C776 C773 1.463 . S
C776 N780 1.427 . S
C777 H767 0.929 . S
C777 C775 1.433 . S
C777 N780 1.384 . S
C778 H769 0.929 . S
C778 C770 1.378 . S
C778 C773 1.350 . S
C779 H766 0.929 . S
C779 C771 1.433 . S
C779 N781 1.384 . S
N780 C776 1.427 . S
N780 C777 1.384 . S
N781 C773 1.427 . S
N781 C779 1.384 . S
H782 C788 0.930 . S
H783 C792 0.930 . S
H784 C797 0.929 . S
H785 C795 0.929 . S
H786 C790 0.929 . S
H787 C796 0.929 . S
C788 H782 0.930 . S
C788 C789 1.367 . S
C788 C796 1.378 . S
C789 C788 1.367 . S
C789 C797 1.433 . S
C790 H786 0.929 . S
C790 C792 1.378 . S
C790 C794 1.350 . S
C791 C794 1.463 . S
C791 C796 1.350 . S
C791 N799 1.427 . S
C792 H783 0.930 . S
C792 C790 1.378 . S
C792 C793 1.367 . S
C793 C792 1.367 . S
C793 C795 1.433 . S
C794 C790 1.350 . S
C794 C791 1.463 . S
C794 N798 1.427 . S
C795 H785 0.929 . S
C795 C793 1.433 . S
C795 N798 1.384 . S
C796 H787 0.929 . S
C796 C788 1.378 . S
C796 C791 1.350 . S
C797 H784 0.929 . S
C797 C789 1.433 . S
C797 N799 1.384 . S
N798 C794 1.427 . S
N798 C795 1.384 . S
N799 C791 1.427 . S
N799 C797 1.384 . S
C231 C11 1.054 . S
C235 C193 1.053 . S
C249 C165 1.055 . S
C253 C25 1.053 . S
C267 C179 1.056 . S
C271 C39 1.058 . S
C285 C151 1.059 . S
C289 C53 1.057 . S
C303 C67 1.056 . S
C307 C221 1.059 . S
C321 C81 1.057 . S
C325 C137 1.059 . S
C339 C207 1.057 . S
C343 C95 1.059 . S
C357 C109 1.054 . S
C361 C123 1.053 . S
C375 C69 1.485 . S
C379 C13 1.480 . S
C393 C27 1.496 . S
C397 C83 1.493 . S
C411 C41 1.488 . S
C415 C97 1.483 . S
C429 C111 1.480 . S
C433 C55 1.484 . S
C447 C125 1.494 . S
C451 C153 1.489 . S
C465 C139 1.496 . S
C469 C167 1.495 . S
C483 C209 1.485 . S
C487 C181 1.491 . S
C501 C195 1.483 . S
C505 C223 1.479 . S
C519 C77 1.362 . S
C523 C7 1.371 . S
C537 C21 1.360 . S
C541 C91 1.366 . S
C555 C35 1.362 . S
C559 C105 1.361 . S
C573 C63 1.374 . S
C577 C49 1.368 . S
C591 C64 1.266 . S
C595 C148 1.256 . S
C609 C36 1.259 . S
C613 C120 1.250 . S
C627 C162 1.262 . S
C631 C92 1.251 . S
C645 C134 1.252 . S
C649 C8 1.251 . S
C663 C119 1.362 . S
C667 C175 1.363 . S
C681 C147 1.373 . S
C685 C217 1.364 . S
C699 C189 1.373 . S
C703 C133 1.364 . S
C717 C161 1.374 . S
C721 C203 1.368 . S
C735 C204 1.250 . S
C739 C22 1.253 . S
C753 C190 1.264 . S
C757 C78 1.266 . S
C771 C218 1.250 . S
C775 C50 1.259 . S
C789 C176 1.267 . S
C793 C106 1.263 . S
