# Generated by pormake.
# Topology vbw, (6)-cn, num edge types: 1
# Building blocks:
#     Node 0, Type 0, BuildingBlock: IZENUY_clean_sbu_0, # of connection points: 6
#     Node 1, Type 0, BuildingBlock: IZENUY_clean_sbu_0, # of connection points: 6
#     Node 2, Type 0, BuildingBlock: IZENUY_clean_sbu_0, # of connection points: 6
#     Node 3, Type 0, BuildingBlock: IZENUY_clean_sbu_0, # of connection points: 6
#     Node 4, Type 0, BuildingBlock: IZENUY_clean_sbu_0, # of connection points: 6
#     Node 5, Type 0, BuildingBlock: IZENUY_clean_sbu_0, # of connection points: 6
#     Node 6, Type 0, BuildingBlock: IZENUY_clean_sbu_0, # of connection points: 6
#     Node 7, Type 0, BuildingBlock: IZENUY_clean_sbu_0, # of connection points: 6
#     Node 8, Type 0, BuildingBlock: IZENUY_clean_sbu_0, # of connection points: 6
#     Node 9, Type 0, BuildingBlock: IZENUY_clean_sbu_0, # of connection points: 6
#     Node 10, Type 0, BuildingBlock: IZENUY_clean_sbu_0, # of connection points: 6
#     Node 11, Type 0, BuildingBlock: IZENUY_clean_sbu_0, # of connection points: 6
#     Node 12, Type 0, BuildingBlock: IZENUY_clean_sbu_0, # of connection points: 6
#     Node 13, Type 0, BuildingBlock: IZENUY_clean_sbu_0, # of connection points: 6
#     Node 14, Type 0, BuildingBlock: IZENUY_clean_sbu_0, # of connection points: 6
#     Node 15, Type 0, BuildingBlock: IZENUY_clean_sbu_0, # of connection points: 6
#     Edge 16, Type (0, 0), BuildingBlock: KIFKEQ_clean_linker_1, # of connection points: 2
#     Edge 17, Type (0, 0), BuildingBlock: KIFKEQ_clean_linker_1, # of connection points: 2
#     Edge 18, Type (0, 0), BuildingBlock: KIFKEQ_clean_linker_1, # of connection points: 2
#     Edge 19, Type (0, 0), BuildingBlock: KIFKEQ_clean_linker_1, # of connection points: 2
#     Edge 20, Type (0, 0), BuildingBlock: KIFKEQ_clean_linker_1, # of connection points: 2
#     Edge 21, Type (0, 0), BuildingBlock: KIFKEQ_clean_linker_1, # of connection points: 2
#     Edge 22, Type (0, 0), BuildingBlock: KIFKEQ_clean_linker_1, # of connection points: 2
#     Edge 23, Type (0, 0), BuildingBlock: KIFKEQ_clean_linker_1, # of connection points: 2
#     Edge 24, Type (0, 0), BuildingBlock: KIFKEQ_clean_linker_1, # of connection points: 2
#     Edge 25, Type (0, 0), BuildingBlock: KIFKEQ_clean_linker_1, # of connection points: 2
#     Edge 26, Type (0, 0), BuildingBlock: KIFKEQ_clean_linker_1, # of connection points: 2
#     Edge 27, Type (0, 0), BuildingBlock: KIFKEQ_clean_linker_1, # of connection points: 2
#     Edge 28, Type (0, 0), BuildingBlock: KIFKEQ_clean_linker_1, # of connection points: 2
#     Edge 29, Type (0, 0), BuildingBlock: KIFKEQ_clean_linker_1, # of connection points: 2
#     Edge 30, Type (0, 0), BuildingBlock: KIFKEQ_clean_linker_1, # of connection points: 2
#     Edge 31, Type (0, 0), BuildingBlock: KIFKEQ_clean_linker_1, # of connection points: 2
#     Edge 32, Type (0, 0), BuildingBlock: KIFKEQ_clean_linker_1, # of connection points: 2
#     Edge 33, Type (0, 0), BuildingBlock: KIFKEQ_clean_linker_1, # of connection points: 2
#     Edge 34, Type (0, 0), BuildingBlock: KIFKEQ_clean_linker_1, # of connection points: 2
#     Edge 35, Type (0, 0), BuildingBlock: KIFKEQ_clean_linker_1, # of connection points: 2
#     Edge 36, Type (0, 0), BuildingBlock: KIFKEQ_clean_linker_1, # of connection points: 2
#     Edge 37, Type (0, 0), BuildingBlock: KIFKEQ_clean_linker_1, # of connection points: 2
#     Edge 38, Type (0, 0), BuildingBlock: KIFKEQ_clean_linker_1, # of connection points: 2
#     Edge 39, Type (0, 0), BuildingBlock: KIFKEQ_clean_linker_1, # of connection points: 2
#     Edge 40, Type (0, 0), BuildingBlock: KIFKEQ_clean_linker_1, # of connection points: 2
#     Edge 41, Type (0, 0), BuildingBlock: KIFKEQ_clean_linker_1, # of connection points: 2
#     Edge 42, Type (0, 0), BuildingBlock: KIFKEQ_clean_linker_1, # of connection points: 2
#     Edge 43, Type (0, 0), BuildingBlock: KIFKEQ_clean_linker_1, # of connection points: 2
#     Edge 44, Type (0, 0), BuildingBlock: KIFKEQ_clean_linker_1, # of connection points: 2
#     Edge 45, Type (0, 0), BuildingBlock: KIFKEQ_clean_linker_1, # of connection points: 2
#     Edge 46, Type (0, 0), BuildingBlock: KIFKEQ_clean_linker_1, # of connection points: 2
#     Edge 47, Type (0, 0), BuildingBlock: KIFKEQ_clean_linker_1, # of connection points: 2
#     Edge 48, Type (0, 0), BuildingBlock: KIFKEQ_clean_linker_1, # of connection points: 2
#     Edge 49, Type (0, 0), BuildingBlock: KIFKEQ_clean_linker_1, # of connection points: 2
#     Edge 50, Type (0, 0), BuildingBlock: KIFKEQ_clean_linker_1, # of connection points: 2
#     Edge 51, Type (0, 0), BuildingBlock: KIFKEQ_clean_linker_1, # of connection points: 2
#     Edge 52, Type (0, 0), BuildingBlock: KIFKEQ_clean_linker_1, # of connection points: 2
#     Edge 53, Type (0, 0), BuildingBlock: KIFKEQ_clean_linker_1, # of connection points: 2
#     Edge 54, Type (0, 0), BuildingBlock: KIFKEQ_clean_linker_1, # of connection points: 2
#     Edge 55, Type (0, 0), BuildingBlock: KIFKEQ_clean_linker_1, # of connection points: 2
#     Edge 56, Type (0, 0), BuildingBlock: KIFKEQ_clean_linker_1, # of connection points: 2
#     Edge 57, Type (0, 0), BuildingBlock: KIFKEQ_clean_linker_1, # of connection points: 2
#     Edge 58, Type (0, 0), BuildingBlock: KIFKEQ_clean_linker_1, # of connection points: 2
#     Edge 59, Type (0, 0), BuildingBlock: KIFKEQ_clean_linker_1, # of connection points: 2
#     Edge 60, Type (0, 0), BuildingBlock: KIFKEQ_clean_linker_1, # of connection points: 2
#     Edge 61, Type (0, 0), BuildingBlock: KIFKEQ_clean_linker_1, # of connection points: 2
#     Edge 62, Type (0, 0), BuildingBlock: KIFKEQ_clean_linker_1, # of connection points: 2
#     Edge 63, Type (0, 0), BuildingBlock: KIFKEQ_clean_linker_1, # of connection points: 2
# Relax obj value: 0.219
# Max RMSD: 0.233
# Mean RMSD: 0.232
data_MOF--net-vbw--node1-IZENUY_clean_sbu_0--edge1-KIFKEQ_clean_linker_1
_symmetry_space_group_name_H-M    P1
_symmetry_Int_Tables_number       1
_symmetry_cell_setting            triclinic
loop_
_symmetry_equiv_pos_as_xyz
'x, y, z'
_cell_length_a     56.653057
_cell_length_b     45.984051
_cell_length_c     27.785196
_cell_angle_alpha  90.174203
_cell_angle_beta   90.082502
_cell_angle_gamma 90.087427
loop_
_atom_site_label
_atom_site_type_symbol
_atom_site_fract_x
_atom_site_fract_y
_atom_site_fract_z
_atom_type_partial_charge
Fe0 Fe 0.12885 0.22415 0.09946 0.0
Fe1 Fe 0.13147 0.16541 0.15301 0.0
O2 O 0.14022 0.18831 0.10441 0.0
Fe3 Fe 0.16069 0.17581 0.06053 0.0
O4 O 0.17359 0.21123 0.04959 0.0
O5 O 0.15826 0.24038 0.10395 0.0
O6 O 0.12537 0.23057 0.16376 0.0
C7 C 0.13429 0.21849 0.20007 0.0
C8 C 0.13029 0.2054 1.00214 0.0
O9 O 0.14028 0.19208 0.19862 0.0
C10 C 0.1338 0.12506 0.07893 0.0
O11 O 0.09906 0.21037 0.09404 0.0
O12 O 0.10055 0.17823 0.1529 0.0
O13 O 0.13969 0.18094 1.01087 0.0
O14 O 0.12978 0.22496 0.03411 0.0
C15 C 0.18112 0.15741 0.14589 0.0
O16 O 0.1218 0.1362 0.11253 0.0
O17 O 0.15193 0.13774 0.06315 0.0
C18 C 0.08891 0.19294 0.12232 0.0
O19 O 0.16103 0.14917 0.16101 0.0
O20 O 0.18312 0.17081 0.10646 0.0
C21 C 0.17465 0.23385 0.0751 0.0
Fe22 Fe 0.37046 0.87957 0.66419 0.0
Fe23 Fe 0.3365 0.87231 0.57942 0.0
O24 O 0.35835 0.85774 0.61763 0.0
Fe25 Fe 0.36772 0.82137 0.60969 0.0
O26 O 0.35887 0.81187 0.6699 0.0
O27 O 0.37562 0.84891 0.70643 0.0
O28 O 0.34177 0.88383 0.69233 0.0
C29 C 0.32364 0.89323 0.67109 0.0
C30 C 0.40981 0.85249 0.62962 0.0
O31 O 0.3236 0.89631 0.62573 0.0
C32 C 0.36317 0.83585 0.51559 0.0
O33 O 0.36759 0.91421 0.63035 0.0
O34 O 0.35639 0.90016 0.55818 0.0
O35 O 0.39836 0.82876 0.62829 0.0
O36 O 0.39963 0.87629 0.63856 0.0
C37 C 0.31823 0.8187 0.59475 0.0
O38 O 0.34476 0.85027 0.52603 0.0
O39 O 0.37712 0.82805 0.54842 0.0
C40 C 0.36565 0.91899 0.58538 0.0
O41 O 0.31558 0.84567 0.59899 0.0
O42 O 0.33864 0.80781 0.58964 0.0
C43 C 0.36654 0.8236 0.70776 0.0
Fe44 Fe 0.12999 0.82223 0.92716 0.0
Fe45 Fe 0.12713 0.87995 0.87183 0.0
O46 O 0.13893 0.85882 0.91939 0.0
Fe47 Fe 0.16002 0.87436 0.95871 0.0
O48 O 0.18169 0.848 0.94136 0.0
O49 O 0.15908 0.80948 0.9489 0.0
O50 O 0.13965 0.81246 0.86731 0.0
C51 C 0.13224 0.82381 0.82902 0.0
C52 C 0.13311 0.83752 0.02137 0.0
O53 O 0.12288 0.84891 0.82981 0.0
C54 C 0.13035 0.92036 0.95002 0.0
O55 O 0.09938 0.82882 0.90707 0.0
O56 O 0.0976 0.87619 0.89556 0.0
O57 O 0.15126 0.8527 1.01191 0.0
O58 O 0.11976 0.82903 0.98787 0.0
C59 C 0.17386 0.89455 0.86729 0.0
O60 O 0.12914 0.91499 0.9051 0.0
O61 O 0.13944 0.90205 0.97817 0.0
C62 C 0.08754 0.8522 0.90381 0.0
O63 O 0.15611 0.88458 0.84532 0.0
O64 O 0.17335 0.89808 0.91261 0.0
C65 C 0.17942 0.821 0.94614 0.0
Fe66 Fe 0.37254 0.16302 0.3754 0.0
Fe67 Fe 0.33584 0.16998 0.4551 0.0
O68 O 0.35937 0.18436 0.42112 0.0
Fe69 Fe 0.36924 0.2202 0.43227 0.0
O70 O 0.36232 0.23113 0.37167 0.0
O71 O 0.37961 0.19428 0.33573 0.0
O72 O 0.34472 0.16019 0.34315 0.0
C73 C 0.32568 0.15096 0.36096 0.0
C74 C 0.41151 0.18835 0.41536 0.0
O75 O 0.3241 0.1469 0.406 0.0
C76 C 0.36106 0.20459 0.52426 0.0
O77 O 0.36793 0.128 0.40735 0.0
O78 O 0.35431 0.14125 0.47821 0.0
O79 O 0.40036 0.21229 0.41734 0.0
O80 O 0.40099 0.16499 0.40473 0.0
C81 C 0.31939 0.22431 0.44017 0.0
O82 O 0.34259 0.19122 0.51046 0.0
O83 O 0.37655 0.21173 0.49405 0.0
C84 C 0.36446 0.12275 0.45181 0.0
O85 O 0.31635 0.19758 0.43322 0.0
O86 O 0.33983 0.2343 0.44918 0.0
C87 C 0.37065 0.21959 0.33437 0.0
Fe88 Fe 0.86711 0.87527 0.8808 0.0
Fe89 Fe 0.86858 0.81638 0.934 0.0
O90 O 0.85812 0.85278 0.92979 0.0
Fe91 Fe 0.83834 0.86608 0.97458 0.0
O92 O 0.81573 0.8732 0.92957 0.0
O93 O 0.83819 0.89266 0.87338 0.0
O94 O 0.85727 0.84894 0.83543 0.0
C95 C 0.86266 0.82236 0.83367 0.0
C96 C 0.8667 0.91571 0.95531 0.0
O97 O 0.8716 0.81 0.86964 0.0
C98 C 0.86786 0.83416 0.03189 0.0
O99 O 0.89753 0.86124 0.8802 0.0
O100 O 0.8988 0.82885 0.9387 0.0
O101 O 0.84877 0.90355 0.97309 0.0
O102 O 0.87774 0.90429 0.9206 0.0
C103 C 0.82252 0.80876 0.95862 0.0
O104 O 0.86792 0.81503 0.99928 0.0
O105 O 0.85926 0.85912 0.02385 0.0
C106 C 0.90909 0.84589 0.90997 0.0
O107 O 0.83878 0.80148 0.93 0.0
O108 O 0.8241 0.83129 0.98433 0.0
C109 C 0.818 0.88609 0.88972 0.0
Fe110 Fe 0.66507 0.17555 0.47193 0.0
Fe111 Fe 0.6318 0.1649 0.38571 0.0
O112 O 0.6419 0.18734 0.43361 0.0
Fe113 Fe 0.62929 0.22233 0.44257 0.0
O114 O 0.65757 0.24006 0.43098 0.0
O115 O 0.67714 0.21167 0.4806 0.0
O116 O 0.68523 0.1718 0.42151 0.0
C117 C 0.68164 0.15821 0.38266 0.0
C118 C 0.63741 0.20314 0.53814 0.0
O119 O 0.66107 0.14957 0.37144 0.0
C120 C 0.58985 0.18971 0.42547 0.0
O121 O 0.65722 0.13704 0.46948 0.0
O122 O 0.62464 0.1349 0.42651 0.0
O123 O 0.63416 0.22302 0.50759 0.0
O124 O 0.64688 0.17928 0.52597 0.0
C125 C 0.63043 0.21851 0.34156 0.0
O126 O 0.6008 0.17663 0.39182 0.0
O127 O 0.6006 0.20651 0.4542 0.0
C128 C 0.63881 0.12365 0.45633 0.0
O129 O 0.63839 0.19289 0.34079 0.0
O130 O 0.62161 0.22872 0.3796 0.0
C131 C 0.67619 0.23354 0.45347 0.0
Fe132 Fe 0.86829 0.1625 0.15053 0.0
Fe133 Fe 0.86935 0.22001 0.09348 0.0
O134 O 0.85826 0.18406 0.10134 0.0
Fe135 Fe 0.83658 0.17038 0.06061 0.0
O136 O 0.81554 0.16495 0.10909 0.0
O137 O 0.83944 0.14555 0.16251 0.0
O138 O 0.8599 0.19016 0.19486 0.0
C139 C 0.86584 0.21661 0.19413 0.0
C140 C 0.86515 0.12078 0.07841 0.0
O141 O 0.87479 0.22748 0.15687 0.0
C142 C 0.86424 0.20016 0.99713 0.0
O143 O 0.89887 0.17603 0.14686 0.0
O144 O 0.89917 0.20655 0.08551 0.0
O145 O 0.84658 0.13269 0.06288 0.0
O146 O 0.87741 0.13264 0.11111 0.0
C147 C 0.82221 0.22771 0.0773 0.0
O148 O 0.86626 0.22008 0.02818 0.0
O149 O 0.85556 0.1757 1.00818 0.0
C150 C 0.90994 0.1902 0.11477 0.0
O151 O 0.84 0.23563 0.10146 0.0
O152 O 0.82263 0.20534 0.05109 0.0
C153 C 0.81884 0.15261 0.14903 0.0
Fe154 Fe 0.62957 0.82075 0.60376 0.0
Fe155 Fe 0.66363 0.87041 0.58167 0.0
O156 O 0.63966 0.85649 0.61492 0.0
Fe157 Fe 0.62637 0.87807 0.66012 0.0
O158 O 0.61891 0.84697 0.69997 0.0
O159 O 0.63608 0.80985 0.66454 0.0
O160 O 0.65886 0.80625 0.58766 0.0
C161 C 0.67931 0.81583 0.59751 0.0
C162 C 0.58751 0.853 0.62002 0.0
O163 O 0.68265 0.84252 0.60446 0.0
C164 C 0.63558 0.91818 0.58359 0.0
O165 O 0.6227 0.82926 0.54182 0.0
O166 O 0.65704 0.84904 0.52618 0.0
O167 O 0.5981 0.87634 0.63033 0.0
O168 O 0.59853 0.829 0.61799 0.0
C169 C 0.67317 0.88952 0.67597 0.0
O170 O 0.64569 0.89935 0.55775 0.0
O171 O 0.63141 0.91305 0.62789 0.0
C172 C 0.63849 0.83593 0.51196 0.0
O173 O 0.67521 0.89358 0.63101 0.0
O174 O 0.65393 0.88047 0.69297 0.0
C175 C 0.62777 0.8216 0.70168 0.0
Fe176 Fe 0.63009 0.72172 0.10844 0.0
Fe177 Fe 0.63165 0.66163 0.15692 0.0
O178 O 0.64103 0.68552 0.11046 0.0
Fe179 Fe 0.66169 0.67425 0.06617 0.0
O180 O 0.67553 0.70976 0.06166 0.0
O181 O 0.65961 0.73653 0.11891 0.0
O182 O 0.62418 0.72555 0.17243 0.0
C183 C 0.63316 0.7132 0.20826 0.0
C184 C 0.63299 0.70758 1.00986 0.0
O185 O 0.64032 0.68732 0.20473 0.0
C186 C 0.63431 0.62298 0.07974 0.0
O187 O 0.60046 0.70846 0.09807 0.0
O188 O 0.60099 0.67497 0.15523 0.0
O189 O 0.64133 0.68237 1.01644 0.0
O190 O 0.63316 0.72584 0.04376 0.0
C191 C 0.681 0.65191 0.15033 0.0
O192 O 0.62237 0.6331 0.11441 0.0
O193 O 0.65191 0.63665 0.06363 0.0
C194 C 0.58987 0.69038 0.12469 0.0
O195 O 0.66071 0.64491 0.16559 0.0
O196 O 0.68365 0.66589 0.11166 0.0
C197 C 0.677 0.72979 0.09265 0.0
Fe198 Fe 0.86623 0.3737 0.65091 0.0
Fe199 Fe 0.834 0.36154 0.56346 0.0
O200 O 0.85686 0.35047 0.60324 0.0
Fe201 Fe 0.86996 0.31563 0.59579 0.0
O202 O 0.87659 0.30971 0.6592 0.0
O203 O 0.8597 0.34609 0.69658 0.0
O204 O 0.83664 0.38839 0.66338 0.0
C205 C 0.81637 0.37893 0.65178 0.0
C206 C 0.90877 0.34918 0.61418 0.0
O207 O 0.8133 0.3651 0.61297 0.0
C208 C 0.86288 0.33392 0.49927 0.0
O209 O 0.87337 0.40339 0.60955 0.0
O210 O 0.84126 0.40026 0.56544 0.0
O211 O 0.89861 0.33163 0.58597 0.0
O212 O 0.89744 0.36284 0.64652 0.0
C213 C 0.8239 0.30243 0.57948 0.0
O214 O 0.85285 0.3577 0.51012 0.0
O215 O 0.86628 0.31467 0.53082 0.0
C216 C 0.85939 0.41411 0.5789 0.0
O217 O 0.82244 0.32524 0.55468 0.0
O218 O 0.84186 0.29706 0.60484 0.0
C219 C 0.86773 0.32049 0.69673 0.0
Fe220 Fe 0.62615 0.31761 0.94421 0.0
Fe221 Fe 0.63005 0.37468 0.88682 0.0
O222 O 0.63929 0.35234 0.93549 0.0
Fe223 Fe 0.66208 0.36434 0.97482 0.0
O224 O 0.67379 0.32836 0.98567 0.0
O225 O 0.65437 0.29897 0.93703 0.0
O226 O 0.62031 0.31038 0.88049 0.0
C227 C 0.62961 0.32069 0.84298 0.0
C228 C 0.63315 0.33802 0.0401 0.0
O229 O 0.63727 0.3465 0.84251 0.0
C230 C 0.63609 0.41612 0.95782 0.0
O231 O 0.59731 0.33367 0.95225 0.0
O232 O 0.59892 0.36325 0.89006 0.0
O233 O 0.64327 0.36149 0.02802 0.0
O234 O 0.62931 0.31812 1.00961 0.0
C235 C 0.67978 0.3804 0.88624 0.0
O236 O 0.62228 0.40476 0.92725 0.0
O237 O 0.65456 0.40293 0.971 0.0
C238 C 0.58726 0.35029 0.92257 0.0
O239 O 0.65955 0.38987 0.8748 0.0
O240 O 0.68283 0.36696 0.92526 0.0
C241 C 0.67228 0.30495 0.96228 0.0
Fe242 Fe 0.86878 0.71828 0.43511 0.0
Fe243 Fe 0.87168 0.66116 0.37881 0.0
O244 O 0.85861 0.68252 0.42451 0.0
Fe245 Fe 0.83505 0.6685 0.45882 0.0
O246 O 0.81566 0.69698 0.43837 0.0
O247 O 0.84013 0.73253 0.45458 0.0
O248 O 0.86095 0.72917 0.37481 0.0
C249 C 0.86936 0.71771 0.33744 0.0
C250 C 0.86163 0.70245 0.5274 0.0
O251 O 0.87873 0.69258 0.33911 0.0
C252 C 0.86278 0.62033 0.45437 0.0
O253 O 0.89945 0.71036 0.41806 0.0
O254 O 0.90006 0.66291 0.40836 0.0
O255 O 0.84298 0.689 0.51447 0.0
O256 O 0.87681 0.70959 0.4964 0.0
C257 C 0.82479 0.64981 0.36424 0.0
O258 O 0.8669 0.62592 0.41027 0.0
O259 O 0.853 0.63903 0.48091 0.0
C260 C 0.91057 0.68646 0.41761 0.0
O261 O 0.84399 0.65868 0.34677 0.0
O262 O 0.82268 0.64612 0.40931 0.0
C263 C 0.81937 0.72333 0.44756 0.0
Fe264 Fe 0.36658 0.37806 0.87867 0.0
Fe265 Fe 0.3693 0.31863 0.92887 0.0
O266 O 0.35771 0.35444 0.92595 0.0
Fe267 Fe 0.33703 0.36569 0.97019 0.0
O268 O 0.31485 0.37294 0.92463 0.0
O269 O 0.33722 0.3944 0.8704 0.0
O270 O 0.35791 0.35181 0.83187 0.0
C271 C 0.36554 0.32613 0.82885 0.0
C272 C 0.36405 0.41702 0.95517 0.0
O273 O 0.375 0.31437 0.86478 0.0
C274 C 0.36642 0.33371 0.02709 0.0
O275 O 0.39754 0.36526 0.87979 0.0
O276 O 0.39864 0.33293 0.93865 0.0
O277 O 0.34639 0.40359 0.97161 0.0
O278 O 0.37581 0.40684 0.92034 0.0
C279 C 0.32273 0.30908 0.9463 0.0
O280 O 0.36653 0.31511 0.9937 0.0
O281 O 0.35761 0.35861 0.01991 0.0
C282 C 0.40892 0.35091 0.91138 0.0
O283 O 0.34002 0.30286 0.9194 0.0
O284 O 0.32372 0.32988 0.97602 0.0
C285 C 0.31705 0.38692 0.88585 0.0
Fe286 Fe 0.16204 0.6706 0.45518 0.0
Fe287 Fe 0.12788 0.66277 0.37077 0.0
O288 O 0.13942 0.68447 0.41804 0.0
Fe289 Fe 0.12879 0.72012 0.42779 0.0
O290 O 0.15723 0.73465 0.44879 0.0
O291 O 0.18199 0.69881 0.43603 0.0
O292 O 0.1754 0.64755 0.40808 0.0
C293 C 0.17493 0.65085 0.36281 0.0
C294 C 0.13437 0.70458 0.52097 0.0
O295 O 0.15658 0.66021 0.34252 0.0
C296 C 0.08776 0.68748 0.40614 0.0
O297 O 0.14323 0.64157 0.47593 0.0
O298 O 0.13168 0.62789 0.40369 0.0
O299 O 0.11979 0.71169 0.48879 0.0
O300 O 0.15329 0.69151 0.50944 0.0
C301 C 0.13022 0.71949 0.32944 0.0
O302 O 0.09859 0.66435 0.39599 0.0
O303 O 0.0985 0.71162 0.409 0.0
C304 C 0.13404 0.6228 0.44853 0.0
O305 O 0.12199 0.69374 0.3297 0.0
O306 O 0.1372 0.73124 0.36793 0.0
C307 C 0.17811 0.72534 0.44358 0.0
Fe308 Fe 0.37031 0.71941 0.10679 0.0
Fe309 Fe 0.3383 0.6686 0.07777 0.0
O310 O 0.36025 0.68343 0.11588 0.0
Fe311 Fe 0.3718 0.66228 0.16349 0.0
O312 O 0.37702 0.69354 0.20463 0.0
O313 O 0.3611 0.73036 0.16645 0.0
O314 O 0.34173 0.73307 0.08466 0.0
C315 C 0.32097 0.72299 0.08849 0.0
C316 C 0.41187 0.68801 0.1299 0.0
O317 O 0.31753 0.69631 0.09537 0.0
C318 C 0.36692 0.6215 0.08623 0.0
O319 O 0.38006 0.71119 0.04618 0.0
O320 O 0.34734 0.68946 0.02389 0.0
O321 O 0.40123 0.66454 0.13887 0.0
O322 O 0.40068 0.71184 0.12687 0.0
C323 C 0.32485 0.6494 0.17 0.0
O324 O 0.35786 0.63986 0.05812 0.0
O325 O 0.36867 0.62709 0.13101 0.0
C326 C 0.36599 0.70343 1.01337 0.0
O327 O 0.32479 0.64564 0.12474 0.0
O328 O 0.34297 0.65918 0.19084 0.0
C329 C 0.36813 0.71892 0.20502 0.0
Fe330 Fe 0.12788 0.32135 0.59919 0.0
Fe331 Fe 0.16216 0.37052 0.57549 0.0
O332 O 0.13874 0.35676 0.61061 0.0
Fe333 Fe 0.12663 0.37815 0.65764 0.0
O334 O 0.11975 0.34672 0.69709 0.0
O335 O 0.13565 0.3096 0.65905 0.0
O336 O 0.1564 0.30657 0.57922 0.0
C337 C 0.1773 0.3154 0.58629 0.0
C338 C 0.08669 0.35413 0.61997 0.0
O339 O 0.18139 0.34172 0.59511 0.0
C340 C 0.13457 0.41875 0.58151 0.0
O341 O 0.11974 0.33069 0.53822 0.0
O342 O 0.15379 0.35036 0.51993 0.0
O343 O 0.09764 0.37714 0.63063 0.0
O344 O 0.09733 0.32997 0.61651 0.0
C345 C 0.1738 0.38919 0.66947 0.0
O346 O 0.14417 0.40019 0.55441 0.0
O347 O 0.13129 0.41328 0.62597 0.0
C348 C 0.1349 0.33752 0.50709 0.0
O349 O 0.17527 0.39261 0.62429 0.0
O350 O 0.15488 0.38027 0.68811 0.0
C351 C 0.12815 0.32109 0.69719 0.0
H352 H 0.22556 0.17895 0.1314 0.0
H353 H 0.18565 0.12454 0.22824 0.0
H354 H 0.26003 0.17424 0.18261 0.0
H355 H 0.22059 0.11889 0.27897 0.0
H356 H 0.2792 0.14552 0.38701 0.0
H357 H 0.2447 0.14431 0.3345 0.0
H358 H 0.29038 0.14411 0.21004 0.0
H359 H 0.32474 0.14649 0.26261 0.0
C360 C 0.22422 0.16547 0.1632 0.0
C361 C 0.20271 0.15206 0.17543 0.0
C362 C 0.24416 0.16263 0.19266 0.0
C363 C 0.24335 0.14608 0.23521 0.0
C364 C 0.22193 0.13216 0.24696 0.0
C365 C 0.20188 0.13519 0.21759 0.0
C366 C 0.28188 0.14478 0.34843 0.0
C367 C 0.30481 0.14616 0.32914 0.0
C368 C 0.26203 0.14402 0.31816 0.0
C369 C 0.26453 0.14437 0.26768 0.0
C370 C 0.28756 0.1445 0.24857 0.0
C371 C 0.30737 0.14559 0.2788 0.0
H372 H 0.21919 0.88978 0.89896 0.0
H373 H 0.17812 0.91239 0.77384 0.0
H374 H 0.25514 0.89249 0.85179 0.0
H375 H 0.21415 0.91762 0.72705 0.0
H376 H 0.27815 0.88904 0.64038 0.0
H377 H 0.24243 0.89248 0.68795 0.0
H378 H 0.28416 0.91646 0.81263 0.0
H379 H 0.31999 0.91051 0.7653 0.0
C380 C 0.21795 0.8962 0.86156 0.0
C381 C 0.19581 0.90078 0.84011 0.0
C382 C 0.23868 0.89794 0.83428 0.0
C383 C 0.23795 0.9051 0.78493 0.0
C384 C 0.21571 0.91117 0.76432 0.0
C385 C 0.19493 0.90857 0.79132 0.0
C386 C 0.27964 0.89533 0.67787 0.0
C387 C 0.30191 0.89945 0.69906 0.0
C388 C 0.25903 0.89753 0.70538 0.0
C389 C 0.26 0.90471 0.75477 0.0
C390 C 0.28241 0.91011 0.77528 0.0
C391 C 0.30307 0.90707 0.74799 0.0
H392 H 0.71453 0.91955 0.65945 0.0
H393 H 0.67847 0.8685 0.76682 0.0
H394 H 0.74884 0.9234 0.71241 0.0
H395 H 0.7129 0.87075 0.81833 0.0
H396 H 0.77197 0.8908 0.91936 0.0
H397 H 0.73688 0.89636 0.86953 0.0
H398 H 0.78074 0.89808 0.74225 0.0
H399 H 0.81571 0.89437 0.79251 0.0
C400 C 0.7139 0.90921 0.69439 0.0
C401 C 0.69365 0.8939 0.7089 0.0
C402 C 0.73371 0.91115 0.72475 0.0
C403 C 0.73396 0.89734 0.77008 0.0
C404 C 0.71348 0.88232 0.7845 0.0
C405 C 0.69362 0.88085 0.75462 0.0
C406 C 0.77409 0.89284 0.88078 0.0
C407 C 0.79669 0.89221 0.86004 0.0
C408 C 0.7539 0.89572 0.85194 0.0
C409 C 0.75566 0.89734 0.80134 0.0
C410 C 0.77841 0.89741 0.78087 0.0
C411 C 0.7986 0.89513 0.80982 0.0
H412 H 0.68057 0.13528 0.29111 0.0
H413 H 0.72869 0.16905 0.39832 0.0
H414 H 0.71331 0.12989 0.23476 0.0
H415 H 0.7612 0.16448 0.34171 0.0
H416 H 0.81937 0.1339 0.24288 0.0
H417 H 0.78641 0.13154 0.2991 0.0
H418 H 0.73894 0.15952 0.18668 0.0
H419 H 0.77172 0.16099 0.13017 0.0
C420 C 0.69813 0.14139 0.30286 0.0
C421 C 0.70186 0.1527 0.3494 0.0
C422 C 0.71693 0.13853 0.27031 0.0
C423 C 0.74002 0.14685 0.28337 0.0
C424 C 0.7438 0.15748 0.33034 0.0
C425 C 0.72504 0.16033 0.36284 0.0
C426 C 0.80185 0.13909 0.22987 0.0
C427 C 0.79834 0.14779 0.18185 0.0
C428 C 0.78292 0.13803 0.26234 0.0
C429 C 0.75991 0.14561 0.2478 0.0
C430 C 0.75629 0.15327 0.19931 0.0
C431 C 0.7752 0.15431 0.16684 0.0
H432 H 0.81935 0.67045 0.27341 0.0
H433 H 0.78392 0.61894 0.38112 0.0
H434 H 0.78506 0.66725 0.22178 0.0
H435 H 0.74972 0.61415 0.32797 0.0
H436 H 0.6828 0.64355 0.24743 0.0
H437 H 0.71768 0.63963 0.29801 0.0
H438 H 0.76175 0.64026 0.17097 0.0
H439 H 0.72681 0.64605 0.12086 0.0
C440 C 0.80438 0.65779 0.28564 0.0
C441 C 0.80443 0.64491 0.33145 0.0
C442 C 0.78463 0.65576 0.25571 0.0
C443 C 0.76439 0.64032 0.27022 0.0
C444 C 0.76472 0.62667 0.31564 0.0
C445 C 0.78442 0.62918 0.34607 0.0
C446 C 0.69994 0.64244 0.2303 0.0
C447 C 0.70203 0.64521 0.18012 0.0
C448 C 0.72005 0.64006 0.25938 0.0
C449 C 0.7428 0.63988 0.23896 0.0
C450 C 0.7447 0.64113 0.1884 0.0
C451 C 0.72462 0.64414 0.15945 0.0
H452 H 0.67911 0.40134 0.79385 0.0
H453 H 0.72649 0.36814 0.90251 0.0
H454 H 0.71187 0.40412 0.73701 0.0
H455 H 0.75913 0.37076 0.84557 0.0
H456 H 0.76967 0.36615 0.63578 0.0
H457 H 0.73699 0.36949 0.69254 0.0
H458 H 0.78413 0.40489 0.80004 0.0
H459 H 0.81692 0.4014 0.74342 0.0
C460 C 0.69654 0.39495 0.80586 0.0
C461 C 0.7001 0.38458 0.85294 0.0
C462 C 0.7153 0.39633 0.77309 0.0
C463 C 0.73816 0.3876 0.7866 0.0
C464 C 0.74184 0.37797 0.83404 0.0
C465 C 0.72306 0.37637 0.86669 0.0
C466 C 0.77307 0.37498 0.67131 0.0
C467 C 0.79601 0.38354 0.68486 0.0
C468 C 0.75426 0.377 0.70386 0.0
C469 C 0.7579 0.3874 0.75097 0.0
C470 C 0.78073 0.39649 0.76423 0.0
C471 C 0.79952 0.39469 0.73157 0.0
H472 H 0.31423 0.41449 0.79825 0.0
H473 H 0.27108 0.37346 0.90668 0.0
H474 H 0.27961 0.42 0.74694 0.0
H475 H 0.23693 0.37721 0.85455 0.0
H476 H 0.17418 0.40095 0.76604 0.0
H477 H 0.20826 0.40566 0.81895 0.0
H478 H 0.2546 0.39299 0.69714 0.0
H479 H 0.22043 0.38986 0.6441 0.0
C480 C 0.29737 0.40672 0.81129 0.0
C481 C 0.2956 0.39326 0.85656 0.0
C482 C 0.27748 0.40958 0.78155 0.0
C483 C 0.2553 0.3988 0.79602 0.0
C484 C 0.25348 0.3862 0.84202 0.0
C485 C 0.27326 0.38372 0.87195 0.0
C486 C 0.19167 0.39961 0.7505 0.0
C487 C 0.19456 0.39504 0.70082 0.0
C488 C 0.2113 0.40204 0.78095 0.0
C489 C 0.23441 0.39936 0.76277 0.0
C490 C 0.23723 0.39562 0.71271 0.0
C491 C 0.21758 0.3937 0.68214 0.0
H492 H 0.31856 0.65739 0.2666 0.0
H493 H 0.28223 0.62797 0.13851 0.0
H494 H 0.28222 0.6532 0.31222 0.0
H495 H 0.24584 0.62294 0.18472 0.0
H496 H 0.18121 0.65982 0.26643 0.0
H497 H 0.21737 0.65481 0.22026 0.0
H498 H 0.25314 0.62182 0.34621 0.0
H499 H 0.21703 0.62767 0.39291 0.0
C500 C 0.30292 0.64945 0.24831 0.0
C501 C 0.30336 0.64313 0.19874 0.0
C502 C 0.28203 0.64688 0.27464 0.0
C503 C 0.26099 0.63782 0.25223 0.0
C504 C 0.26162 0.63041 0.20304 0.0
C505 C 0.28254 0.63308 0.17659 0.0
C506 C 0.19668 0.65113 0.28422 0.0
C507 C 0.19619 0.6443 0.33353 0.0
C508 C 0.21745 0.64809 0.25757 0.0
C509 C 0.23829 0.63803 0.27945 0.0
C510 C 0.23755 0.63009 0.32833 0.0
C511 C 0.21677 0.63326 0.35507 0.0
H512 H 0.10038 0.24843 0.97813 0.0
H513 H 0.14726 0.18523 0.91461 0.0
H514 H 0.09867 0.27462 0.90356 0.0
H515 H 0.14407 0.21034 0.83729 0.0
H516 H 0.16088 0.28288 0.72986 0.0
H517 H 0.15826 0.25084 0.79922 0.0
H518 H 0.08777 0.28292 0.82745 0.0
H519 H 0.09157 0.31661 0.76049 0.0
C520 C 0.10975 0.23953 0.94746 0.0
C521 C 0.12428 0.21496 0.95265 0.0
C522 C 0.10862 0.25457 0.9041 0.0
C523 C 0.12153 0.24518 0.86378 0.0
C524 C 0.13442 0.21895 0.86773 0.0
C525 C 0.13591 0.20408 0.91183 0.0
C526 C 0.14498 0.28322 0.75148 0.0
C527 C 0.12662 0.30259 0.7405 0.0
C528 C 0.14325 0.26446 0.79091 0.0
C529 C 0.12278 0.26393 0.81965 0.0
C530 C 0.10415 0.28298 0.8075 0.0
C531 C 0.10622 0.30239 0.76895 0.0
H532 H 0.33182 0.83741 0.44011 0.0
H533 H 0.39974 0.80274 0.48112 0.0
H534 H 0.33326 0.80951 0.36547 0.0
H535 H 0.40138 0.77529 0.40603 0.0
H536 H 0.38343 0.70374 0.29572 0.0
H537 H 0.38305 0.73348 0.36876 0.0
H538 H 0.35224 0.80444 0.289 0.0
H539 H 0.35213 0.77466 0.21659 0.0
C540 C 0.34729 0.8243 0.43287 0.0
C541 C 0.36563 0.82238 0.46691 0.0
C542 C 0.34812 0.80823 0.38991 0.0
C543 C 0.36735 0.78982 0.37969 0.0
C544 C 0.38607 0.78872 0.41298 0.0
C545 C 0.38523 0.80476 0.45593 0.0
C546 C 0.37654 0.72567 0.29378 0.0
C547 C 0.36781 0.73668 0.25007 0.0
C548 C 0.37647 0.74285 0.33565 0.0
C549 C 0.36766 0.77151 0.33498 0.0
C550 C 0.3589 0.78243 0.29124 0.0
C551 C 0.35896 0.76529 0.2495 0.0
H552 H 0.14414 0.7761 0.31912 0.0
H553 H 0.11562 0.70372 0.23823 0.0
H554 H 0.14321 0.80608 0.2474 0.0
H555 H 0.11524 0.73373 0.16572 0.0
H556 H 0.09724 0.80255 0.05394 0.0
H557 H 0.09589 0.7747 0.12842 0.0
H558 H 0.16252 0.81234 0.17193 0.0
H559 H 0.16362 0.84062 0.09804 0.0
C560 C 0.13776 0.76645 0.28595 0.0
C561 C 0.12994 0.73735 0.28469 0.0
C562 C 0.13735 0.78371 0.24459 0.0
C563 C 0.12918 0.77246 0.20051 0.0
C564 C 0.12135 0.74334 0.19912 0.0
C565 C 0.12172 0.726 0.24067 0.0
C566 C 0.11145 0.80525 0.0797 0.0
C567 C 0.13055 0.82394 0.06977 0.0
C568 C 0.1108 0.78898 0.12227 0.0
C569 C 0.12921 0.79092 0.15618 0.0
C570 C 0.14789 0.81039 0.14701 0.0
C571 C 0.14853 0.8267 0.10448 0.0
H572 H 0.33628 0.33303 0.7499 0.0
H573 H 0.39375 0.28086 0.80414 0.0
H574 H 0.3347 0.30225 0.67733 0.0
H575 H 0.39215 0.25055 0.73254 0.0
H576 H 0.3997 0.22448 0.57307 0.0
H577 H 0.40051 0.25483 0.64526 0.0
H578 H 0.32459 0.24958 0.65481 0.0
H579 H 0.32375 0.21907 0.5824 0.0
C580 C 0.34868 0.31526 0.74618 0.0
C581 C 0.36514 0.30948 0.78283 0.0
C582 C 0.34763 0.29746 0.70492 0.0
C583 C 0.36329 0.27389 0.69921 0.0
C584 C 0.37996 0.26859 0.73553 0.0
C585 C 0.3808 0.286 0.77674 0.0
C586 C 0.3832 0.22937 0.591 0.0
C587 C 0.36171 0.21904 0.5722 0.0
C588 C 0.38365 0.24685 0.63232 0.0
C589 C 0.36259 0.25483 0.65564 0.0
C590 C 0.34109 0.24411 0.63738 0.0
C591 C 0.34066 0.22624 0.59634 0.0
H592 H 0.85185 0.8543 0.12027 0.0
H593 H 0.89625 0.78923 0.05453 0.0
H594 H 0.85474 0.82858 0.19714 0.0
H595 H 0.89772 0.76262 0.12882 0.0
H596 H 0.90557 0.72094 0.27262 0.0
H597 H 0.90934 0.75416 0.20492 0.0
H598 H 0.8397 0.78824 0.23514 0.0
H599 H 0.83702 0.7565 0.30483 0.0
C600 C 0.86259 0.83489 0.12243 0.0
C601 C 0.87364 0.82374 0.08112 0.0
C602 C 0.86391 0.81971 0.1663 0.0
C603 C 0.87607 0.79292 0.1696 0.0
C604 C 0.88835 0.7831 0.12874 0.0
C605 C 0.88736 0.7984 0.08556 0.0
C606 C 0.89108 0.73547 0.26445 0.0
C607 C 0.87092 0.73592 0.29364 0.0
C608 C 0.89315 0.75462 0.2255 0.0
C609 C 0.87478 0.77416 0.21377 0.0
C610 C 0.85452 0.77424 0.24313 0.0
C611 C 0.85277 0.75566 0.28281 0.0
H612 H 0.59799 0.22007 0.5853 0.0
H613 H 0.67304 0.20923 0.60303 0.0
H614 H 0.59625 0.24734 0.66107 0.0
H615 H 0.67151 0.23722 0.67843 0.0
H616 H 0.65942 0.32492 0.76512 0.0
H617 H 0.66163 0.29211 0.69533 0.0
H618 H 0.60384 0.24162 0.75215 0.0
H619 H 0.60181 0.2739 0.82186 0.0
C620 C 0.61396 0.22266 0.60642 0.0
C621 C 0.63552 0.21184 0.58915 0.0
C622 C 0.61304 0.23851 0.64949 0.0
C623 C 0.63378 0.24465 0.6755 0.0
C624 C 0.65526 0.23298 0.65901 0.0
C625 C 0.65609 0.21653 0.6164 0.0
C626 C 0.64714 0.30689 0.76255 0.0
C627 C 0.6304 0.30212 0.79902 0.0
C628 C 0.64856 0.28794 0.72289 0.0
C629 C 0.63298 0.26417 0.71842 0.0
C630 C 0.61606 0.25972 0.75452 0.0
C631 C 0.61493 0.27826 0.79448 0.0
H632 H 0.83694 0.32166 0.77341 0.0
H633 H 0.89903 0.27806 0.71957 0.0
H634 H 0.83618 0.28826 0.84242 0.0
H635 H 0.8984 0.24526 0.78827 0.0
H636 H 0.90307 0.22177 0.95353 0.0
H637 H 0.90398 0.25051 0.87957 0.0
H638 H 0.83011 0.23212 0.85618 0.0
H639 H 0.82945 0.20272 0.92987 0.0
C640 C 0.85054 0.30523 0.7766 0.0
C641 C 0.86806 0.30257 0.74112 0.0
C642 C 0.84995 0.28592 0.8157 0.0
C643 C 0.86714 0.26399 0.8205 0.0
C644 C 0.88493 0.26188 0.7856 0.0
C645 C 0.88526 0.28072 0.74625 0.0
C646 C 0.88733 0.22286 0.93141 0.0
C647 C 0.86639 0.20934 0.94654 0.0
C648 C 0.88775 0.23958 0.88942 0.0
C649 C 0.86705 0.24383 0.86237 0.0
C650 C 0.84628 0.22941 0.87654 0.0
C651 C 0.846 0.21212 0.91809 0.0
H652 H 0.66243 0.70582 0.28731 0.0
H653 H 0.60519 0.7585 0.23348 0.0
H654 H 0.66438 0.73672 0.35982 0.0
H655 H 0.6072 0.78895 0.30476 0.0
H656 H 0.59986 0.81658 0.4627 0.0
H657 H 0.59888 0.78564 0.39131 0.0
H658 H 0.67492 0.78897 0.38301 0.0
H659 H 0.67592 0.82004 0.45485 0.0
C660 C 0.65015 0.72371 0.29113 0.0
C661 C 0.63365 0.7296 0.25458 0.0
C662 C 0.65141 0.74159 0.33234 0.0
C663 C 0.63595 0.76538 0.33808 0.0
C664 C 0.61923 0.77075 0.30186 0.0
C665 C 0.61817 0.75325 0.26078 0.0
C666 C 0.61637 0.81114 0.44523 0.0
C667 C 0.63793 0.82113 0.46424 0.0
C668 C 0.61582 0.7933 0.40434 0.0
C669 C 0.63684 0.78463 0.38152 0.0
C670 C 0.65843 0.79496 0.40001 0.0
C671 C 0.65896 0.81317 0.44071 0.0
H672 H 0.60802 0.75604 0.99016 0.0
H673 H 0.64502 0.68577 0.91984 0.0
H674 H 0.60539 0.78192 0.91532 0.0
H675 H 0.64089 0.71104 0.84275 0.0
H676 H 0.65909 0.7808 0.73107 0.0
H677 H 0.65722 0.75006 0.80197 0.0
H678 H 0.59052 0.78948 0.84058 0.0
H679 H 0.59346 0.82157 0.77112 0.0
C680 C 0.61513 0.7457 0.95823 0.0
C681 C 0.62714 0.71899 0.96131 0.0
C682 C 0.61338 0.76056 0.91479 0.0
C683 C 0.62314 0.74899 0.87245 0.0
C684 C 0.63368 0.72114 0.87473 0.0
C685 C 0.63575 0.70634 0.91878 0.0
C686 C 0.64412 0.78298 0.75504 0.0
C687 C 0.62657 0.80384 0.74596 0.0
C688 C 0.64284 0.76501 0.79546 0.0
C689 C 0.62368 0.76695 0.82749 0.0
C690 C 0.60587 0.78759 0.81766 0.0
C691 C 0.60747 0.80608 0.77776 0.0
H692 H 0.83641 0.34747 0.41872 0.0
H693 H 0.89599 0.29678 0.46676 0.0
H694 H 0.83604 0.3199 0.34261 0.0
H695 H 0.89526 0.26915 0.39198 0.0
H696 H 0.86406 0.2003 0.28935 0.0
H697 H 0.86398 0.2324 0.36004 0.0
H698 H 0.86274 0.30752 0.26742 0.0
H699 H 0.86315 0.27565 0.19693 0.0
C700 C 0.84986 0.33119 0.41245 0.0
C701 C 0.86621 0.32429 0.44876 0.0
C702 C 0.84947 0.31515 0.36922 0.0
C703 C 0.86524 0.29186 0.36203 0.0
C704 C 0.88253 0.28646 0.39699 0.0
C705 C 0.88311 0.30256 0.43956 0.0
C706 C 0.86361 0.22362 0.28412 0.0
C707 C 0.86389 0.23538 0.23756 0.0
C708 C 0.86367 0.24201 0.3245 0.0
C709 C 0.86354 0.27249 0.31915 0.0
C710 C 0.86282 0.28418 0.27265 0.0
C711 C 0.8632 0.26586 0.23235 0.0
H712 H 0.66906 0.3336 0.10448 0.0
H713 H 0.59433 0.31915 0.0874 0.0
H714 H 0.66867 0.30482 0.17878 0.0
H715 H 0.59373 0.29105 0.16209 0.0
H716 H 0.60072 0.26333 0.32167 0.0
H717 H 0.60137 0.29613 0.2529 0.0
H718 H 0.66068 0.24939 0.1939 0.0
H719 H 0.65988 0.21604 0.26287 0.0
C720 C 0.65238 0.32539 0.11786 0.0
C721 C 0.63158 0.32927 0.09104 0.0
C722 C 0.65223 0.30844 0.15978 0.0
C723 C 0.6312 0.29549 0.17605 0.0
C724 C 0.61018 0.30087 0.15064 0.0
C725 C 0.61044 0.31722 0.10822 0.0
C726 C 0.61386 0.25988 0.29396 0.0
C727 C 0.6302 0.23695 0.29769 0.0
C728 C 0.6142 0.27872 0.25456 0.0
C729 C 0.63117 0.27551 0.21819 0.0
C730 C 0.64756 0.25259 0.22172 0.0
C731 C 0.64694 0.23332 0.26086 0.0
H732 H 0.89307 0.74383 0.55819 0.0
H733 H 0.83167 0.6956 0.60458 0.0
H734 H 0.89124 0.77331 0.63101 0.0
H735 H 0.83021 0.72505 0.67817 0.0
H736 H 0.85687 0.7639 0.82592 0.0
H737 H 0.85601 0.73412 0.75316 0.0
H738 H 0.86238 0.8114 0.66641 0.0
H739 H 0.8629 0.84149 0.73966 0.0
C740 C 0.87936 0.73914 0.58418 0.0
C741 C 0.86254 0.71713 0.57533 0.0
C742 C 0.87819 0.75636 0.62572 0.0
C743 C 0.86042 0.75179 0.66003 0.0
C744 C 0.84411 0.72912 0.6523 0.0
C745 C 0.84503 0.71214 0.61026 0.0
C746 C 0.85788 0.77464 0.79133 0.0
C747 C 0.86009 0.80511 0.78861 0.0
C748 C 0.85728 0.75752 0.74964 0.0
C749 C 0.85927 0.77035 0.70407 0.0
C750 C 0.86101 0.80088 0.70113 0.0
C751 C 0.86116 0.81813 0.74297 0.0
H752 H 0.33887 0.25957 0.30389 0.0
H753 H 0.40583 0.22107 0.26711 0.0
H754 H 0.34107 0.2907 0.23346 0.0
H755 H 0.40913 0.25364 0.19839 0.0
H756 H 0.39292 0.28676 0.04808 0.0
H757 H 0.39534 0.26099 0.12302 0.0
H758 H 0.35691 0.33025 0.19366 0.0
H759 H 0.35299 0.35529 0.11634 0.0
C760 C 0.35419 0.25798 0.28073 0.0
C761 C 0.37201 0.2376 0.29047 0.0
C762 C 0.35566 0.27618 0.24063 0.0
C763 C 0.37531 0.275 0.20971 0.0
C764 C 0.39341 0.2549 0.22035 0.0
C765 C 0.3916 0.23615 0.25982 0.0
C766 C 0.38515 0.29678 0.07964 0.0
C767 C 0.37235 0.32288 0.07591 0.0
C768 C 0.38676 0.28199 0.12316 0.0
C769 C 0.37607 0.29309 0.16493 0.0
C770 C 0.36483 0.32048 0.1621 0.0
C771 C 0.36288 0.33518 0.11794 0.0
H772 H 0.14978 0.7689 0.81685 0.0
H773 H 0.11496 0.83793 0.73924 0.0
H774 H 0.14893 0.7386 0.74514 0.0
H775 H 0.11462 0.80765 0.66674 0.0
H776 H 0.16715 0.70517 0.59368 0.0
H777 H 0.1665 0.73387 0.66737 0.0
H778 H 0.09661 0.76461 0.63201 0.0
H779 H 0.09745 0.73632 0.55762 0.0
C780 C 0.14205 0.77776 0.78438 0.0
C781 C 0.13241 0.80599 0.78406 0.0
C782 C 0.14168 0.76033 0.74303 0.0
C783 C 0.1317 0.77054 0.69992 0.0
C784 C 0.12215 0.79884 0.69942 0.0
C785 C 0.12251 0.81634 0.74094 0.0
C786 C 0.15144 0.71762 0.60191 0.0
C787 C 0.13234 0.7183 0.56949 0.0
C788 C 0.15108 0.73418 0.64431 0.0
C789 C 0.13157 0.75185 0.65568 0.0
C790 C 0.11212 0.75174 0.62409 0.0
C791 C 0.1125 0.73521 0.58161 0.0
H792 H 0.33364 0.7033 0.94001 0.0
H793 H 0.40253 0.73654 0.97838 0.0
H794 H 0.33405 0.73252 0.86727 0.0
H795 H 0.40317 0.76535 0.90477 0.0
H796 H 0.38376 0.83835 0.79774 0.0
H797 H 0.38465 0.80795 0.86995 0.0
H798 H 0.35182 0.73785 0.79042 0.0
H799 H 0.35033 0.76816 0.71934 0.0
C800 C 0.34914 0.71631 0.93246 0.0
C801 C 0.36807 0.71741 0.96523 0.0
C802 C 0.34936 0.73319 0.8906 0.0
C803 C 0.36858 0.75156 0.88009 0.0
C804 C 0.38788 0.75192 0.91204 0.0
C805 C 0.38763 0.73508 0.95403 0.0
C806 C 0.37665 0.8165 0.7958 0.0
C807 C 0.36693 0.80586 0.75259 0.0
C808 C 0.37733 0.79894 0.83711 0.0
C809 C 0.3683 0.77034 0.83618 0.0
C810 C 0.35862 0.75983 0.79291 0.0
C811 C 0.35789 0.77729 0.75188 0.0
H812 H 0.10349 0.29595 0.47684 0.0
H813 H 0.16412 0.34517 0.42912 0.0
H814 H 0.10503 0.26681 0.40355 0.0
H815 H 0.16528 0.3161 0.35514 0.0
H816 H 0.13854 0.27715 0.2079 0.0
H817 H 0.13894 0.30687 0.28077 0.0
H818 H 0.13436 0.22931 0.36731 0.0
H819 H 0.1343 0.1993 0.29399 0.0
C820 C 0.11694 0.30094 0.45045 0.0
C821 C 0.13367 0.32309 0.45904 0.0
C822 C 0.11795 0.28394 0.40865 0.0
C823 C 0.13544 0.2889 0.37388 0.0
C824 C 0.15161 0.31174 0.38137 0.0
C825 C 0.15086 0.32849 0.42364 0.0
C826 C 0.13778 0.26635 0.24247 0.0
C827 C 0.13626 0.23582 0.24513 0.0
C828 C 0.13812 0.28342 0.2842 0.0
C829 C 0.13655 0.27047 0.32973 0.0
C830 C 0.13539 0.23991 0.33261 0.0
C831 C 0.13551 0.22272 0.29073 0.0
H832 H 0.05979 0.20864 0.04877 0.0
H833 H 0.05882 0.17278 0.1922 0.0
H834 H 0.017 0.20643 0.04565 0.0
H835 H 0.01576 0.17181 0.19016 0.0
H836 H 0.93902 0.15021 0.15702 0.0
H837 H 0.98202 0.14947 0.1578 0.0
H838 H 0.98313 0.22886 0.07481 0.0
H839 H 0.94024 0.22874 0.0722 0.0
C840 C 0.0504 0.2005 0.0799 0.0
C841 C 0.06276 0.19101 0.12085 0.0
C842 C 0.02576 0.19941 0.07825 0.0
C843 C 0.01268 0.1892 0.1178 0.0
C844 C 0.02511 0.17945 0.15868 0.0
C845 C 0.04985 0.18015 0.16004 0.0
C846 C 0.94848 0.16744 0.13878 0.0
C847 C 0.93615 0.18951 0.11449 0.0
C848 C 0.9732 0.16715 0.13951 0.0
C849 C 0.98627 0.18913 0.11647 0.0
C850 C 0.97384 0.21121 0.0922 0.0
C851 C 0.94914 0.21126 0.09091 0.0
H852 H 0.4384 0.89798 0.60668 0.0
H853 H 0.43967 0.80627 0.6398 0.0
H854 H 0.48114 0.89798 0.59881 0.0
H855 H 0.48258 0.80646 0.63414 0.0
H856 H 0.55858 0.81034 0.5844 0.0
H857 H 0.51553 0.81018 0.58206 0.0
H858 H 0.51481 0.89553 0.64788 0.0
H859 H 0.55759 0.89616 0.64821 0.0
C860 C 0.44786 0.87786 0.61266 0.0
C861 C 0.43572 0.85218 0.62423 0.0
C862 C 0.47239 0.87786 0.60834 0.0
C863 C 0.4854 0.85227 0.61624 0.0
C864 C 0.47316 0.82647 0.62714 0.0
C865 C 0.44856 0.82639 0.63076 0.0
C866 C 0.54917 0.82912 0.59801 0.0
C867 C 0.56149 0.85323 0.61653 0.0
C868 C 0.52449 0.82897 0.59696 0.0
C869 C 0.51163 0.85281 0.61491 0.0
C870 C 0.52405 0.87701 0.63291 0.0
C871 C 0.54866 0.8773 0.63339 0.0
H872 H 0.93778 0.87807 0.85127 0.0
H873 H 0.93978 0.81571 0.96736 0.0
H874 H 0.98077 0.8792 0.85001 0.0
H875 H 0.98276 0.81731 0.9666 0.0
H876 H 0.05912 0.80441 0.91539 0.0
H877 H 0.01609 0.8028 0.91669 0.0
H878 H 0.01373 0.89603 0.89877 0.0
H879 H 0.05665 0.89765 0.89657 0.0
C880 C 0.94735 0.86466 0.87662 0.0
C881 C 0.93527 0.84674 0.90932 0.0
C882 C 0.97202 0.86544 0.87608 0.0
C883 C 0.98521 0.84835 0.90822 0.0
C884 C 0.97314 0.83045 0.94092 0.0
C885 C 0.94848 0.82967 0.94151 0.0
C886 C 0.04944 0.82457 0.91172 0.0
C887 C 0.06139 0.85113 0.90564 0.0
C888 C 0.02476 0.82366 0.91273 0.0
C889 C 0.01146 0.84928 0.90769 0.0
C890 C 0.02342 0.87585 0.90199 0.0
C891 C 0.04806 0.87677 0.901 0.0
H892 H 0.44117 0.23448 0.43254 0.0
H893 H 0.441 0.14137 0.4104 0.0
H894 H 0.48418 0.2339 0.43749 0.0
H895 H 0.48385 0.14083 0.41611 0.0
H896 H 0.56035 0.15752 0.36812 0.0
H897 H 0.51738 0.15694 0.3683 0.0
H898 H 0.51699 0.21719 0.48787 0.0
H899 H 0.56003 0.21817 0.48733 0.0
C900 C 0.45026 0.21387 0.42905 0.0
C901 C 0.43759 0.18802 0.4207 0.0
C902 C 0.47492 0.21352 0.43217 0.0
C903 C 0.48747 0.18733 0.42697 0.0
C904 C 0.47476 0.16143 0.41952 0.0
C905 C 0.45015 0.16176 0.41647 0.0
C906 C 0.55115 0.17056 0.39463 0.0
C907 C 0.56371 0.188 0.42754 0.0
C908 C 0.52648 0.17011 0.39489 0.0
C909 C 0.51373 0.18708 0.42802 0.0
C910 C 0.52627 0.20417 0.46145 0.0
C911 C 0.55096 0.20457 0.4613 0.0
H912 H 0.56059 0.65745 0.18071 0.0
H913 H 0.56001 0.72046 0.06547 0.0
H914 H 0.51763 0.65675 0.18044 0.0
H915 H 0.51703 0.71926 0.06468 0.0
H916 H 0.44129 0.73472 0.11827 0.0
H917 H 0.48428 0.73468 0.1156 0.0
H918 H 0.48442 0.64121 0.13098 0.0
H919 H 0.44149 0.64123 0.13463 0.0
C920 C 0.55133 0.67102 0.15511 0.0
C921 C 0.56377 0.68913 0.12331 0.0
C922 C 0.52669 0.67048 0.15478 0.0
C923 C 0.51393 0.688 0.1226 0.0
C924 C 0.52636 0.70583 0.09038 0.0
C925 C 0.551 0.70639 0.0907 0.0
C926 C 0.45048 0.71415 0.12105 0.0
C927 C 0.43794 0.68801 0.12699 0.0
C928 C 0.47511 0.71412 0.11921 0.0
C929 C 0.48775 0.68795 0.12319 0.0
C930 C 0.4752 0.66178 0.12854 0.0
C931 C 0.45059 0.6618 0.13041 0.0
H932 H 0.93948 0.30579 0.59346 0.0
H933 H 0.93639 0.39657 0.63249 0.0
H934 H 0.98226 0.30765 0.59445 0.0
H935 H 0.97937 0.39935 0.62996 0.0
H936 H 0.05648 0.38814 0.67117 0.0
H937 H 0.01358 0.38741 0.66916 0.0
H938 H 0.01574 0.32233 0.55624 0.0
H939 H 0.05862 0.32167 0.56139 0.0
C940 C 0.94806 0.32633 0.60142 0.0
C941 C 0.93471 0.35103 0.61298 0.0
C942 C 0.97266 0.32752 0.60159 0.0
C943 C 0.98456 0.35371 0.61202 0.0
C944 C 0.97102 0.37861 0.62274 0.0
C945 C 0.94636 0.37716 0.62387 0.0
C946 C 0.04768 0.37373 0.64596 0.0
C947 C 0.06076 0.35482 0.61666 0.0
C948 C 0.02303 0.37343 0.64445 0.0
C949 C 0.01091 0.35474 0.61261 0.0
C950 C 0.02424 0.33647 0.58223 0.0
C951 C 0.04886 0.3362 0.58478 0.0
H952 H 0.55605 0.31357 0.96604 0.0
H953 H 0.5594 0.39115 0.87905 0.0
H954 H 0.51326 0.31502 0.96319 0.0
H955 H 0.51638 0.3935 0.87801 0.0
H956 H 0.43945 0.37022 0.84195 0.0
H957 H 0.48247 0.37116 0.84542 0.0
H958 H 0.47998 0.33924 0.9916 0.0
H959 H 0.43719 0.337 0.98708 0.0
C960 C 0.54763 0.33121 0.94684 0.0
C961 C 0.56115 0.35221 0.92268 0.0
C962 C 0.523 0.33218 0.94543 0.0
C963 C 0.51119 0.35445 0.92049 0.0
C964 C 0.52478 0.37573 0.8969 0.0
C965 C 0.54947 0.37452 0.89774 0.0
C966 C 0.44815 0.36349 0.87481 0.0
C967 C 0.43495 0.35325 0.91404 0.0
C968 C 0.47284 0.36418 0.87697 0.0
C969 C 0.48486 0.35506 0.91869 0.0
C970 C 0.47149 0.34572 0.9584 0.0
C971 C 0.44689 0.3446 0.95595 0.0
H972 H 0.0574 0.64502 0.37601 0.0
H973 H 0.05981 0.72831 0.44839 0.0
H974 H 0.01459 0.64476 0.38228 0.0
H975 H 0.01703 0.72753 0.45651 0.0
H976 H 0.94009 0.73289 0.40786 0.0
H977 H 0.98296 0.73265 0.40775 0.0
H978 H 0.98257 0.64031 0.43689 0.0
H979 H 0.93957 0.64038 0.435 0.0
C980 C 0.04878 0.66313 0.39372 0.0
C981 C 0.0619 0.68682 0.4113 0.0
C982 C 0.02425 0.66289 0.39766 0.0
C983 C 0.01236 0.68615 0.41986 0.0
C984 C 0.02559 0.70953 0.43839 0.0
C985 C 0.0501 0.70994 0.43389 0.0
C986 C 0.94916 0.71257 0.41455 0.0
C987 C 0.9365 0.6866 0.42108 0.0
C988 C 0.97376 0.71245 0.41476 0.0
C989 C 0.98623 0.68644 0.42217 0.0
C990 C 0.97352 0.66061 0.43014 0.0
C991 C 0.9489 0.66067 0.42933 0.0
H992 H 0.10684 0.08103 0.1188 0.0
H993 H 0.14816 0.10266 0.99338 0.0
H994 H 0.10137 0.03151 0.08718 0.0
H995 H 0.14294 0.05372 0.9624 0.0
H996 H 0.11867 0.96944 0.89901 0.0
H997 H 0.11479 1.01906 0.92952 0.0
H998 H 0.12656 0.98835 0.07425 0.0
H999 H 0.1301 0.93876 0.04399 0.0
C1000 C 0.11449 0.07538 0.08433 0.0
C1001 C 0.12809 0.0958 0.05888 0.0
C1002 C 0.11149 0.04697 0.06632 0.0
C1003 C 0.12173 0.03854 0.02217 0.0
C1004 C 0.13453 0.0594 0.99612 0.0
C1005 C 0.13771 0.0875 1.01422 0.0
C1006 C 0.12008 0.97316 0.93742 0.0
C1007 C 0.12499 0.95003 0.96886 0.0
C1008 C 0.11797 1.00168 0.95493 0.0
C1009 C 0.1206 1.00783 1.00437 0.0
C1010 C 0.12426 0.98448 0.03606 0.0
C1011 C 0.12647 0.956 0.01856 0.0
H1012 H 0.36027 0.93702 0.49229 0.0
H1013 H 0.38172 0.96787 0.63275 0.0
H1014 H 0.36342 0.98599 0.46076 0.0
H1015 H 0.38564 1.01703 0.60062 0.0
H1016 H 0.35613 0.10378 0.54342 0.0
H1017 H 0.36007 0.05495 0.57505 0.0
H1018 H 0.38793 0.02581 0.43852 0.0
H1019 H 0.38327 0.07483 0.40618 0.0
C1020 C 0.36604 0.95418 0.5164 0.0
C1021 C 0.37046 0.94842 0.56534 0.0
C1022 C 0.36803 0.98237 0.49809 0.0
C1023 C 0.37465 1.0057 0.52806 0.0
C1024 C 0.38008 0.99975 0.57658 0.0
C1025 C 0.37799 0.97148 0.595 0.0
C1026 C 0.36326 0.08708 0.52006 0.0
C1027 C 0.36913 0.09331 0.47194 0.0
C1028 C 0.36572 0.05898 0.53847 0.0
C1029 C 0.37425 0.03621 0.50945 0.0
C1030 C 0.38093 0.04264 0.46178 0.0
C1031 C 0.37839 0.07082 0.44325 0.0
H1032 H 0.88939 0.07637 0.12304 0.0
H1033 H 0.85447 0.0988 0.99009 0.0
H1034 H 0.89493 0.02649 0.09319 0.0
H1035 H 0.86025 0.04943 0.96026 0.0
H1036 H 0.88667 0.96174 0.9067 0.0
H1037 H 0.89117 1.01193 0.93594 0.0
H1038 H 0.8654 0.98592 0.07543 0.0
H1039 H 0.86064 0.93619 0.04624 0.0
C1040 C 0.8833 0.07083 0.0872 0.0
C1041 C 0.87131 0.09151 0.05914 0.0
C1042 C 0.88638 0.04226 0.07016 0.0
C1043 C 0.87803 0.03396 0.0243 0.0
C1044 C 0.86711 0.0551 0.99548 0.0
C1045 C 0.86364 0.08337 1.0128 0.0
C1046 C 0.88244 0.96667 0.94384 0.0
C1047 C 0.87316 0.94502 0.97403 0.0
C1048 C 0.88488 0.99543 0.96052 0.0
C1049 C 0.87858 1.00296 1.00803 0.0
C1050 C 0.8706 0.98088 0.03885 0.0
C1051 C 0.86775 0.95239 0.02197 0.0
H1052 H 0.59746 0.09216 0.46751 0.0
H1053 H 0.67312 0.0863 0.48427 0.0
H1054 H 0.5935 0.04215 0.4987 0.0
H1055 H 0.66911 0.0368 0.51389 0.0
H1056 H 0.65259 0.93899 0.49855 0.0
H1057 H 0.65053 0.98824 0.46729 0.0
H1058 H 0.60869 1.01456 0.58925 0.0
H1059 H 0.61106 0.96488 0.62182 0.0
C1060 C 0.61317 0.08023 0.47753 0.0
C1061 C 0.63559 0.09324 0.47339 0.0
C1062 C 0.61089 0.05177 0.49565 0.0
C1063 C 0.63102 0.03572 0.50873 0.0
C1064 C 0.65332 0.04868 0.50407 0.0
C1065 C 0.65556 0.07708 0.48711 0.0
C1066 C 0.64269 0.95502 0.51878 0.0
C1067 C 0.63215 0.94786 0.56311 0.0
C1068 C 0.64153 0.98328 0.50067 0.0
C1069 C 0.62945 1.00515 0.52579 0.0
C1070 C 0.61798 0.99798 0.56903 0.0
C1071 C 0.61947 0.96962 0.58775 0.0
H1072 H 0.65647 0.59763 1.00369 0.0
H1073 H 0.60178 0.58099 0.10851 0.0
H1074 H 0.65337 0.54801 0.97483 0.0
H1075 H 0.59852 0.53063 0.07815 0.0
H1076 H 0.59598 0.45067 0.95244 0.0
H1077 H 0.59143 0.50101 0.98216 0.0
H1078 H 0.66326 0.49995 0.03337 0.0
H1079 H 0.66784 0.45032 1.00495 0.0
C1080 C 0.6435 0.58357 0.02035 0.0
C1081 C 0.6296 0.59345 0.05914 0.0
C1082 C 0.64173 0.55506 1.0035 0.0
C1083 C 0.6258 0.53547 0.02431 0.0
C1084 C 0.61088 0.54542 0.06134 0.0
C1085 C 0.61282 0.57418 0.07877 0.0
C1086 C 0.61072 0.46118 0.97028 0.0
C1087 C 0.63232 0.44637 0.97596 0.0
C1088 C 0.60804 0.48985 0.98757 0.0
C1089 C 0.627 0.50428 1.01011 0.0
C1090 C 0.64836 0.48935 1.01618 0.0
C1091 C 0.65094 0.46083 0.99972 0.0
H1092 H 0.84478 0.59839 0.53772 0.0
H1093 H 0.88773 0.57414 0.41561 0.0
H1094 H 0.84666 0.54876 0.56752 0.0
H1095 H 0.88996 0.5241 0.44677 0.0
H1096 H 0.90031 0.44692 0.5727 0.0
H1097 H 0.90422 0.49695 0.54165 0.0
H1098 H 0.82928 0.49956 0.515 0.0
H1099 H 0.82534 0.44999 0.54447 0.0
C1100 C 0.85495 0.58264 0.51747 0.0
C1101 C 0.86599 0.59038 0.47391 0.0
C1102 C 0.85601 0.55417 0.53474 0.0
C1103 C 0.8685 0.53269 0.50956 0.0
C1104 C 0.88036 0.54039 0.46702 0.0
C1105 C 0.87897 0.56896 0.44912 0.0
C1106 C 0.88473 0.45821 0.56008 0.0
C1107 C 0.86252 0.44441 0.56112 0.0
C1108 C 0.887 0.48668 0.54207 0.0
C1109 C 0.86703 0.50198 0.52586 0.0
C1110 C 0.84494 0.48823 0.52718 0.0
C1111 C 0.84274 0.45979 0.54409 0.0
H1112 H 0.34958 0.43864 0.04144 0.0
H1113 H 0.39067 0.46161 0.91636 0.0
H1114 H 0.3544 0.48747 0.07323 0.0
H1115 H 0.39577 0.51093 0.9488 0.0
H1116 H 0.37817 0.57223 0.13726 0.0
H1117 H 0.38201 0.52262 0.1066 0.0
H1118 H 0.37034 0.55354 0.96195 0.0
H1119 H 0.36686 0.60307 0.99236 0.0
C1120 C 0.35991 0.45405 0.02087 0.0
C1121 C 0.36957 0.44616 0.97603 0.0
C1122 C 0.36285 0.4821 0.03942 0.0
C1123 C 0.37545 0.50328 1.01367 0.0
C1124 C 0.38576 0.49524 0.96942 0.0
C1125 C 0.38298 0.46692 0.95094 0.0
C1126 C 0.37675 0.56854 0.09885 0.0
C1127 C 0.37193 0.59172 0.06745 0.0
C1128 C 0.37883 0.54003 0.08126 0.0
C1129 C 0.37628 0.53395 0.03177 0.0
C1130 C 0.3726 0.55734 1.00017 0.0
C1131 C 0.37041 0.5858 1.01775 0.0
H1132 H 0.11757 0.57401 0.40128 0.0
H1133 H 0.14028 0.60447 0.54116 0.0
H1134 H 0.11349 0.52486 0.43348 0.0
H1135 H 0.137 0.55555 0.57269 0.0
H1136 H 0.11685 0.46704 0.62809 0.0
H1137 H 0.11243 0.51616 0.59589 0.0
H1138 H 0.13865 0.48652 0.45829 0.0
H1139 H 0.14228 0.43766 0.48974 0.0
C1140 C 0.12158 0.57031 0.43889 0.0
C1141 C 0.12946 0.59326 0.46837 0.0
C1142 C 0.11939 0.54206 0.45736 0.0
C1143 C 0.12509 0.53602 0.50574 0.0
C1144 C 0.13215 0.55924 0.5355 0.0
C1145 C 0.13423 0.58741 0.51716 0.0
C1146 C 0.12141 0.47098 0.59084 0.0
C1147 C 0.13011 0.44833 0.56177 0.0
C1148 C 0.11901 0.49921 0.57237 0.0
C1149 C 0.1253 0.50552 0.52441 0.0
C1150 C 0.13329 0.4826 0.49509 0.0
C1151 C 0.13559 0.45447 0.51342 0.0
H1152 H 0.21488 0.24682 0.1237 0.0
H1153 H 0.17642 0.2635 0.99283 0.0
H1154 H 0.25127 0.26335 0.08523 0.0
H1155 H 0.21258 0.2781 0.95308 0.0
H1156 H 0.28128 0.32217 0.90637 0.0
H1157 H 0.24347 0.3094 0.94144 0.0
H1158 H 0.27798 0.24442 0.02919 0.0
H1159 H 0.31607 0.25926 0.99615 0.0
C1160 C 0.21411 0.25528 0.08737 0.0
C1161 C 0.19293 0.25462 0.06145 0.0
C1162 C 0.23502 0.26384 0.06469 0.0
C1163 C 0.23508 0.27122 1.01543 0.0
C1164 C 0.21338 0.27273 0.99094 0.0
C1165 C 0.19253 0.26472 1.01387 0.0
C1166 C 0.28052 0.30435 0.93172 0.0
C1167 C 0.30136 0.29143 0.94825 0.0
C1168 C 0.25887 0.29716 0.95231 0.0
C1169 C 0.25764 0.27641 0.98935 0.0
C1170 C 0.27834 0.26126 1.00207 0.0
C1171 C 0.30008 0.26897 0.98204 0.0
H1172 H 0.31558 0.76316 0.5588 0.0
H1173 H 0.27278 0.83587 0.60497 0.0
H1174 H 0.28062 0.74012 0.52427 0.0
H1175 H 0.23859 0.81418 0.56781 0.0
H1176 H 0.17669 0.75983 0.52202 0.0
H1177 H 0.2102 0.77853 0.56674 0.0
H1178 H 0.25721 0.74728 0.45526 0.0
H1179 H 0.22346 0.72662 0.41237 0.0
C1180 C 0.2987 0.774 0.56218 0.0
C1181 C 0.29699 0.80154 0.58372 0.0
C1182 C 0.27875 0.76107 0.54172 0.0
C1183 C 0.25692 0.77567 0.5421 0.0
C1184 C 0.25502 0.8022 0.56686 0.0
C1185 C 0.27475 0.81478 0.58797 0.0
C1186 C 0.19416 0.75761 0.50659 0.0
C1187 C 0.19763 0.74226 0.46352 0.0
C1188 C 0.21342 0.76814 0.53235 0.0
C1189 C 0.23646 0.76422 0.51484 0.0
C1190 C 0.23976 0.74999 0.47045 0.0
C1191 C 0.22049 0.73873 0.44533 0.0
H1192 H 0.18269 0.76423 0.97629 0.0
H1193 H 0.22462 0.84072 0.94628 0.0
H1194 H 0.21757 0.74048 1.00965 0.0
H1195 H 0.25864 0.81805 0.98206 0.0
H1196 H 0.32153 0.76228 1.01625 0.0
H1197 H 0.28765 0.78328 0.97576 0.0
H1198 H 0.2412 0.7427 0.07942 0.0
H1199 H 0.27529 0.72016 0.11796 0.0
C1200 C 0.19934 0.77585 0.97638 0.0
C1201 C 0.2008 0.80443 0.95905 0.0
C1202 C 0.21925 0.76244 0.99615 0.0
C1203 C 0.24088 0.77751 0.99935 0.0
C1204 C 0.24245 0.80558 0.97989 0.0
C1205 C 0.22277 0.81871 0.95955 0.0
C1206 C 0.30409 0.75839 0.03094 0.0
C1207 C 0.30095 0.73999 0.07056 0.0
C1208 C 0.28461 0.77031 1.00761 0.0
C1209 C 0.26159 0.76461 0.02411 0.0
C1210 C 0.25859 0.747 0.06498 0.0
C1211 C 0.27809 0.73452 0.08764 0.0
H1212 H 0.27398 0.20881 0.423 0.0
H1213 H 0.31674 0.2783 0.4821 0.0
H1214 H 0.2393 0.22961 0.45925 0.0
H1215 H 0.28137 0.30066 0.51562 0.0
H1216 H 0.1771 0.28322 0.50514 0.0
H1217 H 0.2113 0.26526 0.46214 0.0
H1218 H 0.25619 0.29193 0.58071 0.0
H1219 H 0.22182 0.312 0.62189 0.0
C1220 C 0.27586 0.22909 0.44263 0.0
C1221 C 0.29819 0.24158 0.45067 0.0
C1222 C 0.25585 0.24118 0.46325 0.0
C1223 C 0.25755 0.26653 0.49131 0.0
C1224 C 0.27958 0.28055 0.49558 0.0
C1225 C 0.29979 0.26807 0.47565 0.0
C1226 C 0.19423 0.28456 0.52243 0.0
C1227 C 0.19694 0.2985 0.56702 0.0
C1228 C 0.21391 0.27443 0.49769 0.0
C1229 C 0.23661 0.27733 0.5177 0.0
C1230 C 0.23908 0.29006 0.56358 0.0
C1231 C 0.21942 0.30095 0.58771 0.0
H1232 H 0.77998 0.80167 0.91599 0.0
H1233 H 0.82278 0.77443 0.03591 0.0
H1234 H 0.7446 0.78443 0.95746 0.0
H1235 H 0.78767 0.75861 0.07874 0.0
H1236 H 0.71921 0.71081 0.12081 0.0
H1237 H 0.75624 0.72619 0.08531 0.0
H1238 H 0.72119 0.80075 0.02318 0.0
H1239 H 0.68374 0.78408 0.05713 0.0
C1240 C 0.78182 0.79079 0.95034 0.0
C1241 C 0.80396 0.7885 0.97236 0.0
C1242 C 0.76158 0.78177 0.97483 0.0
C1243 C 0.76321 0.77089 0.02207 0.0
C1244 C 0.78568 0.76676 0.04245 0.0
C1245 C 0.80586 0.7754 1.01769 0.0
C1246 C 0.71973 0.73123 0.10144 0.0
C1247 C 0.69885 0.74653 0.09206 0.0
C1248 C 0.74091 0.73991 0.08055 0.0
C1249 C 0.74159 0.76426 0.05017 0.0
C1250 C 0.72109 0.78133 0.04512 0.0
C1251 C 0.69979 0.77239 0.0657 0.0
H1252 H 0.78473 0.28839 0.62975 0.0
H1253 H 0.82318 0.27052 0.49938 0.0
H1254 H 0.74811 0.27364 0.59034 0.0
H1255 H 0.78681 0.25826 0.45839 0.0
H1256 H 0.71606 0.22137 0.40731 0.0
H1257 H 0.75438 0.23123 0.4422 0.0
H1258 H 0.72272 0.29557 0.53614 0.0
H1259 H 0.68396 0.28323 0.50357 0.0
C1260 C 0.78542 0.27989 0.59335 0.0
C1261 C 0.80662 0.28013 0.56764 0.0
C1262 C 0.76438 0.27252 0.57006 0.0
C1263 C 0.76426 0.26603 0.52041 0.0
C1264 C 0.78599 0.26318 0.49645 0.0
C1265 C 0.807 0.26974 0.52016 0.0
C1266 C 0.71757 0.23858 0.43387 0.0
C1267 C 0.69726 0.25159 0.45285 0.0
C1268 C 0.73954 0.24403 0.45448 0.0
C1269 C 0.74164 0.2634 0.49352 0.0
C1270 C 0.72163 0.27947 0.5077 0.0
C1271 C 0.69951 0.27333 0.48786 0.0
H1272 H 0.71018 0.28954 0.90897 0.0
H1273 H 0.67532 0.27557 0.04469 0.0
H1274 H 0.74721 0.27195 0.94347 0.0
H1275 H 0.71222 0.25968 0.08031 0.0
H1276 H 0.78138 0.21352 0.11849 0.0
H1277 H 0.74281 0.22658 0.08719 0.0
H1278 H 0.77545 0.29186 0.99711 0.0
H1279 H 0.81427 0.27708 0.02681 0.0
C1280 C 0.71028 0.28136 0.94551 0.0
C1281 C 0.68998 0.28317 0.974 0.0
C1282 C 0.73157 0.2722 0.96583 0.0
C1283 C 0.73289 0.26527 1.01515 0.0
C1284 C 0.71197 0.26473 0.04228 0.0
C1285 C 0.6907 0.27344 0.02175 0.0
C1286 C 0.78009 0.23145 0.09346 0.0
C1287 C 0.80055 0.24465 0.07548 0.0
C1288 C 0.75802 0.23879 0.07506 0.0
C1289 C 0.75602 0.25977 0.03861 0.0
C1290 C 0.77643 0.27492 0.02401 0.0
C1291 C 0.79859 0.2672 0.04202 0.0
H1292 H 0.82036 0.75512 0.52895 0.0
H1293 H 0.77421 0.72581 0.41482 0.0
H1294 H 0.78672 0.77282 0.57382 0.0
H1295 H 0.74033 0.74577 0.45791 0.0
H1296 H 0.68111 0.76106 0.55848 0.0
H1297 H 0.71597 0.73769 0.52475 0.0
H1298 H 0.75914 0.80896 0.5767 0.0
H1299 H 0.72498 0.83085 0.61316 0.0
C1300 C 0.803 0.75355 0.51266 0.0
C1301 C 0.79975 0.73961 0.4682 0.0
C1302 C 0.78367 0.76355 0.53849 0.0
C1303 C 0.76075 0.7606 0.51967 0.0
C1304 C 0.75767 0.7477 0.47407 0.0
C1305 C 0.77702 0.73687 0.44886 0.0
C1306 C 0.6982 0.77115 0.56394 0.0
C1307 C 0.70027 0.79805 0.58756 0.0
C1308 C 0.71811 0.75806 0.54392 0.0
C1309 C 0.74026 0.77186 0.54679 0.0
C1310 C 0.74246 0.79757 0.57379 0.0
C1311 C 0.72275 0.81028 0.59453 0.0
loop_
_geom_bond_atom_site_label_1
_geom_bond_atom_site_label_2
_geom_bond_distance
_geom_bond_site_symmetry_2
_ccdc_geom_bond_type
Fe0 O2 1.918 . S
Fe0 O5 1.997 . S
Fe0 O6 2.002 . S
Fe0 O11 1.976 . S
Fe0 O14 1.996 1_554 S
Fe1 O2 1.918 . S
Fe1 O9 1.997 . S
Fe1 O12 1.996 . S
Fe1 O16 1.976 . S
Fe1 O19 2.002 . S
O2 Fe0 1.918 . S
O2 Fe1 1.918 . S
O2 Fe3 1.918 . S
Fe3 O2 1.918 . S
Fe3 O4 2.002 . S
Fe3 O13 1.976 1_554 S
Fe3 O17 1.996 . S
Fe3 O20 1.997 . S
O4 Fe3 2.002 . S
O4 C21 1.295 . S
O5 Fe0 1.997 . S
O5 C21 1.235 . S
O6 Fe0 2.002 . S
O6 C7 1.295 . S
C7 O6 1.295 . S
C7 O9 1.235 . S
C8 O13 1.287 . S
C8 O14 1.255 . S
O9 Fe1 1.997 . S
O9 C7 1.235 . S
C10 O16 1.287 . S
C10 O17 1.255 . S
O11 Fe0 1.976 . S
O11 C18 1.287 . S
O12 Fe1 1.996 . S
O12 C18 1.255 . S
O13 Fe3 1.976 1_556 S
O13 C8 1.287 . S
O14 Fe0 1.996 1_556 S
O14 C8 1.255 . S
C15 O19 1.295 . S
C15 O20 1.235 . S
O16 Fe1 1.976 . S
O16 C10 1.287 . S
O17 Fe3 1.996 . S
O17 C10 1.255 . S
C18 O11 1.287 . S
C18 O12 1.255 . S
O19 Fe1 2.002 . S
O19 C15 1.295 . S
O20 Fe3 1.997 . S
O20 C15 1.235 . S
C21 O4 1.295 . S
C21 O5 1.235 . S
Fe22 O24 1.918 . S
Fe22 O27 1.997 . S
Fe22 O28 2.002 . S
Fe22 O33 1.976 . S
Fe22 O36 1.996 . S
Fe23 O24 1.918 . S
Fe23 O31 1.997 . S
Fe23 O34 1.996 . S
Fe23 O38 1.976 . S
Fe23 O41 2.002 . S
O24 Fe22 1.918 . S
O24 Fe23 1.918 . S
O24 Fe25 1.918 . S
Fe25 O24 1.918 . S
Fe25 O26 2.002 . S
Fe25 O35 1.976 . S
Fe25 O39 1.996 . S
Fe25 O42 1.997 . S
O26 Fe25 2.002 . S
O26 C43 1.295 . S
O27 Fe22 1.997 . S
O27 C43 1.235 . S
O28 Fe22 2.002 . S
O28 C29 1.295 . S
C29 O28 1.295 . S
C29 O31 1.235 . S
C30 O35 1.287 . S
C30 O36 1.255 . S
O31 Fe23 1.997 . S
O31 C29 1.235 . S
C32 O38 1.287 . S
C32 O39 1.255 . S
O33 Fe22 1.976 . S
O33 C40 1.287 . S
O34 Fe23 1.996 . S
O34 C40 1.255 . S
O35 Fe25 1.976 . S
O35 C30 1.287 . S
O36 Fe22 1.996 . S
O36 C30 1.255 . S
C37 O41 1.295 . S
C37 O42 1.235 . S
O38 Fe23 1.976 . S
O38 C32 1.287 . S
O39 Fe25 1.996 . S
O39 C32 1.255 . S
C40 O33 1.287 . S
C40 O34 1.255 . S
O41 Fe23 2.002 . S
O41 C37 1.295 . S
O42 Fe25 1.997 . S
O42 C37 1.235 . S
C43 O26 1.295 . S
C43 O27 1.235 . S
Fe44 O46 1.918 . S
Fe44 O49 1.997 . S
Fe44 O50 2.002 . S
Fe44 O55 1.976 . S
Fe44 O58 1.996 1_556 S
Fe45 O46 1.918 . S
Fe45 O53 1.997 . S
Fe45 O56 1.996 . S
Fe45 O60 1.976 . S
Fe45 O63 2.002 . S
O46 Fe44 1.918 . S
O46 Fe45 1.918 . S
O46 Fe47 1.918 . S
Fe47 O46 1.918 . S
Fe47 O48 2.002 . S
Fe47 O57 1.976 1_556 S
Fe47 O61 1.996 . S
Fe47 O64 1.997 . S
O48 Fe47 2.002 . S
O48 C65 1.295 . S
O49 Fe44 1.997 . S
O49 C65 1.235 . S
O50 Fe44 2.002 . S
O50 C51 1.295 . S
C51 O50 1.295 . S
C51 O53 1.235 . S
C52 O57 1.287 . S
C52 O58 1.255 . S
O53 Fe45 1.997 . S
O53 C51 1.235 . S
C54 O60 1.287 . S
C54 O61 1.255 . S
O55 Fe44 1.976 . S
O55 C62 1.287 . S
O56 Fe45 1.996 . S
O56 C62 1.255 . S
O57 Fe47 1.976 1_554 S
O57 C52 1.287 . S
O58 Fe44 1.996 1_554 S
O58 C52 1.255 . S
C59 O63 1.295 . S
C59 O64 1.235 . S
O60 Fe45 1.976 . S
O60 C54 1.287 . S
O61 Fe47 1.996 . S
O61 C54 1.255 . S
C62 O55 1.287 . S
C62 O56 1.255 . S
O63 Fe45 2.002 . S
O63 C59 1.295 . S
O64 Fe47 1.997 . S
O64 C59 1.235 . S
C65 O48 1.295 . S
C65 O49 1.235 . S
Fe66 O68 1.918 . S
Fe66 O71 1.997 . S
Fe66 O72 2.002 . S
Fe66 O77 1.976 . S
Fe66 O80 1.996 . S
Fe67 O68 1.918 . S
Fe67 O75 1.997 . S
Fe67 O78 1.996 . S
Fe67 O82 1.976 . S
Fe67 O85 2.002 . S
O68 Fe66 1.918 . S
O68 Fe67 1.918 . S
O68 Fe69 1.918 . S
Fe69 O68 1.918 . S
Fe69 O70 2.002 . S
Fe69 O79 1.976 . S
Fe69 O83 1.996 . S
Fe69 O86 1.997 . S
O70 Fe69 2.002 . S
O70 C87 1.295 . S
O71 Fe66 1.997 . S
O71 C87 1.235 . S
O72 Fe66 2.002 . S
O72 C73 1.295 . S
C73 O72 1.295 . S
C73 O75 1.235 . S
C74 O79 1.287 . S
C74 O80 1.255 . S
O75 Fe67 1.997 . S
O75 C73 1.235 . S
C76 O82 1.287 . S
C76 O83 1.255 . S
O77 Fe66 1.976 . S
O77 C84 1.287 . S
O78 Fe67 1.996 . S
O78 C84 1.255 . S
O79 Fe69 1.976 . S
O79 C74 1.287 . S
O80 Fe66 1.996 . S
O80 C74 1.255 . S
C81 O85 1.295 . S
C81 O86 1.235 . S
O82 Fe67 1.976 . S
O82 C76 1.287 . S
O83 Fe69 1.996 . S
O83 C76 1.255 . S
C84 O77 1.287 . S
C84 O78 1.255 . S
O85 Fe67 2.002 . S
O85 C81 1.295 . S
O86 Fe69 1.997 . S
O86 C81 1.235 . S
C87 O70 1.295 . S
C87 O71 1.235 . S
Fe88 O90 1.918 . S
Fe88 O93 1.997 . S
Fe88 O94 2.002 . S
Fe88 O99 1.976 . S
Fe88 O102 1.996 . S
Fe89 O90 1.918 . S
Fe89 O97 1.997 . S
Fe89 O100 1.996 . S
Fe89 O104 1.976 1_556 S
Fe89 O107 2.002 . S
O90 Fe88 1.918 . S
O90 Fe89 1.918 . S
O90 Fe91 1.918 . S
Fe91 O90 1.918 . S
Fe91 O92 2.002 . S
Fe91 O101 1.976 . S
Fe91 O105 1.996 1_556 S
Fe91 O108 1.997 . S
O92 Fe91 2.002 . S
O92 C109 1.295 . S
O93 Fe88 1.997 . S
O93 C109 1.235 . S
O94 Fe88 2.002 . S
O94 C95 1.295 . S
C95 O94 1.295 . S
C95 O97 1.235 . S
C96 O101 1.287 . S
C96 O102 1.255 . S
O97 Fe89 1.997 . S
O97 C95 1.235 . S
C98 O104 1.287 . S
C98 O105 1.255 . S
O99 Fe88 1.976 . S
O99 C106 1.287 . S
O100 Fe89 1.996 . S
O100 C106 1.255 . S
O101 Fe91 1.976 . S
O101 C96 1.287 . S
O102 Fe88 1.996 . S
O102 C96 1.255 . S
C103 O107 1.295 . S
C103 O108 1.235 . S
O104 Fe89 1.976 1_554 S
O104 C98 1.287 . S
O105 Fe91 1.996 1_554 S
O105 C98 1.255 . S
C106 O99 1.287 . S
C106 O100 1.255 . S
O107 Fe89 2.002 . S
O107 C103 1.295 . S
O108 Fe91 1.997 . S
O108 C103 1.235 . S
C109 O92 1.295 . S
C109 O93 1.235 . S
Fe110 O112 1.918 . S
Fe110 O115 1.997 . S
Fe110 O116 2.002 . S
Fe110 O121 1.976 . S
Fe110 O124 1.996 . S
Fe111 O112 1.918 . S
Fe111 O119 1.997 . S
Fe111 O122 1.996 . S
Fe111 O126 1.976 . S
Fe111 O129 2.002 . S
O112 Fe110 1.918 . S
O112 Fe111 1.918 . S
O112 Fe113 1.918 . S
Fe113 O112 1.918 . S
Fe113 O114 2.002 . S
Fe113 O123 1.976 . S
Fe113 O127 1.996 . S
Fe113 O130 1.997 . S
O114 Fe113 2.002 . S
O114 C131 1.295 . S
O115 Fe110 1.997 . S
O115 C131 1.235 . S
O116 Fe110 2.002 . S
O116 C117 1.295 . S
C117 O116 1.295 . S
C117 O119 1.235 . S
C118 O123 1.287 . S
C118 O124 1.255 . S
O119 Fe111 1.997 . S
O119 C117 1.235 . S
C120 O126 1.287 . S
C120 O127 1.255 . S
O121 Fe110 1.976 . S
O121 C128 1.287 . S
O122 Fe111 1.996 . S
O122 C128 1.255 . S
O123 Fe113 1.976 . S
O123 C118 1.287 . S
O124 Fe110 1.996 . S
O124 C118 1.255 . S
C125 O129 1.295 . S
C125 O130 1.235 . S
O126 Fe111 1.976 . S
O126 C120 1.287 . S
O127 Fe113 1.996 . S
O127 C120 1.255 . S
C128 O121 1.287 . S
C128 O122 1.255 . S
O129 Fe111 2.002 . S
O129 C125 1.295 . S
O130 Fe113 1.997 . S
O130 C125 1.235 . S
C131 O114 1.295 . S
C131 O115 1.235 . S
Fe132 O134 1.918 . S
Fe132 O137 1.997 . S
Fe132 O138 2.002 . S
Fe132 O143 1.976 . S
Fe132 O146 1.996 . S
Fe133 O134 1.918 . S
Fe133 O141 1.997 . S
Fe133 O144 1.996 . S
Fe133 O148 1.976 1_554 S
Fe133 O151 2.002 . S
O134 Fe132 1.918 . S
O134 Fe133 1.918 . S
O134 Fe135 1.918 . S
Fe135 O134 1.918 . S
Fe135 O136 2.002 . S
Fe135 O145 1.976 . S
Fe135 O149 1.996 1_554 S
Fe135 O152 1.997 . S
O136 Fe135 2.002 . S
O136 C153 1.295 . S
O137 Fe132 1.997 . S
O137 C153 1.235 . S
O138 Fe132 2.002 . S
O138 C139 1.295 . S
C139 O138 1.295 . S
C139 O141 1.235 . S
C140 O145 1.287 . S
C140 O146 1.255 . S
O141 Fe133 1.997 . S
O141 C139 1.235 . S
C142 O148 1.287 . S
C142 O149 1.255 . S
O143 Fe132 1.976 . S
O143 C150 1.287 . S
O144 Fe133 1.996 . S
O144 C150 1.255 . S
O145 Fe135 1.976 . S
O145 C140 1.287 . S
O146 Fe132 1.996 . S
O146 C140 1.255 . S
C147 O151 1.295 . S
C147 O152 1.235 . S
O148 Fe133 1.976 1_556 S
O148 C142 1.287 . S
O149 Fe135 1.996 1_556 S
O149 C142 1.255 . S
C150 O143 1.287 . S
C150 O144 1.255 . S
O151 Fe133 2.002 . S
O151 C147 1.295 . S
O152 Fe135 1.997 . S
O152 C147 1.235 . S
C153 O136 1.295 . S
C153 O137 1.235 . S
Fe154 O156 1.918 . S
Fe154 O159 1.997 . S
Fe154 O160 2.002 . S
Fe154 O165 1.976 . S
Fe154 O168 1.996 . S
Fe155 O156 1.918 . S
Fe155 O163 1.997 . S
Fe155 O166 1.996 . S
Fe155 O170 1.976 . S
Fe155 O173 2.002 . S
O156 Fe154 1.918 . S
O156 Fe155 1.918 . S
O156 Fe157 1.918 . S
Fe157 O156 1.918 . S
Fe157 O158 2.002 . S
Fe157 O167 1.976 . S
Fe157 O171 1.996 . S
Fe157 O174 1.997 . S
O158 Fe157 2.002 . S
O158 C175 1.295 . S
O159 Fe154 1.997 . S
O159 C175 1.235 . S
O160 Fe154 2.002 . S
O160 C161 1.295 . S
C161 O160 1.295 . S
C161 O163 1.235 . S
C162 O167 1.287 . S
C162 O168 1.255 . S
O163 Fe155 1.997 . S
O163 C161 1.235 . S
C164 O170 1.287 . S
C164 O171 1.255 . S
O165 Fe154 1.976 . S
O165 C172 1.287 . S
O166 Fe155 1.996 . S
O166 C172 1.255 . S
O167 Fe157 1.976 . S
O167 C162 1.287 . S
O168 Fe154 1.996 . S
O168 C162 1.255 . S
C169 O173 1.295 . S
C169 O174 1.235 . S
O170 Fe155 1.976 . S
O170 C164 1.287 . S
O171 Fe157 1.996 . S
O171 C164 1.255 . S
C172 O165 1.287 . S
C172 O166 1.255 . S
O173 Fe155 2.002 . S
O173 C169 1.295 . S
O174 Fe157 1.997 . S
O174 C169 1.235 . S
C175 O158 1.295 . S
C175 O159 1.235 . S
Fe176 O178 1.918 . S
Fe176 O181 1.997 . S
Fe176 O182 2.002 . S
Fe176 O187 1.976 . S
Fe176 O190 1.996 1_554 S
Fe177 O178 1.918 . S
Fe177 O185 1.997 . S
Fe177 O188 1.996 . S
Fe177 O192 1.976 . S
Fe177 O195 2.002 . S
O178 Fe176 1.918 . S
O178 Fe177 1.918 . S
O178 Fe179 1.918 . S
Fe179 O178 1.918 . S
Fe179 O180 2.002 . S
Fe179 O189 1.976 1_554 S
Fe179 O193 1.996 . S
Fe179 O196 1.997 . S
O180 Fe179 2.002 . S
O180 C197 1.295 . S
O181 Fe176 1.997 . S
O181 C197 1.235 . S
O182 Fe176 2.002 . S
O182 C183 1.295 . S
C183 O182 1.295 . S
C183 O185 1.235 . S
C184 O189 1.287 . S
C184 O190 1.255 . S
O185 Fe177 1.997 . S
O185 C183 1.235 . S
C186 O192 1.287 . S
C186 O193 1.255 . S
O187 Fe176 1.976 . S
O187 C194 1.287 . S
O188 Fe177 1.996 . S
O188 C194 1.255 . S
O189 Fe179 1.976 1_556 S
O189 C184 1.287 . S
O190 Fe176 1.996 1_556 S
O190 C184 1.255 . S
C191 O195 1.295 . S
C191 O196 1.235 . S
O192 Fe177 1.976 . S
O192 C186 1.287 . S
O193 Fe179 1.996 . S
O193 C186 1.255 . S
C194 O187 1.287 . S
C194 O188 1.255 . S
O195 Fe177 2.002 . S
O195 C191 1.295 . S
O196 Fe179 1.997 . S
O196 C191 1.235 . S
C197 O180 1.295 . S
C197 O181 1.235 . S
Fe198 O200 1.918 . S
Fe198 O203 1.997 . S
Fe198 O204 2.002 . S
Fe198 O209 1.976 . S
Fe198 O212 1.996 . S
Fe199 O200 1.918 . S
Fe199 O207 1.997 . S
Fe199 O210 1.996 . S
Fe199 O214 1.976 . S
Fe199 O217 2.002 . S
O200 Fe198 1.918 . S
O200 Fe199 1.918 . S
O200 Fe201 1.918 . S
Fe201 O200 1.918 . S
Fe201 O202 2.002 . S
Fe201 O211 1.976 . S
Fe201 O215 1.996 . S
Fe201 O218 1.997 . S
O202 Fe201 2.002 . S
O202 C219 1.295 . S
O203 Fe198 1.997 . S
O203 C219 1.235 . S
O204 Fe198 2.002 . S
O204 C205 1.295 . S
C205 O204 1.295 . S
C205 O207 1.235 . S
C206 O211 1.287 . S
C206 O212 1.255 . S
O207 Fe199 1.997 . S
O207 C205 1.235 . S
C208 O214 1.287 . S
C208 O215 1.255 . S
O209 Fe198 1.976 . S
O209 C216 1.287 . S
O210 Fe199 1.996 . S
O210 C216 1.255 . S
O211 Fe201 1.976 . S
O211 C206 1.287 . S
O212 Fe198 1.996 . S
O212 C206 1.255 . S
C213 O217 1.295 . S
C213 O218 1.235 . S
O214 Fe199 1.976 . S
O214 C208 1.287 . S
O215 Fe201 1.996 . S
O215 C208 1.255 . S
C216 O209 1.287 . S
C216 O210 1.255 . S
O217 Fe199 2.002 . S
O217 C213 1.295 . S
O218 Fe201 1.997 . S
O218 C213 1.235 . S
C219 O202 1.295 . S
C219 O203 1.235 . S
Fe220 O222 1.918 . S
Fe220 O225 1.997 . S
Fe220 O226 2.002 . S
Fe220 O231 1.976 . S
Fe220 O234 1.996 1_556 S
Fe221 O222 1.918 . S
Fe221 O229 1.997 . S
Fe221 O232 1.996 . S
Fe221 O236 1.976 . S
Fe221 O239 2.002 . S
O222 Fe220 1.918 . S
O222 Fe221 1.918 . S
O222 Fe223 1.918 . S
Fe223 O222 1.918 . S
Fe223 O224 2.002 . S
Fe223 O233 1.976 1_556 S
Fe223 O237 1.996 . S
Fe223 O240 1.997 . S
O224 Fe223 2.002 . S
O224 C241 1.295 . S
O225 Fe220 1.997 . S
O225 C241 1.235 . S
O226 Fe220 2.002 . S
O226 C227 1.295 . S
C227 O226 1.295 . S
C227 O229 1.235 . S
C228 O233 1.287 . S
C228 O234 1.255 . S
O229 Fe221 1.997 . S
O229 C227 1.235 . S
C230 O236 1.287 . S
C230 O237 1.255 . S
O231 Fe220 1.976 . S
O231 C238 1.287 . S
O232 Fe221 1.996 . S
O232 C238 1.255 . S
O233 Fe223 1.976 1_554 S
O233 C228 1.287 . S
O234 Fe220 1.996 1_554 S
O234 C228 1.255 . S
C235 O239 1.295 . S
C235 O240 1.235 . S
O236 Fe221 1.976 . S
O236 C230 1.287 . S
O237 Fe223 1.996 . S
O237 C230 1.255 . S
C238 O231 1.287 . S
C238 O232 1.255 . S
O239 Fe221 2.002 . S
O239 C235 1.295 . S
O240 Fe223 1.997 . S
O240 C235 1.235 . S
C241 O224 1.295 . S
C241 O225 1.235 . S
Fe242 O244 1.918 . S
Fe242 O247 1.997 . S
Fe242 O248 2.002 . S
Fe242 O253 1.976 . S
Fe242 O256 1.996 . S
Fe243 O244 1.918 . S
Fe243 O251 1.997 . S
Fe243 O254 1.996 . S
Fe243 O258 1.976 . S
Fe243 O261 2.002 . S
O244 Fe242 1.918 . S
O244 Fe243 1.918 . S
O244 Fe245 1.918 . S
Fe245 O244 1.918 . S
Fe245 O246 2.002 . S
Fe245 O255 1.976 . S
Fe245 O259 1.996 . S
Fe245 O262 1.997 . S
O246 Fe245 2.002 . S
O246 C263 1.295 . S
O247 Fe242 1.997 . S
O247 C263 1.235 . S
O248 Fe242 2.002 . S
O248 C249 1.295 . S
C249 O248 1.295 . S
C249 O251 1.235 . S
C250 O255 1.287 . S
C250 O256 1.255 . S
O251 Fe243 1.997 . S
O251 C249 1.235 . S
C252 O258 1.287 . S
C252 O259 1.255 . S
O253 Fe242 1.976 . S
O253 C260 1.287 . S
O254 Fe243 1.996 . S
O254 C260 1.255 . S
O255 Fe245 1.976 . S
O255 C250 1.287 . S
O256 Fe242 1.996 . S
O256 C250 1.255 . S
C257 O261 1.295 . S
C257 O262 1.235 . S
O258 Fe243 1.976 . S
O258 C252 1.287 . S
O259 Fe245 1.996 . S
O259 C252 1.255 . S
C260 O253 1.287 . S
C260 O254 1.255 . S
O261 Fe243 2.002 . S
O261 C257 1.295 . S
O262 Fe245 1.997 . S
O262 C257 1.235 . S
C263 O246 1.295 . S
C263 O247 1.235 . S
Fe264 O266 1.918 . S
Fe264 O269 1.997 . S
Fe264 O270 2.002 . S
Fe264 O275 1.976 . S
Fe264 O278 1.996 . S
Fe265 O266 1.918 . S
Fe265 O273 1.997 . S
Fe265 O276 1.996 . S
Fe265 O280 1.976 1_556 S
Fe265 O283 2.002 . S
O266 Fe264 1.918 . S
O266 Fe265 1.918 . S
O266 Fe267 1.918 . S
Fe267 O266 1.918 . S
Fe267 O268 2.002 . S
Fe267 O277 1.976 . S
Fe267 O281 1.996 1_556 S
Fe267 O284 1.997 . S
O268 Fe267 2.002 . S
O268 C285 1.295 . S
O269 Fe264 1.997 . S
O269 C285 1.235 . S
O270 Fe264 2.002 . S
O270 C271 1.295 . S
C271 O270 1.295 . S
C271 O273 1.235 . S
C272 O277 1.287 . S
C272 O278 1.255 . S
O273 Fe265 1.997 . S
O273 C271 1.235 . S
C274 O280 1.287 . S
C274 O281 1.255 . S
O275 Fe264 1.976 . S
O275 C282 1.287 . S
O276 Fe265 1.996 . S
O276 C282 1.255 . S
O277 Fe267 1.976 . S
O277 C272 1.287 . S
O278 Fe264 1.996 . S
O278 C272 1.255 . S
C279 O283 1.295 . S
C279 O284 1.235 . S
O280 Fe265 1.976 1_554 S
O280 C274 1.287 . S
O281 Fe267 1.996 1_554 S
O281 C274 1.255 . S
C282 O275 1.287 . S
C282 O276 1.255 . S
O283 Fe265 2.002 . S
O283 C279 1.295 . S
O284 Fe267 1.997 . S
O284 C279 1.235 . S
C285 O268 1.295 . S
C285 O269 1.235 . S
Fe286 O288 1.918 . S
Fe286 O291 1.997 . S
Fe286 O292 2.002 . S
Fe286 O297 1.976 . S
Fe286 O300 1.996 . S
Fe287 O288 1.918 . S
Fe287 O295 1.997 . S
Fe287 O298 1.996 . S
Fe287 O302 1.976 . S
Fe287 O305 2.002 . S
O288 Fe286 1.918 . S
O288 Fe287 1.918 . S
O288 Fe289 1.918 . S
Fe289 O288 1.918 . S
Fe289 O290 2.002 . S
Fe289 O299 1.976 . S
Fe289 O303 1.996 . S
Fe289 O306 1.997 . S
O290 Fe289 2.002 . S
O290 C307 1.295 . S
O291 Fe286 1.997 . S
O291 C307 1.235 . S
O292 Fe286 2.002 . S
O292 C293 1.295 . S
C293 O292 1.295 . S
C293 O295 1.235 . S
C294 O299 1.287 . S
C294 O300 1.255 . S
O295 Fe287 1.997 . S
O295 C293 1.235 . S
C296 O302 1.287 . S
C296 O303 1.255 . S
O297 Fe286 1.976 . S
O297 C304 1.287 . S
O298 Fe287 1.996 . S
O298 C304 1.255 . S
O299 Fe289 1.976 . S
O299 C294 1.287 . S
O300 Fe286 1.996 . S
O300 C294 1.255 . S
C301 O305 1.295 . S
C301 O306 1.235 . S
O302 Fe287 1.976 . S
O302 C296 1.287 . S
O303 Fe289 1.996 . S
O303 C296 1.255 . S
C304 O297 1.287 . S
C304 O298 1.255 . S
O305 Fe287 2.002 . S
O305 C301 1.295 . S
O306 Fe289 1.997 . S
O306 C301 1.235 . S
C307 O290 1.295 . S
C307 O291 1.235 . S
Fe308 O310 1.918 . S
Fe308 O313 1.997 . S
Fe308 O314 2.002 . S
Fe308 O319 1.976 1_554 S
Fe308 O322 1.996 . S
Fe309 O310 1.918 . S
Fe309 O317 1.997 . S
Fe309 O320 1.996 1_554 S
Fe309 O324 1.976 . S
Fe309 O327 2.002 . S
O310 Fe308 1.918 . S
O310 Fe309 1.918 . S
O310 Fe311 1.918 . S
Fe311 O310 1.918 . S
Fe311 O312 2.002 . S
Fe311 O321 1.976 . S
Fe311 O325 1.996 . S
Fe311 O328 1.997 . S
O312 Fe311 2.002 . S
O312 C329 1.295 . S
O313 Fe308 1.997 . S
O313 C329 1.235 . S
O314 Fe308 2.002 . S
O314 C315 1.295 . S
C315 O314 1.295 . S
C315 O317 1.235 . S
C316 O321 1.287 . S
C316 O322 1.255 . S
O317 Fe309 1.997 . S
O317 C315 1.235 . S
C318 O324 1.287 . S
C318 O325 1.255 . S
O319 Fe308 1.976 1_556 S
O319 C326 1.287 . S
O320 Fe309 1.996 1_556 S
O320 C326 1.255 . S
O321 Fe311 1.976 . S
O321 C316 1.287 . S
O322 Fe308 1.996 . S
O322 C316 1.255 . S
C323 O327 1.295 . S
C323 O328 1.235 . S
O324 Fe309 1.976 . S
O324 C318 1.287 . S
O325 Fe311 1.996 . S
O325 C318 1.255 . S
C326 O319 1.287 . S
C326 O320 1.255 . S
O327 Fe309 2.002 . S
O327 C323 1.295 . S
O328 Fe311 1.997 . S
O328 C323 1.235 . S
C329 O312 1.295 . S
C329 O313 1.235 . S
Fe330 O332 1.918 . S
Fe330 O335 1.997 . S
Fe330 O336 2.002 . S
Fe330 O341 1.976 . S
Fe330 O344 1.996 . S
Fe331 O332 1.918 . S
Fe331 O339 1.997 . S
Fe331 O342 1.996 . S
Fe331 O346 1.976 . S
Fe331 O349 2.002 . S
O332 Fe330 1.918 . S
O332 Fe331 1.918 . S
O332 Fe333 1.918 . S
Fe333 O332 1.918 . S
Fe333 O334 2.002 . S
Fe333 O343 1.976 . S
Fe333 O347 1.996 . S
Fe333 O350 1.997 . S
O334 Fe333 2.002 . S
O334 C351 1.295 . S
O335 Fe330 1.997 . S
O335 C351 1.235 . S
O336 Fe330 2.002 . S
O336 C337 1.295 . S
C337 O336 1.295 . S
C337 O339 1.235 . S
C338 O343 1.287 . S
C338 O344 1.255 . S
O339 Fe331 1.997 . S
O339 C337 1.235 . S
C340 O346 1.287 . S
C340 O347 1.255 . S
O341 Fe330 1.976 . S
O341 C348 1.287 . S
O342 Fe331 1.996 . S
O342 C348 1.255 . S
O343 Fe333 1.976 . S
O343 C338 1.287 . S
O344 Fe330 1.996 . S
O344 C338 1.255 . S
C345 O349 1.295 . S
C345 O350 1.235 . S
O346 Fe331 1.976 . S
O346 C340 1.287 . S
O347 Fe333 1.996 . S
O347 C340 1.255 . S
C348 O341 1.287 . S
C348 O342 1.255 . S
O349 Fe331 2.002 . S
O349 C345 1.295 . S
O350 Fe333 1.997 . S
O350 C345 1.235 . S
C351 O334 1.295 . S
C351 O335 1.235 . S
H352 C360 0.950 . S
H353 C365 0.950 . S
H354 C362 0.950 . S
H355 C364 0.950 . S
H356 C366 0.950 . S
H357 C368 0.950 . S
H358 C370 0.950 . S
H359 C371 0.950 . S
C360 H352 0.950 . S
C360 C361 1.386 . S
C360 C362 1.391 . S
C361 C360 1.386 . S
C361 C365 1.393 . S
C362 H354 0.950 . S
C362 C360 1.391 . S
C362 C363 1.400 . S
C363 C362 1.400 . S
C363 C364 1.398 . S
C363 C369 1.491 . S
C364 H355 0.950 . S
C364 C363 1.398 . S
C364 C365 1.391 . S
C365 H353 0.950 . S
C365 C361 1.393 . S
C365 C364 1.391 . S
C366 H356 0.950 . S
C366 C367 1.386 . S
C366 C368 1.391 . S
C367 C366 1.386 . S
C367 C371 1.393 . S
C368 H357 0.950 . S
C368 C366 1.391 . S
C368 C369 1.400 . S
C369 C363 1.491 . S
C369 C368 1.400 . S
C369 C370 1.398 . S
C370 H358 0.950 . S
C370 C369 1.398 . S
C370 C371 1.391 . S
C371 H359 0.950 . S
C371 C367 1.393 . S
C371 C370 1.391 . S
H372 C380 0.950 . S
H373 C385 0.950 . S
H374 C382 0.950 . S
H375 C384 0.950 . S
H376 C386 0.950 . S
H377 C388 0.950 . S
H378 C390 0.950 . S
H379 C391 0.950 . S
C380 H372 0.950 . S
C380 C381 1.386 . S
C380 C382 1.391 . S
C381 C380 1.386 . S
C381 C385 1.393 . S
C382 H374 0.950 . S
C382 C380 1.391 . S
C382 C383 1.400 . S
C383 C382 1.400 . S
C383 C384 1.398 . S
C383 C389 1.491 . S
C384 H375 0.950 . S
C384 C383 1.398 . S
C384 C385 1.391 . S
C385 H373 0.950 . S
C385 C381 1.393 . S
C385 C384 1.391 . S
C386 H376 0.950 . S
C386 C387 1.386 . S
C386 C388 1.391 . S
C387 C386 1.386 . S
C387 C391 1.393 . S
C388 H377 0.950 . S
C388 C386 1.391 . S
C388 C389 1.400 . S
C389 C383 1.491 . S
C389 C388 1.400 . S
C389 C390 1.398 . S
C390 H378 0.950 . S
C390 C389 1.398 . S
C390 C391 1.391 . S
C391 H379 0.950 . S
C391 C387 1.393 . S
C391 C390 1.391 . S
H392 C400 0.950 . S
H393 C405 0.950 . S
H394 C402 0.950 . S
H395 C404 0.950 . S
H396 C406 0.950 . S
H397 C408 0.950 . S
H398 C410 0.950 . S
H399 C411 0.950 . S
C400 H392 0.950 . S
C400 C401 1.386 . S
C400 C402 1.391 . S
C401 C400 1.386 . S
C401 C405 1.393 . S
C402 H394 0.950 . S
C402 C400 1.391 . S
C402 C403 1.400 . S
C403 C402 1.400 . S
C403 C404 1.398 . S
C403 C409 1.491 . S
C404 H395 0.950 . S
C404 C403 1.398 . S
C404 C405 1.391 . S
C405 H393 0.950 . S
C405 C401 1.393 . S
C405 C404 1.391 . S
C406 H396 0.950 . S
C406 C407 1.386 . S
C406 C408 1.391 . S
C407 C406 1.386 . S
C407 C411 1.393 . S
C408 H397 0.950 . S
C408 C406 1.391 . S
C408 C409 1.400 . S
C409 C403 1.491 . S
C409 C408 1.400 . S
C409 C410 1.398 . S
C410 H398 0.950 . S
C410 C409 1.398 . S
C410 C411 1.391 . S
C411 H399 0.950 . S
C411 C407 1.393 . S
C411 C410 1.391 . S
H412 C420 0.950 . S
H413 C425 0.950 . S
H414 C422 0.950 . S
H415 C424 0.950 . S
H416 C426 0.950 . S
H417 C428 0.950 . S
H418 C430 0.950 . S
H419 C431 0.950 . S
C420 H412 0.950 . S
C420 C421 1.386 . S
C420 C422 1.391 . S
C421 C420 1.386 . S
C421 C425 1.393 . S
C422 H414 0.950 . S
C422 C420 1.391 . S
C422 C423 1.400 . S
C423 C422 1.400 . S
C423 C424 1.398 . S
C423 C429 1.491 . S
C424 H415 0.950 . S
C424 C423 1.398 . S
C424 C425 1.391 . S
C425 H413 0.950 . S
C425 C421 1.393 . S
C425 C424 1.391 . S
C426 H416 0.950 . S
C426 C427 1.386 . S
C426 C428 1.391 . S
C427 C426 1.386 . S
C427 C431 1.393 . S
C428 H417 0.950 . S
C428 C426 1.391 . S
C428 C429 1.400 . S
C429 C423 1.491 . S
C429 C428 1.400 . S
C429 C430 1.398 . S
C430 H418 0.950 . S
C430 C429 1.398 . S
C430 C431 1.391 . S
C431 H419 0.950 . S
C431 C427 1.393 . S
C431 C430 1.391 . S
H432 C440 0.950 . S
H433 C445 0.950 . S
H434 C442 0.950 . S
H435 C444 0.950 . S
H436 C446 0.950 . S
H437 C448 0.950 . S
H438 C450 0.950 . S
H439 C451 0.950 . S
C440 H432 0.950 . S
C440 C441 1.386 . S
C440 C442 1.391 . S
C441 C440 1.386 . S
C441 C445 1.393 . S
C442 H434 0.950 . S
C442 C440 1.391 . S
C442 C443 1.400 . S
C443 C442 1.400 . S
C443 C444 1.398 . S
C443 C449 1.491 . S
C444 H435 0.950 . S
C444 C443 1.398 . S
C444 C445 1.391 . S
C445 H433 0.950 . S
C445 C441 1.393 . S
C445 C444 1.391 . S
C446 H436 0.950 . S
C446 C447 1.386 . S
C446 C448 1.391 . S
C447 C446 1.386 . S
C447 C451 1.393 . S
C448 H437 0.950 . S
C448 C446 1.391 . S
C448 C449 1.400 . S
C449 C443 1.491 . S
C449 C448 1.400 . S
C449 C450 1.398 . S
C450 H438 0.950 . S
C450 C449 1.398 . S
C450 C451 1.391 . S
C451 H439 0.950 . S
C451 C447 1.393 . S
C451 C450 1.391 . S
H452 C460 0.950 . S
H453 C465 0.950 . S
H454 C462 0.950 . S
H455 C464 0.950 . S
H456 C466 0.950 . S
H457 C468 0.950 . S
H458 C470 0.950 . S
H459 C471 0.950 . S
C460 H452 0.950 . S
C460 C461 1.386 . S
C460 C462 1.391 . S
C461 C460 1.386 . S
C461 C465 1.393 . S
C462 H454 0.950 . S
C462 C460 1.391 . S
C462 C463 1.400 . S
C463 C462 1.400 . S
C463 C464 1.398 . S
C463 C469 1.491 . S
C464 H455 0.950 . S
C464 C463 1.398 . S
C464 C465 1.391 . S
C465 H453 0.950 . S
C465 C461 1.393 . S
C465 C464 1.391 . S
C466 H456 0.950 . S
C466 C467 1.386 . S
C466 C468 1.391 . S
C467 C466 1.386 . S
C467 C471 1.393 . S
C468 H457 0.950 . S
C468 C466 1.391 . S
C468 C469 1.400 . S
C469 C463 1.491 . S
C469 C468 1.400 . S
C469 C470 1.398 . S
C470 H458 0.950 . S
C470 C469 1.398 . S
C470 C471 1.391 . S
C471 H459 0.950 . S
C471 C467 1.393 . S
C471 C470 1.391 . S
H472 C480 0.950 . S
H473 C485 0.950 . S
H474 C482 0.950 . S
H475 C484 0.950 . S
H476 C486 0.950 . S
H477 C488 0.950 . S
H478 C490 0.950 . S
H479 C491 0.950 . S
C480 H472 0.950 . S
C480 C481 1.386 . S
C480 C482 1.391 . S
C481 C480 1.386 . S
C481 C485 1.393 . S
C482 H474 0.950 . S
C482 C480 1.391 . S
C482 C483 1.400 . S
C483 C482 1.400 . S
C483 C484 1.398 . S
C483 C489 1.491 . S
C484 H475 0.950 . S
C484 C483 1.398 . S
C484 C485 1.391 . S
C485 H473 0.950 . S
C485 C481 1.393 . S
C485 C484 1.391 . S
C486 H476 0.950 . S
C486 C487 1.386 . S
C486 C488 1.391 . S
C487 C486 1.386 . S
C487 C491 1.393 . S
C488 H477 0.950 . S
C488 C486 1.391 . S
C488 C489 1.400 . S
C489 C483 1.491 . S
C489 C488 1.400 . S
C489 C490 1.398 . S
C490 H478 0.950 . S
C490 C489 1.398 . S
C490 C491 1.391 . S
C491 H479 0.950 . S
C491 C487 1.393 . S
C491 C490 1.391 . S
H492 C500 0.950 . S
H493 C505 0.950 . S
H494 C502 0.950 . S
H495 C504 0.950 . S
H496 C506 0.950 . S
H497 C508 0.950 . S
H498 C510 0.950 . S
H499 C511 0.950 . S
C500 H492 0.950 . S
C500 C501 1.386 . S
C500 C502 1.391 . S
C501 C500 1.386 . S
C501 C505 1.393 . S
C502 H494 0.950 . S
C502 C500 1.391 . S
C502 C503 1.400 . S
C503 C502 1.400 . S
C503 C504 1.398 . S
C503 C509 1.491 . S
C504 H495 0.950 . S
C504 C503 1.398 . S
C504 C505 1.391 . S
C505 H493 0.950 . S
C505 C501 1.393 . S
C505 C504 1.391 . S
C506 H496 0.950 . S
C506 C507 1.386 . S
C506 C508 1.391 . S
C507 C506 1.386 . S
C507 C511 1.393 . S
C508 H497 0.950 . S
C508 C506 1.391 . S
C508 C509 1.400 . S
C509 C503 1.491 . S
C509 C508 1.400 . S
C509 C510 1.398 . S
C510 H498 0.950 . S
C510 C509 1.398 . S
C510 C511 1.391 . S
C511 H499 0.950 . S
C511 C507 1.393 . S
C511 C510 1.391 . S
H512 C520 0.950 . S
H513 C525 0.950 . S
H514 C522 0.950 . S
H515 C524 0.950 . S
H516 C526 0.950 . S
H517 C528 0.950 . S
H518 C530 0.950 . S
H519 C531 0.950 . S
C520 H512 0.950 . S
C520 C521 1.386 . S
C520 C522 1.391 . S
C521 C520 1.386 . S
C521 C525 1.393 . S
C522 H514 0.950 . S
C522 C520 1.391 . S
C522 C523 1.400 . S
C523 C522 1.400 . S
C523 C524 1.398 . S
C523 C529 1.491 . S
C524 H515 0.950 . S
C524 C523 1.398 . S
C524 C525 1.391 . S
C525 H513 0.950 . S
C525 C521 1.393 . S
C525 C524 1.391 . S
C526 H516 0.950 . S
C526 C527 1.386 . S
C526 C528 1.391 . S
C527 C526 1.386 . S
C527 C531 1.393 . S
C528 H517 0.950 . S
C528 C526 1.391 . S
C528 C529 1.400 . S
C529 C523 1.491 . S
C529 C528 1.400 . S
C529 C530 1.398 . S
C530 H518 0.950 . S
C530 C529 1.398 . S
C530 C531 1.391 . S
C531 H519 0.950 . S
C531 C527 1.393 . S
C531 C530 1.391 . S
H532 C540 0.950 . S
H533 C545 0.950 . S
H534 C542 0.950 . S
H535 C544 0.950 . S
H536 C546 0.950 . S
H537 C548 0.950 . S
H538 C550 0.950 . S
H539 C551 0.950 . S
C540 H532 0.950 . S
C540 C541 1.386 . S
C540 C542 1.391 . S
C541 C540 1.386 . S
C541 C545 1.393 . S
C542 H534 0.950 . S
C542 C540 1.391 . S
C542 C543 1.400 . S
C543 C542 1.400 . S
C543 C544 1.398 . S
C543 C549 1.491 . S
C544 H535 0.950 . S
C544 C543 1.398 . S
C544 C545 1.391 . S
C545 H533 0.950 . S
C545 C541 1.393 . S
C545 C544 1.391 . S
C546 H536 0.950 . S
C546 C547 1.386 . S
C546 C548 1.391 . S
C547 C546 1.386 . S
C547 C551 1.393 . S
C548 H537 0.950 . S
C548 C546 1.391 . S
C548 C549 1.400 . S
C549 C543 1.491 . S
C549 C548 1.400 . S
C549 C550 1.398 . S
C550 H538 0.950 . S
C550 C549 1.398 . S
C550 C551 1.391 . S
C551 H539 0.950 . S
C551 C547 1.393 . S
C551 C550 1.391 . S
H552 C560 0.950 . S
H553 C565 0.950 . S
H554 C562 0.950 . S
H555 C564 0.950 . S
H556 C566 0.950 . S
H557 C568 0.950 . S
H558 C570 0.950 . S
H559 C571 0.950 . S
C560 H552 0.950 . S
C560 C561 1.386 . S
C560 C562 1.391 . S
C561 C560 1.386 . S
C561 C565 1.393 . S
C562 H554 0.950 . S
C562 C560 1.391 . S
C562 C563 1.400 . S
C563 C562 1.400 . S
C563 C564 1.398 . S
C563 C569 1.491 . S
C564 H555 0.950 . S
C564 C563 1.398 . S
C564 C565 1.391 . S
C565 H553 0.950 . S
C565 C561 1.393 . S
C565 C564 1.391 . S
C566 H556 0.950 . S
C566 C567 1.386 . S
C566 C568 1.391 . S
C567 C566 1.386 . S
C567 C571 1.393 . S
C568 H557 0.950 . S
C568 C566 1.391 . S
C568 C569 1.400 . S
C569 C563 1.491 . S
C569 C568 1.400 . S
C569 C570 1.398 . S
C570 H558 0.950 . S
C570 C569 1.398 . S
C570 C571 1.391 . S
C571 H559 0.950 . S
C571 C567 1.393 . S
C571 C570 1.391 . S
H572 C580 0.950 . S
H573 C585 0.950 . S
H574 C582 0.950 . S
H575 C584 0.950 . S
H576 C586 0.950 . S
H577 C588 0.950 . S
H578 C590 0.950 . S
H579 C591 0.950 . S
C580 H572 0.950 . S
C580 C581 1.386 . S
C580 C582 1.391 . S
C581 C580 1.386 . S
C581 C585 1.393 . S
C582 H574 0.950 . S
C582 C580 1.391 . S
C582 C583 1.400 . S
C583 C582 1.400 . S
C583 C584 1.398 . S
C583 C589 1.491 . S
C584 H575 0.950 . S
C584 C583 1.398 . S
C584 C585 1.391 . S
C585 H573 0.950 . S
C585 C581 1.393 . S
C585 C584 1.391 . S
C586 H576 0.950 . S
C586 C587 1.386 . S
C586 C588 1.391 . S
C587 C586 1.386 . S
C587 C591 1.393 . S
C588 H577 0.950 . S
C588 C586 1.391 . S
C588 C589 1.400 . S
C589 C583 1.491 . S
C589 C588 1.400 . S
C589 C590 1.398 . S
C590 H578 0.950 . S
C590 C589 1.398 . S
C590 C591 1.391 . S
C591 H579 0.950 . S
C591 C587 1.393 . S
C591 C590 1.391 . S
H592 C600 0.950 . S
H593 C605 0.950 . S
H594 C602 0.950 . S
H595 C604 0.950 . S
H596 C606 0.950 . S
H597 C608 0.950 . S
H598 C610 0.950 . S
H599 C611 0.950 . S
C600 H592 0.950 . S
C600 C601 1.386 . S
C600 C602 1.391 . S
C601 C600 1.386 . S
C601 C605 1.393 . S
C602 H594 0.950 . S
C602 C600 1.391 . S
C602 C603 1.400 . S
C603 C602 1.400 . S
C603 C604 1.398 . S
C603 C609 1.491 . S
C604 H595 0.950 . S
C604 C603 1.398 . S
C604 C605 1.391 . S
C605 H593 0.950 . S
C605 C601 1.393 . S
C605 C604 1.391 . S
C606 H596 0.950 . S
C606 C607 1.386 . S
C606 C608 1.391 . S
C607 C606 1.386 . S
C607 C611 1.393 . S
C608 H597 0.950 . S
C608 C606 1.391 . S
C608 C609 1.400 . S
C609 C603 1.491 . S
C609 C608 1.400 . S
C609 C610 1.398 . S
C610 H598 0.950 . S
C610 C609 1.398 . S
C610 C611 1.391 . S
C611 H599 0.950 . S
C611 C607 1.393 . S
C611 C610 1.391 . S
H612 C620 0.950 . S
H613 C625 0.950 . S
H614 C622 0.950 . S
H615 C624 0.950 . S
H616 C626 0.950 . S
H617 C628 0.950 . S
H618 C630 0.950 . S
H619 C631 0.950 . S
C620 H612 0.950 . S
C620 C621 1.386 . S
C620 C622 1.391 . S
C621 C620 1.386 . S
C621 C625 1.393 . S
C622 H614 0.950 . S
C622 C620 1.391 . S
C622 C623 1.400 . S
C623 C622 1.400 . S
C623 C624 1.398 . S
C623 C629 1.491 . S
C624 H615 0.950 . S
C624 C623 1.398 . S
C624 C625 1.391 . S
C625 H613 0.950 . S
C625 C621 1.393 . S
C625 C624 1.391 . S
C626 H616 0.950 . S
C626 C627 1.386 . S
C626 C628 1.391 . S
C627 C626 1.386 . S
C627 C631 1.393 . S
C628 H617 0.950 . S
C628 C626 1.391 . S
C628 C629 1.400 . S
C629 C623 1.491 . S
C629 C628 1.400 . S
C629 C630 1.398 . S
C630 H618 0.950 . S
C630 C629 1.398 . S
C630 C631 1.391 . S
C631 H619 0.950 . S
C631 C627 1.393 . S
C631 C630 1.391 . S
H632 C640 0.950 . S
H633 C645 0.950 . S
H634 C642 0.950 . S
H635 C644 0.950 . S
H636 C646 0.950 . S
H637 C648 0.950 . S
H638 C650 0.950 . S
H639 C651 0.950 . S
C640 H632 0.950 . S
C640 C641 1.386 . S
C640 C642 1.391 . S
C641 C640 1.386 . S
C641 C645 1.393 . S
C642 H634 0.950 . S
C642 C640 1.391 . S
C642 C643 1.400 . S
C643 C642 1.400 . S
C643 C644 1.398 . S
C643 C649 1.491 . S
C644 H635 0.950 . S
C644 C643 1.398 . S
C644 C645 1.391 . S
C645 H633 0.950 . S
C645 C641 1.393 . S
C645 C644 1.391 . S
C646 H636 0.950 . S
C646 C647 1.386 . S
C646 C648 1.391 . S
C647 C646 1.386 . S
C647 C651 1.393 . S
C648 H637 0.950 . S
C648 C646 1.391 . S
C648 C649 1.400 . S
C649 C643 1.491 . S
C649 C648 1.400 . S
C649 C650 1.398 . S
C650 H638 0.950 . S
C650 C649 1.398 . S
C650 C651 1.391 . S
C651 H639 0.950 . S
C651 C647 1.393 . S
C651 C650 1.391 . S
H652 C660 0.950 . S
H653 C665 0.950 . S
H654 C662 0.950 . S
H655 C664 0.950 . S
H656 C666 0.950 . S
H657 C668 0.950 . S
H658 C670 0.950 . S
H659 C671 0.950 . S
C660 H652 0.950 . S
C660 C661 1.386 . S
C660 C662 1.391 . S
C661 C660 1.386 . S
C661 C665 1.393 . S
C662 H654 0.950 . S
C662 C660 1.391 . S
C662 C663 1.400 . S
C663 C662 1.400 . S
C663 C664 1.398 . S
C663 C669 1.491 . S
C664 H655 0.950 . S
C664 C663 1.398 . S
C664 C665 1.391 . S
C665 H653 0.950 . S
C665 C661 1.393 . S
C665 C664 1.391 . S
C666 H656 0.950 . S
C666 C667 1.386 . S
C666 C668 1.391 . S
C667 C666 1.386 . S
C667 C671 1.393 . S
C668 H657 0.950 . S
C668 C666 1.391 . S
C668 C669 1.400 . S
C669 C663 1.491 . S
C669 C668 1.400 . S
C669 C670 1.398 . S
C670 H658 0.950 . S
C670 C669 1.398 . S
C670 C671 1.391 . S
C671 H659 0.950 . S
C671 C667 1.393 . S
C671 C670 1.391 . S
H672 C680 0.950 . S
H673 C685 0.950 . S
H674 C682 0.950 . S
H675 C684 0.950 . S
H676 C686 0.950 . S
H677 C688 0.950 . S
H678 C690 0.950 . S
H679 C691 0.950 . S
C680 H672 0.950 . S
C680 C681 1.386 . S
C680 C682 1.391 . S
C681 C680 1.386 . S
C681 C685 1.393 . S
C682 H674 0.950 . S
C682 C680 1.391 . S
C682 C683 1.400 . S
C683 C682 1.400 . S
C683 C684 1.398 . S
C683 C689 1.491 . S
C684 H675 0.950 . S
C684 C683 1.398 . S
C684 C685 1.391 . S
C685 H673 0.950 . S
C685 C681 1.393 . S
C685 C684 1.391 . S
C686 H676 0.950 . S
C686 C687 1.386 . S
C686 C688 1.391 . S
C687 C686 1.386 . S
C687 C691 1.393 . S
C688 H677 0.950 . S
C688 C686 1.391 . S
C688 C689 1.400 . S
C689 C683 1.491 . S
C689 C688 1.400 . S
C689 C690 1.398 . S
C690 H678 0.950 . S
C690 C689 1.398 . S
C690 C691 1.391 . S
C691 H679 0.950 . S
C691 C687 1.393 . S
C691 C690 1.391 . S
H692 C700 0.950 . S
H693 C705 0.950 . S
H694 C702 0.950 . S
H695 C704 0.950 . S
H696 C706 0.950 . S
H697 C708 0.950 . S
H698 C710 0.950 . S
H699 C711 0.950 . S
C700 H692 0.950 . S
C700 C701 1.386 . S
C700 C702 1.391 . S
C701 C700 1.386 . S
C701 C705 1.393 . S
C702 H694 0.950 . S
C702 C700 1.391 . S
C702 C703 1.400 . S
C703 C702 1.400 . S
C703 C704 1.398 . S
C703 C709 1.491 . S
C704 H695 0.950 . S
C704 C703 1.398 . S
C704 C705 1.391 . S
C705 H693 0.950 . S
C705 C701 1.393 . S
C705 C704 1.391 . S
C706 H696 0.950 . S
C706 C707 1.386 . S
C706 C708 1.391 . S
C707 C706 1.386 . S
C707 C711 1.393 . S
C708 H697 0.950 . S
C708 C706 1.391 . S
C708 C709 1.400 . S
C709 C703 1.491 . S
C709 C708 1.400 . S
C709 C710 1.398 . S
C710 H698 0.950 . S
C710 C709 1.398 . S
C710 C711 1.391 . S
C711 H699 0.950 . S
C711 C707 1.393 . S
C711 C710 1.391 . S
H712 C720 0.950 . S
H713 C725 0.950 . S
H714 C722 0.950 . S
H715 C724 0.950 . S
H716 C726 0.950 . S
H717 C728 0.950 . S
H718 C730 0.950 . S
H719 C731 0.950 . S
C720 H712 0.950 . S
C720 C721 1.386 . S
C720 C722 1.391 . S
C721 C720 1.386 . S
C721 C725 1.393 . S
C722 H714 0.950 . S
C722 C720 1.391 . S
C722 C723 1.400 . S
C723 C722 1.400 . S
C723 C724 1.398 . S
C723 C729 1.491 . S
C724 H715 0.950 . S
C724 C723 1.398 . S
C724 C725 1.391 . S
C725 H713 0.950 . S
C725 C721 1.393 . S
C725 C724 1.391 . S
C726 H716 0.950 . S
C726 C727 1.386 . S
C726 C728 1.391 . S
C727 C726 1.386 . S
C727 C731 1.393 . S
C728 H717 0.950 . S
C728 C726 1.391 . S
C728 C729 1.400 . S
C729 C723 1.491 . S
C729 C728 1.400 . S
C729 C730 1.398 . S
C730 H718 0.950 . S
C730 C729 1.398 . S
C730 C731 1.391 . S
C731 H719 0.950 . S
C731 C727 1.393 . S
C731 C730 1.391 . S
H732 C740 0.950 . S
H733 C745 0.950 . S
H734 C742 0.950 . S
H735 C744 0.950 . S
H736 C746 0.950 . S
H737 C748 0.950 . S
H738 C750 0.950 . S
H739 C751 0.950 . S
C740 H732 0.950 . S
C740 C741 1.386 . S
C740 C742 1.391 . S
C741 C740 1.386 . S
C741 C745 1.393 . S
C742 H734 0.950 . S
C742 C740 1.391 . S
C742 C743 1.400 . S
C743 C742 1.400 . S
C743 C744 1.398 . S
C743 C749 1.491 . S
C744 H735 0.950 . S
C744 C743 1.398 . S
C744 C745 1.391 . S
C745 H733 0.950 . S
C745 C741 1.393 . S
C745 C744 1.391 . S
C746 H736 0.950 . S
C746 C747 1.386 . S
C746 C748 1.391 . S
C747 C746 1.386 . S
C747 C751 1.393 . S
C748 H737 0.950 . S
C748 C746 1.391 . S
C748 C749 1.400 . S
C749 C743 1.491 . S
C749 C748 1.400 . S
C749 C750 1.398 . S
C750 H738 0.950 . S
C750 C749 1.398 . S
C750 C751 1.391 . S
C751 H739 0.950 . S
C751 C747 1.393 . S
C751 C750 1.391 . S
H752 C760 0.950 . S
H753 C765 0.950 . S
H754 C762 0.950 . S
H755 C764 0.950 . S
H756 C766 0.950 . S
H757 C768 0.950 . S
H758 C770 0.950 . S
H759 C771 0.950 . S
C760 H752 0.950 . S
C760 C761 1.386 . S
C760 C762 1.391 . S
C761 C760 1.386 . S
C761 C765 1.393 . S
C762 H754 0.950 . S
C762 C760 1.391 . S
C762 C763 1.400 . S
C763 C762 1.400 . S
C763 C764 1.398 . S
C763 C769 1.491 . S
C764 H755 0.950 . S
C764 C763 1.398 . S
C764 C765 1.391 . S
C765 H753 0.950 . S
C765 C761 1.393 . S
C765 C764 1.391 . S
C766 H756 0.950 . S
C766 C767 1.386 . S
C766 C768 1.391 . S
C767 C766 1.386 . S
C767 C771 1.393 . S
C768 H757 0.950 . S
C768 C766 1.391 . S
C768 C769 1.400 . S
C769 C763 1.491 . S
C769 C768 1.400 . S
C769 C770 1.398 . S
C770 H758 0.950 . S
C770 C769 1.398 . S
C770 C771 1.391 . S
C771 H759 0.950 . S
C771 C767 1.393 . S
C771 C770 1.391 . S
H772 C780 0.950 . S
H773 C785 0.950 . S
H774 C782 0.950 . S
H775 C784 0.950 . S
H776 C786 0.950 . S
H777 C788 0.950 . S
H778 C790 0.950 . S
H779 C791 0.950 . S
C780 H772 0.950 . S
C780 C781 1.386 . S
C780 C782 1.391 . S
C781 C780 1.386 . S
C781 C785 1.393 . S
C782 H774 0.950 . S
C782 C780 1.391 . S
C782 C783 1.400 . S
C783 C782 1.400 . S
C783 C784 1.398 . S
C783 C789 1.491 . S
C784 H775 0.950 . S
C784 C783 1.398 . S
C784 C785 1.391 . S
C785 H773 0.950 . S
C785 C781 1.393 . S
C785 C784 1.391 . S
C786 H776 0.950 . S
C786 C787 1.386 . S
C786 C788 1.391 . S
C787 C786 1.386 . S
C787 C791 1.393 . S
C788 H777 0.950 . S
C788 C786 1.391 . S
C788 C789 1.400 . S
C789 C783 1.491 . S
C789 C788 1.400 . S
C789 C790 1.398 . S
C790 H778 0.950 . S
C790 C789 1.398 . S
C790 C791 1.391 . S
C791 H779 0.950 . S
C791 C787 1.393 . S
C791 C790 1.391 . S
H792 C800 0.950 . S
H793 C805 0.950 . S
H794 C802 0.950 . S
H795 C804 0.950 . S
H796 C806 0.950 . S
H797 C808 0.950 . S
H798 C810 0.950 . S
H799 C811 0.950 . S
C800 H792 0.950 . S
C800 C801 1.386 . S
C800 C802 1.391 . S
C801 C800 1.386 . S
C801 C805 1.393 . S
C802 H794 0.950 . S
C802 C800 1.391 . S
C802 C803 1.400 . S
C803 C802 1.400 . S
C803 C804 1.398 . S
C803 C809 1.491 . S
C804 H795 0.950 . S
C804 C803 1.398 . S
C804 C805 1.391 . S
C805 H793 0.950 . S
C805 C801 1.393 . S
C805 C804 1.391 . S
C806 H796 0.950 . S
C806 C807 1.386 . S
C806 C808 1.391 . S
C807 C806 1.386 . S
C807 C811 1.393 . S
C808 H797 0.950 . S
C808 C806 1.391 . S
C808 C809 1.400 . S
C809 C803 1.491 . S
C809 C808 1.400 . S
C809 C810 1.398 . S
C810 H798 0.950 . S
C810 C809 1.398 . S
C810 C811 1.391 . S
C811 H799 0.950 . S
C811 C807 1.393 . S
C811 C810 1.391 . S
H812 C820 0.950 . S
H813 C825 0.950 . S
H814 C822 0.950 . S
H815 C824 0.950 . S
H816 C826 0.950 . S
H817 C828 0.950 . S
H818 C830 0.950 . S
H819 C831 0.950 . S
C820 H812 0.950 . S
C820 C821 1.386 . S
C820 C822 1.391 . S
C821 C820 1.386 . S
C821 C825 1.393 . S
C822 H814 0.950 . S
C822 C820 1.391 . S
C822 C823 1.400 . S
C823 C822 1.400 . S
C823 C824 1.398 . S
C823 C829 1.491 . S
C824 H815 0.950 . S
C824 C823 1.398 . S
C824 C825 1.391 . S
C825 H813 0.950 . S
C825 C821 1.393 . S
C825 C824 1.391 . S
C826 H816 0.950 . S
C826 C827 1.386 . S
C826 C828 1.391 . S
C827 C826 1.386 . S
C827 C831 1.393 . S
C828 H817 0.950 . S
C828 C826 1.391 . S
C828 C829 1.400 . S
C829 C823 1.491 . S
C829 C828 1.400 . S
C829 C830 1.398 . S
C830 H818 0.950 . S
C830 C829 1.398 . S
C830 C831 1.391 . S
C831 H819 0.950 . S
C831 C827 1.393 . S
C831 C830 1.391 . S
H832 C840 0.950 . S
H833 C845 0.950 . S
H834 C842 0.950 . S
H835 C844 0.950 . S
H836 C846 0.950 . S
H837 C848 0.950 . S
H838 C850 0.950 . S
H839 C851 0.950 . S
C840 H832 0.950 . S
C840 C841 1.386 . S
C840 C842 1.391 . S
C841 C840 1.386 . S
C841 C845 1.393 . S
C842 H834 0.950 . S
C842 C840 1.391 . S
C842 C843 1.400 . S
C843 C842 1.400 . S
C843 C844 1.398 . S
C843 C849 1.491 1_455 S
C844 H835 0.950 . S
C844 C843 1.398 . S
C844 C845 1.391 . S
C845 H833 0.950 . S
C845 C841 1.393 . S
C845 C844 1.391 . S
C846 H836 0.950 . S
C846 C847 1.386 . S
C846 C848 1.391 . S
C847 C846 1.386 . S
C847 C851 1.393 . S
C848 H837 0.950 . S
C848 C846 1.391 . S
C848 C849 1.400 . S
C849 C843 1.491 1_655 S
C849 C848 1.400 . S
C849 C850 1.398 . S
C850 H838 0.950 . S
C850 C849 1.398 . S
C850 C851 1.391 . S
C851 H839 0.950 . S
C851 C847 1.393 . S
C851 C850 1.391 . S
H852 C860 0.950 . S
H853 C865 0.950 . S
H854 C862 0.950 . S
H855 C864 0.950 . S
H856 C866 0.950 . S
H857 C868 0.950 . S
H858 C870 0.950 . S
H859 C871 0.950 . S
C860 H852 0.950 . S
C860 C861 1.386 . S
C860 C862 1.391 . S
C861 C860 1.386 . S
C861 C865 1.393 . S
C862 H854 0.950 . S
C862 C860 1.391 . S
C862 C863 1.400 . S
C863 C862 1.400 . S
C863 C864 1.398 . S
C863 C869 1.491 . S
C864 H855 0.950 . S
C864 C863 1.398 . S
C864 C865 1.391 . S
C865 H853 0.950 . S
C865 C861 1.393 . S
C865 C864 1.391 . S
C866 H856 0.950 . S
C866 C867 1.386 . S
C866 C868 1.391 . S
C867 C866 1.386 . S
C867 C871 1.393 . S
C868 H857 0.950 . S
C868 C866 1.391 . S
C868 C869 1.400 . S
C869 C863 1.491 . S
C869 C868 1.400 . S
C869 C870 1.398 . S
C870 H858 0.950 . S
C870 C869 1.398 . S
C870 C871 1.391 . S
C871 H859 0.950 . S
C871 C867 1.393 . S
C871 C870 1.391 . S
H872 C880 0.950 . S
H873 C885 0.950 . S
H874 C882 0.950 . S
H875 C884 0.950 . S
H876 C886 0.950 . S
H877 C888 0.950 . S
H878 C890 0.950 . S
H879 C891 0.950 . S
C880 H872 0.950 . S
C880 C881 1.386 . S
C880 C882 1.391 . S
C881 C880 1.386 . S
C881 C885 1.393 . S
C882 H874 0.950 . S
C882 C880 1.391 . S
C882 C883 1.400 . S
C883 C882 1.400 . S
C883 C884 1.398 . S
C883 C889 1.491 1_655 S
C884 H875 0.950 . S
C884 C883 1.398 . S
C884 C885 1.391 . S
C885 H873 0.950 . S
C885 C881 1.393 . S
C885 C884 1.391 . S
C886 H876 0.950 . S
C886 C887 1.386 . S
C886 C888 1.391 . S
C887 C886 1.386 . S
C887 C891 1.393 . S
C888 H877 0.950 . S
C888 C886 1.391 . S
C888 C889 1.400 . S
C889 C883 1.491 1_455 S
C889 C888 1.400 . S
C889 C890 1.398 . S
C890 H878 0.950 . S
C890 C889 1.398 . S
C890 C891 1.391 . S
C891 H879 0.950 . S
C891 C887 1.393 . S
C891 C890 1.391 . S
H892 C900 0.950 . S
H893 C905 0.950 . S
H894 C902 0.950 . S
H895 C904 0.950 . S
H896 C906 0.950 . S
H897 C908 0.950 . S
H898 C910 0.950 . S
H899 C911 0.950 . S
C900 H892 0.950 . S
C900 C901 1.386 . S
C900 C902 1.391 . S
C901 C900 1.386 . S
C901 C905 1.393 . S
C902 H894 0.950 . S
C902 C900 1.391 . S
C902 C903 1.400 . S
C903 C902 1.400 . S
C903 C904 1.398 . S
C903 C909 1.491 . S
C904 H895 0.950 . S
C904 C903 1.398 . S
C904 C905 1.391 . S
C905 H893 0.950 . S
C905 C901 1.393 . S
C905 C904 1.391 . S
C906 H896 0.950 . S
C906 C907 1.386 . S
C906 C908 1.391 . S
C907 C906 1.386 . S
C907 C911 1.393 . S
C908 H897 0.950 . S
C908 C906 1.391 . S
C908 C909 1.400 . S
C909 C903 1.491 . S
C909 C908 1.400 . S
C909 C910 1.398 . S
C910 H898 0.950 . S
C910 C909 1.398 . S
C910 C911 1.391 . S
C911 H899 0.950 . S
C911 C907 1.393 . S
C911 C910 1.391 . S
H912 C920 0.950 . S
H913 C925 0.950 . S
H914 C922 0.950 . S
H915 C924 0.950 . S
H916 C926 0.950 . S
H917 C928 0.950 . S
H918 C930 0.950 . S
H919 C931 0.950 . S
C920 H912 0.950 . S
C920 C921 1.386 . S
C920 C922 1.391 . S
C921 C920 1.386 . S
C921 C925 1.393 . S
C922 H914 0.950 . S
C922 C920 1.391 . S
C922 C923 1.400 . S
C923 C922 1.400 . S
C923 C924 1.398 . S
C923 C929 1.491 . S
C924 H915 0.950 . S
C924 C923 1.398 . S
C924 C925 1.391 . S
C925 H913 0.950 . S
C925 C921 1.393 . S
C925 C924 1.391 . S
C926 H916 0.950 . S
C926 C927 1.386 . S
C926 C928 1.391 . S
C927 C926 1.386 . S
C927 C931 1.393 . S
C928 H917 0.950 . S
C928 C926 1.391 . S
C928 C929 1.400 . S
C929 C923 1.491 . S
C929 C928 1.400 . S
C929 C930 1.398 . S
C930 H918 0.950 . S
C930 C929 1.398 . S
C930 C931 1.391 . S
C931 H919 0.950 . S
C931 C927 1.393 . S
C931 C930 1.391 . S
H932 C940 0.950 . S
H933 C945 0.950 . S
H934 C942 0.950 . S
H935 C944 0.950 . S
H936 C946 0.950 . S
H937 C948 0.950 . S
H938 C950 0.950 . S
H939 C951 0.950 . S
C940 H932 0.950 . S
C940 C941 1.386 . S
C940 C942 1.391 . S
C941 C940 1.386 . S
C941 C945 1.393 . S
C942 H934 0.950 . S
C942 C940 1.391 . S
C942 C943 1.400 . S
C943 C942 1.400 . S
C943 C944 1.398 . S
C943 C949 1.491 1_655 S
C944 H935 0.950 . S
C944 C943 1.398 . S
C944 C945 1.391 . S
C945 H933 0.950 . S
C945 C941 1.393 . S
C945 C944 1.391 . S
C946 H936 0.950 . S
C946 C947 1.386 . S
C946 C948 1.391 . S
C947 C946 1.386 . S
C947 C951 1.393 . S
C948 H937 0.950 . S
C948 C946 1.391 . S
C948 C949 1.400 . S
C949 C943 1.491 1_455 S
C949 C948 1.400 . S
C949 C950 1.398 . S
C950 H938 0.950 . S
C950 C949 1.398 . S
C950 C951 1.391 . S
C951 H939 0.950 . S
C951 C947 1.393 . S
C951 C950 1.391 . S
H952 C960 0.950 . S
H953 C965 0.950 . S
H954 C962 0.950 . S
H955 C964 0.950 . S
H956 C966 0.950 . S
H957 C968 0.950 . S
H958 C970 0.950 . S
H959 C971 0.950 . S
C960 H952 0.950 . S
C960 C961 1.386 . S
C960 C962 1.391 . S
C961 C960 1.386 . S
C961 C965 1.393 . S
C962 H954 0.950 . S
C962 C960 1.391 . S
C962 C963 1.400 . S
C963 C962 1.400 . S
C963 C964 1.398 . S
C963 C969 1.491 . S
C964 H955 0.950 . S
C964 C963 1.398 . S
C964 C965 1.391 . S
C965 H953 0.950 . S
C965 C961 1.393 . S
C965 C964 1.391 . S
C966 H956 0.950 . S
C966 C967 1.386 . S
C966 C968 1.391 . S
C967 C966 1.386 . S
C967 C971 1.393 . S
C968 H957 0.950 . S
C968 C966 1.391 . S
C968 C969 1.400 . S
C969 C963 1.491 . S
C969 C968 1.400 . S
C969 C970 1.398 . S
C970 H958 0.950 . S
C970 C969 1.398 . S
C970 C971 1.391 . S
C971 H959 0.950 . S
C971 C967 1.393 . S
C971 C970 1.391 . S
H972 C980 0.950 . S
H973 C985 0.950 . S
H974 C982 0.950 . S
H975 C984 0.950 . S
H976 C986 0.950 . S
H977 C988 0.950 . S
H978 C990 0.950 . S
H979 C991 0.950 . S
C980 H972 0.950 . S
C980 C981 1.386 . S
C980 C982 1.391 . S
C981 C980 1.386 . S
C981 C985 1.393 . S
C982 H974 0.950 . S
C982 C980 1.391 . S
C982 C983 1.400 . S
C983 C982 1.400 . S
C983 C984 1.398 . S
C983 C989 1.491 1_455 S
C984 H975 0.950 . S
C984 C983 1.398 . S
C984 C985 1.391 . S
C985 H973 0.950 . S
C985 C981 1.393 . S
C985 C984 1.391 . S
C986 H976 0.950 . S
C986 C987 1.386 . S
C986 C988 1.391 . S
C987 C986 1.386 . S
C987 C991 1.393 . S
C988 H977 0.950 . S
C988 C986 1.391 . S
C988 C989 1.400 . S
C989 C983 1.491 1_655 S
C989 C988 1.400 . S
C989 C990 1.398 . S
C990 H978 0.950 . S
C990 C989 1.398 . S
C990 C991 1.391 . S
C991 H979 0.950 . S
C991 C987 1.393 . S
C991 C990 1.391 . S
H992 C1000 0.950 . S
H993 C1005 0.950 . S
H994 C1002 0.950 . S
H995 C1004 0.950 . S
H996 C1006 0.950 . S
H997 C1008 0.950 . S
H998 C1010 0.950 . S
H999 C1011 0.950 . S
C1000 H992 0.950 . S
C1000 C1001 1.386 . S
C1000 C1002 1.391 . S
C1001 C1000 1.386 . S
C1001 C1005 1.393 1_554 S
C1002 H994 0.950 . S
C1002 C1000 1.391 . S
C1002 C1003 1.400 . S
C1003 C1002 1.400 . S
C1003 C1004 1.398 1_554 S
C1003 C1009 1.491 1_544 S
C1004 H995 0.950 . S
C1004 C1003 1.398 1_556 S
C1004 C1005 1.391 . S
C1005 H993 0.950 . S
C1005 C1001 1.393 1_556 S
C1005 C1004 1.391 . S
C1006 H996 0.950 . S
C1006 C1007 1.386 . S
C1006 C1008 1.391 . S
C1007 C1006 1.386 . S
C1007 C1011 1.393 1_556 S
C1008 H997 0.950 . S
C1008 C1006 1.391 . S
C1008 C1009 1.400 . S
C1009 C1003 1.491 1_566 S
C1009 C1008 1.400 . S
C1009 C1010 1.398 1_556 S
C1010 H998 0.950 . S
C1010 C1009 1.398 1_554 S
C1010 C1011 1.391 . S
C1011 H999 0.950 . S
C1011 C1007 1.393 1_554 S
C1011 C1010 1.391 . S
H1012 C1020 0.950 . S
H1013 C1025 0.950 . S
H1014 C1022 0.950 . S
H1015 C1024 0.950 . S
H1016 C1026 0.950 . S
H1017 C1028 0.950 . S
H1018 C1030 0.950 . S
H1019 C1031 0.950 . S
C1020 H1012 0.950 . S
C1020 C1021 1.386 . S
C1020 C1022 1.391 . S
C1021 C1020 1.386 . S
C1021 C1025 1.393 . S
C1022 H1014 0.950 . S
C1022 C1020 1.391 . S
C1022 C1023 1.400 . S
C1023 C1022 1.400 . S
C1023 C1024 1.398 . S
C1023 C1029 1.491 1_565 S
C1024 H1015 0.950 . S
C1024 C1023 1.398 . S
C1024 C1025 1.391 . S
C1025 H1013 0.950 . S
C1025 C1021 1.393 . S
C1025 C1024 1.391 . S
C1026 H1016 0.950 . S
C1026 C1027 1.386 . S
C1026 C1028 1.391 . S
C1027 C1026 1.386 . S
C1027 C1031 1.393 . S
C1028 H1017 0.950 . S
C1028 C1026 1.391 . S
C1028 C1029 1.400 . S
C1029 C1023 1.491 1_545 S
C1029 C1028 1.400 . S
C1029 C1030 1.398 . S
C1030 H1018 0.950 . S
C1030 C1029 1.398 . S
C1030 C1031 1.391 . S
C1031 H1019 0.950 . S
C1031 C1027 1.393 . S
C1031 C1030 1.391 . S
H1032 C1040 0.950 . S
H1033 C1045 0.950 . S
H1034 C1042 0.950 . S
H1035 C1044 0.950 . S
H1036 C1046 0.950 . S
H1037 C1048 0.950 . S
H1038 C1050 0.950 . S
H1039 C1051 0.950 . S
C1040 H1032 0.950 . S
C1040 C1041 1.386 . S
C1040 C1042 1.391 . S
C1041 C1040 1.386 . S
C1041 C1045 1.393 1_554 S
C1042 H1034 0.950 . S
C1042 C1040 1.391 . S
C1042 C1043 1.400 . S
C1043 C1042 1.400 . S
C1043 C1044 1.398 1_554 S
C1043 C1049 1.491 1_544 S
C1044 H1035 0.950 . S
C1044 C1043 1.398 1_556 S
C1044 C1045 1.391 . S
C1045 H1033 0.950 . S
C1045 C1041 1.393 1_556 S
C1045 C1044 1.391 . S
C1046 H1036 0.950 . S
C1046 C1047 1.386 . S
C1046 C1048 1.391 . S
C1047 C1046 1.386 . S
C1047 C1051 1.393 1_556 S
C1048 H1037 0.950 . S
C1048 C1046 1.391 . S
C1048 C1049 1.400 . S
C1049 C1043 1.491 1_566 S
C1049 C1048 1.400 . S
C1049 C1050 1.398 1_556 S
C1050 H1038 0.950 . S
C1050 C1049 1.398 1_554 S
C1050 C1051 1.391 . S
C1051 H1039 0.950 . S
C1051 C1047 1.393 1_554 S
C1051 C1050 1.391 . S
H1052 C1060 0.950 . S
H1053 C1065 0.950 . S
H1054 C1062 0.950 . S
H1055 C1064 0.950 . S
H1056 C1066 0.950 . S
H1057 C1068 0.950 . S
H1058 C1070 0.950 . S
H1059 C1071 0.950 . S
C1060 H1052 0.950 . S
C1060 C1061 1.386 . S
C1060 C1062 1.391 . S
C1061 C1060 1.386 . S
C1061 C1065 1.393 . S
C1062 H1054 0.950 . S
C1062 C1060 1.391 . S
C1062 C1063 1.400 . S
C1063 C1062 1.400 . S
C1063 C1064 1.398 . S
C1063 C1069 1.491 1_545 S
C1064 H1055 0.950 . S
C1064 C1063 1.398 . S
C1064 C1065 1.391 . S
C1065 H1053 0.950 . S
C1065 C1061 1.393 . S
C1065 C1064 1.391 . S
C1066 H1056 0.950 . S
C1066 C1067 1.386 . S
C1066 C1068 1.391 . S
C1067 C1066 1.386 . S
C1067 C1071 1.393 . S
C1068 H1057 0.950 . S
C1068 C1066 1.391 . S
C1068 C1069 1.400 . S
C1069 C1063 1.491 1_565 S
C1069 C1068 1.400 . S
C1069 C1070 1.398 . S
C1070 H1058 0.950 . S
C1070 C1069 1.398 . S
C1070 C1071 1.391 . S
C1071 H1059 0.950 . S
C1071 C1067 1.393 . S
C1071 C1070 1.391 . S
H1072 C1080 0.950 . S
H1073 C1085 0.950 . S
H1074 C1082 0.950 1_556 S
H1075 C1084 0.950 . S
H1076 C1086 0.950 . S
H1077 C1088 0.950 1_554 S
H1078 C1090 0.950 . S
H1079 C1091 0.950 . S
C1080 H1072 0.950 . S
C1080 C1081 1.386 . S
C1080 C1082 1.391 . S
C1081 C1080 1.386 . S
C1081 C1085 1.393 . S
C1082 H1074 0.950 1_554 S
C1082 C1080 1.391 . S
C1082 C1083 1.400 . S
C1083 C1082 1.400 . S
C1083 C1084 1.398 . S
C1083 C1089 1.491 1_554 S
C1084 H1075 0.950 . S
C1084 C1083 1.398 . S
C1084 C1085 1.391 . S
C1085 H1073 0.950 . S
C1085 C1081 1.393 . S
C1085 C1084 1.391 . S
C1086 H1076 0.950 . S
C1086 C1087 1.386 . S
C1086 C1088 1.391 . S
C1087 C1086 1.386 . S
C1087 C1091 1.393 . S
C1088 H1077 0.950 1_556 S
C1088 C1086 1.391 . S
C1088 C1089 1.400 . S
C1089 C1083 1.491 1_556 S
C1089 C1088 1.400 . S
C1089 C1090 1.398 . S
C1090 H1078 0.950 . S
C1090 C1089 1.398 . S
C1090 C1091 1.391 . S
C1091 H1079 0.950 . S
C1091 C1087 1.393 . S
C1091 C1090 1.391 . S
H1092 C1100 0.950 . S
H1093 C1105 0.950 . S
H1094 C1102 0.950 . S
H1095 C1104 0.950 . S
H1096 C1106 0.950 . S
H1097 C1108 0.950 . S
H1098 C1110 0.950 . S
H1099 C1111 0.950 . S
C1100 H1092 0.950 . S
C1100 C1101 1.386 . S
C1100 C1102 1.391 . S
C1101 C1100 1.386 . S
C1101 C1105 1.393 . S
C1102 H1094 0.950 . S
C1102 C1100 1.391 . S
C1102 C1103 1.400 . S
C1103 C1102 1.400 . S
C1103 C1104 1.398 . S
C1103 C1109 1.491 . S
C1104 H1095 0.950 . S
C1104 C1103 1.398 . S
C1104 C1105 1.391 . S
C1105 H1093 0.950 . S
C1105 C1101 1.393 . S
C1105 C1104 1.391 . S
C1106 H1096 0.950 . S
C1106 C1107 1.386 . S
C1106 C1108 1.391 . S
C1107 C1106 1.386 . S
C1107 C1111 1.393 . S
C1108 H1097 0.950 . S
C1108 C1106 1.391 . S
C1108 C1109 1.400 . S
C1109 C1103 1.491 . S
C1109 C1108 1.400 . S
C1109 C1110 1.398 . S
C1110 H1098 0.950 . S
C1110 C1109 1.398 . S
C1110 C1111 1.391 . S
C1111 H1099 0.950 . S
C1111 C1107 1.393 . S
C1111 C1110 1.391 . S
H1112 C1120 0.950 . S
H1113 C1125 0.950 1_554 S
H1114 C1122 0.950 . S
H1115 C1124 0.950 . S
H1116 C1126 0.950 . S
H1117 C1128 0.950 . S
H1118 C1130 0.950 . S
H1119 C1131 0.950 1_556 S
C1120 H1112 0.950 . S
C1120 C1121 1.386 . S
C1120 C1122 1.391 . S
C1121 C1120 1.386 . S
C1121 C1125 1.393 . S
C1122 H1114 0.950 . S
C1122 C1120 1.391 . S
C1122 C1123 1.400 . S
C1123 C1122 1.400 . S
C1123 C1124 1.398 1_556 S
C1123 C1129 1.491 1_556 S
C1124 H1115 0.950 . S
C1124 C1123 1.398 1_554 S
C1124 C1125 1.391 1_554 S
C1125 H1113 0.950 1_556 S
C1125 C1121 1.393 . S
C1125 C1124 1.391 1_556 S
C1126 H1116 0.950 . S
C1126 C1127 1.386 . S
C1126 C1128 1.391 . S
C1127 C1126 1.386 . S
C1127 C1131 1.393 . S
C1128 H1117 0.950 . S
C1128 C1126 1.391 . S
C1128 C1129 1.400 . S
C1129 C1123 1.491 1_554 S
C1129 C1128 1.400 . S
C1129 C1130 1.398 1_554 S
C1130 H1118 0.950 . S
C1130 C1129 1.398 1_556 S
C1130 C1131 1.391 1_556 S
C1131 H1119 0.950 1_554 S
C1131 C1127 1.393 . S
C1131 C1130 1.391 1_554 S
H1132 C1140 0.950 . S
H1133 C1145 0.950 . S
H1134 C1142 0.950 . S
H1135 C1144 0.950 . S
H1136 C1146 0.950 . S
H1137 C1148 0.950 . S
H1138 C1150 0.950 . S
H1139 C1151 0.950 . S
C1140 H1132 0.950 . S
C1140 C1141 1.386 . S
C1140 C1142 1.391 . S
C1141 C1140 1.386 . S
C1141 C1145 1.393 . S
C1142 H1134 0.950 . S
C1142 C1140 1.391 . S
C1142 C1143 1.400 . S
C1143 C1142 1.400 . S
C1143 C1144 1.398 . S
C1143 C1149 1.491 . S
C1144 H1135 0.950 . S
C1144 C1143 1.398 . S
C1144 C1145 1.391 . S
C1145 H1133 0.950 . S
C1145 C1141 1.393 . S
C1145 C1144 1.391 . S
C1146 H1136 0.950 . S
C1146 C1147 1.386 . S
C1146 C1148 1.391 . S
C1147 C1146 1.386 . S
C1147 C1151 1.393 . S
C1148 H1137 0.950 . S
C1148 C1146 1.391 . S
C1148 C1149 1.400 . S
C1149 C1143 1.491 . S
C1149 C1148 1.400 . S
C1149 C1150 1.398 . S
C1150 H1138 0.950 . S
C1150 C1149 1.398 . S
C1150 C1151 1.391 . S
C1151 H1139 0.950 . S
C1151 C1147 1.393 . S
C1151 C1150 1.391 . S
H1152 C1160 0.950 . S
H1153 C1165 0.950 . S
H1154 C1162 0.950 . S
H1155 C1164 0.950 . S
H1156 C1166 0.950 . S
H1157 C1168 0.950 . S
H1158 C1170 0.950 . S
H1159 C1171 0.950 . S
C1160 H1152 0.950 . S
C1160 C1161 1.386 . S
C1160 C1162 1.391 . S
C1161 C1160 1.386 . S
C1161 C1165 1.393 . S
C1162 H1154 0.950 . S
C1162 C1160 1.391 . S
C1162 C1163 1.400 . S
C1163 C1162 1.400 . S
C1163 C1164 1.398 . S
C1163 C1169 1.491 1_554 S
C1164 H1155 0.950 . S
C1164 C1163 1.398 . S
C1164 C1165 1.391 . S
C1165 H1153 0.950 . S
C1165 C1161 1.393 . S
C1165 C1164 1.391 . S
C1166 H1156 0.950 . S
C1166 C1167 1.386 . S
C1166 C1168 1.391 . S
C1167 C1166 1.386 . S
C1167 C1171 1.393 . S
C1168 H1157 0.950 . S
C1168 C1166 1.391 . S
C1168 C1169 1.400 . S
C1169 C1163 1.491 1_556 S
C1169 C1168 1.400 . S
C1169 C1170 1.398 . S
C1170 H1158 0.950 . S
C1170 C1169 1.398 . S
C1170 C1171 1.391 . S
C1171 H1159 0.950 . S
C1171 C1167 1.393 . S
C1171 C1170 1.391 . S
H1172 C1180 0.950 . S
H1173 C1185 0.950 . S
H1174 C1182 0.950 . S
H1175 C1184 0.950 . S
H1176 C1186 0.950 . S
H1177 C1188 0.950 . S
H1178 C1190 0.950 . S
H1179 C1191 0.950 . S
C1180 H1172 0.950 . S
C1180 C1181 1.386 . S
C1180 C1182 1.391 . S
C1181 C1180 1.386 . S
C1181 C1185 1.393 . S
C1182 H1174 0.950 . S
C1182 C1180 1.391 . S
C1182 C1183 1.400 . S
C1183 C1182 1.400 . S
C1183 C1184 1.398 . S
C1183 C1189 1.491 . S
C1184 H1175 0.950 . S
C1184 C1183 1.398 . S
C1184 C1185 1.391 . S
C1185 H1173 0.950 . S
C1185 C1181 1.393 . S
C1185 C1184 1.391 . S
C1186 H1176 0.950 . S
C1186 C1187 1.386 . S
C1186 C1188 1.391 . S
C1187 C1186 1.386 . S
C1187 C1191 1.393 . S
C1188 H1177 0.950 . S
C1188 C1186 1.391 . S
C1188 C1189 1.400 . S
C1189 C1183 1.491 . S
C1189 C1188 1.400 . S
C1189 C1190 1.398 . S
C1190 H1178 0.950 . S
C1190 C1189 1.398 . S
C1190 C1191 1.391 . S
C1191 H1179 0.950 . S
C1191 C1187 1.393 . S
C1191 C1190 1.391 . S
H1192 C1200 0.951 . S
H1193 C1205 0.950 . S
H1194 C1202 0.950 . S
H1195 C1204 0.950 . S
H1196 C1206 0.948 1_556 S
H1197 C1208 0.950 . S
H1198 C1210 0.950 . S
H1199 C1211 0.950 . S
C1200 H1192 0.951 . S
C1200 C1201 1.383 1_554 S
C1200 C1202 1.392 . S
C1201 C1200 1.383 1_556 S
C1201 C1205 1.393 . S
C1202 H1194 0.950 . S
C1202 C1200 1.392 . S
C1202 C1203 1.400 1_554 S
C1203 C1202 1.400 1_556 S
C1203 C1204 1.398 . S
C1203 C1209 1.491 1_556 S
C1204 H1195 0.950 . S
C1204 C1203 1.398 . S
C1204 C1205 1.391 . S
C1205 H1193 0.950 . S
C1205 C1201 1.393 . S
C1205 C1204 1.391 . S
C1206 H1196 0.948 1_554 S
C1206 C1207 1.388 . S
C1206 C1208 1.390 1_554 S
C1207 C1206 1.388 . S
C1207 C1211 1.393 . S
C1208 H1197 0.950 . S
C1208 C1206 1.390 1_556 S
C1208 C1209 1.400 1_556 S
C1209 C1203 1.491 1_554 S
C1209 C1208 1.400 1_554 S
C1209 C1210 1.398 . S
C1210 H1198 0.950 . S
C1210 C1209 1.398 . S
C1210 C1211 1.391 . S
C1211 H1199 0.950 . S
C1211 C1207 1.393 . S
C1211 C1210 1.391 . S
H1212 C1220 0.950 . S
H1213 C1225 0.950 . S
H1214 C1222 0.950 . S
H1215 C1224 0.950 . S
H1216 C1226 0.950 . S
H1217 C1228 0.950 . S
H1218 C1230 0.950 . S
H1219 C1231 0.950 . S
C1220 H1212 0.950 . S
C1220 C1221 1.386 . S
C1220 C1222 1.391 . S
C1221 C1220 1.386 . S
C1221 C1225 1.393 . S
C1222 H1214 0.950 . S
C1222 C1220 1.391 . S
C1222 C1223 1.400 . S
C1223 C1222 1.400 . S
C1223 C1224 1.398 . S
C1223 C1229 1.491 . S
C1224 H1215 0.950 . S
C1224 C1223 1.398 . S
C1224 C1225 1.391 . S
C1225 H1213 0.950 . S
C1225 C1221 1.393 . S
C1225 C1224 1.391 . S
C1226 H1216 0.950 . S
C1226 C1227 1.386 . S
C1226 C1228 1.391 . S
C1227 C1226 1.386 . S
C1227 C1231 1.393 . S
C1228 H1217 0.950 . S
C1228 C1226 1.391 . S
C1228 C1229 1.400 . S
C1229 C1223 1.491 . S
C1229 C1228 1.400 . S
C1229 C1230 1.398 . S
C1230 H1218 0.950 . S
C1230 C1229 1.398 . S
C1230 C1231 1.391 . S
C1231 H1219 0.950 . S
C1231 C1227 1.393 . S
C1231 C1230 1.391 . S
H1232 C1240 0.950 . S
H1233 C1245 0.950 . S
H1234 C1242 0.950 . S
H1235 C1244 0.950 . S
H1236 C1246 0.950 . S
H1237 C1248 0.950 . S
H1238 C1250 0.950 . S
H1239 C1251 0.950 . S
C1240 H1232 0.950 . S
C1240 C1241 1.386 . S
C1240 C1242 1.391 . S
C1241 C1240 1.386 . S
C1241 C1245 1.393 . S
C1242 H1234 0.950 . S
C1242 C1240 1.391 . S
C1242 C1243 1.400 . S
C1243 C1242 1.400 . S
C1243 C1244 1.398 . S
C1243 C1249 1.491 1_556 S
C1244 H1235 0.950 . S
C1244 C1243 1.398 . S
C1244 C1245 1.391 . S
C1245 H1233 0.950 . S
C1245 C1241 1.393 . S
C1245 C1244 1.391 . S
C1246 H1236 0.950 . S
C1246 C1247 1.386 . S
C1246 C1248 1.391 . S
C1247 C1246 1.386 . S
C1247 C1251 1.393 . S
C1248 H1237 0.950 . S
C1248 C1246 1.391 . S
C1248 C1249 1.400 . S
C1249 C1243 1.491 1_554 S
C1249 C1248 1.400 . S
C1249 C1250 1.398 . S
C1250 H1238 0.950 . S
C1250 C1249 1.398 . S
C1250 C1251 1.391 . S
C1251 H1239 0.950 . S
C1251 C1247 1.393 . S
C1251 C1250 1.391 . S
H1252 C1260 0.950 . S
H1253 C1265 0.950 . S
H1254 C1262 0.950 . S
H1255 C1264 0.950 . S
H1256 C1266 0.950 . S
H1257 C1268 0.950 . S
H1258 C1270 0.950 . S
H1259 C1271 0.950 . S
C1260 H1252 0.950 . S
C1260 C1261 1.386 . S
C1260 C1262 1.391 . S
C1261 C1260 1.386 . S
C1261 C1265 1.393 . S
C1262 H1254 0.950 . S
C1262 C1260 1.391 . S
C1262 C1263 1.400 . S
C1263 C1262 1.400 . S
C1263 C1264 1.398 . S
C1263 C1269 1.491 . S
C1264 H1255 0.950 . S
C1264 C1263 1.398 . S
C1264 C1265 1.391 . S
C1265 H1253 0.950 . S
C1265 C1261 1.393 . S
C1265 C1264 1.391 . S
C1266 H1256 0.950 . S
C1266 C1267 1.386 . S
C1266 C1268 1.391 . S
C1267 C1266 1.386 . S
C1267 C1271 1.393 . S
C1268 H1257 0.950 . S
C1268 C1266 1.391 . S
C1268 C1269 1.400 . S
C1269 C1263 1.491 . S
C1269 C1268 1.400 . S
C1269 C1270 1.398 . S
C1270 H1258 0.950 . S
C1270 C1269 1.398 . S
C1270 C1271 1.391 . S
C1271 H1259 0.950 . S
C1271 C1267 1.393 . S
C1271 C1270 1.391 . S
H1272 C1280 0.950 . S
H1273 C1285 0.950 . S
H1274 C1282 0.950 . S
H1275 C1284 0.950 . S
H1276 C1286 0.950 . S
H1277 C1288 0.950 . S
H1278 C1290 0.950 . S
H1279 C1291 0.950 . S
C1280 H1272 0.950 . S
C1280 C1281 1.386 . S
C1280 C1282 1.391 . S
C1281 C1280 1.386 . S
C1281 C1285 1.393 . S
C1282 H1274 0.950 . S
C1282 C1280 1.391 . S
C1282 C1283 1.400 . S
C1283 C1282 1.400 . S
C1283 C1284 1.398 1_556 S
C1283 C1289 1.491 1_556 S
C1284 H1275 0.950 . S
C1284 C1283 1.398 1_554 S
C1284 C1285 1.391 1_554 S
C1285 H1273 0.950 . S
C1285 C1281 1.393 . S
C1285 C1284 1.391 1_556 S
C1286 H1276 0.950 . S
C1286 C1287 1.386 . S
C1286 C1288 1.391 . S
C1287 C1286 1.386 . S
C1287 C1291 1.393 . S
C1288 H1277 0.950 . S
C1288 C1286 1.391 . S
C1288 C1289 1.400 . S
C1289 C1283 1.491 1_554 S
C1289 C1288 1.400 . S
C1289 C1290 1.398 1_554 S
C1290 H1278 0.950 . S
C1290 C1289 1.398 1_556 S
C1290 C1291 1.391 1_556 S
C1291 H1279 0.950 . S
C1291 C1287 1.393 . S
C1291 C1290 1.391 1_554 S
H1292 C1300 0.950 . S
H1293 C1305 0.950 . S
H1294 C1302 0.950 . S
H1295 C1304 0.950 . S
H1296 C1306 0.950 . S
H1297 C1308 0.950 . S
H1298 C1310 0.950 . S
H1299 C1311 0.950 . S
C1300 H1292 0.950 . S
C1300 C1301 1.386 . S
C1300 C1302 1.391 . S
C1301 C1300 1.386 . S
C1301 C1305 1.393 . S
C1302 H1294 0.950 . S
C1302 C1300 1.391 . S
C1302 C1303 1.400 . S
C1303 C1302 1.400 . S
C1303 C1304 1.398 . S
C1303 C1309 1.491 . S
C1304 H1295 0.950 . S
C1304 C1303 1.398 . S
C1304 C1305 1.391 . S
C1305 H1293 0.950 . S
C1305 C1301 1.393 . S
C1305 C1304 1.391 . S
C1306 H1296 0.950 . S
C1306 C1307 1.386 . S
C1306 C1308 1.391 . S
C1307 C1306 1.386 . S
C1307 C1311 1.393 . S
C1308 H1297 0.950 . S
C1308 C1306 1.391 . S
C1308 C1309 1.400 . S
C1309 C1303 1.491 . S
C1309 C1308 1.400 . S
C1309 C1310 1.398 . S
C1310 H1298 0.950 . S
C1310 C1309 1.398 . S
C1310 C1311 1.391 . S
C1311 H1299 0.950 . S
C1311 C1307 1.393 . S
C1311 C1310 1.391 . S
C361 C15 1.377 . S
C367 C73 1.388 . S
C381 C59 1.377 . S
C387 C29 1.387 . S
C401 C169 1.398 . S
C407 C109 1.389 . S
C421 C117 1.389 . S
C427 C153 1.400 . S
C441 C257 1.388 . S
C447 C191 1.382 . S
C461 C235 1.388 . S
C467 C205 1.383 . S
C481 C285 1.391 . S
C487 C345 1.396 . S
C501 C323 1.391 . S
C507 C293 1.400 . S
C521 C8 1.525 . S
C527 C351 1.581 . S
C541 C32 1.539 . S
C547 C329 1.581 . S
C561 C301 1.581 . S
C567 C52 1.532 . S
C581 C271 1.581 . S
C587 C76 1.536 . S
C601 C98 1.537 . S
C607 C249 1.586 . S
C621 C118 1.541 . S
C627 C227 1.586 . S
C641 C219 1.585 . S
C647 C142 1.536 . S
C661 C183 1.584 . S
C667 C172 1.530 . S
C681 C184 1.534 . S
C687 C175 1.581 . S
C701 C208 1.534 . S
C707 C139 1.581 . S
C721 C228 1.539 . S
C727 C125 1.581 . S
C741 C250 1.518 . S
C747 C95 1.581 . S
C761 C87 1.586 . S
C767 C274 1.547 . S
C781 C51 1.587 . S
C787 C294 1.548 . S
C801 C326 1.540 . S
C807 C43 1.586 . S
C821 C348 1.547 . S
C827 C7 1.586 . S
C841 C18 1.439 . S
C847 C150 1.435 . S
C861 C30 1.436 . S
C867 C162 1.437 . S
C881 C106 1.439 . S
C887 C62 1.436 . S
C901 C74 1.439 . S
C907 C120 1.434 . S
C921 C194 1.436 . S
C927 C316 1.437 . S
C941 C206 1.438 . S
C947 C338 1.437 . S
C961 C238 1.439 . S
C967 C282 1.434 . S
C981 C296 1.437 . S
C987 C260 1.436 . S
C1001 C10 1.540 . S
C1007 C54 1.535 . S
C1021 C40 1.535 . S
C1027 C84 1.539 . S
C1041 C140 1.532 . S
C1047 C96 1.537 . S
C1061 C128 1.533 . S
C1067 C164 1.535 . S
C1081 C186 1.538 . S
C1087 C230 1.539 . S
C1101 C252 1.539 . S
C1107 C216 1.538 . S
C1121 C272 1.533 . S
C1127 C318 1.536 . S
C1141 C304 1.532 . S
C1147 C340 1.537 . S
C1161 C21 0.870 . S
C1167 C279 0.873 . S
C1181 C37 0.905 . S
C1187 C307 0.907 . S
C1201 C65 0.902 . S
C1207 C315 0.904 . S
C1221 C81 0.886 . S
C1227 C337 0.888 . S
C1241 C103 0.904 . S
C1247 C197 0.901 . S
C1261 C213 0.861 . S
C1267 C131 0.866 . S
C1281 C241 0.859 . S
C1287 C147 0.864 . S
C1301 C263 0.906 . S
C1307 C161 0.908 . S
