# Generated by pormake.
# Topology umk, (4)-cn, num edge types: 1
# Building blocks:
#     Node 0, Type 0, BuildingBlock: TATPOV_clean_sbu_0, # of connection points: 4
#     Node 1, Type 0, BuildingBlock: TATPOV_clean_sbu_0, # of connection points: 4
#     Node 2, Type 0, BuildingBlock: TATPOV_clean_sbu_0, # of connection points: 4
#     Node 3, Type 0, BuildingBlock: TATPOV_clean_sbu_0, # of connection points: 4
#     Node 4, Type 0, BuildingBlock: TATPOV_clean_sbu_0, # of connection points: 4
#     Node 5, Type 0, BuildingBlock: TATPOV_clean_sbu_0, # of connection points: 4
#     Node 6, Type 0, BuildingBlock: TATPOV_clean_sbu_0, # of connection points: 4
#     Node 7, Type 0, BuildingBlock: TATPOV_clean_sbu_0, # of connection points: 4
#     Node 8, Type 0, BuildingBlock: TATPOV_clean_sbu_0, # of connection points: 4
#     Node 9, Type 0, BuildingBlock: TATPOV_clean_sbu_0, # of connection points: 4
#     Node 10, Type 0, BuildingBlock: TATPOV_clean_sbu_0, # of connection points: 4
#     Node 11, Type 0, BuildingBlock: TATPOV_clean_sbu_0, # of connection points: 4
#     Node 12, Type 0, BuildingBlock: TATPOV_clean_sbu_0, # of connection points: 4
#     Node 13, Type 0, BuildingBlock: TATPOV_clean_sbu_0, # of connection points: 4
#     Node 14, Type 0, BuildingBlock: TATPOV_clean_sbu_0, # of connection points: 4
#     Node 15, Type 0, BuildingBlock: TATPOV_clean_sbu_0, # of connection points: 4
#     Node 16, Type 0, BuildingBlock: TATPOV_clean_sbu_0, # of connection points: 4
#     Node 17, Type 0, BuildingBlock: TATPOV_clean_sbu_0, # of connection points: 4
#     Node 18, Type 0, BuildingBlock: TATPOV_clean_sbu_0, # of connection points: 4
#     Node 19, Type 0, BuildingBlock: TATPOV_clean_sbu_0, # of connection points: 4
#     Node 20, Type 0, BuildingBlock: TATPOV_clean_sbu_0, # of connection points: 4
#     Node 21, Type 0, BuildingBlock: TATPOV_clean_sbu_0, # of connection points: 4
#     Node 22, Type 0, BuildingBlock: TATPOV_clean_sbu_0, # of connection points: 4
#     Node 23, Type 0, BuildingBlock: TATPOV_clean_sbu_0, # of connection points: 4
#     Edge 24, Type (0, 0), BuildingBlock: EZIPEK_clean_linker_0, # of connection points: 2
#     Edge 25, Type (0, 0), BuildingBlock: EZIPEK_clean_linker_0, # of connection points: 2
#     Edge 26, Type (0, 0), BuildingBlock: EZIPEK_clean_linker_0, # of connection points: 2
#     Edge 27, Type (0, 0), BuildingBlock: EZIPEK_clean_linker_0, # of connection points: 2
#     Edge 28, Type (0, 0), BuildingBlock: EZIPEK_clean_linker_0, # of connection points: 2
#     Edge 29, Type (0, 0), BuildingBlock: EZIPEK_clean_linker_0, # of connection points: 2
#     Edge 30, Type (0, 0), BuildingBlock: EZIPEK_clean_linker_0, # of connection points: 2
#     Edge 31, Type (0, 0), BuildingBlock: EZIPEK_clean_linker_0, # of connection points: 2
#     Edge 32, Type (0, 0), BuildingBlock: EZIPEK_clean_linker_0, # of connection points: 2
#     Edge 33, Type (0, 0), BuildingBlock: EZIPEK_clean_linker_0, # of connection points: 2
#     Edge 34, Type (0, 0), BuildingBlock: EZIPEK_clean_linker_0, # of connection points: 2
#     Edge 35, Type (0, 0), BuildingBlock: EZIPEK_clean_linker_0, # of connection points: 2
#     Edge 36, Type (0, 0), BuildingBlock: EZIPEK_clean_linker_0, # of connection points: 2
#     Edge 37, Type (0, 0), BuildingBlock: EZIPEK_clean_linker_0, # of connection points: 2
#     Edge 38, Type (0, 0), BuildingBlock: EZIPEK_clean_linker_0, # of connection points: 2
#     Edge 39, Type (0, 0), BuildingBlock: EZIPEK_clean_linker_0, # of connection points: 2
#     Edge 40, Type (0, 0), BuildingBlock: EZIPEK_clean_linker_0, # of connection points: 2
#     Edge 41, Type (0, 0), BuildingBlock: EZIPEK_clean_linker_0, # of connection points: 2
#     Edge 42, Type (0, 0), BuildingBlock: EZIPEK_clean_linker_0, # of connection points: 2
#     Edge 43, Type (0, 0), BuildingBlock: EZIPEK_clean_linker_0, # of connection points: 2
#     Edge 44, Type (0, 0), BuildingBlock: EZIPEK_clean_linker_0, # of connection points: 2
#     Edge 45, Type (0, 0), BuildingBlock: EZIPEK_clean_linker_0, # of connection points: 2
#     Edge 46, Type (0, 0), BuildingBlock: EZIPEK_clean_linker_0, # of connection points: 2
#     Edge 47, Type (0, 0), BuildingBlock: EZIPEK_clean_linker_0, # of connection points: 2
#     Edge 48, Type (0, 0), BuildingBlock: EZIPEK_clean_linker_0, # of connection points: 2
#     Edge 49, Type (0, 0), BuildingBlock: EZIPEK_clean_linker_0, # of connection points: 2
#     Edge 50, Type (0, 0), BuildingBlock: EZIPEK_clean_linker_0, # of connection points: 2
#     Edge 51, Type (0, 0), BuildingBlock: EZIPEK_clean_linker_0, # of connection points: 2
#     Edge 52, Type (0, 0), BuildingBlock: EZIPEK_clean_linker_0, # of connection points: 2
#     Edge 53, Type (0, 0), BuildingBlock: EZIPEK_clean_linker_0, # of connection points: 2
#     Edge 54, Type (0, 0), BuildingBlock: EZIPEK_clean_linker_0, # of connection points: 2
#     Edge 55, Type (0, 0), BuildingBlock: EZIPEK_clean_linker_0, # of connection points: 2
#     Edge 56, Type (0, 0), BuildingBlock: EZIPEK_clean_linker_0, # of connection points: 2
#     Edge 57, Type (0, 0), BuildingBlock: EZIPEK_clean_linker_0, # of connection points: 2
#     Edge 58, Type (0, 0), BuildingBlock: EZIPEK_clean_linker_0, # of connection points: 2
#     Edge 59, Type (0, 0), BuildingBlock: EZIPEK_clean_linker_0, # of connection points: 2
#     Edge 60, Type (0, 0), BuildingBlock: EZIPEK_clean_linker_0, # of connection points: 2
#     Edge 61, Type (0, 0), BuildingBlock: EZIPEK_clean_linker_0, # of connection points: 2
#     Edge 62, Type (0, 0), BuildingBlock: EZIPEK_clean_linker_0, # of connection points: 2
#     Edge 63, Type (0, 0), BuildingBlock: EZIPEK_clean_linker_0, # of connection points: 2
#     Edge 64, Type (0, 0), BuildingBlock: EZIPEK_clean_linker_0, # of connection points: 2
#     Edge 65, Type (0, 0), BuildingBlock: EZIPEK_clean_linker_0, # of connection points: 2
#     Edge 66, Type (0, 0), BuildingBlock: EZIPEK_clean_linker_0, # of connection points: 2
#     Edge 67, Type (0, 0), BuildingBlock: EZIPEK_clean_linker_0, # of connection points: 2
#     Edge 68, Type (0, 0), BuildingBlock: EZIPEK_clean_linker_0, # of connection points: 2
#     Edge 69, Type (0, 0), BuildingBlock: EZIPEK_clean_linker_0, # of connection points: 2
#     Edge 70, Type (0, 0), BuildingBlock: EZIPEK_clean_linker_0, # of connection points: 2
#     Edge 71, Type (0, 0), BuildingBlock: EZIPEK_clean_linker_0, # of connection points: 2
# Relax obj value: 0.093
# Max RMSD: 0.114
# Mean RMSD: 0.114
data_MOF--net-umk--node1-TATPOV_clean_sbu_0--edge1-EZIPEK_clean_linker_0
_symmetry_space_group_name_H-M    P1
_symmetry_Int_Tables_number       1
_symmetry_cell_setting            triclinic
loop_
_symmetry_equiv_pos_as_xyz
'x, y, z'
_cell_length_a     48.077112
_cell_length_b     48.013382
_cell_length_c     32.063502
_cell_angle_alpha  90.031512
_cell_angle_beta   89.966071
_cell_angle_gamma 120.08485
loop_
_atom_site_label
_atom_site_type_symbol
_atom_site_fract_x
_atom_site_fract_y
_atom_site_fract_z
_atom_type_partial_charge
Zn0 Zn 0.37163 0.47836 0.11394 0.0
Zn1 Zn 0.31874 0.45802 0.06909 0.0
O2 O 0.30312 0.46112 0.12752 0.0
O3 O 0.34824 0.48217 0.16343 0.0
O4 O 0.27952 0.44403 0.03457 0.0
O5 O 0.39637 0.5153 0.07491 0.0
O6 O 0.35121 0.50114 0.04164 0.0
C7 C 0.31835 0.47181 0.16159 0.0
C8 C 0.34948 0.4161 0.07849 0.0
O9 O 0.32824 0.42091 0.06175 0.0
O10 O 0.37017 0.4366 0.10309 0.0
C11 C 0.25386 0.41756 0.04119 0.0
O12 O 0.25297 0.39804 0.07054 0.0
C13 C 0.38129 0.5202 0.0462 0.0
Zn14 Zn 0.88725 0.37155 0.62569 0.0
Zn15 Zn 0.85271 0.32017 0.5774 0.0
O16 O 0.83062 0.30535 0.63454 0.0
O17 O 0.85833 0.34836 0.67366 0.0
O18 O 0.82573 0.28204 0.54171 0.0
O19 O 0.87802 0.39912 0.58789 0.0
O20 O 0.85003 0.35676 0.54763 0.0
C21 C 0.83582 0.31958 0.66954 0.0
C22 C 0.92393 0.34491 0.58964 0.0
O23 O 0.89731 0.32468 0.57307 0.0
O24 O 0.92574 0.36664 0.61375 0.0
C25 C 0.82398 0.25521 0.5489 0.0
O26 O 0.84081 0.25262 0.57936 0.0
C27 C 0.86132 0.38652 0.55555 0.0
Zn28 Zn 0.50303 0.88601 0.13511 0.0
Zn29 Zn 0.52704 0.86002 0.08259 0.0
O30 O 0.51885 0.83307 0.13568 0.0
O31 O 0.49795 0.85367 0.17824 0.0
O32 O 0.54237 0.83835 0.04329 0.0
O33 O 0.46708 0.87677 0.09588 0.0
O34 O 0.48772 0.85653 0.05203 0.0
C35 C 0.50696 0.8335 0.17092 0.0
C36 C 0.56729 0.93074 0.10569 0.0
O37 O 0.56465 0.90641 0.08625 0.0
O38 O 0.54475 0.92807 0.12889 0.0
C39 C 0.56898 0.83928 0.0486 0.0
O40 O 0.58811 0.85636 0.07921 0.0
C41 C 0.46651 0.86404 0.06113 0.0
Zn42 Zn 0.62872 0.52374 0.61133 0.0
Zn43 Zn 0.68198 0.54441 0.56745 0.0
O44 O 0.69683 0.54085 0.62621 0.0
O45 O 0.65148 0.52006 0.66157 0.0
O46 O 0.7221 0.55924 0.5345 0.0
O47 O 0.60477 0.48666 0.57232 0.0
O48 O 0.65011 0.50123 0.53921 0.0
C49 C 0.68135 0.53018 0.66011 0.0
C50 C 0.65031 0.58568 0.57542 0.0
O51 O 0.67208 0.58126 0.55955 0.0
O52 O 0.62949 0.56507 0.59979 0.0
C53 C 0.74817 0.58421 0.54485 0.0
O54 O 0.74879 0.60171 0.57673 0.0
C55 C 0.62006 0.48193 0.54369 0.0
Zn56 Zn 0.09991 0.6217 0.11039 0.0
Zn57 Zn 0.13073 0.67356 0.06342 0.0
O58 O 0.15483 0.68925 0.11888 0.0
O59 O 0.13137 0.6449 0.15642 0.0
O60 O 0.15445 0.71289 0.02846 0.0
O61 O 0.10831 0.59579 0.06873 0.0
O62 O 0.13817 0.64 0.03277 0.0
C63 C 0.15237 0.67432 0.15262 0.0
C64 C 0.05882 0.64448 0.08197 0.0
O65 O 0.0841 0.66511 0.06294 0.0
O66 O 0.05955 0.62385 0.10573 0.0
C67 C 0.15489 0.73873 0.03833 0.0
O68 O 0.13797 0.73912 0.07028 0.0
C69 C 0.12661 0.60987 0.03808 0.0
Zn70 Zn 0.47225 0.10185 0.62199 0.0
Zn71 Zn 0.45053 0.13055 0.57068 0.0
O72 O 0.45944 0.15659 0.6248 0.0
O73 O 0.47894 0.13395 0.66625 0.0
O74 O 0.43713 0.1546 0.53308 0.0
O75 O 0.50766 0.11001 0.58217 0.0
O76 O 0.48938 0.13341 0.53984 0.0
C77 C 0.47092 0.15496 0.65981 0.0
C78 C 0.40752 0.06003 0.59198 0.0
O79 O 0.41161 0.08484 0.57235 0.0
O80 O 0.4293 0.06139 0.61553 0.0
C81 C 0.41224 0.15653 0.54056 0.0
O82 O 0.39336 0.1405 0.5719 0.0
C83 C 0.50941 0.12421 0.54824 0.0
Zn84 Zn 0.51507 0.62764 0.86863 0.0
Zn85 Zn 0.53393 0.67988 0.91408 0.0
O86 O 0.52995 0.69541 0.85595 0.0
O87 O 0.50961 0.65043 0.81978 0.0
O88 O 0.54659 0.71865 0.9493 0.0
O89 O 0.47883 0.60139 0.9078 0.0
O90 O 0.49147 0.64601 0.94172 0.0
C91 C 0.51916 0.6802 0.82188 0.0
C92 C 0.5777 0.65138 0.9032 0.0
O93 O 0.57208 0.6719 0.92063 0.0
O94 O 0.55757 0.63061 0.87835 0.0
C95 C 0.57175 0.74547 0.94227 0.0
O96 O 0.5912 0.74821 0.91175 0.0
C97 C 0.47337 0.61575 0.93697 0.0
Zn98 Zn 0.88085 0.50806 0.35752 0.0
Zn99 Zn 0.8594 0.53577 0.41053 0.0
O100 O 0.83258 0.52907 0.35763 0.0
O101 O 0.84817 0.50336 0.31549 0.0
O102 O 0.84003 0.5538 0.4494 0.0
O103 O 0.87137 0.47279 0.39804 0.0
O104 O 0.85398 0.49595 0.44217 0.0
C105 C 0.83056 0.51543 0.32288 0.0
C106 C 0.92919 0.572 0.38392 0.0
O107 O 0.90654 0.57105 0.40557 0.0
O108 O 0.92414 0.54877 0.36031 0.0
C109 C 0.84478 0.58219 0.44588 0.0
O110 O 0.86493 0.6018 0.41772 0.0
C111 C 0.85994 0.47359 0.43324 0.0
Zn112 Zn 0.36811 0.88639 0.86109 0.0
Zn113 Zn 0.31692 0.86066 0.91135 0.0
O114 O 0.29963 0.83417 0.85758 0.0
O115 O 0.3423 0.85413 0.8171 0.0
O116 O 0.27853 0.83837 0.94828 0.0
O117 O 0.39371 0.87723 0.90225 0.0
O118 O 0.35159 0.85661 0.9441 0.0
C119 C 0.31282 0.8343 0.82317 0.0
C120 C 0.34822 0.93134 0.88837 0.0
O121 O 0.32616 0.90721 0.90774 0.0
O122 O 0.36828 0.92839 0.86592 0.0
C123 C 0.25301 0.83937 0.94179 0.0
O124 O 0.25209 0.85757 0.91186 0.0
C125 C 0.38055 0.86419 0.93645 0.0
Zn126 Zn 0.4842 0.37598 0.36819 0.0
Zn127 Zn 0.46472 0.32368 0.41421 0.0
O128 O 0.46828 0.30757 0.35632 0.0
O129 O 0.48832 0.3521 0.31927 0.0
O130 O 0.44967 0.28426 0.44872 0.0
O131 O 0.52103 0.40097 0.40745 0.0
O132 O 0.50777 0.35629 0.4416 0.0
C133 C 0.4787 0.32232 0.3219 0.0
C134 C 0.42251 0.35431 0.40434 0.0
O135 O 0.42786 0.33351 0.42138 0.0
O136 O 0.44241 0.37461 0.37884 0.0
C137 C 0.42231 0.25969 0.44203 0.0
O138 O 0.40339 0.26056 0.41316 0.0
C139 C 0.5264 0.38643 0.43647 0.0
Zn140 Zn 0.09339 0.46954 0.86452 0.0
Zn141 Zn 0.12797 0.45273 0.91146 0.0
O142 O 0.14743 0.45568 0.85364 0.0
O143 O 0.12134 0.47339 0.81567 0.0
O144 O 0.1543 0.44089 0.94721 0.0
O145 O 0.10435 0.50717 0.90197 0.0
O146 O 0.13706 0.49599 0.93651 0.0
C147 C 0.14231 0.46495 0.81884 0.0
C148 C 0.05521 0.40846 0.90388 0.0
O149 O 0.08186 0.41486 0.92036 0.0
O150 O 0.05398 0.4274 0.87752 0.0
C151 C 0.15454 0.41487 0.9413 0.0
O152 O 0.13634 0.39465 0.91222 0.0
C153 C 0.12477 0.5138 0.93071 0.0
Zn154 Zn 0.61726 0.10668 0.3547 0.0
Zn155 Zn 0.66602 0.13479 0.40893 0.0
O156 O 0.68504 0.16187 0.356 0.0
O157 O 0.6444 0.13953 0.31207 0.0
O158 O 0.70212 0.1579 0.44895 0.0
O159 O 0.58861 0.11411 0.39282 0.0
O160 O 0.62869 0.13649 0.43777 0.0
C161 C 0.67313 0.16063 0.32022 0.0
C162 C 0.63909 0.0645 0.38633 0.0
O163 O 0.65937 0.08922 0.40654 0.0
O164 O 0.61929 0.06601 0.36173 0.0
C165 C 0.72857 0.15847 0.44379 0.0
O166 O 0.73173 0.14202 0.41323 0.0
C167 C 0.59974 0.12736 0.42768 0.0
Zn168 Zn 0.62288 0.52704 0.86307 0.0
Zn169 Zn 0.6726 0.54579 0.91435 0.0
O170 O 0.69 0.54006 0.85819 0.0
O171 O 0.64847 0.52401 0.81618 0.0
O172 O 0.71014 0.55794 0.95153 0.0
O173 O 0.5956 0.48861 0.89862 0.0
O174 O 0.63622 0.50514 0.94244 0.0
C175 C 0.67731 0.5313 0.82229 0.0
C176 C 0.64468 0.58938 0.90061 0.0
O177 O 0.66569 0.58457 0.918 0.0
O178 O 0.62431 0.56884 0.87568 0.0
C179 C 0.73676 0.58338 0.94466 0.0
O180 O 0.73921 0.60283 0.91429 0.0
C181 C 0.60728 0.48519 0.93226 0.0
Zn182 Zn 0.10274 0.61214 0.34442 0.0
Zn183 Zn 0.13131 0.66045 0.3991 0.0
O184 O 0.15806 0.67992 0.34594 0.0
O185 O 0.13508 0.63967 0.30148 0.0
O186 O 0.15524 0.69526 0.44072 0.0
O187 O 0.11038 0.58257 0.38034 0.0
O188 O 0.13202 0.62198 0.42635 0.0
C189 C 0.15641 0.66831 0.3098 0.0
C190 C 0.06133 0.63471 0.37796 0.0
O191 O 0.08639 0.65514 0.39742 0.0
O192 O 0.06236 0.61446 0.3536 0.0
C193 C 0.16368 0.72438 0.43304 0.0
O194 O 0.15483 0.73182 0.39801 0.0
C195 C 0.12319 0.59318 0.41554 0.0
Zn196 Zn 0.48037 0.10749 0.85436 0.0
Zn197 Zn 0.45727 0.13459 0.90638 0.0
O198 O 0.46467 0.16007 0.85202 0.0
O199 O 0.48584 0.13927 0.81027 0.0
O200 O 0.44354 0.15823 0.94466 0.0
O201 O 0.51633 0.11651 0.89357 0.0
O202 O 0.49677 0.13835 0.93655 0.0
C203 C 0.47649 0.15926 0.81689 0.0
C204 C 0.4162 0.06375 0.88534 0.0
O205 O 0.41941 0.0882 0.90513 0.0
O206 O 0.43816 0.06608 0.86128 0.0
C207 C 0.41877 0.16043 0.93734 0.0
O208 O 0.40004 0.14484 0.9057 0.0
C209 C 0.5175 0.13011 0.92782 0.0
Zn210 Zn 0.37312 0.47614 0.37085 0.0
Zn211 Zn 0.32115 0.45524 0.41761 0.0
O212 O 0.30477 0.45905 0.35996 0.0
O213 O 0.3491 0.48017 0.32243 0.0
O214 O 0.2818 0.44029 0.45253 0.0
O215 O 0.3981 0.51295 0.40977 0.0
O216 O 0.35367 0.49837 0.44516 0.0
C217 C 0.3193 0.47003 0.32552 0.0
C218 C 0.35317 0.41444 0.40612 0.0
O219 O 0.33184 0.41873 0.4237 0.0
O220 O 0.37294 0.43497 0.38074 0.0
C221 C 0.2566 0.41346 0.4456 0.0
O222 O 0.25667 0.39425 0.41646 0.0
C223 C 0.38359 0.51763 0.43948 0.0
Zn224 Zn 0.88819 0.37126 0.87855 0.0
Zn225 Zn 0.85462 0.31889 0.92385 0.0
O226 O 0.83404 0.30412 0.8661 0.0
O227 O 0.85946 0.34898 0.82976 0.0
O228 O 0.82895 0.27915 0.95755 0.0
O229 O 0.87809 0.39691 0.91869 0.0
O230 O 0.84593 0.35231 0.95259 0.0
C231 C 0.8385 0.31944 0.83213 0.0
C232 C 0.92705 0.34735 0.91199 0.0
O233 O 0.9009 0.32691 0.9295 0.0
O234 O 0.92777 0.36827 0.88738 0.0
C235 C 0.82798 0.25308 0.9476 0.0
O236 O 0.84516 0.2525 0.91608 0.0
C237 C 0.85818 0.38258 0.9478 0.0
Zn238 Zn 0.511 0.88998 0.36464 0.0
Zn239 Zn 0.535 0.86309 0.41513 0.0
O240 O 0.52461 0.83592 0.36181 0.0
O241 O 0.50347 0.85724 0.32091 0.0
O242 O 0.55087 0.8406 0.45187 0.0
O243 O 0.47686 0.88226 0.40629 0.0
O244 O 0.49701 0.86045 0.44831 0.0
C245 C 0.51208 0.83666 0.32725 0.0
C246 C 0.57634 0.93335 0.39068 0.0
O247 O 0.5733 0.90904 0.41053 0.0
O248 O 0.55357 0.93113 0.36842 0.0
C249 C 0.57673 0.84076 0.44332 0.0
O250 O 0.59456 0.85785 0.41178 0.0
C251 C 0.47643 0.86909 0.4406 0.0
Zn252 Zn 0.47607 0.37527 0.11738 0.0
Zn253 Zn 0.45844 0.32494 0.06755 0.0
O254 O 0.46535 0.30914 0.1244 0.0
O255 O 0.4808 0.35144 0.16503 0.0
O256 O 0.44688 0.28688 0.03126 0.0
O257 O 0.51348 0.40307 0.08082 0.0
O258 O 0.49805 0.36182 0.03816 0.0
C259 C 0.47425 0.32269 0.15986 0.0
C260 C 0.4133 0.35114 0.08082 0.0
O261 O 0.41884 0.33047 0.06375 0.0
O262 O 0.43355 0.37214 0.10539 0.0
C263 C 0.42147 0.26021 0.03816 0.0
O264 O 0.40187 0.25793 0.06824 0.0
C265 C 0.51714 0.39123 0.04745 0.0
Zn266 Zn 0.09433 0.46755 0.61129 0.0
Zn267 Zn 0.1237 0.44427 0.5647 0.0
O268 O 0.14616 0.45223 0.62179 0.0
O269 O 0.123 0.4734 0.6593 0.0
O270 O 0.14957 0.43086 0.53024 0.0
O271 O 0.10471 0.50321 0.57118 0.0
O272 O 0.12825 0.4833 0.53188 0.0
C273 C 0.14311 0.46388 0.65599 0.0
C274 C 0.05255 0.40267 0.58103 0.0
O275 O 0.07769 0.40567 0.56354 0.0
O276 O 0.05379 0.42516 0.60303 0.0
C277 C 0.15215 0.40652 0.53922 0.0
O278 O 0.13567 0.38777 0.57045 0.0
C279 C 0.11964 0.50408 0.53831 0.0
Zn280 Zn 0.61668 0.11046 0.12957 0.0
Zn281 Zn 0.66693 0.13398 0.07762 0.0
O282 O 0.68566 0.16134 0.13049 0.0
O283 O 0.64369 0.14373 0.1719 0.0
O284 O 0.70473 0.15496 0.03952 0.0
O285 O 0.5908 0.11902 0.08802 0.0
O286 O 0.63234 0.1383 0.04527 0.0
C287 C 0.67325 0.16261 0.16493 0.0
C288 C 0.63461 0.06382 0.10343 0.0
O289 O 0.65632 0.08707 0.08241 0.0
O290 O 0.61564 0.06794 0.12662 0.0
C291 C 0.72984 0.15297 0.04479 0.0
O292 O 0.73065 0.13436 0.0742 0.0
C293 C 0.60359 0.13124 0.05333 0.0
Zn294 Zn 0.52202 0.62487 0.61269 0.0
Zn295 Zn 0.54015 0.6769 0.56648 0.0
O296 O 0.53591 0.69259 0.62429 0.0
O297 O 0.51684 0.64812 0.66144 0.0
O298 O 0.55308 0.71591 0.53186 0.0
O299 O 0.48526 0.59892 0.57387 0.0
O300 O 0.49729 0.64331 0.53977 0.0
C301 C 0.52555 0.67766 0.65861 0.0
C302 C 0.58394 0.64813 0.57607 0.0
O303 O 0.57797 0.66849 0.55893 0.0
O304 O 0.56437 0.62769 0.60173 0.0
C305 C 0.57905 0.742 0.53892 0.0
O306 O 0.59876 0.74318 0.56814 0.0
C307 C 0.47921 0.61311 0.54508 0.0
Zn308 Zn 0.8869 0.5195 0.12406 0.0
Zn309 Zn 0.85612 0.53945 0.07485 0.0
O310 O 0.83371 0.53509 0.13076 0.0
O311 O 0.85647 0.51455 0.17022 0.0
O312 O 0.83252 0.55384 0.03785 0.0
O313 O 0.87681 0.48298 0.085 0.0
O314 O 0.84682 0.49655 0.04822 0.0
C315 C 0.83632 0.52392 0.16552 0.0
C316 C 0.92867 0.58141 0.08918 0.0
O317 O 0.9032 0.5764 0.07047 0.0
O318 O 0.9278 0.56133 0.11541 0.0
C319 C 0.83323 0.58024 0.04458 0.0
O320 O 0.85111 0.59929 0.0748 0.0
C321 C 0.85798 0.47782 0.0547 0.0
Zn322 Zn 0.36822 0.8918 0.63024 0.0
Zn323 Zn 0.31976 0.86033 0.57624 0.0
O324 O 0.3017 0.83431 0.63027 0.0
O325 O 0.34198 0.85985 0.67418 0.0
O326 O 0.28511 0.83449 0.53514 0.0
O327 O 0.39846 0.88487 0.59464 0.0
O328 O 0.35874 0.86029 0.54961 0.0
C329 C 0.31376 0.8374 0.6664 0.0
C330 C 0.3428 0.93035 0.59539 0.0
O331 O 0.32327 0.90467 0.57619 0.0
O332 O 0.36357 0.93068 0.62 0.0
C333 C 0.25553 0.82103 0.54468 0.0
O334 O 0.24693 0.8258 0.58168 0.0
C335 C 0.38783 0.87057 0.56022 0.0
C336 C 0.31191 0.49961 0.22225 0.0
C337 C 0.30163 0.47036 0.20076 0.0
C338 C 0.28337 0.44057 0.26623 0.0
C339 C 0.30205 0.47003 0.28751 0.0
N340 N 0.32705 0.52752 0.28899 0.0
N341 N 0.27188 0.41243 0.19988 0.0
C342 C 0.31327 0.49963 0.26645 0.0
C343 C 0.28449 0.44052 0.22193 0.0
N344 N 0.32166 0.52716 0.19987 0.0
N345 N 0.26592 0.41288 0.2885 0.0
H346 H 0.27135 0.41189 0.16738 0.0
H347 H 0.26248 0.38981 0.21347 0.0
H348 H 0.26485 0.41284 0.32098 0.0
H349 H 0.25033 0.39067 0.27511 0.0
H350 H 0.32864 0.5495 0.21307 0.0
H351 H 0.32049 0.52683 0.16731 0.0
H352 H 0.33841 0.55043 0.27594 0.0
H353 H 0.32701 0.52732 0.32158 0.0
C354 C 0.80288 0.317 0.72996 0.0
C355 C 0.81772 0.30274 0.7073 0.0
C356 C 0.82927 0.28328 0.77146 0.0
C357 C 0.82068 0.3033 0.79389 0.0
N358 N 0.78889 0.32886 0.79811 0.0
N359 N 0.83205 0.26159 0.7039 0.0
C360 C 0.80333 0.31619 0.77417 0.0
C361 C 0.826 0.2817 0.72733 0.0
N362 N 0.79074 0.33321 0.70879 0.0
N363 N 0.84299 0.26824 0.79191 0.0
H364 H 0.82938 0.26025 0.67156 0.0
H365 H 0.83669 0.24434 0.71642 0.0
H366 H 0.84447 0.2681 0.82433 0.0
H367 H 0.85334 0.2564 0.777 0.0
H368 H 0.782 0.3468 0.72293 0.0
H369 H 0.78972 0.33291 0.67623 0.0
H370 H 0.77486 0.3379 0.78625 0.0
H371 H 0.78934 0.3281 0.83066 0.0
C372 C 0.4791 0.79788 0.27314 0.0
C373 C 0.50958 0.81574 0.29209 0.0
C374 C 0.53564 0.82095 0.22499 0.0
C375 C 0.50614 0.81312 0.20587 0.0
N376 N 0.44871 0.78403 0.2082 0.0
N377 N 0.56654 0.83615 0.28942 0.0
C378 C 0.47729 0.79716 0.22897 0.0
C379 C 0.53778 0.82362 0.26918 0.0
N380 N 0.45238 0.78394 0.2978 0.0
N381 N 0.56145 0.82724 0.20072 0.0
H382 H 0.56807 0.83688 0.32188 0.0
H383 H 0.58866 0.8457 0.27446 0.0
H384 H 0.55951 0.82461 0.1684 0.0
H385 H 0.58364 0.83217 0.21244 0.0
H386 H 0.42902 0.77026 0.28662 0.0
H387 H 0.45427 0.78494 0.3303 0.0
H388 H 0.42633 0.77364 0.22262 0.0
H389 H 0.44791 0.78349 0.17562 0.0
C390 C 0.71553 0.56025 0.76521 0.0
C391 C 0.69585 0.53084 0.78599 0.0
C392 C 0.6864 0.50148 0.72067 0.0
C393 C 0.69765 0.53096 0.69938 0.0
N394 N 0.7292 0.58881 0.69904 0.0
N395 N 0.66964 0.47331 0.78715 0.0
C396 C 0.71528 0.5606 0.72088 0.0
C397 C 0.68441 0.50127 0.76483 0.0
N398 N 0.73291 0.58765 0.78805 0.0
N399 N 0.67627 0.47393 0.69811 0.0
H400 H 0.66906 0.47345 0.81972 0.0
H401 H 0.65813 0.45045 0.77393 0.0
H402 H 0.67788 0.47442 0.66559 0.0
H403 H 0.66849 0.45139 0.7112 0.0
H404 H 0.74903 0.60991 0.77523 0.0
H405 H 0.73307 0.58726 0.82058 0.0
H406 H 0.73936 0.61146 0.71275 0.0
H407 H 0.73025 0.58942 0.66656 0.0
C408 C 0.19154 0.67517 0.25032 0.0
C409 C 0.17666 0.68833 0.27505 0.0
C410 C 0.16542 0.7108 0.21364 0.0
C411 C 0.17267 0.69074 0.18908 0.0
N412 N 0.20356 0.66459 0.1802 0.0
N413 N 0.16421 0.7305 0.28326 0.0
C414 C 0.19024 0.67717 0.2063 0.0
C415 C 0.16916 0.71076 0.25758 0.0
N416 N 0.20413 0.65857 0.26941 0.0
N417 N 0.15253 0.7274 0.19528 0.0
H418 H 0.16768 0.73074 0.31538 0.0
H419 H 0.1598 0.74843 0.27275 0.0
H420 H 0.15089 0.72861 0.16298 0.0
H421 H 0.14332 0.73967 0.21174 0.0
H422 H 0.21346 0.6461 0.25371 0.0
H423 H 0.20518 0.6577 0.30191 0.0
H424 H 0.2172 0.65454 0.19013 0.0
H425 H 0.20229 0.66618 0.14782 0.0
C426 C 0.44717 0.17045 0.7622 0.0
C427 C 0.47685 0.17893 0.78133 0.0
C428 C 0.5037 0.1939 0.7139 0.0
C429 C 0.47321 0.17565 0.69511 0.0
N430 N 0.41611 0.15422 0.69789 0.0
N431 N 0.53428 0.20863 0.77873 0.0
C432 C 0.44496 0.16741 0.71806 0.0
C433 C 0.50562 0.19499 0.75807 0.0
N434 N 0.42127 0.16392 0.78644 0.0
N435 N 0.53037 0.20792 0.68914 0.0
H436 H 0.53517 0.20949 0.8113 0.0
H437 H 0.55663 0.21915 0.76424 0.0
H438 H 0.52843 0.20671 0.65664 0.0
H439 H 0.55372 0.22188 0.70019 0.0
H440 H 0.39896 0.15854 0.77469 0.0
H441 H 0.42321 0.16682 0.81873 0.0
H442 H 0.394 0.14442 0.71291 0.0
H443 H 0.41453 0.15312 0.66543 0.0
C444 C 0.55257 0.7133 0.71961 0.0
C445 C 0.52409 0.69424 0.69649 0.0
C446 C 0.49141 0.68347 0.75899 0.0
C447 C 0.51998 0.69678 0.78277 0.0
N448 N 0.57622 0.73593 0.78714 0.0
N449 N 0.46708 0.67135 0.68991 0.0
C450 C 0.55012 0.71613 0.7634 0.0
C451 C 0.49361 0.68322 0.71488 0.0
N452 N 0.58176 0.72627 0.70025 0.0
N453 N 0.46252 0.6692 0.7792 0.0
H454 H 0.46893 0.67136 0.65744 0.0
H455 H 0.44395 0.6637 0.70072 0.0
H456 H 0.46117 0.67037 0.81163 0.0
H457 H 0.44035 0.65638 0.76444 0.0
H458 H 0.60364 0.7372 0.71597 0.0
H459 H 0.58398 0.72537 0.668 0.0
H460 H 0.5987 0.752 0.77485 0.0
H461 H 0.57439 0.7385 0.81914 0.0
C462 C 0.82216 0.54758 0.26969 0.0
C463 C 0.81148 0.5171 0.28792 0.0
C464 C 0.79663 0.4918 0.21952 0.0
C465 C 0.81695 0.52244 0.20191 0.0
N466 N 0.84292 0.58008 0.207 0.0
N467 N 0.7786 0.45993 0.28329 0.0
C468 C 0.82683 0.55066 0.22581 0.0
C469 C 0.79436 0.489 0.2636 0.0
N470 N 0.82909 0.57329 0.29457 0.0
N471 N 0.78153 0.4657 0.19385 0.0
H472 H 0.77704 0.45849 0.31582 0.0
H473 H 0.76711 0.43783 0.26808 0.0
H474 H 0.78345 0.46818 0.16143 0.0
H475 H 0.76601 0.44237 0.20409 0.0
H476 H 0.83584 0.59614 0.28329 0.0
H477 H 0.82484 0.57065 0.32661 0.0
H478 H 0.854 0.60181 0.22314 0.0
H479 H 0.8455 0.58254 0.17468 0.0
C480 C 0.30707 0.79883 0.7212 0.0
C481 C 0.29486 0.8167 0.70136 0.0
C482 C 0.27284 0.82205 0.76738 0.0
C483 C 0.294 0.81408 0.78764 0.0
N484 N 0.32216 0.78481 0.78714 0.0
N485 N 0.25916 0.83807 0.70207 0.0
C486 C 0.30727 0.79808 0.76543 0.0
C487 C 0.27441 0.82491 0.72323 0.0
N488 N 0.32035 0.78493 0.6974 0.0
N489 N 0.25281 0.82832 0.79056 0.0
H490 H 0.25951 0.8393 0.66958 0.0
H491 H 0.24659 0.84789 0.71633 0.0
H492 H 0.25133 0.82559 0.82287 0.0
H493 H 0.2358 0.83321 0.77786 0.0
H494 H 0.32984 0.7713 0.70928 0.0
H495 H 0.3201 0.78593 0.66485 0.0
H496 H 0.3343 0.77431 0.77348 0.0
H497 H 0.32175 0.78423 0.81973 0.0
C498 C 0.44842 0.28524 0.26367 0.0
C499 C 0.4783 0.30529 0.28336 0.0
C500 C 0.50568 0.31692 0.21618 0.0
C501 C 0.47548 0.30516 0.1968 0.0
N502 N 0.41804 0.27183 0.19885 0.0
N503 N 0.53582 0.33247 0.28129 0.0
C504 C 0.44675 0.28627 0.21947 0.0
C505 C 0.50723 0.31787 0.26039 0.0
N506 N 0.42184 0.26662 0.28736 0.0
N507 N 0.53255 0.32868 0.19186 0.0
H508 H 0.53671 0.33224 0.31384 0.0
H509 H 0.55824 0.34444 0.26698 0.0
H510 H 0.53098 0.32779 0.15933 0.0
H511 H 0.55567 0.33731 0.20331 0.0
H512 H 0.39942 0.25037 0.27511 0.0
H513 H 0.42302 0.26541 0.31971 0.0
H514 H 0.39572 0.26054 0.21349 0.0
H515 H 0.41676 0.27157 0.16635 0.0
C516 C 0.14951 0.43488 0.71602 0.0
C517 C 0.16045 0.46414 0.69403 0.0
C518 C 0.1769 0.49464 0.75887 0.0
C519 C 0.15961 0.46522 0.7807 0.0
N520 N 0.14094 0.40855 0.78354 0.0
N521 N 0.1948 0.52128 0.6915 0.0
C522 C 0.15027 0.43567 0.76037 0.0
C523 C 0.17828 0.49394 0.71471 0.0
N524 N 0.13604 0.4065 0.69456 0.0
N525 N 0.18992 0.52289 0.78059 0.0
H526 H 0.19553 0.52033 0.65897 0.0
H527 H 0.2092 0.54413 0.70399 0.0
H528 H 0.18974 0.52326 0.81317 0.0
H529 H 0.20068 0.54556 0.76688 0.0
H530 H 0.12417 0.3839 0.70849 0.0
H531 H 0.13671 0.40568 0.66211 0.0
H532 H 0.13514 0.3863 0.771 0.0
H533 H 0.14164 0.40905 0.81604 0.0
C534 C 0.71297 0.17303 0.26414 0.0
C535 C 0.69274 0.18162 0.28583 0.0
C536 C 0.68073 0.2003 0.22154 0.0
C537 C 0.69302 0.1833 0.1996 0.0
N538 N 0.73309 0.16754 0.19664 0.0
N539 N 0.66805 0.21411 0.2894 0.0
C540 C 0.71394 0.17499 0.21987 0.0
C541 C 0.68101 0.19982 0.26577 0.0
N542 N 0.72864 0.16051 0.28571 0.0
N543 N 0.66658 0.21421 0.19959 0.0
H544 H 0.66837 0.21326 0.32196 0.0
H545 H 0.65857 0.22771 0.27738 0.0
H546 H 0.6668 0.2144 0.167 0.0
H547 H 0.65545 0.22582 0.21305 0.0
H548 H 0.74137 0.15071 0.27184 0.0
H549 H 0.72884 0.16017 0.31823 0.0
H550 H 0.74963 0.16192 0.20918 0.0
H551 H 0.73419 0.16974 0.16426 0.0
C552 C 0.17247 0.40576 0.01017 0.0
C553 C 0.17646 0.40848 0.96631 0.0
C554 C 0.22625 0.4067 0.97253 0.0
C555 C 0.22504 0.40971 0.01636 0.0
N556 N 0.19815 0.41406 0.07757 0.0
N557 N 0.20795 0.41357 0.90504 0.0
C558 C 0.1982 0.40922 0.03554 0.0
C559 C 0.2033 0.40896 0.94713 0.0
N560 N 0.14391 0.39958 0.02741 0.0
N561 N 0.24925 0.40143 0.95537 0.0
H562 H 0.19171 0.41529 0.88519 0.0
H563 H 0.22902 0.41802 0.89009 0.0
H564 H 0.26625 0.39942 0.97337 0.0
H565 H 0.24958 0.39596 0.924 0.0
H566 H 0.13834 0.39426 0.05885 0.0
H567 H 0.12454 0.39671 0.00945 0.0
H568 H 0.18107 0.41784 0.09248 0.0
H569 H 0.21646 0.41659 0.09738 0.0
C570 C 0.78331 0.20694 0.45258 0.0
C571 C 0.75619 0.17986 0.47032 0.0
C572 C 0.77539 0.20039 0.5406 0.0
C573 C 0.80274 0.22719 0.52283 0.0
N574 N 0.83725 0.25165 0.46345 0.0
N575 N 0.73037 0.14646 0.53018 0.0
C576 C 0.80817 0.229 0.47924 0.0
C577 C 0.75357 0.17518 0.51409 0.0
N578 N 0.78445 0.21282 0.4107 0.0
N579 N 0.76917 0.19989 0.5823 0.0
H580 H 0.71421 0.12743 0.51139 0.0
H581 H 0.72913 0.1404 0.56158 0.0
H582 H 0.78446 0.21791 0.60289 0.0
H583 H 0.74767 0.18285 0.59604 0.0
H584 H 0.8018 0.23419 0.39696 0.0
H585 H 0.76666 0.19756 0.38989 0.0
H586 H 0.84376 0.25218 0.43234 0.0
H587 H 0.85609 0.26797 0.48233 0.0
C588 C 0.57898 0.82426 0.97808 0.0
C589 C 0.57684 0.81917 0.02178 0.0
C590 C 0.58211 0.77147 0.01203 0.0
C591 C 0.57835 0.77338 0.9685 0.0
N592 N 0.57131 0.80043 0.90944 0.0
N593 N 0.57385 0.78656 0.08093 0.0
C594 C 0.57682 0.79975 0.95115 0.0
C595 C 0.57828 0.79271 0.03908 0.0
N596 N 0.58334 0.85267 0.96248 0.0
N597 N 0.58954 0.74944 0.02736 0.0
H598 H 0.57072 0.80129 0.102 0.0
H599 H 0.57078 0.76548 0.09443 0.0
H600 H 0.59277 0.73373 0.00812 0.0
H601 H 0.59564 0.74889 0.05839 0.0
H602 H 0.58813 0.85912 0.93119 0.0
H603 H 0.58529 0.87117 0.9816 0.0
H604 H 0.56609 0.81701 0.89592 0.0
H605 H 0.56967 0.78304 0.88854 0.0
C606 C 0.80205 0.5881 0.54064 0.0
C607 C 0.77775 0.59228 0.52166 0.0
C608 C 0.80155 0.59664 0.45287 0.0
C609 C 0.82542 0.59162 0.47169 0.0
N610 N 0.85409 0.59191 0.5333 0.0
N611 N 0.7594 0.60977 0.46285 0.0
C612 C 0.82756 0.59054 0.51565 0.0
C613 C 0.77929 0.59973 0.47872 0.0
N614 N 0.79968 0.57977 0.5818 0.0
N615 N 0.79868 0.59619 0.41042 0.0
H616 H 0.74295 0.61236 0.48134 0.0
H617 H 0.76135 0.6185 0.43262 0.0
H618 H 0.81455 0.59422 0.39018 0.0
H619 H 0.7793 0.59565 0.39517 0.0
H620 H 0.8145 0.57256 0.59605 0.0
H621 H 0.78154 0.57804 0.60133 0.0
H622 H 0.85855 0.59415 0.56526 0.0
H623 H 0.87324 0.59398 0.51552 0.0
C624 C 0.19688 0.79218 0.94649 0.0
C625 C 0.22402 0.81795 0.96628 0.0
C626 C 0.20314 0.79421 0.0348 0.0
C627 C 0.17608 0.76843 0.01498 0.0
N628 N 0.14251 0.7474 0.95417 0.0
N629 N 0.2486 0.84839 0.0286 0.0
C630 C 0.1714 0.76901 0.97147 0.0
C631 C 0.2256 0.82058 0.01032 0.0
N632 N 0.19634 0.78848 0.90417 0.0
N633 N 0.20861 0.7926 0.07633 0.0
H634 H 0.26518 0.8682 0.01124 0.0
H635 H 0.2492 0.85297 0.06043 0.0
H636 H 0.19293 0.77368 0.09553 0.0
H637 H 0.22992 0.80885 0.09121 0.0
H638 H 0.17901 0.76801 0.88872 0.0
H639 H 0.21447 0.80472 0.8845 0.0
H640 H 0.13653 0.74852 0.92325 0.0
H641 H 0.12333 0.73028 0.97192 0.0
C642 C 0.40296 0.17546 0.47259 0.0
C643 C 0.40702 0.1796 0.51634 0.0
C644 C 0.41041 0.23201 0.5107 0.0
C645 C 0.41236 0.23032 0.46679 0.0
N646 N 0.41224 0.2013 0.40514 0.0
N647 N 0.41695 0.21273 0.57757 0.0
C648 C 0.40853 0.20205 0.44734 0.0
C649 C 0.4108 0.20787 0.53575 0.0
N650 N 0.39369 0.14603 0.45538 0.0
N651 N 0.40798 0.25664 0.52832 0.0
H652 H 0.41759 0.19581 0.59726 0.0
H653 H 0.42381 0.23457 0.59231 0.0
H654 H 0.40735 0.27454 0.5106 0.0
H655 H 0.40338 0.25755 0.55989 0.0
H656 H 0.38741 0.14059 0.42413 0.0
H657 H 0.38926 0.12609 0.47335 0.0
H658 H 0.41352 0.18281 0.38992 0.0
H659 H 0.41636 0.22025 0.38543 0.0
C660 C 0.78619 0.58906 0.03877 0.0
C661 C 0.81233 0.58812 0.01962 0.0
C662 C 0.79111 0.58842 0.95041 0.0
C663 C 0.76509 0.58959 0.96955 0.0
N664 N 0.74229 0.59979 0.03052 0.0
N665 N 0.8445 0.59568 0.95851 0.0
C666 C 0.76415 0.59284 0.01336 0.0
C667 C 0.81637 0.59074 0.97577 0.0
N668 N 0.78115 0.58424 0.08078 0.0
N669 N 0.79075 0.58301 0.90848 0.0
H670 H 0.86355 0.59774 0.97647 0.0
H671 H 0.85015 0.60086 0.92706 0.0
H672 H 0.77267 0.58098 0.88863 0.0
H673 H 0.80713 0.57809 0.89375 0.0
H674 H 0.76037 0.58083 0.09556 0.0
H675 H 0.79655 0.58119 0.10067 0.0
H676 H 0.7424 0.60552 0.06187 0.0
H677 H 0.72599 0.60294 0.01251 0.0
C678 C 0.21618 0.75041 0.47053 0.0
C679 C 0.18721 0.74996 0.4607 0.0
C680 C 0.2045 0.7985 0.50285 0.0
C681 C 0.23146 0.7964 0.51651 0.0
N682 N 0.25826 0.76525 0.52136 0.0
N683 N 0.15116 0.77047 0.47249 0.0
C684 C 0.236 0.7709 0.50265 0.0
C685 C 0.1806 0.7732 0.47815 0.0
N686 N 0.22556 0.73229 0.44807 0.0
N687 N 0.20226 0.82508 0.51217 0.0
H688 H 0.13292 0.75206 0.45501 0.0
H689 H 0.14386 0.78476 0.48811 0.0
H690 H 0.21949 0.84426 0.52977 0.0
H691 H 0.18487 0.82942 0.49938 0.0
H692 H 0.24804 0.73427 0.45153 0.0
H693 H 0.21255 0.71803 0.42279 0.0
H694 H 0.26016 0.74498 0.51497 0.0
H695 H 0.27231 0.77865 0.54656 0.0
C696 C 0.40989 0.17875 0.00628 0.0
C697 C 0.41322 0.18298 0.96246 0.0
C698 C 0.41253 0.23343 0.96892 0.0
C699 C 0.41482 0.23184 0.01281 0.0
N700 N 0.41878 0.20443 0.07377 0.0
N701 N 0.42136 0.21619 0.90183 0.0
C702 C 0.41387 0.20468 0.0318 0.0
C703 C 0.41507 0.2106 0.94353 0.0
N704 N 0.40261 0.1498 0.02337 0.0
N705 N 0.40755 0.25658 0.95159 0.0
H706 H 0.42397 0.20048 0.88197 0.0
H707 H 0.42671 0.23778 0.88749 0.0
H708 H 0.4052 0.27346 0.96946 0.0
H709 H 0.40253 0.25701 0.92007 0.0
H710 H 0.39682 0.14419 0.05472 0.0
H711 H 0.39925 0.13023 0.00534 0.0
H712 H 0.42208 0.18695 0.08842 0.0
H713 H 0.42219 0.22305 0.09368 0.0
C714 C 0.17274 0.39728 0.47239 0.0
C715 C 0.17581 0.40135 0.51623 0.0
C716 C 0.22765 0.40333 0.51333 0.0
C717 C 0.22704 0.40502 0.46926 0.0
N718 N 0.20018 0.40634 0.40621 0.0
N719 N 0.20749 0.41118 0.57879 0.0
C720 C 0.19969 0.40222 0.44846 0.0
C721 C 0.20338 0.40465 0.537 0.0
N722 N 0.14391 0.38847 0.45377 0.0
N723 N 0.25132 0.40016 0.53246 0.0
H724 H 0.19053 0.41267 0.59746 0.0
H725 H 0.22886 0.41764 0.59444 0.0
H726 H 0.26928 0.39882 0.51583 0.0
H727 H 0.25132 0.39566 0.56423 0.0
H728 H 0.13922 0.38212 0.42243 0.0
H729 H 0.12365 0.38442 0.47067 0.0
H730 H 0.18245 0.40835 0.39014 0.0
H731 H 0.2195 0.41031 0.38737 0.0
C732 C 0.81164 0.22259 0.0143 0.0
C733 C 0.80656 0.22348 0.97096 0.0
C734 C 0.75655 0.17176 0.97584 0.0
C735 C 0.75869 0.17411 0.01989 0.0
N736 N 0.78737 0.20291 0.08187 0.0
N737 N 0.77351 0.19995 0.9099 0.0
C738 C 0.78627 0.19948 0.03948 0.0
C739 C 0.77912 0.19805 0.95131 0.0
N740 N 0.84082 0.2438 0.03125 0.0
N741 N 0.73295 0.14429 0.95761 0.0
H742 H 0.78939 0.21876 0.89071 0.0
H743 H 0.75201 0.18404 0.89512 0.0
H744 H 0.71629 0.12455 0.97501 0.0
H745 H 0.73183 0.13984 0.92569 0.0
H746 H 0.84708 0.24239 0.06194 0.0
H747 H 0.85993 0.26088 0.01337 0.0
H748 H 0.80505 0.22317 0.09732 0.0
H749 H 0.76939 0.18667 0.1017 0.0
C750 C 0.58876 0.8232 0.51064 0.0
C751 C 0.58469 0.81929 0.46686 0.0
C752 C 0.58791 0.77011 0.47093 0.0
C753 C 0.58595 0.77098 0.51494 0.0
N754 N 0.58237 0.79719 0.57742 0.0
N755 N 0.5777 0.78764 0.40493 0.0
C756 C 0.58637 0.79748 0.53516 0.0
C757 C 0.5841 0.79267 0.44668 0.0
N758 N 0.59509 0.85161 0.52859 0.0
N759 N 0.59358 0.74777 0.45246 0.0
H760 H 0.57437 0.80328 0.38585 0.0
H761 H 0.57316 0.7666 0.38973 0.0
H762 H 0.59676 0.73109 0.46961 0.0
H763 H 0.59832 0.74784 0.42074 0.0
H764 H 0.60131 0.85711 0.55986 0.0
H765 H 0.59721 0.87097 0.51122 0.0
H766 H 0.5786 0.814 0.59313 0.0
H767 H 0.58043 0.77881 0.59667 0.0
C768 C 0.36831 0.38678 0.03308 0.0
C769 C 0.35149 0.3871 0.06917 0.0
C770 C 0.36293 0.34873 0.10386 0.0
C771 C 0.38422 0.35283 0.07089 0.0
N772 N 0.39907 0.36563 -0.00112 0.0
N773 N 0.32353 0.36142 0.13214 0.0
C774 C 0.38371 0.36806 0.03333 0.0
C775 C 0.34532 0.3652 0.10212 0.0
N776 N 0.37154 0.40631 0.00024 0.0
N777 N 0.36132 0.33064 0.13763 0.0
H778 H 0.31054 0.37349 0.13058 0.0
H779 H 0.31664 0.345 0.15653 0.0
H780 H 0.37325 0.31748 0.13818 0.0
H781 H 0.34869 0.32877 0.16481 0.0
H782 H 0.38644 0.41024 0.97473 0.0
H783 H 0.35948 0.41929 -0.00095 0.0
H784 H 0.39833 0.37466 0.96968 0.0
H785 H 0.41049 0.35203 -0.00122 0.0
C786 C 0.0035 0.37202 0.53833 0.0
C787 C 0.02072 0.37384 0.57492 0.0
C788 C 0.97042 0.33972 0.61189 0.0
C789 C 0.95395 0.34518 0.57927 0.0
N790 N 0.95284 0.3623 0.50897 0.0
N791 N 0.02209 0.35489 0.64361 0.0
C792 C 0.96971 0.3591 0.54108 0.0
C793 C 0.0045 0.35541 0.6105 0.0
N794 N 0.01978 0.38392 0.50178 0.0
N795 N 0.95324 0.32038 0.64445 0.0
H796 H 0.04706 0.36537 0.64195 0.0
H797 H 0.01236 0.34467 0.6724 0.0
H798 H 0.92815 0.30872 0.64527 0.0
H799 H 0.96328 0.31399 0.66872 0.0
H800 H 0.00868 0.38172 0.47315 0.0
H801 H 0.04459 0.39356 0.49964 0.0
H802 H 0.96339 0.37564 0.48214 0.0
H803 H 0.92793 0.35218 0.50973 0.0
C804 C 0.60002 0.9793 0.06156 0.0
C805 C 0.59567 0.96321 0.10014 0.0
C806 C 0.63103 0.01472 0.13444 0.0
C807 C 0.62886 0.03074 0.09862 0.0
N808 N 0.61248 0.02912 0.02706 0.0
N809 N 0.61035 0.96416 0.17198 0.0
C810 C 0.61459 0.01339 0.0614 0.0
C811 C 0.61281 0.98055 0.13605 0.0
N812 N 0.58946 0.96205 0.02539 0.0
N813 N 0.65021 0.03245 0.16684 0.0
H814 H 0.59872 0.93905 0.1729 0.0
H815 H 0.61909 0.9751 0.20076 0.0
H816 H 0.66391 0.05754 0.16567 0.0
H817 H 0.65463 0.02255 0.1931 0.0
H818 H 0.59452 0.97256 -0.00407 0.0
H819 H 0.57842 0.93706 0.02438 0.0
H820 H 0.59844 0.01743 0.00111 0.0
H821 H 0.62341 0.05408 0.02521 0.0
C822 C 0.65258 0.63605 0.5984 0.0
C823 C 0.64789 0.6144 0.56559 0.0
C824 C 0.61259 0.62929 0.52933 0.0
C825 C 0.61292 0.64645 0.56547 0.0
N826 N 0.63994 0.67536 0.62732 0.0
N827 N 0.63337 0.59842 0.49434 0.0
C828 C 0.63569 0.65328 0.59744 0.0
C829 C 0.63159 0.61419 0.52878 0.0
N830 N 0.67162 0.63832 0.63134 0.0
N831 N 0.59224 0.62544 0.49729 0.0
H832 H 0.64719 0.58722 0.49388 0.0
H833 H 0.62352 0.59855 0.46551 0.0
H834 H 0.57898 0.63723 0.49663 0.0
H835 H 0.58797 0.61036 0.47186 0.0
H836 H 0.67402 0.65125 0.65844 0.0
H837 H 0.68503 0.62666 0.6313 0.0
H838 H 0.65698 0.68274 0.65098 0.0
H839 H 0.62757 0.68808 0.62633 0.0
C840 C 0.97589 0.61032 0.04139 0.0
C841 C 0.96036 0.60959 0.07937 0.0
C842 C 0.01204 0.64614 0.11185 0.0
C843 C 0.02757 0.6429 0.07619 0.0
N844 N 0.02605 0.63265 0.0026 0.0
N845 N 0.96168 0.63437 0.14485 0.0
C846 C 0.01001 0.62896 0.03919 0.0
C847 C 0.97794 0.63049 0.11252 0.0
N848 N 0.95832 0.59117 0.00887 0.0
N849 N 0.03007 0.66268 0.14565 0.0
H850 H 0.93661 0.62304 0.14517 0.0
H851 H 0.97269 0.65044 0.16933 0.0
H852 H 0.05517 0.67554 0.14462 0.0
H853 H 0.02051 0.66332 0.17451 0.0
H854 H 0.96842 0.5873 0.98234 0.0
H855 H 0.93328 0.5781 0.00895 0.0
H856 H 0.01476 0.62509 0.97378 0.0
H857 H 0.05103 0.64611 0.00056 0.0
C858 C 0.37466 0.01091 0.54872 0.0
C859 C 0.37836 0.02837 0.58599 0.0
C860 C 0.34298 0.97862 0.62332 0.0
C861 C 0.34355 0.96113 0.58808 0.0
N862 N 0.34787 0.95914 0.51348 0.0
N863 N 0.35838 0.03092 0.65359 0.0
C864 C 0.35499 0.97683 0.54927 0.0
C865 C 0.35947 0.01277 0.6215 0.0
N866 N 0.39202 0.02654 0.51405 0.0
N867 N 0.32817 0.96232 0.65895 0.0
H868 H 0.37035 0.05603 0.65207 0.0
H869 H 0.344 0.02142 0.67992 0.0
H870 H 0.31474 0.93719 0.65974 0.0
H871 H 0.32939 0.97328 0.68742 0.0
H872 H 0.39381 0.01482 0.48774 0.0
H873 H 0.40583 0.05154 0.51214 0.0
H874 H 0.35358 0.96926 0.4838 0.0
H875 H 0.33318 0.93421 0.51319 0.0
C876 C 0.60795 0.63358 0.94842 0.0
C877 C 0.60707 0.65005 0.91226 0.0
C878 C 0.64555 0.63901 0.87711 0.0
C879 C 0.64208 0.61806 0.91026 0.0
N880 N 0.63016 0.60378 0.98258 0.0
N881 N 0.63198 0.67782 0.8489 0.0
C882 C 0.62707 0.61862 0.94802 0.0
C883 C 0.62873 0.65628 0.87902 0.0
N884 N 0.58855 0.63018 0.98148 0.0
N885 N 0.66343 0.64067 0.84308 0.0
H886 H 0.61966 0.69057 0.8506 0.0
H887 H 0.64822 0.68478 0.8243 0.0
H888 H 0.67691 0.62908 0.84237 0.0
H889 H 0.6648 0.653 0.8158 0.0
H890 H 0.58496 0.61537 0.007 0.0
H891 H 0.57529 0.64194 0.98286 0.0
H892 H 0.62143 0.60477 0.01191 0.0
H893 H 0.64402 0.59265 0.98265 0.0
C894 C 0.97811 0.61701 0.35183 0.0
C895 C 0.96247 0.59899 0.38795 0.0
C896 C 0.01425 0.62133 0.42375 0.0
C897 C 0.02979 0.63242 0.38473 0.0
N898 N 0.02817 0.64624 0.31314 0.0
N899 N 0.96484 0.58457 0.45947 0.0
C900 C 0.01217 0.63252 0.34937 0.0
C901 C 0.9802 0.60209 0.42475 0.0
N902 N 0.96013 0.61866 0.31996 0.0
N903 N 0.03196 0.62843 0.45951 0.0
H904 H 0.93992 0.57068 0.46189 0.0
H905 H 0.97679 0.58231 0.48517 0.0
H906 H 0.0569 0.64256 0.45989 0.0
H907 H 0.02184 0.62331 0.48922 0.0
H908 H 0.96982 0.63288 0.29354 0.0
H909 H 0.93512 0.60758 0.32176 0.0
H910 H 0.01693 0.64422 0.28466 0.0
H911 H 0.05324 0.65937 0.3117 0.0
C912 C 0.38553 0.01482 0.92992 0.0
C913 C 0.38809 0.0314 0.89218 0.0
C914 C 0.35212 0.98061 0.85706 0.0
C915 C 0.35261 0.96394 0.89325 0.0
N916 N 0.3597 0.96417 0.96766 0.0
N917 N 0.36682 0.03204 0.82473 0.0
C918 C 0.36559 0.98078 0.93107 0.0
C919 C 0.36869 0.01481 0.85741 0.0
N920 N 0.40421 0.0312 0.9634 0.0
N921 N 0.33703 0.96352 0.82198 0.0
H922 H 0.37873 0.05717 0.82502 0.0
H923 H 0.35171 0.02177 0.79919 0.0
H924 H 0.32327 0.93841 0.82204 0.0
H925 H 0.33856 0.97387 0.79295 0.0
H926 H 0.40686 0.02004 0.9897 0.0
H927 H 0.41849 0.05619 0.96422 0.0
H928 H 0.3662 0.97519 -0.00322 0.0
H929 H 0.34548 0.93922 0.96937 0.0
C930 C 0.37352 0.38698 0.45205 0.0
C931 C 0.35669 0.38628 0.41552 0.0
C932 C 0.37057 0.34886 0.38281 0.0
C933 C 0.39361 0.35624 0.41459 0.0
N934 N 0.41452 0.37776 0.48255 0.0
N935 N 0.33329 0.36233 0.34966 0.0
C936 C 0.3936 0.37308 0.45089 0.0
C937 C 0.3527 0.3651 0.38239 0.0
N938 N 0.37113 0.40201 0.4869 0.0
N939 N 0.36681 0.32709 0.3527 0.0
H940 H 0.31911 0.37316 0.35013 0.0
H941 H 0.33137 0.34985 0.32229 0.0
H942 H 0.37981 0.31501 0.35325 0.0
H943 H 0.34954 0.31927 0.3293 0.0
H944 H 0.38125 0.40199 0.51556 0.0
H945 H 0.35652 0.41231 0.48793 0.0
H946 H 0.41854 0.39282 0.50794 0.0
H947 H 0.42864 0.36689 0.48284 0.0
C948 C 0.01002 0.3807 0.95405 0.0
C949 C 0.02458 0.37982 0.91606 0.0
C950 C 0.97213 0.34072 0.88763 0.0
C951 C 0.95766 0.34838 0.92067 0.0
N952 N 0.96078 0.37041 0.98893 0.0
N953 N 0.02157 0.35434 0.85057 0.0
C954 C 0.97595 0.36592 0.95574 0.0
C955 C 0.00619 0.35757 0.88446 0.0
N956 N 0.02889 0.39673 0.98747 0.0
N957 N 0.95297 0.31833 0.85882 0.0
H958 H 0.04663 0.36577 0.84904 0.0
H959 H 0.00996 0.34079 0.82428 0.0
H960 H 0.92794 0.30593 0.86148 0.0
H961 H 0.9615 0.31046 0.83434 0.0
H962 H 0.01999 0.39706 0.01693 0.0
H963 H 0.05387 0.40758 0.98651 0.0
H964 H 0.97263 0.38582 0.01373 0.0
H965 H 0.93578 0.35881 0.99113 0.0
C966 C 0.62139 0.98199 0.358 0.0
C967 C 0.6054 0.96545 0.39484 0.0
C968 C 0.62382 0.01633 0.43147 0.0
C969 C 0.63622 0.03273 0.39311 0.0
N970 N 0.65657 0.03339 0.32451 0.0
N971 N 0.60196 0.96608 0.46974 0.0
C972 C 0.63854 0.01617 0.35796 0.0
C973 C 0.61059 0.98242 0.4328 0.0
N974 N 0.61857 0.96475 0.32277 0.0
N975 N 0.62204 0.03255 0.46548 0.0
H976 H 0.59233 0.94126 0.47155 0.0
H977 H 0.60749 0.97735 0.49874 0.0
H978 H 0.63208 0.05745 0.46626 0.0
H979 H 0.60922 0.02123 0.49238 0.0
H980 H 0.62646 0.97494 0.29342 0.0
H981 H 0.60749 0.93966 0.32313 0.0
H982 H 0.66092 0.02314 0.29853 0.0
H983 H 0.66944 0.05853 0.32453 0.0
C984 C 0.41713 0.57128 0.94838 0.0
C985 C 0.44606 0.59637 0.96562 0.0
C986 C 0.4239 0.5774 0.03525 0.0
C987 C 0.39959 0.54804 0.01786 0.0
N988 N 0.37551 0.51587 0.95568 0.0
N989 N 0.47831 0.62105 0.02753 0.0
C990 C 0.39635 0.54472 0.97378 0.0
C991 C 0.44973 0.59932 0.00968 0.0
N992 N 0.40954 0.5728 0.90772 0.0
N993 N 0.42232 0.58434 0.07621 0.0
H994 H 0.49874 0.63671 0.01069 0.0
H995 H 0.48265 0.62132 0.05942 0.0
H996 H 0.40299 0.56925 0.09533 0.0
H997 H 0.43812 0.60661 0.08949 0.0
H998 H 0.38746 0.55633 0.89464 0.0
H999 H 0.42378 0.59261 0.88876 0.0
H1000 H 0.37514 0.51195 0.92366 0.0
H1001 H 0.36083 0.49496 0.97233 0.0
C1002 C 0.83032 0.40644 0.51406 0.0
C1003 C 0.85982 0.40789 0.52374 0.0
C1004 C 0.88898 0.45512 0.47914 0.0
C1005 C 0.85931 0.45186 0.46616 0.0
N1006 N 0.80142 0.42293 0.46732 0.0
N1007 N 0.91617 0.42902 0.5089 0.0
C1008 C 0.8298 0.42714 0.48262 0.0
C1009 C 0.88887 0.43096 0.50443 0.0
N1010 N 0.80314 0.38599 0.53573 0.0
N1011 N 0.91734 0.48194 0.46849 0.0
H1012 H 0.91704 0.41119 0.52646 0.0
H1013 H 0.93708 0.44309 0.49185 0.0
H1014 H 0.91853 0.50068 0.45066 0.0
H1015 H 0.93948 0.48716 0.48083 0.0
H1016 H 0.78161 0.38612 0.53327 0.0
H1017 H 0.80273 0.37028 0.5585 0.0
H1018 H 0.77907 0.40331 0.47477 0.0
H1019 H 0.80034 0.43806 0.44483 0.0
C1020 C 0.39786 0.83337 0.98271 0.0
C1021 C 0.40093 0.86306 0.96992 0.0
C1022 C 0.44875 0.89272 0.01329 0.0
C1023 C 0.44432 0.8631 0.02874 0.0
N1024 N 0.41301 0.80526 0.03267 0.0
N1025 N 0.42472 0.92044 0.97923 0.0
C1026 C 0.41841 0.83334 0.01467 0.0
C1027 C 0.42505 0.89259 0.98704 0.0
N1028 N 0.376 0.80547 0.96348 0.0
N1029 N 0.47627 0.92094 0.02233 0.0
H1030 H 0.40746 0.92136 0.96047 0.0
H1031 H 0.4396 0.94206 -0.00548 0.0
H1032 H 0.49465 0.92213 0.04092 0.0
H1033 H 0.48236 0.94279 0.00818 0.0
H1034 H 0.37485 0.78347 0.96815 0.0
H1035 H 0.36021 0.80472 0.94061 0.0
H1036 H 0.39265 0.78303 0.02696 0.0
H1037 H 0.42795 0.80449 0.05569 0.0
C1038 C 0.55138 0.40275 0.5086 0.0
C1039 C 0.55431 0.40551 0.46445 0.0
C1040 C 0.60467 0.45678 0.4715 0.0
C1041 C 0.6019 0.45382 0.51563 0.0
N1042 N 0.57988 0.41786 0.57435 0.0
N1043 N 0.59009 0.42827 0.40568 0.0
C1044 C 0.57772 0.42461 0.53351 0.0
C1045 C 0.58321 0.43021 0.44655 0.0
N1046 N 0.52301 0.38132 0.52722 0.0
N1047 N 0.62578 0.48532 0.45296 0.0
H1048 H 0.57534 0.40842 0.38706 0.0
H1049 H 0.61208 0.44438 0.39203 0.0
H1050 H 0.64127 0.50613 0.46929 0.0
H1051 H 0.62579 0.48912 0.42095 0.0
H1052 H 0.51925 0.38125 0.55925 0.0
H1053 H 0.50223 0.36571 0.51098 0.0
H1054 H 0.56418 0.39571 0.58798 0.0
H1055 H 0.59956 0.433 0.59296 0.0
C1056 C 0.13432 0.53974 0.00217 0.0
C1057 C 0.13306 0.54191 0.95805 0.0
C1058 C 0.13189 0.59211 0.9653 0.0
C1059 C 0.13431 0.59044 0.00928 0.0
N1060 N 0.15085 0.56966 0.06678 0.0
N1061 N 0.1432 0.5765 0.8985 0.0
C1062 C 0.14003 0.56663 0.02672 0.0
C1063 C 0.13609 0.57028 0.9399 0.0
N1064 N 0.12759 0.51159 0.02126 0.0
N1065 N 0.12341 0.61265 0.94757 0.0
H1066 H 0.14789 0.56169 0.87944 0.0
H1067 H 0.14816 0.59813 0.88457 0.0
H1068 H 0.11862 0.62824 0.96454 0.0
H1069 H 0.11813 0.61197 0.91592 0.0
H1070 H 0.12523 0.50857 0.05352 0.0
H1071 H 0.12089 0.49024 0.00544 0.0
H1072 H 0.15778 0.55416 0.07975 0.0
H1073 H 0.1565 0.58982 0.08506 0.0
C1074 C 0.52791 0.09678 0.49921 0.0
C1075 C 0.53218 0.12595 0.51613 0.0
C1076 C 0.58007 0.1568 0.47275 0.0
C1077 C 0.57735 0.12745 0.45902 0.0
N1078 N 0.55279 0.06973 0.46555 0.0
N1079 N 0.56382 0.18361 0.52333 0.0
C1080 C 0.5524 0.09748 0.47401 0.0
C1081 C 0.55864 0.15603 0.50402 0.0
N1082 N 0.49988 0.0685 0.50602 0.0
N1083 N 0.60246 0.1852 0.45507 0.0
H1084 H 0.54833 0.18386 0.54594 0.0
H1085 H 0.58451 0.20586 0.51914 0.0
H1086 H 0.61872 0.18655 0.43248 0.0
H1087 H 0.60346 0.20707 0.46049 0.0
H1088 H 0.49407 0.0471 0.49075 0.0
H1089 H 0.48097 0.06698 0.52376 0.0
H1090 H 0.53716 0.04772 0.47948 0.0
H1091 H 0.5707 0.06916 0.44781 0.0
C1092 C 0.56772 0.41233 0.0046 0.0
C1093 C 0.53985 0.41353 0.01612 0.0
C1094 C 0.55885 0.46358 0.97732 0.0
C1095 C 0.58528 0.46102 0.96254 0.0
N1096 N 0.61324 0.43122 0.95742 0.0
N1097 N 0.50504 0.43569 0.0055 0.0
C1098 C 0.58937 0.43491 0.97492 0.0
C1099 C 0.53428 0.43781 0.00011 0.0
N1100 N 0.57393 0.39032 0.02291 0.0
N1101 N 0.55787 0.49128 0.97113 0.0
H1102 H 0.48595 0.41666 0.02119 0.0
H1103 H 0.49862 0.45096 0.99072 0.0
H1104 H 0.57597 0.51134 0.95572 0.0
H1105 H 0.54084 0.49564 0.98508 0.0
H1106 H 0.59548 0.39039 0.01923 0.0
H1107 H 0.55823 0.37318 0.04417 0.0
H1108 H 0.61546 0.41094 0.96186 0.0
H1109 H 0.62961 0.44751 0.93593 0.0
C1110 C 0.15258 0.57441 0.46219 0.0
C1111 C 0.12323 0.57042 0.44638 0.0
C1112 C 0.09296 0.52016 0.4852 0.0
C1113 C 0.12184 0.52589 0.50455 0.0
N1114 N 0.17888 0.55941 0.51506 0.0
N1115 N 0.06518 0.5432 0.44913 0.0
C1116 C 0.15169 0.55323 0.49393 0.0
C1117 C 0.09331 0.54425 0.45949 0.0
N1118 N 0.18113 0.59781 0.44606 0.0
N1119 N 0.06528 0.49128 0.49059 0.0
H1120 H 0.06423 0.56086 0.43129 0.0
H1121 H 0.04297 0.52655 0.46168 0.0
H1122 H 0.06408 0.47274 0.5089 0.0
H1123 H 0.04434 0.48449 0.47368 0.0
H1124 H 0.20323 0.59992 0.4532 0.0
H1125 H 0.18254 0.61377 0.42297 0.0
H1126 H 0.20075 0.58073 0.51205 0.0
H1127 H 0.17905 0.54395 0.53778 0.0
C1128 C 0.58656 0.16153 0.00565 0.0
C1129 C 0.58298 0.13194 0.01986 0.0
C1130 C 0.53483 0.10191 0.97715 0.0
C1131 C 0.53976 0.13135 0.96029 0.0
N1132 N 0.57193 0.18901 0.95404 0.0
N1133 N 0.55819 0.07425 0.01296 0.0
C1134 C 0.56608 0.1612 0.97334 0.0
C1135 C 0.5584 0.10219 0.0038 0.0
N1136 N 0.60886 0.18972 0.02388 0.0
N1137 N 0.50695 0.07377 0.96905 0.0
H1138 H 0.57531 0.0734 0.03206 0.0
H1139 H 0.54294 0.05236 -0.00154 0.0
H1140 H 0.48867 0.07249 0.95017 0.0
H1141 H 0.50053 0.05219 0.98421 0.0
H1142 H 0.61044 0.2118 0.01811 0.0
H1143 H 0.62457 0.19071 0.04703 0.0
H1144 H 0.59256 0.21117 0.95901 0.0
H1145 H 0.55707 0.18953 0.93071 0.0
C1146 C 0.4532 0.59653 0.47363 0.0
C1147 C 0.45099 0.59369 0.5178 0.0
C1148 C 0.40063 0.54239 0.5116 0.0
C1149 C 0.40251 0.54556 0.46746 0.0
N1150 N 0.42354 0.58172 0.40876 0.0
N1151 N 0.41622 0.57071 0.57748 0.0
C1152 C 0.4264 0.5748 0.4493 0.0
C1153 C 0.42246 0.5689 0.53631 0.0
N1154 N 0.48127 0.61794 0.45441 0.0
N1155 N 0.38004 0.51372 0.53028 0.0
H1156 H 0.43118 0.59055 0.59599 0.0
H1157 H 0.39448 0.55449 0.59159 0.0
H1158 H 0.36445 0.49288 0.51408 0.0
H1159 H 0.38068 0.50985 0.56217 0.0
H1160 H 0.48448 0.61812 0.42223 0.0
H1161 H 0.50237 0.63334 0.47023 0.0
H1162 H 0.43906 0.60391 0.39508 0.0
H1163 H 0.40349 0.56673 0.39062 0.0
C1164 C 0.84963 0.39913 0.01983 0.0
C1165 C 0.84972 0.40195 0.9757 0.0
C1166 C 0.85113 0.45339 0.98257 0.0
C1167 C 0.84999 0.45012 0.0267 0.0
N1168 N 0.83544 0.41386 0.08529 0.0
N1169 N 0.83739 0.42508 0.91671 0.0
C1170 C 0.84491 0.4209 0.04464 0.0
C1171 C 0.84593 0.42682 0.95766 0.0
N1172 N 0.85631 0.37758 0.0385 0.0
N1173 N 0.85961 0.48221 0.96406 0.0
H1174 H 0.83211 0.4052 0.89805 0.0
H1175 H 0.83189 0.44143 0.90303 0.0
H1176 H 0.86583 0.50324 0.98042 0.0
H1177 H 0.86378 0.48601 0.9321 0.0
H1178 H 0.85975 0.37738 0.07057 0.0
H1179 H 0.86152 0.36202 0.02221 0.0
H1180 H 0.82896 0.39168 0.09879 0.0
H1181 H 0.83041 0.4287 0.10378 0.0
C1182 C 0.46043 0.89811 0.49037 0.0
C1183 C 0.45486 0.8684 0.47376 0.0
C1184 C 0.40675 0.8394 0.51729 0.0
C1185 C 0.41052 0.86938 0.53025 0.0
N1186 N 0.43734 0.92724 0.52299 0.0
N1187 N 0.42162 0.81083 0.46767 0.0
C1188 C 0.43644 0.89877 0.51523 0.0
C1189 C 0.42777 0.83896 0.48631 0.0
N1190 N 0.48907 0.92567 0.48318 0.0
N1191 N 0.38376 0.81154 0.53547 0.0
H1192 H 0.43694 0.80968 0.44555 0.0
H1193 H 0.40042 0.78905 0.47202 0.0
H1194 H 0.36794 0.81106 0.55813 0.0
H1195 H 0.38191 0.78924 0.53053 0.0
H1196 H 0.4958 0.94741 0.49815 0.0
H1197 H 0.5075 0.92614 0.46542 0.0
H1198 H 0.45376 0.94891 0.50895 0.0
H1199 H 0.41976 0.92884 0.54018 0.0
loop_
_geom_bond_atom_site_label_1
_geom_bond_atom_site_label_2
_geom_bond_distance
_geom_bond_site_symmetry_2
_ccdc_geom_bond_type
Zn0 O3 2.031 . S
Zn0 O5 2.049 . S
Zn0 O10 2.067 . S
Zn1 O2 1.962 . S
Zn1 O4 1.986 . S
Zn1 O6 1.996 . S
Zn1 O9 1.943 . S
O2 Zn1 1.962 . S
O2 C7 1.254 . S
O3 Zn0 2.031 . S
O3 C7 1.269 . S
O4 Zn1 1.986 . S
O4 C11 1.262 . S
O5 Zn0 2.049 . S
O5 C13 1.260 . S
O6 Zn1 1.996 . S
O6 C13 1.257 . S
C7 O2 1.254 . S
C7 O3 1.269 . S
C8 O9 1.249 . S
C8 O10 1.270 . S
O9 Zn1 1.943 . S
O9 C8 1.249 . S
O10 Zn0 2.067 . S
O10 C8 1.270 . S
C11 O4 1.262 . S
C11 O12 1.232 . S
O12 C11 1.232 . S
C13 O5 1.260 . S
C13 O6 1.257 . S
Zn14 O17 2.031 . S
Zn14 O19 2.049 . S
Zn14 O24 2.067 . S
Zn15 O16 1.962 . S
Zn15 O18 1.986 . S
Zn15 O20 1.996 . S
Zn15 O23 1.943 . S
O16 Zn15 1.962 . S
O16 C21 1.254 . S
O17 Zn14 2.031 . S
O17 C21 1.269 . S
O18 Zn15 1.986 . S
O18 C25 1.262 . S
O19 Zn14 2.049 . S
O19 C27 1.260 . S
O20 Zn15 1.996 . S
O20 C27 1.257 . S
C21 O16 1.254 . S
C21 O17 1.269 . S
C22 O23 1.249 . S
C22 O24 1.270 . S
O23 Zn15 1.943 . S
O23 C22 1.249 . S
O24 Zn14 2.067 . S
O24 C22 1.270 . S
C25 O18 1.262 . S
C25 O26 1.232 . S
O26 C25 1.232 . S
C27 O19 1.260 . S
C27 O20 1.257 . S
Zn28 O31 2.031 . S
Zn28 O33 2.049 . S
Zn28 O38 2.067 . S
Zn29 O30 1.962 . S
Zn29 O32 1.986 . S
Zn29 O34 1.996 . S
Zn29 O37 1.943 . S
O30 Zn29 1.962 . S
O30 C35 1.254 . S
O31 Zn28 2.031 . S
O31 C35 1.269 . S
O32 Zn29 1.986 . S
O32 C39 1.262 . S
O33 Zn28 2.049 . S
O33 C41 1.260 . S
O34 Zn29 1.996 . S
O34 C41 1.257 . S
C35 O30 1.254 . S
C35 O31 1.269 . S
C36 O37 1.249 . S
C36 O38 1.270 . S
O37 Zn29 1.943 . S
O37 C36 1.249 . S
O38 Zn28 2.067 . S
O38 C36 1.270 . S
C39 O32 1.262 . S
C39 O40 1.232 . S
O40 C39 1.232 . S
C41 O33 1.260 . S
C41 O34 1.257 . S
Zn42 O45 2.031 . S
Zn42 O47 2.049 . S
Zn42 O52 2.067 . S
Zn43 O44 1.962 . S
Zn43 O46 1.986 . S
Zn43 O48 1.996 . S
Zn43 O51 1.943 . S
O44 Zn43 1.962 . S
O44 C49 1.254 . S
O45 Zn42 2.031 . S
O45 C49 1.269 . S
O46 Zn43 1.986 . S
O46 C53 1.262 . S
O47 Zn42 2.049 . S
O47 C55 1.260 . S
O48 Zn43 1.996 . S
O48 C55 1.257 . S
C49 O44 1.254 . S
C49 O45 1.269 . S
C50 O51 1.249 . S
C50 O52 1.270 . S
O51 Zn43 1.943 . S
O51 C50 1.249 . S
O52 Zn42 2.067 . S
O52 C50 1.270 . S
C53 O46 1.262 . S
C53 O54 1.232 . S
O54 C53 1.232 . S
C55 O47 1.260 . S
C55 O48 1.257 . S
Zn56 O59 2.031 . S
Zn56 O61 2.049 . S
Zn56 O66 2.067 . S
Zn57 O58 1.962 . S
Zn57 O60 1.986 . S
Zn57 O62 1.996 . S
Zn57 O65 1.943 . S
O58 Zn57 1.962 . S
O58 C63 1.254 . S
O59 Zn56 2.031 . S
O59 C63 1.269 . S
O60 Zn57 1.986 . S
O60 C67 1.262 . S
O61 Zn56 2.049 . S
O61 C69 1.260 . S
O62 Zn57 1.996 . S
O62 C69 1.257 . S
C63 O58 1.254 . S
C63 O59 1.269 . S
C64 O65 1.249 . S
C64 O66 1.270 . S
O65 Zn57 1.943 . S
O65 C64 1.249 . S
O66 Zn56 2.067 . S
O66 C64 1.270 . S
C67 O60 1.262 . S
C67 O68 1.232 . S
O68 C67 1.232 . S
C69 O61 1.260 . S
C69 O62 1.257 . S
Zn70 O73 2.031 . S
Zn70 O75 2.049 . S
Zn70 O80 2.067 . S
Zn71 O72 1.962 . S
Zn71 O74 1.986 . S
Zn71 O76 1.996 . S
Zn71 O79 1.943 . S
O72 Zn71 1.962 . S
O72 C77 1.254 . S
O73 Zn70 2.031 . S
O73 C77 1.269 . S
O74 Zn71 1.986 . S
O74 C81 1.262 . S
O75 Zn70 2.049 . S
O75 C83 1.260 . S
O76 Zn71 1.996 . S
O76 C83 1.257 . S
C77 O72 1.254 . S
C77 O73 1.269 . S
C78 O79 1.249 . S
C78 O80 1.270 . S
O79 Zn71 1.943 . S
O79 C78 1.249 . S
O80 Zn70 2.067 . S
O80 C78 1.270 . S
C81 O74 1.262 . S
C81 O82 1.232 . S
O82 C81 1.232 . S
C83 O75 1.260 . S
C83 O76 1.257 . S
Zn84 O87 2.031 . S
Zn84 O89 2.049 . S
Zn84 O94 2.067 . S
Zn85 O86 1.962 . S
Zn85 O88 1.986 . S
Zn85 O90 1.996 . S
Zn85 O93 1.943 . S
O86 Zn85 1.962 . S
O86 C91 1.254 . S
O87 Zn84 2.031 . S
O87 C91 1.269 . S
O88 Zn85 1.986 . S
O88 C95 1.262 . S
O89 Zn84 2.049 . S
O89 C97 1.260 . S
O90 Zn85 1.996 . S
O90 C97 1.257 . S
C91 O86 1.254 . S
C91 O87 1.269 . S
C92 O93 1.249 . S
C92 O94 1.270 . S
O93 Zn85 1.943 . S
O93 C92 1.249 . S
O94 Zn84 2.067 . S
O94 C92 1.270 . S
C95 O88 1.262 . S
C95 O96 1.232 . S
O96 C95 1.232 . S
C97 O89 1.260 . S
C97 O90 1.257 . S
Zn98 O101 2.031 . S
Zn98 O103 2.049 . S
Zn98 O108 2.067 . S
Zn99 O100 1.962 . S
Zn99 O102 1.986 . S
Zn99 O104 1.996 . S
Zn99 O107 1.943 . S
O100 Zn99 1.962 . S
O100 C105 1.254 . S
O101 Zn98 2.031 . S
O101 C105 1.269 . S
O102 Zn99 1.986 . S
O102 C109 1.262 . S
O103 Zn98 2.049 . S
O103 C111 1.260 . S
O104 Zn99 1.996 . S
O104 C111 1.257 . S
C105 O100 1.254 . S
C105 O101 1.269 . S
C106 O107 1.249 . S
C106 O108 1.270 . S
O107 Zn99 1.943 . S
O107 C106 1.249 . S
O108 Zn98 2.067 . S
O108 C106 1.270 . S
C109 O102 1.262 . S
C109 O110 1.232 . S
O110 C109 1.232 . S
C111 O103 1.260 . S
C111 O104 1.257 . S
Zn112 O115 2.031 . S
Zn112 O117 2.049 . S
Zn112 O122 2.067 . S
Zn113 O114 1.962 . S
Zn113 O116 1.986 . S
Zn113 O118 1.996 . S
Zn113 O121 1.943 . S
O114 Zn113 1.962 . S
O114 C119 1.254 . S
O115 Zn112 2.031 . S
O115 C119 1.269 . S
O116 Zn113 1.986 . S
O116 C123 1.262 . S
O117 Zn112 2.049 . S
O117 C125 1.260 . S
O118 Zn113 1.996 . S
O118 C125 1.257 . S
C119 O114 1.254 . S
C119 O115 1.269 . S
C120 O121 1.249 . S
C120 O122 1.270 . S
O121 Zn113 1.943 . S
O121 C120 1.249 . S
O122 Zn112 2.067 . S
O122 C120 1.270 . S
C123 O116 1.262 . S
C123 O124 1.232 . S
O124 C123 1.232 . S
C125 O117 1.260 . S
C125 O118 1.257 . S
Zn126 O129 2.031 . S
Zn126 O131 2.049 . S
Zn126 O136 2.067 . S
Zn127 O128 1.962 . S
Zn127 O130 1.986 . S
Zn127 O132 1.996 . S
Zn127 O135 1.943 . S
O128 Zn127 1.962 . S
O128 C133 1.254 . S
O129 Zn126 2.031 . S
O129 C133 1.269 . S
O130 Zn127 1.986 . S
O130 C137 1.262 . S
O131 Zn126 2.049 . S
O131 C139 1.260 . S
O132 Zn127 1.996 . S
O132 C139 1.257 . S
C133 O128 1.254 . S
C133 O129 1.269 . S
C134 O135 1.249 . S
C134 O136 1.270 . S
O135 Zn127 1.943 . S
O135 C134 1.249 . S
O136 Zn126 2.067 . S
O136 C134 1.270 . S
C137 O130 1.262 . S
C137 O138 1.232 . S
O138 C137 1.232 . S
C139 O131 1.260 . S
C139 O132 1.257 . S
Zn140 O143 2.031 . S
Zn140 O145 2.049 . S
Zn140 O150 2.067 . S
Zn141 O142 1.962 . S
Zn141 O144 1.986 . S
Zn141 O146 1.996 . S
Zn141 O149 1.943 . S
O142 Zn141 1.962 . S
O142 C147 1.254 . S
O143 Zn140 2.031 . S
O143 C147 1.269 . S
O144 Zn141 1.986 . S
O144 C151 1.262 . S
O145 Zn140 2.049 . S
O145 C153 1.260 . S
O146 Zn141 1.996 . S
O146 C153 1.257 . S
C147 O142 1.254 . S
C147 O143 1.269 . S
C148 O149 1.249 . S
C148 O150 1.270 . S
O149 Zn141 1.943 . S
O149 C148 1.249 . S
O150 Zn140 2.067 . S
O150 C148 1.270 . S
C151 O144 1.262 . S
C151 O152 1.232 . S
O152 C151 1.232 . S
C153 O145 1.260 . S
C153 O146 1.257 . S
Zn154 O157 2.031 . S
Zn154 O159 2.049 . S
Zn154 O164 2.067 . S
Zn155 O156 1.962 . S
Zn155 O158 1.986 . S
Zn155 O160 1.996 . S
Zn155 O163 1.943 . S
O156 Zn155 1.962 . S
O156 C161 1.254 . S
O157 Zn154 2.031 . S
O157 C161 1.269 . S
O158 Zn155 1.986 . S
O158 C165 1.262 . S
O159 Zn154 2.049 . S
O159 C167 1.260 . S
O160 Zn155 1.996 . S
O160 C167 1.257 . S
C161 O156 1.254 . S
C161 O157 1.269 . S
C162 O163 1.249 . S
C162 O164 1.270 . S
O163 Zn155 1.943 . S
O163 C162 1.249 . S
O164 Zn154 2.067 . S
O164 C162 1.270 . S
C165 O158 1.262 . S
C165 O166 1.232 . S
O166 C165 1.232 . S
C167 O159 1.260 . S
C167 O160 1.257 . S
Zn168 O171 2.031 . S
Zn168 O173 2.049 . S
Zn168 O178 2.067 . S
Zn169 O170 1.962 . S
Zn169 O172 1.986 . S
Zn169 O174 1.996 . S
Zn169 O177 1.943 . S
O170 Zn169 1.962 . S
O170 C175 1.254 . S
O171 Zn168 2.031 . S
O171 C175 1.269 . S
O172 Zn169 1.986 . S
O172 C179 1.262 . S
O173 Zn168 2.049 . S
O173 C181 1.260 . S
O174 Zn169 1.996 . S
O174 C181 1.257 . S
C175 O170 1.254 . S
C175 O171 1.269 . S
C176 O177 1.249 . S
C176 O178 1.270 . S
O177 Zn169 1.943 . S
O177 C176 1.249 . S
O178 Zn168 2.067 . S
O178 C176 1.270 . S
C179 O172 1.262 . S
C179 O180 1.232 . S
O180 C179 1.232 . S
C181 O173 1.260 . S
C181 O174 1.257 . S
Zn182 O185 2.031 . S
Zn182 O187 2.049 . S
Zn182 O192 2.067 . S
Zn183 O184 1.962 . S
Zn183 O186 1.986 . S
Zn183 O188 1.996 . S
Zn183 O191 1.943 . S
O184 Zn183 1.962 . S
O184 C189 1.254 . S
O185 Zn182 2.031 . S
O185 C189 1.269 . S
O186 Zn183 1.986 . S
O186 C193 1.262 . S
O187 Zn182 2.049 . S
O187 C195 1.260 . S
O188 Zn183 1.996 . S
O188 C195 1.257 . S
C189 O184 1.254 . S
C189 O185 1.269 . S
C190 O191 1.249 . S
C190 O192 1.270 . S
O191 Zn183 1.943 . S
O191 C190 1.249 . S
O192 Zn182 2.067 . S
O192 C190 1.270 . S
C193 O186 1.262 . S
C193 O194 1.232 . S
O194 C193 1.232 . S
C195 O187 1.260 . S
C195 O188 1.257 . S
Zn196 O199 2.031 . S
Zn196 O201 2.049 . S
Zn196 O206 2.067 . S
Zn197 O198 1.962 . S
Zn197 O200 1.986 . S
Zn197 O202 1.996 . S
Zn197 O205 1.943 . S
O198 Zn197 1.962 . S
O198 C203 1.254 . S
O199 Zn196 2.031 . S
O199 C203 1.269 . S
O200 Zn197 1.986 . S
O200 C207 1.262 . S
O201 Zn196 2.049 . S
O201 C209 1.260 . S
O202 Zn197 1.996 . S
O202 C209 1.257 . S
C203 O198 1.254 . S
C203 O199 1.269 . S
C204 O205 1.249 . S
C204 O206 1.270 . S
O205 Zn197 1.943 . S
O205 C204 1.249 . S
O206 Zn196 2.067 . S
O206 C204 1.270 . S
C207 O200 1.262 . S
C207 O208 1.232 . S
O208 C207 1.232 . S
C209 O201 1.260 . S
C209 O202 1.257 . S
Zn210 O213 2.031 . S
Zn210 O215 2.049 . S
Zn210 O220 2.067 . S
Zn211 O212 1.962 . S
Zn211 O214 1.986 . S
Zn211 O216 1.996 . S
Zn211 O219 1.943 . S
O212 Zn211 1.962 . S
O212 C217 1.254 . S
O213 Zn210 2.031 . S
O213 C217 1.269 . S
O214 Zn211 1.986 . S
O214 C221 1.262 . S
O215 Zn210 2.049 . S
O215 C223 1.260 . S
O216 Zn211 1.996 . S
O216 C223 1.257 . S
C217 O212 1.254 . S
C217 O213 1.269 . S
C218 O219 1.249 . S
C218 O220 1.270 . S
O219 Zn211 1.943 . S
O219 C218 1.249 . S
O220 Zn210 2.067 . S
O220 C218 1.270 . S
C221 O214 1.262 . S
C221 O222 1.232 . S
O222 C221 1.232 . S
C223 O215 1.260 . S
C223 O216 1.257 . S
Zn224 O227 2.031 . S
Zn224 O229 2.049 . S
Zn224 O234 2.067 . S
Zn225 O226 1.962 . S
Zn225 O228 1.986 . S
Zn225 O230 1.996 . S
Zn225 O233 1.943 . S
O226 Zn225 1.962 . S
O226 C231 1.254 . S
O227 Zn224 2.031 . S
O227 C231 1.269 . S
O228 Zn225 1.986 . S
O228 C235 1.262 . S
O229 Zn224 2.049 . S
O229 C237 1.260 . S
O230 Zn225 1.996 . S
O230 C237 1.257 . S
C231 O226 1.254 . S
C231 O227 1.269 . S
C232 O233 1.249 . S
C232 O234 1.270 . S
O233 Zn225 1.943 . S
O233 C232 1.249 . S
O234 Zn224 2.067 . S
O234 C232 1.270 . S
C235 O228 1.262 . S
C235 O236 1.232 . S
O236 C235 1.232 . S
C237 O229 1.260 . S
C237 O230 1.257 . S
Zn238 O241 2.031 . S
Zn238 O243 2.049 . S
Zn238 O248 2.067 . S
Zn239 O240 1.962 . S
Zn239 O242 1.986 . S
Zn239 O244 1.996 . S
Zn239 O247 1.943 . S
O240 Zn239 1.962 . S
O240 C245 1.254 . S
O241 Zn238 2.031 . S
O241 C245 1.269 . S
O242 Zn239 1.986 . S
O242 C249 1.262 . S
O243 Zn238 2.049 . S
O243 C251 1.260 . S
O244 Zn239 1.996 . S
O244 C251 1.257 . S
C245 O240 1.254 . S
C245 O241 1.269 . S
C246 O247 1.249 . S
C246 O248 1.270 . S
O247 Zn239 1.943 . S
O247 C246 1.249 . S
O248 Zn238 2.067 . S
O248 C246 1.270 . S
C249 O242 1.262 . S
C249 O250 1.232 . S
O250 C249 1.232 . S
C251 O243 1.260 . S
C251 O244 1.257 . S
Zn252 O255 2.031 . S
Zn252 O257 2.049 . S
Zn252 O262 2.067 . S
Zn253 O254 1.962 . S
Zn253 O256 1.986 . S
Zn253 O258 1.996 . S
Zn253 O261 1.943 . S
O254 Zn253 1.962 . S
O254 C259 1.254 . S
O255 Zn252 2.031 . S
O255 C259 1.269 . S
O256 Zn253 1.986 . S
O256 C263 1.262 . S
O257 Zn252 2.049 . S
O257 C265 1.260 . S
O258 Zn253 1.996 . S
O258 C265 1.257 . S
C259 O254 1.254 . S
C259 O255 1.269 . S
C260 O261 1.249 . S
C260 O262 1.270 . S
O261 Zn253 1.943 . S
O261 C260 1.249 . S
O262 Zn252 2.067 . S
O262 C260 1.270 . S
C263 O256 1.262 . S
C263 O264 1.232 . S
O264 C263 1.232 . S
C265 O257 1.260 . S
C265 O258 1.257 . S
Zn266 O269 2.031 . S
Zn266 O271 2.049 . S
Zn266 O276 2.067 . S
Zn267 O268 1.962 . S
Zn267 O270 1.986 . S
Zn267 O272 1.996 . S
Zn267 O275 1.943 . S
O268 Zn267 1.962 . S
O268 C273 1.254 . S
O269 Zn266 2.031 . S
O269 C273 1.269 . S
O270 Zn267 1.986 . S
O270 C277 1.262 . S
O271 Zn266 2.049 . S
O271 C279 1.260 . S
O272 Zn267 1.996 . S
O272 C279 1.257 . S
C273 O268 1.254 . S
C273 O269 1.269 . S
C274 O275 1.249 . S
C274 O276 1.270 . S
O275 Zn267 1.943 . S
O275 C274 1.249 . S
O276 Zn266 2.067 . S
O276 C274 1.270 . S
C277 O270 1.262 . S
C277 O278 1.232 . S
O278 C277 1.232 . S
C279 O271 1.260 . S
C279 O272 1.257 . S
Zn280 O283 2.031 . S
Zn280 O285 2.049 . S
Zn280 O290 2.067 . S
Zn281 O282 1.962 . S
Zn281 O284 1.986 . S
Zn281 O286 1.996 . S
Zn281 O289 1.943 . S
O282 Zn281 1.962 . S
O282 C287 1.254 . S
O283 Zn280 2.031 . S
O283 C287 1.269 . S
O284 Zn281 1.986 . S
O284 C291 1.262 . S
O285 Zn280 2.049 . S
O285 C293 1.260 . S
O286 Zn281 1.996 . S
O286 C293 1.257 . S
C287 O282 1.254 . S
C287 O283 1.269 . S
C288 O289 1.249 . S
C288 O290 1.270 . S
O289 Zn281 1.943 . S
O289 C288 1.249 . S
O290 Zn280 2.067 . S
O290 C288 1.270 . S
C291 O284 1.262 . S
C291 O292 1.232 . S
O292 C291 1.232 . S
C293 O285 1.260 . S
C293 O286 1.257 . S
Zn294 O297 2.031 . S
Zn294 O299 2.049 . S
Zn294 O304 2.067 . S
Zn295 O296 1.962 . S
Zn295 O298 1.986 . S
Zn295 O300 1.996 . S
Zn295 O303 1.943 . S
O296 Zn295 1.962 . S
O296 C301 1.254 . S
O297 Zn294 2.031 . S
O297 C301 1.269 . S
O298 Zn295 1.986 . S
O298 C305 1.262 . S
O299 Zn294 2.049 . S
O299 C307 1.260 . S
O300 Zn295 1.996 . S
O300 C307 1.257 . S
C301 O296 1.254 . S
C301 O297 1.269 . S
C302 O303 1.249 . S
C302 O304 1.270 . S
O303 Zn295 1.943 . S
O303 C302 1.249 . S
O304 Zn294 2.067 . S
O304 C302 1.270 . S
C305 O298 1.262 . S
C305 O306 1.232 . S
O306 C305 1.232 . S
C307 O299 1.260 . S
C307 O300 1.257 . S
Zn308 O311 2.031 . S
Zn308 O313 2.049 . S
Zn308 O318 2.067 . S
Zn309 O310 1.962 . S
Zn309 O312 1.986 . S
Zn309 O314 1.996 . S
Zn309 O317 1.943 . S
O310 Zn309 1.962 . S
O310 C315 1.254 . S
O311 Zn308 2.031 . S
O311 C315 1.269 . S
O312 Zn309 1.986 . S
O312 C319 1.262 . S
O313 Zn308 2.049 . S
O313 C321 1.260 . S
O314 Zn309 1.996 . S
O314 C321 1.257 . S
C315 O310 1.254 . S
C315 O311 1.269 . S
C316 O317 1.249 . S
C316 O318 1.270 . S
O317 Zn309 1.943 . S
O317 C316 1.249 . S
O318 Zn308 2.067 . S
O318 C316 1.270 . S
C319 O312 1.262 . S
C319 O320 1.232 . S
O320 C319 1.232 . S
C321 O313 1.260 . S
C321 O314 1.257 . S
Zn322 O325 2.031 . S
Zn322 O327 2.049 . S
Zn322 O332 2.067 . S
Zn323 O324 1.962 . S
Zn323 O326 1.986 . S
Zn323 O328 1.996 . S
Zn323 O331 1.943 . S
O324 Zn323 1.962 . S
O324 C329 1.254 . S
O325 Zn322 2.031 . S
O325 C329 1.269 . S
O326 Zn323 1.986 . S
O326 C333 1.262 . S
O327 Zn322 2.049 . S
O327 C335 1.260 . S
O328 Zn323 1.996 . S
O328 C335 1.257 . S
C329 O324 1.254 . S
C329 O325 1.269 . S
C330 O331 1.249 . S
C330 O332 1.270 . S
O331 Zn323 1.943 . S
O331 C330 1.249 . S
O332 Zn322 2.067 . S
O332 C330 1.270 . S
C333 O326 1.262 . S
C333 O334 1.232 . S
O334 C333 1.232 . S
C335 O327 1.260 . S
C335 O328 1.257 . S
C336 C337 1.363 . S
C336 C342 1.379 . S
C336 N344 1.356 . S
C337 C336 1.363 . S
C337 C343 1.363 . S
C338 C339 1.363 . S
C338 C343 1.379 . S
C338 N345 1.356 . S
C339 C338 1.363 . S
C339 C342 1.363 . S
N340 C342 1.356 . S
N340 H352 0.984 . S
N340 H353 0.985 . S
N341 C343 1.356 . S
N341 H346 0.984 . S
N341 H347 0.985 . S
C342 C336 1.379 . S
C342 C339 1.363 . S
C342 N340 1.356 . S
C343 C337 1.363 . S
C343 C338 1.379 . S
C343 N341 1.356 . S
N344 C336 1.356 . S
N344 H350 0.984 . S
N344 H351 0.984 . S
N345 C338 1.356 . S
N345 H348 0.984 . S
N345 H349 0.985 . S
H346 N341 0.984 . S
H347 N341 0.985 . S
H348 N345 0.984 . S
H349 N345 0.985 . S
H350 N344 0.984 . S
H351 N344 0.984 . S
H352 N340 0.984 . S
H353 N340 0.985 . S
C354 C355 1.363 . S
C354 C360 1.379 . S
C354 N362 1.356 . S
C355 C354 1.363 . S
C355 C361 1.363 . S
C356 C357 1.363 . S
C356 C361 1.379 . S
C356 N363 1.356 . S
C357 C356 1.363 . S
C357 C360 1.363 . S
N358 C360 1.356 . S
N358 H370 0.984 . S
N358 H371 0.985 . S
N359 C361 1.356 . S
N359 H364 0.984 . S
N359 H365 0.985 . S
C360 C354 1.379 . S
C360 C357 1.363 . S
C360 N358 1.356 . S
C361 C355 1.363 . S
C361 C356 1.379 . S
C361 N359 1.356 . S
N362 C354 1.356 . S
N362 H368 0.984 . S
N362 H369 0.984 . S
N363 C356 1.356 . S
N363 H366 0.984 . S
N363 H367 0.985 . S
H364 N359 0.984 . S
H365 N359 0.985 . S
H366 N363 0.984 . S
H367 N363 0.985 . S
H368 N362 0.984 . S
H369 N362 0.984 . S
H370 N358 0.984 . S
H371 N358 0.985 . S
C372 C373 1.363 . S
C372 C378 1.379 . S
C372 N380 1.356 . S
C373 C372 1.363 . S
C373 C379 1.363 . S
C374 C375 1.363 . S
C374 C379 1.379 . S
C374 N381 1.356 . S
C375 C374 1.363 . S
C375 C378 1.363 . S
N376 C378 1.356 . S
N376 H388 0.984 . S
N376 H389 0.985 . S
N377 C379 1.356 . S
N377 H382 0.984 . S
N377 H383 0.985 . S
C378 C372 1.379 . S
C378 C375 1.363 . S
C378 N376 1.356 . S
C379 C373 1.363 . S
C379 C374 1.379 . S
C379 N377 1.356 . S
N380 C372 1.356 . S
N380 H386 0.984 . S
N380 H387 0.984 . S
N381 C374 1.356 . S
N381 H384 0.984 . S
N381 H385 0.985 . S
H382 N377 0.984 . S
H383 N377 0.985 . S
H384 N381 0.984 . S
H385 N381 0.985 . S
H386 N380 0.984 . S
H387 N380 0.984 . S
H388 N376 0.984 . S
H389 N376 0.985 . S
C390 C391 1.363 . S
C390 C396 1.379 . S
C390 N398 1.356 . S
C391 C390 1.363 . S
C391 C397 1.363 . S
C392 C393 1.363 . S
C392 C397 1.379 . S
C392 N399 1.356 . S
C393 C392 1.363 . S
C393 C396 1.363 . S
N394 C396 1.356 . S
N394 H406 0.984 . S
N394 H407 0.985 . S
N395 C397 1.356 . S
N395 H400 0.984 . S
N395 H401 0.985 . S
C396 C390 1.379 . S
C396 C393 1.363 . S
C396 N394 1.356 . S
C397 C391 1.363 . S
C397 C392 1.379 . S
C397 N395 1.356 . S
N398 C390 1.356 . S
N398 H404 0.984 . S
N398 H405 0.984 . S
N399 C392 1.356 . S
N399 H402 0.984 . S
N399 H403 0.985 . S
H400 N395 0.984 . S
H401 N395 0.985 . S
H402 N399 0.984 . S
H403 N399 0.985 . S
H404 N398 0.984 . S
H405 N398 0.984 . S
H406 N394 0.984 . S
H407 N394 0.985 . S
C408 C409 1.363 . S
C408 C414 1.379 . S
C408 N416 1.356 . S
C409 C408 1.363 . S
C409 C415 1.363 . S
C410 C411 1.363 . S
C410 C415 1.379 . S
C410 N417 1.356 . S
C411 C410 1.363 . S
C411 C414 1.363 . S
N412 C414 1.356 . S
N412 H424 0.984 . S
N412 H425 0.985 . S
N413 C415 1.356 . S
N413 H418 0.984 . S
N413 H419 0.985 . S
C414 C408 1.379 . S
C414 C411 1.363 . S
C414 N412 1.356 . S
C415 C409 1.363 . S
C415 C410 1.379 . S
C415 N413 1.356 . S
N416 C408 1.356 . S
N416 H422 0.984 . S
N416 H423 0.984 . S
N417 C410 1.356 . S
N417 H420 0.984 . S
N417 H421 0.985 . S
H418 N413 0.984 . S
H419 N413 0.985 . S
H420 N417 0.984 . S
H421 N417 0.985 . S
H422 N416 0.984 . S
H423 N416 0.984 . S
H424 N412 0.984 . S
H425 N412 0.985 . S
C426 C427 1.363 . S
C426 C432 1.379 . S
C426 N434 1.356 . S
C427 C426 1.363 . S
C427 C433 1.363 . S
C428 C429 1.363 . S
C428 C433 1.379 . S
C428 N435 1.356 . S
C429 C428 1.363 . S
C429 C432 1.363 . S
N430 C432 1.356 . S
N430 H442 0.984 . S
N430 H443 0.985 . S
N431 C433 1.356 . S
N431 H436 0.984 . S
N431 H437 0.985 . S
C432 C426 1.379 . S
C432 C429 1.363 . S
C432 N430 1.356 . S
C433 C427 1.363 . S
C433 C428 1.379 . S
C433 N431 1.356 . S
N434 C426 1.356 . S
N434 H440 0.984 . S
N434 H441 0.984 . S
N435 C428 1.356 . S
N435 H438 0.984 . S
N435 H439 0.985 . S
H436 N431 0.984 . S
H437 N431 0.985 . S
H438 N435 0.984 . S
H439 N435 0.985 . S
H440 N434 0.984 . S
H441 N434 0.984 . S
H442 N430 0.984 . S
H443 N430 0.985 . S
C444 C445 1.363 . S
C444 C450 1.379 . S
C444 N452 1.356 . S
C445 C444 1.363 . S
C445 C451 1.363 . S
C446 C447 1.363 . S
C446 C451 1.379 . S
C446 N453 1.356 . S
C447 C446 1.363 . S
C447 C450 1.363 . S
N448 C450 1.356 . S
N448 H460 0.984 . S
N448 H461 0.985 . S
N449 C451 1.356 . S
N449 H454 0.984 . S
N449 H455 0.985 . S
C450 C444 1.379 . S
C450 C447 1.363 . S
C450 N448 1.356 . S
C451 C445 1.363 . S
C451 C446 1.379 . S
C451 N449 1.356 . S
N452 C444 1.356 . S
N452 H458 0.984 . S
N452 H459 0.984 . S
N453 C446 1.356 . S
N453 H456 0.984 . S
N453 H457 0.985 . S
H454 N449 0.984 . S
H455 N449 0.985 . S
H456 N453 0.984 . S
H457 N453 0.985 . S
H458 N452 0.984 . S
H459 N452 0.984 . S
H460 N448 0.984 . S
H461 N448 0.985 . S
C462 C463 1.363 . S
C462 C468 1.379 . S
C462 N470 1.356 . S
C463 C462 1.363 . S
C463 C469 1.363 . S
C464 C465 1.363 . S
C464 C469 1.379 . S
C464 N471 1.356 . S
C465 C464 1.363 . S
C465 C468 1.363 . S
N466 C468 1.356 . S
N466 H478 0.984 . S
N466 H479 0.985 . S
N467 C469 1.356 . S
N467 H472 0.984 . S
N467 H473 0.985 . S
C468 C462 1.379 . S
C468 C465 1.363 . S
C468 N466 1.356 . S
C469 C463 1.363 . S
C469 C464 1.379 . S
C469 N467 1.356 . S
N470 C462 1.356 . S
N470 H476 0.984 . S
N470 H477 0.984 . S
N471 C464 1.356 . S
N471 H474 0.984 . S
N471 H475 0.985 . S
H472 N467 0.984 . S
H473 N467 0.985 . S
H474 N471 0.984 . S
H475 N471 0.985 . S
H476 N470 0.984 . S
H477 N470 0.984 . S
H478 N466 0.984 . S
H479 N466 0.985 . S
C480 C481 1.363 . S
C480 C486 1.379 . S
C480 N488 1.356 . S
C481 C480 1.363 . S
C481 C487 1.363 . S
C482 C483 1.363 . S
C482 C487 1.379 . S
C482 N489 1.356 . S
C483 C482 1.363 . S
C483 C486 1.363 . S
N484 C486 1.356 . S
N484 H496 0.984 . S
N484 H497 0.985 . S
N485 C487 1.356 . S
N485 H490 0.984 . S
N485 H491 0.985 . S
C486 C480 1.379 . S
C486 C483 1.363 . S
C486 N484 1.356 . S
C487 C481 1.363 . S
C487 C482 1.379 . S
C487 N485 1.356 . S
N488 C480 1.356 . S
N488 H494 0.984 . S
N488 H495 0.984 . S
N489 C482 1.356 . S
N489 H492 0.984 . S
N489 H493 0.985 . S
H490 N485 0.984 . S
H491 N485 0.985 . S
H492 N489 0.984 . S
H493 N489 0.985 . S
H494 N488 0.984 . S
H495 N488 0.984 . S
H496 N484 0.984 . S
H497 N484 0.985 . S
C498 C499 1.363 . S
C498 C504 1.379 . S
C498 N506 1.356 . S
C499 C498 1.363 . S
C499 C505 1.363 . S
C500 C501 1.363 . S
C500 C505 1.379 . S
C500 N507 1.356 . S
C501 C500 1.363 . S
C501 C504 1.363 . S
N502 C504 1.356 . S
N502 H514 0.984 . S
N502 H515 0.985 . S
N503 C505 1.356 . S
N503 H508 0.984 . S
N503 H509 0.985 . S
C504 C498 1.379 . S
C504 C501 1.363 . S
C504 N502 1.356 . S
C505 C499 1.363 . S
C505 C500 1.379 . S
C505 N503 1.356 . S
N506 C498 1.356 . S
N506 H512 0.984 . S
N506 H513 0.984 . S
N507 C500 1.356 . S
N507 H510 0.984 . S
N507 H511 0.985 . S
H508 N503 0.984 . S
H509 N503 0.985 . S
H510 N507 0.984 . S
H511 N507 0.985 . S
H512 N506 0.984 . S
H513 N506 0.984 . S
H514 N502 0.984 . S
H515 N502 0.985 . S
C516 C517 1.363 . S
C516 C522 1.379 . S
C516 N524 1.356 . S
C517 C516 1.363 . S
C517 C523 1.363 . S
C518 C519 1.363 . S
C518 C523 1.379 . S
C518 N525 1.356 . S
C519 C518 1.363 . S
C519 C522 1.363 . S
N520 C522 1.356 . S
N520 H532 0.984 . S
N520 H533 0.985 . S
N521 C523 1.356 . S
N521 H526 0.984 . S
N521 H527 0.985 . S
C522 C516 1.379 . S
C522 C519 1.363 . S
C522 N520 1.356 . S
C523 C517 1.363 . S
C523 C518 1.379 . S
C523 N521 1.356 . S
N524 C516 1.356 . S
N524 H530 0.984 . S
N524 H531 0.984 . S
N525 C518 1.356 . S
N525 H528 0.984 . S
N525 H529 0.985 . S
H526 N521 0.984 . S
H527 N521 0.985 . S
H528 N525 0.984 . S
H529 N525 0.985 . S
H530 N524 0.984 . S
H531 N524 0.984 . S
H532 N520 0.984 . S
H533 N520 0.985 . S
C534 C535 1.363 . S
C534 C540 1.379 . S
C534 N542 1.356 . S
C535 C534 1.363 . S
C535 C541 1.363 . S
C536 C537 1.363 . S
C536 C541 1.379 . S
C536 N543 1.356 . S
C537 C536 1.363 . S
C537 C540 1.363 . S
N538 C540 1.356 . S
N538 H550 0.984 . S
N538 H551 0.985 . S
N539 C541 1.356 . S
N539 H544 0.984 . S
N539 H545 0.985 . S
C540 C534 1.379 . S
C540 C537 1.363 . S
C540 N538 1.356 . S
C541 C535 1.363 . S
C541 C536 1.379 . S
C541 N539 1.356 . S
N542 C534 1.356 . S
N542 H548 0.984 . S
N542 H549 0.984 . S
N543 C536 1.356 . S
N543 H546 0.984 . S
N543 H547 0.985 . S
H544 N539 0.984 . S
H545 N539 0.985 . S
H546 N543 0.984 . S
H547 N543 0.985 . S
H548 N542 0.984 . S
H549 N542 0.984 . S
H550 N538 0.984 . S
H551 N538 0.985 . S
C552 C553 1.363 1_554 S
C552 C558 1.379 . S
C552 N560 1.356 . S
C553 C552 1.363 1_556 S
C553 C559 1.363 . S
C554 C555 1.363 1_556 S
C554 C559 1.379 . S
C554 N561 1.356 . S
C555 C554 1.363 1_554 S
C555 C558 1.363 . S
N556 C558 1.356 . S
N556 H568 0.984 . S
N556 H569 0.985 . S
N557 C559 1.356 . S
N557 H562 0.984 . S
N557 H563 0.985 . S
C558 C552 1.379 . S
C558 C555 1.363 . S
C558 N556 1.356 . S
C559 C553 1.363 . S
C559 C554 1.379 . S
C559 N557 1.356 . S
N560 C552 1.356 . S
N560 H566 0.984 . S
N560 H567 0.984 . S
N561 C554 1.356 . S
N561 H564 0.984 . S
N561 H565 0.985 . S
H562 N557 0.984 . S
H563 N557 0.985 . S
H564 N561 0.984 . S
H565 N561 0.985 . S
H566 N560 0.984 . S
H567 N560 0.984 . S
H568 N556 0.984 . S
H569 N556 0.985 . S
C570 C571 1.363 . S
C570 C576 1.379 . S
C570 N578 1.356 . S
C571 C570 1.363 . S
C571 C577 1.363 . S
C572 C573 1.363 . S
C572 C577 1.379 . S
C572 N579 1.356 . S
C573 C572 1.363 . S
C573 C576 1.363 . S
N574 C576 1.356 . S
N574 H586 0.984 . S
N574 H587 0.985 . S
N575 C577 1.356 . S
N575 H580 0.984 . S
N575 H581 0.985 . S
C576 C570 1.379 . S
C576 C573 1.363 . S
C576 N574 1.356 . S
C577 C571 1.363 . S
C577 C572 1.379 . S
C577 N575 1.356 . S
N578 C570 1.356 . S
N578 H584 0.984 . S
N578 H585 0.984 . S
N579 C572 1.356 . S
N579 H582 0.984 . S
N579 H583 0.985 . S
H580 N575 0.984 . S
H581 N575 0.985 . S
H582 N579 0.984 . S
H583 N579 0.985 . S
H584 N578 0.984 . S
H585 N578 0.984 . S
H586 N574 0.984 . S
H587 N574 0.985 . S
C588 C589 1.363 1_556 S
C588 C594 1.379 . S
C588 N596 1.356 . S
C589 C588 1.363 1_554 S
C589 C595 1.363 . S
C590 C591 1.363 1_554 S
C590 C595 1.379 . S
C590 N597 1.356 . S
C591 C590 1.363 1_556 S
C591 C594 1.363 . S
N592 C594 1.356 . S
N592 H604 0.984 . S
N592 H605 0.985 . S
N593 C595 1.356 . S
N593 H598 0.984 . S
N593 H599 0.985 . S
C594 C588 1.379 . S
C594 C591 1.363 . S
C594 N592 1.356 . S
C595 C589 1.363 . S
C595 C590 1.379 . S
C595 N593 1.356 . S
N596 C588 1.356 . S
N596 H602 0.984 . S
N596 H603 0.984 . S
N597 C590 1.356 . S
N597 H600 0.984 . S
N597 H601 0.985 . S
H598 N593 0.984 . S
H599 N593 0.985 . S
H600 N597 0.984 . S
H601 N597 0.985 . S
H602 N596 0.984 . S
H603 N596 0.984 . S
H604 N592 0.984 . S
H605 N592 0.985 . S
C606 C607 1.363 . S
C606 C612 1.379 . S
C606 N614 1.356 . S
C607 C606 1.363 . S
C607 C613 1.363 . S
C608 C609 1.363 . S
C608 C613 1.379 . S
C608 N615 1.356 . S
C609 C608 1.363 . S
C609 C612 1.363 . S
N610 C612 1.356 . S
N610 H622 0.984 . S
N610 H623 0.985 . S
N611 C613 1.356 . S
N611 H616 0.984 . S
N611 H617 0.985 . S
C612 C606 1.379 . S
C612 C609 1.363 . S
C612 N610 1.356 . S
C613 C607 1.363 . S
C613 C608 1.379 . S
C613 N611 1.356 . S
N614 C606 1.356 . S
N614 H620 0.984 . S
N614 H621 0.984 . S
N615 C608 1.356 . S
N615 H618 0.984 . S
N615 H619 0.985 . S
H616 N611 0.984 . S
H617 N611 0.985 . S
H618 N615 0.984 . S
H619 N615 0.985 . S
H620 N614 0.984 . S
H621 N614 0.984 . S
H622 N610 0.984 . S
H623 N610 0.985 . S
C624 C625 1.363 . S
C624 C630 1.379 . S
C624 N632 1.356 . S
C625 C624 1.363 . S
C625 C631 1.363 1_556 S
C626 C627 1.363 . S
C626 C631 1.379 . S
C626 N633 1.356 . S
C627 C626 1.363 . S
C627 C630 1.363 1_554 S
N628 C630 1.356 . S
N628 H640 0.984 . S
N628 H641 0.985 . S
N629 C631 1.356 . S
N629 H634 0.984 . S
N629 H635 0.985 . S
C630 C624 1.379 . S
C630 C627 1.363 1_556 S
C630 N628 1.356 . S
C631 C625 1.363 1_554 S
C631 C626 1.379 . S
C631 N629 1.356 . S
N632 C624 1.356 . S
N632 H638 0.984 . S
N632 H639 0.984 . S
N633 C626 1.356 . S
N633 H636 0.984 . S
N633 H637 0.985 . S
H634 N629 0.984 . S
H635 N629 0.985 . S
H636 N633 0.984 . S
H637 N633 0.985 . S
H638 N632 0.984 . S
H639 N632 0.984 . S
H640 N628 0.984 . S
H641 N628 0.985 . S
C642 C643 1.363 . S
C642 C648 1.379 . S
C642 N650 1.356 . S
C643 C642 1.363 . S
C643 C649 1.363 . S
C644 C645 1.363 . S
C644 C649 1.379 . S
C644 N651 1.356 . S
C645 C644 1.363 . S
C645 C648 1.363 . S
N646 C648 1.356 . S
N646 H658 0.984 . S
N646 H659 0.985 . S
N647 C649 1.356 . S
N647 H652 0.984 . S
N647 H653 0.985 . S
C648 C642 1.379 . S
C648 C645 1.363 . S
C648 N646 1.356 . S
C649 C643 1.363 . S
C649 C644 1.379 . S
C649 N647 1.356 . S
N650 C642 1.356 . S
N650 H656 0.984 . S
N650 H657 0.984 . S
N651 C644 1.356 . S
N651 H654 0.984 . S
N651 H655 0.985 . S
H652 N647 0.984 . S
H653 N647 0.985 . S
H654 N651 0.984 . S
H655 N651 0.985 . S
H656 N650 0.984 . S
H657 N650 0.984 . S
H658 N646 0.984 . S
H659 N646 0.985 . S
C660 C661 1.363 . S
C660 C666 1.379 . S
C660 N668 1.356 . S
C661 C660 1.363 . S
C661 C667 1.363 1_554 S
C662 C663 1.363 . S
C662 C667 1.379 . S
C662 N669 1.356 . S
C663 C662 1.363 . S
C663 C666 1.363 1_556 S
N664 C666 1.356 . S
N664 H676 0.984 . S
N664 H677 0.985 . S
N665 C667 1.356 . S
N665 H670 0.984 . S
N665 H671 0.985 . S
C666 C660 1.379 . S
C666 C663 1.363 1_554 S
C666 N664 1.356 . S
C667 C661 1.363 1_556 S
C667 C662 1.379 . S
C667 N665 1.356 . S
N668 C660 1.356 . S
N668 H674 0.984 . S
N668 H675 0.984 . S
N669 C662 1.356 . S
N669 H672 0.984 . S
N669 H673 0.985 . S
H670 N665 0.984 . S
H671 N665 0.985 . S
H672 N669 0.984 . S
H673 N669 0.985 . S
H674 N668 0.984 . S
H675 N668 0.984 . S
H676 N664 0.984 . S
H677 N664 0.985 . S
C678 C679 1.363 . S
C678 C684 1.379 . S
C678 N686 1.356 . S
C679 C678 1.363 . S
C679 C685 1.363 . S
C680 C681 1.363 . S
C680 C685 1.379 . S
C680 N687 1.356 . S
C681 C680 1.363 . S
C681 C684 1.363 . S
N682 C684 1.356 . S
N682 H694 0.984 . S
N682 H695 0.985 . S
N683 C685 1.356 . S
N683 H688 0.984 . S
N683 H689 0.985 . S
C684 C678 1.379 . S
C684 C681 1.363 . S
C684 N682 1.356 . S
C685 C679 1.363 . S
C685 C680 1.379 . S
C685 N683 1.356 . S
N686 C678 1.356 . S
N686 H692 0.984 . S
N686 H693 0.984 . S
N687 C680 1.356 . S
N687 H690 0.984 . S
N687 H691 0.985 . S
H688 N683 0.984 . S
H689 N683 0.985 . S
H690 N687 0.984 . S
H691 N687 0.985 . S
H692 N686 0.984 . S
H693 N686 0.984 . S
H694 N682 0.984 . S
H695 N682 0.985 . S
C696 C697 1.363 1_554 S
C696 C702 1.379 . S
C696 N704 1.356 . S
C697 C696 1.363 1_556 S
C697 C703 1.363 . S
C698 C699 1.363 1_556 S
C698 C703 1.379 . S
C698 N705 1.356 . S
C699 C698 1.363 1_554 S
C699 C702 1.363 . S
N700 C702 1.356 . S
N700 H712 0.984 . S
N700 H713 0.985 . S
N701 C703 1.356 . S
N701 H706 0.984 . S
N701 H707 0.985 . S
C702 C696 1.379 . S
C702 C699 1.363 . S
C702 N700 1.356 . S
C703 C697 1.363 . S
C703 C698 1.379 . S
C703 N701 1.356 . S
N704 C696 1.356 . S
N704 H710 0.984 . S
N704 H711 0.984 . S
N705 C698 1.356 . S
N705 H708 0.984 . S
N705 H709 0.985 . S
H706 N701 0.984 . S
H707 N701 0.985 . S
H708 N705 0.984 . S
H709 N705 0.985 . S
H710 N704 0.984 . S
H711 N704 0.984 . S
H712 N700 0.984 . S
H713 N700 0.985 . S
C714 C715 1.363 . S
C714 C720 1.379 . S
C714 N722 1.356 . S
C715 C714 1.363 . S
C715 C721 1.363 . S
C716 C717 1.363 . S
C716 C721 1.379 . S
C716 N723 1.356 . S
C717 C716 1.363 . S
C717 C720 1.363 . S
N718 C720 1.356 . S
N718 H730 0.984 . S
N718 H731 0.985 . S
N719 C721 1.356 . S
N719 H724 0.984 . S
N719 H725 0.985 . S
C720 C714 1.379 . S
C720 C717 1.363 . S
C720 N718 1.356 . S
C721 C715 1.363 . S
C721 C716 1.379 . S
C721 N719 1.356 . S
N722 C714 1.356 . S
N722 H728 0.984 . S
N722 H729 0.984 . S
N723 C716 1.356 . S
N723 H726 0.984 . S
N723 H727 0.985 . S
H724 N719 0.984 . S
H725 N719 0.985 . S
H726 N723 0.984 . S
H727 N723 0.985 . S
H728 N722 0.984 . S
H729 N722 0.984 . S
H730 N718 0.984 . S
H731 N718 0.985 . S
C732 C733 1.363 1_554 S
C732 C738 1.379 . S
C732 N740 1.356 . S
C733 C732 1.363 1_556 S
C733 C739 1.363 . S
C734 C735 1.363 1_556 S
C734 C739 1.379 . S
C734 N741 1.356 . S
C735 C734 1.363 1_554 S
C735 C738 1.363 . S
N736 C738 1.356 . S
N736 H748 0.984 . S
N736 H749 0.985 . S
N737 C739 1.356 . S
N737 H742 0.984 . S
N737 H743 0.985 . S
C738 C732 1.379 . S
C738 C735 1.363 . S
C738 N736 1.356 . S
C739 C733 1.363 . S
C739 C734 1.379 . S
C739 N737 1.356 . S
N740 C732 1.356 . S
N740 H746 0.984 . S
N740 H747 0.984 . S
N741 C734 1.356 . S
N741 H744 0.984 . S
N741 H745 0.985 . S
H742 N737 0.984 . S
H743 N737 0.985 . S
H744 N741 0.984 . S
H745 N741 0.985 . S
H746 N740 0.984 . S
H747 N740 0.984 . S
H748 N736 0.984 . S
H749 N736 0.985 . S
C750 C751 1.363 . S
C750 C756 1.379 . S
C750 N758 1.356 . S
C751 C750 1.363 . S
C751 C757 1.363 . S
C752 C753 1.363 . S
C752 C757 1.379 . S
C752 N759 1.356 . S
C753 C752 1.363 . S
C753 C756 1.363 . S
N754 C756 1.356 . S
N754 H766 0.984 . S
N754 H767 0.985 . S
N755 C757 1.356 . S
N755 H760 0.984 . S
N755 H761 0.985 . S
C756 C750 1.379 . S
C756 C753 1.363 . S
C756 N754 1.356 . S
C757 C751 1.363 . S
C757 C752 1.379 . S
C757 N755 1.356 . S
N758 C750 1.356 . S
N758 H764 0.984 . S
N758 H765 0.984 . S
N759 C752 1.356 . S
N759 H762 0.984 . S
N759 H763 0.985 . S
H760 N755 0.984 . S
H761 N755 0.985 . S
H762 N759 0.984 . S
H763 N759 0.985 . S
H764 N758 0.984 . S
H765 N758 0.984 . S
H766 N754 0.984 . S
H767 N754 0.985 . S
C768 C769 1.363 . S
C768 C774 1.379 . S
C768 N776 1.356 . S
C769 C768 1.363 . S
C769 C775 1.363 . S
C770 C771 1.363 . S
C770 C775 1.379 . S
C770 N777 1.356 . S
C771 C770 1.363 . S
C771 C774 1.363 . S
N772 C774 1.356 . S
N772 H784 0.984 1_554 S
N772 H785 0.985 . S
N773 C775 1.356 . S
N773 H778 0.984 . S
N773 H779 0.985 . S
C774 C768 1.379 . S
C774 C771 1.363 . S
C774 N772 1.356 . S
C775 C769 1.363 . S
C775 C770 1.379 . S
C775 N773 1.356 . S
N776 C768 1.356 . S
N776 H782 0.984 1_554 S
N776 H783 0.984 . S
N777 C770 1.356 . S
N777 H780 0.984 . S
N777 H781 0.985 . S
H778 N773 0.984 . S
H779 N773 0.985 . S
H780 N777 0.984 . S
H781 N777 0.985 . S
H782 N776 0.984 1_556 S
H783 N776 0.984 . S
H784 N772 0.984 1_556 S
H785 N772 0.985 . S
C786 C787 1.363 . S
C786 C792 1.379 1_455 S
C786 N794 1.356 . S
C787 C786 1.363 . S
C787 C793 1.363 . S
C788 C789 1.363 . S
C788 C793 1.379 1_655 S
C788 N795 1.356 . S
C789 C788 1.363 . S
C789 C792 1.363 . S
N790 C792 1.356 . S
N790 H802 0.984 . S
N790 H803 0.985 . S
N791 C793 1.356 . S
N791 H796 0.984 . S
N791 H797 0.985 . S
C792 C786 1.379 1_655 S
C792 C789 1.363 . S
C792 N790 1.356 . S
C793 C787 1.363 . S
C793 C788 1.379 1_455 S
C793 N791 1.356 . S
N794 C786 1.356 . S
N794 H800 0.984 . S
N794 H801 0.984 . S
N795 C788 1.356 . S
N795 H798 0.984 . S
N795 H799 0.985 . S
H796 N791 0.984 . S
H797 N791 0.985 . S
H798 N795 0.984 . S
H799 N795 0.985 . S
H800 N794 0.984 . S
H801 N794 0.984 . S
H802 N790 0.984 . S
H803 N790 0.985 . S
C804 C805 1.363 . S
C804 C810 1.379 1_565 S
C804 N812 1.356 . S
C805 C804 1.363 . S
C805 C811 1.363 . S
C806 C807 1.363 . S
C806 C811 1.379 1_545 S
C806 N813 1.356 . S
C807 C806 1.363 . S
C807 C810 1.363 . S
N808 C810 1.356 . S
N808 H820 0.984 1_554 S
N808 H821 0.985 . S
N809 C811 1.356 . S
N809 H814 0.984 . S
N809 H815 0.985 . S
C810 C804 1.379 1_545 S
C810 C807 1.363 . S
C810 N808 1.356 . S
C811 C805 1.363 . S
C811 C806 1.379 1_565 S
C811 N809 1.356 . S
N812 C804 1.356 . S
N812 H818 0.984 1_554 S
N812 H819 0.984 . S
N813 C806 1.356 . S
N813 H816 0.984 . S
N813 H817 0.985 . S
H814 N809 0.984 . S
H815 N809 0.985 . S
H816 N813 0.984 . S
H817 N813 0.985 . S
H818 N812 0.984 1_556 S
H819 N812 0.984 . S
H820 N808 0.984 1_556 S
H821 N808 0.985 . S
C822 C823 1.363 . S
C822 C828 1.379 . S
C822 N830 1.356 . S
C823 C822 1.363 . S
C823 C829 1.363 . S
C824 C825 1.363 . S
C824 C829 1.379 . S
C824 N831 1.356 . S
C825 C824 1.363 . S
C825 C828 1.363 . S
N826 C828 1.356 . S
N826 H838 0.984 . S
N826 H839 0.985 . S
N827 C829 1.356 . S
N827 H832 0.984 . S
N827 H833 0.985 . S
C828 C822 1.379 . S
C828 C825 1.363 . S
C828 N826 1.356 . S
C829 C823 1.363 . S
C829 C824 1.379 . S
C829 N827 1.356 . S
N830 C822 1.356 . S
N830 H836 0.984 . S
N830 H837 0.984 . S
N831 C824 1.356 . S
N831 H834 0.984 . S
N831 H835 0.985 . S
H832 N827 0.984 . S
H833 N827 0.985 . S
H834 N831 0.984 . S
H835 N831 0.985 . S
H836 N830 0.984 . S
H837 N830 0.984 . S
H838 N826 0.984 . S
H839 N826 0.985 . S
C840 C841 1.363 . S
C840 C846 1.379 1_655 S
C840 N848 1.356 . S
C841 C840 1.363 . S
C841 C847 1.363 . S
C842 C843 1.363 . S
C842 C847 1.379 1_455 S
C842 N849 1.356 . S
C843 C842 1.363 . S
C843 C846 1.363 . S
N844 C846 1.356 . S
N844 H856 0.984 1_554 S
N844 H857 0.985 . S
N845 C847 1.356 . S
N845 H850 0.984 . S
N845 H851 0.985 . S
C846 C840 1.379 1_455 S
C846 C843 1.363 . S
C846 N844 1.356 . S
C847 C841 1.363 . S
C847 C842 1.379 1_655 S
C847 N845 1.356 . S
N848 C840 1.356 . S
N848 H854 0.984 1_554 S
N848 H855 0.984 . S
N849 C842 1.356 . S
N849 H852 0.984 . S
N849 H853 0.985 . S
H850 N845 0.984 . S
H851 N845 0.985 . S
H852 N849 0.984 . S
H853 N849 0.985 . S
H854 N848 0.984 1_556 S
H855 N848 0.984 . S
H856 N844 0.984 1_556 S
H857 N844 0.985 . S
C858 C859 1.363 . S
C858 C864 1.379 1_545 S
C858 N866 1.356 . S
C859 C858 1.363 . S
C859 C865 1.363 . S
C860 C861 1.363 . S
C860 C865 1.379 1_565 S
C860 N867 1.356 . S
C861 C860 1.363 . S
C861 C864 1.363 . S
N862 C864 1.356 . S
N862 H874 0.984 . S
N862 H875 0.985 . S
N863 C865 1.356 . S
N863 H868 0.984 . S
N863 H869 0.985 . S
C864 C858 1.379 1_565 S
C864 C861 1.363 . S
C864 N862 1.356 . S
C865 C859 1.363 . S
C865 C860 1.379 1_545 S
C865 N863 1.356 . S
N866 C858 1.356 . S
N866 H872 0.984 . S
N866 H873 0.984 . S
N867 C860 1.356 . S
N867 H870 0.984 . S
N867 H871 0.985 . S
H868 N863 0.984 . S
H869 N863 0.985 . S
H870 N867 0.984 . S
H871 N867 0.985 . S
H872 N866 0.984 . S
H873 N866 0.984 . S
H874 N862 0.984 . S
H875 N862 0.985 . S
C876 C877 1.363 . S
C876 C882 1.379 . S
C876 N884 1.356 . S
C877 C876 1.363 . S
C877 C883 1.363 . S
C878 C879 1.363 . S
C878 C883 1.379 . S
C878 N885 1.356 . S
C879 C878 1.363 . S
C879 C882 1.363 . S
N880 C882 1.356 . S
N880 H892 0.984 1_556 S
N880 H893 0.985 . S
N881 C883 1.356 . S
N881 H886 0.984 . S
N881 H887 0.985 . S
C882 C876 1.379 . S
C882 C879 1.363 . S
C882 N880 1.356 . S
C883 C877 1.363 . S
C883 C878 1.379 . S
C883 N881 1.356 . S
N884 C876 1.356 . S
N884 H890 0.984 1_556 S
N884 H891 0.984 . S
N885 C878 1.356 . S
N885 H888 0.984 . S
N885 H889 0.985 . S
H886 N881 0.984 . S
H887 N881 0.985 . S
H888 N885 0.984 . S
H889 N885 0.985 . S
H890 N884 0.984 1_554 S
H891 N884 0.984 . S
H892 N880 0.984 1_554 S
H893 N880 0.985 . S
C894 C895 1.363 . S
C894 C900 1.379 1_655 S
C894 N902 1.356 . S
C895 C894 1.363 . S
C895 C901 1.363 . S
C896 C897 1.363 . S
C896 C901 1.379 1_455 S
C896 N903 1.356 . S
C897 C896 1.363 . S
C897 C900 1.363 . S
N898 C900 1.356 . S
N898 H910 0.984 . S
N898 H911 0.985 . S
N899 C901 1.356 . S
N899 H904 0.984 . S
N899 H905 0.985 . S
C900 C894 1.379 1_455 S
C900 C897 1.363 . S
C900 N898 1.356 . S
C901 C895 1.363 . S
C901 C896 1.379 1_655 S
C901 N899 1.356 . S
N902 C894 1.356 . S
N902 H908 0.984 . S
N902 H909 0.984 . S
N903 C896 1.356 . S
N903 H906 0.984 . S
N903 H907 0.985 . S
H904 N899 0.984 . S
H905 N899 0.985 . S
H906 N903 0.984 . S
H907 N903 0.985 . S
H908 N902 0.984 . S
H909 N902 0.984 . S
H910 N898 0.984 . S
H911 N898 0.985 . S
C912 C913 1.363 . S
C912 C918 1.379 1_545 S
C912 N920 1.356 . S
C913 C912 1.363 . S
C913 C919 1.363 . S
C914 C915 1.363 . S
C914 C919 1.379 1_565 S
C914 N921 1.356 . S
C915 C914 1.363 . S
C915 C918 1.363 . S
N916 C918 1.356 . S
N916 H928 0.984 1_556 S
N916 H929 0.985 . S
N917 C919 1.356 . S
N917 H922 0.984 . S
N917 H923 0.985 . S
C918 C912 1.379 1_565 S
C918 C915 1.363 . S
C918 N916 1.356 . S
C919 C913 1.363 . S
C919 C914 1.379 1_545 S
C919 N917 1.356 . S
N920 C912 1.356 . S
N920 H926 0.984 1_556 S
N920 H927 0.984 . S
N921 C914 1.356 . S
N921 H924 0.984 . S
N921 H925 0.985 . S
H922 N917 0.984 . S
H923 N917 0.985 . S
H924 N921 0.984 . S
H925 N921 0.985 . S
H926 N920 0.984 1_554 S
H927 N920 0.984 . S
H928 N916 0.984 1_554 S
H929 N916 0.985 . S
C930 C931 1.363 . S
C930 C936 1.379 . S
C930 N938 1.356 . S
C931 C930 1.363 . S
C931 C937 1.363 . S
C932 C933 1.363 . S
C932 C937 1.379 . S
C932 N939 1.356 . S
C933 C932 1.363 . S
C933 C936 1.363 . S
N934 C936 1.356 . S
N934 H946 0.984 . S
N934 H947 0.985 . S
N935 C937 1.356 . S
N935 H940 0.984 . S
N935 H941 0.985 . S
C936 C930 1.379 . S
C936 C933 1.363 . S
C936 N934 1.356 . S
C937 C931 1.363 . S
C937 C932 1.379 . S
C937 N935 1.356 . S
N938 C930 1.356 . S
N938 H944 0.984 . S
N938 H945 0.984 . S
N939 C932 1.356 . S
N939 H942 0.984 . S
N939 H943 0.985 . S
H940 N935 0.984 . S
H941 N935 0.985 . S
H942 N939 0.984 . S
H943 N939 0.985 . S
H944 N938 0.984 . S
H945 N938 0.984 . S
H946 N934 0.984 . S
H947 N934 0.985 . S
C948 C949 1.363 . S
C948 C954 1.379 1_455 S
C948 N956 1.356 . S
C949 C948 1.363 . S
C949 C955 1.363 . S
C950 C951 1.363 . S
C950 C955 1.379 1_655 S
C950 N957 1.356 . S
C951 C950 1.363 . S
C951 C954 1.363 . S
N952 C954 1.356 . S
N952 H964 0.984 1_556 S
N952 H965 0.985 . S
N953 C955 1.356 . S
N953 H958 0.984 . S
N953 H959 0.985 . S
C954 C948 1.379 1_655 S
C954 C951 1.363 . S
C954 N952 1.356 . S
C955 C949 1.363 . S
C955 C950 1.379 1_455 S
C955 N953 1.356 . S
N956 C948 1.356 . S
N956 H962 0.984 1_556 S
N956 H963 0.984 . S
N957 C950 1.356 . S
N957 H960 0.984 . S
N957 H961 0.985 . S
H958 N953 0.984 . S
H959 N953 0.985 . S
H960 N957 0.984 . S
H961 N957 0.985 . S
H962 N956 0.984 1_554 S
H963 N956 0.984 . S
H964 N952 0.984 1_554 S
H965 N952 0.985 . S
C966 C967 1.363 . S
C966 C972 1.379 1_565 S
C966 N974 1.356 . S
C967 C966 1.363 . S
C967 C973 1.363 . S
C968 C969 1.363 . S
C968 C973 1.379 1_545 S
C968 N975 1.356 . S
C969 C968 1.363 . S
C969 C972 1.363 . S
N970 C972 1.356 . S
N970 H982 0.984 . S
N970 H983 0.985 . S
N971 C973 1.356 . S
N971 H976 0.984 . S
N971 H977 0.985 . S
C972 C966 1.379 1_545 S
C972 C969 1.363 . S
C972 N970 1.356 . S
C973 C967 1.363 . S
C973 C968 1.379 1_565 S
C973 N971 1.356 . S
N974 C966 1.356 . S
N974 H980 0.984 . S
N974 H981 0.984 . S
N975 C968 1.356 . S
N975 H978 0.984 . S
N975 H979 0.985 . S
H976 N971 0.984 . S
H977 N971 0.985 . S
H978 N975 0.984 . S
H979 N975 0.985 . S
H980 N974 0.984 . S
H981 N974 0.984 . S
H982 N970 0.984 . S
H983 N970 0.985 . S
C984 C985 1.363 . S
C984 C990 1.379 . S
C984 N992 1.356 . S
C985 C984 1.363 . S
C985 C991 1.363 1_556 S
C986 C987 1.363 . S
C986 C991 1.379 . S
C986 N993 1.356 . S
C987 C986 1.363 . S
C987 C990 1.363 1_554 S
N988 C990 1.356 . S
N988 H1000 0.984 . S
N988 H1001 0.985 . S
N989 C991 1.356 . S
N989 H994 0.984 . S
N989 H995 0.985 . S
C990 C984 1.379 . S
C990 C987 1.363 1_556 S
C990 N988 1.356 . S
C991 C985 1.363 1_554 S
C991 C986 1.379 . S
C991 N989 1.356 . S
N992 C984 1.356 . S
N992 H998 0.984 . S
N992 H999 0.984 . S
N993 C986 1.356 . S
N993 H996 0.984 . S
N993 H997 0.985 . S
H994 N989 0.984 . S
H995 N989 0.985 . S
H996 N993 0.984 . S
H997 N993 0.985 . S
H998 N992 0.984 . S
H999 N992 0.984 . S
H1000 N988 0.984 . S
H1001 N988 0.985 . S
C1002 C1003 1.363 . S
C1002 C1008 1.379 . S
C1002 N1010 1.356 . S
C1003 C1002 1.363 . S
C1003 C1009 1.363 . S
C1004 C1005 1.363 . S
C1004 C1009 1.379 . S
C1004 N1011 1.356 . S
C1005 C1004 1.363 . S
C1005 C1008 1.363 . S
N1006 C1008 1.356 . S
N1006 H1018 0.984 . S
N1006 H1019 0.985 . S
N1007 C1009 1.356 . S
N1007 H1012 0.984 . S
N1007 H1013 0.985 . S
C1008 C1002 1.379 . S
C1008 C1005 1.363 . S
C1008 N1006 1.356 . S
C1009 C1003 1.363 . S
C1009 C1004 1.379 . S
C1009 N1007 1.356 . S
N1010 C1002 1.356 . S
N1010 H1016 0.984 . S
N1010 H1017 0.984 . S
N1011 C1004 1.356 . S
N1011 H1014 0.984 . S
N1011 H1015 0.985 . S
H1012 N1007 0.984 . S
H1013 N1007 0.985 . S
H1014 N1011 0.984 . S
H1015 N1011 0.985 . S
H1016 N1010 0.984 . S
H1017 N1010 0.984 . S
H1018 N1006 0.984 . S
H1019 N1006 0.985 . S
C1020 C1021 1.363 1_554 S
C1020 C1026 1.379 . S
C1020 N1028 1.356 . S
C1021 C1020 1.363 1_556 S
C1021 C1027 1.363 . S
C1022 C1023 1.363 1_556 S
C1022 C1027 1.379 . S
C1022 N1029 1.356 . S
C1023 C1022 1.363 1_554 S
C1023 C1026 1.363 . S
N1024 C1026 1.356 . S
N1024 H1036 0.984 . S
N1024 H1037 0.985 . S
N1025 C1027 1.356 . S
N1025 H1030 0.984 . S
N1025 H1031 0.985 . S
C1026 C1020 1.379 . S
C1026 C1023 1.363 . S
C1026 N1024 1.356 . S
C1027 C1021 1.363 . S
C1027 C1022 1.379 . S
C1027 N1025 1.356 . S
N1028 C1020 1.356 . S
N1028 H1034 0.984 . S
N1028 H1035 0.984 1_554 S
N1029 C1022 1.356 . S
N1029 H1032 0.984 1_556 S
N1029 H1033 0.985 . S
H1030 N1025 0.984 . S
H1031 N1025 0.985 . S
H1032 N1029 0.984 1_554 S
H1033 N1029 0.985 . S
H1034 N1028 0.984 . S
H1035 N1028 0.984 1_556 S
H1036 N1024 0.984 . S
H1037 N1024 0.985 . S
C1038 C1039 1.363 . S
C1038 C1044 1.379 . S
C1038 N1046 1.356 . S
C1039 C1038 1.363 . S
C1039 C1045 1.363 . S
C1040 C1041 1.363 . S
C1040 C1045 1.379 . S
C1040 N1047 1.356 . S
C1041 C1040 1.363 . S
C1041 C1044 1.363 . S
N1042 C1044 1.356 . S
N1042 H1054 0.984 . S
N1042 H1055 0.985 . S
N1043 C1045 1.356 . S
N1043 H1048 0.984 . S
N1043 H1049 0.985 . S
C1044 C1038 1.379 . S
C1044 C1041 1.363 . S
C1044 N1042 1.356 . S
C1045 C1039 1.363 . S
C1045 C1040 1.379 . S
C1045 N1043 1.356 . S
N1046 C1038 1.356 . S
N1046 H1052 0.984 . S
N1046 H1053 0.984 . S
N1047 C1040 1.356 . S
N1047 H1050 0.984 . S
N1047 H1051 0.985 . S
H1048 N1043 0.984 . S
H1049 N1043 0.985 . S
H1050 N1047 0.984 . S
H1051 N1047 0.985 . S
H1052 N1046 0.984 . S
H1053 N1046 0.984 . S
H1054 N1042 0.984 . S
H1055 N1042 0.985 . S
C1056 C1057 1.363 1_554 S
C1056 C1062 1.379 . S
C1056 N1064 1.356 . S
C1057 C1056 1.363 1_556 S
C1057 C1063 1.363 . S
C1058 C1059 1.363 1_556 S
C1058 C1063 1.379 . S
C1058 N1065 1.356 . S
C1059 C1058 1.363 1_554 S
C1059 C1062 1.363 . S
N1060 C1062 1.356 . S
N1060 H1072 0.984 . S
N1060 H1073 0.985 . S
N1061 C1063 1.356 . S
N1061 H1066 0.984 . S
N1061 H1067 0.985 . S
C1062 C1056 1.379 . S
C1062 C1059 1.363 . S
C1062 N1060 1.356 . S
C1063 C1057 1.363 . S
C1063 C1058 1.379 . S
C1063 N1061 1.356 . S
N1064 C1056 1.356 . S
N1064 H1070 0.984 . S
N1064 H1071 0.984 . S
N1065 C1058 1.356 . S
N1065 H1068 0.984 . S
N1065 H1069 0.985 . S
H1066 N1061 0.984 . S
H1067 N1061 0.985 . S
H1068 N1065 0.984 . S
H1069 N1065 0.985 . S
H1070 N1064 0.984 . S
H1071 N1064 0.984 . S
H1072 N1060 0.984 . S
H1073 N1060 0.985 . S
C1074 C1075 1.363 . S
C1074 C1080 1.379 . S
C1074 N1082 1.356 . S
C1075 C1074 1.363 . S
C1075 C1081 1.363 . S
C1076 C1077 1.363 . S
C1076 C1081 1.379 . S
C1076 N1083 1.356 . S
C1077 C1076 1.363 . S
C1077 C1080 1.363 . S
N1078 C1080 1.356 . S
N1078 H1090 0.984 . S
N1078 H1091 0.985 . S
N1079 C1081 1.356 . S
N1079 H1084 0.984 . S
N1079 H1085 0.985 . S
C1080 C1074 1.379 . S
C1080 C1077 1.363 . S
C1080 N1078 1.356 . S
C1081 C1075 1.363 . S
C1081 C1076 1.379 . S
C1081 N1079 1.356 . S
N1082 C1074 1.356 . S
N1082 H1088 0.984 . S
N1082 H1089 0.984 . S
N1083 C1076 1.356 . S
N1083 H1086 0.984 . S
N1083 H1087 0.985 . S
H1084 N1079 0.984 . S
H1085 N1079 0.985 . S
H1086 N1083 0.984 . S
H1087 N1083 0.985 . S
H1088 N1082 0.984 . S
H1089 N1082 0.984 . S
H1090 N1078 0.984 . S
H1091 N1078 0.985 . S
C1092 C1093 1.363 . S
C1092 C1098 1.379 1_554 S
C1092 N1100 1.356 . S
C1093 C1092 1.363 . S
C1093 C1099 1.363 . S
C1094 C1095 1.363 . S
C1094 C1099 1.379 1_556 S
C1094 N1101 1.356 . S
C1095 C1094 1.363 . S
C1095 C1098 1.363 . S
N1096 C1098 1.356 . S
N1096 H1108 0.984 . S
N1096 H1109 0.985 . S
N1097 C1099 1.356 . S
N1097 H1102 0.984 . S
N1097 H1103 0.985 . S
C1098 C1092 1.379 1_556 S
C1098 C1095 1.363 . S
C1098 N1096 1.356 . S
C1099 C1093 1.363 . S
C1099 C1094 1.379 1_554 S
C1099 N1097 1.356 . S
N1100 C1092 1.356 . S
N1100 H1106 0.984 . S
N1100 H1107 0.984 . S
N1101 C1094 1.356 . S
N1101 H1104 0.984 . S
N1101 H1105 0.985 . S
H1102 N1097 0.984 . S
H1103 N1097 0.985 . S
H1104 N1101 0.984 . S
H1105 N1101 0.985 . S
H1106 N1100 0.984 . S
H1107 N1100 0.984 . S
H1108 N1096 0.984 . S
H1109 N1096 0.985 . S
C1110 C1111 1.363 . S
C1110 C1116 1.379 . S
C1110 N1118 1.356 . S
C1111 C1110 1.363 . S
C1111 C1117 1.363 . S
C1112 C1113 1.363 . S
C1112 C1117 1.379 . S
C1112 N1119 1.356 . S
C1113 C1112 1.363 . S
C1113 C1116 1.363 . S
N1114 C1116 1.356 . S
N1114 H1126 0.984 . S
N1114 H1127 0.985 . S
N1115 C1117 1.356 . S
N1115 H1120 0.984 . S
N1115 H1121 0.985 . S
C1116 C1110 1.379 . S
C1116 C1113 1.363 . S
C1116 N1114 1.356 . S
C1117 C1111 1.363 . S
C1117 C1112 1.379 . S
C1117 N1115 1.356 . S
N1118 C1110 1.356 . S
N1118 H1124 0.984 . S
N1118 H1125 0.984 . S
N1119 C1112 1.356 . S
N1119 H1122 0.984 . S
N1119 H1123 0.985 . S
H1120 N1115 0.984 . S
H1121 N1115 0.985 . S
H1122 N1119 0.984 . S
H1123 N1119 0.985 . S
H1124 N1118 0.984 . S
H1125 N1118 0.984 . S
H1126 N1114 0.984 . S
H1127 N1114 0.985 . S
C1128 C1129 1.363 . S
C1128 C1134 1.379 . S
C1128 N1136 1.356 . S
C1129 C1128 1.363 . S
C1129 C1135 1.363 1_554 S
C1130 C1131 1.363 . S
C1130 C1135 1.379 . S
C1130 N1137 1.356 . S
C1131 C1130 1.363 . S
C1131 C1134 1.363 1_556 S
N1132 C1134 1.356 . S
N1132 H1144 0.984 . S
N1132 H1145 0.985 1_554 S
N1133 C1135 1.356 . S
N1133 H1138 0.984 1_556 S
N1133 H1139 0.985 . S
C1134 C1128 1.379 . S
C1134 C1131 1.363 1_554 S
C1134 N1132 1.356 . S
C1135 C1129 1.363 1_556 S
C1135 C1130 1.379 . S
C1135 N1133 1.356 . S
N1136 C1128 1.356 . S
N1136 H1142 0.984 . S
N1136 H1143 0.984 . S
N1137 C1130 1.356 . S
N1137 H1140 0.984 . S
N1137 H1141 0.985 . S
H1138 N1133 0.984 1_554 S
H1139 N1133 0.985 . S
H1140 N1137 0.984 . S
H1141 N1137 0.985 . S
H1142 N1136 0.984 . S
H1143 N1136 0.984 . S
H1144 N1132 0.984 . S
H1145 N1132 0.985 1_556 S
C1146 C1147 1.363 . S
C1146 C1152 1.379 . S
C1146 N1154 1.356 . S
C1147 C1146 1.363 . S
C1147 C1153 1.363 . S
C1148 C1149 1.363 . S
C1148 C1153 1.379 . S
C1148 N1155 1.356 . S
C1149 C1148 1.363 . S
C1149 C1152 1.363 . S
N1150 C1152 1.356 . S
N1150 H1162 0.984 . S
N1150 H1163 0.985 . S
N1151 C1153 1.356 . S
N1151 H1156 0.984 . S
N1151 H1157 0.985 . S
C1152 C1146 1.379 . S
C1152 C1149 1.363 . S
C1152 N1150 1.356 . S
C1153 C1147 1.363 . S
C1153 C1148 1.379 . S
C1153 N1151 1.356 . S
N1154 C1146 1.356 . S
N1154 H1160 0.984 . S
N1154 H1161 0.984 . S
N1155 C1148 1.356 . S
N1155 H1158 0.984 . S
N1155 H1159 0.985 . S
H1156 N1151 0.984 . S
H1157 N1151 0.985 . S
H1158 N1155 0.984 . S
H1159 N1155 0.985 . S
H1160 N1154 0.984 . S
H1161 N1154 0.984 . S
H1162 N1150 0.984 . S
H1163 N1150 0.985 . S
C1164 C1165 1.363 1_554 S
C1164 C1170 1.379 . S
C1164 N1172 1.356 . S
C1165 C1164 1.363 1_556 S
C1165 C1171 1.363 . S
C1166 C1167 1.363 1_556 S
C1166 C1171 1.379 . S
C1166 N1173 1.356 . S
C1167 C1166 1.363 1_554 S
C1167 C1170 1.363 . S
N1168 C1170 1.356 . S
N1168 H1180 0.984 . S
N1168 H1181 0.985 . S
N1169 C1171 1.356 . S
N1169 H1174 0.984 . S
N1169 H1175 0.985 . S
C1170 C1164 1.379 . S
C1170 C1167 1.363 . S
C1170 N1168 1.356 . S
C1171 C1165 1.363 . S
C1171 C1166 1.379 . S
C1171 N1169 1.356 . S
N1172 C1164 1.356 . S
N1172 H1178 0.984 . S
N1172 H1179 0.984 1_554 S
N1173 C1166 1.356 . S
N1173 H1176 0.984 1_556 S
N1173 H1177 0.985 . S
H1174 N1169 0.984 . S
H1175 N1169 0.985 . S
H1176 N1173 0.984 1_554 S
H1177 N1173 0.985 . S
H1178 N1172 0.984 . S
H1179 N1172 0.984 1_556 S
H1180 N1168 0.984 . S
H1181 N1168 0.985 . S
C1182 C1183 1.363 . S
C1182 C1188 1.379 . S
C1182 N1190 1.356 . S
C1183 C1182 1.363 . S
C1183 C1189 1.363 . S
C1184 C1185 1.363 . S
C1184 C1189 1.379 . S
C1184 N1191 1.356 . S
C1185 C1184 1.363 . S
C1185 C1188 1.363 . S
N1186 C1188 1.356 . S
N1186 H1198 0.984 . S
N1186 H1199 0.985 . S
N1187 C1189 1.356 . S
N1187 H1192 0.984 . S
N1187 H1193 0.985 . S
C1188 C1182 1.379 . S
C1188 C1185 1.363 . S
C1188 N1186 1.356 . S
C1189 C1183 1.363 . S
C1189 C1184 1.379 . S
C1189 N1187 1.356 . S
N1190 C1182 1.356 . S
N1190 H1196 0.984 . S
N1190 H1197 0.984 . S
N1191 C1184 1.356 . S
N1191 H1194 0.984 . S
N1191 H1195 0.985 . S
H1192 N1187 0.984 . S
H1193 N1187 0.985 . S
H1194 N1191 0.984 . S
H1195 N1191 0.985 . S
H1196 N1190 0.984 . S
H1197 N1190 0.984 . S
H1198 N1186 0.984 . S
H1199 N1186 0.985 . S
C337 C7 1.498 . S
C339 C217 1.498 . S
C355 C21 1.498 . S
C357 C231 1.498 . S
C373 C245 1.498 . S
C375 C35 1.498 . S
C391 C175 1.498 . S
C393 C49 1.498 . S
C409 C189 1.498 . S
C411 C63 1.498 . S
C427 C203 1.498 . S
C429 C77 1.498 . S
C445 C301 1.498 . S
C447 C91 1.498 . S
C463 C105 1.498 . S
C465 C315 1.498 . S
C481 C329 1.498 . S
C483 C119 1.498 . S
C499 C133 1.498 . S
C501 C259 1.498 . S
C517 C273 1.498 . S
C519 C147 1.498 . S
C535 C161 1.498 . S
C537 C287 1.498 . S
C553 C151 1.317 . S
C555 C11 1.317 . S
C571 C165 1.317 . S
C573 C25 1.317 . S
C589 C39 1.317 . S
C591 C95 1.317 . S
C607 C53 1.317 . S
C609 C109 1.317 . S
C625 C123 1.317 . S
C627 C67 1.317 . S
C643 C81 1.317 . S
C645 C137 1.317 . S
C661 C319 1.317 . S
C663 C179 1.317 . S
C679 C193 1.317 . S
C681 C333 1.317 . S
C697 C207 1.317 . S
C699 C263 1.317 . S
C715 C277 1.317 . S
C717 C221 1.317 . S
C733 C235 1.317 . S
C735 C291 1.317 . S
C751 C249 1.317 . S
C753 C305 1.317 . S
C769 C8 1.181 . S
C771 C260 1.181 . S
C787 C274 1.181 . S
C789 C22 1.181 . S
C805 C36 1.181 . S
C807 C288 1.181 . S
C823 C50 1.181 . S
C825 C302 1.181 . S
C841 C316 1.181 . S
C843 C64 1.181 . S
C859 C78 1.181 . S
C861 C330 1.181 . S
C877 C92 1.181 . S
C879 C176 1.181 . S
C895 C106 1.181 . S
C897 C190 1.181 . S
C913 C204 1.181 . S
C915 C120 1.181 . S
C931 C218 1.181 . S
C933 C134 1.181 . S
C949 C148 1.181 . S
C951 C232 1.181 . S
C967 C246 1.181 . S
C969 C162 1.181 . S
C985 C97 1.451 . S
C987 C13 1.451 . S
C1003 C27 1.451 . S
C1005 C111 1.451 . S
C1021 C125 1.451 . S
C1023 C41 1.451 . S
C1039 C139 1.451 . S
C1041 C55 1.451 . S
C1057 C153 1.451 . S
C1059 C69 1.451 . S
C1075 C83 1.451 . S
C1077 C167 1.451 . S
C1093 C265 1.451 . S
C1095 C181 1.451 . S
C1111 C195 1.451 . S
C1113 C279 1.451 . S
C1129 C293 1.451 . S
C1131 C209 1.451 . S
C1147 C307 1.451 . S
C1149 C223 1.451 . S
C1165 C237 1.451 . S
C1167 C321 1.451 . S
C1183 C251 1.451 . S
C1185 C335 1.451 . S
