# Generated by pormake.
# Topology uov, (4)-cn, num edge types: 1
# Building blocks:
#     Node 0, Type 0, BuildingBlock: ICAMEG_clean_sbu_1, # of connection points: 4
#     Node 1, Type 0, BuildingBlock: ICAMEG_clean_sbu_1, # of connection points: 4
#     Node 2, Type 0, BuildingBlock: ICAMEG_clean_sbu_1, # of connection points: 4
#     Node 3, Type 0, BuildingBlock: ICAMEG_clean_sbu_1, # of connection points: 4
#     Node 4, Type 0, BuildingBlock: ICAMEG_clean_sbu_1, # of connection points: 4
#     Node 5, Type 0, BuildingBlock: ICAMEG_clean_sbu_1, # of connection points: 4
#     Node 6, Type 0, BuildingBlock: ICAMEG_clean_sbu_1, # of connection points: 4
#     Node 7, Type 0, BuildingBlock: ICAMEG_clean_sbu_1, # of connection points: 4
#     Edge 8, Type (0, 0), BuildingBlock: UVAHIK_clean_linker_0, # of connection points: 2
#     Edge 9, Type (0, 0), BuildingBlock: UVAHIK_clean_linker_0, # of connection points: 2
#     Edge 10, Type (0, 0), BuildingBlock: UVAHIK_clean_linker_0, # of connection points: 2
#     Edge 11, Type (0, 0), BuildingBlock: UVAHIK_clean_linker_0, # of connection points: 2
#     Edge 12, Type (0, 0), BuildingBlock: UVAHIK_clean_linker_0, # of connection points: 2
#     Edge 13, Type (0, 0), BuildingBlock: UVAHIK_clean_linker_0, # of connection points: 2
#     Edge 14, Type (0, 0), BuildingBlock: UVAHIK_clean_linker_0, # of connection points: 2
#     Edge 15, Type (0, 0), BuildingBlock: UVAHIK_clean_linker_0, # of connection points: 2
#     Edge 16, Type (0, 0), BuildingBlock: UVAHIK_clean_linker_0, # of connection points: 2
#     Edge 17, Type (0, 0), BuildingBlock: UVAHIK_clean_linker_0, # of connection points: 2
#     Edge 18, Type (0, 0), BuildingBlock: UVAHIK_clean_linker_0, # of connection points: 2
#     Edge 19, Type (0, 0), BuildingBlock: UVAHIK_clean_linker_0, # of connection points: 2
#     Edge 20, Type (0, 0), BuildingBlock: UVAHIK_clean_linker_0, # of connection points: 2
#     Edge 21, Type (0, 0), BuildingBlock: UVAHIK_clean_linker_0, # of connection points: 2
#     Edge 22, Type (0, 0), BuildingBlock: UVAHIK_clean_linker_0, # of connection points: 2
#     Edge 23, Type (0, 0), BuildingBlock: UVAHIK_clean_linker_0, # of connection points: 2
# Relax obj value: 0.052
# Max RMSD: 0.043
# Mean RMSD: 0.043
data_MOF--net-uov--node1-ICAMEG_clean_sbu_1--edge1-UVAHIK_clean_linker_0
_symmetry_space_group_name_H-M    P1
_symmetry_Int_Tables_number       1
_symmetry_cell_setting            triclinic
loop_
_symmetry_equiv_pos_as_xyz
'x, y, z'
_cell_length_a     40.520693
_cell_length_b     40.524208
_cell_length_c     60.042841
_cell_angle_alpha  89.993956
_cell_angle_beta   90.001766
_cell_angle_gamma 90.00464
loop_
_atom_site_label
_atom_site_type_symbol
_atom_site_fract_x
_atom_site_fract_y
_atom_site_fract_z
_atom_type_partial_charge
Co0 Co 0.07066 0.22378 0.61147 0.0
Co1 Co 0.10839 0.28014 0.57659 0.0
O2 O 0.0909 0.26659 0.60552 0.0
C3 C 0.12367 0.22905 0.64523 0.0
O4 O 0.14329 0.23983 0.62943 0.0
C5 C 0.05897 0.33062 0.5877 0.0
O6 O 0.03952 0.30608 0.59328 0.0
O7 O 0.06767 0.26526 0.56093 0.0
O8 O 0.04707 0.22471 0.58231 0.0
H9 H 0.13522 0.26646 0.49541 0.0
H10 H 0.06485 0.27725 0.64493 0.0
O11 O 0.09381 0.22168 0.64085 0.0
H12 H 0.95052 0.24975 0.62379 0.0
H13 H 0.01549 0.13871 0.65994 0.0
H14 H 0.05885 0.16316 0.58499 0.0
H15 H 0.99739 0.21965 0.60725 0.0
H16 H 0.04027 0.19294 0.65163 0.0
O17 O 0.08807 0.32485 0.58064 0.0
H18 H 0.1135 0.24915 0.53197 0.0
H19 H 0.14009 0.34171 0.55988 0.0
H20 H 0.03405 0.1087 0.59251 0.0
H21 H 0.01868 0.30779 0.66202 0.0
H22 H 0.01215 0.09619 0.63023 0.0
H23 H 0.96103 0.29417 0.65139 0.0
O24 O 0.10821 0.20029 0.59726 0.0
H25 H 0.17187 0.33904 0.63648 0.0
H26 H 0.18044 0.26993 0.56913 0.0
H27 H 0.23113 0.28704 0.58872 0.0
H28 H 0.22703 0.32187 0.62264 0.0
H29 H 0.12179 0.32114 0.61647 0.0
H30 H 0.16185 0.36014 0.52357 0.0
H31 H 0.15961 0.32233 0.49104 0.0
O32 O 0.12862 0.23565 0.57189 0.0
C33 C 0.04706 0.2421 0.56461 0.0
C34 C 0.13644 0.28312 0.50947 0.0
C35 C 0.15134 0.33572 0.52527 0.0
N36 N 0.12579 0.29429 0.54806 0.0
C37 C 0.12427 0.27342 0.53023 0.0
C38 C 0.13893 0.32517 0.54577 0.0
C39 C 0.15009 0.31448 0.50703 0.0
C40 C 0.03982 0.27094 0.64042 0.0
N41 N 0.03382 0.24658 0.62521 0.0
C42 C 0.01378 0.28842 0.65007 0.0
C43 C 0.98144 0.2808 0.64407 0.0
C44 C 0.97553 0.25589 0.62857 0.0
C45 C 0.00217 0.23897 0.61923 0.0
C46 C 0.02487 0.14389 0.64343 0.0
C47 C 0.04917 0.15797 0.6014 0.0
C48 C 0.03898 0.17453 0.63864 0.0
N49 N 0.05073 0.18129 0.61779 0.0
C50 C 0.03525 0.12706 0.60558 0.0
C51 C 0.023 0.12005 0.62675 0.0
C52 C 0.12745 0.20727 0.58111 0.0
C53 C 0.17398 0.32394 0.62168 0.0
C54 C 0.17845 0.28502 0.58391 0.0
C55 C 0.20724 0.29469 0.5949 0.0
C56 C 0.20492 0.31425 0.61393 0.0
N57 N 0.1482 0.29465 0.5916 0.0
C58 C 0.14572 0.31385 0.61023 0.0
Co59 Co 0.22603 0.92597 0.39224 0.0
Co60 Co 0.2845 0.89201 0.42702 0.0
O61 O 0.26964 0.90737 0.39787 0.0
C62 C 0.2308 0.87254 0.35865 0.0
O63 O 0.2394 0.85228 0.37471 0.0
C64 C 0.33468 0.94046 0.4135 0.0
O65 O 0.31004 0.95982 0.40797 0.0
O66 O 0.27027 0.93386 0.44147 0.0
O67 O 0.22644 0.94989 0.42133 0.0
H68 H 0.27479 0.87204 0.50936 0.0
H69 H 0.27862 0.9337 0.35829 0.0
O70 O 0.22462 0.90269 0.36291 0.0
H71 H 0.24682 0.04697 0.37925 0.0
H72 H 0.13805 0.97725 0.34419 0.0
H73 H 0.16543 0.93566 0.41914 0.0
H74 H 0.21904 0.99905 0.39627 0.0
H75 H 0.19333 0.95465 0.35217 0.0
O76 O 0.32902 0.91182 0.42137 0.0
H77 H 0.25578 0.89087 0.47245 0.0
H78 H 0.34666 0.86116 0.44348 0.0
H79 H 0.10993 0.95828 0.41194 0.0
H80 H 0.30683 0.98093 0.34071 0.0
H81 H 0.09595 0.97929 0.37423 0.0
H82 H 0.29104 0.03806 0.35125 0.0
O83 O 0.20429 0.88758 0.40682 0.0
H84 H 0.34038 0.82392 0.36815 0.0
H85 H 0.27464 0.82065 0.43724 0.0
H86 H 0.29082 0.7685 0.4191 0.0
H87 H 0.32398 0.76993 0.38432 0.0
H88 H 0.32344 0.8755 0.38675 0.0
H89 H 0.36678 0.84226 0.48011 0.0
H90 H 0.33067 0.84753 0.51335 0.0
O91 O 0.24027 0.87221 0.43337 0.0
C92 C 0.24536 0.95245 0.43823 0.0
C93 C 0.2907 0.86949 0.49498 0.0
C94 C 0.34235 0.85282 0.47857 0.0
N95 N 0.29996 0.8768 0.45581 0.0
C96 C 0.28003 0.88001 0.47404 0.0
C97 C 0.33085 0.86361 0.45789 0.0
C98 C 0.32207 0.85577 0.49721 0.0
C99 C 0.27136 0.95848 0.36278 0.0
N100 N 0.24712 0.9636 0.37821 0.0
C101 C 0.28753 0.98513 0.35285 0.0
C102 C 0.2787 0.01718 0.35879 0.0
C103 C 0.25391 0.02219 0.37452 0.0
C104 C 0.23832 0.99496 0.38414 0.0
C105 C 0.14387 0.96825 0.3607 0.0
C106 C 0.15959 0.94495 0.40273 0.0
C107 C 0.17511 0.95537 0.36531 0.0
N108 N 0.18268 0.94413 0.38616 0.0
C109 C 0.1281 0.95764 0.39874 0.0
C110 C 0.12026 0.96939 0.37757 0.0
C111 C 0.212 0.87076 0.42402 0.0
C112 C 0.32601 0.82297 0.38333 0.0
C113 C 0.289 0.82148 0.42207 0.0
C114 C 0.29814 0.79187 0.41191 0.0
C115 C 0.31676 0.79269 0.3924 0.0
N116 N 0.29824 0.85108 0.41311 0.0
C117 C 0.31646 0.85209 0.39398 0.0
Co118 Co 0.93126 0.77069 0.60926 0.0
Co119 Co 0.89038 0.71669 0.57408 0.0
O120 O 0.90775 0.72963 0.60319 0.0
C121 C 0.87413 0.7714 0.64013 0.0
O122 O 0.85609 0.75853 0.62419 0.0
C123 C 0.93821 0.66505 0.58603 0.0
O124 O 0.95759 0.68911 0.59255 0.0
O125 O 0.93146 0.73095 0.55849 0.0
O126 O 0.95837 0.76503 0.58181 0.0
H127 H 0.864 0.73202 0.49296 0.0
H128 H 0.92695 0.71886 0.64396 0.0
O129 O 0.90461 0.77749 0.63695 0.0
H130 H 0.04596 0.73469 0.63052 0.0
H131 H 0.98765 0.85393 0.65855 0.0
H132 H 0.95313 0.82745 0.58184 0.0
H133 H 0.00483 0.76812 0.61031 0.0
H134 H 0.95877 0.80174 0.65031 0.0
O135 O 0.9098 0.67148 0.578 0.0
H136 H 0.88582 0.74846 0.52967 0.0
H137 H 0.85783 0.65586 0.5569 0.0
H138 H 0.98219 0.8798 0.5893 0.0
H139 H 0.96722 0.68508 0.6647 0.0
H140 H 0.99964 0.89331 0.6279 0.0
H141 H 0.0272 0.69281 0.65795 0.0
O142 O 0.89821 0.7968 0.59217 0.0
H143 H 0.82516 0.65838 0.6334 0.0
H144 H 0.81865 0.72849 0.56641 0.0
H145 H 0.76743 0.71218 0.58568 0.0
H146 H 0.7705 0.67685 0.61943 0.0
H147 H 0.87578 0.67549 0.61371 0.0
H148 H 0.83595 0.63829 0.52043 0.0
H149 H 0.83885 0.67656 0.48817 0.0
O150 O 0.87124 0.7616 0.56963 0.0
C151 C 0.95568 0.74973 0.56334 0.0
C152 C 0.8625 0.71516 0.5069 0.0
C153 C 0.8468 0.66254 0.52232 0.0
N154 N 0.87289 0.70323 0.54543 0.0
C155 C 0.87473 0.72437 0.52774 0.0
C156 C 0.8593 0.67259 0.54291 0.0
C157 C 0.84843 0.68403 0.50422 0.0
C158 C 0.95302 0.72257 0.6411 0.0
N159 N 0.96354 0.74546 0.62597 0.0
C160 C 0.9757 0.70329 0.65282 0.0
C161 C 0.00935 0.7076 0.649 0.0
C162 C 0.01989 0.73108 0.6336 0.0
C163 C 0.9965 0.74987 0.62215 0.0
C164 C 0.98023 0.84828 0.64166 0.0
C165 C 0.96087 0.83306 0.59865 0.0
C166 C 0.96382 0.81881 0.6369 0.0
N167 N 0.95452 0.81146 0.61558 0.0
C168 C 0.97721 0.86278 0.60278 0.0
C169 C 0.98696 0.87037 0.62445 0.0
C170 C 0.87662 0.79049 0.57728 0.0
C171 C 0.8235 0.6737 0.61868 0.0
C172 C 0.82019 0.71317 0.5811 0.0
C173 C 0.7911 0.70396 0.59192 0.0
C174 C 0.79284 0.68411 0.61085 0.0
N175 N 0.85016 0.70282 0.58887 0.0
C176 C 0.85207 0.68334 0.6074 0.0
Co177 Co 0.77531 0.07325 0.38894 0.0
Co178 Co 0.7199 0.10938 0.42521 0.0
O179 O 0.73267 0.09312 0.39581 0.0
C180 C 0.76878 0.12736 0.3561 0.0
O181 O 0.75884 0.14655 0.37238 0.0
C182 C 0.66916 0.06054 0.41354 0.0
O183 O 0.6936 0.04128 0.40751 0.0
O184 O 0.73523 0.06803 0.43992 0.0
O185 O 0.77537 0.04866 0.41771 0.0
H186 H 0.7357 0.13285 0.50669 0.0
H187 H 0.72079 0.06839 0.35616 0.0
O188 O 0.77633 0.09738 0.35992 0.0
H189 H 0.74939 0.95347 0.37506 0.0
H190 H 0.85904 0.02016 0.3384 0.0
H191 H 0.83674 0.06058 0.41439 0.0
H192 H 0.77984 0.99987 0.39192 0.0
H193 H 0.80501 0.04447 0.34786 0.0
O194 O 0.67508 0.08926 0.42123 0.0
H195 H 0.75206 0.11268 0.46953 0.0
H196 H 0.65876 0.14029 0.44323 0.0
H197 H 0.89101 0.03622 0.40571 0.0
H198 H 0.68989 0.02271 0.33878 0.0
H199 H 0.90244 0.0158 0.36748 0.0
H200 H 0.70406 0.96476 0.34828 0.0
O201 O 0.79912 0.11037 0.40343 0.0
H202 H 0.65962 0.17535 0.36719 0.0
H203 H 0.73027 0.18108 0.43396 0.0
H204 H 0.71272 0.23257 0.41553 0.0
H205 H 0.67711 0.2299 0.38191 0.0
H206 H 0.67795 0.12446 0.38604 0.0
H207 H 0.64126 0.16052 0.48015 0.0
H208 H 0.67993 0.15698 0.51217 0.0
O209 O 0.76453 0.12942 0.42976 0.0
C210 C 0.75847 0.04779 0.43561 0.0
C211 C 0.71867 0.13463 0.49285 0.0
C212 C 0.66565 0.15012 0.47796 0.0
N213 N 0.70649 0.12556 0.45421 0.0
C214 C 0.72783 0.12334 0.47176 0.0
C215 C 0.67566 0.13857 0.45711 0.0
C216 C 0.68736 0.14813 0.49592 0.0
C217 C 0.72735 0.04323 0.36019 0.0
N218 N 0.7522 0.03681 0.37495 0.0
C219 C 0.70966 0.01747 0.35037 0.0
C220 C 0.71759 0.98497 0.35574 0.0
C221 C 0.743 0.97861 0.37078 0.0
C222 C 0.76011 0.005 0.3803 0.0
C223 C 0.85433 0.02891 0.35514 0.0
C224 C 0.84146 0.05156 0.39775 0.0
C225 C 0.82382 0.04275 0.36058 0.0
N226 N 0.81766 0.0537 0.3817 0.0
C227 C 0.87227 0.03788 0.39292 0.0
C228 C 0.87867 0.02646 0.37146 0.0
C229 C 0.7926 0.12881 0.42009 0.0
C230 C 0.67505 0.17684 0.38187 0.0
C231 C 0.71484 0.17971 0.4193 0.0
C232 C 0.70492 0.20895 0.40897 0.0
C233 C 0.68492 0.20744 0.39011 0.0
N234 N 0.70503 0.1498 0.41113 0.0
C235 C 0.6854 0.14811 0.39266 0.0
Co236 Co 0.92128 0.22759 0.11007 0.0
Co237 Co 0.88743 0.28467 0.07366 0.0
O238 O 0.90089 0.27016 0.10342 0.0
C239 C 0.8618 0.22976 0.13891 0.0
O240 O 0.84575 0.24446 0.12273 0.0
C241 C 0.93589 0.33423 0.08841 0.0
O242 O 0.95381 0.30944 0.09559 0.0
O243 O 0.92953 0.26914 0.06005 0.0
O244 O 0.95107 0.23204 0.08382 0.0
H245 H 0.87049 0.27315 0.99112 0.0
H246 H 0.91718 0.27923 0.14489 0.0
O247 O 0.89203 0.22193 0.13661 0.0
H248 H 0.03592 0.25588 0.13624 0.0
H249 H 0.96826 0.14028 0.16065 0.0
H250 H 0.94191 0.17004 0.08301 0.0
H251 H 0.99464 0.22536 0.11417 0.0
H252 H 0.94334 0.19426 0.15183 0.0
O253 O 0.90807 0.32888 0.07919 0.0
H254 H 0.88729 0.2547 0.02859 0.0
H255 H 0.85897 0.34715 0.05586 0.0
H256 H 0.96708 0.1159 0.09106 0.0
H257 H 0.95758 0.31013 0.16748 0.0
H258 H 0.98041 0.10073 0.13013 0.0
H259 H 0.01744 0.29862 0.16315 0.0
O260 O 0.88808 0.2038 0.09158 0.0
H261 H 0.81807 0.34424 0.13019 0.0
H262 H 0.81635 0.27591 0.06224 0.0
H263 H 0.76379 0.29388 0.07905 0.0
H264 H 0.76445 0.32833 0.11326 0.0
H265 H 0.87004 0.3255 0.11294 0.0
H266 H 0.84209 0.36672 0.01865 0.0
H267 H 0.8477 0.32955 0.98598 0.0
O268 O 0.86706 0.24081 0.06752 0.0
C269 C 0.95168 0.24844 0.06571 0.0
C270 C 0.86781 0.28954 0.00524 0.0
C271 C 0.85192 0.34207 0.02069 0.0
N272 N 0.87384 0.29971 0.04441 0.0
C273 C 0.8772 0.27919 0.0265 0.0
C274 C 0.86157 0.33087 0.0417 0.0
C275 C 0.85506 0.3212 0.00236 0.0
C276 C 0.94317 0.2739 0.14306 0.0
N277 N 0.95356 0.25055 0.12822 0.0
C278 C 0.96594 0.29155 0.15583 0.0
C279 C 0.99952 0.28511 0.15337 0.0
C280 C 0.00991 0.26116 0.13826 0.0
C281 C 0.98644 0.24404 0.12574 0.0
C282 C 0.96263 0.14663 0.14356 0.0
C283 C 0.94786 0.16369 0.10003 0.0
C284 C 0.94845 0.17713 0.13847 0.0
N285 N 0.94143 0.18538 0.1169 0.0
C286 C 0.96201 0.13297 0.1045 0.0
C287 C 0.96945 0.12446 0.12642 0.0
C288 C 0.86916 0.21166 0.07544 0.0
C289 C 0.81746 0.32932 0.11525 0.0
C290 C 0.81683 0.29083 0.07716 0.0
C291 C 0.787 0.30099 0.08657 0.0
C292 C 0.78739 0.32034 0.10576 0.0
N293 N 0.84623 0.29978 0.08655 0.0
C294 C 0.84681 0.31876 0.10535 0.0
Co295 Co 0.2269 0.07522 0.89322 0.0
Co296 Co 0.28613 0.1114 0.92692 0.0
O297 O 0.26975 0.09615 0.89805 0.0
C298 C 0.2268 0.13317 0.86303 0.0
O299 O 0.24174 0.15014 0.87868 0.0
C300 C 0.33521 0.06263 0.91188 0.0
O301 O 0.31021 0.04407 0.90588 0.0
O302 O 0.27193 0.06995 0.94202 0.0
O303 O 0.23315 0.047 0.92013 0.0
H304 H 0.28008 0.13277 0.00926 0.0
H305 H 0.27615 0.07753 0.85676 0.0
O306 O 0.21948 0.10294 0.8661 0.0
H307 H 0.25429 0.95928 0.86936 0.0
H308 H 0.13678 0.02503 0.84645 0.0
H309 H 0.1712 0.0559 0.92243 0.0
H310 H 0.22499 0.00167 0.89122 0.0
H311 H 0.19112 0.05067 0.85307 0.0
O312 O 0.33013 0.09087 0.92055 0.0
H313 H 0.25926 0.11378 0.97286 0.0
H314 H 0.34947 0.14136 0.94203 0.0
H315 H 0.11675 0.03006 0.91658 0.0
H316 H 0.30578 0.03599 0.83435 0.0
H317 H 0.09923 0.01445 0.87836 0.0
H318 H 0.29502 0.97638 0.84067 0.0
O319 O 0.20409 0.10929 0.91155 0.0
H320 H 0.34093 0.1781 0.86684 0.0
H321 H 0.27747 0.18297 0.93685 0.0
H322 H 0.29368 0.23471 0.91817 0.0
H323 H 0.32567 0.23246 0.88292 0.0
H324 H 0.32399 0.12695 0.88597 0.0
H325 H 0.37139 0.16042 0.97814 0.0
H326 H 0.33654 0.1563 0.01207 0.0
O327 O 0.24255 0.13168 0.93394 0.0
C328 C 0.25084 0.04748 0.9377 0.0
C329 C 0.29546 0.13481 0.99459 0.0
C330 C 0.34673 0.15028 0.97713 0.0
N331 N 0.30302 0.12672 0.95532 0.0
C332 C 0.28377 0.12418 0.97392 0.0
C333 C 0.3342 0.1394 0.95674 0.0
C334 C 0.32716 0.14797 0.99615 0.0
C335 C 0.27113 0.05164 0.85946 0.0
N336 N 0.24887 0.04202 0.87528 0.0
C337 C 0.28807 0.02823 0.84678 0.0
C338 C 0.28205 0.99479 0.85036 0.0
C339 C 0.25922 0.98518 0.86647 0.0
C340 C 0.24279 0.00928 0.87886 0.0
C341 C 0.14416 0.03166 0.86318 0.0
C342 C 0.16383 0.04896 0.90577 0.0
C343 C 0.17487 0.04624 0.86703 0.0
N344 N 0.18441 0.05452 0.88814 0.0
C345 C 0.13294 0.03443 0.90255 0.0
C346 C 0.12311 0.02572 0.8811 0.0
C347 C 0.21289 0.12899 0.92704 0.0
C348 C 0.32709 0.1794 0.88223 0.0
C349 C 0.29133 0.18179 0.92149 0.0
C350 C 0.3005 0.21117 0.91101 0.0
C351 C 0.31847 0.20989 0.89124 0.0
N352 N 0.29992 0.15198 0.91256 0.0
C353 C 0.31755 0.15053 0.89318 0.0
Co354 Co 0.07304 0.77354 0.10776 0.0
Co355 Co 0.11107 0.71613 0.07369 0.0
O356 O 0.09452 0.73118 0.10253 0.0
C357 C 0.12906 0.77382 0.13961 0.0
O358 O 0.14846 0.76424 0.12333 0.0
C359 C 0.06249 0.66607 0.08711 0.0
O360 O 0.04326 0.69085 0.09254 0.0
O361 O 0.0699 0.73002 0.05815 0.0
O362 O 0.04681 0.76906 0.07975 0.0
H363 H 0.13522 0.72519 0.99183 0.0
H364 H 0.07262 0.72176 0.14265 0.0
O365 O 0.09847 0.77873 0.13607 0.0
H366 H 0.95545 0.74508 0.12701 0.0
H367 H 0.01931 0.86063 0.15534 0.0
H368 H 0.05584 0.83106 0.07958 0.0
H369 H 0.99943 0.77574 0.10755 0.0
H370 H 0.04551 0.80676 0.14804 0.0
O371 O 0.09116 0.67154 0.07919 0.0
H372 H 0.11454 0.74449 0.0282 0.0
H373 H 0.14274 0.65388 0.0582 0.0
H374 H 0.02949 0.88508 0.0861 0.0
H375 H 0.02946 0.69074 0.16269 0.0
H376 H 0.01103 0.90016 0.12422 0.0
H377 H 0.97039 0.70222 0.15482 0.0
O378 O 0.10843 0.79742 0.09119 0.0
H379 H 0.17684 0.66123 0.1342 0.0
H380 H 0.18275 0.72645 0.06496 0.0
H381 H 0.23419 0.71083 0.08424 0.0
H382 H 0.23142 0.67794 0.1191 0.0
H383 H 0.12601 0.67759 0.11446 0.0
H384 H 0.1635 0.63346 0.02211 0.0
H385 H 0.15992 0.66928 0.98862 0.0
O386 O 0.13067 0.76037 0.06764 0.0
C387 C 0.04767 0.75149 0.06213 0.0
C388 C 0.13703 0.70939 0.00631 0.0
C389 C 0.15286 0.65789 0.02331 0.0
N390 N 0.1277 0.70046 0.04532 0.0
C391 C 0.12545 0.72023 0.02696 0.0
C392 C 0.14101 0.66956 0.04368 0.0
C393 C 0.15085 0.67801 0.00452 0.0
C394 C 0.04696 0.72708 0.13927 0.0
N395 N 0.03854 0.75046 0.12388 0.0
C396 C 0.02264 0.70936 0.15061 0.0
C397 C 0.9895 0.71578 0.14617 0.0
C398 C 0.9811 0.73979 0.13055 0.0
C399 C 0.0061 0.75698 0.1195 0.0
C400 C 0.02719 0.85432 0.13866 0.0
C401 C 0.04766 0.83737 0.09618 0.0
C402 C 0.04211 0.82389 0.13443 0.0
N403 N 0.05195 0.81569 0.11337 0.0
C404 C 0.03286 0.86803 0.09979 0.0
C405 C 0.02254 0.87648 0.12118 0.0
C406 C 0.12816 0.78955 0.07547 0.0
C407 C 0.17837 0.67547 0.11898 0.0
C408 C 0.18135 0.71218 0.08014 0.0
C409 C 0.21055 0.70336 0.09097 0.0
C410 C 0.20898 0.6849 0.11052 0.0
N411 N 0.15143 0.70277 0.08852 0.0
C412 C 0.14968 0.68469 0.10769 0.0
Co413 Co 0.77561 0.92793 0.8905 0.0
Co414 Co 0.71774 0.88962 0.92415 0.0
O415 O 0.73315 0.90635 0.89542 0.0
C416 C 0.77511 0.87231 0.85832 0.0
O417 O 0.76233 0.85347 0.87387 0.0
C418 C 0.66763 0.93809 0.91051 0.0
O419 O 0.69232 0.95737 0.90499 0.0
O420 O 0.73139 0.93074 0.93985 0.0
O421 O 0.7704 0.95421 0.91841 0.0
H422 H 0.72593 0.86518 0.00602 0.0
H423 H 0.72453 0.92803 0.85517 0.0
O424 O 0.78177 0.90243 0.86232 0.0
H425 H 0.74715 0.04533 0.87076 0.0
H426 H 0.86357 0.98198 0.84379 0.0
H427 H 0.83246 0.94529 0.91924 0.0
H428 H 0.77759 0.00155 0.89057 0.0
H429 H 0.8096 0.95566 0.85056 0.0
O430 O 0.6732 0.90949 0.91851 0.0
H431 H 0.74559 0.88605 0.96978 0.0
H432 H 0.65537 0.85775 0.93928 0.0
H433 H 0.88657 0.97178 0.91325 0.0
H434 H 0.69375 0.97098 0.83477 0.0
H435 H 0.90242 0.99031 0.87529 0.0
H436 H 0.70488 0.03012 0.84262 0.0
O437 O 0.79926 0.89263 0.90725 0.0
H438 H 0.66326 0.82416 0.86333 0.0
H439 H 0.72806 0.81789 0.93273 0.0
H440 H 0.71261 0.76656 0.91325 0.0
H441 H 0.67995 0.76952 0.8783 0.0
H442 H 0.67946 0.87488 0.88325 0.0
H443 H 0.63459 0.83681 0.97523 0.0
H444 H 0.67004 0.84034 0.00891 0.0
O445 O 0.76192 0.86997 0.93039 0.0
C446 C 0.75266 0.95319 0.93594 0.0
C447 C 0.7103 0.86339 0.99146 0.0
C448 C 0.65902 0.8475 0.97418 0.0
N449 N 0.70177 0.87284 0.95241 0.0
C450 C 0.72134 0.87507 0.97088 0.0
C451 C 0.67089 0.85945 0.95388 0.0
C452 C 0.67892 0.84949 0.99307 0.0
C453 C 0.7297 0.95371 0.85854 0.0
N454 N 0.75276 0.96229 0.87411 0.0
C455 C 0.71211 0.97792 0.84699 0.0
C456 C 0.71834 0.0111 0.85142 0.0
C457 C 0.74202 0.01965 0.86723 0.0
C458 C 0.75908 0.99477 0.87848 0.0
C459 C 0.85692 0.97406 0.86041 0.0
C460 C 0.83911 0.9535 0.90271 0.0
C461 C 0.82643 0.95907 0.86434 0.0
N462 N 0.81781 0.94917 0.88531 0.0
C463 C 0.86981 0.96838 0.8994 0.0
C464 C 0.8787 0.97874 0.8781 0.0
C465 C 0.7912 0.87266 0.92277 0.0
C466 C 0.67741 0.82255 0.87858 0.0
C467 C 0.7139 0.81937 0.9175 0.0
C468 C 0.70517 0.79023 0.90657 0.0
C469 C 0.68682 0.7919 0.88697 0.0
N470 N 0.70452 0.84933 0.90918 0.0
C471 C 0.68652 0.85118 0.88998 0.0
C472 C 0.93346 0.60524 0.57606 0.0
C473 C 0.94959 0.63051 0.58779 0.0
C474 C 0.94496 0.57277 0.57719 0.0
C475 C 0.96368 0.50324 0.59061 0.0
H476 H 0.05808 0.48821 0.59312 0.0
C477 C 0.01797 0.37239 0.60102 0.0
C478 C 0.04687 0.36495 0.58912 0.0
C479 C 0.00621 0.40479 0.602 0.0
C480 C 0.03164 0.49189 0.59221 0.0
H481 H 0.98979 0.64146 0.61047 0.0
H482 H 0.00923 0.58476 0.61301 0.0
H483 H 0.03711 0.54432 0.59201 0.0
H484 H 0.08609 0.38558 0.56886 0.0
H485 H 0.06513 0.4418 0.56998 0.0
H486 H 0.9583 0.45078 0.58974 0.0
C487 C 0.98831 0.59005 0.60238 0.0
C488 C 0.01956 0.52417 0.59193 0.0
C489 C 0.97705 0.62257 0.60103 0.0
C490 C 0.06385 0.39056 0.5783 0.0
C491 C 0.05191 0.42287 0.57906 0.0
C492 C 0.97578 0.47094 0.59066 0.0
C493 C 0.97262 0.56475 0.59031 0.0
C494 C 0.98541 0.5303 0.59107 0.0
C495 C 0.0229 0.43044 0.59091 0.0
C496 C 0.00994 0.46483 0.59139 0.0
H497 H 0.91231 0.61063 0.56563 0.0
H498 H 0.93254 0.5541 0.56739 0.0
H499 H 0.93722 0.50693 0.59026 0.0
H500 H 0.00449 0.35321 0.6097 0.0
H501 H 0.98416 0.40973 0.61162 0.0
C502 C 0.62722 0.02096 0.39864 0.0
C503 C 0.63474 0.04883 0.41157 0.0
C504 C 0.59473 0.00963 0.39701 0.0
C505 C 0.50758 0.03471 0.40745 0.0
H506 H 0.49236 0.9403 0.40633 0.0
C507 C 0.39486 0.93551 0.42208 0.0
C508 C 0.36905 0.95222 0.41128 0.0
C509 C 0.42722 0.9472 0.4207 0.0
C510 C 0.4961 0.96674 0.40683 0.0
H511 H 0.61418 0.08671 0.43297 0.0
H512 H 0.55777 0.06638 0.43078 0.0
H513 H 0.54851 0.96118 0.40732 0.0
H514 H 0.35701 0.99379 0.39005 0.0
H515 H 0.41363 0.01367 0.38705 0.0
H516 H 0.45514 0.04023 0.40809 0.0
C517 C 0.5767 0.05369 0.42137 0.0
C518 C 0.52841 0.97877 0.40705 0.0
C519 C 0.60912 0.06525 0.42277 0.0
C520 C 0.37635 0.98054 0.39872 0.0
C521 C 0.40881 0.99203 0.39712 0.0
C522 C 0.47525 0.02267 0.40747 0.0
C523 C 0.56906 0.02568 0.40851 0.0
C524 C 0.5346 0.01291 0.40749 0.0
C525 C 0.43465 0.97566 0.40824 0.0
C526 C 0.46907 0.98852 0.4073 0.0
H527 H 0.6464 0.00798 0.38962 0.0
H528 H 0.58974 0.98838 0.38661 0.0
H529 H 0.51133 0.06116 0.40742 0.0
H530 H 0.39001 0.91372 0.43202 0.0
H531 H 0.44628 0.93425 0.42983 0.0
C532 C 0.93317 0.39421 0.07873 0.0
C533 C 0.94833 0.36838 0.09051 0.0
C534 C 0.94553 0.42632 0.08009 0.0
C535 C 0.021 0.47298 0.09521 0.0
H536 H 0.96127 0.5476 0.09281 0.0
C537 C 0.02205 0.62513 0.10223 0.0
C538 C 0.05052 0.63183 0.08967 0.0
C539 C 0.01013 0.59288 0.10409 0.0
C540 C 0.97835 0.52711 0.0938 0.0
H541 H 0.98783 0.35609 0.11343 0.0
H542 H 0.00889 0.41229 0.11629 0.0
H543 H 0.93904 0.49195 0.0937 0.0
H544 H 0.08898 0.60998 0.06934 0.0
H545 H 0.06771 0.55396 0.07201 0.0
H546 H 0.06029 0.50819 0.09598 0.0
C547 C 0.98796 0.40764 0.10553 0.0
C548 C 0.96557 0.49509 0.09397 0.0
C549 C 0.97578 0.37543 0.10399 0.0
C550 C 0.06705 0.60559 0.07922 0.0
C551 C 0.05494 0.5734 0.08089 0.0
C552 C 0.03378 0.50502 0.09525 0.0
C553 C 0.97314 0.43347 0.09347 0.0
C554 C 0.98673 0.46759 0.09442 0.0
C555 C 0.02621 0.56663 0.09324 0.0
C556 C 0.01263 0.53251 0.0943 0.0
H557 H 0.91209 0.38956 0.06809 0.0
H558 H 0.93381 0.4454 0.07025 0.0
H559 H 0.0381 0.45245 0.09533 0.0
H560 H 0.00896 0.64479 0.11067 0.0
H561 H 0.98833 0.58856 0.1141 0.0
C562 C 0.39559 0.06621 0.92014 0.0
C563 C 0.36935 0.05043 0.90918 0.0
C564 C 0.42772 0.05407 0.91829 0.0
C565 C 0.49606 0.03397 0.9036 0.0
H566 H 0.50963 0.93931 0.9027 0.0
C567 C 0.62635 0.97801 0.89516 0.0
C568 C 0.63332 0.94988 0.90799 0.0
C569 C 0.59401 0.98971 0.89332 0.0
C570 C 0.50634 0.96582 0.90312 0.0
H571 H 0.35633 0.01008 0.88715 0.0
H572 H 0.41256 0.9894 0.88338 0.0
H573 H 0.45381 0.96119 0.90379 0.0
H574 H 0.61188 0.91181 0.92886 0.0
H575 H 0.55576 0.93274 0.92626 0.0
H576 H 0.54856 0.03861 0.90409 0.0
C577 C 0.40824 0.01065 0.89391 0.0
C578 C 0.47423 0.97841 0.90339 0.0
C579 C 0.376 0.0226 0.89597 0.0
C580 C 0.60727 0.93347 0.91875 0.0
C581 C 0.57501 0.94538 0.91712 0.0
C582 C 0.52815 0.02139 0.90355 0.0
C583 C 0.43449 0.02607 0.9052 0.0
C584 C 0.46866 0.01266 0.90382 0.0
C585 C 0.56795 0.97376 0.90447 0.0
C586 C 0.53374 0.98713 0.90348 0.0
H587 H 0.39125 0.0876 0.93056 0.0
H588 H 0.44713 0.06626 0.92756 0.0
H589 H 0.49277 0.06049 0.90355 0.0
H590 H 0.64587 0.99099 0.88648 0.0
H591 H 0.58947 0.01124 0.88309 0.0
C592 C 0.25901 0.98512 0.4727 0.0
C593 C 0.23731 0.97802 0.45503 0.0
C594 C 0.25074 0.0089 0.48868 0.0
C595 C 0.179 0.04988 0.5136 0.0
H596 H 0.23989 0.11955 0.53015 0.0
C597 C 0.16904 0.18658 0.55343 0.0
C598 C 0.14745 0.18029 0.5713 0.0
C599 C 0.18433 0.16058 0.54214 0.0
C600 C 0.2227 0.10014 0.52574 0.0
H601 H 0.18995 0.99065 0.44032 0.0
H602 H 0.17562 0.03164 0.46819 0.0
H603 H 0.25765 0.07636 0.5042 0.0
H604 H 0.12666 0.14164 0.59209 0.0
H605 H 0.15334 0.09643 0.57234 0.0
H606 H 0.14379 0.07385 0.53458 0.0
C607 C 0.19893 0.01874 0.46973 0.0
C608 C 0.23293 0.07535 0.51104 0.0
C609 C 0.20729 0.99533 0.45368 0.0
C610 C 0.14295 0.14747 0.57833 0.0
C611 C 0.1581 0.1215 0.56696 0.0
C612 C 0.1689 0.0744 0.52842 0.0
C613 C 0.22045 0.02568 0.48744 0.0
C614 C 0.21092 0.05035 0.5045 0.0
C615 C 0.17827 0.12772 0.54839 0.0
C616 C 0.19045 0.10009 0.53439 0.0
H617 H 0.28235 0.97229 0.47423 0.0
H618 H 0.26774 0.01373 0.50221 0.0
H619 H 0.16163 0.03072 0.50902 0.0
H620 H 0.17322 0.21152 0.54758 0.0
H621 H 0.19958 0.16616 0.5278 0.0
C622 C 0.15548 0.84503 0.4244 0.0
C623 C 0.18626 0.85006 0.43467 0.0
C624 C 0.13034 0.82795 0.4355 0.0
C625 C 0.11398 0.77537 0.4857 0.0
H626 H 0.02567 0.81147 0.48054 0.0
C627 C 0.01388 0.76391 0.55333 0.0
C628 C 0.98202 0.7545 0.5466 0.0
C629 C 0.03841 0.77015 0.53756 0.0
C630 C 0.05012 0.80083 0.4819 0.0
H631 H 0.21492 0.8402 0.46451 0.0
H632 H 0.17112 0.81178 0.48401 0.0
H633 H 0.06948 0.83236 0.45655 0.0
H634 H 0.95097 0.74401 0.51802 0.0
H635 H 0.99386 0.75594 0.49037 0.0
H636 H 0.09472 0.7453 0.51206 0.0
C637 C 0.16641 0.82013 0.46718 0.0
C638 C 0.07527 0.81267 0.46809 0.0
C639 C 0.1916 0.83678 0.45601 0.0
C640 C 0.97533 0.75108 0.52372 0.0
C641 C 0.99975 0.75801 0.50791 0.0
C642 C 0.08896 0.76398 0.49975 0.0
C643 C 0.13527 0.81583 0.45723 0.0
C644 C 0.10772 0.80057 0.4701 0.0
C645 C 0.03146 0.76771 0.51472 0.0
C646 C 0.05696 0.777 0.49822 0.0
H647 H 0.15057 0.85471 0.40792 0.0
H648 H 0.10693 0.82461 0.42712 0.0
H649 H 0.13839 0.76482 0.4874 0.0
H650 H 0.01986 0.76664 0.5708 0.0
H651 H 0.06259 0.77788 0.54323 0.0
C652 C 0.79537 0.00266 0.44934 0.0
C653 C 0.76698 0.02217 0.45228 0.0
C654 C 0.80435 0.97925 0.46523 0.0
C655 C 0.77279 0.92676 0.50978 0.0
H656 H 0.8649 0.92265 0.5272 0.0
C657 C 0.8665 0.85124 0.57289 0.0
C658 C 0.8583 0.81853 0.56731 0.0
C659 C 0.85204 0.87769 0.56161 0.0
C660 C 0.83901 0.92369 0.52275 0.0
H661 H 0.72544 0.03179 0.47418 0.0
H662 H 0.74113 0.99033 0.50191 0.0
H663 H 0.84637 0.96598 0.50201 0.0
H664 H 0.82705 0.78818 0.54622 0.0
H665 H 0.80194 0.8344 0.52657 0.0
H666 H 0.76566 0.88396 0.53027 0.0
C667 C 0.75636 0.99346 0.48724 0.0
C668 C 0.82848 0.94831 0.50815 0.0
C669 C 0.74748 0.01724 0.4714 0.0
C670 C 0.83407 0.81301 0.55093 0.0
C671 C 0.8195 0.83952 0.53973 0.0
C672 C 0.78342 0.90186 0.52428 0.0
C673 C 0.7851 0.9745 0.48439 0.0
C674 C 0.79539 0.94983 0.50126 0.0
C675 C 0.82892 0.8721 0.54458 0.0
C676 C 0.81673 0.89988 0.53072 0.0
H677 H 0.81098 0.00563 0.43484 0.0
H678 H 0.82637 0.96465 0.46243 0.0
H679 H 0.74716 0.9273 0.50467 0.0
H680 H 0.88492 0.85649 0.58548 0.0
H681 H 0.85947 0.90257 0.56591 0.0
C682 C 0.81382 0.1699 0.44792 0.0
C683 C 0.81983 0.14842 0.42995 0.0
C684 C 0.84002 0.18479 0.45925 0.0
C685 C 0.90115 0.22233 0.47557 0.0
H686 H 0.96884 0.15974 0.49299 0.0
C687 C 0.01638 0.25589 0.52935 0.0
C688 C 0.02195 0.23447 0.54742 0.0
C689 C 0.99284 0.24809 0.5131 0.0
C690 C 0.95019 0.17752 0.48818 0.0
H691 H 0.8582 0.12736 0.40905 0.0
H692 H 0.90377 0.15325 0.42893 0.0
H693 H 0.92568 0.14276 0.46712 0.0
H694 H 0.00699 0.18808 0.56251 0.0
H695 H 0.96651 0.17448 0.53411 0.0
H696 H 0.92549 0.25685 0.49715 0.0
C697 C 0.87876 0.1583 0.43431 0.0
C698 C 0.92566 0.16792 0.47321 0.0
C699 C 0.85259 0.1436 0.42287 0.0
C700 C 0.00345 0.20517 0.54885 0.0
C701 C 0.98034 0.19723 0.53251 0.0
C702 C 0.92599 0.23207 0.49039 0.0
C703 C 0.87279 0.17837 0.45296 0.0
C704 C 0.90056 0.19002 0.46703 0.0
C705 C 0.97485 0.21852 0.51444 0.0
C706 C 0.95034 0.20952 0.49717 0.0
H707 H 0.78894 0.1743 0.4538 0.0
H708 H 0.83467 0.19997 0.47365 0.0
H709 H 0.88219 0.2399 0.471 0.0
H710 H 0.03014 0.27869 0.52777 0.0
H711 H 0.98909 0.26488 0.49929 0.0
C712 C 0.75254 0.9732 0.97547 0.0
C713 C 0.75737 0.97952 0.95267 0.0
C714 C 0.75927 0.99765 0.99131 0.0
C715 C 0.76546 0.08634 0.99951 0.0
H716 H 0.83454 0.06795 0.04241 0.0
C717 C 0.83607 0.19046 0.04329 0.0
C718 C 0.84974 0.18525 0.06451 0.0
C719 C 0.82015 0.16489 0.03203 0.0
C720 C 0.81465 0.07344 0.03097 0.0
H721 H 0.77173 0.01669 0.92858 0.0
H722 H 0.78246 0.05954 0.95615 0.0
H723 H 0.814 0.02378 0.01857 0.0
H724 H 0.85594 0.14938 0.091 0.0
H725 H 0.82698 0.10507 0.07173 0.0
H726 H 0.76559 0.13577 0.01183 0.0
C727 C 0.77391 0.0356 0.96174 0.0
C728 C 0.80302 0.04809 0.01725 0.0
C729 C 0.76796 0.01101 0.94599 0.0
C730 C 0.84597 0.15415 0.07457 0.0
C731 C 0.82953 0.12865 0.06344 0.0
C732 C 0.77658 0.11155 0.01349 0.0
C733 C 0.77006 0.02901 0.98453 0.0
C734 C 0.77896 0.05456 0.00104 0.0
C735 C 0.8169 0.1335 0.04183 0.0
C736 C 0.80203 0.10571 0.02898 0.0
H737 H 0.74452 0.94911 0.9811 0.0
H738 H 0.75616 0.99208 0.00883 0.0
H739 H 0.74663 0.09179 0.98723 0.0
H740 H 0.83858 0.21403 0.03496 0.0
H741 H 0.81143 0.16957 0.01529 0.0
C742 C 0.15459 0.14971 0.9304 0.0
C743 C 0.18703 0.14816 0.93874 0.0
C744 C 0.12958 0.16497 0.94275 0.0
C745 C 0.10572 0.17769 0.99963 0.0
H746 H 0.04658 0.24618 0.97868 0.0
C747 C 0.01066 0.23421 0.05887 0.0
C748 C 0.97951 0.24251 0.05038 0.0
C749 C 0.03652 0.22614 0.04454 0.0
C750 C 0.06254 0.22672 0.98471 0.0
H751 H 0.21873 0.1627 0.96625 0.0
H752 H 0.1749 0.18838 0.9879 0.0
H753 H 0.09031 0.22563 0.9542 0.0
H754 H 0.95102 0.24955 0.02023 0.0
H755 H 0.99569 0.23392 0.99511 0.0
H756 H 0.0776 0.17721 0.02959 0.0
C757 C 0.169 0.17793 0.97177 0.0
C758 C 0.08766 0.21515 0.97071 0.0
C759 C 0.19407 0.16324 0.95931 0.0
C760 C 0.97488 0.24337 0.02721 0.0
C761 C 0.0006 0.23455 0.01282 0.0
C762 C 0.08034 0.1887 0.01342 0.0
C763 C 0.13648 0.17843 0.96378 0.0
C764 C 0.1096 0.19076 0.97818 0.0
C765 C 0.03166 0.22532 0.02133 0.0
C766 C 0.05855 0.21363 0.00629 0.0
H767 H 0.14834 0.13848 0.91458 0.0
H768 H 0.10461 0.16501 0.93631 0.0
H769 H 0.12204 0.15844 0.0056 0.0
H770 H 0.01509 0.23392 0.07664 0.0
H771 H 0.06028 0.22028 0.05177 0.0
C772 C 0.15117 0.84721 0.07472 0.0
C773 C 0.14808 0.8159 0.06486 0.0
C774 C 0.16808 0.87258 0.06374 0.0
C775 C 0.22339 0.88891 0.01476 0.0
H776 H 0.18598 0.9768 0.01857 0.0
C777 C 0.23531 0.98947 0.94717 0.0
C778 C 0.24588 0.02083 0.95415 0.0
C779 C 0.22859 0.96479 0.96274 0.0
C780 C 0.19692 0.95245 0.0176 0.0
H781 H 0.16093 0.78665 0.03583 0.0
H782 H 0.18881 0.83082 0.01642 0.0
H783 H 0.16425 0.93299 0.04222 0.0
H784 H 0.25796 0.05087 0.98291 0.0
H785 H 0.245 0.00779 0.01026 0.0
H786 H 0.25453 0.90828 0.98899 0.0
C787 C 0.17924 0.8358 0.03291 0.0
C788 C 0.18463 0.9273 0.03122 0.0
C789 C 0.16288 0.81037 0.04402 0.0
C790 C 0.25001 0.02688 0.97705 0.0
C791 C 0.2425 0.00237 0.99267 0.0
C792 C 0.23516 0.9139 0.00084 0.0
C793 C 0.18185 0.86739 0.04248 0.0
C794 C 0.19728 0.89499 0.02972 0.0
C795 C 0.23162 0.97119 0.98562 0.0
C796 C 0.2217 0.94573 0.00193 0.0
H797 H 0.1403 0.85223 0.09085 0.0
H798 H 0.17009 0.89632 0.07189 0.0
H799 H 0.23444 0.86466 0.01349 0.0
H800 H 0.23205 0.98404 0.92966 0.0
H801 H 0.22001 0.94097 0.95693 0.0
C802 C 0.84888 0.8498 0.92364 0.0
C803 C 0.81749 0.85273 0.93343 0.0
C804 C 0.87424 0.83297 0.93467 0.0
C805 C 0.8906 0.77774 0.98366 0.0
H806 H 0.97819 0.816 0.98028 0.0
C807 C 0.99005 0.76746 0.05196 0.0
C808 C 0.02153 0.75674 0.04534 0.0
C809 C 0.96569 0.77396 0.03614 0.0
C810 C 0.95393 0.80481 0.98113 0.0
H811 H 0.78808 0.83966 0.96233 0.0
H812 H 0.83226 0.81189 0.98183 0.0
H813 H 0.93443 0.83727 0.95639 0.0
H814 H 0.05213 0.74424 0.01694 0.0
H815 H 0.0096 0.75688 0.98911 0.0
H816 H 0.90997 0.74685 0.00957 0.0
C817 C 0.8373 0.82154 0.96537 0.0
C818 C 0.92882 0.81684 0.96737 0.0
C819 C 0.81187 0.83782 0.95422 0.0
C820 C 0.02805 0.75235 0.02253 0.0
C821 C 0.00385 0.75964 0.00663 0.0
C822 C 0.91555 0.76623 0.99772 0.0
C823 C 0.86898 0.81913 0.95589 0.0
C824 C 0.8966 0.8039 0.96874 0.0
C825 C 0.97251 0.77055 0.01335 0.0
C826 C 0.94725 0.78002 0.99679 0.0
H827 H 0.85397 0.86075 0.90755 0.0
H828 H 0.89806 0.8311 0.92659 0.0
H829 H 0.86644 0.76648 0.98483 0.0
H830 H 0.98422 0.77091 0.06939 0.0
H831 H 0.94174 0.78257 0.04168 0.0
C832 C 0.11694 0.20722 0.68381 0.0
C833 C 0.13596 0.22479 0.66826 0.0
C834 C 0.12816 0.20269 0.70553 0.0
C835 C 0.20373 0.20343 0.74012 0.0
H836 H 0.13941 0.19871 0.78787 0.0
C837 C 0.2347 0.17676 0.83376 0.0
C838 C 0.21764 0.14896 0.84176 0.0
C839 C 0.22621 0.19077 0.8132 0.0
C840 C 0.15764 0.20017 0.77471 0.0
H841 H 0.18162 0.25174 0.6634 0.0
H842 H 0.20103 0.24441 0.70168 0.0
H843 H 0.1219 0.21562 0.75077 0.0
H844 H 0.17801 0.11445 0.83481 0.0
H845 H 0.16272 0.13945 0.79936 0.0
H846 H 0.23943 0.18796 0.76443 0.0
C847 C 0.17763 0.23363 0.6969 0.0
C848 C 0.14763 0.20959 0.75341 0.0
C849 C 0.16648 0.23793 0.67499 0.0
C850 C 0.19168 0.13579 0.82905 0.0
C851 C 0.1828 0.15017 0.80883 0.0
C852 C 0.21384 0.19446 0.76159 0.0
C853 C 0.15856 0.21594 0.71245 0.0
C854 C 0.17031 0.21029 0.73565 0.0
C855 C 0.20005 0.17764 0.80066 0.0
C856 C 0.19066 0.19184 0.77888 0.0
H857 H 0.09344 0.19649 0.67915 0.0
H858 H 0.11314 0.1882 0.71679 0.0
H859 H 0.22185 0.20349 0.72687 0.0
H860 H 0.25491 0.18729 0.8432 0.0
H861 H 0.23984 0.21197 0.80717 0.0
C862 C 0.12075 0.78772 0.17972 0.0
C863 C 0.14241 0.77996 0.1622 0.0
C864 C 0.13287 0.79543 0.2008 0.0
C865 C 0.20552 0.78999 0.23776 0.0
H866 H 0.16361 0.86482 0.26639 0.0
C867 C 0.22599 0.82659 0.33064 0.0
C868 C 0.22654 0.86051 0.33555 0.0
C869 C 0.219 0.81568 0.309 0.0
C870 C 0.17585 0.84407 0.25858 0.0
H871 H 0.19384 0.77306 0.15334 0.0
H872 H 0.21514 0.78702 0.19035 0.0
H873 H 0.14524 0.84754 0.22976 0.0
H874 H 0.22219 0.90957 0.32131 0.0
H875 H 0.21056 0.89063 0.28377 0.0
H876 H 0.23647 0.78698 0.26671 0.0
C877 C 0.18871 0.78689 0.18768 0.0
C878 C 0.165 0.83388 0.23767 0.0
C879 C 0.17652 0.77907 0.16647 0.0
C880 C 0.22145 0.88324 0.31821 0.0
C881 C 0.21465 0.87239 0.29666 0.0
C882 C 0.2164 0.8002 0.25882 0.0
C883 C 0.16699 0.79573 0.20496 0.0
C884 C 0.17951 0.80662 0.22704 0.0
C885 C 0.21253 0.83851 0.29188 0.0
C886 C 0.20166 0.82741 0.26945 0.0
H887 H 0.0943 0.78822 0.17714 0.0
H888 H 0.11543 0.80141 0.21386 0.0
H889 H 0.21708 0.76878 0.23003 0.0
H890 H 0.22991 0.80846 0.34364 0.0
H891 H 0.21741 0.78941 0.30588 0.0
C892 C 0.8302 0.76419 0.66925 0.0
C893 C 0.85921 0.77976 0.66184 0.0
C894 C 0.81671 0.77216 0.69006 0.0
C895 C 0.81145 0.83898 0.73002 0.0
H896 H 0.80172 0.7731 0.77642 0.0
C897 C 0.80212 0.87692 0.82119 0.0
C898 C 0.78164 0.85917 0.83577 0.0
C899 C 0.80784 0.86565 0.79962 0.0
C900 C 0.80364 0.79172 0.76356 0.0
H901 H 0.89659 0.81606 0.6702 0.0
H902 H 0.87254 0.83051 0.70609 0.0
H903 H 0.8175 0.75612 0.73873 0.0
H904 H 0.75121 0.81547 0.8392 0.0
H905 H 0.76069 0.79597 0.80111 0.0
H906 H 0.79754 0.87464 0.75442 0.0
C907 C 0.86047 0.81197 0.69596 0.0
C908 C 0.81274 0.78197 0.74203 0.0
C909 C 0.87428 0.80357 0.67547 0.0
C910 C 0.76722 0.82961 0.82835 0.0
C911 C 0.77271 0.81842 0.80656 0.0
C912 C 0.80192 0.84867 0.75135 0.0
C913 C 0.83164 0.79634 0.70346 0.0
C914 C 0.8176 0.80567 0.72529 0.0
C915 C 0.7929 0.83651 0.79187 0.0
C916 C 0.79893 0.82533 0.7686 0.0
H917 H 0.8182 0.74562 0.65911 0.0
H918 H 0.79443 0.75983 0.69556 0.0
H919 H 0.81462 0.85764 0.71727 0.0
H920 H 0.81398 0.89957 0.82645 0.0
H921 H 0.8243 0.87976 0.78908 0.0
C922 C 0.7592 0.17136 0.32722 0.0
C923 C 0.77167 0.14018 0.3331 0.0
C924 C 0.76219 0.18296 0.30531 0.0
C925 C 0.78043 0.15367 0.24771 0.0
H926 H 0.80772 0.24409 0.23724 0.0
C927 C 0.85664 0.19462 0.17268 0.0
C928 C 0.84493 0.22118 0.1599 0.0
C929 C 0.84146 0.18633 0.19272 0.0
C930 C 0.79954 0.21895 0.23993 0.0
H931 H 0.79731 0.0969 0.32067 0.0
H932 H 0.80326 0.11729 0.28302 0.0
H933 H 0.79278 0.22654 0.27494 0.0
H934 H 0.80833 0.2601 0.1581 0.0
H935 H 0.78227 0.24608 0.19392 0.0
H936 H 0.78926 0.14567 0.21295 0.0
C937 C 0.79033 0.13255 0.29498 0.0
C938 C 0.79093 0.20887 0.26147 0.0
C939 C 0.78717 0.12093 0.3167 0.0
C940 C 0.81771 0.23941 0.16761 0.0
C941 C 0.80292 0.23152 0.18804 0.0
C942 C 0.78947 0.16362 0.22633 0.0
C943 C 0.77779 0.16363 0.28892 0.0
C944 C 0.78225 0.17581 0.26572 0.0
C945 C 0.81465 0.20478 0.20066 0.0
C946 C 0.7999 0.19608 0.22238 0.0
H947 H 0.74698 0.18671 0.33947 0.0
H948 H 0.75207 0.20693 0.30119 0.0
H949 H 0.77296 0.12828 0.25023 0.0
H950 H 0.87749 0.18004 0.16711 0.0
H951 H 0.85109 0.16578 0.20227 0.0
loop_
_geom_bond_atom_site_label_1
_geom_bond_atom_site_label_2
_geom_bond_distance
_geom_bond_site_symmetry_2
_ccdc_geom_bond_type
Co0 O2 2.143 . S
Co0 O8 2.074 . S
Co0 O11 2.093 . S
Co0 O24 2.097 . S
Co0 N41 2.151 . S
Co0 N49 2.214 . S
Co1 O2 2.160 . S
Co1 O7 2.058 . S
Co1 O17 2.057 . S
Co1 O32 2.037 . S
Co1 N36 2.145 . S
Co1 N57 2.257 . S
O2 Co0 2.143 . S
O2 Co1 2.160 . S
C3 O4 1.278 . S
C3 O11 1.224 . S
O4 C3 1.278 . S
C5 O6 1.245 . S
C5 O17 1.232 . S
O6 C5 1.245 . S
O7 Co1 2.058 . S
O7 C33 1.269 . S
O8 Co0 2.074 . S
O8 C33 1.257 . S
H9 C34 0.930 . S
H10 C40 0.930 . S
O11 Co0 2.093 . S
O11 C3 1.224 . S
H12 C44 0.929 . S
H13 C46 0.930 . S
H14 C47 0.930 . S
H15 C45 0.929 . S
H16 C48 0.928 . S
O17 Co1 2.057 . S
O17 C5 1.232 . S
H18 C37 0.929 . S
H19 C38 0.929 . S
H20 C50 0.931 . S
H21 C42 0.929 . S
H22 C51 0.930 . S
H23 C43 0.931 . S
O24 Co0 2.097 . S
O24 C52 1.214 . S
H25 C53 0.929 . S
H26 C54 0.929 . S
H27 C55 0.930 . S
H28 C56 0.929 . S
H29 C58 0.930 . S
H30 C35 0.930 . S
H31 C39 0.930 . S
O32 Co1 2.037 . S
O32 C52 1.234 . S
C33 O7 1.269 . S
C33 O8 1.257 . S
C34 H9 0.930 . S
C34 C37 1.388 . S
C34 C39 1.418 . S
C35 H30 0.930 . S
C35 C38 1.404 . S
C35 C39 1.353 . S
N36 Co1 2.145 . S
N36 C37 1.397 . S
N36 C38 1.334 . S
C37 H18 0.929 . S
C37 C34 1.388 . S
C37 N36 1.397 . S
C38 H19 0.929 . S
C38 C35 1.404 . S
C38 N36 1.334 . S
C39 H31 0.930 . S
C39 C34 1.418 . S
C39 C35 1.353 . S
C40 H10 0.930 . S
C40 N41 1.330 . S
C40 C42 1.446 . S
N41 Co0 2.151 . S
N41 C40 1.330 . S
N41 C45 1.418 . S
C42 H21 0.929 . S
C42 C40 1.446 . S
C42 C43 1.332 1_455 S
C43 H23 0.931 . S
C43 C42 1.332 1_655 S
C43 C44 1.267 . S
C44 H12 0.929 . S
C44 C43 1.267 . S
C44 C45 1.251 1_655 S
C45 H15 0.929 . S
C45 N41 1.418 . S
C45 C44 1.251 1_455 S
C46 H13 0.930 . S
C46 C48 1.406 . S
C46 C51 1.261 . S
C47 H14 0.930 . S
C47 N49 1.325 . S
C47 C50 1.357 . S
C48 H16 0.928 . S
C48 C46 1.406 . S
C48 N49 1.261 . S
N49 Co0 2.214 . S
N49 C47 1.325 . S
N49 C48 1.261 . S
C50 H20 0.931 . S
C50 C47 1.357 . S
C50 C51 1.312 . S
C51 H22 0.930 . S
C51 C46 1.261 . S
C51 C50 1.312 . S
C52 O24 1.214 . S
C52 O32 1.234 . S
C53 H25 0.929 . S
C53 C56 1.391 . S
C53 C58 1.391 . S
C54 H26 0.929 . S
C54 C55 1.390 . S
C54 N57 1.391 . S
C55 H27 0.930 . S
C55 C54 1.390 . S
C55 C56 1.392 . S
C56 H28 0.929 . S
C56 C53 1.391 . S
C56 C55 1.392 . S
N57 Co1 2.257 . S
N57 C54 1.391 . S
N57 C58 1.388 . S
C58 H29 0.930 . S
C58 C53 1.391 . S
C58 N57 1.388 . S
Co59 O61 2.143 . S
Co59 O67 2.074 . S
Co59 O70 2.093 . S
Co59 O83 2.097 . S
Co59 N100 2.151 . S
Co59 N108 2.214 . S
Co60 O61 2.160 . S
Co60 O66 2.058 . S
Co60 O76 2.057 . S
Co60 O91 2.037 . S
Co60 N95 2.145 . S
Co60 N116 2.257 . S
O61 Co59 2.143 . S
O61 Co60 2.160 . S
C62 O63 1.278 . S
C62 O70 1.224 . S
O63 C62 1.278 . S
C64 O65 1.245 . S
C64 O76 1.232 . S
O65 C64 1.245 . S
O66 Co60 2.058 . S
O66 C92 1.269 . S
O67 Co59 2.074 . S
O67 C92 1.257 . S
H68 C93 0.930 . S
H69 C99 0.930 . S
O70 Co59 2.093 . S
O70 C62 1.224 . S
H71 C103 0.929 . S
H72 C105 0.930 . S
H73 C106 0.930 . S
H74 C104 0.929 . S
H75 C107 0.928 . S
O76 Co60 2.057 . S
O76 C64 1.232 . S
H77 C96 0.929 . S
H78 C97 0.929 . S
H79 C109 0.931 . S
H80 C101 0.929 . S
H81 C110 0.930 . S
H82 C102 0.931 . S
O83 Co59 2.097 . S
O83 C111 1.214 . S
H84 C112 0.929 . S
H85 C113 0.929 . S
H86 C114 0.930 . S
H87 C115 0.929 . S
H88 C117 0.930 . S
H89 C94 0.930 . S
H90 C98 0.930 . S
O91 Co60 2.037 . S
O91 C111 1.234 . S
C92 O66 1.269 . S
C92 O67 1.257 . S
C93 H68 0.930 . S
C93 C96 1.388 . S
C93 C98 1.418 . S
C94 H89 0.930 . S
C94 C97 1.404 . S
C94 C98 1.353 . S
N95 Co60 2.145 . S
N95 C96 1.397 . S
N95 C97 1.334 . S
C96 H77 0.929 . S
C96 C93 1.388 . S
C96 N95 1.397 . S
C97 H78 0.929 . S
C97 C94 1.404 . S
C97 N95 1.334 . S
C98 H90 0.930 . S
C98 C93 1.418 . S
C98 C94 1.353 . S
C99 H69 0.930 . S
C99 N100 1.330 . S
C99 C101 1.446 . S
N100 Co59 2.151 . S
N100 C99 1.330 . S
N100 C104 1.418 . S
C101 H80 0.929 . S
C101 C99 1.446 . S
C101 C102 1.332 1_565 S
C102 H82 0.931 . S
C102 C101 1.332 1_545 S
C102 C103 1.267 . S
C103 H71 0.929 . S
C103 C102 1.267 . S
C103 C104 1.251 1_545 S
C104 H74 0.929 . S
C104 N100 1.418 . S
C104 C103 1.251 1_565 S
C105 H72 0.930 . S
C105 C107 1.406 . S
C105 C110 1.261 . S
C106 H73 0.930 . S
C106 N108 1.325 . S
C106 C109 1.357 . S
C107 H75 0.928 . S
C107 C105 1.406 . S
C107 N108 1.261 . S
N108 Co59 2.214 . S
N108 C106 1.325 . S
N108 C107 1.261 . S
C109 H79 0.931 . S
C109 C106 1.357 . S
C109 C110 1.312 . S
C110 H81 0.930 . S
C110 C105 1.261 . S
C110 C109 1.312 . S
C111 O83 1.214 . S
C111 O91 1.234 . S
C112 H84 0.929 . S
C112 C115 1.391 . S
C112 C117 1.391 . S
C113 H85 0.929 . S
C113 C114 1.390 . S
C113 N116 1.391 . S
C114 H86 0.930 . S
C114 C113 1.390 . S
C114 C115 1.392 . S
C115 H87 0.929 . S
C115 C112 1.391 . S
C115 C114 1.392 . S
N116 Co60 2.257 . S
N116 C113 1.391 . S
N116 C117 1.388 . S
C117 H88 0.930 . S
C117 C112 1.391 . S
C117 N116 1.388 . S
Co118 O120 2.143 . S
Co118 O126 2.074 . S
Co118 O129 2.093 . S
Co118 O142 2.097 . S
Co118 N159 2.151 . S
Co118 N167 2.214 . S
Co119 O120 2.160 . S
Co119 O125 2.058 . S
Co119 O135 2.057 . S
Co119 O150 2.037 . S
Co119 N154 2.145 . S
Co119 N175 2.257 . S
O120 Co118 2.143 . S
O120 Co119 2.160 . S
C121 O122 1.278 . S
C121 O129 1.224 . S
O122 C121 1.278 . S
C123 O124 1.245 . S
C123 O135 1.232 . S
O124 C123 1.245 . S
O125 Co119 2.058 . S
O125 C151 1.269 . S
O126 Co118 2.074 . S
O126 C151 1.257 . S
H127 C152 0.930 . S
H128 C158 0.930 . S
O129 Co118 2.093 . S
O129 C121 1.224 . S
H130 C162 0.929 . S
H131 C164 0.930 . S
H132 C165 0.930 . S
H133 C163 0.929 . S
H134 C166 0.928 . S
O135 Co119 2.057 . S
O135 C123 1.232 . S
H136 C155 0.929 . S
H137 C156 0.929 . S
H138 C168 0.931 . S
H139 C160 0.929 . S
H140 C169 0.930 . S
H141 C161 0.931 . S
O142 Co118 2.097 . S
O142 C170 1.214 . S
H143 C171 0.929 . S
H144 C172 0.929 . S
H145 C173 0.930 . S
H146 C174 0.929 . S
H147 C176 0.930 . S
H148 C153 0.930 . S
H149 C157 0.930 . S
O150 Co119 2.037 . S
O150 C170 1.234 . S
C151 O125 1.269 . S
C151 O126 1.257 . S
C152 H127 0.930 . S
C152 C155 1.388 . S
C152 C157 1.418 . S
C153 H148 0.930 . S
C153 C156 1.404 . S
C153 C157 1.353 . S
N154 Co119 2.145 . S
N154 C155 1.397 . S
N154 C156 1.334 . S
C155 H136 0.929 . S
C155 C152 1.388 . S
C155 N154 1.397 . S
C156 H137 0.929 . S
C156 C153 1.404 . S
C156 N154 1.334 . S
C157 H149 0.930 . S
C157 C152 1.418 . S
C157 C153 1.353 . S
C158 H128 0.930 . S
C158 N159 1.330 . S
C158 C160 1.446 . S
N159 Co118 2.151 . S
N159 C158 1.330 . S
N159 C163 1.418 . S
C160 H139 0.929 . S
C160 C158 1.446 . S
C160 C161 1.332 1_655 S
C161 H141 0.931 . S
C161 C160 1.332 1_455 S
C161 C162 1.267 . S
C162 H130 0.929 . S
C162 C161 1.267 . S
C162 C163 1.251 1_455 S
C163 H133 0.929 . S
C163 N159 1.418 . S
C163 C162 1.251 1_655 S
C164 H131 0.930 . S
C164 C166 1.406 . S
C164 C169 1.261 . S
C165 H132 0.930 . S
C165 N167 1.325 . S
C165 C168 1.357 . S
C166 H134 0.928 . S
C166 C164 1.406 . S
C166 N167 1.261 . S
N167 Co118 2.214 . S
N167 C165 1.325 . S
N167 C166 1.261 . S
C168 H138 0.931 . S
C168 C165 1.357 . S
C168 C169 1.312 . S
C169 H140 0.930 . S
C169 C164 1.261 . S
C169 C168 1.312 . S
C170 O142 1.214 . S
C170 O150 1.234 . S
C171 H143 0.929 . S
C171 C174 1.391 . S
C171 C176 1.391 . S
C172 H144 0.929 . S
C172 C173 1.390 . S
C172 N175 1.391 . S
C173 H145 0.930 . S
C173 C172 1.390 . S
C173 C174 1.392 . S
C174 H146 0.929 . S
C174 C171 1.391 . S
C174 C173 1.392 . S
N175 Co119 2.257 . S
N175 C172 1.391 . S
N175 C176 1.388 . S
C176 H147 0.930 . S
C176 C171 1.391 . S
C176 N175 1.388 . S
Co177 O179 2.143 . S
Co177 O185 2.074 . S
Co177 O188 2.093 . S
Co177 O201 2.097 . S
Co177 N218 2.151 . S
Co177 N226 2.214 . S
Co178 O179 2.160 . S
Co178 O184 2.058 . S
Co178 O194 2.057 . S
Co178 O209 2.037 . S
Co178 N213 2.145 . S
Co178 N234 2.257 . S
O179 Co177 2.143 . S
O179 Co178 2.160 . S
C180 O181 1.278 . S
C180 O188 1.224 . S
O181 C180 1.278 . S
C182 O183 1.245 . S
C182 O194 1.232 . S
O183 C182 1.245 . S
O184 Co178 2.058 . S
O184 C210 1.269 . S
O185 Co177 2.074 . S
O185 C210 1.257 . S
H186 C211 0.930 . S
H187 C217 0.930 . S
O188 Co177 2.093 . S
O188 C180 1.224 . S
H189 C221 0.929 . S
H190 C223 0.930 . S
H191 C224 0.930 . S
H192 C222 0.929 . S
H193 C225 0.928 . S
O194 Co178 2.057 . S
O194 C182 1.232 . S
H195 C214 0.929 . S
H196 C215 0.929 . S
H197 C227 0.931 . S
H198 C219 0.929 . S
H199 C228 0.930 . S
H200 C220 0.931 . S
O201 Co177 2.097 . S
O201 C229 1.214 . S
H202 C230 0.929 . S
H203 C231 0.929 . S
H204 C232 0.930 . S
H205 C233 0.929 . S
H206 C235 0.930 . S
H207 C212 0.930 . S
H208 C216 0.930 . S
O209 Co178 2.037 . S
O209 C229 1.234 . S
C210 O184 1.269 . S
C210 O185 1.257 . S
C211 H186 0.930 . S
C211 C214 1.388 . S
C211 C216 1.418 . S
C212 H207 0.930 . S
C212 C215 1.404 . S
C212 C216 1.353 . S
N213 Co178 2.145 . S
N213 C214 1.397 . S
N213 C215 1.334 . S
C214 H195 0.929 . S
C214 C211 1.388 . S
C214 N213 1.397 . S
C215 H196 0.929 . S
C215 C212 1.404 . S
C215 N213 1.334 . S
C216 H208 0.930 . S
C216 C211 1.418 . S
C216 C212 1.353 . S
C217 H187 0.930 . S
C217 N218 1.330 . S
C217 C219 1.446 . S
N218 Co177 2.151 . S
N218 C217 1.330 . S
N218 C222 1.418 . S
C219 H198 0.929 . S
C219 C217 1.446 . S
C219 C220 1.332 1_545 S
C220 H200 0.931 . S
C220 C219 1.332 1_565 S
C220 C221 1.267 . S
C221 H189 0.929 . S
C221 C220 1.267 . S
C221 C222 1.251 1_565 S
C222 H192 0.929 . S
C222 N218 1.418 . S
C222 C221 1.251 1_545 S
C223 H190 0.930 . S
C223 C225 1.406 . S
C223 C228 1.261 . S
C224 H191 0.930 . S
C224 N226 1.325 . S
C224 C227 1.357 . S
C225 H193 0.928 . S
C225 C223 1.406 . S
C225 N226 1.261 . S
N226 Co177 2.214 . S
N226 C224 1.325 . S
N226 C225 1.261 . S
C227 H197 0.931 . S
C227 C224 1.357 . S
C227 C228 1.312 . S
C228 H199 0.930 . S
C228 C223 1.261 . S
C228 C227 1.312 . S
C229 O201 1.214 . S
C229 O209 1.234 . S
C230 H202 0.929 . S
C230 C233 1.391 . S
C230 C235 1.391 . S
C231 H203 0.929 . S
C231 C232 1.390 . S
C231 N234 1.391 . S
C232 H204 0.930 . S
C232 C231 1.390 . S
C232 C233 1.392 . S
C233 H205 0.929 . S
C233 C230 1.391 . S
C233 C232 1.392 . S
N234 Co178 2.257 . S
N234 C231 1.391 . S
N234 C235 1.388 . S
C235 H206 0.930 . S
C235 C230 1.391 . S
C235 N234 1.388 . S
Co236 O238 2.143 . S
Co236 O244 2.074 . S
Co236 O247 2.093 . S
Co236 O260 2.097 . S
Co236 N277 2.151 . S
Co236 N285 2.214 . S
Co237 O238 2.160 . S
Co237 O243 2.058 . S
Co237 O253 2.057 . S
Co237 O268 2.037 . S
Co237 N272 2.145 . S
Co237 N293 2.257 . S
O238 Co236 2.143 . S
O238 Co237 2.160 . S
C239 O240 1.278 . S
C239 O247 1.224 . S
O240 C239 1.278 . S
C241 O242 1.245 . S
C241 O253 1.232 . S
O242 C241 1.245 . S
O243 Co237 2.058 . S
O243 C269 1.269 . S
O244 Co236 2.074 . S
O244 C269 1.257 . S
H245 C270 0.930 . S
H246 C276 0.930 . S
O247 Co236 2.093 . S
O247 C239 1.224 . S
H248 C280 0.929 . S
H249 C282 0.930 . S
H250 C283 0.930 . S
H251 C281 0.929 . S
H252 C284 0.928 . S
O253 Co237 2.057 . S
O253 C241 1.232 . S
H254 C273 0.929 . S
H255 C274 0.929 . S
H256 C286 0.931 . S
H257 C278 0.929 . S
H258 C287 0.930 . S
H259 C279 0.931 . S
O260 Co236 2.097 . S
O260 C288 1.214 . S
H261 C289 0.929 . S
H262 C290 0.929 . S
H263 C291 0.930 . S
H264 C292 0.929 . S
H265 C294 0.930 . S
H266 C271 0.930 . S
H267 C275 0.930 . S
O268 Co237 2.037 . S
O268 C288 1.234 . S
C269 O243 1.269 . S
C269 O244 1.257 . S
C270 H245 0.930 . S
C270 C273 1.388 1_556 S
C270 C275 1.418 . S
C271 H266 0.930 . S
C271 C274 1.404 . S
C271 C275 1.353 1_554 S
N272 Co237 2.145 . S
N272 C273 1.397 . S
N272 C274 1.334 . S
C273 H254 0.929 . S
C273 C270 1.388 1_554 S
C273 N272 1.397 . S
C274 H255 0.929 . S
C274 C271 1.404 . S
C274 N272 1.334 . S
C275 H267 0.930 . S
C275 C270 1.418 . S
C275 C271 1.353 1_556 S
C276 H246 0.930 . S
C276 N277 1.330 . S
C276 C278 1.446 . S
N277 Co236 2.151 . S
N277 C276 1.330 . S
N277 C281 1.418 . S
C278 H257 0.929 . S
C278 C276 1.446 . S
C278 C279 1.332 1_655 S
C279 H259 0.931 . S
C279 C278 1.332 1_455 S
C279 C280 1.267 . S
C280 H248 0.929 . S
C280 C279 1.267 . S
C280 C281 1.251 1_455 S
C281 H251 0.929 . S
C281 N277 1.418 . S
C281 C280 1.251 1_655 S
C282 H249 0.930 . S
C282 C284 1.406 . S
C282 C287 1.261 . S
C283 H250 0.930 . S
C283 N285 1.325 . S
C283 C286 1.357 . S
C284 H252 0.928 . S
C284 C282 1.406 . S
C284 N285 1.261 . S
N285 Co236 2.214 . S
N285 C283 1.325 . S
N285 C284 1.261 . S
C286 H256 0.931 . S
C286 C283 1.357 . S
C286 C287 1.312 . S
C287 H258 0.930 . S
C287 C282 1.261 . S
C287 C286 1.312 . S
C288 O260 1.214 . S
C288 O268 1.234 . S
C289 H261 0.929 . S
C289 C292 1.391 . S
C289 C294 1.391 . S
C290 H262 0.929 . S
C290 C291 1.390 . S
C290 N293 1.391 . S
C291 H263 0.930 . S
C291 C290 1.390 . S
C291 C292 1.392 . S
C292 H264 0.929 . S
C292 C289 1.391 . S
C292 C291 1.392 . S
N293 Co237 2.257 . S
N293 C290 1.391 . S
N293 C294 1.388 . S
C294 H265 0.930 . S
C294 C289 1.391 . S
C294 N293 1.388 . S
Co295 O297 2.143 . S
Co295 O303 2.074 . S
Co295 O306 2.093 . S
Co295 O319 2.097 . S
Co295 N336 2.151 . S
Co295 N344 2.214 . S
Co296 O297 2.160 . S
Co296 O302 2.058 . S
Co296 O312 2.057 . S
Co296 O327 2.037 . S
Co296 N331 2.145 . S
Co296 N352 2.257 . S
O297 Co295 2.143 . S
O297 Co296 2.160 . S
C298 O299 1.278 . S
C298 O306 1.224 . S
O299 C298 1.278 . S
C300 O301 1.245 . S
C300 O312 1.232 . S
O301 C300 1.245 . S
O302 Co296 2.058 . S
O302 C328 1.269 . S
O303 Co295 2.074 . S
O303 C328 1.257 . S
H304 C329 0.930 . S
H305 C335 0.930 . S
O306 Co295 2.093 . S
O306 C298 1.224 . S
H307 C339 0.929 . S
H308 C341 0.930 . S
H309 C342 0.930 . S
H310 C340 0.929 . S
H311 C343 0.928 . S
O312 Co296 2.057 . S
O312 C300 1.232 . S
H313 C332 0.929 . S
H314 C333 0.929 . S
H315 C345 0.931 . S
H316 C337 0.929 . S
H317 C346 0.930 . S
H318 C338 0.931 . S
O319 Co295 2.097 . S
O319 C347 1.214 . S
H320 C348 0.929 . S
H321 C349 0.929 . S
H322 C350 0.930 . S
H323 C351 0.929 . S
H324 C353 0.930 . S
H325 C330 0.930 . S
H326 C334 0.930 . S
O327 Co296 2.037 . S
O327 C347 1.234 . S
C328 O302 1.269 . S
C328 O303 1.257 . S
C329 H304 0.930 . S
C329 C332 1.388 1_554 S
C329 C334 1.418 . S
C330 H325 0.930 . S
C330 C333 1.404 . S
C330 C334 1.353 1_556 S
N331 Co296 2.145 . S
N331 C332 1.397 . S
N331 C333 1.334 . S
C332 H313 0.929 . S
C332 C329 1.388 1_556 S
C332 N331 1.397 . S
C333 H314 0.929 . S
C333 C330 1.404 . S
C333 N331 1.334 . S
C334 H326 0.930 . S
C334 C329 1.418 . S
C334 C330 1.353 1_554 S
C335 H305 0.930 . S
C335 N336 1.330 . S
C335 C337 1.446 . S
N336 Co295 2.151 . S
N336 C335 1.330 . S
N336 C340 1.418 . S
C337 H316 0.929 . S
C337 C335 1.446 . S
C337 C338 1.332 1_545 S
C338 H318 0.931 . S
C338 C337 1.332 1_565 S
C338 C339 1.267 . S
C339 H307 0.929 . S
C339 C338 1.267 . S
C339 C340 1.251 1_565 S
C340 H310 0.929 . S
C340 N336 1.418 . S
C340 C339 1.251 1_545 S
C341 H308 0.930 . S
C341 C343 1.406 . S
C341 C346 1.261 . S
C342 H309 0.930 . S
C342 N344 1.325 . S
C342 C345 1.357 . S
C343 H311 0.928 . S
C343 C341 1.406 . S
C343 N344 1.261 . S
N344 Co295 2.214 . S
N344 C342 1.325 . S
N344 C343 1.261 . S
C345 H315 0.931 . S
C345 C342 1.357 . S
C345 C346 1.312 . S
C346 H317 0.930 . S
C346 C341 1.261 . S
C346 C345 1.312 . S
C347 O319 1.214 . S
C347 O327 1.234 . S
C348 H320 0.929 . S
C348 C351 1.391 . S
C348 C353 1.391 . S
C349 H321 0.929 . S
C349 C350 1.390 . S
C349 N352 1.391 . S
C350 H322 0.930 . S
C350 C349 1.390 . S
C350 C351 1.392 . S
C351 H323 0.929 . S
C351 C348 1.391 . S
C351 C350 1.392 . S
N352 Co296 2.257 . S
N352 C349 1.391 . S
N352 C353 1.388 . S
C353 H324 0.930 . S
C353 C348 1.391 . S
C353 N352 1.388 . S
Co354 O356 2.143 . S
Co354 O362 2.074 . S
Co354 O365 2.093 . S
Co354 O378 2.097 . S
Co354 N395 2.151 . S
Co354 N403 2.214 . S
Co355 O356 2.160 . S
Co355 O361 2.058 . S
Co355 O371 2.057 . S
Co355 O386 2.037 . S
Co355 N390 2.145 . S
Co355 N411 2.257 . S
O356 Co354 2.143 . S
O356 Co355 2.160 . S
C357 O358 1.278 . S
C357 O365 1.224 . S
O358 C357 1.278 . S
C359 O360 1.245 . S
C359 O371 1.232 . S
O360 C359 1.245 . S
O361 Co355 2.058 . S
O361 C387 1.269 . S
O362 Co354 2.074 . S
O362 C387 1.257 . S
H363 C388 0.930 . S
H364 C394 0.930 . S
O365 Co354 2.093 . S
O365 C357 1.224 . S
H366 C398 0.929 . S
H367 C400 0.930 . S
H368 C401 0.930 . S
H369 C399 0.929 . S
H370 C402 0.928 . S
O371 Co355 2.057 . S
O371 C359 1.232 . S
H372 C391 0.929 . S
H373 C392 0.929 . S
H374 C404 0.931 . S
H375 C396 0.929 . S
H376 C405 0.930 . S
H377 C397 0.931 . S
O378 Co354 2.097 . S
O378 C406 1.214 . S
H379 C407 0.929 . S
H380 C408 0.929 . S
H381 C409 0.930 . S
H382 C410 0.929 . S
H383 C412 0.930 . S
H384 C389 0.930 . S
H385 C393 0.930 . S
O386 Co355 2.037 . S
O386 C406 1.234 . S
C387 O361 1.269 . S
C387 O362 1.257 . S
C388 H363 0.930 . S
C388 C391 1.388 1_556 S
C388 C393 1.418 . S
C389 H384 0.930 . S
C389 C392 1.404 . S
C389 C393 1.353 1_554 S
N390 Co355 2.145 . S
N390 C391 1.397 . S
N390 C392 1.334 . S
C391 H372 0.929 . S
C391 C388 1.388 1_554 S
C391 N390 1.397 . S
C392 H373 0.929 . S
C392 C389 1.404 . S
C392 N390 1.334 . S
C393 H385 0.930 . S
C393 C388 1.418 . S
C393 C389 1.353 1_556 S
C394 H364 0.930 . S
C394 N395 1.330 . S
C394 C396 1.446 . S
N395 Co354 2.151 . S
N395 C394 1.330 . S
N395 C399 1.418 . S
C396 H375 0.929 . S
C396 C394 1.446 . S
C396 C397 1.332 1_455 S
C397 H377 0.931 . S
C397 C396 1.332 1_655 S
C397 C398 1.267 . S
C398 H366 0.929 . S
C398 C397 1.267 . S
C398 C399 1.251 1_655 S
C399 H369 0.929 . S
C399 N395 1.418 . S
C399 C398 1.251 1_455 S
C400 H367 0.930 . S
C400 C402 1.406 . S
C400 C405 1.261 . S
C401 H368 0.930 . S
C401 N403 1.325 . S
C401 C404 1.357 . S
C402 H370 0.928 . S
C402 C400 1.406 . S
C402 N403 1.261 . S
N403 Co354 2.214 . S
N403 C401 1.325 . S
N403 C402 1.261 . S
C404 H374 0.931 . S
C404 C401 1.357 . S
C404 C405 1.312 . S
C405 H376 0.930 . S
C405 C400 1.261 . S
C405 C404 1.312 . S
C406 O378 1.214 . S
C406 O386 1.234 . S
C407 H379 0.929 . S
C407 C410 1.391 . S
C407 C412 1.391 . S
C408 H380 0.929 . S
C408 C409 1.390 . S
C408 N411 1.391 . S
C409 H381 0.930 . S
C409 C408 1.390 . S
C409 C410 1.392 . S
C410 H382 0.929 . S
C410 C407 1.391 . S
C410 C409 1.392 . S
N411 Co355 2.257 . S
N411 C408 1.391 . S
N411 C412 1.388 . S
C412 H383 0.930 . S
C412 C407 1.391 . S
C412 N411 1.388 . S
Co413 O415 2.143 . S
Co413 O421 2.074 . S
Co413 O424 2.093 . S
Co413 O437 2.097 . S
Co413 N454 2.151 . S
Co413 N462 2.214 . S
Co414 O415 2.160 . S
Co414 O420 2.058 . S
Co414 O430 2.057 . S
Co414 O445 2.037 . S
Co414 N449 2.145 . S
Co414 N470 2.257 . S
O415 Co413 2.143 . S
O415 Co414 2.160 . S
C416 O417 1.278 . S
C416 O424 1.224 . S
O417 C416 1.278 . S
C418 O419 1.245 . S
C418 O430 1.232 . S
O419 C418 1.245 . S
O420 Co414 2.058 . S
O420 C446 1.269 . S
O421 Co413 2.074 . S
O421 C446 1.257 . S
H422 C447 0.930 . S
H423 C453 0.930 . S
O424 Co413 2.093 . S
O424 C416 1.224 . S
H425 C457 0.929 . S
H426 C459 0.930 . S
H427 C460 0.930 . S
H428 C458 0.929 . S
H429 C461 0.928 . S
O430 Co414 2.057 . S
O430 C418 1.232 . S
H431 C450 0.929 . S
H432 C451 0.929 . S
H433 C463 0.931 . S
H434 C455 0.929 . S
H435 C464 0.930 . S
H436 C456 0.931 . S
O437 Co413 2.097 . S
O437 C465 1.214 . S
H438 C466 0.929 . S
H439 C467 0.929 . S
H440 C468 0.930 . S
H441 C469 0.929 . S
H442 C471 0.930 . S
H443 C448 0.930 . S
H444 C452 0.930 . S
O445 Co414 2.037 . S
O445 C465 1.234 . S
C446 O420 1.269 . S
C446 O421 1.257 . S
C447 H422 0.930 . S
C447 C450 1.388 1_554 S
C447 C452 1.418 . S
C448 H443 0.930 . S
C448 C451 1.404 . S
C448 C452 1.353 1_556 S
N449 Co414 2.145 . S
N449 C450 1.397 . S
N449 C451 1.334 . S
C450 H431 0.929 . S
C450 C447 1.388 1_556 S
C450 N449 1.397 . S
C451 H432 0.929 . S
C451 C448 1.404 . S
C451 N449 1.334 . S
C452 H444 0.930 . S
C452 C447 1.418 . S
C452 C448 1.353 1_554 S
C453 H423 0.930 . S
C453 N454 1.330 . S
C453 C455 1.446 . S
N454 Co413 2.151 . S
N454 C453 1.330 . S
N454 C458 1.418 . S
C455 H434 0.929 . S
C455 C453 1.446 . S
C455 C456 1.332 1_565 S
C456 H436 0.931 . S
C456 C455 1.332 1_545 S
C456 C457 1.267 . S
C457 H425 0.929 . S
C457 C456 1.267 . S
C457 C458 1.251 1_545 S
C458 H428 0.929 . S
C458 N454 1.418 . S
C458 C457 1.251 1_565 S
C459 H426 0.930 . S
C459 C461 1.406 . S
C459 C464 1.261 . S
C460 H427 0.930 . S
C460 N462 1.325 . S
C460 C463 1.357 . S
C461 H429 0.928 . S
C461 C459 1.406 . S
C461 N462 1.261 . S
N462 Co413 2.214 . S
N462 C460 1.325 . S
N462 C461 1.261 . S
C463 H433 0.931 . S
C463 C460 1.357 . S
C463 C464 1.312 . S
C464 H435 0.930 . S
C464 C459 1.261 . S
C464 C463 1.312 . S
C465 O437 1.214 . S
C465 O445 1.234 . S
C466 H438 0.929 . S
C466 C469 1.391 . S
C466 C471 1.391 . S
C467 H439 0.929 . S
C467 C468 1.390 . S
C467 N470 1.391 . S
C468 H440 0.930 . S
C468 C467 1.390 . S
C468 C469 1.392 . S
C469 H441 0.929 . S
C469 C466 1.391 . S
C469 C468 1.392 . S
N470 Co414 2.257 . S
N470 C467 1.391 . S
N470 C471 1.388 . S
C471 H442 0.930 . S
C471 C466 1.391 . S
C471 N470 1.388 . S
C472 C473 1.349 . S
C472 C474 1.327 . S
C472 H497 0.950 . S
C473 C472 1.349 . S
C473 C489 1.349 . S
C474 C472 1.327 . S
C474 C493 1.429 . S
C474 H498 0.950 . S
C475 C492 1.574 . S
C475 C494 1.368 . S
C475 H499 0.949 . S
H476 C480 0.949 . S
C477 C478 1.349 . S
C477 C479 1.327 . S
C477 H500 0.950 . S
C478 C477 1.349 . S
C478 C490 1.349 . S
C479 C477 1.327 . S
C479 C495 1.429 . S
C479 H501 0.950 . S
C480 H476 0.949 . S
C480 C488 1.574 . S
C480 C496 1.368 . S
H481 C489 0.950 . S
H482 C487 0.950 . S
H483 C488 0.949 . S
H484 C490 0.950 . S
H485 C491 0.950 . S
H486 C492 0.949 . S
C487 H482 0.950 . S
C487 C489 1.327 . S
C487 C493 1.429 . S
C488 C480 1.574 . S
C488 H483 0.949 . S
C488 C494 1.368 1_455 S
C489 C473 1.349 . S
C489 H481 0.950 . S
C489 C487 1.327 . S
C490 C478 1.349 . S
C490 H484 0.950 . S
C490 C491 1.327 . S
C491 H485 0.950 . S
C491 C490 1.327 . S
C491 C495 1.429 . S
C492 C475 1.574 . S
C492 H486 0.949 . S
C492 C496 1.368 1_655 S
C493 C474 1.429 . S
C493 C487 1.429 . S
C493 C494 1.523 . S
C494 C475 1.368 . S
C494 C488 1.368 1_655 S
C494 C493 1.523 . S
C495 C479 1.429 . S
C495 C491 1.429 . S
C495 C496 1.523 . S
C496 C480 1.368 . S
C496 C492 1.368 1_455 S
C496 C495 1.523 . S
H497 C472 0.950 . S
H498 C474 0.950 . S
H499 C475 0.949 . S
H500 C477 0.950 . S
H501 C479 0.950 . S
C502 C503 1.349 . S
C502 C504 1.327 . S
C502 H527 0.950 . S
C503 C502 1.349 . S
C503 C519 1.349 . S
C504 C502 1.327 . S
C504 C523 1.429 . S
C504 H528 0.950 . S
C505 C522 1.574 . S
C505 C524 1.368 . S
C505 H529 0.949 . S
H506 C510 0.949 . S
C507 C508 1.349 . S
C507 C509 1.327 . S
C507 H530 0.950 . S
C508 C507 1.349 . S
C508 C520 1.349 . S
C509 C507 1.327 . S
C509 C525 1.429 . S
C509 H531 0.950 . S
C510 H506 0.949 . S
C510 C518 1.574 . S
C510 C526 1.368 . S
H511 C519 0.950 . S
H512 C517 0.950 . S
H513 C518 0.949 . S
H514 C520 0.950 . S
H515 C521 0.950 . S
H516 C522 0.949 . S
C517 H512 0.950 . S
C517 C519 1.327 . S
C517 C523 1.429 . S
C518 C510 1.574 . S
C518 H513 0.949 . S
C518 C524 1.368 1_565 S
C519 C503 1.349 . S
C519 H511 0.950 . S
C519 C517 1.327 . S
C520 C508 1.349 . S
C520 H514 0.950 . S
C520 C521 1.327 . S
C521 H515 0.950 . S
C521 C520 1.327 . S
C521 C525 1.429 . S
C522 C505 1.574 . S
C522 H516 0.949 . S
C522 C526 1.368 1_545 S
C523 C504 1.429 . S
C523 C517 1.429 . S
C523 C524 1.523 . S
C524 C505 1.368 . S
C524 C518 1.368 1_545 S
C524 C523 1.523 . S
C525 C509 1.429 . S
C525 C521 1.429 . S
C525 C526 1.523 . S
C526 C510 1.368 . S
C526 C522 1.368 1_565 S
C526 C525 1.523 . S
H527 C502 0.950 . S
H528 C504 0.950 . S
H529 C505 0.949 . S
H530 C507 0.950 . S
H531 C509 0.950 . S
C532 C533 1.349 . S
C532 C534 1.327 . S
C532 H557 0.950 . S
C533 C532 1.349 . S
C533 C549 1.349 . S
C534 C532 1.327 . S
C534 C553 1.429 . S
C534 H558 0.950 . S
C535 C552 1.574 . S
C535 C554 1.368 1_455 S
C535 H559 0.949 . S
H536 C540 0.949 . S
C537 C538 1.349 . S
C537 C539 1.327 . S
C537 H560 0.950 . S
C538 C537 1.349 . S
C538 C550 1.349 . S
C539 C537 1.327 . S
C539 C555 1.429 . S
C539 H561 0.950 . S
C540 H536 0.949 . S
C540 C548 1.574 . S
C540 C556 1.368 1_655 S
H541 C549 0.950 . S
H542 C547 0.950 . S
H543 C548 0.949 . S
H544 C550 0.950 . S
H545 C551 0.950 . S
H546 C552 0.949 . S
C547 H542 0.950 . S
C547 C549 1.327 . S
C547 C553 1.429 . S
C548 C540 1.574 . S
C548 H543 0.949 . S
C548 C554 1.368 . S
C549 C533 1.349 . S
C549 H541 0.950 . S
C549 C547 1.327 . S
C550 C538 1.349 . S
C550 H544 0.950 . S
C550 C551 1.327 . S
C551 H545 0.950 . S
C551 C550 1.327 . S
C551 C555 1.429 . S
C552 C535 1.574 . S
C552 H546 0.949 . S
C552 C556 1.368 . S
C553 C534 1.429 . S
C553 C547 1.429 . S
C553 C554 1.523 . S
C554 C535 1.368 1_655 S
C554 C548 1.368 . S
C554 C553 1.523 . S
C555 C539 1.429 . S
C555 C551 1.429 . S
C555 C556 1.523 . S
C556 C540 1.368 1_455 S
C556 C552 1.368 . S
C556 C555 1.523 . S
H557 C532 0.950 . S
H558 C534 0.950 . S
H559 C535 0.949 . S
H560 C537 0.950 . S
H561 C539 0.950 . S
C562 C563 1.349 . S
C562 C564 1.327 . S
C562 H587 0.950 . S
C563 C562 1.349 . S
C563 C579 1.349 . S
C564 C562 1.327 . S
C564 C583 1.429 . S
C564 H588 0.950 . S
C565 C582 1.574 . S
C565 C584 1.368 . S
C565 H589 0.949 . S
H566 C570 0.949 . S
C567 C568 1.349 . S
C567 C569 1.327 . S
C567 H590 0.950 . S
C568 C567 1.349 . S
C568 C580 1.349 . S
C569 C567 1.327 . S
C569 C585 1.429 . S
C569 H591 0.950 . S
C570 H566 0.949 . S
C570 C578 1.574 . S
C570 C586 1.368 . S
H571 C579 0.950 . S
H572 C577 0.950 . S
H573 C578 0.949 . S
H574 C580 0.950 . S
H575 C581 0.950 . S
H576 C582 0.949 . S
C577 H572 0.950 . S
C577 C579 1.327 . S
C577 C583 1.429 . S
C578 C570 1.574 . S
C578 H573 0.949 . S
C578 C584 1.368 1_565 S
C579 C563 1.349 . S
C579 H571 0.950 . S
C579 C577 1.327 . S
C580 C568 1.349 . S
C580 H574 0.950 . S
C580 C581 1.327 . S
C581 H575 0.950 . S
C581 C580 1.327 . S
C581 C585 1.429 . S
C582 C565 1.574 . S
C582 H576 0.949 . S
C582 C586 1.368 1_545 S
C583 C564 1.429 . S
C583 C577 1.429 . S
C583 C584 1.523 . S
C584 C565 1.368 . S
C584 C578 1.368 1_545 S
C584 C583 1.523 . S
C585 C569 1.429 . S
C585 C581 1.429 . S
C585 C586 1.523 . S
C586 C570 1.368 . S
C586 C582 1.368 1_565 S
C586 C585 1.523 . S
H587 C562 0.950 . S
H588 C564 0.950 . S
H589 C565 0.949 . S
H590 C567 0.950 . S
H591 C569 0.950 . S
C592 C593 1.349 1_545 S
C592 C594 1.327 . S
C592 H617 0.950 . S
C593 C592 1.349 1_565 S
C593 C609 1.349 . S
C594 C592 1.327 . S
C594 C613 1.429 . S
C594 H618 0.950 . S
C595 C612 1.574 . S
C595 C614 1.368 . S
C595 H619 0.949 . S
H596 C600 0.949 . S
C597 C598 1.349 . S
C597 C599 1.327 . S
C597 H620 0.950 . S
C598 C597 1.349 . S
C598 C610 1.349 . S
C599 C597 1.327 . S
C599 C615 1.429 . S
C599 H621 0.950 . S
C600 H596 0.949 . S
C600 C608 1.574 . S
C600 C616 1.368 . S
H601 C609 0.950 . S
H602 C607 0.950 . S
H603 C608 0.949 . S
H604 C610 0.950 . S
H605 C611 0.950 . S
H606 C612 0.949 . S
C607 H602 0.950 . S
C607 C609 1.327 1_545 S
C607 C613 1.429 . S
C608 C600 1.574 . S
C608 H603 0.949 . S
C608 C614 1.368 . S
C609 C593 1.349 . S
C609 H601 0.950 . S
C609 C607 1.327 1_565 S
C610 C598 1.349 . S
C610 H604 0.950 . S
C610 C611 1.327 . S
C611 H605 0.950 . S
C611 C610 1.327 . S
C611 C615 1.429 . S
C612 C595 1.574 . S
C612 H606 0.949 . S
C612 C616 1.368 . S
C613 C594 1.429 . S
C613 C607 1.429 . S
C613 C614 1.523 . S
C614 C595 1.368 . S
C614 C608 1.368 . S
C614 C613 1.523 . S
C615 C599 1.429 . S
C615 C611 1.429 . S
C615 C616 1.523 . S
C616 C600 1.368 . S
C616 C612 1.368 . S
C616 C615 1.523 . S
H617 C592 0.950 . S
H618 C594 0.950 . S
H619 C595 0.949 . S
H620 C597 0.950 . S
H621 C599 0.950 . S
C622 C623 1.349 . S
C622 C624 1.327 . S
C622 H647 0.950 . S
C623 C622 1.349 . S
C623 C639 1.349 . S
C624 C622 1.327 . S
C624 C643 1.429 . S
C624 H648 0.950 . S
C625 C642 1.574 . S
C625 C644 1.368 . S
C625 H649 0.949 . S
H626 C630 0.949 . S
C627 C628 1.349 1_455 S
C627 C629 1.327 . S
C627 H650 0.950 . S
C628 C627 1.349 1_655 S
C628 C640 1.349 . S
C629 C627 1.327 . S
C629 C645 1.429 . S
C629 H651 0.950 . S
C630 H626 0.949 . S
C630 C638 1.574 . S
C630 C646 1.368 . S
H631 C639 0.950 . S
H632 C637 0.950 . S
H633 C638 0.949 . S
H634 C640 0.950 . S
H635 C641 0.950 1_655 S
H636 C642 0.949 . S
C637 H632 0.950 . S
C637 C639 1.327 . S
C637 C643 1.429 . S
C638 C630 1.574 . S
C638 H633 0.949 . S
C638 C644 1.368 . S
C639 C623 1.349 . S
C639 H631 0.950 . S
C639 C637 1.327 . S
C640 C628 1.349 . S
C640 H634 0.950 . S
C640 C641 1.327 1_655 S
C641 H635 0.950 1_455 S
C641 C640 1.327 1_455 S
C641 C645 1.429 . S
C642 C625 1.574 . S
C642 H636 0.949 . S
C642 C646 1.368 . S
C643 C624 1.429 . S
C643 C637 1.429 . S
C643 C644 1.523 . S
C644 C625 1.368 . S
C644 C638 1.368 . S
C644 C643 1.523 . S
C645 C629 1.429 . S
C645 C641 1.429 . S
C645 C646 1.523 . S
C646 C630 1.368 . S
C646 C642 1.368 . S
C646 C645 1.523 . S
H647 C622 0.950 . S
H648 C624 0.950 . S
H649 C625 0.949 . S
H650 C627 0.950 . S
H651 C629 0.950 . S
C652 C653 1.349 . S
C652 C654 1.327 1_545 S
C652 H677 0.950 . S
C653 C652 1.349 . S
C653 C669 1.349 . S
C654 C652 1.327 1_565 S
C654 C673 1.429 . S
C654 H678 0.950 . S
C655 C672 1.574 . S
C655 C674 1.368 . S
C655 H679 0.949 . S
H656 C660 0.949 . S
C657 C658 1.349 . S
C657 C659 1.327 . S
C657 H680 0.950 . S
C658 C657 1.349 . S
C658 C670 1.349 . S
C659 C657 1.327 . S
C659 C675 1.429 . S
C659 H681 0.950 . S
C660 H656 0.949 . S
C660 C668 1.574 . S
C660 C676 1.368 . S
H661 C669 0.950 . S
H662 C667 0.950 . S
H663 C668 0.949 . S
H664 C670 0.950 . S
H665 C671 0.950 . S
H666 C672 0.949 . S
C667 H662 0.950 . S
C667 C669 1.327 1_565 S
C667 C673 1.429 . S
C668 C660 1.574 . S
C668 H663 0.949 . S
C668 C674 1.368 . S
C669 C653 1.349 . S
C669 H661 0.950 . S
C669 C667 1.327 1_545 S
C670 C658 1.349 . S
C670 H664 0.950 . S
C670 C671 1.327 . S
C671 H665 0.950 . S
C671 C670 1.327 . S
C671 C675 1.429 . S
C672 C655 1.574 . S
C672 H666 0.949 . S
C672 C676 1.368 . S
C673 C654 1.429 . S
C673 C667 1.429 . S
C673 C674 1.523 . S
C674 C655 1.368 . S
C674 C668 1.368 . S
C674 C673 1.523 . S
C675 C659 1.429 . S
C675 C671 1.429 . S
C675 C676 1.523 . S
C676 C660 1.368 . S
C676 C672 1.368 . S
C676 C675 1.523 . S
H677 C652 0.950 . S
H678 C654 0.950 . S
H679 C655 0.949 . S
H680 C657 0.950 . S
H681 C659 0.950 . S
C682 C683 1.349 . S
C682 C684 1.327 . S
C682 H707 0.950 . S
C683 C682 1.349 . S
C683 C699 1.349 . S
C684 C682 1.327 . S
C684 C703 1.429 . S
C684 H708 0.950 . S
C685 C702 1.574 . S
C685 C704 1.368 . S
C685 H709 0.949 . S
H686 C690 0.949 . S
C687 C688 1.349 1_655 S
C687 C689 1.327 . S
C687 H710 0.950 . S
C688 C687 1.349 1_455 S
C688 C700 1.349 . S
C689 C687 1.327 . S
C689 C705 1.429 . S
C689 H711 0.950 . S
C690 H686 0.949 . S
C690 C698 1.574 . S
C690 C706 1.368 . S
H691 C699 0.950 . S
H692 C697 0.950 . S
H693 C698 0.949 . S
H694 C700 0.950 . S
H695 C701 0.950 . S
H696 C702 0.949 . S
C697 H692 0.950 . S
C697 C699 1.327 . S
C697 C703 1.429 . S
C698 C690 1.574 . S
C698 H693 0.949 . S
C698 C704 1.368 . S
C699 C683 1.349 . S
C699 H691 0.950 . S
C699 C697 1.327 . S
C700 C688 1.349 . S
C700 H694 0.950 . S
C700 C701 1.327 1_455 S
C701 H695 0.950 . S
C701 C700 1.327 1_655 S
C701 C705 1.429 . S
C702 C685 1.574 . S
C702 H696 0.949 . S
C702 C706 1.368 . S
C703 C684 1.429 . S
C703 C697 1.429 . S
C703 C704 1.523 . S
C704 C685 1.368 . S
C704 C698 1.368 . S
C704 C703 1.523 . S
C705 C689 1.429 . S
C705 C701 1.429 . S
C705 C706 1.523 . S
C706 C690 1.368 . S
C706 C702 1.368 . S
C706 C705 1.523 . S
H707 C682 0.950 . S
H708 C684 0.950 . S
H709 C685 0.949 . S
H710 C687 0.950 . S
H711 C689 0.950 . S
C712 C713 1.349 . S
C712 C714 1.327 1_565 S
C712 H737 0.950 . S
C713 C712 1.349 . S
C713 C729 1.334 1_565 S
C714 C712 1.327 1_545 S
C714 C733 1.429 . S
C714 H738 0.950 . S
C715 C732 1.574 . S
C715 C734 1.368 . S
C715 H739 0.949 . S
H716 C720 0.949 . S
C717 C718 1.349 . S
C717 C719 1.327 . S
C717 H740 0.950 . S
C718 C717 1.349 . S
C718 C730 1.349 . S
C719 C717 1.327 . S
C719 C735 1.429 . S
C719 H741 0.950 . S
C720 H716 0.949 . S
C720 C728 1.574 . S
C720 C736 1.368 . S
H721 C729 0.945 1_565 S
H722 C727 0.950 . S
H723 C728 0.949 . S
H724 C730 0.950 . S
H725 C731 0.950 . S
H726 C732 0.949 . S
C727 H722 0.950 . S
C727 C729 1.348 . S
C727 C733 1.429 . S
C728 C720 1.574 . S
C728 H723 0.949 . S
C728 C734 1.368 1_554 S
C729 C713 1.334 1_545 S
C729 H721 0.945 1_545 S
C729 C727 1.348 . S
C730 C718 1.349 . S
C730 H724 0.950 . S
C730 C731 1.327 . S
C731 H725 0.950 . S
C731 C730 1.327 . S
C731 C735 1.429 . S
C732 C715 1.574 . S
C732 H726 0.949 . S
C732 C736 1.368 1_556 S
C733 C714 1.429 . S
C733 C727 1.429 . S
C733 C734 1.523 . S
C734 C715 1.368 . S
C734 C728 1.368 1_556 S
C734 C733 1.523 . S
C735 C719 1.429 . S
C735 C731 1.429 . S
C735 C736 1.523 . S
C736 C720 1.368 . S
C736 C732 1.368 1_554 S
C736 C735 1.523 . S
H737 C712 0.950 . S
H738 C714 0.950 . S
H739 C715 0.949 . S
H740 C717 0.950 . S
H741 C719 0.950 . S
C742 C743 1.349 . S
C742 C744 1.327 . S
C742 H767 0.950 . S
C743 C742 1.349 . S
C743 C759 1.349 . S
C744 C742 1.327 . S
C744 C763 1.429 . S
C744 H768 0.950 . S
C745 C762 1.574 . S
C745 C764 1.368 1_554 S
C745 H769 0.949 . S
H746 C750 0.949 . S
C747 C748 1.349 1_455 S
C747 C749 1.327 . S
C747 H770 0.950 . S
C748 C747 1.349 1_655 S
C748 C760 1.349 . S
C749 C747 1.327 . S
C749 C765 1.429 . S
C749 H771 0.950 . S
C750 H746 0.949 . S
C750 C758 1.574 . S
C750 C766 1.368 1_556 S
H751 C759 0.950 . S
H752 C757 0.950 . S
H753 C758 0.949 . S
H754 C760 0.950 . S
H755 C761 0.978 . S
H756 C762 0.949 . S
C757 H752 0.950 . S
C757 C759 1.327 . S
C757 C763 1.429 . S
C758 C750 1.574 . S
C758 H753 0.949 . S
C758 C764 1.368 . S
C759 C743 1.349 . S
C759 H751 0.950 . S
C759 C757 1.327 . S
C760 C748 1.349 . S
C760 H754 0.950 . S
C760 C761 1.327 1_655 S
C761 H755 0.978 . S
C761 C760 1.327 1_455 S
C761 C765 1.429 . S
C762 C745 1.574 . S
C762 H756 0.949 . S
C762 C766 1.368 . S
C763 C744 1.429 . S
C763 C757 1.429 . S
C763 C764 1.523 . S
C764 C745 1.368 1_556 S
C764 C758 1.368 . S
C764 C763 1.523 . S
C765 C749 1.429 . S
C765 C761 1.429 . S
C765 C766 1.523 . S
C766 C750 1.368 1_554 S
C766 C762 1.368 . S
C766 C765 1.523 . S
H767 C742 0.950 . S
H768 C744 0.950 . S
H769 C745 0.949 . S
H770 C747 0.950 . S
H771 C749 0.950 . S
C772 C773 1.349 . S
C772 C774 1.327 . S
C772 H797 0.950 . S
C773 C772 1.349 . S
C773 C789 1.349 . S
C774 C772 1.327 . S
C774 C793 1.429 . S
C774 H798 0.950 . S
C775 C792 1.574 . S
C775 C794 1.368 1_556 S
C775 H799 0.949 . S
H776 C780 0.949 . S
C777 C778 1.349 1_565 S
C777 C779 1.327 . S
C777 H800 0.950 1_565 S
C778 C777 1.349 1_545 S
C778 C790 1.349 . S
C779 C777 1.327 . S
C779 C795 1.429 . S
C779 H801 0.950 . S
C780 H776 0.949 . S
C780 C788 1.574 . S
C780 C796 1.368 1_554 S
H781 C789 0.950 . S
H782 C787 0.950 . S
H783 C788 0.949 . S
H784 C790 0.950 . S
H785 C791 0.950 . S
H786 C792 0.949 . S
C787 H782 0.950 . S
C787 C789 1.327 . S
C787 C793 1.429 . S
C788 C780 1.574 . S
C788 H783 0.949 . S
C788 C794 1.368 . S
C789 C773 1.349 . S
C789 H781 0.950 . S
C789 C787 1.327 . S
C790 C778 1.349 . S
C790 H784 0.950 . S
C790 C791 1.327 1_545 S
C791 H785 0.950 . S
C791 C790 1.327 1_565 S
C791 C795 1.429 . S
C792 C775 1.574 . S
C792 H786 0.949 . S
C792 C796 1.368 . S
C793 C774 1.429 . S
C793 C787 1.429 . S
C793 C794 1.523 . S
C794 C775 1.368 1_554 S
C794 C788 1.368 . S
C794 C793 1.523 . S
C795 C779 1.429 . S
C795 C791 1.429 . S
C795 C796 1.523 . S
C796 C780 1.368 1_556 S
C796 C792 1.368 . S
C796 C795 1.523 . S
H797 C772 0.950 . S
H798 C774 0.950 . S
H799 C775 0.949 . S
H800 C777 0.950 1_545 S
H801 C779 0.950 . S
C802 C803 1.349 . S
C802 C804 1.327 . S
C802 H827 0.950 . S
C803 C802 1.349 . S
C803 C819 1.349 . S
C804 C802 1.327 . S
C804 C823 1.429 . S
C804 H828 0.950 . S
C805 C822 1.574 . S
C805 C824 1.368 1_554 S
C805 H829 0.949 . S
H806 C810 0.949 . S
C807 C808 1.349 1_655 S
C807 C809 1.327 . S
C807 H830 0.950 . S
C808 C807 1.349 1_455 S
C808 C820 1.349 . S
C809 C807 1.327 . S
C809 C825 1.429 . S
C809 H831 0.950 . S
C810 H806 0.949 . S
C810 C818 1.574 . S
C810 C826 1.368 1_556 S
H811 C819 0.950 . S
H812 C817 0.950 . S
H813 C818 0.949 . S
H814 C820 0.950 . S
H815 C821 0.950 . S
H816 C822 0.949 . S
C817 H812 0.950 . S
C817 C819 1.327 . S
C817 C823 1.429 . S
C818 C810 1.574 . S
C818 H813 0.949 . S
C818 C824 1.368 . S
C819 C803 1.349 . S
C819 H811 0.950 . S
C819 C817 1.327 . S
C820 C808 1.349 . S
C820 H814 0.950 . S
C820 C821 1.327 1_455 S
C821 H815 0.950 . S
C821 C820 1.327 1_655 S
C821 C825 1.429 . S
C822 C805 1.574 . S
C822 H816 0.949 . S
C822 C826 1.368 . S
C823 C804 1.429 . S
C823 C817 1.429 . S
C823 C824 1.523 . S
C824 C805 1.368 1_556 S
C824 C818 1.368 . S
C824 C823 1.523 . S
C825 C809 1.429 . S
C825 C821 1.429 . S
C825 C826 1.523 . S
C826 C810 1.368 1_554 S
C826 C822 1.368 . S
C826 C825 1.523 . S
H827 C802 0.950 . S
H828 C804 0.950 . S
H829 C805 0.949 . S
H830 C807 0.950 . S
H831 C809 0.950 . S
C832 C833 1.349 . S
C832 C834 1.327 . S
C832 H857 0.950 . S
C833 C832 1.349 . S
C833 C849 1.349 . S
C834 C832 1.327 . S
C834 C853 1.429 . S
C834 H858 0.950 . S
C835 C852 1.574 . S
C835 C854 1.368 . S
C835 H859 0.949 . S
H836 C840 0.949 . S
C837 C838 1.349 . S
C837 C839 1.327 . S
C837 H860 0.950 . S
C838 C837 1.349 . S
C838 C850 1.349 . S
C839 C837 1.327 . S
C839 C855 1.429 . S
C839 H861 0.950 . S
C840 H836 0.949 . S
C840 C848 1.574 . S
C840 C856 1.368 . S
H841 C849 0.950 . S
H842 C847 0.950 . S
H843 C848 0.949 . S
H844 C850 0.950 . S
H845 C851 0.950 . S
H846 C852 0.949 . S
C847 H842 0.950 . S
C847 C849 1.327 . S
C847 C853 1.429 . S
C848 C840 1.574 . S
C848 H843 0.949 . S
C848 C854 1.368 . S
C849 C833 1.349 . S
C849 H841 0.950 . S
C849 C847 1.327 . S
C850 C838 1.349 . S
C850 H844 0.950 . S
C850 C851 1.327 . S
C851 H845 0.950 . S
C851 C850 1.327 . S
C851 C855 1.429 . S
C852 C835 1.574 . S
C852 H846 0.949 . S
C852 C856 1.368 . S
C853 C834 1.429 . S
C853 C847 1.429 . S
C853 C854 1.523 . S
C854 C835 1.368 . S
C854 C848 1.368 . S
C854 C853 1.523 . S
C855 C839 1.429 . S
C855 C851 1.429 . S
C855 C856 1.523 . S
C856 C840 1.368 . S
C856 C852 1.368 . S
C856 C855 1.523 . S
H857 C832 0.950 . S
H858 C834 0.950 . S
H859 C835 0.949 . S
H860 C837 0.950 . S
H861 C839 0.950 . S
C862 C863 1.349 . S
C862 C864 1.327 . S
C862 H887 0.950 . S
C863 C862 1.349 . S
C863 C879 1.349 . S
C864 C862 1.327 . S
C864 C883 1.429 . S
C864 H888 0.950 . S
C865 C882 1.574 . S
C865 C884 1.368 . S
C865 H889 0.949 . S
H866 C870 0.949 . S
C867 C868 1.349 . S
C867 C869 1.327 . S
C867 H890 0.950 . S
C868 C867 1.349 . S
C868 C880 1.349 . S
C869 C867 1.327 . S
C869 C885 1.429 . S
C869 H891 0.950 . S
C870 H866 0.949 . S
C870 C878 1.574 . S
C870 C886 1.368 . S
H871 C879 0.950 . S
H872 C877 0.950 . S
H873 C878 0.949 . S
H874 C880 0.950 . S
H875 C881 0.950 . S
H876 C882 0.949 . S
C877 H872 0.950 . S
C877 C879 1.327 . S
C877 C883 1.429 . S
C878 C870 1.574 . S
C878 H873 0.949 . S
C878 C884 1.368 . S
C879 C863 1.349 . S
C879 H871 0.950 . S
C879 C877 1.327 . S
C880 C868 1.349 . S
C880 H874 0.950 . S
C880 C881 1.327 . S
C881 H875 0.950 . S
C881 C880 1.327 . S
C881 C885 1.429 . S
C882 C865 1.574 . S
C882 H876 0.949 . S
C882 C886 1.368 . S
C883 C864 1.429 . S
C883 C877 1.429 . S
C883 C884 1.523 . S
C884 C865 1.368 . S
C884 C878 1.368 . S
C884 C883 1.523 . S
C885 C869 1.429 . S
C885 C881 1.429 . S
C885 C886 1.523 . S
C886 C870 1.368 . S
C886 C882 1.368 . S
C886 C885 1.523 . S
H887 C862 0.950 . S
H888 C864 0.950 . S
H889 C865 0.949 . S
H890 C867 0.950 . S
H891 C869 0.950 . S
C892 C893 1.349 . S
C892 C894 1.327 . S
C892 H917 0.950 . S
C893 C892 1.349 . S
C893 C909 1.349 . S
C894 C892 1.327 . S
C894 C913 1.429 . S
C894 H918 0.950 . S
C895 C912 1.574 . S
C895 C914 1.368 . S
C895 H919 0.949 . S
H896 C900 0.949 . S
C897 C898 1.349 . S
C897 C899 1.327 . S
C897 H920 0.950 . S
C898 C897 1.349 . S
C898 C910 1.349 . S
C899 C897 1.327 . S
C899 C915 1.429 . S
C899 H921 0.950 . S
C900 H896 0.949 . S
C900 C908 1.574 . S
C900 C916 1.368 . S
H901 C909 0.950 . S
H902 C907 0.950 . S
H903 C908 0.949 . S
H904 C910 0.950 . S
H905 C911 0.950 . S
H906 C912 0.949 . S
C907 H902 0.950 . S
C907 C909 1.327 . S
C907 C913 1.429 . S
C908 C900 1.574 . S
C908 H903 0.949 . S
C908 C914 1.368 . S
C909 C893 1.349 . S
C909 H901 0.950 . S
C909 C907 1.327 . S
C910 C898 1.349 . S
C910 H904 0.950 . S
C910 C911 1.327 . S
C911 H905 0.950 . S
C911 C910 1.327 . S
C911 C915 1.429 . S
C912 C895 1.574 . S
C912 H906 0.949 . S
C912 C916 1.368 . S
C913 C894 1.429 . S
C913 C907 1.429 . S
C913 C914 1.523 . S
C914 C895 1.368 . S
C914 C908 1.368 . S
C914 C913 1.523 . S
C915 C899 1.429 . S
C915 C911 1.429 . S
C915 C916 1.523 . S
C916 C900 1.368 . S
C916 C912 1.368 . S
C916 C915 1.523 . S
H917 C892 0.950 . S
H918 C894 0.950 . S
H919 C895 0.949 . S
H920 C897 0.950 . S
H921 C899 0.950 . S
C922 C923 1.349 . S
C922 C924 1.327 . S
C922 H947 0.950 . S
C923 C922 1.349 . S
C923 C939 1.349 . S
C924 C922 1.327 . S
C924 C943 1.429 . S
C924 H948 0.950 . S
C925 C942 1.574 . S
C925 C944 1.368 . S
C925 H949 0.949 . S
H926 C930 0.949 . S
C927 C928 1.349 . S
C927 C929 1.327 . S
C927 H950 0.950 . S
C928 C927 1.349 . S
C928 C940 1.349 . S
C929 C927 1.327 . S
C929 C945 1.429 . S
C929 H951 0.950 . S
C930 H926 0.949 . S
C930 C938 1.574 . S
C930 C946 1.368 . S
H931 C939 0.950 . S
H932 C937 0.950 . S
H933 C938 0.949 . S
H934 C940 0.950 . S
H935 C941 0.950 . S
H936 C942 0.949 . S
C937 H932 0.950 . S
C937 C939 1.327 . S
C937 C943 1.429 . S
C938 C930 1.574 . S
C938 H933 0.949 . S
C938 C944 1.368 . S
C939 C923 1.349 . S
C939 H931 0.950 . S
C939 C937 1.327 . S
C940 C928 1.349 . S
C940 H934 0.950 . S
C940 C941 1.327 . S
C941 H935 0.950 . S
C941 C940 1.327 . S
C941 C945 1.429 . S
C942 C925 1.574 . S
C942 H936 0.949 . S
C942 C946 1.368 . S
C943 C924 1.429 . S
C943 C937 1.429 . S
C943 C944 1.523 . S
C944 C925 1.368 . S
C944 C938 1.368 . S
C944 C943 1.523 . S
C945 C929 1.429 . S
C945 C941 1.429 . S
C945 C946 1.523 . S
C946 C930 1.368 . S
C946 C942 1.368 . S
C946 C945 1.523 . S
H947 C922 0.950 . S
H948 C924 0.950 . S
H949 C925 0.949 . S
H950 C927 0.950 . S
H951 C929 0.950 . S
C473 C123 1.455 . S
C478 C5 1.455 . S
C503 C182 1.455 . S
C508 C64 1.455 . S
C533 C241 1.455 . S
C538 C359 1.455 . S
C563 C300 1.455 . S
C568 C418 1.455 . S
C593 C92 1.308 . S
C598 C52 1.300 . S
C623 C111 1.300 . S
C628 C151 1.308 . S
C653 C210 1.308 . S
C658 C170 1.300 . S
C683 C229 1.300 . S
C688 C33 1.308 . S
C713 C446 1.308 . S
C718 C288 1.300 . S
C743 C347 1.300 . S
C748 C269 1.308 . S
C773 C406 1.300 . S
C778 C328 1.308 . S
C803 C465 1.300 . S
C808 C387 1.308 . S
C833 C3 1.691 . S
C838 C298 1.691 . S
C863 C357 1.691 . S
C868 C62 1.691 . S
C893 C121 1.691 . S
C898 C416 1.691 . S
C923 C180 1.691 . S
C928 C239 1.691 . S
