# Generated by pormake.
# Topology wmt, (6)-cn, num edge types: 1
# Building blocks:
#     Node 0, Type 0, BuildingBlock: BETDAH_clean_sbu_0, # of connection points: 6
#     Node 1, Type 0, BuildingBlock: BETDAH_clean_sbu_0, # of connection points: 6
#     Node 2, Type 0, BuildingBlock: BETDAH_clean_sbu_0, # of connection points: 6
#     Node 3, Type 0, BuildingBlock: BETDAH_clean_sbu_0, # of connection points: 6
#     Node 4, Type 0, BuildingBlock: BETDAH_clean_sbu_0, # of connection points: 6
#     Node 5, Type 0, BuildingBlock: BETDAH_clean_sbu_0, # of connection points: 6
#     Node 6, Type 0, BuildingBlock: BETDAH_clean_sbu_0, # of connection points: 6
#     Node 7, Type 0, BuildingBlock: BETDAH_clean_sbu_0, # of connection points: 6
#     Node 8, Type 0, BuildingBlock: BETDAH_clean_sbu_0, # of connection points: 6
#     Node 9, Type 0, BuildingBlock: BETDAH_clean_sbu_0, # of connection points: 6
#     Node 10, Type 0, BuildingBlock: BETDAH_clean_sbu_0, # of connection points: 6
#     Node 11, Type 0, BuildingBlock: BETDAH_clean_sbu_0, # of connection points: 6
#     Node 12, Type 0, BuildingBlock: BETDAH_clean_sbu_0, # of connection points: 6
#     Node 13, Type 0, BuildingBlock: BETDAH_clean_sbu_0, # of connection points: 6
#     Node 14, Type 0, BuildingBlock: BETDAH_clean_sbu_0, # of connection points: 6
#     Node 15, Type 0, BuildingBlock: BETDAH_clean_sbu_0, # of connection points: 6
#     Node 16, Type 0, BuildingBlock: BETDAH_clean_sbu_0, # of connection points: 6
#     Node 17, Type 0, BuildingBlock: BETDAH_clean_sbu_0, # of connection points: 6
#     Node 18, Type 0, BuildingBlock: BETDAH_clean_sbu_0, # of connection points: 6
#     Node 19, Type 0, BuildingBlock: BETDAH_clean_sbu_0, # of connection points: 6
#     Node 20, Type 0, BuildingBlock: BETDAH_clean_sbu_0, # of connection points: 6
#     Node 21, Type 0, BuildingBlock: BETDAH_clean_sbu_0, # of connection points: 6
#     Node 22, Type 0, BuildingBlock: BETDAH_clean_sbu_0, # of connection points: 6
#     Node 23, Type 0, BuildingBlock: BETDAH_clean_sbu_0, # of connection points: 6
#     Node 24, Type 0, BuildingBlock: BETDAH_clean_sbu_0, # of connection points: 6
#     Node 25, Type 0, BuildingBlock: BETDAH_clean_sbu_0, # of connection points: 6
#     Node 26, Type 0, BuildingBlock: BETDAH_clean_sbu_0, # of connection points: 6
#     Node 27, Type 0, BuildingBlock: BETDAH_clean_sbu_0, # of connection points: 6
#     Node 28, Type 0, BuildingBlock: BETDAH_clean_sbu_0, # of connection points: 6
#     Node 29, Type 0, BuildingBlock: BETDAH_clean_sbu_0, # of connection points: 6
#     Node 30, Type 0, BuildingBlock: BETDAH_clean_sbu_0, # of connection points: 6
#     Node 31, Type 0, BuildingBlock: BETDAH_clean_sbu_0, # of connection points: 6
#     Node 32, Type 0, BuildingBlock: BETDAH_clean_sbu_0, # of connection points: 6
#     Node 33, Type 0, BuildingBlock: BETDAH_clean_sbu_0, # of connection points: 6
#     Node 34, Type 0, BuildingBlock: BETDAH_clean_sbu_0, # of connection points: 6
#     Node 35, Type 0, BuildingBlock: BETDAH_clean_sbu_0, # of connection points: 6
#     Edge 36, Type (0, 0), BuildingBlock: CIFDUS_clean_linker_0, # of connection points: 2
#     Edge 37, Type (0, 0), BuildingBlock: CIFDUS_clean_linker_0, # of connection points: 2
#     Edge 38, Type (0, 0), BuildingBlock: CIFDUS_clean_linker_0, # of connection points: 2
#     Edge 39, Type (0, 0), BuildingBlock: CIFDUS_clean_linker_0, # of connection points: 2
#     Edge 40, Type (0, 0), BuildingBlock: CIFDUS_clean_linker_0, # of connection points: 2
#     Edge 41, Type (0, 0), BuildingBlock: CIFDUS_clean_linker_0, # of connection points: 2
#     Edge 42, Type (0, 0), BuildingBlock: CIFDUS_clean_linker_0, # of connection points: 2
#     Edge 43, Type (0, 0), BuildingBlock: CIFDUS_clean_linker_0, # of connection points: 2
#     Edge 44, Type (0, 0), BuildingBlock: CIFDUS_clean_linker_0, # of connection points: 2
#     Edge 45, Type (0, 0), BuildingBlock: CIFDUS_clean_linker_0, # of connection points: 2
#     Edge 46, Type (0, 0), BuildingBlock: CIFDUS_clean_linker_0, # of connection points: 2
#     Edge 47, Type (0, 0), BuildingBlock: CIFDUS_clean_linker_0, # of connection points: 2
#     Edge 48, Type (0, 0), BuildingBlock: CIFDUS_clean_linker_0, # of connection points: 2
#     Edge 49, Type (0, 0), BuildingBlock: CIFDUS_clean_linker_0, # of connection points: 2
#     Edge 50, Type (0, 0), BuildingBlock: CIFDUS_clean_linker_0, # of connection points: 2
#     Edge 51, Type (0, 0), BuildingBlock: CIFDUS_clean_linker_0, # of connection points: 2
#     Edge 52, Type (0, 0), BuildingBlock: CIFDUS_clean_linker_0, # of connection points: 2
#     Edge 53, Type (0, 0), BuildingBlock: CIFDUS_clean_linker_0, # of connection points: 2
#     Edge 54, Type (0, 0), BuildingBlock: CIFDUS_clean_linker_0, # of connection points: 2
#     Edge 55, Type (0, 0), BuildingBlock: CIFDUS_clean_linker_0, # of connection points: 2
#     Edge 56, Type (0, 0), BuildingBlock: CIFDUS_clean_linker_0, # of connection points: 2
#     Edge 57, Type (0, 0), BuildingBlock: CIFDUS_clean_linker_0, # of connection points: 2
#     Edge 58, Type (0, 0), BuildingBlock: CIFDUS_clean_linker_0, # of connection points: 2
#     Edge 59, Type (0, 0), BuildingBlock: CIFDUS_clean_linker_0, # of connection points: 2
#     Edge 60, Type (0, 0), BuildingBlock: CIFDUS_clean_linker_0, # of connection points: 2
#     Edge 61, Type (0, 0), BuildingBlock: CIFDUS_clean_linker_0, # of connection points: 2
#     Edge 62, Type (0, 0), BuildingBlock: CIFDUS_clean_linker_0, # of connection points: 2
#     Edge 63, Type (0, 0), BuildingBlock: CIFDUS_clean_linker_0, # of connection points: 2
#     Edge 64, Type (0, 0), BuildingBlock: CIFDUS_clean_linker_0, # of connection points: 2
#     Edge 65, Type (0, 0), BuildingBlock: CIFDUS_clean_linker_0, # of connection points: 2
#     Edge 66, Type (0, 0), BuildingBlock: CIFDUS_clean_linker_0, # of connection points: 2
#     Edge 67, Type (0, 0), BuildingBlock: CIFDUS_clean_linker_0, # of connection points: 2
#     Edge 68, Type (0, 0), BuildingBlock: CIFDUS_clean_linker_0, # of connection points: 2
#     Edge 69, Type (0, 0), BuildingBlock: CIFDUS_clean_linker_0, # of connection points: 2
#     Edge 70, Type (0, 0), BuildingBlock: CIFDUS_clean_linker_0, # of connection points: 2
#     Edge 71, Type (0, 0), BuildingBlock: CIFDUS_clean_linker_0, # of connection points: 2
#     Edge 72, Type (0, 0), BuildingBlock: CIFDUS_clean_linker_0, # of connection points: 2
#     Edge 73, Type (0, 0), BuildingBlock: CIFDUS_clean_linker_0, # of connection points: 2
#     Edge 74, Type (0, 0), BuildingBlock: CIFDUS_clean_linker_0, # of connection points: 2
#     Edge 75, Type (0, 0), BuildingBlock: CIFDUS_clean_linker_0, # of connection points: 2
#     Edge 76, Type (0, 0), BuildingBlock: CIFDUS_clean_linker_0, # of connection points: 2
#     Edge 77, Type (0, 0), BuildingBlock: CIFDUS_clean_linker_0, # of connection points: 2
#     Edge 78, Type (0, 0), BuildingBlock: CIFDUS_clean_linker_0, # of connection points: 2
#     Edge 79, Type (0, 0), BuildingBlock: CIFDUS_clean_linker_0, # of connection points: 2
#     Edge 80, Type (0, 0), BuildingBlock: CIFDUS_clean_linker_0, # of connection points: 2
#     Edge 81, Type (0, 0), BuildingBlock: CIFDUS_clean_linker_0, # of connection points: 2
#     Edge 82, Type (0, 0), BuildingBlock: CIFDUS_clean_linker_0, # of connection points: 2
#     Edge 83, Type (0, 0), BuildingBlock: CIFDUS_clean_linker_0, # of connection points: 2
#     Edge 84, Type (0, 0), BuildingBlock: CIFDUS_clean_linker_0, # of connection points: 2
#     Edge 85, Type (0, 0), BuildingBlock: CIFDUS_clean_linker_0, # of connection points: 2
#     Edge 86, Type (0, 0), BuildingBlock: CIFDUS_clean_linker_0, # of connection points: 2
#     Edge 87, Type (0, 0), BuildingBlock: CIFDUS_clean_linker_0, # of connection points: 2
#     Edge 88, Type (0, 0), BuildingBlock: CIFDUS_clean_linker_0, # of connection points: 2
#     Edge 89, Type (0, 0), BuildingBlock: CIFDUS_clean_linker_0, # of connection points: 2
#     Edge 90, Type (0, 0), BuildingBlock: CIFDUS_clean_linker_0, # of connection points: 2
#     Edge 91, Type (0, 0), BuildingBlock: CIFDUS_clean_linker_0, # of connection points: 2
#     Edge 92, Type (0, 0), BuildingBlock: CIFDUS_clean_linker_0, # of connection points: 2
#     Edge 93, Type (0, 0), BuildingBlock: CIFDUS_clean_linker_0, # of connection points: 2
#     Edge 94, Type (0, 0), BuildingBlock: CIFDUS_clean_linker_0, # of connection points: 2
#     Edge 95, Type (0, 0), BuildingBlock: CIFDUS_clean_linker_0, # of connection points: 2
#     Edge 96, Type (0, 0), BuildingBlock: CIFDUS_clean_linker_0, # of connection points: 2
#     Edge 97, Type (0, 0), BuildingBlock: CIFDUS_clean_linker_0, # of connection points: 2
#     Edge 98, Type (0, 0), BuildingBlock: CIFDUS_clean_linker_0, # of connection points: 2
#     Edge 99, Type (0, 0), BuildingBlock: CIFDUS_clean_linker_0, # of connection points: 2
#     Edge 100, Type (0, 0), BuildingBlock: CIFDUS_clean_linker_0, # of connection points: 2
#     Edge 101, Type (0, 0), BuildingBlock: CIFDUS_clean_linker_0, # of connection points: 2
#     Edge 102, Type (0, 0), BuildingBlock: CIFDUS_clean_linker_0, # of connection points: 2
#     Edge 103, Type (0, 0), BuildingBlock: CIFDUS_clean_linker_0, # of connection points: 2
#     Edge 104, Type (0, 0), BuildingBlock: CIFDUS_clean_linker_0, # of connection points: 2
#     Edge 105, Type (0, 0), BuildingBlock: CIFDUS_clean_linker_0, # of connection points: 2
#     Edge 106, Type (0, 0), BuildingBlock: CIFDUS_clean_linker_0, # of connection points: 2
#     Edge 107, Type (0, 0), BuildingBlock: CIFDUS_clean_linker_0, # of connection points: 2
#     Edge 108, Type (0, 0), BuildingBlock: CIFDUS_clean_linker_0, # of connection points: 2
#     Edge 109, Type (0, 0), BuildingBlock: CIFDUS_clean_linker_0, # of connection points: 2
#     Edge 110, Type (0, 0), BuildingBlock: CIFDUS_clean_linker_0, # of connection points: 2
#     Edge 111, Type (0, 0), BuildingBlock: CIFDUS_clean_linker_0, # of connection points: 2
#     Edge 112, Type (0, 0), BuildingBlock: CIFDUS_clean_linker_0, # of connection points: 2
#     Edge 113, Type (0, 0), BuildingBlock: CIFDUS_clean_linker_0, # of connection points: 2
#     Edge 114, Type (0, 0), BuildingBlock: CIFDUS_clean_linker_0, # of connection points: 2
#     Edge 115, Type (0, 0), BuildingBlock: CIFDUS_clean_linker_0, # of connection points: 2
#     Edge 116, Type (0, 0), BuildingBlock: CIFDUS_clean_linker_0, # of connection points: 2
#     Edge 117, Type (0, 0), BuildingBlock: CIFDUS_clean_linker_0, # of connection points: 2
#     Edge 118, Type (0, 0), BuildingBlock: CIFDUS_clean_linker_0, # of connection points: 2
#     Edge 119, Type (0, 0), BuildingBlock: CIFDUS_clean_linker_0, # of connection points: 2
#     Edge 120, Type (0, 0), BuildingBlock: CIFDUS_clean_linker_0, # of connection points: 2
#     Edge 121, Type (0, 0), BuildingBlock: CIFDUS_clean_linker_0, # of connection points: 2
#     Edge 122, Type (0, 0), BuildingBlock: CIFDUS_clean_linker_0, # of connection points: 2
#     Edge 123, Type (0, 0), BuildingBlock: CIFDUS_clean_linker_0, # of connection points: 2
#     Edge 124, Type (0, 0), BuildingBlock: CIFDUS_clean_linker_0, # of connection points: 2
#     Edge 125, Type (0, 0), BuildingBlock: CIFDUS_clean_linker_0, # of connection points: 2
#     Edge 126, Type (0, 0), BuildingBlock: CIFDUS_clean_linker_0, # of connection points: 2
#     Edge 127, Type (0, 0), BuildingBlock: CIFDUS_clean_linker_0, # of connection points: 2
#     Edge 128, Type (0, 0), BuildingBlock: CIFDUS_clean_linker_0, # of connection points: 2
#     Edge 129, Type (0, 0), BuildingBlock: CIFDUS_clean_linker_0, # of connection points: 2
#     Edge 130, Type (0, 0), BuildingBlock: CIFDUS_clean_linker_0, # of connection points: 2
#     Edge 131, Type (0, 0), BuildingBlock: CIFDUS_clean_linker_0, # of connection points: 2
#     Edge 132, Type (0, 0), BuildingBlock: CIFDUS_clean_linker_0, # of connection points: 2
#     Edge 133, Type (0, 0), BuildingBlock: CIFDUS_clean_linker_0, # of connection points: 2
#     Edge 134, Type (0, 0), BuildingBlock: CIFDUS_clean_linker_0, # of connection points: 2
#     Edge 135, Type (0, 0), BuildingBlock: CIFDUS_clean_linker_0, # of connection points: 2
#     Edge 136, Type (0, 0), BuildingBlock: CIFDUS_clean_linker_0, # of connection points: 2
#     Edge 137, Type (0, 0), BuildingBlock: CIFDUS_clean_linker_0, # of connection points: 2
#     Edge 138, Type (0, 0), BuildingBlock: CIFDUS_clean_linker_0, # of connection points: 2
#     Edge 139, Type (0, 0), BuildingBlock: CIFDUS_clean_linker_0, # of connection points: 2
#     Edge 140, Type (0, 0), BuildingBlock: CIFDUS_clean_linker_0, # of connection points: 2
#     Edge 141, Type (0, 0), BuildingBlock: CIFDUS_clean_linker_0, # of connection points: 2
#     Edge 142, Type (0, 0), BuildingBlock: CIFDUS_clean_linker_0, # of connection points: 2
#     Edge 143, Type (0, 0), BuildingBlock: CIFDUS_clean_linker_0, # of connection points: 2
# Relax obj value: 0.406
# Max RMSD: 0.192
# Mean RMSD: 0.192
data_MOF--net-wmt--node1-BETDAH_clean_sbu_0--edge1-CIFDUS_clean_linker_0
_symmetry_space_group_name_H-M    P1
_symmetry_Int_Tables_number       1
_symmetry_cell_setting            triclinic
loop_
_symmetry_equiv_pos_as_xyz
'x, y, z'
_cell_length_a     69.305096
_cell_length_b     69.423894
_cell_length_c     31.046897
_cell_angle_alpha  90.060976
_cell_angle_beta   90.055743
_cell_angle_gamma 119.91658
loop_
_atom_site_label
_atom_site_type_symbol
_atom_site_fract_x
_atom_site_fract_y
_atom_site_fract_z
_atom_type_partial_charge
Ho0 Ho 0.07023 0.47967 0.24422 0.0
Ho1 Ho 0.03337 0.43627 0.20036 0.0
C2 C 0.03382 0.4368 0.30273 0.0
C3 C 0.08894 0.51329 0.29723 0.0
C4 C 0.08388 0.51966 0.34047 0.0
C5 C 0.08676 0.54103 0.34691 0.0
C6 C 0.08305 0.54777 0.38754 0.0
C7 C 0.07636 0.53336 0.42339 0.0
C8 C 0.07306 0.51177 0.41653 0.0
C9 C 0.07677 0.50506 0.37588 0.0
C10 C 0.08573 0.45644 0.19908 0.0
C11 C 0.06246 0.48118 0.14147 0.0
C12 C 0.00945 0.39966 0.15876 0.0
C13 C 0.00752 0.39002 0.11622 0.0
C14 C 0.99426 0.367 0.11073 0.0
C15 C 0.99299 0.35741 0.07053 0.0
C16 C 0.00501 0.37083 1.03552 0.0
C17 C 0.01751 0.39402 1.041 0.0
C18 C 0.01888 0.40354 0.08114 0.0
C19 C 0.02023 0.4646 0.23162 0.0
O20 O 0.04892 0.45819 0.30016 0.0
O21 O 0.02711 0.42393 0.26832 0.0
O22 O 0.09374 0.49723 0.29592 0.0
O23 O 0.07643 0.51231 0.26468 0.0
O24 O 0.09733 0.47761 0.20755 0.0
O25 O 0.06784 0.44802 0.2212 0.0
O26 O 0.04996 0.45907 0.143 0.0
O27 O 0.07051 0.49343 0.17722 0.0
O28 O 0.00482 0.41573 0.16088 0.0
O29 O 0.02714 0.40372 0.18113 0.0
O30 O 0.00752 0.44317 0.22988 0.0
O31 O 0.03828 0.46894 0.21473 0.0
H32 H 0.09224 0.55275 0.32048 0.0
H33 H 0.08604 0.56455 0.39103 0.0
H34 H 0.06752 0.49988 0.44264 0.0
H35 H 0.07421 0.48843 0.37233 0.0
H36 H 0.98536 0.35641 0.13774 0.0
H37 H 0.98328 0.33951 0.06726 0.0
H38 H 0.02632 0.40485 1.01423 0.0
H39 H 0.02885 0.4214 0.08485 0.0
Ho40 Ho 0.53503 0.59034 0.23961 0.0
Ho41 Ho 0.58169 0.60381 0.20312 0.0
C42 C 0.57584 0.6032 0.30742 0.0
C43 C 0.49969 0.57297 0.28781 0.0
C44 C 0.49344 0.56348 0.33253 0.0
C45 C 0.48006 0.54039 0.33882 0.0
C46 C 0.47323 0.53139 0.38038 0.0
C47 C 0.47948 0.54516 0.41721 0.0
C48 C 0.49299 0.56828 0.41078 0.0
C49 C 0.49983 0.57727 0.36926 0.0
C50 C 0.554 0.62798 0.19027 0.0
C51 C 0.53844 0.58122 0.13871 0.0
C52 C 0.62263 0.62567 0.17802 0.0
C53 C 0.63377 0.62795 0.13691 0.0
C54 C 0.62095 0.61858 0.09983 0.0
C55 C 0.63125 0.6222 0.05993 0.0
C56 C 0.65448 0.63534 0.05652 0.0
C57 C 0.66741 0.64449 0.09365 0.0
C58 C 0.65705 0.6405 0.13392 0.0
C59 C 0.55472 0.56029 0.21132 0.0
O60 O 0.5557 0.60026 0.30072 0.0
O61 O 0.58888 0.60462 0.27491 0.0
O62 O 0.51322 0.59446 0.28409 0.0
O63 O 0.50387 0.56157 0.25926 0.0
O64 O 0.53271 0.61494 0.19508 0.0
O65 O 0.56412 0.62207 0.21674 0.0
O66 O 0.56045 0.59472 0.14202 0.0
O67 O 0.52533 0.57455 0.17329 0.0
O68 O 0.6138 0.60604 0.19583 0.0
O69 O 0.60926 0.63389 0.17871 0.0
O70 O 0.56968 0.56915 0.18118 0.0
O71 O 0.55607 0.57506 0.23713 0.0
H72 H 0.47472 0.52921 0.31144 0.0
H73 H 0.46317 0.51352 0.38356 0.0
H74 H 0.49799 0.57963 0.43782 0.0
H75 H 0.50996 0.59513 0.36602 0.0
H76 H 0.60295 0.60889 0.10166 0.0
H77 H 0.62102 0.61519 1.03145 0.0
H78 H 0.68535 0.65466 0.09143 0.0
H79 H 0.66712 0.64758 0.1625 0.0
Ho80 Ho 0.41295 0.93353 0.24926 0.0
Ho81 Ho 0.4101 0.97142 0.20311 0.0
C82 C 0.40937 0.97173 0.30668 0.0
C83 C 0.42552 0.91249 0.30104 0.0
C84 C 0.43849 0.91801 0.34191 0.0
C85 C 0.45245 0.94019 0.35482 0.0
C86 C 0.46554 0.9452 0.39228 0.0
C87 C 0.46496 0.92816 0.418 0.0
C88 C 0.45065 0.90597 0.40518 0.0
C89 C 0.43765 0.90099 0.36763 0.0
C90 C 0.37559 0.9191 0.19973 0.0
C91 C 0.42406 0.93981 0.1477 0.0
C92 C 0.39992 0.99609 0.15735 0.0
C93 C 0.39043 0.99556 0.11513 0.0
C94 C 0.37903 0.97568 0.09222 0.0
C95 C 0.3694 0.97513 0.05254 0.0
C96 C 0.37189 0.99478 1.03378 0.0
C97 C 0.38423 0.0149 0.05678 0.0
C98 C 0.39306 0.01518 0.09732 0.0
C99 C 0.45088 0.98283 0.23625 0.0
O100 O 0.4131 0.95485 0.30473 0.0
O101 O 0.40565 0.98016 0.27148 0.0
O102 O 0.40578 0.91072 0.30275 0.0
O103 O 0.43666 0.92325 0.26679 0.0
O104 O 0.38409 0.90704 0.21224 0.0
O105 O 0.38515 0.93722 0.22134 0.0
O106 O 0.41595 0.95367 0.14664 0.0
O107 O 0.42666 0.93161 0.18458 0.0
O108 O 0.4196 0.99785 0.15697 0.0
O109 O 0.38636 0.98151 0.18536 0.0
O110 O 0.44273 0.99607 0.23419 0.0
O111 O 0.43671 0.96481 0.21976 0.0
H112 H 0.45338 0.95367 0.33569 0.0
H113 H 0.47603 0.96246 0.40122 0.0
H114 H 0.44985 0.89237 0.42365 0.0
H115 H 0.42712 0.88376 0.35834 0.0
H116 H 0.37765 0.96061 0.10506 0.0
H117 H 0.35991 0.9591 1.0373 0.0
H118 H 0.38761 0.03067 1.0436 0.0
H119 H 0.40226 0.0308 0.11448 0.0
Ho120 Ho 0.48635 0.07305 0.59781 0.0
Ho121 Ho 0.44289 0.03508 0.63501 0.0
C122 C 0.44559 0.03897 0.53226 0.0
C123 C 0.52171 0.09415 0.55017 0.0
C124 C 0.52854 0.09105 0.50612 0.0
C125 C 0.55048 0.09581 0.49848 0.0
C126 C 0.55723 0.09306 0.45721 0.0
C127 C 0.54219 0.08542 0.42223 0.0
C128 C 0.52011 0.08042 0.43027 0.0
C129 C 0.51343 0.08324 0.47147 0.0
C130 C 0.46318 0.08763 0.64525 0.0
C131 C 0.48545 0.06298 0.69954 0.0
C132 C 0.40528 0.00869 0.67121 0.0
C133 C 0.39228 0.00511 0.71029 0.0
C134 C 0.40195 0.01797 0.74708 0.0
C135 C 0.3896 0.01334 0.78484 0.0
C136 C 0.36757 0.99559 0.78633 0.0
C137 C 0.35775 0.98303 0.74912 0.0
C138 C 0.37007 0.98783 0.71119 0.0
C139 C 0.4726 0.02314 0.60565 0.0
O140 O 0.46643 0.055 0.53787 0.0
O141 O 0.43217 0.02974 0.56535 0.0
O142 O 0.50608 0.09953 0.55271 0.0
O143 O 0.51926 0.07943 0.57921 0.0
O144 O 0.48444 0.09892 0.63764 0.0
O145 O 0.45435 0.07042 0.62079 0.0
O146 O 0.46338 0.05058 0.69566 0.0
O147 O 0.49852 0.0717 0.66518 0.0
O148 O 0.42294 0.00659 0.675 0.0
O149 O 0.40869 0.02557 0.64713 0.0
O150 O 0.45116 0.01059 0.60365 0.0
O151 O 0.47621 0.04059 0.62412 0.0
H152 H 0.56253 0.10183 0.52449 0.0
H153 H 0.57441 0.09737 0.45264 0.0
H154 H 0.5078 0.0741 0.40477 0.0
H155 H 0.49642 0.07934 0.47617 0.0
H156 H 0.41923 0.03103 0.74706 0.0
H157 H 0.39771 0.02277 0.81363 0.0
H158 H 0.34092 0.96904 0.74993 0.0
H159 H 0.36247 0.97771 0.68284 0.0
Ho160 Ho 0.9472 0.41287 0.60495 0.0
Ho161 Ho 0.98058 0.40179 0.64761 0.0
C162 C 0.98268 0.40807 0.54358 0.0
C163 C 0.92899 0.43001 0.55656 0.0
C164 C 0.9333 0.44217 0.51457 0.0
C165 C 0.9536 0.46165 0.50583 0.0
C166 C 0.9567 0.47349 0.4672 0.0
C167 C 0.93964 0.46624 0.43595 0.0
C168 C 0.9195 0.44651 0.44455 0.0
C169 C 0.91638 0.43474 0.48323 0.0
C170 C 0.92822 0.37341 0.64885 0.0
C171 C 0.95311 0.41745 0.70888 0.0
C172 C 1.00164 0.38155 0.67116 0.0
C173 C 0.00716 0.37596 0.71286 0.0
C174 C 0.99832 0.37993 0.75004 0.0
C175 C 1.00233 0.37364 0.78988 0.0
C176 C 0.0155 0.36357 0.79327 0.0
C177 C 0.0251 0.36029 0.75627 0.0
C178 C 0.02077 0.36635 0.71593 0.0
C179 C 0.99381 0.44468 0.6479 0.0
O180 O 0.96361 0.40805 0.54562 0.0
O181 O 0.9926 0.40662 0.57876 0.0
O182 O 0.92348 0.40898 0.55494 0.0
O183 O 0.94232 0.44053 0.589 0.0
O184 O 0.91871 0.38515 0.64179 0.0
O185 O 0.94601 0.38164 0.62659 0.0
O186 O 0.96377 0.40593 0.70681 0.0
O187 O 0.94721 0.42414 0.67357 0.0
O188 O 0.01152 0.40277 0.66261 0.0
O189 O 0.98037 0.37136 0.66203 0.0
O190 O 0.99892 0.43496 0.67799 0.0
O191 O 0.98334 0.43157 0.61693 0.0
H192 H 0.96708 0.46789 0.52901 0.0
H193 H 0.97258 0.48835 0.46179 0.0
H194 H 0.90582 0.44041 0.42185 0.0
H195 H 0.9005 0.4199 0.48897 0.0
H196 H 0.98812 0.38769 0.74819 0.0
H197 H 0.99528 0.37683 0.8183 0.0
H198 H 0.0356 0.35286 0.75856 0.0
H199 H 0.0278 0.36337 0.68726 0.0
Ho200 Ho 0.58841 0.52608 0.60612 0.0
Ho201 Ho 0.59987 0.57263 0.64387 0.0
C202 C 0.59995 0.56898 0.54138 0.0
C203 C 0.56995 0.49084 0.557 0.0
C204 C 0.55923 0.48467 0.51322 0.0
C205 C 0.54424 0.46228 0.5031 0.0
C206 C 0.53383 0.45605 0.46235 0.0
C207 C 0.53801 0.47204 0.43018 0.0
C208 C 0.55292 0.49453 0.44075 0.0
C209 C 0.56334 0.50072 0.48146 0.0
C210 C 0.6268 0.54692 0.65312 0.0
C211 C 0.57942 0.52852 0.70711 0.0
C212 C 0.61748 0.6093 0.68702 0.0
C213 C 0.6305 0.61651 0.72699 0.0
C214 C 0.64434 0.60795 0.73812 0.0
C215 C 0.65443 0.61232 0.77841 0.0
C216 C 0.65053 0.62493 0.80872 0.0
C217 C 0.63759 0.63452 0.7968 0.0
C218 C 0.62763 0.63032 0.75607 0.0
C219 C 0.55757 0.54677 0.614 0.0
O220 O 0.59362 0.54772 0.54721 0.0
O221 O 0.6049 0.58289 0.57409 0.0
O222 O 0.59152 0.50458 0.55894 0.0
O223 O 0.55924 0.49514 0.58677 0.0
O224 O 0.61456 0.52544 0.6487 0.0
O225 O 0.61952 0.55635 0.62769 0.0
O226 O 0.59202 0.55056 0.70337 0.0
O227 O 0.57337 0.51517 0.67276 0.0
O228 O 0.59673 0.59363 0.69165 0.0
O229 O 0.62715 0.60573 0.6542 0.0
O230 O 0.56746 0.56832 0.61643 0.0
O231 O 0.57043 0.54139 0.63119 0.0
H232 H 0.54063 0.44948 0.52678 0.0
H233 H 0.5228 0.43857 0.4559 0.0
H234 H 0.55646 0.50756 0.41768 0.0
H235 H 0.57461 0.51811 0.488 0.0
H236 H 0.64682 0.59739 0.71607 0.0
H237 H 0.66478 0.6053 0.78658 0.0
H238 H 0.63413 0.64419 0.81969 0.0
H239 H 0.61692 0.63702 0.74802 0.0
Ho240 Ho 0.9696 0.56565 0.14355 0.0
Ho241 Ho 0.93431 0.52145 0.09978 0.0
C242 C 0.94457 0.51879 0.19992 0.0
C243 C 0.98719 0.60022 0.19273 0.0
C244 C 0.98085 0.60331 0.23599 0.0
C245 C 0.96182 0.58595 0.25483 0.0
C246 C 0.95567 0.58794 0.29635 0.0
C247 C 0.96892 0.6071 0.32086 0.0
C248 C 0.9881 0.62467 0.30174 0.0
C249 C 0.99392 0.62282 0.25939 0.0
C250 C 0.98591 0.54064 0.10985 0.0
C251 C 0.96878 0.5652 1.04039 0.0
C252 C 0.91511 0.48737 0.04846 0.0
C253 C 0.91972 0.48097 1.00536 0.0
C254 C 0.91346 0.45869 0.99708 0.0
C255 C 0.91774 0.45218 0.95695 0.0
C256 C 0.92845 0.46779 0.92376 0.0
C257 C 0.93487 0.49019 0.93237 0.0
C258 C 0.93058 0.49668 0.97256 0.0
C259 C 0.91765 0.54208 0.14995 0.0
O260 O 0.9557 0.54099 0.20009 0.0
O261 O 0.93667 0.5073 0.16357 0.0
O262 O 0.99448 0.58612 0.19046 0.0
O263 O 0.97269 0.59703 0.16245 0.0
O264 O 0.99748 0.56217 0.11391 0.0
O265 O 0.96731 0.53438 0.12663 0.0
O266 O 0.95348 0.54388 1.04345 0.0
O267 O 0.97671 0.57814 0.07486 0.0
O268 O 0.90993 0.50316 0.0499 0.0
O269 O 0.92864 0.4891 0.07963 0.0
O270 O 0.90763 0.52077 0.14303 0.0
O271 O 0.93445 0.5514 0.12511 0.0
H272 H 0.95173 0.57066 0.23752 0.0
H273 H 0.94066 0.57416 0.30938 0.0
H274 H 0.99906 0.63953 0.31978 0.0
H275 H 0.00885 0.63634 0.24536 0.0
H276 H 0.90512 0.44622 1.02176 0.0
H277 H 0.91225 0.43477 0.95172 0.0
H278 H 0.94345 0.50285 0.90814 0.0
H279 H 0.9358 0.51402 0.97792 0.0
Ho280 Ho 0.42438 0.40237 0.14446 0.0
Ho281 Ho 0.47026 0.4157 0.1063 0.0
C282 C 0.46678 0.42184 0.20898 0.0
C283 C 0.38262 0.37911 0.1629 0.0
C284 C 0.37012 0.36713 0.20128 0.0
C285 C 0.36967 0.34764 0.21459 0.0
C286 C 0.36251 0.3394 0.25577 0.0
C287 C 0.35478 0.34992 0.28385 0.0
C288 C 0.35306 0.36811 0.26847 0.0
C289 C 0.36061 0.37657 0.22753 0.0
C290 C 0.45161 0.44593 0.13961 0.0
C291 C 0.43009 0.4083 1.04091 0.0
C292 C 0.50559 0.43263 0.05812 0.0
C293 C 0.5121 0.4426 1.01377 0.0
C294 C 0.51882 0.46509 1.00578 0.0
C295 C 0.52564 0.47437 0.96435 0.0
C296 C 0.52598 0.46148 0.92946 0.0
C297 C 0.51932 0.43902 0.93768 0.0
C298 C 0.51258 0.4298 0.97901 0.0
C299 C 0.45066 0.37694 0.15335 0.0
O300 O 0.44487 0.40772 0.20542 0.0
O301 O 0.47974 0.42997 0.17421 0.0
O302 O 0.39418 0.40072 0.1669 0.0
O303 O 0.39369 0.371 0.14312 0.0
O304 O 0.43673 0.43653 0.16974 0.0
O305 O 0.45006 0.43179 0.11196 0.0
O306 O 0.4493 0.40867 1.04511 0.0
O307 O 0.41837 0.40746 0.07509 0.0
O308 O 0.49138 0.41122 0.06058 0.0
O309 O 0.50201 0.44398 0.08783 0.0
O310 O 0.47197 0.39043 0.15048 0.0
O311 O 0.44122 0.38382 0.1274 0.0
H312 H 0.37578 0.33932 0.19401 0.0
H313 H 0.36408 0.32542 0.26609 0.0
H314 H 0.34764 0.37711 0.28894 0.0
H315 H 0.36037 0.39141 0.21755 0.0
H316 H 0.5189 0.47564 1.03159 0.0
H317 H 0.53041 0.49162 0.9596 0.0
H318 H 0.51967 0.42853 0.91222 0.0
H319 H 0.5079 0.41256 0.9838 0.0
Ho320 Ho 0.60443 0.03473 0.13759 0.0
Ho321 Ho 0.59811 0.07213 0.09841 0.0
C322 C 0.59014 0.0641 0.19999 0.0
C323 C 0.61832 0.01269 0.18226 0.0
C324 C 0.62975 0.01705 0.22378 0.0
C325 C 0.63961 0.03837 0.24149 0.0
C326 C 0.64905 0.04254 0.28237 0.0
C327 C 0.64777 0.02514 0.30755 0.0
C328 C 0.63807 0.00367 0.28922 0.0
C329 C 0.62935 0.99974 0.24745 0.0
C330 C 0.56237 0.02181 0.11061 0.0
C331 C 0.60299 0.03603 1.03503 0.0
C332 C 0.5851 0.0935 0.0485 0.0
C333 C 0.57518 0.09031 1.00432 0.0
C334 C 0.55606 0.07038 0.9919 0.0
C335 C 0.54662 0.06805 0.95068 0.0
C336 C 0.55611 0.08548 0.92042 0.0
C337 C 0.57536 0.10531 0.93289 0.0
C338 C 0.58468 0.10769 0.97418 0.0
C339 C 0.63688 0.08653 0.14302 0.0
O340 O 0.60018 0.05203 0.19648 0.0
O341 O 0.5849 0.07186 0.16532 0.0
O342 O 0.59795 0.00911 0.18425 0.0
O343 O 0.62981 0.02633 0.15116 0.0
O344 O 0.57106 0.009 0.11064 0.0
O345 O 0.57636 0.03994 0.12701 0.0
O346 O 0.59813 0.05208 1.04024 0.0
O347 O 0.60807 0.02743 0.06817 0.0
O348 O 0.60587 0.0981 0.05106 0.0
O349 O 0.57264 0.0797 0.07866 0.0
O350 O 0.62652 0.09769 0.13854 0.0
O351 O 0.62748 0.06941 0.11869 0.0
H352 H 0.63921 0.05162 0.22424 0.0
H353 H 0.65656 0.05928 0.29476 0.0
H354 H 0.63619 0.9896 0.30756 0.0
H355 H 0.62147 0.98304 0.23437 0.0
H356 H 0.54832 0.05654 1.01402 0.0
H357 H 0.53202 0.05241 0.94231 0.0
H358 H 0.58309 0.11923 0.9109 0.0
H359 H 0.59933 0.12327 0.98268 0.0
Ho360 Ho 0.57052 0.97017 0.70589 0.0
Ho361 Ho 0.5286 0.9321 0.74927 0.0
C362 C 0.52505 0.94087 0.64822 0.0
C363 C 0.6079 0.99466 0.66704 0.0
C364 C 0.62083 0.99694 0.62834 0.0
C365 C 0.61102 0.98319 0.59261 0.0
C366 C 0.62332 0.9866 0.55508 0.0
C367 C 0.64537 0.00418 0.55262 0.0
C368 C 0.65535 0.01769 0.58868 0.0
C369 C 0.64315 0.01392 0.62658 0.0
C370 C 0.54166 0.98235 0.73845 0.0
C371 C 0.57006 0.96881 0.80951 0.0
C372 C 0.49446 0.91099 0.79972 0.0
C373 C 0.48715 0.91624 0.84112 0.0
C374 C 0.49539 0.93834 0.85458 0.0
C375 C 0.48735 0.94315 0.89229 0.0
C376 C 0.47091 0.92601 0.91779 0.0
C377 C 0.46307 0.90387 0.90458 0.0
C378 C 0.47105 0.89908 0.86673 0.0
C379 C 0.55174 0.91817 0.69973 0.0
O380 O 0.54704 0.95483 0.64805 0.0
O381 O 0.51395 0.93181 0.68442 0.0
O382 O 0.59045 0.99708 0.66233 0.0
O383 O 0.60437 0.97844 0.69314 0.0
O384 O 0.56313 0.99517 0.73707 0.0
O385 O 0.53746 0.96423 0.72185 0.0
O386 O 0.54948 0.95197 0.80653 0.0
O387 O 0.58242 0.97789 0.77496 0.0
O388 O 0.51191 0.90834 0.80101 0.0
O389 O 0.49476 0.92261 0.76627 0.0
O390 O 0.5308 0.90599 0.70946 0.0
O391 O 0.56016 0.93562 0.72315 0.0
H392 H 0.5937 0.97052 0.59318 0.0
H393 H 0.61522 0.97642 0.52704 0.0
H394 H 0.6722 0.03158 0.58694 0.0
H395 H 0.65088 0.02475 0.65402 0.0
H396 H 0.50789 0.95193 0.83564 0.0
H397 H 0.49411 0.96038 0.90154 0.0
H398 H 0.45031 0.89019 0.92291 0.0
H399 H 0.46434 0.88191 0.85707 0.0
Ho400 Ho 0.02843 0.60034 0.70933 0.0
Ho401 Ho 0.06807 0.59544 0.74516 0.0
C402 C 0.05595 0.5847 0.6438 0.0
C403 C 1.00117 0.61192 0.67797 0.0
C404 C 0.9936 0.62022 0.64212 0.0
C405 C 0.00845 0.63668 0.61398 0.0
C406 C 1.0005 0.64165 0.57677 0.0
C407 C 0.97757 0.6305 0.5678 0.0
C408 C 0.96263 0.61563 0.59821 0.0
C409 C 0.97063 0.61047 0.63506 0.0
C410 C 0.01764 0.55934 0.73909 0.0
C411 C 0.03345 0.60045 0.81219 0.0
C412 C 0.08975 0.58226 0.79406 0.0
C413 C 0.08653 0.57196 0.83814 0.0
C414 C 0.07007 0.54972 0.84627 0.0
C415 C 0.06773 0.54017 0.88742 0.0
C416 C 0.08173 0.55249 0.922 0.0
C417 C 0.09817 0.57473 0.91369 0.0
C418 C 0.10055 0.58424 0.87256 0.0
C419 C 0.0808 0.63332 0.69899 0.0
O420 O 0.04272 0.59358 0.64803 0.0
O421 O 0.06599 0.58159 0.67773 0.0
O422 O 0.99845 0.59195 0.67378 0.0
O423 O 0.01964 0.62571 0.69798 0.0
O424 O 0.00452 0.56762 0.74121 0.0
O425 O 0.03497 0.57334 0.72044 0.0
O426 O 0.04969 0.59601 0.80549 0.0
O427 O 0.02387 0.60492 0.77994 0.0
O428 O 0.09432 0.603 0.79205 0.0
O429 O 0.07613 0.57007 0.76329 0.0
O430 O 0.09319 0.62437 0.70549 0.0
O431 O 0.06378 0.62366 0.72362 0.0
H432 H 0.02612 0.64501 0.6197 0.0
H433 H 0.01238 0.65291 0.55346 0.0
H434 H 0.94488 0.60678 0.59184 0.0
H435 H 0.95888 0.59802 0.657 0.0
H436 H 0.05892 0.53959 0.8208 0.0
H437 H 0.05468 0.52314 0.89221 0.0
H438 H 0.10957 0.58482 0.93887 0.0
H439 H 0.11356 0.60128 0.86763 0.0
Ho440 Ho 0.40525 0.43408 0.69599 0.0
Ho441 Ho 0.41493 0.4783 0.74156 0.0
C442 C 0.42287 0.47936 0.63865 0.0
C443 C 0.39013 0.39782 0.65244 0.0
C444 C 0.37958 0.389 0.61108 0.0
C445 C 0.37623 0.40237 0.58181 0.0
C446 C 0.36703 0.39396 0.5415 0.0
C447 C 0.36126 0.37213 0.53004 0.0
C448 C 0.3646 0.35881 0.55973 0.0
C449 C 0.37374 0.36723 0.60005 0.0
C450 C 0.44757 0.4606 0.72566 0.0
C451 C 0.40676 0.4345 0.79872 0.0
C452 C 0.43208 0.51192 0.7945 0.0
C453 C 0.44347 0.5175 0.83789 0.0
C454 C 0.46617 0.52394 0.84259 0.0
C455 C 0.47685 0.53012 0.88312 0.0
C456 C 0.46523 0.53009 0.92047 0.0
C457 C 0.44253 0.52365 0.91557 0.0
C458 C 0.4319 0.51755 0.87512 0.0
C459 C 0.37618 0.45811 0.69518 0.0
O460 O 0.41098 0.45722 0.63957 0.0
O461 O 0.42904 0.49154 0.67473 0.0
O462 O 0.41079 0.414 0.65045 0.0
O463 O 0.3782 0.40131 0.68075 0.0
O464 O 0.43824 0.43919 0.7217 0.0
O465 O 0.43413 0.46578 0.71063 0.0
O466 O 0.41341 0.45597 0.79665 0.0
O467 O 0.40021 0.42171 0.76413 0.0
O468 O 0.41075 0.49715 0.79319 0.0
O469 O 0.44288 0.50992 0.76172 0.0
O470 O 0.38719 0.47908 0.70575 0.0
O471 O 0.38439 0.44816 0.71667 0.0
H472 H 0.38104 0.41937 0.58986 0.0
H473 H 0.36502 0.40472 0.51894 0.0
H474 H 0.36006 0.34186 0.55187 0.0
H475 H 0.37633 0.3568 0.62254 0.0
H476 H 0.47582 0.52432 0.81485 0.0
H477 H 0.49422 0.5347 0.88519 0.0
H478 H 0.43293 0.52371 0.94299 0.0
H479 H 0.41455 0.51306 0.87296 0.0
Ho480 Ho 0.73701 0.81017 0.57592 0.0
Ho481 Ho 0.6989 0.76781 0.53356 0.0
C482 C 0.70145 0.76793 0.63532 0.0
C483 C 0.75754 0.84298 0.62987 0.0
C484 C 0.75175 0.8494 0.67218 0.0
C485 C 0.74006 0.83364 0.70456 0.0
C486 C 0.73497 0.84002 0.74416 0.0
C487 C 0.7415 0.86244 0.75302 0.0
C488 C 0.75293 0.87812 0.72021 0.0
C489 C 0.75794 0.87169 0.68052 0.0
C490 C 0.75106 0.78726 0.525 0.0
C491 C 0.72719 0.81308 0.47544 0.0
C492 C 0.6729 0.73189 0.49181 0.0
C493 C 0.67358 0.72139 0.45176 0.0
C494 C 0.68861 0.73402 0.41942 0.0
C495 C 0.6892 0.72394 0.3812 0.0
C496 C 0.67445 0.7012 0.3746 0.0
C497 C 0.65928 0.68856 0.40692 0.0
C498 C 0.65909 0.69859 0.44573 0.0
C499 C 0.68679 0.79619 0.56892 0.0
O500 O 0.71521 0.78952 0.63153 0.0
O501 O 0.69527 0.75482 0.60128 0.0
O502 O 0.76005 0.82543 0.62927 0.0
O503 O 0.74687 0.84392 0.5958 0.0
O504 O 0.76292 0.8083 0.53441 0.0
O505 O 0.73388 0.7788 0.54917 0.0
O506 O 0.71521 0.79085 0.47555 0.0
O507 O 0.73546 0.8246 0.51174 0.0
O508 O 0.67227 0.75033 0.48789 0.0
O509 O 0.68684 0.73307 0.52143 0.0
O510 O 0.67416 0.77476 0.56816 0.0
O511 O 0.7044 0.80044 0.55022 0.0
H512 H 0.7349 0.8163 0.69947 0.0
H513 H 0.72578 0.82723 0.76782 0.0
H514 H 0.75853 0.89554 0.72546 0.0
H515 H 0.76692 0.88427 0.65635 0.0
H516 H 0.69975 0.7517 0.42357 0.0
H517 H 0.70063 0.73408 0.35614 0.0
H518 H 0.64757 0.67106 0.40194 0.0
H519 H 0.64741 0.6887 0.47067 0.0
Ho520 Ho 0.20347 0.92231 0.56952 0.0
Ho521 Ho 0.24843 0.93579 0.52284 0.0
C522 C 0.24701 0.93426 0.62858 0.0
C523 C 0.16948 0.90533 0.62135 0.0
C524 C 0.16314 0.8955 0.66578 0.0
C525 C 0.15628 0.87299 0.67391 0.0
C526 C 0.14886 0.86365 0.71511 0.0
C527 C 0.148 0.87648 0.74957 0.0
C528 C 0.15491 0.89899 0.74124 0.0
C529 C 0.16227 0.90828 0.70016 0.0
C530 C 0.21979 0.95931 0.51838 0.0
C531 C 0.20219 0.91158 0.46753 0.0
C532 C 0.2888 0.95892 0.49464 0.0
C533 C 0.29973 0.96514 0.45272 0.0
C534 C 0.32303 0.97584 0.44983 0.0
C535 C 0.33349 0.98298 0.40982 0.0
C536 C 0.32061 0.97949 0.37273 0.0
C537 C 0.29731 0.96813 0.37571 0.0
C538 C 0.28693 0.96087 0.41539 0.0
C539 C 0.22265 0.89243 0.53509 0.0
O540 O 0.22668 0.93141 0.62699 0.0
O541 O 0.2583 0.93591 0.59292 0.0
O542 O 0.18362 0.92674 0.61836 0.0
O543 O 0.17271 0.89385 0.59143 0.0
O544 O 0.19892 0.94652 0.52757 0.0
O545 O 0.23109 0.9535 0.54171 0.0
O546 O 0.2242 0.92556 0.46571 0.0
O547 O 0.19131 0.90555 0.50489 0.0
O548 O 0.27954 0.93788 0.50452 0.0
O549 O 0.27607 0.96733 0.50374 0.0
O550 O 0.23644 0.90095 0.50291 0.0
O551 O 0.22479 0.90754 0.56092 0.0
H552 H 0.15642 0.86245 0.64832 0.0
H553 H 0.14395 0.84637 0.71998 0.0
H554 H 0.15419 0.90945 0.76633 0.0
H555 H 0.16697 0.92552 0.69518 0.0
H556 H 0.33307 0.97879 0.47844 0.0
H557 H 0.35149 0.99146 0.40789 0.0
H558 H 0.28711 0.96479 0.34714 0.0
H559 H 0.26894 0.95203 0.41698 0.0
Ho560 Ho 0.08373 0.27238 0.57491 0.0
Ho561 Ho 0.07958 0.31174 0.53494 0.0
C562 C 0.07541 0.30623 0.63805 0.0
C563 C 0.09887 0.25249 0.62402 0.0
C564 C 0.11313 0.25841 0.66365 0.0
C565 C 0.12733 0.2496 0.66945 0.0
C566 C 0.14145 0.25534 0.70558 0.0
C567 C 0.14192 0.27017 0.73728 0.0
C568 C 0.12756 0.27893 0.73141 0.0
C569 C 0.11343 0.27319 0.69513 0.0
C570 C 0.04745 0.25905 0.52269 0.0
C571 C 0.09824 0.28541 0.47536 0.0
C572 C 0.06924 0.33799 0.49517 0.0
C573 C 0.05823 0.33913 0.45594 0.0
C574 C 0.05025 0.35411 0.45404 0.0
C575 C 0.04124 0.35677 0.41578 0.0
C576 C 0.03957 0.34396 0.37954 0.0
C577 C 0.0468 0.32835 0.3821 0.0
C578 C 0.05639 0.3262 0.41988 0.0
C579 C 0.11971 0.32284 0.57155 0.0
O580 O 0.08027 0.29017 0.63329 0.0
O581 O 0.07243 0.31618 0.60441 0.0
O582 O 0.07881 0.24982 0.62778 0.0
O583 O 0.10882 0.26324 0.5889 0.0
O584 O 0.05613 0.24676 0.53284 0.0
O585 O 0.05599 0.27615 0.54725 0.0
O586 O 0.08759 0.29702 0.47585 0.0
O587 O 0.10107 0.2765 0.51113 0.0
O588 O 0.08831 0.33862 0.49023 0.0
O589 O 0.05645 0.3234 0.52376 0.0
O590 O 0.11168 0.33616 0.56899 0.0
O591 O 0.10592 0.30553 0.55279 0.0
H592 H 0.12756 0.23822 0.64582 0.0
H593 H 0.15184 0.24786 0.70883 0.0
H594 H 0.12747 0.29059 0.75449 0.0
H595 H 0.10287 0.28046 0.69163 0.0
H596 H 0.05161 0.36423 0.48174 0.0
H597 H 0.03596 0.36904 0.41421 0.0
H598 H 0.04614 0.31868 0.35414 0.0
H599 H 0.06291 0.3149 0.42052 0.0
Ho600 Ho 0.14023 0.39291 0.93759 0.0
Ho601 Ho 0.09422 0.36138 0.97713 0.0
C602 C 0.0984 0.36452 0.87231 0.0
C603 C 0.17518 0.41011 0.88825 0.0
C604 C 0.1813 0.4064 0.84368 0.0
C605 C 0.1857 0.38904 0.83458 0.0
C606 C 0.19236 0.38638 0.79312 0.0
C607 C 0.19495 0.40104 0.75929 0.0
C608 C 0.19059 0.41843 0.76859 0.0
C609 C 0.18394 0.42107 0.80998 0.0
C610 C 0.12247 0.41261 0.98859 0.0
C611 C 0.13851 0.38114 1.03819 0.0
C612 C 0.05381 0.34489 1.00412 0.0
C613 C 0.04346 0.3432 1.04642 0.0
C614 C 0.04613 0.36224 0.06746 0.0
C615 C 0.038 0.36093 0.10886 0.0
C616 C 0.02691 0.34047 0.13064 0.0
C617 C 0.02357 0.32122 0.10874 0.0
C618 C 0.03161 0.32258 0.06697 0.0
C619 C 0.11934 0.34281 0.96643 0.0
O620 O 0.11841 0.38204 0.8779 0.0
O621 O 0.08617 0.35294 0.90573 0.0
O622 O 0.16165 0.41815 0.89153 0.0
O623 O 0.17116 0.39493 0.91749 0.0
O624 O 0.14363 0.41954 0.98515 0.0
O625 O 0.11228 0.39689 0.96181 0.0
O626 O 0.11671 0.3745 1.03742 0.0
O627 O 0.15031 0.38592 1.00205 0.0
O628 O 0.06351 0.33303 0.99906 0.0
O629 O 0.06552 0.36487 0.98806 0.0
O630 O 0.10469 0.33732 0.99699 0.0
O631 O 0.11846 0.35666 0.94097 0.0
H632 H 0.18412 0.37748 0.85956 0.0
H633 H 0.19527 0.37264 0.78756 0.0
H634 H 0.19272 0.43038 0.74403 0.0
H635 H 0.1811 0.43485 0.81571 0.0
H636 H 0.05471 0.37827 0.05218 0.0
H637 H 0.04057 0.37617 0.12349 0.0
H638 H 0.01569 0.30514 0.12424 0.0
H639 H 0.02922 0.30758 0.05132 0.0
Ho640 Ho 0.60717 0.74781 0.93672 0.0
Ho641 Ho 0.64333 0.73733 0.96783 0.0
C642 C 0.63993 0.74167 0.86691 0.0
C643 C 0.58595 0.76188 0.88905 0.0
C644 C 0.58943 0.77244 0.84528 0.0
C645 C 0.60629 0.79455 0.83739 0.0
C646 C 0.60899 0.80418 0.79623 0.0
C647 C 0.59503 0.79201 0.76151 0.0
C648 C 0.5782 0.76993 0.7696 0.0
C649 C 0.57541 0.76038 0.81071 0.0
C650 C 0.59173 0.70893 0.98131 0.0
C651 C 0.62024 0.75693 1.03633 0.0
C652 C 0.66513 0.72034 1.00299 0.0
C653 C 0.66471 0.7099 1.04427 0.0
C654 C 0.64695 0.68887 0.05513 0.0
C655 C 0.64485 0.68093 0.09699 0.0
C656 C 0.66109 0.69345 0.12789 0.0
C657 C 0.67984 0.71359 0.11595 0.0
C658 C 0.6816 0.72178 0.07445 0.0
C659 C 0.65876 0.77927 0.93896 0.0
O660 O 0.62666 0.74962 0.87667 0.0
O661 O 0.64626 0.73238 0.89663 0.0
O662 O 0.58106 0.74102 0.89024 0.0
O663 O 0.5996 0.77371 0.92015 0.0
O664 O 0.58206 0.72086 0.98011 0.0
O665 O 0.60757 0.71682 0.95397 0.0
O666 O 0.63057 0.74512 1.03052 0.0
O667 O 0.6119 0.76266 1.00323 0.0
O668 O 0.67134 0.74148 1.00513 0.0
O669 O 0.64814 0.70922 0.97709 0.0
O670 O 0.67016 0.76911 0.9374 0.0
O671 O 0.64123 0.7672 0.95933 0.0
H672 H 0.61747 0.80449 0.86299 0.0
H673 H 0.62229 0.8211 0.79148 0.0
H674 H 0.56687 0.76002 0.74417 0.0
H675 H 0.56213 0.74343 0.81548 0.0
H676 H 0.63447 0.67884 1.03161 0.0
H677 H 0.63034 0.66528 0.1054 0.0
H678 H 0.69255 0.72365 0.13933 0.0
H679 H 0.69571 0.73784 0.06649 0.0
Ho680 Ho 0.26149 0.86792 0.93604 0.0
Ho681 Ho 0.26774 0.91227 0.97686 0.0
C682 C 0.26757 0.90974 0.87406 0.0
C683 C 0.24633 0.83381 0.8843 0.0
C684 C 0.23465 0.82731 0.84104 0.0
C685 C 0.21118 0.81551 0.83792 0.0
C686 C 0.20028 0.80872 0.79764 0.0
C687 C 0.21238 0.81341 0.75879 0.0
C688 C 0.23587 0.82515 0.76209 0.0
C689 C 0.24675 0.83191 0.80231 0.0
C690 C 0.29973 0.89164 0.98275 0.0
C691 C 0.25202 0.86818 1.03857 0.0
C692 C 0.28084 0.94983 1.01508 0.0
C693 C 0.29233 0.96267 0.05376 0.0
C694 C 0.31481 0.96969 0.06179 0.0
C695 C 0.32507 0.98138 0.0994 0.0
C696 C 0.31308 0.98644 0.12928 0.0
C697 C 0.29082 0.98018 0.12019 0.0
C698 C 0.2806 0.96848 0.08272 0.0
C699 C 0.22616 0.883 0.94714 0.0
O700 O 0.26239 0.88869 0.87801 0.0
O701 O 0.27252 0.92296 0.90778 0.0
O702 O 0.26728 0.84966 0.88536 0.0
O703 O 0.23512 0.83505 0.91714 0.0
O704 O 0.29059 0.87049 0.97403 0.0
O705 O 0.29017 0.89965 0.95957 0.0
O706 O 0.26182 0.89031 1.03571 0.0
O707 O 0.24791 0.85535 1.00364 0.0
O708 O 0.26117 0.93233 1.02098 0.0
O709 O 0.29278 0.94664 0.98621 0.0
O710 O 0.23452 0.90442 0.94761 0.0
O711 O 0.24046 0.8794 0.96363 0.0
H712 H 0.20113 0.81141 0.86677 0.0
H713 H 0.18226 0.80001 0.79705 0.0
H714 H 0.24604 0.82885 0.7335 0.0
H715 H 0.26477 0.84063 0.80301 0.0
H716 H 0.32426 0.96566 1.03957 0.0
H717 H 0.34216 0.98601 0.10579 0.0
H718 H 0.28092 0.98341 0.1429 0.0
H719 H 0.26332 0.96354 0.07683 0.0
Ho720 Ho 0.64249 0.90695 0.48077 0.0
Ho721 Ho 0.60835 0.86191 0.43763 0.0
C722 C 0.61464 0.86201 0.54073 0.0
C723 C 0.66129 0.94351 0.52444 0.0
C724 C 0.65714 0.95173 0.56483 0.0
C725 C 0.63567 0.94196 0.58183 0.0
C726 C 0.63181 0.94923 0.62096 0.0
C727 C 0.64957 0.96576 0.64505 0.0
C728 C 0.67114 0.9759 0.62722 0.0
C729 C 0.67482 0.96904 0.58724 0.0
C730 C 0.65902 0.88033 0.45714 0.0
C731 C 0.64513 0.9045 0.37841 0.0
C732 C 0.59065 0.8275 0.38645 0.0
C733 C 0.59547 0.82121 0.34307 0.0
C734 C 0.59094 0.79934 0.33537 0.0
C735 C 0.59458 0.79278 0.29453 0.0
C736 C 0.60286 0.80788 0.25983 0.0
C737 C 0.60781 0.82995 0.26802 0.0
C738 C 0.60418 0.83648 0.30886 0.0
C739 C 0.59038 0.88386 0.47978 0.0
O740 O 0.62547 0.88418 0.53829 0.0
O741 O 0.60806 0.84928 0.50542 0.0
O742 O 0.6666 0.92796 0.52844 0.0
O743 O 0.64694 0.93946 0.49331 0.0
O744 O 0.67073 0.90191 0.4579 0.0
O745 O 0.63999 0.875 0.47043 0.0
O746 O 0.62981 0.8832 0.38165 0.0
O747 O 0.65153 0.91796 0.4121 0.0
O748 O 0.58446 0.84256 0.38771 0.0
O749 O 0.60433 0.83 0.41792 0.0
O750 O 0.58054 0.86241 0.47473 0.0
O751 O 0.60809 0.89262 0.45716 0.0
H752 H 0.62202 0.92835 0.56524 0.0
H753 H 0.61495 0.94144 0.6328 0.0
H754 H 0.6854 0.98841 0.6448 0.0
H755 H 0.69159 0.97676 0.57447 0.0
H756 H 0.58423 0.78714 0.36095 0.0
H757 H 0.59029 0.77564 0.28993 0.0
H758 H 0.6146 0.84232 0.24279 0.0
H759 H 0.60804 0.85349 0.31351 0.0
Ho760 Ho 0.09483 0.73385 0.47976 0.0
Ho761 Ho 0.14212 0.7519 0.43895 0.0
C762 C 0.13895 0.75874 0.54124 0.0
C763 C 0.05454 0.71003 0.50738 0.0
C764 C 0.04466 0.70342 0.55023 0.0
C765 C 0.05687 0.70131 0.58399 0.0
C766 C 0.04782 0.69586 0.62511 0.0
C767 C 0.02637 0.69246 0.63335 0.0
C768 C 0.01421 0.69475 0.59941 0.0
C769 C 0.0234 0.70033 0.55813 0.0
C770 C 0.11854 0.77781 0.47022 0.0
C771 C 0.09923 0.73749 0.37471 0.0
C772 C 0.17701 0.7708 0.3893 0.0
C773 C 0.18354 0.78136 0.34548 0.0
C774 C 0.20508 0.79939 0.33858 0.0
C775 C 0.21217 0.80866 0.29722 0.0
C776 C 0.19789 0.8003 0.26108 0.0
C777 C 0.17608 0.78246 0.26844 0.0
C778 C 0.16911 0.77307 0.30977 0.0
C779 C 0.12705 0.71404 0.48842 0.0
O780 O 0.11742 0.74302 0.53899 0.0
O781 O 0.15122 0.76746 0.50583 0.0
O782 O 0.06359 0.73119 0.4989 0.0
O783 O 0.06687 0.70169 0.4949 0.0
O784 O 0.10452 0.76814 0.50148 0.0
O785 O 0.11808 0.7635 0.44444 0.0
O786 O 0.1207 0.74449 0.37935 0.0
O787 O 0.08572 0.73175 0.40845 0.0
O788 O 0.1633 0.74925 0.3908 0.0
O789 O 0.17282 0.7815 0.41948 0.0
O790 O 0.14775 0.72847 0.4807 0.0
O791 O 0.11543 0.71901 0.46388 0.0
H792 H 0.07361 0.70435 0.57882 0.0
H793 H 0.05799 0.695 0.65071 0.0
H794 H 0.9977 0.6923 0.60477 0.0
H795 H 0.01404 0.70246 0.53247 0.0
H796 H 0.21671 0.8061 0.36521 0.0
H797 H 0.22914 0.82204 0.29357 0.0
H798 H 0.16422 0.77562 0.24224 0.0
H799 H 0.15246 0.75909 0.31361 0.0
Ho800 Ho 0.2628 0.35714 0.47155 0.0
Ho801 Ho 0.25643 0.39623 0.4369 0.0
C802 C 0.24587 0.38316 0.53707 0.0
C803 C 0.27255 0.33043 0.51124 0.0
C804 C 0.28081 0.32796 0.55344 0.0
C805 C 0.30333 0.34085 0.56466 0.0
C806 C 0.31086 0.3384 0.60473 0.0
C807 C 0.29605 0.32297 0.6346 0.0
C808 C 0.27351 0.30972 0.62301 0.0
C809 C 0.26602 0.31209 0.58273 0.0
C810 C 0.2222 0.34569 0.43737 0.0
C811 C 0.2672 0.36528 0.3699 0.0
C812 C 0.23924 0.41491 0.38971 0.0
C813 C 0.22527 0.40924 0.3492 0.0
C814 C 0.20183 0.39807 0.35147 0.0
C815 C 0.18862 0.39365 0.3142 0.0
C816 C 0.19828 0.4004 0.27298 0.0
C817 C 0.22178 0.41142 0.27068 0.0
C818 C 0.23501 0.41578 0.30806 0.0
C819 C 0.2939 0.40987 0.48561 0.0
O820 O 0.25648 0.37165 0.53254 0.0
O821 O 0.24146 0.39227 0.50345 0.0
O822 O 0.25265 0.32817 0.51103 0.0
O823 O 0.2865 0.34643 0.48589 0.0
O824 O 0.23096 0.33299 0.43656 0.0
O825 O 0.2354 0.3626 0.458 0.0
O826 O 0.26054 0.3799 0.37677 0.0
O827 O 0.27142 0.35542 0.40206 0.0
O828 O 0.26007 0.41971 0.38647 0.0
O829 O 0.22963 0.40301 0.42405 0.0
O830 O 0.28454 0.42185 0.47796 0.0
O831 O 0.28518 0.39307 0.46031 0.0
H832 H 0.31511 0.35309 0.54288 0.0
H833 H 0.32824 0.34882 0.61253 0.0
H834 H 0.26144 0.29797 0.64545 0.0
H835 H 0.24856 0.30171 0.57476 0.0
H836 H 0.19354 0.39283 0.38232 0.0
H837 H 0.17071 0.38481 0.3179 0.0
H838 H 0.23011 0.41724 0.24003 0.0
H839 H 0.25295 0.42461 0.30469 0.0
Ho840 Ho 0.24996 0.31735 1.02773 0.0
Ho841 Ho 0.20439 0.28307 0.06886 0.0
C842 C 0.20526 0.29556 0.96834 0.0
C843 C 0.29116 0.33741 1.00348 0.0
C844 C 0.30346 0.33991 0.96322 0.0
C845 C 0.30654 0.32265 0.9478 0.0
C846 C 0.31597 0.32416 0.90751 0.0
C847 C 0.32187 0.34268 0.88107 0.0
C848 C 0.3203 0.36069 0.89788 0.0
C849 C 0.3114 0.35938 0.93876 0.0
C850 C 0.22299 0.33344 1.04222 0.0
C851 C 0.24638 0.31174 0.13258 0.0
C852 C 0.16918 0.26571 0.11775 0.0
C853 C 0.16166 0.2704 0.16011 0.0
C854 C 0.15485 0.28637 0.16326 0.0
C855 C 0.14629 0.28968 0.20189 0.0
C856 C 0.14382 0.27687 0.23892 0.0
C857 C 0.15088 0.26101 0.23594 0.0
C858 C 0.15961 0.25782 0.19721 0.0
C859 C 0.22265 0.26512 1.01445 0.0
O860 O 0.22734 0.30375 0.96803 0.0
O861 O 0.19366 0.28976 1.00481 0.0
O862 O 0.27887 0.34681 1.00404 0.0
O863 O 0.2812 0.31775 1.02144 0.0
O864 O 0.23804 0.34069 1.01219 0.0
O865 O 0.22476 0.31954 0.06613 0.0
O866 O 0.227 0.2934 0.12711 0.0
O867 O 0.25751 0.32459 0.09949 0.0
O868 O 0.18405 0.25924 0.11829 0.0
O869 O 0.17237 0.27928 0.08571 0.0
O870 O 0.20155 0.25585 1.02349 0.0
O871 O 0.23285 0.28156 1.03979 0.0
H872 H 0.30057 0.30746 0.96575 0.0
H873 H 0.31734 0.3102 0.89602 0.0
H874 H 0.32447 0.37521 0.87856 0.0
H875 H 0.30961 0.37316 0.95022 0.0
H876 H 0.15573 0.29619 0.13557 0.0
H877 H 0.14154 0.30234 0.2025 0.0
H878 H 0.14908 0.25052 0.26317 0.0
H879 H 0.16433 0.24512 0.19608 0.0
Ho880 Ho 0.69586 0.93552 1.03196 0.0
Ho881 Ho 0.72803 0.9212 0.07185 0.0
C882 C 0.71882 0.91443 0.96926 0.0
C883 C 0.6761 0.95685 1.0074 0.0
C884 C 0.66382 0.95618 0.9687 0.0
C885 C 0.6533 0.96895 0.96588 0.0
C886 C 0.64307 0.9695 0.92738 0.0
C887 C 0.64268 0.95662 0.89222 0.0
C888 C 0.65248 0.94322 0.89587 0.0
C889 C 0.66308 0.94308 0.93378 0.0
C890 C 0.67942 0.89176 1.03382 0.0
C891 C 0.69567 0.92998 0.13638 0.0
C892 C 0.74582 0.90325 0.1191 0.0
C893 C 0.7412 0.89038 0.16028 0.0
C894 C 0.74221 0.87065 0.16085 0.0
C895 C 0.73883 0.85857 0.19914 0.0
C896 C 0.73432 0.86579 0.23843 0.0
C897 C 0.73321 0.88557 0.23779 0.0
C898 C 0.73655 0.89765 0.19931 0.0
C899 C 0.74798 0.9607 1.02734 0.0
O900 O 0.70955 0.92731 0.97192 0.0
O901 O 0.72469 0.90746 1.00425 0.0
O902 O 0.66653 0.93887 1.03085 0.0
O903 O 0.69741 0.96426 1.00194 0.0
O904 O 0.67366 0.90182 1.0056 0.0
O905 O 0.69191 0.90541 0.06233 0.0
O906 O 0.71194 0.92534 0.1325 0.0
O907 O 0.68747 0.93502 0.10251 0.0
O908 O 0.75142 0.9243 0.1216 0.0
O909 O 0.73261 0.89311 0.08632 0.0
O910 O 0.75641 0.94786 1.03253 0.0
O911 O 0.73087 0.95344 0.05132 0.0
H912 H 0.65351 0.97888 0.99297 0.0
H913 H 0.63572 0.98004 0.92485 0.0
H914 H 0.65261 0.93344 0.86875 0.0
H915 H 0.67109 0.9331 0.93559 0.0
H916 H 0.74589 0.86464 0.13152 0.0
H917 H 0.74019 0.84371 0.19799 0.0
H918 H 0.72951 0.89163 0.26698 0.0
H919 H 0.73555 0.91272 0.20023 0.0
Ho920 Ho 0.07473 0.7667 1.03632 0.0
Ho921 Ho 0.08294 0.81222 0.07105 0.0
C922 C 0.09148 0.80931 0.97002 0.0
C923 C 0.06067 0.72845 1.00017 0.0
C924 C 0.05108 0.71746 0.95925 0.0
C925 C 0.03949 0.69418 0.95688 0.0
C926 C 0.03065 0.68353 0.91761 0.0
C927 C 0.03299 0.69614 0.88068 0.0
C928 C 0.04512 0.71944 0.88317 0.0
C929 C 0.05397 0.73003 0.92219 0.0
C930 C 0.11711 0.79575 0.0621 0.0
C931 C 0.07859 0.77293 0.13764 0.0
C932 C 0.0982 0.8471 0.12022 0.0
C933 C 0.11283 0.85514 0.1597 0.0
C934 C 0.13555 0.86136 0.15825 0.0
C935 C 0.14917 0.86954 0.19516 0.0
C936 C 0.14059 0.87173 0.23495 0.0
C937 C 0.11778 0.8652 0.23643 0.0
C938 C 0.10419 0.85714 0.19945 0.0
C939 C 0.04404 0.78885 1.02661 0.0
O940 O 0.08055 0.7872 0.97484 0.0
O941 O 0.09682 0.82299 1.00375 0.0
O942 O 0.08137 0.74455 0.99867 0.0
O943 O 0.04817 0.73339 1.02393 0.0
O944 O 0.10818 0.77431 0.06453 0.0
O945 O 0.10308 0.79949 1.04479 0.0
O946 O 0.08648 0.7942 0.12898 0.0
O947 O 0.06946 0.75774 0.10708 0.0
O948 O 0.07825 0.82971 0.12467 0.0
O949 O 0.10748 0.84668 0.08369 0.0
O950 O 0.05426 0.81018 1.03332 0.0
O951 O 0.0527 0.78038 0.05119 0.0
H952 H 0.03737 0.68428 0.98532 0.0
H953 H 0.02187 0.66555 0.91614 0.0
H954 H 0.04793 0.72953 0.85472 0.0
H955 H 0.0632 0.74802 0.92334 0.0
H956 H 0.14294 0.86003 0.12848 0.0
H957 H 0.16649 0.87402 0.19248 0.0
H958 H 0.11046 0.8668 0.26605 0.0
H959 H 0.08685 0.85265 0.2019 0.0
Ho960 Ho 0.4047 0.14275 0.91057 0.0
Ho961 Ho 0.36815 0.10109 0.86283 0.0
C962 C 0.36525 0.10114 0.96585 0.0
C963 C 0.42536 0.17606 0.9635 0.0
C964 C 0.41983 0.18356 1.00456 0.0
C965 C 0.39765 0.17577 1.01716 0.0
C966 C 0.39272 0.18399 0.0546 0.0
C967 C 0.40981 0.20023 0.08077 0.0
C968 C 0.43201 0.20763 0.06835 0.0
C969 C 0.43691 0.19946 1.03081 0.0
C970 C 0.41949 0.11956 0.86228 0.0
C971 C 0.39806 0.14715 0.80852 0.0
C972 C 0.34571 0.06362 0.82353 0.0
C973 C 0.34663 0.05082 0.7873 0.0
C974 C 0.36253 0.06097 0.75485 0.0
C975 C 0.36138 0.04897 0.71804 0.0
C976 C 0.34403 0.02691 0.71312 0.0
C977 C 0.32904 0.01639 0.74697 0.0
C978 C 0.33043 0.02831 0.78408 0.0
C979 C 0.35446 0.12898 0.89432 0.0
O980 O 0.38191 0.12188 0.96515 0.0
O981 O 0.35829 0.08893 0.93061 0.0
O982 O 0.42715 0.15812 0.965 0.0
O983 O 0.41478 0.17658 0.92893 0.0
O984 O 0.43115 0.14067 0.87109 0.0
O985 O 0.40193 0.11145 0.88506 0.0
O986 O 0.38567 0.12497 0.80663 0.0
O987 O 0.40517 0.15787 0.84596 0.0
O988 O 0.34416 0.08123 0.81424 0.0
O989 O 0.35951 0.06687 0.85516 0.0
O990 O 0.34158 0.1077 0.88918 0.0
O991 O 0.37312 0.13361 0.87993 0.0
H992 H 0.38408 0.16344 0.9978 0.0
H993 H 0.37542 0.17751 0.06311 0.0
H994 H 0.44571 0.22022 0.08704 0.0
H995 H 0.45416 0.20585 1.02191 0.0
H996 H 0.37508 0.07838 0.75707 0.0
H997 H 0.37296 0.05748 0.69203 0.0
H998 H 0.31555 0.99941 0.74364 0.0
H999 H 0.31821 0.02028 0.80933 0.0
Ho1000 Ho 0.86622 0.25832 0.90951 0.0
Ho1001 Ho 0.90927 0.26399 0.86965 0.0
C1002 C 0.90659 0.26148 0.97175 0.0
C1003 C 0.83215 0.24646 0.95967 0.0
C1004 C 0.82507 0.23604 1.00336 0.0
C1005 C 0.82286 0.21519 1.01315 0.0
C1006 C 0.81574 0.20559 0.05421 0.0
C1007 C 0.81074 0.21656 0.08685 0.0
C1008 C 0.81302 0.23742 0.07686 0.0
C1009 C 0.82001 0.24695 1.03582 0.0
C1010 C 0.89045 0.29684 0.86427 0.0
C1011 C 0.86594 0.25017 0.80736 0.0
C1012 C 0.9465 0.27628 0.83116 0.0
C1013 C 0.95825 0.2877 0.79204 0.0
C1014 C 0.96021 0.308 0.78006 0.0
C1015 C 0.96997 0.31782 0.74113 0.0
C1016 C 0.97809 0.30749 0.71352 0.0
C1017 C 0.97671 0.28739 0.72645 0.0
C1018 C 0.96697 0.27766 0.76551 0.0
C1019 C 0.88004 0.22206 0.89685 0.0
O1020 O 0.88543 0.25593 0.96741 0.0
O1021 O 0.92016 0.26807 0.93851 0.0
O1022 O 0.84911 0.26679 0.95819 0.0
O1023 O 0.8326 0.23403 0.9283 0.0
O1024 O 0.86899 0.28664 0.86928 0.0
O1025 O 0.89832 0.28759 0.88864 0.0
O1026 O 0.88811 0.26028 0.81032 0.0
O1027 O 0.85317 0.24494 0.84243 0.0
O1028 O 0.92879 0.2568 0.82537 0.0
O1029 O 0.94378 0.28831 0.86047 0.0
O1030 O 0.90149 0.23084 0.89806 0.0
O1031 O 0.87603 0.2361 0.88032 0.0
H1032 H 0.82666 0.20626 0.98911 0.0
H1033 H 0.81449 0.18967 0.06054 0.0
H1034 H 0.80908 0.24635 0.10066 0.0
H1035 H 0.82136 0.26291 1.02938 0.0
H1036 H 0.95399 0.31611 0.80059 0.0
H1037 H 0.9706 0.33318 0.73235 0.0
H1038 H 0.98208 0.27845 0.70563 0.0
H1039 H 0.96558 0.26191 0.77434 0.0
Ho1040 Ho 0.74381 0.60011 0.9146 0.0
Ho1041 Ho 0.73922 0.63639 0.8691 0.0
C1042 C 0.74241 0.63959 0.97179 0.0
C1043 C 0.75529 0.57824 0.96665 0.0
C1044 C 0.76819 0.58316 1.00759 0.0
C1045 C 0.78404 0.60503 1.01933 0.0
C1046 C 0.79692 0.60928 0.05691 0.0
C1047 C 0.79426 0.59178 0.08394 0.0
C1048 C 0.77807 0.56993 0.0723 0.0
C1049 C 0.76526 0.56571 1.03465 0.0
C1050 C 0.7057 0.58503 0.86671 0.0
C1051 C 0.75524 0.60646 0.8135 0.0
C1052 C 0.72451 0.65819 0.82631 0.0
C1053 C 0.71301 0.65599 0.78582 0.0
C1054 C 0.71421 0.64315 0.75234 0.0
C1055 C 0.70386 0.64183 0.71324 0.0
C1056 C 0.692 0.65316 0.70723 0.0
C1057 C 0.69039 0.66561 0.74129 0.0
C1058 C 0.70091 0.66703 0.78043 0.0
C1059 C 0.7813 0.65011 0.89765 0.0
O1060 O 0.74677 0.6231 0.97008 0.0
O1061 O 0.7367 0.64638 0.93688 0.0
O1062 O 0.73593 0.5773 0.9684 0.0
O1063 O 0.76663 0.58873 0.93236 0.0
O1064 O 0.71541 0.5736 0.87498 0.0
O1065 O 0.71487 0.60261 0.88968 0.0
O1066 O 0.7466 0.61988 0.81234 0.0
O1067 O 0.75797 0.59848 0.8505 0.0
O1068 O 0.74494 0.66195 0.82323 0.0
O1069 O 0.7128 0.64335 0.85549 0.0
O1070 O 0.77201 0.66239 0.89736 0.0
O1071 O 0.76719 0.63135 0.88334 0.0
H1072 H 0.78661 0.61885 0.99919 0.0
H1073 H 0.80891 0.62634 0.0649 0.0
H1074 H 0.77561 0.55596 0.09177 0.0
H1075 H 0.75324 0.54869 1.02632 0.0
H1076 H 0.7237 0.63473 0.75596 0.0
H1077 H 0.70605 0.63281 0.68701 0.0
H1078 H 0.68136 0.67451 0.73735 0.0
H1079 H 0.69983 0.67695 0.80628 0.0
Ho1080 Ho 0.81638 0.7364 0.26131 0.0
Ho1081 Ho 0.77498 0.70205 0.3107 0.0
C1082 C 0.77345 0.69782 0.2074 0.0
C1083 C 0.85017 0.75539 0.20948 0.0
C1084 C 0.85834 0.74936 0.16999 0.0
C1085 C 0.84575 0.74222 0.13172 0.0
C1086 C 0.85425 0.73728 0.0948 0.0
C1087 C 0.87551 0.7392 0.09512 0.0
C1088 C 0.88789 0.74607 0.13367 0.0
C1089 C 0.87946 0.75112 0.17043 0.0
C1090 C 0.7962 0.75459 0.30904 0.0
C1091 C 0.82139 0.73162 0.36361 0.0
C1092 C 0.7389 0.68078 0.35469 0.0
C1093 C 0.72852 0.68316 0.39351 0.0
C1094 C 0.70534 0.67063 0.39747 0.0
C1095 C 0.69511 0.67134 0.43553 0.0
C1096 C 0.70798 0.68469 0.46995 0.0
C1097 C 0.73121 0.69773 0.4653 0.0
C1098 C 0.74142 0.69702 0.4272 0.0
C1099 C 0.80151 0.68641 0.28032 0.0
O1100 O 0.79463 0.71356 0.20749 0.0
O1101 O 0.76152 0.69206 0.24314 0.0
O1102 O 0.83247 0.75757 0.2061 0.0
O1103 O 0.85027 0.74541 0.24515 0.0
O1104 O 0.81681 0.7649 0.29655 0.0
O1105 O 0.78625 0.73612 0.28872 0.0
O1106 O 0.79922 0.72013 0.36591 0.0
O1107 O 0.83188 0.73747 0.3259 0.0
O1108 O 0.75634 0.67841 0.36038 0.0
O1109 O 0.74126 0.6942 0.32303 0.0
O1110 O 0.78007 0.67449 0.28452 0.0
O1111 O 0.80698 0.70538 0.29411 0.0
H1112 H 0.82935 0.7405 0.13019 0.0
H1113 H 0.84405 0.73176 0.06602 0.0
H1114 H 0.90439 0.74804 0.13524 0.0
H1115 H 0.8896 0.75663 0.19931 0.0
H1116 H 0.69522 0.65985 0.37153 0.0
H1117 H 0.67724 0.66092 0.43862 0.0
H1118 H 0.74158 0.70778 0.49171 0.0
H1119 H 0.75938 0.70684 0.42445 0.0
Ho1120 Ho 0.26883 0.0737 0.25759 0.0
Ho1121 Ho 0.30597 0.06945 0.30341 0.0
C1122 C 0.30839 0.07149 0.2014 0.0
C1123 C 0.24684 0.08432 0.20385 0.0
C1124 C 0.25024 0.09442 0.15971 0.0
C1125 C 0.26325 0.11755 0.15323 0.0
C1126 C 0.26542 0.1269 0.11203 0.0
C1127 C 0.25463 0.11346 0.07585 0.0
C1128 C 0.24171 0.09032 0.08242 0.0
C1129 C 0.2395 0.08099 0.12361 0.0
C1130 C 0.25498 0.03508 0.30227 0.0
C1131 C 0.27396 0.08218 0.35969 0.0
C1132 C 0.32904 0.05754 0.34996 0.0
C1133 C 0.32582 0.04596 0.39069 0.0
C1134 C 0.30455 0.03377 0.40837 0.0
C1135 C 0.30143 0.02279 0.44739 0.0
C1136 C 0.31978 0.0251 0.4711 0.0
C1137 C 0.34123 0.0376 0.45286 0.0
C1138 C 0.34412 0.04757 0.41267 0.0
C1139 C 0.3182 0.11096 0.27431 0.0
O1140 O 0.29216 0.07634 0.203 0.0
O1141 O 0.31509 0.06559 0.23616 0.0
O1142 O 0.24414 0.06427 0.20668 0.0
O1143 O 0.25901 0.0972 0.23546 0.0
O1144 O 0.24317 0.04466 0.29636 0.0
O1145 O 0.27262 0.04525 0.2798 0.0
O1146 O 0.28618 0.07226 0.3591 0.0
O1147 O 0.26721 0.08724 0.32334 0.0
O1148 O 0.33087 0.07719 0.35265 0.0
O1149 O 0.31588 0.04549 0.31869 0.0
O1150 O 0.33147 0.10285 0.27668 0.0
O1151 O 0.29986 0.09665 0.28935 0.0
H1152 H 0.27172 0.12855 0.18007 0.0
H1153 H 0.27576 0.14472 0.10853 0.0
H1154 H 0.23285 0.07934 0.05581 0.0
H1155 H 0.2291 0.06318 0.12725 0.0
H1156 H 0.29046 0.03321 0.39238 0.0
H1157 H 0.28464 0.01311 0.45927 0.0
H1158 H 0.35608 0.04065 0.46996 0.0
H1159 H 0.36074 0.05721 0.39947 0.0
Ho1160 Ho 0.9277 0.18938 0.2642 0.0
Ho1161 Ho 0.93624 0.23231 0.31264 0.0
C1162 C 0.93313 0.23266 0.20939 0.0
C1163 C 0.91155 0.15567 0.21156 0.0
C1164 C 0.8996 0.14914 0.16886 0.0
C1165 C 0.87649 0.14105 0.16544 0.0
C1166 C 0.86536 0.13407 0.12548 0.0
C1167 C 0.87694 0.1349 0.08755 0.0
C1168 C 0.90001 0.14281 0.09125 0.0
C1169 C 0.91109 0.14975 0.13109 0.0
C1170 C 0.96625 0.20967 0.31159 0.0
C1171 C 0.91814 0.18599 0.36722 0.0
C1172 C 0.95352 0.26904 0.35498 0.0
C1173 C 0.96666 0.27838 0.3938 0.0
C1174 C 0.97747 0.30137 0.40037 0.0
C1175 C 0.98863 0.3104 0.43893 0.0
C1176 C 0.98912 0.29647 0.4711 0.0
C1177 C 0.97896 0.27349 0.4636 0.0
C1178 C 0.96779 0.26448 0.42509 0.0
C1179 C 0.89408 0.20626 0.2823 0.0
O1180 O 0.9282 0.21163 0.20985 0.0
O1181 O 0.93883 0.24483 0.24484 0.0
O1182 O 0.93256 0.1714 0.21177 0.0
O1183 O 0.90067 0.15709 0.2448 0.0
O1184 O 0.95563 0.18884 0.30018 0.0
O1185 O 0.95778 0.21946 0.29054 0.0
O1186 O 0.92876 0.20818 0.36857 0.0
O1187 O 0.91382 0.17489 0.33 0.0
O1188 O 0.93309 0.25281 0.36092 0.0
O1189 O 0.96375 0.26536 0.32336 0.0
O1190 O 0.90342 0.22762 0.28783 0.0
O1191 O 0.90751 0.2007 0.29622 0.0
H1192 H 0.86688 0.14001 0.19372 0.0
H1193 H 0.84769 0.12831 0.12429 0.0
H1194 H 0.9096 0.14336 0.0633 0.0
H1195 H 0.92875 0.15543 0.13234 0.0
H1196 H 0.97665 0.31223 0.37629 0.0
H1197 H 0.99607 0.3281 0.44436 0.0
H1198 H 0.97874 0.26235 0.48827 0.0
H1199 H 0.9595 0.24666 0.42025 0.0
Ho1200 Ho 0.30173 0.23115 0.80728 0.0
Ho1201 Ho 0.26644 0.19019 0.75738 0.0
C1202 C 0.27002 0.18447 0.85904 0.0
C1203 C 0.32186 0.26327 0.86152 0.0
C1204 C 0.31573 0.26593 0.90517 0.0
C1205 C 0.29438 0.25109 0.9203 0.0
C1206 C 0.28787 0.25344 0.9613 0.0
C1207 C 0.30294 0.27032 0.98875 0.0
C1208 C 0.32485 0.28459 0.97417 0.0
C1209 C 0.33114 0.28249 0.93245 0.0
C1210 C 0.31603 0.20383 0.77652 0.0
C1211 C 0.30604 0.23365 0.70512 0.0
C1212 C 0.24621 0.15811 0.70183 0.0
C1213 C 0.25025 0.15151 0.65818 0.0
C1214 C 0.26545 0.14386 0.65183 0.0
C1215 C 0.26803 0.13654 0.61104 0.0
C1216 C 0.2555 0.13661 0.57526 0.0
C1217 C 0.24038 0.14435 0.58176 0.0
C1218 C 0.23777 0.1516 0.6225 0.0
C1219 C 0.2496 0.21209 0.80382 0.0
O1220 O 0.28186 0.20652 0.86012 0.0
O1221 O 0.26402 0.17345 0.82178 0.0
O1222 O 0.32633 0.24718 0.85724 0.0
O1223 O 0.30884 0.26333 0.83091 0.0
O1224 O 0.32858 0.22521 0.78055 0.0
O1225 O 0.29718 0.19866 0.79081 0.0
O1226 O 0.29024 0.21245 0.70508 0.0
O1227 O 0.31185 0.24568 0.74086 0.0
O1228 O 0.24325 0.17533 0.70401 0.0
O1229 O 0.25795 0.15741 0.73427 0.0
O1230 O 0.2388 0.19121 0.79314 0.0
O1231 O 0.26808 0.22111 0.78351 0.0
H1232 H 0.28262 0.2377 0.90024 0.0
H1233 H 0.27091 0.24213 0.97106 0.0
H1234 H 0.3372 0.29733 0.99491 0.0
H1235 H 0.34792 0.29375 0.92154 0.0
H1236 H 0.27531 0.14337 0.67843 0.0
H1237 H 0.28004 0.131 0.60751 0.0
H1238 H 0.23013 0.14439 0.55546 0.0
H1239 H 0.22568 0.15705 0.6262 0.0
Ho1240 Ho 0.7626 0.06404 0.80213 0.0
Ho1241 Ho 0.80924 0.07795 0.76821 0.0
C1242 C 0.80369 0.08297 0.8703 0.0
C1243 C 0.72095 0.04049 0.82174 0.0
C1244 C 0.70959 0.03185 0.8632 0.0
C1245 C 0.70715 0.01196 0.87978 0.0
C1246 C 0.7026 0.007 0.92329 0.0
C1247 C 0.69928 0.02127 0.95042 0.0
C1248 C 0.69895 0.03968 0.93249 0.0
C1249 C 0.7041 0.04495 0.88922 0.0
C1250 C 0.78938 0.10763 0.80234 0.0
C1251 C 0.77007 0.06942 0.69912 0.0
C1252 C 0.84567 0.09578 0.72304 0.0
C1253 C 0.85329 0.10747 0.68058 0.0
C1254 C 0.84882 0.12438 0.66825 0.0
C1255 C 0.85723 0.13607 0.62942 0.0
C1256 C 0.87028 0.13118 0.60146 0.0
C1257 C 0.87424 0.11386 0.61343 0.0
C1258 C 0.86593 0.10225 0.65243 0.0
C1259 C 0.78901 0.03891 0.81396 0.0
O1260 O 0.78176 0.06943 0.86529 0.0
O1261 O 0.81735 0.09066 0.83667 0.0
O1262 O 0.73125 0.06208 0.81725 0.0
O1263 O 0.7329 0.03198 0.8078 0.0
O1264 O 0.77344 0.09713 0.83003 0.0
O1265 O 0.78944 0.09473 0.77318 0.0
O1266 O 0.78939 0.07038 0.70595 0.0
O1267 O 0.75724 0.06822 0.73161 0.0
O1268 O 0.83105 0.07446 0.72221 0.0
O1269 O 0.84157 0.10621 0.75377 0.0
O1270 O 0.81037 0.0524 0.81244 0.0
O1271 O 0.78003 0.04587 0.78705 0.0
H1272 H 0.71021 1.001 0.85981 0.0
H1273 H 0.70274 0.99257 0.93596 0.0
H1274 H 0.69647 0.05105 0.95251 0.0
H1275 H 0.70528 0.06012 0.877 0.0
H1276 H 0.839 0.12877 0.68884 0.0
H1277 H 0.85342 0.14898 0.62127 0.0
H1278 H 0.88432 0.10963 0.59323 0.0
H1279 H 0.86971 0.08936 0.66094 0.0
Ho1280 Ho 0.93538 0.69852 0.7999 0.0
Ho1281 Ho 0.93103 0.73637 0.76046 0.0
C1282 C 0.91957 0.72681 0.86116 0.0
C1283 C 0.94994 0.6753 0.83769 0.0
C1284 C 0.96209 0.67694 0.87684 0.0
C1285 C 0.96705 0.69404 0.90632 0.0
C1286 C 0.97637 0.69408 0.94598 0.0
C1287 C 0.98039 0.67673 0.95677 0.0
C1288 C 0.97658 0.66035 0.92599 0.0
C1289 C 0.96759 0.66056 0.88601 0.0
C1290 C 0.89343 0.6859 0.77196 0.0
C1291 C 0.93378 0.69955 0.69688 0.0
C1292 C 0.91904 0.75942 0.71322 0.0
C1293 C 0.90619 0.75568 0.6724 0.0
C1294 C 0.88764 0.75878 0.67207 0.0
C1295 C 0.87475 0.75477 0.6347 0.0
C1296 C 0.88007 0.74761 0.59632 0.0
C1297 C 0.89883 0.74473 0.59652 0.0
C1298 C 0.91167 0.74863 0.63409 0.0
C1299 C 0.96854 0.74954 0.80932 0.0
O1300 O 0.9288 0.71387 0.86005 0.0
O1301 O 0.91652 0.73546 0.82541 0.0
O1302 O 0.92981 0.67208 0.84334 0.0
O1303 O 0.96129 0.69036 0.80862 0.0
O1304 O 0.90251 0.67345 0.77033 0.0
O1305 O 0.90757 0.70415 0.78803 0.0
O1306 O 0.9298 0.71618 0.7016 0.0
O1307 O 0.93834 0.69081 0.73037 0.0
O1308 O 0.93881 0.76127 0.71095 0.0
O1309 O 0.9076 0.74756 0.7463 0.0
O1310 O 0.95882 0.7612 0.80336 0.0
O1311 O 0.95962 0.73302 0.7836 0.0
H1312 H 0.9627 0.70671 0.89948 0.0
H1313 H 0.97877 0.70671 0.9693 0.0
H1314 H 0.97962 0.64687 0.93361 0.0
H1315 H 0.96399 0.6474 0.86309 0.0
H1316 H 0.883 0.76424 0.70098 0.0
H1317 H 0.86067 0.75749 0.63584 0.0
H1318 H 0.90336 0.73902 0.56783 0.0
H1319 H 0.92576 0.74592 0.63317 0.0
Ho1320 Ho 0.89837 0.62911 0.37249 0.0
Ho1321 Ho 0.8558 0.59261 0.41629 0.0
C1322 C 0.85267 0.60102 0.3149 0.0
C1323 C 0.93438 0.6511 0.32853 0.0
C1324 C 0.94124 0.65105 0.28419 0.0
C1325 C 0.9633 0.65682 0.27541 0.0
C1326 C 0.96992 0.65657 0.23311 0.0
C1327 C 0.95447 0.65052 0.1994 0.0
C1328 C 0.93251 0.64521 0.20828 0.0
C1329 C 0.92588 0.64527 0.25045 0.0
C1330 C 0.87085 0.64301 0.40447 0.0
C1331 C 0.89821 0.62871 0.47562 0.0
C1332 C 0.82127 0.57259 0.46596 0.0
C1333 C 0.81307 0.57808 0.506 0.0
C1334 C 0.82624 0.58616 0.54342 0.0
C1335 C 0.81798 0.59126 0.5805 0.0
C1336 C 0.79642 0.58859 0.58106 0.0
C1337 C 0.78339 0.58059 0.54343 0.0
C1338 C 0.79159 0.57537 0.50656 0.0
C1339 C 0.87766 0.57676 0.36814 0.0
O1340 O 0.8748 0.61396 0.31471 0.0
O1341 O 0.84143 0.5927 0.35127 0.0
O1342 O 0.91974 0.65755 0.33389 0.0
O1343 O 0.93001 0.63352 0.3513 0.0
O1344 O 0.89239 0.65522 0.40297 0.0
O1345 O 0.86579 0.62469 0.38768 0.0
O1346 O 0.87697 0.61321 0.4728 0.0
O1347 O 0.911 0.63618 0.44109 0.0
O1348 O 0.83864 0.56985 0.46892 0.0
O1349 O 0.82183 0.58365 0.43143 0.0
O1350 O 0.85671 0.56543 0.37821 0.0
O1351 O 0.88676 0.59445 0.39088 0.0
H1352 H 0.97535 0.66148 0.30123 0.0
H1353 H 0.98697 0.66087 0.22674 0.0
H1354 H 0.92043 0.64087 0.1826 0.0
H1355 H 0.90877 0.64079 0.25666 0.0
H1356 H 0.84296 0.58864 0.54407 0.0
H1357 H 0.82864 0.59762 0.60857 0.0
H1358 H 0.76664 0.57801 0.54261 0.0
H1359 H 0.78105 0.56918 0.47828 0.0
Ho1360 Ho 0.36498 0.26267 0.36634 0.0
Ho1361 Ho 0.40332 0.26039 0.4122 0.0
C1362 C 0.39636 0.24927 0.30954 0.0
C1363 C 0.33811 0.27333 0.3306 0.0
C1364 C 0.33176 0.28198 0.29397 0.0
C1365 C 0.33897 0.28099 0.25245 0.0
C1366 C 0.33068 0.28717 0.21755 0.0
C1367 C 0.31498 0.29412 0.22385 0.0
C1368 C 0.30819 0.29566 0.26542 0.0
C1369 C 0.31669 0.28968 0.30051 0.0
C1370 C 0.35424 0.22201 0.39862 0.0
C1371 C 0.36391 0.26145 0.46969 0.0
C1372 C 0.4252 0.24848 0.46332 0.0
C1373 C 0.42021 0.23442 0.50299 0.0
C1374 C 0.41983 0.21399 0.50074 0.0
C1375 C 0.41551 0.2006 0.53743 0.0
C1376 C 0.41154 0.20724 0.57784 0.0
C1377 C 0.412 0.22777 0.58015 0.0
C1378 C 0.41622 0.24114 0.54331 0.0
C1379 C 0.4164 0.29814 0.3653 0.0
O1380 O 0.38218 0.25706 0.30855 0.0
O1381 O 0.40493 0.24705 0.34648 0.0
O1382 O 0.33658 0.25386 0.32588 0.0
O1383 O 0.35547 0.28738 0.35315 0.0
O1384 O 0.34065 0.22972 0.39636 0.0
O1385 O 0.37221 0.23638 0.38246 0.0
O1386 O 0.3806 0.25735 0.46812 0.0
O1387 O 0.35671 0.2666 0.43465 0.0
O1388 O 0.42569 0.26758 0.46661 0.0
O1389 O 0.41569 0.23802 0.42754 0.0
O1390 O 0.42924 0.29019 0.37556 0.0
O1391 O 0.39853 0.28791 0.38716 0.0
H1392 H 0.35057 0.27507 0.24703 0.0
H1393 H 0.3359 0.28577 0.18534 0.0
H1394 H 0.29592 0.30076 0.27054 0.0
H1395 H 0.31098 0.2904 0.33265 0.0
H1396 H 0.423 0.20834 0.47043 0.0
H1397 H 0.41565 0.18514 0.53418 0.0
H1398 H 0.40879 0.23342 0.6104 0.0
H1399 H 0.41633 0.25673 0.54651 0.0
Ho1400 Ho 0.74064 0.10151 0.36898 0.0
Ho1401 Ho 0.74954 0.14692 0.40764 0.0
C1402 C 0.75982 0.14603 0.3065 0.0
C1403 C 0.72419 0.0644 0.32767 0.0
C1404 C 0.71693 0.05657 0.28375 0.0
C1405 C 0.72711 0.07068 0.24855 0.0
C1406 C 0.72036 0.06287 0.20682 0.0
C1407 C 0.7032 0.04101 0.19999 0.0
C1408 C 0.69289 0.0269 0.23501 0.0
C1409 C 0.69987 0.03465 0.27683 0.0
C1410 C 0.78234 0.12855 0.39987 0.0
C1411 C 0.74047 0.10466 0.47141 0.0
C1412 C 0.76544 0.18157 0.45775 0.0
C1413 C 0.77567 0.18778 0.50205 0.0
C1414 C 0.79837 0.1949 0.50916 0.0
C1415 C 0.80798 0.20143 0.55046 0.0
C1416 C 0.79527 0.20117 0.58619 0.0
C1417 C 0.77259 0.19412 0.57889 0.0
C1418 C 0.763 0.18761 0.53763 0.0
C1419 C 0.71152 0.12472 0.36057 0.0
O1420 O 0.74972 0.12392 0.30978 0.0
O1421 O 0.76389 0.15905 0.34094 0.0
O1422 O 0.74557 0.07793 0.33269 0.0
O1423 O 0.71192 0.07057 0.34918 0.0
O1424 O 0.77284 0.107 0.39877 0.0
O1425 O 0.76942 0.13368 0.38176 0.0
O1426 O 0.7467 0.12593 0.46625 0.0
O1427 O 0.735 0.09087 0.4384 0.0
O1428 O 0.74413 0.16688 0.45498 0.0
O1429 O 0.77703 0.17887 0.42739 0.0
O1430 O 0.72198 0.14607 0.3674 0.0
O1431 O 0.71965 0.11589 0.38537 0.0
H1432 H 0.74033 0.08765 0.25331 0.0
H1433 H 0.72838 0.0739 0.17985 0.0
H1434 H 0.67961 0.00997 0.22995 0.0
H1435 H 0.69208 0.02354 0.3037 0.0
H1436 H 0.80885 0.19552 0.48273 0.0
H1437 H 0.82539 0.20645 0.5544 0.0
H1438 H 0.76218 0.19398 0.60501 0.0
H1439 H 0.74559 0.1826 0.53356 0.0
H1440 H 0.13908 0.42833 0.06987 0.0
H1441 H 0.08225 0.41139 0.98908 0.0
H1442 H 0.06509 0.42159 0.04721 0.0
H1443 H 0.06564 0.4348 0.12217 0.0
H1444 H 0.12374 0.45434 0.20073 0.0
H1445 H 0.14004 0.44233 0.14413 0.0
C1446 C 0.12285 0.42672 0.06499 0.0
C1447 C 0.11197 0.41884 1.02477 0.0
C1448 C 0.1128 0.43235 0.09911 0.0
C1449 C 0.09098 0.41706 1.01948 0.0
C1450 C 0.08108 0.42288 0.05297 0.0
C1451 C 0.08172 0.43622 0.12725 0.0
C1452 C 0.09316 0.44519 0.1666 0.0
C1453 C 0.09162 0.43026 0.09326 0.0
C1454 C 0.11426 0.44716 0.17152 0.0
C1455 C 0.12375 0.44048 0.13878 0.0
H1456 H 0.573 0.70635 0.06025 0.0
H1457 H 0.60154 0.67487 0.98443 0.0
H1458 H 0.5944 0.64839 1.04326 0.0
H1459 H 0.57966 0.63386 0.1166 0.0
H1460 H 0.54878 0.66406 0.18946 0.0
H1461 H 0.55821 0.69183 0.13281 0.0
C1462 C 0.57782 0.69378 0.05651 0.0
C1463 C 0.588 0.69285 1.01755 0.0
C1464 C 0.57374 0.67864 0.09075 0.0
C1465 C 0.59394 0.67629 1.01382 0.0
C1466 C 0.58981 0.66108 0.04764 0.0
C1467 C 0.57521 0.64662 0.12056 0.0
C1468 C 0.56377 0.6469 0.15829 0.0
C1469 C 0.57984 0.66213 0.08651 0.0
C1470 C 0.55793 0.66356 0.1616 0.0
C1471 C 0.56314 0.67938 0.12884 0.0
H1472 H 0.34767 0.93438 0.16412 0.0
H1473 H 0.37524 0.89185 0.13787 0.0
H1474 H 0.35545 0.88056 0.07011 0.0
H1475 H 0.3293 0.88117 1.01768 0.0
H1476 H 0.30214 0.92404 1.03895 0.0
H1477 H 0.32222 0.93637 0.10784 0.0
C1478 C 0.34943 0.92274 0.1435 0.0
C1479 C 0.36321 0.9141 0.15708 0.0
C1480 C 0.33788 0.91618 0.103 0.0
C1481 C 0.36492 0.89891 0.12928 0.0
C1482 C 0.35356 0.89236 0.08996 0.0
C1483 C 0.32801 0.89352 1.03694 0.0
C1484 C 0.31423 0.90179 1.02228 0.0
C1485 C 0.33989 0.90072 0.07642 0.0
C1486 C 0.31283 0.91765 0.04841 0.0
C1487 C 0.32422 0.92456 0.08831 0.0
H1488 H 0.4288 0.06348 0.70564 0.0
H1489 H 0.47532 0.1299 0.66347 0.0
H1490 H 0.46612 0.14537 0.72515 0.0
H1491 H 0.44702 0.14074 0.79423 0.0
H1492 H 0.40074 0.07502 0.83966 0.0
H1493 H 0.40743 0.05902 0.77473 0.0
C1494 C 0.43655 0.08129 0.70954 0.0
C1495 C 0.45277 0.09538 0.67911 0.0
C1496 C 0.43152 0.09038 0.74659 0.0
C1497 C 0.46276 0.1185 0.68566 0.0
C1498 C 0.45762 0.12747 0.72139 0.0
C1499 C 0.43839 0.12284 0.7902 0.0
C1500 C 0.42339 0.10923 0.82251 0.0
C1501 C 0.44244 0.11365 0.75267 0.0
C1502 C 0.41234 0.08608 0.81581 0.0
C1503 C 0.41632 0.07684 0.77852 0.0
H1504 H 0.95036 0.36647 0.71833 0.0
H1505 H 0.88609 0.33974 0.65768 0.0
H1506 H 0.86905 0.31357 0.7171 0.0
H1507 H 0.87159 0.2997 0.7889 0.0
H1508 H 0.93483 0.32877 0.85412 0.0
H1509 H 0.95268 0.35333 0.79206 0.0
C1510 C 0.9327 0.35495 0.71774 0.0
C1511 C 0.91969 0.35522 0.68256 0.0
C1512 C 0.92263 0.34063 0.75379 0.0
C1513 C 0.89669 0.33991 0.68352 0.0
C1514 C 0.88684 0.325 0.71791 0.0
C1515 C 0.88935 0.31133 0.78963 0.0
C1516 C 0.90184 0.31202 0.8264 0.0
C1517 C 0.89951 0.32546 0.75368 0.0
C1518 C 0.92476 0.3275 0.8264 0.0
C1519 C 0.935 0.3416 0.79068 0.0
H1520 H 0.62212 0.53704 0.73958 0.0
H1521 H 0.67043 0.5804 0.64691 0.0
H1522 H 0.69894 0.59577 0.7038 0.0
H1523 H 0.71012 0.59721 0.78035 0.0
H1524 H 0.66121 0.55584 0.87393 0.0
H1525 H 0.63282 0.54024 0.81705 0.0
C1526 C 0.63873 0.55025 0.73191 0.0
C1527 C 0.64385 0.55775 0.68868 0.0
C1528 C 0.6549 0.55976 0.76538 0.0
C1529 C 0.66576 0.5745 0.67962 0.0
C1530 C 0.68211 0.58335 0.71234 0.0
C1531 C 0.69323 0.5853 0.78882 0.0
C1532 C 0.68792 0.57843 0.83236 0.0
C1533 C 0.67689 0.57627 0.75549 0.0
C1534 C 0.66585 0.56201 0.84137 0.0
C1535 C 0.64958 0.5529 0.80857 0.0
H1536 H 0.90437 0.59958 0.29707 0.0
H1537 H 0.87138 0.53553 0.35881 0.0
H1538 H 0.88017 0.51909 0.29778 0.0
H1539 H 0.89565 0.52206 0.22479 0.0
H1540 H 0.92916 0.58544 0.1621 0.0
H1541 H 0.92159 0.60273 0.22435 0.0
C1542 C 0.89959 0.58218 0.29769 0.0
C1543 C 0.88756 0.56899 0.33355 0.0
C1544 C 0.9042 0.57247 0.2613 0.0
C1545 C 0.88095 0.54625 0.33243 0.0
C1546 C 0.88578 0.53672 0.29714 0.0
C1547 C 0.90121 0.53968 0.22454 0.0
C1548 C 0.9128 0.55249 0.18814 0.0
C1549 C 0.89707 0.54951 0.26099 0.0
C1550 C 0.91999 0.57529 0.18915 0.0
C1551 C 0.91566 0.58513 0.22492 0.0
H1552 H 0.39377 0.3005 0.2922 0.0
H1553 H 0.45535 0.33663 0.36259 0.0
H1554 H 0.47101 0.36404 0.30489 0.0
H1555 H 0.46868 0.37673 0.23189 0.0
H1556 H 0.4083 0.34041 0.15849 0.0
H1557 H 0.39114 0.31415 0.21856 0.0
C1558 C 0.41043 0.31462 0.29534 0.0
C1559 C 0.42317 0.31655 0.33265 0.0
C1560 C 0.41984 0.33018 0.26069 0.0
C1561 C 0.44497 0.33477 0.335 0.0
C1562 C 0.45407 0.35042 0.30163 0.0
C1563 C 0.45171 0.36313 0.22892 0.0
C1564 C 0.43983 0.3608 0.1903 0.0
C1565 C 0.44191 0.3481 0.26386 0.0
C1566 C 0.41783 0.34294 0.18768 0.0
C1567 C 0.40801 0.32784 0.2222 0.0
H1568 H 0.63574 0.10257 0.22243 0.0
H1569 H 0.67308 0.07986 0.14846 0.0
H1570 H 0.69844 0.0877 0.20997 0.0
H1571 H 0.71033 0.10155 0.2855 0.0
H1572 H 0.67294 0.12517 0.35701 0.0
H1573 H 0.64673 0.11523 0.29715 0.0
C1574 C 0.64933 0.09913 0.21971 0.0
C1575 C 0.65225 0.09039 0.1806 0.0
C1576 C 0.66364 0.10339 0.25551 0.0
C1577 C 0.67016 0.08628 0.17802 0.0
C1578 C 0.6847 0.09078 0.21339 0.0
C1579 C 0.69636 0.1043 0.28833 0.0
C1580 C 0.6936 0.11389 0.32667 0.0
C1581 C 0.68165 0.09934 0.2525 0.0
C1582 C 0.67536 0.11747 0.32871 0.0
C1583 C 0.66045 0.11202 0.2941 0.0
H1584 H 0.57811 0.86766 0.56159 0.0
H1585 H 0.59016 0.92351 0.48261 0.0
H1586 H 0.57983 0.9394 0.54314 0.0
H1587 H 0.56764 0.93751 0.6198 0.0
H1588 H 0.55784 0.88257 0.69881 0.0
H1589 H 0.56838 0.86702 0.63842 0.0
C1590 C 0.57904 0.8836 0.55776 0.0
C1591 C 0.58532 0.89447 0.51734 0.0
C1592 C 0.5741 0.89318 0.5935 0.0
C1593 C 0.58573 0.91485 0.51315 0.0
C1594 C 0.57988 0.924 0.54803 0.0
C1595 C 0.56844 0.92256 0.62424 0.0
C1596 C 0.5626 0.91174 0.66477 0.0
C1597 C 0.57425 0.91346 0.58865 0.0
C1598 C 0.56282 0.89167 0.66876 0.0
C1599 C 0.56863 0.88262 0.63391 0.0
H1600 H 0.12041 0.66608 0.66805 0.0
H1601 H 0.05031 0.63359 0.64169 0.0
H1602 H 0.05764 0.65436 0.57371 0.0
H1603 H 0.08469 0.68102 0.51949 0.0
H1604 H 0.15466 0.71488 0.5507 0.0
H1605 H 0.14676 0.69432 0.61759 0.0
C1606 C 0.10662 0.66384 0.64795 0.0
C1607 C 0.08465 0.64842 0.66088 0.0
C1608 C 0.11105 0.67608 0.60902 0.0
C1609 C 0.06723 0.64569 0.63364 0.0
C1610 C 0.07151 0.65744 0.59433 0.0
C1611 C 0.09815 0.6844 0.54128 0.0
C1612 C 0.12033 0.70008 0.52932 0.0
C1613 C 0.09343 0.67268 0.58134 0.0
C1614 C 0.13743 0.70314 0.55809 0.0
C1615 C 0.13294 0.69137 0.5969 0.0
H1616 H 0.35193 0.41572 0.6534 0.0
H1617 H 0.36503 0.48336 0.64772 0.0
H1618 H 0.34228 0.47486 0.58385 0.0
H1619 H 0.31828 0.44889 0.52844 0.0
H1620 H 0.3038 0.38116 0.53068 0.0
H1621 H 0.327 0.38888 0.59562 0.0
C1622 C 0.34988 0.4286 0.6382 0.0
C1623 C 0.36066 0.45036 0.65629 0.0
C1624 C 0.33642 0.42361 0.60005 0.0
C1625 C 0.35729 0.46652 0.63547 0.0
C1626 C 0.34417 0.46171 0.5984 0.0
C1627 C 0.32034 0.43576 0.54269 0.0
C1628 C 0.30946 0.41443 0.52357 0.0
C1629 C 0.33368 0.44041 0.58021 0.0
C1630 C 0.31232 0.3978 0.54347 0.0
C1631 C 0.3255 0.40225 0.58111 0.0
H1632 H 0.75573 0.73453 0.35733 0.0
H1633 H 0.82051 0.79351 0.35011 0.0
H1634 H 0.81288 0.8081 0.41469 0.0
H1635 H 0.78847 0.80483 0.47488 0.0
H1636 H 0.72348 0.74724 0.48404 0.0
H1637 H 0.73033 0.73193 0.41818 0.0
C1638 C 0.76814 0.75057 0.36973 0.0
C1639 C 0.78886 0.76265 0.348 0.0
C1640 C 0.76368 0.75925 0.40808 0.0
C1641 C 0.80447 0.78353 0.36535 0.0
C1642 C 0.80017 0.79204 0.40277 0.0
C1643 C 0.77579 0.78875 0.46291 0.0
C1644 C 0.75547 0.77701 0.48561 0.0
C1645 C 0.77994 0.78007 0.42473 0.0
C1646 C 0.7394 0.7564 0.46852 0.0
C1647 C 0.74334 0.7477 0.43041 0.0
H1648 H 0.2462 0.96504 0.44605 0.0
H1649 H 0.21003 0.99224 0.51005 0.0
H1650 H 0.21779 0.01793 0.4501 0.0
H1651 H 0.23332 0.03173 0.37774 0.0
H1652 H 0.26771 0.00334 0.31088 0.0
H1653 H 0.26104 0.97831 0.37199 0.0
C1654 C 0.2401 0.97659 0.44714 0.0
C1655 C 0.22775 0.97673 0.48344 0.0
C1656 C 0.2438 0.99077 0.41116 0.0
C1657 C 0.21985 0.99187 0.48327 0.0
C1658 C 0.22414 0.00649 0.44866 0.0
C1659 C 0.23945 0.0201 0.37646 0.0
C1660 C 0.25114 0.01962 0.33946 0.0
C1661 C 0.23584 0.00594 0.41214 0.0
C1662 C 0.25879 0.00428 0.33871 0.0
C1663 C 0.25504 0.98997 0.37392 0.0
H1664 H 0.99209 0.25253 0.35036 0.0
H1665 H 0.97419 0.18371 0.36441 0.0
H1666 H 0.99639 0.19249 0.42925 0.0
H1667 H 0.02137 0.21916 0.48315 0.0
H1668 H 0.04027 0.28797 0.4726 0.0
H1669 H 0.0178 0.27994 0.40643 0.0
C1670 C 0.99295 0.23945 0.36763 0.0
C1671 C 0.98103 0.21729 0.35156 0.0
C1672 C 0.00614 0.24463 0.40618 0.0
C1673 C 0.98288 0.20087 0.37501 0.0
C1674 C 0.99569 0.20585 0.41263 0.0
C1675 C 0.02045 0.23246 0.46676 0.0
C1676 C 0.03238 0.25425 0.4838 0.0
C1677 C 0.00739 0.22759 0.4287 0.0
C1678 C 0.03101 0.27107 0.46114 0.0
C1679 C 0.01824 0.26642 0.4229 0.0
H1680 H 0.26652 0.25562 0.8383 0.0
H1681 H 0.21622 0.18707 0.85825 0.0
H1682 H 0.20373 0.19707 0.92281 0.0
H1683 H 0.20676 0.22471 0.97588 0.0
H1684 H 0.25812 0.29285 0.96158 0.0
H1685 H 0.27023 0.28375 0.8942 0.0
C1686 C 0.25284 0.24289 0.85671 0.0
C1687 C 0.24263 0.22043 0.84274 0.0
C1688 C 0.24579 0.24869 0.89562 0.0
C1689 C 0.22472 0.20443 0.86751 0.0
C1690 C 0.21746 0.21011 0.90497 0.0
C1691 C 0.22077 0.2376 0.95833 0.0
C1692 C 0.23161 0.2595 0.97475 0.0
C1693 C 0.22792 0.23209 0.91972 0.0
C1694 C 0.24968 0.27581 0.9509 0.0
C1695 C 0.25647 0.27061 0.91173 0.0
H1696 H 0.80618 0.03779 0.8934 0.0
H1697 H 0.74611 0.0035 0.8181 0.0
H1698 H 0.72731 0.9783 0.8786 0.0
H1699 H 0.7279 0.96566 0.95273 0.0
H1700 H 0.78908 0.99723 1.02522 0.0
H1701 H 0.80698 0.02433 0.96724 0.0
C1702 C 0.78892 0.02486 0.89013 0.0
C1703 C 0.77753 0.023 0.85094 0.0
C1704 C 0.77818 0.01019 0.92525 0.0
C1705 C 0.75521 0.00592 0.84782 0.0
C1706 C 0.74444 0.99138 0.88256 0.0
C1707 C 0.74502 0.97845 0.95648 0.0
C1708 C 0.75684 0.97931 0.99449 0.0
C1709 C 0.75566 0.9934 0.92165 0.0
C1710 C 0.77929 0.99622 0.99719 0.0
C1711 C 0.78966 0.01165 0.96364 0.0
H1712 H 0.03687 0.75838 0.95952 0.0
H1713 H 0.01004 0.79658 1.01676 0.0
H1714 H 0.98441 0.78757 0.95645 0.0
H1715 H 0.97131 0.77158 0.88423 0.0
H1716 H 0.99792 0.734 0.82397 0.0
H1717 H 0.02157 0.74014 0.8874 0.0
C1718 C 0.02505 0.76425 0.95935 0.0
C1719 C 0.0254 0.778 0.99372 0.0
C1720 C 0.01048 0.75951 0.9231 0.0
C1721 C 0.01013 0.78578 0.99165 0.0
C1722 C 0.99551 0.78079 0.95669 0.0
C1723 C 0.98226 0.76462 0.88482 0.0
C1724 C 0.98273 0.75235 0.84868 0.0
C1725 C 0.99586 0.76816 0.92166 0.0
C1726 C 0.99702 0.74344 0.85086 0.0
C1727 C 0.01067 0.74701 0.88737 0.0
H1728 H 0.03988 0.38265 0.98209 0.0
H1729 H 0.96939 0.33693 0.9941 0.0
H1730 H 0.96794 0.32535 0.91938 0.0
H1731 H 0.98518 0.33463 0.84823 0.0
H1732 H 0.0551 0.38161 0.83526 0.0
H1733 H 0.05876 0.38558 0.91364 0.0
C1734 C 0.02432 0.36976 0.96866 0.0
C1735 C 0.00473 0.36095 0.99322 0.0
C1736 C 0.02363 0.36335 0.92577 0.0
C1737 C 0.9847 0.34404 0.97573 0.0
C1738 C 0.98385 0.33744 0.93303 0.0
C1739 C 1.00138 0.34482 0.86277 0.0
C1740 C 0.01976 0.35807 0.83654 0.0
C1741 C 1.003 0.34778 0.90734 0.0
C1742 C 0.04076 0.37134 0.8552 0.0
C1743 C 0.04273 0.37387 0.89987 0.0
H1744 H 0.65517 0.60551 1.00302 0.0
H1745 H 0.67485 0.6747 1.01373 0.0
H1746 H 0.67849 0.67872 0.93524 0.0
H1747 H 0.66882 0.66037 0.86392 0.0
H1748 H 0.64712 0.59043 0.85519 0.0
H1749 H 0.65223 0.58894 0.93221 0.0
C1750 C 0.66108 0.62162 0.98805 0.0
C1751 C 0.6644 0.63971 1.01339 0.0
C1752 C 0.66249 0.62354 0.94323 0.0
C1753 C 0.67207 0.66058 0.99435 0.0
C1754 C 0.67394 0.66279 0.94957 0.0
C1755 C 0.66559 0.64495 0.87891 0.0
C1756 C 0.65746 0.62552 0.85398 0.0
C1757 C 0.66797 0.64405 0.92364 0.0
C1758 C 0.65365 0.60568 0.87356 0.0
C1759 C 0.65636 0.60474 0.91773 0.0
H1760 H 0.36 0.96317 0.96967 0.0
H1761 H 0.36175 0.02525 0.99712 0.0
H1762 H 0.35664 0.02951 0.92117 0.0
H1763 H 0.35922 0.01899 0.84613 0.0
H1764 H 0.35363 0.9553 0.82127 0.0
H1765 H 0.35091 0.94756 0.89825 0.0
C1766 C 0.35853 0.97737 0.96032 0.0
C1767 C 0.36294 0.9946 0.98972 0.0
C1768 C 0.35455 0.97931 0.91685 0.0
C1769 C 0.36031 0.01245 0.97532 0.0
C1770 C 0.35691 0.01477 0.93177 0.0
C1771 C 0.35644 0.00306 0.85769 0.0
C1772 C 0.35709 0.9879 0.82862 0.0
C1773 C 0.35527 0.99888 0.90201 0.0
C1774 C 0.35326 0.9672 0.84337 0.0
C1775 C 0.35203 0.96292 0.88736 0.0
H1776 H 0.9763 0.64317 0.36976 0.0
H1777 H 0.95026 0.57215 0.37716 0.0
H1778 H 0.94524 0.57306 0.45378 0.0
H1779 H 0.95446 0.5943 0.51982 0.0
H1780 H 0.98503 0.66555 0.5158 0.0
H1781 H 0.98214 0.66434 0.43691 0.0
C1782 C 0.96949 0.62788 0.38801 0.0
C1783 C 0.96377 0.60769 0.36715 0.0
C1784 C 0.96763 0.62857 0.43291 0.0
C1785 C 0.95446 0.58797 0.39157 0.0
C1786 C 0.95176 0.58843 0.43579 0.0
C1787 C 0.95976 0.60951 0.50177 0.0
C1788 C 0.97015 0.63002 0.52316 0.0
C1789 C 0.95905 0.60869 0.45688 0.0
C1790 C 0.97727 0.64965 0.49959 0.0
C1791 C 0.97569 0.64891 0.45465 0.0
H1792 H 0.32635 0.35331 0.34008 0.0
H1793 H 0.37692 0.33418 0.33338 0.0
H1794 H 0.37933 0.33478 0.41102 0.0
H1795 H 0.37389 0.34908 0.47877 0.0
H1796 H 0.33092 0.37745 0.4828 0.0
H1797 H 0.31977 0.36626 0.40835 0.0
C1798 C 0.33803 0.3494 0.35544 0.0
C1799 C 0.35187 0.34442 0.33039 0.0
C1800 C 0.34126 0.35217 0.39989 0.0
C1801 C 0.36592 0.33808 0.35125 0.0
C1802 C 0.36768 0.33882 0.39593 0.0
C1803 C 0.36165 0.3523 0.46367 0.0
C1804 C 0.35295 0.36373 0.48637 0.0
C1805 C 0.35646 0.34714 0.42022 0.0
C1806 C 0.33767 0.36845 0.46605 0.0
C1807 C 0.3313 0.36208 0.42351 0.0
H1808 H 0.6634 0.00334 0.35787 0.0
H1809 H 0.64624 0.05535 0.36302 0.0
H1810 H 0.6504 0.05723 0.44026 0.0
H1811 H 0.65076 0.03892 0.50703 0.0
H1812 H 0.66162 0.9832 0.50305 0.0
H1813 H 0.66788 0.9877 0.42517 0.0
C1814 C 0.66062 0.01517 0.37564 0.0
C1815 C 0.65416 0.02887 0.35395 0.0
C1816 C 0.66163 0.01529 0.42072 0.0
C1817 C 0.65145 0.04462 0.37799 0.0
C1818 C 0.65355 0.0456 0.42262 0.0
C1819 C 0.65532 0.02834 0.48913 0.0
C1820 C 0.65577 0.01074 0.51008 0.0
C1821 C 0.65755 0.03031 0.44435 0.0
C1822 C 0.66124 0.99678 0.48706 0.0
C1823 C 0.66464 0.99931 0.44265 0.0
H1824 H 0.63861 0.68202 0.32349 0.0
H1825 H 0.70804 0.7016 0.32967 0.0
H1826 H 0.70859 0.69586 0.25205 0.0
H1827 H 0.69121 0.69278 0.18194 0.0
H1828 H 0.62372 0.68018 0.17546 0.0
H1829 H 0.62015 0.67536 0.25347 0.0
C1830 C 0.65356 0.68418 0.30786 0.0
C1831 C 0.67322 0.69188 0.33171 0.0
C1832 C 0.6541 0.6826 0.26307 0.0
C1833 C 0.69273 0.69522 0.31153 0.0
C1834 C 0.69307 0.69228 0.26725 0.0
C1835 C 0.67566 0.68869 0.19773 0.0
C1836 C 0.65778 0.68684 0.1734 0.0
C1837 C 0.67418 0.68716 0.24254 0.0
C1838 C 0.63763 0.68145 0.19376 0.0
C1839 C 0.63564 0.67884 0.23829 0.0
H1840 H 0.33798 0.97532 0.18014 0.0
H1841 H 0.30907 0.01784 0.17505 0.0
H1842 H 0.3132 0.02306 0.25252 0.0
H1843 H 0.31724 0.00872 0.32226 0.0
H1844 H 0.34537 0.96581 0.32791 0.0
H1845 H 0.35037 0.96831 0.24955 0.0
C1846 C 0.33349 0.98653 0.1957 0.0
C1847 C 0.32248 0.99555 0.17222 0.0
C1848 C 0.33576 0.98932 0.24048 0.0
C1849 C 0.3169 0.01013 0.19279 0.0
C1850 C 0.31936 0.01321 0.23715 0.0
C1851 C 0.32538 1.00082 0.30629 0.0
C1852 C 0.33074 0.98699 0.33008 0.0
C1853 C 0.32754 0.00185 0.26149 0.0
C1854 C 0.34114 0.97653 0.30978 0.0
C1855 C 0.34377 0.97779 0.26506 0.0
H1856 H 0.00769 0.31505 0.32503 0.0
H1857 H 0.05865 0.3837 0.33933 0.0
H1858 H 0.05683 0.38978 0.26238 0.0
H1859 H 0.04677 0.37342 0.19132 0.0
H1860 H 0.99324 0.30554 0.1759 0.0
H1861 H 0.9903 0.30129 0.2538 0.0
C1862 C 0.01777 0.33149 0.31139 0.0
C1863 C 0.03348 0.34884 0.33726 0.0
C1864 C 0.01673 0.33482 0.26717 0.0
C1865 C 0.04646 0.37014 0.31974 0.0
C1866 C 0.04559 0.37355 0.27575 0.0
C1867 C 0.03374 0.35787 0.20423 0.0
C1868 C 0.02098 0.33952 0.17708 0.0
C1869 C 0.03163 0.35568 0.24897 0.0
C1870 C 0.00426 0.31965 0.19567 0.0
C1871 C 1.00234 0.31723 0.24035 0.0
H1872 H 0.61898 0.9369 0.70223 0.0
H1873 H 0.67215 0.00506 0.69082 0.0
H1874 H 0.67129 0.00981 0.76849 0.0
H1875 H 0.66004 0.99224 0.84006 0.0
H1876 H 0.60738 0.92415 0.84963 0.0
H1877 H 0.60227 0.92226 0.77153 0.0
C1878 C 0.62988 0.95315 0.71595 0.0
C1879 C 0.64603 0.9704 0.69035 0.0
C1880 C 0.62919 0.95584 0.76043 0.0
C1881 C 0.66007 0.99117 0.7097 0.0
C1882 C 0.65946 0.994 0.75414 0.0
C1883 C 0.64686 0.97736 0.82498 0.0
C1884 C 0.63419 0.95828 0.84992 0.0
C1885 C 0.64478 0.97611 0.77999 0.0
C1886 C 0.61725 0.93895 0.8306 0.0
C1887 C 0.61456 0.93781 0.78605 0.0
H1888 H 0.03037 0.66622 0.69274 0.0
H1889 H 0.00367 0.70999 0.67456 0.0
H1890 H 0.9983 0.71058 0.75202 0.0
H1891 H 0.00877 0.70505 0.82464 0.0
H1892 H 0.03842 0.66386 0.84238 0.0
H1893 H 0.03443 0.65515 0.76555 0.0
C1894 C 0.02278 0.67533 0.70566 0.0
C1895 C 0.01784 0.68832 0.67807 0.0
C1896 C 0.02044 0.67616 0.75023 0.0
C1897 C 0.00773 0.6999 0.69507 0.0
C1898 C 0.0048 0.70037 0.73945 0.0
C1899 C 0.01379 0.69372 0.81162 0.0
C1900 C 0.0244 0.68557 0.83849 0.0
C1901 C 0.01224 0.68955 0.76733 0.0
C1902 C 0.03038 0.67045 0.82203 0.0
C1903 C 0.02827 0.66564 0.77808 0.0
H1904 H 0.30266 0.30617 0.82937 0.0
H1905 H 0.34959 0.37677 0.82689 0.0
H1906 H 0.34739 0.37639 0.74845 0.0
H1907 H 0.32715 0.35723 0.68313 0.0
H1908 H 0.28228 0.28619 0.68564 0.0
H1909 H 0.28914 0.28563 0.76246 0.0
C1910 C 0.3132 0.32142 0.81202 0.0
C1911 C 0.32577 0.34162 0.83432 0.0
C1912 C 0.31192 0.32109 0.7671 0.0
C1913 C 0.33912 0.36111 0.81068 0.0
C1914 C 0.33794 0.36091 0.7658 0.0
C1915 C 0.31937 0.34145 0.6999 0.0
C1916 C 0.30363 0.32187 0.67877 0.0
C1917 C 0.32355 0.34117 0.74394 0.0
C1918 C 0.29378 0.30165 0.70142 0.0
C1919 C 0.29782 0.30127 0.74528 0.0
H1920 H 0.30588 0.01245 0.66987 0.0
H1921 H 0.37181 0.02208 0.65904 0.0
H1922 H 0.36689 0.01502 0.58159 0.0
H1923 H 0.34692 0.01423 0.51689 0.0
H1924 H 0.28595 0.01684 0.52878 0.0
H1925 H 0.28505 0.0098 0.60483 0.0
C1926 C 0.31877 0.01212 0.65062 0.0
C1927 C 0.33903 0.01703 0.66986 0.0
C1928 C 0.31665 0.01061 0.60581 0.0
C1929 C 0.35593 0.01738 0.64473 0.0
C1930 C 0.35318 0.01382 0.60048 0.0
C1931 C 0.33347 0.01353 0.53575 0.0
C1932 C 0.31695 0.01675 0.51623 0.0
C1933 C 0.33412 0.01177 0.58047 0.0
C1934 C 0.29907 0.01445 0.54179 0.0
C1935 C 0.29858 0.01065 0.58589 0.0
H1936 H 0.97798 0.32214 0.51706 0.0
H1937 H 0.01551 0.28807 0.5237 0.0
H1938 H 0.02193 0.29612 0.60034 0.0
H1939 H 0.01034 0.30588 0.66672 0.0
H1940 H 0.96179 0.32755 0.6605 0.0
H1941 H 0.96742 0.33308 0.58346 0.0
C1942 C 0.98823 0.3172 0.5351 0.0
C1943 C 0.99684 0.30509 0.51473 0.0
C1944 C 0.98976 0.31979 0.57978 0.0
C1945 C 0.00927 0.29792 0.53858 0.0
C1946 C 0.01273 0.30233 0.58248 0.0
C1947 C 1.00098 0.31183 0.64854 0.0
C1948 C 0.98541 0.31591 0.6694 0.0
C1949 C 1.00203 0.31218 0.60369 0.0
C1950 C 0.97414 0.32453 0.64562 0.0
C1951 C 0.97701 0.3273 0.60126 0.0
H1952 H 0.69777 0.68978 0.66629 0.0
H1953 H 0.67007 0.61912 0.65032 0.0
H1954 H 0.66653 0.62258 0.573 0.0
H1955 H 0.68001 0.64656 0.51007 0.0
H1956 H 0.71505 0.71763 0.52649 0.0
H1957 H 0.70654 0.7134 0.60312 0.0
C1958 C 0.69016 0.67505 0.64606 0.0
C1959 C 0.68415 0.65423 0.66374 0.0
C1960 C 0.68986 0.67743 0.60144 0.0
C1961 C 0.67476 0.63532 0.6372 0.0
C1962 C 0.67291 0.63732 0.59302 0.0
C1963 C 0.68501 0.66109 0.53018 0.0
C1964 C 0.69799 0.68242 0.51278 0.0
C1965 C 0.68169 0.65845 0.57463 0.0
C1966 C 0.70481 0.70112 0.5392 0.0
C1967 C 0.70018 0.69867 0.5831 0.0
H1968 H 0.31629 0.30848 1.03471 0.0
H1969 H 0.27384 0.23712 1.04231 0.0
H1970 H 0.26663 0.24022 0.11753 0.0
H1971 H 0.28027 0.26167 0.18371 0.0
H1972 H 0.32652 0.33183 0.17819 0.0
H1973 H 0.32354 0.33108 0.09958 0.0
C1974 C 0.3052 0.29359 0.0525 0.0
C1975 C 0.29601 0.27259 1.03274 0.0
C1976 C 0.30171 0.29536 0.09629 0.0
C1977 C 0.2812 0.25358 0.05629 0.0
C1978 C 0.27707 0.25528 0.09956 0.0
C1979 C 0.28869 0.27693 0.16519 0.0
C1980 C 0.30408 0.29662 0.18575 0.0
C1981 C 0.28823 0.2759 0.1203 0.0
C1982 C 0.31496 0.31646 0.16235 0.0
C1983 C 0.3135 0.3159 0.11751 0.0
H1984 H 0.6727 0.02653 1.00773 0.0
H1985 H 0.72566 0.01105 0.99904 0.0
H1986 H 0.72917 0.01245 0.07722 0.0
H1987 H 0.72074 0.02318 0.14721 0.0
H1988 H 0.67135 0.04315 0.15504 0.0
H1989 H 0.66278 0.03513 0.07806 0.0
C1990 C 0.6849 0.02334 1.02304 0.0
C1991 C 0.69889 0.01873 0.9977 0.0
C1992 C 0.68753 0.02518 0.0678 0.0
C1993 C 0.71444 0.0143 1.01788 0.0
C1994 C 0.71664 0.01534 0.06256 0.0
C1995 C 0.7078 0.02524 0.13191 0.0
C1996 C 0.69622 0.03325 0.15596 0.0
C1997 C 0.70378 0.02146 0.08767 0.0
C1998 C 0.67982 0.03642 0.13652 0.0
C1999 C 0.67519 0.03207 0.09274 0.0
H2000 H 0.95885 0.63894 1.00172 0.0
H2001 H 0.00862 0.7079 1.0134 0.0
H2002 H 0.00883 0.70432 0.09188 0.0
H2003 H 0.98936 0.68318 0.15661 0.0
H2004 H 0.93295 0.61744 0.14183 0.0
H2005 H 0.94079 0.61755 0.06545 0.0
C2006 C 0.97036 0.65295 1.02136 0.0
C2007 C 0.98428 0.67357 1.00212 0.0
C2008 C 0.96877 0.65117 0.0661 0.0
C2009 C 0.99845 0.6918 1.0279 0.0
C2010 C 0.99821 0.68979 0.0726 0.0
C2011 C 0.97924 0.66874 0.13665 0.0
C2012 C 0.96104 0.64998 0.15469 0.0
C2013 C 0.98267 0.6698 0.09209 0.0
C2014 C 0.94753 0.63158 0.12867 0.0
C2015 C 0.95182 0.63183 0.08495 0.0
H2016 H 0.07085 0.50959 0.94406 0.0
H2017 H 0.08675 0.57249 1.00126 0.0
H2018 H 0.08329 0.5568 0.07307 0.0
H2019 H 0.07512 0.52484 0.12085 0.0
H2020 H 0.05848 0.46189 0.06288 0.0
H2021 H 0.06267 0.47785 0.99133 0.0
C2022 C 0.0734 0.51991 0.9721 0.0
C2023 C 0.0792 0.5424 0.96645 0.0
C2024 C 0.07125 0.5107 1.01381 0.0
C2025 C 0.08267 0.55531 1.00386 0.0
C2026 C 0.08055 0.54627 1.04528 0.0
C2027 C 0.07259 0.51465 0.0926 0.0
C2028 C 0.06646 0.49205 0.09786 0.0
C2029 C 0.07488 0.52397 0.05083 0.0
C2030 C 0.06306 0.47922 0.06041 0.0
C2031 C 0.06548 0.48837 1.01916 0.0
H2032 H 0.4963 0.5474 0.11774 0.0
H2033 H 0.55742 0.59754 0.0598 0.0
H2034 H 0.54078 0.58614 0.98823 0.0
H2035 H 0.50839 0.56263 0.94134 0.0
H2036 H 0.44759 0.51197 0.99952 0.0
H2037 H 0.46449 0.52293 0.07076 0.0
C2038 C 0.50603 0.55589 0.08952 0.0
C2039 C 0.52818 0.57349 0.09473 0.0
C2040 C 0.49632 0.54919 0.048 0.0
C2041 C 0.54042 0.58397 0.05731 0.0
C2042 C 0.53085 0.57747 1.01611 0.0
C2043 C 0.49882 0.55379 0.96945 0.0
C2044 C 0.47644 0.53655 0.9643 0.0
C2045 C 0.50875 0.56016 1.01093 0.0
C2046 C 0.46456 0.52559 1.00181 0.0
C2047 C 0.4743 0.53178 1.04288 0.0
H2048 H 0.43293 0.96053 0.06841 0.0
H2049 H 0.43243 0.90577 0.13508 0.0
H2050 H 0.44641 0.8966 0.07085 0.0
H2051 H 0.45983 0.90445 0.99596 0.0
H2052 H 0.46096 0.95941 0.929 0.0
H2053 H 0.4461 0.96817 0.99271 0.0
C2054 C 0.43573 0.94649 0.06883 0.0
C2055 C 0.43155 0.93391 0.10694 0.0
C2056 C 0.44415 0.94139 1.03158 0.0
C2057 C 0.43551 0.91588 0.10659 0.0
C2058 C 0.44355 0.91058 0.06971 0.0
C2059 C 0.45667 0.91824 0.99504 0.0
C2060 C 0.46168 0.93122 0.95731 0.0
C2061 C 0.44809 0.92327 1.03204 0.0
C2062 C 0.45767 0.94924 0.95746 0.0
C2063 C 0.44899 0.95421 0.99396 0.0
H2064 H 0.52988 0.08348 0.72252 0.0
H2065 H 0.46378 0.04935 0.7768 0.0
H2066 H 0.47943 0.05291 0.84863 0.0
H2067 H 0.51187 0.06562 0.897 0.0
H2068 H 0.578 0.09979 0.84316 0.0
H2069 H 0.56241 0.09642 0.77113 0.0
C2070 C 0.51886 0.07689 0.75002 0.0
C2071 C 0.49556 0.06612 0.74367 0.0
C2072 C 0.52801 0.07899 0.79179 0.0
C2073 C 0.48171 0.05769 0.78013 0.0
C2074 C 0.49068 0.0597 0.82151 0.0
C2075 C 0.52292 0.0722 0.86954 0.0
C2076 C 0.54621 0.08302 0.87605 0.0
C2077 C 0.5138 0.07024 0.82783 0.0
C2078 C 0.56009 0.09166 0.83969 0.0
C2079 C 0.55115 0.08964 0.79823 0.0
H2080 H 0.94057 0.44832 0.72778 0.0
H2081 H 0.9558 0.4015 0.78812 0.0
H2082 H 0.94965 0.41275 0.85907 0.0
H2083 H 0.9404 0.43627 0.9046 0.0
H2084 H 0.92541 0.48322 0.84396 0.0
H2085 H 0.93149 0.4719 0.77321 0.0
C2086 C 0.94251 0.4405 0.75637 0.0
C2087 C 0.94866 0.42401 0.75219 0.0
C2088 C 0.93918 0.44726 0.79739 0.0
C2089 C 0.95115 0.41424 0.78998 0.0
C2090 C 0.94762 0.42069 0.83075 0.0
C2091 C 0.93824 0.44393 0.87598 0.0
C2092 C 0.93243 0.4607 0.88022 0.0
C2093 C 0.94167 0.43722 0.83495 0.0
C2094 C 0.93016 0.47056 0.8423 0.0
C2095 C 0.93347 0.46395 0.80155 0.0
H2096 H 0.55941 0.50344 0.90587 0.0
H2097 H 0.5086 0.44151 0.85134 0.0
H2098 H 0.52058 0.45621 0.77889 0.0
H2099 H 0.54571 0.48666 0.72996 0.0
H2100 H 0.59584 0.54887 0.78476 0.0
H2101 H 0.58386 0.53414 0.85714 0.0
C2102 C 0.55076 0.49315 0.87826 0.0
C2103 C 0.53313 0.47117 0.88478 0.0
C2104 C 0.55772 0.50179 0.83618 0.0
C2105 C 0.52246 0.45826 0.84797 0.0
C2106 C 0.52924 0.46673 0.80623 0.0
C2107 C 0.55411 0.49699 0.7577 0.0
C2108 C 0.57183 0.5189 0.75137 0.0
C2109 C 0.54696 0.48843 0.79979 0.0
C2110 C 0.58218 0.53199 0.78812 0.0
C2111 C 0.57533 0.52355 0.82981 0.0
H2112 H 0.95946 0.53503 0.28222 0.0
H2113 H 0.92308 0.47373 0.21085 0.0
H2114 H 0.91848 0.45248 0.2761 0.0
H2115 H 0.92488 0.45076 0.3537 0.0
H2116 H 0.96111 0.51173 0.42588 0.0
H2117 H 0.96577 0.53325 0.3606 0.0
C2118 C 0.95049 0.51702 0.28086 0.0
C2119 C 0.94164 0.50618 0.24109 0.0
C2120 C 0.94793 0.50465 0.31895 0.0
C2121 C 0.93011 0.48275 0.24054 0.0
C2122 C 0.92745 0.47046 0.27806 0.0
C2123 C 0.93367 0.46875 0.35541 0.0
C2124 C 0.94263 0.47941 0.39524 0.0
C2125 C 0.93628 0.48117 0.3175 0.0
C2126 C 0.95426 0.50285 0.39599 0.0
C2127 C 0.95683 0.51527 0.35852 0.0
H2128 H 0.49602 0.43766 0.40702 0.0
H2129 H 0.55597 0.49114 0.35166 0.0
H2130 H 0.5395 0.48093 0.28004 0.0
H2131 H 0.50827 0.45644 0.23174 0.0
H2132 H 0.44854 0.40262 0.28673 0.0
H2133 H 0.46481 0.4131 0.35873 0.0
C2134 C 0.50567 0.44704 0.37941 0.0
C2135 C 0.52741 0.46536 0.38572 0.0
C2136 C 0.4961 0.44091 0.33759 0.0
C2137 C 0.53918 0.47728 0.34881 0.0
C2138 C 0.52979 0.47131 0.30739 0.0
C2139 C 0.49878 0.44691 0.2594 0.0
C2140 C 0.47707 0.42863 0.25322 0.0
C2141 C 0.50828 0.45312 0.30122 0.0
C2142 C 0.46516 0.41678 0.28996 0.0
C2143 C 0.47452 0.42276 0.33141 0.0
H2144 H 0.56153 0.07923 0.22287 0.0
H2145 H 0.60523 0.05809 0.27744 0.0
H2146 H 0.59464 0.06284 0.34988 0.0
H2147 H 0.57217 0.07198 0.39854 0.0
H2148 H 0.52885 0.09367 0.34417 0.0
H2149 H 0.5398 0.08939 0.27178 0.0
C2150 C 0.56887 0.07579 0.25056 0.0
C2151 C 0.58416 0.06821 0.24421 0.0
C2152 C 0.56256 0.07843 0.29263 0.0
C2153 C 0.59331 0.06377 0.28087 0.0
C2154 C 0.58727 0.06651 0.32257 0.0
C2155 C 0.56524 0.07603 0.37101 0.0
C2156 C 0.54947 0.08303 0.37755 0.0
C2157 C 0.57178 0.07369 0.32897 0.0
C2158 C 0.54063 0.08783 0.3408 0.0
C2159 C 0.54704 0.08556 0.29909 0.0
H2160 H 0.53722 0.96232 0.56936 0.0
H2161 H 0.48263 0.90732 0.6348 0.0
H2162 H 0.45967 0.89864 0.57056 0.0
H2163 H 0.45433 0.90674 0.496 0.0
H2164 H 0.50829 0.9617 0.42955 0.0
H2165 H 0.53181 0.97033 0.49356 0.0
C2166 C 0.52035 0.94837 0.56949 0.0
C2167 C 0.51182 0.93556 0.60731 0.0
C2168 C 0.50689 0.94347 0.53211 0.0
C2169 C 0.48979 0.91762 0.60659 0.0
C2170 C 0.47654 0.91257 0.56968 0.0
C2171 C 0.47129 0.9205 0.49522 0.0
C2172 C 0.47936 0.93349 0.45758 0.0
C2173 C 0.48482 0.92541 0.53228 0.0
C2174 C 0.50137 0.9515 0.45796 0.0
C2175 C 0.51496 0.95639 0.49461 0.0
H2176 H 0.06029 0.56163 0.44573 0.0
H2177 H 0.08638 0.52256 0.50253 0.0
H2178 H 0.08249 0.53462 0.57417 0.0
H2179 H 0.07208 0.55666 0.62193 0.0
H2180 H 0.04599 0.59572 0.56528 0.0
H2181 H 0.04978 0.58358 0.49345 0.0
C2182 C 0.06532 0.55582 0.47362 0.0
C2183 C 0.07359 0.54097 0.46782 0.0
C2184 C 0.06313 0.56297 0.51538 0.0
C2185 C 0.07961 0.5336 0.50516 0.0
C2186 C 0.07755 0.54067 0.54651 0.0
C2187 C 0.06732 0.56265 0.59392 0.0
C2188 C 0.0588 0.57728 0.59964 0.0
C2189 C 0.06938 0.55541 0.55218 0.0
C2190 C 0.05254 0.58449 0.56248 0.0
C2191 C 0.05474 0.57754 0.52109 0.0
H2192 H 0.43951 0.50904 0.44231 0.0
H2193 H 0.50254 0.55947 0.494 0.0
H2194 H 0.49043 0.54478 0.56643 0.0
H2195 H 0.46198 0.51709 0.6161 0.0
H2196 H 0.39998 0.46554 0.56329 0.0
H2197 H 0.41165 0.48105 0.49116 0.0
C2198 C 0.45077 0.51679 0.4692 0.0
C2199 C 0.47198 0.53561 0.46194 0.0
C2200 C 0.44378 0.50805 0.51115 0.0
C2201 C 0.48599 0.54533 0.49798 0.0
C2202 C 0.4791 0.53683 0.53971 0.0
C2203 C 0.45092 0.50944 0.58886 0.0
C2204 C 0.42997 0.49025 0.59543 0.0
C2205 C 0.45799 0.51823 0.54686 0.0
C2206 C 0.41614 0.48031 0.55942 0.0
C2207 C 0.42283 0.48918 0.518 0.0
H2208 H 0.74775 0.88131 0.32138 0.0
H2209 H 0.71282 0.82034 0.24871 0.0
H2210 H 0.70801 0.79884 0.31398 0.0
H2211 H 0.71353 0.79699 0.39259 0.0
H2212 H 0.748 0.85817 0.46493 0.0
H2213 H 0.75283 0.87949 0.39966 0.0
C2214 C 0.73888 0.86332 0.3197 0.0
C2215 C 0.73082 0.85268 0.27948 0.0
C2216 C 0.73606 0.85087 0.35772 0.0
C2217 C 0.71962 0.82923 0.2786 0.0
C2218 C 0.71672 0.81681 0.31619 0.0
C2219 C 0.72217 0.81498 0.39415 0.0
C2220 C 0.73046 0.82576 0.43419 0.0
C2221 C 0.72492 0.8274 0.35604 0.0
C2222 C 0.74151 0.84918 0.435 0.0
C2223 C 0.74427 0.86152 0.39747 0.0
H2224 H 0.1309 0.85904 0.32005 0.0
H2225 H 0.18406 0.90609 0.23906 0.0
H2226 H 0.20797 0.92208 0.30222 0.0
H2227 H 0.21377 0.9236 0.38178 0.0
H2228 H 0.16004 0.87627 0.46168 0.0
H2229 H 0.13685 0.85991 0.3984 0.0
C2230 C 0.14766 0.87288 0.31604 0.0
C2231 C 0.15542 0.88121 0.27424 0.0
C2232 C 0.16145 0.88215 0.35278 0.0
C2233 C 0.17747 0.89899 0.27034 0.0
C2234 C 0.19122 0.9083 0.30669 0.0
C2235 C 0.19703 0.90966 0.38536 0.0
C2236 C 0.18882 0.90148 0.42708 0.0
C2237 C 0.18342 0.90012 0.34827 0.0
C2238 C 0.16697 0.88331 0.43051 0.0
C2239 C 0.15356 0.87379 0.39409 0.0
H2240 H 0.15317 0.27282 0.32422 0.0
H2241 H 0.11014 0.28696 0.2462 0.0
H2242 H 0.09305 0.29167 0.31089 0.0
H2243 H 0.08941 0.29112 0.39061 0.0
H2244 H 0.1316 0.27559 0.46797 0.0
H2245 H 0.1494 0.27196 0.40329 0.0
C2246 C 0.13993 0.27673 0.32109 0.0
C2247 C 0.13328 0.27962 0.27959 0.0
C2248 C 0.12976 0.27914 0.3588 0.0
C2249 C 0.11618 0.28503 0.27714 0.0
C2250 C 0.10615 0.28757 0.31438 0.0
C2251 C 0.1025 0.28694 0.39334 0.0
C2252 C 0.10886 0.28344 0.43457 0.0
C2253 C 0.11273 0.28464 0.35552 0.0
C2254 C 0.12596 0.27808 0.43702 0.0
C2255 C 0.1363 0.27606 0.39984 0.0
H2256 H 0.2053 0.39131 0.18931 0.0
H2257 H 0.1585 0.40052 0.26559 0.0
H2258 H 0.13537 0.39426 0.20198 0.0
H2259 H 0.12851 0.38707 0.12286 0.0
H2260 H 0.17689 0.38002 0.04735 0.0
H2261 H 0.19875 0.38444 0.11153 0.0
C2262 C 0.19016 0.39216 0.19228 0.0
C2263 C 0.18394 0.39639 0.23309 0.0
C2264 C 0.17689 0.38881 0.1551 0.0
C2265 C 0.16386 0.39696 0.23537 0.0
C2266 C 0.15055 0.39351 0.19864 0.0
C2267 C 0.14373 0.38633 0.1205 0.0
C2268 C 0.15074 0.38303 0.07969 0.0
C2269 C 0.15685 0.38945 0.1581 0.0
C2270 C 0.1708 0.38247 0.0778 0.0
C2271 C 0.1835 0.38507 0.11475 0.0
H2272 H 0.60746 0.78715 0.06041 0.0
H2273 H 0.62845 0.74325 0.114 0.0
H2274 H 0.6251 0.75485 0.18677 0.0
H2275 H 0.61624 0.77764 0.23601 0.0
H2276 H 0.59512 0.82133 0.18158 0.0
H2277 H 0.59878 0.80989 0.10929 0.0
C2278 C 0.61128 0.78003 0.08791 0.0
C2279 C 0.6182 0.76421 0.08113 0.0
C2280 C 0.60942 0.78689 0.13004 0.0
C2281 C 0.62317 0.75544 0.11768 0.0
C2282 C 0.62121 0.76208 0.15956 0.0
C2283 C 0.61228 0.78461 0.20846 0.0
C2284 C 0.60548 0.80058 0.2151 0.0
C2285 C 0.61433 0.77781 0.16628 0.0
C2286 C 0.60077 0.80942 0.17828 0.0
C2287 C 0.60269 0.80271 0.13657 0.0
H2288 H 0.22865 0.84341 0.23663 0.0
H2289 H 0.18535 0.77845 0.18247 0.0
H2290 H 0.1979 0.79311 0.11027 0.0
H2291 H 0.22165 0.8245 0.06115 0.0
H2292 H 0.26548 0.88899 0.11644 0.0
H2293 H 0.25274 0.87424 0.1884 0.0
C2294 C 0.22206 0.83224 0.20932 0.0
C2295 C 0.20582 0.80965 0.21609 0.0
C2296 C 0.22966 0.84072 0.16734 0.0
C2297 C 0.19744 0.79593 0.17924 0.0
C2298 C 0.20483 0.80429 0.13752 0.0
C2299 C 0.22857 0.8353 0.08892 0.0
C2300 C 0.24465 0.85797 0.08269 0.0
C2301 C 0.22101 0.82667 0.13098 0.0
C2302 C 0.2531 0.87157 0.11956 0.0
C2303 C 0.24579 0.86312 0.16108 0.0
H2304 H 0.6053 0.83459 0.73884 0.0
H2305 H 0.59163 0.77208 0.68309 0.0
H2306 H 0.59567 0.78754 0.61088 0.0
H2307 H 0.60328 0.819 0.56257 0.0
H2308 H 0.6175 0.88163 0.6187 0.0
H2309 H 0.61301 0.866 0.69073 0.0
C2310 C 0.60334 0.82433 0.71099 0.0
C2311 C 0.59802 0.80202 0.71704 0.0
C2312 C 0.60569 0.83338 0.66909 0.0
C2313 C 0.59535 0.78913 0.68 0.0
C2314 C 0.59776 0.79802 0.63842 0.0
C2315 C 0.60528 0.82922 0.59051 0.0
C2316 C 0.61075 0.85158 0.58467 0.0
C2317 C 0.60285 0.82012 0.63242 0.0
C2318 C 0.61341 0.86446 0.62169 0.0
C2319 C 0.61083 0.8555 0.66318 0.0
H2320 H 0.1781 0.79697 0.56286 0.0
H2321 H 0.12417 0.73775 0.61896 0.0
H2322 H 0.1415 0.74914 0.68997 0.0
H2323 H 0.17248 0.77555 0.73684 0.0
H2324 H 0.22574 0.83546 0.68104 0.0
H2325 H 0.20832 0.82414 0.61031 0.0
C2326 C 0.17009 0.78651 0.59057 0.0
C2327 C 0.14971 0.76639 0.58496 0.0
C2328 C 0.18016 0.79328 0.63189 0.0
C2329 C 0.1397 0.75332 0.62177 0.0
C2330 C 0.14969 0.75983 0.66265 0.0
C2331 C 0.18029 0.78632 0.70945 0.0
C2332 C 0.20081 0.80637 0.71515 0.0
C2333 C 0.16998 0.77976 0.66826 0.0
C2334 C 0.21038 0.81974 0.67837 0.0
C2335 C 0.20029 0.81332 0.63757 0.0
H2336 H 0.21591 0.3966 0.56005 0.0
H2337 H 0.25895 0.37466 0.61467 0.0
H2338 H 0.24705 0.37785 0.68703 0.0
H2339 H 0.2248 0.38736 0.73571 0.0
H2340 H 0.18099 0.40833 0.68101 0.0
H2341 H 0.19292 0.40521 0.60875 0.0
C2342 C 0.2228 0.3926 0.58773 0.0
C2343 C 0.23848 0.38548 0.58139 0.0
C2344 C 0.21574 0.39434 0.62973 0.0
C2345 C 0.24689 0.38016 0.61806 0.0
C2346 C 0.24008 0.382 0.65971 0.0
C2347 C 0.21764 0.39107 0.7081 0.0
C2348 C 0.20203 0.39831 0.71459 0.0
C2349 C 0.22451 0.38908 0.66608 0.0
C2350 C 0.19331 0.40319 0.67776 0.0
C2351 C 0.20005 0.40126 0.63609 0.0
H2352 H 0.13434 0.27785 0.82118 0.0
H2353 H 0.18458 0.27654 0.74136 0.0
H2354 H 0.20887 0.28493 0.80399 0.0
H2355 H 0.21584 0.29185 0.88307 0.0
H2356 H 0.16485 0.29268 0.96147 0.0
H2357 H 0.14164 0.28597 0.89839 0.0
C2358 C 0.15069 0.27966 0.81711 0.0
C2359 C 0.15727 0.27632 0.77599 0.0
C2360 C 0.16475 0.28455 0.85352 0.0
C2361 C 0.1786 0.27852 0.77232 0.0
C2362 C 0.1927 0.28351 0.8083 0.0
C2363 C 0.19975 0.29076 0.88627 0.0
C2364 C 0.19233 0.29284 0.92755 0.0
C2365 C 0.18595 0.28642 0.84933 0.0
C2366 C 0.17121 0.29112 0.9306 0.0
C2367 C 0.15776 0.28723 0.89431 0.0
H2368 H 0.72786 0.88102 0.94945 0.0
H2369 H 0.71697 0.93092 0.88988 0.0
H2370 H 0.72268 0.91942 0.81877 0.0
H2371 H 0.73111 0.89531 0.77273 0.0
H2372 H 0.74202 0.84549 0.8329 0.0
H2373 H 0.73557 0.85654 0.9035 0.0
C2374 C 0.7268 0.88948 0.92099 0.0
C2375 C 0.7221 0.90702 0.92557 0.0
C2376 C 0.72997 0.88265 0.87978 0.0
C2377 C 0.72053 0.91742 0.88784 0.0
C2378 C 0.72384 0.91084 0.84693 0.0
C2379 C 0.73227 0.88692 0.80119 0.0
C2380 C 0.73709 0.86942 0.79663 0.0
C2381 C 0.72867 0.89351 0.84237 0.0
C2382 C 0.73805 0.85871 0.83452 0.0
C2383 C 0.73453 0.86517 0.87531 0.0
H2384 H 0.12461 0.85124 0.94792 0.0
H2385 H 0.07595 0.78871 0.89203 0.0
H2386 H 0.08903 0.8035 0.81983 0.0
H2387 H 0.11424 0.83438 0.77185 0.0
H2388 H 0.16388 0.89637 0.82833 0.0
H2389 H 0.15052 0.88165 0.90018 0.0
C2390 C 0.11677 0.84085 0.91998 0.0
C2391 C 0.09918 0.81883 0.92581 0.0
C2392 C 0.12461 0.84941 0.87825 0.0
C2393 C 0.0895 0.80566 0.8889 0.0
C2394 C 0.097 0.81414 0.84741 0.0
C2395 C 0.12232 0.84467 0.79977 0.0
C2396 C 0.14003 0.8667 0.79393 0.0
C2397 C 0.1146 0.836 0.84156 0.0
C2398 C 0.14997 0.87961 0.83111 0.0
C2399 C 0.14239 0.87113 0.87253 0.0
H2400 H 0.38394 0.13352 0.72463 0.0
H2401 H 0.42351 0.19224 0.80148 0.0
H2402 H 0.43083 0.21558 0.73841 0.0
H2403 H 0.42613 0.21992 0.66111 0.0
H2404 H 0.3865 0.16164 0.58348 0.0
H2405 H 0.37939 0.13795 0.64645 0.0
C2406 C 0.39425 0.15141 0.7276 0.0
C2407 C 0.40308 0.1609 0.76831 0.0
C2408 C 0.39847 0.16503 0.69074 0.0
C2409 C 0.41638 0.18422 0.77102 0.0
C2410 C 0.42061 0.19772 0.73476 0.0
C2411 C 0.41576 0.20205 0.65788 0.0
C2412 C 0.40695 0.19277 0.61711 0.0
C2413 C 0.41167 0.18839 0.69445 0.0
C2414 C 0.39383 0.16944 0.614 0.0
C2415 C 0.38963 0.15579 0.65021 0.0
H2416 H 0.82319 0.2181 0.78522 0.0
H2417 H 0.88512 0.2682 0.72989 0.0
H2418 H 0.86914 0.25777 0.65769 0.0
H2419 H 0.83761 0.23429 0.60943 0.0
H2420 H 0.77601 0.18332 0.66452 0.0
H2421 H 0.7917 0.1943 0.73669 0.0
C2422 C 0.83316 0.22687 0.75741 0.0
C2423 C 0.85542 0.24402 0.76342 0.0
C2424 C 0.82388 0.22058 0.71548 0.0
C2425 C 0.86804 0.2549 0.72663 0.0
C2426 C 0.85887 0.24893 0.68511 0.0
C2427 C 0.82759 0.22539 0.63706 0.0
C2428 C 0.80542 0.20797 0.63077 0.0
C2429 C 0.83684 0.2317 0.67899 0.0
C2430 C 0.79288 0.19702 0.66768 0.0
C2431 C 0.80193 0.20322 0.70928 0.0
H2432 H 0.80088 0.57995 0.66553 0.0
H2433 H 0.77149 0.60935 0.58575 0.0
H2434 H 0.75597 0.61729 0.64957 0.0
H2435 H 0.75061 0.61592 0.72884 0.0
H2436 H 0.78022 0.58624 0.80758 0.0
H2437 H 0.79574 0.57871 0.74392 0.0
C2438 C 0.79128 0.5883 0.66201 0.0
C2439 C 0.78743 0.59397 0.62054 0.0
C2440 C 0.7823 0.5928 0.69897 0.0
C2441 C 0.77458 0.60449 0.61699 0.0
C2442 C 0.76574 0.60916 0.65361 0.0
C2443 C 0.76043 0.60779 0.73208 0.0
C2444 C 0.76406 0.60165 0.77335 0.0
C2445 C 0.76941 0.60333 0.69489 0.0
C2446 C 0.77688 0.59108 0.77654 0.0
C2447 C 0.7859 0.58678 0.73999 0.0
H2448 H 0.89352 0.7579 0.51215 0.0
H2449 H 0.83448 0.72679 0.5909 0.0
H2450 H 0.81122 0.7196 0.52703 0.0
H2451 H 0.80739 0.72176 0.44808 0.0
H2452 H 0.86674 0.75296 0.36988 0.0
H2453 H 0.88976 0.76028 0.43374 0.0
C2454 C 0.87556 0.74939 0.5154 0.0
C2455 C 0.86591 0.74298 0.55665 0.0
C2456 C 0.86217 0.7453 0.47836 0.0
C2457 C 0.84253 0.73223 0.55989 0.0
C2458 C 0.82914 0.72799 0.52322 0.0
C2459 C 0.82536 0.73024 0.44496 0.0
C2460 C 0.83514 0.73675 0.40378 0.0
C2461 C 0.83873 0.73447 0.48218 0.0
C2462 C 0.85854 0.74771 0.4008 0.0
C2463 C 0.87184 0.75191 0.43748 0.0
H2464 H 0.26473 0.11555 0.37837 0.0
H2465 H 0.27292 0.06399 0.43804 0.0
H2466 H 0.26801 0.07599 0.50911 0.0
H2467 H 0.26201 0.10154 0.55512 0.0
H2468 H 0.255 0.15393 0.49588 0.0
H2469 H 0.25865 0.14117 0.42467 0.0
C2470 C 0.26518 0.10678 0.40689 0.0
C2471 C 0.26914 0.08879 0.40253 0.0
C2472 C 0.26265 0.11401 0.44813 0.0
C2473 C 0.26998 0.07789 0.44013 0.0
C2474 C 0.26718 0.08478 0.48097 0.0
C2475 C 0.26144 0.11033 0.52674 0.0
C2476 C 0.25812 0.12873 0.53145 0.0
C2477 C 0.26372 0.10296 0.48551 0.0
C2478 C 0.25717 0.13955 0.49377 0.0
C2479 C 0.25938 0.13231 0.45279 0.0
H2480 H 0.875 0.11668 0.52124 0.0
H2481 H 0.88832 0.17617 0.5898 0.0
H2482 H 0.90451 0.19821 0.52491 0.0
H2483 H 0.91499 0.20094 0.44797 0.0
H2484 H 0.90117 0.14132 0.37926 0.0
H2485 H 0.88555 0.1194 0.44447 0.0
C2486 C 0.88158 0.13449 0.52221 0.0
C2487 C 0.88023 0.14455 0.56089 0.0
C2488 C 0.89095 0.14724 0.48442 0.0
C2489 C 0.88868 0.16771 0.56075 0.0
C2490 C 0.89815 0.18045 0.52353 0.0
C2491 C 0.90871 0.18317 0.44721 0.0
C2492 C 0.90946 0.17296 0.40827 0.0
C2493 C 0.89938 0.17044 0.48506 0.0
C2494 C 0.90094 0.14981 0.40836 0.0
C2495 C 0.89192 0.13717 0.44583 0.0
H2496 H 0.26479 0.14318 0.87813 0.0
H2497 H 0.26406 0.19932 0.93601 0.0
H2498 H 0.25933 0.18272 1.00712 0.0
H2499 H 0.25619 0.15269 0.05392 0.0
H2500 H 0.25799 0.09685 0.99723 0.0
H2501 H 0.26125 0.11266 0.92555 0.0
C2502 C 0.26326 0.1516 0.90624 0.0
C2503 C 0.26475 0.17254 0.90136 0.0
C2504 C 0.26082 0.14202 0.9477 0.0
C2505 C 0.26309 0.1833 0.93849 0.0
C2506 C 0.26038 0.17379 0.97939 0.0
C2507 C 0.25746 0.14398 1.02603 0.0
C2508 C 0.25678 0.12344 1.03162 0.0
C2509 C 0.25948 0.15328 0.98457 0.0
C2510 C 0.25812 0.11245 0.99446 0.0
C2511 C 0.2601 0.12158 0.95319 0.0
H2512 H 0.83444 0.10041 0.06753 0.0
H2513 H 0.8931 0.15409 1.00885 0.0
H2514 H 0.87592 0.14281 0.93808 0.0
H2515 H 0.84469 0.11751 0.89183 0.0
H2516 H 0.78525 0.06442 0.94898 0.0
H2517 H 0.80216 0.0757 1.0207 0.0
C2518 C 0.84345 0.10979 1.03939 0.0
C2519 C 0.86538 0.12802 1.04419 0.0
C2520 C 0.8333 0.10326 0.99811 0.0
C2521 C 0.87656 0.13973 1.00674 0.0
C2522 C 0.86665 0.13336 0.96597 0.0
C2523 C 0.83533 0.10836 0.91988 0.0
C2524 C 0.81362 0.09003 0.91456 0.0
C2525 C 0.84513 0.11506 0.96114 0.0
C2526 C 0.80188 0.0786 0.95173 0.0
C2527 C 0.81162 0.08505 0.9929 0.0
H2528 H 0.92291 0.71475 0.94515 0.0
H2529 H 0.89506 0.7473 0.86969 0.0
H2530 H 0.87892 0.75336 0.93377 0.0
H2531 H 0.87266 0.75014 1.01159 0.0
H2532 H 0.89998 0.71788 0.08885 0.0
H2533 H 0.91627 0.7113 1.02449 0.0
C2534 C 0.91335 0.72319 0.94275 0.0
C2535 C 0.91043 0.73056 0.90213 0.0
C2536 C 0.90392 0.72681 0.98036 0.0
C2537 C 0.8979 0.74149 0.9001 0.0
C2538 C 0.88849 0.74496 0.93694 0.0
C2539 C 0.88195 0.74143 1.01446 0.0
C2540 C 0.88496 0.73455 0.05537 0.0
C2541 C 0.89136 0.73773 0.97725 0.0
C2542 C 0.89749 0.72364 0.05807 0.0
C2543 C 0.90678 0.71977 1.0211 0.0
H2544 H 0.86634 0.62112 0.23502 0.0
H2545 H 0.80892 0.57053 0.30243 0.0
H2546 H 0.78621 0.56335 0.23822 0.0
H2547 H 0.78195 0.57157 0.16308 0.0
H2548 H 0.83886 0.62206 0.09461 0.0
H2549 H 0.86205 0.62918 0.15865 0.0
C2550 C 0.8489 0.60843 0.23561 0.0
C2551 C 0.83953 0.59643 0.27398 0.0
C2552 C 0.83562 0.60441 0.19822 0.0
C2553 C 0.81677 0.58016 0.27379 0.0
C2554 C 0.80365 0.57598 0.2369 0.0
C2555 C 0.79947 0.58401 0.16187 0.0
C2556 C 0.80846 0.59621 0.12361 0.0
C2557 C 0.81281 0.58803 0.19895 0.0
C2558 C 0.83122 0.61254 0.12345 0.0
C2559 C 0.84461 0.61655 0.16014 0.0
H2560 H 0.43139 0.21196 0.15939 0.0
H2561 H 0.37621 0.21013 0.09134 0.0
H2562 H 0.36747 0.22548 0.15435 0.0
H2563 H 0.37527 0.23946 0.22987 0.0
H2564 H 0.43038 0.24076 0.29732 0.0
H2565 H 0.43935 0.22611 0.23389 0.0
C2566 C 0.41755 0.21506 0.15801 0.0
C2567 C 0.40453 0.20969 0.12009 0.0
C2568 C 0.41255 0.22399 0.19464 0.0
C2569 C 0.38644 0.21366 0.11986 0.0
C2570 C 0.38148 0.22264 0.156 0.0
C2571 C 0.38935 0.23672 0.23063 0.0
C2572 C 0.40209 0.24138 0.26884 0.0
C2573 C 0.39438 0.22789 0.19373 0.0
C2574 C 0.42014 0.23739 0.26883 0.0
C2575 C 0.42534 0.22894 0.23236 0.0
H2576 H 0.78251 0.17274 0.10904 0.0
H2577 H 0.82243 0.23779 0.16532 0.0
H2578 H 0.8102 0.22221 0.23718 0.0
H2579 H 0.78813 0.18999 0.28499 0.0
H2580 H 0.7483 0.125 0.22832 0.0
H2581 H 0.76062 0.14058 0.15667 0.0
C2582 C 0.78872 0.18354 0.13696 0.0
C2583 C 0.80339 0.20656 0.13116 0.0
C2584 C 0.78159 0.17443 0.17863 0.0
C2585 C 0.81091 0.22013 0.1682 0.0
C2586 C 0.80399 0.21118 0.20959 0.0
C2587 C 0.78206 0.17922 0.25701 0.0
C2588 C 0.76729 0.15621 0.26263 0.0
C2589 C 0.78925 0.18835 0.21532 0.0
C2590 C 0.75979 0.14266 0.22557 0.0
C2591 C 0.76681 0.15161 0.18427 0.0
H2592 H 0.05001 0.44724 0.38581 0.0
H2593 H 0.99009 0.40593 0.31375 0.0
H2594 H 0.96876 0.3934 0.38063 0.0
H2595 H 0.96661 0.39526 0.46049 0.0
H2596 H 0.02729 0.43373 0.53249 0.0
H2597 H 0.04853 0.44613 0.46564 0.0
C2598 C 0.03233 0.43537 0.38476 0.0
C2599 C 0.02176 0.42768 0.34448 0.0
C2600 C 0.02014 0.42771 0.42371 0.0
C2601 C 0.9988 0.41208 0.34406 0.0
C2602 C 0.9865 0.40496 0.38245 0.0
C2603 C 0.9845 0.40617 0.46152 0.0
C2604 C 0.99523 0.41351 0.50181 0.0
C2605 C 0.9969 0.4128 0.42259 0.0
C2606 C 0.01851 0.42759 0.50223 0.0
C2607 C 0.03073 0.43482 0.46385 0.0
H2608 H 0.58613 0.59745 0.51059 0.0
H2609 H 0.61354 0.55683 0.46912 0.0
H2610 H 0.61092 0.56573 0.39389 0.0
H2611 H 0.59845 0.58301 0.33874 0.0
H2612 H 0.56707 0.62008 0.37968 0.0
H2613 H 0.57375 0.61492 0.45519 0.0
C2614 C 0.59191 0.59089 0.48512 0.0
C2615 C 0.60035 0.57669 0.49591 0.0
C2616 C 0.58953 0.59542 0.44135 0.0
C2617 C 0.60715 0.5679 0.4621 0.0
C2618 C 0.6056 0.57296 0.41887 0.0
C2619 C 0.59349 0.59036 0.36416 0.0
C2620 C 0.5826 0.60231 0.35315 0.0
C2621 C 0.59653 0.58646 0.40791 0.0
C2622 C 0.57569 0.61105 0.38688 0.0
C2623 C 0.57943 0.608 0.43025 0.0
H2624 H 0.43099 0.01599 0.33113 0.0
H2625 H 0.39186 0.94973 0.38164 0.0
H2626 H 0.39766 0.96451 0.45499 0.0
H2627 H 0.41629 0.99608 0.50613 0.0
H2628 H 0.45793 0.06208 0.45628 0.0
H2629 H 0.4489 0.04783 0.38253 0.0
C2630 C 0.42335 0.00485 0.35814 0.0
C2631 C 0.41066 0.98169 0.35045 0.0
C2632 C 0.42752 0.01348 0.40089 0.0
C2633 C 0.40149 0.96757 0.38625 0.0
C2634 C 0.4049 0.97604 0.42842 0.0
C2635 C 0.42311 0.00742 0.47916 0.0
C2636 C 0.43786 0.03025 0.48724 0.0
C2637 C 0.41823 0.99894 0.43638 0.0
C2638 C 0.44676 0.04448 0.45147 0.0
C2639 C 0.44151 0.0363 0.40904 0.0
H2640 H 0.01255 0.58979 1.01405 0.0
H2641 H 0.94527 0.55899 0.96635 0.0
H2642 H 0.95905 0.56907 0.89252 0.0
H2643 H 0.99029 0.58443 0.84009 0.0
H2644 H 0.05737 0.61129 0.88716 0.0
H2645 H 0.04386 0.6052 0.9615 0.0
C2646 C 1.00093 0.58569 0.98756 0.0
C2647 C 0.97781 0.57398 0.99618 0.0
C2648 C 0.00904 0.59074 0.94454 0.0
C2649 C 0.96309 0.56821 0.96102 0.0
C2650 C 0.971 0.57391 0.91859 0.0
C2651 C 1.002 0.58932 0.86662 0.0
C2652 C 0.02496 0.59866 0.8576 0.0
C2653 C 0.99395 0.5849 0.90971 0.0
C2654 C 0.03969 0.60426 0.89275 0.0
C2655 C 0.03193 0.60071 0.93549 0.0
H2656 H 0.40442 0.44797 0.8807 0.0
H2657 H 0.41543 0.40049 0.81146 0.0
H2658 H 0.4242 0.38832 0.87905 0.0
H2659 H 0.43034 0.39222 0.9588 0.0
H2660 H 0.41564 0.43737 1.02751 0.0
H2661 H 0.40691 0.44927 0.96 0.0
C2662 C 0.40848 0.43477 0.88039 0.0
C2663 C 0.40925 0.42524 0.84072 0.0
C2664 C 0.41306 0.42747 0.91967 0.0
C2665 C 0.41448 0.40806 0.84131 0.0
C2666 C 0.41967 0.40117 0.88009 0.0
C2667 C 0.42508 0.40453 0.95892 0.0
C2668 C 0.42372 0.41387 0.99848 0.0
C2669 C 0.41929 0.4109 0.91959 0.0
C2670 C 0.41671 0.42973 0.99782 0.0
C2671 C 0.41175 0.43665 0.95907 0.0
H2672 H 0.58951 0.99294 1.00908 0.0
H2673 H 0.61195 0.05867 0.95925 0.0
H2674 H 0.60618 0.04437 0.88559 0.0
H2675 H 0.59221 0.01269 0.83443 0.0
H2676 H 0.56603 0.94644 0.88425 0.0
H2677 H 0.57593 0.96122 0.95766 0.0
C2678 C 0.59349 0.0042 0.9821 0.0
C2679 C 0.60142 0.02701 0.99016 0.0
C2680 C 0.58932 0.99564 0.93931 0.0
C2681 C 0.60594 0.04112 0.95442 0.0
C2682 C 0.60259 0.03291 0.91206 0.0
C2683 C 0.58904 0.00154 0.8613 0.0
C2684 C 0.5786 0.97842 0.85349 0.0
C2685 C 0.59396 0.01015 0.90395 0.0
C2686 C 0.57414 0.96425 0.88905 0.0
C2687 C 0.57975 0.97273 0.93121 0.0
H2688 H 0.65277 0.71852 0.81024 0.0
H2689 H 0.6538 0.78074 0.82721 0.0
H2690 H 0.67382 0.79453 0.75995 0.0
H2691 H 0.69062 0.78933 0.69514 0.0
H2692 H 0.68688 0.72642 0.67138 0.0
H2693 H 0.66846 0.71258 0.74139 0.0
C2694 C 0.65736 0.73504 0.79909 0.0
C2695 C 0.65167 0.74851 0.82425 0.0
C2696 C 0.66844 0.74283 0.7588 0.0
C2697 C 0.6577 0.76986 0.80881 0.0
C2698 C 0.66928 0.77787 0.77018 0.0
C2699 C 0.68597 0.77263 0.70533 0.0
C2700 C 0.69051 0.75911 0.6781 0.0
C2701 C 0.6747 0.76456 0.74481 0.0
C2702 C 0.68376 0.73729 0.69163 0.0
C2703 C 0.67318 0.72937 0.73178 0.0
H2704 H 0.27946 0.90283 0.79267 0.0
H2705 H 0.2486 0.93508 0.85878 0.0
H2706 H 0.23997 0.9461 0.78989 0.0
H2707 H 0.23929 0.94498 0.70998 0.0
H2708 H 0.27352 0.91621 0.64372 0.0
H2709 H 0.28289 0.90587 0.71263 0.0
C2710 C 0.27107 0.91248 0.79196 0.0
C2711 C 0.26463 0.91799 0.83119 0.0
C2712 C 0.26673 0.91947 0.75186 0.0
C2713 C 0.2539 0.93067 0.82938 0.0
C2714 C 0.24885 0.93693 0.78983 0.0
C2715 C 0.24912 0.93678 0.7106 0.0
C2716 C 0.25562 0.93143 0.67127 0.0
C2717 C 0.25495 0.93125 0.75072 0.0
C2718 C 0.26841 0.9208 0.67313 0.0
C2719 C 0.27365 0.91468 0.71273 0.0
H2720 H 0.07635 0.32163 0.84091 0.0
H2721 H 0.10527 0.38976 0.80029 0.0
H2722 H 0.09863 0.37795 0.72478 0.0
H2723 H 0.08759 0.34834 0.66907 0.0
H2724 H 0.062 0.28065 0.71035 0.0
H2725 H 0.06422 0.29202 0.7855 0.0
C2726 C 0.08076 0.33386 0.81559 0.0
C2727 C 0.09109 0.35663 0.82675 0.0
C2728 C 0.0777 0.32696 0.77173 0.0
C2729 C 0.09718 0.37217 0.79305 0.0
C2730 C 0.09346 0.36539 0.74962 0.0
C2731 C 0.08211 0.33602 0.69444 0.0
C2732 C 0.07445 0.31353 0.68348 0.0
C2733 C 0.08416 0.34284 0.73833 0.0
C2734 C 0.06791 0.29801 0.71733 0.0
C2735 C 0.06922 0.30453 0.7606 0.0
H2736 H 0.71269 0.93954 0.21973 0.0
H2737 H 0.65108 0.91014 0.14842 0.0
H2738 H 0.62995 0.89931 0.21556 0.0
H2739 H 0.62859 0.89697 0.29543 0.0
H2740 H 0.68991 0.93019 0.36724 0.0
H2741 H 0.71124 0.94077 0.30003 0.0
C2742 C 0.69465 0.931 0.21893 0.0
C2743 C 0.68359 0.92573 0.17866 0.0
C2744 C 0.68241 0.92543 0.25814 0.0
C2745 C 0.66015 0.91467 0.17862 0.0
C2746 C 0.64797 0.90833 0.21718 0.0
C2747 C 0.64661 0.90673 0.29635 0.0
C2748 C 0.65755 0.91273 0.33665 0.0
C2749 C 0.65885 0.91346 0.25725 0.0
C2750 C 0.68096 0.92549 0.33692 0.0
C2751 C 0.69322 0.93146 0.29834 0.0
H2752 H 0.12264 0.76831 0.31374 0.0
H2753 H 0.05757 0.71213 0.33684 0.0
H2754 H 0.04534 0.71691 0.26508 0.0
H2755 H 0.05329 0.73795 0.19494 0.0
H2756 H 0.11813 0.79578 0.17745 0.0
H2757 H 0.13025 0.78927 0.24675 0.0
C2758 C 0.10587 0.7568 0.30294 0.0
C2759 C 0.09126 0.73953 0.33066 0.0
C2760 C 0.09884 0.76005 0.26219 0.0
C2761 C 0.0693 0.72544 0.31633 0.0
C2762 C 0.0623 0.7282 0.27514 0.0
C2763 C 0.07006 0.74903 0.20631 0.0
C2764 C 0.08476 0.7674 0.18053 0.0
C2765 C 0.07691 0.74555 0.2476 0.0
C2766 C 0.10637 0.78165 0.19633 0.0
C2767 C 0.11339 0.77792 0.23613 0.0
H2768 H 0.26498 0.35379 0.1663 0.0
H2769 H 0.24379 0.28617 0.20177 0.0
H2770 H 0.25076 0.29696 0.27787 0.0
H2771 H 0.25942 0.3251 0.33569 0.0
H2772 H 0.27724 0.39189 0.29951 0.0
H2773 H 0.27517 0.38209 0.22347 0.0
C2774 C 0.26234 0.3415 0.19059 0.0
C2775 C 0.25401 0.31918 0.17799 0.0
C2776 C 0.26553 0.34769 0.23473 0.0
C2777 C 0.25023 0.30345 0.21029 0.0
C2778 C 0.25414 0.30963 0.25399 0.0
C2779 C 0.26326 0.33761 0.31118 0.0
C2780 C 0.2686 0.35931 0.32379 0.0
C2781 C 0.26129 0.33162 0.26687 0.0
C2782 C 0.2731 0.3751 0.29118 0.0
C2783 C 0.27187 0.36948 0.24744 0.0
H2784 H 0.29388 0.06586 0.11711 0.0
H2785 H 0.35296 0.08758 0.19415 0.0
H2786 H 0.37592 0.09889 0.12922 0.0
H2787 H 0.37964 0.1043 0.04983 0.0
H2788 H 0.32023 0.07868 0.9724 0.0
H2789 H 0.29724 0.06729 1.03735 0.0
C2790 C 0.31175 0.07284 0.11963 0.0
C2791 C 0.3216 0.07591 0.16074 0.0
C2792 C 0.32493 0.07876 0.08177 0.0
C2793 C 0.34482 0.08486 0.16313 0.0
C2794 C 0.35804 0.09148 0.12589 0.0
C2795 C 0.36165 0.096 0.04723 0.0
C2796 C 0.35174 0.09242 1.0061 0.0
C2797 C 0.34836 0.08875 0.08495 0.0
C2798 C 0.32836 0.08151 1.00347 0.0
C2799 C 0.31515 0.07507 1.04072 0.0
H2800 H 0.90115 0.27132 0.05599 0.0
H2801 H 0.92949 0.23957 0.98022 0.0
H2802 H 0.94025 0.22782 1.04576 0.0
H2803 H 0.94054 0.22521 0.1254 0.0
H2804 H 0.9162 0.26051 0.20157 0.0
H2805 H 0.90531 0.27228 0.13602 0.0
C2806 C 0.90986 0.26201 0.05391 0.0
C2807 C 0.91441 0.25631 1.01296 0.0
C2808 C 0.9168 0.2559 0.09213 0.0
C2809 C 0.92586 0.24434 1.01108 0.0
C2810 C 0.93198 0.23751 0.04869 0.0
C2811 C 0.93312 0.23572 0.12764 0.0
C2812 C 0.92924 0.24191 0.16867 0.0
C2813 C 0.92742 0.24302 0.0895 0.0
C2814 C 0.91964 0.25562 0.17065 0.0
C2815 C 0.91323 0.26226 0.13303 0.0
H2816 H 0.73186 0.62573 0.05656 0.0
H2817 H 0.76554 0.68455 0.97822 0.0
H2818 H 0.77819 0.7078 1.04288 0.0
H2819 H 0.78122 0.7116 0.12259 0.0
H2820 H 0.74401 0.65334 0.20099 0.0
H2821 H 0.73118 0.63003 0.13632 0.0
C2822 C 0.74175 0.64365 0.05368 0.0
C2823 C 0.74775 0.65328 1.01225 0.0
C2824 C 0.74843 0.65716 0.09137 0.0
C2825 C 0.76049 0.6766 1.00941 0.0
C2826 C 0.76786 0.68996 0.04655 0.0
C2827 C 0.77008 0.69384 0.12552 0.0
C2828 C 0.7637 0.68435 0.167 0.0
C2829 C 0.76215 0.68047 0.08782 0.0
C2830 C 0.74913 0.66124 0.16978 0.0
C2831 C 0.74185 0.64782 0.13264 0.0
H2832 H 0.37821 0.27237 0.55443 0.0
H2833 H 0.31897 0.23905 0.47638 0.0
H2834 H 0.29583 0.22762 0.54102 0.0
H2835 H 0.29215 0.22564 0.62057 0.0
H2836 H 0.35081 0.26236 0.69882 0.0
H2837 H 0.37412 0.274 0.63415 0.0
C2838 C 0.36023 0.26281 0.55161 0.0
C2839 C 0.35043 0.25657 0.51026 0.0
C2840 C 0.34678 0.25686 0.58929 0.0
C2841 C 0.32705 0.24426 0.5075 0.0
C2842 C 0.31374 0.23761 0.54462 0.0
C2843 C 0.31001 0.23645 0.62346 0.0
C2844 C 0.3196 0.24306 0.66486 0.0
C2845 C 0.32336 0.24363 0.58579 0.0
C2846 C 0.34283 0.25714 0.66763 0.0
C2847 C 0.35625 0.2637 0.6305 0.0
H2848 H 0.74592 0.0887 0.67189 0.0
H2849 H 0.78062 0.05606 0.62394 0.0
H2850 H 0.77259 0.06191 0.54977 0.0
H2851 H 0.75746 0.07828 0.49768 0.0
H2852 H 0.72664 0.11461 0.54607 0.0
H2853 H 0.73115 0.1053 0.62007 0.0
C2854 C 0.75147 0.08258 0.64524 0.0
C2855 C 0.76367 0.07166 0.65386 0.0
C2856 C 0.74748 0.08677 0.60235 0.0
C2857 C 0.77113 0.06438 0.61859 0.0
C2858 C 0.76654 0.06777 0.576 0.0
C2859 C 0.75138 0.08381 0.52442 0.0
C2860 C 0.74133 0.09684 0.51605 0.0
C2861 C 0.75494 0.07917 0.56733 0.0
C2862 C 0.73419 0.1044 0.55134 0.0
C2863 C 0.73686 0.09913 0.5938 0.0
H2864 H 0.91794 0.65577 0.6738 0.0
H2865 H 0.94394 0.72119 0.6196 0.0
H2866 H 0.93771 0.7056 0.54684 0.0
H2867 H 0.92245 0.67294 0.49769 0.0
H2868 H 0.8926 0.60725 0.55208 0.0
H2869 H 0.90288 0.62312 0.62464 0.0
C2870 C 0.92256 0.66666 0.64607 0.0
C2871 C 0.93162 0.68977 0.65257 0.0
C2872 C 0.91813 0.6574 0.60389 0.0
C2873 C 0.937 0.70343 0.61593 0.0
C2874 C 0.93341 0.69447 0.57411 0.0
C2875 C 0.91858 0.66213 0.52539 0.0
C2876 C 0.90704 0.63884 0.51913 0.0
C2877 C 0.92368 0.67143 0.56752 0.0
C2878 C 0.90162 0.62516 0.5557 0.0
C2879 C 0.90744 0.63427 0.59736 0.0
H2880 H 0.99543 0.45993 0.16287 0.0
H2881 H 0.02897 0.50296 0.2706 0.0
H2882 H 0.02489 0.53273 0.23707 0.0
H2883 H 0.0124 0.54636 0.17638 0.0
H2884 H 0.97851 0.50317 0.06902 0.0
H2885 H 0.98333 0.47371 0.10178 0.0
C2886 C 1.00108 0.47559 0.17959 0.0
C2887 C 0.01164 0.47917 0.21978 0.0
C2888 C 0.99975 0.4928 0.15907 0.0
C2889 C 0.02 0.49976 0.24041 0.0
C2890 C 0.01814 0.51684 0.22079 0.0
C2891 C 0.00693 0.53079 0.15943 0.0
C2892 C 0.99589 0.52703 0.11972 0.0
C2893 C 0.0085 0.51366 0.17972 0.0
C2894 C 0.98781 0.50653 0.09883 0.0
C2895 C 0.99006 0.4896 0.11807 0.0
H2896 H 0.54149 0.53626 0.13869 0.0
H2897 H 0.52394 0.53555 0.27223 0.0
H2898 H 0.48955 0.50003 0.2609 0.0
H2899 H 0.46473 0.46981 0.21265 0.0
H2900 H 0.48225 0.47088 0.07897 0.0
H2901 H 0.5166 0.50633 0.09043 0.0
C2902 C 0.53023 0.52823 0.16543 0.0
C2903 C 0.53504 0.5383 0.20624 0.0
C2904 C 0.51053 0.50827 0.1584 0.0
C2905 C 0.52035 0.52795 0.24056 0.0
C2906 C 0.50077 0.50779 0.23403 0.0
C2907 C 0.47598 0.47793 0.18594 0.0
C2908 C 0.47118 0.46796 0.14503 0.0
C2909 C 0.49565 0.49796 0.19298 0.0
C2910 C 0.48583 0.47839 0.11071 0.0
C2911 C 0.50541 0.49851 0.11731 0.0
H2912 H 0.5399 0.99113 0.17111 0.0
H2913 H 0.53465 0.03571 0.08173 0.0
H2914 H 0.50072 0.02996 0.11758 0.0
H2915 H 0.47349 0.01316 0.17567 0.0
H2916 H 0.47825 0.96819 0.26483 0.0
H2917 H 0.51225 0.97391 0.22901 0.0
C2918 C 0.53082 0.99893 0.15865 0.0
C2919 C 0.53916 0.01323 0.12301 0.0
C2920 C 0.51201 0.9963 0.18064 0.0
C2921 C 0.52799 0.02409 0.10823 0.0
C2922 C 0.50892 0.02114 0.12925 0.0
C2923 C 0.48242 0.00522 0.18811 0.0
C2924 C 0.47401 0.99094 0.22374 0.0
C2925 C 0.50113 0.0077 0.16605 0.0
C2926 C 0.48501 0.97986 0.23838 0.0
C2927 C 0.50411 0.98278 0.21737 0.0
H2928 H 0.55056 0.01183 0.67546 0.0
H2929 H 0.49996 0.96985 0.76616 0.0
H2930 H 0.47262 0.97629 0.72819 0.0
H2931 H 0.46324 0.99326 0.66813 0.0
H2932 H 0.51389 0.03493 0.57723 0.0
H2933 H 0.54114 0.02838 0.61515 0.0
C2934 C 0.53372 0.00473 0.68774 0.0
C2935 C 0.52736 0.99111 0.72448 0.0
C2936 C 0.51801 0.00758 0.6645 0.0
C2937 C 0.50529 0.98106 0.7389 0.0
C2938 C 0.48964 0.98436 0.71667 0.0
C2939 C 0.48007 1.00022 0.65582 0.0
C2940 C 0.48652 0.0139 0.61916 0.0
C2941 C 0.49574 0.99722 0.67895 0.0
C2942 C 0.50852 0.02374 0.60454 0.0
C2943 C 0.52413 0.02037 0.62672 0.0
H2944 H 0.96805 0.46331 0.66269 0.0
H2945 H 0.03574 0.47835 0.64395 0.0
H2946 H 0.04936 0.51502 0.67626 0.0
H2947 H 0.04185 0.54087 0.71549 0.0
H2948 H 0.97419 0.5254 0.73805 0.0
H2949 H 0.96045 0.48938 0.7024 0.0
C2950 C 0.98572 0.47461 0.66527 0.0
C2951 C 1.00092 0.46825 0.65092 0.0
C2952 C 0.9933 0.49487 0.68677 0.0
C2953 C 0.02382 0.48323 0.65402 0.0
C2954 C 0.03156 0.50389 0.67341 0.0
C2955 C 0.02408 0.52951 0.71321 0.0
C2956 C 0.00906 0.53575 0.72927 0.0
C2957 C 0.01643 0.50947 0.69126 0.0
C2958 C 0.98608 0.52084 0.72625 0.0
C2959 C 0.97824 0.50048 0.70517 0.0
H2960 H 0.54084 0.54254 0.6921 0.0
H2961 H 0.52356 0.51862 0.56177 0.0
H2962 H 0.48828 0.48719 0.58699 0.0
H2963 H 0.46383 0.46576 0.64682 0.0
H2964 H 0.48141 0.48944 0.77723 0.0
H2965 H 0.51635 0.52123 0.75182 0.0
C2966 C 0.52892 0.53077 0.6692 0.0
C2967 C 0.53417 0.53302 0.62512 0.0
C2968 C 0.50966 0.51221 0.68428 0.0
C2969 C 0.5193 0.51744 0.59561 0.0
C2970 C 0.49952 0.49928 0.61018 0.0
C2971 C 0.47575 0.47756 0.66966 0.0
C2972 C 0.47075 0.47508 0.71386 0.0
C2973 C 0.49493 0.49621 0.65453 0.0
C2974 C 0.48554 0.49077 0.7433 0.0
C2975 C 0.50513 0.50912 0.72865 0.0
H2976 H 0.63616 0.83748 0.48028 0.0
H2977 H 0.70308 0.8925 0.46613 0.0
H2978 H 0.7173 0.87218 0.50765 0.0
H2979 H 0.7102 0.83966 0.55027 0.0
H2980 H 0.64301 0.78524 0.56551 0.0
H2981 H 0.62892 0.8059 0.52524 0.0
C2982 C 0.65388 0.84507 0.48611 0.0
C2983 C 0.66855 0.86654 0.47058 0.0
C2984 C 0.66163 0.83404 0.5122 0.0
C2985 C 0.6915 0.87594 0.4776 0.0
C2986 C 0.69954 0.86455 0.50207 0.0
C2987 C 0.69242 0.83249 0.54549 0.0
C2988 C 0.67766 0.81084 0.56015 0.0
C2989 C 0.68465 0.84388 0.5204 0.0
C2990 C 0.65467 0.80187 0.55449 0.0
C2991 C 0.64668 0.81346 0.53069 0.0
H2992 H 0.20767 0.86805 0.46345 0.0
H2993 H 0.1932 0.86816 0.59859 0.0
H2994 H 0.15823 0.83288 0.58935 0.0
H2995 H 0.13221 0.80253 0.54238 0.0
H2996 H 0.14714 0.8029 0.40732 0.0
H2997 H 0.18161 0.83841 0.41662 0.0
C2998 C 0.19697 0.86028 0.49103 0.0
C2999 C 0.20278 0.87049 0.53165 0.0
C3000 C 0.17696 0.84057 0.48518 0.0
C3001 C 0.18881 0.86046 0.56704 0.0
C3002 C 0.16888 0.84047 0.56167 0.0
C3003 C 0.14288 0.81057 0.51489 0.0
C3004 C 0.1374 0.80033 0.47422 0.0
C3005 C 0.16275 0.83054 0.52077 0.0
C3006 C 0.15126 0.81065 0.43886 0.0
C3007 C 0.17093 0.83076 0.44424 0.0
H3008 H 0.20201 0.32004 0.50459 0.0
H3009 H 0.19259 0.35464 0.39886 0.0
H3010 H 0.16173 0.35472 0.43718 0.0
H3011 H 0.13951 0.34716 0.50269 0.0
H3012 H 0.14866 0.31233 0.6084 0.0
H3013 H 0.17919 0.31176 0.56965 0.0
C3014 C 0.19247 0.32668 0.48925 0.0
C3015 C 0.19893 0.33676 0.4486 0.0
C3016 C 0.17604 0.32809 0.51276 0.0
C3017 C 0.18726 0.34617 0.42953 0.0
C3018 C 0.17016 0.3468 0.45198 0.0
C3019 C 0.14888 0.34031 0.51793 0.0
C3020 C 0.14263 0.33061 0.55895 0.0
C3021 C 0.16506 0.33858 0.49422 0.0
C3022 C 0.15397 0.32073 0.57765 0.0
C3023 C 0.17086 0.3198 0.55495 0.0
H3024 H 0.21038 0.34484 0.96973 0.0
H3025 H 0.19046 0.32488 0.10126 0.0
H3026 H 0.1552 0.32433 0.08759 0.0
H3027 H 0.13069 0.32936 1.03815 0.0
H3028 H 0.15102 0.34972 0.90689 0.0
H3029 H 0.18579 0.34947 0.92017 0.0
C3030 C 0.19841 0.34049 0.99562 0.0
C3031 C 0.20271 0.33472 1.03645 0.0
C3032 C 0.17835 0.33982 0.98723 0.0
C3033 C 0.18714 0.32905 0.06954 0.0
C3034 C 0.1671 0.32864 0.06163 0.0
C3035 C 0.1426 0.33347 1.01224 0.0
C3036 C 0.13863 0.3398 0.97167 0.0
C3037 C 0.16251 0.33375 1.02047 0.0
C3038 C 0.15407 0.34511 0.93842 0.0
C3039 C 0.17386 0.34506 0.94611 0.0
H3040 H 0.67121 0.87295 0.95583 0.0
H3041 H 0.68674 0.86442 0.08661 0.0
H3042 H 0.68621 0.83003 0.06553 0.0
H3043 H 0.67785 0.80111 1.01099 0.0
H3044 H 0.66075 0.80947 0.88162 0.0
H3045 H 0.66663 0.84629 0.90039 0.0
C3046 C 0.67448 0.86359 0.97985 0.0
C3047 C 0.67872 0.87089 1.02284 0.0
C3048 C 0.67448 0.84433 0.96734 0.0
C3049 C 0.6833 0.85889 0.05342 0.0
C3050 C 0.68313 0.83941 1.0413 0.0
C3051 C 0.6763 0.81149 0.98668 0.0
C3052 C 0.66935 0.80314 0.94489 0.0
C3053 C 0.67848 0.8319 0.99845 0.0
C3054 C 0.66663 0.81604 0.9136 0.0
C3055 C 0.66956 0.8368 0.9246 0.0
H3056 H 0.13591 0.83889 1.04354 0.0
H3057 H 0.15028 0.78531 0.05276 0.0
H3058 H 0.18428 0.80699 1.01056 0.0
H3059 H 0.20791 0.83982 0.96721 0.0
H3060 H 0.19265 0.89277 0.95621 0.0
H3061 H 0.15911 0.87132 0.99945 0.0
C3062 C 0.14661 0.83204 1.0368 0.0
C3063 C 0.14053 0.81048 0.05078 0.0
C3064 C 0.16499 0.84381 1.01015 0.0
C3065 C 0.15469 0.80191 1.04251 0.0
C3066 C 0.17379 0.81407 1.01757 0.0
C3067 C 0.19705 0.84652 0.97355 0.0
C3068 C 0.20284 0.86793 0.95893 0.0
C3069 C 0.17859 0.83466 1.00009 0.0
C3070 C 0.1885 0.87631 0.96698 0.0
C3071 C 0.16963 0.86428 0.99244 0.0
H3072 H 0.34684 0.21085 0.83627 0.0
H3073 H 0.30193 0.16286 0.74426 0.0
H3074 H 0.30745 0.13397 0.77749 0.0
H3075 H 0.32407 0.12239 0.83415 0.0
H3076 H 0.36927 0.17034 0.92589 0.0
H3077 H 0.36384 0.19931 0.89262 0.0
C3078 C 0.33891 0.19424 0.82264 0.0
C3079 C 0.32455 0.18896 0.78715 0.0
C3080 C 0.34137 0.17764 0.84314 0.0
C3081 C 0.31357 0.16726 0.77078 0.0
C3082 C 0.31637 0.15073 0.79029 0.0
C3083 C 0.33214 0.13902 0.84769 0.0
C3084 C 0.34644 0.14422 0.88325 0.0
C3085 C 0.3298 0.15565 0.82709 0.0
C3086 C 0.35762 0.16597 0.89941 0.0
C3087 C 0.35487 0.18254 0.87986 0.0
H3088 H 0.83652 0.20242 0.87941 0.0
H3089 H 0.89134 0.18967 0.88615 0.0
H3090 H 0.8691 0.15438 0.84813 0.0
H3091 H 0.83454 0.12812 0.81101 0.0
H3092 H 0.7791 0.13984 0.80947 0.0
H3093 H 0.80203 0.17601 0.84365 0.0
C3094 C 0.84349 0.19174 0.87319 0.0
C3095 C 0.86548 0.19859 0.88546 0.0
C3096 C 0.83096 0.17201 0.85028 0.0
C3097 C 0.87434 0.18463 0.87734 0.0
C3098 C 0.8618 0.16469 0.8549 0.0
C3099 C 0.82751 0.13857 0.81776 0.0
C3100 C 0.80518 0.13135 0.80781 0.0
C3101 C 0.84025 0.15846 0.84047 0.0
C3102 C 0.79642 0.14532 0.81634 0.0
C3103 C 0.80933 0.1657 0.83671 0.0
H3104 H 0.87444 0.70725 0.81088 0.0
H3105 H 0.86018 0.64243 0.76691 0.0
H3106 H 0.82525 0.62532 0.80739 0.0
H3107 H 0.8002 0.62875 0.85825 0.0
H3108 H 0.81447 0.69356 0.9023 0.0
H3109 H 0.84936 0.71068 0.86168 0.0
C3110 C 0.86367 0.68939 0.8098 0.0
C3111 C 0.87005 0.67611 0.78619 0.0
C3112 C 0.84425 0.67965 0.83471 0.0
C3113 C 0.85564 0.65302 0.78468 0.0
C3114 C 0.83588 0.64322 0.8084 0.0
C3115 C 0.81096 0.64661 0.85933 0.0
C3116 C 0.80461 0.65988 0.88304 0.0
C3117 C 0.83036 0.65635 0.83436 0.0
C3118 C 0.81899 0.68298 0.88446 0.0
C3119 C 0.83873 0.69278 0.86067 0.0
H3120 H 0.88001 0.67429 0.34495 0.0
H3121 H 0.82953 0.63032 0.43389 0.0
H3122 H 0.80215 0.63761 0.39858 0.0
H3123 H 0.79258 0.65553 0.34093 0.0
H3124 H 0.84303 0.69937 0.25175 0.0
H3125 H 0.87046 0.6923 0.28741 0.0
C3126 C 0.8632 0.66696 0.35749 0.0
C3127 C 0.85683 0.65244 0.39283 0.0
C3128 C 0.84745 0.67035 0.33572 0.0
C3129 C 0.83483 0.64215 0.40765 0.0
C3130 C 0.81915 0.64595 0.38692 0.0
C3131 C 0.80941 0.66294 0.32847 0.0
C3132 C 0.81574 0.67735 0.29295 0.0
C3133 C 0.82518 0.6596 0.35033 0.0
C3134 C 0.83776 0.68766 0.2782 0.0
C3135 C 0.85347 0.68397 0.29909 0.0
H3136 H 0.32336 0.19819 0.33937 0.0
H3137 H 0.37054 0.19613 0.42704 0.0
H3138 H 0.36592 0.16256 0.39129 0.0
H3139 H 0.34917 0.13467 0.33379 0.0
H3140 H 0.30229 0.13707 0.24579 0.0
H3141 H 0.30686 0.17054 0.28169 0.0
C3142 C 0.33202 0.18991 0.35153 0.0
C3143 C 0.34666 0.19897 0.38663 0.0
C3144 C 0.33014 0.17147 0.32948 0.0
C3145 C 0.35862 0.18883 0.40096 0.0
C3146 C 0.35633 0.17 0.37998 0.0
C3147 C 0.34057 0.14302 0.32162 0.0
C3148 C 0.32596 0.13401 0.28645 0.0
C3149 C 0.34252 0.16151 0.34364 0.0
C3150 C 0.31413 0.14426 0.272 0.0
C3151 C 0.3164 0.16305 0.29305 0.0
H3152 H 0.87471 0.20893 0.35419 0.0
H3153 H 0.86331 0.17003 0.23902 0.0
H3154 H 0.8285 0.14016 0.26937 0.0
H3155 H 0.80206 0.12517 0.32944 0.0
H3156 H 0.8133 0.1642 0.44434 0.0
H3157 H 0.84838 0.19384 0.41444 0.0
C3158 C 0.86414 0.19419 0.33528 0.0
C3159 C 0.87084 0.19181 0.29389 0.0
C3160 C 0.84494 0.17686 0.3538 0.0
C3161 C 0.85782 0.17234 0.27028 0.0
C3162 C 0.83829 0.15518 0.288 0.0
C3163 C 0.8127 0.13986 0.34843 0.0
C3164 C 0.80582 0.14237 0.38954 0.0
C3165 C 0.83198 0.15712 0.33004 0.0
C3166 C 0.81891 0.16177 0.4133 0.0
C3167 C 0.8386 0.17882 0.3958 0.0
loop_
_geom_bond_atom_site_label_1
_geom_bond_atom_site_label_2
_geom_bond_distance
_geom_bond_site_symmetry_2
_ccdc_geom_bond_type
Ho0 C3 2.811 . S
Ho0 O20 2.322 . S
Ho0 O22 2.378 . S
Ho0 O23 2.524 . S
Ho0 O24 2.381 . S
Ho0 O25 2.669 . S
Ho0 O27 2.346 . S
Ho0 O31 2.305 . S
Ho1 C12 2.811 . S
Ho1 O21 2.346 . S
Ho1 O25 2.305 . S
Ho1 O26 2.322 . S
Ho1 O28 2.378 . S
Ho1 O29 2.524 . S
Ho1 O30 2.381 . S
Ho1 O31 2.669 . S
C2 O20 1.259 . S
C2 O21 1.268 . S
C3 Ho0 2.811 . S
C3 C4 1.488 . S
C3 O22 1.215 . S
C3 O23 1.289 . S
C4 C3 1.488 . S
C4 C5 1.348 . S
C4 C9 1.413 . S
C5 C4 1.348 . S
C5 C6 1.442 . S
C5 H32 0.930 . S
C6 C5 1.442 . S
C6 C7 1.381 . S
C6 H33 0.931 . S
C7 C6 1.381 . S
C7 C8 1.321 . S
C8 C7 1.321 . S
C8 C9 1.403 . S
C8 H34 0.934 . S
C9 C4 1.413 . S
C9 C8 1.403 . S
C9 H35 0.930 . S
C10 O24 1.275 . S
C10 O25 1.256 . S
C11 O26 1.259 . S
C11 O27 1.268 . S
C12 Ho1 2.811 . S
C12 C13 1.488 . S
C12 O28 1.215 . S
C12 O29 1.289 . S
C13 C12 1.488 . S
C13 C14 1.348 1_554 S
C13 C18 1.413 1_554 S
C14 C13 1.348 1_556 S
C14 C15 1.442 . S
C14 H36 0.930 . S
C15 C14 1.442 . S
C15 C16 1.381 . S
C15 H37 0.931 . S
C16 C15 1.381 . S
C16 C17 1.321 . S
C17 C16 1.321 . S
C17 C18 1.403 . S
C17 H38 0.934 1_455 S
C18 C13 1.413 1_556 S
C18 C17 1.403 . S
C18 H39 0.896 1_456 S
C19 O30 1.275 . S
C19 O31 1.256 . S
O20 Ho0 2.322 . S
O20 C2 1.259 . S
O21 Ho1 2.346 . S
O21 C2 1.268 . S
O22 Ho0 2.378 . S
O22 C3 1.215 . S
O23 Ho0 2.524 . S
O23 C3 1.289 . S
O24 Ho0 2.381 . S
O24 C10 1.275 . S
O25 Ho0 2.669 . S
O25 Ho1 2.305 . S
O25 C10 1.256 . S
O26 Ho1 2.322 . S
O26 C11 1.259 . S
O27 Ho0 2.346 . S
O27 C11 1.268 . S
O28 Ho1 2.378 . S
O28 C12 1.215 . S
O29 Ho1 2.524 . S
O29 C12 1.289 . S
O30 Ho1 2.381 . S
O30 C19 1.275 . S
O31 Ho0 2.305 . S
O31 Ho1 2.669 . S
O31 C19 1.256 . S
H32 C5 0.930 . S
H33 C6 0.931 . S
H34 C8 0.934 . S
H35 C9 0.930 . S
H36 C14 0.930 . S
H37 C15 0.931 . S
H38 C17 0.934 1_655 S
H39 C18 0.896 1_654 S
Ho40 C43 2.811 . S
Ho40 O60 2.322 . S
Ho40 O62 2.378 . S
Ho40 O63 2.524 . S
Ho40 O64 2.381 . S
Ho40 O65 2.669 . S
Ho40 O67 2.346 . S
Ho40 O71 2.305 . S
Ho41 C52 2.811 . S
Ho41 O61 2.346 . S
Ho41 O65 2.305 . S
Ho41 O66 2.322 . S
Ho41 O68 2.378 . S
Ho41 O69 2.524 . S
Ho41 O70 2.381 . S
Ho41 O71 2.669 . S
C42 O60 1.259 . S
C42 O61 1.268 . S
C43 Ho40 2.811 . S
C43 C44 1.488 . S
C43 O62 1.215 . S
C43 O63 1.289 . S
C44 C43 1.488 . S
C44 C45 1.348 . S
C44 C49 1.413 . S
C45 C44 1.348 . S
C45 C46 1.442 . S
C45 H72 0.930 . S
C46 C45 1.442 . S
C46 C47 1.381 . S
C46 H73 0.931 . S
C47 C46 1.381 . S
C47 C48 1.321 . S
C48 C47 1.321 . S
C48 C49 1.403 . S
C48 H74 0.934 . S
C49 C44 1.413 . S
C49 C48 1.403 . S
C49 H75 0.930 . S
C50 O64 1.275 . S
C50 O65 1.256 . S
C51 O66 1.259 . S
C51 O67 1.268 . S
C52 Ho41 2.811 . S
C52 C53 1.488 . S
C52 O68 1.215 . S
C52 O69 1.289 . S
C53 C52 1.488 . S
C53 C54 1.348 1_554 S
C53 C58 1.413 1_554 S
C54 C53 1.348 1_556 S
C54 C55 1.442 . S
C54 H76 0.930 . S
C55 C54 1.442 . S
C55 C56 1.381 . S
C55 H77 0.931 . S
C56 C55 1.381 . S
C56 C57 1.321 . S
C57 C56 1.321 . S
C57 C58 1.403 . S
C57 H78 0.934 . S
C58 C53 1.413 1_556 S
C58 C57 1.403 . S
C58 H79 0.930 1_556 S
C59 O70 1.275 . S
C59 O71 1.256 . S
O60 Ho40 2.322 . S
O60 C42 1.259 . S
O61 Ho41 2.346 . S
O61 C42 1.268 . S
O62 Ho40 2.378 . S
O62 C43 1.215 . S
O63 Ho40 2.524 . S
O63 C43 1.289 . S
O64 Ho40 2.381 . S
O64 C50 1.275 . S
O65 Ho40 2.669 . S
O65 Ho41 2.305 . S
O65 C50 1.256 . S
O66 Ho41 2.322 . S
O66 C51 1.259 . S
O67 Ho40 2.346 . S
O67 C51 1.268 . S
O68 Ho41 2.378 . S
O68 C52 1.215 . S
O69 Ho41 2.524 . S
O69 C52 1.289 . S
O70 Ho41 2.381 . S
O70 C59 1.275 . S
O71 Ho40 2.305 . S
O71 Ho41 2.669 . S
O71 C59 1.256 . S
H72 C45 0.930 . S
H73 C46 0.931 . S
H74 C48 0.934 . S
H75 C49 0.930 . S
H76 C54 0.930 . S
H77 C55 0.931 . S
H78 C57 0.934 . S
H79 C58 0.930 1_554 S
Ho80 C83 2.811 . S
Ho80 O100 2.322 . S
Ho80 O102 2.378 . S
Ho80 O103 2.524 . S
Ho80 O104 2.381 . S
Ho80 O105 2.669 . S
Ho80 O107 2.346 . S
Ho80 O111 2.305 . S
Ho81 C92 2.811 . S
Ho81 O101 2.346 . S
Ho81 O105 2.305 . S
Ho81 O106 2.322 . S
Ho81 O108 2.378 . S
Ho81 O109 2.524 . S
Ho81 O110 2.381 . S
Ho81 O111 2.669 . S
C82 O100 1.259 . S
C82 O101 1.268 . S
C83 Ho80 2.811 . S
C83 C84 1.488 . S
C83 O102 1.215 . S
C83 O103 1.289 . S
C84 C83 1.488 . S
C84 C85 1.348 . S
C84 C89 1.413 . S
C85 C84 1.348 . S
C85 C86 1.442 . S
C85 H112 0.930 . S
C86 C85 1.442 . S
C86 C87 1.381 . S
C86 H113 0.931 . S
C87 C86 1.381 . S
C87 C88 1.321 . S
C88 C87 1.321 . S
C88 C89 1.403 . S
C88 H114 0.934 . S
C89 C84 1.413 . S
C89 C88 1.403 . S
C89 H115 0.930 . S
C90 O104 1.275 . S
C90 O105 1.256 . S
C91 O106 1.259 . S
C91 O107 1.268 . S
C92 Ho81 2.811 . S
C92 C93 1.488 . S
C92 O108 1.215 . S
C92 O109 1.289 . S
C93 C92 1.488 . S
C93 C94 1.348 1_554 S
C93 C98 1.413 1_554 S
C94 C93 1.348 1_556 S
C94 C95 1.442 . S
C94 H116 0.930 . S
C95 C94 1.442 . S
C95 C96 1.381 . S
C95 H117 0.931 . S
C96 C95 1.381 . S
C96 C97 1.321 . S
C97 C96 1.321 . S
C97 C98 1.403 . S
C97 H118 0.934 1_565 S
C98 C93 1.413 1_556 S
C98 C97 1.403 . S
C98 H119 0.921 1_566 S
C99 O110 1.275 . S
C99 O111 1.256 . S
O100 Ho80 2.322 . S
O100 C82 1.259 . S
O101 Ho81 2.346 . S
O101 C82 1.268 . S
O102 Ho80 2.378 . S
O102 C83 1.215 . S
O103 Ho80 2.524 . S
O103 C83 1.289 . S
O104 Ho80 2.381 . S
O104 C90 1.275 . S
O105 Ho80 2.669 . S
O105 Ho81 2.305 . S
O105 C90 1.256 . S
O106 Ho81 2.322 . S
O106 C91 1.259 . S
O107 Ho80 2.346 . S
O107 C91 1.268 . S
O108 Ho81 2.378 . S
O108 C92 1.215 . S
O109 Ho81 2.524 . S
O109 C92 1.289 . S
O110 Ho81 2.381 . S
O110 C99 1.275 . S
O111 Ho80 2.305 . S
O111 Ho81 2.669 . S
O111 C99 1.256 . S
H112 C85 0.930 . S
H113 C86 0.931 . S
H114 C88 0.934 . S
H115 C89 0.930 . S
H116 C94 0.930 . S
H117 C95 0.931 . S
H118 C97 0.934 1_545 S
H119 C98 0.921 1_544 S
Ho120 C123 2.811 . S
Ho120 O140 2.322 . S
Ho120 O142 2.378 . S
Ho120 O143 2.524 . S
Ho120 O144 2.381 . S
Ho120 O145 2.669 . S
Ho120 O147 2.346 . S
Ho120 O151 2.305 . S
Ho121 C132 2.811 . S
Ho121 O141 2.346 . S
Ho121 O145 2.305 . S
Ho121 O146 2.322 . S
Ho121 O148 2.378 . S
Ho121 O149 2.524 . S
Ho121 O150 2.381 . S
Ho121 O151 2.669 . S
C122 O140 1.259 . S
C122 O141 1.268 . S
C123 Ho120 2.811 . S
C123 C124 1.488 . S
C123 O142 1.215 . S
C123 O143 1.289 . S
C124 C123 1.488 . S
C124 C125 1.348 . S
C124 C129 1.413 . S
C125 C124 1.348 . S
C125 C126 1.442 . S
C125 H152 0.930 . S
C126 C125 1.442 . S
C126 C127 1.381 . S
C126 H153 0.931 . S
C127 C126 1.381 . S
C127 C128 1.321 . S
C128 C127 1.321 . S
C128 C129 1.403 . S
C128 H154 0.934 . S
C129 C124 1.413 . S
C129 C128 1.403 . S
C129 H155 0.930 . S
C130 O144 1.275 . S
C130 O145 1.256 . S
C131 O146 1.259 . S
C131 O147 1.268 . S
C132 Ho121 2.811 . S
C132 C133 1.488 . S
C132 O148 1.215 . S
C132 O149 1.289 . S
C133 C132 1.488 . S
C133 C134 1.348 . S
C133 C138 1.413 . S
C134 C133 1.348 . S
C134 C135 1.442 . S
C134 H156 0.930 . S
C135 C134 1.442 . S
C135 C136 1.381 . S
C135 H157 0.931 . S
C136 C135 1.381 . S
C136 C137 1.321 . S
C137 C136 1.321 . S
C137 C138 1.403 . S
C137 H158 0.934 1_545 S
C138 C133 1.413 . S
C138 C137 1.403 . S
C138 H159 0.892 1_545 S
C139 O150 1.275 . S
C139 O151 1.256 . S
O140 Ho120 2.322 . S
O140 C122 1.259 . S
O141 Ho121 2.346 . S
O141 C122 1.268 . S
O142 Ho120 2.378 . S
O142 C123 1.215 . S
O143 Ho120 2.524 . S
O143 C123 1.289 . S
O144 Ho120 2.381 . S
O144 C130 1.275 . S
O145 Ho120 2.669 . S
O145 Ho121 2.305 . S
O145 C130 1.256 . S
O146 Ho121 2.322 . S
O146 C131 1.259 . S
O147 Ho120 2.346 . S
O147 C131 1.268 . S
O148 Ho121 2.378 . S
O148 C132 1.215 . S
O149 Ho121 2.524 . S
O149 C132 1.289 . S
O150 Ho121 2.381 . S
O150 C139 1.275 . S
O151 Ho120 2.305 . S
O151 Ho121 2.669 . S
O151 C139 1.256 . S
H152 C125 0.930 . S
H153 C126 0.931 . S
H154 C128 0.934 . S
H155 C129 0.930 . S
H156 C134 0.930 . S
H157 C135 0.931 . S
H158 C137 0.934 1_565 S
H159 C138 0.892 1_565 S
Ho160 C163 2.811 . S
Ho160 O180 2.322 . S
Ho160 O182 2.378 . S
Ho160 O183 2.524 . S
Ho160 O184 2.381 . S
Ho160 O185 2.669 . S
Ho160 O187 2.346 . S
Ho160 O191 2.305 . S
Ho161 C172 2.811 . S
Ho161 O181 2.346 . S
Ho161 O185 2.305 . S
Ho161 O186 2.322 . S
Ho161 O188 2.378 . S
Ho161 O189 2.524 . S
Ho161 O190 2.381 . S
Ho161 O191 2.669 . S
C162 O180 1.259 . S
C162 O181 1.268 . S
C163 Ho160 2.811 . S
C163 C164 1.488 . S
C163 O182 1.215 . S
C163 O183 1.289 . S
C164 C163 1.488 . S
C164 C165 1.348 . S
C164 C169 1.413 . S
C165 C164 1.348 . S
C165 C166 1.442 . S
C165 H192 0.930 . S
C166 C165 1.442 . S
C166 C167 1.381 . S
C166 H193 0.931 . S
C167 C166 1.381 . S
C167 C168 1.321 . S
C168 C167 1.321 . S
C168 C169 1.403 . S
C168 H194 0.934 . S
C169 C164 1.413 . S
C169 C168 1.403 . S
C169 H195 0.930 . S
C170 O184 1.275 . S
C170 O185 1.256 . S
C171 O186 1.259 . S
C171 O187 1.268 . S
C172 Ho161 2.811 . S
C172 C173 1.488 . S
C172 O188 1.215 . S
C172 O189 1.289 . S
C173 C172 1.488 . S
C173 C174 1.348 . S
C173 C178 1.413 . S
C174 C173 1.348 . S
C174 C175 1.442 . S
C174 H196 0.930 . S
C175 C174 1.442 . S
C175 C176 1.381 . S
C175 H197 0.931 . S
C176 C175 1.381 . S
C176 C177 1.321 . S
C177 C176 1.321 . S
C177 C178 1.403 . S
C177 H198 0.934 1_655 S
C178 C173 1.413 . S
C178 C177 1.403 . S
C178 H199 0.921 1_655 S
C179 O190 1.275 . S
C179 O191 1.256 . S
O180 Ho160 2.322 . S
O180 C162 1.259 . S
O181 Ho161 2.346 . S
O181 C162 1.268 . S
O182 Ho160 2.378 . S
O182 C163 1.215 . S
O183 Ho160 2.524 . S
O183 C163 1.289 . S
O184 Ho160 2.381 . S
O184 C170 1.275 . S
O185 Ho160 2.669 . S
O185 Ho161 2.305 . S
O185 C170 1.256 . S
O186 Ho161 2.322 . S
O186 C171 1.259 . S
O187 Ho160 2.346 . S
O187 C171 1.268 . S
O188 Ho161 2.378 . S
O188 C172 1.215 . S
O189 Ho161 2.524 . S
O189 C172 1.289 . S
O190 Ho161 2.381 . S
O190 C179 1.275 . S
O191 Ho160 2.305 . S
O191 Ho161 2.669 . S
O191 C179 1.256 . S
H192 C165 0.930 . S
H193 C166 0.931 . S
H194 C168 0.934 . S
H195 C169 0.930 . S
H196 C174 0.930 . S
H197 C175 0.931 . S
H198 C177 0.934 1_455 S
H199 C178 0.921 1_455 S
Ho200 C203 2.811 . S
Ho200 O220 2.322 . S
Ho200 O222 2.378 . S
Ho200 O223 2.524 . S
Ho200 O224 2.381 . S
Ho200 O225 2.669 . S
Ho200 O227 2.346 . S
Ho200 O231 2.305 . S
Ho201 C212 2.811 . S
Ho201 O221 2.346 . S
Ho201 O225 2.305 . S
Ho201 O226 2.322 . S
Ho201 O228 2.378 . S
Ho201 O229 2.524 . S
Ho201 O230 2.381 . S
Ho201 O231 2.669 . S
C202 O220 1.259 . S
C202 O221 1.268 . S
C203 Ho200 2.811 . S
C203 C204 1.488 . S
C203 O222 1.215 . S
C203 O223 1.289 . S
C204 C203 1.488 . S
C204 C205 1.348 . S
C204 C209 1.413 . S
C205 C204 1.348 . S
C205 C206 1.442 . S
C205 H232 0.930 . S
C206 C205 1.442 . S
C206 C207 1.381 . S
C206 H233 0.931 . S
C207 C206 1.381 . S
C207 C208 1.321 . S
C208 C207 1.321 . S
C208 C209 1.403 . S
C208 H234 0.934 . S
C209 C204 1.413 . S
C209 C208 1.403 . S
C209 H235 0.930 . S
C210 O224 1.275 . S
C210 O225 1.256 . S
C211 O226 1.259 . S
C211 O227 1.268 . S
C212 Ho201 2.811 . S
C212 C213 1.488 . S
C212 O228 1.215 . S
C212 O229 1.289 . S
C213 C212 1.488 . S
C213 C214 1.348 . S
C213 C218 1.413 . S
C214 C213 1.348 . S
C214 C215 1.442 . S
C214 H236 0.930 . S
C215 C214 1.442 . S
C215 C216 1.381 . S
C215 H237 0.931 . S
C216 C215 1.381 . S
C216 C217 1.321 . S
C217 C216 1.321 . S
C217 C218 1.403 . S
C217 H238 0.934 . S
C218 C213 1.413 . S
C218 C217 1.403 . S
C218 H239 0.930 . S
C219 O230 1.275 . S
C219 O231 1.256 . S
O220 Ho200 2.322 . S
O220 C202 1.259 . S
O221 Ho201 2.346 . S
O221 C202 1.268 . S
O222 Ho200 2.378 . S
O222 C203 1.215 . S
O223 Ho200 2.524 . S
O223 C203 1.289 . S
O224 Ho200 2.381 . S
O224 C210 1.275 . S
O225 Ho200 2.669 . S
O225 Ho201 2.305 . S
O225 C210 1.256 . S
O226 Ho201 2.322 . S
O226 C211 1.259 . S
O227 Ho200 2.346 . S
O227 C211 1.268 . S
O228 Ho201 2.378 . S
O228 C212 1.215 . S
O229 Ho201 2.524 . S
O229 C212 1.289 . S
O230 Ho201 2.381 . S
O230 C219 1.275 . S
O231 Ho200 2.305 . S
O231 Ho201 2.669 . S
O231 C219 1.256 . S
H232 C205 0.930 . S
H233 C206 0.931 . S
H234 C208 0.934 . S
H235 C209 0.930 . S
H236 C214 0.930 . S
H237 C215 0.931 . S
H238 C217 0.934 . S
H239 C218 0.930 . S
Ho240 C243 2.811 . S
Ho240 O260 2.322 . S
Ho240 O262 2.378 . S
Ho240 O263 2.524 . S
Ho240 O264 2.381 . S
Ho240 O265 2.669 . S
Ho240 O267 2.346 . S
Ho240 O271 2.305 . S
Ho241 C252 2.811 1_554 S
Ho241 O261 2.346 . S
Ho241 O265 2.305 . S
Ho241 O266 2.322 . S
Ho241 O268 2.386 . S
Ho241 O269 2.524 1_554 S
Ho241 O270 2.381 . S
Ho241 O271 2.669 . S
C242 O260 1.259 . S
C242 O261 1.268 . S
C243 Ho240 2.811 . S
C243 C244 1.488 . S
C243 O262 1.215 . S
C243 O263 1.289 . S
C244 C243 1.488 . S
C244 C245 1.348 . S
C244 C249 1.413 . S
C245 C244 1.348 . S
C245 C246 1.442 . S
C245 H272 0.930 . S
C246 C245 1.442 . S
C246 C247 1.381 . S
C246 H273 0.931 . S
C247 C246 1.381 . S
C247 C248 1.321 . S
C248 C247 1.321 . S
C248 C249 1.403 . S
C248 H274 0.934 1_655 S
C249 C244 1.413 . S
C249 C248 1.403 . S
C249 H275 0.891 1_655 S
C250 O264 1.275 . S
C250 O265 1.256 . S
C251 O266 1.259 . S
C251 O267 1.268 . S
C252 Ho241 2.811 1_556 S
C252 C253 1.488 . S
C252 O268 1.210 1_556 S
C252 O269 1.289 . S
C253 C252 1.488 . S
C253 C254 1.348 . S
C253 C258 1.413 . S
C254 C253 1.348 . S
C254 C255 1.442 . S
C254 H276 0.930 . S
C255 C254 1.442 . S
C255 C256 1.381 . S
C255 H277 0.931 . S
C256 C255 1.381 . S
C256 C257 1.321 . S
C257 C256 1.321 . S
C257 C258 1.403 . S
C257 H278 0.934 . S
C258 C253 1.413 . S
C258 C257 1.403 . S
C258 H279 0.930 . S
C259 O270 1.275 . S
C259 O271 1.256 . S
O260 Ho240 2.322 . S
O260 C242 1.259 . S
O261 Ho241 2.346 . S
O261 C242 1.268 . S
O262 Ho240 2.378 . S
O262 C243 1.215 . S
O263 Ho240 2.524 . S
O263 C243 1.289 . S
O264 Ho240 2.381 . S
O264 C250 1.275 . S
O265 Ho240 2.669 . S
O265 Ho241 2.305 . S
O265 C250 1.256 . S
O266 Ho241 2.322 . S
O266 C251 1.259 . S
O267 Ho240 2.346 . S
O267 C251 1.268 . S
O268 Ho241 2.386 . S
O268 C252 1.210 1_554 S
O269 Ho241 2.524 1_556 S
O269 C252 1.289 . S
O270 Ho241 2.381 . S
O270 C259 1.275 . S
O271 Ho240 2.305 . S
O271 Ho241 2.669 . S
O271 C259 1.256 . S
H272 C245 0.930 . S
H273 C246 0.931 . S
H274 C248 0.934 1_455 S
H275 C249 0.891 1_455 S
H276 C254 0.930 . S
H277 C255 0.931 . S
H278 C257 0.934 . S
H279 C258 0.930 . S
Ho280 C283 2.811 . S
Ho280 O300 2.322 . S
Ho280 O302 2.378 . S
Ho280 O303 2.524 . S
Ho280 O304 2.381 . S
Ho280 O305 2.669 . S
Ho280 O307 2.346 . S
Ho280 O311 2.305 . S
Ho281 C292 2.811 1_554 S
Ho281 O301 2.346 . S
Ho281 O305 2.305 . S
Ho281 O306 2.322 . S
Ho281 O308 2.386 . S
Ho281 O309 2.524 1_554 S
Ho281 O310 2.381 . S
Ho281 O311 2.669 . S
C282 O300 1.259 . S
C282 O301 1.268 . S
C283 Ho280 2.811 . S
C283 C284 1.488 . S
C283 O302 1.215 . S
C283 O303 1.289 . S
C284 C283 1.488 . S
C284 C285 1.348 . S
C284 C289 1.413 . S
C285 C284 1.348 . S
C285 C286 1.442 . S
C285 H312 0.930 . S
C286 C285 1.442 . S
C286 C287 1.381 . S
C286 H313 0.931 . S
C287 C286 1.381 . S
C287 C288 1.321 . S
C288 C287 1.321 . S
C288 C289 1.403 . S
C288 H314 0.934 . S
C289 C284 1.413 . S
C289 C288 1.403 . S
C289 H315 0.930 . S
C290 O304 1.275 . S
C290 O305 1.256 . S
C291 O306 1.259 . S
C291 O307 1.268 . S
C292 Ho281 2.811 1_556 S
C292 C293 1.488 . S
C292 O308 1.210 1_556 S
C292 O309 1.289 . S
C293 C292 1.488 . S
C293 C294 1.348 . S
C293 C298 1.413 . S
C294 C293 1.348 . S
C294 C295 1.442 . S
C294 H316 0.930 . S
C295 C294 1.442 . S
C295 C296 1.381 . S
C295 H317 0.931 . S
C296 C295 1.381 . S
C296 C297 1.321 . S
C297 C296 1.321 . S
C297 C298 1.403 . S
C297 H318 0.934 . S
C298 C293 1.413 . S
C298 C297 1.403 . S
C298 H319 0.930 . S
C299 O310 1.275 . S
C299 O311 1.256 . S
O300 Ho280 2.322 . S
O300 C282 1.259 . S
O301 Ho281 2.346 . S
O301 C282 1.268 . S
O302 Ho280 2.378 . S
O302 C283 1.215 . S
O303 Ho280 2.524 . S
O303 C283 1.289 . S
O304 Ho280 2.381 . S
O304 C290 1.275 . S
O305 Ho280 2.669 . S
O305 Ho281 2.305 . S
O305 C290 1.256 . S
O306 Ho281 2.322 . S
O306 C291 1.259 . S
O307 Ho280 2.346 . S
O307 C291 1.268 . S
O308 Ho281 2.386 . S
O308 C292 1.210 1_554 S
O309 Ho281 2.524 1_556 S
O309 C292 1.289 . S
O310 Ho281 2.381 . S
O310 C299 1.275 . S
O311 Ho280 2.305 . S
O311 Ho281 2.669 . S
O311 C299 1.256 . S
H312 C285 0.930 . S
H313 C286 0.931 . S
H314 C288 0.934 . S
H315 C289 0.930 . S
H316 C294 0.930 . S
H317 C295 0.931 . S
H318 C297 0.934 . S
H319 C298 0.930 . S
Ho320 C323 2.811 . S
Ho320 O340 2.322 . S
Ho320 O342 2.378 . S
Ho320 O343 2.524 . S
Ho320 O344 2.381 . S
Ho320 O345 2.669 . S
Ho320 O347 2.346 . S
Ho320 O351 2.305 . S
Ho321 C332 2.811 1_554 S
Ho321 O341 2.346 . S
Ho321 O345 2.305 . S
Ho321 O346 2.322 . S
Ho321 O348 2.386 . S
Ho321 O349 2.524 1_554 S
Ho321 O350 2.381 . S
Ho321 O351 2.669 . S
C322 O340 1.259 . S
C322 O341 1.268 . S
C323 Ho320 2.811 . S
C323 C324 1.488 . S
C323 O342 1.215 . S
C323 O343 1.289 . S
C324 C323 1.488 . S
C324 C325 1.348 . S
C324 C329 1.413 . S
C325 C324 1.348 . S
C325 C326 1.442 . S
C325 H352 0.930 . S
C326 C325 1.442 . S
C326 C327 1.381 . S
C326 H353 0.931 . S
C327 C326 1.381 . S
C327 C328 1.321 . S
C328 C327 1.321 . S
C328 C329 1.403 . S
C328 H354 0.934 1_545 S
C329 C324 1.413 . S
C329 C328 1.403 . S
C329 H355 0.921 1_545 S
C330 O344 1.275 . S
C330 O345 1.256 . S
C331 O346 1.259 . S
C331 O347 1.268 . S
C332 Ho321 2.811 1_556 S
C332 C333 1.488 . S
C332 O348 1.210 1_556 S
C332 O349 1.289 . S
C333 C332 1.488 . S
C333 C334 1.348 . S
C333 C338 1.413 . S
C334 C333 1.348 . S
C334 C335 1.442 . S
C334 H356 0.930 . S
C335 C334 1.442 . S
C335 C336 1.381 . S
C335 H357 0.931 . S
C336 C335 1.381 . S
C336 C337 1.321 . S
C337 C336 1.321 . S
C337 C338 1.403 . S
C337 H358 0.934 . S
C338 C333 1.413 . S
C338 C337 1.403 . S
C338 H359 0.930 . S
C339 O350 1.275 . S
C339 O351 1.256 . S
O340 Ho320 2.322 . S
O340 C322 1.259 . S
O341 Ho321 2.346 . S
O341 C322 1.268 . S
O342 Ho320 2.378 . S
O342 C323 1.215 . S
O343 Ho320 2.524 . S
O343 C323 1.289 . S
O344 Ho320 2.381 . S
O344 C330 1.275 . S
O345 Ho320 2.669 . S
O345 Ho321 2.305 . S
O345 C330 1.256 . S
O346 Ho321 2.322 . S
O346 C331 1.259 . S
O347 Ho320 2.346 . S
O347 C331 1.268 . S
O348 Ho321 2.386 . S
O348 C332 1.210 1_554 S
O349 Ho321 2.524 1_556 S
O349 C332 1.289 . S
O350 Ho321 2.381 . S
O350 C339 1.275 . S
O351 Ho320 2.305 . S
O351 Ho321 2.669 . S
O351 C339 1.256 . S
H352 C325 0.930 . S
H353 C326 0.931 . S
H354 C328 0.934 1_565 S
H355 C329 0.921 1_565 S
H356 C334 0.930 . S
H357 C335 0.931 . S
H358 C337 0.934 . S
H359 C338 0.930 . S
Ho360 C363 2.811 . S
Ho360 O380 2.322 . S
Ho360 O382 2.378 . S
Ho360 O383 2.524 . S
Ho360 O384 2.381 . S
Ho360 O385 2.669 . S
Ho360 O387 2.346 . S
Ho360 O391 2.305 . S
Ho361 C372 2.811 . S
Ho361 O381 2.346 . S
Ho361 O385 2.305 . S
Ho361 O386 2.322 . S
Ho361 O388 2.378 . S
Ho361 O389 2.524 . S
Ho361 O390 2.381 . S
Ho361 O391 2.669 . S
C362 O380 1.259 . S
C362 O381 1.268 . S
C363 Ho360 2.811 . S
C363 C364 1.488 . S
C363 O382 1.215 . S
C363 O383 1.289 . S
C364 C363 1.488 . S
C364 C365 1.348 . S
C364 C369 1.413 . S
C365 C364 1.348 . S
C365 C366 1.442 . S
C365 H392 0.930 . S
C366 C365 1.442 . S
C366 C367 1.381 . S
C366 H393 0.931 . S
C367 C366 1.381 . S
C367 C368 1.321 . S
C368 C367 1.321 . S
C368 C369 1.403 . S
C368 H394 0.934 1_565 S
C369 C364 1.413 . S
C369 C368 1.403 . S
C369 H395 0.895 1_565 S
C370 O384 1.275 . S
C370 O385 1.256 . S
C371 O386 1.259 . S
C371 O387 1.268 . S
C372 Ho361 2.811 . S
C372 C373 1.488 . S
C372 O388 1.215 . S
C372 O389 1.289 . S
C373 C372 1.488 . S
C373 C374 1.348 . S
C373 C378 1.413 . S
C374 C373 1.348 . S
C374 C375 1.442 . S
C374 H396 0.930 . S
C375 C374 1.442 . S
C375 C376 1.381 . S
C375 H397 0.931 . S
C376 C375 1.381 . S
C376 C377 1.321 . S
C377 C376 1.321 . S
C377 C378 1.403 . S
C377 H398 0.934 . S
C378 C373 1.413 . S
C378 C377 1.403 . S
C378 H399 0.930 . S
C379 O390 1.275 . S
C379 O391 1.256 . S
O380 Ho360 2.322 . S
O380 C362 1.259 . S
O381 Ho361 2.346 . S
O381 C362 1.268 . S
O382 Ho360 2.378 . S
O382 C363 1.215 . S
O383 Ho360 2.524 . S
O383 C363 1.289 . S
O384 Ho360 2.381 . S
O384 C370 1.275 . S
O385 Ho360 2.669 . S
O385 Ho361 2.305 . S
O385 C370 1.256 . S
O386 Ho361 2.322 . S
O386 C371 1.259 . S
O387 Ho360 2.346 . S
O387 C371 1.268 . S
O388 Ho361 2.378 . S
O388 C372 1.215 . S
O389 Ho361 2.524 . S
O389 C372 1.289 . S
O390 Ho361 2.381 . S
O390 C379 1.275 . S
O391 Ho360 2.305 . S
O391 Ho361 2.669 . S
O391 C379 1.256 . S
H392 C365 0.930 . S
H393 C366 0.931 . S
H394 C368 0.934 1_545 S
H395 C369 0.895 1_545 S
H396 C374 0.930 . S
H397 C375 0.931 . S
H398 C377 0.934 . S
H399 C378 0.930 . S
Ho400 C403 2.811 . S
Ho400 O420 2.322 . S
Ho400 O422 2.378 . S
Ho400 O423 2.524 . S
Ho400 O424 2.381 . S
Ho400 O425 2.669 . S
Ho400 O427 2.346 . S
Ho400 O431 2.305 . S
Ho401 C412 2.811 . S
Ho401 O421 2.346 . S
Ho401 O425 2.305 . S
Ho401 O426 2.322 . S
Ho401 O428 2.378 . S
Ho401 O429 2.524 . S
Ho401 O430 2.381 . S
Ho401 O431 2.669 . S
C402 O420 1.259 . S
C402 O421 1.268 . S
C403 Ho400 2.811 . S
C403 C404 1.488 . S
C403 O422 1.215 . S
C403 O423 1.289 . S
C404 C403 1.488 . S
C404 C405 1.348 . S
C404 C409 1.413 . S
C405 C404 1.348 . S
C405 C406 1.442 . S
C405 H432 0.930 . S
C406 C405 1.442 . S
C406 C407 1.381 . S
C406 H433 0.931 . S
C407 C406 1.381 . S
C407 C408 1.321 . S
C408 C407 1.321 . S
C408 C409 1.403 . S
C408 H434 0.934 1_455 S
C409 C404 1.413 . S
C409 C408 1.403 . S
C409 H435 0.922 1_455 S
C410 O424 1.275 . S
C410 O425 1.256 . S
C411 O426 1.259 . S
C411 O427 1.268 . S
C412 Ho401 2.811 . S
C412 C413 1.488 . S
C412 O428 1.215 . S
C412 O429 1.289 . S
C413 C412 1.488 . S
C413 C414 1.348 . S
C413 C418 1.413 . S
C414 C413 1.348 . S
C414 C415 1.442 . S
C414 H436 0.930 . S
C415 C414 1.442 . S
C415 C416 1.381 . S
C415 H437 0.931 . S
C416 C415 1.381 . S
C416 C417 1.321 . S
C417 C416 1.321 . S
C417 C418 1.403 . S
C417 H438 0.934 . S
C418 C413 1.413 . S
C418 C417 1.403 . S
C418 H439 0.930 . S
C419 O430 1.275 . S
C419 O431 1.256 . S
O420 Ho400 2.322 . S
O420 C402 1.259 . S
O421 Ho401 2.346 . S
O421 C402 1.268 . S
O422 Ho400 2.378 . S
O422 C403 1.215 . S
O423 Ho400 2.524 . S
O423 C403 1.289 . S
O424 Ho400 2.381 . S
O424 C410 1.275 . S
O425 Ho400 2.669 . S
O425 Ho401 2.305 . S
O425 C410 1.256 . S
O426 Ho401 2.322 . S
O426 C411 1.259 . S
O427 Ho400 2.346 . S
O427 C411 1.268 . S
O428 Ho401 2.378 . S
O428 C412 1.215 . S
O429 Ho401 2.524 . S
O429 C412 1.289 . S
O430 Ho401 2.381 . S
O430 C419 1.275 . S
O431 Ho400 2.305 . S
O431 Ho401 2.669 . S
O431 C419 1.256 . S
H432 C405 0.930 . S
H433 C406 0.931 . S
H434 C408 0.934 1_655 S
H435 C409 0.922 1_655 S
H436 C414 0.930 . S
H437 C415 0.931 . S
H438 C417 0.934 . S
H439 C418 0.930 . S
Ho440 C443 2.811 . S
Ho440 O460 2.322 . S
Ho440 O462 2.378 . S
Ho440 O463 2.524 . S
Ho440 O464 2.381 . S
Ho440 O465 2.669 . S
Ho440 O467 2.346 . S
Ho440 O471 2.305 . S
Ho441 C452 2.811 . S
Ho441 O461 2.346 . S
Ho441 O465 2.305 . S
Ho441 O466 2.322 . S
Ho441 O468 2.378 . S
Ho441 O469 2.524 . S
Ho441 O470 2.381 . S
Ho441 O471 2.669 . S
C442 O460 1.259 . S
C442 O461 1.268 . S
C443 Ho440 2.811 . S
C443 C444 1.488 . S
C443 O462 1.215 . S
C443 O463 1.289 . S
C444 C443 1.488 . S
C444 C445 1.348 . S
C444 C449 1.413 . S
C445 C444 1.348 . S
C445 C446 1.442 . S
C445 H472 0.930 . S
C446 C445 1.442 . S
C446 C447 1.381 . S
C446 H473 0.931 . S
C447 C446 1.381 . S
C447 C448 1.321 . S
C448 C447 1.321 . S
C448 C449 1.403 . S
C448 H474 0.934 . S
C449 C444 1.413 . S
C449 C448 1.403 . S
C449 H475 0.930 . S
C450 O464 1.275 . S
C450 O465 1.256 . S
C451 O466 1.259 . S
C451 O467 1.268 . S
C452 Ho441 2.811 . S
C452 C453 1.488 . S
C452 O468 1.215 . S
C452 O469 1.289 . S
C453 C452 1.488 . S
C453 C454 1.348 . S
C453 C458 1.413 . S
C454 C453 1.348 . S
C454 C455 1.442 . S
C454 H476 0.930 . S
C455 C454 1.442 . S
C455 C456 1.381 . S
C455 H477 0.931 . S
C456 C455 1.381 . S
C456 C457 1.321 . S
C457 C456 1.321 . S
C457 C458 1.403 . S
C457 H478 0.934 . S
C458 C453 1.413 . S
C458 C457 1.403 . S
C458 H479 0.930 . S
C459 O470 1.275 . S
C459 O471 1.256 . S
O460 Ho440 2.322 . S
O460 C442 1.259 . S
O461 Ho441 2.346 . S
O461 C442 1.268 . S
O462 Ho440 2.378 . S
O462 C443 1.215 . S
O463 Ho440 2.524 . S
O463 C443 1.289 . S
O464 Ho440 2.381 . S
O464 C450 1.275 . S
O465 Ho440 2.669 . S
O465 Ho441 2.305 . S
O465 C450 1.256 . S
O466 Ho441 2.322 . S
O466 C451 1.259 . S
O467 Ho440 2.346 . S
O467 C451 1.268 . S
O468 Ho441 2.378 . S
O468 C452 1.215 . S
O469 Ho441 2.524 . S
O469 C452 1.289 . S
O470 Ho441 2.381 . S
O470 C459 1.275 . S
O471 Ho440 2.305 . S
O471 Ho441 2.669 . S
O471 C459 1.256 . S
H472 C445 0.930 . S
H473 C446 0.931 . S
H474 C448 0.934 . S
H475 C449 0.930 . S
H476 C454 0.930 . S
H477 C455 0.931 . S
H478 C457 0.934 . S
H479 C458 0.930 . S
Ho480 C483 2.811 . S
Ho480 O500 2.322 . S
Ho480 O502 2.378 . S
Ho480 O503 2.524 . S
Ho480 O504 2.381 . S
Ho480 O505 2.669 . S
Ho480 O507 2.346 . S
Ho480 O511 2.305 . S
Ho481 C492 2.811 . S
Ho481 O501 2.346 . S
Ho481 O505 2.305 . S
Ho481 O506 2.322 . S
Ho481 O508 2.378 . S
Ho481 O509 2.524 . S
Ho481 O510 2.381 . S
Ho481 O511 2.669 . S
C482 O500 1.259 . S
C482 O501 1.268 . S
C483 Ho480 2.811 . S
C483 C484 1.488 . S
C483 O502 1.215 . S
C483 O503 1.289 . S
C484 C483 1.488 . S
C484 C485 1.348 . S
C484 C489 1.413 . S
C485 C484 1.348 . S
C485 C486 1.442 . S
C485 H512 0.930 . S
C486 C485 1.442 . S
C486 C487 1.381 . S
C486 H513 0.931 . S
C487 C486 1.381 . S
C487 C488 1.321 . S
C488 C487 1.321 . S
C488 C489 1.403 . S
C488 H514 0.934 . S
C489 C484 1.413 . S
C489 C488 1.403 . S
C489 H515 0.930 . S
C490 O504 1.275 . S
C490 O505 1.256 . S
C491 O506 1.259 . S
C491 O507 1.268 . S
C492 Ho481 2.811 . S
C492 C493 1.488 . S
C492 O508 1.215 . S
C492 O509 1.289 . S
C493 C492 1.488 . S
C493 C494 1.348 . S
C493 C498 1.413 . S
C494 C493 1.348 . S
C494 C495 1.442 . S
C494 H516 0.930 . S
C495 C494 1.442 . S
C495 C496 1.381 . S
C495 H517 0.931 . S
C496 C495 1.381 . S
C496 C497 1.321 . S
C497 C496 1.321 . S
C497 C498 1.403 . S
C497 H518 0.934 . S
C498 C493 1.413 . S
C498 C497 1.403 . S
C498 H519 0.930 . S
C499 O510 1.275 . S
C499 O511 1.256 . S
O500 Ho480 2.322 . S
O500 C482 1.259 . S
O501 Ho481 2.346 . S
O501 C482 1.268 . S
O502 Ho480 2.378 . S
O502 C483 1.215 . S
O503 Ho480 2.524 . S
O503 C483 1.289 . S
O504 Ho480 2.381 . S
O504 C490 1.275 . S
O505 Ho480 2.669 . S
O505 Ho481 2.305 . S
O505 C490 1.256 . S
O506 Ho481 2.322 . S
O506 C491 1.259 . S
O507 Ho480 2.346 . S
O507 C491 1.268 . S
O508 Ho481 2.378 . S
O508 C492 1.215 . S
O509 Ho481 2.524 . S
O509 C492 1.289 . S
O510 Ho481 2.381 . S
O510 C499 1.275 . S
O511 Ho480 2.305 . S
O511 Ho481 2.669 . S
O511 C499 1.256 . S
H512 C485 0.930 . S
H513 C486 0.931 . S
H514 C488 0.934 . S
H515 C489 0.930 . S
H516 C494 0.930 . S
H517 C495 0.931 . S
H518 C497 0.934 . S
H519 C498 0.930 . S
Ho520 C523 2.811 . S
Ho520 O540 2.322 . S
Ho520 O542 2.378 . S
Ho520 O543 2.524 . S
Ho520 O544 2.381 . S
Ho520 O545 2.669 . S
Ho520 O547 2.346 . S
Ho520 O551 2.305 . S
Ho521 C532 2.811 . S
Ho521 O541 2.346 . S
Ho521 O545 2.305 . S
Ho521 O546 2.322 . S
Ho521 O548 2.378 . S
Ho521 O549 2.524 . S
Ho521 O550 2.381 . S
Ho521 O551 2.669 . S
C522 O540 1.259 . S
C522 O541 1.268 . S
C523 Ho520 2.811 . S
C523 C524 1.488 . S
C523 O542 1.215 . S
C523 O543 1.289 . S
C524 C523 1.488 . S
C524 C525 1.348 . S
C524 C529 1.413 . S
C525 C524 1.348 . S
C525 C526 1.442 . S
C525 H552 0.930 . S
C526 C525 1.442 . S
C526 C527 1.381 . S
C526 H553 0.931 . S
C527 C526 1.381 . S
C527 C528 1.321 . S
C528 C527 1.321 . S
C528 C529 1.403 . S
C528 H554 0.934 . S
C529 C524 1.413 . S
C529 C528 1.403 . S
C529 H555 0.930 . S
C530 O544 1.275 . S
C530 O545 1.256 . S
C531 O546 1.259 . S
C531 O547 1.268 . S
C532 Ho521 2.811 . S
C532 C533 1.488 . S
C532 O548 1.215 . S
C532 O549 1.289 . S
C533 C532 1.488 . S
C533 C534 1.348 . S
C533 C538 1.413 . S
C534 C533 1.348 . S
C534 C535 1.442 . S
C534 H556 0.930 . S
C535 C534 1.442 . S
C535 C536 1.381 . S
C535 H557 0.931 . S
C536 C535 1.381 . S
C536 C537 1.321 . S
C537 C536 1.321 . S
C537 C538 1.403 . S
C537 H558 0.934 . S
C538 C533 1.413 . S
C538 C537 1.403 . S
C538 H559 0.930 . S
C539 O550 1.275 . S
C539 O551 1.256 . S
O540 Ho520 2.322 . S
O540 C522 1.259 . S
O541 Ho521 2.346 . S
O541 C522 1.268 . S
O542 Ho520 2.378 . S
O542 C523 1.215 . S
O543 Ho520 2.524 . S
O543 C523 1.289 . S
O544 Ho520 2.381 . S
O544 C530 1.275 . S
O545 Ho520 2.669 . S
O545 Ho521 2.305 . S
O545 C530 1.256 . S
O546 Ho521 2.322 . S
O546 C531 1.259 . S
O547 Ho520 2.346 . S
O547 C531 1.268 . S
O548 Ho521 2.378 . S
O548 C532 1.215 . S
O549 Ho521 2.524 . S
O549 C532 1.289 . S
O550 Ho521 2.381 . S
O550 C539 1.275 . S
O551 Ho520 2.305 . S
O551 Ho521 2.669 . S
O551 C539 1.256 . S
H552 C525 0.930 . S
H553 C526 0.931 . S
H554 C528 0.934 . S
H555 C529 0.930 . S
H556 C534 0.930 . S
H557 C535 0.931 . S
H558 C537 0.934 . S
H559 C538 0.930 . S
Ho560 C563 2.811 . S
Ho560 O580 2.322 . S
Ho560 O582 2.378 . S
Ho560 O583 2.524 . S
Ho560 O584 2.381 . S
Ho560 O585 2.669 . S
Ho560 O587 2.346 . S
Ho560 O591 2.305 . S
Ho561 C572 2.811 . S
Ho561 O581 2.346 . S
Ho561 O585 2.305 . S
Ho561 O586 2.322 . S
Ho561 O588 2.378 . S
Ho561 O589 2.524 . S
Ho561 O590 2.381 . S
Ho561 O591 2.669 . S
C562 O580 1.259 . S
C562 O581 1.268 . S
C563 Ho560 2.811 . S
C563 C564 1.488 . S
C563 O582 1.215 . S
C563 O583 1.289 . S
C564 C563 1.488 . S
C564 C565 1.348 . S
C564 C569 1.413 . S
C565 C564 1.348 . S
C565 C566 1.442 . S
C565 H592 0.930 . S
C566 C565 1.442 . S
C566 C567 1.381 . S
C566 H593 0.931 . S
C567 C566 1.381 . S
C567 C568 1.321 . S
C568 C567 1.321 . S
C568 C569 1.403 . S
C568 H594 0.934 . S
C569 C564 1.413 . S
C569 C568 1.403 . S
C569 H595 0.930 . S
C570 O584 1.275 . S
C570 O585 1.256 . S
C571 O586 1.259 . S
C571 O587 1.268 . S
C572 Ho561 2.811 . S
C572 C573 1.488 . S
C572 O588 1.215 . S
C572 O589 1.289 . S
C573 C572 1.488 . S
C573 C574 1.348 . S
C573 C578 1.413 . S
C574 C573 1.348 . S
C574 C575 1.442 . S
C574 H596 0.930 . S
C575 C574 1.442 . S
C575 C576 1.381 . S
C575 H597 0.931 . S
C576 C575 1.381 . S
C576 C577 1.321 . S
C577 C576 1.321 . S
C577 C578 1.403 . S
C577 H598 0.934 . S
C578 C573 1.413 . S
C578 C577 1.403 . S
C578 H599 0.930 . S
C579 O590 1.275 . S
C579 O591 1.256 . S
O580 Ho560 2.322 . S
O580 C562 1.259 . S
O581 Ho561 2.346 . S
O581 C562 1.268 . S
O582 Ho560 2.378 . S
O582 C563 1.215 . S
O583 Ho560 2.524 . S
O583 C563 1.289 . S
O584 Ho560 2.381 . S
O584 C570 1.275 . S
O585 Ho560 2.669 . S
O585 Ho561 2.305 . S
O585 C570 1.256 . S
O586 Ho561 2.322 . S
O586 C571 1.259 . S
O587 Ho560 2.346 . S
O587 C571 1.268 . S
O588 Ho561 2.378 . S
O588 C572 1.215 . S
O589 Ho561 2.524 . S
O589 C572 1.289 . S
O590 Ho561 2.381 . S
O590 C579 1.275 . S
O591 Ho560 2.305 . S
O591 Ho561 2.669 . S
O591 C579 1.256 . S
H592 C565 0.930 . S
H593 C566 0.931 . S
H594 C568 0.934 . S
H595 C569 0.930 . S
H596 C574 0.930 . S
H597 C575 0.931 . S
H598 C577 0.934 . S
H599 C578 0.930 . S
Ho600 C603 2.811 . S
Ho600 O620 2.322 . S
Ho600 O622 2.378 . S
Ho600 O623 2.524 . S
Ho600 O624 2.381 . S
Ho600 O625 2.669 . S
Ho600 O627 2.346 . S
Ho600 O631 2.305 . S
Ho601 C612 2.811 1_556 S
Ho601 O621 2.346 . S
Ho601 O625 2.305 . S
Ho601 O626 2.322 . S
Ho601 O628 2.378 1_556 S
Ho601 O629 2.524 1_556 S
Ho601 O630 2.381 . S
Ho601 O631 2.669 . S
C602 O620 1.259 . S
C602 O621 1.268 . S
C603 Ho600 2.811 . S
C603 C604 1.488 . S
C603 O622 1.215 . S
C603 O623 1.289 . S
C604 C603 1.488 . S
C604 C605 1.348 . S
C604 C609 1.413 . S
C605 C604 1.348 . S
C605 C606 1.442 . S
C605 H632 0.930 . S
C606 C605 1.442 . S
C606 C607 1.381 . S
C606 H633 0.931 . S
C607 C606 1.381 . S
C607 C608 1.321 . S
C608 C607 1.321 . S
C608 C609 1.403 . S
C608 H634 0.934 . S
C609 C604 1.413 . S
C609 C608 1.403 . S
C609 H635 0.930 . S
C610 O624 1.275 . S
C610 O625 1.256 . S
C611 O626 1.259 . S
C611 O627 1.268 . S
C612 Ho601 2.811 1_554 S
C612 C613 1.488 . S
C612 O628 1.215 . S
C612 O629 1.289 . S
C613 C612 1.488 . S
C613 C614 1.348 . S
C613 C618 1.413 . S
C614 C613 1.348 . S
C614 C615 1.442 . S
C614 H636 0.930 . S
C615 C614 1.442 . S
C615 C616 1.381 . S
C615 H637 0.931 . S
C616 C615 1.381 . S
C616 C617 1.321 . S
C617 C616 1.321 . S
C617 C618 1.403 . S
C617 H638 0.934 . S
C618 C613 1.413 . S
C618 C617 1.403 . S
C618 H639 0.930 . S
C619 O630 1.275 . S
C619 O631 1.256 . S
O620 Ho600 2.322 . S
O620 C602 1.259 . S
O621 Ho601 2.346 . S
O621 C602 1.268 . S
O622 Ho600 2.378 . S
O622 C603 1.215 . S
O623 Ho600 2.524 . S
O623 C603 1.289 . S
O624 Ho600 2.381 . S
O624 C610 1.275 . S
O625 Ho600 2.669 . S
O625 Ho601 2.305 . S
O625 C610 1.256 . S
O626 Ho601 2.322 . S
O626 C611 1.259 . S
O627 Ho600 2.346 . S
O627 C611 1.268 . S
O628 Ho601 2.378 1_554 S
O628 C612 1.215 . S
O629 Ho601 2.524 1_554 S
O629 C612 1.289 . S
O630 Ho601 2.381 . S
O630 C619 1.275 . S
O631 Ho600 2.305 . S
O631 Ho601 2.669 . S
O631 C619 1.256 . S
H632 C605 0.930 . S
H633 C606 0.931 . S
H634 C608 0.934 . S
H635 C609 0.930 . S
H636 C614 0.930 . S
H637 C615 0.931 . S
H638 C617 0.934 . S
H639 C618 0.930 . S
Ho640 C643 2.811 . S
Ho640 O660 2.322 . S
Ho640 O662 2.378 . S
Ho640 O663 2.524 . S
Ho640 O664 2.381 . S
Ho640 O665 2.669 . S
Ho640 O667 2.346 . S
Ho640 O671 2.305 . S
Ho641 C652 2.811 1_556 S
Ho641 O661 2.346 . S
Ho641 O665 2.305 . S
Ho641 O666 2.322 . S
Ho641 O668 2.378 1_556 S
Ho641 O669 2.524 1_556 S
Ho641 O670 2.381 . S
Ho641 O671 2.669 . S
C642 O660 1.259 . S
C642 O661 1.268 . S
C643 Ho640 2.811 . S
C643 C644 1.488 . S
C643 O662 1.215 . S
C643 O663 1.289 . S
C644 C643 1.488 . S
C644 C645 1.348 . S
C644 C649 1.413 . S
C645 C644 1.348 . S
C645 C646 1.442 . S
C645 H672 0.930 . S
C646 C645 1.442 . S
C646 C647 1.381 . S
C646 H673 0.931 . S
C647 C646 1.381 . S
C647 C648 1.321 . S
C648 C647 1.321 . S
C648 C649 1.403 . S
C648 H674 0.934 . S
C649 C644 1.413 . S
C649 C648 1.403 . S
C649 H675 0.930 . S
C650 O664 1.275 . S
C650 O665 1.256 . S
C651 O666 1.259 . S
C651 O667 1.268 . S
C652 Ho641 2.811 1_554 S
C652 C653 1.488 . S
C652 O668 1.215 . S
C652 O669 1.289 . S
C653 C652 1.488 . S
C653 C654 1.348 . S
C653 C658 1.413 . S
C654 C653 1.348 . S
C654 C655 1.442 . S
C654 H676 0.930 . S
C655 C654 1.442 . S
C655 C656 1.381 . S
C655 H677 0.931 . S
C656 C655 1.381 . S
C656 C657 1.321 . S
C657 C656 1.321 . S
C657 C658 1.403 . S
C657 H678 0.934 . S
C658 C653 1.413 . S
C658 C657 1.403 . S
C658 H679 0.930 . S
C659 O670 1.275 . S
C659 O671 1.256 . S
O660 Ho640 2.322 . S
O660 C642 1.259 . S
O661 Ho641 2.346 . S
O661 C642 1.268 . S
O662 Ho640 2.378 . S
O662 C643 1.215 . S
O663 Ho640 2.524 . S
O663 C643 1.289 . S
O664 Ho640 2.381 . S
O664 C650 1.275 . S
O665 Ho640 2.669 . S
O665 Ho641 2.305 . S
O665 C650 1.256 . S
O666 Ho641 2.322 . S
O666 C651 1.259 . S
O667 Ho640 2.346 . S
O667 C651 1.268 . S
O668 Ho641 2.378 1_554 S
O668 C652 1.215 . S
O669 Ho641 2.524 1_554 S
O669 C652 1.289 . S
O670 Ho641 2.381 . S
O670 C659 1.275 . S
O671 Ho640 2.305 . S
O671 Ho641 2.669 . S
O671 C659 1.256 . S
H672 C645 0.930 . S
H673 C646 0.931 . S
H674 C648 0.934 . S
H675 C649 0.930 . S
H676 C654 0.930 . S
H677 C655 0.931 . S
H678 C657 0.934 . S
H679 C658 0.930 . S
Ho680 C683 2.811 . S
Ho680 O700 2.322 . S
Ho680 O702 2.378 . S
Ho680 O703 2.524 . S
Ho680 O704 2.381 . S
Ho680 O705 2.669 . S
Ho680 O707 2.346 . S
Ho680 O711 2.305 . S
Ho681 C692 2.811 1_556 S
Ho681 O701 2.346 . S
Ho681 O705 2.305 . S
Ho681 O706 2.322 . S
Ho681 O708 2.378 1_556 S
Ho681 O709 2.524 1_556 S
Ho681 O710 2.381 . S
Ho681 O711 2.669 . S
C682 O700 1.259 . S
C682 O701 1.268 . S
C683 Ho680 2.811 . S
C683 C684 1.488 . S
C683 O702 1.215 . S
C683 O703 1.289 . S
C684 C683 1.488 . S
C684 C685 1.348 . S
C684 C689 1.413 . S
C685 C684 1.348 . S
C685 C686 1.442 . S
C685 H712 0.930 . S
C686 C685 1.442 . S
C686 C687 1.381 . S
C686 H713 0.931 . S
C687 C686 1.381 . S
C687 C688 1.321 . S
C688 C687 1.321 . S
C688 C689 1.403 . S
C688 H714 0.934 . S
C689 C684 1.413 . S
C689 C688 1.403 . S
C689 H715 0.930 . S
C690 O704 1.275 . S
C690 O705 1.256 . S
C691 O706 1.259 . S
C691 O707 1.268 . S
C692 Ho681 2.811 1_554 S
C692 C693 1.488 . S
C692 O708 1.215 . S
C692 O709 1.289 . S
C693 C692 1.488 . S
C693 C694 1.348 . S
C693 C698 1.413 . S
C694 C693 1.348 . S
C694 C695 1.442 . S
C694 H716 0.930 . S
C695 C694 1.442 . S
C695 C696 1.381 . S
C695 H717 0.931 . S
C696 C695 1.381 . S
C696 C697 1.321 . S
C697 C696 1.321 . S
C697 C698 1.403 . S
C697 H718 0.934 . S
C698 C693 1.413 . S
C698 C697 1.403 . S
C698 H719 0.930 . S
C699 O710 1.275 . S
C699 O711 1.256 . S
O700 Ho680 2.322 . S
O700 C682 1.259 . S
O701 Ho681 2.346 . S
O701 C682 1.268 . S
O702 Ho680 2.378 . S
O702 C683 1.215 . S
O703 Ho680 2.524 . S
O703 C683 1.289 . S
O704 Ho680 2.381 . S
O704 C690 1.275 . S
O705 Ho680 2.669 . S
O705 Ho681 2.305 . S
O705 C690 1.256 . S
O706 Ho681 2.322 . S
O706 C691 1.259 . S
O707 Ho680 2.346 . S
O707 C691 1.268 . S
O708 Ho681 2.378 1_554 S
O708 C692 1.215 . S
O709 Ho681 2.524 1_554 S
O709 C692 1.289 . S
O710 Ho681 2.381 . S
O710 C699 1.275 . S
O711 Ho680 2.305 . S
O711 Ho681 2.669 . S
O711 C699 1.256 . S
H712 C685 0.930 . S
H713 C686 0.931 . S
H714 C688 0.934 . S
H715 C689 0.930 . S
H716 C694 0.930 . S
H717 C695 0.931 . S
H718 C697 0.934 . S
H719 C698 0.930 . S
Ho720 C723 2.811 . S
Ho720 O740 2.322 . S
Ho720 O742 2.378 . S
Ho720 O743 2.524 . S
Ho720 O744 2.381 . S
Ho720 O745 2.669 . S
Ho720 O747 2.346 . S
Ho720 O751 2.305 . S
Ho721 C732 2.811 . S
Ho721 O741 2.346 . S
Ho721 O745 2.305 . S
Ho721 O746 2.322 . S
Ho721 O748 2.378 . S
Ho721 O749 2.524 . S
Ho721 O750 2.381 . S
Ho721 O751 2.669 . S
C722 O740 1.259 . S
C722 O741 1.268 . S
C723 Ho720 2.811 . S
C723 C724 1.488 . S
C723 O742 1.215 . S
C723 O743 1.289 . S
C724 C723 1.488 . S
C724 C725 1.348 . S
C724 C729 1.413 . S
C725 C724 1.348 . S
C725 C726 1.442 . S
C725 H752 0.930 . S
C726 C725 1.442 . S
C726 C727 1.381 . S
C726 H753 0.931 . S
C727 C726 1.381 . S
C727 C728 1.321 . S
C728 C727 1.321 . S
C728 C729 1.403 . S
C728 H754 0.934 . S
C729 C724 1.413 . S
C729 C728 1.403 . S
C729 H755 0.930 . S
C730 O744 1.275 . S
C730 O745 1.256 . S
C731 O746 1.259 . S
C731 O747 1.268 . S
C732 Ho721 2.811 . S
C732 C733 1.488 . S
C732 O748 1.215 . S
C732 O749 1.289 . S
C733 C732 1.488 . S
C733 C734 1.348 . S
C733 C738 1.413 . S
C734 C733 1.348 . S
C734 C735 1.442 . S
C734 H756 0.930 . S
C735 C734 1.442 . S
C735 C736 1.381 . S
C735 H757 0.931 . S
C736 C735 1.381 . S
C736 C737 1.321 . S
C737 C736 1.321 . S
C737 C738 1.403 . S
C737 H758 0.934 . S
C738 C733 1.413 . S
C738 C737 1.403 . S
C738 H759 0.930 . S
C739 O750 1.275 . S
C739 O751 1.256 . S
O740 Ho720 2.322 . S
O740 C722 1.259 . S
O741 Ho721 2.346 . S
O741 C722 1.268 . S
O742 Ho720 2.378 . S
O742 C723 1.215 . S
O743 Ho720 2.524 . S
O743 C723 1.289 . S
O744 Ho720 2.381 . S
O744 C730 1.275 . S
O745 Ho720 2.669 . S
O745 Ho721 2.305 . S
O745 C730 1.256 . S
O746 Ho721 2.322 . S
O746 C731 1.259 . S
O747 Ho720 2.346 . S
O747 C731 1.268 . S
O748 Ho721 2.378 . S
O748 C732 1.215 . S
O749 Ho721 2.524 . S
O749 C732 1.289 . S
O750 Ho721 2.381 . S
O750 C739 1.275 . S
O751 Ho720 2.305 . S
O751 Ho721 2.669 . S
O751 C739 1.256 . S
H752 C725 0.930 . S
H753 C726 0.931 . S
H754 C728 0.934 . S
H755 C729 0.930 . S
H756 C734 0.930 . S
H757 C735 0.931 . S
H758 C737 0.934 . S
H759 C738 0.930 . S
Ho760 C763 2.811 . S
Ho760 O780 2.322 . S
Ho760 O782 2.378 . S
Ho760 O783 2.524 . S
Ho760 O784 2.381 . S
Ho760 O785 2.669 . S
Ho760 O787 2.346 . S
Ho760 O791 2.305 . S
Ho761 C772 2.811 . S
Ho761 O781 2.346 . S
Ho761 O785 2.305 . S
Ho761 O786 2.322 . S
Ho761 O788 2.378 . S
Ho761 O789 2.524 . S
Ho761 O790 2.381 . S
Ho761 O791 2.669 . S
C762 O780 1.259 . S
C762 O781 1.268 . S
C763 Ho760 2.811 . S
C763 C764 1.488 . S
C763 O782 1.215 . S
C763 O783 1.289 . S
C764 C763 1.488 . S
C764 C765 1.348 . S
C764 C769 1.413 . S
C765 C764 1.348 . S
C765 C766 1.442 . S
C765 H792 0.930 . S
C766 C765 1.442 . S
C766 C767 1.381 . S
C766 H793 0.931 . S
C767 C766 1.381 . S
C767 C768 1.321 . S
C768 C767 1.321 . S
C768 C769 1.403 . S
C768 H794 0.934 . S
C769 C764 1.413 . S
C769 C768 1.403 . S
C769 H795 0.930 . S
C770 O784 1.275 . S
C770 O785 1.256 . S
C771 O786 1.259 . S
C771 O787 1.268 . S
C772 Ho761 2.811 . S
C772 C773 1.488 . S
C772 O788 1.215 . S
C772 O789 1.289 . S
C773 C772 1.488 . S
C773 C774 1.348 . S
C773 C778 1.413 . S
C774 C773 1.348 . S
C774 C775 1.442 . S
C774 H796 0.930 . S
C775 C774 1.442 . S
C775 C776 1.381 . S
C775 H797 0.931 . S
C776 C775 1.381 . S
C776 C777 1.321 . S
C777 C776 1.321 . S
C777 C778 1.403 . S
C777 H798 0.934 . S
C778 C773 1.413 . S
C778 C777 1.403 . S
C778 H799 0.930 . S
C779 O790 1.275 . S
C779 O791 1.256 . S
O780 Ho760 2.322 . S
O780 C762 1.259 . S
O781 Ho761 2.346 . S
O781 C762 1.268 . S
O782 Ho760 2.378 . S
O782 C763 1.215 . S
O783 Ho760 2.524 . S
O783 C763 1.289 . S
O784 Ho760 2.381 . S
O784 C770 1.275 . S
O785 Ho760 2.669 . S
O785 Ho761 2.305 . S
O785 C770 1.256 . S
O786 Ho761 2.322 . S
O786 C771 1.259 . S
O787 Ho760 2.346 . S
O787 C771 1.268 . S
O788 Ho761 2.378 . S
O788 C772 1.215 . S
O789 Ho761 2.524 . S
O789 C772 1.289 . S
O790 Ho761 2.381 . S
O790 C779 1.275 . S
O791 Ho760 2.305 . S
O791 Ho761 2.669 . S
O791 C779 1.256 . S
H792 C765 0.930 . S
H793 C766 0.931 . S
H794 C768 0.934 . S
H795 C769 0.930 . S
H796 C774 0.930 . S
H797 C775 0.931 . S
H798 C777 0.934 . S
H799 C778 0.930 . S
Ho800 C803 2.811 . S
Ho800 O820 2.322 . S
Ho800 O822 2.378 . S
Ho800 O823 2.524 . S
Ho800 O824 2.381 . S
Ho800 O825 2.669 . S
Ho800 O827 2.346 . S
Ho800 O831 2.305 . S
Ho801 C812 2.811 . S
Ho801 O821 2.346 . S
Ho801 O825 2.305 . S
Ho801 O826 2.322 . S
Ho801 O828 2.378 . S
Ho801 O829 2.524 . S
Ho801 O830 2.381 . S
Ho801 O831 2.669 . S
C802 O820 1.259 . S
C802 O821 1.268 . S
C803 Ho800 2.811 . S
C803 C804 1.488 . S
C803 O822 1.215 . S
C803 O823 1.289 . S
C804 C803 1.488 . S
C804 C805 1.348 . S
C804 C809 1.413 . S
C805 C804 1.348 . S
C805 C806 1.442 . S
C805 H832 0.930 . S
C806 C805 1.442 . S
C806 C807 1.381 . S
C806 H833 0.931 . S
C807 C806 1.381 . S
C807 C808 1.321 . S
C808 C807 1.321 . S
C808 C809 1.403 . S
C808 H834 0.934 . S
C809 C804 1.413 . S
C809 C808 1.403 . S
C809 H835 0.930 . S
C810 O824 1.275 . S
C810 O825 1.256 . S
C811 O826 1.259 . S
C811 O827 1.268 . S
C812 Ho801 2.811 . S
C812 C813 1.488 . S
C812 O828 1.215 . S
C812 O829 1.289 . S
C813 C812 1.488 . S
C813 C814 1.348 . S
C813 C818 1.413 . S
C814 C813 1.348 . S
C814 C815 1.442 . S
C814 H836 0.930 . S
C815 C814 1.442 . S
C815 C816 1.381 . S
C815 H837 0.931 . S
C816 C815 1.381 . S
C816 C817 1.321 . S
C817 C816 1.321 . S
C817 C818 1.403 . S
C817 H838 0.934 . S
C818 C813 1.413 . S
C818 C817 1.403 . S
C818 H839 0.930 . S
C819 O830 1.275 . S
C819 O831 1.256 . S
O820 Ho800 2.322 . S
O820 C802 1.259 . S
O821 Ho801 2.346 . S
O821 C802 1.268 . S
O822 Ho800 2.378 . S
O822 C803 1.215 . S
O823 Ho800 2.524 . S
O823 C803 1.289 . S
O824 Ho800 2.381 . S
O824 C810 1.275 . S
O825 Ho800 2.669 . S
O825 Ho801 2.305 . S
O825 C810 1.256 . S
O826 Ho801 2.322 . S
O826 C811 1.259 . S
O827 Ho800 2.346 . S
O827 C811 1.268 . S
O828 Ho801 2.378 . S
O828 C812 1.215 . S
O829 Ho801 2.524 . S
O829 C812 1.289 . S
O830 Ho801 2.381 . S
O830 C819 1.275 . S
O831 Ho800 2.305 . S
O831 Ho801 2.669 . S
O831 C819 1.256 . S
H832 C805 0.930 . S
H833 C806 0.931 . S
H834 C808 0.934 . S
H835 C809 0.930 . S
H836 C814 0.930 . S
H837 C815 0.931 . S
H838 C817 0.934 . S
H839 C818 0.930 . S
Ho840 C843 2.811 . S
Ho840 O860 2.322 . S
Ho840 O862 2.378 . S
Ho840 O863 2.524 . S
Ho840 O864 2.381 . S
Ho840 O865 2.669 1_556 S
Ho840 O867 2.346 1_556 S
Ho840 O871 2.305 . S
Ho841 C852 2.811 . S
Ho841 O861 2.346 1_554 S
Ho841 O865 2.305 . S
Ho841 O866 2.322 . S
Ho841 O868 2.378 . S
Ho841 O869 2.524 . S
Ho841 O870 2.381 . S
Ho841 O871 2.669 1_554 S
C842 O860 1.259 . S
C842 O861 1.268 . S
C843 Ho840 2.811 . S
C843 C844 1.488 . S
C843 O862 1.215 . S
C843 O863 1.289 . S
C844 C843 1.488 . S
C844 C845 1.348 . S
C844 C849 1.413 . S
C845 C844 1.348 . S
C845 C846 1.442 . S
C845 H872 0.930 . S
C846 C845 1.442 . S
C846 C847 1.381 . S
C846 H873 0.931 . S
C847 C846 1.381 . S
C847 C848 1.321 . S
C848 C847 1.321 . S
C848 C849 1.403 . S
C848 H874 0.934 . S
C849 C844 1.413 . S
C849 C848 1.403 . S
C849 H875 0.930 . S
C850 O864 1.275 1_554 S
C850 O865 1.256 . S
C851 O866 1.259 . S
C851 O867 1.268 . S
C852 Ho841 2.811 . S
C852 C853 1.488 . S
C852 O868 1.215 . S
C852 O869 1.289 . S
C853 C852 1.488 . S
C853 C854 1.348 . S
C853 C858 1.413 . S
C854 C853 1.348 . S
C854 C855 1.442 . S
C854 H876 0.930 . S
C855 C854 1.442 . S
C855 C856 1.381 . S
C855 H877 0.931 . S
C856 C855 1.381 . S
C856 C857 1.321 . S
C857 C856 1.321 . S
C857 C858 1.403 . S
C857 H878 0.934 . S
C858 C853 1.413 . S
C858 C857 1.403 . S
C858 H879 0.930 . S
C859 O870 1.275 1_556 S
C859 O871 1.256 . S
O860 Ho840 2.322 . S
O860 C842 1.259 . S
O861 Ho841 2.346 1_556 S
O861 C842 1.268 . S
O862 Ho840 2.378 . S
O862 C843 1.215 . S
O863 Ho840 2.524 . S
O863 C843 1.289 . S
O864 Ho840 2.381 . S
O864 C850 1.275 1_556 S
O865 Ho840 2.669 1_554 S
O865 Ho841 2.305 . S
O865 C850 1.256 . S
O866 Ho841 2.322 . S
O866 C851 1.259 . S
O867 Ho840 2.346 1_554 S
O867 C851 1.268 . S
O868 Ho841 2.378 . S
O868 C852 1.215 . S
O869 Ho841 2.524 . S
O869 C852 1.289 . S
O870 Ho841 2.381 . S
O870 C859 1.275 1_554 S
O871 Ho840 2.305 . S
O871 Ho841 2.669 1_556 S
O871 C859 1.256 . S
H872 C845 0.930 . S
H873 C846 0.931 . S
H874 C848 0.934 . S
H875 C849 0.930 . S
H876 C854 0.930 . S
H877 C855 0.931 . S
H878 C857 0.934 . S
H879 C858 0.930 . S
Ho880 C883 2.811 . S
Ho880 O900 2.322 . S
Ho880 O902 2.378 . S
Ho880 O903 2.524 . S
Ho880 O904 2.381 . S
Ho880 O905 2.669 1_556 S
Ho880 O907 2.346 1_556 S
Ho880 O911 2.305 . S
Ho881 C892 2.811 . S
Ho881 O901 2.346 1_554 S
Ho881 O905 2.305 . S
Ho881 O906 2.322 . S
Ho881 O908 2.378 . S
Ho881 O909 2.524 . S
Ho881 O910 2.381 . S
Ho881 O911 2.669 1_554 S
C882 O900 1.259 . S
C882 O901 1.268 . S
C883 Ho880 2.811 . S
C883 C884 1.488 . S
C883 O902 1.215 . S
C883 O903 1.289 . S
C884 C883 1.488 . S
C884 C885 1.348 . S
C884 C889 1.413 . S
C885 C884 1.348 . S
C885 C886 1.442 . S
C885 H912 0.930 . S
C886 C885 1.442 . S
C886 C887 1.381 . S
C886 H913 0.931 . S
C887 C886 1.381 . S
C887 C888 1.321 . S
C888 C887 1.321 . S
C888 C889 1.403 . S
C888 H914 0.934 . S
C889 C884 1.413 . S
C889 C888 1.403 . S
C889 H915 0.930 . S
C890 O904 1.275 1_554 S
C890 O905 1.256 . S
C891 O906 1.259 . S
C891 O907 1.268 . S
C892 Ho881 2.811 . S
C892 C893 1.488 . S
C892 O908 1.215 . S
C892 O909 1.289 . S
C893 C892 1.488 . S
C893 C894 1.348 . S
C893 C898 1.413 . S
C894 C893 1.348 . S
C894 C895 1.442 . S
C894 H916 0.930 . S
C895 C894 1.442 . S
C895 C896 1.381 . S
C895 H917 0.931 . S
C896 C895 1.381 . S
C896 C897 1.321 . S
C897 C896 1.321 . S
C897 C898 1.403 . S
C897 H918 0.934 . S
C898 C893 1.413 . S
C898 C897 1.403 . S
C898 H919 0.930 . S
C899 O910 1.275 1_556 S
C899 O911 1.256 . S
O900 Ho880 2.322 . S
O900 C882 1.259 . S
O901 Ho881 2.346 1_556 S
O901 C882 1.268 . S
O902 Ho880 2.378 . S
O902 C883 1.215 . S
O903 Ho880 2.524 . S
O903 C883 1.289 . S
O904 Ho880 2.381 . S
O904 C890 1.275 1_556 S
O905 Ho880 2.669 1_554 S
O905 Ho881 2.305 . S
O905 C890 1.256 . S
O906 Ho881 2.322 . S
O906 C891 1.259 . S
O907 Ho880 2.346 1_554 S
O907 C891 1.268 . S
O908 Ho881 2.378 . S
O908 C892 1.215 . S
O909 Ho881 2.524 . S
O909 C892 1.289 . S
O910 Ho881 2.381 . S
O910 C899 1.275 1_554 S
O911 Ho880 2.305 . S
O911 Ho881 2.669 1_556 S
O911 C899 1.256 . S
H912 C885 0.930 . S
H913 C886 0.931 . S
H914 C888 0.934 . S
H915 C889 0.930 . S
H916 C894 0.930 . S
H917 C895 0.931 . S
H918 C897 0.934 . S
H919 C898 0.930 . S
Ho920 C923 2.811 . S
Ho920 O940 2.322 . S
Ho920 O942 2.378 . S
Ho920 O943 2.524 . S
Ho920 O944 2.381 . S
Ho920 O945 2.669 1_556 S
Ho920 O947 2.346 1_556 S
Ho920 O951 2.305 . S
Ho921 C932 2.811 . S
Ho921 O941 2.346 1_554 S
Ho921 O945 2.305 . S
Ho921 O946 2.322 . S
Ho921 O948 2.378 . S
Ho921 O949 2.524 . S
Ho921 O950 2.381 . S
Ho921 O951 2.669 1_554 S
C922 O940 1.259 . S
C922 O941 1.268 . S
C923 Ho920 2.811 . S
C923 C924 1.488 . S
C923 O942 1.215 . S
C923 O943 1.289 . S
C924 C923 1.488 . S
C924 C925 1.348 . S
C924 C929 1.413 . S
C925 C924 1.348 . S
C925 C926 1.442 . S
C925 H952 0.930 . S
C926 C925 1.442 . S
C926 C927 1.381 . S
C926 H953 0.931 . S
C927 C926 1.381 . S
C927 C928 1.321 . S
C928 C927 1.321 . S
C928 C929 1.403 . S
C928 H954 0.934 . S
C929 C924 1.413 . S
C929 C928 1.403 . S
C929 H955 0.930 . S
C930 O944 1.275 1_554 S
C930 O945 1.256 . S
C931 O946 1.259 . S
C931 O947 1.268 . S
C932 Ho921 2.811 . S
C932 C933 1.488 . S
C932 O948 1.215 . S
C932 O949 1.289 . S
C933 C932 1.488 . S
C933 C934 1.348 . S
C933 C938 1.413 . S
C934 C933 1.348 . S
C934 C935 1.442 . S
C934 H956 0.930 . S
C935 C934 1.442 . S
C935 C936 1.381 . S
C935 H957 0.931 . S
C936 C935 1.381 . S
C936 C937 1.321 . S
C937 C936 1.321 . S
C937 C938 1.403 . S
C937 H958 0.934 . S
C938 C933 1.413 . S
C938 C937 1.403 . S
C938 H959 0.930 . S
C939 O950 1.275 1_556 S
C939 O951 1.256 . S
O940 Ho920 2.322 . S
O940 C922 1.259 . S
O941 Ho921 2.346 1_556 S
O941 C922 1.268 . S
O942 Ho920 2.378 . S
O942 C923 1.215 . S
O943 Ho920 2.524 . S
O943 C923 1.289 . S
O944 Ho920 2.381 . S
O944 C930 1.275 1_556 S
O945 Ho920 2.669 1_554 S
O945 Ho921 2.305 . S
O945 C930 1.256 . S
O946 Ho921 2.322 . S
O946 C931 1.259 . S
O947 Ho920 2.346 1_554 S
O947 C931 1.268 . S
O948 Ho921 2.378 . S
O948 C932 1.215 . S
O949 Ho921 2.524 . S
O949 C932 1.289 . S
O950 Ho921 2.381 . S
O950 C939 1.275 1_554 S
O951 Ho920 2.305 . S
O951 Ho921 2.669 1_556 S
O951 C939 1.256 . S
H952 C925 0.930 . S
H953 C926 0.931 . S
H954 C928 0.934 . S
H955 C929 0.930 . S
H956 C934 0.930 . S
H957 C935 0.931 . S
H958 C937 0.934 . S
H959 C938 0.930 . S
Ho960 C963 2.811 . S
Ho960 O980 2.322 . S
Ho960 O982 2.378 . S
Ho960 O983 2.524 . S
Ho960 O984 2.381 . S
Ho960 O985 2.669 . S
Ho960 O987 2.346 . S
Ho960 O991 2.305 . S
Ho961 C972 2.811 . S
Ho961 O981 2.346 . S
Ho961 O985 2.305 . S
Ho961 O986 2.322 . S
Ho961 O988 2.378 . S
Ho961 O989 2.524 . S
Ho961 O990 2.381 . S
Ho961 O991 2.669 . S
C962 O980 1.259 . S
C962 O981 1.268 . S
C963 Ho960 2.811 . S
C963 C964 1.488 . S
C963 O982 1.215 . S
C963 O983 1.289 . S
C964 C963 1.488 . S
C964 C965 1.348 1_556 S
C964 C969 1.413 . S
C965 C964 1.348 1_554 S
C965 C966 1.442 . S
C965 H992 0.930 1_554 S
C966 C965 1.442 . S
C966 C967 1.381 . S
C966 H993 0.931 . S
C967 C966 1.381 . S
C967 C968 1.321 . S
C968 C967 1.321 . S
C968 C969 1.403 1_554 S
C968 H994 0.934 . S
C969 C964 1.413 . S
C969 C968 1.403 1_556 S
C969 H995 0.930 . S
C970 O984 1.275 . S
C970 O985 1.256 . S
C971 O986 1.259 . S
C971 O987 1.268 . S
C972 Ho961 2.811 . S
C972 C973 1.488 . S
C972 O988 1.215 . S
C972 O989 1.289 . S
C973 C972 1.488 . S
C973 C974 1.348 . S
C973 C978 1.413 . S
C974 C973 1.348 . S
C974 C975 1.442 . S
C974 H996 0.930 . S
C975 C974 1.442 . S
C975 C976 1.381 . S
C975 H997 0.931 . S
C976 C975 1.381 . S
C976 C977 1.321 . S
C977 C976 1.321 . S
C977 C978 1.403 . S
C977 H998 0.934 . S
C978 C973 1.413 . S
C978 C977 1.403 . S
C978 H999 0.930 . S
C979 O990 1.275 . S
C979 O991 1.256 . S
O980 Ho960 2.322 . S
O980 C962 1.259 . S
O981 Ho961 2.346 . S
O981 C962 1.268 . S
O982 Ho960 2.378 . S
O982 C963 1.215 . S
O983 Ho960 2.524 . S
O983 C963 1.289 . S
O984 Ho960 2.381 . S
O984 C970 1.275 . S
O985 Ho960 2.669 . S
O985 Ho961 2.305 . S
O985 C970 1.256 . S
O986 Ho961 2.322 . S
O986 C971 1.259 . S
O987 Ho960 2.346 . S
O987 C971 1.268 . S
O988 Ho961 2.378 . S
O988 C972 1.215 . S
O989 Ho961 2.524 . S
O989 C972 1.289 . S
O990 Ho961 2.381 . S
O990 C979 1.275 . S
O991 Ho960 2.305 . S
O991 Ho961 2.669 . S
O991 C979 1.256 . S
H992 C965 0.930 1_556 S
H993 C966 0.931 . S
H994 C968 0.934 . S
H995 C969 0.930 . S
H996 C974 0.930 . S
H997 C975 0.931 . S
H998 C977 0.934 . S
H999 C978 0.930 . S
Ho1000 C1003 2.811 . S
Ho1000 O1020 2.322 . S
Ho1000 O1022 2.378 . S
Ho1000 O1023 2.524 . S
Ho1000 O1024 2.381 . S
Ho1000 O1025 2.669 . S
Ho1000 O1027 2.346 . S
Ho1000 O1031 2.305 . S
Ho1001 C1012 2.811 . S
Ho1001 O1021 2.346 . S
Ho1001 O1025 2.305 . S
Ho1001 O1026 2.322 . S
Ho1001 O1028 2.378 . S
Ho1001 O1029 2.524 . S
Ho1001 O1030 2.381 . S
Ho1001 O1031 2.669 . S
C1002 O1020 1.259 . S
C1002 O1021 1.268 . S
C1003 Ho1000 2.811 . S
C1003 C1004 1.488 . S
C1003 O1022 1.215 . S
C1003 O1023 1.289 . S
C1004 C1003 1.488 . S
C1004 C1005 1.348 1_556 S
C1004 C1009 1.413 . S
C1005 C1004 1.348 1_554 S
C1005 C1006 1.442 . S
C1005 H1032 0.930 1_554 S
C1006 C1005 1.442 . S
C1006 C1007 1.381 . S
C1006 H1033 0.931 . S
C1007 C1006 1.381 . S
C1007 C1008 1.321 . S
C1008 C1007 1.321 . S
C1008 C1009 1.403 1_554 S
C1008 H1034 0.934 . S
C1009 C1004 1.413 . S
C1009 C1008 1.403 1_556 S
C1009 H1035 0.930 . S
C1010 O1024 1.275 . S
C1010 O1025 1.256 . S
C1011 O1026 1.259 . S
C1011 O1027 1.268 . S
C1012 Ho1001 2.811 . S
C1012 C1013 1.488 . S
C1012 O1028 1.215 . S
C1012 O1029 1.289 . S
C1013 C1012 1.488 . S
C1013 C1014 1.348 . S
C1013 C1018 1.413 . S
C1014 C1013 1.348 . S
C1014 C1015 1.442 . S
C1014 H1036 0.930 . S
C1015 C1014 1.442 . S
C1015 C1016 1.381 . S
C1015 H1037 0.931 . S
C1016 C1015 1.381 . S
C1016 C1017 1.321 . S
C1017 C1016 1.321 . S
C1017 C1018 1.403 . S
C1017 H1038 0.934 . S
C1018 C1013 1.413 . S
C1018 C1017 1.403 . S
C1018 H1039 0.930 . S
C1019 O1030 1.275 . S
C1019 O1031 1.256 . S
O1020 Ho1000 2.322 . S
O1020 C1002 1.259 . S
O1021 Ho1001 2.346 . S
O1021 C1002 1.268 . S
O1022 Ho1000 2.378 . S
O1022 C1003 1.215 . S
O1023 Ho1000 2.524 . S
O1023 C1003 1.289 . S
O1024 Ho1000 2.381 . S
O1024 C1010 1.275 . S
O1025 Ho1000 2.669 . S
O1025 Ho1001 2.305 . S
O1025 C1010 1.256 . S
O1026 Ho1001 2.322 . S
O1026 C1011 1.259 . S
O1027 Ho1000 2.346 . S
O1027 C1011 1.268 . S
O1028 Ho1001 2.378 . S
O1028 C1012 1.215 . S
O1029 Ho1001 2.524 . S
O1029 C1012 1.289 . S
O1030 Ho1001 2.381 . S
O1030 C1019 1.275 . S
O1031 Ho1000 2.305 . S
O1031 Ho1001 2.669 . S
O1031 C1019 1.256 . S
H1032 C1005 0.930 1_556 S
H1033 C1006 0.931 . S
H1034 C1008 0.934 . S
H1035 C1009 0.930 . S
H1036 C1014 0.930 . S
H1037 C1015 0.931 . S
H1038 C1017 0.934 . S
H1039 C1018 0.930 . S
Ho1040 C1043 2.811 . S
Ho1040 O1060 2.322 . S
Ho1040 O1062 2.378 . S
Ho1040 O1063 2.524 . S
Ho1040 O1064 2.381 . S
Ho1040 O1065 2.669 . S
Ho1040 O1067 2.346 . S
Ho1040 O1071 2.305 . S
Ho1041 C1052 2.811 . S
Ho1041 O1061 2.346 . S
Ho1041 O1065 2.305 . S
Ho1041 O1066 2.322 . S
Ho1041 O1068 2.378 . S
Ho1041 O1069 2.524 . S
Ho1041 O1070 2.381 . S
Ho1041 O1071 2.669 . S
C1042 O1060 1.259 . S
C1042 O1061 1.268 . S
C1043 Ho1040 2.811 . S
C1043 C1044 1.488 . S
C1043 O1062 1.215 . S
C1043 O1063 1.289 . S
C1044 C1043 1.488 . S
C1044 C1045 1.348 1_556 S
C1044 C1049 1.413 . S
C1045 C1044 1.348 1_554 S
C1045 C1046 1.442 . S
C1045 H1072 0.930 1_554 S
C1046 C1045 1.442 . S
C1046 C1047 1.381 . S
C1046 H1073 0.931 . S
C1047 C1046 1.381 . S
C1047 C1048 1.321 . S
C1048 C1047 1.321 . S
C1048 C1049 1.403 1_554 S
C1048 H1074 0.934 . S
C1049 C1044 1.413 . S
C1049 C1048 1.403 1_556 S
C1049 H1075 0.930 . S
C1050 O1064 1.275 . S
C1050 O1065 1.256 . S
C1051 O1066 1.259 . S
C1051 O1067 1.268 . S
C1052 Ho1041 2.811 . S
C1052 C1053 1.488 . S
C1052 O1068 1.215 . S
C1052 O1069 1.289 . S
C1053 C1052 1.488 . S
C1053 C1054 1.348 . S
C1053 C1058 1.413 . S
C1054 C1053 1.348 . S
C1054 C1055 1.442 . S
C1054 H1076 0.930 . S
C1055 C1054 1.442 . S
C1055 C1056 1.381 . S
C1055 H1077 0.931 . S
C1056 C1055 1.381 . S
C1056 C1057 1.321 . S
C1057 C1056 1.321 . S
C1057 C1058 1.403 . S
C1057 H1078 0.934 . S
C1058 C1053 1.413 . S
C1058 C1057 1.403 . S
C1058 H1079 0.930 . S
C1059 O1070 1.275 . S
C1059 O1071 1.256 . S
O1060 Ho1040 2.322 . S
O1060 C1042 1.259 . S
O1061 Ho1041 2.346 . S
O1061 C1042 1.268 . S
O1062 Ho1040 2.378 . S
O1062 C1043 1.215 . S
O1063 Ho1040 2.524 . S
O1063 C1043 1.289 . S
O1064 Ho1040 2.381 . S
O1064 C1050 1.275 . S
O1065 Ho1040 2.669 . S
O1065 Ho1041 2.305 . S
O1065 C1050 1.256 . S
O1066 Ho1041 2.322 . S
O1066 C1051 1.259 . S
O1067 Ho1040 2.346 . S
O1067 C1051 1.268 . S
O1068 Ho1041 2.378 . S
O1068 C1052 1.215 . S
O1069 Ho1041 2.524 . S
O1069 C1052 1.289 . S
O1070 Ho1041 2.381 . S
O1070 C1059 1.275 . S
O1071 Ho1040 2.305 . S
O1071 Ho1041 2.669 . S
O1071 C1059 1.256 . S
H1072 C1045 0.930 1_556 S
H1073 C1046 0.931 . S
H1074 C1048 0.934 . S
H1075 C1049 0.930 . S
H1076 C1054 0.930 . S
H1077 C1055 0.931 . S
H1078 C1057 0.934 . S
H1079 C1058 0.930 . S
Ho1080 C1083 2.811 . S
Ho1080 O1100 2.322 . S
Ho1080 O1102 2.378 . S
Ho1080 O1103 2.524 . S
Ho1080 O1104 2.381 . S
Ho1080 O1105 2.669 . S
Ho1080 O1107 2.346 . S
Ho1080 O1111 2.305 . S
Ho1081 C1092 2.811 . S
Ho1081 O1101 2.346 . S
Ho1081 O1105 2.305 . S
Ho1081 O1106 2.322 . S
Ho1081 O1108 2.378 . S
Ho1081 O1109 2.524 . S
Ho1081 O1110 2.381 . S
Ho1081 O1111 2.669 . S
C1082 O1100 1.259 . S
C1082 O1101 1.268 . S
C1083 Ho1080 2.811 . S
C1083 C1084 1.488 . S
C1083 O1102 1.215 . S
C1083 O1103 1.289 . S
C1084 C1083 1.488 . S
C1084 C1085 1.348 . S
C1084 C1089 1.413 . S
C1085 C1084 1.348 . S
C1085 C1086 1.442 . S
C1085 H1112 0.930 . S
C1086 C1085 1.442 . S
C1086 C1087 1.381 . S
C1086 H1113 0.931 . S
C1087 C1086 1.381 . S
C1087 C1088 1.321 . S
C1088 C1087 1.321 . S
C1088 C1089 1.403 . S
C1088 H1114 0.934 . S
C1089 C1084 1.413 . S
C1089 C1088 1.403 . S
C1089 H1115 0.930 . S
C1090 O1104 1.275 . S
C1090 O1105 1.256 . S
C1091 O1106 1.259 . S
C1091 O1107 1.268 . S
C1092 Ho1081 2.811 . S
C1092 C1093 1.488 . S
C1092 O1108 1.215 . S
C1092 O1109 1.289 . S
C1093 C1092 1.488 . S
C1093 C1094 1.348 . S
C1093 C1098 1.413 . S
C1094 C1093 1.348 . S
C1094 C1095 1.442 . S
C1094 H1116 0.930 . S
C1095 C1094 1.442 . S
C1095 C1096 1.381 . S
C1095 H1117 0.931 . S
C1096 C1095 1.381 . S
C1096 C1097 1.321 . S
C1097 C1096 1.321 . S
C1097 C1098 1.403 . S
C1097 H1118 0.934 . S
C1098 C1093 1.413 . S
C1098 C1097 1.403 . S
C1098 H1119 0.930 . S
C1099 O1110 1.275 . S
C1099 O1111 1.256 . S
O1100 Ho1080 2.322 . S
O1100 C1082 1.259 . S
O1101 Ho1081 2.346 . S
O1101 C1082 1.268 . S
O1102 Ho1080 2.378 . S
O1102 C1083 1.215 . S
O1103 Ho1080 2.524 . S
O1103 C1083 1.289 . S
O1104 Ho1080 2.381 . S
O1104 C1090 1.275 . S
O1105 Ho1080 2.669 . S
O1105 Ho1081 2.305 . S
O1105 C1090 1.256 . S
O1106 Ho1081 2.322 . S
O1106 C1091 1.259 . S
O1107 Ho1080 2.346 . S
O1107 C1091 1.268 . S
O1108 Ho1081 2.378 . S
O1108 C1092 1.215 . S
O1109 Ho1081 2.524 . S
O1109 C1092 1.289 . S
O1110 Ho1081 2.381 . S
O1110 C1099 1.275 . S
O1111 Ho1080 2.305 . S
O1111 Ho1081 2.669 . S
O1111 C1099 1.256 . S
H1112 C1085 0.930 . S
H1113 C1086 0.931 . S
H1114 C1088 0.934 . S
H1115 C1089 0.930 . S
H1116 C1094 0.930 . S
H1117 C1095 0.931 . S
H1118 C1097 0.934 . S
H1119 C1098 0.930 . S
Ho1120 C1123 2.811 . S
Ho1120 O1140 2.322 . S
Ho1120 O1142 2.378 . S
Ho1120 O1143 2.524 . S
Ho1120 O1144 2.381 . S
Ho1120 O1145 2.669 . S
Ho1120 O1147 2.346 . S
Ho1120 O1151 2.305 . S
Ho1121 C1132 2.811 . S
Ho1121 O1141 2.346 . S
Ho1121 O1145 2.305 . S
Ho1121 O1146 2.322 . S
Ho1121 O1148 2.378 . S
Ho1121 O1149 2.524 . S
Ho1121 O1150 2.381 . S
Ho1121 O1151 2.669 . S
C1122 O1140 1.259 . S
C1122 O1141 1.268 . S
C1123 Ho1120 2.811 . S
C1123 C1124 1.488 . S
C1123 O1142 1.215 . S
C1123 O1143 1.289 . S
C1124 C1123 1.488 . S
C1124 C1125 1.348 . S
C1124 C1129 1.413 . S
C1125 C1124 1.348 . S
C1125 C1126 1.442 . S
C1125 H1152 0.930 . S
C1126 C1125 1.442 . S
C1126 C1127 1.381 . S
C1126 H1153 0.931 . S
C1127 C1126 1.381 . S
C1127 C1128 1.321 . S
C1128 C1127 1.321 . S
C1128 C1129 1.403 . S
C1128 H1154 0.934 . S
C1129 C1124 1.413 . S
C1129 C1128 1.403 . S
C1129 H1155 0.930 . S
C1130 O1144 1.275 . S
C1130 O1145 1.256 . S
C1131 O1146 1.259 . S
C1131 O1147 1.268 . S
C1132 Ho1121 2.811 . S
C1132 C1133 1.488 . S
C1132 O1148 1.215 . S
C1132 O1149 1.289 . S
C1133 C1132 1.488 . S
C1133 C1134 1.348 . S
C1133 C1138 1.413 . S
C1134 C1133 1.348 . S
C1134 C1135 1.442 . S
C1134 H1156 0.930 . S
C1135 C1134 1.442 . S
C1135 C1136 1.381 . S
C1135 H1157 0.931 . S
C1136 C1135 1.381 . S
C1136 C1137 1.321 . S
C1137 C1136 1.321 . S
C1137 C1138 1.403 . S
C1137 H1158 0.934 . S
C1138 C1133 1.413 . S
C1138 C1137 1.403 . S
C1138 H1159 0.930 . S
C1139 O1150 1.275 . S
C1139 O1151 1.256 . S
O1140 Ho1120 2.322 . S
O1140 C1122 1.259 . S
O1141 Ho1121 2.346 . S
O1141 C1122 1.268 . S
O1142 Ho1120 2.378 . S
O1142 C1123 1.215 . S
O1143 Ho1120 2.524 . S
O1143 C1123 1.289 . S
O1144 Ho1120 2.381 . S
O1144 C1130 1.275 . S
O1145 Ho1120 2.669 . S
O1145 Ho1121 2.305 . S
O1145 C1130 1.256 . S
O1146 Ho1121 2.322 . S
O1146 C1131 1.259 . S
O1147 Ho1120 2.346 . S
O1147 C1131 1.268 . S
O1148 Ho1121 2.378 . S
O1148 C1132 1.215 . S
O1149 Ho1121 2.524 . S
O1149 C1132 1.289 . S
O1150 Ho1121 2.381 . S
O1150 C1139 1.275 . S
O1151 Ho1120 2.305 . S
O1151 Ho1121 2.669 . S
O1151 C1139 1.256 . S
H1152 C1125 0.930 . S
H1153 C1126 0.931 . S
H1154 C1128 0.934 . S
H1155 C1129 0.930 . S
H1156 C1134 0.930 . S
H1157 C1135 0.931 . S
H1158 C1137 0.934 . S
H1159 C1138 0.930 . S
Ho1160 C1163 2.811 . S
Ho1160 O1180 2.322 . S
Ho1160 O1182 2.378 . S
Ho1160 O1183 2.524 . S
Ho1160 O1184 2.381 . S
Ho1160 O1185 2.669 . S
Ho1160 O1187 2.346 . S
Ho1160 O1191 2.305 . S
Ho1161 C1172 2.811 . S
Ho1161 O1181 2.346 . S
Ho1161 O1185 2.305 . S
Ho1161 O1186 2.322 . S
Ho1161 O1188 2.378 . S
Ho1161 O1189 2.524 . S
Ho1161 O1190 2.381 . S
Ho1161 O1191 2.669 . S
C1162 O1180 1.259 . S
C1162 O1181 1.268 . S
C1163 Ho1160 2.811 . S
C1163 C1164 1.488 . S
C1163 O1182 1.215 . S
C1163 O1183 1.289 . S
C1164 C1163 1.488 . S
C1164 C1165 1.348 . S
C1164 C1169 1.413 . S
C1165 C1164 1.348 . S
C1165 C1166 1.442 . S
C1165 H1192 0.930 . S
C1166 C1165 1.442 . S
C1166 C1167 1.381 . S
C1166 H1193 0.931 . S
C1167 C1166 1.381 . S
C1167 C1168 1.321 . S
C1168 C1167 1.321 . S
C1168 C1169 1.403 . S
C1168 H1194 0.934 . S
C1169 C1164 1.413 . S
C1169 C1168 1.403 . S
C1169 H1195 0.930 . S
C1170 O1184 1.275 . S
C1170 O1185 1.256 . S
C1171 O1186 1.259 . S
C1171 O1187 1.268 . S
C1172 Ho1161 2.811 . S
C1172 C1173 1.488 . S
C1172 O1188 1.215 . S
C1172 O1189 1.289 . S
C1173 C1172 1.488 . S
C1173 C1174 1.348 . S
C1173 C1178 1.413 . S
C1174 C1173 1.348 . S
C1174 C1175 1.442 . S
C1174 H1196 0.930 . S
C1175 C1174 1.442 . S
C1175 C1176 1.381 . S
C1175 H1197 0.931 . S
C1176 C1175 1.381 . S
C1176 C1177 1.321 . S
C1177 C1176 1.321 . S
C1177 C1178 1.403 . S
C1177 H1198 0.934 . S
C1178 C1173 1.413 . S
C1178 C1177 1.403 . S
C1178 H1199 0.930 . S
C1179 O1190 1.275 . S
C1179 O1191 1.256 . S
O1180 Ho1160 2.322 . S
O1180 C1162 1.259 . S
O1181 Ho1161 2.346 . S
O1181 C1162 1.268 . S
O1182 Ho1160 2.378 . S
O1182 C1163 1.215 . S
O1183 Ho1160 2.524 . S
O1183 C1163 1.289 . S
O1184 Ho1160 2.381 . S
O1184 C1170 1.275 . S
O1185 Ho1160 2.669 . S
O1185 Ho1161 2.305 . S
O1185 C1170 1.256 . S
O1186 Ho1161 2.322 . S
O1186 C1171 1.259 . S
O1187 Ho1160 2.346 . S
O1187 C1171 1.268 . S
O1188 Ho1161 2.378 . S
O1188 C1172 1.215 . S
O1189 Ho1161 2.524 . S
O1189 C1172 1.289 . S
O1190 Ho1161 2.381 . S
O1190 C1179 1.275 . S
O1191 Ho1160 2.305 . S
O1191 Ho1161 2.669 . S
O1191 C1179 1.256 . S
H1192 C1165 0.930 . S
H1193 C1166 0.931 . S
H1194 C1168 0.934 . S
H1195 C1169 0.930 . S
H1196 C1174 0.930 . S
H1197 C1175 0.931 . S
H1198 C1177 0.934 . S
H1199 C1178 0.930 . S
Ho1200 C1203 2.811 . S
Ho1200 O1220 2.322 . S
Ho1200 O1222 2.378 . S
Ho1200 O1223 2.524 . S
Ho1200 O1224 2.381 . S
Ho1200 O1225 2.669 . S
Ho1200 O1227 2.346 . S
Ho1200 O1231 2.305 . S
Ho1201 C1212 2.811 . S
Ho1201 O1221 2.346 . S
Ho1201 O1225 2.305 . S
Ho1201 O1226 2.322 . S
Ho1201 O1228 2.378 . S
Ho1201 O1229 2.524 . S
Ho1201 O1230 2.381 . S
Ho1201 O1231 2.669 . S
C1202 O1220 1.259 . S
C1202 O1221 1.268 . S
C1203 Ho1200 2.811 . S
C1203 C1204 1.488 . S
C1203 O1222 1.215 . S
C1203 O1223 1.289 . S
C1204 C1203 1.488 . S
C1204 C1205 1.348 . S
C1204 C1209 1.413 . S
C1205 C1204 1.348 . S
C1205 C1206 1.442 . S
C1205 H1232 0.930 . S
C1206 C1205 1.442 . S
C1206 C1207 1.381 . S
C1206 H1233 0.931 . S
C1207 C1206 1.381 . S
C1207 C1208 1.321 . S
C1208 C1207 1.321 . S
C1208 C1209 1.403 . S
C1208 H1234 0.934 . S
C1209 C1204 1.413 . S
C1209 C1208 1.403 . S
C1209 H1235 0.930 . S
C1210 O1224 1.275 . S
C1210 O1225 1.256 . S
C1211 O1226 1.259 . S
C1211 O1227 1.268 . S
C1212 Ho1201 2.811 . S
C1212 C1213 1.488 . S
C1212 O1228 1.215 . S
C1212 O1229 1.289 . S
C1213 C1212 1.488 . S
C1213 C1214 1.348 . S
C1213 C1218 1.413 . S
C1214 C1213 1.348 . S
C1214 C1215 1.442 . S
C1214 H1236 0.930 . S
C1215 C1214 1.442 . S
C1215 C1216 1.381 . S
C1215 H1237 0.931 . S
C1216 C1215 1.381 . S
C1216 C1217 1.321 . S
C1217 C1216 1.321 . S
C1217 C1218 1.403 . S
C1217 H1238 0.934 . S
C1218 C1213 1.413 . S
C1218 C1217 1.403 . S
C1218 H1239 0.930 . S
C1219 O1230 1.275 . S
C1219 O1231 1.256 . S
O1220 Ho1200 2.322 . S
O1220 C1202 1.259 . S
O1221 Ho1201 2.346 . S
O1221 C1202 1.268 . S
O1222 Ho1200 2.378 . S
O1222 C1203 1.215 . S
O1223 Ho1200 2.524 . S
O1223 C1203 1.289 . S
O1224 Ho1200 2.381 . S
O1224 C1210 1.275 . S
O1225 Ho1200 2.669 . S
O1225 Ho1201 2.305 . S
O1225 C1210 1.256 . S
O1226 Ho1201 2.322 . S
O1226 C1211 1.259 . S
O1227 Ho1200 2.346 . S
O1227 C1211 1.268 . S
O1228 Ho1201 2.378 . S
O1228 C1212 1.215 . S
O1229 Ho1201 2.524 . S
O1229 C1212 1.289 . S
O1230 Ho1201 2.381 . S
O1230 C1219 1.275 . S
O1231 Ho1200 2.305 . S
O1231 Ho1201 2.669 . S
O1231 C1219 1.256 . S
H1232 C1205 0.930 . S
H1233 C1206 0.931 . S
H1234 C1208 0.934 . S
H1235 C1209 0.930 . S
H1236 C1214 0.930 . S
H1237 C1215 0.931 . S
H1238 C1217 0.934 . S
H1239 C1218 0.930 . S
Ho1240 C1243 2.811 . S
Ho1240 O1260 2.322 . S
Ho1240 O1262 2.378 . S
Ho1240 O1263 2.524 . S
Ho1240 O1264 2.381 . S
Ho1240 O1265 2.669 . S
Ho1240 O1267 2.346 . S
Ho1240 O1271 2.305 . S
Ho1241 C1252 2.811 . S
Ho1241 O1261 2.346 . S
Ho1241 O1265 2.305 . S
Ho1241 O1266 2.322 . S
Ho1241 O1268 2.378 . S
Ho1241 O1269 2.524 . S
Ho1241 O1270 2.381 . S
Ho1241 O1271 2.669 . S
C1242 O1260 1.259 . S
C1242 O1261 1.268 . S
C1243 Ho1240 2.811 . S
C1243 C1244 1.488 . S
C1243 O1262 1.215 . S
C1243 O1263 1.289 . S
C1244 C1243 1.488 . S
C1244 C1245 1.348 . S
C1244 C1249 1.413 . S
C1245 C1244 1.348 . S
C1245 C1246 1.442 . S
C1245 H1272 0.930 . S
C1246 C1245 1.442 . S
C1246 C1247 1.381 . S
C1246 H1273 0.931 . S
C1247 C1246 1.381 . S
C1247 C1248 1.321 . S
C1248 C1247 1.321 . S
C1248 C1249 1.403 . S
C1248 H1274 0.934 . S
C1249 C1244 1.413 . S
C1249 C1248 1.403 . S
C1249 H1275 0.930 . S
C1250 O1264 1.275 . S
C1250 O1265 1.256 . S
C1251 O1266 1.259 . S
C1251 O1267 1.268 . S
C1252 Ho1241 2.811 . S
C1252 C1253 1.488 . S
C1252 O1268 1.215 . S
C1252 O1269 1.289 . S
C1253 C1252 1.488 . S
C1253 C1254 1.348 . S
C1253 C1258 1.413 . S
C1254 C1253 1.348 . S
C1254 C1255 1.442 . S
C1254 H1276 0.930 . S
C1255 C1254 1.442 . S
C1255 C1256 1.381 . S
C1255 H1277 0.931 . S
C1256 C1255 1.381 . S
C1256 C1257 1.321 . S
C1257 C1256 1.321 . S
C1257 C1258 1.403 . S
C1257 H1278 0.934 . S
C1258 C1253 1.413 . S
C1258 C1257 1.403 . S
C1258 H1279 0.930 . S
C1259 O1270 1.275 . S
C1259 O1271 1.256 . S
O1260 Ho1240 2.322 . S
O1260 C1242 1.259 . S
O1261 Ho1241 2.346 . S
O1261 C1242 1.268 . S
O1262 Ho1240 2.378 . S
O1262 C1243 1.215 . S
O1263 Ho1240 2.524 . S
O1263 C1243 1.289 . S
O1264 Ho1240 2.381 . S
O1264 C1250 1.275 . S
O1265 Ho1240 2.669 . S
O1265 Ho1241 2.305 . S
O1265 C1250 1.256 . S
O1266 Ho1241 2.322 . S
O1266 C1251 1.259 . S
O1267 Ho1240 2.346 . S
O1267 C1251 1.268 . S
O1268 Ho1241 2.378 . S
O1268 C1252 1.215 . S
O1269 Ho1241 2.524 . S
O1269 C1252 1.289 . S
O1270 Ho1241 2.381 . S
O1270 C1259 1.275 . S
O1271 Ho1240 2.305 . S
O1271 Ho1241 2.669 . S
O1271 C1259 1.256 . S
H1272 C1245 0.930 . S
H1273 C1246 0.931 . S
H1274 C1248 0.934 . S
H1275 C1249 0.930 . S
H1276 C1254 0.930 . S
H1277 C1255 0.931 . S
H1278 C1257 0.934 . S
H1279 C1258 0.930 . S
Ho1280 C1283 2.811 . S
Ho1280 O1300 2.322 . S
Ho1280 O1302 2.378 . S
Ho1280 O1303 2.524 . S
Ho1280 O1304 2.381 . S
Ho1280 O1305 2.669 . S
Ho1280 O1307 2.346 . S
Ho1280 O1311 2.305 . S
Ho1281 C1292 2.811 . S
Ho1281 O1301 2.346 . S
Ho1281 O1305 2.305 . S
Ho1281 O1306 2.322 . S
Ho1281 O1308 2.378 . S
Ho1281 O1309 2.524 . S
Ho1281 O1310 2.381 . S
Ho1281 O1311 2.669 . S
C1282 O1300 1.259 . S
C1282 O1301 1.268 . S
C1283 Ho1280 2.811 . S
C1283 C1284 1.488 . S
C1283 O1302 1.215 . S
C1283 O1303 1.289 . S
C1284 C1283 1.488 . S
C1284 C1285 1.348 . S
C1284 C1289 1.413 . S
C1285 C1284 1.348 . S
C1285 C1286 1.442 . S
C1285 H1312 0.930 . S
C1286 C1285 1.442 . S
C1286 C1287 1.381 . S
C1286 H1313 0.931 . S
C1287 C1286 1.381 . S
C1287 C1288 1.321 . S
C1288 C1287 1.321 . S
C1288 C1289 1.403 . S
C1288 H1314 0.934 . S
C1289 C1284 1.413 . S
C1289 C1288 1.403 . S
C1289 H1315 0.930 . S
C1290 O1304 1.275 . S
C1290 O1305 1.256 . S
C1291 O1306 1.259 . S
C1291 O1307 1.268 . S
C1292 Ho1281 2.811 . S
C1292 C1293 1.488 . S
C1292 O1308 1.215 . S
C1292 O1309 1.289 . S
C1293 C1292 1.488 . S
C1293 C1294 1.348 . S
C1293 C1298 1.413 . S
C1294 C1293 1.348 . S
C1294 C1295 1.442 . S
C1294 H1316 0.930 . S
C1295 C1294 1.442 . S
C1295 C1296 1.381 . S
C1295 H1317 0.931 . S
C1296 C1295 1.381 . S
C1296 C1297 1.321 . S
C1297 C1296 1.321 . S
C1297 C1298 1.403 . S
C1297 H1318 0.934 . S
C1298 C1293 1.413 . S
C1298 C1297 1.403 . S
C1298 H1319 0.930 . S
C1299 O1310 1.275 . S
C1299 O1311 1.256 . S
O1300 Ho1280 2.322 . S
O1300 C1282 1.259 . S
O1301 Ho1281 2.346 . S
O1301 C1282 1.268 . S
O1302 Ho1280 2.378 . S
O1302 C1283 1.215 . S
O1303 Ho1280 2.524 . S
O1303 C1283 1.289 . S
O1304 Ho1280 2.381 . S
O1304 C1290 1.275 . S
O1305 Ho1280 2.669 . S
O1305 Ho1281 2.305 . S
O1305 C1290 1.256 . S
O1306 Ho1281 2.322 . S
O1306 C1291 1.259 . S
O1307 Ho1280 2.346 . S
O1307 C1291 1.268 . S
O1308 Ho1281 2.378 . S
O1308 C1292 1.215 . S
O1309 Ho1281 2.524 . S
O1309 C1292 1.289 . S
O1310 Ho1281 2.381 . S
O1310 C1299 1.275 . S
O1311 Ho1280 2.305 . S
O1311 Ho1281 2.669 . S
O1311 C1299 1.256 . S
H1312 C1285 0.930 . S
H1313 C1286 0.931 . S
H1314 C1288 0.934 . S
H1315 C1289 0.930 . S
H1316 C1294 0.930 . S
H1317 C1295 0.931 . S
H1318 C1297 0.934 . S
H1319 C1298 0.930 . S
Ho1320 C1323 2.811 . S
Ho1320 O1340 2.322 . S
Ho1320 O1342 2.378 . S
Ho1320 O1343 2.524 . S
Ho1320 O1344 2.381 . S
Ho1320 O1345 2.669 . S
Ho1320 O1347 2.346 . S
Ho1320 O1351 2.305 . S
Ho1321 C1332 2.811 . S
Ho1321 O1341 2.346 . S
Ho1321 O1345 2.305 . S
Ho1321 O1346 2.322 . S
Ho1321 O1348 2.378 . S
Ho1321 O1349 2.524 . S
Ho1321 O1350 2.381 . S
Ho1321 O1351 2.669 . S
C1322 O1340 1.259 . S
C1322 O1341 1.268 . S
C1323 Ho1320 2.811 . S
C1323 C1324 1.488 . S
C1323 O1342 1.215 . S
C1323 O1343 1.289 . S
C1324 C1323 1.488 . S
C1324 C1325 1.348 . S
C1324 C1329 1.413 . S
C1325 C1324 1.348 . S
C1325 C1326 1.442 . S
C1325 H1352 0.930 . S
C1326 C1325 1.442 . S
C1326 C1327 1.381 . S
C1326 H1353 0.931 . S
C1327 C1326 1.381 . S
C1327 C1328 1.321 . S
C1328 C1327 1.321 . S
C1328 C1329 1.403 . S
C1328 H1354 0.934 . S
C1329 C1324 1.413 . S
C1329 C1328 1.403 . S
C1329 H1355 0.930 . S
C1330 O1344 1.275 . S
C1330 O1345 1.256 . S
C1331 O1346 1.259 . S
C1331 O1347 1.268 . S
C1332 Ho1321 2.811 . S
C1332 C1333 1.488 . S
C1332 O1348 1.215 . S
C1332 O1349 1.289 . S
C1333 C1332 1.488 . S
C1333 C1334 1.348 . S
C1333 C1338 1.413 . S
C1334 C1333 1.348 . S
C1334 C1335 1.442 . S
C1334 H1356 0.930 . S
C1335 C1334 1.442 . S
C1335 C1336 1.381 . S
C1335 H1357 0.931 . S
C1336 C1335 1.381 . S
C1336 C1337 1.321 . S
C1337 C1336 1.321 . S
C1337 C1338 1.403 . S
C1337 H1358 0.934 . S
C1338 C1333 1.413 . S
C1338 C1337 1.403 . S
C1338 H1359 0.930 . S
C1339 O1350 1.275 . S
C1339 O1351 1.256 . S
O1340 Ho1320 2.322 . S
O1340 C1322 1.259 . S
O1341 Ho1321 2.346 . S
O1341 C1322 1.268 . S
O1342 Ho1320 2.378 . S
O1342 C1323 1.215 . S
O1343 Ho1320 2.524 . S
O1343 C1323 1.289 . S
O1344 Ho1320 2.381 . S
O1344 C1330 1.275 . S
O1345 Ho1320 2.669 . S
O1345 Ho1321 2.305 . S
O1345 C1330 1.256 . S
O1346 Ho1321 2.322 . S
O1346 C1331 1.259 . S
O1347 Ho1320 2.346 . S
O1347 C1331 1.268 . S
O1348 Ho1321 2.378 . S
O1348 C1332 1.215 . S
O1349 Ho1321 2.524 . S
O1349 C1332 1.289 . S
O1350 Ho1321 2.381 . S
O1350 C1339 1.275 . S
O1351 Ho1320 2.305 . S
O1351 Ho1321 2.669 . S
O1351 C1339 1.256 . S
H1352 C1325 0.930 . S
H1353 C1326 0.931 . S
H1354 C1328 0.934 . S
H1355 C1329 0.930 . S
H1356 C1334 0.930 . S
H1357 C1335 0.931 . S
H1358 C1337 0.934 . S
H1359 C1338 0.930 . S
Ho1360 C1363 2.811 . S
Ho1360 O1380 2.322 . S
Ho1360 O1382 2.378 . S
Ho1360 O1383 2.524 . S
Ho1360 O1384 2.381 . S
Ho1360 O1385 2.669 . S
Ho1360 O1387 2.346 . S
Ho1360 O1391 2.305 . S
Ho1361 C1372 2.811 . S
Ho1361 O1381 2.346 . S
Ho1361 O1385 2.305 . S
Ho1361 O1386 2.322 . S
Ho1361 O1388 2.378 . S
Ho1361 O1389 2.524 . S
Ho1361 O1390 2.381 . S
Ho1361 O1391 2.669 . S
C1362 O1380 1.259 . S
C1362 O1381 1.268 . S
C1363 Ho1360 2.811 . S
C1363 C1364 1.488 . S
C1363 O1382 1.215 . S
C1363 O1383 1.289 . S
C1364 C1363 1.488 . S
C1364 C1365 1.348 . S
C1364 C1369 1.413 . S
C1365 C1364 1.348 . S
C1365 C1366 1.442 . S
C1365 H1392 0.930 . S
C1366 C1365 1.442 . S
C1366 C1367 1.381 . S
C1366 H1393 0.931 . S
C1367 C1366 1.381 . S
C1367 C1368 1.321 . S
C1368 C1367 1.321 . S
C1368 C1369 1.403 . S
C1368 H1394 0.934 . S
C1369 C1364 1.413 . S
C1369 C1368 1.403 . S
C1369 H1395 0.930 . S
C1370 O1384 1.275 . S
C1370 O1385 1.256 . S
C1371 O1386 1.259 . S
C1371 O1387 1.268 . S
C1372 Ho1361 2.811 . S
C1372 C1373 1.488 . S
C1372 O1388 1.215 . S
C1372 O1389 1.289 . S
C1373 C1372 1.488 . S
C1373 C1374 1.348 . S
C1373 C1378 1.413 . S
C1374 C1373 1.348 . S
C1374 C1375 1.442 . S
C1374 H1396 0.930 . S
C1375 C1374 1.442 . S
C1375 C1376 1.381 . S
C1375 H1397 0.931 . S
C1376 C1375 1.381 . S
C1376 C1377 1.321 . S
C1377 C1376 1.321 . S
C1377 C1378 1.403 . S
C1377 H1398 0.934 . S
C1378 C1373 1.413 . S
C1378 C1377 1.403 . S
C1378 H1399 0.930 . S
C1379 O1390 1.275 . S
C1379 O1391 1.256 . S
O1380 Ho1360 2.322 . S
O1380 C1362 1.259 . S
O1381 Ho1361 2.346 . S
O1381 C1362 1.268 . S
O1382 Ho1360 2.378 . S
O1382 C1363 1.215 . S
O1383 Ho1360 2.524 . S
O1383 C1363 1.289 . S
O1384 Ho1360 2.381 . S
O1384 C1370 1.275 . S
O1385 Ho1360 2.669 . S
O1385 Ho1361 2.305 . S
O1385 C1370 1.256 . S
O1386 Ho1361 2.322 . S
O1386 C1371 1.259 . S
O1387 Ho1360 2.346 . S
O1387 C1371 1.268 . S
O1388 Ho1361 2.378 . S
O1388 C1372 1.215 . S
O1389 Ho1361 2.524 . S
O1389 C1372 1.289 . S
O1390 Ho1361 2.381 . S
O1390 C1379 1.275 . S
O1391 Ho1360 2.305 . S
O1391 Ho1361 2.669 . S
O1391 C1379 1.256 . S
H1392 C1365 0.930 . S
H1393 C1366 0.931 . S
H1394 C1368 0.934 . S
H1395 C1369 0.930 . S
H1396 C1374 0.930 . S
H1397 C1375 0.931 . S
H1398 C1377 0.934 . S
H1399 C1378 0.930 . S
Ho1400 C1403 2.811 . S
Ho1400 O1420 2.322 . S
Ho1400 O1422 2.378 . S
Ho1400 O1423 2.524 . S
Ho1400 O1424 2.381 . S
Ho1400 O1425 2.669 . S
Ho1400 O1427 2.346 . S
Ho1400 O1431 2.305 . S
Ho1401 C1412 2.811 . S
Ho1401 O1421 2.346 . S
Ho1401 O1425 2.305 . S
Ho1401 O1426 2.322 . S
Ho1401 O1428 2.378 . S
Ho1401 O1429 2.524 . S
Ho1401 O1430 2.381 . S
Ho1401 O1431 2.669 . S
C1402 O1420 1.259 . S
C1402 O1421 1.268 . S
C1403 Ho1400 2.811 . S
C1403 C1404 1.488 . S
C1403 O1422 1.215 . S
C1403 O1423 1.289 . S
C1404 C1403 1.488 . S
C1404 C1405 1.348 . S
C1404 C1409 1.413 . S
C1405 C1404 1.348 . S
C1405 C1406 1.442 . S
C1405 H1432 0.930 . S
C1406 C1405 1.442 . S
C1406 C1407 1.381 . S
C1406 H1433 0.931 . S
C1407 C1406 1.381 . S
C1407 C1408 1.321 . S
C1408 C1407 1.321 . S
C1408 C1409 1.403 . S
C1408 H1434 0.934 . S
C1409 C1404 1.413 . S
C1409 C1408 1.403 . S
C1409 H1435 0.930 . S
C1410 O1424 1.275 . S
C1410 O1425 1.256 . S
C1411 O1426 1.259 . S
C1411 O1427 1.268 . S
C1412 Ho1401 2.811 . S
C1412 C1413 1.488 . S
C1412 O1428 1.215 . S
C1412 O1429 1.289 . S
C1413 C1412 1.488 . S
C1413 C1414 1.348 . S
C1413 C1418 1.413 . S
C1414 C1413 1.348 . S
C1414 C1415 1.442 . S
C1414 H1436 0.930 . S
C1415 C1414 1.442 . S
C1415 C1416 1.381 . S
C1415 H1437 0.931 . S
C1416 C1415 1.381 . S
C1416 C1417 1.321 . S
C1417 C1416 1.321 . S
C1417 C1418 1.403 . S
C1417 H1438 0.934 . S
C1418 C1413 1.413 . S
C1418 C1417 1.403 . S
C1418 H1439 0.930 . S
C1419 O1430 1.275 . S
C1419 O1431 1.256 . S
O1420 Ho1400 2.322 . S
O1420 C1402 1.259 . S
O1421 Ho1401 2.346 . S
O1421 C1402 1.268 . S
O1422 Ho1400 2.378 . S
O1422 C1403 1.215 . S
O1423 Ho1400 2.524 . S
O1423 C1403 1.289 . S
O1424 Ho1400 2.381 . S
O1424 C1410 1.275 . S
O1425 Ho1400 2.669 . S
O1425 Ho1401 2.305 . S
O1425 C1410 1.256 . S
O1426 Ho1401 2.322 . S
O1426 C1411 1.259 . S
O1427 Ho1400 2.346 . S
O1427 C1411 1.268 . S
O1428 Ho1401 2.378 . S
O1428 C1412 1.215 . S
O1429 Ho1401 2.524 . S
O1429 C1412 1.289 . S
O1430 Ho1401 2.381 . S
O1430 C1419 1.275 . S
O1431 Ho1400 2.305 . S
O1431 Ho1401 2.669 . S
O1431 C1419 1.256 . S
H1432 C1405 0.930 . S
H1433 C1406 0.931 . S
H1434 C1408 0.934 . S
H1435 C1409 0.930 . S
H1436 C1414 0.930 . S
H1437 C1415 0.931 . S
H1438 C1417 0.934 . S
H1439 C1418 0.930 . S
H1440 C1446 0.930 . S
H1441 C1449 0.930 . S
H1442 C1450 0.932 . S
H1443 C1451 0.930 . S
H1444 C1454 0.930 . S
H1445 C1455 0.930 . S
C1446 H1440 0.930 . S
C1446 C1447 1.355 1_554 S
C1446 C1448 1.415 . S
C1447 C1446 1.355 1_556 S
C1447 C1449 1.419 . S
C1448 C1446 1.415 . S
C1448 C1453 1.425 . S
C1448 C1455 1.409 . S
C1449 H1441 0.930 . S
C1449 C1447 1.419 . S
C1449 C1450 1.362 1_556 S
C1450 H1442 0.932 . S
C1450 C1449 1.362 1_554 S
C1450 C1453 1.409 . S
C1451 H1443 0.930 . S
C1451 C1452 1.355 . S
C1451 C1453 1.415 . S
C1452 C1451 1.355 . S
C1452 C1454 1.419 . S
C1453 C1448 1.425 . S
C1453 C1450 1.409 . S
C1453 C1451 1.415 . S
C1454 H1444 0.930 . S
C1454 C1452 1.419 . S
C1454 C1455 1.362 . S
C1455 H1445 0.930 . S
C1455 C1448 1.409 . S
C1455 C1454 1.362 . S
H1456 C1462 0.930 . S
H1457 C1465 0.930 . S
H1458 C1466 0.930 . S
H1459 C1467 0.930 . S
H1460 C1470 0.930 . S
H1461 C1471 0.930 . S
C1462 H1456 0.930 . S
C1462 C1463 1.355 1_554 S
C1462 C1464 1.415 . S
C1463 C1462 1.355 1_556 S
C1463 C1465 1.419 . S
C1464 C1462 1.415 . S
C1464 C1469 1.425 . S
C1464 C1471 1.409 . S
C1465 H1457 0.930 . S
C1465 C1463 1.419 . S
C1465 C1466 1.362 1_556 S
C1466 H1458 0.930 . S
C1466 C1465 1.362 1_554 S
C1466 C1469 1.409 . S
C1467 H1459 0.930 . S
C1467 C1468 1.355 . S
C1467 C1469 1.415 . S
C1468 C1467 1.355 . S
C1468 C1470 1.419 . S
C1469 C1464 1.425 . S
C1469 C1466 1.409 . S
C1469 C1467 1.415 . S
C1470 H1460 0.930 . S
C1470 C1468 1.419 . S
C1470 C1471 1.362 . S
C1471 H1461 0.930 . S
C1471 C1464 1.409 . S
C1471 C1470 1.362 . S
H1472 C1478 0.930 . S
H1473 C1481 0.930 . S
H1474 C1482 0.930 . S
H1475 C1483 0.930 . S
H1476 C1486 0.930 1_556 S
H1477 C1487 0.930 . S
C1478 H1472 0.930 . S
C1478 C1479 1.355 . S
C1478 C1480 1.415 . S
C1479 C1478 1.355 . S
C1479 C1481 1.419 . S
C1480 C1478 1.415 . S
C1480 C1485 1.425 . S
C1480 C1487 1.409 . S
C1481 H1473 0.930 . S
C1481 C1479 1.419 . S
C1481 C1482 1.362 . S
C1482 H1474 0.930 . S
C1482 C1481 1.362 . S
C1482 C1485 1.409 . S
C1483 H1475 0.930 . S
C1483 C1484 1.355 . S
C1483 C1485 1.415 1_556 S
C1484 C1483 1.355 . S
C1484 C1486 1.419 1_556 S
C1485 C1480 1.425 . S
C1485 C1482 1.409 . S
C1485 C1483 1.415 1_554 S
C1486 H1476 0.930 1_554 S
C1486 C1484 1.419 1_554 S
C1486 C1487 1.362 . S
C1487 H1477 0.930 . S
C1487 C1480 1.409 . S
C1487 C1486 1.362 . S
H1488 C1494 0.930 . S
H1489 C1497 0.930 . S
H1490 C1498 0.930 . S
H1491 C1499 0.930 . S
H1492 C1502 0.930 . S
H1493 C1503 0.930 . S
C1494 H1488 0.930 . S
C1494 C1495 1.355 . S
C1494 C1496 1.415 . S
C1495 C1494 1.355 . S
C1495 C1497 1.419 . S
C1496 C1494 1.415 . S
C1496 C1501 1.425 . S
C1496 C1503 1.409 . S
C1497 H1489 0.930 . S
C1497 C1495 1.419 . S
C1497 C1498 1.362 . S
C1498 H1490 0.930 . S
C1498 C1497 1.362 . S
C1498 C1501 1.409 . S
C1499 H1491 0.930 . S
C1499 C1500 1.355 . S
C1499 C1501 1.415 . S
C1500 C1499 1.355 . S
C1500 C1502 1.419 . S
C1501 C1496 1.425 . S
C1501 C1498 1.409 . S
C1501 C1499 1.415 . S
C1502 H1492 0.930 . S
C1502 C1500 1.419 . S
C1502 C1503 1.362 . S
C1503 H1493 0.930 . S
C1503 C1496 1.409 . S
C1503 C1502 1.362 . S
H1504 C1510 0.930 . S
H1505 C1513 0.930 . S
H1506 C1514 0.930 . S
H1507 C1515 0.930 . S
H1508 C1518 0.930 . S
H1509 C1519 0.930 . S
C1510 H1504 0.930 . S
C1510 C1511 1.355 . S
C1510 C1512 1.415 . S
C1511 C1510 1.355 . S
C1511 C1513 1.419 . S
C1512 C1510 1.415 . S
C1512 C1517 1.425 . S
C1512 C1519 1.409 . S
C1513 H1505 0.930 . S
C1513 C1511 1.419 . S
C1513 C1514 1.362 . S
C1514 H1506 0.930 . S
C1514 C1513 1.362 . S
C1514 C1517 1.409 . S
C1515 H1507 0.930 . S
C1515 C1516 1.355 . S
C1515 C1517 1.415 . S
C1516 C1515 1.355 . S
C1516 C1518 1.419 . S
C1517 C1512 1.425 . S
C1517 C1514 1.409 . S
C1517 C1515 1.415 . S
C1518 H1508 0.930 . S
C1518 C1516 1.419 . S
C1518 C1519 1.362 . S
C1519 H1509 0.930 . S
C1519 C1512 1.409 . S
C1519 C1518 1.362 . S
H1520 C1526 0.930 . S
H1521 C1529 0.930 . S
H1522 C1530 0.930 . S
H1523 C1531 0.930 . S
H1524 C1534 0.930 . S
H1525 C1535 0.930 . S
C1526 H1520 0.930 . S
C1526 C1527 1.355 . S
C1526 C1528 1.415 . S
C1527 C1526 1.355 . S
C1527 C1529 1.419 . S
C1528 C1526 1.415 . S
C1528 C1533 1.425 . S
C1528 C1535 1.409 . S
C1529 H1521 0.930 . S
C1529 C1527 1.419 . S
C1529 C1530 1.362 . S
C1530 H1522 0.930 . S
C1530 C1529 1.362 . S
C1530 C1533 1.409 . S
C1531 H1523 0.930 . S
C1531 C1532 1.355 . S
C1531 C1533 1.415 . S
C1532 C1531 1.355 . S
C1532 C1534 1.419 . S
C1533 C1528 1.425 . S
C1533 C1530 1.409 . S
C1533 C1531 1.415 . S
C1534 H1524 0.930 . S
C1534 C1532 1.419 . S
C1534 C1535 1.362 . S
C1535 H1525 0.930 . S
C1535 C1528 1.409 . S
C1535 C1534 1.362 . S
H1536 C1542 0.930 . S
H1537 C1545 0.930 . S
H1538 C1546 0.930 . S
H1539 C1547 0.930 . S
H1540 C1550 0.930 . S
H1541 C1551 0.930 . S
C1542 H1536 0.930 . S
C1542 C1543 1.355 . S
C1542 C1544 1.415 . S
C1543 C1542 1.355 . S
C1543 C1545 1.419 . S
C1544 C1542 1.415 . S
C1544 C1549 1.425 . S
C1544 C1551 1.409 . S
C1545 H1537 0.930 . S
C1545 C1543 1.419 . S
C1545 C1546 1.362 . S
C1546 H1538 0.930 . S
C1546 C1545 1.362 . S
C1546 C1549 1.409 . S
C1547 H1539 0.930 . S
C1547 C1548 1.355 . S
C1547 C1549 1.415 . S
C1548 C1547 1.355 . S
C1548 C1550 1.419 . S
C1549 C1544 1.425 . S
C1549 C1546 1.409 . S
C1549 C1547 1.415 . S
C1550 H1540 0.930 . S
C1550 C1548 1.419 . S
C1550 C1551 1.362 . S
C1551 H1541 0.930 . S
C1551 C1544 1.409 . S
C1551 C1550 1.362 . S
H1552 C1558 0.930 . S
H1553 C1561 0.930 . S
H1554 C1562 0.930 . S
H1555 C1563 0.930 . S
H1556 C1566 0.930 . S
H1557 C1567 0.930 . S
C1558 H1552 0.930 . S
C1558 C1559 1.355 . S
C1558 C1560 1.415 . S
C1559 C1558 1.355 . S
C1559 C1561 1.419 . S
C1560 C1558 1.415 . S
C1560 C1565 1.425 . S
C1560 C1567 1.409 . S
C1561 H1553 0.930 . S
C1561 C1559 1.419 . S
C1561 C1562 1.362 . S
C1562 H1554 0.930 . S
C1562 C1561 1.362 . S
C1562 C1565 1.409 . S
C1563 H1555 0.930 . S
C1563 C1564 1.355 . S
C1563 C1565 1.415 . S
C1564 C1563 1.355 . S
C1564 C1566 1.419 . S
C1565 C1560 1.425 . S
C1565 C1562 1.409 . S
C1565 C1563 1.415 . S
C1566 H1556 0.930 . S
C1566 C1564 1.419 . S
C1566 C1567 1.362 . S
C1567 H1557 0.930 . S
C1567 C1560 1.409 . S
C1567 C1566 1.362 . S
H1568 C1574 0.930 . S
H1569 C1577 0.930 . S
H1570 C1578 0.930 . S
H1571 C1579 0.930 . S
H1572 C1582 0.930 . S
H1573 C1583 0.930 . S
C1574 H1568 0.930 . S
C1574 C1575 1.355 . S
C1574 C1576 1.415 . S
C1575 C1574 1.355 . S
C1575 C1577 1.419 . S
C1576 C1574 1.415 . S
C1576 C1581 1.425 . S
C1576 C1583 1.409 . S
C1577 H1569 0.930 . S
C1577 C1575 1.419 . S
C1577 C1578 1.362 . S
C1578 H1570 0.930 . S
C1578 C1577 1.362 . S
C1578 C1581 1.409 . S
C1579 H1571 0.930 . S
C1579 C1580 1.355 . S
C1579 C1581 1.415 . S
C1580 C1579 1.355 . S
C1580 C1582 1.419 . S
C1581 C1576 1.425 . S
C1581 C1578 1.409 . S
C1581 C1579 1.415 . S
C1582 H1572 0.930 . S
C1582 C1580 1.419 . S
C1582 C1583 1.362 . S
C1583 H1573 0.930 . S
C1583 C1576 1.409 . S
C1583 C1582 1.362 . S
H1584 C1590 0.930 . S
H1585 C1593 0.930 . S
H1586 C1594 0.930 . S
H1587 C1595 0.930 . S
H1588 C1598 0.930 . S
H1589 C1599 0.930 . S
C1590 H1584 0.930 . S
C1590 C1591 1.355 . S
C1590 C1592 1.415 . S
C1591 C1590 1.355 . S
C1591 C1593 1.419 . S
C1592 C1590 1.415 . S
C1592 C1597 1.425 . S
C1592 C1599 1.409 . S
C1593 H1585 0.930 . S
C1593 C1591 1.419 . S
C1593 C1594 1.362 . S
C1594 H1586 0.930 . S
C1594 C1593 1.362 . S
C1594 C1597 1.409 . S
C1595 H1587 0.930 . S
C1595 C1596 1.355 . S
C1595 C1597 1.415 . S
C1596 C1595 1.355 . S
C1596 C1598 1.419 . S
C1597 C1592 1.425 . S
C1597 C1594 1.409 . S
C1597 C1595 1.415 . S
C1598 H1588 0.930 . S
C1598 C1596 1.419 . S
C1598 C1599 1.362 . S
C1599 H1589 0.930 . S
C1599 C1592 1.409 . S
C1599 C1598 1.362 . S
H1600 C1606 0.930 . S
H1601 C1609 0.930 . S
H1602 C1610 0.930 . S
H1603 C1611 0.930 . S
H1604 C1614 0.930 . S
H1605 C1615 0.930 . S
C1606 H1600 0.930 . S
C1606 C1607 1.355 . S
C1606 C1608 1.415 . S
C1607 C1606 1.355 . S
C1607 C1609 1.419 . S
C1608 C1606 1.415 . S
C1608 C1613 1.425 . S
C1608 C1615 1.409 . S
C1609 H1601 0.930 . S
C1609 C1607 1.419 . S
C1609 C1610 1.362 . S
C1610 H1602 0.930 . S
C1610 C1609 1.362 . S
C1610 C1613 1.409 . S
C1611 H1603 0.930 . S
C1611 C1612 1.355 . S
C1611 C1613 1.415 . S
C1612 C1611 1.355 . S
C1612 C1614 1.419 . S
C1613 C1608 1.425 . S
C1613 C1610 1.409 . S
C1613 C1611 1.415 . S
C1614 H1604 0.930 . S
C1614 C1612 1.419 . S
C1614 C1615 1.362 . S
C1615 H1605 0.930 . S
C1615 C1608 1.409 . S
C1615 C1614 1.362 . S
H1616 C1622 0.930 . S
H1617 C1625 0.930 . S
H1618 C1626 0.930 . S
H1619 C1627 0.930 . S
H1620 C1630 0.930 . S
H1621 C1631 0.930 . S
C1622 H1616 0.930 . S
C1622 C1623 1.355 . S
C1622 C1624 1.415 . S
C1623 C1622 1.355 . S
C1623 C1625 1.419 . S
C1624 C1622 1.415 . S
C1624 C1629 1.425 . S
C1624 C1631 1.409 . S
C1625 H1617 0.930 . S
C1625 C1623 1.419 . S
C1625 C1626 1.362 . S
C1626 H1618 0.930 . S
C1626 C1625 1.362 . S
C1626 C1629 1.409 . S
C1627 H1619 0.930 . S
C1627 C1628 1.355 . S
C1627 C1629 1.415 . S
C1628 C1627 1.355 . S
C1628 C1630 1.419 . S
C1629 C1624 1.425 . S
C1629 C1626 1.409 . S
C1629 C1627 1.415 . S
C1630 H1620 0.930 . S
C1630 C1628 1.419 . S
C1630 C1631 1.362 . S
C1631 H1621 0.930 . S
C1631 C1624 1.409 . S
C1631 C1630 1.362 . S
H1632 C1638 0.930 . S
H1633 C1641 0.930 . S
H1634 C1642 0.930 . S
H1635 C1643 0.930 . S
H1636 C1646 0.930 . S
H1637 C1647 0.930 . S
C1638 H1632 0.930 . S
C1638 C1639 1.355 . S
C1638 C1640 1.415 . S
C1639 C1638 1.355 . S
C1639 C1641 1.419 . S
C1640 C1638 1.415 . S
C1640 C1645 1.425 . S
C1640 C1647 1.409 . S
C1641 H1633 0.930 . S
C1641 C1639 1.419 . S
C1641 C1642 1.362 . S
C1642 H1634 0.930 . S
C1642 C1641 1.362 . S
C1642 C1645 1.409 . S
C1643 H1635 0.930 . S
C1643 C1644 1.355 . S
C1643 C1645 1.415 . S
C1644 C1643 1.355 . S
C1644 C1646 1.419 . S
C1645 C1640 1.425 . S
C1645 C1642 1.409 . S
C1645 C1643 1.415 . S
C1646 H1636 0.930 . S
C1646 C1644 1.419 . S
C1646 C1647 1.362 . S
C1647 H1637 0.930 . S
C1647 C1640 1.409 . S
C1647 C1646 1.362 . S
H1648 C1654 0.922 1_545 S
H1649 C1657 0.930 . S
H1650 C1658 0.930 . S
H1651 C1659 0.922 1_565 S
H1652 C1662 0.930 . S
H1653 C1663 0.930 . S
C1654 H1648 0.922 1_565 S
C1654 C1655 1.379 . S
C1654 C1656 1.401 1_565 S
C1655 C1654 1.379 . S
C1655 C1657 1.419 . S
C1656 C1654 1.401 1_545 S
C1656 C1661 1.425 1_545 S
C1656 C1663 1.409 . S
C1657 H1649 0.930 . S
C1657 C1655 1.419 . S
C1657 C1658 1.362 . S
C1658 H1650 0.930 . S
C1658 C1657 1.362 . S
C1658 C1661 1.409 . S
C1659 H1651 0.922 1_545 S
C1659 C1660 1.379 . S
C1659 C1661 1.401 1_545 S
C1660 C1659 1.379 . S
C1660 C1662 1.419 . S
C1661 C1656 1.425 1_565 S
C1661 C1658 1.409 . S
C1661 C1659 1.401 1_565 S
C1662 H1652 0.930 . S
C1662 C1660 1.419 . S
C1662 C1663 1.362 . S
C1663 H1653 0.930 . S
C1663 C1656 1.409 . S
C1663 C1662 1.362 . S
H1664 C1670 0.930 . S
H1665 C1673 0.930 . S
H1666 C1674 0.930 . S
H1667 C1675 0.930 . S
H1668 C1678 0.930 . S
H1669 C1679 0.930 . S
C1670 H1664 0.930 . S
C1670 C1671 1.355 . S
C1670 C1672 1.402 1_655 S
C1671 C1670 1.355 . S
C1671 C1673 1.419 . S
C1672 C1670 1.402 1_455 S
C1672 C1677 1.454 1_455 S
C1672 C1679 1.409 . S
C1673 H1665 0.930 . S
C1673 C1671 1.419 . S
C1673 C1674 1.362 . S
C1674 H1666 0.930 . S
C1674 C1673 1.362 . S
C1674 C1677 1.409 . S
C1675 H1667 0.930 . S
C1675 C1676 1.355 . S
C1675 C1677 1.402 1_455 S
C1676 C1675 1.355 . S
C1676 C1678 1.419 . S
C1677 C1672 1.454 1_655 S
C1677 C1674 1.409 . S
C1677 C1675 1.402 1_655 S
C1678 H1668 0.930 . S
C1678 C1676 1.419 . S
C1678 C1679 1.362 . S
C1679 H1669 0.930 . S
C1679 C1672 1.409 . S
C1679 C1678 1.362 . S
H1680 C1686 0.930 . S
H1681 C1689 0.930 . S
H1682 C1690 0.930 . S
H1683 C1691 0.930 . S
H1684 C1694 0.930 . S
H1685 C1695 0.930 . S
C1686 H1680 0.930 . S
C1686 C1687 1.355 . S
C1686 C1688 1.415 . S
C1687 C1686 1.355 . S
C1687 C1689 1.419 . S
C1688 C1686 1.415 . S
C1688 C1693 1.425 . S
C1688 C1695 1.409 . S
C1689 H1681 0.930 . S
C1689 C1687 1.419 . S
C1689 C1690 1.362 . S
C1690 H1682 0.930 . S
C1690 C1689 1.362 . S
C1690 C1693 1.409 . S
C1691 H1683 0.930 . S
C1691 C1692 1.355 . S
C1691 C1693 1.415 . S
C1692 C1691 1.355 . S
C1692 C1694 1.419 . S
C1693 C1688 1.425 . S
C1693 C1690 1.409 . S
C1693 C1691 1.415 . S
C1694 H1684 0.930 . S
C1694 C1692 1.419 . S
C1694 C1695 1.362 . S
C1695 H1685 0.930 . S
C1695 C1688 1.409 . S
C1695 C1694 1.362 . S
H1696 C1702 0.930 . S
H1697 C1705 0.930 . S
H1698 C1706 0.930 . S
H1699 C1707 0.930 . S
H1700 C1710 0.930 . S
H1701 C1711 0.930 . S
C1702 H1696 0.930 . S
C1702 C1703 1.355 . S
C1702 C1704 1.415 . S
C1703 C1702 1.355 . S
C1703 C1705 1.419 . S
C1704 C1702 1.415 . S
C1704 C1709 1.425 1_545 S
C1704 C1711 1.409 . S
C1705 H1697 0.930 . S
C1705 C1703 1.419 . S
C1705 C1706 1.362 1_545 S
C1706 H1698 0.930 . S
C1706 C1705 1.362 1_565 S
C1706 C1709 1.409 . S
C1707 H1699 0.930 . S
C1707 C1708 1.355 . S
C1707 C1709 1.415 . S
C1708 C1707 1.355 . S
C1708 C1710 1.419 . S
C1709 C1704 1.425 1_565 S
C1709 C1706 1.409 . S
C1709 C1707 1.415 . S
C1710 H1700 0.930 . S
C1710 C1708 1.419 . S
C1710 C1711 1.362 1_565 S
C1711 H1701 0.930 . S
C1711 C1704 1.409 . S
C1711 C1710 1.362 1_545 S
H1712 C1718 0.930 1_655 S
H1713 C1721 0.930 . S
H1714 C1722 0.930 . S
H1715 C1723 0.930 1_455 S
H1716 C1726 0.930 . S
H1717 C1727 0.930 . S
C1718 H1712 0.930 1_455 S
C1718 C1719 1.355 . S
C1718 C1720 1.415 1_455 S
C1719 C1718 1.355 . S
C1719 C1721 1.419 . S
C1720 C1718 1.415 1_655 S
C1720 C1725 1.425 1_655 S
C1720 C1727 1.409 . S
C1721 H1713 0.930 . S
C1721 C1719 1.419 . S
C1721 C1722 1.362 . S
C1722 H1714 0.930 . S
C1722 C1721 1.362 . S
C1722 C1725 1.409 . S
C1723 H1715 0.930 1_655 S
C1723 C1724 1.355 . S
C1723 C1725 1.415 1_655 S
C1724 C1723 1.355 . S
C1724 C1726 1.419 . S
C1725 C1720 1.425 1_455 S
C1725 C1722 1.409 . S
C1725 C1723 1.415 1_455 S
C1726 H1716 0.930 . S
C1726 C1724 1.419 . S
C1726 C1727 1.362 . S
C1727 H1717 0.930 . S
C1727 C1720 1.409 . S
C1727 C1726 1.362 . S
H1728 C1734 0.930 . S
H1729 C1737 0.928 . S
H1730 C1738 0.930 . S
H1731 C1739 0.930 . S
H1732 C1742 0.929 . S
H1733 C1743 0.930 . S
C1734 H1728 0.930 . S
C1734 C1735 1.355 . S
C1734 C1736 1.415 . S
C1735 C1734 1.355 . S
C1735 C1737 1.419 . S
C1736 C1734 1.415 . S
C1736 C1741 1.425 1_455 S
C1736 C1743 1.409 . S
C1737 H1729 0.928 . S
C1737 C1735 1.419 . S
C1737 C1738 1.362 1_455 S
C1738 H1730 0.930 . S
C1738 C1737 1.362 1_655 S
C1738 C1741 1.409 . S
C1739 H1731 0.930 . S
C1739 C1740 1.355 . S
C1739 C1741 1.415 . S
C1740 C1739 1.355 . S
C1740 C1742 1.419 . S
C1741 C1736 1.425 1_655 S
C1741 C1738 1.409 . S
C1741 C1739 1.415 . S
C1742 H1732 0.929 . S
C1742 C1740 1.419 . S
C1742 C1743 1.362 1_655 S
C1743 H1733 0.930 . S
C1743 C1736 1.409 . S
C1743 C1742 1.362 1_455 S
H1744 C1750 0.930 . S
H1745 C1753 0.930 . S
H1746 C1754 0.930 . S
H1747 C1755 0.930 . S
H1748 C1758 0.930 . S
H1749 C1759 0.930 . S
C1750 H1744 0.930 . S
C1750 C1751 1.355 . S
C1750 C1752 1.415 . S
C1751 C1750 1.355 . S
C1751 C1753 1.419 . S
C1752 C1750 1.415 . S
C1752 C1757 1.425 . S
C1752 C1759 1.409 . S
C1753 H1745 0.930 . S
C1753 C1751 1.419 . S
C1753 C1754 1.362 . S
C1754 H1746 0.930 . S
C1754 C1753 1.362 . S
C1754 C1757 1.409 . S
C1755 H1747 0.930 . S
C1755 C1756 1.355 . S
C1755 C1757 1.415 . S
C1756 C1755 1.355 . S
C1756 C1758 1.419 . S
C1757 C1752 1.425 . S
C1757 C1754 1.409 . S
C1757 C1755 1.415 . S
C1758 H1748 0.930 . S
C1758 C1756 1.419 . S
C1758 C1759 1.362 . S
C1759 H1749 0.930 . S
C1759 C1752 1.409 . S
C1759 C1758 1.362 . S
H1760 C1766 0.930 . S
H1761 C1769 0.930 . S
H1762 C1770 0.930 1_545 S
H1763 C1771 0.930 . S
H1764 C1774 0.930 . S
H1765 C1775 0.930 1_565 S
C1766 H1760 0.930 . S
C1766 C1767 1.355 . S
C1766 C1768 1.415 . S
C1767 C1766 1.355 . S
C1767 C1769 1.419 . S
C1768 C1766 1.415 . S
C1768 C1773 1.425 1_565 S
C1768 C1775 1.409 1_565 S
C1769 H1761 0.930 . S
C1769 C1767 1.419 . S
C1769 C1770 1.362 . S
C1770 H1762 0.930 1_565 S
C1770 C1769 1.362 . S
C1770 C1773 1.409 1_565 S
C1771 H1763 0.930 . S
C1771 C1772 1.355 . S
C1771 C1773 1.415 . S
C1772 C1771 1.355 . S
C1772 C1774 1.419 . S
C1773 C1768 1.425 1_545 S
C1773 C1770 1.409 1_545 S
C1773 C1771 1.415 . S
C1774 H1764 0.930 . S
C1774 C1772 1.419 . S
C1774 C1775 1.362 . S
C1775 H1765 0.930 1_545 S
C1775 C1768 1.409 1_545 S
C1775 C1774 1.362 . S
H1776 C1782 0.930 . S
H1777 C1785 0.930 . S
H1778 C1786 0.930 . S
H1779 C1787 0.930 . S
H1780 C1790 0.930 . S
H1781 C1791 0.930 . S
C1782 H1776 0.930 . S
C1782 C1783 1.355 . S
C1782 C1784 1.415 1_655 S
C1783 C1782 1.355 . S
C1783 C1785 1.419 . S
C1784 C1782 1.415 1_455 S
C1784 C1789 1.425 1_455 S
C1784 C1791 1.409 . S
C1785 H1777 0.930 . S
C1785 C1783 1.419 . S
C1785 C1786 1.362 . S
C1786 H1778 0.930 . S
C1786 C1785 1.362 . S
C1786 C1789 1.409 . S
C1787 H1779 0.930 . S
C1787 C1788 1.355 . S
C1787 C1789 1.415 1_455 S
C1788 C1787 1.355 . S
C1788 C1790 1.419 . S
C1789 C1784 1.425 1_655 S
C1789 C1786 1.409 . S
C1789 C1787 1.415 1_655 S
C1790 H1780 0.930 . S
C1790 C1788 1.419 . S
C1790 C1791 1.362 . S
C1791 H1781 0.930 . S
C1791 C1784 1.409 . S
C1791 C1790 1.362 . S
H1792 C1798 0.930 . S
H1793 C1801 0.930 . S
H1794 C1802 0.930 . S
H1795 C1803 0.930 . S
H1796 C1806 0.930 . S
H1797 C1807 0.930 . S
C1798 H1792 0.930 . S
C1798 C1799 1.355 . S
C1798 C1800 1.415 . S
C1799 C1798 1.355 . S
C1799 C1801 1.419 . S
C1800 C1798 1.415 . S
C1800 C1805 1.425 . S
C1800 C1807 1.409 . S
C1801 H1793 0.930 . S
C1801 C1799 1.419 . S
C1801 C1802 1.362 . S
C1802 H1794 0.930 . S
C1802 C1801 1.362 . S
C1802 C1805 1.409 . S
C1803 H1795 0.930 . S
C1803 C1804 1.355 . S
C1803 C1805 1.415 . S
C1804 C1803 1.355 . S
C1804 C1806 1.419 . S
C1805 C1800 1.425 . S
C1805 C1802 1.409 . S
C1805 C1803 1.415 . S
C1806 H1796 0.930 . S
C1806 C1804 1.419 . S
C1806 C1807 1.362 . S
C1807 H1797 0.930 . S
C1807 C1800 1.409 . S
C1807 C1806 1.362 . S
H1808 C1814 0.930 . S
H1809 C1817 0.930 . S
H1810 C1818 0.930 . S
H1811 C1819 0.930 . S
H1812 C1822 0.930 . S
H1813 C1823 0.930 . S
C1814 H1808 0.930 . S
C1814 C1815 1.355 . S
C1814 C1816 1.415 . S
C1815 C1814 1.355 . S
C1815 C1817 1.419 . S
C1816 C1814 1.415 . S
C1816 C1821 1.425 1_545 S
C1816 C1823 1.409 1_545 S
C1817 H1809 0.930 . S
C1817 C1815 1.419 . S
C1817 C1818 1.362 . S
C1818 H1810 0.930 . S
C1818 C1817 1.362 . S
C1818 C1821 1.409 1_545 S
C1819 H1811 0.930 . S
C1819 C1820 1.355 . S
C1819 C1821 1.415 . S
C1820 C1819 1.355 . S
C1820 C1822 1.419 . S
C1821 C1816 1.425 1_565 S
C1821 C1818 1.409 1_565 S
C1821 C1819 1.415 . S
C1822 H1812 0.930 . S
C1822 C1820 1.419 . S
C1822 C1823 1.362 . S
C1823 H1813 0.930 . S
C1823 C1816 1.409 1_565 S
C1823 C1822 1.362 . S
H1824 C1830 0.930 . S
H1825 C1833 0.930 . S
H1826 C1834 0.930 . S
H1827 C1835 0.930 . S
H1828 C1838 0.930 . S
H1829 C1839 0.930 . S
C1830 H1824 0.930 . S
C1830 C1831 1.355 . S
C1830 C1832 1.415 . S
C1831 C1830 1.355 . S
C1831 C1833 1.419 . S
C1832 C1830 1.415 . S
C1832 C1837 1.425 . S
C1832 C1839 1.409 . S
C1833 H1825 0.930 . S
C1833 C1831 1.419 . S
C1833 C1834 1.362 . S
C1834 H1826 0.930 . S
C1834 C1833 1.362 . S
C1834 C1837 1.409 . S
C1835 H1827 0.930 . S
C1835 C1836 1.355 . S
C1835 C1837 1.415 . S
C1836 C1835 1.355 . S
C1836 C1838 1.419 . S
C1837 C1832 1.425 . S
C1837 C1834 1.409 . S
C1837 C1835 1.415 . S
C1838 H1828 0.930 . S
C1838 C1836 1.419 . S
C1838 C1839 1.362 . S
C1839 H1829 0.930 . S
C1839 C1832 1.409 . S
C1839 C1838 1.362 . S
H1840 C1846 0.930 . S
H1841 C1849 0.930 . S
H1842 C1850 0.930 . S
H1843 C1851 0.930 . S
H1844 C1854 0.930 . S
H1845 C1855 0.930 . S
C1846 H1840 0.930 . S
C1846 C1847 1.355 . S
C1846 C1848 1.415 . S
C1847 C1846 1.355 . S
C1847 C1849 1.419 . S
C1848 C1846 1.415 . S
C1848 C1853 1.425 . S
C1848 C1855 1.409 . S
C1849 H1841 0.930 . S
C1849 C1847 1.419 . S
C1849 C1850 1.362 . S
C1850 H1842 0.930 . S
C1850 C1849 1.362 . S
C1850 C1853 1.409 . S
C1851 H1843 0.930 . S
C1851 C1852 1.355 . S
C1851 C1853 1.415 . S
C1852 C1851 1.355 . S
C1852 C1854 1.419 . S
C1853 C1848 1.425 . S
C1853 C1850 1.409 . S
C1853 C1851 1.415 . S
C1854 H1844 0.930 . S
C1854 C1852 1.419 . S
C1854 C1855 1.362 . S
C1855 H1845 0.930 . S
C1855 C1848 1.409 . S
C1855 C1854 1.362 . S
H1856 C1862 0.930 . S
H1857 C1865 0.930 . S
H1858 C1866 0.930 . S
H1859 C1867 0.930 . S
H1860 C1870 0.930 . S
H1861 C1871 0.930 . S
C1862 H1856 0.930 . S
C1862 C1863 1.355 . S
C1862 C1864 1.415 . S
C1863 C1862 1.355 . S
C1863 C1865 1.419 . S
C1864 C1862 1.415 . S
C1864 C1869 1.425 . S
C1864 C1871 1.409 . S
C1865 H1857 0.930 . S
C1865 C1863 1.419 . S
C1865 C1866 1.362 . S
C1866 H1858 0.930 . S
C1866 C1865 1.362 . S
C1866 C1869 1.409 . S
C1867 H1859 0.930 . S
C1867 C1868 1.355 . S
C1867 C1869 1.415 . S
C1868 C1867 1.355 . S
C1868 C1870 1.419 . S
C1869 C1864 1.425 . S
C1869 C1866 1.409 . S
C1869 C1867 1.415 . S
C1870 H1860 0.930 . S
C1870 C1868 1.419 . S
C1870 C1871 1.362 . S
C1871 H1861 0.930 . S
C1871 C1864 1.409 . S
C1871 C1870 1.362 . S
H1872 C1878 0.930 . S
H1873 C1881 0.930 . S
H1874 C1882 0.930 . S
H1875 C1883 0.930 . S
H1876 C1886 0.930 . S
H1877 C1887 0.930 . S
C1878 H1872 0.930 . S
C1878 C1879 1.355 . S
C1878 C1880 1.415 . S
C1879 C1878 1.355 . S
C1879 C1881 1.419 . S
C1880 C1878 1.415 . S
C1880 C1885 1.425 . S
C1880 C1887 1.409 . S
C1881 H1873 0.930 . S
C1881 C1879 1.419 . S
C1881 C1882 1.362 . S
C1882 H1874 0.930 . S
C1882 C1881 1.362 . S
C1882 C1885 1.409 . S
C1883 H1875 0.930 . S
C1883 C1884 1.355 . S
C1883 C1885 1.415 . S
C1884 C1883 1.355 . S
C1884 C1886 1.419 . S
C1885 C1880 1.425 . S
C1885 C1882 1.409 . S
C1885 C1883 1.415 . S
C1886 H1876 0.930 . S
C1886 C1884 1.419 . S
C1886 C1887 1.362 . S
C1887 H1877 0.930 . S
C1887 C1880 1.409 . S
C1887 C1886 1.362 . S
H1888 C1894 0.930 . S
H1889 C1897 0.930 . S
H1890 C1898 0.930 . S
H1891 C1899 0.930 . S
H1892 C1902 0.930 . S
H1893 C1903 0.930 . S
C1894 H1888 0.930 . S
C1894 C1895 1.355 . S
C1894 C1896 1.415 . S
C1895 C1894 1.355 . S
C1895 C1897 1.419 . S
C1896 C1894 1.415 . S
C1896 C1901 1.425 . S
C1896 C1903 1.409 . S
C1897 H1889 0.930 . S
C1897 C1895 1.419 . S
C1897 C1898 1.362 . S
C1898 H1890 0.930 . S
C1898 C1897 1.362 . S
C1898 C1901 1.409 . S
C1899 H1891 0.930 . S
C1899 C1900 1.355 . S
C1899 C1901 1.415 . S
C1900 C1899 1.355 . S
C1900 C1902 1.419 . S
C1901 C1896 1.425 . S
C1901 C1898 1.409 . S
C1901 C1899 1.415 . S
C1902 H1892 0.930 . S
C1902 C1900 1.419 . S
C1902 C1903 1.362 . S
C1903 H1893 0.930 . S
C1903 C1896 1.409 . S
C1903 C1902 1.362 . S
H1904 C1910 0.930 . S
H1905 C1913 0.930 . S
H1906 C1914 0.930 . S
H1907 C1915 0.930 . S
H1908 C1918 0.930 . S
H1909 C1919 0.930 . S
C1910 H1904 0.930 . S
C1910 C1911 1.355 . S
C1910 C1912 1.415 . S
C1911 C1910 1.355 . S
C1911 C1913 1.419 . S
C1912 C1910 1.415 . S
C1912 C1917 1.425 . S
C1912 C1919 1.409 . S
C1913 H1905 0.930 . S
C1913 C1911 1.419 . S
C1913 C1914 1.362 . S
C1914 H1906 0.930 . S
C1914 C1913 1.362 . S
C1914 C1917 1.409 . S
C1915 H1907 0.930 . S
C1915 C1916 1.355 . S
C1915 C1917 1.415 . S
C1916 C1915 1.355 . S
C1916 C1918 1.419 . S
C1917 C1912 1.425 . S
C1917 C1914 1.409 . S
C1917 C1915 1.415 . S
C1918 H1908 0.930 . S
C1918 C1916 1.419 . S
C1918 C1919 1.362 . S
C1919 H1909 0.930 . S
C1919 C1912 1.409 . S
C1919 C1918 1.362 . S
H1920 C1926 0.930 . S
H1921 C1929 0.930 . S
H1922 C1930 0.930 . S
H1923 C1931 0.930 . S
H1924 C1934 0.930 . S
H1925 C1935 0.930 . S
C1926 H1920 0.930 . S
C1926 C1927 1.355 . S
C1926 C1928 1.415 . S
C1927 C1926 1.355 . S
C1927 C1929 1.419 . S
C1928 C1926 1.415 . S
C1928 C1933 1.425 . S
C1928 C1935 1.409 . S
C1929 H1921 0.930 . S
C1929 C1927 1.419 . S
C1929 C1930 1.362 . S
C1930 H1922 0.930 . S
C1930 C1929 1.362 . S
C1930 C1933 1.409 . S
C1931 H1923 0.930 . S
C1931 C1932 1.355 . S
C1931 C1933 1.415 . S
C1932 C1931 1.355 . S
C1932 C1934 1.419 . S
C1933 C1928 1.425 . S
C1933 C1930 1.409 . S
C1933 C1931 1.415 . S
C1934 H1924 0.930 . S
C1934 C1932 1.419 . S
C1934 C1935 1.362 . S
C1935 H1925 0.930 . S
C1935 C1928 1.409 . S
C1935 C1934 1.362 . S
H1936 C1942 0.930 . S
H1937 C1945 0.930 . S
H1938 C1946 0.930 . S
H1939 C1947 0.930 . S
H1940 C1950 0.930 . S
H1941 C1951 0.930 . S
C1942 H1936 0.930 . S
C1942 C1943 1.355 . S
C1942 C1944 1.415 . S
C1943 C1942 1.355 . S
C1943 C1945 1.419 . S
C1944 C1942 1.415 . S
C1944 C1949 1.425 . S
C1944 C1951 1.409 . S
C1945 H1937 0.930 . S
C1945 C1943 1.419 . S
C1945 C1946 1.362 . S
C1946 H1938 0.930 . S
C1946 C1945 1.362 . S
C1946 C1949 1.409 . S
C1947 H1939 0.930 . S
C1947 C1948 1.355 . S
C1947 C1949 1.415 . S
C1948 C1947 1.355 . S
C1948 C1950 1.419 . S
C1949 C1944 1.425 . S
C1949 C1946 1.409 . S
C1949 C1947 1.415 . S
C1950 H1940 0.930 . S
C1950 C1948 1.419 . S
C1950 C1951 1.362 . S
C1951 H1941 0.930 . S
C1951 C1944 1.409 . S
C1951 C1950 1.362 . S
H1952 C1958 0.930 . S
H1953 C1961 0.930 . S
H1954 C1962 0.930 . S
H1955 C1963 0.930 . S
H1956 C1966 0.930 . S
H1957 C1967 0.930 . S
C1958 H1952 0.930 . S
C1958 C1959 1.355 . S
C1958 C1960 1.415 . S
C1959 C1958 1.355 . S
C1959 C1961 1.419 . S
C1960 C1958 1.415 . S
C1960 C1965 1.425 . S
C1960 C1967 1.409 . S
C1961 H1953 0.930 . S
C1961 C1959 1.419 . S
C1961 C1962 1.362 . S
C1962 H1954 0.930 . S
C1962 C1961 1.362 . S
C1962 C1965 1.409 . S
C1963 H1955 0.930 . S
C1963 C1964 1.355 . S
C1963 C1965 1.415 . S
C1964 C1963 1.355 . S
C1964 C1966 1.419 . S
C1965 C1960 1.425 . S
C1965 C1962 1.409 . S
C1965 C1963 1.415 . S
C1966 H1956 0.930 . S
C1966 C1964 1.419 . S
C1966 C1967 1.362 . S
C1967 H1957 0.930 . S
C1967 C1960 1.409 . S
C1967 C1966 1.362 . S
H1968 C1974 0.930 . S
H1969 C1977 0.922 1_556 S
H1970 C1978 0.930 . S
H1971 C1979 0.930 . S
H1972 C1982 0.930 . S
H1973 C1983 0.930 . S
C1974 H1968 0.930 . S
C1974 C1975 1.355 . S
C1974 C1976 1.415 1_556 S
C1975 C1974 1.355 . S
C1975 C1977 1.419 1_556 S
C1976 C1974 1.415 1_554 S
C1976 C1981 1.425 . S
C1976 C1983 1.409 . S
C1977 H1969 0.922 1_554 S
C1977 C1975 1.419 1_554 S
C1977 C1978 1.362 . S
C1978 H1970 0.930 . S
C1978 C1977 1.362 . S
C1978 C1981 1.409 . S
C1979 H1971 0.930 . S
C1979 C1980 1.355 . S
C1979 C1981 1.415 . S
C1980 C1979 1.355 . S
C1980 C1982 1.419 . S
C1981 C1976 1.425 . S
C1981 C1978 1.409 . S
C1981 C1979 1.415 . S
C1982 H1972 0.930 . S
C1982 C1980 1.419 . S
C1982 C1983 1.362 . S
C1983 H1973 0.930 . S
C1983 C1976 1.409 . S
C1983 C1982 1.362 . S
H1984 C1990 0.930 . S
H1985 C1993 0.930 1_556 S
H1986 C1994 0.930 . S
H1987 C1995 0.930 . S
H1988 C1998 0.930 . S
H1989 C1999 0.930 . S
C1990 H1984 0.930 . S
C1990 C1991 1.355 . S
C1990 C1992 1.415 1_556 S
C1991 C1990 1.355 . S
C1991 C1993 1.419 1_556 S
C1992 C1990 1.415 1_554 S
C1992 C1997 1.425 . S
C1992 C1999 1.409 . S
C1993 H1985 0.930 1_554 S
C1993 C1991 1.419 1_554 S
C1993 C1994 1.362 . S
C1994 H1986 0.930 . S
C1994 C1993 1.362 . S
C1994 C1997 1.409 . S
C1995 H1987 0.930 . S
C1995 C1996 1.355 . S
C1995 C1997 1.415 . S
C1996 C1995 1.355 . S
C1996 C1998 1.419 . S
C1997 C1992 1.425 . S
C1997 C1994 1.409 . S
C1997 C1995 1.415 . S
C1998 H1988 0.930 . S
C1998 C1996 1.419 . S
C1998 C1999 1.362 . S
C1999 H1989 0.930 . S
C1999 C1992 1.409 . S
C1999 C1998 1.362 . S
H2000 C2006 0.930 . S
H2001 C2009 0.930 . S
H2002 C2010 0.930 . S
H2003 C2011 0.930 . S
H2004 C2014 0.930 . S
H2005 C2015 0.930 . S
C2006 H2000 0.930 . S
C2006 C2007 1.355 . S
C2006 C2008 1.415 1_556 S
C2007 C2006 1.355 . S
C2007 C2009 1.419 1_556 S
C2008 C2006 1.415 1_554 S
C2008 C2013 1.425 . S
C2008 C2015 1.409 . S
C2009 H2001 0.930 . S
C2009 C2007 1.419 1_554 S
C2009 C2010 1.362 . S
C2010 H2002 0.930 . S
C2010 C2009 1.362 . S
C2010 C2013 1.409 . S
C2011 H2003 0.930 . S
C2011 C2012 1.355 . S
C2011 C2013 1.415 . S
C2012 C2011 1.355 . S
C2012 C2014 1.419 . S
C2013 C2008 1.425 . S
C2013 C2010 1.409 . S
C2013 C2011 1.415 . S
C2014 H2004 0.930 . S
C2014 C2012 1.419 . S
C2014 C2015 1.362 . S
C2015 H2005 0.930 . S
C2015 C2008 1.409 . S
C2015 C2014 1.362 . S
H2016 C2022 0.930 . S
H2017 C2025 0.930 . S
H2018 C2026 0.930 . S
H2019 C2027 0.930 . S
H2020 C2030 0.930 . S
H2021 C2031 0.930 . S
C2022 H2016 0.930 . S
C2022 C2023 1.355 . S
C2022 C2024 1.415 . S
C2023 C2022 1.355 . S
C2023 C2025 1.419 . S
C2024 C2022 1.415 . S
C2024 C2029 1.425 1_556 S
C2024 C2031 1.409 . S
C2025 H2017 0.930 . S
C2025 C2023 1.419 . S
C2025 C2026 1.362 1_556 S
C2026 H2018 0.930 . S
C2026 C2025 1.362 1_554 S
C2026 C2029 1.409 . S
C2027 H2019 0.930 . S
C2027 C2028 1.355 . S
C2027 C2029 1.415 . S
C2028 C2027 1.355 . S
C2028 C2030 1.419 . S
C2029 C2024 1.425 1_554 S
C2029 C2026 1.409 . S
C2029 C2027 1.415 . S
C2030 H2020 0.930 . S
C2030 C2028 1.419 . S
C2030 C2031 1.362 1_554 S
C2031 H2021 0.930 . S
C2031 C2024 1.409 . S
C2031 C2030 1.362 1_556 S
H2032 C2038 0.930 . S
H2033 C2041 0.930 . S
H2034 C2042 0.930 . S
H2035 C2043 0.930 . S
H2036 C2046 0.930 . S
H2037 C2047 0.930 . S
C2038 H2032 0.930 . S
C2038 C2039 1.355 . S
C2038 C2040 1.415 . S
C2039 C2038 1.355 . S
C2039 C2041 1.419 . S
C2040 C2038 1.415 . S
C2040 C2045 1.425 1_554 S
C2040 C2047 1.409 . S
C2041 H2033 0.930 . S
C2041 C2039 1.419 . S
C2041 C2042 1.362 1_554 S
C2042 H2034 0.930 . S
C2042 C2041 1.362 1_556 S
C2042 C2045 1.409 . S
C2043 H2035 0.930 . S
C2043 C2044 1.355 . S
C2043 C2045 1.415 . S
C2044 C2043 1.355 . S
C2044 C2046 1.419 . S
C2045 C2040 1.425 1_556 S
C2045 C2042 1.409 . S
C2045 C2043 1.415 . S
C2046 H2036 0.930 . S
C2046 C2044 1.419 . S
C2046 C2047 1.362 1_556 S
C2047 H2037 0.930 . S
C2047 C2040 1.409 . S
C2047 C2046 1.362 1_554 S
H2048 C2054 0.930 . S
H2049 C2057 0.930 . S
H2050 C2058 0.930 . S
H2051 C2059 0.930 . S
H2052 C2062 0.930 . S
H2053 C2063 0.930 . S
C2054 H2048 0.930 . S
C2054 C2055 1.355 . S
C2054 C2056 1.415 1_554 S
C2055 C2054 1.355 . S
C2055 C2057 1.419 . S
C2056 C2054 1.415 1_556 S
C2056 C2061 1.427 . S
C2056 C2063 1.409 . S
C2057 H2049 0.930 . S
C2057 C2055 1.419 . S
C2057 C2058 1.362 . S
C2058 H2050 0.930 . S
C2058 C2057 1.362 . S
C2058 C2061 1.404 1_554 S
C2059 H2051 0.930 . S
C2059 C2060 1.355 . S
C2059 C2061 1.419 . S
C2060 C2059 1.355 . S
C2060 C2062 1.419 . S
C2061 C2056 1.427 . S
C2061 C2058 1.404 1_556 S
C2061 C2059 1.419 . S
C2062 H2052 0.930 . S
C2062 C2060 1.419 . S
C2062 C2063 1.362 . S
C2063 H2053 0.930 . S
C2063 C2056 1.409 . S
C2063 C2062 1.362 . S
H2064 C2070 0.930 . S
H2065 C2073 0.930 . S
H2066 C2074 0.930 . S
H2067 C2075 0.930 . S
H2068 C2078 0.930 . S
H2069 C2079 0.930 . S
C2070 H2064 0.930 . S
C2070 C2071 1.355 . S
C2070 C2072 1.415 . S
C2071 C2070 1.355 . S
C2071 C2073 1.419 . S
C2072 C2070 1.415 . S
C2072 C2077 1.425 . S
C2072 C2079 1.409 . S
C2073 H2065 0.930 . S
C2073 C2071 1.419 . S
C2073 C2074 1.362 . S
C2074 H2066 0.930 . S
C2074 C2073 1.362 . S
C2074 C2077 1.409 . S
C2075 H2067 0.930 . S
C2075 C2076 1.355 . S
C2075 C2077 1.415 . S
C2076 C2075 1.355 . S
C2076 C2078 1.419 . S
C2077 C2072 1.425 . S
C2077 C2074 1.409 . S
C2077 C2075 1.415 . S
C2078 H2068 0.930 . S
C2078 C2076 1.419 . S
C2078 C2079 1.362 . S
C2079 H2069 0.930 . S
C2079 C2072 1.409 . S
C2079 C2078 1.362 . S
H2080 C2086 0.930 . S
H2081 C2089 0.930 . S
H2082 C2090 0.930 . S
H2083 C2091 0.930 . S
H2084 C2094 0.930 . S
H2085 C2095 0.930 . S
C2086 H2080 0.930 . S
C2086 C2087 1.355 . S
C2086 C2088 1.415 . S
C2087 C2086 1.355 . S
C2087 C2089 1.419 . S
C2088 C2086 1.415 . S
C2088 C2093 1.425 . S
C2088 C2095 1.409 . S
C2089 H2081 0.930 . S
C2089 C2087 1.419 . S
C2089 C2090 1.362 . S
C2090 H2082 0.930 . S
C2090 C2089 1.362 . S
C2090 C2093 1.409 . S
C2091 H2083 0.930 . S
C2091 C2092 1.355 . S
C2091 C2093 1.415 . S
C2092 C2091 1.355 . S
C2092 C2094 1.419 . S
C2093 C2088 1.425 . S
C2093 C2090 1.409 . S
C2093 C2091 1.415 . S
C2094 H2084 0.930 . S
C2094 C2092 1.419 . S
C2094 C2095 1.362 . S
C2095 H2085 0.930 . S
C2095 C2088 1.409 . S
C2095 C2094 1.362 . S
H2096 C2102 0.930 . S
H2097 C2105 0.930 . S
H2098 C2106 0.930 . S
H2099 C2107 0.930 . S
H2100 C2110 0.930 . S
H2101 C2111 0.930 . S
C2102 H2096 0.930 . S
C2102 C2103 1.355 . S
C2102 C2104 1.415 . S
C2103 C2102 1.355 . S
C2103 C2105 1.419 . S
C2104 C2102 1.415 . S
C2104 C2109 1.425 . S
C2104 C2111 1.409 . S
C2105 H2097 0.930 . S
C2105 C2103 1.419 . S
C2105 C2106 1.362 . S
C2106 H2098 0.930 . S
C2106 C2105 1.362 . S
C2106 C2109 1.409 . S
C2107 H2099 0.930 . S
C2107 C2108 1.355 . S
C2107 C2109 1.415 . S
C2108 C2107 1.355 . S
C2108 C2110 1.419 . S
C2109 C2104 1.425 . S
C2109 C2106 1.409 . S
C2109 C2107 1.415 . S
C2110 H2100 0.930 . S
C2110 C2108 1.419 . S
C2110 C2111 1.362 . S
C2111 H2101 0.930 . S
C2111 C2104 1.409 . S
C2111 C2110 1.362 . S
H2112 C2118 0.930 . S
H2113 C2121 0.930 . S
H2114 C2122 0.930 . S
H2115 C2123 0.930 . S
H2116 C2126 0.930 . S
H2117 C2127 0.930 . S
C2118 H2112 0.930 . S
C2118 C2119 1.355 . S
C2118 C2120 1.415 . S
C2119 C2118 1.355 . S
C2119 C2121 1.419 . S
C2120 C2118 1.415 . S
C2120 C2125 1.425 . S
C2120 C2127 1.409 . S
C2121 H2113 0.930 . S
C2121 C2119 1.419 . S
C2121 C2122 1.362 . S
C2122 H2114 0.930 . S
C2122 C2121 1.362 . S
C2122 C2125 1.409 . S
C2123 H2115 0.930 . S
C2123 C2124 1.355 . S
C2123 C2125 1.415 . S
C2124 C2123 1.355 . S
C2124 C2126 1.419 . S
C2125 C2120 1.425 . S
C2125 C2122 1.409 . S
C2125 C2123 1.415 . S
C2126 H2116 0.930 . S
C2126 C2124 1.419 . S
C2126 C2127 1.362 . S
C2127 H2117 0.930 . S
C2127 C2120 1.409 . S
C2127 C2126 1.362 . S
H2128 C2134 0.930 . S
H2129 C2137 0.930 . S
H2130 C2138 0.930 . S
H2131 C2139 0.930 . S
H2132 C2142 0.930 . S
H2133 C2143 0.930 . S
C2134 H2128 0.930 . S
C2134 C2135 1.355 . S
C2134 C2136 1.415 . S
C2135 C2134 1.355 . S
C2135 C2137 1.419 . S
C2136 C2134 1.415 . S
C2136 C2141 1.425 . S
C2136 C2143 1.409 . S
C2137 H2129 0.930 . S
C2137 C2135 1.419 . S
C2137 C2138 1.362 . S
C2138 H2130 0.930 . S
C2138 C2137 1.362 . S
C2138 C2141 1.409 . S
C2139 H2131 0.930 . S
C2139 C2140 1.355 . S
C2139 C2141 1.415 . S
C2140 C2139 1.355 . S
C2140 C2142 1.419 . S
C2141 C2136 1.425 . S
C2141 C2138 1.409 . S
C2141 C2139 1.415 . S
C2142 H2132 0.930 . S
C2142 C2140 1.419 . S
C2142 C2143 1.362 . S
C2143 H2133 0.930 . S
C2143 C2136 1.409 . S
C2143 C2142 1.362 . S
H2144 C2150 0.930 . S
H2145 C2153 0.930 . S
H2146 C2154 0.930 . S
H2147 C2155 0.930 . S
H2148 C2158 0.930 . S
H2149 C2159 0.930 . S
C2150 H2144 0.930 . S
C2150 C2151 1.355 . S
C2150 C2152 1.415 . S
C2151 C2150 1.355 . S
C2151 C2153 1.419 . S
C2152 C2150 1.415 . S
C2152 C2157 1.425 . S
C2152 C2159 1.409 . S
C2153 H2145 0.930 . S
C2153 C2151 1.419 . S
C2153 C2154 1.362 . S
C2154 H2146 0.930 . S
C2154 C2153 1.362 . S
C2154 C2157 1.409 . S
C2155 H2147 0.930 . S
C2155 C2156 1.355 . S
C2155 C2157 1.415 . S
C2156 C2155 1.355 . S
C2156 C2158 1.419 . S
C2157 C2152 1.425 . S
C2157 C2154 1.409 . S
C2157 C2155 1.415 . S
C2158 H2148 0.930 . S
C2158 C2156 1.419 . S
C2158 C2159 1.362 . S
C2159 H2149 0.930 . S
C2159 C2152 1.409 . S
C2159 C2158 1.362 . S
H2160 C2166 0.930 . S
H2161 C2169 0.930 . S
H2162 C2170 0.930 . S
H2163 C2171 0.930 . S
H2164 C2174 0.930 . S
H2165 C2175 0.930 . S
C2166 H2160 0.930 . S
C2166 C2167 1.355 . S
C2166 C2168 1.415 . S
C2167 C2166 1.355 . S
C2167 C2169 1.419 . S
C2168 C2166 1.415 . S
C2168 C2173 1.425 . S
C2168 C2175 1.409 . S
C2169 H2161 0.930 . S
C2169 C2167 1.419 . S
C2169 C2170 1.362 . S
C2170 H2162 0.930 . S
C2170 C2169 1.362 . S
C2170 C2173 1.409 . S
C2171 H2163 0.930 . S
C2171 C2172 1.355 . S
C2171 C2173 1.415 . S
C2172 C2171 1.355 . S
C2172 C2174 1.419 . S
C2173 C2168 1.425 . S
C2173 C2170 1.409 . S
C2173 C2171 1.415 . S
C2174 H2164 0.930 . S
C2174 C2172 1.419 . S
C2174 C2175 1.362 . S
C2175 H2165 0.930 . S
C2175 C2168 1.409 . S
C2175 C2174 1.362 . S
H2176 C2182 0.930 . S
H2177 C2185 0.930 . S
H2178 C2186 0.930 . S
H2179 C2187 0.930 . S
H2180 C2190 0.930 . S
H2181 C2191 0.930 . S
C2182 H2176 0.930 . S
C2182 C2183 1.355 . S
C2182 C2184 1.415 . S
C2183 C2182 1.355 . S
C2183 C2185 1.419 . S
C2184 C2182 1.415 . S
C2184 C2189 1.425 . S
C2184 C2191 1.409 . S
C2185 H2177 0.930 . S
C2185 C2183 1.419 . S
C2185 C2186 1.362 . S
C2186 H2178 0.930 . S
C2186 C2185 1.362 . S
C2186 C2189 1.409 . S
C2187 H2179 0.930 . S
C2187 C2188 1.355 . S
C2187 C2189 1.415 . S
C2188 C2187 1.355 . S
C2188 C2190 1.419 . S
C2189 C2184 1.425 . S
C2189 C2186 1.409 . S
C2189 C2187 1.415 . S
C2190 H2180 0.930 . S
C2190 C2188 1.419 . S
C2190 C2191 1.362 . S
C2191 H2181 0.930 . S
C2191 C2184 1.409 . S
C2191 C2190 1.362 . S
H2192 C2198 0.930 . S
H2193 C2201 0.930 . S
H2194 C2202 0.930 . S
H2195 C2203 0.930 . S
H2196 C2206 0.930 . S
H2197 C2207 0.930 . S
C2198 H2192 0.930 . S
C2198 C2199 1.355 . S
C2198 C2200 1.415 . S
C2199 C2198 1.355 . S
C2199 C2201 1.419 . S
C2200 C2198 1.415 . S
C2200 C2205 1.425 . S
C2200 C2207 1.409 . S
C2201 H2193 0.930 . S
C2201 C2199 1.419 . S
C2201 C2202 1.362 . S
C2202 H2194 0.930 . S
C2202 C2201 1.362 . S
C2202 C2205 1.409 . S
C2203 H2195 0.930 . S
C2203 C2204 1.355 . S
C2203 C2205 1.415 . S
C2204 C2203 1.355 . S
C2204 C2206 1.419 . S
C2205 C2200 1.425 . S
C2205 C2202 1.409 . S
C2205 C2203 1.415 . S
C2206 H2196 0.930 . S
C2206 C2204 1.419 . S
C2206 C2207 1.362 . S
C2207 H2197 0.930 . S
C2207 C2200 1.409 . S
C2207 C2206 1.362 . S
H2208 C2214 0.930 . S
H2209 C2217 0.930 . S
H2210 C2218 0.930 . S
H2211 C2219 0.930 . S
H2212 C2222 0.930 . S
H2213 C2223 0.930 . S
C2214 H2208 0.930 . S
C2214 C2215 1.355 . S
C2214 C2216 1.415 . S
C2215 C2214 1.355 . S
C2215 C2217 1.419 . S
C2216 C2214 1.415 . S
C2216 C2221 1.425 . S
C2216 C2223 1.409 . S
C2217 H2209 0.930 . S
C2217 C2215 1.419 . S
C2217 C2218 1.362 . S
C2218 H2210 0.930 . S
C2218 C2217 1.362 . S
C2218 C2221 1.409 . S
C2219 H2211 0.930 . S
C2219 C2220 1.355 . S
C2219 C2221 1.415 . S
C2220 C2219 1.355 . S
C2220 C2222 1.419 . S
C2221 C2216 1.425 . S
C2221 C2218 1.409 . S
C2221 C2219 1.415 . S
C2222 H2212 0.930 . S
C2222 C2220 1.419 . S
C2222 C2223 1.362 . S
C2223 H2213 0.930 . S
C2223 C2216 1.409 . S
C2223 C2222 1.362 . S
H2224 C2230 0.930 . S
H2225 C2233 0.930 . S
H2226 C2234 0.930 . S
H2227 C2235 0.930 . S
H2228 C2238 0.930 . S
H2229 C2239 0.930 . S
C2230 H2224 0.930 . S
C2230 C2231 1.355 . S
C2230 C2232 1.415 . S
C2231 C2230 1.355 . S
C2231 C2233 1.419 . S
C2232 C2230 1.415 . S
C2232 C2237 1.425 . S
C2232 C2239 1.409 . S
C2233 H2225 0.930 . S
C2233 C2231 1.419 . S
C2233 C2234 1.362 . S
C2234 H2226 0.930 . S
C2234 C2233 1.362 . S
C2234 C2237 1.409 . S
C2235 H2227 0.930 . S
C2235 C2236 1.355 . S
C2235 C2237 1.415 . S
C2236 C2235 1.355 . S
C2236 C2238 1.419 . S
C2237 C2232 1.425 . S
C2237 C2234 1.409 . S
C2237 C2235 1.415 . S
C2238 H2228 0.930 . S
C2238 C2236 1.419 . S
C2238 C2239 1.362 . S
C2239 H2229 0.930 . S
C2239 C2232 1.409 . S
C2239 C2238 1.362 . S
H2240 C2246 0.930 . S
H2241 C2249 0.930 . S
H2242 C2250 0.930 . S
H2243 C2251 0.930 . S
H2244 C2254 0.930 . S
H2245 C2255 0.930 . S
C2246 H2240 0.930 . S
C2246 C2247 1.355 . S
C2246 C2248 1.415 . S
C2247 C2246 1.355 . S
C2247 C2249 1.419 . S
C2248 C2246 1.415 . S
C2248 C2253 1.425 . S
C2248 C2255 1.409 . S
C2249 H2241 0.930 . S
C2249 C2247 1.419 . S
C2249 C2250 1.362 . S
C2250 H2242 0.930 . S
C2250 C2249 1.362 . S
C2250 C2253 1.409 . S
C2251 H2243 0.930 . S
C2251 C2252 1.355 . S
C2251 C2253 1.415 . S
C2252 C2251 1.355 . S
C2252 C2254 1.419 . S
C2253 C2248 1.425 . S
C2253 C2250 1.409 . S
C2253 C2251 1.415 . S
C2254 H2244 0.930 . S
C2254 C2252 1.419 . S
C2254 C2255 1.362 . S
C2255 H2245 0.930 . S
C2255 C2248 1.409 . S
C2255 C2254 1.362 . S
H2256 C2262 0.930 . S
H2257 C2265 0.930 . S
H2258 C2266 0.930 . S
H2259 C2267 0.930 . S
H2260 C2270 0.930 1_556 S
H2261 C2271 0.930 . S
C2262 H2256 0.930 . S
C2262 C2263 1.355 . S
C2262 C2264 1.415 . S
C2263 C2262 1.355 . S
C2263 C2265 1.419 . S
C2264 C2262 1.415 . S
C2264 C2269 1.425 . S
C2264 C2271 1.409 . S
C2265 H2257 0.930 . S
C2265 C2263 1.419 . S
C2265 C2266 1.362 . S
C2266 H2258 0.930 . S
C2266 C2265 1.362 . S
C2266 C2269 1.409 . S
C2267 H2259 0.930 . S
C2267 C2268 1.355 . S
C2267 C2269 1.415 . S
C2268 C2267 1.355 . S
C2268 C2270 1.419 . S
C2269 C2264 1.425 . S
C2269 C2266 1.409 . S
C2269 C2267 1.415 . S
C2270 H2260 0.930 1_554 S
C2270 C2268 1.419 . S
C2270 C2271 1.362 . S
C2271 H2261 0.930 . S
C2271 C2264 1.409 . S
C2271 C2270 1.362 . S
H2272 C2278 0.930 . S
H2273 C2281 0.930 . S
H2274 C2282 0.930 . S
H2275 C2283 0.930 . S
H2276 C2286 0.930 . S
H2277 C2287 0.930 . S
C2278 H2272 0.930 . S
C2278 C2279 1.355 . S
C2278 C2280 1.415 . S
C2279 C2278 1.355 . S
C2279 C2281 1.419 . S
C2280 C2278 1.415 . S
C2280 C2285 1.425 . S
C2280 C2287 1.409 . S
C2281 H2273 0.930 . S
C2281 C2279 1.419 . S
C2281 C2282 1.362 . S
C2282 H2274 0.930 . S
C2282 C2281 1.362 . S
C2282 C2285 1.409 . S
C2283 H2275 0.930 . S
C2283 C2284 1.355 . S
C2283 C2285 1.415 . S
C2284 C2283 1.355 . S
C2284 C2286 1.419 . S
C2285 C2280 1.425 . S
C2285 C2282 1.409 . S
C2285 C2283 1.415 . S
C2286 H2276 0.930 . S
C2286 C2284 1.419 . S
C2286 C2287 1.362 . S
C2287 H2277 0.930 . S
C2287 C2280 1.409 . S
C2287 C2286 1.362 . S
H2288 C2294 0.930 . S
H2289 C2297 0.930 . S
H2290 C2298 0.930 . S
H2291 C2299 0.930 . S
H2292 C2302 0.930 . S
H2293 C2303 0.930 . S
C2294 H2288 0.930 . S
C2294 C2295 1.355 . S
C2294 C2296 1.415 . S
C2295 C2294 1.355 . S
C2295 C2297 1.419 . S
C2296 C2294 1.415 . S
C2296 C2301 1.425 . S
C2296 C2303 1.409 . S
C2297 H2289 0.930 . S
C2297 C2295 1.419 . S
C2297 C2298 1.362 . S
C2298 H2290 0.930 . S
C2298 C2297 1.362 . S
C2298 C2301 1.409 . S
C2299 H2291 0.930 . S
C2299 C2300 1.355 . S
C2299 C2301 1.415 . S
C2300 C2299 1.355 . S
C2300 C2302 1.419 . S
C2301 C2296 1.425 . S
C2301 C2298 1.409 . S
C2301 C2299 1.415 . S
C2302 H2292 0.930 . S
C2302 C2300 1.419 . S
C2302 C2303 1.362 . S
C2303 H2293 0.930 . S
C2303 C2296 1.409 . S
C2303 C2302 1.362 . S
H2304 C2310 0.930 . S
H2305 C2313 0.930 . S
H2306 C2314 0.930 . S
H2307 C2315 0.930 . S
H2308 C2318 0.930 . S
H2309 C2319 0.930 . S
C2310 H2304 0.930 . S
C2310 C2311 1.355 . S
C2310 C2312 1.415 . S
C2311 C2310 1.355 . S
C2311 C2313 1.419 . S
C2312 C2310 1.415 . S
C2312 C2317 1.425 . S
C2312 C2319 1.409 . S
C2313 H2305 0.930 . S
C2313 C2311 1.419 . S
C2313 C2314 1.362 . S
C2314 H2306 0.930 . S
C2314 C2313 1.362 . S
C2314 C2317 1.409 . S
C2315 H2307 0.930 . S
C2315 C2316 1.355 . S
C2315 C2317 1.415 . S
C2316 C2315 1.355 . S
C2316 C2318 1.419 . S
C2317 C2312 1.425 . S
C2317 C2314 1.409 . S
C2317 C2315 1.415 . S
C2318 H2308 0.930 . S
C2318 C2316 1.419 . S
C2318 C2319 1.362 . S
C2319 H2309 0.930 . S
C2319 C2312 1.409 . S
C2319 C2318 1.362 . S
H2320 C2326 0.930 . S
H2321 C2329 0.930 . S
H2322 C2330 0.930 . S
H2323 C2331 0.930 . S
H2324 C2334 0.930 . S
H2325 C2335 0.930 . S
C2326 H2320 0.930 . S
C2326 C2327 1.355 . S
C2326 C2328 1.415 . S
C2327 C2326 1.355 . S
C2327 C2329 1.419 . S
C2328 C2326 1.415 . S
C2328 C2333 1.425 . S
C2328 C2335 1.409 . S
C2329 H2321 0.930 . S
C2329 C2327 1.419 . S
C2329 C2330 1.362 . S
C2330 H2322 0.930 . S
C2330 C2329 1.362 . S
C2330 C2333 1.409 . S
C2331 H2323 0.930 . S
C2331 C2332 1.355 . S
C2331 C2333 1.415 . S
C2332 C2331 1.355 . S
C2332 C2334 1.419 . S
C2333 C2328 1.425 . S
C2333 C2330 1.409 . S
C2333 C2331 1.415 . S
C2334 H2324 0.930 . S
C2334 C2332 1.419 . S
C2334 C2335 1.362 . S
C2335 H2325 0.930 . S
C2335 C2328 1.409 . S
C2335 C2334 1.362 . S
H2336 C2342 0.930 . S
H2337 C2345 0.930 . S
H2338 C2346 0.930 . S
H2339 C2347 0.930 . S
H2340 C2350 0.930 . S
H2341 C2351 0.930 . S
C2342 H2336 0.930 . S
C2342 C2343 1.355 . S
C2342 C2344 1.415 . S
C2343 C2342 1.355 . S
C2343 C2345 1.419 . S
C2344 C2342 1.415 . S
C2344 C2349 1.425 . S
C2344 C2351 1.409 . S
C2345 H2337 0.930 . S
C2345 C2343 1.419 . S
C2345 C2346 1.362 . S
C2346 H2338 0.930 . S
C2346 C2345 1.362 . S
C2346 C2349 1.409 . S
C2347 H2339 0.930 . S
C2347 C2348 1.355 . S
C2347 C2349 1.415 . S
C2348 C2347 1.355 . S
C2348 C2350 1.419 . S
C2349 C2344 1.425 . S
C2349 C2346 1.409 . S
C2349 C2347 1.415 . S
C2350 H2340 0.930 . S
C2350 C2348 1.419 . S
C2350 C2351 1.362 . S
C2351 H2341 0.930 . S
C2351 C2344 1.409 . S
C2351 C2350 1.362 . S
H2352 C2358 0.930 . S
H2353 C2361 0.930 . S
H2354 C2362 0.930 . S
H2355 C2363 0.930 . S
H2356 C2366 0.930 . S
H2357 C2367 0.930 . S
C2358 H2352 0.930 . S
C2358 C2359 1.355 . S
C2358 C2360 1.415 . S
C2359 C2358 1.355 . S
C2359 C2361 1.419 . S
C2360 C2358 1.415 . S
C2360 C2365 1.425 . S
C2360 C2367 1.409 . S
C2361 H2353 0.930 . S
C2361 C2359 1.419 . S
C2361 C2362 1.362 . S
C2362 H2354 0.930 . S
C2362 C2361 1.362 . S
C2362 C2365 1.409 . S
C2363 H2355 0.930 . S
C2363 C2364 1.355 . S
C2363 C2365 1.415 . S
C2364 C2363 1.355 . S
C2364 C2366 1.419 . S
C2365 C2360 1.425 . S
C2365 C2362 1.409 . S
C2365 C2363 1.415 . S
C2366 H2356 0.930 . S
C2366 C2364 1.419 . S
C2366 C2367 1.362 . S
C2367 H2357 0.930 . S
C2367 C2360 1.409 . S
C2367 C2366 1.362 . S
H2368 C2374 0.930 . S
H2369 C2377 0.930 . S
H2370 C2378 0.930 . S
H2371 C2379 0.930 . S
H2372 C2382 0.930 . S
H2373 C2383 0.930 . S
C2374 H2368 0.930 . S
C2374 C2375 1.355 . S
C2374 C2376 1.415 . S
C2375 C2374 1.355 . S
C2375 C2377 1.419 . S
C2376 C2374 1.415 . S
C2376 C2381 1.425 . S
C2376 C2383 1.409 . S
C2377 H2369 0.930 . S
C2377 C2375 1.419 . S
C2377 C2378 1.362 . S
C2378 H2370 0.930 . S
C2378 C2377 1.362 . S
C2378 C2381 1.409 . S
C2379 H2371 0.930 . S
C2379 C2380 1.355 . S
C2379 C2381 1.415 . S
C2380 C2379 1.355 . S
C2380 C2382 1.419 . S
C2381 C2376 1.425 . S
C2381 C2378 1.409 . S
C2381 C2379 1.415 . S
C2382 H2372 0.930 . S
C2382 C2380 1.419 . S
C2382 C2383 1.362 . S
C2383 H2373 0.930 . S
C2383 C2376 1.409 . S
C2383 C2382 1.362 . S
H2384 C2390 0.930 . S
H2385 C2393 0.930 . S
H2386 C2394 0.930 . S
H2387 C2395 0.930 . S
H2388 C2398 0.930 . S
H2389 C2399 0.930 . S
C2390 H2384 0.930 . S
C2390 C2391 1.355 . S
C2390 C2392 1.415 . S
C2391 C2390 1.355 . S
C2391 C2393 1.419 . S
C2392 C2390 1.415 . S
C2392 C2397 1.425 . S
C2392 C2399 1.409 . S
C2393 H2385 0.930 . S
C2393 C2391 1.419 . S
C2393 C2394 1.362 . S
C2394 H2386 0.930 . S
C2394 C2393 1.362 . S
C2394 C2397 1.409 . S
C2395 H2387 0.930 . S
C2395 C2396 1.355 . S
C2395 C2397 1.415 . S
C2396 C2395 1.355 . S
C2396 C2398 1.419 . S
C2397 C2392 1.425 . S
C2397 C2394 1.409 . S
C2397 C2395 1.415 . S
C2398 H2388 0.930 . S
C2398 C2396 1.419 . S
C2398 C2399 1.362 . S
C2399 H2389 0.930 . S
C2399 C2392 1.409 . S
C2399 C2398 1.362 . S
H2400 C2406 0.930 . S
H2401 C2409 0.930 . S
H2402 C2410 0.930 . S
H2403 C2411 0.930 . S
H2404 C2414 0.930 . S
H2405 C2415 0.930 . S
C2406 H2400 0.930 . S
C2406 C2407 1.355 . S
C2406 C2408 1.415 . S
C2407 C2406 1.355 . S
C2407 C2409 1.419 . S
C2408 C2406 1.415 . S
C2408 C2413 1.425 . S
C2408 C2415 1.409 . S
C2409 H2401 0.930 . S
C2409 C2407 1.419 . S
C2409 C2410 1.362 . S
C2410 H2402 0.930 . S
C2410 C2409 1.362 . S
C2410 C2413 1.409 . S
C2411 H2403 0.930 . S
C2411 C2412 1.355 . S
C2411 C2413 1.415 . S
C2412 C2411 1.355 . S
C2412 C2414 1.419 . S
C2413 C2408 1.425 . S
C2413 C2410 1.409 . S
C2413 C2411 1.415 . S
C2414 H2404 0.930 . S
C2414 C2412 1.419 . S
C2414 C2415 1.362 . S
C2415 H2405 0.930 . S
C2415 C2408 1.409 . S
C2415 C2414 1.362 . S
H2416 C2422 0.930 . S
H2417 C2425 0.930 . S
H2418 C2426 0.930 . S
H2419 C2427 0.930 . S
H2420 C2430 0.930 . S
H2421 C2431 0.930 . S
C2422 H2416 0.930 . S
C2422 C2423 1.355 . S
C2422 C2424 1.415 . S
C2423 C2422 1.355 . S
C2423 C2425 1.419 . S
C2424 C2422 1.415 . S
C2424 C2429 1.425 . S
C2424 C2431 1.409 . S
C2425 H2417 0.930 . S
C2425 C2423 1.419 . S
C2425 C2426 1.362 . S
C2426 H2418 0.930 . S
C2426 C2425 1.362 . S
C2426 C2429 1.409 . S
C2427 H2419 0.930 . S
C2427 C2428 1.355 . S
C2427 C2429 1.415 . S
C2428 C2427 1.355 . S
C2428 C2430 1.419 . S
C2429 C2424 1.425 . S
C2429 C2426 1.409 . S
C2429 C2427 1.415 . S
C2430 H2420 0.930 . S
C2430 C2428 1.419 . S
C2430 C2431 1.362 . S
C2431 H2421 0.930 . S
C2431 C2424 1.409 . S
C2431 C2430 1.362 . S
H2432 C2438 0.930 . S
H2433 C2441 0.930 . S
H2434 C2442 0.930 . S
H2435 C2443 0.930 . S
H2436 C2446 0.930 . S
H2437 C2447 0.930 . S
C2438 H2432 0.930 . S
C2438 C2439 1.355 . S
C2438 C2440 1.415 . S
C2439 C2438 1.355 . S
C2439 C2441 1.419 . S
C2440 C2438 1.415 . S
C2440 C2445 1.425 . S
C2440 C2447 1.409 . S
C2441 H2433 0.930 . S
C2441 C2439 1.419 . S
C2441 C2442 1.362 . S
C2442 H2434 0.930 . S
C2442 C2441 1.362 . S
C2442 C2445 1.409 . S
C2443 H2435 0.930 . S
C2443 C2444 1.355 . S
C2443 C2445 1.415 . S
C2444 C2443 1.355 . S
C2444 C2446 1.419 . S
C2445 C2440 1.425 . S
C2445 C2442 1.409 . S
C2445 C2443 1.415 . S
C2446 H2436 0.930 . S
C2446 C2444 1.419 . S
C2446 C2447 1.362 . S
C2447 H2437 0.930 . S
C2447 C2440 1.409 . S
C2447 C2446 1.362 . S
H2448 C2454 0.930 . S
H2449 C2457 0.930 . S
H2450 C2458 0.930 . S
H2451 C2459 0.930 . S
H2452 C2462 0.930 . S
H2453 C2463 0.930 . S
C2454 H2448 0.930 . S
C2454 C2455 1.355 . S
C2454 C2456 1.415 . S
C2455 C2454 1.355 . S
C2455 C2457 1.419 . S
C2456 C2454 1.415 . S
C2456 C2461 1.425 . S
C2456 C2463 1.409 . S
C2457 H2449 0.930 . S
C2457 C2455 1.419 . S
C2457 C2458 1.362 . S
C2458 H2450 0.930 . S
C2458 C2457 1.362 . S
C2458 C2461 1.409 . S
C2459 H2451 0.930 . S
C2459 C2460 1.355 . S
C2459 C2461 1.415 . S
C2460 C2459 1.355 . S
C2460 C2462 1.419 . S
C2461 C2456 1.425 . S
C2461 C2458 1.409 . S
C2461 C2459 1.415 . S
C2462 H2452 0.930 . S
C2462 C2460 1.419 . S
C2462 C2463 1.362 . S
C2463 H2453 0.930 . S
C2463 C2456 1.409 . S
C2463 C2462 1.362 . S
H2464 C2470 0.930 . S
H2465 C2473 0.930 . S
H2466 C2474 0.930 . S
H2467 C2475 0.930 . S
H2468 C2478 0.930 . S
H2469 C2479 0.930 . S
C2470 H2464 0.930 . S
C2470 C2471 1.355 . S
C2470 C2472 1.415 . S
C2471 C2470 1.355 . S
C2471 C2473 1.419 . S
C2472 C2470 1.415 . S
C2472 C2477 1.425 . S
C2472 C2479 1.409 . S
C2473 H2465 0.930 . S
C2473 C2471 1.419 . S
C2473 C2474 1.362 . S
C2474 H2466 0.930 . S
C2474 C2473 1.362 . S
C2474 C2477 1.409 . S
C2475 H2467 0.930 . S
C2475 C2476 1.355 . S
C2475 C2477 1.415 . S
C2476 C2475 1.355 . S
C2476 C2478 1.419 . S
C2477 C2472 1.425 . S
C2477 C2474 1.409 . S
C2477 C2475 1.415 . S
C2478 H2468 0.930 . S
C2478 C2476 1.419 . S
C2478 C2479 1.362 . S
C2479 H2469 0.930 . S
C2479 C2472 1.409 . S
C2479 C2478 1.362 . S
H2480 C2486 0.930 . S
H2481 C2489 0.930 . S
H2482 C2490 0.930 . S
H2483 C2491 0.930 . S
H2484 C2494 0.930 . S
H2485 C2495 0.930 . S
C2486 H2480 0.930 . S
C2486 C2487 1.355 . S
C2486 C2488 1.415 . S
C2487 C2486 1.355 . S
C2487 C2489 1.419 . S
C2488 C2486 1.415 . S
C2488 C2493 1.425 . S
C2488 C2495 1.409 . S
C2489 H2481 0.930 . S
C2489 C2487 1.419 . S
C2489 C2490 1.362 . S
C2490 H2482 0.930 . S
C2490 C2489 1.362 . S
C2490 C2493 1.409 . S
C2491 H2483 0.930 . S
C2491 C2492 1.355 . S
C2491 C2493 1.415 . S
C2492 C2491 1.355 . S
C2492 C2494 1.419 . S
C2493 C2488 1.425 . S
C2493 C2490 1.409 . S
C2493 C2491 1.415 . S
C2494 H2484 0.930 . S
C2494 C2492 1.419 . S
C2494 C2495 1.362 . S
C2495 H2485 0.930 . S
C2495 C2488 1.409 . S
C2495 C2494 1.362 . S
H2496 C2502 0.930 . S
H2497 C2505 0.930 . S
H2498 C2506 0.930 . S
H2499 C2507 0.915 1_554 S
H2500 C2510 0.930 . S
H2501 C2511 0.930 . S
C2502 H2496 0.930 . S
C2502 C2503 1.355 . S
C2502 C2504 1.415 . S
C2503 C2502 1.355 . S
C2503 C2505 1.419 . S
C2504 C2502 1.415 . S
C2504 C2509 1.425 . S
C2504 C2511 1.409 . S
C2505 H2497 0.930 . S
C2505 C2503 1.419 . S
C2505 C2506 1.362 . S
C2506 H2498 0.930 . S
C2506 C2505 1.362 . S
C2506 C2509 1.409 . S
C2507 H2499 0.915 1_556 S
C2507 C2508 1.355 . S
C2507 C2509 1.415 . S
C2508 C2507 1.355 . S
C2508 C2510 1.419 . S
C2509 C2504 1.425 . S
C2509 C2506 1.409 . S
C2509 C2507 1.415 . S
C2510 H2500 0.930 . S
C2510 C2508 1.419 . S
C2510 C2511 1.362 . S
C2511 H2501 0.930 . S
C2511 C2504 1.409 . S
C2511 C2510 1.362 . S
H2512 C2518 0.930 . S
H2513 C2521 0.930 . S
H2514 C2522 0.930 . S
H2515 C2523 0.930 . S
H2516 C2526 0.930 . S
H2517 C2527 0.930 . S
C2518 H2512 0.930 . S
C2518 C2519 1.355 . S
C2518 C2520 1.415 . S
C2519 C2518 1.355 . S
C2519 C2521 1.419 . S
C2520 C2518 1.415 . S
C2520 C2525 1.425 . S
C2520 C2527 1.409 . S
C2521 H2513 0.930 . S
C2521 C2519 1.419 . S
C2521 C2522 1.362 . S
C2522 H2514 0.930 . S
C2522 C2521 1.362 . S
C2522 C2525 1.409 . S
C2523 H2515 0.930 . S
C2523 C2524 1.355 . S
C2523 C2525 1.415 . S
C2524 C2523 1.355 . S
C2524 C2526 1.419 . S
C2525 C2520 1.425 . S
C2525 C2522 1.409 . S
C2525 C2523 1.415 . S
C2526 H2516 0.930 . S
C2526 C2524 1.419 . S
C2526 C2527 1.362 . S
C2527 H2517 0.930 . S
C2527 C2520 1.409 . S
C2527 C2526 1.362 . S
H2528 C2534 0.930 . S
H2529 C2537 0.930 . S
H2530 C2538 0.930 . S
H2531 C2539 0.930 . S
H2532 C2542 0.930 . S
H2533 C2543 0.930 . S
C2534 H2528 0.930 . S
C2534 C2535 1.355 . S
C2534 C2536 1.415 . S
C2535 C2534 1.355 . S
C2535 C2537 1.419 . S
C2536 C2534 1.415 . S
C2536 C2541 1.425 . S
C2536 C2543 1.409 . S
C2537 H2529 0.930 . S
C2537 C2535 1.419 . S
C2537 C2538 1.362 . S
C2538 H2530 0.930 . S
C2538 C2537 1.362 . S
C2538 C2541 1.409 . S
C2539 H2531 0.930 . S
C2539 C2540 1.355 . S
C2539 C2541 1.415 . S
C2540 C2539 1.355 . S
C2540 C2542 1.419 . S
C2541 C2536 1.425 . S
C2541 C2538 1.409 . S
C2541 C2539 1.415 . S
C2542 H2532 0.930 . S
C2542 C2540 1.419 . S
C2542 C2543 1.362 . S
C2543 H2533 0.930 . S
C2543 C2536 1.409 . S
C2543 C2542 1.362 . S
H2544 C2550 0.930 . S
H2545 C2553 0.930 . S
H2546 C2554 0.930 . S
H2547 C2555 0.930 . S
H2548 C2558 0.930 . S
H2549 C2559 0.930 . S
C2550 H2544 0.930 . S
C2550 C2551 1.355 . S
C2550 C2552 1.415 . S
C2551 C2550 1.355 . S
C2551 C2553 1.419 . S
C2552 C2550 1.415 . S
C2552 C2557 1.425 . S
C2552 C2559 1.409 . S
C2553 H2545 0.930 . S
C2553 C2551 1.419 . S
C2553 C2554 1.362 . S
C2554 H2546 0.930 . S
C2554 C2553 1.362 . S
C2554 C2557 1.409 . S
C2555 H2547 0.930 . S
C2555 C2556 1.355 . S
C2555 C2557 1.415 . S
C2556 C2555 1.355 . S
C2556 C2558 1.419 . S
C2557 C2552 1.425 . S
C2557 C2554 1.409 . S
C2557 C2555 1.415 . S
C2558 H2548 0.930 . S
C2558 C2556 1.419 . S
C2558 C2559 1.362 . S
C2559 H2549 0.930 . S
C2559 C2552 1.409 . S
C2559 C2558 1.362 . S
H2560 C2566 0.930 . S
H2561 C2569 0.930 . S
H2562 C2570 0.930 . S
H2563 C2571 0.930 . S
H2564 C2574 0.930 . S
H2565 C2575 0.930 . S
C2566 H2560 0.930 . S
C2566 C2567 1.355 . S
C2566 C2568 1.415 . S
C2567 C2566 1.355 . S
C2567 C2569 1.419 . S
C2568 C2566 1.415 . S
C2568 C2573 1.425 . S
C2568 C2575 1.409 . S
C2569 H2561 0.930 . S
C2569 C2567 1.419 . S
C2569 C2570 1.362 . S
C2570 H2562 0.930 . S
C2570 C2569 1.362 . S
C2570 C2573 1.409 . S
C2571 H2563 0.930 . S
C2571 C2572 1.355 . S
C2571 C2573 1.415 . S
C2572 C2571 1.355 . S
C2572 C2574 1.419 . S
C2573 C2568 1.425 . S
C2573 C2570 1.409 . S
C2573 C2571 1.415 . S
C2574 H2564 0.930 . S
C2574 C2572 1.419 . S
C2574 C2575 1.362 . S
C2575 H2565 0.930 . S
C2575 C2568 1.409 . S
C2575 C2574 1.362 . S
H2576 C2582 0.930 . S
H2577 C2585 0.930 . S
H2578 C2586 0.930 . S
H2579 C2587 0.930 . S
H2580 C2590 0.930 . S
H2581 C2591 0.930 . S
C2582 H2576 0.930 . S
C2582 C2583 1.355 . S
C2582 C2584 1.415 . S
C2583 C2582 1.355 . S
C2583 C2585 1.419 . S
C2584 C2582 1.415 . S
C2584 C2589 1.425 . S
C2584 C2591 1.409 . S
C2585 H2577 0.930 . S
C2585 C2583 1.419 . S
C2585 C2586 1.362 . S
C2586 H2578 0.930 . S
C2586 C2585 1.362 . S
C2586 C2589 1.409 . S
C2587 H2579 0.930 . S
C2587 C2588 1.355 . S
C2587 C2589 1.415 . S
C2588 C2587 1.355 . S
C2588 C2590 1.419 . S
C2589 C2584 1.425 . S
C2589 C2586 1.409 . S
C2589 C2587 1.415 . S
C2590 H2580 0.930 . S
C2590 C2588 1.419 . S
C2590 C2591 1.362 . S
C2591 H2581 0.930 . S
C2591 C2584 1.409 . S
C2591 C2590 1.362 . S
H2592 C2598 0.930 . S
H2593 C2601 0.930 . S
H2594 C2602 0.930 . S
H2595 C2603 0.930 . S
H2596 C2606 0.930 . S
H2597 C2607 0.930 . S
C2598 H2592 0.930 . S
C2598 C2599 1.355 . S
C2598 C2600 1.415 . S
C2599 C2598 1.355 . S
C2599 C2601 1.419 . S
C2600 C2598 1.415 . S
C2600 C2605 1.425 1_455 S
C2600 C2607 1.409 . S
C2601 H2593 0.930 . S
C2601 C2599 1.419 . S
C2601 C2602 1.362 1_455 S
C2602 H2594 0.930 . S
C2602 C2601 1.362 1_655 S
C2602 C2605 1.409 . S
C2603 H2595 0.930 . S
C2603 C2604 1.355 . S
C2603 C2605 1.415 . S
C2604 C2603 1.355 . S
C2604 C2606 1.419 . S
C2605 C2600 1.425 1_655 S
C2605 C2602 1.409 . S
C2605 C2603 1.415 . S
C2606 H2596 0.930 . S
C2606 C2604 1.419 . S
C2606 C2607 1.362 1_655 S
C2607 H2597 0.930 . S
C2607 C2600 1.409 . S
C2607 C2606 1.362 1_455 S
H2608 C2614 0.930 . S
H2609 C2617 0.930 . S
H2610 C2618 0.930 . S
H2611 C2619 0.930 . S
H2612 C2622 0.930 . S
H2613 C2623 0.930 . S
C2614 H2608 0.930 . S
C2614 C2615 1.355 . S
C2614 C2616 1.415 . S
C2615 C2614 1.355 . S
C2615 C2617 1.419 . S
C2616 C2614 1.415 . S
C2616 C2621 1.425 . S
C2616 C2623 1.409 . S
C2617 H2609 0.930 . S
C2617 C2615 1.419 . S
C2617 C2618 1.362 . S
C2618 H2610 0.930 . S
C2618 C2617 1.362 . S
C2618 C2621 1.409 . S
C2619 H2611 0.930 . S
C2619 C2620 1.355 . S
C2619 C2621 1.415 . S
C2620 C2619 1.355 . S
C2620 C2622 1.419 . S
C2621 C2616 1.425 . S
C2621 C2618 1.409 . S
C2621 C2619 1.415 . S
C2622 H2612 0.930 . S
C2622 C2620 1.419 . S
C2622 C2623 1.362 . S
C2623 H2613 0.930 . S
C2623 C2616 1.409 . S
C2623 C2622 1.362 . S
H2624 C2630 0.930 . S
H2625 C2633 0.930 . S
H2626 C2634 0.930 . S
H2627 C2635 0.930 . S
H2628 C2638 0.930 . S
H2629 C2639 0.930 . S
C2630 H2624 0.930 . S
C2630 C2631 1.355 . S
C2630 C2632 1.415 1_565 S
C2631 C2630 1.355 . S
C2631 C2633 1.419 . S
C2632 C2630 1.415 1_545 S
C2632 C2637 1.425 1_545 S
C2632 C2639 1.409 . S
C2633 H2625 0.930 . S
C2633 C2631 1.419 . S
C2633 C2634 1.362 . S
C2634 H2626 0.930 . S
C2634 C2633 1.362 . S
C2634 C2637 1.409 . S
C2635 H2627 0.930 . S
C2635 C2636 1.355 . S
C2635 C2637 1.415 1_545 S
C2636 C2635 1.355 . S
C2636 C2638 1.419 . S
C2637 C2632 1.425 1_565 S
C2637 C2634 1.409 . S
C2637 C2635 1.415 1_565 S
C2638 H2628 0.930 . S
C2638 C2636 1.419 . S
C2638 C2639 1.362 . S
C2639 H2629 0.930 . S
C2639 C2632 1.409 . S
C2639 C2638 1.362 . S
H2640 C2646 0.930 . S
H2641 C2649 0.930 . S
H2642 C2650 0.930 . S
H2643 C2651 0.930 . S
H2644 C2654 0.930 . S
H2645 C2655 0.930 . S
C2646 H2640 0.930 . S
C2646 C2647 1.355 . S
C2646 C2648 1.415 1_655 S
C2647 C2646 1.355 . S
C2647 C2649 1.419 . S
C2648 C2646 1.415 1_455 S
C2648 C2653 1.425 1_455 S
C2648 C2655 1.409 . S
C2649 H2641 0.930 . S
C2649 C2647 1.419 . S
C2649 C2650 1.362 . S
C2650 H2642 0.930 . S
C2650 C2649 1.362 . S
C2650 C2653 1.409 . S
C2651 H2643 0.930 . S
C2651 C2652 1.355 . S
C2651 C2653 1.415 1_455 S
C2652 C2651 1.355 . S
C2652 C2654 1.419 . S
C2653 C2648 1.425 1_655 S
C2653 C2650 1.409 . S
C2653 C2651 1.415 1_655 S
C2654 H2644 0.930 . S
C2654 C2652 1.419 . S
C2654 C2655 1.362 . S
C2655 H2645 0.930 . S
C2655 C2648 1.409 . S
C2655 C2654 1.362 . S
H2656 C2662 0.930 . S
H2657 C2665 0.930 . S
H2658 C2666 0.930 . S
H2659 C2667 0.930 . S
H2660 C2670 0.930 . S
H2661 C2671 0.930 . S
C2662 H2656 0.930 . S
C2662 C2663 1.355 . S
C2662 C2664 1.415 . S
C2663 C2662 1.355 . S
C2663 C2665 1.419 . S
C2664 C2662 1.415 . S
C2664 C2669 1.425 . S
C2664 C2671 1.409 . S
C2665 H2657 0.930 . S
C2665 C2663 1.419 . S
C2665 C2666 1.362 . S
C2666 H2658 0.930 . S
C2666 C2665 1.362 . S
C2666 C2669 1.409 . S
C2667 H2659 0.930 . S
C2667 C2668 1.355 . S
C2667 C2669 1.415 . S
C2668 C2667 1.355 . S
C2668 C2670 1.419 . S
C2669 C2664 1.425 . S
C2669 C2666 1.409 . S
C2669 C2667 1.415 . S
C2670 H2660 0.930 . S
C2670 C2668 1.419 . S
C2670 C2671 1.362 . S
C2671 H2661 0.930 . S
C2671 C2664 1.409 . S
C2671 C2670 1.362 . S
H2672 C2678 0.930 1_565 S
H2673 C2681 0.930 . S
H2674 C2682 0.930 . S
H2675 C2683 0.930 1_545 S
H2676 C2686 0.930 . S
H2677 C2687 0.930 . S
C2678 H2672 0.930 1_545 S
C2678 C2679 1.355 . S
C2678 C2680 1.415 1_545 S
C2679 C2678 1.355 . S
C2679 C2681 1.419 . S
C2680 C2678 1.415 1_565 S
C2680 C2685 1.425 1_565 S
C2680 C2687 1.409 . S
C2681 H2673 0.930 . S
C2681 C2679 1.419 . S
C2681 C2682 1.362 . S
C2682 H2674 0.930 . S
C2682 C2681 1.362 . S
C2682 C2685 1.409 . S
C2683 H2675 0.930 1_565 S
C2683 C2684 1.355 . S
C2683 C2685 1.415 1_565 S
C2684 C2683 1.355 . S
C2684 C2686 1.419 . S
C2685 C2680 1.425 1_545 S
C2685 C2682 1.409 . S
C2685 C2683 1.415 1_545 S
C2686 H2676 0.930 . S
C2686 C2684 1.419 . S
C2686 C2687 1.362 . S
C2687 H2677 0.930 . S
C2687 C2680 1.409 . S
C2687 C2686 1.362 . S
H2688 C2694 0.930 . S
H2689 C2697 0.930 . S
H2690 C2698 0.930 . S
H2691 C2699 0.930 . S
H2692 C2702 0.930 . S
H2693 C2703 0.930 . S
C2694 H2688 0.930 . S
C2694 C2695 1.355 . S
C2694 C2696 1.415 . S
C2695 C2694 1.355 . S
C2695 C2697 1.419 . S
C2696 C2694 1.415 . S
C2696 C2701 1.425 . S
C2696 C2703 1.409 . S
C2697 H2689 0.930 . S
C2697 C2695 1.419 . S
C2697 C2698 1.362 . S
C2698 H2690 0.930 . S
C2698 C2697 1.362 . S
C2698 C2701 1.409 . S
C2699 H2691 0.930 . S
C2699 C2700 1.355 . S
C2699 C2701 1.415 . S
C2700 C2699 1.355 . S
C2700 C2702 1.419 . S
C2701 C2696 1.425 . S
C2701 C2698 1.409 . S
C2701 C2699 1.415 . S
C2702 H2692 0.930 . S
C2702 C2700 1.419 . S
C2702 C2703 1.362 . S
C2703 H2693 0.930 . S
C2703 C2696 1.409 . S
C2703 C2702 1.362 . S
H2704 C2710 0.930 . S
H2705 C2713 0.930 . S
H2706 C2714 0.930 . S
H2707 C2715 0.930 . S
H2708 C2718 0.930 . S
H2709 C2719 0.930 . S
C2710 H2704 0.930 . S
C2710 C2711 1.355 . S
C2710 C2712 1.415 . S
C2711 C2710 1.355 . S
C2711 C2713 1.419 . S
C2712 C2710 1.415 . S
C2712 C2717 1.425 . S
C2712 C2719 1.409 . S
C2713 H2705 0.930 . S
C2713 C2711 1.419 . S
C2713 C2714 1.362 . S
C2714 H2706 0.930 . S
C2714 C2713 1.362 . S
C2714 C2717 1.409 . S
C2715 H2707 0.930 . S
C2715 C2716 1.355 . S
C2715 C2717 1.415 . S
C2716 C2715 1.355 . S
C2716 C2718 1.419 . S
C2717 C2712 1.425 . S
C2717 C2714 1.409 . S
C2717 C2715 1.415 . S
C2718 H2708 0.930 . S
C2718 C2716 1.419 . S
C2718 C2719 1.362 . S
C2719 H2709 0.930 . S
C2719 C2712 1.409 . S
C2719 C2718 1.362 . S
H2720 C2726 0.930 . S
H2721 C2729 0.930 . S
H2722 C2730 0.930 . S
H2723 C2731 0.930 . S
H2724 C2734 0.930 . S
H2725 C2735 0.930 . S
C2726 H2720 0.930 . S
C2726 C2727 1.355 . S
C2726 C2728 1.415 . S
C2727 C2726 1.355 . S
C2727 C2729 1.419 . S
C2728 C2726 1.415 . S
C2728 C2733 1.425 . S
C2728 C2735 1.409 . S
C2729 H2721 0.930 . S
C2729 C2727 1.419 . S
C2729 C2730 1.362 . S
C2730 H2722 0.930 . S
C2730 C2729 1.362 . S
C2730 C2733 1.409 . S
C2731 H2723 0.930 . S
C2731 C2732 1.355 . S
C2731 C2733 1.415 . S
C2732 C2731 1.355 . S
C2732 C2734 1.419 . S
C2733 C2728 1.425 . S
C2733 C2730 1.409 . S
C2733 C2731 1.415 . S
C2734 H2724 0.930 . S
C2734 C2732 1.419 . S
C2734 C2735 1.362 . S
C2735 H2725 0.930 . S
C2735 C2728 1.409 . S
C2735 C2734 1.362 . S
H2736 C2742 0.930 . S
H2737 C2745 0.930 . S
H2738 C2746 0.930 . S
H2739 C2747 0.930 . S
H2740 C2750 0.930 . S
H2741 C2751 0.930 . S
C2742 H2736 0.930 . S
C2742 C2743 1.355 . S
C2742 C2744 1.415 . S
C2743 C2742 1.355 . S
C2743 C2745 1.419 . S
C2744 C2742 1.415 . S
C2744 C2749 1.425 . S
C2744 C2751 1.409 . S
C2745 H2737 0.930 . S
C2745 C2743 1.419 . S
C2745 C2746 1.362 . S
C2746 H2738 0.930 . S
C2746 C2745 1.362 . S
C2746 C2749 1.409 . S
C2747 H2739 0.930 . S
C2747 C2748 1.355 . S
C2747 C2749 1.415 . S
C2748 C2747 1.355 . S
C2748 C2750 1.419 . S
C2749 C2744 1.425 . S
C2749 C2746 1.409 . S
C2749 C2747 1.415 . S
C2750 H2740 0.930 . S
C2750 C2748 1.419 . S
C2750 C2751 1.362 . S
C2751 H2741 0.930 . S
C2751 C2744 1.409 . S
C2751 C2750 1.362 . S
H2752 C2758 0.930 . S
H2753 C2761 0.930 . S
H2754 C2762 0.930 . S
H2755 C2763 0.930 . S
H2756 C2766 0.930 . S
H2757 C2767 0.930 . S
C2758 H2752 0.930 . S
C2758 C2759 1.355 . S
C2758 C2760 1.415 . S
C2759 C2758 1.355 . S
C2759 C2761 1.419 . S
C2760 C2758 1.415 . S
C2760 C2765 1.425 . S
C2760 C2767 1.409 . S
C2761 H2753 0.930 . S
C2761 C2759 1.419 . S
C2761 C2762 1.362 . S
C2762 H2754 0.930 . S
C2762 C2761 1.362 . S
C2762 C2765 1.409 . S
C2763 H2755 0.930 . S
C2763 C2764 1.355 . S
C2763 C2765 1.415 . S
C2764 C2763 1.355 . S
C2764 C2766 1.419 . S
C2765 C2760 1.425 . S
C2765 C2762 1.409 . S
C2765 C2763 1.415 . S
C2766 H2756 0.930 . S
C2766 C2764 1.419 . S
C2766 C2767 1.362 . S
C2767 H2757 0.930 . S
C2767 C2760 1.409 . S
C2767 C2766 1.362 . S
H2768 C2774 0.930 . S
H2769 C2777 0.930 . S
H2770 C2778 0.930 . S
H2771 C2779 0.930 . S
H2772 C2782 0.930 . S
H2773 C2783 0.930 . S
C2774 H2768 0.930 . S
C2774 C2775 1.355 . S
C2774 C2776 1.415 . S
C2775 C2774 1.355 . S
C2775 C2777 1.419 . S
C2776 C2774 1.415 . S
C2776 C2781 1.425 . S
C2776 C2783 1.409 . S
C2777 H2769 0.930 . S
C2777 C2775 1.419 . S
C2777 C2778 1.362 . S
C2778 H2770 0.930 . S
C2778 C2777 1.362 . S
C2778 C2781 1.409 . S
C2779 H2771 0.930 . S
C2779 C2780 1.355 . S
C2779 C2781 1.415 . S
C2780 C2779 1.355 . S
C2780 C2782 1.419 . S
C2781 C2776 1.425 . S
C2781 C2778 1.409 . S
C2781 C2779 1.415 . S
C2782 H2772 0.930 . S
C2782 C2780 1.419 . S
C2782 C2783 1.362 . S
C2783 H2773 0.930 . S
C2783 C2776 1.409 . S
C2783 C2782 1.362 . S
H2784 C2790 0.930 . S
H2785 C2793 0.930 . S
H2786 C2794 0.930 . S
H2787 C2795 0.930 . S
H2788 C2798 0.930 . S
H2789 C2799 0.930 . S
C2790 H2784 0.930 . S
C2790 C2791 1.355 . S
C2790 C2792 1.415 . S
C2791 C2790 1.355 . S
C2791 C2793 1.419 . S
C2792 C2790 1.415 . S
C2792 C2797 1.425 . S
C2792 C2799 1.409 . S
C2793 H2785 0.930 . S
C2793 C2791 1.419 . S
C2793 C2794 1.362 . S
C2794 H2786 0.930 . S
C2794 C2793 1.362 . S
C2794 C2797 1.409 . S
C2795 H2787 0.930 . S
C2795 C2796 1.355 1_554 S
C2795 C2797 1.415 . S
C2796 C2795 1.355 1_556 S
C2796 C2798 1.419 . S
C2797 C2792 1.425 . S
C2797 C2794 1.409 . S
C2797 C2795 1.415 . S
C2798 H2788 0.930 . S
C2798 C2796 1.419 . S
C2798 C2799 1.362 1_556 S
C2799 H2789 0.930 . S
C2799 C2792 1.409 . S
C2799 C2798 1.362 1_554 S
H2800 C2806 0.930 . S
H2801 C2809 0.930 . S
H2802 C2810 0.930 . S
H2803 C2811 0.930 . S
H2804 C2814 0.930 . S
H2805 C2815 0.930 . S
C2806 H2800 0.930 . S
C2806 C2807 1.355 1_554 S
C2806 C2808 1.415 . S
C2807 C2806 1.355 1_556 S
C2807 C2809 1.419 . S
C2808 C2806 1.415 . S
C2808 C2813 1.425 . S
C2808 C2815 1.409 . S
C2809 H2801 0.930 . S
C2809 C2807 1.419 . S
C2809 C2810 1.362 . S
C2810 H2802 0.930 . S
C2810 C2809 1.362 . S
C2810 C2813 1.409 1_556 S
C2811 H2803 0.930 . S
C2811 C2812 1.355 . S
C2811 C2813 1.415 . S
C2812 C2811 1.355 . S
C2812 C2814 1.419 . S
C2813 C2808 1.425 . S
C2813 C2810 1.409 1_554 S
C2813 C2811 1.415 . S
C2814 H2804 0.930 . S
C2814 C2812 1.419 . S
C2814 C2815 1.362 . S
C2815 H2805 0.930 . S
C2815 C2808 1.409 . S
C2815 C2814 1.362 . S
H2816 C2822 0.930 . S
H2817 C2825 0.930 . S
H2818 C2826 0.930 . S
H2819 C2827 0.930 . S
H2820 C2830 0.930 . S
H2821 C2831 0.930 . S
C2822 H2816 0.930 . S
C2822 C2823 1.355 1_554 S
C2822 C2824 1.415 . S
C2823 C2822 1.355 1_556 S
C2823 C2825 1.419 . S
C2824 C2822 1.415 . S
C2824 C2829 1.425 . S
C2824 C2831 1.409 . S
C2825 H2817 0.930 . S
C2825 C2823 1.419 . S
C2825 C2826 1.362 . S
C2826 H2818 0.930 . S
C2826 C2825 1.362 . S
C2826 C2829 1.409 1_556 S
C2827 H2819 0.930 . S
C2827 C2828 1.355 . S
C2827 C2829 1.415 . S
C2828 C2827 1.355 . S
C2828 C2830 1.419 . S
C2829 C2824 1.425 . S
C2829 C2826 1.409 1_554 S
C2829 C2827 1.415 . S
C2830 H2820 0.930 . S
C2830 C2828 1.419 . S
C2830 C2831 1.362 . S
C2831 H2821 0.930 . S
C2831 C2824 1.409 . S
C2831 C2830 1.362 . S
H2832 C2838 0.930 . S
H2833 C2841 0.930 . S
H2834 C2842 0.930 . S
H2835 C2843 0.930 . S
H2836 C2846 0.930 . S
H2837 C2847 0.930 . S
C2838 H2832 0.930 . S
C2838 C2839 1.355 . S
C2838 C2840 1.415 . S
C2839 C2838 1.355 . S
C2839 C2841 1.419 . S
C2840 C2838 1.415 . S
C2840 C2845 1.425 . S
C2840 C2847 1.409 . S
C2841 H2833 0.930 . S
C2841 C2839 1.419 . S
C2841 C2842 1.362 . S
C2842 H2834 0.930 . S
C2842 C2841 1.362 . S
C2842 C2845 1.409 . S
C2843 H2835 0.930 . S
C2843 C2844 1.355 . S
C2843 C2845 1.415 . S
C2844 C2843 1.355 . S
C2844 C2846 1.419 . S
C2845 C2840 1.425 . S
C2845 C2842 1.409 . S
C2845 C2843 1.415 . S
C2846 H2836 0.930 . S
C2846 C2844 1.419 . S
C2846 C2847 1.362 . S
C2847 H2837 0.930 . S
C2847 C2840 1.409 . S
C2847 C2846 1.362 . S
H2848 C2854 0.930 . S
H2849 C2857 0.930 . S
H2850 C2858 0.930 . S
H2851 C2859 0.930 . S
H2852 C2862 0.930 . S
H2853 C2863 0.930 . S
C2854 H2848 0.930 . S
C2854 C2855 1.355 . S
C2854 C2856 1.415 . S
C2855 C2854 1.355 . S
C2855 C2857 1.419 . S
C2856 C2854 1.415 . S
C2856 C2861 1.425 . S
C2856 C2863 1.409 . S
C2857 H2849 0.930 . S
C2857 C2855 1.419 . S
C2857 C2858 1.362 . S
C2858 H2850 0.930 . S
C2858 C2857 1.362 . S
C2858 C2861 1.409 . S
C2859 H2851 0.930 . S
C2859 C2860 1.355 . S
C2859 C2861 1.415 . S
C2860 C2859 1.355 . S
C2860 C2862 1.419 . S
C2861 C2856 1.425 . S
C2861 C2858 1.409 . S
C2861 C2859 1.415 . S
C2862 H2852 0.930 . S
C2862 C2860 1.419 . S
C2862 C2863 1.362 . S
C2863 H2853 0.930 . S
C2863 C2856 1.409 . S
C2863 C2862 1.362 . S
H2864 C2870 0.930 . S
H2865 C2873 0.930 . S
H2866 C2874 0.930 . S
H2867 C2875 0.930 . S
H2868 C2878 0.930 . S
H2869 C2879 0.930 . S
C2870 H2864 0.930 . S
C2870 C2871 1.355 . S
C2870 C2872 1.415 . S
C2871 C2870 1.355 . S
C2871 C2873 1.419 . S
C2872 C2870 1.415 . S
C2872 C2877 1.425 . S
C2872 C2879 1.409 . S
C2873 H2865 0.930 . S
C2873 C2871 1.419 . S
C2873 C2874 1.362 . S
C2874 H2866 0.930 . S
C2874 C2873 1.362 . S
C2874 C2877 1.409 . S
C2875 H2867 0.930 . S
C2875 C2876 1.355 . S
C2875 C2877 1.415 . S
C2876 C2875 1.355 . S
C2876 C2878 1.419 . S
C2877 C2872 1.425 . S
C2877 C2874 1.409 . S
C2877 C2875 1.415 . S
C2878 H2868 0.930 . S
C2878 C2876 1.419 . S
C2878 C2879 1.362 . S
C2879 H2869 0.930 . S
C2879 C2872 1.409 . S
C2879 C2878 1.362 . S
H2880 C2886 0.930 . S
H2881 C2889 0.930 . S
H2882 C2890 0.930 . S
H2883 C2891 0.930 . S
H2884 C2894 0.930 . S
H2885 C2895 0.930 . S
C2886 H2880 0.930 . S
C2886 C2887 1.355 . S
C2886 C2888 1.415 1_455 S
C2887 C2886 1.355 . S
C2887 C2889 1.419 . S
C2888 C2886 1.415 1_655 S
C2888 C2893 1.425 1_655 S
C2888 C2895 1.409 . S
C2889 H2881 0.930 . S
C2889 C2887 1.419 . S
C2889 C2890 1.362 . S
C2890 H2882 0.930 . S
C2890 C2889 1.362 . S
C2890 C2893 1.409 . S
C2891 H2883 0.930 . S
C2891 C2892 1.355 . S
C2891 C2893 1.415 1_655 S
C2892 C2891 1.355 . S
C2892 C2894 1.419 . S
C2893 C2888 1.425 1_455 S
C2893 C2890 1.409 . S
C2893 C2891 1.415 1_455 S
C2894 H2884 0.930 . S
C2894 C2892 1.419 . S
C2894 C2895 1.362 . S
C2895 H2885 0.930 . S
C2895 C2888 1.409 . S
C2895 C2894 1.362 . S
H2896 C2902 0.930 . S
H2897 C2905 0.930 . S
H2898 C2906 0.930 . S
H2899 C2907 0.930 . S
H2900 C2910 0.930 . S
H2901 C2911 0.930 . S
C2902 H2896 0.930 . S
C2902 C2903 1.355 . S
C2902 C2904 1.415 . S
C2903 C2902 1.355 . S
C2903 C2905 1.419 . S
C2904 C2902 1.415 . S
C2904 C2909 1.425 . S
C2904 C2911 1.409 . S
C2905 H2897 0.930 . S
C2905 C2903 1.419 . S
C2905 C2906 1.362 . S
C2906 H2898 0.930 . S
C2906 C2905 1.362 . S
C2906 C2909 1.409 . S
C2907 H2899 0.930 . S
C2907 C2908 1.355 . S
C2907 C2909 1.415 . S
C2908 C2907 1.355 . S
C2908 C2910 1.419 . S
C2909 C2904 1.425 . S
C2909 C2906 1.409 . S
C2909 C2907 1.415 . S
C2910 H2900 0.930 . S
C2910 C2908 1.419 . S
C2910 C2911 1.362 . S
C2911 H2901 0.930 . S
C2911 C2904 1.409 . S
C2911 C2910 1.362 . S
H2912 C2918 0.930 . S
H2913 C2921 0.930 . S
H2914 C2922 0.930 . S
H2915 C2923 0.930 . S
H2916 C2926 0.930 . S
H2917 C2927 0.930 . S
C2918 H2912 0.930 . S
C2918 C2919 1.355 . S
C2918 C2920 1.415 . S
C2919 C2918 1.355 . S
C2919 C2921 1.419 . S
C2920 C2918 1.415 . S
C2920 C2925 1.427 1_545 S
C2920 C2927 1.409 1_545 S
C2921 H2913 0.930 . S
C2921 C2919 1.419 . S
C2921 C2922 1.362 . S
C2922 H2914 0.930 . S
C2922 C2921 1.362 . S
C2922 C2925 1.407 1_545 S
C2923 H2915 0.930 . S
C2923 C2924 1.355 . S
C2923 C2925 1.415 . S
C2924 C2923 1.355 . S
C2924 C2926 1.419 . S
C2925 C2920 1.427 1_565 S
C2925 C2922 1.407 1_565 S
C2925 C2923 1.415 . S
C2926 H2916 0.930 . S
C2926 C2924 1.419 . S
C2926 C2927 1.362 . S
C2927 H2917 0.930 . S
C2927 C2920 1.409 1_565 S
C2927 C2926 1.362 . S
H2928 C2934 0.932 . S
H2929 C2937 0.930 . S
H2930 C2938 0.930 . S
H2931 C2939 0.931 . S
H2932 C2942 0.930 . S
H2933 C2943 0.930 . S
C2934 H2928 0.932 . S
C2934 C2935 1.355 . S
C2934 C2936 1.415 1_565 S
C2935 C2934 1.355 . S
C2935 C2937 1.419 . S
C2936 C2934 1.415 1_545 S
C2936 C2941 1.425 1_545 S
C2936 C2943 1.409 . S
C2937 H2929 0.930 . S
C2937 C2935 1.419 . S
C2937 C2938 1.362 . S
C2938 H2930 0.930 . S
C2938 C2937 1.362 . S
C2938 C2941 1.409 . S
C2939 H2931 0.931 . S
C2939 C2940 1.355 . S
C2939 C2941 1.415 1_545 S
C2940 C2939 1.355 . S
C2940 C2942 1.419 . S
C2941 C2936 1.425 1_565 S
C2941 C2938 1.409 . S
C2941 C2939 1.415 1_565 S
C2942 H2932 0.930 . S
C2942 C2940 1.419 . S
C2942 C2943 1.362 . S
C2943 H2933 0.930 . S
C2943 C2936 1.409 . S
C2943 C2942 1.362 . S
H2944 C2950 0.930 . S
H2945 C2953 0.930 . S
H2946 C2954 0.930 . S
H2947 C2955 0.930 . S
H2948 C2958 0.930 . S
H2949 C2959 0.930 . S
C2950 H2944 0.930 . S
C2950 C2951 1.355 . S
C2950 C2952 1.415 . S
C2951 C2950 1.355 . S
C2951 C2953 1.419 . S
C2952 C2950 1.415 . S
C2952 C2957 1.425 1_655 S
C2952 C2959 1.409 . S
C2953 H2945 0.930 . S
C2953 C2951 1.419 . S
C2953 C2954 1.362 1_655 S
C2954 H2946 0.930 . S
C2954 C2953 1.362 1_455 S
C2954 C2957 1.409 . S
C2955 H2947 0.930 . S
C2955 C2956 1.355 . S
C2955 C2957 1.415 . S
C2956 C2955 1.355 . S
C2956 C2958 1.419 . S
C2957 C2952 1.425 1_455 S
C2957 C2954 1.409 . S
C2957 C2955 1.415 . S
C2958 H2948 0.930 . S
C2958 C2956 1.419 . S
C2958 C2959 1.362 1_455 S
C2959 H2949 0.930 . S
C2959 C2952 1.409 . S
C2959 C2958 1.362 1_655 S
H2960 C2966 0.930 . S
H2961 C2969 0.930 . S
H2962 C2970 0.930 . S
H2963 C2971 0.930 . S
H2964 C2974 0.930 . S
H2965 C2975 0.930 . S
C2966 H2960 0.930 . S
C2966 C2967 1.355 . S
C2966 C2968 1.415 . S
C2967 C2966 1.355 . S
C2967 C2969 1.419 . S
C2968 C2966 1.415 . S
C2968 C2973 1.425 . S
C2968 C2975 1.409 . S
C2969 H2961 0.930 . S
C2969 C2967 1.419 . S
C2969 C2970 1.362 . S
C2970 H2962 0.930 . S
C2970 C2969 1.362 . S
C2970 C2973 1.409 . S
C2971 H2963 0.930 . S
C2971 C2972 1.355 . S
C2971 C2973 1.415 . S
C2972 C2971 1.355 . S
C2972 C2974 1.419 . S
C2973 C2968 1.425 . S
C2973 C2970 1.409 . S
C2973 C2971 1.415 . S
C2974 H2964 0.930 . S
C2974 C2972 1.419 . S
C2974 C2975 1.362 . S
C2975 H2965 0.930 . S
C2975 C2968 1.409 . S
C2975 C2974 1.362 . S
H2976 C2982 0.930 . S
H2977 C2985 0.930 . S
H2978 C2986 0.930 . S
H2979 C2987 0.930 . S
H2980 C2990 0.930 . S
H2981 C2991 0.930 . S
C2982 H2976 0.930 . S
C2982 C2983 1.355 . S
C2982 C2984 1.415 . S
C2983 C2982 1.355 . S
C2983 C2985 1.419 . S
C2984 C2982 1.415 . S
C2984 C2989 1.425 . S
C2984 C2991 1.409 . S
C2985 H2977 0.930 . S
C2985 C2983 1.419 . S
C2985 C2986 1.362 . S
C2986 H2978 0.930 . S
C2986 C2985 1.362 . S
C2986 C2989 1.409 . S
C2987 H2979 0.930 . S
C2987 C2988 1.355 . S
C2987 C2989 1.415 . S
C2988 C2987 1.355 . S
C2988 C2990 1.419 . S
C2989 C2984 1.425 . S
C2989 C2986 1.409 . S
C2989 C2987 1.415 . S
C2990 H2980 0.930 . S
C2990 C2988 1.419 . S
C2990 C2991 1.362 . S
C2991 H2981 0.930 . S
C2991 C2984 1.409 . S
C2991 C2990 1.362 . S
H2992 C2998 0.930 . S
H2993 C3001 0.930 . S
H2994 C3002 0.930 . S
H2995 C3003 0.930 . S
H2996 C3006 0.930 . S
H2997 C3007 0.930 . S
C2998 H2992 0.930 . S
C2998 C2999 1.355 . S
C2998 C3000 1.415 . S
C2999 C2998 1.355 . S
C2999 C3001 1.419 . S
C3000 C2998 1.415 . S
C3000 C3005 1.425 . S
C3000 C3007 1.409 . S
C3001 H2993 0.930 . S
C3001 C2999 1.419 . S
C3001 C3002 1.362 . S
C3002 H2994 0.930 . S
C3002 C3001 1.362 . S
C3002 C3005 1.409 . S
C3003 H2995 0.930 . S
C3003 C3004 1.355 . S
C3003 C3005 1.415 . S
C3004 C3003 1.355 . S
C3004 C3006 1.419 . S
C3005 C3000 1.425 . S
C3005 C3002 1.409 . S
C3005 C3003 1.415 . S
C3006 H2996 0.930 . S
C3006 C3004 1.419 . S
C3006 C3007 1.362 . S
C3007 H2997 0.930 . S
C3007 C3000 1.409 . S
C3007 C3006 1.362 . S
H3008 C3014 0.930 . S
H3009 C3017 0.930 . S
H3010 C3018 0.930 . S
H3011 C3019 0.930 . S
H3012 C3022 0.930 . S
H3013 C3023 0.930 . S
C3014 H3008 0.930 . S
C3014 C3015 1.355 . S
C3014 C3016 1.415 . S
C3015 C3014 1.355 . S
C3015 C3017 1.419 . S
C3016 C3014 1.415 . S
C3016 C3021 1.425 . S
C3016 C3023 1.409 . S
C3017 H3009 0.930 . S
C3017 C3015 1.419 . S
C3017 C3018 1.362 . S
C3018 H3010 0.930 . S
C3018 C3017 1.362 . S
C3018 C3021 1.409 . S
C3019 H3011 0.930 . S
C3019 C3020 1.355 . S
C3019 C3021 1.415 . S
C3020 C3019 1.355 . S
C3020 C3022 1.419 . S
C3021 C3016 1.425 . S
C3021 C3018 1.409 . S
C3021 C3019 1.415 . S
C3022 H3012 0.930 . S
C3022 C3020 1.419 . S
C3022 C3023 1.362 . S
C3023 H3013 0.930 . S
C3023 C3016 1.409 . S
C3023 C3022 1.362 . S
H3024 C3030 0.930 1_554 S
H3025 C3033 0.930 . S
H3026 C3034 0.930 . S
H3027 C3035 0.930 . S
H3028 C3038 0.930 . S
H3029 C3039 0.930 . S
C3030 H3024 0.930 1_556 S
C3030 C3031 1.355 1_556 S
C3030 C3032 1.415 . S
C3031 C3030 1.355 1_554 S
C3031 C3033 1.419 1_554 S
C3032 C3030 1.415 . S
C3032 C3037 1.425 . S
C3032 C3039 1.409 . S
C3033 H3025 0.930 . S
C3033 C3031 1.419 1_556 S
C3033 C3034 1.362 . S
C3034 H3026 0.930 . S
C3034 C3033 1.362 . S
C3034 C3037 1.409 . S
C3035 H3027 0.930 . S
C3035 C3036 1.355 . S
C3035 C3037 1.415 . S
C3036 C3035 1.355 . S
C3036 C3038 1.419 . S
C3037 C3032 1.425 . S
C3037 C3034 1.409 . S
C3037 C3035 1.415 . S
C3038 H3028 0.930 . S
C3038 C3036 1.419 . S
C3038 C3039 1.362 . S
C3039 H3029 0.930 . S
C3039 C3032 1.409 . S
C3039 C3038 1.362 . S
H3040 C3046 0.930 . S
H3041 C3049 0.930 . S
H3042 C3050 0.930 . S
H3043 C3051 0.930 . S
H3044 C3054 0.930 . S
H3045 C3055 0.930 . S
C3046 H3040 0.930 . S
C3046 C3047 1.355 1_556 S
C3046 C3048 1.415 . S
C3047 C3046 1.355 1_554 S
C3047 C3049 1.419 . S
C3048 C3046 1.415 . S
C3048 C3053 1.425 . S
C3048 C3055 1.409 . S
C3049 H3041 0.930 . S
C3049 C3047 1.419 . S
C3049 C3050 1.362 1_554 S
C3050 H3042 0.930 . S
C3050 C3049 1.362 1_556 S
C3050 C3053 1.409 . S
C3051 H3043 0.930 . S
C3051 C3052 1.355 . S
C3051 C3053 1.415 . S
C3052 C3051 1.355 . S
C3052 C3054 1.419 . S
C3053 C3048 1.425 . S
C3053 C3050 1.409 . S
C3053 C3051 1.415 . S
C3054 H3044 0.930 . S
C3054 C3052 1.419 . S
C3054 C3055 1.362 . S
C3055 H3045 0.930 . S
C3055 C3048 1.409 . S
C3055 C3054 1.362 . S
H3056 C3062 0.930 . S
H3057 C3065 0.930 . S
H3058 C3066 0.922 1_554 S
H3059 C3067 0.930 . S
H3060 C3070 0.930 . S
H3061 C3071 0.930 . S
C3062 H3056 0.930 . S
C3062 C3063 1.355 1_556 S
C3062 C3064 1.415 . S
C3063 C3062 1.355 1_554 S
C3063 C3065 1.419 . S
C3064 C3062 1.415 . S
C3064 C3069 1.425 . S
C3064 C3071 1.409 . S
C3065 H3057 0.930 . S
C3065 C3063 1.419 . S
C3065 C3066 1.350 1_554 S
C3066 H3058 0.922 1_556 S
C3066 C3065 1.350 1_556 S
C3066 C3069 1.429 . S
C3067 H3059 0.930 . S
C3067 C3068 1.355 . S
C3067 C3069 1.415 . S
C3068 C3067 1.355 . S
C3068 C3070 1.419 . S
C3069 C3064 1.425 . S
C3069 C3066 1.429 . S
C3069 C3067 1.415 . S
C3070 H3060 0.930 . S
C3070 C3068 1.419 . S
C3070 C3071 1.362 . S
C3071 H3061 0.930 . S
C3071 C3064 1.409 . S
C3071 C3070 1.362 . S
H3072 C3078 0.930 . S
H3073 C3081 0.930 . S
H3074 C3082 0.930 . S
H3075 C3083 0.930 . S
H3076 C3086 0.930 . S
H3077 C3087 0.930 . S
C3078 H3072 0.930 . S
C3078 C3079 1.355 . S
C3078 C3080 1.415 . S
C3079 C3078 1.355 . S
C3079 C3081 1.419 . S
C3080 C3078 1.415 . S
C3080 C3085 1.425 . S
C3080 C3087 1.409 . S
C3081 H3073 0.930 . S
C3081 C3079 1.419 . S
C3081 C3082 1.362 . S
C3082 H3074 0.930 . S
C3082 C3081 1.362 . S
C3082 C3085 1.409 . S
C3083 H3075 0.930 . S
C3083 C3084 1.355 . S
C3083 C3085 1.415 . S
C3084 C3083 1.355 . S
C3084 C3086 1.419 . S
C3085 C3080 1.425 . S
C3085 C3082 1.409 . S
C3085 C3083 1.415 . S
C3086 H3076 0.930 . S
C3086 C3084 1.419 . S
C3086 C3087 1.362 . S
C3087 H3077 0.930 . S
C3087 C3080 1.409 . S
C3087 C3086 1.362 . S
H3088 C3094 0.930 . S
H3089 C3097 0.930 . S
H3090 C3098 0.930 . S
H3091 C3099 0.930 . S
H3092 C3102 0.930 . S
H3093 C3103 0.930 . S
C3094 H3088 0.930 . S
C3094 C3095 1.355 . S
C3094 C3096 1.415 . S
C3095 C3094 1.355 . S
C3095 C3097 1.419 . S
C3096 C3094 1.415 . S
C3096 C3101 1.425 . S
C3096 C3103 1.409 . S
C3097 H3089 0.930 . S
C3097 C3095 1.419 . S
C3097 C3098 1.362 . S
C3098 H3090 0.930 . S
C3098 C3097 1.362 . S
C3098 C3101 1.409 . S
C3099 H3091 0.930 . S
C3099 C3100 1.355 . S
C3099 C3101 1.415 . S
C3100 C3099 1.355 . S
C3100 C3102 1.419 . S
C3101 C3096 1.425 . S
C3101 C3098 1.409 . S
C3101 C3099 1.415 . S
C3102 H3092 0.930 . S
C3102 C3100 1.419 . S
C3102 C3103 1.362 . S
C3103 H3093 0.930 . S
C3103 C3096 1.409 . S
C3103 C3102 1.362 . S
H3104 C3110 0.930 . S
H3105 C3113 0.930 . S
H3106 C3114 0.930 . S
H3107 C3115 0.930 . S
H3108 C3118 0.930 . S
H3109 C3119 0.930 . S
C3110 H3104 0.930 . S
C3110 C3111 1.355 . S
C3110 C3112 1.415 . S
C3111 C3110 1.355 . S
C3111 C3113 1.419 . S
C3112 C3110 1.415 . S
C3112 C3117 1.425 . S
C3112 C3119 1.409 . S
C3113 H3105 0.930 . S
C3113 C3111 1.419 . S
C3113 C3114 1.362 . S
C3114 H3106 0.930 . S
C3114 C3113 1.362 . S
C3114 C3117 1.409 . S
C3115 H3107 0.930 . S
C3115 C3116 1.355 . S
C3115 C3117 1.415 . S
C3116 C3115 1.355 . S
C3116 C3118 1.419 . S
C3117 C3112 1.425 . S
C3117 C3114 1.409 . S
C3117 C3115 1.415 . S
C3118 H3108 0.930 . S
C3118 C3116 1.419 . S
C3118 C3119 1.362 . S
C3119 H3109 0.930 . S
C3119 C3112 1.409 . S
C3119 C3118 1.362 . S
H3120 C3126 0.930 . S
H3121 C3129 0.930 . S
H3122 C3130 0.930 . S
H3123 C3131 0.930 . S
H3124 C3134 0.930 . S
H3125 C3135 0.930 . S
C3126 H3120 0.930 . S
C3126 C3127 1.355 . S
C3126 C3128 1.415 . S
C3127 C3126 1.355 . S
C3127 C3129 1.419 . S
C3128 C3126 1.415 . S
C3128 C3133 1.425 . S
C3128 C3135 1.409 . S
C3129 H3121 0.930 . S
C3129 C3127 1.419 . S
C3129 C3130 1.362 . S
C3130 H3122 0.930 . S
C3130 C3129 1.362 . S
C3130 C3133 1.409 . S
C3131 H3123 0.930 . S
C3131 C3132 1.355 . S
C3131 C3133 1.415 . S
C3132 C3131 1.355 . S
C3132 C3134 1.419 . S
C3133 C3128 1.425 . S
C3133 C3130 1.409 . S
C3133 C3131 1.415 . S
C3134 H3124 0.930 . S
C3134 C3132 1.419 . S
C3134 C3135 1.362 . S
C3135 H3125 0.930 . S
C3135 C3128 1.409 . S
C3135 C3134 1.362 . S
H3136 C3142 0.930 . S
H3137 C3145 0.930 . S
H3138 C3146 0.930 . S
H3139 C3147 0.930 . S
H3140 C3150 0.930 . S
H3141 C3151 0.930 . S
C3142 H3136 0.930 . S
C3142 C3143 1.355 . S
C3142 C3144 1.415 . S
C3143 C3142 1.355 . S
C3143 C3145 1.419 . S
C3144 C3142 1.415 . S
C3144 C3149 1.425 . S
C3144 C3151 1.409 . S
C3145 H3137 0.930 . S
C3145 C3143 1.419 . S
C3145 C3146 1.362 . S
C3146 H3138 0.930 . S
C3146 C3145 1.362 . S
C3146 C3149 1.409 . S
C3147 H3139 0.930 . S
C3147 C3148 1.355 . S
C3147 C3149 1.415 . S
C3148 C3147 1.355 . S
C3148 C3150 1.419 . S
C3149 C3144 1.425 . S
C3149 C3146 1.409 . S
C3149 C3147 1.415 . S
C3150 H3140 0.930 . S
C3150 C3148 1.419 . S
C3150 C3151 1.362 . S
C3151 H3141 0.930 . S
C3151 C3144 1.409 . S
C3151 C3150 1.362 . S
H3152 C3158 0.930 . S
H3153 C3161 0.930 . S
H3154 C3162 0.930 . S
H3155 C3163 0.930 . S
H3156 C3166 0.930 . S
H3157 C3167 0.930 . S
C3158 H3152 0.930 . S
C3158 C3159 1.355 . S
C3158 C3160 1.415 . S
C3159 C3158 1.355 . S
C3159 C3161 1.419 . S
C3160 C3158 1.415 . S
C3160 C3165 1.425 . S
C3160 C3167 1.409 . S
C3161 H3153 0.930 . S
C3161 C3159 1.419 . S
C3161 C3162 1.362 . S
C3162 H3154 0.930 . S
C3162 C3161 1.362 . S
C3162 C3165 1.409 . S
C3163 H3155 0.930 . S
C3163 C3164 1.355 . S
C3163 C3165 1.415 . S
C3164 C3163 1.355 . S
C3164 C3166 1.419 . S
C3165 C3160 1.425 . S
C3165 C3162 1.409 . S
C3165 C3163 1.415 . S
C3166 H3156 0.930 . S
C3166 C3164 1.419 . S
C3166 C3167 1.362 . S
C3167 H3157 0.930 . S
C3167 C3160 1.409 . S
C3167 C3166 1.362 . S
C1447 C610 2.188 . S
C1452 C10 2.175 . S
C1463 C650 2.173 . S
C1468 C50 2.153 . S
C1479 C90 2.130 . S
C1484 C690 2.146 . S
C1495 C130 2.135 . S
C1500 C970 2.152 . S
C1511 C170 2.128 . S
C1516 C1010 2.141 . S
C1527 C210 2.191 . S
C1532 C1050 2.187 . S
C1543 C1339 2.173 . S
C1548 C259 2.188 . S
C1559 C1379 2.163 . S
C1564 C299 2.181 . S
C1575 C339 2.191 . S
C1580 C1419 2.182 . S
C1591 C739 2.164 . S
C1596 C379 2.144 . S
C1607 C419 2.147 . S
C1612 C779 2.131 . S
C1623 C459 2.127 . S
C1628 C819 2.140 . S
C1639 C1090 2.189 . S
C1644 C490 2.190 . S
C1655 C530 2.133 . S
C1660 C1130 2.150 . S
C1671 C1170 2.152 . S
C1676 C570 2.172 . S
C1687 C1219 2.131 . S
C1692 C859 2.126 . S
C1703 C1259 2.184 . S
C1708 C899 2.168 . S
C1719 C939 2.126 . S
C1724 C1299 2.136 . S
C1735 C16 0.347 . S
C1740 C176 0.281 . S
C1751 C56 0.403 . S
C1756 C216 0.276 . S
C1767 C96 0.409 . S
C1772 C136 0.278 . S
C1783 C247 0.305 . S
C1788 C407 0.439 . S
C1799 C287 0.301 . S
C1804 C447 0.436 . S
C1815 C327 0.285 . S
C1820 C367 0.420 . S
C1831 C496 0.360 . S
C1836 C656 0.276 . S
C1847 C696 0.301 . S
C1852 C536 0.317 . S
C1863 C576 0.284 . S
C1868 C616 0.342 . S
C1879 C727 0.320 . S
C1884 C887 0.298 . S
C1895 C767 0.291 . S
C1900 C927 0.330 . S
C1911 C847 0.352 . S
C1916 C807 0.279 . S
C1927 C976 0.442 . S
C1932 C1136 0.310 . S
C1943 C1176 0.459 . S
C1948 C1016 0.394 . S
C1959 C1056 0.427 . S
C1964 C1096 0.291 . S
C1975 C1207 0.348 . S
C1980 C1367 0.458 . S
C1991 C1247 0.332 . S
C1996 C1407 0.453 . S
C2007 C1287 0.450 . S
C2012 C1327 0.420 . S
C2023 C416 1.627 . S
C2028 C11 1.710 . S
C2039 C51 1.706 . S
C2044 C456 1.656 . S
C2055 C91 1.674 . S
C2060 C376 1.589 . S
C2071 C131 1.680 . S
C2076 C336 1.661 . S
C2087 C171 1.677 . S
C2092 C256 1.659 . S
C2103 C296 1.643 . S
C2108 C211 1.710 . S
C2119 C242 1.662 . S
C2124 C167 1.626 . S
C2135 C207 1.660 . S
C2140 C282 1.678 . S
C2151 C322 1.674 . S
C2156 C127 1.656 . S
C2167 C362 1.663 . S
C2172 C87 1.632 . S
C2183 C7 1.659 . S
C2188 C402 1.677 . S
C2199 C47 1.665 . S
C2204 C442 1.688 . S
C2215 C896 1.588 . S
C2220 C491 1.687 . S
C2231 C936 1.630 . S
C2236 C531 1.662 . S
C2247 C856 1.601 . S
C2252 C571 1.664 . S
C2263 C816 1.627 . S
C2268 C611 1.662 1_554 S
C2279 C651 1.675 1_554 S
C2284 C736 1.657 . S
C2295 C776 1.662 . S
C2300 C691 1.681 1_554 S
C2311 C647 1.645 . S
C2316 C722 1.710 . S
C2327 C762 1.704 . S
C2332 C687 1.659 . S
C2343 C802 1.709 . S
C2348 C607 1.621 . S
C2359 C567 1.630 . S
C2364 C842 1.710 . S
C2375 C882 1.699 . S
C2380 C487 1.599 . S
C2391 C922 1.706 . S
C2396 C527 1.656 . S
C2407 C971 1.707 . S
C2412 C1376 1.614 . S
C2423 C1011 1.696 . S
C2428 C1416 1.666 . S
C2439 C1336 1.644 . S
C2444 C1051 1.667 . S
C2455 C1296 1.595 . S
C2460 C1091 1.696 . S
C2471 C1131 1.696 . S
C2476 C1216 1.665 . S
C2487 C1256 1.595 . S
C2492 C1171 1.667 . S
C2503 C1202 1.710 . S
C2508 C1127 1.640 1_556 S
C2519 C1167 1.665 1_556 S
C2524 C1242 1.688 . S
C2535 C1282 1.673 . S
C2540 C1087 1.655 1_556 S
C2551 C1322 1.663 . S
C2556 C1047 1.631 . S
C2567 C967 1.618 . S
C2572 C1362 1.661 . S
C2583 C1007 1.643 . S
C2588 C1402 1.710 . S
C2599 C2 3.320 . S
C2604 C162 3.312 . S
C2615 C202 3.313 . S
C2620 C42 3.321 . S
C2631 C82 3.315 . S
C2636 C122 3.323 . S
C2647 C251 3.321 1_556 S
C2652 C411 3.325 . S
C2663 C451 3.310 . S
C2668 C291 3.312 1_556 S
C2679 C331 3.324 1_556 S
C2684 C371 3.322 . S
C2695 C642 3.313 . S
C2700 C482 3.321 . S
C2711 C682 3.310 . S
C2716 C522 3.318 . S
C2727 C602 3.315 . S
C2732 C562 3.323 . S
C2743 C891 3.311 . S
C2748 C731 3.310 . S
C2759 C771 3.322 . S
C2764 C931 3.313 . S
C2775 C851 3.325 . S
C2780 C811 3.319 . S
C2791 C1122 3.318 . S
C2796 C962 3.311 . S
C2807 C1002 3.310 . S
C2812 C1162 3.311 . S
C2823 C1042 3.314 . S
C2828 C1082 3.309 . S
C2839 C1371 3.309 . S
C2844 C1211 3.315 . S
C2855 C1251 3.322 . S
C2860 C1411 3.324 . S
C2871 C1291 3.324 . S
C2876 C1331 3.323 . S
C2887 C19 0.863 . S
C2892 C250 0.863 . S
C2903 C59 0.945 . S
C2908 C290 0.945 . S
C2919 C330 1.058 . S
C2924 C99 1.058 . S
C2935 C370 0.987 . S
C2940 C139 0.987 . S
C2951 C179 1.004 . S
C2956 C410 1.004 . S
C2967 C219 0.887 . S
C2972 C450 0.887 . S
C2983 C730 0.973 . S
C2988 C499 0.973 . S
C2999 C539 0.985 . S
C3004 C770 0.985 . S
C3015 C810 0.937 . S
C3020 C579 0.937 . S
C3031 C850 0.860 . S
C3036 C619 0.860 . S
C3047 C890 1.057 . S
C3052 C659 1.057 . S
C3063 C930 0.937 . S
C3068 C699 0.937 . S
C3079 C1210 1.058 . S
C3084 C979 1.058 . S
C3095 C1019 1.005 . S
C3100 C1250 1.005 . S
C3111 C1290 0.894 . S
C3116 C1059 0.894 . S
C3127 C1330 1.009 . S
C3132 C1099 1.009 . S
C3143 C1370 0.980 . S
C3148 C1139 0.980 . S
C3159 C1179 0.868 . S
C3164 C1410 0.868 . S
