# Generated by pormake.
# Topology tfs, (6)-cn, num edge types: 1
# Building blocks:
#     Node 0, Type 0, BuildingBlock: BETDIP_clean_sbu_0, # of connection points: 6
#     Node 1, Type 0, BuildingBlock: BETDIP_clean_sbu_0, # of connection points: 6
#     Node 2, Type 0, BuildingBlock: BETDIP_clean_sbu_0, # of connection points: 6
#     Node 3, Type 0, BuildingBlock: BETDIP_clean_sbu_0, # of connection points: 6
#     Node 4, Type 0, BuildingBlock: BETDIP_clean_sbu_0, # of connection points: 6
#     Node 5, Type 0, BuildingBlock: BETDIP_clean_sbu_0, # of connection points: 6
#     Edge 6, Type (0, 0), BuildingBlock: XIVTED_clean_linker_0, # of connection points: 2
#     Edge 7, Type (0, 0), BuildingBlock: XIVTED_clean_linker_0, # of connection points: 2
#     Edge 8, Type (0, 0), BuildingBlock: XIVTED_clean_linker_0, # of connection points: 2
#     Edge 9, Type (0, 0), BuildingBlock: XIVTED_clean_linker_0, # of connection points: 2
#     Edge 10, Type (0, 0), BuildingBlock: XIVTED_clean_linker_0, # of connection points: 2
#     Edge 11, Type (0, 0), BuildingBlock: XIVTED_clean_linker_0, # of connection points: 2
#     Edge 12, Type (0, 0), BuildingBlock: XIVTED_clean_linker_0, # of connection points: 2
#     Edge 13, Type (0, 0), BuildingBlock: XIVTED_clean_linker_0, # of connection points: 2
#     Edge 14, Type (0, 0), BuildingBlock: XIVTED_clean_linker_0, # of connection points: 2
#     Edge 15, Type (0, 0), BuildingBlock: XIVTED_clean_linker_0, # of connection points: 2
#     Edge 16, Type (0, 0), BuildingBlock: XIVTED_clean_linker_0, # of connection points: 2
#     Edge 17, Type (0, 0), BuildingBlock: XIVTED_clean_linker_0, # of connection points: 2
#     Edge 18, Type (0, 0), BuildingBlock: XIVTED_clean_linker_0, # of connection points: 2
#     Edge 19, Type (0, 0), BuildingBlock: XIVTED_clean_linker_0, # of connection points: 2
#     Edge 20, Type (0, 0), BuildingBlock: XIVTED_clean_linker_0, # of connection points: 2
#     Edge 21, Type (0, 0), BuildingBlock: XIVTED_clean_linker_0, # of connection points: 2
#     Edge 22, Type (0, 0), BuildingBlock: XIVTED_clean_linker_0, # of connection points: 2
#     Edge 23, Type (0, 0), BuildingBlock: XIVTED_clean_linker_0, # of connection points: 2
# Relax obj value: 0.580
# Max RMSD: 0.300
# Mean RMSD: 0.300
data_MOF--net-tfs--node1-BETDIP_clean_sbu_0--edge1-XIVTED_clean_linker_0
_symmetry_space_group_name_H-M    P1
_symmetry_Int_Tables_number       1
_symmetry_cell_setting            triclinic
loop_
_symmetry_equiv_pos_as_xyz
'x, y, z'
_cell_length_a     55.355855
_cell_length_b     55.235983
_cell_length_c     14.406034
_cell_angle_alpha  89.964767
_cell_angle_beta   90.067778
_cell_angle_gamma 119.93137
loop_
_atom_site_label
_atom_site_type_symbol
_atom_site_fract_x
_atom_site_fract_y
_atom_site_fract_z
_atom_type_partial_charge
Tb0 Tb 0.16507 0.44572 0.04307 0.0
Tb1 Tb 0.18208 0.40323 1.00001 0.0
C2 C 0.15728 0.48284 0.11485 0.0
C3 C 0.16696 0.51277 0.10362 0.0
C4 C 0.15054 0.52335 0.13909 0.0
C5 C 0.15839 0.55139 0.12631 0.0
C6 C 0.1829 0.56948 0.07768 0.0
C7 C 0.19955 0.55884 0.04299 0.0
C8 C 0.19157 0.53065 0.05554 0.0
C9 C 0.1656 0.43542 0.86394 0.0
C10 C 0.23001 0.46478 0.02421 0.0
C11 C 0.18904 0.36458 0.93704 0.0
C12 C 0.20994 0.35554 0.94201 0.0
C13 C 0.20177 0.32765 0.92245 0.0
C14 C 0.221 0.31829 0.92792 0.0
C15 C 0.2489 0.33669 0.95297 0.0
C16 C 0.25701 0.36475 0.97253 0.0
C17 C 0.23769 0.37408 0.96728 0.0
C18 C 0.183 0.41543 0.1776 0.0
C19 C 0.11845 0.38542 0.01704 0.0
O20 O 0.17531 0.47608 0.1466 0.0
O21 O 0.14243 0.4668 0.04632 0.0
O22 O 0.18252 0.43658 0.92433 0.0
O23 O 0.14922 0.44299 0.90152 0.0
O24 O 0.21071 0.47099 0.04972 0.0
O25 O 0.22356 0.43961 0.99411 0.0
O26 O 0.17575 0.36266 0.01414 0.0
O27 O 0.19619 0.38785 0.89238 0.0
O28 O 0.165 0.41271 0.11878 0.0
O29 O 0.20038 0.40927 0.13902 0.0
O30 O 0.13704 0.38219 0.96902 0.0
O31 O 0.12655 0.40745 0.0708 0.0
H32 H 0.13145 0.50982 0.1763 0.0
H33 H 0.14534 0.55896 0.15521 0.0
H34 H 0.21842 0.57215 1.00458 0.0
H35 H 0.20441 0.52276 0.02702 0.0
H36 H 0.18039 0.313 0.90347 0.0
H37 H 0.21383 0.29648 0.91397 0.0
H38 H 0.27835 0.3796 0.991 0.0
H39 H 0.24438 0.39571 0.98292 0.0
Tb40 Tb 0.72029 0.16509 0.04485 0.0
Tb41 Tb 0.77985 0.18221 1.00255 0.0
C42 C 0.6756 0.1575 0.1168 0.0
C43 C 0.65612 0.16813 0.10661 0.0
C44 C 0.62924 0.1525 0.14336 0.0
C45 C 0.6097 0.16117 0.13069 0.0
C46 C 0.61667 0.18571 0.08087 0.0
C47 C 0.64388 0.20163 0.04526 0.0
C48 C 0.66344 0.19284 0.05771 0.0
C49 C 0.73157 0.16654 0.86603 0.0
C50 C 0.76633 0.23021 0.02928 0.0
C51 C 0.8253 0.18913 0.9394 0.0
C52 C 0.85522 0.20983 0.9449 0.0
C53 C 0.8747 0.20144 0.92469 0.0
C54 C 0.90327 0.22044 0.93085 0.0
C55 C 0.91299 0.24833 0.95727 0.0
C56 C 0.89328 0.25667 0.97743 0.0
C57 C 0.86464 0.23757 0.97149 0.0
C58 C 0.76811 0.18215 0.1799 0.0
C59 C 0.73371 0.11833 0.01562 0.0
O60 O 0.70035 0.17479 0.15031 0.0
O61 O 0.67664 0.1431 0.04652 0.0
O62 O 0.74717 0.18311 0.92741 0.0
O63 O 0.70749 0.15004 0.90242 0.0
O64 O 0.74078 0.21076 0.05348 0.0
O65 O 0.78511 0.2239 0.99909 0.0
O66 O 0.81383 0.17557 0.01607 0.0
O67 O 0.8094 0.19666 0.89531 0.0
O68 O 0.75298 0.1645 0.11999 0.0
O69 O 0.79178 0.1997 0.14261 0.0
O70 O 0.75587 0.1372 0.96968 0.0
O71 O 0.71952 0.12611 0.06922 0.0
H72 H 0.62325 0.13337 0.18123 0.0
H73 H 0.58911 0.14867 0.1603 0.0
H74 H 0.64985 0.22051 1.00597 0.0
H75 H 0.6841 0.20508 0.02825 0.0
H76 H 0.86779 0.18004 0.90471 0.0
H77 H 0.91772 0.2131 0.91641 0.0
H78 H 0.89996 0.27803 0.99696 0.0
H79 H 0.84989 0.24442 0.98767 0.0
Tb80 Tb 0.55573 0.72016 0.01982 0.0
Tb81 Tb 0.59803 0.77951 0.97655 0.0
C82 C 0.51805 0.67582 0.09173 0.0
C83 C 0.48781 0.6567 0.07992 0.0
C84 C 0.47043 0.64843 0.15812 0.0
C85 C 0.44202 0.62894 0.14976 0.0
C86 C 0.4305 0.61715 0.06299 0.0
C87 C 0.44786 0.62585 0.98439 0.0
C88 C 0.47621 0.64553 0.99265 0.0
C89 C 0.56572 0.73083 0.84069 0.0
C90 C 0.53671 0.76629 1.00164 0.0
C91 C 0.6363 0.82511 0.91319 0.0
C92 C 0.64536 0.85499 0.92249 0.0
C93 C 0.66095 0.87349 0.85124 0.0
C94 C 0.6707 0.90212 0.86015 0.0
C95 C 0.6651 0.91284 0.94083 0.0
C96 C 0.64914 0.89408 1.01175 0.0
C97 C 0.6393 0.86543 1.00253 0.0
C98 C 0.58623 0.76833 0.15436 0.0
C99 C 0.61575 0.73346 0.99194 0.0
O100 O 0.52573 0.70071 0.12495 0.0
O101 O 0.5342 0.67652 0.02429 0.0
O102 O 0.56467 0.74671 0.90096 0.0
O103 O 0.55821 0.70687 0.87844 0.0
O104 O 0.53039 0.74056 0.02509 0.0
O105 O 0.56193 0.78512 0.97318 0.0
O106 O 0.6389 0.81288 0.98734 0.0
O107 O 0.61262 0.80961 0.87023 0.0
O108 O 0.58877 0.75297 0.09542 0.0
O109 O 0.59249 0.79194 0.11584 0.0
O110 O 0.61881 0.75532 0.94425 0.0
O111 O 0.59386 0.71945 0.04597 0.0
H112 H 0.47893 0.6567 0.2261 0.0
H113 H 0.42925 0.62249 0.2117 0.0
H114 H 0.43951 0.61742 0.91645 0.0
H115 H 0.48908 0.65166 0.93091 0.0
H116 H 0.66574 0.86579 0.78878 0.0
H117 H 0.68246 0.91581 0.80344 0.0
H118 H 0.64468 0.90155 0.0753 0.0
H119 H 0.62726 0.85148 0.0584 0.0
Tb120 Tb 0.83758 0.55688 0.0305 0.0
Tb121 Tb 0.8208 0.59968 0.98851 0.0
C122 C 0.84422 0.51898 0.10127 0.0
C123 C 0.83343 0.4888 0.08816 0.0
C124 C 0.82514 0.47119 0.16592 0.0
C125 C 0.81663 0.44286 0.15618 0.0
C126 C 0.81649 0.43166 0.06841 0.0
C127 C 0.8243 0.44923 0.99029 0.0
C128 C 0.83257 0.47751 0.99995 0.0
C129 C 0.83655 0.56716 0.85185 0.0
C130 C 0.77261 0.53822 0.01319 0.0
C131 C 0.81393 0.63837 0.92551 0.0
C132 C 0.79279 0.64706 0.93055 0.0
C133 C 0.80064 0.67491 0.91169 0.0
C134 C 0.78117 0.68393 0.91783 0.0
C135 C 0.75336 0.66521 0.94286 0.0
C136 C 0.74557 0.63719 0.96156 0.0
C137 C 0.76514 0.62821 0.95568 0.0
C138 C 0.82038 0.58749 0.16569 0.0
C139 C 0.88446 0.61709 1.00464 0.0
O140 O 0.82677 0.52633 0.13421 0.0
O141 O 0.85983 0.53551 0.03471 0.0
O142 O 0.81991 0.56616 0.91287 0.0
O143 O 0.85293 0.55938 0.88846 0.0
O144 O 0.79193 0.5318 0.03663 0.0
O145 O 0.77906 0.56355 0.98476 0.0
O146 O 0.82712 0.64022 1.0029 0.0
O147 O 0.80698 0.61522 0.88039 0.0
O148 O 0.83809 0.59004 0.1062 0.0
O149 O 0.80304 0.59391 0.12817 0.0
O150 O 0.86586 0.62059 0.95751 0.0
O151 O 0.87638 0.59491 0.05767 0.0
H152 H 0.82573 0.47948 0.23457 0.0
H153 H 0.81094 0.4299 0.21775 0.0
H154 H 0.82402 0.4411 0.92165 0.0
H155 H 0.83866 0.49057 0.93857 0.0
H156 H 0.82196 0.68979 0.89287 0.0
H157 H 0.78808 0.70572 0.90452 0.0
H158 H 0.7243 0.62211 0.97997 0.0
H159 H 0.75871 0.60661 0.97084 0.0
Tb160 Tb 0.28263 0.83693 0.04081 0.0
Tb161 Tb 0.22312 0.8202 0.9989 0.0
C162 C 0.32731 0.84432 0.11256 0.0
C163 C 0.34687 0.83388 0.10125 0.0
C164 C 0.37347 0.84901 0.14065 0.0
C165 C 0.39318 0.84064 0.12657 0.0
C166 C 0.38664 0.81691 0.07269 0.0
C167 C 0.3597 0.80147 0.03446 0.0
C168 C 0.33998 0.80997 0.0483 0.0
C169 C 0.27126 0.83587 0.86222 0.0
C170 C 0.23636 0.77185 0.02406 0.0
C171 C 0.17776 0.81356 0.93549 0.0
C172 C 0.14783 0.79285 0.93998 0.0
C173 C 0.1284 0.80138 0.92056 0.0
C174 C 0.09981 0.78236 0.92569 0.0
C175 C 0.09003 0.75431 0.95026 0.0
C176 C 0.10969 0.74584 0.96963 0.0
C177 C 0.13834 0.76496 0.96473 0.0
C178 C 0.23493 0.81989 0.17602 0.0
C179 C 0.26948 0.88404 0.01369 0.0
O180 O 0.30254 0.82677 0.14535 0.0
O181 O 0.32625 0.85903 0.04319 0.0
O182 O 0.25565 0.81924 0.92336 0.0
O183 O 0.2954 0.85222 0.89867 0.0
O184 O 0.26209 0.79118 0.04728 0.0
O185 O 0.21753 0.77836 0.9957 0.0
O186 O 0.18912 0.82679 0.01278 0.0
O187 O 0.19372 0.8062 0.89104 0.0
O188 O 0.25009 0.83758 0.11634 0.0
O189 O 0.21116 0.80254 0.1387 0.0
O190 O 0.2472 0.86535 0.9676 0.0
O191 O 0.28363 0.87597 0.06651 0.0
H192 H 0.37913 0.86755 0.18159 0.0
H193 H 0.41356 0.85273 0.15819 0.0
H194 H 0.35409 0.78322 0.99206 0.0
H195 H 0.31956 0.79816 0.0167 0.0
H196 H 0.13535 0.82288 0.90199 0.0
H197 H 0.08539 0.7898 0.91191 0.0
H198 H 0.10297 0.72437 0.98774 0.0
H199 H 0.15306 0.75799 0.98027 0.0
Tb200 Tb 0.44785 0.2834 0.03465 0.0
Tb201 Tb 0.40557 0.22387 0.99165 0.0
C202 C 0.48469 0.32835 0.1066 0.0
C203 C 0.51451 0.34861 0.09524 0.0
C204 C 0.52512 0.37544 0.13249 0.0
C205 C 0.55305 0.39566 0.11935 0.0
C206 C 0.57096 0.38943 0.06859 0.0
C207 C 0.56028 0.36231 0.03214 0.0
C208 C 0.53222 0.34207 0.04503 0.0
C209 C 0.43753 0.27253 0.8556 0.0
C210 C 0.46715 0.23754 0.01655 0.0
C211 C 0.36746 0.17811 0.92833 0.0
C212 C 0.35856 0.14818 0.93603 0.0
C213 C 0.34335 0.13006 0.86341 0.0
C214 C 0.33359 0.10138 0.87073 0.0
C215 C 0.33878 0.09019 0.95118 0.0
C216 C 0.35439 0.10859 0.02347 0.0
C217 C 0.36425 0.1373 0.01586 0.0
C218 C 0.41767 0.23518 0.1693 0.0
C219 C 0.38754 0.26966 1.00819 0.0
O220 O 0.47809 0.30358 0.13837 0.0
O221 O 0.46863 0.32711 0.038 0.0
O222 O 0.43876 0.25676 0.91594 0.0
O223 O 0.44504 0.2965 0.89319 0.0
O224 O 0.47341 0.26322 0.0405 0.0
O225 O 0.44193 0.21869 0.98781 0.0
O226 O 0.36496 0.19006 1.00329 0.0
O227 O 0.39095 0.1939 0.88486 0.0
O228 O 0.41498 0.25048 0.11039 0.0
O229 O 0.4114 0.21156 0.13086 0.0
O230 O 0.38442 0.24783 0.96017 0.0
O231 O 0.40952 0.28361 0.06199 0.0
H232 H 0.51171 0.38083 0.1713 0.0
H233 H 0.56066 0.41615 0.14959 0.0
H234 H 0.57347 0.35692 0.99209 0.0
H235 H 0.52428 0.32149 0.01507 0.0
H236 H 0.33884 0.13808 0.80109 0.0
H237 H 0.32212 0.08801 0.81297 0.0
H238 H 0.35855 0.10077 0.08689 0.0
H239 H 0.37598 0.15093 0.07283 0.0
H240 H 0.38516 0.31009 0.11041 0.0
H241 H 0.25353 0.29899 0.84004 0.0
H242 H 0.34221 0.25043 0.89151 0.0
H243 H 0.29082 0.35099 0.08102 0.0
H244 H 0.28639 0.28182 0.85445 0.0
H245 H 0.35151 0.32615 0.09709 0.0
C246 C 0.36862 0.3003 0.05952 0.0
C247 C 0.36657 0.27884 1.00192 0.0
C248 C 0.28737 0.29698 0.90419 0.0
C249 C 0.32786 0.29734 0.98606 0.0
C250 C 0.2685 0.30673 0.89632 0.0
C251 C 0.26927 0.3265 0.95952 0.0
C252 C 0.30731 0.30709 0.97559 0.0
C253 C 0.28959 0.33608 0.02984 0.0
C254 C 0.34936 0.3095 0.05204 0.0
C255 C 0.3446 0.26697 0.93748 0.0
N256 N 0.30774 0.3263 0.03592 0.0
N257 N 0.32616 0.27644 0.93109 0.0
H258 H 0.07585 0.38305 0.11983 0.0
H259 H 0.95517 0.25303 0.84408 0.0
H260 H 0.09224 0.34038 0.89915 0.0
H261 H 0.94067 0.28957 0.08747 0.0
H262 H 0.00516 0.28544 0.85986 0.0
H263 H 0.02618 0.34972 0.10557 0.0
C264 C 0.06904 0.36662 0.06838 0.0
C265 C 0.08833 0.36456 1.01051 0.0
C266 C 0.99104 0.28635 0.90983 0.0
C267 C 0.03119 0.32624 0.99355 0.0
C268 C 0.96244 0.26775 0.90117 0.0
C269 C 0.94351 0.26844 0.96464 0.0
C270 C 1.00092 0.30596 0.98231 0.0
C271 C 0.9543 0.28842 0.03606 0.0
C272 C 0.0406 0.34755 0.06035 0.0
C273 C 0.07816 0.34276 0.94534 0.0
N274 N 0.98221 0.30633 0.04288 0.0
N275 N 0.05028 0.32451 0.9384 0.0
H276 H 0.68739 0.07443 0.09194 0.0
H277 H 0.7158 0.95651 0.88498 0.0
H278 H 0.75824 0.09329 0.91862 0.0
H279 H 0.63927 0.93919 0.02049 0.0
H280 H 0.733 0.00652 0.9027 0.0
H281 H 0.67114 0.0248 0.07422 0.0
C282 C 0.69962 0.06817 0.05026 0.0
C283 C 0.72425 0.08815 1.00661 0.0
C284 C 0.71245 0.99175 0.92848 0.0
C285 C 0.70561 0.03104 0.98593 0.0
C286 C 0.7025 0.96315 0.91792 0.0
C287 C 0.67596 0.94344 0.95117 0.0
C288 C 0.69583 1.00083 0.97301 0.0
C289 C 0.65999 0.95346 0.99491 0.0
C290 C 0.69025 0.03974 0.04 0.0
C291 C 0.73913 0.07865 0.95345 0.0
N292 N 0.67017 0.98137 1.00456 0.0
N293 N 0.72958 0.05077 0.94463 0.0
H294 H 0.71169 0.65021 0.07188 0.0
H295 H 0.66104 0.75344 0.87569 0.0
H296 H 0.748 0.70279 0.83151 0.0
H297 H 0.61825 0.69258 0.09152 0.0
H298 H 0.69465 0.73703 0.86335 0.0
H299 H 0.6785 0.66695 0.08392 0.0
C300 C 0.71259 0.66511 0.02113 0.0
C301 C 0.73275 0.67502 0.95044 0.0
C302 C 0.6779 0.72729 0.91341 0.0
C303 C 0.69493 0.69469 0.96486 0.0
C304 C 0.65874 0.7367 0.92067 0.0
C305 C 0.63675 0.72437 0.98468 0.0
C306 C 0.67514 0.70546 0.97087 0.0
C307 C 0.63481 0.7027 0.041 0.0
C308 C 0.69371 0.67481 0.02845 0.0
C309 C 0.73314 0.69479 0.88794 0.0
N310 N 0.65373 0.69398 0.03282 0.0
N311 N 0.71456 0.70397 0.89666 0.0
H312 H 0.048 0.7503 0.83734 0.0
H313 H 0.92702 0.61887 0.10631 0.0
H314 H 0.06216 0.71234 0.07788 0.0
H315 H 0.91077 0.66266 0.88875 0.0
H316 H 0.97669 0.6522 0.09315 0.0
H317 H 0.99797 0.71782 0.85155 0.0
C318 C 0.04065 0.73525 0.89347 0.0
C319 C 0.05949 0.73418 0.95661 0.0
C320 C 0.96231 0.65461 0.04835 0.0
C321 C 0.00205 0.69659 0.97244 0.0
C322 C 0.93386 0.63553 0.05574 0.0
C323 C 0.9146 0.63791 0.99845 0.0
C324 C 0.97177 0.67626 0.98279 0.0
C325 C 0.92483 0.66003 0.93446 0.0
C326 C 0.01203 0.71661 0.90123 0.0
C327 C 0.0486 0.71379 0.02675 0.0
N328 N 0.95272 0.67829 0.92813 0.0
N329 N 0.02068 0.69587 0.03271 0.0
H330 H 0.31579 0.9275 0.09206 0.0
H331 H 0.28837 0.04686 0.89108 0.0
H332 H 0.24525 0.90975 0.91818 0.0
H333 H 0.36405 0.06325 0.03123 0.0
H334 H 0.27104 0.99674 0.90565 0.0
H335 H 0.33219 0.97724 0.07733 0.0
C336 C 0.30365 0.93402 0.05085 0.0
C337 C 0.27906 0.9143 1.00621 0.0
C338 C 0.29144 0.01132 0.93314 0.0
C339 C 0.2979 0.9716 0.98897 0.0
C340 C 0.30147 0.04 0.9244 0.0
C341 C 0.32782 0.0595 0.95982 0.0
C342 C 0.30777 0.00192 0.97801 0.0
C343 C 0.34349 0.04916 1.00395 0.0
C344 C 0.31312 0.96252 0.04233 0.0
C345 C 0.26433 0.92416 0.95375 0.0
N346 N 0.33324 0.02118 1.01176 0.0
N347 N 0.27397 0.95212 0.94662 0.0
H348 H 0.27039 0.75051 0.0659 0.0
H349 H 0.14901 0.59069 0.03167 0.0
H350 H 0.18542 0.72516 0.99137 0.0
H351 H 0.23487 0.61616 0.0912 0.0
H352 H 0.16198 0.63974 0.01549 0.0
H353 H 0.2578 0.7015 0.07423 0.0
C354 C 0.24906 0.73467 0.05116 0.0
C355 C 0.22892 0.74207 0.028 0.0
C356 C 0.17802 0.63463 0.03185 0.0
C357 C 0.21436 0.68568 0.03762 0.0
C358 C 0.1706 0.60661 0.04159 0.0
C359 C 0.19085 0.59925 0.06346 0.0
C360 C 0.2059 0.65559 0.04433 0.0
C361 C 0.21859 0.6208 0.07369 0.0
C362 C 0.24191 0.70663 0.05585 0.0
C363 C 0.20166 0.72051 1.00948 0.0
N364 N 0.22526 0.64797 0.06451 0.0
N365 N 0.19518 0.69332 0.01494 0.0
H366 H 0.46259 0.18654 0.98225 0.0
H367 H 0.62325 0.23838 0.09152 0.0
H368 H 0.5224 0.27121 0.06063 0.0
H369 H 0.56159 0.15259 0.0352 0.0
H370 H 0.58736 0.2515 0.07099 0.0
H371 H 0.49927 0.17436 0.99284 0.0
C372 C 0.48343 0.20262 1.00144 0.0
C373 C 0.48933 0.22995 0.02076 0.0
C374 C 0.58169 0.22981 0.06303 0.0
C375 C 0.53154 0.21608 0.03307 0.0
C376 C 0.60222 0.22233 0.07421 0.0
C377 C 0.59541 0.19431 0.06566 0.0
C378 C 0.55415 0.20914 0.04267 0.0
C379 C 0.56772 0.17437 0.044 0.0
C380 C 0.50439 0.19562 1.00759 0.0
C381 C 0.51679 0.24985 0.04533 0.0
N382 N 0.54815 0.18216 0.03337 0.0
N383 N 0.53684 0.24251 0.05084 0.0
H384 H 0.38521 0.6163 0.14339 0.0
H385 H 0.27589 0.46293 0.96111 0.0
H386 H 0.40792 0.56812 0.96513 0.0
H387 H 0.25183 0.5176 0.09526 0.0
H388 H 0.32462 0.50021 0.9683 0.0
H389 H 0.3364 0.57932 0.13306 0.0
C390 C 0.37992 0.59791 0.10218 0.0
C391 C 0.40067 0.59529 0.05504 0.0
C392 C 0.30865 0.50404 0.99595 0.0
C393 C 0.34484 0.55286 0.04285 0.0
C394 C 0.28081 0.48273 0.99207 0.0
C395 C 0.25966 0.48709 0.0276 0.0
C396 C 0.31546 0.52984 0.03628 0.0
C397 C 0.26736 0.51325 0.06683 0.0
C398 C 0.35204 0.57687 0.09593 0.0
C399 C 0.39257 0.57114 1.0018 0.0
N400 N 0.2946 0.53356 0.07034 0.0
N401 N 0.36533 0.55081 0.99751 0.0
H402 H 0.84282 0.40992 0.96573 0.0
H403 H 0.73517 0.25141 0.10257 0.0
H404 H 0.77302 0.38573 0.14983 0.0
H405 H 0.81377 0.27668 0.96686 0.0
H406 H 0.74702 0.30019 0.10989 0.0
H407 H 0.83064 0.36089 0.95407 0.0
C408 C 0.8248 0.39426 1.00316 0.0
C409 C 0.8089 0.40192 0.05887 0.0
C410 C 0.76171 0.2951 0.0786 0.0
C411 C 0.79495 0.34582 0.04626 0.0
C412 C 0.75495 0.26719 0.07418 0.0
C413 C 0.77352 0.25986 0.03406 0.0
C414 C 0.78717 0.31594 0.04212 0.0
C415 C 0.79883 0.28132 0.9986 0.0
C416 C 0.81799 0.36632 0.99699 0.0
C417 C 0.78601 0.38079 0.10682 0.0
N418 N 0.80488 0.30839 1.00326 0.0
N419 N 0.77969 0.35373 0.09923 0.0
H420 H 0.38018 0.76426 0.07536 0.0
H421 H 0.54135 0.81754 0.97123 0.0
H422 H 0.44195 0.85079 0.03185 0.0
H423 H 0.4814 0.7323 0.04285 0.0
H424 H 0.50455 0.82957 0.98311 0.0
H425 H 0.41628 0.75156 0.05265 0.0
C426 C 0.40128 0.78056 0.0604 0.0
C427 C 0.40806 0.80865 0.05609 0.0
C428 C 0.49944 0.80822 0.99607 0.0
C429 C 0.44956 0.79431 0.03059 0.0
C430 C 0.52046 0.80131 0.98915 0.0
C431 C 0.51454 0.77386 1.00626 0.0
C432 C 0.47224 0.78754 0.02001 0.0
C433 C 0.48702 0.75376 0.02931 0.0
C434 C 0.42193 0.77333 0.04797 0.0
C435 C 0.43585 0.82892 0.03732 0.0
N436 N 0.46694 0.76101 0.03554 0.0
N437 N 0.45554 0.82136 0.02537 0.0
H438 H 0.75146 0.4828 0.05377 0.0
H439 H 0.59186 0.44473 0.02567 0.0
H440 H 0.72592 0.54263 0.98174 0.0
H441 H 0.61762 0.38401 0.07825 0.0
H442 H 0.64073 0.48081 1.00881 0.0
H443 H 0.70261 0.44644 0.06239 0.0
C444 C 0.73561 0.48835 0.03963 0.0
C445 C 0.74291 0.51593 0.0171 0.0
C446 C 0.63572 0.45959 0.02377 0.0
C447 C 0.68669 0.47416 0.02708 0.0
C448 C 0.60781 0.43898 0.03391 0.0
C449 C 0.60059 0.41128 0.05402 0.0
C450 C 0.65671 0.45256 0.03414 0.0
C451 C 0.62216 0.40501 0.06214 0.0
C452 C 0.70766 0.46749 0.04447 0.0
C453 C 0.72134 0.5217 0.99934 0.0
N454 N 0.64921 0.4255 0.05266 0.0
N455 N 0.69423 0.50103 1.00499 0.0
H456 H 0.13075 0.43389 0.72752 0.0
H457 H 0.21823 0.41719 0.31351 0.0
H458 H 0.20588 0.43011 0.77076 0.0
H459 H 0.14401 0.42271 0.27075 0.0
H460 H 0.21427 0.42209 0.48092 0.0
H461 H 0.13522 0.4297 0.56013 0.0
C462 C 0.14816 0.4321 0.70166 0.0
C463 C 0.16792 0.43224 0.76298 0.0
C464 C 0.19886 0.42228 0.43503 0.0
C465 C 0.17325 0.4275 0.57137 0.0
C466 C 0.20113 0.41951 0.33946 0.0
C467 C 0.18136 0.41946 0.27837 0.0
C468 C 0.17662 0.425 0.46985 0.0
C469 C 0.15967 0.42258 0.31555 0.0
C470 C 0.15072 0.42973 0.60608 0.0
C471 C 0.19007 0.42986 0.72587 0.0
N472 N 0.15784 0.42516 0.40885 0.0
N473 N 0.19215 0.42761 0.63248 0.0
H474 H 0.77754 0.2072 0.77605 0.0
H475 H 0.72122 0.14311 0.26956 0.0
H476 H 0.69888 0.13228 0.72739 0.0
H477 H 0.80101 0.21668 0.31813 0.0
H478 H 0.7122 0.13938 0.43682 0.0
H479 H 0.7864 0.21143 0.6086 0.0
C480 C 0.76223 0.19155 0.73008 0.0
C481 C 0.73753 0.16927 0.76546 0.0
C482 C 0.73168 0.15637 0.41101 0.0
C483 C 0.7473 0.1741 0.57381 0.0
C484 C 0.7368 0.15852 0.31554 0.0
C485 C 0.76192 0.18018 0.28021 0.0
C486 C 0.75184 0.17604 0.47164 0.0
C487 C 0.78139 0.19961 0.34269 0.0
C488 C 0.76722 0.19402 0.63447 0.0
C489 C 0.71821 0.14977 0.70284 0.0
N490 N 0.77597 0.19706 0.43536 0.0
N491 N 0.72349 0.15263 0.61011 0.0
H492 H 0.56708 0.69731 0.70463 0.0
H493 H 0.58471 0.80198 0.29003 0.0
H494 H 0.57134 0.7766 0.7471 0.0
H495 H 0.57871 0.72188 0.24769 0.0
H496 H 0.57968 0.79308 0.45739 0.0
H497 H 0.57143 0.70599 0.53722 0.0
C498 C 0.569 0.7166 0.6786 0.0
C499 C 0.56895 0.73632 0.73971 0.0
C500 C 0.57942 0.77741 0.41162 0.0
C501 C 0.57389 0.74642 0.54809 0.0
C502 C 0.58227 0.78247 0.31608 0.0
C503 C 0.58221 0.76266 0.25511 0.0
C504 C 0.57651 0.75232 0.44657 0.0
C505 C 0.57892 0.73773 0.2924 0.0
C506 C 0.57147 0.72154 0.58301 0.0
C507 C 0.57151 0.76095 0.70239 0.0
N508 N 0.57626 0.73329 0.38571 0.0
N509 N 0.57386 0.76531 0.609 0.0
H510 H 0.79596 0.57262 0.76182 0.0
H511 H 0.85909 0.57905 0.2553 0.0
H512 H 0.87059 0.56835 0.71323 0.0
H513 H 0.78615 0.58638 0.30391 0.0
H514 H 0.86296 0.57389 0.42256 0.0
H515 H 0.79153 0.57702 0.59435 0.0
C516 C 0.81151 0.57281 0.71585 0.0
C517 C 0.83377 0.5703 0.75126 0.0
C518 C 0.84607 0.57659 0.39678 0.0
C519 C 0.8287 0.57498 0.55958 0.0
C520 C 0.84385 0.57949 0.3013 0.0
C521 C 0.82232 0.58324 0.26599 0.0
C522 C 0.82662 0.57743 0.45742 0.0
C523 C 0.8031 0.5836 0.32847 0.0
C524 C 0.80892 0.57518 0.62023 0.0
C525 C 0.85313 0.57026 0.68865 0.0
N526 N 0.80572 0.5808 0.42117 0.0
N527 N 0.85015 0.57256 0.59588 0.0
H528 H 0.28196 0.8587 0.26569 0.0
H529 H 0.22525 0.79528 0.77219 0.0
H530 H 0.20185 0.78557 0.3142 0.0
H531 H 0.30406 0.87001 0.72367 0.0
H532 H 0.21645 0.79092 0.60469 0.0
H533 H 0.29093 0.86254 0.43301 0.0
C534 C 0.2663 0.84341 0.31168 0.0
C535 C 0.2411 0.82185 0.27633 0.0
C536 C 0.23565 0.80832 0.63059 0.0
C537 C 0.25113 0.8261 0.46779 0.0
C538 C 0.2406 0.81087 0.72623 0.0
C539 C 0.26533 0.83313 0.76165 0.0
C540 C 0.25563 0.82814 0.56996 0.0
C541 C 0.28471 0.85254 0.69906 0.0
C542 C 0.27139 0.84562 0.40718 0.0
C543 C 0.22153 0.80256 0.33879 0.0
N544 N 0.27946 0.8496 0.6063 0.0
N545 N 0.22693 0.80517 0.4315 0.0
H546 H 0.43591 0.30589 0.71935 0.0
H547 H 0.41931 0.2016 0.30515 0.0
H548 H 0.43229 0.22689 0.7623 0.0
H549 H 0.42496 0.28154 0.26244 0.0
H550 H 0.42416 0.21044 0.47255 0.0
H551 H 0.43174 0.29725 0.55193 0.0
C552 C 0.43416 0.28667 0.69341 0.0
C553 C 0.43434 0.26702 0.75466 0.0
C554 C 0.42439 0.22609 0.42668 0.0
C555 C 0.42961 0.25696 0.56304 0.0
C556 C 0.42165 0.22106 0.33112 0.0
C557 C 0.42165 0.24084 0.27005 0.0
C558 C 0.42714 0.25111 0.46153 0.0
C559 C 0.4248 0.26571 0.30724 0.0
C560 C 0.4318 0.28175 0.59783 0.0
C561 C 0.43201 0.24248 0.71748 0.0
N562 N 0.42735 0.27011 0.40056 0.0
N563 N 0.42976 0.23815 0.62408 0.0
loop_
_geom_bond_atom_site_label_1
_geom_bond_atom_site_label_2
_geom_bond_distance
_geom_bond_site_symmetry_2
_ccdc_geom_bond_type
Tb0 C2 2.809 1_556 S
Tb0 O20 2.484 1_556 S
Tb0 O21 2.440 . S
Tb0 O22 2.658 . S
Tb0 O23 2.409 . S
Tb0 O24 2.378 . S
Tb0 O28 2.325 1_556 S
Tb0 O31 2.341 . S
Tb1 C11 2.809 1_554 S
Tb1 O22 2.325 1_554 S
Tb1 O25 2.341 . S
Tb1 O26 2.484 1_554 S
Tb1 O27 2.440 . S
Tb1 O28 2.658 . S
Tb1 O29 2.409 . S
Tb1 O30 2.378 . S
C2 Tb0 2.809 1_554 S
C2 C3 1.514 . S
C2 O20 1.248 . S
C2 O21 1.266 1_554 S
C3 C2 1.514 . S
C3 C4 1.359 . S
C3 C8 1.348 1_554 S
C4 C3 1.359 . S
C4 C5 1.380 . S
C4 H32 0.929 . S
C5 C4 1.380 . S
C5 C6 1.347 . S
C5 H33 0.931 . S
C6 C5 1.347 . S
C6 C7 1.369 1_554 S
C7 C6 1.369 1_556 S
C7 C8 1.408 . S
C7 H34 0.930 . S
C8 C3 1.348 1_556 S
C8 C7 1.408 . S
C8 H35 0.930 . S
C9 O22 1.281 . S
C9 O23 1.254 . S
C10 O24 1.236 . S
C10 O25 1.266 1_556 S
C11 Tb1 2.809 1_556 S
C11 C12 1.514 . S
C11 O26 1.248 . S
C11 O27 1.266 1_556 S
C12 C11 1.514 . S
C12 C13 1.359 . S
C12 C17 1.348 1_556 S
C13 C12 1.359 . S
C13 C14 1.380 . S
C13 H36 0.929 . S
C14 C13 1.380 . S
C14 C15 1.347 . S
C14 H37 0.931 . S
C15 C14 1.347 . S
C15 C16 1.369 1_556 S
C16 C15 1.369 1_554 S
C16 C17 1.408 . S
C16 H38 0.930 . S
C17 C12 1.348 1_554 S
C17 C16 1.408 . S
C17 H39 0.930 . S
C18 O28 1.281 . S
C18 O29 1.254 . S
C19 O30 1.236 . S
C19 O31 1.266 1_554 S
O20 Tb0 2.484 1_554 S
O20 C2 1.248 . S
O21 Tb0 2.440 . S
O21 C2 1.266 1_556 S
O22 Tb0 2.658 . S
O22 Tb1 2.325 1_556 S
O22 C9 1.281 . S
O23 Tb0 2.409 . S
O23 C9 1.254 . S
O24 Tb0 2.378 . S
O24 C10 1.236 . S
O25 Tb1 2.341 . S
O25 C10 1.266 1_554 S
O26 Tb1 2.484 1_556 S
O26 C11 1.248 . S
O27 Tb1 2.440 . S
O27 C11 1.266 1_554 S
O28 Tb0 2.325 1_554 S
O28 Tb1 2.658 . S
O28 C18 1.281 . S
O29 Tb1 2.409 . S
O29 C18 1.254 . S
O30 Tb1 2.378 . S
O30 C19 1.236 . S
O31 Tb0 2.341 . S
O31 C19 1.266 1_556 S
H32 C4 0.929 . S
H33 C5 0.931 . S
H34 C7 0.930 . S
H35 C8 0.930 . S
H36 C13 0.929 . S
H37 C14 0.931 . S
H38 C16 0.930 . S
H39 C17 0.930 . S
Tb40 C42 2.809 1_556 S
Tb40 O60 2.484 1_556 S
Tb40 O61 2.440 . S
Tb40 O62 2.658 . S
Tb40 O63 2.409 . S
Tb40 O64 2.378 . S
Tb40 O68 2.325 1_556 S
Tb40 O71 2.341 . S
Tb41 C51 2.809 1_554 S
Tb41 O62 2.325 1_554 S
Tb41 O65 2.341 . S
Tb41 O66 2.484 1_554 S
Tb41 O67 2.440 . S
Tb41 O68 2.658 . S
Tb41 O69 2.409 . S
Tb41 O70 2.378 . S
C42 Tb40 2.809 1_554 S
C42 C43 1.514 . S
C42 O60 1.248 . S
C42 O61 1.266 1_554 S
C43 C42 1.514 . S
C43 C44 1.359 . S
C43 C48 1.348 1_554 S
C44 C43 1.359 . S
C44 C45 1.380 . S
C44 H72 0.929 . S
C45 C44 1.380 . S
C45 C46 1.347 . S
C45 H73 0.931 . S
C46 C45 1.347 . S
C46 C47 1.369 1_554 S
C47 C46 1.369 1_556 S
C47 C48 1.408 . S
C47 H74 0.930 . S
C48 C43 1.348 1_556 S
C48 C47 1.408 . S
C48 H75 0.930 . S
C49 O62 1.281 . S
C49 O63 1.254 . S
C50 O64 1.236 . S
C50 O65 1.266 1_556 S
C51 Tb41 2.809 1_556 S
C51 C52 1.514 . S
C51 O66 1.248 . S
C51 O67 1.266 1_556 S
C52 C51 1.514 . S
C52 C53 1.359 . S
C52 C57 1.348 1_556 S
C53 C52 1.359 . S
C53 C54 1.380 . S
C53 H76 0.929 . S
C54 C53 1.380 . S
C54 C55 1.347 . S
C54 H77 0.931 . S
C55 C54 1.347 . S
C55 C56 1.369 1_556 S
C56 C55 1.369 1_554 S
C56 C57 1.408 . S
C56 H78 0.930 . S
C57 C52 1.348 1_554 S
C57 C56 1.408 . S
C57 H79 0.930 . S
C58 O68 1.281 . S
C58 O69 1.254 . S
C59 O70 1.236 . S
C59 O71 1.266 1_554 S
O60 Tb40 2.484 1_554 S
O60 C42 1.248 . S
O61 Tb40 2.440 . S
O61 C42 1.266 1_556 S
O62 Tb40 2.658 . S
O62 Tb41 2.325 1_556 S
O62 C49 1.281 . S
O63 Tb40 2.409 . S
O63 C49 1.254 . S
O64 Tb40 2.378 . S
O64 C50 1.236 . S
O65 Tb41 2.341 . S
O65 C50 1.266 1_554 S
O66 Tb41 2.484 1_556 S
O66 C51 1.248 . S
O67 Tb41 2.440 . S
O67 C51 1.266 1_554 S
O68 Tb40 2.325 1_554 S
O68 Tb41 2.658 . S
O68 C58 1.281 . S
O69 Tb41 2.409 . S
O69 C58 1.254 . S
O70 Tb41 2.378 . S
O70 C59 1.236 . S
O71 Tb40 2.341 . S
O71 C59 1.266 1_556 S
H72 C44 0.929 . S
H73 C45 0.931 . S
H74 C47 0.930 . S
H75 C48 0.930 . S
H76 C53 0.929 . S
H77 C54 0.931 . S
H78 C56 0.930 . S
H79 C57 0.930 . S
Tb80 C82 2.809 1_556 S
Tb80 O100 2.484 1_556 S
Tb80 O101 2.440 . S
Tb80 O102 2.658 . S
Tb80 O103 2.409 . S
Tb80 O104 2.378 . S
Tb80 O108 2.325 1_556 S
Tb80 O111 2.341 . S
Tb81 C91 2.809 1_554 S
Tb81 O102 2.325 1_554 S
Tb81 O105 2.341 . S
Tb81 O106 2.484 1_554 S
Tb81 O107 2.440 . S
Tb81 O108 2.658 . S
Tb81 O109 2.409 . S
Tb81 O110 2.378 . S
C82 Tb80 2.809 1_554 S
C82 C83 1.514 . S
C82 O100 1.248 . S
C82 O101 1.266 1_554 S
C83 C82 1.514 . S
C83 C84 1.359 . S
C83 C88 1.348 1_554 S
C84 C83 1.359 . S
C84 C85 1.380 . S
C84 H112 0.929 . S
C85 C84 1.380 . S
C85 C86 1.347 . S
C85 H113 0.931 . S
C86 C85 1.347 . S
C86 C87 1.369 1_554 S
C87 C86 1.369 1_556 S
C87 C88 1.408 . S
C87 H114 0.930 . S
C88 C83 1.348 1_556 S
C88 C87 1.408 . S
C88 H115 0.930 . S
C89 O102 1.281 . S
C89 O103 1.254 . S
C90 O104 1.236 . S
C90 O105 1.266 1_556 S
C91 Tb81 2.809 1_556 S
C91 C92 1.514 . S
C91 O106 1.248 . S
C91 O107 1.266 1_556 S
C92 C91 1.514 . S
C92 C93 1.359 . S
C92 C97 1.348 1_556 S
C93 C92 1.359 . S
C93 C94 1.380 . S
C93 H116 0.929 . S
C94 C93 1.380 . S
C94 C95 1.347 . S
C94 H117 0.931 . S
C95 C94 1.347 . S
C95 C96 1.369 1_556 S
C96 C95 1.369 1_554 S
C96 C97 1.408 . S
C96 H118 0.930 . S
C97 C92 1.348 1_554 S
C97 C96 1.408 . S
C97 H119 0.930 . S
C98 O108 1.281 . S
C98 O109 1.254 . S
C99 O110 1.236 . S
C99 O111 1.266 1_554 S
O100 Tb80 2.484 1_554 S
O100 C82 1.248 . S
O101 Tb80 2.440 . S
O101 C82 1.266 1_556 S
O102 Tb80 2.658 . S
O102 Tb81 2.325 1_556 S
O102 C89 1.281 . S
O103 Tb80 2.409 . S
O103 C89 1.254 . S
O104 Tb80 2.378 . S
O104 C90 1.236 . S
O105 Tb81 2.341 . S
O105 C90 1.266 1_554 S
O106 Tb81 2.484 1_556 S
O106 C91 1.248 . S
O107 Tb81 2.440 . S
O107 C91 1.266 1_554 S
O108 Tb80 2.325 1_554 S
O108 Tb81 2.658 . S
O108 C98 1.281 . S
O109 Tb81 2.409 . S
O109 C98 1.254 . S
O110 Tb81 2.378 . S
O110 C99 1.236 . S
O111 Tb80 2.341 . S
O111 C99 1.266 1_556 S
H112 C84 0.929 . S
H113 C85 0.931 . S
H114 C87 0.930 . S
H115 C88 0.930 . S
H116 C93 0.929 . S
H117 C94 0.931 . S
H118 C96 0.930 . S
H119 C97 0.930 . S
Tb120 C122 2.809 1_556 S
Tb120 O140 2.484 1_556 S
Tb120 O141 2.440 . S
Tb120 O142 2.658 . S
Tb120 O143 2.409 . S
Tb120 O144 2.378 . S
Tb120 O148 2.325 1_556 S
Tb120 O151 2.341 . S
Tb121 C131 2.809 1_554 S
Tb121 O142 2.325 1_554 S
Tb121 O145 2.341 . S
Tb121 O146 2.484 1_554 S
Tb121 O147 2.440 . S
Tb121 O148 2.658 . S
Tb121 O149 2.409 . S
Tb121 O150 2.378 . S
C122 Tb120 2.809 1_554 S
C122 C123 1.514 . S
C122 O140 1.248 . S
C122 O141 1.266 1_554 S
C123 C122 1.514 . S
C123 C124 1.359 . S
C123 C128 1.348 1_554 S
C124 C123 1.359 . S
C124 C125 1.380 . S
C124 H152 0.929 . S
C125 C124 1.380 . S
C125 C126 1.347 . S
C125 H153 0.931 . S
C126 C125 1.347 . S
C126 C127 1.369 1_554 S
C127 C126 1.369 1_556 S
C127 C128 1.408 . S
C127 H154 0.930 . S
C128 C123 1.348 1_556 S
C128 C127 1.408 . S
C128 H155 0.930 . S
C129 O142 1.281 . S
C129 O143 1.254 . S
C130 O144 1.236 . S
C130 O145 1.266 1_556 S
C131 Tb121 2.809 1_556 S
C131 C132 1.514 . S
C131 O146 1.248 . S
C131 O147 1.266 1_556 S
C132 C131 1.514 . S
C132 C133 1.359 . S
C132 C137 1.348 1_556 S
C133 C132 1.359 . S
C133 C134 1.380 . S
C133 H156 0.929 . S
C134 C133 1.380 . S
C134 C135 1.347 . S
C134 H157 0.931 . S
C135 C134 1.347 . S
C135 C136 1.369 1_556 S
C136 C135 1.369 1_554 S
C136 C137 1.408 . S
C136 H158 0.930 . S
C137 C132 1.348 1_554 S
C137 C136 1.408 . S
C137 H159 0.930 . S
C138 O148 1.281 . S
C138 O149 1.254 . S
C139 O150 1.236 . S
C139 O151 1.266 1_554 S
O140 Tb120 2.484 1_554 S
O140 C122 1.248 . S
O141 Tb120 2.440 . S
O141 C122 1.266 1_556 S
O142 Tb120 2.658 . S
O142 Tb121 2.325 1_556 S
O142 C129 1.281 . S
O143 Tb120 2.409 . S
O143 C129 1.254 . S
O144 Tb120 2.378 . S
O144 C130 1.236 . S
O145 Tb121 2.341 . S
O145 C130 1.266 1_554 S
O146 Tb121 2.484 1_556 S
O146 C131 1.248 . S
O147 Tb121 2.440 . S
O147 C131 1.266 1_554 S
O148 Tb120 2.325 1_554 S
O148 Tb121 2.658 . S
O148 C138 1.281 . S
O149 Tb121 2.409 . S
O149 C138 1.254 . S
O150 Tb121 2.378 . S
O150 C139 1.236 . S
O151 Tb120 2.341 . S
O151 C139 1.266 1_556 S
H152 C124 0.929 . S
H153 C125 0.931 . S
H154 C127 0.930 . S
H155 C128 0.930 . S
H156 C133 0.929 . S
H157 C134 0.931 . S
H158 C136 0.930 . S
H159 C137 0.930 . S
Tb160 C162 2.809 1_556 S
Tb160 O180 2.484 1_556 S
Tb160 O181 2.440 . S
Tb160 O182 2.658 . S
Tb160 O183 2.409 . S
Tb160 O184 2.378 . S
Tb160 O188 2.325 1_556 S
Tb160 O191 2.341 . S
Tb161 C171 2.809 1_554 S
Tb161 O182 2.325 1_554 S
Tb161 O185 2.341 . S
Tb161 O186 2.484 1_554 S
Tb161 O187 2.440 . S
Tb161 O188 2.658 . S
Tb161 O189 2.409 . S
Tb161 O190 2.378 . S
C162 Tb160 2.809 1_554 S
C162 C163 1.514 . S
C162 O180 1.248 . S
C162 O181 1.266 1_554 S
C163 C162 1.514 . S
C163 C164 1.359 . S
C163 C168 1.348 1_554 S
C164 C163 1.359 . S
C164 C165 1.380 . S
C164 H192 0.929 . S
C165 C164 1.380 . S
C165 C166 1.347 . S
C165 H193 0.931 . S
C166 C165 1.347 . S
C166 C167 1.369 1_554 S
C167 C166 1.369 1_556 S
C167 C168 1.408 . S
C167 H194 0.930 . S
C168 C163 1.348 1_556 S
C168 C167 1.408 . S
C168 H195 0.930 . S
C169 O182 1.281 . S
C169 O183 1.254 . S
C170 O184 1.236 . S
C170 O185 1.266 1_556 S
C171 Tb161 2.809 1_556 S
C171 C172 1.514 . S
C171 O186 1.248 . S
C171 O187 1.266 1_556 S
C172 C171 1.514 . S
C172 C173 1.359 . S
C172 C177 1.348 1_556 S
C173 C172 1.359 . S
C173 C174 1.380 . S
C173 H196 0.929 . S
C174 C173 1.380 . S
C174 C175 1.347 . S
C174 H197 0.931 . S
C175 C174 1.347 . S
C175 C176 1.369 1_556 S
C176 C175 1.369 1_554 S
C176 C177 1.408 . S
C176 H198 0.930 . S
C177 C172 1.348 1_554 S
C177 C176 1.408 . S
C177 H199 0.930 . S
C178 O188 1.281 . S
C178 O189 1.254 . S
C179 O190 1.236 . S
C179 O191 1.266 1_554 S
O180 Tb160 2.484 1_554 S
O180 C162 1.248 . S
O181 Tb160 2.440 . S
O181 C162 1.266 1_556 S
O182 Tb160 2.658 . S
O182 Tb161 2.325 1_556 S
O182 C169 1.281 . S
O183 Tb160 2.409 . S
O183 C169 1.254 . S
O184 Tb160 2.378 . S
O184 C170 1.236 . S
O185 Tb161 2.341 . S
O185 C170 1.266 1_554 S
O186 Tb161 2.484 1_556 S
O186 C171 1.248 . S
O187 Tb161 2.440 . S
O187 C171 1.266 1_554 S
O188 Tb160 2.325 1_554 S
O188 Tb161 2.658 . S
O188 C178 1.281 . S
O189 Tb161 2.409 . S
O189 C178 1.254 . S
O190 Tb161 2.378 . S
O190 C179 1.236 . S
O191 Tb160 2.341 . S
O191 C179 1.266 1_556 S
H192 C164 0.929 . S
H193 C165 0.931 . S
H194 C167 0.930 . S
H195 C168 0.930 . S
H196 C173 0.929 . S
H197 C174 0.931 . S
H198 C176 0.930 . S
H199 C177 0.930 . S
Tb200 C202 2.809 1_556 S
Tb200 O220 2.484 1_556 S
Tb200 O221 2.440 . S
Tb200 O222 2.658 . S
Tb200 O223 2.409 . S
Tb200 O224 2.378 . S
Tb200 O228 2.325 1_556 S
Tb200 O231 2.341 . S
Tb201 C211 2.809 1_554 S
Tb201 O222 2.325 1_554 S
Tb201 O225 2.341 . S
Tb201 O226 2.484 1_554 S
Tb201 O227 2.440 . S
Tb201 O228 2.658 . S
Tb201 O229 2.409 . S
Tb201 O230 2.378 . S
C202 Tb200 2.809 1_554 S
C202 C203 1.514 . S
C202 O220 1.248 . S
C202 O221 1.266 1_554 S
C203 C202 1.514 . S
C203 C204 1.359 . S
C203 C208 1.348 1_554 S
C204 C203 1.359 . S
C204 C205 1.380 . S
C204 H232 0.929 . S
C205 C204 1.380 . S
C205 C206 1.347 . S
C205 H233 0.931 . S
C206 C205 1.347 . S
C206 C207 1.369 1_554 S
C207 C206 1.369 1_556 S
C207 C208 1.408 . S
C207 H234 0.930 . S
C208 C203 1.348 1_556 S
C208 C207 1.408 . S
C208 H235 0.930 . S
C209 O222 1.281 . S
C209 O223 1.254 . S
C210 O224 1.236 . S
C210 O225 1.266 1_556 S
C211 Tb201 2.809 1_556 S
C211 C212 1.514 . S
C211 O226 1.248 . S
C211 O227 1.266 1_556 S
C212 C211 1.514 . S
C212 C213 1.359 . S
C212 C217 1.348 1_556 S
C213 C212 1.359 . S
C213 C214 1.380 . S
C213 H236 0.929 . S
C214 C213 1.380 . S
C214 C215 1.347 . S
C214 H237 0.931 . S
C215 C214 1.347 . S
C215 C216 1.369 1_556 S
C216 C215 1.369 1_554 S
C216 C217 1.408 . S
C216 H238 0.930 . S
C217 C212 1.348 1_554 S
C217 C216 1.408 . S
C217 H239 0.930 . S
C218 O228 1.281 . S
C218 O229 1.254 . S
C219 O230 1.236 . S
C219 O231 1.266 1_554 S
O220 Tb200 2.484 1_554 S
O220 C202 1.248 . S
O221 Tb200 2.440 . S
O221 C202 1.266 1_556 S
O222 Tb200 2.658 . S
O222 Tb201 2.325 1_556 S
O222 C209 1.281 . S
O223 Tb200 2.409 . S
O223 C209 1.254 . S
O224 Tb200 2.378 . S
O224 C210 1.236 . S
O225 Tb201 2.341 . S
O225 C210 1.266 1_554 S
O226 Tb201 2.484 1_556 S
O226 C211 1.248 . S
O227 Tb201 2.440 . S
O227 C211 1.266 1_554 S
O228 Tb200 2.325 1_554 S
O228 Tb201 2.658 . S
O228 C218 1.281 . S
O229 Tb201 2.409 . S
O229 C218 1.254 . S
O230 Tb201 2.378 . S
O230 C219 1.236 . S
O231 Tb200 2.341 . S
O231 C219 1.266 1_556 S
H232 C204 0.929 . S
H233 C205 0.931 . S
H234 C207 0.930 . S
H235 C208 0.930 . S
H236 C213 0.929 . S
H237 C214 0.931 . S
H238 C216 0.930 . S
H239 C217 0.930 . S
H240 C246 0.930 . S
H241 C250 0.930 . S
H242 C255 0.929 . S
H243 C253 0.929 . S
H244 C248 0.929 . S
H245 C254 0.929 . S
C246 H240 0.930 . S
C246 C247 1.361 1_554 S
C246 C254 1.378 . S
C247 C246 1.361 1_556 S
C247 C255 1.439 . S
C248 H244 0.929 . S
C248 C250 1.378 . S
C248 C252 1.350 . S
C249 C252 1.463 . S
C249 C254 1.350 1_556 S
C249 N257 1.427 . S
C250 H241 0.930 . S
C250 C248 1.378 . S
C250 C251 1.367 . S
C251 C250 1.367 . S
C251 C253 1.433 1_556 S
C252 C248 1.350 . S
C252 C249 1.463 . S
C252 N256 1.427 1_556 S
C253 H243 0.929 . S
C253 C251 1.433 1_554 S
C253 N256 1.384 . S
C254 H245 0.929 . S
C254 C246 1.378 . S
C254 C249 1.350 1_554 S
C255 H242 0.929 . S
C255 C247 1.439 . S
C255 N257 1.384 . S
N256 C252 1.427 1_554 S
N256 C253 1.384 . S
N257 C249 1.427 . S
N257 C255 1.384 . S
H258 C264 0.930 . S
H259 C268 0.930 . S
H260 C273 0.929 . S
H261 C271 0.929 . S
H262 C266 0.929 . S
H263 C272 0.929 . S
C264 H258 0.930 . S
C264 C265 1.361 1_554 S
C264 C272 1.378 . S
C265 C264 1.361 1_556 S
C265 C273 1.439 . S
C266 H262 0.929 . S
C266 C268 1.378 1_455 S
C266 C270 1.350 . S
C267 C270 1.463 . S
C267 C272 1.350 1_556 S
C267 N275 1.427 . S
C268 H259 0.930 . S
C268 C266 1.378 1_655 S
C268 C269 1.367 . S
C269 C268 1.367 . S
C269 C271 1.433 1_556 S
C270 C266 1.350 . S
C270 C267 1.463 . S
C270 N274 1.427 1_556 S
C271 H261 0.929 . S
C271 C269 1.433 1_554 S
C271 N274 1.384 1_655 S
C272 H263 0.929 . S
C272 C264 1.378 . S
C272 C267 1.350 1_554 S
C273 H260 0.929 . S
C273 C265 1.439 . S
C273 N275 1.384 . S
N274 C270 1.427 1_554 S
N274 C271 1.384 1_455 S
N275 C267 1.427 . S
N275 C273 1.384 . S
H276 C282 0.930 . S
H277 C286 0.927 1_565 S
H278 C291 0.929 . S
H279 C289 0.929 . S
H280 C284 0.929 . S
H281 C290 0.929 . S
C282 H276 0.930 . S
C282 C283 1.367 1_554 S
C282 C290 1.378 . S
C283 C282 1.367 1_556 S
C283 C291 1.433 . S
C284 H280 0.929 . S
C284 C286 1.378 . S
C284 C288 1.350 . S
C285 C288 1.463 . S
C285 C290 1.350 1_556 S
C285 N293 1.427 . S
C286 H277 0.927 1_545 S
C286 C284 1.378 . S
C286 C287 1.367 1_545 S
C287 C286 1.367 1_565 S
C287 C289 1.433 1_556 S
C288 C284 1.350 . S
C288 C285 1.463 . S
C288 N292 1.427 1_556 S
C289 H279 0.929 . S
C289 C287 1.433 1_554 S
C289 N292 1.384 1_565 S
C290 H281 0.929 . S
C290 C282 1.378 . S
C290 C285 1.350 1_554 S
C291 H278 0.929 . S
C291 C283 1.433 . S
C291 N293 1.384 . S
N292 C288 1.427 1_554 S
N292 C289 1.384 1_545 S
N293 C285 1.427 . S
N293 C291 1.384 . S
H294 C300 0.930 . S
H295 C304 0.930 . S
H296 C309 0.929 . S
H297 C307 0.929 . S
H298 C302 0.929 . S
H299 C308 0.929 . S
C300 H294 0.930 . S
C300 C301 1.367 1_554 S
C300 C308 1.378 . S
C301 C300 1.367 1_556 S
C301 C309 1.433 . S
C302 H298 0.929 . S
C302 C304 1.378 . S
C302 C306 1.350 . S
C303 C306 1.463 . S
C303 C308 1.350 1_556 S
C303 N311 1.427 . S
C304 H295 0.930 . S
C304 C302 1.378 . S
C304 C305 1.367 . S
C305 C304 1.367 . S
C305 C307 1.433 1_556 S
C306 C302 1.350 . S
C306 C303 1.463 . S
C306 N310 1.427 1_556 S
C307 H297 0.929 . S
C307 C305 1.433 1_554 S
C307 N310 1.384 . S
C308 H299 0.929 . S
C308 C300 1.378 . S
C308 C303 1.350 1_554 S
C309 H296 0.929 . S
C309 C301 1.433 . S
C309 N311 1.384 . S
N310 C306 1.427 1_554 S
N310 C307 1.384 . S
N311 C303 1.427 . S
N311 C309 1.384 . S
H312 C318 0.930 . S
H313 C322 0.930 . S
H314 C327 0.929 1_455 S
H315 C325 0.929 . S
H316 C320 0.929 . S
H317 C326 0.929 . S
C318 H312 0.930 . S
C318 C319 1.367 . S
C318 C326 1.378 1_455 S
C319 C318 1.367 . S
C319 C327 1.433 1_456 S
C320 H316 0.929 . S
C320 C322 1.378 . S
C320 C324 1.350 1_554 S
C321 C324 1.463 . S
C321 C326 1.350 . S
C321 N329 1.427 1_556 S
C322 H313 0.930 . S
C322 C320 1.378 . S
C322 C323 1.358 1_554 S
C323 C322 1.358 1_556 S
C323 C325 1.443 . S
C324 C320 1.350 1_556 S
C324 C321 1.463 . S
C324 N328 1.427 . S
C325 H315 0.929 . S
C325 C323 1.443 . S
C325 N328 1.384 . S
C326 H317 0.929 . S
C326 C318 1.378 1_655 S
C326 C321 1.350 . S
C327 H314 0.929 1_655 S
C327 C319 1.433 1_654 S
C327 N329 1.384 . S
N328 C324 1.427 . S
N328 C325 1.384 . S
N329 C321 1.427 1_554 S
N329 C327 1.384 . S
H330 C336 0.930 . S
H331 C340 0.907 1_545 S
H332 C345 0.929 . S
H333 C343 0.929 . S
H334 C338 0.929 . S
H335 C344 0.929 . S
C336 H330 0.930 . S
C336 C337 1.358 1_554 S
C336 C344 1.378 . S
C337 C336 1.358 1_556 S
C337 C345 1.443 . S
C338 H334 0.929 . S
C338 C340 1.378 . S
C338 C342 1.350 . S
C339 C342 1.463 . S
C339 C344 1.350 1_556 S
C339 N347 1.427 . S
C340 H331 0.907 1_565 S
C340 C338 1.378 . S
C340 C341 1.367 1_565 S
C341 C340 1.367 1_545 S
C341 C343 1.433 1_556 S
C342 C338 1.350 . S
C342 C339 1.463 . S
C342 N346 1.427 1_556 S
C343 H333 0.929 . S
C343 C341 1.433 1_554 S
C343 N346 1.384 1_545 S
C344 H335 0.929 . S
C344 C336 1.378 . S
C344 C339 1.350 1_554 S
C345 H332 0.929 . S
C345 C337 1.443 . S
C345 N347 1.384 . S
N346 C342 1.427 1_554 S
N346 C343 1.384 1_565 S
N347 C339 1.427 . S
N347 C345 1.384 . S
H348 C354 0.930 . S
H349 C358 0.930 . S
H350 C363 0.929 . S
H351 C361 0.929 . S
H352 C356 0.929 . S
H353 C362 0.929 . S
C354 H348 0.930 . S
C354 C355 1.357 1_556 S
C354 C362 1.378 . S
C355 C354 1.357 1_554 S
C355 C363 1.444 . S
C356 H352 0.929 . S
C356 C358 1.378 . S
C356 C360 1.350 . S
C357 C360 1.463 . S
C357 C362 1.350 1_554 S
C357 N365 1.427 . S
C358 H349 0.930 . S
C358 C356 1.378 . S
C358 C359 1.367 . S
C359 C358 1.367 . S
C359 C361 1.433 1_554 S
C360 C356 1.350 . S
C360 C357 1.463 . S
C360 N364 1.427 1_554 S
C361 H351 0.929 . S
C361 C359 1.433 1_556 S
C361 N364 1.384 . S
C362 H353 0.929 . S
C362 C354 1.378 . S
C362 C357 1.350 1_556 S
C363 H350 0.929 . S
C363 C355 1.444 . S
C363 N365 1.384 . S
N364 C360 1.427 1_556 S
N364 C361 1.384 . S
N365 C357 1.427 . S
N365 C363 1.384 . S
H366 C372 0.930 . S
H367 C376 0.930 . S
H368 C381 0.929 . S
H369 C379 0.929 . S
H370 C374 0.929 . S
H371 C380 0.929 . S
C372 H366 0.930 . S
C372 C373 1.367 . S
C372 C380 1.378 . S
C373 C372 1.367 . S
C373 C381 1.433 1_554 S
C374 H370 0.929 . S
C374 C376 1.378 . S
C374 C378 1.350 1_556 S
C375 C378 1.463 . S
C375 C380 1.350 . S
C375 N383 1.427 1_554 S
C376 H367 0.930 . S
C376 C374 1.378 . S
C376 C377 1.367 1_556 S
C377 C376 1.367 1_554 S
C377 C379 1.433 . S
C378 C374 1.350 1_554 S
C378 C375 1.463 . S
C378 N382 1.427 . S
C379 H369 0.929 . S
C379 C377 1.433 . S
C379 N382 1.384 . S
C380 H371 0.929 . S
C380 C372 1.378 . S
C380 C375 1.350 . S
C381 H368 0.929 . S
C381 C373 1.433 1_556 S
C381 N383 1.384 . S
N382 C378 1.427 . S
N382 C379 1.384 . S
N383 C375 1.427 1_556 S
N383 C381 1.384 . S
H384 C390 0.930 . S
H385 C394 0.930 . S
H386 C399 0.929 . S
H387 C397 0.929 . S
H388 C392 0.929 . S
H389 C398 0.929 . S
C390 H384 0.930 . S
C390 C391 1.367 . S
C390 C398 1.378 . S
C391 C390 1.367 . S
C391 C399 1.433 1_554 S
C392 H388 0.929 . S
C392 C394 1.378 . S
C392 C396 1.350 1_556 S
C393 C396 1.463 . S
C393 C398 1.350 . S
C393 N401 1.427 1_554 S
C394 H385 0.930 . S
C394 C392 1.378 . S
C394 C395 1.357 1_556 S
C395 C394 1.357 1_554 S
C395 C397 1.444 . S
C396 C392 1.350 1_554 S
C396 C393 1.463 . S
C396 N400 1.427 . S
C397 H387 0.929 . S
C397 C395 1.444 . S
C397 N400 1.384 . S
C398 H389 0.929 . S
C398 C390 1.378 . S
C398 C393 1.350 . S
C399 H386 0.929 . S
C399 C391 1.433 1_556 S
C399 N401 1.384 . S
N400 C396 1.427 . S
N400 C397 1.384 . S
N401 C393 1.427 1_556 S
N401 C399 1.384 . S
H402 C408 0.930 . S
H403 C412 0.930 . S
H404 C417 0.929 . S
H405 C415 0.929 . S
H406 C410 0.929 . S
H407 C416 0.929 . S
C408 H402 0.930 . S
C408 C409 1.367 . S
C408 C416 1.378 . S
C409 C408 1.367 . S
C409 C417 1.433 . S
C410 H406 0.929 . S
C410 C412 1.378 . S
C410 C414 1.350 1_556 S
C411 C414 1.463 . S
C411 C416 1.350 . S
C411 N419 1.427 . S
C412 H403 0.930 . S
C412 C410 1.378 . S
C412 C413 1.367 1_556 S
C413 C412 1.367 1_554 S
C413 C415 1.433 . S
C414 C410 1.350 1_554 S
C414 C411 1.463 . S
C414 N418 1.427 . S
C415 H405 0.929 . S
C415 C413 1.433 . S
C415 N418 1.384 . S
C416 H407 0.929 . S
C416 C408 1.378 . S
C416 C411 1.350 . S
C417 H404 0.929 . S
C417 C409 1.433 . S
C417 N419 1.384 . S
N418 C414 1.427 . S
N418 C415 1.384 . S
N419 C411 1.427 . S
N419 C417 1.384 . S
H420 C426 0.930 . S
H421 C430 0.930 . S
H422 C435 0.929 . S
H423 C433 0.929 . S
H424 C428 0.929 . S
H425 C434 0.929 . S
C426 H420 0.930 . S
C426 C427 1.367 1_556 S
C426 C434 1.378 . S
C427 C426 1.367 1_554 S
C427 C435 1.433 . S
C428 H424 0.929 . S
C428 C430 1.378 . S
C428 C432 1.350 . S
C429 C432 1.463 . S
C429 C434 1.350 1_554 S
C429 N437 1.427 . S
C430 H421 0.930 . S
C430 C428 1.378 . S
C430 C431 1.367 . S
C431 C430 1.367 . S
C431 C433 1.433 1_554 S
C432 C428 1.350 . S
C432 C429 1.463 . S
C432 N436 1.427 1_554 S
C433 H423 0.929 . S
C433 C431 1.433 1_556 S
C433 N436 1.384 . S
C434 H425 0.929 . S
C434 C426 1.378 . S
C434 C429 1.350 1_556 S
C435 H422 0.929 . S
C435 C427 1.433 . S
C435 N437 1.384 . S
N436 C432 1.427 1_556 S
N436 C433 1.384 . S
N437 C429 1.427 . S
N437 C435 1.384 . S
H438 C444 0.930 . S
H439 C448 0.930 . S
H440 C453 0.929 . S
H441 C451 0.929 . S
H442 C446 0.929 . S
H443 C452 0.929 . S
C444 H438 0.930 . S
C444 C445 1.367 1_556 S
C444 C452 1.378 . S
C445 C444 1.367 1_554 S
C445 C453 1.433 . S
C446 H442 0.929 . S
C446 C448 1.378 . S
C446 C450 1.350 . S
C447 C450 1.463 . S
C447 C452 1.350 1_554 S
C447 N455 1.427 . S
C448 H439 0.930 . S
C448 C446 1.378 . S
C448 C449 1.367 . S
C449 C448 1.367 . S
C449 C451 1.433 1_554 S
C450 C446 1.350 . S
C450 C447 1.463 . S
C450 N454 1.427 1_554 S
C451 H441 0.929 . S
C451 C449 1.433 1_556 S
C451 N454 1.384 . S
C452 H443 0.929 . S
C452 C444 1.378 . S
C452 C447 1.350 1_556 S
C453 H440 0.929 . S
C453 C445 1.433 . S
C453 N455 1.384 . S
N454 C450 1.427 1_556 S
N454 C451 1.384 . S
N455 C447 1.427 . S
N455 C453 1.384 . S
H456 C462 0.930 . S
H457 C466 0.930 . S
H458 C471 0.929 . S
H459 C469 0.929 . S
H460 C464 0.929 . S
H461 C470 0.929 . S
C462 H456 0.930 . S
C462 C463 1.367 . S
C462 C470 1.378 . S
C463 C462 1.367 . S
C463 C471 1.433 . S
C464 H460 0.929 . S
C464 C466 1.378 . S
C464 C468 1.350 . S
C465 C468 1.463 . S
C465 C470 1.350 . S
C465 N473 1.427 . S
C466 H457 0.930 . S
C466 C464 1.378 . S
C466 C467 1.367 . S
C467 C466 1.367 . S
C467 C469 1.433 . S
C468 C464 1.350 . S
C468 C465 1.463 . S
C468 N472 1.427 . S
C469 H459 0.929 . S
C469 C467 1.433 . S
C469 N472 1.384 . S
C470 H461 0.929 . S
C470 C462 1.378 . S
C470 C465 1.350 . S
C471 H458 0.929 . S
C471 C463 1.433 . S
C471 N473 1.384 . S
N472 C468 1.427 . S
N472 C469 1.384 . S
N473 C465 1.427 . S
N473 C471 1.384 . S
H474 C480 0.930 . S
H475 C484 0.930 . S
H476 C489 0.929 . S
H477 C487 0.929 . S
H478 C482 0.929 . S
H479 C488 0.929 . S
C480 H474 0.930 . S
C480 C481 1.367 . S
C480 C488 1.378 . S
C481 C480 1.367 . S
C481 C489 1.433 . S
C482 H478 0.929 . S
C482 C484 1.378 . S
C482 C486 1.350 . S
C483 C486 1.463 . S
C483 C488 1.350 . S
C483 N491 1.427 . S
C484 H475 0.930 . S
C484 C482 1.378 . S
C484 C485 1.367 . S
C485 C484 1.367 . S
C485 C487 1.433 . S
C486 C482 1.350 . S
C486 C483 1.463 . S
C486 N490 1.427 . S
C487 H477 0.929 . S
C487 C485 1.433 . S
C487 N490 1.384 . S
C488 H479 0.929 . S
C488 C480 1.378 . S
C488 C483 1.350 . S
C489 H476 0.929 . S
C489 C481 1.433 . S
C489 N491 1.384 . S
N490 C486 1.427 . S
N490 C487 1.384 . S
N491 C483 1.427 . S
N491 C489 1.384 . S
H492 C498 0.930 . S
H493 C502 0.930 . S
H494 C507 0.929 . S
H495 C505 0.929 . S
H496 C500 0.929 . S
H497 C506 0.929 . S
C498 H492 0.930 . S
C498 C499 1.367 . S
C498 C506 1.378 . S
C499 C498 1.367 . S
C499 C507 1.433 . S
C500 H496 0.929 . S
C500 C502 1.378 . S
C500 C504 1.350 . S
C501 C504 1.463 . S
C501 C506 1.350 . S
C501 N509 1.427 . S
C502 H493 0.930 . S
C502 C500 1.378 . S
C502 C503 1.367 . S
C503 C502 1.367 . S
C503 C505 1.433 . S
C504 C500 1.350 . S
C504 C501 1.463 . S
C504 N508 1.427 . S
C505 H495 0.929 . S
C505 C503 1.433 . S
C505 N508 1.384 . S
C506 H497 0.929 . S
C506 C498 1.378 . S
C506 C501 1.350 . S
C507 H494 0.929 . S
C507 C499 1.433 . S
C507 N509 1.384 . S
N508 C504 1.427 . S
N508 C505 1.384 . S
N509 C501 1.427 . S
N509 C507 1.384 . S
H510 C516 0.930 . S
H511 C520 0.930 . S
H512 C525 0.929 . S
H513 C523 0.929 . S
H514 C518 0.929 . S
H515 C524 0.929 . S
C516 H510 0.930 . S
C516 C517 1.367 . S
C516 C524 1.378 . S
C517 C516 1.367 . S
C517 C525 1.433 . S
C518 H514 0.929 . S
C518 C520 1.378 . S
C518 C522 1.350 . S
C519 C522 1.463 . S
C519 C524 1.350 . S
C519 N527 1.427 . S
C520 H511 0.930 . S
C520 C518 1.378 . S
C520 C521 1.367 . S
C521 C520 1.367 . S
C521 C523 1.433 . S
C522 C518 1.350 . S
C522 C519 1.463 . S
C522 N526 1.427 . S
C523 H513 0.929 . S
C523 C521 1.433 . S
C523 N526 1.384 . S
C524 H515 0.929 . S
C524 C516 1.378 . S
C524 C519 1.350 . S
C525 H512 0.929 . S
C525 C517 1.433 . S
C525 N527 1.384 . S
N526 C522 1.427 . S
N526 C523 1.384 . S
N527 C519 1.427 . S
N527 C525 1.384 . S
H528 C534 0.930 . S
H529 C538 0.930 . S
H530 C543 0.929 . S
H531 C541 0.929 . S
H532 C536 0.929 . S
H533 C542 0.929 . S
C534 H528 0.930 . S
C534 C535 1.367 . S
C534 C542 1.378 . S
C535 C534 1.367 . S
C535 C543 1.433 . S
C536 H532 0.929 . S
C536 C538 1.378 . S
C536 C540 1.350 . S
C537 C540 1.463 . S
C537 C542 1.350 . S
C537 N545 1.427 . S
C538 H529 0.930 . S
C538 C536 1.378 . S
C538 C539 1.367 . S
C539 C538 1.367 . S
C539 C541 1.433 . S
C540 C536 1.350 . S
C540 C537 1.463 . S
C540 N544 1.427 . S
C541 H531 0.929 . S
C541 C539 1.433 . S
C541 N544 1.384 . S
C542 H533 0.929 . S
C542 C534 1.378 . S
C542 C537 1.350 . S
C543 H530 0.929 . S
C543 C535 1.433 . S
C543 N545 1.384 . S
N544 C540 1.427 . S
N544 C541 1.384 . S
N545 C537 1.427 . S
N545 C543 1.384 . S
H546 C552 0.930 . S
H547 C556 0.930 . S
H548 C561 0.929 . S
H549 C559 0.929 . S
H550 C554 0.929 . S
H551 C560 0.929 . S
C552 H546 0.930 . S
C552 C553 1.367 . S
C552 C560 1.378 . S
C553 C552 1.367 . S
C553 C561 1.433 . S
C554 H550 0.929 . S
C554 C556 1.378 . S
C554 C558 1.350 . S
C555 C558 1.463 . S
C555 C560 1.350 . S
C555 N563 1.427 . S
C556 H547 0.930 . S
C556 C554 1.378 . S
C556 C557 1.367 . S
C557 C556 1.367 . S
C557 C559 1.433 . S
C558 C554 1.350 . S
C558 C555 1.463 . S
C558 N562 1.427 . S
C559 H549 0.929 . S
C559 C557 1.433 . S
C559 N562 1.384 . S
C560 H551 0.929 . S
C560 C552 1.378 . S
C560 C555 1.350 . S
C561 H548 0.929 . S
C561 C553 1.433 . S
C561 N563 1.384 . S
N562 C558 1.427 . S
N562 C559 1.384 . S
N563 C555 1.427 . S
N563 C561 1.384 . S
C247 C219 1.912 1_556 S
C251 C15 1.711 . S
C265 C19 1.912 1_556 S
C269 C55 1.712 . S
C283 C59 1.911 1_556 S
C287 C95 1.719 . S
C301 C135 1.710 . S
C305 C99 1.916 1_556 S
C319 C175 1.705 . S
C323 C139 1.914 1_556 S
C337 C179 1.910 1_556 S
C341 C215 1.718 . S
C355 C170 1.941 1_554 S
C359 C6 1.942 . S
C373 C210 1.944 1_554 S
C377 C46 1.941 . S
C391 C86 1.943 . S
C395 C10 1.941 1_554 S
C409 C126 1.940 . S
C413 C50 1.944 1_554 S
C427 C166 1.942 . S
C431 C90 1.943 1_554 S
C445 C130 1.944 1_554 S
C449 C206 1.941 . S
C463 C9 1.433 . S
C467 C18 1.433 . S
C481 C49 1.446 . S
C485 C58 1.446 . S
C499 C89 1.435 . S
C503 C98 1.435 . S
C517 C129 1.443 . S
C521 C138 1.443 . S
C535 C178 1.442 . S
C539 C169 1.442 . S
C553 C209 1.435 . S
C557 C218 1.435 . S
