# Generated by pormake.
# Topology ske, (6)-cn, num edge types: 1
# Building blocks:
#     Node 0, Type 0, BuildingBlock: INOVEN_clean_sbu_0, # of connection points: 6
#     Node 1, Type 0, BuildingBlock: INOVEN_clean_sbu_0, # of connection points: 6
#     Node 2, Type 0, BuildingBlock: INOVEN_clean_sbu_0, # of connection points: 6
#     Node 3, Type 0, BuildingBlock: INOVEN_clean_sbu_0, # of connection points: 6
#     Node 4, Type 0, BuildingBlock: INOVEN_clean_sbu_0, # of connection points: 6
#     Node 5, Type 0, BuildingBlock: INOVEN_clean_sbu_0, # of connection points: 6
#     Node 6, Type 0, BuildingBlock: INOVEN_clean_sbu_0, # of connection points: 6
#     Node 7, Type 0, BuildingBlock: INOVEN_clean_sbu_0, # of connection points: 6
#     Edge 8, Type (0, 0), BuildingBlock: EZIPEK_clean_linker_0, # of connection points: 2
#     Edge 9, Type (0, 0), BuildingBlock: EZIPEK_clean_linker_0, # of connection points: 2
#     Edge 10, Type (0, 0), BuildingBlock: EZIPEK_clean_linker_0, # of connection points: 2
#     Edge 11, Type (0, 0), BuildingBlock: EZIPEK_clean_linker_0, # of connection points: 2
#     Edge 12, Type (0, 0), BuildingBlock: EZIPEK_clean_linker_0, # of connection points: 2
#     Edge 13, Type (0, 0), BuildingBlock: EZIPEK_clean_linker_0, # of connection points: 2
#     Edge 14, Type (0, 0), BuildingBlock: EZIPEK_clean_linker_0, # of connection points: 2
#     Edge 15, Type (0, 0), BuildingBlock: EZIPEK_clean_linker_0, # of connection points: 2
#     Edge 16, Type (0, 0), BuildingBlock: EZIPEK_clean_linker_0, # of connection points: 2
#     Edge 17, Type (0, 0), BuildingBlock: EZIPEK_clean_linker_0, # of connection points: 2
#     Edge 18, Type (0, 0), BuildingBlock: EZIPEK_clean_linker_0, # of connection points: 2
#     Edge 19, Type (0, 0), BuildingBlock: EZIPEK_clean_linker_0, # of connection points: 2
#     Edge 20, Type (0, 0), BuildingBlock: EZIPEK_clean_linker_0, # of connection points: 2
#     Edge 21, Type (0, 0), BuildingBlock: EZIPEK_clean_linker_0, # of connection points: 2
#     Edge 22, Type (0, 0), BuildingBlock: EZIPEK_clean_linker_0, # of connection points: 2
#     Edge 23, Type (0, 0), BuildingBlock: EZIPEK_clean_linker_0, # of connection points: 2
#     Edge 24, Type (0, 0), BuildingBlock: EZIPEK_clean_linker_0, # of connection points: 2
#     Edge 25, Type (0, 0), BuildingBlock: EZIPEK_clean_linker_0, # of connection points: 2
#     Edge 26, Type (0, 0), BuildingBlock: EZIPEK_clean_linker_0, # of connection points: 2
#     Edge 27, Type (0, 0), BuildingBlock: EZIPEK_clean_linker_0, # of connection points: 2
#     Edge 28, Type (0, 0), BuildingBlock: EZIPEK_clean_linker_0, # of connection points: 2
#     Edge 29, Type (0, 0), BuildingBlock: EZIPEK_clean_linker_0, # of connection points: 2
#     Edge 30, Type (0, 0), BuildingBlock: EZIPEK_clean_linker_0, # of connection points: 2
#     Edge 31, Type (0, 0), BuildingBlock: EZIPEK_clean_linker_0, # of connection points: 2
# Relax obj value: 0.198
# Max RMSD: 0.214
# Mean RMSD: 0.207
data_MOF--net-ske--node1-INOVEN_clean_sbu_0--edge1-EZIPEK_clean_linker_0
_symmetry_space_group_name_H-M    P1
_symmetry_Int_Tables_number       1
_symmetry_cell_setting            triclinic
loop_
_symmetry_equiv_pos_as_xyz
'x, y, z'
_cell_length_a     87.067529
_cell_length_b     21.185019
_cell_length_c     11.525574
_cell_angle_alpha  89.941262
_cell_angle_beta   90.11265
_cell_angle_gamma 82.702937
loop_
_atom_site_label
_atom_site_type_symbol
_atom_site_fract_x
_atom_site_fract_y
_atom_site_fract_z
_atom_type_partial_charge
Gd0 Gd 0.16599 0.26011 0.53261 0.0
Gd1 Gd 0.12937 0.25789 0.53706 0.0
C2 C 0.14853 0.25677 0.78306 0.0
C3 C 0.19361 0.29289 0.5425 0.0
C4 C 0.20875 0.28304 0.60187 0.0
C5 C 0.21645 0.22183 0.62472 0.0
C6 C 0.21623 0.33636 0.62683 0.0
C7 C 0.23913 0.26778 0.6913 0.0
C8 C 0.2313 0.32883 0.67131 0.0
C9 C 0.23156 0.2143 0.66916 0.0
C10 C 0.15653 0.14206 0.52084 0.0
C11 C 0.14736 0.26211 0.29244 0.0
C12 C 0.10215 0.22086 0.54024 0.0
C13 C 0.08572 0.23382 0.50261 0.0
C14 C 0.07568 0.28464 0.54984 0.0
C15 C 0.07945 0.18966 0.43124 0.0
C16 C 0.05344 0.24377 0.46279 0.0
C17 C 0.06346 0.19466 0.41125 0.0
C18 C 0.05969 0.28948 0.5301 0.0
C19 C 0.13693 0.38017 0.51404 0.0
O20 O 0.16149 0.26411 0.7266 0.0
O21 O 0.13549 0.24811 0.7285 0.0
O22 O 0.18985 0.24663 0.4772 0.0
O23 O 0.18185 0.32289 0.59914 0.0
O24 O 0.16946 0.15636 0.47841 0.0
O25 O 0.15011 0.18925 0.57766 0.0
O26 O 0.13602 0.2388 0.34863 0.0
O27 O 0.15861 0.28593 0.34864 0.0
O28 O 0.10707 0.25852 0.61854 0.0
O29 O 0.11271 0.20083 0.46285 0.0
O30 O 0.12276 0.36704 0.51844 0.0
O31 O 0.14538 0.32782 0.51933 0.0
H32 H 0.21094 0.17993 0.60595 0.0
H33 H 0.21055 0.38393 0.60908 0.0
H34 H 0.23697 0.37056 0.68812 0.0
H35 H 0.23745 0.16684 0.68454 0.0
H36 H 0.08006 0.31924 0.606 0.0
H37 H 0.08685 0.14956 0.39501 0.0
H38 H 0.05883 0.15872 0.35966 0.0
H39 H 0.05212 0.32754 0.57101 0.0
Gd40 Gd 0.87492 0.26335 0.53177 0.0
Gd41 Gd 0.90949 0.25707 0.54327 0.0
C42 C 0.89145 0.26502 0.78434 0.0
C43 C 0.84614 0.24356 0.54311 0.0
C44 C 0.83147 0.25193 0.60997 0.0
C45 C 0.8214 0.30941 0.60542 0.0
C46 C 0.82646 0.19915 0.66586 0.0
C47 C 0.80142 0.25995 0.70538 0.0
C48 C 0.81159 0.20318 0.71337 0.0
C49 C 0.80651 0.31337 0.65299 0.0
C50 C 0.88541 0.37929 0.52352 0.0
C51 C 0.89268 0.25603 0.29058 0.0
C52 C 0.93807 0.27963 0.5367 0.0
C53 C 0.95404 0.27077 0.4903 0.0
C54 C 0.96233 0.20994 0.47472 0.0
C55 C 0.96188 0.32444 0.47964 0.0
C56 C 0.98632 0.25681 0.45183 0.0
C57 C 0.97788 0.31757 0.46074 0.0
C58 C 0.97836 0.20306 0.45513 0.0
C59 C 0.89913 0.1407 0.55416 0.0
O60 O 0.87918 0.25213 0.72549 0.0
O61 O 0.90392 0.27932 0.73056 0.0
O62 O 0.85073 0.29347 0.49362 0.0
O63 O 0.85762 0.20324 0.58217 0.0
O64 O 0.87338 0.36517 0.46809 0.0
O65 O 0.89073 0.33301 0.58712 0.0
O66 O 0.90492 0.26967 0.34949 0.0
O67 O 0.88028 0.2412 0.34454 0.0
O68 O 0.93333 0.23305 0.59555 0.0
O69 O 0.92699 0.31389 0.47925 0.0
O70 O 0.91162 0.15466 0.60343 0.0
O71 O 0.89373 0.18657 0.48965 0.0
H72 H 0.82478 0.35074 0.56168 0.0
H73 H 0.83383 0.15396 0.66911 0.0
H74 H 0.80783 0.16146 0.75339 0.0
H75 H 0.7988 0.35754 0.64595 0.0
H76 H 0.9566 0.16771 0.48317 0.0
H77 H 0.95578 0.37175 0.49251 0.0
H78 H 0.98379 0.35958 0.45861 0.0
H79 H 0.98469 0.15576 0.44843 0.0
Gd80 Gd 0.12971 0.7676 0.52651 0.0
Gd81 Gd 0.1661 0.75545 0.52932 0.0
C82 C 0.148 0.75598 0.77298 0.0
C83 C 0.10088 0.75693 0.5522 0.0
C84 C 0.08424 0.75226 0.56702 0.0
C85 C 0.07363 0.80777 0.57628 0.0
C86 C 0.0788 0.69263 0.5713 0.0
C87 C 0.05236 0.74431 0.59058 0.0
C88 C 0.06296 0.68867 0.58408 0.0
C89 C 0.0578 0.80382 0.58712 0.0
C90 C 0.14207 0.87889 0.50348 0.0
C91 C 0.14746 0.76058 0.28107 0.0
C92 C 0.19406 0.78437 0.52923 0.0
C93 C 0.20973 0.77058 0.47844 0.0
C94 C 0.22251 0.75801 0.55329 0.0
C95 C 0.21233 0.77567 0.35852 0.0
C96 C 0.2402 0.75923 0.39076 0.0
C97 C 0.22747 0.77001 0.31509 0.0
C98 C 0.23761 0.75224 0.50988 0.0
C99 C 0.15656 0.63621 0.51494 0.0
O100 O 0.13566 0.74332 0.71442 0.0
O101 O 0.16053 0.77048 0.71954 0.0
O102 O 0.10717 0.80551 0.59246 0.0
O103 O 0.11032 0.71373 0.49744 0.0
O104 O 0.12936 0.86696 0.45422 0.0
O105 O 0.14711 0.83267 0.56888 0.0
O106 O 0.16057 0.76631 0.33706 0.0
O107 O 0.13425 0.75548 0.33521 0.0
O108 O 0.18944 0.74177 0.5994 0.0
O109 O 0.18294 0.81306 0.46362 0.0
O110 O 0.17097 0.64634 0.51705 0.0
O111 O 0.14855 0.69006 0.51892 0.0
H112 H 0.07754 0.85428 0.57303 0.0
H113 H 0.08678 0.64919 0.56497 0.0
H114 H 0.05893 0.64238 0.5866 0.0
H115 H 0.04976 0.84718 0.59193 0.0
H116 H 0.22081 0.75445 0.64607 0.0
H117 H 0.20271 0.78558 0.29869 0.0
H118 H 0.22927 0.77545 0.22284 0.0
H119 H 0.2473 0.74387 0.56947 0.0
Gd120 Gd 0.90986 0.75801 0.51434 0.0
Gd121 Gd 0.87494 0.76035 0.52484 0.0
C122 C 0.89282 0.75749 0.76745 0.0
C123 C 0.93759 0.78977 0.52279 0.0
C124 C 0.95346 0.77641 0.56898 0.0
C125 C 0.96128 0.71411 0.57339 0.0
C126 C 0.96171 0.82789 0.59094 0.0
C127 C 0.98565 0.75592 0.6063 0.0
C128 C 0.9777 0.81774 0.60955 0.0
C129 C 0.9773 0.70396 0.59197 0.0
C130 C 0.90122 0.63976 0.50812 0.0
C131 C 0.89081 0.76279 0.27223 0.0
C132 C 0.84693 0.73118 0.51808 0.0
C133 C 0.83242 0.73667 0.45002 0.0
C134 C 0.8246 0.79583 0.4171 0.0
C135 C 0.8253 0.68215 0.43022 0.0
C136 C 0.80356 0.74471 0.32896 0.0
C137 C 0.81098 0.68624 0.37374 0.0
C138 C 0.81024 0.79991 0.361 0.0
C139 C 0.88496 0.87749 0.53526 0.0
O140 O 0.90585 0.76059 0.70945 0.0
O141 O 0.87963 0.75278 0.71426 0.0
O142 O 0.93316 0.74871 0.44929 0.0
O143 O 0.92648 0.81496 0.59122 0.0
O144 O 0.91388 0.65507 0.46334 0.0
O145 O 0.89467 0.68604 0.56748 0.0
O146 O 0.87813 0.75655 0.3313 0.0
O147 O 0.90392 0.77148 0.32433 0.0
O148 O 0.85071 0.78299 0.56602 0.0
O149 O 0.85888 0.69361 0.47848 0.0
O150 O 0.87211 0.86375 0.57987 0.0
O151 O 0.89046 0.83092 0.47349 0.0
H152 H 0.95517 0.67363 0.5563 0.0
H153 H 0.95594 0.87627 0.58691 0.0
H154 H 0.984 0.85832 0.62019 0.0
H155 H 0.9833 0.65595 0.58909 0.0
H156 H 0.82931 0.83939 0.4378 0.0
H157 H 0.8306 0.63625 0.46174 0.0
H158 H 0.80567 0.64295 0.36974 0.0
H159 H 0.80438 0.84727 0.34828 0.0
Gd160 Gd 0.66475 0.74444 0.04022 0.0
Gd161 Gd 0.63036 0.76222 0.04904 0.0
C162 C 0.64785 0.75197 0.28991 0.0
C163 C 0.69441 0.74568 0.04524 0.0
C164 C 0.70928 0.7556 0.09837 0.0
C165 C 0.72115 0.76912 1.02401 0.0
C166 C 0.71247 0.74532 0.21703 0.0
C167 C 0.73952 0.758 0.18341 0.0
C168 C 0.72756 0.74684 0.25959 0.0
C169 C 0.73613 0.77017 0.06599 0.0
C170 C 0.65178 0.63534 1.01522 0.0
C171 C 0.64737 0.75567 0.79556 0.0
C172 C 0.60097 0.75253 0.04585 0.0
C173 C 0.58518 0.76318 0.9957 0.0
C174 C 0.57479 0.81586 0.03158 0.0
C175 C 0.57946 0.71482 0.93115 0.0
C176 C 0.5532 0.76798 0.95172 0.0
C177 C 0.56358 0.71734 0.90897 0.0
C178 C 0.55893 0.81819 1.00978 0.0
C179 C 0.64309 0.87268 0.06756 0.0
O180 O 0.66013 0.76505 0.23163 0.0
O181 O 0.63548 0.73738 0.23532 0.0
O182 O 0.68766 0.69728 0.07958 0.0
O183 O 0.68476 0.79483 1.01224 0.0
O184 O 0.6638 0.64865 0.95914 0.0
O185 O 0.64752 0.67914 0.08699 0.0
O186 O 0.63424 0.7551 0.85342 0.0
O187 O 0.66071 0.75732 0.849 0.0
O188 O 0.60683 0.80051 0.09194 0.0
O189 O 0.6114 0.70993 1.00027 0.0
O190 O 0.63071 0.8609 0.12082 0.0
O191 O 0.64752 0.8273 0.99975 0.0
H192 H 0.71895 0.77655 0.93208 0.0
H193 H 0.70345 0.73443 0.27562 0.0
H194 H 0.73 0.73744 0.35059 0.0
H195 H 0.74521 0.77877 1.00604 0.0
H196 H 0.57876 0.85343 0.08295 0.0
H197 H 0.58711 0.67313 0.90393 0.0
H198 H 0.5593 0.67801 0.86461 0.0
H199 H 0.55104 0.85745 0.04377 0.0
Gd200 Gd 0.37456 0.75773 1.00585 0.0
Gd201 Gd 0.40896 0.74427 1.01217 0.0
C202 C 0.3922 0.75286 0.25817 0.0
C203 C 0.34552 0.74286 1.02353 0.0
C204 C 0.33129 0.75217 0.09505 0.0
C205 C 0.3184 0.7929 0.05421 0.0
C206 C 0.32963 0.71523 0.19486 0.0
C207 C 0.30231 0.75699 0.20658 0.0
C208 C 0.31525 0.71777 0.25029 0.0
C209 C 0.30406 0.79541 0.10959 0.0
C210 C 0.38638 0.87044 0.98597 0.0
C211 C 0.39128 0.75128 0.76422 0.0
C212 C 0.43807 0.75207 0.98741 0.0
C213 C 0.4548 0.75582 0.97277 0.0
C214 C 0.46477 0.70246 0.93457 0.0
C215 C 0.46103 0.81221 0.99902 0.0
C216 C 0.48687 0.76105 0.95309 0.0
C217 C 0.47695 0.8148 0.98909 0.0
C218 C 0.48069 0.70502 0.92513 0.0
C219 C 0.39713 0.63272 0.03783 0.0
O220 O 0.37905 0.75231 0.20032 0.0
O221 O 0.40555 0.75424 0.20454 0.0
O222 O 0.35033 0.79298 0.97645 0.0
O223 O 0.35686 0.69998 0.05626 0.0
O224 O 0.37399 0.85723 0.93403 0.0
O225 O 0.39129 0.82519 0.05321 0.0
O226 O 0.4032 0.76725 0.82316 0.0
O227 O 0.37921 0.73382 0.81852 0.0
O228 O 0.43164 0.70285 0.95265 0.0
O229 O 0.42861 0.79733 0.036 0.0
O230 O 0.40931 0.64708 0.09094 0.0
O231 O 0.39228 0.6765 0.96695 0.0
H232 H 0.31927 0.82118 0.97667 0.0
H233 H 0.33928 0.68289 0.22797 0.0
H234 H 0.31409 0.68784 0.32521 0.0
H235 H 0.2942 0.82592 0.07469 0.0
H236 H 0.46031 0.65836 0.91377 0.0
H237 H 0.45363 0.8541 1.02832 0.0
H238 H 0.48159 0.85831 1.01148 0.0
H239 H 0.48822 0.66305 0.89772 0.0
Gd240 Gd 0.62953 0.25349 0.02836 0.0
Gd241 Gd 0.66509 0.25435 0.0364 0.0
C242 C 0.64676 0.25262 0.27945 0.0
C243 C 0.60164 0.22269 0.03518 0.0
C244 C 0.58548 0.23602 0.07721 0.0
C245 C 0.5758 0.29109 0.04216 0.0
C246 C 0.57892 0.18818 0.13714 0.0
C247 C 0.55323 0.24708 0.1156 0.0
C248 C 0.56293 0.19372 0.15645 0.0
C249 C 0.5598 0.29647 0.06112 0.0
C250 C 0.63876 0.37187 1.02445 0.0
C251 C 0.64806 0.25219 0.78528 0.0
C252 C 0.69293 0.28537 1.02449 0.0
C253 C 0.70808 0.27449 0.96393 0.0
C254 C 0.72037 0.23339 1.01292 0.0
C255 C 0.71102 0.31058 0.86562 0.0
C256 C 0.73823 0.26655 0.87012 0.0
C257 C 0.72596 0.30647 0.81896 0.0
C258 C 0.73528 0.22934 0.96624 0.0
C259 C 0.65581 0.13626 0.04519 0.0
O260 O 0.6342 0.24214 0.22125 0.0
O261 O 0.65936 0.26694 0.22661 0.0
O262 O 0.60637 0.2617 0.95896 0.0
O263 O 0.61257 0.19892 0.10697 0.0
O264 O 0.6255 0.35859 0.98656 0.0
O265 O 0.64502 0.32409 0.07994 0.0
O266 O 0.66065 0.2625 0.84303 0.0
O267 O 0.63542 0.23896 0.83871 0.0
O268 O 0.68909 0.23958 0.09045 0.0
O269 O 0.68108 0.3164 0.96982 0.0
O270 O 0.66903 0.15013 0.08282 0.0
O271 O 0.64962 0.18326 0.98693 0.0
H272 H 0.58043 0.32864 0.995 0.0
H273 H 0.58606 0.14491 0.16361 0.0
H274 H 0.55803 0.15498 0.19801 0.0
H275 H 0.55247 0.33787 0.0286 0.0
H276 H 0.71859 0.20578 0.08977 0.0
H277 H 0.7019 0.34343 0.82678 0.0
H278 H 0.72805 0.33567 0.74485 0.0
H279 H 0.74462 0.19839 1.00695 0.0
Gd280 Gd 0.4103 0.25069 1.01982 0.0
Gd281 Gd 0.3747 0.25102 0.02907 0.0
C282 C 0.39344 0.25201 0.272 0.0
C283 C 0.43804 0.28276 1.02394 0.0
C284 C 0.45401 0.27378 0.07024 0.0
C285 C 0.46244 0.21297 0.08257 0.0
C286 C 0.46164 0.32768 0.0858 0.0
C287 C 0.48617 0.26056 0.11288 0.0
C288 C 0.47759 0.32117 0.10688 0.0
C289 C 0.47842 0.20644 0.10402 0.0
C290 C 0.40078 0.13273 1.01616 0.0
C291 C 0.39149 0.2521 0.77709 0.0
C292 C 0.34704 0.21842 1.02114 0.0
C293 C 0.33233 0.22485 0.95655 0.0
C294 C 0.32703 0.27999 0.89296 0.0
C295 C 0.32285 0.1763 0.96657 0.0
C296 C 0.30258 0.23915 0.85647 0.0
C297 C 0.30808 0.1834 0.91702 0.0
C298 C 0.31221 0.28707 0.84307 0.0
C299 C 0.38427 0.36862 0.03501 0.0
O300 O 0.40613 0.26 0.21342 0.0
O301 O 0.38055 0.24037 0.21975 0.0
O302 O 0.43381 0.23795 0.95754 0.0
O303 O 0.42681 0.3107 0.08855 0.0
O304 O 0.41407 0.14558 0.97808 0.0
O305 O 0.39466 0.18079 0.07152 0.0
O306 O 0.37884 0.24317 0.83517 0.0
O307 O 0.4043 0.26404 0.83 0.0
O308 O 0.35053 0.26895 0.07542 0.0
O309 O 0.35904 0.1846 0.97384 0.0
O310 O 0.37113 0.35538 0.07551 0.0
O311 O 0.39026 0.32114 0.97724 0.0
H312 H 0.45684 0.17062 0.07037 0.0
H313 H 0.4554 0.37499 0.07555 0.0
H314 H 0.48337 0.36343 0.11312 0.0
H315 H 0.48487 0.15928 0.10822 0.0
H316 H 0.33417 0.31804 0.88442 0.0
H317 H 0.32672 0.13355 1.01564 0.0
H318 H 0.30078 0.14604 0.92813 0.0
H319 H 0.30811 0.33043 0.79658 0.0
C320 C 0.26773 0.24496 0.65344 0.0
C321 C 0.25542 0.26014 0.73332 0.0
C322 C 0.27412 0.26874 0.8902 0.0
C323 C 0.28638 0.24829 0.81255 0.0
N324 N 0.29507 0.20925 0.62451 0.0
N325 N 0.24656 0.27813 0.92988 0.0
C326 C 0.28325 0.23431 0.69516 0.0
C327 C 0.25852 0.26981 0.8524 0.0
N328 N 0.26461 0.24259 0.5373 0.0
N329 N 0.27741 0.28864 0.99928 0.0
H330 H 0.23498 0.27977 0.90516 0.0
H331 H 0.2481 0.27838 1.01945 0.0
H332 H 0.28868 0.28782 0.03054 0.0
H333 H 0.26908 0.31068 0.05571 0.0
H334 H 0.27312 0.23881 0.47346 0.0
H335 H 0.25339 0.24926 0.50364 0.0
H336 H 0.29338 0.19121 0.54214 0.0
H337 H 0.30661 0.20225 0.65138 0.0
C338 C 0.75908 0.23134 0.72443 0.0
C339 C 0.75434 0.26575 0.82649 0.0
C340 C 0.78074 0.29281 0.85358 0.0
C341 C 0.78517 0.26245 0.74697 0.0
N342 N 0.77809 0.21185 0.57081 0.0
N343 N 0.75978 0.33796 0.97843 0.0
C344 C 0.77419 0.23421 0.67948 0.0
C345 C 0.76494 0.29898 0.88838 0.0
N346 N 0.74928 0.19435 0.67246 0.0
N347 N 0.79173 0.31401 0.92324 0.0
H348 H 0.74832 0.3435 1.00683 0.0
H349 H 0.7665 0.36882 1.01889 0.0
H350 H 0.80338 0.31087 0.90006 0.0
H351 H 0.78958 0.33008 1.00771 0.0
H352 H 0.75262 0.16251 0.60569 0.0
H353 H 0.73807 0.19167 0.70212 0.0
H354 H 0.77014 0.19715 0.51229 0.0
H355 H 0.78905 0.21283 0.53505 0.0
C356 C 0.27813 0.70484 0.23344 0.0
C357 C 0.28669 0.75599 0.25854 0.0
C358 C 0.26443 0.81097 0.36383 0.0
C359 C 0.25628 0.75777 0.34595 0.0
N360 N 0.25618 0.6497 0.28127 0.0
N361 N 0.28916 0.85249 0.36339 0.0
C362 C 0.26337 0.70338 0.28575 0.0
C363 C 0.28017 0.80756 0.32848 0.0
N364 N 0.28384 0.65883 0.15622 0.0
N365 N 0.25695 0.86563 0.41084 0.0
H366 H 0.30071 0.85159 0.33865 0.0
H367 H 0.28563 0.88747 0.42451 0.0
H368 H 0.24544 0.87003 0.43792 0.0
H369 H 0.2617 0.90828 0.41435 0.0
H370 H 0.27742 0.62444 0.12415 0.0
H371 H 0.29464 0.65785 0.11677 0.0
H372 H 0.26147 0.60623 0.24994 0.0
H373 H 0.24533 0.64706 0.31782 0.0
C374 C 0.76294 0.81095 0.22897 0.0
C375 C 0.75593 0.75428 0.22182 0.0
C376 C 0.78166 0.69233 0.23188 0.0
C377 C 0.78817 0.74816 0.26331 0.0
N378 N 0.78644 0.85484 0.18777 0.0
N379 N 0.75871 0.63939 0.2171 0.0
C380 C 0.77931 0.80698 0.23396 0.0
C381 C 0.76532 0.6944 0.22381 0.0
N382 N 0.75402 0.8688 0.2302 0.0
N383 N 0.79105 0.64107 0.18963 0.0
H384 H 0.74682 0.6387 0.20743 0.0
H385 H 0.76499 0.59467 0.23025 0.0
H386 H 0.80279 0.64299 0.17405 0.0
H387 H 0.7869 0.6011 0.15486 0.0
H388 H 0.75867 0.91109 0.24508 0.0
H389 H 0.74195 0.87368 0.22667 0.0
H390 H 0.7804 0.89683 0.15544 0.0
H391 H 0.79813 0.84765 0.16477 0.0
C392 C 0.14344 0.98176 0.61468 0.0
C393 C 0.14633 0.94536 0.51164 0.0
C394 C 0.15301 0.04125 0.41207 0.0
C395 C 0.15196 0.07567 0.51844 0.0
N396 N 0.14867 0.07322 0.72677 0.0
N397 N 0.15615 0.93851 0.31637 0.0
C398 C 0.1478 0.04454 0.62135 0.0
C399 C 0.15177 0.97465 0.41162 0.0
N400 N 0.13593 0.95754 0.70511 0.0
N401 N 0.15443 0.07282 0.30996 0.0
H402 H 0.15541 0.88988 0.31285 0.0
H403 H 0.16182 0.95536 0.2455 0.0
H404 H 0.15461 0.12181 0.30577 0.0
H405 H 0.15368 0.0519 0.22875 0.0
H406 H 0.13188 0.98433 0.77706 0.0
H407 H 0.13243 0.9124 0.70318 0.0
H408 H 0.14755 0.04984 0.80528 0.0
H409 H 0.15194 0.11833 0.73699 0.0
C410 C 0.89486 0.47072 0.41546 0.0
C411 C 0.89061 0.44426 0.52239 0.0
C412 C 0.89622 0.5416 0.62238 0.0
C413 C 0.89795 0.57184 0.51402 0.0
N414 N 0.89967 0.56377 0.30539 0.0
N415 N 0.88556 0.45823 0.72724 0.0
C416 C 0.89759 0.53575 0.4101 0.0
C417 C 0.89091 0.4806 0.62586 0.0
N418 N 0.89691 0.4328 0.31949 0.0
N419 N 0.90082 0.56873 0.72187 0.0
H420 H 0.88152 0.41421 0.7338 0.0
H421 H 0.88387 0.48579 0.80208 0.0
H422 H 0.9057 0.61122 0.72226 0.0
H423 H 0.90137 0.54578 0.80206 0.0
H424 H 0.90184 0.44597 0.24239 0.0
H425 H 0.89494 0.3855 0.31977 0.0
H426 H 0.89767 0.54309 0.22586 0.0
H427 H 0.90257 0.60971 0.29685 0.0
C428 C 0.90075 0.96554 0.46311 0.0
C429 C 0.89059 0.94227 0.5456 0.0
C430 C 0.88654 0.0491 0.63522 0.0
C431 C 0.8954 0.07352 0.54641 0.0
N432 N 0.90996 0.05657 0.36982 0.0
N433 N 0.87979 0.95692 0.73798 0.0
C434 C 0.9022 0.03209 0.45871 0.0
C435 C 0.88504 0.98285 0.63913 0.0
N436 N 0.91024 0.92394 0.39676 0.0
N437 N 0.87922 0.08965 0.71539 0.0
H438 H 0.88031 0.90807 0.75118 0.0
H439 H 0.877 0.98256 0.81365 0.0
H440 H 0.88073 0.1374 0.71947 0.0
H441 H 0.87075 0.07727 0.77173 0.0
H442 H 0.91881 0.93736 0.34266 0.0
H443 H 0.91126 0.87505 0.40745 0.0
H444 H 0.91337 0.03147 0.29462 0.0
H445 H 0.91195 0.10397 0.36725 0.0
C446 C 0.15631 0.52641 0.6046 0.0
C447 C 0.15099 0.57132 0.51645 0.0
C448 C 0.1374 0.4889 0.42244 0.0
C449 C 0.14195 0.44568 0.51429 0.0
N450 N 0.15322 0.42779 0.70415 0.0
N451 N 0.13557 0.59604 0.34471 0.0
C452 C 0.15082 0.46555 0.60796 0.0
C453 C 0.14115 0.55281 0.42705 0.0
N454 N 0.16664 0.54167 0.68611 0.0
N455 N 0.1302 0.46772 0.32719 0.0
H456 H 0.13945 0.64009 0.33692 0.0
H457 H 0.12668 0.58945 0.28723 0.0
H458 H 0.12732 0.42163 0.32059 0.0
H459 H 0.12812 0.49369 0.25087 0.0
H460 H 0.17267 0.50844 0.7416 0.0
H461 H 0.16991 0.58696 0.69466 0.0
H462 H 0.15795 0.44215 0.78131 0.0
H463 H 0.14912 0.38394 0.71101 0.0
C464 C 0.656 0.52589 0.10411 0.0
C465 C 0.64803 0.5688 1.02332 0.0
C466 C 0.63699 0.48036 0.93085 0.0
C467 C 0.64387 0.43746 1.01728 0.0
N468 N 0.66465 0.41696 0.15819 0.0
N469 N 0.62907 0.58922 0.87153 0.0
C470 C 0.65464 0.45942 0.09703 0.0
C471 C 0.63802 0.54661 0.94019 0.0
N472 N 0.66478 0.54895 0.189 0.0
N473 N 0.63074 0.45725 0.83308 0.0
H474 H 0.62981 0.63783 0.87366 0.0
H475 H 0.62003 0.57724 0.82011 0.0
H476 H 0.63121 0.4089 0.81518 0.0
H477 H 0.62705 0.48537 0.76169 0.0
H478 H 0.66906 0.52266 0.261 0.0
H479 H 0.66679 0.59638 0.19299 0.0
H480 H 0.67358 0.42946 0.20995 0.0
H481 H 0.66567 0.36834 0.14556 0.0
C482 C 0.38059 0.98122 0.06978 0.0
C483 C 0.38999 0.93726 0.9989 0.0
C484 C 0.40242 0.0253 0.91924 0.0
C485 C 0.39514 0.06808 1.0039 0.0
N486 N 0.37632 0.08457 0.16019 0.0
N487 N 0.41191 0.91645 0.8715 0.0
C488 C 0.3839 0.04559 0.07907 0.0
C489 C 0.40156 0.95901 0.92888 0.0
N490 N 0.36816 0.96203 0.12607 0.0
N491 N 0.4093 0.04803 0.82402 0.0
H492 H 0.41178 0.86761 0.87786 0.0
H493 H 0.42156 0.92946 0.82854 0.0
H494 H 0.40871 0.09633 0.80494 0.0
H495 H 0.41355 0.01909 0.75521 0.0
H496 H 0.35962 0.99326 0.16642 0.0
H497 H 0.36575 0.91507 0.12591 0.0
H498 H 0.37045 0.06789 0.23024 0.0
H499 H 0.37585 0.13352 0.15904 0.0
C500 C 0.38328 0.47654 0.13146 0.0
C501 C 0.38943 0.43419 0.04182 0.0
C502 C 0.40047 0.52325 0.94837 0.0
C503 C 0.39345 0.5658 0.03341 0.0
N504 N 0.37701 0.58502 0.20022 0.0
N505 N 0.40943 0.41462 0.89571 0.0
C506 C 0.38459 0.54287 0.12351 0.0
C507 C 0.39953 0.45665 0.95816 0.0
N508 N 0.37748 0.45255 0.23013 0.0
N509 N 0.408 0.54661 0.85703 0.0
H510 H 0.41092 0.36613 0.91129 0.0
H511 H 0.41793 0.42794 0.84078 0.0
H512 H 0.40967 0.59425 0.85029 0.0
H513 H 0.41147 0.52005 0.78351 0.0
H514 H 0.37431 0.4795 0.30366 0.0
H515 H 0.37769 0.40407 0.24582 0.0
H516 H 0.36863 0.5735 0.2581 0.0
H517 H 0.37815 0.6333 0.1997 0.0
C518 C 0.65873 0.02711 0.13642 0.0
C519 C 0.65081 0.07052 0.05508 0.0
C520 C 0.63754 0.98221 0.97918 0.0
C521 C 0.64676 0.93903 0.05306 0.0
N522 N 0.66863 0.91808 0.18105 0.0
N523 N 0.62896 0.0914 0.92355 0.0
C524 C 0.6581 0.96085 0.12505 0.0
C525 C 0.63922 0.04869 0.98219 0.0
N526 N 0.66572 0.04926 0.23183 0.0
N527 N 0.62739 0.95905 0.90433 0.0
H528 H 0.62829 0.14009 0.93428 0.0
H529 H 0.61972 0.07962 0.8745 0.0
H530 H 0.62556 0.91136 0.90292 0.0
H531 H 0.62158 0.9852 0.83765 0.0
H532 H 0.67035 0.01982 0.29904 0.0
H533 H 0.66483 0.09729 0.25344 0.0
H534 H 0.67822 0.93104 0.22502 0.0
H535 H 0.66871 0.86913 0.17265 0.0
C536 C 0.1354 0.29427 0.09656 0.0
C537 C 0.14767 0.26048 0.16198 0.0
C538 C 0.16001 0.22008 0.979 0.0
C539 C 0.14847 0.2585 0.91368 0.0
N540 N 0.12715 0.3434 0.91306 0.0
N541 N 0.17284 0.19738 0.16395 0.0
C542 C 0.13666 0.29843 0.97327 0.0
C543 C 0.16037 0.22565 0.10262 0.0
N544 N 0.12246 0.32282 0.15168 0.0
N545 N 0.17018 0.17547 0.924 0.0
H546 H 0.17324 0.1955 0.25416 0.0
H547 H 0.18326 0.17907 0.12531 0.0
H548 H 0.17041 0.1691 0.83447 0.0
H549 H 0.17752 0.14063 0.96767 0.0
H550 H 0.11239 0.34102 0.1079 0.0
H551 H 0.12129 0.32439 0.24155 0.0
H552 H 0.11953 0.37866 0.95291 0.0
H553 H 0.12794 0.35009 0.82381 0.0
C554 C 0.88084 0.30072 0.10258 0.0
C555 C 0.89253 0.25897 0.16073 0.0
C556 C 0.9029 0.21969 0.97197 0.0
C557 C 0.89147 0.26237 0.91389 0.0
N558 N 0.86823 0.33749 0.92223 0.0
N559 N 0.91612 0.18568 0.1507 0.0
C560 C 0.88005 0.30111 0.9788 0.0
C561 C 0.90399 0.22066 0.09533 0.0
N562 N 0.87112 0.34341 0.16564 0.0
N563 N 0.91198 0.17451 0.90946 0.0
H564 H 0.91703 0.18171 0.2404 0.0
H565 H 0.92594 0.16401 0.10823 0.0
H566 H 0.91122 0.17054 0.81978 0.0
H567 H 0.91915 0.13679 0.94648 0.0
H568 H 0.86373 0.38084 0.12984 0.0
H569 H 0.87121 0.34507 0.25568 0.0
H570 H 0.85834 0.35971 0.9629 0.0
H571 H 0.86771 0.34286 0.83251 0.0
C572 C 0.13758 0.80454 0.08687 0.0
C573 C 0.14762 0.75916 0.15105 0.0
C574 C 0.1586 0.71396 0.96756 0.0
C575 C 0.14763 0.75586 0.90333 0.0
N576 N 0.12486 0.83438 0.90461 0.0
N577 N 0.16563 0.66281 0.15219 0.0
C578 C 0.13652 0.79882 0.96388 0.0
C579 C 0.15763 0.71186 0.09128 0.0
N580 N 0.12963 0.85544 0.14259 0.0
N581 N 0.16999 0.67576 0.91067 0.0
H582 H 0.16508 0.65883 0.24221 0.0
H583 H 0.1717 0.62291 0.11316 0.0
H584 H 0.17059 0.67251 0.82067 0.0
H585 H 0.17943 0.65029 0.95253 0.0
H586 H 0.12366 0.89432 0.09947 0.0
H587 H 0.13022 0.86212 0.23183 0.0
H588 H 0.11539 0.86021 0.94525 0.0
H589 H 0.12385 0.83449 0.81474 0.0
C590 C 0.88565 0.71037 0.95814 0.0
C591 C 0.89274 0.75766 0.89704 0.0
C592 C 0.89562 0.81383 0.08109 0.0
C593 C 0.89023 0.76306 0.14286 0.0
N594 N 0.8804 0.66138 0.14109 0.0
N595 N 0.90539 0.85313 0.90219 0.0
C596 C 0.88516 0.71129 0.0816 0.0
C597 C 0.89814 0.80862 0.95919 0.0
N598 N 0.87923 0.66436 0.89849 0.0
N599 N 0.89716 0.86934 0.13787 0.0
H600 H 0.90616 0.856 0.81233 0.0
H601 H 0.91143 0.88572 0.94465 0.0
H602 H 0.89419 0.87645 0.22485 0.0
H603 H 0.89954 0.91075 0.09669 0.0
H604 H 0.87165 0.63581 0.93527 0.0
H605 H 0.88077 0.65604 0.81023 0.0
H606 H 0.87883 0.6181 0.10317 0.0
H607 H 0.87883 0.66091 0.23042 0.0
C608 C 0.64766 0.81188 0.47959 0.0
C609 C 0.64786 0.75312 0.41948 0.0
C610 C 0.64858 0.69611 0.60587 0.0
C611 C 0.64729 0.75502 0.66604 0.0
N612 N 0.64469 0.86942 0.66264 0.0
N613 N 0.64639 0.64015 0.4244 0.0
C614 C 0.64663 0.81307 0.60341 0.0
C615 C 0.64762 0.69555 0.48246 0.0
N616 N 0.64841 0.86661 0.41805 0.0
N617 N 0.65148 0.64041 0.66652 0.0
H618 H 0.64649 0.63673 0.33426 0.0
H619 H 0.64418 0.59834 0.46508 0.0
H620 H 0.65248 0.63896 0.7564 0.0
H621 H 0.65427 0.59603 0.62798 0.0
H622 H 0.65018 0.90982 0.45523 0.0
H623 H 0.6479 0.86842 0.32783 0.0
H624 H 0.64241 0.91389 0.62349 0.0
H625 H 0.64455 0.87174 0.75298 0.0
C626 C 0.40244 0.70903 0.57359 0.0
C627 C 0.39159 0.75242 0.63471 0.0
C628 C 0.38229 0.80067 0.44887 0.0
C629 C 0.39191 0.75268 0.38785 0.0
N630 N 0.40857 0.65258 0.39406 0.0
N631 N 0.36973 0.83498 0.62952 0.0
C632 C 0.40134 0.70464 0.45073 0.0
C633 C 0.381 0.79658 0.57194 0.0
N634 N 0.41388 0.67184 0.63231 0.0
N635 N 0.37502 0.85212 0.3901 0.0
H636 H 0.36886 0.83617 0.71953 0.0
H637 H 0.36059 0.86244 0.58768 0.0
H638 H 0.37609 0.85793 0.30081 0.0
H639 H 0.36921 0.89202 0.43087 0.0
H640 H 0.42312 0.64484 0.5911 0.0
H641 H 0.41494 0.67199 0.72223 0.0
H642 H 0.41419 0.61274 0.43657 0.0
H643 H 0.40748 0.646 0.30522 0.0
C644 C 0.64429 0.19657 0.47153 0.0
C645 C 0.64649 0.25271 0.40915 0.0
C646 C 0.65055 0.3077 0.59297 0.0
C647 C 0.64828 0.25172 0.65556 0.0
N648 N 0.64605 0.13957 0.65534 0.0
N649 N 0.64808 0.36534 0.41028 0.0
C650 C 0.64581 0.19539 0.59502 0.0
C651 C 0.64878 0.30913 0.46986 0.0
N652 N 0.64048 0.14461 0.41289 0.0
N653 N 0.65466 0.35938 0.65084 0.0
H654 H 0.64592 0.36888 0.32138 0.0
H655 H 0.64801 0.4096 0.44946 0.0
H656 H 0.65543 0.36184 0.74081 0.0
H657 H 0.6584 0.39846 0.60988 0.0
H658 H 0.63686 0.10501 0.45282 0.0
H659 H 0.63993 0.1422 0.32279 0.0
H660 H 0.64592 0.09524 0.61695 0.0
H661 H 0.64785 0.13627 0.74471 0.0
C662 C 0.39136 0.19506 0.46202 0.0
C663 C 0.39386 0.25138 0.4017 0.0
C664 C 0.39387 0.30889 0.58724 0.0
C665 C 0.39123 0.2527 0.64747 0.0
N666 N 0.38503 0.14491 0.64226 0.0
N667 N 0.40066 0.35825 0.40748 0.0
C668 C 0.38922 0.19657 0.58478 0.0
C669 C 0.39607 0.30724 0.46453 0.0
N670 N 0.3923 0.13887 0.40255 0.0
N671 N 0.39315 0.36501 0.64676 0.0
H672 H 0.40218 0.35954 0.31797 0.0
H673 H 0.4042 0.39752 0.44909 0.0
H674 H 0.39067 0.36852 0.73513 0.0
H675 H 0.39339 0.40917 0.6077 0.0
H676 H 0.39207 0.09465 0.44135 0.0
H677 H 0.39504 0.13545 0.3146 0.0
H678 H 0.38158 0.10537 0.60099 0.0
H679 H 0.38389 0.14298 0.73207 0.0
C680 C 0.02843 0.22031 0.55103 0.0
C681 C 0.03631 0.24403 0.45595 0.0
C682 C 1.01162 0.26714 0.35087 0.0
C683 C 1.00361 0.2498 0.4509 0.0
N684 N 1.00417 0.21978 0.65323 0.0
N685 N 0.03552 0.29614 0.26985 0.0
C686 C 1.01196 0.22879 0.55281 0.0
C687 C 0.02794 0.26899 0.35678 0.0
N688 N 0.03669 0.18841 0.6388 0.0
N689 N 1.00367 0.2803 0.24954 0.0
H690 H 0.04747 0.29722 0.27055 0.0
H691 H 0.0299 0.3215 0.20128 0.0
H692 H 0.99176 0.27932 0.24248 0.0
H693 H 1.00899 0.28704 0.17048 0.0
H694 H 0.03164 0.16372 0.70366 0.0
H695 H 0.04877 0.18172 0.64143 0.0
H696 H 1.00962 0.21171 0.73335 0.0
H697 H 0.99213 0.22587 0.65911 0.0
C698 C 1.01132 0.74816 0.70927 0.0
C699 C 1.00286 0.74673 0.60424 0.0
C700 C 0.02708 0.73312 0.49302 0.0
C701 C 0.03543 0.74092 0.5968 0.0
N702 N 0.03585 0.75921 0.80307 0.0
N703 N 1.00222 0.74445 0.39494 0.0
C704 C 0.02764 0.74914 0.70498 0.0
C705 C 1.01062 0.74041 0.49577 0.0
N706 N 1.00372 0.74735 0.8129 0.0
N707 N 0.0349 0.71859 0.39175 0.0
H708 H 0.99016 0.74874 0.39279 0.0
H709 H 1.00706 0.74811 0.31311 0.0
H710 H 0.0469 0.71601 0.38464 0.0
H711 H 0.02967 0.70461 0.31636 0.0
H712 H 1.00927 0.7421 0.89298 0.0
H713 H 0.99177 0.74722 0.81853 0.0
H714 H 0.03076 0.77299 0.88221 0.0
H715 H 0.04789 0.757 0.80412 0.0
C716 C 0.52719 0.7903 0.85372 0.0
C717 C 0.53625 0.76473 0.94912 0.0
C718 C 0.51287 0.74011 0.04921 0.0
C719 C 0.5039 0.76222 0.951 0.0
N720 N 0.50237 0.80068 0.75403 0.0
N721 N 0.53834 0.70689 0.13012 0.0
C722 C 0.51102 0.78518 0.85145 0.0
C723 C 0.52926 0.73715 0.04472 0.0
N724 N 0.534 0.82071 0.76679 0.0
N725 N 0.50565 0.72372 0.14812 0.0
H726 H 0.55037 0.70514 0.13191 0.0
H727 H 0.53415 0.67936 0.19481 0.0
H728 H 0.4937 0.72384 0.15407 0.0
H729 H 0.51132 0.71446 0.22709 0.0
H730 H 0.52786 0.84652 0.70104 0.0
H731 H 0.54587 0.8236 0.76434 0.0
H732 H 0.50706 0.81126 0.67445 0.0
H733 H 0.49046 0.79874 0.75038 0.0
C734 C 0.51195 0.23789 1.01343 0.0
C735 C 0.50342 0.25423 0.11638 0.0
C736 C 0.52754 0.26866 0.21872 0.0
C737 C 0.53609 0.24816 0.11796 0.0
N738 N 0.53684 0.20212 0.92638 0.0
N739 N 0.50301 0.27615 0.32142 0.0
C740 C 0.5284 0.22939 1.01741 0.0
C741 C 0.5112 0.26706 0.22047 0.0
N742 N 0.50432 0.23323 0.91048 0.0
N743 N 0.53499 0.29121 0.31145 0.0
H744 H 0.49106 0.2755 0.32538 0.0
H745 H 0.50814 0.27935 0.40252 0.0
H746 H 0.54695 0.29173 0.31375 0.0
H747 H 0.52927 0.31338 0.38258 0.0
H748 H 0.50988 0.22888 0.83045 0.0
H749 H 0.49229 0.23915 0.90327 0.0
H750 H 0.53194 0.1807 0.85654 0.0
H751 H 0.54892 0.19597 0.9249 0.0
loop_
_geom_bond_atom_site_label_1
_geom_bond_atom_site_label_2
_geom_bond_distance
_geom_bond_site_symmetry_2
_ccdc_geom_bond_type
Gd0 C3 2.818 . S
Gd0 O20 2.377 . S
Gd0 O22 2.448 . S
Gd0 O23 2.506 . S
Gd0 O24 2.435 . S
Gd0 O25 2.717 . S
Gd0 O27 2.395 . S
Gd0 O31 2.327 . S
Gd1 C12 2.818 . S
Gd1 O21 2.395 . S
Gd1 O25 2.327 . S
Gd1 O26 2.377 . S
Gd1 O28 2.448 . S
Gd1 O29 2.506 . S
Gd1 O30 2.435 . S
Gd1 O31 2.717 . S
C2 O20 1.240 . S
C2 O21 1.240 . S
C3 Gd0 2.818 . S
C3 C4 1.510 . S
C3 O22 1.249 . S
C3 O23 1.252 . S
C4 C3 1.510 . S
C4 C5 1.404 . S
C4 C6 1.352 . S
C5 C4 1.404 . S
C5 C9 1.389 . S
C5 H32 0.930 . S
C6 C4 1.352 . S
C6 C8 1.374 . S
C6 H33 0.931 . S
C7 C8 1.359 . S
C7 C9 1.364 . S
C8 C6 1.374 . S
C8 C7 1.359 . S
C8 H34 0.931 . S
C9 C5 1.389 . S
C9 C7 1.364 . S
C9 H35 0.931 . S
C10 O24 1.256 . S
C10 O25 1.257 . S
C11 O26 1.240 . S
C11 O27 1.240 . S
C12 Gd1 2.818 . S
C12 C13 1.510 . S
C12 O28 1.249 . S
C12 O29 1.252 . S
C13 C12 1.510 . S
C13 C14 1.404 . S
C13 C15 1.352 . S
C14 C13 1.404 . S
C14 C18 1.389 . S
C14 H36 0.930 . S
C15 C13 1.352 . S
C15 C17 1.374 . S
C15 H37 0.931 . S
C16 C17 1.359 . S
C16 C18 1.364 . S
C17 C15 1.374 . S
C17 C16 1.359 . S
C17 H38 0.931 . S
C18 C14 1.389 . S
C18 C16 1.364 . S
C18 H39 0.931 . S
C19 O30 1.256 . S
C19 O31 1.257 . S
O20 Gd0 2.377 . S
O20 C2 1.240 . S
O21 Gd1 2.395 . S
O21 C2 1.240 . S
O22 Gd0 2.448 . S
O22 C3 1.249 . S
O23 Gd0 2.506 . S
O23 C3 1.252 . S
O24 Gd0 2.435 . S
O24 C10 1.256 . S
O25 Gd0 2.717 . S
O25 Gd1 2.327 . S
O25 C10 1.257 . S
O26 Gd1 2.377 . S
O26 C11 1.240 . S
O27 Gd0 2.395 . S
O27 C11 1.240 . S
O28 Gd1 2.448 . S
O28 C12 1.249 . S
O29 Gd1 2.506 . S
O29 C12 1.252 . S
O30 Gd1 2.435 . S
O30 C19 1.256 . S
O31 Gd0 2.327 . S
O31 Gd1 2.717 . S
O31 C19 1.257 . S
H32 C5 0.930 . S
H33 C6 0.931 . S
H34 C8 0.931 . S
H35 C9 0.931 . S
H36 C14 0.930 . S
H37 C15 0.931 . S
H38 C17 0.931 . S
H39 C18 0.931 . S
Gd40 C43 2.818 . S
Gd40 O60 2.377 . S
Gd40 O62 2.448 . S
Gd40 O63 2.506 . S
Gd40 O64 2.435 . S
Gd40 O65 2.717 . S
Gd40 O67 2.395 . S
Gd40 O71 2.327 . S
Gd41 C52 2.818 . S
Gd41 O61 2.395 . S
Gd41 O65 2.327 . S
Gd41 O66 2.377 . S
Gd41 O68 2.448 . S
Gd41 O69 2.506 . S
Gd41 O70 2.435 . S
Gd41 O71 2.717 . S
C42 O60 1.240 . S
C42 O61 1.240 . S
C43 Gd40 2.818 . S
C43 C44 1.510 . S
C43 O62 1.249 . S
C43 O63 1.252 . S
C44 C43 1.510 . S
C44 C45 1.404 . S
C44 C46 1.352 . S
C45 C44 1.404 . S
C45 C49 1.389 . S
C45 H72 0.930 . S
C46 C44 1.352 . S
C46 C48 1.374 . S
C46 H73 0.931 . S
C47 C48 1.359 . S
C47 C49 1.364 . S
C48 C46 1.374 . S
C48 C47 1.359 . S
C48 H74 0.931 . S
C49 C45 1.389 . S
C49 C47 1.364 . S
C49 H75 0.931 . S
C50 O64 1.256 . S
C50 O65 1.257 . S
C51 O66 1.240 . S
C51 O67 1.240 . S
C52 Gd41 2.818 . S
C52 C53 1.510 . S
C52 O68 1.249 . S
C52 O69 1.252 . S
C53 C52 1.510 . S
C53 C54 1.404 . S
C53 C55 1.352 . S
C54 C53 1.404 . S
C54 C58 1.389 . S
C54 H76 0.930 . S
C55 C53 1.352 . S
C55 C57 1.374 . S
C55 H77 0.931 . S
C56 C57 1.359 . S
C56 C58 1.364 . S
C57 C55 1.374 . S
C57 C56 1.359 . S
C57 H78 0.931 . S
C58 C54 1.389 . S
C58 C56 1.364 . S
C58 H79 0.931 . S
C59 O70 1.256 . S
C59 O71 1.257 . S
O60 Gd40 2.377 . S
O60 C42 1.240 . S
O61 Gd41 2.395 . S
O61 C42 1.240 . S
O62 Gd40 2.448 . S
O62 C43 1.249 . S
O63 Gd40 2.506 . S
O63 C43 1.252 . S
O64 Gd40 2.435 . S
O64 C50 1.256 . S
O65 Gd40 2.717 . S
O65 Gd41 2.327 . S
O65 C50 1.257 . S
O66 Gd41 2.377 . S
O66 C51 1.240 . S
O67 Gd40 2.395 . S
O67 C51 1.240 . S
O68 Gd41 2.448 . S
O68 C52 1.249 . S
O69 Gd41 2.506 . S
O69 C52 1.252 . S
O70 Gd41 2.435 . S
O70 C59 1.256 . S
O71 Gd40 2.327 . S
O71 Gd41 2.717 . S
O71 C59 1.257 . S
H72 C45 0.930 . S
H73 C46 0.931 . S
H74 C48 0.931 . S
H75 C49 0.931 . S
H76 C54 0.930 . S
H77 C55 0.931 . S
H78 C57 0.931 . S
H79 C58 0.931 . S
Gd80 C83 2.818 . S
Gd80 O100 2.377 . S
Gd80 O102 2.448 . S
Gd80 O103 2.506 . S
Gd80 O104 2.435 . S
Gd80 O105 2.717 . S
Gd80 O107 2.395 . S
Gd80 O111 2.327 . S
Gd81 C92 2.818 . S
Gd81 O101 2.395 . S
Gd81 O105 2.327 . S
Gd81 O106 2.377 . S
Gd81 O108 2.448 . S
Gd81 O109 2.506 . S
Gd81 O110 2.435 . S
Gd81 O111 2.717 . S
C82 O100 1.240 . S
C82 O101 1.240 . S
C83 Gd80 2.818 . S
C83 C84 1.510 . S
C83 O102 1.249 . S
C83 O103 1.252 . S
C84 C83 1.510 . S
C84 C85 1.404 . S
C84 C86 1.352 . S
C85 C84 1.404 . S
C85 C89 1.389 . S
C85 H112 0.930 . S
C86 C84 1.352 . S
C86 C88 1.374 . S
C86 H113 0.931 . S
C87 C88 1.359 . S
C87 C89 1.364 . S
C88 C86 1.374 . S
C88 C87 1.359 . S
C88 H114 0.931 . S
C89 C85 1.389 . S
C89 C87 1.364 . S
C89 H115 0.931 . S
C90 O104 1.256 . S
C90 O105 1.257 . S
C91 O106 1.240 . S
C91 O107 1.240 . S
C92 Gd81 2.818 . S
C92 C93 1.510 . S
C92 O108 1.249 . S
C92 O109 1.252 . S
C93 C92 1.510 . S
C93 C94 1.404 . S
C93 C95 1.352 . S
C94 C93 1.404 . S
C94 C98 1.389 . S
C94 H116 0.930 . S
C95 C93 1.352 . S
C95 C97 1.374 . S
C95 H117 0.931 . S
C96 C97 1.359 . S
C96 C98 1.364 . S
C97 C95 1.374 . S
C97 C96 1.359 . S
C97 H118 0.931 . S
C98 C94 1.389 . S
C98 C96 1.364 . S
C98 H119 0.931 . S
C99 O110 1.256 . S
C99 O111 1.257 . S
O100 Gd80 2.377 . S
O100 C82 1.240 . S
O101 Gd81 2.395 . S
O101 C82 1.240 . S
O102 Gd80 2.448 . S
O102 C83 1.249 . S
O103 Gd80 2.506 . S
O103 C83 1.252 . S
O104 Gd80 2.435 . S
O104 C90 1.256 . S
O105 Gd80 2.717 . S
O105 Gd81 2.327 . S
O105 C90 1.257 . S
O106 Gd81 2.377 . S
O106 C91 1.240 . S
O107 Gd80 2.395 . S
O107 C91 1.240 . S
O108 Gd81 2.448 . S
O108 C92 1.249 . S
O109 Gd81 2.506 . S
O109 C92 1.252 . S
O110 Gd81 2.435 . S
O110 C99 1.256 . S
O111 Gd80 2.327 . S
O111 Gd81 2.717 . S
O111 C99 1.257 . S
H112 C85 0.930 . S
H113 C86 0.931 . S
H114 C88 0.931 . S
H115 C89 0.931 . S
H116 C94 0.930 . S
H117 C95 0.931 . S
H118 C97 0.931 . S
H119 C98 0.931 . S
Gd120 C123 2.818 . S
Gd120 O140 2.377 . S
Gd120 O142 2.448 . S
Gd120 O143 2.506 . S
Gd120 O144 2.435 . S
Gd120 O145 2.717 . S
Gd120 O147 2.395 . S
Gd120 O151 2.327 . S
Gd121 C132 2.818 . S
Gd121 O141 2.395 . S
Gd121 O145 2.327 . S
Gd121 O146 2.377 . S
Gd121 O148 2.448 . S
Gd121 O149 2.506 . S
Gd121 O150 2.435 . S
Gd121 O151 2.717 . S
C122 O140 1.240 . S
C122 O141 1.240 . S
C123 Gd120 2.818 . S
C123 C124 1.510 . S
C123 O142 1.249 . S
C123 O143 1.252 . S
C124 C123 1.510 . S
C124 C125 1.404 . S
C124 C126 1.352 . S
C125 C124 1.404 . S
C125 C129 1.389 . S
C125 H152 0.930 . S
C126 C124 1.352 . S
C126 C128 1.374 . S
C126 H153 0.931 . S
C127 C128 1.359 . S
C127 C129 1.364 . S
C128 C126 1.374 . S
C128 C127 1.359 . S
C128 H154 0.931 . S
C129 C125 1.389 . S
C129 C127 1.364 . S
C129 H155 0.931 . S
C130 O144 1.256 . S
C130 O145 1.257 . S
C131 O146 1.240 . S
C131 O147 1.240 . S
C132 Gd121 2.818 . S
C132 C133 1.510 . S
C132 O148 1.249 . S
C132 O149 1.252 . S
C133 C132 1.510 . S
C133 C134 1.404 . S
C133 C135 1.352 . S
C134 C133 1.404 . S
C134 C138 1.389 . S
C134 H156 0.930 . S
C135 C133 1.352 . S
C135 C137 1.374 . S
C135 H157 0.931 . S
C136 C137 1.359 . S
C136 C138 1.364 . S
C137 C135 1.374 . S
C137 C136 1.359 . S
C137 H158 0.931 . S
C138 C134 1.389 . S
C138 C136 1.364 . S
C138 H159 0.931 . S
C139 O150 1.256 . S
C139 O151 1.257 . S
O140 Gd120 2.377 . S
O140 C122 1.240 . S
O141 Gd121 2.395 . S
O141 C122 1.240 . S
O142 Gd120 2.448 . S
O142 C123 1.249 . S
O143 Gd120 2.506 . S
O143 C123 1.252 . S
O144 Gd120 2.435 . S
O144 C130 1.256 . S
O145 Gd120 2.717 . S
O145 Gd121 2.327 . S
O145 C130 1.257 . S
O146 Gd121 2.377 . S
O146 C131 1.240 . S
O147 Gd120 2.395 . S
O147 C131 1.240 . S
O148 Gd121 2.448 . S
O148 C132 1.249 . S
O149 Gd121 2.506 . S
O149 C132 1.252 . S
O150 Gd121 2.435 . S
O150 C139 1.256 . S
O151 Gd120 2.327 . S
O151 Gd121 2.717 . S
O151 C139 1.257 . S
H152 C125 0.930 . S
H153 C126 0.931 . S
H154 C128 0.931 . S
H155 C129 0.931 . S
H156 C134 0.930 . S
H157 C135 0.931 . S
H158 C137 0.931 . S
H159 C138 0.931 . S
Gd160 C163 2.818 1_556 S
Gd160 O180 2.377 1_556 S
Gd160 O182 2.448 1_556 S
Gd160 O183 2.506 1_556 S
Gd160 O184 2.435 . S
Gd160 O185 2.717 . S
Gd160 O187 2.395 . S
Gd160 O191 2.327 1_556 S
Gd161 C172 2.818 1_554 S
Gd161 O181 2.395 . S
Gd161 O185 2.327 1_554 S
Gd161 O186 2.377 1_554 S
Gd161 O188 2.448 1_554 S
Gd161 O189 2.506 1_554 S
Gd161 O190 2.435 . S
Gd161 O191 2.717 . S
C162 O180 1.240 . S
C162 O181 1.240 . S
C163 Gd160 2.818 1_554 S
C163 C164 1.510 . S
C163 O182 1.249 . S
C163 O183 1.252 . S
C164 C163 1.510 . S
C164 C165 1.404 . S
C164 C166 1.352 . S
C165 C164 1.404 . S
C165 C169 1.389 . S
C165 H192 0.930 . S
C166 C164 1.352 . S
C166 C168 1.374 . S
C166 H193 0.931 . S
C167 C168 1.359 . S
C167 C169 1.364 . S
C168 C166 1.374 . S
C168 C167 1.359 . S
C168 H194 0.931 . S
C169 C165 1.389 . S
C169 C167 1.364 . S
C169 H195 0.931 . S
C170 O184 1.256 . S
C170 O185 1.257 . S
C171 O186 1.240 . S
C171 O187 1.240 . S
C172 Gd161 2.818 1_556 S
C172 C173 1.510 . S
C172 O188 1.249 . S
C172 O189 1.252 . S
C173 C172 1.510 . S
C173 C174 1.404 . S
C173 C175 1.352 . S
C174 C173 1.404 . S
C174 C178 1.389 . S
C174 H196 0.930 . S
C175 C173 1.352 . S
C175 C177 1.374 . S
C175 H197 0.931 . S
C176 C177 1.359 . S
C176 C178 1.364 . S
C177 C175 1.374 . S
C177 C176 1.359 . S
C177 H198 0.931 . S
C178 C174 1.389 . S
C178 C176 1.364 . S
C178 H199 0.931 . S
C179 O190 1.256 . S
C179 O191 1.257 . S
O180 Gd160 2.377 1_554 S
O180 C162 1.240 . S
O181 Gd161 2.395 . S
O181 C162 1.240 . S
O182 Gd160 2.448 1_554 S
O182 C163 1.249 . S
O183 Gd160 2.506 1_554 S
O183 C163 1.252 . S
O184 Gd160 2.435 . S
O184 C170 1.256 . S
O185 Gd160 2.717 . S
O185 Gd161 2.327 1_556 S
O185 C170 1.257 . S
O186 Gd161 2.377 1_556 S
O186 C171 1.240 . S
O187 Gd160 2.395 . S
O187 C171 1.240 . S
O188 Gd161 2.448 1_556 S
O188 C172 1.249 . S
O189 Gd161 2.506 1_556 S
O189 C172 1.252 . S
O190 Gd161 2.435 . S
O190 C179 1.256 . S
O191 Gd160 2.327 1_554 S
O191 Gd161 2.717 . S
O191 C179 1.257 . S
H192 C165 0.930 . S
H193 C166 0.931 . S
H194 C168 0.931 . S
H195 C169 0.931 . S
H196 C174 0.930 . S
H197 C175 0.931 . S
H198 C177 0.931 . S
H199 C178 0.931 . S
Gd200 C203 2.818 1_556 S
Gd200 O220 2.377 1_556 S
Gd200 O222 2.448 1_556 S
Gd200 O223 2.506 1_556 S
Gd200 O224 2.435 . S
Gd200 O225 2.717 . S
Gd200 O227 2.395 . S
Gd200 O231 2.327 1_556 S
Gd201 C212 2.818 1_554 S
Gd201 O221 2.395 . S
Gd201 O225 2.327 1_554 S
Gd201 O226 2.377 1_554 S
Gd201 O228 2.448 1_554 S
Gd201 O229 2.506 1_554 S
Gd201 O230 2.435 . S
Gd201 O231 2.717 . S
C202 O220 1.240 . S
C202 O221 1.240 . S
C203 Gd200 2.818 1_554 S
C203 C204 1.510 . S
C203 O222 1.249 . S
C203 O223 1.252 . S
C204 C203 1.510 . S
C204 C205 1.404 . S
C204 C206 1.352 . S
C205 C204 1.404 . S
C205 C209 1.389 . S
C205 H232 0.930 . S
C206 C204 1.352 . S
C206 C208 1.374 . S
C206 H233 0.931 . S
C207 C208 1.359 . S
C207 C209 1.364 . S
C208 C206 1.374 . S
C208 C207 1.359 . S
C208 H234 0.931 . S
C209 C205 1.389 . S
C209 C207 1.364 . S
C209 H235 0.931 . S
C210 O224 1.256 . S
C210 O225 1.257 . S
C211 O226 1.240 . S
C211 O227 1.240 . S
C212 Gd201 2.818 1_556 S
C212 C213 1.510 . S
C212 O228 1.249 . S
C212 O229 1.252 . S
C213 C212 1.510 . S
C213 C214 1.404 . S
C213 C215 1.352 . S
C214 C213 1.404 . S
C214 C218 1.389 . S
C214 H236 0.930 . S
C215 C213 1.352 . S
C215 C217 1.374 . S
C215 H237 0.931 . S
C216 C217 1.359 . S
C216 C218 1.364 . S
C217 C215 1.374 . S
C217 C216 1.359 . S
C217 H238 0.931 . S
C218 C214 1.389 . S
C218 C216 1.364 . S
C218 H239 0.931 . S
C219 O230 1.256 . S
C219 O231 1.257 . S
O220 Gd200 2.377 1_554 S
O220 C202 1.240 . S
O221 Gd201 2.395 . S
O221 C202 1.240 . S
O222 Gd200 2.448 1_554 S
O222 C203 1.249 . S
O223 Gd200 2.506 1_554 S
O223 C203 1.252 . S
O224 Gd200 2.435 . S
O224 C210 1.256 . S
O225 Gd200 2.717 . S
O225 Gd201 2.327 1_556 S
O225 C210 1.257 . S
O226 Gd201 2.377 1_556 S
O226 C211 1.240 . S
O227 Gd200 2.395 . S
O227 C211 1.240 . S
O228 Gd201 2.448 1_556 S
O228 C212 1.249 . S
O229 Gd201 2.506 1_556 S
O229 C212 1.252 . S
O230 Gd201 2.435 . S
O230 C219 1.256 . S
O231 Gd200 2.327 1_554 S
O231 Gd201 2.717 . S
O231 C219 1.257 . S
H232 C205 0.930 . S
H233 C206 0.931 . S
H234 C208 0.931 . S
H235 C209 0.931 . S
H236 C214 0.930 . S
H237 C215 0.931 . S
H238 C217 0.931 . S
H239 C218 0.931 . S
Gd240 C243 2.818 1_556 S
Gd240 O260 2.377 1_556 S
Gd240 O262 2.448 1_556 S
Gd240 O263 2.506 1_556 S
Gd240 O264 2.435 . S
Gd240 O265 2.717 . S
Gd240 O267 2.395 . S
Gd240 O271 2.327 1_556 S
Gd241 C252 2.818 1_554 S
Gd241 O261 2.395 . S
Gd241 O265 2.327 1_554 S
Gd241 O266 2.377 1_554 S
Gd241 O268 2.448 1_554 S
Gd241 O269 2.506 1_554 S
Gd241 O270 2.435 . S
Gd241 O271 2.717 . S
C242 O260 1.240 . S
C242 O261 1.240 . S
C243 Gd240 2.818 1_554 S
C243 C244 1.510 . S
C243 O262 1.249 . S
C243 O263 1.252 . S
C244 C243 1.510 . S
C244 C245 1.404 . S
C244 C246 1.352 . S
C245 C244 1.404 . S
C245 C249 1.389 . S
C245 H272 0.930 . S
C246 C244 1.352 . S
C246 C248 1.374 . S
C246 H273 0.931 . S
C247 C248 1.359 . S
C247 C249 1.364 . S
C248 C246 1.374 . S
C248 C247 1.359 . S
C248 H274 0.931 . S
C249 C245 1.389 . S
C249 C247 1.364 . S
C249 H275 0.931 . S
C250 O264 1.256 . S
C250 O265 1.257 . S
C251 O266 1.240 . S
C251 O267 1.240 . S
C252 Gd241 2.818 1_556 S
C252 C253 1.510 . S
C252 O268 1.249 . S
C252 O269 1.252 . S
C253 C252 1.510 . S
C253 C254 1.404 . S
C253 C255 1.352 . S
C254 C253 1.404 . S
C254 C258 1.389 . S
C254 H276 0.930 . S
C255 C253 1.352 . S
C255 C257 1.374 . S
C255 H277 0.931 . S
C256 C257 1.359 . S
C256 C258 1.364 . S
C257 C255 1.374 . S
C257 C256 1.359 . S
C257 H278 0.931 . S
C258 C254 1.389 . S
C258 C256 1.364 . S
C258 H279 0.931 . S
C259 O270 1.256 . S
C259 O271 1.257 . S
O260 Gd240 2.377 1_554 S
O260 C242 1.240 . S
O261 Gd241 2.395 . S
O261 C242 1.240 . S
O262 Gd240 2.448 1_554 S
O262 C243 1.249 . S
O263 Gd240 2.506 1_554 S
O263 C243 1.252 . S
O264 Gd240 2.435 . S
O264 C250 1.256 . S
O265 Gd240 2.717 . S
O265 Gd241 2.327 1_556 S
O265 C250 1.257 . S
O266 Gd241 2.377 1_556 S
O266 C251 1.240 . S
O267 Gd240 2.395 . S
O267 C251 1.240 . S
O268 Gd241 2.448 1_556 S
O268 C252 1.249 . S
O269 Gd241 2.506 1_556 S
O269 C252 1.252 . S
O270 Gd241 2.435 . S
O270 C259 1.256 . S
O271 Gd240 2.327 1_554 S
O271 Gd241 2.717 . S
O271 C259 1.257 . S
H272 C245 0.930 . S
H273 C246 0.931 . S
H274 C248 0.931 . S
H275 C249 0.931 . S
H276 C254 0.930 . S
H277 C255 0.931 . S
H278 C257 0.931 . S
H279 C258 0.931 . S
Gd280 C283 2.818 1_556 S
Gd280 O300 2.377 1_556 S
Gd280 O302 2.448 1_556 S
Gd280 O303 2.506 1_556 S
Gd280 O304 2.435 . S
Gd280 O305 2.717 . S
Gd280 O307 2.395 . S
Gd280 O311 2.327 1_556 S
Gd281 C292 2.818 1_554 S
Gd281 O301 2.395 . S
Gd281 O305 2.327 1_554 S
Gd281 O306 2.377 1_554 S
Gd281 O308 2.448 1_554 S
Gd281 O309 2.506 1_554 S
Gd281 O310 2.435 . S
Gd281 O311 2.717 . S
C282 O300 1.240 . S
C282 O301 1.240 . S
C283 Gd280 2.818 1_554 S
C283 C284 1.510 . S
C283 O302 1.249 . S
C283 O303 1.252 . S
C284 C283 1.510 . S
C284 C285 1.404 . S
C284 C286 1.352 . S
C285 C284 1.404 . S
C285 C289 1.389 . S
C285 H312 0.930 . S
C286 C284 1.352 . S
C286 C288 1.374 . S
C286 H313 0.931 . S
C287 C288 1.359 . S
C287 C289 1.364 . S
C288 C286 1.374 . S
C288 C287 1.359 . S
C288 H314 0.931 . S
C289 C285 1.389 . S
C289 C287 1.364 . S
C289 H315 0.931 . S
C290 O304 1.256 . S
C290 O305 1.257 . S
C291 O306 1.240 . S
C291 O307 1.240 . S
C292 Gd281 2.818 1_556 S
C292 C293 1.510 . S
C292 O308 1.249 . S
C292 O309 1.252 . S
C293 C292 1.510 . S
C293 C294 1.404 . S
C293 C295 1.352 . S
C294 C293 1.404 . S
C294 C298 1.389 . S
C294 H316 0.930 . S
C295 C293 1.352 . S
C295 C297 1.374 . S
C295 H317 0.931 . S
C296 C297 1.359 . S
C296 C298 1.364 . S
C297 C295 1.374 . S
C297 C296 1.359 . S
C297 H318 0.931 . S
C298 C294 1.389 . S
C298 C296 1.364 . S
C298 H319 0.931 . S
C299 O310 1.256 . S
C299 O311 1.257 . S
O300 Gd280 2.377 1_554 S
O300 C282 1.240 . S
O301 Gd281 2.395 . S
O301 C282 1.240 . S
O302 Gd280 2.448 1_554 S
O302 C283 1.249 . S
O303 Gd280 2.506 1_554 S
O303 C283 1.252 . S
O304 Gd280 2.435 . S
O304 C290 1.256 . S
O305 Gd280 2.717 . S
O305 Gd281 2.327 1_556 S
O305 C290 1.257 . S
O306 Gd281 2.377 1_556 S
O306 C291 1.240 . S
O307 Gd280 2.395 . S
O307 C291 1.240 . S
O308 Gd281 2.448 1_556 S
O308 C292 1.249 . S
O309 Gd281 2.506 1_556 S
O309 C292 1.252 . S
O310 Gd281 2.435 . S
O310 C299 1.256 . S
O311 Gd280 2.327 1_554 S
O311 Gd281 2.717 . S
O311 C299 1.257 . S
H312 C285 0.930 . S
H313 C286 0.931 . S
H314 C288 0.931 . S
H315 C289 0.931 . S
H316 C294 0.930 . S
H317 C295 0.931 . S
H318 C297 0.931 . S
H319 C298 0.931 . S
C320 C321 1.363 . S
C320 C326 1.379 . S
C320 N328 1.356 . S
C321 C320 1.363 . S
C321 C327 1.363 . S
C322 C323 1.363 . S
C322 C327 1.379 . S
C322 N329 1.356 . S
C323 C322 1.363 . S
C323 C326 1.363 . S
N324 C326 1.356 . S
N324 H336 0.984 . S
N324 H337 0.985 . S
N325 C327 1.356 . S
N325 H330 0.984 . S
N325 H331 0.985 . S
C326 C320 1.379 . S
C326 C323 1.363 . S
C326 N324 1.356 . S
C327 C321 1.363 . S
C327 C322 1.379 . S
C327 N325 1.356 . S
N328 C320 1.356 . S
N328 H334 0.984 . S
N328 H335 0.984 . S
N329 C322 1.356 . S
N329 H332 0.984 . S
N329 H333 0.985 . S
H330 N325 0.984 . S
H331 N325 0.985 . S
H332 N329 0.984 . S
H333 N329 0.985 . S
H334 N328 0.984 . S
H335 N328 0.984 . S
H336 N324 0.984 . S
H337 N324 0.985 . S
C338 C339 1.363 . S
C338 C344 1.379 . S
C338 N346 1.356 . S
C339 C338 1.363 . S
C339 C345 1.363 . S
C340 C341 1.363 . S
C340 C345 1.379 . S
C340 N347 1.356 . S
C341 C340 1.363 . S
C341 C344 1.363 . S
N342 C344 1.356 . S
N342 H354 0.984 . S
N342 H355 0.985 . S
N343 C345 1.356 . S
N343 H348 0.984 . S
N343 H349 0.985 . S
C344 C338 1.379 . S
C344 C341 1.363 . S
C344 N342 1.356 . S
C345 C339 1.363 . S
C345 C340 1.379 . S
C345 N343 1.356 . S
N346 C338 1.356 . S
N346 H352 0.984 . S
N346 H353 0.984 . S
N347 C340 1.356 . S
N347 H350 0.984 . S
N347 H351 0.985 . S
H348 N343 0.984 . S
H349 N343 0.985 . S
H350 N347 0.984 . S
H351 N347 0.985 . S
H352 N346 0.984 . S
H353 N346 0.984 . S
H354 N342 0.984 . S
H355 N342 0.985 . S
C356 C357 1.363 . S
C356 C362 1.379 . S
C356 N364 1.356 . S
C357 C356 1.363 . S
C357 C363 1.363 . S
C358 C359 1.363 . S
C358 C363 1.379 . S
C358 N365 1.356 . S
C359 C358 1.363 . S
C359 C362 1.363 . S
N360 C362 1.356 . S
N360 H372 0.984 . S
N360 H373 0.985 . S
N361 C363 1.356 . S
N361 H366 0.984 . S
N361 H367 0.985 . S
C362 C356 1.379 . S
C362 C359 1.363 . S
C362 N360 1.356 . S
C363 C357 1.363 . S
C363 C358 1.379 . S
C363 N361 1.356 . S
N364 C356 1.356 . S
N364 H370 0.984 . S
N364 H371 0.984 . S
N365 C358 1.356 . S
N365 H368 0.984 . S
N365 H369 0.985 . S
H366 N361 0.984 . S
H367 N361 0.985 . S
H368 N365 0.984 . S
H369 N365 0.985 . S
H370 N364 0.984 . S
H371 N364 0.984 . S
H372 N360 0.984 . S
H373 N360 0.985 . S
C374 C375 1.363 . S
C374 C380 1.379 . S
C374 N382 1.356 . S
C375 C374 1.363 . S
C375 C381 1.363 . S
C376 C377 1.363 . S
C376 C381 1.379 . S
C376 N383 1.356 . S
C377 C376 1.363 . S
C377 C380 1.363 . S
N378 C380 1.356 . S
N378 H390 0.984 . S
N378 H391 0.985 . S
N379 C381 1.356 . S
N379 H384 0.984 . S
N379 H385 0.985 . S
C380 C374 1.379 . S
C380 C377 1.363 . S
C380 N378 1.356 . S
C381 C375 1.363 . S
C381 C376 1.379 . S
C381 N379 1.356 . S
N382 C374 1.356 . S
N382 H388 0.984 . S
N382 H389 0.984 . S
N383 C376 1.356 . S
N383 H386 0.984 . S
N383 H387 0.985 . S
H384 N379 0.984 . S
H385 N379 0.985 . S
H386 N383 0.984 . S
H387 N383 0.985 . S
H388 N382 0.984 . S
H389 N382 0.984 . S
H390 N378 0.984 . S
H391 N378 0.985 . S
C392 C393 1.363 . S
C392 C398 1.379 1_565 S
C392 N400 1.356 . S
C393 C392 1.363 . S
C393 C399 1.363 . S
C394 C395 1.363 . S
C394 C399 1.379 1_545 S
C394 N401 1.356 . S
C395 C394 1.363 . S
C395 C398 1.363 . S
N396 C398 1.356 . S
N396 H408 0.984 . S
N396 H409 0.985 . S
N397 C399 1.356 . S
N397 H402 0.984 . S
N397 H403 0.985 . S
C398 C392 1.379 1_545 S
C398 C395 1.363 . S
C398 N396 1.356 . S
C399 C393 1.363 . S
C399 C394 1.379 1_565 S
C399 N397 1.356 . S
N400 C392 1.356 . S
N400 H406 0.984 1_565 S
N400 H407 0.984 . S
N401 C394 1.356 . S
N401 H404 0.984 . S
N401 H405 0.985 1_545 S
H402 N397 0.984 . S
H403 N397 0.985 . S
H404 N401 0.984 . S
H405 N401 0.985 1_565 S
H406 N400 0.984 1_545 S
H407 N400 0.984 . S
H408 N396 0.984 . S
H409 N396 0.985 . S
C410 C411 1.363 . S
C410 C416 1.379 . S
C410 N418 1.356 . S
C411 C410 1.363 . S
C411 C417 1.363 . S
C412 C413 1.363 . S
C412 C417 1.379 . S
C412 N419 1.356 . S
C413 C412 1.363 . S
C413 C416 1.363 . S
N414 C416 1.356 . S
N414 H426 0.984 . S
N414 H427 0.985 . S
N415 C417 1.356 . S
N415 H420 0.984 . S
N415 H421 0.985 . S
C416 C410 1.379 . S
C416 C413 1.363 . S
C416 N414 1.356 . S
C417 C411 1.363 . S
C417 C412 1.379 . S
C417 N415 1.356 . S
N418 C410 1.356 . S
N418 H424 0.984 . S
N418 H425 0.984 . S
N419 C412 1.356 . S
N419 H422 0.984 . S
N419 H423 0.985 . S
H420 N415 0.984 . S
H421 N415 0.985 . S
H422 N419 0.984 . S
H423 N419 0.985 . S
H424 N418 0.984 . S
H425 N418 0.984 . S
H426 N414 0.984 . S
H427 N414 0.985 . S
C428 C429 1.363 . S
C428 C434 1.379 1_565 S
C428 N436 1.356 . S
C429 C428 1.363 . S
C429 C435 1.363 . S
C430 C431 1.363 . S
C430 C435 1.379 1_545 S
C430 N437 1.356 . S
C431 C430 1.363 . S
C431 C434 1.363 . S
N432 C434 1.356 . S
N432 H444 0.984 . S
N432 H445 0.985 . S
N433 C435 1.356 . S
N433 H438 0.984 . S
N433 H439 0.984 1_565 S
C434 C428 1.379 1_545 S
C434 C431 1.363 . S
C434 N432 1.356 . S
C435 C429 1.363 . S
C435 C430 1.379 1_565 S
C435 N433 1.356 . S
N436 C428 1.356 . S
N436 H442 0.984 . S
N436 H443 0.984 . S
N437 C430 1.356 . S
N437 H440 0.984 . S
N437 H441 0.985 . S
H438 N433 0.984 . S
H439 N433 0.984 1_545 S
H440 N437 0.984 . S
H441 N437 0.985 . S
H442 N436 0.984 . S
H443 N436 0.984 . S
H444 N432 0.984 . S
H445 N432 0.985 . S
C446 C447 1.363 . S
C446 C452 1.379 . S
C446 N454 1.356 . S
C447 C446 1.363 . S
C447 C453 1.363 . S
C448 C449 1.363 . S
C448 C453 1.379 . S
C448 N455 1.356 . S
C449 C448 1.363 . S
C449 C452 1.363 . S
N450 C452 1.356 . S
N450 H462 0.984 . S
N450 H463 0.985 . S
N451 C453 1.356 . S
N451 H456 0.984 . S
N451 H457 0.985 . S
C452 C446 1.379 . S
C452 C449 1.363 . S
C452 N450 1.356 . S
C453 C447 1.363 . S
C453 C448 1.379 . S
C453 N451 1.356 . S
N454 C446 1.356 . S
N454 H460 0.984 . S
N454 H461 0.984 . S
N455 C448 1.356 . S
N455 H458 0.984 . S
N455 H459 0.985 . S
H456 N451 0.984 . S
H457 N451 0.985 . S
H458 N455 0.984 . S
H459 N455 0.985 . S
H460 N454 0.984 . S
H461 N454 0.984 . S
H462 N450 0.984 . S
H463 N450 0.985 . S
C464 C465 1.363 1_554 S
C464 C470 1.379 . S
C464 N472 1.356 . S
C465 C464 1.363 1_556 S
C465 C471 1.363 . S
C466 C467 1.363 . S
C466 C471 1.379 . S
C466 N473 1.356 . S
C467 C466 1.363 . S
C467 C470 1.363 1_556 S
N468 C470 1.356 . S
N468 H480 0.984 . S
N468 H481 0.985 . S
N469 C471 1.356 . S
N469 H474 0.984 . S
N469 H475 0.985 . S
C470 C464 1.379 . S
C470 C467 1.363 1_554 S
C470 N468 1.356 . S
C471 C465 1.363 . S
C471 C466 1.379 . S
C471 N469 1.356 . S
N472 C464 1.356 . S
N472 H478 0.984 . S
N472 H479 0.984 . S
N473 C466 1.356 . S
N473 H476 0.984 . S
N473 H477 0.985 . S
H474 N469 0.984 . S
H475 N469 0.985 . S
H476 N473 0.984 . S
H477 N473 0.985 . S
H478 N472 0.984 . S
H479 N472 0.984 . S
H480 N468 0.984 . S
H481 N468 0.985 . S
C482 C483 1.363 1_554 S
C482 C488 1.379 1_565 S
C482 N490 1.356 . S
C483 C482 1.363 1_556 S
C483 C489 1.363 . S
C484 C485 1.363 . S
C484 C489 1.379 1_545 S
C484 N491 1.356 . S
C485 C484 1.363 . S
C485 C488 1.363 1_556 S
N486 C488 1.356 . S
N486 H498 0.984 . S
N486 H499 0.985 . S
N487 C489 1.356 . S
N487 H492 0.984 . S
N487 H493 0.985 . S
C488 C482 1.379 1_545 S
C488 C485 1.363 1_554 S
C488 N486 1.356 . S
C489 C483 1.363 . S
C489 C484 1.379 1_565 S
C489 N487 1.356 . S
N490 C482 1.356 . S
N490 H496 0.984 . S
N490 H497 0.984 . S
N491 C484 1.356 . S
N491 H494 0.984 . S
N491 H495 0.985 . S
H492 N487 0.984 . S
H493 N487 0.985 . S
H494 N491 0.984 . S
H495 N491 0.985 . S
H496 N490 0.984 . S
H497 N490 0.984 . S
H498 N486 0.984 . S
H499 N486 0.985 . S
C500 C501 1.363 . S
C500 C506 1.379 . S
C500 N508 1.356 . S
C501 C500 1.363 . S
C501 C507 1.363 1_554 S
C502 C503 1.363 1_556 S
C502 C507 1.379 . S
C502 N509 1.356 . S
C503 C502 1.363 1_554 S
C503 C506 1.363 . S
N504 C506 1.356 . S
N504 H516 0.984 . S
N504 H517 0.985 . S
N505 C507 1.356 . S
N505 H510 0.984 . S
N505 H511 0.985 . S
C506 C500 1.379 . S
C506 C503 1.363 . S
C506 N504 1.356 . S
C507 C501 1.363 1_556 S
C507 C502 1.379 . S
C507 N505 1.356 . S
N508 C500 1.356 . S
N508 H514 0.984 . S
N508 H515 0.984 . S
N509 C502 1.356 . S
N509 H512 0.984 . S
N509 H513 0.985 . S
H510 N505 0.984 . S
H511 N505 0.985 . S
H512 N509 0.984 . S
H513 N509 0.985 . S
H514 N508 0.984 . S
H515 N508 0.984 . S
H516 N504 0.984 . S
H517 N504 0.985 . S
C518 C519 1.363 . S
C518 C524 1.379 1_545 S
C518 N526 1.356 . S
C519 C518 1.363 . S
C519 C525 1.363 1_554 S
C520 C521 1.363 1_556 S
C520 C525 1.379 1_565 S
C520 N527 1.356 . S
C521 C520 1.363 1_554 S
C521 C524 1.363 . S
N522 C524 1.356 . S
N522 H534 0.984 . S
N522 H535 0.985 . S
N523 C525 1.356 . S
N523 H528 0.984 . S
N523 H529 0.985 . S
C524 C518 1.379 1_565 S
C524 C521 1.363 . S
C524 N522 1.356 . S
C525 C519 1.363 1_556 S
C525 C520 1.379 1_545 S
C525 N523 1.356 . S
N526 C518 1.356 . S
N526 H532 0.984 . S
N526 H533 0.984 . S
N527 C520 1.356 . S
N527 H530 0.984 . S
N527 H531 0.985 . S
H528 N523 0.984 . S
H529 N523 0.985 . S
H530 N527 0.984 . S
H531 N527 0.985 . S
H532 N526 0.984 . S
H533 N526 0.984 . S
H534 N522 0.984 . S
H535 N522 0.985 . S
C536 C537 1.363 1_556 S
C536 C542 1.379 . S
C536 N544 1.356 1_556 S
C537 C536 1.363 1_554 S
C537 C543 1.363 1_554 S
C538 C539 1.363 . S
C538 C543 1.379 . S
C538 N545 1.356 . S
C539 C538 1.363 . S
C539 C542 1.363 . S
N540 C542 1.356 . S
N540 H552 0.984 . S
N540 H553 0.985 . S
N541 C543 1.356 1_554 S
N541 H546 0.984 . S
N541 H547 0.985 . S
C542 C536 1.379 . S
C542 C539 1.363 . S
C542 N540 1.356 . S
C543 C537 1.363 1_556 S
C543 C538 1.379 . S
C543 N541 1.356 1_556 S
N544 C536 1.356 1_554 S
N544 H550 0.984 . S
N544 H551 0.984 . S
N545 C538 1.356 . S
N545 H548 0.984 . S
N545 H549 0.985 . S
H546 N541 0.984 . S
H547 N541 0.985 . S
H548 N545 0.984 . S
H549 N545 0.985 . S
H550 N544 0.984 . S
H551 N544 0.984 . S
H552 N540 0.984 . S
H553 N540 0.985 . S
C554 C555 1.363 1_556 S
C554 C560 1.379 . S
C554 N562 1.356 1_556 S
C555 C554 1.363 1_554 S
C555 C561 1.363 1_554 S
C556 C557 1.363 . S
C556 C561 1.379 . S
C556 N563 1.356 . S
C557 C556 1.363 . S
C557 C560 1.363 . S
N558 C560 1.356 . S
N558 H570 0.984 . S
N558 H571 0.985 . S
N559 C561 1.356 1_554 S
N559 H564 0.984 . S
N559 H565 0.985 1_554 S
C560 C554 1.379 . S
C560 C557 1.363 . S
C560 N558 1.356 . S
C561 C555 1.363 1_556 S
C561 C556 1.379 . S
C561 N559 1.356 1_556 S
N562 C554 1.356 1_554 S
N562 H568 0.984 . S
N562 H569 0.984 . S
N563 C556 1.356 . S
N563 H566 0.984 . S
N563 H567 0.985 . S
H564 N559 0.984 . S
H565 N559 0.985 1_556 S
H566 N563 0.984 . S
H567 N563 0.985 . S
H568 N562 0.984 . S
H569 N562 0.984 . S
H570 N558 0.984 . S
H571 N558 0.985 . S
C572 C573 1.363 . S
C572 C578 1.379 . S
C572 N580 1.356 . S
C573 C572 1.363 . S
C573 C579 1.363 . S
C574 C575 1.363 1_554 S
C574 C579 1.379 . S
C574 N581 1.356 1_554 S
C575 C574 1.363 1_556 S
C575 C578 1.363 1_556 S
N576 C578 1.356 1_556 S
N576 H588 0.987 . S
N576 H589 0.985 . S
N577 C579 1.356 . S
N577 H582 0.984 . S
N577 H583 0.985 . S
C578 C572 1.379 . S
C578 C575 1.363 1_554 S
C578 N576 1.356 1_554 S
C579 C573 1.363 . S
C579 C574 1.379 . S
C579 N577 1.356 . S
N580 C572 1.356 . S
N580 H586 0.984 . S
N580 H587 0.984 . S
N581 C574 1.356 1_556 S
N581 H584 0.984 . S
N581 H585 0.985 . S
H582 N577 0.984 . S
H583 N577 0.985 . S
H584 N581 0.984 . S
H585 N581 0.985 . S
H586 N580 0.984 . S
H587 N580 0.984 . S
H588 N576 0.987 . S
H589 N576 0.985 . S
C590 C591 1.363 1_554 S
C590 C596 1.379 . S
C590 N598 1.356 1_554 S
C591 C590 1.363 1_556 S
C591 C597 1.363 1_556 S
C592 C593 1.363 . S
C592 C597 1.379 . S
C592 N599 1.356 . S
C593 C592 1.363 . S
C593 C596 1.363 . S
N594 C596 1.356 . S
N594 H606 0.984 . S
N594 H607 0.985 . S
N595 C597 1.356 1_556 S
N595 H600 0.984 . S
N595 H601 0.985 1_556 S
C596 C590 1.379 . S
C596 C593 1.363 . S
C596 N594 1.356 . S
C597 C591 1.363 1_554 S
C597 C592 1.379 . S
C597 N595 1.356 1_554 S
N598 C590 1.356 1_556 S
N598 H604 0.984 . S
N598 H605 0.984 . S
N599 C592 1.356 . S
N599 H602 0.984 . S
N599 H603 0.985 . S
H600 N595 0.984 . S
H601 N595 0.985 1_554 S
H602 N599 0.984 . S
H603 N599 0.985 . S
H604 N598 0.984 . S
H605 N598 0.984 . S
H606 N594 0.984 . S
H607 N594 0.985 . S
C608 C609 1.363 . S
C608 C614 1.379 . S
C608 N616 1.356 . S
C609 C608 1.363 . S
C609 C615 1.363 . S
C610 C611 1.363 . S
C610 C615 1.379 . S
C610 N617 1.356 . S
C611 C610 1.363 . S
C611 C614 1.363 . S
N612 C614 1.356 . S
N612 H624 0.984 . S
N612 H625 0.985 . S
N613 C615 1.356 . S
N613 H618 0.984 . S
N613 H619 0.985 . S
C614 C608 1.379 . S
C614 C611 1.363 . S
C614 N612 1.356 . S
C615 C609 1.363 . S
C615 C610 1.379 . S
C615 N613 1.356 . S
N616 C608 1.356 . S
N616 H622 0.984 . S
N616 H623 0.984 . S
N617 C610 1.356 . S
N617 H620 0.984 . S
N617 H621 0.985 . S
H618 N613 0.984 . S
H619 N613 0.985 . S
H620 N617 0.984 . S
H621 N617 0.985 . S
H622 N616 0.984 . S
H623 N616 0.984 . S
H624 N612 0.984 . S
H625 N612 0.985 . S
C626 C627 1.363 . S
C626 C632 1.379 . S
C626 N634 1.356 . S
C627 C626 1.363 . S
C627 C633 1.363 . S
C628 C629 1.363 . S
C628 C633 1.379 . S
C628 N635 1.356 . S
C629 C628 1.363 . S
C629 C632 1.363 . S
N630 C632 1.356 . S
N630 H642 0.984 . S
N630 H643 0.985 . S
N631 C633 1.356 . S
N631 H636 0.984 . S
N631 H637 0.985 . S
C632 C626 1.379 . S
C632 C629 1.363 . S
C632 N630 1.356 . S
C633 C627 1.363 . S
C633 C628 1.379 . S
C633 N631 1.356 . S
N634 C626 1.356 . S
N634 H640 0.984 . S
N634 H641 0.984 . S
N635 C628 1.356 . S
N635 H638 0.984 . S
N635 H639 0.985 . S
H636 N631 0.984 . S
H637 N631 0.985 . S
H638 N635 0.984 . S
H639 N635 0.985 . S
H640 N634 0.984 . S
H641 N634 0.984 . S
H642 N630 0.984 . S
H643 N630 0.985 . S
C644 C645 1.363 . S
C644 C650 1.379 . S
C644 N652 1.356 . S
C645 C644 1.363 . S
C645 C651 1.363 . S
C646 C647 1.363 . S
C646 C651 1.379 . S
C646 N653 1.356 . S
C647 C646 1.363 . S
C647 C650 1.363 . S
N648 C650 1.356 . S
N648 H660 0.984 . S
N648 H661 0.985 . S
N649 C651 1.356 . S
N649 H654 0.984 . S
N649 H655 0.985 . S
C650 C644 1.379 . S
C650 C647 1.363 . S
C650 N648 1.356 . S
C651 C645 1.363 . S
C651 C646 1.379 . S
C651 N649 1.356 . S
N652 C644 1.356 . S
N652 H658 0.984 . S
N652 H659 0.984 . S
N653 C646 1.356 . S
N653 H656 0.984 . S
N653 H657 0.985 . S
H654 N649 0.984 . S
H655 N649 0.985 . S
H656 N653 0.984 . S
H657 N653 0.985 . S
H658 N652 0.984 . S
H659 N652 0.984 . S
H660 N648 0.984 . S
H661 N648 0.985 . S
C662 C663 1.363 . S
C662 C668 1.379 . S
C662 N670 1.356 . S
C663 C662 1.363 . S
C663 C669 1.363 . S
C664 C665 1.363 . S
C664 C669 1.379 . S
C664 N671 1.356 . S
C665 C664 1.363 . S
C665 C668 1.363 . S
N666 C668 1.356 . S
N666 H678 0.984 . S
N666 H679 0.985 . S
N667 C669 1.356 . S
N667 H672 0.984 . S
N667 H673 0.985 . S
C668 C662 1.379 . S
C668 C665 1.363 . S
C668 N666 1.356 . S
C669 C663 1.363 . S
C669 C664 1.379 . S
C669 N667 1.356 . S
N670 C662 1.356 . S
N670 H676 0.984 . S
N670 H677 0.984 . S
N671 C664 1.356 . S
N671 H674 0.984 . S
N671 H675 0.985 . S
H672 N667 0.984 . S
H673 N667 0.985 . S
H674 N671 0.984 . S
H675 N671 0.985 . S
H676 N670 0.984 . S
H677 N670 0.984 . S
H678 N666 0.984 . S
H679 N666 0.985 . S
C680 C681 1.363 . S
C680 C686 1.379 1_455 S
C680 N688 1.356 . S
C681 C680 1.363 . S
C681 C687 1.363 . S
C682 C683 1.363 . S
C682 C687 1.379 1_655 S
C682 N689 1.356 1_554 S
C683 C682 1.363 . S
C683 C686 1.363 . S
N684 C686 1.356 . S
N684 H696 0.984 . S
N684 H697 0.985 . S
N685 C687 1.356 1_556 S
N685 H690 0.984 1_556 S
N685 H691 0.985 . S
C686 C680 1.379 1_655 S
C686 C683 1.363 . S
C686 N684 1.356 . S
C687 C681 1.363 . S
C687 C682 1.379 1_455 S
C687 N685 1.356 1_554 S
N688 C680 1.356 . S
N688 H694 0.984 . S
N688 H695 0.984 . S
N689 C682 1.356 1_556 S
N689 H692 0.984 1_556 S
N689 H693 0.985 . S
H690 N685 0.984 1_554 S
H691 N685 0.985 . S
H692 N689 0.984 1_554 S
H693 N689 0.985 . S
H694 N688 0.984 . S
H695 N688 0.984 . S
H696 N684 0.984 . S
H697 N684 0.985 . S
C698 C699 1.363 . S
C698 C704 1.379 1_655 S
C698 N706 1.356 1_556 S
C699 C698 1.363 . S
C699 C705 1.363 . S
C700 C701 1.363 . S
C700 C705 1.379 1_455 S
C700 N707 1.356 . S
C701 C700 1.363 . S
C701 C704 1.363 . S
N702 C704 1.356 1_554 S
N702 H714 0.984 . S
N702 H715 0.985 1_554 S
N703 C705 1.356 . S
N703 H708 0.984 . S
N703 H709 0.985 . S
C704 C698 1.379 1_455 S
C704 C701 1.363 . S
C704 N702 1.356 1_556 S
C705 C699 1.363 . S
C705 C700 1.379 1_655 S
C705 N703 1.356 . S
N706 C698 1.356 1_554 S
N706 H712 0.984 . S
N706 H713 0.984 1_554 S
N707 C700 1.356 . S
N707 H710 0.984 . S
N707 H711 0.985 . S
H708 N703 0.984 . S
H709 N703 0.985 . S
H710 N707 0.984 . S
H711 N707 0.985 . S
H712 N706 0.984 . S
H713 N706 0.984 1_556 S
H714 N702 0.984 . S
H715 N702 0.985 1_556 S
C716 C717 1.363 . S
C716 C722 1.379 . S
C716 N724 1.356 . S
C717 C716 1.363 . S
C717 C723 1.363 . S
C718 C719 1.363 . S
C718 C723 1.379 . S
C718 N725 1.356 . S
C719 C718 1.363 . S
C719 C722 1.363 . S
N720 C722 1.356 . S
N720 H732 0.984 . S
N720 H733 0.985 . S
N721 C723 1.356 . S
N721 H726 0.984 . S
N721 H727 0.985 . S
C722 C716 1.379 . S
C722 C719 1.363 . S
C722 N720 1.356 . S
C723 C717 1.363 . S
C723 C718 1.379 . S
C723 N721 1.356 . S
N724 C716 1.356 . S
N724 H730 0.984 . S
N724 H731 0.984 . S
N725 C718 1.356 . S
N725 H728 0.984 . S
N725 H729 0.985 . S
H726 N721 0.984 . S
H727 N721 0.985 . S
H728 N725 0.984 . S
H729 N725 0.985 . S
H730 N724 0.984 . S
H731 N724 0.984 . S
H732 N720 0.984 . S
H733 N720 0.985 . S
C734 C735 1.363 . S
C734 C740 1.379 . S
C734 N742 1.356 . S
C735 C734 1.363 . S
C735 C741 1.363 . S
C736 C737 1.363 . S
C736 C741 1.379 . S
C736 N743 1.356 . S
C737 C736 1.363 . S
C737 C740 1.363 . S
N738 C740 1.356 . S
N738 H750 0.984 . S
N738 H751 0.985 . S
N739 C741 1.356 . S
N739 H744 0.984 . S
N739 H745 0.985 . S
C740 C734 1.379 . S
C740 C737 1.363 . S
C740 N738 1.356 . S
C741 C735 1.363 . S
C741 C736 1.379 . S
C741 N739 1.356 . S
N742 C734 1.356 . S
N742 H748 0.984 . S
N742 H749 0.984 . S
N743 C736 1.356 . S
N743 H746 0.984 . S
N743 H747 0.985 . S
H744 N739 0.984 . S
H745 N739 0.985 . S
H746 N743 0.984 . S
H747 N743 0.985 . S
H748 N742 0.984 . S
H749 N742 0.984 . S
H750 N738 0.984 . S
H751 N738 0.985 . S
C321 C7 1.704 . S
C323 C296 1.704 . S
C339 C256 1.704 . S
C341 C47 1.704 . S
C357 C207 1.704 . S
C359 C96 1.704 . S
C375 C167 1.704 . S
C377 C136 1.704 . S
C393 C90 1.628 . S
C395 C10 1.638 . S
C411 C50 1.638 . S
C413 C130 1.628 . S
C429 C139 1.638 . S
C431 C59 1.628 . S
C447 C99 1.638 . S
C449 C19 1.628 . S
C465 C170 1.446 . S
C467 C250 1.446 . S
C483 C210 1.446 . S
C485 C290 1.446 . S
C501 C299 1.446 . S
C503 C219 1.446 . S
C519 C259 1.446 . S
C521 C179 1.446 . S
C537 C11 2.086 . S
C539 C2 2.086 . S
C555 C51 2.086 . S
C557 C42 2.086 . S
C573 C91 2.086 . S
C575 C82 2.086 . S
C591 C122 2.086 . S
C593 C131 2.086 . S
C609 C162 2.085 . S
C611 C171 2.085 . S
C627 C211 2.085 . S
C629 C202 2.085 . S
C645 C242 2.085 . S
C647 C251 2.085 . S
C663 C282 2.085 . S
C665 C291 2.085 . S
C681 C16 2.245 . S
C683 C56 2.245 . S
C699 C127 2.245 . S
C701 C87 2.245 . S
C717 C176 2.247 . S
C719 C216 2.247 . S
C735 C287 2.247 . S
C737 C247 2.247 . S
