# Generated by pormake.
# Topology uox, (4)-cn, num edge types: 1
# Building blocks:
#     Node 0, Type 0, BuildingBlock: TATPOV_clean_sbu_0, # of connection points: 4
#     Node 1, Type 0, BuildingBlock: TATPOV_clean_sbu_0, # of connection points: 4
#     Node 2, Type 0, BuildingBlock: TATPOV_clean_sbu_0, # of connection points: 4
#     Node 3, Type 0, BuildingBlock: TATPOV_clean_sbu_0, # of connection points: 4
#     Node 4, Type 0, BuildingBlock: TATPOV_clean_sbu_0, # of connection points: 4
#     Node 5, Type 0, BuildingBlock: TATPOV_clean_sbu_0, # of connection points: 4
#     Node 6, Type 0, BuildingBlock: TATPOV_clean_sbu_0, # of connection points: 4
#     Node 7, Type 0, BuildingBlock: TATPOV_clean_sbu_0, # of connection points: 4
#     Node 8, Type 0, BuildingBlock: TATPOV_clean_sbu_0, # of connection points: 4
#     Node 9, Type 0, BuildingBlock: TATPOV_clean_sbu_0, # of connection points: 4
#     Node 10, Type 0, BuildingBlock: TATPOV_clean_sbu_0, # of connection points: 4
#     Node 11, Type 0, BuildingBlock: TATPOV_clean_sbu_0, # of connection points: 4
#     Node 12, Type 0, BuildingBlock: TATPOV_clean_sbu_0, # of connection points: 4
#     Node 13, Type 0, BuildingBlock: TATPOV_clean_sbu_0, # of connection points: 4
#     Node 14, Type 0, BuildingBlock: TATPOV_clean_sbu_0, # of connection points: 4
#     Node 15, Type 0, BuildingBlock: TATPOV_clean_sbu_0, # of connection points: 4
#     Node 16, Type 0, BuildingBlock: TATPOV_clean_sbu_0, # of connection points: 4
#     Node 17, Type 0, BuildingBlock: TATPOV_clean_sbu_0, # of connection points: 4
#     Node 18, Type 0, BuildingBlock: TATPOV_clean_sbu_0, # of connection points: 4
#     Node 19, Type 0, BuildingBlock: TATPOV_clean_sbu_0, # of connection points: 4
#     Node 20, Type 0, BuildingBlock: TATPOV_clean_sbu_0, # of connection points: 4
#     Node 21, Type 0, BuildingBlock: TATPOV_clean_sbu_0, # of connection points: 4
#     Node 22, Type 0, BuildingBlock: TATPOV_clean_sbu_0, # of connection points: 4
#     Node 23, Type 0, BuildingBlock: TATPOV_clean_sbu_0, # of connection points: 4
#     Node 24, Type 0, BuildingBlock: TATPOV_clean_sbu_0, # of connection points: 4
#     Node 25, Type 0, BuildingBlock: TATPOV_clean_sbu_0, # of connection points: 4
#     Node 26, Type 0, BuildingBlock: TATPOV_clean_sbu_0, # of connection points: 4
#     Node 27, Type 0, BuildingBlock: TATPOV_clean_sbu_0, # of connection points: 4
#     Node 28, Type 0, BuildingBlock: TATPOV_clean_sbu_0, # of connection points: 4
#     Node 29, Type 0, BuildingBlock: TATPOV_clean_sbu_0, # of connection points: 4
#     Node 30, Type 0, BuildingBlock: TATPOV_clean_sbu_0, # of connection points: 4
#     Node 31, Type 0, BuildingBlock: TATPOV_clean_sbu_0, # of connection points: 4
#     Edge 32, Type (0, 0), BuildingBlock: AJUNOK_clean_linker_0, # of connection points: 2
#     Edge 33, Type (0, 0), BuildingBlock: AJUNOK_clean_linker_0, # of connection points: 2
#     Edge 34, Type (0, 0), BuildingBlock: AJUNOK_clean_linker_0, # of connection points: 2
#     Edge 35, Type (0, 0), BuildingBlock: AJUNOK_clean_linker_0, # of connection points: 2
#     Edge 36, Type (0, 0), BuildingBlock: AJUNOK_clean_linker_0, # of connection points: 2
#     Edge 37, Type (0, 0), BuildingBlock: AJUNOK_clean_linker_0, # of connection points: 2
#     Edge 38, Type (0, 0), BuildingBlock: AJUNOK_clean_linker_0, # of connection points: 2
#     Edge 39, Type (0, 0), BuildingBlock: AJUNOK_clean_linker_0, # of connection points: 2
#     Edge 40, Type (0, 0), BuildingBlock: AJUNOK_clean_linker_0, # of connection points: 2
#     Edge 41, Type (0, 0), BuildingBlock: AJUNOK_clean_linker_0, # of connection points: 2
#     Edge 42, Type (0, 0), BuildingBlock: AJUNOK_clean_linker_0, # of connection points: 2
#     Edge 43, Type (0, 0), BuildingBlock: AJUNOK_clean_linker_0, # of connection points: 2
#     Edge 44, Type (0, 0), BuildingBlock: AJUNOK_clean_linker_0, # of connection points: 2
#     Edge 45, Type (0, 0), BuildingBlock: AJUNOK_clean_linker_0, # of connection points: 2
#     Edge 46, Type (0, 0), BuildingBlock: AJUNOK_clean_linker_0, # of connection points: 2
#     Edge 47, Type (0, 0), BuildingBlock: AJUNOK_clean_linker_0, # of connection points: 2
#     Edge 48, Type (0, 0), BuildingBlock: AJUNOK_clean_linker_0, # of connection points: 2
#     Edge 49, Type (0, 0), BuildingBlock: AJUNOK_clean_linker_0, # of connection points: 2
#     Edge 50, Type (0, 0), BuildingBlock: AJUNOK_clean_linker_0, # of connection points: 2
#     Edge 51, Type (0, 0), BuildingBlock: AJUNOK_clean_linker_0, # of connection points: 2
#     Edge 52, Type (0, 0), BuildingBlock: AJUNOK_clean_linker_0, # of connection points: 2
#     Edge 53, Type (0, 0), BuildingBlock: AJUNOK_clean_linker_0, # of connection points: 2
#     Edge 54, Type (0, 0), BuildingBlock: AJUNOK_clean_linker_0, # of connection points: 2
#     Edge 55, Type (0, 0), BuildingBlock: AJUNOK_clean_linker_0, # of connection points: 2
#     Edge 56, Type (0, 0), BuildingBlock: AJUNOK_clean_linker_0, # of connection points: 2
#     Edge 57, Type (0, 0), BuildingBlock: AJUNOK_clean_linker_0, # of connection points: 2
#     Edge 58, Type (0, 0), BuildingBlock: AJUNOK_clean_linker_0, # of connection points: 2
#     Edge 59, Type (0, 0), BuildingBlock: AJUNOK_clean_linker_0, # of connection points: 2
#     Edge 60, Type (0, 0), BuildingBlock: AJUNOK_clean_linker_0, # of connection points: 2
#     Edge 61, Type (0, 0), BuildingBlock: AJUNOK_clean_linker_0, # of connection points: 2
#     Edge 62, Type (0, 0), BuildingBlock: AJUNOK_clean_linker_0, # of connection points: 2
#     Edge 63, Type (0, 0), BuildingBlock: AJUNOK_clean_linker_0, # of connection points: 2
#     Edge 64, Type (0, 0), BuildingBlock: AJUNOK_clean_linker_0, # of connection points: 2
#     Edge 65, Type (0, 0), BuildingBlock: AJUNOK_clean_linker_0, # of connection points: 2
#     Edge 66, Type (0, 0), BuildingBlock: AJUNOK_clean_linker_0, # of connection points: 2
#     Edge 67, Type (0, 0), BuildingBlock: AJUNOK_clean_linker_0, # of connection points: 2
#     Edge 68, Type (0, 0), BuildingBlock: AJUNOK_clean_linker_0, # of connection points: 2
#     Edge 69, Type (0, 0), BuildingBlock: AJUNOK_clean_linker_0, # of connection points: 2
#     Edge 70, Type (0, 0), BuildingBlock: AJUNOK_clean_linker_0, # of connection points: 2
#     Edge 71, Type (0, 0), BuildingBlock: AJUNOK_clean_linker_0, # of connection points: 2
#     Edge 72, Type (0, 0), BuildingBlock: AJUNOK_clean_linker_0, # of connection points: 2
#     Edge 73, Type (0, 0), BuildingBlock: AJUNOK_clean_linker_0, # of connection points: 2
#     Edge 74, Type (0, 0), BuildingBlock: AJUNOK_clean_linker_0, # of connection points: 2
#     Edge 75, Type (0, 0), BuildingBlock: AJUNOK_clean_linker_0, # of connection points: 2
#     Edge 76, Type (0, 0), BuildingBlock: AJUNOK_clean_linker_0, # of connection points: 2
#     Edge 77, Type (0, 0), BuildingBlock: AJUNOK_clean_linker_0, # of connection points: 2
#     Edge 78, Type (0, 0), BuildingBlock: AJUNOK_clean_linker_0, # of connection points: 2
#     Edge 79, Type (0, 0), BuildingBlock: AJUNOK_clean_linker_0, # of connection points: 2
#     Edge 80, Type (0, 0), BuildingBlock: AJUNOK_clean_linker_0, # of connection points: 2
#     Edge 81, Type (0, 0), BuildingBlock: AJUNOK_clean_linker_0, # of connection points: 2
#     Edge 82, Type (0, 0), BuildingBlock: AJUNOK_clean_linker_0, # of connection points: 2
#     Edge 83, Type (0, 0), BuildingBlock: AJUNOK_clean_linker_0, # of connection points: 2
#     Edge 84, Type (0, 0), BuildingBlock: AJUNOK_clean_linker_0, # of connection points: 2
#     Edge 85, Type (0, 0), BuildingBlock: AJUNOK_clean_linker_0, # of connection points: 2
#     Edge 86, Type (0, 0), BuildingBlock: AJUNOK_clean_linker_0, # of connection points: 2
#     Edge 87, Type (0, 0), BuildingBlock: AJUNOK_clean_linker_0, # of connection points: 2
#     Edge 88, Type (0, 0), BuildingBlock: AJUNOK_clean_linker_0, # of connection points: 2
#     Edge 89, Type (0, 0), BuildingBlock: AJUNOK_clean_linker_0, # of connection points: 2
#     Edge 90, Type (0, 0), BuildingBlock: AJUNOK_clean_linker_0, # of connection points: 2
#     Edge 91, Type (0, 0), BuildingBlock: AJUNOK_clean_linker_0, # of connection points: 2
#     Edge 92, Type (0, 0), BuildingBlock: AJUNOK_clean_linker_0, # of connection points: 2
#     Edge 93, Type (0, 0), BuildingBlock: AJUNOK_clean_linker_0, # of connection points: 2
#     Edge 94, Type (0, 0), BuildingBlock: AJUNOK_clean_linker_0, # of connection points: 2
#     Edge 95, Type (0, 0), BuildingBlock: AJUNOK_clean_linker_0, # of connection points: 2
# Relax obj value: 0.081
# Max RMSD: 0.124
# Mean RMSD: 0.124
data_MOF--net-uox--node1-TATPOV_clean_sbu_0--edge1-AJUNOK_clean_linker_0
_symmetry_space_group_name_H-M    P1
_symmetry_Int_Tables_number       1
_symmetry_cell_setting            triclinic
loop_
_symmetry_equiv_pos_as_xyz
'x, y, z'
_cell_length_a     34.234404
_cell_length_b     33.807977
_cell_length_c     57.683556
_cell_angle_alpha  89.846711
_cell_angle_beta   89.503747
_cell_angle_gamma 89.905719
loop_
_atom_site_label
_atom_site_type_symbol
_atom_site_fract_x
_atom_site_fract_y
_atom_site_fract_z
_atom_type_partial_charge
Zn0 Zn 0.4109 -0.00322 0.13742 0.0
Zn1 Zn 0.40892 -0.00238 0.18484 0.0
O2 O 0.46626 0.01138 0.17722 0.0
O3 O 0.46849 0.00976 0.13907 0.0
O4 O 0.40448 -0.00437 0.22001 0.0
O5 O 0.39145 0.94028 0.13743 0.0
O6 O 0.38919 0.94289 0.17547 0.0
C7 C 0.48535 0.01543 0.15825 0.0
C8 C 0.35936 0.05641 0.15668 0.0
O9 O 0.37143 0.04229 0.17585 0.0
O10 O 0.37167 0.04209 0.13768 0.0
C11 C 0.41832 0.96726 0.23197 0.0
O12 O 0.43824 0.93931 0.22135 0.0
C13 C 0.38358 0.92403 0.15672 0.0
Zn14 Zn 0.18726 0.146 0.38634 0.0
Zn15 Zn 0.18586 0.14367 0.43362 0.0
O16 O 0.17147 0.20132 0.42606 0.0
O17 O 0.17394 0.2043 0.38797 0.0
O18 O 0.18781 0.14121 0.46877 0.0
O19 O 0.24326 0.12671 0.3861 0.0
O20 O 0.24044 0.12422 0.42414 0.0
C21 C 0.16774 0.22097 0.4073 0.0
C22 C 0.12857 0.09319 0.40573 0.0
O23 O 0.14224 0.10516 0.42497 0.0
O24 O 0.14281 0.10604 0.3868 0.0
C25 C 0.20648 0.16698 0.48027 0.0
O26 O 0.22386 0.19591 0.469 0.0
C27 C 0.25929 0.11881 0.40526 0.0
Zn28 Zn 0.01924 0.94795 0.63756 0.0
Zn29 Zn 0.01745 0.94948 0.68447 0.0
O30 O 0.96174 0.93477 0.67468 0.0
O31 O 0.96175 0.93457 0.63658 0.0
O32 O 0.01188 0.95655 0.71927 0.0
O33 O 0.03895 0.00414 0.63605 0.0
O34 O 0.04024 0.00287 0.6741 0.0
C35 C 0.94381 0.92959 0.65566 0.0
C36 C 0.06947 0.88926 0.66024 0.0
O37 O 0.05587 0.90365 0.67909 0.0
O38 O 0.05855 0.9032 0.64092 0.0
C39 C 0.04054 0.95609 0.73316 0.0
O40 O 0.07579 0.9494 0.72488 0.0
C41 C 0.04708 0.02079 0.65502 0.0
Zn42 Zn 0.25665 0.79014 0.88886 0.0
Zn43 Zn 0.25883 0.79284 0.93609 0.0
O44 O 0.27314 0.73523 0.92831 0.0
O45 O 0.27075 0.73202 0.89025 0.0
O46 O 0.25735 0.79482 0.97128 0.0
O47 O 0.20043 0.80886 0.8897 0.0
O48 O 0.20403 0.8122 0.92765 0.0
C49 C 0.27702 0.7155 0.90961 0.0
C50 C 0.31499 0.84391 0.90699 0.0
O51 O 0.30192 0.8319 0.92654 0.0
O52 O 0.30056 0.83068 0.88838 0.0
C53 C 0.23363 0.77288 0.98254 0.0
O54 O 0.21135 0.74845 0.97093 0.0
C55 C 0.18478 0.81714 0.90906 0.0
Zn56 Zn 0.4103 0.93163 0.42653 0.0
Zn57 Zn 0.40965 0.92931 0.37941 0.0
O58 O 0.46584 0.91518 0.38889 0.0
O59 O 0.46772 0.91794 0.42694 0.0
O60 O 0.41356 0.93182 0.34409 0.0
O61 O 0.39097 -0.01196 0.42632 0.0
O62 O 0.38808 -0.0159 0.38836 0.0
C63 C 0.48471 0.91146 0.40773 0.0
C64 C 0.35849 0.87177 0.40699 0.0
O65 O 0.37101 0.88464 0.38746 0.0
O66 O 0.37067 0.88702 0.42563 0.0
C67 C 0.38963 0.95155 0.33182 0.0
O68 O 0.35986 0.96886 0.34213 0.0
C69 C 0.38229 0.00344 0.40701 0.0
Zn70 Zn 0.24133 0.16201 0.67525 0.0
Zn71 Zn 0.24103 0.16726 0.62832 0.0
O72 O 0.25563 0.22309 0.63943 0.0
O73 O 0.25479 0.22001 0.6775 0.0
O74 O 0.23742 0.17364 0.59341 0.0
O75 O 0.18545 0.14303 0.67541 0.0
O76 O 0.18705 0.14542 0.63736 0.0
C77 C 0.26025 0.23967 0.65905 0.0
C78 C 0.29941 0.11236 0.65204 0.0
O79 O 0.28532 0.12738 0.63361 0.0
O80 O 0.28549 0.12213 0.67166 0.0
C81 C 0.22301 0.147 0.58051 0.0
O82 O 0.21126 0.11372 0.59008 0.0
C83 C 0.16892 0.13737 0.65615 0.0
Zn84 Zn 0.0339 0.00623 0.92755 0.0
Zn85 Zn 0.03555 0.00406 0.88018 0.0
O86 O -0.02178 0.01861 0.88767 0.0
O87 O -0.02374 0.01949 0.92585 0.0
O88 O 0.04044 -0.0041 0.84533 0.0
O89 O 0.05386 0.94992 0.92978 0.0
O90 O 0.05642 0.95098 0.89175 0.0
C91 C 0.95932 0.0241 0.90657 0.0
C92 C 0.08473 0.06508 0.90588 0.0
O93 O 0.07251 0.05 0.88706 0.0
O94 O 0.07302 0.05139 0.92522 0.0
C95 C 0.01315 -0.00368 0.83052 0.0
O96 O -0.02251 0.00501 0.83734 0.0
C97 C 0.06234 0.93304 0.91082 0.0
Zn98 Zn 0.19298 0.77881 0.17783 0.0
Zn99 Zn 0.19501 0.77403 0.13083 0.0
O100 O 0.17932 0.71836 0.14209 0.0
O101 O 0.1788 0.72097 0.18017 0.0
O102 O 0.19928 0.76785 0.09582 0.0
O103 O 0.2489 0.79753 0.17814 0.0
O104 O 0.24876 0.79562 0.14007 0.0
C105 C 0.17367 0.70163 0.16169 0.0
C106 C 0.1362 0.8291 0.15445 0.0
O107 O 0.15089 0.81418 0.13605 0.0
O108 O 0.14927 0.81903 0.17411 0.0
C109 C 0.21744 0.79252 0.08298 0.0
O110 O 0.2334 0.82364 0.09263 0.0
C111 C 0.26617 0.80344 0.15896 0.0
Zn112 Zn 0.53471 0.9519 0.92192 0.0
Zn113 Zn 0.53629 0.94817 0.8752 0.0
O114 O 0.47892 0.93511 0.88381 0.0
O115 O 0.47718 0.93958 0.92184 0.0
O116 O 0.53798 0.94951 0.83992 0.0
O117 O 0.55477 0.00779 0.92169 0.0
O118 O 0.55822 0.00291 0.88377 0.0
C119 C 0.46004 0.93254 0.90294 0.0
C120 C 0.58521 0.89008 0.90365 0.0
O121 O 0.57326 0.90277 0.8841 0.0
O122 O 0.57334 0.90635 0.92219 0.0
C123 C 0.52 -0.0236 0.82877 0.0
O124 O 0.49947 0.00256 0.84049 0.0
C125 C 0.56392 0.02264 0.90224 0.0
Zn126 Zn 0.73979 0.78893 0.67539 0.0
Zn127 Zn 0.74259 0.78804 0.62841 0.0
O128 O 0.75716 0.73087 0.63777 0.0
O129 O 0.75427 0.73103 0.67589 0.0
O130 O 0.74171 0.7882 0.59312 0.0
O131 O 0.68373 0.80735 0.67509 0.0
O132 O 0.68783 0.80877 0.63707 0.0
C133 C 0.76104 0.71286 0.65711 0.0
C134 C 0.79843 0.84118 0.65551 0.0
O135 O 0.78601 0.82739 0.63639 0.0
O136 O 0.78324 0.82974 0.67448 0.0
C137 C 0.71581 0.76946 0.58189 0.0
O138 O 0.68982 0.74867 0.59352 0.0
C139 C 0.66842 0.81492 0.65568 0.0
Zn140 Zn 0.90574 -0.00914 0.425 0.0
Zn141 Zn 0.90581 -0.00874 0.37773 0.0
O142 O 0.96296 0.00449 0.38548 0.0
O143 O 0.96349 0.00314 0.42364 0.0
O144 O 0.90291 -0.00942 0.3426 0.0
O145 O 0.88577 0.93467 0.42519 0.0
O146 O 0.8851 0.93652 0.38709 0.0
C147 C -0.01874 0.00838 0.40452 0.0
C148 C 0.85563 0.05072 0.40527 0.0
O149 O 0.86844 0.03625 0.3863 0.0
O150 O 0.86692 0.03647 0.42443 0.0
C151 C 0.91752 0.96337 0.33003 0.0
O152 O 0.93711 0.93464 0.34003 0.0
C153 C 0.87853 0.91811 0.40604 0.0
Zn154 Zn 0.69327 0.1518 0.17242 0.0
Zn155 Zn 0.69111 0.14793 0.12541 0.0
O156 O 0.67697 0.20611 0.13225 0.0
O157 O 0.67985 0.20984 0.17028 0.0
O158 O 0.69324 0.14346 0.09019 0.0
O159 O 0.74907 0.13268 0.17267 0.0
O160 O 0.74564 0.12828 0.13475 0.0
C161 C 0.67332 0.2261 0.15088 0.0
C162 C 0.63374 0.09892 0.15509 0.0
O163 O 0.64686 0.11025 0.13538 0.0
O164 O 0.64895 0.11199 0.17348 0.0
C165 C 0.71547 0.16518 0.07776 0.0
O166 O 0.73637 0.19258 0.08793 0.0
C167 C 0.76474 0.1237 0.15344 0.0
Zn168 Zn 0.52168 0.00594 0.63265 0.0
Zn169 Zn 0.51994 0.00749 0.67982 0.0
O170 O 0.46403 0.02158 0.66973 0.0
O171 O 0.46413 0.01922 0.63165 0.0
O172 O 0.51549 0.00577 0.71509 0.0
O173 O 0.54132 0.94959 0.63309 0.0
O174 O 0.54165 0.95265 0.67115 0.0
C175 C 0.44613 0.0255 0.65055 0.0
C176 C 0.57175 0.06596 0.6532 0.0
O177 O 0.55847 0.05236 0.67237 0.0
O178 O 0.56075 0.05103 0.63421 0.0
C179 C 0.53938 -0.01285 0.72796 0.0
O180 O 0.56918 0.9689 0.71824 0.0
C181 C 0.54859 0.93369 0.65248 0.0
Zn182 Zn 0.68899 0.772 0.38586 0.0
Zn183 Zn 0.68757 0.76984 0.43283 0.0
O184 O 0.67253 0.7136 0.42236 0.0
O185 O 0.67477 0.71426 0.38427 0.0
O186 O 0.68905 0.76496 0.4681 0.0
O187 O 0.74487 0.79043 0.38573 0.0
O188 O 0.74212 0.79102 0.4238 0.0
C189 C 0.66826 0.69588 0.40304 0.0
C190 C 0.63085 0.82392 0.40707 0.0
O191 O 0.64389 0.80991 0.42606 0.0
O192 O 0.64543 0.81263 0.38793 0.0
C193 C 0.70874 0.7879 0.48098 0.0
O194 O 0.72866 0.81682 0.47129 0.0
C195 C 0.76082 0.79763 0.40497 0.0
Zn196 Zn 0.91399 0.93363 0.13476 0.0
Zn197 Zn 0.91545 0.93539 0.18192 0.0
O198 O -0.0286 0.92071 0.17172 0.0
O199 O -0.02845 0.92044 0.13362 0.0
O200 O 0.91949 0.93847 0.21709 0.0
O201 O 0.89427 -0.01011 0.13407 0.0
O202 O 0.89377 -0.0103 0.17217 0.0
C203 C -0.01055 0.91558 0.15252 0.0
C204 C 0.86325 0.87573 0.15727 0.0
O205 O 0.87654 0.89063 0.17589 0.0
O206 O 0.87468 0.88887 0.13775 0.0
C207 C 0.89558 0.95816 0.22955 0.0
O208 O 0.86647 -0.02349 0.21943 0.0
C209 C 0.8868 0.0072 0.15303 0.0
Zn210 Zn 0.75819 0.16646 0.88296 0.0
Zn211 Zn 0.75577 0.16723 0.93021 0.0
O212 O 0.771 0.22391 0.92047 0.0
O213 O 0.77276 0.22444 0.88234 0.0
O214 O 0.75067 0.17067 0.96545 0.0
O215 O 0.70212 0.14808 0.88191 0.0
O216 O 0.70218 0.14642 0.92 0.0
C217 C 0.77699 0.24229 0.90142 0.0
C218 C 0.81432 0.1136 0.90507 0.0
O219 O 0.80002 0.12736 0.92391 0.0
O220 O 0.80129 0.12539 0.88574 0.0
C221 C 0.73329 0.14412 0.97737 0.0
O222 O 0.71924 0.11314 0.96659 0.0
C223 C 0.68482 0.14034 0.90086 0.0
Zn224 Zn 0.89832 0.50586 0.63565 0.0
Zn225 Zn 0.89761 0.5029 0.68275 0.0
O226 O 0.95448 0.5181 0.67465 0.0
O227 O 0.95593 0.51872 0.6365 0.0
O228 O 0.89642 0.49148 0.7174 0.0
O229 O 0.87843 0.44985 0.63276 0.0
O230 O 0.87632 0.45035 0.67078 0.0
C231 C -0.02687 0.5235 0.65564 0.0
C232 C 0.84759 0.5645 0.65816 0.0
O233 O 0.85992 0.5492 0.67699 0.0
O234 O 0.85929 0.551 0.6388 0.0
C235 C 0.91059 0.51204 0.73372 0.0
O236 O 0.92803 0.54558 0.72864 0.0
C237 C 0.87016 0.43272 0.6517 0.0
Zn238 Zn 0.68876 0.66363 0.89062 0.0
Zn239 Zn 0.68871 0.66699 0.93777 0.0
O240 O 0.67376 0.72298 0.92702 0.0
O241 O 0.67444 0.72163 0.88892 0.0
O242 O 0.69088 0.67251 0.9728 0.0
O243 O 0.74499 0.64527 0.89073 0.0
O244 O 0.74319 0.64618 0.92882 0.0
C245 C 0.66892 0.74041 0.90764 0.0
C246 C 0.63142 0.6123 0.91322 0.0
O247 O 0.64519 0.62679 0.93182 0.0
O248 O 0.6452 0.62305 0.89372 0.0
C249 C 0.71025 0.64895 0.98556 0.0
O250 O 0.72888 0.61925 0.97581 0.0
C251 C 0.76153 0.63911 0.90996 0.0
Zn252 Zn 0.5365 0.43648 0.13572 0.0
Zn253 Zn 0.53865 0.43177 0.18282 0.0
O254 O 0.48138 0.41888 0.17524 0.0
O255 O 0.47888 0.42372 0.13723 0.0
O256 O 0.5412 0.4319 0.21803 0.0
O257 O 0.55607 0.49278 0.13668 0.0
O258 O 0.55892 0.48713 0.17456 0.0
C259 C 0.46212 0.41658 0.15645 0.0
C260 C 0.58782 0.37488 0.15301 0.0
O261 O 0.57604 0.38738 0.17272 0.0
O262 O 0.57554 0.3911 0.13462 0.0
C263 C 0.52175 0.45725 0.22966 0.0
O264 O 0.49924 0.4822 0.21846 0.0
C265 C 0.56437 0.50744 0.15618 0.0
Zn266 Zn 0.75261 0.27626 0.38707 0.0
Zn267 Zn 0.74994 0.27411 0.43425 0.0
O268 O 0.76536 0.21761 0.42462 0.0
O269 O 0.76606 0.21807 0.3865 0.0
O270 O 0.74461 0.26995 0.46935 0.0
O271 O 0.69673 0.29525 0.38598 0.0
O272 O 0.6962 0.29463 0.42408 0.0
C273 C 0.77076 0.1997 0.40543 0.0
C274 C 0.80952 0.32728 0.40951 0.0
O275 O 0.79439 0.31368 0.42818 0.0
O276 O 0.79667 0.31614 0.39003 0.0
C277 C 0.72488 0.29433 0.48152 0.0
O278 O 0.70824 0.32456 0.47118 0.0
C279 C 0.67902 0.30154 0.40498 0.0
Zn280 Zn 0.91088 0.44927 0.92662 0.0
Zn281 Zn 0.913 0.4529 0.87966 0.0
O282 O -0.0311 0.43698 0.88905 0.0
O283 O -0.03171 0.43539 0.92718 0.0
O284 O 0.91731 0.46596 0.84524 0.0
O285 O 0.89141 0.50543 0.92973 0.0
O286 O 0.89029 0.50513 0.89171 0.0
C287 C -0.01352 0.43087 0.90815 0.0
C288 C 0.86095 0.39158 0.90277 0.0
O289 O 0.8747 0.40656 0.88406 0.0
O290 O 0.87157 0.40496 0.92224 0.0
C291 C 0.89954 0.44986 0.82845 0.0
O292 O 0.87692 0.41923 0.83255 0.0
C293 C 0.88348 0.52263 0.91083 0.0
Zn294 Zn 0.75384 0.65393 0.17875 0.0
Zn295 Zn 0.75469 0.65418 0.13145 0.0
O296 O 0.7694 0.71125 0.13982 0.0
O297 O 0.76782 0.7121 0.17796 0.0
O298 O 0.75185 0.65315 0.09637 0.0
O299 O 0.69779 0.63496 0.17911 0.0
O300 O 0.7007 0.63389 0.14106 0.0
C301 C 0.77386 0.72974 0.15886 0.0
C302 C 0.81211 0.60186 0.15801 0.0
O303 O 0.79845 0.61522 0.13906 0.0
O304 O 0.79792 0.61348 0.17721 0.0
C305 C 0.72406 0.6702 0.08574 0.0
O306 O 0.69786 0.68982 0.0979 0.0
C307 C 0.68191 0.62765 0.15985 0.0
Zn308 Zn 0.5302 0.4901 0.42525 0.0
Zn309 Zn 0.52697 0.4902 0.37827 0.0
O310 O 0.47142 0.50474 0.38944 0.0
O311 O 0.47287 0.50332 0.42752 0.0
O312 O 0.52117 0.48761 0.34318 0.0
O313 O 0.54968 0.43386 0.42522 0.0
O314 O 0.54917 0.43565 0.38714 0.0
C315 C 0.4542 0.5091 0.40897 0.0
C316 C 0.57992 0.54911 0.40286 0.0
O317 O 0.566 0.53501 0.38418 0.0
O318 O 0.56934 0.53495 0.42229 0.0
C319 C 0.54439 0.46855 0.32994 0.0
O320 O 0.57442 0.45025 0.33913 0.0
C321 C 0.5566 0.41735 0.40595 0.0
Zn322 Zn 0.6773 0.28906 0.6744 0.0
Zn323 Zn 0.67373 0.29277 0.62733 0.0
O324 O 0.65983 0.23497 0.635 0.0
O325 O 0.66316 0.23104 0.67302 0.0
O326 O 0.67597 0.29508 0.59212 0.0
O327 O 0.73345 0.30752 0.67362 0.0
O328 O 0.72834 0.31241 0.63581 0.0
C329 C 0.65642 0.2149 0.65366 0.0
C330 C 0.61775 0.34287 0.65689 0.0
O331 O 0.63004 0.33119 0.6371 0.0
O332 O 0.63339 0.32967 0.67519 0.0
C333 C 0.70214 0.27498 0.58163 0.0
O334 O 0.72549 0.25262 0.59401 0.0
C335 C 0.74828 0.31668 0.65417 0.0
Zn336 Zn 0.03244 0.42897 0.43055 0.0
Zn337 Zn 0.03286 0.4304 0.38327 0.0
O338 O -0.02425 0.41674 0.39156 0.0
O339 O -0.02535 0.41651 0.42971 0.0
O340 O 0.03523 0.43328 0.34811 0.0
O341 O 0.05244 0.48525 0.43113 0.0
O342 O 0.05365 0.48468 0.39304 0.0
C343 C 0.95717 0.41193 0.41064 0.0
C344 C 0.08293 0.36993 0.40965 0.0
O345 O 0.07036 0.38511 0.39089 0.0
O346 O 0.07132 0.38339 0.42902 0.0
C347 C 0.01975 0.46157 0.33683 0.0
O348 O 0.00055 0.48902 0.34831 0.0
C349 C 0.06003 0.50244 0.41209 0.0
Zn350 Zn 0.25594 0.28054 0.17718 0.0
Zn351 Zn 0.25547 0.28212 0.12993 0.0
O352 O 0.26973 0.22412 0.13731 0.0
O353 O 0.26877 0.22233 0.17547 0.0
O354 O 0.25218 0.28572 0.09477 0.0
O355 O 0.2002 0.29995 0.1785 0.0
O356 O 0.20149 0.30209 0.14043 0.0
C357 C 0.27405 0.20503 0.15625 0.0
C358 C 0.31431 0.3324 0.15701 0.0
O359 O 0.29992 0.32015 0.13802 0.0
O360 O 0.3005 0.32015 0.17618 0.0
C361 C 0.22267 0.27284 0.08383 0.0
O362 O 0.19455 0.25537 0.0956 0.0
C363 C 0.18344 0.30771 0.15955 0.0
Zn364 Zn 0.41001 0.50486 0.93125 0.0
Zn365 Zn 0.41245 0.50686 0.88414 0.0
O366 O 0.46819 0.52052 0.89452 0.0
O367 O 0.46761 0.51768 0.93259 0.0
O368 O 0.4177 0.50486 0.84897 0.0
O369 O 0.39005 0.44869 0.93078 0.0
O370 O 0.39017 0.45224 0.89274 0.0
C371 C 0.48585 0.52411 0.91378 0.0
C372 C 0.36062 0.56562 0.91032 0.0
O373 O 0.37409 0.55209 0.89122 0.0
O374 O 0.37123 0.55037 0.92936 0.0
C375 C 0.39325 0.48739 0.83604 0.0
O376 O 0.36232 0.47099 0.84564 0.0
C377 C 0.38287 0.43312 0.91134 0.0
Zn378 Zn 0.17407 0.66483 0.67978 0.0
Zn379 Zn 0.17708 0.66656 0.63241 0.0
O380 O 0.1615 0.72275 0.6424 0.0
O381 O 0.15982 0.72297 0.68052 0.0
O382 O 0.18205 0.67167 0.59731 0.0
O383 O 0.2302 0.64599 0.68055 0.0
O384 O 0.23069 0.64575 0.64244 0.0
C385 C 0.15549 0.74097 0.66143 0.0
C386 C 0.11803 0.61285 0.65707 0.0
O387 O 0.13307 0.62654 0.6384 0.0
O388 O 0.1305 0.62439 0.67656 0.0
C389 C 0.20143 0.64759 0.58475 0.0
O390 O 0.21806 0.61694 0.59467 0.0
C391 C 0.24781 0.63908 0.66158 0.0
Zn392 Zn 0.03457 0.49692 0.14129 0.0
Zn393 Zn 0.03167 0.49603 0.1883 0.0
O394 O -0.0239 0.51053 0.17784 0.0
O395 O -0.02281 0.51002 0.13974 0.0
O396 O 0.02553 0.49343 0.22343 0.0
O397 O 0.05408 0.44073 0.14091 0.0
O398 O 0.05385 0.44158 0.17901 0.0
C399 C 0.95867 0.51523 0.15857 0.0
C400 C 0.08453 0.5554 0.16328 0.0
O401 O 0.07069 0.54094 0.18208 0.0
O402 O 0.07377 0.54165 0.14393 0.0
C403 C 0.04631 0.47185 0.2366 0.0
O404 O 0.07432 0.45033 0.22733 0.0
C405 C 0.06115 0.42375 0.15999 0.0
Zn406 Zn 0.19075 0.28975 0.88847 0.0
Zn407 Zn 0.18826 0.28812 0.93557 0.0
O408 O 0.17366 0.23183 0.92517 0.0
O409 O 0.17683 0.23183 0.8871 0.0
O410 O 0.18922 0.28268 0.97086 0.0
O411 O 0.24666 0.30834 0.88874 0.0
O412 O 0.24303 0.30905 0.92678 0.0
C413 C 0.17001 0.21373 0.90594 0.0
C414 C 0.132 0.34188 0.90917 0.0
O415 O 0.14464 0.32818 0.92835 0.0
O416 O 0.147 0.33029 0.89019 0.0
C417 C 0.2121 0.30198 0.98393 0.0
O418 O 0.23569 0.32822 0.97455 0.0
C419 C 0.2622 0.31553 0.90809 0.0
Zn420 Zn 0.39594 0.4483 0.64214 0.0
Zn421 Zn 0.3953 0.44711 0.68915 0.0
O422 O 0.45235 0.43331 0.68048 0.0
O423 O 0.45349 0.43528 0.64235 0.0
O424 O 0.39382 0.44923 0.72436 0.0
O425 O 0.37626 0.50456 0.64191 0.0
O426 O 0.374 0.50181 0.67995 0.0
C427 C 0.4709 0.42933 0.66133 0.0
C428 C 0.34526 0.38826 0.66208 0.0
O429 O 0.35776 0.40205 0.68118 0.0
O430 O 0.35689 0.40312 0.64304 0.0
C431 C 0.41467 0.47366 0.73554 0.0
O432 O 0.43842 0.49702 0.72389 0.0
C433 C 0.36799 0.52062 0.66113 0.0
Zn434 Zn 0.2502 0.64915 0.39141 0.0
Zn435 Zn 0.25066 0.6494 0.43855 0.0
O436 O 0.26553 0.7066 0.42959 0.0
O437 O 0.26442 0.70711 0.39144 0.0
O438 O 0.24726 0.64867 0.47378 0.0
O439 O 0.19419 0.63049 0.39131 0.0
O440 O 0.19668 0.62871 0.42934 0.0
C441 C 0.27028 0.72492 0.41039 0.0
C442 C 0.30823 0.59692 0.41168 0.0
O443 O 0.29463 0.6103 0.43076 0.0
O444 O 0.294 0.60857 0.39262 0.0
C445 C 0.22153 0.6689 0.48456 0.0
O446 O 0.19797 0.69158 0.47251 0.0
C447 C 0.17812 0.62269 0.41063 0.0
C448 C 0.42411 0.93259 0.29481 0.0
C449 C 0.39614 0.95615 0.30634 0.0
C450 C 0.43112 0.93655 0.27088 0.0
C451 C 0.4108 0.96456 0.25743 0.0
H452 H 0.44068 0.91064 0.30429 0.0
H453 H 0.4528 0.91746 0.26291 0.0
S454 S 0.33481 0.03409 0.27918 0.0
N455 N 0.34805 0.00882 0.30234 0.0
N456 N 0.36149 0.01649 0.25758 0.0
C457 C 0.38293 -0.01143 0.26876 0.0
C458 C 0.37552 -0.01572 0.2931 0.0
C459 C 0.20347 0.12304 0.54114 0.0
C460 C 0.21886 0.15334 0.55506 0.0
C461 C 0.19914 0.12792 0.51713 0.0
C462 C 0.21013 0.16328 0.50591 0.0
H463 H 0.19473 0.09509 0.54878 0.0
H464 H 0.18747 0.10347 0.50727 0.0
S465 S 0.2503 0.25264 0.53445 0.0
N466 N 0.24398 0.22064 0.55581 0.0
N467 N 0.23592 0.22975 0.51078 0.0
C468 C 0.22513 0.19406 0.51963 0.0
C469 C 0.22946 0.18912 0.54413 0.0
C470 C -0.00744 -0.00725 0.78893 0.0
C471 C 0.02115 -0.01422 0.80587 0.0
C472 C -0.00103 -0.0173 0.76562 0.0
C473 C 0.03429 0.96526 0.75816 0.0
H474 H 0.96494 0.00632 0.79365 0.0
H475 H -0.02391 -0.0109 0.7533 0.0
S476 S 0.1178 0.93834 0.79578 0.0
N477 N 0.08568 0.95867 0.81363 0.0
N478 N 0.0977 0.93993 0.76989 0.0
C479 C 0.063 0.95765 0.77494 0.0
C480 C 0.05646 0.96787 0.79873 0.0
C481 C 0.24854 0.80732 1.01995 0.0
C482 C 0.22976 0.77633 1.00822 0.0
C483 C 0.2443 0.81222 0.044 0.0
C484 C 0.22126 0.78624 0.05747 0.0
H485 H 0.2664 0.82838 1.01048 0.0
H486 H 0.2593 0.83673 0.05204 0.0
S487 S 0.16672 0.69939 0.03539 0.0
N488 N 0.18774 0.71863 1.01212 0.0
N489 N 0.17988 0.72777 0.0572 0.0
C490 C 0.20264 0.75479 0.04602 0.0
C491 C 0.20685 0.74988 1.02148 0.0
C492 C 0.55176 0.95646 0.79112 0.0
C493 C 0.52358 -0.02077 0.80302 0.0
C494 C 0.55664 0.95939 0.76698 0.0
C495 C 0.5334 -0.01498 0.75358 0.0
H496 H 0.57059 0.93639 0.80053 0.0
H497 H 0.57886 0.9412 0.75879 0.0
S498 S 0.45463 0.05055 0.77612 0.0
N499 N 0.47158 0.028 0.79938 0.0
N500 N 0.48063 0.03333 0.75412 0.0
C501 C 0.50481 0.00771 0.76521 0.0
C502 C 0.49997 0.00489 0.78984 0.0
C503 C 0.73536 0.80508 0.52011 0.0
C504 C 0.70998 0.782 0.50662 0.0
C505 C 0.73737 0.80043 0.54427 0.0
C506 C 0.71391 0.77266 0.55611 0.0
H507 H 0.75402 0.82704 0.51199 0.0
H508 H 0.75728 0.81917 0.55372 0.0
S509 S 0.64288 0.70422 0.52898 0.0
N510 N 0.66115 0.72978 0.50703 0.0
N511 N 0.66477 0.72116 0.55232 0.0
C512 C 0.68851 0.74917 0.54285 0.0
C513 C 0.6866 0.75379 0.51819 0.0
C514 C 0.93261 0.93642 0.29042 0.0
C515 C 0.9117 0.96329 0.30445 0.0
C516 C 0.92736 0.93515 0.26631 0.0
C517 C 0.90067 0.96043 0.25516 0.0
H518 H 0.95338 0.91613 0.29807 0.0
H519 H 0.94422 0.91387 0.25639 0.0
S520 S 0.83856 0.03647 0.28388 0.0
N521 N 0.86324 0.01605 0.30526 0.0
N522 N 0.85322 0.01352 0.26013 0.0
C523 C 0.87953 -0.0125 0.26897 0.0
C524 C 0.8851 -0.01101 0.29352 0.0
C525 C 0.74317 0.18209 1.01431 0.0
C526 C 0.72824 0.14856 1.00299 0.0
C527 C 0.73869 0.1872 0.03835 0.0
C528 C 0.71891 0.15914 0.0522 0.0
H529 H 0.75855 0.20474 1.00457 0.0
H530 H 0.75085 0.21355 0.04611 0.0
S531 S 0.67464 0.06567 1.03131 0.0
N532 N 0.69302 0.08648 1.00772 0.0
N533 N 0.68457 0.0962 0.05273 0.0
C534 C 0.70376 0.12545 0.04114 0.0
C535 C 0.70845 0.12014 1.01664 0.0
C536 C 0.89342 0.4591 0.76272 0.0
C537 C 0.90813 0.49729 0.75811 0.0
C538 C 0.89092 0.44407 0.7854 0.0
C539 C 0.90317 0.46644 0.80454 0.0
H540 H 0.88377 0.4404 0.74867 0.0
H541 H 0.87943 0.41452 0.78789 0.0
S542 S 0.94224 0.5689 0.80228 0.0
N543 N 0.93406 0.55765 0.77492 0.0
N544 N 0.92945 0.52944 0.81743 0.0
C545 C 0.91774 0.50479 0.80026 0.0
C546 C 0.92017 0.52017 0.77713 0.0
C547 C 0.74347 0.63851 0.04809 0.0
C548 C 0.72025 0.66617 0.06015 0.0
C549 C 0.7398 0.6331 1.02411 0.0
C550 C 0.71297 0.65534 1.01103 0.0
H551 H 0.7645 0.62046 0.05725 0.0
H552 H 0.75839 0.61132 1.01577 0.0
S553 S 0.64557 0.73225 0.03411 0.0
N554 N 0.66956 0.71645 0.05705 0.0
N555 N 0.66288 0.70648 1.01203 0.0
C556 C 0.68973 0.68337 1.02282 0.0
C557 C 0.69329 0.68871 0.04732 0.0
C558 C 0.56175 0.44215 0.29051 0.0
C559 C 0.53748 0.46614 0.30448 0.0
C560 C 0.55609 0.43905 0.26651 0.0
C561 C 0.52604 0.45998 0.25531 0.0
H562 H 0.58546 0.42549 0.29813 0.0
H563 H 0.57582 0.42037 0.25664 0.0
S564 S 0.4536 0.52623 0.2839 0.0
N565 N 0.48159 0.51073 0.30524 0.0
N566 N 0.47107 0.50503 0.26024 0.0
C567 C 0.50133 0.48389 0.26906 0.0
C568 C 0.507 0.48692 0.29356 0.0
C569 C 0.68759 0.3077 0.54348 0.0
C570 C 0.70772 0.2784 0.55603 0.0
C571 C 0.69346 0.31262 0.51952 0.0
C572 C 0.71958 0.28833 0.50698 0.0
H573 H 0.66735 0.3274 0.55224 0.0
H574 H 0.67723 0.33571 0.51079 0.0
S575 S 0.77889 0.20635 0.53143 0.0
N576 N 0.75445 0.22414 0.55389 0.0
N577 N 0.76537 0.23333 0.509 0.0
C578 C 0.73962 0.25859 0.51925 0.0
C579 C 0.73373 0.25367 0.54369 0.0
C580 C 0.05207 0.43954 0.29981 0.0
C581 C 0.02513 0.46448 0.3112 0.0
C582 C 0.05874 0.44234 0.27582 0.0
C583 C 0.03859 0.47002 0.26206 0.0
H584 H 0.06857 0.41781 0.3095 0.0
H585 H 0.0799 0.42244 0.26804 0.0
S586 S 0.96418 0.5418 0.28321 0.0
N587 N -0.02233 0.51758 0.30671 0.0
N588 N -0.00996 0.5227 0.26171 0.0
C589 C 0.01127 0.49497 0.27317 0.0
C590 C 0.00461 0.49224 0.29767 0.0
C591 C 0.24661 0.30324 0.04656 0.0
C592 C 0.21933 0.27916 0.05831 0.0
C593 C 0.24374 0.31059 1.02267 0.0
C594 C 0.21362 0.294 1.00936 0.0
H595 H 0.27037 0.31687 0.05588 0.0
H596 H 0.26562 0.32934 1.0146 0.0
S597 S 0.13457 0.22861 0.0316 0.0
N598 N 0.16098 0.23863 0.05465 0.0
N599 N 0.15579 0.25226 1.00983 0.0
C600 C 0.18615 0.26973 1.02084 0.0
C601 C 0.18895 0.26239 0.04524 0.0
C602 C 0.37467 0.46113 0.79699 0.0
C603 C 0.39982 0.48442 0.8105 0.0
C604 C 0.38004 0.45745 0.77294 0.0
C605 C 0.41067 0.47707 0.76123 0.0
H606 H 0.35053 0.44542 0.80502 0.0
H607 H 0.35964 0.43932 0.76344 0.0
S608 S 0.48542 0.54109 0.7885 0.0
N609 N 0.45711 0.52696 0.81029 0.0
N610 N 0.4671 0.52016 0.76519 0.0
C611 C 0.43626 0.50027 0.77452 0.0
C612 C 0.43088 0.5039 0.79908 0.0
C613 C 0.23023 0.6288 0.54612 0.0
C614 C 0.20616 0.65425 0.55929 0.0
C615 C 0.23546 0.63416 0.52215 0.0
C616 C 0.21669 0.66507 0.51019 0.0
H617 H 0.24528 0.60438 0.55434 0.0
H618 H 0.25404 0.61347 0.5129 0.0
S619 S 0.15158 0.74098 0.53657 0.0
N620 N 0.16411 0.71236 0.55851 0.0
N621 N 0.17379 0.72229 0.51356 0.0
C622 C 0.19282 0.69103 0.52315 0.0
C623 C 0.18762 0.68568 0.54762 0.0
C624 C 0.34558 0.87137 0.13666 0.0
C625 C 0.36183 0.88609 0.15725 0.0
C626 C 0.31696 0.84184 0.13721 0.0
C627 C 0.30344 0.82587 0.15835 0.0
H628 H 0.3529 0.88458 0.12006 0.0
H629 H 0.3035 0.8336 0.121 0.0
S630 S 0.34381 0.84703 0.2166 0.0
N631 N 0.36768 0.87717 0.19896 0.0
N632 N 0.31389 0.82165 0.20001 0.0
C633 C 0.32267 0.83707 0.17881 0.0
C634 C 0.35185 0.86719 0.17825 0.0
C635 C 0.31091 0.08188 0.42676 0.0
C636 C 0.29731 0.09757 0.40568 0.0
C637 C 0.34108 0.05392 0.42719 0.0
C638 C 0.35886 0.04043 0.40657 0.0
H639 H 0.29652 0.08916 0.44299 0.0
H640 H 0.34846 0.0408 0.44374 0.0
S641 S 0.34106 0.07979 0.34746 0.0
N642 N 0.30906 0.10312 0.36408 0.0
N643 N 0.36588 0.05058 0.36497 0.0
C644 C 0.34864 0.05918 0.38567 0.0
C645 C 0.31784 0.08774 0.38521 0.0
C646 C 0.08584 0.07168 0.67606 0.0
C647 C 0.07051 0.05775 0.65504 0.0
C648 C 0.11558 0.10002 0.67632 0.0
C649 C 0.13126 0.11562 0.65559 0.0
H650 H 0.07671 0.05882 0.69244 0.0
H651 H 0.128 0.10774 0.69292 0.0
S652 S 0.09499 0.096 0.59623 0.0
N653 N 0.06852 0.06688 0.61316 0.0
N654 N 0.12442 0.12019 0.61369 0.0
C655 C 0.1133 0.10517 0.63461 0.0
C656 C 0.08293 0.07624 0.63433 0.0
C657 C 0.10386 0.88347 0.9314 0.0
C658 C 0.08557 0.89593 0.91087 0.0
C659 C 0.13389 0.8553 0.93092 0.0
C660 C 0.1468 0.83844 0.9099 0.0
H661 H 0.097 0.89757 0.94778 0.0
H662 H 0.14876 0.8488 0.94699 0.0
S663 S 0.10182 0.8538 0.85217 0.0
N664 N 0.07758 0.88392 0.86959 0.0
N665 N 0.13397 0.83096 0.86867 0.0
C666 C 0.12575 0.84734 0.88966 0.0
C667 C 0.09516 0.87608 0.89015 0.0
C668 C 0.63176 0.10382 0.92183 0.0
C669 C 0.64729 0.11827 0.90079 0.0
C670 C 0.60228 0.07519 0.92215 0.0
C671 C 0.58715 0.05971 0.90144 0.0
H672 H 0.64409 0.11273 0.93824 0.0
H673 H 0.59326 0.06329 0.9388 0.0
S674 S 0.61112 0.09438 0.84189 0.0
N675 N 0.64034 0.12002 0.85878 0.0
N676 N 0.58502 0.06604 0.85944 0.0
C677 C 0.5994 0.07692 0.88037 0.0
C678 C 0.62943 0.10624 0.88003 0.0
C679 C 0.58929 0.88217 0.63276 0.0
C680 C 0.57125 0.89621 0.65318 0.0
C681 C 0.61854 0.85321 0.63353 0.0
C682 C 0.63092 0.83706 0.65475 0.0
H683 H 0.58283 0.89551 0.61613 0.0
H684 H 0.63326 0.84549 0.61746 0.0
S685 S 0.58608 0.8565 0.71252 0.0
N686 N 0.56272 0.88642 0.69471 0.0
N687 N 0.61773 0.83202 0.69623 0.0
C688 C 0.61006 0.8476 0.675 0.0
C689 C 0.58023 0.87716 0.6742 0.0
C690 C 0.81068 0.83681 0.42639 0.0
C691 C 0.79807 0.8201 0.40543 0.0
C692 C 0.83934 0.8663 0.42662 0.0
C693 C 0.85651 0.88031 0.4059 0.0
H694 H 0.79654 0.82912 0.44264 0.0
H695 H 0.84598 0.88003 0.44307 0.0
S696 S 0.84098 0.83929 0.34707 0.0
N697 N 0.81034 0.81447 0.36389 0.0
N698 N 0.86409 0.87003 0.36437 0.0
C699 C 0.84738 0.86075 0.38515 0.0
C700 C 0.81821 0.83061 0.3849 0.0
C701 C 0.81751 0.08677 0.17397 0.0
C702 C 0.80254 0.1021 0.15313 0.0
C703 C 0.84742 0.05849 0.1739 0.0
C704 C 0.86361 0.0444 0.15297 0.0
H705 H 0.80433 0.09455 0.19048 0.0
H706 H 0.85594 0.04573 0.19034 0.0
S707 S 0.8415 0.08245 0.09401 0.0
N708 N 0.81108 0.10654 0.11128 0.0
N709 N 0.86742 0.05347 0.11109 0.0
C710 C 0.85198 0.06279 0.13217 0.0
C711 C 0.8214 0.09158 0.13226 0.0
C712 C 0.79808 0.35569 0.63196 0.0
C713 C 0.78609 0.3381 0.65301 0.0
C714 C 0.82798 0.3839 0.63131 0.0
C715 C 0.84702 0.39566 0.65168 0.0
H716 H 0.78261 0.34971 0.61605 0.0
H717 H 0.83412 0.39856 0.61496 0.0
S718 S 0.83339 0.35142 0.71017 0.0
N719 N 0.80062 0.32916 0.69395 0.0
N720 N 0.85678 0.38221 0.69269 0.0
C721 C 0.83835 0.37511 0.67234 0.0
C722 C 0.8079 0.34632 0.67302 0.0
C723 C 0.84179 0.57205 0.93169 0.0
C724 C 0.8602 0.55971 0.91102 0.0
C725 C 0.81199 0.60047 0.93145 0.0
C726 C 0.79939 0.61764 0.91054 0.0
H727 H 0.84842 0.55776 0.94802 0.0
H728 H 0.79702 0.60689 0.94763 0.0
S729 S 0.84492 0.6028 0.8525 0.0
N730 N 0.86874 0.57223 0.8697 0.0
N731 N 0.81269 0.62559 0.86924 0.0
C732 C 0.82054 0.60881 0.89014 0.0
C733 C 0.85095 0.57986 0.89038 0.0
C734 C 0.63089 0.58664 0.17961 0.0
C735 C 0.64465 0.60534 0.1593 0.0
C736 C 0.60228 0.55717 0.17868 0.0
C737 C 0.58624 0.54528 0.15742 0.0
H738 H 0.64423 0.59263 0.19619 0.0
H739 H 0.59473 0.54185 0.19461 0.0
S740 S 0.6051 0.59222 0.10009 0.0
N741 N 0.63481 0.6152 0.11795 0.0
N742 N 0.58096 0.55985 0.11617 0.0
C743 C 0.59647 0.56695 0.13737 0.0
C744 C 0.6257 0.59696 0.13832 0.0
C745 C 0.6278 0.34027 0.38421 0.0
C746 C 0.64103 0.32277 0.4049 0.0
C747 C 0.59776 0.3684 0.38442 0.0
C748 C 0.57976 0.38019 0.40532 0.0
H749 H 0.64248 0.33436 0.36787 0.0
H750 H 0.59065 0.38295 0.36824 0.0
S751 S 0.59669 0.33574 0.46336 0.0
N752 N 0.62865 0.31358 0.44617 0.0
N753 N 0.57228 0.3666 0.44661 0.0
C754 C 0.58962 0.3596 0.42573 0.0
C755 C 0.62024 0.33087 0.4255 0.0
C756 C 0.09756 0.55474 0.39087 0.0
C757 C 0.08218 0.54021 0.41193 0.0
C758 C 0.1263 0.58414 0.3905 0.0
C759 C 0.14089 0.6002 0.4112 0.0
H760 H 0.08935 0.54156 0.37452 0.0
H761 H 0.13899 0.59225 0.3739 0.0
S762 S 0.1034 0.57951 0.47059 0.0
N763 N 0.0785 0.54941 0.45377 0.0
N764 N 0.13259 0.60465 0.45306 0.0
C765 C 0.12265 0.58916 0.4322 0.0
C766 C 0.09329 0.55918 0.43258 0.0
C767 C 0.13146 0.34538 0.18073 0.0
C768 C 0.14554 0.32909 0.15982 0.0
C769 C 0.10145 0.37355 0.18087 0.0
C770 C 0.08431 0.38656 0.16011 0.0
H771 H 0.14543 0.33847 0.19703 0.0
H772 H 0.09365 0.38712 0.19726 0.0
S773 S 0.10375 0.34558 0.1014 0.0
N774 N 0.13505 0.32248 0.11834 0.0
N775 N 0.07855 0.37536 0.11857 0.0
C776 C 0.09502 0.36715 0.1394 0.0
C777 C 0.12567 0.33847 0.13926 0.0
C778 C 0.34229 0.38129 0.93094 0.0
C779 C 0.35991 0.3959 0.9105 0.0
C780 C 0.31285 0.35265 0.93015 0.0
C781 C 0.29979 0.33742 0.9089 0.0
H782 H 0.3493 0.3939 0.94763 0.0
H783 H 0.2986 0.34439 0.94627 0.0
S784 S 0.34328 0.35858 0.85092 0.0
N785 N 0.3673 0.38757 0.8688 0.0
N786 N 0.31188 0.33382 0.86726 0.0
C787 C 0.3202 0.34851 0.88857 0.0
C788 C 0.35026 0.37773 0.88939 0.0
C789 C 0.3274 0.5704 0.68242 0.0
C790 C 0.34527 0.5581 0.66158 0.0
C791 C 0.29806 0.5993 0.68253 0.0
C792 C 0.28539 0.61707 0.66179 0.0
H793 H 0.3341 0.55577 0.69864 0.0
H794 H 0.28344 0.60564 0.69883 0.0
S795 S 0.32959 0.6026 0.60342 0.0
N796 N 0.3532 0.57126 0.62027 0.0
N797 N 0.29812 0.62565 0.62052 0.0
C798 C 0.30605 0.6083 0.64123 0.0
C799 C 0.33598 0.57881 0.64112 0.0
C800 C 0.32789 0.11311 0.13583 0.0
C801 C 0.33296 0.09135 0.15646 0.0
C802 C 0.30687 0.14874 0.13563 0.0
C803 C 0.29 0.16409 0.15604 0.0
H804 H 0.34156 0.10345 0.11981 0.0
H805 H 0.3054 0.16517 0.11951 0.0
S806 S 0.28944 0.1154 0.21392 0.0
N807 N 0.31555 0.08554 0.19731 0.0
N808 N 0.27597 0.15228 0.19696 0.0
C809 C 0.29266 0.1413 0.17649 0.0
C810 C 0.31416 0.10506 0.1767 0.0
C811 C 0.07325 0.06142 0.3846 0.0
C812 C 0.09406 0.06658 0.40534 0.0
C813 C 0.0379 0.04057 0.38422 0.0
C814 C 0.02187 0.02394 0.40456 0.0
H815 H 0.08343 0.07496 0.36862 0.0
H816 H 0.02224 0.03908 0.36801 0.0
S817 S 0.06794 0.02346 0.46268 0.0
N818 N 0.09824 0.04934 0.44623 0.0
N819 N 0.03199 0.01006 0.44553 0.0
C820 C 0.0437 0.02657 0.42512 0.0
C821 C 0.07968 0.04791 0.42551 0.0
C822 C 0.10137 0.83311 0.6814 0.0
C823 C 0.09605 0.85443 0.66068 0.0
C824 C 0.1224 0.79748 0.68168 0.0
C825 C 0.13897 0.78165 0.66126 0.0
H826 H 0.08796 0.84313 0.69741 0.0
H827 H 0.12419 0.78147 0.69793 0.0
S828 S 0.13858 0.82891 0.60307 0.0
N829 N 0.11292 0.85925 0.61963 0.0
N830 N 0.15221 0.79236 0.62022 0.0
C831 C 0.13595 0.8039 0.6407 0.0
C832 C 0.11457 0.84022 0.6404 0.0
C833 C 0.40454 0.8977 0.8837 0.0
C834 C 0.41978 0.91607 0.90352 0.0
C835 C 0.36981 0.87583 0.8848 0.0
C836 C 0.34887 0.87131 0.90578 0.0
H837 H 0.42041 0.89862 0.86738 0.0
H838 H 0.36026 0.861 0.86923 0.0
S839 S 0.37278 0.91877 0.96185 0.0
N840 N 0.40858 0.9322 0.94419 0.0
N841 N 0.34354 0.89093 0.94622 0.0
C842 C 0.36239 0.89164 0.92538 0.0
C843 C 0.3977 0.91406 0.92425 0.0
C844 C 0.30104 0.78119 0.38864 0.0
C845 C 0.28742 0.76533 0.40984 0.0
C846 C 0.32265 0.81634 0.38779 0.0
C847 C 0.33155 0.83727 0.40811 0.0
H848 H 0.29641 0.76556 0.37252 0.0
H849 H 0.33359 0.82633 0.37111 0.0
S850 S 0.29795 0.81151 0.46776 0.0
N851 N 0.281 0.77553 0.45142 0.0
N852 N 0.32137 0.84164 0.44991 0.0
C853 C 0.31606 0.82306 0.4293 0.0
C854 C 0.29408 0.78715 0.43015 0.0
C855 C 0.35265 0.07446 0.67166 0.0
C856 C 0.33394 0.08563 0.65098 0.0
C857 C 0.38779 0.05322 0.67134 0.0
C858 C 0.40583 0.04209 0.65033 0.0
H859 H 0.34089 0.08336 0.68834 0.0
H860 H 0.40159 0.04683 0.68776 0.0
S861 S 0.36615 0.05928 0.59134 0.0
N862 N 0.33415 0.08049 0.60891 0.0
N863 N 0.40013 0.04047 0.60826 0.0
C864 C 0.38623 0.05092 0.62952 0.0
C865 C 0.35038 0.07271 0.62986 0.0
C866 C 0.11907 0.12011 0.92626 0.0
C867 C 0.11071 0.10029 0.90544 0.0
C868 C 0.13993 0.1557 0.92632 0.0
C869 C 0.15343 0.17309 0.90556 0.0
H870 H 0.10832 0.10883 0.94271 0.0
H871 H 0.14421 0.17035 0.94278 0.0
S872 S 0.14381 0.13054 0.84652 0.0
N873 N 0.12087 0.09884 0.86363 0.0
N874 N 0.16014 0.16567 0.86371 0.0
C875 C 0.14725 0.15245 0.8847 0.0
C876 C 0.12589 0.11615 0.88464 0.0
C877 C 0.08238 0.86703 0.1739 0.0
C878 C 0.10181 0.85594 0.15328 0.0
C879 C 0.0472 0.88817 0.17347 0.0
C880 C 0.02983 0.89924 0.15241 0.0
H881 H 0.09358 0.85808 0.19062 0.0
H882 H 0.03281 0.89443 0.18986 0.0
S883 S 0.07168 0.88259 0.09354 0.0
N884 N 0.10311 0.86135 0.11121 0.0
N885 N 0.03703 0.90117 0.11036 0.0
C886 C 0.05019 0.89061 0.13166 0.0
C887 C 0.0861 0.86894 0.13211 0.0
C888 C 0.63956 0.7969 0.88562 0.0
C889 C 0.65265 0.78119 0.90683 0.0
C890 C 0.61912 0.8328 0.88465 0.0
C891 C 0.61092 0.85463 0.90486 0.0
H892 H 0.64376 0.78067 0.86962 0.0
H893 H 0.60857 0.84275 0.86798 0.0
S894 S 0.64328 0.8292 0.96446 0.0
N895 N 0.65917 0.79225 0.94829 0.0
N896 N 0.62094 0.8597 0.94653 0.0
C897 C 0.62579 0.84041 0.92605 0.0
C898 C 0.64659 0.80377 0.92702 0.0
C899 C 0.88801 0.89791 0.63501 0.0
C900 C 0.9037 0.91279 0.65572 0.0
C901 C 0.85318 0.87621 0.63499 0.0
C902 C 0.83245 0.8685 0.65568 0.0
H903 H 0.90354 0.90151 0.6187 0.0
H904 H 0.84329 0.8642 0.61868 0.0
S905 S 0.8579 0.9059 0.71419 0.0
N906 N 0.89352 0.9219 0.69717 0.0
N907 N 0.82806 0.88128 0.69718 0.0
C908 C 0.84647 0.88536 0.67634 0.0
C909 C 0.88204 0.90745 0.67634 0.0
C910 C 0.80095 0.14206 0.42593 0.0
C911 C 0.78701 0.15889 0.40524 0.0
C912 C 0.82176 0.10635 0.42585 0.0
C913 C 0.82955 0.0859 0.40508 0.0
H914 H 0.79721 0.15731 0.4423 0.0
H915 H 0.83301 0.09552 0.44218 0.0
S916 S 0.79464 0.11431 0.34653 0.0
N917 N 0.77895 0.15011 0.36366 0.0
N918 N 0.81806 0.08308 0.36352 0.0
C919 C 0.81378 0.10115 0.38442 0.0
C920 C 0.79252 0.13755 0.3845 0.0
C921 C 0.57941 0.06195 0.13609 0.0
C922 C 0.59878 0.07286 0.15649 0.0
C923 C 0.54384 0.04157 0.13689 0.0
C924 C 0.52591 0.03123 0.15814 0.0
H925 H 0.59105 0.07036 0.11926 0.0
H926 H 0.52963 0.03529 0.12061 0.0
S927 S 0.56707 0.04808 0.21663 0.0
N928 N 0.59922 0.06814 0.19867 0.0
N929 N 0.53229 0.03003 0.20011 0.0
C930 C 0.54605 0.03984 0.17868 0.0
C931 C 0.58243 0.06058 0.17788 0.0
C932 C 0.62675 0.15653 0.67393 0.0
C933 C 0.64012 0.17419 0.65318 0.0
C934 C 0.60606 0.12082 0.67383 0.0
C935 C 0.59791 0.10108 0.65299 0.0
H936 H 0.63084 0.17115 0.69042 0.0
H937 H 0.59526 0.10939 0.69023 0.0
S938 S 0.63132 0.13189 0.59413 0.0
N939 N 0.64719 0.1671 0.6114 0.0
N940 N 0.60852 0.09992 0.61114 0.0
C941 C 0.61319 0.11716 0.63221 0.0
C942 C 0.6342 0.15366 0.63232 0.0
C943 C 0.54104 0.87983 0.42812 0.0
C944 C 0.52492 0.89482 0.40748 0.0
C945 C 0.57612 0.85841 0.42796 0.0
C946 C 0.59667 0.85115 0.40717 0.0
H947 H 0.52563 0.88309 0.44449 0.0
H948 H 0.58634 0.84622 0.4442 0.0
S949 S 0.5701 0.88923 0.34884 0.0
N950 N 0.53446 0.90462 0.36603 0.0
N951 N 0.60043 0.86463 0.36567 0.0
C952 C 0.5822 0.8682 0.3866 0.0
C953 C 0.54636 0.88994 0.38677 0.0
C954 C 0.80497 0.78648 0.1378 0.0
C955 C 0.79107 0.77012 0.15875 0.0
C956 C 0.82699 0.82135 0.13749 0.0
C957 C 0.83615 0.84143 0.15811 0.0
H958 H 0.80023 0.77147 0.1215 0.0
H959 H 0.83806 0.83177 0.12093 0.0
S960 S 0.80205 0.81418 0.21732 0.0
N961 N 0.78457 0.7791 0.20051 0.0
N962 N 0.82605 0.84455 0.19988 0.0
C963 C 0.82046 0.82676 0.17906 0.0
C964 C 0.7979 0.7912 0.17939 0.0
C965 C 0.90354 0.05814 0.92663 0.0
C966 C 0.91919 0.04107 0.90629 0.0
C967 C 0.86877 0.08007 0.92628 0.0
C968 C 0.84809 0.08587 0.90558 0.0
H969 H 0.9191 0.05615 0.94286 0.0
H970 H 0.85897 0.09389 0.94223 0.0
S971 S 0.87297 0.04185 0.84832 0.0
N972 N 0.90865 0.02748 0.86547 0.0
N973 N 0.84338 0.06862 0.86472 0.0
C974 C 0.86198 0.06674 0.88542 0.0
C975 C 0.89744 0.04439 0.8858 0.0
C976 C 0.79113 0.65442 0.63715 0.0
C977 C 0.77792 0.67225 0.65779 0.0
C978 C 0.81233 0.61896 0.63748 0.0
C979 C 0.82139 0.59968 0.65847 0.0
H980 H 0.78633 0.66863 0.62056 0.0
H981 H 0.82276 0.60733 0.62108 0.0
S982 S 0.78952 0.63131 0.71726 0.0
N983 N 0.77236 0.66582 0.69979 0.0
N984 N 0.81235 0.59932 0.70035 0.0
C985 C 0.80658 0.616 0.67918 0.0
C986 C 0.78483 0.65216 0.67885 0.0
C987 C 0.57889 0.57436 0.8932 0.0
C988 C 0.59735 0.58505 0.91399 0.0
C989 C 0.54404 0.55275 0.89329 0.0
C990 C 0.52605 0.54077 0.91418 0.0
H991 H 0.59057 0.58398 0.87661 0.0
H992 H 0.53036 0.54681 0.8768 0.0
S993 S 0.56538 0.55621 0.97335 0.0
N994 N 0.59713 0.57838 0.95601 0.0
N995 N 0.53168 0.53766 0.95623 0.0
C996 C 0.5455 0.54902 0.93508 0.0
C997 C 0.58105 0.57118 0.93497 0.0
C998 C 0.6266 0.32131 0.17212 0.0
C999 C 0.61399 0.33974 0.15161 0.0
C1000 C 0.64759 0.28576 0.17157 0.0
C1001 C 0.65685 0.26685 0.15047 0.0
H1002 H 0.61921 0.33373 0.18889 0.0
H1003 H 0.65526 0.27231 0.18798 0.0
S1004 S 0.63502 0.30524 0.09161 0.0
N1005 N 0.61564 0.33822 0.10937 0.0
N1006 N 0.65495 0.27128 0.10839 0.0
C1007 C 0.64643 0.28606 0.12974 0.0
C1008 C 0.62506 0.32245 0.13029 0.0
C1009 C 0.86466 0.36253 0.38952 0.0
C1010 C 0.84418 0.35375 0.4102 0.0
C1011 C 0.90005 0.38326 0.38972 0.0
C1012 C 0.91658 0.39621 0.41061 0.0
H1013 H 0.85412 0.35203 0.37299 0.0
H1014 H 0.91529 0.38767 0.37338 0.0
S1015 S 0.87182 0.38607 0.46929 0.0
N1016 N 0.84103 0.36342 0.45195 0.0
N1017 N 0.90742 0.4025 0.45238 0.0
C1018 C 0.89517 0.3899 0.4313 0.0
C1019 C 0.85908 0.36865 0.43109 0.0
C1020 C 0.83089 0.33471 0.88152 0.0
C1021 C 0.83474 0.35654 0.9021 0.0
C1022 C 0.81049 0.29877 0.88123 0.0
C1023 C 0.79311 0.28311 0.90151 0.0
H1024 H 0.84505 0.34457 0.86567 0.0
H1025 H 0.80981 0.28238 0.86513 0.0
S1026 S 0.78947 0.33168 0.95913 0.0
N1027 N 0.81551 0.36202 0.94274 0.0
N1028 N 0.77747 0.29451 0.94215 0.0
C1029 C 0.79467 0.30583 0.92187 0.0
C1030 C 0.81538 0.34248 0.92217 0.0
C1031 C 0.90107 0.54535 0.17889 0.0
C1032 C 0.91834 0.53154 0.15821 0.0
C1033 C 0.86592 0.56659 0.17871 0.0
C1034 C 0.84649 0.57497 0.15784 0.0
H1035 H 0.91555 0.54124 0.19535 0.0
H1036 H 0.85477 0.57778 0.19506 0.0
S1037 S 0.87629 0.54037 0.09922 0.0
N1038 N 0.91099 0.52402 0.11649 0.0
N1039 N 0.84499 0.56398 0.11617 0.0
C1040 C 0.86211 0.5592 0.13717 0.0
C1041 C 0.89795 0.53748 0.13735 0.0
C1042 C 0.6166 0.6026 0.42318 0.0
C1043 C 0.60665 0.58374 0.40229 0.0
C1044 C 0.63827 0.63768 0.42328 0.0
C1045 C 0.65105 0.65551 0.4025 0.0
H1046 H 0.60647 0.591 0.43968 0.0
H1047 H 0.64371 0.65164 0.43982 0.0
S1048 S 0.6374 0.61528 0.34319 0.0
N1049 N 0.6146 0.58353 0.36033 0.0
N1050 N 0.65544 0.64938 0.36047 0.0
C1051 C 0.64334 0.63574 0.38152 0.0
C1052 C 0.62112 0.59996 0.38143 0.0
C1053 C 0.56348 0.38094 0.63833 0.0
C1054 C 0.5833 0.36969 0.65857 0.0
C1055 C 0.52833 0.40212 0.63943 0.0
C1056 C 0.51127 0.41294 0.66083 0.0
H1057 H 0.5744 0.37218 0.62142 0.0
H1058 H 0.51368 0.4086 0.62328 0.0
S1059 S 0.55406 0.39558 0.71891 0.0
N1060 N 0.58523 0.37467 0.70069 0.0
N1061 N 0.51907 0.41429 0.70269 0.0
C1062 C 0.53194 0.40404 0.68117 0.0
C1063 C 0.5679 0.38247 0.68006 0.0
C1064 C 0.11556 0.31277 0.42933 0.0
C1065 C 0.10907 0.3348 0.40896 0.0
C1066 C 0.13637 0.27705 0.42882 0.0
C1067 C 0.15162 0.26182 0.40793 0.0
H1068 H 0.10324 0.32232 0.44575 0.0
H1069 H 0.13907 0.26052 0.44485 0.0
S1070 S 0.14786 0.31105 0.35029 0.0
N1071 N 0.12329 0.34091 0.3677 0.0
N1072 N 0.16243 0.27391 0.36672 0.0
C1073 C 0.14747 0.2848 0.38767 0.0
C1074 C 0.12619 0.32119 0.38818 0.0
C1075 C 0.37042 0.36412 0.17738 0.0
C1076 C 0.3491 0.35865 0.15685 0.0
C1077 C 0.40588 0.38475 0.17732 0.0
C1078 C 0.42155 0.40088 0.15674 0.0
H1079 H 0.36051 0.35105 0.19355 0.0
H1080 H 0.42185 0.38658 0.19341 0.0
S1081 S 0.37426 0.40011 0.09896 0.0
N1082 N 0.34416 0.37485 0.11586 0.0
N1083 N 0.41065 0.41374 0.11572 0.0
C1084 C 0.39928 0.39785 0.13637 0.0
C1085 C 0.36317 0.37671 0.13643 0.0
C1086 C 0.30685 0.65721 0.88942 0.0
C1087 C 0.29315 0.67465 0.91011 0.0
C1088 C 0.32724 0.62125 0.88958 0.0
C1089 C 0.33475 0.60104 0.91043 0.0
H1090 H 0.30323 0.67215 0.87294 0.0
H1091 H 0.33832 0.60998 0.87323 0.0
S1092 S 0.30029 0.63122 0.96911 0.0
N1093 N 0.2851 0.66692 0.95182 0.0
N1094 N 0.3232 0.59929 0.95218 0.0
C1095 C 0.31916 0.61695 0.93114 0.0
C1096 C 0.29844 0.6537 0.93096 0.0
C1097 C 0.02896 0.55433 0.67672 0.0
C1098 C 0.01322 0.54044 0.65582 0.0
C1099 C 0.06362 0.57631 0.67698 0.0
C1100 C 0.08409 0.58544 0.65635 0.0
H1101 H 0.01361 0.5497 0.693 0.0
H1102 H 0.07355 0.58744 0.6935 0.0
S1103 S 0.05847 0.55117 0.5973 0.0
N1104 N 0.02321 0.53378 0.61413 0.0
N1105 N 0.08819 0.5752 0.61466 0.0
C1106 C 0.07002 0.56969 0.63546 0.0
C1107 C 0.03471 0.54717 0.6352 0.0
C1108 C 0.12304 0.6077 0.14256 0.0
C1109 C 0.11148 0.58986 0.16364 0.0
C1110 C 0.14494 0.64262 0.14214 0.0
C1111 C 0.15633 0.66134 0.16275 0.0
H1112 H 0.11405 0.5954 0.12614 0.0
H1113 H 0.15165 0.65577 0.12542 0.0
S1114 S 0.13813 0.62397 0.22256 0.0
N1115 N 0.1164 0.59155 0.20568 0.0
N1116 N 0.15765 0.65715 0.20492 0.0
C1117 C 0.14702 0.64258 0.18397 0.0
C1118 C 0.12458 0.60693 0.18439 0.0
C1119 C 0.07678 0.37682 0.92937 0.0
C1120 C 0.09791 0.36927 0.90882 0.0
C1121 C 0.0419 0.39858 0.92911 0.0
C1122 C 0.02653 0.41371 0.90829 0.0
H1123 H 0.08641 0.36464 0.94574 0.0
H1124 H 0.02611 0.4021 0.94533 0.0
S1125 S 0.07335 0.40714 0.85012 0.0
N1126 N 0.10295 0.38239 0.86733 0.0
N1127 N 0.03738 0.42304 0.86691 0.0
C1128 C 0.04855 0.40844 0.88781 0.0
C1129 C 0.08417 0.38631 0.88807 0.0
C1130 C 0.28978 0.2991 0.63983 0.0
C1131 C 0.27653 0.28037 0.66023 0.0
C1132 C 0.31062 0.33467 0.6406 0.0
C1133 C 0.31916 0.35314 0.66182 0.0
H1134 H 0.28543 0.28547 0.62307 0.0
H1135 H 0.32125 0.34698 0.62439 0.0
S1136 S 0.28641 0.31924 0.72012 0.0
N1137 N 0.27002 0.2852 0.70222 0.0
N1138 N 0.30923 0.35199 0.70365 0.0
C1139 C 0.30412 0.336 0.6823 0.0
C1140 C 0.28279 0.29971 0.68151 0.0
C1141 C 0.39632 0.5395 0.38956 0.0
C1142 C 0.414 0.52576 0.41 0.0
C1143 C 0.36136 0.56104 0.39027 0.0
C1144 C 0.34251 0.56986 0.41144 0.0
H1145 H 0.41033 0.53505 0.37286 0.0
H1146 H 0.34989 0.57209 0.37405 0.0
S1147 S 0.37357 0.53582 0.46973 0.0
N1148 N 0.40766 0.5189 0.45192 0.0
N1149 N 0.34204 0.55948 0.45321 0.0
C1150 C 0.35854 0.55423 0.43192 0.0
C1151 C 0.39419 0.53217 0.4312 0.0
loop_
_geom_bond_atom_site_label_1
_geom_bond_atom_site_label_2
_geom_bond_distance
_geom_bond_site_symmetry_2
_ccdc_geom_bond_type
Zn0 O3 2.031 . S
Zn0 O5 2.049 1_545 S
Zn0 O10 2.067 . S
Zn1 O2 1.962 . S
Zn1 O4 1.986 . S
Zn1 O6 1.996 1_545 S
Zn1 O9 1.943 . S
O2 Zn1 1.962 . S
O2 C7 1.254 . S
O3 Zn0 2.031 . S
O3 C7 1.269 . S
O4 Zn1 1.986 . S
O4 C11 1.262 . S
O5 Zn0 2.049 1_565 S
O5 C13 1.260 . S
O6 Zn1 1.996 1_565 S
O6 C13 1.257 . S
C7 O2 1.254 . S
C7 O3 1.269 . S
C8 O9 1.249 . S
C8 O10 1.270 . S
O9 Zn1 1.943 . S
O9 C8 1.249 . S
O10 Zn0 2.067 . S
O10 C8 1.270 . S
C11 O4 1.262 . S
C11 O12 1.232 . S
O12 C11 1.232 . S
C13 O5 1.260 . S
C13 O6 1.257 . S
Zn14 O17 2.031 . S
Zn14 O19 2.049 . S
Zn14 O24 2.067 . S
Zn15 O16 1.962 . S
Zn15 O18 1.986 . S
Zn15 O20 1.996 . S
Zn15 O23 1.943 . S
O16 Zn15 1.962 . S
O16 C21 1.254 . S
O17 Zn14 2.031 . S
O17 C21 1.269 . S
O18 Zn15 1.986 . S
O18 C25 1.262 . S
O19 Zn14 2.049 . S
O19 C27 1.260 . S
O20 Zn15 1.996 . S
O20 C27 1.257 . S
C21 O16 1.254 . S
C21 O17 1.269 . S
C22 O23 1.249 . S
C22 O24 1.270 . S
O23 Zn15 1.943 . S
O23 C22 1.249 . S
O24 Zn14 2.067 . S
O24 C22 1.270 . S
C25 O18 1.262 . S
C25 O26 1.232 . S
O26 C25 1.232 . S
C27 O19 1.260 . S
C27 O20 1.257 . S
Zn28 O31 2.031 . S
Zn28 O33 2.049 1_565 S
Zn28 O38 2.067 . S
Zn29 O30 1.962 . S
Zn29 O32 1.986 . S
Zn29 O34 1.996 1_565 S
Zn29 O37 1.943 . S
O30 Zn29 1.962 . S
O30 C35 1.254 . S
O31 Zn28 2.031 . S
O31 C35 1.269 . S
O32 Zn29 1.986 . S
O32 C39 1.262 . S
O33 Zn28 2.049 1_545 S
O33 C41 1.260 . S
O34 Zn29 1.996 1_545 S
O34 C41 1.257 . S
C35 O30 1.254 . S
C35 O31 1.269 . S
C36 O37 1.249 . S
C36 O38 1.270 . S
O37 Zn29 1.943 . S
O37 C36 1.249 . S
O38 Zn28 2.067 . S
O38 C36 1.270 . S
C39 O32 1.262 . S
C39 O40 1.232 . S
O40 C39 1.232 . S
C41 O33 1.260 . S
C41 O34 1.257 . S
Zn42 O45 2.031 . S
Zn42 O47 2.049 . S
Zn42 O52 2.067 . S
Zn43 O44 1.962 . S
Zn43 O46 1.986 . S
Zn43 O48 1.996 . S
Zn43 O51 1.943 . S
O44 Zn43 1.962 . S
O44 C49 1.254 . S
O45 Zn42 2.031 . S
O45 C49 1.269 . S
O46 Zn43 1.986 . S
O46 C53 1.262 . S
O47 Zn42 2.049 . S
O47 C55 1.260 . S
O48 Zn43 1.996 . S
O48 C55 1.257 . S
C49 O44 1.254 . S
C49 O45 1.269 . S
C50 O51 1.249 . S
C50 O52 1.270 . S
O51 Zn43 1.943 . S
O51 C50 1.249 . S
O52 Zn42 2.067 . S
O52 C50 1.270 . S
C53 O46 1.262 . S
C53 O54 1.232 . S
O54 C53 1.232 . S
C55 O47 1.260 . S
C55 O48 1.257 . S
Zn56 O59 2.031 . S
Zn56 O61 2.049 1_565 S
Zn56 O66 2.067 . S
Zn57 O58 1.962 . S
Zn57 O60 1.986 . S
Zn57 O62 1.996 1_565 S
Zn57 O65 1.943 . S
O58 Zn57 1.962 . S
O58 C63 1.254 . S
O59 Zn56 2.031 . S
O59 C63 1.269 . S
O60 Zn57 1.986 . S
O60 C67 1.262 . S
O61 Zn56 2.049 1_545 S
O61 C69 1.260 . S
O62 Zn57 1.996 1_545 S
O62 C69 1.257 . S
C63 O58 1.254 . S
C63 O59 1.269 . S
C64 O65 1.249 . S
C64 O66 1.270 . S
O65 Zn57 1.943 . S
O65 C64 1.249 . S
O66 Zn56 2.067 . S
O66 C64 1.270 . S
C67 O60 1.262 . S
C67 O68 1.232 . S
O68 C67 1.232 . S
C69 O61 1.260 . S
C69 O62 1.257 . S
Zn70 O73 2.031 . S
Zn70 O75 2.049 . S
Zn70 O80 2.067 . S
Zn71 O72 1.962 . S
Zn71 O74 1.986 . S
Zn71 O76 1.996 . S
Zn71 O79 1.943 . S
O72 Zn71 1.962 . S
O72 C77 1.254 . S
O73 Zn70 2.031 . S
O73 C77 1.269 . S
O74 Zn71 1.986 . S
O74 C81 1.262 . S
O75 Zn70 2.049 . S
O75 C83 1.260 . S
O76 Zn71 1.996 . S
O76 C83 1.257 . S
C77 O72 1.254 . S
C77 O73 1.269 . S
C78 O79 1.249 . S
C78 O80 1.270 . S
O79 Zn71 1.943 . S
O79 C78 1.249 . S
O80 Zn70 2.067 . S
O80 C78 1.270 . S
C81 O74 1.262 . S
C81 O82 1.232 . S
O82 C81 1.232 . S
C83 O75 1.260 . S
C83 O76 1.257 . S
Zn84 O87 2.031 . S
Zn84 O89 2.049 1_545 S
Zn84 O94 2.067 . S
Zn85 O86 1.962 . S
Zn85 O88 1.986 . S
Zn85 O90 1.996 1_545 S
Zn85 O93 1.943 . S
O86 Zn85 1.962 . S
O86 C91 1.254 . S
O87 Zn84 2.031 . S
O87 C91 1.269 . S
O88 Zn85 1.986 . S
O88 C95 1.262 . S
O89 Zn84 2.049 1_565 S
O89 C97 1.260 . S
O90 Zn85 1.996 1_565 S
O90 C97 1.257 . S
C91 O86 1.254 . S
C91 O87 1.269 . S
C92 O93 1.249 . S
C92 O94 1.270 . S
O93 Zn85 1.943 . S
O93 C92 1.249 . S
O94 Zn84 2.067 . S
O94 C92 1.270 . S
C95 O88 1.262 . S
C95 O96 1.232 . S
O96 C95 1.232 . S
C97 O89 1.260 . S
C97 O90 1.257 . S
Zn98 O101 2.031 . S
Zn98 O103 2.049 . S
Zn98 O108 2.067 . S
Zn99 O100 1.962 . S
Zn99 O102 1.986 . S
Zn99 O104 1.996 . S
Zn99 O107 1.943 . S
O100 Zn99 1.962 . S
O100 C105 1.254 . S
O101 Zn98 2.031 . S
O101 C105 1.269 . S
O102 Zn99 1.986 . S
O102 C109 1.262 . S
O103 Zn98 2.049 . S
O103 C111 1.260 . S
O104 Zn99 1.996 . S
O104 C111 1.257 . S
C105 O100 1.254 . S
C105 O101 1.269 . S
C106 O107 1.249 . S
C106 O108 1.270 . S
O107 Zn99 1.943 . S
O107 C106 1.249 . S
O108 Zn98 2.067 . S
O108 C106 1.270 . S
C109 O102 1.262 . S
C109 O110 1.232 . S
O110 C109 1.232 . S
C111 O103 1.260 . S
C111 O104 1.257 . S
Zn112 O115 2.031 . S
Zn112 O117 2.049 1_565 S
Zn112 O122 2.067 . S
Zn113 O114 1.962 . S
Zn113 O116 1.986 . S
Zn113 O118 1.996 1_565 S
Zn113 O121 1.943 . S
O114 Zn113 1.962 . S
O114 C119 1.254 . S
O115 Zn112 2.031 . S
O115 C119 1.269 . S
O116 Zn113 1.986 . S
O116 C123 1.262 . S
O117 Zn112 2.049 1_545 S
O117 C125 1.260 . S
O118 Zn113 1.996 1_545 S
O118 C125 1.257 . S
C119 O114 1.254 . S
C119 O115 1.269 . S
C120 O121 1.249 . S
C120 O122 1.270 . S
O121 Zn113 1.943 . S
O121 C120 1.249 . S
O122 Zn112 2.067 . S
O122 C120 1.270 . S
C123 O116 1.262 . S
C123 O124 1.232 . S
O124 C123 1.232 . S
C125 O117 1.260 . S
C125 O118 1.257 . S
Zn126 O129 2.031 . S
Zn126 O131 2.049 . S
Zn126 O136 2.067 . S
Zn127 O128 1.962 . S
Zn127 O130 1.986 . S
Zn127 O132 1.996 . S
Zn127 O135 1.943 . S
O128 Zn127 1.962 . S
O128 C133 1.254 . S
O129 Zn126 2.031 . S
O129 C133 1.269 . S
O130 Zn127 1.986 . S
O130 C137 1.262 . S
O131 Zn126 2.049 . S
O131 C139 1.260 . S
O132 Zn127 1.996 . S
O132 C139 1.257 . S
C133 O128 1.254 . S
C133 O129 1.269 . S
C134 O135 1.249 . S
C134 O136 1.270 . S
O135 Zn127 1.943 . S
O135 C134 1.249 . S
O136 Zn126 2.067 . S
O136 C134 1.270 . S
C137 O130 1.262 . S
C137 O138 1.232 . S
O138 C137 1.232 . S
C139 O131 1.260 . S
C139 O132 1.257 . S
Zn140 O143 2.031 . S
Zn140 O145 2.049 1_545 S
Zn140 O150 2.067 . S
Zn141 O142 1.962 . S
Zn141 O144 1.986 . S
Zn141 O146 1.996 1_545 S
Zn141 O149 1.943 . S
O142 Zn141 1.962 . S
O142 C147 1.254 . S
O143 Zn140 2.031 . S
O143 C147 1.269 . S
O144 Zn141 1.986 . S
O144 C151 1.262 . S
O145 Zn140 2.049 1_565 S
O145 C153 1.260 . S
O146 Zn141 1.996 1_565 S
O146 C153 1.257 . S
C147 O142 1.254 . S
C147 O143 1.269 . S
C148 O149 1.249 . S
C148 O150 1.270 . S
O149 Zn141 1.943 . S
O149 C148 1.249 . S
O150 Zn140 2.067 . S
O150 C148 1.270 . S
C151 O144 1.262 . S
C151 O152 1.232 . S
O152 C151 1.232 . S
C153 O145 1.260 . S
C153 O146 1.257 . S
Zn154 O157 2.031 . S
Zn154 O159 2.049 . S
Zn154 O164 2.067 . S
Zn155 O156 1.962 . S
Zn155 O158 1.986 . S
Zn155 O160 1.996 . S
Zn155 O163 1.943 . S
O156 Zn155 1.962 . S
O156 C161 1.254 . S
O157 Zn154 2.031 . S
O157 C161 1.269 . S
O158 Zn155 1.986 . S
O158 C165 1.262 . S
O159 Zn154 2.049 . S
O159 C167 1.260 . S
O160 Zn155 1.996 . S
O160 C167 1.257 . S
C161 O156 1.254 . S
C161 O157 1.269 . S
C162 O163 1.249 . S
C162 O164 1.270 . S
O163 Zn155 1.943 . S
O163 C162 1.249 . S
O164 Zn154 2.067 . S
O164 C162 1.270 . S
C165 O158 1.262 . S
C165 O166 1.232 . S
O166 C165 1.232 . S
C167 O159 1.260 . S
C167 O160 1.257 . S
Zn168 O171 2.031 . S
Zn168 O173 2.049 1_545 S
Zn168 O178 2.067 . S
Zn169 O170 1.962 . S
Zn169 O172 1.986 . S
Zn169 O174 1.996 1_545 S
Zn169 O177 1.943 . S
O170 Zn169 1.962 . S
O170 C175 1.254 . S
O171 Zn168 2.031 . S
O171 C175 1.269 . S
O172 Zn169 1.986 . S
O172 C179 1.262 . S
O173 Zn168 2.049 1_565 S
O173 C181 1.260 . S
O174 Zn169 1.996 1_565 S
O174 C181 1.257 . S
C175 O170 1.254 . S
C175 O171 1.269 . S
C176 O177 1.249 . S
C176 O178 1.270 . S
O177 Zn169 1.943 . S
O177 C176 1.249 . S
O178 Zn168 2.067 . S
O178 C176 1.270 . S
C179 O172 1.262 . S
C179 O180 1.232 . S
O180 C179 1.232 . S
C181 O173 1.260 . S
C181 O174 1.257 . S
Zn182 O185 2.031 . S
Zn182 O187 2.049 . S
Zn182 O192 2.067 . S
Zn183 O184 1.962 . S
Zn183 O186 1.986 . S
Zn183 O188 1.996 . S
Zn183 O191 1.943 . S
O184 Zn183 1.962 . S
O184 C189 1.254 . S
O185 Zn182 2.031 . S
O185 C189 1.269 . S
O186 Zn183 1.986 . S
O186 C193 1.262 . S
O187 Zn182 2.049 . S
O187 C195 1.260 . S
O188 Zn183 1.996 . S
O188 C195 1.257 . S
C189 O184 1.254 . S
C189 O185 1.269 . S
C190 O191 1.249 . S
C190 O192 1.270 . S
O191 Zn183 1.943 . S
O191 C190 1.249 . S
O192 Zn182 2.067 . S
O192 C190 1.270 . S
C193 O186 1.262 . S
C193 O194 1.232 . S
O194 C193 1.232 . S
C195 O187 1.260 . S
C195 O188 1.257 . S
Zn196 O199 2.031 . S
Zn196 O201 2.049 1_565 S
Zn196 O206 2.067 . S
Zn197 O198 1.962 . S
Zn197 O200 1.986 . S
Zn197 O202 1.996 1_565 S
Zn197 O205 1.943 . S
O198 Zn197 1.962 . S
O198 C203 1.254 . S
O199 Zn196 2.031 . S
O199 C203 1.269 . S
O200 Zn197 1.986 . S
O200 C207 1.262 . S
O201 Zn196 2.049 1_545 S
O201 C209 1.260 . S
O202 Zn197 1.996 1_545 S
O202 C209 1.257 . S
C203 O198 1.254 . S
C203 O199 1.269 . S
C204 O205 1.249 . S
C204 O206 1.270 . S
O205 Zn197 1.943 . S
O205 C204 1.249 . S
O206 Zn196 2.067 . S
O206 C204 1.270 . S
C207 O200 1.262 . S
C207 O208 1.232 . S
O208 C207 1.232 . S
C209 O201 1.260 . S
C209 O202 1.257 . S
Zn210 O213 2.031 . S
Zn210 O215 2.049 . S
Zn210 O220 2.067 . S
Zn211 O212 1.962 . S
Zn211 O214 1.986 . S
Zn211 O216 1.996 . S
Zn211 O219 1.943 . S
O212 Zn211 1.962 . S
O212 C217 1.254 . S
O213 Zn210 2.031 . S
O213 C217 1.269 . S
O214 Zn211 1.986 . S
O214 C221 1.262 . S
O215 Zn210 2.049 . S
O215 C223 1.260 . S
O216 Zn211 1.996 . S
O216 C223 1.257 . S
C217 O212 1.254 . S
C217 O213 1.269 . S
C218 O219 1.249 . S
C218 O220 1.270 . S
O219 Zn211 1.943 . S
O219 C218 1.249 . S
O220 Zn210 2.067 . S
O220 C218 1.270 . S
C221 O214 1.262 . S
C221 O222 1.232 . S
O222 C221 1.232 . S
C223 O215 1.260 . S
C223 O216 1.257 . S
Zn224 O227 2.031 . S
Zn224 O229 2.049 . S
Zn224 O234 2.067 . S
Zn225 O226 1.962 . S
Zn225 O228 1.986 . S
Zn225 O230 1.996 . S
Zn225 O233 1.943 . S
O226 Zn225 1.962 . S
O226 C231 1.254 . S
O227 Zn224 2.031 . S
O227 C231 1.269 . S
O228 Zn225 1.986 . S
O228 C235 1.262 . S
O229 Zn224 2.049 . S
O229 C237 1.260 . S
O230 Zn225 1.996 . S
O230 C237 1.257 . S
C231 O226 1.254 . S
C231 O227 1.269 . S
C232 O233 1.249 . S
C232 O234 1.270 . S
O233 Zn225 1.943 . S
O233 C232 1.249 . S
O234 Zn224 2.067 . S
O234 C232 1.270 . S
C235 O228 1.262 . S
C235 O236 1.232 . S
O236 C235 1.232 . S
C237 O229 1.260 . S
C237 O230 1.257 . S
Zn238 O241 2.031 . S
Zn238 O243 2.049 . S
Zn238 O248 2.067 . S
Zn239 O240 1.962 . S
Zn239 O242 1.986 . S
Zn239 O244 1.996 . S
Zn239 O247 1.943 . S
O240 Zn239 1.962 . S
O240 C245 1.254 . S
O241 Zn238 2.031 . S
O241 C245 1.269 . S
O242 Zn239 1.986 . S
O242 C249 1.262 . S
O243 Zn238 2.049 . S
O243 C251 1.260 . S
O244 Zn239 1.996 . S
O244 C251 1.257 . S
C245 O240 1.254 . S
C245 O241 1.269 . S
C246 O247 1.249 . S
C246 O248 1.270 . S
O247 Zn239 1.943 . S
O247 C246 1.249 . S
O248 Zn238 2.067 . S
O248 C246 1.270 . S
C249 O242 1.262 . S
C249 O250 1.232 . S
O250 C249 1.232 . S
C251 O243 1.260 . S
C251 O244 1.257 . S
Zn252 O255 2.031 . S
Zn252 O257 2.049 . S
Zn252 O262 2.067 . S
Zn253 O254 1.962 . S
Zn253 O256 1.986 . S
Zn253 O258 1.996 . S
Zn253 O261 1.943 . S
O254 Zn253 1.962 . S
O254 C259 1.254 . S
O255 Zn252 2.031 . S
O255 C259 1.269 . S
O256 Zn253 1.986 . S
O256 C263 1.262 . S
O257 Zn252 2.049 . S
O257 C265 1.260 . S
O258 Zn253 1.996 . S
O258 C265 1.257 . S
C259 O254 1.254 . S
C259 O255 1.269 . S
C260 O261 1.249 . S
C260 O262 1.270 . S
O261 Zn253 1.943 . S
O261 C260 1.249 . S
O262 Zn252 2.067 . S
O262 C260 1.270 . S
C263 O256 1.262 . S
C263 O264 1.232 . S
O264 C263 1.232 . S
C265 O257 1.260 . S
C265 O258 1.257 . S
Zn266 O269 2.031 . S
Zn266 O271 2.049 . S
Zn266 O276 2.067 . S
Zn267 O268 1.962 . S
Zn267 O270 1.986 . S
Zn267 O272 1.996 . S
Zn267 O275 1.943 . S
O268 Zn267 1.962 . S
O268 C273 1.254 . S
O269 Zn266 2.031 . S
O269 C273 1.269 . S
O270 Zn267 1.986 . S
O270 C277 1.262 . S
O271 Zn266 2.049 . S
O271 C279 1.260 . S
O272 Zn267 1.996 . S
O272 C279 1.257 . S
C273 O268 1.254 . S
C273 O269 1.269 . S
C274 O275 1.249 . S
C274 O276 1.270 . S
O275 Zn267 1.943 . S
O275 C274 1.249 . S
O276 Zn266 2.067 . S
O276 C274 1.270 . S
C277 O270 1.262 . S
C277 O278 1.232 . S
O278 C277 1.232 . S
C279 O271 1.260 . S
C279 O272 1.257 . S
Zn280 O283 2.031 . S
Zn280 O285 2.049 . S
Zn280 O290 2.067 . S
Zn281 O282 1.962 . S
Zn281 O284 1.986 . S
Zn281 O286 1.996 . S
Zn281 O289 1.943 . S
O282 Zn281 1.962 . S
O282 C287 1.254 . S
O283 Zn280 2.031 . S
O283 C287 1.269 . S
O284 Zn281 1.986 . S
O284 C291 1.262 . S
O285 Zn280 2.049 . S
O285 C293 1.260 . S
O286 Zn281 1.996 . S
O286 C293 1.257 . S
C287 O282 1.254 . S
C287 O283 1.269 . S
C288 O289 1.249 . S
C288 O290 1.270 . S
O289 Zn281 1.943 . S
O289 C288 1.249 . S
O290 Zn280 2.067 . S
O290 C288 1.270 . S
C291 O284 1.262 . S
C291 O292 1.232 . S
O292 C291 1.232 . S
C293 O285 1.260 . S
C293 O286 1.257 . S
Zn294 O297 2.031 . S
Zn294 O299 2.049 . S
Zn294 O304 2.067 . S
Zn295 O296 1.962 . S
Zn295 O298 1.986 . S
Zn295 O300 1.996 . S
Zn295 O303 1.943 . S
O296 Zn295 1.962 . S
O296 C301 1.254 . S
O297 Zn294 2.031 . S
O297 C301 1.269 . S
O298 Zn295 1.986 . S
O298 C305 1.262 . S
O299 Zn294 2.049 . S
O299 C307 1.260 . S
O300 Zn295 1.996 . S
O300 C307 1.257 . S
C301 O296 1.254 . S
C301 O297 1.269 . S
C302 O303 1.249 . S
C302 O304 1.270 . S
O303 Zn295 1.943 . S
O303 C302 1.249 . S
O304 Zn294 2.067 . S
O304 C302 1.270 . S
C305 O298 1.262 . S
C305 O306 1.232 . S
O306 C305 1.232 . S
C307 O299 1.260 . S
C307 O300 1.257 . S
Zn308 O311 2.031 . S
Zn308 O313 2.049 . S
Zn308 O318 2.067 . S
Zn309 O310 1.962 . S
Zn309 O312 1.986 . S
Zn309 O314 1.996 . S
Zn309 O317 1.943 . S
O310 Zn309 1.962 . S
O310 C315 1.254 . S
O311 Zn308 2.031 . S
O311 C315 1.269 . S
O312 Zn309 1.986 . S
O312 C319 1.262 . S
O313 Zn308 2.049 . S
O313 C321 1.260 . S
O314 Zn309 1.996 . S
O314 C321 1.257 . S
C315 O310 1.254 . S
C315 O311 1.269 . S
C316 O317 1.249 . S
C316 O318 1.270 . S
O317 Zn309 1.943 . S
O317 C316 1.249 . S
O318 Zn308 2.067 . S
O318 C316 1.270 . S
C319 O312 1.262 . S
C319 O320 1.232 . S
O320 C319 1.232 . S
C321 O313 1.260 . S
C321 O314 1.257 . S
Zn322 O325 2.031 . S
Zn322 O327 2.049 . S
Zn322 O332 2.067 . S
Zn323 O324 1.962 . S
Zn323 O326 1.986 . S
Zn323 O328 1.996 . S
Zn323 O331 1.943 . S
O324 Zn323 1.962 . S
O324 C329 1.254 . S
O325 Zn322 2.031 . S
O325 C329 1.269 . S
O326 Zn323 1.986 . S
O326 C333 1.262 . S
O327 Zn322 2.049 . S
O327 C335 1.260 . S
O328 Zn323 1.996 . S
O328 C335 1.257 . S
C329 O324 1.254 . S
C329 O325 1.269 . S
C330 O331 1.249 . S
C330 O332 1.270 . S
O331 Zn323 1.943 . S
O331 C330 1.249 . S
O332 Zn322 2.067 . S
O332 C330 1.270 . S
C333 O326 1.262 . S
C333 O334 1.232 . S
O334 C333 1.232 . S
C335 O327 1.260 . S
C335 O328 1.257 . S
Zn336 O339 2.031 . S
Zn336 O341 2.049 . S
Zn336 O346 2.067 . S
Zn337 O338 1.962 . S
Zn337 O340 1.986 . S
Zn337 O342 1.996 . S
Zn337 O345 1.943 . S
O338 Zn337 1.962 . S
O338 C343 1.254 . S
O339 Zn336 2.031 . S
O339 C343 1.269 . S
O340 Zn337 1.986 . S
O340 C347 1.262 . S
O341 Zn336 2.049 . S
O341 C349 1.260 . S
O342 Zn337 1.996 . S
O342 C349 1.257 . S
C343 O338 1.254 . S
C343 O339 1.269 . S
C344 O345 1.249 . S
C344 O346 1.270 . S
O345 Zn337 1.943 . S
O345 C344 1.249 . S
O346 Zn336 2.067 . S
O346 C344 1.270 . S
C347 O340 1.262 . S
C347 O348 1.232 . S
O348 C347 1.232 . S
C349 O341 1.260 . S
C349 O342 1.257 . S
Zn350 O353 2.031 . S
Zn350 O355 2.049 . S
Zn350 O360 2.067 . S
Zn351 O352 1.962 . S
Zn351 O354 1.986 . S
Zn351 O356 1.996 . S
Zn351 O359 1.943 . S
O352 Zn351 1.962 . S
O352 C357 1.254 . S
O353 Zn350 2.031 . S
O353 C357 1.269 . S
O354 Zn351 1.986 . S
O354 C361 1.262 . S
O355 Zn350 2.049 . S
O355 C363 1.260 . S
O356 Zn351 1.996 . S
O356 C363 1.257 . S
C357 O352 1.254 . S
C357 O353 1.269 . S
C358 O359 1.249 . S
C358 O360 1.270 . S
O359 Zn351 1.943 . S
O359 C358 1.249 . S
O360 Zn350 2.067 . S
O360 C358 1.270 . S
C361 O354 1.262 . S
C361 O362 1.232 . S
O362 C361 1.232 . S
C363 O355 1.260 . S
C363 O356 1.257 . S
Zn364 O367 2.031 . S
Zn364 O369 2.049 . S
Zn364 O374 2.067 . S
Zn365 O366 1.962 . S
Zn365 O368 1.986 . S
Zn365 O370 1.996 . S
Zn365 O373 1.943 . S
O366 Zn365 1.962 . S
O366 C371 1.254 . S
O367 Zn364 2.031 . S
O367 C371 1.269 . S
O368 Zn365 1.986 . S
O368 C375 1.262 . S
O369 Zn364 2.049 . S
O369 C377 1.260 . S
O370 Zn365 1.996 . S
O370 C377 1.257 . S
C371 O366 1.254 . S
C371 O367 1.269 . S
C372 O373 1.249 . S
C372 O374 1.270 . S
O373 Zn365 1.943 . S
O373 C372 1.249 . S
O374 Zn364 2.067 . S
O374 C372 1.270 . S
C375 O368 1.262 . S
C375 O376 1.232 . S
O376 C375 1.232 . S
C377 O369 1.260 . S
C377 O370 1.257 . S
Zn378 O381 2.031 . S
Zn378 O383 2.049 . S
Zn378 O388 2.067 . S
Zn379 O380 1.962 . S
Zn379 O382 1.986 . S
Zn379 O384 1.996 . S
Zn379 O387 1.943 . S
O380 Zn379 1.962 . S
O380 C385 1.254 . S
O381 Zn378 2.031 . S
O381 C385 1.269 . S
O382 Zn379 1.986 . S
O382 C389 1.262 . S
O383 Zn378 2.049 . S
O383 C391 1.260 . S
O384 Zn379 1.996 . S
O384 C391 1.257 . S
C385 O380 1.254 . S
C385 O381 1.269 . S
C386 O387 1.249 . S
C386 O388 1.270 . S
O387 Zn379 1.943 . S
O387 C386 1.249 . S
O388 Zn378 2.067 . S
O388 C386 1.270 . S
C389 O382 1.262 . S
C389 O390 1.232 . S
O390 C389 1.232 . S
C391 O383 1.260 . S
C391 O384 1.257 . S
Zn392 O395 2.031 . S
Zn392 O397 2.049 . S
Zn392 O402 2.067 . S
Zn393 O394 1.962 . S
Zn393 O396 1.986 . S
Zn393 O398 1.996 . S
Zn393 O401 1.943 . S
O394 Zn393 1.962 . S
O394 C399 1.254 . S
O395 Zn392 2.031 . S
O395 C399 1.269 . S
O396 Zn393 1.986 . S
O396 C403 1.262 . S
O397 Zn392 2.049 . S
O397 C405 1.260 . S
O398 Zn393 1.996 . S
O398 C405 1.257 . S
C399 O394 1.254 . S
C399 O395 1.269 . S
C400 O401 1.249 . S
C400 O402 1.270 . S
O401 Zn393 1.943 . S
O401 C400 1.249 . S
O402 Zn392 2.067 . S
O402 C400 1.270 . S
C403 O396 1.262 . S
C403 O404 1.232 . S
O404 C403 1.232 . S
C405 O397 1.260 . S
C405 O398 1.257 . S
Zn406 O409 2.031 . S
Zn406 O411 2.049 . S
Zn406 O416 2.067 . S
Zn407 O408 1.962 . S
Zn407 O410 1.986 . S
Zn407 O412 1.996 . S
Zn407 O415 1.943 . S
O408 Zn407 1.962 . S
O408 C413 1.254 . S
O409 Zn406 2.031 . S
O409 C413 1.269 . S
O410 Zn407 1.986 . S
O410 C417 1.262 . S
O411 Zn406 2.049 . S
O411 C419 1.260 . S
O412 Zn407 1.996 . S
O412 C419 1.257 . S
C413 O408 1.254 . S
C413 O409 1.269 . S
C414 O415 1.249 . S
C414 O416 1.270 . S
O415 Zn407 1.943 . S
O415 C414 1.249 . S
O416 Zn406 2.067 . S
O416 C414 1.270 . S
C417 O410 1.262 . S
C417 O418 1.232 . S
O418 C417 1.232 . S
C419 O411 1.260 . S
C419 O412 1.257 . S
Zn420 O423 2.031 . S
Zn420 O425 2.049 . S
Zn420 O430 2.067 . S
Zn421 O422 1.962 . S
Zn421 O424 1.986 . S
Zn421 O426 1.996 . S
Zn421 O429 1.943 . S
O422 Zn421 1.962 . S
O422 C427 1.254 . S
O423 Zn420 2.031 . S
O423 C427 1.269 . S
O424 Zn421 1.986 . S
O424 C431 1.262 . S
O425 Zn420 2.049 . S
O425 C433 1.260 . S
O426 Zn421 1.996 . S
O426 C433 1.257 . S
C427 O422 1.254 . S
C427 O423 1.269 . S
C428 O429 1.249 . S
C428 O430 1.270 . S
O429 Zn421 1.943 . S
O429 C428 1.249 . S
O430 Zn420 2.067 . S
O430 C428 1.270 . S
C431 O424 1.262 . S
C431 O432 1.232 . S
O432 C431 1.232 . S
C433 O425 1.260 . S
C433 O426 1.257 . S
Zn434 O437 2.031 . S
Zn434 O439 2.049 . S
Zn434 O444 2.067 . S
Zn435 O436 1.962 . S
Zn435 O438 1.986 . S
Zn435 O440 1.996 . S
Zn435 O443 1.943 . S
O436 Zn435 1.962 . S
O436 C441 1.254 . S
O437 Zn434 2.031 . S
O437 C441 1.269 . S
O438 Zn435 1.986 . S
O438 C445 1.262 . S
O439 Zn434 2.049 . S
O439 C447 1.260 . S
O440 Zn435 1.996 . S
O440 C447 1.257 . S
C441 O436 1.254 . S
C441 O437 1.269 . S
C442 O443 1.249 . S
C442 O444 1.270 . S
O443 Zn435 1.943 . S
O443 C442 1.249 . S
O444 Zn434 2.067 . S
O444 C442 1.270 . S
C445 O438 1.262 . S
C445 O446 1.232 . S
O446 C445 1.232 . S
C447 O439 1.260 . S
C447 O440 1.257 . S
C448 C449 1.369 1_545 S
C448 C450 1.419 . S
C448 H452 0.930 . S
C449 C448 1.369 1_565 S
C449 C458 1.429 . S
C450 C448 1.419 . S
C450 C451 1.363 . S
C450 H453 0.929 . S
C451 C450 1.363 . S
C451 C457 1.428 1_545 S
H452 C448 0.930 . S
H453 C450 0.929 . S
S454 N455 1.613 . S
S454 N456 1.610 . S
N455 S454 1.613 . S
N455 C458 1.350 . S
N456 S454 1.610 . S
N456 C457 1.351 . S
C457 C451 1.428 1_565 S
C457 N456 1.351 . S
C457 C458 1.434 . S
C458 C449 1.429 . S
C458 N455 1.350 . S
C458 C457 1.434 . S
C459 C460 1.369 . S
C459 C461 1.419 . S
C459 H463 0.930 . S
C460 C459 1.369 . S
C460 C469 1.429 . S
C461 C459 1.419 . S
C461 C462 1.363 . S
C461 H464 0.929 . S
C462 C461 1.363 . S
C462 C468 1.428 . S
H463 C459 0.930 . S
H464 C461 0.929 . S
S465 N466 1.613 . S
S465 N467 1.610 . S
N466 S465 1.613 . S
N466 C469 1.350 . S
N467 S465 1.610 . S
N467 C468 1.351 . S
C468 C462 1.428 . S
C468 N467 1.351 . S
C468 C469 1.434 . S
C469 C460 1.429 . S
C469 N466 1.350 . S
C469 C468 1.434 . S
C470 C471 1.369 . S
C470 C472 1.419 . S
C470 H474 0.930 . S
C471 C470 1.369 . S
C471 C480 1.429 1_545 S
C472 C470 1.419 . S
C472 C473 1.363 1_545 S
C472 H475 0.929 . S
C473 C472 1.363 1_565 S
C473 C479 1.428 . S
H474 C470 0.930 . S
H475 C472 0.929 . S
S476 N477 1.613 . S
S476 N478 1.610 . S
N477 S476 1.613 . S
N477 C480 1.350 . S
N478 S476 1.610 . S
N478 C479 1.351 . S
C479 C473 1.428 . S
C479 N478 1.351 . S
C479 C480 1.434 . S
C480 C471 1.429 1_565 S
C480 N477 1.350 . S
C480 C479 1.434 . S
C481 C482 1.369 . S
C481 C483 1.419 1_556 S
C481 H485 0.930 . S
C482 C481 1.369 . S
C482 C491 1.429 . S
C483 C481 1.419 1_554 S
C483 C484 1.363 . S
C483 H486 0.929 . S
C484 C483 1.363 . S
C484 C490 1.428 . S
H485 C481 0.930 . S
H486 C483 0.929 . S
S487 N488 1.613 1_554 S
S487 N489 1.610 . S
N488 S487 1.613 1_556 S
N488 C491 1.350 . S
N489 S487 1.610 . S
N489 C490 1.351 . S
C490 C484 1.428 . S
C490 N489 1.351 . S
C490 C491 1.434 1_554 S
C491 C482 1.429 . S
C491 N488 1.350 . S
C491 C490 1.434 1_556 S
C492 C493 1.369 1_545 S
C492 C494 1.419 . S
C492 H496 0.930 . S
C493 C492 1.369 1_565 S
C493 C502 1.429 . S
C494 C492 1.419 . S
C494 C495 1.363 . S
C494 H497 0.929 . S
C495 C494 1.363 . S
C495 C501 1.428 1_545 S
H496 C492 0.930 . S
H497 C494 0.929 . S
S498 N499 1.613 . S
S498 N500 1.610 . S
N499 S498 1.613 . S
N499 C502 1.350 . S
N500 S498 1.610 . S
N500 C501 1.351 . S
C501 C495 1.428 1_565 S
C501 N500 1.351 . S
C501 C502 1.434 . S
C502 C493 1.429 . S
C502 N499 1.350 . S
C502 C501 1.434 . S
C503 C504 1.369 . S
C503 C505 1.419 . S
C503 H507 0.930 . S
C504 C503 1.369 . S
C504 C513 1.429 . S
C505 C503 1.419 . S
C505 C506 1.363 . S
C505 H508 0.929 . S
C506 C505 1.363 . S
C506 C512 1.428 . S
H507 C503 0.930 . S
H508 C505 0.929 . S
S509 N510 1.613 . S
S509 N511 1.610 . S
N510 S509 1.613 . S
N510 C513 1.350 . S
N511 S509 1.610 . S
N511 C512 1.351 . S
C512 C506 1.428 . S
C512 N511 1.351 . S
C512 C513 1.434 . S
C513 C504 1.429 . S
C513 N510 1.350 . S
C513 C512 1.434 . S
C514 C515 1.369 . S
C514 C516 1.419 . S
C514 H518 0.930 . S
C515 C514 1.369 . S
C515 C524 1.429 1_545 S
C516 C514 1.419 . S
C516 C517 1.363 1_545 S
C516 H519 0.929 . S
C517 C516 1.363 1_565 S
C517 C523 1.428 . S
H518 C514 0.930 . S
H519 C516 0.929 . S
S520 N521 1.613 . S
S520 N522 1.610 . S
N521 S520 1.613 . S
N521 C524 1.350 . S
N522 S520 1.610 . S
N522 C523 1.351 . S
C523 C517 1.428 . S
C523 N522 1.351 . S
C523 C524 1.434 . S
C524 C515 1.429 1_565 S
C524 N521 1.350 . S
C524 C523 1.434 . S
C525 C526 1.369 . S
C525 C527 1.419 1_556 S
C525 H529 0.930 . S
C526 C525 1.369 . S
C526 C535 1.429 . S
C527 C525 1.419 1_554 S
C527 C528 1.363 . S
C527 H530 0.929 . S
C528 C527 1.363 . S
C528 C534 1.428 . S
H529 C525 0.930 . S
H530 C527 0.929 . S
S531 N532 1.613 1_554 S
S531 N533 1.610 . S
N532 S531 1.613 1_556 S
N532 C535 1.350 . S
N533 S531 1.610 . S
N533 C534 1.351 . S
C534 C528 1.428 . S
C534 N533 1.351 . S
C534 C535 1.434 1_554 S
C535 C526 1.429 . S
C535 N532 1.350 . S
C535 C534 1.434 1_556 S
C536 C537 1.369 . S
C536 C538 1.419 . S
C536 H540 0.930 . S
C537 C536 1.369 . S
C537 C546 1.429 . S
C538 C536 1.419 . S
C538 C539 1.363 . S
C538 H541 0.929 . S
C539 C538 1.363 . S
C539 C545 1.428 . S
H540 C536 0.930 . S
H541 C538 0.929 . S
S542 N543 1.613 . S
S542 N544 1.610 . S
N543 S542 1.613 . S
N543 C546 1.350 . S
N544 S542 1.610 . S
N544 C545 1.351 . S
C545 C539 1.428 . S
C545 N544 1.351 . S
C545 C546 1.434 . S
C546 C537 1.429 . S
C546 N543 1.350 . S
C546 C545 1.434 . S
C547 C548 1.369 . S
C547 C549 1.419 1_554 S
C547 H551 0.930 . S
C548 C547 1.369 . S
C548 C557 1.429 . S
C549 C547 1.419 1_556 S
C549 C550 1.363 . S
C549 H552 0.929 . S
C550 C549 1.363 . S
C550 C556 1.428 . S
H551 C547 0.930 . S
H552 C549 0.929 . S
S553 N554 1.613 1_556 S
S553 N555 1.610 . S
N554 S553 1.613 1_554 S
N554 C557 1.350 . S
N555 S553 1.610 . S
N555 C556 1.351 . S
C556 C550 1.428 . S
C556 N555 1.351 . S
C556 C557 1.434 1_556 S
C557 C548 1.429 . S
C557 N554 1.350 . S
C557 C556 1.434 1_554 S
C558 C559 1.369 . S
C558 C560 1.419 . S
C558 H562 0.930 . S
C559 C558 1.369 . S
C559 C568 1.429 . S
C560 C558 1.419 . S
C560 C561 1.363 . S
C560 H563 0.929 . S
C561 C560 1.363 . S
C561 C567 1.428 . S
H562 C558 0.930 . S
H563 C560 0.929 . S
S564 N565 1.613 . S
S564 N566 1.610 . S
N565 S564 1.613 . S
N565 C568 1.350 . S
N566 S564 1.610 . S
N566 C567 1.351 . S
C567 C561 1.428 . S
C567 N566 1.351 . S
C567 C568 1.434 . S
C568 C559 1.429 . S
C568 N565 1.350 . S
C568 C567 1.434 . S
C569 C570 1.369 . S
C569 C571 1.419 . S
C569 H573 0.930 . S
C570 C569 1.369 . S
C570 C579 1.429 . S
C571 C569 1.419 . S
C571 C572 1.363 . S
C571 H574 0.929 . S
C572 C571 1.363 . S
C572 C578 1.428 . S
H573 C569 0.930 . S
H574 C571 0.929 . S
S575 N576 1.613 . S
S575 N577 1.610 . S
N576 S575 1.613 . S
N576 C579 1.350 . S
N577 S575 1.610 . S
N577 C578 1.351 . S
C578 C572 1.428 . S
C578 N577 1.351 . S
C578 C579 1.434 . S
C579 C570 1.429 . S
C579 N576 1.350 . S
C579 C578 1.434 . S
C580 C581 1.369 . S
C580 C582 1.419 . S
C580 H584 0.930 . S
C581 C580 1.369 . S
C581 C590 1.429 . S
C582 C580 1.419 . S
C582 C583 1.363 . S
C582 H585 0.929 . S
C583 C582 1.363 . S
C583 C589 1.428 . S
H584 C580 0.930 . S
H585 C582 0.929 . S
S586 N587 1.613 . S
S586 N588 1.610 . S
N587 S586 1.613 . S
N587 C590 1.350 . S
N588 S586 1.610 . S
N588 C589 1.351 . S
C589 C583 1.428 . S
C589 N588 1.351 . S
C589 C590 1.434 . S
C590 C581 1.429 . S
C590 N587 1.350 . S
C590 C589 1.434 . S
C591 C592 1.369 . S
C591 C593 1.419 1_554 S
C591 H595 0.930 . S
C592 C591 1.369 . S
C592 C601 1.429 . S
C593 C591 1.419 1_556 S
C593 C594 1.363 . S
C593 H596 0.929 . S
C594 C593 1.363 . S
C594 C600 1.428 . S
H595 C591 0.930 . S
H596 C593 0.929 . S
S597 N598 1.613 1_556 S
S597 N599 1.610 . S
N598 S597 1.613 1_554 S
N598 C601 1.350 . S
N599 S597 1.610 . S
N599 C600 1.351 . S
C600 C594 1.428 . S
C600 N599 1.351 . S
C600 C601 1.434 1_556 S
C601 C592 1.429 . S
C601 N598 1.350 . S
C601 C600 1.434 1_554 S
C602 C603 1.369 . S
C602 C604 1.419 . S
C602 H606 0.930 . S
C603 C602 1.369 . S
C603 C612 1.429 . S
C604 C602 1.419 . S
C604 C605 1.363 . S
C604 H607 0.929 . S
C605 C604 1.363 . S
C605 C611 1.428 . S
H606 C602 0.930 . S
H607 C604 0.929 . S
S608 N609 1.613 . S
S608 N610 1.610 . S
N609 S608 1.613 . S
N609 C612 1.350 . S
N610 S608 1.610 . S
N610 C611 1.351 . S
C611 C605 1.428 . S
C611 N610 1.351 . S
C611 C612 1.434 . S
C612 C603 1.429 . S
C612 N609 1.350 . S
C612 C611 1.434 . S
C613 C614 1.369 . S
C613 C615 1.419 . S
C613 H617 0.930 . S
C614 C613 1.369 . S
C614 C623 1.429 . S
C615 C613 1.419 . S
C615 C616 1.363 . S
C615 H618 0.929 . S
C616 C615 1.363 . S
C616 C622 1.428 . S
H617 C613 0.930 . S
H618 C615 0.929 . S
S619 N620 1.613 . S
S619 N621 1.610 . S
N620 S619 1.613 . S
N620 C623 1.350 . S
N621 S619 1.610 . S
N621 C622 1.351 . S
C622 C616 1.428 . S
C622 N621 1.351 . S
C622 C623 1.434 . S
C623 C614 1.429 . S
C623 N620 1.350 . S
C623 C622 1.434 . S
C624 C625 1.369 . S
C624 C626 1.419 . S
C624 H628 0.930 . S
C625 C624 1.369 . S
C625 C634 1.429 . S
C626 C624 1.419 . S
C626 C627 1.363 . S
C626 H629 0.929 . S
C627 C626 1.363 . S
C627 C633 1.428 . S
H628 C624 0.930 . S
H629 C626 0.929 . S
S630 N631 1.613 . S
S630 N632 1.610 . S
N631 S630 1.613 . S
N631 C634 1.350 . S
N632 S630 1.610 . S
N632 C633 1.351 . S
C633 C627 1.428 . S
C633 N632 1.351 . S
C633 C634 1.434 . S
C634 C625 1.429 . S
C634 N631 1.350 . S
C634 C633 1.434 . S
C635 C636 1.369 . S
C635 C637 1.419 . S
C635 H639 0.930 . S
C636 C635 1.369 . S
C636 C645 1.429 . S
C637 C635 1.419 . S
C637 C638 1.363 . S
C637 H640 0.929 . S
C638 C637 1.363 . S
C638 C644 1.428 . S
H639 C635 0.930 . S
H640 C637 0.929 . S
S641 N642 1.613 . S
S641 N643 1.610 . S
N642 S641 1.613 . S
N642 C645 1.350 . S
N643 S641 1.610 . S
N643 C644 1.351 . S
C644 C638 1.428 . S
C644 N643 1.351 . S
C644 C645 1.434 . S
C645 C636 1.429 . S
C645 N642 1.350 . S
C645 C644 1.434 . S
C646 C647 1.369 . S
C646 C648 1.419 . S
C646 H650 0.930 . S
C647 C646 1.369 . S
C647 C656 1.429 . S
C648 C646 1.419 . S
C648 C649 1.363 . S
C648 H651 0.929 . S
C649 C648 1.363 . S
C649 C655 1.428 . S
H650 C646 0.930 . S
H651 C648 0.929 . S
S652 N653 1.613 1_545 S
S652 N654 1.616 . S
N653 S652 1.613 1_565 S
N653 C656 1.350 1_565 S
N654 S652 1.616 . S
N654 C655 1.351 . S
C655 C649 1.428 . S
C655 N654 1.351 . S
C655 C656 1.434 . S
C656 C647 1.429 . S
C656 N653 1.350 1_545 S
C656 C655 1.434 . S
C657 C658 1.369 . S
C657 C659 1.419 . S
C657 H661 0.930 . S
C658 C657 1.369 . S
C658 C667 1.429 . S
C659 C657 1.419 . S
C659 C660 1.363 . S
C659 H662 0.929 . S
C660 C659 1.363 . S
C660 C666 1.428 . S
H661 C657 0.930 . S
H662 C659 0.929 . S
S663 N664 1.613 . S
S663 N665 1.610 . S
N664 S663 1.613 . S
N664 C667 1.350 . S
N665 S663 1.610 . S
N665 C666 1.351 . S
C666 C660 1.428 . S
C666 N665 1.351 . S
C666 C667 1.434 . S
C667 C658 1.429 . S
C667 N664 1.350 . S
C667 C666 1.434 . S
C668 C669 1.369 . S
C668 C670 1.419 . S
C668 H672 0.930 . S
C669 C668 1.369 . S
C669 C678 1.429 . S
C670 C668 1.419 . S
C670 C671 1.363 . S
C670 H673 0.929 . S
C671 C670 1.363 . S
C671 C677 1.428 . S
H672 C668 0.930 . S
H673 C670 0.929 . S
S674 N675 1.613 . S
S674 N676 1.610 . S
N675 S674 1.613 . S
N675 C678 1.350 . S
N676 S674 1.610 . S
N676 C677 1.351 . S
C677 C671 1.428 . S
C677 N676 1.351 . S
C677 C678 1.434 . S
C678 C669 1.429 . S
C678 N675 1.350 . S
C678 C677 1.434 . S
C679 C680 1.369 . S
C679 C681 1.419 . S
C679 H683 0.930 . S
C680 C679 1.369 . S
C680 C689 1.429 . S
C681 C679 1.419 . S
C681 C682 1.363 . S
C681 H684 0.929 . S
C682 C681 1.363 . S
C682 C688 1.428 . S
H683 C679 0.930 . S
H684 C681 0.929 . S
S685 N686 1.613 . S
S685 N687 1.610 . S
N686 S685 1.613 . S
N686 C689 1.350 . S
N687 S685 1.610 . S
N687 C688 1.351 . S
C688 C682 1.428 . S
C688 N687 1.351 . S
C688 C689 1.434 . S
C689 C680 1.429 . S
C689 N686 1.350 . S
C689 C688 1.434 . S
C690 C691 1.369 . S
C690 C692 1.419 . S
C690 H694 0.930 . S
C691 C690 1.369 . S
C691 C700 1.429 . S
C692 C690 1.419 . S
C692 C693 1.363 . S
C692 H695 0.929 . S
C693 C692 1.363 . S
C693 C699 1.428 . S
H694 C690 0.930 . S
H695 C692 0.929 . S
S696 N697 1.613 . S
S696 N698 1.610 . S
N697 S696 1.613 . S
N697 C700 1.350 . S
N698 S696 1.610 . S
N698 C699 1.351 . S
C699 C693 1.428 . S
C699 N698 1.351 . S
C699 C700 1.434 . S
C700 C691 1.429 . S
C700 N697 1.350 . S
C700 C699 1.434 . S
C701 C702 1.369 . S
C701 C703 1.419 . S
C701 H705 0.930 . S
C702 C701 1.369 . S
C702 C711 1.429 . S
C703 C701 1.419 . S
C703 C704 1.363 . S
C703 H706 0.929 . S
C704 C703 1.363 . S
C704 C710 1.428 . S
H705 C701 0.930 . S
H706 C703 0.929 . S
S707 N708 1.613 . S
S707 N709 1.610 . S
N708 S707 1.613 . S
N708 C711 1.350 . S
N709 S707 1.610 . S
N709 C710 1.351 . S
C710 C704 1.428 . S
C710 N709 1.351 . S
C710 C711 1.434 . S
C711 C702 1.429 . S
C711 N708 1.350 . S
C711 C710 1.434 . S
C712 C713 1.369 . S
C712 C714 1.419 . S
C712 H716 0.930 . S
C713 C712 1.369 . S
C713 C722 1.429 . S
C714 C712 1.419 . S
C714 C715 1.363 . S
C714 H717 0.929 . S
C715 C714 1.363 . S
C715 C721 1.428 . S
H716 C712 0.930 . S
H717 C714 0.929 . S
S718 N719 1.613 . S
S718 N720 1.610 . S
N719 S718 1.613 . S
N719 C722 1.350 . S
N720 S718 1.610 . S
N720 C721 1.351 . S
C721 C715 1.428 . S
C721 N720 1.351 . S
C721 C722 1.434 . S
C722 C713 1.429 . S
C722 N719 1.350 . S
C722 C721 1.434 . S
C723 C724 1.369 . S
C723 C725 1.419 . S
C723 H727 0.930 . S
C724 C723 1.369 . S
C724 C733 1.429 . S
C725 C723 1.419 . S
C725 C726 1.363 . S
C725 H728 0.929 . S
C726 C725 1.363 . S
C726 C732 1.428 . S
H727 C723 0.930 . S
H728 C725 0.929 . S
S729 N730 1.613 . S
S729 N731 1.610 . S
N730 S729 1.613 . S
N730 C733 1.350 . S
N731 S729 1.610 . S
N731 C732 1.351 . S
C732 C726 1.428 . S
C732 N731 1.351 . S
C732 C733 1.434 . S
C733 C724 1.429 . S
C733 N730 1.350 . S
C733 C732 1.434 . S
C734 C735 1.369 . S
C734 C736 1.419 . S
C734 H738 0.930 . S
C735 C734 1.369 . S
C735 C744 1.429 . S
C736 C734 1.419 . S
C736 C737 1.363 . S
C736 H739 0.929 . S
C737 C736 1.363 . S
C737 C743 1.428 . S
H738 C734 0.930 . S
H739 C736 0.929 . S
S740 N741 1.613 . S
S740 N742 1.610 . S
N741 S740 1.613 . S
N741 C744 1.350 . S
N742 S740 1.610 . S
N742 C743 1.351 . S
C743 C737 1.428 . S
C743 N742 1.351 . S
C743 C744 1.434 . S
C744 C735 1.429 . S
C744 N741 1.350 . S
C744 C743 1.434 . S
C745 C746 1.369 . S
C745 C747 1.419 . S
C745 H749 0.930 . S
C746 C745 1.369 . S
C746 C755 1.429 . S
C747 C745 1.419 . S
C747 C748 1.363 . S
C747 H750 0.929 . S
C748 C747 1.363 . S
C748 C754 1.428 . S
H749 C745 0.930 . S
H750 C747 0.929 . S
S751 N752 1.613 . S
S751 N753 1.610 . S
N752 S751 1.613 . S
N752 C755 1.350 . S
N753 S751 1.610 . S
N753 C754 1.351 . S
C754 C748 1.428 . S
C754 N753 1.351 . S
C754 C755 1.434 . S
C755 C746 1.429 . S
C755 N752 1.350 . S
C755 C754 1.434 . S
C756 C757 1.369 . S
C756 C758 1.419 . S
C756 H760 0.930 . S
C757 C756 1.369 . S
C757 C766 1.429 . S
C758 C756 1.419 . S
C758 C759 1.363 . S
C758 H761 0.929 . S
C759 C758 1.363 . S
C759 C765 1.428 . S
H760 C756 0.930 . S
H761 C758 0.929 . S
S762 N763 1.613 . S
S762 N764 1.610 . S
N763 S762 1.613 . S
N763 C766 1.350 . S
N764 S762 1.610 . S
N764 C765 1.351 . S
C765 C759 1.428 . S
C765 N764 1.351 . S
C765 C766 1.434 . S
C766 C757 1.429 . S
C766 N763 1.350 . S
C766 C765 1.434 . S
C767 C768 1.369 . S
C767 C769 1.419 . S
C767 H771 0.930 . S
C768 C767 1.369 . S
C768 C777 1.429 . S
C769 C767 1.419 . S
C769 C770 1.363 . S
C769 H772 0.929 . S
C770 C769 1.363 . S
C770 C776 1.428 . S
H771 C767 0.930 . S
H772 C769 0.929 . S
S773 N774 1.613 . S
S773 N775 1.610 . S
N774 S773 1.613 . S
N774 C777 1.350 . S
N775 S773 1.610 . S
N775 C776 1.351 . S
C776 C770 1.428 . S
C776 N775 1.351 . S
C776 C777 1.434 . S
C777 C768 1.429 . S
C777 N774 1.350 . S
C777 C776 1.434 . S
C778 C779 1.369 . S
C778 C780 1.419 . S
C778 H782 0.930 . S
C779 C778 1.369 . S
C779 C788 1.429 . S
C780 C778 1.419 . S
C780 C781 1.363 . S
C780 H783 0.929 . S
C781 C780 1.363 . S
C781 C787 1.428 . S
H782 C778 0.930 . S
H783 C780 0.929 . S
S784 N785 1.613 . S
S784 N786 1.610 . S
N785 S784 1.613 . S
N785 C788 1.350 . S
N786 S784 1.610 . S
N786 C787 1.351 . S
C787 C781 1.428 . S
C787 N786 1.351 . S
C787 C788 1.434 . S
C788 C779 1.429 . S
C788 N785 1.350 . S
C788 C787 1.434 . S
C789 C790 1.369 . S
C789 C791 1.419 . S
C789 H793 0.930 . S
C790 C789 1.369 . S
C790 C799 1.429 . S
C791 C789 1.419 . S
C791 C792 1.363 . S
C791 H794 0.929 . S
C792 C791 1.363 . S
C792 C798 1.428 . S
H793 C789 0.930 . S
H794 C791 0.929 . S
S795 N796 1.613 . S
S795 N797 1.610 . S
N796 S795 1.613 . S
N796 C799 1.350 . S
N797 S795 1.610 . S
N797 C798 1.351 . S
C798 C792 1.428 . S
C798 N797 1.351 . S
C798 C799 1.434 . S
C799 C790 1.429 . S
C799 N796 1.350 . S
C799 C798 1.434 . S
C800 C801 1.369 . S
C800 C802 1.419 . S
C800 H804 0.930 . S
C801 C800 1.369 . S
C801 C810 1.429 . S
C802 C800 1.419 . S
C802 C803 1.363 . S
C802 H805 0.929 . S
C803 C802 1.363 . S
C803 C809 1.428 . S
H804 C800 0.930 . S
H805 C802 0.929 . S
S806 N807 1.613 . S
S806 N808 1.610 . S
N807 S806 1.613 . S
N807 C810 1.350 . S
N808 S806 1.610 . S
N808 C809 1.351 . S
C809 C803 1.428 . S
C809 N808 1.351 . S
C809 C810 1.434 . S
C810 C801 1.429 . S
C810 N807 1.350 . S
C810 C809 1.434 . S
C811 C812 1.369 . S
C811 C813 1.419 . S
C811 H815 0.930 . S
C812 C811 1.369 . S
C812 C821 1.429 . S
C813 C811 1.419 . S
C813 C814 1.363 . S
C813 H816 0.929 . S
C814 C813 1.363 . S
C814 C820 1.428 . S
H815 C811 0.930 . S
H816 C813 0.929 . S
S817 N818 1.613 . S
S817 N819 1.610 . S
N818 S817 1.613 . S
N818 C821 1.350 . S
N819 S817 1.610 . S
N819 C820 1.351 . S
C820 C814 1.428 . S
C820 N819 1.351 . S
C820 C821 1.434 . S
C821 C812 1.429 . S
C821 N818 1.350 . S
C821 C820 1.434 . S
C822 C823 1.369 . S
C822 C824 1.419 . S
C822 H826 0.930 . S
C823 C822 1.369 . S
C823 C832 1.429 . S
C824 C822 1.419 . S
C824 C825 1.363 . S
C824 H827 0.929 . S
C825 C824 1.363 . S
C825 C831 1.428 . S
H826 C822 0.930 . S
H827 C824 0.929 . S
S828 N829 1.613 . S
S828 N830 1.610 . S
N829 S828 1.613 . S
N829 C832 1.350 . S
N830 S828 1.610 . S
N830 C831 1.351 . S
C831 C825 1.428 . S
C831 N830 1.351 . S
C831 C832 1.434 . S
C832 C823 1.429 . S
C832 N829 1.350 . S
C832 C831 1.434 . S
C833 C834 1.369 . S
C833 C835 1.419 . S
C833 H837 0.930 . S
C834 C833 1.369 . S
C834 C843 1.429 . S
C835 C833 1.419 . S
C835 C836 1.363 . S
C835 H838 0.929 . S
C836 C835 1.363 . S
C836 C842 1.428 . S
H837 C833 0.930 . S
H838 C835 0.929 . S
S839 N840 1.613 . S
S839 N841 1.610 . S
N840 S839 1.613 . S
N840 C843 1.350 . S
N841 S839 1.610 . S
N841 C842 1.351 . S
C842 C836 1.428 . S
C842 N841 1.351 . S
C842 C843 1.434 . S
C843 C834 1.429 . S
C843 N840 1.350 . S
C843 C842 1.434 . S
C844 C845 1.369 . S
C844 C846 1.419 . S
C844 H848 0.930 . S
C845 C844 1.369 . S
C845 C854 1.429 . S
C846 C844 1.419 . S
C846 C847 1.363 . S
C846 H849 0.929 . S
C847 C846 1.363 . S
C847 C853 1.428 . S
H848 C844 0.930 . S
H849 C846 0.929 . S
S850 N851 1.613 . S
S850 N852 1.610 . S
N851 S850 1.613 . S
N851 C854 1.350 . S
N852 S850 1.610 . S
N852 C853 1.351 . S
C853 C847 1.428 . S
C853 N852 1.351 . S
C853 C854 1.434 . S
C854 C845 1.429 . S
C854 N851 1.350 . S
C854 C853 1.434 . S
C855 C856 1.369 . S
C855 C857 1.419 . S
C855 H859 0.930 . S
C856 C855 1.369 . S
C856 C865 1.429 . S
C857 C855 1.419 . S
C857 C858 1.363 . S
C857 H860 0.929 . S
C858 C857 1.363 . S
C858 C864 1.428 . S
H859 C855 0.930 . S
H860 C857 0.929 . S
S861 N862 1.613 . S
S861 N863 1.610 . S
N862 S861 1.613 . S
N862 C865 1.350 . S
N863 S861 1.610 . S
N863 C864 1.351 . S
C864 C858 1.428 . S
C864 N863 1.351 . S
C864 C865 1.434 . S
C865 C856 1.429 . S
C865 N862 1.350 . S
C865 C864 1.434 . S
C866 C867 1.369 . S
C866 C868 1.419 . S
C866 H870 0.930 . S
C867 C866 1.369 . S
C867 C876 1.429 . S
C868 C866 1.419 . S
C868 C869 1.363 . S
C868 H871 0.929 . S
C869 C868 1.363 . S
C869 C875 1.428 . S
H870 C866 0.930 . S
H871 C868 0.929 . S
S872 N873 1.613 . S
S872 N874 1.610 . S
N873 S872 1.613 . S
N873 C876 1.350 . S
N874 S872 1.610 . S
N874 C875 1.351 . S
C875 C869 1.428 . S
C875 N874 1.351 . S
C875 C876 1.434 . S
C876 C867 1.429 . S
C876 N873 1.350 . S
C876 C875 1.434 . S
C877 C878 1.369 . S
C877 C879 1.419 . S
C877 H881 0.930 . S
C878 C877 1.369 . S
C878 C887 1.429 . S
C879 C877 1.419 . S
C879 C880 1.363 . S
C879 H882 0.929 . S
C880 C879 1.363 . S
C880 C886 1.428 . S
H881 C877 0.930 . S
H882 C879 0.929 . S
S883 N884 1.613 . S
S883 N885 1.613 . S
N884 S883 1.613 . S
N884 C887 1.350 . S
N885 S883 1.613 . S
N885 C886 1.361 . S
C886 C880 1.428 . S
C886 N885 1.361 . S
C886 C887 1.434 . S
C887 C878 1.429 . S
C887 N884 1.350 . S
C887 C886 1.434 . S
C888 C889 1.369 . S
C888 C890 1.419 . S
C888 H892 0.930 . S
C889 C888 1.369 . S
C889 C898 1.429 . S
C890 C888 1.419 . S
C890 C891 1.363 . S
C890 H893 0.929 . S
C891 C890 1.363 . S
C891 C897 1.428 . S
H892 C888 0.930 . S
H893 C890 0.929 . S
S894 N895 1.613 . S
S894 N896 1.610 . S
N895 S894 1.613 . S
N895 C898 1.350 . S
N896 S894 1.610 . S
N896 C897 1.351 . S
C897 C891 1.428 . S
C897 N896 1.351 . S
C897 C898 1.434 . S
C898 C889 1.429 . S
C898 N895 1.350 . S
C898 C897 1.434 . S
C899 C900 1.369 . S
C899 C901 1.419 . S
C899 H903 0.930 . S
C900 C899 1.369 . S
C900 C909 1.429 . S
C901 C899 1.419 . S
C901 C902 1.363 . S
C901 H904 0.929 . S
C902 C901 1.363 . S
C902 C908 1.428 . S
H903 C899 0.930 . S
H904 C901 0.929 . S
S905 N906 1.613 . S
S905 N907 1.610 . S
N906 S905 1.613 . S
N906 C909 1.350 . S
N907 S905 1.610 . S
N907 C908 1.351 . S
C908 C902 1.428 . S
C908 N907 1.351 . S
C908 C909 1.434 . S
C909 C900 1.429 . S
C909 N906 1.350 . S
C909 C908 1.434 . S
C910 C911 1.369 . S
C910 C912 1.419 . S
C910 H914 0.930 . S
C911 C910 1.369 . S
C911 C920 1.429 . S
C912 C910 1.419 . S
C912 C913 1.363 . S
C912 H915 0.929 . S
C913 C912 1.363 . S
C913 C919 1.428 . S
H914 C910 0.930 . S
H915 C912 0.929 . S
S916 N917 1.613 . S
S916 N918 1.610 . S
N917 S916 1.613 . S
N917 C920 1.350 . S
N918 S916 1.610 . S
N918 C919 1.351 . S
C919 C913 1.428 . S
C919 N918 1.351 . S
C919 C920 1.434 . S
C920 C911 1.429 . S
C920 N917 1.350 . S
C920 C919 1.434 . S
C921 C922 1.369 . S
C921 C923 1.419 . S
C921 H925 0.930 . S
C922 C921 1.369 . S
C922 C931 1.429 . S
C923 C921 1.419 . S
C923 C924 1.363 . S
C923 H926 0.929 . S
C924 C923 1.363 . S
C924 C930 1.428 . S
H925 C921 0.930 . S
H926 C923 0.929 . S
S927 N928 1.613 . S
S927 N929 1.610 . S
N928 S927 1.613 . S
N928 C931 1.350 . S
N929 S927 1.610 . S
N929 C930 1.351 . S
C930 C924 1.428 . S
C930 N929 1.351 . S
C930 C931 1.434 . S
C931 C922 1.429 . S
C931 N928 1.350 . S
C931 C930 1.434 . S
C932 C933 1.369 . S
C932 C934 1.419 . S
C932 H936 0.930 . S
C933 C932 1.369 . S
C933 C942 1.429 . S
C934 C932 1.419 . S
C934 C935 1.363 . S
C934 H937 0.929 . S
C935 C934 1.363 . S
C935 C941 1.428 . S
H936 C932 0.930 . S
H937 C934 0.929 . S
S938 N939 1.613 . S
S938 N940 1.610 . S
N939 S938 1.613 . S
N939 C942 1.350 . S
N940 S938 1.610 . S
N940 C941 1.351 . S
C941 C935 1.428 . S
C941 N940 1.351 . S
C941 C942 1.434 . S
C942 C933 1.429 . S
C942 N939 1.350 . S
C942 C941 1.434 . S
C943 C944 1.369 . S
C943 C945 1.419 . S
C943 H947 0.930 . S
C944 C943 1.369 . S
C944 C953 1.429 . S
C945 C943 1.419 . S
C945 C946 1.363 . S
C945 H948 0.929 . S
C946 C945 1.363 . S
C946 C952 1.428 . S
H947 C943 0.930 . S
H948 C945 0.929 . S
S949 N950 1.613 . S
S949 N951 1.610 . S
N950 S949 1.613 . S
N950 C953 1.350 . S
N951 S949 1.610 . S
N951 C952 1.351 . S
C952 C946 1.428 . S
C952 N951 1.351 . S
C952 C953 1.434 . S
C953 C944 1.429 . S
C953 N950 1.350 . S
C953 C952 1.434 . S
C954 C955 1.369 . S
C954 C956 1.419 . S
C954 H958 0.930 . S
C955 C954 1.369 . S
C955 C964 1.429 . S
C956 C954 1.419 . S
C956 C957 1.363 . S
C956 H959 0.929 . S
C957 C956 1.363 . S
C957 C963 1.428 . S
H958 C954 0.930 . S
H959 C956 0.929 . S
S960 N961 1.613 . S
S960 N962 1.610 . S
N961 S960 1.613 . S
N961 C964 1.350 . S
N962 S960 1.610 . S
N962 C963 1.351 . S
C963 C957 1.428 . S
C963 N962 1.351 . S
C963 C964 1.434 . S
C964 C955 1.429 . S
C964 N961 1.350 . S
C964 C963 1.434 . S
C965 C966 1.369 . S
C965 C967 1.419 . S
C965 H969 0.930 . S
C966 C965 1.369 . S
C966 C975 1.429 . S
C967 C965 1.419 . S
C967 C968 1.363 . S
C967 H970 0.929 . S
C968 C967 1.363 . S
C968 C974 1.428 . S
H969 C965 0.930 . S
H970 C967 0.929 . S
S971 N972 1.613 . S
S971 N973 1.610 . S
N972 S971 1.613 . S
N972 C975 1.350 . S
N973 S971 1.610 . S
N973 C974 1.351 . S
C974 C968 1.428 . S
C974 N973 1.351 . S
C974 C975 1.434 . S
C975 C966 1.429 . S
C975 N972 1.350 . S
C975 C974 1.434 . S
C976 C977 1.369 . S
C976 C978 1.419 . S
C976 H980 0.930 . S
C977 C976 1.369 . S
C977 C986 1.429 . S
C978 C976 1.419 . S
C978 C979 1.363 . S
C978 H981 0.929 . S
C979 C978 1.363 . S
C979 C985 1.428 . S
H980 C976 0.930 . S
H981 C978 0.929 . S
S982 N983 1.613 . S
S982 N984 1.610 . S
N983 S982 1.613 . S
N983 C986 1.350 . S
N984 S982 1.610 . S
N984 C985 1.351 . S
C985 C979 1.428 . S
C985 N984 1.351 . S
C985 C986 1.434 . S
C986 C977 1.429 . S
C986 N983 1.350 . S
C986 C985 1.434 . S
C987 C988 1.369 . S
C987 C989 1.419 . S
C987 H991 0.930 . S
C988 C987 1.369 . S
C988 C997 1.429 . S
C989 C987 1.419 . S
C989 C990 1.363 . S
C989 H992 0.929 . S
C990 C989 1.363 . S
C990 C996 1.428 . S
H991 C987 0.930 . S
H992 C989 0.929 . S
S993 N994 1.613 . S
S993 N995 1.610 . S
N994 S993 1.613 . S
N994 C997 1.350 . S
N995 S993 1.610 . S
N995 C996 1.351 . S
C996 C990 1.428 . S
C996 N995 1.351 . S
C996 C997 1.434 . S
C997 C988 1.429 . S
C997 N994 1.350 . S
C997 C996 1.434 . S
C998 C999 1.369 . S
C998 C1000 1.419 . S
C998 H1002 0.930 . S
C999 C998 1.369 . S
C999 C1008 1.429 . S
C1000 C998 1.419 . S
C1000 C1001 1.363 . S
C1000 H1003 0.929 . S
C1001 C1000 1.363 . S
C1001 C1007 1.428 . S
H1002 C998 0.930 . S
H1003 C1000 0.929 . S
S1004 N1005 1.613 . S
S1004 N1006 1.610 . S
N1005 S1004 1.613 . S
N1005 C1008 1.350 . S
N1006 S1004 1.610 . S
N1006 C1007 1.351 . S
C1007 C1001 1.428 . S
C1007 N1006 1.351 . S
C1007 C1008 1.434 . S
C1008 C999 1.429 . S
C1008 N1005 1.350 . S
C1008 C1007 1.434 . S
C1009 C1010 1.369 . S
C1009 C1011 1.419 . S
C1009 H1013 0.930 . S
C1010 C1009 1.369 . S
C1010 C1019 1.429 . S
C1011 C1009 1.419 . S
C1011 C1012 1.363 . S
C1011 H1014 0.929 . S
C1012 C1011 1.363 . S
C1012 C1018 1.428 . S
H1013 C1009 0.930 . S
H1014 C1011 0.929 . S
S1015 N1016 1.613 . S
S1015 N1017 1.610 . S
N1016 S1015 1.613 . S
N1016 C1019 1.350 . S
N1017 S1015 1.610 . S
N1017 C1018 1.351 . S
C1018 C1012 1.428 . S
C1018 N1017 1.351 . S
C1018 C1019 1.434 . S
C1019 C1010 1.429 . S
C1019 N1016 1.350 . S
C1019 C1018 1.434 . S
C1020 C1021 1.369 . S
C1020 C1022 1.419 . S
C1020 H1024 0.930 . S
C1021 C1020 1.369 . S
C1021 C1030 1.429 . S
C1022 C1020 1.419 . S
C1022 C1023 1.363 . S
C1022 H1025 0.929 . S
C1023 C1022 1.363 . S
C1023 C1029 1.428 . S
H1024 C1020 0.930 . S
H1025 C1022 0.929 . S
S1026 N1027 1.613 . S
S1026 N1028 1.610 . S
N1027 S1026 1.613 . S
N1027 C1030 1.350 . S
N1028 S1026 1.610 . S
N1028 C1029 1.351 . S
C1029 C1023 1.428 . S
C1029 N1028 1.351 . S
C1029 C1030 1.434 . S
C1030 C1021 1.429 . S
C1030 N1027 1.350 . S
C1030 C1029 1.434 . S
C1031 C1032 1.369 . S
C1031 C1033 1.419 . S
C1031 H1035 0.930 . S
C1032 C1031 1.369 . S
C1032 C1041 1.429 . S
C1033 C1031 1.419 . S
C1033 C1034 1.363 . S
C1033 H1036 0.929 . S
C1034 C1033 1.363 . S
C1034 C1040 1.428 . S
H1035 C1031 0.930 . S
H1036 C1033 0.929 . S
S1037 N1038 1.613 . S
S1037 N1039 1.610 . S
N1038 S1037 1.613 . S
N1038 C1041 1.350 . S
N1039 S1037 1.610 . S
N1039 C1040 1.351 . S
C1040 C1034 1.428 . S
C1040 N1039 1.351 . S
C1040 C1041 1.434 . S
C1041 C1032 1.429 . S
C1041 N1038 1.350 . S
C1041 C1040 1.434 . S
C1042 C1043 1.369 . S
C1042 C1044 1.419 . S
C1042 H1046 0.930 . S
C1043 C1042 1.369 . S
C1043 C1052 1.429 . S
C1044 C1042 1.419 . S
C1044 C1045 1.363 . S
C1044 H1047 0.929 . S
C1045 C1044 1.363 . S
C1045 C1051 1.428 . S
H1046 C1042 0.930 . S
H1047 C1044 0.929 . S
S1048 N1049 1.613 . S
S1048 N1050 1.610 . S
N1049 S1048 1.613 . S
N1049 C1052 1.350 . S
N1050 S1048 1.610 . S
N1050 C1051 1.351 . S
C1051 C1045 1.428 . S
C1051 N1050 1.351 . S
C1051 C1052 1.434 . S
C1052 C1043 1.429 . S
C1052 N1049 1.350 . S
C1052 C1051 1.434 . S
C1053 C1054 1.369 . S
C1053 C1055 1.419 . S
C1053 H1057 0.930 . S
C1054 C1053 1.369 . S
C1054 C1063 1.429 . S
C1055 C1053 1.419 . S
C1055 C1056 1.363 . S
C1055 H1058 0.929 . S
C1056 C1055 1.363 . S
C1056 C1062 1.428 . S
H1057 C1053 0.930 . S
H1058 C1055 0.929 . S
S1059 N1060 1.613 . S
S1059 N1061 1.610 . S
N1060 S1059 1.613 . S
N1060 C1063 1.350 . S
N1061 S1059 1.610 . S
N1061 C1062 1.351 . S
C1062 C1056 1.428 . S
C1062 N1061 1.351 . S
C1062 C1063 1.434 . S
C1063 C1054 1.429 . S
C1063 N1060 1.350 . S
C1063 C1062 1.434 . S
C1064 C1065 1.369 . S
C1064 C1066 1.419 . S
C1064 H1068 0.930 . S
C1065 C1064 1.369 . S
C1065 C1074 1.429 . S
C1066 C1064 1.419 . S
C1066 C1067 1.363 . S
C1066 H1069 0.929 . S
C1067 C1066 1.363 . S
C1067 C1073 1.428 . S
H1068 C1064 0.930 . S
H1069 C1066 0.929 . S
S1070 N1071 1.613 . S
S1070 N1072 1.610 . S
N1071 S1070 1.613 . S
N1071 C1074 1.350 . S
N1072 S1070 1.610 . S
N1072 C1073 1.351 . S
C1073 C1067 1.428 . S
C1073 N1072 1.351 . S
C1073 C1074 1.434 . S
C1074 C1065 1.429 . S
C1074 N1071 1.350 . S
C1074 C1073 1.434 . S
C1075 C1076 1.369 . S
C1075 C1077 1.419 . S
C1075 H1079 0.930 . S
C1076 C1075 1.369 . S
C1076 C1085 1.429 . S
C1077 C1075 1.419 . S
C1077 C1078 1.363 . S
C1077 H1080 0.929 . S
C1078 C1077 1.363 . S
C1078 C1084 1.428 . S
H1079 C1075 0.930 . S
H1080 C1077 0.929 . S
S1081 N1082 1.613 . S
S1081 N1083 1.610 . S
N1082 S1081 1.613 . S
N1082 C1085 1.350 . S
N1083 S1081 1.610 . S
N1083 C1084 1.351 . S
C1084 C1078 1.428 . S
C1084 N1083 1.351 . S
C1084 C1085 1.434 . S
C1085 C1076 1.429 . S
C1085 N1082 1.350 . S
C1085 C1084 1.434 . S
C1086 C1087 1.369 . S
C1086 C1088 1.419 . S
C1086 H1090 0.930 . S
C1087 C1086 1.369 . S
C1087 C1096 1.429 . S
C1088 C1086 1.419 . S
C1088 C1089 1.363 . S
C1088 H1091 0.929 . S
C1089 C1088 1.363 . S
C1089 C1095 1.428 . S
H1090 C1086 0.930 . S
H1091 C1088 0.929 . S
S1092 N1093 1.613 . S
S1092 N1094 1.610 . S
N1093 S1092 1.613 . S
N1093 C1096 1.350 . S
N1094 S1092 1.610 . S
N1094 C1095 1.351 . S
C1095 C1089 1.428 . S
C1095 N1094 1.351 . S
C1095 C1096 1.434 . S
C1096 C1087 1.429 . S
C1096 N1093 1.350 . S
C1096 C1095 1.434 . S
C1097 C1098 1.369 . S
C1097 C1099 1.419 . S
C1097 H1101 0.930 . S
C1098 C1097 1.369 . S
C1098 C1107 1.429 . S
C1099 C1097 1.419 . S
C1099 C1100 1.363 . S
C1099 H1102 0.929 . S
C1100 C1099 1.363 . S
C1100 C1106 1.428 . S
H1101 C1097 0.930 . S
H1102 C1099 0.929 . S
S1103 N1104 1.613 1_455 S
S1103 N1105 1.610 . S
N1104 S1103 1.613 1_655 S
N1104 C1107 1.350 1_655 S
N1105 S1103 1.610 . S
N1105 C1106 1.351 . S
C1106 C1100 1.428 . S
C1106 N1105 1.351 . S
C1106 C1107 1.434 . S
C1107 C1098 1.429 . S
C1107 N1104 1.350 1_455 S
C1107 C1106 1.434 . S
C1108 C1109 1.369 . S
C1108 C1110 1.419 . S
C1108 H1112 0.930 . S
C1109 C1108 1.369 . S
C1109 C1118 1.429 . S
C1110 C1108 1.419 . S
C1110 C1111 1.363 . S
C1110 H1113 0.929 . S
C1111 C1110 1.363 . S
C1111 C1117 1.428 . S
H1112 C1108 0.930 . S
H1113 C1110 0.929 . S
S1114 N1115 1.613 . S
S1114 N1116 1.610 . S
N1115 S1114 1.613 . S
N1115 C1118 1.350 . S
N1116 S1114 1.610 . S
N1116 C1117 1.351 . S
C1117 C1111 1.428 . S
C1117 N1116 1.351 . S
C1117 C1118 1.434 . S
C1118 C1109 1.429 . S
C1118 N1115 1.350 . S
C1118 C1117 1.434 . S
C1119 C1120 1.369 . S
C1119 C1121 1.419 . S
C1119 H1123 0.930 . S
C1120 C1119 1.369 . S
C1120 C1129 1.429 . S
C1121 C1119 1.419 . S
C1121 C1122 1.363 . S
C1121 H1124 0.929 . S
C1122 C1121 1.363 . S
C1122 C1128 1.428 . S
H1123 C1119 0.930 . S
H1124 C1121 0.929 . S
S1125 N1126 1.613 . S
S1125 N1127 1.610 . S
N1126 S1125 1.613 . S
N1126 C1129 1.350 . S
N1127 S1125 1.610 . S
N1127 C1128 1.351 . S
C1128 C1122 1.428 . S
C1128 N1127 1.351 . S
C1128 C1129 1.434 . S
C1129 C1120 1.429 . S
C1129 N1126 1.350 . S
C1129 C1128 1.434 . S
C1130 C1131 1.369 . S
C1130 C1132 1.419 . S
C1130 H1134 0.930 . S
C1131 C1130 1.369 . S
C1131 C1140 1.429 . S
C1132 C1130 1.419 . S
C1132 C1133 1.363 . S
C1132 H1135 0.929 . S
C1133 C1132 1.363 . S
C1133 C1139 1.428 . S
H1134 C1130 0.930 . S
H1135 C1132 0.929 . S
S1136 N1137 1.613 . S
S1136 N1138 1.610 . S
N1137 S1136 1.613 . S
N1137 C1140 1.350 . S
N1138 S1136 1.610 . S
N1138 C1139 1.351 . S
C1139 C1133 1.428 . S
C1139 N1138 1.351 . S
C1139 C1140 1.434 . S
C1140 C1131 1.429 . S
C1140 N1137 1.350 . S
C1140 C1139 1.434 . S
C1141 C1142 1.369 . S
C1141 C1143 1.419 . S
C1141 H1145 0.930 . S
C1142 C1141 1.369 . S
C1142 C1151 1.429 . S
C1143 C1141 1.419 . S
C1143 C1144 1.363 . S
C1143 H1146 0.929 . S
C1144 C1143 1.363 . S
C1144 C1150 1.428 . S
H1145 C1141 0.930 . S
H1146 C1143 0.929 . S
S1147 N1148 1.613 . S
S1147 N1149 1.610 . S
N1148 S1147 1.613 . S
N1148 C1151 1.350 . S
N1149 S1147 1.610 . S
N1149 C1150 1.351 . S
C1150 C1144 1.428 . S
C1150 N1149 1.351 . S
C1150 C1151 1.434 . S
C1151 C1142 1.429 . S
C1151 N1148 1.350 . S
C1151 C1150 1.434 . S
C449 C67 1.502 . S
C451 C11 1.501 . S
C460 C81 1.501 . S
C462 C25 1.502 . S
C471 C95 1.501 . S
C473 C39 1.502 . S
C482 C53 1.500 . S
C484 C109 1.500 . S
C493 C123 1.501 . S
C495 C179 1.500 . S
C504 C193 1.500 . S
C506 C137 1.500 . S
C515 C151 1.500 . S
C517 C207 1.502 . S
C526 C221 1.502 . S
C528 C165 1.501 . S
C537 C235 1.501 . S
C539 C291 1.500 . S
C548 C305 1.500 . S
C550 C249 1.500 . S
C559 C319 1.500 . S
C561 C263 1.501 . S
C570 C333 1.500 . S
C572 C277 1.500 . S
C581 C347 1.501 . S
C583 C403 1.500 . S
C592 C361 1.501 . S
C594 C417 1.500 . S
C603 C375 1.500 . S
C605 C431 1.501 . S
C614 C389 1.500 . S
C616 C445 1.501 . S
C625 C13 1.117 . S
C627 C111 1.110 . S
C636 C27 1.107 . S
C638 C69 1.117 . S
C647 C41 1.112 . S
C649 C83 1.111 . S
C658 C97 1.112 . S
C660 C55 1.114 . S
C669 C223 1.115 . S
C671 C125 1.113 . S
C680 C181 1.117 . S
C682 C139 1.111 . S
C691 C195 1.109 . S
C693 C153 1.116 . S
C702 C167 1.117 . S
C704 C209 1.111 . S
C713 C335 1.109 . S
C715 C237 1.116 . S
C724 C293 1.114 . S
C726 C251 1.113 . S
C735 C307 1.114 . S
C737 C265 1.113 . S
C746 C279 1.117 . S
C748 C321 1.110 . S
C757 C349 1.107 . S
C759 C447 1.115 . S
C768 C363 1.117 . S
C770 C405 1.110 . S
C779 C377 1.110 . S
C781 C419 1.111 . S
C790 C433 1.108 . S
C792 C391 1.114 . S
C801 C8 1.445 . S
C803 C357 1.484 . S
C812 C22 1.447 . S
C814 C147 1.483 1_455 S
C823 C36 1.442 . S
C825 C385 1.484 . S
C834 C119 1.479 . S
C836 C50 1.450 . S
C845 C441 1.481 . S
C847 C64 1.447 . S
C856 C78 1.451 . S
C858 C175 1.480 . S
C867 C92 1.448 . S
C869 C413 1.482 . S
C878 C106 1.450 . S
C880 C203 1.480 1_455 S
C889 C245 1.486 . S
C891 C120 1.442 . S
C900 C35 1.486 1_655 S
C902 C134 1.442 . S
C911 C273 1.483 . S
C913 C148 1.447 . S
C922 C162 1.442 . S
C924 C7 1.483 . S
C933 C329 1.485 . S
C935 C176 1.442 . S
C944 C63 1.480 . S
C946 C190 1.447 . S
C955 C301 1.479 . S
C957 C204 1.450 . S
C966 C91 1.486 1_655 S
C968 C218 1.442 . S
C977 C133 1.483 . S
C979 C232 1.447 . S
C988 C246 1.444 . S
C990 C371 1.484 . S
C999 C260 1.441 . S
C1001 C161 1.485 . S
C1010 C274 1.443 . S
C1012 C343 1.484 1_655 S
C1021 C288 1.442 . S
C1023 C217 1.484 . S
C1032 C399 1.483 1_655 S
C1034 C302 1.446 . S
C1043 C316 1.451 . S
C1045 C189 1.480 . S
C1054 C330 1.443 . S
C1056 C427 1.483 . S
C1065 C344 1.450 . S
C1067 C21 1.481 . S
C1076 C358 1.451 . S
C1078 C259 1.480 . S
C1087 C49 1.486 . S
C1089 C372 1.442 . S
C1098 C231 1.480 1_455 S
C1100 C386 1.450 . S
C1109 C400 1.450 . S
C1111 C105 1.481 . S
C1120 C414 1.445 . S
C1122 C287 1.482 1_455 S
C1131 C77 1.483 . S
C1133 C428 1.447 . S
C1142 C315 1.480 . S
C1144 C442 1.449 . S
