# Generated by pormake.
# Topology upc, (4)-cn, num edge types: 1
# Building blocks:
#     Node 0, Type 0, BuildingBlock: ICAMEG_clean_sbu_1, # of connection points: 4
#     Node 1, Type 0, BuildingBlock: ICAMEG_clean_sbu_1, # of connection points: 4
#     Node 2, Type 0, BuildingBlock: ICAMEG_clean_sbu_1, # of connection points: 4
#     Node 3, Type 0, BuildingBlock: ICAMEG_clean_sbu_1, # of connection points: 4
#     Node 4, Type 0, BuildingBlock: ICAMEG_clean_sbu_1, # of connection points: 4
#     Node 5, Type 0, BuildingBlock: ICAMEG_clean_sbu_1, # of connection points: 4
#     Node 6, Type 0, BuildingBlock: ICAMEG_clean_sbu_1, # of connection points: 4
#     Node 7, Type 0, BuildingBlock: ICAMEG_clean_sbu_1, # of connection points: 4
#     Node 8, Type 0, BuildingBlock: ICAMEG_clean_sbu_1, # of connection points: 4
#     Node 9, Type 0, BuildingBlock: ICAMEG_clean_sbu_1, # of connection points: 4
#     Node 10, Type 0, BuildingBlock: ICAMEG_clean_sbu_1, # of connection points: 4
#     Node 11, Type 0, BuildingBlock: ICAMEG_clean_sbu_1, # of connection points: 4
#     Node 12, Type 0, BuildingBlock: ICAMEG_clean_sbu_1, # of connection points: 4
#     Node 13, Type 0, BuildingBlock: ICAMEG_clean_sbu_1, # of connection points: 4
#     Node 14, Type 0, BuildingBlock: ICAMEG_clean_sbu_1, # of connection points: 4
#     Node 15, Type 0, BuildingBlock: ICAMEG_clean_sbu_1, # of connection points: 4
#     Edge 16, Type (0, 0), BuildingBlock: KIFKEQ_clean_linker_1, # of connection points: 2
#     Edge 17, Type (0, 0), BuildingBlock: KIFKEQ_clean_linker_1, # of connection points: 2
#     Edge 18, Type (0, 0), BuildingBlock: KIFKEQ_clean_linker_1, # of connection points: 2
#     Edge 19, Type (0, 0), BuildingBlock: KIFKEQ_clean_linker_1, # of connection points: 2
#     Edge 20, Type (0, 0), BuildingBlock: KIFKEQ_clean_linker_1, # of connection points: 2
#     Edge 21, Type (0, 0), BuildingBlock: KIFKEQ_clean_linker_1, # of connection points: 2
#     Edge 22, Type (0, 0), BuildingBlock: KIFKEQ_clean_linker_1, # of connection points: 2
#     Edge 23, Type (0, 0), BuildingBlock: KIFKEQ_clean_linker_1, # of connection points: 2
#     Edge 24, Type (0, 0), BuildingBlock: KIFKEQ_clean_linker_1, # of connection points: 2
#     Edge 25, Type (0, 0), BuildingBlock: KIFKEQ_clean_linker_1, # of connection points: 2
#     Edge 26, Type (0, 0), BuildingBlock: KIFKEQ_clean_linker_1, # of connection points: 2
#     Edge 27, Type (0, 0), BuildingBlock: KIFKEQ_clean_linker_1, # of connection points: 2
#     Edge 28, Type (0, 0), BuildingBlock: KIFKEQ_clean_linker_1, # of connection points: 2
#     Edge 29, Type (0, 0), BuildingBlock: KIFKEQ_clean_linker_1, # of connection points: 2
#     Edge 30, Type (0, 0), BuildingBlock: KIFKEQ_clean_linker_1, # of connection points: 2
#     Edge 31, Type (0, 0), BuildingBlock: KIFKEQ_clean_linker_1, # of connection points: 2
#     Edge 32, Type (0, 0), BuildingBlock: KIFKEQ_clean_linker_1, # of connection points: 2
#     Edge 33, Type (0, 0), BuildingBlock: KIFKEQ_clean_linker_1, # of connection points: 2
#     Edge 34, Type (0, 0), BuildingBlock: KIFKEQ_clean_linker_1, # of connection points: 2
#     Edge 35, Type (0, 0), BuildingBlock: KIFKEQ_clean_linker_1, # of connection points: 2
#     Edge 36, Type (0, 0), BuildingBlock: KIFKEQ_clean_linker_1, # of connection points: 2
#     Edge 37, Type (0, 0), BuildingBlock: KIFKEQ_clean_linker_1, # of connection points: 2
#     Edge 38, Type (0, 0), BuildingBlock: KIFKEQ_clean_linker_1, # of connection points: 2
#     Edge 39, Type (0, 0), BuildingBlock: KIFKEQ_clean_linker_1, # of connection points: 2
#     Edge 40, Type (0, 0), BuildingBlock: KIFKEQ_clean_linker_1, # of connection points: 2
#     Edge 41, Type (0, 0), BuildingBlock: KIFKEQ_clean_linker_1, # of connection points: 2
#     Edge 42, Type (0, 0), BuildingBlock: KIFKEQ_clean_linker_1, # of connection points: 2
#     Edge 43, Type (0, 0), BuildingBlock: KIFKEQ_clean_linker_1, # of connection points: 2
#     Edge 44, Type (0, 0), BuildingBlock: KIFKEQ_clean_linker_1, # of connection points: 2
#     Edge 45, Type (0, 0), BuildingBlock: KIFKEQ_clean_linker_1, # of connection points: 2
#     Edge 46, Type (0, 0), BuildingBlock: KIFKEQ_clean_linker_1, # of connection points: 2
#     Edge 47, Type (0, 0), BuildingBlock: KIFKEQ_clean_linker_1, # of connection points: 2
# Relax obj value: 0.215
# Max RMSD: 0.209
# Mean RMSD: 0.209
data_MOF--net-upc--node1-ICAMEG_clean_sbu_1--edge1-KIFKEQ_clean_linker_1
_symmetry_space_group_name_H-M    P1
_symmetry_Int_Tables_number       1
_symmetry_cell_setting            triclinic
loop_
_symmetry_equiv_pos_as_xyz
'x, y, z'
_cell_length_a     35.962232
_cell_length_b     35.960841
_cell_length_c     47.688745
_cell_angle_alpha  90.011046
_cell_angle_beta   89.978194
_cell_angle_gamma 90.011108
loop_
_atom_site_label
_atom_site_type_symbol
_atom_site_fract_x
_atom_site_fract_y
_atom_site_fract_z
_atom_type_partial_charge
Co0 Co 0.13885 0.59524 0.1493 0.0
Co1 Co 0.07322 0.64723 0.11379 0.0
O2 O 0.0931 0.60047 0.12789 0.0
C3 C 0.07987 0.56588 0.18459 0.0
O4 O 0.06231 0.59637 0.17742 0.0
C5 C 0.07673 0.5944 0.06608 0.0
O6 O 0.1112 0.58774 0.07362 0.0
O7 O 0.12252 0.66113 0.09755 0.0
O8 O 0.16498 0.6315 0.12416 0.0
H9 H 0.07275 0.78496 0.0962 0.0
H10 H 0.10068 0.52743 0.12872 0.0
O11 O 0.11256 0.5598 0.17527 0.0
H12 H 0.22494 0.52521 0.08498 0.0
H13 H 0.23422 0.52306 0.20403 0.0
H14 H 0.19698 0.64703 0.1699 0.0
H15 H 0.20716 0.57611 0.11699 0.0
H16 H 0.1773 0.53084 0.17572 0.0
O17 O 0.05854 0.62034 0.07819 0.0
H18 H 0.0974 0.72602 0.11502 0.0
H19 H 0.006 0.66699 0.0804 0.0
H20 H 0.25426 0.64049 0.19792 0.0
H21 H 0.11746 0.47575 0.09713 0.0
H22 H 0.27316 0.57815 0.21523 0.0
H23 H 0.17994 0.47452 0.07493 0.0
O24 O 0.12474 0.63674 0.17446 0.0
H25 H 0.96581 0.56186 0.13449 0.0
H26 H 0.01784 0.68723 0.14922 0.0
H27 H 0.95777 0.67077 0.17085 0.0
H28 H 0.93134 0.60771 0.1635 0.0
H29 H 0.02598 0.57927 0.11354 0.0
H30 H 0.98048 0.72525 0.06102 0.0
H31 H 0.01388 0.7848 0.06897 0.0
O32 O 0.08663 0.67399 0.14978 0.0
C33 C 0.15608 0.65494 0.10512 0.0
C34 C 0.05789 0.75921 0.09265 0.0
C35 C 0.00614 0.72568 0.07287 0.0
N36 N 0.05305 0.69317 0.09894 0.0
C37 C 0.07166 0.72577 0.10332 0.0
C38 C 0.02077 0.69277 0.08383 0.0
C39 C 0.02488 0.75909 0.07735 0.0
C40 C 0.12807 0.52684 0.1194 0.0
N41 N 0.15299 0.55462 0.12479 0.0
C42 C 0.13736 0.49759 0.10144 0.0
C43 C 0.1724 0.49696 0.08894 0.0
C44 C 0.19765 0.52542 0.09455 0.0
C45 C 0.18739 0.55422 0.11262 0.0
C46 C 0.22632 0.55035 0.19655 0.0
C47 C 0.20521 0.61977 0.17715 0.0
C48 C 0.19411 0.55493 0.18055 0.0
N49 N 0.18406 0.58929 0.17096 0.0
C50 C 0.23759 0.61626 0.19309 0.0
C51 C 0.24816 0.58128 0.20282 0.0
C52 C 0.10525 0.66613 0.17192 0.0
C53 C 0.97696 0.58948 0.13773 0.0
C54 C 0.00658 0.65971 0.14595 0.0
C55 C 0.9725 0.65057 0.15821 0.0
C56 C 0.95767 0.6152 0.15406 0.0
N57 N 0.02534 0.63435 0.12994 0.0
C58 C 0.01095 0.59959 0.12579 0.0
Co59 Co 0.90596 0.1374 0.1502 0.0
Co60 Co 0.85432 0.07362 0.11258 0.0
O61 O 0.9008 0.09218 0.1282 0.0
C62 C 0.93246 0.07822 0.1865 0.0
O63 O 0.9019 0.06118 0.17878 0.0
C64 C 0.90922 0.07683 0.06622 0.0
O65 O 0.91611 0.11107 0.07423 0.0
O66 O 0.8423 0.12338 0.09639 0.0
O67 O 0.87077 0.16453 0.12483 0.0
H68 H 0.71753 0.07608 0.09125 0.0
H69 H 0.97394 0.09884 0.13044 0.0
O70 O 0.94022 0.11014 0.17642 0.0
H71 H 0.97899 0.22382 0.08807 0.0
H72 H 0.97766 0.23067 0.20734 0.0
H73 H 0.85429 0.19574 0.17066 0.0
H74 H 0.92691 0.20608 0.119 0.0
H75 H 0.97002 0.1745 0.17815 0.0
O76 O 0.88264 0.0588 0.07766 0.0
H77 H 0.77593 0.09922 0.11201 0.0
H78 H 0.8349 0.00737 0.07799 0.0
H79 H 0.8607 0.2523 0.19955 0.0
H80 H 0.02677 0.11555 0.09993 0.0
H81 H 0.92273 0.27003 0.21816 0.0
H82 H 0.02943 0.17839 0.07842 0.0
O83 O 0.86347 0.1232 0.17443 0.0
H84 H 0.9363 0.96435 0.13524 0.0
H85 H 0.81131 0.01877 0.14642 0.0
H86 H 0.82539 0.95824 0.16824 0.0
H87 H 0.88826 0.93061 0.16269 0.0
H88 H 0.92121 0.02497 0.11403 0.0
H89 H 0.77718 0.98335 0.0567 0.0
H90 H 0.71793 0.01774 0.06334 0.0
O91 O 0.82608 0.08733 0.14782 0.0
C92 C 0.84823 0.15656 0.10497 0.0
C93 C 0.74315 0.0608 0.08824 0.0
C94 C 0.77665 0.00879 0.06881 0.0
N95 N 0.80874 0.05461 0.09628 0.0
C96 C 0.77629 0.07373 0.1 0.0
C97 C 0.80926 0.02259 0.08085 0.0
C98 C 0.74341 0.02809 0.07257 0.0
C99 C 0.97514 0.12638 0.12142 0.0
N100 N 0.9475 0.15152 0.12658 0.0
C101 C 0.00504 0.13564 0.10407 0.0
C102 C 0.00647 0.17088 0.09195 0.0
C103 C 0.97816 0.19636 0.09734 0.0
C104 C 0.94868 0.18613 0.11479 0.0
C105 C 0.9505 0.22328 0.1993 0.0
C106 C 0.88143 0.20347 0.17847 0.0
C107 C 0.94601 0.1915 0.1828 0.0
N108 N 0.91182 0.18207 0.17252 0.0
C109 C 0.88487 0.23545 0.1949 0.0
C110 C 0.91967 0.24536 0.20536 0.0
C111 C 0.83362 0.10487 0.17048 0.0
C112 C 0.90876 0.97604 0.13772 0.0
C113 C 0.83875 0.00697 0.14392 0.0
C114 C 0.84654 0.97265 0.1563 0.0
C115 C 0.88182 0.95715 0.15316 0.0
N116 N 0.86531 0.02532 0.12877 0.0
C117 C 0.89997 0.01028 0.12561 0.0
Co118 Co 0.36515 0.90494 0.14923 0.0
Co119 Co 0.43404 0.85386 0.11668 0.0
O120 O 0.41278 0.90016 0.13034 0.0
C121 C 0.41921 0.93169 0.1897 0.0
O122 O 0.43735 0.90124 0.18326 0.0
C123 C 0.43395 0.90644 0.06842 0.0
O124 O 0.39843 0.91191 0.07328 0.0
O125 O 0.38623 0.83967 0.09803 0.0
O126 O 0.34149 0.86952 0.12228 0.0
H127 H 0.43756 0.7164 0.09799 0.0
H128 H 0.40582 0.97269 0.13154 0.0
O129 O 0.3889 0.93954 0.17716 0.0
H130 H 0.28631 0.97677 0.08096 0.0
H131 H 0.2648 0.97625 0.19938 0.0
H132 H 0.30497 0.85291 0.16582 0.0
H133 H 0.30021 0.92546 0.11367 0.0
H134 H 0.32437 0.96886 0.17427 0.0
O135 O 0.45153 0.88161 0.08224 0.0
H136 H 0.41082 0.77474 0.11627 0.0
H137 H 0.50396 0.83537 0.08612 0.0
H138 H 0.24506 0.85907 0.19061 0.0
H139 H 0.39302 0.0246 0.09912 0.0
H140 H 0.22467 0.92109 0.20763 0.0
H141 H 0.33293 0.02679 0.07351 0.0
O142 O 0.37652 0.86242 0.17442 0.0
H143 H 0.53831 0.93989 0.14384 0.0
H144 H 0.48681 0.8135 0.15401 0.0
H145 H 0.54477 0.83 0.17867 0.0
H146 H 0.57093 0.89358 0.17362 0.0
H147 H 0.48025 0.92237 0.11979 0.0
H148 H 0.5316 0.77773 0.06733 0.0
H149 H 0.49838 0.71768 0.0733 0.0
O150 O 0.41784 0.82646 0.15159 0.0
C151 C 0.35206 0.84594 0.10386 0.0
C152 C 0.45234 0.74238 0.0953 0.0
C153 C 0.50509 0.77681 0.07805 0.0
N154 N 0.45585 0.80838 0.10233 0.0
C155 C 0.43737 0.77548 0.10566 0.0
C156 C 0.48924 0.80938 0.08865 0.0
C157 C 0.48645 0.74312 0.08143 0.0
C158 C 0.37946 0.97367 0.12068 0.0
N159 N 0.3537 0.94623 0.12458 0.0
C160 C 0.37243 0.00304 0.10227 0.0
C161 C 0.33873 0.00422 0.08787 0.0
C162 C 0.31257 0.97615 0.09202 0.0
C163 C 0.32061 0.94715 0.11053 0.0
C164 C 0.27334 0.9491 0.19202 0.0
C165 C 0.29613 0.88004 0.17296 0.0
C166 C 0.30705 0.94474 0.17783 0.0
N167 N 0.31794 0.91055 0.16839 0.0
C168 C 0.26224 0.88333 0.18707 0.0
C169 C 0.25083 0.91814 0.19663 0.0
C170 C 0.39676 0.83338 0.17261 0.0
C171 C 0.52727 0.91205 0.14611 0.0
C172 C 0.49799 0.84123 0.15171 0.0
C173 C 0.53085 0.8504 0.16571 0.0
C174 C 0.54552 0.88607 0.16285 0.0
N175 N 0.48029 0.86683 0.13526 0.0
C176 C 0.49448 0.90189 0.13242 0.0
Co177 Co 0.59722 0.36972 0.1506 0.0
Co178 Co 0.6478 0.43659 0.11512 0.0
O179 O 0.60143 0.41554 0.12911 0.0
C180 C 0.56594 0.42794 0.1857 0.0
O181 O 0.5959 0.44644 0.17858 0.0
C182 C 0.59541 0.43168 0.06723 0.0
O183 O 0.58932 0.39714 0.07485 0.0
O184 O 0.66311 0.38761 0.09905 0.0
O185 O 0.63427 0.3445 0.12561 0.0
H186 H 0.78564 0.44078 0.09824 0.0
H187 H 0.52862 0.40607 0.12971 0.0
O188 O 0.56093 0.39506 0.17642 0.0
H189 H 0.52976 0.28161 0.08628 0.0
H190 H 0.52724 0.27268 0.20536 0.0
H191 H 0.65037 0.31302 0.17144 0.0
H192 H 0.58001 0.30082 0.11839 0.0
H193 H 0.53368 0.32964 0.17689 0.0
O194 O 0.62088 0.45045 0.07939 0.0
H195 H 0.72723 0.41466 0.1169 0.0
H196 H 0.66605 0.50411 0.08156 0.0
H197 H 0.64518 0.25572 0.19962 0.0
H198 H 0.47756 0.38785 0.09802 0.0
H199 H 0.58327 0.23527 0.21684 0.0
H200 H 0.47802 0.32527 0.07597 0.0
O201 O 0.63822 0.38499 0.17587 0.0
H202 H 0.55955 0.54181 0.13524 0.0
H203 H 0.68609 0.49309 0.15059 0.0
H204 H 0.66793 0.5528 0.17201 0.0
H205 H 0.60428 0.57757 0.16434 0.0
H206 H 0.57865 0.48203 0.1145 0.0
H207 H 0.72377 0.53108 0.06233 0.0
H208 H 0.78413 0.49941 0.07072 0.0
O209 O 0.67459 0.42397 0.15118 0.0
C210 C 0.65764 0.35393 0.10666 0.0
C211 C 0.75953 0.45489 0.09449 0.0
C212 C 0.72479 0.50553 0.0743 0.0
N213 N 0.69332 0.45792 0.10041 0.0
C214 C 0.72638 0.44027 0.10506 0.0
C215 C 0.69219 0.49007 0.08517 0.0
C216 C 0.75865 0.48776 0.07903 0.0
C217 C 0.52877 0.37863 0.12046 0.0
N218 N 0.55713 0.35446 0.12599 0.0
C219 C 0.49987 0.36853 0.10244 0.0
C220 C 0.50019 0.33344 0.09003 0.0
C221 C 0.52924 0.30895 0.09578 0.0
C222 C 0.55766 0.32001 0.1139 0.0
C223 C 0.55436 0.28126 0.19792 0.0
C224 C 0.6233 0.3041 0.17864 0.0
C225 C 0.55818 0.3135 0.18184 0.0
N226 N 0.59232 0.32442 0.17232 0.0
C227 C 0.62055 0.27172 0.19467 0.0
C228 C 0.5858 0.26028 0.20435 0.0
C229 C 0.66715 0.40519 0.17331 0.0
C230 C 0.58742 0.53139 0.13862 0.0
C231 C 0.65831 0.50364 0.14718 0.0
C232 C 0.64821 0.53751 0.15933 0.0
C233 C 0.61251 0.55141 0.155 0.0
N234 N 0.63357 0.48417 0.13112 0.0
C235 C 0.59849 0.49763 0.12679 0.0
Co236 Co 0.13803 0.90638 0.36437 0.0
Co237 Co 0.07173 0.85481 0.39957 0.0
O238 O 0.0915 0.9012 0.38475 0.0
C239 C 0.081 0.93147 0.32558 0.0
O240 O 0.06374 0.9009 0.333 0.0
C241 C 0.07424 0.909 0.4465 0.0
O242 O 0.10872 0.91571 0.439 0.0
O243 O 0.1208 0.84155 0.41655 0.0
O244 O 0.16385 0.87202 0.39105 0.0
H245 H 0.07146 0.71762 0.41944 0.0
H246 H 0.09741 0.97423 0.38196 0.0
O247 O 0.1121 0.93983 0.33677 0.0
H248 H 0.21939 0.98159 0.42884 0.0
H249 H 0.23418 0.97821 0.3101 0.0
H250 H 0.1982 0.85503 0.34659 0.0
H251 H 0.20434 0.92877 0.39781 0.0
H252 H 0.17619 0.97038 0.33716 0.0
O253 O 0.05627 0.88274 0.43459 0.0
H254 H 0.09614 0.77607 0.39978 0.0
H255 H 0.0041 0.83577 0.43276 0.0
H256 H 0.25656 0.86165 0.31984 0.0
H257 H 0.11144 0.02774 0.41255 0.0
H258 H 0.27484 0.92359 0.30135 0.0
H259 H 0.17276 0.03157 0.43632 0.0
O260 O 0.12605 0.86315 0.34014 0.0
H261 H 0.96469 0.93911 0.37578 0.0
H262 H 0.01715 0.8133 0.36448 0.0
H263 H 0.95751 0.82877 0.34182 0.0
H264 H 0.93086 0.89206 0.34744 0.0
H265 H 0.02441 0.92262 0.39784 0.0
H266 H 0.97854 0.778 0.45298 0.0
H267 H 0.01224 0.71837 0.44628 0.0
O268 O 0.08601 0.82713 0.3642 0.0
C269 C 0.15456 0.84844 0.40986 0.0
C270 C 0.05647 0.74341 0.42245 0.0
C271 C 0.00435 0.77732 0.44131 0.0
N272 N 0.0515 0.80923 0.41503 0.0
C273 C 0.07026 0.77657 0.41131 0.0
C274 C 0.01901 0.80995 0.42989 0.0
C275 C 0.02326 0.74386 0.43753 0.0
C276 C 0.12431 0.97593 0.39198 0.0
N277 N 0.15011 0.94854 0.38801 0.0
C278 C 0.13204 0.00622 0.40936 0.0
C279 C 0.16643 0.00831 0.42274 0.0
C280 C 0.19259 0.98025 0.41858 0.0
C281 C 0.18388 0.95036 0.40105 0.0
C282 C 0.22655 0.9511 0.3181 0.0
C283 C 0.20614 0.88213 0.33882 0.0
C284 C 0.19375 0.94649 0.3334 0.0
N285 N 0.18404 0.91236 0.34366 0.0
C286 C 0.23914 0.88568 0.3236 0.0
C287 C 0.24936 0.92044 0.31321 0.0
C288 C 0.10611 0.83401 0.34261 0.0
C289 C 0.97595 0.9114 0.37326 0.0
C290 C 0.00577 0.84091 0.36702 0.0
C291 C 0.97195 0.84949 0.35416 0.0
C292 C 0.95701 0.885 0.35733 0.0
N293 N 0.02415 0.86692 0.38267 0.0
C294 C 0.00968 0.90182 0.38584 0.0
Co295 Co 0.59587 0.13602 0.36471 0.0
Co296 Co 0.64964 0.07145 0.39948 0.0
O297 O 0.6024 0.09012 0.38558 0.0
C298 C 0.56811 0.07776 0.32815 0.0
O299 O 0.59948 0.06123 0.33453 0.0
C300 C 0.59731 0.07156 0.44779 0.0
O301 O 0.59092 0.10677 0.44234 0.0
O302 O 0.66155 0.12055 0.41688 0.0
O303 O 0.63215 0.16249 0.38965 0.0
H304 H 0.7871 0.07487 0.41812 0.0
H305 H 0.52972 0.09588 0.38615 0.0
O306 O 0.56046 0.10931 0.33896 0.0
H307 H 0.52577 0.21942 0.43096 0.0
H308 H 0.52058 0.2306 0.31165 0.0
H309 H 0.64599 0.19559 0.34405 0.0
H310 H 0.57583 0.20352 0.39765 0.0
H311 H 0.53015 0.17347 0.33942 0.0
O312 O 0.62268 0.05426 0.43432 0.0
H313 H 0.72766 0.09819 0.39927 0.0
H314 H 0.67121 0.00372 0.4316 0.0
H315 H 0.63765 0.2531 0.31656 0.0
H316 H 0.47907 0.11063 0.41924 0.0
H317 H 0.57458 0.27087 0.3001 0.0
H318 H 0.47695 0.17276 0.44195 0.0
O319 O 0.63724 0.12312 0.33898 0.0
H320 H 0.56827 0.96236 0.37499 0.0
H321 H 0.69219 0.019 0.36322 0.0
H322 H 0.67813 0.95949 0.33981 0.0
H323 H 0.6158 0.93076 0.34566 0.0
H324 H 0.58331 0.02201 0.39775 0.0
H325 H 0.73001 0.97947 0.45097 0.0
H326 H 0.78852 0.01509 0.4442 0.0
O327 O 0.67641 0.08738 0.36415 0.0
C328 C 0.65528 0.15399 0.40901 0.0
C329 C 0.76181 0.05905 0.42116 0.0
C330 C 0.72976 0.00554 0.43964 0.0
N331 N 0.69605 0.05228 0.41425 0.0
C332 C 0.72809 0.07208 0.41048 0.0
C333 C 0.69653 0.01946 0.4287 0.0
C334 C 0.76258 0.02553 0.43581 0.0
C335 C 0.52875 0.1231 0.39574 0.0
N336 N 0.55555 0.14889 0.38989 0.0
C337 C 0.5001 0.13124 0.41454 0.0
C338 C 0.49897 0.16608 0.42732 0.0
C339 C 0.52637 0.19227 0.42118 0.0
C340 C 0.55467 0.1831 0.40233 0.0
C341 C 0.54818 0.22319 0.31875 0.0
C342 C 0.61842 0.20333 0.33718 0.0
C343 C 0.55377 0.19087 0.33444 0.0
N344 N 0.58853 0.18143 0.34353 0.0
C345 C 0.61389 0.23584 0.32154 0.0
C346 C 0.57849 0.24578 0.31229 0.0
C347 C 0.66761 0.10528 0.34191 0.0
C348 C 0.59559 0.97453 0.37238 0.0
C349 C 0.66499 0.0067 0.36586 0.0
C350 C 0.65721 0.97297 0.35258 0.0
C351 C 0.62224 0.95685 0.35588 0.0
N352 N 0.63872 0.02388 0.38204 0.0
C353 C 0.60436 0.00821 0.38537 0.0
Co354 Co 0.36854 0.5972 0.36889 0.0
Co355 Co 0.4348 0.65081 0.40212 0.0
O356 O 0.4148 0.60347 0.38943 0.0
C357 C 0.4265 0.56611 0.33356 0.0
O358 O 0.44407 0.59708 0.33945 0.0
C359 C 0.43387 0.60019 0.45145 0.0
O360 O 0.39852 0.5942 0.44623 0.0
O361 O 0.38605 0.66474 0.41933 0.0
O362 O 0.34314 0.63477 0.39332 0.0
H363 H 0.43494 0.78908 0.41725 0.0
H364 H 0.40755 0.53101 0.39139 0.0
O365 O 0.39413 0.56038 0.3436 0.0
H366 H 0.28433 0.53099 0.43681 0.0
H367 H 0.27177 0.52228 0.31774 0.0
H368 H 0.30991 0.64792 0.34765 0.0
H369 H 0.30093 0.57958 0.40248 0.0
H370 H 0.32938 0.5315 0.345 0.0
O371 O 0.45146 0.62496 0.43757 0.0
H372 H 0.40999 0.72939 0.40005 0.0
H373 H 0.50319 0.67212 0.43356 0.0
H374 H 0.25195 0.63996 0.32063 0.0
H375 H 0.39209 0.4818 0.42551 0.0
H376 H 0.2326 0.57678 0.30545 0.0
H377 H 0.33011 0.48167 0.44852 0.0
O378 O 0.382 0.63745 0.34234 0.0
H379 H 0.54234 0.56612 0.38025 0.0
H380 H 0.48813 0.69037 0.36467 0.0
H381 H 0.54757 0.67406 0.34201 0.0
H382 H 0.57512 0.61159 0.34981 0.0
H383 H 0.4827 0.5833 0.40213 0.0
H384 H 0.52905 0.73116 0.4513 0.0
H385 H 0.4949 0.7902 0.44309 0.0
O386 O 0.41945 0.67637 0.36614 0.0
C387 C 0.35237 0.65861 0.41199 0.0
C388 C 0.45013 0.76355 0.42091 0.0
C389 C 0.50291 0.73103 0.44006 0.0
N390 N 0.45519 0.69736 0.4157 0.0
C391 C 0.43618 0.72968 0.41116 0.0
C392 C 0.48808 0.69768 0.43004 0.0
C393 C 0.48375 0.76415 0.43543 0.0
C394 C 0.38039 0.53089 0.40111 0.0
N395 N 0.35509 0.55798 0.39485 0.0
C396 C 0.37185 0.50306 0.42049 0.0
C397 C 0.3371 0.50304 0.43344 0.0
C398 C 0.31141 0.53073 0.42689 0.0
C399 C 0.32097 0.55819 0.40747 0.0
C400 C 0.27987 0.54994 0.32429 0.0
C401 C 0.30148 0.6203 0.34133 0.0
C402 C 0.31246 0.55532 0.33969 0.0
N403 N 0.32277 0.59016 0.34811 0.0
C404 C 0.26872 0.61599 0.32595 0.0
C405 C 0.25789 0.58053 0.31741 0.0
C406 C 0.40075 0.66742 0.34429 0.0
C407 C 0.53071 0.5935 0.37681 0.0
C408 C 0.49986 0.66308 0.36812 0.0
C409 C 0.53358 0.65404 0.35527 0.0
C410 C 0.54905 0.619 0.35969 0.0
N411 N 0.48206 0.63795 0.38494 0.0
C412 C 0.49703 0.60349 0.38929 0.0
Co413 Co 0.90603 0.36915 0.36571 0.0
Co414 Co 0.85489 0.43507 0.40169 0.0
O415 O 0.90146 0.41454 0.38767 0.0
C416 C 0.93763 0.42809 0.33146 0.0
O417 O 0.90752 0.44642 0.3385 0.0
C418 C 0.90708 0.42985 0.44968 0.0
O419 O 0.91332 0.39541 0.44185 0.0
O420 O 0.83981 0.38574 0.41729 0.0
O421 O 0.86877 0.34335 0.39017 0.0
H422 H 0.71693 0.4381 0.41817 0.0
H423 H 0.9743 0.40528 0.38746 0.0
O424 O 0.94255 0.39507 0.34044 0.0
H425 H 0.97298 0.27998 0.42944 0.0
H426 H 0.97686 0.27345 0.31024 0.0
H427 H 0.85326 0.31275 0.34385 0.0
H428 H 0.92305 0.29967 0.39723 0.0
H429 H 0.96997 0.32975 0.33939 0.0
O430 O 0.88155 0.44861 0.4376 0.0
H431 H 0.77561 0.41262 0.39951 0.0
H432 H 0.83603 0.502 0.43575 0.0
H433 H 0.8589 0.2561 0.31497 0.0
H434 H 0.02505 0.38658 0.41926 0.0
H435 H 0.92105 0.23618 0.29789 0.0
H436 H 0.02449 0.32357 0.44059 0.0
O437 O 0.86529 0.38482 0.34035 0.0
H438 H 0.94254 0.5412 0.38274 0.0
H439 H 0.81642 0.49182 0.36657 0.0
H440 H 0.83429 0.55196 0.34572 0.0
H441 H 0.89774 0.57706 0.3538 0.0
H442 H 0.92373 0.48099 0.40291 0.0
H443 H 0.77803 0.52833 0.45499 0.0
H444 H 0.71792 0.49637 0.44615 0.0
O445 O 0.82836 0.4228 0.36545 0.0
C446 C 0.84535 0.35226 0.40922 0.0
C447 C 0.74293 0.45233 0.42212 0.0
C448 C 0.77724 0.50293 0.44282 0.0
N449 N 0.80916 0.45588 0.41644 0.0
C450 C 0.77623 0.43808 0.41155 0.0
C451 C 0.81 0.48784 0.43194 0.0
C452 C 0.74352 0.485 0.43784 0.0
C453 C 0.97412 0.37766 0.3964 0.0
N454 N 0.94588 0.35352 0.3904 0.0
C455 C 0.00284 0.36728 0.41448 0.0
C456 C 0.00246 0.33196 0.42649 0.0
C457 C 0.97354 0.3075 0.42027 0.0
C458 C 0.94529 0.31883 0.40209 0.0
C459 C 0.94965 0.2818 0.3176 0.0
C460 C 0.88043 0.30405 0.33672 0.0
C461 C 0.94557 0.31366 0.33408 0.0
N462 N 0.9113 0.3243 0.3435 0.0
C463 C 0.88344 0.27203 0.32028 0.0
C464 C 0.91832 0.26089 0.31069 0.0
C465 C 0.83615 0.40465 0.34308 0.0
C466 C 0.91476 0.53063 0.37918 0.0
C467 C 0.84411 0.5025 0.37016 0.0
C468 C 0.85405 0.53662 0.35833 0.0
C469 C 0.88964 0.5507 0.36289 0.0
N470 N 0.86889 0.48298 0.38614 0.0
C471 C 0.90386 0.49663 0.39069 0.0
Co472 Co 0.87004 0.40464 0.86638 0.0
Co473 Co 0.93486 0.35187 0.90173 0.0
O474 O 0.91558 0.399 0.88792 0.0
C475 C 0.92874 0.43619 0.83205 0.0
O476 O 0.94661 0.40557 0.83842 0.0
C477 C 0.93398 0.4041 0.95018 0.0
O478 O 0.89874 0.41032 0.94472 0.0
O479 O 0.88576 0.33927 0.91886 0.0
O480 O 0.84409 0.36705 0.89048 0.0
H481 H 0.93304 0.21426 0.9199 0.0
H482 H 0.90739 0.47143 0.88946 0.0
O483 O 0.89603 0.44154 0.84153 0.0
H484 H 0.78235 0.47056 0.93194 0.0
H485 H 0.77435 0.47787 0.81277 0.0
H486 H 0.81287 0.35301 0.84414 0.0
H487 H 0.80087 0.42181 0.89831 0.0
H488 H 0.83099 0.46965 0.84133 0.0
O489 O 0.95142 0.3788 0.93674 0.0
H490 H 0.90912 0.27351 0.90113 0.0
H491 H 0.00259 0.33096 0.93411 0.0
H492 H 0.75587 0.35998 0.81585 0.0
H493 H 0.88999 0.52084 0.92288 0.0
H494 H 0.73634 0.42277 0.79991 0.0
H495 H 0.82709 0.52053 0.94442 0.0
O496 O 0.88522 0.36446 0.84026 0.0
H497 H 0.04374 0.4344 0.87892 0.0
H498 H 0.98811 0.31033 0.86544 0.0
H499 H 0.04796 0.32513 0.8428 0.0
H500 H 0.07622 0.38752 0.84955 0.0
H501 H 0.98368 0.41871 0.90077 0.0
H502 H 0.02741 0.27236 0.9534 0.0
H503 H 0.9926 0.21345 0.94627 0.0
O504 O 0.91963 0.32502 0.8662 0.0
C505 C 0.85247 0.34455 0.91027 0.0
C506 C 0.94851 0.23973 0.9231 0.0
C507 C 1.00144 0.27235 0.94194 0.0
N508 N 0.95449 0.30562 0.91644 0.0
C509 C 0.93514 0.27335 0.91247 0.0
C510 C 0.98719 0.30546 0.93104 0.0
C511 C 0.9819 0.2393 0.93792 0.0
C512 C 0.87985 0.47134 0.89854 0.0
N513 N 0.85511 0.4439 0.89186 0.0
C514 C 0.8702 0.49929 0.91753 0.0
C515 C 0.83493 0.49906 0.92965 0.0
C516 C 0.80982 0.47102 0.92267 0.0
C517 C 0.82048 0.44345 0.90366 0.0
C518 C 0.78253 0.45038 0.81964 0.0
C519 C 0.80435 0.38045 0.83749 0.0
C520 C 0.81459 0.44555 0.83577 0.0
N521 N 0.82501 0.41093 0.84457 0.0
C522 C 0.77213 0.38421 0.82139 0.0
C523 C 0.76121 0.41945 0.81244 0.0
C524 C 0.90291 0.33407 0.84349 0.0
C525 C 0.0318 0.40706 0.87594 0.0
C526 C 1.00015 0.33759 0.86841 0.0
C527 C 0.0341 0.34577 0.85559 0.0
C528 C 0.04996 0.38077 0.85941 0.0
N529 N 0.98248 0.3635 0.88462 0.0
C530 C 0.99788 0.3979 0.88842 0.0
Co531 Co 0.09766 0.87062 0.86577 0.0
Co532 Co 0.15064 0.93582 0.90063 0.0
O533 O 0.10344 0.91634 0.88711 0.0
C534 C 0.06616 0.9291 0.83125 0.0
O535 O 0.09679 0.94701 0.83757 0.0
C536 C 0.09893 0.93478 0.94936 0.0
O537 O 0.09272 0.89954 0.94386 0.0
O538 O 0.16356 0.88682 0.91774 0.0
O539 O 0.13522 0.84481 0.88995 0.0
H540 H 0.28842 0.93449 0.91799 0.0
H541 H 0.03103 0.90831 0.88878 0.0
O542 O 0.06077 0.89645 0.84084 0.0
H543 H 0.03169 0.78364 0.93183 0.0
H544 H 0.0241 0.77454 0.81276 0.0
H545 H 0.14911 0.81314 0.84374 0.0
H546 H 0.08039 0.80176 0.89803 0.0
H547 H 0.03251 0.83146 0.84099 0.0
O548 O 0.12403 0.95232 0.9358 0.0
H549 H 0.22904 0.91032 0.89962 0.0
H550 H 0.17168 0.00371 0.93282 0.0
H551 H 0.14195 0.75585 0.81578 0.0
H552 H 0.98168 0.89132 0.92238 0.0
H553 H 0.07908 0.73628 0.80004 0.0
H554 H 0.98188 0.82861 0.94421 0.0
O555 O 0.13781 0.88548 0.83951 0.0
H556 H 0.06749 0.04433 0.87824 0.0
H557 H 0.19162 0.98916 0.86406 0.0
H558 H 0.17636 0.0489 0.84146 0.0
H559 H 0.11394 0.07692 0.84855 0.0
H560 H 0.08364 0.98439 0.90007 0.0
H561 H 0.23041 0.02879 0.95171 0.0
H562 H 0.28934 0.99414 0.94426 0.0
O563 O 0.17714 0.92065 0.86495 0.0
C564 C 0.15798 0.85342 0.90951 0.0
C565 C 0.26294 0.94989 0.92132 0.0
C566 C 0.23037 0.00278 0.94029 0.0
N567 N 0.19698 0.95565 0.91505 0.0
C568 C 0.22925 0.93638 0.91092 0.0
C569 C 0.19719 0.98839 0.92961 0.0
C570 C 0.26343 0.98334 0.93608 0.0
C571 C 0.03107 0.88085 0.89799 0.0
N572 N 0.05842 0.85599 0.89137 0.0
C573 C 0.00315 0.87144 0.91708 0.0
C574 C 0.00332 0.83627 0.92936 0.0
C575 C 0.03128 0.81103 0.92244 0.0
C576 C 0.05881 0.82146 0.90333 0.0
C577 C 0.05162 0.78274 0.81954 0.0
C578 C 0.12163 0.80461 0.83718 0.0
C579 C 0.05656 0.81496 0.83548 0.0
N580 N 0.09122 0.82539 0.84419 0.0
C581 C 0.11776 0.77223 0.82126 0.0
C582 C 0.08248 0.76128 0.81242 0.0
C583 C 0.16806 0.90353 0.84242 0.0
C584 C 0.09484 0.03249 0.8751 0.0
C585 C 0.16435 1.0011 0.86719 0.0
C586 C 0.1559 0.03499 0.85439 0.0
C587 C 0.12089 0.05072 0.8584 0.0
N588 N 0.13867 0.98337 0.88357 0.0
C589 C 0.10425 0.99864 0.88757 0.0
Co590 Co 0.63538 0.09722 0.86619 0.0
Co591 Co 0.56983 0.14881 0.9022 0.0
O592 O 0.5898 0.1022 0.88786 0.0
C593 C 0.57622 0.06814 0.83104 0.0
O594 O 0.55857 0.09845 0.83852 0.0
C595 C 0.57422 0.09586 0.94987 0.0
O596 O 0.60857 0.08923 0.942 0.0
O597 O 0.61928 0.16299 0.91805 0.0
O598 O 0.66162 0.13319 0.89141 0.0
H599 H 0.56856 0.28653 0.91984 0.0
H600 H 0.59733 0.02929 0.88667 0.0
O601 O 0.60898 0.06205 0.84016 0.0
H602 H 0.72195 0.02662 0.92972 0.0
H603 H 0.73036 0.02567 0.81053 0.0
H604 H 0.69335 0.14924 0.84565 0.0
H605 H 0.70398 0.07772 0.89798 0.0
H606 H 0.67368 0.03311 0.8392 0.0
O607 O 0.55579 0.12174 0.9379 0.0
H608 H 0.59336 0.22779 0.90075 0.0
H609 H 0.503 0.16804 0.93624 0.0
H610 H 0.75039 0.14304 0.81728 0.0
H611 H 0.61426 0.97745 0.91803 0.0
H612 H 0.76917 0.0809 0.79946 0.0
H613 H 0.67693 0.97598 0.93988 0.0
O614 O 0.62107 0.13898 0.8413 0.0
H615 H 0.46279 0.06274 0.88213 0.0
H616 H 0.51374 0.18854 0.86729 0.0
H617 H 0.45355 0.1717 0.84605 0.0
H618 H 0.42766 0.10842 0.85345 0.0
H619 H 0.52306 0.08053 0.9027 0.0
H620 H 0.47734 0.22609 0.95589 0.0
H621 H 0.51014 0.2859 0.94765 0.0
O622 O 0.58262 0.17572 0.86614 0.0
C623 C 0.6528 0.15667 0.91043 0.0
C624 C 0.55397 0.26066 0.92352 0.0
C625 C 0.50281 0.22673 0.9438 0.0
N626 N 0.54956 0.19458 0.91728 0.0
C627 C 0.56783 0.22734 0.91271 0.0
C628 C 0.51752 0.19394 0.93269 0.0
C629 C 0.52121 0.26028 0.93915 0.0
C630 C 0.62479 0.02861 0.89584 0.0
N631 N 0.64971 0.05637 0.8904 0.0
C632 C 0.63417 0.99927 0.91367 0.0
C633 C 0.66931 0.99851 0.92597 0.0
C634 C 0.69457 0.02693 0.9203 0.0
C635 C 0.68422 0.05584 0.90238 0.0
C636 C 0.72251 0.05287 0.81823 0.0
C637 C 0.70154 0.12206 0.83819 0.0
C638 C 0.69044 0.05726 0.83443 0.0
N639 N 0.68044 0.09151 0.84428 0.0
C640 C 0.73378 0.11874 0.82204 0.0
C641 C 0.74428 0.08387 0.81203 0.0
C642 C 0.60132 0.16819 0.84396 0.0
C643 C 0.4737 0.09046 0.87886 0.0
C644 C 0.5027 0.16092 0.87059 0.0
C645 C 0.46856 0.15157 0.85854 0.0
C646 C 0.45404 0.11608 0.86273 0.0
N647 N 0.52183 0.13565 0.88642 0.0
C648 C 0.50774 0.10078 0.8906 0.0
Co649 Co 0.40486 0.63467 0.86714 0.0
Co650 Co 0.35168 0.57048 0.90283 0.0
O651 O 0.39893 0.58938 0.88894 0.0
C652 C 0.43627 0.57548 0.83321 0.0
O653 O 0.40551 0.55779 0.83956 0.0
C654 C 0.40369 0.57192 0.95128 0.0
O655 O 0.40979 0.60713 0.94561 0.0
O656 O 0.33929 0.61981 0.91964 0.0
O657 O 0.36736 0.66105 0.89104 0.0
H658 H 0.21404 0.57303 0.92088 0.0
H659 H 0.47134 0.59722 0.89058 0.0
O660 O 0.4417 0.60826 0.84252 0.0
H661 H 0.47106 0.72275 0.93222 0.0
H662 H 0.47868 0.72942 0.81298 0.0
H663 H 0.35357 0.69182 0.84449 0.0
H664 H 0.42234 0.70412 0.89863 0.0
H665 H 0.47012 0.67316 0.84192 0.0
O666 O 0.37849 0.55424 0.93794 0.0
H667 H 0.27344 0.59651 0.90201 0.0
H668 H 0.33042 0.50322 0.93565 0.0
H669 H 0.36088 0.74845 0.8158 0.0
H670 H 0.52071 0.61472 0.92399 0.0
H671 H 0.42379 0.76751 0.79978 0.0
H672 H 0.5207 0.67787 0.9451 0.0
O673 O 0.36466 0.6194 0.84109 0.0
H674 H 0.43375 0.46102 0.88071 0.0
H675 H 0.30995 0.51702 0.86687 0.0
H676 H 0.3245 0.45687 0.8446 0.0
H677 H 0.38675 0.42842 0.85152 0.0
H678 H 0.4183 0.52137 0.9022 0.0
H679 H 0.27168 0.47883 0.95506 0.0
H680 H 0.21293 0.51378 0.94764 0.0
O681 O 0.32499 0.58545 0.86721 0.0
C682 C 0.34479 0.65298 0.91088 0.0
C683 C 0.23944 0.55751 0.92421 0.0
C684 C 0.27181 0.50467 0.94343 0.0
N685 N 0.30532 0.5512 0.91765 0.0
C686 C 0.27314 0.57063 0.91352 0.0
C687 C 0.305 0.51867 0.93247 0.0
C688 C 0.23885 0.52428 0.93924 0.0
C689 C 0.47138 0.62487 0.89947 0.0
N690 N 0.44412 0.64969 0.89258 0.0
C691 C 0.49931 0.63457 0.91846 0.0
C692 C 0.49925 0.66998 0.93034 0.0
C693 C 0.47139 0.69517 0.92314 0.0
C694 C 0.44384 0.68445 0.90415 0.0
C695 C 0.45114 0.72144 0.81987 0.0
C696 C 0.38107 0.70015 0.83781 0.0
C697 C 0.44612 0.6896 0.83622 0.0
N698 N 0.41143 0.67944 0.84506 0.0
C699 C 0.38502 0.73215 0.82149 0.0
C700 C 0.42033 0.74281 0.81249 0.0
C701 C 0.33418 0.60189 0.84442 0.0
C702 C 0.40646 0.47304 0.87765 0.0
C703 C 0.33714 0.5049 0.86992 0.0
C704 C 0.34519 0.47078 0.85731 0.0
C705 C 0.38011 0.45481 0.86123 0.0
N706 N 0.36312 0.52262 0.88603 0.0
C707 C 0.39745 0.50712 0.88993 0.0
Co708 Co 0.86935 0.09823 0.64858 0.0
Co709 Co 0.9342 0.15062 0.61287 0.0
O710 O 0.91473 0.1036 0.62677 0.0
C711 C 0.92813 0.06642 0.68262 0.0
O712 O 0.94614 0.09691 0.67607 0.0
C713 C 0.93271 0.09837 0.56438 0.0
O714 O 0.89752 0.09219 0.57006 0.0
O715 O 0.88503 0.16354 0.59601 0.0
O716 O 0.84345 0.13597 0.62462 0.0
H717 H 0.93322 0.28829 0.59487 0.0
H718 H 0.90607 0.03118 0.62537 0.0
O719 O 0.89531 0.06121 0.67332 0.0
H720 H 0.78069 0.03277 0.58353 0.0
H721 H 0.77363 0.0256 0.70271 0.0
H722 H 0.81268 0.15021 0.67109 0.0
H723 H 0.79982 0.08147 0.61701 0.0
H724 H 0.83011 0.03347 0.67388 0.0
O725 O 0.95034 0.12361 0.57774 0.0
H726 H 0.90903 0.22915 0.61368 0.0
H727 H 1.0018 0.17114 0.58014 0.0
H728 H 0.75585 0.1436 0.69966 0.0
H729 H 0.88805 0.98181 0.59209 0.0
H730 H 0.73605 0.08094 0.71573 0.0
H731 H 0.82498 0.98248 0.57088 0.0
O732 O 0.88497 0.13834 0.6746 0.0
H733 H 0.04274 0.06743 0.63511 0.0
H734 H 0.98797 0.19181 0.64894 0.0
H735 H 0.04787 0.17662 0.6713 0.0
H736 H 0.0757 0.11408 0.66439 0.0
H737 H 0.98264 0.08351 0.61352 0.0
H738 H 0.0269 0.22961 0.56081 0.0
H739 H 0.99258 0.28875 0.5682 0.0
O740 O 0.91942 0.17756 0.64849 0.0
C741 C 0.85179 0.15847 0.60481 0.0
C742 C 0.94847 0.26271 0.59155 0.0
C743 C 1.00101 0.22977 0.57239 0.0
N744 N 0.95402 0.19677 0.59808 0.0
C745 C 0.93495 0.22916 0.6022 0.0
C746 C 0.98661 0.19673 0.58332 0.0
C747 C 0.98175 0.26295 0.57657 0.0
C748 C 0.87845 0.03143 0.61643 0.0
N749 N 0.85396 0.05904 0.6232 0.0
C750 C 0.86846 0.0035 0.59752 0.0
C751 C 0.83309 0.00393 0.58558 0.0
C752 C 0.80824 0.03216 0.59266 0.0
C753 C 0.81924 0.05969 0.61158 0.0
C754 C 0.78193 0.05304 0.69579 0.0
C755 C 0.80404 0.12282 0.67779 0.0
C756 C 0.81389 0.05767 0.6795 0.0
N757 N 0.82445 0.09222 0.67063 0.0
C758 C 0.77192 0.11926 0.69405 0.0
C759 C 0.76085 0.0841 0.70308 0.0
C760 C 0.9028 0.16863 0.67127 0.0
C761 C 0.03099 0.09484 0.63817 0.0
C762 C 0.99982 0.16448 0.64589 0.0
C763 C 0.0338 0.15608 0.65855 0.0
C764 C 0.04943 0.121 0.65464 0.0
N765 N 0.98189 0.13869 0.62974 0.0
C766 C 0.99705 0.10421 0.62583 0.0
Co767 Co 0.4049 0.87008 0.64989 0.0
Co768 Co 0.35381 0.93371 0.6118 0.0
O769 O 0.40035 0.91467 0.62704 0.0
C770 C 0.43579 0.93015 0.6833 0.0
O771 O 0.40571 0.94818 0.67578 0.0
C772 C 0.40798 0.92942 0.56492 0.0
O773 O 0.4148 0.89523 0.57306 0.0
O774 O 0.34098 0.88387 0.59613 0.0
O775 O 0.36808 0.84321 0.62569 0.0
H776 H 0.21665 0.93256 0.59179 0.0
H777 H 0.47327 0.90566 0.62783 0.0
O778 O 0.44099 0.89694 0.67483 0.0
H779 H 0.47298 0.77886 0.58844 0.0
H780 H 0.47534 0.77651 0.70762 0.0
H781 H 0.35204 0.81428 0.67249 0.0
H782 H 0.4226 0.7995 0.61993 0.0
H783 H 0.46864 0.83182 0.6774 0.0
O784 O 0.38165 0.9477 0.57647 0.0
H785 H 0.27512 0.90902 0.61216 0.0
H786 H 0.33459 0.99974 0.57692 0.0
H787 H 0.3575 0.7586 0.70243 0.0
H788 H 0.52445 0.88605 0.59671 0.0
H789 H 0.4195 0.73946 0.72027 0.0
H790 H 0.52442 0.82228 0.57669 0.0
O791 O 0.36391 0.88667 0.67471 0.0
H792 H 0.43736 0.04264 0.63217 0.0
H793 H 0.31222 0.98952 0.64578 0.0
H794 H 0.32742 0.0503 0.66679 0.0
H795 H 0.39037 0.07728 0.66 0.0
H796 H 0.4212 0.98175 0.61185 0.0
H797 H 0.2768 0.02415 0.55601 0.0
H798 H 0.21726 0.99053 0.56347 0.0
O799 O 0.3259 0.92091 0.64744 0.0
C800 C 0.34601 0.85092 0.60547 0.0
C801 C 0.2424 0.9475 0.58843 0.0
C802 C 0.27617 0.99887 0.56832 0.0
N803 N 0.30818 0.95304 0.5958 0.0
C804 C 0.27558 0.93435 0.59996 0.0
C805 C 0.30882 0.98486 0.58013 0.0
C806 C 0.24277 0.98001 0.57252 0.0
C807 C 0.4733 0.87773 0.61946 0.0
N808 N 0.44509 0.8537 0.62577 0.0
C809 C 0.50227 0.86683 0.60176 0.0
C810 C 0.50219 0.83107 0.59048 0.0
C811 C 0.47331 0.80672 0.59704 0.0
C812 C 0.4448 0.81859 0.6148 0.0
C813 C 0.44819 0.78453 0.69993 0.0
C814 C 0.37916 0.80591 0.67996 0.0
C815 C 0.44423 0.81583 0.68285 0.0
N816 N 0.41004 0.82604 0.67301 0.0
C817 C 0.38206 0.77445 0.69699 0.0
C818 C 0.41685 0.76374 0.70701 0.0
C819 C 0.33397 0.90477 0.67059 0.0
C820 C 0.40979 0.03125 0.63517 0.0
C821 C 0.3397 1.00101 0.64277 0.0
C822 C 0.34812 0.03549 0.65467 0.0
C823 C 0.38343 0.05063 0.65083 0.0
N824 N 0.3657 0.98214 0.62743 0.0
C825 C 0.40038 0.99685 0.62356 0.0
Co826 Co 0.63644 0.40742 0.65126 0.0
Co827 Co 0.57049 0.35622 0.61536 0.0
O828 O 0.59079 0.40272 0.62965 0.0
C829 C 0.57754 0.43717 0.68634 0.0
O830 O 0.55965 0.40694 0.679 0.0
C831 C 0.57493 0.40921 0.56776 0.0
O832 O 0.60937 0.41562 0.57549 0.0
O833 O 0.61978 0.34179 0.59937 0.0
O834 O 0.66237 0.37113 0.62608 0.0
H835 H 0.56846 0.21852 0.59764 0.0
H836 H 0.599 0.47562 0.6307 0.0
O837 O 0.61037 0.44292 0.67722 0.0
H838 H 0.72362 0.47709 0.58755 0.0
H839 H 0.73201 0.4784 0.70671 0.0
H840 H 0.69396 0.35499 0.67187 0.0
H841 H 0.70518 0.4262 0.61934 0.0
H842 H 0.67531 0.47131 0.67806 0.0
O843 O 0.55645 0.38335 0.57972 0.0
H844 H 0.5936 0.27712 0.61672 0.0
H845 H 0.50342 0.33733 0.5815 0.0
H846 H 0.75103 0.36084 0.70024 0.0
H847 H 0.61642 0.52729 0.59931 0.0
H848 H 0.77033 0.42289 0.71792 0.0
H849 H 0.67909 0.52815 0.57741 0.0
O850 O 0.62177 0.36587 0.67624 0.0
H851 H 0.46389 0.44276 0.63557 0.0
H852 H 0.51429 0.31677 0.65041 0.0
H853 H 0.45418 0.33386 0.67169 0.0
H854 H 0.42856 0.39723 0.66428 0.0
H855 H 0.52408 0.42473 0.61498 0.0
H856 H 0.47742 0.27943 0.56185 0.0
H857 H 0.50996 0.21946 0.56996 0.0
O858 O 0.58325 0.32923 0.65139 0.0
C859 C 0.65336 0.34779 0.607 0.0
C860 C 0.55398 0.24446 0.59402 0.0
C861 C 0.50292 0.27866 0.57389 0.0
N862 N 0.54991 0.31055 0.60033 0.0
C863 C 0.56803 0.27771 0.60483 0.0
C864 C 0.51783 0.31136 0.58499 0.0
C865 C 0.52117 0.24501 0.57846 0.0
C866 C 0.62647 0.47604 0.62151 0.0
N867 N 0.65112 0.44805 0.62694 0.0
C868 C 0.63612 0.50528 0.60366 0.0
C869 C 0.67126 0.5057 0.59133 0.0
C870 C 0.69625 0.47704 0.59698 0.0
C871 C 0.68562 0.44825 0.61493 0.0
C872 C 0.72394 0.45123 0.69908 0.0
C873 C 0.70238 0.38213 0.67927 0.0
C874 C 0.69185 0.44705 0.68288 0.0
N875 N 0.68156 0.41283 0.67311 0.0
C876 C 0.73464 0.38525 0.69541 0.0
C877 C 0.74543 0.42007 0.70535 0.0
C878 C 0.60189 0.33674 0.67359 0.0
C879 C 0.47468 0.41501 0.63884 0.0
C880 C 0.50338 0.34443 0.64712 0.0
C881 C 0.46928 0.35392 0.65919 0.0
C882 C 0.45491 0.38947 0.655 0.0
N883 N 0.52261 0.36961 0.63127 0.0
C884 C 0.50868 0.40454 0.62709 0.0
Co885 Co 0.09806 0.63373 0.64958 0.0
Co886 Co 0.15076 0.5687 0.6143 0.0
O887 O 0.10368 0.58813 0.62809 0.0
C888 C 0.06673 0.57508 0.68403 0.0
O889 O 0.09736 0.55725 0.67759 0.0
C890 C 0.09873 0.57003 0.56584 0.0
O891 O 0.0928 0.6053 0.57137 0.0
O892 O 0.16358 0.61776 0.59724 0.0
O893 O 0.13556 0.65963 0.62535 0.0
H894 H 0.28844 0.5699 0.59634 0.0
H895 H 0.03127 0.59621 0.62668 0.0
O896 O 0.06127 0.60777 0.67456 0.0
H897 H 0.03187 0.72111 0.58401 0.0
H898 H 0.02488 0.72955 0.70316 0.0
H899 H 0.14968 0.69107 0.67159 0.0
H900 H 0.08072 0.70277 0.61758 0.0
H901 H 0.03309 0.67278 0.67472 0.0
O902 O 0.12384 0.55233 0.57926 0.0
H903 H 0.22924 0.59405 0.61507 0.0
H904 H 0.17145 0.50098 0.58181 0.0
H905 H 0.14273 0.7482 0.69977 0.0
H906 H 0.98177 0.61343 0.59331 0.0
H907 H 0.07997 0.76772 0.7158 0.0
H908 H 0.98194 0.67626 0.57167 0.0
O909 O 0.13835 0.61872 0.67563 0.0
H910 H 0.06778 0.4601 0.63692 0.0
H911 H 0.19201 0.51527 0.65057 0.0
H912 H 0.17695 0.45544 0.67313 0.0
H913 H 0.11448 0.42741 0.66629 0.0
H914 H 0.08374 0.52013 0.61514 0.0
H915 H 0.22999 0.47592 0.56254 0.0
H916 H 0.28905 0.51042 0.56984 0.0
O917 O 0.17756 0.58382 0.64984 0.0
C918 C 0.1582 0.6511 0.60567 0.0
C919 C 0.2629 0.55458 0.59306 0.0
C920 C 0.23008 0.50186 0.57406 0.0
N921 N 0.19697 0.5489 0.5996 0.0
C922 C 0.22931 0.56808 0.60367 0.0
C923 C 0.19701 0.51624 0.58494 0.0
C924 C 0.26322 0.52122 0.57817 0.0
C925 C 0.03129 0.62373 0.61756 0.0
N926 N 0.05871 0.64853 0.62416 0.0
C927 C 0.00329 0.63326 0.59859 0.0
C928 C 0.00345 0.6685 0.58642 0.0
C929 C 0.03147 0.69367 0.59332 0.0
C930 C 0.05909 0.68312 0.6123 0.0
C931 C 0.05236 0.72138 0.69625 0.0
C932 C 0.12225 0.69958 0.67828 0.0
C933 C 0.05718 0.68925 0.68019 0.0
N934 N 0.09178 0.67885 0.67132 0.0
C935 C 0.1185 0.73187 0.69431 0.0
C936 C 0.08328 0.74279 0.70333 0.0
C937 C 0.16863 0.60084 0.67245 0.0
C938 C 0.09516 0.47193 0.63994 0.0
C939 C 0.16472 0.50333 0.64756 0.0
C940 C 0.15638 0.46939 0.66033 0.0
C941 C 0.12134 0.45365 0.65647 0.0
N942 N 0.13891 0.5211 0.63135 0.0
C943 C 0.10446 0.50584 0.6275 0.0
H944 H 0.14851 0.71866 0.07379 0.0
H945 H 0.23147 0.64794 0.11196 0.0
H946 H 0.19607 0.76548 0.06456 0.0
H947 H 0.27875 0.69476 0.10276 0.0
H948 H 0.36196 0.77949 0.07629 0.0
H949 H 0.315 0.73166 0.0682 0.0
H950 H 0.22975 0.80669 0.09754 0.0
H951 H 0.2764 0.8544 0.10564 0.0
C952 C 0.17697 0.71262 0.07965 0.0
C953 C 0.18594 0.67958 0.09399 0.0
C954 C 0.20421 0.73963 0.07447 0.0
C955 C 0.24115 0.73408 0.08318 0.0
C956 C 0.25065 0.69989 0.09558 0.0
C957 C 0.2234 0.67304 0.10099 0.0
C958 C 0.33311 0.7862 0.08033 0.0
C959 C 0.32316 0.82074 0.09206 0.0
C960 C 0.3062 0.75862 0.07585 0.0
C961 C 0.26867 0.76513 0.08259 0.0
C962 C 0.25834 0.80072 0.09199 0.0
C963 C 0.28522 0.82813 0.09674 0.0
H964 H 0.85603 0.2317 0.11278 0.0
H965 H 0.78423 0.15025 0.07386 0.0
H966 H 0.80914 0.27944 0.10502 0.0
H967 H 0.7372 0.19815 0.06642 0.0
H968 H 0.7235 0.36304 0.07827 0.0
H969 H 0.77112 0.31596 0.06985 0.0
H970 H 0.69774 0.23144 0.10251 0.0
H971 H 0.65025 0.27831 0.11122 0.0
C972 C 0.83067 0.22408 0.10196 0.0
C973 C 0.82384 0.18688 0.09433 0.0
C974 C 0.80378 0.25155 0.09742 0.0
C975 C 0.76926 0.24248 0.0854 0.0
C976 C 0.76337 0.20589 0.07604 0.0
C977 C 0.79048 0.17847 0.08021 0.0
C978 C 0.71711 0.33432 0.08309 0.0
C979 C 0.68307 0.32464 0.09577 0.0
C980 C 0.74454 0.30738 0.07837 0.0
C981 C 0.73834 0.27004 0.08574 0.0
C982 C 0.70333 0.25992 0.09643 0.0
C983 C 0.67611 0.28689 0.10152 0.0
H984 H 0.14675 0.78372 0.43996 0.0
H985 H 0.23008 0.85698 0.40504 0.0
H986 H 0.1945 0.73699 0.44875 0.0
H987 H 0.27758 0.81027 0.41388 0.0
H988 H 0.2769 0.65065 0.40686 0.0
H989 H 0.22963 0.69787 0.41475 0.0
H990 H 0.31296 0.77192 0.44832 0.0
H991 H 0.36051 0.72459 0.44051 0.0
C992 C 0.17531 0.79034 0.43478 0.0
C993 C 0.18434 0.82407 0.42139 0.0
C994 C 0.20266 0.76338 0.43969 0.0
C995 C 0.23978 0.76967 0.4317 0.0
C996 C 0.24931 0.80453 0.42043 0.0
C997 C 0.22195 0.83134 0.41526 0.0
C998 C 0.28514 0.67661 0.41657 0.0
C999 C 0.32274 0.68384 0.42269 0.0
C1000 C 0.2579 0.70371 0.42122 0.0
C1001 C 0.26756 0.73886 0.4319 0.0
C1002 C 0.30471 0.74528 0.43974 0.0
C1003 C 0.33194 0.71799 0.43539 0.0
H1004 H 0.7795 0.36039 0.43782 0.0
H1005 H 0.85299 0.27681 0.40356 0.0
H1006 H 0.73214 0.31287 0.44573 0.0
H1007 H 0.80577 0.22951 0.41171 0.0
H1008 H 0.6471 0.22929 0.40249 0.0
H1009 H 0.69389 0.27702 0.41061 0.0
H1010 H 0.76684 0.19499 0.44714 0.0
H1011 H 0.71993 0.14707 0.43929 0.0
C1012 C 0.786 0.33182 0.43259 0.0
C1013 C 0.82003 0.32261 0.41971 0.0
C1014 C 0.75871 0.30462 0.43701 0.0
C1015 C 0.76505 0.26748 0.42913 0.0
C1016 C 0.80006 0.25781 0.4182 0.0
C1017 C 0.82713 0.28503 0.41343 0.0
C1018 C 0.67268 0.22147 0.41293 0.0
C1019 C 0.67981 0.18409 0.41985 0.0
C1020 C 0.69952 0.24895 0.41767 0.0
C1021 C 0.73428 0.23972 0.42922 0.0
C1022 C 0.74049 0.20288 0.43789 0.0
C1023 C 0.71345 0.17544 0.43349 0.0
H1024 H 0.77728 0.3528 0.90379 0.0
H1025 H 0.85944 0.27979 0.94045 0.0
H1026 H 0.72939 0.30637 0.91229 0.0
H1027 H 0.81129 0.23315 0.9487 0.0
H1028 H 0.72817 0.14769 0.90528 0.0
H1029 H 0.77609 0.1942 0.91365 0.0
H1030 H 0.69362 0.26881 0.9477 0.0
H1031 H 0.64548 0.22222 0.93951 0.0
C1032 C 0.78506 0.32723 0.91426 0.0
C1033 C 0.82243 0.31996 0.92107 0.0
C1034 C 0.75748 0.30061 0.91924 0.0
C1035 C 0.7666 0.2659 0.93092 0.0
C1036 C 0.80349 0.25949 0.93939 0.0
C1037 C 0.83105 0.28635 0.93476 0.0
C1038 C 0.72028 0.1736 0.91522 0.0
C1039 C 0.68276 0.18127 0.92136 0.0
C1040 C 0.74786 0.20026 0.92013 0.0
C1041 C 0.73859 0.23537 0.93106 0.0
C1042 C 0.70154 0.24216 0.93895 0.0
C1043 C 0.67398 0.21531 0.93437 0.0
H1044 H 0.27986 0.6466 0.94091 0.0
H1045 H 0.35364 0.72808 0.90418 0.0
H1046 H 0.23345 0.69508 0.94877 0.0
H1047 H 0.30744 0.77632 0.91235 0.0
H1048 H 0.22306 0.86065 0.93919 0.0
H1049 H 0.26946 0.81241 0.94777 0.0
H1050 H 0.19538 0.73014 0.91282 0.0
H1051 H 0.14915 0.77814 0.90396 0.0
C1052 C 0.28664 0.67492 0.93514 0.0
C1053 C 0.32038 0.68325 0.92151 0.0
C1054 C 0.25993 0.70266 0.93956 0.0
C1055 C 0.26663 0.73944 0.93095 0.0
C1056 C 0.30148 0.7483 0.91939 0.0
C1057 C 0.32795 0.72053 0.9146 0.0
C1058 C 0.21625 0.83218 0.9339 0.0
C1059 C 0.18247 0.82346 0.9205 0.0
C1060 C 0.24296 0.80456 0.93873 0.0
C1061 C 0.23623 0.76754 0.93074 0.0
C1062 C 0.20136 0.75835 0.91938 0.0
C1063 C 0.17488 0.78598 0.91419 0.0
H1064 H 0.72882 0.35603 0.6122 0.0
H1065 H 0.64545 0.28263 0.57753 0.0
H1066 H 0.77636 0.3093 0.60329 0.0
H1067 H 0.69321 0.23581 0.56883 0.0
H1068 H 0.77661 0.15056 0.61159 0.0
H1069 H 0.72897 0.19746 0.6038 0.0
H1070 H 0.81104 0.27071 0.56758 0.0
H1071 H 0.85893 0.22359 0.57509 0.0
C1072 C 0.72069 0.33033 0.60206 0.0
C1073 C 0.6831 0.32304 0.59593 0.0
C1074 C 0.74806 0.30354 0.59685 0.0
C1075 C 0.7385 0.26868 0.58561 0.0
C1076 C 0.70136 0.26227 0.57779 0.0
C1077 C 0.67402 0.28924 0.58267 0.0
C1078 C 0.78446 0.17625 0.6013 0.0
C1079 C 0.82182 0.18337 0.59432 0.0
C1080 C 0.75703 0.20313 0.59673 0.0
C1081 C 0.76629 0.23798 0.58533 0.0
C1082 C 0.80314 0.24427 0.57669 0.0
C1083 C 0.83055 0.21713 0.58089 0.0
H1084 H 0.22352 0.64373 0.5763 0.0
H1085 H 0.14964 0.7264 0.61136 0.0
H1086 H 0.27037 0.69174 0.56833 0.0
H1087 H 0.19629 0.77422 0.60298 0.0
H1088 H 0.35408 0.77588 0.61322 0.0
H1089 H 0.30774 0.72776 0.60484 0.0
H1090 H 0.23524 0.80885 0.56667 0.0
H1091 H 0.28179 0.85715 0.57466 0.0
C1092 C 0.21681 0.6722 0.58167 0.0
C1093 C 0.1829 0.68102 0.59487 0.0
C1094 C 0.24378 0.69967 0.57718 0.0
C1095 C 0.23715 0.73668 0.58525 0.0
C1096 C 0.20217 0.746 0.59637 0.0
C1097 C 0.17545 0.71849 0.60127 0.0
C1098 C 0.3287 0.7834 0.60238 0.0
C1099 C 0.32159 0.82059 0.59495 0.0
C1100 C 0.30216 0.75571 0.59748 0.0
C1101 C 0.26769 0.7646 0.58533 0.0
C1102 C 0.26143 0.80127 0.57631 0.0
C1103 C 0.28823 0.8289 0.58081 0.0
H1104 H 0.99167 0.39488 0.29918 0.0
H1105 H 0.94365 0.50146 0.32029 0.0
H1106 H 0.0295 0.42496 0.2627 0.0
H1107 H 0.98141 0.53112 0.28462 0.0
H1108 H 0.00661 0.56274 0.19665 0.0
H1109 H 0.97618 0.5264 0.23273 0.0
H1110 H 0.08082 0.47454 0.25383 0.0
H1111 H 0.11172 0.51101 0.21692 0.0
C1112 C 0.98968 0.4247 0.29635 0.0
C1113 C 0.96425 0.44577 0.31215 0.0
C1114 C 0.01131 0.44184 0.27557 0.0
C1115 C 0.0077 0.48017 0.2705 0.0
C1116 C 0.98401 0.50136 0.28759 0.0
C1117 C 0.96245 0.48436 0.30808 0.0
C1118 C 0.02323 0.54345 0.20878 0.0
C1119 C 0.06166 0.54015 0.20431 0.0
C1120 C 0.00579 0.52271 0.22952 0.0
C1121 C 0.02634 0.49834 0.24648 0.0
C1122 C 0.06444 0.49331 0.24108 0.0
C1123 C 0.08205 0.51414 0.22005 0.0
H1124 H 0.91287 0.02352 0.22226 0.0
H1125 H 0.00593 0.09274 0.19846 0.0
H1126 H 0.95167 0.99096 0.25557 0.0
H1127 H 0.0457 0.05878 0.23162 0.0
H1128 H 0.09086 0.00631 0.31618 0.0
H1129 H 0.05687 0.0449 0.28222 0.0
H1130 H 1.00097 0.94669 0.25128 0.0
H1131 H 0.03343 0.90898 0.28544 0.0
C1132 C 0.9418 0.03162 0.22403 0.0
C1133 C 0.95655 0.06029 0.20747 0.0
C1134 C 0.96412 0.01282 0.24307 0.0
C1135 C 1.00198 0.02172 0.24578 0.0
C1136 C 0.01662 0.05131 0.22994 0.0
C1137 C 0.99397 0.07059 0.21094 0.0
C1138 C 0.07144 0.99319 0.30191 0.0
C1139 C 0.06417 0.95488 0.30372 0.0
C1140 C 0.05213 0.01516 0.28247 0.0
C1141 C 0.02567 0.99891 0.26451 0.0
C1142 C 0.02028 0.96025 0.26541 0.0
C1143 C 0.03901 0.93859 0.28492 0.0
H1144 H 0.58353 0.01761 0.29631 0.0
H1145 H 0.49599 0.09651 0.31436 0.0
H1146 H 0.5431 0.98518 0.26418 0.0
H1147 H 0.45454 0.06282 0.28213 0.0
H1148 H 0.41349 0.00751 0.19591 0.0
H1149 H 0.44633 0.04582 0.2308 0.0
H1150 H 0.48893 0.94597 0.26964 0.0
H1151 H 0.4577 0.9084 0.23463 0.0
C1152 C 0.55547 0.02796 0.29356 0.0
C1153 C 0.54281 0.05941 0.30814 0.0
C1154 C 0.53218 0.00918 0.27519 0.0
C1155 C 0.49539 0.02099 0.27107 0.0
C1156 C 0.48278 0.05309 0.28499 0.0
C1157 C 0.50639 0.07222 0.30345 0.0
C1158 C 0.42957 0.99401 0.21219 0.0
C1159 C 0.43386 0.9552 0.21233 0.0
C1160 C 0.44819 0.01582 0.23215 0.0
C1161 C 0.47085 0.99886 0.25252 0.0
C1162 C 0.4726 0.95989 0.2537 0.0
C1163 C 0.45465 0.93836 0.23369 0.0
H1164 H 0.56003 0.5011 0.19752 0.0
H1165 H 0.51245 0.39418 0.21827 0.0
H1166 H 0.523 0.53021 0.23386 0.0
H1167 H 0.47528 0.42376 0.25541 0.0
H1168 H 0.3937 0.51122 0.30175 0.0
H1169 H 0.42393 0.4741 0.26485 0.0
H1170 H 0.52948 0.52413 0.28589 0.0
H1171 H 0.49971 0.56113 0.32193 0.0
C1172 C 0.54147 0.4838 0.20979 0.0
C1173 C 0.5396 0.44527 0.20542 0.0
C1174 C 0.52033 0.50049 0.23066 0.0
C1175 C 0.49697 0.47907 0.24784 0.0
C1176 C 0.49325 0.44081 0.24249 0.0
C1177 C 0.51448 0.42396 0.22133 0.0
C1178 C 0.42344 0.51372 0.29866 0.0
C1179 C 0.44428 0.5395 0.31429 0.0
C1180 C 0.44066 0.49254 0.27763 0.0
C1181 C 0.47882 0.49697 0.27217 0.0
C1182 C 0.49984 0.52091 0.28916 0.0
C1183 C 0.48277 0.54202 0.30987 0.0
H1184 H 0.06147 0.50184 0.69561 0.0
H1185 H 0.01263 0.60819 0.71632 0.0
H1186 H 0.02475 0.4723 0.73194 0.0
H1187 H 0.97582 0.57822 0.75346 0.0
H1188 H 0.89549 0.49055 0.80015 0.0
H1189 H 0.92525 0.52762 0.76307 0.0
H1190 H 0.03125 0.47841 0.78389 0.0
H1191 H 1.00191 0.44142 0.82016 0.0
C1192 C 0.04267 0.5189 0.70785 0.0
C1193 C 0.04035 0.5574 0.7035 0.0
C1194 C 0.02173 0.50198 0.72872 0.0
C1195 C 0.99818 0.52317 0.7459 0.0
C1196 C 0.99396 0.56136 0.74053 0.0
C1197 C 0.01497 0.57843 0.71936 0.0
C1198 C 0.92522 0.4882 0.79697 0.0
C1199 C 0.94633 0.46266 0.81262 0.0
C1200 C 0.94217 0.50936 0.77584 0.0
C1201 C 0.98032 0.50515 0.77028 0.0
C1202 C 1.0016 0.48143 0.78725 0.0
C1203 C 0.9848 0.46034 0.80809 0.0
H1204 H 0.06099 0.0022 0.81914 0.0
H1205 H 0.01188 0.89565 0.79937 0.0
H1206 H 0.02421 0.0313 0.78266 0.0
H1207 H 0.97499 0.92518 0.7621 0.0
H1208 H 1.00135 0.06079 0.69417 0.0
H1209 H 0.03065 0.02417 0.73065 0.0
H1210 H 0.92445 0.97597 0.75232 0.0
H1211 H 0.89471 0.01268 0.71504 0.0
C1212 C 0.04211 0.98501 0.80708 0.0
C1213 C 0.03974 0.94657 0.81173 0.0
C1214 C 0.02114 1.00167 0.78613 0.0
C1215 C 0.99749 0.98028 0.76917 0.0
C1216 C 0.99321 0.94217 0.77486 0.0
C1217 C 0.01426 0.92536 0.7961 0.0
C1218 C 0.98418 0.04215 0.70647 0.0
C1219 C 0.94567 0.04003 0.70212 0.0
C1220 C 1.00096 0.02128 0.72742 0.0
C1221 C 0.97962 0.99798 0.74469 0.0
C1222 C 0.94141 0.99392 0.73931 0.0
C1223 C 0.92448 0.01487 0.71807 0.0
H1224 H 0.50301 0.06519 0.81871 0.0
H1225 H 0.60828 0.01369 0.7985 0.0
H1226 H 0.47283 0.02907 0.78238 0.0
H1227 H 0.57767 0.97749 0.76136 0.0
H1228 H 0.48998 0.89759 0.71567 0.0
H1229 H 0.52716 0.92797 0.7523 0.0
H1230 H 0.47772 0.03359 0.73064 0.0
H1231 H 0.44053 0.00359 0.69478 0.0
C1232 C 0.51972 0.04601 0.80653 0.0
C1233 C 0.55811 0.04268 0.81111 0.0
C1234 C 0.50242 0.02542 0.78564 0.0
C1235 C 0.52311 1.00117 0.76866 0.0
C1236 C 0.56118 0.99616 0.77413 0.0
C1237 C 0.57863 0.01683 0.79529 0.0
C1238 C 0.48752 0.92736 0.71859 0.0
C1239 C 0.46192 0.94816 0.70278 0.0
C1240 C 0.50879 0.94468 0.73946 0.0
C1241 C 0.50465 0.98292 0.74463 0.0
C1242 C 0.48072 0.00388 0.72758 0.0
C1243 C 0.45951 0.98669 0.70698 0.0
H1244 H 0.61002 0.49104 0.71921 0.0
H1245 H 0.5042 0.44152 0.69788 0.0
H1246 H 0.57943 0.52757 0.75621 0.0
H1247 H 0.47405 0.47797 0.73406 0.0
H1248 H 0.4914 0.60813 0.80172 0.0
H1249 H 0.52904 0.57789 0.76522 0.0
H1250 H 0.47872 0.47232 0.78591 0.0
H1251 H 0.44111 0.50217 0.8216 0.0
C1252 C 0.58026 0.48843 0.72213 0.0
C1253 C 0.55955 0.46299 0.70608 0.0
C1254 C 0.56283 0.50928 0.74321 0.0
C1255 C 0.5246 0.50487 0.74833 0.0
C1256 C 0.50376 0.48114 0.73106 0.0
C1257 C 0.52103 0.46035 0.71026 0.0
C1258 C 0.4889 0.57839 0.79863 0.0
C1259 C 0.4629 0.55756 0.81407 0.0
C1260 C 0.5104 0.56116 0.77784 0.0
C1261 C 0.5061 0.52299 0.7724 0.0
C1262 C 0.48185 0.50198 0.78917 0.0
C1263 C 0.4604 0.51908 0.80967 0.0
H1264 H 0.08018 0.73855 0.17474 0.0
H1265 H 0.12491 0.64989 0.2258 0.0
H1266 H 0.07786 0.77882 0.21622 0.0
H1267 H 0.12237 0.68989 0.26685 0.0
H1268 H 0.07882 0.76239 0.33975 0.0
H1269 H 0.07581 0.72203 0.29834 0.0
H1270 H 0.12541 0.8087 0.24813 0.0
H1271 H 0.12866 0.84877 0.28911 0.0
C1272 C 0.0894 0.72761 0.19473 0.0
C1273 C 0.10302 0.69106 0.19679 0.0
C1274 C 0.08815 0.75067 0.21847 0.0
C1275 C 0.09988 0.73749 0.24485 0.0
C1276 C 0.11278 0.70078 0.24695 0.0
C1277 C 0.11453 0.67797 0.22326 0.0
C1278 C 0.08911 0.77278 0.31989 0.0
C1279 C 0.10428 0.80874 0.31792 0.0
C1280 C 0.08742 0.74968 0.29618 0.0
C1281 C 0.10027 0.76225 0.26992 0.0
C1282 C 0.11491 0.79832 0.26793 0.0
C1283 C 0.11709 0.82114 0.29159 0.0
H1284 H 0.75925 0.12033 0.17262 0.0
H1285 H 0.85137 0.08254 0.22279 0.0
H1286 H 0.71951 0.12064 0.21411 0.0
H1287 H 0.8115 0.07936 0.26382 0.0
H1288 H 0.74345 0.11135 0.33992 0.0
H1289 H 0.78286 0.11105 0.2983 0.0
H1290 H 0.68594 0.0902 0.2467 0.0
H1291 H 0.64686 0.09392 0.28809 0.0
C1292 C 0.77064 0.11129 0.19251 0.0
C1293 C 0.80823 0.10157 0.19464 0.0
C1294 C 0.74789 0.11116 0.21641 0.0
C1295 C 0.76197 0.10017 0.24284 0.0
C1296 C 0.79952 0.08914 0.24437 0.0
C1297 C 0.82242 0.09044 0.22072 0.0
C1298 C 0.73083 0.10682 0.31958 0.0
C1299 C 0.6922 0.10301 0.31714 0.0
C1300 C 0.75339 0.10628 0.29558 0.0
C1301 C 0.73795 0.10063 0.26864 0.0
C1302 C 0.69916 0.09572 0.26664 0.0
C1303 C 0.67662 0.09748 0.29048 0.0
H1304 H 0.38094 0.64976 0.29065 0.0
H1305 H 0.42321 0.74053 0.34081 0.0
H1306 H 0.38176 0.68936 0.24929 0.0
H1307 H 0.42376 0.78035 0.2991 0.0
H1308 H 0.37177 0.84794 0.22559 0.0
H1309 H 0.375 0.80827 0.26685 0.0
H1310 H 0.42798 0.72247 0.21777 0.0
H1311 H 0.42504 0.76235 0.17618 0.0
C1312 C 0.39039 0.67821 0.29292 0.0
C1313 C 0.4018 0.692 0.31921 0.0
C1314 C 0.39113 0.7008 0.26908 0.0
C1315 C 0.40283 0.73795 0.27088 0.0
C1316 C 0.41436 0.75185 0.29709 0.0
C1317 C 0.41415 0.72903 0.32096 0.0
C1318 C 0.38401 0.82056 0.22343 0.0
C1319 C 0.39792 0.80828 0.19739 0.0
C1320 C 0.38617 0.79798 0.24723 0.0
C1321 C 0.40184 0.76231 0.24563 0.0
C1322 C 0.41557 0.7498 0.21962 0.0
C1323 C 0.41391 0.77265 0.19581 0.0
H1324 H 0.65214 0.38418 0.22714 0.0
H1325 H 0.73869 0.43255 0.17585 0.0
H1326 H 0.69259 0.38736 0.26791 0.0
H1327 H 0.77938 0.43556 0.21702 0.0
H1328 H 0.85171 0.38532 0.28897 0.0
H1329 H 0.81128 0.38872 0.24818 0.0
H1330 H 0.72357 0.43417 0.2996 0.0
H1331 H 0.76422 0.43093 0.34078 0.0
C1332 C 0.67983 0.39553 0.2245 0.0
C1333 C 0.69221 0.40787 0.19805 0.0
C1334 C 0.70289 0.39764 0.24802 0.0
C1335 C 0.73915 0.41176 0.24575 0.0
C1336 C 0.75161 0.42433 0.21939 0.0
C1337 C 0.72829 0.42269 0.19583 0.0
C1338 C 0.82382 0.39612 0.29172 0.0
C1339 C 0.81116 0.4076 0.31832 0.0
C1340 C 0.80077 0.39836 0.26819 0.0
C1341 C 0.76425 0.41174 0.27061 0.0
C1342 C 0.75154 0.4235 0.29711 0.0
C1343 C 0.77484 0.42173 0.32068 0.0
H1344 H 0.91952 0.14888 0.72453 0.0
H1345 H 0.89246 0.24395 0.67352 0.0
H1346 H 0.92307 0.18821 0.76583 0.0
H1347 H 0.89244 0.28335 0.71511 0.0
H1348 H 0.9189 0.35399 0.79013 0.0
H1349 H 0.92246 0.31472 0.74881 0.0
H1350 H 0.89296 0.2193 0.79963 0.0
H1351 H 0.89298 0.25868 0.84124 0.0
C1352 C 0.91393 0.17835 0.72232 0.0
C1353 C 0.90575 0.19345 0.69589 0.0
C1354 C 0.9155 0.20102 0.74613 0.0
C1355 C 0.90767 0.23938 0.7444 0.0
C1356 C 0.89949 0.25432 0.71766 0.0
C1357 C 0.89916 0.23173 0.69366 0.0
C1358 C 0.91353 0.32448 0.79236 0.0
C1359 C 0.90567 0.30931 0.81882 0.0
C1360 C 0.91512 0.30183 0.76853 0.0
C1361 C 0.90764 0.26341 0.77029 0.0
C1362 C 0.89975 0.24839 0.79706 0.0
C1363 C 0.89941 0.27097 0.82107 0.0
H1364 H 0.25971 0.88888 0.67294 0.0
H1365 H 0.35149 0.92832 0.72274 0.0
H1366 H 0.22004 0.88864 0.71443 0.0
H1367 H 0.31161 0.93156 0.76381 0.0
H1368 H 0.24408 0.89954 0.84027 0.0
H1369 H 0.28339 0.9004 0.79864 0.0
H1370 H 0.18591 0.91818 0.747 0.0
H1371 H 0.14699 0.91392 0.78846 0.0
C1372 C 0.27103 0.89837 0.69274 0.0
C1373 C 0.30854 0.90851 0.69474 0.0
C1374 C 0.24828 0.89852 0.71667 0.0
C1375 C 0.26225 0.90994 0.74304 0.0
C1376 C 0.29969 0.92145 0.74443 0.0
C1377 C 0.32261 0.92012 0.72075 0.0
C1378 C 0.23129 0.90355 0.81993 0.0
C1379 C 0.19255 0.90632 0.81755 0.0
C1380 C 0.25381 0.90441 0.7959 0.0
C1381 C 0.23824 0.90933 0.76891 0.0
C1382 C 0.19932 0.91323 0.76696 0.0
C1383 C 0.17683 0.91117 0.79085 0.0
H1384 H 0.62196 0.15286 0.79009 0.0
H1385 H 0.57475 0.2401 0.8413 0.0
H1386 H 0.61893 0.1931 0.7492 0.0
H1387 H 0.57191 0.28062 0.79999 0.0
H1388 H 0.62191 0.35223 0.72755 0.0
H1389 H 0.61861 0.31202 0.76845 0.0
H1390 H 0.57238 0.22428 0.71748 0.0
H1391 H 0.57548 0.26477 0.67617 0.0
C1392 C 0.61091 0.18067 0.7927 0.0
C1393 C 0.59885 0.19328 0.81918 0.0
C1394 C 0.60888 0.20362 0.7691 0.0
C1395 C 0.59512 0.24003 0.77127 0.0
C1396 C 0.58286 0.25273 0.79767 0.0
C1397 C 0.58441 0.22952 0.82132 0.0
C1398 C 0.61098 0.32438 0.72491 0.0
C1399 C 0.59922 0.31169 0.69838 0.0
C1400 C 0.60879 0.30144 0.74851 0.0
C1401 C 0.59518 0.26498 0.74629 0.0
C1402 C 0.58321 0.25221 0.71985 0.0
C1403 C 0.58491 0.27541 0.69619 0.0
H1404 H 0.25891 0.61243 0.84219 0.0
H1405 H 0.35394 0.5851 0.79117 0.0
H1406 H 0.21948 0.61224 0.80063 0.0
H1407 H 0.31459 0.58133 0.74992 0.0
H1408 H 0.24396 0.61099 0.67455 0.0
H1409 H 0.28341 0.61134 0.7161 0.0
H1410 H 0.18817 0.58175 0.76712 0.0
H1411 H 0.14881 0.58498 0.72584 0.0
C1412 C 0.27112 0.60565 0.82205 0.0
C1413 C 0.3094 0.59905 0.8198 0.0
C1414 C 0.24851 0.60519 0.79808 0.0
C1415 C 0.26344 0.59683 0.77136 0.0
C1416 C 0.30179 0.58903 0.76961 0.0
C1417 C 0.32448 0.59074 0.79339 0.0
C1418 C 0.23172 0.60461 0.69475 0.0
C1419 C 0.19342 0.59822 0.69708 0.0
C1420 C 0.25434 0.60446 0.71872 0.0
C1421 C 0.23938 0.59665 0.74552 0.0
C1422 C 0.20099 0.58904 0.74736 0.0
C1423 C 0.1783 0.59044 0.72357 0.0
H1424 H 0.10002 0.52561 0.04913 0.0
H1425 H 0.00837 0.60228 0.04096 0.0
H1426 H 0.06557 0.4791 0.02303 0.0
H1427 H 0.97448 0.55654 0.01318 0.0
H1428 H 0.90628 0.45625 0.98673 0.0
H1429 H 0.94077 0.50182 0.01419 0.0
H1430 H 0.04388 0.45878 0.98062 0.0
H1431 H 0.00946 0.41205 0.95468 0.0
C1432 C 0.07274 0.53286 0.04126 0.0
C1433 C 0.05708 0.56783 0.04718 0.0
C1434 C 0.05286 0.50608 0.02605 0.0
C1435 C 0.01687 0.51359 0.01578 0.0
C1436 C 1.00166 0.54907 0.02113 0.0
C1437 C 0.02133 0.57565 0.0368 0.0
C1438 C 0.93636 0.45621 0.98556 0.0
C1439 C 0.955 0.43017 0.96863 0.0
C1440 C 0.95627 0.48278 1.00107 0.0
C1441 C 0.99544 0.48456 0.99974 0.0
C1442 C 0.01394 0.45821 0.98285 0.0
C1443 C 0.99409 0.43129 0.96776 0.0
H1444 H 0.04666 0.90681 0.98569 0.0
H1445 H 0.0915 0.01024 0.95459 0.0
H1446 H 1.00129 0.94114 0.01347 0.0
H1447 H 0.04503 0.04453 0.98093 0.0
H1448 H 0.97857 0.09969 0.05021 0.0
H1449 H 0.02497 0.06537 0.02386 0.0
H1450 H 0.94669 0.97535 0.01232 0.0
H1451 H 0.90098 0.00908 0.04024 0.0
C1452 C 0.0469 0.93691 0.98481 0.0
C1453 C 0.07303 0.95567 0.96803 0.0
C1454 C 0.02046 0.95672 1.00051 0.0
C1455 C 0.01895 0.99591 0.99955 0.0
C1456 C 0.04541 0.01455 0.98284 0.0
C1457 C 0.07217 0.99477 0.96754 0.0
C1458 C 0.97111 0.07267 0.04191 0.0
C1459 C 0.9359 0.05726 0.04737 0.0
C1460 C 0.99783 0.05288 0.02657 0.0
C1461 C 0.99003 0.01723 0.01575 0.0
C1462 C 0.95434 0.00225 0.02069 0.0
C1463 C 0.9278 0.02184 0.03646 0.0
H1464 H 0.40582 0.95728 0.0311 0.0
H1465 H 0.50939 0.91573 0.06436 0.0
H1466 H 0.4398 0.00267 1.00311 0.0
H1467 H 0.54332 0.96225 0.0377 0.0
H1468 H 0.59839 0.02766 0.96757 0.0
H1469 H 0.56468 0.98146 0.99459 0.0
H1470 H 0.47278 0.05806 1.00375 0.0
H1471 H 0.50596 0.10352 0.97522 0.0
C1472 C 0.43589 0.95779 0.03243 0.0
C1473 C 0.45479 0.93253 0.04985 0.0
C1474 C 0.45549 0.98425 0.01659 0.0
C1475 C 0.4946 0.98668 0.01803 0.0
C1476 C 0.5134 0.96114 0.03542 0.0
C1477 C 0.49384 0.93435 0.0509 0.0
C1478 C 0.57109 0.03482 0.9755 0.0
C1479 C 0.555 0.06947 0.96918 0.0
C1480 C 0.55165 0.00821 0.99122 0.0
C1481 C 0.51565 0.01556 1.00155 0.0
C1482 C 0.49999 0.05073 0.99578 0.0
C1483 C 0.51925 0.07714 0.97966 0.0
H1484 H 0.41205 0.49652 0.95607 0.0
H1485 H 0.45569 0.60021 0.98764 0.0
H1486 H 0.45913 0.46258 0.98198 0.0
H1487 H 0.5016 0.56621 0.01509 0.0
H1488 H 0.60268 0.49973 0.04161 0.0
H1489 H 0.55654 0.53296 0.01381 0.0
H1490 H 0.47989 0.44131 0.02442 0.0
H1491 H 0.52682 0.4075 0.05056 0.0
C1492 C 0.43124 0.5121 0.96904 0.0
C1493 C 0.42989 0.55119 0.96978 0.0
C1494 C 0.45836 0.49253 0.98411 0.0
C1495 C 0.48465 0.51134 1.00084 0.0
C1496 C 0.4826 0.5505 1.00207 0.0
C1497 C 0.45585 0.57012 0.98658 0.0
C1498 C 0.57614 0.48651 0.03761 0.0
C1499 C 0.56865 0.4508 0.04823 0.0
C1500 C 0.54933 0.5058 0.02193 0.0
C1501 C 0.51395 0.49024 0.01682 0.0
C1502 C 0.50678 0.45427 0.02728 0.0
C1503 C 0.5338 0.43476 0.04249 0.0
H1504 H 0.09733 0.97794 0.46326 0.0
H1505 H 0.006 0.90093 0.4719 0.0
H1506 H 0.06313 0.02416 0.48983 0.0
H1507 H 0.97236 0.94642 0.50012 0.0
H1508 H 0.90447 0.04642 0.52789 0.0
H1509 H 0.93853 1.00111 0.49985 0.0
H1510 H 0.04216 0.04397 0.53262 0.0
H1511 H 0.00813 0.09042 0.55916 0.0
C1512 C 0.07016 0.97055 0.47132 0.0
C1513 C 0.05454 0.93555 0.46541 0.0
C1514 C 0.05043 0.99717 0.4868 0.0
C1515 C 0.01463 0.98949 0.49738 0.0
C1516 C 0.9994 0.95401 0.49197 0.0
C1517 C 0.01893 0.92758 0.47603 0.0
C1518 C 0.93456 0.04647 0.52876 0.0
C1519 C 0.95346 0.07239 0.54564 0.0
C1520 C 0.95423 0.02006 0.51291 0.0
C1521 C 0.99342 0.01832 0.51383 0.0
C1522 C 0.01218 0.04452 0.53069 0.0
C1523 C 0.99256 0.07128 0.54613 0.0
H1524 H 0.59002 0.99602 0.45281 0.0
H1525 H 0.54502 0.09925 0.48416 0.0
H1526 H 0.54363 0.96154 0.47916 0.0
H1527 H 0.49975 0.06476 0.51189 0.0
H1528 H 0.3996 0.99691 0.53866 0.0
H1529 H 0.44521 0.03052 0.51058 0.0
H1530 H 0.52353 0.94058 0.52214 0.0
H1531 H 0.47721 0.90636 0.5487 0.0
C1532 C 0.57067 0.0114 0.46581 0.0
C1533 C 0.57146 0.0505 0.46638 0.0
C1534 C 0.54395 0.99152 0.48111 0.0
C1535 C 0.51747 0.01006 0.49785 0.0
C1536 C 0.51893 0.04925 0.49889 0.0
C1537 C 0.54531 0.06915 0.48321 0.0
C1538 C 0.42641 0.98413 0.53485 0.0
C1539 C 0.43454 0.94877 0.54585 0.0
C1540 C 0.45289 0.00365 0.51899 0.0
C1541 C 0.48857 0.98868 0.51404 0.0
C1542 C 0.49639 0.95305 0.52489 0.0
C1543 C 0.46972 0.93333 0.54033 0.0
H1544 H 0.59893 0.4778 0.55082 0.0
H1545 H 0.50665 0.40188 0.54245 0.0
H1546 H 0.56497 0.52456 0.5246 0.0
H1547 H 0.47325 0.44788 0.51462 0.0
H1548 H 0.40588 0.54864 0.48832 0.0
H1549 H 0.44005 0.50296 0.51586 0.0
H1550 H 0.54345 0.54496 0.48203 0.0
H1551 H 0.50935 0.5918 0.45595 0.0
C1552 C 0.57161 0.47076 0.54288 0.0
C1553 C 0.55563 0.43593 0.54879 0.0
C1554 C 0.55203 0.49769 0.52762 0.0
C1555 C 0.516 0.49048 0.5173 0.0
C1556 C 0.50047 0.45512 0.52262 0.0
C1557 C 0.51986 0.42839 0.53832 0.0
C1558 C 0.43596 0.54845 0.48711 0.0
C1559 C 0.45477 0.57421 0.47005 0.0
C1560 C 0.45568 0.52181 0.50267 0.0
C1561 C 0.49482 0.51968 0.50126 0.0
C1562 C 0.51352 0.54579 0.48429 0.0
C1563 C 0.49385 0.57278 0.46913 0.0
H1564 H 0.97557 0.40558 0.46653 0.0
H1565 H 0.89979 0.49789 0.47532 0.0
H1566 H 0.02244 0.43937 0.49276 0.0
H1567 H 0.94589 0.53109 0.50321 0.0
H1568 H 0.04686 0.59829 0.52938 0.0
H1569 H 1.00093 0.56428 0.50193 0.0
H1570 H 0.04306 0.46069 0.53527 0.0
H1571 H 0.09016 0.49462 0.5612 0.0
C1572 C 0.96859 0.43286 0.47458 0.0
C1573 C 0.93378 0.44892 0.46877 0.0
C1574 C 0.99558 0.45235 0.48985 0.0
C1575 C 0.98843 0.48834 0.50028 0.0
C1576 C 0.95308 0.50392 0.49511 0.0
C1577 C 0.9263 0.48464 0.47938 0.0
C1578 C 0.04662 0.5682 0.5305 0.0
C1579 C 0.07249 0.54928 0.54737 0.0
C1580 C 0.01985 0.54858 0.515 0.0
C1581 C 0.01771 0.50943 0.51629 0.0
C1582 C 0.04391 0.49063 0.5331 0.0
C1583 C 0.07103 0.5102 0.54818 0.0
loop_
_geom_bond_atom_site_label_1
_geom_bond_atom_site_label_2
_geom_bond_distance
_geom_bond_site_symmetry_2
_ccdc_geom_bond_type
Co0 O2 2.143 . S
Co0 O8 2.074 . S
Co0 O11 2.093 . S
Co0 O24 2.097 . S
Co0 N41 2.151 . S
Co0 N49 2.214 . S
Co1 O2 2.160 . S
Co1 O7 2.058 . S
Co1 O17 2.057 . S
Co1 O32 2.037 . S
Co1 N36 2.145 . S
Co1 N57 2.257 1_455 S
O2 Co0 2.143 . S
O2 Co1 2.160 . S
C3 O4 1.278 1_455 S
C3 O11 1.224 . S
O4 C3 1.278 1_655 S
C5 O6 1.245 . S
C5 O17 1.232 . S
O6 C5 1.245 . S
O7 Co1 2.058 . S
O7 C33 1.269 . S
O8 Co0 2.074 . S
O8 C33 1.257 . S
H9 C34 0.930 . S
H10 C40 0.930 . S
O11 Co0 2.093 . S
O11 C3 1.224 . S
H12 C44 0.929 . S
H13 C46 0.930 . S
H14 C47 0.930 . S
H15 C45 0.929 . S
H16 C48 0.928 . S
O17 Co1 2.057 . S
O17 C5 1.232 . S
H18 C37 0.929 . S
H19 C38 0.929 . S
H20 C50 0.931 . S
H21 C42 0.929 . S
H22 C51 0.930 . S
H23 C43 0.931 . S
O24 Co0 2.097 . S
O24 C52 1.214 . S
H25 C53 0.929 . S
H26 C54 0.929 . S
H27 C55 0.930 . S
H28 C56 0.929 . S
H29 C58 0.930 . S
H30 C35 0.930 . S
H31 C39 0.930 . S
O32 Co1 2.037 . S
O32 C52 1.234 . S
C33 O7 1.269 . S
C33 O8 1.257 . S
C34 H9 0.930 . S
C34 C37 1.388 . S
C34 C39 1.418 . S
C35 H30 0.930 . S
C35 C38 1.404 . S
C35 C39 1.353 . S
N36 Co1 2.145 . S
N36 C37 1.397 . S
N36 C38 1.334 . S
C37 H18 0.929 . S
C37 C34 1.388 . S
C37 N36 1.397 . S
C38 H19 0.929 . S
C38 C35 1.404 . S
C38 N36 1.334 . S
C39 H31 0.930 . S
C39 C34 1.418 . S
C39 C35 1.353 . S
C40 H10 0.930 . S
C40 N41 1.330 . S
C40 C42 1.446 . S
N41 Co0 2.151 . S
N41 C40 1.330 . S
N41 C45 1.418 . S
C42 H21 0.929 . S
C42 C40 1.446 . S
C42 C43 1.332 . S
C43 H23 0.931 . S
C43 C42 1.332 . S
C43 C44 1.267 . S
C44 H12 0.929 . S
C44 C43 1.267 . S
C44 C45 1.251 . S
C45 H15 0.929 . S
C45 N41 1.418 . S
C45 C44 1.251 . S
C46 H13 0.930 . S
C46 C48 1.406 . S
C46 C51 1.261 . S
C47 H14 0.930 . S
C47 N49 1.325 . S
C47 C50 1.357 . S
C48 H16 0.928 . S
C48 C46 1.406 . S
C48 N49 1.261 . S
N49 Co0 2.214 . S
N49 C47 1.325 . S
N49 C48 1.261 . S
C50 H20 0.931 . S
C50 C47 1.357 . S
C50 C51 1.312 . S
C51 H22 0.930 . S
C51 C46 1.261 . S
C51 C50 1.312 . S
C52 O24 1.214 . S
C52 O32 1.234 . S
C53 H25 0.929 . S
C53 C56 1.391 . S
C53 C58 1.391 . S
C54 H26 0.929 . S
C54 C55 1.390 . S
C54 N57 1.391 . S
C55 H27 0.930 . S
C55 C54 1.390 . S
C55 C56 1.392 . S
C56 H28 0.929 . S
C56 C53 1.391 . S
C56 C55 1.392 . S
N57 Co1 2.257 1_655 S
N57 C54 1.391 . S
N57 C58 1.388 . S
C58 H29 0.930 . S
C58 C53 1.391 . S
C58 N57 1.388 . S
Co59 O61 2.143 . S
Co59 O67 2.074 . S
Co59 O70 2.093 . S
Co59 O83 2.097 . S
Co59 N100 2.151 . S
Co59 N108 2.214 . S
Co60 O61 2.160 . S
Co60 O66 2.058 . S
Co60 O76 2.057 . S
Co60 O91 2.037 . S
Co60 N95 2.145 . S
Co60 N116 2.257 1_545 S
O61 Co59 2.143 . S
O61 Co60 2.160 . S
C62 O63 1.278 1_545 S
C62 O70 1.224 . S
O63 C62 1.278 1_565 S
C64 O65 1.245 . S
C64 O76 1.232 . S
O65 C64 1.245 . S
O66 Co60 2.058 . S
O66 C92 1.269 . S
O67 Co59 2.074 . S
O67 C92 1.257 . S
H68 C93 0.930 . S
H69 C99 0.930 . S
O70 Co59 2.093 . S
O70 C62 1.224 . S
H71 C103 0.929 . S
H72 C105 0.930 . S
H73 C106 0.930 . S
H74 C104 0.929 . S
H75 C107 0.928 . S
O76 Co60 2.057 . S
O76 C64 1.232 . S
H77 C96 0.929 . S
H78 C97 0.929 . S
H79 C109 0.931 . S
H80 C101 0.929 1_455 S
H81 C110 0.930 . S
H82 C102 0.953 . S
O83 Co59 2.097 . S
O83 C111 1.214 . S
H84 C112 0.929 . S
H85 C113 0.929 . S
H86 C114 0.930 . S
H87 C115 0.929 . S
H88 C117 0.930 . S
H89 C94 0.930 . S
H90 C98 0.930 . S
O91 Co60 2.037 . S
O91 C111 1.234 . S
C92 O66 1.269 . S
C92 O67 1.257 . S
C93 H68 0.930 . S
C93 C96 1.388 . S
C93 C98 1.418 . S
C94 H89 0.930 . S
C94 C97 1.404 . S
C94 C98 1.353 . S
N95 Co60 2.145 . S
N95 C96 1.397 . S
N95 C97 1.334 . S
C96 H77 0.929 . S
C96 C93 1.388 . S
C96 N95 1.397 . S
C97 H78 0.929 . S
C97 C94 1.404 . S
C97 N95 1.334 . S
C98 H90 0.930 . S
C98 C93 1.418 . S
C98 C94 1.353 . S
C99 H69 0.930 . S
C99 N100 1.330 . S
C99 C101 1.446 . S
N100 Co59 2.151 . S
N100 C99 1.330 . S
N100 C104 1.418 . S
C101 H80 0.929 1_655 S
C101 C99 1.446 . S
C101 C102 1.332 . S
C102 H82 0.953 . S
C102 C101 1.332 . S
C102 C103 1.267 . S
C103 H71 0.929 . S
C103 C102 1.267 . S
C103 C104 1.251 . S
C104 H74 0.929 . S
C104 N100 1.418 . S
C104 C103 1.251 . S
C105 H72 0.930 . S
C105 C107 1.406 . S
C105 C110 1.261 . S
C106 H73 0.930 . S
C106 N108 1.325 . S
C106 C109 1.357 . S
C107 H75 0.928 . S
C107 C105 1.406 . S
C107 N108 1.261 . S
N108 Co59 2.214 . S
N108 C106 1.325 . S
N108 C107 1.261 . S
C109 H79 0.931 . S
C109 C106 1.357 . S
C109 C110 1.312 . S
C110 H81 0.930 . S
C110 C105 1.261 . S
C110 C109 1.312 . S
C111 O83 1.214 . S
C111 O91 1.234 . S
C112 H84 0.929 . S
C112 C115 1.391 . S
C112 C117 1.391 . S
C113 H85 0.929 . S
C113 C114 1.390 . S
C113 N116 1.391 . S
C114 H86 0.930 . S
C114 C113 1.390 . S
C114 C115 1.392 . S
C115 H87 0.929 . S
C115 C112 1.391 . S
C115 C114 1.392 . S
N116 Co60 2.257 1_565 S
N116 C113 1.391 . S
N116 C117 1.388 . S
C117 H88 0.930 . S
C117 C112 1.391 . S
C117 N116 1.388 . S
Co118 O120 2.143 . S
Co118 O126 2.074 . S
Co118 O129 2.093 . S
Co118 O142 2.097 . S
Co118 N159 2.151 . S
Co118 N167 2.214 . S
Co119 O120 2.160 . S
Co119 O125 2.058 . S
Co119 O135 2.057 . S
Co119 O150 2.037 . S
Co119 N154 2.145 . S
Co119 N175 2.257 . S
O120 Co118 2.143 . S
O120 Co119 2.160 . S
C121 O122 1.278 . S
C121 O129 1.224 . S
O122 C121 1.278 . S
C123 O124 1.245 . S
C123 O135 1.232 . S
O124 C123 1.245 . S
O125 Co119 2.058 . S
O125 C151 1.269 . S
O126 Co118 2.074 . S
O126 C151 1.257 . S
H127 C152 0.930 . S
H128 C158 0.930 . S
O129 Co118 2.093 . S
O129 C121 1.224 . S
H130 C162 0.929 . S
H131 C164 0.930 . S
H132 C165 0.930 . S
H133 C163 0.929 . S
H134 C166 0.928 . S
O135 Co119 2.057 . S
O135 C123 1.232 . S
H136 C155 0.929 . S
H137 C156 0.929 . S
H138 C168 0.931 . S
H139 C160 0.929 1_545 S
H140 C169 0.930 . S
H141 C161 0.952 . S
O142 Co118 2.097 . S
O142 C170 1.214 . S
H143 C171 0.929 . S
H144 C172 0.929 . S
H145 C173 0.930 . S
H146 C174 0.929 . S
H147 C176 0.930 . S
H148 C153 0.930 . S
H149 C157 0.930 . S
O150 Co119 2.037 . S
O150 C170 1.234 . S
C151 O125 1.269 . S
C151 O126 1.257 . S
C152 H127 0.930 . S
C152 C155 1.388 . S
C152 C157 1.418 . S
C153 H148 0.930 . S
C153 C156 1.404 . S
C153 C157 1.353 . S
N154 Co119 2.145 . S
N154 C155 1.397 . S
N154 C156 1.334 . S
C155 H136 0.929 . S
C155 C152 1.388 . S
C155 N154 1.397 . S
C156 H137 0.929 . S
C156 C153 1.404 . S
C156 N154 1.334 . S
C157 H149 0.930 . S
C157 C152 1.418 . S
C157 C153 1.353 . S
C158 H128 0.930 . S
C158 N159 1.330 . S
C158 C160 1.446 . S
N159 Co118 2.151 . S
N159 C158 1.330 . S
N159 C163 1.418 . S
C160 H139 0.929 1_565 S
C160 C158 1.446 . S
C160 C161 1.332 . S
C161 H141 0.952 . S
C161 C160 1.332 . S
C161 C162 1.267 . S
C162 H130 0.929 . S
C162 C161 1.267 . S
C162 C163 1.251 . S
C163 H133 0.929 . S
C163 N159 1.418 . S
C163 C162 1.251 . S
C164 H131 0.930 . S
C164 C166 1.406 . S
C164 C169 1.261 . S
C165 H132 0.930 . S
C165 N167 1.325 . S
C165 C168 1.357 . S
C166 H134 0.928 . S
C166 C164 1.406 . S
C166 N167 1.261 . S
N167 Co118 2.214 . S
N167 C165 1.325 . S
N167 C166 1.261 . S
C168 H138 0.931 . S
C168 C165 1.357 . S
C168 C169 1.312 . S
C169 H140 0.930 . S
C169 C164 1.261 . S
C169 C168 1.312 . S
C170 O142 1.214 . S
C170 O150 1.234 . S
C171 H143 0.929 . S
C171 C174 1.391 . S
C171 C176 1.391 . S
C172 H144 0.929 . S
C172 C173 1.390 . S
C172 N175 1.391 . S
C173 H145 0.930 . S
C173 C172 1.390 . S
C173 C174 1.392 . S
C174 H146 0.929 . S
C174 C171 1.391 . S
C174 C173 1.392 . S
N175 Co119 2.257 . S
N175 C172 1.391 . S
N175 C176 1.388 . S
C176 H147 0.930 . S
C176 C171 1.391 . S
C176 N175 1.388 . S
Co177 O179 2.143 . S
Co177 O185 2.074 . S
Co177 O188 2.093 . S
Co177 O201 2.097 . S
Co177 N218 2.151 . S
Co177 N226 2.214 . S
Co178 O179 2.160 . S
Co178 O184 2.058 . S
Co178 O194 2.057 . S
Co178 O209 2.037 . S
Co178 N213 2.145 . S
Co178 N234 2.257 . S
O179 Co177 2.143 . S
O179 Co178 2.160 . S
C180 O181 1.278 . S
C180 O188 1.224 . S
O181 C180 1.278 . S
C182 O183 1.245 . S
C182 O194 1.232 . S
O183 C182 1.245 . S
O184 Co178 2.058 . S
O184 C210 1.269 . S
O185 Co177 2.074 . S
O185 C210 1.257 . S
H186 C211 0.930 . S
H187 C217 0.930 . S
O188 Co177 2.093 . S
O188 C180 1.224 . S
H189 C221 0.929 . S
H190 C223 0.930 . S
H191 C224 0.930 . S
H192 C222 0.929 . S
H193 C225 0.928 . S
O194 Co178 2.057 . S
O194 C182 1.232 . S
H195 C214 0.929 . S
H196 C215 0.929 . S
H197 C227 0.931 . S
H198 C219 0.929 . S
H199 C228 0.930 . S
H200 C220 0.931 . S
O201 Co177 2.097 . S
O201 C229 1.214 . S
H202 C230 0.929 . S
H203 C231 0.929 . S
H204 C232 0.930 . S
H205 C233 0.929 . S
H206 C235 0.930 . S
H207 C212 0.930 . S
H208 C216 0.930 . S
O209 Co178 2.037 . S
O209 C229 1.234 . S
C210 O184 1.269 . S
C210 O185 1.257 . S
C211 H186 0.930 . S
C211 C214 1.388 . S
C211 C216 1.418 . S
C212 H207 0.930 . S
C212 C215 1.404 . S
C212 C216 1.353 . S
N213 Co178 2.145 . S
N213 C214 1.397 . S
N213 C215 1.334 . S
C214 H195 0.929 . S
C214 C211 1.388 . S
C214 N213 1.397 . S
C215 H196 0.929 . S
C215 C212 1.404 . S
C215 N213 1.334 . S
C216 H208 0.930 . S
C216 C211 1.418 . S
C216 C212 1.353 . S
C217 H187 0.930 . S
C217 N218 1.330 . S
C217 C219 1.446 . S
N218 Co177 2.151 . S
N218 C217 1.330 . S
N218 C222 1.418 . S
C219 H198 0.929 . S
C219 C217 1.446 . S
C219 C220 1.332 . S
C220 H200 0.931 . S
C220 C219 1.332 . S
C220 C221 1.267 . S
C221 H189 0.929 . S
C221 C220 1.267 . S
C221 C222 1.251 . S
C222 H192 0.929 . S
C222 N218 1.418 . S
C222 C221 1.251 . S
C223 H190 0.930 . S
C223 C225 1.406 . S
C223 C228 1.261 . S
C224 H191 0.930 . S
C224 N226 1.325 . S
C224 C227 1.357 . S
C225 H193 0.928 . S
C225 C223 1.406 . S
C225 N226 1.261 . S
N226 Co177 2.214 . S
N226 C224 1.325 . S
N226 C225 1.261 . S
C227 H197 0.931 . S
C227 C224 1.357 . S
C227 C228 1.312 . S
C228 H199 0.930 . S
C228 C223 1.261 . S
C228 C227 1.312 . S
C229 O201 1.214 . S
C229 O209 1.234 . S
C230 H202 0.929 . S
C230 C233 1.391 . S
C230 C235 1.391 . S
C231 H203 0.929 . S
C231 C232 1.390 . S
C231 N234 1.391 . S
C232 H204 0.930 . S
C232 C231 1.390 . S
C232 C233 1.392 . S
C233 H205 0.929 . S
C233 C230 1.391 . S
C233 C232 1.392 . S
N234 Co178 2.257 . S
N234 C231 1.391 . S
N234 C235 1.388 . S
C235 H206 0.930 . S
C235 C230 1.391 . S
C235 N234 1.388 . S
Co236 O238 2.143 . S
Co236 O244 2.074 . S
Co236 O247 2.093 . S
Co236 O260 2.097 . S
Co236 N277 2.151 . S
Co236 N285 2.214 . S
Co237 O238 2.160 . S
Co237 O243 2.058 . S
Co237 O253 2.057 . S
Co237 O268 2.037 . S
Co237 N272 2.145 . S
Co237 N293 2.257 1_455 S
O238 Co236 2.143 . S
O238 Co237 2.160 . S
C239 O240 1.278 1_455 S
C239 O247 1.224 . S
O240 C239 1.278 1_655 S
C241 O242 1.245 . S
C241 O253 1.232 . S
O242 C241 1.245 . S
O243 Co237 2.058 . S
O243 C269 1.269 . S
O244 Co236 2.074 . S
O244 C269 1.257 . S
H245 C270 0.930 . S
H246 C276 0.930 . S
O247 Co236 2.093 . S
O247 C239 1.224 . S
H248 C280 0.929 . S
H249 C282 0.930 . S
H250 C283 0.930 . S
H251 C281 0.929 . S
H252 C284 0.928 . S
O253 Co237 2.057 . S
O253 C241 1.232 . S
H254 C273 0.929 . S
H255 C274 0.929 . S
H256 C286 0.931 . S
H257 C278 0.929 1_545 S
H258 C287 0.930 . S
H259 C279 0.953 . S
O260 Co236 2.097 . S
O260 C288 1.214 . S
H261 C289 0.929 . S
H262 C290 0.929 . S
H263 C291 0.930 . S
H264 C292 0.929 . S
H265 C294 0.930 . S
H266 C271 0.930 . S
H267 C275 0.930 . S
O268 Co237 2.037 . S
O268 C288 1.234 . S
C269 O243 1.269 . S
C269 O244 1.257 . S
C270 H245 0.930 . S
C270 C273 1.388 . S
C270 C275 1.418 . S
C271 H266 0.930 . S
C271 C274 1.404 . S
C271 C275 1.353 . S
N272 Co237 2.145 . S
N272 C273 1.397 . S
N272 C274 1.334 . S
C273 H254 0.929 . S
C273 C270 1.388 . S
C273 N272 1.397 . S
C274 H255 0.929 . S
C274 C271 1.404 . S
C274 N272 1.334 . S
C275 H267 0.930 . S
C275 C270 1.418 . S
C275 C271 1.353 . S
C276 H246 0.930 . S
C276 N277 1.330 . S
C276 C278 1.446 . S
N277 Co236 2.151 . S
N277 C276 1.330 . S
N277 C281 1.418 . S
C278 H257 0.929 1_565 S
C278 C276 1.446 . S
C278 C279 1.332 . S
C279 H259 0.953 . S
C279 C278 1.332 . S
C279 C280 1.267 . S
C280 H248 0.929 . S
C280 C279 1.267 . S
C280 C281 1.251 . S
C281 H251 0.929 . S
C281 N277 1.418 . S
C281 C280 1.251 . S
C282 H249 0.930 . S
C282 C284 1.406 . S
C282 C287 1.261 . S
C283 H250 0.930 . S
C283 N285 1.325 . S
C283 C286 1.357 . S
C284 H252 0.928 . S
C284 C282 1.406 . S
C284 N285 1.261 . S
N285 Co236 2.214 . S
N285 C283 1.325 . S
N285 C284 1.261 . S
C286 H256 0.931 . S
C286 C283 1.357 . S
C286 C287 1.312 . S
C287 H258 0.930 . S
C287 C282 1.261 . S
C287 C286 1.312 . S
C288 O260 1.214 . S
C288 O268 1.234 . S
C289 H261 0.929 . S
C289 C292 1.391 . S
C289 C294 1.391 . S
C290 H262 0.929 . S
C290 C291 1.390 . S
C290 N293 1.391 . S
C291 H263 0.930 . S
C291 C290 1.390 . S
C291 C292 1.392 . S
C292 H264 0.929 . S
C292 C289 1.391 . S
C292 C291 1.392 . S
N293 Co237 2.257 1_655 S
N293 C290 1.391 . S
N293 C294 1.388 . S
C294 H265 0.930 . S
C294 C289 1.391 . S
C294 N293 1.388 . S
Co295 O297 2.143 . S
Co295 O303 2.074 . S
Co295 O306 2.093 . S
Co295 O319 2.097 . S
Co295 N336 2.151 . S
Co295 N344 2.214 . S
Co296 O297 2.160 . S
Co296 O302 2.058 . S
Co296 O312 2.057 . S
Co296 O327 2.037 . S
Co296 N331 2.145 . S
Co296 N352 2.257 1_545 S
O297 Co295 2.143 . S
O297 Co296 2.160 . S
C298 O299 1.278 1_545 S
C298 O306 1.224 . S
O299 C298 1.278 1_565 S
C300 O301 1.245 . S
C300 O312 1.232 . S
O301 C300 1.245 . S
O302 Co296 2.058 . S
O302 C328 1.269 . S
O303 Co295 2.074 . S
O303 C328 1.257 . S
H304 C329 0.930 . S
H305 C335 0.930 . S
O306 Co295 2.093 . S
O306 C298 1.224 . S
H307 C339 0.929 . S
H308 C341 0.930 . S
H309 C342 0.930 . S
H310 C340 0.929 . S
H311 C343 0.928 . S
O312 Co296 2.057 . S
O312 C300 1.232 . S
H313 C332 0.929 . S
H314 C333 0.929 . S
H315 C345 0.931 . S
H316 C337 0.929 . S
H317 C346 0.930 . S
H318 C338 0.931 . S
O319 Co295 2.097 . S
O319 C347 1.214 . S
H320 C348 0.929 . S
H321 C349 0.929 . S
H322 C350 0.930 . S
H323 C351 0.929 . S
H324 C353 0.930 . S
H325 C330 0.930 . S
H326 C334 0.930 . S
O327 Co296 2.037 . S
O327 C347 1.234 . S
C328 O302 1.269 . S
C328 O303 1.257 . S
C329 H304 0.930 . S
C329 C332 1.388 . S
C329 C334 1.418 . S
C330 H325 0.930 . S
C330 C333 1.404 . S
C330 C334 1.353 . S
N331 Co296 2.145 . S
N331 C332 1.397 . S
N331 C333 1.334 . S
C332 H313 0.929 . S
C332 C329 1.388 . S
C332 N331 1.397 . S
C333 H314 0.929 . S
C333 C330 1.404 . S
C333 N331 1.334 . S
C334 H326 0.930 . S
C334 C329 1.418 . S
C334 C330 1.353 . S
C335 H305 0.930 . S
C335 N336 1.330 . S
C335 C337 1.446 . S
N336 Co295 2.151 . S
N336 C335 1.330 . S
N336 C340 1.418 . S
C337 H316 0.929 . S
C337 C335 1.446 . S
C337 C338 1.332 . S
C338 H318 0.931 . S
C338 C337 1.332 . S
C338 C339 1.267 . S
C339 H307 0.929 . S
C339 C338 1.267 . S
C339 C340 1.251 . S
C340 H310 0.929 . S
C340 N336 1.418 . S
C340 C339 1.251 . S
C341 H308 0.930 . S
C341 C343 1.406 . S
C341 C346 1.261 . S
C342 H309 0.930 . S
C342 N344 1.325 . S
C342 C345 1.357 . S
C343 H311 0.928 . S
C343 C341 1.406 . S
C343 N344 1.261 . S
N344 Co295 2.214 . S
N344 C342 1.325 . S
N344 C343 1.261 . S
C345 H315 0.931 . S
C345 C342 1.357 . S
C345 C346 1.312 . S
C346 H317 0.930 . S
C346 C341 1.261 . S
C346 C345 1.312 . S
C347 O319 1.214 . S
C347 O327 1.234 . S
C348 H320 0.929 . S
C348 C351 1.391 . S
C348 C353 1.391 . S
C349 H321 0.929 . S
C349 C350 1.390 . S
C349 N352 1.391 . S
C350 H322 0.930 . S
C350 C349 1.390 . S
C350 C351 1.392 . S
C351 H323 0.929 . S
C351 C348 1.391 . S
C351 C350 1.392 . S
N352 Co296 2.257 1_565 S
N352 C349 1.391 . S
N352 C353 1.388 . S
C353 H324 0.930 . S
C353 C348 1.391 . S
C353 N352 1.388 . S
Co354 O356 2.143 . S
Co354 O362 2.074 . S
Co354 O365 2.093 . S
Co354 O378 2.097 . S
Co354 N395 2.151 . S
Co354 N403 2.214 . S
Co355 O356 2.160 . S
Co355 O361 2.058 . S
Co355 O371 2.057 . S
Co355 O386 2.037 . S
Co355 N390 2.145 . S
Co355 N411 2.257 . S
O356 Co354 2.143 . S
O356 Co355 2.160 . S
C357 O358 1.278 . S
C357 O365 1.224 . S
O358 C357 1.278 . S
C359 O360 1.245 . S
C359 O371 1.232 . S
O360 C359 1.245 . S
O361 Co355 2.058 . S
O361 C387 1.269 . S
O362 Co354 2.074 . S
O362 C387 1.257 . S
H363 C388 0.930 . S
H364 C394 0.930 . S
O365 Co354 2.093 . S
O365 C357 1.224 . S
H366 C398 0.929 . S
H367 C400 0.930 . S
H368 C401 0.930 . S
H369 C399 0.929 . S
H370 C402 0.928 . S
O371 Co355 2.057 . S
O371 C359 1.232 . S
H372 C391 0.929 . S
H373 C392 0.929 . S
H374 C404 0.931 . S
H375 C396 0.929 . S
H376 C405 0.930 . S
H377 C397 0.931 . S
O378 Co354 2.097 . S
O378 C406 1.214 . S
H379 C407 0.929 . S
H380 C408 0.929 . S
H381 C409 0.930 . S
H382 C410 0.929 . S
H383 C412 0.930 . S
H384 C389 0.930 . S
H385 C393 0.930 . S
O386 Co355 2.037 . S
O386 C406 1.234 . S
C387 O361 1.269 . S
C387 O362 1.257 . S
C388 H363 0.930 . S
C388 C391 1.388 . S
C388 C393 1.418 . S
C389 H384 0.930 . S
C389 C392 1.404 . S
C389 C393 1.353 . S
N390 Co355 2.145 . S
N390 C391 1.397 . S
N390 C392 1.334 . S
C391 H372 0.929 . S
C391 C388 1.388 . S
C391 N390 1.397 . S
C392 H373 0.929 . S
C392 C389 1.404 . S
C392 N390 1.334 . S
C393 H385 0.930 . S
C393 C388 1.418 . S
C393 C389 1.353 . S
C394 H364 0.930 . S
C394 N395 1.330 . S
C394 C396 1.446 . S
N395 Co354 2.151 . S
N395 C394 1.330 . S
N395 C399 1.418 . S
C396 H375 0.929 . S
C396 C394 1.446 . S
C396 C397 1.332 . S
C397 H377 0.931 . S
C397 C396 1.332 . S
C397 C398 1.267 . S
C398 H366 0.929 . S
C398 C397 1.267 . S
C398 C399 1.251 . S
C399 H369 0.929 . S
C399 N395 1.418 . S
C399 C398 1.251 . S
C400 H367 0.930 . S
C400 C402 1.406 . S
C400 C405 1.261 . S
C401 H368 0.930 . S
C401 N403 1.325 . S
C401 C404 1.357 . S
C402 H370 0.928 . S
C402 C400 1.406 . S
C402 N403 1.261 . S
N403 Co354 2.214 . S
N403 C401 1.325 . S
N403 C402 1.261 . S
C404 H374 0.931 . S
C404 C401 1.357 . S
C404 C405 1.312 . S
C405 H376 0.930 . S
C405 C400 1.261 . S
C405 C404 1.312 . S
C406 O378 1.214 . S
C406 O386 1.234 . S
C407 H379 0.929 . S
C407 C410 1.391 . S
C407 C412 1.391 . S
C408 H380 0.929 . S
C408 C409 1.390 . S
C408 N411 1.391 . S
C409 H381 0.930 . S
C409 C408 1.390 . S
C409 C410 1.392 . S
C410 H382 0.929 . S
C410 C407 1.391 . S
C410 C409 1.392 . S
N411 Co355 2.257 . S
N411 C408 1.391 . S
N411 C412 1.388 . S
C412 H383 0.930 . S
C412 C407 1.391 . S
C412 N411 1.388 . S
Co413 O415 2.143 . S
Co413 O421 2.074 . S
Co413 O424 2.093 . S
Co413 O437 2.097 . S
Co413 N454 2.151 . S
Co413 N462 2.214 . S
Co414 O415 2.160 . S
Co414 O420 2.058 . S
Co414 O430 2.057 . S
Co414 O445 2.037 . S
Co414 N449 2.145 . S
Co414 N470 2.257 . S
O415 Co413 2.143 . S
O415 Co414 2.160 . S
C416 O417 1.278 . S
C416 O424 1.224 . S
O417 C416 1.278 . S
C418 O419 1.245 . S
C418 O430 1.232 . S
O419 C418 1.245 . S
O420 Co414 2.058 . S
O420 C446 1.269 . S
O421 Co413 2.074 . S
O421 C446 1.257 . S
H422 C447 0.930 . S
H423 C453 0.930 . S
O424 Co413 2.093 . S
O424 C416 1.224 . S
H425 C457 0.929 . S
H426 C459 0.930 . S
H427 C460 0.930 . S
H428 C458 0.929 . S
H429 C461 0.928 . S
O430 Co414 2.057 . S
O430 C418 1.232 . S
H431 C450 0.929 . S
H432 C451 0.929 . S
H433 C463 0.931 . S
H434 C455 0.929 1_455 S
H435 C464 0.930 . S
H436 C456 0.953 . S
O437 Co413 2.097 . S
O437 C465 1.214 . S
H438 C466 0.929 . S
H439 C467 0.929 . S
H440 C468 0.930 . S
H441 C469 0.929 . S
H442 C471 0.930 . S
H443 C448 0.930 . S
H444 C452 0.930 . S
O445 Co414 2.037 . S
O445 C465 1.234 . S
C446 O420 1.269 . S
C446 O421 1.257 . S
C447 H422 0.930 . S
C447 C450 1.388 . S
C447 C452 1.418 . S
C448 H443 0.930 . S
C448 C451 1.404 . S
C448 C452 1.353 . S
N449 Co414 2.145 . S
N449 C450 1.397 . S
N449 C451 1.334 . S
C450 H431 0.929 . S
C450 C447 1.388 . S
C450 N449 1.397 . S
C451 H432 0.929 . S
C451 C448 1.404 . S
C451 N449 1.334 . S
C452 H444 0.930 . S
C452 C447 1.418 . S
C452 C448 1.353 . S
C453 H423 0.930 . S
C453 N454 1.330 . S
C453 C455 1.446 . S
N454 Co413 2.151 . S
N454 C453 1.330 . S
N454 C458 1.418 . S
C455 H434 0.929 1_655 S
C455 C453 1.446 . S
C455 C456 1.332 . S
C456 H436 0.953 . S
C456 C455 1.332 . S
C456 C457 1.267 . S
C457 H425 0.929 . S
C457 C456 1.267 . S
C457 C458 1.251 . S
C458 H428 0.929 . S
C458 N454 1.418 . S
C458 C457 1.251 . S
C459 H426 0.930 . S
C459 C461 1.406 . S
C459 C464 1.261 . S
C460 H427 0.930 . S
C460 N462 1.325 . S
C460 C463 1.357 . S
C461 H429 0.928 . S
C461 C459 1.406 . S
C461 N462 1.261 . S
N462 Co413 2.214 . S
N462 C460 1.325 . S
N462 C461 1.261 . S
C463 H433 0.931 . S
C463 C460 1.357 . S
C463 C464 1.312 . S
C464 H435 0.930 . S
C464 C459 1.261 . S
C464 C463 1.312 . S
C465 O437 1.214 . S
C465 O445 1.234 . S
C466 H438 0.929 . S
C466 C469 1.391 . S
C466 C471 1.391 . S
C467 H439 0.929 . S
C467 C468 1.390 . S
C467 N470 1.391 . S
C468 H440 0.930 . S
C468 C467 1.390 . S
C468 C469 1.392 . S
C469 H441 0.929 . S
C469 C466 1.391 . S
C469 C468 1.392 . S
N470 Co414 2.257 . S
N470 C467 1.391 . S
N470 C471 1.388 . S
C471 H442 0.930 . S
C471 C466 1.391 . S
C471 N470 1.388 . S
Co472 O474 2.143 . S
Co472 O480 2.074 . S
Co472 O483 2.093 . S
Co472 O496 2.097 . S
Co472 N513 2.151 . S
Co472 N521 2.214 . S
Co473 O474 2.160 . S
Co473 O479 2.058 . S
Co473 O489 2.057 . S
Co473 O504 2.037 . S
Co473 N508 2.145 . S
Co473 N529 2.257 1_655 S
O474 Co472 2.143 . S
O474 Co473 2.160 . S
C475 O476 1.278 1_655 S
C475 O483 1.224 . S
O476 C475 1.278 1_455 S
C477 O478 1.245 . S
C477 O489 1.232 . S
O478 C477 1.245 . S
O479 Co473 2.058 . S
O479 C505 1.269 . S
O480 Co472 2.074 . S
O480 C505 1.257 . S
H481 C506 0.930 . S
H482 C512 0.930 . S
O483 Co472 2.093 . S
O483 C475 1.224 . S
H484 C516 0.929 . S
H485 C518 0.930 . S
H486 C519 0.930 . S
H487 C517 0.929 . S
H488 C520 0.928 . S
O489 Co473 2.057 . S
O489 C477 1.232 . S
H490 C509 0.929 . S
H491 C510 0.929 . S
H492 C522 0.931 . S
H493 C514 0.929 . S
H494 C523 0.930 . S
H495 C515 0.931 . S
O496 Co472 2.097 . S
O496 C524 1.214 . S
H497 C525 0.929 . S
H498 C526 0.929 . S
H499 C527 0.930 . S
H500 C528 0.929 . S
H501 C530 0.930 . S
H502 C507 0.930 . S
H503 C511 0.930 . S
O504 Co473 2.037 . S
O504 C524 1.234 . S
C505 O479 1.269 . S
C505 O480 1.257 . S
C506 H481 0.930 . S
C506 C509 1.388 . S
C506 C511 1.418 . S
C507 H502 0.930 . S
C507 C510 1.404 . S
C507 C511 1.353 . S
N508 Co473 2.145 . S
N508 C509 1.397 . S
N508 C510 1.334 . S
C509 H490 0.929 . S
C509 C506 1.388 . S
C509 N508 1.397 . S
C510 H491 0.929 . S
C510 C507 1.404 . S
C510 N508 1.334 . S
C511 H503 0.930 . S
C511 C506 1.418 . S
C511 C507 1.353 . S
C512 H482 0.930 . S
C512 N513 1.330 . S
C512 C514 1.446 . S
N513 Co472 2.151 . S
N513 C512 1.330 . S
N513 C517 1.418 . S
C514 H493 0.929 . S
C514 C512 1.446 . S
C514 C515 1.332 . S
C515 H495 0.931 . S
C515 C514 1.332 . S
C515 C516 1.267 . S
C516 H484 0.929 . S
C516 C515 1.267 . S
C516 C517 1.251 . S
C517 H487 0.929 . S
C517 N513 1.418 . S
C517 C516 1.251 . S
C518 H485 0.930 . S
C518 C520 1.406 . S
C518 C523 1.261 . S
C519 H486 0.930 . S
C519 N521 1.325 . S
C519 C522 1.357 . S
C520 H488 0.928 . S
C520 C518 1.406 . S
C520 N521 1.261 . S
N521 Co472 2.214 . S
N521 C519 1.325 . S
N521 C520 1.261 . S
C522 H492 0.931 . S
C522 C519 1.357 . S
C522 C523 1.312 . S
C523 H494 0.930 . S
C523 C518 1.261 . S
C523 C522 1.312 . S
C524 O496 1.214 . S
C524 O504 1.234 . S
C525 H497 0.929 . S
C525 C528 1.391 . S
C525 C530 1.391 . S
C526 H498 0.929 . S
C526 C527 1.390 . S
C526 N529 1.391 . S
C527 H499 0.930 . S
C527 C526 1.390 . S
C527 C528 1.392 . S
C528 H500 0.929 . S
C528 C525 1.391 . S
C528 C527 1.392 . S
N529 Co473 2.257 1_455 S
N529 C526 1.391 . S
N529 C530 1.388 . S
C530 H501 0.930 . S
C530 C525 1.391 . S
C530 N529 1.388 . S
Co531 O533 2.143 . S
Co531 O539 2.074 . S
Co531 O542 2.093 . S
Co531 O555 2.097 . S
Co531 N572 2.151 . S
Co531 N580 2.214 . S
Co532 O533 2.160 . S
Co532 O538 2.058 . S
Co532 O548 2.057 . S
Co532 O563 2.037 . S
Co532 N567 2.145 . S
Co532 N588 2.257 1_565 S
O533 Co531 2.143 . S
O533 Co532 2.160 . S
C534 O535 1.278 1_565 S
C534 O542 1.224 . S
O535 C534 1.278 1_545 S
C536 O537 1.245 . S
C536 O548 1.232 . S
O537 C536 1.245 . S
O538 Co532 2.058 . S
O538 C564 1.269 . S
O539 Co531 2.074 . S
O539 C564 1.257 . S
H540 C565 0.930 . S
H541 C571 0.930 . S
O542 Co531 2.093 . S
O542 C534 1.224 . S
H543 C575 0.929 . S
H544 C577 0.930 . S
H545 C578 0.930 . S
H546 C576 0.929 . S
H547 C579 0.928 . S
O548 Co532 2.057 . S
O548 C536 1.232 . S
H549 C568 0.929 . S
H550 C569 0.929 . S
H551 C581 0.931 . S
H552 C573 0.929 1_655 S
H553 C582 0.930 . S
H554 C574 0.953 . S
O555 Co531 2.097 . S
O555 C583 1.214 . S
H556 C584 0.929 . S
H557 C585 0.929 . S
H558 C586 0.930 . S
H559 C587 0.929 . S
H560 C589 0.930 . S
H561 C566 0.930 . S
H562 C570 0.930 . S
O563 Co532 2.037 . S
O563 C583 1.234 . S
C564 O538 1.269 . S
C564 O539 1.257 . S
C565 H540 0.930 . S
C565 C568 1.388 . S
C565 C570 1.418 . S
C566 H561 0.930 . S
C566 C569 1.404 . S
C566 C570 1.353 . S
N567 Co532 2.145 . S
N567 C568 1.397 . S
N567 C569 1.334 . S
C568 H549 0.929 . S
C568 C565 1.388 . S
C568 N567 1.397 . S
C569 H550 0.929 . S
C569 C566 1.404 . S
C569 N567 1.334 . S
C570 H562 0.930 . S
C570 C565 1.418 . S
C570 C566 1.353 . S
C571 H541 0.930 . S
C571 N572 1.330 . S
C571 C573 1.446 . S
N572 Co531 2.151 . S
N572 C571 1.330 . S
N572 C576 1.418 . S
C573 H552 0.929 1_455 S
C573 C571 1.446 . S
C573 C574 1.332 . S
C574 H554 0.953 . S
C574 C573 1.332 . S
C574 C575 1.267 . S
C575 H543 0.929 . S
C575 C574 1.267 . S
C575 C576 1.251 . S
C576 H546 0.929 . S
C576 N572 1.418 . S
C576 C575 1.251 . S
C577 H544 0.930 . S
C577 C579 1.406 . S
C577 C582 1.261 . S
C578 H545 0.930 . S
C578 N580 1.325 . S
C578 C581 1.357 . S
C579 H547 0.928 . S
C579 C577 1.406 . S
C579 N580 1.261 . S
N580 Co531 2.214 . S
N580 C578 1.325 . S
N580 C579 1.261 . S
C581 H551 0.931 . S
C581 C578 1.357 . S
C581 C582 1.312 . S
C582 H553 0.930 . S
C582 C577 1.261 . S
C582 C581 1.312 . S
C583 O555 1.214 . S
C583 O563 1.234 . S
C584 H556 0.929 . S
C584 C587 1.391 . S
C584 C589 1.391 . S
C585 H557 0.929 . S
C585 C586 1.390 . S
C585 N588 1.391 . S
C586 H558 0.930 . S
C586 C585 1.390 . S
C586 C587 1.392 . S
C587 H559 0.929 . S
C587 C584 1.391 . S
C587 C586 1.392 . S
N588 Co532 2.257 1_545 S
N588 C585 1.391 . S
N588 C589 1.388 . S
C589 H560 0.930 . S
C589 C584 1.391 . S
C589 N588 1.388 . S
Co590 O592 2.143 . S
Co590 O598 2.074 . S
Co590 O601 2.093 . S
Co590 O614 2.097 . S
Co590 N631 2.151 . S
Co590 N639 2.214 . S
Co591 O592 2.160 . S
Co591 O597 2.058 . S
Co591 O607 2.057 . S
Co591 O622 2.037 . S
Co591 N626 2.145 . S
Co591 N647 2.257 . S
O592 Co590 2.143 . S
O592 Co591 2.160 . S
C593 O594 1.278 . S
C593 O601 1.224 . S
O594 C593 1.278 . S
C595 O596 1.245 . S
C595 O607 1.232 . S
O596 C595 1.245 . S
O597 Co591 2.058 . S
O597 C623 1.269 . S
O598 Co590 2.074 . S
O598 C623 1.257 . S
H599 C624 0.930 . S
H600 C630 0.930 . S
O601 Co590 2.093 . S
O601 C593 1.224 . S
H602 C634 0.929 . S
H603 C636 0.930 . S
H604 C637 0.930 . S
H605 C635 0.929 . S
H606 C638 0.928 . S
O607 Co591 2.057 . S
O607 C595 1.232 . S
H608 C627 0.929 . S
H609 C628 0.929 . S
H610 C640 0.931 . S
H611 C632 0.929 1_565 S
H612 C641 0.930 . S
H613 C633 0.952 . S
O614 Co590 2.097 . S
O614 C642 1.214 . S
H615 C643 0.929 . S
H616 C644 0.929 . S
H617 C645 0.930 . S
H618 C646 0.929 . S
H619 C648 0.930 . S
H620 C625 0.930 . S
H621 C629 0.930 . S
O622 Co591 2.037 . S
O622 C642 1.234 . S
C623 O597 1.269 . S
C623 O598 1.257 . S
C624 H599 0.930 . S
C624 C627 1.388 . S
C624 C629 1.418 . S
C625 H620 0.930 . S
C625 C628 1.404 . S
C625 C629 1.353 . S
N626 Co591 2.145 . S
N626 C627 1.397 . S
N626 C628 1.334 . S
C627 H608 0.929 . S
C627 C624 1.388 . S
C627 N626 1.397 . S
C628 H609 0.929 . S
C628 C625 1.404 . S
C628 N626 1.334 . S
C629 H621 0.930 . S
C629 C624 1.418 . S
C629 C625 1.353 . S
C630 H600 0.930 . S
C630 N631 1.330 . S
C630 C632 1.446 . S
N631 Co590 2.151 . S
N631 C630 1.330 . S
N631 C635 1.418 . S
C632 H611 0.929 1_545 S
C632 C630 1.446 . S
C632 C633 1.332 . S
C633 H613 0.952 . S
C633 C632 1.332 . S
C633 C634 1.267 . S
C634 H602 0.929 . S
C634 C633 1.267 . S
C634 C635 1.251 . S
C635 H605 0.929 . S
C635 N631 1.418 . S
C635 C634 1.251 . S
C636 H603 0.930 . S
C636 C638 1.406 . S
C636 C641 1.261 . S
C637 H604 0.930 . S
C637 N639 1.325 . S
C637 C640 1.357 . S
C638 H606 0.928 . S
C638 C636 1.406 . S
C638 N639 1.261 . S
N639 Co590 2.214 . S
N639 C637 1.325 . S
N639 C638 1.261 . S
C640 H610 0.931 . S
C640 C637 1.357 . S
C640 C641 1.312 . S
C641 H612 0.930 . S
C641 C636 1.261 . S
C641 C640 1.312 . S
C642 O614 1.214 . S
C642 O622 1.234 . S
C643 H615 0.929 . S
C643 C646 1.391 . S
C643 C648 1.391 . S
C644 H616 0.929 . S
C644 C645 1.390 . S
C644 N647 1.391 . S
C645 H617 0.930 . S
C645 C644 1.390 . S
C645 C646 1.392 . S
C646 H618 0.929 . S
C646 C643 1.391 . S
C646 C645 1.392 . S
N647 Co591 2.257 . S
N647 C644 1.391 . S
N647 C648 1.388 . S
C648 H619 0.930 . S
C648 C643 1.391 . S
C648 N647 1.388 . S
Co649 O651 2.143 . S
Co649 O657 2.074 . S
Co649 O660 2.093 . S
Co649 O673 2.097 . S
Co649 N690 2.151 . S
Co649 N698 2.214 . S
Co650 O651 2.160 . S
Co650 O656 2.058 . S
Co650 O666 2.057 . S
Co650 O681 2.037 . S
Co650 N685 2.145 . S
Co650 N706 2.257 . S
O651 Co649 2.143 . S
O651 Co650 2.160 . S
C652 O653 1.278 . S
C652 O660 1.224 . S
O653 C652 1.278 . S
C654 O655 1.245 . S
C654 O666 1.232 . S
O655 C654 1.245 . S
O656 Co650 2.058 . S
O656 C682 1.269 . S
O657 Co649 2.074 . S
O657 C682 1.257 . S
H658 C683 0.930 . S
H659 C689 0.930 . S
O660 Co649 2.093 . S
O660 C652 1.224 . S
H661 C693 0.929 . S
H662 C695 0.930 . S
H663 C696 0.930 . S
H664 C694 0.929 . S
H665 C697 0.928 . S
O666 Co650 2.057 . S
O666 C654 1.232 . S
H667 C686 0.929 . S
H668 C687 0.929 . S
H669 C699 0.931 . S
H670 C691 0.929 . S
H671 C700 0.930 . S
H672 C692 0.931 . S
O673 Co649 2.097 . S
O673 C701 1.214 . S
H674 C702 0.929 . S
H675 C703 0.929 . S
H676 C704 0.930 . S
H677 C705 0.929 . S
H678 C707 0.930 . S
H679 C684 0.930 . S
H680 C688 0.930 . S
O681 Co650 2.037 . S
O681 C701 1.234 . S
C682 O656 1.269 . S
C682 O657 1.257 . S
C683 H658 0.930 . S
C683 C686 1.388 . S
C683 C688 1.418 . S
C684 H679 0.930 . S
C684 C687 1.404 . S
C684 C688 1.353 . S
N685 Co650 2.145 . S
N685 C686 1.397 . S
N685 C687 1.334 . S
C686 H667 0.929 . S
C686 C683 1.388 . S
C686 N685 1.397 . S
C687 H668 0.929 . S
C687 C684 1.404 . S
C687 N685 1.334 . S
C688 H680 0.930 . S
C688 C683 1.418 . S
C688 C684 1.353 . S
C689 H659 0.930 . S
C689 N690 1.330 . S
C689 C691 1.446 . S
N690 Co649 2.151 . S
N690 C689 1.330 . S
N690 C694 1.418 . S
C691 H670 0.929 . S
C691 C689 1.446 . S
C691 C692 1.332 . S
C692 H672 0.931 . S
C692 C691 1.332 . S
C692 C693 1.267 . S
C693 H661 0.929 . S
C693 C692 1.267 . S
C693 C694 1.251 . S
C694 H664 0.929 . S
C694 N690 1.418 . S
C694 C693 1.251 . S
C695 H662 0.930 . S
C695 C697 1.406 . S
C695 C700 1.261 . S
C696 H663 0.930 . S
C696 N698 1.325 . S
C696 C699 1.357 . S
C697 H665 0.928 . S
C697 C695 1.406 . S
C697 N698 1.261 . S
N698 Co649 2.214 . S
N698 C696 1.325 . S
N698 C697 1.261 . S
C699 H669 0.931 . S
C699 C696 1.357 . S
C699 C700 1.312 . S
C700 H671 0.930 . S
C700 C695 1.261 . S
C700 C699 1.312 . S
C701 O673 1.214 . S
C701 O681 1.234 . S
C702 H674 0.929 . S
C702 C705 1.391 . S
C702 C707 1.391 . S
C703 H675 0.929 . S
C703 C704 1.390 . S
C703 N706 1.391 . S
C704 H676 0.930 . S
C704 C703 1.390 . S
C704 C705 1.392 . S
C705 H677 0.929 . S
C705 C702 1.391 . S
C705 C704 1.392 . S
N706 Co650 2.257 . S
N706 C703 1.391 . S
N706 C707 1.388 . S
C707 H678 0.930 . S
C707 C702 1.391 . S
C707 N706 1.388 . S
Co708 O710 2.143 . S
Co708 O716 2.074 . S
Co708 O719 2.093 . S
Co708 O732 2.097 . S
Co708 N749 2.151 . S
Co708 N757 2.214 . S
Co709 O710 2.160 . S
Co709 O715 2.058 . S
Co709 O725 2.057 . S
Co709 O740 2.037 . S
Co709 N744 2.145 . S
Co709 N765 2.257 1_655 S
O710 Co708 2.143 . S
O710 Co709 2.160 . S
C711 O712 1.278 1_655 S
C711 O719 1.224 . S
O712 C711 1.278 1_455 S
C713 O714 1.245 . S
C713 O725 1.232 . S
O714 C713 1.245 . S
O715 Co709 2.058 . S
O715 C741 1.269 . S
O716 Co708 2.074 . S
O716 C741 1.257 . S
H717 C742 0.930 . S
H718 C748 0.930 . S
O719 Co708 2.093 . S
O719 C711 1.224 . S
H720 C752 0.929 . S
H721 C754 0.930 . S
H722 C755 0.930 . S
H723 C753 0.929 . S
H724 C756 0.928 . S
O725 Co709 2.057 . S
O725 C713 1.232 . S
H726 C745 0.929 . S
H727 C746 0.929 . S
H728 C758 0.931 . S
H729 C750 0.929 1_565 S
H730 C759 0.930 . S
H731 C751 0.953 . S
O732 Co708 2.097 . S
O732 C760 1.214 . S
H733 C761 0.929 . S
H734 C762 0.929 . S
H735 C763 0.930 . S
H736 C764 0.929 . S
H737 C766 0.930 . S
H738 C743 0.930 . S
H739 C747 0.930 . S
O740 Co709 2.037 . S
O740 C760 1.234 . S
C741 O715 1.269 . S
C741 O716 1.257 . S
C742 H717 0.930 . S
C742 C745 1.388 . S
C742 C747 1.418 . S
C743 H738 0.930 . S
C743 C746 1.404 . S
C743 C747 1.353 . S
N744 Co709 2.145 . S
N744 C745 1.397 . S
N744 C746 1.334 . S
C745 H726 0.929 . S
C745 C742 1.388 . S
C745 N744 1.397 . S
C746 H727 0.929 . S
C746 C743 1.404 . S
C746 N744 1.334 . S
C747 H739 0.930 . S
C747 C742 1.418 . S
C747 C743 1.353 . S
C748 H718 0.930 . S
C748 N749 1.330 . S
C748 C750 1.446 . S
N749 Co708 2.151 . S
N749 C748 1.330 . S
N749 C753 1.418 . S
C750 H729 0.929 1_545 S
C750 C748 1.446 . S
C750 C751 1.332 . S
C751 H731 0.953 . S
C751 C750 1.332 . S
C751 C752 1.267 . S
C752 H720 0.929 . S
C752 C751 1.267 . S
C752 C753 1.251 . S
C753 H723 0.929 . S
C753 N749 1.418 . S
C753 C752 1.251 . S
C754 H721 0.930 . S
C754 C756 1.406 . S
C754 C759 1.261 . S
C755 H722 0.930 . S
C755 N757 1.325 . S
C755 C758 1.357 . S
C756 H724 0.928 . S
C756 C754 1.406 . S
C756 N757 1.261 . S
N757 Co708 2.214 . S
N757 C755 1.325 . S
N757 C756 1.261 . S
C758 H728 0.931 . S
C758 C755 1.357 . S
C758 C759 1.312 . S
C759 H730 0.930 . S
C759 C754 1.261 . S
C759 C758 1.312 . S
C760 O732 1.214 . S
C760 O740 1.234 . S
C761 H733 0.929 . S
C761 C764 1.391 . S
C761 C766 1.391 . S
C762 H734 0.929 . S
C762 C763 1.390 . S
C762 N765 1.391 . S
C763 H735 0.930 . S
C763 C762 1.390 . S
C763 C764 1.392 . S
C764 H736 0.929 . S
C764 C761 1.391 . S
C764 C763 1.392 . S
N765 Co709 2.257 1_455 S
N765 C762 1.391 . S
N765 C766 1.388 . S
C766 H737 0.930 . S
C766 C761 1.391 . S
C766 N765 1.388 . S
Co767 O769 2.143 . S
Co767 O775 2.074 . S
Co767 O778 2.093 . S
Co767 O791 2.097 . S
Co767 N808 2.151 . S
Co767 N816 2.214 . S
Co768 O769 2.160 . S
Co768 O774 2.058 . S
Co768 O784 2.057 . S
Co768 O799 2.037 . S
Co768 N803 2.145 . S
Co768 N824 2.257 1_565 S
O769 Co767 2.143 . S
O769 Co768 2.160 . S
C770 O771 1.278 1_565 S
C770 O778 1.224 . S
O771 C770 1.278 1_545 S
C772 O773 1.245 . S
C772 O784 1.232 . S
O773 C772 1.245 . S
O774 Co768 2.058 . S
O774 C800 1.269 . S
O775 Co767 2.074 . S
O775 C800 1.257 . S
H776 C801 0.930 . S
H777 C807 0.930 . S
O778 Co767 2.093 . S
O778 C770 1.224 . S
H779 C811 0.929 . S
H780 C813 0.930 . S
H781 C814 0.930 . S
H782 C812 0.929 . S
H783 C815 0.928 . S
O784 Co768 2.057 . S
O784 C772 1.232 . S
H785 C804 0.929 . S
H786 C805 0.929 . S
H787 C817 0.931 . S
H788 C809 0.929 . S
H789 C818 0.930 . S
H790 C810 0.931 . S
O791 Co767 2.097 . S
O791 C819 1.214 . S
H792 C820 0.929 . S
H793 C821 0.929 . S
H794 C822 0.930 . S
H795 C823 0.929 . S
H796 C825 0.930 . S
H797 C802 0.930 . S
H798 C806 0.930 . S
O799 Co768 2.037 . S
O799 C819 1.234 . S
C800 O774 1.269 . S
C800 O775 1.257 . S
C801 H776 0.930 . S
C801 C804 1.388 . S
C801 C806 1.418 . S
C802 H797 0.930 . S
C802 C805 1.404 . S
C802 C806 1.353 . S
N803 Co768 2.145 . S
N803 C804 1.397 . S
N803 C805 1.334 . S
C804 H785 0.929 . S
C804 C801 1.388 . S
C804 N803 1.397 . S
C805 H786 0.929 . S
C805 C802 1.404 . S
C805 N803 1.334 . S
C806 H798 0.930 . S
C806 C801 1.418 . S
C806 C802 1.353 . S
C807 H777 0.930 . S
C807 N808 1.330 . S
C807 C809 1.446 . S
N808 Co767 2.151 . S
N808 C807 1.330 . S
N808 C812 1.418 . S
C809 H788 0.929 . S
C809 C807 1.446 . S
C809 C810 1.332 . S
C810 H790 0.931 . S
C810 C809 1.332 . S
C810 C811 1.267 . S
C811 H779 0.929 . S
C811 C810 1.267 . S
C811 C812 1.251 . S
C812 H782 0.929 . S
C812 N808 1.418 . S
C812 C811 1.251 . S
C813 H780 0.930 . S
C813 C815 1.406 . S
C813 C818 1.261 . S
C814 H781 0.930 . S
C814 N816 1.325 . S
C814 C817 1.357 . S
C815 H783 0.928 . S
C815 C813 1.406 . S
C815 N816 1.261 . S
N816 Co767 2.214 . S
N816 C814 1.325 . S
N816 C815 1.261 . S
C817 H787 0.931 . S
C817 C814 1.357 . S
C817 C818 1.312 . S
C818 H789 0.930 . S
C818 C813 1.261 . S
C818 C817 1.312 . S
C819 O791 1.214 . S
C819 O799 1.234 . S
C820 H792 0.929 . S
C820 C823 1.391 . S
C820 C825 1.391 . S
C821 H793 0.929 . S
C821 C822 1.390 . S
C821 N824 1.391 . S
C822 H794 0.930 . S
C822 C821 1.390 . S
C822 C823 1.392 . S
C823 H795 0.929 . S
C823 C820 1.391 . S
C823 C822 1.392 . S
N824 Co768 2.257 1_545 S
N824 C821 1.391 . S
N824 C825 1.388 . S
C825 H796 0.930 . S
C825 C820 1.391 . S
C825 N824 1.388 . S
Co826 O828 2.143 . S
Co826 O834 2.074 . S
Co826 O837 2.093 . S
Co826 O850 2.097 . S
Co826 N867 2.151 . S
Co826 N875 2.214 . S
Co827 O828 2.160 . S
Co827 O833 2.058 . S
Co827 O843 2.057 . S
Co827 O858 2.037 . S
Co827 N862 2.145 . S
Co827 N883 2.257 . S
O828 Co826 2.143 . S
O828 Co827 2.160 . S
C829 O830 1.278 . S
C829 O837 1.224 . S
O830 C829 1.278 . S
C831 O832 1.245 . S
C831 O843 1.232 . S
O832 C831 1.245 . S
O833 Co827 2.058 . S
O833 C859 1.269 . S
O834 Co826 2.074 . S
O834 C859 1.257 . S
H835 C860 0.930 . S
H836 C866 0.930 . S
O837 Co826 2.093 . S
O837 C829 1.224 . S
H838 C870 0.929 . S
H839 C872 0.930 . S
H840 C873 0.930 . S
H841 C871 0.929 . S
H842 C874 0.928 . S
O843 Co827 2.057 . S
O843 C831 1.232 . S
H844 C863 0.929 . S
H845 C864 0.929 . S
H846 C876 0.931 . S
H847 C868 0.929 . S
H848 C877 0.930 . S
H849 C869 0.931 . S
O850 Co826 2.097 . S
O850 C878 1.214 . S
H851 C879 0.929 . S
H852 C880 0.929 . S
H853 C881 0.930 . S
H854 C882 0.929 . S
H855 C884 0.930 . S
H856 C861 0.930 . S
H857 C865 0.930 . S
O858 Co827 2.037 . S
O858 C878 1.234 . S
C859 O833 1.269 . S
C859 O834 1.257 . S
C860 H835 0.930 . S
C860 C863 1.388 . S
C860 C865 1.418 . S
C861 H856 0.930 . S
C861 C864 1.404 . S
C861 C865 1.353 . S
N862 Co827 2.145 . S
N862 C863 1.397 . S
N862 C864 1.334 . S
C863 H844 0.929 . S
C863 C860 1.388 . S
C863 N862 1.397 . S
C864 H845 0.929 . S
C864 C861 1.404 . S
C864 N862 1.334 . S
C865 H857 0.930 . S
C865 C860 1.418 . S
C865 C861 1.353 . S
C866 H836 0.930 . S
C866 N867 1.330 . S
C866 C868 1.446 . S
N867 Co826 2.151 . S
N867 C866 1.330 . S
N867 C871 1.418 . S
C868 H847 0.929 . S
C868 C866 1.446 . S
C868 C869 1.332 . S
C869 H849 0.931 . S
C869 C868 1.332 . S
C869 C870 1.267 . S
C870 H838 0.929 . S
C870 C869 1.267 . S
C870 C871 1.251 . S
C871 H841 0.929 . S
C871 N867 1.418 . S
C871 C870 1.251 . S
C872 H839 0.930 . S
C872 C874 1.406 . S
C872 C877 1.261 . S
C873 H840 0.930 . S
C873 N875 1.325 . S
C873 C876 1.357 . S
C874 H842 0.928 . S
C874 C872 1.406 . S
C874 N875 1.261 . S
N875 Co826 2.214 . S
N875 C873 1.325 . S
N875 C874 1.261 . S
C876 H846 0.931 . S
C876 C873 1.357 . S
C876 C877 1.312 . S
C877 H848 0.930 . S
C877 C872 1.261 . S
C877 C876 1.312 . S
C878 O850 1.214 . S
C878 O858 1.234 . S
C879 H851 0.929 . S
C879 C882 1.391 . S
C879 C884 1.391 . S
C880 H852 0.929 . S
C880 C881 1.390 . S
C880 N883 1.391 . S
C881 H853 0.930 . S
C881 C880 1.390 . S
C881 C882 1.392 . S
C882 H854 0.929 . S
C882 C879 1.391 . S
C882 C881 1.392 . S
N883 Co827 2.257 . S
N883 C880 1.391 . S
N883 C884 1.388 . S
C884 H855 0.930 . S
C884 C879 1.391 . S
C884 N883 1.388 . S
Co885 O887 2.143 . S
Co885 O893 2.074 . S
Co885 O896 2.093 . S
Co885 O909 2.097 . S
Co885 N926 2.151 . S
Co885 N934 2.214 . S
Co886 O887 2.160 . S
Co886 O892 2.058 . S
Co886 O902 2.057 . S
Co886 O917 2.037 . S
Co886 N921 2.145 . S
Co886 N942 2.257 . S
O887 Co885 2.143 . S
O887 Co886 2.160 . S
C888 O889 1.278 . S
C888 O896 1.224 . S
O889 C888 1.278 . S
C890 O891 1.245 . S
C890 O902 1.232 . S
O891 C890 1.245 . S
O892 Co886 2.058 . S
O892 C918 1.269 . S
O893 Co885 2.074 . S
O893 C918 1.257 . S
H894 C919 0.930 . S
H895 C925 0.930 . S
O896 Co885 2.093 . S
O896 C888 1.224 . S
H897 C929 0.929 . S
H898 C931 0.930 . S
H899 C932 0.930 . S
H900 C930 0.929 . S
H901 C933 0.928 . S
O902 Co886 2.057 . S
O902 C890 1.232 . S
H903 C922 0.929 . S
H904 C923 0.929 . S
H905 C935 0.931 . S
H906 C927 0.929 1_655 S
H907 C936 0.930 . S
H908 C928 0.953 . S
O909 Co885 2.097 . S
O909 C937 1.214 . S
H910 C938 0.929 . S
H911 C939 0.929 . S
H912 C940 0.930 . S
H913 C941 0.929 . S
H914 C943 0.930 . S
H915 C920 0.930 . S
H916 C924 0.930 . S
O917 Co886 2.037 . S
O917 C937 1.234 . S
C918 O892 1.269 . S
C918 O893 1.257 . S
C919 H894 0.930 . S
C919 C922 1.388 . S
C919 C924 1.418 . S
C920 H915 0.930 . S
C920 C923 1.404 . S
C920 C924 1.353 . S
N921 Co886 2.145 . S
N921 C922 1.397 . S
N921 C923 1.334 . S
C922 H903 0.929 . S
C922 C919 1.388 . S
C922 N921 1.397 . S
C923 H904 0.929 . S
C923 C920 1.404 . S
C923 N921 1.334 . S
C924 H916 0.930 . S
C924 C919 1.418 . S
C924 C920 1.353 . S
C925 H895 0.930 . S
C925 N926 1.330 . S
C925 C927 1.446 . S
N926 Co885 2.151 . S
N926 C925 1.330 . S
N926 C930 1.418 . S
C927 H906 0.929 1_455 S
C927 C925 1.446 . S
C927 C928 1.332 . S
C928 H908 0.953 . S
C928 C927 1.332 . S
C928 C929 1.267 . S
C929 H897 0.929 . S
C929 C928 1.267 . S
C929 C930 1.251 . S
C930 H900 0.929 . S
C930 N926 1.418 . S
C930 C929 1.251 . S
C931 H898 0.930 . S
C931 C933 1.406 . S
C931 C936 1.261 . S
C932 H899 0.930 . S
C932 N934 1.325 . S
C932 C935 1.357 . S
C933 H901 0.928 . S
C933 C931 1.406 . S
C933 N934 1.261 . S
N934 Co885 2.214 . S
N934 C932 1.325 . S
N934 C933 1.261 . S
C935 H905 0.931 . S
C935 C932 1.357 . S
C935 C936 1.312 . S
C936 H907 0.930 . S
C936 C931 1.261 . S
C936 C935 1.312 . S
C937 O909 1.214 . S
C937 O917 1.234 . S
C938 H910 0.929 . S
C938 C941 1.391 . S
C938 C943 1.391 . S
C939 H911 0.929 . S
C939 C940 1.390 . S
C939 N942 1.391 . S
C940 H912 0.930 . S
C940 C939 1.390 . S
C940 C941 1.392 . S
C941 H913 0.929 . S
C941 C938 1.391 . S
C941 C940 1.392 . S
N942 Co886 2.257 . S
N942 C939 1.391 . S
N942 C943 1.388 . S
C943 H914 0.930 . S
C943 C938 1.391 . S
C943 N942 1.388 . S
H944 C952 0.950 . S
H945 C957 0.950 . S
H946 C954 0.950 . S
H947 C956 0.950 . S
H948 C958 0.950 . S
H949 C960 0.950 . S
H950 C962 0.950 . S
H951 C963 0.950 . S
C952 H944 0.950 . S
C952 C953 1.386 . S
C952 C954 1.391 . S
C953 C952 1.386 . S
C953 C957 1.393 . S
C954 H946 0.950 . S
C954 C952 1.391 . S
C954 C955 1.400 . S
C955 C954 1.400 . S
C955 C956 1.398 . S
C955 C961 1.491 . S
C956 H947 0.950 . S
C956 C955 1.398 . S
C956 C957 1.391 . S
C957 H945 0.950 . S
C957 C953 1.393 . S
C957 C956 1.391 . S
C958 H948 0.950 . S
C958 C959 1.386 . S
C958 C960 1.391 . S
C959 C958 1.386 . S
C959 C963 1.393 . S
C960 H949 0.950 . S
C960 C958 1.391 . S
C960 C961 1.400 . S
C961 C955 1.491 . S
C961 C960 1.400 . S
C961 C962 1.398 . S
C962 H950 0.950 . S
C962 C961 1.398 . S
C962 C963 1.391 . S
C963 H951 0.950 . S
C963 C959 1.393 . S
C963 C962 1.391 . S
H964 C972 0.950 . S
H965 C977 0.950 . S
H966 C974 0.950 . S
H967 C976 0.950 . S
H968 C978 0.950 . S
H969 C980 0.950 . S
H970 C982 0.950 . S
H971 C983 0.950 . S
C972 H964 0.950 . S
C972 C973 1.386 . S
C972 C974 1.391 . S
C973 C972 1.386 . S
C973 C977 1.393 . S
C974 H966 0.950 . S
C974 C972 1.391 . S
C974 C975 1.400 . S
C975 C974 1.400 . S
C975 C976 1.398 . S
C975 C981 1.491 . S
C976 H967 0.950 . S
C976 C975 1.398 . S
C976 C977 1.391 . S
C977 H965 0.950 . S
C977 C973 1.393 . S
C977 C976 1.391 . S
C978 H968 0.950 . S
C978 C979 1.386 . S
C978 C980 1.391 . S
C979 C978 1.386 . S
C979 C983 1.393 . S
C980 H969 0.950 . S
C980 C978 1.391 . S
C980 C981 1.400 . S
C981 C975 1.491 . S
C981 C980 1.400 . S
C981 C982 1.398 . S
C982 H970 0.950 . S
C982 C981 1.398 . S
C982 C983 1.391 . S
C983 H971 0.950 . S
C983 C979 1.393 . S
C983 C982 1.391 . S
H984 C992 0.950 . S
H985 C997 0.950 . S
H986 C994 0.950 . S
H987 C996 0.950 . S
H988 C998 0.950 . S
H989 C1000 0.950 . S
H990 C1002 0.950 . S
H991 C1003 0.950 . S
C992 H984 0.950 . S
C992 C993 1.386 . S
C992 C994 1.391 . S
C993 C992 1.386 . S
C993 C997 1.393 . S
C994 H986 0.950 . S
C994 C992 1.391 . S
C994 C995 1.400 . S
C995 C994 1.400 . S
C995 C996 1.398 . S
C995 C1001 1.491 . S
C996 H987 0.950 . S
C996 C995 1.398 . S
C996 C997 1.391 . S
C997 H985 0.950 . S
C997 C993 1.393 . S
C997 C996 1.391 . S
C998 H988 0.950 . S
C998 C999 1.386 . S
C998 C1000 1.391 . S
C999 C998 1.386 . S
C999 C1003 1.393 . S
C1000 H989 0.950 . S
C1000 C998 1.391 . S
C1000 C1001 1.400 . S
C1001 C995 1.491 . S
C1001 C1000 1.400 . S
C1001 C1002 1.398 . S
C1002 H990 0.950 . S
C1002 C1001 1.398 . S
C1002 C1003 1.391 . S
C1003 H991 0.950 . S
C1003 C999 1.393 . S
C1003 C1002 1.391 . S
H1004 C1012 0.950 . S
H1005 C1017 0.950 . S
H1006 C1014 0.950 . S
H1007 C1016 0.950 . S
H1008 C1018 0.950 . S
H1009 C1020 0.950 . S
H1010 C1022 0.950 . S
H1011 C1023 0.950 . S
C1012 H1004 0.950 . S
C1012 C1013 1.386 . S
C1012 C1014 1.391 . S
C1013 C1012 1.386 . S
C1013 C1017 1.393 . S
C1014 H1006 0.950 . S
C1014 C1012 1.391 . S
C1014 C1015 1.400 . S
C1015 C1014 1.400 . S
C1015 C1016 1.398 . S
C1015 C1021 1.491 . S
C1016 H1007 0.950 . S
C1016 C1015 1.398 . S
C1016 C1017 1.391 . S
C1017 H1005 0.950 . S
C1017 C1013 1.393 . S
C1017 C1016 1.391 . S
C1018 H1008 0.950 . S
C1018 C1019 1.386 . S
C1018 C1020 1.391 . S
C1019 C1018 1.386 . S
C1019 C1023 1.393 . S
C1020 H1009 0.950 . S
C1020 C1018 1.391 . S
C1020 C1021 1.400 . S
C1021 C1015 1.491 . S
C1021 C1020 1.400 . S
C1021 C1022 1.398 . S
C1022 H1010 0.950 . S
C1022 C1021 1.398 . S
C1022 C1023 1.391 . S
C1023 H1011 0.950 . S
C1023 C1019 1.393 . S
C1023 C1022 1.391 . S
H1024 C1032 0.950 . S
H1025 C1037 0.950 . S
H1026 C1034 0.950 . S
H1027 C1036 0.950 . S
H1028 C1038 0.950 . S
H1029 C1040 0.950 . S
H1030 C1042 0.950 . S
H1031 C1043 0.950 . S
C1032 H1024 0.950 . S
C1032 C1033 1.386 . S
C1032 C1034 1.391 . S
C1033 C1032 1.386 . S
C1033 C1037 1.393 . S
C1034 H1026 0.950 . S
C1034 C1032 1.391 . S
C1034 C1035 1.400 . S
C1035 C1034 1.400 . S
C1035 C1036 1.398 . S
C1035 C1041 1.491 . S
C1036 H1027 0.950 . S
C1036 C1035 1.398 . S
C1036 C1037 1.391 . S
C1037 H1025 0.950 . S
C1037 C1033 1.393 . S
C1037 C1036 1.391 . S
C1038 H1028 0.950 . S
C1038 C1039 1.386 . S
C1038 C1040 1.391 . S
C1039 C1038 1.386 . S
C1039 C1043 1.393 . S
C1040 H1029 0.950 . S
C1040 C1038 1.391 . S
C1040 C1041 1.400 . S
C1041 C1035 1.491 . S
C1041 C1040 1.400 . S
C1041 C1042 1.398 . S
C1042 H1030 0.950 . S
C1042 C1041 1.398 . S
C1042 C1043 1.391 . S
C1043 H1031 0.950 . S
C1043 C1039 1.393 . S
C1043 C1042 1.391 . S
H1044 C1052 0.950 . S
H1045 C1057 0.950 . S
H1046 C1054 0.950 . S
H1047 C1056 0.950 . S
H1048 C1058 0.950 . S
H1049 C1060 0.950 . S
H1050 C1062 0.950 . S
H1051 C1063 0.950 . S
C1052 H1044 0.950 . S
C1052 C1053 1.386 . S
C1052 C1054 1.391 . S
C1053 C1052 1.386 . S
C1053 C1057 1.393 . S
C1054 H1046 0.950 . S
C1054 C1052 1.391 . S
C1054 C1055 1.400 . S
C1055 C1054 1.400 . S
C1055 C1056 1.398 . S
C1055 C1061 1.491 . S
C1056 H1047 0.950 . S
C1056 C1055 1.398 . S
C1056 C1057 1.391 . S
C1057 H1045 0.950 . S
C1057 C1053 1.393 . S
C1057 C1056 1.391 . S
C1058 H1048 0.950 . S
C1058 C1059 1.386 . S
C1058 C1060 1.391 . S
C1059 C1058 1.386 . S
C1059 C1063 1.393 . S
C1060 H1049 0.950 . S
C1060 C1058 1.391 . S
C1060 C1061 1.400 . S
C1061 C1055 1.491 . S
C1061 C1060 1.400 . S
C1061 C1062 1.398 . S
C1062 H1050 0.950 . S
C1062 C1061 1.398 . S
C1062 C1063 1.391 . S
C1063 H1051 0.950 . S
C1063 C1059 1.393 . S
C1063 C1062 1.391 . S
H1064 C1072 0.950 . S
H1065 C1077 0.950 . S
H1066 C1074 0.950 . S
H1067 C1076 0.950 . S
H1068 C1078 0.950 . S
H1069 C1080 0.950 . S
H1070 C1082 0.950 . S
H1071 C1083 0.950 . S
C1072 H1064 0.950 . S
C1072 C1073 1.386 . S
C1072 C1074 1.391 . S
C1073 C1072 1.386 . S
C1073 C1077 1.393 . S
C1074 H1066 0.950 . S
C1074 C1072 1.391 . S
C1074 C1075 1.400 . S
C1075 C1074 1.400 . S
C1075 C1076 1.398 . S
C1075 C1081 1.491 . S
C1076 H1067 0.950 . S
C1076 C1075 1.398 . S
C1076 C1077 1.391 . S
C1077 H1065 0.950 . S
C1077 C1073 1.393 . S
C1077 C1076 1.391 . S
C1078 H1068 0.950 . S
C1078 C1079 1.386 . S
C1078 C1080 1.391 . S
C1079 C1078 1.386 . S
C1079 C1083 1.393 . S
C1080 H1069 0.950 . S
C1080 C1078 1.391 . S
C1080 C1081 1.400 . S
C1081 C1075 1.491 . S
C1081 C1080 1.400 . S
C1081 C1082 1.398 . S
C1082 H1070 0.950 . S
C1082 C1081 1.398 . S
C1082 C1083 1.391 . S
C1083 H1071 0.950 . S
C1083 C1079 1.393 . S
C1083 C1082 1.391 . S
H1084 C1092 0.950 . S
H1085 C1097 0.950 . S
H1086 C1094 0.950 . S
H1087 C1096 0.950 . S
H1088 C1098 0.950 . S
H1089 C1100 0.950 . S
H1090 C1102 0.950 . S
H1091 C1103 0.950 . S
C1092 H1084 0.950 . S
C1092 C1093 1.386 . S
C1092 C1094 1.391 . S
C1093 C1092 1.386 . S
C1093 C1097 1.393 . S
C1094 H1086 0.950 . S
C1094 C1092 1.391 . S
C1094 C1095 1.400 . S
C1095 C1094 1.400 . S
C1095 C1096 1.398 . S
C1095 C1101 1.491 . S
C1096 H1087 0.950 . S
C1096 C1095 1.398 . S
C1096 C1097 1.391 . S
C1097 H1085 0.950 . S
C1097 C1093 1.393 . S
C1097 C1096 1.391 . S
C1098 H1088 0.950 . S
C1098 C1099 1.386 . S
C1098 C1100 1.391 . S
C1099 C1098 1.386 . S
C1099 C1103 1.393 . S
C1100 H1089 0.950 . S
C1100 C1098 1.391 . S
C1100 C1101 1.400 . S
C1101 C1095 1.491 . S
C1101 C1100 1.400 . S
C1101 C1102 1.398 . S
C1102 H1090 0.950 . S
C1102 C1101 1.398 . S
C1102 C1103 1.391 . S
C1103 H1091 0.950 . S
C1103 C1099 1.393 . S
C1103 C1102 1.391 . S
H1104 C1112 0.950 . S
H1105 C1117 0.950 . S
H1106 C1114 0.950 . S
H1107 C1116 0.950 . S
H1108 C1118 0.950 . S
H1109 C1120 0.950 . S
H1110 C1122 0.950 . S
H1111 C1123 0.950 . S
C1112 H1104 0.950 . S
C1112 C1113 1.386 . S
C1112 C1114 1.391 . S
C1113 C1112 1.386 . S
C1113 C1117 1.393 . S
C1114 H1106 0.950 . S
C1114 C1112 1.391 . S
C1114 C1115 1.400 . S
C1115 C1114 1.400 . S
C1115 C1116 1.398 . S
C1115 C1121 1.491 . S
C1116 H1107 0.950 . S
C1116 C1115 1.398 . S
C1116 C1117 1.391 . S
C1117 H1105 0.950 . S
C1117 C1113 1.393 . S
C1117 C1116 1.391 . S
C1118 H1108 0.950 . S
C1118 C1119 1.386 1_655 S
C1118 C1120 1.391 . S
C1119 C1118 1.386 1_455 S
C1119 C1123 1.393 . S
C1120 H1109 0.950 . S
C1120 C1118 1.391 . S
C1120 C1121 1.400 . S
C1121 C1115 1.491 . S
C1121 C1120 1.400 . S
C1121 C1122 1.398 1_655 S
C1122 H1110 0.950 . S
C1122 C1121 1.398 1_455 S
C1122 C1123 1.391 . S
C1123 H1111 0.950 . S
C1123 C1119 1.393 . S
C1123 C1122 1.391 . S
H1124 C1132 0.950 . S
H1125 C1137 0.950 . S
H1126 C1134 0.950 . S
H1127 C1136 0.950 1_455 S
H1128 C1138 0.950 . S
H1129 C1140 0.950 . S
H1130 C1142 0.950 . S
H1131 C1143 0.950 . S
C1132 H1124 0.950 . S
C1132 C1133 1.386 1_565 S
C1132 C1134 1.391 . S
C1133 C1132 1.386 1_545 S
C1133 C1137 1.393 . S
C1134 H1126 0.950 . S
C1134 C1132 1.391 . S
C1134 C1135 1.400 . S
C1135 C1134 1.400 . S
C1135 C1136 1.398 . S
C1135 C1141 1.491 . S
C1136 H1127 0.950 1_655 S
C1136 C1135 1.398 . S
C1136 C1137 1.391 1_565 S
C1137 H1125 0.950 . S
C1137 C1133 1.393 . S
C1137 C1136 1.391 1_545 S
C1138 H1128 0.950 . S
C1138 C1139 1.386 . S
C1138 C1140 1.391 . S
C1139 C1138 1.386 . S
C1139 C1143 1.393 1_455 S
C1140 H1129 0.950 . S
C1140 C1138 1.391 . S
C1140 C1141 1.400 1_455 S
C1141 C1135 1.491 . S
C1141 C1140 1.400 1_655 S
C1141 C1142 1.398 . S
C1142 H1130 0.950 . S
C1142 C1141 1.398 . S
C1142 C1143 1.391 . S
C1143 H1131 0.950 . S
C1143 C1139 1.393 1_655 S
C1143 C1142 1.391 . S
H1144 C1152 0.950 . S
H1145 C1157 0.950 . S
H1146 C1154 0.950 . S
H1147 C1156 0.950 . S
H1148 C1158 0.950 . S
H1149 C1160 0.950 1_545 S
H1150 C1162 0.950 . S
H1151 C1163 0.950 . S
C1152 H1144 0.950 . S
C1152 C1153 1.386 1_565 S
C1152 C1154 1.391 . S
C1153 C1152 1.386 1_545 S
C1153 C1157 1.393 . S
C1154 H1146 0.950 . S
C1154 C1152 1.391 . S
C1154 C1155 1.400 . S
C1155 C1154 1.400 . S
C1155 C1156 1.398 1_565 S
C1155 C1161 1.491 . S
C1156 H1147 0.950 . S
C1156 C1155 1.398 1_545 S
C1156 C1157 1.391 . S
C1157 H1145 0.950 . S
C1157 C1153 1.393 . S
C1157 C1156 1.391 . S
C1158 H1148 0.950 . S
C1158 C1159 1.386 . S
C1158 C1160 1.391 . S
C1159 C1158 1.386 . S
C1159 C1163 1.393 . S
C1160 H1149 0.950 1_565 S
C1160 C1158 1.391 . S
C1160 C1161 1.400 . S
C1161 C1155 1.491 . S
C1161 C1160 1.400 . S
C1161 C1162 1.398 . S
C1162 H1150 0.950 . S
C1162 C1161 1.398 . S
C1162 C1163 1.391 . S
C1163 H1151 0.950 . S
C1163 C1159 1.393 . S
C1163 C1162 1.391 . S
H1164 C1172 0.950 . S
H1165 C1177 0.950 . S
H1166 C1174 0.950 . S
H1167 C1176 0.950 . S
H1168 C1178 0.950 . S
H1169 C1180 0.950 . S
H1170 C1182 0.950 . S
H1171 C1183 0.950 . S
C1172 H1164 0.950 . S
C1172 C1173 1.386 . S
C1172 C1174 1.391 . S
C1173 C1172 1.386 . S
C1173 C1177 1.393 . S
C1174 H1166 0.950 . S
C1174 C1172 1.391 . S
C1174 C1175 1.400 . S
C1175 C1174 1.400 . S
C1175 C1176 1.398 . S
C1175 C1181 1.491 . S
C1176 H1167 0.950 . S
C1176 C1175 1.398 . S
C1176 C1177 1.391 . S
C1177 H1165 0.950 . S
C1177 C1173 1.393 . S
C1177 C1176 1.391 . S
C1178 H1168 0.950 . S
C1178 C1179 1.386 . S
C1178 C1180 1.391 . S
C1179 C1178 1.386 . S
C1179 C1183 1.393 . S
C1180 H1169 0.950 . S
C1180 C1178 1.391 . S
C1180 C1181 1.400 . S
C1181 C1175 1.491 . S
C1181 C1180 1.400 . S
C1181 C1182 1.398 . S
C1182 H1170 0.950 . S
C1182 C1181 1.398 . S
C1182 C1183 1.391 . S
C1183 H1171 0.950 . S
C1183 C1179 1.393 . S
C1183 C1182 1.391 . S
H1184 C1192 0.950 . S
H1185 C1197 0.950 . S
H1186 C1194 0.950 . S
H1187 C1196 0.950 1_655 S
H1188 C1198 0.950 . S
H1189 C1200 0.950 . S
H1190 C1202 0.950 . S
H1191 C1203 0.950 . S
C1192 H1184 0.950 . S
C1192 C1193 1.386 . S
C1192 C1194 1.391 . S
C1193 C1192 1.386 . S
C1193 C1197 1.393 . S
C1194 H1186 0.950 . S
C1194 C1192 1.391 . S
C1194 C1195 1.400 . S
C1195 C1194 1.400 . S
C1195 C1196 1.398 . S
C1195 C1201 1.491 . S
C1196 H1187 0.950 1_455 S
C1196 C1195 1.398 . S
C1196 C1197 1.391 . S
C1197 H1185 0.950 . S
C1197 C1193 1.393 . S
C1197 C1196 1.391 . S
C1198 H1188 0.950 . S
C1198 C1199 1.386 . S
C1198 C1200 1.391 . S
C1199 C1198 1.386 . S
C1199 C1203 1.393 1_655 S
C1200 H1189 0.950 . S
C1200 C1198 1.391 . S
C1200 C1201 1.400 1_655 S
C1201 C1195 1.491 . S
C1201 C1200 1.400 1_455 S
C1201 C1202 1.398 . S
C1202 H1190 0.950 . S
C1202 C1201 1.398 . S
C1202 C1203 1.391 . S
C1203 H1191 0.950 . S
C1203 C1199 1.393 1_455 S
C1203 C1202 1.391 . S
H1204 C1212 0.950 . S
H1205 C1217 0.950 . S
H1206 C1214 0.950 . S
H1207 C1216 0.950 . S
H1208 C1218 0.950 . S
H1209 C1220 0.950 . S
H1210 C1222 0.950 . S
H1211 C1223 0.950 . S
C1212 H1204 0.950 . S
C1212 C1213 1.386 1_545 S
C1212 C1214 1.391 . S
C1213 C1212 1.386 1_565 S
C1213 C1217 1.393 . S
C1214 H1206 0.950 . S
C1214 C1212 1.391 . S
C1214 C1215 1.400 . S
C1215 C1214 1.400 . S
C1215 C1216 1.398 . S
C1215 C1221 1.491 . S
C1216 H1207 0.950 . S
C1216 C1215 1.398 . S
C1216 C1217 1.391 1_545 S
C1217 H1205 0.950 . S
C1217 C1213 1.393 . S
C1217 C1216 1.391 1_565 S
C1218 H1208 0.950 . S
C1218 C1219 1.386 1_455 S
C1218 C1220 1.391 . S
C1219 C1218 1.386 1_655 S
C1219 C1223 1.393 . S
C1220 H1209 0.950 . S
C1220 C1218 1.391 . S
C1220 C1221 1.400 . S
C1221 C1215 1.491 . S
C1221 C1220 1.400 . S
C1221 C1222 1.398 1_455 S
C1222 H1210 0.950 . S
C1222 C1221 1.398 1_655 S
C1222 C1223 1.391 . S
C1223 H1211 0.950 . S
C1223 C1219 1.393 . S
C1223 C1222 1.391 . S
H1224 C1232 0.950 . S
H1225 C1237 0.950 . S
H1226 C1234 0.950 . S
H1227 C1236 0.950 . S
H1228 C1238 0.950 . S
H1229 C1240 0.950 1_565 S
H1230 C1242 0.950 . S
H1231 C1243 0.950 . S
C1232 H1224 0.950 . S
C1232 C1233 1.386 . S
C1232 C1234 1.391 . S
C1233 C1232 1.386 . S
C1233 C1237 1.393 . S
C1234 H1226 0.950 . S
C1234 C1232 1.391 . S
C1234 C1235 1.400 . S
C1235 C1234 1.400 . S
C1235 C1236 1.398 . S
C1235 C1241 1.491 . S
C1236 H1227 0.950 . S
C1236 C1235 1.398 . S
C1236 C1237 1.391 . S
C1237 H1225 0.950 . S
C1237 C1233 1.393 . S
C1237 C1236 1.391 . S
C1238 H1228 0.950 . S
C1238 C1239 1.386 . S
C1238 C1240 1.391 1_565 S
C1239 C1238 1.386 . S
C1239 C1243 1.393 1_565 S
C1240 H1229 0.950 1_545 S
C1240 C1238 1.391 1_545 S
C1240 C1241 1.400 . S
C1241 C1235 1.491 . S
C1241 C1240 1.400 . S
C1241 C1242 1.398 . S
C1242 H1230 0.950 . S
C1242 C1241 1.398 . S
C1242 C1243 1.391 . S
C1243 H1231 0.950 . S
C1243 C1239 1.393 1_545 S
C1243 C1242 1.391 . S
H1244 C1252 0.950 . S
H1245 C1257 0.950 . S
H1246 C1254 0.950 . S
H1247 C1256 0.950 . S
H1248 C1258 0.950 . S
H1249 C1260 0.950 . S
H1250 C1262 0.950 . S
H1251 C1263 0.950 . S
C1252 H1244 0.950 . S
C1252 C1253 1.386 . S
C1252 C1254 1.391 . S
C1253 C1252 1.386 . S
C1253 C1257 1.393 . S
C1254 H1246 0.950 . S
C1254 C1252 1.391 . S
C1254 C1255 1.400 . S
C1255 C1254 1.400 . S
C1255 C1256 1.398 . S
C1255 C1261 1.491 . S
C1256 H1247 0.950 . S
C1256 C1255 1.398 . S
C1256 C1257 1.391 . S
C1257 H1245 0.950 . S
C1257 C1253 1.393 . S
C1257 C1256 1.391 . S
C1258 H1248 0.950 . S
C1258 C1259 1.386 . S
C1258 C1260 1.391 . S
C1259 C1258 1.386 . S
C1259 C1263 1.393 . S
C1260 H1249 0.950 . S
C1260 C1258 1.391 . S
C1260 C1261 1.400 . S
C1261 C1255 1.491 . S
C1261 C1260 1.400 . S
C1261 C1262 1.398 . S
C1262 H1250 0.950 . S
C1262 C1261 1.398 . S
C1262 C1263 1.391 . S
C1263 H1251 0.950 . S
C1263 C1259 1.393 . S
C1263 C1262 1.391 . S
H1264 C1272 0.950 . S
H1265 C1277 0.950 . S
H1266 C1274 0.950 . S
H1267 C1276 0.950 . S
H1268 C1278 0.950 . S
H1269 C1280 0.950 . S
H1270 C1282 0.950 . S
H1271 C1283 0.950 . S
C1272 H1264 0.950 . S
C1272 C1273 1.386 . S
C1272 C1274 1.391 . S
C1273 C1272 1.386 . S
C1273 C1277 1.393 . S
C1274 H1266 0.950 . S
C1274 C1272 1.391 . S
C1274 C1275 1.400 . S
C1275 C1274 1.400 . S
C1275 C1276 1.398 . S
C1275 C1281 1.491 . S
C1276 H1267 0.950 . S
C1276 C1275 1.398 . S
C1276 C1277 1.391 . S
C1277 H1265 0.950 . S
C1277 C1273 1.393 . S
C1277 C1276 1.391 . S
C1278 H1268 0.950 . S
C1278 C1279 1.386 . S
C1278 C1280 1.391 . S
C1279 C1278 1.386 . S
C1279 C1283 1.393 . S
C1280 H1269 0.950 . S
C1280 C1278 1.391 . S
C1280 C1281 1.400 . S
C1281 C1275 1.491 . S
C1281 C1280 1.400 . S
C1281 C1282 1.398 . S
C1282 H1270 0.950 . S
C1282 C1281 1.398 . S
C1282 C1283 1.391 . S
C1283 H1271 0.950 . S
C1283 C1279 1.393 . S
C1283 C1282 1.391 . S
H1284 C1292 0.950 . S
H1285 C1297 0.950 . S
H1286 C1294 0.950 . S
H1287 C1296 0.950 . S
H1288 C1298 0.950 . S
H1289 C1300 0.950 . S
H1290 C1302 0.950 . S
H1291 C1303 0.950 . S
C1292 H1284 0.950 . S
C1292 C1293 1.386 . S
C1292 C1294 1.391 . S
C1293 C1292 1.386 . S
C1293 C1297 1.393 . S
C1294 H1286 0.950 . S
C1294 C1292 1.391 . S
C1294 C1295 1.400 . S
C1295 C1294 1.400 . S
C1295 C1296 1.398 . S
C1295 C1301 1.491 . S
C1296 H1287 0.950 . S
C1296 C1295 1.398 . S
C1296 C1297 1.391 . S
C1297 H1285 0.950 . S
C1297 C1293 1.393 . S
C1297 C1296 1.391 . S
C1298 H1288 0.950 . S
C1298 C1299 1.386 . S
C1298 C1300 1.391 . S
C1299 C1298 1.386 . S
C1299 C1303 1.393 . S
C1300 H1289 0.950 . S
C1300 C1298 1.391 . S
C1300 C1301 1.400 . S
C1301 C1295 1.491 . S
C1301 C1300 1.400 . S
C1301 C1302 1.398 . S
C1302 H1290 0.950 . S
C1302 C1301 1.398 . S
C1302 C1303 1.391 . S
C1303 H1291 0.950 . S
C1303 C1299 1.393 . S
C1303 C1302 1.391 . S
H1304 C1312 0.950 . S
H1305 C1317 0.950 . S
H1306 C1314 0.950 . S
H1307 C1316 0.950 . S
H1308 C1318 0.950 . S
H1309 C1320 0.950 . S
H1310 C1322 0.950 . S
H1311 C1323 0.950 . S
C1312 H1304 0.950 . S
C1312 C1313 1.386 . S
C1312 C1314 1.391 . S
C1313 C1312 1.386 . S
C1313 C1317 1.393 . S
C1314 H1306 0.950 . S
C1314 C1312 1.391 . S
C1314 C1315 1.400 . S
C1315 C1314 1.400 . S
C1315 C1316 1.398 . S
C1315 C1321 1.491 . S
C1316 H1307 0.950 . S
C1316 C1315 1.398 . S
C1316 C1317 1.391 . S
C1317 H1305 0.950 . S
C1317 C1313 1.393 . S
C1317 C1316 1.391 . S
C1318 H1308 0.950 . S
C1318 C1319 1.386 . S
C1318 C1320 1.391 . S
C1319 C1318 1.386 . S
C1319 C1323 1.393 . S
C1320 H1309 0.950 . S
C1320 C1318 1.391 . S
C1320 C1321 1.400 . S
C1321 C1315 1.491 . S
C1321 C1320 1.400 . S
C1321 C1322 1.398 . S
C1322 H1310 0.950 . S
C1322 C1321 1.398 . S
C1322 C1323 1.391 . S
C1323 H1311 0.950 . S
C1323 C1319 1.393 . S
C1323 C1322 1.391 . S
H1324 C1332 0.950 . S
H1325 C1337 0.950 . S
H1326 C1334 0.950 . S
H1327 C1336 0.950 . S
H1328 C1338 0.950 . S
H1329 C1340 0.950 . S
H1330 C1342 0.950 . S
H1331 C1343 0.950 . S
C1332 H1324 0.950 . S
C1332 C1333 1.386 . S
C1332 C1334 1.391 . S
C1333 C1332 1.386 . S
C1333 C1337 1.393 . S
C1334 H1326 0.950 . S
C1334 C1332 1.391 . S
C1334 C1335 1.400 . S
C1335 C1334 1.400 . S
C1335 C1336 1.398 . S
C1335 C1341 1.491 . S
C1336 H1327 0.950 . S
C1336 C1335 1.398 . S
C1336 C1337 1.391 . S
C1337 H1325 0.950 . S
C1337 C1333 1.393 . S
C1337 C1336 1.391 . S
C1338 H1328 0.950 . S
C1338 C1339 1.386 . S
C1338 C1340 1.391 . S
C1339 C1338 1.386 . S
C1339 C1343 1.393 . S
C1340 H1329 0.950 . S
C1340 C1338 1.391 . S
C1340 C1341 1.400 . S
C1341 C1335 1.491 . S
C1341 C1340 1.400 . S
C1341 C1342 1.398 . S
C1342 H1330 0.950 . S
C1342 C1341 1.398 . S
C1342 C1343 1.391 . S
C1343 H1331 0.950 . S
C1343 C1339 1.393 . S
C1343 C1342 1.391 . S
H1344 C1352 0.950 . S
H1345 C1357 0.950 . S
H1346 C1354 0.950 . S
H1347 C1356 0.950 . S
H1348 C1358 0.950 . S
H1349 C1360 0.950 . S
H1350 C1362 0.950 . S
H1351 C1363 0.950 . S
C1352 H1344 0.950 . S
C1352 C1353 1.386 . S
C1352 C1354 1.391 . S
C1353 C1352 1.386 . S
C1353 C1357 1.393 . S
C1354 H1346 0.950 . S
C1354 C1352 1.391 . S
C1354 C1355 1.400 . S
C1355 C1354 1.400 . S
C1355 C1356 1.398 . S
C1355 C1361 1.491 . S
C1356 H1347 0.950 . S
C1356 C1355 1.398 . S
C1356 C1357 1.391 . S
C1357 H1345 0.950 . S
C1357 C1353 1.393 . S
C1357 C1356 1.391 . S
C1358 H1348 0.950 . S
C1358 C1359 1.386 . S
C1358 C1360 1.391 . S
C1359 C1358 1.386 . S
C1359 C1363 1.393 . S
C1360 H1349 0.950 . S
C1360 C1358 1.391 . S
C1360 C1361 1.400 . S
C1361 C1355 1.491 . S
C1361 C1360 1.400 . S
C1361 C1362 1.398 . S
C1362 H1350 0.950 . S
C1362 C1361 1.398 . S
C1362 C1363 1.391 . S
C1363 H1351 0.950 . S
C1363 C1359 1.393 . S
C1363 C1362 1.391 . S
H1364 C1372 0.950 . S
H1365 C1377 0.950 . S
H1366 C1374 0.950 . S
H1367 C1376 0.950 . S
H1368 C1378 0.950 . S
H1369 C1380 0.950 . S
H1370 C1382 0.950 . S
H1371 C1383 0.950 . S
C1372 H1364 0.950 . S
C1372 C1373 1.386 . S
C1372 C1374 1.391 . S
C1373 C1372 1.386 . S
C1373 C1377 1.393 . S
C1374 H1366 0.950 . S
C1374 C1372 1.391 . S
C1374 C1375 1.400 . S
C1375 C1374 1.400 . S
C1375 C1376 1.398 . S
C1375 C1381 1.491 . S
C1376 H1367 0.950 . S
C1376 C1375 1.398 . S
C1376 C1377 1.391 . S
C1377 H1365 0.950 . S
C1377 C1373 1.393 . S
C1377 C1376 1.391 . S
C1378 H1368 0.950 . S
C1378 C1379 1.386 . S
C1378 C1380 1.391 . S
C1379 C1378 1.386 . S
C1379 C1383 1.393 . S
C1380 H1369 0.950 . S
C1380 C1378 1.391 . S
C1380 C1381 1.400 . S
C1381 C1375 1.491 . S
C1381 C1380 1.400 . S
C1381 C1382 1.398 . S
C1382 H1370 0.950 . S
C1382 C1381 1.398 . S
C1382 C1383 1.391 . S
C1383 H1371 0.950 . S
C1383 C1379 1.393 . S
C1383 C1382 1.391 . S
H1384 C1392 0.950 . S
H1385 C1397 0.950 . S
H1386 C1394 0.950 . S
H1387 C1396 0.950 . S
H1388 C1398 0.950 . S
H1389 C1400 0.950 . S
H1390 C1402 0.950 . S
H1391 C1403 0.950 . S
C1392 H1384 0.950 . S
C1392 C1393 1.386 . S
C1392 C1394 1.391 . S
C1393 C1392 1.386 . S
C1393 C1397 1.393 . S
C1394 H1386 0.950 . S
C1394 C1392 1.391 . S
C1394 C1395 1.400 . S
C1395 C1394 1.400 . S
C1395 C1396 1.398 . S
C1395 C1401 1.491 . S
C1396 H1387 0.950 . S
C1396 C1395 1.398 . S
C1396 C1397 1.391 . S
C1397 H1385 0.950 . S
C1397 C1393 1.393 . S
C1397 C1396 1.391 . S
C1398 H1388 0.950 . S
C1398 C1399 1.386 . S
C1398 C1400 1.391 . S
C1399 C1398 1.386 . S
C1399 C1403 1.393 . S
C1400 H1389 0.950 . S
C1400 C1398 1.391 . S
C1400 C1401 1.400 . S
C1401 C1395 1.491 . S
C1401 C1400 1.400 . S
C1401 C1402 1.398 . S
C1402 H1390 0.950 . S
C1402 C1401 1.398 . S
C1402 C1403 1.391 . S
C1403 H1391 0.950 . S
C1403 C1399 1.393 . S
C1403 C1402 1.391 . S
H1404 C1412 0.950 . S
H1405 C1417 0.950 . S
H1406 C1414 0.950 . S
H1407 C1416 0.950 . S
H1408 C1418 0.950 . S
H1409 C1420 0.950 . S
H1410 C1422 0.950 . S
H1411 C1423 0.950 . S
C1412 H1404 0.950 . S
C1412 C1413 1.386 . S
C1412 C1414 1.391 . S
C1413 C1412 1.386 . S
C1413 C1417 1.393 . S
C1414 H1406 0.950 . S
C1414 C1412 1.391 . S
C1414 C1415 1.400 . S
C1415 C1414 1.400 . S
C1415 C1416 1.398 . S
C1415 C1421 1.491 . S
C1416 H1407 0.950 . S
C1416 C1415 1.398 . S
C1416 C1417 1.391 . S
C1417 H1405 0.950 . S
C1417 C1413 1.393 . S
C1417 C1416 1.391 . S
C1418 H1408 0.950 . S
C1418 C1419 1.386 . S
C1418 C1420 1.391 . S
C1419 C1418 1.386 . S
C1419 C1423 1.393 . S
C1420 H1409 0.950 . S
C1420 C1418 1.391 . S
C1420 C1421 1.400 . S
C1421 C1415 1.491 . S
C1421 C1420 1.400 . S
C1421 C1422 1.398 . S
C1422 H1410 0.950 . S
C1422 C1421 1.398 . S
C1422 C1423 1.391 . S
C1423 H1411 0.950 . S
C1423 C1419 1.393 . S
C1423 C1422 1.391 . S
H1424 C1432 0.950 . S
H1425 C1437 0.950 . S
H1426 C1434 0.950 . S
H1427 C1436 0.950 . S
H1428 C1438 0.950 . S
H1429 C1440 0.950 . S
H1430 C1442 0.950 . S
H1431 C1443 0.950 . S
C1432 H1424 0.950 . S
C1432 C1433 1.386 . S
C1432 C1434 1.391 . S
C1433 C1432 1.386 . S
C1433 C1437 1.393 1_455 S
C1434 H1426 0.950 . S
C1434 C1432 1.391 . S
C1434 C1435 1.400 . S
C1435 C1434 1.400 . S
C1435 C1436 1.398 1_455 S
C1435 C1441 1.491 1_454 S
C1436 H1427 0.950 . S
C1436 C1435 1.398 1_655 S
C1436 C1437 1.391 . S
C1437 H1425 0.950 . S
C1437 C1433 1.393 1_655 S
C1437 C1436 1.391 . S
C1438 H1428 0.950 . S
C1438 C1439 1.386 . S
C1438 C1440 1.391 . S
C1439 C1438 1.386 . S
C1439 C1443 1.393 1_655 S
C1440 H1429 0.950 . S
C1440 C1438 1.391 . S
C1440 C1441 1.400 . S
C1441 C1435 1.491 1_656 S
C1441 C1440 1.400 . S
C1441 C1442 1.398 1_655 S
C1442 H1430 0.950 . S
C1442 C1441 1.398 1_455 S
C1442 C1443 1.391 . S
C1443 H1431 0.950 . S
C1443 C1439 1.393 1_455 S
C1443 C1442 1.391 . S
H1444 C1452 0.950 . S
H1445 C1457 0.950 . S
H1446 C1454 0.950 1_655 S
H1447 C1456 0.950 1_554 S
H1448 C1458 0.950 . S
H1449 C1460 0.950 1_455 S
H1450 C1462 0.950 1_556 S
H1451 C1463 0.950 . S
C1452 H1444 0.950 . S
C1452 C1453 1.386 . S
C1452 C1454 1.391 . S
C1453 C1452 1.386 . S
C1453 C1457 1.393 1_565 S
C1454 H1446 0.950 1_455 S
C1454 C1452 1.391 . S
C1454 C1455 1.400 . S
C1455 C1454 1.400 . S
C1455 C1456 1.398 1_565 S
C1455 C1461 1.491 1_466 S
C1456 H1447 0.950 1_556 S
C1456 C1455 1.398 1_545 S
C1456 C1457 1.391 . S
C1457 H1445 0.950 . S
C1457 C1453 1.393 1_545 S
C1457 C1456 1.391 . S
C1458 H1448 0.950 . S
C1458 C1459 1.386 . S
C1458 C1460 1.391 . S
C1459 C1458 1.386 . S
C1459 C1463 1.393 1_545 S
C1460 H1449 0.950 1_655 S
C1460 C1458 1.391 . S
C1460 C1461 1.400 . S
C1461 C1455 1.491 1_644 S
C1461 C1460 1.400 . S
C1461 C1462 1.398 1_545 S
C1462 H1450 0.950 1_554 S
C1462 C1461 1.398 1_565 S
C1462 C1463 1.391 . S
C1463 H1451 0.950 . S
C1463 C1459 1.393 1_565 S
C1463 C1462 1.391 . S
H1464 C1472 0.950 . S
H1465 C1477 0.950 . S
H1466 C1474 0.950 1_545 S
H1467 C1476 0.950 1_556 S
H1468 C1478 0.950 . S
H1469 C1480 0.950 1_565 S
H1470 C1482 0.950 1_554 S
H1471 C1483 0.950 . S
C1472 H1464 0.950 . S
C1472 C1473 1.386 . S
C1472 C1474 1.391 . S
C1473 C1472 1.386 . S
C1473 C1477 1.393 . S
C1474 H1466 0.950 1_565 S
C1474 C1472 1.391 . S
C1474 C1475 1.400 . S
C1475 C1474 1.400 . S
C1475 C1476 1.398 . S
C1475 C1481 1.491 1_564 S
C1476 H1467 0.950 1_554 S
C1476 C1475 1.398 . S
C1476 C1477 1.391 . S
C1477 H1465 0.950 . S
C1477 C1473 1.393 . S
C1477 C1476 1.391 . S
C1478 H1468 0.950 . S
C1478 C1479 1.386 . S
C1478 C1480 1.391 . S
C1479 C1478 1.386 . S
C1479 C1483 1.393 . S
C1480 H1469 0.950 1_545 S
C1480 C1478 1.391 . S
C1480 C1481 1.400 . S
C1481 C1475 1.491 1_546 S
C1481 C1480 1.400 . S
C1481 C1482 1.398 . S
C1482 H1470 0.950 1_556 S
C1482 C1481 1.398 . S
C1482 C1483 1.391 . S
C1483 H1471 0.950 . S
C1483 C1479 1.393 . S
C1483 C1482 1.391 . S
H1484 C1492 0.950 . S
H1485 C1497 0.950 . S
H1486 C1494 0.950 . S
H1487 C1496 0.950 . S
H1488 C1498 0.950 . S
H1489 C1500 0.950 . S
H1490 C1502 0.950 . S
H1491 C1503 0.950 . S
C1492 H1484 0.950 . S
C1492 C1493 1.386 . S
C1492 C1494 1.391 1_556 S
C1493 C1492 1.386 . S
C1493 C1497 1.393 . S
C1494 H1486 0.950 . S
C1494 C1492 1.391 1_554 S
C1494 C1495 1.400 1_554 S
C1495 C1494 1.400 1_556 S
C1495 C1496 1.398 . S
C1495 C1501 1.491 1_556 S
C1496 H1487 0.950 . S
C1496 C1495 1.398 . S
C1496 C1497 1.391 . S
C1497 H1485 0.950 . S
C1497 C1493 1.393 . S
C1497 C1496 1.391 . S
C1498 H1488 0.950 . S
C1498 C1499 1.386 . S
C1498 C1500 1.391 1_554 S
C1499 C1498 1.386 . S
C1499 C1503 1.393 . S
C1500 H1489 0.950 . S
C1500 C1498 1.391 1_556 S
C1500 C1501 1.400 1_556 S
C1501 C1495 1.491 1_554 S
C1501 C1500 1.400 1_554 S
C1501 C1502 1.398 . S
C1502 H1490 0.950 . S
C1502 C1501 1.398 . S
C1502 C1503 1.391 . S
C1503 H1491 0.950 . S
C1503 C1499 1.393 . S
C1503 C1502 1.391 . S
H1504 C1512 0.950 . S
H1505 C1517 0.950 . S
H1506 C1514 0.950 1_545 S
H1507 C1516 0.950 . S
H1508 C1518 0.950 . S
H1509 C1520 0.950 1_565 S
H1510 C1522 0.950 . S
H1511 C1523 0.950 . S
C1512 H1504 0.950 . S
C1512 C1513 1.386 . S
C1512 C1514 1.391 . S
C1513 C1512 1.386 . S
C1513 C1517 1.393 1_455 S
C1514 H1506 0.950 1_565 S
C1514 C1512 1.391 . S
C1514 C1515 1.400 . S
C1515 C1514 1.400 . S
C1515 C1516 1.398 1_455 S
C1515 C1521 1.491 1_465 S
C1516 H1507 0.950 . S
C1516 C1515 1.398 1_655 S
C1516 C1517 1.391 . S
C1517 H1505 0.950 . S
C1517 C1513 1.393 1_655 S
C1517 C1516 1.391 . S
C1518 H1508 0.950 . S
C1518 C1519 1.386 . S
C1518 C1520 1.391 . S
C1519 C1518 1.386 . S
C1519 C1523 1.393 1_655 S
C1520 H1509 0.950 1_545 S
C1520 C1518 1.391 . S
C1520 C1521 1.400 . S
C1521 C1515 1.491 1_645 S
C1521 C1520 1.400 . S
C1521 C1522 1.398 1_655 S
C1522 H1510 0.950 . S
C1522 C1521 1.398 1_455 S
C1522 C1523 1.391 . S
C1523 H1511 0.950 . S
C1523 C1519 1.393 1_455 S
C1523 C1522 1.391 . S
H1524 C1532 0.950 1_565 S
H1525 C1537 0.950 . S
H1526 C1534 0.950 . S
H1527 C1536 0.950 . S
H1528 C1538 0.950 1_545 S
H1529 C1540 0.950 . S
H1530 C1542 0.950 . S
H1531 C1543 0.950 . S
C1532 H1524 0.950 1_545 S
C1532 C1533 1.386 . S
C1532 C1534 1.391 1_545 S
C1533 C1532 1.386 . S
C1533 C1537 1.393 . S
C1534 H1526 0.950 . S
C1534 C1532 1.391 1_565 S
C1534 C1535 1.400 1_565 S
C1535 C1534 1.400 1_545 S
C1535 C1536 1.398 . S
C1535 C1541 1.491 1_545 S
C1536 H1527 0.950 . S
C1536 C1535 1.398 . S
C1536 C1537 1.391 . S
C1537 H1525 0.950 . S
C1537 C1533 1.393 . S
C1537 C1536 1.391 . S
C1538 H1528 0.950 1_565 S
C1538 C1539 1.386 . S
C1538 C1540 1.391 1_565 S
C1539 C1538 1.386 . S
C1539 C1543 1.393 . S
C1540 H1529 0.950 . S
C1540 C1538 1.391 1_545 S
C1540 C1541 1.400 1_545 S
C1541 C1535 1.491 1_565 S
C1541 C1540 1.400 1_565 S
C1541 C1542 1.398 . S
C1542 H1530 0.950 . S
C1542 C1541 1.398 . S
C1542 C1543 1.391 . S
C1543 H1531 0.950 . S
C1543 C1539 1.393 . S
C1543 C1542 1.391 . S
H1544 C1552 0.950 . S
H1545 C1557 0.950 . S
H1546 C1554 0.950 . S
H1547 C1556 0.950 . S
H1548 C1558 0.950 . S
H1549 C1560 0.950 . S
H1550 C1562 0.950 . S
H1551 C1563 0.950 . S
C1552 H1544 0.950 . S
C1552 C1553 1.386 . S
C1552 C1554 1.391 . S
C1553 C1552 1.386 . S
C1553 C1557 1.393 . S
C1554 H1546 0.950 . S
C1554 C1552 1.391 . S
C1554 C1555 1.400 . S
C1555 C1554 1.400 . S
C1555 C1556 1.398 . S
C1555 C1561 1.491 . S
C1556 H1547 0.950 . S
C1556 C1555 1.398 . S
C1556 C1557 1.391 . S
C1557 H1545 0.950 . S
C1557 C1553 1.393 . S
C1557 C1556 1.391 . S
C1558 H1548 0.950 . S
C1558 C1559 1.386 . S
C1558 C1560 1.391 . S
C1559 C1558 1.386 . S
C1559 C1563 1.393 . S
C1560 H1549 0.950 . S
C1560 C1558 1.391 . S
C1560 C1561 1.400 . S
C1561 C1555 1.491 . S
C1561 C1560 1.400 . S
C1561 C1562 1.398 . S
C1562 H1550 0.950 . S
C1562 C1561 1.398 . S
C1562 C1563 1.391 . S
C1563 H1551 0.950 . S
C1563 C1559 1.393 . S
C1563 C1562 1.391 . S
H1564 C1572 0.950 . S
H1565 C1577 0.950 . S
H1566 C1574 0.950 . S
H1567 C1576 0.950 . S
H1568 C1578 0.950 . S
H1569 C1580 0.950 . S
H1570 C1582 0.950 . S
H1571 C1583 0.950 . S
C1572 H1564 0.950 . S
C1572 C1573 1.386 . S
C1572 C1574 1.391 . S
C1573 C1572 1.386 . S
C1573 C1577 1.393 . S
C1574 H1566 0.950 . S
C1574 C1572 1.391 . S
C1574 C1575 1.400 . S
C1575 C1574 1.400 . S
C1575 C1576 1.398 . S
C1575 C1581 1.491 1_655 S
C1576 H1567 0.950 . S
C1576 C1575 1.398 . S
C1576 C1577 1.391 . S
C1577 H1565 0.950 . S
C1577 C1573 1.393 . S
C1577 C1576 1.391 . S
C1578 H1568 0.950 . S
C1578 C1579 1.386 . S
C1578 C1580 1.391 . S
C1579 C1578 1.386 . S
C1579 C1583 1.393 . S
C1580 H1569 0.950 . S
C1580 C1578 1.391 . S
C1580 C1581 1.400 . S
C1581 C1575 1.491 1_455 S
C1581 C1580 1.400 . S
C1581 C1582 1.398 . S
C1582 H1570 0.950 . S
C1582 C1581 1.398 . S
C1582 C1583 1.391 . S
C1583 H1571 0.950 . S
C1583 C1579 1.393 . S
C1583 C1582 1.391 . S
C953 C33 1.671 . S
C959 C151 1.680 . S
C973 C92 1.680 . S
C979 C210 1.680 . S
C993 C269 1.668 . S
C999 C387 1.669 . S
C1013 C446 1.672 . S
C1019 C328 1.667 . S
C1033 C505 1.670 . S
C1039 C623 1.679 . S
C1053 C682 1.680 . S
C1059 C564 1.671 . S
C1073 C859 1.667 . S
C1079 C741 1.672 . S
C1093 C918 1.681 . S
C1099 C800 1.678 . S
C1113 C416 0.840 . S
C1119 C3 0.846 . S
C1133 C62 0.877 . S
C1139 C239 0.886 . S
C1153 C298 0.884 . S
C1159 C121 0.867 . S
C1173 C180 0.886 . S
C1179 C357 0.872 . S
C1193 C888 0.854 . S
C1199 C475 0.840 . S
C1213 C534 0.854 . S
C1219 C711 0.876 . S
C1233 C593 0.840 . S
C1239 C770 0.847 . S
C1253 C829 0.881 . S
C1259 C652 0.860 . S
C1273 C52 0.978 . S
C1279 C288 0.975 . S
C1293 C111 0.985 . S
C1299 C347 0.981 . S
C1313 C406 0.981 . S
C1319 C170 0.977 . S
C1333 C229 1.019 . S
C1339 C465 1.022 . S
C1353 C760 1.012 . S
C1359 C524 1.006 . S
C1373 C819 0.983 . S
C1379 C583 0.988 . S
C1393 C642 0.972 . S
C1399 C878 0.972 . S
C1413 C701 0.995 . S
C1419 C937 1.001 . S
C1433 C5 1.848 . S
C1439 C477 1.848 . S
C1453 C536 1.863 . S
C1459 C64 1.863 . S
C1473 C123 1.853 . S
C1479 C595 1.853 . S
C1493 C654 1.854 . S
C1499 C182 1.854 . S
C1513 C241 1.851 . S
C1519 C713 1.851 . S
C1533 C300 1.859 . S
C1539 C772 1.859 . S
C1553 C831 1.867 . S
C1559 C359 1.867 . S
C1573 C418 1.865 . S
C1579 C890 1.865 . S
