# Generated by pormake.
# Topology umq, (4)-cn, num edge types: 1
# Building blocks:
#     Node 0, Type 0, BuildingBlock: UXUYUI_clean_sbu_0, # of connection points: 4
#     Node 1, Type 0, BuildingBlock: UXUYUI_clean_sbu_0, # of connection points: 4
#     Node 2, Type 0, BuildingBlock: UXUYUI_clean_sbu_0, # of connection points: 4
#     Node 3, Type 0, BuildingBlock: UXUYUI_clean_sbu_0, # of connection points: 4
#     Node 4, Type 0, BuildingBlock: UXUYUI_clean_sbu_0, # of connection points: 4
#     Node 5, Type 0, BuildingBlock: UXUYUI_clean_sbu_0, # of connection points: 4
#     Node 6, Type 0, BuildingBlock: UXUYUI_clean_sbu_0, # of connection points: 4
#     Node 7, Type 0, BuildingBlock: UXUYUI_clean_sbu_0, # of connection points: 4
#     Node 8, Type 0, BuildingBlock: UXUYUI_clean_sbu_0, # of connection points: 4
#     Node 9, Type 0, BuildingBlock: UXUYUI_clean_sbu_0, # of connection points: 4
#     Node 10, Type 0, BuildingBlock: UXUYUI_clean_sbu_0, # of connection points: 4
#     Node 11, Type 0, BuildingBlock: UXUYUI_clean_sbu_0, # of connection points: 4
#     Node 12, Type 0, BuildingBlock: UXUYUI_clean_sbu_0, # of connection points: 4
#     Node 13, Type 0, BuildingBlock: UXUYUI_clean_sbu_0, # of connection points: 4
#     Node 14, Type 0, BuildingBlock: UXUYUI_clean_sbu_0, # of connection points: 4
#     Node 15, Type 0, BuildingBlock: UXUYUI_clean_sbu_0, # of connection points: 4
#     Node 16, Type 0, BuildingBlock: UXUYUI_clean_sbu_0, # of connection points: 4
#     Node 17, Type 0, BuildingBlock: UXUYUI_clean_sbu_0, # of connection points: 4
#     Node 18, Type 0, BuildingBlock: UXUYUI_clean_sbu_0, # of connection points: 4
#     Node 19, Type 0, BuildingBlock: UXUYUI_clean_sbu_0, # of connection points: 4
#     Node 20, Type 0, BuildingBlock: UXUYUI_clean_sbu_0, # of connection points: 4
#     Node 21, Type 0, BuildingBlock: UXUYUI_clean_sbu_0, # of connection points: 4
#     Node 22, Type 0, BuildingBlock: UXUYUI_clean_sbu_0, # of connection points: 4
#     Node 23, Type 0, BuildingBlock: UXUYUI_clean_sbu_0, # of connection points: 4
#     Node 24, Type 0, BuildingBlock: UXUYUI_clean_sbu_0, # of connection points: 4
#     Node 25, Type 0, BuildingBlock: UXUYUI_clean_sbu_0, # of connection points: 4
#     Node 26, Type 0, BuildingBlock: UXUYUI_clean_sbu_0, # of connection points: 4
#     Node 27, Type 0, BuildingBlock: UXUYUI_clean_sbu_0, # of connection points: 4
#     Node 28, Type 0, BuildingBlock: UXUYUI_clean_sbu_0, # of connection points: 4
#     Node 29, Type 0, BuildingBlock: UXUYUI_clean_sbu_0, # of connection points: 4
#     Node 30, Type 0, BuildingBlock: UXUYUI_clean_sbu_0, # of connection points: 4
#     Node 31, Type 0, BuildingBlock: UXUYUI_clean_sbu_0, # of connection points: 4
#     Edge 32, Type (0, 0), BuildingBlock: KIFKEQ_clean_linker_1, # of connection points: 2
#     Edge 33, Type (0, 0), BuildingBlock: KIFKEQ_clean_linker_1, # of connection points: 2
#     Edge 34, Type (0, 0), BuildingBlock: KIFKEQ_clean_linker_1, # of connection points: 2
#     Edge 35, Type (0, 0), BuildingBlock: KIFKEQ_clean_linker_1, # of connection points: 2
#     Edge 36, Type (0, 0), BuildingBlock: KIFKEQ_clean_linker_1, # of connection points: 2
#     Edge 37, Type (0, 0), BuildingBlock: KIFKEQ_clean_linker_1, # of connection points: 2
#     Edge 38, Type (0, 0), BuildingBlock: KIFKEQ_clean_linker_1, # of connection points: 2
#     Edge 39, Type (0, 0), BuildingBlock: KIFKEQ_clean_linker_1, # of connection points: 2
#     Edge 40, Type (0, 0), BuildingBlock: KIFKEQ_clean_linker_1, # of connection points: 2
#     Edge 41, Type (0, 0), BuildingBlock: KIFKEQ_clean_linker_1, # of connection points: 2
#     Edge 42, Type (0, 0), BuildingBlock: KIFKEQ_clean_linker_1, # of connection points: 2
#     Edge 43, Type (0, 0), BuildingBlock: KIFKEQ_clean_linker_1, # of connection points: 2
#     Edge 44, Type (0, 0), BuildingBlock: KIFKEQ_clean_linker_1, # of connection points: 2
#     Edge 45, Type (0, 0), BuildingBlock: KIFKEQ_clean_linker_1, # of connection points: 2
#     Edge 46, Type (0, 0), BuildingBlock: KIFKEQ_clean_linker_1, # of connection points: 2
#     Edge 47, Type (0, 0), BuildingBlock: KIFKEQ_clean_linker_1, # of connection points: 2
#     Edge 48, Type (0, 0), BuildingBlock: KIFKEQ_clean_linker_1, # of connection points: 2
#     Edge 49, Type (0, 0), BuildingBlock: KIFKEQ_clean_linker_1, # of connection points: 2
#     Edge 50, Type (0, 0), BuildingBlock: KIFKEQ_clean_linker_1, # of connection points: 2
#     Edge 51, Type (0, 0), BuildingBlock: KIFKEQ_clean_linker_1, # of connection points: 2
#     Edge 52, Type (0, 0), BuildingBlock: KIFKEQ_clean_linker_1, # of connection points: 2
#     Edge 53, Type (0, 0), BuildingBlock: KIFKEQ_clean_linker_1, # of connection points: 2
#     Edge 54, Type (0, 0), BuildingBlock: KIFKEQ_clean_linker_1, # of connection points: 2
#     Edge 55, Type (0, 0), BuildingBlock: KIFKEQ_clean_linker_1, # of connection points: 2
#     Edge 56, Type (0, 0), BuildingBlock: KIFKEQ_clean_linker_1, # of connection points: 2
#     Edge 57, Type (0, 0), BuildingBlock: KIFKEQ_clean_linker_1, # of connection points: 2
#     Edge 58, Type (0, 0), BuildingBlock: KIFKEQ_clean_linker_1, # of connection points: 2
#     Edge 59, Type (0, 0), BuildingBlock: KIFKEQ_clean_linker_1, # of connection points: 2
#     Edge 60, Type (0, 0), BuildingBlock: KIFKEQ_clean_linker_1, # of connection points: 2
#     Edge 61, Type (0, 0), BuildingBlock: KIFKEQ_clean_linker_1, # of connection points: 2
#     Edge 62, Type (0, 0), BuildingBlock: KIFKEQ_clean_linker_1, # of connection points: 2
#     Edge 63, Type (0, 0), BuildingBlock: KIFKEQ_clean_linker_1, # of connection points: 2
#     Edge 64, Type (0, 0), BuildingBlock: KIFKEQ_clean_linker_1, # of connection points: 2
#     Edge 65, Type (0, 0), BuildingBlock: KIFKEQ_clean_linker_1, # of connection points: 2
#     Edge 66, Type (0, 0), BuildingBlock: KIFKEQ_clean_linker_1, # of connection points: 2
#     Edge 67, Type (0, 0), BuildingBlock: KIFKEQ_clean_linker_1, # of connection points: 2
#     Edge 68, Type (0, 0), BuildingBlock: KIFKEQ_clean_linker_1, # of connection points: 2
#     Edge 69, Type (0, 0), BuildingBlock: KIFKEQ_clean_linker_1, # of connection points: 2
#     Edge 70, Type (0, 0), BuildingBlock: KIFKEQ_clean_linker_1, # of connection points: 2
#     Edge 71, Type (0, 0), BuildingBlock: KIFKEQ_clean_linker_1, # of connection points: 2
#     Edge 72, Type (0, 0), BuildingBlock: KIFKEQ_clean_linker_1, # of connection points: 2
#     Edge 73, Type (0, 0), BuildingBlock: KIFKEQ_clean_linker_1, # of connection points: 2
#     Edge 74, Type (0, 0), BuildingBlock: KIFKEQ_clean_linker_1, # of connection points: 2
#     Edge 75, Type (0, 0), BuildingBlock: KIFKEQ_clean_linker_1, # of connection points: 2
#     Edge 76, Type (0, 0), BuildingBlock: KIFKEQ_clean_linker_1, # of connection points: 2
#     Edge 77, Type (0, 0), BuildingBlock: KIFKEQ_clean_linker_1, # of connection points: 2
#     Edge 78, Type (0, 0), BuildingBlock: KIFKEQ_clean_linker_1, # of connection points: 2
#     Edge 79, Type (0, 0), BuildingBlock: KIFKEQ_clean_linker_1, # of connection points: 2
#     Edge 80, Type (0, 0), BuildingBlock: KIFKEQ_clean_linker_1, # of connection points: 2
#     Edge 81, Type (0, 0), BuildingBlock: KIFKEQ_clean_linker_1, # of connection points: 2
#     Edge 82, Type (0, 0), BuildingBlock: KIFKEQ_clean_linker_1, # of connection points: 2
#     Edge 83, Type (0, 0), BuildingBlock: KIFKEQ_clean_linker_1, # of connection points: 2
#     Edge 84, Type (0, 0), BuildingBlock: KIFKEQ_clean_linker_1, # of connection points: 2
#     Edge 85, Type (0, 0), BuildingBlock: KIFKEQ_clean_linker_1, # of connection points: 2
#     Edge 86, Type (0, 0), BuildingBlock: KIFKEQ_clean_linker_1, # of connection points: 2
#     Edge 87, Type (0, 0), BuildingBlock: KIFKEQ_clean_linker_1, # of connection points: 2
#     Edge 88, Type (0, 0), BuildingBlock: KIFKEQ_clean_linker_1, # of connection points: 2
#     Edge 89, Type (0, 0), BuildingBlock: KIFKEQ_clean_linker_1, # of connection points: 2
#     Edge 90, Type (0, 0), BuildingBlock: KIFKEQ_clean_linker_1, # of connection points: 2
#     Edge 91, Type (0, 0), BuildingBlock: KIFKEQ_clean_linker_1, # of connection points: 2
#     Edge 92, Type (0, 0), BuildingBlock: KIFKEQ_clean_linker_1, # of connection points: 2
#     Edge 93, Type (0, 0), BuildingBlock: KIFKEQ_clean_linker_1, # of connection points: 2
#     Edge 94, Type (0, 0), BuildingBlock: KIFKEQ_clean_linker_1, # of connection points: 2
#     Edge 95, Type (0, 0), BuildingBlock: KIFKEQ_clean_linker_1, # of connection points: 2
# Relax obj value: 0.152
# Max RMSD: 0.133
# Mean RMSD: 0.133
data_MOF--net-umq--node1-UXUYUI_clean_sbu_0--edge1-KIFKEQ_clean_linker_1
_symmetry_space_group_name_H-M    P1
_symmetry_Int_Tables_number       1
_symmetry_cell_setting            triclinic
loop_
_symmetry_equiv_pos_as_xyz
'x, y, z'
_cell_length_a     99.800301
_cell_length_b     99.80979
_cell_length_c     64.302691
_cell_angle_alpha  90.000208
_cell_angle_beta   89.99109
_cell_angle_gamma 90.003083
loop_
_atom_site_label
_atom_site_type_symbol
_atom_site_fract_x
_atom_site_fract_y
_atom_site_fract_z
_atom_type_partial_charge
Li0 Li 0.23027 0.10885 0.182 0.0
Li1 Li 0.25512 0.10889 0.17601 0.0
Li2 Li 0.23924 0.09983 0.14954 0.0
Li3 Li 0.24284 0.08837 0.18168 0.0
C4 C 0.23327 0.12688 0.14802 0.0
N5 N 0.21817 0.14379 0.12339 0.0
C6 C 0.23906 0.13836 0.13945 0.0
C7 C 0.21981 0.12398 0.14408 0.0
C8 C 0.23126 0.14679 0.12704 0.0
C9 C 0.21234 0.13266 0.13158 0.0
C10 C 0.2452 0.09708 0.21974 0.0
C11 C 0.25686 0.08341 0.24483 0.0
N12 N 0.24544 0.08251 0.25628 0.0
C13 C 0.23359 0.09607 0.2318 0.0
C14 C 0.25696 0.09077 0.22635 0.0
C15 C 0.23391 0.08865 0.25022 0.0
C16 C 0.20444 0.1134 0.1994 0.0
N17 N 0.2163 0.11911 0.19397 0.0
C18 C 0.20872 0.14058 0.20527 0.0
C19 C 0.21862 0.13239 0.19678 0.0
C20 C 0.19635 0.13501 0.21111 0.0
C21 C 0.19427 0.12121 0.20817 0.0
H22 H 0.20291 0.10278 0.19698 0.0
H23 H 0.22819 0.13661 0.19238 0.0
C24 C 0.27568 0.12567 0.16245 0.0
N25 N 0.2709 0.11912 0.1794 0.0
C26 C 0.28698 0.13383 0.16411 0.0
C27 C 0.28841 0.12807 0.20057 0.0
C28 C 0.27696 0.12017 0.19825 0.0
C29 C 0.29352 0.13515 0.18339 0.0
H30 H 0.27056 0.1247 0.1477 0.0
H31 H 0.27288 0.11489 0.21149 0.0
C32 C 0.2201 0.08073 0.15884 0.0
N33 N 0.20967 0.05805 0.14029 0.0
C34 C 0.22863 0.07136 0.1496 0.0
C35 C 0.20627 0.07857 0.15866 0.0
C36 C 0.22317 0.05995 0.1403 0.0
C37 C 0.20119 0.06704 0.1492 0.0
C38 C 0.2675 0.08472 0.15727 0.0
C39 C 0.26839 0.07556 0.14088 0.0
C40 C 0.27835 0.08627 0.17082 0.0
C41 C 0.28006 0.06799 0.13846 0.0
C42 C 0.28985 0.07852 0.16788 0.0
N43 N 0.29046 0.06961 0.1519 0.0
C44 C 0.24823 0.0983 0.10872 0.0
C45 C 0.22455 0.09729 0.11147 0.0
C46 C 0.2475 0.097 0.08717 0.0
N47 N 0.23687 0.0983 0.12037 0.0
C48 C 0.22334 0.09617 0.08988 0.0
C49 C 0.23493 0.09592 0.07751 0.0
H50 H 0.25787 0.09931 0.11623 0.0
H51 H 0.21567 0.09736 0.12111 0.0
C52 C 0.23191 0.0669 0.20422 0.0
N53 N 0.24333 0.07096 0.19452 0.0
C54 C 0.2314 0.05451 0.21428 0.0
C55 C 0.25435 0.0506 0.20403 0.0
C56 C 0.25445 0.06308 0.19432 0.0
C57 C 0.24272 0.04617 0.21418 0.0
H58 H 0.2232 0.07335 0.20422 0.0
H59 H 0.26348 0.06644 0.18688 0.0
O60 O 0.24081 0.11849 0.16011 0.0
O61 O 0.24497 0.104 0.20139 0.0
O62 O 0.22517 0.09202 0.168 0.0
O63 O 0.25622 0.09237 0.15965 0.0
H64 H 0.24948 0.14073 0.14236 0.0
H65 H 0.21517 0.11511 0.15053 0.0
H66 H 0.2356 0.15572 0.12029 0.0
H67 H 0.20191 0.13053 0.12839 0.0
H68 H 0.26585 0.07838 0.25003 0.0
H69 H 0.22441 0.10087 0.2269 0.0
H70 H 0.266 0.09134 0.21712 0.0
H71 H 0.22498 0.08773 0.25965 0.0
H72 H 0.21079 0.15113 0.20755 0.0
H73 H 0.18485 0.11656 0.21238 0.0
H74 H 0.29033 0.13928 0.15051 0.0
H75 H 0.29319 0.12859 0.21566 0.0
H76 H 0.23933 0.07284 0.14965 0.0
H77 H 0.19953 0.08575 0.16572 0.0
H78 H 0.22966 0.05262 0.13311 0.0
H79 H 0.1905 0.06524 0.14893 0.0
H80 H 0.26016 0.0743 0.1301 0.0
H81 H 0.27784 0.09322 0.18365 0.0
H82 H 0.28086 0.06085 0.12587 0.0
H83 H 0.29828 0.07957 0.17832 0.0
H84 H 0.25665 0.09705 0.07812 0.0
H85 H 0.21348 0.09533 0.08296 0.0
H86 H 0.2222 0.05143 0.22182 0.0
H87 H 0.26336 0.04455 0.20386 0.0
Li88 Li 0.89061 0.22903 0.18219 0.0
Li89 Li 0.8916 0.25415 0.17787 0.0
Li90 Li 0.89961 0.23927 0.15109 0.0
Li91 Li 0.91237 0.24132 0.18224 0.0
C92 C 0.87388 0.23907 0.14444 0.0
N93 N 0.86046 0.23571 0.10724 0.0
C94 C 0.87024 0.25022 0.13258 0.0
C95 C 0.87064 0.22621 0.13746 0.0
C96 C 0.86348 0.24831 0.11379 0.0
C97 C 0.86385 0.22473 0.1186 0.0
C98 C 0.89464 0.24622 0.22192 0.0
C99 C 0.90047 0.25777 0.25362 0.0
N100 N 0.88912 0.25302 0.2627 0.0
C101 C 0.88309 0.24136 0.23164 0.0
C102 C 0.90347 0.25441 0.23305 0.0
C103 C 0.88045 0.24495 0.25224 0.0
C104 C 0.8867 0.20524 0.20547 0.0
N105 N 0.88055 0.21494 0.19411 0.0
C106 C 0.85912 0.2051 0.20026 0.0
C107 C 0.86705 0.2151 0.19144 0.0
C108 C 0.86514 0.19493 0.21211 0.0
C109 C 0.87912 0.19508 0.21474 0.0
H110 H 0.89747 0.20546 0.20741 0.0
H111 H 0.86243 0.22308 0.18264 0.0
C112 C 0.88219 0.27985 0.16788 0.0
N113 N 0.88208 0.27038 0.18306 0.0
C114 C 0.87433 0.29137 0.16977 0.0
C115 C 0.86682 0.28343 0.2033 0.0
C116 C 0.87468 0.272 0.20062 0.0
C117 C 0.86633 0.2932 0.18756 0.0
H118 H 0.88806 0.27824 0.15396 0.0
H119 H 0.87457 0.2643 0.21235 0.0
C120 C 0.91874 0.21912 0.15831 0.0
N121 N 0.94157 0.20867 0.14023 0.0
C122 C 0.927 0.22727 0.14613 0.0
C123 C 0.92208 0.20567 0.16128 0.0
C124 C 0.9385 0.2218 0.13713 0.0
C125 C 0.93367 0.20057 0.15201 0.0
C126 C 0.91588 0.26685 0.16482 0.0
C127 C 0.92459 0.27144 0.14936 0.0
C128 C 0.91499 0.27375 0.18366 0.0
C129 C 0.93235 0.28284 0.15309 0.0
C130 C 0.92289 0.28512 0.18679 0.0
N131 N 0.93135 0.28939 0.17158 0.0
C132 C 0.90196 0.24907 0.11062 0.0
C133 C 0.89974 0.22545 0.11216 0.0
C134 C 0.90239 0.2487 0.08897 0.0
N135 N 0.90061 0.23757 0.12168 0.0
C136 C 0.90003 0.2246 0.09047 0.0
C137 C 0.90132 0.23636 0.07855 0.0
H138 H 0.90258 0.25857 0.11866 0.0
H139 H 0.89862 0.21646 0.12141 0.0
C140 C 0.93086 0.23601 0.21403 0.0
N141 N 0.92965 0.24134 0.19468 0.0
C142 C 0.94327 0.2359 0.22404 0.0
C143 C 0.95305 0.24637 0.19372 0.0
C144 C 0.94043 0.24638 0.18438 0.0
C145 C 0.95457 0.24115 0.21386 0.0
H146 H 0.92216 0.23186 0.22171 0.0
H147 H 0.93927 0.25038 0.16889 0.0
O148 O 0.88085 0.24071 0.16257 0.0
O149 O 0.89743 0.24271 0.20181 0.0
O150 O 0.90743 0.22422 0.16738 0.0
O151 O 0.90836 0.25561 0.16141 0.0
H152 H 0.87274 0.26023 0.13771 0.0
H153 H 0.87352 0.21747 0.14634 0.0
H154 H 0.86068 0.25685 0.10438 0.0
H155 H 0.86135 0.21483 0.11293 0.0
H156 H 0.9072 0.26412 0.26238 0.0
H157 H 0.87615 0.235 0.22331 0.0
H158 H 0.91259 0.25807 0.22597 0.0
H159 H 0.87151 0.24132 0.2599 0.0
H160 H 0.84836 0.20549 0.19817 0.0
H161 H 0.88413 0.18739 0.22372 0.0
H162 H 0.87416 0.29848 0.15706 0.0
H163 H 0.86101 0.28447 0.21743 0.0
H164 H 0.9246 0.2377 0.14365 0.0
H165 H 0.91577 0.19924 0.17068 0.0
H166 H 0.94499 0.22799 0.12769 0.0
H167 H 0.93638 0.19017 0.15419 0.0
H168 H 0.92543 0.26617 0.1347 0.0
H169 H 0.90822 0.27041 0.19568 0.0
H170 H 0.93918 0.28647 0.1413 0.0
H171 H 0.9223 0.29056 0.20132 0.0
H172 H 0.90364 0.258 0.08051 0.0
H173 H 0.89901 0.21489 0.08314 0.0
H174 H 0.94406 0.2316 0.23945 0.0
H175 H 0.9615 0.25057 0.18538 0.0
Li176 Li 0.75928 0.90074 0.15028 0.0
Li177 Li 0.75593 0.91326 0.1808 0.0
Li178 Li 0.76881 0.8916 0.18221 0.0
Li179 Li 0.74382 0.89275 0.17642 0.0
C180 C 0.78356 0.91153 0.1541 0.0
N181 N 0.80372 0.91728 0.12599 0.0
C182 C 0.7821 0.92212 0.14004 0.0
C183 C 0.7953 0.90388 0.15387 0.0
C184 C 0.79239 0.92485 0.12594 0.0
C185 C 0.80537 0.90695 0.13955 0.0
C186 C 0.73613 0.92121 0.15914 0.0
C187 C 0.71982 0.93663 0.17307 0.0
N188 N 0.72434 0.94626 0.15985 0.0
C189 C 0.74057 0.93126 0.14564 0.0
C190 C 0.72563 0.9239 0.17292 0.0
C191 C 0.73449 0.94385 0.14625 0.0
C192 C 0.75058 0.90498 0.1094 0.0
N193 N 0.76144 0.90101 0.12057 0.0
C194 C 0.77355 0.89636 0.08928 0.0
C195 C 0.77277 0.89662 0.11097 0.0
C196 C 0.7625 0.90049 0.07737 0.0
C197 C 0.75092 0.90488 0.08773 0.0
H198 H 0.74153 0.90803 0.11731 0.0
H199 H 0.78112 0.89305 0.12008 0.0
C200 C 0.74884 0.93222 0.21155 0.0
N201 N 0.75528 0.93066 0.19309 0.0
C202 C 0.74827 0.94477 0.22106 0.0
C203 C 0.76103 0.9539 0.19244 0.0
C204 C 0.76136 0.94116 0.1835 0.0
C205 C 0.75445 0.95581 0.21152 0.0
H206 H 0.74423 0.92371 0.219 0.0
H207 H 0.76644 0.93967 0.16888 0.0
C208 C 0.75836 0.87437 0.14456 0.0
N209 N 0.75981 0.85921 0.10872 0.0
C210 C 0.7469 0.8723 0.13251 0.0
C211 C 0.77054 0.86867 0.1385 0.0
C212 C 0.74785 0.86462 0.11439 0.0
C213 C 0.77107 0.86104 0.1203 0.0
C214 C 0.74764 0.89263 0.21746 0.0
C215 C 0.75353 0.88227 0.22888 0.0
C216 C 0.7347 0.89692 0.22252 0.0
C217 C 0.74631 0.87626 0.245 0.0
C218 C 0.7278 0.89065 0.23872 0.0
N219 N 0.7337 0.88053 0.24952 0.0
C220 C 0.79222 0.88787 0.2064 0.0
C221 C 0.78188 0.86801 0.19403 0.0
C222 C 0.80191 0.88038 0.21692 0.0
N223 N 0.7825 0.88158 0.19525 0.0
C224 C 0.79131 0.86015 0.20434 0.0
C225 C 0.80145 0.86631 0.2161 0.0
H226 H 0.79233 0.89869 0.20727 0.0
H227 H 0.7739 0.8633 0.18531 0.0
C228 C 0.71615 0.88687 0.17189 0.0
N229 N 0.72786 0.8827 0.18056 0.0
C230 C 0.70459 0.87907 0.17383 0.0
C231 C 0.71735 0.86294 0.19371 0.0
C232 C 0.72869 0.87094 0.19112 0.0
C233 C 0.70513 0.86693 0.18485 0.0
H234 H 0.71586 0.89608 0.16308 0.0
H235 H 0.73823 0.86767 0.19728 0.0
O236 O 0.77365 0.90875 0.16818 0.0
O237 O 0.74219 0.90891 0.15914 0.0
O238 O 0.75769 0.88212 0.16204 0.0
O239 O 0.75452 0.89855 0.20149 0.0
H240 H 0.77303 0.92801 0.13971 0.0
H241 H 0.7966 0.89561 0.1645 0.0
H242 H 0.79135 0.93295 0.11488 0.0
H243 H 0.81449 0.90109 0.13918 0.0
H244 H 0.71174 0.93887 0.18374 0.0
H245 H 0.74874 0.9294 0.13496 0.0
H246 H 0.72208 0.91628 0.18351 0.0
H247 H 0.73788 0.95173 0.13596 0.0
H248 H 0.78259 0.89264 0.08195 0.0
H249 H 0.74219 0.90823 0.07919 0.0
H250 H 0.74328 0.94574 0.23594 0.0
H251 H 0.76581 0.96216 0.18443 0.0
H252 H 0.73741 0.8767 0.13698 0.0
H253 H 0.77953 0.87031 0.14756 0.0
H254 H 0.73908 0.863 0.10482 0.0
H255 H 0.78044 0.85665 0.11533 0.0
H256 H 0.76355 0.87887 0.22537 0.0
H257 H 0.72993 0.90485 0.2138 0.0
H258 H 0.75073 0.8682 0.2539 0.0
H259 H 0.71775 0.89379 0.24265 0.0
H260 H 0.80946 0.88552 0.226 0.0
H261 H 0.79067 0.84934 0.20313 0.0
H262 H 0.69536 0.88244 0.16669 0.0
H263 H 0.71824 0.85351 0.20193 0.0
Li264 Li 0.10827 0.76936 0.18196 0.0
Li265 Li 0.10754 0.74492 0.17578 0.0
Li266 Li 0.09929 0.76072 0.14941 0.0
Li267 Li 0.08668 0.75727 0.1809 0.0
C268 C 0.12643 0.76585 0.14816 0.0
N269 N 0.14369 0.78008 0.12288 0.0
C270 C 0.13717 0.75937 0.13852 0.0
C271 C 0.12443 0.77955 0.14491 0.0
C272 C 0.1458 0.76675 0.12581 0.0
C273 C 0.13328 0.78657 0.13209 0.0
C274 C 0.10386 0.75012 0.21995 0.0
C275 C 0.09738 0.73602 0.24871 0.0
N276 N 0.10843 0.74007 0.25937 0.0
C277 C 0.11509 0.75425 0.23128 0.0
C278 C 0.09487 0.74102 0.2288 0.0
C279 C 0.11725 0.74901 0.25115 0.0
C280 C 0.11196 0.79356 0.20412 0.0
N281 N 0.1183 0.7829 0.19543 0.0
C282 C 0.13953 0.79087 0.20719 0.0
C283 C 0.1318 0.78141 0.19669 0.0
C284 C 0.13328 0.80194 0.21662 0.0
C285 C 0.1193 0.80328 0.21484 0.0
H286 H 0.10117 0.7944 0.20297 0.0
H287 H 0.13655 0.77276 0.18974 0.0
C288 C 0.11799 0.72083 0.16154 0.0
N289 N 0.11723 0.72861 0.17884 0.0
C290 C 0.12587 0.70928 0.1615 0.0
C291 C 0.13179 0.71378 0.19728 0.0
C292 C 0.12386 0.72529 0.19657 0.0
C293 C 0.13304 0.70573 0.17947 0.0
H294 H 0.11269 0.72379 0.14759 0.0
H295 H 0.12336 0.73173 0.20999 0.0
C296 C 0.08014 0.78025 0.15879 0.0
N297 N 0.05728 0.79108 0.14133 0.0
C298 C 0.072 0.77245 0.14589 0.0
C299 C 0.07667 0.79356 0.16278 0.0
C300 C 0.06049 0.7781 0.13722 0.0
C301 C 0.06507 0.79886 0.15381 0.0
C302 C 0.08303 0.73273 0.16005 0.0
C303 C 0.07418 0.72975 0.14386 0.0
C304 C 0.08381 0.72422 0.17725 0.0
C305 C 0.0661 0.71836 0.14529 0.0
C306 C 0.07557 0.71292 0.1781 0.0
N307 N 0.06695 0.71025 0.16224 0.0
C308 C 0.09835 0.75189 0.10854 0.0
C309 C 0.0985 0.77557 0.11133 0.0
C310 C 0.0982 0.75269 0.08691 0.0
N311 N 0.09854 0.76321 0.12022 0.0
C312 C 0.09846 0.77686 0.08968 0.0
C313 C 0.0984 0.7653 0.07715 0.0
H314 H 0.09839 0.7422 0.11609 0.0
H315 H 0.09867 0.78442 0.12104 0.0
C316 C 0.06838 0.76139 0.21313 0.0
N317 N 0.06942 0.75674 0.19332 0.0
C318 C 0.05604 0.76132 0.2233 0.0
C319 C 0.04595 0.75207 0.19228 0.0
C320 C 0.05852 0.75221 0.18277 0.0
C321 C 0.04462 0.75661 0.21285 0.0
H322 H 0.07718 0.76517 0.221 0.0
H323 H 0.05953 0.74878 0.16693 0.0
O324 O 0.11783 0.75873 0.16049 0.0
O325 O 0.10155 0.75524 0.20054 0.0
O326 O 0.09145 0.77496 0.16756 0.0
O327 O 0.09095 0.74389 0.15887 0.0
H328 H 0.1388 0.74875 0.14084 0.0
H329 H 0.11609 0.7847 0.15211 0.0
H330 H 0.15417 0.76188 0.11826 0.0
H331 H 0.13184 0.79718 0.12941 0.0
H332 H 0.09051 0.72895 0.25571 0.0
H333 H 0.12212 0.76133 0.22475 0.0
H334 H 0.08598 0.73792 0.22049 0.0
H335 H 0.12593 0.75205 0.26003 0.0
H336 H 0.15028 0.78953 0.20789 0.0
H337 H 0.11407 0.81157 0.22206 0.0
H338 H 0.12649 0.70329 0.14749 0.0
H339 H 0.13732 0.71151 0.21134 0.0
H340 H 0.07452 0.76213 0.1426 0.0
H341 H 0.08287 0.79974 0.17272 0.0
H342 H 0.0541 0.77217 0.12724 0.0
H343 H 0.06225 0.80915 0.15677 0.0
H344 H 0.0735 0.73623 0.1304 0.0
H345 H 0.09074 0.72627 0.18973 0.0
H346 H 0.05916 0.71596 0.13293 0.0
H347 H 0.07606 0.70626 0.19134 0.0
H348 H 0.0979 0.74352 0.07794 0.0
H349 H 0.09876 0.78677 0.08286 0.0
H350 H 0.0554 0.7651 0.23906 0.0
H351 H 0.03739 0.74832 0.18372 0.0
Li352 Li 0.24268 0.9133 0.31554 0.0
Li353 Li 0.23988 0.90256 0.34908 0.0
Li354 Li 0.25475 0.89267 0.32105 0.0
Li355 Li 0.23009 0.89188 0.31765 0.0
C356 C 0.26324 0.92163 0.33728 0.0
N357 N 0.27584 0.94626 0.33738 0.0
C358 C 0.25955 0.93138 0.35178 0.0
C359 C 0.27343 0.92433 0.32298 0.0
C360 C 0.26602 0.94379 0.35155 0.0
C361 C 0.27965 0.93686 0.32323 0.0
C362 C 0.21328 0.9106 0.33988 0.0
C363 C 0.19467 0.90038 0.35779 0.0
N364 N 0.18854 0.91252 0.35895 0.0
C365 C 0.20675 0.92296 0.3411 0.0
C366 C 0.20716 0.8992 0.34817 0.0
C367 C 0.19427 0.92374 0.35087 0.0
C368 C 0.24795 0.93193 0.28312 0.0
N369 N 0.24313 0.93046 0.30274 0.0
C370 C 0.23839 0.95388 0.30497 0.0
C371 C 0.23838 0.94108 0.31372 0.0
C372 C 0.24334 0.95573 0.28472 0.0
C373 C 0.2482 0.94456 0.27378 0.0
H374 H 0.25151 0.92332 0.27463 0.0
H375 H 0.23464 0.9396 0.32933 0.0
C376 C 0.24759 0.89767 0.38971 0.0
N377 N 0.23861 0.9048 0.37834 0.0
C378 C 0.2476 0.89854 0.41135 0.0
C379 C 0.22918 0.91421 0.40923 0.0
C380 C 0.22958 0.91309 0.38758 0.0
C381 C 0.23828 0.90687 0.42139 0.0
H382 H 0.25471 0.89123 0.3819 0.0
H383 H 0.22275 0.91891 0.37822 0.0
C384 C 0.24954 0.89254 0.27938 0.0
N385 N 0.26197 0.8819 0.24471 0.0
C386 C 0.24325 0.88246 0.26786 0.0
C387 C 0.26211 0.89727 0.27318 0.0
C388 C 0.24971 0.8772 0.2504 0.0
C389 C 0.26824 0.89173 0.25564 0.0
C390 C 0.23908 0.87194 0.34929 0.0
C391 C 0.24543 0.86021 0.34264 0.0
C392 C 0.23052 0.87149 0.3665 0.0
C393 C 0.24291 0.84819 0.35306 0.0
C394 C 0.22828 0.85927 0.37652 0.0
N395 N 0.23445 0.84797 0.36964 0.0
C396 C 0.28153 0.88547 0.32899 0.0
C397 C 0.27094 0.87205 0.30338 0.0
C398 C 0.2931 0.8776 0.32788 0.0
N399 N 0.27074 0.88252 0.31693 0.0
C400 C 0.28238 0.86412 0.30145 0.0
C401 C 0.29356 0.86675 0.31401 0.0
H402 H 0.28103 0.89372 0.33986 0.0
H403 H 0.26209 0.86958 0.29453 0.0
C404 C 0.20488 0.88765 0.29842 0.0
N405 N 0.21573 0.88146 0.30684 0.0
C406 C 0.19445 0.88008 0.28991 0.0
C407 C 0.2066 0.85995 0.29892 0.0
C408 C 0.2168 0.86789 0.30708 0.0
C409 C 0.19524 0.86603 0.29016 0.0
H410 H 0.20437 0.89848 0.29822 0.0
H411 H 0.2257 0.86322 0.31322 0.0
O412 O 0.25682 0.90954 0.33696 0.0
O413 O 0.22554 0.90972 0.33044 0.0
O414 O 0.24337 0.89778 0.29654 0.0
O415 O 0.24157 0.88384 0.33937 0.0
H416 H 0.25166 0.92943 0.36293 0.0
H417 H 0.27645 0.91684 0.31175 0.0
H418 H 0.26321 0.95147 0.36258 0.0
H419 H 0.2875 0.93913 0.31218 0.0
H420 H 0.18983 0.89162 0.36427 0.0
H421 H 0.21129 0.93188 0.33463 0.0
H422 H 0.21192 0.88953 0.34698 0.0
H423 H 0.18913 0.93325 0.352 0.0
H424 H 0.23468 0.96225 0.31401 0.0
H425 H 0.25192 0.94551 0.25803 0.0
H426 H 0.25471 0.89261 0.42015 0.0
H427 H 0.22196 0.92088 0.41637 0.0
H428 H 0.2335 0.87874 0.27236 0.0
H429 H 0.26715 0.905 0.28198 0.0
H430 H 0.24497 0.86938 0.24137 0.0
H431 H 0.278 0.89523 0.25075 0.0
H432 H 0.25212 0.86034 0.32944 0.0
H433 H 0.22573 0.88046 0.37224 0.0
H434 H 0.24769 0.83903 0.34797 0.0
H435 H 0.22166 0.85879 0.38982 0.0
H436 H 0.30153 0.87987 0.33787 0.0
H437 H 0.28228 0.85566 0.29089 0.0
H438 H 0.18584 0.88515 0.2833 0.0
H439 H 0.20774 0.84916 0.29899 0.0
Li440 Li 0.10775 0.23061 0.31949 0.0
Li441 Li 0.10665 0.25434 0.32583 0.0
Li442 Li 0.09748 0.23883 0.3509 0.0
Li443 Li 0.0865 0.24216 0.31819 0.0
C444 C 0.12422 0.23261 0.35442 0.0
N445 N 0.14 0.2162 0.37885 0.0
C446 C 0.13598 0.23757 0.36335 0.0
C447 C 0.12049 0.21929 0.3579 0.0
C448 C 0.14382 0.22912 0.37565 0.0
C449 C 0.1286 0.21116 0.3703 0.0
C450 C 0.11186 0.24655 0.28489 0.0
C451 C 0.11851 0.24866 0.24897 0.0
N452 N 0.1315 0.24995 0.25505 0.0
C453 C 0.12528 0.24791 0.29077 0.0
C454 C 0.10844 0.24694 0.26383 0.0
C455 C 0.13506 0.24961 0.27546 0.0
C456 C 0.11204 0.20741 0.29522 0.0
N457 N 0.11828 0.21694 0.3068 0.0
C458 C 0.13974 0.208 0.29799 0.0
C459 C 0.13186 0.21735 0.30843 0.0
C460 C 0.13364 0.19816 0.28556 0.0
C461 C 0.11957 0.19784 0.28443 0.0
H462 H 0.10123 0.20742 0.29402 0.0
H463 H 0.13662 0.22511 0.31752 0.0
C464 C 0.12357 0.2741 0.34065 0.0
N465 N 0.11621 0.27074 0.32368 0.0
C466 C 0.13211 0.28513 0.34007 0.0
C467 C 0.12494 0.28942 0.30477 0.0
C468 C 0.11649 0.27828 0.30606 0.0
C469 C 0.13311 0.29278 0.3218 0.0
H470 H 0.12302 0.26796 0.3545 0.0
H471 H 0.11051 0.27539 0.29277 0.0
C472 C 0.07892 0.21921 0.3393 0.0
N473 N 0.05541 0.20808 0.35404 0.0
C474 C 0.07019 0.22683 0.3515 0.0
C475 C 0.0757 0.20592 0.33461 0.0
C476 C 0.05835 0.22103 0.3588 0.0
C477 C 0.06376 0.20048 0.34221 0.0
C478 C 0.08325 0.26752 0.33556 0.0
C479 C 0.07753 0.2754 0.35118 0.0
C480 C 0.08278 0.27186 0.3149 0.0
C481 C 0.07143 0.28752 0.34586 0.0
C482 C 0.07659 0.28404 0.31022 0.0
N483 N 0.07109 0.29156 0.32567 0.0
C484 C 0.09638 0.24788 0.39138 0.0
C485 C 0.0932 0.22438 0.38917 0.0
C486 C 0.09513 0.24746 0.41295 0.0
N487 N 0.09536 0.23647 0.38001 0.0
C488 C 0.09186 0.2235 0.41078 0.0
C489 C 0.09279 0.23516 0.42296 0.0
H490 H 0.09826 0.25731 0.38363 0.0
H491 H 0.09252 0.21543 0.37974 0.0
C492 C 0.06879 0.23785 0.28488 0.0
N493 N 0.0696 0.24263 0.30463 0.0
C494 C 0.05651 0.2377 0.27449 0.0
C495 C 0.04613 0.24734 0.305 0.0
C496 C 0.05862 0.24739 0.31474 0.0
C497 C 0.04496 0.24241 0.28463 0.0
H498 H 0.07769 0.23406 0.2773 0.0
H499 H 0.05953 0.25117 0.33043 0.0
O500 O 0.11645 0.24083 0.34238 0.0
O501 O 0.10206 0.24482 0.29953 0.0
O502 O 0.09055 0.22463 0.33184 0.0
O503 O 0.08924 0.25563 0.34065 0.0
H504 H 0.13902 0.24785 0.36077 0.0
H505 H 0.11146 0.21524 0.35108 0.0
H506 H 0.15295 0.23282 0.38266 0.0
H507 H 0.12583 0.20084 0.37313 0.0
H508 H 0.116 0.24898 0.23262 0.0
H509 H 0.12814 0.2477 0.30698 0.0
H510 H 0.09809 0.24592 0.25902 0.0
H511 H 0.14547 0.25068 0.2798 0.0
H512 H 0.15053 0.20852 0.29958 0.0
H513 H 0.11445 0.19053 0.27486 0.0
H514 H 0.13803 0.28752 0.35369 0.0
H515 H 0.12546 0.295 0.29035 0.0
H516 H 0.0725 0.23712 0.35533 0.0
H517 H 0.08236 0.19989 0.32517 0.0
H518 H 0.0515 0.22682 0.36825 0.0
H519 H 0.06114 0.19021 0.33869 0.0
H520 H 0.0778 0.27216 0.36724 0.0
H521 H 0.08709 0.2659 0.30257 0.0
H522 H 0.06696 0.29372 0.35779 0.0
H523 H 0.07615 0.28752 0.2943 0.0
H524 H 0.09621 0.25667 0.42171 0.0
H525 H 0.08999 0.21382 0.41782 0.0
H526 H 0.056 0.23369 0.25885 0.0
H527 H 0.03751 0.2512 0.31327 0.0
Li528 Li 0.74341 0.10722 0.32585 0.0
Li529 Li 0.76809 0.10702 0.31817 0.0
Li530 Li 0.75543 0.08665 0.31964 0.0
Li531 Li 0.75998 0.09821 0.35125 0.0
C532 C 0.75203 0.09517 0.28166 0.0
N533 N 0.75066 0.08045 0.24533 0.0
C534 C 0.76337 0.09376 0.2691 0.0
C535 C 0.73996 0.0892 0.27566 0.0
C536 C 0.76248 0.08626 0.2508 0.0
C537 C 0.73949 0.08177 0.25727 0.0
C538 C 0.76596 0.12525 0.35224 0.0
C539 C 0.78727 0.13129 0.3672 0.0
N540 N 0.78149 0.1422 0.37615 0.0
C541 C 0.76022 0.13651 0.36159 0.0
C542 C 0.77959 0.1226 0.35506 0.0
C543 C 0.76824 0.14496 0.37362 0.0
C544 C 0.72272 0.12369 0.34032 0.0
N545 N 0.72765 0.11755 0.3231 0.0
C546 C 0.71051 0.12722 0.302 0.0
C547 C 0.72182 0.11912 0.30417 0.0
C548 C 0.70528 0.13394 0.31944 0.0
C549 C 0.71152 0.13201 0.33883 0.0
H550 H 0.72767 0.12231 0.35514 0.0
H551 H 0.72604 0.11418 0.29072 0.0
C552 C 0.79346 0.11136 0.29924 0.0
N553 N 0.78166 0.11709 0.30488 0.0
C554 C 0.80321 0.11894 0.28899 0.0
C555 C 0.78849 0.13815 0.29091 0.0
C556 C 0.77903 0.13019 0.30101 0.0
C557 C 0.80075 0.13253 0.2846 0.0
H558 H 0.79521 0.10087 0.30246 0.0
H559 H 0.76954 0.13445 0.30577 0.0
C560 C 0.73149 0.08301 0.34522 0.0
N561 N 0.70874 0.06772 0.35141 0.0
C562 C 0.73102 0.07365 0.36138 0.0
C563 C 0.72031 0.0847 0.33237 0.0
C564 C 0.71945 0.06598 0.3642 0.0
C565 C 0.70893 0.07685 0.3357 0.0
C566 C 0.77878 0.07902 0.34105 0.0
C567 C 0.77047 0.06965 0.35074 0.0
C568 C 0.79263 0.07693 0.34069 0.0
C569 C 0.77614 0.05832 0.35994 0.0
C570 C 0.79792 0.06547 0.35007 0.0
N571 N 0.78964 0.05648 0.35942 0.0
C572 C 0.76591 0.06509 0.29709 0.0
C573 C 0.74323 0.0617 0.30654 0.0
C574 C 0.76618 0.05287 0.28657 0.0
N575 N 0.75455 0.06928 0.30678 0.0
C576 C 0.74305 0.04939 0.29627 0.0
C577 C 0.75463 0.04485 0.28606 0.0
H578 H 0.77476 0.07136 0.29732 0.0
H579 H 0.73423 0.06521 0.31391 0.0
C580 C 0.7524 0.09678 0.39283 0.0
N581 N 0.7633 0.09678 0.38018 0.0
C582 C 0.75395 0.09562 0.4143 0.0
C583 C 0.77796 0.09474 0.40938 0.0
C584 C 0.77593 0.09581 0.38795 0.0
C585 C 0.76686 0.09457 0.42283 0.0
H586 H 0.74249 0.09772 0.3862 0.0
H587 H 0.78443 0.09588 0.37752 0.0
O588 O 0.75283 0.10214 0.29993 0.0
O589 O 0.75821 0.11683 0.34056 0.0
O590 O 0.74265 0.09079 0.34251 0.0
O591 O 0.7735 0.09026 0.33202 0.0
H592 H 0.7728 0.09827 0.27353 0.0
H593 H 0.73112 0.0901 0.28528 0.0
H594 H 0.7712 0.08501 0.24099 0.0
H595 H 0.73025 0.07699 0.25254 0.0
H596 H 0.79783 0.12935 0.36954 0.0
H597 H 0.74967 0.13867 0.35957 0.0
H598 H 0.78418 0.11388 0.34804 0.0
H599 H 0.76394 0.15372 0.38095 0.0
H600 H 0.70596 0.12823 0.2868 0.0
H601 H 0.70804 0.13714 0.35264 0.0
H602 H 0.81245 0.11416 0.28421 0.0
H603 H 0.78624 0.14862 0.2882 0.0
H604 H 0.73948 0.07234 0.3717 0.0
H605 H 0.72047 0.09185 0.31978 0.0
H606 H 0.71897 0.05868 0.3766 0.0
H607 H 0.70025 0.07799 0.32578 0.0
H608 H 0.75976 0.07108 0.35111 0.0
H609 H 0.79921 0.08412 0.3333 0.0
H610 H 0.76981 0.05098 0.36748 0.0
H611 H 0.80862 0.06373 0.34993 0.0
H612 H 0.77535 0.0497 0.27904 0.0
H613 H 0.73386 0.04363 0.29597 0.0
H614 H 0.74515 0.09576 0.42415 0.0
H615 H 0.78807 0.09389 0.41535 0.0
Li616 Li 0.91284 0.75722 0.31763 0.0
Li617 Li 0.90031 0.75951 0.34891 0.0
Li618 Li 0.89192 0.74465 0.3221 0.0
Li619 Li 0.89132 0.76985 0.31785 0.0
C620 C 0.91625 0.7317 0.33602 0.0
N621 N 0.93179 0.709 0.33124 0.0
C622 C 0.9252 0.72788 0.35165 0.0
C623 C 0.91511 0.72391 0.31806 0.0
C624 C 0.933 0.71639 0.34891 0.0
C625 C 0.92307 0.71249 0.31591 0.0
C626 C 0.91968 0.77932 0.34146 0.0
C627 C 0.93479 0.79769 0.34809 0.0
N628 N 0.9427 0.78939 0.3595 0.0
C629 C 0.92796 0.77097 0.35328 0.0
C630 C 0.9231 0.79279 0.33885 0.0
C631 C 0.93956 0.77625 0.36226 0.0
C632 C 0.93119 0.7628 0.28583 0.0
N633 N 0.93004 0.75705 0.30491 0.0
C634 C 0.95334 0.75156 0.30503 0.0
C635 C 0.94082 0.7516 0.31469 0.0
C636 C 0.95476 0.75716 0.28513 0.0
C637 C 0.94349 0.76286 0.27551 0.0
H638 H 0.92251 0.76732 0.2786 0.0
H639 H 0.93976 0.74736 0.33002 0.0
C640 C 0.90292 0.75001 0.38964 0.0
N641 N 0.9015 0.76138 0.37824 0.0
C642 C 0.90379 0.75071 0.41125 0.0
C643 C 0.90153 0.7748 0.40899 0.0
C644 C 0.90083 0.77364 0.38737 0.0
C645 C 0.90309 0.76322 0.42118 0.0
H646 H 0.90327 0.7404 0.38191 0.0
H647 H 0.89968 0.7825 0.37785 0.0
C648 C 0.89625 0.75245 0.27786 0.0
N649 N 0.89315 0.74532 0.23661 0.0
C650 C 0.8857 0.75776 0.26616 0.0
C651 C 0.90528 0.7436 0.2685 0.0
C652 C 0.88428 0.75401 0.24535 0.0
C653 C 0.90353 0.7401 0.24765 0.0
C654 C 0.87455 0.76099 0.35547 0.0
C655 C 0.87058 0.75053 0.36853 0.0
C656 C 0.87167 0.77423 0.36097 0.0
C657 C 0.86385 0.7535 0.38701 0.0
C658 C 0.8649 0.77678 0.37957 0.0
N659 N 0.86117 0.76645 0.39211 0.0
C660 C 0.88059 0.71986 0.33261 0.0
C661 C 0.87589 0.72671 0.29811 0.0
C662 C 0.87229 0.70867 0.33038 0.0
N663 N 0.88203 0.7287 0.31671 0.0
C664 C 0.86768 0.71557 0.29508 0.0
C665 C 0.86551 0.70651 0.31149 0.0
H666 H 0.88557 0.72172 0.34726 0.0
H667 H 0.87705 0.7339 0.28575 0.0
C668 C 0.8873 0.79497 0.29803 0.0
N669 N 0.88125 0.78396 0.30616 0.0
C670 C 0.87957 0.80521 0.28929 0.0
C671 C 0.85963 0.7925 0.2976 0.0
C672 C 0.86773 0.78253 0.30606 0.0
C673 C 0.86553 0.80405 0.28907 0.0
H674 H 0.89811 0.79578 0.29831 0.0
H675 H 0.86324 0.77357 0.31248 0.0
O676 O 0.9086 0.74296 0.33852 0.0
O677 O 0.90828 0.77442 0.33245 0.0
O678 O 0.89777 0.75607 0.29825 0.0
O679 O 0.88151 0.75832 0.33763 0.0
H680 H 0.9262 0.7338 0.36567 0.0
H681 H 0.90811 0.72661 0.30597 0.0
H682 H 0.94003 0.71336 0.36082 0.0
H683 H 0.9223 0.70638 0.30207 0.0
H684 H 0.93756 0.8081 0.34619 0.0
H685 H 0.92548 0.76053 0.35551 0.0
H686 H 0.91679 0.79938 0.32976 0.0
H687 H 0.94605 0.76989 0.37142 0.0
H688 H 0.96179 0.74703 0.31295 0.0
H689 H 0.94422 0.76748 0.26031 0.0
H690 H 0.90478 0.74154 0.42012 0.0
H691 H 0.90102 0.78463 0.41608 0.0
H692 H 0.87863 0.76465 0.27312 0.0
H693 H 0.91365 0.73957 0.27715 0.0
H694 H 0.87614 0.758 0.23615 0.0
H695 H 0.91044 0.73326 0.24023 0.0
H696 H 0.87279 0.74024 0.36454 0.0
H697 H 0.8748 0.78245 0.35114 0.0
H698 H 0.86078 0.74551 0.39733 0.0
H699 H 0.86267 0.78698 0.38409 0.0
H700 H 0.87084 0.70212 0.34359 0.0
H701 H 0.8629 0.71422 0.28011 0.0
H702 H 0.8845 0.81398 0.28297 0.0
H703 H 0.84887 0.79108 0.29741 0.0
Li704 Li 0.74298 0.89043 0.82051 0.0
Li705 Li 0.7572 0.89954 0.84801 0.0
Li706 Li 0.75389 0.91153 0.81534 0.0
Li707 Li 0.76738 0.89111 0.81668 0.0
C708 C 0.73378 0.91882 0.83892 0.0
N709 N 0.72159 0.94357 0.84247 0.0
C710 C 0.73647 0.92699 0.85607 0.0
C711 C 0.72485 0.92321 0.82362 0.0
C712 C 0.7302 0.93947 0.85758 0.0
C713 C 0.71881 0.93577 0.82568 0.0
C714 C 0.75728 0.87365 0.85477 0.0
C715 C 0.76964 0.86462 0.8838 0.0
N716 N 0.75801 0.85993 0.89208 0.0
C717 C 0.74545 0.8687 0.86353 0.0
C718 C 0.76948 0.87156 0.86493 0.0
C719 C 0.74603 0.86179 0.88241 0.0
C720 C 0.72996 0.86624 0.81254 0.0
N721 N 0.72772 0.87954 0.81525 0.0
C722 C 0.7041 0.87632 0.81181 0.0
C723 C 0.71513 0.88472 0.81486 0.0
C724 C 0.70606 0.86244 0.80943 0.0
C725 C 0.71924 0.85747 0.80969 0.0
H726 H 0.74009 0.86241 0.81305 0.0
H727 H 0.71364 0.89534 0.8171 0.0
C728 C 0.77071 0.90442 0.88635 0.0
N729 N 0.7589 0.90094 0.87735 0.0
C730 C 0.77196 0.90446 0.908 0.0
C731 C 0.74878 0.89757 0.91058 0.0
C732 C 0.74797 0.89776 0.88894 0.0
C733 C 0.76093 0.90082 0.92037 0.0
H734 H 0.77921 0.90699 0.87676 0.0
H735 H 0.73866 0.89517 0.88131 0.0
C736 C 0.74706 0.88932 0.78087 0.0
N737 N 0.7331 0.87448 0.75179 0.0
C738 C 0.75217 0.87709 0.77386 0.0
C739 C 0.73487 0.89403 0.77303 0.0
C740 C 0.74496 0.86974 0.75915 0.0
C741 C 0.72795 0.88637 0.75837 0.0
C742 C 0.78404 0.91068 0.8269 0.0
C743 C 0.78792 0.92017 0.81208 0.0
C744 C 0.79381 0.90314 0.8372 0.0
C745 C 0.80152 0.9219 0.80773 0.0
C746 C 0.8073 0.90516 0.83238 0.0
N747 N 0.81085 0.91442 0.81786 0.0
C748 C 0.75544 0.93977 0.81476 0.0
C749 C 0.74945 0.92987 0.78257 0.0
C750 C 0.75483 0.95255 0.806 0.0
N751 N 0.75269 0.92879 0.80302 0.0
C752 C 0.74879 0.94244 0.77314 0.0
C753 C 0.75152 0.95399 0.78488 0.0
H754 H 0.75824 0.93857 0.83091 0.0
H755 H 0.7475 0.92096 0.77353 0.0
C756 C 0.78475 0.86916 0.81102 0.0
N757 N 0.7822 0.88192 0.80481 0.0
C758 C 0.79498 0.8618 0.80164 0.0
C759 C 0.79986 0.88089 0.77978 0.0
C760 C 0.78941 0.88781 0.78939 0.0
C761 C 0.8027 0.86763 0.78572 0.0
H762 H 0.77859 0.86457 0.82285 0.0
H763 H 0.78692 0.89784 0.78437 0.0
O764 O 0.73998 0.90666 0.83699 0.0
O765 O 0.75688 0.88075 0.83658 0.0
O766 O 0.75378 0.8965 0.79569 0.0
O767 O 0.77076 0.90876 0.83128 0.0
H768 H 0.74342 0.92381 0.86799 0.0
H769 H 0.7228 0.9171 0.8101 0.0
H770 H 0.73222 0.94592 0.87073 0.0
H771 H 0.71197 0.93934 0.81387 0.0
H772 H 0.779 0.86301 0.8919 0.0
H773 H 0.73589 0.87036 0.85604 0.0
H774 H 0.77872 0.87539 0.85844 0.0
H775 H 0.73695 0.85797 0.88943 0.0
H776 H 0.69417 0.88067 0.81142 0.0
H777 H 0.72129 0.84685 0.80833 0.0
H778 H 0.78151 0.90698 0.91495 0.0
H779 H 0.73999 0.89492 0.91956 0.0
H780 H 0.76154 0.87324 0.77984 0.0
H781 H 0.73068 0.90339 0.77848 0.0
H782 H 0.74877 0.86023 0.75365 0.0
H783 H 0.71847 0.88984 0.75228 0.0
H784 H 0.78051 0.92605 0.80389 0.0
H785 H 0.79099 0.89569 0.8486 0.0
H786 H 0.80466 0.92917 0.79624 0.0
H787 H 0.81496 0.89933 0.84013 0.0
H788 H 0.75722 0.96117 0.81552 0.0
H789 H 0.74611 0.94311 0.75685 0.0
H790 H 0.79651 0.85151 0.8064 0.0
H791 H 0.80558 0.88587 0.76775 0.0
Li792 Li 0.09957 0.75954 0.84811 0.0
Li793 Li 0.10817 0.744 0.82184 0.0
Li794 Li 0.1078 0.76903 0.81606 0.0
Li795 Li 0.087 0.75602 0.81479 0.0
C796 C 0.12616 0.75938 0.85363 0.0
N797 N 0.14209 0.76127 0.88864 0.0
C798 C 0.13244 0.74797 0.86162 0.0
C799 C 0.12813 0.77178 0.86326 0.0
C800 C 0.14042 0.74913 0.87938 0.0
C801 C 0.13617 0.77251 0.881 0.0
C802 C 0.08561 0.73037 0.83893 0.0
C803 C 0.07523 0.71108 0.82307 0.0
N804 N 0.07471 0.70499 0.84197 0.0
C805 C 0.08483 0.72397 0.85824 0.0
C806 C 0.08067 0.72393 0.82123 0.0
C807 C 0.07934 0.71112 0.85943 0.0
C808 C 0.09267 0.77302 0.88579 0.0
N809 N 0.09828 0.76185 0.87736 0.0
C810 C 0.10377 0.75344 0.91104 0.0
C811 C 0.10356 0.75204 0.88949 0.0
C812 C 0.09826 0.76494 0.92021 0.0
C813 C 0.09249 0.77475 0.90737 0.0
H814 H 0.08845 0.78062 0.87577 0.0
H815 H 0.1078 0.74319 0.88236 0.0
C816 C 0.12766 0.72873 0.80177 0.0
N817 N 0.11846 0.72827 0.81733 0.0
C818 C 0.13645 0.71804 0.79867 0.0
C819 C 0.12599 0.7065 0.82748 0.0
C820 C 0.11745 0.71746 0.83009 0.0
C821 C 0.13577 0.70681 0.81178 0.0
H822 H 0.12836 0.73755 0.79205 0.0
H823 H 0.11038 0.7175 0.84277 0.0
C824 C 0.08854 0.78636 0.82694 0.0
N825 N 0.08495 0.81341 0.81975 0.0
C826 C 0.07888 0.79071 0.81272 0.0
C827 C 0.09625 0.79577 0.8377 0.0
C828 C 0.07725 0.80443 0.80926 0.0
C829 C 0.09433 0.8094 0.83378 0.0
C830 C 0.10137 0.75002 0.77672 0.0
C831 C 0.10206 0.75914 0.76025 0.0
C832 C 0.09935 0.73643 0.77252 0.0
C833 C 0.10035 0.75455 0.73989 0.0
C834 C 0.09771 0.73223 0.75196 0.0
N835 N 0.09821 0.74131 0.7362 0.0
C836 C 0.13064 0.78463 0.80843 0.0
C837 C 0.11152 0.79159 0.78947 0.0
C838 C 0.13841 0.79457 0.79909 0.0
N839 N 0.11747 0.78334 0.80353 0.0
C840 C 0.11889 0.80173 0.77982 0.0
C841 C 0.13256 0.80329 0.78451 0.0
H842 H 0.1352 0.77776 0.81932 0.0
H843 H 0.10109 0.7902 0.78553 0.0
C844 C 0.05942 0.74986 0.81364 0.0
N845 N 0.06981 0.7547 0.80222 0.0
C846 C 0.04668 0.74876 0.80482 0.0
C847 C 0.05555 0.75783 0.7728 0.0
C848 C 0.06808 0.75882 0.78226 0.0
C849 C 0.04466 0.75272 0.7841 0.0
H850 H 0.06103 0.74684 0.82959 0.0
H851 H 0.07636 0.7631 0.77377 0.0
O852 O 0.11812 0.75841 0.83646 0.0
O853 O 0.09101 0.74294 0.83752 0.0
O854 O 0.09033 0.77296 0.83045 0.0
O855 O 0.10308 0.75436 0.79674 0.0
H856 H 0.13107 0.73831 0.85432 0.0
H857 H 0.12345 0.78071 0.85716 0.0
H858 H 0.14527 0.74037 0.88582 0.0
H859 H 0.13771 0.78203 0.8887 0.0
H860 H 0.07138 0.70599 0.80948 0.0
H861 H 0.08847 0.72886 0.87214 0.0
H862 H 0.08084 0.72885 0.80629 0.0
H863 H 0.07875 0.70602 0.87425 0.0
H864 H 0.10813 0.74556 0.92045 0.0
H865 H 0.08815 0.78376 0.91391 0.0
H866 H 0.14381 0.71863 0.78632 0.0
H867 H 0.12531 0.69814 0.83816 0.0
H868 H 0.07276 0.78357 0.80438 0.0
H869 H 0.10368 0.79258 0.84888 0.0
H870 H 0.06986 0.80793 0.79822 0.0
H871 H 0.10029 0.81679 0.8419 0.0
H872 H 0.10377 0.76966 0.76315 0.0
H873 H 0.09923 0.72915 0.78495 0.0
H874 H 0.10074 0.76153 0.72702 0.0
H875 H 0.0961 0.72174 0.74851 0.0
H876 H 0.14896 0.79518 0.80287 0.0
H877 H 0.11392 0.80827 0.76881 0.0
H878 H 0.03853 0.74474 0.81405 0.0
H879 H 0.05435 0.76129 0.75694 0.0
Li880 Li 0.24089 0.0994 0.84828 0.0
Li881 Li 0.25617 0.10835 0.82191 0.0
Li882 Li 0.23102 0.10823 0.81661 0.0
Li883 Li 0.24397 0.08735 0.8144 0.0
C884 C 0.2404 0.12608 0.85433 0.0
N885 N 0.2373 0.14211 0.88903 0.0
C886 C 0.25157 0.13201 0.86365 0.0
C887 C 0.22763 0.12847 0.86245 0.0
C888 C 0.2498 0.14004 0.88124 0.0
C889 C 0.22628 0.13655 0.88006 0.0
C890 C 0.27011 0.08593 0.83713 0.0
C891 C 0.28929 0.07682 0.81925 0.0
N892 N 0.29588 0.07584 0.8377 0.0
C893 C 0.27702 0.08473 0.85594 0.0
C894 C 0.27624 0.08186 0.81866 0.0
C895 C 0.29007 0.07965 0.8559 0.0
C896 C 0.22809 0.09148 0.88603 0.0
N897 N 0.23898 0.09755 0.87753 0.0
C898 C 0.24815 0.10177 0.91119 0.0
C899 C 0.24898 0.10252 0.88958 0.0
C900 C 0.237 0.09561 0.92054 0.0
C901 C 0.22689 0.09039 0.90763 0.0
H902 H 0.22038 0.08742 0.87607 0.0
H903 H 0.25761 0.10714 0.88238 0.0
C904 C 0.27203 0.12728 0.80128 0.0
N905 N 0.2719 0.11865 0.81761 0.0
C906 C 0.28272 0.13613 0.7986 0.0
C907 C 0.29306 0.12686 0.8294 0.0
C908 C 0.28214 0.11824 0.83154 0.0
C909 C 0.29333 0.13611 0.81295 0.0
H910 H 0.26363 0.12755 0.79066 0.0
H911 H 0.28158 0.11162 0.84479 0.0
C912 C 0.21376 0.08843 0.82848 0.0
N913 N 0.18656 0.08401 0.82433 0.0
C914 C 0.20906 0.07862 0.8148 0.0
C915 C 0.20464 0.09588 0.84024 0.0
C916 C 0.19527 0.07656 0.81288 0.0
C917 C 0.19093 0.09354 0.83786 0.0
C918 C 0.2484 0.10196 0.77627 0.0
C919 C 0.23811 0.1025 0.76155 0.0
C920 C 0.26161 0.10007 0.7697 0.0
C921 C 0.24117 0.10079 0.74052 0.0
C922 C 0.26427 0.09842 0.74853 0.0
N923 N 0.25408 0.09878 0.7345 0.0
C924 C 0.21759 0.13193 0.8072 0.0
C925 C 0.20683 0.11272 0.79349 0.0
C926 C 0.20801 0.14027 0.79817 0.0
N927 N 0.21683 0.11844 0.80477 0.0
C928 C 0.19693 0.12067 0.78439 0.0
C929 C 0.19746 0.13468 0.78655 0.0
H930 H 0.22582 0.13625 0.81584 0.0
H931 H 0.20665 0.10201 0.79121 0.0
C932 C 0.25062 0.05994 0.81208 0.0
N933 N 0.24506 0.07027 0.80134 0.0
C934 C 0.25146 0.04723 0.80312 0.0
C935 C 0.24065 0.05597 0.77235 0.0
C936 C 0.23998 0.06849 0.78193 0.0
C937 C 0.24645 0.04513 0.78296 0.0
H938 H 0.25437 0.06157 0.82765 0.0
H939 H 0.23514 0.07669 0.77403 0.0
O940 O 0.24194 0.11806 0.83726 0.0
O941 O 0.25736 0.09096 0.83692 0.0
O942 O 0.22723 0.09059 0.83053 0.0
O943 O 0.24557 0.10372 0.79692 0.0
H944 H 0.26151 0.13034 0.85749 0.0
H945 H 0.21887 0.12414 0.85522 0.0
H946 H 0.25837 0.14461 0.88871 0.0
H947 H 0.21646 0.13842 0.88658 0.0
H948 H 0.29416 0.07364 0.80506 0.0
H949 H 0.27238 0.08774 0.87041 0.0
H950 H 0.27093 0.08244 0.80406 0.0
H951 H 0.29556 0.07873 0.87032 0.0
H952 H 0.2561 0.10612 0.92043 0.0
H953 H 0.21823 0.08535 0.91409 0.0
H954 H 0.28257 0.14308 0.78566 0.0
H955 H 0.30091 0.12671 0.84104 0.0
H956 H 0.21598 0.07268 0.80572 0.0
H957 H 0.20811 0.10341 0.85105 0.0
H958 H 0.19149 0.06904 0.80228 0.0
H959 H 0.18376 0.09928 0.84678 0.0
H960 H 0.22784 0.10408 0.76633 0.0
H961 H 0.26976 0.10004 0.78077 0.0
H962 H 0.23329 0.10106 0.72898 0.0
H963 H 0.27445 0.09691 0.74324 0.0
H964 H 0.20908 0.15101 0.79988 0.0
H965 H 0.18896 0.11587 0.77573 0.0
H966 H 0.25604 0.03914 0.81182 0.0
H967 H 0.23638 0.05472 0.75698 0.0
Li968 Li 0.89147 0.25553 0.82239 0.0
Li969 Li 0.90036 0.24047 0.84911 0.0
Li970 Li 0.91228 0.24288 0.81503 0.0
Li971 Li 0.89132 0.23039 0.81814 0.0
C972 C 0.91507 0.26894 0.83704 0.0
N973 N 0.92736 0.29376 0.8371 0.0
C974 C 0.91694 0.27586 0.85572 0.0
C975 C 0.91961 0.27458 0.81844 0.0
C976 C 0.92312 0.28842 0.85542 0.0
C977 C 0.92577 0.28714 0.81878 0.0
C978 C 0.87409 0.24174 0.8562 0.0
C979 C 0.86432 0.23017 0.88543 0.0
N980 N 0.85926 0.24198 0.89249 0.0
C981 C 0.86871 0.25374 0.86365 0.0
C982 C 0.87179 0.22983 0.86707 0.0
C983 C 0.86127 0.25366 0.88205 0.0
C984 C 0.87001 0.26939 0.80569 0.0
N985 N 0.88111 0.2712 0.81758 0.0
C986 C 0.87504 0.29398 0.82413 0.0
C987 C 0.88382 0.28321 0.82667 0.0
C988 C 0.86328 0.29226 0.81244 0.0
C989 C 0.8609 0.27983 0.80292 0.0
H990 H 0.86807 0.25968 0.79883 0.0
H991 H 0.89251 0.28435 0.83647 0.0
C992 C 0.9072 0.22771 0.88744 0.0
N993 N 0.90225 0.23898 0.8784 0.0
C994 C 0.90795 0.22674 0.9091 0.0
C995 C 0.89857 0.24902 0.9116 0.0
C996 C 0.89811 0.24958 0.88997 0.0
C997 C 0.90354 0.23749 0.92151 0.0
H998 H 0.91053 0.21946 0.87785 0.0
H999 H 0.89422 0.25841 0.88234 0.0
C1000 C 0.89715 0.24875 0.77753 0.0
N1001 N 0.89926 0.25737 0.73679 0.0
C1002 C 0.89638 0.23955 0.76118 0.0
C1003 C 0.89869 0.26238 0.7731 0.0
C1004 C 0.89757 0.24409 0.74071 0.0
C1005 C 0.89982 0.26653 0.75242 0.0
C1006 C 0.91012 0.21289 0.82903 0.0
C1007 C 0.91933 0.20782 0.81468 0.0
C1008 C 0.90214 0.20408 0.8405 0.0
C1009 C 0.92026 0.19397 0.81182 0.0
C1010 C 0.90335 0.1903 0.83717 0.0
N1011 N 0.9123 0.18557 0.82301 0.0
C1012 C 0.93996 0.24828 0.81222 0.0
C1013 C 0.93055 0.23855 0.78194 0.0
C1014 C 0.95258 0.24871 0.80287 0.0
N1015 N 0.92925 0.24339 0.80159 0.0
C1016 C 0.94298 0.23878 0.772 0.0
C1017 C 0.9542 0.24394 0.78246 0.0
H1018 H 0.9387 0.25184 0.82797 0.0
H1019 H 0.92201 0.23426 0.77412 0.0
C1020 C 0.86833 0.21437 0.81297 0.0
N1021 N 0.88125 0.21595 0.80679 0.0
C1022 C 0.86037 0.20438 0.80413 0.0
C1023 C 0.8792 0.19775 0.78285 0.0
C1024 C 0.88679 0.20789 0.79207 0.0
C1025 C 0.86575 0.19598 0.78871 0.0
H1026 H 0.86411 0.22106 0.82444 0.0
H1027 H 0.89704 0.20946 0.78726 0.0
O1028 O 0.90898 0.25665 0.83711 0.0
O1029 O 0.88159 0.24165 0.83839 0.0
O1030 O 0.89587 0.24447 0.79767 0.0
O1031 O 0.90899 0.22642 0.8319 0.0
H1032 H 0.91362 0.27161 0.8703 0.0
H1033 H 0.91859 0.26924 0.80393 0.0
H1034 H 0.92457 0.29391 0.86975 0.0
H1035 H 0.92932 0.29161 0.80448 0.0
H1036 H 0.86254 0.22104 0.89408 0.0
H1037 H 0.87037 0.26305 0.85544 0.0
H1038 H 0.8758 0.22044 0.86146 0.0
H1039 H 0.85712 0.26289 0.88807 0.0
H1040 H 0.87712 0.30336 0.83195 0.0
H1041 H 0.85197 0.27815 0.7937 0.0
H1042 H 0.91203 0.21774 0.91603 0.0
H1043 H 0.89483 0.25746 0.92045 0.0
H1044 H 0.895 0.229 0.76425 0.0
H1045 H 0.89886 0.26972 0.78543 0.0
H1046 H 0.89712 0.23705 0.72793 0.0
H1047 H 0.90107 0.27704 0.74881 0.0
H1048 H 0.92566 0.21449 0.80578 0.0
H1049 H 0.89501 0.20784 0.85173 0.0
H1050 H 0.9273 0.1899 0.80069 0.0
H1051 H 0.89716 0.18337 0.84583 0.0
H1052 H 0.96095 0.25283 0.81148 0.0
H1053 H 0.94383 0.23471 0.75644 0.0
H1054 H 0.84999 0.20355 0.80887 0.0
H1055 H 0.88381 0.19143 0.77118 0.0
Li1056 Li 0.76785 0.1079 0.68411 0.0
Li1057 Li 0.75492 0.08717 0.68454 0.0
Li1058 Li 0.7595 0.09891 0.65066 0.0
Li1059 Li 0.74306 0.10756 0.67578 0.0
C1060 C 0.78591 0.08891 0.66764 0.0
N1061 N 0.81318 0.08571 0.66196 0.0
C1062 C 0.79293 0.0793 0.6791 0.0
C1063 C 0.79273 0.09672 0.65305 0.0
C1064 C 0.80673 0.07788 0.67608 0.0
C1065 C 0.80652 0.095 0.65046 0.0
C1066 C 0.75048 0.09835 0.72182 0.0
C1067 C 0.73618 0.08849 0.74789 0.0
N1068 N 0.74679 0.08779 0.76112 0.0
C1069 C 0.7612 0.09767 0.73574 0.0
C1070 C 0.73783 0.09385 0.72799 0.0
C1071 C 0.75915 0.09225 0.75552 0.0
C1072 C 0.77995 0.13155 0.69794 0.0
N1073 N 0.78161 0.11805 0.69721 0.0
C1074 C 0.80233 0.11975 0.71567 0.0
C1075 C 0.79244 0.11204 0.70602 0.0
C1076 C 0.80099 0.13375 0.71639 0.0
C1077 C 0.78959 0.13964 0.7074 0.0
H1078 H 0.77109 0.13604 0.69123 0.0
H1079 H 0.79335 0.10127 0.70579 0.0
C1080 C 0.74376 0.06152 0.69225 0.0
N1081 N 0.75359 0.07022 0.69789 0.0
C1082 C 0.74275 0.04902 0.70188 0.0
C1083 C 0.76206 0.05463 0.72283 0.0
C1084 C 0.76269 0.06701 0.71279 0.0
C1085 C 0.752 0.04543 0.71739 0.0
H1086 H 0.73676 0.06422 0.68017 0.0
H1087 H 0.77051 0.07404 0.71678 0.0
C1088 C 0.76125 0.12752 0.64865 0.0
N1089 N 0.76815 0.14817 0.62204 0.0
C1090 C 0.75129 0.13508 0.63885 0.0
C1091 C 0.77472 0.13068 0.64524 0.0
C1092 C 0.75498 0.14541 0.62535 0.0
C1093 C 0.77801 0.1411 0.63167 0.0
C1094 C 0.72981 0.08801 0.65452 0.0
C1095 C 0.72644 0.08802 0.63343 0.0
C1096 C 0.71986 0.08582 0.66943 0.0
C1097 C 0.7131 0.08602 0.62761 0.0
C1098 C 0.70663 0.08387 0.66299 0.0
N1099 N 0.70355 0.08403 0.64239 0.0
C1100 C 0.77136 0.08771 0.61412 0.0
C1101 C 0.75616 0.1056 0.60871 0.0
C1102 C 0.77367 0.0867 0.59272 0.0
N1103 N 0.76286 0.09719 0.62165 0.0
C1104 C 0.75822 0.10502 0.58731 0.0
C1105 C 0.76713 0.09552 0.57906 0.0
H1106 H 0.77633 0.08092 0.6247 0.0
H1107 H 0.749 0.11262 0.61499 0.0
C1108 C 0.72354 0.12339 0.69612 0.0
N1109 N 0.72689 0.11756 0.67775 0.0
C1110 C 0.71222 0.13159 0.69747 0.0
C1111 C 0.70785 0.12731 0.6611 0.0
C1112 C 0.71933 0.11937 0.6604 0.0
C1113 C 0.70426 0.13376 0.67972 0.0
H1114 H 0.72985 0.12194 0.7096 0.0
H1115 H 0.72238 0.11489 0.64586 0.0
O1116 O 0.77241 0.09048 0.67054 0.0
O1117 O 0.75233 0.10349 0.70231 0.0
O1118 O 0.75779 0.11737 0.66194 0.0
O1119 O 0.74281 0.09007 0.6605 0.0
H1120 H 0.78781 0.07303 0.69027 0.0
H1121 H 0.78741 0.10391 0.64362 0.0
H1122 H 0.81229 0.07054 0.68495 0.0
H1123 H 0.81191 0.10101 0.63924 0.0
H1124 H 0.72646 0.0849 0.75283 0.0
H1125 H 0.77104 0.10117 0.73126 0.0
H1126 H 0.72937 0.09452 0.71755 0.0
H1127 H 0.76739 0.09157 0.76639 0.0
H1128 H 0.81096 0.11479 0.72236 0.0
H1129 H 0.788 0.15036 0.70797 0.0
H1130 H 0.73477 0.04229 0.69731 0.0
H1131 H 0.76954 0.0522 0.73444 0.0
H1132 H 0.74082 0.13292 0.64147 0.0
H1133 H 0.78258 0.12529 0.65321 0.0
H1134 H 0.74736 0.15124 0.61752 0.0
H1135 H 0.7884 0.1436 0.62886 0.0
H1136 H 0.73403 0.08955 0.62167 0.0
H1137 H 0.72231 0.08567 0.68578 0.0
H1138 H 0.71034 0.08606 0.61134 0.0
H1139 H 0.69882 0.08224 0.67437 0.0
H1140 H 0.78058 0.0792 0.58696 0.0
H1141 H 0.75268 0.11175 0.57728 0.0
H1142 H 0.71002 0.13651 0.71207 0.0
H1143 H 0.70196 0.12848 0.64708 0.0
Li1144 Li 0.89091 0.76985 0.68196 0.0
Li1145 Li 0.91154 0.75654 0.68424 0.0
Li1146 Li 0.89929 0.75947 0.65053 0.0
Li1147 Li 0.89028 0.74465 0.67736 0.0
C1148 C 0.91105 0.78655 0.66961 0.0
N1149 N 0.9162 0.81363 0.67353 0.0
C1150 C 0.92117 0.79102 0.68294 0.0
C1151 C 0.90366 0.79584 0.65808 0.0
C1152 C 0.9236 0.80475 0.68474 0.0
C1153 C 0.90638 0.80949 0.66034 0.0
C1154 C 0.89702 0.7527 0.7227 0.0
C1155 C 0.90062 0.73696 0.75061 0.0
N1156 N 0.90027 0.74721 0.76453 0.0
C1157 C 0.8965 0.76306 0.73732 0.0
C1158 C 0.89893 0.73952 0.72942 0.0
C1159 C 0.89824 0.76009 0.75838 0.0
C1160 C 0.86776 0.78453 0.69084 0.0
N1161 N 0.88125 0.78451 0.69354 0.0
C1162 C 0.88002 0.80453 0.71385 0.0
C1163 C 0.88745 0.79418 0.70491 0.0
C1164 C 0.86601 0.80478 0.71147 0.0
C1165 C 0.85991 0.79458 0.69972 0.0
H1166 H 0.86304 0.77656 0.68211 0.0
H1167 H 0.89814 0.79375 0.70737 0.0
C1168 C 0.93889 0.74956 0.6863 0.0
N1169 N 0.92865 0.75523 0.69713 0.0
C1170 C 0.95157 0.74838 0.69529 0.0
C1171 C 0.94298 0.75911 0.72626 0.0
C1172 C 0.93051 0.76014 0.71662 0.0
C1173 C 0.9537 0.75313 0.71559 0.0
H1174 H 0.93719 0.74594 0.67067 0.0
H1175 H 0.92239 0.76507 0.7246 0.0
C1176 C 0.87275 0.76033 0.6446 0.0
N1177 N 0.85706 0.7632 0.6095 0.0
C1178 C 0.86663 0.74914 0.63563 0.0
C1179 C 0.87073 0.773 0.63592 0.0
C1180 C 0.85877 0.7508 0.61783 0.0
C1181 C 0.86281 0.77424 0.61812 0.0
C1182 C 0.91246 0.7302 0.66217 0.0
C1183 C 0.91344 0.72306 0.64354 0.0
C1184 C 0.91666 0.72425 0.68072 0.0
C1185 C 0.91838 0.70996 0.64385 0.0
C1186 C 0.92156 0.71114 0.68039 0.0
N1187 N 0.9223 0.70432 0.66212 0.0
C1188 C 0.90677 0.77191 0.61233 0.0
C1189 C 0.89605 0.7508 0.60956 0.0
C1190 C 0.9077 0.77287 0.5907 0.0
N1191 N 0.90095 0.76102 0.62124 0.0
C1192 C 0.89668 0.75137 0.58793 0.0
C1193 C 0.9026 0.7625 0.57818 0.0
H1194 H 0.91076 0.77981 0.62201 0.0
H1195 H 0.89156 0.74222 0.61709 0.0
C1196 C 0.87186 0.72857 0.69911 0.0
N1197 N 0.87998 0.72899 0.68215 0.0
C1198 C 0.86342 0.71762 0.70236 0.0
C1199 C 0.8719 0.70771 0.67067 0.0
C1200 C 0.88014 0.71887 0.66802 0.0
C1201 C 0.86328 0.70705 0.68792 0.0
H1202 H 0.87175 0.73689 0.70989 0.0
H1203 H 0.88633 0.71965 0.6543 0.0
O1204 O 0.90853 0.77313 0.66768 0.0
O1205 O 0.89526 0.75545 0.70202 0.0
O1206 O 0.88064 0.75888 0.66185 0.0
O1207 O 0.90755 0.74301 0.66214 0.0
H1208 H 0.92706 0.78397 0.69184 0.0
H1209 H 0.89589 0.79255 0.64756 0.0
H1210 H 0.93136 0.80836 0.69507 0.0
H1211 H 0.90069 0.8168 0.6516 0.0
H1212 H 0.90215 0.7268 0.756 0.0
H1213 H 0.8949 0.77329 0.73246 0.0
H1214 H 0.89894 0.73132 0.71845 0.0
H1215 H 0.89798 0.76802 0.76983 0.0
H1216 H 0.88521 0.8122 0.72259 0.0
H1217 H 0.84914 0.79412 0.69784 0.0
H1218 H 0.95957 0.74369 0.68655 0.0
H1219 H 0.94429 0.76318 0.74173 0.0
H1220 H 0.86803 0.73927 0.64222 0.0
H1221 H 0.87522 0.78178 0.64286 0.0
H1222 H 0.85406 0.74221 0.61063 0.0
H1223 H 0.86122 0.78398 0.61116 0.0
H1224 H 0.91036 0.72755 0.629 0.0
H1225 H 0.91628 0.72973 0.69517 0.0
H1226 H 0.91912 0.70429 0.62956 0.0
H1227 H 0.92483 0.70642 0.69465 0.0
H1228 H 0.91253 0.78153 0.58388 0.0
H1229 H 0.89244 0.74322 0.57895 0.0
H1230 H 0.85697 0.71749 0.7159 0.0
H1231 H 0.8719 0.69993 0.65893 0.0
Li1232 Li 0.24354 0.91133 0.68504 0.0
Li1233 Li 0.23173 0.89078 0.68276 0.0
Li1234 Li 0.25521 0.88983 0.67894 0.0
Li1235 Li 0.24021 0.89892 0.65044 0.0
C1236 C 0.25412 0.89905 0.71956 0.0
N1237 N 0.27211 0.90616 0.75037 0.0
C1238 C 0.25074 0.89744 0.74053 0.0
C1239 C 0.26666 0.90429 0.71434 0.0
C1240 C 0.25997 0.9011 0.75586 0.0
C1241 C 0.27562 0.90781 0.7301 0.0
C1242 C 0.21366 0.90918 0.67215 0.0
C1243 C 0.19083 0.90843 0.65997 0.0
N1244 N 0.18649 0.91131 0.67953 0.0
C1245 C 0.209 0.91225 0.69208 0.0
C1246 C 0.20454 0.90734 0.65591 0.0
C1247 C 0.19521 0.91323 0.69551 0.0
C1248 C 0.24879 0.93919 0.68571 0.0
N1249 N 0.2445 0.92859 0.69718 0.0
C1250 C 0.24099 0.94264 0.72673 0.0
C1251 C 0.24052 0.93009 0.71725 0.0
C1252 C 0.24545 0.95381 0.71536 0.0
C1253 C 0.24939 0.95196 0.69456 0.0
H1254 H 0.25165 0.93772 0.66965 0.0
H1255 H 0.23691 0.92154 0.7259 0.0
C1256 C 0.21756 0.87812 0.71491 0.0
N1257 N 0.21683 0.88121 0.69437 0.0
C1258 C 0.20734 0.87083 0.72443 0.0
C1259 C 0.19577 0.86992 0.69145 0.0
C1260 C 0.20619 0.87733 0.68259 0.0
C1261 C 0.1963 0.86657 0.71264 0.0
H1262 H 0.22619 0.88115 0.72384 0.0
H1263 H 0.20585 0.87983 0.66626 0.0
C1264 C 0.26834 0.91109 0.6535 0.0
N1265 N 0.29145 0.91968 0.63388 0.0
C1266 C 0.2718 0.90602 0.63396 0.0
C1267 C 0.27657 0.92066 0.66294 0.0
C1268 C 0.28355 0.91045 0.62434 0.0
C1269 C 0.28823 0.92484 0.65281 0.0
C1270 C 0.2359 0.86833 0.66244 0.0
C1271 C 0.23882 0.85969 0.67893 0.0
C1272 C 0.22659 0.86446 0.64734 0.0
C1273 C 0.23227 0.84734 0.68015 0.0
C1274 C 0.22028 0.85202 0.6491 0.0
N1275 N 0.22321 0.8438 0.66534 0.0
C1276 C 0.27246 0.8725 0.7015 0.0
C1277 C 0.28002 0.87799 0.66764 0.0
C1278 C 0.28333 0.86388 0.70437 0.0
N1279 N 0.27101 0.87935 0.68335 0.0
C1280 C 0.29106 0.86954 0.66986 0.0
C1281 C 0.29274 0.86222 0.68833 0.0
H1282 H 0.26499 0.87344 0.71358 0.0
H1283 H 0.27841 0.8831 0.65309 0.0
C1284 C 0.23518 0.91291 0.6129 0.0
N1285 N 0.23837 0.90084 0.62132 0.0
C1286 C 0.23466 0.91446 0.5913 0.0
C1287 C 0.24051 0.89106 0.58761 0.0
C1288 C 0.24095 0.88999 0.60921 0.0
C1289 C 0.23748 0.90345 0.57835 0.0
H1290 H 0.2333 0.92139 0.62298 0.0
H1291 H 0.24365 0.88057 0.61636 0.0
O1292 O 0.24506 0.89571 0.7044 0.0
O1293 O 0.22709 0.90806 0.6685 0.0
O1294 O 0.25671 0.90708 0.66298 0.0
O1295 O 0.24202 0.88056 0.66123 0.0
H1296 H 0.24105 0.89353 0.74497 0.0
H1297 H 0.26953 0.90548 0.69831 0.0
H1298 H 0.25745 0.89993 0.77212 0.0
H1299 H 0.28537 0.91184 0.72621 0.0
H1300 H 0.18364 0.90697 0.64759 0.0
H1301 H 0.21595 0.91369 0.70479 0.0
H1302 H 0.20803 0.905 0.64038 0.0
H1303 H 0.19144 0.91549 0.71089 0.0
H1304 H 0.23798 0.94355 0.74285 0.0
H1305 H 0.25268 0.96032 0.68511 0.0
H1306 H 0.20825 0.86827 0.74074 0.0
H1307 H 0.1874 0.86687 0.68184 0.0
H1308 H 0.26561 0.8986 0.62642 0.0
H1309 H 0.274 0.92488 0.67791 0.0
H1310 H 0.28638 0.90653 0.60928 0.0
H1311 H 0.2947 0.93221 0.65998 0.0
H1312 H 0.24591 0.86257 0.69083 0.0
H1313 H 0.22409 0.87109 0.63461 0.0
H1314 H 0.23436 0.8406 0.69291 0.0
H1315 H 0.21299 0.84894 0.63761 0.0
H1316 H 0.28425 0.85844 0.71887 0.0
H1317 H 0.2979 0.86832 0.65692 0.0
H1318 H 0.23243 0.92422 0.58484 0.0
H1319 H 0.24257 0.88227 0.57828 0.0
Li1320 Li 0.08808 0.24404 0.68404 0.0
Li1321 Li 0.10928 0.23284 0.68306 0.0
Li1322 Li 0.10821 0.25686 0.67864 0.0
Li1323 Li 0.1002 0.24221 0.65162 0.0
C1324 C 0.0999 0.25506 0.71929 0.0
N1325 N 0.09302 0.27253 0.75089 0.0
C1326 C 0.10486 0.2531 0.73938 0.0
C1327 C 0.0914 0.2659 0.71529 0.0
C1328 C 0.10128 0.26204 0.75514 0.0
C1329 C 0.08805 0.27462 0.73147 0.0
C1330 C 0.08675 0.21663 0.67804 0.0
C1331 C 0.0735 0.19645 0.67637 0.0
N1332 N 0.07491 0.19488 0.69727 0.0
C1333 C 0.08808 0.21481 0.6995 0.0
C1334 C 0.07942 0.20737 0.66636 0.0
C1335 C 0.08201 0.20376 0.70893 0.0
C1336 C 0.06004 0.24747 0.68442 0.0
N1337 N 0.07073 0.24393 0.69629 0.0
C1338 C 0.05656 0.24014 0.72564 0.0
C1339 C 0.06923 0.24028 0.71653 0.0
C1340 C 0.0453 0.24378 0.71382 0.0
C1341 C 0.04716 0.2475 0.69293 0.0
H1342 H 0.06154 0.25024 0.66833 0.0
H1343 H 0.07788 0.2375 0.72566 0.0
C1344 C 0.12684 0.22215 0.7123 0.0
N1345 N 0.1198 0.21893 0.69493 0.0
C1346 C 0.13454 0.21248 0.72239 0.0
C1347 C 0.12788 0.19641 0.69622 0.0
C1348 C 0.12012 0.20635 0.6868 0.0
C1349 C 0.13512 0.19943 0.71433 0.0
H1350 H 0.12644 0.23226 0.71831 0.0
H1351 H 0.1143 0.20401 0.6731 0.0
C1352 C 0.09131 0.26843 0.64871 0.0
N1353 N 0.09175 0.2888 0.61962 0.0
C1354 C 0.10338 0.27221 0.63939 0.0
C1355 C 0.07947 0.27502 0.64326 0.0
C1356 C 0.1034 0.28253 0.62471 0.0
C1357 C 0.0799 0.28529 0.62851 0.0
C1358 C 0.12746 0.23595 0.65111 0.0
C1359 C 0.14078 0.23991 0.64837 0.0
C1360 C 0.12303 0.2239 0.64242 0.0
C1361 C 0.14946 0.23171 0.63704 0.0
C1362 C 0.13202 0.21598 0.6312 0.0
N1363 N 0.14494 0.22001 0.62877 0.0
C1364 C 0.13114 0.27146 0.68715 0.0
C1365 C 0.11182 0.2852 0.68503 0.0
C1366 C 0.13927 0.28264 0.69019 0.0
N1367 N 0.11774 0.27293 0.6844 0.0
C1368 C 0.11958 0.29669 0.6881 0.0
C1369 C 0.13354 0.2955 0.69054 0.0
H1370 H 0.13554 0.26156 0.68661 0.0
H1371 H 0.10111 0.2861 0.68282 0.0
C1372 C 0.08763 0.23362 0.61447 0.0
N1373 N 0.09844 0.24021 0.62229 0.0
C1374 C 0.08603 0.23228 0.59297 0.0
C1375 C 0.10668 0.24455 0.58808 0.0
C1376 C 0.10794 0.24554 0.60961 0.0
C1377 C 0.09558 0.23791 0.57951 0.0
H1378 H 0.08022 0.22951 0.62496 0.0
H1379 H 0.11651 0.25062 0.61619 0.0
O1380 O 0.10334 0.24632 0.70376 0.0
O1381 O 0.09257 0.22736 0.66835 0.0
O1382 O 0.09097 0.25833 0.6631 0.0
O1383 O 0.11887 0.24393 0.66214 0.0
H1384 H 0.1114 0.24473 0.74278 0.0
H1385 H 0.08735 0.26756 0.69993 0.0
H1386 H 0.10506 0.26064 0.77075 0.0
H1387 H 0.08149 0.28304 0.72858 0.0
H1388 H 0.0678 0.18921 0.66752 0.0
H1389 H 0.09374 0.22182 0.7088 0.0
H1390 H 0.07832 0.20862 0.64973 0.0
H1391 H 0.08296 0.20224 0.72552 0.0
H1392 H 0.05562 0.23739 0.74187 0.0
H1393 H 0.03874 0.25022 0.68319 0.0
H1394 H 0.14012 0.21521 0.73621 0.0
H1395 H 0.12803 0.18641 0.68966 0.0
H1396 H 0.11265 0.26727 0.64343 0.0
H1397 H 0.07004 0.27222 0.65036 0.0
H1398 H 0.11267 0.28555 0.61738 0.0
H1399 H 0.0708 0.29047 0.62414 0.0
H1400 H 0.14436 0.24923 0.65491 0.0
H1401 H 0.11276 0.22068 0.64425 0.0
H1402 H 0.1598 0.23465 0.63482 0.0
H1403 H 0.12872 0.20662 0.62441 0.0
H1404 H 0.14998 0.28122 0.69165 0.0
H1405 H 0.11472 0.30639 0.68849 0.0
H1406 H 0.07728 0.22716 0.58694 0.0
H1407 H 0.11436 0.24886 0.57824 0.0
Li1408 Li 0.72981 0.60808 0.6822 0.0
Li1409 Li 0.7547 0.6084 0.67643 0.0
Li1410 Li 0.73907 0.59928 0.64987 0.0
Li1411 Li 0.74269 0.58774 0.68189 0.0
C1412 C 0.73305 0.62627 0.64811 0.0
N1413 N 0.71847 0.64306 0.62255 0.0
C1414 C 0.73918 0.63739 0.63897 0.0
C1415 C 0.71952 0.62366 0.64424 0.0
C1416 C 0.73163 0.64577 0.62609 0.0
C1417 C 0.71232 0.63227 0.63127 0.0
C1418 C 0.74474 0.59702 0.72051 0.0
C1419 C 0.75625 0.58384 0.74639 0.0
N1420 N 0.74501 0.58389 0.75835 0.0
C1421 C 0.73334 0.59704 0.73314 0.0
C1422 C 0.75633 0.59048 0.72726 0.0
C1423 C 0.73366 0.59032 0.7522 0.0
C1424 C 0.70399 0.61166 0.69962 0.0
N1425 N 0.71559 0.61789 0.69425 0.0
C1426 C 0.70729 0.63888 0.70649 0.0
C1427 C 0.71743 0.63121 0.69747 0.0
C1428 C 0.69521 0.63273 0.71238 0.0
C1429 C 0.69361 0.61893 0.70886 0.0
H1430 H 0.70287 0.60103 0.69688 0.0
H1431 H 0.72681 0.63585 0.6931 0.0
C1432 C 0.77618 0.62413 0.66309 0.0
N1433 N 0.77034 0.61871 0.68021 0.0
C1434 C 0.78736 0.63241 0.66514 0.0
C1435 C 0.78644 0.62913 0.70239 0.0
C1436 C 0.77523 0.62096 0.69961 0.0
C1437 C 0.79259 0.6351 0.68502 0.0
H1438 H 0.77197 0.62219 0.64788 0.0
H1439 H 0.77033 0.61652 0.71293 0.0
C1440 C 0.72033 0.57973 0.65895 0.0
N1441 N 0.71062 0.55668 0.64052 0.0
C1442 C 0.7291 0.57084 0.64911 0.0
C1443 C 0.70663 0.5769 0.65941 0.0
C1444 C 0.724 0.55924 0.63989 0.0
C1445 C 0.70191 0.5652 0.65 0.0
C1446 C 0.76766 0.58462 0.65838 0.0
C1447 C 0.76945 0.57581 0.6417 0.0
C1448 C 0.77781 0.58604 0.67319 0.0
C1449 C 0.78133 0.56847 0.64024 0.0
C1450 C 0.78955 0.57852 0.67117 0.0
N1451 N 0.79105 0.56996 0.65488 0.0
C1452 C 0.7481 0.59786 0.60908 0.0
C1453 C 0.72442 0.59688 0.61181 0.0
C1454 C 0.74738 0.59659 0.58753 0.0
N1455 N 0.73675 0.59785 0.62071 0.0
C1456 C 0.72321 0.5958 0.59022 0.0
C1457 C 0.73482 0.59554 0.57787 0.0
H1458 H 0.75774 0.59885 0.6166 0.0
H1459 H 0.71555 0.59694 0.62146 0.0
C1460 C 0.73254 0.56729 0.70698 0.0
N1461 N 0.74317 0.57034 0.69461 0.0
C1462 C 0.73196 0.555 0.71729 0.0
C1463 C 0.75296 0.5489 0.70114 0.0
C1464 C 0.75325 0.56139 0.69146 0.0
C1465 C 0.74227 0.54564 0.71435 0.0
H1466 H 0.7245 0.57445 0.70888 0.0
H1467 H 0.76152 0.56381 0.68144 0.0
O1468 O 0.74034 0.61792 0.6606 0.0
O1469 O 0.74452 0.60335 0.70164 0.0
O1470 O 0.72505 0.59117 0.6681 0.0
O1471 O 0.75611 0.59194 0.65994 0.0
H1472 H 0.74967 0.63951 0.64178 0.0
H1473 H 0.71464 0.61503 0.65106 0.0
H1474 H 0.73624 0.65442 0.61891 0.0
H1475 H 0.70184 0.63037 0.62811 0.0
H1476 H 0.76511 0.57864 0.75172 0.0
H1477 H 0.7243 0.6021 0.72824 0.0
H1478 H 0.76526 0.59039 0.71776 0.0
H1479 H 0.72489 0.59018 0.76206 0.0
H1480 H 0.709 0.64946 0.70919 0.0
H1481 H 0.68442 0.61384 0.71306 0.0
H1482 H 0.79162 0.63695 0.65135 0.0
H1483 H 0.79022 0.63079 0.71796 0.0
H1484 H 0.73972 0.57283 0.6486 0.0
H1485 H 0.6997 0.5837 0.66693 0.0
H1486 H 0.73068 0.55227 0.63224 0.0
H1487 H 0.69132 0.56289 0.65023 0.0
H1488 H 0.76172 0.57459 0.63005 0.0
H1489 H 0.77665 0.5928 0.68615 0.0
H1490 H 0.78283 0.56158 0.62745 0.0
H1491 H 0.79746 0.57949 0.68257 0.0
H1492 H 0.75653 0.59663 0.57848 0.0
H1493 H 0.71336 0.59498 0.58328 0.0
H1494 H 0.72347 0.55275 0.72719 0.0
H1495 H 0.76109 0.54191 0.69855 0.0
Li1496 Li 0.39156 0.7533 0.67431 0.0
Li1497 Li 0.39197 0.72955 0.68009 0.0
Li1498 Li 0.41268 0.74226 0.68093 0.0
Li1499 Li 0.40137 0.73861 0.64857 0.0
C1500 C 0.38827 0.74513 0.71588 0.0
N1501 N 0.37025 0.74818 0.74813 0.0
C1502 C 0.37453 0.74555 0.71181 0.0
C1503 C 0.39286 0.7463 0.73632 0.0
C1504 C 0.36557 0.74708 0.72833 0.0
C1505 C 0.38359 0.74783 0.75242 0.0
C1506 C 0.37506 0.73066 0.64572 0.0
C1507 C 0.37206 0.70901 0.6297 0.0
N1508 N 0.36019 0.71321 0.62161 0.0
C1509 C 0.36283 0.73476 0.63727 0.0
C1510 C 0.37972 0.71767 0.64193 0.0
C1511 C 0.35546 0.72579 0.62512 0.0
C1512 C 0.37238 0.77179 0.66205 0.0
N1513 N 0.38104 0.769 0.67776 0.0
C1514 C 0.37278 0.7875 0.69759 0.0
C1515 C 0.38153 0.77668 0.69522 0.0
C1516 C 0.36341 0.79033 0.68188 0.0
C1517 C 0.36341 0.78243 0.66381 0.0
H1518 H 0.37231 0.76557 0.64829 0.0
H1519 H 0.38848 0.77421 0.70754 0.0
C1520 C 0.38919 0.70559 0.70338 0.0
N1521 N 0.38235 0.71514 0.69267 0.0
C1522 C 0.38229 0.69517 0.71323 0.0
C1523 C 0.36149 0.70456 0.70063 0.0
C1524 C 0.36876 0.71483 0.69123 0.0
C1525 C 0.36825 0.69457 0.71185 0.0
H1526 H 0.4 0.70614 0.70438 0.0
H1527 H 0.3635 0.72265 0.68296 0.0
C1528 C 0.41388 0.76809 0.66403 0.0
N1529 N 0.42436 0.79292 0.67391 0.0
C1530 C 0.4183 0.77668 0.64829 0.0
C1531 C 0.41479 0.77214 0.6848 0.0
C1532 C 0.42357 0.78919 0.6536 0.0
C1533 C 0.42012 0.78472 0.68947 0.0
C1534 C 0.42116 0.72009 0.65896 0.0
C1535 C 0.42956 0.72865 0.64771 0.0
C1536 C 0.4249 0.70674 0.66197 0.0
C1537 C 0.44158 0.7237 0.63967 0.0
C1538 C 0.437 0.70217 0.65368 0.0
N1539 N 0.44502 0.71067 0.64279 0.0
C1540 C 0.43117 0.73669 0.7124 0.0
C1541 C 0.44001 0.75022 0.68536 0.0
C1542 C 0.44348 0.7368 0.72271 0.0
N1543 N 0.42968 0.74336 0.69412 0.0
C1544 C 0.45245 0.75072 0.69525 0.0
C1545 C 0.45429 0.74391 0.71414 0.0
H1546 H 0.42279 0.73124 0.71888 0.0
H1547 H 0.43865 0.75524 0.67061 0.0
C1548 C 0.40192 0.74784 0.60798 0.0
N1549 N 0.40349 0.73649 0.61937 0.0
C1550 C 0.40329 0.74749 0.58641 0.0
C1551 C 0.40777 0.72373 0.58861 0.0
C1552 C 0.4063 0.72454 0.6102 0.0
C1553 C 0.4063 0.73533 0.57642 0.0
H1554 H 0.39954 0.75716 0.61571 0.0
H1555 H 0.40743 0.71563 0.61962 0.0
O1556 O 0.39729 0.74388 0.7 0.0
O1557 O 0.38235 0.73938 0.65765 0.0
O1558 O 0.40867 0.75584 0.65895 0.0
O1559 O 0.40935 0.72466 0.66711 0.0
H1560 H 0.37081 0.74484 0.69605 0.0
H1561 H 0.40349 0.74608 0.73969 0.0
H1562 H 0.3549 0.74744 0.72541 0.0
H1563 H 0.387 0.74877 0.76833 0.0
H1564 H 0.37555 0.69894 0.62665 0.0
H1565 H 0.35905 0.74475 0.6401 0.0
H1566 H 0.3891 0.71426 0.6484 0.0
H1567 H 0.34598 0.72883 0.61849 0.0
H1568 H 0.37303 0.79331 0.71181 0.0
H1569 H 0.35648 0.78441 0.65121 0.0
H1570 H 0.38786 0.68763 0.72171 0.0
H1571 H 0.35066 0.70461 0.69951 0.0
H1572 H 0.41767 0.77369 0.63214 0.0
H1573 H 0.41149 0.76563 0.69722 0.0
H1574 H 0.42703 0.79593 0.64157 0.0
H1575 H 0.42089 0.78797 0.70548 0.0
H1576 H 0.42684 0.739 0.64516 0.0
H1577 H 0.4185 0.7 0.67066 0.0
H1578 H 0.44817 0.73021 0.63094 0.0
H1579 H 0.44002 0.69186 0.65589 0.0
H1580 H 0.44449 0.73149 0.73731 0.0
H1581 H 0.46061 0.75616 0.68801 0.0
H1582 H 0.40179 0.75663 0.57764 0.0
H1583 H 0.41017 0.71417 0.58158 0.0
Li1584 Li 0.25926 0.40057 0.6506 0.0
Li1585 Li 0.25524 0.4126 0.68284 0.0
Li1586 Li 0.26781 0.39088 0.68353 0.0
Li1587 Li 0.24339 0.39189 0.67797 0.0
C1588 C 0.2851 0.41048 0.66104 0.0
N1589 N 0.3099 0.41514 0.64326 0.0
C1590 C 0.28943 0.42359 0.65735 0.0
C1591 C 0.29352 0.39977 0.65605 0.0
C1592 C 0.30196 0.42574 0.64823 0.0
C1593 C 0.30598 0.40231 0.64698 0.0
C1594 C 0.2355 0.4202 0.6586 0.0
C1595 C 0.21933 0.43628 0.67096 0.0
N1596 N 0.2228 0.44469 0.65521 0.0
C1597 C 0.23884 0.42894 0.64244 0.0
C1598 C 0.2256 0.42383 0.67289 0.0
C1599 C 0.23232 0.4413 0.64102 0.0
C1600 C 0.25607 0.39227 0.6095 0.0
N1601 N 0.262 0.40183 0.62139 0.0
C1602 C 0.27087 0.41256 0.59112 0.0
C1603 C 0.26918 0.41196 0.61268 0.0
C1604 C 0.26509 0.40263 0.5785 0.0
C1605 C 0.25759 0.3924 0.58795 0.0
H1606 H 0.25011 0.38453 0.61678 0.0
H1607 H 0.27347 0.41966 0.6224 0.0
C1608 C 0.25043 0.4315 0.71475 0.0
N1609 N 0.25438 0.43005 0.69465 0.0
C1610 C 0.24994 0.4442 0.7238 0.0
C1611 C 0.25772 0.45366 0.69136 0.0
C1612 C 0.25794 0.44079 0.68288 0.0
C1613 C 0.25371 0.45546 0.7121 0.0
H1614 H 0.24781 0.42279 0.72383 0.0
H1615 H 0.26094 0.43935 0.66689 0.0
C1616 C 0.26136 0.37035 0.65279 0.0
N1617 N 0.27004 0.34665 0.63504 0.0
C1618 C 0.25469 0.35833 0.65704 0.0
C1619 C 0.27231 0.37032 0.63923 0.0
C1620 C 0.25928 0.34646 0.64801 0.0
C1621 C 0.27657 0.35824 0.63048 0.0
C1622 C 0.24689 0.39225 0.71928 0.0
C1623 C 0.25229 0.38156 0.73055 0.0
C1624 C 0.23434 0.39738 0.72476 0.0
C1625 C 0.24495 0.37605 0.74696 0.0
C1626 C 0.22731 0.39158 0.74125 0.0
N1627 N 0.23271 0.38113 0.75191 0.0
C1628 C 0.29159 0.38792 0.70668 0.0
C1629 C 0.28185 0.36742 0.69582 0.0
C1630 C 0.30197 0.38106 0.71666 0.0
N1631 N 0.28186 0.38103 0.69645 0.0
C1632 C 0.29209 0.36018 0.70532 0.0
C1633 C 0.30231 0.367 0.71592 0.0
H1634 H 0.29127 0.39875 0.7071 0.0
H1635 H 0.27379 0.36214 0.68825 0.0
C1636 C 0.21566 0.38636 0.67323 0.0
N1637 N 0.22723 0.38214 0.68228 0.0
C1638 C 0.20387 0.37896 0.67565 0.0
C1639 C 0.2161 0.36316 0.69691 0.0
C1640 C 0.22765 0.37077 0.69388 0.0
C1641 C 0.20403 0.36718 0.6876 0.0
H1642 H 0.21563 0.39537 0.6639 0.0
H1643 H 0.23704 0.36747 0.70051 0.0
O1644 O 0.27285 0.40824 0.67002 0.0
O1645 O 0.24194 0.40817 0.66046 0.0
O1646 O 0.25699 0.38207 0.66158 0.0
O1647 O 0.25389 0.39769 0.70304 0.0
H1648 H 0.28318 0.43204 0.66137 0.0
H1649 H 0.29057 0.38959 0.65934 0.0
H1650 H 0.30537 0.43583 0.64515 0.0
H1651 H 0.31256 0.39409 0.643 0.0
H1652 H 0.21171 0.43926 0.682 0.0
H1653 H 0.24647 0.42628 0.63123 0.0
H1654 H 0.22285 0.41714 0.68541 0.0
H1655 H 0.23486 0.4482 0.62866 0.0
H1656 H 0.27669 0.42064 0.58442 0.0
H1657 H 0.25273 0.38472 0.57875 0.0
H1658 H 0.24694 0.44516 0.73992 0.0
H1659 H 0.26057 0.46212 0.68177 0.0
H1660 H 0.24612 0.35815 0.66728 0.0
H1661 H 0.27734 0.37953 0.63517 0.0
H1662 H 0.25426 0.33708 0.65129 0.0
H1663 H 0.28504 0.35809 0.61997 0.0
H1664 H 0.26201 0.3775 0.72662 0.0
H1665 H 0.23002 0.40565 0.71623 0.0
H1666 H 0.24898 0.36774 0.75575 0.0
H1667 H 0.21754 0.39539 0.74555 0.0
H1668 H 0.30969 0.38666 0.72471 0.0
H1669 H 0.29187 0.34933 0.70479 0.0
H1670 H 0.19475 0.38237 0.66823 0.0
H1671 H 0.21671 0.35401 0.70591 0.0
Li1672 Li 0.60726 0.26774 0.68219 0.0
Li1673 Li 0.60634 0.24341 0.67593 0.0
Li1674 Li 0.59765 0.25884 0.6501 0.0
Li1675 Li 0.58661 0.25532 0.68348 0.0
C1676 C 0.62449 0.26502 0.64813 0.0
N1677 N 0.64111 0.28078 0.62401 0.0
C1678 C 0.63649 0.25981 0.64042 0.0
C1679 C 0.62091 0.27824 0.64354 0.0
C1680 C 0.64477 0.26794 0.62826 0.0
C1681 C 0.62946 0.28604 0.63133 0.0
C1682 C 0.59651 0.25393 0.72104 0.0
C1683 C 0.5841 0.24365 0.74902 0.0
N1684 N 0.5836 0.25566 0.759 0.0
C1685 C 0.59596 0.26614 0.73166 0.0
C1686 C 0.59062 0.24256 0.72988 0.0
C1687 C 0.58937 0.26681 0.7508 0.0
C1688 C 0.61219 0.29379 0.6981 0.0
N1689 N 0.61782 0.28179 0.69323 0.0
C1690 C 0.63937 0.28949 0.70394 0.0
C1691 C 0.63111 0.27946 0.69598 0.0
C1692 C 0.63384 0.30196 0.70931 0.0
C1693 C 0.62006 0.30406 0.70636 0.0
H1694 H 0.60157 0.2953 0.69576 0.0
H1695 H 0.63527 0.26979 0.69199 0.0
C1696 C 0.62231 0.22273 0.66081 0.0
N1697 N 0.61647 0.22744 0.67842 0.0
C1698 C 0.63037 0.21133 0.6615 0.0
C1699 C 0.62604 0.20969 0.69842 0.0
C1700 C 0.61813 0.22121 0.69703 0.0
C1701 C 0.63239 0.20466 0.68051 0.0
H1702 H 0.62085 0.22799 0.64627 0.0
H1703 H 0.6134 0.22524 0.71079 0.0
C1704 C 0.57845 0.27801 0.66138 0.0
N1705 N 0.55483 0.28845 0.64588 0.0
C1706 C 0.56913 0.26963 0.65162 0.0
C1707 C 0.57572 0.29169 0.66327 0.0
C1708 C 0.55726 0.27511 0.64388 0.0
C1709 C 0.56373 0.29678 0.65532 0.0
C1710 C 0.5877 0.22883 0.6572 0.0
C1711 C 0.5868 0.22385 0.63693 0.0
C1712 C 0.58713 0.21993 0.67396 0.0
C1713 C 0.58578 0.21004 0.63377 0.0
C1714 C 0.58613 0.20619 0.67018 0.0
N1715 N 0.5855 0.20156 0.65032 0.0
C1716 C 0.60199 0.25197 0.6089 0.0
C1717 C 0.59204 0.2734 0.61232 0.0
C1718 C 0.60215 0.25319 0.58731 0.0
N1719 N 0.59673 0.26186 0.62089 0.0
C1720 C 0.59214 0.27512 0.59076 0.0
C1721 C 0.59718 0.26489 0.5779 0.0
H1722 H 0.60617 0.24315 0.61619 0.0
H1723 H 0.58846 0.2814 0.62215 0.0
C1724 C 0.5656 0.26602 0.70728 0.0
N1725 N 0.56964 0.25489 0.69686 0.0
C1726 C 0.55316 0.26629 0.71715 0.0
C1727 C 0.54922 0.24365 0.70523 0.0
C1728 C 0.56174 0.24383 0.69558 0.0
C1729 C 0.54478 0.255 0.71618 0.0
H1730 H 0.57206 0.27471 0.7079 0.0
H1731 H 0.56509 0.23521 0.68691 0.0
O1732 O 0.61624 0.25712 0.65989 0.0
O1733 O 0.60268 0.25316 0.70204 0.0
O1734 O 0.5901 0.27291 0.66935 0.0
O1735 O 0.58884 0.24233 0.66061 0.0
H1736 H 0.63936 0.24957 0.64379 0.0
H1737 H 0.61163 0.28243 0.64927 0.0
H1738 H 0.65409 0.26403 0.62219 0.0
H1739 H 0.62682 0.29629 0.62765 0.0
H1740 H 0.57942 0.23495 0.75595 0.0
H1741 H 0.60044 0.27504 0.72513 0.0
H1742 H 0.59099 0.23301 0.72202 0.0
H1743 H 0.5888 0.27622 0.7591 0.0
H1744 H 0.64993 0.28744 0.70622 0.0
H1745 H 0.61545 0.31357 0.71023 0.0
H1746 H 0.63523 0.20801 0.64736 0.0
H1747 H 0.62718 0.20482 0.71335 0.0
H1748 H 0.571 0.25903 0.64998 0.0
H1749 H 0.58281 0.29831 0.67079 0.0
H1750 H 0.54997 0.26875 0.6363 0.0
H1751 H 0.56151 0.30735 0.65667 0.0
H1752 H 0.5867 0.23056 0.62376 0.0
H1753 H 0.58762 0.2236 0.68973 0.0
H1754 H 0.58514 0.20606 0.61815 0.0
H1755 H 0.58586 0.19921 0.68304 0.0
H1756 H 0.60606 0.24498 0.57814 0.0
H1757 H 0.58854 0.28447 0.58429 0.0
H1758 H 0.55018 0.2752 0.72559 0.0
H1759 H 0.54299 0.23482 0.70381 0.0
Li1760 Li 0.74234 0.41306 0.81618 0.0
Li1761 Li 0.73918 0.40042 0.84702 0.0
Li1762 Li 0.75441 0.39174 0.82111 0.0
Li1763 Li 0.72912 0.3911 0.81604 0.0
C1764 C 0.76626 0.41763 0.83534 0.0
N1765 N 0.78658 0.43625 0.83111 0.0
C1766 C 0.76692 0.42865 0.84872 0.0
C1767 C 0.77601 0.41603 0.81995 0.0
C1768 C 0.77725 0.43798 0.84629 0.0
C1769 C 0.78618 0.42556 0.81802 0.0
C1770 C 0.71584 0.41347 0.84324 0.0
C1771 C 0.69418 0.41268 0.8598 0.0
N1772 N 0.69763 0.42342 0.87166 0.0
C1773 C 0.71915 0.42455 0.85549 0.0
C1774 C 0.70324 0.40751 0.84531 0.0
C1775 C 0.70982 0.42941 0.86983 0.0
C1776 C 0.74161 0.43124 0.78266 0.0
N1777 N 0.7428 0.43034 0.80366 0.0
C1778 C 0.74343 0.4542 0.80666 0.0
C1779 C 0.74359 0.44149 0.81572 0.0
C1780 C 0.74241 0.45546 0.78494 0.0
C1781 C 0.74155 0.44372 0.77292 0.0
H1782 H 0.74055 0.42227 0.77343 0.0
H1783 H 0.74414 0.44056 0.83241 0.0
C1784 C 0.74748 0.40632 0.88772 0.0
N1785 N 0.73688 0.40171 0.87657 0.0
C1786 C 0.7467 0.4073 0.90932 0.0
C1787 C 0.72417 0.3985 0.90771 0.0
C1788 C 0.72537 0.39775 0.88611 0.0
C1789 C 0.73492 0.40336 0.91958 0.0
H1790 H 0.75665 0.40904 0.87986 0.0
H1791 H 0.71715 0.39389 0.87699 0.0
C1792 C 0.74849 0.39475 0.77752 0.0
N1793 N 0.75868 0.38879 0.73863 0.0
C1794 C 0.74263 0.38468 0.76544 0.0
C1795 C 0.75946 0.40187 0.76971 0.0
C1796 C 0.74795 0.38179 0.74585 0.0
C1797 C 0.76448 0.39869 0.75005 0.0
C1798 C 0.7391 0.3744 0.85423 0.0
C1799 C 0.75016 0.37258 0.86725 0.0
C1800 C 0.72667 0.36907 0.85988 0.0
C1801 C 0.74857 0.36553 0.88586 0.0
C1802 C 0.7255 0.36206 0.87859 0.0
N1803 N 0.73638 0.36046 0.8911 0.0
C1804 C 0.78017 0.38171 0.8306 0.0
C1805 C 0.77066 0.37294 0.79974 0.0
C1806 C 0.79118 0.37314 0.82872 0.0
N1807 N 0.77015 0.38137 0.8163 0.0
C1808 C 0.78159 0.36442 0.797 0.0
C1809 C 0.79192 0.36418 0.81185 0.0
H1810 H 0.7794 0.38835 0.84384 0.0
H1811 H 0.76243 0.37248 0.78893 0.0
C1812 C 0.70553 0.38728 0.79216 0.0
N1813 N 0.71537 0.38113 0.80321 0.0
C1814 C 0.69605 0.37964 0.78142 0.0
C1815 C 0.70697 0.35957 0.79395 0.0
C1816 C 0.71624 0.36758 0.80432 0.0
C1817 C 0.69678 0.36558 0.78207 0.0
H1818 H 0.70524 0.39811 0.79137 0.0
H1819 H 0.72431 0.36299 0.81299 0.0
O1820 O 0.75618 0.40843 0.83749 0.0
O1821 O 0.72482 0.40854 0.82913 0.0
O1822 O 0.74338 0.39769 0.79674 0.0
O1823 O 0.7404 0.38153 0.83618 0.0
H1824 H 0.75945 0.43008 0.86072 0.0
H1825 H 0.77577 0.40751 0.80961 0.0
H1826 H 0.77783 0.44659 0.85645 0.0
H1827 H 0.79377 0.42444 0.80613 0.0
H1828 H 0.6844 0.40814 0.86163 0.0
H1829 H 0.7289 0.42919 0.85422 0.0
H1830 H 0.70053 0.39893 0.83591 0.0
H1831 H 0.71229 0.43791 0.87954 0.0
H1832 H 0.74382 0.46293 0.81664 0.0
H1833 H 0.74087 0.44414 0.75613 0.0
H1834 H 0.75533 0.41084 0.91792 0.0
H1835 H 0.7149 0.39537 0.91502 0.0
H1836 H 0.73411 0.3791 0.77116 0.0
H1837 H 0.76395 0.40988 0.77861 0.0
H1838 H 0.74355 0.37399 0.73639 0.0
H1839 H 0.77296 0.40412 0.74383 0.0
H1840 H 0.75983 0.37671 0.86316 0.0
H1841 H 0.71798 0.37052 0.85009 0.0
H1842 H 0.75702 0.36412 0.89616 0.0
H1843 H 0.71592 0.35795 0.88323 0.0
H1844 H 0.79874 0.37321 0.84079 0.0
H1845 H 0.78175 0.3579 0.78356 0.0
H1846 H 0.68847 0.38469 0.77226 0.0
H1847 H 0.70781 0.34879 0.79517 0.0
Li1848 Li 0.60753 0.72839 0.81923 0.0
Li1849 Li 0.6076 0.75345 0.82352 0.0
Li1850 Li 0.59838 0.73903 0.85022 0.0
Li1851 Li 0.58637 0.74248 0.81874 0.0
C1852 C 0.62429 0.73955 0.8576 0.0
N1853 N 0.63759 0.73972 0.89525 0.0
C1854 C 0.62728 0.7517 0.86736 0.0
C1855 C 0.62811 0.72749 0.86691 0.0
C1856 C 0.634 0.75157 0.88641 0.0
C1857 C 0.63482 0.72779 0.88597 0.0
C1858 C 0.60789 0.74876 0.78268 0.0
C1859 C 0.60977 0.76737 0.75892 0.0
N1860 N 0.62075 0.76156 0.75023 0.0
C1861 C 0.61914 0.74293 0.77341 0.0
C1862 C 0.6031 0.76103 0.77529 0.0
C1863 C 0.62552 0.74957 0.75705 0.0
C1864 C 0.6105 0.70581 0.79331 0.0
N1865 N 0.61681 0.71378 0.80738 0.0
C1866 C 0.63732 0.70186 0.80269 0.0
C1867 C 0.62994 0.71201 0.81223 0.0
C1868 C 0.63116 0.69357 0.78786 0.0
C1869 C 0.61754 0.69558 0.78328 0.0
H1870 H 0.60007 0.70756 0.78967 0.0
H1871 H 0.63475 0.7187 0.82313 0.0
C1872 C 0.61412 0.78108 0.82548 0.0
N1873 N 0.61824 0.76891 0.81845 0.0
C1874 C 0.62226 0.79234 0.82288 0.0
C1875 C 0.63865 0.77834 0.80568 0.0
C1876 C 0.63029 0.76733 0.8089 0.0
C1877 C 0.6347 0.79102 0.81287 0.0
H1878 H 0.60465 0.78199 0.8335 0.0
H1879 H 0.63351 0.75747 0.8041 0.0
C1880 C 0.58501 0.71541 0.84561 0.0
N1881 N 0.57505 0.69594 0.87195 0.0
C1882 C 0.57401 0.71819 0.85834 0.0
C1883 C 0.59092 0.70271 0.84619 0.0
C1884 C 0.56914 0.70822 0.87159 0.0
C1885 C 0.58573 0.69301 0.85963 0.0
C1886 C 0.5797 0.76358 0.84041 0.0
C1887 C 0.5703 0.76157 0.85624 0.0
C1888 C 0.57717 0.77308 0.82494 0.0
C1889 C 0.55847 0.76906 0.85623 0.0
C1890 C 0.56521 0.78035 0.82545 0.0
N1891 N 0.55619 0.7782 0.84095 0.0
C1892 C 0.59624 0.74918 0.89053 0.0
C1893 C 0.59862 0.72557 0.8902 0.0
C1894 C 0.59602 0.74928 0.91221 0.0
N1895 N 0.59737 0.73744 0.87996 0.0
C1896 C 0.59823 0.72517 0.9119 0.0
C1897 C 0.59695 0.73715 0.92314 0.0
H1898 H 0.59572 0.75854 0.88209 0.0
H1899 H 0.60022 0.71642 0.88162 0.0
C1900 C 0.56864 0.74528 0.78477 0.0
N1901 N 0.56922 0.74364 0.80573 0.0
C1902 C 0.55628 0.74576 0.77462 0.0
C1903 C 0.54532 0.74296 0.80784 0.0
C1904 C 0.55789 0.7424 0.81729 0.0
C1905 C 0.54438 0.74457 0.78618 0.0
H1906 H 0.57779 0.74599 0.77585 0.0
H1907 H 0.55856 0.74094 0.83386 0.0
O1908 O 0.61735 0.73946 0.83927 0.0
O1909 O 0.60161 0.74249 0.7989 0.0
O1910 O 0.58989 0.72496 0.8324 0.0
O1911 O 0.59129 0.75626 0.84003 0.0
H1912 H 0.62429 0.76111 0.86042 0.0
H1913 H 0.62571 0.718 0.85967 0.0
H1914 H 0.63631 0.76089 0.89422 0.0
H1915 H 0.63776 0.71853 0.89344 0.0
H1916 H 0.60622 0.7769 0.75314 0.0
H1917 H 0.62299 0.73344 0.77889 0.0
H1918 H 0.59437 0.76564 0.7822 0.0
H1919 H 0.63428 0.74522 0.74981 0.0
H1920 H 0.64786 0.70081 0.80639 0.0
H1921 H 0.61241 0.68935 0.77201 0.0
H1922 H 0.61891 0.80195 0.8287 0.0
H1923 H 0.64828 0.77689 0.79826 0.0
H1924 H 0.56946 0.72801 0.85834 0.0
H1925 H 0.59944 0.70039 0.83643 0.0
H1926 H 0.5607 0.71026 0.88166 0.0
H1927 H 0.59022 0.68315 0.86028 0.0
H1928 H 0.572 0.75416 0.86822 0.0
H1929 H 0.58433 0.77479 0.81262 0.0
H1930 H 0.55108 0.76755 0.8683 0.0
H1931 H 0.5631 0.78769 0.81352 0.0
H1932 H 0.59508 0.75873 0.92036 0.0
H1933 H 0.59927 0.71565 0.91983 0.0
H1934 H 0.55608 0.74675 0.75785 0.0
H1935 H 0.53645 0.74219 0.81746 0.0
Li1936 Li 0.24516 0.60848 0.82294 0.0
Li1937 Li 0.27051 0.60762 0.81613 0.0
Li1938 Li 0.25676 0.58758 0.81656 0.0
Li1939 Li 0.26087 0.59878 0.84821 0.0
C1940 C 0.25357 0.59674 0.77887 0.0
N1941 N 0.25049 0.5826 0.74225 0.0
C1942 C 0.26465 0.59423 0.76616 0.0
C1943 C 0.24091 0.59219 0.77286 0.0
C1944 C 0.26289 0.58703 0.74772 0.0
C1945 C 0.23957 0.58502 0.75432 0.0
C1946 C 0.26453 0.62427 0.85512 0.0
C1947 C 0.28241 0.63221 0.87714 0.0
N1948 N 0.27319 0.63665 0.89112 0.0
C1949 C 0.25523 0.62895 0.86965 0.0
C1950 C 0.27823 0.62592 0.85885 0.0
C1951 C 0.25981 0.63517 0.88778 0.0
C1952 C 0.22199 0.62215 0.83601 0.0
N1953 N 0.22965 0.61909 0.81922 0.0
C1954 C 0.21544 0.63191 0.79696 0.0
C1955 C 0.22658 0.62367 0.79992 0.0
C1956 C 0.2075 0.63561 0.81411 0.0
C1957 C 0.21085 0.63049 0.83382 0.0
H1958 H 0.22464 0.61824 0.85114 0.0
H1959 H 0.23285 0.621 0.78684 0.0
C1960 C 0.29555 0.61049 0.79561 0.0
N1961 N 0.28489 0.6171 0.80385 0.0
C1962 C 0.30598 0.61766 0.78625 0.0
C1963 C 0.29431 0.63824 0.79444 0.0
C1964 C 0.28407 0.63068 0.80342 0.0
C1965 C 0.30543 0.63173 0.78563 0.0
H1966 H 0.2959 0.59967 0.79621 0.0
H1967 H 0.27543 0.63564 0.81004 0.0
C1968 C 0.23226 0.58419 0.84068 0.0
N1969 N 0.20926 0.569 0.8451 0.0
C1970 C 0.23156 0.57421 0.85591 0.0
C1971 C 0.22118 0.58653 0.82786 0.0
C1972 C 0.21987 0.56661 0.85785 0.0
C1973 C 0.20967 0.57872 0.8303 0.0
C1974 C 0.27968 0.57923 0.83899 0.0
C1975 C 0.27112 0.5697 0.84773 0.0
C1976 C 0.29353 0.57722 0.83965 0.0
C1977 C 0.27655 0.55828 0.85702 0.0
C1978 C 0.29859 0.56567 0.84908 0.0
N1979 N 0.29006 0.55652 0.8575 0.0
C1980 C 0.26698 0.56587 0.79379 0.0
C1981 C 0.24409 0.56308 0.80248 0.0
C1982 C 0.26708 0.55359 0.78338 0.0
N1983 N 0.2556 0.57037 0.80311 0.0
C1984 C 0.24378 0.55069 0.79249 0.0
C1985 C 0.25538 0.54581 0.78278 0.0
H1986 H 0.27599 0.57189 0.79434 0.0
H1987 H 0.23507 0.56684 0.80948 0.0
C1988 C 0.25241 0.5959 0.88932 0.0
N1989 N 0.26357 0.59692 0.87733 0.0
C1990 C 0.25354 0.5946 0.91083 0.0
C1991 C 0.27764 0.59585 0.90737 0.0
C1992 C 0.27605 0.59689 0.88583 0.0
C1993 C 0.26627 0.5946 0.92008 0.0
H1994 H 0.24262 0.59622 0.88217 0.0
H1995 H 0.28475 0.59781 0.87589 0.0
O1996 O 0.25517 0.6034 0.79728 0.0
O1997 O 0.26028 0.61776 0.83761 0.0
O1998 O 0.24355 0.59189 0.83884 0.0
O1999 O 0.27462 0.59054 0.82991 0.0
H2000 H 0.27452 0.59766 0.7706 0.0
H2001 H 0.23223 0.59406 0.7825 0.0
H2002 H 0.27139 0.58493 0.73781 0.0
H2003 H 0.22984 0.58135 0.74956 0.0
H2004 H 0.29298 0.63349 0.88029 0.0
H2005 H 0.24461 0.62768 0.86707 0.0
H2006 H 0.28557 0.62219 0.8479 0.0
H2007 H 0.25273 0.63878 0.89921 0.0
H2008 H 0.21314 0.63539 0.78142 0.0
H2009 H 0.20517 0.63317 0.84755 0.0
H2010 H 0.31441 0.61228 0.77973 0.0
H2011 H 0.29341 0.64905 0.79404 0.0
H2012 H 0.23993 0.57236 0.86621 0.0
H2013 H 0.22148 0.59416 0.81598 0.0
H2014 H 0.21922 0.55884 0.86953 0.0
H2015 H 0.20107 0.58037 0.8204 0.0
H2016 H 0.2604 0.57109 0.84727 0.0
H2017 H 0.30029 0.58453 0.83296 0.0
H2018 H 0.27003 0.55082 0.86382 0.0
H2019 H 0.30929 0.56398 0.84971 0.0
H2020 H 0.27625 0.55014 0.77612 0.0
H2021 H 0.2345 0.54507 0.79209 0.0
H2022 H 0.24454 0.59387 0.92018 0.0
H2023 H 0.28761 0.59588 0.91401 0.0
Li2024 Li 0.41156 0.25721 0.81616 0.0
Li2025 Li 0.40055 0.26106 0.84947 0.0
Li2026 Li 0.39152 0.24585 0.82363 0.0
Li2027 Li 0.39126 0.2702 0.81726 0.0
C2028 C 0.40949 0.23081 0.84284 0.0
N2029 N 0.41048 0.20356 0.85051 0.0
C2030 C 0.40984 0.22603 0.86327 0.0
C2031 C 0.40998 0.22172 0.82634 0.0
C2032 C 0.41026 0.21223 0.86683 0.0
C2033 C 0.41036 0.20799 0.83051 0.0
C2034 C 0.42023 0.27979 0.83823 0.0
C2035 C 0.43517 0.29833 0.84463 0.0
N2036 N 0.44402 0.28981 0.85377 0.0
C2037 C 0.42949 0.27121 0.84769 0.0
C2038 C 0.4231 0.29345 0.83666 0.0
C2039 C 0.44145 0.27647 0.85544 0.0
C2040 C 0.4329 0.26738 0.79253 0.0
N2041 N 0.42854 0.25633 0.80288 0.0
C2042 C 0.44872 0.24462 0.79473 0.0
C2043 C 0.43615 0.24508 0.80422 0.0
C2044 C 0.4535 0.25587 0.78391 0.0
C2045 C 0.44539 0.26736 0.78284 0.0
H2046 H 0.42665 0.27622 0.79186 0.0
H2047 H 0.43254 0.23653 0.81282 0.0
C2048 C 0.39512 0.25441 0.89023 0.0
N2049 N 0.40143 0.26391 0.87873 0.0
C2050 C 0.39493 0.25526 0.91184 0.0
C2051 C 0.40713 0.27612 0.90947 0.0
C2052 C 0.40717 0.27479 0.88783 0.0
C2053 C 0.40103 0.26622 0.92181 0.0
H2054 H 0.39023 0.24611 0.88252 0.0
H2055 H 0.41163 0.28255 0.8784 0.0
C2056 C 0.40178 0.25579 0.77858 0.0
N2057 N 0.41496 0.25663 0.74077 0.0
C2058 C 0.40277 0.26783 0.7676 0.0
C2059 C 0.40735 0.24413 0.77017 0.0
C2060 C 0.4095 0.26806 0.74855 0.0
C2061 C 0.41402 0.24477 0.75109 0.0
C2062 C 0.37389 0.268 0.85121 0.0
C2063 C 0.36167 0.26317 0.85869 0.0
C2064 C 0.37787 0.28109 0.85594 0.0
C2065 C 0.35358 0.27154 0.87075 0.0
C2066 C 0.36949 0.28915 0.86804 0.0
N2067 N 0.35762 0.28425 0.87513 0.0
C2068 C 0.37484 0.22573 0.83878 0.0
C2069 C 0.37891 0.22414 0.80252 0.0
C2070 C 0.36617 0.21479 0.83799 0.0
N2071 N 0.38089 0.23021 0.82118 0.0
C2072 C 0.37038 0.21308 0.80103 0.0
C2073 C 0.36373 0.20842 0.81888 0.0
H2074 H 0.37662 0.23082 0.85338 0.0
H2075 H 0.38375 0.22803 0.78875 0.0
C2076 C 0.3873 0.29609 0.8002 0.0
N2077 N 0.38116 0.28452 0.80597 0.0
C2078 C 0.37984 0.30649 0.7914 0.0
C2079 C 0.35987 0.29298 0.79535 0.0
C2080 C 0.36774 0.28278 0.80374 0.0
C2081 C 0.36594 0.30497 0.78892 0.0
H2082 H 0.39801 0.29715 0.80213 0.0
H2083 H 0.36317 0.27342 0.80841 0.0
O2084 O 0.40895 0.24432 0.83905 0.0
O2085 O 0.4085 0.2749 0.83022 0.0
O2086 O 0.39548 0.25545 0.79751 0.0
O2087 O 0.38195 0.25985 0.83956 0.0
H2088 H 0.40998 0.23288 0.87626 0.0
H2089 H 0.40989 0.22522 0.81046 0.0
H2090 H 0.41048 0.20841 0.88256 0.0
H2091 H 0.41057 0.20086 0.81785 0.0
H2092 H 0.43751 0.30889 0.84353 0.0
H2093 H 0.4275 0.2606 0.84906 0.0
H2094 H 0.41605 0.30023 0.82937 0.0
H2095 H 0.4487 0.26995 0.86279 0.0
H2096 H 0.45474 0.23563 0.79621 0.0
H2097 H 0.44863 0.2762 0.77447 0.0
H2098 H 0.39019 0.24731 0.92062 0.0
H2099 H 0.41166 0.2849 0.91642 0.0
H2100 H 0.39852 0.27694 0.77379 0.0
H2101 H 0.40663 0.23469 0.77829 0.0
H2102 H 0.41041 0.27734 0.73998 0.0
H2103 H 0.41846 0.23585 0.7445 0.0
H2104 H 0.35849 0.25304 0.85523 0.0
H2105 H 0.38733 0.28498 0.85038 0.0
H2106 H 0.34409 0.26794 0.87664 0.0
H2107 H 0.37244 0.29929 0.87181 0.0
H2108 H 0.36133 0.21142 0.85213 0.0
H2109 H 0.36864 0.20852 0.78598 0.0
H2110 H 0.38484 0.31563 0.78668 0.0
H2111 H 0.3492 0.29139 0.79346 0.0
Li2112 Li 0.25771 0.4006 0.34964 0.0
Li2113 Li 0.24222 0.39154 0.32383 0.0
Li2114 Li 0.2673 0.3915 0.31834 0.0
Li2115 Li 0.25454 0.41239 0.31573 0.0
C2116 C 0.25731 0.37457 0.3573 0.0
N2117 N 0.25897 0.36056 0.39428 0.0
C2118 C 0.24575 0.36929 0.36643 0.0
C2119 C 0.26974 0.37256 0.36683 0.0
C2120 C 0.24679 0.36227 0.38516 0.0
C2121 C 0.27036 0.3655 0.38556 0.0
C2122 C 0.22859 0.41453 0.33829 0.0
C2123 C 0.20995 0.42428 0.31982 0.0
N2124 N 0.20315 0.4255 0.33805 0.0
C2125 C 0.22148 0.41604 0.35688 0.0
C2126 C 0.22282 0.41881 0.31964 0.0
C2127 C 0.20861 0.42154 0.35643 0.0
C2128 C 0.2717 0.40689 0.38712 0.0
N2129 N 0.25994 0.40257 0.37883 0.0
C2130 C 0.25069 0.39923 0.41267 0.0
C2131 C 0.24947 0.39892 0.39109 0.0
C2132 C 0.2628 0.40335 0.42176 0.0
C2133 C 0.27336 0.40737 0.40869 0.0
H2134 H 0.27985 0.40978 0.37701 0.0
H2135 H 0.24025 0.3955 0.38405 0.0
C2136 C 0.22626 0.3724 0.30388 0.0
N2137 N 0.22636 0.38135 0.3198 0.0
C2138 C 0.21542 0.36374 0.30124 0.0
C2139 C 0.20492 0.37371 0.33138 0.0
C2140 C 0.21596 0.38221 0.33339 0.0
C2141 C 0.20464 0.36418 0.3153 0.0
H2142 H 0.23477 0.37178 0.29351 0.0
H2143 H 0.21647 0.3891 0.34631 0.0
C2144 C 0.28479 0.41083 0.32808 0.0
N2145 N 0.31187 0.41399 0.32053 0.0
C2146 C 0.28922 0.4204 0.31378 0.0
C2147 C 0.29414 0.40299 0.33873 0.0
C2148 C 0.30295 0.42182 0.31014 0.0
C2149 C 0.30778 0.4047 0.33464 0.0
C2150 C 0.24887 0.39737 0.27823 0.0
C2151 C 0.25836 0.39658 0.26228 0.0
C2152 C 0.23535 0.39913 0.27321 0.0
C2153 C 0.25423 0.39796 0.24164 0.0
C2154 C 0.23161 0.40045 0.25237 0.0
N2155 N 0.24105 0.39987 0.23715 0.0
C2156 C 0.28278 0.36835 0.31232 0.0
C2157 C 0.28999 0.38696 0.29235 0.0
C2158 C 0.29273 0.3603 0.30358 0.0
N2159 N 0.2816 0.3814 0.3066 0.0
C2160 C 0.30011 0.37929 0.28324 0.0
C2161 C 0.30152 0.36573 0.28873 0.0
H2162 H 0.27583 0.36411 0.3234 0.0
H2163 H 0.28874 0.39731 0.28786 0.0
C2164 C 0.24858 0.43994 0.31306 0.0
N2165 N 0.25359 0.42935 0.30228 0.0
C2166 C 0.24779 0.45256 0.30379 0.0
C2167 C 0.25761 0.44321 0.27264 0.0
C2168 C 0.2582 0.43078 0.28252 0.0
C2169 C 0.25233 0.45431 0.28328 0.0
H2170 H 0.24518 0.43857 0.32889 0.0
H2171 H 0.26261 0.42236 0.27456 0.0
O2172 O 0.25646 0.38175 0.33922 0.0
O2173 O 0.24119 0.4091 0.33849 0.0
O2174 O 0.27137 0.40925 0.33174 0.0
O2175 O 0.25276 0.39592 0.29854 0.0
H2176 H 0.23606 0.37071 0.35926 0.0
H2177 H 0.27879 0.37647 0.35989 0.0
H2178 H 0.23791 0.35822 0.39248 0.0
H2179 H 0.2799 0.36396 0.39318 0.0
H2180 H 0.20538 0.42762 0.30547 0.0
H2181 H 0.22583 0.41296 0.37152 0.0
H2182 H 0.2283 0.41812 0.30521 0.0
H2183 H 0.20298 0.42268 0.37069 0.0
H2184 H 0.24221 0.39625 0.42212 0.0
H2185 H 0.2829 0.41053 0.41504 0.0
H2186 H 0.21558 0.35663 0.28851 0.0
H2187 H 0.19699 0.37422 0.34284 0.0
H2188 H 0.28215 0.42666 0.30554 0.0
H2189 H 0.29091 0.39558 0.34991 0.0
H2190 H 0.30652 0.42915 0.29904 0.0
H2191 H 0.31512 0.39862 0.34266 0.0
H2192 H 0.26883 0.39505 0.26579 0.0
H2193 H 0.22777 0.39928 0.28519 0.0
H2194 H 0.2615 0.3975 0.22918 0.0
H2195 H 0.22119 0.40185 0.24831 0.0
H2196 H 0.29327 0.34985 0.308 0.0
H2197 H 0.30672 0.38392 0.27199 0.0
H2198 H 0.24359 0.46083 0.31253 0.0
H2199 H 0.26152 0.44417 0.257 0.0
Li2200 Li 0.59967 0.25976 0.34923 0.0
Li2201 Li 0.60795 0.24396 0.32295 0.0
Li2202 Li 0.60851 0.26894 0.31654 0.0
Li2203 Li 0.58731 0.25639 0.31533 0.0
C2204 C 0.62745 0.26157 0.35216 0.0
N2205 N 0.64636 0.26858 0.38159 0.0
C2206 C 0.6356 0.25175 0.36111 0.0
C2207 C 0.62905 0.27497 0.35794 0.0
C2208 C 0.64506 0.25549 0.37603 0.0
C2209 C 0.63863 0.27831 0.3729 0.0
C2210 C 0.58689 0.23046 0.34148 0.0
C2211 C 0.57803 0.2096 0.32849 0.0
N2212 N 0.57938 0.20413 0.34775 0.0
C2213 C 0.58804 0.22469 0.3612 0.0
C2214 C 0.58172 0.22292 0.32503 0.0
C2215 C 0.58425 0.21134 0.36403 0.0
C2216 C 0.58979 0.2716 0.38655 0.0
N2217 N 0.59828 0.26233 0.37836 0.0
C2218 C 0.60597 0.25619 0.41218 0.0
C2219 C 0.60608 0.2545 0.39068 0.0
C2220 C 0.59747 0.2658 0.42109 0.0
C2221 C 0.58917 0.27346 0.40809 0.0
H2222 H 0.58354 0.27753 0.37638 0.0
H2223 H 0.61238 0.24691 0.38379 0.0
C2224 C 0.62385 0.2254 0.30097 0.0
N2225 N 0.61772 0.22783 0.31947 0.0
C2226 C 0.63208 0.2142 0.2986 0.0
C2227 C 0.62738 0.20812 0.33426 0.0
C2228 C 0.61935 0.2195 0.336 0.0
C2229 C 0.634 0.20545 0.31545 0.0
H2230 H 0.62265 0.23237 0.28824 0.0
H2231 H 0.6148 0.22195 0.35075 0.0
C2232 C 0.58846 0.28667 0.32984 0.0
N2233 N 0.5828 0.31374 0.32812 0.0
C2234 C 0.57916 0.29154 0.31545 0.0
C2235 C 0.59472 0.29553 0.34357 0.0
C2236 C 0.57648 0.30527 0.31477 0.0
C2237 C 0.59177 0.3092 0.34239 0.0
C2238 C 0.60066 0.25162 0.2771 0.0
C2239 C 0.6023 0.26168 0.26218 0.0
C2240 C 0.59629 0.23892 0.27098 0.0
C2241 C 0.5993 0.25891 0.2414 0.0
C2242 C 0.59339 0.23655 0.25005 0.0
N2243 N 0.59492 0.24652 0.23582 0.0
C2244 C 0.63249 0.28085 0.30444 0.0
C2245 C 0.61345 0.29353 0.29462 0.0
C2246 C 0.641 0.29017 0.29515 0.0
N2247 N 0.619 0.28271 0.30415 0.0
C2248 C 0.6216 0.30317 0.28522 0.0
C2249 C 0.63559 0.30154 0.28537 0.0
H2250 H 0.63663 0.27198 0.31164 0.0
H2251 H 0.60271 0.29461 0.29396 0.0
C2252 C 0.55986 0.25011 0.31404 0.0
N2253 N 0.5701 0.25541 0.30277 0.0
C2254 C 0.54701 0.24927 0.30551 0.0
C2255 C 0.55551 0.25933 0.27395 0.0
C2256 C 0.56812 0.26017 0.28319 0.0
C2257 C 0.54479 0.25384 0.28516 0.0
H2258 H 0.56167 0.24659 0.32969 0.0
H2259 H 0.57625 0.26482 0.27485 0.0
O2260 O 0.61806 0.25807 0.33766 0.0
O2261 O 0.5906 0.2435 0.33841 0.0
O2262 O 0.59116 0.27325 0.33077 0.0
O2263 O 0.60354 0.25418 0.29751 0.0
H2264 H 0.63456 0.24134 0.35669 0.0
H2265 H 0.623 0.2827 0.35086 0.0
H2266 H 0.65137 0.24799 0.3832 0.0
H2267 H 0.63993 0.28863 0.37757 0.0
H2268 H 0.57405 0.20363 0.31588 0.0
H2269 H 0.59192 0.23044 0.37414 0.0
H2270 H 0.58049 0.22732 0.3098 0.0
H2271 H 0.58518 0.20671 0.37918 0.0
H2272 H 0.61231 0.24993 0.42179 0.0
H2273 H 0.58245 0.28092 0.41448 0.0
H2274 H 0.63703 0.21248 0.28384 0.0
H2275 H 0.62884 0.20178 0.34775 0.0
H2276 H 0.57414 0.28481 0.30483 0.0
H2277 H 0.60171 0.29191 0.3551 0.0
H2278 H 0.56937 0.3092 0.30362 0.0
H2279 H 0.59659 0.31618 0.35287 0.0
H2280 H 0.60576 0.27154 0.26663 0.0
H2281 H 0.59524 0.23095 0.28224 0.0
H2282 H 0.60043 0.26663 0.22971 0.0
H2283 H 0.58995 0.22678 0.24511 0.0
H2284 H 0.65169 0.2883 0.29523 0.0
H2285 H 0.61697 0.31178 0.27794 0.0
H2286 H 0.53894 0.24501 0.31462 0.0
H2287 H 0.55409 0.26319 0.25836 0.0
Li2288 Li 0.75624 0.60796 0.32201 0.0
Li2289 Li 0.74103 0.59921 0.34872 0.0
Li2290 Li 0.74371 0.58706 0.31486 0.0
Li2291 Li 0.73108 0.60801 0.31729 0.0
C2292 C 0.76985 0.58504 0.33754 0.0
N2293 N 0.79521 0.57394 0.33861 0.0
C2294 C 0.77654 0.58351 0.35649 0.0
C2295 C 0.776 0.58078 0.31917 0.0
C2296 C 0.78937 0.57792 0.3567 0.0
C2297 C 0.78884 0.57523 0.32002 0.0
C2298 C 0.74189 0.62581 0.35497 0.0
C2299 C 0.72961 0.63655 0.38263 0.0
N2300 N 0.74128 0.64162 0.39022 0.0
C2301 C 0.75375 0.63123 0.36291 0.0
C2302 C 0.72971 0.62859 0.36476 0.0
C2303 C 0.75323 0.63916 0.3808 0.0
C2304 C 0.77092 0.62812 0.30272 0.0
N2305 N 0.77198 0.61819 0.31708 0.0
C2306 C 0.79426 0.62504 0.32557 0.0
C2307 C 0.78335 0.61648 0.32842 0.0
C2308 C 0.79334 0.63559 0.31119 0.0
C2309 C 0.78153 0.63698 0.2995 0.0
H2310 H 0.76169 0.62933 0.29412 0.0
H2311 H 0.78383 0.60881 0.34021 0.0
C2312 C 0.7282 0.59149 0.38643 0.0
N2313 N 0.73922 0.59735 0.37797 0.0
C2314 C 0.72697 0.59036 0.40801 0.0
C2315 C 0.74845 0.60129 0.41167 0.0
C2316 C 0.74932 0.60207 0.39007 0.0
C2317 C 0.73717 0.59535 0.42097 0.0
H2318 H 0.72041 0.58762 0.37643 0.0
H2319 H 0.75805 0.60653 0.38291 0.0
C2320 C 0.7489 0.6015 0.27689 0.0
N2321 N 0.75603 0.59822 0.23567 0.0
C2322 C 0.7391 0.60172 0.26136 0.0
C2323 C 0.76236 0.59991 0.27139 0.0
C2324 C 0.7429 0.59995 0.24063 0.0
C2325 C 0.76575 0.59819 0.25049 0.0
C2326 C 0.71358 0.58902 0.3295 0.0
C2327 C 0.70826 0.57928 0.31624 0.0
C2328 C 0.70495 0.59718 0.34102 0.0
C2329 C 0.69437 0.57802 0.31447 0.0
C2330 C 0.69111 0.59562 0.3388 0.0
N2331 N 0.68615 0.58615 0.32566 0.0
C2332 C 0.75029 0.55958 0.31157 0.0
C2333 C 0.73827 0.5684 0.2829 0.0
C2334 C 0.75067 0.54694 0.30229 0.0
N2335 N 0.7443 0.57001 0.30168 0.0
C2336 C 0.73836 0.55594 0.27308 0.0
C2337 C 0.74464 0.545 0.28278 0.0
H2338 H 0.75468 0.56103 0.32678 0.0
H2339 H 0.73317 0.57672 0.2757 0.0
C2340 C 0.71641 0.63141 0.30956 0.0
N2341 N 0.71676 0.61806 0.30557 0.0
C2342 C 0.70655 0.63946 0.30058 0.0
C2343 C 0.69747 0.61982 0.28371 0.0
C2344 C 0.70762 0.61218 0.29282 0.0
C2345 C 0.69689 0.63369 0.2874 0.0
H2346 H 0.72397 0.63588 0.31941 0.0
H2347 H 0.7083 0.6016 0.28949 0.0
O2348 O 0.75731 0.59057 0.33709 0.0
O2349 O 0.74221 0.61789 0.33761 0.0
O2350 O 0.74536 0.60336 0.29725 0.0
O2351 O 0.72716 0.59047 0.33132 0.0
H2352 H 0.77189 0.58665 0.37088 0.0
H2353 H 0.77086 0.58159 0.30446 0.0
H2354 H 0.79469 0.57674 0.37124 0.0
H2355 H 0.79371 0.5719 0.30591 0.0
H2356 H 0.72026 0.63872 0.39044 0.0
H2357 H 0.76326 0.62923 0.35548 0.0
H2358 H 0.72043 0.62463 0.35865 0.0
H2359 H 0.76234 0.64334 0.3872 0.0
H2360 H 0.80311 0.62378 0.33514 0.0
H2361 H 0.78046 0.64496 0.2882 0.0
H2362 H 0.7182 0.58549 0.41442 0.0
H2363 H 0.75649 0.60546 0.42094 0.0
H2364 H 0.72866 0.60312 0.26528 0.0
H2365 H 0.77013 0.60016 0.28308 0.0
H2366 H 0.7354 0.59997 0.22848 0.0
H2367 H 0.77613 0.5969 0.24604 0.0
H2368 H 0.71479 0.5728 0.30737 0.0
H2369 H 0.70889 0.60468 0.35148 0.0
H2370 H 0.69011 0.57057 0.30419 0.0
H2371 H 0.68432 0.60192 0.34752 0.0
H2372 H 0.75539 0.53871 0.31048 0.0
H2373 H 0.73361 0.5549 0.25803 0.0
H2374 H 0.70675 0.65013 0.30354 0.0
H2375 H 0.6902 0.61488 0.27385 0.0
Li2376 Li 0.39092 0.75697 0.3197 0.0
Li2377 Li 0.39953 0.74167 0.34773 0.0
Li2378 Li 0.41141 0.74398 0.31271 0.0
Li2379 Li 0.39011 0.7334 0.31577 0.0
C2380 C 0.41202 0.76907 0.34492 0.0
N2381 N 0.41919 0.79227 0.36555 0.0
C2382 C 0.40443 0.77359 0.36178 0.0
C2383 C 0.4232 0.77641 0.33845 0.0
C2384 C 0.40824 0.78532 0.37205 0.0
C2385 C 0.42667 0.78811 0.3491 0.0
C2386 C 0.37041 0.73609 0.34284 0.0
C2387 C 0.36122 0.71739 0.36193 0.0
N2388 N 0.34916 0.71944 0.35262 0.0
C2389 C 0.3579 0.73801 0.33351 0.0
C2390 C 0.37208 0.72568 0.35717 0.0
C2391 C 0.3473 0.72948 0.33862 0.0
C2392 C 0.36896 0.7714 0.30627 0.0
N2393 N 0.3813 0.77324 0.31472 0.0
C2394 C 0.37726 0.79679 0.31791 0.0
C2395 C 0.38574 0.7857 0.31988 0.0
C2396 C 0.36413 0.79495 0.31063 0.0
C2397 C 0.36011 0.78213 0.30429 0.0
H2398 H 0.36593 0.7615 0.30143 0.0
H2399 H 0.39572 0.78709 0.32589 0.0
C2400 C 0.41285 0.73342 0.38477 0.0
N2401 N 0.40189 0.73973 0.37691 0.0
C2402 C 0.4145 0.73222 0.4063 0.0
C2403 C 0.39355 0.744 0.41107 0.0
C2404 C 0.39226 0.74487 0.38954 0.0
C2405 C 0.40482 0.73768 0.41972 0.0
H2406 H 0.42033 0.7294 0.37431 0.0
H2407 H 0.38357 0.74968 0.38285 0.0
C2408 C 0.3991 0.7554 0.27886 0.0
N2409 N 0.40648 0.77297 0.24764 0.0
C2410 C 0.39581 0.75265 0.25816 0.0
C2411 C 0.40618 0.76709 0.28364 0.0
C2412 C 0.39963 0.76165 0.24261 0.0
C2413 C 0.4098 0.77585 0.26766 0.0
C2414 C 0.40853 0.71447 0.32486 0.0
C2415 C 0.41072 0.71035 0.30438 0.0
C2416 C 0.40767 0.70495 0.34073 0.0
C2417 C 0.41186 0.69668 0.30005 0.0
C2418 C 0.40888 0.69137 0.33577 0.0
N2419 N 0.41091 0.68756 0.3157 0.0
C2420 C 0.43944 0.74724 0.31146 0.0
C2421 C 0.42972 0.74039 0.27956 0.0
C2422 C 0.45217 0.74739 0.30245 0.0
N2423 N 0.42855 0.74391 0.2999 0.0
C2424 C 0.44225 0.74039 0.26992 0.0
C2425 C 0.4537 0.74396 0.28137 0.0
H2426 H 0.43822 0.7498 0.32769 0.0
H2427 H 0.42092 0.73753 0.27082 0.0
C2428 C 0.37365 0.7223 0.28532 0.0
N2429 N 0.37915 0.71951 0.30414 0.0
C2430 C 0.36519 0.7131 0.27565 0.0
C2431 C 0.368 0.6983 0.30506 0.0
C2432 C 0.3765 0.70777 0.31409 0.0
C2433 C 0.36217 0.70092 0.28557 0.0
H2434 H 0.37574 0.73176 0.27786 0.0
H2435 H 0.38079 0.70581 0.32919 0.0
O2436 O 0.40852 0.75757 0.33469 0.0
O2437 O 0.381 0.7442 0.33781 0.0
O2438 O 0.39552 0.74654 0.29417 0.0
O2439 O 0.40727 0.72778 0.32939 0.0
H2440 H 0.39555 0.76825 0.36661 0.0
H2441 H 0.42909 0.77317 0.32525 0.0
H2442 H 0.40244 0.78895 0.3851 0.0
H2443 H 0.43529 0.79388 0.34425 0.0
H2444 H 0.36241 0.70926 0.3729 0.0
H2445 H 0.35634 0.74595 0.3224 0.0
H2446 H 0.38173 0.72378 0.3642 0.0
H2447 H 0.33759 0.73084 0.33145 0.0
H2448 H 0.38074 0.80657 0.32282 0.0
H2449 H 0.35015 0.78039 0.29816 0.0
H2450 H 0.42335 0.72732 0.41238 0.0
H2451 H 0.38576 0.74815 0.42087 0.0
H2452 H 0.39045 0.74359 0.2541 0.0
H2453 H 0.40889 0.76941 0.29945 0.0
H2454 H 0.39716 0.75962 0.22654 0.0
H2455 H 0.41526 0.78493 0.27117 0.0
H2456 H 0.41135 0.71762 0.29193 0.0
H2457 H 0.40597 0.70801 0.35666 0.0
H2458 H 0.41346 0.69332 0.28425 0.0
H2459 H 0.40817 0.68387 0.34786 0.0
H2460 H 0.46069 0.75031 0.31184 0.0
H2461 H 0.44298 0.73742 0.25376 0.0
H2462 H 0.3611 0.71551 0.26051 0.0
H2463 H 0.3658 0.68916 0.31346 0.0
Li2464 Li 0.26803 0.60859 0.1809 0.0
Li2465 Li 0.25583 0.58728 0.18244 0.0
Li2466 Li 0.25944 0.59924 0.149 0.0
Li2467 Li 0.24305 0.60789 0.17383 0.0
C2468 C 0.28629 0.58941 0.17141 0.0
N2469 N 0.31332 0.58611 0.17913 0.0
C2470 C 0.29062 0.57974 0.18561 0.0
C2471 C 0.2957 0.5973 0.16096 0.0
C2472 C 0.30433 0.57824 0.18933 0.0
C2473 C 0.30932 0.59551 0.16514 0.0
C2474 C 0.24968 0.60326 0.22013 0.0
C2475 C 0.233 0.60293 0.24729 0.0
N2476 N 0.2429 0.60317 0.26182 0.0
C2477 C 0.25968 0.60367 0.23534 0.0
C2478 C 0.23622 0.60303 0.22615 0.0
C2479 C 0.25605 0.60354 0.25633 0.0
C2480 C 0.28063 0.63276 0.19054 0.0
N2481 N 0.28148 0.61933 0.19376 0.0
C2482 C 0.30017 0.62235 0.21654 0.0
C2483 C 0.29097 0.61402 0.2065 0.0
C2484 C 0.2994 0.63627 0.21371 0.0
C2485 C 0.28951 0.64146 0.20044 0.0
H2486 H 0.27287 0.63674 0.18056 0.0
H2487 H 0.29122 0.60337 0.20932 0.0
C2488 C 0.25112 0.5595 0.18386 0.0
N2489 N 0.25487 0.57021 0.19554 0.0
C2490 C 0.25022 0.54679 0.19282 0.0
C2491 C 0.25731 0.55633 0.22556 0.0
C2492 C 0.25808 0.56884 0.21596 0.0
C2493 C 0.2533 0.5451 0.21398 0.0
H2494 H 0.2488 0.56084 0.16756 0.0
H2495 H 0.26142 0.5774 0.22476 0.0
C2496 C 0.25861 0.62539 0.14164 0.0
N2497 N 0.26099 0.64 0.10536 0.0
C2498 C 0.24716 0.63015 0.13155 0.0
C2499 C 0.27127 0.6282 0.13346 0.0
C2500 C 0.24857 0.63748 0.11318 0.0
C2501 C 0.27226 0.63556 0.11504 0.0
C2502 C 0.23092 0.58367 0.16034 0.0
C2503 C 0.22445 0.57947 0.14221 0.0
C2504 C 0.22519 0.58092 0.1797 0.0
C2505 C 0.21225 0.57266 0.14376 0.0
C2506 C 0.21299 0.57408 0.18061 0.0
N2507 N 0.20682 0.57013 0.16277 0.0
C2508 C 0.27379 0.59294 0.11167 0.0
C2509 C 0.2514 0.60041 0.10766 0.0
C2510 C 0.27523 0.59177 0.09011 0.0
N2511 N 0.26202 0.59725 0.11992 0.0
C2512 C 0.25244 0.59955 0.0861 0.0
C2513 C 0.26446 0.59512 0.07698 0.0
H2514 H 0.28202 0.59033 0.1218 0.0
H2515 H 0.24213 0.60371 0.1147 0.0
C2516 C 0.22716 0.6285 0.18969 0.0
N2517 N 0.22688 0.61772 0.1768 0.0
C2518 C 0.216 0.63687 0.19136 0.0
C2519 C 0.2044 0.62274 0.16671 0.0
C2520 C 0.21582 0.61472 0.16538 0.0
C2521 C 0.20444 0.63412 0.17961 0.0
H2522 H 0.23619 0.63076 0.1983 0.0
H2523 H 0.21593 0.60632 0.15484 0.0
O2524 O 0.27291 0.591 0.16756 0.0
O2525 O 0.25305 0.6036 0.19949 0.0
O2526 O 0.25743 0.618 0.15944 0.0
O2527 O 0.24284 0.59038 0.15903 0.0
H2528 H 0.28348 0.57348 0.19372 0.0
H2529 H 0.29251 0.60479 0.14986 0.0
H2530 H 0.30783 0.57083 0.20035 0.0
H2531 H 0.3167 0.60161 0.15727 0.0
H2532 H 0.22262 0.60272 0.25215 0.0
H2533 H 0.27013 0.60391 0.23102 0.0
H2534 H 0.22831 0.60303 0.21467 0.0
H2535 H 0.2637 0.60374 0.26825 0.0
H2536 H 0.30754 0.61798 0.22689 0.0
H2537 H 0.28865 0.65214 0.19776 0.0
H2538 H 0.24702 0.53841 0.18334 0.0
H2539 H 0.26006 0.55543 0.24179 0.0
H2540 H 0.23729 0.62808 0.13772 0.0
H2541 H 0.28023 0.6247 0.14121 0.0
H2542 H 0.2398 0.64115 0.10511 0.0
H2543 H 0.28199 0.63775 0.10845 0.0
H2544 H 0.22878 0.58148 0.1271 0.0
H2545 H 0.23017 0.58389 0.19385 0.0
H2546 H 0.20711 0.56938 0.12986 0.0
H2547 H 0.20846 0.57187 0.1955 0.0
H2548 H 0.28461 0.58811 0.08385 0.0
H2549 H 0.24393 0.60248 0.0767 0.0
H2550 H 0.21663 0.64565 0.2012 0.0
H2551 H 0.19569 0.62012 0.15752 0.0
Li2552 Li 0.39069 0.26911 0.18394 0.0
Li2553 Li 0.41179 0.25665 0.18492 0.0
Li2554 Li 0.39933 0.2596 0.15103 0.0
Li2555 Li 0.39146 0.24417 0.17812 0.0
C2556 C 0.41031 0.28667 0.1661 0.0
N2557 N 0.41562 0.31352 0.15963 0.0
C2558 C 0.41975 0.2933 0.17843 0.0
C2559 C 0.40375 0.29364 0.15024 0.0
C2560 C 0.42224 0.30689 0.17499 0.0
C2561 C 0.40653 0.30723 0.14728 0.0
C2562 C 0.40042 0.25353 0.22333 0.0
C2563 C 0.41094 0.2408 0.25069 0.0
N2564 N 0.40987 0.25155 0.26359 0.0
C2565 C 0.39929 0.26441 0.23691 0.0
C2566 C 0.40616 0.24158 0.23031 0.0
C2567 C 0.40418 0.26322 0.25719 0.0
C2568 C 0.36717 0.28012 0.19957 0.0
N2569 N 0.38033 0.28296 0.19632 0.0
C2570 C 0.37781 0.30438 0.21246 0.0
C2571 C 0.38576 0.29477 0.20262 0.0
C2572 C 0.36419 0.30171 0.21607 0.0
C2573 C 0.35887 0.28941 0.2094 0.0
H2574 H 0.36316 0.27057 0.19465 0.0
H2575 H 0.39631 0.29665 0.20049 0.0
C2576 C 0.43848 0.24775 0.18989 0.0
N2577 N 0.42895 0.25609 0.19763 0.0
C2578 C 0.45112 0.2471 0.19918 0.0
C2579 C 0.44385 0.26364 0.22422 0.0
C2580 C 0.43146 0.26411 0.21424 0.0
C2581 C 0.45393 0.25506 0.21671 0.0
H2582 H 0.4363 0.24165 0.17642 0.0
H2583 H 0.42382 0.27089 0.2198 0.0
C2584 C 0.37066 0.26219 0.15103 0.0
N2585 N 0.34944 0.27062 0.12675 0.0
C2586 C 0.36141 0.2529 0.14339 0.0
C2587 C 0.369 0.27579 0.14658 0.0
C2588 C 0.35078 0.25735 0.13105 0.0
C2589 C 0.35823 0.27985 0.13422 0.0
C2590 C 0.41049 0.23026 0.15771 0.0
C2591 C 0.4086 0.22559 0.13743 0.0
C2592 C 0.41432 0.22131 0.17333 0.0
C2593 C 0.41033 0.21197 0.1332 0.0
C2594 C 0.41593 0.20776 0.16849 0.0
N2595 N 0.41391 0.20341 0.14869 0.0
C2596 C 0.41054 0.26897 0.11289 0.0
C2597 C 0.39113 0.25542 0.11002 0.0
C2598 C 0.41132 0.27014 0.09125 0.0
N2599 N 0.4005 0.26176 0.12176 0.0
C2600 C 0.39144 0.25642 0.08843 0.0
C2601 C 0.40168 0.26378 0.07869 0.0
H2602 H 0.41801 0.2737 0.12261 0.0
H2603 H 0.38351 0.24941 0.11742 0.0
C2604 C 0.37744 0.2246 0.20136 0.0
N2605 N 0.3818 0.22801 0.18204 0.0
C2606 C 0.36936 0.21331 0.20412 0.0
C2607 C 0.37071 0.20911 0.16713 0.0
C2608 C 0.37857 0.22058 0.16506 0.0
C2609 C 0.36586 0.20547 0.18682 0.0
H2610 H 0.37995 0.23084 0.21454 0.0
H2611 H 0.38179 0.22378 0.1498 0.0
O2612 O 0.40781 0.27334 0.16923 0.0
O2613 O 0.39576 0.25454 0.20339 0.0
O2614 O 0.38113 0.25796 0.16311 0.0
O2615 O 0.40872 0.24353 0.16219 0.0
H2616 H 0.42503 0.28803 0.19062 0.0
H2617 H 0.39671 0.28861 0.14016 0.0
H2618 H 0.42945 0.31217 0.18452 0.0
H2619 H 0.4015 0.31275 0.1351 0.0
H2620 H 0.41548 0.23164 0.25626 0.0
H2621 H 0.3948 0.2737 0.23181 0.0
H2622 H 0.40693 0.23302 0.22011 0.0
H2623 H 0.40346 0.27159 0.26783 0.0
H2624 H 0.38235 0.31364 0.21768 0.0
H2625 H 0.3484 0.28699 0.21174 0.0
H2626 H 0.45862 0.24056 0.19251 0.0
H2627 H 0.44542 0.26985 0.2378 0.0
H2628 H 0.36247 0.24234 0.14684 0.0
H2629 H 0.37583 0.28315 0.15281 0.0
H2630 H 0.3436 0.25026 0.12492 0.0
H2631 H 0.35684 0.29035 0.13064 0.0
H2632 H 0.40576 0.2324 0.12511 0.0
H2633 H 0.416 0.22479 0.18903 0.0
H2634 H 0.40881 0.2082 0.1176 0.0
H2635 H 0.41882 0.20071 0.18045 0.0
H2636 H 0.41951 0.27574 0.08445 0.0
H2637 H 0.38369 0.25147 0.0795 0.0
H2638 H 0.36576 0.21082 0.21953 0.0
H2639 H 0.36799 0.20346 0.15338 0.0
Li2640 Li 0.74415 0.41182 0.1823 0.0
Li2641 Li 0.73229 0.3904 0.17997 0.0
Li2642 Li 0.75737 0.39138 0.17453 0.0
Li2643 Li 0.74152 0.39974 0.14863 0.0
C2644 C 0.7504 0.39658 0.22004 0.0
N2645 N 0.758 0.3981 0.26133 0.0
C2646 C 0.74077 0.39586 0.23579 0.0
C2647 C 0.76394 0.39779 0.22535 0.0
C2648 C 0.7448 0.39674 0.25655 0.0
C2649 C 0.76757 0.39862 0.24629 0.0
C2650 C 0.714 0.40889 0.16958 0.0
C2651 C 0.69142 0.40149 0.16278 0.0
N2652 N 0.68672 0.41088 0.17626 0.0
C2653 C 0.70895 0.41854 0.18325 0.0
C2654 C 0.70517 0.40036 0.15913 0.0
C2655 C 0.69513 0.41936 0.18645 0.0
C2656 C 0.74889 0.43963 0.18469 0.0
N2657 N 0.74436 0.42886 0.19556 0.0
C2658 C 0.73974 0.4426 0.22511 0.0
C2659 C 0.7397 0.43013 0.21531 0.0
C2660 C 0.74456 0.45389 0.21441 0.0
C2661 C 0.74916 0.45229 0.19391 0.0
H2662 H 0.75224 0.43839 0.16882 0.0
H2663 H 0.73577 0.42152 0.22339 0.0
C2664 C 0.71818 0.36653 0.18729 0.0
N2665 N 0.71848 0.37979 0.19203 0.0
C2666 C 0.70873 0.35813 0.19656 0.0
C2667 C 0.69991 0.37724 0.21518 0.0
C2668 C 0.70962 0.38524 0.20571 0.0
C2669 C 0.69949 0.36347 0.21079 0.0
H2670 H 0.72543 0.36243 0.17654 0.0
H2671 H 0.71024 0.39575 0.20956 0.0
C2672 C 0.7697 0.41553 0.16057 0.0
N2673 N 0.79391 0.42893 0.16217 0.0
C2674 C 0.77652 0.41866 0.14222 0.0
C2675 C 0.77512 0.41934 0.1797 0.0
C2676 C 0.78878 0.4254 0.14336 0.0
C2677 C 0.78738 0.42608 0.1802 0.0
C2678 C 0.74345 0.3738 0.14115 0.0
C2679 C 0.75551 0.36959 0.13225 0.0
C2680 C 0.73132 0.37071 0.1314 0.0
C2681 C 0.75524 0.3625 0.11352 0.0
C2682 C 0.73148 0.36362 0.11267 0.0
N2683 N 0.74334 0.3597 0.10419 0.0
C2684 C 0.7726 0.37085 0.19158 0.0
C2685 C 0.78513 0.38478 0.16896 0.0
C2686 C 0.78365 0.36251 0.19458 0.0
N2687 N 0.77351 0.38169 0.17888 0.0
C2688 C 0.79648 0.37678 0.17165 0.0
C2689 C 0.7958 0.36536 0.18442 0.0
H2690 H 0.76315 0.36853 0.19901 0.0
H2691 H 0.78557 0.39326 0.15858 0.0
C2692 C 0.72747 0.40527 0.11095 0.0
N2693 N 0.7394 0.40164 0.11945 0.0
C2694 C 0.72611 0.40621 0.08937 0.0
C2695 C 0.74935 0.39977 0.08581 0.0
C2696 C 0.75026 0.399 0.1074 0.0
C2697 C 0.73714 0.40341 0.07649 0.0
H2698 H 0.71903 0.40745 0.12091 0.0
H2699 H 0.75961 0.39611 0.11461 0.0
O2700 O 0.74663 0.39554 0.19962 0.0
O2701 O 0.72751 0.4079 0.16634 0.0
O2702 O 0.75771 0.40889 0.15967 0.0
O2703 O 0.74352 0.381 0.15925 0.0
H2704 H 0.73028 0.39477 0.23205 0.0
H2705 H 0.7716 0.39795 0.21349 0.0
H2706 H 0.73743 0.39632 0.26887 0.0
H2707 H 0.778 0.39961 0.25058 0.0
H2708 H 0.68448 0.39488 0.15492 0.0
H2709 H 0.71563 0.4253 0.19133 0.0
H2710 H 0.7089 0.39286 0.14848 0.0
H2711 H 0.69108 0.42674 0.19705 0.0
H2712 H 0.73613 0.44338 0.24095 0.0
H2713 H 0.75272 0.46077 0.18496 0.0
H2714 H 0.70867 0.34757 0.19268 0.0
H2715 H 0.69308 0.38169 0.22629 0.0
H2716 H 0.77243 0.4159 0.12725 0.0
H2717 H 0.76983 0.4173 0.19399 0.0
H2718 H 0.79419 0.42783 0.12928 0.0
H2719 H 0.79168 0.42909 0.19492 0.0
H2720 H 0.76498 0.3719 0.13959 0.0
H2721 H 0.7219 0.37382 0.13816 0.0
H2722 H 0.7645 0.35925 0.10638 0.0
H2723 H 0.72218 0.36123 0.10488 0.0
H2724 H 0.78253 0.3537 0.20424 0.0
H2725 H 0.80564 0.37946 0.16365 0.0
H2726 H 0.71656 0.40923 0.08287 0.0
H2727 H 0.75806 0.39732 0.07651 0.0
Li2728 Li 0.58846 0.74389 0.1854 0.0
Li2729 Li 0.60956 0.73243 0.18417 0.0
Li2730 Li 0.60901 0.75641 0.18052 0.0
Li2731 Li 0.60096 0.74237 0.15249 0.0
C2732 C 0.60007 0.75442 0.22087 0.0
N2733 N 0.59283 0.77183 0.25238 0.0
C2734 C 0.60461 0.75229 0.24117 0.0
C2735 C 0.5918 0.7654 0.21664 0.0
C2736 C 0.60085 0.7612 0.25687 0.0
C2737 C 0.58827 0.77409 0.23277 0.0
C2738 C 0.58848 0.71536 0.17465 0.0
C2739 C 0.58176 0.69288 0.16574 0.0
N2740 N 0.58028 0.69002 0.1863 0.0
C2741 C 0.58698 0.71218 0.19568 0.0
C2742 C 0.58593 0.70563 0.15954 0.0
C2743 C 0.58279 0.69932 0.20126 0.0
C2744 C 0.56044 0.74784 0.1855 0.0
N2745 N 0.57099 0.74379 0.19729 0.0
C2746 C 0.55656 0.73963 0.22623 0.0
C2747 C 0.56929 0.73974 0.21731 0.0
C2748 C 0.54545 0.74376 0.21447 0.0
C2749 C 0.54751 0.74795 0.19384 0.0
H2750 H 0.56209 0.75095 0.16959 0.0
H2751 H 0.57784 0.73664 0.22643 0.0
C2752 C 0.62549 0.72058 0.21445 0.0
N2753 N 0.61948 0.718 0.19592 0.0
C2754 C 0.63284 0.71063 0.22453 0.0
C2755 C 0.62797 0.6956 0.19603 0.0
C2756 C 0.62051 0.70578 0.18665 0.0
C2757 C 0.63418 0.69798 0.21526 0.0
H2758 H 0.62461 0.7304 0.22135 0.0
H2759 H 0.61554 0.7039 0.17202 0.0
C2760 C 0.5922 0.76873 0.15076 0.0
N2761 N 0.59263 0.78953 0.12241 0.0
C2762 C 0.60428 0.7727 0.14164 0.0
C2763 C 0.58035 0.77537 0.1455 0.0
C2764 C 0.60429 0.78323 0.12734 0.0
C2765 C 0.58077 0.78585 0.13113 0.0
C2766 C 0.62799 0.73544 0.15242 0.0
C2767 C 0.64148 0.73892 0.15026 0.0
C2768 C 0.6232 0.7238 0.14287 0.0
C2769 C 0.64998 0.73065 0.13871 0.0
C2770 C 0.632 0.7158 0.13144 0.0
N2771 N 0.6451 0.71936 0.12962 0.0
C2772 C 0.63238 0.77045 0.18755 0.0
C2773 C 0.61336 0.78469 0.18747 0.0
C2774 C 0.64093 0.78145 0.18889 0.0
N2775 N 0.61892 0.77226 0.18634 0.0
C2776 C 0.62156 0.79601 0.1891 0.0
C2777 C 0.63554 0.79442 0.18928 0.0
H2778 H 0.63649 0.76044 0.18683 0.0
H2779 H 0.60261 0.78586 0.18632 0.0
C2780 C 0.58891 0.73433 0.11442 0.0
N2781 N 0.59947 0.74092 0.12303 0.0
C2782 C 0.58775 0.73337 0.09279 0.0
C2783 C 0.60824 0.74612 0.08944 0.0
C2784 C 0.60911 0.74665 0.11104 0.0
C2785 C 0.59745 0.73944 0.08008 0.0
H2786 H 0.58138 0.72989 0.12436 0.0
H2787 H 0.61751 0.75166 0.11824 0.0
O2788 O 0.60368 0.7457 0.20539 0.0
O2789 O 0.59298 0.72774 0.16884 0.0
O2790 O 0.59188 0.75842 0.16479 0.0
O2791 O 0.61956 0.74351 0.16364 0.0
H2792 H 0.61094 0.74381 0.2448 0.0
H2793 H 0.58806 0.76721 0.20115 0.0
H2794 H 0.6043 0.75966 0.27264 0.0
H2795 H 0.58188 0.78262 0.22969 0.0
H2796 H 0.57975 0.68524 0.15422 0.0
H2797 H 0.58933 0.71947 0.20756 0.0
H2798 H 0.58725 0.70788 0.1432 0.0
H2799 H 0.58163 0.69671 0.21748 0.0
H2800 H 0.55545 0.73651 0.24227 0.0
H2801 H 0.5392 0.75109 0.18418 0.0
H2802 H 0.63763 0.71288 0.23924 0.0
H2803 H 0.62874 0.68592 0.18849 0.0
H2804 H 0.61356 0.76772 0.14555 0.0
H2805 H 0.57092 0.77244 0.15247 0.0
H2806 H 0.61357 0.78639 0.12016 0.0
H2807 H 0.57167 0.79107 0.1269 0.0
H2808 H 0.64536 0.74794 0.15739 0.0
H2809 H 0.61279 0.72095 0.14421 0.0
H2810 H 0.66045 0.73323 0.13694 0.0
H2811 H 0.62842 0.70676 0.12401 0.0
H2812 H 0.65167 0.77985 0.18926 0.0
H2813 H 0.61707 0.80589 0.18928 0.0
H2814 H 0.57927 0.72817 0.08608 0.0
H2815 H 0.616 0.75077 0.08012 0.0
H2816 H 0.34183 0.20532 0.20675 0.0
H2817 H 0.36855 0.18016 0.1713 0.0
H2818 H 0.32519 0.18751 0.20724 0.0
H2819 H 0.35216 0.16201 0.17248 0.0
H2820 H 0.31357 0.13998 0.1551 0.0
H2821 H 0.33154 0.15627 0.15749 0.0
H2822 H 0.31889 0.16643 0.21984 0.0
H2823 H 0.30025 0.15094 0.21679 0.0
C2824 C 0.34424 0.19583 0.19947 0.0
C2825 C 0.35643 0.19411 0.18894 0.0
C2826 C 0.33473 0.18558 0.1998 0.0
C2827 C 0.33727 0.17328 0.18983 0.0
C2828 C 0.34972 0.17142 0.17994 0.0
C2829 C 0.35915 0.18176 0.17936 0.0
C2830 C 0.31451 0.14578 0.16926 0.0
C2831 C 0.3053 0.14421 0.18564 0.0
C2832 C 0.325 0.15499 0.17078 0.0
C2833 C 0.32669 0.16276 0.18885 0.0
C2834 C 0.31779 0.16082 0.20553 0.0
C2835 C 0.30718 0.15175 0.2039 0.0
H2836 H 0.87021 0.31911 0.17419 0.0
H2837 H 0.84106 0.29351 0.2042 0.0
H2838 H 0.85407 0.33751 0.17457 0.0
H2839 H 0.82522 0.312 0.20513 0.0
H2840 H 0.80421 0.35156 0.21899 0.0
H2841 H 0.82208 0.33493 0.22119 0.0
H2842 H 0.83178 0.34172 0.15663 0.0
H2843 H 0.81372 0.35804 0.15415 0.0
C2844 C 0.86041 0.31739 0.18092 0.0
C2845 C 0.85697 0.30477 0.18913 0.0
C2846 C 0.8512 0.32795 0.1812 0.0
C2847 C 0.83842 0.32618 0.18992 0.0
C2848 C 0.83508 0.31371 0.1986 0.0
C2849 C 0.84421 0.30312 0.19811 0.0
C2850 C 0.81011 0.34949 0.20522 0.0
C2851 C 0.80743 0.3561 0.18635 0.0
C2852 C 0.82038 0.34001 0.20653 0.0
C2853 C 0.82829 0.33703 0.18907 0.0
C2854 C 0.82595 0.34394 0.17041 0.0
C2855 C 0.8156 0.35333 0.16903 0.0
H2856 H 0.63545 0.81649 0.2146 0.0
H2857 H 0.65593 0.79876 0.16226 0.0
H2858 H 0.65115 0.83546 0.21381 0.0
H2859 H 0.67146 0.81764 0.16136 0.0
H2860 H 0.68867 0.85939 0.15316 0.0
H2861 H 0.67054 0.84294 0.15429 0.0
H2862 H 0.67689 0.83773 0.2202 0.0
H2863 H 0.69507 0.85421 0.21909 0.0
C2864 C 0.64323 0.81673 0.20287 0.0
C2865 C 0.64457 0.80617 0.18858 0.0
C2866 C 0.65221 0.82751 0.20246 0.0
C2867 C 0.66246 0.82801 0.18748 0.0
C2868 C 0.66357 0.81757 0.17294 0.0
C2869 C 0.65477 0.80673 0.17357 0.0
C2870 C 0.68603 0.85491 0.16795 0.0
C2871 C 0.69329 0.85802 0.18603 0.0
C2872 C 0.67573 0.84545 0.16856 0.0
C2873 C 0.67237 0.83905 0.18731 0.0
C2874 C 0.67923 0.84258 0.20557 0.0
C2875 C 0.68967 0.85191 0.20491 0.0
H2876 H 0.18836 0.64153 0.14706 0.0
H2877 H 0.19415 0.64794 0.21294 0.0
H2878 H 0.17 0.65749 0.14719 0.0
H2879 H 0.17632 0.66458 0.21276 0.0
H2880 H 0.13646 0.68649 0.20938 0.0
H2881 H 0.1527 0.66817 0.20955 0.0
H2882 H 0.16732 0.68107 0.1495 0.0
H2883 H 0.15095 0.6991 0.14921 0.0
C2884 C 0.18566 0.64625 0.16163 0.0
C2885 C 0.19279 0.64343 0.17999 0.0
C2886 C 0.17524 0.65558 0.16163 0.0
C2887 C 0.17174 0.66244 0.17994 0.0
C2888 C 0.17865 0.65941 0.19841 0.0
C2889 C 0.18902 0.64999 0.19845 0.0
C2890 C 0.14313 0.68534 0.19622 0.0
C2891 C 0.14241 0.69419 0.17926 0.0
C2892 C 0.15247 0.67489 0.19632 0.0
C2893 C 0.16134 0.67312 0.17953 0.0
C2894 C 0.16048 0.68193 0.16251 0.0
C2895 C 0.15111 0.6923 0.16234 0.0
H2896 H 0.30793 0.85852 0.28021 0.0
H2897 H 0.30516 0.85417 0.34686 0.0
H2898 H 0.32597 0.84181 0.2794 0.0
H2899 H 0.323 0.83733 0.346 0.0
H2900 H 0.33915 0.79486 0.32724 0.0
H2901 H 0.32298 0.81324 0.32828 0.0
H2902 H 0.35087 0.83864 0.29543 0.0
H2903 H 0.36722 0.82022 0.29465 0.0
C2904 C 0.31128 0.85406 0.29467 0.0
C2905 C 0.30521 0.85761 0.3136 0.0
C2906 C 0.3216 0.84458 0.29421 0.0
C2907 C 0.3258 0.8383 0.31263 0.0
C2908 C 0.31989 0.84202 0.3316 0.0
C2909 C 0.30977 0.85169 0.3321 0.0
C2910 C 0.34181 0.80436 0.32018 0.0
C2911 C 0.35439 0.80614 0.31079 0.0
C2912 C 0.33262 0.81488 0.32092 0.0
C2913 C 0.33574 0.82732 0.312 0.0
C2914 C 0.34825 0.8291 0.30239 0.0
C2915 C 0.35758 0.81862 0.302 0.0
H2916 H 0.2068 0.33749 0.30659 0.0
H2917 H 0.1777 0.36805 0.32167 0.0
H2918 H 0.18918 0.32067 0.30668 0.0
H2919 H 0.16009 0.35104 0.32257 0.0
H2920 H 0.13028 0.31762 0.30386 0.0
H2921 H 0.14731 0.33515 0.30064 0.0
H2922 H 0.1756 0.31006 0.33334 0.0
H2923 H 0.15884 0.29248 0.33591 0.0
C2924 C 0.19662 0.34066 0.3097 0.0
C2925 C 0.19367 0.35413 0.31414 0.0
C2926 C 0.18654 0.33098 0.31002 0.0
C2927 C 0.17327 0.3345 0.31484 0.0
C2928 C 0.17022 0.34802 0.31871 0.0
C2929 C 0.18032 0.35774 0.3184 0.0
C2930 C 0.14017 0.31585 0.31023 0.0
C2931 C 0.1432 0.30368 0.3202 0.0
C2932 C 0.14988 0.32592 0.30854 0.0
C2933 C 0.16282 0.32397 0.31666 0.0
C2934 C 0.16579 0.31182 0.32667 0.0
C2935 C 0.15612 0.3018 0.32839 0.0
H2936 H 0.69984 0.15102 0.28713 0.0
H2937 H 0.68465 0.13824 0.3469 0.0
H2938 H 0.68164 0.16706 0.28425 0.0
H2939 H 0.667 0.15496 0.34467 0.0
H2940 H 0.63046 0.17963 0.32857 0.0
H2941 H 0.64679 0.16141 0.32788 0.0
H2942 H 0.67563 0.18788 0.29903 0.0
H2943 H 0.65919 0.20586 0.29923 0.0
C2944 C 0.69257 0.15154 0.29961 0.0
C2945 C 0.69378 0.14333 0.31729 0.0
C2946 C 0.68223 0.16091 0.29809 0.0
C2947 C 0.6729 0.16243 0.31431 0.0
C2948 C 0.67391 0.15401 0.33178 0.0
C2949 C 0.68418 0.14454 0.33321 0.0
C2950 C 0.64028 0.18148 0.32198 0.0
C2951 C 0.64356 0.19414 0.31392 0.0
C2952 C 0.64966 0.17107 0.32165 0.0
C2953 C 0.66256 0.17316 0.31345 0.0
C2954 C 0.66572 0.1858 0.30511 0.0
C2955 C 0.65631 0.19614 0.30525 0.0
H2956 H 0.82032 0.63098 0.30816 0.0
H2957 H 0.79098 0.66272 0.31055 0.0
H2958 H 0.83826 0.64761 0.30636 0.0
H2959 H 0.80879 0.67931 0.30941 0.0
H2960 H 0.84175 0.70672 0.29015 0.0
H2961 H 0.8251 0.68911 0.28784 0.0
H2962 H 0.84952 0.66383 0.32709 0.0
H2963 H 0.86671 0.68112 0.32812 0.0
C2964 C 0.81773 0.64152 0.30835 0.0
C2965 C 0.80426 0.64557 0.30937 0.0
C2966 C 0.82799 0.65105 0.30741 0.0
C2967 C 0.825 0.66483 0.30769 0.0
C2968 C 0.81149 0.66882 0.30868 0.0
C2969 C 0.80126 0.65931 0.30939 0.0
C2970 C 0.84378 0.6973 0.29789 0.0
C2971 C 0.85563 0.6954 0.30935 0.0
C2972 C 0.83408 0.68725 0.29685 0.0
C2973 C 0.83585 0.67508 0.30748 0.0
C2974 C 0.84783 0.67303 0.31856 0.0
C2975 C 0.85763 0.68304 0.31941 0.0
H2976 H 0.68162 0.86412 0.82886 0.0
H2977 H 0.70419 0.83951 0.78603 0.0
H2978 H 0.66327 0.84815 0.82766 0.0
H2979 H 0.68628 0.82305 0.78609 0.0
H2980 H 0.64831 0.79929 0.77834 0.0
H2981 H 0.66437 0.81766 0.77566 0.0
H2982 H 0.65823 0.82677 0.84074 0.0
H2983 H 0.64184 0.80877 0.84304 0.0
C2984 C 0.68265 0.85537 0.81904 0.0
C2985 C 0.69447 0.8531 0.80764 0.0
C2986 C 0.67218 0.84607 0.81862 0.0
C2987 C 0.6733 0.83419 0.80698 0.0
C2988 C 0.68496 0.83212 0.7951 0.0
C2989 C 0.69536 0.84149 0.79533 0.0
C2990 C 0.65036 0.80532 0.79198 0.0
C2991 C 0.64386 0.80263 0.81089 0.0
C2992 C 0.65961 0.8158 0.79051 0.0
C2993 C 0.66269 0.82371 0.808 0.0
C2994 C 0.65596 0.8211 0.82682 0.0
C2995 C 0.6466 0.81074 0.8282 0.0
H2996 H 0.1314 0.67973 0.81321 0.0
H2997 H 0.16274 0.70925 0.8067 0.0
H2998 H 0.14812 0.66186 0.8118 0.0
H2999 H 0.17944 0.69155 0.80577 0.0
H3000 H 0.20611 0.65746 0.78839 0.0
H3001 H 0.18816 0.67375 0.78552 0.0
H3002 H 0.16563 0.65242 0.83242 0.0
H3003 H 0.18322 0.63557 0.83427 0.0
C3004 C 0.14187 0.68238 0.81151 0.0
C3005 C 0.14576 0.69587 0.80999 0.0
C3006 C 0.15145 0.67217 0.81076 0.0
C3007 C 0.16514 0.67524 0.80865 0.0
C3008 C 0.16898 0.68876 0.80696 0.0
C3009 C 0.1594 0.69894 0.80754 0.0
C3010 C 0.19721 0.65603 0.79777 0.0
C3011 C 0.19618 0.64519 0.81163 0.0
C3012 C 0.18698 0.66552 0.79634 0.0
C3013 C 0.17549 0.66451 0.80891 0.0
C3014 C 0.17428 0.65348 0.82239 0.0
C3015 C 0.18447 0.64391 0.82368 0.0
H3016 H 0.36608 0.18454 0.79816 0.0
H3017 H 0.33887 0.20759 0.83624 0.0
H3018 H 0.34927 0.16673 0.79532 0.0
H3019 H 0.32223 0.1898 0.83363 0.0
H3020 H 0.29054 0.16281 0.80527 0.0
H3021 H 0.30788 0.18 0.80562 0.0
H3022 H 0.33773 0.14988 0.81894 0.0
H3023 H 0.32035 0.13257 0.81825 0.0
C3024 C 0.35652 0.18579 0.8059 0.0
C3025 C 0.35378 0.19743 0.81745 0.0
C3026 C 0.34695 0.17558 0.80439 0.0
C3027 C 0.33443 0.17692 0.81418 0.0
C3028 C 0.33174 0.18856 0.82574 0.0
C3029 C 0.34132 0.19867 0.82741 0.0
C3030 C 0.30083 0.15981 0.80793 0.0
C3031 C 0.30409 0.14634 0.81173 0.0
C3032 C 0.31073 0.16968 0.80835 0.0
C3033 C 0.32413 0.16628 0.81245 0.0
C3034 C 0.32749 0.15276 0.81565 0.0
C3035 C 0.31754 0.14289 0.81541 0.0
H3036 H 0.86726 0.31885 0.80387 0.0
H3037 H 0.83648 0.29004 0.81887 0.0
H3038 H 0.85037 0.33657 0.80239 0.0
H3039 H 0.81971 0.30767 0.81817 0.0
H3040 H 0.79036 0.33841 0.79735 0.0
H3041 H 0.80789 0.32173 0.79564 0.0
H3042 H 0.83576 0.34974 0.82318 0.0
H3043 H 0.81841 0.3669 0.82329 0.0
C3044 C 0.85688 0.31635 0.80694 0.0
C3045 C 0.85314 0.30307 0.81128 0.0
C3046 C 0.84721 0.32649 0.8062 0.0
C3047 C 0.83363 0.32358 0.81004 0.0
C3048 C 0.82999 0.31027 0.8146 0.0
C3049 C 0.83961 0.30015 0.81507 0.0
C3050 C 0.80028 0.34119 0.80258 0.0
C3051 C 0.80291 0.35409 0.81041 0.0
C3052 C 0.81032 0.33149 0.80196 0.0
C3053 C 0.82324 0.33429 0.80951 0.0
C3054 C 0.82596 0.34723 0.81707 0.0
C3055 C 0.81594 0.35704 0.81743 0.0
H3056 H 0.65007 0.19821 0.71162 0.0
H3057 H 0.63548 0.18445 0.65201 0.0
H3058 H 0.66631 0.17996 0.71212 0.0
H3059 H 0.65202 0.16647 0.65234 0.0
H3060 H 0.69602 0.15105 0.64921 0.0
H3061 H 0.67747 0.16679 0.65017 0.0
H3062 H 0.668 0.15429 0.71272 0.0
H3063 H 0.68634 0.13807 0.71161 0.0
C3064 C 0.65015 0.19119 0.69878 0.0
C3065 C 0.64152 0.1929 0.68168 0.0
C3066 C 0.65949 0.18075 0.69907 0.0
C3067 C 0.66048 0.17188 0.6822 0.0
C3068 C 0.65159 0.1733 0.66542 0.0
C3069 C 0.64217 0.18364 0.66521 0.0
C3070 C 0.68985 0.15138 0.66304 0.0
C3071 C 0.69269 0.14318 0.68029 0.0
C3072 C 0.67923 0.16046 0.66359 0.0
C3073 C 0.67128 0.16172 0.68149 0.0
C3074 C 0.67405 0.15357 0.69877 0.0
C3075 C 0.68459 0.14433 0.69814 0.0
H3076 H 0.81492 0.63763 0.6605 0.0
H3077 H 0.79601 0.65404 0.71535 0.0
H3078 H 0.83249 0.65449 0.66296 0.0
H3079 H 0.81394 0.67045 0.71841 0.0
H3080 H 0.83692 0.70843 0.69891 0.0
H3081 H 0.82064 0.69031 0.70002 0.0
H3082 H 0.85156 0.66207 0.68283 0.0
H3083 H 0.86785 0.68031 0.68152 0.0
C3084 C 0.81457 0.64477 0.67318 0.0
C3085 C 0.80398 0.64454 0.68762 0.0
C3086 C 0.82474 0.65433 0.67475 0.0
C3087 C 0.8246 0.66387 0.69084 0.0
C3088 C 0.81426 0.66336 0.70567 0.0
C3089 C 0.80406 0.65384 0.70405 0.0
C3090 C 0.8403 0.69832 0.69571 0.0
C3091 C 0.85367 0.6958 0.6901 0.0
C3092 C 0.83096 0.68792 0.69636 0.0
C3093 C 0.83478 0.67472 0.69149 0.0
C3094 C 0.84824 0.67215 0.68636 0.0
C3095 C 0.85757 0.68258 0.68564 0.0
H3096 H 0.31898 0.86496 0.67655 0.0
H3097 H 0.29121 0.83687 0.70404 0.0
H3098 H 0.33639 0.84773 0.67661 0.0
H3099 H 0.30868 0.8198 0.70455 0.0
H3100 H 0.33671 0.7891 0.67351 0.0
H3101 H 0.32009 0.80683 0.67697 0.0
H3102 H 0.3506 0.83364 0.70017 0.0
H3103 H 0.36736 0.81587 0.69634 0.0
C3104 C 0.31664 0.85515 0.68277 0.0
C3105 C 0.30371 0.85225 0.6902 0.0
C3106 C 0.32664 0.84533 0.68298 0.0
C3107 C 0.32387 0.8324 0.69047 0.0
C3108 C 0.31106 0.82963 0.69847 0.0
C3109 C 0.3011 0.83946 0.69837 0.0
C3110 C 0.33989 0.79879 0.67926 0.0
C3111 C 0.35335 0.80113 0.68453 0.0
C3112 C 0.33035 0.8089 0.68146 0.0
C3113 C 0.33404 0.82161 0.68891 0.0
C3114 C 0.34749 0.82396 0.69429 0.0
C3115 C 0.35705 0.81378 0.69223 0.0
H3116 H 0.13124 0.31956 0.67021 0.0
H3117 H 0.15558 0.2987 0.71538 0.0
H3118 H 0.1466 0.33852 0.6714 0.0
H3119 H 0.17131 0.31726 0.71566 0.0
H3120 H 0.19391 0.35563 0.72276 0.0
H3121 H 0.17531 0.33985 0.72536 0.0
H3122 H 0.16863 0.34337 0.65914 0.0
H3123 H 0.18697 0.35939 0.65676 0.0
C3124 C 0.13978 0.31906 0.68057 0.0
C3125 C 0.14222 0.30754 0.69258 0.0
C3126 C 0.14869 0.32987 0.68105 0.0
C3127 C 0.16028 0.3294 0.69348 0.0
C3128 C 0.16244 0.31807 0.70604 0.0
C3129 C 0.1535 0.30731 0.70566 0.0
C3130 C 0.18836 0.3531 0.70882 0.0
C3131 C 0.19192 0.35867 0.68954 0.0
C3132 C 0.17773 0.34403 0.71028 0.0
C3133 C 0.17052 0.34022 0.69243 0.0
C3134 C 0.17381 0.34619 0.67327 0.0
C3135 C 0.18436 0.35535 0.67186 0.0
H3136 H 0.24899 0.079 0.05247 0.0
H3137 H 0.21894 0.11008 0.05097 0.0
H3138 H 0.24863 0.07781 0.01463 0.0
H3139 H 0.21887 0.10928 0.01303 0.0
H3140 H 0.21457 0.09806 0.94505 0.0
H3141 H 0.21316 0.09679 0.98282 0.0
H3142 H 0.25598 0.09056 0.98601 0.0
H3143 H 0.25723 0.09091 0.94837 0.0
C3144 C 0.24233 0.08561 0.04398 0.0
C3145 C 0.23405 0.09468 0.0546 0.0
C3146 C 0.24216 0.08498 0.02229 0.0
C3147 C 0.23383 0.09355 0.01069 0.0
C3148 C 0.22529 0.10241 0.02141 0.0
C3149 C 0.22536 0.10292 0.04315 0.0
C3150 C 0.22364 0.09618 0.95379 0.0
C3151 C 0.23602 0.09463 0.9436 0.0
C3152 C 0.22287 0.09563 0.9755 0.0
C3153 C 0.23446 0.09361 0.98755 0.0
C3154 C 0.2468 0.09195 0.97731 0.0
C3155 C 0.24756 0.09237 0.95565 0.0
H3156 H 0.89823 0.21577 0.94644 0.0
H3157 H 0.90981 0.25748 0.94898 0.0
H3158 H 0.89793 0.21496 0.98442 0.0
H3159 H 0.90912 0.2567 0.9868 0.0
H3160 H 0.88971 0.25396 0.05136 0.0
H3161 H 0.89079 0.25381 0.01355 0.0
H3162 H 0.91391 0.21727 0.0153 0.0
H3163 H 0.91318 0.21757 0.0533 0.0
C3164 C 0.90085 0.22472 0.95504 0.0
C3165 C 0.90395 0.23672 0.94461 0.0
C3166 C 0.90063 0.22425 0.97679 0.0
C3167 C 0.90338 0.2358 0.98852 0.0
C3168 C 0.90672 0.24771 0.97813 0.0
C3169 C 0.90707 0.24815 0.95645 0.0
C3170 C 0.89517 0.24596 0.04376 0.0
C3171 C 0.90148 0.23585 0.05543 0.0
C3172 C 0.89575 0.24587 0.02208 0.0
C3173 C 0.90252 0.23558 0.01152 0.0
C3174 C 0.90855 0.22528 0.02307 0.0
C3175 C 0.90809 0.22544 0.04482 0.0
H3176 H 0.77284 0.91904 0.94623 0.0
H3177 H 0.75164 0.88133 0.94634 0.0
H3178 H 0.77382 0.91853 0.98417 0.0
H3179 H 0.75274 0.8807 0.98418 0.0
H3180 H 0.74267 0.89234 0.05098 0.0
H3181 H 0.74288 0.89231 0.01317 0.0
H3182 H 0.78365 0.90689 0.01361 0.0
H3183 H 0.78323 0.90748 0.05157 0.0
C3184 C 0.76854 0.91057 0.95437 0.0
C3185 C 0.76206 0.90028 0.94334 0.0
C3186 C 0.76912 0.91026 0.97609 0.0
C3187 C 0.76329 0.89961 0.98723 0.0
C3188 C 0.75709 0.88918 0.97612 0.0
C3189 C 0.75646 0.88953 0.95444 0.0
C3190 C 0.75164 0.89566 0.04303 0.0
C3191 C 0.7629 0.9 0.0543 0.0
C3192 C 0.75183 0.89547 0.02133 0.0
C3193 C 0.76329 0.89957 0.01034 0.0
C3194 C 0.77461 0.90379 0.0216 0.0
C3195 C 0.77442 0.90399 0.04335 0.0
H3196 H 0.07774 0.77216 0.94604 0.0
H3197 H 0.11964 0.76146 0.94588 0.0
H3198 H 0.07802 0.77313 0.98401 0.0
H3199 H 0.12011 0.76282 0.9837 0.0
H3200 H 0.11222 0.74941 0.04997 0.0
H3201 H 0.11213 0.75023 0.01228 0.0
H3202 H 0.08602 0.78476 0.01414 0.0
H3203 H 0.08547 0.78344 0.05202 0.0
C3204 C 0.08705 0.77023 0.95415 0.0
C3205 C 0.09863 0.7666 0.94309 0.0
C3206 C 0.08725 0.77083 0.97589 0.0
C3207 C 0.09906 0.76793 0.98697 0.0
C3208 C 0.11075 0.76479 0.97574 0.0
C3209 C 0.11051 0.76406 0.95408 0.0
C3210 C 0.10632 0.7571 0.04239 0.0
C3211 C 0.09876 0.76629 0.05408 0.0
C3212 C 0.10644 0.7577 0.02072 0.0
C3213 C 0.09911 0.7676 0.01011 0.0
C3214 C 0.09167 0.77692 0.02178 0.0
C3215 C 0.09149 0.77626 0.04352 0.0
H3216 H 0.21645 0.9065 0.44712 0.0
H3217 H 0.25963 0.90927 0.44764 0.0
H3218 H 0.21625 0.90655 0.48509 0.0
H3219 H 0.25945 0.90953 0.48553 0.0
H3220 H 0.25523 0.89245 0.55088 0.0
H3221 H 0.25516 0.89403 0.51319 0.0
H3222 H 0.22047 0.91988 0.51587 0.0
H3223 H 0.22015 0.91776 0.5537 0.0
C3224 C 0.22588 0.90732 0.45537 0.0
C3225 C 0.23806 0.90777 0.44442 0.0
C3226 C 0.22577 0.90737 0.47712 0.0
C3227 C 0.23784 0.90794 0.48838 0.0
C3228 C 0.24999 0.90879 0.47737 0.0
C3229 C 0.2501 0.90866 0.45566 0.0
C3230 C 0.24749 0.89836 0.54346 0.0
C3231 C 0.23763 0.90489 0.55533 0.0
C3232 C 0.24757 0.89943 0.52182 0.0
C3233 C 0.23784 0.90712 0.51147 0.0
C3234 C 0.22804 0.91377 0.52334 0.0
C3235 C 0.22794 0.91268 0.54503 0.0
H3236 H 0.09878 0.25798 0.55128 0.0
H3237 H 0.08875 0.21601 0.55615 0.0
H3238 H 0.09702 0.25662 0.51353 0.0
H3239 H 0.0868 0.21468 0.51822 0.0
H3240 H 0.10296 0.21621 0.44954 0.0
H3241 H 0.10241 0.21634 0.48751 0.0
H3242 H 0.07958 0.25308 0.48644 0.0
H3243 H 0.07993 0.25288 0.44855 0.0
C3244 C 0.09618 0.24846 0.54425 0.0
C3245 C 0.09396 0.23708 0.55663 0.0
C3246 C 0.09505 0.24771 0.52266 0.0
C3247 C 0.09174 0.23555 0.51293 0.0
C3248 C 0.08943 0.22417 0.5253 0.0
C3249 C 0.09045 0.22495 0.54698 0.0
C3250 C 0.09761 0.22418 0.45738 0.0
C3251 C 0.09161 0.23461 0.44599 0.0
C3252 C 0.09731 0.22426 0.47913 0.0
C3253 C 0.09106 0.23478 0.48992 0.0
C3254 C 0.08469 0.24496 0.47854 0.0
C3255 C 0.08492 0.24486 0.45684 0.0
H3256 H 0.76788 0.07304 0.55473 0.0
H3257 H 0.77098 0.11617 0.55192 0.0
H3258 H 0.76957 0.07192 0.51683 0.0
H3259 H 0.77239 0.11507 0.5141 0.0
H3260 H 0.78489 0.10795 0.44721 0.0
H3261 H 0.7868 0.10732 0.4851 0.0
H3262 H 0.75454 0.07852 0.48784 0.0
H3263 H 0.75283 0.07894 0.45 0.0
C3264 C 0.76909 0.08226 0.54603 0.0
C3265 C 0.76922 0.0947 0.55626 0.0
C3266 C 0.76994 0.08163 0.52435 0.0
C3267 C 0.77105 0.09341 0.51249 0.0
C3268 C 0.77165 0.10581 0.5228 0.0
C3269 C 0.77071 0.10645 0.54444 0.0
C3270 C 0.77836 0.10133 0.45591 0.0
C3271 C 0.76866 0.09355 0.44567 0.0
C3272 C 0.77938 0.10105 0.47759 0.0
C3273 C 0.77079 0.09291 0.48944 0.0
C3274 C 0.76138 0.08481 0.47913 0.0
C3275 C 0.7603 0.08516 0.45749 0.0
H3276 H 0.9081 0.74212 0.55105 0.0
H3277 H 0.89903 0.78445 0.55307 0.0
H3278 H 0.90848 0.74293 0.5133 0.0
H3279 H 0.90015 0.78541 0.51522 0.0
H3280 H 0.88721 0.77789 0.44727 0.0
H3281 H 0.88767 0.77825 0.48522 0.0
H3282 H 0.92138 0.75105 0.48475 0.0
H3283 H 0.92069 0.7505 0.44688 0.0
C3284 C 0.90621 0.75162 0.54344 0.0
C3285 C 0.90345 0.7632 0.55512 0.0
C3286 C 0.90662 0.75212 0.52177 0.0
C3287 C 0.90438 0.76424 0.51118 0.0
C3288 C 0.90179 0.77588 0.52285 0.0
C3289 C 0.90131 0.77536 0.54458 0.0
C3290 C 0.89479 0.77211 0.45532 0.0
C3291 C 0.90385 0.7641 0.44415 0.0
C3292 C 0.89509 0.77233 0.47705 0.0
C3293 C 0.90451 0.76462 0.48806 0.0
C3294 C 0.9138 0.75689 0.4768 0.0
C3295 C 0.91344 0.7566 0.45511 0.0
H3296 H 0.74867 0.57844 0.55289 0.0
H3297 H 0.71906 0.60992 0.55132 0.0
H3298 H 0.74835 0.57726 0.51504 0.0
H3299 H 0.71905 0.60917 0.51337 0.0
H3300 H 0.71474 0.59816 0.44537 0.0
H3301 H 0.71324 0.59685 0.48312 0.0
H3302 H 0.75594 0.58989 0.4865 0.0
H3303 H 0.75727 0.59026 0.44886 0.0
C3304 C 0.74212 0.58514 0.54437 0.0
C3305 C 0.73394 0.59432 0.55497 0.0
C3306 C 0.74197 0.58452 0.52269 0.0
C3307 C 0.73378 0.59322 0.51107 0.0
C3308 C 0.72536 0.6022 0.52177 0.0
C3309 C 0.72538 0.60268 0.5435 0.0
C3310 C 0.72377 0.5961 0.45415 0.0
C3311 C 0.73614 0.59436 0.44401 0.0
C3312 C 0.72294 0.59554 0.47584 0.0
C3313 C 0.73447 0.5933 0.48794 0.0
C3314 C 0.7468 0.59144 0.47775 0.0
C3315 C 0.74761 0.59188 0.4561 0.0
H3316 H 0.40093 0.75775 0.44776 0.0
H3317 H 0.41227 0.71609 0.44338 0.0
H3318 H 0.4024 0.75655 0.48553 0.0
H3319 H 0.41398 0.71494 0.48136 0.0
H3320 H 0.39726 0.71593 0.54963 0.0
H3321 H 0.39824 0.71603 0.51168 0.0
H3322 H 0.41935 0.75378 0.5132 0.0
H3323 H 0.41854 0.75363 0.55107 0.0
C3324 C 0.40377 0.74834 0.4549 0.0
C3325 C 0.40642 0.737 0.44263 0.0
C3326 C 0.40474 0.74768 0.47652 0.0
C3327 C 0.40833 0.73565 0.48641 0.0
C3328 C 0.41111 0.72432 0.47416 0.0
C3329 C 0.41024 0.72501 0.45245 0.0
C3330 C 0.40231 0.72413 0.54189 0.0
C3331 C 0.4077 0.73484 0.5534 0.0
C3332 C 0.40287 0.72419 0.52015 0.0
C3333 C 0.40877 0.73496 0.50947 0.0
C3334 C 0.41452 0.74545 0.52099 0.0
C3335 C 0.41402 0.74538 0.54269 0.0
H3336 H 0.27514 0.42209 0.44643 0.0
H3337 H 0.25413 0.38428 0.44902 0.0
H3338 H 0.27731 0.42192 0.48427 0.0
H3339 H 0.25577 0.3844 0.48673 0.0
H3340 H 0.27083 0.38182 0.55248 0.0
H3341 H 0.27164 0.38204 0.51459 0.0
H3342 H 0.26322 0.42452 0.51479 0.0
H3343 H 0.2626 0.42429 0.55274 0.0
C3344 C 0.27104 0.41372 0.45506 0.0
C3345 C 0.2644 0.40323 0.44472 0.0
C3346 C 0.27216 0.4137 0.47675 0.0
C3347 C 0.2667 0.40316 0.48855 0.0
C3348 C 0.26023 0.39259 0.47814 0.0
C3349 C 0.25913 0.39261 0.45652 0.0
C3350 C 0.26918 0.3912 0.5444 0.0
C3351 C 0.26655 0.40302 0.55555 0.0
C3352 C 0.26962 0.39134 0.52271 0.0
C3353 C 0.26737 0.40327 0.51164 0.0
C3354 C 0.26514 0.41518 0.52283 0.0
C3355 C 0.26477 0.41506 0.54457 0.0
H3356 H 0.57849 0.2771 0.55287 0.0
H3357 H 0.61639 0.25618 0.55062 0.0
H3358 H 0.57875 0.27918 0.51516 0.0
H3359 H 0.61613 0.25732 0.51301 0.0
H3360 H 0.61875 0.27004 0.44659 0.0
H3361 H 0.61877 0.27149 0.48442 0.0
H3362 H 0.57572 0.26631 0.48479 0.0
H3363 H 0.57576 0.26552 0.44684 0.0
C3364 C 0.5869 0.27297 0.54438 0.0
C3365 C 0.59739 0.26641 0.55487 0.0
C3366 C 0.58695 0.27399 0.52269 0.0
C3367 C 0.59743 0.26838 0.51093 0.0
C3368 C 0.60798 0.26195 0.52147 0.0
C3369 C 0.60801 0.26108 0.54312 0.0
C3370 C 0.6093 0.26933 0.45483 0.0
C3371 C 0.59726 0.2676 0.4439 0.0
C3372 C 0.6093 0.27007 0.47651 0.0
C3373 C 0.59726 0.26884 0.48777 0.0
C3374 C 0.58517 0.26746 0.4767 0.0
C3375 C 0.58516 0.26695 0.45496 0.0
H3376 H 0.72479 0.38456 0.94621 0.0
H3377 H 0.74314 0.42374 0.94488 0.0
H3378 H 0.72456 0.38518 0.98413 0.0
H3379 H 0.74278 0.42446 0.98278 0.0
H3380 H 0.75546 0.41342 0.04897 0.0
H3381 H 0.75417 0.4137 0.0112 0.0
H3382 H 0.71467 0.39605 0.0141 0.0
H3383 H 0.71624 0.3952 0.05195 0.0
C3384 C 0.72859 0.39339 0.95403 0.0
C3385 C 0.73405 0.40407 0.94259 0.0
C3386 C 0.72844 0.39376 0.97576 0.0
C3387 C 0.73372 0.40484 0.98651 0.0
C3388 C 0.73887 0.41566 0.975 0.0
C3389 C 0.73907 0.41526 0.9533 0.0
C3390 C 0.74654 0.40951 0.04156 0.0
C3391 C 0.73599 0.40421 0.05349 0.0
C3392 C 0.74572 0.40983 0.0199 0.0
C3393 C 0.73431 0.40491 0.00961 0.0
C3394 C 0.72366 0.39979 0.02153 0.0
C3395 C 0.72449 0.39945 0.04324 0.0
H3396 H 0.59925 0.7603 0.05308 0.0
H3397 H 0.59331 0.71751 0.0555 0.0
H3398 H 0.59855 0.75959 0.01526 0.0
H3399 H 0.59316 0.71661 0.01753 0.0
H3400 H 0.58189 0.7215 0.94895 0.0
H3401 H 0.58121 0.72203 0.98692 0.0
H3402 H 0.6117 0.75284 0.98693 0.0
H3403 H 0.6119 0.75262 0.94908 0.0
C3404 C 0.59787 0.75072 0.04543 0.0
C3405 C 0.59639 0.73895 0.05714 0.0
C3406 C 0.59756 0.75028 0.02375 0.0
C3407 C 0.59597 0.73802 0.01323 0.0
C3408 C 0.59425 0.72626 0.02504 0.0
C3409 C 0.59438 0.72674 0.04679 0.0
C3410 C 0.58844 0.72835 0.95717 0.0
C3411 C 0.59688 0.73709 0.94615 0.0
C3412 C 0.58811 0.72863 0.97891 0.0
C3413 C 0.59634 0.73755 0.99008 0.0
C3414 C 0.60497 0.74608 0.97892 0.0
C3415 C 0.60515 0.74592 0.95722 0.0
H3416 H 0.28637 0.60052 0.05241 0.0
H3417 H 0.24522 0.58715 0.04924 0.0
H3418 H 0.28802 0.59905 0.01469 0.0
H3419 H 0.24656 0.58665 0.01164 0.0
H3420 H 0.25471 0.57606 0.94536 0.0
H3421 H 0.25543 0.57505 0.9832 0.0
H3422 H 0.28085 0.61015 0.98417 0.0
H3423 H 0.28054 0.61071 0.94621 0.0
C3424 C 0.27768 0.59723 0.04372 0.0
C3425 C 0.26564 0.59401 0.05395 0.0
C3426 C 0.27857 0.59657 0.02202 0.0
C3427 C 0.26742 0.59277 0.01001 0.0
C3428 C 0.25544 0.58943 0.0203 0.0
C3429 C 0.25459 0.58994 0.04194 0.0
C3430 C 0.26053 0.58348 0.95373 0.0
C3431 C 0.26752 0.5935 0.94294 0.0
C3432 C 0.26088 0.58297 0.97542 0.0
C3433 C 0.26806 0.59262 0.98686 0.0
C3434 C 0.27535 0.60245 0.97594 0.0
C3435 C 0.27515 0.60282 0.9542 0.0
H3436 H 0.38094 0.25923 0.94872 0.0
H3437 H 0.42113 0.2754 0.9473 0.0
H3438 H 0.3816 0.25904 0.98657 0.0
H3439 H 0.42153 0.27561 0.98531 0.0
H3440 H 0.40895 0.28531 0.05446 0.0
H3441 H 0.40907 0.28668 0.01647 0.0
H3442 H 0.3956 0.24567 0.01278 0.0
H3443 H 0.3959 0.24406 0.05052 0.0
C3444 C 0.38993 0.26272 0.95643 0.0
C3445 C 0.40105 0.26716 0.9449 0.0
C3446 C 0.39026 0.26267 0.97812 0.0
C3447 C 0.40165 0.26721 0.98881 0.0
C3448 C 0.4126 0.27212 0.97741 0.0
C3449 C 0.41233 0.27203 0.95565 0.0
C3450 C 0.40621 0.27652 0.04556 0.0
C3451 C 0.40228 0.26462 0.05561 0.0
C3452 C 0.40623 0.27734 0.02383 0.0
C3453 C 0.4022 0.26633 0.01177 0.0
C3454 C 0.39851 0.25439 0.02175 0.0
C3455 C 0.39864 0.25351 0.04339 0.0
H3456 H 0.23259 0.04002 0.25252 0.0
H3457 H 0.25234 0.02244 0.19937 0.0
H3458 H 0.23281 0.01831 0.27003 0.0
H3459 H 0.2524 0.00072 0.21665 0.0
H3460 H 0.26323 0.96743 0.26189 0.0
H3461 H 0.26299 0.98935 0.24518 0.0
H3462 H 0.22296 0.99627 0.26851 0.0
H3463 H 0.2233 0.9744 0.28543 0.0
C3464 C 0.23684 0.03147 0.24451 0.0
C3465 C 0.24248 0.03293 0.22462 0.0
C3466 C 0.23696 0.01904 0.25451 0.0
C3467 C 0.24267 0.00777 0.24478 0.0
C3468 C 0.24816 0.00923 0.22477 0.0
C3469 C 0.2481 0.02167 0.21483 0.0
C3470 C 0.25436 0.97362 0.26336 0.0
C3471 C 0.24328 0.96918 0.27493 0.0
C3472 C 0.25421 0.98617 0.25376 0.0
C3473 C 0.24293 0.99455 0.25542 0.0
C3474 C 0.23188 0.99015 0.26715 0.0
C3475 C 0.23207 0.97762 0.27683 0.0
H3476 H 0.96031 0.24818 0.2539 0.0
H3477 H 0.97878 0.23427 0.19714 0.0
H3478 H 0.98215 0.24852 0.27086 0.0
H3479 H 0.00062 0.23436 0.21416 0.0
H3480 H 0.03908 0.24968 0.24467 0.0
H3481 H 0.01727 0.2494 0.22757 0.0
H3482 H 0.99924 0.23385 0.28373 0.0
H3483 H 0.021 0.23437 0.30087 0.0
C3484 C 0.96904 0.24506 0.24513 0.0
C3485 C 0.96785 0.2412 0.2242 0.0
C3486 C 0.98156 0.24523 0.25484 0.0
C3487 C 0.99316 0.24146 0.24389 0.0
C3488 C 0.99194 0.23755 0.22296 0.0
C3489 C 0.97942 0.23746 0.21321 0.0
C3490 C 0.03046 0.24613 0.25329 0.0
C3491 C 0.03174 0.24209 0.27412 0.0
C3492 C 0.01796 0.24594 0.24349 0.0
C3493 C 0.00648 0.24161 0.25427 0.0
C3494 C 0.00781 0.23748 0.27507 0.0
C3495 C 0.02029 0.23775 0.2849 0.0
H3496 H 0.74358 0.02116 0.29866 0.0
H3497 H 0.76553 0.03926 0.24801 0.0
H3498 H 0.74337 -0.00014 0.28011 0.0
H3499 H 0.7653 0.01795 0.22943 0.0
H3500 H 0.77499 0.97386 0.21444 0.0
H3501 H 0.77493 0.99549 0.23204 0.0
H3502 H 0.7335 0.98957 0.24924 0.0
H3503 H 0.73355 0.96794 0.2316 0.0
C3504 C 0.74827 0.02061 0.28349 0.0
C3505 C 0.75458 0.03188 0.27481 0.0
C3506 C 0.74813 0.00841 0.27285 0.0
C3507 C 0.7543 0.00722 0.25329 0.0
C3508 C 0.76062 0.0185 0.2446 0.0
C3509 C 0.76076 0.0307 0.25525 0.0
C3510 C 0.76582 0.97725 0.22175 0.0
C3511 C 0.75428 0.96917 0.22166 0.0
C3512 C 0.76579 0.98964 0.23185 0.0
C3513 C 0.75422 0.99422 0.24208 0.0
C3514 C 0.74264 0.98622 0.24179 0.0
C3515 C 0.74266 0.97383 0.23168 0.0
H3516 H 0.02056 0.76474 0.19704 0.0
H3517 H 0.03885 0.74832 0.25229 0.0
H3518 H 0.99886 0.76497 0.21447 0.0
H3519 H 0.01713 0.74828 0.26965 0.0
H3520 H 0.97921 0.76338 0.30153 0.0
H3521 H 0.00087 0.76329 0.28398 0.0
H3522 H 0.98166 0.75037 0.22716 0.0
H3523 H 0.95999 0.75074 0.24467 0.0
C3524 C 0.0199 0.76105 0.21285 0.0
C3525 C 0.03139 0.75654 0.22333 0.0
C3526 C 0.00747 0.76115 0.22284 0.0
C3527 C 0.00624 0.75665 0.24348 0.0
C3528 C 0.01775 0.75204 0.25388 0.0
C3529 C 0.03019 0.75203 0.24394 0.0
C3530 C 0.97965 0.76046 0.28532 0.0
C3531 C 0.96792 0.75707 0.27446 0.0
C3532 C 0.99206 0.76037 0.27526 0.0
C3533 C 0.99302 0.7568 0.25415 0.0
C3534 C 0.98126 0.75339 0.24333 0.0
C3535 C 0.96885 0.75357 0.25335 0.0
H3536 H 0.74093 0.97716 0.80063 0.0
H3537 H 0.76147 0.9612 0.74693 0.0
H3538 H 0.74058 0.99928 0.78444 0.0
H3539 H 0.76121 0.98328 0.73082 0.0
H3540 H 0.74667 0.02124 0.69916 0.0
H3541 H 0.74588 0.99928 0.71561 0.0
H3542 H 0.75569 0.0173 0.77478 0.0
H3543 H 0.7559 0.03936 0.75849 0.0
C3544 C 0.74545 0.9784 0.78543 0.0
C3545 C 0.7512 0.96743 0.77504 0.0
C3546 C 0.74526 0.99107 0.77617 0.0
C3547 C 0.75084 0.99305 0.75632 0.0
C3548 C 0.7566 0.98206 0.74596 0.0
C3549 C 0.75676 0.9694 0.75519 0.0
C3550 C 0.74847 0.02055 0.71573 0.0
C3551 C 0.75135 0.03206 0.72751 0.0
C3552 C 0.74818 0.00793 0.72511 0.0
C3553 C 0.75078 0.00652 0.74649 0.0
C3554 C 0.75352 0.01805 0.75831 0.0
C3555 C 0.75381 0.03067 0.74893 0.0
H3556 H 0.95949 0.74541 0.75532 0.0
H3557 H 0.97806 0.75863 0.69824 0.0
H3558 H 0.98142 0.7444 0.77198 0.0
H3559 H -3e-05 0.75784 0.71493 0.0
H3560 H 0.03847 0.74358 0.74524 0.0
H3561 H 0.01649 0.74278 0.72872 0.0
H3562 H 0.9986 0.75925 0.78435 0.0
H3563 H 0.02055 0.75982 0.80093 0.0
C3564 C 0.96827 0.74816 0.74638 0.0
C3565 C 0.96707 0.75212 0.72549 0.0
C3566 C 0.98083 0.74761 0.75592 0.0
C3567 C 0.99246 0.75108 0.74482 0.0
C3568 C 0.99125 0.7549 0.72385 0.0
C3569 C 0.9787 0.75537 0.71428 0.0
C3570 C 0.02983 0.74704 0.7539 0.0
C3571 C 0.03123 0.75179 0.77436 0.0
C3572 C 0.01724 0.74661 0.74444 0.0
C3573 C 0.00578 0.751 0.75517 0.0
C3574 C 0.00718 0.7556 0.77574 0.0
C3575 C 0.01976 0.75595 0.78524 0.0
H3576 H 0.22705 0.96494 0.74173 0.0
H3577 H 0.2647 0.97321 0.7111 0.0
H3578 H 0.2278 0.98688 0.75824 0.0
H3579 H 0.26535 0.99526 0.72749 0.0
H3580 H 0.25314 0.03889 0.74288 0.0
H3581 H 0.25306 0.01683 0.72647 0.0
H3582 H 0.24108 0.9989 0.78472 0.0
H3583 H 0.24083 0.02099 0.80099 0.0
C3584 C 0.23555 0.97139 0.73865 0.0
C3585 C 0.24584 0.96729 0.72514 0.0
C3586 C 0.23597 0.98397 0.74811 0.0
C3587 C 0.24666 0.99278 0.74423 0.0
C3588 C 0.25691 0.98875 0.73061 0.0
C3589 C 0.25652 0.97613 0.72119 0.0
C3590 C 0.25044 0.03024 0.75215 0.0
C3591 C 0.24696 0.03167 0.77321 0.0
C3592 C 0.25052 0.0176 0.7428 0.0
C3593 C 0.24703 0.00614 0.7543 0.0
C3594 C 0.24368 0.00757 0.77541 0.0
C3595 C 0.24367 0.02019 0.78478 0.0
H3596 H 0.97849 0.23771 0.79964 0.0
H3597 H 0.96009 0.25055 0.74217 0.0
H3598 H 0.00039 0.23792 0.78285 0.0
H3599 H 0.98194 0.25028 0.72517 0.0
H3600 H 0.02529 0.26229 0.70898 0.0
H3601 H 0.00324 0.26243 0.72539 0.0
H3602 H 0.01264 0.22525 0.75655 0.0
H3603 H 0.03465 0.2251 0.74015 0.0
C3604 C 0.97912 0.24062 0.78344 0.0
C3605 C 0.96755 0.24413 0.77225 0.0
C3606 C 0.99165 0.24058 0.77375 0.0
C3607 C 0.9929 0.24406 0.75266 0.0
C3608 C 0.98134 0.24765 0.74149 0.0
C3609 C 0.9688 0.24767 0.75117 0.0
C3610 C 0.02259 0.25407 0.71916 0.0
C3611 C 0.03174 0.24371 0.72332 0.0
C3612 C 0.00996 0.25416 0.72858 0.0
C3613 C 0.00621 0.24388 0.74235 0.0
C3614 C 0.01531 0.23345 0.74632 0.0
C3615 C 0.02792 0.23336 0.73691 0.0
H3616 H 0.74542 0.52104 0.6968 0.0
H3617 H 0.73827 0.5407 0.75556 0.0
H3618 H 0.74513 0.49925 0.71425 0.0
H3619 H 0.73807 0.51888 0.77308 0.0
H3620 H 0.75631 0.4781 0.79604 0.0
H3621 H 0.75569 0.50007 0.77941 0.0
H3622 H 0.72751 0.48515 0.73412 0.0
H3623 H 0.72764 0.46332 0.7511 0.0
C3624 C 0.74381 0.52066 0.71345 0.0
C3625 C 0.74187 0.53249 0.72488 0.0
C3626 C 0.74356 0.50823 0.72339 0.0
C3627 C 0.74158 0.50743 0.74497 0.0
C3628 C 0.73969 0.51926 0.75643 0.0
C3629 C 0.73971 0.53169 0.74643 0.0
C3630 C 0.74981 0.47952 0.78275 0.0
C3631 C 0.74205 0.46888 0.7749 0.0
C3632 C 0.74951 0.4921 0.77321 0.0
C3633 C 0.74159 0.49425 0.75548 0.0
C3634 C 0.73382 0.48368 0.74763 0.0
C3635 C 0.73397 0.47116 0.75732 0.0
H3636 H 0.52221 0.72955 0.79567 0.0
H3637 H 0.53639 0.75979 0.75286 0.0
H3638 H 0.50044 0.72985 0.77884 0.0
H3639 H 0.51484 0.75943 0.73514 0.0
H3640 H 0.47041 0.76552 0.72138 0.0
H3641 H 0.49204 0.76588 0.73902 0.0
H3642 H 0.48968 0.72298 0.74779 0.0
H3643 H 0.4679 0.72276 0.73068 0.0
C3644 C 0.5207 0.73629 0.78269 0.0
C3645 C 0.53108 0.74469 0.7757 0.0
C3646 C 0.50824 0.73631 0.77281 0.0
C3647 C 0.50587 0.74462 0.75554 0.0
C3648 C 0.51625 0.75301 0.74853 0.0
C3649 C 0.52868 0.75308 0.75853 0.0
C3650 C 0.47457 0.75618 0.72704 0.0
C3651 C 0.46747 0.74412 0.72473 0.0
C3652 C 0.48698 0.75636 0.73709 0.0
C3653 C 0.49264 0.74446 0.74486 0.0
C3654 C 0.48554 0.73238 0.74238 0.0
C3655 C 0.47307 0.73223 0.73252 0.0
H3656 H 0.27331 0.47446 0.7099 0.0
H3657 H 0.23417 0.46687 0.73592 0.0
H3658 H 0.27379 0.49631 0.72681 0.0
H3659 H 0.2344 0.48887 0.75238 0.0
H3660 H 0.24529 0.52227 0.79738 0.0
H3661 H 0.24489 0.50059 0.77998 0.0
H3662 H 0.26433 0.51815 0.72641 0.0
H3663 H 0.26507 0.53974 0.74421 0.0
C3664 C 0.26473 0.47757 0.71902 0.0
C3665 C 0.25372 0.46897 0.72166 0.0
C3666 C 0.26497 0.4901 0.72868 0.0
C3667 C 0.25415 0.49438 0.74104 0.0
C3668 C 0.24304 0.48582 0.74334 0.0
C3669 C 0.24286 0.47323 0.73385 0.0
C3670 C 0.24943 0.52147 0.78186 0.0
C3671 C 0.25521 0.53266 0.77213 0.0
C3672 C 0.24916 0.50907 0.77183 0.0
C3673 C 0.25452 0.5076 0.75172 0.0
C3674 C 0.26029 0.51884 0.742 0.0
C3675 C 0.26069 0.53122 0.75215 0.0
H3676 H 0.46505 0.23557 0.76164 0.0
H3677 H 0.4723 0.27578 0.78387 0.0
H3678 H 0.48714 0.23533 0.74539 0.0
H3679 H 0.49437 0.27553 0.76763 0.0
H3680 H 0.52643 0.27532 0.71659 0.0
H3681 H 0.50441 0.27548 0.73299 0.0
H3682 H 0.51088 0.23509 0.75494 0.0
H3683 H 0.53292 0.23492 0.73853 0.0
C3684 C 0.4714 0.24431 0.76319 0.0
C3685 C 0.46692 0.2557 0.774 0.0
C3686 C 0.48405 0.24417 0.7539 0.0
C3687 C 0.49249 0.25541 0.75522 0.0
C3688 C 0.48802 0.26679 0.76606 0.0
C3689 C 0.47538 0.26693 0.77535 0.0
C3690 C 0.52321 0.26652 0.72509 0.0
C3691 C 0.53142 0.25511 0.72628 0.0
C3692 C 0.51059 0.26661 0.73448 0.0
C3693 C 0.50591 0.2553 0.74527 0.0
C3694 C 0.51413 0.24389 0.74648 0.0
C3695 C 0.52675 0.2438 0.73708 0.0
H3696 H 0.24335 0.53886 0.2524 0.0
H3697 H 0.26146 0.52104 0.19799 0.0
H3698 H 0.24257 0.51693 0.26907 0.0
H3699 H 0.2607 0.49912 0.21467 0.0
H3700 H 0.2452 0.46014 0.24321 0.0
H3701 H 0.2449 0.48202 0.22633 0.0
H3702 H 0.25807 0.50051 0.28355 0.0
H3703 H 0.25836 0.47865 0.30042 0.0
C3704 C 0.24724 0.53027 0.24405 0.0
C3705 C 0.2525 0.53169 0.22389 0.0
C3706 C 0.24679 0.51771 0.2536 0.0
C3707 C 0.2516 0.50629 0.24322 0.0
C3708 C 0.25674 0.50769 0.22297 0.0
C3709 C 0.25718 0.52025 0.21341 0.0
C3710 C 0.2481 0.46887 0.25215 0.0
C3711 C 0.25182 0.46766 0.27315 0.0
C3712 C 0.24793 0.4814 0.24248 0.0
C3713 C 0.25147 0.493 0.25359 0.0
C3714 C 0.25509 0.4918 0.27464 0.0
C3715 C 0.25525 0.47927 0.28431 0.0
H3716 H 0.53799 0.2437 0.24728 0.0
H3717 H 0.52128 0.26263 0.3018 0.0
H3718 H 0.51578 0.2435 0.23104 0.0
H3719 H 0.4991 0.26256 0.28546 0.0
H3720 H 0.46789 0.27567 0.23492 0.0
H3721 H 0.48951 0.27466 0.2524 0.0
H3722 H 0.49232 0.23246 0.2386 0.0
H3723 H 0.47036 0.2332 0.22194 0.0
C3724 C 0.52954 0.24778 0.25576 0.0
C3725 C 0.53129 0.25319 0.27575 0.0
C3726 C 0.51687 0.2476 0.24655 0.0
C3727 C 0.50579 0.25304 0.25702 0.0
C3728 C 0.50752 0.25838 0.27706 0.0
C3729 C 0.52015 0.25834 0.28642 0.0
C3730 C 0.47294 0.2661 0.23589 0.0
C3731 C 0.46728 0.2545 0.22704 0.0
C3732 C 0.48536 0.26556 0.24583 0.0
C3733 C 0.49252 0.25348 0.24684 0.0
C3734 C 0.48701 0.24192 0.23786 0.0
C3735 C 0.47447 0.24239 0.22821 0.0
H3736 H 0.76538 0.52714 0.28041 0.0
H3737 H 0.72402 0.5326 0.2625 0.0
H3738 H 0.76537 0.50503 0.26417 0.0
H3739 H 0.72414 0.5107 0.24571 0.0
H3740 H 0.725 0.4651 0.23856 0.0
H3741 H 0.7252 0.48699 0.25539 0.0
H3742 H 0.76429 0.49498 0.22931 0.0
H3743 H 0.76428 0.4729 0.21302 0.0
C3744 C 0.75629 0.52361 0.27303 0.0
C3745 C 0.7447 0.53161 0.27274 0.0
C3746 C 0.75632 0.51101 0.26355 0.0
C3747 C 0.74476 0.50613 0.25365 0.0
C3748 C 0.73317 0.51413 0.25338 0.0
C3749 C 0.73315 0.52673 0.2628 0.0
C3750 C 0.73369 0.47148 0.23659 0.0
C3751 C 0.74464 0.46726 0.22449 0.0
C3752 C 0.73374 0.48408 0.24604 0.0
C3753 C 0.74475 0.49272 0.24365 0.0
C3754 C 0.75571 0.4885 0.2316 0.0
C3755 C 0.75565 0.47591 0.22209 0.0
H3756 H 0.47753 0.73552 0.29794 0.0
H3757 H 0.46033 0.75255 0.24223 0.0
H3758 H 0.49958 0.73575 0.28171 0.0
H3759 H 0.48229 0.7522 0.22565 0.0
H3760 H 0.52602 0.76299 0.21112 0.0
H3761 H 0.50387 0.76314 0.2272 0.0
H3762 H 0.51194 0.72446 0.2547 0.0
H3763 H 0.5341 0.72441 0.23881 0.0
C3764 C 0.47845 0.73934 0.28224 0.0
C3765 C 0.46715 0.74403 0.27141 0.0
C3766 C 0.49107 0.73931 0.27283 0.0
C3767 C 0.4927 0.74395 0.25234 0.0
C3768 C 0.48141 0.74868 0.24152 0.0
C3769 C 0.46879 0.74872 0.25094 0.0
C3770 C 0.523 0.75448 0.22046 0.0
C3771 C 0.53182 0.74371 0.22375 0.0
C3772 C 0.51031 0.75455 0.22966 0.0
C3773 C 0.50613 0.74383 0.2423 0.0
C3774 C 0.51492 0.733 0.24539 0.0
C3775 C 0.52762 0.73295 0.23625 0.0
H3776 H 0.18815 0.15971 0.19816 0.0
H3777 H 0.18084 0.12973 0.24522 0.0
H3778 H 0.17203 0.17456 0.21486 0.0
H3779 H 0.16487 0.14468 0.26221 0.0
H3780 H 0.12931 0.1713 0.27911 0.0
H3781 H 0.14331 0.15566 0.25956 0.0
H3782 H 0.17107 0.18771 0.24592 0.0
H3783 H 0.15682 0.20338 0.26451 0.0
C3784 C 0.1831 0.15631 0.21211 0.0
C3785 C 0.18583 0.1436 0.22048 0.0
C3786 C 0.17389 0.16483 0.22172 0.0
C3787 C 0.16725 0.16088 0.24001 0.0
C3788 C 0.16969 0.14799 0.24803 0.0
C3789 C 0.17886 0.13943 0.23833 0.0
C3790 C 0.13831 0.17502 0.27169 0.0
C3791 C 0.14198 0.18858 0.27348 0.0
C3792 C 0.14641 0.16603 0.26068 0.0
C3793 C 0.15833 0.17042 0.25117 0.0
C3794 C 0.16188 0.184 0.2528 0.0
C3795 C 0.1538 0.19297 0.26374 0.0
H3796 H 0.86672 0.18534 0.25188 0.0
H3797 H 0.84456 0.18092 0.19463 0.0
H3798 H 0.85169 0.16945 0.26887 0.0
H3799 H 0.82968 0.16487 0.21142 0.0
H3800 H 0.79604 0.15124 0.25445 0.0
H3801 H 0.81219 0.16549 0.23686 0.0
H3802 H 0.8444 0.14637 0.27056 0.0
H3803 H 0.82811 0.13251 0.289 0.0
C3804 C 0.85877 0.18079 0.24285 0.0
C3805 C 0.85674 0.18445 0.22198 0.0
C3806 C 0.85017 0.17167 0.25256 0.0
C3807 C 0.83939 0.16597 0.24157 0.0
C3808 C 0.83768 0.16929 0.22048 0.0
C3809 C 0.84623 0.17846 0.21083 0.0
C3810 C 0.80655 0.15015 0.25828 0.0
C3811 C 0.81076 0.14079 0.27326 0.0
C3812 C 0.81585 0.1582 0.24796 0.0
C3813 C 0.82962 0.15706 0.25223 0.0
C3814 C 0.83386 0.14759 0.26704 0.0
C3815 C 0.82454 0.13955 0.27743 0.0
H3816 H 0.86961 0.81772 0.25269 0.0
H3817 H 0.84211 0.81424 0.30429 0.0
H3818 H 0.85454 0.83371 0.23598 0.0
H3819 H 0.82709 0.83021 0.28765 0.0
H3820 H 0.79648 0.84386 0.23899 0.0
H3821 H 0.81252 0.8298 0.25729 0.0
H3822 H 0.84463 0.85625 0.23868 0.0
H3823 H 0.82856 0.87015 0.21972 0.0
C3824 C 0.86046 0.82054 0.26062 0.0
C3825 C 0.85698 0.81462 0.27971 0.0
C3826 C 0.85183 0.8297 0.25105 0.0
C3827 C 0.83956 0.83313 0.2604 0.0
C3828 C 0.83634 0.82757 0.27985 0.0
C3829 C 0.84494 0.81842 0.28938 0.0
C3830 C 0.80697 0.84664 0.23867 0.0
C3831 C 0.81126 0.85806 0.22779 0.0
C3832 C 0.81615 0.83867 0.24939 0.0
C3833 C 0.82985 0.84193 0.24949 0.0
C3834 C 0.83415 0.85343 0.23876 0.0
C3835 C 0.82494 0.86144 0.22807 0.0
H3836 H 0.18263 0.86963 0.25283 0.0
H3837 H 0.18383 0.84348 0.30629 0.0
H3838 H 0.16667 0.85462 0.23598 0.0
H3839 H 0.16772 0.82858 0.28966 0.0
H3840 H 0.15418 0.79695 0.2429 0.0
H3841 H 0.16809 0.81304 0.26124 0.0
H3842 H 0.14418 0.84546 0.23658 0.0
H3843 H 0.1306 0.82931 0.21736 0.0
C3844 C 0.17928 0.8608 0.26113 0.0
C3845 C 0.18456 0.85766 0.28078 0.0
C3846 C 0.17012 0.8522 0.2515 0.0
C3847 C 0.16601 0.84032 0.26138 0.0
C3848 C 0.1709 0.83749 0.28142 0.0
C3849 C 0.1801 0.84604 0.29097 0.0
C3850 C 0.15195 0.80751 0.24122 0.0
C3851 C 0.14134 0.81184 0.22851 0.0
C3852 C 0.15981 0.81675 0.252 0.0
C3853 C 0.15723 0.83056 0.25045 0.0
C3854 C 0.14651 0.8349 0.23796 0.0
C3855 C 0.13864 0.82564 0.22712 0.0
H3856 H 0.84318 0.81684 0.69679 0.0
H3857 H 0.87003 0.81657 0.74956 0.0
H3858 H 0.82869 0.83255 0.71477 0.0
H3859 H 0.85609 0.83311 0.76684 0.0
H3860 H 0.81974 0.84888 0.80234 0.0
H3861 H 0.83542 0.83451 0.78406 0.0
H3862 H 0.82599 0.85466 0.72636 0.0
H3863 H 0.80952 0.8683 0.74436 0.0
C3864 C 0.84606 0.82019 0.71217 0.0
C3865 C 0.85775 0.81529 0.72175 0.0
C3866 C 0.83784 0.82941 0.72238 0.0
C3867 C 0.84117 0.83413 0.74233 0.0
C3868 C 0.85307 0.82955 0.75164 0.0
C3869 C 0.8612 0.82019 0.74155 0.0
C3870 C 0.8209 0.85017 0.78572 0.0
C3871 C 0.81322 0.85969 0.77485 0.0
C3872 C 0.83008 0.84205 0.77525 0.0
C3873 C 0.83199 0.84335 0.75366 0.0
C3874 C 0.82464 0.85319 0.74292 0.0
C3875 C 0.81532 0.86119 0.75334 0.0
H3876 H 0.18411 0.87052 0.75016 0.0
H3877 H 0.18456 0.84396 0.69717 0.0
H3878 H 0.16766 0.85618 0.76721 0.0
H3879 H 0.1683 0.82946 0.71431 0.0
H3880 H 0.13144 0.81113 0.74367 0.0
H3881 H 0.14555 0.82747 0.72602 0.0
H3882 H 0.16699 0.83461 0.78336 0.0
H3883 H 0.15242 0.81885 0.80124 0.0
C3884 C 0.18069 0.8616 0.74219 0.0
C3885 C 0.18565 0.85833 0.72238 0.0
C3886 C 0.1713 0.85335 0.75196 0.0
C3887 C 0.16671 0.8416 0.74221 0.0
C3888 C 0.17146 0.83852 0.72217 0.0
C3889 C 0.1808 0.84681 0.71234 0.0
C3890 C 0.13899 0.81637 0.75261 0.0
C3891 C 0.1408 0.81364 0.77389 0.0
C3892 C 0.14721 0.82562 0.74241 0.0
C3893 C 0.15746 0.83232 0.75322 0.0
C3894 C 0.1591 0.82976 0.77457 0.0
C3895 C 0.15086 0.82057 0.78478 0.0
H3896 H 0.13521 0.19295 0.75545 0.0
H3897 H 0.15351 0.18269 0.69679 0.0
H3898 H 0.14923 0.17649 0.77305 0.0
H3899 H 0.168 0.1666 0.71437 0.0
H3900 H 0.1853 0.13122 0.74859 0.0
H3901 H 0.16921 0.14585 0.73162 0.0
H3902 H 0.17146 0.17326 0.78358 0.0
H3903 H 0.1867 0.15814 0.80123 0.0
C3904 C 0.14231 0.18719 0.74637 0.0
C3905 C 0.14333 0.18909 0.7248 0.0
C3906 C 0.15041 0.17781 0.75644 0.0
C3907 C 0.15986 0.17024 0.7452 0.0
C3908 C 0.16071 0.17206 0.72352 0.0
C3909 C 0.15246 0.18132 0.71342 0.0
C3910 C 0.18215 0.14022 0.75662 0.0
C3911 C 0.18736 0.14347 0.77632 0.0
C3912 C 0.17306 0.14874 0.74671 0.0
C3913 C 0.16905 0.16082 0.75612 0.0
C3914 C 0.17415 0.16398 0.77591 0.0
C3915 C 0.1831 0.15539 0.78593 0.0
H3916 H 0.86524 0.1895 0.74736 0.0
H3917 H 0.84682 0.17958 0.8062 0.0
H3918 H 0.85055 0.17364 0.72983 0.0
H3919 H 0.83171 0.16414 0.78851 0.0
H3920 H 0.81435 0.12881 0.75282 0.0
H3921 H 0.83092 0.14295 0.77 0.0
H3922 H 0.82707 0.17221 0.72083 0.0
H3923 H 0.81094 0.15783 0.70325 0.0
C3924 C 0.85814 0.18386 0.7566 0.0
C3925 C 0.8572 0.18584 0.7782 0.0
C3926 C 0.8496 0.17488 0.74649 0.0
C3927 C 0.8399 0.16768 0.75774 0.0
C3928 C 0.83915 0.16944 0.7794 0.0
C3929 C 0.8477 0.17841 0.78951 0.0
C3930 C 0.81719 0.13817 0.74553 0.0
C3931 C 0.8113 0.1422 0.72667 0.0
C3932 C 0.82657 0.14634 0.7555 0.0
C3933 C 0.8303 0.15872 0.74682 0.0
C3934 C 0.82454 0.16267 0.72784 0.0
C3935 C 0.81516 0.1545 0.71788 0.0
H3936 H 0.68025 0.62596 0.74643 0.0
H3937 H 0.68604 0.6575 0.70132 0.0
H3938 H 0.66346 0.63962 0.76423 0.0
H3939 H 0.66949 0.67125 0.71933 0.0
H3940 H 0.63096 0.68804 0.74624 0.0
H3941 H 0.64523 0.6723 0.72739 0.0
H3942 H 0.66391 0.66053 0.78516 0.0
H3943 H 0.64944 0.67605 0.80406 0.0
C3944 C 0.67784 0.63576 0.74021 0.0
C3945 C 0.68449 0.64069 0.72253 0.0
C3946 C 0.66832 0.64361 0.75049 0.0
C3947 C 0.66519 0.65652 0.7432 0.0
C3948 C 0.6716 0.6613 0.72522 0.0
C3949 C 0.68117 0.65349 0.71503 0.0
C3950 C 0.63795 0.68192 0.75494 0.0
C3951 C 0.63912 0.68331 0.77662 0.0
C3952 C 0.64621 0.67301 0.74413 0.0
C3953 C 0.65573 0.66523 0.75478 0.0
C3954 C 0.6566 0.66631 0.77653 0.0
C3955 C 0.64841 0.67529 0.78733 0.0
H3956 H 0.3175 0.62696 0.74818 0.0
H3957 H 0.31754 0.65442 0.80008 0.0
H3958 H 0.3341 0.64089 0.73042 0.0
H3959 H 0.33395 0.66844 0.78221 0.0
H3960 H 0.3715 0.68509 0.75144 0.0
H3961 H 0.35762 0.66862 0.76962 0.0
H3962 H 0.33354 0.66362 0.71436 0.0
H3963 H 0.34752 0.67989 0.69613 0.0
C3964 C 0.32118 0.63588 0.75589 0.0
C3965 C 0.31618 0.63964 0.77547 0.0
C3966 C 0.33059 0.64391 0.74566 0.0
C3967 C 0.33529 0.65578 0.7549 0.0
C3968 C 0.33061 0.6593 0.77477 0.0
C3969 C 0.32112 0.65134 0.78491 0.0
C3970 C 0.36337 0.6803 0.7431 0.0
C3971 C 0.36054 0.68382 0.7224 0.0
C3972 C 0.35537 0.67097 0.75355 0.0
C3973 C 0.34447 0.66487 0.74344 0.0
C3974 C 0.34193 0.66806 0.72252 0.0
C3975 C 0.34985 0.67747 0.71215 0.0
H3976 H 0.34232 0.31541 0.80273 0.0
H3977 H 0.37116 0.31842 0.7529 0.0
H3978 H 0.32801 0.33178 0.78519 0.0
H3979 H 0.35684 0.33481 0.73533 0.0
H3980 H 0.31724 0.34656 0.70012 0.0
H3981 H 0.33376 0.33281 0.71834 0.0
H3982 H 0.32799 0.35641 0.7739 0.0
H3983 H 0.31143 0.37019 0.75563 0.0
C3984 C 0.34562 0.31966 0.7881 0.0
C3985 C 0.3578 0.31564 0.77912 0.0
C3986 C 0.3375 0.32908 0.77815 0.0
C3987 C 0.34133 0.33453 0.7589 0.0
C3988 C 0.35364 0.3307 0.75011 0.0
C3989 C 0.36185 0.32141 0.76021 0.0
C3990 C 0.31958 0.34885 0.71618 0.0
C3991 C 0.31305 0.35939 0.72651 0.0
C3992 C 0.32909 0.34106 0.72654 0.0
C3993 C 0.33212 0.34355 0.74752 0.0
C3994 C 0.32577 0.35425 0.75776 0.0
C3995 C 0.31639 0.36217 0.74729 0.0
H3996 H 0.62872 0.3175 0.74334 0.0
H3997 H 0.65834 0.31029 0.69572 0.0
H3998 H 0.64364 0.3337 0.75984 0.0
H3999 H 0.67315 0.3267 0.71182 0.0
H4000 H 0.70224 0.34266 0.76043 0.0
H4001 H 0.68664 0.32818 0.74221 0.0
H4002 H 0.65421 0.35524 0.75706 0.0
H4003 H 0.66978 0.36942 0.77638 0.0
C4004 C 0.63834 0.31957 0.73622 0.0
C4005 C 0.64243 0.31257 0.71836 0.0
C4006 C 0.64688 0.32887 0.74562 0.0
C4007 C 0.65965 0.33144 0.73726 0.0
C4008 C 0.66351 0.32476 0.71895 0.0
C4009 C 0.65503 0.31538 0.70967 0.0
C4010 C 0.69176 0.34547 0.76003 0.0
C4011 C 0.68725 0.35714 0.77007 0.0
C4012 C 0.68283 0.33726 0.74927 0.0
C4013 C 0.66916 0.34054 0.7481 0.0
C4014 C 0.66466 0.35234 0.75784 0.0
C4015 C 0.6736 0.36054 0.76872 0.0
H4016 H 0.36317 0.32888 0.21058 0.0
H4017 H 0.34591 0.29671 0.24667 0.0
H4018 H 0.34892 0.34498 0.2288 0.0
H4019 H 0.33145 0.31272 0.26445 0.0
H4020 H 0.31723 0.34642 0.30663 0.0
H4021 H 0.33299 0.33137 0.28945 0.0
H4022 H 0.32477 0.35058 0.23064 0.0
H4023 H 0.30892 0.36555 0.24773 0.0
C4024 C 0.35637 0.32527 0.22245 0.0
C4025 C 0.35563 0.31153 0.22715 0.0
C4026 C 0.34814 0.33446 0.23274 0.0
C4027 C 0.33907 0.33011 0.24805 0.0
C4028 C 0.33844 0.31639 0.25288 0.0
C4029 C 0.3466 0.30721 0.24253 0.0
C4030 C 0.31875 0.34741 0.29002 0.0
C4031 C 0.31176 0.35715 0.27854 0.0
C4032 C 0.32779 0.3388 0.2802 0.0
C4033 C 0.33007 0.33976 0.25868 0.0
C4034 C 0.32334 0.3497 0.24728 0.0
C4035 C 0.31427 0.35829 0.25709 0.0
H4036 H 0.66013 0.31053 0.29843 0.0
H4037 H 0.63132 0.31492 0.24867 0.0
H4038 H 0.67533 0.3257 0.28039 0.0
H4039 H 0.64645 0.33036 0.23094 0.0
H4040 H 0.67273 0.36776 0.21719 0.0
H4041 H 0.65692 0.35328 0.23573 0.0
H4042 H 0.68865 0.32481 0.24721 0.0
H4043 H 0.70444 0.3393 0.22892 0.0
C4044 C 0.65704 0.31469 0.28363 0.0
C4045 C 0.64452 0.31141 0.27495 0.0
C4046 C 0.66574 0.3234 0.27334 0.0
C4047 C 0.66209 0.32915 0.25423 0.0
C4048 C 0.64947 0.32617 0.24576 0.0
C4049 C 0.64079 0.31735 0.25596 0.0
C4050 C 0.67631 0.35842 0.22375 0.0
C4051 C 0.6898 0.35463 0.2216 0.0
C4052 C 0.66726 0.35011 0.23421 0.0
C4053 C 0.67158 0.33795 0.24295 0.0
C4054 C 0.68508 0.33419 0.2408 0.0
C4055 C 0.69408 0.34241 0.23016 0.0
H4056 H 0.68388 0.65563 0.30332 0.0
H4057 H 0.68652 0.63111 0.24804 0.0
H4058 H 0.66837 0.67049 0.28566 0.0
H4059 H 0.67018 0.64539 0.23092 0.0
H4060 H 0.65406 0.68285 0.19819 0.0
H4061 H 0.66851 0.66672 0.21572 0.0
H4062 H 0.64653 0.67297 0.2729 0.0
H4063 H 0.63252 0.68953 0.25544 0.0
C4064 C 0.6811 0.65334 0.28744 0.0
C4065 C 0.68658 0.6422 0.2771 0.0
C4066 C 0.67201 0.66177 0.27738 0.0
C4067 C 0.66799 0.65918 0.2568 0.0
C4068 C 0.67319 0.64784 0.24665 0.0
C4069 C 0.68242 0.6395 0.25662 0.0
C4070 C 0.65229 0.68066 0.21446 0.0
C4071 C 0.64225 0.68746 0.22552 0.0
C4072 C 0.66051 0.67137 0.22452 0.0
C4073 C 0.65876 0.66854 0.24581 0.0
C4074 C 0.6484 0.67509 0.25665 0.0
C4075 C 0.64031 0.68452 0.24665 0.0
H4076 H 0.29293 0.65899 0.2349 0.0
H4077 H 0.32656 0.63404 0.2181 0.0
H4078 H 0.30793 0.67419 0.25323 0.0
H4079 H 0.3417 0.64944 0.23594 0.0
H4080 H 0.36381 0.67345 0.28544 0.0
H4081 H 0.34847 0.65757 0.26928 0.0
H4082 H 0.32455 0.69049 0.24625 0.0
H4083 H 0.33936 0.70627 0.26345 0.0
C4084 C 0.30357 0.65685 0.23498 0.0
C4085 C 0.3086 0.64539 0.22498 0.0
C4086 C 0.31219 0.66556 0.24543 0.0
C4087 C 0.32606 0.66311 0.24596 0.0
C4088 C 0.33106 0.65155 0.23611 0.0
C4089 C 0.32241 0.64276 0.22581 0.0
C4090 C 0.35517 0.67729 0.27719 0.0
C4091 C 0.35286 0.69116 0.27573 0.0
C4092 C 0.34646 0.66818 0.26767 0.0
C4093 C 0.33527 0.67272 0.2564 0.0
C4094 C 0.33296 0.68659 0.25502 0.0
C4095 C 0.34159 0.69568 0.26464 0.0
loop_
_geom_bond_atom_site_label_1
_geom_bond_atom_site_label_2
_geom_bond_distance
_geom_bond_site_symmetry_2
_ccdc_geom_bond_type
Li0 N17 1.990 . S
Li0 O60 1.956 . S
Li0 O61 1.970 . S
Li0 O62 1.961 . S
Li1 N25 1.990 . S
Li1 O60 1.970 . S
Li1 O61 1.956 . S
Li1 O63 1.961 . S
Li2 N47 1.990 . S
Li2 O60 1.961 . S
Li2 O62 1.956 . S
Li2 O63 1.970 . S
Li3 N53 1.990 . S
Li3 O61 1.961 . S
Li3 O62 1.970 . S
Li3 O63 1.956 . S
C4 C6 1.348 . S
C4 C7 1.356 . S
C4 O60 1.325 . S
N5 C8 1.314 . S
N5 C9 1.279 . S
C6 C4 1.348 . S
C6 C8 1.353 . S
C6 H64 0.929 . S
C7 C4 1.356 . S
C7 C9 1.358 . S
C7 H65 0.930 . S
C8 N5 1.314 . S
C8 C6 1.353 . S
C8 H66 0.930 . S
C9 N5 1.279 . S
C9 C7 1.358 . S
C9 H67 0.930 . S
C10 C13 1.348 . S
C10 C14 1.356 . S
C10 O61 1.325 . S
C11 N12 1.279 . S
C11 C14 1.358 . S
C11 H68 0.930 . S
N12 C11 1.279 . S
N12 C15 1.314 . S
C13 C10 1.348 . S
C13 C15 1.353 . S
C13 H69 0.929 . S
C14 C10 1.356 . S
C14 C11 1.358 . S
C14 H70 0.930 . S
C15 N12 1.314 . S
C15 C13 1.353 . S
C15 H71 0.930 . S
C16 N17 1.314 . S
C16 C21 1.353 . S
C16 H22 0.930 . S
N17 Li0 1.990 . S
N17 C16 1.314 . S
N17 C19 1.279 . S
C18 C19 1.358 . S
C18 C20 1.356 . S
C18 H72 0.930 . S
C19 N17 1.279 . S
C19 C18 1.358 . S
C19 H23 0.930 . S
C20 C18 1.356 . S
C20 C21 1.348 . S
C21 C16 1.353 . S
C21 C20 1.348 . S
C21 H73 0.929 . S
H22 C16 0.930 . S
H23 C19 0.930 . S
C24 N25 1.314 . S
C24 C26 1.353 . S
C24 H30 0.930 . S
N25 Li1 1.990 . S
N25 C24 1.314 . S
N25 C28 1.279 . S
C26 C24 1.353 . S
C26 C29 1.348 . S
C26 H74 0.929 . S
C27 C28 1.358 . S
C27 C29 1.356 . S
C27 H75 0.930 . S
C28 N25 1.279 . S
C28 C27 1.358 . S
C28 H31 0.930 . S
C29 C26 1.348 . S
C29 C27 1.356 . S
H30 C24 0.930 . S
H31 C28 0.930 . S
C32 C34 1.348 . S
C32 C35 1.356 . S
C32 O62 1.325 . S
N33 C36 1.314 . S
N33 C37 1.279 . S
C34 C32 1.348 . S
C34 C36 1.353 . S
C34 H76 0.929 . S
C35 C32 1.356 . S
C35 C37 1.358 . S
C35 H77 0.930 . S
C36 N33 1.314 . S
C36 C34 1.353 . S
C36 H78 0.930 . S
C37 N33 1.279 . S
C37 C35 1.358 . S
C37 H79 0.930 . S
C38 C39 1.348 . S
C38 C40 1.356 . S
C38 O63 1.325 . S
C39 C38 1.348 . S
C39 C41 1.353 . S
C39 H80 0.929 . S
C40 C38 1.356 . S
C40 C42 1.358 . S
C40 H81 0.930 . S
C41 C39 1.353 . S
C41 N43 1.314 . S
C41 H82 0.930 . S
C42 C40 1.358 . S
C42 N43 1.279 . S
C42 H83 0.930 . S
N43 C41 1.314 . S
N43 C42 1.279 . S
C44 C46 1.353 . S
C44 N47 1.314 . S
C44 H50 0.930 . S
C45 N47 1.279 . S
C45 C48 1.358 . S
C45 H51 0.930 . S
C46 C44 1.353 . S
C46 C49 1.348 . S
C46 H84 0.929 . S
N47 Li2 1.990 . S
N47 C44 1.314 . S
N47 C45 1.279 . S
C48 C45 1.358 . S
C48 C49 1.356 . S
C48 H85 0.930 . S
C49 C46 1.348 . S
C49 C48 1.356 . S
H50 C44 0.930 . S
H51 C45 0.930 . S
C52 N53 1.314 . S
C52 C54 1.353 . S
C52 H58 0.930 . S
N53 Li3 1.990 . S
N53 C52 1.314 . S
N53 C56 1.279 . S
C54 C52 1.353 . S
C54 C57 1.348 . S
C54 H86 0.929 . S
C55 C56 1.358 . S
C55 C57 1.356 . S
C55 H87 0.930 . S
C56 N53 1.279 . S
C56 C55 1.358 . S
C56 H59 0.930 . S
C57 C54 1.348 . S
C57 C55 1.356 . S
H58 C52 0.930 . S
H59 C56 0.930 . S
O60 Li0 1.956 . S
O60 Li1 1.970 . S
O60 Li2 1.961 . S
O60 C4 1.325 . S
O61 Li0 1.970 . S
O61 Li1 1.956 . S
O61 Li3 1.961 . S
O61 C10 1.325 . S
O62 Li0 1.961 . S
O62 Li2 1.956 . S
O62 Li3 1.970 . S
O62 C32 1.325 . S
O63 Li1 1.961 . S
O63 Li2 1.970 . S
O63 Li3 1.956 . S
O63 C38 1.325 . S
H64 C6 0.929 . S
H65 C7 0.930 . S
H66 C8 0.930 . S
H67 C9 0.930 . S
H68 C11 0.930 . S
H69 C13 0.929 . S
H70 C14 0.930 . S
H71 C15 0.930 . S
H72 C18 0.930 . S
H73 C21 0.929 . S
H74 C26 0.929 . S
H75 C27 0.930 . S
H76 C34 0.929 . S
H77 C35 0.930 . S
H78 C36 0.930 . S
H79 C37 0.930 . S
H80 C39 0.929 . S
H81 C40 0.930 . S
H82 C41 0.930 . S
H83 C42 0.930 . S
H84 C46 0.929 . S
H85 C48 0.930 . S
H86 C54 0.929 . S
H87 C55 0.930 . S
Li88 N105 1.990 . S
Li88 O148 1.956 . S
Li88 O149 1.970 . S
Li88 O150 1.961 . S
Li89 N113 1.990 . S
Li89 O148 1.970 . S
Li89 O149 1.956 . S
Li89 O151 1.961 . S
Li90 N135 1.990 . S
Li90 O148 1.961 . S
Li90 O150 1.956 . S
Li90 O151 1.970 . S
Li91 N141 1.990 . S
Li91 O149 1.961 . S
Li91 O150 1.970 . S
Li91 O151 1.956 . S
C92 C94 1.348 . S
C92 C95 1.356 . S
C92 O148 1.325 . S
N93 C96 1.314 . S
N93 C97 1.279 . S
C94 C92 1.348 . S
C94 C96 1.353 . S
C94 H152 0.929 . S
C95 C92 1.356 . S
C95 C97 1.358 . S
C95 H153 0.930 . S
C96 N93 1.314 . S
C96 C94 1.353 . S
C96 H154 0.930 . S
C97 N93 1.279 . S
C97 C95 1.358 . S
C97 H155 0.930 . S
C98 C101 1.348 . S
C98 C102 1.356 . S
C98 O149 1.325 . S
C99 N100 1.279 . S
C99 C102 1.358 . S
C99 H156 0.930 . S
N100 C99 1.279 . S
N100 C103 1.314 . S
C101 C98 1.348 . S
C101 C103 1.353 . S
C101 H157 0.929 . S
C102 C98 1.356 . S
C102 C99 1.358 . S
C102 H158 0.930 . S
C103 N100 1.314 . S
C103 C101 1.353 . S
C103 H159 0.930 . S
C104 N105 1.314 . S
C104 C109 1.353 . S
C104 H110 0.930 . S
N105 Li88 1.990 . S
N105 C104 1.314 . S
N105 C107 1.279 . S
C106 C107 1.358 . S
C106 C108 1.356 . S
C106 H160 0.930 . S
C107 N105 1.279 . S
C107 C106 1.358 . S
C107 H111 0.930 . S
C108 C106 1.356 . S
C108 C109 1.348 . S
C109 C104 1.353 . S
C109 C108 1.348 . S
C109 H161 0.929 . S
H110 C104 0.930 . S
H111 C107 0.930 . S
C112 N113 1.314 . S
C112 C114 1.353 . S
C112 H118 0.930 . S
N113 Li89 1.990 . S
N113 C112 1.314 . S
N113 C116 1.279 . S
C114 C112 1.353 . S
C114 C117 1.348 . S
C114 H162 0.929 . S
C115 C116 1.358 . S
C115 C117 1.356 . S
C115 H163 0.930 . S
C116 N113 1.279 . S
C116 C115 1.358 . S
C116 H119 0.930 . S
C117 C114 1.348 . S
C117 C115 1.356 . S
H118 C112 0.930 . S
H119 C116 0.930 . S
C120 C122 1.348 . S
C120 C123 1.356 . S
C120 O150 1.325 . S
N121 C124 1.314 . S
N121 C125 1.279 . S
C122 C120 1.348 . S
C122 C124 1.353 . S
C122 H164 0.929 . S
C123 C120 1.356 . S
C123 C125 1.358 . S
C123 H165 0.930 . S
C124 N121 1.314 . S
C124 C122 1.353 . S
C124 H166 0.930 . S
C125 N121 1.279 . S
C125 C123 1.358 . S
C125 H167 0.930 . S
C126 C127 1.348 . S
C126 C128 1.356 . S
C126 O151 1.325 . S
C127 C126 1.348 . S
C127 C129 1.353 . S
C127 H168 0.929 . S
C128 C126 1.356 . S
C128 C130 1.358 . S
C128 H169 0.930 . S
C129 C127 1.353 . S
C129 N131 1.314 . S
C129 H170 0.930 . S
C130 C128 1.358 . S
C130 N131 1.279 . S
C130 H171 0.930 . S
N131 C129 1.314 . S
N131 C130 1.279 . S
C132 C134 1.353 . S
C132 N135 1.314 . S
C132 H138 0.930 . S
C133 N135 1.279 . S
C133 C136 1.358 . S
C133 H139 0.930 . S
C134 C132 1.353 . S
C134 C137 1.348 . S
C134 H172 0.929 . S
N135 Li90 1.990 . S
N135 C132 1.314 . S
N135 C133 1.279 . S
C136 C133 1.358 . S
C136 C137 1.356 . S
C136 H173 0.930 . S
C137 C134 1.348 . S
C137 C136 1.356 . S
H138 C132 0.930 . S
H139 C133 0.930 . S
C140 N141 1.314 . S
C140 C142 1.353 . S
C140 H146 0.930 . S
N141 Li91 1.990 . S
N141 C140 1.314 . S
N141 C144 1.279 . S
C142 C140 1.353 . S
C142 C145 1.348 . S
C142 H174 0.929 . S
C143 C144 1.358 . S
C143 C145 1.356 . S
C143 H175 0.930 . S
C144 N141 1.279 . S
C144 C143 1.358 . S
C144 H147 0.930 . S
C145 C142 1.348 . S
C145 C143 1.356 . S
H146 C140 0.930 . S
H147 C144 0.930 . S
O148 Li88 1.956 . S
O148 Li89 1.970 . S
O148 Li90 1.961 . S
O148 C92 1.325 . S
O149 Li88 1.970 . S
O149 Li89 1.956 . S
O149 Li91 1.961 . S
O149 C98 1.325 . S
O150 Li88 1.961 . S
O150 Li90 1.956 . S
O150 Li91 1.970 . S
O150 C120 1.325 . S
O151 Li89 1.961 . S
O151 Li90 1.970 . S
O151 Li91 1.956 . S
O151 C126 1.325 . S
H152 C94 0.929 . S
H153 C95 0.930 . S
H154 C96 0.930 . S
H155 C97 0.930 . S
H156 C99 0.930 . S
H157 C101 0.929 . S
H158 C102 0.930 . S
H159 C103 0.930 . S
H160 C106 0.930 . S
H161 C109 0.929 . S
H162 C114 0.929 . S
H163 C115 0.930 . S
H164 C122 0.929 . S
H165 C123 0.930 . S
H166 C124 0.930 . S
H167 C125 0.930 . S
H168 C127 0.929 . S
H169 C128 0.930 . S
H170 C129 0.930 . S
H171 C130 0.930 . S
H172 C134 0.929 . S
H173 C136 0.930 . S
H174 C142 0.929 . S
H175 C143 0.930 . S
Li176 N193 1.990 . S
Li176 O236 1.956 . S
Li176 O237 1.970 . S
Li176 O238 1.961 . S
Li177 N201 1.990 . S
Li177 O236 1.970 . S
Li177 O237 1.956 . S
Li177 O239 1.961 . S
Li178 N223 1.990 . S
Li178 O236 1.961 . S
Li178 O238 1.956 . S
Li178 O239 1.970 . S
Li179 N229 1.990 . S
Li179 O237 1.961 . S
Li179 O238 1.970 . S
Li179 O239 1.956 . S
C180 C182 1.348 . S
C180 C183 1.356 . S
C180 O236 1.325 . S
N181 C184 1.314 . S
N181 C185 1.279 . S
C182 C180 1.348 . S
C182 C184 1.353 . S
C182 H240 0.929 . S
C183 C180 1.356 . S
C183 C185 1.358 . S
C183 H241 0.930 . S
C184 N181 1.314 . S
C184 C182 1.353 . S
C184 H242 0.930 . S
C185 N181 1.279 . S
C185 C183 1.358 . S
C185 H243 0.930 . S
C186 C189 1.348 . S
C186 C190 1.356 . S
C186 O237 1.325 . S
C187 N188 1.279 . S
C187 C190 1.358 . S
C187 H244 0.930 . S
N188 C187 1.279 . S
N188 C191 1.314 . S
C189 C186 1.348 . S
C189 C191 1.353 . S
C189 H245 0.929 . S
C190 C186 1.356 . S
C190 C187 1.358 . S
C190 H246 0.930 . S
C191 N188 1.314 . S
C191 C189 1.353 . S
C191 H247 0.930 . S
C192 N193 1.314 . S
C192 C197 1.353 . S
C192 H198 0.930 . S
N193 Li176 1.990 . S
N193 C192 1.314 . S
N193 C195 1.279 . S
C194 C195 1.358 . S
C194 C196 1.356 . S
C194 H248 0.930 . S
C195 N193 1.279 . S
C195 C194 1.358 . S
C195 H199 0.930 . S
C196 C194 1.356 . S
C196 C197 1.348 . S
C197 C192 1.353 . S
C197 C196 1.348 . S
C197 H249 0.929 . S
H198 C192 0.930 . S
H199 C195 0.930 . S
C200 N201 1.314 . S
C200 C202 1.353 . S
C200 H206 0.930 . S
N201 Li177 1.990 . S
N201 C200 1.314 . S
N201 C204 1.279 . S
C202 C200 1.353 . S
C202 C205 1.348 . S
C202 H250 0.929 . S
C203 C204 1.358 . S
C203 C205 1.356 . S
C203 H251 0.930 . S
C204 N201 1.279 . S
C204 C203 1.358 . S
C204 H207 0.930 . S
C205 C202 1.348 . S
C205 C203 1.356 . S
H206 C200 0.930 . S
H207 C204 0.930 . S
C208 C210 1.348 . S
C208 C211 1.356 . S
C208 O238 1.325 . S
N209 C212 1.314 . S
N209 C213 1.279 . S
C210 C208 1.348 . S
C210 C212 1.353 . S
C210 H252 0.929 . S
C211 C208 1.356 . S
C211 C213 1.358 . S
C211 H253 0.930 . S
C212 N209 1.314 . S
C212 C210 1.353 . S
C212 H254 0.930 . S
C213 N209 1.279 . S
C213 C211 1.358 . S
C213 H255 0.930 . S
C214 C215 1.348 . S
C214 C216 1.356 . S
C214 O239 1.325 . S
C215 C214 1.348 . S
C215 C217 1.353 . S
C215 H256 0.929 . S
C216 C214 1.356 . S
C216 C218 1.358 . S
C216 H257 0.930 . S
C217 C215 1.353 . S
C217 N219 1.314 . S
C217 H258 0.930 . S
C218 C216 1.358 . S
C218 N219 1.279 . S
C218 H259 0.930 . S
N219 C217 1.314 . S
N219 C218 1.279 . S
C220 C222 1.353 . S
C220 N223 1.314 . S
C220 H226 0.930 . S
C221 N223 1.279 . S
C221 C224 1.358 . S
C221 H227 0.930 . S
C222 C220 1.353 . S
C222 C225 1.348 . S
C222 H260 0.929 . S
N223 Li178 1.990 . S
N223 C220 1.314 . S
N223 C221 1.279 . S
C224 C221 1.358 . S
C224 C225 1.356 . S
C224 H261 0.930 . S
C225 C222 1.348 . S
C225 C224 1.356 . S
H226 C220 0.930 . S
H227 C221 0.930 . S
C228 N229 1.314 . S
C228 C230 1.353 . S
C228 H234 0.930 . S
N229 Li179 1.990 . S
N229 C228 1.314 . S
N229 C232 1.279 . S
C230 C228 1.353 . S
C230 C233 1.348 . S
C230 H262 0.929 . S
C231 C232 1.358 . S
C231 C233 1.356 . S
C231 H263 0.930 . S
C232 N229 1.279 . S
C232 C231 1.358 . S
C232 H235 0.930 . S
C233 C230 1.348 . S
C233 C231 1.356 . S
H234 C228 0.930 . S
H235 C232 0.930 . S
O236 Li176 1.956 . S
O236 Li177 1.970 . S
O236 Li178 1.961 . S
O236 C180 1.325 . S
O237 Li176 1.970 . S
O237 Li177 1.956 . S
O237 Li179 1.961 . S
O237 C186 1.325 . S
O238 Li176 1.961 . S
O238 Li178 1.956 . S
O238 Li179 1.970 . S
O238 C208 1.325 . S
O239 Li177 1.961 . S
O239 Li178 1.970 . S
O239 Li179 1.956 . S
O239 C214 1.325 . S
H240 C182 0.929 . S
H241 C183 0.930 . S
H242 C184 0.930 . S
H243 C185 0.930 . S
H244 C187 0.930 . S
H245 C189 0.929 . S
H246 C190 0.930 . S
H247 C191 0.930 . S
H248 C194 0.930 . S
H249 C197 0.929 . S
H250 C202 0.929 . S
H251 C203 0.930 . S
H252 C210 0.929 . S
H253 C211 0.930 . S
H254 C212 0.930 . S
H255 C213 0.930 . S
H256 C215 0.929 . S
H257 C216 0.930 . S
H258 C217 0.930 . S
H259 C218 0.930 . S
H260 C222 0.929 . S
H261 C224 0.930 . S
H262 C230 0.929 . S
H263 C231 0.930 . S
Li264 N281 1.990 . S
Li264 O324 1.956 . S
Li264 O325 1.970 . S
Li264 O326 1.961 . S
Li265 N289 1.990 . S
Li265 O324 1.970 . S
Li265 O325 1.956 . S
Li265 O327 1.961 . S
Li266 N311 1.990 . S
Li266 O324 1.961 . S
Li266 O326 1.956 . S
Li266 O327 1.970 . S
Li267 N317 1.990 . S
Li267 O325 1.961 . S
Li267 O326 1.970 . S
Li267 O327 1.956 . S
C268 C270 1.348 . S
C268 C271 1.356 . S
C268 O324 1.325 . S
N269 C272 1.314 . S
N269 C273 1.279 . S
C270 C268 1.348 . S
C270 C272 1.353 . S
C270 H328 0.929 . S
C271 C268 1.356 . S
C271 C273 1.358 . S
C271 H329 0.930 . S
C272 N269 1.314 . S
C272 C270 1.353 . S
C272 H330 0.930 . S
C273 N269 1.279 . S
C273 C271 1.358 . S
C273 H331 0.930 . S
C274 C277 1.348 . S
C274 C278 1.356 . S
C274 O325 1.325 . S
C275 N276 1.279 . S
C275 C278 1.358 . S
C275 H332 0.930 . S
N276 C275 1.279 . S
N276 C279 1.314 . S
C277 C274 1.348 . S
C277 C279 1.353 . S
C277 H333 0.929 . S
C278 C274 1.356 . S
C278 C275 1.358 . S
C278 H334 0.930 . S
C279 N276 1.314 . S
C279 C277 1.353 . S
C279 H335 0.930 . S
C280 N281 1.314 . S
C280 C285 1.353 . S
C280 H286 0.930 . S
N281 Li264 1.990 . S
N281 C280 1.314 . S
N281 C283 1.279 . S
C282 C283 1.358 . S
C282 C284 1.356 . S
C282 H336 0.930 . S
C283 N281 1.279 . S
C283 C282 1.358 . S
C283 H287 0.930 . S
C284 C282 1.356 . S
C284 C285 1.348 . S
C285 C280 1.353 . S
C285 C284 1.348 . S
C285 H337 0.929 . S
H286 C280 0.930 . S
H287 C283 0.930 . S
C288 N289 1.314 . S
C288 C290 1.353 . S
C288 H294 0.930 . S
N289 Li265 1.990 . S
N289 C288 1.314 . S
N289 C292 1.279 . S
C290 C288 1.353 . S
C290 C293 1.348 . S
C290 H338 0.929 . S
C291 C292 1.358 . S
C291 C293 1.356 . S
C291 H339 0.930 . S
C292 N289 1.279 . S
C292 C291 1.358 . S
C292 H295 0.930 . S
C293 C290 1.348 . S
C293 C291 1.356 . S
H294 C288 0.930 . S
H295 C292 0.930 . S
C296 C298 1.348 . S
C296 C299 1.356 . S
C296 O326 1.325 . S
N297 C300 1.314 . S
N297 C301 1.279 . S
C298 C296 1.348 . S
C298 C300 1.353 . S
C298 H340 0.929 . S
C299 C296 1.356 . S
C299 C301 1.358 . S
C299 H341 0.930 . S
C300 N297 1.314 . S
C300 C298 1.353 . S
C300 H342 0.930 . S
C301 N297 1.279 . S
C301 C299 1.358 . S
C301 H343 0.930 . S
C302 C303 1.348 . S
C302 C304 1.356 . S
C302 O327 1.325 . S
C303 C302 1.348 . S
C303 C305 1.353 . S
C303 H344 0.929 . S
C304 C302 1.356 . S
C304 C306 1.358 . S
C304 H345 0.930 . S
C305 C303 1.353 . S
C305 N307 1.314 . S
C305 H346 0.930 . S
C306 C304 1.358 . S
C306 N307 1.279 . S
C306 H347 0.930 . S
N307 C305 1.314 . S
N307 C306 1.279 . S
C308 C310 1.353 . S
C308 N311 1.314 . S
C308 H314 0.930 . S
C309 N311 1.279 . S
C309 C312 1.358 . S
C309 H315 0.930 . S
C310 C308 1.353 . S
C310 C313 1.348 . S
C310 H348 0.929 . S
N311 Li266 1.990 . S
N311 C308 1.314 . S
N311 C309 1.279 . S
C312 C309 1.358 . S
C312 C313 1.356 . S
C312 H349 0.930 . S
C313 C310 1.348 . S
C313 C312 1.356 . S
H314 C308 0.930 . S
H315 C309 0.930 . S
C316 N317 1.314 . S
C316 C318 1.353 . S
C316 H322 0.930 . S
N317 Li267 1.990 . S
N317 C316 1.314 . S
N317 C320 1.279 . S
C318 C316 1.353 . S
C318 C321 1.348 . S
C318 H350 0.929 . S
C319 C320 1.358 . S
C319 C321 1.356 . S
C319 H351 0.930 . S
C320 N317 1.279 . S
C320 C319 1.358 . S
C320 H323 0.930 . S
C321 C318 1.348 . S
C321 C319 1.356 . S
H322 C316 0.930 . S
H323 C320 0.930 . S
O324 Li264 1.956 . S
O324 Li265 1.970 . S
O324 Li266 1.961 . S
O324 C268 1.325 . S
O325 Li264 1.970 . S
O325 Li265 1.956 . S
O325 Li267 1.961 . S
O325 C274 1.325 . S
O326 Li264 1.961 . S
O326 Li266 1.956 . S
O326 Li267 1.970 . S
O326 C296 1.325 . S
O327 Li265 1.961 . S
O327 Li266 1.970 . S
O327 Li267 1.956 . S
O327 C302 1.325 . S
H328 C270 0.929 . S
H329 C271 0.930 . S
H330 C272 0.930 . S
H331 C273 0.930 . S
H332 C275 0.930 . S
H333 C277 0.929 . S
H334 C278 0.930 . S
H335 C279 0.930 . S
H336 C282 0.930 . S
H337 C285 0.929 . S
H338 C290 0.929 . S
H339 C291 0.930 . S
H340 C298 0.929 . S
H341 C299 0.930 . S
H342 C300 0.930 . S
H343 C301 0.930 . S
H344 C303 0.929 . S
H345 C304 0.930 . S
H346 C305 0.930 . S
H347 C306 0.930 . S
H348 C310 0.929 . S
H349 C312 0.930 . S
H350 C318 0.929 . S
H351 C319 0.930 . S
Li352 N369 1.990 . S
Li352 O412 1.956 . S
Li352 O413 1.970 . S
Li352 O414 1.961 . S
Li353 N377 1.990 . S
Li353 O412 1.970 . S
Li353 O413 1.956 . S
Li353 O415 1.961 . S
Li354 N399 1.990 . S
Li354 O412 1.961 . S
Li354 O414 1.956 . S
Li354 O415 1.970 . S
Li355 N405 1.990 . S
Li355 O413 1.961 . S
Li355 O414 1.970 . S
Li355 O415 1.956 . S
C356 C358 1.348 . S
C356 C359 1.356 . S
C356 O412 1.325 . S
N357 C360 1.314 . S
N357 C361 1.279 . S
C358 C356 1.348 . S
C358 C360 1.353 . S
C358 H416 0.929 . S
C359 C356 1.356 . S
C359 C361 1.358 . S
C359 H417 0.930 . S
C360 N357 1.314 . S
C360 C358 1.353 . S
C360 H418 0.930 . S
C361 N357 1.279 . S
C361 C359 1.358 . S
C361 H419 0.930 . S
C362 C365 1.348 . S
C362 C366 1.356 . S
C362 O413 1.325 . S
C363 N364 1.279 . S
C363 C366 1.358 . S
C363 H420 0.930 . S
N364 C363 1.279 . S
N364 C367 1.314 . S
C365 C362 1.348 . S
C365 C367 1.353 . S
C365 H421 0.929 . S
C366 C362 1.356 . S
C366 C363 1.358 . S
C366 H422 0.930 . S
C367 N364 1.314 . S
C367 C365 1.353 . S
C367 H423 0.930 . S
C368 N369 1.314 . S
C368 C373 1.353 . S
C368 H374 0.930 . S
N369 Li352 1.990 . S
N369 C368 1.314 . S
N369 C371 1.279 . S
C370 C371 1.358 . S
C370 C372 1.356 . S
C370 H424 0.930 . S
C371 N369 1.279 . S
C371 C370 1.358 . S
C371 H375 0.930 . S
C372 C370 1.356 . S
C372 C373 1.348 . S
C373 C368 1.353 . S
C373 C372 1.348 . S
C373 H425 0.929 . S
H374 C368 0.930 . S
H375 C371 0.930 . S
C376 N377 1.314 . S
C376 C378 1.353 . S
C376 H382 0.930 . S
N377 Li353 1.990 . S
N377 C376 1.314 . S
N377 C380 1.279 . S
C378 C376 1.353 . S
C378 C381 1.348 . S
C378 H426 0.929 . S
C379 C380 1.358 . S
C379 C381 1.356 . S
C379 H427 0.930 . S
C380 N377 1.279 . S
C380 C379 1.358 . S
C380 H383 0.930 . S
C381 C378 1.348 . S
C381 C379 1.356 . S
H382 C376 0.930 . S
H383 C380 0.930 . S
C384 C386 1.348 . S
C384 C387 1.356 . S
C384 O414 1.325 . S
N385 C388 1.314 . S
N385 C389 1.279 . S
C386 C384 1.348 . S
C386 C388 1.353 . S
C386 H428 0.929 . S
C387 C384 1.356 . S
C387 C389 1.358 . S
C387 H429 0.930 . S
C388 N385 1.314 . S
C388 C386 1.353 . S
C388 H430 0.930 . S
C389 N385 1.279 . S
C389 C387 1.358 . S
C389 H431 0.930 . S
C390 C391 1.348 . S
C390 C392 1.356 . S
C390 O415 1.325 . S
C391 C390 1.348 . S
C391 C393 1.353 . S
C391 H432 0.929 . S
C392 C390 1.356 . S
C392 C394 1.358 . S
C392 H433 0.930 . S
C393 C391 1.353 . S
C393 N395 1.314 . S
C393 H434 0.930 . S
C394 C392 1.358 . S
C394 N395 1.279 . S
C394 H435 0.930 . S
N395 C393 1.314 . S
N395 C394 1.279 . S
C396 C398 1.353 . S
C396 N399 1.314 . S
C396 H402 0.930 . S
C397 N399 1.279 . S
C397 C400 1.358 . S
C397 H403 0.930 . S
C398 C396 1.353 . S
C398 C401 1.348 . S
C398 H436 0.929 . S
N399 Li354 1.990 . S
N399 C396 1.314 . S
N399 C397 1.279 . S
C400 C397 1.358 . S
C400 C401 1.356 . S
C400 H437 0.930 . S
C401 C398 1.348 . S
C401 C400 1.356 . S
H402 C396 0.930 . S
H403 C397 0.930 . S
C404 N405 1.314 . S
C404 C406 1.353 . S
C404 H410 0.930 . S
N405 Li355 1.990 . S
N405 C404 1.314 . S
N405 C408 1.279 . S
C406 C404 1.353 . S
C406 C409 1.348 . S
C406 H438 0.929 . S
C407 C408 1.358 . S
C407 C409 1.356 . S
C407 H439 0.930 . S
C408 N405 1.279 . S
C408 C407 1.358 . S
C408 H411 0.930 . S
C409 C406 1.348 . S
C409 C407 1.356 . S
H410 C404 0.930 . S
H411 C408 0.930 . S
O412 Li352 1.956 . S
O412 Li353 1.970 . S
O412 Li354 1.961 . S
O412 C356 1.325 . S
O413 Li352 1.970 . S
O413 Li353 1.956 . S
O413 Li355 1.961 . S
O413 C362 1.325 . S
O414 Li352 1.961 . S
O414 Li354 1.956 . S
O414 Li355 1.970 . S
O414 C384 1.325 . S
O415 Li353 1.961 . S
O415 Li354 1.970 . S
O415 Li355 1.956 . S
O415 C390 1.325 . S
H416 C358 0.929 . S
H417 C359 0.930 . S
H418 C360 0.930 . S
H419 C361 0.930 . S
H420 C363 0.930 . S
H421 C365 0.929 . S
H422 C366 0.930 . S
H423 C367 0.930 . S
H424 C370 0.930 . S
H425 C373 0.929 . S
H426 C378 0.929 . S
H427 C379 0.930 . S
H428 C386 0.929 . S
H429 C387 0.930 . S
H430 C388 0.930 . S
H431 C389 0.930 . S
H432 C391 0.929 . S
H433 C392 0.930 . S
H434 C393 0.930 . S
H435 C394 0.930 . S
H436 C398 0.929 . S
H437 C400 0.930 . S
H438 C406 0.929 . S
H439 C407 0.930 . S
Li440 N457 1.990 . S
Li440 O500 1.956 . S
Li440 O501 1.970 . S
Li440 O502 1.961 . S
Li441 N465 1.990 . S
Li441 O500 1.970 . S
Li441 O501 1.956 . S
Li441 O503 1.961 . S
Li442 N487 1.990 . S
Li442 O500 1.961 . S
Li442 O502 1.956 . S
Li442 O503 1.970 . S
Li443 N493 1.990 . S
Li443 O501 1.961 . S
Li443 O502 1.970 . S
Li443 O503 1.956 . S
C444 C446 1.348 . S
C444 C447 1.356 . S
C444 O500 1.325 . S
N445 C448 1.314 . S
N445 C449 1.279 . S
C446 C444 1.348 . S
C446 C448 1.353 . S
C446 H504 0.929 . S
C447 C444 1.356 . S
C447 C449 1.358 . S
C447 H505 0.930 . S
C448 N445 1.314 . S
C448 C446 1.353 . S
C448 H506 0.930 . S
C449 N445 1.279 . S
C449 C447 1.358 . S
C449 H507 0.930 . S
C450 C453 1.348 . S
C450 C454 1.356 . S
C450 O501 1.325 . S
C451 N452 1.279 . S
C451 C454 1.358 . S
C451 H508 0.930 . S
N452 C451 1.279 . S
N452 C455 1.314 . S
C453 C450 1.348 . S
C453 C455 1.353 . S
C453 H509 0.929 . S
C454 C450 1.356 . S
C454 C451 1.358 . S
C454 H510 0.930 . S
C455 N452 1.314 . S
C455 C453 1.353 . S
C455 H511 0.930 . S
C456 N457 1.314 . S
C456 C461 1.353 . S
C456 H462 0.930 . S
N457 Li440 1.990 . S
N457 C456 1.314 . S
N457 C459 1.279 . S
C458 C459 1.358 . S
C458 C460 1.356 . S
C458 H512 0.930 . S
C459 N457 1.279 . S
C459 C458 1.358 . S
C459 H463 0.930 . S
C460 C458 1.356 . S
C460 C461 1.348 . S
C461 C456 1.353 . S
C461 C460 1.348 . S
C461 H513 0.929 . S
H462 C456 0.930 . S
H463 C459 0.930 . S
C464 N465 1.314 . S
C464 C466 1.353 . S
C464 H470 0.930 . S
N465 Li441 1.990 . S
N465 C464 1.314 . S
N465 C468 1.279 . S
C466 C464 1.353 . S
C466 C469 1.348 . S
C466 H514 0.929 . S
C467 C468 1.358 . S
C467 C469 1.356 . S
C467 H515 0.930 . S
C468 N465 1.279 . S
C468 C467 1.358 . S
C468 H471 0.930 . S
C469 C466 1.348 . S
C469 C467 1.356 . S
H470 C464 0.930 . S
H471 C468 0.930 . S
C472 C474 1.348 . S
C472 C475 1.356 . S
C472 O502 1.325 . S
N473 C476 1.314 . S
N473 C477 1.279 . S
C474 C472 1.348 . S
C474 C476 1.353 . S
C474 H516 0.929 . S
C475 C472 1.356 . S
C475 C477 1.358 . S
C475 H517 0.930 . S
C476 N473 1.314 . S
C476 C474 1.353 . S
C476 H518 0.930 . S
C477 N473 1.279 . S
C477 C475 1.358 . S
C477 H519 0.930 . S
C478 C479 1.348 . S
C478 C480 1.356 . S
C478 O503 1.325 . S
C479 C478 1.348 . S
C479 C481 1.353 . S
C479 H520 0.929 . S
C480 C478 1.356 . S
C480 C482 1.358 . S
C480 H521 0.930 . S
C481 C479 1.353 . S
C481 N483 1.314 . S
C481 H522 0.930 . S
C482 C480 1.358 . S
C482 N483 1.279 . S
C482 H523 0.930 . S
N483 C481 1.314 . S
N483 C482 1.279 . S
C484 C486 1.353 . S
C484 N487 1.314 . S
C484 H490 0.930 . S
C485 N487 1.279 . S
C485 C488 1.358 . S
C485 H491 0.930 . S
C486 C484 1.353 . S
C486 C489 1.348 . S
C486 H524 0.929 . S
N487 Li442 1.990 . S
N487 C484 1.314 . S
N487 C485 1.279 . S
C488 C485 1.358 . S
C488 C489 1.356 . S
C488 H525 0.930 . S
C489 C486 1.348 . S
C489 C488 1.356 . S
H490 C484 0.930 . S
H491 C485 0.930 . S
C492 N493 1.314 . S
C492 C494 1.353 . S
C492 H498 0.930 . S
N493 Li443 1.990 . S
N493 C492 1.314 . S
N493 C496 1.279 . S
C494 C492 1.353 . S
C494 C497 1.348 . S
C494 H526 0.929 . S
C495 C496 1.358 . S
C495 C497 1.356 . S
C495 H527 0.930 . S
C496 N493 1.279 . S
C496 C495 1.358 . S
C496 H499 0.930 . S
C497 C494 1.348 . S
C497 C495 1.356 . S
H498 C492 0.930 . S
H499 C496 0.930 . S
O500 Li440 1.956 . S
O500 Li441 1.970 . S
O500 Li442 1.961 . S
O500 C444 1.325 . S
O501 Li440 1.970 . S
O501 Li441 1.956 . S
O501 Li443 1.961 . S
O501 C450 1.325 . S
O502 Li440 1.961 . S
O502 Li442 1.956 . S
O502 Li443 1.970 . S
O502 C472 1.325 . S
O503 Li441 1.961 . S
O503 Li442 1.970 . S
O503 Li443 1.956 . S
O503 C478 1.325 . S
H504 C446 0.929 . S
H505 C447 0.930 . S
H506 C448 0.930 . S
H507 C449 0.930 . S
H508 C451 0.930 . S
H509 C453 0.929 . S
H510 C454 0.930 . S
H511 C455 0.930 . S
H512 C458 0.930 . S
H513 C461 0.929 . S
H514 C466 0.929 . S
H515 C467 0.930 . S
H516 C474 0.929 . S
H517 C475 0.930 . S
H518 C476 0.930 . S
H519 C477 0.930 . S
H520 C479 0.929 . S
H521 C480 0.930 . S
H522 C481 0.930 . S
H523 C482 0.930 . S
H524 C486 0.929 . S
H525 C488 0.930 . S
H526 C494 0.929 . S
H527 C495 0.930 . S
Li528 N545 1.990 . S
Li528 O588 1.956 . S
Li528 O589 1.970 . S
Li528 O590 1.961 . S
Li529 N553 1.990 . S
Li529 O588 1.970 . S
Li529 O589 1.956 . S
Li529 O591 1.961 . S
Li530 N575 1.990 . S
Li530 O588 1.961 . S
Li530 O590 1.956 . S
Li530 O591 1.970 . S
Li531 N581 1.990 . S
Li531 O589 1.961 . S
Li531 O590 1.970 . S
Li531 O591 1.956 . S
C532 C534 1.348 . S
C532 C535 1.356 . S
C532 O588 1.325 . S
N533 C536 1.314 . S
N533 C537 1.279 . S
C534 C532 1.348 . S
C534 C536 1.353 . S
C534 H592 0.929 . S
C535 C532 1.356 . S
C535 C537 1.358 . S
C535 H593 0.930 . S
C536 N533 1.314 . S
C536 C534 1.353 . S
C536 H594 0.930 . S
C537 N533 1.279 . S
C537 C535 1.358 . S
C537 H595 0.930 . S
C538 C541 1.348 . S
C538 C542 1.356 . S
C538 O589 1.325 . S
C539 N540 1.279 . S
C539 C542 1.358 . S
C539 H596 0.930 . S
N540 C539 1.279 . S
N540 C543 1.314 . S
C541 C538 1.348 . S
C541 C543 1.353 . S
C541 H597 0.929 . S
C542 C538 1.356 . S
C542 C539 1.358 . S
C542 H598 0.930 . S
C543 N540 1.314 . S
C543 C541 1.353 . S
C543 H599 0.930 . S
C544 N545 1.314 . S
C544 C549 1.353 . S
C544 H550 0.930 . S
N545 Li528 1.990 . S
N545 C544 1.314 . S
N545 C547 1.279 . S
C546 C547 1.358 . S
C546 C548 1.356 . S
C546 H600 0.930 . S
C547 N545 1.279 . S
C547 C546 1.358 . S
C547 H551 0.930 . S
C548 C546 1.356 . S
C548 C549 1.348 . S
C549 C544 1.353 . S
C549 C548 1.348 . S
C549 H601 0.929 . S
H550 C544 0.930 . S
H551 C547 0.930 . S
C552 N553 1.314 . S
C552 C554 1.353 . S
C552 H558 0.930 . S
N553 Li529 1.990 . S
N553 C552 1.314 . S
N553 C556 1.279 . S
C554 C552 1.353 . S
C554 C557 1.348 . S
C554 H602 0.929 . S
C555 C556 1.358 . S
C555 C557 1.356 . S
C555 H603 0.930 . S
C556 N553 1.279 . S
C556 C555 1.358 . S
C556 H559 0.930 . S
C557 C554 1.348 . S
C557 C555 1.356 . S
H558 C552 0.930 . S
H559 C556 0.930 . S
C560 C562 1.348 . S
C560 C563 1.356 . S
C560 O590 1.325 . S
N561 C564 1.314 . S
N561 C565 1.279 . S
C562 C560 1.348 . S
C562 C564 1.353 . S
C562 H604 0.929 . S
C563 C560 1.356 . S
C563 C565 1.358 . S
C563 H605 0.930 . S
C564 N561 1.314 . S
C564 C562 1.353 . S
C564 H606 0.930 . S
C565 N561 1.279 . S
C565 C563 1.358 . S
C565 H607 0.930 . S
C566 C567 1.348 . S
C566 C568 1.356 . S
C566 O591 1.325 . S
C567 C566 1.348 . S
C567 C569 1.353 . S
C567 H608 0.929 . S
C568 C566 1.356 . S
C568 C570 1.358 . S
C568 H609 0.930 . S
C569 C567 1.353 . S
C569 N571 1.314 . S
C569 H610 0.930 . S
C570 C568 1.358 . S
C570 N571 1.279 . S
C570 H611 0.930 . S
N571 C569 1.314 . S
N571 C570 1.279 . S
C572 C574 1.353 . S
C572 N575 1.314 . S
C572 H578 0.930 . S
C573 N575 1.279 . S
C573 C576 1.358 . S
C573 H579 0.930 . S
C574 C572 1.353 . S
C574 C577 1.348 . S
C574 H612 0.929 . S
N575 Li530 1.990 . S
N575 C572 1.314 . S
N575 C573 1.279 . S
C576 C573 1.358 . S
C576 C577 1.356 . S
C576 H613 0.930 . S
C577 C574 1.348 . S
C577 C576 1.356 . S
H578 C572 0.930 . S
H579 C573 0.930 . S
C580 N581 1.314 . S
C580 C582 1.353 . S
C580 H586 0.930 . S
N581 Li531 1.990 . S
N581 C580 1.314 . S
N581 C584 1.279 . S
C582 C580 1.353 . S
C582 C585 1.348 . S
C582 H614 0.929 . S
C583 C584 1.358 . S
C583 C585 1.356 . S
C583 H615 0.930 . S
C584 N581 1.279 . S
C584 C583 1.358 . S
C584 H587 0.930 . S
C585 C582 1.348 . S
C585 C583 1.356 . S
H586 C580 0.930 . S
H587 C584 0.930 . S
O588 Li528 1.956 . S
O588 Li529 1.970 . S
O588 Li530 1.961 . S
O588 C532 1.325 . S
O589 Li528 1.970 . S
O589 Li529 1.956 . S
O589 Li531 1.961 . S
O589 C538 1.325 . S
O590 Li528 1.961 . S
O590 Li530 1.956 . S
O590 Li531 1.970 . S
O590 C560 1.325 . S
O591 Li529 1.961 . S
O591 Li530 1.970 . S
O591 Li531 1.956 . S
O591 C566 1.325 . S
H592 C534 0.929 . S
H593 C535 0.930 . S
H594 C536 0.930 . S
H595 C537 0.930 . S
H596 C539 0.930 . S
H597 C541 0.929 . S
H598 C542 0.930 . S
H599 C543 0.930 . S
H600 C546 0.930 . S
H601 C549 0.929 . S
H602 C554 0.929 . S
H603 C555 0.930 . S
H604 C562 0.929 . S
H605 C563 0.930 . S
H606 C564 0.930 . S
H607 C565 0.930 . S
H608 C567 0.929 . S
H609 C568 0.930 . S
H610 C569 0.930 . S
H611 C570 0.930 . S
H612 C574 0.929 . S
H613 C576 0.930 . S
H614 C582 0.929 . S
H615 C583 0.930 . S
Li616 N633 1.990 . S
Li616 O676 1.956 . S
Li616 O677 1.970 . S
Li616 O678 1.961 . S
Li617 N641 1.990 . S
Li617 O676 1.970 . S
Li617 O677 1.956 . S
Li617 O679 1.961 . S
Li618 N663 1.990 . S
Li618 O676 1.961 . S
Li618 O678 1.956 . S
Li618 O679 1.970 . S
Li619 N669 1.990 . S
Li619 O677 1.961 . S
Li619 O678 1.970 . S
Li619 O679 1.956 . S
C620 C622 1.348 . S
C620 C623 1.356 . S
C620 O676 1.325 . S
N621 C624 1.314 . S
N621 C625 1.279 . S
C622 C620 1.348 . S
C622 C624 1.353 . S
C622 H680 0.929 . S
C623 C620 1.356 . S
C623 C625 1.358 . S
C623 H681 0.930 . S
C624 N621 1.314 . S
C624 C622 1.353 . S
C624 H682 0.930 . S
C625 N621 1.279 . S
C625 C623 1.358 . S
C625 H683 0.930 . S
C626 C629 1.348 . S
C626 C630 1.356 . S
C626 O677 1.325 . S
C627 N628 1.279 . S
C627 C630 1.358 . S
C627 H684 0.930 . S
N628 C627 1.279 . S
N628 C631 1.314 . S
C629 C626 1.348 . S
C629 C631 1.353 . S
C629 H685 0.929 . S
C630 C626 1.356 . S
C630 C627 1.358 . S
C630 H686 0.930 . S
C631 N628 1.314 . S
C631 C629 1.353 . S
C631 H687 0.930 . S
C632 N633 1.314 . S
C632 C637 1.353 . S
C632 H638 0.930 . S
N633 Li616 1.990 . S
N633 C632 1.314 . S
N633 C635 1.279 . S
C634 C635 1.358 . S
C634 C636 1.356 . S
C634 H688 0.930 . S
C635 N633 1.279 . S
C635 C634 1.358 . S
C635 H639 0.930 . S
C636 C634 1.356 . S
C636 C637 1.348 . S
C637 C632 1.353 . S
C637 C636 1.348 . S
C637 H689 0.929 . S
H638 C632 0.930 . S
H639 C635 0.930 . S
C640 N641 1.314 . S
C640 C642 1.353 . S
C640 H646 0.930 . S
N641 Li617 1.990 . S
N641 C640 1.314 . S
N641 C644 1.279 . S
C642 C640 1.353 . S
C642 C645 1.348 . S
C642 H690 0.929 . S
C643 C644 1.358 . S
C643 C645 1.356 . S
C643 H691 0.930 . S
C644 N641 1.279 . S
C644 C643 1.358 . S
C644 H647 0.930 . S
C645 C642 1.348 . S
C645 C643 1.356 . S
H646 C640 0.930 . S
H647 C644 0.930 . S
C648 C650 1.348 . S
C648 C651 1.356 . S
C648 O678 1.325 . S
N649 C652 1.314 . S
N649 C653 1.279 . S
C650 C648 1.348 . S
C650 C652 1.353 . S
C650 H692 0.929 . S
C651 C648 1.356 . S
C651 C653 1.358 . S
C651 H693 0.930 . S
C652 N649 1.314 . S
C652 C650 1.353 . S
C652 H694 0.930 . S
C653 N649 1.279 . S
C653 C651 1.358 . S
C653 H695 0.930 . S
C654 C655 1.348 . S
C654 C656 1.356 . S
C654 O679 1.325 . S
C655 C654 1.348 . S
C655 C657 1.353 . S
C655 H696 0.929 . S
C656 C654 1.356 . S
C656 C658 1.358 . S
C656 H697 0.930 . S
C657 C655 1.353 . S
C657 N659 1.314 . S
C657 H698 0.930 . S
C658 C656 1.358 . S
C658 N659 1.279 . S
C658 H699 0.930 . S
N659 C657 1.314 . S
N659 C658 1.279 . S
C660 C662 1.353 . S
C660 N663 1.314 . S
C660 H666 0.930 . S
C661 N663 1.279 . S
C661 C664 1.358 . S
C661 H667 0.930 . S
C662 C660 1.353 . S
C662 C665 1.348 . S
C662 H700 0.929 . S
N663 Li618 1.990 . S
N663 C660 1.314 . S
N663 C661 1.279 . S
C664 C661 1.358 . S
C664 C665 1.356 . S
C664 H701 0.930 . S
C665 C662 1.348 . S
C665 C664 1.356 . S
H666 C660 0.930 . S
H667 C661 0.930 . S
C668 N669 1.314 . S
C668 C670 1.353 . S
C668 H674 0.930 . S
N669 Li619 1.990 . S
N669 C668 1.314 . S
N669 C672 1.279 . S
C670 C668 1.353 . S
C670 C673 1.348 . S
C670 H702 0.929 . S
C671 C672 1.358 . S
C671 C673 1.356 . S
C671 H703 0.930 . S
C672 N669 1.279 . S
C672 C671 1.358 . S
C672 H675 0.930 . S
C673 C670 1.348 . S
C673 C671 1.356 . S
H674 C668 0.930 . S
H675 C672 0.930 . S
O676 Li616 1.956 . S
O676 Li617 1.970 . S
O676 Li618 1.961 . S
O676 C620 1.325 . S
O677 Li616 1.970 . S
O677 Li617 1.956 . S
O677 Li619 1.961 . S
O677 C626 1.325 . S
O678 Li616 1.961 . S
O678 Li618 1.956 . S
O678 Li619 1.970 . S
O678 C648 1.325 . S
O679 Li617 1.961 . S
O679 Li618 1.970 . S
O679 Li619 1.956 . S
O679 C654 1.325 . S
H680 C622 0.929 . S
H681 C623 0.930 . S
H682 C624 0.930 . S
H683 C625 0.930 . S
H684 C627 0.930 . S
H685 C629 0.929 . S
H686 C630 0.930 . S
H687 C631 0.930 . S
H688 C634 0.930 . S
H689 C637 0.929 . S
H690 C642 0.929 . S
H691 C643 0.930 . S
H692 C650 0.929 . S
H693 C651 0.930 . S
H694 C652 0.930 . S
H695 C653 0.930 . S
H696 C655 0.929 . S
H697 C656 0.930 . S
H698 C657 0.930 . S
H699 C658 0.930 . S
H700 C662 0.929 . S
H701 C664 0.930 . S
H702 C670 0.929 . S
H703 C671 0.930 . S
Li704 N721 1.990 . S
Li704 O764 1.956 . S
Li704 O765 1.970 . S
Li704 O766 1.961 . S
Li705 N729 1.990 . S
Li705 O764 1.970 . S
Li705 O765 1.956 . S
Li705 O767 1.961 . S
Li706 N751 1.990 . S
Li706 O764 1.961 . S
Li706 O766 1.956 . S
Li706 O767 1.970 . S
Li707 N757 1.990 . S
Li707 O765 1.961 . S
Li707 O766 1.970 . S
Li707 O767 1.956 . S
C708 C710 1.348 . S
C708 C711 1.356 . S
C708 O764 1.325 . S
N709 C712 1.314 . S
N709 C713 1.279 . S
C710 C708 1.348 . S
C710 C712 1.353 . S
C710 H768 0.929 . S
C711 C708 1.356 . S
C711 C713 1.358 . S
C711 H769 0.930 . S
C712 N709 1.314 . S
C712 C710 1.353 . S
C712 H770 0.930 . S
C713 N709 1.279 . S
C713 C711 1.358 . S
C713 H771 0.930 . S
C714 C717 1.348 . S
C714 C718 1.356 . S
C714 O765 1.325 . S
C715 N716 1.279 . S
C715 C718 1.358 . S
C715 H772 0.930 . S
N716 C715 1.279 . S
N716 C719 1.314 . S
C717 C714 1.348 . S
C717 C719 1.353 . S
C717 H773 0.929 . S
C718 C714 1.356 . S
C718 C715 1.358 . S
C718 H774 0.930 . S
C719 N716 1.314 . S
C719 C717 1.353 . S
C719 H775 0.930 . S
C720 N721 1.314 . S
C720 C725 1.353 . S
C720 H726 0.930 . S
N721 Li704 1.990 . S
N721 C720 1.314 . S
N721 C723 1.279 . S
C722 C723 1.358 . S
C722 C724 1.356 . S
C722 H776 0.930 . S
C723 N721 1.279 . S
C723 C722 1.358 . S
C723 H727 0.930 . S
C724 C722 1.356 . S
C724 C725 1.348 . S
C725 C720 1.353 . S
C725 C724 1.348 . S
C725 H777 0.929 . S
H726 C720 0.930 . S
H727 C723 0.930 . S
C728 N729 1.314 . S
C728 C730 1.353 . S
C728 H734 0.930 . S
N729 Li705 1.990 . S
N729 C728 1.314 . S
N729 C732 1.279 . S
C730 C728 1.353 . S
C730 C733 1.348 . S
C730 H778 0.929 . S
C731 C732 1.358 . S
C731 C733 1.356 . S
C731 H779 0.930 . S
C732 N729 1.279 . S
C732 C731 1.358 . S
C732 H735 0.930 . S
C733 C730 1.348 . S
C733 C731 1.356 . S
H734 C728 0.930 . S
H735 C732 0.930 . S
C736 C738 1.348 . S
C736 C739 1.356 . S
C736 O766 1.325 . S
N737 C740 1.314 . S
N737 C741 1.279 . S
C738 C736 1.348 . S
C738 C740 1.353 . S
C738 H780 0.929 . S
C739 C736 1.356 . S
C739 C741 1.358 . S
C739 H781 0.930 . S
C740 N737 1.314 . S
C740 C738 1.353 . S
C740 H782 0.930 . S
C741 N737 1.279 . S
C741 C739 1.358 . S
C741 H783 0.930 . S
C742 C743 1.348 . S
C742 C744 1.356 . S
C742 O767 1.325 . S
C743 C742 1.348 . S
C743 C745 1.353 . S
C743 H784 0.929 . S
C744 C742 1.356 . S
C744 C746 1.358 . S
C744 H785 0.930 . S
C745 C743 1.353 . S
C745 N747 1.314 . S
C745 H786 0.930 . S
C746 C744 1.358 . S
C746 N747 1.279 . S
C746 H787 0.930 . S
N747 C745 1.314 . S
N747 C746 1.279 . S
C748 C750 1.353 . S
C748 N751 1.314 . S
C748 H754 0.930 . S
C749 N751 1.279 . S
C749 C752 1.358 . S
C749 H755 0.930 . S
C750 C748 1.353 . S
C750 C753 1.348 . S
C750 H788 0.929 . S
N751 Li706 1.990 . S
N751 C748 1.314 . S
N751 C749 1.279 . S
C752 C749 1.358 . S
C752 C753 1.356 . S
C752 H789 0.930 . S
C753 C750 1.348 . S
C753 C752 1.356 . S
H754 C748 0.930 . S
H755 C749 0.930 . S
C756 N757 1.314 . S
C756 C758 1.353 . S
C756 H762 0.930 . S
N757 Li707 1.990 . S
N757 C756 1.314 . S
N757 C760 1.279 . S
C758 C756 1.353 . S
C758 C761 1.348 . S
C758 H790 0.929 . S
C759 C760 1.358 . S
C759 C761 1.356 . S
C759 H791 0.930 . S
C760 N757 1.279 . S
C760 C759 1.358 . S
C760 H763 0.930 . S
C761 C758 1.348 . S
C761 C759 1.356 . S
H762 C756 0.930 . S
H763 C760 0.930 . S
O764 Li704 1.956 . S
O764 Li705 1.970 . S
O764 Li706 1.961 . S
O764 C708 1.325 . S
O765 Li704 1.970 . S
O765 Li705 1.956 . S
O765 Li707 1.961 . S
O765 C714 1.325 . S
O766 Li704 1.961 . S
O766 Li706 1.956 . S
O766 Li707 1.970 . S
O766 C736 1.325 . S
O767 Li705 1.961 . S
O767 Li706 1.970 . S
O767 Li707 1.956 . S
O767 C742 1.325 . S
H768 C710 0.929 . S
H769 C711 0.930 . S
H770 C712 0.930 . S
H771 C713 0.930 . S
H772 C715 0.930 . S
H773 C717 0.929 . S
H774 C718 0.930 . S
H775 C719 0.930 . S
H776 C722 0.930 . S
H777 C725 0.929 . S
H778 C730 0.929 . S
H779 C731 0.930 . S
H780 C738 0.929 . S
H781 C739 0.930 . S
H782 C740 0.930 . S
H783 C741 0.930 . S
H784 C743 0.929 . S
H785 C744 0.930 . S
H786 C745 0.930 . S
H787 C746 0.930 . S
H788 C750 0.929 . S
H789 C752 0.930 . S
H790 C758 0.929 . S
H791 C759 0.930 . S
Li792 N809 1.990 . S
Li792 O852 1.956 . S
Li792 O853 1.970 . S
Li792 O854 1.961 . S
Li793 N817 1.990 . S
Li793 O852 1.970 . S
Li793 O853 1.956 . S
Li793 O855 1.961 . S
Li794 N839 1.990 . S
Li794 O852 1.961 . S
Li794 O854 1.956 . S
Li794 O855 1.970 . S
Li795 N845 1.990 . S
Li795 O853 1.961 . S
Li795 O854 1.970 . S
Li795 O855 1.956 . S
C796 C798 1.348 . S
C796 C799 1.356 . S
C796 O852 1.325 . S
N797 C800 1.314 . S
N797 C801 1.279 . S
C798 C796 1.348 . S
C798 C800 1.353 . S
C798 H856 0.929 . S
C799 C796 1.356 . S
C799 C801 1.358 . S
C799 H857 0.930 . S
C800 N797 1.314 . S
C800 C798 1.353 . S
C800 H858 0.930 . S
C801 N797 1.279 . S
C801 C799 1.358 . S
C801 H859 0.930 . S
C802 C805 1.348 . S
C802 C806 1.356 . S
C802 O853 1.325 . S
C803 N804 1.279 . S
C803 C806 1.358 . S
C803 H860 0.930 . S
N804 C803 1.279 . S
N804 C807 1.314 . S
C805 C802 1.348 . S
C805 C807 1.353 . S
C805 H861 0.929 . S
C806 C802 1.356 . S
C806 C803 1.358 . S
C806 H862 0.930 . S
C807 N804 1.314 . S
C807 C805 1.353 . S
C807 H863 0.930 . S
C808 N809 1.314 . S
C808 C813 1.353 . S
C808 H814 0.930 . S
N809 Li792 1.990 . S
N809 C808 1.314 . S
N809 C811 1.279 . S
C810 C811 1.358 . S
C810 C812 1.356 . S
C810 H864 0.930 . S
C811 N809 1.279 . S
C811 C810 1.358 . S
C811 H815 0.930 . S
C812 C810 1.356 . S
C812 C813 1.348 . S
C813 C808 1.353 . S
C813 C812 1.348 . S
C813 H865 0.929 . S
H814 C808 0.930 . S
H815 C811 0.930 . S
C816 N817 1.314 . S
C816 C818 1.353 . S
C816 H822 0.930 . S
N817 Li793 1.990 . S
N817 C816 1.314 . S
N817 C820 1.279 . S
C818 C816 1.353 . S
C818 C821 1.348 . S
C818 H866 0.929 . S
C819 C820 1.358 . S
C819 C821 1.356 . S
C819 H867 0.930 . S
C820 N817 1.279 . S
C820 C819 1.358 . S
C820 H823 0.930 . S
C821 C818 1.348 . S
C821 C819 1.356 . S
H822 C816 0.930 . S
H823 C820 0.930 . S
C824 C826 1.348 . S
C824 C827 1.356 . S
C824 O854 1.325 . S
N825 C828 1.314 . S
N825 C829 1.279 . S
C826 C824 1.348 . S
C826 C828 1.353 . S
C826 H868 0.929 . S
C827 C824 1.356 . S
C827 C829 1.358 . S
C827 H869 0.930 . S
C828 N825 1.314 . S
C828 C826 1.353 . S
C828 H870 0.930 . S
C829 N825 1.279 . S
C829 C827 1.358 . S
C829 H871 0.930 . S
C830 C831 1.348 . S
C830 C832 1.356 . S
C830 O855 1.325 . S
C831 C830 1.348 . S
C831 C833 1.353 . S
C831 H872 0.929 . S
C832 C830 1.356 . S
C832 C834 1.358 . S
C832 H873 0.930 . S
C833 C831 1.353 . S
C833 N835 1.314 . S
C833 H874 0.930 . S
C834 C832 1.358 . S
C834 N835 1.279 . S
C834 H875 0.930 . S
N835 C833 1.314 . S
N835 C834 1.279 . S
C836 C838 1.353 . S
C836 N839 1.314 . S
C836 H842 0.930 . S
C837 N839 1.279 . S
C837 C840 1.358 . S
C837 H843 0.930 . S
C838 C836 1.353 . S
C838 C841 1.348 . S
C838 H876 0.929 . S
N839 Li794 1.990 . S
N839 C836 1.314 . S
N839 C837 1.279 . S
C840 C837 1.358 . S
C840 C841 1.356 . S
C840 H877 0.930 . S
C841 C838 1.348 . S
C841 C840 1.356 . S
H842 C836 0.930 . S
H843 C837 0.930 . S
C844 N845 1.314 . S
C844 C846 1.353 . S
C844 H850 0.930 . S
N845 Li795 1.990 . S
N845 C844 1.314 . S
N845 C848 1.279 . S
C846 C844 1.353 . S
C846 C849 1.348 . S
C846 H878 0.929 . S
C847 C848 1.358 . S
C847 C849 1.356 . S
C847 H879 0.930 . S
C848 N845 1.279 . S
C848 C847 1.358 . S
C848 H851 0.930 . S
C849 C846 1.348 . S
C849 C847 1.356 . S
H850 C844 0.930 . S
H851 C848 0.930 . S
O852 Li792 1.956 . S
O852 Li793 1.970 . S
O852 Li794 1.961 . S
O852 C796 1.325 . S
O853 Li792 1.970 . S
O853 Li793 1.956 . S
O853 Li795 1.961 . S
O853 C802 1.325 . S
O854 Li792 1.961 . S
O854 Li794 1.956 . S
O854 Li795 1.970 . S
O854 C824 1.325 . S
O855 Li793 1.961 . S
O855 Li794 1.970 . S
O855 Li795 1.956 . S
O855 C830 1.325 . S
H856 C798 0.929 . S
H857 C799 0.930 . S
H858 C800 0.930 . S
H859 C801 0.930 . S
H860 C803 0.930 . S
H861 C805 0.929 . S
H862 C806 0.930 . S
H863 C807 0.930 . S
H864 C810 0.930 . S
H865 C813 0.929 . S
H866 C818 0.929 . S
H867 C819 0.930 . S
H868 C826 0.929 . S
H869 C827 0.930 . S
H870 C828 0.930 . S
H871 C829 0.930 . S
H872 C831 0.929 . S
H873 C832 0.930 . S
H874 C833 0.930 . S
H875 C834 0.930 . S
H876 C838 0.929 . S
H877 C840 0.930 . S
H878 C846 0.929 . S
H879 C847 0.930 . S
Li880 N897 1.990 . S
Li880 O940 1.956 . S
Li880 O941 1.970 . S
Li880 O942 1.961 . S
Li881 N905 1.990 . S
Li881 O940 1.970 . S
Li881 O941 1.956 . S
Li881 O943 1.961 . S
Li882 N927 1.990 . S
Li882 O940 1.961 . S
Li882 O942 1.956 . S
Li882 O943 1.970 . S
Li883 N933 1.990 . S
Li883 O941 1.961 . S
Li883 O942 1.970 . S
Li883 O943 1.956 . S
C884 C886 1.348 . S
C884 C887 1.356 . S
C884 O940 1.325 . S
N885 C888 1.314 . S
N885 C889 1.279 . S
C886 C884 1.348 . S
C886 C888 1.353 . S
C886 H944 0.929 . S
C887 C884 1.356 . S
C887 C889 1.358 . S
C887 H945 0.930 . S
C888 N885 1.314 . S
C888 C886 1.353 . S
C888 H946 0.930 . S
C889 N885 1.279 . S
C889 C887 1.358 . S
C889 H947 0.930 . S
C890 C893 1.348 . S
C890 C894 1.356 . S
C890 O941 1.325 . S
C891 N892 1.279 . S
C891 C894 1.358 . S
C891 H948 0.930 . S
N892 C891 1.279 . S
N892 C895 1.314 . S
C893 C890 1.348 . S
C893 C895 1.353 . S
C893 H949 0.929 . S
C894 C890 1.356 . S
C894 C891 1.358 . S
C894 H950 0.930 . S
C895 N892 1.314 . S
C895 C893 1.353 . S
C895 H951 0.930 . S
C896 N897 1.314 . S
C896 C901 1.353 . S
C896 H902 0.930 . S
N897 Li880 1.990 . S
N897 C896 1.314 . S
N897 C899 1.279 . S
C898 C899 1.358 . S
C898 C900 1.356 . S
C898 H952 0.930 . S
C899 N897 1.279 . S
C899 C898 1.358 . S
C899 H903 0.930 . S
C900 C898 1.356 . S
C900 C901 1.348 . S
C901 C896 1.353 . S
C901 C900 1.348 . S
C901 H953 0.929 . S
H902 C896 0.930 . S
H903 C899 0.930 . S
C904 N905 1.314 . S
C904 C906 1.353 . S
C904 H910 0.930 . S
N905 Li881 1.990 . S
N905 C904 1.314 . S
N905 C908 1.279 . S
C906 C904 1.353 . S
C906 C909 1.348 . S
C906 H954 0.929 . S
C907 C908 1.358 . S
C907 C909 1.356 . S
C907 H955 0.930 . S
C908 N905 1.279 . S
C908 C907 1.358 . S
C908 H911 0.930 . S
C909 C906 1.348 . S
C909 C907 1.356 . S
H910 C904 0.930 . S
H911 C908 0.930 . S
C912 C914 1.348 . S
C912 C915 1.356 . S
C912 O942 1.325 . S
N913 C916 1.314 . S
N913 C917 1.279 . S
C914 C912 1.348 . S
C914 C916 1.353 . S
C914 H956 0.929 . S
C915 C912 1.356 . S
C915 C917 1.358 . S
C915 H957 0.930 . S
C916 N913 1.314 . S
C916 C914 1.353 . S
C916 H958 0.930 . S
C917 N913 1.279 . S
C917 C915 1.358 . S
C917 H959 0.930 . S
C918 C919 1.348 . S
C918 C920 1.356 . S
C918 O943 1.325 . S
C919 C918 1.348 . S
C919 C921 1.353 . S
C919 H960 0.929 . S
C920 C918 1.356 . S
C920 C922 1.358 . S
C920 H961 0.930 . S
C921 C919 1.353 . S
C921 N923 1.314 . S
C921 H962 0.930 . S
C922 C920 1.358 . S
C922 N923 1.279 . S
C922 H963 0.930 . S
N923 C921 1.314 . S
N923 C922 1.279 . S
C924 C926 1.353 . S
C924 N927 1.314 . S
C924 H930 0.930 . S
C925 N927 1.279 . S
C925 C928 1.358 . S
C925 H931 0.930 . S
C926 C924 1.353 . S
C926 C929 1.348 . S
C926 H964 0.929 . S
N927 Li882 1.990 . S
N927 C924 1.314 . S
N927 C925 1.279 . S
C928 C925 1.358 . S
C928 C929 1.356 . S
C928 H965 0.930 . S
C929 C926 1.348 . S
C929 C928 1.356 . S
H930 C924 0.930 . S
H931 C925 0.930 . S
C932 N933 1.314 . S
C932 C934 1.353 . S
C932 H938 0.930 . S
N933 Li883 1.990 . S
N933 C932 1.314 . S
N933 C936 1.279 . S
C934 C932 1.353 . S
C934 C937 1.348 . S
C934 H966 0.929 . S
C935 C936 1.358 . S
C935 C937 1.356 . S
C935 H967 0.930 . S
C936 N933 1.279 . S
C936 C935 1.358 . S
C936 H939 0.930 . S
C937 C934 1.348 . S
C937 C935 1.356 . S
H938 C932 0.930 . S
H939 C936 0.930 . S
O940 Li880 1.956 . S
O940 Li881 1.970 . S
O940 Li882 1.961 . S
O940 C884 1.325 . S
O941 Li880 1.970 . S
O941 Li881 1.956 . S
O941 Li883 1.961 . S
O941 C890 1.325 . S
O942 Li880 1.961 . S
O942 Li882 1.956 . S
O942 Li883 1.970 . S
O942 C912 1.325 . S
O943 Li881 1.961 . S
O943 Li882 1.970 . S
O943 Li883 1.956 . S
O943 C918 1.325 . S
H944 C886 0.929 . S
H945 C887 0.930 . S
H946 C888 0.930 . S
H947 C889 0.930 . S
H948 C891 0.930 . S
H949 C893 0.929 . S
H950 C894 0.930 . S
H951 C895 0.930 . S
H952 C898 0.930 . S
H953 C901 0.929 . S
H954 C906 0.929 . S
H955 C907 0.930 . S
H956 C914 0.929 . S
H957 C915 0.930 . S
H958 C916 0.930 . S
H959 C917 0.930 . S
H960 C919 0.929 . S
H961 C920 0.930 . S
H962 C921 0.930 . S
H963 C922 0.930 . S
H964 C926 0.929 . S
H965 C928 0.930 . S
H966 C934 0.929 . S
H967 C935 0.930 . S
Li968 N985 1.990 . S
Li968 O1028 1.956 . S
Li968 O1029 1.970 . S
Li968 O1030 1.961 . S
Li969 N993 1.990 . S
Li969 O1028 1.970 . S
Li969 O1029 1.956 . S
Li969 O1031 1.961 . S
Li970 N1015 1.990 . S
Li970 O1028 1.961 . S
Li970 O1030 1.956 . S
Li970 O1031 1.970 . S
Li971 N1021 1.990 . S
Li971 O1029 1.961 . S
Li971 O1030 1.970 . S
Li971 O1031 1.956 . S
C972 C974 1.348 . S
C972 C975 1.356 . S
C972 O1028 1.325 . S
N973 C976 1.314 . S
N973 C977 1.279 . S
C974 C972 1.348 . S
C974 C976 1.353 . S
C974 H1032 0.929 . S
C975 C972 1.356 . S
C975 C977 1.358 . S
C975 H1033 0.930 . S
C976 N973 1.314 . S
C976 C974 1.353 . S
C976 H1034 0.930 . S
C977 N973 1.279 . S
C977 C975 1.358 . S
C977 H1035 0.930 . S
C978 C981 1.348 . S
C978 C982 1.356 . S
C978 O1029 1.325 . S
C979 N980 1.279 . S
C979 C982 1.358 . S
C979 H1036 0.930 . S
N980 C979 1.279 . S
N980 C983 1.314 . S
C981 C978 1.348 . S
C981 C983 1.353 . S
C981 H1037 0.929 . S
C982 C978 1.356 . S
C982 C979 1.358 . S
C982 H1038 0.930 . S
C983 N980 1.314 . S
C983 C981 1.353 . S
C983 H1039 0.930 . S
C984 N985 1.314 . S
C984 C989 1.353 . S
C984 H990 0.930 . S
N985 Li968 1.990 . S
N985 C984 1.314 . S
N985 C987 1.279 . S
C986 C987 1.358 . S
C986 C988 1.356 . S
C986 H1040 0.930 . S
C987 N985 1.279 . S
C987 C986 1.358 . S
C987 H991 0.930 . S
C988 C986 1.356 . S
C988 C989 1.348 . S
C989 C984 1.353 . S
C989 C988 1.348 . S
C989 H1041 0.929 . S
H990 C984 0.930 . S
H991 C987 0.930 . S
C992 N993 1.314 . S
C992 C994 1.353 . S
C992 H998 0.930 . S
N993 Li969 1.990 . S
N993 C992 1.314 . S
N993 C996 1.279 . S
C994 C992 1.353 . S
C994 C997 1.348 . S
C994 H1042 0.929 . S
C995 C996 1.358 . S
C995 C997 1.356 . S
C995 H1043 0.930 . S
C996 N993 1.279 . S
C996 C995 1.358 . S
C996 H999 0.930 . S
C997 C994 1.348 . S
C997 C995 1.356 . S
H998 C992 0.930 . S
H999 C996 0.930 . S
C1000 C1002 1.348 . S
C1000 C1003 1.356 . S
C1000 O1030 1.325 . S
N1001 C1004 1.314 . S
N1001 C1005 1.279 . S
C1002 C1000 1.348 . S
C1002 C1004 1.353 . S
C1002 H1044 0.929 . S
C1003 C1000 1.356 . S
C1003 C1005 1.358 . S
C1003 H1045 0.930 . S
C1004 N1001 1.314 . S
C1004 C1002 1.353 . S
C1004 H1046 0.930 . S
C1005 N1001 1.279 . S
C1005 C1003 1.358 . S
C1005 H1047 0.930 . S
C1006 C1007 1.348 . S
C1006 C1008 1.356 . S
C1006 O1031 1.325 . S
C1007 C1006 1.348 . S
C1007 C1009 1.353 . S
C1007 H1048 0.929 . S
C1008 C1006 1.356 . S
C1008 C1010 1.358 . S
C1008 H1049 0.930 . S
C1009 C1007 1.353 . S
C1009 N1011 1.314 . S
C1009 H1050 0.930 . S
C1010 C1008 1.358 . S
C1010 N1011 1.279 . S
C1010 H1051 0.930 . S
N1011 C1009 1.314 . S
N1011 C1010 1.279 . S
C1012 C1014 1.353 . S
C1012 N1015 1.314 . S
C1012 H1018 0.930 . S
C1013 N1015 1.279 . S
C1013 C1016 1.358 . S
C1013 H1019 0.930 . S
C1014 C1012 1.353 . S
C1014 C1017 1.348 . S
C1014 H1052 0.929 . S
N1015 Li970 1.990 . S
N1015 C1012 1.314 . S
N1015 C1013 1.279 . S
C1016 C1013 1.358 . S
C1016 C1017 1.356 . S
C1016 H1053 0.930 . S
C1017 C1014 1.348 . S
C1017 C1016 1.356 . S
H1018 C1012 0.930 . S
H1019 C1013 0.930 . S
C1020 N1021 1.314 . S
C1020 C1022 1.353 . S
C1020 H1026 0.930 . S
N1021 Li971 1.990 . S
N1021 C1020 1.314 . S
N1021 C1024 1.279 . S
C1022 C1020 1.353 . S
C1022 C1025 1.348 . S
C1022 H1054 0.929 . S
C1023 C1024 1.358 . S
C1023 C1025 1.356 . S
C1023 H1055 0.930 . S
C1024 N1021 1.279 . S
C1024 C1023 1.358 . S
C1024 H1027 0.930 . S
C1025 C1022 1.348 . S
C1025 C1023 1.356 . S
H1026 C1020 0.930 . S
H1027 C1024 0.930 . S
O1028 Li968 1.956 . S
O1028 Li969 1.970 . S
O1028 Li970 1.961 . S
O1028 C972 1.325 . S
O1029 Li968 1.970 . S
O1029 Li969 1.956 . S
O1029 Li971 1.961 . S
O1029 C978 1.325 . S
O1030 Li968 1.961 . S
O1030 Li970 1.956 . S
O1030 Li971 1.970 . S
O1030 C1000 1.325 . S
O1031 Li969 1.961 . S
O1031 Li970 1.970 . S
O1031 Li971 1.956 . S
O1031 C1006 1.325 . S
H1032 C974 0.929 . S
H1033 C975 0.930 . S
H1034 C976 0.930 . S
H1035 C977 0.930 . S
H1036 C979 0.930 . S
H1037 C981 0.929 . S
H1038 C982 0.930 . S
H1039 C983 0.930 . S
H1040 C986 0.930 . S
H1041 C989 0.929 . S
H1042 C994 0.929 . S
H1043 C995 0.930 . S
H1044 C1002 0.929 . S
H1045 C1003 0.930 . S
H1046 C1004 0.930 . S
H1047 C1005 0.930 . S
H1048 C1007 0.929 . S
H1049 C1008 0.930 . S
H1050 C1009 0.930 . S
H1051 C1010 0.930 . S
H1052 C1014 0.929 . S
H1053 C1016 0.930 . S
H1054 C1022 0.929 . S
H1055 C1023 0.930 . S
Li1056 N1073 1.990 . S
Li1056 O1116 1.956 . S
Li1056 O1117 1.970 . S
Li1056 O1118 1.961 . S
Li1057 N1081 1.990 . S
Li1057 O1116 1.970 . S
Li1057 O1117 1.956 . S
Li1057 O1119 1.961 . S
Li1058 N1103 1.990 . S
Li1058 O1116 1.961 . S
Li1058 O1118 1.956 . S
Li1058 O1119 1.970 . S
Li1059 N1109 1.990 . S
Li1059 O1117 1.961 . S
Li1059 O1118 1.970 . S
Li1059 O1119 1.956 . S
C1060 C1062 1.348 . S
C1060 C1063 1.356 . S
C1060 O1116 1.325 . S
N1061 C1064 1.314 . S
N1061 C1065 1.279 . S
C1062 C1060 1.348 . S
C1062 C1064 1.353 . S
C1062 H1120 0.929 . S
C1063 C1060 1.356 . S
C1063 C1065 1.358 . S
C1063 H1121 0.930 . S
C1064 N1061 1.314 . S
C1064 C1062 1.353 . S
C1064 H1122 0.930 . S
C1065 N1061 1.279 . S
C1065 C1063 1.358 . S
C1065 H1123 0.930 . S
C1066 C1069 1.348 . S
C1066 C1070 1.356 . S
C1066 O1117 1.325 . S
C1067 N1068 1.279 . S
C1067 C1070 1.358 . S
C1067 H1124 0.930 . S
N1068 C1067 1.279 . S
N1068 C1071 1.314 . S
C1069 C1066 1.348 . S
C1069 C1071 1.353 . S
C1069 H1125 0.929 . S
C1070 C1066 1.356 . S
C1070 C1067 1.358 . S
C1070 H1126 0.930 . S
C1071 N1068 1.314 . S
C1071 C1069 1.353 . S
C1071 H1127 0.930 . S
C1072 N1073 1.314 . S
C1072 C1077 1.353 . S
C1072 H1078 0.930 . S
N1073 Li1056 1.990 . S
N1073 C1072 1.314 . S
N1073 C1075 1.279 . S
C1074 C1075 1.358 . S
C1074 C1076 1.356 . S
C1074 H1128 0.930 . S
C1075 N1073 1.279 . S
C1075 C1074 1.358 . S
C1075 H1079 0.930 . S
C1076 C1074 1.356 . S
C1076 C1077 1.348 . S
C1077 C1072 1.353 . S
C1077 C1076 1.348 . S
C1077 H1129 0.929 . S
H1078 C1072 0.930 . S
H1079 C1075 0.930 . S
C1080 N1081 1.314 . S
C1080 C1082 1.353 . S
C1080 H1086 0.930 . S
N1081 Li1057 1.990 . S
N1081 C1080 1.314 . S
N1081 C1084 1.279 . S
C1082 C1080 1.353 . S
C1082 C1085 1.348 . S
C1082 H1130 0.929 . S
C1083 C1084 1.358 . S
C1083 C1085 1.356 . S
C1083 H1131 0.930 . S
C1084 N1081 1.279 . S
C1084 C1083 1.358 . S
C1084 H1087 0.930 . S
C1085 C1082 1.348 . S
C1085 C1083 1.356 . S
H1086 C1080 0.930 . S
H1087 C1084 0.930 . S
C1088 C1090 1.348 . S
C1088 C1091 1.356 . S
C1088 O1118 1.325 . S
N1089 C1092 1.314 . S
N1089 C1093 1.279 . S
C1090 C1088 1.348 . S
C1090 C1092 1.353 . S
C1090 H1132 0.929 . S
C1091 C1088 1.356 . S
C1091 C1093 1.358 . S
C1091 H1133 0.930 . S
C1092 N1089 1.314 . S
C1092 C1090 1.353 . S
C1092 H1134 0.930 . S
C1093 N1089 1.279 . S
C1093 C1091 1.358 . S
C1093 H1135 0.930 . S
C1094 C1095 1.348 . S
C1094 C1096 1.356 . S
C1094 O1119 1.325 . S
C1095 C1094 1.348 . S
C1095 C1097 1.353 . S
C1095 H1136 0.929 . S
C1096 C1094 1.356 . S
C1096 C1098 1.358 . S
C1096 H1137 0.930 . S
C1097 C1095 1.353 . S
C1097 N1099 1.314 . S
C1097 H1138 0.930 . S
C1098 C1096 1.358 . S
C1098 N1099 1.279 . S
C1098 H1139 0.930 . S
N1099 C1097 1.314 . S
N1099 C1098 1.279 . S
C1100 C1102 1.353 . S
C1100 N1103 1.314 . S
C1100 H1106 0.930 . S
C1101 N1103 1.279 . S
C1101 C1104 1.358 . S
C1101 H1107 0.930 . S
C1102 C1100 1.353 . S
C1102 C1105 1.348 . S
C1102 H1140 0.929 . S
N1103 Li1058 1.990 . S
N1103 C1100 1.314 . S
N1103 C1101 1.279 . S
C1104 C1101 1.358 . S
C1104 C1105 1.356 . S
C1104 H1141 0.930 . S
C1105 C1102 1.348 . S
C1105 C1104 1.356 . S
H1106 C1100 0.930 . S
H1107 C1101 0.930 . S
C1108 N1109 1.314 . S
C1108 C1110 1.353 . S
C1108 H1114 0.930 . S
N1109 Li1059 1.990 . S
N1109 C1108 1.314 . S
N1109 C1112 1.279 . S
C1110 C1108 1.353 . S
C1110 C1113 1.348 . S
C1110 H1142 0.929 . S
C1111 C1112 1.358 . S
C1111 C1113 1.356 . S
C1111 H1143 0.930 . S
C1112 N1109 1.279 . S
C1112 C1111 1.358 . S
C1112 H1115 0.930 . S
C1113 C1110 1.348 . S
C1113 C1111 1.356 . S
H1114 C1108 0.930 . S
H1115 C1112 0.930 . S
O1116 Li1056 1.956 . S
O1116 Li1057 1.970 . S
O1116 Li1058 1.961 . S
O1116 C1060 1.325 . S
O1117 Li1056 1.970 . S
O1117 Li1057 1.956 . S
O1117 Li1059 1.961 . S
O1117 C1066 1.325 . S
O1118 Li1056 1.961 . S
O1118 Li1058 1.956 . S
O1118 Li1059 1.970 . S
O1118 C1088 1.325 . S
O1119 Li1057 1.961 . S
O1119 Li1058 1.970 . S
O1119 Li1059 1.956 . S
O1119 C1094 1.325 . S
H1120 C1062 0.929 . S
H1121 C1063 0.930 . S
H1122 C1064 0.930 . S
H1123 C1065 0.930 . S
H1124 C1067 0.930 . S
H1125 C1069 0.929 . S
H1126 C1070 0.930 . S
H1127 C1071 0.930 . S
H1128 C1074 0.930 . S
H1129 C1077 0.929 . S
H1130 C1082 0.929 . S
H1131 C1083 0.930 . S
H1132 C1090 0.929 . S
H1133 C1091 0.930 . S
H1134 C1092 0.930 . S
H1135 C1093 0.930 . S
H1136 C1095 0.929 . S
H1137 C1096 0.930 . S
H1138 C1097 0.930 . S
H1139 C1098 0.930 . S
H1140 C1102 0.929 . S
H1141 C1104 0.930 . S
H1142 C1110 0.929 . S
H1143 C1111 0.930 . S
Li1144 N1161 1.990 . S
Li1144 O1204 1.956 . S
Li1144 O1205 1.970 . S
Li1144 O1206 1.961 . S
Li1145 N1169 1.990 . S
Li1145 O1204 1.970 . S
Li1145 O1205 1.956 . S
Li1145 O1207 1.961 . S
Li1146 N1191 1.990 . S
Li1146 O1204 1.961 . S
Li1146 O1206 1.956 . S
Li1146 O1207 1.970 . S
Li1147 N1197 1.990 . S
Li1147 O1205 1.961 . S
Li1147 O1206 1.970 . S
Li1147 O1207 1.956 . S
C1148 C1150 1.348 . S
C1148 C1151 1.356 . S
C1148 O1204 1.325 . S
N1149 C1152 1.314 . S
N1149 C1153 1.279 . S
C1150 C1148 1.348 . S
C1150 C1152 1.353 . S
C1150 H1208 0.929 . S
C1151 C1148 1.356 . S
C1151 C1153 1.358 . S
C1151 H1209 0.930 . S
C1152 N1149 1.314 . S
C1152 C1150 1.353 . S
C1152 H1210 0.930 . S
C1153 N1149 1.279 . S
C1153 C1151 1.358 . S
C1153 H1211 0.930 . S
C1154 C1157 1.348 . S
C1154 C1158 1.356 . S
C1154 O1205 1.325 . S
C1155 N1156 1.279 . S
C1155 C1158 1.358 . S
C1155 H1212 0.930 . S
N1156 C1155 1.279 . S
N1156 C1159 1.314 . S
C1157 C1154 1.348 . S
C1157 C1159 1.353 . S
C1157 H1213 0.929 . S
C1158 C1154 1.356 . S
C1158 C1155 1.358 . S
C1158 H1214 0.930 . S
C1159 N1156 1.314 . S
C1159 C1157 1.353 . S
C1159 H1215 0.930 . S
C1160 N1161 1.314 . S
C1160 C1165 1.353 . S
C1160 H1166 0.930 . S
N1161 Li1144 1.990 . S
N1161 C1160 1.314 . S
N1161 C1163 1.279 . S
C1162 C1163 1.358 . S
C1162 C1164 1.356 . S
C1162 H1216 0.930 . S
C1163 N1161 1.279 . S
C1163 C1162 1.358 . S
C1163 H1167 0.930 . S
C1164 C1162 1.356 . S
C1164 C1165 1.348 . S
C1165 C1160 1.353 . S
C1165 C1164 1.348 . S
C1165 H1217 0.929 . S
H1166 C1160 0.930 . S
H1167 C1163 0.930 . S
C1168 N1169 1.314 . S
C1168 C1170 1.353 . S
C1168 H1174 0.930 . S
N1169 Li1145 1.990 . S
N1169 C1168 1.314 . S
N1169 C1172 1.279 . S
C1170 C1168 1.353 . S
C1170 C1173 1.348 . S
C1170 H1218 0.929 . S
C1171 C1172 1.358 . S
C1171 C1173 1.356 . S
C1171 H1219 0.930 . S
C1172 N1169 1.279 . S
C1172 C1171 1.358 . S
C1172 H1175 0.930 . S
C1173 C1170 1.348 . S
C1173 C1171 1.356 . S
H1174 C1168 0.930 . S
H1175 C1172 0.930 . S
C1176 C1178 1.348 . S
C1176 C1179 1.356 . S
C1176 O1206 1.325 . S
N1177 C1180 1.314 . S
N1177 C1181 1.279 . S
C1178 C1176 1.348 . S
C1178 C1180 1.353 . S
C1178 H1220 0.929 . S
C1179 C1176 1.356 . S
C1179 C1181 1.358 . S
C1179 H1221 0.930 . S
C1180 N1177 1.314 . S
C1180 C1178 1.353 . S
C1180 H1222 0.930 . S
C1181 N1177 1.279 . S
C1181 C1179 1.358 . S
C1181 H1223 0.930 . S
C1182 C1183 1.348 . S
C1182 C1184 1.356 . S
C1182 O1207 1.325 . S
C1183 C1182 1.348 . S
C1183 C1185 1.353 . S
C1183 H1224 0.929 . S
C1184 C1182 1.356 . S
C1184 C1186 1.358 . S
C1184 H1225 0.930 . S
C1185 C1183 1.353 . S
C1185 N1187 1.314 . S
C1185 H1226 0.930 . S
C1186 C1184 1.358 . S
C1186 N1187 1.279 . S
C1186 H1227 0.930 . S
N1187 C1185 1.314 . S
N1187 C1186 1.279 . S
C1188 C1190 1.353 . S
C1188 N1191 1.314 . S
C1188 H1194 0.930 . S
C1189 N1191 1.279 . S
C1189 C1192 1.358 . S
C1189 H1195 0.930 . S
C1190 C1188 1.353 . S
C1190 C1193 1.348 . S
C1190 H1228 0.929 . S
N1191 Li1146 1.990 . S
N1191 C1188 1.314 . S
N1191 C1189 1.279 . S
C1192 C1189 1.358 . S
C1192 C1193 1.356 . S
C1192 H1229 0.930 . S
C1193 C1190 1.348 . S
C1193 C1192 1.356 . S
H1194 C1188 0.930 . S
H1195 C1189 0.930 . S
C1196 N1197 1.314 . S
C1196 C1198 1.353 . S
C1196 H1202 0.930 . S
N1197 Li1147 1.990 . S
N1197 C1196 1.314 . S
N1197 C1200 1.279 . S
C1198 C1196 1.353 . S
C1198 C1201 1.348 . S
C1198 H1230 0.929 . S
C1199 C1200 1.358 . S
C1199 C1201 1.356 . S
C1199 H1231 0.930 . S
C1200 N1197 1.279 . S
C1200 C1199 1.358 . S
C1200 H1203 0.930 . S
C1201 C1198 1.348 . S
C1201 C1199 1.356 . S
H1202 C1196 0.930 . S
H1203 C1200 0.930 . S
O1204 Li1144 1.956 . S
O1204 Li1145 1.970 . S
O1204 Li1146 1.961 . S
O1204 C1148 1.325 . S
O1205 Li1144 1.970 . S
O1205 Li1145 1.956 . S
O1205 Li1147 1.961 . S
O1205 C1154 1.325 . S
O1206 Li1144 1.961 . S
O1206 Li1146 1.956 . S
O1206 Li1147 1.970 . S
O1206 C1176 1.325 . S
O1207 Li1145 1.961 . S
O1207 Li1146 1.970 . S
O1207 Li1147 1.956 . S
O1207 C1182 1.325 . S
H1208 C1150 0.929 . S
H1209 C1151 0.930 . S
H1210 C1152 0.930 . S
H1211 C1153 0.930 . S
H1212 C1155 0.930 . S
H1213 C1157 0.929 . S
H1214 C1158 0.930 . S
H1215 C1159 0.930 . S
H1216 C1162 0.930 . S
H1217 C1165 0.929 . S
H1218 C1170 0.929 . S
H1219 C1171 0.930 . S
H1220 C1178 0.929 . S
H1221 C1179 0.930 . S
H1222 C1180 0.930 . S
H1223 C1181 0.930 . S
H1224 C1183 0.929 . S
H1225 C1184 0.930 . S
H1226 C1185 0.930 . S
H1227 C1186 0.930 . S
H1228 C1190 0.929 . S
H1229 C1192 0.930 . S
H1230 C1198 0.929 . S
H1231 C1199 0.930 . S
Li1232 N1249 1.990 . S
Li1232 O1292 1.956 . S
Li1232 O1293 1.970 . S
Li1232 O1294 1.961 . S
Li1233 N1257 1.990 . S
Li1233 O1292 1.970 . S
Li1233 O1293 1.956 . S
Li1233 O1295 1.961 . S
Li1234 N1279 1.990 . S
Li1234 O1292 1.961 . S
Li1234 O1294 1.956 . S
Li1234 O1295 1.970 . S
Li1235 N1285 1.990 . S
Li1235 O1293 1.961 . S
Li1235 O1294 1.970 . S
Li1235 O1295 1.956 . S
C1236 C1238 1.348 . S
C1236 C1239 1.356 . S
C1236 O1292 1.325 . S
N1237 C1240 1.314 . S
N1237 C1241 1.279 . S
C1238 C1236 1.348 . S
C1238 C1240 1.353 . S
C1238 H1296 0.929 . S
C1239 C1236 1.356 . S
C1239 C1241 1.358 . S
C1239 H1297 0.930 . S
C1240 N1237 1.314 . S
C1240 C1238 1.353 . S
C1240 H1298 0.930 . S
C1241 N1237 1.279 . S
C1241 C1239 1.358 . S
C1241 H1299 0.930 . S
C1242 C1245 1.348 . S
C1242 C1246 1.356 . S
C1242 O1293 1.325 . S
C1243 N1244 1.279 . S
C1243 C1246 1.358 . S
C1243 H1300 0.930 . S
N1244 C1243 1.279 . S
N1244 C1247 1.314 . S
C1245 C1242 1.348 . S
C1245 C1247 1.353 . S
C1245 H1301 0.929 . S
C1246 C1242 1.356 . S
C1246 C1243 1.358 . S
C1246 H1302 0.930 . S
C1247 N1244 1.314 . S
C1247 C1245 1.353 . S
C1247 H1303 0.930 . S
C1248 N1249 1.314 . S
C1248 C1253 1.353 . S
C1248 H1254 0.930 . S
N1249 Li1232 1.990 . S
N1249 C1248 1.314 . S
N1249 C1251 1.279 . S
C1250 C1251 1.358 . S
C1250 C1252 1.356 . S
C1250 H1304 0.930 . S
C1251 N1249 1.279 . S
C1251 C1250 1.358 . S
C1251 H1255 0.930 . S
C1252 C1250 1.356 . S
C1252 C1253 1.348 . S
C1253 C1248 1.353 . S
C1253 C1252 1.348 . S
C1253 H1305 0.929 . S
H1254 C1248 0.930 . S
H1255 C1251 0.930 . S
C1256 N1257 1.314 . S
C1256 C1258 1.353 . S
C1256 H1262 0.930 . S
N1257 Li1233 1.990 . S
N1257 C1256 1.314 . S
N1257 C1260 1.279 . S
C1258 C1256 1.353 . S
C1258 C1261 1.348 . S
C1258 H1306 0.929 . S
C1259 C1260 1.358 . S
C1259 C1261 1.356 . S
C1259 H1307 0.930 . S
C1260 N1257 1.279 . S
C1260 C1259 1.358 . S
C1260 H1263 0.930 . S
C1261 C1258 1.348 . S
C1261 C1259 1.356 . S
H1262 C1256 0.930 . S
H1263 C1260 0.930 . S
C1264 C1266 1.348 . S
C1264 C1267 1.356 . S
C1264 O1294 1.325 . S
N1265 C1268 1.314 . S
N1265 C1269 1.279 . S
C1266 C1264 1.348 . S
C1266 C1268 1.353 . S
C1266 H1308 0.929 . S
C1267 C1264 1.356 . S
C1267 C1269 1.358 . S
C1267 H1309 0.930 . S
C1268 N1265 1.314 . S
C1268 C1266 1.353 . S
C1268 H1310 0.930 . S
C1269 N1265 1.279 . S
C1269 C1267 1.358 . S
C1269 H1311 0.930 . S
C1270 C1271 1.348 . S
C1270 C1272 1.356 . S
C1270 O1295 1.325 . S
C1271 C1270 1.348 . S
C1271 C1273 1.353 . S
C1271 H1312 0.929 . S
C1272 C1270 1.356 . S
C1272 C1274 1.358 . S
C1272 H1313 0.930 . S
C1273 C1271 1.353 . S
C1273 N1275 1.314 . S
C1273 H1314 0.930 . S
C1274 C1272 1.358 . S
C1274 N1275 1.279 . S
C1274 H1315 0.930 . S
N1275 C1273 1.314 . S
N1275 C1274 1.279 . S
C1276 C1278 1.353 . S
C1276 N1279 1.314 . S
C1276 H1282 0.930 . S
C1277 N1279 1.279 . S
C1277 C1280 1.358 . S
C1277 H1283 0.930 . S
C1278 C1276 1.353 . S
C1278 C1281 1.348 . S
C1278 H1316 0.929 . S
N1279 Li1234 1.990 . S
N1279 C1276 1.314 . S
N1279 C1277 1.279 . S
C1280 C1277 1.358 . S
C1280 C1281 1.356 . S
C1280 H1317 0.930 . S
C1281 C1278 1.348 . S
C1281 C1280 1.356 . S
H1282 C1276 0.930 . S
H1283 C1277 0.930 . S
C1284 N1285 1.314 . S
C1284 C1286 1.353 . S
C1284 H1290 0.930 . S
N1285 Li1235 1.990 . S
N1285 C1284 1.314 . S
N1285 C1288 1.279 . S
C1286 C1284 1.353 . S
C1286 C1289 1.348 . S
C1286 H1318 0.929 . S
C1287 C1288 1.358 . S
C1287 C1289 1.356 . S
C1287 H1319 0.930 . S
C1288 N1285 1.279 . S
C1288 C1287 1.358 . S
C1288 H1291 0.930 . S
C1289 C1286 1.348 . S
C1289 C1287 1.356 . S
H1290 C1284 0.930 . S
H1291 C1288 0.930 . S
O1292 Li1232 1.956 . S
O1292 Li1233 1.970 . S
O1292 Li1234 1.961 . S
O1292 C1236 1.325 . S
O1293 Li1232 1.970 . S
O1293 Li1233 1.956 . S
O1293 Li1235 1.961 . S
O1293 C1242 1.325 . S
O1294 Li1232 1.961 . S
O1294 Li1234 1.956 . S
O1294 Li1235 1.970 . S
O1294 C1264 1.325 . S
O1295 Li1233 1.961 . S
O1295 Li1234 1.970 . S
O1295 Li1235 1.956 . S
O1295 C1270 1.325 . S
H1296 C1238 0.929 . S
H1297 C1239 0.930 . S
H1298 C1240 0.930 . S
H1299 C1241 0.930 . S
H1300 C1243 0.930 . S
H1301 C1245 0.929 . S
H1302 C1246 0.930 . S
H1303 C1247 0.930 . S
H1304 C1250 0.930 . S
H1305 C1253 0.929 . S
H1306 C1258 0.929 . S
H1307 C1259 0.930 . S
H1308 C1266 0.929 . S
H1309 C1267 0.930 . S
H1310 C1268 0.930 . S
H1311 C1269 0.930 . S
H1312 C1271 0.929 . S
H1313 C1272 0.930 . S
H1314 C1273 0.930 . S
H1315 C1274 0.930 . S
H1316 C1278 0.929 . S
H1317 C1280 0.930 . S
H1318 C1286 0.929 . S
H1319 C1287 0.930 . S
Li1320 N1337 1.990 . S
Li1320 O1380 1.956 . S
Li1320 O1381 1.970 . S
Li1320 O1382 1.961 . S
Li1321 N1345 1.990 . S
Li1321 O1380 1.970 . S
Li1321 O1381 1.956 . S
Li1321 O1383 1.961 . S
Li1322 N1367 1.990 . S
Li1322 O1380 1.961 . S
Li1322 O1382 1.956 . S
Li1322 O1383 1.970 . S
Li1323 N1373 1.990 . S
Li1323 O1381 1.961 . S
Li1323 O1382 1.970 . S
Li1323 O1383 1.956 . S
C1324 C1326 1.348 . S
C1324 C1327 1.356 . S
C1324 O1380 1.325 . S
N1325 C1328 1.314 . S
N1325 C1329 1.279 . S
C1326 C1324 1.348 . S
C1326 C1328 1.353 . S
C1326 H1384 0.929 . S
C1327 C1324 1.356 . S
C1327 C1329 1.358 . S
C1327 H1385 0.930 . S
C1328 N1325 1.314 . S
C1328 C1326 1.353 . S
C1328 H1386 0.930 . S
C1329 N1325 1.279 . S
C1329 C1327 1.358 . S
C1329 H1387 0.930 . S
C1330 C1333 1.348 . S
C1330 C1334 1.356 . S
C1330 O1381 1.325 . S
C1331 N1332 1.279 . S
C1331 C1334 1.358 . S
C1331 H1388 0.930 . S
N1332 C1331 1.279 . S
N1332 C1335 1.314 . S
C1333 C1330 1.348 . S
C1333 C1335 1.353 . S
C1333 H1389 0.929 . S
C1334 C1330 1.356 . S
C1334 C1331 1.358 . S
C1334 H1390 0.930 . S
C1335 N1332 1.314 . S
C1335 C1333 1.353 . S
C1335 H1391 0.930 . S
C1336 N1337 1.314 . S
C1336 C1341 1.353 . S
C1336 H1342 0.930 . S
N1337 Li1320 1.990 . S
N1337 C1336 1.314 . S
N1337 C1339 1.279 . S
C1338 C1339 1.358 . S
C1338 C1340 1.356 . S
C1338 H1392 0.930 . S
C1339 N1337 1.279 . S
C1339 C1338 1.358 . S
C1339 H1343 0.930 . S
C1340 C1338 1.356 . S
C1340 C1341 1.348 . S
C1341 C1336 1.353 . S
C1341 C1340 1.348 . S
C1341 H1393 0.929 . S
H1342 C1336 0.930 . S
H1343 C1339 0.930 . S
C1344 N1345 1.314 . S
C1344 C1346 1.353 . S
C1344 H1350 0.930 . S
N1345 Li1321 1.990 . S
N1345 C1344 1.314 . S
N1345 C1348 1.279 . S
C1346 C1344 1.353 . S
C1346 C1349 1.348 . S
C1346 H1394 0.929 . S
C1347 C1348 1.358 . S
C1347 C1349 1.356 . S
C1347 H1395 0.930 . S
C1348 N1345 1.279 . S
C1348 C1347 1.358 . S
C1348 H1351 0.930 . S
C1349 C1346 1.348 . S
C1349 C1347 1.356 . S
H1350 C1344 0.930 . S
H1351 C1348 0.930 . S
C1352 C1354 1.348 . S
C1352 C1355 1.356 . S
C1352 O1382 1.325 . S
N1353 C1356 1.314 . S
N1353 C1357 1.279 . S
C1354 C1352 1.348 . S
C1354 C1356 1.353 . S
C1354 H1396 0.929 . S
C1355 C1352 1.356 . S
C1355 C1357 1.358 . S
C1355 H1397 0.930 . S
C1356 N1353 1.314 . S
C1356 C1354 1.353 . S
C1356 H1398 0.930 . S
C1357 N1353 1.279 . S
C1357 C1355 1.358 . S
C1357 H1399 0.930 . S
C1358 C1359 1.348 . S
C1358 C1360 1.356 . S
C1358 O1383 1.325 . S
C1359 C1358 1.348 . S
C1359 C1361 1.353 . S
C1359 H1400 0.929 . S
C1360 C1358 1.356 . S
C1360 C1362 1.358 . S
C1360 H1401 0.930 . S
C1361 C1359 1.353 . S
C1361 N1363 1.314 . S
C1361 H1402 0.930 . S
C1362 C1360 1.358 . S
C1362 N1363 1.279 . S
C1362 H1403 0.930 . S
N1363 C1361 1.314 . S
N1363 C1362 1.279 . S
C1364 C1366 1.353 . S
C1364 N1367 1.314 . S
C1364 H1370 0.930 . S
C1365 N1367 1.279 . S
C1365 C1368 1.358 . S
C1365 H1371 0.930 . S
C1366 C1364 1.353 . S
C1366 C1369 1.348 . S
C1366 H1404 0.929 . S
N1367 Li1322 1.990 . S
N1367 C1364 1.314 . S
N1367 C1365 1.279 . S
C1368 C1365 1.358 . S
C1368 C1369 1.356 . S
C1368 H1405 0.930 . S
C1369 C1366 1.348 . S
C1369 C1368 1.356 . S
H1370 C1364 0.930 . S
H1371 C1365 0.930 . S
C1372 N1373 1.314 . S
C1372 C1374 1.353 . S
C1372 H1378 0.930 . S
N1373 Li1323 1.990 . S
N1373 C1372 1.314 . S
N1373 C1376 1.279 . S
C1374 C1372 1.353 . S
C1374 C1377 1.348 . S
C1374 H1406 0.929 . S
C1375 C1376 1.358 . S
C1375 C1377 1.356 . S
C1375 H1407 0.930 . S
C1376 N1373 1.279 . S
C1376 C1375 1.358 . S
C1376 H1379 0.930 . S
C1377 C1374 1.348 . S
C1377 C1375 1.356 . S
H1378 C1372 0.930 . S
H1379 C1376 0.930 . S
O1380 Li1320 1.956 . S
O1380 Li1321 1.970 . S
O1380 Li1322 1.961 . S
O1380 C1324 1.325 . S
O1381 Li1320 1.970 . S
O1381 Li1321 1.956 . S
O1381 Li1323 1.961 . S
O1381 C1330 1.325 . S
O1382 Li1320 1.961 . S
O1382 Li1322 1.956 . S
O1382 Li1323 1.970 . S
O1382 C1352 1.325 . S
O1383 Li1321 1.961 . S
O1383 Li1322 1.970 . S
O1383 Li1323 1.956 . S
O1383 C1358 1.325 . S
H1384 C1326 0.929 . S
H1385 C1327 0.930 . S
H1386 C1328 0.930 . S
H1387 C1329 0.930 . S
H1388 C1331 0.930 . S
H1389 C1333 0.929 . S
H1390 C1334 0.930 . S
H1391 C1335 0.930 . S
H1392 C1338 0.930 . S
H1393 C1341 0.929 . S
H1394 C1346 0.929 . S
H1395 C1347 0.930 . S
H1396 C1354 0.929 . S
H1397 C1355 0.930 . S
H1398 C1356 0.930 . S
H1399 C1357 0.930 . S
H1400 C1359 0.929 . S
H1401 C1360 0.930 . S
H1402 C1361 0.930 . S
H1403 C1362 0.930 . S
H1404 C1366 0.929 . S
H1405 C1368 0.930 . S
H1406 C1374 0.929 . S
H1407 C1375 0.930 . S
Li1408 N1425 1.990 . S
Li1408 O1468 1.956 . S
Li1408 O1469 1.970 . S
Li1408 O1470 1.961 . S
Li1409 N1433 1.990 . S
Li1409 O1468 1.970 . S
Li1409 O1469 1.956 . S
Li1409 O1471 1.961 . S
Li1410 N1455 1.990 . S
Li1410 O1468 1.961 . S
Li1410 O1470 1.956 . S
Li1410 O1471 1.970 . S
Li1411 N1461 1.990 . S
Li1411 O1469 1.961 . S
Li1411 O1470 1.970 . S
Li1411 O1471 1.956 . S
C1412 C1414 1.348 . S
C1412 C1415 1.356 . S
C1412 O1468 1.325 . S
N1413 C1416 1.314 . S
N1413 C1417 1.279 . S
C1414 C1412 1.348 . S
C1414 C1416 1.353 . S
C1414 H1472 0.929 . S
C1415 C1412 1.356 . S
C1415 C1417 1.358 . S
C1415 H1473 0.930 . S
C1416 N1413 1.314 . S
C1416 C1414 1.353 . S
C1416 H1474 0.930 . S
C1417 N1413 1.279 . S
C1417 C1415 1.358 . S
C1417 H1475 0.930 . S
C1418 C1421 1.348 . S
C1418 C1422 1.356 . S
C1418 O1469 1.325 . S
C1419 N1420 1.279 . S
C1419 C1422 1.358 . S
C1419 H1476 0.930 . S
N1420 C1419 1.279 . S
N1420 C1423 1.314 . S
C1421 C1418 1.348 . S
C1421 C1423 1.353 . S
C1421 H1477 0.929 . S
C1422 C1418 1.356 . S
C1422 C1419 1.358 . S
C1422 H1478 0.930 . S
C1423 N1420 1.314 . S
C1423 C1421 1.353 . S
C1423 H1479 0.930 . S
C1424 N1425 1.314 . S
C1424 C1429 1.353 . S
C1424 H1430 0.930 . S
N1425 Li1408 1.990 . S
N1425 C1424 1.314 . S
N1425 C1427 1.279 . S
C1426 C1427 1.358 . S
C1426 C1428 1.356 . S
C1426 H1480 0.930 . S
C1427 N1425 1.279 . S
C1427 C1426 1.358 . S
C1427 H1431 0.930 . S
C1428 C1426 1.356 . S
C1428 C1429 1.348 . S
C1429 C1424 1.353 . S
C1429 C1428 1.348 . S
C1429 H1481 0.929 . S
H1430 C1424 0.930 . S
H1431 C1427 0.930 . S
C1432 N1433 1.314 . S
C1432 C1434 1.353 . S
C1432 H1438 0.930 . S
N1433 Li1409 1.990 . S
N1433 C1432 1.314 . S
N1433 C1436 1.279 . S
C1434 C1432 1.353 . S
C1434 C1437 1.348 . S
C1434 H1482 0.929 . S
C1435 C1436 1.358 . S
C1435 C1437 1.356 . S
C1435 H1483 0.930 . S
C1436 N1433 1.279 . S
C1436 C1435 1.358 . S
C1436 H1439 0.930 . S
C1437 C1434 1.348 . S
C1437 C1435 1.356 . S
H1438 C1432 0.930 . S
H1439 C1436 0.930 . S
C1440 C1442 1.348 . S
C1440 C1443 1.356 . S
C1440 O1470 1.325 . S
N1441 C1444 1.314 . S
N1441 C1445 1.279 . S
C1442 C1440 1.348 . S
C1442 C1444 1.353 . S
C1442 H1484 0.929 . S
C1443 C1440 1.356 . S
C1443 C1445 1.358 . S
C1443 H1485 0.930 . S
C1444 N1441 1.314 . S
C1444 C1442 1.353 . S
C1444 H1486 0.930 . S
C1445 N1441 1.279 . S
C1445 C1443 1.358 . S
C1445 H1487 0.930 . S
C1446 C1447 1.348 . S
C1446 C1448 1.356 . S
C1446 O1471 1.325 . S
C1447 C1446 1.348 . S
C1447 C1449 1.353 . S
C1447 H1488 0.929 . S
C1448 C1446 1.356 . S
C1448 C1450 1.358 . S
C1448 H1489 0.930 . S
C1449 C1447 1.353 . S
C1449 N1451 1.314 . S
C1449 H1490 0.930 . S
C1450 C1448 1.358 . S
C1450 N1451 1.279 . S
C1450 H1491 0.930 . S
N1451 C1449 1.314 . S
N1451 C1450 1.279 . S
C1452 C1454 1.353 . S
C1452 N1455 1.314 . S
C1452 H1458 0.930 . S
C1453 N1455 1.279 . S
C1453 C1456 1.358 . S
C1453 H1459 0.930 . S
C1454 C1452 1.353 . S
C1454 C1457 1.348 . S
C1454 H1492 0.929 . S
N1455 Li1410 1.990 . S
N1455 C1452 1.314 . S
N1455 C1453 1.279 . S
C1456 C1453 1.358 . S
C1456 C1457 1.356 . S
C1456 H1493 0.930 . S
C1457 C1454 1.348 . S
C1457 C1456 1.356 . S
H1458 C1452 0.930 . S
H1459 C1453 0.930 . S
C1460 N1461 1.314 . S
C1460 C1462 1.353 . S
C1460 H1466 0.930 . S
N1461 Li1411 1.990 . S
N1461 C1460 1.314 . S
N1461 C1464 1.279 . S
C1462 C1460 1.353 . S
C1462 C1465 1.348 . S
C1462 H1494 0.929 . S
C1463 C1464 1.358 . S
C1463 C1465 1.356 . S
C1463 H1495 0.930 . S
C1464 N1461 1.279 . S
C1464 C1463 1.358 . S
C1464 H1467 0.930 . S
C1465 C1462 1.348 . S
C1465 C1463 1.356 . S
H1466 C1460 0.930 . S
H1467 C1464 0.930 . S
O1468 Li1408 1.956 . S
O1468 Li1409 1.970 . S
O1468 Li1410 1.961 . S
O1468 C1412 1.325 . S
O1469 Li1408 1.970 . S
O1469 Li1409 1.956 . S
O1469 Li1411 1.961 . S
O1469 C1418 1.325 . S
O1470 Li1408 1.961 . S
O1470 Li1410 1.956 . S
O1470 Li1411 1.970 . S
O1470 C1440 1.325 . S
O1471 Li1409 1.961 . S
O1471 Li1410 1.970 . S
O1471 Li1411 1.956 . S
O1471 C1446 1.325 . S
H1472 C1414 0.929 . S
H1473 C1415 0.930 . S
H1474 C1416 0.930 . S
H1475 C1417 0.930 . S
H1476 C1419 0.930 . S
H1477 C1421 0.929 . S
H1478 C1422 0.930 . S
H1479 C1423 0.930 . S
H1480 C1426 0.930 . S
H1481 C1429 0.929 . S
H1482 C1434 0.929 . S
H1483 C1435 0.930 . S
H1484 C1442 0.929 . S
H1485 C1443 0.930 . S
H1486 C1444 0.930 . S
H1487 C1445 0.930 . S
H1488 C1447 0.929 . S
H1489 C1448 0.930 . S
H1490 C1449 0.930 . S
H1491 C1450 0.930 . S
H1492 C1454 0.929 . S
H1493 C1456 0.930 . S
H1494 C1462 0.929 . S
H1495 C1463 0.930 . S
Li1496 N1513 1.990 . S
Li1496 O1556 1.956 . S
Li1496 O1557 1.970 . S
Li1496 O1558 1.961 . S
Li1497 N1521 1.990 . S
Li1497 O1556 1.970 . S
Li1497 O1557 1.956 . S
Li1497 O1559 1.961 . S
Li1498 N1543 1.990 . S
Li1498 O1556 1.961 . S
Li1498 O1558 1.956 . S
Li1498 O1559 1.970 . S
Li1499 N1549 1.990 . S
Li1499 O1557 1.961 . S
Li1499 O1558 1.970 . S
Li1499 O1559 1.956 . S
C1500 C1502 1.348 . S
C1500 C1503 1.356 . S
C1500 O1556 1.325 . S
N1501 C1504 1.314 . S
N1501 C1505 1.279 . S
C1502 C1500 1.348 . S
C1502 C1504 1.353 . S
C1502 H1560 0.929 . S
C1503 C1500 1.356 . S
C1503 C1505 1.358 . S
C1503 H1561 0.930 . S
C1504 N1501 1.314 . S
C1504 C1502 1.353 . S
C1504 H1562 0.930 . S
C1505 N1501 1.279 . S
C1505 C1503 1.358 . S
C1505 H1563 0.930 . S
C1506 C1509 1.348 . S
C1506 C1510 1.356 . S
C1506 O1557 1.325 . S
C1507 N1508 1.279 . S
C1507 C1510 1.358 . S
C1507 H1564 0.930 . S
N1508 C1507 1.279 . S
N1508 C1511 1.314 . S
C1509 C1506 1.348 . S
C1509 C1511 1.353 . S
C1509 H1565 0.929 . S
C1510 C1506 1.356 . S
C1510 C1507 1.358 . S
C1510 H1566 0.930 . S
C1511 N1508 1.314 . S
C1511 C1509 1.353 . S
C1511 H1567 0.930 . S
C1512 N1513 1.314 . S
C1512 C1517 1.353 . S
C1512 H1518 0.930 . S
N1513 Li1496 1.990 . S
N1513 C1512 1.314 . S
N1513 C1515 1.279 . S
C1514 C1515 1.358 . S
C1514 C1516 1.356 . S
C1514 H1568 0.930 . S
C1515 N1513 1.279 . S
C1515 C1514 1.358 . S
C1515 H1519 0.930 . S
C1516 C1514 1.356 . S
C1516 C1517 1.348 . S
C1517 C1512 1.353 . S
C1517 C1516 1.348 . S
C1517 H1569 0.929 . S
H1518 C1512 0.930 . S
H1519 C1515 0.930 . S
C1520 N1521 1.314 . S
C1520 C1522 1.353 . S
C1520 H1526 0.930 . S
N1521 Li1497 1.990 . S
N1521 C1520 1.314 . S
N1521 C1524 1.279 . S
C1522 C1520 1.353 . S
C1522 C1525 1.348 . S
C1522 H1570 0.929 . S
C1523 C1524 1.358 . S
C1523 C1525 1.356 . S
C1523 H1571 0.930 . S
C1524 N1521 1.279 . S
C1524 C1523 1.358 . S
C1524 H1527 0.930 . S
C1525 C1522 1.348 . S
C1525 C1523 1.356 . S
H1526 C1520 0.930 . S
H1527 C1524 0.930 . S
C1528 C1530 1.348 . S
C1528 C1531 1.356 . S
C1528 O1558 1.325 . S
N1529 C1532 1.314 . S
N1529 C1533 1.279 . S
C1530 C1528 1.348 . S
C1530 C1532 1.353 . S
C1530 H1572 0.929 . S
C1531 C1528 1.356 . S
C1531 C1533 1.358 . S
C1531 H1573 0.930 . S
C1532 N1529 1.314 . S
C1532 C1530 1.353 . S
C1532 H1574 0.930 . S
C1533 N1529 1.279 . S
C1533 C1531 1.358 . S
C1533 H1575 0.930 . S
C1534 C1535 1.348 . S
C1534 C1536 1.356 . S
C1534 O1559 1.325 . S
C1535 C1534 1.348 . S
C1535 C1537 1.353 . S
C1535 H1576 0.929 . S
C1536 C1534 1.356 . S
C1536 C1538 1.358 . S
C1536 H1577 0.930 . S
C1537 C1535 1.353 . S
C1537 N1539 1.314 . S
C1537 H1578 0.930 . S
C1538 C1536 1.358 . S
C1538 N1539 1.279 . S
C1538 H1579 0.930 . S
N1539 C1537 1.314 . S
N1539 C1538 1.279 . S
C1540 C1542 1.353 . S
C1540 N1543 1.314 . S
C1540 H1546 0.930 . S
C1541 N1543 1.279 . S
C1541 C1544 1.358 . S
C1541 H1547 0.930 . S
C1542 C1540 1.353 . S
C1542 C1545 1.348 . S
C1542 H1580 0.929 . S
N1543 Li1498 1.990 . S
N1543 C1540 1.314 . S
N1543 C1541 1.279 . S
C1544 C1541 1.358 . S
C1544 C1545 1.356 . S
C1544 H1581 0.930 . S
C1545 C1542 1.348 . S
C1545 C1544 1.356 . S
H1546 C1540 0.930 . S
H1547 C1541 0.930 . S
C1548 N1549 1.314 . S
C1548 C1550 1.353 . S
C1548 H1554 0.930 . S
N1549 Li1499 1.990 . S
N1549 C1548 1.314 . S
N1549 C1552 1.279 . S
C1550 C1548 1.353 . S
C1550 C1553 1.348 . S
C1550 H1582 0.929 . S
C1551 C1552 1.358 . S
C1551 C1553 1.356 . S
C1551 H1583 0.930 . S
C1552 N1549 1.279 . S
C1552 C1551 1.358 . S
C1552 H1555 0.930 . S
C1553 C1550 1.348 . S
C1553 C1551 1.356 . S
H1554 C1548 0.930 . S
H1555 C1552 0.930 . S
O1556 Li1496 1.956 . S
O1556 Li1497 1.970 . S
O1556 Li1498 1.961 . S
O1556 C1500 1.325 . S
O1557 Li1496 1.970 . S
O1557 Li1497 1.956 . S
O1557 Li1499 1.961 . S
O1557 C1506 1.325 . S
O1558 Li1496 1.961 . S
O1558 Li1498 1.956 . S
O1558 Li1499 1.970 . S
O1558 C1528 1.325 . S
O1559 Li1497 1.961 . S
O1559 Li1498 1.970 . S
O1559 Li1499 1.956 . S
O1559 C1534 1.325 . S
H1560 C1502 0.929 . S
H1561 C1503 0.930 . S
H1562 C1504 0.930 . S
H1563 C1505 0.930 . S
H1564 C1507 0.930 . S
H1565 C1509 0.929 . S
H1566 C1510 0.930 . S
H1567 C1511 0.930 . S
H1568 C1514 0.930 . S
H1569 C1517 0.929 . S
H1570 C1522 0.929 . S
H1571 C1523 0.930 . S
H1572 C1530 0.929 . S
H1573 C1531 0.930 . S
H1574 C1532 0.930 . S
H1575 C1533 0.930 . S
H1576 C1535 0.929 . S
H1577 C1536 0.930 . S
H1578 C1537 0.930 . S
H1579 C1538 0.930 . S
H1580 C1542 0.929 . S
H1581 C1544 0.930 . S
H1582 C1550 0.929 . S
H1583 C1551 0.930 . S
Li1584 N1601 1.990 . S
Li1584 O1644 1.956 . S
Li1584 O1645 1.970 . S
Li1584 O1646 1.961 . S
Li1585 N1609 1.990 . S
Li1585 O1644 1.970 . S
Li1585 O1645 1.956 . S
Li1585 O1647 1.961 . S
Li1586 N1631 1.990 . S
Li1586 O1644 1.961 . S
Li1586 O1646 1.956 . S
Li1586 O1647 1.970 . S
Li1587 N1637 1.990 . S
Li1587 O1645 1.961 . S
Li1587 O1646 1.970 . S
Li1587 O1647 1.956 . S
C1588 C1590 1.348 . S
C1588 C1591 1.356 . S
C1588 O1644 1.325 . S
N1589 C1592 1.314 . S
N1589 C1593 1.279 . S
C1590 C1588 1.348 . S
C1590 C1592 1.353 . S
C1590 H1648 0.929 . S
C1591 C1588 1.356 . S
C1591 C1593 1.358 . S
C1591 H1649 0.930 . S
C1592 N1589 1.314 . S
C1592 C1590 1.353 . S
C1592 H1650 0.930 . S
C1593 N1589 1.279 . S
C1593 C1591 1.358 . S
C1593 H1651 0.930 . S
C1594 C1597 1.348 . S
C1594 C1598 1.356 . S
C1594 O1645 1.325 . S
C1595 N1596 1.279 . S
C1595 C1598 1.358 . S
C1595 H1652 0.930 . S
N1596 C1595 1.279 . S
N1596 C1599 1.314 . S
C1597 C1594 1.348 . S
C1597 C1599 1.353 . S
C1597 H1653 0.929 . S
C1598 C1594 1.356 . S
C1598 C1595 1.358 . S
C1598 H1654 0.930 . S
C1599 N1596 1.314 . S
C1599 C1597 1.353 . S
C1599 H1655 0.930 . S
C1600 N1601 1.314 . S
C1600 C1605 1.353 . S
C1600 H1606 0.930 . S
N1601 Li1584 1.990 . S
N1601 C1600 1.314 . S
N1601 C1603 1.279 . S
C1602 C1603 1.358 . S
C1602 C1604 1.356 . S
C1602 H1656 0.930 . S
C1603 N1601 1.279 . S
C1603 C1602 1.358 . S
C1603 H1607 0.930 . S
C1604 C1602 1.356 . S
C1604 C1605 1.348 . S
C1605 C1600 1.353 . S
C1605 C1604 1.348 . S
C1605 H1657 0.929 . S
H1606 C1600 0.930 . S
H1607 C1603 0.930 . S
C1608 N1609 1.314 . S
C1608 C1610 1.353 . S
C1608 H1614 0.930 . S
N1609 Li1585 1.990 . S
N1609 C1608 1.314 . S
N1609 C1612 1.279 . S
C1610 C1608 1.353 . S
C1610 C1613 1.348 . S
C1610 H1658 0.929 . S
C1611 C1612 1.358 . S
C1611 C1613 1.356 . S
C1611 H1659 0.930 . S
C1612 N1609 1.279 . S
C1612 C1611 1.358 . S
C1612 H1615 0.930 . S
C1613 C1610 1.348 . S
C1613 C1611 1.356 . S
H1614 C1608 0.930 . S
H1615 C1612 0.930 . S
C1616 C1618 1.348 . S
C1616 C1619 1.356 . S
C1616 O1646 1.325 . S
N1617 C1620 1.314 . S
N1617 C1621 1.279 . S
C1618 C1616 1.348 . S
C1618 C1620 1.353 . S
C1618 H1660 0.929 . S
C1619 C1616 1.356 . S
C1619 C1621 1.358 . S
C1619 H1661 0.930 . S
C1620 N1617 1.314 . S
C1620 C1618 1.353 . S
C1620 H1662 0.930 . S
C1621 N1617 1.279 . S
C1621 C1619 1.358 . S
C1621 H1663 0.930 . S
C1622 C1623 1.348 . S
C1622 C1624 1.356 . S
C1622 O1647 1.325 . S
C1623 C1622 1.348 . S
C1623 C1625 1.353 . S
C1623 H1664 0.929 . S
C1624 C1622 1.356 . S
C1624 C1626 1.358 . S
C1624 H1665 0.930 . S
C1625 C1623 1.353 . S
C1625 N1627 1.314 . S
C1625 H1666 0.930 . S
C1626 C1624 1.358 . S
C1626 N1627 1.279 . S
C1626 H1667 0.930 . S
N1627 C1625 1.314 . S
N1627 C1626 1.279 . S
C1628 C1630 1.353 . S
C1628 N1631 1.314 . S
C1628 H1634 0.930 . S
C1629 N1631 1.279 . S
C1629 C1632 1.358 . S
C1629 H1635 0.930 . S
C1630 C1628 1.353 . S
C1630 C1633 1.348 . S
C1630 H1668 0.929 . S
N1631 Li1586 1.990 . S
N1631 C1628 1.314 . S
N1631 C1629 1.279 . S
C1632 C1629 1.358 . S
C1632 C1633 1.356 . S
C1632 H1669 0.930 . S
C1633 C1630 1.348 . S
C1633 C1632 1.356 . S
H1634 C1628 0.930 . S
H1635 C1629 0.930 . S
C1636 N1637 1.314 . S
C1636 C1638 1.353 . S
C1636 H1642 0.930 . S
N1637 Li1587 1.990 . S
N1637 C1636 1.314 . S
N1637 C1640 1.279 . S
C1638 C1636 1.353 . S
C1638 C1641 1.348 . S
C1638 H1670 0.929 . S
C1639 C1640 1.358 . S
C1639 C1641 1.356 . S
C1639 H1671 0.930 . S
C1640 N1637 1.279 . S
C1640 C1639 1.358 . S
C1640 H1643 0.930 . S
C1641 C1638 1.348 . S
C1641 C1639 1.356 . S
H1642 C1636 0.930 . S
H1643 C1640 0.930 . S
O1644 Li1584 1.956 . S
O1644 Li1585 1.970 . S
O1644 Li1586 1.961 . S
O1644 C1588 1.325 . S
O1645 Li1584 1.970 . S
O1645 Li1585 1.956 . S
O1645 Li1587 1.961 . S
O1645 C1594 1.325 . S
O1646 Li1584 1.961 . S
O1646 Li1586 1.956 . S
O1646 Li1587 1.970 . S
O1646 C1616 1.325 . S
O1647 Li1585 1.961 . S
O1647 Li1586 1.970 . S
O1647 Li1587 1.956 . S
O1647 C1622 1.325 . S
H1648 C1590 0.929 . S
H1649 C1591 0.930 . S
H1650 C1592 0.930 . S
H1651 C1593 0.930 . S
H1652 C1595 0.930 . S
H1653 C1597 0.929 . S
H1654 C1598 0.930 . S
H1655 C1599 0.930 . S
H1656 C1602 0.930 . S
H1657 C1605 0.929 . S
H1658 C1610 0.929 . S
H1659 C1611 0.930 . S
H1660 C1618 0.929 . S
H1661 C1619 0.930 . S
H1662 C1620 0.930 . S
H1663 C1621 0.930 . S
H1664 C1623 0.929 . S
H1665 C1624 0.930 . S
H1666 C1625 0.930 . S
H1667 C1626 0.930 . S
H1668 C1630 0.929 . S
H1669 C1632 0.930 . S
H1670 C1638 0.929 . S
H1671 C1639 0.930 . S
Li1672 N1689 1.990 . S
Li1672 O1732 1.956 . S
Li1672 O1733 1.970 . S
Li1672 O1734 1.961 . S
Li1673 N1697 1.990 . S
Li1673 O1732 1.970 . S
Li1673 O1733 1.956 . S
Li1673 O1735 1.961 . S
Li1674 N1719 1.990 . S
Li1674 O1732 1.961 . S
Li1674 O1734 1.956 . S
Li1674 O1735 1.970 . S
Li1675 N1725 1.990 . S
Li1675 O1733 1.961 . S
Li1675 O1734 1.970 . S
Li1675 O1735 1.956 . S
C1676 C1678 1.348 . S
C1676 C1679 1.356 . S
C1676 O1732 1.325 . S
N1677 C1680 1.314 . S
N1677 C1681 1.279 . S
C1678 C1676 1.348 . S
C1678 C1680 1.353 . S
C1678 H1736 0.929 . S
C1679 C1676 1.356 . S
C1679 C1681 1.358 . S
C1679 H1737 0.930 . S
C1680 N1677 1.314 . S
C1680 C1678 1.353 . S
C1680 H1738 0.930 . S
C1681 N1677 1.279 . S
C1681 C1679 1.358 . S
C1681 H1739 0.930 . S
C1682 C1685 1.348 . S
C1682 C1686 1.356 . S
C1682 O1733 1.325 . S
C1683 N1684 1.279 . S
C1683 C1686 1.358 . S
C1683 H1740 0.930 . S
N1684 C1683 1.279 . S
N1684 C1687 1.314 . S
C1685 C1682 1.348 . S
C1685 C1687 1.353 . S
C1685 H1741 0.929 . S
C1686 C1682 1.356 . S
C1686 C1683 1.358 . S
C1686 H1742 0.930 . S
C1687 N1684 1.314 . S
C1687 C1685 1.353 . S
C1687 H1743 0.930 . S
C1688 N1689 1.314 . S
C1688 C1693 1.353 . S
C1688 H1694 0.930 . S
N1689 Li1672 1.990 . S
N1689 C1688 1.314 . S
N1689 C1691 1.279 . S
C1690 C1691 1.358 . S
C1690 C1692 1.356 . S
C1690 H1744 0.930 . S
C1691 N1689 1.279 . S
C1691 C1690 1.358 . S
C1691 H1695 0.930 . S
C1692 C1690 1.356 . S
C1692 C1693 1.348 . S
C1693 C1688 1.353 . S
C1693 C1692 1.348 . S
C1693 H1745 0.929 . S
H1694 C1688 0.930 . S
H1695 C1691 0.930 . S
C1696 N1697 1.314 . S
C1696 C1698 1.353 . S
C1696 H1702 0.930 . S
N1697 Li1673 1.990 . S
N1697 C1696 1.314 . S
N1697 C1700 1.279 . S
C1698 C1696 1.353 . S
C1698 C1701 1.348 . S
C1698 H1746 0.929 . S
C1699 C1700 1.358 . S
C1699 C1701 1.356 . S
C1699 H1747 0.930 . S
C1700 N1697 1.279 . S
C1700 C1699 1.358 . S
C1700 H1703 0.930 . S
C1701 C1698 1.348 . S
C1701 C1699 1.356 . S
H1702 C1696 0.930 . S
H1703 C1700 0.930 . S
C1704 C1706 1.348 . S
C1704 C1707 1.356 . S
C1704 O1734 1.325 . S
N1705 C1708 1.314 . S
N1705 C1709 1.279 . S
C1706 C1704 1.348 . S
C1706 C1708 1.353 . S
C1706 H1748 0.929 . S
C1707 C1704 1.356 . S
C1707 C1709 1.358 . S
C1707 H1749 0.930 . S
C1708 N1705 1.314 . S
C1708 C1706 1.353 . S
C1708 H1750 0.930 . S
C1709 N1705 1.279 . S
C1709 C1707 1.358 . S
C1709 H1751 0.930 . S
C1710 C1711 1.348 . S
C1710 C1712 1.356 . S
C1710 O1735 1.325 . S
C1711 C1710 1.348 . S
C1711 C1713 1.353 . S
C1711 H1752 0.929 . S
C1712 C1710 1.356 . S
C1712 C1714 1.358 . S
C1712 H1753 0.930 . S
C1713 C1711 1.353 . S
C1713 N1715 1.314 . S
C1713 H1754 0.930 . S
C1714 C1712 1.358 . S
C1714 N1715 1.279 . S
C1714 H1755 0.930 . S
N1715 C1713 1.314 . S
N1715 C1714 1.279 . S
C1716 C1718 1.353 . S
C1716 N1719 1.314 . S
C1716 H1722 0.930 . S
C1717 N1719 1.279 . S
C1717 C1720 1.358 . S
C1717 H1723 0.930 . S
C1718 C1716 1.353 . S
C1718 C1721 1.348 . S
C1718 H1756 0.929 . S
N1719 Li1674 1.990 . S
N1719 C1716 1.314 . S
N1719 C1717 1.279 . S
C1720 C1717 1.358 . S
C1720 C1721 1.356 . S
C1720 H1757 0.930 . S
C1721 C1718 1.348 . S
C1721 C1720 1.356 . S
H1722 C1716 0.930 . S
H1723 C1717 0.930 . S
C1724 N1725 1.314 . S
C1724 C1726 1.353 . S
C1724 H1730 0.930 . S
N1725 Li1675 1.990 . S
N1725 C1724 1.314 . S
N1725 C1728 1.279 . S
C1726 C1724 1.353 . S
C1726 C1729 1.348 . S
C1726 H1758 0.929 . S
C1727 C1728 1.358 . S
C1727 C1729 1.356 . S
C1727 H1759 0.930 . S
C1728 N1725 1.279 . S
C1728 C1727 1.358 . S
C1728 H1731 0.930 . S
C1729 C1726 1.348 . S
C1729 C1727 1.356 . S
H1730 C1724 0.930 . S
H1731 C1728 0.930 . S
O1732 Li1672 1.956 . S
O1732 Li1673 1.970 . S
O1732 Li1674 1.961 . S
O1732 C1676 1.325 . S
O1733 Li1672 1.970 . S
O1733 Li1673 1.956 . S
O1733 Li1675 1.961 . S
O1733 C1682 1.325 . S
O1734 Li1672 1.961 . S
O1734 Li1674 1.956 . S
O1734 Li1675 1.970 . S
O1734 C1704 1.325 . S
O1735 Li1673 1.961 . S
O1735 Li1674 1.970 . S
O1735 Li1675 1.956 . S
O1735 C1710 1.325 . S
H1736 C1678 0.929 . S
H1737 C1679 0.930 . S
H1738 C1680 0.930 . S
H1739 C1681 0.930 . S
H1740 C1683 0.930 . S
H1741 C1685 0.929 . S
H1742 C1686 0.930 . S
H1743 C1687 0.930 . S
H1744 C1690 0.930 . S
H1745 C1693 0.929 . S
H1746 C1698 0.929 . S
H1747 C1699 0.930 . S
H1748 C1706 0.929 . S
H1749 C1707 0.930 . S
H1750 C1708 0.930 . S
H1751 C1709 0.930 . S
H1752 C1711 0.929 . S
H1753 C1712 0.930 . S
H1754 C1713 0.930 . S
H1755 C1714 0.930 . S
H1756 C1718 0.929 . S
H1757 C1720 0.930 . S
H1758 C1726 0.929 . S
H1759 C1727 0.930 . S
Li1760 N1777 1.990 . S
Li1760 O1820 1.956 . S
Li1760 O1821 1.970 . S
Li1760 O1822 1.961 . S
Li1761 N1785 1.990 . S
Li1761 O1820 1.970 . S
Li1761 O1821 1.956 . S
Li1761 O1823 1.961 . S
Li1762 N1807 1.990 . S
Li1762 O1820 1.961 . S
Li1762 O1822 1.956 . S
Li1762 O1823 1.970 . S
Li1763 N1813 1.990 . S
Li1763 O1821 1.961 . S
Li1763 O1822 1.970 . S
Li1763 O1823 1.956 . S
C1764 C1766 1.348 . S
C1764 C1767 1.356 . S
C1764 O1820 1.325 . S
N1765 C1768 1.314 . S
N1765 C1769 1.279 . S
C1766 C1764 1.348 . S
C1766 C1768 1.353 . S
C1766 H1824 0.929 . S
C1767 C1764 1.356 . S
C1767 C1769 1.358 . S
C1767 H1825 0.930 . S
C1768 N1765 1.314 . S
C1768 C1766 1.353 . S
C1768 H1826 0.930 . S
C1769 N1765 1.279 . S
C1769 C1767 1.358 . S
C1769 H1827 0.930 . S
C1770 C1773 1.348 . S
C1770 C1774 1.356 . S
C1770 O1821 1.325 . S
C1771 N1772 1.279 . S
C1771 C1774 1.358 . S
C1771 H1828 0.930 . S
N1772 C1771 1.279 . S
N1772 C1775 1.314 . S
C1773 C1770 1.348 . S
C1773 C1775 1.353 . S
C1773 H1829 0.929 . S
C1774 C1770 1.356 . S
C1774 C1771 1.358 . S
C1774 H1830 0.930 . S
C1775 N1772 1.314 . S
C1775 C1773 1.353 . S
C1775 H1831 0.930 . S
C1776 N1777 1.314 . S
C1776 C1781 1.353 . S
C1776 H1782 0.930 . S
N1777 Li1760 1.990 . S
N1777 C1776 1.314 . S
N1777 C1779 1.279 . S
C1778 C1779 1.358 . S
C1778 C1780 1.356 . S
C1778 H1832 0.930 . S
C1779 N1777 1.279 . S
C1779 C1778 1.358 . S
C1779 H1783 0.930 . S
C1780 C1778 1.356 . S
C1780 C1781 1.348 . S
C1781 C1776 1.353 . S
C1781 C1780 1.348 . S
C1781 H1833 0.929 . S
H1782 C1776 0.930 . S
H1783 C1779 0.930 . S
C1784 N1785 1.314 . S
C1784 C1786 1.353 . S
C1784 H1790 0.930 . S
N1785 Li1761 1.990 . S
N1785 C1784 1.314 . S
N1785 C1788 1.279 . S
C1786 C1784 1.353 . S
C1786 C1789 1.348 . S
C1786 H1834 0.929 . S
C1787 C1788 1.358 . S
C1787 C1789 1.356 . S
C1787 H1835 0.930 . S
C1788 N1785 1.279 . S
C1788 C1787 1.358 . S
C1788 H1791 0.930 . S
C1789 C1786 1.348 . S
C1789 C1787 1.356 . S
H1790 C1784 0.930 . S
H1791 C1788 0.930 . S
C1792 C1794 1.348 . S
C1792 C1795 1.356 . S
C1792 O1822 1.325 . S
N1793 C1796 1.314 . S
N1793 C1797 1.279 . S
C1794 C1792 1.348 . S
C1794 C1796 1.353 . S
C1794 H1836 0.929 . S
C1795 C1792 1.356 . S
C1795 C1797 1.358 . S
C1795 H1837 0.930 . S
C1796 N1793 1.314 . S
C1796 C1794 1.353 . S
C1796 H1838 0.930 . S
C1797 N1793 1.279 . S
C1797 C1795 1.358 . S
C1797 H1839 0.930 . S
C1798 C1799 1.348 . S
C1798 C1800 1.356 . S
C1798 O1823 1.325 . S
C1799 C1798 1.348 . S
C1799 C1801 1.353 . S
C1799 H1840 0.929 . S
C1800 C1798 1.356 . S
C1800 C1802 1.358 . S
C1800 H1841 0.930 . S
C1801 C1799 1.353 . S
C1801 N1803 1.314 . S
C1801 H1842 0.930 . S
C1802 C1800 1.358 . S
C1802 N1803 1.279 . S
C1802 H1843 0.930 . S
N1803 C1801 1.314 . S
N1803 C1802 1.279 . S
C1804 C1806 1.353 . S
C1804 N1807 1.314 . S
C1804 H1810 0.930 . S
C1805 N1807 1.279 . S
C1805 C1808 1.358 . S
C1805 H1811 0.930 . S
C1806 C1804 1.353 . S
C1806 C1809 1.348 . S
C1806 H1844 0.929 . S
N1807 Li1762 1.990 . S
N1807 C1804 1.314 . S
N1807 C1805 1.279 . S
C1808 C1805 1.358 . S
C1808 C1809 1.356 . S
C1808 H1845 0.930 . S
C1809 C1806 1.348 . S
C1809 C1808 1.356 . S
H1810 C1804 0.930 . S
H1811 C1805 0.930 . S
C1812 N1813 1.314 . S
C1812 C1814 1.353 . S
C1812 H1818 0.930 . S
N1813 Li1763 1.990 . S
N1813 C1812 1.314 . S
N1813 C1816 1.279 . S
C1814 C1812 1.353 . S
C1814 C1817 1.348 . S
C1814 H1846 0.929 . S
C1815 C1816 1.358 . S
C1815 C1817 1.356 . S
C1815 H1847 0.930 . S
C1816 N1813 1.279 . S
C1816 C1815 1.358 . S
C1816 H1819 0.930 . S
C1817 C1814 1.348 . S
C1817 C1815 1.356 . S
H1818 C1812 0.930 . S
H1819 C1816 0.930 . S
O1820 Li1760 1.956 . S
O1820 Li1761 1.970 . S
O1820 Li1762 1.961 . S
O1820 C1764 1.325 . S
O1821 Li1760 1.970 . S
O1821 Li1761 1.956 . S
O1821 Li1763 1.961 . S
O1821 C1770 1.325 . S
O1822 Li1760 1.961 . S
O1822 Li1762 1.956 . S
O1822 Li1763 1.970 . S
O1822 C1792 1.325 . S
O1823 Li1761 1.961 . S
O1823 Li1762 1.970 . S
O1823 Li1763 1.956 . S
O1823 C1798 1.325 . S
H1824 C1766 0.929 . S
H1825 C1767 0.930 . S
H1826 C1768 0.930 . S
H1827 C1769 0.930 . S
H1828 C1771 0.930 . S
H1829 C1773 0.929 . S
H1830 C1774 0.930 . S
H1831 C1775 0.930 . S
H1832 C1778 0.930 . S
H1833 C1781 0.929 . S
H1834 C1786 0.929 . S
H1835 C1787 0.930 . S
H1836 C1794 0.929 . S
H1837 C1795 0.930 . S
H1838 C1796 0.930 . S
H1839 C1797 0.930 . S
H1840 C1799 0.929 . S
H1841 C1800 0.930 . S
H1842 C1801 0.930 . S
H1843 C1802 0.930 . S
H1844 C1806 0.929 . S
H1845 C1808 0.930 . S
H1846 C1814 0.929 . S
H1847 C1815 0.930 . S
Li1848 N1865 1.990 . S
Li1848 O1908 1.956 . S
Li1848 O1909 1.970 . S
Li1848 O1910 1.961 . S
Li1849 N1873 1.990 . S
Li1849 O1908 1.970 . S
Li1849 O1909 1.956 . S
Li1849 O1911 1.961 . S
Li1850 N1895 1.990 . S
Li1850 O1908 1.961 . S
Li1850 O1910 1.956 . S
Li1850 O1911 1.970 . S
Li1851 N1901 1.990 . S
Li1851 O1909 1.961 . S
Li1851 O1910 1.970 . S
Li1851 O1911 1.956 . S
C1852 C1854 1.348 . S
C1852 C1855 1.356 . S
C1852 O1908 1.325 . S
N1853 C1856 1.314 . S
N1853 C1857 1.279 . S
C1854 C1852 1.348 . S
C1854 C1856 1.353 . S
C1854 H1912 0.929 . S
C1855 C1852 1.356 . S
C1855 C1857 1.358 . S
C1855 H1913 0.930 . S
C1856 N1853 1.314 . S
C1856 C1854 1.353 . S
C1856 H1914 0.930 . S
C1857 N1853 1.279 . S
C1857 C1855 1.358 . S
C1857 H1915 0.930 . S
C1858 C1861 1.348 . S
C1858 C1862 1.356 . S
C1858 O1909 1.325 . S
C1859 N1860 1.279 . S
C1859 C1862 1.358 . S
C1859 H1916 0.930 . S
N1860 C1859 1.279 . S
N1860 C1863 1.314 . S
C1861 C1858 1.348 . S
C1861 C1863 1.353 . S
C1861 H1917 0.929 . S
C1862 C1858 1.356 . S
C1862 C1859 1.358 . S
C1862 H1918 0.930 . S
C1863 N1860 1.314 . S
C1863 C1861 1.353 . S
C1863 H1919 0.930 . S
C1864 N1865 1.314 . S
C1864 C1869 1.353 . S
C1864 H1870 0.930 . S
N1865 Li1848 1.990 . S
N1865 C1864 1.314 . S
N1865 C1867 1.279 . S
C1866 C1867 1.358 . S
C1866 C1868 1.356 . S
C1866 H1920 0.930 . S
C1867 N1865 1.279 . S
C1867 C1866 1.358 . S
C1867 H1871 0.930 . S
C1868 C1866 1.356 . S
C1868 C1869 1.348 . S
C1869 C1864 1.353 . S
C1869 C1868 1.348 . S
C1869 H1921 0.929 . S
H1870 C1864 0.930 . S
H1871 C1867 0.930 . S
C1872 N1873 1.314 . S
C1872 C1874 1.353 . S
C1872 H1878 0.930 . S
N1873 Li1849 1.990 . S
N1873 C1872 1.314 . S
N1873 C1876 1.279 . S
C1874 C1872 1.353 . S
C1874 C1877 1.348 . S
C1874 H1922 0.929 . S
C1875 C1876 1.358 . S
C1875 C1877 1.356 . S
C1875 H1923 0.930 . S
C1876 N1873 1.279 . S
C1876 C1875 1.358 . S
C1876 H1879 0.930 . S
C1877 C1874 1.348 . S
C1877 C1875 1.356 . S
H1878 C1872 0.930 . S
H1879 C1876 0.930 . S
C1880 C1882 1.348 . S
C1880 C1883 1.356 . S
C1880 O1910 1.325 . S
N1881 C1884 1.314 . S
N1881 C1885 1.279 . S
C1882 C1880 1.348 . S
C1882 C1884 1.353 . S
C1882 H1924 0.929 . S
C1883 C1880 1.356 . S
C1883 C1885 1.358 . S
C1883 H1925 0.930 . S
C1884 N1881 1.314 . S
C1884 C1882 1.353 . S
C1884 H1926 0.930 . S
C1885 N1881 1.279 . S
C1885 C1883 1.358 . S
C1885 H1927 0.930 . S
C1886 C1887 1.348 . S
C1886 C1888 1.356 . S
C1886 O1911 1.325 . S
C1887 C1886 1.348 . S
C1887 C1889 1.353 . S
C1887 H1928 0.929 . S
C1888 C1886 1.356 . S
C1888 C1890 1.358 . S
C1888 H1929 0.930 . S
C1889 C1887 1.353 . S
C1889 N1891 1.314 . S
C1889 H1930 0.930 . S
C1890 C1888 1.358 . S
C1890 N1891 1.279 . S
C1890 H1931 0.930 . S
N1891 C1889 1.314 . S
N1891 C1890 1.279 . S
C1892 C1894 1.353 . S
C1892 N1895 1.314 . S
C1892 H1898 0.930 . S
C1893 N1895 1.279 . S
C1893 C1896 1.358 . S
C1893 H1899 0.930 . S
C1894 C1892 1.353 . S
C1894 C1897 1.348 . S
C1894 H1932 0.929 . S
N1895 Li1850 1.990 . S
N1895 C1892 1.314 . S
N1895 C1893 1.279 . S
C1896 C1893 1.358 . S
C1896 C1897 1.356 . S
C1896 H1933 0.930 . S
C1897 C1894 1.348 . S
C1897 C1896 1.356 . S
H1898 C1892 0.930 . S
H1899 C1893 0.930 . S
C1900 N1901 1.314 . S
C1900 C1902 1.353 . S
C1900 H1906 0.930 . S
N1901 Li1851 1.990 . S
N1901 C1900 1.314 . S
N1901 C1904 1.279 . S
C1902 C1900 1.353 . S
C1902 C1905 1.348 . S
C1902 H1934 0.929 . S
C1903 C1904 1.358 . S
C1903 C1905 1.356 . S
C1903 H1935 0.930 . S
C1904 N1901 1.279 . S
C1904 C1903 1.358 . S
C1904 H1907 0.930 . S
C1905 C1902 1.348 . S
C1905 C1903 1.356 . S
H1906 C1900 0.930 . S
H1907 C1904 0.930 . S
O1908 Li1848 1.956 . S
O1908 Li1849 1.970 . S
O1908 Li1850 1.961 . S
O1908 C1852 1.325 . S
O1909 Li1848 1.970 . S
O1909 Li1849 1.956 . S
O1909 Li1851 1.961 . S
O1909 C1858 1.325 . S
O1910 Li1848 1.961 . S
O1910 Li1850 1.956 . S
O1910 Li1851 1.970 . S
O1910 C1880 1.325 . S
O1911 Li1849 1.961 . S
O1911 Li1850 1.970 . S
O1911 Li1851 1.956 . S
O1911 C1886 1.325 . S
H1912 C1854 0.929 . S
H1913 C1855 0.930 . S
H1914 C1856 0.930 . S
H1915 C1857 0.930 . S
H1916 C1859 0.930 . S
H1917 C1861 0.929 . S
H1918 C1862 0.930 . S
H1919 C1863 0.930 . S
H1920 C1866 0.930 . S
H1921 C1869 0.929 . S
H1922 C1874 0.929 . S
H1923 C1875 0.930 . S
H1924 C1882 0.929 . S
H1925 C1883 0.930 . S
H1926 C1884 0.930 . S
H1927 C1885 0.930 . S
H1928 C1887 0.929 . S
H1929 C1888 0.930 . S
H1930 C1889 0.930 . S
H1931 C1890 0.930 . S
H1932 C1894 0.929 . S
H1933 C1896 0.930 . S
H1934 C1902 0.929 . S
H1935 C1903 0.930 . S
Li1936 N1953 1.990 . S
Li1936 O1996 1.956 . S
Li1936 O1997 1.970 . S
Li1936 O1998 1.961 . S
Li1937 N1961 1.990 . S
Li1937 O1996 1.970 . S
Li1937 O1997 1.956 . S
Li1937 O1999 1.961 . S
Li1938 N1983 1.990 . S
Li1938 O1996 1.961 . S
Li1938 O1998 1.956 . S
Li1938 O1999 1.970 . S
Li1939 N1989 1.990 . S
Li1939 O1997 1.961 . S
Li1939 O1998 1.970 . S
Li1939 O1999 1.956 . S
C1940 C1942 1.348 . S
C1940 C1943 1.356 . S
C1940 O1996 1.325 . S
N1941 C1944 1.314 . S
N1941 C1945 1.279 . S
C1942 C1940 1.348 . S
C1942 C1944 1.353 . S
C1942 H2000 0.929 . S
C1943 C1940 1.356 . S
C1943 C1945 1.358 . S
C1943 H2001 0.930 . S
C1944 N1941 1.314 . S
C1944 C1942 1.353 . S
C1944 H2002 0.930 . S
C1945 N1941 1.279 . S
C1945 C1943 1.358 . S
C1945 H2003 0.930 . S
C1946 C1949 1.348 . S
C1946 C1950 1.356 . S
C1946 O1997 1.325 . S
C1947 N1948 1.279 . S
C1947 C1950 1.358 . S
C1947 H2004 0.930 . S
N1948 C1947 1.279 . S
N1948 C1951 1.314 . S
C1949 C1946 1.348 . S
C1949 C1951 1.353 . S
C1949 H2005 0.929 . S
C1950 C1946 1.356 . S
C1950 C1947 1.358 . S
C1950 H2006 0.930 . S
C1951 N1948 1.314 . S
C1951 C1949 1.353 . S
C1951 H2007 0.930 . S
C1952 N1953 1.314 . S
C1952 C1957 1.353 . S
C1952 H1958 0.930 . S
N1953 Li1936 1.990 . S
N1953 C1952 1.314 . S
N1953 C1955 1.279 . S
C1954 C1955 1.358 . S
C1954 C1956 1.356 . S
C1954 H2008 0.930 . S
C1955 N1953 1.279 . S
C1955 C1954 1.358 . S
C1955 H1959 0.930 . S
C1956 C1954 1.356 . S
C1956 C1957 1.348 . S
C1957 C1952 1.353 . S
C1957 C1956 1.348 . S
C1957 H2009 0.929 . S
H1958 C1952 0.930 . S
H1959 C1955 0.930 . S
C1960 N1961 1.314 . S
C1960 C1962 1.353 . S
C1960 H1966 0.930 . S
N1961 Li1937 1.990 . S
N1961 C1960 1.314 . S
N1961 C1964 1.279 . S
C1962 C1960 1.353 . S
C1962 C1965 1.348 . S
C1962 H2010 0.929 . S
C1963 C1964 1.358 . S
C1963 C1965 1.356 . S
C1963 H2011 0.930 . S
C1964 N1961 1.279 . S
C1964 C1963 1.358 . S
C1964 H1967 0.930 . S
C1965 C1962 1.348 . S
C1965 C1963 1.356 . S
H1966 C1960 0.930 . S
H1967 C1964 0.930 . S
C1968 C1970 1.348 . S
C1968 C1971 1.356 . S
C1968 O1998 1.325 . S
N1969 C1972 1.314 . S
N1969 C1973 1.279 . S
C1970 C1968 1.348 . S
C1970 C1972 1.353 . S
C1970 H2012 0.929 . S
C1971 C1968 1.356 . S
C1971 C1973 1.358 . S
C1971 H2013 0.930 . S
C1972 N1969 1.314 . S
C1972 C1970 1.353 . S
C1972 H2014 0.930 . S
C1973 N1969 1.279 . S
C1973 C1971 1.358 . S
C1973 H2015 0.930 . S
C1974 C1975 1.348 . S
C1974 C1976 1.356 . S
C1974 O1999 1.325 . S
C1975 C1974 1.348 . S
C1975 C1977 1.353 . S
C1975 H2016 0.929 . S
C1976 C1974 1.356 . S
C1976 C1978 1.358 . S
C1976 H2017 0.930 . S
C1977 C1975 1.353 . S
C1977 N1979 1.314 . S
C1977 H2018 0.930 . S
C1978 C1976 1.358 . S
C1978 N1979 1.279 . S
C1978 H2019 0.930 . S
N1979 C1977 1.314 . S
N1979 C1978 1.279 . S
C1980 C1982 1.353 . S
C1980 N1983 1.314 . S
C1980 H1986 0.930 . S
C1981 N1983 1.279 . S
C1981 C1984 1.358 . S
C1981 H1987 0.930 . S
C1982 C1980 1.353 . S
C1982 C1985 1.348 . S
C1982 H2020 0.929 . S
N1983 Li1938 1.990 . S
N1983 C1980 1.314 . S
N1983 C1981 1.279 . S
C1984 C1981 1.358 . S
C1984 C1985 1.356 . S
C1984 H2021 0.930 . S
C1985 C1982 1.348 . S
C1985 C1984 1.356 . S
H1986 C1980 0.930 . S
H1987 C1981 0.930 . S
C1988 N1989 1.314 . S
C1988 C1990 1.353 . S
C1988 H1994 0.930 . S
N1989 Li1939 1.990 . S
N1989 C1988 1.314 . S
N1989 C1992 1.279 . S
C1990 C1988 1.353 . S
C1990 C1993 1.348 . S
C1990 H2022 0.929 . S
C1991 C1992 1.358 . S
C1991 C1993 1.356 . S
C1991 H2023 0.930 . S
C1992 N1989 1.279 . S
C1992 C1991 1.358 . S
C1992 H1995 0.930 . S
C1993 C1990 1.348 . S
C1993 C1991 1.356 . S
H1994 C1988 0.930 . S
H1995 C1992 0.930 . S
O1996 Li1936 1.956 . S
O1996 Li1937 1.970 . S
O1996 Li1938 1.961 . S
O1996 C1940 1.325 . S
O1997 Li1936 1.970 . S
O1997 Li1937 1.956 . S
O1997 Li1939 1.961 . S
O1997 C1946 1.325 . S
O1998 Li1936 1.961 . S
O1998 Li1938 1.956 . S
O1998 Li1939 1.970 . S
O1998 C1968 1.325 . S
O1999 Li1937 1.961 . S
O1999 Li1938 1.970 . S
O1999 Li1939 1.956 . S
O1999 C1974 1.325 . S
H2000 C1942 0.929 . S
H2001 C1943 0.930 . S
H2002 C1944 0.930 . S
H2003 C1945 0.930 . S
H2004 C1947 0.930 . S
H2005 C1949 0.929 . S
H2006 C1950 0.930 . S
H2007 C1951 0.930 . S
H2008 C1954 0.930 . S
H2009 C1957 0.929 . S
H2010 C1962 0.929 . S
H2011 C1963 0.930 . S
H2012 C1970 0.929 . S
H2013 C1971 0.930 . S
H2014 C1972 0.930 . S
H2015 C1973 0.930 . S
H2016 C1975 0.929 . S
H2017 C1976 0.930 . S
H2018 C1977 0.930 . S
H2019 C1978 0.930 . S
H2020 C1982 0.929 . S
H2021 C1984 0.930 . S
H2022 C1990 0.929 . S
H2023 C1991 0.930 . S
Li2024 N2041 1.990 . S
Li2024 O2084 1.956 . S
Li2024 O2085 1.970 . S
Li2024 O2086 1.961 . S
Li2025 N2049 1.990 . S
Li2025 O2084 1.970 . S
Li2025 O2085 1.956 . S
Li2025 O2087 1.961 . S
Li2026 N2071 1.990 . S
Li2026 O2084 1.961 . S
Li2026 O2086 1.956 . S
Li2026 O2087 1.970 . S
Li2027 N2077 1.990 . S
Li2027 O2085 1.961 . S
Li2027 O2086 1.970 . S
Li2027 O2087 1.956 . S
C2028 C2030 1.348 . S
C2028 C2031 1.356 . S
C2028 O2084 1.325 . S
N2029 C2032 1.314 . S
N2029 C2033 1.279 . S
C2030 C2028 1.348 . S
C2030 C2032 1.353 . S
C2030 H2088 0.929 . S
C2031 C2028 1.356 . S
C2031 C2033 1.358 . S
C2031 H2089 0.930 . S
C2032 N2029 1.314 . S
C2032 C2030 1.353 . S
C2032 H2090 0.930 . S
C2033 N2029 1.279 . S
C2033 C2031 1.358 . S
C2033 H2091 0.930 . S
C2034 C2037 1.348 . S
C2034 C2038 1.356 . S
C2034 O2085 1.325 . S
C2035 N2036 1.279 . S
C2035 C2038 1.358 . S
C2035 H2092 0.930 . S
N2036 C2035 1.279 . S
N2036 C2039 1.314 . S
C2037 C2034 1.348 . S
C2037 C2039 1.353 . S
C2037 H2093 0.929 . S
C2038 C2034 1.356 . S
C2038 C2035 1.358 . S
C2038 H2094 0.930 . S
C2039 N2036 1.314 . S
C2039 C2037 1.353 . S
C2039 H2095 0.930 . S
C2040 N2041 1.314 . S
C2040 C2045 1.353 . S
C2040 H2046 0.930 . S
N2041 Li2024 1.990 . S
N2041 C2040 1.314 . S
N2041 C2043 1.279 . S
C2042 C2043 1.358 . S
C2042 C2044 1.356 . S
C2042 H2096 0.930 . S
C2043 N2041 1.279 . S
C2043 C2042 1.358 . S
C2043 H2047 0.930 . S
C2044 C2042 1.356 . S
C2044 C2045 1.348 . S
C2045 C2040 1.353 . S
C2045 C2044 1.348 . S
C2045 H2097 0.929 . S
H2046 C2040 0.930 . S
H2047 C2043 0.930 . S
C2048 N2049 1.314 . S
C2048 C2050 1.353 . S
C2048 H2054 0.930 . S
N2049 Li2025 1.990 . S
N2049 C2048 1.314 . S
N2049 C2052 1.279 . S
C2050 C2048 1.353 . S
C2050 C2053 1.348 . S
C2050 H2098 0.929 . S
C2051 C2052 1.358 . S
C2051 C2053 1.356 . S
C2051 H2099 0.930 . S
C2052 N2049 1.279 . S
C2052 C2051 1.358 . S
C2052 H2055 0.930 . S
C2053 C2050 1.348 . S
C2053 C2051 1.356 . S
H2054 C2048 0.930 . S
H2055 C2052 0.930 . S
C2056 C2058 1.348 . S
C2056 C2059 1.356 . S
C2056 O2086 1.325 . S
N2057 C2060 1.314 . S
N2057 C2061 1.279 . S
C2058 C2056 1.348 . S
C2058 C2060 1.353 . S
C2058 H2100 0.929 . S
C2059 C2056 1.356 . S
C2059 C2061 1.358 . S
C2059 H2101 0.930 . S
C2060 N2057 1.314 . S
C2060 C2058 1.353 . S
C2060 H2102 0.930 . S
C2061 N2057 1.279 . S
C2061 C2059 1.358 . S
C2061 H2103 0.930 . S
C2062 C2063 1.348 . S
C2062 C2064 1.356 . S
C2062 O2087 1.325 . S
C2063 C2062 1.348 . S
C2063 C2065 1.353 . S
C2063 H2104 0.929 . S
C2064 C2062 1.356 . S
C2064 C2066 1.358 . S
C2064 H2105 0.930 . S
C2065 C2063 1.353 . S
C2065 N2067 1.314 . S
C2065 H2106 0.930 . S
C2066 C2064 1.358 . S
C2066 N2067 1.279 . S
C2066 H2107 0.930 . S
N2067 C2065 1.314 . S
N2067 C2066 1.279 . S
C2068 C2070 1.353 . S
C2068 N2071 1.314 . S
C2068 H2074 0.930 . S
C2069 N2071 1.279 . S
C2069 C2072 1.358 . S
C2069 H2075 0.930 . S
C2070 C2068 1.353 . S
C2070 C2073 1.348 . S
C2070 H2108 0.929 . S
N2071 Li2026 1.990 . S
N2071 C2068 1.314 . S
N2071 C2069 1.279 . S
C2072 C2069 1.358 . S
C2072 C2073 1.356 . S
C2072 H2109 0.930 . S
C2073 C2070 1.348 . S
C2073 C2072 1.356 . S
H2074 C2068 0.930 . S
H2075 C2069 0.930 . S
C2076 N2077 1.314 . S
C2076 C2078 1.353 . S
C2076 H2082 0.930 . S
N2077 Li2027 1.990 . S
N2077 C2076 1.314 . S
N2077 C2080 1.279 . S
C2078 C2076 1.353 . S
C2078 C2081 1.348 . S
C2078 H2110 0.929 . S
C2079 C2080 1.358 . S
C2079 C2081 1.356 . S
C2079 H2111 0.930 . S
C2080 N2077 1.279 . S
C2080 C2079 1.358 . S
C2080 H2083 0.930 . S
C2081 C2078 1.348 . S
C2081 C2079 1.356 . S
H2082 C2076 0.930 . S
H2083 C2080 0.930 . S
O2084 Li2024 1.956 . S
O2084 Li2025 1.970 . S
O2084 Li2026 1.961 . S
O2084 C2028 1.325 . S
O2085 Li2024 1.970 . S
O2085 Li2025 1.956 . S
O2085 Li2027 1.961 . S
O2085 C2034 1.325 . S
O2086 Li2024 1.961 . S
O2086 Li2026 1.956 . S
O2086 Li2027 1.970 . S
O2086 C2056 1.325 . S
O2087 Li2025 1.961 . S
O2087 Li2026 1.970 . S
O2087 Li2027 1.956 . S
O2087 C2062 1.325 . S
H2088 C2030 0.929 . S
H2089 C2031 0.930 . S
H2090 C2032 0.930 . S
H2091 C2033 0.930 . S
H2092 C2035 0.930 . S
H2093 C2037 0.929 . S
H2094 C2038 0.930 . S
H2095 C2039 0.930 . S
H2096 C2042 0.930 . S
H2097 C2045 0.929 . S
H2098 C2050 0.929 . S
H2099 C2051 0.930 . S
H2100 C2058 0.929 . S
H2101 C2059 0.930 . S
H2102 C2060 0.930 . S
H2103 C2061 0.930 . S
H2104 C2063 0.929 . S
H2105 C2064 0.930 . S
H2106 C2065 0.930 . S
H2107 C2066 0.930 . S
H2108 C2070 0.929 . S
H2109 C2072 0.930 . S
H2110 C2078 0.929 . S
H2111 C2079 0.930 . S
Li2112 N2129 1.990 . S
Li2112 O2172 1.956 . S
Li2112 O2173 1.970 . S
Li2112 O2174 1.961 . S
Li2113 N2137 1.990 . S
Li2113 O2172 1.970 . S
Li2113 O2173 1.956 . S
Li2113 O2175 1.961 . S
Li2114 N2159 1.990 . S
Li2114 O2172 1.961 . S
Li2114 O2174 1.956 . S
Li2114 O2175 1.970 . S
Li2115 N2165 1.990 . S
Li2115 O2173 1.961 . S
Li2115 O2174 1.970 . S
Li2115 O2175 1.956 . S
C2116 C2118 1.348 . S
C2116 C2119 1.356 . S
C2116 O2172 1.325 . S
N2117 C2120 1.314 . S
N2117 C2121 1.279 . S
C2118 C2116 1.348 . S
C2118 C2120 1.353 . S
C2118 H2176 0.929 . S
C2119 C2116 1.356 . S
C2119 C2121 1.358 . S
C2119 H2177 0.930 . S
C2120 N2117 1.314 . S
C2120 C2118 1.353 . S
C2120 H2178 0.930 . S
C2121 N2117 1.279 . S
C2121 C2119 1.358 . S
C2121 H2179 0.930 . S
C2122 C2125 1.348 . S
C2122 C2126 1.356 . S
C2122 O2173 1.325 . S
C2123 N2124 1.279 . S
C2123 C2126 1.358 . S
C2123 H2180 0.930 . S
N2124 C2123 1.279 . S
N2124 C2127 1.314 . S
C2125 C2122 1.348 . S
C2125 C2127 1.353 . S
C2125 H2181 0.929 . S
C2126 C2122 1.356 . S
C2126 C2123 1.358 . S
C2126 H2182 0.930 . S
C2127 N2124 1.314 . S
C2127 C2125 1.353 . S
C2127 H2183 0.930 . S
C2128 N2129 1.314 . S
C2128 C2133 1.353 . S
C2128 H2134 0.930 . S
N2129 Li2112 1.990 . S
N2129 C2128 1.314 . S
N2129 C2131 1.279 . S
C2130 C2131 1.358 . S
C2130 C2132 1.356 . S
C2130 H2184 0.930 . S
C2131 N2129 1.279 . S
C2131 C2130 1.358 . S
C2131 H2135 0.930 . S
C2132 C2130 1.356 . S
C2132 C2133 1.348 . S
C2133 C2128 1.353 . S
C2133 C2132 1.348 . S
C2133 H2185 0.929 . S
H2134 C2128 0.930 . S
H2135 C2131 0.930 . S
C2136 N2137 1.314 . S
C2136 C2138 1.353 . S
C2136 H2142 0.930 . S
N2137 Li2113 1.990 . S
N2137 C2136 1.314 . S
N2137 C2140 1.279 . S
C2138 C2136 1.353 . S
C2138 C2141 1.348 . S
C2138 H2186 0.929 . S
C2139 C2140 1.358 . S
C2139 C2141 1.356 . S
C2139 H2187 0.930 . S
C2140 N2137 1.279 . S
C2140 C2139 1.358 . S
C2140 H2143 0.930 . S
C2141 C2138 1.348 . S
C2141 C2139 1.356 . S
H2142 C2136 0.930 . S
H2143 C2140 0.930 . S
C2144 C2146 1.348 . S
C2144 C2147 1.356 . S
C2144 O2174 1.325 . S
N2145 C2148 1.314 . S
N2145 C2149 1.279 . S
C2146 C2144 1.348 . S
C2146 C2148 1.353 . S
C2146 H2188 0.929 . S
C2147 C2144 1.356 . S
C2147 C2149 1.358 . S
C2147 H2189 0.930 . S
C2148 N2145 1.314 . S
C2148 C2146 1.353 . S
C2148 H2190 0.930 . S
C2149 N2145 1.279 . S
C2149 C2147 1.358 . S
C2149 H2191 0.930 . S
C2150 C2151 1.348 . S
C2150 C2152 1.356 . S
C2150 O2175 1.325 . S
C2151 C2150 1.348 . S
C2151 C2153 1.353 . S
C2151 H2192 0.929 . S
C2152 C2150 1.356 . S
C2152 C2154 1.358 . S
C2152 H2193 0.930 . S
C2153 C2151 1.353 . S
C2153 N2155 1.314 . S
C2153 H2194 0.930 . S
C2154 C2152 1.358 . S
C2154 N2155 1.279 . S
C2154 H2195 0.930 . S
N2155 C2153 1.314 . S
N2155 C2154 1.279 . S
C2156 C2158 1.353 . S
C2156 N2159 1.314 . S
C2156 H2162 0.930 . S
C2157 N2159 1.279 . S
C2157 C2160 1.358 . S
C2157 H2163 0.930 . S
C2158 C2156 1.353 . S
C2158 C2161 1.348 . S
C2158 H2196 0.929 . S
N2159 Li2114 1.990 . S
N2159 C2156 1.314 . S
N2159 C2157 1.279 . S
C2160 C2157 1.358 . S
C2160 C2161 1.356 . S
C2160 H2197 0.930 . S
C2161 C2158 1.348 . S
C2161 C2160 1.356 . S
H2162 C2156 0.930 . S
H2163 C2157 0.930 . S
C2164 N2165 1.314 . S
C2164 C2166 1.353 . S
C2164 H2170 0.930 . S
N2165 Li2115 1.990 . S
N2165 C2164 1.314 . S
N2165 C2168 1.279 . S
C2166 C2164 1.353 . S
C2166 C2169 1.348 . S
C2166 H2198 0.929 . S
C2167 C2168 1.358 . S
C2167 C2169 1.356 . S
C2167 H2199 0.930 . S
C2168 N2165 1.279 . S
C2168 C2167 1.358 . S
C2168 H2171 0.930 . S
C2169 C2166 1.348 . S
C2169 C2167 1.356 . S
H2170 C2164 0.930 . S
H2171 C2168 0.930 . S
O2172 Li2112 1.956 . S
O2172 Li2113 1.970 . S
O2172 Li2114 1.961 . S
O2172 C2116 1.325 . S
O2173 Li2112 1.970 . S
O2173 Li2113 1.956 . S
O2173 Li2115 1.961 . S
O2173 C2122 1.325 . S
O2174 Li2112 1.961 . S
O2174 Li2114 1.956 . S
O2174 Li2115 1.970 . S
O2174 C2144 1.325 . S
O2175 Li2113 1.961 . S
O2175 Li2114 1.970 . S
O2175 Li2115 1.956 . S
O2175 C2150 1.325 . S
H2176 C2118 0.929 . S
H2177 C2119 0.930 . S
H2178 C2120 0.930 . S
H2179 C2121 0.930 . S
H2180 C2123 0.930 . S
H2181 C2125 0.929 . S
H2182 C2126 0.930 . S
H2183 C2127 0.930 . S
H2184 C2130 0.930 . S
H2185 C2133 0.929 . S
H2186 C2138 0.929 . S
H2187 C2139 0.930 . S
H2188 C2146 0.929 . S
H2189 C2147 0.930 . S
H2190 C2148 0.930 . S
H2191 C2149 0.930 . S
H2192 C2151 0.929 . S
H2193 C2152 0.930 . S
H2194 C2153 0.930 . S
H2195 C2154 0.930 . S
H2196 C2158 0.929 . S
H2197 C2160 0.930 . S
H2198 C2166 0.929 . S
H2199 C2167 0.930 . S
Li2200 N2217 1.990 . S
Li2200 O2260 1.956 . S
Li2200 O2261 1.970 . S
Li2200 O2262 1.961 . S
Li2201 N2225 1.990 . S
Li2201 O2260 1.970 . S
Li2201 O2261 1.956 . S
Li2201 O2263 1.961 . S
Li2202 N2247 1.990 . S
Li2202 O2260 1.961 . S
Li2202 O2262 1.956 . S
Li2202 O2263 1.970 . S
Li2203 N2253 1.990 . S
Li2203 O2261 1.961 . S
Li2203 O2262 1.970 . S
Li2203 O2263 1.956 . S
C2204 C2206 1.348 . S
C2204 C2207 1.356 . S
C2204 O2260 1.325 . S
N2205 C2208 1.314 . S
N2205 C2209 1.279 . S
C2206 C2204 1.348 . S
C2206 C2208 1.353 . S
C2206 H2264 0.929 . S
C2207 C2204 1.356 . S
C2207 C2209 1.358 . S
C2207 H2265 0.930 . S
C2208 N2205 1.314 . S
C2208 C2206 1.353 . S
C2208 H2266 0.930 . S
C2209 N2205 1.279 . S
C2209 C2207 1.358 . S
C2209 H2267 0.930 . S
C2210 C2213 1.348 . S
C2210 C2214 1.356 . S
C2210 O2261 1.325 . S
C2211 N2212 1.279 . S
C2211 C2214 1.358 . S
C2211 H2268 0.930 . S
N2212 C2211 1.279 . S
N2212 C2215 1.314 . S
C2213 C2210 1.348 . S
C2213 C2215 1.353 . S
C2213 H2269 0.929 . S
C2214 C2210 1.356 . S
C2214 C2211 1.358 . S
C2214 H2270 0.930 . S
C2215 N2212 1.314 . S
C2215 C2213 1.353 . S
C2215 H2271 0.930 . S
C2216 N2217 1.314 . S
C2216 C2221 1.353 . S
C2216 H2222 0.930 . S
N2217 Li2200 1.990 . S
N2217 C2216 1.314 . S
N2217 C2219 1.279 . S
C2218 C2219 1.358 . S
C2218 C2220 1.356 . S
C2218 H2272 0.930 . S
C2219 N2217 1.279 . S
C2219 C2218 1.358 . S
C2219 H2223 0.930 . S
C2220 C2218 1.356 . S
C2220 C2221 1.348 . S
C2221 C2216 1.353 . S
C2221 C2220 1.348 . S
C2221 H2273 0.929 . S
H2222 C2216 0.930 . S
H2223 C2219 0.930 . S
C2224 N2225 1.314 . S
C2224 C2226 1.353 . S
C2224 H2230 0.930 . S
N2225 Li2201 1.990 . S
N2225 C2224 1.314 . S
N2225 C2228 1.279 . S
C2226 C2224 1.353 . S
C2226 C2229 1.348 . S
C2226 H2274 0.929 . S
C2227 C2228 1.358 . S
C2227 C2229 1.356 . S
C2227 H2275 0.930 . S
C2228 N2225 1.279 . S
C2228 C2227 1.358 . S
C2228 H2231 0.930 . S
C2229 C2226 1.348 . S
C2229 C2227 1.356 . S
H2230 C2224 0.930 . S
H2231 C2228 0.930 . S
C2232 C2234 1.348 . S
C2232 C2235 1.356 . S
C2232 O2262 1.325 . S
N2233 C2236 1.314 . S
N2233 C2237 1.279 . S
C2234 C2232 1.348 . S
C2234 C2236 1.353 . S
C2234 H2276 0.929 . S
C2235 C2232 1.356 . S
C2235 C2237 1.358 . S
C2235 H2277 0.930 . S
C2236 N2233 1.314 . S
C2236 C2234 1.353 . S
C2236 H2278 0.930 . S
C2237 N2233 1.279 . S
C2237 C2235 1.358 . S
C2237 H2279 0.930 . S
C2238 C2239 1.348 . S
C2238 C2240 1.356 . S
C2238 O2263 1.325 . S
C2239 C2238 1.348 . S
C2239 C2241 1.353 . S
C2239 H2280 0.929 . S
C2240 C2238 1.356 . S
C2240 C2242 1.358 . S
C2240 H2281 0.930 . S
C2241 C2239 1.353 . S
C2241 N2243 1.314 . S
C2241 H2282 0.930 . S
C2242 C2240 1.358 . S
C2242 N2243 1.279 . S
C2242 H2283 0.930 . S
N2243 C2241 1.314 . S
N2243 C2242 1.279 . S
C2244 C2246 1.353 . S
C2244 N2247 1.314 . S
C2244 H2250 0.930 . S
C2245 N2247 1.279 . S
C2245 C2248 1.358 . S
C2245 H2251 0.930 . S
C2246 C2244 1.353 . S
C2246 C2249 1.348 . S
C2246 H2284 0.929 . S
N2247 Li2202 1.990 . S
N2247 C2244 1.314 . S
N2247 C2245 1.279 . S
C2248 C2245 1.358 . S
C2248 C2249 1.356 . S
C2248 H2285 0.930 . S
C2249 C2246 1.348 . S
C2249 C2248 1.356 . S
H2250 C2244 0.930 . S
H2251 C2245 0.930 . S
C2252 N2253 1.314 . S
C2252 C2254 1.353 . S
C2252 H2258 0.930 . S
N2253 Li2203 1.990 . S
N2253 C2252 1.314 . S
N2253 C2256 1.279 . S
C2254 C2252 1.353 . S
C2254 C2257 1.348 . S
C2254 H2286 0.929 . S
C2255 C2256 1.358 . S
C2255 C2257 1.356 . S
C2255 H2287 0.930 . S
C2256 N2253 1.279 . S
C2256 C2255 1.358 . S
C2256 H2259 0.930 . S
C2257 C2254 1.348 . S
C2257 C2255 1.356 . S
H2258 C2252 0.930 . S
H2259 C2256 0.930 . S
O2260 Li2200 1.956 . S
O2260 Li2201 1.970 . S
O2260 Li2202 1.961 . S
O2260 C2204 1.325 . S
O2261 Li2200 1.970 . S
O2261 Li2201 1.956 . S
O2261 Li2203 1.961 . S
O2261 C2210 1.325 . S
O2262 Li2200 1.961 . S
O2262 Li2202 1.956 . S
O2262 Li2203 1.970 . S
O2262 C2232 1.325 . S
O2263 Li2201 1.961 . S
O2263 Li2202 1.970 . S
O2263 Li2203 1.956 . S
O2263 C2238 1.325 . S
H2264 C2206 0.929 . S
H2265 C2207 0.930 . S
H2266 C2208 0.930 . S
H2267 C2209 0.930 . S
H2268 C2211 0.930 . S
H2269 C2213 0.929 . S
H2270 C2214 0.930 . S
H2271 C2215 0.930 . S
H2272 C2218 0.930 . S
H2273 C2221 0.929 . S
H2274 C2226 0.929 . S
H2275 C2227 0.930 . S
H2276 C2234 0.929 . S
H2277 C2235 0.930 . S
H2278 C2236 0.930 . S
H2279 C2237 0.930 . S
H2280 C2239 0.929 . S
H2281 C2240 0.930 . S
H2282 C2241 0.930 . S
H2283 C2242 0.930 . S
H2284 C2246 0.929 . S
H2285 C2248 0.930 . S
H2286 C2254 0.929 . S
H2287 C2255 0.930 . S
Li2288 N2305 1.990 . S
Li2288 O2348 1.956 . S
Li2288 O2349 1.970 . S
Li2288 O2350 1.961 . S
Li2289 N2313 1.990 . S
Li2289 O2348 1.970 . S
Li2289 O2349 1.956 . S
Li2289 O2351 1.961 . S
Li2290 N2335 1.990 . S
Li2290 O2348 1.961 . S
Li2290 O2350 1.956 . S
Li2290 O2351 1.970 . S
Li2291 N2341 1.990 . S
Li2291 O2349 1.961 . S
Li2291 O2350 1.970 . S
Li2291 O2351 1.956 . S
C2292 C2294 1.348 . S
C2292 C2295 1.356 . S
C2292 O2348 1.325 . S
N2293 C2296 1.314 . S
N2293 C2297 1.279 . S
C2294 C2292 1.348 . S
C2294 C2296 1.353 . S
C2294 H2352 0.929 . S
C2295 C2292 1.356 . S
C2295 C2297 1.358 . S
C2295 H2353 0.930 . S
C2296 N2293 1.314 . S
C2296 C2294 1.353 . S
C2296 H2354 0.930 . S
C2297 N2293 1.279 . S
C2297 C2295 1.358 . S
C2297 H2355 0.930 . S
C2298 C2301 1.348 . S
C2298 C2302 1.356 . S
C2298 O2349 1.325 . S
C2299 N2300 1.279 . S
C2299 C2302 1.358 . S
C2299 H2356 0.930 . S
N2300 C2299 1.279 . S
N2300 C2303 1.314 . S
C2301 C2298 1.348 . S
C2301 C2303 1.353 . S
C2301 H2357 0.929 . S
C2302 C2298 1.356 . S
C2302 C2299 1.358 . S
C2302 H2358 0.930 . S
C2303 N2300 1.314 . S
C2303 C2301 1.353 . S
C2303 H2359 0.930 . S
C2304 N2305 1.314 . S
C2304 C2309 1.353 . S
C2304 H2310 0.930 . S
N2305 Li2288 1.990 . S
N2305 C2304 1.314 . S
N2305 C2307 1.279 . S
C2306 C2307 1.358 . S
C2306 C2308 1.356 . S
C2306 H2360 0.930 . S
C2307 N2305 1.279 . S
C2307 C2306 1.358 . S
C2307 H2311 0.930 . S
C2308 C2306 1.356 . S
C2308 C2309 1.348 . S
C2309 C2304 1.353 . S
C2309 C2308 1.348 . S
C2309 H2361 0.929 . S
H2310 C2304 0.930 . S
H2311 C2307 0.930 . S
C2312 N2313 1.314 . S
C2312 C2314 1.353 . S
C2312 H2318 0.930 . S
N2313 Li2289 1.990 . S
N2313 C2312 1.314 . S
N2313 C2316 1.279 . S
C2314 C2312 1.353 . S
C2314 C2317 1.348 . S
C2314 H2362 0.929 . S
C2315 C2316 1.358 . S
C2315 C2317 1.356 . S
C2315 H2363 0.930 . S
C2316 N2313 1.279 . S
C2316 C2315 1.358 . S
C2316 H2319 0.930 . S
C2317 C2314 1.348 . S
C2317 C2315 1.356 . S
H2318 C2312 0.930 . S
H2319 C2316 0.930 . S
C2320 C2322 1.348 . S
C2320 C2323 1.356 . S
C2320 O2350 1.325 . S
N2321 C2324 1.314 . S
N2321 C2325 1.279 . S
C2322 C2320 1.348 . S
C2322 C2324 1.353 . S
C2322 H2364 0.929 . S
C2323 C2320 1.356 . S
C2323 C2325 1.358 . S
C2323 H2365 0.930 . S
C2324 N2321 1.314 . S
C2324 C2322 1.353 . S
C2324 H2366 0.930 . S
C2325 N2321 1.279 . S
C2325 C2323 1.358 . S
C2325 H2367 0.930 . S
C2326 C2327 1.348 . S
C2326 C2328 1.356 . S
C2326 O2351 1.325 . S
C2327 C2326 1.348 . S
C2327 C2329 1.353 . S
C2327 H2368 0.929 . S
C2328 C2326 1.356 . S
C2328 C2330 1.358 . S
C2328 H2369 0.930 . S
C2329 C2327 1.353 . S
C2329 N2331 1.314 . S
C2329 H2370 0.930 . S
C2330 C2328 1.358 . S
C2330 N2331 1.279 . S
C2330 H2371 0.930 . S
N2331 C2329 1.314 . S
N2331 C2330 1.279 . S
C2332 C2334 1.353 . S
C2332 N2335 1.314 . S
C2332 H2338 0.930 . S
C2333 N2335 1.279 . S
C2333 C2336 1.358 . S
C2333 H2339 0.930 . S
C2334 C2332 1.353 . S
C2334 C2337 1.348 . S
C2334 H2372 0.929 . S
N2335 Li2290 1.990 . S
N2335 C2332 1.314 . S
N2335 C2333 1.279 . S
C2336 C2333 1.358 . S
C2336 C2337 1.356 . S
C2336 H2373 0.930 . S
C2337 C2334 1.348 . S
C2337 C2336 1.356 . S
H2338 C2332 0.930 . S
H2339 C2333 0.930 . S
C2340 N2341 1.314 . S
C2340 C2342 1.353 . S
C2340 H2346 0.930 . S
N2341 Li2291 1.990 . S
N2341 C2340 1.314 . S
N2341 C2344 1.279 . S
C2342 C2340 1.353 . S
C2342 C2345 1.348 . S
C2342 H2374 0.929 . S
C2343 C2344 1.358 . S
C2343 C2345 1.356 . S
C2343 H2375 0.930 . S
C2344 N2341 1.279 . S
C2344 C2343 1.358 . S
C2344 H2347 0.930 . S
C2345 C2342 1.348 . S
C2345 C2343 1.356 . S
H2346 C2340 0.930 . S
H2347 C2344 0.930 . S
O2348 Li2288 1.956 . S
O2348 Li2289 1.970 . S
O2348 Li2290 1.961 . S
O2348 C2292 1.325 . S
O2349 Li2288 1.970 . S
O2349 Li2289 1.956 . S
O2349 Li2291 1.961 . S
O2349 C2298 1.325 . S
O2350 Li2288 1.961 . S
O2350 Li2290 1.956 . S
O2350 Li2291 1.970 . S
O2350 C2320 1.325 . S
O2351 Li2289 1.961 . S
O2351 Li2290 1.970 . S
O2351 Li2291 1.956 . S
O2351 C2326 1.325 . S
H2352 C2294 0.929 . S
H2353 C2295 0.930 . S
H2354 C2296 0.930 . S
H2355 C2297 0.930 . S
H2356 C2299 0.930 . S
H2357 C2301 0.929 . S
H2358 C2302 0.930 . S
H2359 C2303 0.930 . S
H2360 C2306 0.930 . S
H2361 C2309 0.929 . S
H2362 C2314 0.929 . S
H2363 C2315 0.930 . S
H2364 C2322 0.929 . S
H2365 C2323 0.930 . S
H2366 C2324 0.930 . S
H2367 C2325 0.930 . S
H2368 C2327 0.929 . S
H2369 C2328 0.930 . S
H2370 C2329 0.930 . S
H2371 C2330 0.930 . S
H2372 C2334 0.929 . S
H2373 C2336 0.930 . S
H2374 C2342 0.929 . S
H2375 C2343 0.930 . S
Li2376 N2393 1.990 . S
Li2376 O2436 1.956 . S
Li2376 O2437 1.970 . S
Li2376 O2438 1.961 . S
Li2377 N2401 1.990 . S
Li2377 O2436 1.970 . S
Li2377 O2437 1.956 . S
Li2377 O2439 1.961 . S
Li2378 N2423 1.990 . S
Li2378 O2436 1.961 . S
Li2378 O2438 1.956 . S
Li2378 O2439 1.970 . S
Li2379 N2429 1.990 . S
Li2379 O2437 1.961 . S
Li2379 O2438 1.970 . S
Li2379 O2439 1.956 . S
C2380 C2382 1.348 . S
C2380 C2383 1.356 . S
C2380 O2436 1.325 . S
N2381 C2384 1.314 . S
N2381 C2385 1.279 . S
C2382 C2380 1.348 . S
C2382 C2384 1.353 . S
C2382 H2440 0.929 . S
C2383 C2380 1.356 . S
C2383 C2385 1.358 . S
C2383 H2441 0.930 . S
C2384 N2381 1.314 . S
C2384 C2382 1.353 . S
C2384 H2442 0.930 . S
C2385 N2381 1.279 . S
C2385 C2383 1.358 . S
C2385 H2443 0.930 . S
C2386 C2389 1.348 . S
C2386 C2390 1.356 . S
C2386 O2437 1.325 . S
C2387 N2388 1.279 . S
C2387 C2390 1.358 . S
C2387 H2444 0.930 . S
N2388 C2387 1.279 . S
N2388 C2391 1.314 . S
C2389 C2386 1.348 . S
C2389 C2391 1.353 . S
C2389 H2445 0.929 . S
C2390 C2386 1.356 . S
C2390 C2387 1.358 . S
C2390 H2446 0.930 . S
C2391 N2388 1.314 . S
C2391 C2389 1.353 . S
C2391 H2447 0.930 . S
C2392 N2393 1.314 . S
C2392 C2397 1.353 . S
C2392 H2398 0.930 . S
N2393 Li2376 1.990 . S
N2393 C2392 1.314 . S
N2393 C2395 1.279 . S
C2394 C2395 1.358 . S
C2394 C2396 1.356 . S
C2394 H2448 0.930 . S
C2395 N2393 1.279 . S
C2395 C2394 1.358 . S
C2395 H2399 0.930 . S
C2396 C2394 1.356 . S
C2396 C2397 1.348 . S
C2397 C2392 1.353 . S
C2397 C2396 1.348 . S
C2397 H2449 0.929 . S
H2398 C2392 0.930 . S
H2399 C2395 0.930 . S
C2400 N2401 1.314 . S
C2400 C2402 1.353 . S
C2400 H2406 0.930 . S
N2401 Li2377 1.990 . S
N2401 C2400 1.314 . S
N2401 C2404 1.279 . S
C2402 C2400 1.353 . S
C2402 C2405 1.348 . S
C2402 H2450 0.929 . S
C2403 C2404 1.358 . S
C2403 C2405 1.356 . S
C2403 H2451 0.930 . S
C2404 N2401 1.279 . S
C2404 C2403 1.358 . S
C2404 H2407 0.930 . S
C2405 C2402 1.348 . S
C2405 C2403 1.356 . S
H2406 C2400 0.930 . S
H2407 C2404 0.930 . S
C2408 C2410 1.348 . S
C2408 C2411 1.356 . S
C2408 O2438 1.325 . S
N2409 C2412 1.314 . S
N2409 C2413 1.279 . S
C2410 C2408 1.348 . S
C2410 C2412 1.353 . S
C2410 H2452 0.929 . S
C2411 C2408 1.356 . S
C2411 C2413 1.358 . S
C2411 H2453 0.930 . S
C2412 N2409 1.314 . S
C2412 C2410 1.353 . S
C2412 H2454 0.930 . S
C2413 N2409 1.279 . S
C2413 C2411 1.358 . S
C2413 H2455 0.930 . S
C2414 C2415 1.348 . S
C2414 C2416 1.356 . S
C2414 O2439 1.325 . S
C2415 C2414 1.348 . S
C2415 C2417 1.353 . S
C2415 H2456 0.929 . S
C2416 C2414 1.356 . S
C2416 C2418 1.358 . S
C2416 H2457 0.930 . S
C2417 C2415 1.353 . S
C2417 N2419 1.314 . S
C2417 H2458 0.930 . S
C2418 C2416 1.358 . S
C2418 N2419 1.279 . S
C2418 H2459 0.930 . S
N2419 C2417 1.314 . S
N2419 C2418 1.279 . S
C2420 C2422 1.353 . S
C2420 N2423 1.314 . S
C2420 H2426 0.930 . S
C2421 N2423 1.279 . S
C2421 C2424 1.358 . S
C2421 H2427 0.930 . S
C2422 C2420 1.353 . S
C2422 C2425 1.348 . S
C2422 H2460 0.929 . S
N2423 Li2378 1.990 . S
N2423 C2420 1.314 . S
N2423 C2421 1.279 . S
C2424 C2421 1.358 . S
C2424 C2425 1.356 . S
C2424 H2461 0.930 . S
C2425 C2422 1.348 . S
C2425 C2424 1.356 . S
H2426 C2420 0.930 . S
H2427 C2421 0.930 . S
C2428 N2429 1.314 . S
C2428 C2430 1.353 . S
C2428 H2434 0.930 . S
N2429 Li2379 1.990 . S
N2429 C2428 1.314 . S
N2429 C2432 1.279 . S
C2430 C2428 1.353 . S
C2430 C2433 1.348 . S
C2430 H2462 0.929 . S
C2431 C2432 1.358 . S
C2431 C2433 1.356 . S
C2431 H2463 0.930 . S
C2432 N2429 1.279 . S
C2432 C2431 1.358 . S
C2432 H2435 0.930 . S
C2433 C2430 1.348 . S
C2433 C2431 1.356 . S
H2434 C2428 0.930 . S
H2435 C2432 0.930 . S
O2436 Li2376 1.956 . S
O2436 Li2377 1.970 . S
O2436 Li2378 1.961 . S
O2436 C2380 1.325 . S
O2437 Li2376 1.970 . S
O2437 Li2377 1.956 . S
O2437 Li2379 1.961 . S
O2437 C2386 1.325 . S
O2438 Li2376 1.961 . S
O2438 Li2378 1.956 . S
O2438 Li2379 1.970 . S
O2438 C2408 1.325 . S
O2439 Li2377 1.961 . S
O2439 Li2378 1.970 . S
O2439 Li2379 1.956 . S
O2439 C2414 1.325 . S
H2440 C2382 0.929 . S
H2441 C2383 0.930 . S
H2442 C2384 0.930 . S
H2443 C2385 0.930 . S
H2444 C2387 0.930 . S
H2445 C2389 0.929 . S
H2446 C2390 0.930 . S
H2447 C2391 0.930 . S
H2448 C2394 0.930 . S
H2449 C2397 0.929 . S
H2450 C2402 0.929 . S
H2451 C2403 0.930 . S
H2452 C2410 0.929 . S
H2453 C2411 0.930 . S
H2454 C2412 0.930 . S
H2455 C2413 0.930 . S
H2456 C2415 0.929 . S
H2457 C2416 0.930 . S
H2458 C2417 0.930 . S
H2459 C2418 0.930 . S
H2460 C2422 0.929 . S
H2461 C2424 0.930 . S
H2462 C2430 0.929 . S
H2463 C2431 0.930 . S
Li2464 N2481 1.990 . S
Li2464 O2524 1.956 . S
Li2464 O2525 1.970 . S
Li2464 O2526 1.961 . S
Li2465 N2489 1.990 . S
Li2465 O2524 1.970 . S
Li2465 O2525 1.956 . S
Li2465 O2527 1.961 . S
Li2466 N2511 1.990 . S
Li2466 O2524 1.961 . S
Li2466 O2526 1.956 . S
Li2466 O2527 1.970 . S
Li2467 N2517 1.990 . S
Li2467 O2525 1.961 . S
Li2467 O2526 1.970 . S
Li2467 O2527 1.956 . S
C2468 C2470 1.348 . S
C2468 C2471 1.356 . S
C2468 O2524 1.325 . S
N2469 C2472 1.314 . S
N2469 C2473 1.279 . S
C2470 C2468 1.348 . S
C2470 C2472 1.353 . S
C2470 H2528 0.929 . S
C2471 C2468 1.356 . S
C2471 C2473 1.358 . S
C2471 H2529 0.930 . S
C2472 N2469 1.314 . S
C2472 C2470 1.353 . S
C2472 H2530 0.930 . S
C2473 N2469 1.279 . S
C2473 C2471 1.358 . S
C2473 H2531 0.930 . S
C2474 C2477 1.348 . S
C2474 C2478 1.356 . S
C2474 O2525 1.325 . S
C2475 N2476 1.279 . S
C2475 C2478 1.358 . S
C2475 H2532 0.930 . S
N2476 C2475 1.279 . S
N2476 C2479 1.314 . S
C2477 C2474 1.348 . S
C2477 C2479 1.353 . S
C2477 H2533 0.929 . S
C2478 C2474 1.356 . S
C2478 C2475 1.358 . S
C2478 H2534 0.930 . S
C2479 N2476 1.314 . S
C2479 C2477 1.353 . S
C2479 H2535 0.930 . S
C2480 N2481 1.314 . S
C2480 C2485 1.353 . S
C2480 H2486 0.930 . S
N2481 Li2464 1.990 . S
N2481 C2480 1.314 . S
N2481 C2483 1.279 . S
C2482 C2483 1.358 . S
C2482 C2484 1.356 . S
C2482 H2536 0.930 . S
C2483 N2481 1.279 . S
C2483 C2482 1.358 . S
C2483 H2487 0.930 . S
C2484 C2482 1.356 . S
C2484 C2485 1.348 . S
C2485 C2480 1.353 . S
C2485 C2484 1.348 . S
C2485 H2537 0.929 . S
H2486 C2480 0.930 . S
H2487 C2483 0.930 . S
C2488 N2489 1.314 . S
C2488 C2490 1.353 . S
C2488 H2494 0.930 . S
N2489 Li2465 1.990 . S
N2489 C2488 1.314 . S
N2489 C2492 1.279 . S
C2490 C2488 1.353 . S
C2490 C2493 1.348 . S
C2490 H2538 0.929 . S
C2491 C2492 1.358 . S
C2491 C2493 1.356 . S
C2491 H2539 0.930 . S
C2492 N2489 1.279 . S
C2492 C2491 1.358 . S
C2492 H2495 0.930 . S
C2493 C2490 1.348 . S
C2493 C2491 1.356 . S
H2494 C2488 0.930 . S
H2495 C2492 0.930 . S
C2496 C2498 1.348 . S
C2496 C2499 1.356 . S
C2496 O2526 1.325 . S
N2497 C2500 1.314 . S
N2497 C2501 1.279 . S
C2498 C2496 1.348 . S
C2498 C2500 1.353 . S
C2498 H2540 0.929 . S
C2499 C2496 1.356 . S
C2499 C2501 1.358 . S
C2499 H2541 0.930 . S
C2500 N2497 1.314 . S
C2500 C2498 1.353 . S
C2500 H2542 0.930 . S
C2501 N2497 1.279 . S
C2501 C2499 1.358 . S
C2501 H2543 0.930 . S
C2502 C2503 1.348 . S
C2502 C2504 1.356 . S
C2502 O2527 1.325 . S
C2503 C2502 1.348 . S
C2503 C2505 1.353 . S
C2503 H2544 0.929 . S
C2504 C2502 1.356 . S
C2504 C2506 1.358 . S
C2504 H2545 0.930 . S
C2505 C2503 1.353 . S
C2505 N2507 1.314 . S
C2505 H2546 0.930 . S
C2506 C2504 1.358 . S
C2506 N2507 1.279 . S
C2506 H2547 0.930 . S
N2507 C2505 1.314 . S
N2507 C2506 1.279 . S
C2508 C2510 1.353 . S
C2508 N2511 1.314 . S
C2508 H2514 0.930 . S
C2509 N2511 1.279 . S
C2509 C2512 1.358 . S
C2509 H2515 0.930 . S
C2510 C2508 1.353 . S
C2510 C2513 1.348 . S
C2510 H2548 0.929 . S
N2511 Li2466 1.990 . S
N2511 C2508 1.314 . S
N2511 C2509 1.279 . S
C2512 C2509 1.358 . S
C2512 C2513 1.356 . S
C2512 H2549 0.930 . S
C2513 C2510 1.348 . S
C2513 C2512 1.356 . S
H2514 C2508 0.930 . S
H2515 C2509 0.930 . S
C2516 N2517 1.314 . S
C2516 C2518 1.353 . S
C2516 H2522 0.930 . S
N2517 Li2467 1.990 . S
N2517 C2516 1.314 . S
N2517 C2520 1.279 . S
C2518 C2516 1.353 . S
C2518 C2521 1.348 . S
C2518 H2550 0.929 . S
C2519 C2520 1.358 . S
C2519 C2521 1.356 . S
C2519 H2551 0.930 . S
C2520 N2517 1.279 . S
C2520 C2519 1.358 . S
C2520 H2523 0.930 . S
C2521 C2518 1.348 . S
C2521 C2519 1.356 . S
H2522 C2516 0.930 . S
H2523 C2520 0.930 . S
O2524 Li2464 1.956 . S
O2524 Li2465 1.970 . S
O2524 Li2466 1.961 . S
O2524 C2468 1.325 . S
O2525 Li2464 1.970 . S
O2525 Li2465 1.956 . S
O2525 Li2467 1.961 . S
O2525 C2474 1.325 . S
O2526 Li2464 1.961 . S
O2526 Li2466 1.956 . S
O2526 Li2467 1.970 . S
O2526 C2496 1.325 . S
O2527 Li2465 1.961 . S
O2527 Li2466 1.970 . S
O2527 Li2467 1.956 . S
O2527 C2502 1.325 . S
H2528 C2470 0.929 . S
H2529 C2471 0.930 . S
H2530 C2472 0.930 . S
H2531 C2473 0.930 . S
H2532 C2475 0.930 . S
H2533 C2477 0.929 . S
H2534 C2478 0.930 . S
H2535 C2479 0.930 . S
H2536 C2482 0.930 . S
H2537 C2485 0.929 . S
H2538 C2490 0.929 . S
H2539 C2491 0.930 . S
H2540 C2498 0.929 . S
H2541 C2499 0.930 . S
H2542 C2500 0.930 . S
H2543 C2501 0.930 . S
H2544 C2503 0.929 . S
H2545 C2504 0.930 . S
H2546 C2505 0.930 . S
H2547 C2506 0.930 . S
H2548 C2510 0.929 . S
H2549 C2512 0.930 . S
H2550 C2518 0.929 . S
H2551 C2519 0.930 . S
Li2552 N2569 1.990 . S
Li2552 O2612 1.956 . S
Li2552 O2613 1.970 . S
Li2552 O2614 1.961 . S
Li2553 N2577 1.990 . S
Li2553 O2612 1.970 . S
Li2553 O2613 1.956 . S
Li2553 O2615 1.961 . S
Li2554 N2599 1.990 . S
Li2554 O2612 1.961 . S
Li2554 O2614 1.956 . S
Li2554 O2615 1.970 . S
Li2555 N2605 1.990 . S
Li2555 O2613 1.961 . S
Li2555 O2614 1.970 . S
Li2555 O2615 1.956 . S
C2556 C2558 1.348 . S
C2556 C2559 1.356 . S
C2556 O2612 1.325 . S
N2557 C2560 1.314 . S
N2557 C2561 1.279 . S
C2558 C2556 1.348 . S
C2558 C2560 1.353 . S
C2558 H2616 0.929 . S
C2559 C2556 1.356 . S
C2559 C2561 1.358 . S
C2559 H2617 0.930 . S
C2560 N2557 1.314 . S
C2560 C2558 1.353 . S
C2560 H2618 0.930 . S
C2561 N2557 1.279 . S
C2561 C2559 1.358 . S
C2561 H2619 0.930 . S
C2562 C2565 1.348 . S
C2562 C2566 1.356 . S
C2562 O2613 1.325 . S
C2563 N2564 1.279 . S
C2563 C2566 1.358 . S
C2563 H2620 0.930 . S
N2564 C2563 1.279 . S
N2564 C2567 1.314 . S
C2565 C2562 1.348 . S
C2565 C2567 1.353 . S
C2565 H2621 0.929 . S
C2566 C2562 1.356 . S
C2566 C2563 1.358 . S
C2566 H2622 0.930 . S
C2567 N2564 1.314 . S
C2567 C2565 1.353 . S
C2567 H2623 0.930 . S
C2568 N2569 1.314 . S
C2568 C2573 1.353 . S
C2568 H2574 0.930 . S
N2569 Li2552 1.990 . S
N2569 C2568 1.314 . S
N2569 C2571 1.279 . S
C2570 C2571 1.358 . S
C2570 C2572 1.356 . S
C2570 H2624 0.930 . S
C2571 N2569 1.279 . S
C2571 C2570 1.358 . S
C2571 H2575 0.930 . S
C2572 C2570 1.356 . S
C2572 C2573 1.348 . S
C2573 C2568 1.353 . S
C2573 C2572 1.348 . S
C2573 H2625 0.929 . S
H2574 C2568 0.930 . S
H2575 C2571 0.930 . S
C2576 N2577 1.314 . S
C2576 C2578 1.353 . S
C2576 H2582 0.930 . S
N2577 Li2553 1.990 . S
N2577 C2576 1.314 . S
N2577 C2580 1.279 . S
C2578 C2576 1.353 . S
C2578 C2581 1.348 . S
C2578 H2626 0.929 . S
C2579 C2580 1.358 . S
C2579 C2581 1.356 . S
C2579 H2627 0.930 . S
C2580 N2577 1.279 . S
C2580 C2579 1.358 . S
C2580 H2583 0.930 . S
C2581 C2578 1.348 . S
C2581 C2579 1.356 . S
H2582 C2576 0.930 . S
H2583 C2580 0.930 . S
C2584 C2586 1.348 . S
C2584 C2587 1.356 . S
C2584 O2614 1.325 . S
N2585 C2588 1.314 . S
N2585 C2589 1.279 . S
C2586 C2584 1.348 . S
C2586 C2588 1.353 . S
C2586 H2628 0.929 . S
C2587 C2584 1.356 . S
C2587 C2589 1.358 . S
C2587 H2629 0.930 . S
C2588 N2585 1.314 . S
C2588 C2586 1.353 . S
C2588 H2630 0.930 . S
C2589 N2585 1.279 . S
C2589 C2587 1.358 . S
C2589 H2631 0.930 . S
C2590 C2591 1.348 . S
C2590 C2592 1.356 . S
C2590 O2615 1.325 . S
C2591 C2590 1.348 . S
C2591 C2593 1.353 . S
C2591 H2632 0.929 . S
C2592 C2590 1.356 . S
C2592 C2594 1.358 . S
C2592 H2633 0.930 . S
C2593 C2591 1.353 . S
C2593 N2595 1.314 . S
C2593 H2634 0.930 . S
C2594 C2592 1.358 . S
C2594 N2595 1.279 . S
C2594 H2635 0.930 . S
N2595 C2593 1.314 . S
N2595 C2594 1.279 . S
C2596 C2598 1.353 . S
C2596 N2599 1.314 . S
C2596 H2602 0.930 . S
C2597 N2599 1.279 . S
C2597 C2600 1.358 . S
C2597 H2603 0.930 . S
C2598 C2596 1.353 . S
C2598 C2601 1.348 . S
C2598 H2636 0.929 . S
N2599 Li2554 1.990 . S
N2599 C2596 1.314 . S
N2599 C2597 1.279 . S
C2600 C2597 1.358 . S
C2600 C2601 1.356 . S
C2600 H2637 0.930 . S
C2601 C2598 1.348 . S
C2601 C2600 1.356 . S
H2602 C2596 0.930 . S
H2603 C2597 0.930 . S
C2604 N2605 1.314 . S
C2604 C2606 1.353 . S
C2604 H2610 0.930 . S
N2605 Li2555 1.990 . S
N2605 C2604 1.314 . S
N2605 C2608 1.279 . S
C2606 C2604 1.353 . S
C2606 C2609 1.348 . S
C2606 H2638 0.929 . S
C2607 C2608 1.358 . S
C2607 C2609 1.356 . S
C2607 H2639 0.930 . S
C2608 N2605 1.279 . S
C2608 C2607 1.358 . S
C2608 H2611 0.930 . S
C2609 C2606 1.348 . S
C2609 C2607 1.356 . S
H2610 C2604 0.930 . S
H2611 C2608 0.930 . S
O2612 Li2552 1.956 . S
O2612 Li2553 1.970 . S
O2612 Li2554 1.961 . S
O2612 C2556 1.325 . S
O2613 Li2552 1.970 . S
O2613 Li2553 1.956 . S
O2613 Li2555 1.961 . S
O2613 C2562 1.325 . S
O2614 Li2552 1.961 . S
O2614 Li2554 1.956 . S
O2614 Li2555 1.970 . S
O2614 C2584 1.325 . S
O2615 Li2553 1.961 . S
O2615 Li2554 1.970 . S
O2615 Li2555 1.956 . S
O2615 C2590 1.325 . S
H2616 C2558 0.929 . S
H2617 C2559 0.930 . S
H2618 C2560 0.930 . S
H2619 C2561 0.930 . S
H2620 C2563 0.930 . S
H2621 C2565 0.929 . S
H2622 C2566 0.930 . S
H2623 C2567 0.930 . S
H2624 C2570 0.930 . S
H2625 C2573 0.929 . S
H2626 C2578 0.929 . S
H2627 C2579 0.930 . S
H2628 C2586 0.929 . S
H2629 C2587 0.930 . S
H2630 C2588 0.930 . S
H2631 C2589 0.930 . S
H2632 C2591 0.929 . S
H2633 C2592 0.930 . S
H2634 C2593 0.930 . S
H2635 C2594 0.930 . S
H2636 C2598 0.929 . S
H2637 C2600 0.930 . S
H2638 C2606 0.929 . S
H2639 C2607 0.930 . S
Li2640 N2657 1.990 . S
Li2640 O2700 1.956 . S
Li2640 O2701 1.970 . S
Li2640 O2702 1.961 . S
Li2641 N2665 1.990 . S
Li2641 O2700 1.970 . S
Li2641 O2701 1.956 . S
Li2641 O2703 1.961 . S
Li2642 N2687 1.990 . S
Li2642 O2700 1.961 . S
Li2642 O2702 1.956 . S
Li2642 O2703 1.970 . S
Li2643 N2693 1.990 . S
Li2643 O2701 1.961 . S
Li2643 O2702 1.970 . S
Li2643 O2703 1.956 . S
C2644 C2646 1.348 . S
C2644 C2647 1.356 . S
C2644 O2700 1.325 . S
N2645 C2648 1.314 . S
N2645 C2649 1.279 . S
C2646 C2644 1.348 . S
C2646 C2648 1.353 . S
C2646 H2704 0.929 . S
C2647 C2644 1.356 . S
C2647 C2649 1.358 . S
C2647 H2705 0.930 . S
C2648 N2645 1.314 . S
C2648 C2646 1.353 . S
C2648 H2706 0.930 . S
C2649 N2645 1.279 . S
C2649 C2647 1.358 . S
C2649 H2707 0.930 . S
C2650 C2653 1.348 . S
C2650 C2654 1.356 . S
C2650 O2701 1.325 . S
C2651 N2652 1.279 . S
C2651 C2654 1.358 . S
C2651 H2708 0.930 . S
N2652 C2651 1.279 . S
N2652 C2655 1.314 . S
C2653 C2650 1.348 . S
C2653 C2655 1.353 . S
C2653 H2709 0.929 . S
C2654 C2650 1.356 . S
C2654 C2651 1.358 . S
C2654 H2710 0.930 . S
C2655 N2652 1.314 . S
C2655 C2653 1.353 . S
C2655 H2711 0.930 . S
C2656 N2657 1.314 . S
C2656 C2661 1.353 . S
C2656 H2662 0.930 . S
N2657 Li2640 1.990 . S
N2657 C2656 1.314 . S
N2657 C2659 1.279 . S
C2658 C2659 1.358 . S
C2658 C2660 1.356 . S
C2658 H2712 0.930 . S
C2659 N2657 1.279 . S
C2659 C2658 1.358 . S
C2659 H2663 0.930 . S
C2660 C2658 1.356 . S
C2660 C2661 1.348 . S
C2661 C2656 1.353 . S
C2661 C2660 1.348 . S
C2661 H2713 0.929 . S
H2662 C2656 0.930 . S
H2663 C2659 0.930 . S
C2664 N2665 1.314 . S
C2664 C2666 1.353 . S
C2664 H2670 0.930 . S
N2665 Li2641 1.990 . S
N2665 C2664 1.314 . S
N2665 C2668 1.279 . S
C2666 C2664 1.353 . S
C2666 C2669 1.348 . S
C2666 H2714 0.929 . S
C2667 C2668 1.358 . S
C2667 C2669 1.356 . S
C2667 H2715 0.930 . S
C2668 N2665 1.279 . S
C2668 C2667 1.358 . S
C2668 H2671 0.930 . S
C2669 C2666 1.348 . S
C2669 C2667 1.356 . S
H2670 C2664 0.930 . S
H2671 C2668 0.930 . S
C2672 C2674 1.348 . S
C2672 C2675 1.356 . S
C2672 O2702 1.325 . S
N2673 C2676 1.314 . S
N2673 C2677 1.279 . S
C2674 C2672 1.348 . S
C2674 C2676 1.353 . S
C2674 H2716 0.929 . S
C2675 C2672 1.356 . S
C2675 C2677 1.358 . S
C2675 H2717 0.930 . S
C2676 N2673 1.314 . S
C2676 C2674 1.353 . S
C2676 H2718 0.930 . S
C2677 N2673 1.279 . S
C2677 C2675 1.358 . S
C2677 H2719 0.930 . S
C2678 C2679 1.348 . S
C2678 C2680 1.356 . S
C2678 O2703 1.325 . S
C2679 C2678 1.348 . S
C2679 C2681 1.353 . S
C2679 H2720 0.929 . S
C2680 C2678 1.356 . S
C2680 C2682 1.358 . S
C2680 H2721 0.930 . S
C2681 C2679 1.353 . S
C2681 N2683 1.314 . S
C2681 H2722 0.930 . S
C2682 C2680 1.358 . S
C2682 N2683 1.279 . S
C2682 H2723 0.930 . S
N2683 C2681 1.314 . S
N2683 C2682 1.279 . S
C2684 C2686 1.353 . S
C2684 N2687 1.314 . S
C2684 H2690 0.930 . S
C2685 N2687 1.279 . S
C2685 C2688 1.358 . S
C2685 H2691 0.930 . S
C2686 C2684 1.353 . S
C2686 C2689 1.348 . S
C2686 H2724 0.929 . S
N2687 Li2642 1.990 . S
N2687 C2684 1.314 . S
N2687 C2685 1.279 . S
C2688 C2685 1.358 . S
C2688 C2689 1.356 . S
C2688 H2725 0.930 . S
C2689 C2686 1.348 . S
C2689 C2688 1.356 . S
H2690 C2684 0.930 . S
H2691 C2685 0.930 . S
C2692 N2693 1.314 . S
C2692 C2694 1.353 . S
C2692 H2698 0.930 . S
N2693 Li2643 1.990 . S
N2693 C2692 1.314 . S
N2693 C2696 1.279 . S
C2694 C2692 1.353 . S
C2694 C2697 1.348 . S
C2694 H2726 0.929 . S
C2695 C2696 1.358 . S
C2695 C2697 1.356 . S
C2695 H2727 0.930 . S
C2696 N2693 1.279 . S
C2696 C2695 1.358 . S
C2696 H2699 0.930 . S
C2697 C2694 1.348 . S
C2697 C2695 1.356 . S
H2698 C2692 0.930 . S
H2699 C2696 0.930 . S
O2700 Li2640 1.956 . S
O2700 Li2641 1.970 . S
O2700 Li2642 1.961 . S
O2700 C2644 1.325 . S
O2701 Li2640 1.970 . S
O2701 Li2641 1.956 . S
O2701 Li2643 1.961 . S
O2701 C2650 1.325 . S
O2702 Li2640 1.961 . S
O2702 Li2642 1.956 . S
O2702 Li2643 1.970 . S
O2702 C2672 1.325 . S
O2703 Li2641 1.961 . S
O2703 Li2642 1.970 . S
O2703 Li2643 1.956 . S
O2703 C2678 1.325 . S
H2704 C2646 0.929 . S
H2705 C2647 0.930 . S
H2706 C2648 0.930 . S
H2707 C2649 0.930 . S
H2708 C2651 0.930 . S
H2709 C2653 0.929 . S
H2710 C2654 0.930 . S
H2711 C2655 0.930 . S
H2712 C2658 0.930 . S
H2713 C2661 0.929 . S
H2714 C2666 0.929 . S
H2715 C2667 0.930 . S
H2716 C2674 0.929 . S
H2717 C2675 0.930 . S
H2718 C2676 0.930 . S
H2719 C2677 0.930 . S
H2720 C2679 0.929 . S
H2721 C2680 0.930 . S
H2722 C2681 0.930 . S
H2723 C2682 0.930 . S
H2724 C2686 0.929 . S
H2725 C2688 0.930 . S
H2726 C2694 0.929 . S
H2727 C2695 0.930 . S
Li2728 N2745 1.990 . S
Li2728 O2788 1.956 . S
Li2728 O2789 1.970 . S
Li2728 O2790 1.961 . S
Li2729 N2753 1.990 . S
Li2729 O2788 1.970 . S
Li2729 O2789 1.956 . S
Li2729 O2791 1.961 . S
Li2730 N2775 1.990 . S
Li2730 O2788 1.961 . S
Li2730 O2790 1.956 . S
Li2730 O2791 1.970 . S
Li2731 N2781 1.990 . S
Li2731 O2789 1.961 . S
Li2731 O2790 1.970 . S
Li2731 O2791 1.956 . S
C2732 C2734 1.348 . S
C2732 C2735 1.356 . S
C2732 O2788 1.325 . S
N2733 C2736 1.314 . S
N2733 C2737 1.279 . S
C2734 C2732 1.348 . S
C2734 C2736 1.353 . S
C2734 H2792 0.929 . S
C2735 C2732 1.356 . S
C2735 C2737 1.358 . S
C2735 H2793 0.930 . S
C2736 N2733 1.314 . S
C2736 C2734 1.353 . S
C2736 H2794 0.930 . S
C2737 N2733 1.279 . S
C2737 C2735 1.358 . S
C2737 H2795 0.930 . S
C2738 C2741 1.348 . S
C2738 C2742 1.356 . S
C2738 O2789 1.325 . S
C2739 N2740 1.279 . S
C2739 C2742 1.358 . S
C2739 H2796 0.930 . S
N2740 C2739 1.279 . S
N2740 C2743 1.314 . S
C2741 C2738 1.348 . S
C2741 C2743 1.353 . S
C2741 H2797 0.929 . S
C2742 C2738 1.356 . S
C2742 C2739 1.358 . S
C2742 H2798 0.930 . S
C2743 N2740 1.314 . S
C2743 C2741 1.353 . S
C2743 H2799 0.930 . S
C2744 N2745 1.314 . S
C2744 C2749 1.353 . S
C2744 H2750 0.930 . S
N2745 Li2728 1.990 . S
N2745 C2744 1.314 . S
N2745 C2747 1.279 . S
C2746 C2747 1.358 . S
C2746 C2748 1.356 . S
C2746 H2800 0.930 . S
C2747 N2745 1.279 . S
C2747 C2746 1.358 . S
C2747 H2751 0.930 . S
C2748 C2746 1.356 . S
C2748 C2749 1.348 . S
C2749 C2744 1.353 . S
C2749 C2748 1.348 . S
C2749 H2801 0.929 . S
H2750 C2744 0.930 . S
H2751 C2747 0.930 . S
C2752 N2753 1.314 . S
C2752 C2754 1.353 . S
C2752 H2758 0.930 . S
N2753 Li2729 1.990 . S
N2753 C2752 1.314 . S
N2753 C2756 1.279 . S
C2754 C2752 1.353 . S
C2754 C2757 1.348 . S
C2754 H2802 0.929 . S
C2755 C2756 1.358 . S
C2755 C2757 1.356 . S
C2755 H2803 0.930 . S
C2756 N2753 1.279 . S
C2756 C2755 1.358 . S
C2756 H2759 0.930 . S
C2757 C2754 1.348 . S
C2757 C2755 1.356 . S
H2758 C2752 0.930 . S
H2759 C2756 0.930 . S
C2760 C2762 1.348 . S
C2760 C2763 1.356 . S
C2760 O2790 1.325 . S
N2761 C2764 1.314 . S
N2761 C2765 1.279 . S
C2762 C2760 1.348 . S
C2762 C2764 1.353 . S
C2762 H2804 0.929 . S
C2763 C2760 1.356 . S
C2763 C2765 1.358 . S
C2763 H2805 0.930 . S
C2764 N2761 1.314 . S
C2764 C2762 1.353 . S
C2764 H2806 0.930 . S
C2765 N2761 1.279 . S
C2765 C2763 1.358 . S
C2765 H2807 0.930 . S
C2766 C2767 1.348 . S
C2766 C2768 1.356 . S
C2766 O2791 1.325 . S
C2767 C2766 1.348 . S
C2767 C2769 1.353 . S
C2767 H2808 0.929 . S
C2768 C2766 1.356 . S
C2768 C2770 1.358 . S
C2768 H2809 0.930 . S
C2769 C2767 1.353 . S
C2769 N2771 1.314 . S
C2769 H2810 0.930 . S
C2770 C2768 1.358 . S
C2770 N2771 1.279 . S
C2770 H2811 0.930 . S
N2771 C2769 1.314 . S
N2771 C2770 1.279 . S
C2772 C2774 1.353 . S
C2772 N2775 1.314 . S
C2772 H2778 0.930 . S
C2773 N2775 1.279 . S
C2773 C2776 1.358 . S
C2773 H2779 0.930 . S
C2774 C2772 1.353 . S
C2774 C2777 1.348 . S
C2774 H2812 0.929 . S
N2775 Li2730 1.990 . S
N2775 C2772 1.314 . S
N2775 C2773 1.279 . S
C2776 C2773 1.358 . S
C2776 C2777 1.356 . S
C2776 H2813 0.930 . S
C2777 C2774 1.348 . S
C2777 C2776 1.356 . S
H2778 C2772 0.930 . S
H2779 C2773 0.930 . S
C2780 N2781 1.314 . S
C2780 C2782 1.353 . S
C2780 H2786 0.930 . S
N2781 Li2731 1.990 . S
N2781 C2780 1.314 . S
N2781 C2784 1.279 . S
C2782 C2780 1.353 . S
C2782 C2785 1.348 . S
C2782 H2814 0.929 . S
C2783 C2784 1.358 . S
C2783 C2785 1.356 . S
C2783 H2815 0.930 . S
C2784 N2781 1.279 . S
C2784 C2783 1.358 . S
C2784 H2787 0.930 . S
C2785 C2782 1.348 . S
C2785 C2783 1.356 . S
H2786 C2780 0.930 . S
H2787 C2784 0.930 . S
O2788 Li2728 1.956 . S
O2788 Li2729 1.970 . S
O2788 Li2730 1.961 . S
O2788 C2732 1.325 . S
O2789 Li2728 1.970 . S
O2789 Li2729 1.956 . S
O2789 Li2731 1.961 . S
O2789 C2738 1.325 . S
O2790 Li2728 1.961 . S
O2790 Li2730 1.956 . S
O2790 Li2731 1.970 . S
O2790 C2760 1.325 . S
O2791 Li2729 1.961 . S
O2791 Li2730 1.970 . S
O2791 Li2731 1.956 . S
O2791 C2766 1.325 . S
H2792 C2734 0.929 . S
H2793 C2735 0.930 . S
H2794 C2736 0.930 . S
H2795 C2737 0.930 . S
H2796 C2739 0.930 . S
H2797 C2741 0.929 . S
H2798 C2742 0.930 . S
H2799 C2743 0.930 . S
H2800 C2746 0.930 . S
H2801 C2749 0.929 . S
H2802 C2754 0.929 . S
H2803 C2755 0.930 . S
H2804 C2762 0.929 . S
H2805 C2763 0.930 . S
H2806 C2764 0.930 . S
H2807 C2765 0.930 . S
H2808 C2767 0.929 . S
H2809 C2768 0.930 . S
H2810 C2769 0.930 . S
H2811 C2770 0.930 . S
H2812 C2774 0.929 . S
H2813 C2776 0.930 . S
H2814 C2782 0.929 . S
H2815 C2783 0.930 . S
H2816 C2824 0.950 . S
H2817 C2829 0.950 . S
H2818 C2826 0.950 . S
H2819 C2828 0.950 . S
H2820 C2830 0.950 . S
H2821 C2832 0.950 . S
H2822 C2834 0.950 . S
H2823 C2835 0.950 . S
C2824 H2816 0.950 . S
C2824 C2825 1.386 . S
C2824 C2826 1.391 . S
C2825 C2824 1.386 . S
C2825 C2829 1.393 . S
C2826 H2818 0.950 . S
C2826 C2824 1.391 . S
C2826 C2827 1.400 . S
C2827 C2826 1.400 . S
C2827 C2828 1.398 . S
C2827 C2833 1.491 . S
C2828 H2819 0.950 . S
C2828 C2827 1.398 . S
C2828 C2829 1.391 . S
C2829 H2817 0.950 . S
C2829 C2825 1.393 . S
C2829 C2828 1.391 . S
C2830 H2820 0.950 . S
C2830 C2831 1.386 . S
C2830 C2832 1.391 . S
C2831 C2830 1.386 . S
C2831 C2835 1.393 . S
C2832 H2821 0.950 . S
C2832 C2830 1.391 . S
C2832 C2833 1.400 . S
C2833 C2827 1.491 . S
C2833 C2832 1.400 . S
C2833 C2834 1.398 . S
C2834 H2822 0.950 . S
C2834 C2833 1.398 . S
C2834 C2835 1.391 . S
C2835 H2823 0.950 . S
C2835 C2831 1.393 . S
C2835 C2834 1.391 . S
H2836 C2844 0.950 . S
H2837 C2849 0.950 . S
H2838 C2846 0.950 . S
H2839 C2848 0.950 . S
H2840 C2850 0.950 . S
H2841 C2852 0.950 . S
H2842 C2854 0.950 . S
H2843 C2855 0.950 . S
C2844 H2836 0.950 . S
C2844 C2845 1.386 . S
C2844 C2846 1.391 . S
C2845 C2844 1.386 . S
C2845 C2849 1.393 . S
C2846 H2838 0.950 . S
C2846 C2844 1.391 . S
C2846 C2847 1.400 . S
C2847 C2846 1.400 . S
C2847 C2848 1.398 . S
C2847 C2853 1.491 . S
C2848 H2839 0.950 . S
C2848 C2847 1.398 . S
C2848 C2849 1.391 . S
C2849 H2837 0.950 . S
C2849 C2845 1.393 . S
C2849 C2848 1.391 . S
C2850 H2840 0.950 . S
C2850 C2851 1.386 . S
C2850 C2852 1.391 . S
C2851 C2850 1.386 . S
C2851 C2855 1.393 . S
C2852 H2841 0.950 . S
C2852 C2850 1.391 . S
C2852 C2853 1.400 . S
C2853 C2847 1.491 . S
C2853 C2852 1.400 . S
C2853 C2854 1.398 . S
C2854 H2842 0.950 . S
C2854 C2853 1.398 . S
C2854 C2855 1.391 . S
C2855 H2843 0.950 . S
C2855 C2851 1.393 . S
C2855 C2854 1.391 . S
H2856 C2864 0.950 . S
H2857 C2869 0.950 . S
H2858 C2866 0.950 . S
H2859 C2868 0.950 . S
H2860 C2870 0.950 . S
H2861 C2872 0.950 . S
H2862 C2874 0.950 . S
H2863 C2875 0.950 . S
C2864 H2856 0.950 . S
C2864 C2865 1.386 . S
C2864 C2866 1.391 . S
C2865 C2864 1.386 . S
C2865 C2869 1.393 . S
C2866 H2858 0.950 . S
C2866 C2864 1.391 . S
C2866 C2867 1.400 . S
C2867 C2866 1.400 . S
C2867 C2868 1.398 . S
C2867 C2873 1.491 . S
C2868 H2859 0.950 . S
C2868 C2867 1.398 . S
C2868 C2869 1.391 . S
C2869 H2857 0.950 . S
C2869 C2865 1.393 . S
C2869 C2868 1.391 . S
C2870 H2860 0.950 . S
C2870 C2871 1.386 . S
C2870 C2872 1.391 . S
C2871 C2870 1.386 . S
C2871 C2875 1.393 . S
C2872 H2861 0.950 . S
C2872 C2870 1.391 . S
C2872 C2873 1.400 . S
C2873 C2867 1.491 . S
C2873 C2872 1.400 . S
C2873 C2874 1.398 . S
C2874 H2862 0.950 . S
C2874 C2873 1.398 . S
C2874 C2875 1.391 . S
C2875 H2863 0.950 . S
C2875 C2871 1.393 . S
C2875 C2874 1.391 . S
H2876 C2884 0.950 . S
H2877 C2889 0.950 . S
H2878 C2886 0.950 . S
H2879 C2888 0.950 . S
H2880 C2890 0.950 . S
H2881 C2892 0.950 . S
H2882 C2894 0.950 . S
H2883 C2895 0.950 . S
C2884 H2876 0.950 . S
C2884 C2885 1.386 . S
C2884 C2886 1.391 . S
C2885 C2884 1.386 . S
C2885 C2889 1.393 . S
C2886 H2878 0.950 . S
C2886 C2884 1.391 . S
C2886 C2887 1.400 . S
C2887 C2886 1.400 . S
C2887 C2888 1.398 . S
C2887 C2893 1.491 . S
C2888 H2879 0.950 . S
C2888 C2887 1.398 . S
C2888 C2889 1.391 . S
C2889 H2877 0.950 . S
C2889 C2885 1.393 . S
C2889 C2888 1.391 . S
C2890 H2880 0.950 . S
C2890 C2891 1.386 . S
C2890 C2892 1.391 . S
C2891 C2890 1.386 . S
C2891 C2895 1.393 . S
C2892 H2881 0.950 . S
C2892 C2890 1.391 . S
C2892 C2893 1.400 . S
C2893 C2887 1.491 . S
C2893 C2892 1.400 . S
C2893 C2894 1.398 . S
C2894 H2882 0.950 . S
C2894 C2893 1.398 . S
C2894 C2895 1.391 . S
C2895 H2883 0.950 . S
C2895 C2891 1.393 . S
C2895 C2894 1.391 . S
H2896 C2904 0.950 . S
H2897 C2909 0.950 . S
H2898 C2906 0.950 . S
H2899 C2908 0.950 . S
H2900 C2910 0.950 . S
H2901 C2912 0.950 . S
H2902 C2914 0.950 . S
H2903 C2915 0.950 . S
C2904 H2896 0.950 . S
C2904 C2905 1.386 . S
C2904 C2906 1.391 . S
C2905 C2904 1.386 . S
C2905 C2909 1.393 . S
C2906 H2898 0.950 . S
C2906 C2904 1.391 . S
C2906 C2907 1.400 . S
C2907 C2906 1.400 . S
C2907 C2908 1.398 . S
C2907 C2913 1.491 . S
C2908 H2899 0.950 . S
C2908 C2907 1.398 . S
C2908 C2909 1.391 . S
C2909 H2897 0.950 . S
C2909 C2905 1.393 . S
C2909 C2908 1.391 . S
C2910 H2900 0.950 . S
C2910 C2911 1.386 . S
C2910 C2912 1.391 . S
C2911 C2910 1.386 . S
C2911 C2915 1.393 . S
C2912 H2901 0.950 . S
C2912 C2910 1.391 . S
C2912 C2913 1.400 . S
C2913 C2907 1.491 . S
C2913 C2912 1.400 . S
C2913 C2914 1.398 . S
C2914 H2902 0.950 . S
C2914 C2913 1.398 . S
C2914 C2915 1.391 . S
C2915 H2903 0.950 . S
C2915 C2911 1.393 . S
C2915 C2914 1.391 . S
H2916 C2924 0.950 . S
H2917 C2929 0.950 . S
H2918 C2926 0.950 . S
H2919 C2928 0.950 . S
H2920 C2930 0.950 . S
H2921 C2932 0.950 . S
H2922 C2934 0.950 . S
H2923 C2935 0.950 . S
C2924 H2916 0.950 . S
C2924 C2925 1.386 . S
C2924 C2926 1.391 . S
C2925 C2924 1.386 . S
C2925 C2929 1.393 . S
C2926 H2918 0.950 . S
C2926 C2924 1.391 . S
C2926 C2927 1.400 . S
C2927 C2926 1.400 . S
C2927 C2928 1.398 . S
C2927 C2933 1.491 . S
C2928 H2919 0.950 . S
C2928 C2927 1.398 . S
C2928 C2929 1.391 . S
C2929 H2917 0.950 . S
C2929 C2925 1.393 . S
C2929 C2928 1.391 . S
C2930 H2920 0.950 . S
C2930 C2931 1.386 . S
C2930 C2932 1.391 . S
C2931 C2930 1.386 . S
C2931 C2935 1.393 . S
C2932 H2921 0.950 . S
C2932 C2930 1.391 . S
C2932 C2933 1.400 . S
C2933 C2927 1.491 . S
C2933 C2932 1.400 . S
C2933 C2934 1.398 . S
C2934 H2922 0.950 . S
C2934 C2933 1.398 . S
C2934 C2935 1.391 . S
C2935 H2923 0.950 . S
C2935 C2931 1.393 . S
C2935 C2934 1.391 . S
H2936 C2944 0.950 . S
H2937 C2949 0.950 . S
H2938 C2946 0.950 . S
H2939 C2948 0.950 . S
H2940 C2950 0.950 . S
H2941 C2952 0.950 . S
H2942 C2954 0.950 . S
H2943 C2955 0.950 . S
C2944 H2936 0.950 . S
C2944 C2945 1.386 . S
C2944 C2946 1.391 . S
C2945 C2944 1.386 . S
C2945 C2949 1.393 . S
C2946 H2938 0.950 . S
C2946 C2944 1.391 . S
C2946 C2947 1.400 . S
C2947 C2946 1.400 . S
C2947 C2948 1.398 . S
C2947 C2953 1.491 . S
C2948 H2939 0.950 . S
C2948 C2947 1.398 . S
C2948 C2949 1.391 . S
C2949 H2937 0.950 . S
C2949 C2945 1.393 . S
C2949 C2948 1.391 . S
C2950 H2940 0.950 . S
C2950 C2951 1.386 . S
C2950 C2952 1.391 . S
C2951 C2950 1.386 . S
C2951 C2955 1.393 . S
C2952 H2941 0.950 . S
C2952 C2950 1.391 . S
C2952 C2953 1.400 . S
C2953 C2947 1.491 . S
C2953 C2952 1.400 . S
C2953 C2954 1.398 . S
C2954 H2942 0.950 . S
C2954 C2953 1.398 . S
C2954 C2955 1.391 . S
C2955 H2943 0.950 . S
C2955 C2951 1.393 . S
C2955 C2954 1.391 . S
H2956 C2964 0.950 . S
H2957 C2969 0.950 . S
H2958 C2966 0.950 . S
H2959 C2968 0.950 . S
H2960 C2970 0.950 . S
H2961 C2972 0.950 . S
H2962 C2974 0.950 . S
H2963 C2975 0.950 . S
C2964 H2956 0.950 . S
C2964 C2965 1.386 . S
C2964 C2966 1.391 . S
C2965 C2964 1.386 . S
C2965 C2969 1.393 . S
C2966 H2958 0.950 . S
C2966 C2964 1.391 . S
C2966 C2967 1.400 . S
C2967 C2966 1.400 . S
C2967 C2968 1.398 . S
C2967 C2973 1.491 . S
C2968 H2959 0.950 . S
C2968 C2967 1.398 . S
C2968 C2969 1.391 . S
C2969 H2957 0.950 . S
C2969 C2965 1.393 . S
C2969 C2968 1.391 . S
C2970 H2960 0.950 . S
C2970 C2971 1.386 . S
C2970 C2972 1.391 . S
C2971 C2970 1.386 . S
C2971 C2975 1.393 . S
C2972 H2961 0.950 . S
C2972 C2970 1.391 . S
C2972 C2973 1.400 . S
C2973 C2967 1.491 . S
C2973 C2972 1.400 . S
C2973 C2974 1.398 . S
C2974 H2962 0.950 . S
C2974 C2973 1.398 . S
C2974 C2975 1.391 . S
C2975 H2963 0.950 . S
C2975 C2971 1.393 . S
C2975 C2974 1.391 . S
H2976 C2984 0.950 . S
H2977 C2989 0.950 . S
H2978 C2986 0.950 . S
H2979 C2988 0.950 . S
H2980 C2990 0.950 . S
H2981 C2992 0.950 . S
H2982 C2994 0.950 . S
H2983 C2995 0.950 . S
C2984 H2976 0.950 . S
C2984 C2985 1.386 . S
C2984 C2986 1.391 . S
C2985 C2984 1.386 . S
C2985 C2989 1.393 . S
C2986 H2978 0.950 . S
C2986 C2984 1.391 . S
C2986 C2987 1.400 . S
C2987 C2986 1.400 . S
C2987 C2988 1.398 . S
C2987 C2993 1.491 . S
C2988 H2979 0.950 . S
C2988 C2987 1.398 . S
C2988 C2989 1.391 . S
C2989 H2977 0.950 . S
C2989 C2985 1.393 . S
C2989 C2988 1.391 . S
C2990 H2980 0.950 . S
C2990 C2991 1.386 . S
C2990 C2992 1.391 . S
C2991 C2990 1.386 . S
C2991 C2995 1.393 . S
C2992 H2981 0.950 . S
C2992 C2990 1.391 . S
C2992 C2993 1.400 . S
C2993 C2987 1.491 . S
C2993 C2992 1.400 . S
C2993 C2994 1.398 . S
C2994 H2982 0.950 . S
C2994 C2993 1.398 . S
C2994 C2995 1.391 . S
C2995 H2983 0.950 . S
C2995 C2991 1.393 . S
C2995 C2994 1.391 . S
H2996 C3004 0.950 . S
H2997 C3009 0.950 . S
H2998 C3006 0.950 . S
H2999 C3008 0.950 . S
H3000 C3010 0.950 . S
H3001 C3012 0.950 . S
H3002 C3014 0.950 . S
H3003 C3015 0.950 . S
C3004 H2996 0.950 . S
C3004 C3005 1.386 . S
C3004 C3006 1.391 . S
C3005 C3004 1.386 . S
C3005 C3009 1.393 . S
C3006 H2998 0.950 . S
C3006 C3004 1.391 . S
C3006 C3007 1.400 . S
C3007 C3006 1.400 . S
C3007 C3008 1.398 . S
C3007 C3013 1.491 . S
C3008 H2999 0.950 . S
C3008 C3007 1.398 . S
C3008 C3009 1.391 . S
C3009 H2997 0.950 . S
C3009 C3005 1.393 . S
C3009 C3008 1.391 . S
C3010 H3000 0.950 . S
C3010 C3011 1.386 . S
C3010 C3012 1.391 . S
C3011 C3010 1.386 . S
C3011 C3015 1.393 . S
C3012 H3001 0.950 . S
C3012 C3010 1.391 . S
C3012 C3013 1.400 . S
C3013 C3007 1.491 . S
C3013 C3012 1.400 . S
C3013 C3014 1.398 . S
C3014 H3002 0.950 . S
C3014 C3013 1.398 . S
C3014 C3015 1.391 . S
C3015 H3003 0.950 . S
C3015 C3011 1.393 . S
C3015 C3014 1.391 . S
H3016 C3024 0.950 . S
H3017 C3029 0.950 . S
H3018 C3026 0.950 . S
H3019 C3028 0.950 . S
H3020 C3030 0.950 . S
H3021 C3032 0.950 . S
H3022 C3034 0.950 . S
H3023 C3035 0.950 . S
C3024 H3016 0.950 . S
C3024 C3025 1.386 . S
C3024 C3026 1.391 . S
C3025 C3024 1.386 . S
C3025 C3029 1.393 . S
C3026 H3018 0.950 . S
C3026 C3024 1.391 . S
C3026 C3027 1.400 . S
C3027 C3026 1.400 . S
C3027 C3028 1.398 . S
C3027 C3033 1.491 . S
C3028 H3019 0.950 . S
C3028 C3027 1.398 . S
C3028 C3029 1.391 . S
C3029 H3017 0.950 . S
C3029 C3025 1.393 . S
C3029 C3028 1.391 . S
C3030 H3020 0.950 . S
C3030 C3031 1.386 . S
C3030 C3032 1.391 . S
C3031 C3030 1.386 . S
C3031 C3035 1.393 . S
C3032 H3021 0.950 . S
C3032 C3030 1.391 . S
C3032 C3033 1.400 . S
C3033 C3027 1.491 . S
C3033 C3032 1.400 . S
C3033 C3034 1.398 . S
C3034 H3022 0.950 . S
C3034 C3033 1.398 . S
C3034 C3035 1.391 . S
C3035 H3023 0.950 . S
C3035 C3031 1.393 . S
C3035 C3034 1.391 . S
H3036 C3044 0.950 . S
H3037 C3049 0.950 . S
H3038 C3046 0.950 . S
H3039 C3048 0.950 . S
H3040 C3050 0.950 . S
H3041 C3052 0.950 . S
H3042 C3054 0.950 . S
H3043 C3055 0.950 . S
C3044 H3036 0.950 . S
C3044 C3045 1.386 . S
C3044 C3046 1.391 . S
C3045 C3044 1.386 . S
C3045 C3049 1.393 . S
C3046 H3038 0.950 . S
C3046 C3044 1.391 . S
C3046 C3047 1.400 . S
C3047 C3046 1.400 . S
C3047 C3048 1.398 . S
C3047 C3053 1.491 . S
C3048 H3039 0.950 . S
C3048 C3047 1.398 . S
C3048 C3049 1.391 . S
C3049 H3037 0.950 . S
C3049 C3045 1.393 . S
C3049 C3048 1.391 . S
C3050 H3040 0.950 . S
C3050 C3051 1.386 . S
C3050 C3052 1.391 . S
C3051 C3050 1.386 . S
C3051 C3055 1.393 . S
C3052 H3041 0.950 . S
C3052 C3050 1.391 . S
C3052 C3053 1.400 . S
C3053 C3047 1.491 . S
C3053 C3052 1.400 . S
C3053 C3054 1.398 . S
C3054 H3042 0.950 . S
C3054 C3053 1.398 . S
C3054 C3055 1.391 . S
C3055 H3043 0.950 . S
C3055 C3051 1.393 . S
C3055 C3054 1.391 . S
H3056 C3064 0.950 . S
H3057 C3069 0.950 . S
H3058 C3066 0.950 . S
H3059 C3068 0.950 . S
H3060 C3070 0.950 . S
H3061 C3072 0.950 . S
H3062 C3074 0.950 . S
H3063 C3075 0.950 . S
C3064 H3056 0.950 . S
C3064 C3065 1.386 . S
C3064 C3066 1.391 . S
C3065 C3064 1.386 . S
C3065 C3069 1.393 . S
C3066 H3058 0.950 . S
C3066 C3064 1.391 . S
C3066 C3067 1.400 . S
C3067 C3066 1.400 . S
C3067 C3068 1.398 . S
C3067 C3073 1.491 . S
C3068 H3059 0.950 . S
C3068 C3067 1.398 . S
C3068 C3069 1.391 . S
C3069 H3057 0.950 . S
C3069 C3065 1.393 . S
C3069 C3068 1.391 . S
C3070 H3060 0.950 . S
C3070 C3071 1.386 . S
C3070 C3072 1.391 . S
C3071 C3070 1.386 . S
C3071 C3075 1.393 . S
C3072 H3061 0.950 . S
C3072 C3070 1.391 . S
C3072 C3073 1.400 . S
C3073 C3067 1.491 . S
C3073 C3072 1.400 . S
C3073 C3074 1.398 . S
C3074 H3062 0.950 . S
C3074 C3073 1.398 . S
C3074 C3075 1.391 . S
C3075 H3063 0.950 . S
C3075 C3071 1.393 . S
C3075 C3074 1.391 . S
H3076 C3084 0.950 . S
H3077 C3089 0.950 . S
H3078 C3086 0.950 . S
H3079 C3088 0.950 . S
H3080 C3090 0.950 . S
H3081 C3092 0.950 . S
H3082 C3094 0.950 . S
H3083 C3095 0.950 . S
C3084 H3076 0.950 . S
C3084 C3085 1.386 . S
C3084 C3086 1.391 . S
C3085 C3084 1.386 . S
C3085 C3089 1.393 . S
C3086 H3078 0.950 . S
C3086 C3084 1.391 . S
C3086 C3087 1.400 . S
C3087 C3086 1.400 . S
C3087 C3088 1.398 . S
C3087 C3093 1.491 . S
C3088 H3079 0.950 . S
C3088 C3087 1.398 . S
C3088 C3089 1.391 . S
C3089 H3077 0.950 . S
C3089 C3085 1.393 . S
C3089 C3088 1.391 . S
C3090 H3080 0.950 . S
C3090 C3091 1.386 . S
C3090 C3092 1.391 . S
C3091 C3090 1.386 . S
C3091 C3095 1.393 . S
C3092 H3081 0.950 . S
C3092 C3090 1.391 . S
C3092 C3093 1.400 . S
C3093 C3087 1.491 . S
C3093 C3092 1.400 . S
C3093 C3094 1.398 . S
C3094 H3082 0.950 . S
C3094 C3093 1.398 . S
C3094 C3095 1.391 . S
C3095 H3083 0.950 . S
C3095 C3091 1.393 . S
C3095 C3094 1.391 . S
H3096 C3104 0.950 . S
H3097 C3109 0.950 . S
H3098 C3106 0.950 . S
H3099 C3108 0.950 . S
H3100 C3110 0.950 . S
H3101 C3112 0.950 . S
H3102 C3114 0.950 . S
H3103 C3115 0.950 . S
C3104 H3096 0.950 . S
C3104 C3105 1.386 . S
C3104 C3106 1.391 . S
C3105 C3104 1.386 . S
C3105 C3109 1.393 . S
C3106 H3098 0.950 . S
C3106 C3104 1.391 . S
C3106 C3107 1.400 . S
C3107 C3106 1.400 . S
C3107 C3108 1.398 . S
C3107 C3113 1.491 . S
C3108 H3099 0.950 . S
C3108 C3107 1.398 . S
C3108 C3109 1.391 . S
C3109 H3097 0.950 . S
C3109 C3105 1.393 . S
C3109 C3108 1.391 . S
C3110 H3100 0.950 . S
C3110 C3111 1.386 . S
C3110 C3112 1.391 . S
C3111 C3110 1.386 . S
C3111 C3115 1.393 . S
C3112 H3101 0.950 . S
C3112 C3110 1.391 . S
C3112 C3113 1.400 . S
C3113 C3107 1.491 . S
C3113 C3112 1.400 . S
C3113 C3114 1.398 . S
C3114 H3102 0.950 . S
C3114 C3113 1.398 . S
C3114 C3115 1.391 . S
C3115 H3103 0.950 . S
C3115 C3111 1.393 . S
C3115 C3114 1.391 . S
H3116 C3124 0.950 . S
H3117 C3129 0.950 . S
H3118 C3126 0.950 . S
H3119 C3128 0.950 . S
H3120 C3130 0.950 . S
H3121 C3132 0.950 . S
H3122 C3134 0.950 . S
H3123 C3135 0.950 . S
C3124 H3116 0.950 . S
C3124 C3125 1.386 . S
C3124 C3126 1.391 . S
C3125 C3124 1.386 . S
C3125 C3129 1.393 . S
C3126 H3118 0.950 . S
C3126 C3124 1.391 . S
C3126 C3127 1.400 . S
C3127 C3126 1.400 . S
C3127 C3128 1.398 . S
C3127 C3133 1.491 . S
C3128 H3119 0.950 . S
C3128 C3127 1.398 . S
C3128 C3129 1.391 . S
C3129 H3117 0.950 . S
C3129 C3125 1.393 . S
C3129 C3128 1.391 . S
C3130 H3120 0.950 . S
C3130 C3131 1.386 . S
C3130 C3132 1.391 . S
C3131 C3130 1.386 . S
C3131 C3135 1.393 . S
C3132 H3121 0.950 . S
C3132 C3130 1.391 . S
C3132 C3133 1.400 . S
C3133 C3127 1.491 . S
C3133 C3132 1.400 . S
C3133 C3134 1.398 . S
C3134 H3122 0.950 . S
C3134 C3133 1.398 . S
C3134 C3135 1.391 . S
C3135 H3123 0.950 . S
C3135 C3131 1.393 . S
C3135 C3134 1.391 . S
H3136 C3144 0.950 . S
H3137 C3149 0.950 . S
H3138 C3146 0.950 . S
H3139 C3148 0.950 . S
H3140 C3150 0.950 . S
H3141 C3152 0.950 . S
H3142 C3154 0.950 . S
H3143 C3155 0.950 . S
C3144 H3136 0.950 . S
C3144 C3145 1.386 . S
C3144 C3146 1.391 . S
C3145 C3144 1.386 . S
C3145 C3149 1.393 . S
C3146 H3138 0.950 . S
C3146 C3144 1.391 . S
C3146 C3147 1.400 . S
C3147 C3146 1.400 . S
C3147 C3148 1.398 . S
C3147 C3153 1.491 1_554 S
C3148 H3139 0.950 . S
C3148 C3147 1.398 . S
C3148 C3149 1.391 . S
C3149 H3137 0.950 . S
C3149 C3145 1.393 . S
C3149 C3148 1.391 . S
C3150 H3140 0.950 . S
C3150 C3151 1.386 . S
C3150 C3152 1.391 . S
C3151 C3150 1.386 . S
C3151 C3155 1.393 . S
C3152 H3141 0.950 . S
C3152 C3150 1.391 . S
C3152 C3153 1.400 . S
C3153 C3147 1.491 1_556 S
C3153 C3152 1.400 . S
C3153 C3154 1.398 . S
C3154 H3142 0.950 . S
C3154 C3153 1.398 . S
C3154 C3155 1.391 . S
C3155 H3143 0.950 . S
C3155 C3151 1.393 . S
C3155 C3154 1.391 . S
H3156 C3164 0.950 . S
H3157 C3169 0.950 . S
H3158 C3166 0.950 . S
H3159 C3168 0.950 . S
H3160 C3170 0.950 . S
H3161 C3172 0.950 . S
H3162 C3174 0.950 . S
H3163 C3175 0.950 . S
C3164 H3156 0.950 . S
C3164 C3165 1.386 . S
C3164 C3166 1.391 . S
C3165 C3164 1.386 . S
C3165 C3169 1.393 . S
C3166 H3158 0.950 . S
C3166 C3164 1.391 . S
C3166 C3167 1.400 . S
C3167 C3166 1.400 . S
C3167 C3168 1.398 . S
C3167 C3173 1.491 1_556 S
C3168 H3159 0.950 . S
C3168 C3167 1.398 . S
C3168 C3169 1.391 . S
C3169 H3157 0.950 . S
C3169 C3165 1.393 . S
C3169 C3168 1.391 . S
C3170 H3160 0.950 . S
C3170 C3171 1.386 . S
C3170 C3172 1.391 . S
C3171 C3170 1.386 . S
C3171 C3175 1.393 . S
C3172 H3161 0.950 . S
C3172 C3170 1.391 . S
C3172 C3173 1.400 . S
C3173 C3167 1.491 1_554 S
C3173 C3172 1.400 . S
C3173 C3174 1.398 . S
C3174 H3162 0.950 . S
C3174 C3173 1.398 . S
C3174 C3175 1.391 . S
C3175 H3163 0.950 . S
C3175 C3171 1.393 . S
C3175 C3174 1.391 . S
H3176 C3184 0.950 . S
H3177 C3189 0.950 . S
H3178 C3186 0.950 . S
H3179 C3188 0.950 . S
H3180 C3190 0.950 . S
H3181 C3192 0.950 . S
H3182 C3194 0.950 . S
H3183 C3195 0.950 . S
C3184 H3176 0.950 . S
C3184 C3185 1.386 . S
C3184 C3186 1.391 . S
C3185 C3184 1.386 . S
C3185 C3189 1.393 . S
C3186 H3178 0.950 . S
C3186 C3184 1.391 . S
C3186 C3187 1.400 . S
C3187 C3186 1.400 . S
C3187 C3188 1.398 . S
C3187 C3193 1.491 1_556 S
C3188 H3179 0.950 . S
C3188 C3187 1.398 . S
C3188 C3189 1.391 . S
C3189 H3177 0.950 . S
C3189 C3185 1.393 . S
C3189 C3188 1.391 . S
C3190 H3180 0.950 . S
C3190 C3191 1.386 . S
C3190 C3192 1.391 . S
C3191 C3190 1.386 . S
C3191 C3195 1.393 . S
C3192 H3181 0.950 . S
C3192 C3190 1.391 . S
C3192 C3193 1.400 . S
C3193 C3187 1.491 1_554 S
C3193 C3192 1.400 . S
C3193 C3194 1.398 . S
C3194 H3182 0.950 . S
C3194 C3193 1.398 . S
C3194 C3195 1.391 . S
C3195 H3183 0.950 . S
C3195 C3191 1.393 . S
C3195 C3194 1.391 . S
H3196 C3204 0.950 . S
H3197 C3209 0.950 . S
H3198 C3206 0.950 . S
H3199 C3208 0.950 . S
H3200 C3210 0.950 . S
H3201 C3212 0.950 . S
H3202 C3214 0.950 . S
H3203 C3215 0.950 . S
C3204 H3196 0.950 . S
C3204 C3205 1.386 . S
C3204 C3206 1.391 . S
C3205 C3204 1.386 . S
C3205 C3209 1.393 . S
C3206 H3198 0.950 . S
C3206 C3204 1.391 . S
C3206 C3207 1.400 . S
C3207 C3206 1.400 . S
C3207 C3208 1.398 . S
C3207 C3213 1.491 1_556 S
C3208 H3199 0.950 . S
C3208 C3207 1.398 . S
C3208 C3209 1.391 . S
C3209 H3197 0.950 . S
C3209 C3205 1.393 . S
C3209 C3208 1.391 . S
C3210 H3200 0.950 . S
C3210 C3211 1.386 . S
C3210 C3212 1.391 . S
C3211 C3210 1.386 . S
C3211 C3215 1.393 . S
C3212 H3201 0.950 . S
C3212 C3210 1.391 . S
C3212 C3213 1.400 . S
C3213 C3207 1.491 1_554 S
C3213 C3212 1.400 . S
C3213 C3214 1.398 . S
C3214 H3202 0.950 . S
C3214 C3213 1.398 . S
C3214 C3215 1.391 . S
C3215 H3203 0.950 . S
C3215 C3211 1.393 . S
C3215 C3214 1.391 . S
H3216 C3224 0.950 . S
H3217 C3229 0.950 . S
H3218 C3226 0.950 . S
H3219 C3228 0.950 . S
H3220 C3230 0.950 . S
H3221 C3232 0.950 . S
H3222 C3234 0.950 . S
H3223 C3235 0.950 . S
C3224 H3216 0.950 . S
C3224 C3225 1.386 . S
C3224 C3226 1.391 . S
C3225 C3224 1.386 . S
C3225 C3229 1.393 . S
C3226 H3218 0.950 . S
C3226 C3224 1.391 . S
C3226 C3227 1.400 . S
C3227 C3226 1.400 . S
C3227 C3228 1.398 . S
C3227 C3233 1.491 . S
C3228 H3219 0.950 . S
C3228 C3227 1.398 . S
C3228 C3229 1.391 . S
C3229 H3217 0.950 . S
C3229 C3225 1.393 . S
C3229 C3228 1.391 . S
C3230 H3220 0.950 . S
C3230 C3231 1.386 . S
C3230 C3232 1.391 . S
C3231 C3230 1.386 . S
C3231 C3235 1.393 . S
C3232 H3221 0.950 . S
C3232 C3230 1.391 . S
C3232 C3233 1.400 . S
C3233 C3227 1.491 . S
C3233 C3232 1.400 . S
C3233 C3234 1.398 . S
C3234 H3222 0.950 . S
C3234 C3233 1.398 . S
C3234 C3235 1.391 . S
C3235 H3223 0.950 . S
C3235 C3231 1.393 . S
C3235 C3234 1.391 . S
H3236 C3244 0.950 . S
H3237 C3249 0.950 . S
H3238 C3246 0.950 . S
H3239 C3248 0.950 . S
H3240 C3250 0.950 . S
H3241 C3252 0.950 . S
H3242 C3254 0.950 . S
H3243 C3255 0.950 . S
C3244 H3236 0.950 . S
C3244 C3245 1.386 . S
C3244 C3246 1.391 . S
C3245 C3244 1.386 . S
C3245 C3249 1.393 . S
C3246 H3238 0.950 . S
C3246 C3244 1.391 . S
C3246 C3247 1.400 . S
C3247 C3246 1.400 . S
C3247 C3248 1.398 . S
C3247 C3253 1.491 . S
C3248 H3239 0.950 . S
C3248 C3247 1.398 . S
C3248 C3249 1.391 . S
C3249 H3237 0.950 . S
C3249 C3245 1.393 . S
C3249 C3248 1.391 . S
C3250 H3240 0.950 . S
C3250 C3251 1.386 . S
C3250 C3252 1.391 . S
C3251 C3250 1.386 . S
C3251 C3255 1.393 . S
C3252 H3241 0.950 . S
C3252 C3250 1.391 . S
C3252 C3253 1.400 . S
C3253 C3247 1.491 . S
C3253 C3252 1.400 . S
C3253 C3254 1.398 . S
C3254 H3242 0.950 . S
C3254 C3253 1.398 . S
C3254 C3255 1.391 . S
C3255 H3243 0.950 . S
C3255 C3251 1.393 . S
C3255 C3254 1.391 . S
H3256 C3264 0.950 . S
H3257 C3269 0.950 . S
H3258 C3266 0.950 . S
H3259 C3268 0.950 . S
H3260 C3270 0.950 . S
H3261 C3272 0.950 . S
H3262 C3274 0.950 . S
H3263 C3275 0.950 . S
C3264 H3256 0.950 . S
C3264 C3265 1.386 . S
C3264 C3266 1.391 . S
C3265 C3264 1.386 . S
C3265 C3269 1.393 . S
C3266 H3258 0.950 . S
C3266 C3264 1.391 . S
C3266 C3267 1.400 . S
C3267 C3266 1.400 . S
C3267 C3268 1.398 . S
C3267 C3273 1.491 . S
C3268 H3259 0.950 . S
C3268 C3267 1.398 . S
C3268 C3269 1.391 . S
C3269 H3257 0.950 . S
C3269 C3265 1.393 . S
C3269 C3268 1.391 . S
C3270 H3260 0.950 . S
C3270 C3271 1.386 . S
C3270 C3272 1.391 . S
C3271 C3270 1.386 . S
C3271 C3275 1.393 . S
C3272 H3261 0.950 . S
C3272 C3270 1.391 . S
C3272 C3273 1.400 . S
C3273 C3267 1.491 . S
C3273 C3272 1.400 . S
C3273 C3274 1.398 . S
C3274 H3262 0.950 . S
C3274 C3273 1.398 . S
C3274 C3275 1.391 . S
C3275 H3263 0.950 . S
C3275 C3271 1.393 . S
C3275 C3274 1.391 . S
H3276 C3284 0.950 . S
H3277 C3289 0.950 . S
H3278 C3286 0.950 . S
H3279 C3288 0.950 . S
H3280 C3290 0.950 . S
H3281 C3292 0.950 . S
H3282 C3294 0.950 . S
H3283 C3295 0.950 . S
C3284 H3276 0.950 . S
C3284 C3285 1.386 . S
C3284 C3286 1.391 . S
C3285 C3284 1.386 . S
C3285 C3289 1.393 . S
C3286 H3278 0.950 . S
C3286 C3284 1.391 . S
C3286 C3287 1.400 . S
C3287 C3286 1.400 . S
C3287 C3288 1.398 . S
C3287 C3293 1.491 . S
C3288 H3279 0.950 . S
C3288 C3287 1.398 . S
C3288 C3289 1.391 . S
C3289 H3277 0.950 . S
C3289 C3285 1.393 . S
C3289 C3288 1.391 . S
C3290 H3280 0.950 . S
C3290 C3291 1.386 . S
C3290 C3292 1.391 . S
C3291 C3290 1.386 . S
C3291 C3295 1.393 . S
C3292 H3281 0.950 . S
C3292 C3290 1.391 . S
C3292 C3293 1.400 . S
C3293 C3287 1.491 . S
C3293 C3292 1.400 . S
C3293 C3294 1.398 . S
C3294 H3282 0.950 . S
C3294 C3293 1.398 . S
C3294 C3295 1.391 . S
C3295 H3283 0.950 . S
C3295 C3291 1.393 . S
C3295 C3294 1.391 . S
H3296 C3304 0.950 . S
H3297 C3309 0.950 . S
H3298 C3306 0.950 . S
H3299 C3308 0.950 . S
H3300 C3310 0.950 . S
H3301 C3312 0.950 . S
H3302 C3314 0.950 . S
H3303 C3315 0.950 . S
C3304 H3296 0.950 . S
C3304 C3305 1.386 . S
C3304 C3306 1.391 . S
C3305 C3304 1.386 . S
C3305 C3309 1.393 . S
C3306 H3298 0.950 . S
C3306 C3304 1.391 . S
C3306 C3307 1.400 . S
C3307 C3306 1.400 . S
C3307 C3308 1.398 . S
C3307 C3313 1.491 . S
C3308 H3299 0.950 . S
C3308 C3307 1.398 . S
C3308 C3309 1.391 . S
C3309 H3297 0.950 . S
C3309 C3305 1.393 . S
C3309 C3308 1.391 . S
C3310 H3300 0.950 . S
C3310 C3311 1.386 . S
C3310 C3312 1.391 . S
C3311 C3310 1.386 . S
C3311 C3315 1.393 . S
C3312 H3301 0.950 . S
C3312 C3310 1.391 . S
C3312 C3313 1.400 . S
C3313 C3307 1.491 . S
C3313 C3312 1.400 . S
C3313 C3314 1.398 . S
C3314 H3302 0.950 . S
C3314 C3313 1.398 . S
C3314 C3315 1.391 . S
C3315 H3303 0.950 . S
C3315 C3311 1.393 . S
C3315 C3314 1.391 . S
H3316 C3324 0.950 . S
H3317 C3329 0.950 . S
H3318 C3326 0.950 . S
H3319 C3328 0.950 . S
H3320 C3330 0.950 . S
H3321 C3332 0.950 . S
H3322 C3334 0.950 . S
H3323 C3335 0.950 . S
C3324 H3316 0.950 . S
C3324 C3325 1.386 . S
C3324 C3326 1.391 . S
C3325 C3324 1.386 . S
C3325 C3329 1.393 . S
C3326 H3318 0.950 . S
C3326 C3324 1.391 . S
C3326 C3327 1.400 . S
C3327 C3326 1.400 . S
C3327 C3328 1.398 . S
C3327 C3333 1.491 . S
C3328 H3319 0.950 . S
C3328 C3327 1.398 . S
C3328 C3329 1.391 . S
C3329 H3317 0.950 . S
C3329 C3325 1.393 . S
C3329 C3328 1.391 . S
C3330 H3320 0.950 . S
C3330 C3331 1.386 . S
C3330 C3332 1.391 . S
C3331 C3330 1.386 . S
C3331 C3335 1.393 . S
C3332 H3321 0.950 . S
C3332 C3330 1.391 . S
C3332 C3333 1.400 . S
C3333 C3327 1.491 . S
C3333 C3332 1.400 . S
C3333 C3334 1.398 . S
C3334 H3322 0.950 . S
C3334 C3333 1.398 . S
C3334 C3335 1.391 . S
C3335 H3323 0.950 . S
C3335 C3331 1.393 . S
C3335 C3334 1.391 . S
H3336 C3344 0.950 . S
H3337 C3349 0.950 . S
H3338 C3346 0.950 . S
H3339 C3348 0.950 . S
H3340 C3350 0.950 . S
H3341 C3352 0.950 . S
H3342 C3354 0.950 . S
H3343 C3355 0.950 . S
C3344 H3336 0.950 . S
C3344 C3345 1.386 . S
C3344 C3346 1.391 . S
C3345 C3344 1.386 . S
C3345 C3349 1.393 . S
C3346 H3338 0.950 . S
C3346 C3344 1.391 . S
C3346 C3347 1.400 . S
C3347 C3346 1.400 . S
C3347 C3348 1.398 . S
C3347 C3353 1.491 . S
C3348 H3339 0.950 . S
C3348 C3347 1.398 . S
C3348 C3349 1.391 . S
C3349 H3337 0.950 . S
C3349 C3345 1.393 . S
C3349 C3348 1.391 . S
C3350 H3340 0.950 . S
C3350 C3351 1.386 . S
C3350 C3352 1.391 . S
C3351 C3350 1.386 . S
C3351 C3355 1.393 . S
C3352 H3341 0.950 . S
C3352 C3350 1.391 . S
C3352 C3353 1.400 . S
C3353 C3347 1.491 . S
C3353 C3352 1.400 . S
C3353 C3354 1.398 . S
C3354 H3342 0.950 . S
C3354 C3353 1.398 . S
C3354 C3355 1.391 . S
C3355 H3343 0.950 . S
C3355 C3351 1.393 . S
C3355 C3354 1.391 . S
H3356 C3364 0.950 . S
H3357 C3369 0.950 . S
H3358 C3366 0.950 . S
H3359 C3368 0.950 . S
H3360 C3370 0.950 . S
H3361 C3372 0.950 . S
H3362 C3374 0.950 . S
H3363 C3375 0.950 . S
C3364 H3356 0.950 . S
C3364 C3365 1.386 . S
C3364 C3366 1.391 . S
C3365 C3364 1.386 . S
C3365 C3369 1.393 . S
C3366 H3358 0.950 . S
C3366 C3364 1.391 . S
C3366 C3367 1.400 . S
C3367 C3366 1.400 . S
C3367 C3368 1.398 . S
C3367 C3373 1.491 . S
C3368 H3359 0.950 . S
C3368 C3367 1.398 . S
C3368 C3369 1.391 . S
C3369 H3357 0.950 . S
C3369 C3365 1.393 . S
C3369 C3368 1.391 . S
C3370 H3360 0.950 . S
C3370 C3371 1.386 . S
C3370 C3372 1.391 . S
C3371 C3370 1.386 . S
C3371 C3375 1.393 . S
C3372 H3361 0.950 . S
C3372 C3370 1.391 . S
C3372 C3373 1.400 . S
C3373 C3367 1.491 . S
C3373 C3372 1.400 . S
C3373 C3374 1.398 . S
C3374 H3362 0.950 . S
C3374 C3373 1.398 . S
C3374 C3375 1.391 . S
C3375 H3363 0.950 . S
C3375 C3371 1.393 . S
C3375 C3374 1.391 . S
H3376 C3384 0.950 . S
H3377 C3389 0.950 . S
H3378 C3386 0.950 . S
H3379 C3388 0.950 . S
H3380 C3390 0.950 . S
H3381 C3392 0.950 . S
H3382 C3394 0.950 . S
H3383 C3395 0.950 . S
C3384 H3376 0.950 . S
C3384 C3385 1.386 . S
C3384 C3386 1.391 . S
C3385 C3384 1.386 . S
C3385 C3389 1.393 . S
C3386 H3378 0.950 . S
C3386 C3384 1.391 . S
C3386 C3387 1.400 . S
C3387 C3386 1.400 . S
C3387 C3388 1.398 . S
C3387 C3393 1.491 1_556 S
C3388 H3379 0.950 . S
C3388 C3387 1.398 . S
C3388 C3389 1.391 . S
C3389 H3377 0.950 . S
C3389 C3385 1.393 . S
C3389 C3388 1.391 . S
C3390 H3380 0.950 . S
C3390 C3391 1.386 . S
C3390 C3392 1.391 . S
C3391 C3390 1.386 . S
C3391 C3395 1.393 . S
C3392 H3381 0.950 . S
C3392 C3390 1.391 . S
C3392 C3393 1.400 . S
C3393 C3387 1.491 1_554 S
C3393 C3392 1.400 . S
C3393 C3394 1.398 . S
C3394 H3382 0.950 . S
C3394 C3393 1.398 . S
C3394 C3395 1.391 . S
C3395 H3383 0.950 . S
C3395 C3391 1.393 . S
C3395 C3394 1.391 . S
H3396 C3404 0.950 . S
H3397 C3409 0.950 . S
H3398 C3406 0.950 . S
H3399 C3408 0.950 . S
H3400 C3410 0.950 . S
H3401 C3412 0.950 . S
H3402 C3414 0.950 . S
H3403 C3415 0.950 . S
C3404 H3396 0.950 . S
C3404 C3405 1.386 . S
C3404 C3406 1.391 . S
C3405 C3404 1.386 . S
C3405 C3409 1.393 . S
C3406 H3398 0.950 . S
C3406 C3404 1.391 . S
C3406 C3407 1.400 . S
C3407 C3406 1.400 . S
C3407 C3408 1.398 . S
C3407 C3413 1.491 1_554 S
C3408 H3399 0.950 . S
C3408 C3407 1.398 . S
C3408 C3409 1.391 . S
C3409 H3397 0.950 . S
C3409 C3405 1.393 . S
C3409 C3408 1.391 . S
C3410 H3400 0.950 . S
C3410 C3411 1.386 . S
C3410 C3412 1.391 . S
C3411 C3410 1.386 . S
C3411 C3415 1.393 . S
C3412 H3401 0.950 . S
C3412 C3410 1.391 . S
C3412 C3413 1.400 . S
C3413 C3407 1.491 1_556 S
C3413 C3412 1.400 . S
C3413 C3414 1.398 . S
C3414 H3402 0.950 . S
C3414 C3413 1.398 . S
C3414 C3415 1.391 . S
C3415 H3403 0.950 . S
C3415 C3411 1.393 . S
C3415 C3414 1.391 . S
H3416 C3424 0.950 . S
H3417 C3429 0.950 . S
H3418 C3426 0.950 . S
H3419 C3428 0.950 . S
H3420 C3430 0.950 . S
H3421 C3432 0.950 . S
H3422 C3434 0.950 . S
H3423 C3435 0.950 . S
C3424 H3416 0.950 . S
C3424 C3425 1.386 . S
C3424 C3426 1.391 . S
C3425 C3424 1.386 . S
C3425 C3429 1.393 . S
C3426 H3418 0.950 . S
C3426 C3424 1.391 . S
C3426 C3427 1.400 . S
C3427 C3426 1.400 . S
C3427 C3428 1.398 . S
C3427 C3433 1.491 1_554 S
C3428 H3419 0.950 . S
C3428 C3427 1.398 . S
C3428 C3429 1.391 . S
C3429 H3417 0.950 . S
C3429 C3425 1.393 . S
C3429 C3428 1.391 . S
C3430 H3420 0.950 . S
C3430 C3431 1.386 . S
C3430 C3432 1.391 . S
C3431 C3430 1.386 . S
C3431 C3435 1.393 . S
C3432 H3421 0.950 . S
C3432 C3430 1.391 . S
C3432 C3433 1.400 . S
C3433 C3427 1.491 1_556 S
C3433 C3432 1.400 . S
C3433 C3434 1.398 . S
C3434 H3422 0.950 . S
C3434 C3433 1.398 . S
C3434 C3435 1.391 . S
C3435 H3423 0.950 . S
C3435 C3431 1.393 . S
C3435 C3434 1.391 . S
H3436 C3444 0.950 . S
H3437 C3449 0.950 . S
H3438 C3446 0.950 . S
H3439 C3448 0.950 . S
H3440 C3450 0.950 . S
H3441 C3452 0.950 . S
H3442 C3454 0.950 . S
H3443 C3455 0.950 . S
C3444 H3436 0.950 . S
C3444 C3445 1.386 . S
C3444 C3446 1.391 . S
C3445 C3444 1.386 . S
C3445 C3449 1.393 . S
C3446 H3438 0.950 . S
C3446 C3444 1.391 . S
C3446 C3447 1.400 . S
C3447 C3446 1.400 . S
C3447 C3448 1.398 . S
C3447 C3453 1.491 1_556 S
C3448 H3439 0.950 . S
C3448 C3447 1.398 . S
C3448 C3449 1.391 . S
C3449 H3437 0.950 . S
C3449 C3445 1.393 . S
C3449 C3448 1.391 . S
C3450 H3440 0.950 . S
C3450 C3451 1.386 . S
C3450 C3452 1.391 . S
C3451 C3450 1.386 . S
C3451 C3455 1.393 . S
C3452 H3441 0.950 . S
C3452 C3450 1.391 . S
C3452 C3453 1.400 . S
C3453 C3447 1.491 1_554 S
C3453 C3452 1.400 . S
C3453 C3454 1.398 . S
C3454 H3442 0.950 . S
C3454 C3453 1.398 . S
C3454 C3455 1.391 . S
C3455 H3443 0.950 . S
C3455 C3451 1.393 . S
C3455 C3454 1.391 . S
H3456 C3464 0.950 . S
H3457 C3469 0.950 . S
H3458 C3466 0.950 . S
H3459 C3468 0.950 . S
H3460 C3470 0.950 . S
H3461 C3472 0.950 . S
H3462 C3474 0.950 . S
H3463 C3475 0.950 . S
C3464 H3456 0.950 . S
C3464 C3465 1.386 . S
C3464 C3466 1.391 . S
C3465 C3464 1.386 . S
C3465 C3469 1.393 . S
C3466 H3458 0.950 . S
C3466 C3464 1.391 . S
C3466 C3467 1.400 . S
C3467 C3466 1.400 . S
C3467 C3468 1.398 . S
C3467 C3473 1.491 1_545 S
C3468 H3459 0.950 . S
C3468 C3467 1.398 . S
C3468 C3469 1.391 . S
C3469 H3457 0.950 . S
C3469 C3465 1.393 . S
C3469 C3468 1.391 . S
C3470 H3460 0.950 . S
C3470 C3471 1.386 . S
C3470 C3472 1.391 . S
C3471 C3470 1.386 . S
C3471 C3475 1.393 . S
C3472 H3461 0.950 . S
C3472 C3470 1.391 . S
C3472 C3473 1.400 . S
C3473 C3467 1.491 1_565 S
C3473 C3472 1.400 . S
C3473 C3474 1.398 . S
C3474 H3462 0.950 . S
C3474 C3473 1.398 . S
C3474 C3475 1.391 . S
C3475 H3463 0.950 . S
C3475 C3471 1.393 . S
C3475 C3474 1.391 . S
H3476 C3484 0.950 . S
H3477 C3489 0.950 . S
H3478 C3486 0.950 . S
H3479 C3488 1.010 . S
H3480 C3490 0.950 . S
H3481 C3492 0.950 . S
H3482 C3494 1.010 . S
H3483 C3495 0.950 . S
C3484 H3476 0.950 . S
C3484 C3485 1.386 . S
C3484 C3486 1.391 . S
C3485 C3484 1.386 . S
C3485 C3489 1.393 . S
C3486 H3478 0.950 . S
C3486 C3484 1.391 . S
C3486 C3487 1.400 . S
C3487 C3486 1.400 . S
C3487 C3488 1.398 . S
C3487 C3493 1.491 1_655 S
C3488 H3479 1.010 . S
C3488 C3487 1.398 . S
C3488 C3489 1.391 . S
C3489 H3477 0.950 . S
C3489 C3485 1.393 . S
C3489 C3488 1.391 . S
C3490 H3480 0.950 . S
C3490 C3491 1.386 . S
C3490 C3492 1.391 . S
C3491 C3490 1.386 . S
C3491 C3495 1.393 . S
C3492 H3481 0.950 . S
C3492 C3490 1.391 . S
C3492 C3493 1.400 . S
C3493 C3487 1.491 1_455 S
C3493 C3492 1.400 . S
C3493 C3494 1.398 . S
C3494 H3482 1.010 . S
C3494 C3493 1.398 . S
C3494 C3495 1.391 . S
C3495 H3483 0.950 . S
C3495 C3491 1.393 . S
C3495 C3494 1.391 . S
H3496 C3504 0.950 . S
H3497 C3509 0.950 . S
H3498 C3506 1.014 . S
H3499 C3508 0.950 . S
H3500 C3510 0.950 . S
H3501 C3512 1.014 . S
H3502 C3514 0.950 . S
H3503 C3515 0.950 . S
C3504 H3496 0.950 . S
C3504 C3505 1.386 . S
C3504 C3506 1.391 . S
C3505 C3504 1.386 . S
C3505 C3509 1.393 . S
C3506 H3498 1.014 . S
C3506 C3504 1.391 . S
C3506 C3507 1.400 . S
C3507 C3506 1.400 . S
C3507 C3508 1.398 . S
C3507 C3513 1.491 1_545 S
C3508 H3499 0.950 . S
C3508 C3507 1.398 . S
C3508 C3509 1.391 . S
C3509 H3497 0.950 . S
C3509 C3505 1.393 . S
C3509 C3508 1.391 . S
C3510 H3500 0.950 . S
C3510 C3511 1.386 . S
C3510 C3512 1.391 . S
C3511 C3510 1.386 . S
C3511 C3515 1.393 . S
C3512 H3501 1.014 . S
C3512 C3510 1.391 . S
C3512 C3513 1.400 . S
C3513 C3507 1.491 1_565 S
C3513 C3512 1.400 . S
C3513 C3514 1.398 . S
C3514 H3502 0.950 . S
C3514 C3513 1.398 . S
C3514 C3515 1.391 . S
C3515 H3503 0.950 . S
C3515 C3511 1.393 . S
C3515 C3514 1.391 . S
H3516 C3524 0.950 . S
H3517 C3529 0.950 . S
H3518 C3526 0.950 . S
H3519 C3528 0.950 . S
H3520 C3530 0.950 . S
H3521 C3532 0.950 . S
H3522 C3534 0.950 . S
H3523 C3535 0.950 . S
C3524 H3516 0.950 . S
C3524 C3525 1.386 . S
C3524 C3526 1.391 . S
C3525 C3524 1.386 . S
C3525 C3529 1.393 . S
C3526 H3518 0.950 . S
C3526 C3524 1.391 . S
C3526 C3527 1.400 . S
C3527 C3526 1.400 . S
C3527 C3528 1.398 . S
C3527 C3533 1.491 1_455 S
C3528 H3519 0.950 . S
C3528 C3527 1.398 . S
C3528 C3529 1.391 . S
C3529 H3517 0.950 . S
C3529 C3525 1.393 . S
C3529 C3528 1.391 . S
C3530 H3520 0.950 . S
C3530 C3531 1.386 . S
C3530 C3532 1.391 . S
C3531 C3530 1.386 . S
C3531 C3535 1.393 . S
C3532 H3521 0.950 . S
C3532 C3530 1.391 . S
C3532 C3533 1.400 . S
C3533 C3527 1.491 1_655 S
C3533 C3532 1.400 . S
C3533 C3534 1.398 . S
C3534 H3522 0.950 . S
C3534 C3533 1.398 . S
C3534 C3535 1.391 . S
C3535 H3523 0.950 . S
C3535 C3531 1.393 . S
C3535 C3534 1.391 . S
H3536 C3544 0.950 . S
H3537 C3549 0.950 . S
H3538 C3546 0.950 . S
H3539 C3548 0.950 . S
H3540 C3550 0.950 . S
H3541 C3552 0.950 . S
H3542 C3554 0.950 . S
H3543 C3555 0.950 . S
C3544 H3536 0.950 . S
C3544 C3545 1.386 . S
C3544 C3546 1.391 . S
C3545 C3544 1.386 . S
C3545 C3549 1.393 . S
C3546 H3538 0.950 . S
C3546 C3544 1.391 . S
C3546 C3547 1.400 . S
C3547 C3546 1.400 . S
C3547 C3548 1.398 . S
C3547 C3553 1.491 1_565 S
C3548 H3539 0.950 . S
C3548 C3547 1.398 . S
C3548 C3549 1.391 . S
C3549 H3537 0.950 . S
C3549 C3545 1.393 . S
C3549 C3548 1.391 . S
C3550 H3540 0.950 . S
C3550 C3551 1.386 . S
C3550 C3552 1.391 . S
C3551 C3550 1.386 . S
C3551 C3555 1.393 . S
C3552 H3541 0.950 . S
C3552 C3550 1.391 . S
C3552 C3553 1.400 . S
C3553 C3547 1.491 1_545 S
C3553 C3552 1.400 . S
C3553 C3554 1.398 . S
C3554 H3542 0.950 . S
C3554 C3553 1.398 . S
C3554 C3555 1.391 . S
C3555 H3543 0.950 . S
C3555 C3551 1.393 . S
C3555 C3554 1.391 . S
H3556 C3564 0.950 . S
H3557 C3569 0.950 . S
H3558 C3566 0.950 . S
H3559 C3568 1.013 . S
H3560 C3570 0.950 . S
H3561 C3572 0.950 . S
H3562 C3574 1.013 . S
H3563 C3575 0.950 . S
C3564 H3556 0.950 . S
C3564 C3565 1.386 . S
C3564 C3566 1.391 . S
C3565 C3564 1.386 . S
C3565 C3569 1.393 . S
C3566 H3558 0.950 . S
C3566 C3564 1.391 . S
C3566 C3567 1.400 . S
C3567 C3566 1.400 . S
C3567 C3568 1.398 . S
C3567 C3573 1.491 1_655 S
C3568 H3559 1.013 . S
C3568 C3567 1.398 . S
C3568 C3569 1.391 . S
C3569 H3557 0.950 . S
C3569 C3565 1.393 . S
C3569 C3568 1.391 . S
C3570 H3560 0.950 . S
C3570 C3571 1.386 . S
C3570 C3572 1.391 . S
C3571 C3570 1.386 . S
C3571 C3575 1.393 . S
C3572 H3561 0.950 . S
C3572 C3570 1.391 . S
C3572 C3573 1.400 . S
C3573 C3567 1.491 1_455 S
C3573 C3572 1.400 . S
C3573 C3574 1.398 . S
C3574 H3562 1.013 . S
C3574 C3573 1.398 . S
C3574 C3575 1.391 . S
C3575 H3563 0.950 . S
C3575 C3571 1.393 . S
C3575 C3574 1.391 . S
H3576 C3584 0.950 . S
H3577 C3589 0.950 . S
H3578 C3586 0.950 . S
H3579 C3588 0.950 . S
H3580 C3590 0.950 . S
H3581 C3592 0.950 . S
H3582 C3594 0.950 . S
H3583 C3595 0.950 . S
C3584 H3576 0.950 . S
C3584 C3585 1.386 . S
C3584 C3586 1.391 . S
C3585 C3584 1.386 . S
C3585 C3589 1.393 . S
C3586 H3578 0.950 . S
C3586 C3584 1.391 . S
C3586 C3587 1.400 . S
C3587 C3586 1.400 . S
C3587 C3588 1.398 . S
C3587 C3593 1.491 1_565 S
C3588 H3579 0.950 . S
C3588 C3587 1.398 . S
C3588 C3589 1.391 . S
C3589 H3577 0.950 . S
C3589 C3585 1.393 . S
C3589 C3588 1.391 . S
C3590 H3580 0.950 . S
C3590 C3591 1.386 . S
C3590 C3592 1.391 . S
C3591 C3590 1.386 . S
C3591 C3595 1.393 . S
C3592 H3581 0.950 . S
C3592 C3590 1.391 . S
C3592 C3593 1.400 . S
C3593 C3587 1.491 1_545 S
C3593 C3592 1.400 . S
C3593 C3594 1.398 . S
C3594 H3582 0.950 . S
C3594 C3593 1.398 . S
C3594 C3595 1.391 . S
C3595 H3583 0.950 . S
C3595 C3591 1.393 . S
C3595 C3594 1.391 . S
H3596 C3604 0.950 . S
H3597 C3609 0.950 . S
H3598 C3606 0.950 . S
H3599 C3608 0.950 . S
H3600 C3610 0.950 . S
H3601 C3612 0.950 . S
H3602 C3614 0.950 . S
H3603 C3615 0.950 . S
C3604 H3596 0.950 . S
C3604 C3605 1.386 . S
C3604 C3606 1.391 . S
C3605 C3604 1.386 . S
C3605 C3609 1.393 . S
C3606 H3598 0.950 . S
C3606 C3604 1.391 . S
C3606 C3607 1.400 . S
C3607 C3606 1.400 . S
C3607 C3608 1.398 . S
C3607 C3613 1.491 1_655 S
C3608 H3599 0.950 . S
C3608 C3607 1.398 . S
C3608 C3609 1.391 . S
C3609 H3597 0.950 . S
C3609 C3605 1.393 . S
C3609 C3608 1.391 . S
C3610 H3600 0.950 . S
C3610 C3611 1.386 . S
C3610 C3612 1.391 . S
C3611 C3610 1.386 . S
C3611 C3615 1.393 . S
C3612 H3601 0.950 . S
C3612 C3610 1.391 . S
C3612 C3613 1.400 . S
C3613 C3607 1.491 1_455 S
C3613 C3612 1.400 . S
C3613 C3614 1.398 . S
C3614 H3602 0.950 . S
C3614 C3613 1.398 . S
C3614 C3615 1.391 . S
C3615 H3603 0.950 . S
C3615 C3611 1.393 . S
C3615 C3614 1.391 . S
H3616 C3624 0.950 . S
H3617 C3629 0.950 . S
H3618 C3626 0.950 . S
H3619 C3628 0.950 . S
H3620 C3630 0.950 . S
H3621 C3632 0.950 . S
H3622 C3634 0.950 . S
H3623 C3635 0.950 . S
C3624 H3616 0.950 . S
C3624 C3625 1.386 . S
C3624 C3626 1.391 . S
C3625 C3624 1.386 . S
C3625 C3629 1.393 . S
C3626 H3618 0.950 . S
C3626 C3624 1.391 . S
C3626 C3627 1.400 . S
C3627 C3626 1.400 . S
C3627 C3628 1.398 . S
C3627 C3633 1.491 . S
C3628 H3619 0.950 . S
C3628 C3627 1.398 . S
C3628 C3629 1.391 . S
C3629 H3617 0.950 . S
C3629 C3625 1.393 . S
C3629 C3628 1.391 . S
C3630 H3620 0.950 . S
C3630 C3631 1.386 . S
C3630 C3632 1.391 . S
C3631 C3630 1.386 . S
C3631 C3635 1.393 . S
C3632 H3621 0.950 . S
C3632 C3630 1.391 . S
C3632 C3633 1.400 . S
C3633 C3627 1.491 . S
C3633 C3632 1.400 . S
C3633 C3634 1.398 . S
C3634 H3622 0.950 . S
C3634 C3633 1.398 . S
C3634 C3635 1.391 . S
C3635 H3623 0.950 . S
C3635 C3631 1.393 . S
C3635 C3634 1.391 . S
H3636 C3644 0.950 . S
H3637 C3649 0.950 . S
H3638 C3646 0.950 . S
H3639 C3648 0.950 . S
H3640 C3650 0.950 . S
H3641 C3652 0.950 . S
H3642 C3654 0.950 . S
H3643 C3655 0.950 . S
C3644 H3636 0.950 . S
C3644 C3645 1.386 . S
C3644 C3646 1.391 . S
C3645 C3644 1.386 . S
C3645 C3649 1.393 . S
C3646 H3638 0.950 . S
C3646 C3644 1.391 . S
C3646 C3647 1.400 . S
C3647 C3646 1.400 . S
C3647 C3648 1.398 . S
C3647 C3653 1.491 . S
C3648 H3639 0.950 . S
C3648 C3647 1.398 . S
C3648 C3649 1.391 . S
C3649 H3637 0.950 . S
C3649 C3645 1.393 . S
C3649 C3648 1.391 . S
C3650 H3640 0.950 . S
C3650 C3651 1.386 . S
C3650 C3652 1.391 . S
C3651 C3650 1.386 . S
C3651 C3655 1.393 . S
C3652 H3641 0.950 . S
C3652 C3650 1.391 . S
C3652 C3653 1.400 . S
C3653 C3647 1.491 . S
C3653 C3652 1.400 . S
C3653 C3654 1.398 . S
C3654 H3642 0.950 . S
C3654 C3653 1.398 . S
C3654 C3655 1.391 . S
C3655 H3643 0.950 . S
C3655 C3651 1.393 . S
C3655 C3654 1.391 . S
H3656 C3664 0.950 . S
H3657 C3669 0.950 . S
H3658 C3666 0.950 . S
H3659 C3668 0.950 . S
H3660 C3670 0.950 . S
H3661 C3672 0.950 . S
H3662 C3674 0.950 . S
H3663 C3675 0.950 . S
C3664 H3656 0.950 . S
C3664 C3665 1.386 . S
C3664 C3666 1.391 . S
C3665 C3664 1.386 . S
C3665 C3669 1.393 . S
C3666 H3658 0.950 . S
C3666 C3664 1.391 . S
C3666 C3667 1.400 . S
C3667 C3666 1.400 . S
C3667 C3668 1.398 . S
C3667 C3673 1.491 . S
C3668 H3659 0.950 . S
C3668 C3667 1.398 . S
C3668 C3669 1.391 . S
C3669 H3657 0.950 . S
C3669 C3665 1.393 . S
C3669 C3668 1.391 . S
C3670 H3660 0.950 . S
C3670 C3671 1.386 . S
C3670 C3672 1.391 . S
C3671 C3670 1.386 . S
C3671 C3675 1.393 . S
C3672 H3661 0.950 . S
C3672 C3670 1.391 . S
C3672 C3673 1.400 . S
C3673 C3667 1.491 . S
C3673 C3672 1.400 . S
C3673 C3674 1.398 . S
C3674 H3662 0.950 . S
C3674 C3673 1.398 . S
C3674 C3675 1.391 . S
C3675 H3663 0.950 . S
C3675 C3671 1.393 . S
C3675 C3674 1.391 . S
H3676 C3684 0.950 . S
H3677 C3689 0.950 . S
H3678 C3686 0.950 . S
H3679 C3688 0.950 . S
H3680 C3690 0.950 . S
H3681 C3692 0.950 . S
H3682 C3694 0.950 . S
H3683 C3695 0.950 . S
C3684 H3676 0.950 . S
C3684 C3685 1.386 . S
C3684 C3686 1.391 . S
C3685 C3684 1.386 . S
C3685 C3689 1.393 . S
C3686 H3678 0.950 . S
C3686 C3684 1.391 . S
C3686 C3687 1.400 . S
C3687 C3686 1.400 . S
C3687 C3688 1.398 . S
C3687 C3693 1.491 . S
C3688 H3679 0.950 . S
C3688 C3687 1.398 . S
C3688 C3689 1.391 . S
C3689 H3677 0.950 . S
C3689 C3685 1.393 . S
C3689 C3688 1.391 . S
C3690 H3680 0.950 . S
C3690 C3691 1.386 . S
C3690 C3692 1.391 . S
C3691 C3690 1.386 . S
C3691 C3695 1.393 . S
C3692 H3681 0.950 . S
C3692 C3690 1.391 . S
C3692 C3693 1.400 . S
C3693 C3687 1.491 . S
C3693 C3692 1.400 . S
C3693 C3694 1.398 . S
C3694 H3682 0.950 . S
C3694 C3693 1.398 . S
C3694 C3695 1.391 . S
C3695 H3683 0.950 . S
C3695 C3691 1.393 . S
C3695 C3694 1.391 . S
H3696 C3704 0.950 . S
H3697 C3709 0.950 . S
H3698 C3706 0.950 . S
H3699 C3708 0.950 . S
H3700 C3710 0.950 . S
H3701 C3712 0.950 . S
H3702 C3714 0.950 . S
H3703 C3715 0.950 . S
C3704 H3696 0.950 . S
C3704 C3705 1.386 . S
C3704 C3706 1.391 . S
C3705 C3704 1.386 . S
C3705 C3709 1.393 . S
C3706 H3698 0.950 . S
C3706 C3704 1.391 . S
C3706 C3707 1.400 . S
C3707 C3706 1.400 . S
C3707 C3708 1.398 . S
C3707 C3713 1.491 . S
C3708 H3699 0.950 . S
C3708 C3707 1.398 . S
C3708 C3709 1.391 . S
C3709 H3697 0.950 . S
C3709 C3705 1.393 . S
C3709 C3708 1.391 . S
C3710 H3700 0.950 . S
C3710 C3711 1.386 . S
C3710 C3712 1.391 . S
C3711 C3710 1.386 . S
C3711 C3715 1.393 . S
C3712 H3701 0.950 . S
C3712 C3710 1.391 . S
C3712 C3713 1.400 . S
C3713 C3707 1.491 . S
C3713 C3712 1.400 . S
C3713 C3714 1.398 . S
C3714 H3702 0.950 . S
C3714 C3713 1.398 . S
C3714 C3715 1.391 . S
C3715 H3703 0.950 . S
C3715 C3711 1.393 . S
C3715 C3714 1.391 . S
H3716 C3724 0.950 . S
H3717 C3729 0.950 . S
H3718 C3726 0.950 . S
H3719 C3728 0.950 . S
H3720 C3730 0.950 . S
H3721 C3732 0.950 . S
H3722 C3734 0.950 . S
H3723 C3735 0.950 . S
C3724 H3716 0.950 . S
C3724 C3725 1.386 . S
C3724 C3726 1.391 . S
C3725 C3724 1.386 . S
C3725 C3729 1.393 . S
C3726 H3718 0.950 . S
C3726 C3724 1.391 . S
C3726 C3727 1.400 . S
C3727 C3726 1.400 . S
C3727 C3728 1.398 . S
C3727 C3733 1.491 . S
C3728 H3719 0.950 . S
C3728 C3727 1.398 . S
C3728 C3729 1.391 . S
C3729 H3717 0.950 . S
C3729 C3725 1.393 . S
C3729 C3728 1.391 . S
C3730 H3720 0.950 . S
C3730 C3731 1.386 . S
C3730 C3732 1.391 . S
C3731 C3730 1.386 . S
C3731 C3735 1.393 . S
C3732 H3721 0.950 . S
C3732 C3730 1.391 . S
C3732 C3733 1.400 . S
C3733 C3727 1.491 . S
C3733 C3732 1.400 . S
C3733 C3734 1.398 . S
C3734 H3722 0.950 . S
C3734 C3733 1.398 . S
C3734 C3735 1.391 . S
C3735 H3723 0.950 . S
C3735 C3731 1.393 . S
C3735 C3734 1.391 . S
H3736 C3744 0.950 . S
H3737 C3749 0.950 . S
H3738 C3746 0.950 . S
H3739 C3748 0.950 . S
H3740 C3750 0.950 . S
H3741 C3752 0.950 . S
H3742 C3754 0.950 . S
H3743 C3755 0.950 . S
C3744 H3736 0.950 . S
C3744 C3745 1.386 . S
C3744 C3746 1.391 . S
C3745 C3744 1.386 . S
C3745 C3749 1.393 . S
C3746 H3738 0.950 . S
C3746 C3744 1.391 . S
C3746 C3747 1.400 . S
C3747 C3746 1.400 . S
C3747 C3748 1.398 . S
C3747 C3753 1.491 . S
C3748 H3739 0.950 . S
C3748 C3747 1.398 . S
C3748 C3749 1.391 . S
C3749 H3737 0.950 . S
C3749 C3745 1.393 . S
C3749 C3748 1.391 . S
C3750 H3740 0.950 . S
C3750 C3751 1.386 . S
C3750 C3752 1.391 . S
C3751 C3750 1.386 . S
C3751 C3755 1.393 . S
C3752 H3741 0.950 . S
C3752 C3750 1.391 . S
C3752 C3753 1.400 . S
C3753 C3747 1.491 . S
C3753 C3752 1.400 . S
C3753 C3754 1.398 . S
C3754 H3742 0.950 . S
C3754 C3753 1.398 . S
C3754 C3755 1.391 . S
C3755 H3743 0.950 . S
C3755 C3751 1.393 . S
C3755 C3754 1.391 . S
H3756 C3764 0.950 . S
H3757 C3769 0.950 . S
H3758 C3766 0.950 . S
H3759 C3768 0.950 . S
H3760 C3770 0.950 . S
H3761 C3772 0.950 . S
H3762 C3774 0.950 . S
H3763 C3775 0.950 . S
C3764 H3756 0.950 . S
C3764 C3765 1.386 . S
C3764 C3766 1.391 . S
C3765 C3764 1.386 . S
C3765 C3769 1.393 . S
C3766 H3758 0.950 . S
C3766 C3764 1.391 . S
C3766 C3767 1.400 . S
C3767 C3766 1.400 . S
C3767 C3768 1.398 . S
C3767 C3773 1.491 . S
C3768 H3759 0.950 . S
C3768 C3767 1.398 . S
C3768 C3769 1.391 . S
C3769 H3757 0.950 . S
C3769 C3765 1.393 . S
C3769 C3768 1.391 . S
C3770 H3760 0.950 . S
C3770 C3771 1.386 . S
C3770 C3772 1.391 . S
C3771 C3770 1.386 . S
C3771 C3775 1.393 . S
C3772 H3761 0.950 . S
C3772 C3770 1.391 . S
C3772 C3773 1.400 . S
C3773 C3767 1.491 . S
C3773 C3772 1.400 . S
C3773 C3774 1.398 . S
C3774 H3762 0.950 . S
C3774 C3773 1.398 . S
C3774 C3775 1.391 . S
C3775 H3763 0.950 . S
C3775 C3771 1.393 . S
C3775 C3774 1.391 . S
H3776 C3784 0.950 . S
H3777 C3789 0.950 . S
H3778 C3786 0.950 . S
H3779 C3788 0.950 . S
H3780 C3790 0.950 . S
H3781 C3792 0.950 . S
H3782 C3794 0.950 . S
H3783 C3795 0.950 . S
C3784 H3776 0.950 . S
C3784 C3785 1.386 . S
C3784 C3786 1.391 . S
C3785 C3784 1.386 . S
C3785 C3789 1.393 . S
C3786 H3778 0.950 . S
C3786 C3784 1.391 . S
C3786 C3787 1.400 . S
C3787 C3786 1.400 . S
C3787 C3788 1.398 . S
C3787 C3793 1.491 . S
C3788 H3779 0.950 . S
C3788 C3787 1.398 . S
C3788 C3789 1.391 . S
C3789 H3777 0.950 . S
C3789 C3785 1.393 . S
C3789 C3788 1.391 . S
C3790 H3780 0.950 . S
C3790 C3791 1.386 . S
C3790 C3792 1.391 . S
C3791 C3790 1.386 . S
C3791 C3795 1.393 . S
C3792 H3781 0.950 . S
C3792 C3790 1.391 . S
C3792 C3793 1.400 . S
C3793 C3787 1.491 . S
C3793 C3792 1.400 . S
C3793 C3794 1.398 . S
C3794 H3782 0.950 . S
C3794 C3793 1.398 . S
C3794 C3795 1.391 . S
C3795 H3783 0.950 . S
C3795 C3791 1.393 . S
C3795 C3794 1.391 . S
H3796 C3804 0.950 . S
H3797 C3809 0.950 . S
H3798 C3806 0.950 . S
H3799 C3808 0.950 . S
H3800 C3810 0.950 . S
H3801 C3812 0.950 . S
H3802 C3814 0.950 . S
H3803 C3815 0.950 . S
C3804 H3796 0.950 . S
C3804 C3805 1.386 . S
C3804 C3806 1.391 . S
C3805 C3804 1.386 . S
C3805 C3809 1.393 . S
C3806 H3798 0.950 . S
C3806 C3804 1.391 . S
C3806 C3807 1.400 . S
C3807 C3806 1.400 . S
C3807 C3808 1.398 . S
C3807 C3813 1.491 . S
C3808 H3799 0.950 . S
C3808 C3807 1.398 . S
C3808 C3809 1.391 . S
C3809 H3797 0.950 . S
C3809 C3805 1.393 . S
C3809 C3808 1.391 . S
C3810 H3800 0.950 . S
C3810 C3811 1.386 . S
C3810 C3812 1.391 . S
C3811 C3810 1.386 . S
C3811 C3815 1.393 . S
C3812 H3801 0.950 . S
C3812 C3810 1.391 . S
C3812 C3813 1.400 . S
C3813 C3807 1.491 . S
C3813 C3812 1.400 . S
C3813 C3814 1.398 . S
C3814 H3802 0.950 . S
C3814 C3813 1.398 . S
C3814 C3815 1.391 . S
C3815 H3803 0.950 . S
C3815 C3811 1.393 . S
C3815 C3814 1.391 . S
H3816 C3824 0.950 . S
H3817 C3829 0.950 . S
H3818 C3826 0.950 . S
H3819 C3828 0.950 . S
H3820 C3830 0.950 . S
H3821 C3832 0.950 . S
H3822 C3834 0.950 . S
H3823 C3835 0.950 . S
C3824 H3816 0.950 . S
C3824 C3825 1.386 . S
C3824 C3826 1.391 . S
C3825 C3824 1.386 . S
C3825 C3829 1.393 . S
C3826 H3818 0.950 . S
C3826 C3824 1.391 . S
C3826 C3827 1.400 . S
C3827 C3826 1.400 . S
C3827 C3828 1.398 . S
C3827 C3833 1.491 . S
C3828 H3819 0.950 . S
C3828 C3827 1.398 . S
C3828 C3829 1.391 . S
C3829 H3817 0.950 . S
C3829 C3825 1.393 . S
C3829 C3828 1.391 . S
C3830 H3820 0.950 . S
C3830 C3831 1.386 . S
C3830 C3832 1.391 . S
C3831 C3830 1.386 . S
C3831 C3835 1.393 . S
C3832 H3821 0.950 . S
C3832 C3830 1.391 . S
C3832 C3833 1.400 . S
C3833 C3827 1.491 . S
C3833 C3832 1.400 . S
C3833 C3834 1.398 . S
C3834 H3822 0.950 . S
C3834 C3833 1.398 . S
C3834 C3835 1.391 . S
C3835 H3823 0.950 . S
C3835 C3831 1.393 . S
C3835 C3834 1.391 . S
H3836 C3844 0.950 . S
H3837 C3849 0.950 . S
H3838 C3846 0.950 . S
H3839 C3848 0.950 . S
H3840 C3850 0.950 . S
H3841 C3852 0.950 . S
H3842 C3854 0.950 . S
H3843 C3855 0.950 . S
C3844 H3836 0.950 . S
C3844 C3845 1.386 . S
C3844 C3846 1.391 . S
C3845 C3844 1.386 . S
C3845 C3849 1.393 . S
C3846 H3838 0.950 . S
C3846 C3844 1.391 . S
C3846 C3847 1.400 . S
C3847 C3846 1.400 . S
C3847 C3848 1.398 . S
C3847 C3853 1.491 . S
C3848 H3839 0.950 . S
C3848 C3847 1.398 . S
C3848 C3849 1.391 . S
C3849 H3837 0.950 . S
C3849 C3845 1.393 . S
C3849 C3848 1.391 . S
C3850 H3840 0.950 . S
C3850 C3851 1.386 . S
C3850 C3852 1.391 . S
C3851 C3850 1.386 . S
C3851 C3855 1.393 . S
C3852 H3841 0.950 . S
C3852 C3850 1.391 . S
C3852 C3853 1.400 . S
C3853 C3847 1.491 . S
C3853 C3852 1.400 . S
C3853 C3854 1.398 . S
C3854 H3842 0.950 . S
C3854 C3853 1.398 . S
C3854 C3855 1.391 . S
C3855 H3843 0.950 . S
C3855 C3851 1.393 . S
C3855 C3854 1.391 . S
H3856 C3864 0.950 . S
H3857 C3869 0.950 . S
H3858 C3866 0.950 . S
H3859 C3868 0.950 . S
H3860 C3870 0.950 . S
H3861 C3872 0.950 . S
H3862 C3874 0.950 . S
H3863 C3875 0.950 . S
C3864 H3856 0.950 . S
C3864 C3865 1.386 . S
C3864 C3866 1.391 . S
C3865 C3864 1.386 . S
C3865 C3869 1.393 . S
C3866 H3858 0.950 . S
C3866 C3864 1.391 . S
C3866 C3867 1.400 . S
C3867 C3866 1.400 . S
C3867 C3868 1.398 . S
C3867 C3873 1.491 . S
C3868 H3859 0.950 . S
C3868 C3867 1.398 . S
C3868 C3869 1.391 . S
C3869 H3857 0.950 . S
C3869 C3865 1.393 . S
C3869 C3868 1.391 . S
C3870 H3860 0.950 . S
C3870 C3871 1.386 . S
C3870 C3872 1.391 . S
C3871 C3870 1.386 . S
C3871 C3875 1.393 . S
C3872 H3861 0.950 . S
C3872 C3870 1.391 . S
C3872 C3873 1.400 . S
C3873 C3867 1.491 . S
C3873 C3872 1.400 . S
C3873 C3874 1.398 . S
C3874 H3862 0.950 . S
C3874 C3873 1.398 . S
C3874 C3875 1.391 . S
C3875 H3863 0.950 . S
C3875 C3871 1.393 . S
C3875 C3874 1.391 . S
H3876 C3884 0.950 . S
H3877 C3889 0.950 . S
H3878 C3886 0.950 . S
H3879 C3888 0.950 . S
H3880 C3890 0.950 . S
H3881 C3892 0.950 . S
H3882 C3894 0.950 . S
H3883 C3895 0.950 . S
C3884 H3876 0.950 . S
C3884 C3885 1.386 . S
C3884 C3886 1.391 . S
C3885 C3884 1.386 . S
C3885 C3889 1.393 . S
C3886 H3878 0.950 . S
C3886 C3884 1.391 . S
C3886 C3887 1.400 . S
C3887 C3886 1.400 . S
C3887 C3888 1.398 . S
C3887 C3893 1.491 . S
C3888 H3879 0.950 . S
C3888 C3887 1.398 . S
C3888 C3889 1.391 . S
C3889 H3877 0.950 . S
C3889 C3885 1.393 . S
C3889 C3888 1.391 . S
C3890 H3880 0.950 . S
C3890 C3891 1.386 . S
C3890 C3892 1.391 . S
C3891 C3890 1.386 . S
C3891 C3895 1.393 . S
C3892 H3881 0.950 . S
C3892 C3890 1.391 . S
C3892 C3893 1.400 . S
C3893 C3887 1.491 . S
C3893 C3892 1.400 . S
C3893 C3894 1.398 . S
C3894 H3882 0.950 . S
C3894 C3893 1.398 . S
C3894 C3895 1.391 . S
C3895 H3883 0.950 . S
C3895 C3891 1.393 . S
C3895 C3894 1.391 . S
H3896 C3904 0.950 . S
H3897 C3909 0.950 . S
H3898 C3906 0.950 . S
H3899 C3908 0.950 . S
H3900 C3910 0.950 . S
H3901 C3912 0.950 . S
H3902 C3914 0.950 . S
H3903 C3915 0.950 . S
C3904 H3896 0.950 . S
C3904 C3905 1.386 . S
C3904 C3906 1.391 . S
C3905 C3904 1.386 . S
C3905 C3909 1.393 . S
C3906 H3898 0.950 . S
C3906 C3904 1.391 . S
C3906 C3907 1.400 . S
C3907 C3906 1.400 . S
C3907 C3908 1.398 . S
C3907 C3913 1.491 . S
C3908 H3899 0.950 . S
C3908 C3907 1.398 . S
C3908 C3909 1.391 . S
C3909 H3897 0.950 . S
C3909 C3905 1.393 . S
C3909 C3908 1.391 . S
C3910 H3900 0.950 . S
C3910 C3911 1.386 . S
C3910 C3912 1.391 . S
C3911 C3910 1.386 . S
C3911 C3915 1.393 . S
C3912 H3901 0.950 . S
C3912 C3910 1.391 . S
C3912 C3913 1.400 . S
C3913 C3907 1.491 . S
C3913 C3912 1.400 . S
C3913 C3914 1.398 . S
C3914 H3902 0.950 . S
C3914 C3913 1.398 . S
C3914 C3915 1.391 . S
C3915 H3903 0.950 . S
C3915 C3911 1.393 . S
C3915 C3914 1.391 . S
H3916 C3924 0.950 . S
H3917 C3929 0.950 . S
H3918 C3926 0.950 . S
H3919 C3928 0.950 . S
H3920 C3930 0.950 . S
H3921 C3932 0.950 . S
H3922 C3934 0.950 . S
H3923 C3935 0.950 . S
C3924 H3916 0.950 . S
C3924 C3925 1.386 . S
C3924 C3926 1.391 . S
C3925 C3924 1.386 . S
C3925 C3929 1.393 . S
C3926 H3918 0.950 . S
C3926 C3924 1.391 . S
C3926 C3927 1.400 . S
C3927 C3926 1.400 . S
C3927 C3928 1.398 . S
C3927 C3933 1.491 . S
C3928 H3919 0.950 . S
C3928 C3927 1.398 . S
C3928 C3929 1.391 . S
C3929 H3917 0.950 . S
C3929 C3925 1.393 . S
C3929 C3928 1.391 . S
C3930 H3920 0.950 . S
C3930 C3931 1.386 . S
C3930 C3932 1.391 . S
C3931 C3930 1.386 . S
C3931 C3935 1.393 . S
C3932 H3921 0.950 . S
C3932 C3930 1.391 . S
C3932 C3933 1.400 . S
C3933 C3927 1.491 . S
C3933 C3932 1.400 . S
C3933 C3934 1.398 . S
C3934 H3922 0.950 . S
C3934 C3933 1.398 . S
C3934 C3935 1.391 . S
C3935 H3923 0.950 . S
C3935 C3931 1.393 . S
C3935 C3934 1.391 . S
H3936 C3944 0.950 . S
H3937 C3949 0.950 . S
H3938 C3946 0.950 . S
H3939 C3948 0.950 . S
H3940 C3950 0.950 . S
H3941 C3952 0.950 . S
H3942 C3954 0.950 . S
H3943 C3955 0.950 . S
C3944 H3936 0.950 . S
C3944 C3945 1.386 . S
C3944 C3946 1.391 . S
C3945 C3944 1.386 . S
C3945 C3949 1.393 . S
C3946 H3938 0.950 . S
C3946 C3944 1.391 . S
C3946 C3947 1.400 . S
C3947 C3946 1.400 . S
C3947 C3948 1.398 . S
C3947 C3953 1.491 . S
C3948 H3939 0.950 . S
C3948 C3947 1.398 . S
C3948 C3949 1.391 . S
C3949 H3937 0.950 . S
C3949 C3945 1.393 . S
C3949 C3948 1.391 . S
C3950 H3940 0.950 . S
C3950 C3951 1.386 . S
C3950 C3952 1.391 . S
C3951 C3950 1.386 . S
C3951 C3955 1.393 . S
C3952 H3941 0.950 . S
C3952 C3950 1.391 . S
C3952 C3953 1.400 . S
C3953 C3947 1.491 . S
C3953 C3952 1.400 . S
C3953 C3954 1.398 . S
C3954 H3942 0.950 . S
C3954 C3953 1.398 . S
C3954 C3955 1.391 . S
C3955 H3943 0.950 . S
C3955 C3951 1.393 . S
C3955 C3954 1.391 . S
H3956 C3964 0.950 . S
H3957 C3969 0.950 . S
H3958 C3966 0.950 . S
H3959 C3968 0.950 . S
H3960 C3970 0.950 . S
H3961 C3972 0.950 . S
H3962 C3974 0.950 . S
H3963 C3975 0.950 . S
C3964 H3956 0.950 . S
C3964 C3965 1.386 . S
C3964 C3966 1.391 . S
C3965 C3964 1.386 . S
C3965 C3969 1.393 . S
C3966 H3958 0.950 . S
C3966 C3964 1.391 . S
C3966 C3967 1.400 . S
C3967 C3966 1.400 . S
C3967 C3968 1.398 . S
C3967 C3973 1.491 . S
C3968 H3959 0.950 . S
C3968 C3967 1.398 . S
C3968 C3969 1.391 . S
C3969 H3957 0.950 . S
C3969 C3965 1.393 . S
C3969 C3968 1.391 . S
C3970 H3960 0.950 . S
C3970 C3971 1.386 . S
C3970 C3972 1.391 . S
C3971 C3970 1.386 . S
C3971 C3975 1.393 . S
C3972 H3961 0.950 . S
C3972 C3970 1.391 . S
C3972 C3973 1.400 . S
C3973 C3967 1.491 . S
C3973 C3972 1.400 . S
C3973 C3974 1.398 . S
C3974 H3962 0.950 . S
C3974 C3973 1.398 . S
C3974 C3975 1.391 . S
C3975 H3963 0.950 . S
C3975 C3971 1.393 . S
C3975 C3974 1.391 . S
H3976 C3984 0.950 . S
H3977 C3989 0.950 . S
H3978 C3986 0.950 . S
H3979 C3988 0.950 . S
H3980 C3990 0.950 . S
H3981 C3992 0.950 . S
H3982 C3994 0.950 . S
H3983 C3995 0.950 . S
C3984 H3976 0.950 . S
C3984 C3985 1.386 . S
C3984 C3986 1.391 . S
C3985 C3984 1.386 . S
C3985 C3989 1.393 . S
C3986 H3978 0.950 . S
C3986 C3984 1.391 . S
C3986 C3987 1.400 . S
C3987 C3986 1.400 . S
C3987 C3988 1.398 . S
C3987 C3993 1.491 . S
C3988 H3979 0.950 . S
C3988 C3987 1.398 . S
C3988 C3989 1.391 . S
C3989 H3977 0.950 . S
C3989 C3985 1.393 . S
C3989 C3988 1.391 . S
C3990 H3980 0.950 . S
C3990 C3991 1.386 . S
C3990 C3992 1.391 . S
C3991 C3990 1.386 . S
C3991 C3995 1.393 . S
C3992 H3981 0.950 . S
C3992 C3990 1.391 . S
C3992 C3993 1.400 . S
C3993 C3987 1.491 . S
C3993 C3992 1.400 . S
C3993 C3994 1.398 . S
C3994 H3982 0.950 . S
C3994 C3993 1.398 . S
C3994 C3995 1.391 . S
C3995 H3983 0.950 . S
C3995 C3991 1.393 . S
C3995 C3994 1.391 . S
H3996 C4004 0.950 . S
H3997 C4009 0.950 . S
H3998 C4006 0.950 . S
H3999 C4008 0.950 . S
H4000 C4010 0.950 . S
H4001 C4012 0.950 . S
H4002 C4014 0.950 . S
H4003 C4015 0.950 . S
C4004 H3996 0.950 . S
C4004 C4005 1.386 . S
C4004 C4006 1.391 . S
C4005 C4004 1.386 . S
C4005 C4009 1.393 . S
C4006 H3998 0.950 . S
C4006 C4004 1.391 . S
C4006 C4007 1.400 . S
C4007 C4006 1.400 . S
C4007 C4008 1.398 . S
C4007 C4013 1.491 . S
C4008 H3999 0.950 . S
C4008 C4007 1.398 . S
C4008 C4009 1.391 . S
C4009 H3997 0.950 . S
C4009 C4005 1.393 . S
C4009 C4008 1.391 . S
C4010 H4000 0.950 . S
C4010 C4011 1.386 . S
C4010 C4012 1.391 . S
C4011 C4010 1.386 . S
C4011 C4015 1.393 . S
C4012 H4001 0.950 . S
C4012 C4010 1.391 . S
C4012 C4013 1.400 . S
C4013 C4007 1.491 . S
C4013 C4012 1.400 . S
C4013 C4014 1.398 . S
C4014 H4002 0.950 . S
C4014 C4013 1.398 . S
C4014 C4015 1.391 . S
C4015 H4003 0.950 . S
C4015 C4011 1.393 . S
C4015 C4014 1.391 . S
H4016 C4024 0.950 . S
H4017 C4029 0.950 . S
H4018 C4026 0.950 . S
H4019 C4028 0.950 . S
H4020 C4030 0.950 . S
H4021 C4032 0.950 . S
H4022 C4034 0.950 . S
H4023 C4035 0.950 . S
C4024 H4016 0.950 . S
C4024 C4025 1.386 . S
C4024 C4026 1.391 . S
C4025 C4024 1.386 . S
C4025 C4029 1.393 . S
C4026 H4018 0.950 . S
C4026 C4024 1.391 . S
C4026 C4027 1.400 . S
C4027 C4026 1.400 . S
C4027 C4028 1.398 . S
C4027 C4033 1.491 . S
C4028 H4019 0.950 . S
C4028 C4027 1.398 . S
C4028 C4029 1.391 . S
C4029 H4017 0.950 . S
C4029 C4025 1.393 . S
C4029 C4028 1.391 . S
C4030 H4020 0.950 . S
C4030 C4031 1.386 . S
C4030 C4032 1.391 . S
C4031 C4030 1.386 . S
C4031 C4035 1.393 . S
C4032 H4021 0.950 . S
C4032 C4030 1.391 . S
C4032 C4033 1.400 . S
C4033 C4027 1.491 . S
C4033 C4032 1.400 . S
C4033 C4034 1.398 . S
C4034 H4022 0.950 . S
C4034 C4033 1.398 . S
C4034 C4035 1.391 . S
C4035 H4023 0.950 . S
C4035 C4031 1.393 . S
C4035 C4034 1.391 . S
H4036 C4044 0.950 . S
H4037 C4049 0.950 . S
H4038 C4046 0.950 . S
H4039 C4048 0.950 . S
H4040 C4050 0.950 . S
H4041 C4052 0.950 . S
H4042 C4054 0.950 . S
H4043 C4055 0.950 . S
C4044 H4036 0.950 . S
C4044 C4045 1.386 . S
C4044 C4046 1.391 . S
C4045 C4044 1.386 . S
C4045 C4049 1.393 . S
C4046 H4038 0.950 . S
C4046 C4044 1.391 . S
C4046 C4047 1.400 . S
C4047 C4046 1.400 . S
C4047 C4048 1.398 . S
C4047 C4053 1.491 . S
C4048 H4039 0.950 . S
C4048 C4047 1.398 . S
C4048 C4049 1.391 . S
C4049 H4037 0.950 . S
C4049 C4045 1.393 . S
C4049 C4048 1.391 . S
C4050 H4040 0.950 . S
C4050 C4051 1.386 . S
C4050 C4052 1.391 . S
C4051 C4050 1.386 . S
C4051 C4055 1.393 . S
C4052 H4041 0.950 . S
C4052 C4050 1.391 . S
C4052 C4053 1.400 . S
C4053 C4047 1.491 . S
C4053 C4052 1.400 . S
C4053 C4054 1.398 . S
C4054 H4042 0.950 . S
C4054 C4053 1.398 . S
C4054 C4055 1.391 . S
C4055 H4043 0.950 . S
C4055 C4051 1.393 . S
C4055 C4054 1.391 . S
H4056 C4064 0.950 . S
H4057 C4069 0.950 . S
H4058 C4066 0.950 . S
H4059 C4068 0.950 . S
H4060 C4070 0.950 . S
H4061 C4072 0.950 . S
H4062 C4074 0.950 . S
H4063 C4075 0.950 . S
C4064 H4056 0.950 . S
C4064 C4065 1.386 . S
C4064 C4066 1.391 . S
C4065 C4064 1.386 . S
C4065 C4069 1.393 . S
C4066 H4058 0.950 . S
C4066 C4064 1.391 . S
C4066 C4067 1.400 . S
C4067 C4066 1.400 . S
C4067 C4068 1.398 . S
C4067 C4073 1.491 . S
C4068 H4059 0.950 . S
C4068 C4067 1.398 . S
C4068 C4069 1.391 . S
C4069 H4057 0.950 . S
C4069 C4065 1.393 . S
C4069 C4068 1.391 . S
C4070 H4060 0.950 . S
C4070 C4071 1.386 . S
C4070 C4072 1.391 . S
C4071 C4070 1.386 . S
C4071 C4075 1.393 . S
C4072 H4061 0.950 . S
C4072 C4070 1.391 . S
C4072 C4073 1.400 . S
C4073 C4067 1.491 . S
C4073 C4072 1.400 . S
C4073 C4074 1.398 . S
C4074 H4062 0.950 . S
C4074 C4073 1.398 . S
C4074 C4075 1.391 . S
C4075 H4063 0.950 . S
C4075 C4071 1.393 . S
C4075 C4074 1.391 . S
H4076 C4084 0.950 . S
H4077 C4089 0.950 . S
H4078 C4086 0.950 . S
H4079 C4088 0.950 . S
H4080 C4090 0.950 . S
H4081 C4092 0.950 . S
H4082 C4094 0.950 . S
H4083 C4095 0.950 . S
C4084 H4076 0.950 . S
C4084 C4085 1.386 . S
C4084 C4086 1.391 . S
C4085 C4084 1.386 . S
C4085 C4089 1.393 . S
C4086 H4078 0.950 . S
C4086 C4084 1.391 . S
C4086 C4087 1.400 . S
C4087 C4086 1.400 . S
C4087 C4088 1.398 . S
C4087 C4093 1.491 . S
C4088 H4079 0.950 . S
C4088 C4087 1.398 . S
C4088 C4089 1.391 . S
C4089 H4077 0.950 . S
C4089 C4085 1.393 . S
C4089 C4088 1.391 . S
C4090 H4080 0.950 . S
C4090 C4091 1.386 . S
C4090 C4092 1.391 . S
C4091 C4090 1.386 . S
C4091 C4095 1.393 . S
C4092 H4081 0.950 . S
C4092 C4090 1.391 . S
C4092 C4093 1.400 . S
C4093 C4087 1.491 . S
C4093 C4092 1.400 . S
C4093 C4094 1.398 . S
C4094 H4082 0.950 . S
C4094 C4093 1.398 . S
C4094 C4095 1.391 . S
C4095 H4083 0.950 . S
C4095 C4091 1.393 . S
C4095 C4094 1.391 . S
C2825 C2609 1.309 . S
C2831 C29 1.320 . S
C2845 C117 1.308 . S
C2851 C2689 1.321 . S
C2865 C2777 1.312 . S
C2871 C233 1.318 . S
C2885 C2521 1.319 . S
C2891 C293 1.310 . S
C2905 C401 1.313 . S
C2911 C2396 1.317 . S
C2925 C2141 1.315 . S
C2931 C469 1.314 . S
C2945 C548 1.320 . S
C2951 C2229 1.309 . S
C2965 C2308 1.318 . S
C2971 C665 1.312 . S
C2985 C724 1.320 . S
C2991 C1877 1.309 . S
C3005 C821 1.319 . S
C3011 C1956 1.311 . S
C3025 C2073 1.312 . S
C3031 C909 1.318 . S
C3045 C988 1.317 . S
C3051 C1809 1.313 . S
C3065 C1701 1.321 . S
C3071 C1113 1.308 . S
C3085 C1437 1.309 . S
C3091 C1201 1.321 . S
C3105 C1281 1.317 . S
C3111 C1516 1.314 . S
C3125 C1369 1.319 . S
C3131 C1641 1.309 . S
C3145 C49 1.468 . S
C3151 C900 1.459 . S
C3165 C997 1.461 . S
C3171 C137 1.467 . S
C3185 C733 1.459 . S
C3191 C196 1.469 . S
C3205 C812 1.459 . S
C3211 C313 1.468 . S
C3225 C381 1.463 . S
C3231 C1289 1.465 . S
C3245 C1377 1.459 . S
C3251 C489 1.468 . S
C3265 C1105 1.458 . S
C3271 C585 1.469 . S
C3285 C1193 1.462 . S
C3291 C645 1.466 . S
C3305 C1457 1.469 . S
C3311 C2317 1.459 . S
C3325 C2405 1.460 . S
C3331 C1553 1.467 . S
C3345 C2132 1.458 . S
C3351 C1604 1.469 . S
C3365 C1721 1.469 . S
C3371 C2220 1.459 . S
C3385 C1789 1.461 . S
C3391 C2697 1.467 . S
C3405 C2785 1.464 . S
C3411 C1897 1.464 . S
C3425 C2513 1.466 . S
C3431 C1993 1.462 . S
C3445 C2053 1.464 . S
C3451 C2601 1.463 . S
C3465 C57 0.857 . S
C3471 C372 0.860 . S
C3485 C145 0.857 . S
C3491 C497 0.860 . S
C3505 C577 0.861 . S
C3511 C205 0.858 . S
C3525 C321 0.862 . S
C3531 C636 0.859 . S
C3545 C753 0.869 . S
C3551 C1085 0.873 . S
C3565 C1173 0.874 . S
C3571 C849 0.870 . S
C3585 C1252 0.873 . S
C3591 C937 0.871 . S
C3605 C1017 0.871 . S
C3611 C1340 0.873 . S
C3625 C1465 0.860 . S
C3631 C1780 0.857 . S
C3645 C1905 0.858 . S
C3651 C1545 0.857 . S
C3665 C1613 0.861 . S
C3671 C1985 0.858 . S
C3685 C2044 0.861 . S
C3691 C1729 0.862 . S
C3705 C2493 0.874 . S
C3711 C2169 0.870 . S
C3725 C2257 0.872 . S
C3731 C2581 0.870 . S
C3745 C2337 0.871 . S
C3751 C2660 0.871 . S
C3765 C2425 0.870 . S
C3771 C2748 0.874 . S
C3785 C20 1.546 . S
C3791 C460 1.538 . S
C3805 C108 1.538 . S
C3811 C557 1.545 . S
C3825 C673 1.538 . S
C3831 C225 1.545 . S
C3845 C409 1.538 . S
C3851 C284 1.545 . S
C3865 C1164 1.541 . S
C3871 C761 1.549 . S
C3885 C1261 1.548 . S
C3891 C841 1.541 . S
C3905 C1349 1.549 . S
C3911 C929 1.541 . S
C3925 C1025 1.549 . S
C3931 C1076 1.541 . S
C3945 C1428 1.537 . S
C3951 C1868 1.546 . S
C3965 C1965 1.537 . S
C3971 C1525 1.546 . S
C3985 C2081 1.546 . S
C3991 C1633 1.537 . S
C4005 C1692 1.539 . S
C4011 C1817 1.544 . S
C4025 C2572 1.542 . S
C4031 C2161 1.548 . S
C4045 C2249 1.542 . S
C4051 C2669 1.548 . S
C4065 C2345 1.541 . S
C4071 C2757 1.548 . S
C4085 C2484 1.546 . S
C4091 C2433 1.543 . S
